# Generated by pormake.
# Topology pyc, (8)-cn, num edge types: 1
# Building blocks:
#     Node 0, Type 0, BuildingBlock: GIZVER_clean_sbu_0, # of connection points: 8
#     Node 1, Type 0, BuildingBlock: GIZVER_clean_sbu_0, # of connection points: 8
#     Node 2, Type 0, BuildingBlock: GIZVER_clean_sbu_0, # of connection points: 8
#     Node 3, Type 0, BuildingBlock: GIZVER_clean_sbu_0, # of connection points: 8
#     Node 4, Type 0, BuildingBlock: GIZVER_clean_sbu_0, # of connection points: 8
#     Node 5, Type 0, BuildingBlock: GIZVER_clean_sbu_0, # of connection points: 8
#     Node 6, Type 0, BuildingBlock: GIZVER_clean_sbu_0, # of connection points: 8
#     Node 7, Type 0, BuildingBlock: GIZVER_clean_sbu_0, # of connection points: 8
#     Node 8, Type 0, BuildingBlock: GIZVER_clean_sbu_0, # of connection points: 8
#     Node 9, Type 0, BuildingBlock: GIZVER_clean_sbu_0, # of connection points: 8
#     Node 10, Type 0, BuildingBlock: GIZVER_clean_sbu_0, # of connection points: 8
#     Node 11, Type 0, BuildingBlock: GIZVER_clean_sbu_0, # of connection points: 8
#     Node 12, Type 0, BuildingBlock: GIZVER_clean_sbu_0, # of connection points: 8
#     Node 13, Type 0, BuildingBlock: GIZVER_clean_sbu_0, # of connection points: 8
#     Node 14, Type 0, BuildingBlock: GIZVER_clean_sbu_0, # of connection points: 8
#     Node 15, Type 0, BuildingBlock: GIZVER_clean_sbu_0, # of connection points: 8
#     Node 16, Type 0, BuildingBlock: GIZVER_clean_sbu_0, # of connection points: 8
#     Node 17, Type 0, BuildingBlock: GIZVER_clean_sbu_0, # of connection points: 8
#     Node 18, Type 0, BuildingBlock: GIZVER_clean_sbu_0, # of connection points: 8
#     Node 19, Type 0, BuildingBlock: GIZVER_clean_sbu_0, # of connection points: 8
#     Node 20, Type 0, BuildingBlock: GIZVER_clean_sbu_0, # of connection points: 8
#     Node 21, Type 0, BuildingBlock: GIZVER_clean_sbu_0, # of connection points: 8
#     Node 22, Type 0, BuildingBlock: GIZVER_clean_sbu_0, # of connection points: 8
#     Node 23, Type 0, BuildingBlock: GIZVER_clean_sbu_0, # of connection points: 8
#     Node 24, Type 0, BuildingBlock: GIZVER_clean_sbu_0, # of connection points: 8
#     Node 25, Type 0, BuildingBlock: GIZVER_clean_sbu_0, # of connection points: 8
#     Node 26, Type 0, BuildingBlock: GIZVER_clean_sbu_0, # of connection points: 8
#     Node 27, Type 0, BuildingBlock: GIZVER_clean_sbu_0, # of connection points: 8
#     Node 28, Type 0, BuildingBlock: GIZVER_clean_sbu_0, # of connection points: 8
#     Node 29, Type 0, BuildingBlock: GIZVER_clean_sbu_0, # of connection points: 8
#     Node 30, Type 0, BuildingBlock: GIZVER_clean_sbu_0, # of connection points: 8
#     Node 31, Type 0, BuildingBlock: GIZVER_clean_sbu_0, # of connection points: 8
#     Node 32, Type 0, BuildingBlock: GIZVER_clean_sbu_0, # of connection points: 8
#     Node 33, Type 0, BuildingBlock: GIZVER_clean_sbu_0, # of connection points: 8
#     Node 34, Type 0, BuildingBlock: GIZVER_clean_sbu_0, # of connection points: 8
#     Node 35, Type 0, BuildingBlock: GIZVER_clean_sbu_0, # of connection points: 8
#     Node 36, Type 0, BuildingBlock: GIZVER_clean_sbu_0, # of connection points: 8
#     Node 37, Type 0, BuildingBlock: GIZVER_clean_sbu_0, # of connection points: 8
#     Node 38, Type 0, BuildingBlock: GIZVER_clean_sbu_0, # of connection points: 8
#     Node 39, Type 0, BuildingBlock: GIZVER_clean_sbu_0, # of connection points: 8
#     Node 40, Type 0, BuildingBlock: GIZVER_clean_sbu_0, # of connection points: 8
#     Node 41, Type 0, BuildingBlock: GIZVER_clean_sbu_0, # of connection points: 8
#     Node 42, Type 0, BuildingBlock: GIZVER_clean_sbu_0, # of connection points: 8
#     Node 43, Type 0, BuildingBlock: GIZVER_clean_sbu_0, # of connection points: 8
#     Node 44, Type 0, BuildingBlock: GIZVER_clean_sbu_0, # of connection points: 8
#     Node 45, Type 0, BuildingBlock: GIZVER_clean_sbu_0, # of connection points: 8
#     Node 46, Type 0, BuildingBlock: GIZVER_clean_sbu_0, # of connection points: 8
#     Node 47, Type 0, BuildingBlock: GIZVER_clean_sbu_0, # of connection points: 8
#     Edge 48, Type (0, 0), BuildingBlock: XUDNAN_clean_linker_2, # of connection points: 2
#     Edge 49, Type (0, 0), BuildingBlock: XUDNAN_clean_linker_2, # of connection points: 2
#     Edge 50, Type (0, 0), BuildingBlock: XUDNAN_clean_linker_2, # of connection points: 2
#     Edge 51, Type (0, 0), BuildingBlock: XUDNAN_clean_linker_2, # of connection points: 2
#     Edge 52, Type (0, 0), BuildingBlock: XUDNAN_clean_linker_2, # of connection points: 2
#     Edge 53, Type (0, 0), BuildingBlock: XUDNAN_clean_linker_2, # of connection points: 2
#     Edge 54, Type (0, 0), BuildingBlock: XUDNAN_clean_linker_2, # of connection points: 2
#     Edge 55, Type (0, 0), BuildingBlock: XUDNAN_clean_linker_2, # of connection points: 2
#     Edge 56, Type (0, 0), BuildingBlock: XUDNAN_clean_linker_2, # of connection points: 2
#     Edge 57, Type (0, 0), BuildingBlock: XUDNAN_clean_linker_2, # of connection points: 2
#     Edge 58, Type (0, 0), BuildingBlock: XUDNAN_clean_linker_2, # of connection points: 2
#     Edge 59, Type (0, 0), BuildingBlock: XUDNAN_clean_linker_2, # of connection points: 2
#     Edge 60, Type (0, 0), BuildingBlock: XUDNAN_clean_linker_2, # of connection points: 2
#     Edge 61, Type (0, 0), BuildingBlock: XUDNAN_clean_linker_2, # of connection points: 2
#     Edge 62, Type (0, 0), BuildingBlock: XUDNAN_clean_linker_2, # of connection points: 2
#     Edge 63, Type (0, 0), BuildingBlock: XUDNAN_clean_linker_2, # of connection points: 2
#     Edge 64, Type (0, 0), BuildingBlock: XUDNAN_clean_linker_2, # of connection points: 2
#     Edge 65, Type (0, 0), BuildingBlock: XUDNAN_clean_linker_2, # of connection points: 2
#     Edge 66, Type (0, 0), BuildingBlock: XUDNAN_clean_linker_2, # of connection points: 2
#     Edge 67, Type (0, 0), BuildingBlock: XUDNAN_clean_linker_2, # of connection points: 2
#     Edge 68, Type (0, 0), BuildingBlock: XUDNAN_clean_linker_2, # of connection points: 2
#     Edge 69, Type (0, 0), BuildingBlock: XUDNAN_clean_linker_2, # of connection points: 2
#     Edge 70, Type (0, 0), BuildingBlock: XUDNAN_clean_linker_2, # of connection points: 2
#     Edge 71, Type (0, 0), BuildingBlock: XUDNAN_clean_linker_2, # of connection points: 2
#     Edge 72, Type (0, 0), BuildingBlock: XUDNAN_clean_linker_2, # of connection points: 2
#     Edge 73, Type (0, 0), BuildingBlock: XUDNAN_clean_linker_2, # of connection points: 2
#     Edge 74, Type (0, 0), BuildingBlock: XUDNAN_clean_linker_2, # of connection points: 2
#     Edge 75, Type (0, 0), BuildingBlock: XUDNAN_clean_linker_2, # of connection points: 2
#     Edge 76, Type (0, 0), BuildingBlock: XUDNAN_clean_linker_2, # of connection points: 2
#     Edge 77, Type (0, 0), BuildingBlock: XUDNAN_clean_linker_2, # of connection points: 2
#     Edge 78, Type (0, 0), BuildingBlock: XUDNAN_clean_linker_2, # of connection points: 2
#     Edge 79, Type (0, 0), BuildingBlock: XUDNAN_clean_linker_2, # of connection points: 2
#     Edge 80, Type (0, 0), BuildingBlock: XUDNAN_clean_linker_2, # of connection points: 2
#     Edge 81, Type (0, 0), BuildingBlock: XUDNAN_clean_linker_2, # of connection points: 2
#     Edge 82, Type (0, 0), BuildingBlock: XUDNAN_clean_linker_2, # of connection points: 2
#     Edge 83, Type (0, 0), BuildingBlock: XUDNAN_clean_linker_2, # of connection points: 2
#     Edge 84, Type (0, 0), BuildingBlock: XUDNAN_clean_linker_2, # of connection points: 2
#     Edge 85, Type (0, 0), BuildingBlock: XUDNAN_clean_linker_2, # of connection points: 2
#     Edge 86, Type (0, 0), BuildingBlock: XUDNAN_clean_linker_2, # of connection points: 2
#     Edge 87, Type (0, 0), BuildingBlock: XUDNAN_clean_linker_2, # of connection points: 2
#     Edge 88, Type (0, 0), BuildingBlock: XUDNAN_clean_linker_2, # of connection points: 2
#     Edge 89, Type (0, 0), BuildingBlock: XUDNAN_clean_linker_2, # of connection points: 2
#     Edge 90, Type (0, 0), BuildingBlock: XUDNAN_clean_linker_2, # of connection points: 2
#     Edge 91, Type (0, 0), BuildingBlock: XUDNAN_clean_linker_2, # of connection points: 2
#     Edge 92, Type (0, 0), BuildingBlock: XUDNAN_clean_linker_2, # of connection points: 2
#     Edge 93, Type (0, 0), BuildingBlock: XUDNAN_clean_linker_2, # of connection points: 2
#     Edge 94, Type (0, 0), BuildingBlock: XUDNAN_clean_linker_2, # of connection points: 2
#     Edge 95, Type (0, 0), BuildingBlock: XUDNAN_clean_linker_2, # of connection points: 2
#     Edge 96, Type (0, 0), BuildingBlock: XUDNAN_clean_linker_2, # of connection points: 2
#     Edge 97, Type (0, 0), BuildingBlock: XUDNAN_clean_linker_2, # of connection points: 2
#     Edge 98, Type (0, 0), BuildingBlock: XUDNAN_clean_linker_2, # of connection points: 2
#     Edge 99, Type (0, 0), BuildingBlock: XUDNAN_clean_linker_2, # of connection points: 2
#     Edge 100, Type (0, 0), BuildingBlock: XUDNAN_clean_linker_2, # of connection points: 2
#     Edge 101, Type (0, 0), BuildingBlock: XUDNAN_clean_linker_2, # of connection points: 2
#     Edge 102, Type (0, 0), BuildingBlock: XUDNAN_clean_linker_2, # of connection points: 2
#     Edge 103, Type (0, 0), BuildingBlock: XUDNAN_clean_linker_2, # of connection points: 2
#     Edge 104, Type (0, 0), BuildingBlock: XUDNAN_clean_linker_2, # of connection points: 2
#     Edge 105, Type (0, 0), BuildingBlock: XUDNAN_clean_linker_2, # of connection points: 2
#     Edge 106, Type (0, 0), BuildingBlock: XUDNAN_clean_linker_2, # of connection points: 2
#     Edge 107, Type (0, 0), BuildingBlock: XUDNAN_clean_linker_2, # of connection points: 2
#     Edge 108, Type (0, 0), BuildingBlock: XUDNAN_clean_linker_2, # of connection points: 2
#     Edge 109, Type (0, 0), BuildingBlock: XUDNAN_clean_linker_2, # of connection points: 2
#     Edge 110, Type (0, 0), BuildingBlock: XUDNAN_clean_linker_2, # of connection points: 2
#     Edge 111, Type (0, 0), BuildingBlock: XUDNAN_clean_linker_2, # of connection points: 2
#     Edge 112, Type (0, 0), BuildingBlock: XUDNAN_clean_linker_2, # of connection points: 2
#     Edge 113, Type (0, 0), BuildingBlock: XUDNAN_clean_linker_2, # of connection points: 2
#     Edge 114, Type (0, 0), BuildingBlock: XUDNAN_clean_linker_2, # of connection points: 2
#     Edge 115, Type (0, 0), BuildingBlock: XUDNAN_clean_linker_2, # of connection points: 2
#     Edge 116, Type (0, 0), BuildingBlock: XUDNAN_clean_linker_2, # of connection points: 2
#     Edge 117, Type (0, 0), BuildingBlock: XUDNAN_clean_linker_2, # of connection points: 2
#     Edge 118, Type (0, 0), BuildingBlock: XUDNAN_clean_linker_2, # of connection points: 2
#     Edge 119, Type (0, 0), BuildingBlock: XUDNAN_clean_linker_2, # of connection points: 2
#     Edge 120, Type (0, 0), BuildingBlock: XUDNAN_clean_linker_2, # of connection points: 2
#     Edge 121, Type (0, 0), BuildingBlock: XUDNAN_clean_linker_2, # of connection points: 2
#     Edge 122, Type (0, 0), BuildingBlock: XUDNAN_clean_linker_2, # of connection points: 2
#     Edge 123, Type (0, 0), BuildingBlock: XUDNAN_clean_linker_2, # of connection points: 2
#     Edge 124, Type (0, 0), BuildingBlock: XUDNAN_clean_linker_2, # of connection points: 2
#     Edge 125, Type (0, 0), BuildingBlock: XUDNAN_clean_linker_2, # of connection points: 2
#     Edge 126, Type (0, 0), BuildingBlock: XUDNAN_clean_linker_2, # of connection points: 2
#     Edge 127, Type (0, 0), BuildingBlock: XUDNAN_clean_linker_2, # of connection points: 2
#     Edge 128, Type (0, 0), BuildingBlock: XUDNAN_clean_linker_2, # of connection points: 2
#     Edge 129, Type (0, 0), BuildingBlock: XUDNAN_clean_linker_2, # of connection points: 2
#     Edge 130, Type (0, 0), BuildingBlock: XUDNAN_clean_linker_2, # of connection points: 2
#     Edge 131, Type (0, 0), BuildingBlock: XUDNAN_clean_linker_2, # of connection points: 2
#     Edge 132, Type (0, 0), BuildingBlock: XUDNAN_clean_linker_2, # of connection points: 2
#     Edge 133, Type (0, 0), BuildingBlock: XUDNAN_clean_linker_2, # of connection points: 2
#     Edge 134, Type (0, 0), BuildingBlock: XUDNAN_clean_linker_2, # of connection points: 2
#     Edge 135, Type (0, 0), BuildingBlock: XUDNAN_clean_linker_2, # of connection points: 2
#     Edge 136, Type (0, 0), BuildingBlock: XUDNAN_clean_linker_2, # of connection points: 2
#     Edge 137, Type (0, 0), BuildingBlock: XUDNAN_clean_linker_2, # of connection points: 2
#     Edge 138, Type (0, 0), BuildingBlock: XUDNAN_clean_linker_2, # of connection points: 2
#     Edge 139, Type (0, 0), BuildingBlock: XUDNAN_clean_linker_2, # of connection points: 2
#     Edge 140, Type (0, 0), BuildingBlock: XUDNAN_clean_linker_2, # of connection points: 2
#     Edge 141, Type (0, 0), BuildingBlock: XUDNAN_clean_linker_2, # of connection points: 2
#     Edge 142, Type (0, 0), BuildingBlock: XUDNAN_clean_linker_2, # of connection points: 2
#     Edge 143, Type (0, 0), BuildingBlock: XUDNAN_clean_linker_2, # of connection points: 2
#     Edge 144, Type (0, 0), BuildingBlock: XUDNAN_clean_linker_2, # of connection points: 2
#     Edge 145, Type (0, 0), BuildingBlock: XUDNAN_clean_linker_2, # of connection points: 2
#     Edge 146, Type (0, 0), BuildingBlock: XUDNAN_clean_linker_2, # of connection points: 2
#     Edge 147, Type (0, 0), BuildingBlock: XUDNAN_clean_linker_2, # of connection points: 2
#     Edge 148, Type (0, 0), BuildingBlock: XUDNAN_clean_linker_2, # of connection points: 2
#     Edge 149, Type (0, 0), BuildingBlock: XUDNAN_clean_linker_2, # of connection points: 2
#     Edge 150, Type (0, 0), BuildingBlock: XUDNAN_clean_linker_2, # of connection points: 2
#     Edge 151, Type (0, 0), BuildingBlock: XUDNAN_clean_linker_2, # of connection points: 2
#     Edge 152, Type (0, 0), BuildingBlock: XUDNAN_clean_linker_2, # of connection points: 2
#     Edge 153, Type (0, 0), BuildingBlock: XUDNAN_clean_linker_2, # of connection points: 2
#     Edge 154, Type (0, 0), BuildingBlock: XUDNAN_clean_linker_2, # of connection points: 2
#     Edge 155, Type (0, 0), BuildingBlock: XUDNAN_clean_linker_2, # of connection points: 2
#     Edge 156, Type (0, 0), BuildingBlock: XUDNAN_clean_linker_2, # of connection points: 2
#     Edge 157, Type (0, 0), BuildingBlock: XUDNAN_clean_linker_2, # of connection points: 2
#     Edge 158, Type (0, 0), BuildingBlock: XUDNAN_clean_linker_2, # of connection points: 2
#     Edge 159, Type (0, 0), BuildingBlock: XUDNAN_clean_linker_2, # of connection points: 2
#     Edge 160, Type (0, 0), BuildingBlock: XUDNAN_clean_linker_2, # of connection points: 2
#     Edge 161, Type (0, 0), BuildingBlock: XUDNAN_clean_linker_2, # of connection points: 2
#     Edge 162, Type (0, 0), BuildingBlock: XUDNAN_clean_linker_2, # of connection points: 2
#     Edge 163, Type (0, 0), BuildingBlock: XUDNAN_clean_linker_2, # of connection points: 2
#     Edge 164, Type (0, 0), BuildingBlock: XUDNAN_clean_linker_2, # of connection points: 2
#     Edge 165, Type (0, 0), BuildingBlock: XUDNAN_clean_linker_2, # of connection points: 2
#     Edge 166, Type (0, 0), BuildingBlock: XUDNAN_clean_linker_2, # of connection points: 2
#     Edge 167, Type (0, 0), BuildingBlock: XUDNAN_clean_linker_2, # of connection points: 2
#     Edge 168, Type (0, 0), BuildingBlock: XUDNAN_clean_linker_2, # of connection points: 2
#     Edge 169, Type (0, 0), BuildingBlock: XUDNAN_clean_linker_2, # of connection points: 2
#     Edge 170, Type (0, 0), BuildingBlock: XUDNAN_clean_linker_2, # of connection points: 2
#     Edge 171, Type (0, 0), BuildingBlock: XUDNAN_clean_linker_2, # of connection points: 2
#     Edge 172, Type (0, 0), BuildingBlock: XUDNAN_clean_linker_2, # of connection points: 2
#     Edge 173, Type (0, 0), BuildingBlock: XUDNAN_clean_linker_2, # of connection points: 2
#     Edge 174, Type (0, 0), BuildingBlock: XUDNAN_clean_linker_2, # of connection points: 2
#     Edge 175, Type (0, 0), BuildingBlock: XUDNAN_clean_linker_2, # of connection points: 2
#     Edge 176, Type (0, 0), BuildingBlock: XUDNAN_clean_linker_2, # of connection points: 2
#     Edge 177, Type (0, 0), BuildingBlock: XUDNAN_clean_linker_2, # of connection points: 2
#     Edge 178, Type (0, 0), BuildingBlock: XUDNAN_clean_linker_2, # of connection points: 2
#     Edge 179, Type (0, 0), BuildingBlock: XUDNAN_clean_linker_2, # of connection points: 2
#     Edge 180, Type (0, 0), BuildingBlock: XUDNAN_clean_linker_2, # of connection points: 2
#     Edge 181, Type (0, 0), BuildingBlock: XUDNAN_clean_linker_2, # of connection points: 2
#     Edge 182, Type (0, 0), BuildingBlock: XUDNAN_clean_linker_2, # of connection points: 2
#     Edge 183, Type (0, 0), BuildingBlock: XUDNAN_clean_linker_2, # of connection points: 2
#     Edge 184, Type (0, 0), BuildingBlock: XUDNAN_clean_linker_2, # of connection points: 2
#     Edge 185, Type (0, 0), BuildingBlock: XUDNAN_clean_linker_2, # of connection points: 2
#     Edge 186, Type (0, 0), BuildingBlock: XUDNAN_clean_linker_2, # of connection points: 2
#     Edge 187, Type (0, 0), BuildingBlock: XUDNAN_clean_linker_2, # of connection points: 2
#     Edge 188, Type (0, 0), BuildingBlock: XUDNAN_clean_linker_2, # of connection points: 2
#     Edge 189, Type (0, 0), BuildingBlock: XUDNAN_clean_linker_2, # of connection points: 2
#     Edge 190, Type (0, 0), BuildingBlock: XUDNAN_clean_linker_2, # of connection points: 2
#     Edge 191, Type (0, 0), BuildingBlock: XUDNAN_clean_linker_2, # of connection points: 2
#     Edge 192, Type (0, 0), BuildingBlock: XUDNAN_clean_linker_2, # of connection points: 2
#     Edge 193, Type (0, 0), BuildingBlock: XUDNAN_clean_linker_2, # of connection points: 2
#     Edge 194, Type (0, 0), BuildingBlock: XUDNAN_clean_linker_2, # of connection points: 2
#     Edge 195, Type (0, 0), BuildingBlock: XUDNAN_clean_linker_2, # of connection points: 2
#     Edge 196, Type (0, 0), BuildingBlock: XUDNAN_clean_linker_2, # of connection points: 2
#     Edge 197, Type (0, 0), BuildingBlock: XUDNAN_clean_linker_2, # of connection points: 2
#     Edge 198, Type (0, 0), BuildingBlock: XUDNAN_clean_linker_2, # of connection points: 2
#     Edge 199, Type (0, 0), BuildingBlock: XUDNAN_clean_linker_2, # of connection points: 2
#     Edge 200, Type (0, 0), BuildingBlock: XUDNAN_clean_linker_2, # of connection points: 2
#     Edge 201, Type (0, 0), BuildingBlock: XUDNAN_clean_linker_2, # of connection points: 2
#     Edge 202, Type (0, 0), BuildingBlock: XUDNAN_clean_linker_2, # of connection points: 2
#     Edge 203, Type (0, 0), BuildingBlock: XUDNAN_clean_linker_2, # of connection points: 2
#     Edge 204, Type (0, 0), BuildingBlock: XUDNAN_clean_linker_2, # of connection points: 2
#     Edge 205, Type (0, 0), BuildingBlock: XUDNAN_clean_linker_2, # of connection points: 2
#     Edge 206, Type (0, 0), BuildingBlock: XUDNAN_clean_linker_2, # of connection points: 2
#     Edge 207, Type (0, 0), BuildingBlock: XUDNAN_clean_linker_2, # of connection points: 2
#     Edge 208, Type (0, 0), BuildingBlock: XUDNAN_clean_linker_2, # of connection points: 2
#     Edge 209, Type (0, 0), BuildingBlock: XUDNAN_clean_linker_2, # of connection points: 2
#     Edge 210, Type (0, 0), BuildingBlock: XUDNAN_clean_linker_2, # of connection points: 2
#     Edge 211, Type (0, 0), BuildingBlock: XUDNAN_clean_linker_2, # of connection points: 2
#     Edge 212, Type (0, 0), BuildingBlock: XUDNAN_clean_linker_2, # of connection points: 2
#     Edge 213, Type (0, 0), BuildingBlock: XUDNAN_clean_linker_2, # of connection points: 2
#     Edge 214, Type (0, 0), BuildingBlock: XUDNAN_clean_linker_2, # of connection points: 2
#     Edge 215, Type (0, 0), BuildingBlock: XUDNAN_clean_linker_2, # of connection points: 2
#     Edge 216, Type (0, 0), BuildingBlock: XUDNAN_clean_linker_2, # of connection points: 2
#     Edge 217, Type (0, 0), BuildingBlock: XUDNAN_clean_linker_2, # of connection points: 2
#     Edge 218, Type (0, 0), BuildingBlock: XUDNAN_clean_linker_2, # of connection points: 2
#     Edge 219, Type (0, 0), BuildingBlock: XUDNAN_clean_linker_2, # of connection points: 2
#     Edge 220, Type (0, 0), BuildingBlock: XUDNAN_clean_linker_2, # of connection points: 2
#     Edge 221, Type (0, 0), BuildingBlock: XUDNAN_clean_linker_2, # of connection points: 2
#     Edge 222, Type (0, 0), BuildingBlock: XUDNAN_clean_linker_2, # of connection points: 2
#     Edge 223, Type (0, 0), BuildingBlock: XUDNAN_clean_linker_2, # of connection points: 2
#     Edge 224, Type (0, 0), BuildingBlock: XUDNAN_clean_linker_2, # of connection points: 2
#     Edge 225, Type (0, 0), BuildingBlock: XUDNAN_clean_linker_2, # of connection points: 2
#     Edge 226, Type (0, 0), BuildingBlock: XUDNAN_clean_linker_2, # of connection points: 2
#     Edge 227, Type (0, 0), BuildingBlock: XUDNAN_clean_linker_2, # of connection points: 2
#     Edge 228, Type (0, 0), BuildingBlock: XUDNAN_clean_linker_2, # of connection points: 2
#     Edge 229, Type (0, 0), BuildingBlock: XUDNAN_clean_linker_2, # of connection points: 2
#     Edge 230, Type (0, 0), BuildingBlock: XUDNAN_clean_linker_2, # of connection points: 2
#     Edge 231, Type (0, 0), BuildingBlock: XUDNAN_clean_linker_2, # of connection points: 2
#     Edge 232, Type (0, 0), BuildingBlock: XUDNAN_clean_linker_2, # of connection points: 2
#     Edge 233, Type (0, 0), BuildingBlock: XUDNAN_clean_linker_2, # of connection points: 2
#     Edge 234, Type (0, 0), BuildingBlock: XUDNAN_clean_linker_2, # of connection points: 2
#     Edge 235, Type (0, 0), BuildingBlock: XUDNAN_clean_linker_2, # of connection points: 2
#     Edge 236, Type (0, 0), BuildingBlock: XUDNAN_clean_linker_2, # of connection points: 2
#     Edge 237, Type (0, 0), BuildingBlock: XUDNAN_clean_linker_2, # of connection points: 2
#     Edge 238, Type (0, 0), BuildingBlock: XUDNAN_clean_linker_2, # of connection points: 2
#     Edge 239, Type (0, 0), BuildingBlock: XUDNAN_clean_linker_2, # of connection points: 2
# Relax obj value: 0.369
# Max RMSD: 0.237
# Mean RMSD: 0.206
data_MOF--net-pyc--node1-GIZVER_clean_sbu_0--edge1-XUDNAN_clean_linker_2
_symmetry_space_group_name_H-M    P1
_symmetry_Int_Tables_number       1
_symmetry_cell_setting            triclinic
loop_
_symmetry_equiv_pos_as_xyz
'x, y, z'
_cell_length_a     66.293264
_cell_length_b     64.838487
_cell_length_c     63.279256
_cell_angle_alpha  90.288486
_cell_angle_beta   88.571655
_cell_angle_gamma 92.043093
loop_
_atom_site_label
_atom_site_type_symbol
_atom_site_fract_x
_atom_site_fract_y
_atom_site_fract_z
_atom_type_partial_charge
Co0 Co 0.17652 0.20253 0.45401 0.0
Co1 Co 0.16517 0.19088 0.49017 0.0
Co2 Co 0.16116 0.15331 0.45978 0.0
O3 O 0.15785 0.18261 0.46448 0.0
H4 H 0.14402 0.18622 0.46245 0.0
O5 O 0.16437 0.12427 0.45495 0.0
Co6 Co 0.14842 0.10247 0.46673 0.0
Co7 Co 0.15286 0.11779 0.42967 0.0
H8 H 0.1785 0.12109 0.4541 0.0
O9 O 0.15391 0.21282 0.5029 0.0
O10 O 0.18333 0.21219 0.48347 0.0
O11 O 0.17821 0.17089 0.50673 0.0
O12 O 0.18557 0.15159 0.47866 0.0
O13 O 0.14205 0.14757 0.48488 0.0
O14 O 0.13583 0.0804 0.47735 0.0
O15 O 0.16782 0.08412 0.46449 0.0
O16 O 0.12547 0.11983 0.47259 0.0
O17 O 0.13271 0.1534 0.44406 0.0
O18 O 0.13085 0.13133 0.41761 0.0
O19 O 0.13961 0.0943 0.43774 0.0
O20 O 0.16579 0.10034 0.41382 0.0
C21 C 0.17295 0.22986 0.44152 0.0
C22 C 0.20046 0.17112 0.43919 0.0
C23 C 0.1886 0.15711 0.49785 0.0
C24 C 0.17183 0.22051 0.49808 0.0
C25 C 0.15341 0.07278 0.4734 0.0
C26 C 0.12645 0.1352 0.48539 0.0
C27 C 0.12199 0.14342 0.43 0.0
C28 C 0.15059 0.08902 0.42112 0.0
O29 O 0.19107 0.22281 0.44231 0.0
O30 O 0.15789 0.22103 0.45189 0.0
O31 O 0.18398 0.1597 0.43538 0.0
O32 O 0.1989 0.18456 0.45381 0.0
Co33 Co 0.86881 0.43843 0.69037 0.0
Co34 Co 0.86099 0.42849 0.72596 0.0
Co35 Co 0.90798 0.42728 0.7123 0.0
O36 O 0.87974 0.41991 0.70858 0.0
H37 H 0.87736 0.40554 0.70496 0.0
O38 O 0.93624 0.4343 0.71586 0.0
Co39 Co 0.95348 0.41939 0.73232 0.0
Co40 Co 0.95089 0.42346 0.69449 0.0
H41 H 0.93873 0.44906 0.71679 0.0
O42 O 0.83944 0.41114 0.72852 0.0
O43 O 0.84331 0.43912 0.70701 0.0
O44 O 0.87095 0.44543 0.74888 0.0
O45 O 0.90341 0.4473 0.73776 0.0
O46 O 0.90893 0.4044 0.73271 0.0
O47 O 0.97055 0.4074 0.74834 0.0
O48 O 0.96743 0.4415 0.74258 0.0
O49 O 0.93967 0.39351 0.72529 0.0
O50 O 0.91187 0.40285 0.6888 0.0
O51 O 0.94414 0.39783 0.6814 0.0
O52 O 0.97356 0.41857 0.70769 0.0
O53 O 0.96634 0.44143 0.68129 0.0
C54 C 0.85663 0.43593 0.66215 0.0
C55 C 0.89367 0.46767 0.69767 0.0
C56 C 0.88908 0.45218 0.75102 0.0
C57 C 0.8323 0.42386 0.71491 0.0
C58 C 0.97609 0.42645 0.75203 0.0
C59 C 0.9214 0.38996 0.73172 0.0
C60 C 0.92615 0.39111 0.68107 0.0
C61 C 0.97909 0.43201 0.69286 0.0
O62 O 0.85894 0.45392 0.67109 0.0
O63 O 0.8597 0.41915 0.67265 0.0
O64 O 0.90678 0.4538 0.69272 0.0
O65 O 0.87757 0.46085 0.70641 0.0
Co66 Co 0.67453 0.20228 0.9517 0.0
Co67 Co 0.66921 0.19361 0.98875 0.0
Co68 Co 0.66128 0.15331 0.96082 0.0
O69 O 0.6579 0.18274 0.96601 0.0
H70 H 0.64379 0.18602 0.96612 0.0
O71 O 0.66446 0.1242 0.9556 0.0
Co72 Co 0.64884 0.10241 0.96802 0.0
Co73 Co 0.65242 0.11731 0.93083 0.0
H74 H 0.67858 0.12102 0.95438 0.0
O75 O 0.65567 0.21214 1.00358 0.0
O76 O 0.68134 0.21777 0.97911 0.0
O77 O 0.68814 0.17718 1.00204 0.0
O78 O 0.68597 0.15084 0.97926 0.0
O79 O 0.64248 0.14736 0.98606 0.0
O80 O 0.63655 0.08046 0.97927 0.0
O81 O 0.66829 0.08404 0.96577 0.0
O82 O 0.62595 0.11961 0.97379 0.0
O83 O 0.63259 0.15363 0.94531 0.0
O84 O 0.63021 0.13089 0.91938 0.0
O85 O 0.63946 0.09377 0.93941 0.0
O86 O 0.66499 0.09969 0.91473 0.0
C87 C 0.66872 0.22694 0.93498 0.0
C88 C 0.70026 0.17189 0.93981 0.0
C89 C 0.6942 0.16013 0.99494 0.0
C90 C 0.67018 0.22386 0.9954 0.0
C91 C 0.65408 0.0728 0.97517 0.0
C92 C 0.6269 0.13498 0.98653 0.0
C93 C 0.6216 0.14331 0.93162 0.0
C94 C 0.64991 0.08846 0.92246 0.0
O95 O 0.68726 0.22127 0.93638 0.0
O96 O 0.65438 0.21875 0.94696 0.0
O97 O 0.684 0.15999 0.93637 0.0
O98 O 0.69824 0.1862 0.95352 0.0
Co99 Co 0.87174 0.93895 0.18572 0.0
Co100 Co 0.86248 0.92912 0.22096 0.0
Co101 Co 0.90981 0.9273 0.20991 0.0
O102 O 0.88184 0.92045 0.20427 0.0
H103 H 0.87953 0.90611 0.20049 0.0
O104 O 0.93789 0.93376 0.21582 0.0
Co105 Co 0.95269 0.91768 0.23393 0.0
Co106 Co 0.95461 0.92391 0.19596 0.0
H107 H 0.94041 0.94841 0.21782 0.0
O108 O 0.84108 0.91161 0.22269 0.0
O109 O 0.84552 0.9396 0.20121 0.0
O110 O 0.87122 0.94602 0.24473 0.0
O111 O 0.90417 0.94627 0.23585 0.0
O112 O 0.90867 0.90313 0.22921 0.0
O113 O 0.96698 0.90461 0.25188 0.0
O114 O 0.96626 0.93899 0.24638 0.0
O115 O 0.93971 0.89256 0.22421 0.0
O116 O 0.91512 0.90453 0.18529 0.0
O117 O 0.94788 0.89985 0.18015 0.0
O118 O 0.97499 0.91653 0.21201 0.0
O119 O 0.97303 0.94182 0.18686 0.0
C120 C 0.86036 0.93652 0.15703 0.0
C121 C 0.89647 0.96816 0.19557 0.0
C122 C 0.88943 0.95181 0.24818 0.0
C123 C 0.8344 0.92428 0.20878 0.0
C124 C 0.97271 0.92331 0.25682 0.0
C125 C 0.92118 0.88874 0.2291 0.0
C126 C 0.92993 0.89346 0.17773 0.0
C127 C 0.9834 0.93064 0.19939 0.0
O128 O 0.86264 0.95455 0.16593 0.0
O129 O 0.86336 0.9198 0.16761 0.0
O130 O 0.9101 0.95462 0.19147 0.0
O131 O 0.8797 0.96105 0.20242 0.0
Co132 Co 0.11624 0.16775 0.83039 0.0
Co133 Co 0.12647 0.16484 0.79414 0.0
Co134 Co 0.12219 0.11998 0.81369 0.0
O135 O 0.12995 0.1488 0.81504 0.0
H136 H 0.14427 0.14998 0.81753 0.0
O137 O 0.11591 0.0892 0.8127 0.0
Co138 Co 0.13216 0.07374 0.79264 0.0
Co139 Co 0.12876 0.07199 0.83128 0.0
H140 H 0.10159 0.08602 0.81192 0.0
O141 O 0.14702 0.18097 0.78632 0.0
O142 O 0.11873 0.18894 0.80608 0.0
O143 O 0.10968 0.15385 0.77355 0.0
O144 O 0.10328 0.12262 0.7876 0.0
O145 O 0.14687 0.1183 0.79353 0.0
O146 O 0.1445 0.0594 0.77281 0.0
O147 O 0.11129 0.05895 0.78173 0.0
O148 O 0.15625 0.08726 0.80078 0.0
O149 O 0.14485 0.11742 0.83823 0.0
O150 O 0.15206 0.0844 0.84395 0.0
O151 O 0.13873 0.05187 0.81323 0.0
O152 O 0.11877 0.04725 0.84256 0.0
C153 C 0.1248 0.1867 0.85299 0.0
C154 C 0.08198 0.14147 0.82913 0.0
C155 C 0.10057 0.13638 0.77313 0.0
C156 C 0.1341 0.19429 0.79324 0.0
C157 C 0.12606 0.05317 0.76928 0.0
C158 C 0.1608 0.10529 0.79449 0.0
C159 C 0.15712 0.10334 0.84526 0.0
C160 C 0.13217 0.04052 0.82912 0.0
O161 O 0.10589 0.18582 0.84778 0.0
O162 O 0.13854 0.17792 0.84159 0.0
O163 O 0.09416 0.12576 0.8321 0.0
O164 O 0.09013 0.15779 0.82095 0.0
Co165 Co 0.86142 0.37336 0.0986 0.0
Co166 Co 0.85343 0.3832 0.06297 0.0
Co167 Co 0.9003 0.38586 0.07019 0.0
O168 O 0.87306 0.39191 0.07966 0.0
H169 H 0.8716 0.40622 0.08357 0.0
O170 O 0.92822 0.38042 0.06049 0.0
Co171 Co 0.94421 0.38943 0.03601 0.0
Co172 Co 0.93886 0.40513 0.06698 0.0
H173 H 0.93425 0.36977 0.06862 0.0
O174 O 0.83296 0.4001 0.06163 0.0
O175 O 0.83551 0.37196 0.08285 0.0
O176 O 0.85997 0.36343 0.04066 0.0
O177 O 0.89262 0.36462 0.0483 0.0
O178 O 0.89704 0.40912 0.04809 0.0
O179 O 0.95937 0.39599 0.01427 0.0
O180 O 0.96422 0.37109 0.03819 0.0
O181 O 0.92604 0.40988 0.02978 0.0
O182 O 0.90885 0.40962 0.09232 0.0
O183 O 0.92472 0.42957 0.06902 0.0
O184 O 0.96116 0.40949 0.05327 0.0
O185 O 0.9535 0.40287 0.08858 0.0
C186 C 0.84833 0.37529 0.12724 0.0
C187 C 0.88633 0.34487 0.09041 0.0
C188 C 0.87775 0.35699 0.03805 0.0
C189 C 0.82482 0.38613 0.07421 0.0
C190 C 0.9706 0.38201 0.02185 0.0
C191 C 0.90873 0.41693 0.03335 0.0
C192 C 0.91565 0.42802 0.08648 0.0
C193 C 0.96541 0.41013 0.0735 0.0
O194 O 0.85095 0.35773 0.11801 0.0
O195 O 0.85222 0.39245 0.11699 0.0
O196 O 0.90093 0.3592 0.09124 0.0
O197 O 0.87033 0.3511 0.08253 0.0
Co198 Co 0.61285 0.16789 0.33047 0.0
Co199 Co 0.62674 0.16639 0.29463 0.0
Co200 Co 0.62259 0.12097 0.31239 0.0
O201 O 0.62889 0.15005 0.31599 0.0
H202 H 0.64283 0.15181 0.31995 0.0
O203 O 0.61825 0.08997 0.30833 0.0
Co204 Co 0.63773 0.07515 0.29001 0.0
Co205 Co 0.63055 0.07355 0.32799 0.0
H206 H 0.60429 0.08591 0.30613 0.0
O207 O 0.64621 0.18541 0.28988 0.0
O208 O 0.61536 0.18911 0.30653 0.0
O209 O 0.61176 0.15533 0.27228 0.0
O210 O 0.60361 0.12453 0.2865 0.0
O211 O 0.64712 0.12135 0.29249 0.0
O212 O 0.65337 0.06186 0.27258 0.0
O213 O 0.61965 0.05744 0.27679 0.0
O214 O 0.65983 0.09142 0.29975 0.0
O215 O 0.64565 0.11808 0.33682 0.0
O216 O 0.65258 0.08524 0.34308 0.0
O217 O 0.64277 0.05338 0.31199 0.0
O218 O 0.61835 0.05004 0.33778 0.0
C219 C 0.61845 0.18722 0.35394 0.0
C220 C 0.58112 0.1399 0.32788 0.0
C221 C 0.60177 0.13832 0.27184 0.0
C222 C 0.63144 0.1968 0.29625 0.0
C223 C 0.63666 0.05252 0.26736 0.0
C224 C 0.66221 0.10969 0.29293 0.0
C225 C 0.6577 0.10409 0.34449 0.0
C226 C 0.63271 0.04222 0.32626 0.0
O227 O 0.60008 0.18513 0.34712 0.0
O228 O 0.63344 0.17945 0.34345 0.0
O229 O 0.59402 0.12473 0.33089 0.0
O230 O 0.58852 0.15621 0.31908 0.0
Co231 Co 0.86489 0.8776 0.6033 0.0
Co232 Co 0.8565 0.88728 0.56802 0.0
Co233 Co 0.90361 0.88595 0.5713 0.0
O234 O 0.87753 0.89386 0.58245 0.0
H235 H 0.8772 0.90847 0.58546 0.0
O236 O 0.93033 0.87818 0.56082 0.0
Co237 Co 0.94484 0.89175 0.53839 0.0
Co238 Co 0.9499 0.88984 0.57767 0.0
H239 H 0.93147 0.86337 0.56021 0.0
O240 O 0.83862 0.90665 0.56733 0.0
O241 O 0.83842 0.8777 0.58807 0.0
O242 O 0.8601 0.86752 0.54602 0.0
O243 O 0.89329 0.86477 0.55005 0.0
O244 O 0.90218 0.90953 0.54895 0.0
O245 O 0.95887 0.9027 0.51747 0.0
O246 O 0.9565 0.86923 0.52689 0.0
O247 O 0.93481 0.9174 0.54701 0.0
O248 O 0.91323 0.90974 0.59194 0.0
O249 O 0.94637 0.91596 0.59046 0.0
O250 O 0.96828 0.89506 0.55695 0.0
O251 O 0.96897 0.87276 0.5846 0.0
C252 C 0.85246 0.88328 0.63158 0.0
C253 C 0.88842 0.84635 0.59435 0.0
C254 C 0.87665 0.85906 0.54157 0.0
C255 C 0.82905 0.89254 0.57869 0.0
C256 C 0.96452 0.8839 0.51491 0.0
C257 C 0.91687 0.92188 0.54277 0.0
C258 C 0.92889 0.92197 0.59482 0.0
C259 C 0.97666 0.88012 0.56695 0.0
O260 O 0.85355 0.86455 0.62439 0.0
O261 O 0.85794 0.89891 0.61963 0.0
O262 O 0.90373 0.85979 0.59253 0.0
O263 O 0.87133 0.85282 0.58954 0.0
Co264 Co 0.49526 0.10484 0.11095 0.0
Co265 Co 0.45761 0.1065 0.11517 0.0
Co266 Co 0.47772 0.15484 0.11911 0.0
O267 O 0.47772 0.12387 0.12517 0.0
H268 H 0.47794 0.1217 0.14026 0.0
O269 O 0.47753 0.18678 0.11389 0.0
Co270 Co 0.46558 0.20854 0.1342 0.0
Co271 Co 0.50288 0.19741 0.1236 0.0
H272 H 0.47583 0.19004 0.09917 0.0
O273 O 0.44858 0.08081 0.12666 0.0
O274 O 0.47171 0.08572 0.10047 0.0
O275 O 0.44236 0.12055 0.09573 0.0
O276 O 0.45904 0.15139 0.09331 0.0
O277 O 0.45419 0.15787 0.13933 0.0
O278 O 0.4553 0.22981 0.15194 0.0
O279 O 0.46213 0.23334 0.11777 0.0
O280 O 0.46668 0.18698 0.15382 0.0
O281 O 0.49608 0.15599 0.1449 0.0
O282 O 0.51973 0.18081 0.14144 0.0
O283 O 0.49277 0.21765 0.14094 0.0
O284 O 0.51335 0.22198 0.11242 0.0
C285 C 0.50927 0.07914 0.11941 0.0
C286 C 0.50634 0.13858 0.08544 0.0
C287 C 0.44586 0.13775 0.08659 0.0
C288 C 0.45962 0.07303 0.1116 0.0
C289 C 0.45574 0.24187 0.13557 0.0
C290 C 0.45349 0.17219 0.15341 0.0
C291 C 0.51275 0.16468 0.1507 0.0
C292 C 0.50337 0.22968 0.12835 0.0
O293 O 0.51192 0.08698 0.10064 0.0
O294 O 0.49752 0.08799 0.13329 0.0
O295 O 0.50216 0.15257 0.0992 0.0
O296 O 0.49644 0.12127 0.08561 0.0
Co297 Co 0.87774 0.70643 0.41801 0.0
Co298 Co 0.89487 0.74047 0.40953 0.0
Co299 Co 0.89361 0.71322 0.3686 0.0
O300 O 0.89817 0.71475 0.39886 0.0
H301 H 0.91132 0.70994 0.40228 0.0
O302 O 0.88903 0.71254 0.33764 0.0
Co303 Co 0.90495 0.73211 0.32075 0.0
Co304 Co 0.90457 0.69481 0.32227 0.0
H305 H 0.87491 0.71162 0.33417 0.0
O306 O 0.9099 0.74959 0.43123 0.0
O307 O 0.87853 0.7341 0.43274 0.0
O308 O 0.87992 0.75956 0.39375 0.0
O309 O 0.8722 0.73655 0.3688 0.0
O310 O 0.91694 0.73441 0.3657 0.0
O311 O 0.91801 0.75076 0.30516 0.0
O312 O 0.88472 0.74282 0.30529 0.0
O313 O 0.92816 0.72523 0.33433 0.0
O314 O 0.91895 0.69052 0.36742 0.0
O315 O 0.92913 0.68551 0.33378 0.0
O316 O 0.91052 0.7107 0.29894 0.0
O317 O 0.89278 0.67975 0.30197 0.0
C318 C 0.87716 0.6906 0.44431 0.0
C319 C 0.85174 0.70057 0.38761 0.0
C320 C 0.86885 0.75375 0.37867 0.0
C321 C 0.8929 0.74549 0.44132 0.0
C322 C 0.90016 0.75452 0.29865 0.0
C323 C 0.93143 0.73334 0.35215 0.0
C324 C 0.93305 0.68442 0.35318 0.0
C325 C 0.90116 0.69455 0.29066 0.0
O326 O 0.86049 0.69698 0.43674 0.0
O327 O 0.89462 0.69637 0.43607 0.0
O328 O 0.86635 0.69395 0.37473 0.0
O329 O 0.85705 0.71468 0.40052 0.0
Co330 Co 0.33727 0.14216 0.71274 0.0
Co331 Co 0.30554 0.15381 0.69438 0.0
Co332 Co 0.33919 0.15489 0.66047 0.0
O333 O 0.33327 0.16109 0.69053 0.0
H334 H 0.3364 0.17532 0.69415 0.0
O335 O 0.34229 0.1471 0.63061 0.0
Co336 Co 0.32309 0.15793 0.61165 0.0
Co337 Co 0.35982 0.16219 0.61489 0.0
H338 H 0.34433 0.13252 0.6286 0.0
O339 O 0.28954 0.16493 0.71505 0.0
O340 O 0.30662 0.13525 0.71667 0.0
O341 O 0.2913 0.13908 0.67161 0.0
O342 O 0.32121 0.1289 0.66096 0.0
O343 O 0.3158 0.17146 0.65431 0.0
O344 O 0.3052 0.16619 0.59413 0.0
O345 O 0.31611 0.1339 0.59761 0.0
O346 O 0.32604 0.18452 0.62388 0.0
O347 O 0.35717 0.18455 0.65787 0.0
O348 O 0.36707 0.1889 0.62394 0.0
O349 O 0.34536 0.16383 0.59091 0.0
O350 O 0.37476 0.14777 0.59739 0.0
C351 C 0.34153 0.14524 0.74381 0.0
C352 C 0.3567 0.1185 0.68024 0.0
C353 C 0.30208 0.12623 0.66189 0.0
C354 C 0.29167 0.1468 0.72323 0.0
C355 C 0.30373 0.14678 0.58933 0.0
C356 C 0.31747 0.1866 0.6419 0.0
C357 C 0.36456 0.19655 0.64216 0.0
C358 C 0.36019 0.15209 0.58488 0.0
O359 O 0.34216 0.12714 0.73497 0.0
O360 O 0.33595 0.16119 0.73328 0.0
O361 O 0.36156 0.1346 0.66851 0.0
O362 O 0.34165 0.11952 0.69335 0.0
Co363 Co 0.94393 0.55777 0.91726 0.0
Co364 Co 0.94066 0.59631 0.91576 0.0
Co365 Co 0.89307 0.57455 0.91238 0.0
O366 O 0.92374 0.57516 0.90555 0.0
H367 H 0.92562 0.57532 0.89035 0.0
O368 O 0.86136 0.57466 0.91766 0.0
Co369 Co 0.83969 0.58211 0.89543 0.0
Co370 Co 0.8533 0.54778 0.9103 0.0
H371 H 0.85759 0.57784 0.93213 0.0
O372 O 0.96611 0.60664 0.90441 0.0
O373 O 0.96157 0.58267 0.9297 0.0
O374 O 0.92636 0.61112 0.93638 0.0
O375 O 0.89636 0.59358 0.9389 0.0
O376 O 0.88952 0.59827 0.89294 0.0
O377 O 0.81891 0.58842 0.87569 0.0
O378 O 0.81301 0.58333 0.90969 0.0
O379 O 0.86277 0.58324 0.87701 0.0
O380 O 0.89163 0.55571 0.88608 0.0
O381 O 0.87149 0.52926 0.8953 0.0
O382 O 0.8347 0.55262 0.8901 0.0
O383 O 0.83013 0.53684 0.92195 0.0
C384 C 0.97005 0.5458 0.90612 0.0
C385 C 0.90989 0.54433 0.94397 0.0
C386 C 0.90966 0.607 0.94599 0.0
C387 C 0.97382 0.59606 0.91938 0.0
C388 C 0.80551 0.58754 0.89109 0.0
C389 C 0.87619 0.59787 0.87852 0.0
C390 C 0.88462 0.53732 0.88269 0.0
C391 C 0.82473 0.53968 0.90259 0.0
O392 O 0.96309 0.54117 0.92495 0.0
O393 O 0.96044 0.5583 0.89421 0.0
O394 O 0.89574 0.54969 0.93167 0.0
O395 O 0.9276 0.55314 0.94296 0.0
Co396 Co 0.21793 0.44763 0.11513 0.0
Co397 Co 0.19984 0.48073 0.11401 0.0
Co398 Co 0.16774 0.44431 0.11004 0.0
O399 O 0.19463 0.45545 0.10264 0.0
H400 H 0.1962 0.45652 0.08746 0.0
O401 O 0.1405 0.43479 0.11724 0.0
Co402 Co 0.11989 0.44692 0.10168 0.0
Co403 Co 0.13396 0.40935 0.10597 0.0
H404 H 0.13759 0.43469 0.13227 0.0
O405 O 0.21653 0.49979 0.10157 0.0
O406 O 0.22386 0.47676 0.12722 0.0
O407 O 0.17976 0.49103 0.13298 0.0
O408 O 0.16523 0.46003 0.13777 0.0
O409 O 0.1575 0.46808 0.09514 0.0
O410 O 0.09937 0.45764 0.08951 0.0
O411 O 0.10174 0.44812 0.12361 0.0
O412 O 0.13624 0.44945 0.07655 0.0
O413 O 0.16914 0.42833 0.08077 0.0
O414 O 0.1482 0.40054 0.08154 0.0
O415 O 0.11144 0.41885 0.09393 0.0
O416 O 0.11329 0.39397 0.11883 0.0
C417 C 0.24567 0.44464 0.1038 0.0
C418 C 0.18985 0.42468 0.14249 0.0
C419 C 0.16775 0.47893 0.14317 0.0
C420 C 0.22753 0.49434 0.11722 0.0
C421 C 0.09202 0.45711 0.10871 0.0
C422 C 0.14823 0.46502 0.07818 0.0
C423 C 0.1607 0.41234 0.07162 0.0
C424 C 0.10295 0.40529 0.10655 0.0
O425 O 0.24137 0.43955 0.12333 0.0
O426 O 0.23284 0.45373 0.09226 0.0
O427 O 0.17824 0.42095 0.12689 0.0
O428 O 0.20387 0.43873 0.14098 0.0
Co429 Co 0.6226 0.34663 0.16278 0.0
Co430 Co 0.62056 0.31048 0.14865 0.0
Co431 Co 0.66563 0.329 0.15457 0.0
O432 O 0.63863 0.33139 0.1437 0.0
H433 H 0.63846 0.336 0.12921 0.0
O434 O 0.69155 0.32711 0.16714 0.0
Co435 Co 0.71064 0.30951 0.15809 0.0
Co436 Co 0.70882 0.34656 0.15784 0.0
H437 H 0.69053 0.32764 0.1824 0.0
O438 O 0.59952 0.30805 0.13065 0.0
O439 O 0.60056 0.32585 0.16136 0.0
O440 O 0.62837 0.28993 0.16828 0.0
O441 O 0.65794 0.30587 0.17534 0.0
O442 O 0.67192 0.3081 0.13196 0.0
O443 O 0.72874 0.29216 0.15111 0.0
O444 O 0.71664 0.30006 0.18384 0.0
O445 O 0.70504 0.31499 0.12967 0.0
O446 O 0.67362 0.35086 0.13066 0.0
O447 O 0.70683 0.35604 0.12967 0.0
O448 O 0.73181 0.33275 0.16065 0.0
O449 O 0.71946 0.36125 0.1778 0.0
C450 C 0.60454 0.3701 0.16032 0.0
C451 C 0.64672 0.34347 0.19332 0.0
C452 C 0.64419 0.29184 0.17917 0.0
C453 C 0.59092 0.31975 0.14473 0.0
C454 C 0.72689 0.28823 0.17113 0.0
C455 C 0.68884 0.3073 0.12179 0.0
C456 C 0.69026 0.35572 0.12018 0.0
C457 C 0.73348 0.34793 0.1746 0.0
O458 O 0.60802 0.36182 0.17837 0.0
O459 O 0.61187 0.36227 0.14283 0.0
O460 O 0.66006 0.34947 0.17929 0.0
O461 O 0.63172 0.33316 0.18653 0.0
Co462 Co 0.74263 0.87206 0.42843 0.0
Co463 Co 0.7054 0.87967 0.42573 0.0
Co464 Co 0.72477 0.88056 0.37683 0.0
O465 O 0.72751 0.88678 0.40807 0.0
H466 H 0.73022 0.90143 0.40979 0.0
O467 O 0.72166 0.87412 0.34567 0.0
Co468 Co 0.71385 0.89458 0.32496 0.0
Co469 Co 0.74793 0.87588 0.33329 0.0
H470 H 0.71545 0.86065 0.34321 0.0
O471 O 0.69945 0.8898 0.45329 0.0
O472 O 0.71683 0.86155 0.44524 0.0
O473 O 0.68369 0.86744 0.40995 0.0
O474 O 0.70253 0.85944 0.38146 0.0
O475 O 0.70457 0.90326 0.3745 0.0
O476 O 0.70666 0.91167 0.30388 0.0
O477 O 0.70735 0.87714 0.3028 0.0
O478 O 0.71918 0.91532 0.34509 0.0
O479 O 0.74678 0.90206 0.37218 0.0
O480 O 0.76913 0.88906 0.34949 0.0
O481 O 0.74183 0.89673 0.31515 0.0
O482 O 0.75378 0.86605 0.30573 0.0
C483 C 0.75526 0.88018 0.45613 0.0
C484 C 0.75059 0.84566 0.39202 0.0
C485 C 0.68601 0.85827 0.39229 0.0
C486 C 0.70691 0.87262 0.45937 0.0
C487 C 0.70425 0.89456 0.29317 0.0
C488 C 0.70652 0.91735 0.36027 0.0
C489 C 0.76411 0.90258 0.36299 0.0
C490 C 0.7489 0.88457 0.30079 0.0
O491 O 0.75742 0.86177 0.4483 0.0
O492 O 0.74478 0.8935 0.44617 0.0
O493 O 0.74564 0.85833 0.3777 0.0
O494 O 0.74399 0.84735 0.41111 0.0
Co495 Co 0.21371 0.95986 0.61626 0.0
Co496 Co 0.19219 0.99082 0.60848 0.0
Co497 Co 0.16432 0.95118 0.60907 0.0
O498 O 0.19073 0.96305 0.60152 0.0
H499 H 0.19353 0.96082 0.58668 0.0
O500 O 0.13703 0.94051 0.61626 0.0
Co501 Co 0.11579 0.94969 0.59931 0.0
Co502 Co 0.13159 0.91439 0.60645 0.0
H503 H 0.13397 0.94128 0.63125 0.0
O504 O 0.21066 1.01017 0.59739 0.0
O505 O 0.21455 0.98974 0.6257 0.0
O506 O 0.16904 1.00118 0.62395 0.0
O507 O 0.16077 0.96946 0.63486 0.0
O508 O 0.15399 0.97308 0.59102 0.0
O509 O 0.09477 0.95824 0.58624 0.0
O510 O 0.09709 0.94899 0.62046 0.0
O511 O 0.13234 0.95292 0.57482 0.0
O512 O 0.16693 0.93297 0.58156 0.0
O513 O 0.15021 0.90296 0.58646 0.0
O514 O 0.11 0.92131 0.59034 0.0
O515 O 0.11045 0.89775 0.6165 0.0
C516 C 0.24236 0.95995 0.60706 0.0
C517 C 0.18714 0.93626 0.6443 0.0
C518 C 0.15918 0.98899 0.63626 0.0
C519 C 0.22017 1.00587 0.61443 0.0
C520 C 0.0871 0.95717 0.6053 0.0
C521 C 0.14476 0.96815 0.57446 0.0
C522 C 0.16108 0.91489 0.57482 0.0
C523 C 0.10205 0.90537 0.60008 0.0
O524 O 0.23757 0.95627 0.62683 0.0
O525 O 0.22917 0.96578 0.59384 0.0
O526 O 0.17582 0.93014 0.62902 0.0
O527 O 0.19922 0.95191 0.64179 0.0
Co528 Co 0.59947 0.32763 0.38088 0.0
Co529 Co 0.56769 0.34059 0.37354 0.0
Co530 Co 0.5975 0.37843 0.38559 0.0
O531 O 0.58694 0.35043 0.39018 0.0
H532 H 0.58265 0.34878 0.40474 0.0
O533 O 0.6061 0.40738 0.38147 0.0
Co534 Co 0.59422 0.42705 0.40024 0.0
Co535 Co 0.63115 0.41466 0.39159 0.0
H536 H 0.60565 0.4115 0.36683 0.0
O537 O 0.54623 0.32916 0.38672 0.0
O538 O 0.5729 0.31341 0.3703 0.0
O539 O 0.56283 0.35625 0.34906 0.0
O540 O 0.58004 0.38378 0.36117 0.0
O541 O 0.57475 0.38586 0.4046 0.0
O542 O 0.58361 0.44721 0.41515 0.0
O543 O 0.59465 0.44758 0.38107 0.0
O544 O 0.59145 0.40865 0.42313 0.0
O545 O 0.61498 0.37498 0.41279 0.0
O546 O 0.64227 0.39622 0.41077 0.0
O547 O 0.62067 0.43351 0.41024 0.0
O548 O 0.64511 0.43981 0.38584 0.0
C549 C 0.60815 0.30279 0.3956 0.0
C550 C 0.61557 0.35577 0.34905 0.0
C551 C 0.56849 0.37509 0.34786 0.0
C552 C 0.55439 0.31286 0.37861 0.0
C553 C 0.58541 0.4564 0.39697 0.0
C554 C 0.57792 0.39459 0.42205 0.0
C555 C 0.63119 0.38326 0.42097 0.0
C556 C 0.6348 0.44537 0.40245 0.0
O557 O 0.61269 0.30513 0.37556 0.0
O558 O 0.5963 0.31517 0.40551 0.0
O559 O 0.61903 0.36959 0.36355 0.0
O560 O 0.60484 0.33953 0.35354 0.0
Co561 Co 0.12326 0.8407 0.16825 0.0
Co562 Co 0.12414 0.80465 0.1522 0.0
Co563 Co 0.16724 0.82743 0.15608 0.0
O564 O 0.13928 0.82771 0.14773 0.0
H565 H 0.13742 0.83251 0.1335 0.0
O566 O 0.19497 0.82776 0.16511 0.0
Co567 Co 0.216 0.81397 0.15246 0.0
Co568 Co 0.20789 0.84909 0.15195 0.0
H569 H 0.196 0.82887 0.18029 0.0
O570 O 0.10145 0.80116 0.13643 0.0
O571 O 0.10419 0.81736 0.16784 0.0
O572 O 0.13562 0.78478 0.16985 0.0
O573 O 0.16315 0.80409 0.17775 0.0
O574 O 0.17294 0.80657 0.13386 0.0
O575 O 0.23611 0.80089 0.14207 0.0
O576 O 0.22864 0.80748 0.17646 0.0
O577 O 0.20449 0.81693 0.1253 0.0
O578 O 0.17024 0.84937 0.1314 0.0
O579 O 0.20235 0.85635 0.12398 0.0
O580 O 0.23306 0.84107 0.15201 0.0
O581 O 0.21662 0.86758 0.16908 0.0
C582 C 0.10216 0.8614 0.16805 0.0
C583 C 0.15002 0.84067 0.19593 0.0
C584 C 0.15095 0.78846 0.18113 0.0
C585 C 0.09358 0.81195 0.15172 0.0
C586 C 0.24022 0.79939 0.16187 0.0
C587 C 0.1883 0.80647 0.12128 0.0
C588 C 0.18447 0.85482 0.11787 0.0
C589 C 0.23285 0.85755 0.16448 0.0
O590 O 0.10803 0.85351 0.18549 0.0
O591 O 0.10916 0.85501 0.1498 0.0
O592 O 0.16203 0.84768 0.18107 0.0
O593 O 0.1359 0.82847 0.19031 0.0
Co594 Co 0.09193 0.33089 0.87762 0.0
Co595 Co 0.06046 0.34883 0.88807 0.0
Co596 Co 0.09598 0.38116 0.88611 0.0
O597 O 0.08681 0.35362 0.89356 0.0
H598 H 0.08875 0.35134 0.90843 0.0
O599 O 0.10362 0.40956 0.87876 0.0
Co600 Co 0.09239 0.43085 0.89551 0.0
Co601 Co 0.12811 0.41833 0.88762 0.0
H602 H 0.10278 0.41205 0.86377 0.0
O603 O 0.04564 0.33049 0.90375 0.0
O604 O 0.06189 0.32485 0.87225 0.0
O605 O 0.04689 0.37109 0.87498 0.0
O606 O 0.07645 0.38349 0.86245 0.0
O607 O 0.07497 0.3899 0.90646 0.0
O608 O 0.08175 0.45199 0.90857 0.0
O609 O 0.08988 0.44842 0.87386 0.0
O610 O 0.09252 0.41525 0.92077 0.0
O611 O 0.11538 0.37959 0.91202 0.0
O612 O 0.14047 0.40328 0.90908 0.0
O613 O 0.11955 0.44126 0.90162 0.0
O614 O 0.14221 0.43908 0.87422 0.0
C615 C 0.0983 0.30302 0.88597 0.0
C616 C 0.1099 0.35962 0.84823 0.0
C617 C 0.05724 0.3832 0.863 0.0
C618 C 0.0484 0.31925 0.88689 0.0
C619 C 0.08161 0.45878 0.88932 0.0
C620 C 0.07979 0.40033 0.92252 0.0
C621 C 0.1314 0.38891 0.91933 0.0
C622 C 0.13432 0.44911 0.89003 0.0
O623 O 0.09864 0.30752 0.86587 0.0
O624 O 0.09054 0.31514 0.89999 0.0
O625 O 0.11615 0.37118 0.86361 0.0
O626 O 0.09546 0.34633 0.85167 0.0
Co627 Co 0.11624 0.66713 0.33473 0.0
Co628 Co 0.12562 0.66656 0.29847 0.0
Co629 Co 0.12433 0.62074 0.31649 0.0
O630 O 0.13107 0.64986 0.31833 0.0
H631 H 0.14537 0.65177 0.32063 0.0
O632 O 0.11939 0.58991 0.31421 0.0
Co633 Co 0.13607 0.57388 0.2944 0.0
Co634 Co 0.13462 0.57439 0.33134 0.0
H635 H 0.10523 0.58581 0.31461 0.0
O636 O 0.14537 0.68359 0.29006 0.0
O637 O 0.11815 0.68999 0.31218 0.0
O638 O 0.10746 0.6557 0.27884 0.0
O639 O 0.10542 0.62303 0.2904 0.0
O640 O 0.14874 0.62005 0.2966 0.0
O641 O 0.14884 0.55976 0.27535 0.0
O642 O 0.11555 0.55772 0.28376 0.0
O643 O 0.16028 0.58894 0.30101 0.0
O644 O 0.14699 0.61871 0.34152 0.0
O645 O 0.15861 0.58674 0.34197 0.0
O646 O 0.14195 0.55172 0.31608 0.0
O647 O 0.12261 0.55425 0.3464 0.0
C648 C 0.12334 0.68453 0.35911 0.0
C649 C 0.0833 0.64061 0.33167 0.0
C650 C 0.10022 0.6374 0.27755 0.0
C651 C 0.13306 0.69626 0.29924 0.0
C652 C 0.13082 0.55262 0.27153 0.0
C653 C 0.16325 0.60767 0.29574 0.0
C654 C 0.16151 0.60569 0.3457 0.0
C655 C 0.1338 0.54358 0.33349 0.0
O656 O 0.10464 0.68339 0.3532 0.0
O657 O 0.13774 0.67724 0.34738 0.0
O658 O 0.09591 0.62529 0.3348 0.0
O659 O 0.09109 0.6571 0.32369 0.0
Co660 Co 0.36406 0.87704 0.10234 0.0
Co661 Co 0.35501 0.88518 0.06683 0.0
Co662 Co 0.40185 0.88513 0.06954 0.0
O663 O 0.37591 0.89268 0.08066 0.0
H664 H 0.37524 0.90737 0.08304 0.0
O665 O 0.42857 0.87834 0.05912 0.0
Co666 Co 0.44588 0.89437 0.04091 0.0
Co667 Co 0.44547 0.88708 0.08009 0.0
H668 H 0.42972 0.86367 0.05685 0.0
O669 O 0.33699 0.90419 0.06576 0.0
O670 O 0.3374 0.876 0.08749 0.0
O671 O 0.35876 0.86503 0.04525 0.0
O672 O 0.39171 0.86189 0.05036 0.0
O673 O 0.39977 0.90655 0.04577 0.0
O674 O 0.46306 0.90724 0.02355 0.0
O675 O 0.46122 0.87352 0.03216 0.0
O676 O 0.43134 0.91898 0.04685 0.0
O677 O 0.41131 0.91123 0.0866 0.0
O678 O 0.44157 0.91033 0.09945 0.0
O679 O 0.46486 0.89907 0.06451 0.0
O680 O 0.46396 0.86941 0.08484 0.0
C681 C 0.3517 0.88403 0.13038 0.0
C682 C 0.38873 0.84633 0.09454 0.0
C683 C 0.37517 0.85599 0.04173 0.0
C684 C 0.32763 0.89022 0.07752 0.0
C685 C 0.47009 0.88885 0.02183 0.0
C686 C 0.41327 0.92067 0.04068 0.0
C687 C 0.42604 0.92032 0.09623 0.0
C688 C 0.47274 0.88655 0.07815 0.0
O689 O 0.35315 0.8649 0.12446 0.0
O690 O 0.35688 0.89893 0.11742 0.0
O691 O 0.40302 0.86096 0.0928 0.0
O692 O 0.37114 0.85139 0.08961 0.0
Co693 Co 0.17748 0.70356 0.95276 0.0
Co694 Co 0.16456 0.69061 0.98771 0.0
Co695 Co 0.16286 0.65379 0.9578 0.0
O696 O 0.15879 0.68291 0.96119 0.0
H697 H 0.145 0.68613 0.95833 0.0
O698 O 0.16784 0.62485 0.95495 0.0
Co699 Co 0.15853 0.60551 0.97526 0.0
Co700 Co 0.15271 0.61066 0.93654 0.0
H701 H 0.18187 0.62293 0.95119 0.0
O702 O 0.15116 0.71138 0.99937 0.0
O703 O 0.18249 0.71237 0.98329 0.0
O704 O 0.17704 0.67083 1.00569 0.0
O705 O 0.18666 0.65345 0.97728 0.0
O706 O 0.14312 0.64955 0.98276 0.0
O707 O 0.15231 0.58657 0.99391 0.0
O708 O 0.18188 0.59191 0.97587 0.0
O709 O 0.13228 0.61734 0.97803 0.0
O710 O 0.13509 0.65239 0.94003 0.0
O711 O 0.12722 0.61965 0.93096 0.0
O712 O 0.14928 0.58752 0.95201 0.0
O713 O 0.16579 0.59319 0.92029 0.0
C714 C 0.17384 0.7312 0.94156 0.0
C715 C 0.2023 0.6719 0.93798 0.0
C716 C 0.1885 0.65799 0.99681 0.0
C717 C 0.16961 0.71894 0.99779 0.0
C718 C 0.17086 0.58173 0.9899 0.0
C719 C 0.12979 0.63508 0.98616 0.0
C720 C 0.12184 0.63788 0.93395 0.0
C721 C 0.16061 0.5813 0.93619 0.0
O722 O 0.19209 0.72459 0.94277 0.0
O723 O 0.15858 0.72162 0.95081 0.0
O724 O 0.18619 0.65996 0.93406 0.0
O725 O 0.20029 0.68572 0.95227 0.0
Co726 Co 0.37047 0.94156 0.68622 0.0
Co727 Co 0.36234 0.92817 0.72108 0.0
Co728 Co 0.40931 0.92831 0.71012 0.0
O729 O 0.38167 0.92187 0.70263 0.0
H730 H 0.37972 0.9079 0.69749 0.0
O731 O 0.43713 0.93469 0.71816 0.0
Co732 Co 0.44952 0.92026 0.73992 0.0
Co733 Co 0.45512 0.92144 0.70282 0.0
H734 H 0.44022 0.94937 0.71843 0.0
O735 O 0.34134 0.91016 0.72134 0.0
O736 O 0.34481 0.94034 0.70316 0.0
O737 O 0.37022 0.94397 0.74602 0.0
O738 O 0.40281 0.94643 0.73623 0.0
O739 O 0.40636 0.90339 0.72848 0.0
O740 O 0.46115 0.90886 0.76088 0.0
O741 O 0.46224 0.94253 0.75183 0.0
O742 O 0.43803 0.89468 0.731 0.0
O743 O 0.41636 0.90648 0.68486 0.0
O744 O 0.44752 0.89594 0.68964 0.0
O745 O 0.47392 0.91601 0.72159 0.0
O746 O 0.47489 0.93746 0.6927 0.0
C747 C 0.35718 0.94125 0.6584 0.0
C748 C 0.39612 0.96979 0.69692 0.0
C749 C 0.38816 0.95078 0.74912 0.0
C750 C 0.33402 0.92411 0.70923 0.0
C751 C 0.46724 0.92774 0.76442 0.0
C752 C 0.41931 0.88996 0.73193 0.0
C753 C 0.43018 0.89236 0.68248 0.0
C754 C 0.4838 0.92719 0.70721 0.0
O755 O 0.36014 0.95852 0.66857 0.0
O756 O 0.36114 0.92377 0.66713 0.0
O757 O 0.41003 0.95644 0.69274 0.0
O758 O 0.37947 0.96243 0.70401 0.0
Co759 Co 0.5984 0.82774 0.87649 0.0
Co760 Co 0.56649 0.84419 0.88738 0.0
Co761 Co 0.60002 0.87848 0.88427 0.0
O762 O 0.59285 0.85047 0.89229 0.0
H763 H 0.59526 0.84858 0.90714 0.0
O764 O 0.60548 0.90711 0.87621 0.0
Co765 Co 0.58928 0.92683 0.89031 0.0
Co766 Co 0.62731 0.92063 0.88676 0.0
H767 H 0.60571 0.90874 0.86103 0.0
O768 O 0.55257 0.82527 0.90326 0.0
O769 O 0.56834 0.82053 0.8713 0.0
O770 O 0.55154 0.86541 0.87441 0.0
O771 O 0.58003 0.87905 0.86084 0.0
O772 O 0.57837 0.88555 0.90463 0.0
O773 O 0.574 0.94582 0.90076 0.0
O774 O 0.5845 0.94144 0.8668 0.0
O775 O 0.59142 0.91424 0.91716 0.0
O776 O 0.61997 0.87907 0.91001 0.0
O777 O 0.63711 0.9095 0.91154 0.0
O778 O 0.61353 0.94302 0.89594 0.0
O779 O 0.63883 0.94233 0.87151 0.0
C780 C 0.60555 0.80016 0.88507 0.0
C781 C 0.61502 0.8572 0.84658 0.0
C782 C 0.5608 0.87795 0.86196 0.0
C783 C 0.55492 0.81462 0.88593 0.0
C784 C 0.57347 0.95081 0.88095 0.0
C785 C 0.58109 0.89769 0.91994 0.0
C786 C 0.63171 0.89237 0.91982 0.0
C787 C 0.6251 0.95228 0.88194 0.0
O788 O 0.60571 0.80448 0.86493 0.0
O789 O 0.59756 0.81221 0.89901 0.0
O790 O 0.6206 0.86956 0.86163 0.0
O791 O 0.60142 0.84308 0.85038 0.0
Co792 Co 0.117 0.34835 0.66409 0.0
Co793 Co 0.11442 0.31216 0.65101 0.0
Co794 Co 0.15949 0.33151 0.65399 0.0
O795 O 0.1318 0.33256 0.64491 0.0
H796 H 0.13044 0.33638 0.63029 0.0
O797 O 0.18718 0.33164 0.66337 0.0
Co798 Co 0.20757 0.3177 0.64975 0.0
Co799 Co 0.20043 0.35388 0.65094 0.0
H800 H 0.18817 0.3319 0.67859 0.0
O801 O 0.093 0.30913 0.63379 0.0
O802 O 0.09482 0.32793 0.66388 0.0
O803 O 0.12384 0.29286 0.67053 0.0
O804 O 0.1543 0.30824 0.67578 0.0
O805 O 0.16515 0.3105 0.63146 0.0
O806 O 0.22677 0.30449 0.63818 0.0
O807 O 0.22041 0.30934 0.67299 0.0
O808 O 0.19607 0.32274 0.62367 0.0
O809 O 0.16304 0.35353 0.62965 0.0
O810 O 0.19489 0.36273 0.62293 0.0
O811 O 0.22509 0.34392 0.64983 0.0
O812 O 0.21168 0.37064 0.66904 0.0
C813 C 0.09954 0.37232 0.66219 0.0
C814 C 0.14162 0.34585 0.6934 0.0
C815 C 0.14031 0.29452 0.68038 0.0
C816 C 0.08492 0.32158 0.64754 0.0
C817 C 0.23104 0.3011 0.65766 0.0
C818 C 0.18071 0.3114 0.61913 0.0
C819 C 0.17705 0.36051 0.61667 0.0
C820 C 0.22658 0.35886 0.664 0.0
O821 O 0.10331 0.36401 0.68014 0.0
O822 O 0.10582 0.36401 0.6445 0.0
O823 O 0.15464 0.35183 0.67902 0.0
O824 O 0.12681 0.335 0.68712 0.0
Co825 Co 0.37783 0.70143 0.91934 0.0
Co826 Co 0.39252 0.73646 0.91404 0.0
Co827 Co 0.39349 0.7124 0.8705 0.0
O828 O 0.39787 0.71227 0.90102 0.0
H829 H 0.4113 0.70808 0.90424 0.0
O830 O 0.38944 0.71372 0.83961 0.0
Co831 Co 0.40526 0.7334 0.82256 0.0
Co832 Co 0.4056 0.69739 0.82416 0.0
H833 H 0.37543 0.71226 0.83582 0.0
O834 O 0.40797 0.74547 0.93529 0.0
O835 O 0.3778 0.7274 0.93729 0.0
O836 O 0.37539 0.75505 0.9004 0.0
O837 O 0.37187 0.7357 0.87146 0.0
O838 O 0.41634 0.73363 0.86872 0.0
O839 O 0.41798 0.75189 0.80707 0.0
O840 O 0.38476 0.74358 0.8071 0.0
O841 O 0.42908 0.72769 0.83676 0.0
O842 O 0.41908 0.68987 0.8684 0.0
O843 O 0.43036 0.68814 0.83484 0.0
O844 O 0.41058 0.71177 0.8 0.0
O845 O 0.39284 0.6812 0.80662 0.0
C846 C 0.3776 0.68296 0.94408 0.0
C847 C 0.35179 0.69834 0.88878 0.0
C848 C 0.36651 0.75111 0.88331 0.0
C849 C 0.39156 0.73977 0.94572 0.0
C850 C 0.40009 0.75547 0.8006 0.0
C851 C 0.43125 0.7341 0.85558 0.0
C852 C 0.43374 0.68526 0.85409 0.0
C853 C 0.40154 0.69445 0.79362 0.0
O854 O 0.36081 0.68954 0.93698 0.0
O855 O 0.39493 0.68984 0.93634 0.0
O856 O 0.36633 0.69275 0.87527 0.0
O857 O 0.35714 0.71118 0.90294 0.0
Co858 Co 0.94357 0.05723 0.41514 0.0
Co859 Co 0.94019 0.0952 0.41548 0.0
Co860 Co 0.89268 0.07151 0.41241 0.0
O861 O 0.9232 0.07435 0.40504 0.0
H862 H 0.92465 0.07521 0.38984 0.0
O863 O 0.8606 0.07022 0.41735 0.0
Co864 Co 0.83935 0.07907 0.39476 0.0
Co865 Co 0.85219 0.04406 0.40801 0.0
H866 H 0.85652 0.07271 0.43188 0.0
O867 O 0.96538 0.10686 0.40403 0.0
O868 O 0.96208 0.08131 0.4276 0.0
O869 O 0.92568 0.10781 0.43737 0.0
O870 O 0.89536 0.09054 0.43899 0.0
O871 O 0.88862 0.0956 0.39353 0.0
O872 O 0.81993 0.08736 0.37489 0.0
O873 O 0.81161 0.07977 0.40784 0.0
O874 O 0.8626 0.0806 0.37697 0.0
O875 O 0.89197 0.05272 0.38585 0.0
O876 O 0.87104 0.02628 0.39342 0.0
O877 O 0.83427 0.04999 0.38718 0.0
O878 O 0.82845 0.03241 0.41778 0.0
C879 C 0.96816 0.04462 0.40182 0.0
C880 C 0.91192 0.04304 0.44415 0.0
C881 C 0.90871 0.1037 0.44651 0.0
C882 C 0.97385 0.09537 0.41775 0.0
C883 C 0.80553 0.08576 0.38916 0.0
C884 C 0.87551 0.09547 0.37901 0.0
C885 C 0.88469 0.03456 0.38159 0.0
C886 C 0.82397 0.03613 0.39829 0.0
O887 O 0.96256 0.03998 0.42113 0.0
O888 O 0.95863 0.05823 0.39125 0.0
O889 O 0.8968 0.04635 0.4321 0.0
O890 O 0.9288 0.05311 0.44143 0.0
Co891 Co 0.49573 0.60659 0.61088 0.0
Co892 Co 0.458 0.60833 0.61373 0.0
Co893 Co 0.47784 0.65656 0.61862 0.0
O894 O 0.47774 0.62561 0.62432 0.0
H895 H 0.47738 0.62334 0.63941 0.0
O896 O 0.47762 0.68855 0.61396 0.0
Co897 Co 0.46602 0.71025 0.63476 0.0
Co898 Co 0.50313 0.69863 0.62373 0.0
H899 H 0.47594 0.69207 0.59931 0.0
O900 O 0.44849 0.58299 0.62531 0.0
O901 O 0.47243 0.58744 0.59975 0.0
O902 O 0.4434 0.62224 0.5937 0.0
O903 O 0.45935 0.65352 0.59254 0.0
O904 O 0.45431 0.65946 0.63888 0.0
O905 O 0.45626 0.73147 0.65308 0.0
O906 O 0.4625 0.7355 0.6189 0.0
O907 O 0.46709 0.68824 0.65393 0.0
O908 O 0.49613 0.65704 0.64444 0.0
O909 O 0.5197 0.68202 0.64194 0.0
O910 O 0.49341 0.71899 0.64087 0.0
O911 O 0.5137 0.72276 0.61192 0.0
C912 C 0.50962 0.58106 0.62022 0.0
C913 C 0.50716 0.64064 0.5852 0.0
C914 C 0.4467 0.63971 0.58507 0.0
C915 C 0.45982 0.57502 0.61061 0.0
C916 C 0.45661 0.74387 0.63697 0.0
C917 C 0.45376 0.67355 0.65324 0.0
C918 C 0.51269 0.66561 0.65064 0.0
C919 C 0.50375 0.73069 0.62773 0.0
O920 O 0.51275 0.58858 0.60136 0.0
O921 O 0.49729 0.58994 0.63349 0.0
O922 O 0.50238 0.65456 0.59882 0.0
O923 O 0.49788 0.62296 0.58534 0.0
Co924 Co 0.87469 0.202 0.91771 0.0
Co925 Co 0.89074 0.2365 0.91126 0.0
Co926 Co 0.8909 0.21185 0.86864 0.0
O927 O 0.89494 0.21161 0.89911 0.0
H928 H 0.90819 0.20701 0.90243 0.0
O929 O 0.88745 0.2134 0.83749 0.0
Co930 Co 0.90325 0.23452 0.82167 0.0
Co931 Co 0.90449 0.19798 0.82157 0.0
H932 H 0.87354 0.21183 0.83337 0.0
O933 O 0.9065 0.24486 0.93248 0.0
O934 O 0.87527 0.22879 0.93456 0.0
O935 O 0.8747 0.25568 0.89701 0.0
O936 O 0.86925 0.23486 0.86951 0.0
O937 O 0.91341 0.23335 0.86771 0.0
O938 O 0.91583 0.25412 0.80714 0.0
O939 O 0.88295 0.2444 0.80586 0.0
O940 O 0.92686 0.22869 0.83597 0.0
O941 O 0.91666 0.18952 0.86662 0.0
O942 O 0.92886 0.18878 0.83327 0.0
O943 O 0.91028 0.21451 0.79876 0.0
O944 O 0.89334 0.18307 0.80124 0.0
C945 C 0.87407 0.18447 0.943 0.0
C946 C 0.84904 0.19804 0.88698 0.0
C947 C 0.86484 0.25097 0.88072 0.0
C948 C 0.88997 0.23985 0.94301 0.0
C949 C 0.89811 0.25666 0.79965 0.0
C950 C 0.92858 0.23432 0.85503 0.0
C951 C 0.93171 0.18541 0.85258 0.0
C952 C 0.90148 0.1982 0.79018 0.0
O953 O 0.85739 0.19119 0.93576 0.0
O954 O 0.89151 0.1908 0.93513 0.0
O955 O 0.86355 0.19227 0.87343 0.0
O956 O 0.85437 0.21136 0.9007 0.0
Co957 Co 0.99637 0.6025 0.10658 0.0
Co958 Co 0.95971 0.60754 0.11422 0.0
Co959 Co 0.98205 0.65389 0.11918 0.0
O960 O 0.98154 0.62245 0.12364 0.0
H961 H 0.98273 0.61935 0.13847 0.0
O962 O 0.98379 0.68725 0.11449 0.0
Co963 Co 0.96429 0.71098 0.12521 0.0
Co964 Co 0.99794 0.69788 0.13767 0.0
H965 H 0.99077 0.69088 0.10137 0.0
O966 O 0.94859 0.58517 0.12819 0.0
O967 O 0.96997 0.58474 0.09961 0.0
O968 O 0.94346 0.62269 0.09663 0.0
O969 O 0.96082 0.65313 0.09548 0.0
O970 O 0.96008 0.65524 0.14295 0.0
O971 O 0.94587 0.73008 0.13655 0.0
O972 O 0.96906 0.74007 0.11372 0.0
O973 O 0.95717 0.68809 0.13909 0.0
O974 O 1.00387 0.65219 0.14205 0.0
O975 O 1.0064 0.68125 0.16027 0.0
O976 O 0.98287 0.71848 0.14737 0.0
O977 O 1.01431 0.72004 0.13228 0.0
C978 C 1.00984 0.57504 0.11128 0.0
C979 C 1.00687 0.63746 0.08228 0.0
C980 C 0.94664 0.64055 0.08896 0.0
C981 C 0.9567 0.57499 0.11257 0.0
C982 C 0.95452 0.74548 0.12694 0.0
C983 C 0.95212 0.67201 0.1489 0.0
C984 C 1.01009 0.66241 0.15824 0.0
C985 C 0.99943 0.72878 0.14217 0.0
O986 O 1.01048 0.58406 0.09302 0.0
O987 O 1.00072 0.58378 0.12739 0.0
O988 O 1.00401 0.65132 0.09658 0.0
O989 O 0.99602 0.6206 0.0823 0.0
Co990 Co 0.6741 0.70693 0.44925 0.0
Co991 Co 0.66735 0.69754 0.48655 0.0
Co992 Co 0.66312 0.65718 0.45994 0.0
O993 O 0.65879 0.68633 0.46259 0.0
H994 H 0.6445 0.68864 0.46197 0.0
O995 O 0.66717 0.62779 0.45773 0.0
Co996 Co 0.65227 0.60911 0.47575 0.0
Co997 Co 0.6548 0.61576 0.43453 0.0
H998 H 0.68137 0.62488 0.45703 0.0
O999 O 0.65272 0.71676 0.49905 0.0
O1000 O 0.68063 0.72124 0.47739 0.0
O1001 O 0.6842 0.68143 0.50326 0.0
O1002 O 0.68757 0.65718 0.47866 0.0
O1003 O 0.64404 0.65385 0.48575 0.0
O1004 O 0.64068 0.59037 0.49206 0.0
O1005 O 0.67244 0.59147 0.4784 0.0
O1006 O 0.62867 0.62498 0.47616 0.0
O1007 O 0.63498 0.65522 0.44324 0.0
O1008 O 0.6317 0.62705 0.42311 0.0
O1009 O 0.64305 0.59486 0.45031 0.0
O1010 O 0.66555 0.59276 0.42303 0.0
C1011 C 0.66638 0.73258 0.43522 0.0
C1012 C 0.70174 0.67587 0.43782 0.0
C1013 C 0.69294 0.66579 0.49594 0.0
C1014 C 0.66826 0.72796 0.49234 0.0
C1015 C 0.65821 0.58222 0.48986 0.0
C1016 C 0.62875 0.64126 0.48731 0.0
C1017 C 0.62384 0.64248 0.43176 0.0
C1018 C 0.65413 0.58402 0.43762 0.0
O1019 O 0.6853 0.72771 0.43491 0.0
O1020 O 0.65302 0.72224 0.44654 0.0
O1021 O 0.68619 0.66262 0.43558 0.0
O1022 O 0.69885 0.69176 0.44943 0.0
Co1023 Co 0.61877 0.66593 0.82891 0.0
Co1024 Co 0.62791 0.66339 0.79243 0.0
Co1025 Co 0.6231 0.61813 0.81123 0.0
O1026 O 0.63151 0.64678 0.81278 0.0
H1027 H 0.64592 0.64754 0.8148 0.0
O1028 O 0.6162 0.58746 0.80949 0.0
Co1029 Co 0.63205 0.57045 0.78978 0.0
Co1030 Co 0.63101 0.5713 0.82687 0.0
H1031 H 0.60187 0.58416 0.81 0.0
O1032 O 0.64877 0.6788 0.78404 0.0
O1033 O 0.6215 0.68762 0.80498 0.0
O1034 O 0.6098 0.65354 0.77268 0.0
O1035 O 0.6043 0.62146 0.78495 0.0
O1036 O 0.64787 0.61544 0.79138 0.0
O1037 O 0.64449 0.55524 0.77057 0.0
O1038 O 0.61106 0.55612 0.77779 0.0
O1039 O 0.65602 0.58354 0.79782 0.0
O1040 O 0.64518 0.61543 0.83666 0.0
O1041 O 0.65574 0.58309 0.83795 0.0
O1042 O 0.63651 0.54791 0.81139 0.0
O1043 O 0.6186 0.55156 0.84246 0.0
C1044 C 0.62853 0.68422 0.85162 0.0
C1045 C 0.58347 0.64058 0.82745 0.0
C1046 C 0.60071 0.63611 0.77163 0.0
C1047 C 0.6367 0.69257 0.79173 0.0
C1048 C 0.62614 0.54973 0.76599 0.0
C1049 C 0.66099 0.60143 0.79125 0.0
C1050 C 0.65916 0.60207 0.84146 0.0
C1051 C 0.62907 0.54036 0.82936 0.0
O1052 O 0.60948 0.68405 0.84696 0.0
O1053 O 0.64165 0.67508 0.83972 0.0
O1054 O 0.59519 0.62439 0.82964 0.0
O1055 O 0.59201 0.65706 0.81998 0.0
Co1056 Co 0.33723 0.64034 0.21058 0.0
Co1057 Co 0.305 0.6502 0.19252 0.0
Co1058 Co 0.3386 0.6526 0.15792 0.0
O1059 O 0.33216 0.65886 0.18797 0.0
H1060 H 0.33442 0.67329 0.19138 0.0
O1061 O 0.34258 0.64431 0.12825 0.0
Co1062 Co 0.32411 0.65508 0.1088 0.0
Co1063 Co 0.36071 0.65921 0.11295 0.0
H1064 H 0.3446 0.6297 0.12646 0.0
O1065 O 0.28963 0.66318 0.21208 0.0
O1066 O 0.3066 0.63366 0.21635 0.0
O1067 O 0.29091 0.63345 0.17122 0.0
O1068 O 0.3209 0.62624 0.15792 0.0
O1069 O 0.31521 0.66945 0.15082 0.0
O1070 O 0.30682 0.66375 0.09097 0.0
O1071 O 0.31657 0.63109 0.09494 0.0
O1072 O 0.32763 0.68114 0.12061 0.0
O1073 O 0.3566 0.68244 0.15544 0.0
O1074 O 0.36797 0.68623 0.12191 0.0
O1075 O 0.34685 0.66033 0.08846 0.0
O1076 O 0.37606 0.64443 0.09606 0.0
C1077 C 0.34272 0.6438 0.24159 0.0
C1078 C 0.35585 0.61636 0.17835 0.0
C1079 C 0.30215 0.62161 0.16067 0.0
C1080 C 0.2923 0.64625 0.22241 0.0
C1081 C 0.3046 0.64433 0.08655 0.0
C1082 C 0.3173 0.68388 0.13744 0.0
C1083 C 0.36477 0.69423 0.1399 0.0
C1084 C 0.36179 0.64848 0.08308 0.0
O1085 O 0.34305 0.62566 0.23283 0.0
O1086 O 0.33701 0.6597 0.23103 0.0
O1087 O 0.36084 0.63246 0.16667 0.0
O1088 O 0.34071 0.61743 0.19136 0.0
Co1089 Co 0.62192 0.84079 0.66092 0.0
Co1090 Co 0.62609 0.80424 0.64536 0.0
Co1091 Co 0.66769 0.82933 0.65273 0.0
O1092 O 0.64035 0.82826 0.6427 0.0
H1093 H 0.63941 0.83261 0.62819 0.0
O1094 O 0.69496 0.83117 0.66307 0.0
Co1095 Co 0.71676 0.818 0.65108 0.0
Co1096 Co 0.70776 0.85353 0.65086 0.0
H1097 H 0.6953 0.83189 0.67832 0.0
O1098 O 0.60405 0.79989 0.6282 0.0
O1099 O 0.6048 0.81585 0.65986 0.0
O1100 O 0.63703 0.78515 0.66418 0.0
O1101 O 0.66306 0.80577 0.6742 0.0
O1102 O 0.67533 0.80942 0.62978 0.0
O1103 O 0.73756 0.80542 0.64139 0.0
O1104 O 0.7284 0.81105 0.67546 0.0
O1105 O 0.70672 0.82164 0.62365 0.0
O1106 O 0.67076 0.85195 0.62904 0.0
O1107 O 0.70263 0.86128 0.62258 0.0
O1108 O 0.733 0.84512 0.65145 0.0
O1109 O 0.71697 0.87142 0.66898 0.0
C1110 C 0.59918 0.85908 0.65704 0.0
C1111 C 0.64743 0.84252 0.69159 0.0
C1112 C 0.65121 0.78971 0.67671 0.0
C1113 C 0.5951 0.80999 0.6433 0.0
C1114 C 0.74058 0.80302 0.66135 0.0
C1115 C 0.6908 0.81194 0.61744 0.0
C1116 C 0.68492 0.8586 0.61606 0.0
C1117 C 0.73286 0.86064 0.66504 0.0
O1118 O 0.60401 0.85315 0.67572 0.0
O1119 O 0.60869 0.85278 0.64011 0.0
O1120 O 0.66058 0.84904 0.67759 0.0
O1121 O 0.63344 0.83056 0.68514 0.0
Co1122 Co 0.73759 0.36742 0.93035 0.0
Co1123 Co 0.69943 0.37102 0.92671 0.0
Co1124 Co 0.72124 0.3781 0.87843 0.0
O1125 O 0.72118 0.38146 0.91041 0.0
H1126 H 0.72223 0.39607 0.9135 0.0
O1127 O 0.72185 0.37494 0.84608 0.0
Co1128 Co 0.70325 0.38445 0.82393 0.0
Co1129 Co 0.73481 0.39911 0.8376 0.0
H1130 H 0.72937 0.36319 0.8414 0.0
O1131 O 0.69105 0.38001 0.9541 0.0
O1132 O 0.7127 0.35502 0.94657 0.0
O1133 O 0.68114 0.35574 0.90962 0.0
O1134 O 0.69746 0.35799 0.87813 0.0
O1135 O 0.70223 0.40227 0.87738 0.0
O1136 O 0.68762 0.39233 0.80272 0.0
O1137 O 0.71188 0.3691 0.80074 0.0
O1138 O 0.69283 0.40227 0.84362 0.0
O1139 O 0.7456 0.39774 0.87889 0.0
O1140 O 0.73622 0.42136 0.85692 0.0
O1141 O 0.72195 0.407 0.81526 0.0
O1142 O 0.75437 0.3971 0.81707 0.0
C1143 C 0.74874 0.37474 0.95901 0.0
C1144 C 0.7462 0.34187 0.89293 0.0
C1145 C 0.68278 0.35131 0.89005 0.0
C1146 C 0.70165 0.36497 0.96068 0.0
C1147 C 0.6989 0.38049 0.79118 0.0
C1148 C 0.69222 0.40966 0.86216 0.0
C1149 C 0.74635 0.41631 0.87245 0.0
C1150 C 0.73963 0.40447 0.80658 0.0
O1151 O 0.75282 0.35734 0.94983 0.0
O1152 O 0.73821 0.3882 0.94924 0.0
O1153 O 0.74069 0.35465 0.87898 0.0
O1154 O 0.7404 0.34339 0.9123 0.0
Co1155 Co 0.09895 0.82757 0.3812 0.0
Co1156 Co 0.06653 0.84498 0.38956 0.0
Co1157 Co 0.10067 0.87882 0.38628 0.0
O1158 O 0.09298 0.85117 0.3952 0.0
H1159 H 0.09469 0.85001 0.41027 0.0
O1160 O 0.10641 0.90719 0.37739 0.0
Co1161 Co 0.08972 0.92731 0.39028 0.0
Co1162 Co 0.12768 0.92108 0.38854 0.0
H1163 H 0.1072 0.90838 0.36217 0.0
O1164 O 0.05089 0.8258 0.40395 0.0
O1165 O 0.06945 0.8213 0.3737 0.0
O1166 O 0.05253 0.86579 0.37475 0.0
O1167 O 0.08166 0.87859 0.36196 0.0
O1168 O 0.07846 0.88662 0.40556 0.0
O1169 O 0.07408 0.94655 0.3996 0.0
O1170 O 0.08545 0.94118 0.3661 0.0
O1171 O 0.09123 0.9156 0.41765 0.0
O1172 O 0.11984 0.88005 0.4126 0.0
O1173 O 0.13652 0.91073 0.41415 0.0
O1174 O 0.11373 0.94385 0.39609 0.0
O1175 O 0.13998 0.94193 0.37285 0.0
C1176 C 0.10403 0.80007 0.3919 0.0
C1177 C 0.11728 0.85601 0.35033 0.0
C1178 C 0.06244 0.87754 0.36204 0.0
C1179 C 0.0544 0.81561 0.38655 0.0
C1180 C 0.07405 0.95096 0.37963 0.0
C1181 C 0.08116 0.89894 0.42071 0.0
C1182 C 0.13116 0.89364 0.4225 0.0
C1183 C 0.12596 0.95241 0.38218 0.0
O1184 O 0.10614 0.80345 0.37163 0.0
O1185 O 0.09572 0.81322 0.40447 0.0
O1186 O 0.12197 0.86927 0.36487 0.0
O1187 O 0.10433 0.84137 0.35447 0.0
Co1188 Co 0.3633 0.37389 0.59828 0.0
Co1189 Co 0.35702 0.38131 0.56189 0.0
Co1190 Co 0.40305 0.38638 0.57118 0.0
O1191 O 0.3754 0.39192 0.57835 0.0
H1192 H 0.37314 0.40636 0.58097 0.0
O1193 O 0.43055 0.38055 0.5643 0.0
Co1194 Co 0.449 0.39539 0.54731 0.0
Co1195 Co 0.44481 0.38999 0.58621 0.0
H1196 H 0.43232 0.36585 0.56312 0.0
O1197 O 0.33717 0.39776 0.55804 0.0
O1198 O 0.33835 0.3708 0.58117 0.0
O1199 O 0.36502 0.36138 0.54097 0.0
O1200 O 0.39698 0.3627 0.55108 0.0
O1201 O 0.40302 0.40752 0.54706 0.0
O1202 O 0.46771 0.40724 0.53096 0.0
O1203 O 0.4639 0.37382 0.54059 0.0
O1204 O 0.43427 0.42059 0.5508 0.0
O1205 O 0.40911 0.41317 0.58906 0.0
O1206 O 0.43913 0.41396 0.60295 0.0
O1207 O 0.46644 0.39995 0.57261 0.0
O1208 O 0.46096 0.37196 0.59495 0.0
C1209 C 0.34843 0.37766 0.62556 0.0
C1210 C 0.39015 0.34673 0.59402 0.0
C1211 C 0.38276 0.35467 0.54011 0.0
C1212 C 0.32824 0.38436 0.57078 0.0
C1213 C 0.47374 0.3884 0.53015 0.0
C1214 C 0.41661 0.42193 0.54316 0.0
C1215 C 0.42336 0.42313 0.59877 0.0
C1216 C 0.47223 0.38718 0.58732 0.0
O1217 O 0.3521 0.35935 0.61842 0.0
O1218 O 0.35279 0.39389 0.61401 0.0
O1219 O 0.40297 0.36264 0.59495 0.0
O1220 O 0.37369 0.35013 0.58516 0.0
Co1221 Co 0.37039 0.4374 0.18561 0.0
Co1222 Co 0.36402 0.4286 0.22126 0.0
Co1223 Co 0.41029 0.42677 0.20752 0.0
O1224 O 0.3822 0.41976 0.20378 0.0
H1225 H 0.37973 0.40529 0.20068 0.0
O1226 O 0.43888 0.43322 0.21133 0.0
Co1227 Co 0.45575 0.41705 0.22724 0.0
Co1228 Co 0.453 0.42168 0.18989 0.0
H1229 H 0.44186 0.44788 0.21242 0.0
O1230 O 0.34451 0.41004 0.22564 0.0
O1231 O 0.3451 0.4373 0.20284 0.0
O1232 O 0.37362 0.44562 0.24414 0.0
O1233 O 0.40624 0.44584 0.23395 0.0
O1234 O 0.41042 0.40267 0.22683 0.0
O1235 O 0.47182 0.40368 0.24221 0.0
O1236 O 0.47156 0.43815 0.23761 0.0
O1237 O 0.4412 0.39204 0.2199 0.0
O1238 O 0.41364 0.40381 0.1823 0.0
O1239 O 0.44573 0.39596 0.1782 0.0
O1240 O 0.47548 0.41587 0.2024 0.0
O1241 O 0.46891 0.43881 0.17587 0.0
C1242 C 0.35721 0.43389 0.15788 0.0
C1243 C 0.39519 0.46753 0.1938 0.0
C1244 C 0.39191 0.45137 0.2469 0.0
C1245 C 0.3357 0.42167 0.21212 0.0
C1246 C 0.4797 0.42191 0.24553 0.0
C1247 C 0.42305 0.3884 0.22633 0.0
C1248 C 0.42752 0.3908 0.17615 0.0
C1249 C 0.48136 0.42904 0.18747 0.0
O1250 O 0.35947 0.45219 0.16621 0.0
O1251 O 0.3615 0.41758 0.16854 0.0
O1252 O 0.40904 0.45426 0.1893 0.0
O1253 O 0.37874 0.46015 0.20126 0.0
Co1254 Co 0.37548 0.20154 0.41893 0.0
Co1255 Co 0.39036 0.2363 0.41291 0.0
Co1256 Co 0.39129 0.21241 0.36983 0.0
O1257 O 0.39548 0.2119 0.40029 0.0
H1258 H 0.40889 0.20771 0.40354 0.0
O1259 O 0.38747 0.21425 0.33882 0.0
Co1260 Co 0.40416 0.23359 0.32189 0.0
Co1261 Co 0.40332 0.19741 0.32351 0.0
H1262 H 0.37348 0.21321 0.33489 0.0
O1263 O 0.40714 0.24492 0.43285 0.0
O1264 O 0.37654 0.22773 0.43688 0.0
O1265 O 0.37294 0.25498 0.39977 0.0
O1266 O 0.36962 0.23566 0.37084 0.0
O1267 O 0.4144 0.23348 0.3683 0.0
O1268 O 0.41779 0.25182 0.30648 0.0
O1269 O 0.3844 0.2446 0.3059 0.0
O1270 O 0.42737 0.22699 0.33655 0.0
O1271 O 0.41678 0.18974 0.36784 0.0
O1272 O 0.42778 0.1874 0.33428 0.0
O1273 O 0.40905 0.21173 0.29945 0.0
O1274 O 0.39029 0.18169 0.30583 0.0
C1275 C 0.37505 0.18342 0.44396 0.0
C1276 C 0.34947 0.19853 0.38833 0.0
C1277 C 0.36403 0.25095 0.38273 0.0
C1278 C 0.39167 0.23883 0.44454 0.0
C1279 C 0.4002 0.25594 0.29954 0.0
C1280 C 0.42947 0.23354 0.35534 0.0
C1281 C 0.43128 0.18471 0.35353 0.0
C1282 C 0.39964 0.19464 0.29297 0.0
O1283 O 0.3584 0.19024 0.43682 0.0
O1284 O 0.39248 0.18965 0.4359 0.0
O1285 O 0.36392 0.19299 0.37463 0.0
O1286 O 0.35488 0.21141 0.40249 0.0
Co1287 Co 0.99494 0.10414 0.60689 0.0
Co1288 Co 0.95745 0.10689 0.616 0.0
Co1289 Co 0.97806 0.15381 0.61996 0.0
O1290 O 0.97938 0.12267 0.62452 0.0
H1291 H 0.98123 0.11964 0.63927 0.0
O1292 O 0.9768 0.18614 0.61646 0.0
Co1293 Co 0.96474 0.20662 0.63872 0.0
Co1294 Co 1.00209 0.19626 0.62665 0.0
H1295 H 0.97495 0.19018 0.60198 0.0
O1296 O 0.94972 0.08083 0.62713 0.0
O1297 O 0.96931 0.08705 0.5981 0.0
O1298 O 0.93945 0.12255 0.60023 0.0
O1299 O 0.9595 0.15079 0.59419 0.0
O1300 O 0.95415 0.15519 0.63978 0.0
O1301 O 0.95412 0.22587 0.65849 0.0
O1302 O 0.96065 0.23362 0.62511 0.0
O1303 O 0.96642 0.18332 0.65611 0.0
O1304 O 0.99598 0.15453 0.64603 0.0
O1305 O 1.01982 0.17905 0.64276 0.0
O1306 O 0.99208 0.21547 0.64528 0.0
O1307 O 1.01218 0.22089 0.61637 0.0
C1308 C 1.00814 0.07671 0.61075 0.0
C1309 C 1.00585 0.13962 0.58488 0.0
C1310 C 0.94403 0.13887 0.58985 0.0
C1311 C 0.95868 0.07387 0.61021 0.0
C1312 C 0.95406 0.23988 0.64384 0.0
C1313 C 0.95292 0.16901 0.65423 0.0
C1314 C 1.01277 0.16286 0.6518 0.0
C1315 C 1.00237 0.22792 0.63277 0.0
O1316 O 1.00956 0.08642 0.59286 0.0
O1317 O 0.99872 0.08486 0.62694 0.0
O1318 O 1.00256 0.15274 0.59987 0.0
O1319 O 0.99466 0.12313 0.58361 0.0
Co1320 Co 0.83807 0.13805 0.21014 0.0
Co1321 Co 0.80658 0.14869 0.19224 0.0
Co1322 Co 0.84036 0.15261 0.15839 0.0
O1323 O 0.83367 0.15769 0.18869 0.0
H1324 H 0.83586 0.17194 0.19284 0.0
O1325 O 0.8447 0.14633 0.12845 0.0
Co1326 Co 0.82656 0.1582 0.10909 0.0
Co1327 Co 0.86451 0.1613 0.11485 0.0
H1328 H 0.84663 0.13182 0.12583 0.0
O1329 O 0.79088 0.16188 0.21093 0.0
O1330 O 0.80722 0.13194 0.21564 0.0
O1331 O 0.79318 0.13195 0.17077 0.0
O1332 O 0.82318 0.12617 0.15653 0.0
O1333 O 0.81646 0.16816 0.15263 0.0
O1334 O 0.81009 0.16751 0.09074 0.0
O1335 O 0.82112 0.13518 0.09275 0.0
O1336 O 0.82757 0.18377 0.12376 0.0
O1337 O 0.85707 0.18291 0.15671 0.0
O1338 O 0.87376 0.18708 0.12553 0.0
O1339 O 0.85046 0.16586 0.09094 0.0
O1340 O 0.87865 0.1474 0.09596 0.0
C1341 C 0.84319 0.13911 0.24125 0.0
C1342 C 0.85751 0.11618 0.1777 0.0
C1343 C 0.80447 0.12131 0.15896 0.0
C1344 C 0.793 0.14485 0.22128 0.0
C1345 C 0.80952 0.14859 0.0841 0.0
C1346 C 0.81648 0.18337 0.14044 0.0
C1347 C 0.86785 0.19467 0.14291 0.0
C1348 C 0.86442 0.15354 0.08392 0.0
O1349 O 0.84324 0.12184 0.23081 0.0
O1350 O 0.83789 0.15601 0.23205 0.0
O1351 O 0.86283 0.13258 0.16655 0.0
O1352 O 0.84151 0.11665 0.18957 0.0
Co1353 Co 0.44743 0.557 0.41834 0.0
Co1354 Co 0.44305 0.59529 0.41373 0.0
Co1355 Co 0.3962 0.57181 0.41023 0.0
O1356 O 0.42708 0.5728 0.4042 0.0
H1357 H 0.42945 0.57189 0.3891 0.0
O1358 O 0.3644 0.57161 0.41557 0.0
Co1359 Co 0.34213 0.57909 0.39408 0.0
Co1360 Co 0.35603 0.54472 0.40849 0.0
H1361 H 0.36075 0.57477 0.43008 0.0
O1362 O 0.4689 0.60522 0.40275 0.0
O1363 O 0.46363 0.58321 0.42965 0.0
O1364 O 0.4274 0.6116 0.4323 0.0
O1365 O 0.3986 0.592 0.43572 0.0
O1366 O 0.39228 0.59476 0.3894 0.0
O1367 O 0.32063 0.58527 0.37505 0.0
O1368 O 0.31586 0.58112 0.40924 0.0
O1369 O 0.36491 0.57936 0.37512 0.0
O1370 O 0.39539 0.55201 0.38456 0.0
O1371 O 0.37355 0.52646 0.39238 0.0
O1372 O 0.33666 0.54974 0.38918 0.0
O1373 O 0.33317 0.53359 0.42089 0.0
C1374 C 0.47457 0.54545 0.40953 0.0
C1375 C 0.41318 0.54353 0.44403 0.0
C1376 C 0.4106 0.60709 0.44161 0.0
C1377 C 0.47617 0.59582 0.41876 0.0
C1378 C 0.30781 0.58528 0.39092 0.0
C1379 C 0.3782 0.5942 0.37566 0.0
C1380 C 0.38748 0.53411 0.38046 0.0
C1381 C 0.32704 0.53677 0.40186 0.0
O1382 O 0.46682 0.54193 0.4283 0.0
O1383 O 0.46498 0.5564 0.39605 0.0
O1384 O 0.39929 0.54764 0.43078 0.0
O1385 O 0.4302 0.55371 0.44362 0.0
Co1386 Co 0.7211 0.4525 0.61411 0.0
Co1387 Co 0.70034 0.4836 0.60581 0.0
Co1388 Co 0.67164 0.44554 0.60887 0.0
O1389 O 0.69795 0.45572 0.59941 0.0
H1390 H 0.69986 0.45346 0.58442 0.0
O1391 O 0.6449 0.43725 0.61903 0.0
Co1392 Co 0.62437 0.45234 0.60675 0.0
Co1393 Co 0.63323 0.41418 0.6082 0.0
H1394 H 0.64386 0.43686 0.63429 0.0
O1395 O 0.71915 0.5013 0.5929 0.0
O1396 O 0.72269 0.48284 0.62279 0.0
O1397 O 0.67787 0.49558 0.62139 0.0
O1398 O 0.67073 0.46466 0.63471 0.0
O1399 O 0.66143 0.4676 0.59125 0.0
O1400 O 0.60478 0.46644 0.59768 0.0
O1401 O 0.61087 0.45788 0.63135 0.0
O1402 O 0.63565 0.44987 0.57922 0.0
O1403 O 0.67125 0.42634 0.58138 0.0
O1404 O 0.64405 0.40463 0.58229 0.0
O1405 O 0.60963 0.42632 0.6027 0.0
O1406 O 0.61506 0.40026 0.62535 0.0
C1407 C 0.74943 0.45172 0.60427 0.0
C1408 C 0.69493 0.42916 0.64252 0.0
C1409 C 0.6689 0.48424 0.6352 0.0
C1410 C 0.72847 0.49809 0.61034 0.0
C1411 C 0.60058 0.46804 0.61773 0.0
C1412 C 0.65017 0.46274 0.57616 0.0
C1413 C 0.65955 0.41221 0.57266 0.0
C1414 C 0.60335 0.41393 0.61773 0.0
O1415 O 0.74505 0.44869 0.62426 0.0
O1416 O 0.73612 0.45764 0.59126 0.0
O1417 O 0.68309 0.42382 0.62754 0.0
O1418 O 0.7069 0.44497 0.64038 0.0
Co1419 Co 0.24083 0.86591 0.92902 0.0
Co1420 Co 0.20457 0.87791 0.92727 0.0
Co1421 Co 0.22367 0.88 0.87896 0.0
O1422 O 0.22736 0.88468 0.9105 0.0
H1423 H 0.23157 0.89884 0.91326 0.0
O1424 O 0.21995 0.87466 0.84762 0.0
Co1425 Co 0.21186 0.89534 0.82721 0.0
Co1426 Co 0.24634 0.87724 0.83543 0.0
H1427 H 0.21407 0.86111 0.84479 0.0
O1428 O 0.19877 0.88761 0.9547 0.0
O1429 O 0.21422 0.85813 0.94637 0.0
O1430 O 0.18244 0.86755 0.91072 0.0
O1431 O 0.20203 0.85819 0.88344 0.0
O1432 O 0.2031 0.90248 0.87831 0.0
O1433 O 0.20463 0.91272 0.80634 0.0
O1434 O 0.20667 0.87835 0.80408 0.0
O1435 O 0.21548 0.91583 0.84808 0.0
O1436 O 0.24495 0.9023 0.87449 0.0
O1437 O 0.26762 0.88932 0.85232 0.0
O1438 O 0.24007 0.89897 0.81845 0.0
O1439 O 0.25296 0.86917 0.80759 0.0
C1440 C 0.25503 0.86886 0.9567 0.0
C1441 C 0.24814 0.84378 0.89145 0.0
C1442 C 0.18514 0.85753 0.89362 0.0
C1443 C 0.20498 0.86981 0.96063 0.0
C1444 C 0.20313 0.89595 0.79496 0.0
C1445 C 0.20408 0.91697 0.86446 0.0
C1446 C 0.26238 0.90297 0.86555 0.0
C1447 C 0.24801 0.88791 0.80364 0.0
O1448 O 0.25417 0.85134 0.9467 0.0
O1449 O 0.24668 0.88496 0.94885 0.0
O1450 O 0.24505 0.85834 0.87843 0.0
O1451 O 0.23843 0.8431 0.90922 0.0
Co1452 Co 0.72259 0.9518 0.1119 0.0
Co1453 Co 0.70296 0.98415 0.1042 0.0
Co1454 Co 0.67302 0.947 0.10711 0.0
O1455 O 0.69951 0.95636 0.0976 0.0
H1456 H 0.70126 0.95406 0.08259 0.0
O1457 O 0.64607 0.93924 0.11713 0.0
Co1458 Co 0.62517 0.95279 0.10373 0.0
Co1459 Co 0.63592 0.91432 0.10786 0.0
H1460 H 0.6448 0.93976 0.13237 0.0
O1461 O 0.72219 1.00108 0.09101 0.0
O1462 O 0.72567 0.982 0.12051 0.0
O1463 O 0.68217 0.99698 0.12168 0.0
O1464 O 0.67324 0.96567 0.13294 0.0
O1465 O 0.66337 0.9697 0.08972 0.0
O1466 O 0.6048 0.96534 0.09378 0.0
O1467 O 0.61017 0.95661 0.12759 0.0
O1468 O 0.63804 0.95183 0.07683 0.0
O1469 O 0.67202 0.9282 0.07968 0.0
O1470 O 0.64811 0.90309 0.08317 0.0
O1471 O 0.61307 0.92577 0.09845 0.0
O1472 O 0.61516 0.90152 0.12357 0.0
C1473 C 0.75076 0.94972 0.10178 0.0
C1474 C 0.69557 0.93006 0.14096 0.0
C1475 C 0.67338 0.98526 0.13522 0.0
C1476 C 0.73171 0.99722 0.10816 0.0
C1477 C 0.59969 0.96616 0.11371 0.0
C1478 C 0.65207 0.9654 0.07444 0.0
C1479 C 0.66189 0.91234 0.07224 0.0
C1480 C 0.60462 0.91416 0.11291 0.0
O1481 O 0.74639 0.94674 0.12177 0.0
O1482 O 0.73761 0.95624 0.08889 0.0
O1483 O 0.68375 0.92479 0.1259 0.0
O1484 O 0.7084 0.94508 0.1383 0.0
Co1485 Co 0.44271 0.05763 0.91591 0.0
Co1486 Co 0.4396 0.09569 0.91659 0.0
Co1487 Co 0.39185 0.0729 0.91107 0.0
O1488 O 0.42262 0.07523 0.90512 0.0
H1489 H 0.42465 0.07626 0.88998 0.0
O1490 O 0.35981 0.07169 0.91566 0.0
Co1491 Co 0.33857 0.07955 0.89311 0.0
Co1492 Co 0.35177 0.04503 0.90744 0.0
H1493 H 0.35566 0.07459 0.93008 0.0
O1494 O 0.46501 0.10702 0.90558 0.0
O1495 O 0.461 0.08161 0.92932 0.0
O1496 O 0.42426 0.10953 0.93729 0.0
O1497 O 0.39373 0.09244 0.93717 0.0
O1498 O 0.38822 0.0966 0.89143 0.0
O1499 O 0.31892 0.08663 0.87328 0.0
O1500 O 0.31111 0.08004 0.90659 0.0
O1501 O 0.36197 0.0814 0.87534 0.0
O1502 O 0.39151 0.05365 0.88491 0.0
O1503 O 0.37091 0.02719 0.89343 0.0
O1504 O 0.33403 0.05022 0.88624 0.0
O1505 O 0.32792 0.03331 0.91714 0.0
C1506 C 0.46756 0.0452 0.90315 0.0
C1507 C 0.40944 0.04314 0.94317 0.0
C1508 C 0.40652 0.106 0.94488 0.0
C1509 C 0.47311 0.09554 0.91957 0.0
C1510 C 0.3048 0.08546 0.88784 0.0
C1511 C 0.37467 0.09654 0.8773 0.0
C1512 C 0.38438 0.03531 0.88124 0.0
C1513 C 0.32351 0.03671 0.89757 0.0
O1514 O 0.46138 0.04029 0.92221 0.0
O1515 O 0.4585 0.05914 0.89254 0.0
O1516 O 0.39513 0.04818 0.93083 0.0
O1517 O 0.42698 0.05223 0.94188 0.0
Co1518 Co 0.83694 0.63853 0.7096 0.0
Co1519 Co 0.80507 0.64986 0.69204 0.0
Co1520 Co 0.83945 0.65333 0.65827 0.0
O1521 O 0.83233 0.65846 0.68844 0.0
H1522 H 0.83492 0.67262 0.6927 0.0
O1523 O 0.84443 0.647 0.62865 0.0
Co1524 Co 0.82822 0.66087 0.6092 0.0
Co1525 Co 0.86638 0.66032 0.61689 0.0
H1526 H 0.84516 0.63238 0.62583 0.0
O1527 O 0.78891 0.66084 0.71254 0.0
O1528 O 0.80664 0.63154 0.7141 0.0
O1529 O 0.7919 0.63355 0.67002 0.0
O1530 O 0.822 0.62696 0.65638 0.0
O1531 O 0.81567 0.66915 0.65142 0.0
O1532 O 0.81335 0.67207 0.5908 0.0
O1533 O 0.82195 0.6388 0.59194 0.0
O1534 O 0.83001 0.68564 0.62489 0.0
O1535 O 0.85615 0.68381 0.65664 0.0
O1536 O 0.87787 0.68481 0.62907 0.0
O1537 O 0.8534 0.66761 0.59286 0.0
O1538 O 0.87948 0.64612 0.5972 0.0
C1539 C 0.84173 0.63943 0.7407 0.0
C1540 C 0.85649 0.61662 0.67745 0.0
C1541 C 0.80316 0.6225 0.65857 0.0
C1542 C 0.79158 0.64285 0.72078 0.0
C1543 C 0.81086 0.65322 0.58428 0.0
C1544 C 0.81828 0.6856 0.64106 0.0
C1545 C 0.86887 0.69444 0.64373 0.0
C1546 C 0.86623 0.65437 0.58533 0.0
O1547 O 0.84212 0.62224 0.73015 0.0
O1548 O 0.83619 0.65628 0.7316 0.0
O1549 O 0.86195 0.63315 0.66659 0.0
O1550 O 0.8405 0.61722 0.68916 0.0
Co1551 Co 0.23479 0.36129 0.42896 0.0
Co1552 Co 0.19915 0.37509 0.4257 0.0
Co1553 Co 0.22036 0.37737 0.37828 0.0
O1554 O 0.22274 0.38041 0.41003 0.0
H1555 H 0.22736 0.39433 0.41336 0.0
O1556 O 0.21857 0.37435 0.34595 0.0
Co1557 Co 0.19937 0.38525 0.32481 0.0
Co1558 Co 0.2303 0.39914 0.33811 0.0
H1559 H 0.22633 0.36309 0.34043 0.0
O1560 O 0.19382 0.3859 0.45282 0.0
O1561 O 0.20732 0.3552 0.44529 0.0
O1562 O 0.17744 0.36471 0.40859 0.0
O1563 O 0.19659 0.35759 0.38007 0.0
O1564 O 0.20156 0.40174 0.37891 0.0
O1565 O 0.18249 0.3941 0.30538 0.0
O1566 O 0.20543 0.37001 0.30008 0.0
O1567 O 0.19119 0.40321 0.34556 0.0
O1568 O 0.24493 0.39673 0.37679 0.0
O1569 O 0.2332 0.42129 0.35755 0.0
O1570 O 0.21898 0.40666 0.31474 0.0
O1571 O 0.25092 0.39603 0.32022 0.0
C1572 C 0.24736 0.36356 0.45745 0.0
C1573 C 0.24229 0.33919 0.39103 0.0
C1574 C 0.18005 0.35573 0.39085 0.0
C1575 C 0.19912 0.36795 0.45927 0.0
C1576 C 0.19164 0.38181 0.29238 0.0
C1577 C 0.1914 0.41 0.36432 0.0
C1578 C 0.24491 0.41562 0.3715 0.0
C1579 C 0.23729 0.40316 0.30803 0.0
O1580 O 0.24658 0.34606 0.44742 0.0
O1581 O 0.2405 0.38009 0.44889 0.0
O1582 O 0.2396 0.35372 0.37782 0.0
O1583 O 0.23246 0.3387 0.4088 0.0
H1584 H 0.12017 0.97944 0.54323 0.0
H1585 H 0.18267 0.9806 0.56151 0.0
H1586 H 0.19255 1.00005 0.52965 0.0
H1587 H 0.12946 0.98286 0.48268 0.0
H1588 H 0.10927 1.00056 0.48053 0.0
H1589 H 0.10763 0.98053 0.50022 0.0
H1590 H 0.10215 1.00804 0.52947 0.0
H1591 H 0.1037 0.028 0.50995 0.0
H1592 H 0.1204 0.02916 0.53202 0.0
H1593 H 0.19518 0.02476 0.50108 0.0
H1594 H 0.18977 0.05648 0.4811 0.0
H1595 H 0.12531 0.04237 0.48223 0.0
C1596 C 0.13599 0.98314 0.53993 0.0
C1597 C 0.15074 0.97815 0.55446 0.0
C1598 C 0.17121 0.98392 0.55037 0.0
C1599 C 0.17699 0.99482 0.53214 0.0
C1600 C 0.16206 1.00017 0.51834 0.0
C1601 C 0.14189 0.99468 0.52208 0.0
C1602 C 0.12843 1.00634 0.50772 0.0
C1603 C 0.1181 0.99168 0.49185 0.0
C1604 C 0.11278 1.01862 0.52056 0.0
C1605 C 0.14404 0.02037 0.4967 0.0
C1606 C 0.16341 1.01582 0.50225 0.0
C1607 C 0.18016 0.02818 0.49612 0.0
C1608 C 0.17696 0.04617 0.48479 0.0
C1609 C 0.15714 0.05175 0.48026 0.0
C1610 C 0.14062 0.03826 0.48544 0.0
H1611 H 0.0579 0.37933 0.8205 0.0
H1612 H 0.03348 0.41528 0.87234 0.0
H1613 H 1.01542 0.43654 0.84694 0.0
H1614 H 0.06088 0.42168 0.77919 0.0
H1615 H 0.05347 0.40307 0.75934 0.0
H1616 H 0.06777 0.39519 0.78157 0.0
H1617 H 0.03951 0.36681 0.78923 0.0
H1618 H 1.02533 0.37579 0.76754 0.0
H1619 H 1.0139 0.3746 0.79368 0.0
H1620 H 0.99699 0.45081 0.81682 0.0
H1621 H 0.97567 0.45318 0.78537 0.0
H1622 H 1.01069 0.40656 0.75387 0.0
C1623 C 0.04907 0.39202 0.82632 0.0
C1624 C 0.04698 0.39597 0.84808 0.0
C1625 C 0.03507 0.41222 0.85554 0.0
C1626 C 1.02505 0.42447 0.84128 0.0
C1627 C 1.02713 0.4201 0.81976 0.0
C1628 C 0.03867 0.40407 0.81234 0.0
C1629 C 0.03596 0.40038 0.789 0.0
C1630 C 0.05569 0.40539 0.77653 0.0
C1631 C 1.02819 0.3781 0.78463 0.0
C1632 C 1.02021 0.41601 0.7847 0.0
C1633 C 1.0159 0.42784 0.80239 0.0
C1634 C 1.0005 0.442 0.80271 0.0
C1635 C 0.98857 0.44337 0.78481 0.0
C1636 C 0.99195 0.43028 0.76729 0.0
C1637 C 1.00835 0.41708 0.76695 0.0
H1638 H 0.6463 0.24659 0.02154 0.0
H1639 H 0.70827 0.24121 0.99924 0.0
H1640 H 0.7196 0.26479 0.02777 0.0
H1641 H 0.65166 0.30215 0.04013 0.0
H1642 H 0.63468 0.29697 0.06232 0.0
H1643 H 0.63143 0.28298 0.03787 0.0
H1644 H 0.63305 0.24857 0.05833 0.0
H1645 H 0.63679 0.26241 0.08268 0.0
H1646 H 0.65482 0.24386 0.07389 0.0
H1647 H 0.72454 0.28302 0.06256 0.0
H1648 H 0.72262 0.29857 0.09811 0.0
H1649 H 0.65717 0.29341 0.09725 0.0
C1650 C 0.66218 0.25102 0.02215 0.0
C1651 C 0.6764 0.2422 1.00805 0.0
C1652 C 0.69708 0.24808 1.00957 0.0
C1653 C 0.70365 0.26133 0.02587 0.0
C1654 C 0.68931 0.26884 0.04023 0.0
C1655 C 0.66894 0.26432 0.03818 0.0
C1656 C 0.65672 0.2731 0.0565 0.0
C1657 C 0.6428 0.2898 0.04874 0.0
C1658 C 0.64465 0.25596 0.06855 0.0
C1659 C 0.67347 0.28241 0.06975 0.0
C1660 C 0.69214 0.27989 0.06002 0.0
C1661 C 0.70997 0.28561 0.07002 0.0
C1662 C 0.70871 0.29439 0.0903 0.0
C1663 C 0.68974 0.29772 0.10037 0.0
C1664 C 0.67191 0.2915 0.08988 0.0
H1665 H 0.75774 0.92354 0.28913 0.0
H1666 H 0.74544 0.86233 0.26422 0.0
H1667 H 0.75427 0.87466 0.22837 0.0
H1668 H 0.75445 0.95796 0.23568 0.0
H1669 H 0.77546 0.97161 0.24688 0.0
H1670 H 0.75561 0.96095 0.26401 0.0
H1671 H 0.78641 0.94415 0.28309 0.0
H1672 H 0.80383 0.95302 0.26302 0.0
H1673 H 0.80108 0.92578 0.26839 0.0
H1674 H 0.77608 0.88722 0.2011 0.0
H1675 H 0.81044 0.89653 0.18827 0.0
H1676 H 0.81102 0.95108 0.22747 0.0
C1677 C 0.75609 0.91311 0.27581 0.0
C1678 C 0.75111 0.8921 0.27911 0.0
C1679 C 0.74952 0.87849 0.26182 0.0
C1680 C 0.75415 0.88553 0.24139 0.0
C1681 C 0.76093 0.90605 0.23868 0.0
C1682 C 0.76187 0.91978 0.25557 0.0
C1683 C 0.77597 0.93814 0.25069 0.0
C1684 C 0.76463 0.9583 0.24927 0.0
C1685 C 0.7928 0.94033 0.26722 0.0
C1686 C 0.78409 0.93173 0.22921 0.0
C1687 C 0.77455 0.91366 0.22208 0.0
C1688 C 0.78304 0.90179 0.20588 0.0
C1689 C 0.80252 0.90719 0.19848 0.0
C1690 C 0.81274 0.92463 0.20682 0.0
C1691 C 0.80276 0.93813 0.22052 0.0
H1692 H 0.16602 0.26589 0.69618 0.0
H1693 H 0.11272 0.30039 0.71123 0.0
H1694 H 0.1081 0.28176 0.74493 0.0
H1695 H 0.1453 0.21908 0.71418 0.0
H1696 H 0.16824 0.20955 0.72458 0.0
H1697 H 0.16948 0.22789 0.70334 0.0
H1698 H 0.19235 0.25249 0.72555 0.0
H1699 H 0.1912 0.2341 0.74686 0.0
H1700 H 0.18391 0.26028 0.7516 0.0
H1701 H 0.10678 0.25711 0.77504 0.0
H1702 H 0.10805 0.22641 0.798 0.0
H1703 H 0.16221 0.20805 0.7638 0.0
C1704 C 0.15386 0.26995 0.70698 0.0
C1705 C 0.13992 0.28473 0.70135 0.0
C1706 C 0.1237 0.28924 0.71546 0.0
C1707 C 0.121 0.27888 0.7347 0.0
C1708 C 0.1347 0.26407 0.73974 0.0
C1709 C 0.15082 0.25956 0.72632 0.0
C1710 C 0.16179 0.24121 0.73435 0.0
C1711 C 0.16115 0.22338 0.71816 0.0
C1712 C 0.18361 0.2474 0.73992 0.0
C1713 C 0.14912 0.23599 0.75403 0.0
C1714 C 0.13369 0.24946 0.75702 0.0
C1715 C 0.11904 0.24662 0.77312 0.0
C1716 C 0.1199 0.22918 0.78615 0.0
C1717 C 0.13527 0.21483 0.78292 0.0
C1718 C 0.15036 0.21879 0.76702 0.0
H1719 H 0.76857 0.34833 0.98351 0.0
H1720 H 0.73985 0.40742 0.985 0.0
H1721 H 0.74777 0.41121 0.02277 0.0
H1722 H 0.75603 0.33252 0.04112 0.0
H1723 H 0.78017 0.32087 0.04181 0.0
H1724 H 0.76662 0.32121 0.01743 0.0
H1725 H 0.79902 0.33884 0.9998 0.0
H1726 H 0.81137 0.33883 0.02459 0.0
H1727 H 0.80884 0.36279 1.01074 0.0
H1728 H 0.76561 0.41259 0.05606 0.0
H1729 H 0.79462 0.41302 0.07959 0.0
H1730 H 0.80856 0.3513 0.0594 0.0
C1731 C 0.76362 0.36193 0.99186 0.0
C1732 C 0.75376 0.37766 0.98135 0.0
C1733 C 0.74759 0.39525 0.99275 0.0
C1734 C 0.75167 0.39732 0.01429 0.0
C1735 C 0.76152 0.38148 0.02421 0.0
C1736 C 0.76735 0.36406 0.01331 0.0
C1737 C 0.78072 0.35095 0.02629 0.0
C1738 C 0.77024 0.33015 0.03197 0.0
C1739 C 0.80118 0.34772 0.01469 0.0
C1740 C 0.78284 0.36454 0.04565 0.0
C1741 C 0.77117 0.38183 0.04443 0.0
C1742 C 0.77412 0.39878 0.05781 0.0
C1743 C 0.79048 0.39886 0.07135 0.0
C1744 C 0.80334 0.382 0.07144 0.0
C1745 C 0.79828 0.36393 0.06013 0.0
H1746 H 0.61773 0.04727 0.22892 0.0
H1747 H 0.6615 0.02125 0.27004 0.0
H1748 H 0.67488 1.00076 0.24043 0.0
H1749 H 0.60988 0.99775 0.19598 0.0
H1750 H 0.6071 1.01223 0.17206 0.0
H1751 H 0.59883 0.02275 0.19711 0.0
H1752 H 0.62139 0.05551 0.18996 0.0
H1753 H 0.63013 0.04491 0.16517 0.0
H1754 H 0.64806 0.05299 0.18478 0.0
H1755 H 0.68937 0.99136 0.2057 0.0
H1756 H 0.69684 0.9817 0.1686 0.0
H1757 H 0.64157 1.00887 0.14929 0.0
C1758 C 0.62934 0.03639 0.23185 0.0
C1759 C 0.63848 0.03564 0.2518 0.0
C1760 C 0.65419 0.02183 0.25493 0.0
C1761 C 0.66204 1.0103 0.23816 0.0
C1762 C 0.65371 1.01236 0.21838 0.0
C1763 C 0.63715 0.02425 0.21519 0.0
C1764 C 0.63163 0.02381 0.19195 0.0
C1765 C 0.61061 1.01352 0.18911 0.0
C1766 C 0.63288 0.04561 0.18242 0.0
C1767 C 0.64813 1.01051 0.18268 0.0
C1768 C 0.6609 1.00453 0.19827 0.0
C1769 C 0.67875 0.99461 0.19354 0.0
C1770 C 0.6829 0.98919 0.17252 0.0
C1771 C 0.66925 0.9935 0.15653 0.0
C1772 C 0.65188 1.00481 0.16148 0.0
H1773 H 0.05207 0.92326 0.43641 0.0
H1774 H 0.08128 0.86553 0.44603 0.0
H1775 H 0.05452 0.85493 0.47218 0.0
H1776 H 0.03086 0.93056 0.49065 0.0
H1777 H 1.00767 0.93997 0.48081 0.0
H1778 H 0.03095 0.94429 0.46596 0.0
H1779 H 1.015 0.92662 0.43306 0.0
H1780 H 0.99169 0.92275 0.44793 0.0
H1781 H 1.00363 0.9011 0.43553 0.0
H1782 H 1.0226 0.8494 0.49466 0.0
H1783 H 0.98928 0.8506 0.5133 0.0
H1784 H 0.98042 0.91077 0.48591 0.0
C1785 C 0.05329 0.90888 0.44486 0.0
C1786 C 0.0689 0.89545 0.43993 0.0
C1787 C 0.06958 0.87617 0.45022 0.0
C1788 C 0.05441 0.86999 0.46491 0.0
C1789 C 0.0386 0.88317 0.46875 0.0
C1790 C 0.03804 0.9023 0.45915 0.0
C1791 C 1.01844 0.91262 0.46414 0.0
C1792 C 1.02221 0.93305 0.47612 0.0
C1793 C 1.00648 0.91596 0.44397 0.0
C1794 C 1.00811 0.89639 0.47805 0.0
C1795 C 1.01989 0.87951 0.48062 0.0
C1796 C 1.01321 0.86254 0.49274 0.0
C1797 C 0.99419 0.8632 0.50301 0.0
C1798 C 0.98222 0.88068 0.50093 0.0
C1799 C 0.98917 0.89714 0.48783 0.0
H1800 H 0.52258 0.11189 0.05465 0.0
H1801 H 0.53183 0.17278 0.0824 0.0
H1802 H 0.56262 0.17822 0.06027 0.0
H1803 H 0.57499 0.09904 0.05085 0.0
H1804 H 0.57316 0.08606 0.02568 0.0
H1805 H 0.5514 0.08681 0.04328 0.0
H1806 H 0.53105 0.10279 0.01364 0.0
H1807 H 0.55273 0.10263 0.99586 0.0
H1808 H 0.54026 0.12639 1.00131 0.0
H1809 H 0.59352 0.17697 0.03607 0.0
H1810 H 0.62128 0.16957 1.01085 0.0
H1811 H 0.59276 0.10986 0.99716 0.0
C1812 C 0.53094 0.12647 0.05595 0.0
C1813 C 0.5244 0.14194 0.07048 0.0
C1814 C 0.53614 0.16065 0.07154 0.0
C1815 C 0.55382 0.16391 0.05898 0.0
C1816 C 0.55988 0.1484 0.04507 0.0
C1817 C 0.54875 0.13007 0.04333 0.0
C1818 C 0.55884 0.11598 0.02703 0.0
C1819 C 0.56496 0.09578 0.03733 0.0
C1820 C 0.54489 0.11168 1.00835 0.0
C1821 C 0.57742 0.12916 0.02013 0.0
C1822 C 0.57766 0.1478 0.03082 0.0
C1823 C 0.59338 0.16244 0.02757 0.0
C1824 C 0.60921 0.15804 0.01315 0.0
C1825 C 0.6095 0.13911 1.00178 0.0
C1826 C 0.59316 0.12453 1.00541 0.0
H1827 H 0.93081 0.77742 0.27982 0.0
H1828 H 0.86545 0.77323 0.28612 0.0
H1829 H 0.86363 0.80607 0.26634 0.0
H1830 H 0.93633 0.83027 0.289 0.0
H1831 H 0.95712 0.83449 0.27045 0.0
H1832 H 0.95312 0.8097 0.2828 0.0
H1833 H 0.95167 0.79206 0.24597 0.0
H1834 H 0.95581 0.81684 0.23351 0.0
H1835 H 0.93411 0.80077 0.22691 0.0
H1836 H 0.86948 0.84108 0.24855 0.0
H1837 H 0.88201 0.87457 0.23421 0.0
H1838 H 0.94374 0.85559 0.24007 0.0
C1839 C 0.91601 0.78311 0.27676 0.0
C1840 C 0.8982 0.77259 0.28449 0.0
C1841 C 0.87925 0.78082 0.28021 0.0
C1842 C 0.87811 0.79951 0.26903 0.0
C1843 C 0.89605 0.80967 0.26214 0.0
C1844 C 0.91464 0.80162 0.26575 0.0
C1845 C 0.93177 0.81598 0.25788 0.0
C1846 C 0.94537 0.82302 0.27612 0.0
C1847 C 0.94406 0.8058 0.24001 0.0
C1848 C 0.92 0.83367 0.24962 0.0
C1849 C 0.89942 0.8297 0.25206 0.0
C1850 C 0.88554 0.8442 0.24641 0.0
C1851 C 0.89286 0.86323 0.23831 0.0
C1852 C 0.91391 0.86777 0.23594 0.0
C1853 C 0.92758 0.85258 0.24143 0.0
H1854 H 0.26654 0.16141 0.59036 0.0
H1855 H 0.30408 0.11889 0.55573 0.0
H1856 H 0.27731 0.1144 0.5289 0.0
H1857 H 0.2175 0.13624 0.57975 0.0
H1858 H 0.20552 0.16065 0.57764 0.0
H1859 H 0.22664 0.15823 0.59471 0.0
H1860 H 0.24543 0.18865 0.57525 0.0
H1861 H 0.22449 0.19104 0.55804 0.0
H1862 H 0.2494 0.18727 0.547 0.0
H1863 H 0.247 0.11845 0.50369 0.0
H1864 H 0.21671 0.12879 0.48457 0.0
H1865 H 0.20035 0.1683 0.53737 0.0
C1866 C 0.26899 0.15075 0.57738 0.0
C1867 C 0.28726 0.14036 0.57513 0.0
C1868 C 0.28999 0.12668 0.5579 0.0
C1869 C 0.27492 0.1242 0.54256 0.0
C1870 C 0.25728 0.13536 0.54494 0.0
C1871 C 0.25428 0.14815 0.56218 0.0
C1872 C 0.2348 0.15942 0.56097 0.0
C1873 C 0.22025 0.15325 0.57936 0.0
C1874 C 0.23878 0.18298 0.56027 0.0
C1875 C 0.22723 0.15129 0.54015 0.0
C1876 C 0.24025 0.13745 0.53097 0.0
C1877 C 0.23662 0.12903 0.51098 0.0
C1878 C 0.21938 0.135 0.50022 0.0
C1879 C 0.20599 0.14927 0.50947 0.0
C1880 C 0.21004 0.15721 0.52981 0.0
H1881 H 0.86136 0.50853 0.86099 0.0
H1882 H 0.91958 0.54103 0.85792 0.0
H1883 H 0.92784 0.52269 0.8244 0.0
H1884 H 0.87521 0.46011 0.8398 0.0
H1885 H 0.85294 0.45637 0.82427 0.0
H1886 H 0.85194 0.47169 0.84806 0.0
H1887 H 0.83951 0.5033 0.82695 0.0
H1888 H 0.83945 0.48707 0.80375 0.0
H1889 H 0.8534 0.51145 0.80353 0.0
H1890 H 0.9297 0.49915 0.7905 0.0
H1891 H 0.9239 0.47569 0.75991 0.0
H1892 H 0.86357 0.46082 0.7847 0.0
C1893 C 0.87591 0.51176 0.85338 0.0
C1894 C 0.88992 0.52612 0.86245 0.0
C1895 C 0.90862 0.53006 0.85153 0.0
C1896 C 0.91344 0.51966 0.83241 0.0
C1897 C 0.89926 0.5056 0.82395 0.0
C1898 C 0.88072 0.50197 0.83402 0.0
C1899 C 0.86758 0.48708 0.82125 0.0
C1900 C 0.86157 0.46766 0.83412 0.0
C1901 C 0.84887 0.49784 0.81341 0.0
C1902 C 0.8818 0.48216 0.80286 0.0
C1903 C 0.90002 0.493 0.80451 0.0
C1904 C 0.91539 0.49076 0.78914 0.0
C1905 C 0.91198 0.47732 0.77174 0.0
C1906 C 0.89325 0.46629 0.76959 0.0
C1907 C 0.87809 0.46893 0.78557 0.0
H1908 H 0.59633 0.16594 0.24008 0.0
H1909 H 0.57263 0.10677 0.26317 0.0
H1910 H 0.54731 0.10639 0.23463 0.0
H1911 H 0.54858 0.18686 0.22787 0.0
H1912 H 0.5595 0.20096 0.20566 0.0
H1913 H 0.57475 0.19511 0.22783 0.0
H1914 H 0.60013 0.17712 0.20135 0.0
H1915 H 0.58403 0.18319 0.17991 0.0
H1916 H 0.59054 0.15684 0.18443 0.0
H1917 H 0.52343 0.11406 0.20253 0.0
H1918 H 0.50525 0.12787 0.17219 0.0
H1919 H 0.54543 0.18211 0.1717 0.0
C1920 C 0.58601 0.15266 0.23931 0.0
C1921 C 0.58679 0.13626 0.25416 0.0
C1922 C 0.57264 0.11947 0.25213 0.0
C1923 C 0.55812 0.11921 0.23592 0.0
C1924 C 0.55778 0.13588 0.2218 0.0
C1925 C 0.57151 0.15225 0.22352 0.0
C1926 C 0.56815 0.16867 0.20706 0.0
C1927 C 0.56242 0.18911 0.21772 0.0
C1928 C 0.58682 0.17164 0.19232 0.0
C1929 C 0.55045 0.15909 0.19536 0.0
C1930 C 0.5445 0.1402 0.20404 0.0
C1931 C 0.52816 0.12881 0.19578 0.0
C1932 C 0.51785 0.13684 0.17845 0.0
C1933 C 0.52379 0.15616 0.16923 0.0
C1934 C 0.54041 0.16728 0.17805 0.0
H1935 H 0.90672 0.84383 0.51571 0.0
H1936 H 0.84565 0.83085 0.5393 0.0
H1937 H 0.84392 0.79885 0.51817 0.0
H1938 H 0.89947 0.82551 0.46321 0.0
H1939 H 0.92391 0.81431 0.46057 0.0
H1940 H 0.92041 0.836 0.47797 0.0
H1941 H 0.93397 0.81506 0.50901 0.0
H1942 H 0.93732 0.79319 0.49174 0.0
H1943 H 0.92217 0.79038 0.51567 0.0
H1944 H 0.84834 0.7689 0.49363 0.0
H1945 H 0.85814 0.74397 0.46591 0.0
H1946 H 0.91686 0.7756 0.45946 0.0
C1947 C 0.89301 0.83425 0.51634 0.0
C1948 C 0.876 0.84019 0.52846 0.0
C1949 C 0.85842 0.82712 0.52919 0.0
C1950 C 0.85745 0.80869 0.51762 0.0
C1951 C 0.87435 0.80335 0.50562 0.0
C1952 C 0.8918 0.81571 0.50489 0.0
C1953 C 0.90758 0.80666 0.49022 0.0
C1954 C 0.91315 0.8215 0.47191 0.0
C1955 C 0.92637 0.80099 0.5024 0.0
C1956 C 0.8961 0.78753 0.48257 0.0
C1957 C 0.87704 0.78579 0.4918 0.0
C1958 C 0.86331 0.76995 0.48642 0.0
C1959 C 0.86904 0.75582 0.4707 0.0
C1960 C 0.88829 0.75773 0.46053 0.0
C1961 C 0.90211 0.7735 0.46705 0.0
H1962 H 0.25354 0.16193 0.72947 0.0
H1963 H 0.2909 0.11204 0.74863 0.0
H1964 H 0.26211 0.09742 0.77019 0.0
H1965 H 0.22502 0.16769 0.7791 0.0
H1966 H 0.20173 0.1726 0.76621 0.0
H1967 H 0.22556 0.17972 0.75346 0.0
H1968 H 0.2156 0.15807 0.72061 0.0
H1969 H 0.19177 0.15093 0.73328 0.0
H1970 H 0.20824 0.13121 0.72376 0.0
H1971 H 0.22873 0.08788 0.78923 0.0
H1972 H 0.19374 0.08288 0.80252 0.0
H1973 H 0.17711 0.13845 0.77023 0.0
C1974 C 0.25587 0.14808 0.73843 0.0
C1975 C 0.27481 0.13832 0.73745 0.0
C1976 C 0.27678 0.11995 0.74914 0.0
C1977 C 0.26044 0.11154 0.76146 0.0
C1978 C 0.24203 0.12152 0.76191 0.0
C1979 C 0.23965 0.13936 0.7506 0.0
C1980 C 0.21802 0.14655 0.75292 0.0
C1981 C 0.21756 0.16791 0.76356 0.0
C1982 C 0.20781 0.14669 0.73136 0.0
C1983 C 0.20846 0.12994 0.76729 0.0
C1984 C 0.22268 0.11575 0.77238 0.0
C1985 C 0.21756 0.09889 0.78523 0.0
C1986 C 0.19748 0.09617 0.7927 0.0
C1987 C 0.18234 0.11013 0.78741 0.0
C1988 C 0.18815 0.12747 0.77471 0.0
H1989 H 0.93564 0.4443 0.01325 0.0
H1990 H 0.87159 0.43482 0.02707 0.0
H1991 H 0.86495 0.46644 1.00661 0.0
H1992 H 0.93665 0.5003 0.01776 0.0
H1993 H 0.95539 0.50394 0.99686 0.0
H1994 H 0.95484 0.4808 0.01253 0.0
H1995 H 0.95227 0.45865 0.97856 0.0
H1996 H 0.95275 0.48168 0.96276 0.0
H1997 H 0.93223 0.46286 0.96051 0.0
H1998 H 0.86552 0.49879 0.98216 0.0
H1999 H 0.87302 0.52891 0.95907 0.0
H2000 H 0.93704 0.5184 0.9629 0.0
C2001 C 0.92012 0.44875 0.01205 0.0
C2002 C 0.90408 0.43662 0.02178 0.0
C2003 C 0.88416 0.44354 0.01987 0.0
C2004 C 0.88028 0.46156 1.00818 0.0
C2005 C 0.89646 0.47292 0.99864 0.0
C2006 C 0.91604 0.46682 1.00074 0.0
C2007 C 0.9309 0.48176 0.98932 0.0
C2008 C 0.94529 0.49232 1.00505 0.0
C2009 C 0.94273 0.47057 0.97174 0.0
C2010 C 0.91669 0.49718 0.9801 0.0
C2011 C 0.89686 0.49175 0.98556 0.0
C2012 C 0.88103 0.50319 0.97812 0.0
C2013 C 0.88547 0.5204 0.96492 0.0
C2014 C 0.90566 0.52655 0.95921 0.0
C2015 C 0.92144 0.51461 0.96716 0.0
H2016 H 0.08314 0.48527 0.14001 0.0
H2017 H 0.05938 0.45393 0.08494 0.0
H2018 H 0.0321 0.47843 0.08355 0.0
H2019 H 0.03131 0.50257 0.16248 0.0
H2020 H 0.04224 0.527 0.17096 0.0
H2021 H 0.05702 0.50418 0.17117 0.0
H2022 H 0.08454 0.52287 0.14793 0.0
H2023 H 0.06979 0.54558 0.1473 0.0
H2024 H 0.0778 0.53355 0.12292 0.0
H2025 H 1.01651 0.51098 0.08031 0.0
H2026 H 1.00452 0.54622 0.08146 0.0
H2027 H 0.03349 0.55687 0.14142 0.0
C2028 C 0.07141 0.48294 0.12853 0.0
C2029 C 0.07293 0.46742 0.11281 0.0
C2030 C 0.05807 0.4654 0.0973 0.0
C2031 C 0.04263 0.47935 0.09634 0.0
C2032 C 0.04222 0.49529 0.11111 0.0
C2033 C 0.05572 0.49693 0.12739 0.0
C2034 C 0.05287 0.51694 0.13971 0.0
C2035 C 0.04541 0.5124 0.16243 0.0
C2036 C 0.07242 0.53052 0.13943 0.0
C2037 C 0.03657 0.52668 0.12696 0.0
C2038 C 0.031 0.51386 0.1104 0.0
C2039 C 1.01959 0.52067 0.09389 0.0
C2040 C 1.01304 0.54081 0.09461 0.0
C2041 C 1.01708 0.55382 0.11212 0.0
C2042 C 0.02911 0.54673 0.12855 0.0
H2043 H 0.5129 0.25927 0.09988 0.0
H2044 H 0.49543 0.24996 0.16544 0.0
H2045 H 0.50468 0.28612 0.17329 0.0
H2046 H 0.55398 0.27702 0.10425 0.0
H2047 H 0.55607 0.29756 0.08505 0.0
H2048 H 0.53761 0.27735 0.08186 0.0
H2049 H 0.50955 0.3039 0.08095 0.0
H2050 H 0.52828 0.3245 0.08418 0.0
H2051 H 0.50677 0.32234 0.10213 0.0
H2052 H 0.52892 0.31368 0.17759 0.0
H2053 H 0.56452 0.32509 0.17794 0.0
H2054 H 0.56861 0.31927 0.11001 0.0
C2055 C 0.51035 0.26532 0.11565 0.0
C2056 C 0.5041 0.25202 0.13214 0.0
C2057 C 0.5005 0.26001 0.15261 0.0
C2058 C 0.50546 0.28067 0.15711 0.0
C2059 C 0.51394 0.29307 0.14095 0.0
C2060 C 0.5157 0.28581 0.1203 0.0
C2061 C 0.5299 0.29954 0.10711 0.0
C2062 C 0.54531 0.2871 0.0939 0.0
C2063 C 0.5179 0.3134 0.09276 0.0
C2064 C 0.53952 0.31218 0.12454 0.0
C2065 C 0.52877 0.3098 0.14358 0.0
C2066 C 0.53709 0.31614 0.16275 0.0
C2067 C 0.55744 0.32255 0.16286 0.0
C2068 C 0.5691 0.32226 0.14393 0.0
C2069 C 0.55964 0.31925 0.12453 0.0
H2070 H 0.85458 0.78597 0.40295 0.0
H2071 H 0.83918 0.74901 0.34798 0.0
H2072 H 0.80744 0.76807 0.34512 0.0
H2073 H 0.80494 0.78711 0.42592 0.0
H2074 H 0.80796 0.81319 0.43565 0.0
H2075 H 0.82965 0.79742 0.43241 0.0
H2076 H 0.84708 0.82526 0.40837 0.0
H2077 H 0.82544 0.84113 0.41156 0.0
H2078 H 0.8343 0.83405 0.38545 0.0
H2079 H 0.77686 0.79325 0.34817 0.0
H2080 H 0.75107 0.81874 0.35803 0.0
H2081 H 0.78545 0.83667 0.41282 0.0
C2082 C 0.84477 0.7819 0.39005 0.0
C2083 C 0.84994 0.76597 0.37541 0.0
C2084 C 0.83605 0.7612 0.35921 0.0
C2085 C 0.81785 0.77199 0.35754 0.0
C2086 C 0.81332 0.78751 0.37232 0.0
C2087 C 0.82647 0.79227 0.38836 0.0
C2088 C 0.81811 0.80906 0.40275 0.0
C2089 C 0.81498 0.80122 0.42553 0.0
C2090 C 0.83206 0.82853 0.40199 0.0
C2091 C 0.798 0.81297 0.39261 0.0
C2092 C 0.79561 0.80071 0.37481 0.0
C2093 C 0.77864 0.80259 0.36226 0.0
C2094 C 0.76396 0.81715 0.368 0.0
C2095 C 0.7658 0.82947 0.38651 0.0
C2096 C 0.78317 0.82715 0.39891 0.0
H2097 H 0.26821 0.11833 0.63847 0.0
H2098 H 0.31586 0.08848 0.67107 0.0
H2099 H 0.30053 0.05428 0.66226 0.0
H2100 H 0.2277 0.08296 0.65228 0.0
H2101 H 0.21616 0.0834 0.6268 0.0
H2102 H 0.23074 0.10554 0.63583 0.0
H2103 H 0.25349 0.10428 0.60201 0.0
H2104 H 0.23894 0.08219 0.59278 0.0
H2105 H 0.26589 0.08077 0.59519 0.0
H2106 H 0.27785 0.02339 0.65287 0.0
H2107 H 0.25261 0.99804 0.63895 0.0
H2108 H 0.2221 0.04769 0.60883 0.0
C2109 C 0.27535 0.10455 0.6437 0.0
C2110 C 0.29307 0.10597 0.65563 0.0
C2111 C 0.30225 0.08767 0.66194 0.0
C2112 C 0.29362 0.06819 0.65706 0.0
C2113 C 0.27605 0.06725 0.64539 0.0
C2114 C 0.26726 0.08493 0.63838 0.0
C2115 C 0.24887 0.07959 0.62539 0.0
C2116 C 0.22974 0.08839 0.6357 0.0
C2117 C 0.25199 0.08715 0.60249 0.0
C2118 C 0.24846 0.0562 0.62654 0.0
C2119 C 0.26408 0.04938 0.63843 0.0
C2120 C 0.26586 0.02851 0.64308 0.0
C2121 C 0.25144 1.01422 0.63516 0.0
C2122 C 0.23572 0.02081 0.62236 0.0
C2123 C 0.23431 0.0421 0.61803 0.0
H2124 H 0.48604 0.51589 0.38115 0.0
H2125 H 0.50848 0.55864 0.42854 0.0
H2126 H 0.54239 0.54439 0.4247 0.0
H2127 H 0.51009 0.47431 0.40059 0.0
H2128 H 0.51559 0.46217 0.37552 0.0
H2129 H 0.49449 0.4787 0.37823 0.0
H2130 H 0.50878 0.50113 0.34721 0.0
H2131 H 0.52998 0.48459 0.34439 0.0
H2132 H 0.53416 0.51197 0.3482 0.0
H2133 H 0.57134 0.52184 0.42106 0.0
H2134 H 0.59354 0.49207 0.41798 0.0
H2135 H 0.55327 0.46335 0.37282 0.0
C2136 C 0.49839 0.52268 0.39001 0.0
C2137 C 0.49503 0.53871 0.40467 0.0
C2138 C 0.51108 0.5467 0.41686 0.0
C2139 C 0.53034 0.5387 0.41476 0.0
C2140 C 0.53321 0.52251 0.40057 0.0
C2141 C 0.5177 0.51454 0.38836 0.0
C2142 C 0.52401 0.49519 0.37675 0.0
C2143 C 0.51024 0.4765 0.38317 0.0
C2144 C 0.52425 0.49843 0.3527 0.0
C2145 C 0.54522 0.49324 0.38482 0.0
C2146 C 0.55028 0.50932 0.39835 0.0
C2147 C 0.56792 0.50955 0.40994 0.0
C2148 C 0.58047 0.49267 0.40808 0.0
C2149 C 0.57544 0.47602 0.39452 0.0
C2150 C 0.55788 0.4765 0.3824 0.0
H2151 H 0.24404 0.7651 0.18585 0.0
H2152 H 0.27638 0.80924 0.14538 0.0
H2153 H 0.30401 0.78549 0.14049 0.0
H2154 H 0.292 0.73842 0.20707 0.0
H2155 H 0.27888 0.71362 0.20583 0.0
H2156 H 0.2652 0.73638 0.21262 0.0
H2157 H 0.24069 0.72805 0.1823 0.0
H2158 H 0.2545 0.70569 0.17501 0.0
H2159 H 0.25066 0.72539 0.15567 0.0
H2160 H 0.3197 0.75486 0.129 0.0
H2161 H 0.32859 0.71991 0.11822 0.0
H2162 H 0.28971 0.69426 0.16827 0.0
C2163 C 0.25771 0.77018 0.17738 0.0
C2164 C 0.25868 0.78916 0.16664 0.0
C2165 C 0.27592 0.79499 0.1543 0.0
C2166 C 0.29161 0.78155 0.15134 0.0
C2167 C 0.28968 0.76225 0.16076 0.0
C2168 C 0.27351 0.75664 0.17408 0.0
C2169 C 0.27351 0.73378 0.17908 0.0
C2170 C 0.27765 0.73035 0.20255 0.0
C2171 C 0.25367 0.7226 0.17261 0.0
C2172 C 0.29112 0.72734 0.16515 0.0
C2173 C 0.30019 0.74407 0.15481 0.0
C2174 C 0.3138 0.74174 0.13794 0.0
C2175 C 0.31876 0.72183 0.1319 0.0
C2176 C 0.31083 0.70458 0.14324 0.0
C2177 C 0.29675 0.70734 0.16003 0.0
H2178 H 0.79629 1.00906 0.41603 0.0
H2179 H 0.82501 0.02663 0.35609 0.0
H2180 H 0.81258 0.99377 0.34031 0.0
H2181 H 0.80867 0.95857 0.41552 0.0
H2182 H 0.7852 0.9482 0.42671 0.0
H2183 H 0.79333 0.97432 0.43259 0.0
H2184 H 0.75984 0.98799 0.41875 0.0
H2185 H 0.75131 0.96183 0.41342 0.0
H2186 H 0.75181 0.98077 0.39264 0.0
H2187 H 0.8027 0.9567 0.33306 0.0
H2188 H 0.78843 0.92091 0.33242 0.0
H2189 H 0.7659 0.92828 0.3969 0.0
C2190 C 0.79941 1.00632 0.39939 0.0
C2191 C 0.81169 0.02027 0.38733 0.0
C2192 C 0.81553 1.01617 0.36561 0.0
C2193 C 0.80879 0.99747 0.35657 0.0
C2194 C 0.79805 0.98335 0.36938 0.0
C2195 C 0.79277 0.98784 0.39011 0.0
C2196 C 0.78161 0.96984 0.4007 0.0
C2197 C 0.79289 0.9623 0.42001 0.0
C2198 C 0.75985 0.97544 0.40672 0.0
C2199 C 0.78212 0.95424 0.38292 0.0
C2200 C 0.79175 0.96225 0.365 0.0
C2201 C 0.79482 0.95034 0.34688 0.0
C2202 C 0.787 0.92996 0.34678 0.0
C2203 C 0.77622 0.92189 0.36468 0.0
C2204 C 0.77413 0.93409 0.38304 0.0
H2205 H 0.95897 0.25485 0.83207 0.0
H2206 H 0.94201 0.23382 0.89526 0.0
H2207 H 0.97361 0.24945 0.9088 0.0
H2208 H 1.01454 0.24966 0.83623 0.0
H2209 H 1.02004 0.27297 0.82148 0.0
H2210 H 0.99745 0.25763 0.81635 0.0
H2211 H 0.97611 0.28996 0.82325 0.0
H2212 H 0.99873 0.30506 0.82859 0.0
H2213 H 0.97838 0.30361 0.84802 0.0
H2214 H 1.00537 0.26877 0.91613 0.0
H2215 H 0.0339 0.294 0.91784 0.0
H2216 H 0.0307 0.30434 0.85035 0.0
C2217 C 0.96217 0.25317 0.84866 0.0
C2218 C 0.94816 0.24285 0.86259 0.0
C2219 C 0.95256 0.24152 0.8843 0.0
C2220 C 0.97053 0.25025 0.89211 0.0
C2221 C 0.98396 0.26041 0.87806 0.0
C2222 C 0.97998 0.26214 0.85683 0.0
C2223 C 0.99609 0.2757 0.84565 0.0
C2224 C 1.00771 0.26324 0.82893 0.0
C2225 C 0.98677 0.29471 0.83581 0.0
C2226 C 1.00946 0.2817 0.86405 0.0
C2227 C 1.0023 0.27229 0.88246 0.0
C2228 C 1.01124 0.27608 0.90182 0.0
C2229 C 1.02747 0.29043 0.90262 0.0
C2230 C 0.03463 0.30098 0.88423 0.0
C2231 C 1.02587 0.29612 0.86455 0.0
H2232 H 0.89046 1.00393 0.44904 0.0
H2233 H 0.93187 0.04637 0.48088 0.0
H2234 H 0.93538 0.02119 0.50921 0.0
H2235 H 0.86596 0.98183 0.49839 0.0
H2236 H 0.86408 0.95586 0.48815 0.0
H2237 H 0.86344 0.97749 0.4704 0.0
H2238 H 0.89331 0.96311 0.44864 0.0
H2239 H 0.89406 0.94147 0.46635 0.0
H2240 H 0.91638 0.95766 0.46169 0.0
H2241 H 0.9377 0.99085 0.53269 0.0
H2242 H 0.93718 0.95766 0.55108 0.0
H2243 H 0.89265 0.93288 0.50783 0.0
C2244 C 0.89987 1.00811 0.46224 0.0
C2245 C 0.91075 0.02765 0.46245 0.0
C2246 C 0.92327 0.03188 0.47998 0.0
C2247 C 0.92542 1.01753 0.49632 0.0
C2248 C 0.91496 0.99851 0.49549 0.0
C2249 C 0.90226 0.99367 0.47906 0.0
C2250 C 0.89343 0.97155 0.48222 0.0
C2251 C 0.87035 0.97169 0.48495 0.0
C2252 C 0.89966 0.95762 0.46361 0.0
C2253 C 0.90325 0.96486 0.5028 0.0
C2254 C 0.91569 0.98085 0.50991 0.0
C2255 C 0.92761 0.97845 0.52752 0.0
C2256 C 0.92704 0.9594 0.53811 0.0
C2257 C 0.91415 0.94258 0.53194 0.0
C2258 C 0.902 0.94552 0.51381 0.0
H2259 H 1.02594 0.68125 0.19337 0.0
H2260 H 1.02347 0.62203 0.16122 0.0
H2261 H 0.04474 0.60761 0.18905 0.0
H2262 H 0.07714 0.68007 0.20889 0.0
H2263 H 0.07227 0.69286 0.23374 0.0
H2264 H 0.05674 0.69763 0.21152 0.0
H2265 H 1.02487 0.68692 0.23409 0.0
H2266 H 0.04045 0.68194 0.25628 0.0
H2267 H 1.02343 0.66197 0.24661 0.0
H2268 H 0.06809 0.60025 0.22209 0.0
H2269 H 0.09026 0.60196 0.25345 0.0
H2270 H 0.07559 0.66606 0.26245 0.0
C2271 C 0.02971 0.66518 0.19203 0.0
C2272 C 1.02282 0.65287 0.17486 0.0
C2273 C 1.02841 0.63192 0.17408 0.0
C2274 C 0.04053 0.62357 0.18992 0.0
C2275 C 0.04702 0.63627 0.20662 0.0
C2276 C 0.04168 0.6567 0.20758 0.0
C2277 C 0.05058 0.66759 0.22663 0.0
C2278 C 0.06504 0.68559 0.21977 0.0
C2279 C 0.03383 0.67504 0.24179 0.0
C2280 C 0.06193 0.65027 0.23634 0.0
C2281 C 0.05982 0.63219 0.22484 0.0
C2282 C 0.06964 0.61442 0.2311 0.0
C2283 C 0.08213 0.61543 0.24909 0.0
C2284 C 0.08482 0.63411 0.2606 0.0
C2285 C 0.07409 0.65146 0.25412 0.0
H2286 H 0.41646 0.76613 0.96789 0.0
H2287 H 0.35487 0.74101 0.96665 0.0
H2288 H 0.34467 0.76677 0.99326 0.0
H2289 H 0.41593 0.78068 0.02549 0.0
H2290 H 0.43119 0.80375 0.02025 0.0
H2291 H 0.43423 0.78116 1.00392 0.0
H2292 H 0.42791 0.80304 0.97073 0.0
H2293 H 0.42444 0.82554 0.98696 0.0
H2294 H 0.40492 0.81695 0.96929 0.0
H2295 H 0.34005 0.79839 0.01512 0.0
H2296 H 0.34185 0.83156 0.03413 0.0
H2297 H 0.40661 0.83614 0.02188 0.0
C2298 C 0.40095 0.76556 0.97372 0.0
C2299 C 0.38648 0.75148 0.96517 0.0
C2300 C 0.3663 0.75146 0.97306 0.0
C2301 C 0.36033 0.76613 0.98812 0.0
C2302 C 0.37477 0.78046 0.99535 0.0
C2303 C 0.39477 0.78003 0.98876 0.0
C2304 C 0.40699 0.79808 0.99781 0.0
C2305 C 0.42303 0.79046 0.01276 0.0
C2306 C 0.41662 0.8117 0.98014 0.0
C2307 C 0.39057 0.80918 1.00984 0.0
C2308 C 0.37214 0.79868 1.00828 0.0
C2309 C 0.35445 0.80656 0.01677 0.0
C2310 C 0.35562 0.82556 0.02735 0.0
C2311 C 0.37437 0.83651 0.02944 0.0
C2312 C 0.39209 0.82809 0.02065 0.0
H2313 H 0.20109 0.66978 0.0361 0.0
H2314 H 0.21538 0.62873 0.9839 0.0
H2315 H 0.24548 0.61761 1.00262 0.0
H2316 H 0.25082 0.68684 0.04504 0.0
H2317 H 0.24747 0.68854 0.07334 0.0
H2318 H 0.22627 0.69154 0.05659 0.0
H2319 H 0.20663 0.66201 0.07654 0.0
H2320 H 0.22782 0.65887 0.09337 0.0
H2321 H 0.21772 0.63714 0.07867 0.0
H2322 H 0.27593 0.61285 0.02684 0.0
H2323 H 0.30333 0.61636 0.05306 0.0
H2324 H 0.26798 0.66033 0.08838 0.0
C2325 C 0.2103 0.65817 0.0287 0.0
C2326 C 0.20574 0.65006 1.00856 0.0
C2327 C 0.21849 0.63515 0.99937 0.0
C2328 C 0.23562 0.62869 1.0099 0.0
C2329 C 0.2398 0.63722 0.02967 0.0
C2330 C 0.22741 0.65165 0.03891 0.0
C2331 C 0.23566 0.65957 0.05956 0.0
C2332 C 0.24033 0.683 0.05856 0.0
C2333 C 0.22109 0.65406 0.07813 0.0
C2334 C 0.25474 0.64754 0.06048 0.0
C2335 C 0.25696 0.63456 0.04327 0.0
C2336 C 0.27415 0.62275 0.04053 0.0
C2337 C 0.28957 0.62466 0.05553 0.0
C2338 C 0.28763 0.63842 0.07279 0.0
C2339 C 0.26979 0.64954 0.07539 0.0
H2340 H 0.35969 1.00962 0.85774 0.0
H2341 H 0.42059 0.0361 0.85829 0.0
H2342 H 0.42869 1.01723 0.825 0.0
H2343 H 0.3694 0.96004 0.83702 0.0
H2344 H 0.34785 0.95885 0.82019 0.0
H2345 H 0.34724 0.97418 0.84397 0.0
H2346 H 0.33977 1.00755 0.82201 0.0
H2347 H 0.33881 0.99084 0.79917 0.0
H2348 H 0.35543 1.01346 0.79915 0.0
H2349 H 0.42998 0.99388 0.7912 0.0
H2350 H 0.42383 0.97112 0.76029 0.0
H2351 H 0.36137 0.9618 0.78121 0.0
C2352 C 0.37479 1.01141 0.85095 0.0
C2353 C 0.3896 0.02419 0.86097 0.0
C2354 C 0.40901 0.02637 0.85113 0.0
C2355 C 0.41373 1.01565 0.83218 0.0
C2356 C 0.39876 1.00311 0.8228 0.0
C2357 C 0.37956 1.00131 0.83177 0.0
C2358 C 0.36577 0.98785 0.81813 0.0
C2359 C 0.35706 0.96912 0.83058 0.0
C2360 C 0.34893 1.00065 0.80909 0.0
C2361 C 0.38036 0.9814 0.80063 0.0
C2362 C 0.39931 0.99049 0.8034 0.0
C2363 C 0.41513 0.98685 0.78897 0.0
C2364 C 0.41148 0.97382 0.77136 0.0
C2365 C 0.39208 0.9645 0.76804 0.0
C2366 C 0.37641 0.96852 0.78307 0.0
H2367 H 1.0209 0.11375 0.55257 0.0
H2368 H 0.03326 0.17239 0.58393 0.0
H2369 H 0.06427 0.1774 0.56202 0.0
H2370 H 0.07271 0.09826 0.54783 0.0
H2371 H 0.07022 0.0868 0.52198 0.0
H2372 H 0.04858 0.08772 0.53972 0.0
H2373 H 0.02907 0.10636 0.51118 0.0
H2374 H 0.05067 0.10611 0.4933 0.0
H2375 H 0.03936 0.13018 0.50021 0.0
H2376 H 0.0949 0.17603 0.53737 0.0
H2377 H 0.12219 0.1687 0.5116 0.0
H2378 H 0.09107 0.11113 0.49477 0.0
C2379 C 0.03001 0.12774 0.55474 0.0
C2380 C 1.02423 0.14272 0.57021 0.0
C2381 C 0.03696 0.16066 0.57236 0.0
C2382 C 0.05477 0.16366 0.55992 0.0
C2383 C 0.06005 0.14866 0.54505 0.0
C2384 C 0.04802 0.13105 0.5423 0.0
C2385 C 0.05742 0.11737 0.52514 0.0
C2386 C 0.06253 0.09629 0.53421 0.0
C2387 C 0.04329 0.11484 0.50634 0.0
C2388 C 0.07663 0.12993 0.51889 0.0
C2389 C 0.07774 0.14794 0.53064 0.0
C2390 C 0.09408 0.16198 0.52808 0.0
C2391 C 0.10965 0.15762 0.51329 0.0
C2392 C 0.10913 0.1393 0.50088 0.0
C2393 C 0.09215 0.12532 0.50382 0.0
H2394 H 0.56063 0.92498 0.94475 0.0
H2395 H 0.57451 0.86042 0.93808 0.0
H2396 H 0.54957 0.85136 0.96635 0.0
H2397 H 0.54872 0.92423 1.00347 0.0
H2398 H 0.52825 0.94147 1.00052 0.0
H2399 H 0.55 0.94336 0.98286 0.0
H2400 H 0.52648 0.93925 0.95085 0.0
H2401 H 0.50477 0.93702 0.96838 0.0
H2402 H 0.50955 0.91695 0.94928 0.0
H2403 H 0.52034 0.84862 0.99163 0.0
H2404 H 0.489 0.85271 0.01304 0.0
H2405 H 0.49344 0.91887 1.00233 0.0
C2406 C 0.55902 0.90911 0.94998 0.0
C2407 C 0.56968 0.89342 0.93967 0.0
C2408 C 0.56661 0.87265 0.94611 0.0
C2409 C 0.55251 0.86736 0.96213 0.0
C2410 C 0.54159 0.88304 0.97147 0.0
C2411 C 0.54475 0.90353 0.96579 0.0
C2412 C 0.5294 0.91702 0.97656 0.0
C2413 C 0.53971 0.93243 0.99176 0.0
C2414 C 0.51681 0.9282 0.9603 0.0
C2415 C 0.51679 0.90081 0.98851 0.0
C2416 C 0.52423 0.88136 0.98565 0.0
C2417 C 0.51449 0.86381 0.99428 0.0
C2418 C 0.49667 0.86625 1.00629 0.0
C2419 C 0.48877 0.88605 1.00927 0.0
C2420 C 0.49908 0.90349 1.00034 0.0
H2421 H 0.77661 0.85525 0.48102 0.0
H2422 H 0.75187 0.9163 0.47852 0.0
H2423 H 0.76225 0.92284 0.51526 0.0
H2424 H 0.76496 0.84204 0.53496 0.0
H2425 H 0.78893 0.83069 0.53856 0.0
H2426 H 0.77807 0.83078 0.51275 0.0
H2427 H 0.81088 0.84898 0.49764 0.0
H2428 H 0.82127 0.84851 0.5235 0.0
H2429 H 0.82013 0.87261 0.50975 0.0
H2430 H 0.77579 0.92286 0.55166 0.0
H2431 H 0.79927 0.92012 0.58104 0.0
H2432 H 0.8139 0.85867 0.56013 0.0
C2433 C 0.77333 0.87001 0.48815 0.0
C2434 C 0.76317 0.88515 0.47709 0.0
C2435 C 0.75959 0.90445 0.48681 0.0
C2436 C 0.76527 0.90824 0.50768 0.0
C2437 C 0.77469 0.89267 0.51837 0.0
C2438 C 0.77904 0.87411 0.50878 0.0
C2439 C 0.79101 0.8607 0.52288 0.0
C2440 C 0.78005 0.83985 0.52754 0.0
C2441 C 0.81207 0.85755 0.51283 0.0
C2442 C 0.79201 0.87425 0.54238 0.0
C2443 C 0.7823 0.89255 0.53952 0.0
C2444 C 0.78327 0.90856 0.55424 0.0
C2445 C 0.79624 0.9067 0.57118 0.0
C2446 C 0.80809 0.88911 0.57285 0.0
C2447 C 0.80443 0.87194 0.55959 0.0
H2448 H 0.17267 0.51707 0.16101 0.0
H2449 H 0.13958 0.45855 0.16916 0.0
H2450 H 0.12328 0.47199 0.20182 0.0
H2451 H 0.18303 0.5254 0.21444 0.0
H2452 H 0.1805 0.55294 0.21311 0.0
H2453 H 0.18817 0.53885 0.18992 0.0
H2454 H 0.15849 0.55355 0.16951 0.0
H2455 H 0.15057 0.56757 0.19274 0.0
H2456 H 0.13304 0.54999 0.17992 0.0
H2457 H 0.11202 0.49205 0.23529 0.0
H2458 H 0.10887 0.51579 0.26624 0.0
H2459 H 0.14915 0.56025 0.23433 0.0
C2460 C 0.16185 0.50705 0.16946 0.0
C2461 C 0.15743 0.48674 0.16249 0.0
C2462 C 0.14328 0.47417 0.17423 0.0
C2463 C 0.13385 0.48171 0.19274 0.0
C2464 C 0.13866 0.50186 0.19918 0.0
C2465 C 0.15238 0.51428 0.18781 0.0
C2466 C 0.15593 0.53494 0.19833 0.0
C2467 C 0.17822 0.5382 0.20431 0.0
C2468 C 0.14909 0.55255 0.18429 0.0
C2469 C 0.1423 0.53221 0.21762 0.0
C2470 C 0.13224 0.51317 0.21794 0.0
C2471 C 0.11963 0.50709 0.23505 0.0
C2472 C 0.11776 0.52066 0.25245 0.0
C2473 C 0.12863 0.5398 0.25245 0.0
C2474 C 0.14054 0.54572 0.2346 0.0
H2475 H 0.46407 0.90969 0.80224 0.0
H2476 H 0.50245 0.95117 0.76433 0.0
H2477 H 0.53046 0.94636 0.7889 0.0
H2478 H 0.48681 0.9214 0.85551 0.0
H2479 H 0.48411 0.8946 0.86283 0.0
H2480 H 0.466 0.90573 0.84585 0.0
H2481 H 0.47267 0.87724 0.81795 0.0
H2482 H 0.49107 0.86623 0.83445 0.0
H2483 H 0.49804 0.87397 0.80788 0.0
H2484 H 0.55571 0.93102 0.81288 0.0
H2485 H 0.57538 0.90892 0.83574 0.0
H2486 H 0.52001 0.87682 0.85698 0.0
C2487 C 0.47806 0.91861 0.7998 0.0
C2488 C 0.48114 0.93111 0.7818 0.0
C2489 C 0.49974 0.94205 0.77848 0.0
C2490 C 0.51573 0.93922 0.79224 0.0
C2491 C 0.51259 0.92562 0.80917 0.0
C2492 C 0.49404 0.91579 0.81318 0.0
C2493 C 0.49507 0.89975 0.83031 0.0
C2494 C 0.48224 0.90573 0.84979 0.0
C2495 C 0.48886 0.87803 0.82214 0.0
C2496 C 0.5173 0.90139 0.83476 0.0
C2497 C 0.52715 0.91653 0.82266 0.0
C2498 C 0.54807 0.91948 0.82277 0.0
C2499 C 0.55911 0.90672 0.83567 0.0
C2500 C 0.5492 0.89117 0.84819 0.0
C2501 C 0.52802 0.88868 0.84777 0.0
H2502 H 0.16952 0.31364 0.57814 0.0
H2503 H 0.19725 0.27403 0.62292 0.0
H2504 H 0.20255 0.248 0.59464 0.0
H2505 H 0.14247 0.27619 0.54979 0.0
H2506 H 0.14706 0.28819 0.52439 0.0
H2507 H 0.14718 0.30367 0.548 0.0
H2508 H 0.18409 0.31752 0.53821 0.0
H2509 H 0.18266 0.30234 0.51426 0.0
H2510 H 0.20315 0.29931 0.53206 0.0
H2511 H 0.20362 0.22609 0.56171 0.0
H2512 H 0.19614 0.20784 0.52826 0.0
H2513 H 0.16659 0.26155 0.50535 0.0
C2514 C 0.17679 0.2996 0.58187 0.0
C2515 C 0.18304 0.29577 0.6025 0.0
C2516 C 0.19243 0.27713 0.60705 0.0
C2517 C 0.19562 0.2624 0.59109 0.0
C2518 C 0.1895 0.26677 0.57071 0.0
C2519 C 0.18016 0.28487 0.5661 0.0
C2520 C 0.17415 0.28544 0.54321 0.0
C2521 C 0.15136 0.28854 0.54125 0.0
C2522 C 0.18674 0.30214 0.53118 0.0
C2523 C 0.18004 0.26417 0.53605 0.0
C2524 C 0.18971 0.254 0.55188 0.0
C2525 C 0.19628 0.23398 0.54916 0.0
C2526 C 0.19212 0.22382 0.53009 0.0
C2527 C 0.18116 0.23355 0.5143 0.0
C2528 C 0.17541 0.25408 0.51708 0.0
H2529 H 0.15127 0.50584 0.08181 0.0
H2530 H 0.15618 0.45613 0.03617 0.0
H2531 H 0.16961 0.4813 1.00922 0.0
H2532 H 0.13337 0.54229 0.04662 0.0
H2533 H 0.14633 0.5637 0.05933 0.0
H2534 H 0.13886 0.54116 0.07434 0.0
H2535 H 0.17606 0.53791 0.0856 0.0
H2536 H 0.18371 0.5601 0.06994 0.0
H2537 H 0.19574 0.5359 0.06561 0.0
H2538 H 0.18349 0.51264 0.98803 0.0
H2539 H 0.18663 0.54731 0.97169 0.0
H2540 H 0.16996 0.57524 0.03151 0.0
C2541 C 0.15512 0.50027 0.06608 0.0
C2542 C 0.15282 0.47928 0.06085 0.0
C2543 C 0.15774 0.47235 0.04021 0.0
C2544 C 0.1657 0.48643 0.02505 0.0
C2545 C 0.16849 0.5071 0.03105 0.0
C2546 C 0.16281 0.51397 0.05096 0.0
C2547 C 0.16517 0.53703 0.05317 0.0
C2548 C 0.14472 0.5466 0.05866 0.0
C2549 C 0.18112 0.54308 0.06955 0.0
C2550 C 0.17255 0.54235 0.03113 0.0
C2551 C 0.17515 0.52493 0.01875 0.0
C2552 C 0.18125 0.52633 0.99753 0.0
C2553 C 0.1831 0.54601 0.9884 0.0
C2554 C 0.17809 0.56359 1.0004 0.0
C2555 C 0.17399 0.56187 0.02218 0.0
H2556 H 0.04642 0.46164 0.86914 0.0
H2557 H 0.09146 0.49694 0.90365 0.0
H2558 H 0.06866 0.52622 0.90632 0.0
H2559 H 1.02213 0.50611 0.84166 0.0
H2560 H 0.9973 0.49436 0.8458 0.0
H2561 H 1.01882 0.47839 0.84202 0.0
H2562 H 1.00977 0.45982 0.87748 0.0
H2563 H 0.98837 0.4758 0.88118 0.0
H2564 H 1.00712 0.47495 0.90127 0.0
H2565 H 0.0393 0.5473 0.91267 0.0
H2566 H 1.00555 0.56085 0.9198 0.0
H2567 H 0.97879 0.51325 0.88025 0.0
C2568 C 0.0518 0.47604 0.87611 0.0
C2569 C 0.07087 0.4776 0.88547 0.0
C2570 C 0.07712 0.49597 0.89581 0.0
C2571 C 0.06424 0.51256 0.89744 0.0
C2572 C 0.04514 0.51035 0.88878 0.0
C2573 C 0.03893 0.49264 0.87813 0.0
C2574 C 1.01665 0.49296 0.87322 0.0
C2575 C 1.01355 0.49297 0.84925 0.0
C2576 C 1.0048 0.47482 0.88392 0.0
C2577 C 1.01123 0.51339 0.88321 0.0
C2578 C 1.02795 0.52313 0.89204 0.0
C2579 C 1.0263 0.54049 0.90493 0.0
C2580 C 1.00714 0.54815 0.90883 0.0
C2581 C 0.98998 0.53876 0.8996 0.0
C2582 C 0.99197 0.52124 0.88655 0.0
H2583 H 0.5347 0.80273 0.84964 0.0
H2584 H 0.54142 0.78754 0.91569 0.0
H2585 H 0.51198 0.7634 0.91409 0.0
H2586 H 0.48232 0.80368 0.85094 0.0
H2587 H 0.47818 0.79199 0.82543 0.0
H2588 H 0.50156 0.80595 0.83035 0.0
H2589 H 0.52147 0.77404 0.81939 0.0
H2590 H 0.49829 0.75957 0.81456 0.0
H2591 H 0.51628 0.7498 0.83257 0.0
H2592 H 0.47918 0.74546 0.90748 0.0
H2593 H 0.44663 0.7312 0.89482 0.0
H2594 H 0.46074 0.7559 0.83239 0.0
C2595 C 0.53044 0.79365 0.86346 0.0
C2596 C 0.54055 0.79682 0.88276 0.0
C2597 C 0.53404 0.78523 0.90073 0.0
C2598 C 0.51727 0.77151 0.89999 0.0
C2599 C 0.50708 0.76935 0.8811 0.0
C2600 C 0.51354 0.77976 0.86299 0.0
C2601 C 0.49891 0.77542 0.84517 0.0
C2602 C 0.4897 0.79545 0.83753 0.0
C2603 C 0.50935 0.76403 0.82683 0.0
C2604 C 0.48307 0.76148 0.85633 0.0
C2605 C 0.48815 0.75827 0.87706 0.0
C2606 C 0.47525 0.74742 0.89113 0.0
C2607 C 0.45673 0.73947 0.88384 0.0
C2608 C 0.45127 0.74215 0.86258 0.0
C2609 C 0.46474 0.75319 0.84861 0.0
H2610 H 0.30601 0.21839 0.6175 0.0
H2611 H 0.31016 0.1985 0.68256 0.0
H2612 H 0.29245 0.22922 0.69476 0.0
H2613 H 0.30905 0.2751 0.62703 0.0
H2614 H 0.29013 0.27969 0.60782 0.0
H2615 H 0.30644 0.25828 0.60426 0.0
H2616 H 0.27564 0.23301 0.60192 0.0
H2617 H 0.25908 0.25417 0.60525 0.0
H2618 H 0.25685 0.23253 0.62302 0.0
H2619 H 0.26982 0.25926 0.69948 0.0
H2620 H 0.24409 0.28584 0.69559 0.0
H2621 H 0.25552 0.28532 0.62768 0.0
C2622 C 0.30382 0.22093 0.63433 0.0
C2623 C 0.30958 0.20631 0.64907 0.0
C2624 C 0.30593 0.20968 0.67098 0.0
C2625 C 0.29596 0.22711 0.67811 0.0
C2626 C 0.28978 0.24095 0.66311 0.0
C2627 C 0.29362 0.23807 0.64168 0.0
C2628 C 0.28299 0.25348 0.62864 0.0
C2629 C 0.29809 0.26749 0.61621 0.0
C2630 C 0.26774 0.24265 0.61386 0.0
C2631 C 0.27253 0.26526 0.64602 0.0
C2632 C 0.2766 0.25803 0.66585 0.0
C2633 C 0.26685 0.26543 0.68405 0.0
C2634 C 0.25231 0.28046 0.68175 0.0
C2635 C 0.24786 0.28763 0.6614 0.0
C2636 C 0.25858 0.2803 0.64354 0.0
H2637 H 0.52404 0.55308 0.59282 0.0
H2638 H 0.51778 0.56631 0.65986 0.0
H2639 H 0.53791 0.53574 0.66767 0.0
H2640 H 0.52191 0.49749 0.59611 0.0
H2641 H 0.54073 0.49434 0.57541 0.0
H2642 H 0.52442 0.51599 0.57506 0.0
H2643 H 0.55487 0.54182 0.57368 0.0
H2644 H 0.57164 0.52066 0.57316 0.0
H2645 H 0.57412 0.54039 0.59318 0.0
H2646 H 0.56279 0.50593 0.66707 0.0
H2647 H 0.58832 0.47985 0.65814 0.0
H2648 H 0.57613 0.48747 0.59159 0.0
C2649 C 0.52664 0.54945 0.60921 0.0
C2650 C 0.51955 0.56201 0.62575 0.0
C2651 C 0.52311 0.55671 0.64697 0.0
C2652 C 0.53449 0.53943 0.65152 0.0
C2653 C 0.54181 0.52766 0.63464 0.0
C2654 C 0.53778 0.53246 0.61393 0.0
C2655 C 0.54829 0.51864 0.59836 0.0
C2656 C 0.53294 0.50584 0.58548 0.0
C2657 C 0.5631 0.53113 0.58376 0.0
C2658 C 0.55928 0.50546 0.61347 0.0
C2659 C 0.55546 0.51066 0.63435 0.0
C2660 C 0.56553 0.50143 0.65079 0.0
C2661 C 0.57997 0.48667 0.64562 0.0
C2662 C 0.58408 0.48151 0.62422 0.0
C2663 C 0.5733 0.49087 0.60816 0.0
H2664 H 0.8409 0.26951 0.91085 0.0
H2665 H 0.84538 0.25953 0.84314 0.0
H2666 H 0.81508 0.28061 0.83871 0.0
H2667 H 0.78531 0.26635 0.9143 0.0
H2668 H 0.78442 0.2852 0.93528 0.0
H2669 H 0.80586 0.26901 0.9324 0.0
H2670 H 0.82898 0.30175 0.9309 0.0
H2671 H 0.80771 0.31814 0.93287 0.0
H2672 H 0.8255 0.32097 0.91094 0.0
H2673 H 0.78464 0.30543 0.84216 0.0
H2674 H 0.75715 0.32848 0.85282 0.0
H2675 H 0.77162 0.32027 0.91861 0.0
C2676 C 0.83561 0.27173 0.89499 0.0
C2677 C 0.84597 0.26297 0.87726 0.0
C2678 C 0.838 0.26604 0.85697 0.0
C2679 C 0.82073 0.27807 0.85435 0.0
C2680 C 0.81112 0.28666 0.8722 0.0
C2681 C 0.81819 0.28327 0.89218 0.0
C2682 C 0.80507 0.2937 0.90894 0.0
C2683 C 0.79455 0.2776 0.92361 0.0
C2684 C 0.81756 0.30962 0.92165 0.0
C2685 C 0.78978 0.30411 0.89539 0.0
C2686 C 0.79345 0.29988 0.87421 0.0
C2687 C 0.78162 0.30848 0.85875 0.0
C2688 C 0.76589 0.32161 0.865 0.0
C2689 C 0.76168 0.32611 0.88665 0.0
C2690 C 0.77391 0.31695 0.90195 0.0
H2691 H 0.06979 0.81249 0.11827 0.0
H2692 H 0.0692 0.81954 0.18614 0.0
H2693 H 0.03292 0.81101 0.18771 0.0
H2694 H 1.00971 0.82028 0.11201 0.0
H2695 H 1.00869 0.79986 0.09261 0.0
H2696 H 0.0298 0.81822 0.09274 0.0
H2697 H 0.05545 0.79026 0.0951 0.0
H2698 H 0.03563 0.77126 0.09342 0.0
H2699 H 0.05252 0.77076 0.11535 0.0
H2700 H 1.00597 0.78575 0.18518 0.0
H2701 H 0.99265 0.75036 0.17853 0.0
H2702 H 1.00986 0.75616 0.11259 0.0
C2703 C 0.06153 0.81322 0.13321 0.0
C2704 C 0.07198 0.81563 0.15205 0.0
C2705 C 0.06129 0.81722 0.17149 0.0
C2706 C 0.04058 0.81253 0.17247 0.0
C2707 C 0.03107 0.80644 0.15388 0.0
C2708 C 0.04106 0.80771 0.13427 0.0
C2709 C 0.03011 0.79506 0.11772 0.0
C2710 C 1.01887 0.80917 0.10293 0.0
C2711 C 0.04428 0.78099 0.10475 0.0
C2712 C 1.01551 0.78295 0.13197 0.0
C2713 C 1.01508 0.79078 0.15241 0.0
C2714 C 1.00572 0.77982 0.16917 0.0
C2715 C 0.9983 0.75972 0.16538 0.0
C2716 C 1.00075 0.75099 0.14514 0.0
C2717 C 1.00806 0.76303 0.12811 0.0
H2718 H 0.96884 0.90544 0.29464 0.0
H2719 H 1.00889 0.94497 0.2564 0.0
H2720 H 0.03617 0.94052 0.28201 0.0
H2721 H 0.98959 0.9203 0.34783 0.0
H2722 H 0.98617 0.89411 0.35704 0.0
H2723 H 0.96903 0.90416 0.3383 0.0
H2724 H 0.97655 0.87369 0.31299 0.0
H2725 H 0.99399 0.86373 0.3313 0.0
H2726 H 1.00226 0.86945 0.30455 0.0
H2727 H 0.0602 0.92657 0.30832 0.0
H2728 H 0.07848 0.90647 0.33428 0.0
H2729 H 1.02201 0.87596 0.3547 0.0
C2730 C 0.9831 0.91391 0.29225 0.0
C2731 C 0.98686 0.92587 0.274 0.0
C2732 C 1.00574 0.93626 0.27074 0.0
C2733 C 1.02127 0.93367 0.2851 0.0
C2734 C 1.01735 0.92092 0.30258 0.0
C2735 C 0.99856 0.91153 0.30637 0.0
C2736 C 0.99864 0.89679 0.32477 0.0
C2737 C 0.98505 0.9043 0.34307 0.0
C2738 C 0.99251 0.87462 0.31798 0.0
C2739 C 1.02062 0.89861 0.33024 0.0
C2740 C 0.03117 0.91275 0.31749 0.0
C2741 C 0.05201 0.91579 0.31867 0.0
C2742 C 0.06227 0.90418 0.33334 0.0
C2743 C 0.05164 0.88965 0.34654 0.0
C2744 C 0.03055 0.88704 0.34498 0.0
H2745 H 0.65916 0.79164 0.59807 0.0
H2746 H 0.72073 0.81469 0.58665 0.0
H2747 H 0.72022 0.79981 0.55068 0.0
H2748 H 0.66388 0.74442 0.57354 0.0
H2749 H 0.63913 0.74341 0.56233 0.0
H2750 H 0.64355 0.75812 0.58601 0.0
H2751 H 0.63061 0.79085 0.56801 0.0
H2752 H 0.62606 0.77608 0.54427 0.0
H2753 H 0.64187 0.79926 0.54315 0.0
H2754 H 0.71443 0.77804 0.51758 0.0
H2755 H 0.7036 0.75204 0.49094 0.0
H2756 H 0.64541 0.74526 0.52362 0.0
C2757 C 0.67247 0.79383 0.58794 0.0
C2758 C 0.69004 0.8042 0.59532 0.0
C2759 C 0.7071 0.8067 0.58146 0.0
C2760 C 0.70692 0.79839 0.56092 0.0
C2761 C 0.68949 0.78784 0.5543 0.0
C2762 C 0.6725 0.78578 0.56737 0.0
C2763 C 0.65611 0.7727 0.55709 0.0
C2764 C 0.65035 0.75353 0.57054 0.0
C2765 C 0.63756 0.78549 0.55288 0.0
C2766 C 0.66684 0.76692 0.53664 0.0
C2767 C 0.686 0.77595 0.5351 0.0
C2768 C 0.69928 0.77124 0.5184 0.0
C2769 C 0.69299 0.7565 0.50327 0.0
C2770 C 0.67361 0.74663 0.50503 0.0
C2771 C 0.66026 0.75259 0.52157 0.0
H2772 H 0.80752 0.39045 0.71417 0.0
H2773 H 0.80869 0.45697 0.71156 0.0
H2774 H 0.77372 0.45708 0.72493 0.0
H2775 H 0.74521 0.38398 0.71245 0.0
H2776 H 0.74723 0.36249 0.73017 0.0
H2777 H 0.76551 0.36644 0.70887 0.0
H2778 H 0.7939 0.36569 0.73613 0.0
H2779 H 0.77584 0.36246 0.75723 0.0
H2780 H 0.7939 0.38394 0.75781 0.0
H2781 H 0.75003 0.45219 0.75357 0.0
H2782 H 0.73678 0.44207 0.78891 0.0
H2783 H 0.7506 0.37867 0.77574 0.0
C2784 C 0.79967 0.40479 0.71511 0.0
C2785 C 0.81049 0.4236 0.71241 0.0
C2786 C 0.80043 0.44236 0.71361 0.0
C2787 C 0.78049 0.44252 0.72121 0.0
C2788 C 0.77099 0.42378 0.72711 0.0
C2789 C 0.7799 0.40501 0.72313 0.0
C2790 C 0.76931 0.3877 0.73551 0.0
C2791 C 0.75601 0.37438 0.72088 0.0
C2792 C 0.78414 0.37425 0.74738 0.0
C2793 C 0.75646 0.40027 0.75035 0.0
C2794 C 0.75654 0.42082 0.74439 0.0
C2795 C 0.74908 0.43605 0.75788 0.0
C2796 C 0.74178 0.43029 0.77796 0.0
C2797 C 0.74294 0.4097 0.78452 0.0
C2798 C 0.74953 0.39445 0.77048 0.0
H2799 H 0.11005 0.70817 0.26784 0.0
H2800 H 0.1593 0.72847 0.30728 0.0
H2801 H 0.16841 0.75649 0.28189 0.0
H2802 H 0.13681 0.7114 0.22199 0.0
H2803 H 0.1168 0.71973 0.20563 0.0
H2804 H 0.11084 0.70505 0.22912 0.0
H2805 H 0.08789 0.73385 0.24321 0.0
H2806 H 0.09345 0.74845 0.21949 0.0
H2807 H 0.09791 0.76001 0.245 0.0
H2808 H 0.1751 0.77881 0.24929 0.0
H2809 H 0.17739 0.79477 0.2138 0.0
H2810 H 0.12537 0.75704 0.19496 0.0
C2811 C 0.1219 0.7194 0.27175 0.0
C2812 C 0.13342 0.71691 0.28992 0.0
C2813 C 0.14979 0.73083 0.29389 0.0
C2814 C 0.15519 0.74658 0.2794 0.0
C2815 C 0.14424 0.74788 0.26093 0.0
C2816 C 0.12774 0.73478 0.25721 0.0
C2817 C 0.12012 0.73738 0.23507 0.0
C2818 C 0.12122 0.71719 0.22222 0.0
C2819 C 0.09856 0.74541 0.23574 0.0
C2820 C 0.13521 0.75355 0.22668 0.0
C2821 C 0.14885 0.75967 0.24182 0.0
C2822 C 0.16442 0.77418 0.23736 0.0
C2823 C 0.16577 0.78297 0.21705 0.0
C2824 C 0.15177 0.77702 0.20137 0.0
C2825 C 0.1365 0.7619 0.20639 0.0
H2826 H 0.666 0.47358 0.67739 0.0
H2827 H 0.64559 0.51773 0.63215 0.0
H2828 H 0.62722 0.53584 0.66078 0.0
H2829 H 0.61882 0.47558 0.7156 0.0
H2830 H 0.63631 0.47072 0.73619 0.0
H2831 H 0.64057 0.46095 0.70969 0.0
H2832 H 0.67741 0.48156 0.71379 0.0
H2833 H 0.6688 0.49184 0.73874 0.0
H2834 H 0.67696 0.50903 0.71766 0.0
H2835 H 0.6125 0.55035 0.69477 0.0
H2836 H 0.60757 0.56327 0.73137 0.0
H2837 H 0.64052 0.51206 0.7549 0.0
C2838 C 0.65732 0.48682 0.67351 0.0
C2839 C 0.65708 0.49416 0.65251 0.0
C2840 C 0.64595 0.51183 0.64811 0.0
C2841 C 0.63533 0.52212 0.66426 0.0
C2842 C 0.6361 0.51472 0.68487 0.0
C2843 C 0.64698 0.4976 0.68958 0.0
C2844 C 0.64711 0.49414 0.71328 0.0
C2845 C 0.63507 0.47417 0.71909 0.0
C2846 C 0.66884 0.49413 0.72135 0.0
C2847 C 0.63592 0.51279 0.72122 0.0
C2848 C 0.62877 0.52386 0.70455 0.0
C2849 C 0.61788 0.54167 0.70793 0.0
C2850 C 0.61491 0.54877 0.72878 0.0
C2851 C 0.62321 0.53838 0.74594 0.0
C2852 C 0.63354 0.51996 0.74209 0.0
H2853 H 0.05719 0.42538 0.9466 0.0
H2854 H 0.07887 0.36332 0.9424 0.0
H2855 H 0.05669 0.3528 0.97274 0.0
H2856 H 0.04908 0.42868 1.00266 0.0
H2857 H 1.02472 0.44043 1.00249 0.0
H2858 H 0.04327 0.44584 0.98175 0.0
H2859 H 1.0213 0.43376 0.95173 0.0
H2860 H 1.00068 0.43054 0.97049 0.0
H2861 H 1.00747 0.40937 0.95347 0.0
H2862 H 1.02819 0.34774 0.99925 0.0
H2863 H 0.99524 0.34856 0.01883 0.0
H2864 H 0.99221 0.41375 1.00474 0.0
C2865 C 0.05784 0.40986 0.95275 0.0
C2866 C 0.06989 0.39523 0.94274 0.0
C2867 C 0.06979 0.37473 0.95026 0.0
C2868 C 0.05734 0.36867 0.96748 0.0
C2869 C 0.04495 0.38329 0.97668 0.0
C2870 C 0.04506 0.40345 0.96945 0.0
C2871 C 1.02823 0.41533 0.97955 0.0
C2872 C 0.03679 0.43363 0.99244 0.0
C2873 C 1.01356 0.42265 0.96282 0.0
C2874 C 1.01848 0.39865 0.99341 0.0
C2875 C 1.02835 0.38029 0.99173 0.0
C2876 C 1.02052 0.36211 1.00109 0.0
C2877 C 1.00184 0.36263 0.01208 0.0
C2878 C 0.99127 0.38111 0.01309 0.0
C2879 C 1.00002 0.39935 1.00417 0.0
H2880 H 0.52478 0.61467 0.55452 0.0
H2881 H 0.5313 0.67587 0.58222 0.0
H2882 H 0.56207 0.68258 0.56038 0.0
H2883 H 0.57763 0.60403 0.55135 0.0
H2884 H 0.5766 0.59096 0.52617 0.0
H2885 H 0.55459 0.59087 0.54347 0.0
H2886 H 0.53392 0.60604 0.51355 0.0
H2887 H 0.55585 0.60647 0.4961 0.0
H2888 H 0.54254 0.62981 0.50113 0.0
H2889 H 0.59347 0.68259 0.53627 0.0
H2890 H 0.62183 0.67606 0.51129 0.0
H2891 H 0.59551 0.6153 0.49796 0.0
C2892 C 0.53252 0.62958 0.55586 0.0
C2893 C 0.5252 0.64474 0.57031 0.0
C2894 C 0.53619 0.66393 0.57142 0.0
C2895 C 0.55387 0.66792 0.55902 0.0
C2896 C 0.56071 0.6527 0.54519 0.0
C2897 C 0.55031 0.63393 0.54339 0.0
C2898 C 0.56111 0.62024 0.52726 0.0
C2899 C 0.56788 0.60035 0.53769 0.0
C2900 C 0.54755 0.61534 0.5084 0.0
C2901 C 0.57928 0.63412 0.52057 0.0
C2902 C 0.57871 0.65279 0.53112 0.0
C2903 C 0.59395 0.66802 0.52789 0.0
C2904 C 0.61012 0.66416 0.5136 0.0
C2905 C 0.61119 0.64519 0.50243 0.0
C2906 C 0.59533 0.63003 0.50608 0.0
H2907 H 0.92833 0.27628 0.77696 0.0
H2908 H 0.86368 0.27676 0.78942 0.0
H2909 H 0.86232 0.30955 0.76956 0.0
H2910 H 0.93857 0.32741 0.78577 0.0
H2911 H 0.95768 0.33095 0.76523 0.0
H2912 H 0.95317 0.30594 0.77691 0.0
H2913 H 0.94677 0.28997 0.73988 0.0
H2914 H 0.9515 0.31498 0.72804 0.0
H2915 H 0.92816 0.30083 0.72329 0.0
H2916 H 0.86892 0.34426 0.7529 0.0
H2917 H 0.88221 0.37772 0.73978 0.0
H2918 H 0.94302 0.35484 0.73842 0.0
C2919 C 0.91374 0.28295 0.77507 0.0
C2920 C 0.89603 0.27392 0.7847 0.0
C2921 C 0.87734 0.28325 0.78196 0.0
C2922 C 0.87648 0.30189 0.77076 0.0
C2923 C 0.8944 0.31075 0.76219 0.0
C2924 C 0.91265 0.30142 0.76395 0.0
C2925 C 0.92998 0.31483 0.75487 0.0
C2926 C 0.94577 0.32009 0.7717 0.0
C2927 C 0.93967 0.30453 0.73537 0.0
C2928 C 0.91879 0.33371 0.74864 0.0
C2929 C 0.89825 0.33086 0.75267 0.0
C2930 C 0.88491 0.34651 0.74941 0.0
C2931 C 0.89271 0.36556 0.74205 0.0
C2932 C 0.91376 0.36901 0.73807 0.0
C2933 C 0.92689 0.35268 0.74112 0.0
H2934 H 0.86016 1.00958 0.35711 0.0
H2935 H 0.92118 0.03561 0.35903 0.0
H2936 H 0.92962 1.01731 0.32549 0.0
H2937 H 0.86995 0.9603 0.33567 0.0
H2938 H 0.84859 0.95951 0.31857 0.0
H2939 H 0.8478 0.97444 0.34262 0.0
H2940 H 0.84057 1.00805 0.32116 0.0
H2941 H 0.84004 0.99193 0.29786 0.0
H2942 H 0.85662 1.01455 0.29873 0.0
H2943 H 0.93126 0.99419 0.29123 0.0
H2944 H 0.9253 0.97174 0.25995 0.0
H2945 H 0.86253 0.96302 0.27995 0.0
C2946 C 0.87536 1.0114 0.35058 0.0
C2947 C 0.89009 0.02387 0.36107 0.0
C2948 C 0.90964 0.0261 0.35152 0.0
C2949 C 0.91455 1.0157 0.33241 0.0
C2950 C 0.89966 1.00342 0.32258 0.0
C2951 C 0.88033 1.00162 0.33126 0.0
C2952 C 0.86666 0.98846 0.31722 0.0
C2953 C 0.85773 0.96956 0.32924 0.0
C2954 C 0.84997 1.00149 0.30822 0.0
C2955 C 0.88142 0.98222 0.29978 0.0
C2956 C 0.90039 0.99108 0.30295 0.0
C2957 C 0.91637 0.98738 0.28868 0.0
C2958 C 0.91284 0.97453 0.27087 0.0
C2959 C 0.89341 0.96548 0.26717 0.0
C2960 C 0.8776 0.96958 0.28203 0.0
H2961 H 0.58716 0.66774 0.74822 0.0
H2962 H 0.57875 0.60142 0.7553 0.0
H2963 H 0.5546 0.60128 0.72559 0.0
H2964 H 0.53623 0.67873 0.73597 0.0
H2965 H 0.54391 0.69897 0.71774 0.0
H2966 H 0.55955 0.6933 0.73969 0.0
H2967 H 0.58989 0.68784 0.71399 0.0
H2968 H 0.57444 0.69352 0.69193 0.0
H2969 H 0.58735 0.66954 0.69259 0.0
H2970 H 0.53059 0.6099 0.69355 0.0
H2971 H 0.51184 0.62504 0.66425 0.0
H2972 H 0.53845 0.6853 0.67866 0.0
C2973 C 0.58041 0.65295 0.74376 0.0
C2974 C 0.5852 0.63449 0.75441 0.0
C2975 C 0.57551 0.61581 0.74769 0.0
C2976 C 0.56174 0.61565 0.73072 0.0
C2977 C 0.55771 0.63429 0.72056 0.0
C2978 C 0.56694 0.65255 0.72705 0.0
C2979 C 0.56077 0.67068 0.71386 0.0
C2980 C 0.54944 0.68634 0.72763 0.0
C2981 C 0.57921 0.68099 0.70241 0.0
C2982 C 0.54678 0.65997 0.69837 0.0
C2983 C 0.54485 0.63901 0.70254 0.0
C2984 C 0.53221 0.62626 0.69033 0.0
C2985 C 0.52153 0.63505 0.67365 0.0
C2986 C 0.52366 0.65644 0.66884 0.0
C2987 C 0.53654 0.6689 0.68157 0.0
H2988 H 0.85621 0.33979 1.00481 0.0
H2989 H 0.9068 0.32975 0.04543 0.0
H2990 H 0.91185 0.29609 0.02869 0.0
H2991 H 0.83671 0.28666 1.00101 0.0
H2992 H 0.83177 0.28833 0.97318 0.0
H2993 H 0.83078 0.31107 0.98962 0.0
H2994 H 0.85629 0.32944 0.9643 0.0
H2995 H 0.85915 0.30679 0.94805 0.0
H2996 H 0.88089 0.31902 0.95976 0.0
H2997 H 0.91301 0.26459 1.00684 0.0
H2998 H 0.91246 0.23875 0.97798 0.0
H2999 H 0.86151 0.26816 0.95095 0.0
C3000 C 0.86825 0.33042 1.01021 0.0
C3001 C 0.88106 0.33746 0.02645 0.0
C3002 C 0.89686 0.32486 0.03288 0.0
C3003 C 0.89974 0.30554 0.02366 0.0
C3004 C 0.88682 0.29895 1.00785 0.0
C3005 C 0.87159 0.31108 1.00088 0.0
C3006 C 0.86137 0.30116 0.98201 0.0
C3007 C 0.83882 0.29653 0.98675 0.0
C3008 C 0.86459 0.31493 0.96238 0.0
C3009 C 0.87298 0.28144 0.9798 0.0
C3010 C 0.88754 0.28051 0.99498 0.0
C3011 C 0.90143 0.26486 0.99512 0.0
C3012 C 0.90093 0.25017 0.97882 0.0
C3013 C 0.88651 0.25112 0.96285 0.0
C3014 C 0.87204 0.26661 0.96362 0.0
H3015 H 0.19322 0.58729 0.27297 0.0
H3016 H 0.17991 0.64617 0.30198 0.0
H3017 H 0.2133 0.66025 0.29003 0.0
H3018 H 0.24807 0.58871 0.28276 0.0
H3019 H 0.2545 0.57754 0.25745 0.0
H3020 H 0.23038 0.57126 0.27004 0.0
H3021 H 0.21224 0.58314 0.23666 0.0
H3022 H 0.2363 0.58937 0.22403 0.0
H3023 H 0.21756 0.60876 0.22656 0.0
H3024 H 0.24737 0.66868 0.2742 0.0
H3025 H 0.27816 0.67253 0.25183 0.0
H3026 H 0.27021 0.60917 0.23055 0.0
C3027 C 0.1975 0.60306 0.27705 0.0
C3028 C 0.18389 0.61555 0.28869 0.0
C3029 C 0.18995 0.63625 0.2932 0.0
C3030 C 0.209 0.64437 0.28655 0.0
C3031 C 0.22198 0.63177 0.27507 0.0
C3032 C 0.21645 0.61163 0.27007 0.0
C3033 C 0.23277 0.60208 0.25601 0.0
C3034 C 0.24198 0.58381 0.26723 0.0
C3035 C 0.22421 0.59545 0.23455 0.0
C3036 C 0.24814 0.62013 0.25361 0.0
C3037 C 0.24165 0.6369 0.26519 0.0
C3038 C 0.25263 0.65562 0.26519 0.0
C3039 C 0.27025 0.65763 0.25248 0.0
C3040 C 0.27697 0.64114 0.23964 0.0
C3041 C 0.26592 0.6219 0.24063 0.0
H3042 H 0.03244 0.05785 0.63922 0.0
H3043 H 0.99871 0.04797 0.582 0.0
H3044 H 1.01087 1.01271 0.57908 0.0
H3045 H 0.07507 0.03368 0.61942 0.0
H3046 H 0.08223 0.02229 0.64391 0.0
H3047 H 0.06813 0.04547 0.6443 0.0
H3048 H 0.04051 0.02772 0.66821 0.0
H3049 H 0.05461 1.00444 0.66804 0.0
H3050 H 1.02872 1.00363 0.65991 0.0
H3051 H 1.02773 0.98028 0.58029 0.0
H3052 H 0.0542 0.95468 0.58137 0.0
H3053 H 0.07889 0.98466 0.63678 0.0
C3054 C 1.02716 0.04789 0.62658 0.0
C3055 C 1.01436 0.05528 0.61105 0.0
C3056 C 1.0084 0.04237 0.5941 0.0
C3057 C 1.0151 0.02231 0.5924 0.0
C3058 C 1.02772 1.01533 0.60783 0.0
C3059 C 0.03403 0.02773 0.62444 0.0
C3060 C 0.05024 1.01739 0.63671 0.0
C3061 C 0.07008 0.03049 0.63603 0.0
C3062 C 0.04308 1.01304 0.65958 0.0
C3063 C 0.05212 0.99747 0.62417 0.0
C3064 C 0.03846 0.99645 0.60801 0.0
C3065 C 0.03829 0.98064 0.59306 0.0
C3066 C 0.05323 0.96607 0.59387 0.0
C3067 C 0.06809 0.96744 0.60944 0.0
C3068 C 0.0671 0.98282 0.6253 0.0
H3069 H 0.50712 0.75094 0.66444 0.0
H3070 H 0.50127 0.75979 0.59746 0.0
H3071 H 0.51117 0.79629 0.60123 0.0
H3072 H 0.50576 0.814 0.67874 0.0
H3073 H 0.52451 0.81001 0.69825 0.0
H3074 H 0.50374 0.79151 0.69528 0.0
H3075 H 0.52831 0.76226 0.68998 0.0
H3076 H 0.54898 0.78005 0.69344 0.0
H3077 H 0.54797 0.76445 0.66972 0.0
H3078 H 0.53798 0.81961 0.60577 0.0
H3079 H 0.57455 0.82358 0.60996 0.0
H3080 H 0.56811 0.80364 0.67471 0.0
C3081 C 0.50706 0.76118 0.65099 0.0
C3082 C 0.50412 0.75298 0.63072 0.0
C3083 C 0.50403 0.76602 0.61308 0.0
C3084 C 0.50932 0.78688 0.61526 0.0
C3085 C 0.51558 0.79414 0.63497 0.0
C3086 C 0.51374 0.78178 0.65294 0.0
C3087 C 0.52708 0.79017 0.67031 0.0
C3088 C 0.51453 0.80214 0.68663 0.0
C3089 C 0.5388 0.77321 0.6814 0.0
C3090 C 0.54058 0.80488 0.65739 0.0
C3091 C 0.53238 0.80871 0.6378 0.0
C3092 C 0.54421 0.81719 0.62116 0.0
C3093 C 0.56503 0.81913 0.62347 0.0
C3094 C 0.5736 0.81341 0.64253 0.0
C3095 C 0.56129 0.80809 0.66013 0.0
H3096 H 0.26399 0.60947 0.14767 0.0
H3097 H 0.32299 0.58603 0.15986 0.0
H3098 H 0.31035 0.55063 0.15178 0.0
H3099 H 0.23388 0.56636 0.16797 0.0
H3100 H 0.21558 0.56699 0.14742 0.0
H3101 H 0.22899 0.59037 0.15514 0.0
H3102 H 0.24146 0.59625 0.1164 0.0
H3103 H 0.22792 0.57301 0.10852 0.0
H3104 H 0.2546 0.57612 0.10267 0.0
H3105 H 0.29009 0.51683 0.14421 0.0
H3106 H 0.26577 0.48919 0.13247 0.0
H3107 H 0.22163 0.53539 0.12144 0.0
C3108 C 0.27422 0.59687 0.14865 0.0
C3109 C 0.29445 0.60055 0.15462 0.0
C3110 C 0.30743 0.58364 0.15538 0.0
C3111 C 0.30035 0.56341 0.1509 0.0
C3112 C 0.28029 0.56026 0.14519 0.0
C3113 C 0.26755 0.57662 0.14362 0.0
C3114 C 0.24702 0.56929 0.13591 0.0
C3115 C 0.23039 0.5735 0.15261 0.0
C3116 C 0.24249 0.57926 0.11461 0.0
C3117 C 0.25018 0.54632 0.13345 0.0
C3118 C 0.2693 0.54126 0.13929 0.0
C3119 C 0.2752 0.52072 0.13924 0.0
C3120 C 0.26133 0.5051 0.13262 0.0
C3121 C 0.24205 0.51019 0.12559 0.0
C3122 C 0.23647 0.53107 0.12626 0.0
H3123 H 0.4732 1.00474 0.90614 0.0
H3124 H 0.49923 0.06099 0.87873 0.0
H3125 H 0.52861 0.04163 0.86512 0.0
H3126 H 0.51677 0.98509 0.92423 0.0
H3127 H 0.50999 0.95855 0.91835 0.0
H3128 H 0.49059 0.97665 0.92351 0.0
H3129 H 0.47474 0.96755 0.88728 0.0
H3130 H 0.49423 0.94935 0.88228 0.0
H3131 H 0.49019 0.96948 0.86346 0.0
H3132 H 0.557 1.01629 0.85886 0.0
H3133 H 0.58098 0.98768 0.86036 0.0
H3134 H 0.53436 0.94876 0.8904 0.0
C3135 C 0.48498 1.0129 0.897 0.0
C3136 C 0.48428 0.0342 0.8935 0.0
C3137 C 0.49971 0.04454 0.88142 0.0
C3138 C 0.51632 0.03368 0.87363 0.0
C3139 C 0.51671 1.01253 0.87762 0.0
C3140 C 0.50122 1.00228 0.8888 0.0
C3141 C 0.50545 0.97992 0.89221 0.0
C3142 C 0.50573 0.97478 0.91597 0.0
C3143 C 0.49024 0.96575 0.8806 0.0
C3144 C 0.52616 0.97926 0.882 0.0
C3145 C 0.53247 0.99806 0.87341 0.0
C3146 C 0.55201 1.00136 0.86497 0.0
C3147 C 0.56547 0.98511 0.86577 0.0
C3148 C 0.55915 0.96617 0.87515 0.0
C3149 C 0.53923 0.96309 0.88276 0.0
H3150 H 0.75149 0.44059 0.90709 0.0
H3151 H 0.77808 0.42382 0.84644 0.0
H3152 H 0.8002 0.4552 0.84702 0.0
H3153 H 0.74899 0.49231 0.89827 0.0
H3154 H 0.75605 0.50124 0.92416 0.0
H3155 H 0.74418 0.47605 0.92101 0.0
H3156 H 0.77411 0.45888 0.93876 0.0
H3157 H 0.78572 0.48409 0.94281 0.0
H3158 H 0.7995 0.46445 0.92901 0.0
H3159 H 0.81398 0.49061 0.85081 0.0
H3160 H 0.82767 0.52452 0.8626 0.0
H3161 H 0.79395 0.51758 0.92201 0.0
C3162 C 0.76274 0.4431 0.89457 0.0
C3163 C 0.76352 0.42993 0.8769 0.0
C3164 C 0.77776 0.43377 0.86026 0.0
C3165 C 0.79012 0.4516 0.86032 0.0
C3166 C 0.78809 0.4651 0.87729 0.0
C3167 C 0.77541 0.46075 0.89452 0.0
C3168 C 0.77595 0.4782 0.91045 0.0
C3169 C 0.75504 0.48749 0.91365 0.0
C3170 C 0.78433 0.47098 0.9315 0.0
C3171 C 0.79048 0.49315 0.89917 0.0
C3172 C 0.79695 0.48542 0.8799 0.0
C3173 C 0.80955 0.49677 0.86607 0.0
C3174 C 0.81693 0.51608 0.87277 0.0
C3175 C 0.81195 0.52343 0.89327 0.0
C3176 C 0.79799 0.51219 0.90628 0.0
H3177 H 1.01656 0.80751 0.40396 0.0
H3178 H 0.0575 0.78756 0.35392 0.0
H3179 H 0.03098 0.76295 0.34135 0.0
H3180 H 0.99091 0.7575 0.4144 0.0
H3181 H 0.96661 0.76866 0.41861 0.0
H3182 H 0.98932 0.78339 0.42467 0.0
H3183 H 0.97855 0.81264 0.40008 0.0
H3184 H 0.95587 0.79797 0.39393 0.0
H3185 H 0.97289 0.80677 0.37295 0.0
H3186 H 0.99953 0.74241 0.33285 0.0
H3187 H 0.96553 0.72696 0.32863 0.0
H3188 H 0.94428 0.7601 0.38421 0.0
C3189 C 1.02016 0.79769 0.39061 0.0
C3190 C 0.03931 0.79935 0.38007 0.0
C3191 C 0.04309 0.7865 0.36235 0.0
C3192 C 1.02809 0.77248 0.35511 0.0
C3193 C 1.00933 0.77151 0.36569 0.0
C3194 C 1.00531 0.78375 0.38307 0.0
C3195 C 0.98352 0.78054 0.39084 0.0
C3196 C 0.98254 0.77201 0.41347 0.0
C3197 C 0.97203 0.80068 0.38935 0.0
C3198 C 0.97584 0.76457 0.37505 0.0
C3199 C 0.99106 0.7596 0.36075 0.0
C3200 C 0.9876 0.74596 0.34411 0.0
C3201 C 0.96813 0.73726 0.34188 0.0
C3202 C 0.95212 0.74206 0.3562 0.0
C3203 C 0.95617 0.75583 0.37316 0.0
H3204 H 0.04842 0.17712 0.66961 0.0
H3205 H 1.0018 0.12884 0.67646 0.0
H3206 H 1.01933 0.11506 0.70723 0.0
H3207 H 0.09041 0.14625 0.68331 0.0
H3208 H 0.10312 0.16704 0.69725 0.0
H3209 H 0.0869 0.17263 0.67575 0.0
H3210 H 0.06598 0.19631 0.70038 0.0
H3211 H 0.08226 0.19087 0.72184 0.0
H3212 H 0.0554 0.18612 0.72486 0.0
H3213 H 0.04289 0.10716 0.73938 0.0
H3214 H 0.06845 0.10723 0.7677 0.0
H3215 H 0.09914 0.16003 0.73775 0.0
C3216 C 0.04185 0.16358 0.67744 0.0
C3217 C 1.02361 0.15415 0.67032 0.0
C3218 C 1.01572 0.13646 0.68137 0.0
C3219 C 1.02563 0.12847 0.69896 0.0
C3220 C 0.04359 0.13819 0.70554 0.0
C3221 C 0.05155 0.1554 0.69496 0.0
C3222 C 0.07082 0.16337 0.70505 0.0
C3223 C 0.08888 0.16225 0.68941 0.0
C3224 C 0.06846 0.18547 0.71353 0.0
C3225 C 0.07253 0.1481 0.72297 0.0
C3226 C 0.05679 0.13361 0.72324 0.0
C3227 C 0.0553 0.11847 0.7391 0.0
C3228 C 0.06997 0.1185 0.75514 0.0
C3229 C 0.086 0.13357 0.75526 0.0
C3230 C 0.08721 0.14819 0.73851 0.0
H3231 H 0.36122 0.26259 0.45873 0.0
H3232 H 0.41934 0.23972 0.47513 0.0
H3233 H 0.4219 0.26548 0.50388 0.0
H3234 H 0.3748 0.31328 0.46283 0.0
H3235 H 0.3512 0.32213 0.47361 0.0
H3236 H 0.35158 0.29899 0.45784 0.0
H3237 H 0.33353 0.27849 0.48837 0.0
H3238 H 0.3331 0.3017 0.50416 0.0
H3239 H 0.34434 0.27896 0.51425 0.0
H3240 H 0.42125 0.29716 0.52583 0.0
H3241 H 0.4158 0.33082 0.54271 0.0
H3242 H 0.35822 0.33416 0.51177 0.0
C3243 C 0.37385 0.26227 0.46925 0.0
C3244 C 0.38982 0.24883 0.4653 0.0
C3245 C 0.40676 0.24956 0.47843 0.0
C3246 C 0.40838 0.26422 0.49466 0.0
C3247 C 0.39295 0.27808 0.49744 0.0
C3248 C 0.37581 0.27706 0.48537 0.0
C3249 C 0.36266 0.29534 0.48989 0.0
C3250 C 0.35991 0.3082 0.46985 0.0
C3251 C 0.3422 0.28819 0.49976 0.0
C3252 C 0.37543 0.30709 0.50576 0.0
C3253 C 0.39275 0.29677 0.50998 0.0
C3254 C 0.40755 0.30519 0.52299 0.0
C3255 C 0.4044 0.32447 0.53231 0.0
C3256 C 0.38655 0.3352 0.52858 0.0
C3257 C 0.37195 0.32632 0.51505 0.0
H3258 H 0.3641 0.50586 0.35806 0.0
H3259 H 0.42283 0.53745 0.35614 0.0
H3260 H 0.43112 0.51954 0.3224 0.0
H3261 H 0.37845 0.45729 0.33608 0.0
H3262 H 0.3561 0.45378 0.32062 0.0
H3263 H 0.35517 0.46858 0.34476 0.0
H3264 H 0.34213 0.49999 0.32454 0.0
H3265 H 0.34256 0.48493 0.30055 0.0
H3266 H 0.35607 0.50952 0.3016 0.0
H3267 H 0.43292 0.49672 0.28794 0.0
H3268 H 0.42702 0.47408 0.25671 0.0
H3269 H 0.36643 0.45939 0.28082 0.0
C3270 C 0.37881 0.50892 0.35071 0.0
C3271 C 0.39292 0.52296 0.36016 0.0
C3272 C 0.41178 0.52672 0.3495 0.0
C3273 C 0.41662 0.51657 0.33024 0.0
C3274 C 0.40236 0.50283 0.3214 0.0
C3275 C 0.38371 0.49926 0.33127 0.0
C3276 C 0.37057 0.48461 0.3182 0.0
C3277 C 0.36474 0.4649 0.33066 0.0
C3278 C 0.35172 0.4954 0.31079 0.0
C3279 C 0.38476 0.48008 0.29963 0.0
C3280 C 0.40309 0.49064 0.30165 0.0
C3281 C 0.41852 0.48854 0.28629 0.0
C3282 C 0.41506 0.47557 0.26853 0.0
C3283 C 0.39622 0.46487 0.26595 0.0
C3284 C 0.38101 0.46732 0.28196 0.0
H3285 H 1.02532 0.60943 0.05391 0.0
H3286 H 0.02966 0.67295 0.07592 0.0
H3287 H 0.06034 0.67886 0.0539 0.0
H3288 H 0.07862 0.58551 0.02871 0.0
H3289 H 0.05628 0.58604 0.04551 0.0
H3290 H 0.07869 0.60081 0.05257 0.0
H3291 H 0.03557 0.59759 0.01385 0.0
H3292 H 0.05783 0.59726 0.99689 0.0
H3293 H 0.04365 0.62038 0.99933 0.0
H3294 H 0.09153 0.67821 0.03035 0.0
H3295 H 0.12051 0.67105 1.00665 0.0
H3296 H 0.09744 0.60806 0.9986 0.0
C3297 C 0.03253 0.62468 0.05386 0.0
C3298 C 1.02462 0.64074 0.06683 0.0
C3299 C 0.03501 0.6603 0.0663 0.0
C3300 C 0.05262 0.66387 0.05376 0.0
C3301 C 0.06008 0.6478 0.04146 0.0
C3302 C 0.05037 0.62858 0.04126 0.0
C3303 C 0.06203 0.61401 0.02669 0.0
C3304 C 0.06933 0.59549 0.03911 0.0
C3305 C 0.04899 0.60688 1.00809 0.0
C3306 C 0.07984 0.62797 0.01905 0.0
C3307 C 0.07827 0.64742 0.02778 0.0
C3308 C 0.09283 0.66302 0.02339 0.0
C3309 C 0.10937 0.65876 1.00982 0.0
C3310 C 0.1116 0.63897 1.00051 0.0
C3311 C 0.09641 0.62339 1.0053 0.0
H3312 H 0.50346 0.41576 0.5175 0.0
H3313 H 0.4844 0.3511 0.51411 0.0
H3314 H 0.51279 0.34469 0.4892 0.0
H3315 H 0.51486 0.4223 0.46515 0.0
H3316 H 0.53666 0.43933 0.46838 0.0
H3317 H 0.51704 0.43821 0.48849 0.0
H3318 H 0.54319 0.42939 0.51657 0.0
H3319 H 0.563 0.43059 0.49651 0.0
H3320 H 0.55908 0.40768 0.51232 0.0
H3321 H 0.53818 0.34681 0.46023 0.0
H3322 H 0.56127 0.35646 0.43078 0.0
H3323 H 0.56592 0.41926 0.45455 0.0
C3324 C 0.50555 0.40015 0.51187 0.0
C3325 C 0.49184 0.38389 0.51755 0.0
C3326 C 0.4949 0.36369 0.50995 0.0
C3327 C 0.51096 0.35992 0.49587 0.0
C3328 C 0.5239 0.37645 0.49008 0.0
C3329 C 0.5216 0.39611 0.49808 0.0
C3330 C 0.53652 0.4115 0.48799 0.0
C3331 C 0.52561 0.42884 0.47684 0.0
C3332 C 0.55133 0.4203 0.50432 0.0
C3333 C 0.54694 0.39758 0.47229 0.0
C3334 C 0.53948 0.37742 0.47386 0.0
C3335 C 0.5447 0.36232 0.45927 0.0
C3336 C 0.55779 0.36799 0.44253 0.0
C3337 C 0.56572 0.38847 0.44073 0.0
C3338 C 0.56055 0.40334 0.45602 0.0
H3339 H 0.146 0.0195 0.75633 0.0
H3340 H 0.09927 0.0606 0.73862 0.0
H3341 H 0.10012 0.04614 0.70227 0.0
H3342 H 0.17447 0.02407 0.71372 0.0
H3343 H 0.18191 0.99816 0.70883 0.0
H3344 H 0.17557 1.00623 0.73538 0.0
H3345 H 0.1487 0.97834 0.7407 0.0
H3346 H 0.15201 0.96757 0.71441 0.0
H3347 H 0.12771 0.9758 0.72322 0.0
H3348 H 0.11167 0.03237 0.66649 0.0
H3349 H 0.1288 1.01623 0.63554 0.0
H3350 H 0.1656 0.98199 0.67762 0.0
C3351 C 0.13531 0.02475 0.74502 0.0
C3352 C 0.12233 0.04084 0.75018 0.0
C3353 C 0.10894 0.04787 0.73497 0.0
C3354 C 0.10946 0.03987 0.71429 0.0
C3355 C 0.12309 0.02454 0.7094 0.0
C3356 C 0.13529 1.0166 0.72456 0.0
C3357 C 0.14939 1.00104 0.71513 0.0
C3358 C 0.17163 1.00773 0.7185 0.0
C3359 C 0.1442 0.97942 0.72395 0.0
C3360 C 0.14408 1.00221 0.69214 0.0
C3361 C 0.12887 1.01584 0.68905 0.0
C3362 C 0.12306 0.02111 0.6688 0.0
C3363 C 0.13292 1.01202 0.65137 0.0
C3364 C 0.14815 0.99769 0.65442 0.0
C3365 C 0.15359 0.99254 0.67502 0.0
H3366 H 0.5549 0.36214 0.31 0.0
H3367 H 0.5642 0.41685 0.34875 0.0
H3368 H 0.54735 0.43768 0.32227 0.0
H3369 H 0.55935 0.38738 0.25653 0.0
H3370 H 0.54 0.369 0.2481 0.0
H3371 H 0.55697 0.36208 0.26828 0.0
H3372 H 0.52437 0.35239 0.29104 0.0
H3373 H 0.50836 0.36173 0.27105 0.0
H3374 H 0.50687 0.37228 0.29741 0.0
H3375 H 0.52347 0.45055 0.29522 0.0
H3376 H 0.49569 0.45387 0.26988 0.0
H3377 H 0.50537 0.39139 0.24809 0.0
C3378 C 0.55384 0.37859 0.31263 0.0
C3379 C 0.56074 0.38792 0.33122 0.0
C3380 C 0.55906 0.40948 0.33435 0.0
C3381 C 0.5496 0.42144 0.31941 0.0
C3382 C 0.5424 0.41161 0.30136 0.0
C3383 C 0.54467 0.39069 0.29789 0.0
C3384 C 0.53365 0.38309 0.27881 0.0
C3385 C 0.5484 0.37499 0.2619 0.0
C3386 C 0.51736 0.36642 0.28496 0.0
C3387 C 0.52442 0.4029 0.27224 0.0
C3388 C 0.52949 0.41927 0.28536 0.0
C3389 C 0.51987 0.4381 0.28435 0.0
C3390 C 0.50417 0.43991 0.26999 0.0
C3391 C 0.49849 0.4229 0.25719 0.0
C3392 C 0.50947 0.40472 0.25766 0.0
H3393 H 0.1874 0.75807 1.00459 0.0
H3394 H 0.16812 0.70078 0.03535 0.0
H3395 H 0.17425 0.71637 0.07007 0.0
H3396 H 0.22709 0.76947 0.04455 0.0
H3397 H 0.22439 0.7968 0.04568 0.0
H3398 H 0.22019 0.78312 0.02121 0.0
H3399 H 0.18421 0.7951 0.01744 0.0
H3400 H 0.18737 0.81111 0.04049 0.0
H3401 H 0.16646 0.79265 0.03942 0.0
H3402 H 0.17583 0.73882 0.10072 0.0
H3403 H 0.17778 0.76663 0.12721 0.0
H3404 H 0.19879 0.80993 0.07873 0.0
C3405 C 0.18504 0.74879 0.01867 0.0
C3406 C 0.17721 0.72827 0.01741 0.0
C3407 C 0.17408 0.71654 0.03608 0.0
C3408 C 0.1775 0.72524 0.05588 0.0
C3409 C 0.18435 0.74569 0.05681 0.0
C3410 C 0.18857 0.75729 0.03885 0.0
C3411 C 0.19569 0.77905 0.04487 0.0
C3412 C 0.21814 0.78234 0.03867 0.0
C3413 C 0.18265 0.79544 0.03496 0.0
C3414 C 0.19276 0.77829 0.0688 0.0
C3415 C 0.18656 0.75867 0.07519 0.0
C3416 C 0.18121 0.75413 0.09608 0.0
C3417 C 0.18222 0.77004 0.11096 0.0
C3418 C 0.18867 0.79024 0.10498 0.0
C3419 C 0.19427 0.79444 0.08368 0.0
H3420 H 0.97305 1.00387 0.40238 0.0
H3421 H 1.00056 0.06119 0.37918 0.0
H3422 H 0.03009 0.04221 0.36536 0.0
H3423 H 1.01543 0.98258 0.42063 0.0
H3424 H 1.00876 0.95651 0.41286 0.0
H3425 H 0.98928 0.97442 0.41828 0.0
H3426 H 0.97494 0.96754 0.38096 0.0
H3427 H 0.9945 0.94948 0.37563 0.0
H3428 H 0.9913 0.97075 0.35794 0.0
H3429 H 0.05847 1.01703 0.35895 0.0
H3430 H 0.08235 0.98838 0.36046 0.0
H3431 H 0.03444 0.94815 0.38608 0.0
C3432 C 0.98517 1.01231 0.39404 0.0
C3433 C 0.98486 0.03381 0.39185 0.0
C3434 C 1.00075 0.04459 0.38086 0.0
C3435 C 1.01744 0.03394 0.37293 0.0
C3436 C 1.01745 1.01257 0.37559 0.0
C3437 C 1.0015 1.00191 0.38562 0.0
C3438 C 1.00545 0.97933 0.38788 0.0
C3439 C 1.0047 0.97287 0.4113 0.0
C3440 C 0.99067 0.966 0.37481 0.0
C3441 C 1.02656 0.97899 0.37853 0.0
C3442 C 0.03327 0.99817 0.37122 0.0
C3443 C 0.05318 1.00182 0.364 0.0
C3444 C 0.0666 0.98553 0.3648 0.0
C3445 C 0.0599 0.96618 0.37296 0.0
C3446 C 0.03961 0.96276 0.37925 0.0
H3447 H 0.53496 0.29733 0.34403 0.0
H3448 H 0.54152 0.2888 0.41126 0.0
H3449 H 0.51129 0.26531 0.41217 0.0
H3450 H 0.48317 0.30042 0.34505 0.0
H3451 H 0.47851 0.28659 0.32078 0.0
H3452 H 0.50241 0.29998 0.32443 0.0
H3453 H 0.52082 0.26646 0.31666 0.0
H3454 H 0.4972 0.25227 0.31337 0.0
H3455 H 0.515 0.24384 0.33234 0.0
H3456 H 0.47732 0.24788 0.40701 0.0
H3457 H 0.44424 0.23388 0.39529 0.0
H3458 H 0.45989 0.25215 0.33094 0.0
C3459 C 0.53061 0.28959 0.35866 0.0
C3460 C 0.54099 0.29421 0.37748 0.0
C3461 C 0.53417 0.28485 0.39661 0.0
C3462 C 0.5169 0.27166 0.39728 0.0
C3463 C 0.50651 0.268 0.37865 0.0
C3464 C 0.51329 0.27636 0.35958 0.0
C3465 C 0.49852 0.27106 0.34218 0.0
C3466 C 0.49016 0.29068 0.33256 0.0
C3467 C 0.50847 0.2576 0.32511 0.0
C3468 C 0.48218 0.25891 0.35456 0.0
C3469 C 0.48706 0.25742 0.37559 0.0
C3470 C 0.47358 0.2485 0.39049 0.0
C3471 C 0.45476 0.2407 0.38371 0.0
C3472 C 0.44957 0.24163 0.36217 0.0
C3473 C 0.46359 0.25078 0.34744 0.0
H3474 H 0.57633 0.98688 0.08745 0.0
H3475 H 0.58488 0.97467 0.15395 0.0
H3476 H 0.55884 0.99998 0.16328 0.0
H3477 H 0.57482 0.03933 0.09367 0.0
H3478 H 0.55713 0.04292 0.07295 0.0
H3479 H 0.57348 0.02143 0.07181 0.0
H3480 H 0.54245 0.99705 0.06836 0.0
H3481 H 0.52532 1.01787 0.07075 0.0
H3482 H 0.52293 0.99644 0.08869 0.0
H3483 H 0.53444 0.02987 0.1648 0.0
H3484 H 0.51541 0.06149 0.15831 0.0
H3485 H 0.52498 0.05305 0.09079 0.0
C3486 C 0.57238 0.98894 0.10402 0.0
C3487 C 0.58239 0.9786 0.11999 0.0
C3488 C 0.57709 0.98222 0.14146 0.0
C3489 C 0.56234 0.99654 0.14687 0.0
C3490 C 0.55314 1.00688 0.13059 0.0
C3491 C 0.55803 1.00313 0.10958 0.0
C3492 C 0.54834 1.01792 0.09497 0.0
C3493 C 0.5644 0.03118 0.08265 0.0
C3494 C 0.53389 1.00663 0.07982 0.0
C3495 C 0.5371 0.03061 0.11098 0.0
C3496 C 0.53984 0.02413 0.13146 0.0
C3497 C 0.53196 0.03485 0.14881 0.0
C3498 C 0.52125 0.05276 0.14501 0.0
C3499 C 0.5189 0.05969 0.12407 0.0
C3500 C 0.52658 0.04818 0.107 0.0
H3501 H 0.06238 0.32168 0.61312 0.0
H3502 H 0.05916 0.32757 0.68103 0.0
H3503 H 1.0243 0.31402 0.68146 0.0
H3504 H 1.00034 0.31951 0.60553 0.0
H3505 H 1.00418 0.30045 0.5852 0.0
H3506 H 1.02139 0.32252 0.58724 0.0
H3507 H 0.05131 0.29866 0.58873 0.0
H3508 H 0.03475 0.27665 0.58662 0.0
H3509 H 0.05142 0.27883 0.6087 0.0
H3510 H 1.00303 0.28403 0.67813 0.0
H3511 H 0.99524 0.24748 0.6704 0.0
H3512 H 1.01003 0.25791 0.60429 0.0
C3513 C 0.05358 0.32126 0.62776 0.0
C3514 C 0.06324 0.32458 0.64698 0.0
C3515 C 0.05191 0.32461 0.6661 0.0
C3516 C 0.032 0.31692 0.66643 0.0
C3517 C 1.02397 0.30954 0.64754 0.0
C3518 C 0.03396 0.3128 0.62815 0.0
C3519 C 1.02525 0.29885 0.61114 0.0
C3520 C 1.01198 0.31105 0.59645 0.0
C3521 C 0.04167 0.28758 0.59814 0.0
C3522 C 1.01253 0.28426 0.62487 0.0
C3523 C 1.0109 0.29136 0.64553 0.0
C3524 C 1.00366 0.27859 0.66195 0.0
C3525 C 0.99948 0.25779 0.6575 0.0
C3526 C 1.00261 0.25012 0.63683 0.0
C3527 C 1.00781 0.26369 0.62022 0.0
H3528 H 0.62478 0.97864 0.04665 0.0
H3529 H 0.68889 0.97556 0.05713 0.0
H3530 H 0.69627 0.99657 0.02551 0.0
H3531 H 0.62809 0.9846 0.98543 0.0
H3532 H 0.60815 1.00272 0.98695 0.0
H3533 H 0.60837 0.98165 1.00546 0.0
H3534 H 0.60652 1.0085 0.0362 0.0
H3535 H 0.60702 0.02928 0.01759 0.0
H3536 H 0.62581 0.02875 0.03767 0.0
H3537 H 0.6969 0.02315 0.99838 0.0
H3538 H 0.69061 0.0554 0.9796 0.0
H3539 H 0.62607 0.04333 0.98741 0.0
C3540 C 0.64033 0.9817 0.04162 0.0
C3541 C 0.65629 0.97528 0.05396 0.0
C3542 C 0.67649 0.98017 0.04766 0.0
C3543 C 0.68082 0.99194 0.0296 0.0
C3544 C 0.66477 0.99884 0.01813 0.0
C3545 C 0.64486 0.99393 0.02386 0.0
C3546 C 0.63047 1.0067 1.01167 0.0
C3547 C 0.61803 0.99309 0.99648 0.0
C3548 C 0.61667 0.01904 0.02668 0.0
C3549 C 0.64543 0.02061 0.99957 0.0
C3550 C 0.6651 1.01524 1.00281 0.0
C3551 C 0.68158 0.02721 0.99521 0.0
C3552 C 0.67788 0.04552 0.9846 0.0
C3553 C 0.65788 0.05177 0.98213 0.0
C3554 C 0.64151 0.03878 0.98899 0.0
H3555 H 0.25684 0.8677 0.76703 0.0
H3556 H 0.24663 0.92837 0.79318 0.0
H3557 H 0.25696 0.9441 0.75948 0.0
H3558 H 0.29965 0.87731 0.74738 0.0
H3559 H 0.29845 0.86265 0.72308 0.0
H3560 H 0.28193 0.85572 0.74471 0.0
H3561 H 0.25117 0.8593 0.72069 0.0
H3562 H 0.26789 0.86663 0.69885 0.0
H3563 H 0.24771 0.8831 0.70689 0.0
H3564 H 0.27613 0.95404 0.72878 0.0
H3565 H 0.30978 0.95686 0.712 0.0
H3566 H 0.30972 0.89072 0.70379 0.0
C3567 C 0.25595 0.88422 0.76517 0.0
C3568 C 0.25098 0.89681 0.78251 0.0
C3569 C 0.25027 0.91839 0.77996 0.0
C3570 C 0.25575 0.92747 0.76066 0.0
C3571 C 0.26147 0.91478 0.74387 0.0
C3572 C 0.26155 0.8935 0.74594 0.0
C3573 C 0.27346 0.88381 0.72806 0.0
C3574 C 0.28932 0.86908 0.73633 0.0
C3575 C 0.2592 0.87255 0.71271 0.0
C3576 C 0.28287 0.90307 0.71792 0.0
C3577 C 0.2742 0.92074 0.72592 0.0
C3578 C 0.28277 0.9404 0.72207 0.0
C3579 C 0.30191 0.94193 0.71238 0.0
C3580 C 0.31214 0.92383 0.70722 0.0
C3581 C 0.30176 0.90457 0.70775 0.0
H3582 H 0.60769 0.20765 0.26466 0.0
H3583 H 0.65683 0.22975 0.3034 0.0
H3584 H 0.66414 0.25847 0.27838 0.0
H3585 H 0.63415 0.2144 0.21721 0.0
H3586 H 0.61229 0.22088 0.20255 0.0
H3587 H 0.60944 0.20524 0.22592 0.0
H3588 H 0.5839 0.2321 0.24101 0.0
H3589 H 0.58796 0.2476 0.21763 0.0
H3590 H 0.5922 0.25877 0.24335 0.0
H3591 H 0.66942 0.28112 0.24645 0.0
H3592 H 0.67061 0.2979 0.21153 0.0
H3593 H 0.61891 0.25971 0.19267 0.0
C3594 C 0.61915 0.21933 0.26846 0.0
C3595 C 0.63114 0.21719 0.28637 0.0
C3596 C 0.647 0.23176 0.29019 0.0
C3597 C 0.65137 0.24793 0.27594 0.0
C3598 C 0.63992 0.24904 0.25781 0.0
C3599 C 0.62398 0.23524 0.25413 0.0
C3600 C 0.61572 0.23808 0.23226 0.0
C3601 C 0.61803 0.2185 0.21868 0.0
C3602 C 0.59364 0.24453 0.23365 0.0
C3603 C 0.62959 0.25547 0.22412 0.0
C3604 C 0.64343 0.26159 0.23908 0.0
C3605 C 0.6585 0.2766 0.23471 0.0
C3606 C 0.6592 0.28587 0.2147 0.0
C3607 C 0.64492 0.28008 0.19921 0.0
C3608 C 0.63005 0.26454 0.20408 0.0
H3609 H 0.26092 0.39714 0.47985 0.0
H3610 H 0.24936 0.33091 0.48384 0.0
H3611 H 0.26179 0.3311 0.52015 0.0
H3612 H 0.30697 0.39686 0.50555 0.0
H3613 H 0.30381 0.42135 0.51858 0.0
H3614 H 0.29156 0.41602 0.49408 0.0
H3615 H 0.25621 0.42338 0.51209 0.0
H3616 H 0.26994 0.42969 0.53564 0.0
H3617 H 0.24954 0.41084 0.53679 0.0
H3618 H 0.27958 0.33736 0.55324 0.0
H3619 H 0.30606 0.34853 0.57767 0.0
H3620 H 0.30255 0.4113 0.55513 0.0
C3621 C 0.26081 0.38276 0.48851 0.0
C3622 C 0.2544 0.36402 0.47914 0.0
C3623 C 0.25455 0.34542 0.49074 0.0
C3624 C 0.26143 0.34536 0.51138 0.0
C3625 C 0.26805 0.36404 0.52009 0.0
C3626 C 0.26778 0.38242 0.50908 0.0
C3627 C 0.27734 0.40002 0.52141 0.0
C3628 C 0.29603 0.40906 0.5092 0.0
C3629 C 0.26233 0.41693 0.52675 0.0
C3630 C 0.28303 0.38857 0.54103 0.0
C3631 C 0.27723 0.36789 0.54011 0.0
C3632 C 0.28392 0.35356 0.55446 0.0
C3633 C 0.29877 0.3601 0.56855 0.0
C3634 C 0.30662 0.38065 0.56769 0.0
C3635 C 0.29677 0.39547 0.55589 0.0
H3636 H 0.44181 0.86008 0.74917 0.0
H3637 H 0.38104 0.87232 0.72991 0.0
H3638 H 0.36925 0.83802 0.74318 0.0
H3639 H 0.44145 0.80428 0.73829 0.0
H3640 H 0.45579 0.79991 0.76146 0.0
H3641 H 0.45875 0.82415 0.74779 0.0
H3642 H 0.45039 0.84255 0.78358 0.0
H3643 H 0.44654 0.81801 0.79646 0.0
H3644 H 0.42673 0.83635 0.79714 0.0
H3645 H 0.36383 0.80257 0.7612 0.0
H3646 H 0.3658 0.77021 0.78195 0.0
H3647 H 0.43014 0.78262 0.78854 0.0
C3648 C 0.42609 0.85544 0.74735 0.0
C3649 C 0.41239 0.86887 0.7384 0.0
C3650 C 0.39185 0.86229 0.73671 0.0
C3651 C 0.38501 0.8428 0.74415 0.0
C3652 C 0.39888 0.83007 0.75325 0.0
C3653 C 0.41902 0.83619 0.7548 0.0
C3654 C 0.43068 0.82054 0.76661 0.0
C3655 C 0.44766 0.81172 0.75268 0.0
C3656 C 0.43906 0.82992 0.78716 0.0
C3657 C 0.41407 0.80449 0.77118 0.0
C3658 C 0.39577 0.81012 0.76352 0.0
C3659 C 0.37817 0.7979 0.76704 0.0
C3660 C 0.37939 0.77955 0.77879 0.0
C3661 C 0.39809 0.77367 0.78675 0.0
C3662 C 0.41556 0.78634 0.78256 0.0
H3663 H 0.72694 0.18276 1.00644 0.0
H3664 H 0.70296 0.11981 1.00419 0.0
H3665 H 0.73277 0.10823 0.02354 0.0
H3666 H 0.78076 0.1704 1.0004 0.0
H3667 H 0.78828 0.19108 0.01801 0.0
H3668 H 0.76636 0.19343 1.00208 0.0
H3669 H 0.74451 0.20053 0.03557 0.0
H3670 H 0.76625 0.19834 0.05166 0.0
H3671 H 0.74394 0.18233 0.05704 0.0
H3672 H 0.76378 0.10504 0.04782 0.0
H3673 H 0.79184 0.11062 0.07291 0.0
H3674 H 0.79478 0.17556 0.05669 0.0
C3675 C 0.72811 0.16646 1.00973 0.0
C3676 C 0.71267 0.15217 1.00406 0.0
C3677 C 0.71474 0.13097 1.00842 0.0
C3678 C 0.7316 0.12431 0.01938 0.0
C3679 C 0.74638 0.13901 0.02532 0.0
C3680 C 0.74481 0.15963 0.02026 0.0
C3681 C 0.76178 0.17278 0.02918 0.0
C3682 C 0.7751 0.18247 1.01136 0.0
C3683 C 0.75362 0.18945 0.04426 0.0
C3684 C 0.7728 0.1566 0.04094 0.0
C3685 C 0.76401 0.13711 0.03847 0.0
C3686 C 0.77099 0.12018 0.04947 0.0
C3687 C 0.78698 0.12342 0.06362 0.0
C3688 C 0.79558 0.14347 0.0667 0.0
C3689 C 0.78863 0.15999 0.05471 0.0
H3690 H 0.69184 0.08877 0.27061 0.0
H3691 H 0.67877 0.14851 0.29772 0.0
H3692 H 0.71256 0.16191 0.28595 0.0
H3693 H 0.7459 0.08904 0.28087 0.0
H3694 H 0.7527 0.07758 0.25578 0.0
H3695 H 0.72817 0.07192 0.26775 0.0
H3696 H 0.711 0.08412 0.23399 0.0
H3697 H 0.73545 0.08956 0.22184 0.0
H3698 H 0.71723 0.10951 0.22375 0.0
H3699 H 0.74746 0.16908 0.27139 0.0
H3700 H 0.77901 0.17172 0.25013 0.0
H3701 H 0.7698 0.10838 0.22919 0.0
C3702 C 0.69622 0.10461 0.27425 0.0
C3703 C 0.68269 0.11752 0.28547 0.0
C3704 C 0.68882 0.1383 0.28935 0.0
C3705 C 0.70807 0.146 0.2828 0.0
C3706 C 0.72106 0.13292 0.2719 0.0
C3707 C 0.71529 0.11278 0.26721 0.0
C3708 C 0.7316 0.10265 0.25363 0.0
C3709 C 0.7401 0.0842 0.2652 0.0
C3710 C 0.72333 0.09608 0.23202 0.0
C3711 C 0.74743 0.12027 0.25139 0.0
C3712 C 0.74105 0.1374 0.26248 0.0
C3713 C 0.75259 0.15576 0.26269 0.0
C3714 C 0.77064 0.15706 0.25064 0.0
C3715 C 0.77723 0.14023 0.23818 0.0
C3716 C 0.76561 0.12135 0.23898 0.0
H3717 H 0.44207 0.45527 0.52941 0.0
H3718 H 0.38092 0.4301 0.52374 0.0
H3719 H 0.3735 0.45824 0.49925 0.0
H3720 H 0.42921 0.50982 0.52746 0.0
H3721 H 0.45147 0.51761 0.51217 0.0
H3722 H 0.45204 0.49579 0.52966 0.0
H3723 H 0.46387 0.47283 0.49855 0.0
H3724 H 0.46337 0.49455 0.48096 0.0
H3725 H 0.44916 0.47112 0.47499 0.0
H3726 H 0.37271 0.48914 0.47397 0.0
H3727 H 0.3785 0.51946 0.45091 0.0
H3728 H 0.44013 0.52579 0.47222 0.0
C3729 C 0.42704 0.45569 0.52316 0.0
C3730 C 0.41209 0.44007 0.52887 0.0
C3731 C 0.39273 0.44156 0.51997 0.0
C3732 C 0.38834 0.45763 0.5059 0.0
C3733 C 0.40337 0.47255 0.50055 0.0
C3734 C 0.42235 0.47177 0.50898 0.0
C3735 C 0.43582 0.48972 0.50039 0.0
C3736 C 0.44253 0.50409 0.51849 0.0
C3737 C 0.45415 0.48157 0.48799 0.0
C3738 C 0.42156 0.50059 0.48568 0.0
C3739 C 0.40288 0.49038 0.48611 0.0
C3740 C 0.38729 0.49721 0.47369 0.0
C3741 C 0.39075 0.51464 0.46053 0.0
C3742 C 0.40973 0.52557 0.45951 0.0
C3743 C 0.42531 0.51822 0.47253 0.0
H3744 H 0.34106 0.76891 0.91274 0.0
H3745 H 0.34918 0.76157 0.84498 0.0
H3746 H 0.31974 0.78362 0.83964 0.0
H3747 H 0.28565 0.7671 0.9131 0.0
H3748 H 0.28386 0.78538 0.93454 0.0
H3749 H 0.30517 0.76893 0.93246 0.0
H3750 H 0.3292 0.80135 0.93297 0.0
H3751 H 0.30787 0.81777 0.93465 0.0
H3752 H 0.32646 0.82128 0.91359 0.0
H3753 H 0.28991 0.80927 0.84222 0.0
H3754 H 0.26219 0.83233 0.85196 0.0
H3755 H 0.27197 0.82093 0.91828 0.0
C3756 C 0.33674 0.77189 0.89668 0.0
C3757 C 0.34792 0.76352 0.87923 0.0
C3758 C 0.34118 0.76767 0.85863 0.0
C3759 C 0.3244 0.7803 0.85549 0.0
C3760 C 0.31399 0.78849 0.87308 0.0
C3761 C 0.31981 0.78409 0.89331 0.0
C3762 C 0.30599 0.7943 0.90968 0.0
C3763 C 0.29449 0.77795 0.92326 0.0
C3764 C 0.3181 0.80958 0.92354 0.0
C3765 C 0.29158 0.80553 0.89565 0.0
C3766 C 0.29652 0.8021 0.87455 0.0
C3767 C 0.28588 0.81165 0.85871 0.0
C3768 C 0.27002 0.8248 0.86444 0.0
C3769 C 0.26431 0.82836 0.88594 0.0
C3770 C 0.2754 0.81834 0.90168 0.0
H3771 H 0.73238 0.02013 0.1445 0.0
H3772 H 0.76528 1.00955 0.08569 0.0
H3773 H 0.78884 0.03881 0.09375 0.0
H3774 H 0.73351 0.07381 0.13974 0.0
H3775 H 0.73601 0.07955 0.16748 0.0
H3776 H 0.72389 0.05564 0.15932 0.0
H3777 H 0.74895 0.03508 0.18095 0.0
H3778 H 0.76097 0.05898 0.18943 0.0
H3779 H 0.77573 0.03951 0.17657 0.0
H3780 H 0.8072 0.07043 0.1067 0.0
H3781 H 0.81904 0.10298 0.12328 0.0
H3782 H 0.77242 0.09562 0.17231 0.0
C3783 C 0.74503 0.02358 0.13378 0.0
C3784 C 0.74756 1.01223 0.11482 0.0
C3785 C 0.76354 1.01775 0.10055 0.0
C3786 C 0.7769 0.03438 0.10497 0.0
C3787 C 0.77374 0.04567 0.1235 0.0
C3788 C 0.75818 0.04058 0.1377 0.0
C3789 C 0.75686 0.05662 0.15526 0.0
C3790 C 0.73635 0.06702 0.15544 0.0
C3791 C 0.76087 0.04697 0.17683 0.0
C3792 C 0.77391 0.07163 0.14851 0.0
C3793 C 0.78361 0.06478 0.13034 0.0
C3794 C 0.79977 0.07592 0.12097 0.0
C3795 C 0.80635 0.09445 0.13048 0.0
C3796 C 0.79658 0.10198 0.14898 0.0
C3797 C 0.78005 0.09039 0.15804 0.0
H3798 H 0.81685 0.72355 0.62264 0.0
H3799 H 0.80249 0.69053 0.68087 0.0
H3800 H 0.78749 0.72145 0.69607 0.0
H3801 H 0.82591 0.77641 0.64807 0.0
H3802 H 0.81391 0.78906 0.62668 0.0
H3803 H 0.82778 0.76607 0.62163 0.0
H3804 H 0.79661 0.74821 0.60481 0.0
H3805 H 0.78262 0.77106 0.60922 0.0
H3806 H 0.77298 0.74669 0.61956 0.0
H3807 H 0.76827 0.75279 0.7024 0.0
H3808 H 0.74508 0.78144 0.69805 0.0
H3809 H 0.77303 0.7949 0.63675 0.0
C3810 C 0.81127 0.72314 0.63886 0.0
C3811 C 0.81105 0.70478 0.6506 0.0
C3812 C 0.80293 0.7045 0.67155 0.0
C3813 C 0.79454 0.72206 0.68047 0.0
C3814 C 0.79459 0.73987 0.66835 0.0
C3815 C 0.80287 0.7406 0.64802 0.0
C3816 C 0.79827 0.7605 0.63719 0.0
C3817 C 0.81763 0.77379 0.63317 0.0
C3818 C 0.78693 0.75635 0.6165 0.0
C3819 C 0.78494 0.77007 0.65403 0.0
C3820 C 0.78344 0.75828 0.67214 0.0
C3821 C 0.76977 0.76259 0.68861 0.0
C3822 C 0.75669 0.77888 0.68608 0.0
C3823 C 0.75738 0.79029 0.66714 0.0
C3824 C 0.77233 0.78646 0.65149 0.0
H3825 H 0.29457 1.01108 0.91556 0.0
H3826 H 0.32501 0.02598 0.85577 0.0
H3827 H 0.31196 0.993 0.84076 0.0
H3828 H 0.30487 0.96051 0.91743 0.0
H3829 H 0.28077 0.95109 0.92794 0.0
H3830 H 0.28929 0.97721 0.93319 0.0
H3831 H 0.2568 0.99118 0.9173 0.0
H3832 H 0.24783 0.96504 0.91253 0.0
H3833 H 0.24966 0.98327 0.8911 0.0
H3834 H 0.30201 0.95591 0.83478 0.0
H3835 H 0.28765 0.92018 0.83514 0.0
H3836 H 0.26267 0.9303 0.89826 0.0
C3837 C 0.29791 1.00774 0.89908 0.0
C3838 C 0.31091 0.02092 0.88689 0.0
C3839 C 0.31502 1.01609 0.86539 0.0
C3840 C 0.30791 0.99734 0.85678 0.0
C3841 C 0.29644 0.98396 0.86974 0.0
C3842 C 0.29077 0.98926 0.89016 0.0
C3843 C 0.27876 0.97189 0.90095 0.0
C3844 C 0.28905 0.96477 0.92106 0.0
C3845 C 0.25697 0.97822 0.90574 0.0
C3846 C 0.27952 0.95564 0.88379 0.0
C3847 C 0.28982 0.96285 0.86592 0.0
C3848 C 0.29351 0.9502 0.84849 0.0
C3849 C 0.28562 0.92985 0.84899 0.0
C3850 C 0.27416 0.92254 0.86678 0.0
C3851 C 0.27139 0.93553 0.88447 0.0
H3852 H 0.43899 0.95271 0.0252 0.0
H3853 H 0.37655 0.93045 0.02398 0.0
H3854 H 0.36882 0.95919 1.00022 0.0
H3855 H 0.42891 1.00776 0.02455 0.0
H3856 H 0.45046 1.01445 1.0077 0.0
H3857 H 0.45106 0.99244 0.02493 0.0
H3858 H 0.45952 0.96907 0.99292 0.0
H3859 H 0.45897 0.99099 0.97558 0.0
H3860 H 0.44317 0.96838 0.97056 0.0
H3861 H 0.36797 0.9906 0.97519 0.0
H3862 H 0.37392 0.02092 0.95209 0.0
H3863 H 0.43695 0.02358 0.96911 0.0
C3864 C 0.42361 0.95388 0.0201 0.0
C3865 C 0.40838 0.93896 0.02681 0.0
C3866 C 0.38857 0.94139 0.01938 0.0
C3867 C 0.38402 0.9578 1.00575 0.0
C3868 C 0.39936 0.97204 0.99939 0.0
C3869 C 0.4188 0.97025 1.00639 0.0
C3870 C 0.43259 0.9875 0.99698 0.0
C3871 C 0.44127 1.00136 0.01459 0.0
C3872 C 0.44957 0.97844 0.98319 0.0
C3873 C 0.41797 0.99925 0.98352 0.0
C3874 C 0.39886 0.99005 0.98518 0.0
C3875 C 0.3829 0.99788 0.97397 0.0
C3876 C 0.38645 1.0153 0.96079 0.0
C3877 C 0.40587 0.02519 0.95859 0.0
C3878 C 0.4218 1.01683 0.97038 0.0
H3879 H 0.71142 0.68429 0.52921 0.0
H3880 H 0.71528 0.63122 0.48745 0.0
H3881 H 0.74597 0.62069 0.50576 0.0
H3882 H 0.76362 0.69637 0.53015 0.0
H3883 H 0.76284 0.70459 0.55741 0.0
H3884 H 0.74093 0.70683 0.54149 0.0
H3885 H 0.71947 0.68523 0.56882 0.0
H3886 H 0.7413 0.68298 0.58488 0.0
H3887 H 0.72758 0.66009 0.57626 0.0
H3888 H 0.77733 0.61657 0.52997 0.0
H3889 H 0.8053 0.62055 0.55559 0.0
H3890 H 0.77918 0.67694 0.57895 0.0
C3891 C 0.7185 0.67032 0.52392 0.0
C3892 C 0.71083 0.65854 0.50697 0.0
C3893 C 0.72085 0.64049 0.50049 0.0
C3894 C 0.73828 0.63439 0.51079 0.0
C3895 C 0.7455 0.64656 0.52744 0.0
C3896 C 0.7358 0.66418 0.53379 0.0
C3897 C 0.74649 0.67522 0.55148 0.0
C3898 C 0.75391 0.69703 0.54471 0.0
C3899 C 0.7329 0.67591 0.57154 0.0
C3900 C 0.76382 0.66116 0.5542 0.0
C3901 C 0.76318 0.64456 0.54047 0.0
C3902 C 0.77792 0.62959 0.54074 0.0
C3903 C 0.7937 0.63189 0.55532 0.0
C3904 C 0.79459 0.64917 0.56905 0.0
C3905 C 0.77927 0.66371 0.56842 0.0
H3906 H 0.30257 0.91699 0.05984 0.0
H3907 H 0.30545 0.85404 0.08214 0.0
H3908 H 0.28281 0.84243 0.05407 0.0
H3909 H 0.2529 0.91682 0.03606 0.0
H3910 H 0.2613 0.92883 1.01162 0.0
H3911 H 0.2734 0.9354 0.03604 0.0
H3912 H 0.30814 0.92675 0.02299 0.0
H3913 H 0.29831 0.9216 0.99722 0.0
H3914 H 0.31247 0.90235 1.01023 0.0
H3915 H 0.2739 0.83598 0.01747 0.0
H3916 H 0.26343 0.83589 0.98064 0.0
H3917 H 0.26643 0.90296 0.98034 0.0
C3918 C 0.2973 0.90098 0.05971 0.0
C3919 C 0.30631 0.88628 0.07256 0.0
C3920 C 0.29901 0.86553 0.0722 0.0
C3921 C 0.28642 0.85873 0.05601 0.0
C3922 C 0.28109 0.87304 0.04096 0.0
C3923 C 0.28557 0.89392 0.04305 0.0
C3924 C 0.28152 0.90547 0.02288 0.0
C3925 C 0.26633 0.92254 0.02684 0.0
C3926 C 0.30128 0.91456 0.01277 0.0
C3927 C 0.2733 0.88787 1.00947 0.0
C3928 C 0.2743 0.86924 0.01988 0.0
C3929 C 0.27186 0.85045 1.00947 0.0
C3930 C 0.2662 0.85059 0.98844 0.0
C3931 C 0.26344 0.86946 0.97791 0.0
C3932 C 0.26754 0.88835 0.98838 0.0
H3933 H 0.62913 0.55769 0.50861 0.0
H3934 H 0.69274 0.5599 0.49032 0.0
H3935 H 0.69591 0.52474 0.50468 0.0
H3936 H 0.633 0.5349 0.55614 0.0
H3937 H 0.61019 0.51902 0.55473 0.0
H3938 H 0.61246 0.54269 0.54017 0.0
H3939 H 0.60515 0.52275 0.50507 0.0
H3940 H 0.60237 0.49925 0.52017 0.0
H3941 H 0.62 0.50083 0.49809 0.0
H3942 H 0.69323 0.49275 0.52608 0.0
H3943 H 0.68523 0.46682 0.55369 0.0
H3944 H 0.62283 0.48427 0.55547 0.0
C3945 C 0.64375 0.55077 0.5074 0.0
C3946 C 0.66078 0.56153 0.49853 0.0
C3947 C 0.67955 0.5519 0.49717 0.0
C3948 C 0.6814 0.53188 0.50501 0.0
C3949 C 0.66422 0.52171 0.51361 0.0
C3950 C 0.64571 0.5308 0.51466 0.0
C3951 C 0.62996 0.51756 0.5264 0.0
C3952 C 0.6209 0.52923 0.54549 0.0
C3953 C 0.61339 0.50964 0.51153 0.0
C3954 C 0.64284 0.50019 0.53316 0.0
C3955 C 0.66247 0.50262 0.52523 0.0
C3956 C 0.67782 0.49026 0.5318 0.0
C3957 C 0.67318 0.47564 0.54748 0.0
C3958 C 0.65336 0.47348 0.55615 0.0
C3959 C 0.63786 0.48521 0.54832 0.0
H3960 H 0.76262 0.2795 0.18867 0.0
H3961 H 0.70694 0.25282 0.16463 0.0
H3962 H 0.72414 0.22098 0.15518 0.0
H3963 H 0.79411 0.26375 0.15292 0.0
H3964 H 0.81477 0.25606 0.16874 0.0
H3965 H 0.79783 0.27497 0.17874 0.0
H3966 H 0.78916 0.25321 0.21207 0.0
H3967 H 0.80706 0.23469 0.20286 0.0
H3968 H 0.78138 0.22642 0.20926 0.0
H3969 H 0.7494 0.19925 0.13701 0.0
H3970 H 0.77931 0.18053 0.12413 0.0
H3971 H 0.81641 0.21551 0.16803 0.0
C3972 C 0.75378 0.26627 0.18312 0.0
C3973 C 0.73354 0.26825 0.17761 0.0
C3974 C 0.72241 0.25117 0.16936 0.0
C3975 C 0.7321 0.23318 0.16364 0.0
C3976 C 0.75259 0.23233 0.16737 0.0
C3977 C 0.76306 0.24776 0.17823 0.0
C3978 C 0.78521 0.2432 0.17933 0.0
C3979 C 0.79874 0.26053 0.16932 0.0
C3980 C 0.79104 0.23912 0.20224 0.0
C3981 C 0.78564 0.22378 0.16607 0.0
C3982 C 0.76682 0.21812 0.15877 0.0
C3983 C 0.76414 0.20296 0.14327 0.0
C3984 C 0.78116 0.19279 0.1357 0.0
C3985 C 0.80031 0.19761 0.14405 0.0
C3986 C 0.80235 0.21268 0.16002 0.0
H3987 H 0.268 0.31881 0.41806 0.0
H3988 H 0.25487 0.32569 0.35179 0.0
H3989 H 0.28328 0.30348 0.34211 0.0
H3990 H 0.32202 0.32174 0.41068 0.0
H3991 H 0.32679 0.30326 0.43095 0.0
H3992 H 0.30458 0.31842 0.43283 0.0
H3993 H 0.28234 0.28512 0.4358 0.0
H3994 H 0.3043 0.26955 0.43365 0.0
H3995 H 0.28399 0.26569 0.41544 0.0
H3996 H 0.31423 0.27929 0.33958 0.0
H3997 H 0.34484 0.25891 0.34476 0.0
H3998 H 0.33935 0.2699 0.41225 0.0
C3999 C 0.27078 0.3153 0.40152 0.0
C4000 C 0.25855 0.3238 0.38577 0.0
C4001 C 0.26353 0.31925 0.3643 0.0
C4002 C 0.2798 0.30659 0.35859 0.0
C4003 C 0.29159 0.29858 0.37443 0.0
C4004 C 0.28736 0.30297 0.39549 0.0
C4005 C 0.303 0.29342 0.4094 0.0
C4006 C 0.31479 0.31022 0.42169 0.0
C4007 C 0.29281 0.27749 0.42448 0.0
C4008 C 0.31664 0.28299 0.39301 0.0
C4009 C 0.30972 0.28587 0.37289 0.0
C4010 C 0.31976 0.27717 0.35534 0.0
C4011 C 0.33723 0.26552 0.35839 0.0
C4012 C 0.34504 0.26285 0.37883 0.0
C4013 C 0.33426 0.27178 0.39627 0.0
H4014 H 0.25657 0.37722 0.28274 0.0
H4015 H 0.23157 0.43797 0.28539 0.0
H4016 H 0.24906 0.44688 0.25137 0.0
H4017 H 0.30313 0.39309 0.26782 0.0
H4018 H 0.3086 0.37115 0.25132 0.0
H4019 H 0.29036 0.36846 0.27251 0.0
H4020 H 0.2622 0.35567 0.24592 0.0
H4021 H 0.28235 0.35687 0.22625 0.0
H4022 H 0.2596 0.37003 0.22185 0.0
H4023 H 0.27559 0.45166 0.22357 0.0
H4024 H 0.30925 0.45229 0.20628 0.0
H4025 H 0.3137 0.38692 0.21802 0.0
C4026 C 0.25428 0.39211 0.27565 0.0
C4027 C 0.24301 0.40702 0.28621 0.0
C4028 C 0.24016 0.42643 0.27705 0.0
C4029 C 0.25009 0.43159 0.25794 0.0
C4030 C 0.26221 0.41687 0.24837 0.0
C4031 C 0.26389 0.39731 0.25668 0.0
C4032 C 0.27953 0.38509 0.245 0.0
C4033 C 0.29639 0.37915 0.26003 0.0
C4034 C 0.2703 0.36581 0.23416 0.0
C4035 C 0.28678 0.40101 0.22903 0.0
C4036 C 0.27642 0.41917 0.23094 0.0
C4037 C 0.28341 0.43742 0.2213 0.0
C4038 C 0.30246 0.43762 0.2113 0.0
C4039 C 0.31386 0.41963 0.21131 0.0
C4040 C 0.30497 0.40074 0.2179 0.0
H4041 H 0.66782 0.7077 0.76662 0.0
H4042 H 0.60905 0.7234 0.79253 0.0
H4043 H 0.60884 0.75321 0.76829 0.0
H4044 H 0.68763 0.76122 0.75501 0.0
H4045 H 0.69977 0.75304 0.73073 0.0
H4046 H 0.69706 0.73554 0.75275 0.0
H4047 H 0.67891 0.70858 0.72885 0.0
H4048 H 0.68137 0.72596 0.70682 0.0
H4049 H 0.65678 0.71574 0.715 0.0
H4050 H 0.61181 0.77602 0.73668 0.0
H4051 H 0.61947 0.79392 0.70305 0.0
H4052 H 0.67655 0.7636 0.6973 0.0
C4053 C 0.65516 0.71777 0.76779 0.0
C4054 C 0.63845 0.71322 0.78165 0.0
C4055 C 0.62212 0.72668 0.78234 0.0
C4056 C 0.62184 0.74358 0.7685 0.0
C4057 C 0.63808 0.74687 0.75425 0.0
C4058 C 0.6546 0.73452 0.75404 0.0
C4059 C 0.66917 0.73996 0.73584 0.0
C4060 C 0.68962 0.74792 0.74408 0.0
C4061 C 0.67169 0.72146 0.72075 0.0
C4062 C 0.65807 0.75704 0.72542 0.0
C4063 C 0.64018 0.76075 0.73637 0.0
C4064 C 0.62617 0.77403 0.72859 0.0
C4065 C 0.63061 0.78396 0.70938 0.0
C4066 C 0.64882 0.78048 0.69792 0.0
C4067 C 0.66286 0.76701 0.70613 0.0
H4068 H 0.44553 0.3581 0.24369 0.0
H4069 H 0.38467 0.37175 0.22597 0.0
H4070 H 0.37216 0.33826 0.24047 0.0
H4071 H 0.44278 0.30162 0.2348 0.0
H4072 H 0.45735 0.29713 0.25779 0.0
H4073 H 0.46111 0.32091 0.2434 0.0
H4074 H 0.45431 0.34072 0.27862 0.0
H4075 H 0.44976 0.31672 0.29239 0.0
H4076 H 0.43077 0.33594 0.29294 0.0
H4077 H 0.36583 0.30375 0.25917 0.0
H4078 H 0.36664 0.27188 0.28077 0.0
H4079 H 0.43145 0.28156 0.28637 0.0
C4080 C 0.42966 0.35383 0.24247 0.0
C4081 C 0.41612 0.36749 0.23355 0.0
C4082 C 0.39535 0.36153 0.23272 0.0
C4083 C 0.38809 0.34249 0.24086 0.0
C4084 C 0.40173 0.32952 0.24993 0.0
C4085 C 0.4221 0.33496 0.25079 0.0
C4086 C 0.43333 0.31906 0.26289 0.0
C4087 C 0.44959 0.30911 0.24886 0.0
C4088 C 0.44257 0.32868 0.28289 0.0
C4089 C 0.41618 0.30377 0.26841 0.0
C4090 C 0.39804 0.30998 0.26087 0.0
C4091 C 0.38002 0.29862 0.26497 0.0
C4092 C 0.38058 0.28052 0.27723 0.0
C4093 C 0.39905 0.274 0.2852 0.0
C4094 C 0.41701 0.28583 0.28042 0.0
H4095 H 0.67963 0.63732 0.77382 0.0
H4096 H 0.69067 0.57342 0.78874 0.0
H4097 H 0.72535 0.57772 0.77475 0.0
H4098 H 0.70803 0.63789 0.72455 0.0
H4099 H 0.71808 0.6639 0.72758 0.0
H4100 H 0.69413 0.65645 0.73981 0.0
H4101 H 0.70726 0.66844 0.77615 0.0
H4102 H 0.73133 0.67587 0.76409 0.0
H4103 H 0.73012 0.65805 0.7859 0.0
H4104 H 0.75906 0.58821 0.75821 0.0
H4105 H 0.78847 0.60411 0.73879 0.0
H4106 H 0.75635 0.66104 0.73399 0.0
C4107 C 0.68937 0.62428 0.77427 0.0
C4108 C 0.68217 0.60505 0.78268 0.0
C4109 C 0.69555 0.58838 0.78257 0.0
C4110 C 0.71545 0.59063 0.77464 0.0
C4111 C 0.72208 0.60966 0.76657 0.0
C4112 C 0.70946 0.62621 0.76619 0.0
C4113 C 0.72034 0.64472 0.75577 0.0
C4114 C 0.7095 0.65111 0.73574 0.0
C4115 C 0.72238 0.66284 0.77142 0.0
C4116 C 0.74085 0.63589 0.75034 0.0
C4117 C 0.74157 0.61567 0.75685 0.0
C4118 C 0.75871 0.6041 0.75313 0.0
C4119 C 0.77543 0.6133 0.74213 0.0
C4120 C 0.77499 0.63391 0.73487 0.0
C4121 C 0.75744 0.64532 0.73941 0.0
H4122 H 0.72904 0.52243 0.64586 0.0
H4123 H 0.76236 0.5094 0.58789 0.0
H4124 H 0.78637 0.53847 0.59529 0.0
H4125 H 0.73144 0.57611 0.63934 0.0
H4126 H 0.7337 0.58258 0.66693 0.0
H4127 H 0.72113 0.55873 0.65931 0.0
H4128 H 0.74536 0.53818 0.68198 0.0
H4129 H 0.75787 0.56201 0.68991 0.0
H4130 H 0.77226 0.54181 0.67787 0.0
H4131 H 0.80539 0.57015 0.60766 0.0
H4132 H 0.81778 0.60289 0.62354 0.0
H4133 H 0.77039 0.59784 0.67199 0.0
C4134 C 0.74183 0.52534 0.63518 0.0
C4135 C 0.74437 0.51329 0.61666 0.0
C4136 C 0.76059 0.51812 0.60242 0.0
C4137 C 0.77421 0.53465 0.60647 0.0
C4138 C 0.77108 0.54659 0.62458 0.0
C4139 C 0.75526 0.54223 0.6387 0.0
C4140 C 0.75412 0.5588 0.65576 0.0
C4141 C 0.7339 0.5697 0.65529 0.0
C4142 C 0.75762 0.54965 0.67768 0.0
C4143 C 0.77159 0.57324 0.64885 0.0
C4144 C 0.78133 0.56568 0.63103 0.0
C4145 C 0.79791 0.57619 0.62165 0.0
C4146 C 0.80482 0.59482 0.63077 0.0
C4147 C 0.795 0.60307 0.6489 0.0
C4148 C 0.77808 0.59209 0.65798 0.0
H4149 H 0.29707 0.51421 0.42206 0.0
H4150 H 0.32829 0.52268 0.36139 0.0
H4151 H 0.31308 0.48983 0.34876 0.0
H4152 H 0.30168 0.46074 0.42627 0.0
H4153 H 0.2767 0.45546 0.43729 0.0
H4154 H 0.28915 0.48021 0.44165 0.0
H4155 H 0.25913 0.49891 0.42567 0.0
H4156 H 0.2463 0.47426 0.42201 0.0
H4157 H 0.25049 0.49139 0.39987 0.0
H4158 H 0.29747 0.45522 0.34385 0.0
H4159 H 0.27473 0.42428 0.34334 0.0
H4160 H 0.25238 0.43874 0.40642 0.0
C4161 C 0.30024 0.50937 0.40594 0.0
C4162 C 0.31381 0.52081 0.3927 0.0
C4163 C 0.31774 0.51416 0.3717 0.0
C4164 C 0.30946 0.49541 0.36449 0.0
C4165 C 0.29708 0.48387 0.37839 0.0
C4166 C 0.29186 0.49087 0.39836 0.0
C4167 C 0.27753 0.4758 0.40975 0.0
C4168 C 0.28683 0.46758 0.42993 0.0
C4169 C 0.25715 0.48567 0.4146 0.0
C4170 C 0.27569 0.45913 0.39308 0.0
C4171 C 0.28747 0.46396 0.37531 0.0
C4172 C 0.28814 0.45123 0.35761 0.0
C4173 C 0.27543 0.43363 0.35756 0.0
C4174 C 0.2623 0.42922 0.37502 0.0
C4175 C 0.26281 0.44165 0.39324 0.0
H4176 H 0.10457 0.97914 0.4058 0.0
H4177 H 0.14566 0.97524 0.35157 0.0
H4178 H 0.14908 1.01307 0.35071 0.0
H4179 H 0.08381 0.03336 0.39228 0.0
H4180 H 0.08326 0.03962 0.42007 0.0
H4181 H 0.07756 1.01353 0.41144 0.0
H4182 H 0.10521 1.00066 0.43596 0.0
H4183 H 0.11135 0.02652 0.44414 0.0
H4184 H 0.13076 1.01089 0.43271 0.0
H4185 H 0.15664 0.04745 0.36192 0.0
H4186 H 0.16629 0.07772 0.38291 0.0
H4187 H 0.12088 0.06022 0.43086 0.0
C4188 C 0.11357 0.98631 0.39316 0.0
C4189 C 0.12501 0.97451 0.37883 0.0
C4190 C 0.13689 0.98419 0.36273 0.0
C4191 C 0.13868 1.00564 0.36196 0.0
C4192 C 0.12832 1.01691 0.37728 0.0
C4193 C 0.11565 1.00764 0.39241 0.0
C4194 C 0.10967 0.0226 0.40966 0.0
C4195 C 0.08724 0.02758 0.40827 0.0
C4196 C 0.11457 1.01468 0.43189 0.0
C4197 C 0.12305 0.0409 0.40327 0.0
C4198 C 0.13295 0.03757 0.38409 0.0
C4199 C 0.14843 0.05068 0.37648 0.0
C4200 C 0.15404 0.06765 0.38875 0.0
C4201 C 0.14427 0.0712 0.40851 0.0
C4202 C 0.12835 0.05792 0.41566 0.0
H4203 H 0.08515 0.39069 0.69716 0.0
H4204 H 0.085 0.39373 0.62864 0.0
H4205 H 0.05867 0.41974 0.63115 0.0
H4206 H 0.0369 0.38378 0.70079 0.0
H4207 H 0.03257 0.39679 0.72559 0.0
H4208 H 0.0566 0.38616 0.7199 0.0
H4209 H 0.07466 0.42157 0.72576 0.0
H4210 H 0.0507 0.43276 0.73201 0.0
H4211 H 0.06698 0.44387 0.71151 0.0
H4212 H 1.02824 0.43796 0.64031 0.0
H4213 H 0.99389 0.44307 0.65402 0.0
H4214 H 1.01145 0.42412 0.71639 0.0
C4215 C 0.08021 0.39736 0.6826 0.0
C4216 C 0.08699 0.39031 0.66267 0.0
C4217 C 0.07997 0.39914 0.64405 0.0
C4218 C 0.06521 0.41402 0.64539 0.0
C4219 C 0.05782 0.41962 0.66541 0.0
C4220 C 0.06506 0.41138 0.68371 0.0
C4221 C 0.0513 0.41486 0.70265 0.0
C4222 C 0.04391 0.39419 0.71278 0.0
C4223 C 0.06153 0.42913 0.71894 0.0
C4224 C 0.03455 0.42544 0.69197 0.0
C4225 C 0.039 0.42888 0.67072 0.0
C4226 C 1.02478 0.43594 0.65699 0.0
C4227 C 1.0053 0.43873 0.66495 0.0
C4228 C 1.00024 0.4339 0.68627 0.0
C4229 C 1.01517 0.42806 0.70011 0.0
H4230 H 0.64776 0.33657 0.90788 0.0
H4231 H 0.68945 0.32692 0.85536 0.0
H4232 H 0.67901 0.29045 0.85427 0.0
H4233 H 0.66237 0.3037 0.93596 0.0
H4234 H 0.63969 0.29272 0.94833 0.0
H4235 H 0.63965 0.31821 0.93796 0.0
H4236 H 0.60979 0.30842 0.91395 0.0
H4237 H 0.60915 0.28275 0.92488 0.0
H4238 H 0.61117 0.28631 0.89666 0.0
H4239 H 0.67932 0.25703 0.86949 0.0
H4240 H 0.68446 0.22964 0.89533 0.0
H4241 H 0.64271 0.25797 0.93929 0.0
C4242 C 0.65364 0.3269 0.89534 0.0
C4243 C 0.6698 0.3342 0.88225 0.0
C4244 C 0.67716 0.32155 0.86577 0.0
C4245 C 0.67128 0.30068 0.86506 0.0
C4246 C 0.65789 0.29297 0.88072 0.0
C4247 C 0.6484 0.30588 0.89512 0.0
C4248 C 0.63901 0.29381 0.91355 0.0
C4249 C 0.64563 0.30263 0.93517 0.0
C4250 C 0.6159 0.29275 0.91216 0.0
C4251 C 0.64763 0.27296 0.90914 0.0
C4252 C 0.65771 0.27253 0.88967 0.0
C4253 C 0.67068 0.25678 0.88423 0.0
C4254 C 0.67384 0.24151 0.89913 0.0
C4255 C 0.66392 0.24203 0.91909 0.0
C4256 C 0.65003 0.2573 0.92382 0.0
H4257 H 0.78122 0.97705 0.09697 0.0
H4258 H 0.76405 0.91279 0.08986 0.0
H4259 H 0.79966 0.90392 0.08662 0.0
H4260 H 0.83823 0.97125 0.06903 0.0
H4261 H 0.84729 0.99001 0.08799 0.0
H4262 H 0.82324 0.99308 0.07584 0.0
H4263 H 0.80624 0.99574 0.11273 0.0
H4264 H 0.82978 0.99261 0.12489 0.0
H4265 H 0.80878 0.97513 0.13148 0.0
H4266 H 0.83052 0.89994 0.10286 0.0
H4267 H 0.85133 0.90164 0.13422 0.0
H4268 H 0.85265 0.96834 0.13166 0.0
C4269 C 0.7854 0.96143 0.09336 0.0
C4270 C 0.77065 0.94554 0.09366 0.0
C4271 C 0.77563 0.92503 0.08957 0.0
C4272 C 0.79581 0.91999 0.08747 0.0
C4273 C 0.8106 0.93567 0.08988 0.0
C4274 C 0.80562 0.9563 0.09193 0.0
C4275 C 0.82305 0.96932 0.10024 0.0
C4276 C 0.83358 0.98162 0.08219 0.0
C4277 C 0.81654 0.98396 0.11843 0.0
C4278 C 0.83623 0.9523 0.10749 0.0
C4279 C 0.82975 0.93317 0.09974 0.0
C4280 C 0.83621 0.91481 0.10837 0.0
C4281 C 0.84785 0.91586 0.12642 0.0
C4282 C 0.85298 0.93518 0.13547 0.0
C4283 C 0.84864 0.95345 0.1249 0.0
H4284 H 0.15455 0.21513 0.85399 0.0
H4285 H 0.10784 0.18475 0.89214 0.0
H4286 H 0.11069 0.21195 0.91888 0.0
H4287 H 0.17457 0.2547 0.9033 0.0
H4288 H 0.17774 0.27447 0.88347 0.0
H4289 H 0.18546 0.24859 0.87776 0.0
H4290 H 0.16354 0.24795 0.84469 0.0
H4291 H 0.15584 0.27339 0.85039 0.0
H4292 H 0.13694 0.2529 0.84743 0.0
H4293 H 0.10253 0.24547 0.92775 0.0
H4294 H 0.08612 0.27721 0.9177 0.0
H4295 H 0.13389 0.29059 0.8717 0.0
C4296 C 0.14597 0.21405 0.86875 0.0
C4297 C 0.13082 0.19865 0.87125 0.0
C4298 C 0.11934 0.19694 0.89012 0.0
C4299 C 0.12115 0.21224 0.90548 0.0
C4300 C 0.13361 0.2296 0.90102 0.0
C4301 C 0.1466 0.2303 0.88328 0.0
C4302 C 0.15281 0.25232 0.87766 0.0
C4303 C 0.17388 0.25784 0.88607 0.0
C4304 C 0.15214 0.25685 0.85365 0.0
C4305 C 0.1369 0.26325 0.8904 0.0
C4306 C 0.12774 0.25041 0.9056 0.0
C4307 C 0.10994 0.25572 0.91632 0.0
C4308 C 0.10042 0.27346 0.91023 0.0
C4309 C 0.10861 0.28532 0.89337 0.0
C4310 C 0.12744 0.28098 0.88427 0.0
H4311 H 0.8408 0.34163 0.15089 0.0
H4312 H 0.83531 0.40794 0.15126 0.0
H4313 H 0.81138 0.40491 0.18138 0.0
H4314 H 0.79741 0.33177 0.14493 0.0
H4315 H 0.7923 0.30899 0.1607 0.0
H4316 H 0.81744 0.31503 0.15176 0.0
H4317 H 0.8299 0.31485 0.18987 0.0
H4318 H 0.80456 0.30854 0.19942 0.0
H4319 H 0.81825 0.33064 0.20993 0.0
H4320 H 0.78028 0.3957 0.1983 0.0
H4321 H 0.74544 0.38389 0.19359 0.0
H4322 H 0.7651 0.32272 0.17737 0.0
C4323 C 0.83511 0.35557 0.15797 0.0
C4324 C 0.83934 0.37495 0.1486 0.0
C4325 C 0.83205 0.39291 0.15819 0.0
C4326 C 0.81858 0.39124 0.1755 0.0
C4327 C 0.81228 0.37152 0.18254 0.0
C4328 C 0.82054 0.35384 0.17405 0.0
C4329 C 0.80693 0.33489 0.17798 0.0
C4330 C 0.80329 0.32201 0.15763 0.0
C4331 C 0.81542 0.32145 0.19534 0.0
C4332 C 0.7882 0.34528 0.18598 0.0
C4333 C 0.79233 0.36592 0.19077 0.0
C4334 C 0.77699 0.37955 0.19502 0.0
C4335 C 0.75714 0.37269 0.19206 0.0
C4336 C 0.75292 0.35253 0.18437 0.0
C4337 C 0.76831 0.33825 0.18301 0.0
H4338 H 0.66712 0.02239 0.31216 0.0
H4339 H 0.61494 1.01528 0.35474 0.0
H4340 H 0.62837 0.98332 0.3686 0.0
H4341 H 0.67175 0.96719 0.30063 0.0
H4342 H 0.69895 0.96868 0.29993 0.0
H4343 H 0.68496 0.99077 0.29266 0.0
H4344 H 0.70391 1.01285 0.32062 0.0
H4345 H 0.71779 0.99076 0.3281 0.0
H4346 H 0.70341 1.00454 0.34778 0.0
H4347 H 0.64813 0.95269 0.37941 0.0
H4348 H 0.67169 0.92425 0.38385 0.0
H4349 H 0.71069 0.95091 0.33424 0.0
C4350 C 0.65832 1.01393 0.32412 0.0
C4351 C 0.63985 0.02148 0.33224 0.0
C4352 C 0.62905 1.00995 0.34813 0.0
C4353 C 0.6366 0.99173 0.35622 0.0
C4354 C 0.65498 0.98498 0.34827 0.0
C4355 C 0.66562 0.99556 0.33239 0.0
C4356 C 0.68509 0.98492 0.32675 0.0
C4357 C 0.68518 0.97745 0.30363 0.0
C4358 C 0.70364 0.99912 0.33108 0.0
C4359 C 0.68368 0.96688 0.34204 0.0
C4360 C 0.66626 0.96722 0.35438 0.0
C4361 C 0.6618 0.9522 0.36975 0.0
C4362 C 0.67531 0.93615 0.37227 0.0
C4363 C 0.69304 0.93522 0.35944 0.0
C4364 C 0.69726 0.95103 0.34433 0.0
H4365 H 1.0044 0.90078 0.5424 0.0
H4366 H 0.99283 0.84365 0.57625 0.0
H4367 H 0.02899 0.8378 0.57673 0.0
H4368 H 0.06026 0.88298 0.51887 0.0
H4369 H 0.06888 0.90954 0.52155 0.0
H4370 H 0.04389 0.90339 0.51224 0.0
H4371 H 0.02884 0.92651 0.5414 0.0
H4372 H 0.05349 0.93242 0.55075 0.0
H4373 H 0.03436 0.92158 0.56871 0.0
H4374 H 0.06067 0.84699 0.59073 0.0
H4375 H 0.08751 0.86634 0.60912 0.0
H4376 H 0.08091 0.91791 0.56675 0.0
C4377 C 1.00966 0.88648 0.54866 0.0
C4378 C 0.99632 0.87302 0.55989 0.0
C4379 C 1.00313 0.85437 0.56799 0.0
C4380 C 1.02366 0.8508 0.56808 0.0
C4381 C 0.03698 0.86595 0.55983 0.0
C4382 C 0.03029 0.883 0.54911 0.0
C4383 C 0.04708 0.89923 0.54619 0.0
C4384 C 0.05556 0.89873 0.52337 0.0
C4385 C 0.04051 0.92117 0.55221 0.0
C4386 C 0.06208 0.89097 0.56131 0.0
C4387 C 0.05665 0.87117 0.56786 0.0
C4388 C 0.06573 0.86202 0.58496 0.0
C4389 C 0.08062 0.8733 0.59568 0.0
C4390 C 0.08613 0.89357 0.58934 0.0
C4391 C 0.07708 0.90227 0.57169 0.0
H4392 H 0.42357 0.10795 0.0662 0.0
H4393 H 0.44655 0.17115 0.05878 0.0
H4394 H 0.43252 0.17145 0.02269 0.0
H4395 H 0.43811 0.09194 0.01604 0.0
H4396 H 0.41697 0.07398 0.01309 0.0
H4397 H 0.4259 0.08024 0.039 0.0
H4398 H 0.39007 0.09125 0.05045 0.0
H4399 H 0.38104 0.0852 0.02443 0.0
H4400 H 0.3778 0.11058 0.0355 0.0
H4401 H 0.41832 0.16338 0.98626 0.0
H4402 H 0.40997 0.14702 0.95213 0.0
H4403 H 0.39809 0.08856 0.98351 0.0
C4404 C 0.42532 0.12221 0.05741 0.0
C4405 C 0.43591 0.13978 0.06575 0.0
C4406 C 0.43823 0.15766 0.05306 0.0
C4407 C 0.43026 0.15793 0.03254 0.0
C4408 C 0.42012 0.14017 0.0249 0.0
C4409 C 0.41788 0.12258 0.03699 0.0
C4410 C 0.40871 0.10463 0.02459 0.0
C4411 C 0.42329 0.08666 0.02308 0.0
C4412 C 0.38818 0.0975 0.03433 0.0
C4413 C 0.40623 0.11469 1.00331 0.0
C4414 C 0.41253 0.13531 1.00392 0.0
C4415 C 0.41304 0.14741 0.98578 0.0
C4416 C 0.40798 0.13803 0.96647 0.0
C4417 C 0.40267 0.11668 0.96524 0.0
C4418 C 0.40109 0.10508 0.98408 0.0
H4419 H 0.93796 0.64413 0.1817 0.0
H4420 H 0.9412 0.70851 0.16375 0.0
H4421 H 0.92107 0.71801 0.19291 0.0
H4422 H 0.88695 0.64589 0.21189 0.0
H4423 H 0.89552 0.63117 0.2338 0.0
H4424 H 0.90549 0.62656 0.20746 0.0
H4425 H 0.9419 0.6332 0.22051 0.0
H4426 H 0.93207 0.63761 0.24685 0.0
H4427 H 0.94815 0.65704 0.23405 0.0
H4428 H 0.90518 0.72355 0.22474 0.0
H4429 H 0.89855 0.72514 0.26282 0.0
H4430 H 0.90708 0.65921 0.26739 0.0
C4431 C 0.93367 0.65999 0.18364 0.0
C4432 C 0.93973 0.67523 0.16854 0.0
C4433 C 0.93512 0.69604 0.17292 0.0
C4434 C 0.92372 0.70184 0.19012 0.0
C4435 C 0.9175 0.68684 0.20421 0.0
C4436 C 0.92269 0.66642 0.20192 0.0
C4437 C 0.9173 0.6549 0.2223 0.0
C4438 C 0.90031 0.63865 0.21864 0.0
C4439 C 0.93598 0.64512 0.23147 0.0
C4440 C 0.90979 0.67252 0.2362 0.0
C4441 C 0.90937 0.69052 0.22483 0.0
C4442 C 0.90496 0.7095 0.2339 0.0
C4443 C 0.90132 0.71032 0.25553 0.0
C4444 C 0.90209 0.69232 0.26776 0.0
C4445 C 0.90588 0.67304 0.25805 0.0
H4446 H 0.34241 0.1757 0.46915 0.0
H4447 H 0.40506 0.16018 0.45917 0.0
H4448 H 0.40333 0.13975 0.49192 0.0
H4449 H 0.34678 0.18918 0.51773 0.0
H4450 H 0.32244 0.17996 0.52782 0.0
H4451 H 0.32566 0.1861 0.50042 0.0
H4452 H 0.31298 0.14918 0.49002 0.0
H4453 H 0.30931 0.14332 0.51768 0.0
H4454 H 0.3246 0.12708 0.50108 0.0
H4455 H 0.39812 0.12918 0.52794 0.0
H4456 H 0.3918 0.13296 0.56597 0.0
H4457 H 0.33295 0.1572 0.55409 0.0
C4458 C 0.35553 0.1673 0.47343 0.0
C4459 C 0.37384 0.16933 0.4618 0.0
C4460 C 0.39088 0.15869 0.46802 0.0
C4461 C 0.38991 0.14681 0.48637 0.0
C4462 C 0.37181 0.14583 0.4981 0.0
C4463 C 0.35488 0.15587 0.49188 0.0
C4464 C 0.33908 0.1569 0.50941 0.0
C4465 C 0.3332 0.17935 0.51412 0.0
C4466 C 0.3204 0.14328 0.50423 0.0
C4467 C 0.35066 0.14784 0.52712 0.0
C4468 C 0.36899 0.14048 0.51997 0.0
C4469 C 0.38363 0.13432 0.53371 0.0
C4470 C 0.37996 0.13674 0.55531 0.0
C4471 C 0.36199 0.14569 0.5628 0.0
C4472 C 0.34677 0.15026 0.54866 0.0
H4473 H 0.86084 0.60866 0.75931 0.0
H4474 H 0.83847 0.66985 0.77129 0.0
H4475 H 0.85095 0.66836 0.80795 0.0
H4476 H 0.84627 0.58737 0.80737 0.0
H4477 H 0.86792 0.57145 0.80891 0.0
H4478 H 0.85903 0.57883 0.78358 0.0
H4479 H 0.89468 0.59433 0.77388 0.0
H4480 H 0.90355 0.58726 0.79945 0.0
H4481 H 0.90611 0.61369 0.79076 0.0
H4482 H 0.86264 0.65805 0.84421 0.0
H4483 H 0.86996 0.63901 0.8769 0.0
H4484 H 0.8856 0.58571 0.83939 0.0
C4485 C 0.85861 0.6219 0.76949 0.0
C4486 C 0.84862 0.63937 0.76257 0.0
C4487 C 0.84611 0.65633 0.7764 0.0
C4488 C 0.85327 0.65565 0.79711 0.0
C4489 C 0.86315 0.6381 0.80336 0.0
C4490 C 0.86576 0.62155 0.78985 0.0
C4491 C 0.8753 0.60374 0.80049 0.0
C4492 C 0.86129 0.58422 0.80008 0.0
C4493 C 0.89615 0.59953 0.79055 0.0
C4494 C 0.87712 0.61252 0.82245 0.0
C4495 C 0.87034 0.63245 0.82385 0.0
C4496 C 0.86851 0.64271 0.84321 0.0
C4497 C 0.87287 0.63194 0.86164 0.0
C4498 C 0.87884 0.61129 0.86029 0.0
C4499 C 0.88175 0.6018 0.84053 0.0
H4500 H 0.44147 0.20438 0.17662 0.0
H4501 H 0.43307 0.13807 0.17055 0.0
H4502 H 0.41328 0.13756 0.2044 0.0
H4503 H 0.45264 0.20516 0.22769 0.0
H4504 H 0.44042 0.2288 0.2344 0.0
H4505 H 0.44952 0.22457 0.20784 0.0
H4506 H 0.41399 0.23031 0.19348 0.0
H4507 H 0.40469 0.23496 0.22003 0.0
H4508 H 0.39255 0.21541 0.2039 0.0
H4509 H 0.39926 0.14403 0.24075 0.0
H4510 H 0.39241 0.15609 0.27696 0.0
H4511 H 0.41199 0.21837 0.25905 0.0
C4512 C 0.43493 0.18981 0.18189 0.0
C4513 C 0.43861 0.17131 0.17093 0.0
C4514 C 0.43009 0.15245 0.17861 0.0
C4515 C 0.4189 0.15207 0.19777 0.0
C4516 C 0.41632 0.17069 0.20858 0.0
C4517 C 0.42401 0.18923 0.20076 0.0
C4518 C 0.42167 0.20677 0.21633 0.0
C4519 C 0.44229 0.21688 0.22189 0.0
C4520 C 0.40736 0.2228 0.20794 0.0
C4521 C 0.41223 0.19504 0.23474 0.0
C4522 C 0.40882 0.17438 0.22978 0.0
C4523 C 0.40146 0.16021 0.24468 0.0
C4524 C 0.39766 0.16726 0.26522 0.0
C4525 C 0.40158 0.18824 0.27075 0.0
C4526 C 0.4087 0.20232 0.25521 0.0
H4527 H 0.84601 0.68666 0.47196 0.0
H4528 H 0.90576 0.66462 0.45729 0.0
H4529 H 0.90383 0.64327 0.48944 0.0
H4530 H 0.8547 0.69763 0.52085 0.0
H4531 H 0.83002 0.69085 0.53192 0.0
H4532 H 0.83266 0.69787 0.5047 0.0
H4533 H 0.81538 0.6629 0.49362 0.0
H4534 H 0.8124 0.65649 0.5212 0.0
H4535 H 0.82485 0.63907 0.50326 0.0
H4536 H 0.89916 0.63111 0.52511 0.0
H4537 H 0.89486 0.63316 0.56364 0.0
H4538 H 0.83965 0.66608 0.55623 0.0
C4539 C 0.85835 0.67671 0.47517 0.0
C4540 C 0.87595 0.67702 0.46239 0.0
C4541 C 0.89215 0.66446 0.46714 0.0
C4542 C 0.891 0.65202 0.48507 0.0
C4543 C 0.87359 0.6525 0.49785 0.0
C4544 C 0.85758 0.6647 0.49318 0.0
C4545 C 0.84301 0.66676 0.51164 0.0
C4546 C 0.83998 0.68961 0.51762 0.0
C4547 C 0.82272 0.6556 0.50716 0.0
C4548 C 0.85443 0.65556 0.52808 0.0
C4549 C 0.87133 0.64638 0.51951 0.0
C4550 C 0.88573 0.63768 0.53199 0.0
C4551 C 0.88326 0.63915 0.55385 0.0
C4552 C 0.86687 0.64982 0.56278 0.0
C4553 C 0.85199 0.65741 0.5498 0.0
H4554 H 0.32099 0.14019 0.78116 0.0
H4555 H 0.38017 0.15342 0.75314 0.0
H4556 H 0.3957 0.14903 0.78787 0.0
H4557 H 0.33206 0.16428 0.83506 0.0
H4558 H 0.31744 0.14433 0.8487 0.0
H4559 H 0.31007 0.15264 0.82295 0.0
H4560 H 0.31103 0.1154 0.80856 0.0
H4561 H 0.31787 0.10643 0.83406 0.0
H4562 H 0.33361 0.10102 0.81124 0.0
H4563 H 0.4051 0.13546 0.82302 0.0
H4564 H 0.40703 0.11498 0.85589 0.0
H4565 H 0.34192 0.11394 0.86214 0.0
C4566 C 0.33706 0.14319 0.78274 0.0
C4567 C 0.34946 0.14769 0.76495 0.0
C4568 C 0.37054 0.15055 0.76698 0.0
C4569 C 0.37945 0.14807 0.78658 0.0
C4570 C 0.36694 0.14302 0.80392 0.0
C4571 C 0.34613 0.14101 0.80228 0.0
C4572 C 0.33632 0.13308 0.82257 0.0
C4573 C 0.32319 0.14956 0.83292 0.0
C4574 C 0.32401 0.11279 0.81887 0.0
C4575 C 0.35489 0.12965 0.83528 0.0
C4576 C 0.37244 0.13572 0.82449 0.0
C4577 C 0.39147 0.13127 0.83198 0.0
C4578 C 0.39248 0.11974 0.85066 0.0
C4579 C 0.37455 0.11283 0.86131 0.0
C4580 C 0.35575 0.11879 0.85407 0.0
H4581 H 0.96109 0.65198 0.04938 0.0
H4582 H 0.9064 0.63436 0.08455 0.0
H4583 H 0.889 0.62692 0.05121 0.0
H4584 H 0.93512 0.67478 1.00218 0.0
H4585 H 0.95385 0.66481 0.98408 0.0
H4586 H 0.96076 0.67235 1.01046 0.0
H4587 H 0.97456 0.63602 0.01642 0.0
H4588 H 0.96746 0.62834 0.99024 0.0
H4589 H 0.95817 0.61357 0.0127 0.0
H4590 H 0.87969 0.61445 0.01407 0.0
H4591 H 0.87859 0.60272 0.97662 0.0
H4592 H 0.93838 0.63088 0.96585 0.0
C4593 C 0.94511 0.64786 0.04999 0.0
C4594 C 0.93496 0.6444 0.06966 0.0
C4595 C 0.91432 0.63772 0.06971 0.0
C4596 C 0.90435 0.63321 0.0508 0.0
C4597 C 0.91504 0.63567 0.0317 0.0
C4598 C 0.93484 0.64338 0.03113 0.0
C4599 C 0.94343 0.64304 1.00869 0.0
C4600 C 0.94859 0.66506 1.0009 0.0
C4601 C 0.96199 0.62943 1.00693 0.0
C4602 C 0.92565 0.63347 0.99697 0.0
C4603 C 0.90939 0.62919 1.0104 0.0
C4604 C 0.89214 0.61834 1.00327 0.0
C4605 C 0.89158 0.61174 0.98192 0.0
C4606 C 0.90809 0.61612 0.96784 0.0
C4607 C 0.92511 0.62751 0.97572 0.0
H4608 H 1.00008 0.40792 0.05097 0.0
H4609 H 0.97439 0.42823 0.11094 0.0
H4610 H 1.00816 0.43 0.12613 0.0
H4611 H 0.03027 0.37374 0.07145 0.0
H4612 H 0.05139 0.37766 0.05324 0.0
H4613 H 1.02637 0.38307 0.04514 0.0
H4614 H 0.03692 0.4204 0.03584 0.0
H4615 H 0.06254 0.41499 0.04234 0.0
H4616 H 0.05013 0.43656 0.05439 0.0
H4617 H 0.04223 0.42148 0.13688 0.0
H4618 H 0.07797 0.41217 0.13998 0.0
H4619 H 0.08062 0.39711 0.07317 0.0
C4620 C 1.00175 0.41376 0.06691 0.0
C4621 C 0.98499 0.41782 0.07988 0.0
C4622 C 0.98736 0.42503 0.10086 0.0
C4623 C 1.00637 0.42598 0.10965 0.0
C4624 C 1.02247 0.41975 0.09707 0.0
C4625 C 1.02051 0.4144 0.07599 0.0
C4626 C 0.03965 0.40625 0.06656 0.0
C4627 C 0.03672 0.38385 0.05866 0.0
C4628 C 0.0479 0.42042 0.04877 0.0
C4629 C 0.05244 0.40731 0.08579 0.0
C4630 C 0.04222 0.41484 0.10331 0.0
C4631 C 0.05059 0.41583 0.12327 0.0
C4632 C 0.07055 0.41009 0.12501 0.0
C4633 C 0.0814 0.40375 0.10683 0.0
C4634 C 0.0722 0.40171 0.08723 0.0
H4635 H 0.58689 0.38636 0.19472 0.0
H4636 H 0.59093 0.39177 0.12637 0.0
H4637 H 0.5635 0.41674 0.12794 0.0
H4638 H 0.53744 0.37876 0.19315 0.0
H4639 H 0.53163 0.38985 0.21858 0.0
H4640 H 0.55584 0.37902 0.21363 0.0
H4641 H 0.57405 0.41354 0.22384 0.0
H4642 H 0.54988 0.42445 0.22954 0.0
H4643 H 0.56742 0.43712 0.21115 0.0
H4644 H 0.532 0.43453 0.13614 0.0
H4645 H 0.49731 0.44022 0.14894 0.0
H4646 H 0.51277 0.41973 0.21144 0.0
C4647 C 0.58268 0.39335 0.18003 0.0
C4648 C 0.59103 0.38733 0.1604 0.0
C4649 C 0.58473 0.39642 0.14158 0.0
C4650 C 0.56933 0.41069 0.14239 0.0
C4651 C 0.56062 0.4154 0.16208 0.0
C4652 C 0.56703 0.40676 0.18055 0.0
C4653 C 0.55221 0.40921 0.19871 0.0
C4654 C 0.5438 0.38796 0.20646 0.0
C4655 C 0.56145 0.42186 0.21687 0.0
C4656 C 0.53639 0.4208 0.18772 0.0
C4657 C 0.5416 0.42458 0.16672 0.0
C4658 C 0.52797 0.43224 0.15266 0.0
C4659 C 0.50832 0.43538 0.16008 0.0
C4660 C 0.50261 0.43039 0.18121 0.0
C4661 C 0.51696 0.4239 0.19533 0.0
H4662 H 0.69304 0.82512 0.36785 0.0
H4663 H 0.64664 0.85381 0.40592 0.0
H4664 H 0.62841 0.82045 0.40944 0.0
H4665 H 0.65983 0.77433 0.35079 0.0
H4666 H 0.68201 0.75959 0.3545 0.0
H4667 H 0.68438 0.78506 0.34315 0.0
H4668 H 0.71011 0.7954 0.37167 0.0
H4669 H 0.70744 0.77053 0.38342 0.0
H4670 H 0.70271 0.79314 0.39924 0.0
H4671 H 0.62441 0.78645 0.42294 0.0
H4672 H 0.63345 0.75559 0.44245 0.0
H4673 H 0.6845 0.74743 0.3996 0.0
C4674 C 0.6784 0.82447 0.37581 0.0
C4675 C 0.67139 0.84169 0.38704 0.0
C4676 C 0.65232 0.84059 0.39742 0.0
C4677 C 0.64181 0.82165 0.39935 0.0
C4678 C 0.65075 0.80411 0.39103 0.0
C4679 C 0.6685 0.8054 0.37886 0.0
C4680 C 0.67843 0.78475 0.37728 0.0
C4681 C 0.676 0.77538 0.35512 0.0
C4682 C 0.70095 0.78608 0.38331 0.0
C4683 C 0.66559 0.77285 0.39334 0.0
C4684 C 0.64893 0.78371 0.39995 0.0
C4685 C 0.63689 0.77745 0.4173 0.0
C4686 C 0.6423 0.76011 0.4285 0.0
C4687 C 0.65983 0.74961 0.42252 0.0
C4688 C 0.67111 0.75551 0.40436 0.0
H4689 H 0.27346 0.98729 0.60571 0.0
H4690 H 0.25564 0.92408 0.59231 0.0
H4691 H 0.29119 0.91487 0.58919 0.0
H4692 H 0.32964 0.98425 0.57748 0.0
H4693 H 0.33897 1.00078 0.59832 0.0
H4694 H 0.31461 1.00501 0.58734 0.0
H4695 H 0.29855 1.00318 0.6247 0.0
H4696 H 0.32232 0.99868 0.63588 0.0
H4697 H 0.30146 0.98049 0.64062 0.0
H4698 H 0.32257 0.90921 0.60432 0.0
H4699 H 0.34596 0.9083 0.63364 0.0
H4700 H 0.347 0.97505 0.63717 0.0
C4701 C 0.27746 0.97189 0.60094 0.0
C4702 C 0.26251 0.95629 0.59931 0.0
C4703 C 0.26736 0.93609 0.59349 0.0
C4704 C 0.28749 0.93086 0.59146 0.0
C4705 C 0.30236 0.94607 0.59544 0.0
C4706 C 0.29761 0.9665 0.59937 0.0
C4707 C 0.3152 0.97858 0.6086 0.0
C4708 C 0.3252 0.99299 0.59193 0.0
C4709 C 0.309 0.99085 0.62865 0.0
C4710 C 0.32869 0.96097 0.61335 0.0
C4711 C 0.32175 0.94259 0.60435 0.0
C4712 C 0.32871 0.92355 0.61069 0.0
C4713 C 0.34184 0.92312 0.62756 0.0
C4714 C 0.34783 0.94164 0.63775 0.0
C4715 C 0.34248 0.96072 0.62951 0.0
H4716 H 0.66397 0.47458 0.39274 0.0
H4717 H 0.61907 0.45595 0.44078 0.0
H4718 H 0.62642 0.4874 0.46068 0.0
H4719 H 0.69873 0.50586 0.43144 0.0
H4720 H 0.70406 0.52478 0.41108 0.0
H4721 H 0.70042 0.49791 0.40413 0.0
H4722 H 0.67244 0.50765 0.3784 0.0
H4723 H 0.6757 0.5343 0.38544 0.0
H4724 H 0.65116 0.52162 0.38843 0.0
H4725 H 0.62792 0.52336 0.46685 0.0
H4726 H 0.62903 0.56086 0.46345 0.0
H4727 H 0.67668 0.55706 0.41546 0.0
C4728 C 0.65626 0.47692 0.40781 0.0
C4729 C 0.64085 0.46319 0.41503 0.0
C4730 C 0.63082 0.46654 0.43473 0.0
C4731 C 0.63509 0.4842 0.4464 0.0
C4732 C 0.64961 0.49812 0.43831 0.0
C4733 C 0.66047 0.49452 0.41975 0.0
C4734 C 0.67262 0.51342 0.41271 0.0
C4735 C 0.69531 0.5103 0.41499 0.0
C4736 C 0.66765 0.5196 0.38992 0.0
C4737 C 0.66499 0.52869 0.42876 0.0
C4738 C 0.65199 0.51945 0.44361 0.0
C4739 C 0.63914 0.53077 0.45648 0.0
C4740 C 0.63974 0.55207 0.45426 0.0
C4741 C 0.65364 0.56176 0.4399 0.0
C4742 C 0.66656 0.54998 0.42722 0.0
H4743 H 0.26611 0.83794 0.17703 0.0
H4744 H 0.24141 0.89818 0.16898 0.0
H4745 H 0.27398 0.91468 0.17706 0.0
H4746 H 0.30966 0.86226 0.21797 0.0
H4747 H 0.32633 0.8429 0.20805 0.0
H4748 H 0.29992 0.83646 0.21292 0.0
H4749 H 0.29762 0.82302 0.17557 0.0
H4750 H 0.32329 0.82954 0.16951 0.0
H4751 H 0.30391 0.83951 0.15317 0.0
H4752 H 0.30791 0.923 0.16864 0.0
H4753 H 0.33648 0.9206 0.14377 0.0
H4754 H 0.34375 0.85719 0.16187 0.0
C4755 C 0.26764 0.8546 0.1779 0.0
C4756 C 0.25167 0.86684 0.17211 0.0
C4757 C 0.25366 0.88855 0.17333 0.0
C4758 C 0.27205 0.89809 0.1783 0.0
C4759 C 0.28819 0.88574 0.18263 0.0
C4760 C 0.28595 0.86436 0.18345 0.0
C4761 C 0.30628 0.85464 0.18432 0.0
C4762 C 0.31081 0.84874 0.20717 0.0
C4763 C 0.30787 0.83565 0.16962 0.0
C4764 C 0.31961 0.87294 0.17741 0.0
C4765 C 0.30926 0.89119 0.17869 0.0
C4766 C 0.31639 0.90905 0.16822 0.0
C4767 C 0.33265 0.90758 0.15394 0.0
C4768 C 0.34158 0.88843 0.15062 0.0
C4769 C 0.33664 0.87182 0.16419 0.0
H4770 H 0.97264 0.03665 0.62594 0.0
H4771 H 0.93127 0.06066 0.58109 0.0
H4772 H 0.91702 0.02528 0.57514 0.0
H4773 H 0.98314 0.98936 0.59655 0.0
H4774 H 0.98401 0.9728 0.61926 0.0
H4775 H 0.99087 0.99968 0.62186 0.0
H4776 H 0.96517 1.00506 0.65149 0.0
H4777 H 0.95822 0.97795 0.65044 0.0
H4778 H 0.93917 0.99691 0.64805 0.0
H4779 H 0.90428 0.98658 0.57744 0.0
H4780 H 0.90099 0.94845 0.57973 0.0
H4781 H 0.95381 0.94829 0.61861 0.0
C4782 C 0.96097 0.0344 0.61441 0.0
C4783 C 0.95343 0.05175 0.60364 0.0
C4784 C 0.93771 0.04787 0.58919 0.0
C4785 C 0.92931 0.02771 0.58591 0.0
C4786 C 0.93681 1.01108 0.59698 0.0
C4787 C 0.9528 1.01413 0.61043 0.0
C4788 C 0.95853 0.99342 0.61976 0.0
C4789 C 0.98045 0.98854 0.61394 0.0
C4790 C 0.95507 0.99334 0.64387 0.0
C4791 C 0.94371 0.97829 0.60913 0.0
C4792 C 0.9307 0.98886 0.59677 0.0
C4793 C 0.91475 0.97827 0.58678 0.0
C4794 C 0.91279 0.95645 0.58841 0.0
C4795 C 0.92712 0.94495 0.59925 0.0
C4796 C 0.94253 0.95636 0.61012 0.0
H4797 H 0.96834 0.68951 0.32721 0.0
H4798 H 0.95052 0.65937 0.38591 0.0
H4799 H 0.98454 0.64405 0.3867 0.0
H4800 H 0.99864 0.64991 0.30415 0.0
H4801 H 1.01767 0.66741 0.29286 0.0
H4802 H 0.99227 0.67578 0.29726 0.0
H4803 H 1.0056 0.70634 0.31934 0.0
H4804 H 0.03112 0.69824 0.31523 0.0
H4805 H 1.02116 0.70185 0.34171 0.0
H4806 H 1.02415 0.62893 0.37828 0.0
H4807 H 0.05927 0.62203 0.36583 0.0
H4808 H 0.05225 0.66432 0.31413 0.0
C4809 C 0.97139 0.67994 0.34063 0.0
C4810 C 0.95544 0.67631 0.35668 0.0
C4811 C 0.96139 0.66323 0.37339 0.0
C4812 C 0.98115 0.65413 0.37379 0.0
C4813 C 0.99611 0.65794 0.35756 0.0
C4814 C 0.99127 0.67111 0.34147 0.0
C4815 C 1.0098 0.6737 0.32605 0.0
C4816 C 1.00426 0.66626 0.30376 0.0
C4817 C 1.01738 0.69638 0.32556 0.0
C4818 C 1.02594 0.65983 0.33543 0.0
C4819 C 1.0178 0.65054 0.35354 0.0
C4820 C 0.03011 0.63657 0.36418 0.0
C4821 C 0.0505 0.63243 0.35674 0.0
C4822 C 0.05981 0.64212 0.33852 0.0
C4823 C 0.04655 0.65613 0.32802 0.0
H4824 H 0.36409 0.72114 0.1056 0.0
H4825 H 0.37593 0.72412 0.17253 0.0
H4826 H 0.38525 0.76164 0.1684 0.0
H4827 H 0.40232 0.7563 0.08595 0.0
H4828 H 0.38683 0.76777 0.06649 0.0
H4829 H 0.38147 0.74161 0.07494 0.0
H4830 H 0.34474 0.75054 0.08609 0.0
H4831 H 0.35023 0.77622 0.07623 0.0
H4832 H 0.34086 0.77264 0.10292 0.0
H4833 H 0.39615 0.8018 0.15422 0.0
H4834 H 0.40064 0.83537 0.13544 0.0
H4835 H 0.37773 0.80654 0.07875 0.0
C4836 C 0.36853 0.72944 0.11971 0.0
C4837 C 0.36913 0.71847 0.13963 0.0
C4838 C 0.375 0.7311 0.15711 0.0
C4839 C 0.3805 0.75281 0.15473 0.0
C4840 C 0.37982 0.76275 0.13479 0.0
C4841 C 0.37331 0.7512 0.11772 0.0
C4842 C 0.37258 0.76512 0.09802 0.0
C4843 C 0.38663 0.75722 0.0803 0.0
C4844 C 0.35081 0.76617 0.09036 0.0
C4845 C 0.38018 0.78638 0.10611 0.0
C4846 C 0.38461 0.78481 0.12734 0.0
C4847 C 0.39245 0.80264 0.1377 0.0
C4848 C 0.39529 0.82198 0.12666 0.0
C4849 C 0.39022 0.82442 0.10504 0.0
C4850 C 0.38238 0.80585 0.095 0.0
H4851 H 0.26436 0.06692 0.89647 0.0
H4852 H 0.29446 0.11886 0.86485 0.0
H4853 H 0.26167 0.13035 0.85255 0.0
H4854 H 0.22732 0.0573 0.85463 0.0
H4855 H 0.20694 0.04972 0.87264 0.0
H4856 H 0.2327 0.04596 0.87975 0.0
H4857 H 0.22667 0.06689 0.91405 0.0
H4858 H 0.20097 0.07079 0.90676 0.0
H4859 H 0.21752 0.09268 0.91242 0.0
H4860 H 0.223 0.1369 0.84282 0.0
H4861 H 0.18624 0.13531 0.83556 0.0
H4862 H 0.18019 0.07865 0.87146 0.0
C4863 C 0.26413 0.08095 0.88731 0.0
C4864 C 0.2829 0.09213 0.88234 0.0
C4865 C 0.28099 0.10993 0.86946 0.0
C4866 C 0.26208 0.11668 0.86225 0.0
C4867 C 0.24408 0.10554 0.86738 0.0
C4868 C 0.24503 0.08782 0.87948 0.0
C4869 C 0.22346 0.07805 0.88175 0.0
C4870 C 0.22257 0.05647 0.87159 0.0
C4871 C 0.21676 0.07704 0.90514 0.0
C4872 C 0.21034 0.09302 0.86953 0.0
C4873 C 0.22249 0.10892 0.86138 0.0
C4874 C 0.2136 0.12444 0.84943 0.0
C4875 C 0.1923 0.12362 0.84552 0.0
C4876 C 0.17922 0.10728 0.85324 0.0
C4877 C 0.18899 0.09185 0.86551 0.0
H4878 H 0.97348 0.7873 0.12306 0.0
H4879 H 0.91873 0.75528 0.14591 0.0
H4880 H 0.90585 0.78797 0.15936 0.0
H4881 H 0.97709 0.8225 0.16793 0.0
H4882 H 0.9854 0.84542 0.15366 0.0
H4883 H 0.99133 0.82054 0.14344 0.0
H4884 H 0.97442 0.82609 0.10794 0.0
H4885 H 0.97039 0.85212 0.11686 0.0
H4886 H 0.94945 0.83606 0.10807 0.0
H4887 H 0.89807 0.82623 0.17191 0.0
H4888 H 0.89825 0.86333 0.18223 0.0
H4889 H 0.95756 0.87165 0.15264 0.0
C4890 C 0.95872 0.78702 0.13069 0.0
C4891 C 0.94733 0.7677 0.13283 0.0
C4892 C 0.92812 0.76912 0.14346 0.0
C4893 C 0.92049 0.78796 0.15139 0.0
C4894 C 0.93194 0.8064 0.14916 0.0
C4895 C 0.95078 0.80607 0.13913 0.0
C4896 C 0.9601 0.82825 0.13939 0.0
C4897 C 0.97962 0.82922 0.15191 0.0
C4898 C 0.96384 0.83611 0.11672 0.0
C4899 C 0.94381 0.84081 0.15086 0.0
C4900 C 0.92755 0.82797 0.15637 0.0
C4901 C 0.91086 0.83622 0.16738 0.0
C4902 C 0.91092 0.85766 0.17308 0.0
C4903 C 0.92761 0.87135 0.16807 0.0
C4904 C 0.94418 0.86227 0.1566 0.0
H4905 H 0.32169 0.71032 0.91806 0.0
H4906 H 0.32807 0.66754 0.86577 0.0
H4907 H 0.29211 0.65572 0.87186 0.0
H4908 H 0.28956 0.67724 0.95189 0.0
H4909 H 0.27507 0.69822 0.96217 0.0
H4910 H 0.30085 0.7029 0.95328 0.0
H4911 H 0.2895 0.73083 0.92793 0.0
H4912 H 0.26363 0.72636 0.93661 0.0
H4913 H 0.2704 0.72461 0.9089 0.0
H4914 H 0.2516 0.64814 0.8859 0.0
H4915 H 0.21743 0.64739 0.90337 0.0
H4916 H 0.23817 0.69539 0.94623 0.0
C4917 C 0.31583 0.6984 0.90763 0.0
C4918 C 0.32891 0.69016 0.89112 0.0
C4919 C 0.31939 0.67455 0.87843 0.0
C4920 C 0.29855 0.66763 0.88194 0.0
C4921 C 0.2864 0.67612 0.89839 0.0
C4922 C 0.29508 0.69133 0.91097 0.0
C4923 C 0.27938 0.69835 0.92772 0.0
C4924 C 0.28665 0.69392 0.95009 0.0
C4925 C 0.27549 0.72141 0.92513 0.0
C4926 C 0.26028 0.68504 0.92283 0.0
C4927 C 0.26445 0.67212 0.90591 0.0
C4928 C 0.24873 0.65844 0.89905 0.0
C4929 C 0.22894 0.65804 0.90925 0.0
C4930 C 0.22397 0.67125 0.92661 0.0
C4931 C 0.24053 0.68485 0.93316 0.0
H4932 H 0.36783 0.99782 0.70922 0.0
H4933 H 0.42383 0.99571 0.67259 0.0
H4934 H 0.4204 0.0329 0.66353 0.0
H4935 H 0.34169 0.0303 0.67408 0.0
H4936 H 0.32857 0.04343 0.69518 0.0
H4937 H 0.33609 1.01728 0.69874 0.0
H4938 H 0.35556 0.02826 0.73211 0.0
H4939 H 0.34796 0.0544 0.72876 0.0
H4940 H 0.37436 0.04901 0.73041 0.0
H4941 H 0.40867 0.07287 0.65784 0.0
H4942 H 0.39237 0.10695 0.65819 0.0
H4943 H 0.34448 0.08119 0.69887 0.0
C4944 C 0.37963 1.00494 0.69929 0.0
C4945 C 0.39627 0.99312 0.69177 0.0
C4946 C 0.411 1.00385 0.67886 0.0
C4947 C 0.40903 0.02518 0.67352 0.0
C4948 C 0.3922 0.03608 0.68107 0.0
C4949 C 0.37783 0.02601 0.69383 0.0
C4950 C 0.36095 0.04046 0.70013 0.0
C4951 C 0.34063 0.03239 0.69152 0.0
C4952 C 0.35964 0.04319 0.72429 0.0
C4953 C 0.36792 0.06055 0.68928 0.0
C4954 C 0.38588 0.05792 0.67813 0.0
C4955 C 0.39469 0.07472 0.66671 0.0
C4956 C 0.38523 0.09426 0.66693 0.0
C4957 C 0.36696 0.09746 0.6786 0.0
C4958 C 0.35842 0.07991 0.68975 0.0
H4959 H 0.09518 0.12501 0.40078 0.0
H4960 H 0.09426 0.15452 0.46229 0.0
H4961 H 0.05816 0.14365 0.46707 0.0
H4962 H 0.04419 0.14009 0.38633 0.0
H4963 H 0.03891 0.11647 0.37205 0.0
H4964 H 0.06455 0.12636 0.37398 0.0
H4965 H 0.0747 0.09156 0.3896 0.0
H4966 H 0.04902 0.08167 0.38803 0.0
H4967 H 0.06163 0.08169 0.41294 0.0
H4968 H 1.02043 0.12599 0.46575 0.0
H4969 H 0.98704 0.11047 0.45635 0.0
H4970 H 1.01084 0.09605 0.39396 0.0
C4971 C 0.08743 0.12965 0.41519 0.0
C4972 C 0.09845 0.14089 0.43119 0.0
C4973 C 0.08696 0.14609 0.44966 0.0
C4974 C 0.06615 0.13974 0.45256 0.0
C4975 C 0.05609 0.1283 0.43673 0.0
C4976 C 0.06641 0.12383 0.41811 0.0
C4977 C 0.05211 0.11212 0.40302 0.0
C4978 C 0.0498 0.1245 0.38263 0.0
C4979 C 0.05983 0.09049 0.3981 0.0
C4980 C 0.03206 0.11064 0.41579 0.0
C4981 C 0.03475 0.11962 0.43547 0.0
C4982 C 1.01851 0.11919 0.45026 0.0
C4983 C 0.99936 0.11006 0.4448 0.0
C4984 C 0.99569 0.10154 0.42441 0.0
C4985 C 1.01267 0.10204 0.40981 0.0
H4986 H 0.66211 0.93609 0.03529 0.0
H4987 H 0.66202 0.87296 0.0572 0.0
H4988 H 0.6548 0.86049 0.02113 0.0
H4989 H 0.62086 0.92835 1.00114 0.0
H4990 H 0.6304 0.94556 0.98068 0.0
H4991 H 0.63762 0.94981 1.00765 0.0
H4992 H 0.67525 0.94903 0.99655 0.0
H4993 H 0.66827 0.94514 0.96945 0.0
H4994 H 0.68442 0.92722 0.98185 0.0
H4995 H 0.64363 0.8547 0.98238 0.0
H4996 H 0.63375 0.85671 0.94473 0.0
H4997 H 0.64179 0.92333 0.94788 0.0
C4998 C 0.66145 0.91966 0.03236 0.0
C4999 C 0.66334 0.90556 0.04933 0.0
C5000 C 0.66123 0.88414 0.04462 0.0
C5001 C 0.65688 0.87688 0.02409 0.0
C5002 C 0.65446 0.89109 1.00794 0.0
C5003 C 0.65694 0.91208 1.01179 0.0
C5004 C 0.65257 0.92414 0.99187 0.0
C5005 C 0.63428 0.93777 0.99556 0.0
C5006 C 0.67125 0.93715 0.98449 0.0
C5007 C 0.64767 0.90671 0.97625 0.0
C5008 C 0.64848 0.88773 0.98582 0.0
C5009 C 0.64337 0.86954 0.97467 0.0
C5010 C 0.63771 0.87076 0.9532 0.0
C5011 C 0.63748 0.89003 0.94275 0.0
C5012 C 0.64237 0.90815 0.95485 0.0
H5013 H 0.11154 0.33805 0.72302 0.0
H5014 H 0.17138 0.36698 0.71732 0.0
H5015 H 0.16993 0.37495 0.75596 0.0
H5016 H 0.09119 0.37369 0.76077 0.0
H5017 H 0.07606 0.35422 0.77471 0.0
H5018 H 0.08183 0.35114 0.74692 0.0
H5019 H 0.09692 0.31612 0.75369 0.0
H5020 H 0.09159 0.31833 0.78159 0.0
H5021 H 0.117 0.31396 0.77222 0.0
H5022 H 0.16073 0.37943 0.79729 0.0
H5023 H 0.1463 0.37839 0.83397 0.0
H5024 H 0.09309 0.34551 0.81111 0.0
C5025 C 0.12451 0.34608 0.72968 0.0
C5026 C 0.14166 0.35182 0.71669 0.0
C5027 C 0.15801 0.36242 0.72657 0.0
C5028 C 0.15727 0.36699 0.74865 0.0
C5029 C 0.14005 0.36095 0.76087 0.0
C5030 C 0.124 0.35068 0.75147 0.0
C5031 C 0.10714 0.34552 0.76755 0.0
C5032 C 0.08791 0.35681 0.76218 0.0
C5033 C 0.10295 0.32208 0.76885 0.0
C5034 C 0.11622 0.35394 0.7878 0.0
C5035 C 0.13509 0.3631 0.78377 0.0
C5036 C 0.14601 0.37216 0.80036 0.0
C5037 C 0.13765 0.37154 0.82128 0.0
C5038 C 0.11856 0.36169 0.82583 0.0
C5039 C 0.10781 0.353 0.80854 0.0
H5040 H 0.72391 0.88559 0.49723 0.0
H5041 H 0.67718 0.84457 0.47294 0.0
H5042 H 0.66464 0.83756 0.50968 0.0
H5043 H 0.73121 0.85155 0.54756 0.0
H5044 H 0.74014 0.87536 0.55954 0.0
H5045 H 0.74308 0.87118 0.53144 0.0
H5046 H 0.72507 0.90771 0.52998 0.0
H5047 H 0.71905 0.90717 0.55785 0.0
H5048 H 0.6991 0.90822 0.53909 0.0
H5049 H 0.65613 0.83689 0.55143 0.0
H5050 H 0.65569 0.83961 0.59065 0.0
H5051 H 0.70923 0.87978 0.58686 0.0
C5052 C 0.71147 0.87463 0.49958 0.0
C5053 C 0.70196 0.86534 0.48183 0.0
C5054 C 0.68515 0.85161 0.48602 0.0
C5055 C 0.67777 0.84768 0.50698 0.0
C5056 C 0.68737 0.85738 0.52408 0.0
C5057 C 0.70427 0.87013 0.52047 0.0
C5058 C 0.71255 0.87798 0.5414 0.0
C5059 C 0.73298 0.86853 0.54531 0.0
C5060 C 0.71402 0.90168 0.54211 0.0
C5061 C 0.69692 0.86931 0.55726 0.0
C5062 C 0.68264 0.85701 0.5472 0.0
C5063 C 0.66734 0.84661 0.55917 0.0
C5064 C 0.66704 0.84843 0.58162 0.0
C5065 C 0.68211 0.86033 0.59231 0.0
C5066 C 0.69707 0.87097 0.57956 0.0
H5067 H 0.2166 0.37752 0.25574 0.0
H5068 H 0.15567 0.39132 0.27634 0.0
H5069 H 0.1476 0.40078 0.23998 0.0
H5070 H 0.22391 0.41842 0.22102 0.0
H5071 H 0.23738 0.40499 0.2002 0.0
H5072 H 0.23735 0.39552 0.2267 0.0
H5073 H 0.22424 0.35967 0.21614 0.0
H5074 H 0.2248 0.36854 0.18914 0.0
H5075 H 0.20177 0.35761 0.20079 0.0
H5076 H 0.14655 0.41156 0.20113 0.0
H5077 H 0.1536 0.42339 0.16441 0.0
H5078 H 0.2154 0.40487 0.16881 0.0
C5079 C 0.20138 0.38183 0.25247 0.0
C5080 C 0.18671 0.38327 0.26921 0.0
C5081 C 0.16719 0.38977 0.26404 0.0
C5082 C 0.16239 0.39523 0.24329 0.0
C5083 C 0.17719 0.39418 0.22733 0.0
C5084 C 0.19625 0.38745 0.23158 0.0
C5085 C 0.20957 0.389 0.21157 0.0
C5086 C 0.22818 0.40299 0.21501 0.0
C5087 C 0.21546 0.36743 0.20395 0.0
C5088 C 0.19567 0.39873 0.19608 0.0
C5089 C 0.17677 0.40101 0.20524 0.0
C5090 C 0.16135 0.40971 0.19392 0.0
C5091 C 0.16548 0.41642 0.173 0.0
C5092 C 0.18506 0.41512 0.16364 0.0
C5093 C 0.20028 0.40605 0.17546 0.0
H5094 H 0.60058 0.83854 0.81031 0.0
H5095 H 0.64857 0.88038 0.83108 0.0
H5096 H 0.66262 0.8818 0.79426 0.0
H5097 H 0.62918 0.80943 0.77248 0.0
H5098 H 0.60844 0.80741 0.75459 0.0
H5099 H 0.60349 0.81012 0.78248 0.0
H5100 H 0.58218 0.8419 0.77403 0.0
H5101 H 0.58818 0.83918 0.74626 0.0
H5102 H 0.59385 0.86325 0.75957 0.0
H5103 H 0.67208 0.87703 0.75307 0.0
H5104 H 0.67423 0.86818 0.7147 0.0
H5105 H 0.61941 0.83018 0.72218 0.0
C5106 C 0.61407 0.84806 0.80728 0.0
C5107 C 0.62347 0.85921 0.82405 0.0
C5108 C 0.64099 0.8716 0.81884 0.0
C5109 C 0.64912 0.87246 0.79782 0.0
C5110 C 0.63957 0.86101 0.78178 0.0
C5111 C 0.62223 0.84923 0.78642 0.0
C5112 C 0.61439 0.83854 0.76665 0.0
C5113 C 0.61388 0.81497 0.76924 0.0
C5114 C 0.59341 0.84618 0.76132 0.0
C5115 C 0.63018 0.8456 0.7501 0.0
C5116 C 0.64464 0.85865 0.7589 0.0
C5117 C 0.66067 0.86688 0.74623 0.0
C5118 C 0.66183 0.86175 0.7243 0.0
C5119 C 0.64706 0.84845 0.71494 0.0
C5120 C 0.63111 0.84039 0.72841 0.0
H5121 H 0.20142 0.38129 0.5868 0.0
H5122 H 0.14601 0.34408 0.59189 0.0
H5123 H 0.14569 0.34102 0.55273 0.0
H5124 H 0.18709 0.40867 0.53794 0.0
H5125 H 0.21272 0.40995 0.52777 0.0
H5126 H 0.20779 0.41021 0.55591 0.0
H5127 H 0.22993 0.37881 0.56056 0.0
H5128 H 0.2344 0.37851 0.53251 0.0
H5129 H 0.22466 0.35552 0.54547 0.0
H5130 H 0.15572 0.33729 0.51147 0.0
H5131 H 0.16915 0.341 0.4746 0.0
H5132 H 0.21587 0.38363 0.49639 0.0
C5133 C 0.18886 0.37286 0.5798 0.0
C5134 C 0.17378 0.36284 0.59296 0.0
C5135 C 0.15773 0.35212 0.58261 0.0
C5136 C 0.15759 0.35005 0.56017 0.0
C5137 C 0.17337 0.35916 0.54783 0.0
C5138 C 0.18817 0.37111 0.55745 0.0
C5139 C 0.20315 0.37991 0.54098 0.0
C5140 C 0.20266 0.40359 0.54064 0.0
C5141 C 0.22431 0.37266 0.54529 0.0
C5142 C 0.19525 0.37055 0.52044 0.0
C5143 C 0.1781 0.35836 0.52467 0.0
C5144 C 0.16889 0.34721 0.50821 0.0
C5145 C 0.17686 0.34913 0.48719 0.0
C5146 C 0.1939 0.36229 0.48221 0.0
C5147 C 0.20309 0.3731 0.49938 0.0
H5148 H 0.7017 0.92882 0.26761 0.0
H5149 H 0.69845 0.86196 0.2653 0.0
H5150 H 0.69396 0.86329 0.22655 0.0
H5151 H 0.66411 0.9358 0.22821 0.0
H5152 H 0.67619 0.95807 0.21609 0.0
H5153 H 0.67941 0.95333 0.2438 0.0
H5154 H 0.71804 0.95294 0.2401 0.0
H5155 H 0.71589 0.95995 0.21278 0.0
H5156 H 0.72947 0.93739 0.21957 0.0
H5157 H 0.68976 0.87263 0.18661 0.0
H5158 H 0.68937 0.88873 0.151 0.0
H5159 H 0.69754 0.94892 0.1799 0.0
C5160 C 0.69981 0.9144 0.25907 0.0
C5161 C 0.70021 0.89525 0.26982 0.0
C5162 C 0.69795 0.87685 0.2577 0.0
C5163 C 0.69543 0.87747 0.23557 0.0
C5164 C 0.69512 0.89662 0.22551 0.0
C5165 C 0.69733 0.91473 0.23699 0.0
C5166 C 0.69672 0.93334 0.22258 0.0
C5167 C 0.67802 0.94589 0.22801 0.0
C5168 C 0.7162 0.94671 0.22385 0.0
C5169 C 0.69494 0.92303 0.20105 0.0
C5170 C 0.6934 0.90183 0.20299 0.0
C5171 C 0.69112 0.88924 0.18507 0.0
C5172 C 0.69085 0.89851 0.16484 0.0
C5173 C 0.6935 0.92018 0.16245 0.0
C5174 C 0.69546 0.93241 0.18099 0.0
H5175 H 0.12831 0.40968 0.04556 0.0
H5176 H 0.1936 0.40827 0.0436 0.0
H5177 H 0.19263 0.39922 1.00533 0.0
H5178 H 0.11714 0.36819 1.01046 0.0
H5179 H 0.09686 0.38042 0.99744 0.0
H5180 H 0.1026 0.38721 0.02433 0.0
H5181 H 0.1071 0.42559 0.01405 0.0
H5182 H 0.1009 0.41894 0.98725 0.0
H5183 H 0.12422 0.43295 0.9926 0.0
H5184 H 0.18408 0.38863 0.96697 0.0
H5185 H 0.16978 0.38284 0.93164 0.0
H5186 H 0.10986 0.39214 0.95781 0.0
C5187 C 0.14247 0.4076 0.03704 0.0
C5188 C 0.16113 0.40955 0.04784 0.0
C5189 C 0.1792 0.40695 0.03591 0.0
C5190 C 0.17871 0.40164 0.01412 0.0
C5191 C 0.16003 0.39927 1.00417 0.0
C5192 C 0.14224 0.4027 0.01521 0.0
C5193 C 0.12417 0.40007 1.00067 0.0
C5194 C 0.10932 0.38295 1.00871 0.0
C5195 C 0.11347 0.42061 0.99851 0.0
C5196 C 0.13446 0.39393 0.97979 0.0
C5197 C 0.15515 0.39355 0.98222 0.0
C5198 C 0.16791 0.38885 0.96508 0.0
C5199 C 0.15958 0.38527 0.94499 0.0
C5200 C 0.13852 0.38615 0.94169 0.0
C5201 C 0.12584 0.3903 0.95965 0.0
H5202 H 0.09542 0.62291 0.90322 0.0
H5203 H 0.09472 0.65377 0.96393 0.0
H5204 H 0.05818 0.64448 0.96834 0.0
H5205 H 0.04468 0.63987 0.8875 0.0
H5206 H 0.03907 0.6161 0.8736 0.0
H5207 H 0.06485 0.62555 0.87559 0.0
H5208 H 0.07424 0.59083 0.89188 0.0
H5209 H 0.04843 0.58142 0.89025 0.0
H5210 H 0.06084 0.58158 0.91529 0.0
H5211 H 1.02039 0.62688 0.96733 0.0
H5212 H 0.98692 0.61136 0.95805 0.0
H5213 H 1.01063 0.59645 0.89575 0.0
C5214 C 0.0875 0.62858 0.91712 0.0
C5215 C 0.09864 0.63966 0.93306 0.0
C5216 C 0.08715 0.64578 0.95118 0.0
C5217 C 0.06615 0.64022 0.95393 0.0
C5218 C 0.05597 0.62876 0.9382 0.0
C5219 C 0.0663 0.62372 0.91975 0.0
C5220 C 0.05196 0.61202 0.90477 0.0
C5221 C 0.05002 0.6241 0.88414 0.0
C5222 C 0.05931 0.59017 0.90028 0.0
C5223 C 0.03187 0.61113 0.91744 0.0
C5224 C 0.03458 0.62033 0.93701 0.0
C5225 C 1.01839 0.62004 0.95185 0.0
C5226 C 0.99922 0.6109 0.94649 0.0
C5227 C 0.99555 0.6023 0.92615 0.0
C5228 C 1.01248 0.60268 0.91151 0.0
H5229 H 0.47055 0.69569 0.83215 0.0
H5230 H 0.44928 0.65345 0.88113 0.0
H5231 H 0.48286 0.63716 0.87968 0.0
H5232 H 0.50061 0.66052 0.80145 0.0
H5233 H 0.52054 0.67921 0.79491 0.0
H5234 H 0.4953 0.68757 0.80043 0.0
H5235 H 0.50849 0.71202 0.82949 0.0
H5236 H 0.53384 0.70402 0.82386 0.0
H5237 H 0.52332 0.70204 0.85036 0.0
H5238 H 0.52241 0.62281 0.86953 0.0
H5239 H 0.55762 0.61703 0.8567 0.0
H5240 H 0.5541 0.66982 0.81563 0.0
C5241 C 0.47279 0.68319 0.84303 0.0
C5242 C 0.45601 0.67662 0.85717 0.0
C5243 C 0.46087 0.65979 0.87045 0.0
C5244 C 0.48036 0.65009 0.86945 0.0
C5245 C 0.49615 0.65687 0.85512 0.0
C5246 C 0.49237 0.67352 0.84239 0.0
C5247 C 0.51158 0.67854 0.82846 0.0
C5248 C 0.50672 0.67634 0.80491 0.0
C5249 C 0.51981 0.70046 0.83333 0.0
C5250 C 0.52692 0.66222 0.83487 0.0
C5251 C 0.51776 0.64958 0.85016 0.0
C5252 C 0.52918 0.63308 0.85771 0.0
C5253 C 0.54967 0.62968 0.85008 0.0
C5254 C 0.56003 0.64258 0.8347 0.0
C5255 C 0.54766 0.65918 0.82729 0.0
H5256 H 0.37604 0.3077 0.58049 0.0
H5257 H 0.405 0.33606 0.63432 0.0
H5258 H 0.40086 0.3027 0.6537 0.0
H5259 H 0.34009 0.27681 0.60771 0.0
H5260 H 0.34114 0.25428 0.59081 0.0
H5261 H 0.34752 0.27953 0.58031 0.0
H5262 H 0.38256 0.26875 0.56783 0.0
H5263 H 0.3764 0.24291 0.57683 0.0
H5264 H 0.39878 0.25641 0.58601 0.0
H5265 H 0.3906 0.2626 0.6686 0.0
H5266 H 0.38034 0.22539 0.67351 0.0
H5267 H 0.35921 0.22394 0.60933 0.0
C5268 C 0.38196 0.30698 0.59625 0.0
C5269 C 0.39124 0.32529 0.60535 0.0
C5270 C 0.39826 0.32283 0.6263 0.0
C5271 C 0.39571 0.30363 0.63765 0.0
C5272 C 0.38625 0.28608 0.62822 0.0
C5273 C 0.37995 0.28776 0.6076 0.0
C5274 C 0.37054 0.26697 0.60039 0.0
C5275 C 0.34849 0.26952 0.59443 0.0
C5276 C 0.3828 0.25824 0.58166 0.0
C5277 C 0.37197 0.25323 0.62006 0.0
C5278 C 0.38104 0.26431 0.63617 0.0
C5279 C 0.38365 0.25418 0.65573 0.0
C5280 C 0.37752 0.23271 0.65859 0.0
C5281 C 0.36873 0.22068 0.64205 0.0
C5282 C 0.36588 0.23189 0.62267 0.0
H5283 H 0.68108 0.07812 0.36926 0.0
H5284 H 0.68668 0.13723 0.33773 0.0
H5285 H 0.72328 0.13891 0.3458 0.0
H5286 H 0.71711 0.08979 0.41183 0.0
H5287 H 0.72671 0.06412 0.41182 0.0
H5288 H 0.70116 0.0681 0.40406 0.0
H5289 H 0.70837 0.04969 0.36856 0.0
H5290 H 0.73397 0.04577 0.37616 0.0
H5291 H 0.72915 0.05886 0.35183 0.0
H5292 H 0.76218 0.13226 0.3559 0.0
H5293 H 0.79496 0.12051 0.36807 0.0
H5294 H 0.76506 0.06613 0.39535 0.0
C5295 C 0.68973 0.09183 0.36438 0.0
C5296 C 0.6798 0.10787 0.353 0.0
C5297 C 0.69278 0.1249 0.34681 0.0
C5298 C 0.71402 0.12582 0.35125 0.0
C5299 C 0.72305 0.10968 0.36223 0.0
C5300 C 0.71103 0.09306 0.36893 0.0
C5301 C 0.72425 0.07751 0.38035 0.0
C5302 C 0.71687 0.0747 0.40338 0.0
C5303 C 0.72391 0.05672 0.36853 0.0
C5304 C 0.7457 0.08779 0.37936 0.0
C5305 C 0.74466 0.10627 0.36852 0.0
C5306 C 0.76262 0.11799 0.36464 0.0
C5307 C 0.78155 0.11108 0.37181 0.0
C5308 C 0.78355 0.09251 0.38354 0.0
C5309 C 0.7648 0.08075 0.38719 0.0
H5310 H 0.44994 0.44955 0.62105 0.0
H5311 H 0.39999 0.45106 0.5782 0.0
H5312 H 0.40555 0.48884 0.57465 0.0
H5313 H 0.43959 0.49871 0.64801 0.0
H5314 H 0.46595 0.5057 0.65085 0.0
H5315 H 0.45784 0.4789 0.65004 0.0
H5316 H 0.48298 0.47295 0.61902 0.0
H5317 H 0.49094 0.49981 0.61957 0.0
H5318 H 0.48179 0.48834 0.59546 0.0
H5319 H 0.41802 0.52749 0.57436 0.0
H5320 H 0.43256 0.56256 0.58118 0.0
H5321 H 0.47338 0.53723 0.6258 0.0
C5322 C 0.43978 0.45782 0.61128 0.0
C5323 C 0.42416 0.44678 0.60018 0.0
C5324 C 0.41173 0.45866 0.58729 0.0
C5325 C 0.41497 0.48032 0.58498 0.0
C5326 C 0.43065 0.49051 0.59582 0.0
C5327 C 0.44261 0.47963 0.60908 0.0
C5328 C 0.45818 0.49435 0.61933 0.0
C5329 C 0.45521 0.49442 0.64349 0.0
C5330 C 0.47976 0.48851 0.61295 0.0
C5331 C 0.45316 0.51524 0.60992 0.0
C5332 C 0.43742 0.51258 0.59608 0.0
C5333 C 0.43026 0.52954 0.58525 0.0
C5334 C 0.4388 0.54954 0.58908 0.0
C5335 C 0.45447 0.55298 0.60372 0.0
C5336 C 0.46174 0.53533 0.61418 0.0
H5337 H 0.73655 0.19507 0.94744 0.0
H5338 H 0.71463 0.14747 0.90477 0.0
H5339 H 0.74843 0.14809 0.88651 0.0
H5340 H 0.76816 0.22434 0.90966 0.0
H5341 H 0.78762 0.23031 0.92836 0.0
H5342 H 0.7619 0.22579 0.93752 0.0
H5343 H 0.7737 0.19753 0.96243 0.0
H5344 H 0.7994 0.20195 0.95315 0.0
H5345 H 0.7878 0.17644 0.95177 0.0
H5346 H 0.78878 0.15549 0.87152 0.0
H5347 H 0.82465 0.16719 0.86455 0.0
H5348 H 0.81961 0.20974 0.91722 0.0
C5349 C 0.73858 0.1846 0.93424 0.0
C5350 C 0.72177 0.17114 0.92801 0.0
C5351 C 0.72633 0.158 0.91046 0.0
C5352 C 0.74592 0.15833 0.89979 0.0
C5353 C 0.76189 0.17187 0.90635 0.0
C5354 C 0.75815 0.18472 0.92345 0.0
C5355 C 0.77749 0.19786 0.92795 0.0
C5356 C 0.77354 0.22094 0.92574 0.0
C5357 C 0.78505 0.19316 0.95014 0.0
C5358 C 0.79278 0.19085 0.91075 0.0
C5359 C 0.78373 0.17576 0.89831 0.0
C5360 C 0.7955 0.16731 0.88151 0.0
C5361 C 0.81631 0.17415 0.87749 0.0
C5362 C 0.8262 0.18969 0.88998 0.0
C5363 C 0.81349 0.19787 0.90688 0.0
H5364 H 0.1234 0.47119 0.92448 0.0
H5365 H 0.16945 0.46747 0.87469 0.0
H5366 H 0.18799 0.49695 0.89053 0.0
H5367 H 0.1182 0.52042 0.92375 0.0
H5368 H 0.11464 0.52469 0.95177 0.0
H5369 H 0.10868 0.49987 0.94078 0.0
H5370 H 0.13251 0.48369 0.96712 0.0
H5371 H 0.13967 0.50867 0.97779 0.0
H5372 H 0.15872 0.49188 0.96754 0.0
H5373 H 0.19682 0.5297 0.90537 0.0
H5374 H 0.19241 0.56609 0.91437 0.0
H5375 H 0.14118 0.54906 0.95528 0.0
C5376 C 0.13765 0.47625 0.91717 0.0
C5377 C 0.14509 0.46715 0.89843 0.0
C5378 C 0.16353 0.47435 0.88908 0.0
C5379 C 0.17437 0.49073 0.89824 0.0
C5380 C 0.16664 0.4994 0.91681 0.0
C5381 C 0.14861 0.49244 0.92616 0.0
C5382 C 0.14131 0.50684 0.94325 0.0
C5383 C 0.11946 0.51335 0.93961 0.0
C5384 C 0.14318 0.4972 0.96523 0.0
C5385 C 0.15659 0.52436 0.93996 0.0
C5386 C 0.17181 0.51919 0.92564 0.0
C5387 C 0.18546 0.53382 0.91705 0.0
C5388 C 0.18267 0.55444 0.922 0.0
C5389 C 0.16628 0.55999 0.93522 0.0
C5390 C 0.1539 0.54487 0.9453 0.0
H5391 H 0.07867 0.86831 0.20209 0.0
H5392 H 0.09182 0.8895 0.13807 0.0
H5393 H 0.06673 0.9167 0.14316 0.0
H5394 H 1.02838 0.87107 0.19973 0.0
H5395 H 1.0244 0.87862 0.22694 0.0
H5396 H 0.04598 0.86411 0.21952 0.0
H5397 H 0.06955 0.89251 0.23566 0.0
H5398 H 0.04792 0.90729 0.24304 0.0
H5399 H 0.06809 0.91885 0.22699 0.0
H5400 H 0.03825 0.93815 0.15385 0.0
H5401 H 1.00463 0.9481 0.16619 0.0
H5402 H 1.01075 0.91227 0.22334 0.0
C5403 C 0.07672 0.87898 0.18924 0.0
C5404 C 0.08723 0.87717 0.16979 0.0
C5405 C 0.08381 0.89086 0.15311 0.0
C5406 C 0.06993 0.90647 0.15601 0.0
C5407 C 0.06001 0.90798 0.17565 0.0
C5408 C 0.06312 0.89439 0.19187 0.0
C5409 C 0.04841 0.89675 0.21013 0.0
C5410 C 0.03606 0.87646 0.21429 0.0
C5411 C 0.05915 0.90431 0.23013 0.0
C5412 C 0.03577 0.91326 0.20127 0.0
C5413 C 0.0431 0.92003 0.1817 0.0
C5414 C 0.03257 0.93337 0.16931 0.0
C5415 C 1.01349 0.93893 0.17651 0.0
C5416 C 1.00515 0.93067 0.19563 0.0
C5417 C 1.0169 0.91881 0.20873 0.0
H5418 H 0.78035 0.47876 0.6006 0.0
H5419 H 0.76224 0.41506 0.59114 0.0
H5420 H 0.79767 0.40554 0.58861 0.0
H5421 H 0.83808 0.47193 0.57368 0.0
H5422 H 0.84702 0.49029 0.59309 0.0
H5423 H 0.8235 0.49413 0.58017 0.0
H5424 H 0.80551 0.49699 0.61653 0.0
H5425 H 0.82853 0.49308 0.62944 0.0
H5426 H 0.80691 0.47614 0.63522 0.0
H5427 H 0.82738 0.4005 0.6067 0.0
H5428 H 0.84694 0.40135 0.63901 0.0
H5429 H 0.85038 0.46806 0.63676 0.0
C5430 C 0.78433 0.46318 0.59658 0.0
C5431 C 0.76933 0.44756 0.59614 0.0
C5432 C 0.77402 0.42708 0.59147 0.0
C5433 C 0.79411 0.42167 0.58977 0.0
C5434 C 0.80909 0.43697 0.59307 0.0
C5435 C 0.80447 0.45768 0.59539 0.0
C5436 C 0.82192 0.47016 0.60439 0.0
C5437 C 0.83331 0.48233 0.58678 0.0
C5438 C 0.81529 0.48485 0.62249 0.0
C5439 C 0.83439 0.45269 0.61192 0.0
C5440 C 0.82773 0.4338 0.60372 0.0
C5441 C 0.83327 0.41516 0.61255 0.0
C5442 C 0.84416 0.41573 0.63114 0.0
C5443 C 0.84953 0.43483 0.64048 0.0
C5444 C 0.84613 0.45331 0.62982 0.0
H5445 H 0.15535 0.70962 0.36495 0.0
H5446 H 0.10225 0.68299 0.39626 0.0
H5447 H 0.10513 0.70853 0.42464 0.0
H5448 H 0.17346 0.74465 0.41874 0.0
H5449 H 0.18102 0.76481 0.40041 0.0
H5450 H 0.18668 0.73836 0.39446 0.0
H5451 H 0.16929 0.74148 0.35874 0.0
H5452 H 0.1637 0.7675 0.36465 0.0
H5453 H 0.14343 0.74938 0.35821 0.0
H5454 H 0.09956 0.74252 0.43416 0.0
H5455 H 0.08692 0.77561 0.42248 0.0
H5456 H 0.14017 0.78565 0.38281 0.0
C5457 C 0.14519 0.70887 0.37861 0.0
C5458 C 0.1284 0.69519 0.37856 0.0
C5459 C 0.115 0.69393 0.39607 0.0
C5460 C 0.11682 0.70824 0.41241 0.0
C5461 C 0.13135 0.72431 0.41027 0.0
C5462 C 0.14606 0.72428 0.39406 0.0
C5463 C 0.15509 0.74575 0.39032 0.0
C5464 C 0.17524 0.74855 0.40168 0.0
C5465 C 0.15793 0.75131 0.36659 0.0
C5466 C 0.13906 0.75793 0.40152 0.0
C5467 C 0.12722 0.74557 0.41519 0.0
C5468 C 0.10898 0.75231 0.42391 0.0
C5469 C 0.10164 0.77086 0.41689 0.0
C5470 C 0.11246 0.78212 0.40117 0.0
C5471 C 0.13177 0.77649 0.39452 0.0
H5472 H 0.7645 0.83782 0.67526 0.0
H5473 H 0.7431 0.90002 0.67576 0.0
H5474 H 0.77679 0.91349 0.68446 0.0
H5475 H 0.81061 0.8522 0.71585 0.0
H5476 H 0.82557 0.8338 0.70161 0.0
H5477 H 0.79903 0.82832 0.70672 0.0
H5478 H 0.79398 0.82208 0.66706 0.0
H5479 H 0.82007 0.82732 0.66174 0.0
H5480 H 0.8016 0.84194 0.64832 0.0
H5481 H 0.8107 0.92059 0.67446 0.0
H5482 H 0.83876 0.91924 0.6487 0.0
H5483 H 0.84328 0.85392 0.66024 0.0
C5484 C 0.76696 0.85414 0.67818 0.0
C5485 C 0.75165 0.86793 0.67447 0.0
C5486 C 0.75484 0.88921 0.67845 0.0
C5487 C 0.77392 0.89697 0.68371 0.0
C5488 C 0.78946 0.88321 0.68544 0.0
C5489 C 0.78599 0.86201 0.68374 0.0
C5490 C 0.80557 0.85089 0.68169 0.0
C5491 C 0.81048 0.84072 0.70273 0.0
C5492 C 0.80528 0.83471 0.66358 0.0
C5493 C 0.81987 0.86919 0.67728 0.0
C5494 C 0.81061 0.8878 0.68101 0.0
C5495 C 0.81846 0.9063 0.67231 0.0
C5496 C 0.83443 0.90546 0.65755 0.0
C5497 C 0.84251 0.88631 0.65219 0.0
C5498 C 0.83688 0.86865 0.66405 0.0
H5499 H 0.69595 0.44016 0.83341 0.0
H5500 H 0.6667 0.42488 0.89365 0.0
H5501 H 0.64697 0.45676 0.89141 0.0
H5502 H 0.69873 0.49621 0.84066 0.0
H5503 H 0.69411 0.50097 0.81319 0.0
H5504 H 0.70672 0.47808 0.82073 0.0
H5505 H 0.68 0.45566 0.80123 0.0
H5506 H 0.66706 0.47839 0.79391 0.0
H5507 H 0.65364 0.45795 0.80816 0.0
H5508 H 0.62851 0.48869 0.88063 0.0
H5509 H 0.61543 0.52003 0.865 0.0
H5510 H 0.65712 0.51421 0.81142 0.0
C5511 C 0.68557 0.44363 0.84634 0.0
C5512 C 0.68272 0.42999 0.86373 0.0
C5513 C 0.66918 0.43516 0.88033 0.0
C5514 C 0.65784 0.45312 0.87904 0.0
C5515 C 0.66044 0.46572 0.86115 0.0
C5516 C 0.67427 0.46133 0.84528 0.0
C5517 C 0.67412 0.477 0.82751 0.0
C5518 C 0.69463 0.48877 0.82541 0.0
C5519 C 0.66836 0.46662 0.80647 0.0
C5520 C 0.6577 0.49089 0.83565 0.0
C5521 C 0.65001 0.48407 0.85504 0.0
C5522 C 0.63455 0.4942 0.86557 0.0
C5523 C 0.62712 0.51199 0.85642 0.0
C5524 C 0.63511 0.51971 0.83685 0.0
C5525 C 0.65048 0.50872 0.82625 0.0
H5526 H 0.42385 0.61046 0.5644 0.0
H5527 H 0.44921 0.67277 0.55679 0.0
H5528 H 0.43676 0.67288 0.52004 0.0
H5529 H 0.44006 0.593 0.5153 0.0
H5530 H 0.41854 0.57569 0.51158 0.0
H5531 H 0.42643 0.58211 0.53784 0.0
H5532 H 0.39062 0.59456 0.54722 0.0
H5533 H 0.38262 0.58831 0.52086 0.0
H5534 H 0.37973 0.61401 0.53123 0.0
H5535 H 0.42397 0.66459 0.48303 0.0
H5536 H 0.41623 0.64807 0.44883 0.0
H5537 H 0.40122 0.5904 0.48069 0.0
C5538 C 0.42646 0.62451 0.5554 0.0
C5539 C 0.43729 0.64187 0.56391 0.0
C5540 C 0.44067 0.65947 0.55097 0.0
C5541 C 0.43363 0.65961 0.53005 0.0
C5542 C 0.42334 0.642 0.52223 0.0
C5543 C 0.41997 0.62473 0.53457 0.0
C5544 C 0.41081 0.60683 0.52204 0.0
C5545 C 0.4248 0.58833 0.52166 0.0
C5546 C 0.38968 0.60056 0.53086 0.0
C5547 C 0.40967 0.61655 0.50039 0.0
C5548 C 0.41662 0.63698 0.50093 0.0
C5549 C 0.41825 0.64876 0.48259 0.0
C5550 C 0.41361 0.63927 0.46321 0.0
C5551 C 0.40757 0.61808 0.46207 0.0
C5552 C 0.40493 0.60681 0.48108 0.0
H5553 H 0.91535 0.16468 0.77024 0.0
H5554 H 0.89302 0.2256 0.75937 0.0
H5555 H 0.89668 0.22007 0.72066 0.0
H5556 H 0.95396 0.16979 0.7325 0.0
H5557 H 0.95337 0.14294 0.72495 0.0
H5558 H 0.94513 0.15028 0.75106 0.0
H5559 H 0.91068 0.13109 0.74512 0.0
H5560 H 0.9188 0.12407 0.71873 0.0
H5561 H 0.89584 0.13779 0.72283 0.0
H5562 H 0.90489 0.209 0.68404 0.0
H5563 H 0.92439 0.19725 0.6528 0.0
H5564 H 0.94412 0.14492 0.68795 0.0
C5565 C 0.91071 0.17656 0.75959 0.0
C5566 C 0.90335 0.19527 0.7674 0.0
C5567 C 0.89835 0.21104 0.75338 0.0
C5568 C 0.90017 0.20791 0.7315 0.0
C5569 C 0.90728 0.1891 0.72419 0.0
C5570 C 0.91298 0.17391 0.73785 0.0
C5571 C 0.9236 0.15679 0.72632 0.0
C5572 C 0.94529 0.15486 0.73416 0.0
C5573 C 0.91149 0.13621 0.72838 0.0
C5574 C 0.92336 0.16488 0.704 0.0
C5575 C 0.91324 0.18317 0.70303 0.0
C5576 C 0.91253 0.19454 0.68449 0.0
C5577 C 0.9235 0.18772 0.66684 0.0
C5578 C 0.93528 0.17008 0.66816 0.0
C5579 C 0.93449 0.15797 0.68651 0.0
H5580 H 0.33458 0.65156 0.05204 0.0
H5581 H 0.39462 0.63096 0.06475 0.0
H5582 H 0.40168 0.62771 0.0268 0.0
H5583 H 0.32929 0.62171 0.99751 0.0
H5584 H 0.31625 0.64326 0.98718 0.0
H5585 H 0.3125 0.63595 0.01448 0.0
H5586 H 0.32241 0.67307 0.02608 0.0
H5587 H 0.32636 0.68057 0.99913 0.0
H5588 H 0.34651 0.68436 0.01753 0.0
H5589 H 0.40703 0.63935 0.99125 0.0
H5590 H 0.40844 0.66097 0.95935 0.0
H5591 H 0.34469 0.67249 0.96802 0.0
C5592 C 0.34883 0.64545 0.04677 0.0
C5593 C 0.36415 0.64186 0.06112 0.0
C5594 C 0.38269 0.63395 0.05391 0.0
C5595 C 0.38678 0.63183 0.03235 0.0
C5596 C 0.372 0.63719 0.01838 0.0
C5597 C 0.35306 0.64323 0.02526 0.0
C5598 C 0.34139 0.65208 1.00746 0.0
C5599 C 0.32383 0.63735 1.00129 0.0
C5600 C 0.33378 0.67379 0.01289 0.0
C5601 C 0.35775 0.65275 0.99047 0.0
C5602 C 0.37503 0.6434 0.99677 0.0
C5603 C 0.39336 0.64583 0.98559 0.0
C5604 C 0.39413 0.65838 0.96772 0.0
C5605 C 0.37666 0.66825 0.9614 0.0
C5606 C 0.35817 0.66475 0.9724 0.0
H5607 H 0.8861 0.08446 0.33984 0.0
H5608 H 0.86832 0.13649 0.3781 0.0
H5609 H 0.86157 0.15614 0.34562 0.0
H5610 H 0.90745 0.11413 0.29245 0.0
H5611 H 0.89701 0.09481 0.27485 0.0
H5612 H 0.90531 0.08751 0.30058 0.0
H5613 H 0.87 0.07057 0.30858 0.0
H5614 H 0.86136 0.07826 0.28325 0.0
H5615 H 0.84794 0.08591 0.30697 0.0
H5616 H 0.85072 0.16709 0.30919 0.0
H5617 H 0.83897 0.16902 0.27227 0.0
H5618 H 0.86308 0.10871 0.25954 0.0
C5619 C 0.88189 0.10043 0.34122 0.0
C5620 C 0.87822 0.10936 0.36112 0.0
C5621 C 0.87181 0.12984 0.36276 0.0
C5622 C 0.86779 0.14096 0.34445 0.0
C5623 C 0.87044 0.13125 0.32489 0.0
C5624 C 0.8777 0.11152 0.32323 0.0
C5625 C 0.87662 0.10322 0.30099 0.0
C5626 C 0.89787 0.09973 0.29167 0.0
C5627 C 0.86318 0.08334 0.29991 0.0
C5628 C 0.86694 0.12103 0.29051 0.0
C5629 C 0.86367 0.13722 0.3043 0.0
C5630 C 0.85358 0.15468 0.29814 0.0
C5631 C 0.84687 0.15562 0.27726 0.0
C5632 C 0.85004 0.139 0.26315 0.0
C5633 C 0.86032 0.12168 0.26995 0.0
H5634 H 0.44134 0.7055 0.67657 0.0
H5635 H 0.43382 0.63913 0.67029 0.0
H5636 H 0.41441 0.63818 0.70436 0.0
H5637 H 0.45334 0.70601 0.72744 0.0
H5638 H 0.44098 0.72946 0.73459 0.0
H5639 H 0.44968 0.72553 0.70784 0.0
H5640 H 0.41383 0.731 0.69421 0.0
H5641 H 0.40493 0.73534 0.72096 0.0
H5642 H 0.39271 0.71579 0.70489 0.0
H5643 H 0.40084 0.64424 0.74098 0.0
H5644 H 0.39447 0.65593 0.7774 0.0
H5645 H 0.41305 0.71855 0.75967 0.0
C5646 C 0.43508 0.69082 0.68187 0.0
C5647 C 0.43891 0.67244 0.67079 0.0
C5648 C 0.43071 0.65344 0.67846 0.0
C5649 C 0.41974 0.6528 0.69775 0.0
C5650 C 0.41707 0.67132 0.70872 0.0
C5651 C 0.42442 0.69 0.70092 0.0
C5652 C 0.42214 0.70738 0.71668 0.0
C5653 C 0.44276 0.71767 0.72195 0.0
C5654 C 0.40752 0.72331 0.70871 0.0
C5655 C 0.41313 0.69541 0.73516 0.0
C5656 C 0.40988 0.67476 0.73009 0.0
C5657 C 0.40293 0.6604 0.745 0.0
C5658 C 0.3994 0.66725 0.76567 0.0
C5659 C 0.40319 0.68823 0.77131 0.0
C5660 C 0.40986 0.7025 0.75576 0.0
H5661 H 0.84211 0.17761 0.96923 0.0
H5662 H 0.90371 0.15995 0.95652 0.0
H5663 H 0.90257 0.1392 0.98901 0.0
H5664 H 0.84799 0.19103 0.0167 0.0
H5665 H 0.82414 0.18212 0.02824 0.0
H5666 H 0.82598 0.18768 1.00065 0.0
H5667 H 0.81263 0.15087 0.99168 0.0
H5668 H 0.81057 0.14478 0.01942 0.0
H5669 H 0.82494 0.12879 1.00182 0.0
H5670 H 0.89862 0.12879 0.02515 0.0
H5671 H 0.89438 0.13324 0.0634 0.0
H5672 H 0.83683 0.16124 0.0542 0.0
C5673 C 0.85504 0.16866 0.9729 0.0
C5674 C 0.87296 0.17022 0.96063 0.0
C5675 C 0.88984 0.15886 0.96594 0.0
C5676 C 0.88918 0.14677 0.98411 0.0
C5677 C 0.87155 0.14634 0.99662 0.0
C5678 C 0.85474 0.15707 0.99123 0.0
C5679 C 0.83978 0.15862 1.00944 0.0
C5680 C 0.83421 0.18119 0.01402 0.0
C5681 C 0.82086 0.14496 1.00535 0.0
C5682 C 0.85212 0.14974 0.02666 0.0
C5683 C 0.86965 0.14133 0.01864 0.0
C5684 C 0.88473 0.13476 0.03163 0.0
C5685 C 0.88229 0.13763 0.05333 0.0
C5686 C 0.86522 0.14764 0.06165 0.0
C5687 C 0.84971 0.15309 0.04825 0.0
H5688 H 0.34462 0.60753 0.35834 0.0
H5689 H 0.40957 0.61574 0.35479 0.0
H5690 H 0.40651 0.63621 0.32194 0.0
H5691 H 0.33939 0.59504 0.30685 0.0
H5692 H 0.31533 0.6067 0.30392 0.0
H5693 H 0.32247 0.59777 0.32936 0.0
H5694 H 0.31708 0.634 0.34528 0.0
H5695 H 0.30986 0.64318 0.31981 0.0
H5696 H 0.33007 0.65625 0.33367 0.0
H5697 H 0.3962 0.65054 0.28668 0.0
H5698 H 0.38054 0.65559 0.25203 0.0
H5699 H 0.32257 0.63465 0.27829 0.0
C5700 C 0.35817 0.61391 0.35099 0.0
C5701 C 0.37724 0.60999 0.35905 0.0
C5702 C 0.39474 0.61883 0.34901 0.0
C5703 C 0.39309 0.63039 0.33035 0.0
C5704 C 0.37387 0.63294 0.32224 0.0
C5705 C 0.35672 0.62489 0.3324 0.0
C5706 C 0.3381 0.62669 0.31931 0.0
C5707 C 0.32828 0.60529 0.31458 0.0
C5708 C 0.32288 0.64089 0.33017 0.0
C5709 C 0.34745 0.6365 0.29968 0.0
C5710 C 0.368 0.6405 0.30183 0.0
C5711 C 0.3801 0.64796 0.28504 0.0
C5712 C 0.37109 0.65088 0.2655 0.0
C5713 C 0.35033 0.64609 0.26296 0.0
C5714 C 0.33832 0.63914 0.28025 0.0
H5715 H 0.95857 0.1497 0.54999 0.0
H5716 H 0.90409 0.13053 0.58485 0.0
H5717 H 0.88708 0.12264 0.55143 0.0
H5718 H 0.93227 0.17193 0.50299 0.0
H5719 H 0.95127 0.16256 0.48486 0.0
H5720 H 0.95795 0.17006 0.51131 0.0
H5721 H 0.97259 0.13405 0.51699 0.0
H5722 H 0.96573 0.1264 0.49073 0.0
H5723 H 0.95673 0.11125 0.51306 0.0
H5724 H 0.87822 0.11015 0.51435 0.0
H5725 H 0.87754 0.09852 0.47685 0.0
H5726 H 0.93662 0.12847 0.46641 0.0
C5727 C 0.94274 0.14495 0.55053 0.0
C5728 C 0.93258 0.14111 0.5701 0.0
C5729 C 0.91209 0.13391 0.57007 0.0
C5730 C 0.90231 0.12924 0.55112 0.0
C5731 C 0.91302 0.1321 0.53212 0.0
C5732 C 0.93265 0.1403 0.53164 0.0
C5733 C 0.9413 0.14038 0.50925 0.0
C5734 C 0.94596 0.16256 0.50166 0.0
C5735 C 0.96019 0.12724 0.50742 0.0
C5736 C 0.92375 0.13048 0.49746 0.0
C5737 C 0.90756 0.12568 0.5108 0.0
C5738 C 0.89059 0.11443 0.5036 0.0
C5739 C 0.89026 0.1079 0.48223 0.0
C5740 C 0.90673 0.11278 0.46827 0.0
C5741 C 0.92341 0.12465 0.47622 0.0
H5742 H 0.50074 0.89088 0.71251 0.0
H5743 H 0.51272 0.95326 0.6898 0.0
H5744 H 0.54346 0.94179 0.67081 0.0
H5745 H 0.55255 0.87475 0.71762 0.0
H5746 H 0.54594 0.84928 0.70785 0.0
H5747 H 0.52742 0.86383 0.72212 0.0
H5748 H 0.50405 0.85782 0.6906 0.0
H5749 H 0.52316 0.84582 0.67446 0.0
H5750 H 0.51125 0.86836 0.66506 0.0
H5751 H 0.57146 0.92264 0.6526 0.0
H5752 H 0.5974 0.89792 0.64112 0.0
H5753 H 0.56335 0.84865 0.6731 0.0
C5754 C 0.51037 0.90238 0.70447 0.0
C5755 C 0.5048 0.92296 0.70283 0.0
C5756 C 0.51719 0.93744 0.69141 0.0
C5757 C 0.5344 0.93104 0.68039 0.0
C5758 C 0.53855 0.91018 0.68091 0.0
C5759 C 0.52704 0.89616 0.69293 0.0
C5760 C 0.53354 0.87441 0.68965 0.0
C5761 C 0.54029 0.86503 0.71054 0.0
C5762 C 0.51697 0.86083 0.67937 0.0
C5763 C 0.5509 0.87846 0.67439 0.0
C5764 C 0.55352 0.89907 0.66925 0.0
C5765 C 0.56948 0.9064 0.65626 0.0
C5766 C 0.58387 0.89233 0.64951 0.0
C5767 C 0.58174 0.87154 0.65587 0.0
C5768 C 0.56469 0.86439 0.66747 0.0
H5769 H 0.34776 0.46473 0.13192 0.0
H5770 H 0.3473 0.39818 0.13689 0.0
H5771 H 0.32552 0.39513 0.10632 0.0
H5772 H 0.30365 0.47127 0.1317 0.0
H5773 H 0.30108 0.49108 0.11208 0.0
H5774 H 0.32465 0.48848 0.12433 0.0
H5775 H 0.34191 0.48451 0.08749 0.0
H5776 H 0.31782 0.48702 0.07528 0.0
H5777 H 0.33281 0.46498 0.06936 0.0
H5778 H 0.29435 0.39831 0.09044 0.0
H5779 H 0.25878 0.40727 0.09325 0.0
H5780 H 0.27595 0.47192 0.09637 0.0
C5781 C 0.34369 0.44956 0.12584 0.0
C5782 C 0.34864 0.43174 0.13687 0.0
C5783 C 0.34339 0.41207 0.12872 0.0
C5784 C 0.33123 0.41023 0.11111 0.0
C5785 C 0.32448 0.42819 0.10189 0.0
C5786 C 0.33105 0.44765 0.10863 0.0
C5787 C 0.31773 0.46426 0.10066 0.0
C5788 C 0.31139 0.47957 0.11828 0.0
C5789 C 0.3282 0.47586 0.08209 0.0
C5790 C 0.3003 0.45084 0.09297 0.0
C5791 C 0.30528 0.43017 0.09195 0.0
C5792 C 0.2905 0.41438 0.09035 0.0
C5793 C 0.27032 0.41951 0.09212 0.0
C5794 C 0.2653 0.44021 0.09492 0.0
C5795 C 0.28007 0.4561 0.09367 0.0
H5796 H 0.60501 0.978 0.90799 0.0
H5797 H 0.64221 0.97623 0.85065 0.0
H5798 H 0.64468 1.01412 0.8505 0.0
H5799 H 0.58204 0.03193 0.89764 0.0
H5800 H 0.5834 0.03767 0.92548 0.0
H5801 H 0.57765 1.01163 0.91672 0.0
H5802 H 0.60737 0.99896 0.93855 0.0
H5803 H 0.61354 0.02478 0.94686 0.0
H5804 H 0.63244 1.00985 0.9335 0.0
H5805 H 0.6522 0.04843 0.86187 0.0
H5806 H 0.66283 0.07844 0.88279 0.0
H5807 H 0.62146 0.0589 0.93378 0.0
C5808 C 0.61292 0.98565 0.8949 0.0
C5809 C 0.62358 0.97444 0.87941 0.0
C5810 C 0.63407 0.98473 0.86271 0.0
C5811 C 0.63529 1.00621 0.86235 0.0
C5812 C 0.62579 1.01691 0.87871 0.0
C5813 C 0.61446 1.00703 0.89455 0.0
C5814 C 0.60942 0.0215 0.91258 0.0
C5815 C 0.58679 0.02595 0.91313 0.0
C5816 C 0.61612 1.01328 0.9341 0.0
C5817 C 0.62191 0.04024 0.90561 0.0
C5818 C 0.63044 0.03753 0.88563 0.0
C5819 C 0.64505 0.05116 0.87713 0.0
C5820 C 0.65125 0.06796 0.88934 0.0
C5821 C 0.64294 0.07084 0.90992 0.0
C5822 C 0.6278 0.0571 0.91796 0.0
H5823 H 0.25733 0.33355 0.67034 0.0
H5824 H 0.23958 0.39682 0.67702 0.0
H5825 H 0.27447 0.40772 0.68388 0.0
H5826 H 0.30679 0.34181 0.70747 0.0
H5827 H 0.3196 0.32387 0.69043 0.0
H5828 H 0.29323 0.31946 0.69728 0.0
H5829 H 0.28506 0.31702 0.65777 0.0
H5830 H 0.31097 0.32131 0.65078 0.0
H5831 H 0.29249 0.33812 0.64043 0.0
H5832 H 0.30804 0.41363 0.67181 0.0
H5833 H 0.33548 0.41274 0.6452 0.0
H5834 H 0.33606 0.34625 0.65072 0.0
C5835 C 0.26087 0.34948 0.67423 0.0
C5836 C 0.24618 0.36439 0.67273 0.0
C5837 C 0.25083 0.38516 0.67798 0.0
C5838 C 0.27061 0.39145 0.68219 0.0
C5839 C 0.2854 0.37671 0.68157 0.0
C5840 C 0.28063 0.35586 0.67864 0.0
C5841 C 0.2993 0.34381 0.67395 0.0
C5842 C 0.30507 0.33153 0.69346 0.0
C5843 C 0.29679 0.32931 0.65456 0.0
C5844 C 0.31427 0.36159 0.66992 0.0
C5845 C 0.30637 0.38041 0.6757 0.0
C5846 C 0.31484 0.39908 0.66809 0.0
C5847 C 0.33035 0.3985 0.65279 0.0
C5848 C 0.33734 0.37936 0.6457 0.0
C5849 C 0.33069 0.36105 0.65592 0.0
H5850 H 0.97478 0.53673 0.10256 0.0
H5851 H 0.91692 0.56351 0.11502 0.0
H5852 H 0.90034 0.52889 0.11385 0.0
H5853 H 0.9559 0.49564 0.06589 0.0
H5854 H 0.9734 0.47734 0.07531 0.0
H5855 H 0.97976 0.50456 0.07612 0.0
H5856 H 0.9859 0.50089 0.11667 0.0
H5857 H 0.97878 0.47387 0.11512 0.0
H5858 H 0.96579 0.49045 0.13347 0.0
H5859 H 0.88936 0.48996 0.11118 0.0
H5860 H 0.88568 0.45231 0.1039 0.0
H5861 H 0.95038 0.45026 0.09417 0.0
C5862 C 0.95868 0.53543 0.10446 0.0
C5863 C 0.94741 0.5534 0.10855 0.0
C5864 C 0.92617 0.55037 0.11173 0.0
C5865 C 0.9165 0.53057 0.11119 0.0
C5866 C 0.92804 0.51325 0.1076 0.0
C5867 C 0.94871 0.5155 0.10405 0.0
C5868 C 0.95758 0.49426 0.10042 0.0
C5869 C 0.96723 0.49286 0.07812 0.0
C5870 C 0.97293 0.4896 0.11742 0.0
C5871 C 0.93879 0.47989 0.10259 0.0
C5872 C 0.92185 0.49108 0.10675 0.0
C5873 C 0.90267 0.4811 0.10825 0.0
C5874 C 0.90067 0.45945 0.10454 0.0
C5875 C 0.91772 0.44763 0.0995 0.0
C5876 C 0.93703 0.4583 0.09912 0.0
H5877 H 0.05239 0.16974 0.81602 0.0
H5878 H 0.05618 0.11845 0.85898 0.0
H5879 H 1.02074 0.12414 0.87117 0.0
H5880 H 1.02113 0.20263 0.84924 0.0
H5881 H 1.00657 0.21181 0.82776 0.0
H5882 H 0.032 0.20372 0.82285 0.0
H5883 H 1.01922 0.17794 0.79463 0.0
H5884 H 0.99383 0.18618 0.79939 0.0
H5885 H 0.99937 0.15927 0.8015 0.0
H5886 H 0.98081 0.13831 0.88028 0.0
H5887 H 0.94709 0.15433 0.88076 0.0
H5888 H 0.96864 0.19521 0.83069 0.0
C5889 C 0.04597 0.1594 0.82797 0.0
C5890 C 0.05847 0.14326 0.83612 0.0
C5891 C 0.04813 0.13074 0.85182 0.0
C5892 C 1.02751 0.1341 0.85908 0.0
C5893 C 1.01596 0.15017 0.85081 0.0
C5894 C 1.02514 0.16241 0.83519 0.0
C5895 C 1.00972 0.17833 0.82804 0.0
C5896 C 1.01785 0.20043 0.83222 0.0
C5897 C 1.00528 0.17525 0.80449 0.0
C5898 C 0.99044 0.17353 0.8419 0.0
C5899 C 0.99422 0.15735 0.85523 0.0
C5900 C 0.97832 0.15087 0.86957 0.0
C5901 C 0.95873 0.1604 0.86998 0.0
C5902 C 0.95391 0.17674 0.85606 0.0
C5903 C 0.9708 0.18303 0.84196 0.0
H5904 H 0.20021 0.59997 0.32767 0.0
H5905 H 0.1721 0.61814 0.38691 0.0
H5906 H 0.205 0.61485 0.40441 0.0
H5907 H 0.23251 0.56275 0.34742 0.0
H5908 H 0.25387 0.56888 0.3301 0.0
H5909 H 0.22874 0.57418 0.32196 0.0
H5910 H 0.2391 0.61237 0.31579 0.0
H5911 H 0.26442 0.60707 0.32339 0.0
H5912 H 0.25078 0.6271 0.33669 0.0
H5913 H 0.24257 0.60543 0.41678 0.0
H5914 H 0.27821 0.59612 0.42099 0.0
H5915 H 0.28384 0.58617 0.35343 0.0
C5916 C 0.20102 0.60427 0.34417 0.0
C5917 C 0.18281 0.61046 0.35532 0.0
C5918 C 0.18523 0.61446 0.37729 0.0
C5919 C 0.20415 0.61221 0.38756 0.0
C5920 C 0.22148 0.60588 0.3761 0.0
C5921 C 0.22006 0.60245 0.35461 0.0
C5922 C 0.24082 0.59571 0.3457 0.0
C5923 C 0.23886 0.5741 0.3357 0.0
C5924 C 0.24929 0.6115 0.32942 0.0
C5925 C 0.2542 0.59548 0.36544 0.0
C5926 C 0.24264 0.60121 0.38289 0.0
C5927 C 0.25148 0.60126 0.40295 0.0
C5928 C 0.2721 0.59577 0.40528 0.0
C5929 C 0.28486 0.5903 0.38782 0.0
C5930 C 0.27522 0.59029 0.36748 0.0
H5931 H 0.94913 0.36812 0.65178 0.0
H5932 H 0.89875 0.35991 0.69605 0.0
H5933 H 0.90059 0.3219 0.69163 0.0
H5934 H 0.93369 0.32475 0.61578 0.0
H5935 H 0.95936 0.31796 0.60991 0.0
H5936 H 0.95372 0.34429 0.61634 0.0
H5937 H 0.97862 0.34489 0.6478 0.0
H5938 H 0.98481 0.31969 0.6388 0.0
H5939 H 0.97728 0.32355 0.66607 0.0
H5940 H 0.91062 0.28273 0.68408 0.0
H5941 H 0.92389 0.24943 0.67221 0.0
H5942 H 0.96612 0.28164 0.6295 0.0
C5943 C 0.93796 0.35846 0.66015 0.0
C5944 C 0.92351 0.36793 0.67427 0.0
C5945 C 0.90977 0.35392 0.68496 0.0
C5946 C 0.91087 0.33195 0.68258 0.0
C5947 C 0.9255 0.32336 0.66886 0.0
C5948 C 0.93844 0.3364 0.65739 0.0
C5949 C 0.95272 0.32343 0.64349 0.0
C5950 C 0.94969 0.32788 0.61998 0.0
C5951 C 0.97466 0.32818 0.64949 0.0
C5952 C 0.94618 0.30088 0.64888 0.0
C5953 C 0.93053 0.30131 0.66383 0.0
C5954 C 0.92258 0.28261 0.67212 0.0
C5955 C 0.93036 0.26341 0.66514 0.0
C5956 C 0.94603 0.2619 0.64938 0.0
C5957 C 0.95392 0.28144 0.64117 0.0
H5958 H 0.23657 0.19407 0.44751 0.0
H5959 H 0.21497 0.14762 0.40339 0.0
H5960 H 0.24893 0.14875 0.38541 0.0
H5961 H 0.26832 0.22434 0.41078 0.0
H5962 H 0.2876 0.22989 0.4298 0.0
H5963 H 0.26182 0.2251 0.43861 0.0
H5964 H 0.27347 0.19617 0.46293 0.0
H5965 H 0.29921 0.20098 0.45397 0.0
H5966 H 0.28777 0.17545 0.45178 0.0
H5967 H 0.28944 0.15652 0.37106 0.0
H5968 H 0.32536 0.16839 0.36483 0.0
H5969 H 0.31976 0.20958 0.41855 0.0
C5970 C 0.23868 0.18395 0.43405 0.0
C5971 C 0.22194 0.17065 0.42733 0.0
C5972 C 0.22661 0.15801 0.40944 0.0
C5973 C 0.24629 0.15863 0.39895 0.0
C5974 C 0.2622 0.17199 0.40602 0.0
C5975 C 0.25831 0.18437 0.42343 0.0
C5976 C 0.27756 0.19743 0.42847 0.0
C5977 C 0.27357 0.22056 0.42682 0.0
C5978 C 0.28493 0.1922 0.4506 0.0
C5979 C 0.293 0.19089 0.41126 0.0
C5980 C 0.28409 0.17612 0.39832 0.0
C5981 C 0.29604 0.16809 0.38143 0.0
C5982 C 0.31688 0.17503 0.37785 0.0
C5983 C 0.32661 0.19024 0.39087 0.0
C5984 C 0.31374 0.19799 0.40783 0.0
H5985 H 0.36698 0.49549 0.2065 0.0
H5986 H 0.4227 0.49354 0.16939 0.0
H5987 H 0.41928 0.5308 0.16067 0.0
H5988 H 0.34065 0.52834 0.1719 0.0
H5989 H 0.32773 0.54135 0.19322 0.0
H5990 H 0.3352 0.51514 0.1965 0.0
H5991 H 0.35498 0.52577 0.22977 0.0
H5992 H 0.34743 0.55197 0.22673 0.0
H5993 H 0.37383 0.54647 0.22808 0.0
H5994 H 0.40759 0.57077 0.15537 0.0
H5995 H 0.39136 0.60488 0.15607 0.0
H5996 H 0.34374 0.57902 0.19704 0.0
C5997 C 0.37871 0.50266 0.19653 0.0
C5998 C 0.39527 0.49086 0.18876 0.0
C5999 C 0.40993 0.50165 0.17581 0.0
C6000 C 0.40797 0.52303 0.17068 0.0
C6001 C 0.39122 0.5339 0.17847 0.0
C6002 C 0.37693 0.52377 0.19127 0.0
C6003 C 0.36014 0.53822 0.19786 0.0
C6004 C 0.33973 0.53029 0.18937 0.0
C6005 C 0.35904 0.54076 0.22204 0.0
C6006 C 0.36708 0.55838 0.18713 0.0
C6007 C 0.38494 0.55578 0.17579 0.0
C6008 C 0.39369 0.57261 0.16441 0.0
C6009 C 0.38428 0.59216 0.16483 0.0
C6010 C 0.36611 0.59533 0.17668 0.0
C6011 C 0.35762 0.57776 0.18783 0.0
H6012 H 0.63692 0.41628 0.44772 0.0
H6013 H 0.63419 0.34943 0.44801 0.0
H6014 H 0.64413 0.35007 0.48573 0.0
H6015 H 0.679 0.42521 0.4808 0.0
H6016 H 0.66867 0.44683 0.49487 0.0
H6017 H 0.66115 0.44122 0.46823 0.0
H6018 H 0.62372 0.43922 0.48041 0.0
H6019 H 0.63111 0.44526 0.50699 0.0
H6020 H 0.61584 0.42231 0.50181 0.0
H6021 H 0.6561 0.35841 0.52367 0.0
H6022 H 0.6635 0.37284 0.55896 0.0
H6023 H 0.65712 0.43456 0.53494 0.0
C6024 C 0.63833 0.4017 0.45571 0.0
C6025 C 0.63496 0.38268 0.44454 0.0
C6026 C 0.63666 0.36412 0.45591 0.0
C6027 C 0.64246 0.36442 0.4774 0.0
C6028 C 0.6462 0.38342 0.48767 0.0
C6029 C 0.64369 0.40176 0.47726 0.0
C6030 C 0.6477 0.42016 0.49208 0.0
C6031 C 0.66517 0.43418 0.48347 0.0
C6032 C 0.62845 0.43246 0.49553 0.0
C6033 C 0.65348 0.40939 0.5124 0.0
C6034 C 0.65259 0.3882 0.50943 0.0
C6035 C 0.6569 0.37497 0.52596 0.0
C6036 C 0.66144 0.38337 0.54602 0.0
C6037 C 0.66187 0.40497 0.54994 0.0
C6038 C 0.658 0.4181 0.53256 0.0
H6039 H 0.12994 0.8209 0.22864 0.0
H6040 H 0.17035 0.87377 0.21654 0.0
H6041 H 0.16715 0.88365 0.25462 0.0
H6042 H 0.09634 0.84557 0.26429 0.0
H6043 H 0.09198 0.82312 0.28069 0.0
H6044 H 0.09849 0.8201 0.25308 0.0
H6045 H 0.12866 0.79815 0.26264 0.0
H6046 H 0.12237 0.80096 0.29032 0.0
H6047 H 0.1473 0.80843 0.28047 0.0
H6048 H 0.15733 0.88818 0.29562 0.0
H6049 H 0.14391 0.88594 0.33261 0.0
H6050 H 0.11006 0.8299 0.31638 0.0
C6051 C 0.13831 0.83458 0.23383 0.0
C6052 C 0.15043 0.84656 0.21919 0.0
C6053 C 0.16106 0.8642 0.22715 0.0
C6054 C 0.15921 0.86996 0.24886 0.0
C6055 C 0.14673 0.85793 0.26267 0.0
C6056 C 0.13662 0.84047 0.25526 0.0
C6057 C 0.12386 0.83004 0.27274 0.0
C6058 C 0.10134 0.8297 0.26738 0.0
C6059 C 0.13098 0.8081 0.27678 0.0
C6060 C 0.1282 0.84427 0.2914 0.0
C6061 C 0.14138 0.86035 0.28544 0.0
C6062 C 0.14714 0.8755 0.30024 0.0
C6063 C 0.13942 0.87411 0.32137 0.0
C6064 C 0.12595 0.85767 0.32788 0.0
C6065 C 0.12039 0.84267 0.31235 0.0
H6066 H 0.66702 0.37294 0.08632 0.0
H6067 H 0.71991 0.33752 0.0981 0.0
H6068 H 0.72592 0.33324 0.06032 0.0
H6069 H 0.6521 0.34752 0.03617 0.0
H6070 H 0.64644 0.37115 0.02301 0.0
H6071 H 0.64375 0.36935 0.05138 0.0
H6072 H 0.66778 0.40137 0.0555 0.0
H6073 H 0.67051 0.40329 0.02716 0.0
H6074 H 0.69256 0.40144 0.04306 0.0
H6075 H 0.72642 0.33122 0.02023 0.0
H6076 H 0.72522 0.33785 0.9819 0.0
H6077 H 0.6766 0.37979 0.99352 0.0
C6078 C 0.67971 0.3641 0.08095 0.0
C6079 C 0.69239 0.35482 0.09596 0.0
C6080 C 0.70935 0.34427 0.08761 0.0
C6081 C 0.71312 0.34179 0.06583 0.0
C6082 C 0.70057 0.35086 0.0516 0.0
C6083 C 0.68452 0.36236 0.05872 0.0
C6084 C 0.67504 0.3724 0.03959 0.0
C6085 C 0.65301 0.36465 0.03741 0.0
C6086 C 0.67656 0.39603 0.04144 0.0
C6087 C 0.68825 0.36473 0.021 0.0
C6088 C 0.7025 0.35181 0.02839 0.0
C6089 C 0.71572 0.34186 0.0144 0.0
C6090 C 0.71487 0.34567 0.99245 0.0
C6091 C 0.70127 0.3598 0.98423 0.0
C6092 C 0.68757 0.3692 0.99899 0.0
H6093 H 0.19826 0.95312 0.68247 0.0
H6094 H 0.17448 0.89616 0.65512 0.0
H6095 H 0.17643 0.87916 0.69013 0.0
H6096 H 0.23324 0.93129 0.71618 0.0
H6097 H 0.22914 0.94986 0.7372 0.0
H6098 H 0.22499 0.95671 0.71029 0.0
H6099 H 0.18818 0.96596 0.72071 0.0
H6100 H 0.1936 0.95976 0.74759 0.0
H6101 H 0.17233 0.94727 0.73509 0.0
H6102 H 0.18271 0.86808 0.72931 0.0
H6103 H 0.18968 0.8652 0.76755 0.0
H6104 H 0.20805 0.92998 0.76892 0.0
C6105 C 0.19332 0.93706 0.68376 0.0
C6106 C 0.18635 0.92599 0.66573 0.0
C6107 C 0.17987 0.90507 0.66849 0.0
C6108 C 0.18103 0.89526 0.6884 0.0
C6109 C 0.18842 0.90656 0.70569 0.0
C6110 C 0.19407 0.92717 0.70353 0.0
C6111 C 0.20151 0.93608 0.72435 0.0
C6112 C 0.22357 0.9439 0.72189 0.0
C6113 C 0.18807 0.95332 0.7324 0.0
C6114 C 0.19923 0.91739 0.73872 0.0
C6115 C 0.19175 0.9004 0.72773 0.0
C6116 C 0.18837 0.88143 0.73794 0.0
C6117 C 0.19234 0.87992 0.75978 0.0
C6118 C 0.19921 0.89736 0.77157 0.0
C6119 C 0.20267 0.9163 0.76063 0.0
H6120 H 0.62386 0.32491 0.22526 0.0
H6121 H 0.66989 0.37326 0.2155 0.0
H6122 H 0.66735 0.38212 0.25384 0.0
H6123 H 0.59317 0.35179 0.2624 0.0
H6124 H 0.58644 0.32932 0.27806 0.0
H6125 H 0.59246 0.32655 0.2503 0.0
H6126 H 0.62019 0.30097 0.25854 0.0
H6127 H 0.61421 0.30328 0.28635 0.0
H6128 H 0.63969 0.30842 0.27668 0.0
H6129 H 0.65755 0.3866 0.29489 0.0
H6130 H 0.6442 0.38426 0.33193 0.0
H6131 H 0.60539 0.33224 0.31394 0.0
C6132 C 0.63356 0.33737 0.23105 0.0
C6133 C 0.64708 0.34842 0.21691 0.0
C6134 C 0.65945 0.36445 0.22566 0.0
C6135 C 0.658 0.36964 0.24755 0.0
C6136 C 0.64421 0.3586 0.26088 0.0
C6137 C 0.63239 0.34259 0.25278 0.0
C6138 C 0.61873 0.33287 0.27002 0.0
C6139 C 0.59637 0.33527 0.26489 0.0
C6140 C 0.62349 0.31004 0.27308 0.0
C6141 C 0.62454 0.34581 0.28926 0.0
C6142 C 0.63915 0.36073 0.2838 0.0
C6143 C 0.64627 0.37476 0.29913 0.0
C6144 C 0.63854 0.37336 0.32029 0.0
C6145 C 0.62382 0.35792 0.32639 0.0
C6146 C 0.61681 0.34412 0.31029 0.0
H6147 H 0.21359 0.8641 0.08738 0.0
H6148 H 0.14949 0.84916 0.09331 0.0
H6149 H 0.14752 0.84933 0.05395 0.0
H6150 H 0.21468 0.89694 0.04341 0.0
H6151 H 0.23653 0.88627 0.03079 0.0
H6152 H 0.23373 0.88565 0.05917 0.0
H6153 H 0.23873 0.84796 0.05864 0.0
H6154 H 0.23857 0.84371 0.03043 0.0
H6155 H 0.22026 0.8307 0.04702 0.0
H6156 H 0.15399 0.85212 1.01143 0.0
H6157 H 0.16705 0.85711 0.97462 0.0
H6158 H 0.22709 0.86842 0.99794 0.0
C6159 C 0.19886 0.86134 0.08071 0.0
C6160 C 0.18155 0.85719 0.09408 0.0
C6161 C 0.16297 0.85292 0.08389 0.0
C6162 C 0.16178 0.85285 0.06135 0.0
C6163 C 0.17934 0.85685 0.04881 0.0
C6164 C 0.19745 0.86101 0.05846 0.0
C6165 C 0.21459 0.86321 0.04217 0.0
C6166 C 0.22553 0.8843 0.04409 0.0
C6167 C 0.22899 0.84543 0.04475 0.0
C6168 C 0.20351 0.86122 0.0214 0.0
C6169 C 0.18314 0.85716 0.02543 0.0
C6170 C 0.16997 0.85514 1.00849 0.0
C6171 C 0.17761 0.85787 0.98741 0.0
C6172 C 0.1984 0.86249 0.9828 0.0
C6173 C 0.21139 0.86405 1.00037 0.0
H6174 H 0.69294 0.4158 0.76897 0.0
H6175 H 0.70595 0.35133 0.75976 0.0
H6176 H 0.70526 0.35628 0.72082 0.0
H6177 H 0.65961 0.42065 0.72633 0.0
H6178 H 0.66881 0.44604 0.71873 0.0
H6179 H 0.67019 0.43809 0.74583 0.0
H6180 H 0.70912 0.44577 0.74531 0.0
H6181 H 0.70611 0.45572 0.71914 0.0
H6182 H 0.72399 0.43614 0.72319 0.0
H6183 H 0.70098 0.36855 0.68205 0.0
H6184 H 0.69815 0.38745 0.64823 0.0
H6185 H 0.69122 0.44448 0.68309 0.0
C6186 C 0.69556 0.40264 0.75878 0.0
C6187 C 0.69898 0.38296 0.76755 0.0
C6188 C 0.70296 0.36641 0.75355 0.0
C6189 C 0.7026 0.36914 0.73137 0.0
C6190 C 0.69889 0.3887 0.72328 0.0
C6191 C 0.69595 0.40527 0.73667 0.0
C6192 C 0.69257 0.42479 0.72417 0.0
C6193 C 0.67149 0.43282 0.72912 0.0
C6194 C 0.70895 0.44157 0.72827 0.0
C6195 C 0.69421 0.41679 0.7016 0.0
C6196 C 0.69749 0.39585 0.70135 0.0
C6197 C 0.69869 0.38499 0.68222 0.0
C6198 C 0.69696 0.39583 0.66303 0.0
C6199 C 0.6946 0.41746 0.66292 0.0
C6200 C 0.69315 0.42797 0.68258 0.0
H6201 H 0.13532 0.92479 0.4516 0.0
H6202 H 0.1384 0.85829 0.44627 0.0
H6203 H 0.14915 0.85701 0.4837 0.0
H6204 H 0.17722 0.93553 0.48423 0.0
H6205 H 0.1649 0.95472 0.50018 0.0
H6206 H 0.1575 0.95035 0.4733 0.0
H6207 H 0.12049 0.94327 0.48571 0.0
H6208 H 0.12768 0.94804 0.51262 0.0
H6209 H 0.11482 0.92412 0.50573 0.0
H6210 H 0.1605 0.86369 0.52235 0.0
H6211 H 0.16689 0.87639 0.55855 0.0
H6212 H 0.15602 0.9387 0.53865 0.0
C6213 C 0.13843 0.90986 0.45814 0.0
C6214 C 0.13646 0.8916 0.44552 0.0
C6215 C 0.13998 0.87249 0.45525 0.0
C6216 C 0.14619 0.8717 0.47656 0.0
C6217 C 0.14853 0.89011 0.48823 0.0
C6218 C 0.14432 0.90881 0.47937 0.0
C6219 C 0.1467 0.92631 0.49547 0.0
C6220 C 0.16253 0.94269 0.48783 0.0
C6221 C 0.12621 0.93601 0.50016 0.0
C6222 C 0.15384 0.91479 0.51469 0.0
C6223 C 0.15465 0.89389 0.51023 0.0
C6224 C 0.15997 0.88003 0.52579 0.0
C6225 C 0.16382 0.88747 0.5464 0.0
C6226 C 0.1626 0.90872 0.55171 0.0
C6227 C 0.15788 0.92254 0.53527 0.0
H6228 H 0.55043 0.16591 0.31325 0.0
H6229 H 0.55675 0.11907 0.36078 0.0
H6230 H 0.5217 0.12546 0.37386 0.0
H6231 H 0.52018 0.20145 0.3443 0.0
H6232 H 0.50472 0.20829 0.32257 0.0
H6233 H 0.53006 0.2 0.31755 0.0
H6234 H 0.51628 0.17158 0.29257 0.0
H6235 H 0.49099 0.18002 0.2976 0.0
H6236 H 0.4969 0.15351 0.30212 0.0
H6237 H 0.48179 0.14024 0.38333 0.0
H6238 H 0.44801 0.15616 0.38377 0.0
H6239 H 0.46719 0.19204 0.32898 0.0
C6240 C 0.54464 0.15664 0.32637 0.0
C6241 C 0.55773 0.14151 0.33546 0.0
C6242 C 0.5482 0.13044 0.35275 0.0
C6243 C 0.52781 0.13425 0.36054 0.0
C6244 C 0.51568 0.14933 0.35127 0.0
C6245 C 0.52406 0.16009 0.33415 0.0
C6246 C 0.50819 0.17511 0.32615 0.0
C6247 C 0.51629 0.19755 0.32773 0.0
C6248 C 0.50277 0.16974 0.30325 0.0
C6249 C 0.48954 0.17154 0.34123 0.0
C6250 C 0.49402 0.15675 0.35592 0.0
C6251 C 0.47876 0.15166 0.37152 0.0
C6252 C 0.45912 0.16113 0.37187 0.0
C6253 C 0.45358 0.17601 0.35662 0.0
C6254 C 0.46985 0.18095 0.34124 0.0
H6255 H 0.69814 0.59374 0.82548 0.0
H6256 H 0.66933 0.61794 0.88185 0.0
H6257 H 0.70202 0.61655 0.90023 0.0
H6258 H 0.73075 0.55918 0.8495 0.0
H6259 H 0.75217 0.56392 0.83186 0.0
H6260 H 0.72701 0.5679 0.82291 0.0
H6261 H 0.73685 0.6055 0.81288 0.0
H6262 H 0.76219 0.60138 0.8212 0.0
H6263 H 0.74821 0.62238 0.83225 0.0
H6264 H 0.73967 0.60853 0.91416 0.0
H6265 H 0.77542 0.60035 0.91965 0.0
H6266 H 0.78175 0.5842 0.85343 0.0
C6267 C 0.69871 0.59959 0.84145 0.0
C6268 C 0.68037 0.6068 0.85152 0.0
C6269 C 0.68253 0.61314 0.87297 0.0
C6270 C 0.70135 0.61207 0.88376 0.0
C6271 C 0.71884 0.60472 0.87333 0.0
C6272 C 0.71766 0.59909 0.8523 0.0
C6273 C 0.7386 0.59191 0.84438 0.0
C6274 C 0.73703 0.56939 0.8367 0.0
C6275 C 0.74696 0.60613 0.82662 0.0
C6276 C 0.75184 0.59393 0.86417 0.0
C6277 C 0.74004 0.60112 0.88083 0.0
C6278 C 0.74874 0.60324 0.90089 0.0
C6279 C 0.76944 0.5984 0.90398 0.0
C6280 C 0.78246 0.59164 0.88725 0.0
C6281 C 0.77296 0.58947 0.86691 0.0
H6282 H 0.4551 0.9465 0.11613 0.0
H6283 H 0.40039 0.94866 0.08014 0.0
H6284 H 0.40452 0.98659 0.07825 0.0
H6285 H 0.44624 0.99401 0.14699 0.0
H6286 H 0.47258 1.00197 0.14709 0.0
H6287 H 0.46538 0.97494 0.14565 0.0
H6288 H 0.48725 0.97146 0.11142 0.0
H6289 H 0.49428 0.99852 0.11306 0.0
H6290 H 0.48304 0.98818 0.08941 0.0
H6291 H 0.41542 0.0253 0.07885 0.0
H6292 H 0.42938 0.06054 0.08573 0.0
H6293 H 0.4763 0.03506 0.12304 0.0
C6294 C 0.44371 0.95492 0.1082 0.0
C6295 C 0.42712 0.94397 0.09852 0.0
C6296 C 0.413 0.95611 0.08805 0.0
C6297 C 0.41536 0.9779 0.0867 0.0
C6298 C 0.4319 0.98803 0.09609 0.0
C6299 C 0.44567 0.97694 0.107 0.0
C6300 C 0.46181 0.99182 0.11617 0.0
C6301 C 0.46148 0.99061 0.14042 0.0
C6302 C 0.48284 0.9872 0.10695 0.0
C6303 C 0.45505 1.01295 0.10873 0.0
C6304 C 0.43787 1.01029 0.09689 0.0
C6305 C 0.42882 0.02737 0.08816 0.0
C6306 C 0.43701 0.04749 0.09201 0.0
C6307 C 0.45425 0.05098 0.10458 0.0
C6308 C 0.4634 0.0332 0.11297 0.0
H6309 H 0.73657 0.70233 0.44233 0.0
H6310 H 0.71872 0.64688 0.40827 0.0
H6311 H 0.75316 0.64646 0.39153 0.0
H6312 H 0.76814 0.7262 0.40073 0.0
H6313 H 0.78664 0.73681 0.41854 0.0
H6314 H 0.76087 0.73237 0.4276 0.0
H6315 H 0.77291 0.70991 0.45805 0.0
H6316 H 0.79871 0.71435 0.44911 0.0
H6317 H 0.78856 0.68835 0.45214 0.0
H6318 H 0.79358 0.65363 0.37699 0.0
H6319 H 0.82922 0.6658 0.36962 0.0
H6320 H 0.82044 0.71629 0.41352 0.0
C6321 C 0.73963 0.68991 0.43135 0.0
C6322 C 0.72372 0.67457 0.42705 0.0
C6323 C 0.72964 0.65895 0.41237 0.0
C6324 C 0.74961 0.65867 0.40259 0.0
C6325 C 0.76465 0.67407 0.40718 0.0
C6326 C 0.75962 0.6894 0.42149 0.0
C6327 C 0.77815 0.70429 0.4242 0.0
C6328 C 0.77315 0.72622 0.41737 0.0
C6329 C 0.78498 0.70422 0.44724 0.0
C6330 C 0.7945 0.69531 0.40929 0.0
C6331 C 0.7866 0.67783 0.39944 0.0
C6332 C 0.79939 0.66732 0.38494 0.0
C6333 C 0.82006 0.67447 0.38065 0.0
C6334 C 0.82886 0.69233 0.39061 0.0
C6335 C 0.81514 0.7026 0.40518 0.0
H6336 H 0.14832 0.34052 0.4147 0.0
H6337 H 0.18207 0.3302 0.35634 0.0
H6338 H 0.17437 0.29319 0.35907 0.0
H6339 H 0.16869 0.30988 0.44149 0.0
H6340 H 0.14857 0.29834 0.45761 0.0
H6341 H 0.14565 0.3233 0.44655 0.0
H6342 H 0.11316 0.31124 0.42774 0.0
H6343 H 0.11519 0.28619 0.43964 0.0
H6344 H 0.11313 0.28838 0.41139 0.0
H6345 H 0.1793 0.26084 0.37601 0.0
H6346 H 0.18705 0.23369 0.40138 0.0
H6347 H 0.1496 0.26256 0.4492 0.0
C6348 C 0.15287 0.33057 0.40179 0.0
C6349 C 0.1665 0.33796 0.3859 0.0
C6350 C 0.17198 0.32475 0.36901 0.0
C6351 C 0.16766 0.30359 0.37044 0.0
C6352 C 0.15735 0.29619 0.38846 0.0
C6353 C 0.14903 0.30934 0.40342 0.0
C6354 C 0.14279 0.29786 0.42348 0.0
C6355 C 0.15201 0.30794 0.4434 0.0
C6356 C 0.11969 0.29578 0.42568 0.0
C6357 C 0.15173 0.27725 0.41869 0.0
C6358 C 0.15955 0.27638 0.39821 0.0
C6359 C 0.17234 0.26084 0.39166 0.0
C6360 C 0.17707 0.2458 0.40626 0.0
C6361 C 0.16889 0.2464 0.42703 0.0
C6362 C 0.15569 0.26189 0.43318 0.0
H6363 H 0.58505 0.27342 0.41365 0.0
H6364 H 0.64686 0.29315 0.40111 0.0
H6365 H 0.65811 0.25861 0.40916 0.0
H6366 H 0.60026 0.21917 0.44564 0.0
H6367 H 0.57904 0.20665 0.43298 0.0
H6368 H 0.57689 0.23232 0.44375 0.0
H6369 H 0.5651 0.24492 0.40773 0.0
H6370 H 0.56726 0.21968 0.39704 0.0
H6371 H 0.5808 0.24109 0.38437 0.0
H6372 H 0.66088 0.225 0.39716 0.0
H6373 H 0.65501 0.20065 0.36827 0.0
H6374 H 0.59105 0.19839 0.38364 0.0
C6375 C 0.60097 0.27027 0.41402 0.0
C6376 C 0.6152 0.28517 0.40672 0.0
C6377 C 0.6359 0.28147 0.40662 0.0
C6378 C 0.64233 0.2619 0.41147 0.0
C6379 C 0.62774 0.24612 0.41518 0.0
C6380 C 0.60726 0.25025 0.41731 0.0
C6381 C 0.59423 0.23092 0.41396 0.0
C6382 C 0.58722 0.22172 0.43535 0.0
C6383 C 0.57586 0.2344 0.39988 0.0
C6384 C 0.60984 0.21755 0.40355 0.0
C6385 C 0.62929 0.22546 0.40676 0.0
C6386 C 0.64583 0.21844 0.39504 0.0
C6387 C 0.64234 0.20485 0.37834 0.0
C6388 C 0.62244 0.19845 0.37352 0.0
C6389 C 0.60631 0.20359 0.3871 0.0
H6390 H 0.12268 0.9986 0.83415 0.0
H6391 H 0.17114 0.04486 0.83956 0.0
H6392 H 0.1933 1.01863 0.85362 0.0
H6393 H 0.13302 0.96837 0.88019 0.0
H6394 H 0.12819 0.94376 0.86758 0.0
H6395 H 0.11555 0.96623 0.85883 0.0
H6396 H 0.12925 0.96052 0.82057 0.0
H6397 H 0.14157 0.93784 0.82918 0.0
H6398 H 0.15602 0.95823 0.81594 0.0
H6399 H 0.21012 0.98787 0.86787 0.0
H6400 H 0.22266 0.95314 0.87469 0.0
H6401 H 0.16459 0.92578 0.85824 0.0
C6402 C 0.13794 1.00311 0.83837 0.0
C6403 C 0.14516 0.02378 0.83598 0.0
C6404 C 0.16532 0.02911 0.84131 0.0
C6405 C 0.17797 1.01438 0.84949 0.0
C6406 C 0.17038 0.99421 0.85203 0.0
C6407 C 0.15104 0.98839 0.84611 0.0
C6408 C 0.14736 0.96526 0.84882 0.0
C6409 C 0.12999 0.96064 0.8648 0.0
C6410 C 0.14332 0.95485 0.82735 0.0
C6411 C 0.16748 0.95911 0.85748 0.0
C6412 C 0.18042 0.97616 0.85949 0.0
C6413 C 0.20007 0.97443 0.86651 0.0
C6414 C 0.20698 0.95468 0.87067 0.0
C6415 C 0.19435 0.93688 0.86782 0.0
C6416 C 0.17422 0.93919 0.86151 0.0
H6417 H 0.57892 0.93333 0.08816 0.0
H6418 H 0.58192 0.89737 0.14552 0.0
H6419 H 0.54482 0.89549 0.148 0.0
H6420 H 0.52706 0.95821 0.10208 0.0
H6421 H 0.51999 0.95585 0.07481 0.0
H6422 H 0.54585 0.96191 0.08123 0.0
H6423 H 0.55814 0.93146 0.05926 0.0
H6424 H 0.53283 0.92485 0.05216 0.0
H6425 H 0.54774 0.90586 0.06463 0.0
H6426 H 0.51138 0.88697 0.13784 0.0
H6427 H 0.48277 0.87429 0.11734 0.0
H6428 H 0.5004 0.91625 0.06637 0.0
C6429 C 0.57177 0.92597 0.10185 0.0
C6430 C 0.58302 0.91543 0.11663 0.0
C6431 C 0.57336 0.90542 0.134 0.0
C6432 C 0.55236 0.90463 0.13571 0.0
C6433 C 0.54156 0.91416 0.12008 0.0
C6434 C 0.55096 0.92509 0.10365 0.0
C6435 C 0.53657 0.92978 0.08633 0.0
C6436 C 0.53206 0.95281 0.08614 0.0
C6437 C 0.54429 0.92251 0.06435 0.0
C6438 C 0.51849 0.91717 0.0941 0.0
C6439 C 0.52134 0.90911 0.11402 0.0
C6440 C 0.50856 0.89381 0.12269 0.0
C6441 C 0.49265 0.88636 0.11066 0.0
C6442 C 0.48978 0.89421 0.09016 0.0
C6443 C 0.50238 0.91021 0.08209 0.0
H6444 H 0.49733 0.42074 0.58181 0.0
H6445 H 0.48714 0.36562 0.6199 0.0
H6446 H 0.51534 0.37603 0.64197 0.0
H6447 H 0.54508 0.41728 0.57488 0.0
H6448 H 0.5523 0.44435 0.57668 0.0
H6449 H 0.52729 0.43685 0.5694 0.0
H6450 H 0.5136 0.45905 0.60005 0.0
H6451 H 0.53878 0.46571 0.6084 0.0
H6452 H 0.5207 0.45428 0.62688 0.0
H6453 H 0.54772 0.386 0.65357 0.0
H6454 H 0.58437 0.39046 0.64842 0.0
H6455 H 0.57518 0.43819 0.60228 0.0
C6456 C 0.5009 0.41109 0.59503 0.0
C6457 C 0.49015 0.3925 0.59915 0.0
C6458 C 0.49523 0.38006 0.61642 0.0
C6459 C 0.51093 0.38608 0.62942 0.0
C6460 C 0.52143 0.40451 0.62494 0.0
C6461 C 0.51676 0.41674 0.60796 0.0
C6462 C 0.53305 0.43285 0.6033 0.0
C6463 C 0.53984 0.43275 0.57971 0.0
C6464 C 0.52609 0.45424 0.6101 0.0
C6465 C 0.54893 0.42537 0.61784 0.0
C6466 C 0.54135 0.41023 0.6315 0.0
C6467 C 0.55382 0.39824 0.64348 0.0
C6468 C 0.5746 0.40063 0.64023 0.0
C6469 C 0.5824 0.41459 0.62487 0.0
C6470 C 0.56955 0.42784 0.61455 0.0
H6471 H 0.15203 0.76446 0.95087 0.0
H6472 H 0.1864 0.73492 0.90104 0.0
H6473 H 0.17868 0.76276 0.87648 0.0
H6474 H 0.11545 0.79366 0.91501 0.0
H6475 H 0.11751 0.81593 0.93209 0.0
H6476 H 0.11822 0.79033 0.94304 0.0
H6477 H 0.15253 0.79966 0.96024 0.0
H6478 H 0.15146 0.82514 0.94994 0.0
H6479 H 0.17312 0.80991 0.94385 0.0
H6480 H 0.17531 0.79568 0.86076 0.0
H6481 H 0.1855 0.83222 0.859 0.0
H6482 H 0.15389 0.84311 0.91853 0.0
C6483 C 0.1574 0.76384 0.93458 0.0
C6484 C 0.16983 0.74805 0.92761 0.0
C6485 C 0.17707 0.74736 0.90651 0.0
C6486 C 0.1723 0.76277 0.89239 0.0
C6487 C 0.16043 0.77875 0.89977 0.0
C6488 C 0.15333 0.77955 0.92055 0.0
C6489 C 0.14598 0.80065 0.92627 0.0
C6490 C 0.12291 0.80009 0.92927 0.0
C6491 C 0.15643 0.80934 0.94619 0.0
C6492 C 0.15242 0.81223 0.90638 0.0
C6493 C 0.15925 0.79898 0.8907 0.0
C6494 C 0.16964 0.8062 0.87266 0.0
C6495 C 0.17542 0.82705 0.87179 0.0
C6496 C 0.17108 0.84014 0.88912 0.0
C6497 C 0.15749 0.83323 0.90523 0.0
H6498 H 0.89941 0.82227 0.63196 0.0
H6499 H 0.87517 0.8152 0.56927 0.0
H6500 H 0.86593 0.77896 0.57689 0.0
H6501 H 0.92015 0.76821 0.63347 0.0
H6502 H 0.9142 0.76434 0.66115 0.0
H6503 H 0.91965 0.79002 0.65123 0.0
H6504 H 0.88557 0.80163 0.66677 0.0
H6505 H 0.87984 0.7759 0.67645 0.0
H6506 H 0.86258 0.78813 0.65931 0.0
H6507 H 0.85696 0.74318 0.5912 0.0
H6508 H 0.85394 0.70968 0.60805 0.0
H6509 H 0.88479 0.73421 0.66286 0.0
C6510 C 0.89286 0.81297 0.61947 0.0
C6511 C 0.88877 0.82253 0.59931 0.0
C6512 C 0.8792 0.8091 0.58441 0.0
C6513 C 0.87358 0.78815 0.58878 0.0
C6514 C 0.87744 0.7795 0.60848 0.0
C6515 C 0.88734 0.79125 0.62354 0.0
C6516 C 0.88981 0.77718 0.64324 0.0
C6517 C 0.91229 0.7748 0.64754 0.0
C6518 C 0.8788 0.78626 0.66261 0.0
C6519 C 0.87974 0.75597 0.6369 0.0
C6520 C 0.87252 0.75822 0.61676 0.0
C6521 C 0.86257 0.74154 0.60699 0.0
C6522 C 0.86044 0.72217 0.61727 0.0
C6523 C 0.86774 0.71816 0.6379 0.0
C6524 C 0.87787 0.73597 0.64771 0.0
H6525 H 0.45095 0.76836 0.67423 0.0
H6526 H 0.44971 0.77335 0.60608 0.0
H6527 H 0.44018 0.80987 0.60978 0.0
H6528 H 0.40906 0.80124 0.68664 0.0
H6529 H 0.42004 0.81396 0.70916 0.0
H6530 H 0.42693 0.78806 0.70226 0.0
H6531 H 0.46483 0.79884 0.69932 0.0
H6532 H 0.45833 0.82447 0.70762 0.0
H6533 H 0.47238 0.82095 0.68336 0.0
H6534 H 0.42969 0.84832 0.62176 0.0
H6535 H 0.42419 0.88199 0.6397 0.0
H6536 H 0.43392 0.85322 0.69988 0.0
C6537 C 0.44861 0.777 0.65997 0.0
C6538 C 0.45101 0.76705 0.63964 0.0
C6539 C 0.44797 0.77979 0.62181 0.0
C6540 C 0.44244 0.80088 0.62383 0.0
C6541 C 0.43999 0.81001 0.64393 0.0
C6542 C 0.44331 0.79838 0.66173 0.0
C6543 C 0.44048 0.81204 0.68155 0.0
C6544 C 0.42311 0.80329 0.69576 0.0
C6545 C 0.46019 0.81413 0.69372 0.0
C6546 C 0.43509 0.83304 0.67233 0.0
C6547 C 0.4346 0.83158 0.65056 0.0
C6548 C 0.43006 0.84923 0.63882 0.0
C6549 C 0.4266 0.86854 0.64926 0.0
C6550 C 0.42767 0.87086 0.67159 0.0
C6551 C 0.43206 0.85239 0.68296 0.0
H6552 H 0.86995 0.99691 0.20978 0.0
H6553 H 0.92345 0.993 0.16945 0.0
H6554 H 0.92019 0.03012 0.16 0.0
H6555 H 0.84218 0.02857 0.17598 0.0
H6556 H 0.83052 0.04247 0.1975 0.0
H6557 H 0.83806 1.01638 0.20133 0.0
H6558 H 0.85977 0.02822 0.23288 0.0
H6559 H 0.85216 0.05432 0.22926 0.0
H6560 H 0.87859 0.04873 0.22924 0.0
H6561 H 0.90872 0.07014 0.15429 0.0
H6562 H 0.89249 0.10428 0.15452 0.0
H6563 H 0.84669 0.07984 0.19853 0.0
C6564 C 0.88124 1.00365 0.19899 0.0
C6565 C 0.89711 0.9914 0.19051 0.0
C6566 C 0.91126 1.00157 0.17649 0.0
C6567 C 0.90937 0.02282 0.17092 0.0
C6568 C 0.89321 0.03415 0.17938 0.0
C6569 C 0.8795 0.0246 0.19328 0.0
C6570 C 0.86317 0.03935 0.20028 0.0
C6571 C 0.84225 0.03121 0.19336 0.0
C6572 C 0.86345 0.04286 0.22434 0.0
C6573 C 0.86964 0.05898 0.18837 0.0
C6574 C 0.88695 0.05594 0.17626 0.0
C6575 C 0.89524 0.07233 0.1639 0.0
C6576 C 0.88585 0.09189 0.16408 0.0
C6577 C 0.86814 0.09541 0.17656 0.0
C6578 C 0.86017 0.07829 0.18873 0.0
H6579 H 0.59458 0.12514 0.90244 0.0
H6580 H 0.5939 0.15437 0.96408 0.0
H6581 H 0.55782 0.14342 0.96897 0.0
H6582 H 0.54349 0.14024 0.88825 0.0
H6583 H 0.53818 0.11666 0.87388 0.0
H6584 H 0.56382 0.12657 0.87576 0.0
H6585 H 0.57405 0.09172 0.89118 0.0
H6586 H 0.54837 0.08182 0.88966 0.0
H6587 H 0.56106 0.08173 0.91451 0.0
H6588 H 0.51999 0.12565 0.96771 0.0
H6589 H 0.48654 0.11023 0.95833 0.0
H6590 H 0.51014 0.09614 0.89578 0.0
C6591 C 0.58688 0.12972 0.9169 0.0
C6592 C 0.598 0.14091 0.93289 0.0
C6593 C 0.58656 0.146 0.95144 0.0
C6594 C 0.56574 0.1396 0.9544 0.0
C6595 C 0.55559 0.12822 0.93855 0.0
C6596 C 0.56586 0.12386 0.91987 0.0
C6597 C 0.55148 0.1122 0.90478 0.0
C6598 C 0.5491 0.12466 0.88446 0.0
C6599 C 0.55921 0.0906 0.89973 0.0
C6600 C 0.53145 0.11063 0.91762 0.0
C6601 C 0.53422 0.1195 0.93733 0.0
C6602 C 0.51801 0.11895 0.95218 0.0
C6603 C 0.49882 0.10986 0.94674 0.0
C6604 C 0.49505 0.10145 0.92631 0.0
C6605 C 0.51202 0.10205 0.91166 0.0
H6606 H 0.5974 0.62399 0.40263 0.0
H6607 H 0.59599 0.65667 0.46243 0.0
H6608 H 0.55967 0.6465 0.46711 0.0
H6609 H 0.54685 0.63866 0.38619 0.0
H6610 H 0.54165 0.61426 0.37328 0.0
H6611 H 0.5673 0.62416 0.37511 0.0
H6612 H 0.57696 0.59027 0.39304 0.0
H6613 H 0.55126 0.58041 0.39161 0.0
H6614 H 0.56348 0.58184 0.41672 0.0
H6615 H 0.52196 0.62867 0.46622 0.0
H6616 H 0.48865 0.61269 0.45703 0.0
H6617 H 0.5133 0.59519 0.39588 0.0
C6618 C 0.58946 0.6296 0.41654 0.0
C6619 C 0.60034 0.64151 0.4321 0.0
C6620 C 0.5887 0.64785 0.45005 0.0
C6621 C 0.5678 0.64186 0.45293 0.0
C6622 C 0.55789 0.62967 0.43756 0.0
C6623 C 0.5684 0.62416 0.41938 0.0
C6624 C 0.55433 0.61167 0.40474 0.0
C6625 C 0.55242 0.62285 0.38357 0.0
C6626 C 0.56197 0.58976 0.40132 0.0
C6627 C 0.53415 0.61099 0.41722 0.0
C6628 C 0.53658 0.62096 0.43644 0.0
C6629 C 0.52019 0.62119 0.45102 0.0
C6630 C 0.50112 0.61178 0.44572 0.0
C6631 C 0.49777 0.60235 0.42569 0.0
C6632 C 0.5149 0.60211 0.41138 0.0
H6633 H 0.91414 0.31149 0.10458 0.0
H6634 H 0.85055 0.32482 0.09996 0.0
H6635 H 0.84111 0.2927 0.11665 0.0
H6636 H 0.90386 0.25643 0.08987 0.0
H6637 H 0.92253 0.24578 0.10649 0.0
H6638 H 0.92607 0.27171 0.09654 0.0
H6639 H 0.92979 0.28538 0.13465 0.0
H6640 H 0.92615 0.25948 0.14471 0.0
H6641 H 0.91008 0.27959 0.1541 0.0
H6642 H 0.83612 0.25755 0.13251 0.0
H6643 H 0.83717 0.22114 0.1419 0.0
H6644 H 0.90187 0.22355 0.136 0.0
C6645 C 0.89824 0.30803 0.10752 0.0
C6646 C 0.88348 0.32301 0.10177 0.0
C6647 C 0.86289 0.31582 0.10511 0.0
C6648 C 0.857 0.2968 0.11452 0.0
C6649 C 0.87146 0.28303 0.12023 0.0
C6650 C 0.89173 0.28789 0.11642 0.0
C6651 C 0.9035 0.26839 0.12227 0.0
C6652 C 0.91467 0.26009 0.10263 0.0
C6653 C 0.91828 0.27352 0.13998 0.0
C6654 C 0.88674 0.25248 0.13012 0.0
C6655 C 0.86845 0.26173 0.12892 0.0
C6656 C 0.85057 0.25057 0.13427 0.0
C6657 C 0.85119 0.22964 0.14071 0.0
C6658 C 0.86931 0.21892 0.14261 0.0
C6659 C 0.88751 0.23097 0.13657 0.0
H6660 H 0.64081 0.78736 0.87022 0.0
H6661 H 0.59405 0.775 0.91757 0.0
H6662 H 0.61029 0.74315 0.92744 0.0
H6663 H 0.64272 0.75039 0.84611 0.0
H6664 H 0.669 0.74439 0.84258 0.0
H6665 H 0.66248 0.77009 0.84879 0.0
H6666 H 0.68506 0.76998 0.88122 0.0
H6667 H 0.69175 0.74387 0.87503 0.0
H6668 H 0.6817 0.7501 0.90091 0.0
H6669 H 0.61716 0.70944 0.91812 0.0
H6670 H 0.61266 0.68254 0.89127 0.0
H6671 H 0.65913 0.71174 0.85186 0.0
C6672 C 0.6346 0.77796 0.88306 0.0
C6673 C 0.61602 0.78259 0.89257 0.0
C6674 C 0.60815 0.77103 0.90978 0.0
C6675 C 0.61759 0.75322 0.91577 0.0
C6676 C 0.63497 0.7475 0.90454 0.0
C6677 C 0.64407 0.76019 0.88914 0.0
C6678 C 0.65927 0.74877 0.87586 0.0
C6679 C 0.6582 0.75366 0.85195 0.0
C6680 C 0.6807 0.75345 0.88375 0.0
C6681 C 0.65245 0.72693 0.88147 0.0
C6682 C 0.64008 0.7265 0.89967 0.0
C6683 C 0.62721 0.7095 0.90438 0.0
C6684 C 0.62446 0.69437 0.88897 0.0
C6685 C 0.63545 0.69584 0.86976 0.0
C6686 C 0.65096 0.71079 0.86687 0.0
H6687 H 0.19889 0.44206 0.33813 0.0
H6688 H 0.16474 0.4245 0.39493 0.0
H6689 H 0.14631 0.45722 0.39304 0.0
H6690 H 0.20234 0.49815 0.34855 0.0
H6691 H 0.19987 0.50426 0.32099 0.0
H6692 H 0.21155 0.4808 0.32846 0.0
H6693 H 0.18614 0.45982 0.30579 0.0
H6694 H 0.17406 0.48311 0.29858 0.0
H6695 H 0.15943 0.46223 0.31077 0.0
H6696 H 0.12938 0.48986 0.38244 0.0
H6697 H 0.11766 0.52191 0.36712 0.0
H6698 H 0.16316 0.51813 0.31677 0.0
C6699 C 0.18784 0.44533 0.3505 0.0
C6700 C 0.18321 0.43083 0.36678 0.0
C6701 C 0.16865 0.43552 0.38256 0.0
C6702 C 0.15805 0.45395 0.38143 0.0
C6703 C 0.16238 0.46744 0.36455 0.0
C6704 C 0.17724 0.4635 0.34958 0.0
C6705 C 0.17862 0.47999 0.33258 0.0
C6706 C 0.19932 0.49149 0.33266 0.0
C6707 C 0.1743 0.47073 0.31064 0.0
C6708 C 0.16187 0.4938 0.34005 0.0
C6709 C 0.15273 0.48624 0.35849 0.0
C6710 C 0.13659 0.496 0.36817 0.0
C6711 C 0.12997 0.51422 0.3592 0.0
C6712 C 0.13943 0.52271 0.34066 0.0
C6713 C 0.15547 0.51209 0.33084 0.0
H6714 H 0.43258 0.35257 0.1954 0.0
H6715 H 0.41944 0.37847 0.13473 0.0
H6716 H 0.4252 0.34439 0.11791 0.0
H6717 H 0.47163 0.3199 0.17852 0.0
H6718 H 0.46451 0.29904 0.19619 0.0
H6719 H 0.45817 0.3251 0.20295 0.0
H6720 H 0.42022 0.31334 0.20687 0.0
H6721 H 0.42708 0.28734 0.20034 0.0
H6722 H 0.40837 0.29987 0.18527 0.0
H6723 H 0.43656 0.30625 0.10688 0.0
H6724 H 0.44707 0.26999 0.104 0.0
H6725 H 0.45074 0.26731 0.17215 0.0
C6726 C 0.42979 0.35095 0.17873 0.0
C6727 C 0.42421 0.36873 0.16687 0.0
C6728 C 0.42248 0.36549 0.14472 0.0
C6729 C 0.42615 0.34597 0.13489 0.0
C6730 C 0.43174 0.32903 0.14708 0.0
C6731 C 0.43309 0.33133 0.16871 0.0
C6732 C 0.43947 0.31085 0.17841 0.0
C6733 C 0.45964 0.31391 0.1897 0.0
C6734 C 0.42281 0.30234 0.19364 0.0
C6735 C 0.44183 0.29661 0.15898 0.0
C6736 C 0.43751 0.30748 0.14097 0.0
C6737 C 0.43956 0.29781 0.1211 0.0
C6738 C 0.44568 0.2769 0.11955 0.0
C6739 C 0.44966 0.2649 0.13767 0.0
C6740 C 0.44765 0.27539 0.15772 0.0
H6741 H 0.84467 0.58024 0.69781 0.0
H6742 H 0.89183 0.60401 0.65499 0.0
H6743 H 0.90741 0.56951 0.6551 0.0
H6744 H 0.87522 0.54864 0.72924 0.0
H6745 H 0.85597 0.52849 0.73252 0.0
H6746 H 0.84892 0.55472 0.72851 0.0
H6747 H 0.82792 0.54326 0.69632 0.0
H6748 H 0.83479 0.51697 0.70032 0.0
H6749 H 0.83975 0.52911 0.67508 0.0
H6750 H 0.91815 0.5291 0.66124 0.0
H6751 H 0.92089 0.49207 0.67126 0.0
H6752 H 0.86637 0.49676 0.70991 0.0
C6753 C 0.85832 0.57848 0.68832 0.0
C6754 C 0.86684 0.59557 0.67639 0.0
C6755 C 0.88474 0.59171 0.66435 0.0
C6756 C 0.89376 0.57192 0.66437 0.0
C6757 C 0.88492 0.55558 0.67648 0.0
C6758 C 0.86741 0.55893 0.68816 0.0
C6759 C 0.86038 0.53934 0.69992 0.0
C6760 C 0.86011 0.54302 0.72397 0.0
C6761 C 0.83947 0.53173 0.69247 0.0
C6762 C 0.87659 0.52426 0.69335 0.0
C6763 C 0.89075 0.53361 0.67979 0.0
C6764 C 0.90695 0.52199 0.67187 0.0
C6765 C 0.9085 0.50073 0.67773 0.0
C6766 C 0.89398 0.49077 0.69152 0.0
C6767 C 0.87797 0.50327 0.69932 0.0
loop_
_geom_bond_atom_site_label_1
_geom_bond_atom_site_label_2
_geom_bond_distance
_geom_bond_site_symmetry_2
_ccdc_geom_bond_type
Co0 O3 2.042 . S
Co0 O10 2.264 . S
Co0 O29 2.286 . S
Co0 O30 2.069 . S
Co0 O32 2.015 . S
Co1 O3 2.122 . S
Co1 O9 2.073 . S
Co1 O10 2.327 . S
Co1 O11 1.976 . S
Co2 O3 2.087 . S
Co2 O5 2.087 . S
Co2 O12 2.111 . S
Co2 O13 2.143 . S
Co2 O17 2.111 . S
Co2 O31 2.143 . S
O3 Co0 2.042 . S
O3 Co1 2.122 . S
O3 Co2 2.087 . S
O3 H4 0.980 . S
H4 O3 0.980 . S
O5 Co2 2.087 . S
O5 Co6 2.042 . S
O5 Co7 2.122 . S
O5 H8 0.980 . S
Co6 O5 2.042 . S
Co6 O14 2.286 . S
Co6 O15 2.069 . S
Co6 O16 2.015 . S
Co6 O19 2.264 . S
Co7 O5 2.122 . S
Co7 O18 1.976 . S
Co7 O19 2.327 . S
Co7 O20 2.073 . S
H8 O5 0.980 . S
O9 Co1 2.073 . S
O9 C24 1.245 . S
O10 Co0 2.264 . S
O10 Co1 2.327 . S
O10 C24 1.257 . S
O11 Co1 1.976 . S
O11 C23 1.251 . S
O12 Co2 2.111 . S
O12 C23 1.274 . S
O13 Co2 2.143 . S
O13 C26 1.246 . S
O14 Co6 2.286 . S
O14 C25 1.259 . S
O15 Co6 2.069 . S
O15 C25 1.289 . S
O16 Co6 2.015 . S
O16 C26 1.257 . S
O17 Co2 2.111 . S
O17 C27 1.274 . S
O18 Co7 1.976 . S
O18 C27 1.251 . S
O19 Co6 2.264 . S
O19 Co7 2.327 . S
O19 C28 1.257 . S
O20 Co7 2.073 . S
O20 C28 1.245 . S
C21 O29 1.259 . S
C21 O30 1.289 . S
C22 O31 1.246 . S
C22 O32 1.257 . S
C23 O11 1.251 . S
C23 O12 1.274 . S
C24 O9 1.245 . S
C24 O10 1.257 . S
C25 O14 1.259 . S
C25 O15 1.289 . S
C26 O13 1.246 . S
C26 O16 1.257 . S
C27 O17 1.274 . S
C27 O18 1.251 . S
C28 O19 1.257 . S
C28 O20 1.245 . S
O29 Co0 2.286 . S
O29 C21 1.259 . S
O30 Co0 2.069 . S
O30 C21 1.289 . S
O31 Co2 2.143 . S
O31 C22 1.246 . S
O32 Co0 2.015 . S
O32 C22 1.257 . S
Co33 O36 2.042 . S
Co33 O43 2.264 . S
Co33 O62 2.286 . S
Co33 O63 2.069 . S
Co33 O65 2.015 . S
Co34 O36 2.122 . S
Co34 O42 2.073 . S
Co34 O43 2.327 . S
Co34 O44 1.976 . S
Co35 O36 2.087 . S
Co35 O38 2.087 . S
Co35 O45 2.111 . S
Co35 O46 2.143 . S
Co35 O50 2.111 . S
Co35 O64 2.143 . S
O36 Co33 2.042 . S
O36 Co34 2.122 . S
O36 Co35 2.087 . S
O36 H37 0.980 . S
H37 O36 0.980 . S
O38 Co35 2.087 . S
O38 Co39 2.042 . S
O38 Co40 2.122 . S
O38 H41 0.980 . S
Co39 O38 2.042 . S
Co39 O47 2.286 . S
Co39 O48 2.069 . S
Co39 O49 2.015 . S
Co39 O52 2.264 . S
Co40 O38 2.122 . S
Co40 O51 1.976 . S
Co40 O52 2.327 . S
Co40 O53 2.073 . S
H41 O38 0.980 . S
O42 Co34 2.073 . S
O42 C57 1.245 . S
O43 Co33 2.264 . S
O43 Co34 2.327 . S
O43 C57 1.257 . S
O44 Co34 1.976 . S
O44 C56 1.251 . S
O45 Co35 2.111 . S
O45 C56 1.274 . S
O46 Co35 2.143 . S
O46 C59 1.246 . S
O47 Co39 2.286 . S
O47 C58 1.259 . S
O48 Co39 2.069 . S
O48 C58 1.289 . S
O49 Co39 2.015 . S
O49 C59 1.257 . S
O50 Co35 2.111 . S
O50 C60 1.274 . S
O51 Co40 1.976 . S
O51 C60 1.251 . S
O52 Co39 2.264 . S
O52 Co40 2.327 . S
O52 C61 1.257 . S
O53 Co40 2.073 . S
O53 C61 1.245 . S
C54 O62 1.259 . S
C54 O63 1.289 . S
C55 O64 1.246 . S
C55 O65 1.257 . S
C56 O44 1.251 . S
C56 O45 1.274 . S
C57 O42 1.245 . S
C57 O43 1.257 . S
C58 O47 1.259 . S
C58 O48 1.289 . S
C59 O46 1.246 . S
C59 O49 1.257 . S
C60 O50 1.274 . S
C60 O51 1.251 . S
C61 O52 1.257 . S
C61 O53 1.245 . S
O62 Co33 2.286 . S
O62 C54 1.259 . S
O63 Co33 2.069 . S
O63 C54 1.289 . S
O64 Co35 2.143 . S
O64 C55 1.246 . S
O65 Co33 2.015 . S
O65 C55 1.257 . S
Co66 O69 2.042 . S
Co66 O76 2.264 . S
Co66 O95 2.286 . S
Co66 O96 2.069 . S
Co66 O98 2.015 . S
Co67 O69 2.122 . S
Co67 O75 2.073 . S
Co67 O76 2.327 . S
Co67 O77 1.976 . S
Co68 O69 2.087 . S
Co68 O71 2.087 . S
Co68 O78 2.111 . S
Co68 O79 2.143 . S
Co68 O83 2.111 . S
Co68 O97 2.143 . S
O69 Co66 2.042 . S
O69 Co67 2.122 . S
O69 Co68 2.087 . S
O69 H70 0.980 . S
H70 O69 0.980 . S
O71 Co68 2.087 . S
O71 Co72 2.042 . S
O71 Co73 2.122 . S
O71 H74 0.980 . S
Co72 O71 2.042 . S
Co72 O80 2.286 . S
Co72 O81 2.069 . S
Co72 O82 2.015 . S
Co72 O85 2.264 . S
Co73 O71 2.122 . S
Co73 O84 1.976 . S
Co73 O85 2.327 . S
Co73 O86 2.073 . S
H74 O71 0.980 . S
O75 Co67 2.073 . S
O75 C90 1.245 . S
O76 Co66 2.264 . S
O76 Co67 2.327 . S
O76 C90 1.257 . S
O77 Co67 1.976 . S
O77 C89 1.251 . S
O78 Co68 2.111 . S
O78 C89 1.274 . S
O79 Co68 2.143 . S
O79 C92 1.246 . S
O80 Co72 2.286 . S
O80 C91 1.259 . S
O81 Co72 2.069 . S
O81 C91 1.289 . S
O82 Co72 2.015 . S
O82 C92 1.257 . S
O83 Co68 2.111 . S
O83 C93 1.274 . S
O84 Co73 1.976 . S
O84 C93 1.251 . S
O85 Co72 2.264 . S
O85 Co73 2.327 . S
O85 C94 1.257 . S
O86 Co73 2.073 . S
O86 C94 1.245 . S
C87 O95 1.259 . S
C87 O96 1.289 . S
C88 O97 1.246 . S
C88 O98 1.257 . S
C89 O77 1.251 . S
C89 O78 1.274 . S
C90 O75 1.245 . S
C90 O76 1.257 . S
C91 O80 1.259 . S
C91 O81 1.289 . S
C92 O79 1.246 . S
C92 O82 1.257 . S
C93 O83 1.274 . S
C93 O84 1.251 . S
C94 O85 1.257 . S
C94 O86 1.245 . S
O95 Co66 2.286 . S
O95 C87 1.259 . S
O96 Co66 2.069 . S
O96 C87 1.289 . S
O97 Co68 2.143 . S
O97 C88 1.246 . S
O98 Co66 2.015 . S
O98 C88 1.257 . S
Co99 O102 2.042 . S
Co99 O109 2.264 . S
Co99 O128 2.286 . S
Co99 O129 2.069 . S
Co99 O131 2.015 . S
Co100 O102 2.122 . S
Co100 O108 2.073 . S
Co100 O109 2.327 . S
Co100 O110 1.976 . S
Co101 O102 2.087 . S
Co101 O104 2.087 . S
Co101 O111 2.111 . S
Co101 O112 2.143 . S
Co101 O116 2.111 . S
Co101 O130 2.143 . S
O102 Co99 2.042 . S
O102 Co100 2.122 . S
O102 Co101 2.087 . S
O102 H103 0.980 . S
H103 O102 0.980 . S
O104 Co101 2.087 . S
O104 Co105 2.042 . S
O104 Co106 2.122 . S
O104 H107 0.980 . S
Co105 O104 2.042 . S
Co105 O113 2.286 . S
Co105 O114 2.069 . S
Co105 O115 2.015 . S
Co105 O118 2.264 . S
Co106 O104 2.122 . S
Co106 O117 1.976 . S
Co106 O118 2.327 . S
Co106 O119 2.073 . S
H107 O104 0.980 . S
O108 Co100 2.073 . S
O108 C123 1.245 . S
O109 Co99 2.264 . S
O109 Co100 2.327 . S
O109 C123 1.257 . S
O110 Co100 1.976 . S
O110 C122 1.251 . S
O111 Co101 2.111 . S
O111 C122 1.274 . S
O112 Co101 2.143 . S
O112 C125 1.246 . S
O113 Co105 2.286 . S
O113 C124 1.259 . S
O114 Co105 2.069 . S
O114 C124 1.289 . S
O115 Co105 2.015 . S
O115 C125 1.257 . S
O116 Co101 2.111 . S
O116 C126 1.274 . S
O117 Co106 1.976 . S
O117 C126 1.251 . S
O118 Co105 2.264 . S
O118 Co106 2.327 . S
O118 C127 1.257 . S
O119 Co106 2.073 . S
O119 C127 1.245 . S
C120 O128 1.259 . S
C120 O129 1.289 . S
C121 O130 1.246 . S
C121 O131 1.257 . S
C122 O110 1.251 . S
C122 O111 1.274 . S
C123 O108 1.245 . S
C123 O109 1.257 . S
C124 O113 1.259 . S
C124 O114 1.289 . S
C125 O112 1.246 . S
C125 O115 1.257 . S
C126 O116 1.274 . S
C126 O117 1.251 . S
C127 O118 1.257 . S
C127 O119 1.245 . S
O128 Co99 2.286 . S
O128 C120 1.259 . S
O129 Co99 2.069 . S
O129 C120 1.289 . S
O130 Co101 2.143 . S
O130 C121 1.246 . S
O131 Co99 2.015 . S
O131 C121 1.257 . S
Co132 O135 2.042 . S
Co132 O142 2.264 . S
Co132 O161 2.286 . S
Co132 O162 2.069 . S
Co132 O164 2.015 . S
Co133 O135 2.122 . S
Co133 O141 2.073 . S
Co133 O142 2.327 . S
Co133 O143 1.976 . S
Co134 O135 2.087 . S
Co134 O137 2.087 . S
Co134 O144 2.111 . S
Co134 O145 2.143 . S
Co134 O149 2.111 . S
Co134 O163 2.143 . S
O135 Co132 2.042 . S
O135 Co133 2.122 . S
O135 Co134 2.087 . S
O135 H136 0.980 . S
H136 O135 0.980 . S
O137 Co134 2.087 . S
O137 Co138 2.042 . S
O137 Co139 2.122 . S
O137 H140 0.980 . S
Co138 O137 2.042 . S
Co138 O146 2.286 . S
Co138 O147 2.069 . S
Co138 O148 2.015 . S
Co138 O151 2.264 . S
Co139 O137 2.122 . S
Co139 O150 1.976 . S
Co139 O151 2.327 . S
Co139 O152 2.073 . S
H140 O137 0.980 . S
O141 Co133 2.073 . S
O141 C156 1.245 . S
O142 Co132 2.264 . S
O142 Co133 2.327 . S
O142 C156 1.257 . S
O143 Co133 1.976 . S
O143 C155 1.251 . S
O144 Co134 2.111 . S
O144 C155 1.274 . S
O145 Co134 2.143 . S
O145 C158 1.246 . S
O146 Co138 2.286 . S
O146 C157 1.259 . S
O147 Co138 2.069 . S
O147 C157 1.289 . S
O148 Co138 2.015 . S
O148 C158 1.257 . S
O149 Co134 2.111 . S
O149 C159 1.274 . S
O150 Co139 1.976 . S
O150 C159 1.251 . S
O151 Co138 2.264 . S
O151 Co139 2.327 . S
O151 C160 1.257 . S
O152 Co139 2.073 . S
O152 C160 1.245 . S
C153 O161 1.259 . S
C153 O162 1.289 . S
C154 O163 1.246 . S
C154 O164 1.257 . S
C155 O143 1.251 . S
C155 O144 1.274 . S
C156 O141 1.245 . S
C156 O142 1.257 . S
C157 O146 1.259 . S
C157 O147 1.289 . S
C158 O145 1.246 . S
C158 O148 1.257 . S
C159 O149 1.274 . S
C159 O150 1.251 . S
C160 O151 1.257 . S
C160 O152 1.245 . S
O161 Co132 2.286 . S
O161 C153 1.259 . S
O162 Co132 2.069 . S
O162 C153 1.289 . S
O163 Co134 2.143 . S
O163 C154 1.246 . S
O164 Co132 2.015 . S
O164 C154 1.257 . S
Co165 O168 2.042 . S
Co165 O175 2.264 . S
Co165 O194 2.286 . S
Co165 O195 2.069 . S
Co165 O197 2.015 . S
Co166 O168 2.122 . S
Co166 O174 2.073 . S
Co166 O175 2.327 . S
Co166 O176 1.976 . S
Co167 O168 2.087 . S
Co167 O170 2.087 . S
Co167 O177 2.111 . S
Co167 O178 2.143 . S
Co167 O182 2.111 . S
Co167 O196 2.143 . S
O168 Co165 2.042 . S
O168 Co166 2.122 . S
O168 Co167 2.087 . S
O168 H169 0.980 . S
H169 O168 0.980 . S
O170 Co167 2.087 . S
O170 Co171 2.042 . S
O170 Co172 2.122 . S
O170 H173 0.980 . S
Co171 O170 2.042 . S
Co171 O179 2.286 . S
Co171 O180 2.069 . S
Co171 O181 2.015 . S
Co171 O184 2.264 . S
Co172 O170 2.122 . S
Co172 O183 1.976 . S
Co172 O184 2.327 . S
Co172 O185 2.073 . S
H173 O170 0.980 . S
O174 Co166 2.073 . S
O174 C189 1.245 . S
O175 Co165 2.264 . S
O175 Co166 2.327 . S
O175 C189 1.257 . S
O176 Co166 1.976 . S
O176 C188 1.251 . S
O177 Co167 2.111 . S
O177 C188 1.274 . S
O178 Co167 2.143 . S
O178 C191 1.246 . S
O179 Co171 2.286 . S
O179 C190 1.259 . S
O180 Co171 2.069 . S
O180 C190 1.289 . S
O181 Co171 2.015 . S
O181 C191 1.257 . S
O182 Co167 2.111 . S
O182 C192 1.274 . S
O183 Co172 1.976 . S
O183 C192 1.251 . S
O184 Co171 2.264 . S
O184 Co172 2.327 . S
O184 C193 1.257 . S
O185 Co172 2.073 . S
O185 C193 1.245 . S
C186 O194 1.259 . S
C186 O195 1.289 . S
C187 O196 1.246 . S
C187 O197 1.257 . S
C188 O176 1.251 . S
C188 O177 1.274 . S
C189 O174 1.245 . S
C189 O175 1.257 . S
C190 O179 1.259 . S
C190 O180 1.289 . S
C191 O178 1.246 . S
C191 O181 1.257 . S
C192 O182 1.274 . S
C192 O183 1.251 . S
C193 O184 1.257 . S
C193 O185 1.245 . S
O194 Co165 2.286 . S
O194 C186 1.259 . S
O195 Co165 2.069 . S
O195 C186 1.289 . S
O196 Co167 2.143 . S
O196 C187 1.246 . S
O197 Co165 2.015 . S
O197 C187 1.257 . S
Co198 O201 2.042 . S
Co198 O208 2.264 . S
Co198 O227 2.286 . S
Co198 O228 2.069 . S
Co198 O230 2.015 . S
Co199 O201 2.122 . S
Co199 O207 2.073 . S
Co199 O208 2.327 . S
Co199 O209 1.976 . S
Co200 O201 2.087 . S
Co200 O203 2.087 . S
Co200 O210 2.111 . S
Co200 O211 2.143 . S
Co200 O215 2.111 . S
Co200 O229 2.143 . S
O201 Co198 2.042 . S
O201 Co199 2.122 . S
O201 Co200 2.087 . S
O201 H202 0.980 . S
H202 O201 0.980 . S
O203 Co200 2.087 . S
O203 Co204 2.042 . S
O203 Co205 2.122 . S
O203 H206 0.980 . S
Co204 O203 2.042 . S
Co204 O212 2.286 . S
Co204 O213 2.069 . S
Co204 O214 2.015 . S
Co204 O217 2.264 . S
Co205 O203 2.122 . S
Co205 O216 1.976 . S
Co205 O217 2.327 . S
Co205 O218 2.073 . S
H206 O203 0.980 . S
O207 Co199 2.073 . S
O207 C222 1.245 . S
O208 Co198 2.264 . S
O208 Co199 2.327 . S
O208 C222 1.257 . S
O209 Co199 1.976 . S
O209 C221 1.251 . S
O210 Co200 2.111 . S
O210 C221 1.274 . S
O211 Co200 2.143 . S
O211 C224 1.246 . S
O212 Co204 2.286 . S
O212 C223 1.259 . S
O213 Co204 2.069 . S
O213 C223 1.289 . S
O214 Co204 2.015 . S
O214 C224 1.257 . S
O215 Co200 2.111 . S
O215 C225 1.274 . S
O216 Co205 1.976 . S
O216 C225 1.251 . S
O217 Co204 2.264 . S
O217 Co205 2.327 . S
O217 C226 1.257 . S
O218 Co205 2.073 . S
O218 C226 1.245 . S
C219 O227 1.259 . S
C219 O228 1.289 . S
C220 O229 1.246 . S
C220 O230 1.257 . S
C221 O209 1.251 . S
C221 O210 1.274 . S
C222 O207 1.245 . S
C222 O208 1.257 . S
C223 O212 1.259 . S
C223 O213 1.289 . S
C224 O211 1.246 . S
C224 O214 1.257 . S
C225 O215 1.274 . S
C225 O216 1.251 . S
C226 O217 1.257 . S
C226 O218 1.245 . S
O227 Co198 2.286 . S
O227 C219 1.259 . S
O228 Co198 2.069 . S
O228 C219 1.289 . S
O229 Co200 2.143 . S
O229 C220 1.246 . S
O230 Co198 2.015 . S
O230 C220 1.257 . S
Co231 O234 2.042 . S
Co231 O241 2.264 . S
Co231 O260 2.286 . S
Co231 O261 2.069 . S
Co231 O263 2.015 . S
Co232 O234 2.122 . S
Co232 O240 2.073 . S
Co232 O241 2.327 . S
Co232 O242 1.976 . S
Co233 O234 2.087 . S
Co233 O236 2.087 . S
Co233 O243 2.111 . S
Co233 O244 2.143 . S
Co233 O248 2.111 . S
Co233 O262 2.143 . S
O234 Co231 2.042 . S
O234 Co232 2.122 . S
O234 Co233 2.087 . S
O234 H235 0.980 . S
H235 O234 0.980 . S
O236 Co233 2.087 . S
O236 Co237 2.042 . S
O236 Co238 2.122 . S
O236 H239 0.980 . S
Co237 O236 2.042 . S
Co237 O245 2.286 . S
Co237 O246 2.069 . S
Co237 O247 2.015 . S
Co237 O250 2.264 . S
Co238 O236 2.122 . S
Co238 O249 1.976 . S
Co238 O250 2.327 . S
Co238 O251 2.073 . S
H239 O236 0.980 . S
O240 Co232 2.073 . S
O240 C255 1.245 . S
O241 Co231 2.264 . S
O241 Co232 2.327 . S
O241 C255 1.257 . S
O242 Co232 1.976 . S
O242 C254 1.251 . S
O243 Co233 2.111 . S
O243 C254 1.274 . S
O244 Co233 2.143 . S
O244 C257 1.246 . S
O245 Co237 2.286 . S
O245 C256 1.259 . S
O246 Co237 2.069 . S
O246 C256 1.289 . S
O247 Co237 2.015 . S
O247 C257 1.257 . S
O248 Co233 2.111 . S
O248 C258 1.274 . S
O249 Co238 1.976 . S
O249 C258 1.251 . S
O250 Co237 2.264 . S
O250 Co238 2.327 . S
O250 C259 1.257 . S
O251 Co238 2.073 . S
O251 C259 1.245 . S
C252 O260 1.259 . S
C252 O261 1.289 . S
C253 O262 1.246 . S
C253 O263 1.257 . S
C254 O242 1.251 . S
C254 O243 1.274 . S
C255 O240 1.245 . S
C255 O241 1.257 . S
C256 O245 1.259 . S
C256 O246 1.289 . S
C257 O244 1.246 . S
C257 O247 1.257 . S
C258 O248 1.274 . S
C258 O249 1.251 . S
C259 O250 1.257 . S
C259 O251 1.245 . S
O260 Co231 2.286 . S
O260 C252 1.259 . S
O261 Co231 2.069 . S
O261 C252 1.289 . S
O262 Co233 2.143 . S
O262 C253 1.246 . S
O263 Co231 2.015 . S
O263 C253 1.257 . S
Co264 O267 2.042 . S
Co264 O274 2.264 . S
Co264 O293 2.286 . S
Co264 O294 2.069 . S
Co264 O296 2.015 . S
Co265 O267 2.122 . S
Co265 O273 2.073 . S
Co265 O274 2.327 . S
Co265 O275 1.976 . S
Co266 O267 2.087 . S
Co266 O269 2.087 . S
Co266 O276 2.111 . S
Co266 O277 2.143 . S
Co266 O281 2.111 . S
Co266 O295 2.143 . S
O267 Co264 2.042 . S
O267 Co265 2.122 . S
O267 Co266 2.087 . S
O267 H268 0.980 . S
H268 O267 0.980 . S
O269 Co266 2.087 . S
O269 Co270 2.042 . S
O269 Co271 2.122 . S
O269 H272 0.980 . S
Co270 O269 2.042 . S
Co270 O278 2.286 . S
Co270 O279 2.069 . S
Co270 O280 2.015 . S
Co270 O283 2.264 . S
Co271 O269 2.122 . S
Co271 O282 1.976 . S
Co271 O283 2.327 . S
Co271 O284 2.073 . S
H272 O269 0.980 . S
O273 Co265 2.073 . S
O273 C288 1.245 . S
O274 Co264 2.264 . S
O274 Co265 2.327 . S
O274 C288 1.257 . S
O275 Co265 1.976 . S
O275 C287 1.251 . S
O276 Co266 2.111 . S
O276 C287 1.274 . S
O277 Co266 2.143 . S
O277 C290 1.246 . S
O278 Co270 2.286 . S
O278 C289 1.259 . S
O279 Co270 2.069 . S
O279 C289 1.289 . S
O280 Co270 2.015 . S
O280 C290 1.257 . S
O281 Co266 2.111 . S
O281 C291 1.274 . S
O282 Co271 1.976 . S
O282 C291 1.251 . S
O283 Co270 2.264 . S
O283 Co271 2.327 . S
O283 C292 1.257 . S
O284 Co271 2.073 . S
O284 C292 1.245 . S
C285 O293 1.259 . S
C285 O294 1.289 . S
C286 O295 1.246 . S
C286 O296 1.257 . S
C287 O275 1.251 . S
C287 O276 1.274 . S
C288 O273 1.245 . S
C288 O274 1.257 . S
C289 O278 1.259 . S
C289 O279 1.289 . S
C290 O277 1.246 . S
C290 O280 1.257 . S
C291 O281 1.274 . S
C291 O282 1.251 . S
C292 O283 1.257 . S
C292 O284 1.245 . S
O293 Co264 2.286 . S
O293 C285 1.259 . S
O294 Co264 2.069 . S
O294 C285 1.289 . S
O295 Co266 2.143 . S
O295 C286 1.246 . S
O296 Co264 2.015 . S
O296 C286 1.257 . S
Co297 O300 2.042 . S
Co297 O307 2.264 . S
Co297 O326 2.286 . S
Co297 O327 2.069 . S
Co297 O329 2.015 . S
Co298 O300 2.122 . S
Co298 O306 2.073 . S
Co298 O307 2.327 . S
Co298 O308 1.976 . S
Co299 O300 2.087 . S
Co299 O302 2.087 . S
Co299 O309 2.111 . S
Co299 O310 2.143 . S
Co299 O314 2.111 . S
Co299 O328 2.143 . S
O300 Co297 2.042 . S
O300 Co298 2.122 . S
O300 Co299 2.087 . S
O300 H301 0.980 . S
H301 O300 0.980 . S
O302 Co299 2.087 . S
O302 Co303 2.042 . S
O302 Co304 2.122 . S
O302 H305 0.980 . S
Co303 O302 2.042 . S
Co303 O311 2.286 . S
Co303 O312 2.069 . S
Co303 O313 2.015 . S
Co303 O316 2.264 . S
Co304 O302 2.122 . S
Co304 O315 1.976 . S
Co304 O316 2.327 . S
Co304 O317 2.073 . S
H305 O302 0.980 . S
O306 Co298 2.073 . S
O306 C321 1.245 . S
O307 Co297 2.264 . S
O307 Co298 2.327 . S
O307 C321 1.257 . S
O308 Co298 1.976 . S
O308 C320 1.251 . S
O309 Co299 2.111 . S
O309 C320 1.274 . S
O310 Co299 2.143 . S
O310 C323 1.246 . S
O311 Co303 2.286 . S
O311 C322 1.259 . S
O312 Co303 2.069 . S
O312 C322 1.289 . S
O313 Co303 2.015 . S
O313 C323 1.257 . S
O314 Co299 2.111 . S
O314 C324 1.274 . S
O315 Co304 1.976 . S
O315 C324 1.251 . S
O316 Co303 2.264 . S
O316 Co304 2.327 . S
O316 C325 1.257 . S
O317 Co304 2.073 . S
O317 C325 1.245 . S
C318 O326 1.259 . S
C318 O327 1.289 . S
C319 O328 1.246 . S
C319 O329 1.257 . S
C320 O308 1.251 . S
C320 O309 1.274 . S
C321 O306 1.245 . S
C321 O307 1.257 . S
C322 O311 1.259 . S
C322 O312 1.289 . S
C323 O310 1.246 . S
C323 O313 1.257 . S
C324 O314 1.274 . S
C324 O315 1.251 . S
C325 O316 1.257 . S
C325 O317 1.245 . S
O326 Co297 2.286 . S
O326 C318 1.259 . S
O327 Co297 2.069 . S
O327 C318 1.289 . S
O328 Co299 2.143 . S
O328 C319 1.246 . S
O329 Co297 2.015 . S
O329 C319 1.257 . S
Co330 O333 2.042 . S
Co330 O340 2.264 . S
Co330 O359 2.286 . S
Co330 O360 2.069 . S
Co330 O362 2.015 . S
Co331 O333 2.122 . S
Co331 O339 2.073 . S
Co331 O340 2.327 . S
Co331 O341 1.976 . S
Co332 O333 2.087 . S
Co332 O335 2.087 . S
Co332 O342 2.111 . S
Co332 O343 2.143 . S
Co332 O347 2.111 . S
Co332 O361 2.143 . S
O333 Co330 2.042 . S
O333 Co331 2.122 . S
O333 Co332 2.087 . S
O333 H334 0.980 . S
H334 O333 0.980 . S
O335 Co332 2.087 . S
O335 Co336 2.042 . S
O335 Co337 2.122 . S
O335 H338 0.980 . S
Co336 O335 2.042 . S
Co336 O344 2.286 . S
Co336 O345 2.069 . S
Co336 O346 2.015 . S
Co336 O349 2.264 . S
Co337 O335 2.122 . S
Co337 O348 1.976 . S
Co337 O349 2.327 . S
Co337 O350 2.073 . S
H338 O335 0.980 . S
O339 Co331 2.073 . S
O339 C354 1.245 . S
O340 Co330 2.264 . S
O340 Co331 2.327 . S
O340 C354 1.257 . S
O341 Co331 1.976 . S
O341 C353 1.251 . S
O342 Co332 2.111 . S
O342 C353 1.274 . S
O343 Co332 2.143 . S
O343 C356 1.246 . S
O344 Co336 2.286 . S
O344 C355 1.259 . S
O345 Co336 2.069 . S
O345 C355 1.289 . S
O346 Co336 2.015 . S
O346 C356 1.257 . S
O347 Co332 2.111 . S
O347 C357 1.274 . S
O348 Co337 1.976 . S
O348 C357 1.251 . S
O349 Co336 2.264 . S
O349 Co337 2.327 . S
O349 C358 1.257 . S
O350 Co337 2.073 . S
O350 C358 1.245 . S
C351 O359 1.259 . S
C351 O360 1.289 . S
C352 O361 1.246 . S
C352 O362 1.257 . S
C353 O341 1.251 . S
C353 O342 1.274 . S
C354 O339 1.245 . S
C354 O340 1.257 . S
C355 O344 1.259 . S
C355 O345 1.289 . S
C356 O343 1.246 . S
C356 O346 1.257 . S
C357 O347 1.274 . S
C357 O348 1.251 . S
C358 O349 1.257 . S
C358 O350 1.245 . S
O359 Co330 2.286 . S
O359 C351 1.259 . S
O360 Co330 2.069 . S
O360 C351 1.289 . S
O361 Co332 2.143 . S
O361 C352 1.246 . S
O362 Co330 2.015 . S
O362 C352 1.257 . S
Co363 O366 2.042 . S
Co363 O373 2.264 . S
Co363 O392 2.286 . S
Co363 O393 2.069 . S
Co363 O395 2.015 . S
Co364 O366 2.122 . S
Co364 O372 2.073 . S
Co364 O373 2.327 . S
Co364 O374 1.976 . S
Co365 O366 2.087 . S
Co365 O368 2.087 . S
Co365 O375 2.111 . S
Co365 O376 2.143 . S
Co365 O380 2.111 . S
Co365 O394 2.143 . S
O366 Co363 2.042 . S
O366 Co364 2.122 . S
O366 Co365 2.087 . S
O366 H367 0.980 . S
H367 O366 0.980 . S
O368 Co365 2.087 . S
O368 Co369 2.042 . S
O368 Co370 2.122 . S
O368 H371 0.980 . S
Co369 O368 2.042 . S
Co369 O377 2.286 . S
Co369 O378 2.069 . S
Co369 O379 2.015 . S
Co369 O382 2.264 . S
Co370 O368 2.122 . S
Co370 O381 1.976 . S
Co370 O382 2.327 . S
Co370 O383 2.073 . S
H371 O368 0.980 . S
O372 Co364 2.073 . S
O372 C387 1.245 . S
O373 Co363 2.264 . S
O373 Co364 2.327 . S
O373 C387 1.257 . S
O374 Co364 1.976 . S
O374 C386 1.251 . S
O375 Co365 2.111 . S
O375 C386 1.274 . S
O376 Co365 2.143 . S
O376 C389 1.246 . S
O377 Co369 2.286 . S
O377 C388 1.259 . S
O378 Co369 2.069 . S
O378 C388 1.289 . S
O379 Co369 2.015 . S
O379 C389 1.257 . S
O380 Co365 2.111 . S
O380 C390 1.274 . S
O381 Co370 1.976 . S
O381 C390 1.251 . S
O382 Co369 2.264 . S
O382 Co370 2.327 . S
O382 C391 1.257 . S
O383 Co370 2.073 . S
O383 C391 1.245 . S
C384 O392 1.259 . S
C384 O393 1.289 . S
C385 O394 1.246 . S
C385 O395 1.257 . S
C386 O374 1.251 . S
C386 O375 1.274 . S
C387 O372 1.245 . S
C387 O373 1.257 . S
C388 O377 1.259 . S
C388 O378 1.289 . S
C389 O376 1.246 . S
C389 O379 1.257 . S
C390 O380 1.274 . S
C390 O381 1.251 . S
C391 O382 1.257 . S
C391 O383 1.245 . S
O392 Co363 2.286 . S
O392 C384 1.259 . S
O393 Co363 2.069 . S
O393 C384 1.289 . S
O394 Co365 2.143 . S
O394 C385 1.246 . S
O395 Co363 2.015 . S
O395 C385 1.257 . S
Co396 O399 2.042 . S
Co396 O406 2.264 . S
Co396 O425 2.286 . S
Co396 O426 2.069 . S
Co396 O428 2.015 . S
Co397 O399 2.122 . S
Co397 O405 2.073 . S
Co397 O406 2.327 . S
Co397 O407 1.976 . S
Co398 O399 2.087 . S
Co398 O401 2.087 . S
Co398 O408 2.111 . S
Co398 O409 2.143 . S
Co398 O413 2.111 . S
Co398 O427 2.143 . S
O399 Co396 2.042 . S
O399 Co397 2.122 . S
O399 Co398 2.087 . S
O399 H400 0.980 . S
H400 O399 0.980 . S
O401 Co398 2.087 . S
O401 Co402 2.042 . S
O401 Co403 2.122 . S
O401 H404 0.980 . S
Co402 O401 2.042 . S
Co402 O410 2.286 . S
Co402 O411 2.069 . S
Co402 O412 2.015 . S
Co402 O415 2.264 . S
Co403 O401 2.122 . S
Co403 O414 1.976 . S
Co403 O415 2.327 . S
Co403 O416 2.073 . S
H404 O401 0.980 . S
O405 Co397 2.073 . S
O405 C420 1.245 . S
O406 Co396 2.264 . S
O406 Co397 2.327 . S
O406 C420 1.257 . S
O407 Co397 1.976 . S
O407 C419 1.251 . S
O408 Co398 2.111 . S
O408 C419 1.274 . S
O409 Co398 2.143 . S
O409 C422 1.246 . S
O410 Co402 2.286 . S
O410 C421 1.259 . S
O411 Co402 2.069 . S
O411 C421 1.289 . S
O412 Co402 2.015 . S
O412 C422 1.257 . S
O413 Co398 2.111 . S
O413 C423 1.274 . S
O414 Co403 1.976 . S
O414 C423 1.251 . S
O415 Co402 2.264 . S
O415 Co403 2.327 . S
O415 C424 1.257 . S
O416 Co403 2.073 . S
O416 C424 1.245 . S
C417 O425 1.259 . S
C417 O426 1.289 . S
C418 O427 1.246 . S
C418 O428 1.257 . S
C419 O407 1.251 . S
C419 O408 1.274 . S
C420 O405 1.245 . S
C420 O406 1.257 . S
C421 O410 1.259 . S
C421 O411 1.289 . S
C422 O409 1.246 . S
C422 O412 1.257 . S
C423 O413 1.274 . S
C423 O414 1.251 . S
C424 O415 1.257 . S
C424 O416 1.245 . S
O425 Co396 2.286 . S
O425 C417 1.259 . S
O426 Co396 2.069 . S
O426 C417 1.289 . S
O427 Co398 2.143 . S
O427 C418 1.246 . S
O428 Co396 2.015 . S
O428 C418 1.257 . S
Co429 O432 2.042 . S
Co429 O439 2.264 . S
Co429 O458 2.286 . S
Co429 O459 2.069 . S
Co429 O461 2.015 . S
Co430 O432 2.122 . S
Co430 O438 2.073 . S
Co430 O439 2.327 . S
Co430 O440 1.976 . S
Co431 O432 2.087 . S
Co431 O434 2.087 . S
Co431 O441 2.111 . S
Co431 O442 2.143 . S
Co431 O446 2.111 . S
Co431 O460 2.143 . S
O432 Co429 2.042 . S
O432 Co430 2.122 . S
O432 Co431 2.087 . S
O432 H433 0.980 . S
H433 O432 0.980 . S
O434 Co431 2.087 . S
O434 Co435 2.042 . S
O434 Co436 2.122 . S
O434 H437 0.980 . S
Co435 O434 2.042 . S
Co435 O443 2.286 . S
Co435 O444 2.069 . S
Co435 O445 2.015 . S
Co435 O448 2.264 . S
Co436 O434 2.122 . S
Co436 O447 1.976 . S
Co436 O448 2.327 . S
Co436 O449 2.073 . S
H437 O434 0.980 . S
O438 Co430 2.073 . S
O438 C453 1.245 . S
O439 Co429 2.264 . S
O439 Co430 2.327 . S
O439 C453 1.257 . S
O440 Co430 1.976 . S
O440 C452 1.251 . S
O441 Co431 2.111 . S
O441 C452 1.274 . S
O442 Co431 2.143 . S
O442 C455 1.246 . S
O443 Co435 2.286 . S
O443 C454 1.259 . S
O444 Co435 2.069 . S
O444 C454 1.289 . S
O445 Co435 2.015 . S
O445 C455 1.257 . S
O446 Co431 2.111 . S
O446 C456 1.274 . S
O447 Co436 1.976 . S
O447 C456 1.251 . S
O448 Co435 2.264 . S
O448 Co436 2.327 . S
O448 C457 1.257 . S
O449 Co436 2.073 . S
O449 C457 1.245 . S
C450 O458 1.259 . S
C450 O459 1.289 . S
C451 O460 1.246 . S
C451 O461 1.257 . S
C452 O440 1.251 . S
C452 O441 1.274 . S
C453 O438 1.245 . S
C453 O439 1.257 . S
C454 O443 1.259 . S
C454 O444 1.289 . S
C455 O442 1.246 . S
C455 O445 1.257 . S
C456 O446 1.274 . S
C456 O447 1.251 . S
C457 O448 1.257 . S
C457 O449 1.245 . S
O458 Co429 2.286 . S
O458 C450 1.259 . S
O459 Co429 2.069 . S
O459 C450 1.289 . S
O460 Co431 2.143 . S
O460 C451 1.246 . S
O461 Co429 2.015 . S
O461 C451 1.257 . S
Co462 O465 2.042 . S
Co462 O472 2.264 . S
Co462 O491 2.286 . S
Co462 O492 2.069 . S
Co462 O494 2.015 . S
Co463 O465 2.122 . S
Co463 O471 2.073 . S
Co463 O472 2.327 . S
Co463 O473 1.976 . S
Co464 O465 2.087 . S
Co464 O467 2.087 . S
Co464 O474 2.111 . S
Co464 O475 2.143 . S
Co464 O479 2.111 . S
Co464 O493 2.143 . S
O465 Co462 2.042 . S
O465 Co463 2.122 . S
O465 Co464 2.087 . S
O465 H466 0.980 . S
H466 O465 0.980 . S
O467 Co464 2.087 . S
O467 Co468 2.042 . S
O467 Co469 2.122 . S
O467 H470 0.980 . S
Co468 O467 2.042 . S
Co468 O476 2.286 . S
Co468 O477 2.069 . S
Co468 O478 2.015 . S
Co468 O481 2.264 . S
Co469 O467 2.122 . S
Co469 O480 1.976 . S
Co469 O481 2.327 . S
Co469 O482 2.073 . S
H470 O467 0.980 . S
O471 Co463 2.073 . S
O471 C486 1.245 . S
O472 Co462 2.264 . S
O472 Co463 2.327 . S
O472 C486 1.257 . S
O473 Co463 1.976 . S
O473 C485 1.251 . S
O474 Co464 2.111 . S
O474 C485 1.274 . S
O475 Co464 2.143 . S
O475 C488 1.246 . S
O476 Co468 2.286 . S
O476 C487 1.259 . S
O477 Co468 2.069 . S
O477 C487 1.289 . S
O478 Co468 2.015 . S
O478 C488 1.257 . S
O479 Co464 2.111 . S
O479 C489 1.274 . S
O480 Co469 1.976 . S
O480 C489 1.251 . S
O481 Co468 2.264 . S
O481 Co469 2.327 . S
O481 C490 1.257 . S
O482 Co469 2.073 . S
O482 C490 1.245 . S
C483 O491 1.259 . S
C483 O492 1.289 . S
C484 O493 1.246 . S
C484 O494 1.257 . S
C485 O473 1.251 . S
C485 O474 1.274 . S
C486 O471 1.245 . S
C486 O472 1.257 . S
C487 O476 1.259 . S
C487 O477 1.289 . S
C488 O475 1.246 . S
C488 O478 1.257 . S
C489 O479 1.274 . S
C489 O480 1.251 . S
C490 O481 1.257 . S
C490 O482 1.245 . S
O491 Co462 2.286 . S
O491 C483 1.259 . S
O492 Co462 2.069 . S
O492 C483 1.289 . S
O493 Co464 2.143 . S
O493 C484 1.246 . S
O494 Co462 2.015 . S
O494 C484 1.257 . S
Co495 O498 2.042 . S
Co495 O505 2.264 . S
Co495 O524 2.286 . S
Co495 O525 2.069 . S
Co495 O527 2.015 . S
Co496 O498 2.122 . S
Co496 O504 2.073 . S
Co496 O505 2.327 . S
Co496 O506 1.976 . S
Co497 O498 2.087 . S
Co497 O500 2.087 . S
Co497 O507 2.111 . S
Co497 O508 2.143 . S
Co497 O512 2.111 . S
Co497 O526 2.143 . S
O498 Co495 2.042 . S
O498 Co496 2.122 . S
O498 Co497 2.087 . S
O498 H499 0.980 . S
H499 O498 0.980 . S
O500 Co497 2.087 . S
O500 Co501 2.042 . S
O500 Co502 2.122 . S
O500 H503 0.980 . S
Co501 O500 2.042 . S
Co501 O509 2.286 . S
Co501 O510 2.069 . S
Co501 O511 2.015 . S
Co501 O514 2.264 . S
Co502 O500 2.122 . S
Co502 O513 1.976 . S
Co502 O514 2.327 . S
Co502 O515 2.073 . S
H503 O500 0.980 . S
O504 Co496 2.073 . S
O504 C519 1.245 . S
O505 Co495 2.264 . S
O505 Co496 2.327 . S
O505 C519 1.257 . S
O506 Co496 1.976 . S
O506 C518 1.251 . S
O507 Co497 2.111 . S
O507 C518 1.274 . S
O508 Co497 2.143 . S
O508 C521 1.246 . S
O509 Co501 2.286 . S
O509 C520 1.259 . S
O510 Co501 2.069 . S
O510 C520 1.289 . S
O511 Co501 2.015 . S
O511 C521 1.257 . S
O512 Co497 2.111 . S
O512 C522 1.274 . S
O513 Co502 1.976 . S
O513 C522 1.251 . S
O514 Co501 2.264 . S
O514 Co502 2.327 . S
O514 C523 1.257 . S
O515 Co502 2.073 . S
O515 C523 1.245 . S
C516 O524 1.259 . S
C516 O525 1.289 . S
C517 O526 1.246 . S
C517 O527 1.257 . S
C518 O506 1.251 . S
C518 O507 1.274 . S
C519 O504 1.245 . S
C519 O505 1.257 . S
C520 O509 1.259 . S
C520 O510 1.289 . S
C521 O508 1.246 . S
C521 O511 1.257 . S
C522 O512 1.274 . S
C522 O513 1.251 . S
C523 O514 1.257 . S
C523 O515 1.245 . S
O524 Co495 2.286 . S
O524 C516 1.259 . S
O525 Co495 2.069 . S
O525 C516 1.289 . S
O526 Co497 2.143 . S
O526 C517 1.246 . S
O527 Co495 2.015 . S
O527 C517 1.257 . S
Co528 O531 2.042 . S
Co528 O538 2.264 . S
Co528 O557 2.286 . S
Co528 O558 2.069 . S
Co528 O560 2.015 . S
Co529 O531 2.122 . S
Co529 O537 2.073 . S
Co529 O538 2.327 . S
Co529 O539 1.976 . S
Co530 O531 2.087 . S
Co530 O533 2.087 . S
Co530 O540 2.111 . S
Co530 O541 2.143 . S
Co530 O545 2.111 . S
Co530 O559 2.143 . S
O531 Co528 2.042 . S
O531 Co529 2.122 . S
O531 Co530 2.087 . S
O531 H532 0.980 . S
H532 O531 0.980 . S
O533 Co530 2.087 . S
O533 Co534 2.042 . S
O533 Co535 2.122 . S
O533 H536 0.980 . S
Co534 O533 2.042 . S
Co534 O542 2.286 . S
Co534 O543 2.069 . S
Co534 O544 2.015 . S
Co534 O547 2.264 . S
Co535 O533 2.122 . S
Co535 O546 1.976 . S
Co535 O547 2.327 . S
Co535 O548 2.073 . S
H536 O533 0.980 . S
O537 Co529 2.073 . S
O537 C552 1.245 . S
O538 Co528 2.264 . S
O538 Co529 2.327 . S
O538 C552 1.257 . S
O539 Co529 1.976 . S
O539 C551 1.251 . S
O540 Co530 2.111 . S
O540 C551 1.274 . S
O541 Co530 2.143 . S
O541 C554 1.246 . S
O542 Co534 2.286 . S
O542 C553 1.259 . S
O543 Co534 2.069 . S
O543 C553 1.289 . S
O544 Co534 2.015 . S
O544 C554 1.257 . S
O545 Co530 2.111 . S
O545 C555 1.274 . S
O546 Co535 1.976 . S
O546 C555 1.251 . S
O547 Co534 2.264 . S
O547 Co535 2.327 . S
O547 C556 1.257 . S
O548 Co535 2.073 . S
O548 C556 1.245 . S
C549 O557 1.259 . S
C549 O558 1.289 . S
C550 O559 1.246 . S
C550 O560 1.257 . S
C551 O539 1.251 . S
C551 O540 1.274 . S
C552 O537 1.245 . S
C552 O538 1.257 . S
C553 O542 1.259 . S
C553 O543 1.289 . S
C554 O541 1.246 . S
C554 O544 1.257 . S
C555 O545 1.274 . S
C555 O546 1.251 . S
C556 O547 1.257 . S
C556 O548 1.245 . S
O557 Co528 2.286 . S
O557 C549 1.259 . S
O558 Co528 2.069 . S
O558 C549 1.289 . S
O559 Co530 2.143 . S
O559 C550 1.246 . S
O560 Co528 2.015 . S
O560 C550 1.257 . S
Co561 O564 2.042 . S
Co561 O571 2.264 . S
Co561 O590 2.286 . S
Co561 O591 2.069 . S
Co561 O593 2.015 . S
Co562 O564 2.122 . S
Co562 O570 2.073 . S
Co562 O571 2.327 . S
Co562 O572 1.976 . S
Co563 O564 2.087 . S
Co563 O566 2.087 . S
Co563 O573 2.111 . S
Co563 O574 2.143 . S
Co563 O578 2.111 . S
Co563 O592 2.143 . S
O564 Co561 2.042 . S
O564 Co562 2.122 . S
O564 Co563 2.087 . S
O564 H565 0.980 . S
H565 O564 0.980 . S
O566 Co563 2.087 . S
O566 Co567 2.042 . S
O566 Co568 2.122 . S
O566 H569 0.980 . S
Co567 O566 2.042 . S
Co567 O575 2.286 . S
Co567 O576 2.069 . S
Co567 O577 2.015 . S
Co567 O580 2.264 . S
Co568 O566 2.122 . S
Co568 O579 1.976 . S
Co568 O580 2.327 . S
Co568 O581 2.073 . S
H569 O566 0.980 . S
O570 Co562 2.073 . S
O570 C585 1.245 . S
O571 Co561 2.264 . S
O571 Co562 2.327 . S
O571 C585 1.257 . S
O572 Co562 1.976 . S
O572 C584 1.251 . S
O573 Co563 2.111 . S
O573 C584 1.274 . S
O574 Co563 2.143 . S
O574 C587 1.246 . S
O575 Co567 2.286 . S
O575 C586 1.259 . S
O576 Co567 2.069 . S
O576 C586 1.289 . S
O577 Co567 2.015 . S
O577 C587 1.257 . S
O578 Co563 2.111 . S
O578 C588 1.274 . S
O579 Co568 1.976 . S
O579 C588 1.251 . S
O580 Co567 2.264 . S
O580 Co568 2.327 . S
O580 C589 1.257 . S
O581 Co568 2.073 . S
O581 C589 1.245 . S
C582 O590 1.259 . S
C582 O591 1.289 . S
C583 O592 1.246 . S
C583 O593 1.257 . S
C584 O572 1.251 . S
C584 O573 1.274 . S
C585 O570 1.245 . S
C585 O571 1.257 . S
C586 O575 1.259 . S
C586 O576 1.289 . S
C587 O574 1.246 . S
C587 O577 1.257 . S
C588 O578 1.274 . S
C588 O579 1.251 . S
C589 O580 1.257 . S
C589 O581 1.245 . S
O590 Co561 2.286 . S
O590 C582 1.259 . S
O591 Co561 2.069 . S
O591 C582 1.289 . S
O592 Co563 2.143 . S
O592 C583 1.246 . S
O593 Co561 2.015 . S
O593 C583 1.257 . S
Co594 O597 2.042 . S
Co594 O604 2.264 . S
Co594 O623 2.286 . S
Co594 O624 2.069 . S
Co594 O626 2.015 . S
Co595 O597 2.122 . S
Co595 O603 2.073 . S
Co595 O604 2.327 . S
Co595 O605 1.976 . S
Co596 O597 2.087 . S
Co596 O599 2.087 . S
Co596 O606 2.111 . S
Co596 O607 2.143 . S
Co596 O611 2.111 . S
Co596 O625 2.143 . S
O597 Co594 2.042 . S
O597 Co595 2.122 . S
O597 Co596 2.087 . S
O597 H598 0.980 . S
H598 O597 0.980 . S
O599 Co596 2.087 . S
O599 Co600 2.042 . S
O599 Co601 2.122 . S
O599 H602 0.980 . S
Co600 O599 2.042 . S
Co600 O608 2.286 . S
Co600 O609 2.069 . S
Co600 O610 2.015 . S
Co600 O613 2.264 . S
Co601 O599 2.122 . S
Co601 O612 1.976 . S
Co601 O613 2.327 . S
Co601 O614 2.073 . S
H602 O599 0.980 . S
O603 Co595 2.073 . S
O603 C618 1.245 . S
O604 Co594 2.264 . S
O604 Co595 2.327 . S
O604 C618 1.257 . S
O605 Co595 1.976 . S
O605 C617 1.251 . S
O606 Co596 2.111 . S
O606 C617 1.274 . S
O607 Co596 2.143 . S
O607 C620 1.246 . S
O608 Co600 2.286 . S
O608 C619 1.259 . S
O609 Co600 2.069 . S
O609 C619 1.289 . S
O610 Co600 2.015 . S
O610 C620 1.257 . S
O611 Co596 2.111 . S
O611 C621 1.274 . S
O612 Co601 1.976 . S
O612 C621 1.251 . S
O613 Co600 2.264 . S
O613 Co601 2.327 . S
O613 C622 1.257 . S
O614 Co601 2.073 . S
O614 C622 1.245 . S
C615 O623 1.259 . S
C615 O624 1.289 . S
C616 O625 1.246 . S
C616 O626 1.257 . S
C617 O605 1.251 . S
C617 O606 1.274 . S
C618 O603 1.245 . S
C618 O604 1.257 . S
C619 O608 1.259 . S
C619 O609 1.289 . S
C620 O607 1.246 . S
C620 O610 1.257 . S
C621 O611 1.274 . S
C621 O612 1.251 . S
C622 O613 1.257 . S
C622 O614 1.245 . S
O623 Co594 2.286 . S
O623 C615 1.259 . S
O624 Co594 2.069 . S
O624 C615 1.289 . S
O625 Co596 2.143 . S
O625 C616 1.246 . S
O626 Co594 2.015 . S
O626 C616 1.257 . S
Co627 O630 2.042 . S
Co627 O637 2.264 . S
Co627 O656 2.286 . S
Co627 O657 2.069 . S
Co627 O659 2.015 . S
Co628 O630 2.122 . S
Co628 O636 2.073 . S
Co628 O637 2.327 . S
Co628 O638 1.976 . S
Co629 O630 2.087 . S
Co629 O632 2.087 . S
Co629 O639 2.111 . S
Co629 O640 2.143 . S
Co629 O644 2.111 . S
Co629 O658 2.143 . S
O630 Co627 2.042 . S
O630 Co628 2.122 . S
O630 Co629 2.087 . S
O630 H631 0.980 . S
H631 O630 0.980 . S
O632 Co629 2.087 . S
O632 Co633 2.042 . S
O632 Co634 2.122 . S
O632 H635 0.980 . S
Co633 O632 2.042 . S
Co633 O641 2.286 . S
Co633 O642 2.069 . S
Co633 O643 2.015 . S
Co633 O646 2.264 . S
Co634 O632 2.122 . S
Co634 O645 1.976 . S
Co634 O646 2.327 . S
Co634 O647 2.073 . S
H635 O632 0.980 . S
O636 Co628 2.073 . S
O636 C651 1.245 . S
O637 Co627 2.264 . S
O637 Co628 2.327 . S
O637 C651 1.257 . S
O638 Co628 1.976 . S
O638 C650 1.251 . S
O639 Co629 2.111 . S
O639 C650 1.274 . S
O640 Co629 2.143 . S
O640 C653 1.246 . S
O641 Co633 2.286 . S
O641 C652 1.259 . S
O642 Co633 2.069 . S
O642 C652 1.289 . S
O643 Co633 2.015 . S
O643 C653 1.257 . S
O644 Co629 2.111 . S
O644 C654 1.274 . S
O645 Co634 1.976 . S
O645 C654 1.251 . S
O646 Co633 2.264 . S
O646 Co634 2.327 . S
O646 C655 1.257 . S
O647 Co634 2.073 . S
O647 C655 1.245 . S
C648 O656 1.259 . S
C648 O657 1.289 . S
C649 O658 1.246 . S
C649 O659 1.257 . S
C650 O638 1.251 . S
C650 O639 1.274 . S
C651 O636 1.245 . S
C651 O637 1.257 . S
C652 O641 1.259 . S
C652 O642 1.289 . S
C653 O640 1.246 . S
C653 O643 1.257 . S
C654 O644 1.274 . S
C654 O645 1.251 . S
C655 O646 1.257 . S
C655 O647 1.245 . S
O656 Co627 2.286 . S
O656 C648 1.259 . S
O657 Co627 2.069 . S
O657 C648 1.289 . S
O658 Co629 2.143 . S
O658 C649 1.246 . S
O659 Co627 2.015 . S
O659 C649 1.257 . S
Co660 O663 2.042 . S
Co660 O670 2.264 . S
Co660 O689 2.286 . S
Co660 O690 2.069 . S
Co660 O692 2.015 . S
Co661 O663 2.122 . S
Co661 O669 2.073 . S
Co661 O670 2.327 . S
Co661 O671 1.976 . S
Co662 O663 2.087 . S
Co662 O665 2.087 . S
Co662 O672 2.111 . S
Co662 O673 2.143 . S
Co662 O677 2.111 . S
Co662 O691 2.143 . S
O663 Co660 2.042 . S
O663 Co661 2.122 . S
O663 Co662 2.087 . S
O663 H664 0.980 . S
H664 O663 0.980 . S
O665 Co662 2.087 . S
O665 Co666 2.042 . S
O665 Co667 2.122 . S
O665 H668 0.980 . S
Co666 O665 2.042 . S
Co666 O674 2.286 . S
Co666 O675 2.069 . S
Co666 O676 2.015 . S
Co666 O679 2.264 . S
Co667 O665 2.122 . S
Co667 O678 1.976 . S
Co667 O679 2.327 . S
Co667 O680 2.073 . S
H668 O665 0.980 . S
O669 Co661 2.073 . S
O669 C684 1.245 . S
O670 Co660 2.264 . S
O670 Co661 2.327 . S
O670 C684 1.257 . S
O671 Co661 1.976 . S
O671 C683 1.251 . S
O672 Co662 2.111 . S
O672 C683 1.274 . S
O673 Co662 2.143 . S
O673 C686 1.246 . S
O674 Co666 2.286 . S
O674 C685 1.259 . S
O675 Co666 2.069 . S
O675 C685 1.289 . S
O676 Co666 2.015 . S
O676 C686 1.257 . S
O677 Co662 2.111 . S
O677 C687 1.274 . S
O678 Co667 1.976 . S
O678 C687 1.251 . S
O679 Co666 2.264 . S
O679 Co667 2.327 . S
O679 C688 1.257 . S
O680 Co667 2.073 . S
O680 C688 1.245 . S
C681 O689 1.259 . S
C681 O690 1.289 . S
C682 O691 1.246 . S
C682 O692 1.257 . S
C683 O671 1.251 . S
C683 O672 1.274 . S
C684 O669 1.245 . S
C684 O670 1.257 . S
C685 O674 1.259 . S
C685 O675 1.289 . S
C686 O673 1.246 . S
C686 O676 1.257 . S
C687 O677 1.274 . S
C687 O678 1.251 . S
C688 O679 1.257 . S
C688 O680 1.245 . S
O689 Co660 2.286 . S
O689 C681 1.259 . S
O690 Co660 2.069 . S
O690 C681 1.289 . S
O691 Co662 2.143 . S
O691 C682 1.246 . S
O692 Co660 2.015 . S
O692 C682 1.257 . S
Co693 O696 2.042 . S
Co693 O703 2.264 . S
Co693 O722 2.286 . S
Co693 O723 2.069 . S
Co693 O725 2.015 . S
Co694 O696 2.122 . S
Co694 O702 2.073 . S
Co694 O703 2.327 . S
Co694 O704 1.976 . S
Co695 O696 2.087 . S
Co695 O698 2.087 . S
Co695 O705 2.111 . S
Co695 O706 2.143 . S
Co695 O710 2.111 . S
Co695 O724 2.143 . S
O696 Co693 2.042 . S
O696 Co694 2.122 . S
O696 Co695 2.087 . S
O696 H697 0.980 . S
H697 O696 0.980 . S
O698 Co695 2.087 . S
O698 Co699 2.042 . S
O698 Co700 2.122 . S
O698 H701 0.980 . S
Co699 O698 2.042 . S
Co699 O707 2.286 . S
Co699 O708 2.069 . S
Co699 O709 2.015 . S
Co699 O712 2.264 . S
Co700 O698 2.122 . S
Co700 O711 1.976 . S
Co700 O712 2.327 . S
Co700 O713 2.073 . S
H701 O698 0.980 . S
O702 Co694 2.073 . S
O702 C717 1.245 . S
O703 Co693 2.264 . S
O703 Co694 2.327 . S
O703 C717 1.257 . S
O704 Co694 1.976 . S
O704 C716 1.251 . S
O705 Co695 2.111 . S
O705 C716 1.274 . S
O706 Co695 2.143 . S
O706 C719 1.246 . S
O707 Co699 2.286 . S
O707 C718 1.259 . S
O708 Co699 2.069 . S
O708 C718 1.289 . S
O709 Co699 2.015 . S
O709 C719 1.257 . S
O710 Co695 2.111 . S
O710 C720 1.274 . S
O711 Co700 1.976 . S
O711 C720 1.251 . S
O712 Co699 2.264 . S
O712 Co700 2.327 . S
O712 C721 1.257 . S
O713 Co700 2.073 . S
O713 C721 1.245 . S
C714 O722 1.259 . S
C714 O723 1.289 . S
C715 O724 1.246 . S
C715 O725 1.257 . S
C716 O704 1.251 . S
C716 O705 1.274 . S
C717 O702 1.245 . S
C717 O703 1.257 . S
C718 O707 1.259 . S
C718 O708 1.289 . S
C719 O706 1.246 . S
C719 O709 1.257 . S
C720 O710 1.274 . S
C720 O711 1.251 . S
C721 O712 1.257 . S
C721 O713 1.245 . S
O722 Co693 2.286 . S
O722 C714 1.259 . S
O723 Co693 2.069 . S
O723 C714 1.289 . S
O724 Co695 2.143 . S
O724 C715 1.246 . S
O725 Co693 2.015 . S
O725 C715 1.257 . S
Co726 O729 2.042 . S
Co726 O736 2.264 . S
Co726 O755 2.286 . S
Co726 O756 2.069 . S
Co726 O758 2.015 . S
Co727 O729 2.122 . S
Co727 O735 2.073 . S
Co727 O736 2.327 . S
Co727 O737 1.976 . S
Co728 O729 2.087 . S
Co728 O731 2.087 . S
Co728 O738 2.111 . S
Co728 O739 2.143 . S
Co728 O743 2.111 . S
Co728 O757 2.143 . S
O729 Co726 2.042 . S
O729 Co727 2.122 . S
O729 Co728 2.087 . S
O729 H730 0.980 . S
H730 O729 0.980 . S
O731 Co728 2.087 . S
O731 Co732 2.042 . S
O731 Co733 2.122 . S
O731 H734 0.980 . S
Co732 O731 2.042 . S
Co732 O740 2.286 . S
Co732 O741 2.069 . S
Co732 O742 2.015 . S
Co732 O745 2.264 . S
Co733 O731 2.122 . S
Co733 O744 1.976 . S
Co733 O745 2.327 . S
Co733 O746 2.073 . S
H734 O731 0.980 . S
O735 Co727 2.073 . S
O735 C750 1.245 . S
O736 Co726 2.264 . S
O736 Co727 2.327 . S
O736 C750 1.257 . S
O737 Co727 1.976 . S
O737 C749 1.251 . S
O738 Co728 2.111 . S
O738 C749 1.274 . S
O739 Co728 2.143 . S
O739 C752 1.246 . S
O740 Co732 2.286 . S
O740 C751 1.259 . S
O741 Co732 2.069 . S
O741 C751 1.289 . S
O742 Co732 2.015 . S
O742 C752 1.257 . S
O743 Co728 2.111 . S
O743 C753 1.274 . S
O744 Co733 1.976 . S
O744 C753 1.251 . S
O745 Co732 2.264 . S
O745 Co733 2.327 . S
O745 C754 1.257 . S
O746 Co733 2.073 . S
O746 C754 1.245 . S
C747 O755 1.259 . S
C747 O756 1.289 . S
C748 O757 1.246 . S
C748 O758 1.257 . S
C749 O737 1.251 . S
C749 O738 1.274 . S
C750 O735 1.245 . S
C750 O736 1.257 . S
C751 O740 1.259 . S
C751 O741 1.289 . S
C752 O739 1.246 . S
C752 O742 1.257 . S
C753 O743 1.274 . S
C753 O744 1.251 . S
C754 O745 1.257 . S
C754 O746 1.245 . S
O755 Co726 2.286 . S
O755 C747 1.259 . S
O756 Co726 2.069 . S
O756 C747 1.289 . S
O757 Co728 2.143 . S
O757 C748 1.246 . S
O758 Co726 2.015 . S
O758 C748 1.257 . S
Co759 O762 2.042 . S
Co759 O769 2.264 . S
Co759 O788 2.286 . S
Co759 O789 2.069 . S
Co759 O791 2.015 . S
Co760 O762 2.122 . S
Co760 O768 2.073 . S
Co760 O769 2.327 . S
Co760 O770 1.976 . S
Co761 O762 2.087 . S
Co761 O764 2.087 . S
Co761 O771 2.111 . S
Co761 O772 2.143 . S
Co761 O776 2.111 . S
Co761 O790 2.143 . S
O762 Co759 2.042 . S
O762 Co760 2.122 . S
O762 Co761 2.087 . S
O762 H763 0.980 . S
H763 O762 0.980 . S
O764 Co761 2.087 . S
O764 Co765 2.042 . S
O764 Co766 2.122 . S
O764 H767 0.980 . S
Co765 O764 2.042 . S
Co765 O773 2.286 . S
Co765 O774 2.069 . S
Co765 O775 2.015 . S
Co765 O778 2.264 . S
Co766 O764 2.122 . S
Co766 O777 1.976 . S
Co766 O778 2.327 . S
Co766 O779 2.073 . S
H767 O764 0.980 . S
O768 Co760 2.073 . S
O768 C783 1.245 . S
O769 Co759 2.264 . S
O769 Co760 2.327 . S
O769 C783 1.257 . S
O770 Co760 1.976 . S
O770 C782 1.251 . S
O771 Co761 2.111 . S
O771 C782 1.274 . S
O772 Co761 2.143 . S
O772 C785 1.246 . S
O773 Co765 2.286 . S
O773 C784 1.259 . S
O774 Co765 2.069 . S
O774 C784 1.289 . S
O775 Co765 2.015 . S
O775 C785 1.257 . S
O776 Co761 2.111 . S
O776 C786 1.274 . S
O777 Co766 1.976 . S
O777 C786 1.251 . S
O778 Co765 2.264 . S
O778 Co766 2.327 . S
O778 C787 1.257 . S
O779 Co766 2.073 . S
O779 C787 1.245 . S
C780 O788 1.259 . S
C780 O789 1.289 . S
C781 O790 1.246 . S
C781 O791 1.257 . S
C782 O770 1.251 . S
C782 O771 1.274 . S
C783 O768 1.245 . S
C783 O769 1.257 . S
C784 O773 1.259 . S
C784 O774 1.289 . S
C785 O772 1.246 . S
C785 O775 1.257 . S
C786 O776 1.274 . S
C786 O777 1.251 . S
C787 O778 1.257 . S
C787 O779 1.245 . S
O788 Co759 2.286 . S
O788 C780 1.259 . S
O789 Co759 2.069 . S
O789 C780 1.289 . S
O790 Co761 2.143 . S
O790 C781 1.246 . S
O791 Co759 2.015 . S
O791 C781 1.257 . S
Co792 O795 2.042 . S
Co792 O802 2.264 . S
Co792 O821 2.286 . S
Co792 O822 2.069 . S
Co792 O824 2.015 . S
Co793 O795 2.122 . S
Co793 O801 2.073 . S
Co793 O802 2.327 . S
Co793 O803 1.976 . S
Co794 O795 2.087 . S
Co794 O797 2.087 . S
Co794 O804 2.111 . S
Co794 O805 2.143 . S
Co794 O809 2.111 . S
Co794 O823 2.143 . S
O795 Co792 2.042 . S
O795 Co793 2.122 . S
O795 Co794 2.087 . S
O795 H796 0.980 . S
H796 O795 0.980 . S
O797 Co794 2.087 . S
O797 Co798 2.042 . S
O797 Co799 2.122 . S
O797 H800 0.980 . S
Co798 O797 2.042 . S
Co798 O806 2.286 . S
Co798 O807 2.069 . S
Co798 O808 2.015 . S
Co798 O811 2.264 . S
Co799 O797 2.122 . S
Co799 O810 1.976 . S
Co799 O811 2.327 . S
Co799 O812 2.073 . S
H800 O797 0.980 . S
O801 Co793 2.073 . S
O801 C816 1.245 . S
O802 Co792 2.264 . S
O802 Co793 2.327 . S
O802 C816 1.257 . S
O803 Co793 1.976 . S
O803 C815 1.251 . S
O804 Co794 2.111 . S
O804 C815 1.274 . S
O805 Co794 2.143 . S
O805 C818 1.246 . S
O806 Co798 2.286 . S
O806 C817 1.259 . S
O807 Co798 2.069 . S
O807 C817 1.289 . S
O808 Co798 2.015 . S
O808 C818 1.257 . S
O809 Co794 2.111 . S
O809 C819 1.274 . S
O810 Co799 1.976 . S
O810 C819 1.251 . S
O811 Co798 2.264 . S
O811 Co799 2.327 . S
O811 C820 1.257 . S
O812 Co799 2.073 . S
O812 C820 1.245 . S
C813 O821 1.259 . S
C813 O822 1.289 . S
C814 O823 1.246 . S
C814 O824 1.257 . S
C815 O803 1.251 . S
C815 O804 1.274 . S
C816 O801 1.245 . S
C816 O802 1.257 . S
C817 O806 1.259 . S
C817 O807 1.289 . S
C818 O805 1.246 . S
C818 O808 1.257 . S
C819 O809 1.274 . S
C819 O810 1.251 . S
C820 O811 1.257 . S
C820 O812 1.245 . S
O821 Co792 2.286 . S
O821 C813 1.259 . S
O822 Co792 2.069 . S
O822 C813 1.289 . S
O823 Co794 2.143 . S
O823 C814 1.246 . S
O824 Co792 2.015 . S
O824 C814 1.257 . S
Co825 O828 2.042 . S
Co825 O835 2.264 . S
Co825 O854 2.286 . S
Co825 O855 2.069 . S
Co825 O857 2.015 . S
Co826 O828 2.122 . S
Co826 O834 2.073 . S
Co826 O835 2.327 . S
Co826 O836 1.976 . S
Co827 O828 2.087 . S
Co827 O830 2.087 . S
Co827 O837 2.111 . S
Co827 O838 2.143 . S
Co827 O842 2.111 . S
Co827 O856 2.143 . S
O828 Co825 2.042 . S
O828 Co826 2.122 . S
O828 Co827 2.087 . S
O828 H829 0.980 . S
H829 O828 0.980 . S
O830 Co827 2.087 . S
O830 Co831 2.042 . S
O830 Co832 2.122 . S
O830 H833 0.980 . S
Co831 O830 2.042 . S
Co831 O839 2.286 . S
Co831 O840 2.069 . S
Co831 O841 2.015 . S
Co831 O844 2.264 . S
Co832 O830 2.122 . S
Co832 O843 1.976 . S
Co832 O844 2.327 . S
Co832 O845 2.073 . S
H833 O830 0.980 . S
O834 Co826 2.073 . S
O834 C849 1.245 . S
O835 Co825 2.264 . S
O835 Co826 2.327 . S
O835 C849 1.257 . S
O836 Co826 1.976 . S
O836 C848 1.251 . S
O837 Co827 2.111 . S
O837 C848 1.274 . S
O838 Co827 2.143 . S
O838 C851 1.246 . S
O839 Co831 2.286 . S
O839 C850 1.259 . S
O840 Co831 2.069 . S
O840 C850 1.289 . S
O841 Co831 2.015 . S
O841 C851 1.257 . S
O842 Co827 2.111 . S
O842 C852 1.274 . S
O843 Co832 1.976 . S
O843 C852 1.251 . S
O844 Co831 2.264 . S
O844 Co832 2.327 . S
O844 C853 1.257 . S
O845 Co832 2.073 . S
O845 C853 1.245 . S
C846 O854 1.259 . S
C846 O855 1.289 . S
C847 O856 1.246 . S
C847 O857 1.257 . S
C848 O836 1.251 . S
C848 O837 1.274 . S
C849 O834 1.245 . S
C849 O835 1.257 . S
C850 O839 1.259 . S
C850 O840 1.289 . S
C851 O838 1.246 . S
C851 O841 1.257 . S
C852 O842 1.274 . S
C852 O843 1.251 . S
C853 O844 1.257 . S
C853 O845 1.245 . S
O854 Co825 2.286 . S
O854 C846 1.259 . S
O855 Co825 2.069 . S
O855 C846 1.289 . S
O856 Co827 2.143 . S
O856 C847 1.246 . S
O857 Co825 2.015 . S
O857 C847 1.257 . S
Co858 O861 2.042 . S
Co858 O868 2.264 . S
Co858 O887 2.286 . S
Co858 O888 2.069 . S
Co858 O890 2.015 . S
Co859 O861 2.122 . S
Co859 O867 2.073 . S
Co859 O868 2.327 . S
Co859 O869 1.976 . S
Co860 O861 2.087 . S
Co860 O863 2.087 . S
Co860 O870 2.111 . S
Co860 O871 2.143 . S
Co860 O875 2.111 . S
Co860 O889 2.143 . S
O861 Co858 2.042 . S
O861 Co859 2.122 . S
O861 Co860 2.087 . S
O861 H862 0.980 . S
H862 O861 0.980 . S
O863 Co860 2.087 . S
O863 Co864 2.042 . S
O863 Co865 2.122 . S
O863 H866 0.980 . S
Co864 O863 2.042 . S
Co864 O872 2.286 . S
Co864 O873 2.069 . S
Co864 O874 2.015 . S
Co864 O877 2.264 . S
Co865 O863 2.122 . S
Co865 O876 1.976 . S
Co865 O877 2.327 . S
Co865 O878 2.073 . S
H866 O863 0.980 . S
O867 Co859 2.073 . S
O867 C882 1.245 . S
O868 Co858 2.264 . S
O868 Co859 2.327 . S
O868 C882 1.257 . S
O869 Co859 1.976 . S
O869 C881 1.251 . S
O870 Co860 2.111 . S
O870 C881 1.274 . S
O871 Co860 2.143 . S
O871 C884 1.246 . S
O872 Co864 2.286 . S
O872 C883 1.259 . S
O873 Co864 2.069 . S
O873 C883 1.289 . S
O874 Co864 2.015 . S
O874 C884 1.257 . S
O875 Co860 2.111 . S
O875 C885 1.274 . S
O876 Co865 1.976 . S
O876 C885 1.251 . S
O877 Co864 2.264 . S
O877 Co865 2.327 . S
O877 C886 1.257 . S
O878 Co865 2.073 . S
O878 C886 1.245 . S
C879 O887 1.259 . S
C879 O888 1.289 . S
C880 O889 1.246 . S
C880 O890 1.257 . S
C881 O869 1.251 . S
C881 O870 1.274 . S
C882 O867 1.245 . S
C882 O868 1.257 . S
C883 O872 1.259 . S
C883 O873 1.289 . S
C884 O871 1.246 . S
C884 O874 1.257 . S
C885 O875 1.274 . S
C885 O876 1.251 . S
C886 O877 1.257 . S
C886 O878 1.245 . S
O887 Co858 2.286 . S
O887 C879 1.259 . S
O888 Co858 2.069 . S
O888 C879 1.289 . S
O889 Co860 2.143 . S
O889 C880 1.246 . S
O890 Co858 2.015 . S
O890 C880 1.257 . S
Co891 O894 2.042 . S
Co891 O901 2.264 . S
Co891 O920 2.286 . S
Co891 O921 2.069 . S
Co891 O923 2.015 . S
Co892 O894 2.122 . S
Co892 O900 2.073 . S
Co892 O901 2.327 . S
Co892 O902 1.976 . S
Co893 O894 2.087 . S
Co893 O896 2.087 . S
Co893 O903 2.111 . S
Co893 O904 2.143 . S
Co893 O908 2.111 . S
Co893 O922 2.143 . S
O894 Co891 2.042 . S
O894 Co892 2.122 . S
O894 Co893 2.087 . S
O894 H895 0.980 . S
H895 O894 0.980 . S
O896 Co893 2.087 . S
O896 Co897 2.042 . S
O896 Co898 2.122 . S
O896 H899 0.980 . S
Co897 O896 2.042 . S
Co897 O905 2.286 . S
Co897 O906 2.069 . S
Co897 O907 2.015 . S
Co897 O910 2.264 . S
Co898 O896 2.122 . S
Co898 O909 1.976 . S
Co898 O910 2.327 . S
Co898 O911 2.073 . S
H899 O896 0.980 . S
O900 Co892 2.073 . S
O900 C915 1.245 . S
O901 Co891 2.264 . S
O901 Co892 2.327 . S
O901 C915 1.257 . S
O902 Co892 1.976 . S
O902 C914 1.251 . S
O903 Co893 2.111 . S
O903 C914 1.274 . S
O904 Co893 2.143 . S
O904 C917 1.246 . S
O905 Co897 2.286 . S
O905 C916 1.259 . S
O906 Co897 2.069 . S
O906 C916 1.289 . S
O907 Co897 2.015 . S
O907 C917 1.257 . S
O908 Co893 2.111 . S
O908 C918 1.274 . S
O909 Co898 1.976 . S
O909 C918 1.251 . S
O910 Co897 2.264 . S
O910 Co898 2.327 . S
O910 C919 1.257 . S
O911 Co898 2.073 . S
O911 C919 1.245 . S
C912 O920 1.259 . S
C912 O921 1.289 . S
C913 O922 1.246 . S
C913 O923 1.257 . S
C914 O902 1.251 . S
C914 O903 1.274 . S
C915 O900 1.245 . S
C915 O901 1.257 . S
C916 O905 1.259 . S
C916 O906 1.289 . S
C917 O904 1.246 . S
C917 O907 1.257 . S
C918 O908 1.274 . S
C918 O909 1.251 . S
C919 O910 1.257 . S
C919 O911 1.245 . S
O920 Co891 2.286 . S
O920 C912 1.259 . S
O921 Co891 2.069 . S
O921 C912 1.289 . S
O922 Co893 2.143 . S
O922 C913 1.246 . S
O923 Co891 2.015 . S
O923 C913 1.257 . S
Co924 O927 2.042 . S
Co924 O934 2.264 . S
Co924 O953 2.286 . S
Co924 O954 2.069 . S
Co924 O956 2.015 . S
Co925 O927 2.122 . S
Co925 O933 2.073 . S
Co925 O934 2.327 . S
Co925 O935 1.976 . S
Co926 O927 2.087 . S
Co926 O929 2.087 . S
Co926 O936 2.111 . S
Co926 O937 2.143 . S
Co926 O941 2.111 . S
Co926 O955 2.143 . S
O927 Co924 2.042 . S
O927 Co925 2.122 . S
O927 Co926 2.087 . S
O927 H928 0.980 . S
H928 O927 0.980 . S
O929 Co926 2.087 . S
O929 Co930 2.042 . S
O929 Co931 2.122 . S
O929 H932 0.980 . S
Co930 O929 2.042 . S
Co930 O938 2.286 . S
Co930 O939 2.069 . S
Co930 O940 2.015 . S
Co930 O943 2.264 . S
Co931 O929 2.122 . S
Co931 O942 1.976 . S
Co931 O943 2.327 . S
Co931 O944 2.073 . S
H932 O929 0.980 . S
O933 Co925 2.073 . S
O933 C948 1.245 . S
O934 Co924 2.264 . S
O934 Co925 2.327 . S
O934 C948 1.257 . S
O935 Co925 1.976 . S
O935 C947 1.251 . S
O936 Co926 2.111 . S
O936 C947 1.274 . S
O937 Co926 2.143 . S
O937 C950 1.246 . S
O938 Co930 2.286 . S
O938 C949 1.259 . S
O939 Co930 2.069 . S
O939 C949 1.289 . S
O940 Co930 2.015 . S
O940 C950 1.257 . S
O941 Co926 2.111 . S
O941 C951 1.274 . S
O942 Co931 1.976 . S
O942 C951 1.251 . S
O943 Co930 2.264 . S
O943 Co931 2.327 . S
O943 C952 1.257 . S
O944 Co931 2.073 . S
O944 C952 1.245 . S
C945 O953 1.259 . S
C945 O954 1.289 . S
C946 O955 1.246 . S
C946 O956 1.257 . S
C947 O935 1.251 . S
C947 O936 1.274 . S
C948 O933 1.245 . S
C948 O934 1.257 . S
C949 O938 1.259 . S
C949 O939 1.289 . S
C950 O937 1.246 . S
C950 O940 1.257 . S
C951 O941 1.274 . S
C951 O942 1.251 . S
C952 O943 1.257 . S
C952 O944 1.245 . S
O953 Co924 2.286 . S
O953 C945 1.259 . S
O954 Co924 2.069 . S
O954 C945 1.289 . S
O955 Co926 2.143 . S
O955 C946 1.246 . S
O956 Co924 2.015 . S
O956 C946 1.257 . S
Co957 O960 2.042 . S
Co957 O967 2.264 . S
Co957 O986 2.286 . S
Co957 O987 2.069 . S
Co957 O989 2.015 . S
Co958 O960 2.122 . S
Co958 O966 2.073 . S
Co958 O967 2.327 . S
Co958 O968 1.976 . S
Co959 O960 2.087 . S
Co959 O962 2.087 . S
Co959 O969 2.111 . S
Co959 O970 2.143 . S
Co959 O974 2.111 . S
Co959 O988 2.143 . S
O960 Co957 2.042 . S
O960 Co958 2.122 . S
O960 Co959 2.087 . S
O960 H961 0.980 . S
H961 O960 0.980 . S
O962 Co959 2.087 . S
O962 Co963 2.042 . S
O962 Co964 2.122 . S
O962 H965 0.980 . S
Co963 O962 2.042 . S
Co963 O971 2.286 . S
Co963 O972 2.069 . S
Co963 O973 2.015 . S
Co963 O976 2.264 . S
Co964 O962 2.122 . S
Co964 O975 1.976 . S
Co964 O976 2.327 . S
Co964 O977 2.073 . S
H965 O962 0.980 . S
O966 Co958 2.073 . S
O966 C981 1.245 . S
O967 Co957 2.264 . S
O967 Co958 2.327 . S
O967 C981 1.257 . S
O968 Co958 1.976 . S
O968 C980 1.251 . S
O969 Co959 2.111 . S
O969 C980 1.274 . S
O970 Co959 2.143 . S
O970 C983 1.246 . S
O971 Co963 2.286 . S
O971 C982 1.259 . S
O972 Co963 2.069 . S
O972 C982 1.289 . S
O973 Co963 2.015 . S
O973 C983 1.257 . S
O974 Co959 2.111 . S
O974 C984 1.274 . S
O975 Co964 1.976 . S
O975 C984 1.251 . S
O976 Co963 2.264 . S
O976 Co964 2.327 . S
O976 C985 1.257 . S
O977 Co964 2.073 . S
O977 C985 1.245 . S
C978 O986 1.259 . S
C978 O987 1.289 . S
C979 O988 1.246 . S
C979 O989 1.257 . S
C980 O968 1.251 . S
C980 O969 1.274 . S
C981 O966 1.245 . S
C981 O967 1.257 . S
C982 O971 1.259 . S
C982 O972 1.289 . S
C983 O970 1.246 . S
C983 O973 1.257 . S
C984 O974 1.274 . S
C984 O975 1.251 . S
C985 O976 1.257 . S
C985 O977 1.245 . S
O986 Co957 2.286 . S
O986 C978 1.259 . S
O987 Co957 2.069 . S
O987 C978 1.289 . S
O988 Co959 2.143 . S
O988 C979 1.246 . S
O989 Co957 2.015 . S
O989 C979 1.257 . S
Co990 O993 2.042 . S
Co990 O1000 2.264 . S
Co990 O1019 2.286 . S
Co990 O1020 2.069 . S
Co990 O1022 2.015 . S
Co991 O993 2.122 . S
Co991 O999 2.073 . S
Co991 O1000 2.327 . S
Co991 O1001 1.976 . S
Co992 O993 2.087 . S
Co992 O995 2.087 . S
Co992 O1002 2.111 . S
Co992 O1003 2.143 . S
Co992 O1007 2.111 . S
Co992 O1021 2.143 . S
O993 Co990 2.042 . S
O993 Co991 2.122 . S
O993 Co992 2.087 . S
O993 H994 0.980 . S
H994 O993 0.980 . S
O995 Co992 2.087 . S
O995 Co996 2.042 . S
O995 Co997 2.122 . S
O995 H998 0.980 . S
Co996 O995 2.042 . S
Co996 O1004 2.286 . S
Co996 O1005 2.069 . S
Co996 O1006 2.015 . S
Co996 O1009 2.264 . S
Co997 O995 2.122 . S
Co997 O1008 1.976 . S
Co997 O1009 2.327 . S
Co997 O1010 2.073 . S
H998 O995 0.980 . S
O999 Co991 2.073 . S
O999 C1014 1.245 . S
O1000 Co990 2.264 . S
O1000 Co991 2.327 . S
O1000 C1014 1.257 . S
O1001 Co991 1.976 . S
O1001 C1013 1.251 . S
O1002 Co992 2.111 . S
O1002 C1013 1.274 . S
O1003 Co992 2.143 . S
O1003 C1016 1.246 . S
O1004 Co996 2.286 . S
O1004 C1015 1.259 . S
O1005 Co996 2.069 . S
O1005 C1015 1.289 . S
O1006 Co996 2.015 . S
O1006 C1016 1.257 . S
O1007 Co992 2.111 . S
O1007 C1017 1.274 . S
O1008 Co997 1.976 . S
O1008 C1017 1.251 . S
O1009 Co996 2.264 . S
O1009 Co997 2.327 . S
O1009 C1018 1.257 . S
O1010 Co997 2.073 . S
O1010 C1018 1.245 . S
C1011 O1019 1.259 . S
C1011 O1020 1.289 . S
C1012 O1021 1.246 . S
C1012 O1022 1.257 . S
C1013 O1001 1.251 . S
C1013 O1002 1.274 . S
C1014 O999 1.245 . S
C1014 O1000 1.257 . S
C1015 O1004 1.259 . S
C1015 O1005 1.289 . S
C1016 O1003 1.246 . S
C1016 O1006 1.257 . S
C1017 O1007 1.274 . S
C1017 O1008 1.251 . S
C1018 O1009 1.257 . S
C1018 O1010 1.245 . S
O1019 Co990 2.286 . S
O1019 C1011 1.259 . S
O1020 Co990 2.069 . S
O1020 C1011 1.289 . S
O1021 Co992 2.143 . S
O1021 C1012 1.246 . S
O1022 Co990 2.015 . S
O1022 C1012 1.257 . S
Co1023 O1026 2.042 . S
Co1023 O1033 2.264 . S
Co1023 O1052 2.286 . S
Co1023 O1053 2.069 . S
Co1023 O1055 2.015 . S
Co1024 O1026 2.122 . S
Co1024 O1032 2.073 . S
Co1024 O1033 2.327 . S
Co1024 O1034 1.976 . S
Co1025 O1026 2.087 . S
Co1025 O1028 2.087 . S
Co1025 O1035 2.111 . S
Co1025 O1036 2.143 . S
Co1025 O1040 2.111 . S
Co1025 O1054 2.143 . S
O1026 Co1023 2.042 . S
O1026 Co1024 2.122 . S
O1026 Co1025 2.087 . S
O1026 H1027 0.980 . S
H1027 O1026 0.980 . S
O1028 Co1025 2.087 . S
O1028 Co1029 2.042 . S
O1028 Co1030 2.122 . S
O1028 H1031 0.980 . S
Co1029 O1028 2.042 . S
Co1029 O1037 2.286 . S
Co1029 O1038 2.069 . S
Co1029 O1039 2.015 . S
Co1029 O1042 2.264 . S
Co1030 O1028 2.122 . S
Co1030 O1041 1.976 . S
Co1030 O1042 2.327 . S
Co1030 O1043 2.073 . S
H1031 O1028 0.980 . S
O1032 Co1024 2.073 . S
O1032 C1047 1.245 . S
O1033 Co1023 2.264 . S
O1033 Co1024 2.327 . S
O1033 C1047 1.257 . S
O1034 Co1024 1.976 . S
O1034 C1046 1.251 . S
O1035 Co1025 2.111 . S
O1035 C1046 1.274 . S
O1036 Co1025 2.143 . S
O1036 C1049 1.246 . S
O1037 Co1029 2.286 . S
O1037 C1048 1.259 . S
O1038 Co1029 2.069 . S
O1038 C1048 1.289 . S
O1039 Co1029 2.015 . S
O1039 C1049 1.257 . S
O1040 Co1025 2.111 . S
O1040 C1050 1.274 . S
O1041 Co1030 1.976 . S
O1041 C1050 1.251 . S
O1042 Co1029 2.264 . S
O1042 Co1030 2.327 . S
O1042 C1051 1.257 . S
O1043 Co1030 2.073 . S
O1043 C1051 1.245 . S
C1044 O1052 1.259 . S
C1044 O1053 1.289 . S
C1045 O1054 1.246 . S
C1045 O1055 1.257 . S
C1046 O1034 1.251 . S
C1046 O1035 1.274 . S
C1047 O1032 1.245 . S
C1047 O1033 1.257 . S
C1048 O1037 1.259 . S
C1048 O1038 1.289 . S
C1049 O1036 1.246 . S
C1049 O1039 1.257 . S
C1050 O1040 1.274 . S
C1050 O1041 1.251 . S
C1051 O1042 1.257 . S
C1051 O1043 1.245 . S
O1052 Co1023 2.286 . S
O1052 C1044 1.259 . S
O1053 Co1023 2.069 . S
O1053 C1044 1.289 . S
O1054 Co1025 2.143 . S
O1054 C1045 1.246 . S
O1055 Co1023 2.015 . S
O1055 C1045 1.257 . S
Co1056 O1059 2.042 . S
Co1056 O1066 2.264 . S
Co1056 O1085 2.286 . S
Co1056 O1086 2.069 . S
Co1056 O1088 2.015 . S
Co1057 O1059 2.122 . S
Co1057 O1065 2.073 . S
Co1057 O1066 2.327 . S
Co1057 O1067 1.976 . S
Co1058 O1059 2.087 . S
Co1058 O1061 2.087 . S
Co1058 O1068 2.111 . S
Co1058 O1069 2.143 . S
Co1058 O1073 2.111 . S
Co1058 O1087 2.143 . S
O1059 Co1056 2.042 . S
O1059 Co1057 2.122 . S
O1059 Co1058 2.087 . S
O1059 H1060 0.980 . S
H1060 O1059 0.980 . S
O1061 Co1058 2.087 . S
O1061 Co1062 2.042 . S
O1061 Co1063 2.122 . S
O1061 H1064 0.980 . S
Co1062 O1061 2.042 . S
Co1062 O1070 2.286 . S
Co1062 O1071 2.069 . S
Co1062 O1072 2.015 . S
Co1062 O1075 2.264 . S
Co1063 O1061 2.122 . S
Co1063 O1074 1.976 . S
Co1063 O1075 2.327 . S
Co1063 O1076 2.073 . S
H1064 O1061 0.980 . S
O1065 Co1057 2.073 . S
O1065 C1080 1.245 . S
O1066 Co1056 2.264 . S
O1066 Co1057 2.327 . S
O1066 C1080 1.257 . S
O1067 Co1057 1.976 . S
O1067 C1079 1.251 . S
O1068 Co1058 2.111 . S
O1068 C1079 1.274 . S
O1069 Co1058 2.143 . S
O1069 C1082 1.246 . S
O1070 Co1062 2.286 . S
O1070 C1081 1.259 . S
O1071 Co1062 2.069 . S
O1071 C1081 1.289 . S
O1072 Co1062 2.015 . S
O1072 C1082 1.257 . S
O1073 Co1058 2.111 . S
O1073 C1083 1.274 . S
O1074 Co1063 1.976 . S
O1074 C1083 1.251 . S
O1075 Co1062 2.264 . S
O1075 Co1063 2.327 . S
O1075 C1084 1.257 . S
O1076 Co1063 2.073 . S
O1076 C1084 1.245 . S
C1077 O1085 1.259 . S
C1077 O1086 1.289 . S
C1078 O1087 1.246 . S
C1078 O1088 1.257 . S
C1079 O1067 1.251 . S
C1079 O1068 1.274 . S
C1080 O1065 1.245 . S
C1080 O1066 1.257 . S
C1081 O1070 1.259 . S
C1081 O1071 1.289 . S
C1082 O1069 1.246 . S
C1082 O1072 1.257 . S
C1083 O1073 1.274 . S
C1083 O1074 1.251 . S
C1084 O1075 1.257 . S
C1084 O1076 1.245 . S
O1085 Co1056 2.286 . S
O1085 C1077 1.259 . S
O1086 Co1056 2.069 . S
O1086 C1077 1.289 . S
O1087 Co1058 2.143 . S
O1087 C1078 1.246 . S
O1088 Co1056 2.015 . S
O1088 C1078 1.257 . S
Co1089 O1092 2.042 . S
Co1089 O1099 2.264 . S
Co1089 O1118 2.286 . S
Co1089 O1119 2.069 . S
Co1089 O1121 2.015 . S
Co1090 O1092 2.122 . S
Co1090 O1098 2.073 . S
Co1090 O1099 2.327 . S
Co1090 O1100 1.976 . S
Co1091 O1092 2.087 . S
Co1091 O1094 2.087 . S
Co1091 O1101 2.111 . S
Co1091 O1102 2.143 . S
Co1091 O1106 2.111 . S
Co1091 O1120 2.143 . S
O1092 Co1089 2.042 . S
O1092 Co1090 2.122 . S
O1092 Co1091 2.087 . S
O1092 H1093 0.980 . S
H1093 O1092 0.980 . S
O1094 Co1091 2.087 . S
O1094 Co1095 2.042 . S
O1094 Co1096 2.122 . S
O1094 H1097 0.980 . S
Co1095 O1094 2.042 . S
Co1095 O1103 2.286 . S
Co1095 O1104 2.069 . S
Co1095 O1105 2.015 . S
Co1095 O1108 2.264 . S
Co1096 O1094 2.122 . S
Co1096 O1107 1.976 . S
Co1096 O1108 2.327 . S
Co1096 O1109 2.073 . S
H1097 O1094 0.980 . S
O1098 Co1090 2.073 . S
O1098 C1113 1.245 . S
O1099 Co1089 2.264 . S
O1099 Co1090 2.327 . S
O1099 C1113 1.257 . S
O1100 Co1090 1.976 . S
O1100 C1112 1.251 . S
O1101 Co1091 2.111 . S
O1101 C1112 1.274 . S
O1102 Co1091 2.143 . S
O1102 C1115 1.246 . S
O1103 Co1095 2.286 . S
O1103 C1114 1.259 . S
O1104 Co1095 2.069 . S
O1104 C1114 1.289 . S
O1105 Co1095 2.015 . S
O1105 C1115 1.257 . S
O1106 Co1091 2.111 . S
O1106 C1116 1.274 . S
O1107 Co1096 1.976 . S
O1107 C1116 1.251 . S
O1108 Co1095 2.264 . S
O1108 Co1096 2.327 . S
O1108 C1117 1.257 . S
O1109 Co1096 2.073 . S
O1109 C1117 1.245 . S
C1110 O1118 1.259 . S
C1110 O1119 1.289 . S
C1111 O1120 1.246 . S
C1111 O1121 1.257 . S
C1112 O1100 1.251 . S
C1112 O1101 1.274 . S
C1113 O1098 1.245 . S
C1113 O1099 1.257 . S
C1114 O1103 1.259 . S
C1114 O1104 1.289 . S
C1115 O1102 1.246 . S
C1115 O1105 1.257 . S
C1116 O1106 1.274 . S
C1116 O1107 1.251 . S
C1117 O1108 1.257 . S
C1117 O1109 1.245 . S
O1118 Co1089 2.286 . S
O1118 C1110 1.259 . S
O1119 Co1089 2.069 . S
O1119 C1110 1.289 . S
O1120 Co1091 2.143 . S
O1120 C1111 1.246 . S
O1121 Co1089 2.015 . S
O1121 C1111 1.257 . S
Co1122 O1125 2.042 . S
Co1122 O1132 2.264 . S
Co1122 O1151 2.286 . S
Co1122 O1152 2.069 . S
Co1122 O1154 2.015 . S
Co1123 O1125 2.122 . S
Co1123 O1131 2.073 . S
Co1123 O1132 2.327 . S
Co1123 O1133 1.976 . S
Co1124 O1125 2.087 . S
Co1124 O1127 2.087 . S
Co1124 O1134 2.111 . S
Co1124 O1135 2.143 . S
Co1124 O1139 2.111 . S
Co1124 O1153 2.143 . S
O1125 Co1122 2.042 . S
O1125 Co1123 2.122 . S
O1125 Co1124 2.087 . S
O1125 H1126 0.980 . S
H1126 O1125 0.980 . S
O1127 Co1124 2.087 . S
O1127 Co1128 2.042 . S
O1127 Co1129 2.122 . S
O1127 H1130 0.980 . S
Co1128 O1127 2.042 . S
Co1128 O1136 2.286 . S
Co1128 O1137 2.069 . S
Co1128 O1138 2.015 . S
Co1128 O1141 2.264 . S
Co1129 O1127 2.122 . S
Co1129 O1140 1.976 . S
Co1129 O1141 2.327 . S
Co1129 O1142 2.073 . S
H1130 O1127 0.980 . S
O1131 Co1123 2.073 . S
O1131 C1146 1.245 . S
O1132 Co1122 2.264 . S
O1132 Co1123 2.327 . S
O1132 C1146 1.257 . S
O1133 Co1123 1.976 . S
O1133 C1145 1.251 . S
O1134 Co1124 2.111 . S
O1134 C1145 1.274 . S
O1135 Co1124 2.143 . S
O1135 C1148 1.246 . S
O1136 Co1128 2.286 . S
O1136 C1147 1.259 . S
O1137 Co1128 2.069 . S
O1137 C1147 1.289 . S
O1138 Co1128 2.015 . S
O1138 C1148 1.257 . S
O1139 Co1124 2.111 . S
O1139 C1149 1.274 . S
O1140 Co1129 1.976 . S
O1140 C1149 1.251 . S
O1141 Co1128 2.264 . S
O1141 Co1129 2.327 . S
O1141 C1150 1.257 . S
O1142 Co1129 2.073 . S
O1142 C1150 1.245 . S
C1143 O1151 1.259 . S
C1143 O1152 1.289 . S
C1144 O1153 1.246 . S
C1144 O1154 1.257 . S
C1145 O1133 1.251 . S
C1145 O1134 1.274 . S
C1146 O1131 1.245 . S
C1146 O1132 1.257 . S
C1147 O1136 1.259 . S
C1147 O1137 1.289 . S
C1148 O1135 1.246 . S
C1148 O1138 1.257 . S
C1149 O1139 1.274 . S
C1149 O1140 1.251 . S
C1150 O1141 1.257 . S
C1150 O1142 1.245 . S
O1151 Co1122 2.286 . S
O1151 C1143 1.259 . S
O1152 Co1122 2.069 . S
O1152 C1143 1.289 . S
O1153 Co1124 2.143 . S
O1153 C1144 1.246 . S
O1154 Co1122 2.015 . S
O1154 C1144 1.257 . S
Co1155 O1158 2.042 . S
Co1155 O1165 2.264 . S
Co1155 O1184 2.286 . S
Co1155 O1185 2.069 . S
Co1155 O1187 2.015 . S
Co1156 O1158 2.122 . S
Co1156 O1164 2.073 . S
Co1156 O1165 2.327 . S
Co1156 O1166 1.976 . S
Co1157 O1158 2.087 . S
Co1157 O1160 2.087 . S
Co1157 O1167 2.111 . S
Co1157 O1168 2.143 . S
Co1157 O1172 2.111 . S
Co1157 O1186 2.143 . S
O1158 Co1155 2.042 . S
O1158 Co1156 2.122 . S
O1158 Co1157 2.087 . S
O1158 H1159 0.980 . S
H1159 O1158 0.980 . S
O1160 Co1157 2.087 . S
O1160 Co1161 2.042 . S
O1160 Co1162 2.122 . S
O1160 H1163 0.980 . S
Co1161 O1160 2.042 . S
Co1161 O1169 2.286 . S
Co1161 O1170 2.069 . S
Co1161 O1171 2.015 . S
Co1161 O1174 2.264 . S
Co1162 O1160 2.122 . S
Co1162 O1173 1.976 . S
Co1162 O1174 2.327 . S
Co1162 O1175 2.073 . S
H1163 O1160 0.980 . S
O1164 Co1156 2.073 . S
O1164 C1179 1.245 . S
O1165 Co1155 2.264 . S
O1165 Co1156 2.327 . S
O1165 C1179 1.257 . S
O1166 Co1156 1.976 . S
O1166 C1178 1.251 . S
O1167 Co1157 2.111 . S
O1167 C1178 1.274 . S
O1168 Co1157 2.143 . S
O1168 C1181 1.246 . S
O1169 Co1161 2.286 . S
O1169 C1180 1.259 . S
O1170 Co1161 2.069 . S
O1170 C1180 1.289 . S
O1171 Co1161 2.015 . S
O1171 C1181 1.257 . S
O1172 Co1157 2.111 . S
O1172 C1182 1.274 . S
O1173 Co1162 1.976 . S
O1173 C1182 1.251 . S
O1174 Co1161 2.264 . S
O1174 Co1162 2.327 . S
O1174 C1183 1.257 . S
O1175 Co1162 2.073 . S
O1175 C1183 1.245 . S
C1176 O1184 1.259 . S
C1176 O1185 1.289 . S
C1177 O1186 1.246 . S
C1177 O1187 1.257 . S
C1178 O1166 1.251 . S
C1178 O1167 1.274 . S
C1179 O1164 1.245 . S
C1179 O1165 1.257 . S
C1180 O1169 1.259 . S
C1180 O1170 1.289 . S
C1181 O1168 1.246 . S
C1181 O1171 1.257 . S
C1182 O1172 1.274 . S
C1182 O1173 1.251 . S
C1183 O1174 1.257 . S
C1183 O1175 1.245 . S
O1184 Co1155 2.286 . S
O1184 C1176 1.259 . S
O1185 Co1155 2.069 . S
O1185 C1176 1.289 . S
O1186 Co1157 2.143 . S
O1186 C1177 1.246 . S
O1187 Co1155 2.015 . S
O1187 C1177 1.257 . S
Co1188 O1191 2.042 . S
Co1188 O1198 2.264 . S
Co1188 O1217 2.286 . S
Co1188 O1218 2.069 . S
Co1188 O1220 2.015 . S
Co1189 O1191 2.122 . S
Co1189 O1197 2.073 . S
Co1189 O1198 2.327 . S
Co1189 O1199 1.976 . S
Co1190 O1191 2.087 . S
Co1190 O1193 2.087 . S
Co1190 O1200 2.111 . S
Co1190 O1201 2.143 . S
Co1190 O1205 2.111 . S
Co1190 O1219 2.143 . S
O1191 Co1188 2.042 . S
O1191 Co1189 2.122 . S
O1191 Co1190 2.087 . S
O1191 H1192 0.980 . S
H1192 O1191 0.980 . S
O1193 Co1190 2.087 . S
O1193 Co1194 2.042 . S
O1193 Co1195 2.122 . S
O1193 H1196 0.980 . S
Co1194 O1193 2.042 . S
Co1194 O1202 2.286 . S
Co1194 O1203 2.069 . S
Co1194 O1204 2.015 . S
Co1194 O1207 2.264 . S
Co1195 O1193 2.122 . S
Co1195 O1206 1.976 . S
Co1195 O1207 2.327 . S
Co1195 O1208 2.073 . S
H1196 O1193 0.980 . S
O1197 Co1189 2.073 . S
O1197 C1212 1.245 . S
O1198 Co1188 2.264 . S
O1198 Co1189 2.327 . S
O1198 C1212 1.257 . S
O1199 Co1189 1.976 . S
O1199 C1211 1.251 . S
O1200 Co1190 2.111 . S
O1200 C1211 1.274 . S
O1201 Co1190 2.143 . S
O1201 C1214 1.246 . S
O1202 Co1194 2.286 . S
O1202 C1213 1.259 . S
O1203 Co1194 2.069 . S
O1203 C1213 1.289 . S
O1204 Co1194 2.015 . S
O1204 C1214 1.257 . S
O1205 Co1190 2.111 . S
O1205 C1215 1.274 . S
O1206 Co1195 1.976 . S
O1206 C1215 1.251 . S
O1207 Co1194 2.264 . S
O1207 Co1195 2.327 . S
O1207 C1216 1.257 . S
O1208 Co1195 2.073 . S
O1208 C1216 1.245 . S
C1209 O1217 1.259 . S
C1209 O1218 1.289 . S
C1210 O1219 1.246 . S
C1210 O1220 1.257 . S
C1211 O1199 1.251 . S
C1211 O1200 1.274 . S
C1212 O1197 1.245 . S
C1212 O1198 1.257 . S
C1213 O1202 1.259 . S
C1213 O1203 1.289 . S
C1214 O1201 1.246 . S
C1214 O1204 1.257 . S
C1215 O1205 1.274 . S
C1215 O1206 1.251 . S
C1216 O1207 1.257 . S
C1216 O1208 1.245 . S
O1217 Co1188 2.286 . S
O1217 C1209 1.259 . S
O1218 Co1188 2.069 . S
O1218 C1209 1.289 . S
O1219 Co1190 2.143 . S
O1219 C1210 1.246 . S
O1220 Co1188 2.015 . S
O1220 C1210 1.257 . S
Co1221 O1224 2.042 . S
Co1221 O1231 2.264 . S
Co1221 O1250 2.286 . S
Co1221 O1251 2.069 . S
Co1221 O1253 2.015 . S
Co1222 O1224 2.122 . S
Co1222 O1230 2.073 . S
Co1222 O1231 2.327 . S
Co1222 O1232 1.976 . S
Co1223 O1224 2.087 . S
Co1223 O1226 2.087 . S
Co1223 O1233 2.111 . S
Co1223 O1234 2.143 . S
Co1223 O1238 2.111 . S
Co1223 O1252 2.143 . S
O1224 Co1221 2.042 . S
O1224 Co1222 2.122 . S
O1224 Co1223 2.087 . S
O1224 H1225 0.980 . S
H1225 O1224 0.980 . S
O1226 Co1223 2.087 . S
O1226 Co1227 2.042 . S
O1226 Co1228 2.122 . S
O1226 H1229 0.980 . S
Co1227 O1226 2.042 . S
Co1227 O1235 2.286 . S
Co1227 O1236 2.069 . S
Co1227 O1237 2.015 . S
Co1227 O1240 2.264 . S
Co1228 O1226 2.122 . S
Co1228 O1239 1.976 . S
Co1228 O1240 2.327 . S
Co1228 O1241 2.073 . S
H1229 O1226 0.980 . S
O1230 Co1222 2.073 . S
O1230 C1245 1.245 . S
O1231 Co1221 2.264 . S
O1231 Co1222 2.327 . S
O1231 C1245 1.257 . S
O1232 Co1222 1.976 . S
O1232 C1244 1.251 . S
O1233 Co1223 2.111 . S
O1233 C1244 1.274 . S
O1234 Co1223 2.143 . S
O1234 C1247 1.246 . S
O1235 Co1227 2.286 . S
O1235 C1246 1.259 . S
O1236 Co1227 2.069 . S
O1236 C1246 1.289 . S
O1237 Co1227 2.015 . S
O1237 C1247 1.257 . S
O1238 Co1223 2.111 . S
O1238 C1248 1.274 . S
O1239 Co1228 1.976 . S
O1239 C1248 1.251 . S
O1240 Co1227 2.264 . S
O1240 Co1228 2.327 . S
O1240 C1249 1.257 . S
O1241 Co1228 2.073 . S
O1241 C1249 1.245 . S
C1242 O1250 1.259 . S
C1242 O1251 1.289 . S
C1243 O1252 1.246 . S
C1243 O1253 1.257 . S
C1244 O1232 1.251 . S
C1244 O1233 1.274 . S
C1245 O1230 1.245 . S
C1245 O1231 1.257 . S
C1246 O1235 1.259 . S
C1246 O1236 1.289 . S
C1247 O1234 1.246 . S
C1247 O1237 1.257 . S
C1248 O1238 1.274 . S
C1248 O1239 1.251 . S
C1249 O1240 1.257 . S
C1249 O1241 1.245 . S
O1250 Co1221 2.286 . S
O1250 C1242 1.259 . S
O1251 Co1221 2.069 . S
O1251 C1242 1.289 . S
O1252 Co1223 2.143 . S
O1252 C1243 1.246 . S
O1253 Co1221 2.015 . S
O1253 C1243 1.257 . S
Co1254 O1257 2.042 . S
Co1254 O1264 2.264 . S
Co1254 O1283 2.286 . S
Co1254 O1284 2.069 . S
Co1254 O1286 2.015 . S
Co1255 O1257 2.122 . S
Co1255 O1263 2.073 . S
Co1255 O1264 2.327 . S
Co1255 O1265 1.976 . S
Co1256 O1257 2.087 . S
Co1256 O1259 2.087 . S
Co1256 O1266 2.111 . S
Co1256 O1267 2.143 . S
Co1256 O1271 2.111 . S
Co1256 O1285 2.143 . S
O1257 Co1254 2.042 . S
O1257 Co1255 2.122 . S
O1257 Co1256 2.087 . S
O1257 H1258 0.980 . S
H1258 O1257 0.980 . S
O1259 Co1256 2.087 . S
O1259 Co1260 2.042 . S
O1259 Co1261 2.122 . S
O1259 H1262 0.980 . S
Co1260 O1259 2.042 . S
Co1260 O1268 2.286 . S
Co1260 O1269 2.069 . S
Co1260 O1270 2.015 . S
Co1260 O1273 2.264 . S
Co1261 O1259 2.122 . S
Co1261 O1272 1.976 . S
Co1261 O1273 2.327 . S
Co1261 O1274 2.073 . S
H1262 O1259 0.980 . S
O1263 Co1255 2.073 . S
O1263 C1278 1.245 . S
O1264 Co1254 2.264 . S
O1264 Co1255 2.327 . S
O1264 C1278 1.257 . S
O1265 Co1255 1.976 . S
O1265 C1277 1.251 . S
O1266 Co1256 2.111 . S
O1266 C1277 1.274 . S
O1267 Co1256 2.143 . S
O1267 C1280 1.246 . S
O1268 Co1260 2.286 . S
O1268 C1279 1.259 . S
O1269 Co1260 2.069 . S
O1269 C1279 1.289 . S
O1270 Co1260 2.015 . S
O1270 C1280 1.257 . S
O1271 Co1256 2.111 . S
O1271 C1281 1.274 . S
O1272 Co1261 1.976 . S
O1272 C1281 1.251 . S
O1273 Co1260 2.264 . S
O1273 Co1261 2.327 . S
O1273 C1282 1.257 . S
O1274 Co1261 2.073 . S
O1274 C1282 1.245 . S
C1275 O1283 1.259 . S
C1275 O1284 1.289 . S
C1276 O1285 1.246 . S
C1276 O1286 1.257 . S
C1277 O1265 1.251 . S
C1277 O1266 1.274 . S
C1278 O1263 1.245 . S
C1278 O1264 1.257 . S
C1279 O1268 1.259 . S
C1279 O1269 1.289 . S
C1280 O1267 1.246 . S
C1280 O1270 1.257 . S
C1281 O1271 1.274 . S
C1281 O1272 1.251 . S
C1282 O1273 1.257 . S
C1282 O1274 1.245 . S
O1283 Co1254 2.286 . S
O1283 C1275 1.259 . S
O1284 Co1254 2.069 . S
O1284 C1275 1.289 . S
O1285 Co1256 2.143 . S
O1285 C1276 1.246 . S
O1286 Co1254 2.015 . S
O1286 C1276 1.257 . S
Co1287 O1290 2.042 . S
Co1287 O1297 2.264 . S
Co1287 O1316 2.286 . S
Co1287 O1317 2.069 . S
Co1287 O1319 2.015 . S
Co1288 O1290 2.122 . S
Co1288 O1296 2.073 . S
Co1288 O1297 2.327 . S
Co1288 O1298 1.976 . S
Co1289 O1290 2.087 . S
Co1289 O1292 2.087 . S
Co1289 O1299 2.111 . S
Co1289 O1300 2.143 . S
Co1289 O1304 2.111 . S
Co1289 O1318 2.143 . S
O1290 Co1287 2.042 . S
O1290 Co1288 2.122 . S
O1290 Co1289 2.087 . S
O1290 H1291 0.980 . S
H1291 O1290 0.980 . S
O1292 Co1289 2.087 . S
O1292 Co1293 2.042 . S
O1292 Co1294 2.122 . S
O1292 H1295 0.980 . S
Co1293 O1292 2.042 . S
Co1293 O1301 2.286 . S
Co1293 O1302 2.069 . S
Co1293 O1303 2.015 . S
Co1293 O1306 2.264 . S
Co1294 O1292 2.122 . S
Co1294 O1305 1.976 . S
Co1294 O1306 2.327 . S
Co1294 O1307 2.073 . S
H1295 O1292 0.980 . S
O1296 Co1288 2.073 . S
O1296 C1311 1.245 . S
O1297 Co1287 2.264 . S
O1297 Co1288 2.327 . S
O1297 C1311 1.257 . S
O1298 Co1288 1.976 . S
O1298 C1310 1.251 . S
O1299 Co1289 2.111 . S
O1299 C1310 1.274 . S
O1300 Co1289 2.143 . S
O1300 C1313 1.246 . S
O1301 Co1293 2.286 . S
O1301 C1312 1.259 . S
O1302 Co1293 2.069 . S
O1302 C1312 1.289 . S
O1303 Co1293 2.015 . S
O1303 C1313 1.257 . S
O1304 Co1289 2.111 . S
O1304 C1314 1.274 . S
O1305 Co1294 1.976 . S
O1305 C1314 1.251 . S
O1306 Co1293 2.264 . S
O1306 Co1294 2.327 . S
O1306 C1315 1.257 . S
O1307 Co1294 2.073 . S
O1307 C1315 1.245 . S
C1308 O1316 1.259 . S
C1308 O1317 1.289 . S
C1309 O1318 1.246 . S
C1309 O1319 1.257 . S
C1310 O1298 1.251 . S
C1310 O1299 1.274 . S
C1311 O1296 1.245 . S
C1311 O1297 1.257 . S
C1312 O1301 1.259 . S
C1312 O1302 1.289 . S
C1313 O1300 1.246 . S
C1313 O1303 1.257 . S
C1314 O1304 1.274 . S
C1314 O1305 1.251 . S
C1315 O1306 1.257 . S
C1315 O1307 1.245 . S
O1316 Co1287 2.286 . S
O1316 C1308 1.259 . S
O1317 Co1287 2.069 . S
O1317 C1308 1.289 . S
O1318 Co1289 2.143 . S
O1318 C1309 1.246 . S
O1319 Co1287 2.015 . S
O1319 C1309 1.257 . S
Co1320 O1323 2.042 . S
Co1320 O1330 2.264 . S
Co1320 O1349 2.286 . S
Co1320 O1350 2.069 . S
Co1320 O1352 2.015 . S
Co1321 O1323 2.122 . S
Co1321 O1329 2.073 . S
Co1321 O1330 2.327 . S
Co1321 O1331 1.976 . S
Co1322 O1323 2.087 . S
Co1322 O1325 2.087 . S
Co1322 O1332 2.111 . S
Co1322 O1333 2.143 . S
Co1322 O1337 2.111 . S
Co1322 O1351 2.143 . S
O1323 Co1320 2.042 . S
O1323 Co1321 2.122 . S
O1323 Co1322 2.087 . S
O1323 H1324 0.980 . S
H1324 O1323 0.980 . S
O1325 Co1322 2.087 . S
O1325 Co1326 2.042 . S
O1325 Co1327 2.122 . S
O1325 H1328 0.980 . S
Co1326 O1325 2.042 . S
Co1326 O1334 2.286 . S
Co1326 O1335 2.069 . S
Co1326 O1336 2.015 . S
Co1326 O1339 2.264 . S
Co1327 O1325 2.122 . S
Co1327 O1338 1.976 . S
Co1327 O1339 2.327 . S
Co1327 O1340 2.073 . S
H1328 O1325 0.980 . S
O1329 Co1321 2.073 . S
O1329 C1344 1.245 . S
O1330 Co1320 2.264 . S
O1330 Co1321 2.327 . S
O1330 C1344 1.257 . S
O1331 Co1321 1.976 . S
O1331 C1343 1.251 . S
O1332 Co1322 2.111 . S
O1332 C1343 1.274 . S
O1333 Co1322 2.143 . S
O1333 C1346 1.246 . S
O1334 Co1326 2.286 . S
O1334 C1345 1.259 . S
O1335 Co1326 2.069 . S
O1335 C1345 1.289 . S
O1336 Co1326 2.015 . S
O1336 C1346 1.257 . S
O1337 Co1322 2.111 . S
O1337 C1347 1.274 . S
O1338 Co1327 1.976 . S
O1338 C1347 1.251 . S
O1339 Co1326 2.264 . S
O1339 Co1327 2.327 . S
O1339 C1348 1.257 . S
O1340 Co1327 2.073 . S
O1340 C1348 1.245 . S
C1341 O1349 1.259 . S
C1341 O1350 1.289 . S
C1342 O1351 1.246 . S
C1342 O1352 1.257 . S
C1343 O1331 1.251 . S
C1343 O1332 1.274 . S
C1344 O1329 1.245 . S
C1344 O1330 1.257 . S
C1345 O1334 1.259 . S
C1345 O1335 1.289 . S
C1346 O1333 1.246 . S
C1346 O1336 1.257 . S
C1347 O1337 1.274 . S
C1347 O1338 1.251 . S
C1348 O1339 1.257 . S
C1348 O1340 1.245 . S
O1349 Co1320 2.286 . S
O1349 C1341 1.259 . S
O1350 Co1320 2.069 . S
O1350 C1341 1.289 . S
O1351 Co1322 2.143 . S
O1351 C1342 1.246 . S
O1352 Co1320 2.015 . S
O1352 C1342 1.257 . S
Co1353 O1356 2.042 . S
Co1353 O1363 2.264 . S
Co1353 O1382 2.286 . S
Co1353 O1383 2.069 . S
Co1353 O1385 2.015 . S
Co1354 O1356 2.122 . S
Co1354 O1362 2.073 . S
Co1354 O1363 2.327 . S
Co1354 O1364 1.976 . S
Co1355 O1356 2.087 . S
Co1355 O1358 2.087 . S
Co1355 O1365 2.111 . S
Co1355 O1366 2.143 . S
Co1355 O1370 2.111 . S
Co1355 O1384 2.143 . S
O1356 Co1353 2.042 . S
O1356 Co1354 2.122 . S
O1356 Co1355 2.087 . S
O1356 H1357 0.980 . S
H1357 O1356 0.980 . S
O1358 Co1355 2.087 . S
O1358 Co1359 2.042 . S
O1358 Co1360 2.122 . S
O1358 H1361 0.980 . S
Co1359 O1358 2.042 . S
Co1359 O1367 2.286 . S
Co1359 O1368 2.069 . S
Co1359 O1369 2.015 . S
Co1359 O1372 2.264 . S
Co1360 O1358 2.122 . S
Co1360 O1371 1.976 . S
Co1360 O1372 2.327 . S
Co1360 O1373 2.073 . S
H1361 O1358 0.980 . S
O1362 Co1354 2.073 . S
O1362 C1377 1.245 . S
O1363 Co1353 2.264 . S
O1363 Co1354 2.327 . S
O1363 C1377 1.257 . S
O1364 Co1354 1.976 . S
O1364 C1376 1.251 . S
O1365 Co1355 2.111 . S
O1365 C1376 1.274 . S
O1366 Co1355 2.143 . S
O1366 C1379 1.246 . S
O1367 Co1359 2.286 . S
O1367 C1378 1.259 . S
O1368 Co1359 2.069 . S
O1368 C1378 1.289 . S
O1369 Co1359 2.015 . S
O1369 C1379 1.257 . S
O1370 Co1355 2.111 . S
O1370 C1380 1.274 . S
O1371 Co1360 1.976 . S
O1371 C1380 1.251 . S
O1372 Co1359 2.264 . S
O1372 Co1360 2.327 . S
O1372 C1381 1.257 . S
O1373 Co1360 2.073 . S
O1373 C1381 1.245 . S
C1374 O1382 1.259 . S
C1374 O1383 1.289 . S
C1375 O1384 1.246 . S
C1375 O1385 1.257 . S
C1376 O1364 1.251 . S
C1376 O1365 1.274 . S
C1377 O1362 1.245 . S
C1377 O1363 1.257 . S
C1378 O1367 1.259 . S
C1378 O1368 1.289 . S
C1379 O1366 1.246 . S
C1379 O1369 1.257 . S
C1380 O1370 1.274 . S
C1380 O1371 1.251 . S
C1381 O1372 1.257 . S
C1381 O1373 1.245 . S
O1382 Co1353 2.286 . S
O1382 C1374 1.259 . S
O1383 Co1353 2.069 . S
O1383 C1374 1.289 . S
O1384 Co1355 2.143 . S
O1384 C1375 1.246 . S
O1385 Co1353 2.015 . S
O1385 C1375 1.257 . S
Co1386 O1389 2.042 . S
Co1386 O1396 2.264 . S
Co1386 O1415 2.286 . S
Co1386 O1416 2.069 . S
Co1386 O1418 2.015 . S
Co1387 O1389 2.122 . S
Co1387 O1395 2.073 . S
Co1387 O1396 2.327 . S
Co1387 O1397 1.976 . S
Co1388 O1389 2.087 . S
Co1388 O1391 2.087 . S
Co1388 O1398 2.111 . S
Co1388 O1399 2.143 . S
Co1388 O1403 2.111 . S
Co1388 O1417 2.143 . S
O1389 Co1386 2.042 . S
O1389 Co1387 2.122 . S
O1389 Co1388 2.087 . S
O1389 H1390 0.980 . S
H1390 O1389 0.980 . S
O1391 Co1388 2.087 . S
O1391 Co1392 2.042 . S
O1391 Co1393 2.122 . S
O1391 H1394 0.980 . S
Co1392 O1391 2.042 . S
Co1392 O1400 2.286 . S
Co1392 O1401 2.069 . S
Co1392 O1402 2.015 . S
Co1392 O1405 2.264 . S
Co1393 O1391 2.122 . S
Co1393 O1404 1.976 . S
Co1393 O1405 2.327 . S
Co1393 O1406 2.073 . S
H1394 O1391 0.980 . S
O1395 Co1387 2.073 . S
O1395 C1410 1.245 . S
O1396 Co1386 2.264 . S
O1396 Co1387 2.327 . S
O1396 C1410 1.257 . S
O1397 Co1387 1.976 . S
O1397 C1409 1.251 . S
O1398 Co1388 2.111 . S
O1398 C1409 1.274 . S
O1399 Co1388 2.143 . S
O1399 C1412 1.246 . S
O1400 Co1392 2.286 . S
O1400 C1411 1.259 . S
O1401 Co1392 2.069 . S
O1401 C1411 1.289 . S
O1402 Co1392 2.015 . S
O1402 C1412 1.257 . S
O1403 Co1388 2.111 . S
O1403 C1413 1.274 . S
O1404 Co1393 1.976 . S
O1404 C1413 1.251 . S
O1405 Co1392 2.264 . S
O1405 Co1393 2.327 . S
O1405 C1414 1.257 . S
O1406 Co1393 2.073 . S
O1406 C1414 1.245 . S
C1407 O1415 1.259 . S
C1407 O1416 1.289 . S
C1408 O1417 1.246 . S
C1408 O1418 1.257 . S
C1409 O1397 1.251 . S
C1409 O1398 1.274 . S
C1410 O1395 1.245 . S
C1410 O1396 1.257 . S
C1411 O1400 1.259 . S
C1411 O1401 1.289 . S
C1412 O1399 1.246 . S
C1412 O1402 1.257 . S
C1413 O1403 1.274 . S
C1413 O1404 1.251 . S
C1414 O1405 1.257 . S
C1414 O1406 1.245 . S
O1415 Co1386 2.286 . S
O1415 C1407 1.259 . S
O1416 Co1386 2.069 . S
O1416 C1407 1.289 . S
O1417 Co1388 2.143 . S
O1417 C1408 1.246 . S
O1418 Co1386 2.015 . S
O1418 C1408 1.257 . S
Co1419 O1422 2.042 . S
Co1419 O1429 2.264 . S
Co1419 O1448 2.286 . S
Co1419 O1449 2.069 . S
Co1419 O1451 2.015 . S
Co1420 O1422 2.122 . S
Co1420 O1428 2.073 . S
Co1420 O1429 2.327 . S
Co1420 O1430 1.976 . S
Co1421 O1422 2.087 . S
Co1421 O1424 2.087 . S
Co1421 O1431 2.111 . S
Co1421 O1432 2.143 . S
Co1421 O1436 2.111 . S
Co1421 O1450 2.143 . S
O1422 Co1419 2.042 . S
O1422 Co1420 2.122 . S
O1422 Co1421 2.087 . S
O1422 H1423 0.980 . S
H1423 O1422 0.980 . S
O1424 Co1421 2.087 . S
O1424 Co1425 2.042 . S
O1424 Co1426 2.122 . S
O1424 H1427 0.980 . S
Co1425 O1424 2.042 . S
Co1425 O1433 2.286 . S
Co1425 O1434 2.069 . S
Co1425 O1435 2.015 . S
Co1425 O1438 2.264 . S
Co1426 O1424 2.122 . S
Co1426 O1437 1.976 . S
Co1426 O1438 2.327 . S
Co1426 O1439 2.073 . S
H1427 O1424 0.980 . S
O1428 Co1420 2.073 . S
O1428 C1443 1.245 . S
O1429 Co1419 2.264 . S
O1429 Co1420 2.327 . S
O1429 C1443 1.257 . S
O1430 Co1420 1.976 . S
O1430 C1442 1.251 . S
O1431 Co1421 2.111 . S
O1431 C1442 1.274 . S
O1432 Co1421 2.143 . S
O1432 C1445 1.246 . S
O1433 Co1425 2.286 . S
O1433 C1444 1.259 . S
O1434 Co1425 2.069 . S
O1434 C1444 1.289 . S
O1435 Co1425 2.015 . S
O1435 C1445 1.257 . S
O1436 Co1421 2.111 . S
O1436 C1446 1.274 . S
O1437 Co1426 1.976 . S
O1437 C1446 1.251 . S
O1438 Co1425 2.264 . S
O1438 Co1426 2.327 . S
O1438 C1447 1.257 . S
O1439 Co1426 2.073 . S
O1439 C1447 1.245 . S
C1440 O1448 1.259 . S
C1440 O1449 1.289 . S
C1441 O1450 1.246 . S
C1441 O1451 1.257 . S
C1442 O1430 1.251 . S
C1442 O1431 1.274 . S
C1443 O1428 1.245 . S
C1443 O1429 1.257 . S
C1444 O1433 1.259 . S
C1444 O1434 1.289 . S
C1445 O1432 1.246 . S
C1445 O1435 1.257 . S
C1446 O1436 1.274 . S
C1446 O1437 1.251 . S
C1447 O1438 1.257 . S
C1447 O1439 1.245 . S
O1448 Co1419 2.286 . S
O1448 C1440 1.259 . S
O1449 Co1419 2.069 . S
O1449 C1440 1.289 . S
O1450 Co1421 2.143 . S
O1450 C1441 1.246 . S
O1451 Co1419 2.015 . S
O1451 C1441 1.257 . S
Co1452 O1455 2.042 . S
Co1452 O1462 2.264 . S
Co1452 O1481 2.286 . S
Co1452 O1482 2.069 . S
Co1452 O1484 2.015 . S
Co1453 O1455 2.122 . S
Co1453 O1461 2.073 . S
Co1453 O1462 2.327 . S
Co1453 O1463 1.976 . S
Co1454 O1455 2.087 . S
Co1454 O1457 2.087 . S
Co1454 O1464 2.111 . S
Co1454 O1465 2.143 . S
Co1454 O1469 2.111 . S
Co1454 O1483 2.143 . S
O1455 Co1452 2.042 . S
O1455 Co1453 2.122 . S
O1455 Co1454 2.087 . S
O1455 H1456 0.980 . S
H1456 O1455 0.980 . S
O1457 Co1454 2.087 . S
O1457 Co1458 2.042 . S
O1457 Co1459 2.122 . S
O1457 H1460 0.980 . S
Co1458 O1457 2.042 . S
Co1458 O1466 2.286 . S
Co1458 O1467 2.069 . S
Co1458 O1468 2.015 . S
Co1458 O1471 2.264 . S
Co1459 O1457 2.122 . S
Co1459 O1470 1.976 . S
Co1459 O1471 2.327 . S
Co1459 O1472 2.073 . S
H1460 O1457 0.980 . S
O1461 Co1453 2.073 . S
O1461 C1476 1.245 . S
O1462 Co1452 2.264 . S
O1462 Co1453 2.327 . S
O1462 C1476 1.257 . S
O1463 Co1453 1.976 . S
O1463 C1475 1.251 . S
O1464 Co1454 2.111 . S
O1464 C1475 1.274 . S
O1465 Co1454 2.143 . S
O1465 C1478 1.246 . S
O1466 Co1458 2.286 . S
O1466 C1477 1.259 . S
O1467 Co1458 2.069 . S
O1467 C1477 1.289 . S
O1468 Co1458 2.015 . S
O1468 C1478 1.257 . S
O1469 Co1454 2.111 . S
O1469 C1479 1.274 . S
O1470 Co1459 1.976 . S
O1470 C1479 1.251 . S
O1471 Co1458 2.264 . S
O1471 Co1459 2.327 . S
O1471 C1480 1.257 . S
O1472 Co1459 2.073 . S
O1472 C1480 1.245 . S
C1473 O1481 1.259 . S
C1473 O1482 1.289 . S
C1474 O1483 1.246 . S
C1474 O1484 1.257 . S
C1475 O1463 1.251 . S
C1475 O1464 1.274 . S
C1476 O1461 1.245 . S
C1476 O1462 1.257 . S
C1477 O1466 1.259 . S
C1477 O1467 1.289 . S
C1478 O1465 1.246 . S
C1478 O1468 1.257 . S
C1479 O1469 1.274 . S
C1479 O1470 1.251 . S
C1480 O1471 1.257 . S
C1480 O1472 1.245 . S
O1481 Co1452 2.286 . S
O1481 C1473 1.259 . S
O1482 Co1452 2.069 . S
O1482 C1473 1.289 . S
O1483 Co1454 2.143 . S
O1483 C1474 1.246 . S
O1484 Co1452 2.015 . S
O1484 C1474 1.257 . S
Co1485 O1488 2.042 . S
Co1485 O1495 2.264 . S
Co1485 O1514 2.286 . S
Co1485 O1515 2.069 . S
Co1485 O1517 2.015 . S
Co1486 O1488 2.122 . S
Co1486 O1494 2.073 . S
Co1486 O1495 2.327 . S
Co1486 O1496 1.976 . S
Co1487 O1488 2.087 . S
Co1487 O1490 2.087 . S
Co1487 O1497 2.111 . S
Co1487 O1498 2.143 . S
Co1487 O1502 2.111 . S
Co1487 O1516 2.143 . S
O1488 Co1485 2.042 . S
O1488 Co1486 2.122 . S
O1488 Co1487 2.087 . S
O1488 H1489 0.980 . S
H1489 O1488 0.980 . S
O1490 Co1487 2.087 . S
O1490 Co1491 2.042 . S
O1490 Co1492 2.122 . S
O1490 H1493 0.980 . S
Co1491 O1490 2.042 . S
Co1491 O1499 2.286 . S
Co1491 O1500 2.069 . S
Co1491 O1501 2.015 . S
Co1491 O1504 2.264 . S
Co1492 O1490 2.122 . S
Co1492 O1503 1.976 . S
Co1492 O1504 2.327 . S
Co1492 O1505 2.073 . S
H1493 O1490 0.980 . S
O1494 Co1486 2.073 . S
O1494 C1509 1.245 . S
O1495 Co1485 2.264 . S
O1495 Co1486 2.327 . S
O1495 C1509 1.257 . S
O1496 Co1486 1.976 . S
O1496 C1508 1.251 . S
O1497 Co1487 2.111 . S
O1497 C1508 1.274 . S
O1498 Co1487 2.143 . S
O1498 C1511 1.246 . S
O1499 Co1491 2.286 . S
O1499 C1510 1.259 . S
O1500 Co1491 2.069 . S
O1500 C1510 1.289 . S
O1501 Co1491 2.015 . S
O1501 C1511 1.257 . S
O1502 Co1487 2.111 . S
O1502 C1512 1.274 . S
O1503 Co1492 1.976 . S
O1503 C1512 1.251 . S
O1504 Co1491 2.264 . S
O1504 Co1492 2.327 . S
O1504 C1513 1.257 . S
O1505 Co1492 2.073 . S
O1505 C1513 1.245 . S
C1506 O1514 1.259 . S
C1506 O1515 1.289 . S
C1507 O1516 1.246 . S
C1507 O1517 1.257 . S
C1508 O1496 1.251 . S
C1508 O1497 1.274 . S
C1509 O1494 1.245 . S
C1509 O1495 1.257 . S
C1510 O1499 1.259 . S
C1510 O1500 1.289 . S
C1511 O1498 1.246 . S
C1511 O1501 1.257 . S
C1512 O1502 1.274 . S
C1512 O1503 1.251 . S
C1513 O1504 1.257 . S
C1513 O1505 1.245 . S
O1514 Co1485 2.286 . S
O1514 C1506 1.259 . S
O1515 Co1485 2.069 . S
O1515 C1506 1.289 . S
O1516 Co1487 2.143 . S
O1516 C1507 1.246 . S
O1517 Co1485 2.015 . S
O1517 C1507 1.257 . S
Co1518 O1521 2.042 . S
Co1518 O1528 2.264 . S
Co1518 O1547 2.286 . S
Co1518 O1548 2.069 . S
Co1518 O1550 2.015 . S
Co1519 O1521 2.122 . S
Co1519 O1527 2.073 . S
Co1519 O1528 2.327 . S
Co1519 O1529 1.976 . S
Co1520 O1521 2.087 . S
Co1520 O1523 2.087 . S
Co1520 O1530 2.111 . S
Co1520 O1531 2.143 . S
Co1520 O1535 2.111 . S
Co1520 O1549 2.143 . S
O1521 Co1518 2.042 . S
O1521 Co1519 2.122 . S
O1521 Co1520 2.087 . S
O1521 H1522 0.980 . S
H1522 O1521 0.980 . S
O1523 Co1520 2.087 . S
O1523 Co1524 2.042 . S
O1523 Co1525 2.122 . S
O1523 H1526 0.980 . S
Co1524 O1523 2.042 . S
Co1524 O1532 2.286 . S
Co1524 O1533 2.069 . S
Co1524 O1534 2.015 . S
Co1524 O1537 2.264 . S
Co1525 O1523 2.122 . S
Co1525 O1536 1.976 . S
Co1525 O1537 2.327 . S
Co1525 O1538 2.073 . S
H1526 O1523 0.980 . S
O1527 Co1519 2.073 . S
O1527 C1542 1.245 . S
O1528 Co1518 2.264 . S
O1528 Co1519 2.327 . S
O1528 C1542 1.257 . S
O1529 Co1519 1.976 . S
O1529 C1541 1.251 . S
O1530 Co1520 2.111 . S
O1530 C1541 1.274 . S
O1531 Co1520 2.143 . S
O1531 C1544 1.246 . S
O1532 Co1524 2.286 . S
O1532 C1543 1.259 . S
O1533 Co1524 2.069 . S
O1533 C1543 1.289 . S
O1534 Co1524 2.015 . S
O1534 C1544 1.257 . S
O1535 Co1520 2.111 . S
O1535 C1545 1.274 . S
O1536 Co1525 1.976 . S
O1536 C1545 1.251 . S
O1537 Co1524 2.264 . S
O1537 Co1525 2.327 . S
O1537 C1546 1.257 . S
O1538 Co1525 2.073 . S
O1538 C1546 1.245 . S
C1539 O1547 1.259 . S
C1539 O1548 1.289 . S
C1540 O1549 1.246 . S
C1540 O1550 1.257 . S
C1541 O1529 1.251 . S
C1541 O1530 1.274 . S
C1542 O1527 1.245 . S
C1542 O1528 1.257 . S
C1543 O1532 1.259 . S
C1543 O1533 1.289 . S
C1544 O1531 1.246 . S
C1544 O1534 1.257 . S
C1545 O1535 1.274 . S
C1545 O1536 1.251 . S
C1546 O1537 1.257 . S
C1546 O1538 1.245 . S
O1547 Co1518 2.286 . S
O1547 C1539 1.259 . S
O1548 Co1518 2.069 . S
O1548 C1539 1.289 . S
O1549 Co1520 2.143 . S
O1549 C1540 1.246 . S
O1550 Co1518 2.015 . S
O1550 C1540 1.257 . S
Co1551 O1554 2.042 . S
Co1551 O1561 2.264 . S
Co1551 O1580 2.286 . S
Co1551 O1581 2.069 . S
Co1551 O1583 2.015 . S
Co1552 O1554 2.122 . S
Co1552 O1560 2.073 . S
Co1552 O1561 2.327 . S
Co1552 O1562 1.976 . S
Co1553 O1554 2.087 . S
Co1553 O1556 2.087 . S
Co1553 O1563 2.111 . S
Co1553 O1564 2.143 . S
Co1553 O1568 2.111 . S
Co1553 O1582 2.143 . S
O1554 Co1551 2.042 . S
O1554 Co1552 2.122 . S
O1554 Co1553 2.087 . S
O1554 H1555 0.980 . S
H1555 O1554 0.980 . S
O1556 Co1553 2.087 . S
O1556 Co1557 2.042 . S
O1556 Co1558 2.122 . S
O1556 H1559 0.980 . S
Co1557 O1556 2.042 . S
Co1557 O1565 2.286 . S
Co1557 O1566 2.069 . S
Co1557 O1567 2.015 . S
Co1557 O1570 2.264 . S
Co1558 O1556 2.122 . S
Co1558 O1569 1.976 . S
Co1558 O1570 2.327 . S
Co1558 O1571 2.073 . S
H1559 O1556 0.980 . S
O1560 Co1552 2.073 . S
O1560 C1575 1.245 . S
O1561 Co1551 2.264 . S
O1561 Co1552 2.327 . S
O1561 C1575 1.257 . S
O1562 Co1552 1.976 . S
O1562 C1574 1.251 . S
O1563 Co1553 2.111 . S
O1563 C1574 1.274 . S
O1564 Co1553 2.143 . S
O1564 C1577 1.246 . S
O1565 Co1557 2.286 . S
O1565 C1576 1.259 . S
O1566 Co1557 2.069 . S
O1566 C1576 1.289 . S
O1567 Co1557 2.015 . S
O1567 C1577 1.257 . S
O1568 Co1553 2.111 . S
O1568 C1578 1.274 . S
O1569 Co1558 1.976 . S
O1569 C1578 1.251 . S
O1570 Co1557 2.264 . S
O1570 Co1558 2.327 . S
O1570 C1579 1.257 . S
O1571 Co1558 2.073 . S
O1571 C1579 1.245 . S
C1572 O1580 1.259 . S
C1572 O1581 1.289 . S
C1573 O1582 1.246 . S
C1573 O1583 1.257 . S
C1574 O1562 1.251 . S
C1574 O1563 1.274 . S
C1575 O1560 1.245 . S
C1575 O1561 1.257 . S
C1576 O1565 1.259 . S
C1576 O1566 1.289 . S
C1577 O1564 1.246 . S
C1577 O1567 1.257 . S
C1578 O1568 1.274 . S
C1578 O1569 1.251 . S
C1579 O1570 1.257 . S
C1579 O1571 1.245 . S
O1580 Co1551 2.286 . S
O1580 C1572 1.259 . S
O1581 Co1551 2.069 . S
O1581 C1572 1.289 . S
O1582 Co1553 2.143 . S
O1582 C1573 1.246 . S
O1583 Co1551 2.015 . S
O1583 C1573 1.257 . S
H1584 C1596 0.930 . S
H1585 C1598 0.930 . S
H1586 C1599 0.930 . S
H1587 C1603 0.959 . S
H1588 C1603 0.959 . S
H1589 C1603 0.961 . S
H1590 C1604 0.960 . S
H1591 C1604 0.961 . S
H1592 C1604 0.959 . S
H1593 C1607 0.929 . S
H1594 C1608 0.931 . S
H1595 C1610 0.930 . S
C1596 H1584 0.930 . S
C1596 C1597 1.399 . S
C1596 C1601 1.399 . S
C1597 C1596 1.399 . S
C1597 C1598 1.376 . S
C1598 H1585 0.930 . S
C1598 C1597 1.376 . S
C1598 C1599 1.388 . S
C1599 H1586 0.930 . S
C1599 C1598 1.388 . S
C1599 C1600 1.390 . S
C1600 C1599 1.390 . S
C1600 C1601 1.394 . S
C1600 C1606 1.465 1_565 S
C1601 C1596 1.399 . S
C1601 C1600 1.394 . S
C1601 C1602 1.516 . S
C1602 C1601 1.516 . S
C1602 C1603 1.502 . S
C1602 C1604 1.561 . S
C1602 C1605 1.526 . S
C1603 H1587 0.959 . S
C1603 H1588 0.959 . S
C1603 H1589 0.961 . S
C1603 C1602 1.502 . S
C1604 H1590 0.960 . S
C1604 H1591 0.961 . S
C1604 H1592 0.959 . S
C1604 C1602 1.561 . S
C1605 C1602 1.526 . S
C1605 C1606 1.396 1_565 S
C1605 C1610 1.390 1_565 S
C1606 C1600 1.465 1_545 S
C1606 C1605 1.396 1_545 S
C1606 C1607 1.399 . S
C1607 H1593 0.929 . S
C1607 C1606 1.399 . S
C1607 C1608 1.385 . S
C1608 H1594 0.931 . S
C1608 C1607 1.385 . S
C1608 C1609 1.389 . S
C1609 C1608 1.389 . S
C1609 C1610 1.387 . S
C1610 H1595 0.930 . S
C1610 C1605 1.390 1_545 S
C1610 C1609 1.387 . S
H1611 C1623 0.930 . S
H1612 C1625 0.930 . S
H1613 C1626 0.930 . S
H1614 C1630 0.959 . S
H1615 C1630 0.959 . S
H1616 C1630 0.961 . S
H1617 C1631 0.960 . S
H1618 C1631 0.961 . S
H1619 C1631 0.959 . S
H1620 C1634 0.929 . S
H1621 C1635 0.931 . S
H1622 C1637 0.930 . S
C1623 H1611 0.930 . S
C1623 C1624 1.399 . S
C1623 C1628 1.399 . S
C1624 C1623 1.399 . S
C1624 C1625 1.376 . S
C1625 H1612 0.930 . S
C1625 C1624 1.376 . S
C1625 C1626 1.388 . S
C1626 H1613 0.930 . S
C1626 C1625 1.388 . S
C1626 C1627 1.390 . S
C1627 C1626 1.390 . S
C1627 C1628 1.394 . S
C1627 C1633 1.465 . S
C1628 C1623 1.399 . S
C1628 C1627 1.394 . S
C1628 C1629 1.516 . S
C1629 C1628 1.516 . S
C1629 C1630 1.502 . S
C1629 C1631 1.561 . S
C1629 C1632 1.526 . S
C1630 H1614 0.959 . S
C1630 H1615 0.959 . S
C1630 H1616 0.961 . S
C1630 C1629 1.502 . S
C1631 H1617 0.960 . S
C1631 H1618 0.961 . S
C1631 H1619 0.959 . S
C1631 C1629 1.561 . S
C1632 C1629 1.526 . S
C1632 C1633 1.396 . S
C1632 C1637 1.390 . S
C1633 C1627 1.465 . S
C1633 C1632 1.396 . S
C1633 C1634 1.399 1_455 S
C1634 H1620 0.929 . S
C1634 C1633 1.399 1_655 S
C1634 C1635 1.385 . S
C1635 H1621 0.931 . S
C1635 C1634 1.385 . S
C1635 C1636 1.389 . S
C1636 C1635 1.389 . S
C1636 C1637 1.387 1_655 S
C1637 H1622 0.930 . S
C1637 C1632 1.390 . S
C1637 C1636 1.387 1_455 S
H1638 C1650 0.930 . S
H1639 C1652 0.930 . S
H1640 C1653 0.930 . S
H1641 C1657 0.959 . S
H1642 C1657 0.959 . S
H1643 C1657 0.961 1_556 S
H1644 C1658 0.960 1_556 S
H1645 C1658 0.961 . S
H1646 C1658 0.959 . S
H1647 C1661 0.929 . S
H1648 C1662 0.931 . S
H1649 C1664 0.930 . S
C1650 H1638 0.930 . S
C1650 C1651 1.399 . S
C1650 C1655 1.399 1_556 S
C1651 C1650 1.399 . S
C1651 C1652 1.376 . S
C1652 H1639 0.930 . S
C1652 C1651 1.376 . S
C1652 C1653 1.388 1_556 S
C1653 H1640 0.930 . S
C1653 C1652 1.388 1_554 S
C1653 C1654 1.390 . S
C1654 C1653 1.390 . S
C1654 C1655 1.394 . S
C1654 C1660 1.465 . S
C1655 C1650 1.399 1_554 S
C1655 C1654 1.394 . S
C1655 C1656 1.516 . S
C1656 C1655 1.516 . S
C1656 C1657 1.502 . S
C1656 C1658 1.561 . S
C1656 C1659 1.526 . S
C1657 H1641 0.959 . S
C1657 H1642 0.959 . S
C1657 H1643 0.961 1_554 S
C1657 C1656 1.502 . S
C1658 H1644 0.960 1_554 S
C1658 H1645 0.961 . S
C1658 H1646 0.959 . S
C1658 C1656 1.561 . S
C1659 C1656 1.526 . S
C1659 C1660 1.396 . S
C1659 C1664 1.390 . S
C1660 C1654 1.465 . S
C1660 C1659 1.396 . S
C1660 C1661 1.399 . S
C1661 H1647 0.929 . S
C1661 C1660 1.399 . S
C1661 C1662 1.385 . S
C1662 H1648 0.931 . S
C1662 C1661 1.385 . S
C1662 C1663 1.389 . S
C1663 C1662 1.389 . S
C1663 C1664 1.387 . S
C1664 H1649 0.930 . S
C1664 C1659 1.390 . S
C1664 C1663 1.387 . S
H1665 C1677 0.930 . S
H1666 C1679 0.930 . S
H1667 C1680 0.930 . S
H1668 C1684 0.959 . S
H1669 C1684 0.959 . S
H1670 C1684 0.961 . S
H1671 C1685 0.960 . S
H1672 C1685 0.961 . S
H1673 C1685 0.959 . S
H1674 C1688 0.929 . S
H1675 C1689 0.931 . S
H1676 C1691 0.930 . S
C1677 H1665 0.930 . S
C1677 C1678 1.399 . S
C1677 C1682 1.399 . S
C1678 C1677 1.399 . S
C1678 C1679 1.376 . S
C1679 H1666 0.930 . S
C1679 C1678 1.376 . S
C1679 C1680 1.388 . S
C1680 H1667 0.930 . S
C1680 C1679 1.388 . S
C1680 C1681 1.390 . S
C1681 C1680 1.390 . S
C1681 C1682 1.394 . S
C1681 C1687 1.465 . S
C1682 C1677 1.399 . S
C1682 C1681 1.394 . S
C1682 C1683 1.516 . S
C1683 C1682 1.516 . S
C1683 C1684 1.502 . S
C1683 C1685 1.561 . S
C1683 C1686 1.526 . S
C1684 H1668 0.959 . S
C1684 H1669 0.959 . S
C1684 H1670 0.961 . S
C1684 C1683 1.502 . S
C1685 H1671 0.960 . S
C1685 H1672 0.961 . S
C1685 H1673 0.959 . S
C1685 C1683 1.561 . S
C1686 C1683 1.526 . S
C1686 C1687 1.396 . S
C1686 C1691 1.390 . S
C1687 C1681 1.465 . S
C1687 C1686 1.396 . S
C1687 C1688 1.399 . S
C1688 H1674 0.929 . S
C1688 C1687 1.399 . S
C1688 C1689 1.385 . S
C1689 H1675 0.931 . S
C1689 C1688 1.385 . S
C1689 C1690 1.389 . S
C1690 C1689 1.389 . S
C1690 C1691 1.387 . S
C1691 H1676 0.930 . S
C1691 C1686 1.390 . S
C1691 C1690 1.387 . S
H1692 C1704 0.930 . S
H1693 C1706 0.930 . S
H1694 C1707 0.930 . S
H1695 C1711 0.959 . S
H1696 C1711 0.959 . S
H1697 C1711 0.961 . S
H1698 C1712 0.960 . S
H1699 C1712 0.961 . S
H1700 C1712 0.959 . S
H1701 C1715 0.929 . S
H1702 C1716 0.931 . S
H1703 C1718 0.930 . S
C1704 H1692 0.930 . S
C1704 C1705 1.399 . S
C1704 C1709 1.399 . S
C1705 C1704 1.399 . S
C1705 C1706 1.376 . S
C1706 H1693 0.930 . S
C1706 C1705 1.376 . S
C1706 C1707 1.388 . S
C1707 H1694 0.930 . S
C1707 C1706 1.388 . S
C1707 C1708 1.390 . S
C1708 C1707 1.390 . S
C1708 C1709 1.394 . S
C1708 C1714 1.465 . S
C1709 C1704 1.399 . S
C1709 C1708 1.394 . S
C1709 C1710 1.516 . S
C1710 C1709 1.516 . S
C1710 C1711 1.502 . S
C1710 C1712 1.561 . S
C1710 C1713 1.526 . S
C1711 H1695 0.959 . S
C1711 H1696 0.959 . S
C1711 H1697 0.961 . S
C1711 C1710 1.502 . S
C1712 H1698 0.960 . S
C1712 H1699 0.961 . S
C1712 H1700 0.959 . S
C1712 C1710 1.561 . S
C1713 C1710 1.526 . S
C1713 C1714 1.396 . S
C1713 C1718 1.390 . S
C1714 C1708 1.465 . S
C1714 C1713 1.396 . S
C1714 C1715 1.399 . S
C1715 H1701 0.929 . S
C1715 C1714 1.399 . S
C1715 C1716 1.385 . S
C1716 H1702 0.931 . S
C1716 C1715 1.385 . S
C1716 C1717 1.389 . S
C1717 C1716 1.389 . S
C1717 C1718 1.387 . S
C1718 H1703 0.930 . S
C1718 C1713 1.390 . S
C1718 C1717 1.387 . S
H1719 C1731 0.930 . S
H1720 C1733 0.930 . S
H1721 C1734 0.930 . S
H1722 C1738 0.959 . S
H1723 C1738 0.959 . S
H1724 C1738 0.961 . S
H1725 C1739 0.948 1_556 S
H1726 C1739 0.961 . S
H1727 C1739 0.959 1_556 S
H1728 C1742 0.929 . S
H1729 C1743 0.931 . S
H1730 C1745 0.930 . S
C1731 H1719 0.930 . S
C1731 C1732 1.399 . S
C1731 C1736 1.399 1_556 S
C1732 C1731 1.399 . S
C1732 C1733 1.376 . S
C1733 H1720 0.930 . S
C1733 C1732 1.376 . S
C1733 C1734 1.388 . S
C1734 H1721 0.930 . S
C1734 C1733 1.388 . S
C1734 C1735 1.390 1_556 S
C1735 C1734 1.390 1_554 S
C1735 C1736 1.394 . S
C1735 C1741 1.465 . S
C1736 C1731 1.399 1_554 S
C1736 C1735 1.394 . S
C1736 C1737 1.516 . S
C1737 C1736 1.516 . S
C1737 C1738 1.502 . S
C1737 C1739 1.561 . S
C1737 C1740 1.526 . S
C1738 H1722 0.959 . S
C1738 H1723 0.959 . S
C1738 H1724 0.961 . S
C1738 C1737 1.502 . S
C1739 H1725 0.948 1_554 S
C1739 H1726 0.961 . S
C1739 H1727 0.959 1_554 S
C1739 C1737 1.561 . S
C1740 C1737 1.526 . S
C1740 C1741 1.396 . S
C1740 C1745 1.390 . S
C1741 C1735 1.465 . S
C1741 C1740 1.396 . S
C1741 C1742 1.399 . S
C1742 H1728 0.929 . S
C1742 C1741 1.399 . S
C1742 C1743 1.385 . S
C1743 H1729 0.931 . S
C1743 C1742 1.385 . S
C1743 C1744 1.389 . S
C1744 C1743 1.389 . S
C1744 C1745 1.387 . S
C1745 H1730 0.930 . S
C1745 C1740 1.390 . S
C1745 C1744 1.387 . S
H1746 C1758 0.930 . S
H1747 C1760 0.930 . S
H1748 C1761 0.930 . S
H1749 C1765 0.953 1_565 S
H1750 C1765 0.960 . S
H1751 C1765 0.968 . S
H1752 C1766 0.960 . S
H1753 C1766 0.961 . S
H1754 C1766 0.959 . S
H1755 C1769 0.929 . S
H1756 C1770 0.931 . S
H1757 C1772 0.930 . S
C1758 H1746 0.930 . S
C1758 C1759 1.399 . S
C1758 C1763 1.399 1_545 S
C1759 C1758 1.399 . S
C1759 C1760 1.376 1_545 S
C1760 H1747 0.930 . S
C1760 C1759 1.376 1_565 S
C1760 C1761 1.388 . S
C1761 H1748 0.930 . S
C1761 C1760 1.388 . S
C1761 C1762 1.390 . S
C1762 C1761 1.390 . S
C1762 C1763 1.394 . S
C1762 C1768 1.465 . S
C1763 C1758 1.399 1_565 S
C1763 C1762 1.394 . S
C1763 C1764 1.516 . S
C1764 C1763 1.516 . S
C1764 C1765 1.499 1_565 S
C1764 C1766 1.561 1_565 S
C1764 C1767 1.526 . S
C1765 H1749 0.953 1_545 S
C1765 H1750 0.960 . S
C1765 H1751 0.968 . S
C1765 C1764 1.499 1_545 S
C1766 H1752 0.960 . S
C1766 H1753 0.961 . S
C1766 H1754 0.959 . S
C1766 C1764 1.561 1_545 S
C1767 C1764 1.526 . S
C1767 C1768 1.396 . S
C1767 C1772 1.390 . S
C1768 C1762 1.465 . S
C1768 C1767 1.396 . S
C1768 C1769 1.399 . S
C1769 H1755 0.929 . S
C1769 C1768 1.399 . S
C1769 C1770 1.385 . S
C1770 H1756 0.931 . S
C1770 C1769 1.385 . S
C1770 C1771 1.389 . S
C1771 C1770 1.389 . S
C1771 C1772 1.387 . S
C1772 H1757 0.930 . S
C1772 C1767 1.390 . S
C1772 C1771 1.387 . S
H1773 C1785 0.930 . S
H1774 C1787 0.930 . S
H1775 C1788 0.930 . S
H1776 C1792 0.959 . S
H1777 C1792 0.959 . S
H1778 C1792 0.961 . S
H1779 C1793 0.960 . S
H1780 C1793 0.961 . S
H1781 C1793 0.959 . S
H1782 C1796 0.929 . S
H1783 C1797 0.931 . S
H1784 C1799 0.930 1_455 S
C1785 H1773 0.930 . S
C1785 C1786 1.399 . S
C1785 C1790 1.399 . S
C1786 C1785 1.399 . S
C1786 C1787 1.376 . S
C1787 H1774 0.930 . S
C1787 C1786 1.376 . S
C1787 C1788 1.388 . S
C1788 H1775 0.930 . S
C1788 C1787 1.388 . S
C1788 C1789 1.390 . S
C1789 C1788 1.390 . S
C1789 C1790 1.394 . S
C1789 C1795 1.495 . S
C1790 C1785 1.399 . S
C1790 C1789 1.394 . S
C1790 C1791 1.516 . S
C1791 C1790 1.516 . S
C1791 C1792 1.502 . S
C1791 C1793 1.561 . S
C1791 C1794 1.526 . S
C1792 H1776 0.959 . S
C1792 H1777 0.959 . S
C1792 H1778 0.961 . S
C1792 C1791 1.502 . S
C1793 H1779 0.960 . S
C1793 H1780 0.961 . S
C1793 H1781 0.959 . S
C1793 C1791 1.561 . S
C1794 C1791 1.526 . S
C1794 C1795 1.413 . S
C1794 C1799 1.390 1_455 S
C1795 C1789 1.495 . S
C1795 C1794 1.413 . S
C1795 C1796 1.359 1_455 S
C1796 H1782 0.929 . S
C1796 C1795 1.359 1_655 S
C1796 C1797 1.385 . S
C1797 H1783 0.931 . S
C1797 C1796 1.385 . S
C1797 C1798 1.389 . S
C1798 C1797 1.389 . S
C1798 C1799 1.387 . S
C1799 H1784 0.930 1_655 S
C1799 C1794 1.390 1_655 S
C1799 C1798 1.387 . S
H1800 C1812 0.930 . S
H1801 C1814 0.930 . S
H1802 C1815 0.930 . S
H1803 C1819 0.959 . S
H1804 C1819 0.959 . S
H1805 C1819 0.961 . S
H1806 C1820 0.960 . S
H1807 C1820 0.961 . S
H1808 C1820 0.959 . S
H1809 C1823 0.929 . S
H1810 C1824 0.931 . S
H1811 C1826 0.930 . S
C1812 H1800 0.930 . S
C1812 C1813 1.399 . S
C1812 C1817 1.399 . S
C1813 C1812 1.399 . S
C1813 C1814 1.376 . S
C1814 H1801 0.930 . S
C1814 C1813 1.376 . S
C1814 C1815 1.388 . S
C1815 H1802 0.930 . S
C1815 C1814 1.388 . S
C1815 C1816 1.390 . S
C1816 C1815 1.390 . S
C1816 C1817 1.394 . S
C1816 C1822 1.465 . S
C1817 C1812 1.399 . S
C1817 C1816 1.394 . S
C1817 C1818 1.516 . S
C1818 C1817 1.516 . S
C1818 C1819 1.502 . S
C1818 C1820 1.561 1_554 S
C1818 C1821 1.526 1_554 S
C1819 H1803 0.959 . S
C1819 H1804 0.959 . S
C1819 H1805 0.961 . S
C1819 C1818 1.502 . S
C1820 H1806 0.960 . S
C1820 H1807 0.961 . S
C1820 H1808 0.959 . S
C1820 C1818 1.561 1_556 S
C1821 C1818 1.526 1_556 S
C1821 C1822 1.396 1_556 S
C1821 C1826 1.390 . S
C1822 C1816 1.465 . S
C1822 C1821 1.396 1_554 S
C1822 C1823 1.399 1_554 S
C1823 H1809 0.929 . S
C1823 C1822 1.399 1_556 S
C1823 C1824 1.385 . S
C1824 H1810 0.931 . S
C1824 C1823 1.385 . S
C1824 C1825 1.389 . S
C1825 C1824 1.389 . S
C1825 C1826 1.387 . S
C1826 H1811 0.930 . S
C1826 C1821 1.390 . S
C1826 C1825 1.387 . S
H1827 C1839 0.930 . S
H1828 C1841 0.930 . S
H1829 C1842 0.930 . S
H1830 C1846 0.959 . S
H1831 C1846 0.959 . S
H1832 C1846 0.961 . S
H1833 C1847 0.960 . S
H1834 C1847 0.961 . S
H1835 C1847 0.959 . S
H1836 C1850 0.929 . S
H1837 C1851 0.931 . S
H1838 C1853 0.930 . S
C1839 H1827 0.930 . S
C1839 C1840 1.399 . S
C1839 C1844 1.399 . S
C1840 C1839 1.399 . S
C1840 C1841 1.376 . S
C1841 H1828 0.930 . S
C1841 C1840 1.376 . S
C1841 C1842 1.388 . S
C1842 H1829 0.930 . S
C1842 C1841 1.388 . S
C1842 C1843 1.390 . S
C1843 C1842 1.390 . S
C1843 C1844 1.394 . S
C1843 C1849 1.465 . S
C1844 C1839 1.399 . S
C1844 C1843 1.394 . S
C1844 C1845 1.516 . S
C1845 C1844 1.516 . S
C1845 C1846 1.502 . S
C1845 C1847 1.561 . S
C1845 C1848 1.526 . S
C1846 H1830 0.959 . S
C1846 H1831 0.959 . S
C1846 H1832 0.961 . S
C1846 C1845 1.502 . S
C1847 H1833 0.960 . S
C1847 H1834 0.961 . S
C1847 H1835 0.959 . S
C1847 C1845 1.561 . S
C1848 C1845 1.526 . S
C1848 C1849 1.396 . S
C1848 C1853 1.390 . S
C1849 C1843 1.465 . S
C1849 C1848 1.396 . S
C1849 C1850 1.399 . S
C1850 H1836 0.929 . S
C1850 C1849 1.399 . S
C1850 C1851 1.385 . S
C1851 H1837 0.931 . S
C1851 C1850 1.385 . S
C1851 C1852 1.389 . S
C1852 C1851 1.389 . S
C1852 C1853 1.387 . S
C1853 H1838 0.930 . S
C1853 C1848 1.390 . S
C1853 C1852 1.387 . S
H1854 C1866 0.930 . S
H1855 C1868 0.930 . S
H1856 C1869 0.930 . S
H1857 C1873 0.959 . S
H1858 C1873 0.959 . S
H1859 C1873 0.961 . S
H1860 C1874 0.960 . S
H1861 C1874 0.961 . S
H1862 C1874 0.959 . S
H1863 C1877 0.929 . S
H1864 C1878 0.931 . S
H1865 C1880 0.930 . S
C1866 H1854 0.930 . S
C1866 C1867 1.399 . S
C1866 C1871 1.399 . S
C1867 C1866 1.399 . S
C1867 C1868 1.376 . S
C1868 H1855 0.930 . S
C1868 C1867 1.376 . S
C1868 C1869 1.388 . S
C1869 H1856 0.930 . S
C1869 C1868 1.388 . S
C1869 C1870 1.390 . S
C1870 C1869 1.390 . S
C1870 C1871 1.394 . S
C1870 C1876 1.465 . S
C1871 C1866 1.399 . S
C1871 C1870 1.394 . S
C1871 C1872 1.516 . S
C1872 C1871 1.516 . S
C1872 C1873 1.502 . S
C1872 C1874 1.561 . S
C1872 C1875 1.526 . S
C1873 H1857 0.959 . S
C1873 H1858 0.959 . S
C1873 H1859 0.961 . S
C1873 C1872 1.502 . S
C1874 H1860 0.960 . S
C1874 H1861 0.961 . S
C1874 H1862 0.959 . S
C1874 C1872 1.561 . S
C1875 C1872 1.526 . S
C1875 C1876 1.396 . S
C1875 C1880 1.390 . S
C1876 C1870 1.465 . S
C1876 C1875 1.396 . S
C1876 C1877 1.399 . S
C1877 H1863 0.929 . S
C1877 C1876 1.399 . S
C1877 C1878 1.385 . S
C1878 H1864 0.931 . S
C1878 C1877 1.385 . S
C1878 C1879 1.389 . S
C1879 C1878 1.389 . S
C1879 C1880 1.387 . S
C1880 H1865 0.930 . S
C1880 C1875 1.390 . S
C1880 C1879 1.387 . S
H1881 C1893 0.930 . S
H1882 C1895 0.930 . S
H1883 C1896 0.930 . S
H1884 C1900 0.959 . S
H1885 C1900 0.959 . S
H1886 C1900 0.961 . S
H1887 C1901 0.960 . S
H1888 C1901 0.961 . S
H1889 C1901 0.959 . S
H1890 C1904 0.929 . S
H1891 C1905 0.931 . S
H1892 C1907 0.930 . S
C1893 H1881 0.930 . S
C1893 C1894 1.399 . S
C1893 C1898 1.399 . S
C1894 C1893 1.399 . S
C1894 C1895 1.376 . S
C1895 H1882 0.930 . S
C1895 C1894 1.376 . S
C1895 C1896 1.388 . S
C1896 H1883 0.930 . S
C1896 C1895 1.388 . S
C1896 C1897 1.390 . S
C1897 C1896 1.390 . S
C1897 C1898 1.394 . S
C1897 C1903 1.465 . S
C1898 C1893 1.399 . S
C1898 C1897 1.394 . S
C1898 C1899 1.516 . S
C1899 C1898 1.516 . S
C1899 C1900 1.502 . S
C1899 C1901 1.561 . S
C1899 C1902 1.526 . S
C1900 H1884 0.959 . S
C1900 H1885 0.959 . S
C1900 H1886 0.961 . S
C1900 C1899 1.502 . S
C1901 H1887 0.960 . S
C1901 H1888 0.961 . S
C1901 H1889 0.959 . S
C1901 C1899 1.561 . S
C1902 C1899 1.526 . S
C1902 C1903 1.396 . S
C1902 C1907 1.390 . S
C1903 C1897 1.465 . S
C1903 C1902 1.396 . S
C1903 C1904 1.399 . S
C1904 H1890 0.929 . S
C1904 C1903 1.399 . S
C1904 C1905 1.385 . S
C1905 H1891 0.931 . S
C1905 C1904 1.385 . S
C1905 C1906 1.389 . S
C1906 C1905 1.389 . S
C1906 C1907 1.387 . S
C1907 H1892 0.930 . S
C1907 C1902 1.390 . S
C1907 C1906 1.387 . S
H1908 C1920 0.930 . S
H1909 C1922 0.930 . S
H1910 C1923 0.930 . S
H1911 C1927 0.959 . S
H1912 C1927 0.959 . S
H1913 C1927 0.961 . S
H1914 C1928 0.960 . S
H1915 C1928 0.961 . S
H1916 C1928 0.959 . S
H1917 C1931 0.929 . S
H1918 C1932 0.931 . S
H1919 C1934 0.930 . S
C1920 H1908 0.930 . S
C1920 C1921 1.399 . S
C1920 C1925 1.399 . S
C1921 C1920 1.399 . S
C1921 C1922 1.376 . S
C1922 H1909 0.930 . S
C1922 C1921 1.376 . S
C1922 C1923 1.388 . S
C1923 H1910 0.930 . S
C1923 C1922 1.388 . S
C1923 C1924 1.390 . S
C1924 C1923 1.390 . S
C1924 C1925 1.394 . S
C1924 C1930 1.465 . S
C1925 C1920 1.399 . S
C1925 C1924 1.394 . S
C1925 C1926 1.516 . S
C1926 C1925 1.516 . S
C1926 C1927 1.502 . S
C1926 C1928 1.561 . S
C1926 C1929 1.526 . S
C1927 H1911 0.959 . S
C1927 H1912 0.959 . S
C1927 H1913 0.961 . S
C1927 C1926 1.502 . S
C1928 H1914 0.960 . S
C1928 H1915 0.961 . S
C1928 H1916 0.959 . S
C1928 C1926 1.561 . S
C1929 C1926 1.526 . S
C1929 C1930 1.396 . S
C1929 C1934 1.390 . S
C1930 C1924 1.465 . S
C1930 C1929 1.396 . S
C1930 C1931 1.399 . S
C1931 H1917 0.929 . S
C1931 C1930 1.399 . S
C1931 C1932 1.385 . S
C1932 H1918 0.931 . S
C1932 C1931 1.385 . S
C1932 C1933 1.389 . S
C1933 C1932 1.389 . S
C1933 C1934 1.387 . S
C1934 H1919 0.930 . S
C1934 C1929 1.390 . S
C1934 C1933 1.387 . S
H1935 C1947 0.930 . S
H1936 C1949 0.930 . S
H1937 C1950 0.930 . S
H1938 C1954 0.959 . S
H1939 C1954 0.959 . S
H1940 C1954 0.961 . S
H1941 C1955 0.960 . S
H1942 C1955 0.961 . S
H1943 C1955 0.959 . S
H1944 C1958 0.929 . S
H1945 C1959 0.931 . S
H1946 C1961 0.930 . S
C1947 H1935 0.930 . S
C1947 C1948 1.399 . S
C1947 C1952 1.399 . S
C1948 C1947 1.399 . S
C1948 C1949 1.376 . S
C1949 H1936 0.930 . S
C1949 C1948 1.376 . S
C1949 C1950 1.388 . S
C1950 H1937 0.930 . S
C1950 C1949 1.388 . S
C1950 C1951 1.390 . S
C1951 C1950 1.390 . S
C1951 C1952 1.394 . S
C1951 C1957 1.465 . S
C1952 C1947 1.399 . S
C1952 C1951 1.394 . S
C1952 C1953 1.516 . S
C1953 C1952 1.516 . S
C1953 C1954 1.502 . S
C1953 C1955 1.561 . S
C1953 C1956 1.526 . S
C1954 H1938 0.959 . S
C1954 H1939 0.959 . S
C1954 H1940 0.961 . S
C1954 C1953 1.502 . S
C1955 H1941 0.960 . S
C1955 H1942 0.961 . S
C1955 H1943 0.959 . S
C1955 C1953 1.561 . S
C1956 C1953 1.526 . S
C1956 C1957 1.396 . S
C1956 C1961 1.390 . S
C1957 C1951 1.465 . S
C1957 C1956 1.396 . S
C1957 C1958 1.399 . S
C1958 H1944 0.929 . S
C1958 C1957 1.399 . S
C1958 C1959 1.385 . S
C1959 H1945 0.931 . S
C1959 C1958 1.385 . S
C1959 C1960 1.389 . S
C1960 C1959 1.389 . S
C1960 C1961 1.387 . S
C1961 H1946 0.930 . S
C1961 C1956 1.390 . S
C1961 C1960 1.387 . S
H1962 C1974 0.930 . S
H1963 C1976 0.930 . S
H1964 C1977 0.930 . S
H1965 C1981 0.959 . S
H1966 C1981 0.959 . S
H1967 C1981 0.961 . S
H1968 C1982 0.960 . S
H1969 C1982 0.961 . S
H1970 C1982 0.959 . S
H1971 C1985 0.929 . S
H1972 C1986 0.931 . S
H1973 C1988 0.930 . S
C1974 H1962 0.930 . S
C1974 C1975 1.399 . S
C1974 C1979 1.399 . S
C1975 C1974 1.399 . S
C1975 C1976 1.376 . S
C1976 H1963 0.930 . S
C1976 C1975 1.376 . S
C1976 C1977 1.388 . S
C1977 H1964 0.930 . S
C1977 C1976 1.388 . S
C1977 C1978 1.390 . S
C1978 C1977 1.390 . S
C1978 C1979 1.394 . S
C1978 C1984 1.465 . S
C1979 C1974 1.399 . S
C1979 C1978 1.394 . S
C1979 C1980 1.516 . S
C1980 C1979 1.516 . S
C1980 C1981 1.502 . S
C1980 C1982 1.561 . S
C1980 C1983 1.526 . S
C1981 H1965 0.959 . S
C1981 H1966 0.959 . S
C1981 H1967 0.961 . S
C1981 C1980 1.502 . S
C1982 H1968 0.960 . S
C1982 H1969 0.961 . S
C1982 H1970 0.959 . S
C1982 C1980 1.561 . S
C1983 C1980 1.526 . S
C1983 C1984 1.396 . S
C1983 C1988 1.390 . S
C1984 C1978 1.465 . S
C1984 C1983 1.396 . S
C1984 C1985 1.399 . S
C1985 H1971 0.929 . S
C1985 C1984 1.399 . S
C1985 C1986 1.385 . S
C1986 H1972 0.931 . S
C1986 C1985 1.385 . S
C1986 C1987 1.389 . S
C1987 C1986 1.389 . S
C1987 C1988 1.387 . S
C1988 H1973 0.930 . S
C1988 C1983 1.390 . S
C1988 C1987 1.387 . S
H1989 C2001 0.930 . S
H1990 C2003 0.930 . S
H1991 C2004 0.930 . S
H1992 C2008 0.959 . S
H1993 C2008 0.959 . S
H1994 C2008 0.961 . S
H1995 C2009 0.960 . S
H1996 C2009 0.961 . S
H1997 C2009 0.959 . S
H1998 C2012 0.945 . S
H1999 C2013 0.931 . S
H2000 C2015 0.930 . S
C2001 H1989 0.930 . S
C2001 C2002 1.399 . S
C2001 C2006 1.382 1_554 S
C2002 C2001 1.399 . S
C2002 C2003 1.376 . S
C2003 H1990 0.930 . S
C2003 C2002 1.376 . S
C2003 C2004 1.388 . S
C2004 H1991 0.930 . S
C2004 C2003 1.388 . S
C2004 C2005 1.390 . S
C2005 C2004 1.390 . S
C2005 C2006 1.376 1_554 S
C2005 C2011 1.465 1_554 S
C2006 C2001 1.382 1_556 S
C2006 C2005 1.376 1_556 S
C2006 C2007 1.551 . S
C2007 C2006 1.551 . S
C2007 C2008 1.502 . S
C2007 C2009 1.561 . S
C2007 C2010 1.526 . S
C2008 H1992 0.959 . S
C2008 H1993 0.959 . S
C2008 H1994 0.961 . S
C2008 C2007 1.502 . S
C2009 H1995 0.960 . S
C2009 H1996 0.961 . S
C2009 H1997 0.959 . S
C2009 C2007 1.561 . S
C2010 C2007 1.526 . S
C2010 C2011 1.396 . S
C2010 C2015 1.390 . S
C2011 C2005 1.465 1_556 S
C2011 C2010 1.396 . S
C2011 C2012 1.396 1_556 S
C2012 H1998 0.945 . S
C2012 C2011 1.396 1_554 S
C2012 C2013 1.372 1_554 S
C2013 H1999 0.931 . S
C2013 C2012 1.372 1_556 S
C2013 C2014 1.389 . S
C2014 C2013 1.389 . S
C2014 C2015 1.387 . S
C2015 H2000 0.930 . S
C2015 C2010 1.390 . S
C2015 C2014 1.387 . S
H2016 C2028 0.930 . S
H2017 C2030 0.930 . S
H2018 C2031 0.971 . S
H2019 C2035 0.959 1_655 S
H2020 C2035 0.959 . S
H2021 C2035 0.961 . S
H2022 C2036 0.960 . S
H2023 C2036 0.961 . S
H2024 C2036 0.959 . S
H2025 C2039 0.929 . S
H2026 C2040 0.931 . S
H2027 C2042 0.930 . S
C2028 H2016 0.930 . S
C2028 C2029 1.399 . S
C2028 C2033 1.399 . S
C2029 C2028 1.399 . S
C2029 C2030 1.376 . S
C2030 H2017 0.930 . S
C2030 C2029 1.376 . S
C2030 C2031 1.342 1_455 S
C2031 H2018 0.971 . S
C2031 C2030 1.342 1_655 S
C2031 C2032 1.398 . S
C2032 C2031 1.398 . S
C2032 C2033 1.394 1_655 S
C2032 C2038 1.465 . S
C2033 C2028 1.399 . S
C2033 C2032 1.394 1_455 S
C2033 C2034 1.516 . S
C2034 C2033 1.516 . S
C2034 C2035 1.502 . S
C2034 C2036 1.561 . S
C2034 C2037 1.526 1_455 S
C2035 H2019 0.959 1_455 S
C2035 H2020 0.959 . S
C2035 H2021 0.961 . S
C2035 C2034 1.502 . S
C2036 H2022 0.960 . S
C2036 H2023 0.961 . S
C2036 H2024 0.959 . S
C2036 C2034 1.561 . S
C2037 C2034 1.526 1_655 S
C2037 C2038 1.396 . S
C2037 C2042 1.390 . S
C2038 C2032 1.465 . S
C2038 C2037 1.396 . S
C2038 C2039 1.399 . S
C2039 H2025 0.929 . S
C2039 C2038 1.399 . S
C2039 C2040 1.385 . S
C2040 H2026 0.931 . S
C2040 C2039 1.385 . S
C2040 C2041 1.389 . S
C2041 C2040 1.389 . S
C2041 C2042 1.387 . S
C2042 H2027 0.930 . S
C2042 C2037 1.390 . S
C2042 C2041 1.387 . S
H2043 C2055 0.930 . S
H2044 C2057 0.930 . S
H2045 C2058 0.930 . S
H2046 C2062 0.959 . S
H2047 C2062 0.959 . S
H2048 C2062 0.961 . S
H2049 C2063 0.960 . S
H2050 C2063 0.961 . S
H2051 C2063 0.959 . S
H2052 C2066 0.929 . S
H2053 C2067 0.931 . S
H2054 C2069 0.930 . S
C2055 H2043 0.930 . S
C2055 C2056 1.399 . S
C2055 C2060 1.399 . S
C2056 C2055 1.399 . S
C2056 C2057 1.376 . S
C2057 H2044 0.930 . S
C2057 C2056 1.376 . S
C2057 C2058 1.388 . S
C2058 H2045 0.930 . S
C2058 C2057 1.388 . S
C2058 C2059 1.390 . S
C2059 C2058 1.390 . S
C2059 C2060 1.394 . S
C2059 C2065 1.465 . S
C2060 C2055 1.399 . S
C2060 C2059 1.394 . S
C2060 C2061 1.516 . S
C2061 C2060 1.516 . S
C2061 C2062 1.502 . S
C2061 C2063 1.561 . S
C2061 C2064 1.526 . S
C2062 H2046 0.959 . S
C2062 H2047 0.959 . S
C2062 H2048 0.961 . S
C2062 C2061 1.502 . S
C2063 H2049 0.960 . S
C2063 H2050 0.961 . S
C2063 H2051 0.959 . S
C2063 C2061 1.561 . S
C2064 C2061 1.526 . S
C2064 C2065 1.396 . S
C2064 C2069 1.390 . S
C2065 C2059 1.465 . S
C2065 C2064 1.396 . S
C2065 C2066 1.399 . S
C2066 H2052 0.929 . S
C2066 C2065 1.399 . S
C2066 C2067 1.385 . S
C2067 H2053 0.931 . S
C2067 C2066 1.385 . S
C2067 C2068 1.389 . S
C2068 C2067 1.389 . S
C2068 C2069 1.387 . S
C2069 H2054 0.930 . S
C2069 C2064 1.390 . S
C2069 C2068 1.387 . S
H2070 C2082 0.930 . S
H2071 C2084 0.930 . S
H2072 C2085 0.930 . S
H2073 C2089 0.959 . S
H2074 C2089 0.959 . S
H2075 C2089 0.961 . S
H2076 C2090 0.960 . S
H2077 C2090 0.961 . S
H2078 C2090 0.959 . S
H2079 C2093 0.929 . S
H2080 C2094 0.931 . S
H2081 C2096 0.930 . S
C2082 H2070 0.930 . S
C2082 C2083 1.399 . S
C2082 C2087 1.399 . S
C2083 C2082 1.399 . S
C2083 C2084 1.376 . S
C2084 H2071 0.930 . S
C2084 C2083 1.376 . S
C2084 C2085 1.388 . S
C2085 H2072 0.930 . S
C2085 C2084 1.388 . S
C2085 C2086 1.390 . S
C2086 C2085 1.390 . S
C2086 C2087 1.394 . S
C2086 C2092 1.465 . S
C2087 C2082 1.399 . S
C2087 C2086 1.394 . S
C2087 C2088 1.516 . S
C2088 C2087 1.516 . S
C2088 C2089 1.502 . S
C2088 C2090 1.561 . S
C2088 C2091 1.526 . S
C2089 H2073 0.959 . S
C2089 H2074 0.959 . S
C2089 H2075 0.961 . S
C2089 C2088 1.502 . S
C2090 H2076 0.960 . S
C2090 H2077 0.961 . S
C2090 H2078 0.959 . S
C2090 C2088 1.561 . S
C2091 C2088 1.526 . S
C2091 C2092 1.396 . S
C2091 C2096 1.390 . S
C2092 C2086 1.465 . S
C2092 C2091 1.396 . S
C2092 C2093 1.399 . S
C2093 H2079 0.929 . S
C2093 C2092 1.399 . S
C2093 C2094 1.385 . S
C2094 H2080 0.931 . S
C2094 C2093 1.385 . S
C2094 C2095 1.389 . S
C2095 C2094 1.389 . S
C2095 C2096 1.387 . S
C2096 H2081 0.930 . S
C2096 C2091 1.390 . S
C2096 C2095 1.387 . S
H2097 C2109 0.930 . S
H2098 C2111 0.930 . S
H2099 C2112 0.930 . S
H2100 C2116 0.959 . S
H2101 C2116 0.959 . S
H2102 C2116 0.961 . S
H2103 C2117 0.960 . S
H2104 C2117 0.973 . S
H2105 C2117 0.941 1_565 S
H2106 C2120 0.929 . S
H2107 C2121 0.931 . S
H2108 C2123 0.930 . S
C2109 H2097 0.930 . S
C2109 C2110 1.399 . S
C2109 C2114 1.399 . S
C2110 C2109 1.399 . S
C2110 C2111 1.376 . S
C2111 H2098 0.930 . S
C2111 C2110 1.376 . S
C2111 C2112 1.388 . S
C2112 H2099 0.930 . S
C2112 C2111 1.388 . S
C2112 C2113 1.390 . S
C2113 C2112 1.390 . S
C2113 C2114 1.394 . S
C2113 C2119 1.465 1_545 S
C2114 C2109 1.399 . S
C2114 C2113 1.394 . S
C2114 C2115 1.516 . S
C2115 C2114 1.516 . S
C2115 C2116 1.502 . S
C2115 C2117 1.561 . S
C2115 C2118 1.526 1_545 S
C2116 H2100 0.959 . S
C2116 H2101 0.959 . S
C2116 H2102 0.961 . S
C2116 C2115 1.502 . S
C2117 H2103 0.960 . S
C2117 H2104 0.973 . S
C2117 H2105 0.941 1_545 S
C2117 C2115 1.561 . S
C2118 C2115 1.526 1_565 S
C2118 C2119 1.396 . S
C2118 C2123 1.390 . S
C2119 C2113 1.465 1_565 S
C2119 C2118 1.396 . S
C2119 C2120 1.399 . S
C2120 H2106 0.929 . S
C2120 C2119 1.399 . S
C2120 C2121 1.385 . S
C2121 H2107 0.931 . S
C2121 C2120 1.385 . S
C2121 C2122 1.389 . S
C2122 C2121 1.389 . S
C2122 C2123 1.387 . S
C2123 H2108 0.930 . S
C2123 C2118 1.390 . S
C2123 C2122 1.387 . S
H2124 C2136 0.930 . S
H2125 C2138 0.930 . S
H2126 C2139 0.930 . S
H2127 C2143 0.959 . S
H2128 C2143 0.959 . S
H2129 C2143 0.961 . S
H2130 C2144 0.960 . S
H2131 C2144 0.961 . S
H2132 C2144 0.959 . S
H2133 C2147 0.929 . S
H2134 C2148 0.931 . S
H2135 C2150 0.930 . S
C2136 H2124 0.930 . S
C2136 C2137 1.399 . S
C2136 C2141 1.399 . S
C2137 C2136 1.399 . S
C2137 C2138 1.376 . S
C2138 H2125 0.930 . S
C2138 C2137 1.376 . S
C2138 C2139 1.388 . S
C2139 H2126 0.930 . S
C2139 C2138 1.388 . S
C2139 C2140 1.390 . S
C2140 C2139 1.390 . S
C2140 C2141 1.394 . S
C2140 C2146 1.465 . S
C2141 C2136 1.399 . S
C2141 C2140 1.394 . S
C2141 C2142 1.516 . S
C2142 C2141 1.516 . S
C2142 C2143 1.502 . S
C2142 C2144 1.561 . S
C2142 C2145 1.526 . S
C2143 H2127 0.959 . S
C2143 H2128 0.959 . S
C2143 H2129 0.961 . S
C2143 C2142 1.502 . S
C2144 H2130 0.960 . S
C2144 H2131 0.961 . S
C2144 H2132 0.959 . S
C2144 C2142 1.561 . S
C2145 C2142 1.526 . S
C2145 C2146 1.396 . S
C2145 C2150 1.390 . S
C2146 C2140 1.465 . S
C2146 C2145 1.396 . S
C2146 C2147 1.399 . S
C2147 H2133 0.929 . S
C2147 C2146 1.399 . S
C2147 C2148 1.385 . S
C2148 H2134 0.931 . S
C2148 C2147 1.385 . S
C2148 C2149 1.389 . S
C2149 C2148 1.389 . S
C2149 C2150 1.387 . S
C2150 H2135 0.930 . S
C2150 C2145 1.390 . S
C2150 C2149 1.387 . S
H2151 C2163 0.930 . S
H2152 C2165 0.930 . S
H2153 C2166 0.930 . S
H2154 C2170 0.959 . S
H2155 C2170 0.959 . S
H2156 C2170 0.961 . S
H2157 C2171 0.960 . S
H2158 C2171 0.961 . S
H2159 C2171 0.959 . S
H2160 C2174 0.929 . S
H2161 C2175 0.931 . S
H2162 C2177 0.930 . S
C2163 H2151 0.930 . S
C2163 C2164 1.399 . S
C2163 C2168 1.399 . S
C2164 C2163 1.399 . S
C2164 C2165 1.376 . S
C2165 H2152 0.930 . S
C2165 C2164 1.376 . S
C2165 C2166 1.388 . S
C2166 H2153 0.930 . S
C2166 C2165 1.388 . S
C2166 C2167 1.390 . S
C2167 C2166 1.390 . S
C2167 C2168 1.394 . S
C2167 C2173 1.465 . S
C2168 C2163 1.399 . S
C2168 C2167 1.394 . S
C2168 C2169 1.516 . S
C2169 C2168 1.516 . S
C2169 C2170 1.502 . S
C2169 C2171 1.561 . S
C2169 C2172 1.526 . S
C2170 H2154 0.959 . S
C2170 H2155 0.959 . S
C2170 H2156 0.961 . S
C2170 C2169 1.502 . S
C2171 H2157 0.960 . S
C2171 H2158 0.961 . S
C2171 H2159 0.959 . S
C2171 C2169 1.561 . S
C2172 C2169 1.526 . S
C2172 C2173 1.396 . S
C2172 C2177 1.390 . S
C2173 C2167 1.465 . S
C2173 C2172 1.396 . S
C2173 C2174 1.399 . S
C2174 H2160 0.929 . S
C2174 C2173 1.399 . S
C2174 C2175 1.385 . S
C2175 H2161 0.931 . S
C2175 C2174 1.385 . S
C2175 C2176 1.389 . S
C2176 C2175 1.389 . S
C2176 C2177 1.387 . S
C2177 H2162 0.930 . S
C2177 C2172 1.390 . S
C2177 C2176 1.387 . S
H2178 C2190 0.930 . S
H2179 C2192 0.930 . S
H2180 C2193 0.930 . S
H2181 C2197 0.959 . S
H2182 C2197 0.959 . S
H2183 C2197 0.961 . S
H2184 C2198 0.960 1_545 S
H2185 C2198 0.961 . S
H2186 C2198 0.959 . S
H2187 C2201 0.929 . S
H2188 C2202 0.931 . S
H2189 C2204 0.930 . S
C2190 H2178 0.930 . S
C2190 C2191 1.399 . S
C2190 C2195 1.399 1_545 S
C2191 C2190 1.399 . S
C2191 C2192 1.376 . S
C2192 H2179 0.930 . S
C2192 C2191 1.376 . S
C2192 C2193 1.388 . S
C2193 H2180 0.930 . S
C2193 C2192 1.388 . S
C2193 C2194 1.390 1_545 S
C2194 C2193 1.390 1_565 S
C2194 C2195 1.394 . S
C2194 C2200 1.465 . S
C2195 C2190 1.399 1_565 S
C2195 C2194 1.394 . S
C2195 C2196 1.516 . S
C2196 C2195 1.516 . S
C2196 C2197 1.502 . S
C2196 C2198 1.561 . S
C2196 C2199 1.526 . S
C2197 H2181 0.959 . S
C2197 H2182 0.959 . S
C2197 H2183 0.961 . S
C2197 C2196 1.502 . S
C2198 H2184 0.960 1_565 S
C2198 H2185 0.961 . S
C2198 H2186 0.959 . S
C2198 C2196 1.561 . S
C2199 C2196 1.526 . S
C2199 C2200 1.396 . S
C2199 C2204 1.390 . S
C2200 C2194 1.465 . S
C2200 C2199 1.396 . S
C2200 C2201 1.399 . S
C2201 H2187 0.929 . S
C2201 C2200 1.399 . S
C2201 C2202 1.385 . S
C2202 H2188 0.931 . S
C2202 C2201 1.385 . S
C2202 C2203 1.389 . S
C2203 C2202 1.389 . S
C2203 C2204 1.387 . S
C2204 H2189 0.930 . S
C2204 C2199 1.390 . S
C2204 C2203 1.387 . S
H2205 C2217 0.930 . S
H2206 C2219 0.930 . S
H2207 C2220 0.930 . S
H2208 C2224 0.959 . S
H2209 C2224 0.959 . S
H2210 C2224 0.961 1_655 S
H2211 C2225 0.960 . S
H2212 C2225 0.961 1_455 S
H2213 C2225 0.959 . S
H2214 C2228 0.946 . S
H2215 C2229 0.931 . S
H2216 C2231 0.930 . S
C2217 H2205 0.930 . S
C2217 C2218 1.399 . S
C2217 C2222 1.399 . S
C2218 C2217 1.399 . S
C2218 C2219 1.376 . S
C2219 H2206 0.930 . S
C2219 C2218 1.376 . S
C2219 C2220 1.388 . S
C2220 H2207 0.930 . S
C2220 C2219 1.388 . S
C2220 C2221 1.390 . S
C2221 C2220 1.390 . S
C2221 C2222 1.394 . S
C2221 C2227 1.465 . S
C2222 C2217 1.399 . S
C2222 C2221 1.394 . S
C2222 C2223 1.516 . S
C2223 C2222 1.516 . S
C2223 C2224 1.502 1_655 S
C2223 C2225 1.561 . S
C2223 C2226 1.526 1_655 S
C2224 H2208 0.959 . S
C2224 H2209 0.959 . S
C2224 H2210 0.961 1_455 S
C2224 C2223 1.502 1_455 S
C2225 H2211 0.960 . S
C2225 H2212 0.961 1_655 S
C2225 H2213 0.959 . S
C2225 C2223 1.561 . S
C2226 C2223 1.526 1_455 S
C2226 C2227 1.396 1_455 S
C2226 C2231 1.390 . S
C2227 C2221 1.465 . S
C2227 C2226 1.396 1_655 S
C2227 C2228 1.407 . S
C2228 H2214 0.946 . S
C2228 C2227 1.407 . S
C2228 C2229 1.360 1_655 S
C2229 H2215 0.931 . S
C2229 C2228 1.360 1_455 S
C2229 C2230 1.389 . S
C2230 C2229 1.389 . S
C2230 C2231 1.387 . S
C2231 H2216 0.930 . S
C2231 C2226 1.390 . S
C2231 C2230 1.387 . S
H2232 C2244 0.930 1_565 S
H2233 C2246 0.930 . S
H2234 C2247 0.930 . S
H2235 C2251 0.959 . S
H2236 C2251 0.959 . S
H2237 C2251 0.961 . S
H2238 C2252 0.960 . S
H2239 C2252 0.961 . S
H2240 C2252 0.959 . S
H2241 C2255 0.929 . S
H2242 C2256 0.931 . S
H2243 C2258 0.930 . S
C2244 H2232 0.930 1_545 S
C2244 C2245 1.399 . S
C2244 C2249 1.399 1_545 S
C2245 C2244 1.399 . S
C2245 C2246 1.376 . S
C2246 H2233 0.930 . S
C2246 C2245 1.376 . S
C2246 C2247 1.388 . S
C2247 H2234 0.930 . S
C2247 C2246 1.388 . S
C2247 C2248 1.390 1_545 S
C2248 C2247 1.390 1_565 S
C2248 C2249 1.394 . S
C2248 C2254 1.465 . S
C2249 C2244 1.399 1_565 S
C2249 C2248 1.394 . S
C2249 C2250 1.516 . S
C2250 C2249 1.516 . S
C2250 C2251 1.502 . S
C2250 C2252 1.561 . S
C2250 C2253 1.526 . S
C2251 H2235 0.959 . S
C2251 H2236 0.959 . S
C2251 H2237 0.961 . S
C2251 C2250 1.502 . S
C2252 H2238 0.960 . S
C2252 H2239 0.961 . S
C2252 H2240 0.959 . S
C2252 C2250 1.561 . S
C2253 C2250 1.526 . S
C2253 C2254 1.396 . S
C2253 C2258 1.390 . S
C2254 C2248 1.465 . S
C2254 C2253 1.396 . S
C2254 C2255 1.399 . S
C2255 H2241 0.929 . S
C2255 C2254 1.399 . S
C2255 C2256 1.385 . S
C2256 H2242 0.931 . S
C2256 C2255 1.385 . S
C2256 C2257 1.389 . S
C2257 C2256 1.389 . S
C2257 C2258 1.387 . S
C2258 H2243 0.930 . S
C2258 C2253 1.390 . S
C2258 C2257 1.387 . S
H2259 C2271 0.930 . S
H2260 C2273 0.930 . S
H2261 C2274 0.930 . S
H2262 C2278 0.959 . S
H2263 C2278 0.959 . S
H2264 C2278 0.961 . S
H2265 C2279 0.960 . S
H2266 C2279 0.961 . S
H2267 C2279 0.959 . S
H2268 C2282 0.929 1_655 S
H2269 C2283 0.931 . S
H2270 C2285 0.930 . S
C2271 H2259 0.930 . S
C2271 C2272 1.399 . S
C2271 C2276 1.427 . S
C2272 C2271 1.399 . S
C2272 C2273 1.376 . S
C2273 H2260 0.930 . S
C2273 C2272 1.376 . S
C2273 C2274 1.388 . S
C2274 H2261 0.930 . S
C2274 C2273 1.388 . S
C2274 C2275 1.390 . S
C2275 C2274 1.390 . S
C2275 C2276 1.410 . S
C2275 C2281 1.465 1_655 S
C2276 C2271 1.427 . S
C2276 C2275 1.410 . S
C2276 C2277 1.473 1_655 S
C2277 C2276 1.473 1_455 S
C2277 C2278 1.502 . S
C2277 C2279 1.561 . S
C2277 C2280 1.526 . S
C2278 H2262 0.959 . S
C2278 H2263 0.959 . S
C2278 H2264 0.961 . S
C2278 C2277 1.502 . S
C2279 H2265 0.960 . S
C2279 H2266 0.961 . S
C2279 H2267 0.959 . S
C2279 C2277 1.561 . S
C2280 C2277 1.526 . S
C2280 C2281 1.396 . S
C2280 C2285 1.390 . S
C2281 C2275 1.465 1_455 S
C2281 C2280 1.396 . S
C2281 C2282 1.399 . S
C2282 H2268 0.929 1_455 S
C2282 C2281 1.399 . S
C2282 C2283 1.385 . S
C2283 H2269 0.931 . S
C2283 C2282 1.385 . S
C2283 C2284 1.389 . S
C2284 C2283 1.389 . S
C2284 C2285 1.387 . S
C2285 H2270 0.930 . S
C2285 C2280 1.390 . S
C2285 C2284 1.387 . S
H2286 C2298 0.930 . S
H2287 C2300 0.930 . S
H2288 C2301 0.930 . S
H2289 C2305 0.959 . S
H2290 C2305 0.959 . S
H2291 C2305 0.961 . S
H2292 C2306 0.960 . S
H2293 C2306 0.961 . S
H2294 C2306 0.959 . S
H2295 C2309 0.929 . S
H2296 C2310 0.931 . S
H2297 C2312 0.930 . S
C2298 H2286 0.930 . S
C2298 C2299 1.399 . S
C2298 C2303 1.399 . S
C2299 C2298 1.399 . S
C2299 C2300 1.376 . S
C2300 H2287 0.930 . S
C2300 C2299 1.376 . S
C2300 C2301 1.388 . S
C2301 H2288 0.930 . S
C2301 C2300 1.388 . S
C2301 C2302 1.390 . S
C2302 C2301 1.390 . S
C2302 C2303 1.394 . S
C2302 C2308 1.450 1_556 S
C2303 C2298 1.399 . S
C2303 C2302 1.394 . S
C2303 C2304 1.516 1_556 S
C2304 C2303 1.516 1_554 S
C2304 C2305 1.502 . S
C2304 C2306 1.561 . S
C2304 C2307 1.526 . S
C2305 H2289 0.959 . S
C2305 H2290 0.959 . S
C2305 H2291 0.961 . S
C2305 C2304 1.502 . S
C2306 H2292 0.960 . S
C2306 H2293 0.961 . S
C2306 H2294 0.959 . S
C2306 C2304 1.561 . S
C2307 C2304 1.526 . S
C2307 C2308 1.419 . S
C2307 C2312 1.390 . S
C2308 C2302 1.450 1_554 S
C2308 C2307 1.419 . S
C2308 C2309 1.395 1_554 S
C2309 H2295 0.929 . S
C2309 C2308 1.395 1_556 S
C2309 C2310 1.385 1_556 S
C2310 H2296 0.931 . S
C2310 C2309 1.385 1_554 S
C2310 C2311 1.389 . S
C2311 C2310 1.389 . S
C2311 C2312 1.387 . S
C2312 H2297 0.930 . S
C2312 C2307 1.390 . S
C2312 C2311 1.387 . S
H2313 C2325 0.930 . S
H2314 C2327 0.930 . S
H2315 C2328 0.930 . S
H2316 C2332 0.959 . S
H2317 C2332 0.959 . S
H2318 C2332 0.961 . S
H2319 C2333 0.960 . S
H2320 C2333 0.961 . S
H2321 C2333 0.959 . S
H2322 C2336 0.929 . S
H2323 C2337 0.931 . S
H2324 C2339 0.930 . S
C2325 H2313 0.930 . S
C2325 C2326 1.399 . S
C2325 C2330 1.399 . S
C2326 C2325 1.399 . S
C2326 C2327 1.376 . S
C2327 H2314 0.930 . S
C2327 C2326 1.376 . S
C2327 C2328 1.388 . S
C2328 H2315 0.930 . S
C2328 C2327 1.388 . S
C2328 C2329 1.390 . S
C2329 C2328 1.390 . S
C2329 C2330 1.394 . S
C2329 C2335 1.465 1_556 S
C2330 C2325 1.399 . S
C2330 C2329 1.394 . S
C2330 C2331 1.516 . S
C2331 C2330 1.516 . S
C2331 C2332 1.502 . S
C2331 C2333 1.561 1_556 S
C2331 C2334 1.526 1_556 S
C2332 H2316 0.959 . S
C2332 H2317 0.959 . S
C2332 H2318 0.961 . S
C2332 C2331 1.502 . S
C2333 H2319 0.960 . S
C2333 H2320 0.961 . S
C2333 H2321 0.959 . S
C2333 C2331 1.561 1_554 S
C2334 C2331 1.526 1_554 S
C2334 C2335 1.396 . S
C2334 C2339 1.390 . S
C2335 C2329 1.465 1_554 S
C2335 C2334 1.396 . S
C2335 C2336 1.399 . S
C2336 H2322 0.929 . S
C2336 C2335 1.399 . S
C2336 C2337 1.385 . S
C2337 H2323 0.931 . S
C2337 C2336 1.385 . S
C2337 C2338 1.389 . S
C2338 C2337 1.389 . S
C2338 C2339 1.387 . S
C2339 H2324 0.930 . S
C2339 C2334 1.390 . S
C2339 C2338 1.387 . S
H2340 C2352 0.930 . S
H2341 C2354 0.930 . S
H2342 C2355 0.930 1_565 S
H2343 C2359 0.959 1_565 S
H2344 C2359 0.955 1_565 S
H2345 C2359 0.961 . S
H2346 C2360 0.960 . S
H2347 C2360 0.961 . S
H2348 C2360 0.959 . S
H2349 C2363 0.929 . S
H2350 C2364 0.931 . S
H2351 C2366 0.930 . S
C2352 H2340 0.930 . S
C2352 C2353 1.399 . S
C2352 C2357 1.399 . S
C2353 C2352 1.399 . S
C2353 C2354 1.376 . S
C2354 H2341 0.930 . S
C2354 C2353 1.376 . S
C2354 C2355 1.388 . S
C2355 H2342 0.930 1_545 S
C2355 C2354 1.388 . S
C2355 C2356 1.388 1_545 S
C2356 C2355 1.388 1_565 S
C2356 C2357 1.370 1_565 S
C2356 C2362 1.490 . S
C2357 C2352 1.399 . S
C2357 C2356 1.370 1_545 S
C2357 C2358 1.516 . S
C2358 C2357 1.516 . S
C2358 C2359 1.502 . S
C2358 C2360 1.561 . S
C2358 C2361 1.526 1_545 S
C2359 H2343 0.959 1_545 S
C2359 H2344 0.955 1_545 S
C2359 H2345 0.961 . S
C2359 C2358 1.502 . S
C2360 H2346 0.960 . S
C2360 H2347 0.961 . S
C2360 H2348 0.959 . S
C2360 C2358 1.561 . S
C2361 C2358 1.526 1_565 S
C2361 C2362 1.396 . S
C2361 C2366 1.390 . S
C2362 C2356 1.490 . S
C2362 C2361 1.396 . S
C2362 C2363 1.399 . S
C2363 H2349 0.929 . S
C2363 C2362 1.399 . S
C2363 C2364 1.385 . S
C2364 H2350 0.931 . S
C2364 C2363 1.385 . S
C2364 C2365 1.389 . S
C2365 C2364 1.389 . S
C2365 C2366 1.387 . S
C2366 H2351 0.930 . S
C2366 C2361 1.390 . S
C2366 C2365 1.387 . S
H2367 C2379 0.930 . S
H2368 C2381 0.930 . S
H2369 C2382 0.930 . S
H2370 C2386 0.959 1_455 S
H2371 C2386 0.959 . S
H2372 C2386 0.961 . S
H2373 C2387 0.960 . S
H2374 C2387 0.961 . S
H2375 C2387 0.959 . S
H2376 C2390 0.929 . S
H2377 C2391 0.931 . S
H2378 C2393 0.930 . S
C2379 H2367 0.930 . S
C2379 C2380 1.399 . S
C2379 C2384 1.399 . S
C2380 C2379 1.399 . S
C2380 C2381 1.376 . S
C2381 H2368 0.930 . S
C2381 C2380 1.376 . S
C2381 C2382 1.388 1_655 S
C2382 H2369 0.930 . S
C2382 C2381 1.388 1_455 S
C2382 C2383 1.390 . S
C2383 C2382 1.390 . S
C2383 C2384 1.394 1_455 S
C2383 C2389 1.465 . S
C2384 C2379 1.399 . S
C2384 C2383 1.394 1_655 S
C2384 C2385 1.516 1_655 S
C2385 C2384 1.516 1_455 S
C2385 C2386 1.502 1_455 S
C2385 C2387 1.561 1_455 S
C2385 C2388 1.526 . S
C2386 H2370 0.959 1_655 S
C2386 H2371 0.959 . S
C2386 H2372 0.961 . S
C2386 C2385 1.502 1_655 S
C2387 H2373 0.960 . S
C2387 H2374 0.961 . S
C2387 H2375 0.959 . S
C2387 C2385 1.561 1_655 S
C2388 C2385 1.526 . S
C2388 C2389 1.396 . S
C2388 C2393 1.390 . S
C2389 C2383 1.465 . S
C2389 C2388 1.396 . S
C2389 C2390 1.399 . S
C2390 H2376 0.929 . S
C2390 C2389 1.399 . S
C2390 C2391 1.385 . S
C2391 H2377 0.931 . S
C2391 C2390 1.385 . S
C2391 C2392 1.389 . S
C2392 C2391 1.389 . S
C2392 C2393 1.387 . S
C2393 H2378 0.930 . S
C2393 C2388 1.390 . S
C2393 C2392 1.387 . S
H2394 C2406 0.930 . S
H2395 C2408 0.930 . S
H2396 C2409 0.930 . S
H2397 C2413 0.959 . S
H2398 C2413 0.959 . S
H2399 C2413 0.948 1_556 S
H2400 C2414 0.960 . S
H2401 C2414 0.990 . S
H2402 C2414 0.959 . S
H2403 C2417 0.929 . S
H2404 C2418 0.931 . S
H2405 C2420 0.930 . S
C2406 H2394 0.930 . S
C2406 C2407 1.399 . S
C2406 C2411 1.399 . S
C2407 C2406 1.399 . S
C2407 C2408 1.376 . S
C2408 H2395 0.930 . S
C2408 C2407 1.376 . S
C2408 C2409 1.388 . S
C2409 H2396 0.930 . S
C2409 C2408 1.388 . S
C2409 C2410 1.390 . S
C2410 C2409 1.390 . S
C2410 C2411 1.394 . S
C2410 C2416 1.465 . S
C2411 C2406 1.399 . S
C2411 C2410 1.394 . S
C2411 C2412 1.516 . S
C2412 C2411 1.516 . S
C2412 C2413 1.502 1_556 S
C2412 C2414 1.561 . S
C2412 C2415 1.526 1_556 S
C2413 H2397 0.959 . S
C2413 H2398 0.959 . S
C2413 H2399 0.948 1_554 S
C2413 C2412 1.502 1_554 S
C2414 H2400 0.960 . S
C2414 H2401 0.990 . S
C2414 H2402 0.959 . S
C2414 C2412 1.561 . S
C2415 C2412 1.526 1_554 S
C2415 C2416 1.396 1_554 S
C2415 C2420 1.390 . S
C2416 C2410 1.465 . S
C2416 C2415 1.396 1_556 S
C2416 C2417 1.399 . S
C2417 H2403 0.929 . S
C2417 C2416 1.399 . S
C2417 C2418 1.385 1_556 S
C2418 H2404 0.931 . S
C2418 C2417 1.385 1_554 S
C2418 C2419 1.389 . S
C2419 C2418 1.389 . S
C2419 C2420 1.387 . S
C2420 H2405 0.930 . S
C2420 C2415 1.390 . S
C2420 C2419 1.387 . S
H2421 C2433 0.930 . S
H2422 C2435 0.930 . S
H2423 C2436 0.930 . S
H2424 C2440 0.959 . S
H2425 C2440 0.959 . S
H2426 C2440 0.961 . S
H2427 C2441 0.960 . S
H2428 C2441 0.961 . S
H2429 C2441 0.959 . S
H2430 C2444 0.929 . S
H2431 C2445 0.931 . S
H2432 C2447 0.930 . S
C2433 H2421 0.930 . S
C2433 C2434 1.399 . S
C2433 C2438 1.399 . S
C2434 C2433 1.399 . S
C2434 C2435 1.376 . S
C2435 H2422 0.930 . S
C2435 C2434 1.376 . S
C2435 C2436 1.388 . S
C2436 H2423 0.930 . S
C2436 C2435 1.388 . S
C2436 C2437 1.390 . S
C2437 C2436 1.390 . S
C2437 C2438 1.394 . S
C2437 C2443 1.465 . S
C2438 C2433 1.399 . S
C2438 C2437 1.394 . S
C2438 C2439 1.516 . S
C2439 C2438 1.516 . S
C2439 C2440 1.502 . S
C2439 C2441 1.561 . S
C2439 C2442 1.526 . S
C2440 H2424 0.959 . S
C2440 H2425 0.959 . S
C2440 H2426 0.961 . S
C2440 C2439 1.502 . S
C2441 H2427 0.960 . S
C2441 H2428 0.961 . S
C2441 H2429 0.959 . S
C2441 C2439 1.561 . S
C2442 C2439 1.526 . S
C2442 C2443 1.396 . S
C2442 C2447 1.390 . S
C2443 C2437 1.465 . S
C2443 C2442 1.396 . S
C2443 C2444 1.399 . S
C2444 H2430 0.929 . S
C2444 C2443 1.399 . S
C2444 C2445 1.385 . S
C2445 H2431 0.931 . S
C2445 C2444 1.385 . S
C2445 C2446 1.389 . S
C2446 C2445 1.389 . S
C2446 C2447 1.387 . S
C2447 H2432 0.930 . S
C2447 C2442 1.390 . S
C2447 C2446 1.387 . S
H2448 C2460 0.930 . S
H2449 C2462 0.930 . S
H2450 C2463 0.930 . S
H2451 C2467 0.959 . S
H2452 C2467 0.959 . S
H2453 C2467 0.961 . S
H2454 C2468 0.960 . S
H2455 C2468 0.961 . S
H2456 C2468 0.959 . S
H2457 C2471 0.929 . S
H2458 C2472 0.931 . S
H2459 C2474 0.930 . S
C2460 H2448 0.930 . S
C2460 C2461 1.399 . S
C2460 C2465 1.399 . S
C2461 C2460 1.399 . S
C2461 C2462 1.376 . S
C2462 H2449 0.930 . S
C2462 C2461 1.376 . S
C2462 C2463 1.388 . S
C2463 H2450 0.930 . S
C2463 C2462 1.388 . S
C2463 C2464 1.390 . S
C2464 C2463 1.390 . S
C2464 C2465 1.394 . S
C2464 C2470 1.465 . S
C2465 C2460 1.399 . S
C2465 C2464 1.394 . S
C2465 C2466 1.516 . S
C2466 C2465 1.516 . S
C2466 C2467 1.502 . S
C2466 C2468 1.561 . S
C2466 C2469 1.526 . S
C2467 H2451 0.959 . S
C2467 H2452 0.959 . S
C2467 H2453 0.961 . S
C2467 C2466 1.502 . S
C2468 H2454 0.960 . S
C2468 H2455 0.961 . S
C2468 H2456 0.959 . S
C2468 C2466 1.561 . S
C2469 C2466 1.526 . S
C2469 C2470 1.396 . S
C2469 C2474 1.390 . S
C2470 C2464 1.465 . S
C2470 C2469 1.396 . S
C2470 C2471 1.399 . S
C2471 H2457 0.929 . S
C2471 C2470 1.399 . S
C2471 C2472 1.385 . S
C2472 H2458 0.931 . S
C2472 C2471 1.385 . S
C2472 C2473 1.389 . S
C2473 C2472 1.389 . S
C2473 C2474 1.387 . S
C2474 H2459 0.930 . S
C2474 C2469 1.390 . S
C2474 C2473 1.387 . S
H2475 C2487 0.930 . S
H2476 C2489 0.930 . S
H2477 C2490 0.930 . S
H2478 C2494 0.959 . S
H2479 C2494 0.959 . S
H2480 C2494 0.961 . S
H2481 C2495 0.960 . S
H2482 C2495 0.961 . S
H2483 C2495 0.959 . S
H2484 C2498 0.929 . S
H2485 C2499 0.931 . S
H2486 C2501 0.930 . S
C2487 H2475 0.930 . S
C2487 C2488 1.399 . S
C2487 C2492 1.399 . S
C2488 C2487 1.399 . S
C2488 C2489 1.376 . S
C2489 H2476 0.930 . S
C2489 C2488 1.376 . S
C2489 C2490 1.388 . S
C2490 H2477 0.930 . S
C2490 C2489 1.388 . S
C2490 C2491 1.390 . S
C2491 C2490 1.390 . S
C2491 C2492 1.394 . S
C2491 C2497 1.465 . S
C2492 C2487 1.399 . S
C2492 C2491 1.394 . S
C2492 C2493 1.516 . S
C2493 C2492 1.516 . S
C2493 C2494 1.502 . S
C2493 C2495 1.561 . S
C2493 C2496 1.526 . S
C2494 H2478 0.959 . S
C2494 H2479 0.959 . S
C2494 H2480 0.961 . S
C2494 C2493 1.502 . S
C2495 H2481 0.960 . S
C2495 H2482 0.961 . S
C2495 H2483 0.959 . S
C2495 C2493 1.561 . S
C2496 C2493 1.526 . S
C2496 C2497 1.396 . S
C2496 C2501 1.390 . S
C2497 C2491 1.465 . S
C2497 C2496 1.396 . S
C2497 C2498 1.399 . S
C2498 H2484 0.929 . S
C2498 C2497 1.399 . S
C2498 C2499 1.385 . S
C2499 H2485 0.931 . S
C2499 C2498 1.385 . S
C2499 C2500 1.389 . S
C2500 C2499 1.389 . S
C2500 C2501 1.387 . S
C2501 H2486 0.930 . S
C2501 C2496 1.390 . S
C2501 C2500 1.387 . S
H2502 C2514 0.930 . S
H2503 C2516 0.930 . S
H2504 C2517 0.930 . S
H2505 C2521 0.959 . S
H2506 C2521 0.959 . S
H2507 C2521 0.961 . S
H2508 C2522 0.960 . S
H2509 C2522 0.961 . S
H2510 C2522 0.959 . S
H2511 C2525 0.929 . S
H2512 C2526 0.931 . S
H2513 C2528 0.930 . S
C2514 H2502 0.930 . S
C2514 C2515 1.399 . S
C2514 C2519 1.399 . S
C2515 C2514 1.399 . S
C2515 C2516 1.376 . S
C2516 H2503 0.930 . S
C2516 C2515 1.376 . S
C2516 C2517 1.388 . S
C2517 H2504 0.930 . S
C2517 C2516 1.388 . S
C2517 C2518 1.390 . S
C2518 C2517 1.390 . S
C2518 C2519 1.394 . S
C2518 C2524 1.465 . S
C2519 C2514 1.399 . S
C2519 C2518 1.394 . S
C2519 C2520 1.516 . S
C2520 C2519 1.516 . S
C2520 C2521 1.502 . S
C2520 C2522 1.561 . S
C2520 C2523 1.526 . S
C2521 H2505 0.959 . S
C2521 H2506 0.959 . S
C2521 H2507 0.961 . S
C2521 C2520 1.502 . S
C2522 H2508 0.960 . S
C2522 H2509 0.961 . S
C2522 H2510 0.959 . S
C2522 C2520 1.561 . S
C2523 C2520 1.526 . S
C2523 C2524 1.396 . S
C2523 C2528 1.390 . S
C2524 C2518 1.465 . S
C2524 C2523 1.396 . S
C2524 C2525 1.399 . S
C2525 H2511 0.929 . S
C2525 C2524 1.399 . S
C2525 C2526 1.385 . S
C2526 H2512 0.931 . S
C2526 C2525 1.385 . S
C2526 C2527 1.389 . S
C2527 C2526 1.389 . S
C2527 C2528 1.387 . S
C2528 H2513 0.930 . S
C2528 C2523 1.390 . S
C2528 C2527 1.387 . S
H2529 C2541 0.930 . S
H2530 C2543 0.930 . S
H2531 C2544 0.930 1_556 S
H2532 C2548 0.959 . S
H2533 C2548 0.959 . S
H2534 C2548 0.961 . S
H2535 C2549 0.960 . S
H2536 C2549 0.961 . S
H2537 C2549 0.959 . S
H2538 C2552 0.929 . S
H2539 C2553 0.931 . S
H2540 C2555 0.930 . S
C2541 H2529 0.930 . S
C2541 C2542 1.399 . S
C2541 C2546 1.399 . S
C2542 C2541 1.399 . S
C2542 C2543 1.376 . S
C2543 H2530 0.930 . S
C2543 C2542 1.376 . S
C2543 C2544 1.388 . S
C2544 H2531 0.930 1_554 S
C2544 C2543 1.388 . S
C2544 C2545 1.390 . S
C2545 C2544 1.390 . S
C2545 C2546 1.394 . S
C2545 C2551 1.465 1_554 S
C2546 C2541 1.399 . S
C2546 C2545 1.394 . S
C2546 C2547 1.516 . S
C2547 C2546 1.516 . S
C2547 C2548 1.502 . S
C2547 C2549 1.561 . S
C2547 C2550 1.526 . S
C2548 H2532 0.959 . S
C2548 H2533 0.959 . S
C2548 H2534 0.961 . S
C2548 C2547 1.502 . S
C2549 H2535 0.960 . S
C2549 H2536 0.961 . S
C2549 H2537 0.959 . S
C2549 C2547 1.561 . S
C2550 C2547 1.526 . S
C2550 C2551 1.396 1_554 S
C2550 C2555 1.390 1_554 S
C2551 C2545 1.465 1_556 S
C2551 C2550 1.396 1_556 S
C2551 C2552 1.399 . S
C2552 H2538 0.929 . S
C2552 C2551 1.399 . S
C2552 C2553 1.385 . S
C2553 H2539 0.931 . S
C2553 C2552 1.385 . S
C2553 C2554 1.389 . S
C2554 C2553 1.389 . S
C2554 C2555 1.387 . S
C2555 H2540 0.930 . S
C2555 C2550 1.390 1_556 S
C2555 C2554 1.387 . S
H2556 C2568 0.930 . S
H2557 C2570 0.930 . S
H2558 C2571 0.930 . S
H2559 C2575 0.934 1_455 S
H2560 C2575 0.959 . S
H2561 C2575 0.961 . S
H2562 C2576 0.960 . S
H2563 C2576 0.961 . S
H2564 C2576 0.959 . S
H2565 C2579 0.929 . S
H2566 C2580 0.931 . S
H2567 C2582 0.930 . S
C2568 H2556 0.930 . S
C2568 C2569 1.399 . S
C2568 C2573 1.399 . S
C2569 C2568 1.399 . S
C2569 C2570 1.376 . S
C2570 H2557 0.930 . S
C2570 C2569 1.376 . S
C2570 C2571 1.388 . S
C2571 H2558 0.930 . S
C2571 C2570 1.388 . S
C2571 C2572 1.390 . S
C2572 C2571 1.390 . S
C2572 C2573 1.394 . S
C2572 C2578 1.465 . S
C2573 C2568 1.399 . S
C2573 C2572 1.394 . S
C2573 C2574 1.516 1_455 S
C2574 C2573 1.516 1_655 S
C2574 C2575 1.502 . S
C2574 C2576 1.561 . S
C2574 C2577 1.526 . S
C2575 H2559 0.934 1_655 S
C2575 H2560 0.959 . S
C2575 H2561 0.961 . S
C2575 C2574 1.502 . S
C2576 H2562 0.960 . S
C2576 H2563 0.961 . S
C2576 H2564 0.959 . S
C2576 C2574 1.561 . S
C2577 C2574 1.526 . S
C2577 C2578 1.396 1_655 S
C2577 C2582 1.390 . S
C2578 C2572 1.465 . S
C2578 C2577 1.396 1_455 S
C2578 C2579 1.399 . S
C2579 H2565 0.929 . S
C2579 C2578 1.399 . S
C2579 C2580 1.385 1_455 S
C2580 H2566 0.931 . S
C2580 C2579 1.385 1_655 S
C2580 C2581 1.389 . S
C2581 C2580 1.389 . S
C2581 C2582 1.387 . S
C2582 H2567 0.930 . S
C2582 C2577 1.390 . S
C2582 C2581 1.387 . S
H2583 C2595 0.930 . S
H2584 C2597 0.930 . S
H2585 C2598 0.930 . S
H2586 C2602 0.959 . S
H2587 C2602 0.959 . S
H2588 C2602 0.961 . S
H2589 C2603 0.960 . S
H2590 C2603 0.961 . S
H2591 C2603 0.959 . S
H2592 C2606 0.929 . S
H2593 C2607 0.931 . S
H2594 C2609 0.930 . S
C2595 H2583 0.930 . S
C2595 C2596 1.399 . S
C2595 C2600 1.399 . S
C2596 C2595 1.399 . S
C2596 C2597 1.376 . S
C2597 H2584 0.930 . S
C2597 C2596 1.376 . S
C2597 C2598 1.388 . S
C2598 H2585 0.930 . S
C2598 C2597 1.388 . S
C2598 C2599 1.390 . S
C2599 C2598 1.390 . S
C2599 C2600 1.394 . S
C2599 C2605 1.465 . S
C2600 C2595 1.399 . S
C2600 C2599 1.394 . S
C2600 C2601 1.516 . S
C2601 C2600 1.516 . S
C2601 C2602 1.502 . S
C2601 C2603 1.561 . S
C2601 C2604 1.526 . S
C2602 H2586 0.959 . S
C2602 H2587 0.959 . S
C2602 H2588 0.961 . S
C2602 C2601 1.502 . S
C2603 H2589 0.960 . S
C2603 H2590 0.961 . S
C2603 H2591 0.959 . S
C2603 C2601 1.561 . S
C2604 C2601 1.526 . S
C2604 C2605 1.396 . S
C2604 C2609 1.390 . S
C2605 C2599 1.465 . S
C2605 C2604 1.396 . S
C2605 C2606 1.399 . S
C2606 H2592 0.929 . S
C2606 C2605 1.399 . S
C2606 C2607 1.385 . S
C2607 H2593 0.931 . S
C2607 C2606 1.385 . S
C2607 C2608 1.389 . S
C2608 C2607 1.389 . S
C2608 C2609 1.387 . S
C2609 H2594 0.930 . S
C2609 C2604 1.390 . S
C2609 C2608 1.387 . S
H2610 C2622 0.930 . S
H2611 C2624 0.930 . S
H2612 C2625 0.930 . S
H2613 C2629 0.959 . S
H2614 C2629 0.959 . S
H2615 C2629 0.961 . S
H2616 C2630 0.960 . S
H2617 C2630 0.961 . S
H2618 C2630 0.959 . S
H2619 C2633 0.929 . S
H2620 C2634 0.931 . S
H2621 C2636 0.930 . S
C2622 H2610 0.930 . S
C2622 C2623 1.399 . S
C2622 C2627 1.399 . S
C2623 C2622 1.399 . S
C2623 C2624 1.376 . S
C2624 H2611 0.930 . S
C2624 C2623 1.376 . S
C2624 C2625 1.388 . S
C2625 H2612 0.930 . S
C2625 C2624 1.388 . S
C2625 C2626 1.390 . S
C2626 C2625 1.390 . S
C2626 C2627 1.394 . S
C2626 C2632 1.465 . S
C2627 C2622 1.399 . S
C2627 C2626 1.394 . S
C2627 C2628 1.516 . S
C2628 C2627 1.516 . S
C2628 C2629 1.502 . S
C2628 C2630 1.561 . S
C2628 C2631 1.526 . S
C2629 H2613 0.959 . S
C2629 H2614 0.959 . S
C2629 H2615 0.961 . S
C2629 C2628 1.502 . S
C2630 H2616 0.960 . S
C2630 H2617 0.961 . S
C2630 H2618 0.959 . S
C2630 C2628 1.561 . S
C2631 C2628 1.526 . S
C2631 C2632 1.396 . S
C2631 C2636 1.390 . S
C2632 C2626 1.465 . S
C2632 C2631 1.396 . S
C2632 C2633 1.399 . S
C2633 H2619 0.929 . S
C2633 C2632 1.399 . S
C2633 C2634 1.385 . S
C2634 H2620 0.931 . S
C2634 C2633 1.385 . S
C2634 C2635 1.389 . S
C2635 C2634 1.389 . S
C2635 C2636 1.387 . S
C2636 H2621 0.930 . S
C2636 C2631 1.390 . S
C2636 C2635 1.387 . S
H2637 C2649 0.930 . S
H2638 C2651 0.930 . S
H2639 C2652 0.930 . S
H2640 C2656 0.959 . S
H2641 C2656 0.959 . S
H2642 C2656 0.961 . S
H2643 C2657 0.960 . S
H2644 C2657 0.961 . S
H2645 C2657 0.959 . S
H2646 C2660 0.929 . S
H2647 C2661 0.931 . S
H2648 C2663 0.930 . S
C2649 H2637 0.930 . S
C2649 C2650 1.399 . S
C2649 C2654 1.399 . S
C2650 C2649 1.399 . S
C2650 C2651 1.376 . S
C2651 H2638 0.930 . S
C2651 C2650 1.376 . S
C2651 C2652 1.388 . S
C2652 H2639 0.930 . S
C2652 C2651 1.388 . S
C2652 C2653 1.390 . S
C2653 C2652 1.390 . S
C2653 C2654 1.394 . S
C2653 C2659 1.465 . S
C2654 C2649 1.399 . S
C2654 C2653 1.394 . S
C2654 C2655 1.516 . S
C2655 C2654 1.516 . S
C2655 C2656 1.502 . S
C2655 C2657 1.561 . S
C2655 C2658 1.526 . S
C2656 H2640 0.959 . S
C2656 H2641 0.959 . S
C2656 H2642 0.961 . S
C2656 C2655 1.502 . S
C2657 H2643 0.960 . S
C2657 H2644 0.961 . S
C2657 H2645 0.959 . S
C2657 C2655 1.561 . S
C2658 C2655 1.526 . S
C2658 C2659 1.396 . S
C2658 C2663 1.390 . S
C2659 C2653 1.465 . S
C2659 C2658 1.396 . S
C2659 C2660 1.399 . S
C2660 H2646 0.929 . S
C2660 C2659 1.399 . S
C2660 C2661 1.385 . S
C2661 H2647 0.931 . S
C2661 C2660 1.385 . S
C2661 C2662 1.389 . S
C2662 C2661 1.389 . S
C2662 C2663 1.387 . S
C2663 H2648 0.930 . S
C2663 C2658 1.390 . S
C2663 C2662 1.387 . S
H2664 C2676 0.930 . S
H2665 C2678 0.930 . S
H2666 C2679 0.930 . S
H2667 C2683 0.959 . S
H2668 C2683 0.959 . S
H2669 C2683 0.961 . S
H2670 C2684 0.960 . S
H2671 C2684 0.961 . S
H2672 C2684 0.959 . S
H2673 C2687 0.929 . S
H2674 C2688 0.931 . S
H2675 C2690 0.930 . S
C2676 H2664 0.930 . S
C2676 C2677 1.399 . S
C2676 C2681 1.399 . S
C2677 C2676 1.399 . S
C2677 C2678 1.376 . S
C2678 H2665 0.930 . S
C2678 C2677 1.376 . S
C2678 C2679 1.388 . S
C2679 H2666 0.930 . S
C2679 C2678 1.388 . S
C2679 C2680 1.390 . S
C2680 C2679 1.390 . S
C2680 C2681 1.394 . S
C2680 C2686 1.465 . S
C2681 C2676 1.399 . S
C2681 C2680 1.394 . S
C2681 C2682 1.516 . S
C2682 C2681 1.516 . S
C2682 C2683 1.502 . S
C2682 C2684 1.561 . S
C2682 C2685 1.526 . S
C2683 H2667 0.959 . S
C2683 H2668 0.959 . S
C2683 H2669 0.961 . S
C2683 C2682 1.502 . S
C2684 H2670 0.960 . S
C2684 H2671 0.961 . S
C2684 H2672 0.959 . S
C2684 C2682 1.561 . S
C2685 C2682 1.526 . S
C2685 C2686 1.396 . S
C2685 C2690 1.390 . S
C2686 C2680 1.465 . S
C2686 C2685 1.396 . S
C2686 C2687 1.399 . S
C2687 H2673 0.929 . S
C2687 C2686 1.399 . S
C2687 C2688 1.385 . S
C2688 H2674 0.931 . S
C2688 C2687 1.385 . S
C2688 C2689 1.389 . S
C2689 C2688 1.389 . S
C2689 C2690 1.387 . S
C2690 H2675 0.930 . S
C2690 C2685 1.390 . S
C2690 C2689 1.387 . S
H2691 C2703 0.930 . S
H2692 C2705 0.930 . S
H2693 C2706 0.931 . S
H2694 C2710 0.959 1_655 S
H2695 C2710 0.959 . S
H2696 C2710 0.961 . S
H2697 C2711 0.960 . S
H2698 C2711 0.961 . S
H2699 C2711 0.959 . S
H2700 C2714 0.929 . S
H2701 C2715 0.931 . S
H2702 C2717 0.930 . S
C2703 H2691 0.930 . S
C2703 C2704 1.399 . S
C2703 C2708 1.399 . S
C2704 C2703 1.399 . S
C2704 C2705 1.376 . S
C2705 H2692 0.930 . S
C2705 C2704 1.376 . S
C2705 C2706 1.388 . S
C2706 H2693 0.931 . S
C2706 C2705 1.388 . S
C2706 C2707 1.390 . S
C2707 C2706 1.390 . S
C2707 C2708 1.394 . S
C2707 C2713 1.465 1_455 S
C2708 C2703 1.399 . S
C2708 C2707 1.394 . S
C2708 C2709 1.516 . S
C2709 C2708 1.516 . S
C2709 C2710 1.502 . S
C2709 C2711 1.561 . S
C2709 C2712 1.526 1_455 S
C2710 H2694 0.959 1_455 S
C2710 H2695 0.959 . S
C2710 H2696 0.961 . S
C2710 C2709 1.502 . S
C2711 H2697 0.960 . S
C2711 H2698 0.961 . S
C2711 H2699 0.959 . S
C2711 C2709 1.561 . S
C2712 C2709 1.526 1_655 S
C2712 C2713 1.396 . S
C2712 C2717 1.390 . S
C2713 C2707 1.465 1_655 S
C2713 C2712 1.396 . S
C2713 C2714 1.399 . S
C2714 H2700 0.929 . S
C2714 C2713 1.399 . S
C2714 C2715 1.385 . S
C2715 H2701 0.931 . S
C2715 C2714 1.385 . S
C2715 C2716 1.389 . S
C2716 C2715 1.389 . S
C2716 C2717 1.387 . S
C2717 H2702 0.930 . S
C2717 C2712 1.390 . S
C2717 C2716 1.387 . S
H2718 C2730 0.930 1_455 S
H2719 C2732 0.930 . S
H2720 C2733 0.930 . S
H2721 C2737 0.959 . S
H2722 C2737 0.959 . S
H2723 C2737 0.961 . S
H2724 C2738 0.960 . S
H2725 C2738 0.961 . S
H2726 C2738 0.959 . S
H2727 C2741 0.929 . S
H2728 C2742 0.931 . S
H2729 C2744 0.930 . S
C2730 H2718 0.930 1_655 S
C2730 C2731 1.399 . S
C2730 C2735 1.399 1_655 S
C2731 C2730 1.399 . S
C2731 C2732 1.376 . S
C2732 H2719 0.930 . S
C2732 C2731 1.376 . S
C2732 C2733 1.388 . S
C2733 H2720 0.930 . S
C2733 C2732 1.388 . S
C2733 C2734 1.390 1_655 S
C2734 C2733 1.390 1_455 S
C2734 C2735 1.394 . S
C2734 C2740 1.465 . S
C2735 C2730 1.399 1_455 S
C2735 C2734 1.394 . S
C2735 C2736 1.516 . S
C2736 C2735 1.516 . S
C2736 C2737 1.502 . S
C2736 C2738 1.561 . S
C2736 C2739 1.526 . S
C2737 H2721 0.959 . S
C2737 H2722 0.959 . S
C2737 H2723 0.961 . S
C2737 C2736 1.502 . S
C2738 H2724 0.960 . S
C2738 H2725 0.961 . S
C2738 H2726 0.959 . S
C2738 C2736 1.561 . S
C2739 C2736 1.526 . S
C2739 C2740 1.396 . S
C2739 C2744 1.390 . S
C2740 C2734 1.465 . S
C2740 C2739 1.396 . S
C2740 C2741 1.399 . S
C2741 H2727 0.929 . S
C2741 C2740 1.399 . S
C2741 C2742 1.385 . S
C2742 H2728 0.931 . S
C2742 C2741 1.385 . S
C2742 C2743 1.389 . S
C2743 C2742 1.389 . S
C2743 C2744 1.387 . S
C2744 H2729 0.930 . S
C2744 C2739 1.390 . S
C2744 C2743 1.387 . S
H2745 C2757 0.930 . S
H2746 C2759 0.930 . S
H2747 C2760 0.930 . S
H2748 C2764 0.959 . S
H2749 C2764 0.959 . S
H2750 C2764 0.961 . S
H2751 C2765 0.960 . S
H2752 C2765 0.961 . S
H2753 C2765 0.959 . S
H2754 C2768 0.929 . S
H2755 C2769 0.931 . S
H2756 C2771 0.930 . S
C2757 H2745 0.930 . S
C2757 C2758 1.399 . S
C2757 C2762 1.399 . S
C2758 C2757 1.399 . S
C2758 C2759 1.376 . S
C2759 H2746 0.930 . S
C2759 C2758 1.376 . S
C2759 C2760 1.388 . S
C2760 H2747 0.930 . S
C2760 C2759 1.388 . S
C2760 C2761 1.390 . S
C2761 C2760 1.390 . S
C2761 C2762 1.394 . S
C2761 C2767 1.465 . S
C2762 C2757 1.399 . S
C2762 C2761 1.394 . S
C2762 C2763 1.516 . S
C2763 C2762 1.516 . S
C2763 C2764 1.502 . S
C2763 C2765 1.561 . S
C2763 C2766 1.526 . S
C2764 H2748 0.959 . S
C2764 H2749 0.959 . S
C2764 H2750 0.961 . S
C2764 C2763 1.502 . S
C2765 H2751 0.960 . S
C2765 H2752 0.961 . S
C2765 H2753 0.959 . S
C2765 C2763 1.561 . S
C2766 C2763 1.526 . S
C2766 C2767 1.396 . S
C2766 C2771 1.390 . S
C2767 C2761 1.465 . S
C2767 C2766 1.396 . S
C2767 C2768 1.399 . S
C2768 H2754 0.929 . S
C2768 C2767 1.399 . S
C2768 C2769 1.385 . S
C2769 H2755 0.931 . S
C2769 C2768 1.385 . S
C2769 C2770 1.389 . S
C2770 C2769 1.389 . S
C2770 C2771 1.387 . S
C2771 H2756 0.930 . S
C2771 C2766 1.390 . S
C2771 C2770 1.387 . S
H2772 C2784 0.930 . S
H2773 C2786 0.930 . S
H2774 C2787 0.930 . S
H2775 C2791 0.959 . S
H2776 C2791 0.959 . S
H2777 C2791 0.961 . S
H2778 C2792 0.960 . S
H2779 C2792 0.961 . S
H2780 C2792 0.959 . S
H2781 C2795 0.929 . S
H2782 C2796 0.931 . S
H2783 C2798 0.930 . S
C2784 H2772 0.930 . S
C2784 C2785 1.399 . S
C2784 C2789 1.399 . S
C2785 C2784 1.399 . S
C2785 C2786 1.376 . S
C2786 H2773 0.930 . S
C2786 C2785 1.376 . S
C2786 C2787 1.388 . S
C2787 H2774 0.930 . S
C2787 C2786 1.388 . S
C2787 C2788 1.390 . S
C2788 C2787 1.390 . S
C2788 C2789 1.394 . S
C2788 C2794 1.465 . S
C2789 C2784 1.399 . S
C2789 C2788 1.394 . S
C2789 C2790 1.516 . S
C2790 C2789 1.516 . S
C2790 C2791 1.502 . S
C2790 C2792 1.561 . S
C2790 C2793 1.526 . S
C2791 H2775 0.959 . S
C2791 H2776 0.959 . S
C2791 H2777 0.961 . S
C2791 C2790 1.502 . S
C2792 H2778 0.960 . S
C2792 H2779 0.961 . S
C2792 H2780 0.959 . S
C2792 C2790 1.561 . S
C2793 C2790 1.526 . S
C2793 C2794 1.396 . S
C2793 C2798 1.390 . S
C2794 C2788 1.465 . S
C2794 C2793 1.396 . S
C2794 C2795 1.399 . S
C2795 H2781 0.929 . S
C2795 C2794 1.399 . S
C2795 C2796 1.385 . S
C2796 H2782 0.931 . S
C2796 C2795 1.385 . S
C2796 C2797 1.389 . S
C2797 C2796 1.389 . S
C2797 C2798 1.387 . S
C2798 H2783 0.930 . S
C2798 C2793 1.390 . S
C2798 C2797 1.387 . S
H2799 C2811 0.930 . S
H2800 C2813 0.930 . S
H2801 C2814 0.930 . S
H2802 C2818 0.959 . S
H2803 C2818 0.959 . S
H2804 C2818 0.961 . S
H2805 C2819 0.960 . S
H2806 C2819 0.961 . S
H2807 C2819 0.959 . S
H2808 C2822 0.929 . S
H2809 C2823 0.931 . S
H2810 C2825 0.930 . S
C2811 H2799 0.930 . S
C2811 C2812 1.399 . S
C2811 C2816 1.399 . S
C2812 C2811 1.399 . S
C2812 C2813 1.376 . S
C2813 H2800 0.930 . S
C2813 C2812 1.376 . S
C2813 C2814 1.388 . S
C2814 H2801 0.930 . S
C2814 C2813 1.388 . S
C2814 C2815 1.390 . S
C2815 C2814 1.390 . S
C2815 C2816 1.394 . S
C2815 C2821 1.465 . S
C2816 C2811 1.399 . S
C2816 C2815 1.394 . S
C2816 C2817 1.516 . S
C2817 C2816 1.516 . S
C2817 C2818 1.502 . S
C2817 C2819 1.561 . S
C2817 C2820 1.526 . S
C2818 H2802 0.959 . S
C2818 H2803 0.959 . S
C2818 H2804 0.961 . S
C2818 C2817 1.502 . S
C2819 H2805 0.960 . S
C2819 H2806 0.961 . S
C2819 H2807 0.959 . S
C2819 C2817 1.561 . S
C2820 C2817 1.526 . S
C2820 C2821 1.396 . S
C2820 C2825 1.390 . S
C2821 C2815 1.465 . S
C2821 C2820 1.396 . S
C2821 C2822 1.399 . S
C2822 H2808 0.929 . S
C2822 C2821 1.399 . S
C2822 C2823 1.385 . S
C2823 H2809 0.931 . S
C2823 C2822 1.385 . S
C2823 C2824 1.389 . S
C2824 C2823 1.389 . S
C2824 C2825 1.387 . S
C2825 H2810 0.930 . S
C2825 C2820 1.390 . S
C2825 C2824 1.387 . S
H2826 C2838 0.930 . S
H2827 C2840 0.930 . S
H2828 C2841 0.930 . S
H2829 C2845 0.959 . S
H2830 C2845 0.959 . S
H2831 C2845 0.961 . S
H2832 C2846 0.960 . S
H2833 C2846 0.961 . S
H2834 C2846 0.959 . S
H2835 C2849 0.929 . S
H2836 C2850 0.931 . S
H2837 C2852 0.930 . S
C2838 H2826 0.930 . S
C2838 C2839 1.399 . S
C2838 C2843 1.399 . S
C2839 C2838 1.399 . S
C2839 C2840 1.376 . S
C2840 H2827 0.930 . S
C2840 C2839 1.376 . S
C2840 C2841 1.388 . S
C2841 H2828 0.930 . S
C2841 C2840 1.388 . S
C2841 C2842 1.390 . S
C2842 C2841 1.390 . S
C2842 C2843 1.394 . S
C2842 C2848 1.465 . S
C2843 C2838 1.399 . S
C2843 C2842 1.394 . S
C2843 C2844 1.516 . S
C2844 C2843 1.516 . S
C2844 C2845 1.502 . S
C2844 C2846 1.561 . S
C2844 C2847 1.526 . S
C2845 H2829 0.959 . S
C2845 H2830 0.959 . S
C2845 H2831 0.961 . S
C2845 C2844 1.502 . S
C2846 H2832 0.960 . S
C2846 H2833 0.961 . S
C2846 H2834 0.959 . S
C2846 C2844 1.561 . S
C2847 C2844 1.526 . S
C2847 C2848 1.396 . S
C2847 C2852 1.390 . S
C2848 C2842 1.465 . S
C2848 C2847 1.396 . S
C2848 C2849 1.399 . S
C2849 H2835 0.929 . S
C2849 C2848 1.399 . S
C2849 C2850 1.385 . S
C2850 H2836 0.931 . S
C2850 C2849 1.385 . S
C2850 C2851 1.389 . S
C2851 C2850 1.389 . S
C2851 C2852 1.387 . S
C2852 H2837 0.930 . S
C2852 C2847 1.390 . S
C2852 C2851 1.387 . S
H2853 C2865 0.930 . S
H2854 C2867 0.930 . S
H2855 C2868 0.930 . S
H2856 C2872 0.959 . S
H2857 C2872 0.959 . S
H2858 C2872 0.961 1_556 S
H2859 C2873 0.960 . S
H2860 C2873 0.961 . S
H2861 C2873 0.972 . S
H2862 C2876 0.929 . S
H2863 C2877 0.931 . S
H2864 C2879 0.930 . S
C2865 H2853 0.930 . S
C2865 C2866 1.399 . S
C2865 C2870 1.399 . S
C2866 C2865 1.399 . S
C2866 C2867 1.376 . S
C2867 H2854 0.930 . S
C2867 C2866 1.376 . S
C2867 C2868 1.388 . S
C2868 H2855 0.930 . S
C2868 C2867 1.388 . S
C2868 C2869 1.390 . S
C2869 C2868 1.390 . S
C2869 C2870 1.394 . S
C2869 C2875 1.465 . S
C2870 C2865 1.399 . S
C2870 C2869 1.394 . S
C2870 C2871 1.516 . S
C2871 C2870 1.516 . S
C2871 C2872 1.502 1_556 S
C2871 C2873 1.561 . S
C2871 C2874 1.526 1_556 S
C2872 H2856 0.959 . S
C2872 H2857 0.959 . S
C2872 H2858 0.961 1_554 S
C2872 C2871 1.502 1_554 S
C2873 H2859 0.960 . S
C2873 H2860 0.961 . S
C2873 H2861 0.972 . S
C2873 C2871 1.561 . S
C2874 C2871 1.526 1_554 S
C2874 C2875 1.396 1_554 S
C2874 C2879 1.390 1_455 S
C2875 C2869 1.465 . S
C2875 C2874 1.396 1_556 S
C2875 C2876 1.399 1_455 S
C2876 H2862 0.929 . S
C2876 C2875 1.399 1_655 S
C2876 C2877 1.385 1_556 S
C2877 H2863 0.931 . S
C2877 C2876 1.385 1_554 S
C2877 C2878 1.389 . S
C2878 C2877 1.389 . S
C2878 C2879 1.387 . S
C2879 H2864 0.930 . S
C2879 C2874 1.390 1_655 S
C2879 C2878 1.387 . S
H2880 C2892 0.930 . S
H2881 C2894 0.930 . S
H2882 C2895 0.930 . S
H2883 C2899 0.959 . S
H2884 C2899 0.959 . S
H2885 C2899 0.961 . S
H2886 C2900 0.960 . S
H2887 C2900 0.961 . S
H2888 C2900 0.959 . S
H2889 C2903 0.929 . S
H2890 C2904 0.931 . S
H2891 C2906 0.930 . S
C2892 H2880 0.930 . S
C2892 C2893 1.399 . S
C2892 C2897 1.399 . S
C2893 C2892 1.399 . S
C2893 C2894 1.376 . S
C2894 H2881 0.930 . S
C2894 C2893 1.376 . S
C2894 C2895 1.388 . S
C2895 H2882 0.930 . S
C2895 C2894 1.388 . S
C2895 C2896 1.390 . S
C2896 C2895 1.390 . S
C2896 C2897 1.394 . S
C2896 C2902 1.465 . S
C2897 C2892 1.399 . S
C2897 C2896 1.394 . S
C2897 C2898 1.516 . S
C2898 C2897 1.516 . S
C2898 C2899 1.502 . S
C2898 C2900 1.561 . S
C2898 C2901 1.526 . S
C2899 H2883 0.959 . S
C2899 H2884 0.959 . S
C2899 H2885 0.961 . S
C2899 C2898 1.502 . S
C2900 H2886 0.960 . S
C2900 H2887 0.961 . S
C2900 H2888 0.959 . S
C2900 C2898 1.561 . S
C2901 C2898 1.526 . S
C2901 C2902 1.396 . S
C2901 C2906 1.390 . S
C2902 C2896 1.465 . S
C2902 C2901 1.396 . S
C2902 C2903 1.399 . S
C2903 H2889 0.929 . S
C2903 C2902 1.399 . S
C2903 C2904 1.385 . S
C2904 H2890 0.931 . S
C2904 C2903 1.385 . S
C2904 C2905 1.389 . S
C2905 C2904 1.389 . S
C2905 C2906 1.387 . S
C2906 H2891 0.930 . S
C2906 C2901 1.390 . S
C2906 C2905 1.387 . S
H2907 C2919 0.930 . S
H2908 C2921 0.930 . S
H2909 C2922 0.930 . S
H2910 C2926 0.959 . S
H2911 C2926 0.959 . S
H2912 C2926 0.961 . S
H2913 C2927 0.960 . S
H2914 C2927 0.961 . S
H2915 C2927 0.959 . S
H2916 C2930 0.929 . S
H2917 C2931 0.931 . S
H2918 C2933 0.930 . S
C2919 H2907 0.930 . S
C2919 C2920 1.399 . S
C2919 C2924 1.399 . S
C2920 C2919 1.399 . S
C2920 C2921 1.376 . S
C2921 H2908 0.930 . S
C2921 C2920 1.376 . S
C2921 C2922 1.388 . S
C2922 H2909 0.930 . S
C2922 C2921 1.388 . S
C2922 C2923 1.390 . S
C2923 C2922 1.390 . S
C2923 C2924 1.394 . S
C2923 C2929 1.465 . S
C2924 C2919 1.399 . S
C2924 C2923 1.394 . S
C2924 C2925 1.516 . S
C2925 C2924 1.516 . S
C2925 C2926 1.502 . S
C2925 C2927 1.561 . S
C2925 C2928 1.526 . S
C2926 H2910 0.959 . S
C2926 H2911 0.959 . S
C2926 H2912 0.961 . S
C2926 C2925 1.502 . S
C2927 H2913 0.960 . S
C2927 H2914 0.961 . S
C2927 H2915 0.959 . S
C2927 C2925 1.561 . S
C2928 C2925 1.526 . S
C2928 C2929 1.396 . S
C2928 C2933 1.390 . S
C2929 C2923 1.465 . S
C2929 C2928 1.396 . S
C2929 C2930 1.399 . S
C2930 H2916 0.929 . S
C2930 C2929 1.399 . S
C2930 C2931 1.385 . S
C2931 H2917 0.931 . S
C2931 C2930 1.385 . S
C2931 C2932 1.389 . S
C2932 C2931 1.389 . S
C2932 C2933 1.387 . S
C2933 H2918 0.930 . S
C2933 C2928 1.390 . S
C2933 C2932 1.387 . S
H2934 C2946 0.930 . S
H2935 C2948 0.930 . S
H2936 C2949 0.930 . S
H2937 C2953 0.959 . S
H2938 C2953 0.959 . S
H2939 C2953 0.961 . S
H2940 C2954 0.960 . S
H2941 C2954 0.961 . S
H2942 C2954 0.959 . S
H2943 C2957 0.929 . S
H2944 C2958 0.931 . S
H2945 C2960 0.930 . S
C2946 H2934 0.930 . S
C2946 C2947 1.399 . S
C2946 C2951 1.399 . S
C2947 C2946 1.399 . S
C2947 C2948 1.376 . S
C2948 H2935 0.930 . S
C2948 C2947 1.376 . S
C2948 C2949 1.388 1_545 S
C2949 H2936 0.930 . S
C2949 C2948 1.388 1_565 S
C2949 C2950 1.390 . S
C2950 C2949 1.390 . S
C2950 C2951 1.394 1_565 S
C2950 C2956 1.465 . S
C2951 C2946 1.399 . S
C2951 C2950 1.394 1_545 S
C2951 C2952 1.516 . S
C2952 C2951 1.516 . S
C2952 C2953 1.502 . S
C2952 C2954 1.561 . S
C2952 C2955 1.526 1_545 S
C2953 H2937 0.959 . S
C2953 H2938 0.959 . S
C2953 H2939 0.961 . S
C2953 C2952 1.502 . S
C2954 H2940 0.960 . S
C2954 H2941 0.961 . S
C2954 H2942 0.959 . S
C2954 C2952 1.561 . S
C2955 C2952 1.526 1_565 S
C2955 C2956 1.396 . S
C2955 C2960 1.390 . S
C2956 C2950 1.465 . S
C2956 C2955 1.396 . S
C2956 C2957 1.399 . S
C2957 H2943 0.929 . S
C2957 C2956 1.399 . S
C2957 C2958 1.385 . S
C2958 H2944 0.931 . S
C2958 C2957 1.385 . S
C2958 C2959 1.389 . S
C2959 C2958 1.389 . S
C2959 C2960 1.387 . S
C2960 H2945 0.930 . S
C2960 C2955 1.390 . S
C2960 C2959 1.387 . S
H2961 C2973 0.930 . S
H2962 C2975 0.930 . S
H2963 C2976 0.930 . S
H2964 C2980 0.959 . S
H2965 C2980 0.959 . S
H2966 C2980 0.961 . S
H2967 C2981 0.960 . S
H2968 C2981 0.961 . S
H2969 C2981 0.959 . S
H2970 C2984 0.929 . S
H2971 C2985 0.931 . S
H2972 C2987 0.930 . S
C2973 H2961 0.930 . S
C2973 C2974 1.399 . S
C2973 C2978 1.399 . S
C2974 C2973 1.399 . S
C2974 C2975 1.376 . S
C2975 H2962 0.930 . S
C2975 C2974 1.376 . S
C2975 C2976 1.388 . S
C2976 H2963 0.930 . S
C2976 C2975 1.388 . S
C2976 C2977 1.390 . S
C2977 C2976 1.390 . S
C2977 C2978 1.394 . S
C2977 C2983 1.465 . S
C2978 C2973 1.399 . S
C2978 C2977 1.394 . S
C2978 C2979 1.516 . S
C2979 C2978 1.516 . S
C2979 C2980 1.502 . S
C2979 C2981 1.561 . S
C2979 C2982 1.526 . S
C2980 H2964 0.959 . S
C2980 H2965 0.959 . S
C2980 H2966 0.961 . S
C2980 C2979 1.502 . S
C2981 H2967 0.960 . S
C2981 H2968 0.961 . S
C2981 H2969 0.959 . S
C2981 C2979 1.561 . S
C2982 C2979 1.526 . S
C2982 C2983 1.396 . S
C2982 C2987 1.390 . S
C2983 C2977 1.465 . S
C2983 C2982 1.396 . S
C2983 C2984 1.399 . S
C2984 H2970 0.929 . S
C2984 C2983 1.399 . S
C2984 C2985 1.385 . S
C2985 H2971 0.931 . S
C2985 C2984 1.385 . S
C2985 C2986 1.389 . S
C2986 C2985 1.389 . S
C2986 C2987 1.387 . S
C2987 H2972 0.930 . S
C2987 C2982 1.390 . S
C2987 C2986 1.387 . S
H2988 C3000 0.930 . S
H2989 C3002 0.930 . S
H2990 C3003 0.930 . S
H2991 C3007 0.959 . S
H2992 C3007 0.959 . S
H2993 C3007 0.961 . S
H2994 C3008 0.960 . S
H2995 C3008 0.961 . S
H2996 C3008 0.959 . S
H2997 C3011 0.929 . S
H2998 C3012 0.931 . S
H2999 C3014 0.930 . S
C3000 H2988 0.930 . S
C3000 C3001 1.399 . S
C3000 C3005 1.399 . S
C3001 C3000 1.399 . S
C3001 C3002 1.376 . S
C3002 H2989 0.930 . S
C3002 C3001 1.376 . S
C3002 C3003 1.388 . S
C3003 H2990 0.930 . S
C3003 C3002 1.388 . S
C3003 C3004 1.390 . S
C3004 C3003 1.390 . S
C3004 C3005 1.394 . S
C3004 C3010 1.465 . S
C3005 C3000 1.399 . S
C3005 C3004 1.394 . S
C3005 C3006 1.516 1_554 S
C3006 C3005 1.516 1_556 S
C3006 C3007 1.502 . S
C3006 C3008 1.561 . S
C3006 C3009 1.526 . S
C3007 H2991 0.959 . S
C3007 H2992 0.959 . S
C3007 H2993 0.961 . S
C3007 C3006 1.502 . S
C3008 H2994 0.960 . S
C3008 H2995 0.961 . S
C3008 H2996 0.959 . S
C3008 C3006 1.561 . S
C3009 C3006 1.526 . S
C3009 C3010 1.396 1_556 S
C3009 C3014 1.390 . S
C3010 C3004 1.465 . S
C3010 C3009 1.396 1_554 S
C3010 C3011 1.399 . S
C3011 H2997 0.929 . S
C3011 C3010 1.399 . S
C3011 C3012 1.385 1_554 S
C3012 H2998 0.931 . S
C3012 C3011 1.385 1_556 S
C3012 C3013 1.389 . S
C3013 C3012 1.389 . S
C3013 C3014 1.387 . S
C3014 H2999 0.930 . S
C3014 C3009 1.390 . S
C3014 C3013 1.387 . S
H3015 C3027 0.930 . S
H3016 C3029 0.930 . S
H3017 C3030 0.930 . S
H3018 C3034 0.959 . S
H3019 C3034 0.959 . S
H3020 C3034 0.961 . S
H3021 C3035 0.960 . S
H3022 C3035 0.961 . S
H3023 C3035 0.959 . S
H3024 C3038 0.929 . S
H3025 C3039 0.931 . S
H3026 C3041 0.930 . S
C3027 H3015 0.930 . S
C3027 C3028 1.399 . S
C3027 C3032 1.399 . S
C3028 C3027 1.399 . S
C3028 C3029 1.376 . S
C3029 H3016 0.930 . S
C3029 C3028 1.376 . S
C3029 C3030 1.388 . S
C3030 H3017 0.930 . S
C3030 C3029 1.388 . S
C3030 C3031 1.390 . S
C3031 C3030 1.390 . S
C3031 C3032 1.394 . S
C3031 C3037 1.465 . S
C3032 C3027 1.399 . S
C3032 C3031 1.394 . S
C3032 C3033 1.516 . S
C3033 C3032 1.516 . S
C3033 C3034 1.502 . S
C3033 C3035 1.561 . S
C3033 C3036 1.526 . S
C3034 H3018 0.959 . S
C3034 H3019 0.959 . S
C3034 H3020 0.961 . S
C3034 C3033 1.502 . S
C3035 H3021 0.960 . S
C3035 H3022 0.961 . S
C3035 H3023 0.959 . S
C3035 C3033 1.561 . S
C3036 C3033 1.526 . S
C3036 C3037 1.396 . S
C3036 C3041 1.390 . S
C3037 C3031 1.465 . S
C3037 C3036 1.396 . S
C3037 C3038 1.399 . S
C3038 H3024 0.929 . S
C3038 C3037 1.399 . S
C3038 C3039 1.385 . S
C3039 H3025 0.931 . S
C3039 C3038 1.385 . S
C3039 C3040 1.389 . S
C3040 C3039 1.389 . S
C3040 C3041 1.387 . S
C3041 H3026 0.930 . S
C3041 C3036 1.390 . S
C3041 C3040 1.387 . S
H3042 C3054 0.930 . S
H3043 C3056 0.930 . S
H3044 C3057 0.930 . S
H3045 C3061 0.959 . S
H3046 C3061 0.959 . S
H3047 C3061 0.961 . S
H3048 C3062 0.960 . S
H3049 C3062 0.961 . S
H3050 C3062 0.959 . S
H3051 C3065 0.929 1_655 S
H3052 C3066 0.931 . S
H3053 C3068 0.930 . S
C3054 H3042 0.930 . S
C3054 C3055 1.399 . S
C3054 C3059 1.399 . S
C3055 C3054 1.399 . S
C3055 C3056 1.376 . S
C3056 H3043 0.930 . S
C3056 C3055 1.376 . S
C3056 C3057 1.388 1_545 S
C3057 H3044 0.930 . S
C3057 C3056 1.388 1_565 S
C3057 C3058 1.390 . S
C3058 C3057 1.390 . S
C3058 C3059 1.394 1_565 S
C3058 C3064 1.465 . S
C3059 C3054 1.399 . S
C3059 C3058 1.394 1_545 S
C3059 C3060 1.558 1_545 S
C3060 C3059 1.558 1_565 S
C3060 C3061 1.464 1_665 S
C3060 C3062 1.586 . S
C3060 C3063 1.503 1_655 S
C3061 H3045 0.959 . S
C3061 H3046 0.959 . S
C3061 H3047 0.961 . S
C3061 C3060 1.464 1_445 S
C3062 H3048 0.960 . S
C3062 H3049 0.961 . S
C3062 H3050 0.959 . S
C3062 C3060 1.586 . S
C3063 C3060 1.503 1_455 S
C3063 C3064 1.396 1_455 S
C3063 C3068 1.390 . S
C3064 C3058 1.465 . S
C3064 C3063 1.396 1_655 S
C3064 C3065 1.399 1_655 S
C3065 H3051 0.929 1_455 S
C3065 C3064 1.399 1_455 S
C3065 C3066 1.385 . S
C3066 H3052 0.931 . S
C3066 C3065 1.385 . S
C3066 C3067 1.389 . S
C3067 C3066 1.389 . S
C3067 C3068 1.387 . S
C3068 H3053 0.930 . S
C3068 C3063 1.390 . S
C3068 C3067 1.387 . S
H3069 C3081 0.930 . S
H3070 C3083 0.930 . S
H3071 C3084 0.930 . S
H3072 C3088 0.959 . S
H3073 C3088 0.959 . S
H3074 C3088 0.961 . S
H3075 C3089 0.960 . S
H3076 C3089 0.961 . S
H3077 C3089 0.959 . S
H3078 C3092 0.929 . S
H3079 C3093 0.931 . S
H3080 C3095 0.930 . S
C3081 H3069 0.930 . S
C3081 C3082 1.399 . S
C3081 C3086 1.399 . S
C3082 C3081 1.399 . S
C3082 C3083 1.376 . S
C3083 H3070 0.930 . S
C3083 C3082 1.376 . S
C3083 C3084 1.388 . S
C3084 H3071 0.930 . S
C3084 C3083 1.388 . S
C3084 C3085 1.390 . S
C3085 C3084 1.390 . S
C3085 C3086 1.394 . S
C3085 C3091 1.465 . S
C3086 C3081 1.399 . S
C3086 C3085 1.394 . S
C3086 C3087 1.516 . S
C3087 C3086 1.516 . S
C3087 C3088 1.502 . S
C3087 C3089 1.561 . S
C3087 C3090 1.526 . S
C3088 H3072 0.959 . S
C3088 H3073 0.959 . S
C3088 H3074 0.961 . S
C3088 C3087 1.502 . S
C3089 H3075 0.960 . S
C3089 H3076 0.961 . S
C3089 H3077 0.959 . S
C3089 C3087 1.561 . S
C3090 C3087 1.526 . S
C3090 C3091 1.396 . S
C3090 C3095 1.390 . S
C3091 C3085 1.465 . S
C3091 C3090 1.396 . S
C3091 C3092 1.399 . S
C3092 H3078 0.929 . S
C3092 C3091 1.399 . S
C3092 C3093 1.385 . S
C3093 H3079 0.931 . S
C3093 C3092 1.385 . S
C3093 C3094 1.389 . S
C3094 C3093 1.389 . S
C3094 C3095 1.387 . S
C3095 H3080 0.930 . S
C3095 C3090 1.390 . S
C3095 C3094 1.387 . S
H3096 C3108 0.930 . S
H3097 C3110 0.930 . S
H3098 C3111 0.930 . S
H3099 C3115 0.959 . S
H3100 C3115 0.959 . S
H3101 C3115 0.961 . S
H3102 C3116 0.960 . S
H3103 C3116 0.961 . S
H3104 C3116 0.959 . S
H3105 C3119 0.929 . S
H3106 C3120 0.931 . S
H3107 C3122 0.930 . S
C3108 H3096 0.930 . S
C3108 C3109 1.399 . S
C3108 C3113 1.399 . S
C3109 C3108 1.399 . S
C3109 C3110 1.376 . S
C3110 H3097 0.930 . S
C3110 C3109 1.376 . S
C3110 C3111 1.388 . S
C3111 H3098 0.930 . S
C3111 C3110 1.388 . S
C3111 C3112 1.390 . S
C3112 C3111 1.390 . S
C3112 C3113 1.394 . S
C3112 C3118 1.465 . S
C3113 C3108 1.399 . S
C3113 C3112 1.394 . S
C3113 C3114 1.516 . S
C3114 C3113 1.516 . S
C3114 C3115 1.502 . S
C3114 C3116 1.561 . S
C3114 C3117 1.526 . S
C3115 H3099 0.959 . S
C3115 H3100 0.959 . S
C3115 H3101 0.961 . S
C3115 C3114 1.502 . S
C3116 H3102 0.960 . S
C3116 H3103 0.961 . S
C3116 H3104 0.959 . S
C3116 C3114 1.561 . S
C3117 C3114 1.526 . S
C3117 C3118 1.396 . S
C3117 C3122 1.390 . S
C3118 C3112 1.465 . S
C3118 C3117 1.396 . S
C3118 C3119 1.399 . S
C3119 H3105 0.929 . S
C3119 C3118 1.399 . S
C3119 C3120 1.385 . S
C3120 H3106 0.931 . S
C3120 C3119 1.385 . S
C3120 C3121 1.389 . S
C3121 C3120 1.389 . S
C3121 C3122 1.387 . S
C3122 H3107 0.930 . S
C3122 C3117 1.390 . S
C3122 C3121 1.387 . S
H3123 C3135 0.930 . S
H3124 C3137 0.930 . S
H3125 C3138 0.930 . S
H3126 C3142 0.959 . S
H3127 C3142 0.959 . S
H3128 C3142 0.961 1_545 S
H3129 C3143 0.960 . S
H3130 C3143 0.961 . S
H3131 C3143 0.959 . S
H3132 C3146 0.929 . S
H3133 C3147 0.931 . S
H3134 C3149 0.930 . S
C3135 H3123 0.930 . S
C3135 C3136 1.399 . S
C3135 C3140 1.399 . S
C3136 C3135 1.399 . S
C3136 C3137 1.376 . S
C3137 H3124 0.930 . S
C3137 C3136 1.376 . S
C3137 C3138 1.388 . S
C3138 H3125 0.930 . S
C3138 C3137 1.388 . S
C3138 C3139 1.390 . S
C3139 C3138 1.390 . S
C3139 C3140 1.394 . S
C3139 C3145 1.465 . S
C3140 C3135 1.399 . S
C3140 C3139 1.394 . S
C3140 C3141 1.516 . S
C3141 C3140 1.516 . S
C3141 C3142 1.502 1_545 S
C3141 C3143 1.561 . S
C3141 C3144 1.526 1_545 S
C3142 H3126 0.959 . S
C3142 H3127 0.959 . S
C3142 H3128 0.961 1_565 S
C3142 C3141 1.502 1_565 S
C3143 H3129 0.960 . S
C3143 H3130 0.961 . S
C3143 H3131 0.959 . S
C3143 C3141 1.561 . S
C3144 C3141 1.526 1_565 S
C3144 C3145 1.396 1_565 S
C3144 C3149 1.390 . S
C3145 C3139 1.465 . S
C3145 C3144 1.396 1_545 S
C3145 C3146 1.399 1_545 S
C3146 H3132 0.929 . S
C3146 C3145 1.399 1_565 S
C3146 C3147 1.385 . S
C3147 H3133 0.931 . S
C3147 C3146 1.385 . S
C3147 C3148 1.389 . S
C3148 C3147 1.389 . S
C3148 C3149 1.387 . S
C3149 H3134 0.930 . S
C3149 C3144 1.390 . S
C3149 C3148 1.387 . S
H3150 C3162 0.930 . S
H3151 C3164 0.930 . S
H3152 C3165 0.930 . S
H3153 C3169 0.959 . S
H3154 C3169 0.959 . S
H3155 C3169 0.961 . S
H3156 C3170 0.960 . S
H3157 C3170 0.961 . S
H3158 C3170 0.959 . S
H3159 C3173 0.929 . S
H3160 C3174 0.931 . S
H3161 C3176 0.930 . S
C3162 H3150 0.930 . S
C3162 C3163 1.399 . S
C3162 C3167 1.399 . S
C3163 C3162 1.399 . S
C3163 C3164 1.376 . S
C3164 H3151 0.930 . S
C3164 C3163 1.376 . S
C3164 C3165 1.388 . S
C3165 H3152 0.930 . S
C3165 C3164 1.388 . S
C3165 C3166 1.390 . S
C3166 C3165 1.390 . S
C3166 C3167 1.394 . S
C3166 C3172 1.465 . S
C3167 C3162 1.399 . S
C3167 C3166 1.394 . S
C3167 C3168 1.516 . S
C3168 C3167 1.516 . S
C3168 C3169 1.502 . S
C3168 C3170 1.561 . S
C3168 C3171 1.526 . S
C3169 H3153 0.959 . S
C3169 H3154 0.959 . S
C3169 H3155 0.961 . S
C3169 C3168 1.502 . S
C3170 H3156 0.960 . S
C3170 H3157 0.961 . S
C3170 H3158 0.959 . S
C3170 C3168 1.561 . S
C3171 C3168 1.526 . S
C3171 C3172 1.396 . S
C3171 C3176 1.390 . S
C3172 C3166 1.465 . S
C3172 C3171 1.396 . S
C3172 C3173 1.399 . S
C3173 H3159 0.929 . S
C3173 C3172 1.399 . S
C3173 C3174 1.385 . S
C3174 H3160 0.931 . S
C3174 C3173 1.385 . S
C3174 C3175 1.389 . S
C3175 C3174 1.389 . S
C3175 C3176 1.387 . S
C3176 H3161 0.930 . S
C3176 C3171 1.390 . S
C3176 C3175 1.387 . S
H3177 C3189 0.930 . S
H3178 C3191 0.930 . S
H3179 C3192 0.930 . S
H3180 C3196 0.959 . S
H3181 C3196 0.959 . S
H3182 C3196 0.921 1_455 S
H3183 C3197 0.960 . S
H3184 C3197 0.961 . S
H3185 C3197 0.959 . S
H3186 C3200 0.929 . S
H3187 C3201 0.931 . S
H3188 C3203 0.930 . S
C3189 H3177 0.930 . S
C3189 C3190 1.399 . S
C3189 C3194 1.399 . S
C3190 C3189 1.399 . S
C3190 C3191 1.376 . S
C3191 H3178 0.930 . S
C3191 C3190 1.376 . S
C3191 C3192 1.388 . S
C3192 H3179 0.930 . S
C3192 C3191 1.388 . S
C3192 C3193 1.390 1_455 S
C3193 C3192 1.390 1_655 S
C3193 C3194 1.394 1_655 S
C3193 C3199 1.465 . S
C3194 C3189 1.399 . S
C3194 C3193 1.394 1_455 S
C3194 C3195 1.516 1_455 S
C3195 C3194 1.516 1_655 S
C3195 C3196 1.502 . S
C3195 C3197 1.561 . S
C3195 C3198 1.526 . S
C3196 H3180 0.959 . S
C3196 H3181 0.959 . S
C3196 H3182 0.921 1_655 S
C3196 C3195 1.502 . S
C3197 H3183 0.960 . S
C3197 H3184 0.961 . S
C3197 H3185 0.959 . S
C3197 C3195 1.561 . S
C3198 C3195 1.526 . S
C3198 C3199 1.396 . S
C3198 C3203 1.390 . S
C3199 C3193 1.465 . S
C3199 C3198 1.396 . S
C3199 C3200 1.399 . S
C3200 H3186 0.929 . S
C3200 C3199 1.399 . S
C3200 C3201 1.385 . S
C3201 H3187 0.931 . S
C3201 C3200 1.385 . S
C3201 C3202 1.389 . S
C3202 C3201 1.389 . S
C3202 C3203 1.387 . S
C3203 H3188 0.930 . S
C3203 C3198 1.390 . S
C3203 C3202 1.387 . S
H3204 C3216 0.930 . S
H3205 C3218 0.930 . S
H3206 C3219 0.930 . S
H3207 C3223 0.959 . S
H3208 C3223 0.959 1_455 S
H3209 C3223 0.961 . S
H3210 C3224 0.960 . S
H3211 C3224 0.961 . S
H3212 C3224 0.959 . S
H3213 C3227 0.929 . S
H3214 C3228 0.931 . S
H3215 C3230 0.930 . S
C3216 H3204 0.930 . S
C3216 C3217 1.399 . S
C3216 C3221 1.399 . S
C3217 C3216 1.399 . S
C3217 C3218 1.376 . S
C3218 H3205 0.930 . S
C3218 C3217 1.376 . S
C3218 C3219 1.388 . S
C3219 H3206 0.930 . S
C3219 C3218 1.388 . S
C3219 C3220 1.387 1_655 S
C3220 C3219 1.387 1_455 S
C3220 C3221 1.393 1_455 S
C3220 C3226 1.469 . S
C3221 C3216 1.399 . S
C3221 C3220 1.393 1_655 S
C3221 C3222 1.516 1_655 S
C3222 C3221 1.516 1_455 S
C3222 C3223 1.502 1_455 S
C3222 C3224 1.561 . S
C3222 C3225 1.526 . S
C3223 H3207 0.959 . S
C3223 H3208 0.959 1_655 S
C3223 H3209 0.961 . S
C3223 C3222 1.502 1_655 S
C3224 H3210 0.960 . S
C3224 H3211 0.961 . S
C3224 H3212 0.959 . S
C3224 C3222 1.561 . S
C3225 C3222 1.526 . S
C3225 C3226 1.396 . S
C3225 C3230 1.390 . S
C3226 C3220 1.469 . S
C3226 C3225 1.396 . S
C3226 C3227 1.399 . S
C3227 H3213 0.929 . S
C3227 C3226 1.399 . S
C3227 C3228 1.385 . S
C3228 H3214 0.931 . S
C3228 C3227 1.385 . S
C3228 C3229 1.389 . S
C3229 C3228 1.389 . S
C3229 C3230 1.387 . S
C3230 H3215 0.930 . S
C3230 C3225 1.390 . S
C3230 C3229 1.387 . S
H3231 C3243 0.930 . S
H3232 C3245 0.930 . S
H3233 C3246 0.930 . S
H3234 C3250 0.959 . S
H3235 C3250 0.959 . S
H3236 C3250 0.961 . S
H3237 C3251 0.960 . S
H3238 C3251 0.961 . S
H3239 C3251 0.959 . S
H3240 C3254 0.929 . S
H3241 C3255 0.931 . S
H3242 C3257 0.930 . S
C3243 H3231 0.930 . S
C3243 C3244 1.399 . S
C3243 C3248 1.399 . S
C3244 C3243 1.399 . S
C3244 C3245 1.376 . S
C3245 H3232 0.930 . S
C3245 C3244 1.376 . S
C3245 C3246 1.388 . S
C3246 H3233 0.930 . S
C3246 C3245 1.388 . S
C3246 C3247 1.390 . S
C3247 C3246 1.390 . S
C3247 C3248 1.394 . S
C3247 C3253 1.465 . S
C3248 C3243 1.399 . S
C3248 C3247 1.394 . S
C3248 C3249 1.516 . S
C3249 C3248 1.516 . S
C3249 C3250 1.502 . S
C3249 C3251 1.561 . S
C3249 C3252 1.526 . S
C3250 H3234 0.959 . S
C3250 H3235 0.959 . S
C3250 H3236 0.961 . S
C3250 C3249 1.502 . S
C3251 H3237 0.960 . S
C3251 H3238 0.961 . S
C3251 H3239 0.959 . S
C3251 C3249 1.561 . S
C3252 C3249 1.526 . S
C3252 C3253 1.396 . S
C3252 C3257 1.390 . S
C3253 C3247 1.465 . S
C3253 C3252 1.396 . S
C3253 C3254 1.399 . S
C3254 H3240 0.929 . S
C3254 C3253 1.399 . S
C3254 C3255 1.385 . S
C3255 H3241 0.931 . S
C3255 C3254 1.385 . S
C3255 C3256 1.389 . S
C3256 C3255 1.389 . S
C3256 C3257 1.387 . S
C3257 H3242 0.930 . S
C3257 C3252 1.390 . S
C3257 C3256 1.387 . S
H3258 C3270 0.930 . S
H3259 C3272 0.930 . S
H3260 C3273 0.930 . S
H3261 C3277 0.959 . S
H3262 C3277 0.959 . S
H3263 C3277 0.961 . S
H3264 C3278 0.960 . S
H3265 C3278 0.961 . S
H3266 C3278 0.959 . S
H3267 C3281 0.929 . S
H3268 C3282 0.931 . S
H3269 C3284 0.930 . S
C3270 H3258 0.930 . S
C3270 C3271 1.399 . S
C3270 C3275 1.399 . S
C3271 C3270 1.399 . S
C3271 C3272 1.376 . S
C3272 H3259 0.930 . S
C3272 C3271 1.376 . S
C3272 C3273 1.388 . S
C3273 H3260 0.930 . S
C3273 C3272 1.388 . S
C3273 C3274 1.390 . S
C3274 C3273 1.390 . S
C3274 C3275 1.394 . S
C3274 C3280 1.465 . S
C3275 C3270 1.399 . S
C3275 C3274 1.394 . S
C3275 C3276 1.516 . S
C3276 C3275 1.516 . S
C3276 C3277 1.502 . S
C3276 C3278 1.561 . S
C3276 C3279 1.526 . S
C3277 H3261 0.959 . S
C3277 H3262 0.959 . S
C3277 H3263 0.961 . S
C3277 C3276 1.502 . S
C3278 H3264 0.960 . S
C3278 H3265 0.961 . S
C3278 H3266 0.959 . S
C3278 C3276 1.561 . S
C3279 C3276 1.526 . S
C3279 C3280 1.396 . S
C3279 C3284 1.390 . S
C3280 C3274 1.465 . S
C3280 C3279 1.396 . S
C3280 C3281 1.399 . S
C3281 H3267 0.929 . S
C3281 C3280 1.399 . S
C3281 C3282 1.385 . S
C3282 H3268 0.931 . S
C3282 C3281 1.385 . S
C3282 C3283 1.389 . S
C3283 C3282 1.389 . S
C3283 C3284 1.387 . S
C3284 H3269 0.930 . S
C3284 C3279 1.390 . S
C3284 C3283 1.387 . S
H3285 C3297 0.930 . S
H3286 C3299 0.930 . S
H3287 C3300 0.930 . S
H3288 C3304 0.959 . S
H3289 C3304 0.959 . S
H3290 C3304 0.961 . S
H3291 C3305 0.960 . S
H3292 C3305 0.961 . S
H3293 C3305 0.959 1_455 S
H3294 C3308 0.929 . S
H3295 C3309 0.928 1_554 S
H3296 C3311 0.930 . S
C3297 H3285 0.930 . S
C3297 C3298 1.399 . S
C3297 C3302 1.399 . S
C3298 C3297 1.399 . S
C3298 C3299 1.376 . S
C3299 H3286 0.930 . S
C3299 C3298 1.376 . S
C3299 C3300 1.388 1_655 S
C3300 H3287 0.930 . S
C3300 C3299 1.388 1_455 S
C3300 C3301 1.390 . S
C3301 C3300 1.390 . S
C3301 C3302 1.394 1_455 S
C3301 C3307 1.465 . S
C3302 C3297 1.399 . S
C3302 C3301 1.394 1_655 S
C3302 C3303 1.516 1_654 S
C3303 C3302 1.516 1_456 S
C3303 C3304 1.502 1_455 S
C3303 C3305 1.561 1_455 S
C3303 C3306 1.526 . S
C3304 H3288 0.959 . S
C3304 H3289 0.959 . S
C3304 H3290 0.961 . S
C3304 C3303 1.502 1_655 S
C3305 H3291 0.960 . S
C3305 H3292 0.961 . S
C3305 H3293 0.959 1_655 S
C3305 C3303 1.561 1_655 S
C3306 C3303 1.526 . S
C3306 C3307 1.396 1_556 S
C3306 C3311 1.390 . S
C3307 C3301 1.465 . S
C3307 C3306 1.396 1_554 S
C3307 C3308 1.399 . S
C3308 H3294 0.929 . S
C3308 C3307 1.399 . S
C3308 C3309 1.376 1_554 S
C3309 H3295 0.928 1_556 S
C3309 C3308 1.376 1_556 S
C3309 C3310 1.402 . S
C3310 C3309 1.402 . S
C3310 C3311 1.387 . S
C3311 H3296 0.930 . S
C3311 C3306 1.390 . S
C3311 C3310 1.387 . S
H3312 C3324 0.930 . S
H3313 C3326 0.930 . S
H3314 C3327 0.930 . S
H3315 C3331 0.959 . S
H3316 C3331 0.959 . S
H3317 C3331 0.961 . S
H3318 C3332 0.960 . S
H3319 C3332 0.961 . S
H3320 C3332 0.959 . S
H3321 C3335 0.929 . S
H3322 C3336 0.931 . S
H3323 C3338 0.930 . S
C3324 H3312 0.930 . S
C3324 C3325 1.399 . S
C3324 C3329 1.399 . S
C3325 C3324 1.399 . S
C3325 C3326 1.376 . S
C3326 H3313 0.930 . S
C3326 C3325 1.376 . S
C3326 C3327 1.388 . S
C3327 H3314 0.930 . S
C3327 C3326 1.388 . S
C3327 C3328 1.390 . S
C3328 C3327 1.390 . S
C3328 C3329 1.394 . S
C3328 C3334 1.465 . S
C3329 C3324 1.399 . S
C3329 C3328 1.394 . S
C3329 C3330 1.516 . S
C3330 C3329 1.516 . S
C3330 C3331 1.502 . S
C3330 C3332 1.561 . S
C3330 C3333 1.526 . S
C3331 H3315 0.959 . S
C3331 H3316 0.959 . S
C3331 H3317 0.961 . S
C3331 C3330 1.502 . S
C3332 H3318 0.960 . S
C3332 H3319 0.961 . S
C3332 H3320 0.959 . S
C3332 C3330 1.561 . S
C3333 C3330 1.526 . S
C3333 C3334 1.396 . S
C3333 C3338 1.390 . S
C3334 C3328 1.465 . S
C3334 C3333 1.396 . S
C3334 C3335 1.399 . S
C3335 H3321 0.929 . S
C3335 C3334 1.399 . S
C3335 C3336 1.385 . S
C3336 H3322 0.931 . S
C3336 C3335 1.385 . S
C3336 C3337 1.389 . S
C3337 C3336 1.389 . S
C3337 C3338 1.387 . S
C3338 H3323 0.930 . S
C3338 C3333 1.390 . S
C3338 C3337 1.387 . S
H3339 C3351 0.930 . S
H3340 C3353 0.930 . S
H3341 C3354 0.930 . S
H3342 C3358 0.959 . S
H3343 C3358 0.959 . S
H3344 C3358 0.961 . S
H3345 C3359 0.960 . S
H3346 C3359 0.961 . S
H3347 C3359 0.959 . S
H3348 C3362 0.929 . S
H3349 C3363 0.931 . S
H3350 C3365 0.930 . S
C3351 H3339 0.930 . S
C3351 C3352 1.399 1_565 S
C3351 C3356 1.399 . S
C3352 C3351 1.399 1_545 S
C3352 C3353 1.376 . S
C3353 H3340 0.930 . S
C3353 C3352 1.376 . S
C3353 C3354 1.388 . S
C3354 H3341 0.930 . S
C3354 C3353 1.388 . S
C3354 C3355 1.390 1_545 S
C3355 C3354 1.390 1_565 S
C3355 C3356 1.394 . S
C3355 C3361 1.465 . S
C3356 C3351 1.399 . S
C3356 C3355 1.394 . S
C3356 C3357 1.516 . S
C3357 C3356 1.516 . S
C3357 C3358 1.502 . S
C3357 C3359 1.561 . S
C3357 C3360 1.526 . S
C3358 H3342 0.959 . S
C3358 H3343 0.959 . S
C3358 H3344 0.961 . S
C3358 C3357 1.502 . S
C3359 H3345 0.960 . S
C3359 H3346 0.961 . S
C3359 H3347 0.959 . S
C3359 C3357 1.561 . S
C3360 C3357 1.526 . S
C3360 C3361 1.396 . S
C3360 C3365 1.390 . S
C3361 C3355 1.465 . S
C3361 C3360 1.396 . S
C3361 C3362 1.399 . S
C3362 H3348 0.929 . S
C3362 C3361 1.399 . S
C3362 C3363 1.385 . S
C3363 H3349 0.931 . S
C3363 C3362 1.385 . S
C3363 C3364 1.389 . S
C3364 C3363 1.389 . S
C3364 C3365 1.387 . S
C3365 H3350 0.930 . S
C3365 C3360 1.390 . S
C3365 C3364 1.387 . S
H3366 C3378 0.930 . S
H3367 C3380 0.930 . S
H3368 C3381 0.930 . S
H3369 C3385 0.959 . S
H3370 C3385 0.959 . S
H3371 C3385 0.961 . S
H3372 C3386 0.960 . S
H3373 C3386 0.961 . S
H3374 C3386 0.959 . S
H3375 C3389 0.929 . S
H3376 C3390 0.931 . S
H3377 C3392 0.930 . S
C3378 H3366 0.930 . S
C3378 C3379 1.399 . S
C3378 C3383 1.399 . S
C3379 C3378 1.399 . S
C3379 C3380 1.376 . S
C3380 H3367 0.930 . S
C3380 C3379 1.376 . S
C3380 C3381 1.388 . S
C3381 H3368 0.930 . S
C3381 C3380 1.388 . S
C3381 C3382 1.390 . S
C3382 C3381 1.390 . S
C3382 C3383 1.394 . S
C3382 C3388 1.465 . S
C3383 C3378 1.399 . S
C3383 C3382 1.394 . S
C3383 C3384 1.516 . S
C3384 C3383 1.516 . S
C3384 C3385 1.502 . S
C3384 C3386 1.561 . S
C3384 C3387 1.526 . S
C3385 H3369 0.959 . S
C3385 H3370 0.959 . S
C3385 H3371 0.961 . S
C3385 C3384 1.502 . S
C3386 H3372 0.960 . S
C3386 H3373 0.961 . S
C3386 H3374 0.959 . S
C3386 C3384 1.561 . S
C3387 C3384 1.526 . S
C3387 C3388 1.396 . S
C3387 C3392 1.390 . S
C3388 C3382 1.465 . S
C3388 C3387 1.396 . S
C3388 C3389 1.399 . S
C3389 H3375 0.929 . S
C3389 C3388 1.399 . S
C3389 C3390 1.385 . S
C3390 H3376 0.931 . S
C3390 C3389 1.385 . S
C3390 C3391 1.389 . S
C3391 C3390 1.389 . S
C3391 C3392 1.387 . S
C3392 H3377 0.930 . S
C3392 C3387 1.390 . S
C3392 C3391 1.387 . S
H3393 C3405 0.930 . S
H3394 C3407 0.930 . S
H3395 C3408 0.930 . S
H3396 C3412 0.959 . S
H3397 C3412 0.959 . S
H3398 C3412 0.961 1_556 S
H3399 C3413 0.960 1_556 S
H3400 C3413 0.961 . S
H3401 C3413 0.959 . S
H3402 C3416 0.929 . S
H3403 C3417 0.931 . S
H3404 C3419 0.930 . S
C3405 H3393 0.930 . S
C3405 C3406 1.399 . S
C3405 C3410 1.399 1_556 S
C3406 C3405 1.399 . S
C3406 C3407 1.376 . S
C3407 H3394 0.930 . S
C3407 C3406 1.376 . S
C3407 C3408 1.388 1_556 S
C3408 H3395 0.930 . S
C3408 C3407 1.388 1_554 S
C3408 C3409 1.390 . S
C3409 C3408 1.390 . S
C3409 C3410 1.394 . S
C3409 C3415 1.465 . S
C3410 C3405 1.399 1_554 S
C3410 C3409 1.394 . S
C3410 C3411 1.516 . S
C3411 C3410 1.516 . S
C3411 C3412 1.502 . S
C3411 C3413 1.561 . S
C3411 C3414 1.526 . S
C3412 H3396 0.959 . S
C3412 H3397 0.959 . S
C3412 H3398 0.961 1_554 S
C3412 C3411 1.502 . S
C3413 H3399 0.960 1_554 S
C3413 H3400 0.961 . S
C3413 H3401 0.959 . S
C3413 C3411 1.561 . S
C3414 C3411 1.526 . S
C3414 C3415 1.396 . S
C3414 C3419 1.390 . S
C3415 C3409 1.465 . S
C3415 C3414 1.396 . S
C3415 C3416 1.399 . S
C3416 H3402 0.929 . S
C3416 C3415 1.399 . S
C3416 C3417 1.385 . S
C3417 H3403 0.931 . S
C3417 C3416 1.385 . S
C3417 C3418 1.389 . S
C3418 C3417 1.389 . S
C3418 C3419 1.387 . S
C3419 H3404 0.930 . S
C3419 C3414 1.390 . S
C3419 C3418 1.387 . S
H3420 C3432 0.930 . S
H3421 C3434 0.930 . S
H3422 C3435 0.930 1_455 S
H3423 C3439 0.959 . S
H3424 C3439 0.959 . S
H3425 C3439 0.961 . S
H3426 C3440 0.960 . S
H3427 C3440 0.961 . S
H3428 C3440 0.959 . S
H3429 C3443 0.929 . S
H3430 C3444 0.931 . S
H3431 C3446 0.930 . S
C3432 H3420 0.930 . S
C3432 C3433 1.399 . S
C3432 C3437 1.399 . S
C3433 C3432 1.399 . S
C3433 C3434 1.376 . S
C3434 H3421 0.930 . S
C3434 C3433 1.376 . S
C3434 C3435 1.388 . S
C3435 H3422 0.930 1_655 S
C3435 C3434 1.388 . S
C3435 C3436 1.390 1_655 S
C3436 C3435 1.390 1_455 S
C3436 C3437 1.394 1_455 S
C3436 C3442 1.465 . S
C3437 C3432 1.399 . S
C3437 C3436 1.394 1_655 S
C3437 C3438 1.516 1_655 S
C3438 C3437 1.516 1_455 S
C3438 C3439 1.502 1_445 S
C3438 C3440 1.561 . S
C3438 C3441 1.526 1_545 S
C3439 H3423 0.959 . S
C3439 H3424 0.959 . S
C3439 H3425 0.961 . S
C3439 C3438 1.502 1_665 S
C3440 H3426 0.960 . S
C3440 H3427 0.961 . S
C3440 H3428 0.959 . S
C3440 C3438 1.561 . S
C3441 C3438 1.526 1_565 S
C3441 C3442 1.396 1_565 S
C3441 C3446 1.390 . S
C3442 C3436 1.465 . S
C3442 C3441 1.396 1_545 S
C3442 C3443 1.399 . S
C3443 H3429 0.929 . S
C3443 C3442 1.399 . S
C3443 C3444 1.385 1_545 S
C3444 H3430 0.931 . S
C3444 C3443 1.385 1_565 S
C3444 C3445 1.389 . S
C3445 C3444 1.389 . S
C3445 C3446 1.387 . S
C3446 H3431 0.930 . S
C3446 C3441 1.390 . S
C3446 C3445 1.387 . S
H3447 C3459 0.930 . S
H3448 C3461 0.930 . S
H3449 C3462 0.930 . S
H3450 C3466 0.959 . S
H3451 C3466 0.959 . S
H3452 C3466 0.961 . S
H3453 C3467 0.960 . S
H3454 C3467 0.961 . S
H3455 C3467 0.959 . S
H3456 C3470 0.929 . S
H3457 C3471 0.931 . S
H3458 C3473 0.930 . S
C3459 H3447 0.930 . S
C3459 C3460 1.399 . S
C3459 C3464 1.399 . S
C3460 C3459 1.399 . S
C3460 C3461 1.376 . S
C3461 H3448 0.930 . S
C3461 C3460 1.376 . S
C3461 C3462 1.388 . S
C3462 H3449 0.930 . S
C3462 C3461 1.388 . S
C3462 C3463 1.390 . S
C3463 C3462 1.390 . S
C3463 C3464 1.394 . S
C3463 C3469 1.465 . S
C3464 C3459 1.399 . S
C3464 C3463 1.394 . S
C3464 C3465 1.516 . S
C3465 C3464 1.516 . S
C3465 C3466 1.502 . S
C3465 C3467 1.561 . S
C3465 C3468 1.526 . S
C3466 H3450 0.959 . S
C3466 H3451 0.959 . S
C3466 H3452 0.961 . S
C3466 C3465 1.502 . S
C3467 H3453 0.960 . S
C3467 H3454 0.961 . S
C3467 H3455 0.959 . S
C3467 C3465 1.561 . S
C3468 C3465 1.526 . S
C3468 C3469 1.396 . S
C3468 C3473 1.390 . S
C3469 C3463 1.465 . S
C3469 C3468 1.396 . S
C3469 C3470 1.399 . S
C3470 H3456 0.929 . S
C3470 C3469 1.399 . S
C3470 C3471 1.385 . S
C3471 H3457 0.931 . S
C3471 C3470 1.385 . S
C3471 C3472 1.389 . S
C3472 C3471 1.389 . S
C3472 C3473 1.387 . S
C3473 H3458 0.930 . S
C3473 C3468 1.390 . S
C3473 C3472 1.387 . S
H3474 C3486 0.930 . S
H3475 C3488 0.930 . S
H3476 C3489 0.930 . S
H3477 C3493 0.959 . S
H3478 C3493 0.959 . S
H3479 C3493 0.961 . S
H3480 C3494 0.978 . S
H3481 C3494 0.961 . S
H3482 C3494 0.959 1_565 S
H3483 C3497 0.929 . S
H3484 C3498 0.931 . S
H3485 C3500 0.930 . S
C3486 H3474 0.930 . S
C3486 C3487 1.399 . S
C3486 C3491 1.399 . S
C3487 C3486 1.399 . S
C3487 C3488 1.376 . S
C3488 H3475 0.930 . S
C3488 C3487 1.376 . S
C3488 C3489 1.388 . S
C3489 H3476 0.930 . S
C3489 C3488 1.388 . S
C3489 C3490 1.390 . S
C3490 C3489 1.390 . S
C3490 C3491 1.394 . S
C3490 C3496 1.465 . S
C3491 C3486 1.399 . S
C3491 C3490 1.394 . S
C3491 C3492 1.516 1_565 S
C3492 C3491 1.516 1_545 S
C3492 C3493 1.502 . S
C3492 C3494 1.561 . S
C3492 C3495 1.526 . S
C3493 H3477 0.959 . S
C3493 H3478 0.959 . S
C3493 H3479 0.961 . S
C3493 C3492 1.502 . S
C3494 H3480 0.978 . S
C3494 H3481 0.961 . S
C3494 H3482 0.959 1_545 S
C3494 C3492 1.561 . S
C3495 C3492 1.526 . S
C3495 C3496 1.396 1_545 S
C3495 C3500 1.390 . S
C3496 C3490 1.465 . S
C3496 C3495 1.396 1_565 S
C3496 C3497 1.399 . S
C3497 H3483 0.929 . S
C3497 C3496 1.399 . S
C3497 C3498 1.385 1_565 S
C3498 H3484 0.931 . S
C3498 C3497 1.385 1_545 S
C3498 C3499 1.389 . S
C3499 C3498 1.389 . S
C3499 C3500 1.387 . S
C3500 H3485 0.930 . S
C3500 C3495 1.390 . S
C3500 C3499 1.387 . S
H3501 C3513 0.930 . S
H3502 C3515 0.930 . S
H3503 C3516 0.930 . S
H3504 C3520 0.959 . S
H3505 C3520 0.959 . S
H3506 C3520 0.961 . S
H3507 C3521 0.960 . S
H3508 C3521 0.961 1_655 S
H3509 C3521 0.959 . S
H3510 C3524 0.929 . S
H3511 C3525 0.931 . S
H3512 C3527 0.930 . S
C3513 H3501 0.930 . S
C3513 C3514 1.399 . S
C3513 C3518 1.399 . S
C3514 C3513 1.399 . S
C3514 C3515 1.376 . S
C3515 H3502 0.930 . S
C3515 C3514 1.376 . S
C3515 C3516 1.388 . S
C3516 H3503 0.930 . S
C3516 C3515 1.388 . S
C3516 C3517 1.390 . S
C3517 C3516 1.390 . S
C3517 C3518 1.394 . S
C3517 C3523 1.465 1_455 S
C3518 C3513 1.399 . S
C3518 C3517 1.394 . S
C3518 C3519 1.516 1_455 S
C3519 C3518 1.516 1_655 S
C3519 C3520 1.502 . S
C3519 C3521 1.561 1_655 S
C3519 C3522 1.526 . S
C3520 H3504 0.959 . S
C3520 H3505 0.959 . S
C3520 H3506 0.961 . S
C3520 C3519 1.502 . S
C3521 H3507 0.960 . S
C3521 H3508 0.961 1_455 S
C3521 H3509 0.959 . S
C3521 C3519 1.561 1_455 S
C3522 C3519 1.526 . S
C3522 C3523 1.396 . S
C3522 C3527 1.390 . S
C3523 C3517 1.465 1_655 S
C3523 C3522 1.396 . S
C3523 C3524 1.399 . S
C3524 H3510 0.929 . S
C3524 C3523 1.399 . S
C3524 C3525 1.385 . S
C3525 H3511 0.931 . S
C3525 C3524 1.385 . S
C3525 C3526 1.389 . S
C3526 C3525 1.389 . S
C3526 C3527 1.387 . S
C3527 H3512 0.930 . S
C3527 C3522 1.390 . S
C3527 C3526 1.387 . S
H3528 C3540 0.930 . S
H3529 C3542 0.930 . S
H3530 C3543 0.930 . S
H3531 C3547 0.959 1_556 S
H3532 C3547 0.941 1_556 S
H3533 C3547 0.961 . S
H3534 C3548 0.960 . S
H3535 C3548 0.961 . S
H3536 C3548 0.959 . S
H3537 C3551 0.929 . S
H3538 C3552 0.931 . S
H3539 C3554 0.930 . S
C3540 H3528 0.930 . S
C3540 C3541 1.399 . S
C3540 C3545 1.399 . S
C3541 C3540 1.399 . S
C3541 C3542 1.376 . S
C3542 H3529 0.930 . S
C3542 C3541 1.376 . S
C3542 C3543 1.388 . S
C3543 H3530 0.930 . S
C3543 C3542 1.388 . S
C3543 C3544 1.390 . S
C3544 C3543 1.390 . S
C3544 C3545 1.394 . S
C3544 C3550 1.428 1_564 S
C3545 C3540 1.399 . S
C3545 C3544 1.394 . S
C3545 C3546 1.516 . S
C3546 C3545 1.516 . S
C3546 C3547 1.502 . S
C3546 C3548 1.561 1_565 S
C3546 C3549 1.526 1_564 S
C3547 H3531 0.959 1_554 S
C3547 H3532 0.941 1_554 S
C3547 H3533 0.961 . S
C3547 C3546 1.502 . S
C3548 H3534 0.960 . S
C3548 H3535 0.961 . S
C3548 H3536 0.959 . S
C3548 C3546 1.561 1_545 S
C3549 C3546 1.526 1_546 S
C3549 C3550 1.401 . S
C3549 C3554 1.390 . S
C3550 C3544 1.428 1_546 S
C3550 C3549 1.401 . S
C3550 C3551 1.431 . S
C3551 H3537 0.929 . S
C3551 C3550 1.431 . S
C3551 C3552 1.385 . S
C3552 H3538 0.931 . S
C3552 C3551 1.385 . S
C3552 C3553 1.389 . S
C3553 C3552 1.389 . S
C3553 C3554 1.387 . S
C3554 H3539 0.930 . S
C3554 C3549 1.390 . S
C3554 C3553 1.387 . S
H3555 C3567 0.930 . S
H3556 C3569 0.930 . S
H3557 C3570 0.930 . S
H3558 C3574 0.959 . S
H3559 C3574 0.959 . S
H3560 C3574 0.961 . S
H3561 C3575 0.960 . S
H3562 C3575 0.961 . S
H3563 C3575 0.959 . S
H3564 C3578 0.929 . S
H3565 C3579 0.931 . S
H3566 C3581 0.930 . S
C3567 H3555 0.930 . S
C3567 C3568 1.399 . S
C3567 C3572 1.399 . S
C3568 C3567 1.399 . S
C3568 C3569 1.376 . S
C3569 H3556 0.930 . S
C3569 C3568 1.376 . S
C3569 C3570 1.388 . S
C3570 H3557 0.930 . S
C3570 C3569 1.388 . S
C3570 C3571 1.390 . S
C3571 C3570 1.390 . S
C3571 C3572 1.394 . S
C3571 C3577 1.465 . S
C3572 C3567 1.399 . S
C3572 C3571 1.394 . S
C3572 C3573 1.516 . S
C3573 C3572 1.516 . S
C3573 C3574 1.502 . S
C3573 C3575 1.561 . S
C3573 C3576 1.526 . S
C3574 H3558 0.959 . S
C3574 H3559 0.959 . S
C3574 H3560 0.961 . S
C3574 C3573 1.502 . S
C3575 H3561 0.960 . S
C3575 H3562 0.961 . S
C3575 H3563 0.959 . S
C3575 C3573 1.561 . S
C3576 C3573 1.526 . S
C3576 C3577 1.396 . S
C3576 C3581 1.390 . S
C3577 C3571 1.465 . S
C3577 C3576 1.396 . S
C3577 C3578 1.399 . S
C3578 H3564 0.929 . S
C3578 C3577 1.399 . S
C3578 C3579 1.385 . S
C3579 H3565 0.931 . S
C3579 C3578 1.385 . S
C3579 C3580 1.389 . S
C3580 C3579 1.389 . S
C3580 C3581 1.387 . S
C3581 H3566 0.930 . S
C3581 C3576 1.390 . S
C3581 C3580 1.387 . S
H3582 C3594 0.930 . S
H3583 C3596 0.930 . S
H3584 C3597 0.930 . S
H3585 C3601 0.959 . S
H3586 C3601 0.959 . S
H3587 C3601 0.961 . S
H3588 C3602 0.960 . S
H3589 C3602 0.961 . S
H3590 C3602 0.959 . S
H3591 C3605 0.929 . S
H3592 C3606 0.931 . S
H3593 C3608 0.930 . S
C3594 H3582 0.930 . S
C3594 C3595 1.399 . S
C3594 C3599 1.399 . S
C3595 C3594 1.399 . S
C3595 C3596 1.376 . S
C3596 H3583 0.930 . S
C3596 C3595 1.376 . S
C3596 C3597 1.388 . S
C3597 H3584 0.930 . S
C3597 C3596 1.388 . S
C3597 C3598 1.390 . S
C3598 C3597 1.390 . S
C3598 C3599 1.394 . S
C3598 C3604 1.465 . S
C3599 C3594 1.399 . S
C3599 C3598 1.394 . S
C3599 C3600 1.516 . S
C3600 C3599 1.516 . S
C3600 C3601 1.502 . S
C3600 C3602 1.561 . S
C3600 C3603 1.526 . S
C3601 H3585 0.959 . S
C3601 H3586 0.959 . S
C3601 H3587 0.961 . S
C3601 C3600 1.502 . S
C3602 H3588 0.960 . S
C3602 H3589 0.961 . S
C3602 H3590 0.959 . S
C3602 C3600 1.561 . S
C3603 C3600 1.526 . S
C3603 C3604 1.396 . S
C3603 C3608 1.390 . S
C3604 C3598 1.465 . S
C3604 C3603 1.396 . S
C3604 C3605 1.399 . S
C3605 H3591 0.929 . S
C3605 C3604 1.399 . S
C3605 C3606 1.385 . S
C3606 H3592 0.931 . S
C3606 C3605 1.385 . S
C3606 C3607 1.389 . S
C3607 C3606 1.389 . S
C3607 C3608 1.387 . S
C3608 H3593 0.930 . S
C3608 C3603 1.390 . S
C3608 C3607 1.387 . S
H3609 C3621 0.930 . S
H3610 C3623 0.930 . S
H3611 C3624 0.930 . S
H3612 C3628 0.959 . S
H3613 C3628 0.959 . S
H3614 C3628 0.961 . S
H3615 C3629 0.960 . S
H3616 C3629 0.961 . S
H3617 C3629 0.959 . S
H3618 C3632 0.929 . S
H3619 C3633 0.931 . S
H3620 C3635 0.930 . S
C3621 H3609 0.930 . S
C3621 C3622 1.399 . S
C3621 C3626 1.399 . S
C3622 C3621 1.399 . S
C3622 C3623 1.376 . S
C3623 H3610 0.930 . S
C3623 C3622 1.376 . S
C3623 C3624 1.388 . S
C3624 H3611 0.930 . S
C3624 C3623 1.388 . S
C3624 C3625 1.390 . S
C3625 C3624 1.390 . S
C3625 C3626 1.394 . S
C3625 C3631 1.465 . S
C3626 C3621 1.399 . S
C3626 C3625 1.394 . S
C3626 C3627 1.516 . S
C3627 C3626 1.516 . S
C3627 C3628 1.502 . S
C3627 C3629 1.561 . S
C3627 C3630 1.526 . S
C3628 H3612 0.959 . S
C3628 H3613 0.959 . S
C3628 H3614 0.961 . S
C3628 C3627 1.502 . S
C3629 H3615 0.960 . S
C3629 H3616 0.961 . S
C3629 H3617 0.959 . S
C3629 C3627 1.561 . S
C3630 C3627 1.526 . S
C3630 C3631 1.396 . S
C3630 C3635 1.390 . S
C3631 C3625 1.465 . S
C3631 C3630 1.396 . S
C3631 C3632 1.399 . S
C3632 H3618 0.929 . S
C3632 C3631 1.399 . S
C3632 C3633 1.385 . S
C3633 H3619 0.931 . S
C3633 C3632 1.385 . S
C3633 C3634 1.389 . S
C3634 C3633 1.389 . S
C3634 C3635 1.387 . S
C3635 H3620 0.930 . S
C3635 C3630 1.390 . S
C3635 C3634 1.387 . S
H3636 C3648 0.930 . S
H3637 C3650 0.930 . S
H3638 C3651 0.930 . S
H3639 C3655 0.959 . S
H3640 C3655 0.959 . S
H3641 C3655 0.961 . S
H3642 C3656 0.960 . S
H3643 C3656 0.961 . S
H3644 C3656 0.959 . S
H3645 C3659 0.929 . S
H3646 C3660 0.931 . S
H3647 C3662 0.930 . S
C3648 H3636 0.930 . S
C3648 C3649 1.399 . S
C3648 C3653 1.399 . S
C3649 C3648 1.399 . S
C3649 C3650 1.376 . S
C3650 H3637 0.930 . S
C3650 C3649 1.376 . S
C3650 C3651 1.388 . S
C3651 H3638 0.930 . S
C3651 C3650 1.388 . S
C3651 C3652 1.390 . S
C3652 C3651 1.390 . S
C3652 C3653 1.394 . S
C3652 C3658 1.465 . S
C3653 C3648 1.399 . S
C3653 C3652 1.394 . S
C3653 C3654 1.516 . S
C3654 C3653 1.516 . S
C3654 C3655 1.502 . S
C3654 C3656 1.561 . S
C3654 C3657 1.526 . S
C3655 H3639 0.959 . S
C3655 H3640 0.959 . S
C3655 H3641 0.961 . S
C3655 C3654 1.502 . S
C3656 H3642 0.960 . S
C3656 H3643 0.961 . S
C3656 H3644 0.959 . S
C3656 C3654 1.561 . S
C3657 C3654 1.526 . S
C3657 C3658 1.396 . S
C3657 C3662 1.390 . S
C3658 C3652 1.465 . S
C3658 C3657 1.396 . S
C3658 C3659 1.399 . S
C3659 H3645 0.929 . S
C3659 C3658 1.399 . S
C3659 C3660 1.385 . S
C3660 H3646 0.931 . S
C3660 C3659 1.385 . S
C3660 C3661 1.389 . S
C3661 C3660 1.389 . S
C3661 C3662 1.387 . S
C3662 H3647 0.930 . S
C3662 C3657 1.390 . S
C3662 C3661 1.387 . S
H3663 C3675 0.930 . S
H3664 C3677 0.930 . S
H3665 C3678 0.930 . S
H3666 C3682 0.959 . S
H3667 C3682 0.958 1_554 S
H3668 C3682 0.961 . S
H3669 C3683 0.960 . S
H3670 C3683 0.961 . S
H3671 C3683 0.959 . S
H3672 C3686 0.929 . S
H3673 C3687 0.931 . S
H3674 C3689 0.930 . S
C3675 H3663 0.930 . S
C3675 C3676 1.399 . S
C3675 C3680 1.399 . S
C3676 C3675 1.399 . S
C3676 C3677 1.376 . S
C3677 H3664 0.930 . S
C3677 C3676 1.376 . S
C3677 C3678 1.388 . S
C3678 H3665 0.930 . S
C3678 C3677 1.388 . S
C3678 C3679 1.390 . S
C3679 C3678 1.390 . S
C3679 C3680 1.394 . S
C3679 C3685 1.465 1_556 S
C3680 C3675 1.399 . S
C3680 C3679 1.394 . S
C3680 C3681 1.516 1_556 S
C3681 C3680 1.516 1_554 S
C3681 C3682 1.502 1_554 S
C3681 C3683 1.561 . S
C3681 C3684 1.526 . S
C3682 H3666 0.959 . S
C3682 H3667 0.958 1_556 S
C3682 H3668 0.961 . S
C3682 C3681 1.502 1_556 S
C3683 H3669 0.960 . S
C3683 H3670 0.961 . S
C3683 H3671 0.959 . S
C3683 C3681 1.561 . S
C3684 C3681 1.526 . S
C3684 C3685 1.396 . S
C3684 C3689 1.390 . S
C3685 C3679 1.465 1_554 S
C3685 C3684 1.396 . S
C3685 C3686 1.399 . S
C3686 H3672 0.929 . S
C3686 C3685 1.399 . S
C3686 C3687 1.385 . S
C3687 H3673 0.931 . S
C3687 C3686 1.385 . S
C3687 C3688 1.389 . S
C3688 C3687 1.389 . S
C3688 C3689 1.387 . S
C3689 H3674 0.930 . S
C3689 C3684 1.390 . S
C3689 C3688 1.387 . S
H3690 C3702 0.930 . S
H3691 C3704 0.930 . S
H3692 C3705 0.930 . S
H3693 C3709 0.959 . S
H3694 C3709 0.959 . S
H3695 C3709 0.961 . S
H3696 C3710 0.960 . S
H3697 C3710 0.961 . S
H3698 C3710 0.959 . S
H3699 C3713 0.929 . S
H3700 C3714 0.931 . S
H3701 C3716 0.930 . S
C3702 H3690 0.930 . S
C3702 C3703 1.399 . S
C3702 C3707 1.399 . S
C3703 C3702 1.399 . S
C3703 C3704 1.376 . S
C3704 H3691 0.930 . S
C3704 C3703 1.376 . S
C3704 C3705 1.388 . S
C3705 H3692 0.930 . S
C3705 C3704 1.388 . S
C3705 C3706 1.390 . S
C3706 C3705 1.390 . S
C3706 C3707 1.394 . S
C3706 C3712 1.465 . S
C3707 C3702 1.399 . S
C3707 C3706 1.394 . S
C3707 C3708 1.516 . S
C3708 C3707 1.516 . S
C3708 C3709 1.502 . S
C3708 C3710 1.561 . S
C3708 C3711 1.526 . S
C3709 H3693 0.959 . S
C3709 H3694 0.959 . S
C3709 H3695 0.961 . S
C3709 C3708 1.502 . S
C3710 H3696 0.960 . S
C3710 H3697 0.961 . S
C3710 H3698 0.959 . S
C3710 C3708 1.561 . S
C3711 C3708 1.526 . S
C3711 C3712 1.396 . S
C3711 C3716 1.390 . S
C3712 C3706 1.465 . S
C3712 C3711 1.396 . S
C3712 C3713 1.399 . S
C3713 H3699 0.929 . S
C3713 C3712 1.399 . S
C3713 C3714 1.385 . S
C3714 H3700 0.931 . S
C3714 C3713 1.385 . S
C3714 C3715 1.389 . S
C3715 C3714 1.389 . S
C3715 C3716 1.387 . S
C3716 H3701 0.930 . S
C3716 C3711 1.390 . S
C3716 C3715 1.387 . S
H3717 C3729 0.930 . S
H3718 C3731 0.930 . S
H3719 C3732 0.930 . S
H3720 C3736 0.959 . S
H3721 C3736 0.959 . S
H3722 C3736 0.961 . S
H3723 C3737 0.960 . S
H3724 C3737 0.961 . S
H3725 C3737 0.959 . S
H3726 C3740 0.929 . S
H3727 C3741 0.931 . S
H3728 C3743 0.930 . S
C3729 H3717 0.930 . S
C3729 C3730 1.399 . S
C3729 C3734 1.399 . S
C3730 C3729 1.399 . S
C3730 C3731 1.376 . S
C3731 H3718 0.930 . S
C3731 C3730 1.376 . S
C3731 C3732 1.388 . S
C3732 H3719 0.930 . S
C3732 C3731 1.388 . S
C3732 C3733 1.390 . S
C3733 C3732 1.390 . S
C3733 C3734 1.394 . S
C3733 C3739 1.465 . S
C3734 C3729 1.399 . S
C3734 C3733 1.394 . S
C3734 C3735 1.516 . S
C3735 C3734 1.516 . S
C3735 C3736 1.502 . S
C3735 C3737 1.561 . S
C3735 C3738 1.526 . S
C3736 H3720 0.959 . S
C3736 H3721 0.959 . S
C3736 H3722 0.961 . S
C3736 C3735 1.502 . S
C3737 H3723 0.960 . S
C3737 H3724 0.961 . S
C3737 H3725 0.959 . S
C3737 C3735 1.561 . S
C3738 C3735 1.526 . S
C3738 C3739 1.396 . S
C3738 C3743 1.390 . S
C3739 C3733 1.465 . S
C3739 C3738 1.396 . S
C3739 C3740 1.399 . S
C3740 H3726 0.929 . S
C3740 C3739 1.399 . S
C3740 C3741 1.385 . S
C3741 H3727 0.931 . S
C3741 C3740 1.385 . S
C3741 C3742 1.389 . S
C3742 C3741 1.389 . S
C3742 C3743 1.387 . S
C3743 H3728 0.930 . S
C3743 C3738 1.390 . S
C3743 C3742 1.387 . S
H3744 C3756 0.930 . S
H3745 C3758 0.930 . S
H3746 C3759 0.930 . S
H3747 C3763 0.959 . S
H3748 C3763 0.959 . S
H3749 C3763 0.961 . S
H3750 C3764 0.960 . S
H3751 C3764 0.961 . S
H3752 C3764 0.959 . S
H3753 C3767 0.929 . S
H3754 C3768 0.931 . S
H3755 C3770 0.930 . S
C3756 H3744 0.930 . S
C3756 C3757 1.399 . S
C3756 C3761 1.399 . S
C3757 C3756 1.399 . S
C3757 C3758 1.376 . S
C3758 H3745 0.930 . S
C3758 C3757 1.376 . S
C3758 C3759 1.388 . S
C3759 H3746 0.930 . S
C3759 C3758 1.388 . S
C3759 C3760 1.390 . S
C3760 C3759 1.390 . S
C3760 C3761 1.394 . S
C3760 C3766 1.465 . S
C3761 C3756 1.399 . S
C3761 C3760 1.394 . S
C3761 C3762 1.516 . S
C3762 C3761 1.516 . S
C3762 C3763 1.502 . S
C3762 C3764 1.561 . S
C3762 C3765 1.526 . S
C3763 H3747 0.959 . S
C3763 H3748 0.959 . S
C3763 H3749 0.961 . S
C3763 C3762 1.502 . S
C3764 H3750 0.960 . S
C3764 H3751 0.961 . S
C3764 H3752 0.959 . S
C3764 C3762 1.561 . S
C3765 C3762 1.526 . S
C3765 C3766 1.396 . S
C3765 C3770 1.390 . S
C3766 C3760 1.465 . S
C3766 C3765 1.396 . S
C3766 C3767 1.399 . S
C3767 H3753 0.929 . S
C3767 C3766 1.399 . S
C3767 C3768 1.385 . S
C3768 H3754 0.931 . S
C3768 C3767 1.385 . S
C3768 C3769 1.389 . S
C3769 C3768 1.389 . S
C3769 C3770 1.387 . S
C3770 H3755 0.930 . S
C3770 C3765 1.390 . S
C3770 C3769 1.387 . S
H3771 C3783 0.930 . S
H3772 C3785 0.930 . S
H3773 C3786 0.930 . S
H3774 C3790 0.959 . S
H3775 C3790 0.959 . S
H3776 C3790 0.961 . S
H3777 C3791 0.923 1_565 S
H3778 C3791 0.998 . S
H3779 C3791 0.938 1_565 S
H3780 C3794 0.929 . S
H3781 C3795 0.931 . S
H3782 C3797 0.930 . S
C3783 H3771 0.930 . S
C3783 C3784 1.399 . S
C3783 C3788 1.399 . S
C3784 C3783 1.399 . S
C3784 C3785 1.376 . S
C3785 H3772 0.930 . S
C3785 C3784 1.376 . S
C3785 C3786 1.388 . S
C3786 H3773 0.930 . S
C3786 C3785 1.388 . S
C3786 C3787 1.390 . S
C3787 C3786 1.390 . S
C3787 C3788 1.394 . S
C3787 C3793 1.465 1_565 S
C3788 C3783 1.399 . S
C3788 C3787 1.394 . S
C3788 C3789 1.516 1_565 S
C3789 C3788 1.516 1_545 S
C3789 C3790 1.502 . S
C3789 C3791 1.586 . S
C3789 C3792 1.526 . S
C3790 H3774 0.959 . S
C3790 H3775 0.959 . S
C3790 H3776 0.961 . S
C3790 C3789 1.502 . S
C3791 H3777 0.923 1_545 S
C3791 H3778 0.998 . S
C3791 H3779 0.938 1_545 S
C3791 C3789 1.586 . S
C3792 C3789 1.526 . S
C3792 C3793 1.396 . S
C3792 C3797 1.390 . S
C3793 C3787 1.465 1_545 S
C3793 C3792 1.396 . S
C3793 C3794 1.399 . S
C3794 H3780 0.929 . S
C3794 C3793 1.399 . S
C3794 C3795 1.385 . S
C3795 H3781 0.931 . S
C3795 C3794 1.385 . S
C3795 C3796 1.389 . S
C3796 C3795 1.389 . S
C3796 C3797 1.387 . S
C3797 H3782 0.930 . S
C3797 C3792 1.390 . S
C3797 C3796 1.387 . S
H3798 C3810 0.930 . S
H3799 C3812 0.930 . S
H3800 C3813 0.930 . S
H3801 C3817 0.959 . S
H3802 C3817 0.959 . S
H3803 C3817 0.961 . S
H3804 C3818 0.960 . S
H3805 C3818 0.961 . S
H3806 C3818 0.959 . S
H3807 C3821 0.929 . S
H3808 C3822 0.931 . S
H3809 C3824 0.930 . S
C3810 H3798 0.930 . S
C3810 C3811 1.399 . S
C3810 C3815 1.399 . S
C3811 C3810 1.399 . S
C3811 C3812 1.376 . S
C3812 H3799 0.930 . S
C3812 C3811 1.376 . S
C3812 C3813 1.388 . S
C3813 H3800 0.930 . S
C3813 C3812 1.388 . S
C3813 C3814 1.390 . S
C3814 C3813 1.390 . S
C3814 C3815 1.394 . S
C3814 C3820 1.465 . S
C3815 C3810 1.399 . S
C3815 C3814 1.394 . S
C3815 C3816 1.516 . S
C3816 C3815 1.516 . S
C3816 C3817 1.502 . S
C3816 C3818 1.561 . S
C3816 C3819 1.526 . S
C3817 H3801 0.959 . S
C3817 H3802 0.959 . S
C3817 H3803 0.961 . S
C3817 C3816 1.502 . S
C3818 H3804 0.960 . S
C3818 H3805 0.961 . S
C3818 H3806 0.959 . S
C3818 C3816 1.561 . S
C3819 C3816 1.526 . S
C3819 C3820 1.396 . S
C3819 C3824 1.390 . S
C3820 C3814 1.465 . S
C3820 C3819 1.396 . S
C3820 C3821 1.399 . S
C3821 H3807 0.929 . S
C3821 C3820 1.399 . S
C3821 C3822 1.385 . S
C3822 H3808 0.931 . S
C3822 C3821 1.385 . S
C3822 C3823 1.389 . S
C3823 C3822 1.389 . S
C3823 C3824 1.387 . S
C3824 H3809 0.930 . S
C3824 C3819 1.390 . S
C3824 C3823 1.387 . S
H3825 C3837 0.930 . S
H3826 C3839 0.930 . S
H3827 C3840 0.930 . S
H3828 C3844 0.959 . S
H3829 C3844 0.959 . S
H3830 C3844 0.961 . S
H3831 C3845 0.963 1_545 S
H3832 C3845 0.961 . S
H3833 C3845 0.959 . S
H3834 C3848 0.929 . S
H3835 C3849 0.931 . S
H3836 C3851 0.930 . S
C3837 H3825 0.930 . S
C3837 C3838 1.399 . S
C3837 C3842 1.399 1_545 S
C3838 C3837 1.399 . S
C3838 C3839 1.376 . S
C3839 H3826 0.930 . S
C3839 C3838 1.376 . S
C3839 C3840 1.388 . S
C3840 H3827 0.930 . S
C3840 C3839 1.388 . S
C3840 C3841 1.390 1_545 S
C3841 C3840 1.390 1_565 S
C3841 C3842 1.394 . S
C3841 C3847 1.465 . S
C3842 C3837 1.399 1_565 S
C3842 C3841 1.394 . S
C3842 C3843 1.516 . S
C3843 C3842 1.516 . S
C3843 C3844 1.502 . S
C3843 C3845 1.561 . S
C3843 C3846 1.526 . S
C3844 H3828 0.959 . S
C3844 H3829 0.959 . S
C3844 H3830 0.961 . S
C3844 C3843 1.502 . S
C3845 H3831 0.963 1_565 S
C3845 H3832 0.961 . S
C3845 H3833 0.959 . S
C3845 C3843 1.561 . S
C3846 C3843 1.526 . S
C3846 C3847 1.396 . S
C3846 C3851 1.390 . S
C3847 C3841 1.465 . S
C3847 C3846 1.396 . S
C3847 C3848 1.399 . S
C3848 H3834 0.929 . S
C3848 C3847 1.399 . S
C3848 C3849 1.385 . S
C3849 H3835 0.931 . S
C3849 C3848 1.385 . S
C3849 C3850 1.389 . S
C3850 C3849 1.389 . S
C3850 C3851 1.387 . S
C3851 H3836 0.930 . S
C3851 C3846 1.390 . S
C3851 C3850 1.387 . S
H3852 C3864 0.930 . S
H3853 C3866 0.930 . S
H3854 C3867 0.930 . S
H3855 C3871 0.959 . S
H3856 C3871 0.959 . S
H3857 C3871 0.961 . S
H3858 C3872 0.960 . S
H3859 C3872 0.961 . S
H3860 C3872 0.959 . S
H3861 C3875 0.892 1_554 S
H3862 C3876 0.931 . S
H3863 C3878 0.924 1_565 S
C3864 H3852 0.930 . S
C3864 C3865 1.399 . S
C3864 C3869 1.387 1_554 S
C3865 C3864 1.399 . S
C3865 C3866 1.376 . S
C3866 H3853 0.930 . S
C3866 C3865 1.376 . S
C3866 C3867 1.388 . S
C3867 H3854 0.930 . S
C3867 C3866 1.388 . S
C3867 C3868 1.390 . S
C3868 C3867 1.390 . S
C3868 C3869 1.382 1_554 S
C3868 C3874 1.465 1_554 S
C3869 C3864 1.387 1_556 S
C3869 C3868 1.382 1_556 S
C3869 C3870 1.541 . S
C3870 C3869 1.541 . S
C3870 C3871 1.502 . S
C3870 C3872 1.561 . S
C3870 C3873 1.526 . S
C3871 H3855 0.959 . S
C3871 H3856 0.959 . S
C3871 H3857 0.961 . S
C3871 C3870 1.502 . S
C3872 H3858 0.960 . S
C3872 H3859 0.961 . S
C3872 H3860 0.959 . S
C3872 C3870 1.561 . S
C3873 C3870 1.526 . S
C3873 C3874 1.396 . S
C3873 C3878 1.390 1_565 S
C3874 C3868 1.465 1_556 S
C3874 C3873 1.396 . S
C3874 C3875 1.405 1_565 S
C3875 H3861 0.892 1_556 S
C3875 C3874 1.405 1_545 S
C3875 C3876 1.418 . S
C3876 H3862 0.931 . S
C3876 C3875 1.418 . S
C3876 C3877 1.389 . S
C3877 C3876 1.389 . S
C3877 C3878 1.387 . S
C3878 H3863 0.924 1_545 S
C3878 C3873 1.390 1_545 S
C3878 C3877 1.387 . S
H3879 C3891 0.930 . S
H3880 C3893 0.930 . S
H3881 C3894 0.930 . S
H3882 C3898 0.959 . S
H3883 C3898 0.959 . S
H3884 C3898 0.961 . S
H3885 C3899 0.960 . S
H3886 C3899 0.961 . S
H3887 C3899 0.959 . S
H3888 C3902 0.929 . S
H3889 C3903 0.931 . S
H3890 C3905 0.930 . S
C3891 H3879 0.930 . S
C3891 C3892 1.399 . S
C3891 C3896 1.399 . S
C3892 C3891 1.399 . S
C3892 C3893 1.376 . S
C3893 H3880 0.930 . S
C3893 C3892 1.376 . S
C3893 C3894 1.388 . S
C3894 H3881 0.930 . S
C3894 C3893 1.388 . S
C3894 C3895 1.390 . S
C3895 C3894 1.390 . S
C3895 C3896 1.394 . S
C3895 C3901 1.465 . S
C3896 C3891 1.399 . S
C3896 C3895 1.394 . S
C3896 C3897 1.516 . S
C3897 C3896 1.516 . S
C3897 C3898 1.502 . S
C3897 C3899 1.561 . S
C3897 C3900 1.526 . S
C3898 H3882 0.959 . S
C3898 H3883 0.959 . S
C3898 H3884 0.961 . S
C3898 C3897 1.502 . S
C3899 H3885 0.960 . S
C3899 H3886 0.961 . S
C3899 H3887 0.959 . S
C3899 C3897 1.561 . S
C3900 C3897 1.526 . S
C3900 C3901 1.396 . S
C3900 C3905 1.390 . S
C3901 C3895 1.465 . S
C3901 C3900 1.396 . S
C3901 C3902 1.399 . S
C3902 H3888 0.929 . S
C3902 C3901 1.399 . S
C3902 C3903 1.385 . S
C3903 H3889 0.931 . S
C3903 C3902 1.385 . S
C3903 C3904 1.389 . S
C3904 C3903 1.389 . S
C3904 C3905 1.387 . S
C3905 H3890 0.930 . S
C3905 C3900 1.390 . S
C3905 C3904 1.387 . S
H3906 C3918 0.930 . S
H3907 C3920 0.930 . S
H3908 C3921 0.976 . S
H3909 C3925 0.959 . S
H3910 C3925 0.959 . S
H3911 C3925 0.961 . S
H3912 C3926 0.960 . S
H3913 C3926 0.961 . S
H3914 C3926 0.959 . S
H3915 C3929 0.929 . S
H3916 C3930 0.931 . S
H3917 C3932 0.930 1_554 S
C3918 H3906 0.930 . S
C3918 C3919 1.399 . S
C3918 C3923 1.399 . S
C3919 C3918 1.399 . S
C3919 C3920 1.376 . S
C3920 H3907 0.930 . S
C3920 C3919 1.376 . S
C3920 C3921 1.388 . S
C3921 H3908 0.976 . S
C3921 C3920 1.388 . S
C3921 C3922 1.390 . S
C3922 C3921 1.390 . S
C3922 C3923 1.394 . S
C3922 C3928 1.436 1_554 S
C3923 C3918 1.399 . S
C3923 C3922 1.394 . S
C3923 C3924 1.516 . S
C3924 C3923 1.516 . S
C3924 C3925 1.502 . S
C3924 C3926 1.561 . S
C3924 C3927 1.526 . S
C3925 H3909 0.959 . S
C3925 H3910 0.959 . S
C3925 H3911 0.961 . S
C3925 C3924 1.502 . S
C3926 H3912 0.960 . S
C3926 H3913 0.961 . S
C3926 H3914 0.959 . S
C3926 C3924 1.561 . S
C3927 C3924 1.526 . S
C3927 C3928 1.380 1_554 S
C3927 C3932 1.390 1_554 S
C3928 C3922 1.436 1_556 S
C3928 C3927 1.380 1_556 S
C3928 C3929 1.439 . S
C3929 H3915 0.929 . S
C3929 C3928 1.439 . S
C3929 C3930 1.385 . S
C3930 H3916 0.931 . S
C3930 C3929 1.385 . S
C3930 C3931 1.389 . S
C3931 C3930 1.389 . S
C3931 C3932 1.387 . S
C3932 H3917 0.930 1_556 S
C3932 C3927 1.390 1_556 S
C3932 C3931 1.387 . S
H3933 C3945 0.930 . S
H3934 C3947 0.930 . S
H3935 C3948 0.930 . S
H3936 C3952 0.959 . S
H3937 C3952 0.959 . S
H3938 C3952 0.961 . S
H3939 C3953 0.960 . S
H3940 C3953 0.961 . S
H3941 C3953 0.959 . S
H3942 C3956 0.929 . S
H3943 C3957 0.931 . S
H3944 C3959 0.930 . S
C3945 H3933 0.930 . S
C3945 C3946 1.399 . S
C3945 C3950 1.399 . S
C3946 C3945 1.399 . S
C3946 C3947 1.376 . S
C3947 H3934 0.930 . S
C3947 C3946 1.376 . S
C3947 C3948 1.388 . S
C3948 H3935 0.930 . S
C3948 C3947 1.388 . S
C3948 C3949 1.390 . S
C3949 C3948 1.390 . S
C3949 C3950 1.394 . S
C3949 C3955 1.465 . S
C3950 C3945 1.399 . S
C3950 C3949 1.394 . S
C3950 C3951 1.516 . S
C3951 C3950 1.516 . S
C3951 C3952 1.502 . S
C3951 C3953 1.561 . S
C3951 C3954 1.526 . S
C3952 H3936 0.959 . S
C3952 H3937 0.959 . S
C3952 H3938 0.961 . S
C3952 C3951 1.502 . S
C3953 H3939 0.960 . S
C3953 H3940 0.961 . S
C3953 H3941 0.959 . S
C3953 C3951 1.561 . S
C3954 C3951 1.526 . S
C3954 C3955 1.396 . S
C3954 C3959 1.390 . S
C3955 C3949 1.465 . S
C3955 C3954 1.396 . S
C3955 C3956 1.399 . S
C3956 H3942 0.929 . S
C3956 C3955 1.399 . S
C3956 C3957 1.385 . S
C3957 H3943 0.931 . S
C3957 C3956 1.385 . S
C3957 C3958 1.389 . S
C3958 C3957 1.389 . S
C3958 C3959 1.387 . S
C3959 H3944 0.930 . S
C3959 C3954 1.390 . S
C3959 C3958 1.387 . S
H3960 C3972 0.930 . S
H3961 C3974 0.930 . S
H3962 C3975 0.930 . S
H3963 C3979 0.959 . S
H3964 C3979 0.959 . S
H3965 C3979 0.961 . S
H3966 C3980 0.960 . S
H3967 C3980 0.961 . S
H3968 C3980 0.959 . S
H3969 C3983 0.929 . S
H3970 C3984 0.931 . S
H3971 C3986 0.930 . S
C3972 H3960 0.930 . S
C3972 C3973 1.399 . S
C3972 C3977 1.399 . S
C3973 C3972 1.399 . S
C3973 C3974 1.376 . S
C3974 H3961 0.930 . S
C3974 C3973 1.376 . S
C3974 C3975 1.388 . S
C3975 H3962 0.930 . S
C3975 C3974 1.388 . S
C3975 C3976 1.390 . S
C3976 C3975 1.390 . S
C3976 C3977 1.394 . S
C3976 C3982 1.465 . S
C3977 C3972 1.399 . S
C3977 C3976 1.394 . S
C3977 C3978 1.516 . S
C3978 C3977 1.516 . S
C3978 C3979 1.502 . S
C3978 C3980 1.561 . S
C3978 C3981 1.526 . S
C3979 H3963 0.959 . S
C3979 H3964 0.959 . S
C3979 H3965 0.961 . S
C3979 C3978 1.502 . S
C3980 H3966 0.960 . S
C3980 H3967 0.961 . S
C3980 H3968 0.959 . S
C3980 C3978 1.561 . S
C3981 C3978 1.526 . S
C3981 C3982 1.396 . S
C3981 C3986 1.390 . S
C3982 C3976 1.465 . S
C3982 C3981 1.396 . S
C3982 C3983 1.399 . S
C3983 H3969 0.929 . S
C3983 C3982 1.399 . S
C3983 C3984 1.385 . S
C3984 H3970 0.931 . S
C3984 C3983 1.385 . S
C3984 C3985 1.389 . S
C3985 C3984 1.389 . S
C3985 C3986 1.387 . S
C3986 H3971 0.930 . S
C3986 C3981 1.390 . S
C3986 C3985 1.387 . S
H3987 C3999 0.930 . S
H3988 C4001 0.930 . S
H3989 C4002 0.930 . S
H3990 C4006 0.959 . S
H3991 C4006 0.959 . S
H3992 C4006 0.961 . S
H3993 C4007 0.960 . S
H3994 C4007 0.961 . S
H3995 C4007 0.959 . S
H3996 C4010 0.929 . S
H3997 C4011 0.931 . S
H3998 C4013 0.930 . S
C3999 H3987 0.930 . S
C3999 C4000 1.399 . S
C3999 C4004 1.399 . S
C4000 C3999 1.399 . S
C4000 C4001 1.376 . S
C4001 H3988 0.930 . S
C4001 C4000 1.376 . S
C4001 C4002 1.388 . S
C4002 H3989 0.930 . S
C4002 C4001 1.388 . S
C4002 C4003 1.390 . S
C4003 C4002 1.390 . S
C4003 C4004 1.394 . S
C4003 C4009 1.465 . S
C4004 C3999 1.399 . S
C4004 C4003 1.394 . S
C4004 C4005 1.516 . S
C4005 C4004 1.516 . S
C4005 C4006 1.502 . S
C4005 C4007 1.561 . S
C4005 C4008 1.526 . S
C4006 H3990 0.959 . S
C4006 H3991 0.959 . S
C4006 H3992 0.961 . S
C4006 C4005 1.502 . S
C4007 H3993 0.960 . S
C4007 H3994 0.961 . S
C4007 H3995 0.959 . S
C4007 C4005 1.561 . S
C4008 C4005 1.526 . S
C4008 C4009 1.396 . S
C4008 C4013 1.390 . S
C4009 C4003 1.465 . S
C4009 C4008 1.396 . S
C4009 C4010 1.399 . S
C4010 H3996 0.929 . S
C4010 C4009 1.399 . S
C4010 C4011 1.385 . S
C4011 H3997 0.931 . S
C4011 C4010 1.385 . S
C4011 C4012 1.389 . S
C4012 C4011 1.389 . S
C4012 C4013 1.387 . S
C4013 H3998 0.930 . S
C4013 C4008 1.390 . S
C4013 C4012 1.387 . S
H4014 C4026 0.930 . S
H4015 C4028 0.930 . S
H4016 C4029 0.930 . S
H4017 C4033 0.959 . S
H4018 C4033 0.959 . S
H4019 C4033 0.961 . S
H4020 C4034 0.960 . S
H4021 C4034 0.961 . S
H4022 C4034 0.959 . S
H4023 C4037 0.929 . S
H4024 C4038 0.931 . S
H4025 C4040 0.930 . S
C4026 H4014 0.930 . S
C4026 C4027 1.399 . S
C4026 C4031 1.399 . S
C4027 C4026 1.399 . S
C4027 C4028 1.376 . S
C4028 H4015 0.930 . S
C4028 C4027 1.376 . S
C4028 C4029 1.388 . S
C4029 H4016 0.930 . S
C4029 C4028 1.388 . S
C4029 C4030 1.390 . S
C4030 C4029 1.390 . S
C4030 C4031 1.394 . S
C4030 C4036 1.465 . S
C4031 C4026 1.399 . S
C4031 C4030 1.394 . S
C4031 C4032 1.516 . S
C4032 C4031 1.516 . S
C4032 C4033 1.502 . S
C4032 C4034 1.561 . S
C4032 C4035 1.526 . S
C4033 H4017 0.959 . S
C4033 H4018 0.959 . S
C4033 H4019 0.961 . S
C4033 C4032 1.502 . S
C4034 H4020 0.960 . S
C4034 H4021 0.961 . S
C4034 H4022 0.959 . S
C4034 C4032 1.561 . S
C4035 C4032 1.526 . S
C4035 C4036 1.396 . S
C4035 C4040 1.390 . S
C4036 C4030 1.465 . S
C4036 C4035 1.396 . S
C4036 C4037 1.399 . S
C4037 H4023 0.929 . S
C4037 C4036 1.399 . S
C4037 C4038 1.385 . S
C4038 H4024 0.931 . S
C4038 C4037 1.385 . S
C4038 C4039 1.389 . S
C4039 C4038 1.389 . S
C4039 C4040 1.387 . S
C4040 H4025 0.930 . S
C4040 C4035 1.390 . S
C4040 C4039 1.387 . S
H4041 C4053 0.930 . S
H4042 C4055 0.930 . S
H4043 C4056 0.930 . S
H4044 C4060 0.959 . S
H4045 C4060 0.959 . S
H4046 C4060 0.961 . S
H4047 C4061 0.960 . S
H4048 C4061 0.961 . S
H4049 C4061 0.959 . S
H4050 C4064 0.929 . S
H4051 C4065 0.931 . S
H4052 C4067 0.930 . S
C4053 H4041 0.930 . S
C4053 C4054 1.399 . S
C4053 C4058 1.399 . S
C4054 C4053 1.399 . S
C4054 C4055 1.376 . S
C4055 H4042 0.930 . S
C4055 C4054 1.376 . S
C4055 C4056 1.388 . S
C4056 H4043 0.930 . S
C4056 C4055 1.388 . S
C4056 C4057 1.390 . S
C4057 C4056 1.390 . S
C4057 C4058 1.394 . S
C4057 C4063 1.465 . S
C4058 C4053 1.399 . S
C4058 C4057 1.394 . S
C4058 C4059 1.516 . S
C4059 C4058 1.516 . S
C4059 C4060 1.502 . S
C4059 C4061 1.561 . S
C4059 C4062 1.526 . S
C4060 H4044 0.959 . S
C4060 H4045 0.959 . S
C4060 H4046 0.961 . S
C4060 C4059 1.502 . S
C4061 H4047 0.960 . S
C4061 H4048 0.961 . S
C4061 H4049 0.959 . S
C4061 C4059 1.561 . S
C4062 C4059 1.526 . S
C4062 C4063 1.396 . S
C4062 C4067 1.390 . S
C4063 C4057 1.465 . S
C4063 C4062 1.396 . S
C4063 C4064 1.399 . S
C4064 H4050 0.929 . S
C4064 C4063 1.399 . S
C4064 C4065 1.385 . S
C4065 H4051 0.931 . S
C4065 C4064 1.385 . S
C4065 C4066 1.389 . S
C4066 C4065 1.389 . S
C4066 C4067 1.387 . S
C4067 H4052 0.930 . S
C4067 C4062 1.390 . S
C4067 C4066 1.387 . S
H4068 C4080 0.930 . S
H4069 C4082 0.930 . S
H4070 C4083 0.930 . S
H4071 C4087 0.959 . S
H4072 C4087 0.959 . S
H4073 C4087 0.961 . S
H4074 C4088 0.960 . S
H4075 C4088 0.961 . S
H4076 C4088 0.959 . S
H4077 C4091 0.929 . S
H4078 C4092 0.931 . S
H4079 C4094 0.930 . S
C4080 H4068 0.930 . S
C4080 C4081 1.399 . S
C4080 C4085 1.399 . S
C4081 C4080 1.399 . S
C4081 C4082 1.376 . S
C4082 H4069 0.930 . S
C4082 C4081 1.376 . S
C4082 C4083 1.388 . S
C4083 H4070 0.930 . S
C4083 C4082 1.388 . S
C4083 C4084 1.390 . S
C4084 C4083 1.390 . S
C4084 C4085 1.394 . S
C4084 C4090 1.465 . S
C4085 C4080 1.399 . S
C4085 C4084 1.394 . S
C4085 C4086 1.516 . S
C4086 C4085 1.516 . S
C4086 C4087 1.502 . S
C4086 C4088 1.561 . S
C4086 C4089 1.526 . S
C4087 H4071 0.959 . S
C4087 H4072 0.959 . S
C4087 H4073 0.961 . S
C4087 C4086 1.502 . S
C4088 H4074 0.960 . S
C4088 H4075 0.961 . S
C4088 H4076 0.959 . S
C4088 C4086 1.561 . S
C4089 C4086 1.526 . S
C4089 C4090 1.396 . S
C4089 C4094 1.390 . S
C4090 C4084 1.465 . S
C4090 C4089 1.396 . S
C4090 C4091 1.399 . S
C4091 H4077 0.929 . S
C4091 C4090 1.399 . S
C4091 C4092 1.385 . S
C4092 H4078 0.931 . S
C4092 C4091 1.385 . S
C4092 C4093 1.389 . S
C4093 C4092 1.389 . S
C4093 C4094 1.387 . S
C4094 H4079 0.930 . S
C4094 C4089 1.390 . S
C4094 C4093 1.387 . S
H4095 C4107 0.930 . S
H4096 C4109 0.930 . S
H4097 C4110 0.930 . S
H4098 C4114 0.959 . S
H4099 C4114 0.959 . S
H4100 C4114 0.961 . S
H4101 C4115 0.960 . S
H4102 C4115 0.961 . S
H4103 C4115 0.959 . S
H4104 C4118 0.929 . S
H4105 C4119 0.931 . S
H4106 C4121 0.930 . S
C4107 H4095 0.930 . S
C4107 C4108 1.399 . S
C4107 C4112 1.399 . S
C4108 C4107 1.399 . S
C4108 C4109 1.376 . S
C4109 H4096 0.930 . S
C4109 C4108 1.376 . S
C4109 C4110 1.388 . S
C4110 H4097 0.930 . S
C4110 C4109 1.388 . S
C4110 C4111 1.390 . S
C4111 C4110 1.390 . S
C4111 C4112 1.394 . S
C4111 C4117 1.465 . S
C4112 C4107 1.399 . S
C4112 C4111 1.394 . S
C4112 C4113 1.516 . S
C4113 C4112 1.516 . S
C4113 C4114 1.502 . S
C4113 C4115 1.561 . S
C4113 C4116 1.526 . S
C4114 H4098 0.959 . S
C4114 H4099 0.959 . S
C4114 H4100 0.961 . S
C4114 C4113 1.502 . S
C4115 H4101 0.960 . S
C4115 H4102 0.961 . S
C4115 H4103 0.959 . S
C4115 C4113 1.561 . S
C4116 C4113 1.526 . S
C4116 C4117 1.396 . S
C4116 C4121 1.390 . S
C4117 C4111 1.465 . S
C4117 C4116 1.396 . S
C4117 C4118 1.399 . S
C4118 H4104 0.929 . S
C4118 C4117 1.399 . S
C4118 C4119 1.385 . S
C4119 H4105 0.931 . S
C4119 C4118 1.385 . S
C4119 C4120 1.389 . S
C4120 C4119 1.389 . S
C4120 C4121 1.387 . S
C4121 H4106 0.930 . S
C4121 C4116 1.390 . S
C4121 C4120 1.387 . S
H4122 C4134 0.930 . S
H4123 C4136 0.930 . S
H4124 C4137 0.930 . S
H4125 C4141 0.959 . S
H4126 C4141 0.959 . S
H4127 C4141 0.961 . S
H4128 C4142 0.960 . S
H4129 C4142 0.961 . S
H4130 C4142 0.959 . S
H4131 C4145 0.929 . S
H4132 C4146 0.931 . S
H4133 C4148 0.930 . S
C4134 H4122 0.930 . S
C4134 C4135 1.399 . S
C4134 C4139 1.399 . S
C4135 C4134 1.399 . S
C4135 C4136 1.376 . S
C4136 H4123 0.930 . S
C4136 C4135 1.376 . S
C4136 C4137 1.388 . S
C4137 H4124 0.930 . S
C4137 C4136 1.388 . S
C4137 C4138 1.390 . S
C4138 C4137 1.390 . S
C4138 C4139 1.394 . S
C4138 C4144 1.465 . S
C4139 C4134 1.399 . S
C4139 C4138 1.394 . S
C4139 C4140 1.516 . S
C4140 C4139 1.516 . S
C4140 C4141 1.502 . S
C4140 C4142 1.561 . S
C4140 C4143 1.526 . S
C4141 H4125 0.959 . S
C4141 H4126 0.959 . S
C4141 H4127 0.961 . S
C4141 C4140 1.502 . S
C4142 H4128 0.960 . S
C4142 H4129 0.961 . S
C4142 H4130 0.959 . S
C4142 C4140 1.561 . S
C4143 C4140 1.526 . S
C4143 C4144 1.396 . S
C4143 C4148 1.390 . S
C4144 C4138 1.465 . S
C4144 C4143 1.396 . S
C4144 C4145 1.399 . S
C4145 H4131 0.929 . S
C4145 C4144 1.399 . S
C4145 C4146 1.385 . S
C4146 H4132 0.931 . S
C4146 C4145 1.385 . S
C4146 C4147 1.389 . S
C4147 C4146 1.389 . S
C4147 C4148 1.387 . S
C4148 H4133 0.930 . S
C4148 C4143 1.390 . S
C4148 C4147 1.387 . S
H4149 C4161 0.930 . S
H4150 C4163 0.930 . S
H4151 C4164 0.930 . S
H4152 C4168 0.959 . S
H4153 C4168 0.959 . S
H4154 C4168 0.961 . S
H4155 C4169 0.960 . S
H4156 C4169 0.961 . S
H4157 C4169 0.959 . S
H4158 C4172 0.929 . S
H4159 C4173 0.931 . S
H4160 C4175 0.930 . S
C4161 H4149 0.930 . S
C4161 C4162 1.399 . S
C4161 C4166 1.399 . S
C4162 C4161 1.399 . S
C4162 C4163 1.376 . S
C4163 H4150 0.930 . S
C4163 C4162 1.376 . S
C4163 C4164 1.388 . S
C4164 H4151 0.930 . S
C4164 C4163 1.388 . S
C4164 C4165 1.390 . S
C4165 C4164 1.390 . S
C4165 C4166 1.394 . S
C4165 C4171 1.465 . S
C4166 C4161 1.399 . S
C4166 C4165 1.394 . S
C4166 C4167 1.516 . S
C4167 C4166 1.516 . S
C4167 C4168 1.502 . S
C4167 C4169 1.561 . S
C4167 C4170 1.526 . S
C4168 H4152 0.959 . S
C4168 H4153 0.959 . S
C4168 H4154 0.961 . S
C4168 C4167 1.502 . S
C4169 H4155 0.960 . S
C4169 H4156 0.961 . S
C4169 H4157 0.959 . S
C4169 C4167 1.561 . S
C4170 C4167 1.526 . S
C4170 C4171 1.396 . S
C4170 C4175 1.390 . S
C4171 C4165 1.465 . S
C4171 C4170 1.396 . S
C4171 C4172 1.399 . S
C4172 H4158 0.929 . S
C4172 C4171 1.399 . S
C4172 C4173 1.385 . S
C4173 H4159 0.931 . S
C4173 C4172 1.385 . S
C4173 C4174 1.389 . S
C4174 C4173 1.389 . S
C4174 C4175 1.387 . S
C4175 H4160 0.930 . S
C4175 C4170 1.390 . S
C4175 C4174 1.387 . S
H4176 C4188 0.930 . S
H4177 C4190 0.930 . S
H4178 C4191 0.930 . S
H4179 C4195 0.959 . S
H4180 C4195 0.959 . S
H4181 C4195 0.961 1_565 S
H4182 C4196 0.960 . S
H4183 C4196 0.961 1_545 S
H4184 C4196 0.959 . S
H4185 C4199 0.929 . S
H4186 C4200 0.931 . S
H4187 C4202 0.930 . S
C4188 H4176 0.930 . S
C4188 C4189 1.399 . S
C4188 C4193 1.399 . S
C4189 C4188 1.399 . S
C4189 C4190 1.376 . S
C4190 H4177 0.930 . S
C4190 C4189 1.376 . S
C4190 C4191 1.388 . S
C4191 H4178 0.930 . S
C4191 C4190 1.388 . S
C4191 C4192 1.390 . S
C4192 C4191 1.390 . S
C4192 C4193 1.394 . S
C4192 C4198 1.465 1_565 S
C4193 C4188 1.399 . S
C4193 C4192 1.394 . S
C4193 C4194 1.516 1_565 S
C4194 C4193 1.516 1_545 S
C4194 C4195 1.502 . S
C4194 C4196 1.561 1_545 S
C4194 C4197 1.526 . S
C4195 H4179 0.959 . S
C4195 H4180 0.959 . S
C4195 H4181 0.961 1_545 S
C4195 C4194 1.502 . S
C4196 H4182 0.960 . S
C4196 H4183 0.961 1_565 S
C4196 H4184 0.959 . S
C4196 C4194 1.561 1_565 S
C4197 C4194 1.526 . S
C4197 C4198 1.396 . S
C4197 C4202 1.390 . S
C4198 C4192 1.465 1_545 S
C4198 C4197 1.396 . S
C4198 C4199 1.399 . S
C4199 H4185 0.929 . S
C4199 C4198 1.399 . S
C4199 C4200 1.385 . S
C4200 H4186 0.931 . S
C4200 C4199 1.385 . S
C4200 C4201 1.389 . S
C4201 C4200 1.389 . S
C4201 C4202 1.387 . S
C4202 H4187 0.930 . S
C4202 C4197 1.390 . S
C4202 C4201 1.387 . S
H4203 C4215 0.930 . S
H4204 C4217 0.930 . S
H4205 C4218 0.930 . S
H4206 C4222 0.959 . S
H4207 C4222 0.959 . S
H4208 C4222 0.961 . S
H4209 C4223 0.960 . S
H4210 C4223 0.961 . S
H4211 C4223 0.959 . S
H4212 C4226 0.929 . S
H4213 C4227 0.931 . S
H4214 C4229 0.930 . S
C4215 H4203 0.930 . S
C4215 C4216 1.399 . S
C4215 C4220 1.399 . S
C4216 C4215 1.399 . S
C4216 C4217 1.376 . S
C4217 H4204 0.930 . S
C4217 C4216 1.376 . S
C4217 C4218 1.388 . S
C4218 H4205 0.930 . S
C4218 C4217 1.388 . S
C4218 C4219 1.390 . S
C4219 C4218 1.390 . S
C4219 C4220 1.394 . S
C4219 C4225 1.465 1_455 S
C4220 C4215 1.399 . S
C4220 C4219 1.394 . S
C4220 C4221 1.516 . S
C4221 C4220 1.516 . S
C4221 C4222 1.502 . S
C4221 C4223 1.561 . S
C4221 C4224 1.526 1_455 S
C4222 H4206 0.959 . S
C4222 H4207 0.959 . S
C4222 H4208 0.961 . S
C4222 C4221 1.502 . S
C4223 H4209 0.960 . S
C4223 H4210 0.961 . S
C4223 H4211 0.959 . S
C4223 C4221 1.561 . S
C4224 C4221 1.526 1_655 S
C4224 C4225 1.396 . S
C4224 C4229 1.390 . S
C4225 C4219 1.465 1_655 S
C4225 C4224 1.396 . S
C4225 C4226 1.399 . S
C4226 H4212 0.929 . S
C4226 C4225 1.399 . S
C4226 C4227 1.385 . S
C4227 H4213 0.931 . S
C4227 C4226 1.385 . S
C4227 C4228 1.389 . S
C4228 C4227 1.389 . S
C4228 C4229 1.387 . S
C4229 H4214 0.930 . S
C4229 C4224 1.390 . S
C4229 C4228 1.387 . S
H4230 C4242 0.930 . S
H4231 C4244 0.930 . S
H4232 C4245 0.930 . S
H4233 C4249 0.959 . S
H4234 C4249 0.959 . S
H4235 C4249 0.961 . S
H4236 C4250 0.960 . S
H4237 C4250 0.961 . S
H4238 C4250 0.959 . S
H4239 C4253 0.929 . S
H4240 C4254 0.931 . S
H4241 C4256 0.930 . S
C4242 H4230 0.930 . S
C4242 C4243 1.399 . S
C4242 C4247 1.399 . S
C4243 C4242 1.399 . S
C4243 C4244 1.376 . S
C4244 H4231 0.930 . S
C4244 C4243 1.376 . S
C4244 C4245 1.388 . S
C4245 H4232 0.930 . S
C4245 C4244 1.388 . S
C4245 C4246 1.390 . S
C4246 C4245 1.390 . S
C4246 C4247 1.394 . S
C4246 C4252 1.465 . S
C4247 C4242 1.399 . S
C4247 C4246 1.394 . S
C4247 C4248 1.516 . S
C4248 C4247 1.516 . S
C4248 C4249 1.502 . S
C4248 C4250 1.561 . S
C4248 C4251 1.526 . S
C4249 H4233 0.959 . S
C4249 H4234 0.959 . S
C4249 H4235 0.961 . S
C4249 C4248 1.502 . S
C4250 H4236 0.960 . S
C4250 H4237 0.961 . S
C4250 H4238 0.959 . S
C4250 C4248 1.561 . S
C4251 C4248 1.526 . S
C4251 C4252 1.396 . S
C4251 C4256 1.390 . S
C4252 C4246 1.465 . S
C4252 C4251 1.396 . S
C4252 C4253 1.399 . S
C4253 H4239 0.929 . S
C4253 C4252 1.399 . S
C4253 C4254 1.385 . S
C4254 H4240 0.931 . S
C4254 C4253 1.385 . S
C4254 C4255 1.389 . S
C4255 C4254 1.389 . S
C4255 C4256 1.387 . S
C4256 H4241 0.930 . S
C4256 C4251 1.390 . S
C4256 C4255 1.387 . S
H4257 C4269 0.930 . S
H4258 C4271 0.930 . S
H4259 C4272 0.930 . S
H4260 C4276 0.959 . S
H4261 C4276 0.959 . S
H4262 C4276 0.961 . S
H4263 C4277 0.960 . S
H4264 C4277 0.961 . S
H4265 C4277 0.959 . S
H4266 C4280 0.929 . S
H4267 C4281 0.931 . S
H4268 C4283 0.930 . S
C4269 H4257 0.930 . S
C4269 C4270 1.399 . S
C4269 C4274 1.399 . S
C4270 C4269 1.399 . S
C4270 C4271 1.376 . S
C4271 H4258 0.930 . S
C4271 C4270 1.376 . S
C4271 C4272 1.388 . S
C4272 H4259 0.930 . S
C4272 C4271 1.388 . S
C4272 C4273 1.390 . S
C4273 C4272 1.390 . S
C4273 C4274 1.394 . S
C4273 C4279 1.465 . S
C4274 C4269 1.399 . S
C4274 C4273 1.394 . S
C4274 C4275 1.516 . S
C4275 C4274 1.516 . S
C4275 C4276 1.502 . S
C4275 C4277 1.561 . S
C4275 C4278 1.526 . S
C4276 H4260 0.959 . S
C4276 H4261 0.959 . S
C4276 H4262 0.961 . S
C4276 C4275 1.502 . S
C4277 H4263 0.960 . S
C4277 H4264 0.961 . S
C4277 H4265 0.959 . S
C4277 C4275 1.561 . S
C4278 C4275 1.526 . S
C4278 C4279 1.396 . S
C4278 C4283 1.390 . S
C4279 C4273 1.465 . S
C4279 C4278 1.396 . S
C4279 C4280 1.399 . S
C4280 H4266 0.929 . S
C4280 C4279 1.399 . S
C4280 C4281 1.385 . S
C4281 H4267 0.931 . S
C4281 C4280 1.385 . S
C4281 C4282 1.389 . S
C4282 C4281 1.389 . S
C4282 C4283 1.387 . S
C4283 H4268 0.930 . S
C4283 C4278 1.390 . S
C4283 C4282 1.387 . S
H4284 C4296 0.930 . S
H4285 C4298 0.930 . S
H4286 C4299 0.930 . S
H4287 C4303 0.959 . S
H4288 C4303 0.959 . S
H4289 C4303 0.961 . S
H4290 C4304 0.960 . S
H4291 C4304 0.961 . S
H4292 C4304 0.959 . S
H4293 C4307 0.929 . S
H4294 C4308 0.931 . S
H4295 C4310 0.930 . S
C4296 H4284 0.930 . S
C4296 C4297 1.399 . S
C4296 C4301 1.399 . S
C4297 C4296 1.399 . S
C4297 C4298 1.376 . S
C4298 H4285 0.930 . S
C4298 C4297 1.376 . S
C4298 C4299 1.388 . S
C4299 H4286 0.930 . S
C4299 C4298 1.388 . S
C4299 C4300 1.390 . S
C4300 C4299 1.390 . S
C4300 C4301 1.394 . S
C4300 C4306 1.465 . S
C4301 C4296 1.399 . S
C4301 C4300 1.394 . S
C4301 C4302 1.516 . S
C4302 C4301 1.516 . S
C4302 C4303 1.502 . S
C4302 C4304 1.561 . S
C4302 C4305 1.526 . S
C4303 H4287 0.959 . S
C4303 H4288 0.959 . S
C4303 H4289 0.961 . S
C4303 C4302 1.502 . S
C4304 H4290 0.960 . S
C4304 H4291 0.961 . S
C4304 H4292 0.959 . S
C4304 C4302 1.561 . S
C4305 C4302 1.526 . S
C4305 C4306 1.396 . S
C4305 C4310 1.390 . S
C4306 C4300 1.465 . S
C4306 C4305 1.396 . S
C4306 C4307 1.399 . S
C4307 H4293 0.929 . S
C4307 C4306 1.399 . S
C4307 C4308 1.385 . S
C4308 H4294 0.931 . S
C4308 C4307 1.385 . S
C4308 C4309 1.389 . S
C4309 C4308 1.389 . S
C4309 C4310 1.387 . S
C4310 H4295 0.930 . S
C4310 C4305 1.390 . S
C4310 C4309 1.387 . S
H4311 C4323 0.930 . S
H4312 C4325 0.930 . S
H4313 C4326 0.930 . S
H4314 C4330 0.959 . S
H4315 C4330 0.959 . S
H4316 C4330 0.961 . S
H4317 C4331 0.960 . S
H4318 C4331 0.961 . S
H4319 C4331 0.959 . S
H4320 C4334 0.929 . S
H4321 C4335 0.931 . S
H4322 C4337 0.930 . S
C4323 H4311 0.930 . S
C4323 C4324 1.399 . S
C4323 C4328 1.399 . S
C4324 C4323 1.399 . S
C4324 C4325 1.376 . S
C4325 H4312 0.930 . S
C4325 C4324 1.376 . S
C4325 C4326 1.388 . S
C4326 H4313 0.930 . S
C4326 C4325 1.388 . S
C4326 C4327 1.390 . S
C4327 C4326 1.390 . S
C4327 C4328 1.394 . S
C4327 C4333 1.465 . S
C4328 C4323 1.399 . S
C4328 C4327 1.394 . S
C4328 C4329 1.516 . S
C4329 C4328 1.516 . S
C4329 C4330 1.502 . S
C4329 C4331 1.561 . S
C4329 C4332 1.526 . S
C4330 H4314 0.959 . S
C4330 H4315 0.959 . S
C4330 H4316 0.961 . S
C4330 C4329 1.502 . S
C4331 H4317 0.960 . S
C4331 H4318 0.961 . S
C4331 H4319 0.959 . S
C4331 C4329 1.561 . S
C4332 C4329 1.526 . S
C4332 C4333 1.396 . S
C4332 C4337 1.390 . S
C4333 C4327 1.465 . S
C4333 C4332 1.396 . S
C4333 C4334 1.399 . S
C4334 H4320 0.929 . S
C4334 C4333 1.399 . S
C4334 C4335 1.385 . S
C4335 H4321 0.931 . S
C4335 C4334 1.385 . S
C4335 C4336 1.389 . S
C4336 C4335 1.389 . S
C4336 C4337 1.387 . S
C4337 H4322 0.930 . S
C4337 C4332 1.390 . S
C4337 C4336 1.387 . S
H4338 C4350 0.930 . S
H4339 C4352 0.930 . S
H4340 C4353 0.930 . S
H4341 C4357 0.959 . S
H4342 C4357 0.959 . S
H4343 C4357 0.961 . S
H4344 C4358 0.960 . S
H4345 C4358 0.961 . S
H4346 C4358 0.959 . S
H4347 C4361 0.929 . S
H4348 C4362 0.931 . S
H4349 C4364 0.930 . S
C4350 H4338 0.930 . S
C4350 C4351 1.399 1_565 S
C4350 C4355 1.399 . S
C4351 C4350 1.399 1_545 S
C4351 C4352 1.376 . S
C4352 H4339 0.930 . S
C4352 C4351 1.376 . S
C4352 C4353 1.388 . S
C4353 H4340 0.930 . S
C4353 C4352 1.388 . S
C4353 C4354 1.390 1_545 S
C4354 C4353 1.390 1_565 S
C4354 C4355 1.394 . S
C4354 C4360 1.465 . S
C4355 C4350 1.399 . S
C4355 C4354 1.394 . S
C4355 C4356 1.516 . S
C4356 C4355 1.516 . S
C4356 C4357 1.502 . S
C4356 C4358 1.561 . S
C4356 C4359 1.526 . S
C4357 H4341 0.959 . S
C4357 H4342 0.959 . S
C4357 H4343 0.961 . S
C4357 C4356 1.502 . S
C4358 H4344 0.960 . S
C4358 H4345 0.961 . S
C4358 H4346 0.959 . S
C4358 C4356 1.561 . S
C4359 C4356 1.526 . S
C4359 C4360 1.396 . S
C4359 C4364 1.390 . S
C4360 C4354 1.465 . S
C4360 C4359 1.396 . S
C4360 C4361 1.399 . S
C4361 H4347 0.929 . S
C4361 C4360 1.399 . S
C4361 C4362 1.385 . S
C4362 H4348 0.931 . S
C4362 C4361 1.385 . S
C4362 C4363 1.389 . S
C4363 C4362 1.389 . S
C4363 C4364 1.387 . S
C4364 H4349 0.930 . S
C4364 C4359 1.390 . S
C4364 C4363 1.387 . S
H4365 C4377 0.930 . S
H4366 C4379 0.930 . S
H4367 C4380 0.930 . S
H4368 C4384 0.964 . S
H4369 C4384 0.975 . S
H4370 C4384 0.939 1_655 S
H4371 C4385 0.956 1_655 S
H4372 C4385 0.963 . S
H4373 C4385 0.960 . S
H4374 C4388 0.929 . S
H4375 C4389 0.931 . S
H4376 C4391 0.930 . S
C4377 H4365 0.930 . S
C4377 C4378 1.399 . S
C4377 C4382 1.399 . S
C4378 C4377 1.399 . S
C4378 C4379 1.376 . S
C4379 H4366 0.930 . S
C4379 C4378 1.376 . S
C4379 C4380 1.388 . S
C4380 H4367 0.930 . S
C4380 C4379 1.388 . S
C4380 C4381 1.390 . S
C4381 C4380 1.390 . S
C4381 C4382 1.394 . S
C4381 C4387 1.465 1_655 S
C4382 C4377 1.399 . S
C4382 C4381 1.394 . S
C4382 C4383 1.516 1_655 S
C4383 C4382 1.516 1_455 S
C4383 C4384 1.505 . S
C4383 C4385 1.562 . S
C4383 C4386 1.526 . S
C4384 H4368 0.964 . S
C4384 H4369 0.975 . S
C4384 H4370 0.939 1_455 S
C4384 C4383 1.505 . S
C4385 H4371 0.956 1_455 S
C4385 H4372 0.963 . S
C4385 H4373 0.960 . S
C4385 C4383 1.562 . S
C4386 C4383 1.526 . S
C4386 C4387 1.396 . S
C4386 C4391 1.390 . S
C4387 C4381 1.465 1_455 S
C4387 C4386 1.396 . S
C4387 C4388 1.399 . S
C4388 H4374 0.929 . S
C4388 C4387 1.399 . S
C4388 C4389 1.385 . S
C4389 H4375 0.931 . S
C4389 C4388 1.385 . S
C4389 C4390 1.389 . S
C4390 C4389 1.389 . S
C4390 C4391 1.387 . S
C4391 H4376 0.930 . S
C4391 C4386 1.390 . S
C4391 C4390 1.387 . S
H4392 C4404 0.930 . S
H4393 C4406 0.930 . S
H4394 C4407 0.930 . S
H4395 C4411 0.959 . S
H4396 C4411 0.959 . S
H4397 C4411 0.961 . S
H4398 C4412 0.960 . S
H4399 C4412 0.961 . S
H4400 C4412 0.959 . S
H4401 C4415 0.929 . S
H4402 C4416 0.931 . S
H4403 C4418 0.930 . S
C4404 H4392 0.930 . S
C4404 C4405 1.399 . S
C4404 C4409 1.399 . S
C4405 C4404 1.399 . S
C4405 C4406 1.376 . S
C4406 H4393 0.930 . S
C4406 C4405 1.376 . S
C4406 C4407 1.388 . S
C4407 H4394 0.930 . S
C4407 C4406 1.388 . S
C4407 C4408 1.390 . S
C4408 C4407 1.390 . S
C4408 C4409 1.394 . S
C4408 C4414 1.465 1_554 S
C4409 C4404 1.399 . S
C4409 C4408 1.394 . S
C4409 C4410 1.516 . S
C4410 C4409 1.516 . S
C4410 C4411 1.502 . S
C4410 C4412 1.561 . S
C4410 C4413 1.526 1_554 S
C4411 H4395 0.959 . S
C4411 H4396 0.959 . S
C4411 H4397 0.961 . S
C4411 C4410 1.502 . S
C4412 H4398 0.960 . S
C4412 H4399 0.961 . S
C4412 H4400 0.959 . S
C4412 C4410 1.561 . S
C4413 C4410 1.526 1_556 S
C4413 C4414 1.396 . S
C4413 C4418 1.390 . S
C4414 C4408 1.465 1_556 S
C4414 C4413 1.396 . S
C4414 C4415 1.399 . S
C4415 H4401 0.929 . S
C4415 C4414 1.399 . S
C4415 C4416 1.385 . S
C4416 H4402 0.931 . S
C4416 C4415 1.385 . S
C4416 C4417 1.389 . S
C4417 C4416 1.389 . S
C4417 C4418 1.387 . S
C4418 H4403 0.930 . S
C4418 C4413 1.390 . S
C4418 C4417 1.387 . S
H4419 C4431 0.930 . S
H4420 C4433 0.930 . S
H4421 C4434 0.930 . S
H4422 C4438 0.959 . S
H4423 C4438 0.959 . S
H4424 C4438 0.961 . S
H4425 C4439 0.960 . S
H4426 C4439 0.961 . S
H4427 C4439 0.959 . S
H4428 C4442 0.929 . S
H4429 C4443 0.931 . S
H4430 C4445 0.930 . S
C4431 H4419 0.930 . S
C4431 C4432 1.399 . S
C4431 C4436 1.399 . S
C4432 C4431 1.399 . S
C4432 C4433 1.376 . S
C4433 H4420 0.930 . S
C4433 C4432 1.376 . S
C4433 C4434 1.388 . S
C4434 H4421 0.930 . S
C4434 C4433 1.388 . S
C4434 C4435 1.390 . S
C4435 C4434 1.390 . S
C4435 C4436 1.394 . S
C4435 C4441 1.465 . S
C4436 C4431 1.399 . S
C4436 C4435 1.394 . S
C4436 C4437 1.516 . S
C4437 C4436 1.516 . S
C4437 C4438 1.502 . S
C4437 C4439 1.561 . S
C4437 C4440 1.526 . S
C4438 H4422 0.959 . S
C4438 H4423 0.959 . S
C4438 H4424 0.961 . S
C4438 C4437 1.502 . S
C4439 H4425 0.960 . S
C4439 H4426 0.961 . S
C4439 H4427 0.959 . S
C4439 C4437 1.561 . S
C4440 C4437 1.526 . S
C4440 C4441 1.396 . S
C4440 C4445 1.390 . S
C4441 C4435 1.465 . S
C4441 C4440 1.396 . S
C4441 C4442 1.399 . S
C4442 H4428 0.929 . S
C4442 C4441 1.399 . S
C4442 C4443 1.385 . S
C4443 H4429 0.931 . S
C4443 C4442 1.385 . S
C4443 C4444 1.389 . S
C4444 C4443 1.389 . S
C4444 C4445 1.387 . S
C4445 H4430 0.930 . S
C4445 C4440 1.390 . S
C4445 C4444 1.387 . S
H4446 C4458 0.930 . S
H4447 C4460 0.930 . S
H4448 C4461 0.930 . S
H4449 C4465 0.959 . S
H4450 C4465 0.959 . S
H4451 C4465 0.961 . S
H4452 C4466 0.960 . S
H4453 C4466 0.961 . S
H4454 C4466 0.959 . S
H4455 C4469 0.929 . S
H4456 C4470 0.931 . S
H4457 C4472 0.930 . S
C4458 H4446 0.930 . S
C4458 C4459 1.399 . S
C4458 C4463 1.399 . S
C4459 C4458 1.399 . S
C4459 C4460 1.376 . S
C4460 H4447 0.930 . S
C4460 C4459 1.376 . S
C4460 C4461 1.388 . S
C4461 H4448 0.930 . S
C4461 C4460 1.388 . S
C4461 C4462 1.390 . S
C4462 C4461 1.390 . S
C4462 C4463 1.394 . S
C4462 C4468 1.465 . S
C4463 C4458 1.399 . S
C4463 C4462 1.394 . S
C4463 C4464 1.516 . S
C4464 C4463 1.516 . S
C4464 C4465 1.502 . S
C4464 C4466 1.561 . S
C4464 C4467 1.526 . S
C4465 H4449 0.959 . S
C4465 H4450 0.959 . S
C4465 H4451 0.961 . S
C4465 C4464 1.502 . S
C4466 H4452 0.960 . S
C4466 H4453 0.961 . S
C4466 H4454 0.959 . S
C4466 C4464 1.561 . S
C4467 C4464 1.526 . S
C4467 C4468 1.396 . S
C4467 C4472 1.390 . S
C4468 C4462 1.465 . S
C4468 C4467 1.396 . S
C4468 C4469 1.399 . S
C4469 H4455 0.929 . S
C4469 C4468 1.399 . S
C4469 C4470 1.385 . S
C4470 H4456 0.931 . S
C4470 C4469 1.385 . S
C4470 C4471 1.389 . S
C4471 C4470 1.389 . S
C4471 C4472 1.387 . S
C4472 H4457 0.930 . S
C4472 C4467 1.390 . S
C4472 C4471 1.387 . S
H4473 C4485 0.930 . S
H4474 C4487 0.930 . S
H4475 C4488 0.930 . S
H4476 C4492 0.959 . S
H4477 C4492 0.959 . S
H4478 C4492 0.961 . S
H4479 C4493 0.960 . S
H4480 C4493 0.961 . S
H4481 C4493 0.959 . S
H4482 C4496 0.929 . S
H4483 C4497 0.931 . S
H4484 C4499 0.930 . S
C4485 H4473 0.930 . S
C4485 C4486 1.399 . S
C4485 C4490 1.399 . S
C4486 C4485 1.399 . S
C4486 C4487 1.376 . S
C4487 H4474 0.930 . S
C4487 C4486 1.376 . S
C4487 C4488 1.388 . S
C4488 H4475 0.930 . S
C4488 C4487 1.388 . S
C4488 C4489 1.390 . S
C4489 C4488 1.390 . S
C4489 C4490 1.394 . S
C4489 C4495 1.465 . S
C4490 C4485 1.399 . S
C4490 C4489 1.394 . S
C4490 C4491 1.516 . S
C4491 C4490 1.516 . S
C4491 C4492 1.502 . S
C4491 C4493 1.561 . S
C4491 C4494 1.526 . S
C4492 H4476 0.959 . S
C4492 H4477 0.959 . S
C4492 H4478 0.961 . S
C4492 C4491 1.502 . S
C4493 H4479 0.960 . S
C4493 H4480 0.961 . S
C4493 H4481 0.959 . S
C4493 C4491 1.561 . S
C4494 C4491 1.526 . S
C4494 C4495 1.396 . S
C4494 C4499 1.390 . S
C4495 C4489 1.465 . S
C4495 C4494 1.396 . S
C4495 C4496 1.399 . S
C4496 H4482 0.929 . S
C4496 C4495 1.399 . S
C4496 C4497 1.385 . S
C4497 H4483 0.931 . S
C4497 C4496 1.385 . S
C4497 C4498 1.389 . S
C4498 C4497 1.389 . S
C4498 C4499 1.387 . S
C4499 H4484 0.930 . S
C4499 C4494 1.390 . S
C4499 C4498 1.387 . S
H4500 C4512 0.930 . S
H4501 C4514 0.930 . S
H4502 C4515 0.930 . S
H4503 C4519 0.959 . S
H4504 C4519 0.959 . S
H4505 C4519 0.961 . S
H4506 C4520 0.960 . S
H4507 C4520 0.961 . S
H4508 C4520 0.959 . S
H4509 C4523 0.929 . S
H4510 C4524 0.931 . S
H4511 C4526 0.930 . S
C4512 H4500 0.930 . S
C4512 C4513 1.399 . S
C4512 C4517 1.399 . S
C4513 C4512 1.399 . S
C4513 C4514 1.376 . S
C4514 H4501 0.930 . S
C4514 C4513 1.376 . S
C4514 C4515 1.388 . S
C4515 H4502 0.930 . S
C4515 C4514 1.388 . S
C4515 C4516 1.390 . S
C4516 C4515 1.390 . S
C4516 C4517 1.394 . S
C4516 C4522 1.465 . S
C4517 C4512 1.399 . S
C4517 C4516 1.394 . S
C4517 C4518 1.516 . S
C4518 C4517 1.516 . S
C4518 C4519 1.502 . S
C4518 C4520 1.561 . S
C4518 C4521 1.526 . S
C4519 H4503 0.959 . S
C4519 H4504 0.959 . S
C4519 H4505 0.961 . S
C4519 C4518 1.502 . S
C4520 H4506 0.960 . S
C4520 H4507 0.961 . S
C4520 H4508 0.959 . S
C4520 C4518 1.561 . S
C4521 C4518 1.526 . S
C4521 C4522 1.396 . S
C4521 C4526 1.390 . S
C4522 C4516 1.465 . S
C4522 C4521 1.396 . S
C4522 C4523 1.399 . S
C4523 H4509 0.929 . S
C4523 C4522 1.399 . S
C4523 C4524 1.385 . S
C4524 H4510 0.931 . S
C4524 C4523 1.385 . S
C4524 C4525 1.389 . S
C4525 C4524 1.389 . S
C4525 C4526 1.387 . S
C4526 H4511 0.930 . S
C4526 C4521 1.390 . S
C4526 C4525 1.387 . S
H4527 C4539 0.930 . S
H4528 C4541 0.930 . S
H4529 C4542 0.930 . S
H4530 C4546 0.959 . S
H4531 C4546 0.959 . S
H4532 C4546 0.961 . S
H4533 C4547 0.960 . S
H4534 C4547 0.961 . S
H4535 C4547 0.959 . S
H4536 C4550 0.929 . S
H4537 C4551 0.931 . S
H4538 C4553 0.930 . S
C4539 H4527 0.930 . S
C4539 C4540 1.399 . S
C4539 C4544 1.399 . S
C4540 C4539 1.399 . S
C4540 C4541 1.376 . S
C4541 H4528 0.930 . S
C4541 C4540 1.376 . S
C4541 C4542 1.388 . S
C4542 H4529 0.930 . S
C4542 C4541 1.388 . S
C4542 C4543 1.390 . S
C4543 C4542 1.390 . S
C4543 C4544 1.394 . S
C4543 C4549 1.465 . S
C4544 C4539 1.399 . S
C4544 C4543 1.394 . S
C4544 C4545 1.516 . S
C4545 C4544 1.516 . S
C4545 C4546 1.502 . S
C4545 C4547 1.561 . S
C4545 C4548 1.526 . S
C4546 H4530 0.959 . S
C4546 H4531 0.959 . S
C4546 H4532 0.961 . S
C4546 C4545 1.502 . S
C4547 H4533 0.960 . S
C4547 H4534 0.961 . S
C4547 H4535 0.959 . S
C4547 C4545 1.561 . S
C4548 C4545 1.526 . S
C4548 C4549 1.396 . S
C4548 C4553 1.390 . S
C4549 C4543 1.465 . S
C4549 C4548 1.396 . S
C4549 C4550 1.399 . S
C4550 H4536 0.929 . S
C4550 C4549 1.399 . S
C4550 C4551 1.385 . S
C4551 H4537 0.931 . S
C4551 C4550 1.385 . S
C4551 C4552 1.389 . S
C4552 C4551 1.389 . S
C4552 C4553 1.387 . S
C4553 H4538 0.930 . S
C4553 C4548 1.390 . S
C4553 C4552 1.387 . S
H4554 C4566 0.930 . S
H4555 C4568 0.930 . S
H4556 C4569 0.930 . S
H4557 C4573 0.959 . S
H4558 C4573 0.959 . S
H4559 C4573 0.961 . S
H4560 C4574 0.960 . S
H4561 C4574 0.961 . S
H4562 C4574 0.959 . S
H4563 C4577 0.929 . S
H4564 C4578 0.931 . S
H4565 C4580 0.930 . S
C4566 H4554 0.930 . S
C4566 C4567 1.399 . S
C4566 C4571 1.399 . S
C4567 C4566 1.399 . S
C4567 C4568 1.376 . S
C4568 H4555 0.930 . S
C4568 C4567 1.376 . S
C4568 C4569 1.388 . S
C4569 H4556 0.930 . S
C4569 C4568 1.388 . S
C4569 C4570 1.390 . S
C4570 C4569 1.390 . S
C4570 C4571 1.394 . S
C4570 C4576 1.465 . S
C4571 C4566 1.399 . S
C4571 C4570 1.394 . S
C4571 C4572 1.516 . S
C4572 C4571 1.516 . S
C4572 C4573 1.502 . S
C4572 C4574 1.561 . S
C4572 C4575 1.526 . S
C4573 H4557 0.959 . S
C4573 H4558 0.959 . S
C4573 H4559 0.961 . S
C4573 C4572 1.502 . S
C4574 H4560 0.960 . S
C4574 H4561 0.961 . S
C4574 H4562 0.959 . S
C4574 C4572 1.561 . S
C4575 C4572 1.526 . S
C4575 C4576 1.396 . S
C4575 C4580 1.390 . S
C4576 C4570 1.465 . S
C4576 C4575 1.396 . S
C4576 C4577 1.399 . S
C4577 H4563 0.929 . S
C4577 C4576 1.399 . S
C4577 C4578 1.385 . S
C4578 H4564 0.931 . S
C4578 C4577 1.385 . S
C4578 C4579 1.389 . S
C4579 C4578 1.389 . S
C4579 C4580 1.387 . S
C4580 H4565 0.930 . S
C4580 C4575 1.390 . S
C4580 C4579 1.387 . S
H4581 C4593 0.930 . S
H4582 C4595 0.930 . S
H4583 C4596 0.930 . S
H4584 C4600 0.959 . S
H4585 C4600 0.959 . S
H4586 C4600 0.961 . S
H4587 C4601 0.965 . S
H4588 C4601 0.961 . S
H4589 C4601 0.959 . S
H4590 C4604 0.929 . S
H4591 C4605 0.931 . S
H4592 C4607 0.930 . S
C4593 H4581 0.930 . S
C4593 C4594 1.399 . S
C4593 C4598 1.399 . S
C4594 C4593 1.399 . S
C4594 C4595 1.376 . S
C4595 H4582 0.930 . S
C4595 C4594 1.376 . S
C4595 C4596 1.388 . S
C4596 H4583 0.930 . S
C4596 C4595 1.388 . S
C4596 C4597 1.390 . S
C4597 C4596 1.390 . S
C4597 C4598 1.394 . S
C4597 C4603 1.465 1_554 S
C4598 C4593 1.399 . S
C4598 C4597 1.394 . S
C4598 C4599 1.516 1_554 S
C4599 C4598 1.516 1_556 S
C4599 C4600 1.502 . S
C4599 C4601 1.561 . S
C4599 C4602 1.526 . S
C4600 H4584 0.959 . S
C4600 H4585 0.959 . S
C4600 H4586 0.961 . S
C4600 C4599 1.502 . S
C4601 H4587 0.965 . S
C4601 H4588 0.961 . S
C4601 H4589 0.959 . S
C4601 C4599 1.561 . S
C4602 C4599 1.526 . S
C4602 C4603 1.396 . S
C4602 C4607 1.390 . S
C4603 C4597 1.465 1_556 S
C4603 C4602 1.396 . S
C4603 C4604 1.399 . S
C4604 H4590 0.929 . S
C4604 C4603 1.399 . S
C4604 C4605 1.385 . S
C4605 H4591 0.931 . S
C4605 C4604 1.385 . S
C4605 C4606 1.389 . S
C4606 C4605 1.389 . S
C4606 C4607 1.387 . S
C4607 H4592 0.930 . S
C4607 C4602 1.390 . S
C4607 C4606 1.387 . S
H4608 C4620 0.930 . S
H4609 C4622 0.930 . S
H4610 C4623 0.930 . S
H4611 C4627 0.959 . S
H4612 C4627 0.959 . S
H4613 C4627 0.957 . S
H4614 C4628 0.960 1_655 S
H4615 C4628 0.961 . S
H4616 C4628 0.959 . S
H4617 C4631 0.929 . S
H4618 C4632 0.931 . S
H4619 C4634 0.930 . S
C4620 H4608 0.930 . S
C4620 C4621 1.399 . S
C4620 C4625 1.399 . S
C4621 C4620 1.399 . S
C4621 C4622 1.376 . S
C4622 H4609 0.930 . S
C4622 C4621 1.376 . S
C4622 C4623 1.388 . S
C4623 H4610 0.930 . S
C4623 C4622 1.388 . S
C4623 C4624 1.390 . S
C4624 C4623 1.390 . S
C4624 C4625 1.394 . S
C4624 C4630 1.465 1_655 S
C4625 C4620 1.399 . S
C4625 C4624 1.394 . S
C4625 C4626 1.516 1_655 S
C4626 C4625 1.516 1_455 S
C4626 C4627 1.502 . S
C4626 C4628 1.561 . S
C4626 C4629 1.526 . S
C4627 H4611 0.959 . S
C4627 H4612 0.959 . S
C4627 H4613 0.957 . S
C4627 C4626 1.502 . S
C4628 H4614 0.960 1_455 S
C4628 H4615 0.961 . S
C4628 H4616 0.959 . S
C4628 C4626 1.561 . S
C4629 C4626 1.526 . S
C4629 C4630 1.396 . S
C4629 C4634 1.390 . S
C4630 C4624 1.465 1_455 S
C4630 C4629 1.396 . S
C4630 C4631 1.399 . S
C4631 H4617 0.929 . S
C4631 C4630 1.399 . S
C4631 C4632 1.385 . S
C4632 H4618 0.931 . S
C4632 C4631 1.385 . S
C4632 C4633 1.389 . S
C4633 C4632 1.389 . S
C4633 C4634 1.387 . S
C4634 H4619 0.930 . S
C4634 C4629 1.390 . S
C4634 C4633 1.387 . S
H4635 C4647 0.930 . S
H4636 C4649 0.930 . S
H4637 C4650 0.930 . S
H4638 C4654 0.959 . S
H4639 C4654 0.959 . S
H4640 C4654 0.961 . S
H4641 C4655 0.960 . S
H4642 C4655 0.961 . S
H4643 C4655 0.959 . S
H4644 C4658 0.929 . S
H4645 C4659 0.931 . S
H4646 C4661 0.930 . S
C4647 H4635 0.930 . S
C4647 C4648 1.399 . S
C4647 C4652 1.399 . S
C4648 C4647 1.399 . S
C4648 C4649 1.376 . S
C4649 H4636 0.930 . S
C4649 C4648 1.376 . S
C4649 C4650 1.388 . S
C4650 H4637 0.930 . S
C4650 C4649 1.388 . S
C4650 C4651 1.390 . S
C4651 C4650 1.390 . S
C4651 C4652 1.394 . S
C4651 C4657 1.465 . S
C4652 C4647 1.399 . S
C4652 C4651 1.394 . S
C4652 C4653 1.516 . S
C4653 C4652 1.516 . S
C4653 C4654 1.502 . S
C4653 C4655 1.561 . S
C4653 C4656 1.526 . S
C4654 H4638 0.959 . S
C4654 H4639 0.959 . S
C4654 H4640 0.961 . S
C4654 C4653 1.502 . S
C4655 H4641 0.960 . S
C4655 H4642 0.961 . S
C4655 H4643 0.959 . S
C4655 C4653 1.561 . S
C4656 C4653 1.526 . S
C4656 C4657 1.396 . S
C4656 C4661 1.390 . S
C4657 C4651 1.465 . S
C4657 C4656 1.396 . S
C4657 C4658 1.399 . S
C4658 H4644 0.929 . S
C4658 C4657 1.399 . S
C4658 C4659 1.385 . S
C4659 H4645 0.931 . S
C4659 C4658 1.385 . S
C4659 C4660 1.389 . S
C4660 C4659 1.389 . S
C4660 C4661 1.387 . S
C4661 H4646 0.930 . S
C4661 C4656 1.390 . S
C4661 C4660 1.387 . S
H4662 C4674 0.930 . S
H4663 C4676 0.930 . S
H4664 C4677 0.930 . S
H4665 C4681 0.959 . S
H4666 C4681 0.959 . S
H4667 C4681 0.961 . S
H4668 C4682 0.960 . S
H4669 C4682 0.961 . S
H4670 C4682 0.959 . S
H4671 C4685 0.929 . S
H4672 C4686 0.931 . S
H4673 C4688 0.930 . S
C4674 H4662 0.930 . S
C4674 C4675 1.399 . S
C4674 C4679 1.399 . S
C4675 C4674 1.399 . S
C4675 C4676 1.376 . S
C4676 H4663 0.930 . S
C4676 C4675 1.376 . S
C4676 C4677 1.388 . S
C4677 H4664 0.930 . S
C4677 C4676 1.388 . S
C4677 C4678 1.390 . S
C4678 C4677 1.390 . S
C4678 C4679 1.394 . S
C4678 C4684 1.465 . S
C4679 C4674 1.399 . S
C4679 C4678 1.394 . S
C4679 C4680 1.516 . S
C4680 C4679 1.516 . S
C4680 C4681 1.502 . S
C4680 C4682 1.561 . S
C4680 C4683 1.526 . S
C4681 H4665 0.959 . S
C4681 H4666 0.959 . S
C4681 H4667 0.961 . S
C4681 C4680 1.502 . S
C4682 H4668 0.960 . S
C4682 H4669 0.961 . S
C4682 H4670 0.959 . S
C4682 C4680 1.561 . S
C4683 C4680 1.526 . S
C4683 C4684 1.396 . S
C4683 C4688 1.390 . S
C4684 C4678 1.465 . S
C4684 C4683 1.396 . S
C4684 C4685 1.399 . S
C4685 H4671 0.929 . S
C4685 C4684 1.399 . S
C4685 C4686 1.385 . S
C4686 H4672 0.931 . S
C4686 C4685 1.385 . S
C4686 C4687 1.389 . S
C4687 C4686 1.389 . S
C4687 C4688 1.387 . S
C4688 H4673 0.930 . S
C4688 C4683 1.390 . S
C4688 C4687 1.387 . S
H4689 C4701 0.930 . S
H4690 C4703 0.930 . S
H4691 C4704 0.930 . S
H4692 C4708 0.959 . S
H4693 C4708 0.959 . S
H4694 C4708 0.961 . S
H4695 C4709 0.960 . S
H4696 C4709 0.961 . S
H4697 C4709 0.959 . S
H4698 C4712 0.929 . S
H4699 C4713 0.931 . S
H4700 C4715 0.930 . S
C4701 H4689 0.930 . S
C4701 C4702 1.399 . S
C4701 C4706 1.399 . S
C4702 C4701 1.399 . S
C4702 C4703 1.376 . S
C4703 H4690 0.930 . S
C4703 C4702 1.376 . S
C4703 C4704 1.388 . S
C4704 H4691 0.930 . S
C4704 C4703 1.388 . S
C4704 C4705 1.390 . S
C4705 C4704 1.390 . S
C4705 C4706 1.394 . S
C4705 C4711 1.465 . S
C4706 C4701 1.399 . S
C4706 C4705 1.394 . S
C4706 C4707 1.516 . S
C4707 C4706 1.516 . S
C4707 C4708 1.502 . S
C4707 C4709 1.561 . S
C4707 C4710 1.526 . S
C4708 H4692 0.959 . S
C4708 H4693 0.959 . S
C4708 H4694 0.961 . S
C4708 C4707 1.502 . S
C4709 H4695 0.960 . S
C4709 H4696 0.961 . S
C4709 H4697 0.959 . S
C4709 C4707 1.561 . S
C4710 C4707 1.526 . S
C4710 C4711 1.396 . S
C4710 C4715 1.390 . S
C4711 C4705 1.465 . S
C4711 C4710 1.396 . S
C4711 C4712 1.399 . S
C4712 H4698 0.929 . S
C4712 C4711 1.399 . S
C4712 C4713 1.385 . S
C4713 H4699 0.931 . S
C4713 C4712 1.385 . S
C4713 C4714 1.389 . S
C4714 C4713 1.389 . S
C4714 C4715 1.387 . S
C4715 H4700 0.930 . S
C4715 C4710 1.390 . S
C4715 C4714 1.387 . S
H4716 C4728 0.930 . S
H4717 C4730 0.930 . S
H4718 C4731 0.930 . S
H4719 C4735 0.959 . S
H4720 C4735 0.959 . S
H4721 C4735 0.961 . S
H4722 C4736 0.960 . S
H4723 C4736 0.961 . S
H4724 C4736 0.959 . S
H4725 C4739 0.929 . S
H4726 C4740 0.931 . S
H4727 C4742 0.930 . S
C4728 H4716 0.930 . S
C4728 C4729 1.399 . S
C4728 C4733 1.399 . S
C4729 C4728 1.399 . S
C4729 C4730 1.376 . S
C4730 H4717 0.930 . S
C4730 C4729 1.376 . S
C4730 C4731 1.388 . S
C4731 H4718 0.930 . S
C4731 C4730 1.388 . S
C4731 C4732 1.390 . S
C4732 C4731 1.390 . S
C4732 C4733 1.394 . S
C4732 C4738 1.465 . S
C4733 C4728 1.399 . S
C4733 C4732 1.394 . S
C4733 C4734 1.516 . S
C4734 C4733 1.516 . S
C4734 C4735 1.502 . S
C4734 C4736 1.561 . S
C4734 C4737 1.526 . S
C4735 H4719 0.959 . S
C4735 H4720 0.959 . S
C4735 H4721 0.961 . S
C4735 C4734 1.502 . S
C4736 H4722 0.960 . S
C4736 H4723 0.961 . S
C4736 H4724 0.959 . S
C4736 C4734 1.561 . S
C4737 C4734 1.526 . S
C4737 C4738 1.396 . S
C4737 C4742 1.390 . S
C4738 C4732 1.465 . S
C4738 C4737 1.396 . S
C4738 C4739 1.399 . S
C4739 H4725 0.929 . S
C4739 C4738 1.399 . S
C4739 C4740 1.385 . S
C4740 H4726 0.931 . S
C4740 C4739 1.385 . S
C4740 C4741 1.389 . S
C4741 C4740 1.389 . S
C4741 C4742 1.387 . S
C4742 H4727 0.930 . S
C4742 C4737 1.390 . S
C4742 C4741 1.387 . S
H4743 C4755 0.930 . S
H4744 C4757 0.930 . S
H4745 C4758 0.930 . S
H4746 C4762 0.959 . S
H4747 C4762 0.959 . S
H4748 C4762 0.961 . S
H4749 C4763 0.960 . S
H4750 C4763 0.961 . S
H4751 C4763 0.959 . S
H4752 C4766 0.929 . S
H4753 C4767 0.931 . S
H4754 C4769 0.930 . S
C4755 H4743 0.930 . S
C4755 C4756 1.399 . S
C4755 C4760 1.399 . S
C4756 C4755 1.399 . S
C4756 C4757 1.376 . S
C4757 H4744 0.930 . S
C4757 C4756 1.376 . S
C4757 C4758 1.388 . S
C4758 H4745 0.930 . S
C4758 C4757 1.388 . S
C4758 C4759 1.390 . S
C4759 C4758 1.390 . S
C4759 C4760 1.394 . S
C4759 C4765 1.465 . S
C4760 C4755 1.399 . S
C4760 C4759 1.394 . S
C4760 C4761 1.516 . S
C4761 C4760 1.516 . S
C4761 C4762 1.502 . S
C4761 C4763 1.561 . S
C4761 C4764 1.526 . S
C4762 H4746 0.959 . S
C4762 H4747 0.959 . S
C4762 H4748 0.961 . S
C4762 C4761 1.502 . S
C4763 H4749 0.960 . S
C4763 H4750 0.961 . S
C4763 H4751 0.959 . S
C4763 C4761 1.561 . S
C4764 C4761 1.526 . S
C4764 C4765 1.396 . S
C4764 C4769 1.390 . S
C4765 C4759 1.465 . S
C4765 C4764 1.396 . S
C4765 C4766 1.399 . S
C4766 H4752 0.929 . S
C4766 C4765 1.399 . S
C4766 C4767 1.385 . S
C4767 H4753 0.931 . S
C4767 C4766 1.385 . S
C4767 C4768 1.389 . S
C4768 C4767 1.389 . S
C4768 C4769 1.387 . S
C4769 H4754 0.930 . S
C4769 C4764 1.390 . S
C4769 C4768 1.387 . S
H4770 C4782 0.930 . S
H4771 C4784 0.930 . S
H4772 C4785 0.930 1_565 S
H4773 C4789 0.959 . S
H4774 C4789 0.959 . S
H4775 C4789 0.961 . S
H4776 C4790 0.960 . S
H4777 C4790 0.961 . S
H4778 C4790 0.959 . S
H4779 C4793 0.929 . S
H4780 C4794 0.931 . S
H4781 C4796 0.930 . S
C4782 H4770 0.930 . S
C4782 C4783 1.399 . S
C4782 C4787 1.399 1_545 S
C4783 C4782 1.399 . S
C4783 C4784 1.376 . S
C4784 H4771 0.930 . S
C4784 C4783 1.376 . S
C4784 C4785 1.388 . S
C4785 H4772 0.930 1_545 S
C4785 C4784 1.388 . S
C4785 C4786 1.390 1_545 S
C4786 C4785 1.390 1_565 S
C4786 C4787 1.394 . S
C4786 C4792 1.465 . S
C4787 C4782 1.399 1_565 S
C4787 C4786 1.394 . S
C4787 C4788 1.516 . S
C4788 C4787 1.516 . S
C4788 C4789 1.502 . S
C4788 C4790 1.561 . S
C4788 C4791 1.526 . S
C4789 H4773 0.959 . S
C4789 H4774 0.959 . S
C4789 H4775 0.961 . S
C4789 C4788 1.502 . S
C4790 H4776 0.960 . S
C4790 H4777 0.961 . S
C4790 H4778 0.959 . S
C4790 C4788 1.561 . S
C4791 C4788 1.526 . S
C4791 C4792 1.396 . S
C4791 C4796 1.390 . S
C4792 C4786 1.465 . S
C4792 C4791 1.396 . S
C4792 C4793 1.399 . S
C4793 H4779 0.929 . S
C4793 C4792 1.399 . S
C4793 C4794 1.385 . S
C4794 H4780 0.931 . S
C4794 C4793 1.385 . S
C4794 C4795 1.389 . S
C4795 C4794 1.389 . S
C4795 C4796 1.387 . S
C4796 H4781 0.930 . S
C4796 C4791 1.390 . S
C4796 C4795 1.387 . S
H4797 C4809 0.930 . S
H4798 C4811 0.930 . S
H4799 C4812 0.930 . S
H4800 C4816 0.966 . S
H4801 C4816 0.959 1_455 S
H4802 C4816 0.961 . S
H4803 C4817 0.960 . S
H4804 C4817 0.961 . S
H4805 C4817 0.959 . S
H4806 C4820 0.929 . S
H4807 C4821 0.931 . S
H4808 C4823 0.930 . S
C4809 H4797 0.930 . S
C4809 C4810 1.399 . S
C4809 C4814 1.399 . S
C4810 C4809 1.399 . S
C4810 C4811 1.376 . S
C4811 H4798 0.930 . S
C4811 C4810 1.376 . S
C4811 C4812 1.388 . S
C4812 H4799 0.930 . S
C4812 C4811 1.388 . S
C4812 C4813 1.390 . S
C4813 C4812 1.390 . S
C4813 C4814 1.394 . S
C4813 C4819 1.465 . S
C4814 C4809 1.399 . S
C4814 C4813 1.394 . S
C4814 C4815 1.516 . S
C4815 C4814 1.516 . S
C4815 C4816 1.502 . S
C4815 C4817 1.561 . S
C4815 C4818 1.526 1_655 S
C4816 H4800 0.966 . S
C4816 H4801 0.959 1_655 S
C4816 H4802 0.961 . S
C4816 C4815 1.502 . S
C4817 H4803 0.960 . S
C4817 H4804 0.961 . S
C4817 H4805 0.959 . S
C4817 C4815 1.561 . S
C4818 C4815 1.526 1_455 S
C4818 C4819 1.396 1_455 S
C4818 C4823 1.390 . S
C4819 C4813 1.465 . S
C4819 C4818 1.396 1_655 S
C4819 C4820 1.399 1_655 S
C4820 H4806 0.929 . S
C4820 C4819 1.399 1_455 S
C4820 C4821 1.385 . S
C4821 H4807 0.931 . S
C4821 C4820 1.385 . S
C4821 C4822 1.389 . S
C4822 C4821 1.389 . S
C4822 C4823 1.387 . S
C4823 H4808 0.930 . S
C4823 C4818 1.390 . S
C4823 C4822 1.387 . S
H4824 C4836 0.930 . S
H4825 C4838 0.930 . S
H4826 C4839 0.930 . S
H4827 C4843 0.959 . S
H4828 C4843 0.959 . S
H4829 C4843 0.961 . S
H4830 C4844 0.960 . S
H4831 C4844 0.961 . S
H4832 C4844 0.959 . S
H4833 C4847 0.929 . S
H4834 C4848 0.931 . S
H4835 C4850 0.930 . S
C4836 H4824 0.930 . S
C4836 C4837 1.399 . S
C4836 C4841 1.399 . S
C4837 C4836 1.399 . S
C4837 C4838 1.376 . S
C4838 H4825 0.930 . S
C4838 C4837 1.376 . S
C4838 C4839 1.388 . S
C4839 H4826 0.930 . S
C4839 C4838 1.388 . S
C4839 C4840 1.390 . S
C4840 C4839 1.390 . S
C4840 C4841 1.394 . S
C4840 C4846 1.465 . S
C4841 C4836 1.399 . S
C4841 C4840 1.394 . S
C4841 C4842 1.516 . S
C4842 C4841 1.516 . S
C4842 C4843 1.502 . S
C4842 C4844 1.561 . S
C4842 C4845 1.526 . S
C4843 H4827 0.959 . S
C4843 H4828 0.959 . S
C4843 H4829 0.961 . S
C4843 C4842 1.502 . S
C4844 H4830 0.960 . S
C4844 H4831 0.961 . S
C4844 H4832 0.959 . S
C4844 C4842 1.561 . S
C4845 C4842 1.526 . S
C4845 C4846 1.396 . S
C4845 C4850 1.390 . S
C4846 C4840 1.465 . S
C4846 C4845 1.396 . S
C4846 C4847 1.399 . S
C4847 H4833 0.929 . S
C4847 C4846 1.399 . S
C4847 C4848 1.385 . S
C4848 H4834 0.931 . S
C4848 C4847 1.385 . S
C4848 C4849 1.389 . S
C4849 C4848 1.389 . S
C4849 C4850 1.387 . S
C4850 H4835 0.930 . S
C4850 C4845 1.390 . S
C4850 C4849 1.387 . S
H4851 C4863 0.930 . S
H4852 C4865 0.930 . S
H4853 C4866 0.930 . S
H4854 C4870 0.959 . S
H4855 C4870 0.959 . S
H4856 C4870 0.961 . S
H4857 C4871 0.960 . S
H4858 C4871 0.961 . S
H4859 C4871 0.959 . S
H4860 C4874 0.929 . S
H4861 C4875 0.931 . S
H4862 C4877 0.930 . S
C4863 H4851 0.930 . S
C4863 C4864 1.399 . S
C4863 C4868 1.399 . S
C4864 C4863 1.399 . S
C4864 C4865 1.376 . S
C4865 H4852 0.930 . S
C4865 C4864 1.376 . S
C4865 C4866 1.388 . S
C4866 H4853 0.930 . S
C4866 C4865 1.388 . S
C4866 C4867 1.390 . S
C4867 C4866 1.390 . S
C4867 C4868 1.394 . S
C4867 C4873 1.465 . S
C4868 C4863 1.399 . S
C4868 C4867 1.394 . S
C4868 C4869 1.516 . S
C4869 C4868 1.516 . S
C4869 C4870 1.502 . S
C4869 C4871 1.561 . S
C4869 C4872 1.526 . S
C4870 H4854 0.959 . S
C4870 H4855 0.959 . S
C4870 H4856 0.961 . S
C4870 C4869 1.502 . S
C4871 H4857 0.960 . S
C4871 H4858 0.961 . S
C4871 H4859 0.959 . S
C4871 C4869 1.561 . S
C4872 C4869 1.526 . S
C4872 C4873 1.396 . S
C4872 C4877 1.390 . S
C4873 C4867 1.465 . S
C4873 C4872 1.396 . S
C4873 C4874 1.399 . S
C4874 H4860 0.929 . S
C4874 C4873 1.399 . S
C4874 C4875 1.385 . S
C4875 H4861 0.931 . S
C4875 C4874 1.385 . S
C4875 C4876 1.389 . S
C4876 C4875 1.389 . S
C4876 C4877 1.387 . S
C4877 H4862 0.930 . S
C4877 C4872 1.390 . S
C4877 C4876 1.387 . S
H4878 C4890 0.930 . S
H4879 C4892 0.930 . S
H4880 C4893 0.930 . S
H4881 C4897 0.959 . S
H4882 C4897 0.959 . S
H4883 C4897 0.961 . S
H4884 C4898 0.960 . S
H4885 C4898 0.961 . S
H4886 C4898 0.959 . S
H4887 C4901 0.929 . S
H4888 C4902 0.931 . S
H4889 C4904 0.930 . S
C4890 H4878 0.930 . S
C4890 C4891 1.399 . S
C4890 C4895 1.399 . S
C4891 C4890 1.399 . S
C4891 C4892 1.376 . S
C4892 H4879 0.930 . S
C4892 C4891 1.376 . S
C4892 C4893 1.388 . S
C4893 H4880 0.930 . S
C4893 C4892 1.388 . S
C4893 C4894 1.390 . S
C4894 C4893 1.390 . S
C4894 C4895 1.394 . S
C4894 C4900 1.465 . S
C4895 C4890 1.399 . S
C4895 C4894 1.394 . S
C4895 C4896 1.516 . S
C4896 C4895 1.516 . S
C4896 C4897 1.502 . S
C4896 C4898 1.561 . S
C4896 C4899 1.526 . S
C4897 H4881 0.959 . S
C4897 H4882 0.959 . S
C4897 H4883 0.961 . S
C4897 C4896 1.502 . S
C4898 H4884 0.960 . S
C4898 H4885 0.961 . S
C4898 H4886 0.959 . S
C4898 C4896 1.561 . S
C4899 C4896 1.526 . S
C4899 C4900 1.396 . S
C4899 C4904 1.390 . S
C4900 C4894 1.465 . S
C4900 C4899 1.396 . S
C4900 C4901 1.399 . S
C4901 H4887 0.929 . S
C4901 C4900 1.399 . S
C4901 C4902 1.385 . S
C4902 H4888 0.931 . S
C4902 C4901 1.385 . S
C4902 C4903 1.389 . S
C4903 C4902 1.389 . S
C4903 C4904 1.387 . S
C4904 H4889 0.930 . S
C4904 C4899 1.390 . S
C4904 C4903 1.387 . S
H4905 C4917 0.930 . S
H4906 C4919 0.930 . S
H4907 C4920 0.930 . S
H4908 C4924 0.959 . S
H4909 C4924 0.959 . S
H4910 C4924 0.961 . S
H4911 C4925 0.960 . S
H4912 C4925 0.961 . S
H4913 C4925 0.959 . S
H4914 C4928 0.929 . S
H4915 C4929 0.931 . S
H4916 C4931 0.930 . S
C4917 H4905 0.930 . S
C4917 C4918 1.399 . S
C4917 C4922 1.399 . S
C4918 C4917 1.399 . S
C4918 C4919 1.376 . S
C4919 H4906 0.930 . S
C4919 C4918 1.376 . S
C4919 C4920 1.388 . S
C4920 H4907 0.930 . S
C4920 C4919 1.388 . S
C4920 C4921 1.390 . S
C4921 C4920 1.390 . S
C4921 C4922 1.394 . S
C4921 C4927 1.465 . S
C4922 C4917 1.399 . S
C4922 C4921 1.394 . S
C4922 C4923 1.516 . S
C4923 C4922 1.516 . S
C4923 C4924 1.502 . S
C4923 C4925 1.561 . S
C4923 C4926 1.526 . S
C4924 H4908 0.959 . S
C4924 H4909 0.959 . S
C4924 H4910 0.961 . S
C4924 C4923 1.502 . S
C4925 H4911 0.960 . S
C4925 H4912 0.961 . S
C4925 H4913 0.959 . S
C4925 C4923 1.561 . S
C4926 C4923 1.526 . S
C4926 C4927 1.396 . S
C4926 C4931 1.390 . S
C4927 C4921 1.465 . S
C4927 C4926 1.396 . S
C4927 C4928 1.399 . S
C4928 H4914 0.929 . S
C4928 C4927 1.399 . S
C4928 C4929 1.385 . S
C4929 H4915 0.931 . S
C4929 C4928 1.385 . S
C4929 C4930 1.389 . S
C4930 C4929 1.389 . S
C4930 C4931 1.387 . S
C4931 H4916 0.930 . S
C4931 C4926 1.390 . S
C4931 C4930 1.387 . S
H4932 C4944 0.930 . S
H4933 C4946 0.930 . S
H4934 C4947 0.930 1_545 S
H4935 C4951 0.959 . S
H4936 C4951 0.959 . S
H4937 C4951 0.961 1_565 S
H4938 C4952 0.960 . S
H4939 C4952 0.961 1_545 S
H4940 C4952 0.959 . S
H4941 C4955 0.929 . S
H4942 C4956 0.931 . S
H4943 C4958 0.930 . S
C4944 H4932 0.930 . S
C4944 C4945 1.399 . S
C4944 C4949 1.399 . S
C4945 C4944 1.399 . S
C4945 C4946 1.376 . S
C4946 H4933 0.930 . S
C4946 C4945 1.376 . S
C4946 C4947 1.388 . S
C4947 H4934 0.930 1_565 S
C4947 C4946 1.388 . S
C4947 C4948 1.390 1_565 S
C4948 C4947 1.390 1_545 S
C4948 C4949 1.394 1_545 S
C4948 C4954 1.465 . S
C4949 C4944 1.399 . S
C4949 C4948 1.394 1_565 S
C4949 C4950 1.516 1_565 S
C4950 C4949 1.516 1_545 S
C4950 C4951 1.502 . S
C4950 C4952 1.561 1_545 S
C4950 C4953 1.526 . S
C4951 H4935 0.959 . S
C4951 H4936 0.959 . S
C4951 H4937 0.961 1_545 S
C4951 C4950 1.502 . S
C4952 H4938 0.960 . S
C4952 H4939 0.961 1_565 S
C4952 H4940 0.959 . S
C4952 C4950 1.561 1_565 S
C4953 C4950 1.526 . S
C4953 C4954 1.396 . S
C4953 C4958 1.390 . S
C4954 C4948 1.465 . S
C4954 C4953 1.396 . S
C4954 C4955 1.399 . S
C4955 H4941 0.929 . S
C4955 C4954 1.399 . S
C4955 C4956 1.385 . S
C4956 H4942 0.931 . S
C4956 C4955 1.385 . S
C4956 C4957 1.389 . S
C4957 C4956 1.389 . S
C4957 C4958 1.387 . S
C4958 H4943 0.930 . S
C4958 C4953 1.390 . S
C4958 C4957 1.387 . S
H4959 C4971 0.930 . S
H4960 C4973 0.930 . S
H4961 C4974 0.930 . S
H4962 C4978 0.959 . S
H4963 C4978 0.959 . S
H4964 C4978 0.961 . S
H4965 C4979 0.960 . S
H4966 C4979 0.961 . S
H4967 C4979 0.959 . S
H4968 C4982 0.929 . S
H4969 C4983 0.931 . S
H4970 C4985 0.930 . S
C4971 H4959 0.930 . S
C4971 C4972 1.399 . S
C4971 C4976 1.399 . S
C4972 C4971 1.399 . S
C4972 C4973 1.376 . S
C4973 H4960 0.930 . S
C4973 C4972 1.376 . S
C4973 C4974 1.388 . S
C4974 H4961 0.930 . S
C4974 C4973 1.388 . S
C4974 C4975 1.390 . S
C4975 C4974 1.390 . S
C4975 C4976 1.394 . S
C4975 C4981 1.465 . S
C4976 C4971 1.399 . S
C4976 C4975 1.394 . S
C4976 C4977 1.516 . S
C4977 C4976 1.516 . S
C4977 C4978 1.502 . S
C4977 C4979 1.561 . S
C4977 C4980 1.526 . S
C4978 H4962 0.959 . S
C4978 H4963 0.959 . S
C4978 H4964 0.961 . S
C4978 C4977 1.502 . S
C4979 H4965 0.960 . S
C4979 H4966 0.961 . S
C4979 H4967 0.959 . S
C4979 C4977 1.561 . S
C4980 C4977 1.526 . S
C4980 C4981 1.396 . S
C4980 C4985 1.390 1_455 S
C4981 C4975 1.465 . S
C4981 C4980 1.396 . S
C4981 C4982 1.399 1_455 S
C4982 H4968 0.929 . S
C4982 C4981 1.399 1_655 S
C4982 C4983 1.385 . S
C4983 H4969 0.931 . S
C4983 C4982 1.385 . S
C4983 C4984 1.389 . S
C4984 C4983 1.389 . S
C4984 C4985 1.387 . S
C4985 H4970 0.930 . S
C4985 C4980 1.390 1_655 S
C4985 C4984 1.387 . S
H4986 C4998 0.930 . S
H4987 C5000 0.930 . S
H4988 C5001 0.930 . S
H4989 C5005 0.959 . S
H4990 C5005 0.959 . S
H4991 C5005 0.920 1_554 S
H4992 C5006 0.960 . S
H4993 C5006 0.961 . S
H4994 C5006 0.959 . S
H4995 C5009 0.929 . S
H4996 C5010 0.931 . S
H4997 C5012 0.930 . S
C4998 H4986 0.930 . S
C4998 C4999 1.399 . S
C4998 C5003 1.399 . S
C4999 C4998 1.399 . S
C4999 C5000 1.376 . S
C5000 H4987 0.930 . S
C5000 C4999 1.376 . S
C5000 C5001 1.388 . S
C5001 H4988 0.930 . S
C5001 C5000 1.388 . S
C5001 C5002 1.390 . S
C5002 C5001 1.390 . S
C5002 C5003 1.394 . S
C5002 C5008 1.465 1_554 S
C5003 C4998 1.399 . S
C5003 C5002 1.394 . S
C5003 C5004 1.516 1_554 S
C5004 C5003 1.516 1_556 S
C5004 C5005 1.502 . S
C5004 C5006 1.561 . S
C5004 C5007 1.526 . S
C5005 H4989 0.959 . S
C5005 H4990 0.959 . S
C5005 H4991 0.920 1_556 S
C5005 C5004 1.502 . S
C5006 H4992 0.960 . S
C5006 H4993 0.961 . S
C5006 H4994 0.959 . S
C5006 C5004 1.561 . S
C5007 C5004 1.526 . S
C5007 C5008 1.396 . S
C5007 C5012 1.390 . S
C5008 C5002 1.465 1_556 S
C5008 C5007 1.396 . S
C5008 C5009 1.399 . S
C5009 H4995 0.929 . S
C5009 C5008 1.399 . S
C5009 C5010 1.385 . S
C5010 H4996 0.931 . S
C5010 C5009 1.385 . S
C5010 C5011 1.389 . S
C5011 C5010 1.389 . S
C5011 C5012 1.387 . S
C5012 H4997 0.930 . S
C5012 C5007 1.390 . S
C5012 C5011 1.387 . S
H5013 C5025 0.930 . S
H5014 C5027 0.930 . S
H5015 C5028 0.930 . S
H5016 C5032 0.959 . S
H5017 C5032 0.959 . S
H5018 C5032 0.961 . S
H5019 C5033 0.960 . S
H5020 C5033 0.961 . S
H5021 C5033 0.959 . S
H5022 C5036 0.929 . S
H5023 C5037 0.931 . S
H5024 C5039 0.930 . S
C5025 H5013 0.930 . S
C5025 C5026 1.399 . S
C5025 C5030 1.399 . S
C5026 C5025 1.399 . S
C5026 C5027 1.376 . S
C5027 H5014 0.930 . S
C5027 C5026 1.376 . S
C5027 C5028 1.388 . S
C5028 H5015 0.930 . S
C5028 C5027 1.388 . S
C5028 C5029 1.390 . S
C5029 C5028 1.390 . S
C5029 C5030 1.394 . S
C5029 C5035 1.465 . S
C5030 C5025 1.399 . S
C5030 C5029 1.394 . S
C5030 C5031 1.516 . S
C5031 C5030 1.516 . S
C5031 C5032 1.502 . S
C5031 C5033 1.561 . S
C5031 C5034 1.526 . S
C5032 H5016 0.959 . S
C5032 H5017 0.959 . S
C5032 H5018 0.961 . S
C5032 C5031 1.502 . S
C5033 H5019 0.960 . S
C5033 H5020 0.961 . S
C5033 H5021 0.959 . S
C5033 C5031 1.561 . S
C5034 C5031 1.526 . S
C5034 C5035 1.396 . S
C5034 C5039 1.390 . S
C5035 C5029 1.465 . S
C5035 C5034 1.396 . S
C5035 C5036 1.399 . S
C5036 H5022 0.929 . S
C5036 C5035 1.399 . S
C5036 C5037 1.385 . S
C5037 H5023 0.931 . S
C5037 C5036 1.385 . S
C5037 C5038 1.389 . S
C5038 C5037 1.389 . S
C5038 C5039 1.387 . S
C5039 H5024 0.930 . S
C5039 C5034 1.390 . S
C5039 C5038 1.387 . S
H5040 C5052 0.930 . S
H5041 C5054 0.930 . S
H5042 C5055 0.930 . S
H5043 C5059 0.959 . S
H5044 C5059 0.959 . S
H5045 C5059 0.961 . S
H5046 C5060 0.960 . S
H5047 C5060 0.961 . S
H5048 C5060 0.959 . S
H5049 C5063 0.929 . S
H5050 C5064 0.931 . S
H5051 C5066 0.930 . S
C5052 H5040 0.930 . S
C5052 C5053 1.399 . S
C5052 C5057 1.399 . S
C5053 C5052 1.399 . S
C5053 C5054 1.376 . S
C5054 H5041 0.930 . S
C5054 C5053 1.376 . S
C5054 C5055 1.388 . S
C5055 H5042 0.930 . S
C5055 C5054 1.388 . S
C5055 C5056 1.390 . S
C5056 C5055 1.390 . S
C5056 C5057 1.394 . S
C5056 C5062 1.465 . S
C5057 C5052 1.399 . S
C5057 C5056 1.394 . S
C5057 C5058 1.516 . S
C5058 C5057 1.516 . S
C5058 C5059 1.502 . S
C5058 C5060 1.561 . S
C5058 C5061 1.526 . S
C5059 H5043 0.959 . S
C5059 H5044 0.959 . S
C5059 H5045 0.961 . S
C5059 C5058 1.502 . S
C5060 H5046 0.960 . S
C5060 H5047 0.961 . S
C5060 H5048 0.959 . S
C5060 C5058 1.561 . S
C5061 C5058 1.526 . S
C5061 C5062 1.396 . S
C5061 C5066 1.390 . S
C5062 C5056 1.465 . S
C5062 C5061 1.396 . S
C5062 C5063 1.399 . S
C5063 H5049 0.929 . S
C5063 C5062 1.399 . S
C5063 C5064 1.385 . S
C5064 H5050 0.931 . S
C5064 C5063 1.385 . S
C5064 C5065 1.389 . S
C5065 C5064 1.389 . S
C5065 C5066 1.387 . S
C5066 H5051 0.930 . S
C5066 C5061 1.390 . S
C5066 C5065 1.387 . S
H5067 C5079 0.930 . S
H5068 C5081 0.930 . S
H5069 C5082 0.930 . S
H5070 C5086 0.959 . S
H5071 C5086 0.959 . S
H5072 C5086 0.961 . S
H5073 C5087 0.960 . S
H5074 C5087 0.961 . S
H5075 C5087 0.959 . S
H5076 C5090 0.929 . S
H5077 C5091 0.931 . S
H5078 C5093 0.930 . S
C5079 H5067 0.930 . S
C5079 C5080 1.399 . S
C5079 C5084 1.399 . S
C5080 C5079 1.399 . S
C5080 C5081 1.376 . S
C5081 H5068 0.930 . S
C5081 C5080 1.376 . S
C5081 C5082 1.388 . S
C5082 H5069 0.930 . S
C5082 C5081 1.388 . S
C5082 C5083 1.390 . S
C5083 C5082 1.390 . S
C5083 C5084 1.394 . S
C5083 C5089 1.465 . S
C5084 C5079 1.399 . S
C5084 C5083 1.394 . S
C5084 C5085 1.516 . S
C5085 C5084 1.516 . S
C5085 C5086 1.502 . S
C5085 C5087 1.561 . S
C5085 C5088 1.526 . S
C5086 H5070 0.959 . S
C5086 H5071 0.959 . S
C5086 H5072 0.961 . S
C5086 C5085 1.502 . S
C5087 H5073 0.960 . S
C5087 H5074 0.961 . S
C5087 H5075 0.959 . S
C5087 C5085 1.561 . S
C5088 C5085 1.526 . S
C5088 C5089 1.396 . S
C5088 C5093 1.390 . S
C5089 C5083 1.465 . S
C5089 C5088 1.396 . S
C5089 C5090 1.399 . S
C5090 H5076 0.929 . S
C5090 C5089 1.399 . S
C5090 C5091 1.385 . S
C5091 H5077 0.931 . S
C5091 C5090 1.385 . S
C5091 C5092 1.389 . S
C5092 C5091 1.389 . S
C5092 C5093 1.387 . S
C5093 H5078 0.930 . S
C5093 C5088 1.390 . S
C5093 C5092 1.387 . S
H5094 C5106 0.930 . S
H5095 C5108 0.930 . S
H5096 C5109 0.930 . S
H5097 C5113 0.959 . S
H5098 C5113 0.959 . S
H5099 C5113 0.961 . S
H5100 C5114 0.960 . S
H5101 C5114 0.961 . S
H5102 C5114 0.959 . S
H5103 C5117 0.929 . S
H5104 C5118 0.931 . S
H5105 C5120 0.930 . S
C5106 H5094 0.930 . S
C5106 C5107 1.399 . S
C5106 C5111 1.399 . S
C5107 C5106 1.399 . S
C5107 C5108 1.376 . S
C5108 H5095 0.930 . S
C5108 C5107 1.376 . S
C5108 C5109 1.388 . S
C5109 H5096 0.930 . S
C5109 C5108 1.388 . S
C5109 C5110 1.390 . S
C5110 C5109 1.390 . S
C5110 C5111 1.394 . S
C5110 C5116 1.465 . S
C5111 C5106 1.399 . S
C5111 C5110 1.394 . S
C5111 C5112 1.516 . S
C5112 C5111 1.516 . S
C5112 C5113 1.502 . S
C5112 C5114 1.561 . S
C5112 C5115 1.526 . S
C5113 H5097 0.959 . S
C5113 H5098 0.959 . S
C5113 H5099 0.961 . S
C5113 C5112 1.502 . S
C5114 H5100 0.960 . S
C5114 H5101 0.961 . S
C5114 H5102 0.959 . S
C5114 C5112 1.561 . S
C5115 C5112 1.526 . S
C5115 C5116 1.396 . S
C5115 C5120 1.390 . S
C5116 C5110 1.465 . S
C5116 C5115 1.396 . S
C5116 C5117 1.399 . S
C5117 H5103 0.929 . S
C5117 C5116 1.399 . S
C5117 C5118 1.385 . S
C5118 H5104 0.931 . S
C5118 C5117 1.385 . S
C5118 C5119 1.389 . S
C5119 C5118 1.389 . S
C5119 C5120 1.387 . S
C5120 H5105 0.930 . S
C5120 C5115 1.390 . S
C5120 C5119 1.387 . S
H5121 C5133 0.930 . S
H5122 C5135 0.930 . S
H5123 C5136 0.930 . S
H5124 C5140 0.959 . S
H5125 C5140 0.959 . S
H5126 C5140 0.961 . S
H5127 C5141 0.960 . S
H5128 C5141 0.961 . S
H5129 C5141 0.959 . S
H5130 C5144 0.929 . S
H5131 C5145 0.931 . S
H5132 C5147 0.930 . S
C5133 H5121 0.930 . S
C5133 C5134 1.399 . S
C5133 C5138 1.399 . S
C5134 C5133 1.399 . S
C5134 C5135 1.376 . S
C5135 H5122 0.930 . S
C5135 C5134 1.376 . S
C5135 C5136 1.388 . S
C5136 H5123 0.930 . S
C5136 C5135 1.388 . S
C5136 C5137 1.390 . S
C5137 C5136 1.390 . S
C5137 C5138 1.394 . S
C5137 C5143 1.465 . S
C5138 C5133 1.399 . S
C5138 C5137 1.394 . S
C5138 C5139 1.516 . S
C5139 C5138 1.516 . S
C5139 C5140 1.502 . S
C5139 C5141 1.561 . S
C5139 C5142 1.526 . S
C5140 H5124 0.959 . S
C5140 H5125 0.959 . S
C5140 H5126 0.961 . S
C5140 C5139 1.502 . S
C5141 H5127 0.960 . S
C5141 H5128 0.961 . S
C5141 H5129 0.959 . S
C5141 C5139 1.561 . S
C5142 C5139 1.526 . S
C5142 C5143 1.396 . S
C5142 C5147 1.390 . S
C5143 C5137 1.465 . S
C5143 C5142 1.396 . S
C5143 C5144 1.399 . S
C5144 H5130 0.929 . S
C5144 C5143 1.399 . S
C5144 C5145 1.385 . S
C5145 H5131 0.931 . S
C5145 C5144 1.385 . S
C5145 C5146 1.389 . S
C5146 C5145 1.389 . S
C5146 C5147 1.387 . S
C5147 H5132 0.930 . S
C5147 C5142 1.390 . S
C5147 C5146 1.387 . S
H5148 C5160 0.930 . S
H5149 C5162 0.930 . S
H5150 C5163 0.930 . S
H5151 C5167 0.959 . S
H5152 C5167 0.959 . S
H5153 C5167 0.961 . S
H5154 C5168 0.960 . S
H5155 C5168 0.961 . S
H5156 C5168 0.959 . S
H5157 C5171 0.929 . S
H5158 C5172 0.931 . S
H5159 C5174 0.930 . S
C5160 H5148 0.930 . S
C5160 C5161 1.399 . S
C5160 C5165 1.399 . S
C5161 C5160 1.399 . S
C5161 C5162 1.376 . S
C5162 H5149 0.930 . S
C5162 C5161 1.376 . S
C5162 C5163 1.388 . S
C5163 H5150 0.930 . S
C5163 C5162 1.388 . S
C5163 C5164 1.390 . S
C5164 C5163 1.390 . S
C5164 C5165 1.394 . S
C5164 C5170 1.465 . S
C5165 C5160 1.399 . S
C5165 C5164 1.394 . S
C5165 C5166 1.516 . S
C5166 C5165 1.516 . S
C5166 C5167 1.502 . S
C5166 C5168 1.561 . S
C5166 C5169 1.526 . S
C5167 H5151 0.959 . S
C5167 H5152 0.959 . S
C5167 H5153 0.961 . S
C5167 C5166 1.502 . S
C5168 H5154 0.960 . S
C5168 H5155 0.961 . S
C5168 H5156 0.959 . S
C5168 C5166 1.561 . S
C5169 C5166 1.526 . S
C5169 C5170 1.396 . S
C5169 C5174 1.390 . S
C5170 C5164 1.465 . S
C5170 C5169 1.396 . S
C5170 C5171 1.399 . S
C5171 H5157 0.929 . S
C5171 C5170 1.399 . S
C5171 C5172 1.385 . S
C5172 H5158 0.931 . S
C5172 C5171 1.385 . S
C5172 C5173 1.389 . S
C5173 C5172 1.389 . S
C5173 C5174 1.387 . S
C5174 H5159 0.930 . S
C5174 C5169 1.390 . S
C5174 C5173 1.387 . S
H5175 C5187 0.930 . S
H5176 C5189 0.930 . S
H5177 C5190 0.930 . S
H5178 C5194 0.959 . S
H5179 C5194 0.959 . S
H5180 C5194 0.961 1_554 S
H5181 C5195 0.960 . S
H5182 C5195 0.961 . S
H5183 C5195 0.959 . S
H5184 C5198 0.929 . S
H5185 C5199 0.931 . S
H5186 C5201 0.930 . S
C5187 H5175 0.930 . S
C5187 C5188 1.399 . S
C5187 C5192 1.399 . S
C5188 C5187 1.399 . S
C5188 C5189 1.376 . S
C5189 H5176 0.930 . S
C5189 C5188 1.376 . S
C5189 C5190 1.388 . S
C5190 H5177 0.930 . S
C5190 C5189 1.388 . S
C5190 C5191 1.385 1_554 S
C5191 C5190 1.385 1_556 S
C5191 C5192 1.391 1_556 S
C5191 C5197 1.473 . S
C5192 C5187 1.399 . S
C5192 C5191 1.391 1_554 S
C5192 C5193 1.516 1_554 S
C5193 C5192 1.516 1_556 S
C5193 C5194 1.502 . S
C5193 C5195 1.561 . S
C5193 C5196 1.526 . S
C5194 H5178 0.959 . S
C5194 H5179 0.959 . S
C5194 H5180 0.961 1_556 S
C5194 C5193 1.502 . S
C5195 H5181 0.960 . S
C5195 H5182 0.961 . S
C5195 H5183 0.959 . S
C5195 C5193 1.561 . S
C5196 C5193 1.526 . S
C5196 C5197 1.396 . S
C5196 C5201 1.390 . S
C5197 C5191 1.473 . S
C5197 C5196 1.396 . S
C5197 C5198 1.399 . S
C5198 H5184 0.929 . S
C5198 C5197 1.399 . S
C5198 C5199 1.385 . S
C5199 H5185 0.931 . S
C5199 C5198 1.385 . S
C5199 C5200 1.389 . S
C5200 C5199 1.389 . S
C5200 C5201 1.387 . S
C5201 H5186 0.930 . S
C5201 C5196 1.390 . S
C5201 C5200 1.387 . S
H5202 C5214 0.930 . S
H5203 C5216 0.930 . S
H5204 C5217 0.930 . S
H5205 C5221 0.959 . S
H5206 C5221 0.959 . S
H5207 C5221 0.961 . S
H5208 C5222 0.960 . S
H5209 C5222 0.961 . S
H5210 C5222 0.959 . S
H5211 C5225 0.929 . S
H5212 C5226 0.931 . S
H5213 C5228 0.930 . S
C5214 H5202 0.930 . S
C5214 C5215 1.399 . S
C5214 C5219 1.399 . S
C5215 C5214 1.399 . S
C5215 C5216 1.376 . S
C5216 H5203 0.930 . S
C5216 C5215 1.376 . S
C5216 C5217 1.388 . S
C5217 H5204 0.930 . S
C5217 C5216 1.388 . S
C5217 C5218 1.390 . S
C5218 C5217 1.390 . S
C5218 C5219 1.394 . S
C5218 C5224 1.465 . S
C5219 C5214 1.399 . S
C5219 C5218 1.394 . S
C5219 C5220 1.516 . S
C5220 C5219 1.516 . S
C5220 C5221 1.502 . S
C5220 C5222 1.561 . S
C5220 C5223 1.526 . S
C5221 H5205 0.959 . S
C5221 H5206 0.959 . S
C5221 H5207 0.961 . S
C5221 C5220 1.502 . S
C5222 H5208 0.960 . S
C5222 H5209 0.961 . S
C5222 H5210 0.959 . S
C5222 C5220 1.561 . S
C5223 C5220 1.526 . S
C5223 C5224 1.396 . S
C5223 C5228 1.390 1_455 S
C5224 C5218 1.465 . S
C5224 C5223 1.396 . S
C5224 C5225 1.399 1_455 S
C5225 H5211 0.929 . S
C5225 C5224 1.399 1_655 S
C5225 C5226 1.385 . S
C5226 H5212 0.931 . S
C5226 C5225 1.385 . S
C5226 C5227 1.389 . S
C5227 C5226 1.389 . S
C5227 C5228 1.387 . S
C5228 H5213 0.930 . S
C5228 C5223 1.390 1_655 S
C5228 C5227 1.387 . S
H5229 C5241 0.930 . S
H5230 C5243 0.930 . S
H5231 C5244 0.930 . S
H5232 C5248 0.959 . S
H5233 C5248 0.959 . S
H5234 C5248 0.961 . S
H5235 C5249 0.960 . S
H5236 C5249 0.961 . S
H5237 C5249 0.959 . S
H5238 C5252 0.929 . S
H5239 C5253 0.931 . S
H5240 C5255 0.930 . S
C5241 H5229 0.930 . S
C5241 C5242 1.399 . S
C5241 C5246 1.399 . S
C5242 C5241 1.399 . S
C5242 C5243 1.376 . S
C5243 H5230 0.930 . S
C5243 C5242 1.376 . S
C5243 C5244 1.388 . S
C5244 H5231 0.930 . S
C5244 C5243 1.388 . S
C5244 C5245 1.390 . S
C5245 C5244 1.390 . S
C5245 C5246 1.394 . S
C5245 C5251 1.465 . S
C5246 C5241 1.399 . S
C5246 C5245 1.394 . S
C5246 C5247 1.516 . S
C5247 C5246 1.516 . S
C5247 C5248 1.502 . S
C5247 C5249 1.561 . S
C5247 C5250 1.526 . S
C5248 H5232 0.959 . S
C5248 H5233 0.959 . S
C5248 H5234 0.961 . S
C5248 C5247 1.502 . S
C5249 H5235 0.960 . S
C5249 H5236 0.961 . S
C5249 H5237 0.959 . S
C5249 C5247 1.561 . S
C5250 C5247 1.526 . S
C5250 C5251 1.396 . S
C5250 C5255 1.390 . S
C5251 C5245 1.465 . S
C5251 C5250 1.396 . S
C5251 C5252 1.399 . S
C5252 H5238 0.929 . S
C5252 C5251 1.399 . S
C5252 C5253 1.385 . S
C5253 H5239 0.931 . S
C5253 C5252 1.385 . S
C5253 C5254 1.389 . S
C5254 C5253 1.389 . S
C5254 C5255 1.387 . S
C5255 H5240 0.930 . S
C5255 C5250 1.390 . S
C5255 C5254 1.387 . S
H5256 C5268 0.930 . S
H5257 C5270 0.930 . S
H5258 C5271 0.930 . S
H5259 C5275 0.959 . S
H5260 C5275 0.959 . S
H5261 C5275 0.961 . S
H5262 C5276 0.960 . S
H5263 C5276 0.961 . S
H5264 C5276 0.959 . S
H5265 C5279 0.929 . S
H5266 C5280 0.931 . S
H5267 C5282 0.930 . S
C5268 H5256 0.930 . S
C5268 C5269 1.399 . S
C5268 C5273 1.399 . S
C5269 C5268 1.399 . S
C5269 C5270 1.376 . S
C5270 H5257 0.930 . S
C5270 C5269 1.376 . S
C5270 C5271 1.388 . S
C5271 H5258 0.930 . S
C5271 C5270 1.388 . S
C5271 C5272 1.390 . S
C5272 C5271 1.390 . S
C5272 C5273 1.394 . S
C5272 C5278 1.465 . S
C5273 C5268 1.399 . S
C5273 C5272 1.394 . S
C5273 C5274 1.516 . S
C5274 C5273 1.516 . S
C5274 C5275 1.502 . S
C5274 C5276 1.561 . S
C5274 C5277 1.526 . S
C5275 H5259 0.959 . S
C5275 H5260 0.959 . S
C5275 H5261 0.961 . S
C5275 C5274 1.502 . S
C5276 H5262 0.960 . S
C5276 H5263 0.961 . S
C5276 H5264 0.959 . S
C5276 C5274 1.561 . S
C5277 C5274 1.526 . S
C5277 C5278 1.396 . S
C5277 C5282 1.390 . S
C5278 C5272 1.465 . S
C5278 C5277 1.396 . S
C5278 C5279 1.399 . S
C5279 H5265 0.929 . S
C5279 C5278 1.399 . S
C5279 C5280 1.385 . S
C5280 H5266 0.931 . S
C5280 C5279 1.385 . S
C5280 C5281 1.389 . S
C5281 C5280 1.389 . S
C5281 C5282 1.387 . S
C5282 H5267 0.930 . S
C5282 C5277 1.390 . S
C5282 C5281 1.387 . S
H5283 C5295 0.930 . S
H5284 C5297 0.930 . S
H5285 C5298 0.930 . S
H5286 C5302 0.959 . S
H5287 C5302 0.959 . S
H5288 C5302 0.961 . S
H5289 C5303 0.960 . S
H5290 C5303 0.961 . S
H5291 C5303 0.959 . S
H5292 C5306 0.929 . S
H5293 C5307 0.931 . S
H5294 C5309 0.930 . S
C5295 H5283 0.930 . S
C5295 C5296 1.399 . S
C5295 C5300 1.399 . S
C5296 C5295 1.399 . S
C5296 C5297 1.376 . S
C5297 H5284 0.930 . S
C5297 C5296 1.376 . S
C5297 C5298 1.388 . S
C5298 H5285 0.930 . S
C5298 C5297 1.388 . S
C5298 C5299 1.390 . S
C5299 C5298 1.390 . S
C5299 C5300 1.394 . S
C5299 C5305 1.465 . S
C5300 C5295 1.399 . S
C5300 C5299 1.394 . S
C5300 C5301 1.516 . S
C5301 C5300 1.516 . S
C5301 C5302 1.502 . S
C5301 C5303 1.561 . S
C5301 C5304 1.526 . S
C5302 H5286 0.959 . S
C5302 H5287 0.959 . S
C5302 H5288 0.961 . S
C5302 C5301 1.502 . S
C5303 H5289 0.960 . S
C5303 H5290 0.961 . S
C5303 H5291 0.959 . S
C5303 C5301 1.561 . S
C5304 C5301 1.526 . S
C5304 C5305 1.396 . S
C5304 C5309 1.390 . S
C5305 C5299 1.465 . S
C5305 C5304 1.396 . S
C5305 C5306 1.399 . S
C5306 H5292 0.929 . S
C5306 C5305 1.399 . S
C5306 C5307 1.385 . S
C5307 H5293 0.931 . S
C5307 C5306 1.385 . S
C5307 C5308 1.389 . S
C5308 C5307 1.389 . S
C5308 C5309 1.387 . S
C5309 H5294 0.930 . S
C5309 C5304 1.390 . S
C5309 C5308 1.387 . S
H5310 C5322 0.930 . S
H5311 C5324 0.930 . S
H5312 C5325 0.930 . S
H5313 C5329 0.959 . S
H5314 C5329 0.959 . S
H5315 C5329 0.961 . S
H5316 C5330 0.960 . S
H5317 C5330 0.961 . S
H5318 C5330 0.959 . S
H5319 C5333 0.929 . S
H5320 C5334 0.931 . S
H5321 C5336 0.930 . S
C5322 H5310 0.930 . S
C5322 C5323 1.399 . S
C5322 C5327 1.399 . S
C5323 C5322 1.399 . S
C5323 C5324 1.376 . S
C5324 H5311 0.930 . S
C5324 C5323 1.376 . S
C5324 C5325 1.388 . S
C5325 H5312 0.930 . S
C5325 C5324 1.388 . S
C5325 C5326 1.390 . S
C5326 C5325 1.390 . S
C5326 C5327 1.394 . S
C5326 C5332 1.465 . S
C5327 C5322 1.399 . S
C5327 C5326 1.394 . S
C5327 C5328 1.516 . S
C5328 C5327 1.516 . S
C5328 C5329 1.502 . S
C5328 C5330 1.561 . S
C5328 C5331 1.526 . S
C5329 H5313 0.959 . S
C5329 H5314 0.959 . S
C5329 H5315 0.961 . S
C5329 C5328 1.502 . S
C5330 H5316 0.960 . S
C5330 H5317 0.961 . S
C5330 H5318 0.959 . S
C5330 C5328 1.561 . S
C5331 C5328 1.526 . S
C5331 C5332 1.396 . S
C5331 C5336 1.390 . S
C5332 C5326 1.465 . S
C5332 C5331 1.396 . S
C5332 C5333 1.399 . S
C5333 H5319 0.929 . S
C5333 C5332 1.399 . S
C5333 C5334 1.385 . S
C5334 H5320 0.931 . S
C5334 C5333 1.385 . S
C5334 C5335 1.389 . S
C5335 C5334 1.389 . S
C5335 C5336 1.387 . S
C5336 H5321 0.930 . S
C5336 C5331 1.390 . S
C5336 C5335 1.387 . S
H5337 C5349 0.930 . S
H5338 C5351 0.930 . S
H5339 C5352 0.930 . S
H5340 C5356 0.959 . S
H5341 C5356 0.959 . S
H5342 C5356 0.961 . S
H5343 C5357 0.960 . S
H5344 C5357 0.961 . S
H5345 C5357 0.959 . S
H5346 C5360 0.929 . S
H5347 C5361 0.931 . S
H5348 C5363 0.930 . S
C5349 H5337 0.930 . S
C5349 C5350 1.399 . S
C5349 C5354 1.399 . S
C5350 C5349 1.399 . S
C5350 C5351 1.376 . S
C5351 H5338 0.930 . S
C5351 C5350 1.376 . S
C5351 C5352 1.388 . S
C5352 H5339 0.930 . S
C5352 C5351 1.388 . S
C5352 C5353 1.390 . S
C5353 C5352 1.390 . S
C5353 C5354 1.394 . S
C5353 C5359 1.465 . S
C5354 C5349 1.399 . S
C5354 C5353 1.394 . S
C5354 C5355 1.516 . S
C5355 C5354 1.516 . S
C5355 C5356 1.502 . S
C5355 C5357 1.561 . S
C5355 C5358 1.526 . S
C5356 H5340 0.959 . S
C5356 H5341 0.959 . S
C5356 H5342 0.961 . S
C5356 C5355 1.502 . S
C5357 H5343 0.960 . S
C5357 H5344 0.961 . S
C5357 H5345 0.959 . S
C5357 C5355 1.561 . S
C5358 C5355 1.526 . S
C5358 C5359 1.396 . S
C5358 C5363 1.390 . S
C5359 C5353 1.465 . S
C5359 C5358 1.396 . S
C5359 C5360 1.399 . S
C5360 H5346 0.929 . S
C5360 C5359 1.399 . S
C5360 C5361 1.385 . S
C5361 H5347 0.931 . S
C5361 C5360 1.385 . S
C5361 C5362 1.389 . S
C5362 C5361 1.389 . S
C5362 C5363 1.387 . S
C5363 H5348 0.930 . S
C5363 C5358 1.390 . S
C5363 C5362 1.387 . S
H5364 C5376 0.930 . S
H5365 C5378 0.930 . S
H5366 C5379 0.930 . S
H5367 C5383 0.959 . S
H5368 C5383 0.959 . S
H5369 C5383 0.961 . S
H5370 C5384 0.960 . S
H5371 C5384 0.961 . S
H5372 C5384 0.959 . S
H5373 C5387 0.929 . S
H5374 C5388 0.931 . S
H5375 C5390 0.930 . S
C5376 H5364 0.930 . S
C5376 C5377 1.399 . S
C5376 C5381 1.399 . S
C5377 C5376 1.399 . S
C5377 C5378 1.376 . S
C5378 H5365 0.930 . S
C5378 C5377 1.376 . S
C5378 C5379 1.388 . S
C5379 H5366 0.930 . S
C5379 C5378 1.388 . S
C5379 C5380 1.390 . S
C5380 C5379 1.390 . S
C5380 C5381 1.394 . S
C5380 C5386 1.465 . S
C5381 C5376 1.399 . S
C5381 C5380 1.394 . S
C5381 C5382 1.516 . S
C5382 C5381 1.516 . S
C5382 C5383 1.502 . S
C5382 C5384 1.561 . S
C5382 C5385 1.526 . S
C5383 H5367 0.959 . S
C5383 H5368 0.959 . S
C5383 H5369 0.961 . S
C5383 C5382 1.502 . S
C5384 H5370 0.960 . S
C5384 H5371 0.961 . S
C5384 H5372 0.959 . S
C5384 C5382 1.561 . S
C5385 C5382 1.526 . S
C5385 C5386 1.396 . S
C5385 C5390 1.390 . S
C5386 C5380 1.465 . S
C5386 C5385 1.396 . S
C5386 C5387 1.399 . S
C5387 H5373 0.929 . S
C5387 C5386 1.399 . S
C5387 C5388 1.385 . S
C5388 H5374 0.931 . S
C5388 C5387 1.385 . S
C5388 C5389 1.389 . S
C5389 C5388 1.389 . S
C5389 C5390 1.387 . S
C5390 H5375 0.930 . S
C5390 C5385 1.390 . S
C5390 C5389 1.387 . S
H5391 C5403 0.930 . S
H5392 C5405 0.930 . S
H5393 C5406 0.930 . S
H5394 C5410 0.959 . S
H5395 C5410 0.959 . S
H5396 C5410 0.961 1_455 S
H5397 C5411 0.960 . S
H5398 C5411 0.961 . S
H5399 C5411 0.959 . S
H5400 C5414 0.929 . S
H5401 C5415 0.931 . S
H5402 C5417 0.930 . S
C5403 H5391 0.930 . S
C5403 C5404 1.399 . S
C5403 C5408 1.399 . S
C5404 C5403 1.399 . S
C5404 C5405 1.376 . S
C5405 H5392 0.930 . S
C5405 C5404 1.376 . S
C5405 C5406 1.388 . S
C5406 H5393 0.930 . S
C5406 C5405 1.388 . S
C5406 C5407 1.390 . S
C5407 C5406 1.390 . S
C5407 C5408 1.394 . S
C5407 C5413 1.465 1_455 S
C5408 C5403 1.399 . S
C5408 C5407 1.394 . S
C5408 C5409 1.516 . S
C5409 C5408 1.516 . S
C5409 C5410 1.502 1_455 S
C5409 C5411 1.561 . S
C5409 C5412 1.526 1_455 S
C5410 H5394 0.959 . S
C5410 H5395 0.959 . S
C5410 H5396 0.961 1_655 S
C5410 C5409 1.502 1_655 S
C5411 H5397 0.960 . S
C5411 H5398 0.961 . S
C5411 H5399 0.959 . S
C5411 C5409 1.561 . S
C5412 C5409 1.526 1_655 S
C5412 C5413 1.396 . S
C5412 C5417 1.390 . S
C5413 C5407 1.465 1_655 S
C5413 C5412 1.396 . S
C5413 C5414 1.399 . S
C5414 H5400 0.929 . S
C5414 C5413 1.399 . S
C5414 C5415 1.385 . S
C5415 H5401 0.931 . S
C5415 C5414 1.385 . S
C5415 C5416 1.389 . S
C5416 C5415 1.389 . S
C5416 C5417 1.387 . S
C5417 H5402 0.930 . S
C5417 C5412 1.390 . S
C5417 C5416 1.387 . S
H5418 C5430 0.930 . S
H5419 C5432 0.930 . S
H5420 C5433 0.930 . S
H5421 C5437 0.959 . S
H5422 C5437 0.959 . S
H5423 C5437 0.961 . S
H5424 C5438 0.960 . S
H5425 C5438 0.961 . S
H5426 C5438 0.959 . S
H5427 C5441 0.929 . S
H5428 C5442 0.931 . S
H5429 C5444 0.930 . S
C5430 H5418 0.930 . S
C5430 C5431 1.399 . S
C5430 C5435 1.399 . S
C5431 C5430 1.399 . S
C5431 C5432 1.376 . S
C5432 H5419 0.930 . S
C5432 C5431 1.376 . S
C5432 C5433 1.388 . S
C5433 H5420 0.930 . S
C5433 C5432 1.388 . S
C5433 C5434 1.390 . S
C5434 C5433 1.390 . S
C5434 C5435 1.394 . S
C5434 C5440 1.465 . S
C5435 C5430 1.399 . S
C5435 C5434 1.394 . S
C5435 C5436 1.516 . S
C5436 C5435 1.516 . S
C5436 C5437 1.502 . S
C5436 C5438 1.561 . S
C5436 C5439 1.526 . S
C5437 H5421 0.959 . S
C5437 H5422 0.959 . S
C5437 H5423 0.961 . S
C5437 C5436 1.502 . S
C5438 H5424 0.960 . S
C5438 H5425 0.961 . S
C5438 H5426 0.959 . S
C5438 C5436 1.561 . S
C5439 C5436 1.526 . S
C5439 C5440 1.396 . S
C5439 C5444 1.390 . S
C5440 C5434 1.465 . S
C5440 C5439 1.396 . S
C5440 C5441 1.399 . S
C5441 H5427 0.929 . S
C5441 C5440 1.399 . S
C5441 C5442 1.385 . S
C5442 H5428 0.931 . S
C5442 C5441 1.385 . S
C5442 C5443 1.389 . S
C5443 C5442 1.389 . S
C5443 C5444 1.387 . S
C5444 H5429 0.930 . S
C5444 C5439 1.390 . S
C5444 C5443 1.387 . S
H5445 C5457 0.930 . S
H5446 C5459 0.930 . S
H5447 C5460 0.930 . S
H5448 C5464 0.959 . S
H5449 C5464 0.959 . S
H5450 C5464 0.961 . S
H5451 C5465 0.960 . S
H5452 C5465 0.961 . S
H5453 C5465 0.959 . S
H5454 C5468 0.929 . S
H5455 C5469 0.931 . S
H5456 C5471 0.930 . S
C5457 H5445 0.930 . S
C5457 C5458 1.399 . S
C5457 C5462 1.399 . S
C5458 C5457 1.399 . S
C5458 C5459 1.376 . S
C5459 H5446 0.930 . S
C5459 C5458 1.376 . S
C5459 C5460 1.388 . S
C5460 H5447 0.930 . S
C5460 C5459 1.388 . S
C5460 C5461 1.390 . S
C5461 C5460 1.390 . S
C5461 C5462 1.394 . S
C5461 C5467 1.465 . S
C5462 C5457 1.399 . S
C5462 C5461 1.394 . S
C5462 C5463 1.516 . S
C5463 C5462 1.516 . S
C5463 C5464 1.502 . S
C5463 C5465 1.561 . S
C5463 C5466 1.526 . S
C5464 H5448 0.959 . S
C5464 H5449 0.959 . S
C5464 H5450 0.961 . S
C5464 C5463 1.502 . S
C5465 H5451 0.960 . S
C5465 H5452 0.961 . S
C5465 H5453 0.959 . S
C5465 C5463 1.561 . S
C5466 C5463 1.526 . S
C5466 C5467 1.396 . S
C5466 C5471 1.390 . S
C5467 C5461 1.465 . S
C5467 C5466 1.396 . S
C5467 C5468 1.399 . S
C5468 H5454 0.929 . S
C5468 C5467 1.399 . S
C5468 C5469 1.385 . S
C5469 H5455 0.931 . S
C5469 C5468 1.385 . S
C5469 C5470 1.389 . S
C5470 C5469 1.389 . S
C5470 C5471 1.387 . S
C5471 H5456 0.930 . S
C5471 C5466 1.390 . S
C5471 C5470 1.387 . S
H5472 C5484 0.930 . S
H5473 C5486 0.930 . S
H5474 C5487 0.930 . S
H5475 C5491 0.959 . S
H5476 C5491 0.959 . S
H5477 C5491 0.961 . S
H5478 C5492 0.960 . S
H5479 C5492 0.961 . S
H5480 C5492 0.959 . S
H5481 C5495 0.929 . S
H5482 C5496 0.931 . S
H5483 C5498 0.930 . S
C5484 H5472 0.930 . S
C5484 C5485 1.399 . S
C5484 C5489 1.399 . S
C5485 C5484 1.399 . S
C5485 C5486 1.376 . S
C5486 H5473 0.930 . S
C5486 C5485 1.376 . S
C5486 C5487 1.388 . S
C5487 H5474 0.930 . S
C5487 C5486 1.388 . S
C5487 C5488 1.390 . S
C5488 C5487 1.390 . S
C5488 C5489 1.394 . S
C5488 C5494 1.465 . S
C5489 C5484 1.399 . S
C5489 C5488 1.394 . S
C5489 C5490 1.516 . S
C5490 C5489 1.516 . S
C5490 C5491 1.502 . S
C5490 C5492 1.561 . S
C5490 C5493 1.526 . S
C5491 H5475 0.959 . S
C5491 H5476 0.959 . S
C5491 H5477 0.961 . S
C5491 C5490 1.502 . S
C5492 H5478 0.960 . S
C5492 H5479 0.961 . S
C5492 H5480 0.959 . S
C5492 C5490 1.561 . S
C5493 C5490 1.526 . S
C5493 C5494 1.396 . S
C5493 C5498 1.390 . S
C5494 C5488 1.465 . S
C5494 C5493 1.396 . S
C5494 C5495 1.399 . S
C5495 H5481 0.929 . S
C5495 C5494 1.399 . S
C5495 C5496 1.385 . S
C5496 H5482 0.931 . S
C5496 C5495 1.385 . S
C5496 C5497 1.389 . S
C5497 C5496 1.389 . S
C5497 C5498 1.387 . S
C5498 H5483 0.930 . S
C5498 C5493 1.390 . S
C5498 C5497 1.387 . S
H5499 C5511 0.930 . S
H5500 C5513 0.930 . S
H5501 C5514 0.930 . S
H5502 C5518 0.959 . S
H5503 C5518 0.959 . S
H5504 C5518 0.961 . S
H5505 C5519 0.960 . S
H5506 C5519 0.961 . S
H5507 C5519 0.959 . S
H5508 C5522 0.929 . S
H5509 C5523 0.931 . S
H5510 C5525 0.930 . S
C5511 H5499 0.930 . S
C5511 C5512 1.399 . S
C5511 C5516 1.399 . S
C5512 C5511 1.399 . S
C5512 C5513 1.376 . S
C5513 H5500 0.930 . S
C5513 C5512 1.376 . S
C5513 C5514 1.388 . S
C5514 H5501 0.930 . S
C5514 C5513 1.388 . S
C5514 C5515 1.390 . S
C5515 C5514 1.390 . S
C5515 C5516 1.394 . S
C5515 C5521 1.465 . S
C5516 C5511 1.399 . S
C5516 C5515 1.394 . S
C5516 C5517 1.516 . S
C5517 C5516 1.516 . S
C5517 C5518 1.502 . S
C5517 C5519 1.561 . S
C5517 C5520 1.526 . S
C5518 H5502 0.959 . S
C5518 H5503 0.959 . S
C5518 H5504 0.961 . S
C5518 C5517 1.502 . S
C5519 H5505 0.960 . S
C5519 H5506 0.961 . S
C5519 H5507 0.959 . S
C5519 C5517 1.561 . S
C5520 C5517 1.526 . S
C5520 C5521 1.396 . S
C5520 C5525 1.390 . S
C5521 C5515 1.465 . S
C5521 C5520 1.396 . S
C5521 C5522 1.399 . S
C5522 H5508 0.929 . S
C5522 C5521 1.399 . S
C5522 C5523 1.385 . S
C5523 H5509 0.931 . S
C5523 C5522 1.385 . S
C5523 C5524 1.389 . S
C5524 C5523 1.389 . S
C5524 C5525 1.387 . S
C5525 H5510 0.930 . S
C5525 C5520 1.390 . S
C5525 C5524 1.387 . S
H5526 C5538 0.930 . S
H5527 C5540 0.930 . S
H5528 C5541 0.930 . S
H5529 C5545 0.959 . S
H5530 C5545 0.959 . S
H5531 C5545 0.961 . S
H5532 C5546 0.960 . S
H5533 C5546 0.961 . S
H5534 C5546 0.959 . S
H5535 C5549 0.929 . S
H5536 C5550 0.931 . S
H5537 C5552 0.930 . S
C5538 H5526 0.930 . S
C5538 C5539 1.399 . S
C5538 C5543 1.399 . S
C5539 C5538 1.399 . S
C5539 C5540 1.376 . S
C5540 H5527 0.930 . S
C5540 C5539 1.376 . S
C5540 C5541 1.388 . S
C5541 H5528 0.930 . S
C5541 C5540 1.388 . S
C5541 C5542 1.390 . S
C5542 C5541 1.390 . S
C5542 C5543 1.394 . S
C5542 C5548 1.465 . S
C5543 C5538 1.399 . S
C5543 C5542 1.394 . S
C5543 C5544 1.516 . S
C5544 C5543 1.516 . S
C5544 C5545 1.502 . S
C5544 C5546 1.561 . S
C5544 C5547 1.526 . S
C5545 H5529 0.959 . S
C5545 H5530 0.959 . S
C5545 H5531 0.961 . S
C5545 C5544 1.502 . S
C5546 H5532 0.960 . S
C5546 H5533 0.961 . S
C5546 H5534 0.959 . S
C5546 C5544 1.561 . S
C5547 C5544 1.526 . S
C5547 C5548 1.396 . S
C5547 C5552 1.390 . S
C5548 C5542 1.465 . S
C5548 C5547 1.396 . S
C5548 C5549 1.399 . S
C5549 H5535 0.929 . S
C5549 C5548 1.399 . S
C5549 C5550 1.385 . S
C5550 H5536 0.931 . S
C5550 C5549 1.385 . S
C5550 C5551 1.389 . S
C5551 C5550 1.389 . S
C5551 C5552 1.387 . S
C5552 H5537 0.930 . S
C5552 C5547 1.390 . S
C5552 C5551 1.387 . S
H5553 C5565 0.930 . S
H5554 C5567 0.930 . S
H5555 C5568 0.930 . S
H5556 C5572 0.959 . S
H5557 C5572 0.959 . S
H5558 C5572 0.961 . S
H5559 C5573 0.960 . S
H5560 C5573 0.961 . S
H5561 C5573 0.959 . S
H5562 C5576 0.929 . S
H5563 C5577 0.931 . S
H5564 C5579 0.930 . S
C5565 H5553 0.930 . S
C5565 C5566 1.399 . S
C5565 C5570 1.399 . S
C5566 C5565 1.399 . S
C5566 C5567 1.376 . S
C5567 H5554 0.930 . S
C5567 C5566 1.376 . S
C5567 C5568 1.388 . S
C5568 H5555 0.930 . S
C5568 C5567 1.388 . S
C5568 C5569 1.390 . S
C5569 C5568 1.390 . S
C5569 C5570 1.394 . S
C5569 C5575 1.465 . S
C5570 C5565 1.399 . S
C5570 C5569 1.394 . S
C5570 C5571 1.516 . S
C5571 C5570 1.516 . S
C5571 C5572 1.502 . S
C5571 C5573 1.561 . S
C5571 C5574 1.526 . S
C5572 H5556 0.959 . S
C5572 H5557 0.959 . S
C5572 H5558 0.961 . S
C5572 C5571 1.502 . S
C5573 H5559 0.960 . S
C5573 H5560 0.961 . S
C5573 H5561 0.959 . S
C5573 C5571 1.561 . S
C5574 C5571 1.526 . S
C5574 C5575 1.396 . S
C5574 C5579 1.390 . S
C5575 C5569 1.465 . S
C5575 C5574 1.396 . S
C5575 C5576 1.399 . S
C5576 H5562 0.929 . S
C5576 C5575 1.399 . S
C5576 C5577 1.385 . S
C5577 H5563 0.931 . S
C5577 C5576 1.385 . S
C5577 C5578 1.389 . S
C5578 C5577 1.389 . S
C5578 C5579 1.387 . S
C5579 H5564 0.930 . S
C5579 C5574 1.390 . S
C5579 C5578 1.387 . S
H5580 C5592 0.930 . S
H5581 C5594 0.930 . S
H5582 C5595 0.930 . S
H5583 C5599 0.962 1_556 S
H5584 C5599 0.959 1_556 S
H5585 C5599 0.961 . S
H5586 C5600 0.960 . S
H5587 C5600 0.961 . S
H5588 C5600 0.959 . S
H5589 C5603 0.929 . S
H5590 C5604 0.931 . S
H5591 C5606 0.930 . S
C5592 H5580 0.930 . S
C5592 C5593 1.399 . S
C5592 C5597 1.399 . S
C5593 C5592 1.399 . S
C5593 C5594 1.376 . S
C5594 H5581 0.930 . S
C5594 C5593 1.376 . S
C5594 C5595 1.388 . S
C5595 H5582 0.930 . S
C5595 C5594 1.388 . S
C5595 C5596 1.390 . S
C5596 C5595 1.390 . S
C5596 C5597 1.394 . S
C5596 C5602 1.465 1_554 S
C5597 C5592 1.399 . S
C5597 C5596 1.394 . S
C5597 C5598 1.516 . S
C5598 C5597 1.516 . S
C5598 C5599 1.502 . S
C5598 C5600 1.561 . S
C5598 C5601 1.526 1_554 S
C5599 H5583 0.962 1_554 S
C5599 H5584 0.959 1_554 S
C5599 H5585 0.961 . S
C5599 C5598 1.502 . S
C5600 H5586 0.960 . S
C5600 H5587 0.961 . S
C5600 H5588 0.959 . S
C5600 C5598 1.561 . S
C5601 C5598 1.526 1_556 S
C5601 C5602 1.396 . S
C5601 C5606 1.390 . S
C5602 C5596 1.465 1_556 S
C5602 C5601 1.396 . S
C5602 C5603 1.399 . S
C5603 H5589 0.929 . S
C5603 C5602 1.399 . S
C5603 C5604 1.385 . S
C5604 H5590 0.931 . S
C5604 C5603 1.385 . S
C5604 C5605 1.389 . S
C5605 C5604 1.389 . S
C5605 C5606 1.387 . S
C5606 H5591 0.930 . S
C5606 C5601 1.390 . S
C5606 C5605 1.387 . S
H5607 C5619 0.930 . S
H5608 C5621 0.930 . S
H5609 C5622 0.930 . S
H5610 C5626 0.959 . S
H5611 C5626 0.959 . S
H5612 C5626 0.961 . S
H5613 C5627 0.960 . S
H5614 C5627 0.961 . S
H5615 C5627 0.959 . S
H5616 C5630 0.929 . S
H5617 C5631 0.931 . S
H5618 C5633 0.930 . S
C5619 H5607 0.930 . S
C5619 C5620 1.399 . S
C5619 C5624 1.399 . S
C5620 C5619 1.399 . S
C5620 C5621 1.376 . S
C5621 H5608 0.930 . S
C5621 C5620 1.376 . S
C5621 C5622 1.388 . S
C5622 H5609 0.930 . S
C5622 C5621 1.388 . S
C5622 C5623 1.390 . S
C5623 C5622 1.390 . S
C5623 C5624 1.394 . S
C5623 C5629 1.465 . S
C5624 C5619 1.399 . S
C5624 C5623 1.394 . S
C5624 C5625 1.516 . S
C5625 C5624 1.516 . S
C5625 C5626 1.502 . S
C5625 C5627 1.561 . S
C5625 C5628 1.526 . S
C5626 H5610 0.959 . S
C5626 H5611 0.959 . S
C5626 H5612 0.961 . S
C5626 C5625 1.502 . S
C5627 H5613 0.960 . S
C5627 H5614 0.961 . S
C5627 H5615 0.959 . S
C5627 C5625 1.561 . S
C5628 C5625 1.526 . S
C5628 C5629 1.396 . S
C5628 C5633 1.390 . S
C5629 C5623 1.465 . S
C5629 C5628 1.396 . S
C5629 C5630 1.399 . S
C5630 H5616 0.929 . S
C5630 C5629 1.399 . S
C5630 C5631 1.385 . S
C5631 H5617 0.931 . S
C5631 C5630 1.385 . S
C5631 C5632 1.389 . S
C5632 C5631 1.389 . S
C5632 C5633 1.387 . S
C5633 H5618 0.930 . S
C5633 C5628 1.390 . S
C5633 C5632 1.387 . S
H5634 C5646 0.930 . S
H5635 C5648 0.930 . S
H5636 C5649 0.930 . S
H5637 C5653 0.959 . S
H5638 C5653 0.959 . S
H5639 C5653 0.961 . S
H5640 C5654 0.960 . S
H5641 C5654 0.961 . S
H5642 C5654 0.959 . S
H5643 C5657 0.929 . S
H5644 C5658 0.931 . S
H5645 C5660 0.930 . S
C5646 H5634 0.930 . S
C5646 C5647 1.399 . S
C5646 C5651 1.399 . S
C5647 C5646 1.399 . S
C5647 C5648 1.376 . S
C5648 H5635 0.930 . S
C5648 C5647 1.376 . S
C5648 C5649 1.388 . S
C5649 H5636 0.930 . S
C5649 C5648 1.388 . S
C5649 C5650 1.390 . S
C5650 C5649 1.390 . S
C5650 C5651 1.394 . S
C5650 C5656 1.465 . S
C5651 C5646 1.399 . S
C5651 C5650 1.394 . S
C5651 C5652 1.516 . S
C5652 C5651 1.516 . S
C5652 C5653 1.502 . S
C5652 C5654 1.561 . S
C5652 C5655 1.526 . S
C5653 H5637 0.959 . S
C5653 H5638 0.959 . S
C5653 H5639 0.961 . S
C5653 C5652 1.502 . S
C5654 H5640 0.960 . S
C5654 H5641 0.961 . S
C5654 H5642 0.959 . S
C5654 C5652 1.561 . S
C5655 C5652 1.526 . S
C5655 C5656 1.396 . S
C5655 C5660 1.390 . S
C5656 C5650 1.465 . S
C5656 C5655 1.396 . S
C5656 C5657 1.399 . S
C5657 H5643 0.929 . S
C5657 C5656 1.399 . S
C5657 C5658 1.385 . S
C5658 H5644 0.931 . S
C5658 C5657 1.385 . S
C5658 C5659 1.389 . S
C5659 C5658 1.389 . S
C5659 C5660 1.387 . S
C5660 H5645 0.930 . S
C5660 C5655 1.390 . S
C5660 C5659 1.387 . S
H5661 C5673 0.930 . S
H5662 C5675 0.930 . S
H5663 C5676 0.930 . S
H5664 C5680 0.959 . S
H5665 C5680 0.974 . S
H5666 C5680 0.961 . S
H5667 C5681 0.960 1_556 S
H5668 C5681 0.961 . S
H5669 C5681 0.959 . S
H5670 C5684 0.929 . S
H5671 C5685 0.931 . S
H5672 C5687 0.930 . S
C5673 H5661 0.930 . S
C5673 C5674 1.399 . S
C5673 C5678 1.399 . S
C5674 C5673 1.399 . S
C5674 C5675 1.376 . S
C5675 H5662 0.930 . S
C5675 C5674 1.376 . S
C5675 C5676 1.388 . S
C5676 H5663 0.930 . S
C5676 C5675 1.388 . S
C5676 C5677 1.390 . S
C5677 C5676 1.390 . S
C5677 C5678 1.394 . S
C5677 C5683 1.465 1_556 S
C5678 C5673 1.399 . S
C5678 C5677 1.394 . S
C5678 C5679 1.516 . S
C5679 C5678 1.516 . S
C5679 C5680 1.502 . S
C5679 C5681 1.561 1_556 S
C5679 C5682 1.526 1_556 S
C5680 H5664 0.959 . S
C5680 H5665 0.974 . S
C5680 H5666 0.961 . S
C5680 C5679 1.502 . S
C5681 H5667 0.960 1_554 S
C5681 H5668 0.961 . S
C5681 H5669 0.959 . S
C5681 C5679 1.561 1_554 S
C5682 C5679 1.526 1_554 S
C5682 C5683 1.396 . S
C5682 C5687 1.390 . S
C5683 C5677 1.465 1_554 S
C5683 C5682 1.396 . S
C5683 C5684 1.399 . S
C5684 H5670 0.929 . S
C5684 C5683 1.399 . S
C5684 C5685 1.385 . S
C5685 H5671 0.931 . S
C5685 C5684 1.385 . S
C5685 C5686 1.389 . S
C5686 C5685 1.389 . S
C5686 C5687 1.387 . S
C5687 H5672 0.930 . S
C5687 C5682 1.390 . S
C5687 C5686 1.387 . S
H5688 C5700 0.930 . S
H5689 C5702 0.930 . S
H5690 C5703 0.930 . S
H5691 C5707 0.959 . S
H5692 C5707 0.959 . S
H5693 C5707 0.961 . S
H5694 C5708 0.960 . S
H5695 C5708 0.961 . S
H5696 C5708 0.959 . S
H5697 C5711 0.929 . S
H5698 C5712 0.931 . S
H5699 C5714 0.930 . S
C5700 H5688 0.930 . S
C5700 C5701 1.399 . S
C5700 C5705 1.399 . S
C5701 C5700 1.399 . S
C5701 C5702 1.376 . S
C5702 H5689 0.930 . S
C5702 C5701 1.376 . S
C5702 C5703 1.388 . S
C5703 H5690 0.930 . S
C5703 C5702 1.388 . S
C5703 C5704 1.390 . S
C5704 C5703 1.390 . S
C5704 C5705 1.394 . S
C5704 C5710 1.465 . S
C5705 C5700 1.399 . S
C5705 C5704 1.394 . S
C5705 C5706 1.516 . S
C5706 C5705 1.516 . S
C5706 C5707 1.502 . S
C5706 C5708 1.561 . S
C5706 C5709 1.526 . S
C5707 H5691 0.959 . S
C5707 H5692 0.959 . S
C5707 H5693 0.961 . S
C5707 C5706 1.502 . S
C5708 H5694 0.960 . S
C5708 H5695 0.961 . S
C5708 H5696 0.959 . S
C5708 C5706 1.561 . S
C5709 C5706 1.526 . S
C5709 C5710 1.396 . S
C5709 C5714 1.390 . S
C5710 C5704 1.465 . S
C5710 C5709 1.396 . S
C5710 C5711 1.399 . S
C5711 H5697 0.929 . S
C5711 C5710 1.399 . S
C5711 C5712 1.385 . S
C5712 H5698 0.931 . S
C5712 C5711 1.385 . S
C5712 C5713 1.389 . S
C5713 C5712 1.389 . S
C5713 C5714 1.387 . S
C5714 H5699 0.930 . S
C5714 C5709 1.390 . S
C5714 C5713 1.387 . S
H5715 C5727 0.930 . S
H5716 C5729 0.930 . S
H5717 C5730 0.930 . S
H5718 C5734 0.959 . S
H5719 C5734 0.959 . S
H5720 C5734 0.961 . S
H5721 C5735 0.960 . S
H5722 C5735 0.961 . S
H5723 C5735 0.959 . S
H5724 C5738 0.929 . S
H5725 C5739 0.931 . S
H5726 C5741 0.930 . S
C5727 H5715 0.930 . S
C5727 C5728 1.399 . S
C5727 C5732 1.399 . S
C5728 C5727 1.399 . S
C5728 C5729 1.376 . S
C5729 H5716 0.930 . S
C5729 C5728 1.376 . S
C5729 C5730 1.388 . S
C5730 H5717 0.930 . S
C5730 C5729 1.388 . S
C5730 C5731 1.390 . S
C5731 C5730 1.390 . S
C5731 C5732 1.394 . S
C5731 C5737 1.465 . S
C5732 C5727 1.399 . S
C5732 C5731 1.394 . S
C5732 C5733 1.516 . S
C5733 C5732 1.516 . S
C5733 C5734 1.502 . S
C5733 C5735 1.561 . S
C5733 C5736 1.526 . S
C5734 H5718 0.959 . S
C5734 H5719 0.959 . S
C5734 H5720 0.961 . S
C5734 C5733 1.502 . S
C5735 H5721 0.960 . S
C5735 H5722 0.961 . S
C5735 H5723 0.959 . S
C5735 C5733 1.561 . S
C5736 C5733 1.526 . S
C5736 C5737 1.396 . S
C5736 C5741 1.390 . S
C5737 C5731 1.465 . S
C5737 C5736 1.396 . S
C5737 C5738 1.399 . S
C5738 H5724 0.929 . S
C5738 C5737 1.399 . S
C5738 C5739 1.385 . S
C5739 H5725 0.931 . S
C5739 C5738 1.385 . S
C5739 C5740 1.389 . S
C5740 C5739 1.389 . S
C5740 C5741 1.387 . S
C5741 H5726 0.930 . S
C5741 C5736 1.390 . S
C5741 C5740 1.387 . S
H5742 C5754 0.930 . S
H5743 C5756 0.930 . S
H5744 C5757 0.930 . S
H5745 C5761 0.959 . S
H5746 C5761 0.959 . S
H5747 C5761 0.961 . S
H5748 C5762 0.960 . S
H5749 C5762 0.961 . S
H5750 C5762 0.959 . S
H5751 C5765 0.929 . S
H5752 C5766 0.931 . S
H5753 C5768 0.930 . S
C5754 H5742 0.930 . S
C5754 C5755 1.399 . S
C5754 C5759 1.399 . S
C5755 C5754 1.399 . S
C5755 C5756 1.376 . S
C5756 H5743 0.930 . S
C5756 C5755 1.376 . S
C5756 C5757 1.388 . S
C5757 H5744 0.930 . S
C5757 C5756 1.388 . S
C5757 C5758 1.390 . S
C5758 C5757 1.390 . S
C5758 C5759 1.394 . S
C5758 C5764 1.465 . S
C5759 C5754 1.399 . S
C5759 C5758 1.394 . S
C5759 C5760 1.516 . S
C5760 C5759 1.516 . S
C5760 C5761 1.502 . S
C5760 C5762 1.561 . S
C5760 C5763 1.526 . S
C5761 H5745 0.959 . S
C5761 H5746 0.959 . S
C5761 H5747 0.961 . S
C5761 C5760 1.502 . S
C5762 H5748 0.960 . S
C5762 H5749 0.961 . S
C5762 H5750 0.959 . S
C5762 C5760 1.561 . S
C5763 C5760 1.526 . S
C5763 C5764 1.396 . S
C5763 C5768 1.390 . S
C5764 C5758 1.465 . S
C5764 C5763 1.396 . S
C5764 C5765 1.399 . S
C5765 H5751 0.929 . S
C5765 C5764 1.399 . S
C5765 C5766 1.385 . S
C5766 H5752 0.931 . S
C5766 C5765 1.385 . S
C5766 C5767 1.389 . S
C5767 C5766 1.389 . S
C5767 C5768 1.387 . S
C5768 H5753 0.930 . S
C5768 C5763 1.390 . S
C5768 C5767 1.387 . S
H5769 C5781 0.930 . S
H5770 C5783 0.930 . S
H5771 C5784 0.930 . S
H5772 C5788 0.959 . S
H5773 C5788 0.959 . S
H5774 C5788 0.961 . S
H5775 C5789 0.960 . S
H5776 C5789 0.961 . S
H5777 C5789 0.959 . S
H5778 C5792 0.929 . S
H5779 C5793 0.931 . S
H5780 C5795 0.930 . S
C5781 H5769 0.930 . S
C5781 C5782 1.399 . S
C5781 C5786 1.399 . S
C5782 C5781 1.399 . S
C5782 C5783 1.376 . S
C5783 H5770 0.930 . S
C5783 C5782 1.376 . S
C5783 C5784 1.388 . S
C5784 H5771 0.930 . S
C5784 C5783 1.388 . S
C5784 C5785 1.390 . S
C5785 C5784 1.390 . S
C5785 C5786 1.394 . S
C5785 C5791 1.465 . S
C5786 C5781 1.399 . S
C5786 C5785 1.394 . S
C5786 C5787 1.516 . S
C5787 C5786 1.516 . S
C5787 C5788 1.502 . S
C5787 C5789 1.561 . S
C5787 C5790 1.526 . S
C5788 H5772 0.959 . S
C5788 H5773 0.959 . S
C5788 H5774 0.961 . S
C5788 C5787 1.502 . S
C5789 H5775 0.960 . S
C5789 H5776 0.961 . S
C5789 H5777 0.959 . S
C5789 C5787 1.561 . S
C5790 C5787 1.526 . S
C5790 C5791 1.396 . S
C5790 C5795 1.390 . S
C5791 C5785 1.465 . S
C5791 C5790 1.396 . S
C5791 C5792 1.399 . S
C5792 H5778 0.929 . S
C5792 C5791 1.399 . S
C5792 C5793 1.385 . S
C5793 H5779 0.931 . S
C5793 C5792 1.385 . S
C5793 C5794 1.389 . S
C5794 C5793 1.389 . S
C5794 C5795 1.387 . S
C5795 H5780 0.930 . S
C5795 C5790 1.390 . S
C5795 C5794 1.387 . S
H5796 C5808 0.930 . S
H5797 C5810 0.930 . S
H5798 C5811 0.930 . S
H5799 C5815 0.959 . S
H5800 C5815 0.959 1_545 S
H5801 C5815 0.961 . S
H5802 C5816 0.960 1_565 S
H5803 C5816 0.961 . S
H5804 C5816 0.959 . S
H5805 C5819 0.929 . S
H5806 C5820 0.931 . S
H5807 C5822 0.930 . S
C5808 H5796 0.930 . S
C5808 C5809 1.399 . S
C5808 C5813 1.399 . S
C5809 C5808 1.399 . S
C5809 C5810 1.376 . S
C5810 H5797 0.930 . S
C5810 C5809 1.376 . S
C5810 C5811 1.388 . S
C5811 H5798 0.930 . S
C5811 C5810 1.388 . S
C5811 C5812 1.390 . S
C5812 C5811 1.390 . S
C5812 C5813 1.394 . S
C5812 C5818 1.465 1_565 S
C5813 C5808 1.399 . S
C5813 C5812 1.394 . S
C5813 C5814 1.516 1_565 S
C5814 C5813 1.516 1_545 S
C5814 C5815 1.502 1_545 S
C5814 C5816 1.561 . S
C5814 C5817 1.526 . S
C5815 H5799 0.959 . S
C5815 H5800 0.959 1_565 S
C5815 H5801 0.961 . S
C5815 C5814 1.502 1_565 S
C5816 H5802 0.960 1_545 S
C5816 H5803 0.961 . S
C5816 H5804 0.959 . S
C5816 C5814 1.561 . S
C5817 C5814 1.526 . S
C5817 C5818 1.396 . S
C5817 C5822 1.390 . S
C5818 C5812 1.465 1_545 S
C5818 C5817 1.396 . S
C5818 C5819 1.399 . S
C5819 H5805 0.929 . S
C5819 C5818 1.399 . S
C5819 C5820 1.385 . S
C5820 H5806 0.931 . S
C5820 C5819 1.385 . S
C5820 C5821 1.389 . S
C5821 C5820 1.389 . S
C5821 C5822 1.387 . S
C5822 H5807 0.930 . S
C5822 C5817 1.390 . S
C5822 C5821 1.387 . S
H5823 C5835 0.930 . S
H5824 C5837 0.930 . S
H5825 C5838 0.930 . S
H5826 C5842 0.959 . S
H5827 C5842 0.959 . S
H5828 C5842 0.961 . S
H5829 C5843 0.960 . S
H5830 C5843 0.961 . S
H5831 C5843 0.959 . S
H5832 C5846 0.929 . S
H5833 C5847 0.931 . S
H5834 C5849 0.930 . S
C5835 H5823 0.930 . S
C5835 C5836 1.399 . S
C5835 C5840 1.399 . S
C5836 C5835 1.399 . S
C5836 C5837 1.376 . S
C5837 H5824 0.930 . S
C5837 C5836 1.376 . S
C5837 C5838 1.388 . S
C5838 H5825 0.930 . S
C5838 C5837 1.388 . S
C5838 C5839 1.390 . S
C5839 C5838 1.390 . S
C5839 C5840 1.394 . S
C5839 C5845 1.465 . S
C5840 C5835 1.399 . S
C5840 C5839 1.394 . S
C5840 C5841 1.516 . S
C5841 C5840 1.516 . S
C5841 C5842 1.502 . S
C5841 C5843 1.561 . S
C5841 C5844 1.526 . S
C5842 H5826 0.959 . S
C5842 H5827 0.959 . S
C5842 H5828 0.961 . S
C5842 C5841 1.502 . S
C5843 H5829 0.960 . S
C5843 H5830 0.961 . S
C5843 H5831 0.959 . S
C5843 C5841 1.561 . S
C5844 C5841 1.526 . S
C5844 C5845 1.396 . S
C5844 C5849 1.390 . S
C5845 C5839 1.465 . S
C5845 C5844 1.396 . S
C5845 C5846 1.399 . S
C5846 H5832 0.929 . S
C5846 C5845 1.399 . S
C5846 C5847 1.385 . S
C5847 H5833 0.931 . S
C5847 C5846 1.385 . S
C5847 C5848 1.389 . S
C5848 C5847 1.389 . S
C5848 C5849 1.387 . S
C5849 H5834 0.930 . S
C5849 C5844 1.390 . S
C5849 C5848 1.387 . S
H5850 C5862 0.930 . S
H5851 C5864 0.930 . S
H5852 C5865 0.930 . S
H5853 C5869 0.959 . S
H5854 C5869 0.959 . S
H5855 C5869 0.961 . S
H5856 C5870 0.960 . S
H5857 C5870 0.961 . S
H5858 C5870 0.959 . S
H5859 C5873 0.929 . S
H5860 C5874 0.931 . S
H5861 C5876 0.930 . S
C5862 H5850 0.930 . S
C5862 C5863 1.399 . S
C5862 C5867 1.399 . S
C5863 C5862 1.399 . S
C5863 C5864 1.376 . S
C5864 H5851 0.930 . S
C5864 C5863 1.376 . S
C5864 C5865 1.388 . S
C5865 H5852 0.930 . S
C5865 C5864 1.388 . S
C5865 C5866 1.390 . S
C5866 C5865 1.390 . S
C5866 C5867 1.394 . S
C5866 C5872 1.465 . S
C5867 C5862 1.399 . S
C5867 C5866 1.394 . S
C5867 C5868 1.516 . S
C5868 C5867 1.516 . S
C5868 C5869 1.502 . S
C5868 C5870 1.561 . S
C5868 C5871 1.526 . S
C5869 H5853 0.959 . S
C5869 H5854 0.959 . S
C5869 H5855 0.961 . S
C5869 C5868 1.502 . S
C5870 H5856 0.960 . S
C5870 H5857 0.961 . S
C5870 H5858 0.959 . S
C5870 C5868 1.561 . S
C5871 C5868 1.526 . S
C5871 C5872 1.396 . S
C5871 C5876 1.390 . S
C5872 C5866 1.465 . S
C5872 C5871 1.396 . S
C5872 C5873 1.399 . S
C5873 H5859 0.929 . S
C5873 C5872 1.399 . S
C5873 C5874 1.385 . S
C5874 H5860 0.931 . S
C5874 C5873 1.385 . S
C5874 C5875 1.389 . S
C5875 C5874 1.389 . S
C5875 C5876 1.387 . S
C5876 H5861 0.930 . S
C5876 C5871 1.390 . S
C5876 C5875 1.387 . S
H5877 C5889 0.930 . S
H5878 C5891 0.930 . S
H5879 C5892 0.930 . S
H5880 C5896 0.959 . S
H5881 C5896 0.959 . S
H5882 C5896 0.961 . S
H5883 C5897 0.960 1_455 S
H5884 C5897 0.961 . S
H5885 C5897 0.959 . S
H5886 C5900 0.929 . S
H5887 C5901 0.931 . S
H5888 C5903 0.930 . S
C5889 H5877 0.930 . S
C5889 C5890 1.399 . S
C5889 C5894 1.399 . S
C5890 C5889 1.399 . S
C5890 C5891 1.376 . S
C5891 H5878 0.930 . S
C5891 C5890 1.376 . S
C5891 C5892 1.388 . S
C5892 H5879 0.930 . S
C5892 C5891 1.388 . S
C5892 C5893 1.390 1_455 S
C5893 C5892 1.390 1_655 S
C5893 C5894 1.394 1_655 S
C5893 C5899 1.465 . S
C5894 C5889 1.399 . S
C5894 C5893 1.394 1_455 S
C5894 C5895 1.516 1_455 S
C5895 C5894 1.516 1_655 S
C5895 C5896 1.502 . S
C5895 C5897 1.561 . S
C5895 C5898 1.526 . S
C5896 H5880 0.959 . S
C5896 H5881 0.959 . S
C5896 H5882 0.961 . S
C5896 C5895 1.502 . S
C5897 H5883 0.960 1_655 S
C5897 H5884 0.961 . S
C5897 H5885 0.959 . S
C5897 C5895 1.561 . S
C5898 C5895 1.526 . S
C5898 C5899 1.396 . S
C5898 C5903 1.390 . S
C5899 C5893 1.465 . S
C5899 C5898 1.396 . S
C5899 C5900 1.399 . S
C5900 H5886 0.929 . S
C5900 C5899 1.399 . S
C5900 C5901 1.385 . S
C5901 H5887 0.931 . S
C5901 C5900 1.385 . S
C5901 C5902 1.389 . S
C5902 C5901 1.389 . S
C5902 C5903 1.387 . S
C5903 H5888 0.930 . S
C5903 C5898 1.390 . S
C5903 C5902 1.387 . S
H5904 C5916 0.930 . S
H5905 C5918 0.930 . S
H5906 C5919 0.930 . S
H5907 C5923 0.959 . S
H5908 C5923 0.959 . S
H5909 C5923 0.961 . S
H5910 C5924 0.960 . S
H5911 C5924 0.961 . S
H5912 C5924 0.959 . S
H5913 C5927 0.929 . S
H5914 C5928 0.931 . S
H5915 C5930 0.930 . S
C5916 H5904 0.930 . S
C5916 C5917 1.399 . S
C5916 C5921 1.399 . S
C5917 C5916 1.399 . S
C5917 C5918 1.376 . S
C5918 H5905 0.930 . S
C5918 C5917 1.376 . S
C5918 C5919 1.388 . S
C5919 H5906 0.930 . S
C5919 C5918 1.388 . S
C5919 C5920 1.390 . S
C5920 C5919 1.390 . S
C5920 C5921 1.394 . S
C5920 C5926 1.465 . S
C5921 C5916 1.399 . S
C5921 C5920 1.394 . S
C5921 C5922 1.516 . S
C5922 C5921 1.516 . S
C5922 C5923 1.502 . S
C5922 C5924 1.561 . S
C5922 C5925 1.526 . S
C5923 H5907 0.959 . S
C5923 H5908 0.959 . S
C5923 H5909 0.961 . S
C5923 C5922 1.502 . S
C5924 H5910 0.960 . S
C5924 H5911 0.961 . S
C5924 H5912 0.959 . S
C5924 C5922 1.561 . S
C5925 C5922 1.526 . S
C5925 C5926 1.396 . S
C5925 C5930 1.390 . S
C5926 C5920 1.465 . S
C5926 C5925 1.396 . S
C5926 C5927 1.399 . S
C5927 H5913 0.929 . S
C5927 C5926 1.399 . S
C5927 C5928 1.385 . S
C5928 H5914 0.931 . S
C5928 C5927 1.385 . S
C5928 C5929 1.389 . S
C5929 C5928 1.389 . S
C5929 C5930 1.387 . S
C5930 H5915 0.930 . S
C5930 C5925 1.390 . S
C5930 C5929 1.387 . S
H5931 C5943 0.930 . S
H5932 C5945 0.930 . S
H5933 C5946 0.930 . S
H5934 C5950 0.959 . S
H5935 C5950 0.959 . S
H5936 C5950 0.961 . S
H5937 C5951 0.960 . S
H5938 C5951 0.961 . S
H5939 C5951 0.959 . S
H5940 C5954 0.929 . S
H5941 C5955 0.931 . S
H5942 C5957 0.930 . S
C5943 H5931 0.930 . S
C5943 C5944 1.399 . S
C5943 C5948 1.399 . S
C5944 C5943 1.399 . S
C5944 C5945 1.376 . S
C5945 H5932 0.930 . S
C5945 C5944 1.376 . S
C5945 C5946 1.388 . S
C5946 H5933 0.930 . S
C5946 C5945 1.388 . S
C5946 C5947 1.390 . S
C5947 C5946 1.390 . S
C5947 C5948 1.394 . S
C5947 C5953 1.465 . S
C5948 C5943 1.399 . S
C5948 C5947 1.394 . S
C5948 C5949 1.516 . S
C5949 C5948 1.516 . S
C5949 C5950 1.502 . S
C5949 C5951 1.561 . S
C5949 C5952 1.526 . S
C5950 H5934 0.959 . S
C5950 H5935 0.959 . S
C5950 H5936 0.961 . S
C5950 C5949 1.502 . S
C5951 H5937 0.960 . S
C5951 H5938 0.961 . S
C5951 H5939 0.959 . S
C5951 C5949 1.561 . S
C5952 C5949 1.526 . S
C5952 C5953 1.396 . S
C5952 C5957 1.390 . S
C5953 C5947 1.465 . S
C5953 C5952 1.396 . S
C5953 C5954 1.399 . S
C5954 H5940 0.929 . S
C5954 C5953 1.399 . S
C5954 C5955 1.385 . S
C5955 H5941 0.931 . S
C5955 C5954 1.385 . S
C5955 C5956 1.389 . S
C5956 C5955 1.389 . S
C5956 C5957 1.387 . S
C5957 H5942 0.930 . S
C5957 C5952 1.390 . S
C5957 C5956 1.387 . S
H5958 C5970 0.930 . S
H5959 C5972 0.930 . S
H5960 C5973 0.930 . S
H5961 C5977 0.959 . S
H5962 C5977 0.959 . S
H5963 C5977 0.961 . S
H5964 C5978 0.960 . S
H5965 C5978 0.961 . S
H5966 C5978 0.959 . S
H5967 C5981 0.929 . S
H5968 C5982 0.931 . S
H5969 C5984 0.930 . S
C5970 H5958 0.930 . S
C5970 C5971 1.399 . S
C5970 C5975 1.399 . S
C5971 C5970 1.399 . S
C5971 C5972 1.376 . S
C5972 H5959 0.930 . S
C5972 C5971 1.376 . S
C5972 C5973 1.388 . S
C5973 H5960 0.930 . S
C5973 C5972 1.388 . S
C5973 C5974 1.390 . S
C5974 C5973 1.390 . S
C5974 C5975 1.394 . S
C5974 C5980 1.465 . S
C5975 C5970 1.399 . S
C5975 C5974 1.394 . S
C5975 C5976 1.516 . S
C5976 C5975 1.516 . S
C5976 C5977 1.502 . S
C5976 C5978 1.561 . S
C5976 C5979 1.526 . S
C5977 H5961 0.959 . S
C5977 H5962 0.959 . S
C5977 H5963 0.961 . S
C5977 C5976 1.502 . S
C5978 H5964 0.960 . S
C5978 H5965 0.961 . S
C5978 H5966 0.959 . S
C5978 C5976 1.561 . S
C5979 C5976 1.526 . S
C5979 C5980 1.396 . S
C5979 C5984 1.390 . S
C5980 C5974 1.465 . S
C5980 C5979 1.396 . S
C5980 C5981 1.399 . S
C5981 H5967 0.929 . S
C5981 C5980 1.399 . S
C5981 C5982 1.385 . S
C5982 H5968 0.931 . S
C5982 C5981 1.385 . S
C5982 C5983 1.389 . S
C5983 C5982 1.389 . S
C5983 C5984 1.387 . S
C5984 H5969 0.930 . S
C5984 C5979 1.390 . S
C5984 C5983 1.387 . S
H5985 C5997 0.930 . S
H5986 C5999 0.930 . S
H5987 C6000 0.930 . S
H5988 C6004 0.959 . S
H5989 C6004 0.959 . S
H5990 C6004 0.961 . S
H5991 C6005 0.960 . S
H5992 C6005 0.961 . S
H5993 C6005 0.959 . S
H5994 C6008 0.929 . S
H5995 C6009 0.931 . S
H5996 C6011 0.930 . S
C5997 H5985 0.930 . S
C5997 C5998 1.399 . S
C5997 C6002 1.399 . S
C5998 C5997 1.399 . S
C5998 C5999 1.376 . S
C5999 H5986 0.930 . S
C5999 C5998 1.376 . S
C5999 C6000 1.388 . S
C6000 H5987 0.930 . S
C6000 C5999 1.388 . S
C6000 C6001 1.390 . S
C6001 C6000 1.390 . S
C6001 C6002 1.394 . S
C6001 C6007 1.465 . S
C6002 C5997 1.399 . S
C6002 C6001 1.394 . S
C6002 C6003 1.516 . S
C6003 C6002 1.516 . S
C6003 C6004 1.502 . S
C6003 C6005 1.561 . S
C6003 C6006 1.526 . S
C6004 H5988 0.959 . S
C6004 H5989 0.959 . S
C6004 H5990 0.961 . S
C6004 C6003 1.502 . S
C6005 H5991 0.960 . S
C6005 H5992 0.961 . S
C6005 H5993 0.959 . S
C6005 C6003 1.561 . S
C6006 C6003 1.526 . S
C6006 C6007 1.396 . S
C6006 C6011 1.390 . S
C6007 C6001 1.465 . S
C6007 C6006 1.396 . S
C6007 C6008 1.399 . S
C6008 H5994 0.929 . S
C6008 C6007 1.399 . S
C6008 C6009 1.385 . S
C6009 H5995 0.931 . S
C6009 C6008 1.385 . S
C6009 C6010 1.389 . S
C6010 C6009 1.389 . S
C6010 C6011 1.387 . S
C6011 H5996 0.930 . S
C6011 C6006 1.390 . S
C6011 C6010 1.387 . S
H6012 C6024 0.930 . S
H6013 C6026 0.930 . S
H6014 C6027 0.930 . S
H6015 C6031 0.959 . S
H6016 C6031 0.959 . S
H6017 C6031 0.961 . S
H6018 C6032 0.960 . S
H6019 C6032 0.961 . S
H6020 C6032 0.959 . S
H6021 C6035 0.929 . S
H6022 C6036 0.931 . S
H6023 C6038 0.930 . S
C6024 H6012 0.930 . S
C6024 C6025 1.399 . S
C6024 C6029 1.399 . S
C6025 C6024 1.399 . S
C6025 C6026 1.376 . S
C6026 H6013 0.930 . S
C6026 C6025 1.376 . S
C6026 C6027 1.388 . S
C6027 H6014 0.930 . S
C6027 C6026 1.388 . S
C6027 C6028 1.390 . S
C6028 C6027 1.390 . S
C6028 C6029 1.394 . S
C6028 C6034 1.465 . S
C6029 C6024 1.399 . S
C6029 C6028 1.394 . S
C6029 C6030 1.516 . S
C6030 C6029 1.516 . S
C6030 C6031 1.502 . S
C6030 C6032 1.561 . S
C6030 C6033 1.526 . S
C6031 H6015 0.959 . S
C6031 H6016 0.959 . S
C6031 H6017 0.961 . S
C6031 C6030 1.502 . S
C6032 H6018 0.960 . S
C6032 H6019 0.961 . S
C6032 H6020 0.959 . S
C6032 C6030 1.561 . S
C6033 C6030 1.526 . S
C6033 C6034 1.396 . S
C6033 C6038 1.390 . S
C6034 C6028 1.465 . S
C6034 C6033 1.396 . S
C6034 C6035 1.399 . S
C6035 H6021 0.929 . S
C6035 C6034 1.399 . S
C6035 C6036 1.385 . S
C6036 H6022 0.931 . S
C6036 C6035 1.385 . S
C6036 C6037 1.389 . S
C6037 C6036 1.389 . S
C6037 C6038 1.387 . S
C6038 H6023 0.930 . S
C6038 C6033 1.390 . S
C6038 C6037 1.387 . S
H6039 C6051 0.930 . S
H6040 C6053 0.930 . S
H6041 C6054 0.930 . S
H6042 C6058 0.959 . S
H6043 C6058 0.959 . S
H6044 C6058 0.961 . S
H6045 C6059 0.960 . S
H6046 C6059 0.961 . S
H6047 C6059 0.959 . S
H6048 C6062 0.929 . S
H6049 C6063 0.931 . S
H6050 C6065 0.930 . S
C6051 H6039 0.930 . S
C6051 C6052 1.399 . S
C6051 C6056 1.399 . S
C6052 C6051 1.399 . S
C6052 C6053 1.376 . S
C6053 H6040 0.930 . S
C6053 C6052 1.376 . S
C6053 C6054 1.388 . S
C6054 H6041 0.930 . S
C6054 C6053 1.388 . S
C6054 C6055 1.390 . S
C6055 C6054 1.390 . S
C6055 C6056 1.394 . S
C6055 C6061 1.465 . S
C6056 C6051 1.399 . S
C6056 C6055 1.394 . S
C6056 C6057 1.516 . S
C6057 C6056 1.516 . S
C6057 C6058 1.502 . S
C6057 C6059 1.561 . S
C6057 C6060 1.526 . S
C6058 H6042 0.959 . S
C6058 H6043 0.959 . S
C6058 H6044 0.961 . S
C6058 C6057 1.502 . S
C6059 H6045 0.960 . S
C6059 H6046 0.961 . S
C6059 H6047 0.959 . S
C6059 C6057 1.561 . S
C6060 C6057 1.526 . S
C6060 C6061 1.396 . S
C6060 C6065 1.390 . S
C6061 C6055 1.465 . S
C6061 C6060 1.396 . S
C6061 C6062 1.399 . S
C6062 H6048 0.929 . S
C6062 C6061 1.399 . S
C6062 C6063 1.385 . S
C6063 H6049 0.931 . S
C6063 C6062 1.385 . S
C6063 C6064 1.389 . S
C6064 C6063 1.389 . S
C6064 C6065 1.387 . S
C6065 H6050 0.930 . S
C6065 C6060 1.390 . S
C6065 C6064 1.387 . S
H6066 C6078 0.930 . S
H6067 C6080 0.930 . S
H6068 C6081 0.930 . S
H6069 C6085 0.959 . S
H6070 C6085 0.959 . S
H6071 C6085 0.961 . S
H6072 C6086 0.960 . S
H6073 C6086 0.961 . S
H6074 C6086 0.959 . S
H6075 C6089 0.938 . S
H6076 C6090 0.931 . S
H6077 C6092 0.930 . S
C6078 H6066 0.930 . S
C6078 C6079 1.399 . S
C6078 C6083 1.399 . S
C6079 C6078 1.399 . S
C6079 C6080 1.376 . S
C6080 H6067 0.930 . S
C6080 C6079 1.376 . S
C6080 C6081 1.388 . S
C6081 H6068 0.930 . S
C6081 C6080 1.388 . S
C6081 C6082 1.390 . S
C6082 C6081 1.390 . S
C6082 C6083 1.394 . S
C6082 C6088 1.465 . S
C6083 C6078 1.399 . S
C6083 C6082 1.394 . S
C6083 C6084 1.516 . S
C6084 C6083 1.516 . S
C6084 C6085 1.502 . S
C6084 C6086 1.561 . S
C6084 C6087 1.526 . S
C6085 H6069 0.959 . S
C6085 H6070 0.959 . S
C6085 H6071 0.961 . S
C6085 C6084 1.502 . S
C6086 H6072 0.960 . S
C6086 H6073 0.961 . S
C6086 H6074 0.959 . S
C6086 C6084 1.561 . S
C6087 C6084 1.526 . S
C6087 C6088 1.396 . S
C6087 C6092 1.390 1_554 S
C6088 C6082 1.465 . S
C6088 C6087 1.396 . S
C6088 C6089 1.420 . S
C6089 H6075 0.938 . S
C6089 C6088 1.420 . S
C6089 C6090 1.356 1_554 S
C6090 H6076 0.931 . S
C6090 C6089 1.356 1_556 S
C6090 C6091 1.389 . S
C6091 C6090 1.389 . S
C6091 C6092 1.387 . S
C6092 H6077 0.930 . S
C6092 C6087 1.390 1_556 S
C6092 C6091 1.387 . S
H6093 C6105 0.930 . S
H6094 C6107 0.930 . S
H6095 C6108 0.930 . S
H6096 C6112 0.959 . S
H6097 C6112 0.959 . S
H6098 C6112 0.961 . S
H6099 C6113 0.960 . S
H6100 C6113 0.961 . S
H6101 C6113 0.959 . S
H6102 C6116 0.929 . S
H6103 C6117 0.931 . S
H6104 C6119 0.930 . S
C6105 H6093 0.930 . S
C6105 C6106 1.399 . S
C6105 C6110 1.399 . S
C6106 C6105 1.399 . S
C6106 C6107 1.376 . S
C6107 H6094 0.930 . S
C6107 C6106 1.376 . S
C6107 C6108 1.388 . S
C6108 H6095 0.930 . S
C6108 C6107 1.388 . S
C6108 C6109 1.390 . S
C6109 C6108 1.390 . S
C6109 C6110 1.394 . S
C6109 C6115 1.465 . S
C6110 C6105 1.399 . S
C6110 C6109 1.394 . S
C6110 C6111 1.516 . S
C6111 C6110 1.516 . S
C6111 C6112 1.502 . S
C6111 C6113 1.561 . S
C6111 C6114 1.526 . S
C6112 H6096 0.959 . S
C6112 H6097 0.959 . S
C6112 H6098 0.961 . S
C6112 C6111 1.502 . S
C6113 H6099 0.960 . S
C6113 H6100 0.961 . S
C6113 H6101 0.959 . S
C6113 C6111 1.561 . S
C6114 C6111 1.526 . S
C6114 C6115 1.396 . S
C6114 C6119 1.390 . S
C6115 C6109 1.465 . S
C6115 C6114 1.396 . S
C6115 C6116 1.399 . S
C6116 H6102 0.929 . S
C6116 C6115 1.399 . S
C6116 C6117 1.385 . S
C6117 H6103 0.931 . S
C6117 C6116 1.385 . S
C6117 C6118 1.389 . S
C6118 C6117 1.389 . S
C6118 C6119 1.387 . S
C6119 H6104 0.930 . S
C6119 C6114 1.390 . S
C6119 C6118 1.387 . S
H6120 C6132 0.930 . S
H6121 C6134 0.930 . S
H6122 C6135 0.930 . S
H6123 C6139 0.959 . S
H6124 C6139 0.959 . S
H6125 C6139 0.961 . S
H6126 C6140 0.960 . S
H6127 C6140 0.961 . S
H6128 C6140 0.959 . S
H6129 C6143 0.929 . S
H6130 C6144 0.931 . S
H6131 C6146 0.930 . S
C6132 H6120 0.930 . S
C6132 C6133 1.399 . S
C6132 C6137 1.399 . S
C6133 C6132 1.399 . S
C6133 C6134 1.376 . S
C6134 H6121 0.930 . S
C6134 C6133 1.376 . S
C6134 C6135 1.388 . S
C6135 H6122 0.930 . S
C6135 C6134 1.388 . S
C6135 C6136 1.390 . S
C6136 C6135 1.390 . S
C6136 C6137 1.394 . S
C6136 C6142 1.465 . S
C6137 C6132 1.399 . S
C6137 C6136 1.394 . S
C6137 C6138 1.516 . S
C6138 C6137 1.516 . S
C6138 C6139 1.502 . S
C6138 C6140 1.561 . S
C6138 C6141 1.526 . S
C6139 H6123 0.959 . S
C6139 H6124 0.959 . S
C6139 H6125 0.961 . S
C6139 C6138 1.502 . S
C6140 H6126 0.960 . S
C6140 H6127 0.961 . S
C6140 H6128 0.959 . S
C6140 C6138 1.561 . S
C6141 C6138 1.526 . S
C6141 C6142 1.396 . S
C6141 C6146 1.390 . S
C6142 C6136 1.465 . S
C6142 C6141 1.396 . S
C6142 C6143 1.399 . S
C6143 H6129 0.929 . S
C6143 C6142 1.399 . S
C6143 C6144 1.385 . S
C6144 H6130 0.931 . S
C6144 C6143 1.385 . S
C6144 C6145 1.389 . S
C6145 C6144 1.389 . S
C6145 C6146 1.387 . S
C6146 H6131 0.930 . S
C6146 C6141 1.390 . S
C6146 C6145 1.387 . S
H6147 C6159 0.930 . S
H6148 C6161 0.930 . S
H6149 C6162 0.930 . S
H6150 C6166 0.959 . S
H6151 C6166 0.959 . S
H6152 C6166 0.961 . S
H6153 C6167 0.960 . S
H6154 C6167 0.961 . S
H6155 C6167 0.959 . S
H6156 C6170 0.929 . S
H6157 C6171 0.931 . S
H6158 C6173 0.930 . S
C6159 H6147 0.930 . S
C6159 C6160 1.399 . S
C6159 C6164 1.399 . S
C6160 C6159 1.399 . S
C6160 C6161 1.376 . S
C6161 H6148 0.930 . S
C6161 C6160 1.376 . S
C6161 C6162 1.388 . S
C6162 H6149 0.930 . S
C6162 C6161 1.388 . S
C6162 C6163 1.390 . S
C6163 C6162 1.390 . S
C6163 C6164 1.394 . S
C6163 C6169 1.465 . S
C6164 C6159 1.399 . S
C6164 C6163 1.394 . S
C6164 C6165 1.516 . S
C6165 C6164 1.516 . S
C6165 C6166 1.502 . S
C6165 C6167 1.561 . S
C6165 C6168 1.526 . S
C6166 H6150 0.959 . S
C6166 H6151 0.959 . S
C6166 H6152 0.961 . S
C6166 C6165 1.502 . S
C6167 H6153 0.960 . S
C6167 H6154 0.961 . S
C6167 H6155 0.959 . S
C6167 C6165 1.561 . S
C6168 C6165 1.526 . S
C6168 C6169 1.396 . S
C6168 C6173 1.390 1_554 S
C6169 C6163 1.465 . S
C6169 C6168 1.396 . S
C6169 C6170 1.399 . S
C6170 H6156 0.929 . S
C6170 C6169 1.399 . S
C6170 C6171 1.385 1_554 S
C6171 H6157 0.931 . S
C6171 C6170 1.385 1_556 S
C6171 C6172 1.389 . S
C6172 C6171 1.389 . S
C6172 C6173 1.387 . S
C6173 H6158 0.930 . S
C6173 C6168 1.390 1_556 S
C6173 C6172 1.387 . S
H6174 C6186 0.930 . S
H6175 C6188 0.930 . S
H6176 C6189 0.930 . S
H6177 C6193 0.959 . S
H6178 C6193 0.959 . S
H6179 C6193 0.961 . S
H6180 C6194 0.960 . S
H6181 C6194 0.961 . S
H6182 C6194 0.959 . S
H6183 C6197 0.929 . S
H6184 C6198 0.931 . S
H6185 C6200 0.930 . S
C6186 H6174 0.930 . S
C6186 C6187 1.399 . S
C6186 C6191 1.399 . S
C6187 C6186 1.399 . S
C6187 C6188 1.376 . S
C6188 H6175 0.930 . S
C6188 C6187 1.376 . S
C6188 C6189 1.388 . S
C6189 H6176 0.930 . S
C6189 C6188 1.388 . S
C6189 C6190 1.390 . S
C6190 C6189 1.390 . S
C6190 C6191 1.394 . S
C6190 C6196 1.465 . S
C6191 C6186 1.399 . S
C6191 C6190 1.394 . S
C6191 C6192 1.516 . S
C6192 C6191 1.516 . S
C6192 C6193 1.502 . S
C6192 C6194 1.561 . S
C6192 C6195 1.526 . S
C6193 H6177 0.959 . S
C6193 H6178 0.959 . S
C6193 H6179 0.961 . S
C6193 C6192 1.502 . S
C6194 H6180 0.960 . S
C6194 H6181 0.961 . S
C6194 H6182 0.959 . S
C6194 C6192 1.561 . S
C6195 C6192 1.526 . S
C6195 C6196 1.396 . S
C6195 C6200 1.390 . S
C6196 C6190 1.465 . S
C6196 C6195 1.396 . S
C6196 C6197 1.399 . S
C6197 H6183 0.929 . S
C6197 C6196 1.399 . S
C6197 C6198 1.385 . S
C6198 H6184 0.931 . S
C6198 C6197 1.385 . S
C6198 C6199 1.389 . S
C6199 C6198 1.389 . S
C6199 C6200 1.387 . S
C6200 H6185 0.930 . S
C6200 C6195 1.390 . S
C6200 C6199 1.387 . S
H6201 C6213 0.930 . S
H6202 C6215 0.930 . S
H6203 C6216 0.930 . S
H6204 C6220 0.959 . S
H6205 C6220 0.959 . S
H6206 C6220 0.961 . S
H6207 C6221 0.960 . S
H6208 C6221 0.961 . S
H6209 C6221 0.959 . S
H6210 C6224 0.929 . S
H6211 C6225 0.931 . S
H6212 C6227 0.930 . S
C6213 H6201 0.930 . S
C6213 C6214 1.399 . S
C6213 C6218 1.399 . S
C6214 C6213 1.399 . S
C6214 C6215 1.376 . S
C6215 H6202 0.930 . S
C6215 C6214 1.376 . S
C6215 C6216 1.388 . S
C6216 H6203 0.930 . S
C6216 C6215 1.388 . S
C6216 C6217 1.390 . S
C6217 C6216 1.390 . S
C6217 C6218 1.394 . S
C6217 C6223 1.465 . S
C6218 C6213 1.399 . S
C6218 C6217 1.394 . S
C6218 C6219 1.516 . S
C6219 C6218 1.516 . S
C6219 C6220 1.502 . S
C6219 C6221 1.561 . S
C6219 C6222 1.526 . S
C6220 H6204 0.959 . S
C6220 H6205 0.959 . S
C6220 H6206 0.961 . S
C6220 C6219 1.502 . S
C6221 H6207 0.960 . S
C6221 H6208 0.961 . S
C6221 H6209 0.959 . S
C6221 C6219 1.561 . S
C6222 C6219 1.526 . S
C6222 C6223 1.396 . S
C6222 C6227 1.390 . S
C6223 C6217 1.465 . S
C6223 C6222 1.396 . S
C6223 C6224 1.399 . S
C6224 H6210 0.929 . S
C6224 C6223 1.399 . S
C6224 C6225 1.385 . S
C6225 H6211 0.931 . S
C6225 C6224 1.385 . S
C6225 C6226 1.389 . S
C6226 C6225 1.389 . S
C6226 C6227 1.387 . S
C6227 H6212 0.930 . S
C6227 C6222 1.390 . S
C6227 C6226 1.387 . S
H6228 C6240 0.930 . S
H6229 C6242 0.930 . S
H6230 C6243 0.930 . S
H6231 C6247 0.959 . S
H6232 C6247 0.959 . S
H6233 C6247 0.961 . S
H6234 C6248 0.960 . S
H6235 C6248 0.961 . S
H6236 C6248 0.959 . S
H6237 C6251 0.929 . S
H6238 C6252 0.931 . S
H6239 C6254 0.930 . S
C6240 H6228 0.930 . S
C6240 C6241 1.399 . S
C6240 C6245 1.399 . S
C6241 C6240 1.399 . S
C6241 C6242 1.376 . S
C6242 H6229 0.930 . S
C6242 C6241 1.376 . S
C6242 C6243 1.388 . S
C6243 H6230 0.930 . S
C6243 C6242 1.388 . S
C6243 C6244 1.390 . S
C6244 C6243 1.390 . S
C6244 C6245 1.394 . S
C6244 C6250 1.465 . S
C6245 C6240 1.399 . S
C6245 C6244 1.394 . S
C6245 C6246 1.516 . S
C6246 C6245 1.516 . S
C6246 C6247 1.502 . S
C6246 C6248 1.561 . S
C6246 C6249 1.526 . S
C6247 H6231 0.959 . S
C6247 H6232 0.959 . S
C6247 H6233 0.961 . S
C6247 C6246 1.502 . S
C6248 H6234 0.960 . S
C6248 H6235 0.961 . S
C6248 H6236 0.959 . S
C6248 C6246 1.561 . S
C6249 C6246 1.526 . S
C6249 C6250 1.396 . S
C6249 C6254 1.390 . S
C6250 C6244 1.465 . S
C6250 C6249 1.396 . S
C6250 C6251 1.399 . S
C6251 H6237 0.929 . S
C6251 C6250 1.399 . S
C6251 C6252 1.385 . S
C6252 H6238 0.931 . S
C6252 C6251 1.385 . S
C6252 C6253 1.389 . S
C6253 C6252 1.389 . S
C6253 C6254 1.387 . S
C6254 H6239 0.930 . S
C6254 C6249 1.390 . S
C6254 C6253 1.387 . S
H6255 C6267 0.930 . S
H6256 C6269 0.930 . S
H6257 C6270 0.930 . S
H6258 C6274 0.959 . S
H6259 C6274 0.959 . S
H6260 C6274 0.961 . S
H6261 C6275 0.960 . S
H6262 C6275 0.961 . S
H6263 C6275 0.959 . S
H6264 C6278 0.929 . S
H6265 C6279 0.931 . S
H6266 C6281 0.930 . S
C6267 H6255 0.930 . S
C6267 C6268 1.399 . S
C6267 C6272 1.399 . S
C6268 C6267 1.399 . S
C6268 C6269 1.376 . S
C6269 H6256 0.930 . S
C6269 C6268 1.376 . S
C6269 C6270 1.388 . S
C6270 H6257 0.930 . S
C6270 C6269 1.388 . S
C6270 C6271 1.390 . S
C6271 C6270 1.390 . S
C6271 C6272 1.394 . S
C6271 C6277 1.465 . S
C6272 C6267 1.399 . S
C6272 C6271 1.394 . S
C6272 C6273 1.516 . S
C6273 C6272 1.516 . S
C6273 C6274 1.502 . S
C6273 C6275 1.561 . S
C6273 C6276 1.526 . S
C6274 H6258 0.959 . S
C6274 H6259 0.959 . S
C6274 H6260 0.961 . S
C6274 C6273 1.502 . S
C6275 H6261 0.960 . S
C6275 H6262 0.961 . S
C6275 H6263 0.959 . S
C6275 C6273 1.561 . S
C6276 C6273 1.526 . S
C6276 C6277 1.396 . S
C6276 C6281 1.390 . S
C6277 C6271 1.465 . S
C6277 C6276 1.396 . S
C6277 C6278 1.399 . S
C6278 H6264 0.929 . S
C6278 C6277 1.399 . S
C6278 C6279 1.385 . S
C6279 H6265 0.931 . S
C6279 C6278 1.385 . S
C6279 C6280 1.389 . S
C6280 C6279 1.389 . S
C6280 C6281 1.387 . S
C6281 H6266 0.930 . S
C6281 C6276 1.390 . S
C6281 C6280 1.387 . S
H6282 C6294 0.930 . S
H6283 C6296 0.930 . S
H6284 C6297 0.930 . S
H6285 C6301 0.959 . S
H6286 C6301 0.959 . S
H6287 C6301 0.961 . S
H6288 C6302 0.960 . S
H6289 C6302 0.961 . S
H6290 C6302 0.959 . S
H6291 C6305 0.930 1_565 S
H6292 C6306 0.931 . S
H6293 C6308 0.930 . S
C6294 H6282 0.930 . S
C6294 C6295 1.399 . S
C6294 C6299 1.399 . S
C6295 C6294 1.399 . S
C6295 C6296 1.376 . S
C6296 H6283 0.930 . S
C6296 C6295 1.376 . S
C6296 C6297 1.388 . S
C6297 H6284 0.930 . S
C6297 C6296 1.388 . S
C6297 C6298 1.390 . S
C6298 C6297 1.390 . S
C6298 C6299 1.394 . S
C6298 C6304 1.465 . S
C6299 C6294 1.399 . S
C6299 C6298 1.394 . S
C6299 C6300 1.516 . S
C6300 C6299 1.516 . S
C6300 C6301 1.502 . S
C6300 C6302 1.561 . S
C6300 C6303 1.526 . S
C6301 H6285 0.959 . S
C6301 H6286 0.959 . S
C6301 H6287 0.961 . S
C6301 C6300 1.502 . S
C6302 H6288 0.960 . S
C6302 H6289 0.961 . S
C6302 H6290 0.959 . S
C6302 C6300 1.561 . S
C6303 C6300 1.526 . S
C6303 C6304 1.396 . S
C6303 C6308 1.390 1_565 S
C6304 C6298 1.465 . S
C6304 C6303 1.396 . S
C6304 C6305 1.400 1_565 S
C6305 H6291 0.930 1_545 S
C6305 C6304 1.400 1_545 S
C6305 C6306 1.384 . S
C6306 H6292 0.931 . S
C6306 C6305 1.384 . S
C6306 C6307 1.389 . S
C6307 C6306 1.389 . S
C6307 C6308 1.387 . S
C6308 H6293 0.930 . S
C6308 C6303 1.390 1_545 S
C6308 C6307 1.387 . S
H6309 C6321 0.930 . S
H6310 C6323 0.930 . S
H6311 C6324 0.930 . S
H6312 C6328 0.959 . S
H6313 C6328 0.959 . S
H6314 C6328 0.961 . S
H6315 C6329 0.960 . S
H6316 C6329 0.961 . S
H6317 C6329 0.959 . S
H6318 C6332 0.929 . S
H6319 C6333 0.931 . S
H6320 C6335 0.930 . S
C6321 H6309 0.930 . S
C6321 C6322 1.399 . S
C6321 C6326 1.399 . S
C6322 C6321 1.399 . S
C6322 C6323 1.376 . S
C6323 H6310 0.930 . S
C6323 C6322 1.376 . S
C6323 C6324 1.388 . S
C6324 H6311 0.930 . S
C6324 C6323 1.388 . S
C6324 C6325 1.390 . S
C6325 C6324 1.390 . S
C6325 C6326 1.394 . S
C6325 C6331 1.465 . S
C6326 C6321 1.399 . S
C6326 C6325 1.394 . S
C6326 C6327 1.516 . S
C6327 C6326 1.516 . S
C6327 C6328 1.502 . S
C6327 C6329 1.561 . S
C6327 C6330 1.526 . S
C6328 H6312 0.959 . S
C6328 H6313 0.959 . S
C6328 H6314 0.961 . S
C6328 C6327 1.502 . S
C6329 H6315 0.960 . S
C6329 H6316 0.961 . S
C6329 H6317 0.959 . S
C6329 C6327 1.561 . S
C6330 C6327 1.526 . S
C6330 C6331 1.396 . S
C6330 C6335 1.390 . S
C6331 C6325 1.465 . S
C6331 C6330 1.396 . S
C6331 C6332 1.399 . S
C6332 H6318 0.929 . S
C6332 C6331 1.399 . S
C6332 C6333 1.385 . S
C6333 H6319 0.931 . S
C6333 C6332 1.385 . S
C6333 C6334 1.389 . S
C6334 C6333 1.389 . S
C6334 C6335 1.387 . S
C6335 H6320 0.930 . S
C6335 C6330 1.390 . S
C6335 C6334 1.387 . S
H6336 C6348 0.930 . S
H6337 C6350 0.930 . S
H6338 C6351 0.930 . S
H6339 C6355 0.959 . S
H6340 C6355 0.959 . S
H6341 C6355 0.961 . S
H6342 C6356 0.960 . S
H6343 C6356 0.961 . S
H6344 C6356 0.959 . S
H6345 C6359 0.929 . S
H6346 C6360 0.931 . S
H6347 C6362 0.930 . S
C6348 H6336 0.930 . S
C6348 C6349 1.399 . S
C6348 C6353 1.399 . S
C6349 C6348 1.399 . S
C6349 C6350 1.376 . S
C6350 H6337 0.930 . S
C6350 C6349 1.376 . S
C6350 C6351 1.388 . S
C6351 H6338 0.930 . S
C6351 C6350 1.388 . S
C6351 C6352 1.390 . S
C6352 C6351 1.390 . S
C6352 C6353 1.394 . S
C6352 C6358 1.465 . S
C6353 C6348 1.399 . S
C6353 C6352 1.394 . S
C6353 C6354 1.516 . S
C6354 C6353 1.516 . S
C6354 C6355 1.502 . S
C6354 C6356 1.561 . S
C6354 C6357 1.526 . S
C6355 H6339 0.959 . S
C6355 H6340 0.959 . S
C6355 H6341 0.961 . S
C6355 C6354 1.502 . S
C6356 H6342 0.960 . S
C6356 H6343 0.961 . S
C6356 H6344 0.959 . S
C6356 C6354 1.561 . S
C6357 C6354 1.526 . S
C6357 C6358 1.396 . S
C6357 C6362 1.390 . S
C6358 C6352 1.465 . S
C6358 C6357 1.396 . S
C6358 C6359 1.399 . S
C6359 H6345 0.929 . S
C6359 C6358 1.399 . S
C6359 C6360 1.385 . S
C6360 H6346 0.931 . S
C6360 C6359 1.385 . S
C6360 C6361 1.389 . S
C6361 C6360 1.389 . S
C6361 C6362 1.387 . S
C6362 H6347 0.930 . S
C6362 C6357 1.390 . S
C6362 C6361 1.387 . S
H6363 C6375 0.930 . S
H6364 C6377 0.930 . S
H6365 C6378 0.930 . S
H6366 C6382 0.959 . S
H6367 C6382 0.959 . S
H6368 C6382 0.961 . S
H6369 C6383 0.960 . S
H6370 C6383 0.961 . S
H6371 C6383 0.959 . S
H6372 C6386 0.929 . S
H6373 C6387 0.931 . S
H6374 C6389 0.930 . S
C6375 H6363 0.930 . S
C6375 C6376 1.399 . S
C6375 C6380 1.399 . S
C6376 C6375 1.399 . S
C6376 C6377 1.376 . S
C6377 H6364 0.930 . S
C6377 C6376 1.376 . S
C6377 C6378 1.388 . S
C6378 H6365 0.930 . S
C6378 C6377 1.388 . S
C6378 C6379 1.390 . S
C6379 C6378 1.390 . S
C6379 C6380 1.394 . S
C6379 C6385 1.465 . S
C6380 C6375 1.399 . S
C6380 C6379 1.394 . S
C6380 C6381 1.516 . S
C6381 C6380 1.516 . S
C6381 C6382 1.502 . S
C6381 C6383 1.561 . S
C6381 C6384 1.526 . S
C6382 H6366 0.959 . S
C6382 H6367 0.959 . S
C6382 H6368 0.961 . S
C6382 C6381 1.502 . S
C6383 H6369 0.960 . S
C6383 H6370 0.961 . S
C6383 H6371 0.959 . S
C6383 C6381 1.561 . S
C6384 C6381 1.526 . S
C6384 C6385 1.396 . S
C6384 C6389 1.390 . S
C6385 C6379 1.465 . S
C6385 C6384 1.396 . S
C6385 C6386 1.399 . S
C6386 H6372 0.929 . S
C6386 C6385 1.399 . S
C6386 C6387 1.385 . S
C6387 H6373 0.931 . S
C6387 C6386 1.385 . S
C6387 C6388 1.389 . S
C6388 C6387 1.389 . S
C6388 C6389 1.387 . S
C6389 H6374 0.930 . S
C6389 C6384 1.390 . S
C6389 C6388 1.387 . S
H6390 C6402 0.930 . S
H6391 C6404 0.930 . S
H6392 C6405 0.930 . S
H6393 C6409 0.959 . S
H6394 C6409 0.959 . S
H6395 C6409 0.961 . S
H6396 C6410 0.960 . S
H6397 C6410 0.961 . S
H6398 C6410 0.959 . S
H6399 C6413 0.929 . S
H6400 C6414 0.931 . S
H6401 C6416 0.930 . S
C6402 H6390 0.930 . S
C6402 C6403 1.399 . S
C6402 C6407 1.399 1_545 S
C6403 C6402 1.399 . S
C6403 C6404 1.376 . S
C6404 H6391 0.930 . S
C6404 C6403 1.376 . S
C6404 C6405 1.388 1_545 S
C6405 H6392 0.930 . S
C6405 C6404 1.388 1_565 S
C6405 C6406 1.390 . S
C6406 C6405 1.390 . S
C6406 C6407 1.394 . S
C6406 C6412 1.465 . S
C6407 C6402 1.399 1_565 S
C6407 C6406 1.394 . S
C6407 C6408 1.516 . S
C6408 C6407 1.516 . S
C6408 C6409 1.502 . S
C6408 C6410 1.561 . S
C6408 C6411 1.526 . S
C6409 H6393 0.959 . S
C6409 H6394 0.959 . S
C6409 H6395 0.961 . S
C6409 C6408 1.502 . S
C6410 H6396 0.960 . S
C6410 H6397 0.961 . S
C6410 H6398 0.959 . S
C6410 C6408 1.561 . S
C6411 C6408 1.526 . S
C6411 C6412 1.396 . S
C6411 C6416 1.390 . S
C6412 C6406 1.465 . S
C6412 C6411 1.396 . S
C6412 C6413 1.399 . S
C6413 H6399 0.929 . S
C6413 C6412 1.399 . S
C6413 C6414 1.385 . S
C6414 H6400 0.931 . S
C6414 C6413 1.385 . S
C6414 C6415 1.389 . S
C6415 C6414 1.389 . S
C6415 C6416 1.387 . S
C6416 H6401 0.930 . S
C6416 C6411 1.390 . S
C6416 C6415 1.387 . S
H6417 C6429 0.930 . S
H6418 C6431 0.930 . S
H6419 C6432 0.930 . S
H6420 C6436 0.959 . S
H6421 C6436 0.959 . S
H6422 C6436 0.961 . S
H6423 C6437 0.960 . S
H6424 C6437 0.961 . S
H6425 C6437 0.959 . S
H6426 C6440 0.929 . S
H6427 C6441 0.931 . S
H6428 C6443 0.930 . S
C6429 H6417 0.930 . S
C6429 C6430 1.399 . S
C6429 C6434 1.399 . S
C6430 C6429 1.399 . S
C6430 C6431 1.376 . S
C6431 H6418 0.930 . S
C6431 C6430 1.376 . S
C6431 C6432 1.388 . S
C6432 H6419 0.930 . S
C6432 C6431 1.388 . S
C6432 C6433 1.390 . S
C6433 C6432 1.390 . S
C6433 C6434 1.394 . S
C6433 C6439 1.465 . S
C6434 C6429 1.399 . S
C6434 C6433 1.394 . S
C6434 C6435 1.516 . S
C6435 C6434 1.516 . S
C6435 C6436 1.502 . S
C6435 C6437 1.561 . S
C6435 C6438 1.526 . S
C6436 H6420 0.959 . S
C6436 H6421 0.959 . S
C6436 H6422 0.961 . S
C6436 C6435 1.502 . S
C6437 H6423 0.960 . S
C6437 H6424 0.961 . S
C6437 H6425 0.959 . S
C6437 C6435 1.561 . S
C6438 C6435 1.526 . S
C6438 C6439 1.396 . S
C6438 C6443 1.390 . S
C6439 C6433 1.465 . S
C6439 C6438 1.396 . S
C6439 C6440 1.399 . S
C6440 H6426 0.929 . S
C6440 C6439 1.399 . S
C6440 C6441 1.385 . S
C6441 H6427 0.931 . S
C6441 C6440 1.385 . S
C6441 C6442 1.389 . S
C6442 C6441 1.389 . S
C6442 C6443 1.387 . S
C6443 H6428 0.930 . S
C6443 C6438 1.390 . S
C6443 C6442 1.387 . S
H6444 C6456 0.930 . S
H6445 C6458 0.930 . S
H6446 C6459 0.930 . S
H6447 C6463 0.959 . S
H6448 C6463 0.959 . S
H6449 C6463 0.961 . S
H6450 C6464 0.960 . S
H6451 C6464 0.961 . S
H6452 C6464 0.959 . S
H6453 C6467 0.929 . S
H6454 C6468 0.931 . S
H6455 C6470 0.930 . S
C6456 H6444 0.930 . S
C6456 C6457 1.399 . S
C6456 C6461 1.399 . S
C6457 C6456 1.399 . S
C6457 C6458 1.376 . S
C6458 H6445 0.930 . S
C6458 C6457 1.376 . S
C6458 C6459 1.388 . S
C6459 H6446 0.930 . S
C6459 C6458 1.388 . S
C6459 C6460 1.390 . S
C6460 C6459 1.390 . S
C6460 C6461 1.394 . S
C6460 C6466 1.465 . S
C6461 C6456 1.399 . S
C6461 C6460 1.394 . S
C6461 C6462 1.516 . S
C6462 C6461 1.516 . S
C6462 C6463 1.502 . S
C6462 C6464 1.561 . S
C6462 C6465 1.526 . S
C6463 H6447 0.959 . S
C6463 H6448 0.959 . S
C6463 H6449 0.961 . S
C6463 C6462 1.502 . S
C6464 H6450 0.960 . S
C6464 H6451 0.961 . S
C6464 H6452 0.959 . S
C6464 C6462 1.561 . S
C6465 C6462 1.526 . S
C6465 C6466 1.396 . S
C6465 C6470 1.390 . S
C6466 C6460 1.465 . S
C6466 C6465 1.396 . S
C6466 C6467 1.399 . S
C6467 H6453 0.929 . S
C6467 C6466 1.399 . S
C6467 C6468 1.385 . S
C6468 H6454 0.931 . S
C6468 C6467 1.385 . S
C6468 C6469 1.389 . S
C6469 C6468 1.389 . S
C6469 C6470 1.387 . S
C6470 H6455 0.930 . S
C6470 C6465 1.390 . S
C6470 C6469 1.387 . S
H6471 C6483 0.930 . S
H6472 C6485 0.930 . S
H6473 C6486 0.930 . S
H6474 C6490 0.959 . S
H6475 C6490 0.959 . S
H6476 C6490 0.961 . S
H6477 C6491 0.960 . S
H6478 C6491 0.961 . S
H6479 C6491 0.959 . S
H6480 C6494 0.929 . S
H6481 C6495 0.931 . S
H6482 C6497 0.930 . S
C6483 H6471 0.930 . S
C6483 C6484 1.399 . S
C6483 C6488 1.399 . S
C6484 C6483 1.399 . S
C6484 C6485 1.376 . S
C6485 H6472 0.930 . S
C6485 C6484 1.376 . S
C6485 C6486 1.388 . S
C6486 H6473 0.930 . S
C6486 C6485 1.388 . S
C6486 C6487 1.390 . S
C6487 C6486 1.390 . S
C6487 C6488 1.394 . S
C6487 C6493 1.465 . S
C6488 C6483 1.399 . S
C6488 C6487 1.394 . S
C6488 C6489 1.516 . S
C6489 C6488 1.516 . S
C6489 C6490 1.502 . S
C6489 C6491 1.561 . S
C6489 C6492 1.526 . S
C6490 H6474 0.959 . S
C6490 H6475 0.959 . S
C6490 H6476 0.961 . S
C6490 C6489 1.502 . S
C6491 H6477 0.960 . S
C6491 H6478 0.961 . S
C6491 H6479 0.959 . S
C6491 C6489 1.561 . S
C6492 C6489 1.526 . S
C6492 C6493 1.396 . S
C6492 C6497 1.390 . S
C6493 C6487 1.465 . S
C6493 C6492 1.396 . S
C6493 C6494 1.399 . S
C6494 H6480 0.929 . S
C6494 C6493 1.399 . S
C6494 C6495 1.385 . S
C6495 H6481 0.931 . S
C6495 C6494 1.385 . S
C6495 C6496 1.389 . S
C6496 C6495 1.389 . S
C6496 C6497 1.387 . S
C6497 H6482 0.930 . S
C6497 C6492 1.390 . S
C6497 C6496 1.387 . S
H6498 C6510 0.930 . S
H6499 C6512 0.930 . S
H6500 C6513 0.930 . S
H6501 C6517 0.959 . S
H6502 C6517 0.959 . S
H6503 C6517 0.961 . S
H6504 C6518 0.960 . S
H6505 C6518 0.961 . S
H6506 C6518 0.959 . S
H6507 C6521 0.929 . S
H6508 C6522 0.931 . S
H6509 C6524 0.930 . S
C6510 H6498 0.930 . S
C6510 C6511 1.399 . S
C6510 C6515 1.399 . S
C6511 C6510 1.399 . S
C6511 C6512 1.376 . S
C6512 H6499 0.930 . S
C6512 C6511 1.376 . S
C6512 C6513 1.388 . S
C6513 H6500 0.930 . S
C6513 C6512 1.388 . S
C6513 C6514 1.390 . S
C6514 C6513 1.390 . S
C6514 C6515 1.394 . S
C6514 C6520 1.465 . S
C6515 C6510 1.399 . S
C6515 C6514 1.394 . S
C6515 C6516 1.516 . S
C6516 C6515 1.516 . S
C6516 C6517 1.502 . S
C6516 C6518 1.561 . S
C6516 C6519 1.526 . S
C6517 H6501 0.959 . S
C6517 H6502 0.959 . S
C6517 H6503 0.961 . S
C6517 C6516 1.502 . S
C6518 H6504 0.960 . S
C6518 H6505 0.961 . S
C6518 H6506 0.959 . S
C6518 C6516 1.561 . S
C6519 C6516 1.526 . S
C6519 C6520 1.396 . S
C6519 C6524 1.390 . S
C6520 C6514 1.465 . S
C6520 C6519 1.396 . S
C6520 C6521 1.399 . S
C6521 H6507 0.929 . S
C6521 C6520 1.399 . S
C6521 C6522 1.385 . S
C6522 H6508 0.931 . S
C6522 C6521 1.385 . S
C6522 C6523 1.389 . S
C6523 C6522 1.389 . S
C6523 C6524 1.387 . S
C6524 H6509 0.930 . S
C6524 C6519 1.390 . S
C6524 C6523 1.387 . S
H6525 C6537 0.930 . S
H6526 C6539 0.930 . S
H6527 C6540 0.930 . S
H6528 C6544 0.959 . S
H6529 C6544 0.959 . S
H6530 C6544 0.961 . S
H6531 C6545 0.960 . S
H6532 C6545 0.961 . S
H6533 C6545 0.959 . S
H6534 C6548 0.929 . S
H6535 C6549 0.931 . S
H6536 C6551 0.930 . S
C6537 H6525 0.930 . S
C6537 C6538 1.399 . S
C6537 C6542 1.399 . S
C6538 C6537 1.399 . S
C6538 C6539 1.376 . S
C6539 H6526 0.930 . S
C6539 C6538 1.376 . S
C6539 C6540 1.388 . S
C6540 H6527 0.930 . S
C6540 C6539 1.388 . S
C6540 C6541 1.390 . S
C6541 C6540 1.390 . S
C6541 C6542 1.394 . S
C6541 C6547 1.465 . S
C6542 C6537 1.399 . S
C6542 C6541 1.394 . S
C6542 C6543 1.516 . S
C6543 C6542 1.516 . S
C6543 C6544 1.502 . S
C6543 C6545 1.561 . S
C6543 C6546 1.526 . S
C6544 H6528 0.959 . S
C6544 H6529 0.959 . S
C6544 H6530 0.961 . S
C6544 C6543 1.502 . S
C6545 H6531 0.960 . S
C6545 H6532 0.961 . S
C6545 H6533 0.959 . S
C6545 C6543 1.561 . S
C6546 C6543 1.526 . S
C6546 C6547 1.396 . S
C6546 C6551 1.390 . S
C6547 C6541 1.465 . S
C6547 C6546 1.396 . S
C6547 C6548 1.399 . S
C6548 H6534 0.929 . S
C6548 C6547 1.399 . S
C6548 C6549 1.385 . S
C6549 H6535 0.931 . S
C6549 C6548 1.385 . S
C6549 C6550 1.389 . S
C6550 C6549 1.389 . S
C6550 C6551 1.387 . S
C6551 H6536 0.930 . S
C6551 C6546 1.390 . S
C6551 C6550 1.387 . S
H6552 C6564 0.930 . S
H6553 C6566 0.930 . S
H6554 C6567 0.927 . S
H6555 C6571 0.959 . S
H6556 C6571 0.959 1_545 S
H6557 C6571 0.961 . S
H6558 C6572 0.960 1_565 S
H6559 C6572 0.961 . S
H6560 C6572 0.959 . S
H6561 C6575 0.929 . S
H6562 C6576 0.931 . S
H6563 C6578 0.930 . S
C6564 H6552 0.930 . S
C6564 C6565 1.399 . S
C6564 C6569 1.399 . S
C6565 C6564 1.399 . S
C6565 C6566 1.376 . S
C6566 H6553 0.930 . S
C6566 C6565 1.376 . S
C6566 C6567 1.388 . S
C6567 H6554 0.927 . S
C6567 C6566 1.388 . S
C6567 C6568 1.390 1_565 S
C6568 C6567 1.390 1_545 S
C6568 C6569 1.394 1_545 S
C6568 C6574 1.465 . S
C6569 C6564 1.399 . S
C6569 C6568 1.394 1_565 S
C6569 C6570 1.516 1_565 S
C6570 C6569 1.516 1_545 S
C6570 C6571 1.502 1_545 S
C6570 C6572 1.561 . S
C6570 C6573 1.526 . S
C6571 H6555 0.959 . S
C6571 H6556 0.959 1_565 S
C6571 H6557 0.961 . S
C6571 C6570 1.502 1_565 S
C6572 H6558 0.960 1_545 S
C6572 H6559 0.961 . S
C6572 H6560 0.959 . S
C6572 C6570 1.561 . S
C6573 C6570 1.526 . S
C6573 C6574 1.396 . S
C6573 C6578 1.390 . S
C6574 C6568 1.465 . S
C6574 C6573 1.396 . S
C6574 C6575 1.399 . S
C6575 H6561 0.929 . S
C6575 C6574 1.399 . S
C6575 C6576 1.385 . S
C6576 H6562 0.931 . S
C6576 C6575 1.385 . S
C6576 C6577 1.389 . S
C6577 C6576 1.389 . S
C6577 C6578 1.387 . S
C6578 H6563 0.930 . S
C6578 C6573 1.390 . S
C6578 C6577 1.387 . S
H6579 C6591 0.930 . S
H6580 C6593 0.930 . S
H6581 C6594 0.930 . S
H6582 C6598 0.959 . S
H6583 C6598 0.959 . S
H6584 C6598 0.961 . S
H6585 C6599 0.960 . S
H6586 C6599 0.961 . S
H6587 C6599 0.959 . S
H6588 C6602 0.929 . S
H6589 C6603 0.931 . S
H6590 C6605 0.930 . S
C6591 H6579 0.930 . S
C6591 C6592 1.399 . S
C6591 C6596 1.399 . S
C6592 C6591 1.399 . S
C6592 C6593 1.376 . S
C6593 H6580 0.930 . S
C6593 C6592 1.376 . S
C6593 C6594 1.388 . S
C6594 H6581 0.930 . S
C6594 C6593 1.388 . S
C6594 C6595 1.390 . S
C6595 C6594 1.390 . S
C6595 C6596 1.394 . S
C6595 C6601 1.465 . S
C6596 C6591 1.399 . S
C6596 C6595 1.394 . S
C6596 C6597 1.516 . S
C6597 C6596 1.516 . S
C6597 C6598 1.502 . S
C6597 C6599 1.561 . S
C6597 C6600 1.526 . S
C6598 H6582 0.959 . S
C6598 H6583 0.959 . S
C6598 H6584 0.961 . S
C6598 C6597 1.502 . S
C6599 H6585 0.960 . S
C6599 H6586 0.961 . S
C6599 H6587 0.959 . S
C6599 C6597 1.561 . S
C6600 C6597 1.526 . S
C6600 C6601 1.396 . S
C6600 C6605 1.390 . S
C6601 C6595 1.465 . S
C6601 C6600 1.396 . S
C6601 C6602 1.399 . S
C6602 H6588 0.929 . S
C6602 C6601 1.399 . S
C6602 C6603 1.385 . S
C6603 H6589 0.931 . S
C6603 C6602 1.385 . S
C6603 C6604 1.389 . S
C6604 C6603 1.389 . S
C6604 C6605 1.387 . S
C6605 H6590 0.930 . S
C6605 C6600 1.390 . S
C6605 C6604 1.387 . S
H6606 C6618 0.930 . S
H6607 C6620 0.930 . S
H6608 C6621 0.930 . S
H6609 C6625 0.959 . S
H6610 C6625 0.959 . S
H6611 C6625 0.961 . S
H6612 C6626 0.960 . S
H6613 C6626 0.961 . S
H6614 C6626 0.959 . S
H6615 C6629 0.929 . S
H6616 C6630 0.931 . S
H6617 C6632 0.930 . S
C6618 H6606 0.930 . S
C6618 C6619 1.399 . S
C6618 C6623 1.399 . S
C6619 C6618 1.399 . S
C6619 C6620 1.376 . S
C6620 H6607 0.930 . S
C6620 C6619 1.376 . S
C6620 C6621 1.388 . S
C6621 H6608 0.930 . S
C6621 C6620 1.388 . S
C6621 C6622 1.390 . S
C6622 C6621 1.390 . S
C6622 C6623 1.394 . S
C6622 C6628 1.465 . S
C6623 C6618 1.399 . S
C6623 C6622 1.394 . S
C6623 C6624 1.516 . S
C6624 C6623 1.516 . S
C6624 C6625 1.502 . S
C6624 C6626 1.561 . S
C6624 C6627 1.526 . S
C6625 H6609 0.959 . S
C6625 H6610 0.959 . S
C6625 H6611 0.961 . S
C6625 C6624 1.502 . S
C6626 H6612 0.960 . S
C6626 H6613 0.961 . S
C6626 H6614 0.959 . S
C6626 C6624 1.561 . S
C6627 C6624 1.526 . S
C6627 C6628 1.396 . S
C6627 C6632 1.390 . S
C6628 C6622 1.465 . S
C6628 C6627 1.396 . S
C6628 C6629 1.399 . S
C6629 H6615 0.929 . S
C6629 C6628 1.399 . S
C6629 C6630 1.385 . S
C6630 H6616 0.931 . S
C6630 C6629 1.385 . S
C6630 C6631 1.389 . S
C6631 C6630 1.389 . S
C6631 C6632 1.387 . S
C6632 H6617 0.930 . S
C6632 C6627 1.390 . S
C6632 C6631 1.387 . S
H6633 C6645 0.930 . S
H6634 C6647 0.930 . S
H6635 C6648 0.930 . S
H6636 C6652 0.959 . S
H6637 C6652 0.959 . S
H6638 C6652 0.961 . S
H6639 C6653 0.960 . S
H6640 C6653 0.961 . S
H6641 C6653 0.959 . S
H6642 C6656 0.929 . S
H6643 C6657 0.931 . S
H6644 C6659 0.930 . S
C6645 H6633 0.930 . S
C6645 C6646 1.399 . S
C6645 C6650 1.399 . S
C6646 C6645 1.399 . S
C6646 C6647 1.376 . S
C6647 H6634 0.930 . S
C6647 C6646 1.376 . S
C6647 C6648 1.388 . S
C6648 H6635 0.930 . S
C6648 C6647 1.388 . S
C6648 C6649 1.390 . S
C6649 C6648 1.390 . S
C6649 C6650 1.394 . S
C6649 C6655 1.465 . S
C6650 C6645 1.399 . S
C6650 C6649 1.394 . S
C6650 C6651 1.516 . S
C6651 C6650 1.516 . S
C6651 C6652 1.502 . S
C6651 C6653 1.561 . S
C6651 C6654 1.526 . S
C6652 H6636 0.959 . S
C6652 H6637 0.959 . S
C6652 H6638 0.961 . S
C6652 C6651 1.502 . S
C6653 H6639 0.960 . S
C6653 H6640 0.961 . S
C6653 H6641 0.959 . S
C6653 C6651 1.561 . S
C6654 C6651 1.526 . S
C6654 C6655 1.396 . S
C6654 C6659 1.390 . S
C6655 C6649 1.465 . S
C6655 C6654 1.396 . S
C6655 C6656 1.399 . S
C6656 H6642 0.929 . S
C6656 C6655 1.399 . S
C6656 C6657 1.385 . S
C6657 H6643 0.931 . S
C6657 C6656 1.385 . S
C6657 C6658 1.389 . S
C6658 C6657 1.389 . S
C6658 C6659 1.387 . S
C6659 H6644 0.930 . S
C6659 C6654 1.390 . S
C6659 C6658 1.387 . S
H6660 C6672 0.930 . S
H6661 C6674 0.930 . S
H6662 C6675 0.930 . S
H6663 C6679 0.959 . S
H6664 C6679 0.959 . S
H6665 C6679 0.961 . S
H6666 C6680 0.960 . S
H6667 C6680 0.961 . S
H6668 C6680 0.959 . S
H6669 C6683 0.929 . S
H6670 C6684 0.931 . S
H6671 C6686 0.930 . S
C6672 H6660 0.930 . S
C6672 C6673 1.399 . S
C6672 C6677 1.399 . S
C6673 C6672 1.399 . S
C6673 C6674 1.376 . S
C6674 H6661 0.930 . S
C6674 C6673 1.376 . S
C6674 C6675 1.388 . S
C6675 H6662 0.930 . S
C6675 C6674 1.388 . S
C6675 C6676 1.390 . S
C6676 C6675 1.390 . S
C6676 C6677 1.394 . S
C6676 C6682 1.465 . S
C6677 C6672 1.399 . S
C6677 C6676 1.394 . S
C6677 C6678 1.516 . S
C6678 C6677 1.516 . S
C6678 C6679 1.502 . S
C6678 C6680 1.561 . S
C6678 C6681 1.526 . S
C6679 H6663 0.959 . S
C6679 H6664 0.959 . S
C6679 H6665 0.961 . S
C6679 C6678 1.502 . S
C6680 H6666 0.960 . S
C6680 H6667 0.961 . S
C6680 H6668 0.959 . S
C6680 C6678 1.561 . S
C6681 C6678 1.526 . S
C6681 C6682 1.396 . S
C6681 C6686 1.390 . S
C6682 C6676 1.465 . S
C6682 C6681 1.396 . S
C6682 C6683 1.399 . S
C6683 H6669 0.929 . S
C6683 C6682 1.399 . S
C6683 C6684 1.385 . S
C6684 H6670 0.931 . S
C6684 C6683 1.385 . S
C6684 C6685 1.389 . S
C6685 C6684 1.389 . S
C6685 C6686 1.387 . S
C6686 H6671 0.930 . S
C6686 C6681 1.390 . S
C6686 C6685 1.387 . S
H6687 C6699 0.930 . S
H6688 C6701 0.930 . S
H6689 C6702 0.930 . S
H6690 C6706 0.959 . S
H6691 C6706 0.959 . S
H6692 C6706 0.961 . S
H6693 C6707 0.960 . S
H6694 C6707 0.961 . S
H6695 C6707 0.959 . S
H6696 C6710 0.929 . S
H6697 C6711 0.931 . S
H6698 C6713 0.930 . S
C6699 H6687 0.930 . S
C6699 C6700 1.399 . S
C6699 C6704 1.399 . S
C6700 C6699 1.399 . S
C6700 C6701 1.376 . S
C6701 H6688 0.930 . S
C6701 C6700 1.376 . S
C6701 C6702 1.388 . S
C6702 H6689 0.930 . S
C6702 C6701 1.388 . S
C6702 C6703 1.390 . S
C6703 C6702 1.390 . S
C6703 C6704 1.394 . S
C6703 C6709 1.465 . S
C6704 C6699 1.399 . S
C6704 C6703 1.394 . S
C6704 C6705 1.516 . S
C6705 C6704 1.516 . S
C6705 C6706 1.502 . S
C6705 C6707 1.561 . S
C6705 C6708 1.526 . S
C6706 H6690 0.959 . S
C6706 H6691 0.959 . S
C6706 H6692 0.961 . S
C6706 C6705 1.502 . S
C6707 H6693 0.960 . S
C6707 H6694 0.961 . S
C6707 H6695 0.959 . S
C6707 C6705 1.561 . S
C6708 C6705 1.526 . S
C6708 C6709 1.396 . S
C6708 C6713 1.390 . S
C6709 C6703 1.465 . S
C6709 C6708 1.396 . S
C6709 C6710 1.399 . S
C6710 H6696 0.929 . S
C6710 C6709 1.399 . S
C6710 C6711 1.385 . S
C6711 H6697 0.931 . S
C6711 C6710 1.385 . S
C6711 C6712 1.389 . S
C6712 C6711 1.389 . S
C6712 C6713 1.387 . S
C6713 H6698 0.930 . S
C6713 C6708 1.390 . S
C6713 C6712 1.387 . S
H6714 C6726 0.930 . S
H6715 C6728 0.930 . S
H6716 C6729 0.930 . S
H6717 C6733 0.959 . S
H6718 C6733 0.959 . S
H6719 C6733 0.961 . S
H6720 C6734 0.960 . S
H6721 C6734 0.961 . S
H6722 C6734 0.959 . S
H6723 C6737 0.929 . S
H6724 C6738 0.931 . S
H6725 C6740 0.930 . S
C6726 H6714 0.930 . S
C6726 C6727 1.399 . S
C6726 C6731 1.399 . S
C6727 C6726 1.399 . S
C6727 C6728 1.376 . S
C6728 H6715 0.930 . S
C6728 C6727 1.376 . S
C6728 C6729 1.388 . S
C6729 H6716 0.930 . S
C6729 C6728 1.388 . S
C6729 C6730 1.390 . S
C6730 C6729 1.390 . S
C6730 C6731 1.394 . S
C6730 C6736 1.465 . S
C6731 C6726 1.399 . S
C6731 C6730 1.394 . S
C6731 C6732 1.516 . S
C6732 C6731 1.516 . S
C6732 C6733 1.502 . S
C6732 C6734 1.561 . S
C6732 C6735 1.526 . S
C6733 H6717 0.959 . S
C6733 H6718 0.959 . S
C6733 H6719 0.961 . S
C6733 C6732 1.502 . S
C6734 H6720 0.960 . S
C6734 H6721 0.961 . S
C6734 H6722 0.959 . S
C6734 C6732 1.561 . S
C6735 C6732 1.526 . S
C6735 C6736 1.396 . S
C6735 C6740 1.390 . S
C6736 C6730 1.465 . S
C6736 C6735 1.396 . S
C6736 C6737 1.399 . S
C6737 H6723 0.929 . S
C6737 C6736 1.399 . S
C6737 C6738 1.385 . S
C6738 H6724 0.931 . S
C6738 C6737 1.385 . S
C6738 C6739 1.389 . S
C6739 C6738 1.389 . S
C6739 C6740 1.387 . S
C6740 H6725 0.930 . S
C6740 C6735 1.390 . S
C6740 C6739 1.387 . S
H6741 C6753 0.930 . S
H6742 C6755 0.930 . S
H6743 C6756 0.930 . S
H6744 C6760 0.959 . S
H6745 C6760 0.959 . S
H6746 C6760 0.961 . S
H6747 C6761 0.960 . S
H6748 C6761 0.961 . S
H6749 C6761 0.959 . S
H6750 C6764 0.929 . S
H6751 C6765 0.931 . S
H6752 C6767 0.930 . S
C6753 H6741 0.930 . S
C6753 C6754 1.399 . S
C6753 C6758 1.399 . S
C6754 C6753 1.399 . S
C6754 C6755 1.376 . S
C6755 H6742 0.930 . S
C6755 C6754 1.376 . S
C6755 C6756 1.388 . S
C6756 H6743 0.930 . S
C6756 C6755 1.388 . S
C6756 C6757 1.390 . S
C6757 C6756 1.390 . S
C6757 C6758 1.394 . S
C6757 C6763 1.465 . S
C6758 C6753 1.399 . S
C6758 C6757 1.394 . S
C6758 C6759 1.516 . S
C6759 C6758 1.516 . S
C6759 C6760 1.502 . S
C6759 C6761 1.561 . S
C6759 C6762 1.526 . S
C6760 H6744 0.959 . S
C6760 H6745 0.959 . S
C6760 H6746 0.961 . S
C6760 C6759 1.502 . S
C6761 H6747 0.960 . S
C6761 H6748 0.961 . S
C6761 H6749 0.959 . S
C6761 C6759 1.561 . S
C6762 C6759 1.526 . S
C6762 C6763 1.396 . S
C6762 C6767 1.390 . S
C6763 C6757 1.465 . S
C6763 C6762 1.396 . S
C6763 C6764 1.399 . S
C6764 H6750 0.929 . S
C6764 C6763 1.399 . S
C6764 C6765 1.385 . S
C6765 H6751 0.931 . S
C6765 C6764 1.385 . S
C6765 C6766 1.389 . S
C6766 C6765 1.389 . S
C6766 C6767 1.387 . S
C6767 H6752 0.930 . S
C6767 C6762 1.390 . S
C6767 C6766 1.387 . S
C1597 C521 1.638 . S
C1609 C25 1.679 . S
C1624 C617 1.840 . S
C1636 C58 1.884 . S
C1651 C90 1.912 . S
C1663 C455 2.203 . S
C1678 C490 1.485 . S
C1690 C123 1.601 . S
C1705 C815 2.093 . S
C1717 C156 2.117 . S
C1732 C1143 1.460 . S
C1744 C189 1.388 . S
C1759 C223 1.847 . S
C1771 C1475 1.873 . S
C1786 C1181 1.839 . S
C1798 C256 1.796 . S
C1813 C286 2.817 . S
C1825 C92 2.868 . S
C1840 C322 1.813 . S
C1852 C125 1.914 . S
C1867 C355 2.023 . S
C1879 C23 2.013 . S
C1894 C390 2.731 . S
C1906 C56 2.625 . S
C1921 C221 2.852 . S
C1933 C291 2.893 . S
C1948 C254 1.922 . S
C1960 C321 1.859 . S
C1975 C354 2.009 . S
C1987 C158 2.427 . S
C2002 C191 2.938 . S
C2014 C385 2.866 . S
C2029 C421 1.501 . S
C2041 C978 1.507 . S
C2056 C292 1.607 . S
C2068 C453 1.627 . S
C2083 C320 3.007 . S
C2095 C484 3.107 . S
C2110 C353 2.248 . S
C2122 C519 2.071 . S
C2137 C1374 1.420 . S
C2149 C553 1.373 . S
C2164 C586 2.000 . S
C2176 C1082 2.047 . S
C2191 C886 2.099 . S
C2203 C489 2.187 . S
C2218 C950 2.424 . S
C2230 C618 2.072 . S
C2245 C880 2.840 . S
C2257 C257 2.924 . S
C2272 C984 2.907 . S
C2284 C650 2.864 . S
C2299 C849 1.829 . S
C2311 C683 1.917 . S
C2326 C716 1.975 . S
C2338 C1081 1.985 . S
C2353 C1512 2.747 . S
C2365 C749 2.644 . S
C2380 C1309 2.790 . S
C2392 C26 2.848 . S
C2407 C785 1.843 . S
C2419 C685 1.799 . S
C2434 C483 1.464 . S
C2446 C255 1.393 . S
C2461 C419 1.896 . S
C2473 C652 1.874 . S
C2488 C751 1.947 . S
C2500 C782 1.907 . S
C2515 C818 2.190 . S
C2527 C24 1.902 . S
C2542 C422 1.708 . S
C2554 C718 1.739 . S
C2569 C619 1.375 . S
C2581 C384 1.422 . S
C2596 C783 2.146 . S
C2608 C851 2.442 . S
C2623 C356 2.087 . S
C2635 C817 2.022 . S
C2650 C912 1.461 . S
C2662 C1411 1.467 . S
C2677 C947 2.992 . S
C2689 C1144 3.111 . S
C2704 C585 1.609 . S
C2716 C985 1.589 . S
C2731 C124 1.879 . S
C2743 C1178 1.835 . S
C2758 C1115 2.186 . S
C2770 C1014 1.907 . S
C2785 C57 1.586 . S
C2797 C1150 1.489 . S
C2812 C651 2.132 . S
C2824 C584 2.110 . S
C2839 C1409 1.819 . S
C2851 C1048 1.791 . S
C2866 C620 1.847 . S
C2878 C190 1.804 . S
C2893 C913 2.793 . S
C2905 C1016 2.851 . S
C2920 C949 1.775 . S
C2932 C59 1.900 . S
C2947 C885 2.734 . S
C2959 C122 2.629 . S
C2974 C1046 2.830 . S
C2986 C918 2.881 . S
C3001 C188 1.990 . S
C3013 C948 1.921 . S
C3028 C653 2.440 . S
C3040 C1080 2.034 . S
C3055 C1308 1.514 . S
C3067 C520 1.508 . S
C3082 C919 1.535 . S
C3094 C1113 1.577 . S
C3109 C1079 2.273 . S
C3121 C420 2.103 . S
C3136 C1506 1.412 . S
C3148 C784 1.361 . S
C3163 C1149 2.165 . S
C3175 C391 2.055 . S
C3190 C1179 2.075 . S
C3202 C323 2.405 . S
C3217 C1314 2.858 . S
C3229 C155 2.814 . S
C3244 C1278 1.836 . S
C3256 C1211 1.925 . S
C3271 C1380 2.742 . S
C3283 C1244 2.638 . S
C3298 C979 2.783 . S
C3310 C719 2.843 . S
C3325 C1213 1.849 . S
C3337 C554 1.874 . S
C3352 C157 1.818 . S
C3364 C518 1.844 . S
C3379 C551 1.870 . S
C3391 C1246 1.920 . S
C3406 C717 1.914 . S
C3418 C587 2.204 . S
C3433 C879 1.425 . S
C3445 C1180 1.380 . S
C3460 C552 2.136 . S
C3472 C1280 2.443 . S
C3487 C1477 1.536 . S
C3499 C285 1.535 . S
C3514 C816 1.563 . S
C3526 C1315 1.536 . S
C3541 C1478 1.703 . S
C3553 C91 1.719 . S
C3568 C1447 1.549 . S
C3580 C750 1.632 . S
C3595 C222 2.137 . S
C3607 C452 2.117 . S
C3622 C1572 1.495 . S
C3634 C1212 1.429 . S
C3649 C752 1.870 . S
C3661 C850 1.745 . S
C3676 C89 1.990 . S
C3688 C1345 2.000 . S
C3703 C224 2.445 . S
C3715 C1344 2.050 . S
C3730 C1214 2.936 . S
C3742 C1375 2.867 . S
C3757 C848 2.993 . S
C3769 C1441 3.112 . S
C3784 C1476 2.096 . S
C3796 C1343 2.271 . S
C3811 C1544 2.046 . S
C3823 C1114 1.998 . S
C3838 C1513 2.105 . S
C3850 C1446 2.192 . S
C3865 C686 2.938 . S
C3877 C1507 2.867 . S
C3892 C1013 1.978 . S
C3904 C1543 1.991 . S
C3919 C684 1.352 . S
C3931 C1440 1.438 . S
C3946 C1015 1.690 . S
C3958 C1412 1.668 . S
C3973 C454 1.985 . S
C3985 C1346 2.050 . S
C4000 C1573 3.129 . S
C4012 C1277 3.027 . S
C4027 C1579 1.582 . S
C4039 C1245 1.661 . S
C4054 C1047 2.126 . S
C4066 C1112 2.103 . S
C4081 C1247 1.866 . S
C4093 C1279 1.748 . S
C4108 C1049 2.421 . S
C4120 C1542 2.065 . S
C4135 C1410 2.095 . S
C4147 C1541 2.270 . S
C4162 C1381 2.048 . S
C4174 C1578 2.166 . S
C4189 C1183 0.400 . S
C4201 C28 0.346 . S
C4216 C813 0.454 . S
C4228 C61 0.346 . S
C4243 C1145 0.771 . S
C4255 C87 0.671 . S
C4270 C1473 0.345 . S
C4282 C120 0.326 . S
C4297 C153 0.257 . S
C4309 C615 0.384 . S
C4324 C186 0.401 . S
C4336 C457 0.317 . S
C4351 C226 1.122 . S
C4363 C488 1.233 . S
C4378 C259 0.339 . S
C4390 C523 0.140 . S
C4405 C287 1.473 . S
C4417 C1508 1.394 . S
C4432 C983 1.015 . S
C4444 C325 1.156 . S
C4459 C1275 0.428 . S
C4471 C358 0.539 . S
C4486 C1539 0.989 . S
C4498 C389 1.023 . S
C4513 C290 1.154 . S
C4525 C1282 1.075 . S
C4540 C318 0.489 . S
C4552 C1546 0.357 . S
C4567 C351 0.966 . S
C4579 C1511 0.897 . S
C4594 C980 1.371 . S
C4606 C386 1.474 . S
C4621 C193 0.131 . S
C4633 C424 0.368 . S
C4648 C450 0.401 . S
C4660 C1249 0.530 . S
C4675 C485 0.671 . S
C4687 C1011 0.712 . S
C4702 C516 0.480 . S
C4714 C747 0.338 . S
C4729 C556 0.384 . S
C4741 C1018 0.444 . S
C4756 C589 0.242 . S
C4768 C681 0.386 . S
C4783 C1311 1.498 . S
C4795 C258 1.493 . S
C4810 C324 2.614 . S
C4822 C649 2.581 . S
C4837 C1083 2.412 . S
C4849 C682 2.421 . S
C4864 C1510 2.096 . S
C4876 C159 2.103 . S
C4891 C982 1.805 . S
C4903 C126 1.790 . S
C4918 C847 2.552 . S
C4930 C715 2.571 . S
C4945 C748 1.843 . S
C4957 C352 1.889 . S
C4972 C27 1.790 . S
C4984 C882 1.810 . S
C4999 C1479 1.570 . S
C5011 C786 1.597 . S
C5026 C814 1.705 . S
C5038 C616 1.685 . S
C5053 C486 1.483 . S
C5065 C1116 1.500 . S
C5080 C1576 1.347 . S
C5092 C418 1.295 . S
C5107 C781 1.726 . S
C5119 C1111 1.722 . S
C5134 C819 1.497 . S
C5146 C1575 1.510 . S
C5161 C487 1.369 . S
C5173 C1474 1.304 . S
C5188 C423 1.589 . S
C5200 C621 1.579 . S
C5215 C720 1.785 . S
C5227 C387 1.816 . S
C5242 C852 2.612 . S
C5254 C1045 2.591 . S
C5269 C1210 2.423 . S
C5281 C357 2.372 . S
C5296 C225 2.061 . S
C5308 C883 2.072 . S
C5323 C1215 1.449 . S
C5335 C915 1.517 . S
C5350 C88 2.560 . S
C5362 C946 2.535 . S
C5377 C622 0.362 . S
C5389 C721 0.385 . S
C5404 C582 0.426 . S
C5416 C127 0.490 . S
C5431 C1407 0.373 . S
C5443 C54 0.332 . S
C5458 C648 0.294 . S
C5470 C1176 0.425 . S
C5485 C1117 0.249 . S
C5497 C252 0.393 . S
C5512 C1148 1.137 . S
C5524 C1051 1.242 . S
C5539 C914 1.445 . S
C5551 C1376 1.430 . S
C5566 C952 1.170 . S
C5578 C1313 1.037 . S
C5593 C1084 0.467 . S
C5605 C846 0.495 . S
C5620 C884 0.893 . S
C5632 C1341 1.004 . S
C5647 C917 1.077 . S
C5659 C853 1.102 . S
C5674 C945 0.465 . S
C5686 C1348 0.381 . S
C5701 C1379 0.984 . S
C5713 C1077 0.965 . S
C5728 C1310 1.407 . S
C5740 C881 1.426 . S
C5755 C754 0.613 . S
C5767 C1110 0.265 . S
C5782 C1242 0.339 . S
C5794 C417 0.430 . S
C5809 C787 0.485 . S
C5821 C94 0.275 . S
C5836 C820 0.248 . S
C5848 C1209 0.392 . S
C5863 C981 1.497 . S
C5875 C192 1.496 . S
C5890 C154 2.562 . S
C5902 C951 2.628 . S
C5917 C654 2.048 . S
C5929 C1378 2.109 . S
C5944 C60 1.747 . S
C5956 C1312 1.789 . S
C5971 C22 2.561 . S
C5983 C1276 2.536 . S
C5998 C1243 1.812 . S
C6010 C1078 1.886 . S
C6025 C555 1.588 . S
C6037 C1413 1.509 . S
C6052 C583 1.757 . S
C6064 C1177 1.709 . S
C6079 C456 1.451 . S
C6091 C1146 1.505 . S
C6106 C517 1.344 . S
C6118 C1444 1.382 . S
C6133 C451 1.774 . S
C6145 C550 1.751 . S
C6160 C588 1.499 . S
C6172 C1443 1.509 . S
C6187 C1147 1.368 . S
C6199 C1408 1.302 . S
C6214 C1182 1.609 . S
C6226 C522 1.539 . S
C6241 C220 2.599 . S
C6253 C1281 2.664 . S
C6268 C1050 2.046 . S
C6280 C388 2.106 . S
C6295 C687 1.450 . S
C6307 C288 1.516 . S
C6322 C1012 2.562 . S
C6334 C319 2.538 . S
C6349 C1574 0.728 . S
C6361 C21 0.616 . S
C6376 C549 0.180 . S
C6388 C219 0.146 . S
C6403 C160 1.225 . S
C6415 C1445 1.120 . S
C6430 C1480 0.212 . S
C6442 C688 0.279 . S
C6457 C1216 0.192 . S
C6469 C1414 0.290 . S
C6484 C714 0.631 . S
C6496 C1442 0.798 . S
C6511 C253 2.422 . S
C6523 C1545 2.374 . S
C6538 C916 1.796 . S
C6550 C753 1.729 . S
C6565 C121 1.889 . S
C6577 C1342 1.933 . S
C6592 C93 1.775 . S
C6604 C1509 1.802 . S
C6619 C1017 1.719 . S
C6631 C1377 1.832 . S
C6646 C187 2.415 . S
C6658 C1347 2.391 . S
C6673 C780 0.458 . S
C6685 C1044 0.334 . S
C6700 C1577 1.232 . S
C6712 C655 1.158 . S
C6727 C1248 1.748 . S
C6739 C289 1.827 . S
C6754 C1540 1.936 . S
C6766 C55 1.839 . S
