# Generated by pormake.
# Topology ecf, (8)-cn, num edge types: 1
# Building blocks:
#     Node 0, Type 0, BuildingBlock: AJUNOK_clean_sbu_0, # of connection points: 8
#     Node 1, Type 0, BuildingBlock: AJUNOK_clean_sbu_0, # of connection points: 8
#     Node 2, Type 0, BuildingBlock: AJUNOK_clean_sbu_0, # of connection points: 8
#     Node 3, Type 0, BuildingBlock: AJUNOK_clean_sbu_0, # of connection points: 8
#     Node 4, Type 0, BuildingBlock: AJUNOK_clean_sbu_0, # of connection points: 8
#     Node 5, Type 0, BuildingBlock: AJUNOK_clean_sbu_0, # of connection points: 8
#     Edge 6, Type (0, 0), BuildingBlock: AJUNOK_clean_linker_0, # of connection points: 2
#     Edge 7, Type (0, 0), BuildingBlock: AJUNOK_clean_linker_0, # of connection points: 2
#     Edge 8, Type (0, 0), BuildingBlock: AJUNOK_clean_linker_0, # of connection points: 2
#     Edge 9, Type (0, 0), BuildingBlock: AJUNOK_clean_linker_0, # of connection points: 2
#     Edge 10, Type (0, 0), BuildingBlock: AJUNOK_clean_linker_0, # of connection points: 2
#     Edge 11, Type (0, 0), BuildingBlock: AJUNOK_clean_linker_0, # of connection points: 2
#     Edge 12, Type (0, 0), BuildingBlock: AJUNOK_clean_linker_0, # of connection points: 2
#     Edge 13, Type (0, 0), BuildingBlock: AJUNOK_clean_linker_0, # of connection points: 2
#     Edge 14, Type (0, 0), BuildingBlock: AJUNOK_clean_linker_0, # of connection points: 2
#     Edge 15, Type (0, 0), BuildingBlock: AJUNOK_clean_linker_0, # of connection points: 2
#     Edge 16, Type (0, 0), BuildingBlock: AJUNOK_clean_linker_0, # of connection points: 2
#     Edge 17, Type (0, 0), BuildingBlock: AJUNOK_clean_linker_0, # of connection points: 2
#     Edge 18, Type (0, 0), BuildingBlock: AJUNOK_clean_linker_0, # of connection points: 2
#     Edge 19, Type (0, 0), BuildingBlock: AJUNOK_clean_linker_0, # of connection points: 2
#     Edge 20, Type (0, 0), BuildingBlock: AJUNOK_clean_linker_0, # of connection points: 2
#     Edge 21, Type (0, 0), BuildingBlock: AJUNOK_clean_linker_0, # of connection points: 2
#     Edge 22, Type (0, 0), BuildingBlock: AJUNOK_clean_linker_0, # of connection points: 2
#     Edge 23, Type (0, 0), BuildingBlock: AJUNOK_clean_linker_0, # of connection points: 2
#     Edge 24, Type (0, 0), BuildingBlock: AJUNOK_clean_linker_0, # of connection points: 2
#     Edge 25, Type (0, 0), BuildingBlock: AJUNOK_clean_linker_0, # of connection points: 2
#     Edge 26, Type (0, 0), BuildingBlock: AJUNOK_clean_linker_0, # of connection points: 2
#     Edge 27, Type (0, 0), BuildingBlock: AJUNOK_clean_linker_0, # of connection points: 2
#     Edge 28, Type (0, 0), BuildingBlock: AJUNOK_clean_linker_0, # of connection points: 2
#     Edge 29, Type (0, 0), BuildingBlock: AJUNOK_clean_linker_0, # of connection points: 2
# Relax obj value: 0.434
# Max RMSD: 0.281
# Mean RMSD: 0.281
data_MOF--net-ecf--node1-AJUNOK_clean_sbu_0--edge1-AJUNOK_clean_linker_0
_symmetry_space_group_name_H-M    P1
_symmetry_Int_Tables_number       1
_symmetry_cell_setting            triclinic
loop_
_symmetry_equiv_pos_as_xyz
'x, y, z'
_cell_length_a     31.749005
_cell_length_b     31.975761
_cell_length_c     17.224154
_cell_angle_alpha  89.965341
_cell_angle_beta   90.028868
_cell_angle_gamma 119.75908
loop_
_atom_site_label
_atom_site_type_symbol
_atom_site_fract_x
_atom_site_fract_y
_atom_site_fract_z
_atom_type_partial_charge
Cd0 Cd 0.12837 0.32687 0.25262 0.0
Cd1 Cd 0.219 0.33978 0.37754 0.0
C2 C 0.03322 0.23004 0.25983 0.0
N3 N 0.07973 0.24516 0.23876 0.0
C4 C 0.06259 0.16408 0.22182 0.0
C5 C 0.0161 0.14833 0.25091 0.0
C6 C 1.00069 0.18143 0.26713 0.0
C7 C 0.09458 0.21357 0.21683 0.0
H8 H 0.02203 0.25581 0.27508 0.0
H9 H 0.13157 0.22618 0.19978 0.0
C10 C 0.22028 0.30349 0.17453 0.0
C11 C 0.28147 0.42891 0.2603 0.0
C12 C 0.31754 0.47578 0.24209 0.0
C13 C 0.33115 0.51233 0.29744 0.0
C14 C 0.30695 0.50152 0.36886 0.0
C15 C 0.2712 0.4542 0.3848 0.0
N16 N 0.25899 0.41899 0.33071 0.0
H17 H 0.27347 0.4002 0.21988 0.0
H18 H 0.25516 0.4449 0.44205 0.0
C19 C 0.22985 0.24695 0.36567 0.0
N20 N 0.19595 0.25984 0.3817 0.0
C21 C 0.13203 0.17935 0.36582 0.0
C22 C 0.16542 0.16706 0.33624 0.0
C23 C 0.21516 0.20034 0.34124 0.0
C24 C 0.14809 0.22678 0.38668 0.0
H25 H 0.26783 0.27395 0.36332 0.0
H26 H 0.12189 0.23774 0.39968 0.0
C27 C 0.09781 0.30006 0.45798 0.0
C28 C 0.06799 0.35625 0.17989 0.0
N29 N 0.1715 0.40721 0.28727 0.0
C30 C 0.16293 0.42163 0.35697 0.0
C31 C 0.17626 0.46988 0.36898 0.0
C32 C 0.19717 0.50284 0.30795 0.0
C33 C 0.20589 0.48721 0.23694 0.0
C34 C 0.19202 0.43875 0.22741 0.0
C35 C 0.3046 0.37519 0.46497 0.0
O36 O 0.18588 0.31223 0.15888 0.0
O37 O 0.23482 0.30901 0.245 0.0
O38 O 0.14322 0.31745 0.47266 0.0
O39 O 0.08584 0.29823 0.38674 0.0
O40 O 0.09808 0.34991 0.14014 0.0
O41 O 0.06497 0.34636 0.25117 0.0
O42 O 0.26508 0.36622 0.49736 0.0
O43 O 0.30267 0.36501 0.39391 0.0
H44 H 0.14345 0.39544 0.40169 0.0
H45 H 0.19535 0.42567 0.17113 0.0
H46 H 0.0747 0.13875 0.2077 0.0
H47 H 0.96436 0.16976 0.28834 0.0
H48 H 0.33689 0.48276 0.18756 0.0
H49 H 0.31818 0.52856 0.41398 0.0
H50 H 0.09363 0.15427 0.36488 0.0
H51 H 0.24207 0.19139 0.32119 0.0
H52 H 0.16744 0.48066 0.42343 0.0
H53 H 0.22046 0.51161 0.18803 0.0
Cd54 Cd 0.88776 0.21094 0.90132 0.0
Cd55 Cd 0.81872 0.12922 0.76174 0.0
C56 C 0.99579 0.23754 0.92541 0.0
N57 N 0.95115 0.20294 0.94896 0.0
C58 C 0.98056 0.14971 0.98112 0.0
C59 C 0.02431 0.1817 0.94512 0.0
C60 C 0.03367 0.22778 0.92416 0.0
C61 C 0.94407 0.16183 0.98418 0.0
H62 H 1.00063 0.2703 0.89904 0.0
H63 H 0.90838 0.13537 1.00405 0.0
C64 C 0.80266 0.08803 0.96081 0.0
C65 C 0.73785 0.14403 0.84325 0.0
C66 C 0.69972 0.15376 0.85021 0.0
C67 C 0.69588 0.18569 0.79819 0.0
C68 C 0.73193 0.20767 0.74066 0.0
C69 C 0.76858 0.19555 0.73412 0.0
N70 N 0.77175 0.16538 0.7866 0.0
H71 H 0.73905 0.11759 0.88082 0.0
H72 H 0.79421 0.20979 0.68666 0.0
C73 C 0.89631 0.10188 0.81245 0.0
N74 N 0.8737 0.10342 0.74692 0.0
C75 C 0.88687 0.0441 0.6866 0.0
C76 C 0.90234 0.03591 0.75854 0.0
C77 C 0.91188 0.06838 0.81947 0.0
C78 C 0.87169 0.07813 0.6824 0.0
H79 H 0.89517 0.12128 0.86234 0.0
H80 H 0.85247 0.07964 0.63155 0.0
C81 C 0.93512 0.21726 0.69925 0.0
C82 C 0.9241 0.29513 0.99233 0.0
N83 N 0.84572 0.24854 0.85549 0.0
C84 C 0.86641 0.28059 0.79639 0.0
C85 C 0.85325 0.31565 0.78277 0.0
C86 C 0.81832 0.31792 0.83021 0.0
C87 C 0.79561 0.28245 0.88795 0.0
C88 C 0.81123 0.24919 0.90153 0.0
C89 C 0.7382 0.06014 0.6821 0.0
O90 O 0.82736 0.13227 0.98163 0.0
O91 O 0.79858 0.07904 0.88818 0.0
O92 O 0.89171 0.18855 0.67641 0.0
O93 O 0.94168 0.22615 0.77249 0.0
O94 O 0.89391 0.2543 1.02044 0.0
O95 O 0.93685 0.29568 0.92267 0.0
O96 O 0.76621 0.1002 0.64962 0.0
O97 O 0.75193 0.05144 0.74579 0.0
H98 H 0.89568 0.28117 0.76347 0.0
H99 H 0.797 0.22484 0.95044 0.0
H100 H 0.97273 0.11386 0.9975 0.0
H101 H 0.06769 0.25325 0.89711 0.0
H102 H 0.67237 0.13473 0.89412 0.0
H103 H 0.73176 0.23353 0.70037 0.0
H104 H 0.87881 0.01921 0.63884 0.0
H105 H 0.92303 0.06246 0.87597 0.0
H106 H 0.87258 0.34251 0.73852 0.0
H107 H 0.76719 0.28119 0.92416 0.0
Cd108 Cd 0.69262 0.8039 0.2466 0.0
Cd109 Cd 0.67489 0.86965 0.38486 0.0
C110 C 0.78817 0.80969 0.19151 0.0
N111 N 0.77251 0.84 0.21528 0.0
C112 C 0.8534 0.90494 0.22688 0.0
C113 C 0.8704 0.87297 0.21149 0.0
C114 C 0.83733 0.82542 0.18946 0.0
C115 C 0.80363 0.88738 0.22947 0.0
H116 H 0.76256 0.77223 0.18069 0.0
H117 H 0.79006 0.9106 0.2485 0.0
C118 C 0.71462 0.92007 0.18736 0.0
C119 C 0.58143 0.85226 0.28854 0.0
C120 C 0.53317 0.83991 0.27655 0.0
C121 C 0.49638 0.80569 0.32493 0.0
C122 C 0.50986 0.78354 0.38288 0.0
C123 C 0.55892 0.79893 0.3955 0.0
N124 N 0.59343 0.83179 0.34732 0.0
H125 H 0.60963 0.88032 0.25381 0.0
H126 H 0.56961 0.78509 0.44444 0.0
C127 C 0.76662 0.97351 0.38591 0.0
N128 N 0.75515 0.92731 0.40068 0.0
C129 C 0.83855 0.94908 0.40205 0.0
C130 C 0.85011 0.99442 0.37379 0.0
C131 C 0.81441 0.00793 0.37094 0.0
C132 C 0.79003 0.91532 0.41419 0.0
H133 H 0.73827 0.9825 0.37807 0.0
H134 H 0.78049 0.87898 0.42804 0.0
C135 C 0.71909 0.78786 0.44248 0.0
C136 C 0.66081 0.7176 0.16543 0.0
N137 N 0.61124 0.76551 0.27551 0.0
C138 C 0.59756 0.73479 0.33684 0.0
C139 C 0.54981 0.69743 0.34345 0.0
C140 C 0.51617 0.69006 0.28452 0.0
C141 C 0.53124 0.72248 0.22181 0.0
C142 C 0.5794 0.75989 0.21805 0.0
C143 C 0.64184 0.91334 0.49106 0.0
O144 O 0.70948 0.87932 0.16725 0.0
O145 O 0.70488 0.92463 0.25794 0.0
O146 O 0.69563 0.80935 0.46255 0.0
O147 O 0.72714 0.78654 0.37021 0.0
O148 O 0.66518 0.75465 0.1308 0.0
O149 O 0.67505 0.72278 0.23504 0.0
O150 O 0.6523 0.88176 0.51344 0.0
O151 O 0.64759 0.9241 0.4199 0.0
H152 H 0.62426 0.73767 0.37849 0.0
H153 H 0.59224 0.7824 0.16685 0.0
H154 H 0.8782 0.94161 0.24399 0.0
H155 H 0.84861 0.79904 0.17909 0.0
H156 H 0.52536 0.85914 0.23229 0.0
H157 H 0.48325 0.75552 0.41975 0.0
H158 H 0.86585 0.93847 0.40731 0.0
H159 H 0.82285 0.04346 0.35129 0.0
H160 H 0.5399 0.67323 0.39263 0.0
H161 H 0.50723 0.7171 0.17355 0.0
Cd162 Cd 0.8073 0.67248 0.88255 0.0
Cd163 Cd 0.89298 0.67786 0.74515 0.0
C164 C 0.7893 0.75803 0.86373 0.0
N165 N 0.82208 0.75035 0.90173 0.0
C166 C 0.871 0.83456 0.92687 0.0
C167 C 0.84188 0.84398 0.8756 0.0
C168 C 0.80009 0.80427 0.84505 0.0
C169 C 0.86142 0.7871 0.93675 0.0
H170 H 0.75673 0.72798 0.84111 0.0
H171 H 0.88656 0.78005 0.9687 0.0
C172 C 0.92965 0.70605 0.94761 0.0
C173 C 0.86666 0.58414 0.83987 0.0
C174 C 0.85359 0.53606 0.85133 0.0
C175 C 0.82106 0.50046 0.8 0.0
C176 C 0.80301 0.51496 0.73706 0.0
C177 C 0.81818 0.56391 0.72655 0.0
N178 N 0.84831 0.59714 0.7791 0.0
H179 H 0.89371 0.6114 0.87699 0.0
H180 H 0.80718 0.5756 0.67529 0.0
C181 C 0.9874 0.77752 0.76239 0.0
N182 N 0.93884 0.76004 0.75652 0.0
C183 C 0.94793 0.83595 0.79254 0.0
C184 C 0.99664 0.8523 0.80988 0.0
C185 C 0.01715 0.82375 0.79036 0.0
C186 C 0.91891 0.78861 0.76758 0.0
H187 H 1.00233 0.75414 0.75196 0.0
H188 H 0.88034 0.77408 0.7615 0.0
C189 C 0.8042 0.7053 0.67337 0.0
C190 C 0.72271 0.63614 0.97293 0.0
N191 N 0.76669 0.59064 0.85109 0.0
C192 C 0.73426 0.57698 0.79178 0.0
C193 C 0.69881 0.52875 0.78269 0.0
C194 C 0.69636 0.49375 0.83502 0.0
C195 C 0.73147 0.50886 0.8943 0.0
C196 C 0.76527 0.55785 0.90296 0.0
C197 C 0.95256 0.65118 0.66588 0.0
O198 O 0.88587 0.69418 0.9654 0.0
O199 O 0.939 0.70383 0.8762 0.0
O200 O 0.83913 0.69826 0.65388 0.0
O201 O 0.79121 0.69828 0.74469 0.0
O202 O 0.76287 0.6455 1.00368 0.0
O203 O 0.72334 0.64521 0.90155 0.0
O204 O 0.92263 0.65903 0.62859 0.0
O205 O 0.9566 0.65965 0.73766 0.0
H206 H 0.73409 0.60393 0.75413 0.0
H207 H 0.78975 0.56992 0.95206 0.0
H208 H 0.90276 0.86339 0.95446 0.0
H209 H 0.7771 0.80755 0.80234 0.0
H210 H 0.87098 0.52744 0.89778 0.0
H211 H 0.77864 0.48902 0.69511 0.0
H212 H 0.93195 0.85827 0.80269 0.0
H213 H 0.05526 0.83618 0.80046 0.0
H214 H 0.67205 0.51956 0.73729 0.0
H215 H 0.73244 0.48352 0.93479 0.0
Cd216 Cd 0.21067 0.88556 0.24323 0.0
Cd217 Cd 0.14164 0.80312 0.38111 0.0
C218 C 0.21054 0.98012 0.20192 0.0
N219 N 0.17733 0.93324 0.21417 0.0
C220 C 0.11242 0.95054 0.20569 0.0
C221 C 0.14634 0.99988 0.2001 0.0
C222 C 0.19589 0.01412 0.19479 0.0
C223 C 0.12891 0.91754 0.21375 0.0
H224 H 0.24876 0.99165 0.20228 0.0
H225 H 0.10319 0.87989 0.22302 0.0
C226 C 0.09467 0.79028 0.1814 0.0
C227 C 0.16622 0.73456 0.27765 0.0
C228 C 0.17761 0.69824 0.26522 0.0
C229 C 0.20022 0.68598 0.32434 0.0
C230 C 0.21427 0.71389 0.39252 0.0
C231 C 0.20442 0.75161 0.40079 0.0
N232 N 0.18051 0.76101 0.34398 0.0
H233 H 0.14512 0.74097 0.23504 0.0
H234 H 0.21253 0.77109 0.45509 0.0
C235 C 0.03657 0.79052 0.38319 0.0
N236 N 0.08366 0.82497 0.39343 0.0
C237 C 0.06414 0.88734 0.38197 0.0
C238 C 0.01748 0.85313 0.35878 0.0
C239 C 1.00243 0.80405 0.36463 0.0
C240 C 0.09736 0.87239 0.39774 0.0
H241 H 0.02658 0.75294 0.38126 0.0
H242 H 0.13465 0.89906 0.40611 0.0
C243 C 0.22386 0.92699 0.44174 0.0
C244 C 0.29813 0.93932 0.16281 0.0
N245 N 0.25023 0.84357 0.27508 0.0
C246 C 0.27843 0.85729 0.33977 0.0
C247 C 0.31273 0.84267 0.35106 0.0
C248 C 0.31792 0.81313 0.29568 0.0
C249 C 0.28862 0.80016 0.22886 0.0
C250 C 0.25622 0.81734 0.21843 0.0
C251 C 0.09652 0.72166 0.47643 0.0
O252 O 0.13632 0.82416 0.15978 0.0
O253 O 0.08908 0.77959 0.25365 0.0
O254 O 0.19998 0.88242 0.46194 0.0
O255 O 0.22806 0.93623 0.36905 0.0
O256 O 0.26005 0.90881 0.12731 0.0
O257 O 0.29384 0.94582 0.23392 0.0
O258 O 0.1259 0.76241 0.50568 0.0
O259 O 0.08699 0.72088 0.40526 0.0
H260 H 0.27617 0.88175 0.38052 0.0
H261 H 0.23584 0.80991 0.16495 0.0
H262 H 0.07393 0.9379 0.20765 0.0
H263 H 0.22373 0.05167 0.19153 0.0
H264 H 0.16649 0.67837 0.21119 0.0
H265 H 0.22949 0.70486 0.44156 0.0
H266 H 0.07636 0.9253 0.38025 0.0
H267 H 0.96595 0.77688 0.34867 0.0
H268 H 0.33651 0.85659 0.40085 0.0
H269 H 0.29159 0.7781 0.18394 0.0
Cd270 Cd 0.33511 0.13369 0.87808 0.0
Cd271 Cd 0.33751 0.21246 0.7373 0.0
C272 C 0.23635 0.0379 0.87556 0.0
N273 N 0.25387 0.08212 0.9078 0.0
C274 C 0.17467 0.06166 0.95323 0.0
C275 C 0.15578 0.01822 0.91299 0.0
C276 C 0.18707 0.00564 0.87583 0.0
C277 C 0.22454 0.0939 0.94911 0.0
H278 H 0.26059 0.0281 0.84779 0.0
H279 H 0.23908 0.12825 0.97761 0.0
C280 C 0.3042 0.22395 0.93603 0.0
C281 C 0.42918 0.27628 0.84155 0.0
C282 C 0.47758 0.31028 0.8559 0.0
C283 C 0.51432 0.31344 0.8064 0.0
C284 C 0.50064 0.28155 0.743 0.0
C285 C 0.45149 0.249 0.72944 0.0
N286 N 0.41706 0.2461 0.7797 0.0
H287 H 0.40106 0.27632 0.87666 0.0
H288 H 0.44061 0.22718 0.67742 0.0
C289 C 0.23968 0.21322 0.7189 0.0
N290 N 0.25598 0.18196 0.73354 0.0
C291 C 0.17962 0.12373 0.78425 0.0
C292 C 0.16382 0.15728 0.77819 0.0
C293 C 0.19294 0.20136 0.74085 0.0
C294 C 0.22653 0.13697 0.76131 0.0
H295 H 0.26434 0.24895 0.69727 0.0
H296 H 0.24078 0.11316 0.77182 0.0
C297 C 0.3033 0.09353 0.67263 0.0
C298 C 0.36611 0.08179 0.96935 0.0
N299 N 0.4177 0.16768 0.84597 0.0
C300 C 0.42823 0.14684 0.78587 0.0
C301 C 0.47561 0.15614 0.77396 0.0
C302 C 0.5131 0.18747 0.82404 0.0
C303 C 0.50104 0.20816 0.88617 0.0
C304 C 0.45278 0.19683 0.89715 0.0
C305 C 0.37202 0.29874 0.65462 0.0
O306 O 0.32037 0.19611 0.95741 0.0
O307 O 0.30404 0.23174 0.8632 0.0
O308 O 0.31631 0.13655 0.65052 0.0
O309 O 0.30612 0.08698 0.74533 0.0
O310 O 0.36459 0.11761 0.99798 0.0
O311 O 0.34977 0.06914 0.90138 0.0
O312 O 0.36344 0.26038 0.61939 0.0
O313 O 0.36139 0.295 0.72567 0.0
H314 H 0.39941 0.12107 0.74926 0.0
H315 H 0.4431 0.21051 0.94743 0.0
H316 H 0.15105 0.0707 0.98544 0.0
H317 H 0.17335 0.97119 0.84689 0.0
H318 H 0.48551 0.33578 0.90254 0.0
H319 H 0.5274 0.28292 0.70258 0.0
H320 H 0.15739 0.08945 0.81186 0.0
H321 H 0.18151 0.22804 0.73582 0.0
H322 H 0.48206 0.13689 0.72812 0.0
H323 H 0.52837 0.23204 0.92697 0.0
C324 C 0.16357 0.55602 0.27869 0.0
C325 C 0.20047 0.55032 0.31267 0.0
C326 C 0.16432 0.59998 0.28239 0.0
C327 C 0.20278 0.64066 0.31848 0.0
H328 H 0.13328 0.52581 0.25027 0.0
H329 H 0.13358 0.60141 0.25823 0.0
S330 S 0.30889 0.64356 0.41567 0.0
N331 N 0.2757 0.58736 0.38554 0.0
N332 N 0.27991 0.67181 0.3871 0.0
C333 C 0.24056 0.63534 0.35176 0.0
C334 C 0.23876 0.58977 0.35007 0.0
C335 C 0.58915 0.1943 0.88189 0.0
C336 C 0.56319 0.19452 0.8157 0.0
C337 C 0.63315 0.19416 0.87548 0.0
C338 C 0.65292 0.19326 0.8026 0.0
H339 H 0.57449 0.19213 0.93944 0.0
H340 H 0.6511 0.19337 0.92848 0.0
S341 S 0.60221 0.1996 0.61102 0.0
N342 N 0.56395 0.20046 0.67489 0.0
N343 N 0.6441 0.19586 0.66239 0.0
C344 C 0.62852 0.19588 0.73585 0.0
C345 C 0.58432 0.19738 0.74253 0.0
C346 C 0.42041 0.55859 0.30722 0.0
C347 C 0.37715 0.55795 0.28844 0.0
C348 C 0.46488 0.6014 0.30506 0.0
C349 C 0.46784 0.64549 0.28481 0.0
H350 H 0.41975 0.52567 0.32454 0.0
H351 H 0.49729 0.59977 0.31915 0.0
S352 S 0.3644 0.66202 0.22649 0.0
N353 N 0.3394 0.60373 0.24468 0.0
N354 N 0.42305 0.68524 0.24343 0.0
C355 C 0.42462 0.64508 0.26444 0.0
C356 C 0.37921 0.60107 0.26586 0.0
C357 C 0.81111 0.37999 0.74997 0.0
C358 C 0.80975 0.35983 0.8234 0.0
C359 C 0.81194 0.4241 0.7425 0.0
C360 C 0.8106 0.44966 0.8081 0.0
H361 H 0.81346 0.3625 0.69764 0.0
H362 H 0.81627 0.43939 0.68497 0.0
S363 S 0.79873 0.40933 1.01302 0.0
N364 N 0.80307 0.36762 0.96308 0.0
N365 N 0.80043 0.44807 0.94812 0.0
C366 C 0.80485 0.42792 0.88135 0.0
C367 C 0.80532 0.38364 0.88926 0.0
C368 C 0.38508 0.80318 0.23784 0.0
C369 C 0.35754 0.80102 0.30333 0.0
C370 C 0.42768 0.80063 0.24507 0.0
C371 C 0.44569 0.79733 0.31826 0.0
H372 H 0.37536 0.80955 0.18058 0.0
H373 H 0.44777 0.80343 0.19268 0.0
S374 S 0.38196 0.7811 0.5068 0.0
N375 N 0.34626 0.78591 0.44218 0.0
N376 N 0.4288 0.78629 0.45732 0.0
C377 C 0.41647 0.79143 0.38381 0.0
C378 C 0.37204 0.79226 0.37594 0.0
C379 C 0.59197 0.37939 0.74963 0.0
C380 C 0.56534 0.35375 0.81542 0.0
C381 C 0.63601 0.42268 0.75678 0.0
C382 C 0.65497 0.44307 0.82998 0.0
H383 H 0.57756 0.36752 0.69183 0.0
H384 H 0.65429 0.44134 0.70408 0.0
S385 S 0.60333 0.3858 1.0207 0.0
N386 N 0.5654 0.34757 0.95611 0.0
N387 N 0.64552 0.43105 0.97012 0.0
C388 C 0.6304 0.41601 0.89636 0.0
C389 C 0.58625 0.37105 0.88889 0.0
C390 C 0.16952 0.12481 0.21841 0.0
C391 C 0.14888 0.12248 0.29153 0.0
C392 C 0.16115 0.08295 0.18023 0.0
C393 C 0.13317 0.03761 0.21535 0.0
H394 H 0.19456 0.1593 0.19268 0.0
H395 H 0.18129 0.08654 0.12753 0.0
S396 S 0.05759 0.01251 0.39257 0.0
N397 N 0.08968 0.07176 0.38783 0.0
N398 N 0.07327 0.99272 0.31551 0.0
C399 C 0.10574 0.03477 0.28153 0.0
C400 C 0.11426 0.07749 0.32047 0.0
C401 C 0.04877 0.15656 0.82697 0.0
C402 C 0.05329 0.16363 0.90781 0.0
C403 C 0.08301 0.15069 0.78506 0.0
C404 C 0.12213 0.15112 0.82328 0.0
H405 H 0.02035 0.15879 0.79552 0.0
H406 H 0.0805 0.1486 0.72229 0.0
S407 S 0.14684 0.16377 1.03492 0.0
N408 N 0.0968 0.16701 1.02523 0.0
N409 N 0.16195 0.15607 0.94645 0.0
C410 C 0.12506 0.15483 0.90473 0.0
C411 C 0.09024 0.16102 0.94725 0.0
C412 C 0.9825 0.08248 0.34621 0.0
C413 C 0.98286 0.09808 0.26971 0.0
C414 C 0.93981 0.04566 0.37878 0.0
C415 C 0.8967 0.0248 0.33579 0.0
H416 H 0.01354 0.10209 0.38369 0.0
H417 H 0.93953 0.03657 0.43946 0.0
S418 S 0.88189 0.04789 0.12978 0.0
N419 N 0.93944 0.08556 0.14904 0.0
N420 N 0.85829 0.01699 0.21029 0.0
C421 C 0.898 0.0368 0.25707 0.0
C422 C 0.94158 0.07326 0.22379 0.0
C423 C 0.92206 0.9748 0.8112 0.0
C424 C 0.8883 0.98625 0.78018 0.0
C425 C 0.90679 0.92929 0.84361 0.0
C426 C 0.85705 0.89382 0.84749 0.0
H427 H 0.96034 1.00138 0.81129 0.0
H428 H 0.93464 0.92238 0.86542 0.0
S429 S 0.75427 0.91211 0.78839 0.0
N430 N 0.80343 0.96198 0.76217 0.0
N431 N 0.77412 0.87817 0.82788 0.0
C432 C 0.82297 0.90646 0.81951 0.0
C433 C 0.83874 0.95218 0.78475 0.0
C434 C 0.93263 0.89987 0.31473 0.0
C435 C 0.91887 0.88402 0.23775 0.0
C436 C 0.96675 0.89201 0.35329 0.0
C437 C 0.9878 0.86824 0.31557 0.0
H438 H 0.91368 0.91401 0.34794 0.0
H439 H 0.97422 0.90156 0.41408 0.0
S440 S 0.97133 0.82909 0.11031 0.0
N441 N 0.93523 0.85188 0.12155 0.0
N442 N 0.99847 0.83534 0.19478 0.0
C443 C 0.97825 0.8569 0.23652 0.0
C444 C 0.94431 0.86576 0.19707 0.0
C445 C 0.07613 0.98444 0.848 0.0
C446 C 0.10393 0.98341 0.91082 0.0
C447 C 0.03712 0.94167 0.81957 0.0
C448 C 0.02598 0.89731 0.8529 0.0
H449 H 0.08763 0.01723 0.81537 0.0
H450 H 0.01905 0.94284 0.76691 0.0
S451 S 0.08332 0.87824 1.0263 0.0
N452 N 0.11317 0.93691 1.01275 0.0
N453 N 0.04099 0.85591 0.95844 0.0
C454 C 0.04981 0.89696 0.92141 0.0
C455 C 0.08847 0.94044 0.95102 0.0
C456 C 0.27104 0.26365 0.13287 0.0
C457 C 0.2423 0.2847 0.11205 0.0
C458 C 0.29055 0.24457 0.07702 0.0
C459 C 0.2837 0.24589 0.99574 0.0
H460 H 0.2781 0.26106 0.19367 0.0
H461 H 0.31143 0.22855 0.09824 0.0
S462 S 0.21023 0.29543 0.90771 0.0
N463 N 0.20723 0.30381 1.00172 0.0
N464 N 0.2444 0.27012 0.89869 0.0
C465 C 0.25529 0.26715 0.97401 0.0
C466 C 0.23465 0.28576 1.03102 0.0
C467 C 0.96941 0.23887 0.55865 0.0
C468 C 0.97788 0.23968 0.63978 0.0
C469 C 1.00765 0.25847 0.50227 0.0
C470 C 0.05767 0.28012 0.52205 0.0
H471 H 0.93242 0.2229 0.53787 0.0
H472 H 0.99751 0.25621 0.44173 0.0
S473 S 0.10147 0.28972 0.72558 0.0
N474 N 0.04195 0.26353 0.73559 0.0
N475 N 0.11244 0.29904 0.63154 0.0
C476 C 0.06678 0.28065 0.60296 0.0
C477 C 0.0277 0.26103 0.66064 0.0
C478 C 0.73164 0.0049 0.13895 0.0
C479 C 0.73646 0.96324 0.12988 0.0
C480 C 0.75303 0.04498 0.08594 0.0
C481 C 0.78047 0.04597 1.02006 0.0
H482 H 0.71091 0.00663 0.1875 0.0
H483 H 0.7474 0.07523 0.09626 0.0
S484 S 0.81462 0.95269 0.98003 0.0
N485 N 0.77808 0.93063 1.05528 0.0
N486 N 0.8163 1.00358 0.95689 0.0
C487 C 0.78672 0.00534 1.01206 0.0
C488 C 0.76554 0.96505 1.06622 0.0
C489 C 0.79722 0.7367 0.53686 0.0
C490 C 0.78057 0.72469 0.61458 0.0
C491 C 0.77721 0.75628 0.48281 0.0
C492 C 0.73949 0.76614 0.5025 0.0
H493 H 0.82647 0.73116 0.51717 0.0
H494 H 0.7922 0.76442 0.42472 0.0
S495 S 0.68011 0.73991 0.69636 0.0
N496 N 0.72094 0.72256 0.70549 0.0
N497 N 0.68579 0.76064 0.60691 0.0
C498 C 0.72234 0.75423 0.57973 0.0
C499 C 0.74202 0.73338 0.63437 0.0
C500 C 0.02051 0.74843 0.98662 0.0
C501 C 0.97087 0.72418 1.0089 0.0
C502 C 0.05952 0.76803 1.04155 0.0
C503 C 0.05194 0.76483 0.12302 0.0
H504 H 0.02967 0.75358 0.9255 0.0
H505 H 0.09627 0.78695 1.01944 0.0
S506 S 0.92947 0.69957 0.2144 0.0
N507 N 0.91731 0.69489 0.12054 0.0
N508 N 0.9892 0.73017 0.22187 0.0
C509 C 1.00249 0.73822 0.14608 0.0
C510 C 0.96271 0.71867 0.0901 0.0
C511 C 0.28295 0.05702 0.53299 0.0
C512 C 0.28374 0.05054 0.61446 0.0
C513 C 0.2644 0.01775 0.47889 0.0
C514 C 0.24471 0.9688 0.50197 0.0
H515 H 0.29689 0.09308 0.51022 0.0
H516 H 0.26519 0.02609 0.41779 0.0
S517 S 0.23717 0.93019 0.70787 0.0
N518 N 0.26256 0.98934 0.71402 0.0
N519 N 0.22761 0.91718 0.61451 0.0
C520 C 0.24513 0.96175 0.58317 0.0
C521 C 0.26447 1.00175 0.63822 0.0
C522 C 0.68438 0.6222 0.10094 0.0
C523 C 0.68112 0.62751 1.02073 0.0
C524 C 0.6687 0.6453 0.15217 0.0
C525 C 0.65004 0.67391 0.123 0.0
H526 H 0.70618 0.6075 0.12362 0.0
H527 H 0.67854 0.647 0.2128 0.0
S528 S 0.60946 0.6746 0.92204 0.0
N529 N 0.63871 0.64399 0.91752 0.0
N530 N 0.61071 0.68923 1.0143 0.0
C531 C 0.63493 0.66816 1.04552 0.0
C532 C 0.64996 0.64379 0.99365 0.0
C533 C 0.07502 0.68462 0.60541 0.0
C534 C 0.06665 0.6799 0.52515 0.0
C535 C 0.03573 0.66604 0.65608 0.0
C536 C 0.98831 0.64325 0.62603 0.0
H537 H 0.11074 0.70928 0.62824 0.0
H538 H 0.04268 0.67685 0.71647 0.0
S539 S 0.95066 0.59882 0.42599 0.0
N540 N 1.01034 0.63253 0.42201 0.0
N541 N 0.93587 0.59961 0.51769 0.0
C542 C 0.98062 0.62739 0.54911 0.0
C543 C 0.02063 0.64515 0.49792 0.0
C544 C 0.36142 1.00352 0.98897 0.0
C545 C 0.37668 0.05024 1.01682 0.0
C546 C 0.34345 0.96501 1.04063 0.0
C547 C 0.34143 0.97334 0.12004 0.0
H548 H 0.35574 0.99546 0.92749 0.0
H549 H 0.32414 0.92875 1.01738 0.0
S550 S 0.4041 0.09119 0.22064 0.0
N551 N 0.40829 0.10454 0.12729 0.0
N552 N 0.37584 0.03178 0.22533 0.0
C553 C 0.3696 0.02049 0.14854 0.0
C554 C 0.38702 0.05963 0.09596 0.0
C555 C 0.39371 0.34478 0.53283 0.0
C556 C 0.38308 0.34258 0.61219 0.0
C557 C 0.37647 0.3667 0.48197 0.0
C558 C 0.34725 0.3849 0.51054 0.0
H559 H 0.4084 0.32338 0.50879 0.0
H560 H 0.3785 0.36125 0.4203 0.0
S561 S 0.33419 0.41107 0.71516 0.0
N562 N 0.36178 0.37886 0.71883 0.0
N563 N 0.32687 0.41791 0.62196 0.0
C564 C 0.34834 0.39434 0.58996 0.0
C565 C 0.36704 0.37324 0.64185 0.0
C566 C 0.04005 0.38232 1.06587 0.0
C567 C 0.0322 0.36574 0.14273 0.0
C568 C 1.00063 0.36898 1.01646 0.0
C569 C 0.95354 0.33636 1.04281 0.0
H570 H 0.07624 0.39987 1.04126 0.0
H571 H 1.00804 0.37628 0.95504 0.0
S572 S 0.9146 0.30602 0.24698 0.0
N573 N 0.97448 0.33403 0.24996 0.0
N574 N 0.90026 0.30642 0.15489 0.0
C575 C 0.94525 0.33118 0.12294 0.0
C576 C 0.98522 0.34595 0.17391 0.0
C577 C 0.68289 0.03172 0.56929 0.0
C578 C 0.6943 0.02319 0.64414 0.0
C579 C 0.65379 0.99309 0.52111 0.0
C580 C 0.63794 0.94575 0.54646 0.0
H581 H 0.70069 0.06769 0.54483 0.0
H582 H 0.65121 1.00073 0.46053 0.0
S583 S 0.63649 0.90626 0.74856 0.0
N584 N 0.67088 0.9655 0.75083 0.0
N585 N 0.61793 0.89257 0.65778 0.0
C586 C 0.63891 0.93734 0.62593 0.0
C587 C 0.66766 0.97656 0.67563 0.0
loop_
_geom_bond_atom_site_label_1
_geom_bond_atom_site_label_2
_geom_bond_distance
_geom_bond_site_symmetry_2
_ccdc_geom_bond_type
Cd0 N3 2.334 . S
Cd0 N29 2.304 . S
Cd0 O36 2.268 . S
Cd0 O39 2.273 . S
Cd0 O40 2.417 . S
Cd0 O41 2.330 . S
Cd1 N16 2.304 . S
Cd1 N20 2.334 . S
Cd1 O37 2.273 . S
Cd1 O38 2.268 . S
Cd1 O42 2.417 . S
Cd1 O43 2.330 . S
C2 N3 1.332 . S
C2 C6 1.381 . S
C2 H8 0.931 . S
N3 Cd0 2.334 . S
N3 C2 1.332 . S
N3 C7 1.328 . S
C4 C5 1.396 . S
C4 C7 1.378 . S
C4 H46 0.931 . S
C5 C4 1.396 . S
C5 C6 1.382 . S
C6 C2 1.381 . S
C6 C5 1.382 . S
C6 H47 0.930 1_455 S
C7 N3 1.328 . S
C7 C4 1.378 . S
C7 H9 0.930 . S
H8 C2 0.931 . S
H9 C7 0.930 . S
C10 O36 1.238 . S
C10 O37 1.253 . S
C11 C12 1.379 . S
C11 N16 1.337 . S
C11 H17 0.929 . S
C12 C11 1.379 . S
C12 C13 1.380 . S
C12 H48 0.929 . S
C13 C12 1.380 . S
C13 C14 1.399 . S
C14 C13 1.399 . S
C14 C15 1.376 . S
C14 H49 0.931 . S
C15 C14 1.376 . S
C15 N16 1.338 . S
C15 H18 0.930 . S
N16 Cd1 2.304 . S
N16 C11 1.337 . S
N16 C15 1.338 . S
H17 C11 0.929 . S
H18 C15 0.930 . S
C19 N20 1.332 . S
C19 C23 1.381 . S
C19 H25 0.931 . S
N20 Cd1 2.334 . S
N20 C19 1.332 . S
N20 C24 1.328 . S
C21 C22 1.396 . S
C21 C24 1.378 . S
C21 H50 0.931 . S
C22 C21 1.396 . S
C22 C23 1.382 . S
C23 C19 1.381 . S
C23 C22 1.382 . S
C23 H51 0.930 . S
C24 N20 1.328 . S
C24 C21 1.378 . S
C24 H26 0.930 . S
H25 C19 0.931 . S
H26 C24 0.930 . S
C27 O38 1.238 . S
C27 O39 1.253 . S
C28 O40 1.239 . S
C28 O41 1.230 . S
N29 Cd0 2.304 . S
N29 C30 1.337 . S
N29 C34 1.338 . S
C30 N29 1.337 . S
C30 C31 1.379 . S
C30 H44 0.929 . S
C31 C30 1.379 . S
C31 C32 1.380 . S
C31 H52 0.929 . S
C32 C31 1.380 . S
C32 C33 1.399 . S
C33 C32 1.399 . S
C33 C34 1.376 . S
C33 H53 0.931 . S
C34 N29 1.338 . S
C34 C33 1.376 . S
C34 H45 0.930 . S
C35 O42 1.239 . S
C35 O43 1.230 . S
O36 Cd0 2.268 . S
O36 C10 1.238 . S
O37 Cd1 2.273 . S
O37 C10 1.253 . S
O38 Cd1 2.268 . S
O38 C27 1.238 . S
O39 Cd0 2.273 . S
O39 C27 1.253 . S
O40 Cd0 2.417 . S
O40 C28 1.239 . S
O41 Cd0 2.330 . S
O41 C28 1.230 . S
O42 Cd1 2.417 . S
O42 C35 1.239 . S
O43 Cd1 2.330 . S
O43 C35 1.230 . S
H44 C30 0.929 . S
H45 C34 0.930 . S
H46 C4 0.931 . S
H47 C6 0.930 1_655 S
H48 C12 0.929 . S
H49 C14 0.931 . S
H50 C21 0.931 . S
H51 C23 0.930 . S
H52 C31 0.929 . S
H53 C33 0.931 . S
Cd54 N57 2.334 . S
Cd54 N83 2.304 . S
Cd54 O90 2.268 . S
Cd54 O93 2.273 . S
Cd54 O94 2.417 . S
Cd54 O95 2.330 . S
Cd55 N70 2.304 . S
Cd55 N74 2.334 . S
Cd55 O91 2.273 . S
Cd55 O92 2.268 . S
Cd55 O96 2.417 . S
Cd55 O97 2.330 . S
C56 N57 1.332 . S
C56 C60 1.381 . S
C56 H62 0.931 . S
N57 Cd54 2.334 . S
N57 C56 1.332 . S
N57 C61 1.328 . S
C58 C59 1.396 . S
C58 C61 1.378 . S
C58 H100 0.931 . S
C59 C58 1.396 . S
C59 C60 1.382 . S
C60 C56 1.381 . S
C60 C59 1.382 . S
C60 H101 0.930 1_655 S
C61 N57 1.328 . S
C61 C58 1.378 . S
C61 H63 0.930 . S
H62 C56 0.931 . S
H63 C61 0.930 . S
C64 O90 1.238 . S
C64 O91 1.253 . S
C65 C66 1.379 . S
C65 N70 1.337 . S
C65 H71 0.929 . S
C66 C65 1.379 . S
C66 C67 1.380 . S
C66 H102 0.929 . S
C67 C66 1.380 . S
C67 C68 1.399 . S
C68 C67 1.399 . S
C68 C69 1.376 . S
C68 H103 0.931 . S
C69 C68 1.376 . S
C69 N70 1.338 . S
C69 H72 0.930 . S
N70 Cd55 2.304 . S
N70 C65 1.337 . S
N70 C69 1.338 . S
H71 C65 0.929 . S
H72 C69 0.930 . S
C73 N74 1.332 . S
C73 C77 1.381 . S
C73 H79 0.931 . S
N74 Cd55 2.334 . S
N74 C73 1.332 . S
N74 C78 1.328 . S
C75 C76 1.396 . S
C75 C78 1.378 . S
C75 H104 0.931 . S
C76 C75 1.396 . S
C76 C77 1.382 . S
C77 C73 1.381 . S
C77 C76 1.382 . S
C77 H105 0.930 1_545 S
C78 N74 1.328 . S
C78 C75 1.378 . S
C78 H80 0.930 . S
H79 C73 0.931 . S
H80 C78 0.930 . S
C81 O92 1.238 . S
C81 O93 1.253 . S
C82 O94 1.239 . S
C82 O95 1.230 . S
N83 Cd54 2.304 . S
N83 C84 1.337 . S
N83 C88 1.338 . S
C84 N83 1.337 . S
C84 C85 1.379 . S
C84 H98 0.929 . S
C85 C84 1.379 . S
C85 C86 1.380 . S
C85 H106 0.929 . S
C86 C85 1.380 . S
C86 C87 1.399 . S
C87 C86 1.399 . S
C87 C88 1.376 . S
C87 H107 0.931 . S
C88 N83 1.338 . S
C88 C87 1.376 . S
C88 H99 0.930 . S
C89 O96 1.239 . S
C89 O97 1.230 . S
O90 Cd54 2.268 . S
O90 C64 1.238 . S
O91 Cd55 2.273 . S
O91 C64 1.253 . S
O92 Cd55 2.268 . S
O92 C81 1.238 . S
O93 Cd54 2.273 . S
O93 C81 1.253 . S
O94 Cd54 2.417 . S
O94 C82 1.239 . S
O95 Cd54 2.330 . S
O95 C82 1.230 . S
O96 Cd55 2.417 . S
O96 C89 1.239 . S
O97 Cd55 2.330 . S
O97 C89 1.230 . S
H98 C84 0.929 . S
H99 C88 0.930 . S
H100 C58 0.931 . S
H101 C60 0.930 1_455 S
H102 C66 0.929 . S
H103 C68 0.931 . S
H104 C75 0.931 . S
H105 C77 0.930 1_565 S
H106 C85 0.929 . S
H107 C87 0.931 . S
Cd108 N111 2.334 . S
Cd108 N137 2.304 . S
Cd108 O144 2.268 . S
Cd108 O147 2.273 . S
Cd108 O148 2.417 . S
Cd108 O149 2.330 . S
Cd109 N124 2.304 . S
Cd109 N128 2.334 . S
Cd109 O145 2.273 . S
Cd109 O146 2.268 . S
Cd109 O150 2.417 . S
Cd109 O151 2.330 . S
C110 N111 1.332 . S
C110 C114 1.381 . S
C110 H116 0.931 . S
N111 Cd108 2.334 . S
N111 C110 1.332 . S
N111 C115 1.328 . S
C112 C113 1.396 . S
C112 C115 1.378 . S
C112 H154 0.931 . S
C113 C112 1.396 . S
C113 C114 1.382 . S
C114 C110 1.381 . S
C114 C113 1.382 . S
C114 H155 0.930 . S
C115 N111 1.328 . S
C115 C112 1.378 . S
C115 H117 0.930 . S
H116 C110 0.931 . S
H117 C115 0.930 . S
C118 O144 1.238 . S
C118 O145 1.253 . S
C119 C120 1.379 . S
C119 N124 1.337 . S
C119 H125 0.929 . S
C120 C119 1.379 . S
C120 C121 1.380 . S
C120 H156 0.929 . S
C121 C120 1.380 . S
C121 C122 1.399 . S
C122 C121 1.399 . S
C122 C123 1.376 . S
C122 H157 0.931 . S
C123 C122 1.376 . S
C123 N124 1.338 . S
C123 H126 0.930 . S
N124 Cd109 2.304 . S
N124 C119 1.337 . S
N124 C123 1.338 . S
H125 C119 0.929 . S
H126 C123 0.930 . S
C127 N128 1.332 . S
C127 C131 1.381 . S
C127 H133 0.931 . S
N128 Cd109 2.334 . S
N128 C127 1.332 . S
N128 C132 1.328 . S
C129 C130 1.396 . S
C129 C132 1.378 . S
C129 H158 0.931 . S
C130 C129 1.396 . S
C130 C131 1.382 . S
C131 C127 1.381 . S
C131 C130 1.382 . S
C131 H159 0.930 1_565 S
C132 N128 1.328 . S
C132 C129 1.378 . S
C132 H134 0.930 . S
H133 C127 0.931 . S
H134 C132 0.930 . S
C135 O146 1.238 . S
C135 O147 1.253 . S
C136 O148 1.239 . S
C136 O149 1.230 . S
N137 Cd108 2.304 . S
N137 C138 1.337 . S
N137 C142 1.338 . S
C138 N137 1.337 . S
C138 C139 1.379 . S
C138 H152 0.929 . S
C139 C138 1.379 . S
C139 C140 1.380 . S
C139 H160 0.929 . S
C140 C139 1.380 . S
C140 C141 1.399 . S
C141 C140 1.399 . S
C141 C142 1.376 . S
C141 H161 0.931 . S
C142 N137 1.338 . S
C142 C141 1.376 . S
C142 H153 0.930 . S
C143 O150 1.239 . S
C143 O151 1.230 . S
O144 Cd108 2.268 . S
O144 C118 1.238 . S
O145 Cd109 2.273 . S
O145 C118 1.253 . S
O146 Cd109 2.268 . S
O146 C135 1.238 . S
O147 Cd108 2.273 . S
O147 C135 1.253 . S
O148 Cd108 2.417 . S
O148 C136 1.239 . S
O149 Cd108 2.330 . S
O149 C136 1.230 . S
O150 Cd109 2.417 . S
O150 C143 1.239 . S
O151 Cd109 2.330 . S
O151 C143 1.230 . S
H152 C138 0.929 . S
H153 C142 0.930 . S
H154 C112 0.931 . S
H155 C114 0.930 . S
H156 C120 0.929 . S
H157 C122 0.931 . S
H158 C129 0.931 . S
H159 C131 0.930 1_545 S
H160 C139 0.929 . S
H161 C141 0.931 . S
Cd162 N165 2.334 . S
Cd162 N191 2.304 . S
Cd162 O198 2.268 . S
Cd162 O201 2.273 . S
Cd162 O202 2.417 . S
Cd162 O203 2.330 . S
Cd163 N178 2.304 . S
Cd163 N182 2.334 . S
Cd163 O199 2.273 . S
Cd163 O200 2.268 . S
Cd163 O204 2.417 . S
Cd163 O205 2.330 . S
C164 N165 1.332 . S
C164 C168 1.381 . S
C164 H170 0.931 . S
N165 Cd162 2.334 . S
N165 C164 1.332 . S
N165 C169 1.328 . S
C166 C167 1.396 . S
C166 C169 1.378 . S
C166 H208 0.931 . S
C167 C166 1.396 . S
C167 C168 1.382 . S
C168 C164 1.381 . S
C168 C167 1.382 . S
C168 H209 0.930 . S
C169 N165 1.328 . S
C169 C166 1.378 . S
C169 H171 0.930 . S
H170 C164 0.931 . S
H171 C169 0.930 . S
C172 O198 1.238 . S
C172 O199 1.253 . S
C173 C174 1.379 . S
C173 N178 1.337 . S
C173 H179 0.929 . S
C174 C173 1.379 . S
C174 C175 1.380 . S
C174 H210 0.929 . S
C175 C174 1.380 . S
C175 C176 1.399 . S
C176 C175 1.399 . S
C176 C177 1.376 . S
C176 H211 0.931 . S
C177 C176 1.376 . S
C177 N178 1.338 . S
C177 H180 0.930 . S
N178 Cd163 2.304 . S
N178 C173 1.337 . S
N178 C177 1.338 . S
H179 C173 0.929 . S
H180 C177 0.930 . S
C181 N182 1.332 . S
C181 C185 1.381 . S
C181 H187 0.931 . S
N182 Cd163 2.334 . S
N182 C181 1.332 . S
N182 C186 1.328 . S
C183 C184 1.396 . S
C183 C186 1.378 . S
C183 H212 0.931 . S
C184 C183 1.396 . S
C184 C185 1.382 . S
C185 C181 1.381 . S
C185 C184 1.382 . S
C185 H213 0.930 1_655 S
C186 N182 1.328 . S
C186 C183 1.378 . S
C186 H188 0.930 . S
H187 C181 0.931 . S
H188 C186 0.930 . S
C189 O200 1.238 . S
C189 O201 1.253 . S
C190 O202 1.239 . S
C190 O203 1.230 . S
N191 Cd162 2.304 . S
N191 C192 1.337 . S
N191 C196 1.338 . S
C192 N191 1.337 . S
C192 C193 1.379 . S
C192 H206 0.929 . S
C193 C192 1.379 . S
C193 C194 1.380 . S
C193 H214 0.929 . S
C194 C193 1.380 . S
C194 C195 1.399 . S
C195 C194 1.399 . S
C195 C196 1.376 . S
C195 H215 0.931 . S
C196 N191 1.338 . S
C196 C195 1.376 . S
C196 H207 0.930 . S
C197 O204 1.239 . S
C197 O205 1.230 . S
O198 Cd162 2.268 . S
O198 C172 1.238 . S
O199 Cd163 2.273 . S
O199 C172 1.253 . S
O200 Cd163 2.268 . S
O200 C189 1.238 . S
O201 Cd162 2.273 . S
O201 C189 1.253 . S
O202 Cd162 2.417 . S
O202 C190 1.239 . S
O203 Cd162 2.330 . S
O203 C190 1.230 . S
O204 Cd163 2.417 . S
O204 C197 1.239 . S
O205 Cd163 2.330 . S
O205 C197 1.230 . S
H206 C192 0.929 . S
H207 C196 0.930 . S
H208 C166 0.931 . S
H209 C168 0.930 . S
H210 C174 0.929 . S
H211 C176 0.931 . S
H212 C183 0.931 . S
H213 C185 0.930 1_455 S
H214 C193 0.929 . S
H215 C195 0.931 . S
Cd216 N219 2.334 . S
Cd216 N245 2.304 . S
Cd216 O252 2.268 . S
Cd216 O255 2.273 . S
Cd216 O256 2.417 . S
Cd216 O257 2.330 . S
Cd217 N232 2.304 . S
Cd217 N236 2.334 . S
Cd217 O253 2.273 . S
Cd217 O254 2.268 . S
Cd217 O258 2.417 . S
Cd217 O259 2.330 . S
C218 N219 1.332 . S
C218 C222 1.381 . S
C218 H224 0.931 . S
N219 Cd216 2.334 . S
N219 C218 1.332 . S
N219 C223 1.328 . S
C220 C221 1.396 . S
C220 C223 1.378 . S
C220 H262 0.931 . S
C221 C220 1.396 . S
C221 C222 1.382 . S
C222 C218 1.381 . S
C222 C221 1.382 . S
C222 H263 0.930 1_565 S
C223 N219 1.328 . S
C223 C220 1.378 . S
C223 H225 0.930 . S
H224 C218 0.931 . S
H225 C223 0.930 . S
C226 O252 1.238 . S
C226 O253 1.253 . S
C227 C228 1.379 . S
C227 N232 1.337 . S
C227 H233 0.929 . S
C228 C227 1.379 . S
C228 C229 1.380 . S
C228 H264 0.929 . S
C229 C228 1.380 . S
C229 C230 1.399 . S
C230 C229 1.399 . S
C230 C231 1.376 . S
C230 H265 0.931 . S
C231 C230 1.376 . S
C231 N232 1.338 . S
C231 H234 0.930 . S
N232 Cd217 2.304 . S
N232 C227 1.337 . S
N232 C231 1.338 . S
H233 C227 0.929 . S
H234 C231 0.930 . S
C235 N236 1.332 . S
C235 C239 1.381 . S
C235 H241 0.931 . S
N236 Cd217 2.334 . S
N236 C235 1.332 . S
N236 C240 1.328 . S
C237 C238 1.396 . S
C237 C240 1.378 . S
C237 H266 0.931 . S
C238 C237 1.396 . S
C238 C239 1.382 . S
C239 C235 1.381 . S
C239 C238 1.382 . S
C239 H267 0.930 1_455 S
C240 N236 1.328 . S
C240 C237 1.378 . S
C240 H242 0.930 . S
H241 C235 0.931 . S
H242 C240 0.930 . S
C243 O254 1.238 . S
C243 O255 1.253 . S
C244 O256 1.239 . S
C244 O257 1.230 . S
N245 Cd216 2.304 . S
N245 C246 1.337 . S
N245 C250 1.338 . S
C246 N245 1.337 . S
C246 C247 1.379 . S
C246 H260 0.929 . S
C247 C246 1.379 . S
C247 C248 1.380 . S
C247 H268 0.929 . S
C248 C247 1.380 . S
C248 C249 1.399 . S
C249 C248 1.399 . S
C249 C250 1.376 . S
C249 H269 0.931 . S
C250 N245 1.338 . S
C250 C249 1.376 . S
C250 H261 0.930 . S
C251 O258 1.239 . S
C251 O259 1.230 . S
O252 Cd216 2.268 . S
O252 C226 1.238 . S
O253 Cd217 2.273 . S
O253 C226 1.253 . S
O254 Cd217 2.268 . S
O254 C243 1.238 . S
O255 Cd216 2.273 . S
O255 C243 1.253 . S
O256 Cd216 2.417 . S
O256 C244 1.239 . S
O257 Cd216 2.330 . S
O257 C244 1.230 . S
O258 Cd217 2.417 . S
O258 C251 1.239 . S
O259 Cd217 2.330 . S
O259 C251 1.230 . S
H260 C246 0.929 . S
H261 C250 0.930 . S
H262 C220 0.931 . S
H263 C222 0.930 1_545 S
H264 C228 0.929 . S
H265 C230 0.931 . S
H266 C237 0.931 . S
H267 C239 0.930 1_655 S
H268 C247 0.929 . S
H269 C249 0.931 . S
Cd270 N273 2.334 . S
Cd270 N299 2.304 . S
Cd270 O306 2.268 . S
Cd270 O309 2.273 . S
Cd270 O310 2.417 . S
Cd270 O311 2.330 . S
Cd271 N286 2.304 . S
Cd271 N290 2.334 . S
Cd271 O307 2.273 . S
Cd271 O308 2.268 . S
Cd271 O312 2.417 . S
Cd271 O313 2.330 . S
C272 N273 1.332 . S
C272 C276 1.381 . S
C272 H278 0.931 . S
N273 Cd270 2.334 . S
N273 C272 1.332 . S
N273 C277 1.328 . S
C274 C275 1.396 . S
C274 C277 1.378 . S
C274 H316 0.931 . S
C275 C274 1.396 . S
C275 C276 1.382 . S
C276 C272 1.381 . S
C276 C275 1.382 . S
C276 H317 0.930 1_545 S
C277 N273 1.328 . S
C277 C274 1.378 . S
C277 H279 0.930 . S
H278 C272 0.931 . S
H279 C277 0.930 . S
C280 O306 1.238 . S
C280 O307 1.253 . S
C281 C282 1.379 . S
C281 N286 1.337 . S
C281 H287 0.929 . S
C282 C281 1.379 . S
C282 C283 1.380 . S
C282 H318 0.929 . S
C283 C282 1.380 . S
C283 C284 1.399 . S
C284 C283 1.399 . S
C284 C285 1.376 . S
C284 H319 0.931 . S
C285 C284 1.376 . S
C285 N286 1.338 . S
C285 H288 0.930 . S
N286 Cd271 2.304 . S
N286 C281 1.337 . S
N286 C285 1.338 . S
H287 C281 0.929 . S
H288 C285 0.930 . S
C289 N290 1.332 . S
C289 C293 1.381 . S
C289 H295 0.931 . S
N290 Cd271 2.334 . S
N290 C289 1.332 . S
N290 C294 1.328 . S
C291 C292 1.396 . S
C291 C294 1.378 . S
C291 H320 0.931 . S
C292 C291 1.396 . S
C292 C293 1.382 . S
C293 C289 1.381 . S
C293 C292 1.382 . S
C293 H321 0.930 . S
C294 N290 1.328 . S
C294 C291 1.378 . S
C294 H296 0.930 . S
H295 C289 0.931 . S
H296 C294 0.930 . S
C297 O308 1.238 . S
C297 O309 1.253 . S
C298 O310 1.239 . S
C298 O311 1.230 . S
N299 Cd270 2.304 . S
N299 C300 1.337 . S
N299 C304 1.338 . S
C300 N299 1.337 . S
C300 C301 1.379 . S
C300 H314 0.929 . S
C301 C300 1.379 . S
C301 C302 1.380 . S
C301 H322 0.929 . S
C302 C301 1.380 . S
C302 C303 1.399 . S
C303 C302 1.399 . S
C303 C304 1.376 . S
C303 H323 0.931 . S
C304 N299 1.338 . S
C304 C303 1.376 . S
C304 H315 0.930 . S
C305 O312 1.239 . S
C305 O313 1.230 . S
O306 Cd270 2.268 . S
O306 C280 1.238 . S
O307 Cd271 2.273 . S
O307 C280 1.253 . S
O308 Cd271 2.268 . S
O308 C297 1.238 . S
O309 Cd270 2.273 . S
O309 C297 1.253 . S
O310 Cd270 2.417 . S
O310 C298 1.239 . S
O311 Cd270 2.330 . S
O311 C298 1.230 . S
O312 Cd271 2.417 . S
O312 C305 1.239 . S
O313 Cd271 2.330 . S
O313 C305 1.230 . S
H314 C300 0.929 . S
H315 C304 0.930 . S
H316 C274 0.931 . S
H317 C276 0.930 1_565 S
H318 C282 0.929 . S
H319 C284 0.931 . S
H320 C291 0.931 . S
H321 C293 0.930 . S
H322 C301 0.929 . S
H323 C303 0.931 . S
C324 C325 1.369 . S
C324 C326 1.419 . S
C324 H328 0.930 . S
C325 C324 1.369 . S
C325 C334 1.429 . S
C326 C324 1.419 . S
C326 C327 1.363 . S
C326 H329 0.929 . S
C327 C326 1.363 . S
C327 C333 1.428 . S
H328 C324 0.930 . S
H329 C326 0.929 . S
S330 N331 1.613 . S
S330 N332 1.610 . S
N331 S330 1.613 . S
N331 C334 1.350 . S
N332 S330 1.610 . S
N332 C333 1.351 . S
C333 C327 1.428 . S
C333 N332 1.351 . S
C333 C334 1.434 . S
C334 C325 1.429 . S
C334 N331 1.350 . S
C334 C333 1.434 . S
C335 C336 1.369 . S
C335 C337 1.419 . S
C335 H339 0.930 . S
C336 C335 1.369 . S
C336 C345 1.429 . S
C337 C335 1.419 . S
C337 C338 1.363 . S
C337 H340 0.929 . S
C338 C337 1.363 . S
C338 C344 1.428 . S
H339 C335 0.930 . S
H340 C337 0.929 . S
S341 N342 1.613 . S
S341 N343 1.610 . S
N342 S341 1.613 . S
N342 C345 1.350 . S
N343 S341 1.610 . S
N343 C344 1.351 . S
C344 C338 1.428 . S
C344 N343 1.351 . S
C344 C345 1.434 . S
C345 C336 1.429 . S
C345 N342 1.350 . S
C345 C344 1.434 . S
C346 C347 1.369 . S
C346 C348 1.419 . S
C346 H350 0.930 . S
C347 C346 1.369 . S
C347 C356 1.429 . S
C348 C346 1.419 . S
C348 C349 1.363 . S
C348 H351 0.929 . S
C349 C348 1.363 . S
C349 C355 1.428 . S
H350 C346 0.930 . S
H351 C348 0.929 . S
S352 N353 1.613 . S
S352 N354 1.610 . S
N353 S352 1.613 . S
N353 C356 1.350 . S
N354 S352 1.610 . S
N354 C355 1.351 . S
C355 C349 1.428 . S
C355 N354 1.351 . S
C355 C356 1.434 . S
C356 C347 1.429 . S
C356 N353 1.350 . S
C356 C355 1.434 . S
C357 C358 1.369 . S
C357 C359 1.419 . S
C357 H361 0.930 . S
C358 C357 1.369 . S
C358 C367 1.429 . S
C359 C357 1.419 . S
C359 C360 1.363 . S
C359 H362 0.929 . S
C360 C359 1.363 . S
C360 C366 1.428 . S
H361 C357 0.930 . S
H362 C359 0.929 . S
S363 N364 1.613 . S
S363 N365 1.610 . S
N364 S363 1.613 . S
N364 C367 1.350 . S
N365 S363 1.610 . S
N365 C366 1.351 . S
C366 C360 1.428 . S
C366 N365 1.351 . S
C366 C367 1.434 . S
C367 C358 1.429 . S
C367 N364 1.350 . S
C367 C366 1.434 . S
C368 C369 1.369 . S
C368 C370 1.419 . S
C368 H372 0.930 . S
C369 C368 1.369 . S
C369 C378 1.429 . S
C370 C368 1.419 . S
C370 C371 1.363 . S
C370 H373 0.929 . S
C371 C370 1.363 . S
C371 C377 1.428 . S
H372 C368 0.930 . S
H373 C370 0.929 . S
S374 N375 1.613 . S
S374 N376 1.610 . S
N375 S374 1.613 . S
N375 C378 1.350 . S
N376 S374 1.610 . S
N376 C377 1.351 . S
C377 C371 1.428 . S
C377 N376 1.351 . S
C377 C378 1.434 . S
C378 C369 1.429 . S
C378 N375 1.350 . S
C378 C377 1.434 . S
C379 C380 1.369 . S
C379 C381 1.419 . S
C379 H383 0.930 . S
C380 C379 1.369 . S
C380 C389 1.429 . S
C381 C379 1.419 . S
C381 C382 1.363 . S
C381 H384 0.929 . S
C382 C381 1.363 . S
C382 C388 1.428 . S
H383 C379 0.930 . S
H384 C381 0.929 . S
S385 N386 1.613 . S
S385 N387 1.610 . S
N386 S385 1.613 . S
N386 C389 1.350 . S
N387 S385 1.610 . S
N387 C388 1.351 . S
C388 C382 1.428 . S
C388 N387 1.351 . S
C388 C389 1.434 . S
C389 C380 1.429 . S
C389 N386 1.350 . S
C389 C388 1.434 . S
C390 C391 1.369 . S
C390 C392 1.419 . S
C390 H394 0.930 . S
C391 C390 1.369 . S
C391 C400 1.429 . S
C392 C390 1.419 . S
C392 C393 1.363 . S
C392 H395 0.929 . S
C393 C392 1.363 . S
C393 C399 1.428 . S
H394 C390 0.930 . S
H395 C392 0.929 . S
S396 N397 1.613 1_665 S
S396 N398 1.610 1_655 S
N397 S396 1.613 1_445 S
N397 C400 1.350 . S
N398 S396 1.610 1_455 S
N398 C399 1.351 1_565 S
C399 C393 1.428 . S
C399 N398 1.351 1_545 S
C399 C400 1.434 . S
C400 C391 1.429 . S
C400 N397 1.350 . S
C400 C399 1.434 . S
C401 C402 1.369 . S
C401 C403 1.419 . S
C401 H405 0.930 1_455 S
C402 C401 1.369 . S
C402 C411 1.429 . S
C403 C401 1.419 . S
C403 C404 1.363 . S
C403 H406 0.929 . S
C404 C403 1.363 . S
C404 C410 1.428 . S
H405 C401 0.930 1_655 S
H406 C403 0.929 . S
S407 N408 1.613 . S
S407 N409 1.610 . S
N408 S407 1.613 . S
N408 C411 1.350 . S
N409 S407 1.610 . S
N409 C410 1.351 . S
C410 C404 1.428 . S
C410 N409 1.351 . S
C410 C411 1.434 . S
C411 C402 1.429 . S
C411 N408 1.350 . S
C411 C410 1.434 . S
C412 C413 1.369 . S
C412 C414 1.419 . S
C412 H416 0.930 1_655 S
C413 C412 1.369 . S
C413 C422 1.429 . S
C414 C412 1.419 . S
C414 C415 1.363 . S
C414 H417 0.929 . S
C415 C414 1.363 . S
C415 C421 1.428 . S
H416 C412 0.930 1_455 S
H417 C414 0.929 . S
S418 N419 1.613 . S
S418 N420 1.610 . S
N419 S418 1.613 . S
N419 C422 1.350 . S
N420 S418 1.610 . S
N420 C421 1.351 . S
C421 C415 1.428 . S
C421 N420 1.351 . S
C421 C422 1.434 . S
C422 C413 1.429 . S
C422 N419 1.350 . S
C422 C421 1.434 . S
C423 C424 1.369 . S
C423 C425 1.419 . S
C423 H427 0.930 1_565 S
C424 C423 1.369 . S
C424 C433 1.429 . S
C425 C423 1.419 . S
C425 C426 1.363 . S
C425 H428 0.929 . S
C426 C425 1.363 . S
C426 C432 1.428 . S
H427 C423 0.930 1_545 S
H428 C425 0.929 . S
S429 N430 1.613 . S
S429 N431 1.610 . S
N430 S429 1.613 . S
N430 C433 1.350 . S
N431 S429 1.610 . S
N431 C432 1.351 . S
C432 C426 1.428 . S
C432 N431 1.351 . S
C432 C433 1.434 . S
C433 C424 1.429 . S
C433 N430 1.350 . S
C433 C432 1.434 . S
C434 C435 1.369 . S
C434 C436 1.419 . S
C434 H438 0.930 . S
C435 C434 1.369 . S
C435 C444 1.429 . S
C436 C434 1.419 . S
C436 C437 1.363 . S
C436 H439 0.929 . S
C437 C436 1.363 . S
C437 C443 1.428 . S
H438 C434 0.930 . S
H439 C436 0.929 . S
S440 N441 1.613 . S
S440 N442 1.610 . S
N441 S440 1.613 . S
N441 C444 1.350 . S
N442 S440 1.610 . S
N442 C443 1.351 . S
C443 C437 1.428 . S
C443 N442 1.351 . S
C443 C444 1.434 . S
C444 C435 1.429 . S
C444 N441 1.350 . S
C444 C443 1.434 . S
C445 C446 1.369 . S
C445 C447 1.419 . S
C445 H449 0.930 1_565 S
C446 C445 1.369 . S
C446 C455 1.429 . S
C447 C445 1.419 . S
C447 C448 1.363 . S
C447 H450 0.929 . S
C448 C447 1.363 . S
C448 C454 1.428 . S
H449 C445 0.930 1_545 S
H450 C447 0.929 . S
S451 N452 1.613 . S
S451 N453 1.610 . S
N452 S451 1.613 . S
N452 C455 1.350 . S
N453 S451 1.610 . S
N453 C454 1.351 . S
C454 C448 1.428 . S
C454 N453 1.351 . S
C454 C455 1.434 . S
C455 C446 1.429 . S
C455 N452 1.350 . S
C455 C454 1.434 . S
C456 C457 1.369 . S
C456 C458 1.419 . S
C456 H460 0.930 . S
C457 C456 1.369 . S
C457 C466 1.429 1_554 S
C458 C456 1.419 . S
C458 C459 1.363 1_554 S
C458 H461 0.929 . S
C459 C458 1.363 1_556 S
C459 C465 1.428 . S
H460 C456 0.930 . S
H461 C458 0.929 . S
S462 N463 1.613 . S
S462 N464 1.610 . S
N463 S462 1.613 . S
N463 C466 1.350 . S
N464 S462 1.610 . S
N464 C465 1.351 . S
C465 C459 1.428 . S
C465 N464 1.351 . S
C465 C466 1.434 . S
C466 C457 1.429 1_556 S
C466 N463 1.350 . S
C466 C465 1.434 . S
C467 C468 1.369 . S
C467 C469 1.419 . S
C467 H471 0.930 . S
C468 C467 1.369 . S
C468 C477 1.429 1_655 S
C469 C467 1.419 . S
C469 C470 1.363 1_655 S
C469 H472 0.929 . S
C470 C469 1.363 1_455 S
C470 C476 1.428 . S
H471 C467 0.930 . S
H472 C469 0.929 . S
S473 N474 1.613 . S
S473 N475 1.610 . S
N474 S473 1.613 . S
N474 C477 1.350 . S
N475 S473 1.610 . S
N475 C476 1.351 . S
C476 C470 1.428 . S
C476 N475 1.351 . S
C476 C477 1.434 . S
C477 C468 1.429 1_455 S
C477 N474 1.350 . S
C477 C476 1.434 . S
C478 C479 1.369 . S
C478 C480 1.419 1_564 S
C478 H482 0.930 . S
C479 C478 1.369 . S
C479 C488 1.429 . S
C480 C478 1.419 1_546 S
C480 C481 1.363 . S
C480 H483 0.929 . S
C481 C480 1.363 . S
C481 C487 1.428 . S
H482 C478 0.930 . S
H483 C480 0.929 . S
S484 N485 1.613 1_556 S
S484 N486 1.610 1_565 S
N485 S484 1.613 1_554 S
N485 C488 1.350 . S
N486 S484 1.610 1_545 S
N486 C487 1.351 . S
C487 C481 1.428 . S
C487 N486 1.351 . S
C487 C488 1.434 1_546 S
C488 C479 1.429 . S
C488 N485 1.350 . S
C488 C487 1.434 1_564 S
C489 C490 1.369 . S
C489 C491 1.419 . S
C489 H493 0.930 . S
C490 C489 1.369 . S
C490 C499 1.429 . S
C491 C489 1.419 . S
C491 C492 1.363 . S
C491 H494 0.929 . S
C492 C491 1.363 . S
C492 C498 1.428 . S
H493 C489 0.930 . S
H494 C491 0.929 . S
S495 N496 1.613 . S
S495 N497 1.610 . S
N496 S495 1.613 . S
N496 C499 1.350 . S
N497 S495 1.610 . S
N497 C498 1.351 . S
C498 C492 1.428 . S
C498 N497 1.351 . S
C498 C499 1.434 . S
C499 C490 1.429 . S
C499 N496 1.350 . S
C499 C498 1.434 . S
C500 C501 1.365 1_455 S
C500 C502 1.424 . S
C500 H504 0.928 . S
C501 C500 1.365 1_655 S
C501 C510 1.429 1_556 S
C502 C500 1.424 . S
C502 C503 1.363 1_556 S
C502 H505 0.929 . S
C503 C502 1.363 1_554 S
C503 C509 1.428 1_455 S
H504 C500 0.928 . S
H505 C502 0.929 . S
S506 N507 1.613 . S
S506 N508 1.610 . S
N507 S506 1.613 . S
N507 C510 1.350 . S
N508 S506 1.610 . S
N508 C509 1.351 . S
C509 C503 1.428 1_655 S
C509 N508 1.351 . S
C509 C510 1.434 . S
C510 C501 1.429 1_554 S
C510 N507 1.350 . S
C510 C509 1.434 . S
C511 C512 1.369 . S
C511 C513 1.419 . S
C511 H515 0.930 . S
C512 C511 1.369 . S
C512 C521 1.429 1_545 S
C513 C511 1.419 . S
C513 C514 1.363 1_545 S
C513 H516 0.929 . S
C514 C513 1.363 1_565 S
C514 C520 1.428 . S
H515 C511 0.930 . S
H516 C513 0.929 . S
S517 N518 1.613 . S
S517 N519 1.610 . S
N518 S517 1.613 . S
N518 C521 1.350 . S
N519 S517 1.610 . S
N519 C520 1.351 . S
C520 C514 1.428 . S
C520 N519 1.351 . S
C520 C521 1.434 . S
C521 C512 1.429 1_565 S
C521 N518 1.350 . S
C521 C520 1.434 . S
C522 C523 1.369 . S
C522 C524 1.419 1_556 S
C522 H526 0.930 . S
C523 C522 1.369 . S
C523 C532 1.429 . S
C524 C522 1.419 1_554 S
C524 C525 1.363 . S
C524 H527 0.929 . S
C525 C524 1.363 . S
C525 C531 1.428 . S
H526 C522 0.930 . S
H527 C524 0.929 . S
S528 N529 1.613 . S
S528 N530 1.610 1_556 S
N529 S528 1.613 . S
N529 C532 1.350 . S
N530 S528 1.610 1_554 S
N530 C531 1.351 . S
C531 C525 1.428 . S
C531 N530 1.351 . S
C531 C532 1.434 1_554 S
C532 C523 1.429 . S
C532 N529 1.350 . S
C532 C531 1.434 1_556 S
C533 C534 1.369 . S
C533 C535 1.419 . S
C533 H537 0.930 . S
C534 C533 1.369 . S
C534 C543 1.429 1_455 S
C535 C533 1.419 . S
C535 C536 1.363 1_455 S
C535 H538 0.929 . S
C536 C535 1.363 1_655 S
C536 C542 1.428 . S
H537 C533 0.930 . S
H538 C535 0.929 . S
S539 N540 1.613 . S
S539 N541 1.610 . S
N540 S539 1.613 . S
N540 C543 1.350 . S
N541 S539 1.610 . S
N541 C542 1.351 . S
C542 C536 1.428 . S
C542 N541 1.351 . S
C542 C543 1.434 . S
C543 C534 1.429 1_655 S
C543 N540 1.350 . S
C543 C542 1.434 . S
C544 C545 1.369 1_565 S
C544 C546 1.419 1_556 S
C544 H548 0.930 . S
C545 C544 1.369 1_545 S
C545 C554 1.429 1_556 S
C546 C544 1.419 1_554 S
C546 C547 1.363 . S
C546 H549 0.929 1_554 S
C547 C546 1.363 . S
C547 C553 1.428 1_565 S
H548 C544 0.930 . S
H549 C546 0.929 1_556 S
S550 N551 1.613 . S
S550 N552 1.610 . S
N551 S550 1.613 . S
N551 C554 1.350 . S
N552 S550 1.610 . S
N552 C553 1.351 . S
C553 C547 1.428 1_545 S
C553 N552 1.351 . S
C553 C554 1.434 . S
C554 C545 1.429 1_554 S
C554 N551 1.350 . S
C554 C553 1.434 . S
C555 C556 1.369 . S
C555 C557 1.419 . S
C555 H559 0.930 . S
C556 C555 1.369 . S
C556 C565 1.429 . S
C557 C555 1.419 . S
C557 C558 1.363 . S
C557 H560 0.929 . S
C558 C557 1.363 . S
C558 C564 1.428 . S
H559 C555 0.930 . S
H560 C557 0.929 . S
S561 N562 1.613 . S
S561 N563 1.610 . S
N562 S561 1.613 . S
N562 C565 1.350 . S
N563 S561 1.610 . S
N563 C564 1.351 . S
C564 C558 1.428 . S
C564 N563 1.351 . S
C564 C565 1.434 . S
C565 C556 1.429 . S
C565 N562 1.350 . S
C565 C564 1.434 . S
C566 C567 1.369 1_556 S
C566 C568 1.419 . S
C566 H570 0.930 . S
C567 C566 1.369 1_554 S
C567 C576 1.429 1_455 S
C568 C566 1.419 . S
C568 C569 1.363 1_455 S
C568 H571 0.929 . S
C569 C568 1.363 1_655 S
C569 C575 1.428 1_556 S
H570 C566 0.930 . S
H571 C568 0.929 . S
S572 N573 1.613 . S
S572 N574 1.610 . S
N573 S572 1.613 . S
N573 C576 1.350 . S
N574 S572 1.610 . S
N574 C575 1.351 . S
C575 C569 1.428 1_554 S
C575 N574 1.351 . S
C575 C576 1.434 . S
C576 C567 1.429 1_655 S
C576 N573 1.350 . S
C576 C575 1.434 . S
C577 C578 1.369 . S
C577 C579 1.419 . S
C577 H581 0.930 . S
C578 C577 1.369 . S
C578 C587 1.429 1_545 S
C579 C577 1.419 . S
C579 C580 1.363 1_545 S
C579 H582 0.929 . S
C580 C579 1.363 1_565 S
C580 C586 1.428 . S
H581 C577 0.930 . S
H582 C579 0.929 . S
S583 N584 1.613 . S
S583 N585 1.610 . S
N584 S583 1.613 . S
N584 C587 1.350 . S
N585 S583 1.610 . S
N585 C586 1.351 . S
C586 C580 1.428 . S
C586 N585 1.351 . S
C586 C587 1.434 . S
C587 C578 1.429 1_565 S
C587 N584 1.350 . S
C587 C586 1.434 . S
C325 C32 2.051 . S
C327 C229 2.053 . S
C336 C302 2.049 . S
C338 C67 2.052 . S
C347 C13 2.053 . S
C349 C140 2.053 . S
C358 C86 2.051 . S
C360 C175 2.048 . S
C369 C248 2.050 . S
C371 C121 2.053 . S
C380 C283 2.048 . S
C382 C194 2.051 . S
C391 C22 1.264 . S
C393 C221 1.258 1_545 S
C402 C59 1.257 1_455 S
C404 C292 1.252 . S
C413 C5 1.255 1_655 S
C415 C130 1.252 1_545 S
C424 C76 1.251 1_565 S
C426 C167 1.255 . S
C435 C113 1.255 . S
C437 C238 1.252 1_655 S
C446 C275 1.255 1_565 S
C448 C184 1.252 1_455 S
C457 C10 2.742 . S
C459 C280 2.738 . S
C468 C81 2.737 . S
C470 C27 2.741 . S
C479 C118 2.738 . S
C481 C64 2.739 . S
C490 C189 2.737 . S
C492 C135 2.741 . S
C501 C172 2.742 . S
C503 C226 2.738 . S
C512 C297 2.737 . S
C514 C243 2.741 . S
C523 C190 0.813 . S
C525 C136 0.814 . S
C534 C251 0.816 . S
C536 C197 0.816 . S
C545 C298 0.817 . S
C547 C244 0.818 . S
C556 C305 0.821 . S
C558 C35 0.820 . S
C567 C28 0.816 . S
C569 C82 0.816 . S
C578 C89 0.821 . S
C580 C143 0.820 . S
