# Generated by pormake.
# Topology wix, (3)-cn, num edge types: 1
# Building blocks:
#     Node 0, Type 0, BuildingBlock: OLANEW_clean_sbu_2, # of connection points: 3
#     Node 1, Type 0, BuildingBlock: OLANEW_clean_sbu_2, # of connection points: 3
#     Node 2, Type 0, BuildingBlock: OLANEW_clean_sbu_2, # of connection points: 3
#     Node 3, Type 0, BuildingBlock: OLANEW_clean_sbu_2, # of connection points: 3
#     Node 4, Type 0, BuildingBlock: OLANEW_clean_sbu_2, # of connection points: 3
#     Node 5, Type 0, BuildingBlock: OLANEW_clean_sbu_2, # of connection points: 3
#     Node 6, Type 0, BuildingBlock: OLANEW_clean_sbu_2, # of connection points: 3
#     Node 7, Type 0, BuildingBlock: OLANEW_clean_sbu_2, # of connection points: 3
#     Node 8, Type 0, BuildingBlock: OLANEW_clean_sbu_2, # of connection points: 3
#     Node 9, Type 0, BuildingBlock: OLANEW_clean_sbu_2, # of connection points: 3
#     Node 10, Type 0, BuildingBlock: OLANEW_clean_sbu_2, # of connection points: 3
#     Node 11, Type 0, BuildingBlock: OLANEW_clean_sbu_2, # of connection points: 3
#     Edge 12, Type (0, 0), BuildingBlock: FUNLAD_clean_linker_1, # of connection points: 2
#     Edge 13, Type (0, 0), BuildingBlock: FUNLAD_clean_linker_1, # of connection points: 2
#     Edge 14, Type (0, 0), BuildingBlock: FUNLAD_clean_linker_1, # of connection points: 2
#     Edge 15, Type (0, 0), BuildingBlock: FUNLAD_clean_linker_1, # of connection points: 2
#     Edge 16, Type (0, 0), BuildingBlock: FUNLAD_clean_linker_1, # of connection points: 2
#     Edge 17, Type (0, 0), BuildingBlock: FUNLAD_clean_linker_1, # of connection points: 2
#     Edge 18, Type (0, 0), BuildingBlock: FUNLAD_clean_linker_1, # of connection points: 2
#     Edge 19, Type (0, 0), BuildingBlock: FUNLAD_clean_linker_1, # of connection points: 2
#     Edge 20, Type (0, 0), BuildingBlock: FUNLAD_clean_linker_1, # of connection points: 2
#     Edge 21, Type (0, 0), BuildingBlock: FUNLAD_clean_linker_1, # of connection points: 2
#     Edge 22, Type (0, 0), BuildingBlock: FUNLAD_clean_linker_1, # of connection points: 2
#     Edge 23, Type (0, 0), BuildingBlock: FUNLAD_clean_linker_1, # of connection points: 2
#     Edge 24, Type (0, 0), BuildingBlock: FUNLAD_clean_linker_1, # of connection points: 2
#     Edge 25, Type (0, 0), BuildingBlock: FUNLAD_clean_linker_1, # of connection points: 2
#     Edge 26, Type (0, 0), BuildingBlock: FUNLAD_clean_linker_1, # of connection points: 2
#     Edge 27, Type (0, 0), BuildingBlock: FUNLAD_clean_linker_1, # of connection points: 2
#     Edge 28, Type (0, 0), BuildingBlock: FUNLAD_clean_linker_1, # of connection points: 2
#     Edge 29, Type (0, 0), BuildingBlock: FUNLAD_clean_linker_1, # of connection points: 2
# Relax obj value: 0.008
# Max RMSD: 0.073
# Mean RMSD: 0.073
data_MOF--net-wix--node1-OLANEW_clean_sbu_2--edge1-FUNLAD_clean_linker_1
_symmetry_space_group_name_H-M    P1
_symmetry_Int_Tables_number       1
_symmetry_cell_setting            triclinic
loop_
_symmetry_equiv_pos_as_xyz
'x, y, z'
_cell_length_a     66.842589
_cell_length_b     66.534938
_cell_length_c     35.261117
_cell_angle_alpha  90.019954
_cell_angle_beta   89.871118
_cell_angle_gamma 119.95612
loop_
_atom_site_label
_atom_site_type_symbol
_atom_site_fract_x
_atom_site_fract_y
_atom_site_fract_z
_atom_type_partial_charge
O0 O 0.35485 0.44971 0.12243 0.0
Cd1 Cd 0.34355 0.47857 0.10786 0.0
O2 O 0.36026 0.44277 0.06332 0.0
Cd3 Cd 0.35602 0.47085 0.04019 0.0
O4 O 0.37069 0.50301 0.00751 0.0
C5 C 0.38815 0.52074 0.02126 0.0
O6 O 0.39537 0.51945 0.05528 0.0
C7 C 0.35984 0.43858 0.09857 0.0
C8 C 0.3081 0.47246 0.15667 0.0
O9 O 0.30356 0.46378 0.12321 0.0
O10 O 0.32927 0.48422 0.16682 0.0
O11 O 0.91022 0.34675 0.25548 0.0
Cd12 Cd 0.87219 0.34029 0.23718 0.0
O13 O 0.91843 0.37846 0.28724 0.0
Cd14 Cd 0.88933 0.38041 0.26334 0.0
O15 O 0.87291 0.39157 0.22131 0.0
C16 C 0.87815 0.39074 0.18694 0.0
O17 O 0.89182 0.38239 0.17902 0.0
C18 C 0.92363 0.36327 0.27718 0.0
C19 C 0.83869 0.30584 0.28312 0.0
O20 O 0.84985 0.32699 0.2942 0.0
O21 O 0.84296 0.30096 0.25002 0.0
O22 O 0.58115 0.93096 0.48392 0.0
Cd23 Cd 0.55476 0.89426 0.4526 0.0
O24 O 0.5671 0.95011 0.45352 0.0
Cd25 Cd 0.54119 0.92121 0.42017 0.0
O26 O 0.51427 0.90621 0.37704 0.0
C27 C 0.5165 0.89735 0.34651 0.0
O28 O 0.53512 0.89579 0.34108 0.0
C29 C 0.58121 0.94976 0.47726 0.0
C30 C 0.5449 0.85566 0.49696 0.0
O31 O 0.5627 0.86497 0.47529 0.0
O32 O 0.53177 0.86457 0.49779 0.0
O33 O 0.65033 0.54973 0.63839 0.0
Cd34 Cd 0.65972 0.52069 0.61549 0.0
O35 O 0.62913 0.54612 0.58829 0.0
Cd36 Cd 0.63352 0.51948 0.55951 0.0
O37 O 0.62466 0.49174 0.51832 0.0
C38 C 0.60345 0.4764 0.51616 0.0
O39 O 0.58867 0.4775 0.53951 0.0
C40 C 0.63758 0.55548 0.62012 0.0
C41 C 0.69677 0.52225 0.65428 0.0
O42 O 0.69998 0.53364 0.62344 0.0
O43 O 0.67609 0.51015 0.66691 0.0
O44 O 0.07355 0.69942 0.73448 0.0
Cd45 Cd 0.10926 0.73467 0.71744 0.0
O46 O 0.08851 0.67878 0.71344 0.0
Cd47 Cd 0.08586 0.64547 0.70015 0.0
O48 O 0.08391 0.61436 0.67594 0.0
C49 C 0.06655 0.60068 0.65611 0.0
O50 O 0.04963 0.60509 0.65134 0.0
C51 C 0.07175 0.67975 0.72851 0.0
C52 C 0.13533 0.75612 0.78172 0.0
O53 O 0.12039 0.76121 0.76944 0.0
O54 O 0.13812 0.74101 0.76354 0.0
O55 O 0.42541 0.06641 0.00112 0.0
Cd56 Cd 0.45205 0.10301 0.96975 0.0
O57 O 0.4362 0.04555 0.96735 0.0
Cd58 Cd 0.46157 0.07364 0.93187 0.0
O59 O 0.48589 0.08768 0.88458 0.0
C60 C 0.48004 0.09241 0.853 0.0
O61 O 0.45947 0.09014 0.84939 0.0
C62 C 0.42369 0.04698 -0.00678 0.0
C63 C 0.45127 0.14012 0.00513 0.0
O64 O 0.43694 0.12866 0.97873 0.0
O65 O 0.46611 0.13422 0.01474 0.0
O66 O 0.55432 0.66501 0.67082 0.0
Cd67 Cd 0.53175 0.68187 0.69579 0.0
O68 O 0.55314 0.64813 0.72517 0.0
Cd69 Cd 0.52866 0.65594 0.75331 0.0
O70 O 0.49832 0.6441 0.78974 0.0
C71 C 0.49866 0.63396 0.82002 0.0
O72 O 0.51718 0.63264 0.82795 0.0
C73 C 0.56015 0.65298 0.69106 0.0
C74 C 0.53985 0.7214 0.65582 0.0
O75 O 0.55283 0.72275 0.68349 0.0
O76 O 0.52304 0.70138 0.64684 0.0
O77 O 0.89322 0.55164 0.83633 0.0
Cd78 Cd 0.858 0.51875 0.86158 0.0
O79 O 0.91487 0.53579 0.84621 0.0
Cd80 Cd 0.88905 0.50655 0.87945 0.0
O81 O 0.87898 0.48269 0.92757 0.0
C82 C 0.89533 0.48054 0.9415 0.0
O83 O 0.9159 0.4919 0.9259 0.0
C84 C 0.91246 0.55228 0.83321 0.0
C85 C 0.81955 0.51815 0.82983 0.0
O86 O 0.82759 0.528 0.86179 0.0
O87 O 0.82939 0.50826 0.81312 0.0
O88 O 0.29027 0.87376 0.07891 0.0
Cd89 Cd 0.25808 0.83502 0.09233 0.0
O90 O 0.31422 0.86391 0.10355 0.0
Cd91 Cd 0.34849 0.87139 0.12162 0.0
O92 O 0.37894 0.87697 0.15308 0.0
C93 C 0.38345 0.88842 0.18378 0.0
O94 O 0.37018 0.89672 0.19454 0.0
C95 C 0.31075 0.879 0.08758 0.0
C96 C 0.23594 0.81293 0.02551 0.0
O97 O 0.22973 0.82553 0.04394 0.0
O98 O 0.25247 0.81058 0.03876 0.0
O99 O 0.43793 0.32611 0.16914 0.0
Cd100 Cd 0.46028 0.31195 0.20322 0.0
O101 O 0.4504 0.35711 0.20526 0.0
Cd102 Cd 0.4732 0.35107 0.24188 0.0
O103 O 0.49727 0.36163 0.28943 0.0
C104 C 0.48915 0.36054 0.32248 0.0
O105 O 0.4668 0.35176 0.32678 0.0
C106 C 0.43805 0.34469 0.17789 0.0
C107 C 0.46595 0.28 0.16012 0.0
O108 O 0.44806 0.27348 0.18109 0.0
O109 O 0.48122 0.30158 0.15955 0.0
O110 O 0.09724 0.40889 0.37092 0.0
Cd111 Cd 0.13742 0.42362 0.38935 0.0
O112 O 0.0985 0.43408 0.41215 0.0
Cd113 Cd 0.08356 0.45201 0.44277 0.0
O114 O 0.07443 0.47354 0.47716 0.0
C115 C 0.05425 0.46595 0.49058 0.0
O116 O 0.03809 0.44455 0.48343 0.0
C117 C 0.08731 0.41847 0.38764 0.0
C118 C 0.16787 0.436 0.32832 0.0
O119 O 0.16012 0.41628 0.34469 0.0
O120 O 0.16098 0.4497 0.34029 0.0
O121 O 0.70144 0.13024 0.55574 0.0
Cd122 Cd 0.72618 0.17115 0.57182 0.0
O123 O 0.67414 0.13388 0.58354 0.0
Cd124 Cd 0.6392 0.12117 0.60509 0.0
O125 O 0.60963 0.11493 0.63999 0.0
C126 C 0.60122 0.09812 0.66332 0.0
O127 O 0.60988 0.08425 0.66493 0.0
C128 C 0.68049 0.12129 0.56612 0.0
C129 C 0.75228 0.19833 0.511 0.0
O130 O 0.76081 0.19006 0.53468 0.0
O131 O 0.73137 0.19364 0.5158 0.0
H132 H 0.29424 0.47194 0.21353 0.0
C133 C 0.28963 0.46834 0.18376 0.0
H134 H 0.26293 0.45638 0.14335 0.0
H135 H 0.18053 0.39557 0.25372 0.0
H136 H 0.1781 0.36754 0.2074 0.0
H137 H 0.20822 0.37848 0.15849 0.0
H138 H 0.24074 0.41756 0.15522 0.0
C139 C 0.26761 0.46016 0.17306 0.0
C140 C 0.24887 0.45403 0.20158 0.0
C141 C 0.23014 0.43091 0.2035 0.0
C142 C 0.2131 0.42441 0.23241 0.0
C143 C 0.19426 0.40136 0.23296 0.0
C144 C 0.19259 0.38508 0.20645 0.0
C145 C 0.20952 0.39125 0.17888 0.0
C146 C 0.22811 0.41383 0.1773 0.0
H147 H 0.18714 0.45764 0.27922 0.0
C148 C 0.18463 0.44317 0.2969 0.0
H149 H 0.19518 0.41883 0.30887 0.0
H150 H 0.27902 0.50094 0.20069 0.0
H151 H 0.28292 0.52855 0.2491 0.0
H152 H 0.25708 0.51598 0.30481 0.0
H153 H 0.22669 0.47603 0.31159 0.0
C154 C 0.19772 0.43333 0.29124 0.0
C155 C 0.21513 0.44082 0.26006 0.0
C156 C 0.23394 0.46395 0.25821 0.0
C157 C 0.25011 0.4708 0.22786 0.0
C158 C 0.26727 0.49448 0.22453 0.0
C159 C 0.26956 0.51057 0.25193 0.0
C160 C 0.25492 0.50352 0.28315 0.0
C161 C 0.23734 0.48052 0.28645 0.0
H162 H 0.78514 0.21997 0.48096 0.0
C163 C 0.76666 0.21353 0.47995 0.0
H164 H 0.73935 0.21363 0.45028 0.0
H165 H 0.79874 0.30971 0.3687 0.0
H166 H 0.7723 0.31625 0.40675 0.0
H167 H 0.74619 0.2869 0.45281 0.0
H168 H 0.74614 0.25075 0.46074 0.0
C169 C 0.75777 0.2198 0.45117 0.0
C170 C 0.77294 0.23698 0.42206 0.0
C171 C 0.77296 0.25822 0.41818 0.0
C172 C 0.78845 0.27541 0.39233 0.0
C173 C 0.78771 0.29624 0.38845 0.0
C174 C 0.77256 0.3002 0.41005 0.0
C175 C 0.75784 0.28367 0.43592 0.0
C176 C 0.75797 0.26293 0.44011 0.0
H177 H 0.81001 0.27055 0.29535 0.0
C178 C 0.82166 0.28733 0.3079 0.0
H179 H 0.83269 0.30712 0.3581 0.0
H180 H 0.77394 0.1964 0.41612 0.0
H181 H 0.80173 0.19051 0.3807 0.0
H182 H 0.83211 0.2222 0.34262 0.0
H183 H 0.83435 0.25958 0.33869 0.0
C184 C 0.82114 0.29032 0.34551 0.0
C185 C 0.80427 0.2716 0.37098 0.0
C186 C 0.80427 0.25034 0.37492 0.0
C187 C 0.78791 0.23266 0.39922 0.0
C188 C 0.78692 0.21089 0.39999 0.0
C189 C 0.80263 0.20721 0.37951 0.0
C190 C 0.81964 0.225 0.35791 0.0
C191 C 0.82057 0.24634 0.3556 0.0
H192 H 0.5601 0.75864 0.64186 0.0
C193 C 0.54446 0.74253 0.63503 0.0
H194 H 0.51453 0.72642 0.60104 0.0
H195 H 0.5539 0.84105 0.59173 0.0
H196 H 0.54593 0.83886 0.6591 0.0
H197 H 0.53176 0.80205 0.69395 0.0
H198 H 0.52611 0.76742 0.66177 0.0
C199 C 0.52998 0.74251 0.60863 0.0
C200 C 0.53543 0.76393 0.58702 0.0
C201 C 0.53734 0.78367 0.60587 0.0
C202 C 0.54408 0.8045 0.5853 0.0
C203 C 0.54763 0.82444 0.60545 0.0
C204 C 0.5433 0.82348 0.64425 0.0
C205 C 0.53543 0.8028 0.6639 0.0
C206 C 0.53244 0.78308 0.6451 0.0
H207 H 0.523 0.8268 0.53559 0.0
C208 C 0.53931 0.83509 0.52026 0.0
H209 H 0.56979 0.83439 0.50728 0.0
H210 H 0.53301 0.72919 0.54201 0.0
H211 H 0.53869 0.73067 0.47396 0.0
H212 H 0.54799 0.76597 0.43767 0.0
H213 H 0.55189 0.80009 0.46925 0.0
C214 C 0.55369 0.82653 0.52319 0.0
C215 C 0.54739 0.8051 0.54543 0.0
C216 C 0.54482 0.78514 0.52643 0.0
C217 C 0.53899 0.76461 0.54726 0.0
C218 C 0.53705 0.74513 0.5276 0.0
C219 C 0.54031 0.74574 0.4885 0.0
C220 C 0.54558 0.76563 0.46808 0.0
C221 C 0.54782 0.78513 0.48663 0.0
H222 H 0.73336 0.53206 0.66049 0.0
C223 C 0.71653 0.52301 0.67415 0.0
H224 H 0.69751 0.50346 0.72166 0.0
H225 H 0.76542 0.46813 0.76881 0.0
H226 H 0.73142 0.43241 0.74982 0.0
H227 H 0.6985 0.43303 0.71959 0.0
H228 H 0.69929 0.46936 0.70846 0.0
C229 C 0.71435 0.51299 0.70816 0.0
C230 C 0.7343 0.51287 0.72678 0.0
C231 C 0.73365 0.49147 0.73273 0.0
C232 C 0.75282 0.49113 0.74951 0.0
C233 C 0.75152 0.46946 0.75566 0.0
C234 C 0.73207 0.44879 0.74497 0.0
C235 C 0.71353 0.44914 0.728 0.0
C236 C 0.71421 0.47015 0.72185 0.0
H237 H 0.79086 0.5256 0.82951 0.0
C238 C 0.79967 0.51863 0.81275 0.0
H239 H 0.80123 0.50421 0.76025 0.0
H240 H 0.73989 0.55661 0.72504 0.0
H241 H 0.77456 0.59247 0.7412 0.0
H242 H 0.80927 0.5922 0.76409 0.0
H243 H 0.80928 0.55605 0.77189 0.0
C244 C 0.7928 0.51157 0.77701 0.0
C245 C 0.77274 0.5122 0.75994 0.0
C246 C 0.7735 0.53365 0.75362 0.0
C247 C 0.75398 0.53392 0.73817 0.0
C248 C 0.75461 0.55545 0.73477 0.0
C249 C 0.77435 0.57618 0.74424 0.0
C250 C 0.79385 0.57602 0.7573 0.0
C251 C 0.79354 0.55508 0.76194 0.0
H252 H 0.23015 0.79047 0.97584 0.0
C253 C 0.22457 0.80142 0.98981 0.0
H254 H 0.20273 0.81585 0.98691 0.0
H255 H 0.19189 0.80466 0.80853 0.0
H256 H 0.21864 0.84599 0.81349 0.0
H257 H 0.23587 0.86376 0.87505 0.0
H258 H 0.22656 0.84027 0.93197 0.0
C259 C 0.20789 0.80429 0.97405 0.0
C260 C 0.19734 0.79338 0.93714 0.0
C261 C 0.20258 0.80744 0.90431 0.0
C262 C 0.19234 0.79726 0.86896 0.0
C263 C 0.1986 0.81158 0.83633 0.0
C264 C 0.21409 0.83531 0.83872 0.0
C265 C 0.22381 0.84532 0.87337 0.0
C266 C 0.21826 0.83163 0.90584 0.0
H267 H 0.14525 0.77979 0.83067 0.0
C268 C 0.14865 0.76736 0.81623 0.0
H269 H 0.16744 0.74957 0.81712 0.0
H270 H 0.18291 0.76159 -0.00505 0.0
H271 H 0.15655 0.72021 0.98983 0.0
H272 H 0.13902 0.70249 0.9284 0.0
H273 H 0.14769 0.72609 0.87175 0.0
C274 C 0.16438 0.76251 0.83049 0.0
C275 C 0.17645 0.7731 0.86672 0.0
C276 C 0.17157 0.75897 0.8994 0.0
C277 C 0.18189 0.76914 0.93474 0.0
C278 C 0.17601 0.75474 0.96721 0.0
C279 C 0.16078 0.73095 0.96473 0.0
C280 C 0.1509 0.72098 0.93015 0.0
C281 C 0.15607 0.73474 0.89782 0.0
H282 H 0.43587 0.16204 0.01718 0.0
C283 C 0.45012 0.15924 0.02425 0.0
H284 H 0.47976 0.1699 0.05803 0.0
H285 H 0.45488 0.25606 0.06527 0.0
H286 H 0.46286 0.26056 -0.00219 0.0
H287 H 0.47234 0.23406 0.96349 0.0
H288 H 0.47331 0.20256 -0.00368 0.0
C289 C 0.46577 0.17291 0.05012 0.0
C290 C 0.46319 0.19089 0.07131 0.0
C291 C 0.46396 0.21 0.05205 0.0
C292 C 0.45986 0.22612 0.07227 0.0
C293 C 0.45903 0.244 0.05178 0.0
C294 C 0.4634 0.24669 0.01293 0.0
C295 C 0.46864 0.23171 -0.00641 0.0
C296 C 0.46895 0.21357 0.01275 0.0
H297 H 0.4855 0.26947 0.12239 0.0
C298 C 0.46917 0.26328 0.1372 0.0
H299 H 0.43643 0.23447 0.14933 0.0
H300 H 0.46085 0.15648 0.1171 0.0
H301 H 0.45506 0.15327 0.18515 0.0
H302 H 0.45022 0.18248 0.22076 0.0
H303 H 0.45093 0.21496 0.18845 0.0
C304 C 0.4526 0.24093 0.13395 0.0
C305 C 0.4564 0.22392 0.11214 0.0
C306 C 0.45631 0.2052 0.13154 0.0
C307 C 0.45956 0.18861 0.1111 0.0
C308 C 0.45885 0.16981 0.13118 0.0
C309 C 0.45549 0.16771 0.1703 0.0
C310 C 0.45273 0.18413 0.19033 0.0
C311 C 0.45312 0.20268 0.17137 0.0
H312 H 0.36774 0.42038 0.14308 0.0
C313 C 0.36697 0.42222 0.11256 0.0
H314 H 0.37465 0.41373 0.0588 0.0
H315 H 0.45626 0.40184 0.12385 0.0
H316 H 0.47659 0.43533 0.08269 0.0
H317 H 0.45588 0.45272 0.05132 0.0
H318 H 0.41477 0.43672 0.06074 0.0
C319 C 0.37449 0.41136 0.08931 0.0
C320 C 0.38625 0.39917 0.10491 0.0
C321 C 0.41029 0.40868 0.09874 0.0
C322 C 0.4223 0.39885 0.11718 0.0
C323 C 0.44634 0.40879 0.11084 0.0
C324 C 0.45821 0.42798 0.08722 0.0
C325 C 0.44655 0.43775 0.06953 0.0
C326 C 0.4229 0.42834 0.07517 0.0
H327 H 0.41347 0.34106 0.13272 0.0
C328 C 0.42381 0.35187 0.15612 0.0
H329 H 0.43433 0.38275 0.18708 0.0
H330 H 0.33966 0.37443 0.11758 0.0
H331 H 0.31932 0.34089 0.15875 0.0
H332 H 0.34044 0.32495 0.1931 0.0
H333 H 0.38193 0.34223 0.18614 0.0
C334 C 0.42354 0.37144 0.16449 0.0
C335 C 0.41028 0.37957 0.14171 0.0
C336 C 0.38607 0.36941 0.14655 0.0
C337 C 0.37399 0.37904 0.12769 0.0
C338 C 0.34975 0.36823 0.1322 0.0
C339 C 0.33786 0.3489 0.15554 0.0
C340 C 0.34974 0.33989 0.17482 0.0
C341 C 0.37357 0.34995 0.17051 0.0
H342 H 0.94972 0.35217 0.27925 0.0
C343 C 0.94556 0.36508 0.28942 0.0
H344 H 0.95668 0.39531 0.32258 0.0
H345 H 0.02754 0.37825 0.41719 0.0
H346 H -0.00334 0.36622 0.46326 0.0
H347 H 0.95936 0.36263 0.44531 0.0
H348 H 0.95267 0.37087 0.38102 0.0
C349 C 0.96076 0.38256 0.31135 0.0
C350 C 0.9833 0.38477 0.32192 0.0
C351 C 0.9871 0.38035 0.35976 0.0
C352 C 0.00878 0.38291 0.3703 0.0
C353 C 0.01172 0.3774 0.40792 0.0
C354 C -0.00595 0.37027 0.4346 0.0
C355 C 0.97304 0.36822 0.42448 0.0
C356 C 0.96946 0.37306 0.3875 0.0
H357 H 0.05643 0.42228 0.39138 0.0
C358 C 0.06337 0.41221 0.37845 0.0
H359 H 0.05708 0.38513 0.34049 0.0
H360 H 0.98212 0.39576 0.24729 0.0
H361 H 0.01295 0.40779 0.20122 0.0
H362 H 0.05048 0.41203 0.21937 0.0
H363 H 0.05742 0.40435 0.28373 0.0
C364 C 0.05018 0.39497 0.3544 0.0
C365 C 0.02684 0.3905 0.34315 0.0
C366 C 0.02291 0.39456 0.30513 0.0
C367 C 0.00117 0.39187 0.29455 0.0
C368 C -0.00194 0.39696 0.25674 0.0
C369 C 0.01568 0.40403 0.23 0.0
C370 C 0.03681 0.40644 0.24023 0.0
C371 C 0.04053 0.4019 0.27731 0.0
H372 H 0.61115 0.971 0.51442 0.0
C373 C 0.59833 0.97143 0.49606 0.0
H374 H 0.58661 0.99235 0.47043 0.0
H375 H 0.65224 0.06226 0.60787 0.0
H376 H 0.62437 0.03395 0.65159 0.0
H377 H 0.59277 0.99651 0.6284 0.0
H378 H 0.5891 0.98702 0.56145 0.0
C379 C 0.59891 0.99164 0.48973 0.0
C380 C 0.61781 0.0141 0.50438 0.0
C381 C 0.61928 0.0196 0.54351 0.0
C382 C 0.6369 0.04161 0.55668 0.0
C383 C 0.63864 0.04623 0.59611 0.0
C384 C 0.62286 0.03005 0.62157 0.0
C385 C 0.60511 0.00895 0.60853 0.0
C386 C 0.60326 0.00368 0.57 0.0
H387 H 0.64538 0.09092 0.56245 0.0
C388 C 0.66356 0.09687 0.55758 0.0
H389 H 0.68798 0.08806 0.53766 0.0
H390 H 0.62056 0.00856 0.42792 0.0
H391 H 0.64777 0.03722 0.38395 0.0
H392 H 0.67723 0.07599 0.40628 0.0
H393 H 0.67977 0.08626 0.47268 0.0
C394 C 0.66988 0.08213 0.54326 0.0
C395 C 0.65241 0.0584 0.53046 0.0
C396 C 0.65111 0.05273 0.49142 0.0
C397 C 0.63386 0.03054 0.47843 0.0
C398 C 0.63309 0.02528 0.43931 0.0
C399 C 0.64864 0.04155 0.41373 0.0
C400 C 0.66525 0.06336 0.42631 0.0
C401 C 0.66654 0.069 0.4646 0.0
H402 H 0.57825 0.64653 0.64415 0.0
C403 C 0.57387 0.64344 0.6741 0.0
H404 H 0.57458 0.62593 0.72359 0.0
H405 H 0.57693 0.54446 0.63738 0.0
H406 H 0.53766 0.5251 0.66134 0.0
H407 H 0.52158 0.5474 0.69167 0.0
H408 H 0.54468 0.58914 0.69833 0.0
C409 C 0.5796 0.62981 0.69398 0.0
C410 C 0.58956 0.61674 0.67522 0.0
C411 C 0.57576 0.59232 0.67148 0.0
C412 C 0.58493 0.5795 0.65361 0.0
C413 C 0.57079 0.5551 0.65038 0.0
C414 C 0.54821 0.54375 0.66407 0.0
C415 C 0.53917 0.55629 0.68119 0.0
C416 C 0.55267 0.58028 0.68489 0.0
H417 H 0.63845 0.57927 0.66479 0.0
C418 C 0.63162 0.57214 0.63695 0.0
H419 H 0.60922 0.56974 0.59276 0.0
H420 H 0.62119 0.66306 0.68049 0.0
H421 H 0.66033 0.68247 0.65571 0.0
H422 H 0.67575 0.66038 0.62268 0.0
H423 H 0.65222 0.61869 0.61456 0.0
C424 C 0.61689 0.57746 0.61989 0.0
C425 C 0.60788 0.59109 0.63959 0.0
C426 C 0.62174 0.61549 0.64346 0.0
C427 C 0.61263 0.62831 0.66164 0.0
C428 C 0.62704 0.65256 0.6661 0.0
C429 C 0.64957 0.6639 0.65216 0.0
C430 C 0.65827 0.65145 0.63362 0.0
C431 C 0.6446 0.62753 0.62924 0.0
H432 H 0.92985 0.58712 0.80716 0.0
C433 C 0.93216 0.57269 0.81559 0.0
H434 H 0.95543 0.55987 0.81826 0.0
H435 H 0.0182 0.632 0.68964 0.0
H436 H -0.00212 0.59726 0.6515 0.0
H437 H 0.96596 0.56131 0.67865 0.0
H438 H 0.95405 0.56001 0.74413 0.0
C439 C 0.95284 0.57426 0.81086 0.0
C440 C 0.97279 0.59564 0.79518 0.0
C441 C 0.97994 0.59595 0.75724 0.0
C442 C -0.00122 0.6165 0.74193 0.0
C443 C 0.00469 0.61664 0.70328 0.0
C444 C 0.993 0.59686 0.68091 0.0
C445 C 0.975 0.57663 0.69617 0.0
C446 C 0.96837 0.57611 0.7338 0.0
H447 H 0.0512 0.64209 0.73936 0.0
C448 C 0.05069 0.65816 0.7395 0.0
H449 H 0.03073 0.67396 0.75102 0.0
H450 H 0.96421 0.60036 0.86971 0.0
H451 H 0.98506 0.63473 0.90857 0.0
H452 H 0.01807 0.67024 0.8825 0.0
H453 H 0.03042 0.6716 0.81748 0.0
C454 C 0.03125 0.6579 0.75018 0.0
C455 C 0.01093 0.63646 0.76513 0.0
C456 C 0.00379 0.63607 0.8032 0.0
C457 C 0.98474 0.61562 0.81825 0.0
C458 C 0.97833 0.61553 0.85661 0.0
C459 C 0.99022 0.63511 0.87933 0.0
C460 C 0.00881 0.6551 0.86466 0.0
C461 C 0.01565 0.65565 0.82716 0.0
H462 H 0.39487 0.0274 0.03335 0.0
C463 C 0.40635 0.02588 0.01314 0.0
H464 H 0.41466 0.00309 0.98454 0.0
H465 H 0.34935 0.93769 0.12766 0.0
H466 H 0.38057 0.96404 0.16865 0.0
H467 H 0.41417 -0.00088 0.14269 0.0
H468 H 0.41653 0.00824 0.07566 0.0
C469 C 0.40378 0.0049 0.00562 0.0
C470 C 0.38422 0.98328 0.02152 0.0
C471 C 0.38348 0.97785 0.06057 0.0
C472 C 0.36457 0.9571 0.07526 0.0
C473 C 0.36371 0.95269 0.11469 0.0
C474 C 0.38146 0.96777 0.13862 0.0
C475 C 0.40033 0.98756 0.12402 0.0
C476 C 0.40142 0.99264 0.0855 0.0
H477 H 0.3478 0.90492 0.08145 0.0
C478 C 0.33041 0.90211 0.07834 0.0
H479 H 0.30995 0.91641 0.0611 0.0
H480 H 0.38014 0.98876 0.94542 0.0
H481 H 0.34967 0.96177 0.90395 0.0
H482 H 0.31777 0.925 0.92879 0.0
H483 H 0.31606 0.91508 -0.00476 0.0
C484 C 0.32731 0.91928 0.06502 0.0
C485 C 0.34692 0.94141 0.05053 0.0
C486 C 0.34777 0.94682 0.01144 0.0
C487 C 0.36638 0.9678 -0.00303 0.0
C488 C 0.3666 0.97291 0.95789 0.0
C489 C 0.34918 0.95759 0.93373 0.0
C490 C 0.33121 0.93691 0.94772 0.0
C491 C 0.33043 0.93148 0.98603 0.0
H492 H 0.41903 0.55439 0.00916 0.0
C493 C 0.40265 0.54117 -0.00255 0.0
H494 H 0.3818 0.52907 0.94858 0.0
H495 H 0.46897 0.63724 0.9116 0.0
H496 H 0.45089 0.65033 0.95767 0.0
H497 H 0.41619 0.62218 -0.00699 0.0
H498 H 0.3995 0.58074 0.98281 0.0
C499 C 0.39776 0.54259 0.96095 0.0
C500 C 0.41591 0.55982 0.93518 0.0
C501 C 0.42496 0.58397 0.94056 0.0
C502 C 0.4446 0.60022 0.91943 0.0
C503 C 0.45385 0.62419 0.92642 0.0
C504 C 0.44366 0.63192 0.9528 0.0
C505 C 0.42414 0.61607 0.97277 0.0
C506 C 0.41482 0.59235 0.96682 0.0
H507 H 0.46206 0.62154 0.83456 0.0
C508 C 0.4776 0.6215 0.84344 0.0
H509 H 0.49206 0.60777 0.88146 0.0
H510 H 0.40163 0.51472 0.91533 0.0
H511 H 0.41843 0.50185 0.86693 0.0
H512 H 0.45184 0.53009 0.82921 0.0
H513 H 0.46868 0.57142 0.83988 0.0
C514 C 0.47684 0.60866 0.87337 0.0
C515 C 0.45477 0.59224 0.89243 0.0
C516 C 0.44481 0.56816 0.88533 0.0
C517 C 0.42536 0.55191 0.90671 0.0
C518 C 0.41621 0.52791 0.89969 0.0
C519 C 0.42572 0.52024 0.87198 0.0
C520 C 0.44454 0.53614 0.85078 0.0
C521 C 0.45407 0.55982 0.85727 0.0
H522 H 0.90716 0.46593 0.9861 0.0
C523 C 0.89215 0.46647 0.97561 0.0
H524 H 0.85664 0.45473 0.98432 0.0
H525 H 0.84823 0.36958 0.08185 0.0
H526 H 0.82467 0.34956 0.02708 0.0
H527 H 0.82188 0.37152 0.97295 0.0
H528 H 0.84255 0.41366 0.9733 0.0
C529 C 0.87208 0.45501 -0.00537 0.0
C530 C 0.87068 0.44179 0.02958 0.0
C531 C 0.85826 0.41723 0.02911 0.0
C532 C 0.86005 0.40458 0.06016 0.0
C533 C 0.84767 0.38003 0.05881 0.0
C534 C 0.83404 0.36833 0.02762 0.0
C535 C 0.83246 0.3807 -0.00285 0.0
C536 C 0.84442 0.40487 -0.00231 0.0
H537 H 0.86078 0.40924 0.16494 0.0
C538 C 0.87108 0.40141 0.15702 0.0
H539 H 0.8886 0.39513 0.11274 0.0
H540 H 0.89244 0.48849 0.04284 0.0
H541 H 0.91603 0.5087 0.09743 0.0
H542 H 0.92149 0.48706 0.14933 0.0
H543 H 0.90312 0.4452 0.14738 0.0
C544 C 0.87868 0.40329 0.12116 0.0
C545 C 0.87423 0.41652 0.0916 0.0
C546 C 0.88568 0.44112 0.09295 0.0
C547 C 0.88343 0.45371 0.06226 0.0
C548 C 0.89431 0.47818 0.06478 0.0
C549 C 0.90778 0.48998 0.09604 0.0
C550 C 0.91078 0.47779 0.1253 0.0
C551 C 0.89998 0.45368 0.12389 0.0
H552 H 0.50185 0.88327 0.29004 0.0
C553 C 0.49935 0.8907 0.31584 0.0
H554 H 0.47975 0.90345 0.34307 0.0
H555 H 0.44626 0.9269 0.19134 0.0
H556 H 0.47776 0.96509 0.20772 0.0
H557 H 0.50443 0.97011 0.25985 0.0
H558 H 0.49988 0.93694 0.29564 0.0
C559 C 0.4818 0.89504 0.31813 0.0
C560 C 0.46654 0.89157 0.28524 0.0
C561 C 0.46922 0.91118 0.26503 0.0
C562 C 0.45358 0.90836 0.23552 0.0
C563 C 0.45717 0.92815 0.21488 0.0
C564 C 0.47531 0.95016 0.22377 0.0
C565 C 0.49034 0.95298 0.25308 0.0
C566 C 0.48747 0.93378 0.27348 0.0
H567 H 0.40551 0.90163 0.23431 0.0
C568 C 0.40278 0.89191 0.20819 0.0
H569 H 0.41368 0.87279 0.17462 0.0
H570 H 0.45718 0.85029 0.31734 0.0
H571 H 0.42629 0.81201 0.29982 0.0
H572 H 0.39903 0.8071 0.24877 0.0
H573 H 0.40247 0.84042 0.21496 0.0
C574 C 0.41661 0.88321 0.19994 0.0
C575 C 0.4349 0.88597 0.22699 0.0
C576 C 0.43293 0.86624 0.24587 0.0
C577 C 0.44872 0.86905 0.27519 0.0
C578 C 0.44587 0.84913 0.29451 0.0
C579 C 0.42816 0.82705 0.28483 0.0
C580 C 0.4128 0.82429 0.2561 0.0
C581 C 0.415 0.84358 0.23688 0.0
H582 H 0.60791 0.45973 0.46504 0.0
C583 C 0.59532 0.45923 0.48516 0.0
H584 H 0.56 0.44345 0.49989 0.0
H585 H 0.54586 0.42267 0.31763 0.0
H586 H 0.56433 0.46434 0.31015 0.0
H587 H 0.58245 0.49042 0.36466 0.0
H588 H 0.58232 0.475 0.4268 0.0
C589 C 0.57273 0.44442 0.47961 0.0
C590 C 0.564 0.42905 0.44582 0.0
C591 C 0.5643 0.43846 0.40954 0.0
C592 C 0.55352 0.4234 0.37821 0.0
C593 C 0.55377 0.43323 0.34243 0.0
C594 C 0.56429 0.45716 0.33772 0.0
C595 C 0.57451 0.47184 0.36838 0.0
C596 C 0.57444 0.46271 0.40395 0.0
H597 H 0.49647 0.37194 0.38189 0.0
C598 C 0.50449 0.37175 0.35512 0.0
H599 H 0.53587 0.38421 0.32515 0.0
H600 H 0.56184 0.40558 0.51073 0.0
H601 H 0.54406 0.36381 0.51784 0.0
H602 H 0.52577 0.33776 0.46329 0.0
H603 H 0.52502 0.35333 0.40134 0.0
C604 C 0.52763 0.38352 0.35209 0.0
C605 C 0.54202 0.399 0.38341 0.0
C606 C 0.54276 0.38967 0.41918 0.0
C607 C 0.5536 0.40471 0.45048 0.0
C608 C 0.55378 0.39492 0.48604 0.0
C609 C 0.54371 0.37099 0.49047 0.0
C610 C 0.53339 0.35633 0.45977 0.0
C611 C 0.53293 0.36546 0.42445 0.0
H612 H 0.08125 0.57859 0.6407 0.0
C613 C 0.06648 0.58103 0.63667 0.0
H614 H 0.03511 0.56977 0.60737 0.0
H615 H 0.06582 0.52946 0.4706 0.0
H616 H 0.06604 0.5625 0.4411 0.0
H617 H 0.05979 0.58999 0.47923 0.0
H618 H 0.05318 0.58455 0.54703 0.0
C619 C 0.04955 0.56701 0.61287 0.0
C620 C 0.05168 0.54943 0.5898 0.0
C621 C 0.05541 0.55283 0.55015 0.0
C622 C 0.05929 0.53715 0.52824 0.0
C623 C 0.06302 0.54097 0.48868 0.0
C624 C 0.06315 0.55985 0.47136 0.0
C625 C 0.05961 0.5753 0.49282 0.0
C626 C 0.0558 0.57195 0.53174 0.0
H627 H 0.03137 0.47388 0.52504 0.0
C628 C 0.04888 0.48092 0.51435 0.0
H629 H 0.08238 0.51023 0.51167 0.0
H630 H 0.04192 0.53617 0.66413 0.0
H631 H 0.04223 0.50344 0.69387 0.0
H632 H 0.05105 0.47743 0.65656 0.0
H633 H 0.05927 0.48377 0.58925 0.0
C634 C 0.06499 0.50275 0.52311 0.0
C635 C 0.0594 0.5181 0.54598 0.0
C636 C 0.05518 0.5144 0.58552 0.0
C637 C 0.05094 0.52989 0.60733 0.0
C638 C 0.04598 0.52538 0.64649 0.0
C639 C 0.04598 0.50658 0.66388 0.0
C640 C 0.05088 0.4919 0.64285 0.0
C641 C 0.05547 0.49569 0.60415 0.0
H642 H 0.57695 0.08065 0.71046 0.0
C643 C 0.58299 0.0949 0.69035 0.0
H644 H 0.58105 0.12431 0.67317 0.0
H645 H 0.48842 0.05986 0.78333 0.0
H646 H 0.47537 0.03168 0.73245 0.0
H647 H 0.49961 0.03819 0.67583 0.0
H648 H 0.53729 0.07277 0.67018 0.0
C649 C 0.57457 0.10948 0.69215 0.0
C650 C 0.55829 0.1073 0.72291 0.0
C651 C 0.53588 0.08752 0.72497 0.0
C652 C 0.52149 0.08429 0.75684 0.0
C653 C 0.49977 0.06367 0.75921 0.0
C654 C 0.49208 0.04726 0.73025 0.0
C655 C 0.50577 0.05088 0.69844 0.0
C656 C 0.52742 0.07073 0.69567 0.0
H657 H 0.48942 0.10184 0.79289 0.0
C658 C 0.4952 0.09822 0.81948 0.0
H659 H 0.52114 0.09431 0.84687 0.0
H660 H 0.59964 0.14802 0.72641 0.0
H661 H 0.61183 0.17729 0.77553 0.0
H662 H 0.5863 0.17233 0.82965 0.0
H663 H 0.54843 0.13796 0.83505 0.0
C664 C 0.51493 0.09752 0.82039 0.0
C665 C 0.52918 0.10137 0.78579 0.0
C666 C 0.55111 0.12168 0.78275 0.0
C667 C 0.5657 0.12466 0.7513 0.0
C668 C 0.58773 0.14493 0.74945 0.0
C669 C 0.59497 0.16188 0.77749 0.0
C670 C 0.58061 0.15908 0.80798 0.0
C671 C 0.55893 0.13925 0.81076 0.0
loop_
_geom_bond_atom_site_label_1
_geom_bond_atom_site_label_2
_geom_bond_distance
_geom_bond_site_symmetry_2
_ccdc_geom_bond_type
O0 Cd1 2.300 . S
O0 C7 1.275 . S
Cd1 O0 2.300 . S
Cd1 O9 2.381 . S
Cd1 O10 2.378 . S
O2 Cd3 2.385 . S
O2 C7 1.255 . S
Cd3 O2 2.385 . S
Cd3 O4 2.317 . S
O4 Cd3 2.317 . S
O4 C5 1.232 . S
C5 O4 1.232 . S
C5 O6 1.218 . S
O6 C5 1.218 . S
C7 O0 1.275 . S
C7 O2 1.255 . S
C8 O9 1.258 . S
C8 O10 1.256 . S
O9 Cd1 2.381 . S
O9 C8 1.258 . S
O10 Cd1 2.378 . S
O10 C8 1.256 . S
O11 Cd12 2.300 . S
O11 C18 1.275 . S
Cd12 O11 2.300 . S
Cd12 O20 2.381 . S
Cd12 O21 2.378 . S
O13 Cd14 2.385 . S
O13 C18 1.255 . S
Cd14 O13 2.385 . S
Cd14 O15 2.317 . S
O15 Cd14 2.317 . S
O15 C16 1.232 . S
C16 O15 1.232 . S
C16 O17 1.218 . S
O17 C16 1.218 . S
C18 O11 1.275 . S
C18 O13 1.255 . S
C19 O20 1.258 . S
C19 O21 1.256 . S
O20 Cd12 2.381 . S
O20 C19 1.258 . S
O21 Cd12 2.378 . S
O21 C19 1.256 . S
O22 Cd23 2.300 . S
O22 C29 1.275 . S
Cd23 O22 2.300 . S
Cd23 O31 2.381 . S
Cd23 O32 2.378 . S
O24 Cd25 2.385 . S
O24 C29 1.255 . S
Cd25 O24 2.385 . S
Cd25 O26 2.317 . S
O26 Cd25 2.317 . S
O26 C27 1.232 . S
C27 O26 1.232 . S
C27 O28 1.218 . S
O28 C27 1.218 . S
C29 O22 1.275 . S
C29 O24 1.255 . S
C30 O31 1.258 . S
C30 O32 1.256 . S
O31 Cd23 2.381 . S
O31 C30 1.258 . S
O32 Cd23 2.378 . S
O32 C30 1.256 . S
O33 Cd34 2.300 . S
O33 C40 1.275 . S
Cd34 O33 2.300 . S
Cd34 O42 2.381 . S
Cd34 O43 2.378 . S
O35 Cd36 2.385 . S
O35 C40 1.255 . S
Cd36 O35 2.385 . S
Cd36 O37 2.317 . S
O37 Cd36 2.317 . S
O37 C38 1.232 . S
C38 O37 1.232 . S
C38 O39 1.218 . S
O39 C38 1.218 . S
C40 O33 1.275 . S
C40 O35 1.255 . S
C41 O42 1.258 . S
C41 O43 1.256 . S
O42 Cd34 2.381 . S
O42 C41 1.258 . S
O43 Cd34 2.378 . S
O43 C41 1.256 . S
O44 Cd45 2.300 . S
O44 C51 1.275 . S
Cd45 O44 2.300 . S
Cd45 O53 2.381 . S
Cd45 O54 2.378 . S
O46 Cd47 2.385 . S
O46 C51 1.255 . S
Cd47 O46 2.385 . S
Cd47 O48 2.317 . S
O48 Cd47 2.317 . S
O48 C49 1.232 . S
C49 O48 1.232 . S
C49 O50 1.218 . S
O50 C49 1.218 . S
C51 O44 1.275 . S
C51 O46 1.255 . S
C52 O53 1.258 . S
C52 O54 1.256 . S
O53 Cd45 2.381 . S
O53 C52 1.258 . S
O54 Cd45 2.378 . S
O54 C52 1.256 . S
O55 Cd56 2.300 . S
O55 C62 1.275 . S
Cd56 O55 2.300 . S
Cd56 O64 2.381 . S
Cd56 O65 2.378 . S
O57 Cd58 2.385 . S
O57 C62 1.255 . S
Cd58 O57 2.385 . S
Cd58 O59 2.317 . S
O59 Cd58 2.317 . S
O59 C60 1.232 . S
C60 O59 1.232 . S
C60 O61 1.218 . S
O61 C60 1.218 . S
C62 O55 1.275 . S
C62 O57 1.255 . S
C63 O64 1.252 1_554 S
C63 O65 1.253 1_554 S
O64 Cd56 2.381 . S
O64 C63 1.252 1_556 S
O65 Cd56 2.378 . S
O65 C63 1.253 1_556 S
O66 Cd67 2.300 . S
O66 C73 1.275 . S
Cd67 O66 2.300 . S
Cd67 O75 2.381 . S
Cd67 O76 2.378 . S
O68 Cd69 2.385 . S
O68 C73 1.255 . S
Cd69 O68 2.385 . S
Cd69 O70 2.317 . S
O70 Cd69 2.317 . S
O70 C71 1.232 . S
C71 O70 1.232 . S
C71 O72 1.218 . S
O72 C71 1.218 . S
C73 O66 1.275 . S
C73 O68 1.255 . S
C74 O75 1.258 . S
C74 O76 1.256 . S
O75 Cd67 2.381 . S
O75 C74 1.258 . S
O76 Cd67 2.378 . S
O76 C74 1.256 . S
O77 Cd78 2.300 . S
O77 C84 1.275 . S
Cd78 O77 2.300 . S
Cd78 O86 2.381 . S
Cd78 O87 2.378 . S
O79 Cd80 2.385 . S
O79 C84 1.255 . S
Cd80 O79 2.385 . S
Cd80 O81 2.317 . S
O81 Cd80 2.317 . S
O81 C82 1.232 . S
C82 O81 1.232 . S
C82 O83 1.218 . S
O83 C82 1.218 . S
C84 O77 1.275 . S
C84 O79 1.255 . S
C85 O86 1.258 . S
C85 O87 1.256 . S
O86 Cd78 2.381 . S
O86 C85 1.258 . S
O87 Cd78 2.378 . S
O87 C85 1.256 . S
O88 Cd89 2.300 . S
O88 C95 1.275 . S
Cd89 O88 2.300 . S
Cd89 O97 2.381 . S
Cd89 O98 2.378 . S
O90 Cd91 2.385 . S
O90 C95 1.255 . S
Cd91 O90 2.385 . S
Cd91 O92 2.317 . S
O92 Cd91 2.317 . S
O92 C93 1.232 . S
C93 O92 1.232 . S
C93 O94 1.218 . S
O94 C93 1.218 . S
C95 O88 1.275 . S
C95 O90 1.255 . S
C96 O97 1.253 1_556 S
C96 O98 1.253 1_556 S
O97 Cd89 2.381 . S
O97 C96 1.253 1_554 S
O98 Cd89 2.378 . S
O98 C96 1.253 1_554 S
O99 Cd100 2.300 . S
O99 C106 1.275 . S
Cd100 O99 2.300 . S
Cd100 O108 2.381 . S
Cd100 O109 2.378 . S
O101 Cd102 2.385 . S
O101 C106 1.255 . S
Cd102 O101 2.385 . S
Cd102 O103 2.317 . S
O103 Cd102 2.317 . S
O103 C104 1.232 . S
C104 O103 1.232 . S
C104 O105 1.218 . S
O105 C104 1.218 . S
C106 O99 1.275 . S
C106 O101 1.255 . S
C107 O108 1.258 . S
C107 O109 1.256 . S
O108 Cd100 2.381 . S
O108 C107 1.258 . S
O109 Cd100 2.378 . S
O109 C107 1.256 . S
O110 Cd111 2.300 . S
O110 C117 1.275 . S
Cd111 O110 2.300 . S
Cd111 O119 2.381 . S
Cd111 O120 2.378 . S
O112 Cd113 2.385 . S
O112 C117 1.255 . S
Cd113 O112 2.385 . S
Cd113 O114 2.317 . S
O114 Cd113 2.317 . S
O114 C115 1.232 . S
C115 O114 1.232 . S
C115 O116 1.218 . S
O116 C115 1.218 . S
C117 O110 1.275 . S
C117 O112 1.255 . S
C118 O119 1.258 . S
C118 O120 1.256 . S
O119 Cd111 2.381 . S
O119 C118 1.258 . S
O120 Cd111 2.378 . S
O120 C118 1.256 . S
O121 Cd122 2.300 . S
O121 C128 1.275 . S
Cd122 O121 2.300 . S
Cd122 O130 2.381 . S
Cd122 O131 2.378 . S
O123 Cd124 2.385 . S
O123 C128 1.255 . S
Cd124 O123 2.385 . S
Cd124 O125 2.317 . S
O125 Cd124 2.317 . S
O125 C126 1.232 . S
C126 O125 1.232 . S
C126 O127 1.218 . S
O127 C126 1.218 . S
C128 O121 1.275 . S
C128 O123 1.255 . S
C129 O130 1.258 . S
C129 O131 1.256 . S
O130 Cd122 2.381 . S
O130 C129 1.258 . S
O131 Cd122 2.378 . S
O131 C129 1.256 . S
H132 C133 0.951 . S
C133 H132 0.951 . S
C133 C139 1.265 . S
H134 C139 0.950 . S
H135 C143 0.949 . S
H136 C144 0.950 . S
H137 C145 0.951 . S
H138 C146 0.951 . S
C139 C133 1.265 . S
C139 H134 0.950 . S
C139 C140 1.478 . S
C140 C139 1.478 . S
C140 C141 1.397 . S
C140 C157 1.394 . S
C141 C140 1.397 . S
C141 C142 1.438 . S
C141 C146 1.429 . S
C142 C141 1.438 . S
C142 C143 1.428 . S
C142 C155 1.394 . S
C143 H135 0.949 . S
C143 C142 1.428 . S
C143 C144 1.345 . S
C144 H136 0.950 . S
C144 C143 1.345 . S
C144 C145 1.424 . S
C145 H137 0.951 . S
C145 C144 1.424 . S
C145 C146 1.347 . S
C146 H138 0.951 . S
C146 C141 1.429 . S
C146 C145 1.347 . S
H147 C148 0.951 . S
C148 H147 0.951 . S
C148 C154 1.265 . S
H149 C154 0.950 . S
H150 C158 0.949 . S
H151 C159 0.950 . S
H152 C160 0.951 . S
H153 C161 0.951 . S
C154 C148 1.265 . S
C154 H149 0.950 . S
C154 C155 1.478 . S
C155 C142 1.394 . S
C155 C154 1.478 . S
C155 C156 1.397 . S
C156 C155 1.397 . S
C156 C157 1.438 . S
C156 C161 1.429 . S
C157 C140 1.394 . S
C157 C156 1.438 . S
C157 C158 1.428 . S
C158 H150 0.949 . S
C158 C157 1.428 . S
C158 C159 1.345 . S
C159 H151 0.950 . S
C159 C158 1.345 . S
C159 C160 1.424 . S
C160 H152 0.951 . S
C160 C159 1.424 . S
C160 C161 1.347 . S
C161 H153 0.951 . S
C161 C156 1.429 . S
C161 C160 1.347 . S
H162 C163 0.951 . S
C163 H162 0.951 . S
C163 C169 1.265 . S
H164 C169 0.950 . S
H165 C173 0.949 . S
H166 C174 0.950 . S
H167 C175 0.951 . S
H168 C176 0.951 . S
C169 C163 1.265 . S
C169 H164 0.950 . S
C169 C170 1.478 . S
C170 C169 1.478 . S
C170 C171 1.397 . S
C170 C187 1.394 . S
C171 C170 1.397 . S
C171 C172 1.438 . S
C171 C176 1.429 . S
C172 C171 1.438 . S
C172 C173 1.428 . S
C172 C185 1.394 . S
C173 H165 0.949 . S
C173 C172 1.428 . S
C173 C174 1.345 . S
C174 H166 0.950 . S
C174 C173 1.345 . S
C174 C175 1.424 . S
C175 H167 0.951 . S
C175 C174 1.424 . S
C175 C176 1.347 . S
C176 H168 0.951 . S
C176 C171 1.429 . S
C176 C175 1.347 . S
H177 C178 0.951 . S
C178 H177 0.951 . S
C178 C184 1.265 . S
H179 C184 0.950 . S
H180 C188 0.949 . S
H181 C189 0.950 . S
H182 C190 0.951 . S
H183 C191 0.951 . S
C184 C178 1.265 . S
C184 H179 0.950 . S
C184 C185 1.478 . S
C185 C172 1.394 . S
C185 C184 1.478 . S
C185 C186 1.397 . S
C186 C185 1.397 . S
C186 C187 1.438 . S
C186 C191 1.429 . S
C187 C170 1.394 . S
C187 C186 1.438 . S
C187 C188 1.428 . S
C188 H180 0.949 . S
C188 C187 1.428 . S
C188 C189 1.345 . S
C189 H181 0.950 . S
C189 C188 1.345 . S
C189 C190 1.424 . S
C190 H182 0.951 . S
C190 C189 1.424 . S
C190 C191 1.347 . S
C191 H183 0.951 . S
C191 C186 1.429 . S
C191 C190 1.347 . S
H192 C193 0.951 . S
C193 H192 0.951 . S
C193 C199 1.265 . S
H194 C199 0.950 . S
H195 C203 0.949 . S
H196 C204 0.950 . S
H197 C205 0.951 . S
H198 C206 0.951 . S
C199 C193 1.265 . S
C199 H194 0.950 . S
C199 C200 1.478 . S
C200 C199 1.478 . S
C200 C201 1.397 . S
C200 C217 1.394 . S
C201 C200 1.397 . S
C201 C202 1.438 . S
C201 C206 1.429 . S
C202 C201 1.438 . S
C202 C203 1.428 . S
C202 C215 1.394 . S
C203 H195 0.949 . S
C203 C202 1.428 . S
C203 C204 1.345 . S
C204 H196 0.950 . S
C204 C203 1.345 . S
C204 C205 1.424 . S
C205 H197 0.951 . S
C205 C204 1.424 . S
C205 C206 1.347 . S
C206 H198 0.951 . S
C206 C201 1.429 . S
C206 C205 1.347 . S
H207 C208 0.951 . S
C208 H207 0.951 . S
C208 C214 1.265 . S
H209 C214 0.950 . S
H210 C218 0.949 . S
H211 C219 0.950 . S
H212 C220 0.951 . S
H213 C221 0.951 . S
C214 C208 1.265 . S
C214 H209 0.950 . S
C214 C215 1.478 . S
C215 C202 1.394 . S
C215 C214 1.478 . S
C215 C216 1.397 . S
C216 C215 1.397 . S
C216 C217 1.438 . S
C216 C221 1.429 . S
C217 C200 1.394 . S
C217 C216 1.438 . S
C217 C218 1.428 . S
C218 H210 0.949 . S
C218 C217 1.428 . S
C218 C219 1.345 . S
C219 H211 0.950 . S
C219 C218 1.345 . S
C219 C220 1.424 . S
C220 H212 0.951 . S
C220 C219 1.424 . S
C220 C221 1.347 . S
C221 H213 0.951 . S
C221 C216 1.429 . S
C221 C220 1.347 . S
H222 C223 0.951 . S
C223 H222 0.951 . S
C223 C229 1.265 . S
H224 C229 0.950 . S
H225 C233 0.949 . S
H226 C234 0.950 . S
H227 C235 0.951 . S
H228 C236 0.951 . S
C229 C223 1.265 . S
C229 H224 0.950 . S
C229 C230 1.478 . S
C230 C229 1.478 . S
C230 C231 1.397 . S
C230 C247 1.394 . S
C231 C230 1.397 . S
C231 C232 1.438 . S
C231 C236 1.429 . S
C232 C231 1.438 . S
C232 C233 1.428 . S
C232 C245 1.394 . S
C233 H225 0.949 . S
C233 C232 1.428 . S
C233 C234 1.345 . S
C234 H226 0.950 . S
C234 C233 1.345 . S
C234 C235 1.424 . S
C235 H227 0.951 . S
C235 C234 1.424 . S
C235 C236 1.347 . S
C236 H228 0.951 . S
C236 C231 1.429 . S
C236 C235 1.347 . S
H237 C238 0.951 . S
C238 H237 0.951 . S
C238 C244 1.265 . S
H239 C244 0.950 . S
H240 C248 0.949 . S
H241 C249 0.950 . S
H242 C250 0.951 . S
H243 C251 0.951 . S
C244 C238 1.265 . S
C244 H239 0.950 . S
C244 C245 1.478 . S
C245 C232 1.394 . S
C245 C244 1.478 . S
C245 C246 1.397 . S
C246 C245 1.397 . S
C246 C247 1.438 . S
C246 C251 1.429 . S
C247 C230 1.394 . S
C247 C246 1.438 . S
C247 C248 1.428 . S
C248 H240 0.949 . S
C248 C247 1.428 . S
C248 C249 1.345 . S
C249 H241 0.950 . S
C249 C248 1.345 . S
C249 C250 1.424 . S
C250 H242 0.951 . S
C250 C249 1.424 . S
C250 C251 1.347 . S
C251 H243 0.951 . S
C251 C246 1.429 . S
C251 C250 1.347 . S
H252 C253 0.951 . S
C253 H252 0.951 . S
C253 C259 1.265 . S
H254 C259 0.950 . S
H255 C263 0.949 . S
H256 C264 0.950 . S
H257 C265 0.951 . S
H258 C266 0.951 . S
C259 C253 1.265 . S
C259 H254 0.950 . S
C259 C260 1.478 . S
C260 C259 1.478 . S
C260 C261 1.397 . S
C260 C277 1.394 . S
C261 C260 1.397 . S
C261 C262 1.438 . S
C261 C266 1.429 . S
C262 C261 1.438 . S
C262 C263 1.428 . S
C262 C275 1.394 . S
C263 H255 0.949 . S
C263 C262 1.428 . S
C263 C264 1.345 . S
C264 H256 0.950 . S
C264 C263 1.345 . S
C264 C265 1.424 . S
C265 H257 0.951 . S
C265 C264 1.424 . S
C265 C266 1.347 . S
C266 H258 0.951 . S
C266 C261 1.429 . S
C266 C265 1.347 . S
H267 C268 0.951 . S
C268 H267 0.951 . S
C268 C274 1.265 . S
H269 C274 0.950 . S
H270 C278 0.949 . S
H271 C279 0.950 . S
H272 C280 0.951 . S
H273 C281 0.951 . S
C274 C268 1.265 . S
C274 H269 0.950 . S
C274 C275 1.478 . S
C275 C262 1.394 . S
C275 C274 1.478 . S
C275 C276 1.397 . S
C276 C275 1.397 . S
C276 C277 1.438 . S
C276 C281 1.429 . S
C277 C260 1.394 . S
C277 C276 1.438 . S
C277 C278 1.428 . S
C278 H270 0.949 . S
C278 C277 1.428 . S
C278 C279 1.345 . S
C279 H271 0.950 . S
C279 C278 1.345 . S
C279 C280 1.424 . S
C280 H272 0.951 . S
C280 C279 1.424 . S
C280 C281 1.347 . S
C281 H273 0.951 . S
C281 C276 1.429 . S
C281 C280 1.347 . S
H282 C283 0.951 . S
C283 H282 0.951 . S
C283 C289 1.265 . S
H284 C289 0.950 . S
H285 C293 0.949 . S
H286 C294 0.950 . S
H287 C295 0.962 . S
H288 C296 0.951 1_556 S
C289 C283 1.265 . S
C289 H284 0.950 . S
C289 C290 1.478 . S
C290 C289 1.478 . S
C290 C291 1.397 . S
C290 C307 1.394 . S
C291 C290 1.397 . S
C291 C292 1.438 . S
C291 C296 1.429 . S
C292 C291 1.438 . S
C292 C293 1.428 . S
C292 C305 1.394 . S
C293 H285 0.949 . S
C293 C292 1.428 . S
C293 C294 1.345 . S
C294 H286 0.950 . S
C294 C293 1.345 . S
C294 C295 1.417 1_554 S
C295 H287 0.962 . S
C295 C294 1.417 1_556 S
C295 C296 1.343 1_556 S
C296 H288 0.951 1_554 S
C296 C291 1.429 . S
C296 C295 1.343 1_554 S
H297 C298 0.951 . S
C298 H297 0.951 . S
C298 C304 1.265 . S
H299 C304 0.950 . S
H300 C308 0.949 . S
H301 C309 0.950 . S
H302 C310 0.951 . S
H303 C311 0.951 . S
C304 C298 1.265 . S
C304 H299 0.950 . S
C304 C305 1.478 . S
C305 C292 1.394 . S
C305 C304 1.478 . S
C305 C306 1.397 . S
C306 C305 1.397 . S
C306 C307 1.438 . S
C306 C311 1.429 . S
C307 C290 1.394 . S
C307 C306 1.438 . S
C307 C308 1.428 . S
C308 H300 0.949 . S
C308 C307 1.428 . S
C308 C309 1.345 . S
C309 H301 0.950 . S
C309 C308 1.345 . S
C309 C310 1.424 . S
C310 H302 0.951 . S
C310 C309 1.424 . S
C310 C311 1.347 . S
C311 H303 0.951 . S
C311 C306 1.429 . S
C311 C310 1.347 . S
H312 C313 0.951 . S
C313 H312 0.951 . S
C313 C319 1.265 . S
H314 C319 0.950 . S
H315 C323 0.949 . S
H316 C324 0.950 . S
H317 C325 0.951 . S
H318 C326 0.951 . S
C319 C313 1.265 . S
C319 H314 0.950 . S
C319 C320 1.478 . S
C320 C319 1.478 . S
C320 C321 1.397 . S
C320 C337 1.394 . S
C321 C320 1.397 . S
C321 C322 1.438 . S
C321 C326 1.429 . S
C322 C321 1.438 . S
C322 C323 1.428 . S
C322 C335 1.394 . S
C323 H315 0.949 . S
C323 C322 1.428 . S
C323 C324 1.345 . S
C324 H316 0.950 . S
C324 C323 1.345 . S
C324 C325 1.424 . S
C325 H317 0.951 . S
C325 C324 1.424 . S
C325 C326 1.347 . S
C326 H318 0.951 . S
C326 C321 1.429 . S
C326 C325 1.347 . S
H327 C328 0.951 . S
C328 H327 0.951 . S
C328 C334 1.265 . S
H329 C334 0.950 . S
H330 C338 0.949 . S
H331 C339 0.950 . S
H332 C340 0.951 . S
H333 C341 0.951 . S
C334 C328 1.265 . S
C334 H329 0.950 . S
C334 C335 1.478 . S
C335 C322 1.394 . S
C335 C334 1.478 . S
C335 C336 1.397 . S
C336 C335 1.397 . S
C336 C337 1.438 . S
C336 C341 1.429 . S
C337 C320 1.394 . S
C337 C336 1.438 . S
C337 C338 1.428 . S
C338 H330 0.949 . S
C338 C337 1.428 . S
C338 C339 1.345 . S
C339 H331 0.950 . S
C339 C338 1.345 . S
C339 C340 1.424 . S
C340 H332 0.951 . S
C340 C339 1.424 . S
C340 C341 1.347 . S
C341 H333 0.951 . S
C341 C336 1.429 . S
C341 C340 1.347 . S
H342 C343 0.951 . S
C343 H342 0.951 . S
C343 C349 1.265 . S
H344 C349 0.950 . S
H345 C353 0.949 . S
H346 C354 0.947 1_455 S
H347 C355 0.951 . S
H348 C356 0.951 . S
C349 C343 1.265 . S
C349 H344 0.950 . S
C349 C350 1.478 . S
C350 C349 1.478 . S
C350 C351 1.397 . S
C350 C367 1.394 . S
C351 C350 1.397 . S
C351 C352 1.438 1_655 S
C351 C356 1.429 . S
C352 C351 1.438 1_455 S
C352 C353 1.428 . S
C352 C365 1.394 . S
C353 H345 0.949 . S
C353 C352 1.428 . S
C353 C354 1.345 1_455 S
C354 H346 0.947 1_655 S
C354 C353 1.345 1_655 S
C354 C355 1.424 . S
C355 H347 0.951 . S
C355 C354 1.424 . S
C355 C356 1.347 . S
C356 H348 0.951 . S
C356 C351 1.429 . S
C356 C355 1.347 . S
H357 C358 0.951 . S
C358 H357 0.951 . S
C358 C364 1.265 . S
H359 C364 0.950 . S
H360 C368 0.949 . S
H361 C369 0.946 1_655 S
H362 C370 0.951 . S
H363 C371 0.951 . S
C364 C358 1.265 . S
C364 H359 0.950 . S
C364 C365 1.478 . S
C365 C352 1.394 . S
C365 C364 1.478 . S
C365 C366 1.397 . S
C366 C365 1.397 . S
C366 C367 1.438 1_455 S
C366 C371 1.429 . S
C367 C350 1.394 . S
C367 C366 1.438 1_655 S
C367 C368 1.428 . S
C368 H360 0.949 . S
C368 C367 1.428 . S
C368 C369 1.345 1_655 S
C369 H361 0.946 1_455 S
C369 C368 1.345 1_455 S
C369 C370 1.424 . S
C370 H362 0.951 . S
C370 C369 1.424 . S
C370 C371 1.347 . S
C371 H363 0.951 . S
C371 C366 1.429 . S
C371 C370 1.347 . S
H372 C373 0.951 . S
C373 H372 0.951 . S
C373 C379 1.265 . S
H374 C379 0.950 . S
H375 C383 0.949 . S
H376 C384 0.950 1_545 S
H377 C385 0.951 . S
H378 C386 0.951 . S
C379 C373 1.265 . S
C379 H374 0.950 . S
C379 C380 1.478 . S
C380 C379 1.478 . S
C380 C381 1.397 . S
C380 C397 1.394 . S
C381 C380 1.397 . S
C381 C382 1.438 1_565 S
C381 C386 1.429 . S
C382 C381 1.438 1_545 S
C382 C383 1.428 . S
C382 C395 1.394 . S
C383 H375 0.949 . S
C383 C382 1.428 . S
C383 C384 1.345 1_545 S
C384 H376 0.950 1_565 S
C384 C383 1.345 1_565 S
C384 C385 1.424 . S
C385 H377 0.951 . S
C385 C384 1.424 . S
C385 C386 1.347 . S
C386 H378 0.951 . S
C386 C381 1.429 . S
C386 C385 1.347 . S
H387 C388 0.951 . S
C388 H387 0.951 . S
C388 C394 1.265 . S
H389 C394 0.950 . S
H390 C398 0.949 . S
H391 C399 0.950 1_565 S
H392 C400 0.951 . S
H393 C401 0.951 . S
C394 C388 1.265 . S
C394 H389 0.950 . S
C394 C395 1.478 . S
C395 C382 1.394 . S
C395 C394 1.478 . S
C395 C396 1.397 . S
C396 C395 1.397 . S
C396 C397 1.438 1_545 S
C396 C401 1.429 . S
C397 C380 1.394 . S
C397 C396 1.438 1_565 S
C397 C398 1.428 . S
C398 H390 0.949 . S
C398 C397 1.428 . S
C398 C399 1.345 1_565 S
C399 H391 0.950 1_545 S
C399 C398 1.345 1_545 S
C399 C400 1.424 . S
C400 H392 0.951 . S
C400 C399 1.424 . S
C400 C401 1.347 . S
C401 H393 0.951 . S
C401 C396 1.429 . S
C401 C400 1.347 . S
H402 C403 0.951 . S
C403 H402 0.951 . S
C403 C409 1.265 . S
H404 C409 0.950 . S
H405 C413 0.949 . S
H406 C414 0.950 . S
H407 C415 0.951 . S
H408 C416 0.951 . S
C409 C403 1.265 . S
C409 H404 0.950 . S
C409 C410 1.478 . S
C410 C409 1.478 . S
C410 C411 1.397 . S
C410 C427 1.394 . S
C411 C410 1.397 . S
C411 C412 1.438 . S
C411 C416 1.429 . S
C412 C411 1.438 . S
C412 C413 1.428 . S
C412 C425 1.394 . S
C413 H405 0.949 . S
C413 C412 1.428 . S
C413 C414 1.345 . S
C414 H406 0.950 . S
C414 C413 1.345 . S
C414 C415 1.424 . S
C415 H407 0.951 . S
C415 C414 1.424 . S
C415 C416 1.347 . S
C416 H408 0.951 . S
C416 C411 1.429 . S
C416 C415 1.347 . S
H417 C418 0.951 . S
C418 H417 0.951 . S
C418 C424 1.265 . S
H419 C424 0.950 . S
H420 C428 0.949 . S
H421 C429 0.950 . S
H422 C430 0.951 . S
H423 C431 0.951 . S
C424 C418 1.265 . S
C424 H419 0.950 . S
C424 C425 1.478 . S
C425 C412 1.394 . S
C425 C424 1.478 . S
C425 C426 1.397 . S
C426 C425 1.397 . S
C426 C427 1.438 . S
C426 C431 1.429 . S
C427 C410 1.394 . S
C427 C426 1.438 . S
C427 C428 1.428 . S
C428 H420 0.949 . S
C428 C427 1.428 . S
C428 C429 1.345 . S
C429 H421 0.950 . S
C429 C428 1.345 . S
C429 C430 1.424 . S
C430 H422 0.951 . S
C430 C429 1.424 . S
C430 C431 1.347 . S
C431 H423 0.951 . S
C431 C426 1.429 . S
C431 C430 1.347 . S
H432 C433 0.951 . S
C433 H432 0.951 . S
C433 C439 1.265 . S
H434 C439 0.950 . S
H435 C443 0.949 . S
H436 C444 0.950 1_455 S
H437 C445 0.951 . S
H438 C446 0.951 . S
C439 C433 1.265 . S
C439 H434 0.950 . S
C439 C440 1.478 . S
C440 C439 1.478 . S
C440 C441 1.397 . S
C440 C457 1.394 . S
C441 C440 1.397 . S
C441 C442 1.438 1_655 S
C441 C446 1.429 . S
C442 C441 1.438 1_455 S
C442 C443 1.428 . S
C442 C455 1.394 . S
C443 H435 0.949 . S
C443 C442 1.428 . S
C443 C444 1.345 1_455 S
C444 H436 0.950 1_655 S
C444 C443 1.345 1_655 S
C444 C445 1.424 . S
C445 H437 0.951 . S
C445 C444 1.424 . S
C445 C446 1.347 . S
C446 H438 0.951 . S
C446 C441 1.429 . S
C446 C445 1.347 . S
H447 C448 0.951 . S
C448 H447 0.951 . S
C448 C454 1.265 . S
H449 C454 0.950 . S
H450 C458 0.949 . S
H451 C459 0.950 1_655 S
H452 C460 0.951 . S
H453 C461 0.951 . S
C454 C448 1.265 . S
C454 H449 0.950 . S
C454 C455 1.478 . S
C455 C442 1.394 . S
C455 C454 1.478 . S
C455 C456 1.397 . S
C456 C455 1.397 . S
C456 C457 1.438 1_455 S
C456 C461 1.429 . S
C457 C440 1.394 . S
C457 C456 1.438 1_655 S
C457 C458 1.428 . S
C458 H450 0.949 . S
C458 C457 1.428 . S
C458 C459 1.345 1_655 S
C459 H451 0.950 1_455 S
C459 C458 1.345 1_455 S
C459 C460 1.424 . S
C460 H452 0.951 . S
C460 C459 1.424 . S
C460 C461 1.347 . S
C461 H453 0.951 . S
C461 C456 1.429 . S
C461 C460 1.347 . S
H462 C463 0.951 . S
C463 H462 0.951 . S
C463 C469 1.265 . S
H464 C469 0.950 . S
H465 C473 0.949 . S
H466 C474 0.950 . S
H467 C475 0.951 . S
H468 C476 0.951 . S
C469 C463 1.265 . S
C469 H464 0.950 . S
C469 C470 1.478 . S
C470 C469 1.478 . S
C470 C471 1.397 . S
C470 C487 1.394 . S
C471 C470 1.397 . S
C471 C472 1.438 1_546 S
C471 C476 1.429 . S
C472 C471 1.438 1_564 S
C472 C473 1.428 . S
C472 C485 1.394 . S
C473 H465 0.949 . S
C473 C472 1.428 . S
C473 C474 1.345 . S
C474 H466 0.950 . S
C474 C473 1.345 . S
C474 C475 1.424 1_565 S
C475 H467 0.951 . S
C475 C474 1.424 1_545 S
C475 C476 1.347 1_554 S
C476 H468 0.951 . S
C476 C471 1.429 . S
C476 C475 1.347 1_556 S
H477 C478 0.951 . S
C478 H477 0.951 . S
C478 C484 1.265 . S
H479 C484 0.950 . S
H480 C488 0.949 . S
H481 C489 0.950 . S
H482 C490 0.955 . S
H483 C491 0.951 . S
C484 C478 1.265 . S
C484 H479 0.950 . S
C484 C485 1.478 . S
C485 C472 1.394 . S
C485 C484 1.478 . S
C485 C486 1.397 . S
C486 C485 1.397 . S
C486 C487 1.438 1_564 S
C486 C491 1.429 . S
C487 C470 1.394 . S
C487 C486 1.438 1_546 S
C487 C488 1.428 . S
C488 H480 0.949 . S
C488 C487 1.428 . S
C488 C489 1.345 . S
C489 H481 0.950 . S
C489 C488 1.345 . S
C489 C490 1.424 1_545 S
C490 H482 0.955 . S
C490 C489 1.424 1_565 S
C490 C491 1.347 1_556 S
C491 H483 0.951 . S
C491 C486 1.429 . S
C491 C490 1.347 1_554 S
H492 C493 0.951 1_554 S
C493 H492 0.951 1_556 S
C493 C499 1.265 . S
H494 C499 0.950 . S
H495 C503 0.949 . S
H496 C504 0.950 . S
H497 C505 0.951 . S
H498 C506 0.951 . S
C499 C493 1.265 . S
C499 H494 0.950 . S
C499 C500 1.478 . S
C500 C499 1.478 . S
C500 C501 1.397 . S
C500 C517 1.394 . S
C501 C500 1.397 . S
C501 C502 1.438 . S
C501 C506 1.429 . S
C502 C501 1.438 . S
C502 C503 1.428 . S
C502 C515 1.394 . S
C503 H495 0.949 . S
C503 C502 1.428 . S
C503 C504 1.345 . S
C504 H496 0.950 . S
C504 C503 1.345 . S
C504 C505 1.424 . S
C505 H497 0.951 . S
C505 C504 1.424 . S
C505 C506 1.347 . S
C506 H498 0.951 . S
C506 C501 1.429 . S
C506 C505 1.347 . S
H507 C508 0.951 . S
C508 H507 0.951 . S
C508 C514 1.265 . S
H509 C514 0.950 . S
H510 C518 0.949 . S
H511 C519 0.950 . S
H512 C520 0.951 . S
H513 C521 0.951 . S
C514 C508 1.265 . S
C514 H509 0.950 . S
C514 C515 1.478 . S
C515 C502 1.394 . S
C515 C514 1.478 . S
C515 C516 1.397 . S
C516 C515 1.397 . S
C516 C517 1.438 . S
C516 C521 1.429 . S
C517 C500 1.394 . S
C517 C516 1.438 . S
C517 C518 1.428 . S
C518 H510 0.949 . S
C518 C517 1.428 . S
C518 C519 1.345 . S
C519 H511 0.950 . S
C519 C518 1.345 . S
C519 C520 1.424 . S
C520 H512 0.951 . S
C520 C519 1.424 . S
C520 C521 1.347 . S
C521 H513 0.951 . S
C521 C516 1.429 . S
C521 C520 1.347 . S
H522 C523 0.951 . S
C523 H522 0.951 . S
C523 C529 1.265 . S
H524 C529 0.950 . S
H525 C533 0.949 . S
H526 C534 0.950 . S
H527 C535 0.951 1_556 S
H528 C536 0.951 . S
C529 C523 1.265 . S
C529 H524 0.950 . S
C529 C530 1.478 . S
C530 C529 1.478 . S
C530 C531 1.397 . S
C530 C547 1.394 . S
C531 C530 1.397 . S
C531 C532 1.438 . S
C531 C536 1.429 . S
C532 C531 1.438 . S
C532 C533 1.428 . S
C532 C545 1.394 . S
C533 H525 0.949 . S
C533 C532 1.428 . S
C533 C534 1.345 . S
C534 H526 0.950 . S
C534 C533 1.345 . S
C534 C535 1.424 . S
C535 H527 0.951 1_554 S
C535 C534 1.424 . S
C535 C536 1.347 . S
C536 H528 0.951 . S
C536 C531 1.429 . S
C536 C535 1.347 . S
H537 C538 0.951 . S
C538 H537 0.951 . S
C538 C544 1.265 . S
H539 C544 0.950 . S
H540 C548 0.949 . S
H541 C549 0.950 . S
H542 C550 0.951 . S
H543 C551 0.951 . S
C544 C538 1.265 . S
C544 H539 0.950 . S
C544 C545 1.478 . S
C545 C532 1.394 . S
C545 C544 1.478 . S
C545 C546 1.397 . S
C546 C545 1.397 . S
C546 C547 1.438 . S
C546 C551 1.429 . S
C547 C530 1.394 . S
C547 C546 1.438 . S
C547 C548 1.428 . S
C548 H540 0.949 . S
C548 C547 1.428 . S
C548 C549 1.345 . S
C549 H541 0.950 . S
C549 C548 1.345 . S
C549 C550 1.424 . S
C550 H542 0.951 . S
C550 C549 1.424 . S
C550 C551 1.347 . S
C551 H543 0.951 . S
C551 C546 1.429 . S
C551 C550 1.347 . S
H552 C553 0.951 . S
C553 H552 0.951 . S
C553 C559 1.265 . S
H554 C559 0.950 . S
H555 C563 0.949 . S
H556 C564 0.950 . S
H557 C565 0.951 . S
H558 C566 0.951 . S
C559 C553 1.265 . S
C559 H554 0.950 . S
C559 C560 1.478 . S
C560 C559 1.478 . S
C560 C561 1.397 . S
C560 C577 1.394 . S
C561 C560 1.397 . S
C561 C562 1.438 . S
C561 C566 1.429 . S
C562 C561 1.438 . S
C562 C563 1.428 . S
C562 C575 1.394 . S
C563 H555 0.949 . S
C563 C562 1.428 . S
C563 C564 1.345 . S
C564 H556 0.950 . S
C564 C563 1.345 . S
C564 C565 1.424 . S
C565 H557 0.951 . S
C565 C564 1.424 . S
C565 C566 1.347 . S
C566 H558 0.951 . S
C566 C561 1.429 . S
C566 C565 1.347 . S
H567 C568 0.951 . S
C568 H567 0.951 . S
C568 C574 1.265 . S
H569 C574 0.950 . S
H570 C578 0.949 . S
H571 C579 0.950 . S
H572 C580 0.951 . S
H573 C581 0.951 . S
C574 C568 1.265 . S
C574 H569 0.950 . S
C574 C575 1.478 . S
C575 C562 1.394 . S
C575 C574 1.478 . S
C575 C576 1.397 . S
C576 C575 1.397 . S
C576 C577 1.438 . S
C576 C581 1.429 . S
C577 C560 1.394 . S
C577 C576 1.438 . S
C577 C578 1.428 . S
C578 H570 0.949 . S
C578 C577 1.428 . S
C578 C579 1.345 . S
C579 H571 0.950 . S
C579 C578 1.345 . S
C579 C580 1.424 . S
C580 H572 0.951 . S
C580 C579 1.424 . S
C580 C581 1.347 . S
C581 H573 0.951 . S
C581 C576 1.429 . S
C581 C580 1.347 . S
H582 C583 0.951 . S
C583 H582 0.951 . S
C583 C589 1.265 . S
H584 C589 0.950 . S
H585 C593 0.949 . S
H586 C594 0.950 . S
H587 C595 0.951 . S
H588 C596 0.951 . S
C589 C583 1.265 . S
C589 H584 0.950 . S
C589 C590 1.478 . S
C590 C589 1.478 . S
C590 C591 1.397 . S
C590 C607 1.394 . S
C591 C590 1.397 . S
C591 C592 1.438 . S
C591 C596 1.429 . S
C592 C591 1.438 . S
C592 C593 1.428 . S
C592 C605 1.394 . S
C593 H585 0.949 . S
C593 C592 1.428 . S
C593 C594 1.345 . S
C594 H586 0.950 . S
C594 C593 1.345 . S
C594 C595 1.424 . S
C595 H587 0.951 . S
C595 C594 1.424 . S
C595 C596 1.347 . S
C596 H588 0.951 . S
C596 C591 1.429 . S
C596 C595 1.347 . S
H597 C598 0.951 . S
C598 H597 0.951 . S
C598 C604 1.265 . S
H599 C604 0.950 . S
H600 C608 0.949 . S
H601 C609 0.950 . S
H602 C610 0.951 . S
H603 C611 0.951 . S
C604 C598 1.265 . S
C604 H599 0.950 . S
C604 C605 1.478 . S
C605 C592 1.394 . S
C605 C604 1.478 . S
C605 C606 1.397 . S
C606 C605 1.397 . S
C606 C607 1.438 . S
C606 C611 1.429 . S
C607 C590 1.394 . S
C607 C606 1.438 . S
C607 C608 1.428 . S
C608 H600 0.949 . S
C608 C607 1.428 . S
C608 C609 1.345 . S
C609 H601 0.950 . S
C609 C608 1.345 . S
C609 C610 1.424 . S
C610 H602 0.951 . S
C610 C609 1.424 . S
C610 C611 1.347 . S
C611 H603 0.951 . S
C611 C606 1.429 . S
C611 C610 1.347 . S
H612 C613 0.951 . S
C613 H612 0.951 . S
C613 C619 1.265 . S
H614 C619 0.950 . S
H615 C623 0.949 . S
H616 C624 0.950 . S
H617 C625 0.951 . S
H618 C626 0.951 . S
C619 C613 1.265 . S
C619 H614 0.950 . S
C619 C620 1.478 . S
C620 C619 1.478 . S
C620 C621 1.397 . S
C620 C637 1.394 . S
C621 C620 1.397 . S
C621 C622 1.438 . S
C621 C626 1.429 . S
C622 C621 1.438 . S
C622 C623 1.428 . S
C622 C635 1.394 . S
C623 H615 0.949 . S
C623 C622 1.428 . S
C623 C624 1.345 . S
C624 H616 0.950 . S
C624 C623 1.345 . S
C624 C625 1.424 . S
C625 H617 0.951 . S
C625 C624 1.424 . S
C625 C626 1.347 . S
C626 H618 0.951 . S
C626 C621 1.429 . S
C626 C625 1.347 . S
H627 C628 0.951 . S
C628 H627 0.951 . S
C628 C634 1.265 . S
H629 C634 0.950 . S
H630 C638 0.949 . S
H631 C639 0.950 . S
H632 C640 0.951 . S
H633 C641 0.951 . S
C634 C628 1.265 . S
C634 H629 0.950 . S
C634 C635 1.478 . S
C635 C622 1.394 . S
C635 C634 1.478 . S
C635 C636 1.397 . S
C636 C635 1.397 . S
C636 C637 1.438 . S
C636 C641 1.429 . S
C637 C620 1.394 . S
C637 C636 1.438 . S
C637 C638 1.428 . S
C638 H630 0.949 . S
C638 C637 1.428 . S
C638 C639 1.345 . S
C639 H631 0.950 . S
C639 C638 1.345 . S
C639 C640 1.424 . S
C640 H632 0.951 . S
C640 C639 1.424 . S
C640 C641 1.347 . S
C641 H633 0.951 . S
C641 C636 1.429 . S
C641 C640 1.347 . S
H642 C643 0.951 . S
C643 H642 0.951 . S
C643 C649 1.265 . S
H644 C649 0.950 . S
H645 C653 0.949 . S
H646 C654 0.950 . S
H647 C655 0.951 . S
H648 C656 0.951 . S
C649 C643 1.265 . S
C649 H644 0.950 . S
C649 C650 1.478 . S
C650 C649 1.478 . S
C650 C651 1.397 . S
C650 C667 1.394 . S
C651 C650 1.397 . S
C651 C652 1.438 . S
C651 C656 1.429 . S
C652 C651 1.438 . S
C652 C653 1.428 . S
C652 C665 1.394 . S
C653 H645 0.949 . S
C653 C652 1.428 . S
C653 C654 1.345 . S
C654 H646 0.950 . S
C654 C653 1.345 . S
C654 C655 1.424 . S
C655 H647 0.951 . S
C655 C654 1.424 . S
C655 C656 1.347 . S
C656 H648 0.951 . S
C656 C651 1.429 . S
C656 C655 1.347 . S
H657 C658 0.951 . S
C658 H657 0.951 . S
C658 C664 1.265 . S
H659 C664 0.950 . S
H660 C668 0.949 . S
H661 C669 0.950 . S
H662 C670 0.951 . S
H663 C671 0.951 . S
C664 C658 1.265 . S
C664 H659 0.950 . S
C664 C665 1.478 . S
C665 C652 1.394 . S
C665 C664 1.478 . S
C665 C666 1.397 . S
C666 C665 1.397 . S
C666 C667 1.438 . S
C666 C671 1.429 . S
C667 C650 1.394 . S
C667 C666 1.438 . S
C667 C668 1.428 . S
C668 H660 0.949 . S
C668 C667 1.428 . S
C668 C669 1.345 . S
C669 H661 0.950 . S
C669 C668 1.345 . S
C669 C670 1.424 . S
C670 H662 0.951 . S
C670 C669 1.424 . S
C670 C671 1.347 . S
C671 H663 0.951 . S
C671 C666 1.429 . S
C671 C670 1.347 . S
C133 C8 1.521 . S
C148 C118 1.518 . S
C163 C129 1.564 . S
C178 C19 1.546 . S
C193 C74 1.545 . S
C208 C30 1.518 . S
C223 C41 1.561 . S
C238 C85 1.559 . S
C253 C96 1.526 . S
C268 C52 1.529 . S
C283 C63 1.567 . S
C298 C107 1.525 . S
C313 C7 1.381 . S
C328 C106 1.378 . S
C343 C18 1.457 . S
C358 C117 1.436 . S
C373 C29 1.434 . S
C388 C128 1.413 . S
C403 C73 1.379 . S
C418 C40 1.380 . S
C433 C84 1.435 . S
C448 C51 1.413 . S
C463 C62 1.392 . S
C478 C95 1.380 . S
C493 C5 1.312 1_556 S
C508 C71 1.342 . S
C523 C82 1.340 1_554 S
C538 C16 1.375 . S
C553 C27 1.459 . S
C568 C93 1.460 . S
C583 C38 1.390 . S
C598 C104 1.354 . S
C613 C49 1.373 . S
C628 C115 1.338 . S
C643 C126 1.461 . S
C658 C60 1.456 . S
