# Generated by pormake.
# Topology sma, (6)-cn, num edge types: 1
# Building blocks:
#     Node 0, Type 0, BuildingBlock: GEDQOX_clean_sbu_0, # of connection points: 6
#     Node 1, Type 0, BuildingBlock: GEDQOX_clean_sbu_0, # of connection points: 6
#     Node 2, Type 0, BuildingBlock: GEDQOX_clean_sbu_0, # of connection points: 6
#     Edge 3, Type (0, 0), BuildingBlock: FUNLAD_clean_linker_0, # of connection points: 2
#     Edge 4, Type (0, 0), BuildingBlock: FUNLAD_clean_linker_0, # of connection points: 2
#     Edge 5, Type (0, 0), BuildingBlock: FUNLAD_clean_linker_0, # of connection points: 2
#     Edge 6, Type (0, 0), BuildingBlock: FUNLAD_clean_linker_0, # of connection points: 2
#     Edge 7, Type (0, 0), BuildingBlock: FUNLAD_clean_linker_0, # of connection points: 2
#     Edge 8, Type (0, 0), BuildingBlock: FUNLAD_clean_linker_0, # of connection points: 2
#     Edge 9, Type (0, 0), BuildingBlock: FUNLAD_clean_linker_0, # of connection points: 2
#     Edge 10, Type (0, 0), BuildingBlock: FUNLAD_clean_linker_0, # of connection points: 2
#     Edge 11, Type (0, 0), BuildingBlock: FUNLAD_clean_linker_0, # of connection points: 2
# Relax obj value: 0.122
# Max RMSD: 0.253
# Mean RMSD: 0.204
data_MOF--net-sma--node1-GEDQOX_clean_sbu_0--edge1-FUNLAD_clean_linker_0
_symmetry_space_group_name_H-M    P1
_symmetry_Int_Tables_number       1
_symmetry_cell_setting            triclinic
loop_
_symmetry_equiv_pos_as_xyz
'x, y, z'
_cell_length_a     45.34948
_cell_length_b     35.799173
_cell_length_c     16.265891
_cell_angle_alpha  97.017293
_cell_angle_beta   90.130502
_cell_angle_gamma 100.77616
loop_
_atom_site_label
_atom_site_type_symbol
_atom_site_fract_x
_atom_site_fract_y
_atom_site_fract_z
_atom_type_partial_charge
Nd0 Nd 0.06966 0.61442 0.03648 0.0
Nd1 Nd 0.0483 0.52736 0.05127 0.0
C2 C 0.08829 0.68711 0.01871 0.0
C3 C 0.11637 0.71299 0.05065 0.0
C4 C 0.1414 0.69755 0.07037 0.0
C5 C 0.16744 0.72129 0.10601 0.0
C6 C 0.16908 0.76111 0.12352 0.0
C7 C 0.14393 0.77655 0.10362 0.0
C8 C 0.11782 0.75268 0.06747 0.0
C9 C 0.07766 0.59204 0.18834 0.0
C10 C 0.11938 0.55968 0.02572 0.0
C11 C 1.0243 0.45889 0.09114 0.0
C12 C 0.99682 0.43665 0.12338 0.0
C13 C 0.98676 0.44546 0.20392 0.0
C14 C 0.96147 0.42226 0.23313 0.0
C15 C 0.94588 0.38977 0.18254 0.0
C16 C 0.95574 0.38167 0.10154 0.0
C17 C 0.9809 0.4047 0.07258 0.0
C18 C 0.06334 0.54382 0.89621 0.0
C19 C 0.99697 0.58035 0.03173 0.0
O20 O 0.09145 0.65903 0.96138 0.0
O21 O 0.06931 0.67594 0.07551 0.0
O22 O 0.09691 0.61715 0.15637 0.0
O23 O 0.05473 0.58049 0.14218 0.0
O24 O 0.11107 0.58945 -0.002 0.0
O25 O 0.10021 0.5344 0.06238 0.0
O26 O 0.04191 0.48498 0.14201 0.0
O27 O 1.02195 0.469 0.01711 0.0
O28 O 0.06797 0.5131 0.92493 0.0
O29 O 0.04941 0.5634 0.94662 0.0
O30 O 1.00293 0.54708 0.04745 0.0
O31 O 1.01847 0.60997 0.02184 0.0
H32 H 0.14064 0.66692 0.05954 0.0
H33 H 0.18607 0.70823 0.12174 0.0
H34 H 0.14447 0.80709 0.11569 0.0
H35 H 0.09866 0.76514 0.05362 0.0
H36 H 0.99861 0.46987 0.24468 0.0
H37 H 0.95463 0.42919 0.29602 0.0
H38 H 0.94403 0.35736 0.06028 0.0
H39 H 0.98816 0.39723 0.01029 0.0
Nd40 Nd 0.52677 0.05486 0.58746 0.0
Nd41 Nd 0.59454 0.06937 0.53947 0.0
C42 C 0.47149 1.03275 0.63842 0.0
C43 C 0.44429 1.00763 0.59923 0.0
C44 C 0.41814 0.99949 0.64462 0.0
C45 C 0.39188 0.97709 0.60636 0.0
C46 C 0.39123 0.96243 0.52174 0.0
C47 C 0.41775 0.97035 0.47691 0.0
C48 C 0.44398 0.99267 0.51527 0.0
C49 C 0.53762 1.04997 0.42155 0.0
C50 C 0.56483 0.98396 0.5748 0.0
C51 C 0.64572 0.08833 0.46317 0.0
C52 C 0.66959 0.12146 0.44981 0.0
C53 C 0.66657 0.14443 0.38715 0.0
C54 C 0.69034 0.17337 0.37021 0.0
C55 C 0.71778 0.17993 0.41516 0.0
C56 C 0.72051 0.1574 0.47886 0.0
C57 C 0.6968 0.12847 0.49568 0.0
C58 C 0.58438 0.06772 0.70373 0.0
C59 C 0.56062 0.14319 0.59049 0.0
O60 O 0.49382 1.01607 0.65438 0.0
O61 O 0.48034 0.06465 0.60648 0.0
O62 O 0.5152 0.06346 0.45396 0.0
O63 O 0.55196 1.03778 0.47481 0.0
O64 O 0.54267 0.99914 0.60962 0.0
O65 O 0.5854 1.00367 0.53091 0.0
O66 O 0.61926 0.08553 0.42763 0.0
O67 O 0.64414 0.07733 0.53722 0.0
O68 O 0.60775 0.05724 0.66851 0.0
O69 O 0.56976 0.08234 0.65477 0.0
O70 O 0.58188 0.12976 0.54661 0.0
O71 O 0.53923 0.11994 0.62466 0.0
H72 H 0.41796 1.01072 0.70952 0.0
H73 H 0.37211 0.97114 0.64329 0.0
H74 H 0.4181 0.96005 0.41157 0.0
H75 H 0.46394 0.99874 0.47904 0.0
H76 H 0.64609 0.13953 0.34982 0.0
H77 H 0.68751 0.18978 0.32004 0.0
H78 H 0.7411 0.16194 0.51564 0.0
H79 H 0.70003 0.11111 0.54382 0.0
Nd80 Nd 0.51697 0.55979 0.71367 0.0
Nd81 Nd 0.58399 0.58134 0.77927 0.0
C82 C 0.46206 0.54956 0.64801 0.0
C83 C 0.43148 0.55025 0.68065 0.0
C84 C 0.4218 0.58511 0.70337 0.0
C85 C 0.39315 0.58553 0.73497 0.0
C86 C 0.37333 0.55114 0.74461 0.0
C87 C 0.38296 0.51627 0.72164 0.0
C88 C 0.41161 0.51584 0.68971 0.0
C89 C 0.52468 0.5752 0.88196 0.0
C90 C 0.5534 0.64728 0.71541 0.0
C91 C 0.63448 0.59603 0.86986 0.0
C92 C 0.6639 0.58512 0.88357 0.0
C93 C 0.67427 0.58526 -0.03505 0.0
C94 C 0.70358 0.58027 -0.01927 0.0
C95 C 0.72332 0.57519 0.91533 0.0
C96 C 0.71253 0.57385 0.83354 0.0
C97 C 0.68315 0.57873 0.8178 0.0
C98 C 0.5772 0.56857 0.61115 0.0
C99 C 0.55058 0.4896 0.74127 0.0
O100 O 0.48109 0.58216 0.65318 0.0
O101 O 0.47476 0.52133 0.66466 0.0
O102 O 0.50266 0.55039 0.84598 0.0
O103 O 0.54021 0.59277 0.83025 0.0
O104 O 0.53428 0.61905 0.67303 0.0
O105 O 0.57153 0.64058 0.77367 0.0
O106 O 0.60999 0.57392 0.89117 0.0
O107 O 0.63089 0.61133 0.80233 0.0
O108 O 0.60035 0.59123 0.64842 0.0
O109 O 0.56111 0.5507 0.66161 0.0
O110 O 0.57259 0.51502 0.78188 0.0
O111 O 0.52911 0.50033 0.69986 0.0
H112 H 0.43638 0.61221 0.69717 0.0
H113 H 0.38666 0.61295 0.75283 0.0
H114 H 0.36818 0.48924 0.72709 0.0
H115 H 0.41822 0.48847 0.67209 0.0
H116 H 0.66 0.59055 0.01675 0.0
H117 H 0.71112 0.58186 0.04449 0.0
H118 H 0.72688 0.56936 0.78157 0.0
H119 H 0.67579 0.57849 0.75431 0.0
C120 C 0.17209 0.58503 -0.01158 0.0
C121 C 0.15059 0.55411 0.00916 0.0
C122 C 0.2007 0.57994 -0.03613 0.0
C123 C 0.2086 0.54354 0.95797 0.0
C124 C 0.18763 0.51294 -0.01746 0.0
C125 C 0.15887 0.51811 0.00779 0.0
C126 C 0.23853 0.53697 0.92714 0.0
C127 C 0.25451 0.55889 0.87435 0.0
C128 C 0.28472 0.55477 0.84153 0.0
C129 C 0.29724 0.57913 0.7839 0.0
C130 C 0.32571 0.57772 0.75237 0.0
C131 C 0.34266 0.55182 0.77743 0.0
H132 H 0.29318 0.50939 0.91103 0.0
C133 C 0.33014 0.52704 0.83444 0.0
C134 C 0.30157 0.52854 0.86641 0.0
H135 H 0.34269 0.50698 0.85574 0.0
H136 H 0.16675 0.61337 -0.00976 0.0
H137 H 0.21649 0.60478 0.94964 0.0
H138 H 0.1932 0.48469 -0.01995 0.0
H139 H 0.14287 0.49371 0.02349 0.0
H140 H 0.2467 0.51272 0.94628 0.0
H141 H 0.24471 0.58129 0.85192 0.0
H142 H 0.28497 0.59962 0.76315 0.0
H143 H 0.33436 0.59683 0.70767 0.0
C144 C 0.77314 0.20163 0.39506 0.0
C145 C 0.74379 0.20915 0.39391 0.0
C146 C 0.79755 0.22854 0.37375 0.0
C147 C 0.79326 0.26369 0.34972 0.0
C148 C 0.76401 0.27149 0.35004 0.0
C149 C 0.73957 0.24456 0.37148 0.0
C150 C 0.81864 0.29302 0.32532 0.0
C151 C 0.84492 0.28453 0.2972 0.0
C152 C 0.87034 0.31281 0.26956 0.0
C153 C 0.89252 0.29873 0.2216 0.0
C154 C 0.91692 0.32364 0.1941 0.0
C155 C 0.91999 0.36355 0.21402 0.0
H156 H 0.8575 0.36497 0.32945 0.0
C157 C 0.89813 0.37782 0.26336 0.0
C158 C 0.87357 0.35278 0.2909 0.0
H159 H 0.89978 0.40839 0.27984 0.0
H160 H 0.77731 0.17461 0.41141 0.0
H161 H 0.8197 0.22164 0.37714 0.0
H162 H 0.75997 0.29844 0.33288 0.0
H163 H 0.71738 0.25165 0.37115 0.0
H164 H 0.81472 0.32206 0.32656 0.0
H165 H 0.84766 0.25485 0.28973 0.0
H166 H 0.89095 0.26816 0.20487 0.0
H167 H 0.9336 0.31151 0.15773 0.0
C168 C 0.54368 0.92183 0.62813 0.0
C169 C 0.56688 0.94416 0.5883 0.0
C170 C 0.54586 0.88495 0.6444 0.0
C171 C 0.57132 0.86932 0.62119 0.0
C172 C 0.59462 0.89171 0.58202 0.0
C173 C 0.59235 0.92859 0.56515 0.0
C174 C 0.57454 0.83038 0.63953 0.0
C175 C 0.55077 0.8018 0.64416 0.0
C176 C 0.55305 0.76249 0.66153 0.0
C177 C 0.52975 0.73203 0.63261 0.0
C178 C 0.53016 0.69481 0.64959 0.0
C179 C 0.55368 0.68706 0.69739 0.0
H180 H 0.59477 0.7778 0.73416 0.0
C181 C 0.57698 0.71755 0.72716 0.0
C182 C 0.57676 0.7549 0.70914 0.0
H183 H 0.5954 0.71259 0.76427 0.0
H184 H 0.52383 0.93292 0.64764 0.0
H185 H 0.5278 0.8692 0.67696 0.0
H186 H 0.61461 0.88058 0.5641 0.0
H187 H 0.61077 0.94507 0.5351 0.0
H188 H 0.59711 0.82472 0.64528 0.0
H189 H 0.52844 0.80664 0.63035 0.0
H190 H 0.51109 0.737 0.59642 0.0
H191 H 0.51172 0.67217 0.62592 0.0
C192 C 0.77875 0.59134 0.88767 0.0
C193 C 0.75523 0.57259 0.93278 0.0
C194 C 0.80875 0.5899 0.90568 0.0
C195 C 0.81606 0.56972 -0.03032 0.0
C196 C 0.79249 0.55051 0.01371 0.0
C197 C 0.76254 0.55204 -0.00412 0.0
C198 C 0.84763 0.56673 -0.00938 0.0
C199 C 0.87227 0.59135 -0.02912 0.0
C200 C 0.90389 0.58808 -0.00906 0.0
C201 C 0.92705 0.61995 -0.01329 0.0
C202 C 0.95713 0.61781 0.00149 0.0
C203 C 0.96493 0.58358 0.02058 0.0
H204 H 0.89496 0.5282 0.01242 0.0
C205 C 0.94177 0.55174 0.02545 0.0
C206 C 0.91172 0.55386 0.01053 0.0
H207 H 0.94683 0.52475 0.03933 0.0
H208 H 0.77405 0.60766 0.83899 0.0
H209 H 0.82598 0.60424 0.86844 0.0
H210 H 0.79726 0.53431 0.06261 0.0
H211 H 0.74506 0.53677 0.03115 0.0
H212 H 0.85033 0.544 0.02672 0.0
H213 H 0.8694 0.61588 0.94072 0.0
H214 H 0.92188 0.64666 -0.02868 0.0
H215 H 0.97427 0.6429 -0.00313 0.0
C216 C 0.36376 0.90804 0.41975 0.0
C217 C 0.36297 0.93959 0.48003 0.0
C218 C 0.33732 0.88705 0.37972 0.0
C219 C 0.30931 0.89718 0.39863 0.0
C220 C 0.30851 0.92832 0.4597 0.0
C221 C 0.33493 0.94934 0.49957 0.0
C222 C 0.28039 0.87545 0.35855 0.0
C223 C 0.2784 0.85332 0.28443 0.0
C224 C 0.24973 0.83089 0.24413 0.0
C225 C 0.25139 0.80157 0.17941 0.0
C226 C 0.22537 0.77938 0.13991 0.0
C227 C 0.1968 0.78602 0.16355 0.0
H228 H 0.21858 0.86094 0.31469 0.0
C229 C 0.19503 0.81592 0.22703 0.0
C230 C 0.22112 0.8381 0.26685 0.0
H231 H 0.17342 0.82177 0.2471 0.0
H232 H 0.38481 0.89911 0.4043 0.0
H233 H 0.33904 0.86251 0.3354 0.0
H234 H 0.28734 0.93673 0.47617 0.0
H235 H 0.33336 0.97366 0.54486 0.0
H236 H 0.2601 0.87839 0.3918 0.0
H237 H 0.29881 0.85084 0.25124 0.0
H238 H 0.27299 0.79549 0.15964 0.0
H239 H 0.22768 0.75706 0.09038 0.0
C240 C 0.57689 0.43356 0.74723 0.0
C241 C 0.55053 0.44787 0.73552 0.0
C242 C 0.57648 0.39389 0.73441 0.0
C243 C 0.5496 0.36788 0.71042 0.0
C244 C 0.52323 0.38234 0.70176 0.0
C245 C 0.52371 0.42171 0.71342 0.0
C246 C 0.54758 0.32552 0.69522 0.0
C247 C 0.57066 0.30817 0.67101 0.0
C248 C 0.56736 0.26569 0.65049 0.0
C249 C 0.58807 0.2508 0.59794 0.0
C250 C 0.58568 0.21115 0.57723 0.0
C251 C 0.56257 0.18533 0.60913 0.0
H252 H 0.5285 0.24973 0.72582 0.0
C253 C 0.54196 0.2002 0.66218 0.0
C254 C 0.54439 0.23978 0.68296 0.0
H255 H 0.52409 0.18125 0.68887 0.0
H256 H 0.5979 0.45299 0.76438 0.0
H257 H 0.59713 0.38379 0.74384 0.0
H258 H 0.50214 0.3631 0.68429 0.0
H259 H 0.50291 0.43165 0.70459 0.0
H260 H 0.52535 0.30816 0.6982 0.0
H261 H 0.59231 0.32563 0.66074 0.0
H262 H 0.60613 0.26994 0.57239 0.0
H263 H 0.60209 0.20079 0.53664 0.0
C264 C 0.0904 0.53083 0.76734 0.0
C265 C 0.07489 0.55507 0.81732 0.0
C266 C 0.09986 0.53979 0.68975 0.0
C267 C 0.094 0.57318 0.66136 0.0
C268 C 0.08024 0.59867 0.71338 0.0
C269 C 0.07046 0.5895 0.79092 0.0
C270 C 0.09933 0.57991 0.57497 0.0
C271 C 0.09127 0.5513 0.51309 0.0
C272 C 0.08956 0.5591 0.42698 0.0
C273 C 0.06402 0.54166 0.37829 0.0
C274 C 0.06008 0.5522 0.29995 0.0
C275 C 0.0821 0.57947 0.26882 0.0
H276 H 0.13209 0.59886 0.43126 0.0
C277 C 0.10833 0.59551 0.31604 0.0
C278 C 0.11199 0.58554 0.39493 0.0
H279 H 0.12573 0.61641 0.29285 0.0
H280 H 0.09456 0.50444 0.78721 0.0
H281 H 0.11103 0.52013 0.65107 0.0
H282 H 0.07568 0.62465 0.69232 0.0
H283 H 0.05882 0.60877 0.82912 0.0
H284 H 0.10553 0.60935 0.56162 0.0
H285 H 0.08154 0.52266 0.52686 0.0
H286 H 0.04649 0.52122 0.40237 0.0
H287 H 0.03957 0.53974 0.26476 0.0
C288 C 0.56599 1.02482 0.30424 0.0
C289 C 0.54252 1.04312 0.33283 0.0
C290 C 0.57082 1.01829 0.21974 0.0
C291 C 0.55208 1.02956 0.16274 0.0
C292 C 0.52847 1.04782 0.1916 0.0
C293 C 0.5237 0.05442 0.27616 0.0
C294 C 0.55974 1.02565 0.07467 0.0
C295 C 0.53968 1.02449 0.01321 0.0
C296 C 0.5495 1.0311 0.92925 0.0
C297 C 0.57526 1.01902 0.89615 0.0
C298 C 0.58672 1.03114 0.82263 0.0
C299 C 0.57239 0.05502 0.78091 0.0
H300 H 0.51428 0.06259 0.90931 0.0
C301 C 0.54573 0.06528 0.8114 0.0
C302 C 0.53428 0.05322 0.88504 0.0
H303 H 0.53399 0.08311 0.77913 0.0
H304 H 0.58078 1.01581 0.34712 0.0
H305 H 0.5894 1.00474 0.19888 0.0
H306 H 0.51429 0.05832 0.14971 0.0
H307 H 0.50555 0.06876 0.29716 0.0
H308 H 0.58329 1.02659 0.06111 0.0
H309 H 0.51614 1.02373 0.02653 0.0
H310 H 0.58685 1.00078 0.92755 0.0
H311 H 0.60686 1.022 0.7988 0.0
C312 C 0.54202 0.54419 0.49165 0.0
C313 C 0.56867 0.56785 0.52437 0.0
C314 C 0.53307 0.54491 0.4101 0.0
C315 C 0.55043 0.56956 0.36062 0.0
C316 C 0.57745 0.59274 0.39311 0.0
C317 C 0.58643 0.59194 0.47462 0.0
C318 C 0.54042 0.56899 0.27434 0.0
C319 C 0.54768 0.59913 0.23171 0.0
C320 C 0.53972 0.59612 0.1431 0.0
C321 C 0.51325 0.57218 0.10923 0.0
C322 C 0.50818 0.56593 0.02396 0.0
C323 C 0.5292 0.584 -0.02841 0.0
H324 H 0.58022 0.63483 0.11608 0.0
C325 C 0.55469 0.60981 0.00547 0.0
C326 C 0.55987 0.6159 0.09097 0.0
H327 H 0.57098 0.62444 -0.03408 0.0
H328 H 0.52797 0.52539 0.52919 0.0
H329 H 0.51237 0.52649 0.38588 0.0
H330 H 0.59196 0.61103 0.35568 0.0
H331 H 0.60716 0.61028 0.49875 0.0
H332 H 0.52682 0.54243 0.24504 0.0
H333 H 0.56149 0.62567 0.26027 0.0
H334 H 0.49666 0.55778 0.14824 0.0
H335 H 0.48803 0.54652 -0.00095 0.0
loop_
_geom_bond_atom_site_label_1
_geom_bond_atom_site_label_2
_geom_bond_distance
_geom_bond_site_symmetry_2
_ccdc_geom_bond_type
Nd0 C2 2.836 . S
Nd0 O20 2.500 . S
Nd0 O21 2.492 . S
Nd0 O22 2.487 . S
Nd0 O23 2.682 . S
Nd0 O24 2.410 . S
Nd0 O29 2.414 . S
Nd0 O31 2.424 1_455 S
Nd1 C11 2.836 1_455 S
Nd1 O23 2.414 . S
Nd1 O25 2.424 . S
Nd1 O26 2.500 1_455 S
Nd1 O27 2.492 1_455 S
Nd1 O28 2.487 1_554 S
Nd1 O29 2.682 . S
Nd1 O30 2.410 1_455 S
C2 Nd0 2.836 . S
C2 C3 1.498 . S
C2 O20 1.258 . S
C2 O21 1.239 . S
C3 C2 1.498 . S
C3 C4 1.366 . S
C3 C8 1.407 . S
C4 C3 1.366 . S
C4 C5 1.392 . S
C4 H32 0.930 . S
C5 C4 1.392 . S
C5 C6 1.398 . S
C5 H33 0.929 . S
C6 C5 1.398 . S
C6 C7 1.352 . S
C7 C6 1.352 . S
C7 C8 1.384 . S
C7 H34 0.930 . S
C8 C3 1.407 . S
C8 C7 1.384 . S
C8 H35 0.929 . S
C9 O22 1.241 . S
C9 O23 1.273 . S
C10 O24 1.251 . S
C10 O25 1.268 . S
C11 Nd1 2.836 1_655 S
C11 C12 1.498 . S
C11 O26 1.258 . S
C11 O27 1.239 . S
C12 C11 1.498 . S
C12 C13 1.366 . S
C12 C17 1.407 . S
C13 C12 1.366 . S
C13 C14 1.392 . S
C13 H36 0.930 . S
C14 C13 1.392 . S
C14 C15 1.398 . S
C14 H37 0.929 . S
C15 C14 1.398 . S
C15 C16 1.352 . S
C16 C15 1.352 . S
C16 C17 1.384 . S
C16 H38 0.930 . S
C17 C12 1.407 . S
C17 C16 1.384 . S
C17 H39 0.929 . S
C18 O28 1.241 . S
C18 O29 1.273 1_556 S
C19 O30 1.251 . S
C19 O31 1.268 . S
O20 Nd0 2.500 . S
O20 C2 1.258 . S
O21 Nd0 2.492 . S
O21 C2 1.239 . S
O22 Nd0 2.487 . S
O22 C9 1.241 . S
O23 Nd0 2.682 . S
O23 Nd1 2.414 . S
O23 C9 1.273 . S
O24 Nd0 2.410 . S
O24 C10 1.251 . S
O25 Nd1 2.424 . S
O25 C10 1.268 . S
O26 Nd1 2.500 1_655 S
O26 C11 1.258 . S
O27 Nd1 2.492 1_655 S
O27 C11 1.239 . S
O28 Nd1 2.487 1_556 S
O28 C18 1.241 . S
O29 Nd0 2.414 . S
O29 Nd1 2.682 . S
O29 C18 1.273 1_554 S
O30 Nd1 2.410 1_655 S
O30 C19 1.251 . S
O31 Nd0 2.424 1_655 S
O31 C19 1.268 . S
H32 C4 0.930 . S
H33 C5 0.929 . S
H34 C7 0.930 . S
H35 C8 0.929 . S
H36 C13 0.930 . S
H37 C14 0.929 . S
H38 C16 0.930 . S
H39 C17 0.929 . S
Nd40 C42 2.836 1_545 S
Nd40 O60 2.500 1_545 S
Nd40 O61 2.492 1_545 S
Nd40 O62 2.487 . S
Nd40 O63 2.682 . S
Nd40 O64 2.410 1_545 S
Nd40 O69 2.414 . S
Nd40 O71 2.424 . S
Nd41 C51 2.836 . S
Nd41 O63 2.414 . S
Nd41 O65 2.424 1_545 S
Nd41 O66 2.500 . S
Nd41 O67 2.492 . S
Nd41 O68 2.487 . S
Nd41 O69 2.682 . S
Nd41 O70 2.410 . S
C42 Nd40 2.836 1_565 S
C42 C43 1.498 . S
C42 O60 1.258 . S
C42 O61 1.239 . S
C43 C42 1.498 . S
C43 C44 1.366 . S
C43 C48 1.407 . S
C44 C43 1.366 . S
C44 C45 1.392 . S
C44 H72 0.930 . S
C45 C44 1.392 . S
C45 C46 1.398 . S
C45 H73 0.929 . S
C46 C45 1.398 . S
C46 C47 1.352 . S
C47 C46 1.352 . S
C47 C48 1.384 . S
C47 H74 0.930 . S
C48 C43 1.407 . S
C48 C47 1.384 . S
C48 H75 0.929 . S
C49 O62 1.241 . S
C49 O63 1.273 . S
C50 O64 1.251 . S
C50 O65 1.268 . S
C51 Nd41 2.836 . S
C51 C52 1.498 . S
C51 O66 1.258 . S
C51 O67 1.239 . S
C52 C51 1.498 . S
C52 C53 1.366 . S
C52 C57 1.407 . S
C53 C52 1.366 . S
C53 C54 1.392 . S
C53 H76 0.930 . S
C54 C53 1.392 . S
C54 C55 1.398 . S
C54 H77 0.929 . S
C55 C54 1.398 . S
C55 C56 1.352 . S
C56 C55 1.352 . S
C56 C57 1.384 . S
C56 H78 0.930 . S
C57 C52 1.407 . S
C57 C56 1.384 . S
C57 H79 0.929 . S
C58 O68 1.241 . S
C58 O69 1.273 . S
C59 O70 1.251 . S
C59 O71 1.268 . S
O60 Nd40 2.500 1_565 S
O60 C42 1.258 . S
O61 Nd40 2.492 1_565 S
O61 C42 1.239 . S
O62 Nd40 2.487 . S
O62 C49 1.241 . S
O63 Nd40 2.682 . S
O63 Nd41 2.414 . S
O63 C49 1.273 . S
O64 Nd40 2.410 1_565 S
O64 C50 1.251 . S
O65 Nd41 2.424 1_565 S
O65 C50 1.268 . S
O66 Nd41 2.500 . S
O66 C51 1.258 . S
O67 Nd41 2.492 . S
O67 C51 1.239 . S
O68 Nd41 2.487 . S
O68 C58 1.241 . S
O69 Nd40 2.414 . S
O69 Nd41 2.682 . S
O69 C58 1.273 . S
O70 Nd41 2.410 . S
O70 C59 1.251 . S
O71 Nd40 2.424 . S
O71 C59 1.268 . S
H72 C44 0.930 . S
H73 C45 0.929 . S
H74 C47 0.930 . S
H75 C48 0.929 . S
H76 C53 0.930 . S
H77 C54 0.929 . S
H78 C56 0.930 . S
H79 C57 0.929 . S
Nd80 C82 2.836 . S
Nd80 O100 2.500 . S
Nd80 O101 2.492 . S
Nd80 O102 2.499 . S
Nd80 O103 2.682 . S
Nd80 O104 2.410 . S
Nd80 O109 2.414 . S
Nd80 O111 2.424 . S
Nd81 C91 2.836 . S
Nd81 O103 2.414 . S
Nd81 O105 2.424 . S
Nd81 O106 2.500 . S
Nd81 O107 2.492 . S
Nd81 O108 2.487 . S
Nd81 O109 2.682 . S
Nd81 O110 2.410 . S
C82 Nd80 2.836 . S
C82 C83 1.498 . S
C82 O100 1.258 . S
C82 O101 1.239 . S
C83 C82 1.498 . S
C83 C84 1.366 . S
C83 C88 1.407 . S
C84 C83 1.366 . S
C84 C85 1.392 . S
C84 H112 0.930 . S
C85 C84 1.392 . S
C85 C86 1.398 . S
C85 H113 0.929 . S
C86 C85 1.398 . S
C86 C87 1.352 . S
C87 C86 1.352 . S
C87 C88 1.384 . S
C87 H114 0.930 . S
C88 C83 1.407 . S
C88 C87 1.384 . S
C88 H115 0.929 . S
C89 O102 1.242 1_554 S
C89 O103 1.271 1_554 S
C90 O104 1.251 . S
C90 O105 1.268 . S
C91 Nd81 2.836 . S
C91 C92 1.498 . S
C91 O106 1.258 . S
C91 O107 1.239 . S
C92 C91 1.498 . S
C92 C93 1.366 . S
C92 C97 1.407 . S
C93 C92 1.366 . S
C93 C94 1.392 . S
C93 H116 0.930 . S
C94 C93 1.392 . S
C94 C95 1.398 . S
C94 H117 0.929 . S
C95 C94 1.398 . S
C95 C96 1.352 . S
C96 C95 1.352 . S
C96 C97 1.384 . S
C96 H118 0.930 . S
C97 C92 1.407 . S
C97 C96 1.384 . S
C97 H119 0.929 . S
C98 O108 1.241 . S
C98 O109 1.273 . S
C99 O110 1.251 . S
C99 O111 1.268 . S
O100 Nd80 2.500 . S
O100 C82 1.258 . S
O101 Nd80 2.492 . S
O101 C82 1.239 . S
O102 Nd80 2.499 . S
O102 C89 1.242 1_556 S
O103 Nd80 2.682 . S
O103 Nd81 2.414 . S
O103 C89 1.271 1_556 S
O104 Nd80 2.410 . S
O104 C90 1.251 . S
O105 Nd81 2.424 . S
O105 C90 1.268 . S
O106 Nd81 2.500 . S
O106 C91 1.258 . S
O107 Nd81 2.492 . S
O107 C91 1.239 . S
O108 Nd81 2.487 . S
O108 C98 1.241 . S
O109 Nd80 2.414 . S
O109 Nd81 2.682 . S
O109 C98 1.273 . S
O110 Nd81 2.410 . S
O110 C99 1.251 . S
O111 Nd80 2.424 . S
O111 C99 1.268 . S
H112 C84 0.930 . S
H113 C85 0.929 . S
H114 C87 0.930 . S
H115 C88 0.929 . S
H116 C93 0.930 . S
H117 C94 0.929 . S
H118 C96 0.930 . S
H119 C97 0.929 . S
C120 C121 1.394 . S
C120 C122 1.380 1_554 S
C120 H136 0.945 1_554 S
C121 C120 1.394 . S
C121 C125 1.383 . S
C122 C120 1.380 1_556 S
C122 C123 1.402 1_556 S
C122 H137 0.951 . S
C123 C122 1.402 1_554 S
C123 C124 1.375 . S
C123 C126 1.481 . S
C124 C123 1.375 . S
C124 C125 1.367 . S
C124 H138 0.951 . S
C125 C121 1.383 . S
C125 C124 1.367 . S
C125 H139 0.950 . S
C126 C123 1.481 . S
C126 C127 1.297 1_554 S
C126 H140 0.950 . S
C127 C126 1.297 1_556 S
C127 C128 1.479 . S
C127 H141 0.950 . S
C128 C127 1.479 . S
C128 C129 1.375 . S
C128 C134 1.404 . S
C129 C128 1.375 . S
C129 C130 1.369 . S
C129 H142 0.950 . S
C130 C129 1.369 . S
C130 C131 1.392 . S
C130 H143 0.951 . S
C131 C130 1.392 . S
C131 C133 1.384 . S
H132 C134 0.949 1_554 S
C133 C131 1.384 . S
C133 C134 1.385 . S
C133 H135 0.950 . S
C134 C128 1.404 . S
C134 H132 0.949 1_556 S
C134 C133 1.385 . S
H135 C133 0.950 . S
H136 C120 0.945 1_556 S
H137 C122 0.951 . S
H138 C124 0.951 . S
H139 C125 0.950 . S
H140 C126 0.950 . S
H141 C127 0.950 . S
H142 C129 0.950 . S
H143 C130 0.951 . S
C144 C145 1.386 . S
C144 C146 1.383 . S
C144 H160 0.951 . S
C145 C144 1.386 . S
C145 C149 1.383 . S
C146 C144 1.383 . S
C146 C147 1.402 . S
C146 H161 0.951 . S
C147 C146 1.402 . S
C147 C148 1.375 . S
C147 C150 1.481 . S
C148 C147 1.375 . S
C148 C149 1.367 . S
C148 H162 0.951 . S
C149 C145 1.383 . S
C149 C148 1.367 . S
C149 H163 0.950 . S
C150 C147 1.481 . S
C150 C151 1.297 . S
C150 H164 0.950 . S
C151 C150 1.297 . S
C151 C152 1.479 . S
C151 H165 0.950 . S
C152 C151 1.479 . S
C152 C153 1.375 . S
C152 C158 1.404 . S
C153 C152 1.375 . S
C153 C154 1.369 . S
C153 H166 0.950 . S
C154 C153 1.369 . S
C154 C155 1.392 . S
C154 H167 0.951 . S
C155 C154 1.392 . S
C155 C157 1.384 . S
H156 C158 0.949 . S
C157 C155 1.384 . S
C157 C158 1.385 . S
C157 H159 0.950 . S
C158 C152 1.404 . S
C158 H156 0.949 . S
C158 C157 1.385 . S
H159 C157 0.950 . S
H160 C144 0.951 . S
H161 C146 0.951 . S
H162 C148 0.951 . S
H163 C149 0.950 . S
H164 C150 0.950 . S
H165 C151 0.950 . S
H166 C153 0.950 . S
H167 C154 0.951 . S
C168 C169 1.386 . S
C168 C170 1.383 . S
C168 H184 0.951 . S
C169 C168 1.386 . S
C169 C173 1.383 . S
C170 C168 1.383 . S
C170 C171 1.402 . S
C170 H185 0.951 . S
C171 C170 1.402 . S
C171 C172 1.375 . S
C171 C174 1.481 . S
C172 C171 1.375 . S
C172 C173 1.367 . S
C172 H186 0.951 . S
C173 C169 1.383 . S
C173 C172 1.367 . S
C173 H187 0.950 . S
C174 C171 1.481 . S
C174 C175 1.297 . S
C174 H188 0.950 . S
C175 C174 1.297 . S
C175 C176 1.479 . S
C175 H189 0.950 . S
C176 C175 1.479 . S
C176 C177 1.375 . S
C176 C182 1.404 . S
C177 C176 1.375 . S
C177 C178 1.369 . S
C177 H190 0.950 . S
C178 C177 1.369 . S
C178 C179 1.392 . S
C178 H191 0.951 . S
C179 C178 1.392 . S
C179 C181 1.384 . S
H180 C182 0.949 . S
C181 C179 1.384 . S
C181 C182 1.385 . S
C181 H183 0.950 . S
C182 C176 1.404 . S
C182 H180 0.949 . S
C182 C181 1.385 . S
H183 C181 0.950 . S
H184 C168 0.951 . S
H185 C170 0.951 . S
H186 C172 0.951 . S
H187 C173 0.950 . S
H188 C174 0.950 . S
H189 C175 0.950 . S
H190 C177 0.950 . S
H191 C178 0.951 . S
C192 C193 1.386 . S
C192 C194 1.383 . S
C192 H208 0.951 . S
C193 C192 1.386 . S
C193 C197 1.383 . S
C194 C192 1.383 . S
C194 C195 1.402 . S
C194 H209 0.951 . S
C195 C194 1.402 . S
C195 C196 1.375 1_556 S
C195 C198 1.481 1_556 S
C196 C195 1.375 1_554 S
C196 C197 1.367 1_554 S
C196 H210 0.951 . S
C197 C193 1.383 . S
C197 C196 1.367 1_556 S
C197 H211 0.950 1_556 S
C198 C195 1.481 1_554 S
C198 C199 1.297 . S
C198 H212 0.950 . S
C199 C198 1.297 . S
C199 C200 1.479 . S
C199 H213 0.950 1_554 S
C200 C199 1.479 . S
C200 C201 1.375 . S
C200 C206 1.404 . S
C201 C200 1.375 . S
C201 C202 1.369 . S
C201 H214 0.950 1_554 S
C202 C201 1.369 . S
C202 C203 1.392 . S
C202 H215 0.951 . S
C203 C202 1.392 . S
C203 C205 1.384 . S
H204 C206 0.949 . S
C205 C203 1.384 . S
C205 C206 1.385 . S
C205 H207 0.950 . S
C206 C200 1.404 . S
C206 H204 0.949 . S
C206 C205 1.385 . S
H207 C205 0.950 . S
H208 C192 0.951 . S
H209 C194 0.951 . S
H210 C196 0.951 . S
H211 C197 0.950 1_554 S
H212 C198 0.950 . S
H213 C199 0.950 1_556 S
H214 C201 0.950 1_556 S
H215 C202 0.951 . S
C216 C217 1.386 . S
C216 C218 1.383 . S
C216 H232 0.951 . S
C217 C216 1.386 . S
C217 C221 1.383 . S
C218 C216 1.383 . S
C218 C219 1.402 . S
C218 H233 0.951 . S
C219 C218 1.402 . S
C219 C220 1.375 . S
C219 C222 1.481 . S
C220 C219 1.375 . S
C220 C221 1.367 . S
C220 H234 0.951 . S
C221 C217 1.383 . S
C221 C220 1.367 . S
C221 H235 0.950 . S
C222 C219 1.481 . S
C222 C223 1.297 . S
C222 H236 0.950 . S
C223 C222 1.297 . S
C223 C224 1.479 . S
C223 H237 0.950 . S
C224 C223 1.479 . S
C224 C225 1.375 . S
C224 C230 1.404 . S
C225 C224 1.375 . S
C225 C226 1.369 . S
C225 H238 0.950 . S
C226 C225 1.369 . S
C226 C227 1.392 . S
C226 H239 0.951 . S
C227 C226 1.392 . S
C227 C229 1.384 . S
H228 C230 0.949 . S
C229 C227 1.384 . S
C229 C230 1.385 . S
C229 H231 0.950 . S
C230 C224 1.404 . S
C230 H228 0.949 . S
C230 C229 1.385 . S
H231 C229 0.950 . S
H232 C216 0.951 . S
H233 C218 0.951 . S
H234 C220 0.951 . S
H235 C221 0.950 . S
H236 C222 0.950 . S
H237 C223 0.950 . S
H238 C225 0.950 . S
H239 C226 0.951 . S
C240 C241 1.386 . S
C240 C242 1.383 . S
C240 H256 0.951 . S
C241 C240 1.386 . S
C241 C245 1.383 . S
C242 C240 1.383 . S
C242 C243 1.402 . S
C242 H257 0.951 . S
C243 C242 1.402 . S
C243 C244 1.375 . S
C243 C246 1.481 . S
C244 C243 1.375 . S
C244 C245 1.367 . S
C244 H258 0.951 . S
C245 C241 1.383 . S
C245 C244 1.367 . S
C245 H259 0.950 . S
C246 C243 1.481 . S
C246 C247 1.297 . S
C246 H260 0.950 . S
C247 C246 1.297 . S
C247 C248 1.479 . S
C247 H261 0.950 . S
C248 C247 1.479 . S
C248 C249 1.375 . S
C248 C254 1.404 . S
C249 C248 1.375 . S
C249 C250 1.369 . S
C249 H262 0.950 . S
C250 C249 1.369 . S
C250 C251 1.392 . S
C250 H263 0.951 . S
C251 C250 1.392 . S
C251 C253 1.384 . S
H252 C254 0.949 . S
C253 C251 1.384 . S
C253 C254 1.385 . S
C253 H255 0.950 . S
C254 C248 1.404 . S
C254 H252 0.949 . S
C254 C253 1.385 . S
H255 C253 0.950 . S
H256 C240 0.951 . S
H257 C242 0.951 . S
H258 C244 0.951 . S
H259 C245 0.950 . S
H260 C246 0.950 . S
H261 C247 0.950 . S
H262 C249 0.950 . S
H263 C250 0.951 . S
C264 C265 1.386 . S
C264 C266 1.383 . S
C264 H280 0.951 1_455 S
C265 C264 1.386 . S
C265 C269 1.383 . S
C266 C264 1.383 . S
C266 C267 1.402 . S
C266 H281 0.951 1_455 S
C267 C266 1.402 . S
C267 C268 1.375 . S
C267 C270 1.481 . S
C268 C267 1.375 . S
C268 C269 1.367 . S
C268 H282 0.951 . S
C269 C265 1.383 . S
C269 C268 1.367 . S
C269 H283 0.950 . S
C270 C267 1.481 . S
C270 C271 1.297 . S
C270 H284 0.950 . S
C271 C270 1.297 . S
C271 C272 1.479 . S
C271 H285 0.950 1_455 S
C272 C271 1.479 . S
C272 C273 1.375 1_455 S
C272 C278 1.404 . S
C273 C272 1.375 1_655 S
C273 C274 1.369 . S
C273 H286 0.950 . S
C274 C273 1.369 . S
C274 C275 1.392 1_655 S
C274 H287 0.951 . S
C275 C274 1.392 1_455 S
C275 C277 1.384 . S
H276 C278 0.949 . S
C277 C275 1.384 . S
C277 C278 1.385 . S
C277 H279 0.950 . S
C278 C272 1.404 . S
C278 H276 0.949 . S
C278 C277 1.385 . S
H279 C277 0.950 . S
H280 C264 0.951 1_655 S
H281 C266 0.951 1_655 S
H282 C268 0.951 . S
H283 C269 0.950 . S
H284 C270 0.950 . S
H285 C271 0.950 1_655 S
H286 C273 0.950 . S
H287 C274 0.951 . S
C288 C289 1.386 1_565 S
C288 C290 1.383 . S
C288 H304 0.951 . S
C289 C288 1.386 1_545 S
C289 C293 1.383 . S
C290 C288 1.383 . S
C290 C291 1.402 1_565 S
C290 H305 0.951 . S
C291 C290 1.402 1_545 S
C291 C292 1.375 . S
C291 C294 1.481 . S
C292 C291 1.375 . S
C292 C293 1.367 . S
C292 H306 0.951 . S
C293 C289 1.383 . S
C293 C292 1.367 . S
C293 H307 0.950 . S
C294 C291 1.481 . S
C294 C295 1.297 1_554 S
C294 H308 0.950 . S
C295 C294 1.297 1_556 S
C295 C296 1.479 . S
C295 H309 0.950 1_546 S
C296 C295 1.479 . S
C296 C297 1.375 1_545 S
C296 C302 1.404 . S
C297 C296 1.375 1_565 S
C297 C298 1.369 . S
C297 H310 0.950 . S
C298 C297 1.369 . S
C298 C299 1.392 1_565 S
C298 H311 0.951 . S
C299 C298 1.392 1_545 S
C299 C301 1.384 . S
H300 C302 0.949 . S
C301 C299 1.384 . S
C301 C302 1.385 . S
C301 H303 0.950 . S
C302 C296 1.404 . S
C302 H300 0.949 . S
C302 C301 1.385 . S
H303 C301 0.950 . S
H304 C288 0.951 . S
H305 C290 0.951 . S
H306 C292 0.951 . S
H307 C293 0.950 . S
H308 C294 0.950 . S
H309 C295 0.950 1_564 S
H310 C297 0.950 . S
H311 C298 0.951 . S
C312 C313 1.386 . S
C312 C314 1.383 . S
C312 H328 0.951 . S
C313 C312 1.386 . S
C313 C317 1.383 . S
C314 C312 1.383 . S
C314 C315 1.402 . S
C314 H329 0.951 . S
C315 C314 1.402 . S
C315 C316 1.375 . S
C315 C318 1.481 . S
C316 C315 1.375 . S
C316 C317 1.367 . S
C316 H330 0.951 . S
C317 C313 1.383 . S
C317 C316 1.367 . S
C317 H331 0.950 . S
C318 C315 1.481 . S
C318 C319 1.297 . S
C318 H332 0.950 . S
C319 C318 1.297 . S
C319 C320 1.479 . S
C319 H333 0.950 . S
C320 C319 1.479 . S
C320 C321 1.375 . S
C320 C326 1.404 . S
C321 C320 1.375 . S
C321 C322 1.369 . S
C321 H334 0.950 . S
C322 C321 1.369 . S
C322 C323 1.392 . S
C322 H335 0.951 . S
C323 C322 1.392 . S
C323 C325 1.384 . S
H324 C326 0.949 . S
C325 C323 1.384 . S
C325 C326 1.385 . S
C325 H327 0.950 . S
C326 C320 1.404 . S
C326 H324 0.949 . S
C326 C325 1.385 . S
H327 C325 0.950 . S
H328 C312 0.951 . S
H329 C314 0.951 . S
H330 C316 0.951 . S
H331 C317 0.950 . S
H332 C318 0.950 . S
H333 C319 0.950 . S
H334 C321 0.950 . S
H335 C322 0.951 . S
C121 C10 2.549 . S
C131 C86 2.447 . S
C145 C55 1.664 . S
C155 C15 1.708 . S
C169 C50 3.062 . S
C179 C90 3.014 . S
C193 C95 2.203 . S
C203 C19 2.204 . S
C217 C46 1.440 . S
C227 C6 1.381 . S
C241 C99 2.672 . S
C251 C59 2.663 . S
C265 C18 0.516 . S
C275 C9 0.455 . S
C289 C49 0.408 . S
C299 C58 0.586 . S
C313 C98 0.375 . S
C323 C89 0.504 . S
