# Generated by pormake.
# Topology zfw, (5)-cn, num edge types: 1
# Building blocks:
#     Node 0, Type 0, BuildingBlock: XOMCOT_clean_sbu_0, # of connection points: 5
#     Node 1, Type 0, BuildingBlock: XOMCOT_clean_sbu_0, # of connection points: 5
#     Node 2, Type 0, BuildingBlock: XOMCOT_clean_sbu_0, # of connection points: 5
#     Node 3, Type 0, BuildingBlock: XOMCOT_clean_sbu_0, # of connection points: 5
#     Node 4, Type 0, BuildingBlock: XOMCOT_clean_sbu_0, # of connection points: 5
#     Node 5, Type 0, BuildingBlock: XOMCOT_clean_sbu_0, # of connection points: 5
#     Node 6, Type 0, BuildingBlock: XOMCOT_clean_sbu_0, # of connection points: 5
#     Node 7, Type 0, BuildingBlock: XOMCOT_clean_sbu_0, # of connection points: 5
#     Node 8, Type 0, BuildingBlock: XOMCOT_clean_sbu_0, # of connection points: 5
#     Node 9, Type 0, BuildingBlock: XOMCOT_clean_sbu_0, # of connection points: 5
#     Node 10, Type 0, BuildingBlock: XOMCOT_clean_sbu_0, # of connection points: 5
#     Node 11, Type 0, BuildingBlock: XOMCOT_clean_sbu_0, # of connection points: 5
#     Node 12, Type 0, BuildingBlock: XOMCOT_clean_sbu_0, # of connection points: 5
#     Node 13, Type 0, BuildingBlock: XOMCOT_clean_sbu_0, # of connection points: 5
#     Node 14, Type 0, BuildingBlock: XOMCOT_clean_sbu_0, # of connection points: 5
#     Node 15, Type 0, BuildingBlock: XOMCOT_clean_sbu_0, # of connection points: 5
#     Edge 16, Type (0, 0), BuildingBlock: KIFKEQ_clean_linker_1, # of connection points: 2
#     Edge 17, Type (0, 0), BuildingBlock: KIFKEQ_clean_linker_1, # of connection points: 2
#     Edge 18, Type (0, 0), BuildingBlock: KIFKEQ_clean_linker_1, # of connection points: 2
#     Edge 19, Type (0, 0), BuildingBlock: KIFKEQ_clean_linker_1, # of connection points: 2
#     Edge 20, Type (0, 0), BuildingBlock: KIFKEQ_clean_linker_1, # of connection points: 2
#     Edge 21, Type (0, 0), BuildingBlock: KIFKEQ_clean_linker_1, # of connection points: 2
#     Edge 22, Type (0, 0), BuildingBlock: KIFKEQ_clean_linker_1, # of connection points: 2
#     Edge 23, Type (0, 0), BuildingBlock: KIFKEQ_clean_linker_1, # of connection points: 2
#     Edge 24, Type (0, 0), BuildingBlock: KIFKEQ_clean_linker_1, # of connection points: 2
#     Edge 25, Type (0, 0), BuildingBlock: KIFKEQ_clean_linker_1, # of connection points: 2
#     Edge 26, Type (0, 0), BuildingBlock: KIFKEQ_clean_linker_1, # of connection points: 2
#     Edge 27, Type (0, 0), BuildingBlock: KIFKEQ_clean_linker_1, # of connection points: 2
#     Edge 28, Type (0, 0), BuildingBlock: KIFKEQ_clean_linker_1, # of connection points: 2
#     Edge 29, Type (0, 0), BuildingBlock: KIFKEQ_clean_linker_1, # of connection points: 2
#     Edge 30, Type (0, 0), BuildingBlock: KIFKEQ_clean_linker_1, # of connection points: 2
#     Edge 31, Type (0, 0), BuildingBlock: KIFKEQ_clean_linker_1, # of connection points: 2
#     Edge 32, Type (0, 0), BuildingBlock: KIFKEQ_clean_linker_1, # of connection points: 2
#     Edge 33, Type (0, 0), BuildingBlock: KIFKEQ_clean_linker_1, # of connection points: 2
#     Edge 34, Type (0, 0), BuildingBlock: KIFKEQ_clean_linker_1, # of connection points: 2
#     Edge 35, Type (0, 0), BuildingBlock: KIFKEQ_clean_linker_1, # of connection points: 2
#     Edge 36, Type (0, 0), BuildingBlock: KIFKEQ_clean_linker_1, # of connection points: 2
#     Edge 37, Type (0, 0), BuildingBlock: KIFKEQ_clean_linker_1, # of connection points: 2
#     Edge 38, Type (0, 0), BuildingBlock: KIFKEQ_clean_linker_1, # of connection points: 2
#     Edge 39, Type (0, 0), BuildingBlock: KIFKEQ_clean_linker_1, # of connection points: 2
#     Edge 40, Type (0, 0), BuildingBlock: KIFKEQ_clean_linker_1, # of connection points: 2
#     Edge 41, Type (0, 0), BuildingBlock: KIFKEQ_clean_linker_1, # of connection points: 2
#     Edge 42, Type (0, 0), BuildingBlock: KIFKEQ_clean_linker_1, # of connection points: 2
#     Edge 43, Type (0, 0), BuildingBlock: KIFKEQ_clean_linker_1, # of connection points: 2
#     Edge 44, Type (0, 0), BuildingBlock: KIFKEQ_clean_linker_1, # of connection points: 2
#     Edge 45, Type (0, 0), BuildingBlock: KIFKEQ_clean_linker_1, # of connection points: 2
#     Edge 46, Type (0, 0), BuildingBlock: KIFKEQ_clean_linker_1, # of connection points: 2
#     Edge 47, Type (0, 0), BuildingBlock: KIFKEQ_clean_linker_1, # of connection points: 2
#     Edge 48, Type (0, 0), BuildingBlock: KIFKEQ_clean_linker_1, # of connection points: 2
#     Edge 49, Type (0, 0), BuildingBlock: KIFKEQ_clean_linker_1, # of connection points: 2
#     Edge 50, Type (0, 0), BuildingBlock: KIFKEQ_clean_linker_1, # of connection points: 2
#     Edge 51, Type (0, 0), BuildingBlock: KIFKEQ_clean_linker_1, # of connection points: 2
#     Edge 52, Type (0, 0), BuildingBlock: KIFKEQ_clean_linker_1, # of connection points: 2
#     Edge 53, Type (0, 0), BuildingBlock: KIFKEQ_clean_linker_1, # of connection points: 2
#     Edge 54, Type (0, 0), BuildingBlock: KIFKEQ_clean_linker_1, # of connection points: 2
#     Edge 55, Type (0, 0), BuildingBlock: KIFKEQ_clean_linker_1, # of connection points: 2
# Relax obj value: 0.253
# Max RMSD: 0.217
# Mean RMSD: 0.201
data_MOF--net-zfw--node1-XOMCOT_clean_sbu_0--edge1-KIFKEQ_clean_linker_1
_symmetry_space_group_name_H-M    P1
_symmetry_Int_Tables_number       1
_symmetry_cell_setting            triclinic
loop_
_symmetry_equiv_pos_as_xyz
'x, y, z'
_cell_length_a     69.985754
_cell_length_b     69.282675
_cell_length_c     17.343797
_cell_angle_alpha  89.964087
_cell_angle_beta   89.939261
_cell_angle_gamma 89.972268
loop_
_atom_site_label
_atom_site_type_symbol
_atom_site_fract_x
_atom_site_fract_y
_atom_site_fract_z
_atom_type_partial_charge
Co0 Co 0.09298 0.09799 0.24954 0.0
C1 C 0.09584 0.09255 0.41674 0.0
C2 C 0.10018 0.06565 0.35945 0.0
C3 C 0.10227 0.06276 0.43781 0.0
N4 N 0.0954 0.0843 0.34665 0.0
N5 N 0.09927 0.07978 0.47312 0.0
H6 H 0.09499 0.10789 0.42692 0.0
H7 H 0.1028 0.05497 0.31542 0.0
C8 C 0.07814 0.0587 0.19918 0.0
O9 O 0.06597 0.05846 0.25695 0.0
N10 N 0.09147 0.11135 0.15321 0.0
C11 C 0.08227 0.12781 0.13495 0.0
C12 C 0.08389 0.13058 0.05631 0.0
C13 C 0.09889 0.10466 0.0873 0.0
N14 N 0.0942 0.11583 0.02688 0.0
C15 C 0.0596 0.11117 0.32845 0.0
C16 C 0.03298 0.10262 0.21644 0.0
C17 C 0.02699 0.11202 0.28405 0.0
C18 C 0.04058 0.11604 0.34049 0.0
C19 C 0.0523 0.09732 0.20778 0.0
N20 N 0.06539 0.10144 0.26413 0.0
H21 H 0.06971 0.11652 0.36927 0.0
H22 H 0.05687 0.09074 0.15435 0.0
H23 H 0.07432 0.13664 0.17518 0.0
H24 H 0.1072 0.09153 0.08359 0.0
O25 O 0.10117 0.12161 0.29749 0.0
O26 O 0.12078 0.10004 0.24618 0.0
O27 O 0.08969 0.07285 0.19107 0.0
C28 C 0.11859 0.11647 0.28193 0.0
H29 H 0.10589 0.04935 0.46631 0.0
H30 H 0.07716 0.14191 0.02303 0.0
H31 H 0.02295 0.09978 0.17033 0.0
H32 H 0.03677 0.12411 0.39179 0.0
Co33 Co 0.23802 0.77235 0.52512 0.0
C34 C 0.24365 0.77724 0.69167 0.0
C35 C 0.27076 0.77804 0.63553 0.0
C36 C 0.27362 0.77942 0.71425 0.0
N37 N 0.25188 0.77576 0.62172 0.0
N38 N 0.25644 0.77857 0.74904 0.0
H39 H 0.22841 0.77734 0.7012 0.0
H40 H 0.28183 0.77888 0.59239 0.0
C41 C 0.27651 0.75785 0.46819 0.0
O42 O 0.27723 0.74523 0.52469 0.0
N43 N 0.2243 0.76983 0.42999 0.0
C44 C 0.2083 0.75967 0.41541 0.0
C45 C 0.2052 0.75986 0.33687 0.0
C46 C 0.2303 0.77661 0.36167 0.0
N47 N 0.21911 0.77051 0.30369 0.0
C48 C 0.22805 0.73826 0.60922 0.0
C49 C 0.23297 0.71202 0.4913 0.0
C50 C 0.22461 0.70583 0.5607 0.0
C51 C 0.22277 0.71914 0.62061 0.0
C52 C 0.23879 0.73135 0.48319 0.0
N53 N 0.236 0.74438 0.54157 0.0
H54 H 0.22409 0.74828 0.65328 0.0
H55 H 0.24431 0.73611 0.42813 0.0
H56 H 0.20013 0.75184 0.45818 0.0
H57 H 0.24327 0.78488 0.35402 0.0
O58 O 0.21451 0.77955 0.57467 0.0
O59 O 0.23443 0.80028 0.52015 0.0
O60 O 0.26267 0.76987 0.46396 0.0
C61 C 0.2185 0.79734 0.55758 0.0
H62 H 0.28724 0.78052 0.74341 0.0
H63 H 0.19408 0.75218 0.30631 0.0
H64 H 0.23426 0.70224 0.44287 0.0
H65 H 0.21568 0.71525 0.67398 0.0
Co66 Co 0.55834 0.91822 0.78225 0.0
C67 C 0.55171 0.92499 0.94923 0.0
C68 C 0.55913 0.95149 0.89357 0.0
C69 C 0.55744 0.95485 0.97168 0.0
N70 N 0.55614 0.93254 0.87942 0.0
N71 N 0.55275 0.93812 0.00616 0.0
H72 H 0.54892 0.90988 0.95973 0.0
H73 H 0.56235 0.96238 0.85129 0.0
C74 C 0.57623 0.95504 0.716 0.0
O75 O 0.59076 0.95406 0.76377 0.0
N76 N 0.55977 0.90431 0.68605 0.0
C77 C 0.56851 0.88741 0.67062 0.0
C78 C 0.56804 0.88442 0.59187 0.0
C79 C 0.55354 0.91099 0.61765 0.0
N80 N 0.55856 0.89928 0.55916 0.0
C81 C 0.59061 0.90618 0.87006 0.0
C82 C 0.61785 0.90812 0.75514 0.0
C83 C 0.62301 0.90052 0.82735 0.0
C84 C 0.60911 0.89989 0.8852 0.0
C85 C 0.59906 0.91464 0.74267 0.0
N86 N 0.58565 0.91372 0.80013 0.0
H87 H 0.58005 0.90376 0.91385 0.0
H88 H 0.59515 0.91979 0.68597 0.0
H89 H 0.57557 0.87844 0.71301 0.0
H90 H 0.54636 0.9247 0.61022 0.0
O91 O 0.54909 0.89523 0.83232 0.0
O92 O 0.5306 0.91709 0.77612 0.0
O93 O 0.56251 0.94291 0.72098 0.0
C94 C 0.53198 0.90093 0.81441 0.0
H95 H 0.55966 0.96846 0.00097 0.0
H96 H 0.57459 0.87258 0.56086 0.0
H97 H 0.62808 0.90864 0.70831 0.0
H98 H 0.61212 0.89343 0.94078 0.0
Co99 Co 0.42008 0.23553 0.97934 0.0
C100 C 0.41443 0.22896 0.14687 0.0
C101 C 0.38741 0.23167 0.09056 0.0
C102 C 0.38426 0.2293 0.1685 0.0
N103 N 0.40645 0.23229 0.07711 0.0
N104 N 0.40132 0.22756 0.20331 0.0
H105 H 0.42963 0.22802 0.15725 0.0
H106 H 0.37634 0.23239 0.0476 0.0
C107 C 0.38229 0.2525 0.9242 0.0
O108 O 0.38262 0.26548 0.97938 0.0
N109 N 0.4334 0.23787 0.88253 0.0
C110 C 0.44949 0.24778 0.86636 0.0
C111 C 0.45239 0.2473 0.7876 0.0
C112 C 0.42714 0.23097 0.81465 0.0
N113 N 0.43832 0.23667 0.75572 0.0
C114 C 0.43214 0.26809 0.06689 0.0
C115 C 0.42734 0.29612 0.9555 0.0
C116 C 0.43584 0.3012 0.02603 0.0
C117 C 0.43789 0.2869 0.0822 0.0
C118 C 0.4213 0.277 0.94305 0.0
N119 N 0.42374 0.26317 -0.00129 0.0
H120 H 0.43573 0.25731 0.10872 0.0
H121 H 0.41549 0.27313 0.88743 0.0
H122 H 0.45798 0.25551 0.90828 0.0
H123 H 0.41412 0.22273 0.80803 0.0
O124 O 0.44341 0.22677 0.02602 0.0
O125 O 0.422 0.20749 0.97203 0.0
O126 O 0.39532 0.23956 0.92037 0.0
C127 C 0.43829 0.20935 0.00783 0.0
H128 H 0.37053 0.22872 0.19728 0.0
H129 H 0.46362 0.25458 0.75602 0.0
H130 H 0.42579 0.30669 0.90989 0.0
H131 H 0.44506 0.28988 0.13623 0.0
Co132 Co 0.09302 0.91461 0.73817 0.0
C133 C 0.09916 0.92036 0.57045 0.0
C134 C 0.09839 0.94763 0.62788 0.0
C135 C 0.10072 0.95084 0.54989 0.0
N136 N 0.09656 0.92846 0.64068 0.0
N137 N 0.10125 0.93361 0.5144 0.0
H138 H 0.09923 0.905 0.5595 0.0
H139 H 0.09859 0.95871 0.6714 0.0
C140 C 0.07785 0.95336 0.79398 0.0
O141 O 0.06544 0.95398 0.73725 0.0
N142 N 0.09042 0.90106 0.83471 0.0
C143 C 0.07989 0.8853 0.85123 0.0
C144 C 0.08017 0.88251 0.9301 0.0
C145 C 0.09749 0.90718 0.90253 0.0
N146 N 0.0913 0.89629 0.96173 0.0
C147 C 0.05996 0.90391 0.65185 0.0
C148 C 0.03304 0.90939 0.76611 0.0
C149 C 0.02739 0.90095 0.69611 0.0
C150 C 0.04108 0.89869 0.63823 0.0
C151 C 0.05217 0.91502 0.77663 0.0
N152 N 0.06549 0.91208 0.71987 0.0
H153 H 0.07028 0.9 0.60896 0.0
H154 H 0.05646 0.92072 0.83198 0.0
H155 H 0.07179 0.87708 0.80953 0.0
H156 H 0.10614 0.92003 0.90896 0.0
O157 O 0.10077 0.89091 0.68985 0.0
O158 O 0.12069 0.91154 0.74484 0.0
O159 O 0.08995 0.93956 0.79839 0.0
C160 C 0.11824 0.89535 0.70769 0.0
H161 H 0.1022 0.9647 0.5216 0.0
H162 H 0.07238 0.87161 0.96194 0.0
H163 H 0.02292 0.91107 0.81292 0.0
H164 H 0.03756 0.8916 0.58443 0.0
Co165 Co 0.41789 0.77636 0.00497 0.0
C166 C 0.41203 0.78136 0.83795 0.0
C167 C 0.38531 0.78302 0.89712 0.0
C168 C 0.38215 0.78636 0.81968 0.0
N169 N 0.40405 0.77917 0.90823 0.0
N170 N 0.39909 0.78541 0.78317 0.0
H171 H 0.42717 0.78072 0.82664 0.0
H172 H 0.37469 0.78438 0.94193 0.0
C173 C 0.37963 0.75971 0.05682 0.0
O174 O 0.37912 0.74801 -0.00275 0.0
N175 N 0.43122 0.77457 0.10132 0.0
C176 C 0.44677 0.76432 0.12145 0.0
C177 C 0.44909 0.76595 0.20034 0.0
C178 C 0.42471 0.78263 0.16647 0.0
N179 N 0.43504 0.77738 0.22857 0.0
C180 C 0.4318 0.74389 0.92085 0.0
C181 C 0.42397 0.71558 0.02822 0.0
C182 C 0.43345 0.71049 0.95969 0.0
C183 C 0.43716 0.72497 0.90572 0.0
C184 C 0.41835 0.73486 0.04035 0.0
N185 N 0.42211 0.74878 0.98631 0.0
H186 H 0.43658 0.75471 0.88126 0.0
H187 H 0.41175 0.73871 0.09458 0.0
H188 H 0.4552 0.7556 0.08248 0.0
H189 H 0.41221 0.79177 0.16776 0.0
O190 O 0.44078 0.7859 0.95628 0.0
O191 O 0.41901 0.80439 0.0126 0.0
O192 O 0.39338 0.77169 0.06466 0.0
C193 C 0.43503 0.80313 0.97445 0.0
H194 H 0.36865 0.78998 0.79292 0.0
H195 H 0.45973 0.75847 0.23426 0.0
H196 H 0.42125 0.70487 0.0724 0.0
H197 H 0.4452 0.72192 0.85369 0.0
Co198 Co 0.55771 0.0916 0.22104 0.0
C199 C 0.54603 0.08455 0.0597 0.0
C200 C 0.56256 0.06086 0.10227 0.0
C201 C 0.55961 0.05827 0.02441 0.0
N202 N 0.5544 0.07764 0.12423 0.0
N203 N 0.54951 0.07341 -0.00235 0.0
H204 H 0.53891 0.09833 0.05619 0.0
H205 H 0.57123 0.05169 0.13803 0.0
C206 C 0.57689 0.05572 0.2895 0.0
O207 O 0.59276 0.05887 0.25115 0.0
N208 N 0.55999 0.10496 0.31787 0.0
C209 C 0.56579 0.12316 0.33218 0.0
C210 C 0.5641 0.12653 0.41039 0.0
C211 C 0.55444 0.09775 0.38617 0.0
N212 N 0.55688 0.1105 0.4438 0.0
C213 C 0.58904 0.1015 0.12345 0.0
C214 C 0.61626 0.1073 0.23595 0.0
C215 C 0.62021 0.11332 0.16011 0.0
C216 C 0.60662 0.10932 0.10334 0.0
C217 C 0.59848 0.09882 0.25352 0.0
N218 N 0.58483 0.09638 0.19767 0.0
H219 H 0.57842 0.10101 0.07893 0.0
H220 H 0.59543 0.09505 0.31276 0.0
H221 H 0.57089 0.13319 0.289 0.0
H222 H 0.54883 0.08334 0.39359 0.0
O223 O 0.54833 0.11507 0.17582 0.0
O224 O 0.52997 0.09296 0.23161 0.0
O225 O 0.56221 0.06639 0.27844 0.0
C226 C 0.53138 0.10969 0.1974 0.0
H227 H 0.56587 0.04701 0.98924 0.0
H228 H 0.56771 0.13976 0.4401 0.0
H229 H 0.6263 0.11006 0.28207 0.0
H230 H 0.60903 0.11324 0.04364 0.0
Co231 Co 0.23474 0.23725 0.49281 0.0
C232 C 0.24334 0.23935 0.32525 0.0
C233 C 0.26304 0.22132 0.38633 0.0
C234 C 0.26654 0.21945 0.30848 0.0
N235 N 0.24849 0.23386 0.39684 0.0
N236 N 0.25415 0.2309 0.27069 0.0
H237 H 0.23102 0.24794 0.31159 0.0
H238 H 0.26987 0.21323 0.43199 0.0
C239 C 0.27515 0.25044 0.53024 0.0
O240 O 0.27725 0.2577 0.46076 0.0
N241 N 0.22149 0.23986 0.58903 0.0
C242 C 0.20448 0.24808 0.60439 0.0
C243 C 0.20145 0.24719 0.68306 0.0
C244 C 0.22839 0.2339 0.6571 0.0
N245 N 0.21659 0.23827 0.71594 0.0
C246 C 0.21605 0.26876 0.41861 0.0
C247 C 0.23237 0.29866 0.50023 0.0
C248 C 0.219 0.30286 0.44236 0.0
C249 C 0.21085 0.28763 0.40166 0.0
C250 C 0.23769 0.27934 0.51395 0.0
N251 N 0.22995 0.26463 0.47146 0.0
H252 H 0.2084 0.25745 0.3895 0.0
H253 H 0.24737 0.27632 0.56074 0.0
H254 H 0.19515 0.25452 0.56184 0.0
H255 H 0.24217 0.22702 0.66324 0.0
O256 O 0.21194 0.22686 0.4466 0.0
O257 O 0.23406 0.20918 0.50431 0.0
O258 O 0.25942 0.2425 0.54992 0.0
C259 C 0.21782 0.20996 0.46781 0.0
H260 H 0.27676 0.20982 0.28164 0.0
H261 H 0.18915 0.25284 0.71342 0.0
H262 H 0.23841 0.3101 0.53497 0.0
H263 H 0.19985 0.29025 0.35893 0.0
Co264 Co 0.91645 0.27582 0.47684 0.0
C265 C 0.90805 0.27336 0.31049 0.0
C266 C 0.88588 0.28816 0.37145 0.0
C267 C 0.88221 0.28947 0.29344 0.0
N268 N 0.902 0.2778 0.38204 0.0
N269 N 0.89622 0.28007 0.25557 0.0
H270 H 0.92168 0.26702 0.29747 0.0
H271 H 0.87793 0.29517 0.41703 0.0
C272 C 0.87694 0.26121 0.52334 0.0
O273 O 0.87454 0.25288 0.45601 0.0
N274 N 0.93039 0.27453 0.57194 0.0
C275 C 0.94576 0.26388 0.59095 0.0
C276 C 0.94802 0.26475 0.66998 0.0
C277 C 0.92384 0.28199 0.63828 0.0
N278 N 0.93404 0.27601 0.69977 0.0
C279 C 0.93578 0.24447 0.40374 0.0
C280 C 0.91993 0.21431 0.4855 0.0
C281 C 0.93293 0.21027 0.42596 0.0
C282 C 0.94094 0.22566 0.38559 0.0
C283 C 0.91466 0.23359 0.50052 0.0
N284 N 0.92205 0.24843 0.4576 0.0
H285 H 0.94335 0.25584 0.37465 0.0
H286 H 0.90522 0.23644 0.54833 0.0
H287 H 0.95399 0.25518 0.55123 0.0
H288 H 0.91117 0.29088 0.64102 0.0
O289 O 0.9383 0.28678 0.4251 0.0
O290 O 0.91618 0.30396 0.48491 0.0
O291 O 0.89246 0.27014 0.53846 0.0
C292 C 0.93186 0.30362 0.44441 0.0
H293 H 0.87062 0.29736 0.2667 0.0
H294 H 0.95842 0.25666 0.70291 0.0
H295 H 0.91403 0.20275 0.52016 0.0
H296 H 0.95174 0.22322 0.34181 0.0
Co297 Co 0.73493 0.73634 0.00091 0.0
C298 C 0.74083 0.72986 0.83338 0.0
C299 C 0.7678 0.73237 0.89017 0.0
C300 C 0.77101 0.73012 0.81216 0.0
N301 N 0.74875 0.733 0.90343 0.0
N302 N 0.75397 0.7285 0.77705 0.0
H303 H 0.72563 0.72916 0.82262 0.0
H304 H 0.77884 0.73304 0.93326 0.0
C305 C 0.77289 0.752 0.05979 0.0
O306 O 0.77306 0.76527 0.00561 0.0
N307 N 0.72141 0.73875 0.09737 0.0
C308 C 0.70566 0.7492 0.1137 0.0
C309 C 0.70283 0.74885 0.19254 0.0
C310 C 0.72746 0.73161 0.16526 0.0
N311 N 0.71656 0.73774 0.22437 0.0
C312 C 0.7245 0.76964 0.91419 0.0
C313 C 0.72889 0.79691 0.02865 0.0
C314 C 0.72084 0.80252 0.95786 0.0
C315 C 0.71909 0.78861 0.90004 0.0
C316 C 0.73463 0.77764 0.03993 0.0
N317 N 0.73229 0.76416 0.98294 0.0
H318 H 0.72105 0.75918 0.87096 0.0
H319 H 0.74004 0.77338 0.09579 0.0
H320 H 0.69748 0.75732 0.07191 0.0
H321 H 0.74021 0.72295 0.17182 0.0
O322 O 0.71154 0.72868 0.95209 0.0
O323 O 0.73185 0.70834 0.00658 0.0
O324 O 0.75964 0.73929 0.06149 0.0
C325 C 0.71588 0.71097 0.9691 0.0
H326 H 0.78475 0.72955 0.78355 0.0
H327 H 0.69193 0.75661 0.22422 0.0
H328 H 0.73024 0.80716 0.07544 0.0
H329 H 0.71228 0.792 0.84559 0.0
Co330 Co 0.73543 0.27838 0.98736 0.0
C331 C 0.74239 0.27797 0.15432 0.0
C332 C 0.76799 0.2856 0.09465 0.0
C333 C 0.77159 0.28589 0.1731 0.0
N334 N 0.74975 0.27996 0.08306 0.0
N335 N 0.75539 0.28086 0.21012 0.0
H336 H 0.72746 0.27589 0.16617 0.0
H337 H 0.7779 0.28969 0.04969 0.0
C338 C 0.77386 0.26179 0.93609 0.0
O339 O 0.77506 0.25117 -0.00131 0.0
N340 N 0.72136 0.2773 0.89249 0.0
C341 C 0.70535 0.26725 0.87685 0.0
C342 C 0.7028 0.26704 0.79799 0.0
C343 C 0.72796 0.28354 0.8241 0.0
N344 N 0.71709 0.27727 0.76538 0.0
C345 C 0.71734 0.24671 0.06346 0.0
C346 C 0.72957 0.2173 0.9685 0.0
C347 C 0.71769 0.21284 0.03144 0.0
C348 C 0.71161 0.22791 0.07878 0.0
C349 C 0.73544 0.23651 0.95623 0.0
N350 N 0.72982 0.25095 0.00525 0.0
H351 H 0.71061 0.25789 0.0964 0.0
H352 H 0.74371 0.23979 0.90535 0.0
H353 H 0.69693 0.25951 0.91903 0.0
H354 H 0.74134 0.29116 0.81695 0.0
O355 O 0.71344 0.28914 0.03888 0.0
O356 O 0.73572 0.3065 0.98055 0.0
O357 O 0.75946 0.27284 0.92556 0.0
C358 C 0.71994 0.30604 0.02049 0.0
H359 H 0.78496 0.28966 0.20049 0.0
H360 H 0.69194 0.25914 0.76681 0.0
H361 H 0.73396 0.20615 0.92849 0.0
H362 H 0.7015 0.2254 0.12508 0.0
Co363 Co 0.915 0.73587 0.51916 0.0
C364 C 0.90622 0.73942 0.68567 0.0
C365 C 0.88527 0.72267 0.62586 0.0
C366 C 0.8819 0.7211 0.70398 0.0
N367 N 0.90052 0.73425 0.61433 0.0
N368 N 0.89512 0.73171 0.74108 0.0
H369 H 0.91925 0.74698 0.6984 0.0
H370 H 0.87795 0.71481 0.58084 0.0
C371 C 0.87533 0.75025 0.47377 0.0
O372 O 0.8725 0.75781 0.54227 0.0
N373 N 0.92903 0.7368 0.42394 0.0
C374 C 0.94621 0.74462 0.40846 0.0
C375 C 0.94924 0.74359 0.32977 0.0
C376 C 0.92205 0.73092 0.3558 0.0
N377 N 0.93392 0.73504 0.29674 0.0
C378 C 0.93506 0.76703 0.5899 0.0
C379 C 0.91954 0.79717 0.5069 0.0
C380 C 0.93292 0.80118 0.56495 0.0
C381 C 0.94073 0.78581 0.60611 0.0
C382 C 0.91378 0.77796 0.49384 0.0
N383 N 0.92107 0.76316 0.53719 0.0
H384 H 0.94234 0.7556 0.6199 0.0
H385 H 0.904 0.77512 0.44723 0.0
H386 H 0.95553 0.75114 0.45073 0.0
H387 H 0.90806 0.72453 0.34966 0.0
O388 O 0.93663 0.72456 0.57116 0.0
O389 O 0.91424 0.70775 0.51152 0.0
O390 O 0.89111 0.74188 0.4578 0.0
C391 C 0.92987 0.70782 0.55222 0.0
H392 H 0.87125 0.71208 0.73145 0.0
H393 H 0.96159 0.74913 0.29946 0.0
H394 H 0.91372 0.8087 0.47187 0.0
H395 H 0.95172 0.78822 0.64903 0.0
Co396 Co 0.59253 0.59263 0.77995 0.0
C397 C 0.60149 0.58644 0.94398 0.0
C398 C 0.59026 0.56045 0.8959 0.0
C399 C 0.59232 0.55795 0.97441 0.0
N400 N 0.59552 0.57861 0.87699 0.0
N401 N 0.59906 0.57452 0.00436 0.0
H402 H 0.60631 0.60114 0.95006 0.0
H403 H 0.58461 0.54978 0.85716 0.0
C404 C 0.576 0.55551 0.71167 0.0
O405 O 0.56063 0.55686 0.75481 0.0
N406 N 0.59043 0.60634 0.68409 0.0
C407 C 0.58284 0.62388 0.67021 0.0
C408 C 0.58395 0.62741 0.59201 0.0
C409 C 0.59649 0.59972 0.61565 0.0
N410 N 0.59257 0.61215 0.55827 0.0
C411 C 0.55969 0.602 0.86975 0.0
C412 C 0.53317 0.60264 0.75214 0.0
C413 C 0.52774 0.60929 0.82554 0.0
C414 C 0.54122 0.60843 0.88487 0.0
C415 C 0.55189 0.59596 0.7396 0.0
N416 N 0.56503 0.59581 0.79812 0.0
H417 H 0.56999 0.60346 0.91519 0.0
H418 H 0.556 0.59162 0.68205 0.0
H419 H 0.57653 0.63315 0.71347 0.0
H420 H 0.6031 0.58575 0.60761 0.0
O421 O 0.60023 0.61631 0.82818 0.0
O422 O 0.62028 0.59559 0.77426 0.0
O423 O 0.58977 0.5675 0.72003 0.0
C424 C 0.61773 0.61194 0.81036 0.0
H425 H 0.58797 0.54542 0.0073 0.0
H426 H 0.57863 0.64006 0.56228 0.0
H427 H 0.52325 0.60314 0.70433 0.0
H428 H 0.538 0.61401 0.94176 0.0
Co429 Co 0.0573 0.41476 0.25064 0.0
C430 C 0.0606 0.42354 0.4173 0.0
C431 C 0.04466 0.44511 0.35674 0.0
C432 C 0.0431 0.44863 0.43479 0.0
N433 N 0.05573 0.42939 0.34574 0.0
N434 N 0.05323 0.43504 0.47232 0.0
H435 H 0.0677 0.4102 0.43049 0.0
H436 H 0.03715 0.45269 0.31142 0.0
C437 C 0.07197 0.45454 0.20454 0.0
O438 O 0.0803 0.45677 0.27177 0.0
N439 N 0.05817 0.40062 0.15543 0.0
C440 C 0.06612 0.3834 0.13965 0.0
C441 C 0.06504 0.38038 0.06098 0.0
C442 C 0.05213 0.40765 0.08749 0.0
N443 N 0.05632 0.39578 0.02821 0.0
C444 C 0.08855 0.39511 0.32167 0.0
C445 C 0.11793 0.41047 0.23511 0.0
C446 C 0.12224 0.39746 0.29461 0.0
C447 C 0.10726 0.38969 0.33753 0.0
C448 C 0.09882 0.416 0.22244 0.0
N449 N 0.0844 0.40887 0.26773 0.0
H450 H 0.07739 0.38773 0.35253 0.0
H451 H 0.09573 0.42541 0.17454 0.0
H452 H 0.07281 0.37405 0.18169 0.0
H453 H 0.04558 0.42169 0.08173 0.0
O454 O 0.04641 0.39278 0.30301 0.0
O455 O 0.02945 0.41528 0.24391 0.0
O456 O 0.06293 0.43899 0.18926 0.0
C457 C 0.02974 0.39945 0.28446 0.0
H458 H 0.03446 0.45967 0.46191 0.0
H459 H 0.07069 0.36802 0.03052 0.0
H460 H 0.12916 0.41616 0.19858 0.0
H461 H 0.10993 0.37889 0.38148 0.0
Co462 Co 0.59611 0.42039 0.21021 0.0
C463 C 0.60421 0.42732 0.04578 0.0
C464 C 0.59205 0.4527 0.09543 0.0
C465 C 0.5936 0.45538 0.01677 0.0
N466 N 0.59821 0.43477 0.11349 0.0
N467 N 0.60094 0.43917 0.98587 0.0
H468 H 0.60962 0.41287 0.03887 0.0
H469 H 0.5861 0.46304 0.1349 0.0
C470 C 0.57734 0.4565 0.27949 0.0
O471 O 0.56204 0.45457 0.2364 0.0
N472 N 0.59478 0.40641 0.3057 0.0
C473 C 0.5879 0.38858 0.31957 0.0
C474 C 0.58893 0.38517 0.39791 0.0
C475 C 0.60036 0.41334 0.37429 0.0
N476 N 0.5968 0.40081 0.43176 0.0
C477 C 0.56416 0.40855 0.12011 0.0
C478 C 0.5371 0.40776 0.23591 0.0
C479 C 0.53215 0.40078 0.1625 0.0
C480 C 0.54595 0.40157 0.10422 0.0
C481 C 0.55559 0.41496 0.24924 0.0
N482 N 0.56893 0.41538 0.1914 0.0
H483 H 0.57474 0.40719 0.07556 0.0
H484 H 0.55933 0.41963 0.30674 0.0
H485 H 0.58202 0.37905 0.27627 0.0
H486 H 0.60625 0.42761 0.38238 0.0
O487 O 0.60575 0.39744 0.16097 0.0
O488 O 0.62389 0.41956 0.21715 0.0
O489 O 0.5916 0.44513 0.27087 0.0
C490 C 0.62277 0.40328 0.17961 0.0
H491 H 0.58854 0.46774 0.98452 0.0
H492 H 0.58401 0.37237 0.42767 0.0
H493 H 0.52695 0.40727 0.28303 0.0
H494 H 0.54314 0.39567 0.04752 0.0
Co495 Co 0.05405 0.59717 0.74372 0.0
C496 C 0.05679 0.58952 0.57737 0.0
C497 C 0.0462 0.56471 0.63673 0.0
C498 C 0.04616 0.56093 0.55842 0.0
N499 N 0.05334 0.58254 0.64845 0.0
N500 N 0.05295 0.57664 0.52143 0.0
H501 H 0.06052 0.60426 0.56571 0.0
H502 H 0.0408 0.55533 0.68161 0.0
C503 C 0.07161 0.55862 0.79252 0.0
O504 O 0.08079 0.55688 0.72679 0.0
N505 N 0.05434 0.6115 0.83855 0.0
C506 C 0.06364 0.62805 0.85451 0.0
C507 C 0.06381 0.63053 0.93343 0.0
C508 C 0.04851 0.60449 0.90697 0.0
N509 N 0.05431 0.61566 0.96585 0.0
C510 C 0.0834 0.61923 0.67141 0.0
C511 C 0.11451 0.60596 0.75321 0.0
C512 C 0.11726 0.62036 0.69712 0.0
C513 C 0.10136 0.62665 0.65556 0.0
C514 C 0.09601 0.59859 0.76681 0.0
N515 N 0.0807 0.60488 0.7244 0.0
H516 H 0.0716 0.62583 0.64203 0.0
H517 H 0.09407 0.58857 0.81369 0.0
H518 H 0.07093 0.63695 0.81257 0.0
H519 H 0.04162 0.59062 0.91401 0.0
O520 O 0.04164 0.61836 0.69204 0.0
O521 O 0.02627 0.59483 0.75177 0.0
O522 O 0.06129 0.57348 0.80569 0.0
C523 C 0.02549 0.61065 0.7113 0.0
H524 H 0.04113 0.54786 0.53108 0.0
H525 H 0.07124 0.64176 0.96477 0.0
H526 H 0.12634 0.60101 0.78823 0.0
H527 H 0.10262 0.63772 0.61168 0.0
H528 H 0.22587 0.17867 0.37716 0.0
H529 H 0.18244 0.20383 0.52187 0.0
H530 H 0.2028 0.15452 0.33137 0.0
H531 H 0.15972 0.17937 0.48028 0.0
H532 H 0.11712 0.15435 0.31788 0.0
H533 H 0.14238 0.1748 0.3665 0.0
H534 H 0.18202 0.12703 0.35393 0.0
H535 H 0.15648 0.10654 0.30166 0.0
C536 C 0.21155 0.17856 0.40101 0.0
C537 C 0.20582 0.19296 0.45299 0.0
C538 C 0.19832 0.16479 0.37481 0.0
C539 C 0.17922 0.16521 0.40074 0.0
C540 C 0.17408 0.17892 0.457 0.0
C541 C 0.18713 0.19279 0.48181 0.0
C542 C 0.13123 0.14816 0.32515 0.0
C543 C 0.13476 0.12879 0.30642 0.0
C544 C 0.14574 0.15987 0.35388 0.0
C545 C 0.16423 0.15251 0.36618 0.0
C546 C 0.16797 0.13321 0.34533 0.0
C547 C 0.15337 0.12146 0.31544 0.0
H548 H 0.1852 0.79344 0.63563 0.0
H549 H 0.22188 0.83672 0.53415 0.0
H550 H 0.16252 0.81821 0.67239 0.0
H551 H 0.19872 0.86186 0.57126 0.0
H552 H 0.15709 0.90024 0.72953 0.0
H553 H 0.18275 0.87771 0.69264 0.0
H554 H 0.14071 0.83913 0.596 0.0
H555 H 0.11542 0.86121 0.63257 0.0
C556 C 0.18846 0.80828 0.62104 0.0
C557 C 0.2053 0.81305 0.5811 0.0
C558 C 0.17538 0.8225 0.64209 0.0
C559 C 0.1787 0.84197 0.624 0.0
C560 C 0.1958 0.84696 0.58608 0.0
C561 C 0.20898 0.83259 0.56448 0.0
C562 C 0.15341 0.88695 0.70031 0.0
C563 C 0.13419 0.88243 0.68483 0.0
C564 C 0.16808 0.87414 0.67879 0.0
C565 C 0.16372 0.85656 0.64213 0.0
C566 C 0.14454 0.85238 0.6253 0.0
C567 C 0.13002 0.86511 0.64623 0.0
H568 H 0.49753 0.89664 0.74109 0.0
H569 H 0.52868 0.87973 0.94495 0.0
H570 H 0.47113 0.87512 0.77932 0.0
H571 H 0.50214 0.85903 0.98427 0.0
H572 H 0.44021 0.83739 0.0507 0.0
H573 H 0.46159 0.86401 0.01261 0.0
H574 H 0.47545 0.83387 0.80235 0.0
H575 H 0.45485 0.80708 0.84148 0.0
C576 C 0.49854 0.88867 0.79468 0.0
C577 C 0.51515 0.88973 0.83985 0.0
C578 C 0.4835 0.87642 0.81647 0.0
C579 C 0.48463 0.86561 0.88498 0.0
C580 C 0.50087 0.86738 0.93169 0.0
C581 C 0.51607 0.87913 0.90887 0.0
C582 C 0.44765 0.83664 0.99599 0.0
C583 C 0.44603 0.82019 0.94923 0.0
C584 C 0.45983 0.8518 0.97428 0.0
C585 C 0.46999 0.85096 0.90436 0.0
C586 C 0.46761 0.83491 0.85609 0.0
C587 C 0.45594 0.81957 0.87876 0.0
H588 H 0.49769 0.1006 0.12507 0.0
H589 H 0.52858 0.14735 0.23104 0.0
H590 H 0.47383 0.12363 0.07638 0.0
H591 H 0.50451 0.17012 0.18728 0.0
H592 H 0.4766 0.20959 0.02135 0.0
H593 H 0.49728 0.1843 0.06951 0.0
H594 H 0.44847 0.14668 0.09725 0.0
H595 H 0.42773 0.17212 0.04456 0.0
C596 C 0.49898 0.11572 0.1399 0.0
C597 C 0.5149 0.12231 0.18144 0.0
C598 C 0.48538 0.12894 0.11198 0.0
C599 C 0.48743 0.14888 0.12607 0.0
C600 C 0.50275 0.15504 0.1726 0.0
C601 C 0.51644 0.14198 0.19875 0.0
C602 C 0.47028 0.19586 0.03705 0.0
C603 C 0.45056 0.19286 0.02966 0.0
C604 C 0.48212 0.18137 0.06563 0.0
C605 C 0.47456 0.16352 0.08965 0.0
C606 C 0.45483 0.16021 0.07952 0.0
C607 C 0.44294 0.17475 0.04933 0.0
H608 H 0.95209 0.82503 0.46681 0.0
H609 H 0.93123 0.82092 0.70004 0.0
H610 H 0.9713 0.85302 0.50229 0.0
H611 H 0.94965 0.84946 0.73556 0.0
H612 H 0.00897 0.87586 0.79167 0.0
H613 H 0.982 0.85526 0.75953 0.0
H614 H 0.97563 0.88512 0.54201 0.0
H615 H 1.00318 0.90522 0.57365 0.0
C616 C 0.95104 0.83065 0.52494 0.0
C617 C 0.94022 0.82087 0.58067 0.0
C618 C 0.96206 0.84673 0.5456 0.0
C619 C 0.96234 0.85346 0.6224 0.0
C620 C 0.95024 0.84448 0.67645 0.0
C621 C 0.93946 0.82827 0.65599 0.0
C622 C 1.00143 0.8784 0.73809 0.0
C623 C 0.00824 0.89208 0.68508 0.0
C624 C 0.9859 0.86656 0.71937 0.0
C625 C 0.97666 0.86825 0.64742 0.0
C626 C 0.98262 0.88302 0.59705 0.0
C627 C 0.99829 0.89469 0.61546 0.0
H628 H 0.95189 0.18546 0.52082 0.0
H629 H 0.9305 0.19136 0.28916 0.0
H630 H 0.97069 0.1575 0.48145 0.0
H631 H 0.94854 0.16286 0.24969 0.0
H632 H 0.00809 0.13686 0.18931 0.0
H633 H 0.98084 0.15699 0.22357 0.0
H634 H 0.97477 0.12571 0.43806 0.0
H635 H 1.0026 0.10618 0.40442 0.0
C636 C 0.95061 0.18022 0.4622 0.0
C637 C 0.93978 0.19052 0.40806 0.0
C638 C 0.9614 0.16417 0.43929 0.0
C639 C 0.96145 0.15795 0.36176 0.0
C640 C 0.9493 0.16742 0.3093 0.0
C641 C 0.93874 0.18361 0.33204 0.0
C642 C 1.0005 0.13389 0.24247 0.0
C643 C 0.00746 0.12001 0.29422 0.0
C644 C 0.98483 0.14546 0.26248 0.0
C645 C 0.97565 0.14327 0.33446 0.0
C646 C 0.9817 0.1282 0.38312 0.0
C647 C 0.9975 0.11681 0.36348 0.0
H648 H 0.65736 0.1107 0.215 0.0
H649 H 0.62162 0.14384 0.06081 0.0
H650 H 0.68476 0.13101 0.17922 0.0
H651 H 0.6487 0.16338 0.02417 0.0
H652 H 0.70043 0.18923 0.92618 0.0
H653 H 0.67955 0.16184 0.95457 0.0
H654 H 0.6944 0.16575 0.19562 0.0
H655 H 0.71551 0.19287 0.16688 0.0
C656 C 0.65533 0.12216 0.17337 0.0
C657 C 0.63727 0.12531 0.13989 0.0
C658 C 0.67104 0.13372 0.15255 0.0
C659 C 0.66902 0.14854 0.09748 0.0
C660 C 0.65096 0.1517 0.06474 0.0
C661 C 0.63536 0.1404 0.08596 0.0
C662 C 0.69979 0.18377 0.98467 0.0
C663 C 0.70945 0.19331 0.04439 0.0
C664 C 0.68766 0.16822 0.00118 0.0
C665 C 0.68502 0.16186 0.07766 0.0
C666 C 0.69609 0.17025 0.13619 0.0
C667 C 0.70814 0.18584 0.11974 0.0
H668 H 0.6456 0.90359 0.95565 0.0
H669 H 0.64292 0.87609 0.73268 0.0
H670 H 0.67304 0.8836 0.98983 0.0
H671 H 0.67026 0.85604 0.76677 0.0
H672 H 0.724 0.82584 0.83121 0.0
H673 H 0.70382 0.85336 0.79804 0.0
H674 H 0.67677 0.84979 0.02162 0.0
H675 H 0.69709 0.82241 0.05476 0.0
C676 C 0.65106 0.89347 0.91346 0.0
C677 C 0.64194 0.89132 0.84165 0.0
C678 C 0.66675 0.88196 0.93319 0.0
C679 C 0.67376 0.86801 0.88157 0.0
C680 C 0.66541 0.86675 0.80783 0.0
C681 C 0.64971 0.87828 0.78808 0.0
C682 C 0.71402 0.83123 0.87386 0.0
C683 C 0.71203 0.82184 0.9454 0.0
C684 C 0.70236 0.84692 0.85466 0.0
C685 C 0.68842 0.85363 0.90654 0.0
C686 C 0.68743 0.84514 0.98031 0.0
C687 C 0.69913 0.82944 -0.00044 0.0
H688 H 0.68342 0.71426 0.88563 0.0
H689 H 0.71959 0.67164 0.99422 0.0
H690 H 0.66148 0.68916 0.84603 0.0
H691 H 0.69714 0.64614 0.95425 0.0
H692 H 0.65678 0.60713 0.79144 0.0
H693 H 0.68213 0.62983 0.83017 0.0
H694 H 0.63935 0.66836 0.92223 0.0
H695 H 0.61441 0.64618 0.88388 0.0
C696 C 0.68672 0.69949 0.90124 0.0
C697 C 0.70317 0.69501 0.94412 0.0
C698 C 0.67408 0.68507 0.87845 0.0
C699 C 0.67744 0.66569 0.89775 0.0
C700 C 0.69421 0.66097 0.93846 0.0
C701 C 0.70696 0.67555 0.96173 0.0
C702 C 0.65288 0.62046 0.81999 0.0
C703 C 0.63355 0.62493 0.83372 0.0
C704 C 0.66737 0.63336 0.84258 0.0
C705 C 0.6627 0.65097 0.87854 0.0
C706 C 0.64341 0.65509 0.89354 0.0
C707 C 0.62909 0.6423 0.87154 0.0
H708 H 0.65778 0.40061 0.25041 0.0
H709 H 0.62595 0.38077 0.05264 0.0
H710 H 0.68465 0.37963 0.21259 0.0
H711 H 0.6529 0.36063 0.01365 0.0
H712 H 0.71348 0.33942 0.93972 0.0
H713 H 0.6922 0.36612 0.97776 0.0
H714 H 0.6825 0.33863 0.19753 0.0
H715 H 0.70304 0.31173 0.15862 0.0
C716 C 0.65669 0.3921 0.19824 0.0
C717 C 0.63978 0.39223 0.15468 0.0
C718 C 0.67201 0.38016 0.17665 0.0
C719 C 0.67084 0.36871 0.10984 0.0
C720 C 0.65424 0.36951 0.06479 0.0
C721 C 0.63879 0.38093 0.08749 0.0
C722 C 0.70707 0.33934 0.99659 0.0
C723 C 0.70976 0.32355 0.04617 0.0
C724 C 0.69493 0.35453 0.01826 0.0
C725 C 0.68585 0.35441 0.09071 0.0
C726 C 0.68949 0.33914 0.14179 0.0
C727 C 0.70112 0.32374 0.11933 0.0
H728 H 0.99559 0.39569 0.20843 0.0
H729 H 0.0247 0.38043 0.41905 0.0
H730 H 0.96836 0.37534 0.24698 0.0
H731 H 0.9974 0.36075 0.45846 0.0
H732 H 0.93798 0.33707 0.52521 0.0
H733 H 0.95915 0.36388 0.48757 0.0
H734 H 0.96946 0.33632 0.26841 0.0
H735 H 0.94898 0.3094 0.30684 0.0
C736 C 0.99595 0.38836 0.2636 0.0
C737 C 0.01225 0.38946 0.31053 0.0
C738 C 0.98044 0.37675 0.28557 0.0
C739 C 0.98079 0.36658 0.35586 0.0
C740 C 0.99668 0.36859 0.40446 0.0
C741 C 0.01233 0.37972 0.3816 0.0
C742 C 0.94451 0.337 0.46856 0.0
C743 C 0.94199 0.32119 0.41904 0.0
C744 C 0.95661 0.35226 0.44713 0.0
C745 C 0.96584 0.35216 0.37497 0.0
C746 C 0.96237 0.33686 0.32395 0.0
C747 C 0.95076 0.32142 0.34615 0.0
H748 H 0.93299 0.67312 0.47695 0.0
H749 H 0.94871 0.70265 0.68648 0.0
H750 H 0.95285 0.64541 0.5156 0.0
H751 H 0.96795 0.67494 0.7259 0.0
H752 H 0.99276 0.61656 0.79503 0.0
H753 H 0.96559 0.63715 0.75779 0.0
H754 H 0.9909 0.64566 0.53333 0.0
H755 H 0.01813 0.62573 0.57124 0.0
C756 C 0.94032 0.67347 0.53192 0.0
C757 C 0.93951 0.69003 0.57843 0.0
C758 C 0.95165 0.65768 0.55398 0.0
C759 C 0.96184 0.65803 0.62392 0.0
C760 C 0.96008 0.67418 0.67221 0.0
C761 C 0.94922 0.69009 0.6493 0.0
C762 C 0.9922 0.62247 0.73724 0.0
C763 C 0.00748 0.61969 0.68601 0.0
C764 C 0.97675 0.63426 0.71604 0.0
C765 C 0.97616 0.64293 0.6426 0.0
C766 C 0.99088 0.639 0.58989 0.0
C767 C 0.00649 0.6277 0.61173 0.0
H768 H 0.43305 0.32359 0.15526 0.0
H769 H 0.45913 0.32191 0.92981 0.0
H770 H 0.453 0.35112 0.18987 0.0
H771 H 0.47925 0.34933 0.96442 0.0
H772 H 0.50934 0.4037 0.03452 0.0
H773 H 0.48249 0.38306 -0.00081 0.0
H774 H 0.4866 0.35419 0.2194 0.0
H775 H 0.51336 0.37483 0.25459 0.0
C776 C 0.44281 0.32935 0.11257 0.0
C777 C 0.44462 0.32047 0.03998 0.0
C778 C 0.45434 0.34506 0.13258 0.0
C779 C 0.46799 0.35228 0.08052 0.0
C780 C 0.46882 0.34426 0.00591 0.0
C781 C 0.45724 0.32855 0.98584 0.0
C782 C 0.50433 0.39311 0.0758 0.0
C783 C 0.51364 0.39082 0.14719 0.0
C784 C 0.48897 0.38123 0.05541 0.0
C785 C 0.48247 0.36678 0.10596 0.0
C786 C 0.49105 0.36528 0.1792 0.0
C787 C 0.50642 0.37717 0.19958 0.0
H788 H 0.43054 0.68872 0.82923 0.0
H789 H 0.45511 0.68848 0.05722 0.0
H790 H 0.44964 0.66054 0.79474 0.0
H791 H 0.4745 0.66047 0.02268 0.0
H792 H 0.50408 0.60599 0.95114 0.0
H793 H 0.47734 0.62693 0.98565 0.0
H794 H 0.48311 0.65659 0.76768 0.0
H795 H 0.5097 0.63565 0.73331 0.0
C796 C 0.43976 0.68237 0.87249 0.0
C797 C 0.44143 0.69089 0.94577 0.0
C798 C 0.45082 0.66631 0.85257 0.0
C799 C 0.4639 0.65839 0.90534 0.0
C800 C 0.46451 0.66606 0.98059 0.0
C801 C 0.45336 0.68211 0.00063 0.0
C802 C 0.49942 0.6168 0.9101 0.0
C803 C 0.50915 0.61923 0.83965 0.0
C804 C 0.48413 0.62886 0.93004 0.0
C805 C 0.47815 0.64363 0.87998 0.0
C806 C 0.48713 0.64525 0.80748 0.0
C807 C 0.50241 0.63319 0.78754 0.0
H808 H 0.22738 0.67951 0.67806 0.0
H809 H 0.19822 0.69056 0.46341 0.0
H810 H 0.2036 0.6548 0.71058 0.0
H811 H 0.17443 0.66606 0.49645 0.0
H812 H 0.12382 0.65872 0.67762 0.0
H813 H 0.15296 0.67444 0.6348 0.0
H814 H 0.18304 0.62019 0.64515 0.0
H815 H 0.15325 0.6039 0.68525 0.0
C816 C 0.21636 0.67608 0.63648 0.0
C817 C 0.21461 0.687 0.56827 0.0
C818 C 0.20279 0.66195 0.65511 0.0
C819 C 0.1872 0.65867 0.60616 0.0
C820 C 0.18641 0.66832 0.53491 0.0
C821 C 0.20009 0.68225 0.5158 0.0
C822 C 0.13653 0.64999 0.67029 0.0
C823 C 0.13604 0.62992 0.68306 0.0
C824 C 0.15322 0.65904 0.64583 0.0
C825 C 0.17004 0.64843 0.63501 0.0
C826 C 0.1701 0.62859 0.65222 0.0
C827 C 0.15314 0.61935 0.67573 0.0
H828 H 0.22303 0.32402 0.31142 0.0
H829 H 0.19734 0.32508 0.53713 0.0
H830 H 0.20409 0.35207 0.27346 0.0
H831 H 0.17758 0.35239 0.49895 0.0
H832 H 0.14317 0.40216 0.42501 0.0
H833 H 0.17165 0.3841 0.46264 0.0
H834 H 0.17237 0.35671 0.23851 0.0
H835 H 0.14458 0.37564 0.20052 0.0
C836 C 0.21367 0.33067 0.35353 0.0
C837 C 0.21173 0.32257 0.42735 0.0
C838 C 0.20257 0.34656 0.33155 0.0
C839 C 0.18893 0.35443 0.38237 0.0
C840 C 0.18801 0.34703 0.45815 0.0
C841 C 0.19936 0.33133 0.48042 0.0
C842 C 0.14993 0.39276 0.38315 0.0
C843 C 0.14183 0.39034 0.30977 0.0
C844 C 0.16609 0.38218 0.40493 0.0
C845 C 0.17427 0.36857 0.3544 0.0
C846 C 0.16677 0.36715 0.27906 0.0
C847 C 0.15079 0.378 0.25694 0.0
H848 H 0.09786 0.05703 0.06334 0.0
H849 H 0.05916 0.0239 0.20504 0.0
H850 H 0.09706 0.03183 0.96502 0.0
H851 H 0.05917 0.99818 0.10784 0.0
H852 H 0.08756 0.94992 0.94585 0.0
H853 H 0.08723 0.97503 0.04529 0.0
H854 H 0.06821 0.01662 0.87686 0.0
H855 H 0.06796 0.99137 0.77764 0.0
C856 C 0.08913 0.04443 0.0735 0.0
C857 C 0.07833 0.04272 0.14165 0.0
C858 C 0.08873 0.02996 0.0172 0.0
C859 C 0.07797 0.01311 0.02865 0.0
C860 C 0.06757 0.01105 0.09759 0.0
C861 C 0.06757 0.02579 0.15313 0.0
C862 C 0.08333 0.96442 0.92998 0.0
C863 C 0.07787 0.96869 0.85377 0.0
C864 C 0.08302 0.97874 0.98704 0.0
C865 C 0.0777 0.99775 0.96871 0.0
C866 C 0.07241 1.00208 0.89243 0.0
C867 C 0.07223 0.98764 0.83579 0.0
H868 H 0.34321 0.74515 0.04416 0.0
H869 H 0.38152 0.77258 0.20501 0.0
H870 H 0.31821 0.74453 0.14344 0.0
H871 H 0.35673 0.77179 0.30409 0.0
H872 H 0.31368 0.74592 0.48134 0.0
H873 H 0.33851 0.74604 0.38161 0.0
H874 H 0.29825 0.76971 0.21865 0.0
H875 H 0.27355 0.76987 0.31844 0.0
C876 C 0.34632 0.75101 0.10065 0.0
C877 C 0.36435 0.75904 0.1165 0.0
C878 C 0.33199 0.75073 0.15737 0.0
C879 C 0.33549 0.75811 0.23165 0.0
C880 C 0.3536 0.76588 0.24767 0.0
C881 C 0.36777 0.76647 0.19068 0.0
C882 C 0.31015 0.75117 0.42427 0.0
C883 C 0.29167 0.75802 0.40807 0.0
C884 C 0.32438 0.7513 0.36725 0.0
C885 C 0.32034 0.75787 0.29219 0.0
C886 C 0.30178 0.76446 0.27573 0.0
C887 C 0.28768 0.76471 0.33316 0.0
H888 H 0.54657 0.04486 0.38053 0.0
H889 H 0.60582 0.03153 0.33477 0.0
H890 H 0.54619 0.0209 0.48368 0.0
H891 H 0.60533 0.00742 0.43721 0.0
H892 H 0.60377 0.98186 0.68118 0.0
H893 H 0.60357 1.00574 0.57774 0.0
H894 H 0.54775 0.98609 0.50697 0.0
H895 H 0.5478 0.96239 0.61099 0.0
C896 C 0.55948 0.03672 0.39187 0.0
C897 C 0.57623 0.04019 0.349 0.0
C898 C 0.55924 0.0229 0.45101 0.0
C899 C 0.57576 0.01223 0.46921 0.0
C900 C 0.59242 0.01554 0.42568 0.0
C901 C 0.59265 0.02929 0.36637 0.0
C902 C 0.5914 0.98268 0.6439 0.0
C903 C 0.5758 0.97016 0.65479 0.0
C904 C 0.59135 0.9963 0.58407 0.0
C905 C 0.57568 0.99784 0.53359 0.0
C906 C 0.55998 0.98547 0.54506 0.0
C907 C 0.56006 0.97179 0.60468 0.0
H908 H 0.38124 0.23423 0.78417 0.0
H909 H 0.34774 0.27111 0.93268 0.0
H910 H 0.35563 0.23456 0.6887 0.0
H911 H 0.32204 0.2713 0.83717 0.0
H912 H 0.27277 0.24643 0.68688 0.0
H913 H 0.2986 0.24743 0.78113 0.0
H914 H 0.3392 0.2581 0.59851 0.0
H915 H 0.31327 0.25719 0.50378 0.0
C916 C 0.3684 0.24237 0.79667 0.0
C917 C 0.36656 0.25258 0.86642 0.0
C918 C 0.35377 0.24267 0.74158 0.0
C919 C 0.33678 0.25296 0.75524 0.0
C920 C 0.33488 0.26311 0.82509 0.0
C921 C 0.34965 0.26306 0.87971 0.0
C922 C 0.28719 0.24902 0.66663 0.0
C923 C 0.29093 0.25167 0.58755 0.0
C924 C 0.30199 0.24972 0.72085 0.0
C925 C 0.32098 0.25283 0.69742 0.0
C926 C 0.32474 0.25553 0.61838 0.0
C927 C 0.30987 0.25512 0.56415 0.0
H928 H 0.772 0.27475 0.78704 0.0
H929 H 0.80989 0.24624 0.9472 0.0
H930 H 0.79669 0.27355 0.68806 0.0
H931 H 0.83466 0.24498 0.84761 0.0
H932 H 0.88053 0.26818 0.67766 0.0
H933 H 0.85576 0.26751 0.77666 0.0
H934 H 0.8143 0.25044 0.60559 0.0
H935 H 0.83915 0.25131 0.50619 0.0
C936 C 0.7856 0.26822 0.8013 0.0
C937 C 0.78895 0.26068 0.87551 0.0
C938 C 0.79974 0.26739 0.74413 0.0
C939 C 0.81771 0.25917 0.75967 0.0
C940 C 0.82105 0.25157 0.8338 0.0
C941 C 0.80681 0.2522 0.89083 0.0
C942 C 0.86613 0.26432 0.66105 0.0
C943 C 0.86183 0.25995 0.58374 0.0
C944 C 0.85194 0.26376 0.71804 0.0
C945 C 0.83299 0.25896 0.69926 0.0
C946 C 0.8287 0.2544 0.62202 0.0
C947 C 0.84297 0.25478 0.56507 0.0
H948 H 0.80764 0.7703 0.05684 0.0
H949 H 0.77252 0.73354 0.19967 0.0
H950 H 0.83224 0.77053 0.15693 0.0
H951 H 0.79702 0.73394 0.29974 0.0
H952 H 0.83694 0.75714 0.49219 0.0
H953 H 0.81222 0.7578 0.39228 0.0
H954 H 0.85506 0.74682 0.21851 0.0
H955 H 0.87968 0.74608 0.31791 0.0
C956 C 0.80515 0.76226 0.10947 0.0
C957 C 0.78809 0.75183 0.11987 0.0
C958 C 0.81928 0.76235 0.16676 0.0
C959 C 0.81659 0.75229 0.23645 0.0
C960 C 0.79948 0.74198 0.24707 0.0
C961 C 0.78549 0.74163 0.18932 0.0
C962 C 0.84109 0.75497 0.43264 0.0
C963 C 0.8603 0.7515 0.41325 0.0
C964 C 0.82691 0.75522 0.37545 0.0
C965 C 0.83166 0.75233 0.29738 0.0
C966 C 0.85092 0.74923 0.27794 0.0
C967 C 0.86503 0.74868 0.33512 0.0
H968 H 0.54857 0.52919 0.6715 0.0
H969 H 0.60567 0.54767 0.61221 0.0
H970 H 0.54941 0.50567 0.56719 0.0
H971 H 0.6064 0.52421 0.50712 0.0
H972 H 0.60698 0.4657 0.3767 0.0
H973 H 0.60712 0.4892 0.48155 0.0
H974 H 0.54908 0.50512 0.42612 0.0
H975 H 0.54883 0.48151 0.32193 0.0
C976 C 0.56135 0.52822 0.6365 0.0
C977 C 0.57705 0.54039 0.65062 0.0
C978 C 0.56177 0.5148 0.57613 0.0
C979 C 0.57792 0.51308 0.52822 0.0
C980 C 0.59377 0.52501 0.54314 0.0
C981 C 0.59333 0.53853 0.60337 0.0
C982 C 0.59426 0.47427 0.38651 0.0
C983 C 0.57788 0.47164 0.34057 0.0
C984 C 0.59438 0.48782 0.44659 0.0
C985 C 0.57808 0.49903 0.46272 0.0
C986 C 0.5618 0.49656 0.41618 0.0
C987 C 0.56171 0.48309 0.3559 0.0
H988 H 0.08564 0.52172 0.77884 0.0
H989 H 0.06147 0.56133 0.94461 0.0
H990 H 0.08711 0.4967 0.87838 0.0
H991 H 0.06281 0.53639 0.04344 0.0
H992 H 0.08395 0.4921 0.22078 0.0
H993 H 0.08533 0.51723 0.12171 0.0
H994 H 0.06452 0.47664 0.95273 0.0
H995 H 0.06329 0.45159 0.05107 0.0
C996 C 0.08072 0.52514 0.83647 0.0
C997 C 0.07333 0.54353 0.85337 0.0
C998 C 0.08146 0.51076 0.89347 0.0
C999 C 0.07503 0.51449 0.96903 0.0
C1000 C 0.06804 0.53303 0.9862 0.0
C1001 C 0.06713 0.54731 0.92915 0.0
C1002 C 0.07976 0.48852 0.16243 0.0
C1003 C 0.07341 0.46981 0.14425 0.0
C1004 C 0.08045 0.50296 0.10566 0.0
C1005 C 0.07502 0.49899 0.0291 0.0
C1006 C 0.069 0.48019 0.01077 0.0
C1007 C 0.06814 0.46583 0.06754 0.0
H1008 H 0.09684 0.08006 0.96652 0.0
H1009 H 0.09762 0.14055 0.90667 0.0
H1010 H 0.10035 0.0714 0.83227 0.0
H1011 H 0.10099 0.13182 0.77046 0.0
H1012 H 0.07767 0.10641 0.54392 0.0
H1013 H 0.07898 0.11599 0.67826 0.0
H1014 H 0.12245 0.07294 0.72028 0.0
H1015 H 0.1212 0.06337 0.58416 0.0
C1016 C 0.09822 0.09154 0.92487 0.0
C1017 C 0.09711 0.11101 0.94727 0.0
C1018 C 0.10022 0.08654 0.84778 0.0
C1019 C 0.10102 0.10092 0.79118 0.0
C1020 C 0.10026 0.12045 0.81327 0.0
C1021 C 0.09829 0.12546 0.89084 0.0
C1022 C 0.08768 0.09913 0.58159 0.0
C1023 C 0.0995 0.08429 0.5537 0.0
C1024 C 0.08848 0.10468 0.65835 0.0
C1025 C 0.10104 0.09543 0.70915 0.0
C1026 C 0.11266 0.08031 0.68193 0.0
C1027 C 0.11188 0.07475 0.60455 0.0
H1028 H 0.2148 0.74298 0.19571 0.0
H1029 H 0.23453 0.80124 0.23167 0.0
H1030 H 0.22557 0.74436 0.06238 0.0
H1031 H 0.24482 0.80303 0.09715 0.0
H1032 H 0.27675 0.79298 0.86974 0.0
H1033 H 0.26819 0.79076 0.00662 0.0
H1034 H 0.21707 0.75925 0.94569 0.0
H1035 H 0.22618 0.7603 0.81193 0.0
C1036 C 0.22105 0.75624 0.17434 0.0
C1037 C 0.22365 0.77208 0.22336 0.0
C1038 C 0.22731 0.75704 0.09814 0.0
C1039 C 0.23603 0.77384 0.06902 0.0
C1040 C 0.23846 0.78978 0.11808 0.0
C1041 C 0.2324 0.78885 0.19467 0.0
C1042 C 0.26384 0.78542 0.88612 0.0
C1043 C 0.25201 0.77713 0.82986 0.0
C1044 C 0.25881 0.78431 0.96421 0.0
C1045 C 0.24189 0.77487 0.98701 0.0
C1046 C 0.2303 0.76642 0.93052 0.0
C1047 C 0.23538 0.76736 0.85329 0.0
H1048 H 0.52752 0.91492 0.0782 0.0
H1049 H 0.57645 0.95149 0.11638 0.0
H1050 H 0.52808 0.90514 0.21431 0.0
H1051 H 0.57731 0.94138 0.25199 0.0
H1052 H 0.58523 0.89455 0.44835 0.0
H1053 H 0.58296 0.90504 0.31346 0.0
H1054 H 0.52521 0.92446 0.35345 0.0
H1055 H 0.52768 0.91438 0.48886 0.0
C1056 C 0.53826 0.92097 0.11608 0.0
C1057 C 0.55188 0.93401 0.08731 0.0
C1058 C 0.53858 0.9154 0.19356 0.0
C1059 C 0.55282 0.92244 0.24301 0.0
C1060 C 0.56627 0.9357 0.21462 0.0
C1061 C 0.56567 0.94161 0.13756 0.0
C1062 C 0.57201 0.90083 0.42787 0.0
C1063 C 0.55659 0.90361 0.47852 0.0
C1064 C 0.57077 0.90698 0.35123 0.0
C1065 C 0.55395 0.91561 0.32364 0.0
C1066 C 0.53832 0.91783 0.37358 0.0
C1067 C 0.53972 0.91209 0.45067 0.0
H1068 H 0.42758 0.20525 0.27358 0.0
H1069 H 0.38433 0.24837 0.31512 0.0
H1070 H 0.43681 0.20641 0.41015 0.0
H1071 H 0.39388 0.24992 0.45121 0.0
H1072 H 0.44071 0.26368 0.6443 0.0
H1073 H 0.43059 0.26024 0.50954 0.0
H1074 H 0.41628 0.20059 0.55136 0.0
H1075 H 0.42595 0.20419 0.6868 0.0
C1076 C 0.41998 0.21481 0.3123 0.0
C1077 C 0.40524 0.22668 0.28444 0.0
C1078 C 0.42522 0.21547 0.38998 0.0
C1079 C 0.4161 0.22834 0.44038 0.0
C1080 C 0.40112 0.23995 0.41297 0.0
C1081 C 0.39558 0.23895 0.33569 0.0
C1082 C 0.43562 0.24981 0.62426 0.0
C1083 C 0.43416 0.23416 0.67534 0.0
C1084 C 0.42969 0.2479 0.54775 0.0
C1085 C 0.42262 0.23019 0.52084 0.0
C1086 C 0.4217 0.21436 0.57117 0.0
C1087 C 0.4272 0.21641 0.64818 0.0
H1088 H 0.12209 0.90611 0.44386 0.0
H1089 H 0.08164 0.95192 0.40256 0.0
H1090 H 0.12063 0.897 0.30717 0.0
H1091 H 0.07976 0.94248 0.26619 0.0
H1092 H 0.06415 0.89581 0.07205 0.0
H1093 H 0.06776 0.9062 0.20657 0.0
H1094 H 0.12764 0.91716 0.16668 0.0
H1095 H 0.12387 0.90726 0.03147 0.0
C1096 C 0.11305 0.9143 0.40515 0.0
C1097 C 0.10202 0.92973 0.43315 0.0
C1098 C 0.11223 0.90912 0.32737 0.0
C1099 C 0.1 0.91899 0.27689 0.0
C1100 C 0.08923 0.93465 0.30444 0.0
C1101 C 0.09041 0.94013 0.38189 0.0
C1102 C 0.07809 0.90023 0.09247 0.0
C1103 C 0.09378 0.90065 0.04202 0.0
C1104 C 0.08011 0.90633 0.16883 0.0
C1105 C 0.09795 0.91252 0.19627 0.0
C1106 C 0.11376 0.91245 0.1465 0.0
C1107 C 0.11162 0.90679 0.06962 0.0
H1108 H 0.37665 0.77491 0.66386 0.0
H1109 H 0.43077 0.80117 0.72034 0.0
H1110 H 0.38561 0.7747 0.52757 0.0
H1111 H 0.43978 0.80094 0.58462 0.0
H1112 H 0.45746 0.77177 0.35509 0.0
H1113 H 0.44815 0.77572 0.48952 0.0
H1114 H 0.3926 0.79604 0.41816 0.0
H1115 H 0.40145 0.79176 0.28526 0.0
C1116 C 0.39028 0.78097 0.64686 0.0
C1117 C 0.40311 0.7878 0.70253 0.0
C1118 C 0.39545 0.78081 0.56906 0.0
C1119 C 0.41352 0.78757 0.54574 0.0
C1120 C 0.42596 0.79524 0.60115 0.0
C1121 C 0.42078 0.79539 0.67872 0.0
C1122 C 0.44326 0.77703 0.36776 0.0
C1123 C 0.43024 0.78113 0.30825 0.0
C1124 C 0.43798 0.77947 0.44492 0.0
C1125 C 0.41958 0.78606 0.46421 0.0
C1126 C 0.40677 0.79066 0.40507 0.0
C1127 C 0.41202 0.78829 0.32826 0.0
H1128 H 0.57508 0.12661 0.56542 0.0
H1129 H 0.53072 0.08605 0.50464 0.0
H1130 H 0.57126 0.11795 0.7009 0.0
H1131 H 0.52702 0.0773 0.63979 0.0
H1132 H 0.54627 0.0501 0.87304 0.0
H1133 H 0.5464 0.06005 0.73767 0.0
H1134 H 0.54834 0.11983 0.8078 0.0
H1135 H 0.54894 0.11 0.94172 0.0
C1136 C 0.56431 0.1161 0.58107 0.0
C1137 C 0.55335 0.10689 0.52425 0.0
C1138 C 0.56214 0.1111 0.65859 0.0
C1139 C 0.54893 0.09683 0.68074 0.0
C1140 C 0.53755 0.08808 0.62421 0.0
C1141 C 0.53969 0.09311 0.54685 0.0
C1142 C 0.54661 0.06534 0.85934 0.0
C1143 C 0.54751 0.07919 0.91829 0.0
C1144 C 0.54655 0.07106 0.78202 0.0
C1145 C 0.54748 0.09074 0.76233 0.0
C1146 C 0.54783 0.10457 0.82124 0.0
C1147 C 0.54787 0.09888 0.89823 0.0
H1148 H 0.20079 0.2574 0.83728 0.0
H1149 H 0.24169 0.2129 0.77932 0.0
H1150 H 0.20988 0.25475 0.97208 0.0
H1151 H 0.25177 0.21136 0.91234 0.0
H1152 H 0.254 0.20093 0.17149 0.0
H1153 H 0.24355 0.2016 0.0373 0.0
H1154 H 0.23554 0.26341 0.05301 0.0
H1155 H 0.2452 0.26236 0.18801 0.0
C1156 C 0.21165 0.24702 0.853 0.0
C1157 C 0.22065 0.23559 0.79677 0.0
C1158 C 0.2171 0.2457 0.9303 0.0
C1159 C 0.23181 0.23306 0.95308 0.0
C1160 C 0.24034 0.22119 0.89724 0.0
C1161 C 0.23471 0.22231 0.82034 0.0
C1162 C 0.25027 0.21464 0.14552 0.0
C1163 C 0.25042 0.23161 0.18948 0.0
C1164 C 0.24423 0.21506 0.0688 0.0
C1165 C 0.23851 0.23255 0.03433 0.0
C1166 C 0.23934 0.24961 0.07806 0.0
C1167 C 0.24508 0.2491 0.15498 0.0
H1168 H 0.91429 0.25177 0.17798 0.0
H1169 H 0.88692 0.30715 0.14885 0.0
H1170 H 0.92398 0.25209 0.04314 0.0
H1171 H 0.89658 0.30748 0.01331 0.0
H1172 H 0.90005 0.28894 0.75837 0.0
H1173 H 0.89056 0.29027 0.8918 0.0
H1174 H 0.94643 0.27022 0.96034 0.0
H1175 H 0.95618 0.26876 0.82565 0.0
C1176 C 0.91035 0.26402 0.14261 0.0
C1177 C 0.89996 0.2795 0.17405 0.0
C1178 C 0.91598 0.26425 0.06556 0.0
C1179 C 0.9113 0.27994 0.018 0.0
C1180 C 0.90035 0.29516 0.04862 0.0
C1181 C 0.89473 0.29494 0.12601 0.0
C1182 C 0.91055 0.28497 0.80101 0.0
C1183 C 0.92894 0.27845 0.78002 0.0
C1184 C 0.905 0.28581 0.87812 0.0
C1185 C 0.91766 0.2802 0.93651 0.0
C1186 C 0.93622 0.27429 0.91629 0.0
C1187 C 0.94181 0.27346 0.83896 0.0
H1188 H 0.72765 0.70638 0.70645 0.0
H1189 H 0.77106 0.74932 0.66526 0.0
H1190 H 0.71845 0.70766 0.56991 0.0
H1191 H 0.76156 0.75099 0.5291 0.0
H1192 H 0.71533 0.76512 0.33464 0.0
H1193 H 0.72568 0.76172 0.46915 0.0
H1194 H 0.73807 0.70153 0.42966 0.0
H1195 H 0.72818 0.70509 0.29446 0.0
C1196 C 0.7353 0.71594 0.66781 0.0
C1197 C 0.75008 0.72771 0.69583 0.0
C1198 C 0.73008 0.71666 0.5901 0.0
C1199 C 0.73925 0.72951 0.53969 0.0
C1200 C 0.75426 0.74104 0.56727 0.0
C1201 C 0.75978 0.73997 0.64462 0.0
C1202 C 0.72005 0.75115 0.35514 0.0
C1203 C 0.72088 0.73532 0.30474 0.0
C1204 C 0.72613 0.74925 0.43152 0.0
C1205 C 0.73272 0.7314 0.4591 0.0
C1206 C 0.73304 0.71543 0.40942 0.0
C1207 C 0.7274 0.71745 0.33252 0.0
H1208 H 0.7315 0.30757 0.68744 0.0
H1209 H 0.71571 0.24773 0.66514 0.0
H1210 H 0.74235 0.30793 0.55335 0.0
H1211 H 0.72743 0.24753 0.53305 0.0
H1212 H 0.72845 0.25879 0.27804 0.0
H1213 H 0.71937 0.25848 0.41193 0.0
H1214 H 0.76589 0.29736 0.46482 0.0
H1215 H 0.77406 0.29888 0.32774 0.0
C1216 C 0.7304 0.29451 0.65345 0.0
C1217 C 0.72245 0.27775 0.68558 0.0
C1218 C 0.73682 0.2946 0.57712 0.0
C1219 C 0.73574 0.27777 0.53193 0.0
C1220 C 0.72805 0.26091 0.56513 0.0
C1221 C 0.72129 0.26097 0.64077 0.0
C1222 C 0.73665 0.26752 0.31776 0.0
C1223 C 0.75173 0.27923 0.29166 0.0
C1224 C 0.73163 0.26705 0.39527 0.0
C1225 C 0.74184 0.27791 0.4497 0.0
C1226 C 0.75747 0.28908 0.42431 0.0
C1227 C 0.76234 0.28977 0.34593 0.0
H1228 H 0.90695 0.71182 0.23213 0.0
H1229 H 0.95094 0.7533 0.17542 0.0
H1230 H 0.89676 0.71139 0.09925 0.0
H1231 H 0.94165 0.75167 0.04073 0.0
H1232 H 0.90719 0.76214 0.82372 0.0
H1233 H 0.91712 0.76223 0.95847 0.0
H1234 H 0.90386 0.70136 0.97416 0.0
H1235 H 0.89317 0.70172 0.84033 0.0
C1236 C 0.91459 0.7208 0.19154 0.0
C1237 C 0.92959 0.73292 0.21566 0.0
C1238 C 0.90888 0.72031 0.11455 0.0
C1239 C 0.91822 0.73163 0.05891 0.0
C1240 C 0.93379 0.74309 0.0822 0.0
C1241 C 0.93935 0.7438 0.1596 0.0
C1242 C 0.90624 0.74888 0.85663 0.0
C1243 C 0.8993 0.73197 0.82214 0.0
C1244 C 0.91213 0.74883 0.93351 0.0
C1245 C 0.91151 0.73175 0.97739 0.0
C1246 C 0.9043 0.71486 0.94279 0.0
C1247 C 0.89813 0.71502 0.86614 0.0
H1248 H 0.57035 0.62478 0.4414 0.0
H1249 H 0.62039 0.59064 0.49276 0.0
H1250 H 0.57267 0.61542 0.30635 0.0
H1251 H 0.62276 0.58126 0.35762 0.0
H1252 H 0.60556 0.55154 0.1283 0.0
H1253 H 0.60481 0.56129 0.2641 0.0
H1254 H 0.59317 0.62008 0.19526 0.0
H1255 H 0.59297 0.61033 0.0617 0.0
C1256 C 0.58204 0.61558 0.42354 0.0
C1257 C 0.59514 0.6084 0.47754 0.0
C1258 C 0.58334 0.61014 0.34634 0.0
C1259 C 0.59784 0.5975 0.32166 0.0
C1260 C 0.61124 0.59072 0.37531 0.0
C1261 C 0.60992 0.59615 0.45249 0.0
C1262 C 0.60283 0.5665 0.14253 0.0
C1263 C 0.59956 0.58014 0.08415 0.0
C1264 C 0.60256 0.57212 0.21998 0.0
C1265 C 0.59891 0.59146 0.24007 0.0
C1266 C 0.59583 0.60506 0.18161 0.0
C1267 C 0.59605 0.59947 0.10474 0.0
H1268 H 0.03359 0.4234 0.96394 0.0
H1269 H 0.07401 0.3784 0.90633 0.0
H1270 H 0.0332 0.43379 0.83116 0.0
H1271 H 0.0724 0.38791 0.77185 0.0
H1272 H 0.08319 0.42251 0.55498 0.0
H1273 H 0.08319 0.41256 0.68987 0.0
H1274 H 0.02315 0.42697 0.70592 0.0
H1275 H 0.02362 0.4377 0.57185 0.0
C1276 C 0.04235 0.41557 0.92325 0.0
C1277 C 0.05417 0.40023 0.94715 0.0
C1278 C 0.04188 0.42142 0.84628 0.0
C1279 C 0.05292 0.41187 0.79043 0.0
C1280 C 0.06406 0.39595 0.81348 0.0
C1281 C 0.06476 0.39027 0.89083 0.0
C1282 C 0.0701 0.42371 0.58801 0.0
C1283 C 0.05346 0.43096 0.55353 0.0
C1284 C 0.07 0.41781 0.66497 0.0
C1285 C 0.05311 0.41872 0.70895 0.0
C1286 C 0.0365 0.42629 0.67443 0.0
C1287 C 0.03672 0.43248 0.59766 0.0
H1288 H 0.57464 0.38745 0.54782 0.0
H1289 H 0.62333 0.42368 0.49828 0.0
H1290 H 0.57599 0.39715 0.68274 0.0
H1291 H 0.62473 0.43339 0.63321 0.0
H1292 H 0.60624 0.46242 0.86176 0.0
H1293 H 0.60578 0.45265 0.7259 0.0
H1294 H 0.59622 0.3935 0.7949 0.0
H1295 H 0.59576 0.40324 0.92851 0.0
C1296 C 0.58583 0.3972 0.56606 0.0
C1297 C 0.59883 0.40483 0.51256 0.0
C1298 C 0.58657 0.40284 0.64318 0.0
C1299 C 0.6004 0.41615 0.66832 0.0
C1300 C 0.61369 0.42341 0.61517 0.0
C1301 C 0.61294 0.41778 0.5381 0.0
C1302 C 0.604 0.44738 0.84752 0.0
C1303 C 0.6013 0.43363 0.90596 0.0
C1304 C 0.6039 0.44175 0.77005 0.0
C1305 C 0.60097 0.42229 0.74995 0.0
C1306 C 0.59833 0.40861 0.80848 0.0
C1307 C 0.59839 0.4142 0.88538 0.0
H1308 H 0.07563 0.60298 0.45141 0.0
H1309 H 0.03396 0.55849 0.40475 0.0
H1310 H 0.07541 0.61231 0.31782 0.0
H1311 H 0.03505 0.56673 0.26801 0.0
H1312 H 0.02468 0.60111 0.04593 0.0
H1313 H 0.0249 0.59019 0.18004 0.0
H1314 H 0.08491 0.60483 0.19533 0.0
H1315 H 0.08406 0.61678 0.06348 0.0
C1316 C 0.06645 0.59505 0.41255 0.0
C1317 C 0.05444 0.58026 0.43966 0.0
C1318 C 0.06661 0.60021 0.33502 0.0
C1319 C 0.05517 0.59037 0.28143 0.0
C1320 C 0.04376 0.57493 0.30774 0.0
C1321 C 0.04334 0.56999 0.3861 0.0
C1322 C 0.03777 0.60215 0.07892 0.0
C1323 C 0.05423 0.61012 0.04552 0.0
C1324 C 0.03802 0.59568 0.15529 0.0
C1325 C 0.05491 0.59664 0.19918 0.0
C1326 C 0.07148 0.60431 0.16453 0.0
C1327 C 0.07106 0.61118 0.08894 0.0
loop_
_geom_bond_atom_site_label_1
_geom_bond_atom_site_label_2
_geom_bond_distance
_geom_bond_site_symmetry_2
_ccdc_geom_bond_type
Co0 N4 2.148 . S
Co0 N10 2.128 . S
Co0 N20 2.194 . S
Co0 O25 2.351 . S
Co0 O26 2.155 . S
Co0 O27 2.096 . S
C1 N4 1.301 . S
C1 N5 1.328 . S
C1 H6 0.930 . S
C2 C3 1.333 . S
C2 N4 1.317 . S
C2 H7 0.930 . S
C3 C2 1.333 . S
C3 N5 1.350 . S
C3 H29 0.931 . S
N4 Co0 2.148 . S
N4 C1 1.301 . S
N4 C2 1.317 . S
N5 C1 1.328 . S
N5 C3 1.350 . S
H6 C1 0.930 . S
H7 C2 0.930 . S
C8 O9 1.224 . S
C8 O27 1.247 . S
O9 C8 1.224 . S
N10 Co0 2.128 . S
N10 C11 1.355 . S
N10 C13 1.311 . S
C11 N10 1.355 . S
C11 C12 1.363 . S
C11 H23 0.929 . S
C12 C11 1.363 . S
C12 N14 1.375 . S
C12 H30 0.931 . S
C13 N10 1.311 . S
C13 N14 1.347 . S
C13 H24 0.929 . S
N14 C12 1.375 . S
N14 C13 1.347 . S
C15 C18 1.365 . S
C15 N20 1.328 . S
C15 H21 0.929 . S
C16 C17 1.362 . S
C16 C19 1.378 . S
C16 H31 0.929 . S
C17 C16 1.362 . S
C17 C18 1.366 . S
C18 C15 1.365 . S
C18 C17 1.366 . S
C18 H32 0.930 . S
C19 C16 1.378 . S
C19 N20 1.315 . S
C19 H22 0.930 . S
N20 Co0 2.194 . S
N20 C15 1.328 . S
N20 C19 1.315 . S
H21 C15 0.929 . S
H22 C19 0.930 . S
H23 C11 0.929 . S
H24 C13 0.929 . S
O25 Co0 2.351 . S
O25 C28 1.244 . S
O26 Co0 2.155 . S
O26 C28 1.240 . S
O27 Co0 2.096 . S
O27 C8 1.247 . S
C28 O25 1.244 . S
C28 O26 1.240 . S
H29 C3 0.931 . S
H30 C12 0.931 . S
H31 C16 0.929 . S
H32 C18 0.930 . S
Co33 N37 2.148 . S
Co33 N43 2.128 . S
Co33 N53 2.194 . S
Co33 O58 2.351 . S
Co33 O59 2.155 . S
Co33 O60 2.096 . S
C34 N37 1.301 . S
C34 N38 1.328 . S
C34 H39 0.930 . S
C35 C36 1.333 . S
C35 N37 1.317 . S
C35 H40 0.930 . S
C36 C35 1.333 . S
C36 N38 1.350 . S
C36 H62 0.931 . S
N37 Co33 2.148 . S
N37 C34 1.301 . S
N37 C35 1.317 . S
N38 C34 1.328 . S
N38 C36 1.350 . S
H39 C34 0.930 . S
H40 C35 0.930 . S
C41 O42 1.224 . S
C41 O60 1.247 . S
O42 C41 1.224 . S
N43 Co33 2.128 . S
N43 C44 1.355 . S
N43 C46 1.311 . S
C44 N43 1.355 . S
C44 C45 1.363 . S
C44 H56 0.929 . S
C45 C44 1.363 . S
C45 N47 1.375 . S
C45 H63 0.931 . S
C46 N43 1.311 . S
C46 N47 1.347 . S
C46 H57 0.929 . S
N47 C45 1.375 . S
N47 C46 1.347 . S
C48 C51 1.365 . S
C48 N53 1.328 . S
C48 H54 0.929 . S
C49 C50 1.362 . S
C49 C52 1.378 . S
C49 H64 0.929 . S
C50 C49 1.362 . S
C50 C51 1.366 . S
C51 C48 1.365 . S
C51 C50 1.366 . S
C51 H65 0.930 . S
C52 C49 1.378 . S
C52 N53 1.315 . S
C52 H55 0.930 . S
N53 Co33 2.194 . S
N53 C48 1.328 . S
N53 C52 1.315 . S
H54 C48 0.929 . S
H55 C52 0.930 . S
H56 C44 0.929 . S
H57 C46 0.929 . S
O58 Co33 2.351 . S
O58 C61 1.244 . S
O59 Co33 2.155 . S
O59 C61 1.240 . S
O60 Co33 2.096 . S
O60 C41 1.247 . S
C61 O58 1.244 . S
C61 O59 1.240 . S
H62 C36 0.931 . S
H63 C45 0.931 . S
H64 C49 0.929 . S
H65 C51 0.930 . S
Co66 N70 2.148 . S
Co66 N76 2.128 . S
Co66 N86 2.194 . S
Co66 O91 2.351 . S
Co66 O92 2.155 . S
Co66 O93 2.096 . S
C67 N70 1.301 . S
C67 N71 1.328 1_556 S
C67 H72 0.930 . S
C68 C69 1.333 1_556 S
C68 N70 1.317 . S
C68 H73 0.930 . S
C69 C68 1.333 1_554 S
C69 N71 1.350 . S
C69 H95 0.931 . S
N70 Co66 2.148 . S
N70 C67 1.301 . S
N70 C68 1.317 . S
N71 C67 1.328 1_554 S
N71 C69 1.350 . S
H72 C67 0.930 . S
H73 C68 0.930 . S
C74 O75 1.224 . S
C74 O93 1.247 . S
O75 C74 1.224 . S
N76 Co66 2.128 . S
N76 C77 1.355 . S
N76 C79 1.311 . S
C77 N76 1.355 . S
C77 C78 1.363 . S
C77 H89 0.929 . S
C78 C77 1.363 . S
C78 N80 1.375 . S
C78 H96 0.931 . S
C79 N76 1.311 . S
C79 N80 1.347 . S
C79 H90 0.929 . S
N80 C78 1.375 . S
N80 C79 1.347 . S
C81 C84 1.365 . S
C81 N86 1.328 . S
C81 H87 0.929 . S
C82 C83 1.362 . S
C82 C85 1.378 . S
C82 H97 0.929 . S
C83 C82 1.362 . S
C83 C84 1.366 . S
C84 C81 1.365 . S
C84 C83 1.366 . S
C84 H98 0.930 . S
C85 C82 1.378 . S
C85 N86 1.315 . S
C85 H88 0.930 . S
N86 Co66 2.194 . S
N86 C81 1.328 . S
N86 C85 1.315 . S
H87 C81 0.929 . S
H88 C85 0.930 . S
H89 C77 0.929 . S
H90 C79 0.929 . S
O91 Co66 2.351 . S
O91 C94 1.244 . S
O92 Co66 2.155 . S
O92 C94 1.240 . S
O93 Co66 2.096 . S
O93 C74 1.247 . S
C94 O91 1.244 . S
C94 O92 1.240 . S
H95 C69 0.931 . S
H96 C78 0.931 . S
H97 C82 0.929 . S
H98 C84 0.930 . S
Co99 N103 2.148 1_556 S
Co99 N109 2.128 . S
Co99 N119 2.194 1_556 S
Co99 O124 2.351 1_556 S
Co99 O125 2.155 1_556 S
Co99 O126 2.096 . S
C100 N103 1.301 . S
C100 N104 1.328 . S
C100 H105 0.930 . S
C101 C102 1.333 . S
C101 N103 1.317 . S
C101 H106 0.930 . S
C102 C101 1.333 . S
C102 N104 1.350 . S
C102 H128 0.931 . S
N103 Co99 2.148 1_554 S
N103 C100 1.301 . S
N103 C101 1.317 . S
N104 C100 1.328 . S
N104 C102 1.350 . S
H105 C100 0.930 . S
H106 C101 0.930 . S
C107 O108 1.224 . S
C107 O126 1.247 . S
O108 C107 1.224 . S
N109 Co99 2.128 . S
N109 C110 1.355 . S
N109 C112 1.311 . S
C110 N109 1.355 . S
C110 C111 1.363 . S
C110 H122 0.929 . S
C111 C110 1.363 . S
C111 N113 1.375 . S
C111 H129 0.931 . S
C112 N109 1.311 . S
C112 N113 1.347 . S
C112 H123 0.929 . S
N113 C111 1.375 . S
N113 C112 1.347 . S
C114 C117 1.365 . S
C114 N119 1.328 . S
C114 H120 0.929 . S
C115 C116 1.362 . S
C115 C118 1.377 1_554 S
C115 H130 0.929 1_554 S
C116 C115 1.362 . S
C116 C117 1.366 . S
C117 C114 1.365 . S
C117 C116 1.366 . S
C117 H131 0.930 . S
C118 C115 1.377 1_556 S
C118 N119 1.315 1_556 S
C118 H121 0.931 . S
N119 Co99 2.194 1_554 S
N119 C114 1.328 . S
N119 C118 1.315 1_554 S
H120 C114 0.929 . S
H121 C118 0.931 . S
H122 C110 0.929 . S
H123 C112 0.929 . S
O124 Co99 2.351 1_554 S
O124 C127 1.244 . S
O125 Co99 2.155 1_554 S
O125 C127 1.240 . S
O126 Co99 2.096 . S
O126 C107 1.247 . S
C127 O124 1.244 . S
C127 O125 1.240 . S
H128 C102 0.931 . S
H129 C111 0.931 . S
H130 C115 0.929 1_556 S
H131 C117 0.930 . S
Co132 N136 2.148 . S
Co132 N142 2.128 . S
Co132 N152 2.194 . S
Co132 O157 2.351 . S
Co132 O158 2.155 . S
Co132 O159 2.096 . S
C133 N136 1.301 . S
C133 N137 1.328 . S
C133 H138 0.930 . S
C134 C135 1.333 . S
C134 N136 1.317 . S
C134 H139 0.930 . S
C135 C134 1.333 . S
C135 N137 1.350 . S
C135 H161 0.931 . S
N136 Co132 2.148 . S
N136 C133 1.301 . S
N136 C134 1.317 . S
N137 C133 1.328 . S
N137 C135 1.350 . S
H138 C133 0.930 . S
H139 C134 0.930 . S
C140 O141 1.224 . S
C140 O159 1.247 . S
O141 C140 1.224 . S
N142 Co132 2.128 . S
N142 C143 1.355 . S
N142 C145 1.311 . S
C143 N142 1.355 . S
C143 C144 1.363 . S
C143 H155 0.929 . S
C144 C143 1.363 . S
C144 N146 1.375 . S
C144 H162 0.931 . S
C145 N142 1.311 . S
C145 N146 1.347 . S
C145 H156 0.929 . S
N146 C144 1.375 . S
N146 C145 1.347 . S
C147 C150 1.365 . S
C147 N152 1.328 . S
C147 H153 0.929 . S
C148 C149 1.362 . S
C148 C151 1.378 . S
C148 H163 0.929 . S
C149 C148 1.362 . S
C149 C150 1.366 . S
C150 C147 1.365 . S
C150 C149 1.366 . S
C150 H164 0.930 . S
C151 C148 1.378 . S
C151 N152 1.315 . S
C151 H154 0.930 . S
N152 Co132 2.194 . S
N152 C147 1.328 . S
N152 C151 1.315 . S
H153 C147 0.929 . S
H154 C151 0.930 . S
H155 C143 0.929 . S
H156 C145 0.929 . S
O157 Co132 2.351 . S
O157 C160 1.244 . S
O158 Co132 2.155 . S
O158 C160 1.240 . S
O159 Co132 2.096 . S
O159 C140 1.247 . S
C160 O157 1.244 . S
C160 O158 1.240 . S
H161 C135 0.931 . S
H162 C144 0.931 . S
H163 C148 0.929 . S
H164 C150 0.930 . S
Co165 N169 2.148 1_554 S
Co165 N175 2.128 . S
Co165 N185 2.194 1_554 S
Co165 O190 2.351 1_554 S
Co165 O191 2.155 1_554 S
Co165 O192 2.096 . S
C166 N169 1.301 . S
C166 N170 1.328 . S
C166 H171 0.930 . S
C167 C168 1.333 . S
C167 N169 1.317 . S
C167 H172 0.930 . S
C168 C167 1.333 . S
C168 N170 1.350 . S
C168 H194 0.931 . S
N169 Co165 2.148 1_556 S
N169 C166 1.301 . S
N169 C167 1.317 . S
N170 C166 1.328 . S
N170 C168 1.350 . S
H171 C166 0.930 . S
H172 C167 0.930 . S
C173 O174 1.224 . S
C173 O192 1.247 . S
O174 C173 1.224 . S
N175 Co165 2.128 . S
N175 C176 1.355 . S
N175 C178 1.311 . S
C176 N175 1.355 . S
C176 C177 1.363 . S
C176 H188 0.929 . S
C177 C176 1.363 . S
C177 N179 1.375 . S
C177 H195 0.931 . S
C178 N175 1.311 . S
C178 N179 1.347 . S
C178 H189 0.929 . S
N179 C177 1.375 . S
N179 C178 1.347 . S
C180 C183 1.365 . S
C180 N185 1.328 . S
C180 H186 0.929 . S
C181 C182 1.362 . S
C181 C184 1.377 1_556 S
C181 H196 0.929 1_556 S
C182 C181 1.362 . S
C182 C183 1.366 . S
C183 C180 1.365 . S
C183 C182 1.366 . S
C183 H197 0.930 . S
C184 C181 1.377 1_554 S
C184 N185 1.315 1_554 S
C184 H187 0.931 . S
N185 Co165 2.194 1_556 S
N185 C180 1.328 . S
N185 C184 1.315 1_556 S
H186 C180 0.929 . S
H187 C184 0.931 . S
H188 C176 0.929 . S
H189 C178 0.929 . S
O190 Co165 2.351 1_556 S
O190 C193 1.244 . S
O191 Co165 2.155 1_556 S
O191 C193 1.240 . S
O192 Co165 2.096 . S
O192 C173 1.247 . S
C193 O190 1.244 . S
C193 O191 1.240 . S
H194 C168 0.931 . S
H195 C177 0.931 . S
H196 C181 0.929 1_554 S
H197 C183 0.930 . S
Co198 N202 2.148 . S
Co198 N208 2.128 . S
Co198 N218 2.194 . S
Co198 O223 2.351 . S
Co198 O224 2.155 . S
Co198 O225 2.096 . S
C199 N202 1.301 . S
C199 N203 1.328 1_554 S
C199 H204 0.930 . S
C200 C201 1.333 1_554 S
C200 N202 1.317 . S
C200 H205 0.930 . S
C201 C200 1.333 1_556 S
C201 N203 1.350 . S
C201 H227 0.931 . S
N202 Co198 2.148 . S
N202 C199 1.301 . S
N202 C200 1.317 . S
N203 C199 1.328 1_556 S
N203 C201 1.350 . S
H204 C199 0.930 . S
H205 C200 0.930 . S
C206 O207 1.224 . S
C206 O225 1.247 . S
O207 C206 1.224 . S
N208 Co198 2.128 . S
N208 C209 1.355 . S
N208 C211 1.311 . S
C209 N208 1.355 . S
C209 C210 1.363 . S
C209 H221 0.929 . S
C210 C209 1.363 . S
C210 N212 1.375 . S
C210 H228 0.931 . S
C211 N208 1.311 . S
C211 N212 1.347 . S
C211 H222 0.929 . S
N212 C210 1.375 . S
N212 C211 1.347 . S
C213 C216 1.365 . S
C213 N218 1.328 . S
C213 H219 0.929 . S
C214 C215 1.362 . S
C214 C217 1.378 . S
C214 H229 0.929 . S
C215 C214 1.362 . S
C215 C216 1.366 . S
C216 C213 1.365 . S
C216 C215 1.366 . S
C216 H230 0.930 . S
C217 C214 1.378 . S
C217 N218 1.315 . S
C217 H220 0.930 . S
N218 Co198 2.194 . S
N218 C213 1.328 . S
N218 C217 1.315 . S
H219 C213 0.929 . S
H220 C217 0.930 . S
H221 C209 0.929 . S
H222 C211 0.929 . S
O223 Co198 2.351 . S
O223 C226 1.244 . S
O224 Co198 2.155 . S
O224 C226 1.240 . S
O225 Co198 2.096 . S
O225 C206 1.247 . S
C226 O223 1.244 . S
C226 O224 1.240 . S
H227 C201 0.931 . S
H228 C210 0.931 . S
H229 C214 0.929 . S
H230 C216 0.930 . S
Co231 N235 2.148 . S
Co231 N241 2.128 . S
Co231 N251 2.194 . S
Co231 O256 2.351 . S
Co231 O257 2.155 . S
Co231 O258 2.096 . S
C232 N235 1.301 . S
C232 N236 1.328 . S
C232 H237 0.930 . S
C233 C234 1.333 . S
C233 N235 1.317 . S
C233 H238 0.930 . S
C234 C233 1.333 . S
C234 N236 1.350 . S
C234 H260 0.931 . S
N235 Co231 2.148 . S
N235 C232 1.301 . S
N235 C233 1.317 . S
N236 C232 1.328 . S
N236 C234 1.350 . S
H237 C232 0.930 . S
H238 C233 0.930 . S
C239 O240 1.224 . S
C239 O258 1.247 . S
O240 C239 1.224 . S
N241 Co231 2.128 . S
N241 C242 1.355 . S
N241 C244 1.311 . S
C242 N241 1.355 . S
C242 C243 1.363 . S
C242 H254 0.929 . S
C243 C242 1.363 . S
C243 N245 1.375 . S
C243 H261 0.931 . S
C244 N241 1.311 . S
C244 N245 1.347 . S
C244 H255 0.929 . S
N245 C243 1.375 . S
N245 C244 1.347 . S
C246 C249 1.365 . S
C246 N251 1.328 . S
C246 H252 0.929 . S
C247 C248 1.362 . S
C247 C250 1.378 . S
C247 H262 0.929 . S
C248 C247 1.362 . S
C248 C249 1.366 . S
C249 C246 1.365 . S
C249 C248 1.366 . S
C249 H263 0.930 . S
C250 C247 1.378 . S
C250 N251 1.315 . S
C250 H253 0.930 . S
N251 Co231 2.194 . S
N251 C246 1.328 . S
N251 C250 1.315 . S
H252 C246 0.929 . S
H253 C250 0.930 . S
H254 C242 0.929 . S
H255 C244 0.929 . S
O256 Co231 2.351 . S
O256 C259 1.244 . S
O257 Co231 2.155 . S
O257 C259 1.240 . S
O258 Co231 2.096 . S
O258 C239 1.247 . S
C259 O256 1.244 . S
C259 O257 1.240 . S
H260 C234 0.931 . S
H261 C243 0.931 . S
H262 C247 0.929 . S
H263 C249 0.930 . S
Co264 N268 2.148 . S
Co264 N274 2.128 . S
Co264 N284 2.194 . S
Co264 O289 2.351 . S
Co264 O290 2.155 . S
Co264 O291 2.096 . S
C265 N268 1.301 . S
C265 N269 1.328 . S
C265 H270 0.930 . S
C266 C267 1.333 . S
C266 N268 1.317 . S
C266 H271 0.930 . S
C267 C266 1.333 . S
C267 N269 1.350 . S
C267 H293 0.931 . S
N268 Co264 2.148 . S
N268 C265 1.301 . S
N268 C266 1.317 . S
N269 C265 1.328 . S
N269 C267 1.350 . S
H270 C265 0.930 . S
H271 C266 0.930 . S
C272 O273 1.224 . S
C272 O291 1.247 . S
O273 C272 1.224 . S
N274 Co264 2.128 . S
N274 C275 1.355 . S
N274 C277 1.311 . S
C275 N274 1.355 . S
C275 C276 1.363 . S
C275 H287 0.929 . S
C276 C275 1.363 . S
C276 N278 1.375 . S
C276 H294 0.931 . S
C277 N274 1.311 . S
C277 N278 1.347 . S
C277 H288 0.929 . S
N278 C276 1.375 . S
N278 C277 1.347 . S
C279 C282 1.365 . S
C279 N284 1.328 . S
C279 H285 0.929 . S
C280 C281 1.362 . S
C280 C283 1.378 . S
C280 H295 0.929 . S
C281 C280 1.362 . S
C281 C282 1.366 . S
C282 C279 1.365 . S
C282 C281 1.366 . S
C282 H296 0.930 . S
C283 C280 1.378 . S
C283 N284 1.315 . S
C283 H286 0.930 . S
N284 Co264 2.194 . S
N284 C279 1.328 . S
N284 C283 1.315 . S
H285 C279 0.929 . S
H286 C283 0.930 . S
H287 C275 0.929 . S
H288 C277 0.929 . S
O289 Co264 2.351 . S
O289 C292 1.244 . S
O290 Co264 2.155 . S
O290 C292 1.240 . S
O291 Co264 2.096 . S
O291 C272 1.247 . S
C292 O289 1.244 . S
C292 O290 1.240 . S
H293 C267 0.931 . S
H294 C276 0.931 . S
H295 C280 0.929 . S
H296 C282 0.930 . S
Co297 N301 2.148 1_554 S
Co297 N307 2.128 . S
Co297 N317 2.194 1_554 S
Co297 O322 2.351 1_554 S
Co297 O323 2.155 1_554 S
Co297 O324 2.096 . S
C298 N301 1.301 . S
C298 N302 1.328 . S
C298 H303 0.930 . S
C299 C300 1.333 . S
C299 N301 1.317 . S
C299 H304 0.930 . S
C300 C299 1.333 . S
C300 N302 1.350 . S
C300 H326 0.931 . S
N301 Co297 2.148 1_556 S
N301 C298 1.301 . S
N301 C299 1.317 . S
N302 C298 1.328 . S
N302 C300 1.350 . S
H303 C298 0.930 . S
H304 C299 0.930 . S
C305 O306 1.224 . S
C305 O324 1.247 . S
O306 C305 1.224 . S
N307 Co297 2.128 . S
N307 C308 1.355 . S
N307 C310 1.311 . S
C308 N307 1.355 . S
C308 C309 1.363 . S
C308 H320 0.929 . S
C309 C308 1.363 . S
C309 N311 1.375 . S
C309 H327 0.931 . S
C310 N307 1.311 . S
C310 N311 1.347 . S
C310 H321 0.929 . S
N311 C309 1.375 . S
N311 C310 1.347 . S
C312 C315 1.365 . S
C312 N317 1.328 . S
C312 H318 0.929 . S
C313 C314 1.362 . S
C313 C316 1.377 1_556 S
C313 H328 0.929 1_556 S
C314 C313 1.362 . S
C314 C315 1.366 . S
C315 C312 1.365 . S
C315 C314 1.366 . S
C315 H329 0.930 . S
C316 C313 1.377 1_554 S
C316 N317 1.315 1_554 S
C316 H319 0.931 . S
N317 Co297 2.194 1_556 S
N317 C312 1.328 . S
N317 C316 1.315 1_556 S
H318 C312 0.929 . S
H319 C316 0.931 . S
H320 C308 0.929 . S
H321 C310 0.929 . S
O322 Co297 2.351 1_556 S
O322 C325 1.244 . S
O323 Co297 2.155 1_556 S
O323 C325 1.240 . S
O324 Co297 2.096 . S
O324 C305 1.247 . S
C325 O322 1.244 . S
C325 O323 1.240 . S
H326 C300 0.931 . S
H327 C309 0.931 . S
H328 C313 0.929 1_554 S
H329 C315 0.930 . S
Co330 N334 2.148 1_556 S
Co330 N340 2.128 . S
Co330 N350 2.194 1_556 S
Co330 O355 2.351 1_556 S
Co330 O356 2.155 1_556 S
Co330 O357 2.096 . S
C331 N334 1.301 . S
C331 N335 1.328 . S
C331 H336 0.930 . S
C332 C333 1.333 . S
C332 N334 1.317 . S
C332 H337 0.930 . S
C333 C332 1.333 . S
C333 N335 1.350 . S
C333 H359 0.931 . S
N334 Co330 2.148 1_554 S
N334 C331 1.301 . S
N334 C332 1.317 . S
N335 C331 1.328 . S
N335 C333 1.350 . S
H336 C331 0.930 . S
H337 C332 0.930 . S
C338 O339 1.224 . S
C338 O357 1.247 . S
O339 C338 1.224 . S
N340 Co330 2.128 . S
N340 C341 1.355 . S
N340 C343 1.311 . S
C341 N340 1.355 . S
C341 C342 1.363 . S
C341 H353 0.929 . S
C342 C341 1.363 . S
C342 N344 1.375 . S
C342 H360 0.931 . S
C343 N340 1.311 . S
C343 N344 1.347 . S
C343 H354 0.929 . S
N344 C342 1.375 . S
N344 C343 1.347 . S
C345 C348 1.365 . S
C345 N350 1.328 . S
C345 H351 0.929 . S
C346 C347 1.362 . S
C346 C349 1.377 1_554 S
C346 H361 0.929 1_554 S
C347 C346 1.362 . S
C347 C348 1.366 . S
C348 C345 1.365 . S
C348 C347 1.366 . S
C348 H362 0.930 . S
C349 C346 1.377 1_556 S
C349 N350 1.315 1_556 S
C349 H352 0.931 . S
N350 Co330 2.194 1_554 S
N350 C345 1.328 . S
N350 C349 1.315 1_554 S
H351 C345 0.929 . S
H352 C349 0.931 . S
H353 C341 0.929 . S
H354 C343 0.929 . S
O355 Co330 2.351 1_554 S
O355 C358 1.244 . S
O356 Co330 2.155 1_554 S
O356 C358 1.240 . S
O357 Co330 2.096 . S
O357 C338 1.247 . S
C358 O355 1.244 . S
C358 O356 1.240 . S
H359 C333 0.931 . S
H360 C342 0.931 . S
H361 C346 0.929 1_556 S
H362 C348 0.930 . S
Co363 N367 2.148 . S
Co363 N373 2.128 . S
Co363 N383 2.194 . S
Co363 O388 2.351 . S
Co363 O389 2.155 . S
Co363 O390 2.096 . S
C364 N367 1.301 . S
C364 N368 1.328 . S
C364 H369 0.930 . S
C365 C366 1.333 . S
C365 N367 1.317 . S
C365 H370 0.930 . S
C366 C365 1.333 . S
C366 N368 1.350 . S
C366 H392 0.931 . S
N367 Co363 2.148 . S
N367 C364 1.301 . S
N367 C365 1.317 . S
N368 C364 1.328 . S
N368 C366 1.350 . S
H369 C364 0.930 . S
H370 C365 0.930 . S
C371 O372 1.224 . S
C371 O390 1.247 . S
O372 C371 1.224 . S
N373 Co363 2.128 . S
N373 C374 1.355 . S
N373 C376 1.311 . S
C374 N373 1.355 . S
C374 C375 1.363 . S
C374 H386 0.929 . S
C375 C374 1.363 . S
C375 N377 1.375 . S
C375 H393 0.931 . S
C376 N373 1.311 . S
C376 N377 1.347 . S
C376 H387 0.929 . S
N377 C375 1.375 . S
N377 C376 1.347 . S
C378 C381 1.365 . S
C378 N383 1.328 . S
C378 H384 0.929 . S
C379 C380 1.362 . S
C379 C382 1.378 . S
C379 H394 0.929 . S
C380 C379 1.362 . S
C380 C381 1.366 . S
C381 C378 1.365 . S
C381 C380 1.366 . S
C381 H395 0.930 . S
C382 C379 1.378 . S
C382 N383 1.315 . S
C382 H385 0.930 . S
N383 Co363 2.194 . S
N383 C378 1.328 . S
N383 C382 1.315 . S
H384 C378 0.929 . S
H385 C382 0.930 . S
H386 C374 0.929 . S
H387 C376 0.929 . S
O388 Co363 2.351 . S
O388 C391 1.244 . S
O389 Co363 2.155 . S
O389 C391 1.240 . S
O390 Co363 2.096 . S
O390 C371 1.247 . S
C391 O388 1.244 . S
C391 O389 1.240 . S
H392 C366 0.931 . S
H393 C375 0.931 . S
H394 C379 0.929 . S
H395 C381 0.930 . S
Co396 N400 2.148 . S
Co396 N406 2.128 . S
Co396 N416 2.194 . S
Co396 O421 2.351 . S
Co396 O422 2.155 . S
Co396 O423 2.096 . S
C397 N400 1.301 . S
C397 N401 1.328 1_556 S
C397 H402 0.930 . S
C398 C399 1.333 1_556 S
C398 N400 1.317 . S
C398 H403 0.930 . S
C399 C398 1.333 1_554 S
C399 N401 1.350 . S
C399 H425 0.931 . S
N400 Co396 2.148 . S
N400 C397 1.301 . S
N400 C398 1.317 . S
N401 C397 1.328 1_554 S
N401 C399 1.350 . S
H402 C397 0.930 . S
H403 C398 0.930 . S
C404 O405 1.224 . S
C404 O423 1.247 . S
O405 C404 1.224 . S
N406 Co396 2.128 . S
N406 C407 1.355 . S
N406 C409 1.311 . S
C407 N406 1.355 . S
C407 C408 1.363 . S
C407 H419 0.929 . S
C408 C407 1.363 . S
C408 N410 1.375 . S
C408 H426 0.931 . S
C409 N406 1.311 . S
C409 N410 1.347 . S
C409 H420 0.929 . S
N410 C408 1.375 . S
N410 C409 1.347 . S
C411 C414 1.365 . S
C411 N416 1.328 . S
C411 H417 0.929 . S
C412 C413 1.362 . S
C412 C415 1.378 . S
C412 H427 0.929 . S
C413 C412 1.362 . S
C413 C414 1.366 . S
C414 C411 1.365 . S
C414 C413 1.366 . S
C414 H428 0.930 . S
C415 C412 1.378 . S
C415 N416 1.315 . S
C415 H418 0.930 . S
N416 Co396 2.194 . S
N416 C411 1.328 . S
N416 C415 1.315 . S
H417 C411 0.929 . S
H418 C415 0.930 . S
H419 C407 0.929 . S
H420 C409 0.929 . S
O421 Co396 2.351 . S
O421 C424 1.244 . S
O422 Co396 2.155 . S
O422 C424 1.240 . S
O423 Co396 2.096 . S
O423 C404 1.247 . S
C424 O421 1.244 . S
C424 O422 1.240 . S
H425 C399 0.931 . S
H426 C408 0.931 . S
H427 C412 0.929 . S
H428 C414 0.930 . S
Co429 N433 2.148 . S
Co429 N439 2.128 . S
Co429 N449 2.194 . S
Co429 O454 2.351 . S
Co429 O455 2.155 . S
Co429 O456 2.096 . S
C430 N433 1.301 . S
C430 N434 1.328 . S
C430 H435 0.930 . S
C431 C432 1.333 . S
C431 N433 1.317 . S
C431 H436 0.930 . S
C432 C431 1.333 . S
C432 N434 1.350 . S
C432 H458 0.931 . S
N433 Co429 2.148 . S
N433 C430 1.301 . S
N433 C431 1.317 . S
N434 C430 1.328 . S
N434 C432 1.350 . S
H435 C430 0.930 . S
H436 C431 0.930 . S
C437 O438 1.224 . S
C437 O456 1.247 . S
O438 C437 1.224 . S
N439 Co429 2.128 . S
N439 C440 1.355 . S
N439 C442 1.311 . S
C440 N439 1.355 . S
C440 C441 1.363 . S
C440 H452 0.929 . S
C441 C440 1.363 . S
C441 N443 1.375 . S
C441 H459 0.931 . S
C442 N439 1.311 . S
C442 N443 1.347 . S
C442 H453 0.929 . S
N443 C441 1.375 . S
N443 C442 1.347 . S
C444 C447 1.365 . S
C444 N449 1.328 . S
C444 H450 0.929 . S
C445 C446 1.362 . S
C445 C448 1.378 . S
C445 H460 0.929 . S
C446 C445 1.362 . S
C446 C447 1.366 . S
C447 C444 1.365 . S
C447 C446 1.366 . S
C447 H461 0.930 . S
C448 C445 1.378 . S
C448 N449 1.315 . S
C448 H451 0.930 . S
N449 Co429 2.194 . S
N449 C444 1.328 . S
N449 C448 1.315 . S
H450 C444 0.929 . S
H451 C448 0.930 . S
H452 C440 0.929 . S
H453 C442 0.929 . S
O454 Co429 2.351 . S
O454 C457 1.244 . S
O455 Co429 2.155 . S
O455 C457 1.240 . S
O456 Co429 2.096 . S
O456 C437 1.247 . S
C457 O454 1.244 . S
C457 O455 1.240 . S
H458 C432 0.931 . S
H459 C441 0.931 . S
H460 C445 0.929 . S
H461 C447 0.930 . S
Co462 N466 2.148 . S
Co462 N472 2.128 . S
Co462 N482 2.194 . S
Co462 O487 2.351 . S
Co462 O488 2.155 . S
Co462 O489 2.096 . S
C463 N466 1.301 . S
C463 N467 1.328 1_554 S
C463 H468 0.930 . S
C464 C465 1.333 1_554 S
C464 N466 1.317 . S
C464 H469 0.930 . S
C465 C464 1.333 1_556 S
C465 N467 1.350 . S
C465 H491 0.931 . S
N466 Co462 2.148 . S
N466 C463 1.301 . S
N466 C464 1.317 . S
N467 C463 1.328 1_556 S
N467 C465 1.350 . S
H468 C463 0.930 . S
H469 C464 0.930 . S
C470 O471 1.224 . S
C470 O489 1.247 . S
O471 C470 1.224 . S
N472 Co462 2.128 . S
N472 C473 1.355 . S
N472 C475 1.311 . S
C473 N472 1.355 . S
C473 C474 1.363 . S
C473 H485 0.929 . S
C474 C473 1.363 . S
C474 N476 1.375 . S
C474 H492 0.931 . S
C475 N472 1.311 . S
C475 N476 1.347 . S
C475 H486 0.929 . S
N476 C474 1.375 . S
N476 C475 1.347 . S
C477 C480 1.365 . S
C477 N482 1.328 . S
C477 H483 0.929 . S
C478 C479 1.362 . S
C478 C481 1.378 . S
C478 H493 0.929 . S
C479 C478 1.362 . S
C479 C480 1.366 . S
C480 C477 1.365 . S
C480 C479 1.366 . S
C480 H494 0.930 . S
C481 C478 1.378 . S
C481 N482 1.315 . S
C481 H484 0.930 . S
N482 Co462 2.194 . S
N482 C477 1.328 . S
N482 C481 1.315 . S
H483 C477 0.929 . S
H484 C481 0.930 . S
H485 C473 0.929 . S
H486 C475 0.929 . S
O487 Co462 2.351 . S
O487 C490 1.244 . S
O488 Co462 2.155 . S
O488 C490 1.240 . S
O489 Co462 2.096 . S
O489 C470 1.247 . S
C490 O487 1.244 . S
C490 O488 1.240 . S
H491 C465 0.931 . S
H492 C474 0.931 . S
H493 C478 0.929 . S
H494 C480 0.930 . S
Co495 N499 2.148 . S
Co495 N505 2.128 . S
Co495 N515 2.194 . S
Co495 O520 2.351 . S
Co495 O521 2.155 . S
Co495 O522 2.096 . S
C496 N499 1.301 . S
C496 N500 1.328 . S
C496 H501 0.930 . S
C497 C498 1.333 . S
C497 N499 1.317 . S
C497 H502 0.930 . S
C498 C497 1.333 . S
C498 N500 1.350 . S
C498 H524 0.931 . S
N499 Co495 2.148 . S
N499 C496 1.301 . S
N499 C497 1.317 . S
N500 C496 1.328 . S
N500 C498 1.350 . S
H501 C496 0.930 . S
H502 C497 0.930 . S
C503 O504 1.224 . S
C503 O522 1.247 . S
O504 C503 1.224 . S
N505 Co495 2.128 . S
N505 C506 1.355 . S
N505 C508 1.311 . S
C506 N505 1.355 . S
C506 C507 1.363 . S
C506 H518 0.929 . S
C507 C506 1.363 . S
C507 N509 1.375 . S
C507 H525 0.931 . S
C508 N505 1.311 . S
C508 N509 1.347 . S
C508 H519 0.929 . S
N509 C507 1.375 . S
N509 C508 1.347 . S
C510 C513 1.365 . S
C510 N515 1.328 . S
C510 H516 0.929 . S
C511 C512 1.362 . S
C511 C514 1.378 . S
C511 H526 0.929 . S
C512 C511 1.362 . S
C512 C513 1.366 . S
C513 C510 1.365 . S
C513 C512 1.366 . S
C513 H527 0.930 . S
C514 C511 1.378 . S
C514 N515 1.315 . S
C514 H517 0.930 . S
N515 Co495 2.194 . S
N515 C510 1.328 . S
N515 C514 1.315 . S
H516 C510 0.929 . S
H517 C514 0.930 . S
H518 C506 0.929 . S
H519 C508 0.929 . S
O520 Co495 2.351 . S
O520 C523 1.244 . S
O521 Co495 2.155 . S
O521 C523 1.240 . S
O522 Co495 2.096 . S
O522 C503 1.247 . S
C523 O520 1.244 . S
C523 O521 1.240 . S
H524 C498 0.931 . S
H525 C507 0.931 . S
H526 C511 0.929 . S
H527 C513 0.930 . S
H528 C536 0.950 . S
H529 C541 0.950 . S
H530 C538 0.950 . S
H531 C540 0.950 . S
H532 C542 0.950 . S
H533 C544 0.950 . S
H534 C546 0.950 . S
H535 C547 0.950 . S
C536 H528 0.950 . S
C536 C537 1.386 . S
C536 C538 1.391 . S
C537 C536 1.386 . S
C537 C541 1.393 . S
C538 H530 0.950 . S
C538 C536 1.391 . S
C538 C539 1.400 . S
C539 C538 1.400 . S
C539 C540 1.398 . S
C539 C545 1.491 . S
C540 H531 0.950 . S
C540 C539 1.398 . S
C540 C541 1.391 . S
C541 H529 0.950 . S
C541 C537 1.393 . S
C541 C540 1.391 . S
C542 H532 0.950 . S
C542 C543 1.386 . S
C542 C544 1.391 . S
C543 C542 1.386 . S
C543 C547 1.393 . S
C544 H533 0.950 . S
C544 C542 1.391 . S
C544 C545 1.400 . S
C545 C539 1.491 . S
C545 C544 1.400 . S
C545 C546 1.398 . S
C546 H534 0.950 . S
C546 C545 1.398 . S
C546 C547 1.391 . S
C547 H535 0.950 . S
C547 C543 1.393 . S
C547 C546 1.391 . S
H548 C556 0.950 . S
H549 C561 0.950 . S
H550 C558 0.950 . S
H551 C560 0.950 . S
H552 C562 0.950 . S
H553 C564 0.950 . S
H554 C566 0.950 . S
H555 C567 0.950 . S
C556 H548 0.950 . S
C556 C557 1.386 . S
C556 C558 1.391 . S
C557 C556 1.386 . S
C557 C561 1.393 . S
C558 H550 0.950 . S
C558 C556 1.391 . S
C558 C559 1.400 . S
C559 C558 1.400 . S
C559 C560 1.398 . S
C559 C565 1.491 . S
C560 H551 0.950 . S
C560 C559 1.398 . S
C560 C561 1.391 . S
C561 H549 0.950 . S
C561 C557 1.393 . S
C561 C560 1.391 . S
C562 H552 0.950 . S
C562 C563 1.386 . S
C562 C564 1.391 . S
C563 C562 1.386 . S
C563 C567 1.393 . S
C564 H553 0.950 . S
C564 C562 1.391 . S
C564 C565 1.400 . S
C565 C559 1.491 . S
C565 C564 1.400 . S
C565 C566 1.398 . S
C566 H554 0.950 . S
C566 C565 1.398 . S
C566 C567 1.391 . S
C567 H555 0.950 . S
C567 C563 1.393 . S
C567 C566 1.391 . S
H568 C576 0.950 . S
H569 C581 0.950 . S
H570 C578 0.950 . S
H571 C580 0.950 . S
H572 C582 0.950 1_554 S
H573 C584 0.950 1_554 S
H574 C586 0.950 . S
H575 C587 0.950 . S
C576 H568 0.950 . S
C576 C577 1.386 . S
C576 C578 1.391 . S
C577 C576 1.386 . S
C577 C581 1.393 . S
C578 H570 0.950 . S
C578 C576 1.391 . S
C578 C579 1.400 . S
C579 C578 1.400 . S
C579 C580 1.398 . S
C579 C585 1.491 . S
C580 H571 0.950 . S
C580 C579 1.398 . S
C580 C581 1.391 . S
C581 H569 0.950 . S
C581 C577 1.393 . S
C581 C580 1.391 . S
C582 H572 0.950 1_556 S
C582 C583 1.386 . S
C582 C584 1.391 . S
C583 C582 1.386 . S
C583 C587 1.393 . S
C584 H573 0.950 1_556 S
C584 C582 1.391 . S
C584 C585 1.400 . S
C585 C579 1.491 . S
C585 C584 1.400 . S
C585 C586 1.398 . S
C586 H574 0.950 . S
C586 C585 1.398 . S
C586 C587 1.391 . S
C587 H575 0.950 . S
C587 C583 1.393 . S
C587 C586 1.391 . S
H588 C596 0.950 . S
H589 C601 0.950 . S
H590 C598 0.950 . S
H591 C600 0.950 . S
H592 C602 0.950 . S
H593 C604 0.950 . S
H594 C606 0.950 . S
H595 C607 0.950 . S
C596 H588 0.950 . S
C596 C597 1.386 . S
C596 C598 1.391 . S
C597 C596 1.386 . S
C597 C601 1.393 . S
C598 H590 0.950 . S
C598 C596 1.391 . S
C598 C599 1.400 . S
C599 C598 1.400 . S
C599 C600 1.398 . S
C599 C605 1.491 . S
C600 H591 0.950 . S
C600 C599 1.398 . S
C600 C601 1.391 . S
C601 H589 0.950 . S
C601 C597 1.393 . S
C601 C600 1.391 . S
C602 H592 0.950 . S
C602 C603 1.386 . S
C602 C604 1.391 . S
C603 C602 1.386 . S
C603 C607 1.393 . S
C604 H593 0.950 . S
C604 C602 1.391 . S
C604 C605 1.400 . S
C605 C599 1.491 . S
C605 C604 1.400 . S
C605 C606 1.398 . S
C606 H594 0.950 . S
C606 C605 1.398 . S
C606 C607 1.391 . S
C607 H595 0.950 . S
C607 C603 1.393 . S
C607 C606 1.391 . S
H608 C616 0.950 . S
H609 C621 0.950 . S
H610 C618 0.950 . S
H611 C620 0.950 . S
H612 C622 0.950 . S
H613 C624 0.950 . S
H614 C626 0.950 . S
H615 C627 0.950 . S
C616 H608 0.950 . S
C616 C617 1.386 . S
C616 C618 1.391 . S
C617 C616 1.386 . S
C617 C621 1.393 . S
C618 H610 0.950 . S
C618 C616 1.391 . S
C618 C619 1.400 . S
C619 C618 1.400 . S
C619 C620 1.398 . S
C619 C625 1.491 . S
C620 H611 0.950 . S
C620 C619 1.398 . S
C620 C621 1.391 . S
C621 H609 0.950 . S
C621 C617 1.393 . S
C621 C620 1.391 . S
C622 H612 0.950 . S
C622 C623 1.386 1_655 S
C622 C624 1.391 . S
C623 C622 1.386 1_455 S
C623 C627 1.393 . S
C624 H613 0.950 . S
C624 C622 1.391 . S
C624 C625 1.400 . S
C625 C619 1.491 . S
C625 C624 1.400 . S
C625 C626 1.398 1_655 S
C626 H614 0.950 . S
C626 C625 1.398 1_455 S
C626 C627 1.391 . S
C627 H615 0.950 . S
C627 C623 1.393 . S
C627 C626 1.391 . S
H628 C636 0.950 . S
H629 C641 0.950 . S
H630 C638 0.950 . S
H631 C640 0.950 . S
H632 C642 0.950 . S
H633 C644 0.950 . S
H634 C646 0.954 . S
H635 C647 0.950 . S
C636 H628 0.950 . S
C636 C637 1.386 . S
C636 C638 1.391 . S
C637 C636 1.386 . S
C637 C641 1.393 . S
C638 H630 0.950 . S
C638 C636 1.391 . S
C638 C639 1.400 . S
C639 C638 1.400 . S
C639 C640 1.398 . S
C639 C645 1.491 . S
C640 H631 0.950 . S
C640 C639 1.398 . S
C640 C641 1.391 . S
C641 H629 0.950 . S
C641 C637 1.393 . S
C641 C640 1.391 . S
C642 H632 0.950 . S
C642 C643 1.386 . S
C642 C644 1.391 1_455 S
C643 C642 1.386 . S
C643 C647 1.393 . S
C644 H633 0.950 . S
C644 C642 1.391 1_655 S
C644 C645 1.400 . S
C645 C639 1.491 . S
C645 C644 1.400 . S
C645 C646 1.442 . S
C646 H634 0.954 . S
C646 C645 1.442 . S
C646 C647 1.347 1_655 S
C647 H635 0.950 . S
C647 C643 1.393 . S
C647 C646 1.347 1_455 S
H648 C656 0.950 . S
H649 C661 0.950 . S
H650 C658 0.950 . S
H651 C660 0.950 . S
H652 C662 0.950 . S
H653 C664 0.950 . S
H654 C666 0.950 . S
H655 C667 0.950 . S
C656 H648 0.950 . S
C656 C657 1.386 . S
C656 C658 1.391 . S
C657 C656 1.386 . S
C657 C661 1.393 . S
C658 H650 0.950 . S
C658 C656 1.391 . S
C658 C659 1.400 . S
C659 C658 1.400 . S
C659 C660 1.398 . S
C659 C665 1.491 . S
C660 H651 0.950 . S
C660 C659 1.398 . S
C660 C661 1.391 . S
C661 H649 0.950 . S
C661 C657 1.393 . S
C661 C660 1.391 . S
C662 H652 0.950 . S
C662 C663 1.386 . S
C662 C664 1.391 . S
C663 C662 1.386 . S
C663 C667 1.393 . S
C664 H653 0.950 . S
C664 C662 1.391 . S
C664 C665 1.400 . S
C665 C659 1.491 . S
C665 C664 1.400 . S
C665 C666 1.398 . S
C666 H654 0.950 . S
C666 C665 1.398 . S
C666 C667 1.391 . S
C667 H655 0.950 . S
C667 C663 1.393 . S
C667 C666 1.391 . S
H668 C676 0.950 . S
H669 C681 0.950 . S
H670 C678 0.950 . S
H671 C680 0.950 . S
H672 C682 0.950 . S
H673 C684 0.950 . S
H674 C686 0.950 1_554 S
H675 C687 0.950 1_554 S
C676 H668 0.950 . S
C676 C677 1.386 . S
C676 C678 1.391 . S
C677 C676 1.386 . S
C677 C681 1.393 . S
C678 H670 0.950 . S
C678 C676 1.391 . S
C678 C679 1.400 . S
C679 C678 1.400 . S
C679 C680 1.398 . S
C679 C685 1.491 . S
C680 H671 0.950 . S
C680 C679 1.398 . S
C680 C681 1.391 . S
C681 H669 0.950 . S
C681 C677 1.393 . S
C681 C680 1.391 . S
C682 H672 0.950 . S
C682 C683 1.386 . S
C682 C684 1.391 . S
C683 C682 1.386 . S
C683 C687 1.393 . S
C684 H673 0.950 . S
C684 C682 1.391 . S
C684 C685 1.400 . S
C685 C679 1.491 . S
C685 C684 1.400 . S
C685 C686 1.398 . S
C686 H674 0.950 1_556 S
C686 C685 1.398 . S
C686 C687 1.391 . S
C687 H675 0.950 1_556 S
C687 C683 1.393 . S
C687 C686 1.391 . S
H688 C696 0.950 . S
H689 C701 0.950 1_554 S
H690 C698 0.950 . S
H691 C700 0.950 . S
H692 C702 0.950 . S
H693 C704 0.950 . S
H694 C706 0.950 . S
H695 C707 0.950 . S
C696 H688 0.950 . S
C696 C697 1.386 . S
C696 C698 1.391 . S
C697 C696 1.386 . S
C697 C701 1.393 . S
C698 H690 0.950 . S
C698 C696 1.391 . S
C698 C699 1.400 . S
C699 C698 1.400 . S
C699 C700 1.398 . S
C699 C705 1.491 . S
C700 H691 0.950 . S
C700 C699 1.398 . S
C700 C701 1.391 . S
C701 H689 0.950 1_556 S
C701 C697 1.393 . S
C701 C700 1.391 . S
C702 H692 0.950 . S
C702 C703 1.386 . S
C702 C704 1.391 . S
C703 C702 1.386 . S
C703 C707 1.393 . S
C704 H693 0.950 . S
C704 C702 1.391 . S
C704 C705 1.400 . S
C705 C699 1.491 . S
C705 C704 1.400 . S
C705 C706 1.398 . S
C706 H694 0.950 . S
C706 C705 1.398 . S
C706 C707 1.391 . S
C707 H695 0.950 . S
C707 C703 1.393 . S
C707 C706 1.391 . S
H708 C716 0.950 . S
H709 C721 0.950 . S
H710 C718 0.950 . S
H711 C720 0.950 . S
H712 C722 0.950 1_556 S
H713 C724 0.950 1_556 S
H714 C726 0.950 . S
H715 C727 0.950 . S
C716 H708 0.950 . S
C716 C717 1.386 . S
C716 C718 1.391 . S
C717 C716 1.386 . S
C717 C721 1.393 . S
C718 H710 0.950 . S
C718 C716 1.391 . S
C718 C719 1.400 . S
C719 C718 1.400 . S
C719 C720 1.398 . S
C719 C725 1.491 . S
C720 H711 0.950 . S
C720 C719 1.398 . S
C720 C721 1.391 . S
C721 H709 0.950 . S
C721 C717 1.393 . S
C721 C720 1.391 . S
C722 H712 0.950 1_554 S
C722 C723 1.386 . S
C722 C724 1.391 . S
C723 C722 1.386 . S
C723 C727 1.393 . S
C724 H713 0.950 1_554 S
C724 C722 1.391 . S
C724 C725 1.400 . S
C725 C719 1.491 . S
C725 C724 1.400 . S
C725 C726 1.398 . S
C726 H714 0.950 . S
C726 C725 1.398 . S
C726 C727 1.391 . S
C727 H715 0.950 . S
C727 C723 1.393 . S
C727 C726 1.391 . S
H728 C736 0.950 . S
H729 C741 0.950 . S
H730 C738 0.950 . S
H731 C740 0.950 . S
H732 C742 0.950 . S
H733 C744 0.950 . S
H734 C746 0.950 . S
H735 C747 0.950 . S
C736 H728 0.950 . S
C736 C737 1.386 1_655 S
C736 C738 1.391 . S
C737 C736 1.386 1_455 S
C737 C741 1.393 . S
C738 H730 0.950 . S
C738 C736 1.391 . S
C738 C739 1.400 . S
C739 C738 1.400 . S
C739 C740 1.398 . S
C739 C745 1.491 . S
C740 H731 0.950 . S
C740 C739 1.398 . S
C740 C741 1.391 1_655 S
C741 H729 0.950 . S
C741 C737 1.393 . S
C741 C740 1.391 1_455 S
C742 H732 0.950 . S
C742 C743 1.386 . S
C742 C744 1.391 . S
C743 C742 1.386 . S
C743 C747 1.393 . S
C744 H733 0.950 . S
C744 C742 1.391 . S
C744 C745 1.400 . S
C745 C739 1.491 . S
C745 C744 1.400 . S
C745 C746 1.398 . S
C746 H734 0.950 . S
C746 C745 1.398 . S
C746 C747 1.391 . S
C747 H735 0.950 . S
C747 C743 1.393 . S
C747 C746 1.391 . S
H748 C756 0.950 . S
H749 C761 0.950 . S
H750 C758 0.950 . S
H751 C760 0.950 . S
H752 C762 0.950 . S
H753 C764 0.950 . S
H754 C766 0.950 . S
H755 C767 0.950 . S
C756 H748 0.950 . S
C756 C757 1.386 . S
C756 C758 1.391 . S
C757 C756 1.386 . S
C757 C761 1.393 . S
C758 H750 0.950 . S
C758 C756 1.391 . S
C758 C759 1.400 . S
C759 C758 1.400 . S
C759 C760 1.398 . S
C759 C765 1.491 . S
C760 H751 0.950 . S
C760 C759 1.398 . S
C760 C761 1.391 . S
C761 H749 0.950 . S
C761 C757 1.393 . S
C761 C760 1.391 . S
C762 H752 0.950 . S
C762 C763 1.391 . S
C762 C764 1.391 1_455 S
C763 C762 1.391 . S
C763 C767 1.370 1_455 S
C764 H753 0.950 . S
C764 C762 1.391 1_655 S
C764 C765 1.400 . S
C765 C759 1.491 . S
C765 C764 1.400 . S
C765 C766 1.398 . S
C766 H754 0.950 . S
C766 C765 1.398 . S
C766 C767 1.391 . S
C767 H755 0.950 . S
C767 C763 1.370 1_655 S
C767 C766 1.391 . S
H768 C776 0.950 . S
H769 C781 0.950 . S
H770 C778 0.950 . S
H771 C780 0.950 1_556 S
H772 C782 0.950 . S
H773 C784 0.950 . S
H774 C786 0.950 . S
H775 C787 0.950 . S
C776 H768 0.950 . S
C776 C777 1.386 . S
C776 C778 1.391 . S
C777 C776 1.386 . S
C777 C781 1.393 1_554 S
C778 H770 0.950 . S
C778 C776 1.391 . S
C778 C779 1.400 . S
C779 C778 1.400 . S
C779 C780 1.398 . S
C779 C785 1.491 . S
C780 H771 0.950 1_554 S
C780 C779 1.398 . S
C780 C781 1.391 1_554 S
C781 H769 0.950 . S
C781 C777 1.393 1_556 S
C781 C780 1.391 1_556 S
C782 H772 0.950 . S
C782 C783 1.386 . S
C782 C784 1.391 . S
C783 C782 1.386 . S
C783 C787 1.393 . S
C784 H773 0.950 . S
C784 C782 1.391 . S
C784 C785 1.400 . S
C785 C779 1.491 . S
C785 C784 1.400 . S
C785 C786 1.398 . S
C786 H774 0.950 . S
C786 C785 1.398 . S
C786 C787 1.391 . S
C787 H775 0.950 . S
C787 C783 1.393 . S
C787 C786 1.391 . S
H788 C796 0.950 . S
H789 C801 0.950 . S
H790 C798 0.950 . S
H791 C800 0.950 1_554 S
H792 C802 0.950 . S
H793 C804 0.950 . S
H794 C806 0.950 . S
H795 C807 0.950 . S
C796 H788 0.950 . S
C796 C797 1.386 . S
C796 C798 1.391 . S
C797 C796 1.386 . S
C797 C801 1.393 1_556 S
C798 H790 0.950 . S
C798 C796 1.391 . S
C798 C799 1.400 . S
C799 C798 1.400 . S
C799 C800 1.398 . S
C799 C805 1.491 . S
C800 H791 0.950 1_556 S
C800 C799 1.398 . S
C800 C801 1.391 1_556 S
C801 H789 0.950 . S
C801 C797 1.393 1_554 S
C801 C800 1.391 1_554 S
C802 H792 0.950 . S
C802 C803 1.386 . S
C802 C804 1.391 . S
C803 C802 1.386 . S
C803 C807 1.393 . S
C804 H793 0.950 . S
C804 C802 1.391 . S
C804 C805 1.400 . S
C805 C799 1.491 . S
C805 C804 1.400 . S
C805 C806 1.398 . S
C806 H794 0.950 . S
C806 C805 1.398 . S
C806 C807 1.391 . S
C807 H795 0.950 . S
C807 C803 1.393 . S
C807 C806 1.391 . S
H808 C816 0.950 . S
H809 C821 0.950 . S
H810 C818 0.950 . S
H811 C820 0.950 . S
H812 C822 0.950 . S
H813 C824 0.950 . S
H814 C826 0.950 . S
H815 C827 0.950 . S
C816 H808 0.950 . S
C816 C817 1.386 . S
C816 C818 1.391 . S
C817 C816 1.386 . S
C817 C821 1.393 . S
C818 H810 0.950 . S
C818 C816 1.391 . S
C818 C819 1.400 . S
C819 C818 1.400 . S
C819 C820 1.398 . S
C819 C825 1.491 . S
C820 H811 0.950 . S
C820 C819 1.398 . S
C820 C821 1.391 . S
C821 H809 0.950 . S
C821 C817 1.393 . S
C821 C820 1.391 . S
C822 H812 0.950 . S
C822 C823 1.386 . S
C822 C824 1.391 . S
C823 C822 1.386 . S
C823 C827 1.393 . S
C824 H813 0.950 . S
C824 C822 1.391 . S
C824 C825 1.400 . S
C825 C819 1.491 . S
C825 C824 1.400 . S
C825 C826 1.398 . S
C826 H814 0.950 . S
C826 C825 1.398 . S
C826 C827 1.391 . S
C827 H815 0.950 . S
C827 C823 1.393 . S
C827 C826 1.391 . S
H828 C836 0.950 . S
H829 C841 0.950 . S
H830 C838 0.950 . S
H831 C840 0.950 . S
H832 C842 0.950 . S
H833 C844 0.950 . S
H834 C846 0.950 . S
H835 C847 0.950 . S
C836 H828 0.950 . S
C836 C837 1.386 . S
C836 C838 1.391 . S
C837 C836 1.386 . S
C837 C841 1.393 . S
C838 H830 0.950 . S
C838 C836 1.391 . S
C838 C839 1.400 . S
C839 C838 1.400 . S
C839 C840 1.398 . S
C839 C845 1.491 . S
C840 H831 0.950 . S
C840 C839 1.398 . S
C840 C841 1.391 . S
C841 H829 0.950 . S
C841 C837 1.393 . S
C841 C840 1.391 . S
C842 H832 0.950 . S
C842 C843 1.386 . S
C842 C844 1.391 . S
C843 C842 1.386 . S
C843 C847 1.393 . S
C844 H833 0.950 . S
C844 C842 1.391 . S
C844 C845 1.400 . S
C845 C839 1.491 . S
C845 C844 1.400 . S
C845 C846 1.398 . S
C846 H834 0.950 . S
C846 C845 1.398 . S
C846 C847 1.391 . S
C847 H835 0.950 . S
C847 C843 1.393 . S
C847 C846 1.391 . S
H848 C856 0.950 . S
H849 C861 0.950 . S
H850 C858 0.950 . S
H851 C860 0.928 1_565 S
H852 C862 0.950 . S
H853 C864 0.950 . S
H854 C866 0.928 1_545 S
H855 C867 0.950 . S
C856 H848 0.950 . S
C856 C857 1.386 . S
C856 C858 1.391 . S
C857 C856 1.386 . S
C857 C861 1.393 . S
C858 H850 0.950 . S
C858 C856 1.391 . S
C858 C859 1.400 . S
C859 C858 1.400 . S
C859 C860 1.405 . S
C859 C865 1.491 1_544 S
C860 H851 0.928 1_545 S
C860 C859 1.405 . S
C860 C861 1.406 . S
C861 H849 0.950 . S
C861 C857 1.393 . S
C861 C860 1.406 . S
C862 H852 0.950 . S
C862 C863 1.386 . S
C862 C864 1.391 . S
C863 C862 1.386 . S
C863 C867 1.393 . S
C864 H853 0.950 . S
C864 C862 1.391 . S
C864 C865 1.400 . S
C865 C859 1.491 1_566 S
C865 C864 1.400 . S
C865 C866 1.405 . S
C866 H854 0.928 1_565 S
C866 C865 1.405 . S
C866 C867 1.406 . S
C867 H855 0.950 . S
C867 C863 1.393 . S
C867 C866 1.406 . S
H868 C876 0.950 . S
H869 C881 0.950 . S
H870 C878 0.950 . S
H871 C880 0.950 . S
H872 C882 0.950 . S
H873 C884 0.950 . S
H874 C886 0.950 . S
H875 C887 0.950 . S
C876 H868 0.950 . S
C876 C877 1.386 . S
C876 C878 1.391 . S
C877 C876 1.386 . S
C877 C881 1.393 . S
C878 H870 0.950 . S
C878 C876 1.391 . S
C878 C879 1.400 . S
C879 C878 1.400 . S
C879 C880 1.398 . S
C879 C885 1.491 . S
C880 H871 0.950 . S
C880 C879 1.398 . S
C880 C881 1.391 . S
C881 H869 0.950 . S
C881 C877 1.393 . S
C881 C880 1.391 . S
C882 H872 0.950 . S
C882 C883 1.386 . S
C882 C884 1.391 . S
C883 C882 1.386 . S
C883 C887 1.393 . S
C884 H873 0.950 . S
C884 C882 1.391 . S
C884 C885 1.400 . S
C885 C879 1.491 . S
C885 C884 1.400 . S
C885 C886 1.398 . S
C886 H874 0.950 . S
C886 C885 1.398 . S
C886 C887 1.391 . S
C887 H875 0.950 . S
C887 C883 1.393 . S
C887 C886 1.391 . S
H888 C896 0.950 . S
H889 C901 0.950 . S
H890 C898 0.950 . S
H891 C900 0.963 . S
H892 C902 0.950 . S
H893 C904 0.950 . S
H894 C906 0.963 . S
H895 C907 0.950 . S
C896 H888 0.950 . S
C896 C897 1.386 . S
C896 C898 1.391 . S
C897 C896 1.386 . S
C897 C901 1.393 . S
C898 H890 0.950 . S
C898 C896 1.391 . S
C898 C899 1.400 . S
C899 C898 1.400 . S
C899 C900 1.394 1_545 S
C899 C905 1.491 1_545 S
C900 H891 0.963 . S
C900 C899 1.394 1_565 S
C900 C901 1.382 1_565 S
C901 H889 0.950 . S
C901 C897 1.393 . S
C901 C900 1.382 1_545 S
C902 H892 0.950 . S
C902 C903 1.386 . S
C902 C904 1.391 . S
C903 C902 1.386 . S
C903 C907 1.393 . S
C904 H893 0.950 . S
C904 C902 1.391 . S
C904 C905 1.400 . S
C905 C899 1.491 1_565 S
C905 C904 1.400 . S
C905 C906 1.394 1_565 S
C906 H894 0.963 . S
C906 C905 1.394 1_545 S
C906 C907 1.382 1_545 S
C907 H895 0.950 . S
C907 C903 1.393 . S
C907 C906 1.382 1_565 S
H908 C916 0.950 . S
H909 C921 0.950 . S
H910 C918 0.950 . S
H911 C920 0.950 . S
H912 C922 0.950 . S
H913 C924 0.950 . S
H914 C926 0.950 . S
H915 C927 0.950 . S
C916 H908 0.950 . S
C916 C917 1.386 . S
C916 C918 1.391 . S
C917 C916 1.386 . S
C917 C921 1.393 . S
C918 H910 0.950 . S
C918 C916 1.391 . S
C918 C919 1.400 . S
C919 C918 1.400 . S
C919 C920 1.398 . S
C919 C925 1.491 . S
C920 H911 0.950 . S
C920 C919 1.398 . S
C920 C921 1.391 . S
C921 H909 0.950 . S
C921 C917 1.393 . S
C921 C920 1.391 . S
C922 H912 0.950 . S
C922 C923 1.386 . S
C922 C924 1.391 . S
C923 C922 1.386 . S
C923 C927 1.393 . S
C924 H913 0.950 . S
C924 C922 1.391 . S
C924 C925 1.400 . S
C925 C919 1.491 . S
C925 C924 1.400 . S
C925 C926 1.398 . S
C926 H914 0.950 . S
C926 C925 1.398 . S
C926 C927 1.391 . S
C927 H915 0.950 . S
C927 C923 1.393 . S
C927 C926 1.391 . S
H928 C936 0.950 . S
H929 C941 0.950 . S
H930 C938 0.950 . S
H931 C940 0.950 . S
H932 C942 0.950 . S
H933 C944 0.950 . S
H934 C946 0.950 . S
H935 C947 0.950 . S
C936 H928 0.950 . S
C936 C937 1.386 . S
C936 C938 1.391 . S
C937 C936 1.386 . S
C937 C941 1.393 . S
C938 H930 0.950 . S
C938 C936 1.391 . S
C938 C939 1.400 . S
C939 C938 1.400 . S
C939 C940 1.398 . S
C939 C945 1.491 . S
C940 H931 0.950 . S
C940 C939 1.398 . S
C940 C941 1.391 . S
C941 H929 0.950 . S
C941 C937 1.393 . S
C941 C940 1.391 . S
C942 H932 0.950 . S
C942 C943 1.386 . S
C942 C944 1.391 . S
C943 C942 1.386 . S
C943 C947 1.393 . S
C944 H933 0.950 . S
C944 C942 1.391 . S
C944 C945 1.400 . S
C945 C939 1.491 . S
C945 C944 1.400 . S
C945 C946 1.398 . S
C946 H934 0.950 . S
C946 C945 1.398 . S
C946 C947 1.391 . S
C947 H935 0.950 . S
C947 C943 1.393 . S
C947 C946 1.391 . S
H948 C956 0.950 . S
H949 C961 0.950 . S
H950 C958 0.950 . S
H951 C960 0.950 . S
H952 C962 0.950 . S
H953 C964 0.950 . S
H954 C966 0.950 . S
H955 C967 0.950 . S
C956 H948 0.950 . S
C956 C957 1.386 . S
C956 C958 1.391 . S
C957 C956 1.386 . S
C957 C961 1.393 . S
C958 H950 0.950 . S
C958 C956 1.391 . S
C958 C959 1.400 . S
C959 C958 1.400 . S
C959 C960 1.398 . S
C959 C965 1.491 . S
C960 H951 0.950 . S
C960 C959 1.398 . S
C960 C961 1.391 . S
C961 H949 0.950 . S
C961 C957 1.393 . S
C961 C960 1.391 . S
C962 H952 0.950 . S
C962 C963 1.386 . S
C962 C964 1.391 . S
C963 C962 1.386 . S
C963 C967 1.393 . S
C964 H953 0.950 . S
C964 C962 1.391 . S
C964 C965 1.400 . S
C965 C959 1.491 . S
C965 C964 1.400 . S
C965 C966 1.398 . S
C966 H954 0.950 . S
C966 C965 1.398 . S
C966 C967 1.391 . S
C967 H955 0.950 . S
C967 C963 1.393 . S
C967 C966 1.391 . S
H968 C976 0.950 . S
H969 C981 0.950 . S
H970 C978 0.950 . S
H971 C980 0.950 . S
H972 C982 0.950 . S
H973 C984 0.950 . S
H974 C986 0.950 . S
H975 C987 0.950 . S
C976 H968 0.950 . S
C976 C977 1.386 . S
C976 C978 1.391 . S
C977 C976 1.386 . S
C977 C981 1.393 . S
C978 H970 0.950 . S
C978 C976 1.391 . S
C978 C979 1.400 . S
C979 C978 1.400 . S
C979 C980 1.398 . S
C979 C985 1.491 . S
C980 H971 0.950 . S
C980 C979 1.398 . S
C980 C981 1.391 . S
C981 H969 0.950 . S
C981 C977 1.393 . S
C981 C980 1.391 . S
C982 H972 0.950 . S
C982 C983 1.386 . S
C982 C984 1.391 . S
C983 C982 1.386 . S
C983 C987 1.393 . S
C984 H973 0.950 . S
C984 C982 1.391 . S
C984 C985 1.400 . S
C985 C979 1.491 . S
C985 C984 1.400 . S
C985 C986 1.398 . S
C986 H974 0.950 . S
C986 C985 1.398 . S
C986 C987 1.391 . S
C987 H975 0.950 . S
C987 C983 1.393 . S
C987 C986 1.391 . S
H988 C996 0.950 . S
H989 C1001 0.950 . S
H990 C998 0.950 . S
H991 C1000 0.950 1_554 S
H992 C1002 0.950 . S
H993 C1004 0.950 . S
H994 C1006 0.950 1_556 S
H995 C1007 0.950 . S
C996 H988 0.950 . S
C996 C997 1.386 . S
C996 C998 1.391 . S
C997 C996 1.386 . S
C997 C1001 1.393 . S
C998 H990 0.950 . S
C998 C996 1.391 . S
C998 C999 1.400 . S
C999 C998 1.400 . S
C999 C1000 1.398 . S
C999 C1005 1.491 1_556 S
C1000 H991 0.950 1_556 S
C1000 C999 1.398 . S
C1000 C1001 1.391 . S
C1001 H989 0.950 . S
C1001 C997 1.393 . S
C1001 C1000 1.391 . S
C1002 H992 0.950 . S
C1002 C1003 1.386 . S
C1002 C1004 1.391 . S
C1003 C1002 1.386 . S
C1003 C1007 1.393 . S
C1004 H993 0.950 . S
C1004 C1002 1.391 . S
C1004 C1005 1.400 . S
C1005 C999 1.491 1_554 S
C1005 C1004 1.400 . S
C1005 C1006 1.398 . S
C1006 H994 0.950 1_554 S
C1006 C1005 1.398 . S
C1006 C1007 1.391 . S
C1007 H995 0.950 . S
C1007 C1003 1.393 . S
C1007 C1006 1.391 . S
H1008 C1016 0.950 . S
H1009 C1021 0.950 . S
H1010 C1018 0.950 . S
H1011 C1020 0.950 . S
H1012 C1022 0.950 . S
H1013 C1024 0.950 . S
H1014 C1026 0.950 . S
H1015 C1027 0.950 . S
C1016 H1008 0.950 . S
C1016 C1017 1.386 . S
C1016 C1018 1.391 . S
C1017 C1016 1.386 . S
C1017 C1021 1.393 . S
C1018 H1010 0.950 . S
C1018 C1016 1.391 . S
C1018 C1019 1.400 . S
C1019 C1018 1.400 . S
C1019 C1020 1.398 . S
C1019 C1025 1.491 . S
C1020 H1011 0.950 . S
C1020 C1019 1.398 . S
C1020 C1021 1.391 . S
C1021 H1009 0.950 . S
C1021 C1017 1.393 . S
C1021 C1020 1.391 . S
C1022 H1012 0.950 . S
C1022 C1023 1.386 . S
C1022 C1024 1.391 . S
C1023 C1022 1.386 . S
C1023 C1027 1.393 . S
C1024 H1013 0.950 . S
C1024 C1022 1.391 . S
C1024 C1025 1.400 . S
C1025 C1019 1.491 . S
C1025 C1024 1.400 . S
C1025 C1026 1.398 . S
C1026 H1014 0.950 . S
C1026 C1025 1.398 . S
C1026 C1027 1.391 . S
C1027 H1015 0.950 . S
C1027 C1023 1.393 . S
C1027 C1026 1.391 . S
H1028 C1036 0.950 . S
H1029 C1041 0.950 . S
H1030 C1038 0.950 . S
H1031 C1040 0.950 . S
H1032 C1042 0.950 . S
H1033 C1044 0.950 1_554 S
H1034 C1046 0.950 . S
H1035 C1047 0.950 . S
C1036 H1028 0.950 . S
C1036 C1037 1.386 . S
C1036 C1038 1.391 . S
C1037 C1036 1.386 . S
C1037 C1041 1.393 . S
C1038 H1030 0.950 . S
C1038 C1036 1.391 . S
C1038 C1039 1.400 . S
C1039 C1038 1.400 . S
C1039 C1040 1.398 . S
C1039 C1045 1.491 . S
C1040 H1031 0.950 . S
C1040 C1039 1.398 . S
C1040 C1041 1.391 . S
C1041 H1029 0.950 . S
C1041 C1037 1.393 . S
C1041 C1040 1.391 . S
C1042 H1032 0.950 . S
C1042 C1043 1.386 . S
C1042 C1044 1.391 . S
C1043 C1042 1.386 . S
C1043 C1047 1.393 . S
C1044 H1033 0.950 1_556 S
C1044 C1042 1.391 . S
C1044 C1045 1.400 1_556 S
C1045 C1039 1.491 . S
C1045 C1044 1.400 1_554 S
C1045 C1046 1.398 1_554 S
C1046 H1034 0.950 . S
C1046 C1045 1.398 1_556 S
C1046 C1047 1.391 . S
C1047 H1035 0.950 . S
C1047 C1043 1.393 . S
C1047 C1046 1.391 . S
H1048 C1056 0.950 . S
H1049 C1061 0.950 . S
H1050 C1058 0.950 . S
H1051 C1060 0.950 . S
H1052 C1062 0.950 . S
H1053 C1064 0.950 . S
H1054 C1066 0.950 . S
H1055 C1067 0.950 . S
C1056 H1048 0.950 . S
C1056 C1057 1.386 . S
C1056 C1058 1.391 . S
C1057 C1056 1.386 . S
C1057 C1061 1.393 . S
C1058 H1050 0.950 . S
C1058 C1056 1.391 . S
C1058 C1059 1.400 . S
C1059 C1058 1.400 . S
C1059 C1060 1.398 . S
C1059 C1065 1.491 . S
C1060 H1051 0.950 . S
C1060 C1059 1.398 . S
C1060 C1061 1.391 . S
C1061 H1049 0.950 . S
C1061 C1057 1.393 . S
C1061 C1060 1.391 . S
C1062 H1052 0.950 . S
C1062 C1063 1.386 . S
C1062 C1064 1.391 . S
C1063 C1062 1.386 . S
C1063 C1067 1.393 . S
C1064 H1053 0.950 . S
C1064 C1062 1.391 . S
C1064 C1065 1.400 . S
C1065 C1059 1.491 . S
C1065 C1064 1.400 . S
C1065 C1066 1.398 . S
C1066 H1054 0.950 . S
C1066 C1065 1.398 . S
C1066 C1067 1.391 . S
C1067 H1055 0.950 . S
C1067 C1063 1.393 . S
C1067 C1066 1.391 . S
H1068 C1076 0.950 . S
H1069 C1081 0.950 . S
H1070 C1078 0.950 . S
H1071 C1080 0.950 . S
H1072 C1082 0.950 . S
H1073 C1084 0.950 . S
H1074 C1086 0.950 . S
H1075 C1087 0.950 . S
C1076 H1068 0.950 . S
C1076 C1077 1.386 . S
C1076 C1078 1.391 . S
C1077 C1076 1.386 . S
C1077 C1081 1.393 . S
C1078 H1070 0.950 . S
C1078 C1076 1.391 . S
C1078 C1079 1.400 . S
C1079 C1078 1.400 . S
C1079 C1080 1.398 . S
C1079 C1085 1.491 . S
C1080 H1071 0.950 . S
C1080 C1079 1.398 . S
C1080 C1081 1.391 . S
C1081 H1069 0.950 . S
C1081 C1077 1.393 . S
C1081 C1080 1.391 . S
C1082 H1072 0.950 . S
C1082 C1083 1.386 . S
C1082 C1084 1.391 . S
C1083 C1082 1.386 . S
C1083 C1087 1.393 . S
C1084 H1073 0.950 . S
C1084 C1082 1.391 . S
C1084 C1085 1.400 . S
C1085 C1079 1.491 . S
C1085 C1084 1.400 . S
C1085 C1086 1.398 . S
C1086 H1074 0.950 . S
C1086 C1085 1.398 . S
C1086 C1087 1.391 . S
C1087 H1075 0.950 . S
C1087 C1083 1.393 . S
C1087 C1086 1.391 . S
H1088 C1096 0.950 . S
H1089 C1101 0.950 . S
H1090 C1098 0.950 . S
H1091 C1100 0.950 . S
H1092 C1102 0.950 . S
H1093 C1104 0.950 . S
H1094 C1106 0.950 . S
H1095 C1107 0.950 . S
C1096 H1088 0.950 . S
C1096 C1097 1.386 . S
C1096 C1098 1.391 . S
C1097 C1096 1.386 . S
C1097 C1101 1.393 . S
C1098 H1090 0.950 . S
C1098 C1096 1.391 . S
C1098 C1099 1.400 . S
C1099 C1098 1.400 . S
C1099 C1100 1.398 . S
C1099 C1105 1.491 . S
C1100 H1091 0.950 . S
C1100 C1099 1.398 . S
C1100 C1101 1.391 . S
C1101 H1089 0.950 . S
C1101 C1097 1.393 . S
C1101 C1100 1.391 . S
C1102 H1092 0.950 . S
C1102 C1103 1.386 . S
C1102 C1104 1.391 . S
C1103 C1102 1.386 . S
C1103 C1107 1.393 . S
C1104 H1093 0.950 . S
C1104 C1102 1.391 . S
C1104 C1105 1.400 . S
C1105 C1099 1.491 . S
C1105 C1104 1.400 . S
C1105 C1106 1.398 . S
C1106 H1094 0.950 . S
C1106 C1105 1.398 . S
C1106 C1107 1.391 . S
C1107 H1095 0.950 . S
C1107 C1103 1.393 . S
C1107 C1106 1.391 . S
H1108 C1116 0.950 . S
H1109 C1121 0.950 . S
H1110 C1118 0.950 . S
H1111 C1120 0.950 . S
H1112 C1122 0.950 . S
H1113 C1124 0.950 . S
H1114 C1126 0.950 . S
H1115 C1127 0.950 . S
C1116 H1108 0.950 . S
C1116 C1117 1.386 . S
C1116 C1118 1.391 . S
C1117 C1116 1.386 . S
C1117 C1121 1.393 . S
C1118 H1110 0.950 . S
C1118 C1116 1.391 . S
C1118 C1119 1.400 . S
C1119 C1118 1.400 . S
C1119 C1120 1.398 . S
C1119 C1125 1.491 . S
C1120 H1111 0.950 . S
C1120 C1119 1.398 . S
C1120 C1121 1.391 . S
C1121 H1109 0.950 . S
C1121 C1117 1.393 . S
C1121 C1120 1.391 . S
C1122 H1112 0.950 . S
C1122 C1123 1.386 . S
C1122 C1124 1.391 . S
C1123 C1122 1.386 . S
C1123 C1127 1.393 . S
C1124 H1113 0.950 . S
C1124 C1122 1.391 . S
C1124 C1125 1.400 . S
C1125 C1119 1.491 . S
C1125 C1124 1.400 . S
C1125 C1126 1.398 . S
C1126 H1114 0.950 . S
C1126 C1125 1.398 . S
C1126 C1127 1.391 . S
C1127 H1115 0.950 . S
C1127 C1123 1.393 . S
C1127 C1126 1.391 . S
H1128 C1136 0.950 . S
H1129 C1141 0.950 . S
H1130 C1138 0.950 . S
H1131 C1140 0.950 . S
H1132 C1142 0.950 . S
H1133 C1144 0.950 . S
H1134 C1146 0.950 . S
H1135 C1147 0.950 . S
C1136 H1128 0.950 . S
C1136 C1137 1.386 . S
C1136 C1138 1.391 . S
C1137 C1136 1.386 . S
C1137 C1141 1.393 . S
C1138 H1130 0.950 . S
C1138 C1136 1.391 . S
C1138 C1139 1.400 . S
C1139 C1138 1.400 . S
C1139 C1140 1.398 . S
C1139 C1145 1.491 . S
C1140 H1131 0.950 . S
C1140 C1139 1.398 . S
C1140 C1141 1.391 . S
C1141 H1129 0.950 . S
C1141 C1137 1.393 . S
C1141 C1140 1.391 . S
C1142 H1132 0.950 . S
C1142 C1143 1.386 . S
C1142 C1144 1.391 . S
C1143 C1142 1.386 . S
C1143 C1147 1.393 . S
C1144 H1133 0.950 . S
C1144 C1142 1.391 . S
C1144 C1145 1.400 . S
C1145 C1139 1.491 . S
C1145 C1144 1.400 . S
C1145 C1146 1.398 . S
C1146 H1134 0.950 . S
C1146 C1145 1.398 . S
C1146 C1147 1.391 . S
C1147 H1135 0.950 . S
C1147 C1143 1.393 . S
C1147 C1146 1.391 . S
H1148 C1156 0.950 . S
H1149 C1161 0.950 . S
H1150 C1158 0.950 . S
H1151 C1160 0.950 . S
H1152 C1162 0.950 . S
H1153 C1164 0.950 . S
H1154 C1166 0.950 . S
H1155 C1167 0.950 . S
C1156 H1148 0.950 . S
C1156 C1157 1.386 . S
C1156 C1158 1.391 . S
C1157 C1156 1.386 . S
C1157 C1161 1.393 . S
C1158 H1150 0.950 . S
C1158 C1156 1.391 . S
C1158 C1159 1.400 . S
C1159 C1158 1.400 . S
C1159 C1160 1.398 . S
C1159 C1165 1.491 . S
C1160 H1151 0.950 . S
C1160 C1159 1.398 . S
C1160 C1161 1.391 . S
C1161 H1149 0.950 . S
C1161 C1157 1.393 . S
C1161 C1160 1.391 . S
C1162 H1152 0.950 . S
C1162 C1163 1.386 . S
C1162 C1164 1.391 . S
C1163 C1162 1.386 . S
C1163 C1167 1.393 . S
C1164 H1153 0.950 . S
C1164 C1162 1.391 . S
C1164 C1165 1.400 1_554 S
C1165 C1159 1.491 . S
C1165 C1164 1.400 1_556 S
C1165 C1166 1.398 1_556 S
C1166 H1154 0.950 . S
C1166 C1165 1.398 1_554 S
C1166 C1167 1.391 . S
C1167 H1155 0.950 . S
C1167 C1163 1.393 . S
C1167 C1166 1.391 . S
H1168 C1176 0.950 . S
H1169 C1181 0.950 . S
H1170 C1178 0.950 . S
H1171 C1180 0.950 1_556 S
H1172 C1182 0.950 . S
H1173 C1184 0.950 . S
H1174 C1186 0.950 . S
H1175 C1187 0.950 . S
C1176 H1168 0.950 . S
C1176 C1177 1.386 . S
C1176 C1178 1.391 . S
C1177 C1176 1.386 . S
C1177 C1181 1.393 . S
C1178 H1170 0.950 . S
C1178 C1176 1.391 . S
C1178 C1179 1.400 1_554 S
C1179 C1178 1.400 1_556 S
C1179 C1180 1.398 1_556 S
C1179 C1185 1.491 . S
C1180 H1171 0.950 1_554 S
C1180 C1179 1.398 1_554 S
C1180 C1181 1.391 . S
C1181 H1169 0.950 . S
C1181 C1177 1.393 . S
C1181 C1180 1.391 . S
C1182 H1172 0.950 . S
C1182 C1183 1.386 . S
C1182 C1184 1.391 . S
C1183 C1182 1.386 . S
C1183 C1187 1.393 . S
C1184 H1173 0.950 . S
C1184 C1182 1.391 . S
C1184 C1185 1.400 . S
C1185 C1179 1.491 . S
C1185 C1184 1.400 . S
C1185 C1186 1.398 . S
C1186 H1174 0.950 . S
C1186 C1185 1.398 . S
C1186 C1187 1.391 . S
C1187 H1175 0.950 . S
C1187 C1183 1.393 . S
C1187 C1186 1.391 . S
H1188 C1196 0.950 . S
H1189 C1201 0.950 . S
H1190 C1198 0.950 . S
H1191 C1200 0.950 . S
H1192 C1202 0.950 . S
H1193 C1204 0.950 . S
H1194 C1206 0.950 . S
H1195 C1207 0.950 . S
C1196 H1188 0.950 . S
C1196 C1197 1.386 . S
C1196 C1198 1.391 . S
C1197 C1196 1.386 . S
C1197 C1201 1.393 . S
C1198 H1190 0.950 . S
C1198 C1196 1.391 . S
C1198 C1199 1.400 . S
C1199 C1198 1.400 . S
C1199 C1200 1.398 . S
C1199 C1205 1.491 . S
C1200 H1191 0.950 . S
C1200 C1199 1.398 . S
C1200 C1201 1.391 . S
C1201 H1189 0.950 . S
C1201 C1197 1.393 . S
C1201 C1200 1.391 . S
C1202 H1192 0.950 . S
C1202 C1203 1.386 . S
C1202 C1204 1.391 . S
C1203 C1202 1.386 . S
C1203 C1207 1.393 . S
C1204 H1193 0.950 . S
C1204 C1202 1.391 . S
C1204 C1205 1.400 . S
C1205 C1199 1.491 . S
C1205 C1204 1.400 . S
C1205 C1206 1.398 . S
C1206 H1194 0.950 . S
C1206 C1205 1.398 . S
C1206 C1207 1.391 . S
C1207 H1195 0.950 . S
C1207 C1203 1.393 . S
C1207 C1206 1.391 . S
H1208 C1216 0.950 . S
H1209 C1221 0.950 . S
H1210 C1218 0.950 . S
H1211 C1220 0.950 . S
H1212 C1222 0.950 . S
H1213 C1224 0.950 . S
H1214 C1226 0.950 . S
H1215 C1227 0.950 . S
C1216 H1208 0.950 . S
C1216 C1217 1.386 . S
C1216 C1218 1.391 . S
C1217 C1216 1.386 . S
C1217 C1221 1.393 . S
C1218 H1210 0.950 . S
C1218 C1216 1.391 . S
C1218 C1219 1.400 . S
C1219 C1218 1.400 . S
C1219 C1220 1.398 . S
C1219 C1225 1.491 . S
C1220 H1211 0.950 . S
C1220 C1219 1.398 . S
C1220 C1221 1.391 . S
C1221 H1209 0.950 . S
C1221 C1217 1.393 . S
C1221 C1220 1.391 . S
C1222 H1212 0.950 . S
C1222 C1223 1.386 . S
C1222 C1224 1.391 . S
C1223 C1222 1.386 . S
C1223 C1227 1.393 . S
C1224 H1213 0.950 . S
C1224 C1222 1.391 . S
C1224 C1225 1.400 . S
C1225 C1219 1.491 . S
C1225 C1224 1.400 . S
C1225 C1226 1.398 . S
C1226 H1214 0.950 . S
C1226 C1225 1.398 . S
C1226 C1227 1.391 . S
C1227 H1215 0.950 . S
C1227 C1223 1.393 . S
C1227 C1226 1.391 . S
H1228 C1236 0.950 . S
H1229 C1241 0.950 . S
H1230 C1238 0.950 . S
H1231 C1240 0.950 . S
H1232 C1242 0.950 . S
H1233 C1244 0.950 . S
H1234 C1246 0.950 . S
H1235 C1247 0.950 . S
C1236 H1228 0.950 . S
C1236 C1237 1.386 . S
C1236 C1238 1.391 . S
C1237 C1236 1.386 . S
C1237 C1241 1.393 . S
C1238 H1230 0.950 . S
C1238 C1236 1.391 . S
C1238 C1239 1.400 . S
C1239 C1238 1.400 . S
C1239 C1240 1.398 . S
C1239 C1245 1.491 . S
C1240 H1231 0.950 . S
C1240 C1239 1.398 . S
C1240 C1241 1.391 . S
C1241 H1229 0.950 . S
C1241 C1237 1.393 . S
C1241 C1240 1.391 . S
C1242 H1232 0.950 . S
C1242 C1243 1.386 . S
C1242 C1244 1.391 . S
C1243 C1242 1.386 . S
C1243 C1247 1.393 . S
C1244 H1233 0.950 . S
C1244 C1242 1.391 . S
C1244 C1245 1.400 1_556 S
C1245 C1239 1.491 . S
C1245 C1244 1.400 1_554 S
C1245 C1246 1.398 1_554 S
C1246 H1234 0.950 . S
C1246 C1245 1.398 1_556 S
C1246 C1247 1.391 . S
C1247 H1235 0.950 . S
C1247 C1243 1.393 . S
C1247 C1246 1.391 . S
H1248 C1256 0.950 . S
H1249 C1261 0.950 . S
H1250 C1258 0.950 . S
H1251 C1260 0.950 . S
H1252 C1262 0.950 . S
H1253 C1264 0.950 . S
H1254 C1266 0.950 . S
H1255 C1267 0.950 . S
C1256 H1248 0.950 . S
C1256 C1257 1.386 . S
C1256 C1258 1.391 . S
C1257 C1256 1.386 . S
C1257 C1261 1.393 . S
C1258 H1250 0.950 . S
C1258 C1256 1.391 . S
C1258 C1259 1.400 . S
C1259 C1258 1.400 . S
C1259 C1260 1.398 . S
C1259 C1265 1.491 . S
C1260 H1251 0.950 . S
C1260 C1259 1.398 . S
C1260 C1261 1.391 . S
C1261 H1249 0.950 . S
C1261 C1257 1.393 . S
C1261 C1260 1.391 . S
C1262 H1252 0.950 . S
C1262 C1263 1.386 . S
C1262 C1264 1.391 . S
C1263 C1262 1.386 . S
C1263 C1267 1.393 . S
C1264 H1253 0.950 . S
C1264 C1262 1.391 . S
C1264 C1265 1.400 . S
C1265 C1259 1.491 . S
C1265 C1264 1.400 . S
C1265 C1266 1.398 . S
C1266 H1254 0.950 . S
C1266 C1265 1.398 . S
C1266 C1267 1.391 . S
C1267 H1255 0.950 . S
C1267 C1263 1.393 . S
C1267 C1266 1.391 . S
H1268 C1276 0.950 . S
H1269 C1281 0.950 . S
H1270 C1278 0.950 . S
H1271 C1280 0.950 . S
H1272 C1282 0.950 . S
H1273 C1284 0.950 . S
H1274 C1286 0.950 . S
H1275 C1287 0.950 . S
C1276 H1268 0.950 . S
C1276 C1277 1.386 . S
C1276 C1278 1.391 . S
C1277 C1276 1.386 . S
C1277 C1281 1.393 . S
C1278 H1270 0.950 . S
C1278 C1276 1.391 . S
C1278 C1279 1.400 . S
C1279 C1278 1.400 . S
C1279 C1280 1.398 . S
C1279 C1285 1.491 . S
C1280 H1271 0.950 . S
C1280 C1279 1.398 . S
C1280 C1281 1.391 . S
C1281 H1269 0.950 . S
C1281 C1277 1.393 . S
C1281 C1280 1.391 . S
C1282 H1272 0.950 . S
C1282 C1283 1.386 . S
C1282 C1284 1.391 . S
C1283 C1282 1.386 . S
C1283 C1287 1.393 . S
C1284 H1273 0.950 . S
C1284 C1282 1.391 . S
C1284 C1285 1.400 . S
C1285 C1279 1.491 . S
C1285 C1284 1.400 . S
C1285 C1286 1.398 . S
C1286 H1274 0.950 . S
C1286 C1285 1.398 . S
C1286 C1287 1.391 . S
C1287 H1275 0.950 . S
C1287 C1283 1.393 . S
C1287 C1286 1.391 . S
H1288 C1296 0.950 . S
H1289 C1301 0.950 . S
H1290 C1298 0.950 . S
H1291 C1300 0.950 . S
H1292 C1302 0.950 . S
H1293 C1304 0.950 . S
H1294 C1306 0.950 . S
H1295 C1307 0.950 . S
C1296 H1288 0.950 . S
C1296 C1297 1.386 . S
C1296 C1298 1.391 . S
C1297 C1296 1.386 . S
C1297 C1301 1.393 . S
C1298 H1290 0.950 . S
C1298 C1296 1.391 . S
C1298 C1299 1.400 . S
C1299 C1298 1.400 . S
C1299 C1300 1.398 . S
C1299 C1305 1.491 . S
C1300 H1291 0.950 . S
C1300 C1299 1.398 . S
C1300 C1301 1.391 . S
C1301 H1289 0.950 . S
C1301 C1297 1.393 . S
C1301 C1300 1.391 . S
C1302 H1292 0.950 . S
C1302 C1303 1.386 . S
C1302 C1304 1.391 . S
C1303 C1302 1.386 . S
C1303 C1307 1.393 . S
C1304 H1293 0.950 . S
C1304 C1302 1.391 . S
C1304 C1305 1.400 . S
C1305 C1299 1.491 . S
C1305 C1304 1.400 . S
C1305 C1306 1.398 . S
C1306 H1294 0.950 . S
C1306 C1305 1.398 . S
C1306 C1307 1.391 . S
C1307 H1295 0.950 . S
C1307 C1303 1.393 . S
C1307 C1306 1.391 . S
H1308 C1316 0.950 . S
H1309 C1321 0.950 . S
H1310 C1318 0.950 . S
H1311 C1320 0.950 . S
H1312 C1322 0.950 . S
H1313 C1324 0.950 . S
H1314 C1326 0.950 . S
H1315 C1327 0.950 . S
C1316 H1308 0.950 . S
C1316 C1317 1.386 . S
C1316 C1318 1.391 . S
C1317 C1316 1.386 . S
C1317 C1321 1.393 . S
C1318 H1310 0.950 . S
C1318 C1316 1.391 . S
C1318 C1319 1.400 . S
C1319 C1318 1.400 . S
C1319 C1320 1.398 . S
C1319 C1325 1.491 . S
C1320 H1311 0.950 . S
C1320 C1319 1.398 . S
C1320 C1321 1.391 . S
C1321 H1309 0.950 . S
C1321 C1317 1.393 . S
C1321 C1320 1.391 . S
C1322 H1312 0.950 . S
C1322 C1323 1.386 . S
C1322 C1324 1.391 . S
C1323 C1322 1.386 . S
C1323 C1327 1.393 . S
C1324 H1313 0.950 . S
C1324 C1322 1.391 . S
C1324 C1325 1.400 . S
C1325 C1319 1.491 . S
C1325 C1324 1.400 . S
C1325 C1326 1.398 . S
C1326 H1314 0.950 . S
C1326 C1325 1.398 . S
C1326 C1327 1.391 . S
C1327 H1315 0.950 . S
C1327 C1323 1.393 . S
C1327 C1326 1.391 . S
C537 C259 1.505 . S
C543 C28 1.509 . S
C557 C61 1.515 . S
C563 C160 1.508 . S
C577 C94 1.558 . S
C583 C193 1.574 . S
C597 C226 1.564 . S
C603 C127 1.567 . S
C617 C380 1.586 . S
C623 C149 1.580 . S
C637 C281 1.585 . S
C643 C17 1.575 . S
C657 C215 1.619 . S
C663 C347 1.619 . S
C677 C83 1.622 . S
C683 C314 1.633 . S
C697 C325 1.574 . S
C703 C424 1.562 . S
C717 C490 1.559 . S
C723 C358 1.573 . S
C737 C457 1.504 . S
C743 C292 1.513 . S
C757 C391 1.504 . S
C763 C523 1.529 . S
C777 C116 1.625 . S
C783 C479 1.631 . S
C797 C182 1.619 . S
C803 C413 1.627 . S
C817 C50 1.571 . S
C823 C512 1.579 . S
C837 C248 1.576 . S
C843 C446 1.588 . S
C857 C8 1.289 . S
C863 C140 1.288 . S
C877 C173 1.273 . S
C883 C41 1.272 . S
C897 C206 1.511 . S
C903 C74 1.510 . S
C917 C107 1.299 . S
C923 C239 1.296 . S
C937 C338 1.299 . S
C943 C272 1.296 . S
C957 C305 1.275 . S
C963 C371 1.274 . S
C977 C404 1.479 . S
C983 C470 1.480 . S
C997 C503 1.264 . S
C1003 C437 1.265 . S
C1017 N14 0.942 1_556 S
C1023 N5 0.944 . S
C1037 N47 0.926 . S
C1043 N38 0.926 . S
C1057 N71 0.972 . S
C1063 N80 0.974 . S
C1077 N104 0.945 . S
C1083 N113 0.946 . S
C1097 N137 0.942 . S
C1103 N146 0.943 1_554 S
C1117 N170 0.942 . S
C1123 N179 0.940 . S
C1137 N212 0.967 . S
C1143 N203 0.967 . S
C1157 N245 0.926 . S
C1163 N236 0.928 . S
C1177 N269 0.927 . S
C1183 N278 0.928 . S
C1197 N302 0.942 . S
C1203 N311 0.944 . S
C1217 N344 0.947 . S
C1223 N335 0.947 . S
C1237 N377 0.937 . S
C1243 N368 0.935 . S
C1257 N410 0.967 . S
C1263 N401 0.967 . S
C1277 N443 0.945 1_556 S
C1283 N434 0.944 . S
C1297 N476 0.968 . S
C1303 N467 0.967 . S
C1317 N500 0.936 . S
C1323 N509 0.935 1_554 S
