# Generated by pormake.
# Topology uop, (4)-cn, num edge types: 1
# Building blocks:
#     Node 0, Type 0, BuildingBlock: KOZSID_clean_sbu_0, # of connection points: 4
#     Node 1, Type 0, BuildingBlock: KOZSID_clean_sbu_0, # of connection points: 4
#     Node 2, Type 0, BuildingBlock: KOZSID_clean_sbu_0, # of connection points: 4
#     Node 3, Type 0, BuildingBlock: KOZSID_clean_sbu_0, # of connection points: 4
#     Node 4, Type 0, BuildingBlock: KOZSID_clean_sbu_0, # of connection points: 4
#     Node 5, Type 0, BuildingBlock: KOZSID_clean_sbu_0, # of connection points: 4
#     Node 6, Type 0, BuildingBlock: KOZSID_clean_sbu_0, # of connection points: 4
#     Node 7, Type 0, BuildingBlock: KOZSID_clean_sbu_0, # of connection points: 4
#     Node 8, Type 0, BuildingBlock: KOZSID_clean_sbu_0, # of connection points: 4
#     Node 9, Type 0, BuildingBlock: KOZSID_clean_sbu_0, # of connection points: 4
#     Node 10, Type 0, BuildingBlock: KOZSID_clean_sbu_0, # of connection points: 4
#     Node 11, Type 0, BuildingBlock: KOZSID_clean_sbu_0, # of connection points: 4
#     Edge 12, Type (0, 0), BuildingBlock: XIVTED_clean_linker_0, # of connection points: 2
#     Edge 13, Type (0, 0), BuildingBlock: XIVTED_clean_linker_0, # of connection points: 2
#     Edge 14, Type (0, 0), BuildingBlock: XIVTED_clean_linker_0, # of connection points: 2
#     Edge 15, Type (0, 0), BuildingBlock: XIVTED_clean_linker_0, # of connection points: 2
#     Edge 16, Type (0, 0), BuildingBlock: XIVTED_clean_linker_0, # of connection points: 2
#     Edge 17, Type (0, 0), BuildingBlock: XIVTED_clean_linker_0, # of connection points: 2
#     Edge 18, Type (0, 0), BuildingBlock: XIVTED_clean_linker_0, # of connection points: 2
#     Edge 19, Type (0, 0), BuildingBlock: XIVTED_clean_linker_0, # of connection points: 2
#     Edge 20, Type (0, 0), BuildingBlock: XIVTED_clean_linker_0, # of connection points: 2
#     Edge 21, Type (0, 0), BuildingBlock: XIVTED_clean_linker_0, # of connection points: 2
#     Edge 22, Type (0, 0), BuildingBlock: XIVTED_clean_linker_0, # of connection points: 2
#     Edge 23, Type (0, 0), BuildingBlock: XIVTED_clean_linker_0, # of connection points: 2
#     Edge 24, Type (0, 0), BuildingBlock: XIVTED_clean_linker_0, # of connection points: 2
#     Edge 25, Type (0, 0), BuildingBlock: XIVTED_clean_linker_0, # of connection points: 2
#     Edge 26, Type (0, 0), BuildingBlock: XIVTED_clean_linker_0, # of connection points: 2
#     Edge 27, Type (0, 0), BuildingBlock: XIVTED_clean_linker_0, # of connection points: 2
#     Edge 28, Type (0, 0), BuildingBlock: XIVTED_clean_linker_0, # of connection points: 2
#     Edge 29, Type (0, 0), BuildingBlock: XIVTED_clean_linker_0, # of connection points: 2
#     Edge 30, Type (0, 0), BuildingBlock: XIVTED_clean_linker_0, # of connection points: 2
#     Edge 31, Type (0, 0), BuildingBlock: XIVTED_clean_linker_0, # of connection points: 2
#     Edge 32, Type (0, 0), BuildingBlock: XIVTED_clean_linker_0, # of connection points: 2
#     Edge 33, Type (0, 0), BuildingBlock: XIVTED_clean_linker_0, # of connection points: 2
#     Edge 34, Type (0, 0), BuildingBlock: XIVTED_clean_linker_0, # of connection points: 2
#     Edge 35, Type (0, 0), BuildingBlock: XIVTED_clean_linker_0, # of connection points: 2
# Relax obj value: 0.071
# Max RMSD: 0.267
# Mean RMSD: 0.246
data_MOF--net-uop--node1-KOZSID_clean_sbu_0--edge1-XIVTED_clean_linker_0
_symmetry_space_group_name_H-M    P1
_symmetry_Int_Tables_number       1
_symmetry_cell_setting            triclinic
loop_
_symmetry_equiv_pos_as_xyz
'x, y, z'
_cell_length_a     39.956362
_cell_length_b     38.350389
_cell_length_c     66.049332
_cell_angle_alpha  90.046272
_cell_angle_beta   90.006146
_cell_angle_gamma 121.30398
loop_
_atom_site_label
_atom_site_type_symbol
_atom_site_fract_x
_atom_site_fract_y
_atom_site_fract_z
_atom_type_partial_charge
C0 C 0.35952 0.44084 0.21293 0.0
C1 C 0.38183 0.43014 0.20129 0.0
C2 C 0.35839 0.40619 0.1859 0.0
C3 C 0.32311 0.40319 0.18906 0.0
N4 N 0.32259 0.42374 0.20549 0.0
Co5 Co 0.27631 0.42504 0.21593 0.0
N6 N 0.23907 0.37788 0.1984 0.0
C7 C 0.24938 0.36121 0.18352 0.0
C8 C 0.21829 0.32962 0.17364 0.0
C9 C 0.18597 0.32639 0.18245 0.0
C10 C 0.19919 0.35647 0.19729 0.0
N11 N 0.2299 0.42713 0.2257 0.0
C12 C 0.19096 0.40309 0.22125 0.0
C13 C 0.16968 0.41846 0.22999 0.0
C14 C 0.19607 0.45389 0.23965 0.0
C15 C 0.23194 0.45819 0.23637 0.0
N16 N 0.3137 0.47124 0.23369 0.0
C17 C 0.30593 0.49692 0.24357 0.0
C18 C 0.3371 0.52563 0.25481 0.0
C19 C 0.36645 0.51761 0.25178 0.0
C20 C 0.35148 0.48432 0.23885 0.0
N21 N 0.28332 0.46446 0.19451 0.0
C22 C 0.28628 0.5313 0.17487 0.0
C23 C 0.32019 0.53469 0.18321 0.0
C24 C 0.31818 0.50082 0.19272 0.0
C25 C 0.25229 0.49241 0.17443 0.0
C26 C 0.25156 0.45957 0.18406 0.0
N27 N 0.26989 0.38739 0.23818 0.0
C28 C 0.26366 0.37477 0.27429 0.0
C29 C 0.27544 0.34632 0.27248 0.0
C30 C 0.28248 0.33737 0.25282 0.0
C31 C 0.27906 0.35779 0.2359 0.0
C32 C 0.2612 0.39478 0.25717 0.0
H33 H 0.28526 0.35062 0.22111 0.0
H34 H 0.25416 0.41789 0.25968 0.0
H35 H 0.3443 0.50501 0.19985 0.0
H36 H 0.22429 0.43104 0.1841 0.0
C37 C 0.28845 0.37514 0.17951 0.0
C38 C 0.37495 0.46815 0.23052 0.0
C39 C 0.17338 0.36822 0.20708 0.0
C40 C 0.26786 0.48983 0.24383 0.0
H41 H 0.41174 0.43807 0.20379 0.0
H42 H 0.36553 0.3908 0.17448 0.0
H43 H 0.21903 0.31155 0.16125 0.0
H44 H 0.1562 0.30553 0.17762 0.0
H45 H 0.13846 0.40606 0.22888 0.0
H46 H 0.18987 0.47429 0.24789 0.0
H47 H 0.3381 0.54896 0.26447 0.0
H48 H 0.39562 0.5345 0.25817 0.0
H49 H 0.34751 0.5638 0.18356 0.0
H50 H 0.22573 0.48759 0.16737 0.0
H51 H 0.25822 0.38328 0.28901 0.0
H52 H 0.29105 0.31512 0.25051 0.0
C53 C 0.93314 0.3454 0.55751 0.0
C54 C 0.96695 0.37028 0.54641 0.0
C55 C 0.96675 0.34773 0.53042 0.0
C56 C 0.93333 0.31034 0.53274 0.0
N57 N 0.91225 0.30744 0.54926 0.0
Co58 Co 0.86338 0.25701 0.55866 0.0
N59 N 0.87066 0.22117 0.53916 0.0
C60 C 0.89726 0.23466 0.52408 0.0
C61 C 0.89508 0.20439 0.51216 0.0
C62 C 0.86473 0.16918 0.51982 0.0
C63 C 0.85001 0.17987 0.53623 0.0
N64 N 0.81371 0.20632 0.56736 0.0
C65 C 0.79734 0.16628 0.56176 0.0
C66 C 0.76101 0.14216 0.57079 0.0
C67 C 0.7536 0.16778 0.58172 0.0
C68 C 0.7858 0.20607 0.57895 0.0
N69 N 0.85685 0.29298 0.57824 0.0
C70 C 0.82404 0.28221 0.58875 0.0
C71 C 0.82739 0.31302 0.60084 0.0
C72 C 0.86462 0.34548 0.59767 0.0
C73 C 0.88204 0.33265 0.58379 0.0
N74 N 0.83219 0.2663 0.53848 0.0
C75 C 0.76966 0.27215 0.52269 0.0
C76 C 0.80306 0.3064 0.53088 0.0
C77 C 0.83421 0.30304 0.53821 0.0
C78 C 0.77114 0.23657 0.52012 0.0
C79 C 0.80254 0.23434 0.52802 0.0
N80 N 0.89362 0.24879 0.58 0.0
C81 C 0.89971 0.24185 0.61605 0.0
C82 C 0.94035 0.25981 0.61452 0.0
C83 C 0.9566 0.26896 0.59491 0.0
C84 C 0.9327 0.26263 0.57788 0.0
C85 C 0.87718 0.23664 0.59883 0.0
H86 H 0.94637 0.27104 0.5632 0.0
H87 H 0.84675 0.22548 0.6013 0.0
H88 H 0.85837 0.32952 0.54523 0.0
H89 H 0.8011 0.20567 0.52684 0.0
C90 C 0.9245 0.27587 0.5217 0.0
C91 C 0.92102 0.36021 0.57487 0.0
C92 C 0.8133 0.1503 0.54656 0.0
C93 C 0.79212 0.24205 0.58804 0.0
H94 H 0.98958 0.40155 0.54953 0.0
H95 H 0.98919 0.35695 0.51897 0.0
H96 H 0.91299 0.20762 0.49916 0.0
H97 H 0.85379 0.13934 0.51328 0.0
H98 H 0.74138 0.10955 0.5692 0.0
H99 H 0.72777 0.15944 0.59063 0.0
H100 H 0.80553 0.31193 0.61094 0.0
H101 H 0.87731 0.3754 0.60448 0.0
H102 H 0.8044 0.33508 0.53295 0.0
H103 H 0.74742 0.2098 0.51285 0.0
H104 H 0.88539 0.23423 0.63067 0.0
H105 H 0.98772 0.28191 0.59275 0.0
C106 C 0.65691 0.8663 0.96221 0.0
C107 C 0.66104 0.85497 0.98155 0.0
C108 C 0.6367 0.81331 0.98258 0.0
C109 C 0.61924 0.80165 0.96385 0.0
N110 N 0.63136 0.83336 0.95117 0.0
Co111 Co 0.61295 0.83102 0.92315 0.0
N112 N 0.56376 0.77846 0.92834 0.0
C113 C 0.55796 0.75265 0.94363 0.0
C114 C 0.52151 0.7179 0.94321 0.0
C115 C 0.50345 0.72184 0.92648 0.0
C116 C 0.53 0.75899 0.91755 0.0
N117 N 0.59475 0.82844 0.89498 0.0
C118 C 0.55872 0.80417 0.88666 0.0
C119 C 0.55969 0.81157 0.86604 0.0
C120 C 0.59771 0.84087 0.86137 0.0
C121 C 0.61795 0.84991 0.87933 0.0
N122 N 0.66216 0.88386 0.91861 0.0
C123 C 0.67836 0.89976 0.90056 0.0
C124 C 0.71104 0.93828 0.90241 0.0
C125 C 0.71525 0.94686 0.92287 0.0
C126 C 0.68486 0.91303 0.9324 0.0
N127 N 0.63878 0.80127 0.91406 0.0
C128 C 0.67833 0.76675 0.89467 0.0
C129 C 0.69792 0.79973 0.90822 0.0
C130 C 0.67761 0.81613 0.91791 0.0
C131 C 0.63804 0.75044 0.89192 0.0
C132 C 0.61905 0.76801 0.9016 0.0
N133 N 0.58787 0.86149 0.93134 0.0
C134 C 0.58075 0.91933 0.9254 0.0
C135 C 0.55987 0.91218 0.94342 0.0
C136 C 0.552 0.87802 0.95504 0.0
C137 C 0.56657 0.85318 0.9488 0.0
C138 C 0.59399 0.89365 0.91958 0.0
H139 H 0.56128 0.82778 0.95821 0.0
H140 H 0.61015 0.90066 0.90566 0.0
H141 H 0.69371 0.84182 0.92798 0.0
H142 H 0.58855 0.7555 0.89818 0.0
C143 C 0.58536 0.76427 0.95934 0.0
C144 C 0.67823 0.90817 0.95448 0.0
C145 C 0.5241 0.77184 0.89753 0.0
C146 C 0.65688 0.88192 0.8827 0.0
H147 H 0.67919 0.87478 0.99368 0.0
H148 H 0.63056 0.7943 0.99581 0.0
H149 H 0.50926 0.69295 0.95393 0.0
H150 H 0.47447 0.69928 0.92117 0.0
H151 H 0.53557 0.79697 0.85543 0.0
H152 H 0.60897 0.85461 0.84672 0.0
H153 H 0.72826 0.95881 0.8903 0.0
H154 H 0.7376 0.9749 0.92989 0.0
H155 H 0.72886 0.81308 0.91123 0.0
H156 H 0.62139 0.72522 0.8816 0.0
H157 H 0.58681 0.94476 0.91572 0.0
H158 H 0.53569 0.87121 0.96905 0.0
C159 C 0.67273 0.58251 0.21513 0.0
C160 C 0.65062 0.59422 0.20401 0.0
C161 C 0.67443 0.61976 0.18917 0.0
C162 C 0.70966 0.62252 0.19211 0.0
N163 N 0.70983 0.60033 0.20787 0.0
Co164 Co 0.75581 0.59768 0.21765 0.0
N165 N 0.79344 0.64611 0.20094 0.0
C166 C 0.78344 0.6645 0.18684 0.0
C167 C 0.81471 0.69665 0.1774 0.0
C168 C 0.84683 0.69848 0.18565 0.0
C169 C 0.83332 0.66706 0.19974 0.0
N170 N 0.80194 0.59427 0.22668 0.0
C171 C 0.84088 0.61813 0.22222 0.0
C172 C 0.86184 0.60178 0.23029 0.0
C173 C 0.83522 0.5659 0.23948 0.0
C174 C 0.79956 0.56233 0.23662 0.0
N175 N 0.71808 0.55024 0.23465 0.0
C176 C 0.72561 0.52378 0.24386 0.0
C177 C 0.69424 0.49422 0.25464 0.0
C178 C 0.66497 0.50249 0.25201 0.0
C179 C 0.68018 0.53674 0.23976 0.0
N180 N 0.74847 0.55978 0.19529 0.0
C181 C 0.74552 0.49359 0.1749 0.0
C182 C 0.7116 0.48995 0.18337 0.0
C183 C 0.7136 0.52353 0.19322 0.0
C184 C 0.77942 0.53256 0.17458 0.0
C185 C 0.78012 0.56511 0.18457 0.0
N186 N 0.76244 0.63363 0.24087 0.0
C187 C 0.76825 0.64255 0.27723 0.0
C188 C 0.75536 0.67024 0.27667 0.0
C189 C 0.74898 0.68157 0.25742 0.0
C190 C 0.75294 0.66317 0.23976 0.0
C191 C 0.77138 0.62472 0.25943 0.0
H192 H 0.74662 0.67163 0.22533 0.0
H193 H 0.77918 0.60203 0.26107 0.0
H194 H 0.68747 0.51908 0.20045 0.0
H195 H 0.80733 0.59369 0.18471 0.0
C196 C 0.74448 0.65131 0.183 0.0
C197 C 0.65683 0.55348 0.23199 0.0
C198 C 0.85873 0.6538 0.20858 0.0
C199 C 0.76353 0.53049 0.24381 0.0
H200 H 0.62056 0.58577 0.2065 0.0
H201 H 0.6675 0.63614 0.17826 0.0
H202 H 0.81419 0.71594 0.16561 0.0
H203 H 0.87661 0.71938 0.18088 0.0
H204 H 0.89298 0.61385 0.22901 0.0
H205 H 0.84115 0.54472 0.24713 0.0
H206 H 0.69302 0.47008 0.26369 0.0
H207 H 0.63567 0.4851 0.25819 0.0
H208 H 0.6843 0.46081 0.1836 0.0
H209 H 0.80595 0.53763 0.16739 0.0
H210 H 0.77507 0.63366 0.29147 0.0
H211 H 0.73936 0.70314 0.25599 0.0
C212 C 0.09723 0.68043 0.55863 0.0
C213 C 0.06153 0.65738 0.54871 0.0
C214 C 0.0601 0.68171 0.53416 0.0
C215 C 0.0945 0.71834 0.53615 0.0
N216 N 0.11784 0.71905 0.55111 0.0
Co217 Co 0.16869 0.76796 0.55997 0.0
N218 N 0.16081 0.80597 0.54243 0.0
C219 C 0.13079 0.79487 0.52952 0.0
C220 C 0.13132 0.82695 0.5201 0.0
C221 C 0.16426 0.86082 0.52709 0.0
C222 C 0.18238 0.84736 0.5402 0.0
N223 N 0.22042 0.81722 0.56797 0.0
C224 C 0.23834 0.85734 0.56221 0.0
C225 C 0.27637 0.87954 0.56955 0.0
C226 C 0.28296 0.85271 0.57985 0.0
C227 C 0.2488 0.8156 0.57821 0.0
N228 N 0.17567 0.72997 0.57787 0.0
C229 C 0.20906 0.73927 0.58742 0.0
C230 C 0.20589 0.70742 0.59851 0.0
C231 C 0.16812 0.6758 0.5957 0.0
C232 C 0.15022 0.69013 0.58303 0.0
N233 N 0.19653 0.75822 0.53795 0.0
C234 C 0.25824 0.75271 0.52079 0.0
C235 C 0.22523 0.71826 0.52909 0.0
C236 C 0.19435 0.72142 0.53702 0.0
C237 C 0.25623 0.78802 0.51846 0.0
C238 C 0.22514 0.79003 0.52699 0.0
N239 N 0.14183 0.7765 0.58308 0.0
C240 C 0.14041 0.7827 0.6195 0.0
C241 C 0.09976 0.7657 0.61945 0.0
C242 C 0.0813 0.75808 0.60043 0.0
C243 C 0.10287 0.7641 0.58249 0.0
C244 C 0.1606 0.78773 0.60141 0.0
H245 H 0.08735 0.75654 0.56832 0.0
H246 H 0.19115 0.79833 0.6027 0.0
H247 H 0.17052 0.69481 0.54409 0.0
H248 H 0.22618 0.81846 0.52595 0.0
C249 C 0.10212 0.75417 0.52688 0.0
C250 C 0.11059 0.66368 0.57455 0.0
C251 C 0.22236 0.8746 0.54783 0.0
C252 C 0.24183 0.77883 0.58652 0.0
H253 H 0.03844 0.62633 0.55182 0.0
H254 H 0.03589 0.67427 0.5241 0.0
H255 H 0.11041 0.8258 0.50929 0.0
H256 H 0.17461 0.89187 0.52245 0.0
H257 H 0.29772 0.91148 0.56705 0.0
H258 H 0.30977 0.85935 0.5873 0.0
H259 H 0.2283 0.70723 0.60762 0.0
H260 H 0.15546 0.64538 0.60188 0.0
H261 H 0.22409 0.68963 0.53087 0.0
H262 H 0.2794 0.81483 0.51096 0.0
H263 H 0.15669 0.79091 0.63357 0.0
H264 H 0.05005 0.74558 0.59936 0.0
C265 C 0.37319 0.15786 0.96201 0.0
C266 C 0.36954 0.16973 0.98133 0.0
C267 C 0.39422 0.21134 0.98219 0.0
C268 C 0.41156 0.22247 0.96344 0.0
N269 N 0.39907 0.19046 0.95089 0.0
Co270 Co 0.41757 0.19208 0.92292 0.0
N271 N 0.46701 0.2445 0.92802 0.0
C272 C 0.47307 0.27064 0.94321 0.0
C273 C 0.50968 0.30514 0.94276 0.0
C274 C 0.52761 0.30069 0.92613 0.0
C275 C 0.50081 0.26351 0.91726 0.0
N276 N 0.43574 0.19395 0.89482 0.0
C277 C 0.47179 0.21788 0.88649 0.0
C278 C 0.47076 0.21007 0.86591 0.0
C279 C 0.43267 0.18089 0.86127 0.0
C280 C 0.41247 0.17231 0.8792 0.0
N281 N 0.36823 0.13936 0.91849 0.0
C282 C 0.35197 0.12311 0.90049 0.0
C283 C 0.31929 0.08461 0.90245 0.0
C284 C 0.31518 0.07644 0.92295 0.0
C285 C 0.34567 0.11041 0.93236 0.0
N286 N 0.39219 0.22209 0.91353 0.0
C287 C 0.3537 0.25755 0.89395 0.0
C288 C 0.33352 0.22439 0.90732 0.0
C289 C 0.35332 0.20754 0.91712 0.0
C290 C 0.39394 0.27342 0.89142 0.0
C291 C 0.41239 0.25536 0.90115 0.0
N292 N 0.44224 0.16138 0.93141 0.0
C293 C 0.44901 0.10323 0.92574 0.0
C294 C 0.46997 0.11063 0.94375 0.0
C295 C 0.47799 0.14501 0.95526 0.0
C296 C 0.46353 0.16987 0.9489 0.0
C297 C 0.43593 0.12895 0.91978 0.0
H298 H 0.46896 0.19546 0.95821 0.0
H299 H 0.41979 0.1218 0.90584 0.0
H300 H 0.33684 0.18181 0.92709 0.0
H301 H 0.44287 0.26757 0.89787 0.0
C302 C 0.44569 0.25953 0.95887 0.0
C303 C 0.35186 0.11579 0.95443 0.0
C304 C 0.50653 0.25025 0.8973 0.0
C305 C 0.37345 0.14052 0.8826 0.0
H306 H 0.3517 0.15043 0.99363 0.0
H307 H 0.40076 0.23064 0.99537 0.0
H308 H 0.52212 0.33026 0.95342 0.0
H309 H 0.55666 0.32296 0.92081 0.0
H310 H 0.49488 0.22434 0.85531 0.0
H311 H 0.42136 0.1669 0.84665 0.0
H312 H 0.30198 0.06387 0.89041 0.0
H313 H 0.29275 0.04867 0.93013 0.0
H314 H 0.30255 0.21134 0.91012 0.0
H315 H 0.41099 0.29874 0.88123 0.0
H316 H 0.44283 0.07761 0.91615 0.0
H317 H 0.49439 0.15201 0.96925 0.0
C318 C 0.59975 0.67803 0.46454 0.0
C319 C 0.60843 0.65301 0.47572 0.0
C320 C 0.63047 0.67544 0.49181 0.0
C321 C 0.63452 0.7129 0.48944 0.0
N322 N 0.61671 0.71597 0.4728 0.0
Co323 Co 0.61855 0.76658 0.46331 0.0
N324 N 0.66114 0.8022 0.48308 0.0
C325 C 0.67392 0.78853 0.49825 0.0
C326 C 0.70164 0.81864 0.51035 0.0
C327 C 0.70661 0.85395 0.5027 0.0
C328 C 0.68165 0.84348 0.48613 0.0
N329 N 0.61983 0.81743 0.45452 0.0
C330 C 0.64333 0.85742 0.46023 0.0
C331 C 0.63147 0.8817 0.45098 0.0
C332 C 0.59882 0.85625 0.4398 0.0
C333 C 0.59259 0.81789 0.44265 0.0
N334 N 0.57663 0.73085 0.44345 0.0
C335 C 0.55501 0.74185 0.43268 0.0
C336 C 0.52786 0.71118 0.42044 0.0
C337 C 0.5324 0.67857 0.42378 0.0
C338 C 0.56219 0.69117 0.4379 0.0
N339 N 0.57763 0.75725 0.48318 0.0
C340 C 0.50904 0.75134 0.49871 0.0
C341 C 0.50836 0.71716 0.49048 0.0
C342 C 0.54295 0.72055 0.48327 0.0
C343 C 0.54598 0.78688 0.5014 0.0
C344 C 0.57971 0.78915 0.49363 0.0
N345 N 0.65754 0.77485 0.44226 0.0
C346 C 0.67205 0.78289 0.40636 0.0
C347 C 0.69449 0.76464 0.40804 0.0
C348 C 0.70061 0.75463 0.42765 0.0
C349 C 0.68249 0.76063 0.44455 0.0
C350 C 0.65404 0.78762 0.42342 0.0
H351 H 0.68716 0.75172 0.45925 0.0
H352 H 0.63499 0.79902 0.42081 0.0
H353 H 0.54076 0.69411 0.47625 0.0
H354 H 0.60685 0.81778 0.49493 0.0
C355 C 0.65991 0.74727 0.50058 0.0
C356 C 0.57316 0.66337 0.44705 0.0
C357 C 0.6747 0.87319 0.47572 0.0
C358 C 0.56326 0.78205 0.43336 0.0
H359 H 0.59983 0.62173 0.47262 0.0
H360 H 0.64344 0.66609 0.50335 0.0
H361 H 0.71599 0.81524 0.52345 0.0
H362 H 0.72528 0.88369 0.50937 0.0
H363 H 0.64443 0.91432 0.45257 0.0
H364 H 0.58167 0.86475 0.43068 0.0
H365 H 0.50744 0.71246 0.41015 0.0
H366 H 0.51528 0.64869 0.41691 0.0
H367 H 0.48111 0.68852 0.4883 0.0
H368 H 0.54888 0.8136 0.5087 0.0
H369 H 0.66611 0.79115 0.3917 0.0
H370 H 0.71852 0.74135 0.42991 0.0
C371 C 0.92458 0.57207 0.80684 0.0
C372 C 0.95367 0.57591 0.81985 0.0
C373 C 0.95343 0.59741 0.8363 0.0
C374 C 0.92414 0.60511 0.83253 0.0
N375 N 0.90566 0.58971 0.81481 0.0
Co376 Co 0.86028 0.5924 0.80434 0.0
N377 N 0.87073 0.63756 0.82346 0.0
C378 C 0.8958 0.65012 0.83923 0.0
C379 C 0.89683 0.68084 0.85029 0.0
C380 C 0.87006 0.68775 0.84133 0.0
C381 C 0.85391 0.66058 0.8252 0.0
N382 N 0.81371 0.59408 0.79458 0.0
C383 C 0.80034 0.61929 0.79957 0.0
C384 C 0.76465 0.60668 0.7903 0.0
C385 C 0.75465 0.57181 0.77975 0.0
C386 C 0.78474 0.56506 0.78303 0.0
N387 N 0.85111 0.54818 0.78506 0.0
C388 C 0.81822 0.52497 0.77431 0.0
C389 C 0.82105 0.49841 0.76147 0.0
C390 C 0.85808 0.50531 0.76434 0.0
C391 C 0.8758 0.53563 0.77892 0.0
N392 N 0.82558 0.55086 0.8244 0.0
C393 C 0.76118 0.48348 0.84335 0.0
C394 C 0.79127 0.47991 0.83456 0.0
C395 C 0.82329 0.51397 0.82533 0.0
C396 C 0.76641 0.52253 0.8443 0.0
C397 C 0.79875 0.55562 0.83498 0.0
N398 N 0.89388 0.63228 0.78337 0.0
C399 C 0.90238 0.6496 0.74776 0.0
C400 C 0.94289 0.67532 0.75012 0.0
C401 C 0.95812 0.68059 0.76988 0.0
C402 C 0.9331 0.65928 0.7863 0.0
C403 C 0.87874 0.62855 0.76434 0.0
H404 H 0.94578 0.66346 0.80118 0.0
H405 H 0.84836 0.60743 0.76126 0.0
H406 H 0.84489 0.50968 0.81785 0.0
H407 H 0.80041 0.5844 0.8354 0.0
C408 C 0.91828 0.63278 0.84316 0.0
C409 C 0.91519 0.55052 0.7874 0.0
C410 C 0.81803 0.65255 0.81469 0.0
C411 C 0.78819 0.5336 0.77444 0.0
H412 H 0.97327 0.56467 0.81766 0.0
H413 H 0.97346 0.60782 0.84901 0.0
H414 H 0.91428 0.6958 0.86361 0.0
H415 H 0.86194 0.70884 0.8469 0.0
H416 H 0.74705 0.62053 0.79158 0.0
H417 H 0.72849 0.55352 0.7708 0.0
H418 H 0.79943 0.4777 0.75068 0.0
H419 H 0.87056 0.48993 0.75651 0.0
H420 H 0.78906 0.45059 0.83372 0.0
H421 H 0.74488 0.52736 0.85161 0.0
H422 H 0.88896 0.64387 0.73293 0.0
H423 H 0.98919 0.70058 0.77261 0.0
C424 C 0.22846 0.86213 0.05748 0.0
C425 C 0.21388 0.85151 0.03794 0.0
C426 C 0.19714 0.80997 0.03645 0.0
C427 C 0.20234 0.79766 0.05512 0.0
N428 N 0.22103 0.82885 0.06821 0.0
Co429 Co 0.2355 0.82534 0.09641 0.0
N430 N 0.23315 0.77333 0.09084 0.0
C431 C 0.21436 0.74821 0.07512 0.0
C432 C 0.2166 0.71372 0.07533 0.0
C433 C 0.23767 0.71709 0.09235 0.0
C434 C 0.24722 0.75367 0.10168 0.0
N435 N 0.24919 0.82133 0.12479 0.0
C436 C 0.26081 0.79692 0.13313 0.0
C437 C 0.26571 0.80322 0.15389 0.0
C438 C 0.25612 0.83192 0.15861 0.0
C439 C 0.24598 0.84174 0.14054 0.0
N440 N 0.23843 0.87783 0.10129 0.0
C441 C 0.23689 0.89279 0.11942 0.0
C442 C 0.24274 0.93139 0.1179 0.0
C443 C 0.24837 0.941 0.09757 0.0
C444 C 0.24558 0.90764 0.08776 0.0
N445 N 0.17951 0.79485 0.1046 0.0
C446 C 0.10603 0.76083 0.12434 0.0
C447 C 0.11954 0.79431 0.11114 0.0
C448 C 0.15591 0.81039 0.10121 0.0
C449 C 0.12926 0.74346 0.12635 0.0
C450 C 0.16558 0.76082 0.11652 0.0
N451 N 0.29148 0.85654 0.08929 0.0
C452 C 0.35611 0.91128 0.09831 0.0
C453 C 0.37203 0.90576 0.08063 0.0
C454 C 0.34643 0.87516 0.06703 0.0
C455 C 0.30614 0.85058 0.07174 0.0
C456 C 0.31636 0.88668 0.10231 0.0
H457 H 0.28688 0.82698 0.06125 0.0
H458 H 0.3058 0.89267 0.11604 0.0
H459 H 0.16572 0.83659 0.09149 0.0
H460 H 0.18323 0.74774 0.11958 0.0
C461 C 0.19916 0.76028 0.05932 0.0
C462 C 0.24839 0.9037 0.06565 0.0
C463 C 0.26455 0.7656 0.12205 0.0
C464 C 0.2392 0.87393 0.13724 0.0
H465 H 0.21577 0.87174 0.02598 0.0
H466 H 0.18503 0.7915 0.02297 0.0
H467 H 0.20482 0.6893 0.06428 0.0
H468 H 0.24411 0.69448 0.09761 0.0
H469 H 0.27486 0.78835 0.16454 0.0
H470 H 0.2575 0.84488 0.17337 0.0
H471 H 0.24516 0.95128 0.13018 0.0
H472 H 0.2544 0.9694 0.09085 0.0
H473 H 0.10241 0.80842 0.1087 0.0
H474 H 0.12047 0.71774 0.13635 0.0
H475 H 0.37433 0.93498 0.10909 0.0
H476 H 0.35747 0.86984 0.05314 0.0
C477 C 0.42824 0.34311 0.46359 0.0
C478 C 0.41608 0.36646 0.47367 0.0
C479 C 0.39075 0.34238 0.4884 0.0
C480 C 0.38828 0.3056 0.48635 0.0
N481 N 0.41034 0.30455 0.47118 0.0
Co482 Co 0.41175 0.25533 0.4622 0.0
N483 N 0.36645 0.21772 0.4801 0.0
C484 C 0.34806 0.22915 0.49321 0.0
C485 C 0.3168 0.1973 0.50287 0.0
C486 C 0.31551 0.16322 0.49582 0.0
C487 C 0.34659 0.17635 0.48244 0.0
N488 N 0.41374 0.20578 0.45408 0.0
C489 C 0.39161 0.16572 0.45995 0.0
C490 C 0.40703 0.14323 0.4524 0.0
C491 C 0.44011 0.16979 0.44184 0.0
C492 C 0.44328 0.20705 0.44355 0.0
N493 N 0.45612 0.29291 0.44394 0.0
C494 C 0.47972 0.28326 0.43411 0.0
C495 C 0.50807 0.31487 0.42281 0.0
C496 C 0.50223 0.34672 0.42576 0.0
C497 C 0.47051 0.33275 0.43873 0.0
N498 N 0.44994 0.26508 0.48388 0.0
C499 C 0.51739 0.27061 0.50073 0.0
C500 C 0.51867 0.305 0.49239 0.0
C501 C 0.48453 0.30182 0.48461 0.0
C502 C 0.48018 0.23535 0.50322 0.0
C503 C 0.44697 0.23333 0.49483 0.0
N504 N 0.37569 0.24676 0.43942 0.0
C505 C 0.36663 0.23973 0.40308 0.0
C506 C 0.34353 0.25742 0.40331 0.0
C507 C 0.33363 0.26577 0.42242 0.0
C508 C 0.34957 0.25977 0.44022 0.0
C509 C 0.38231 0.23486 0.42103 0.0
H510 H 0.34226 0.26782 0.45445 0.0
H511 H 0.40188 0.22378 0.41957 0.0
H512 H 0.4872 0.3284 0.47752 0.0
H513 H 0.41964 0.20493 0.496 0.0
C514 C 0.36031 0.26995 0.49581 0.0
C515 C 0.45784 0.35953 0.44743 0.0
C516 C 0.35887 0.1488 0.4746 0.0
C517 C 0.47281 0.24361 0.435 0.0
H518 H 0.42408 0.39755 0.47056 0.0
H519 H 0.37441 0.3501 0.49864 0.0
H520 H 0.29746 0.19872 0.51387 0.0
H521 H 0.29489 0.13227 0.50059 0.0
H522 H 0.3964 0.11127 0.45491 0.0
H523 H 0.45991 0.16288 0.43416 0.0
H524 H 0.53027 0.31478 0.41346 0.0
H525 H 0.51988 0.37706 0.41949 0.0
H526 H 0.54608 0.33358 0.49049 0.0
H527 H 0.4767 0.2086 0.51073 0.0
H528 H 0.37393 0.23087 0.38896 0.0
H529 H 0.31533 0.27881 0.42366 0.0
C530 C 0.10711 0.45083 0.8055 0.0
C531 C 0.07718 0.44581 0.81821 0.0
C532 C 0.07641 0.42292 0.83423 0.0
C533 C 0.10599 0.41563 0.83055 0.0
N534 N 0.1256 0.43258 0.81328 0.0
Co535 Co 0.17186 0.43107 0.80321 0.0
N536 N 0.16058 0.38462 0.82156 0.0
C537 C 0.13437 0.37056 0.83683 0.0
C538 C 0.13291 0.33916 0.84743 0.0
C539 C 0.16056 0.33335 0.8387 0.0
C540 C 0.17764 0.36183 0.82318 0.0
N541 N 0.21934 0.43059 0.79394 0.0
C542 C 0.23281 0.40542 0.7988 0.0
C543 C 0.2692 0.41906 0.79013 0.0
C544 C 0.27949 0.45451 0.78011 0.0
C545 C 0.2489 0.46058 0.7831 0.0
N546 N 0.18186 0.47654 0.78462 0.0
C547 C 0.21529 0.50057 0.77446 0.0
C548 C 0.21306 0.528 0.76202 0.0
C549 C 0.17586 0.5208 0.76454 0.0
C550 C 0.15744 0.48946 0.77852 0.0
N551 N 0.20513 0.47131 0.82415 0.0
C552 C 0.26912 0.53809 0.84374 0.0
C553 C 0.23919 0.54192 0.83493 0.0
C554 C 0.20734 0.50813 0.82541 0.0
C555 C 0.26374 0.49897 0.84449 0.0
C556 C 0.23157 0.46615 0.83487 0.0
N557 N 0.13979 0.39266 0.78131 0.0
C558 C 0.13414 0.37886 0.74533 0.0
C559 C 0.09332 0.35406 0.74656 0.0
C560 C 0.07653 0.3464 0.76604 0.0
C561 C 0.10028 0.36575 0.7832 0.0
C562 C 0.15647 0.39776 0.76259 0.0
H563 H 0.08635 0.36036 0.79781 0.0
H564 H 0.18721 0.41841 0.7603 0.0
H565 H 0.18594 0.51268 0.81789 0.0
H566 H 0.22986 0.43733 0.83511 0.0
C567 C 0.11135 0.38726 0.84077 0.0
C568 C 0.11764 0.47401 0.78654 0.0
C569 C 0.21437 0.37104 0.81324 0.0
C570 C 0.24556 0.49231 0.77481 0.0
H571 H 0.05768 0.45719 0.8161 0.0
H572 H 0.05561 0.41143 0.8466 0.0
H573 H 0.11459 0.32305 0.8603 0.0
H574 H 0.1686 0.31208 0.84407 0.0
H575 H 0.28699 0.40545 0.79146 0.0
H576 H 0.30617 0.47363 0.7717 0.0
H577 H 0.23526 0.54957 0.75174 0.0
H578 H 0.16374 0.53674 0.75691 0.0
H579 H 0.24145 0.57128 0.83426 0.0
H580 H 0.2851 0.4939 0.85183 0.0
H581 H 0.14904 0.38481 0.73091 0.0
H582 H 0.04515 0.3271 0.76797 0.0
C583 C 0.80219 0.16124 0.05751 0.0
C584 C 0.81634 0.17152 0.03789 0.0
C585 C 0.83279 0.21299 0.03624 0.0
C586 C 0.82785 0.2256 0.0549 0.0
N587 N 0.80958 0.19467 0.06812 0.0
Co588 Co 0.79542 0.19862 0.09635 0.0
N589 N 0.79741 0.25039 0.09063 0.0
C590 C 0.81584 0.27521 0.07479 0.0
C591 C 0.81345 0.30961 0.0749 0.0
C592 C 0.79267 0.30652 0.092 0.0
C593 C 0.78344 0.27018 0.10145 0.0
N594 N 0.782 0.20303 0.12474 0.0
C595 C 0.77043 0.22752 0.13304 0.0
C596 C 0.76583 0.2216 0.15382 0.0
C597 C 0.77558 0.19306 0.1586 0.0
C598 C 0.78551 0.18296 0.14054 0.0
N599 N 0.79289 0.14638 0.1014 0.0
C600 C 0.79483 0.13185 0.11957 0.0
C601 C 0.78951 0.09345 0.11816 0.0
C602 C 0.78379 0.08351 0.09786 0.0
C603 C 0.78595 0.11646 0.08797 0.0
N604 N 0.85151 0.22947 0.10437 0.0
C605 C 0.92528 0.2641 0.12389 0.0
C606 C 0.91173 0.23045 0.11078 0.0
C607 C 0.87521 0.21407 0.10095 0.0
C608 C 0.9019 0.28131 0.12594 0.0
C609 C 0.86544 0.26365 0.11621 0.0
N610 N 0.73937 0.16702 0.08937 0.0
C611 C 0.6751 0.1116 0.09837 0.0
C612 C 0.65889 0.11661 0.08065 0.0
C613 C 0.68421 0.14745 0.0671 0.0
C614 C 0.72444 0.17258 0.07182 0.0
C615 C 0.71478 0.13685 0.10242 0.0
H616 H 0.74347 0.19622 0.06131 0.0
H617 H 0.72556 0.13122 0.11616 0.0
H618 H 0.8654 0.18776 0.09129 0.0
H619 H 0.84772 0.27664 0.11928 0.0
C620 C 0.83087 0.26294 0.05898 0.0
C621 C 0.78279 0.11989 0.06587 0.0
C622 C 0.76652 0.25867 0.12191 0.0
C623 C 0.79254 0.15091 0.13733 0.0
H624 H 0.81436 0.15113 0.02598 0.0
H625 H 0.84454 0.2312 0.02267 0.0
H626 H 0.82494 0.3338 0.06376 0.0
H627 H 0.78622 0.32916 0.09721 0.0
H628 H 0.75681 0.23664 0.16445 0.0
H629 H 0.7745 0.18042 0.1734 0.0
H630 H 0.78756 0.07391 0.13049 0.0
H631 H 0.77817 0.05519 0.09117 0.0
H632 H 0.92898 0.21647 0.10831 0.0
H633 H 0.91072 0.30716 0.13586 0.0
H634 H 0.65727 0.08769 0.10911 0.0
H635 H 0.67302 0.15247 0.05317 0.0
H636 H 0.32712 0.75552 0.11696 0.0
H637 H 0.22783 0.54749 0.18085 0.0
H638 H 0.21984 0.70848 0.15054 0.0
H639 H 0.34221 0.5995 0.15371 0.0
H640 H 0.22528 0.60671 0.16989 0.0
H641 H 0.33478 0.70036 0.13068 0.0
C642 C 0.30572 0.7341 0.12762 0.0
C643 C 0.27325 0.73699 0.13298 0.0
C644 C 0.25101 0.60533 0.1663 0.0
C645 C 0.28102 0.67305 0.14825 0.0
C646 C 0.25236 0.57119 0.17241 0.0
C647 C 0.2851 0.56796 0.16802 0.0
C648 C 0.28256 0.63691 0.15556 0.0
C649 C 0.31636 0.6005 0.15749 0.0
C650 C 0.30989 0.70245 0.13533 0.0
C651 C 0.24573 0.70783 0.14639 0.0
N652 N 0.31421 0.63339 0.15152 0.0
N653 N 0.25012 0.67706 0.15345 0.0
H654 H 0.76132 0.33711 0.51113 0.0
H655 H 0.52918 0.20571 0.49928 0.0
H656 H 0.69275 0.20817 0.52466 0.0
H657 H 0.59123 0.33517 0.51191 0.0
H658 H 0.5897 0.20627 0.50455 0.0
H659 H 0.70054 0.33718 0.50694 0.0
C660 C 0.73377 0.30877 0.51326 0.0
C661 C 0.73282 0.27255 0.51832 0.0
C662 C 0.58999 0.23451 0.50625 0.0
C663 C 0.66265 0.27251 0.51303 0.0
C664 C 0.55515 0.23426 0.50346 0.0
C665 C 0.55431 0.27044 0.50525 0.0
C666 C 0.62488 0.27129 0.51052 0.0
C667 C 0.58994 0.3065 0.51002 0.0
C668 C 0.69897 0.30891 0.51078 0.0
C669 C 0.69562 0.2368 0.52035 0.0
N670 N 0.62365 0.30603 0.51234 0.0
N671 N 0.66228 0.2377 0.51765 0.0
H672 H 0.4513 0.76117 0.90287 0.0
H673 H 0.34366 0.55355 0.83854 0.0
H674 H 0.51218 0.71562 0.86854 0.0
H675 H 0.28116 0.60657 0.86462 0.0
H676 H 0.40523 0.61269 0.84975 0.0
H677 H 0.38876 0.70609 0.88893 0.0
C678 C 0.45147 0.7401 0.892 0.0
C679 C 0.48693 0.74338 0.8865 0.0
C680 C 0.37813 0.61155 0.85304 0.0
C681 C 0.41554 0.67949 0.87099 0.0
C682 C 0.34276 0.57746 0.8468 0.0
C683 C 0.30683 0.57458 0.8508 0.0
C684 C 0.37804 0.64336 0.86356 0.0
C685 C 0.30799 0.60732 0.86113 0.0
C686 C 0.41581 0.70849 0.88417 0.0
C687 C 0.48555 0.71465 0.87282 0.0
N688 N 0.3429 0.64013 0.86726 0.0
N689 N 0.45053 0.68386 0.86566 0.0
H690 H 0.80438 0.47781 0.18038 0.0
H691 H 0.70383 0.26867 0.11711 0.0
H692 H 0.68941 0.42521 0.15382 0.0
H693 H 0.81194 0.31643 0.15007 0.0
H694 H 0.69651 0.32412 0.13077 0.0
H695 H 0.80688 0.41859 0.16933 0.0
C696 C 0.77971 0.454 0.17203 0.0
C697 C 0.7468 0.45706 0.16785 0.0
C698 C 0.72152 0.32214 0.13529 0.0
C699 C 0.74929 0.38807 0.1553 0.0
C700 C 0.7255 0.29032 0.12762 0.0
C701 C 0.7581 0.28754 0.13282 0.0
C702 C 0.7507 0.35181 0.14802 0.0
C703 C 0.78595 0.317 0.14604 0.0
C704 C 0.78104 0.41984 0.16588 0.0
C705 C 0.71539 0.42437 0.15744 0.0
N706 N 0.78174 0.34792 0.15307 0.0
N707 N 0.71751 0.39145 0.15144 0.0
H708 H 0.43582 0.68626 0.51007 0.0
H709 H 0.33477 0.81759 0.52228 0.0
H710 H 0.49592 0.81532 0.49681 0.0
H711 H 0.26768 0.68824 0.50941 0.0
H712 H 0.39472 0.81706 0.51692 0.0
H713 H 0.37497 0.68616 0.51424 0.0
C714 C 0.43655 0.71463 0.50799 0.0
C715 C 0.47176 0.75089 0.50302 0.0
C716 C 0.36684 0.78884 0.51518 0.0
C717 C 0.40159 0.75088 0.50829 0.0
C718 C 0.33225 0.78908 0.51803 0.0
C719 C 0.29533 0.75292 0.5162 0.0
C720 C 0.36504 0.75209 0.51083 0.0
C721 C 0.29499 0.71689 0.51134 0.0
C722 C 0.4016 0.71446 0.51046 0.0
C723 C 0.47022 0.78666 0.50105 0.0
N724 N 0.32917 0.71737 0.50897 0.0
N725 N 0.43596 0.78573 0.50374 0.0
H726 H 0.57932 0.26084 0.90261 0.0
H727 H 0.68659 0.46772 0.83795 0.0
H728 H 0.51829 0.30602 0.86816 0.0
H729 H 0.74928 0.41507 0.86415 0.0
H730 H 0.62508 0.40857 0.84914 0.0
H731 H 0.64178 0.31567 0.88853 0.0
C732 C 0.57909 0.28177 0.89168 0.0
C733 C 0.54362 0.27848 0.88619 0.0
C734 C 0.6522 0.40978 0.85246 0.0
C735 C 0.61492 0.34206 0.87052 0.0
C736 C 0.68753 0.44387 0.84621 0.0
C737 C 0.7235 0.44687 0.85027 0.0
C738 C 0.65237 0.3781 0.86303 0.0
C739 C 0.72242 0.41422 0.86063 0.0
C740 C 0.61471 0.31323 0.88377 0.0
C741 C 0.54493 0.30701 0.87243 0.0
N742 N 0.68754 0.38142 0.86676 0.0
N743 N 0.5799 0.33766 0.8652 0.0
H744 H 0.59503 0.49643 0.20977 0.0
H745 H 0.40684 0.45123 0.2633 0.0
H746 H 0.62181 0.56912 0.2638 0.0
H747 H 0.43905 0.52398 0.20911 0.0
H748 H 0.47592 0.47004 0.26729 0.0
H749 H 0.52629 0.47803 0.21247 0.0
C750 C 0.58609 0.50733 0.22259 0.0
C751 C 0.61403 0.53409 0.23666 0.0
C752 C 0.4678 0.4824 0.25479 0.0
C753 C 0.53561 0.51313 0.23982 0.0
C754 C 0.42862 0.47199 0.25258 0.0
C755 C 0.41734 0.48627 0.23591 0.0
C756 C 0.49544 0.5064 0.23994 0.0
C757 C 0.44661 0.51255 0.22223 0.0
C758 C 0.54709 0.49719 0.22399 0.0
C759 C 0.60105 0.54809 0.25278 0.0
N760 N 0.48404 0.521 0.22429 0.0
N761 N 0.56272 0.53758 0.25391 0.0
H762 H 0.07257 0.6212 0.60944 0.0
H763 H 0.92601 0.42043 0.55077 0.0
H764 H 0.09404 0.60246 0.54766 0.0
H765 H 0.9692 0.40319 0.60728 0.0
H766 H 0.9745 0.49388 0.55272 0.0
H767 H 0.0246 0.54695 0.61239 0.0
C768 C 0.06775 0.60143 0.59665 0.0
C769 C 0.08721 0.61816 0.57822 0.0
C770 C 0.97289 0.47414 0.56489 0.0
C771 C 0.03141 0.53386 0.58125 0.0
C772 C 0.94496 0.43233 0.56391 0.0
C773 C 0.94355 0.40556 0.57887 0.0
C774 C 0.99913 0.48991 0.58124 0.0
C775 C 0.96917 0.42274 0.59548 0.0
C776 C 0.04023 0.55921 0.5983 0.0
C777 C 0.07957 0.59102 0.56209 0.0
N778 N 0.99598 0.46385 0.59624 0.0
N779 N 0.05178 0.55063 0.56382 0.0
H780 H 0.54409 0.12894 0.95422 0.0
H781 H 0.48602 0.89403 0.95445 0.0
H782 H 0.42607 0.02746 0.94648 0.0
H783 H 0.60366 0.99544 0.94556 0.0
H784 H 0.46379 0.94254 0.95901 0.0
H785 H 0.56641 0.08048 0.95856 0.0
C786 C 0.52279 0.09649 0.95385 0.0
C787 C 0.48324 0.08223 0.94983 0.0
C788 C 0.49456 0.95417 0.95631 0.0
C789 C 0.50848 0.02656 0.95467 0.0
C790 C 0.50727 0.92648 0.95386 0.0
C791 C 0.54668 0.94069 0.94945 0.0
C792 C 0.52153 0.9964 0.95457 0.0
C793 C 0.57292 0.98315 0.9487 0.0
C794 C 0.53554 0.06882 0.95617 0.0
C795 C 0.45692 0.03977 0.94934 0.0
N796 N 0.5599 1.00941 0.95111 0.0
N797 N 0.46999 0.01352 0.95161 0.0
H798 H 0.51786 0.60335 0.47114 0.0
H799 H 0.46175 0.40198 0.4126 0.0
H800 H 0.57806 0.62013 0.41462 0.0
H801 H 0.50337 0.42077 0.47411 0.0
H802 H 0.4884 0.47633 0.40961 0.0
H803 H 0.49251 0.52978 0.46917 0.0
C804 C 0.52481 0.59134 0.45801 0.0
C805 C 0.55022 0.618 0.44306 0.0
C806 C 0.492 0.46405 0.42364 0.0
C807 C 0.52097 0.53352 0.44064 0.0
C808 C 0.47707 0.42177 0.42532 0.0
C809 C 0.48009 0.40503 0.44369 0.0
C810 C 0.50906 0.48947 0.44062 0.0
C811 C 0.5001 0.43222 0.45973 0.0
C812 C 0.51069 0.54946 0.45701 0.0
C813 C 0.55847 0.60067 0.42643 0.0
N814 N 0.51291 0.47268 0.45799 0.0
N815 N 0.54394 0.5595 0.42564 0.0
H816 H 0.90321 0.47301 0.78452 0.0
H817 H 0.12994 0.55178 0.78545 0.0
H818 H 0.99079 0.59937 0.77468 0.0
H819 H 0.04282 0.42659 0.77243 0.0
H820 H 0.08019 0.57035 0.78056 0.0
H821 H 0.95325 0.45502 0.77915 0.0
C822 C 0.93267 0.49681 0.78052 0.0
C823 C 0.94259 0.53769 0.77961 0.0
C824 C 0.07209 0.53894 0.77829 0.0
C825 C 1.00072 0.51758 0.77446 0.0
C826 C 0.10068 0.52844 0.78084 0.0
C827 C 0.09078 0.48768 0.77893 0.0
C828 C 0.03295 0.50835 0.77431 0.0
C829 C 0.05185 0.45845 0.77375 0.0
C830 C 0.96142 0.48661 0.77769 0.0
C831 C 0.98176 0.56743 0.77521 0.0
N832 N 0.02434 0.46919 0.77194 0.0
N833 N 1.00939 0.55692 0.77311 0.0
H834 H 0.42962 0.92358 0.10791 0.0
H835 H 0.6188 0.07699 0.04539 0.0
H836 H 0.41316 0.94847 0.04623 0.0
H837 H 0.60025 0.09337 0.10816 0.0
H838 H 0.54856 0.02349 0.04266 0.0
H839 H 0.49868 0.97607 0.10555 0.0
C840 C 0.44063 0.93988 0.09375 0.0
C841 C 0.41525 0.93208 0.07738 0.0
C842 C 0.56007 0.03922 0.05692 0.0
C843 C 0.495 0.99254 0.07456 0.0
C844 C 0.6 0.06988 0.05847 0.0
C845 C 0.61577 0.08925 0.07716 0.0
C846 C 0.53619 0.02768 0.07425 0.0
C847 C 0.58991 0.07863 0.0936 0.0
C848 C 0.4801 0.96997 0.09245 0.0
C849 C 0.43164 0.9536 0.05924 0.0
N850 N 0.55185 0.04834 0.09183 0.0
N851 N 0.47057 0.9832 0.05832 0.0
H852 H 0.23173 0.32036 0.30766 0.0
H853 H 0.38568 0.2843 0.36779 0.0
H854 H 0.33506 0.33185 0.28038 0.0
H855 H 0.2757 0.25774 0.39373 0.0
H856 H 0.36738 0.30199 0.33601 0.0
H857 H 0.24693 0.29769 0.33914 0.0
C858 C 0.25758 0.31802 0.30821 0.0
C859 C 0.28218 0.3283 0.29117 0.0
C860 C 0.34708 0.29211 0.34858 0.0
C861 C 0.29988 0.30222 0.32752 0.0
C862 C 0.35737 0.2816 0.36685 0.0
C863 C 0.33206 0.26874 0.3837 0.0
C864 C 0.31119 0.29032 0.34687 0.0
C865 C 0.29641 0.26754 0.38137 0.0
C866 C 0.26618 0.30492 0.32625 0.0
C867 C 0.31494 0.32398 0.29291 0.0
N868 N 0.28711 0.27813 0.36338 0.0
N869 N 0.32292 0.31164 0.31071 0.0
H870 H 1.01242 0.32892 0.62174 0.0
H871 H 0.02485 0.2795 0.73921 0.0
H872 H 0.9247 0.21789 0.65082 0.0
H873 H 0.10649 0.3931 0.70988 0.0
H874 H 0.98853 0.25508 0.70714 0.0
H875 H 0.04901 0.35063 0.65357 0.0
C876 C 1.00103 0.30874 0.63469 0.0
C877 C 0.96516 0.27142 0.63338 0.0
C878 C 1.01449 0.28531 0.70775 0.0
C879 C 1.00696 0.29668 0.67038 0.0
C880 C 0.03517 0.29941 0.72614 0.0
C881 C 0.06933 0.33836 0.72742 0.0
C882 C 0.02785 0.31028 0.6904 0.0
C883 C 0.08107 0.36249 0.70974 0.0
C884 C 0.02183 0.3214 0.65301 0.0
C885 C 0.95185 0.24714 0.65101 0.0
N886 N 0.06058 0.34811 0.69213 0.0
N887 N 0.97259 0.26017 0.66867 0.0
H888 H 0.75548 0.95512 0.96608 0.0
H889 H 0.81374 0.07316 0.05471 0.0
H890 H 0.64181 0.93795 0.97738 0.0
H891 H 0.71602 0.08838 0.04338 0.0
H892 H 0.79117 0.02266 0.02725 0.0
H893 H 0.78252 1.00511 0.99379 0.0
C894 C 0.73639 0.96243 0.97424 0.0
C895 C 0.69652 0.94293 0.96923 0.0
C896 C 0.77459 0.037 0.03064 0.0
C897 C 0.72674 0.99888 1.0017 0.0
C898 C 0.78712 0.06525 0.04663 0.0
C899 C 0.76631 0.08439 0.05156 0.0
C900 C 0.74104 0.02791 0.01932 0.0
C901 C 0.73255 0.07383 0.04024 0.0
C902 C 0.75162 0.99041 0.99036 0.0
C903 C 0.67283 0.95276 0.98061 0.0
N904 N 0.72092 0.04629 0.02477 0.0
N905 N 0.68827 0.98009 0.99619 0.0
H906 H 0.72416 0.80913 0.37274 0.0
H907 H 0.72557 0.62815 0.31237 0.0
H908 H 0.6961 0.69488 0.39999 0.0
H909 H 0.76571 0.74625 0.28581 0.0
H910 H 0.71446 0.65245 0.34423 0.0
H911 H 0.73959 0.78738 0.341 0.0
C912 C 0.72138 0.77952 0.37215 0.0
C913 C 0.7086 0.75385 0.38926 0.0
C914 C 0.72586 0.67322 0.33151 0.0
C915 C 0.72626 0.72856 0.3526 0.0
C916 C 0.73253 0.65942 0.31319 0.0
C917 C 0.7473 0.68522 0.29616 0.0
C918 C 0.73358 0.71326 0.33311 0.0
C919 C 0.75424 0.72501 0.29833 0.0
C920 C 0.73031 0.76715 0.35395 0.0
C921 C 0.70618 0.71604 0.38742 0.0
N922 N 0.7474 0.73775 0.31639 0.0
N923 N 0.71459 0.70452 0.36948 0.0
H924 H 0.11421 0.73631 0.65435 0.0
H925 H 0.92905 0.70839 0.71635 0.0
H926 H 0.03326 0.76788 0.6298 0.0
H927 H 1.01478 0.68453 0.74155 0.0
H928 H 0.96708 0.73146 0.68499 0.0
H929 H 0.07868 0.71845 0.68629 0.0
C930 C 0.08924 0.74003 0.65564 0.0
C931 C 0.07731 0.75431 0.63913 0.0
C932 C 0.97775 0.72143 0.69739 0.0
C933 C 0.03547 0.73272 0.67613 0.0
C934 C 0.95597 0.70812 0.71538 0.0
C935 C 0.96843 0.69415 0.73177 0.0
C936 C 1.01245 0.72076 0.69554 0.0
C937 C 1.004 0.69526 0.72952 0.0
C938 C 0.0687 0.72945 0.67399 0.0
C939 C 0.04371 0.75694 0.64189 0.0
N940 N 0.02447 0.70796 0.71177 0.0
N941 N 0.02411 0.74633 0.65994 0.0
H942 H 0.22255 0.95576 0.05571 0.0
H943 H 0.38053 0.06803 0.96625 0.0
H944 H 0.31193 0.92897 0.04132 0.0
H945 H 0.28432 0.08616 0.97671 0.0
H946 H 0.35665 0.01787 0.99393 0.0
H947 H 0.24641 1.00592 0.028 0.0
C948 C 0.24784 0.96123 0.04704 0.0
C949 C 0.26592 0.93892 0.05115 0.0
C950 C 0.34046 0.03247 0.9901 0.0
C951 C 0.2927 0.99534 0.01888 0.0
C952 C 0.35393 0.06083 0.97417 0.0
C953 C 0.33411 0.08089 0.96907 0.0
C954 C 0.30701 0.02427 1.00121 0.0
C955 C 0.30019 0.07102 0.98006 0.0
C956 C 0.26115 0.98946 0.03102 0.0
C957 C 0.29763 0.94609 0.03889 0.0
N958 N 0.28787 0.04367 0.99563 0.0
N959 N 0.30998 0.97356 0.02339 0.0
H960 H 0.9823 0.34428 0.13171 0.0
H961 H 0.10662 0.29167 0.20841 0.0
H962 H 0.95303 0.22127 0.14431 0.0
H963 H 0.15092 0.41138 0.1833 0.0
H964 H 0.04631 0.26627 0.18838 0.0
H965 H 0.04053 0.37004 0.1532 0.0
C966 C 0.98804 0.32259 0.13897 0.0
C967 C 0.96244 0.28038 0.13604 0.0
C968 C 0.06904 0.29819 0.18737 0.0
C969 C 0.02945 0.30996 0.16105 0.0
C970 C 0.10331 0.31275 0.19896 0.0
C971 C 0.13387 0.35373 0.19759 0.0
C972 C 0.06488 0.32484 0.17441 0.0
C973 C 0.12808 0.37964 0.18493 0.0
C974 C 0.02145 0.3374 0.15125 0.0
C975 C 0.97193 0.25401 0.14584 0.0
N976 N 0.09447 0.36481 0.17386 0.0
N977 N 1.00435 0.26915 0.15794 0.0
H978 H 0.83238 0.09077 0.54525 0.0
H979 H 0.63883 0.91097 0.49361 0.0
H980 H 0.74018 0.11146 0.52802 0.0
H981 H 0.75306 0.93321 0.47835 0.0
H982 H 0.67019 0.97746 0.51119 0.0
H983 H 0.79854 0.02528 0.52697 0.0
C984 C 0.80463 0.08122 0.53795 0.0
C985 C 0.7893 0.10699 0.53826 0.0
C986 C 0.68837 0.9679 0.50386 0.0
C987 C 0.74985 0.03122 0.51734 0.0
C988 C 0.67047 0.93005 0.49365 0.0
C989 C 0.69322 0.91626 0.48428 0.0
C990 C 0.72946 0.99192 0.50535 0.0
C991 C 0.73424 0.94235 0.48528 0.0
C992 C 0.78548 0.04394 0.52735 0.0
C993 C 0.7531 0.09269 0.5284 0.0
N994 N 0.7509 0.97828 0.49584 0.0
N995 N 0.73462 0.05589 0.51847 0.0
H996 H 0.74923 0.60998 0.83603 0.0
H997 H 0.75137 0.80898 0.8766 0.0
H998 H 0.83325 0.73155 0.81586 0.0
H999 H 0.65365 0.68651 0.88543 0.0
H1000 H 0.78368 0.7815 0.85608 0.0
H1001 H 0.71499 0.63726 0.85509 0.0
C1002 C 0.76009 0.64237 0.83534 0.0
C1003 C 0.79404 0.66844 0.82416 0.0
C1004 C 0.75516 0.76061 0.8625 0.0
C1005 C 0.75549 0.70032 0.84654 0.0
C1006 C 0.73677 0.77629 0.87442 0.0
C1007 C 0.69952 0.75019 0.8829 0.0
C1008 C 0.73659 0.71831 0.85908 0.0
C1009 C 0.68208 0.70805 0.87914 0.0
C1010 C 0.74069 0.65803 0.84636 0.0
C1011 C 0.80709 0.71031 0.82414 0.0
N1012 N 0.70072 0.69354 0.86766 0.0
N1013 N 0.7881 0.72493 0.83526 0.0
H1014 H 0.87894 0.60988 0.18391 0.0
H1015 H 0.07928 0.8046 0.14468 0.0
H1016 H 0.92662 0.72976 0.20961 0.0
H1017 H 0.04867 0.68093 0.13265 0.0
H1018 H 0.02118 0.77833 0.16638 0.0
H1019 H 0.93892 0.63523 0.16378 0.0
C1020 C 0.90232 0.64141 0.18556 0.0
C1021 C 0.89769 0.66769 0.19854 0.0
C1022 C 0.02715 0.75692 0.15899 0.0
C1023 C 0.96634 0.69742 0.17499 0.0
C1024 C 0.0602 0.77191 0.1464 0.0
C1025 C 0.06916 0.74508 0.13668 0.0
C1026 C 1.00221 0.71459 0.16179 0.0
C1027 C 0.04335 0.70295 0.13987 0.0
C1028 C 0.93651 0.65598 0.17394 0.0
C1029 C 0.92893 0.70842 0.19984 0.0
N1030 N 1.01116 0.68911 0.15199 0.0
N1031 N 0.96158 0.7221 0.18809 0.0
H1032 H 0.24215 0.88882 0.50748 0.0
H1033 H 0.36535 0.13451 0.51484 0.0
H1034 H 0.26107 0.95335 0.5637 0.0
H1035 H 0.31814 0.07003 0.45877 0.0
H1036 H 0.3355 0.06894 0.53277 0.0
H1037 H 0.27755 0.95438 0.48953 0.0
C1038 C 0.25413 0.91684 0.51611 0.0
C1039 C 0.24836 0.91526 0.53722 0.0
C1040 C 0.33181 0.06897 0.51654 0.0
C1041 C 0.28954 0.99125 0.51656 0.0
C1042 C 0.34901 0.1065 0.50623 0.0
C1043 C 0.34429 0.1081 0.48517 0.0
C1044 C 0.30986 0.0321 0.50581 0.0
C1045 C 0.32281 0.07054 0.47493 0.0
C1046 C 0.27426 0.95437 0.5058 0.0
C1047 C 0.26481 0.95284 0.54749 0.0
N1048 N 0.30648 0.03433 0.48529 0.0
N1049 N 0.28449 0.98904 0.53713 0.0
H1050 H 0.19958 0.2923 0.81272 0.0
H1051 H 0.37929 0.3383 0.88595 0.0
H1052 H 0.28155 0.41188 0.83612 0.0
H1053 H 0.28161 0.21682 0.87473 0.0
H1054 H 0.34747 0.36592 0.86527 0.0
H1055 H 0.23304 0.26449 0.83222 0.0
C1056 C 0.22505 0.3128 0.8217 0.0
C1057 C 0.23785 0.35453 0.82267 0.0
C1058 C 0.3329 0.33322 0.86734 0.0
C1059 C 0.27634 0.32287 0.84526 0.0
C1060 C 0.35115 0.31732 0.87914 0.0
C1061 C 0.33327 0.27498 0.88222 0.0
C1062 C 0.29649 0.30676 0.85815 0.0
C1063 C 0.29648 0.24962 0.87305 0.0
C1064 C 0.24396 0.29688 0.83298 0.0
C1065 C 0.27084 0.37961 0.83475 0.0
N1066 N 0.27954 0.2658 0.8614 0.0
N1067 N 0.28883 0.36347 0.84552 0.0
loop_
_geom_bond_atom_site_label_1
_geom_bond_atom_site_label_2
_geom_bond_distance
_geom_bond_site_symmetry_2
_ccdc_geom_bond_type
C0 C1 1.443 . S
C0 N4 1.376 . S
C0 C38 1.389 . S
C1 C0 1.443 . S
C1 C2 1.340 . S
C1 H41 0.951 . S
C2 C1 1.340 . S
C2 C3 1.439 . S
C2 H42 0.950 . S
C3 C2 1.439 . S
C3 N4 1.374 . S
C3 C37 1.395 . S
N4 C0 1.376 . S
N4 C3 1.374 . S
N4 Co5 2.008 . S
Co5 N4 2.008 . S
Co5 N6 1.995 . S
Co5 N11 2.008 . S
Co5 N16 1.995 . S
Co5 N21 2.282 . S
Co5 N27 2.282 . S
N6 Co5 1.995 . S
N6 C7 1.376 . S
N6 C10 1.383 . S
C7 N6 1.376 . S
C7 C8 1.446 . S
C7 C37 1.391 . S
C8 C7 1.446 . S
C8 C9 1.339 . S
C8 H43 0.949 . S
C9 C8 1.339 . S
C9 C10 1.439 . S
C9 H44 0.950 . S
C10 N6 1.383 . S
C10 C9 1.439 . S
C10 C39 1.392 . S
N11 Co5 2.008 . S
N11 C12 1.376 . S
N11 C15 1.374 . S
C12 N11 1.376 . S
C12 C13 1.443 . S
C12 C39 1.389 . S
C13 C12 1.443 . S
C13 C14 1.340 . S
C13 H45 0.951 . S
C14 C13 1.340 . S
C14 C15 1.439 . S
C14 H46 0.950 . S
C15 N11 1.374 . S
C15 C14 1.439 . S
C15 C40 1.395 . S
N16 Co5 1.995 . S
N16 C17 1.376 . S
N16 C20 1.383 . S
C17 N16 1.376 . S
C17 C18 1.446 . S
C17 C40 1.391 . S
C18 C17 1.446 . S
C18 C19 1.339 . S
C18 H47 0.949 . S
C19 C18 1.339 . S
C19 C20 1.439 . S
C19 H48 0.950 . S
C20 N16 1.383 . S
C20 C19 1.439 . S
C20 C38 1.392 . S
N21 Co5 2.282 . S
N21 C24 1.332 . S
N21 C26 1.332 . S
C22 C23 1.386 . S
C22 C25 1.388 . S
C23 C22 1.386 . S
C23 C24 1.382 . S
C23 H49 0.950 . S
C24 N21 1.332 . S
C24 C23 1.382 . S
C24 H35 0.952 . S
C25 C22 1.388 . S
C25 C26 1.382 . S
C25 H50 0.950 . S
C26 N21 1.332 . S
C26 C25 1.382 . S
C26 H36 0.948 . S
N27 Co5 2.282 . S
N27 C31 1.332 . S
N27 C32 1.332 . S
C28 C29 1.388 . S
C28 C32 1.382 . S
C28 H51 0.950 . S
C29 C28 1.388 . S
C29 C30 1.386 . S
C30 C29 1.386 . S
C30 C31 1.382 . S
C30 H52 0.950 . S
C31 N27 1.332 . S
C31 C30 1.382 . S
C31 H33 0.952 . S
C32 N27 1.332 . S
C32 C28 1.382 . S
C32 H34 0.948 . S
H33 C31 0.952 . S
H34 C32 0.948 . S
H35 C24 0.952 . S
H36 C26 0.948 . S
C37 C3 1.395 . S
C37 C7 1.391 . S
C38 C0 1.389 . S
C38 C20 1.392 . S
C39 C10 1.392 . S
C39 C12 1.389 . S
C40 C15 1.395 . S
C40 C17 1.391 . S
H41 C1 0.951 . S
H42 C2 0.950 . S
H43 C8 0.949 . S
H44 C9 0.950 . S
H45 C13 0.951 . S
H46 C14 0.950 . S
H47 C18 0.949 . S
H48 C19 0.950 . S
H49 C23 0.950 . S
H50 C25 0.950 . S
H51 C28 0.950 . S
H52 C30 0.950 . S
C53 C54 1.443 . S
C53 N57 1.376 . S
C53 C91 1.389 . S
C54 C53 1.443 . S
C54 C55 1.340 . S
C54 H94 0.951 . S
C55 C54 1.340 . S
C55 C56 1.439 . S
C55 H95 0.950 . S
C56 C55 1.439 . S
C56 N57 1.374 . S
C56 C90 1.395 . S
N57 C53 1.376 . S
N57 C56 1.374 . S
N57 Co58 2.008 . S
Co58 N57 2.008 . S
Co58 N59 1.995 . S
Co58 N64 2.008 . S
Co58 N69 1.995 . S
Co58 N74 2.282 . S
Co58 N80 2.282 . S
N59 Co58 1.995 . S
N59 C60 1.376 . S
N59 C63 1.383 . S
C60 N59 1.376 . S
C60 C61 1.446 . S
C60 C90 1.391 . S
C61 C60 1.446 . S
C61 C62 1.339 . S
C61 H96 0.949 . S
C62 C61 1.339 . S
C62 C63 1.439 . S
C62 H97 0.950 . S
C63 N59 1.383 . S
C63 C62 1.439 . S
C63 C92 1.392 . S
N64 Co58 2.008 . S
N64 C65 1.376 . S
N64 C68 1.374 . S
C65 N64 1.376 . S
C65 C66 1.443 . S
C65 C92 1.389 . S
C66 C65 1.443 . S
C66 C67 1.340 . S
C66 H98 0.951 . S
C67 C66 1.340 . S
C67 C68 1.439 . S
C67 H99 0.950 . S
C68 N64 1.374 . S
C68 C67 1.439 . S
C68 C93 1.395 . S
N69 Co58 1.995 . S
N69 C70 1.376 . S
N69 C73 1.383 . S
C70 N69 1.376 . S
C70 C71 1.446 . S
C70 C93 1.391 . S
C71 C70 1.446 . S
C71 C72 1.339 . S
C71 H100 0.949 . S
C72 C71 1.339 . S
C72 C73 1.439 . S
C72 H101 0.950 . S
C73 N69 1.383 . S
C73 C72 1.439 . S
C73 C91 1.392 . S
N74 Co58 2.282 . S
N74 C77 1.332 . S
N74 C79 1.332 . S
C75 C76 1.386 . S
C75 C78 1.388 . S
C76 C75 1.386 . S
C76 C77 1.382 . S
C76 H102 0.950 . S
C77 N74 1.332 . S
C77 C76 1.382 . S
C77 H88 0.952 . S
C78 C75 1.388 . S
C78 C79 1.382 . S
C78 H103 0.950 . S
C79 N74 1.332 . S
C79 C78 1.382 . S
C79 H89 0.948 . S
N80 Co58 2.282 . S
N80 C84 1.332 . S
N80 C85 1.332 . S
C81 C82 1.388 . S
C81 C85 1.382 . S
C81 H104 0.950 . S
C82 C81 1.388 . S
C82 C83 1.386 . S
C83 C82 1.386 . S
C83 C84 1.382 . S
C83 H105 0.950 . S
C84 N80 1.332 . S
C84 C83 1.382 . S
C84 H86 0.952 . S
C85 N80 1.332 . S
C85 C81 1.382 . S
C85 H87 0.948 . S
H86 C84 0.952 . S
H87 C85 0.948 . S
H88 C77 0.952 . S
H89 C79 0.948 . S
C90 C56 1.395 . S
C90 C60 1.391 . S
C91 C53 1.389 . S
C91 C73 1.392 . S
C92 C63 1.392 . S
C92 C65 1.389 . S
C93 C68 1.395 . S
C93 C70 1.391 . S
H94 C54 0.951 . S
H95 C55 0.950 . S
H96 C61 0.949 . S
H97 C62 0.950 . S
H98 C66 0.951 . S
H99 C67 0.950 . S
H100 C71 0.949 . S
H101 C72 0.950 . S
H102 C76 0.950 . S
H103 C78 0.950 . S
H104 C81 0.950 . S
H105 C83 0.950 . S
C106 C107 1.443 . S
C106 N110 1.376 . S
C106 C144 1.389 . S
C107 C106 1.443 . S
C107 C108 1.340 . S
C107 H147 0.951 . S
C108 C107 1.340 . S
C108 C109 1.439 . S
C108 H148 0.950 . S
C109 C108 1.439 . S
C109 N110 1.374 . S
C109 C143 1.395 . S
N110 C106 1.376 . S
N110 C109 1.374 . S
N110 Co111 2.008 . S
Co111 N110 2.008 . S
Co111 N112 1.995 . S
Co111 N117 2.008 . S
Co111 N122 1.995 . S
Co111 N127 2.282 . S
Co111 N133 2.282 . S
N112 Co111 1.995 . S
N112 C113 1.376 . S
N112 C116 1.383 . S
C113 N112 1.376 . S
C113 C114 1.446 . S
C113 C143 1.391 . S
C114 C113 1.446 . S
C114 C115 1.339 . S
C114 H149 0.949 . S
C115 C114 1.339 . S
C115 C116 1.439 . S
C115 H150 0.950 . S
C116 N112 1.383 . S
C116 C115 1.439 . S
C116 C145 1.392 . S
N117 Co111 2.008 . S
N117 C118 1.376 . S
N117 C121 1.374 . S
C118 N117 1.376 . S
C118 C119 1.443 . S
C118 C145 1.389 . S
C119 C118 1.443 . S
C119 C120 1.340 . S
C119 H151 0.951 . S
C120 C119 1.340 . S
C120 C121 1.439 . S
C120 H152 0.950 . S
C121 N117 1.374 . S
C121 C120 1.439 . S
C121 C146 1.395 . S
N122 Co111 1.995 . S
N122 C123 1.376 . S
N122 C126 1.383 . S
C123 N122 1.376 . S
C123 C124 1.446 . S
C123 C146 1.391 . S
C124 C123 1.446 . S
C124 C125 1.339 . S
C124 H153 0.949 . S
C125 C124 1.339 . S
C125 C126 1.439 . S
C125 H154 0.950 . S
C126 N122 1.383 . S
C126 C125 1.439 . S
C126 C144 1.392 . S
N127 Co111 2.282 . S
N127 C130 1.332 . S
N127 C132 1.332 . S
C128 C129 1.386 . S
C128 C131 1.388 . S
C129 C128 1.386 . S
C129 C130 1.382 . S
C129 H155 0.950 . S
C130 N127 1.332 . S
C130 C129 1.382 . S
C130 H141 0.952 . S
C131 C128 1.388 . S
C131 C132 1.382 . S
C131 H156 0.950 . S
C132 N127 1.332 . S
C132 C131 1.382 . S
C132 H142 0.948 . S
N133 Co111 2.282 . S
N133 C137 1.332 . S
N133 C138 1.332 . S
C134 C135 1.388 . S
C134 C138 1.382 . S
C134 H157 0.950 . S
C135 C134 1.388 . S
C135 C136 1.386 . S
C136 C135 1.386 . S
C136 C137 1.382 . S
C136 H158 0.950 . S
C137 N133 1.332 . S
C137 C136 1.382 . S
C137 H139 0.952 . S
C138 N133 1.332 . S
C138 C134 1.382 . S
C138 H140 0.948 . S
H139 C137 0.952 . S
H140 C138 0.948 . S
H141 C130 0.952 . S
H142 C132 0.948 . S
C143 C109 1.395 . S
C143 C113 1.391 . S
C144 C106 1.389 . S
C144 C126 1.392 . S
C145 C116 1.392 . S
C145 C118 1.389 . S
C146 C121 1.395 . S
C146 C123 1.391 . S
H147 C107 0.951 . S
H148 C108 0.950 . S
H149 C114 0.949 . S
H150 C115 0.950 . S
H151 C119 0.951 . S
H152 C120 0.950 . S
H153 C124 0.949 . S
H154 C125 0.950 . S
H155 C129 0.950 . S
H156 C131 0.950 . S
H157 C134 0.950 . S
H158 C136 0.950 . S
C159 C160 1.443 . S
C159 N163 1.376 . S
C159 C197 1.389 . S
C160 C159 1.443 . S
C160 C161 1.340 . S
C160 H200 0.951 . S
C161 C160 1.340 . S
C161 C162 1.439 . S
C161 H201 0.950 . S
C162 C161 1.439 . S
C162 N163 1.374 . S
C162 C196 1.395 . S
N163 C159 1.376 . S
N163 C162 1.374 . S
N163 Co164 2.008 . S
Co164 N163 2.008 . S
Co164 N165 1.995 . S
Co164 N170 2.008 . S
Co164 N175 1.995 . S
Co164 N180 2.282 . S
Co164 N186 2.282 . S
N165 Co164 1.995 . S
N165 C166 1.376 . S
N165 C169 1.383 . S
C166 N165 1.376 . S
C166 C167 1.446 . S
C166 C196 1.391 . S
C167 C166 1.446 . S
C167 C168 1.339 . S
C167 H202 0.949 . S
C168 C167 1.339 . S
C168 C169 1.439 . S
C168 H203 0.950 . S
C169 N165 1.383 . S
C169 C168 1.439 . S
C169 C198 1.392 . S
N170 Co164 2.008 . S
N170 C171 1.376 . S
N170 C174 1.374 . S
C171 N170 1.376 . S
C171 C172 1.443 . S
C171 C198 1.389 . S
C172 C171 1.443 . S
C172 C173 1.340 . S
C172 H204 0.951 . S
C173 C172 1.340 . S
C173 C174 1.439 . S
C173 H205 0.950 . S
C174 N170 1.374 . S
C174 C173 1.439 . S
C174 C199 1.395 . S
N175 Co164 1.995 . S
N175 C176 1.376 . S
N175 C179 1.383 . S
C176 N175 1.376 . S
C176 C177 1.446 . S
C176 C199 1.391 . S
C177 C176 1.446 . S
C177 C178 1.339 . S
C177 H206 0.949 . S
C178 C177 1.339 . S
C178 C179 1.439 . S
C178 H207 0.950 . S
C179 N175 1.383 . S
C179 C178 1.439 . S
C179 C197 1.392 . S
N180 Co164 2.282 . S
N180 C183 1.332 . S
N180 C185 1.332 . S
C181 C182 1.386 . S
C181 C184 1.388 . S
C182 C181 1.386 . S
C182 C183 1.382 . S
C182 H208 0.950 . S
C183 N180 1.332 . S
C183 C182 1.382 . S
C183 H194 0.952 . S
C184 C181 1.388 . S
C184 C185 1.382 . S
C184 H209 0.950 . S
C185 N180 1.332 . S
C185 C184 1.382 . S
C185 H195 0.948 . S
N186 Co164 2.282 . S
N186 C190 1.332 . S
N186 C191 1.332 . S
C187 C188 1.388 . S
C187 C191 1.382 . S
C187 H210 0.950 . S
C188 C187 1.388 . S
C188 C189 1.386 . S
C189 C188 1.386 . S
C189 C190 1.382 . S
C189 H211 0.950 . S
C190 N186 1.332 . S
C190 C189 1.382 . S
C190 H192 0.952 . S
C191 N186 1.332 . S
C191 C187 1.382 . S
C191 H193 0.948 . S
H192 C190 0.952 . S
H193 C191 0.948 . S
H194 C183 0.952 . S
H195 C185 0.948 . S
C196 C162 1.395 . S
C196 C166 1.391 . S
C197 C159 1.389 . S
C197 C179 1.392 . S
C198 C169 1.392 . S
C198 C171 1.389 . S
C199 C174 1.395 . S
C199 C176 1.391 . S
H200 C160 0.951 . S
H201 C161 0.950 . S
H202 C167 0.949 . S
H203 C168 0.950 . S
H204 C172 0.951 . S
H205 C173 0.950 . S
H206 C177 0.949 . S
H207 C178 0.950 . S
H208 C182 0.950 . S
H209 C184 0.950 . S
H210 C187 0.950 . S
H211 C189 0.950 . S
C212 C213 1.443 . S
C212 N216 1.376 . S
C212 C250 1.389 . S
C213 C212 1.443 . S
C213 C214 1.340 . S
C213 H253 0.951 . S
C214 C213 1.340 . S
C214 C215 1.439 . S
C214 H254 0.950 . S
C215 C214 1.439 . S
C215 N216 1.374 . S
C215 C249 1.395 . S
N216 C212 1.376 . S
N216 C215 1.374 . S
N216 Co217 2.008 . S
Co217 N216 2.008 . S
Co217 N218 1.995 . S
Co217 N223 2.008 . S
Co217 N228 1.995 . S
Co217 N233 2.282 . S
Co217 N239 2.282 . S
N218 Co217 1.995 . S
N218 C219 1.376 . S
N218 C222 1.383 . S
C219 N218 1.376 . S
C219 C220 1.446 . S
C219 C249 1.391 . S
C220 C219 1.446 . S
C220 C221 1.339 . S
C220 H255 0.949 . S
C221 C220 1.339 . S
C221 C222 1.439 . S
C221 H256 0.950 . S
C222 N218 1.383 . S
C222 C221 1.439 . S
C222 C251 1.392 . S
N223 Co217 2.008 . S
N223 C224 1.376 . S
N223 C227 1.374 . S
C224 N223 1.376 . S
C224 C225 1.443 . S
C224 C251 1.389 . S
C225 C224 1.443 . S
C225 C226 1.340 . S
C225 H257 0.951 . S
C226 C225 1.340 . S
C226 C227 1.439 . S
C226 H258 0.950 . S
C227 N223 1.374 . S
C227 C226 1.439 . S
C227 C252 1.395 . S
N228 Co217 1.995 . S
N228 C229 1.376 . S
N228 C232 1.383 . S
C229 N228 1.376 . S
C229 C230 1.446 . S
C229 C252 1.391 . S
C230 C229 1.446 . S
C230 C231 1.339 . S
C230 H259 0.949 . S
C231 C230 1.339 . S
C231 C232 1.439 . S
C231 H260 0.950 . S
C232 N228 1.383 . S
C232 C231 1.439 . S
C232 C250 1.392 . S
N233 Co217 2.282 . S
N233 C236 1.332 . S
N233 C238 1.332 . S
C234 C235 1.386 . S
C234 C237 1.388 . S
C235 C234 1.386 . S
C235 C236 1.382 . S
C235 H261 0.950 . S
C236 N233 1.332 . S
C236 C235 1.382 . S
C236 H247 0.952 . S
C237 C234 1.388 . S
C237 C238 1.382 . S
C237 H262 0.950 . S
C238 N233 1.332 . S
C238 C237 1.382 . S
C238 H248 0.948 . S
N239 Co217 2.282 . S
N239 C243 1.332 . S
N239 C244 1.332 . S
C240 C241 1.388 . S
C240 C244 1.382 . S
C240 H263 0.950 . S
C241 C240 1.388 . S
C241 C242 1.386 . S
C242 C241 1.386 . S
C242 C243 1.382 . S
C242 H264 0.950 . S
C243 N239 1.332 . S
C243 C242 1.382 . S
C243 H245 0.952 . S
C244 N239 1.332 . S
C244 C240 1.382 . S
C244 H246 0.948 . S
H245 C243 0.952 . S
H246 C244 0.948 . S
H247 C236 0.952 . S
H248 C238 0.948 . S
C249 C215 1.395 . S
C249 C219 1.391 . S
C250 C212 1.389 . S
C250 C232 1.392 . S
C251 C222 1.392 . S
C251 C224 1.389 . S
C252 C227 1.395 . S
C252 C229 1.391 . S
H253 C213 0.951 . S
H254 C214 0.950 . S
H255 C220 0.949 . S
H256 C221 0.950 . S
H257 C225 0.951 . S
H258 C226 0.950 . S
H259 C230 0.949 . S
H260 C231 0.950 . S
H261 C235 0.950 . S
H262 C237 0.950 . S
H263 C240 0.950 . S
H264 C242 0.950 . S
C265 C266 1.443 . S
C265 N269 1.376 . S
C265 C303 1.389 . S
C266 C265 1.443 . S
C266 C267 1.340 . S
C266 H306 0.951 . S
C267 C266 1.340 . S
C267 C268 1.439 . S
C267 H307 0.950 . S
C268 C267 1.439 . S
C268 N269 1.374 . S
C268 C302 1.395 . S
N269 C265 1.376 . S
N269 C268 1.374 . S
N269 Co270 2.008 . S
Co270 N269 2.008 . S
Co270 N271 1.995 . S
Co270 N276 2.008 . S
Co270 N281 1.995 . S
Co270 N286 2.282 . S
Co270 N292 2.282 . S
N271 Co270 1.995 . S
N271 C272 1.376 . S
N271 C275 1.383 . S
C272 N271 1.376 . S
C272 C273 1.446 . S
C272 C302 1.391 . S
C273 C272 1.446 . S
C273 C274 1.339 . S
C273 H308 0.949 . S
C274 C273 1.339 . S
C274 C275 1.439 . S
C274 H309 0.950 . S
C275 N271 1.383 . S
C275 C274 1.439 . S
C275 C304 1.392 . S
N276 Co270 2.008 . S
N276 C277 1.376 . S
N276 C280 1.374 . S
C277 N276 1.376 . S
C277 C278 1.443 . S
C277 C304 1.389 . S
C278 C277 1.443 . S
C278 C279 1.340 . S
C278 H310 0.951 . S
C279 C278 1.340 . S
C279 C280 1.439 . S
C279 H311 0.950 . S
C280 N276 1.374 . S
C280 C279 1.439 . S
C280 C305 1.395 . S
N281 Co270 1.995 . S
N281 C282 1.376 . S
N281 C285 1.383 . S
C282 N281 1.376 . S
C282 C283 1.446 . S
C282 C305 1.391 . S
C283 C282 1.446 . S
C283 C284 1.339 . S
C283 H312 0.949 . S
C284 C283 1.339 . S
C284 C285 1.439 . S
C284 H313 0.950 . S
C285 N281 1.383 . S
C285 C284 1.439 . S
C285 C303 1.392 . S
N286 Co270 2.282 . S
N286 C289 1.332 . S
N286 C291 1.332 . S
C287 C288 1.386 . S
C287 C290 1.388 . S
C288 C287 1.386 . S
C288 C289 1.382 . S
C288 H314 0.950 . S
C289 N286 1.332 . S
C289 C288 1.382 . S
C289 H300 0.952 . S
C290 C287 1.388 . S
C290 C291 1.382 . S
C290 H315 0.950 . S
C291 N286 1.332 . S
C291 C290 1.382 . S
C291 H301 0.948 . S
N292 Co270 2.282 . S
N292 C296 1.332 . S
N292 C297 1.332 . S
C293 C294 1.388 . S
C293 C297 1.382 . S
C293 H316 0.950 . S
C294 C293 1.388 . S
C294 C295 1.386 . S
C295 C294 1.386 . S
C295 C296 1.382 . S
C295 H317 0.950 . S
C296 N292 1.332 . S
C296 C295 1.382 . S
C296 H298 0.952 . S
C297 N292 1.332 . S
C297 C293 1.382 . S
C297 H299 0.948 . S
H298 C296 0.952 . S
H299 C297 0.948 . S
H300 C289 0.952 . S
H301 C291 0.948 . S
C302 C268 1.395 . S
C302 C272 1.391 . S
C303 C265 1.389 . S
C303 C285 1.392 . S
C304 C275 1.392 . S
C304 C277 1.389 . S
C305 C280 1.395 . S
C305 C282 1.391 . S
H306 C266 0.951 . S
H307 C267 0.950 . S
H308 C273 0.949 . S
H309 C274 0.950 . S
H310 C278 0.951 . S
H311 C279 0.950 . S
H312 C283 0.949 . S
H313 C284 0.950 . S
H314 C288 0.950 . S
H315 C290 0.950 . S
H316 C293 0.950 . S
H317 C295 0.950 . S
C318 C319 1.443 . S
C318 N322 1.376 . S
C318 C356 1.389 . S
C319 C318 1.443 . S
C319 C320 1.340 . S
C319 H359 0.951 . S
C320 C319 1.340 . S
C320 C321 1.439 . S
C320 H360 0.950 . S
C321 C320 1.439 . S
C321 N322 1.374 . S
C321 C355 1.395 . S
N322 C318 1.376 . S
N322 C321 1.374 . S
N322 Co323 2.008 . S
Co323 N322 2.008 . S
Co323 N324 1.995 . S
Co323 N329 2.008 . S
Co323 N334 1.995 . S
Co323 N339 2.282 . S
Co323 N345 2.282 . S
N324 Co323 1.995 . S
N324 C325 1.376 . S
N324 C328 1.383 . S
C325 N324 1.376 . S
C325 C326 1.446 . S
C325 C355 1.391 . S
C326 C325 1.446 . S
C326 C327 1.339 . S
C326 H361 0.949 . S
C327 C326 1.339 . S
C327 C328 1.439 . S
C327 H362 0.950 . S
C328 N324 1.383 . S
C328 C327 1.439 . S
C328 C357 1.392 . S
N329 Co323 2.008 . S
N329 C330 1.376 . S
N329 C333 1.374 . S
C330 N329 1.376 . S
C330 C331 1.443 . S
C330 C357 1.389 . S
C331 C330 1.443 . S
C331 C332 1.340 . S
C331 H363 0.951 . S
C332 C331 1.340 . S
C332 C333 1.439 . S
C332 H364 0.950 . S
C333 N329 1.374 . S
C333 C332 1.439 . S
C333 C358 1.395 . S
N334 Co323 1.995 . S
N334 C335 1.376 . S
N334 C338 1.383 . S
C335 N334 1.376 . S
C335 C336 1.446 . S
C335 C358 1.391 . S
C336 C335 1.446 . S
C336 C337 1.339 . S
C336 H365 0.949 . S
C337 C336 1.339 . S
C337 C338 1.439 . S
C337 H366 0.950 . S
C338 N334 1.383 . S
C338 C337 1.439 . S
C338 C356 1.392 . S
N339 Co323 2.282 . S
N339 C342 1.332 . S
N339 C344 1.332 . S
C340 C341 1.386 . S
C340 C343 1.388 . S
C341 C340 1.386 . S
C341 C342 1.382 . S
C341 H367 0.950 . S
C342 N339 1.332 . S
C342 C341 1.382 . S
C342 H353 0.952 . S
C343 C340 1.388 . S
C343 C344 1.382 . S
C343 H368 0.950 . S
C344 N339 1.332 . S
C344 C343 1.382 . S
C344 H354 0.948 . S
N345 Co323 2.282 . S
N345 C349 1.332 . S
N345 C350 1.332 . S
C346 C347 1.388 . S
C346 C350 1.382 . S
C346 H369 0.950 . S
C347 C346 1.388 . S
C347 C348 1.386 . S
C348 C347 1.386 . S
C348 C349 1.382 . S
C348 H370 0.950 . S
C349 N345 1.332 . S
C349 C348 1.382 . S
C349 H351 0.952 . S
C350 N345 1.332 . S
C350 C346 1.382 . S
C350 H352 0.948 . S
H351 C349 0.952 . S
H352 C350 0.948 . S
H353 C342 0.952 . S
H354 C344 0.948 . S
C355 C321 1.395 . S
C355 C325 1.391 . S
C356 C318 1.389 . S
C356 C338 1.392 . S
C357 C328 1.392 . S
C357 C330 1.389 . S
C358 C333 1.395 . S
C358 C335 1.391 . S
H359 C319 0.951 . S
H360 C320 0.950 . S
H361 C326 0.949 . S
H362 C327 0.950 . S
H363 C331 0.951 . S
H364 C332 0.950 . S
H365 C336 0.949 . S
H366 C337 0.950 . S
H367 C341 0.950 . S
H368 C343 0.950 . S
H369 C346 0.950 . S
H370 C348 0.950 . S
C371 C372 1.443 . S
C371 N375 1.376 . S
C371 C409 1.389 . S
C372 C371 1.443 . S
C372 C373 1.340 . S
C372 H412 0.951 . S
C373 C372 1.340 . S
C373 C374 1.439 . S
C373 H413 0.950 . S
C374 C373 1.439 . S
C374 N375 1.374 . S
C374 C408 1.395 . S
N375 C371 1.376 . S
N375 C374 1.374 . S
N375 Co376 2.008 . S
Co376 N375 2.008 . S
Co376 N377 1.995 . S
Co376 N382 2.008 . S
Co376 N387 1.995 . S
Co376 N392 2.282 . S
Co376 N398 2.282 . S
N377 Co376 1.995 . S
N377 C378 1.376 . S
N377 C381 1.383 . S
C378 N377 1.376 . S
C378 C379 1.446 . S
C378 C408 1.391 . S
C379 C378 1.446 . S
C379 C380 1.339 . S
C379 H414 0.949 . S
C380 C379 1.339 . S
C380 C381 1.439 . S
C380 H415 0.950 . S
C381 N377 1.383 . S
C381 C380 1.439 . S
C381 C410 1.392 . S
N382 Co376 2.008 . S
N382 C383 1.376 . S
N382 C386 1.374 . S
C383 N382 1.376 . S
C383 C384 1.443 . S
C383 C410 1.389 . S
C384 C383 1.443 . S
C384 C385 1.340 . S
C384 H416 0.951 . S
C385 C384 1.340 . S
C385 C386 1.439 . S
C385 H417 0.950 . S
C386 N382 1.374 . S
C386 C385 1.439 . S
C386 C411 1.395 . S
N387 Co376 1.995 . S
N387 C388 1.376 . S
N387 C391 1.383 . S
C388 N387 1.376 . S
C388 C389 1.446 . S
C388 C411 1.391 . S
C389 C388 1.446 . S
C389 C390 1.339 . S
C389 H418 0.949 . S
C390 C389 1.339 . S
C390 C391 1.439 . S
C390 H419 0.950 . S
C391 N387 1.383 . S
C391 C390 1.439 . S
C391 C409 1.392 . S
N392 Co376 2.282 . S
N392 C395 1.332 . S
N392 C397 1.332 . S
C393 C394 1.386 . S
C393 C396 1.388 . S
C394 C393 1.386 . S
C394 C395 1.382 . S
C394 H420 0.950 . S
C395 N392 1.332 . S
C395 C394 1.382 . S
C395 H406 0.952 . S
C396 C393 1.388 . S
C396 C397 1.382 . S
C396 H421 0.950 . S
C397 N392 1.332 . S
C397 C396 1.382 . S
C397 H407 0.948 . S
N398 Co376 2.282 . S
N398 C402 1.332 . S
N398 C403 1.332 . S
C399 C400 1.388 . S
C399 C403 1.382 . S
C399 H422 0.950 . S
C400 C399 1.388 . S
C400 C401 1.386 . S
C401 C400 1.386 . S
C401 C402 1.382 . S
C401 H423 0.950 . S
C402 N398 1.332 . S
C402 C401 1.382 . S
C402 H404 0.952 . S
C403 N398 1.332 . S
C403 C399 1.382 . S
C403 H405 0.948 . S
H404 C402 0.952 . S
H405 C403 0.948 . S
H406 C395 0.952 . S
H407 C397 0.948 . S
C408 C374 1.395 . S
C408 C378 1.391 . S
C409 C371 1.389 . S
C409 C391 1.392 . S
C410 C381 1.392 . S
C410 C383 1.389 . S
C411 C386 1.395 . S
C411 C388 1.391 . S
H412 C372 0.951 . S
H413 C373 0.950 . S
H414 C379 0.949 . S
H415 C380 0.950 . S
H416 C384 0.951 . S
H417 C385 0.950 . S
H418 C389 0.949 . S
H419 C390 0.950 . S
H420 C394 0.950 . S
H421 C396 0.950 . S
H422 C399 0.950 . S
H423 C401 0.950 . S
C424 C425 1.443 . S
C424 N428 1.376 . S
C424 C462 1.389 . S
C425 C424 1.443 . S
C425 C426 1.340 . S
C425 H465 0.951 . S
C426 C425 1.340 . S
C426 C427 1.439 . S
C426 H466 0.950 . S
C427 C426 1.439 . S
C427 N428 1.374 . S
C427 C461 1.395 . S
N428 C424 1.376 . S
N428 C427 1.374 . S
N428 Co429 2.008 . S
Co429 N428 2.008 . S
Co429 N430 1.995 . S
Co429 N435 2.008 . S
Co429 N440 1.995 . S
Co429 N445 2.282 . S
Co429 N451 2.282 . S
N430 Co429 1.995 . S
N430 C431 1.376 . S
N430 C434 1.383 . S
C431 N430 1.376 . S
C431 C432 1.446 . S
C431 C461 1.391 . S
C432 C431 1.446 . S
C432 C433 1.339 . S
C432 H467 0.949 . S
C433 C432 1.339 . S
C433 C434 1.439 . S
C433 H468 0.950 . S
C434 N430 1.383 . S
C434 C433 1.439 . S
C434 C463 1.392 . S
N435 Co429 2.008 . S
N435 C436 1.376 . S
N435 C439 1.374 . S
C436 N435 1.376 . S
C436 C437 1.443 . S
C436 C463 1.389 . S
C437 C436 1.443 . S
C437 C438 1.340 . S
C437 H469 0.951 . S
C438 C437 1.340 . S
C438 C439 1.439 . S
C438 H470 0.950 . S
C439 N435 1.374 . S
C439 C438 1.439 . S
C439 C464 1.395 . S
N440 Co429 1.995 . S
N440 C441 1.376 . S
N440 C444 1.383 . S
C441 N440 1.376 . S
C441 C442 1.446 . S
C441 C464 1.391 . S
C442 C441 1.446 . S
C442 C443 1.339 . S
C442 H471 0.949 . S
C443 C442 1.339 . S
C443 C444 1.439 . S
C443 H472 0.950 . S
C444 N440 1.383 . S
C444 C443 1.439 . S
C444 C462 1.392 . S
N445 Co429 2.282 . S
N445 C448 1.332 . S
N445 C450 1.332 . S
C446 C447 1.386 . S
C446 C449 1.388 . S
C447 C446 1.386 . S
C447 C448 1.382 . S
C447 H473 0.950 . S
C448 N445 1.332 . S
C448 C447 1.382 . S
C448 H459 0.952 . S
C449 C446 1.388 . S
C449 C450 1.382 . S
C449 H474 0.950 . S
C450 N445 1.332 . S
C450 C449 1.382 . S
C450 H460 0.948 . S
N451 Co429 2.282 . S
N451 C455 1.332 . S
N451 C456 1.332 . S
C452 C453 1.388 . S
C452 C456 1.382 . S
C452 H475 0.950 . S
C453 C452 1.388 . S
C453 C454 1.386 . S
C454 C453 1.386 . S
C454 C455 1.382 . S
C454 H476 0.950 . S
C455 N451 1.332 . S
C455 C454 1.382 . S
C455 H457 0.952 . S
C456 N451 1.332 . S
C456 C452 1.382 . S
C456 H458 0.948 . S
H457 C455 0.952 . S
H458 C456 0.948 . S
H459 C448 0.952 . S
H460 C450 0.948 . S
C461 C427 1.395 . S
C461 C431 1.391 . S
C462 C424 1.389 . S
C462 C444 1.392 . S
C463 C434 1.392 . S
C463 C436 1.389 . S
C464 C439 1.395 . S
C464 C441 1.391 . S
H465 C425 0.951 . S
H466 C426 0.950 . S
H467 C432 0.949 . S
H468 C433 0.950 . S
H469 C437 0.951 . S
H470 C438 0.950 . S
H471 C442 0.949 . S
H472 C443 0.950 . S
H473 C447 0.950 . S
H474 C449 0.950 . S
H475 C452 0.950 . S
H476 C454 0.950 . S
C477 C478 1.443 . S
C477 N481 1.376 . S
C477 C515 1.389 . S
C478 C477 1.443 . S
C478 C479 1.340 . S
C478 H518 0.951 . S
C479 C478 1.340 . S
C479 C480 1.439 . S
C479 H519 0.950 . S
C480 C479 1.439 . S
C480 N481 1.374 . S
C480 C514 1.395 . S
N481 C477 1.376 . S
N481 C480 1.374 . S
N481 Co482 2.008 . S
Co482 N481 2.008 . S
Co482 N483 1.995 . S
Co482 N488 2.008 . S
Co482 N493 1.995 . S
Co482 N498 2.282 . S
Co482 N504 2.282 . S
N483 Co482 1.995 . S
N483 C484 1.376 . S
N483 C487 1.383 . S
C484 N483 1.376 . S
C484 C485 1.446 . S
C484 C514 1.391 . S
C485 C484 1.446 . S
C485 C486 1.339 . S
C485 H520 0.949 . S
C486 C485 1.339 . S
C486 C487 1.439 . S
C486 H521 0.950 . S
C487 N483 1.383 . S
C487 C486 1.439 . S
C487 C516 1.392 . S
N488 Co482 2.008 . S
N488 C489 1.376 . S
N488 C492 1.374 . S
C489 N488 1.376 . S
C489 C490 1.443 . S
C489 C516 1.389 . S
C490 C489 1.443 . S
C490 C491 1.340 . S
C490 H522 0.951 . S
C491 C490 1.340 . S
C491 C492 1.439 . S
C491 H523 0.950 . S
C492 N488 1.374 . S
C492 C491 1.439 . S
C492 C517 1.395 . S
N493 Co482 1.995 . S
N493 C494 1.376 . S
N493 C497 1.383 . S
C494 N493 1.376 . S
C494 C495 1.446 . S
C494 C517 1.391 . S
C495 C494 1.446 . S
C495 C496 1.339 . S
C495 H524 0.949 . S
C496 C495 1.339 . S
C496 C497 1.439 . S
C496 H525 0.950 . S
C497 N493 1.383 . S
C497 C496 1.439 . S
C497 C515 1.392 . S
N498 Co482 2.282 . S
N498 C501 1.332 . S
N498 C503 1.332 . S
C499 C500 1.386 . S
C499 C502 1.388 . S
C500 C499 1.386 . S
C500 C501 1.382 . S
C500 H526 0.950 . S
C501 N498 1.332 . S
C501 C500 1.382 . S
C501 H512 0.952 . S
C502 C499 1.388 . S
C502 C503 1.382 . S
C502 H527 0.950 . S
C503 N498 1.332 . S
C503 C502 1.382 . S
C503 H513 0.948 . S
N504 Co482 2.282 . S
N504 C508 1.332 . S
N504 C509 1.332 . S
C505 C506 1.388 . S
C505 C509 1.382 . S
C505 H528 0.950 . S
C506 C505 1.388 . S
C506 C507 1.386 . S
C507 C506 1.386 . S
C507 C508 1.382 . S
C507 H529 0.950 . S
C508 N504 1.332 . S
C508 C507 1.382 . S
C508 H510 0.952 . S
C509 N504 1.332 . S
C509 C505 1.382 . S
C509 H511 0.948 . S
H510 C508 0.952 . S
H511 C509 0.948 . S
H512 C501 0.952 . S
H513 C503 0.948 . S
C514 C480 1.395 . S
C514 C484 1.391 . S
C515 C477 1.389 . S
C515 C497 1.392 . S
C516 C487 1.392 . S
C516 C489 1.389 . S
C517 C492 1.395 . S
C517 C494 1.391 . S
H518 C478 0.951 . S
H519 C479 0.950 . S
H520 C485 0.949 . S
H521 C486 0.950 . S
H522 C490 0.951 . S
H523 C491 0.950 . S
H524 C495 0.949 . S
H525 C496 0.950 . S
H526 C500 0.950 . S
H527 C502 0.950 . S
H528 C505 0.950 . S
H529 C507 0.950 . S
C530 C531 1.443 . S
C530 N534 1.376 . S
C530 C568 1.389 . S
C531 C530 1.443 . S
C531 C532 1.340 . S
C531 H571 0.951 . S
C532 C531 1.340 . S
C532 C533 1.439 . S
C532 H572 0.950 . S
C533 C532 1.439 . S
C533 N534 1.374 . S
C533 C567 1.395 . S
N534 C530 1.376 . S
N534 C533 1.374 . S
N534 Co535 2.008 . S
Co535 N534 2.008 . S
Co535 N536 1.995 . S
Co535 N541 2.008 . S
Co535 N546 1.995 . S
Co535 N551 2.282 . S
Co535 N557 2.282 . S
N536 Co535 1.995 . S
N536 C537 1.376 . S
N536 C540 1.383 . S
C537 N536 1.376 . S
C537 C538 1.446 . S
C537 C567 1.391 . S
C538 C537 1.446 . S
C538 C539 1.339 . S
C538 H573 0.949 . S
C539 C538 1.339 . S
C539 C540 1.439 . S
C539 H574 0.950 . S
C540 N536 1.383 . S
C540 C539 1.439 . S
C540 C569 1.392 . S
N541 Co535 2.008 . S
N541 C542 1.376 . S
N541 C545 1.374 . S
C542 N541 1.376 . S
C542 C543 1.443 . S
C542 C569 1.389 . S
C543 C542 1.443 . S
C543 C544 1.340 . S
C543 H575 0.951 . S
C544 C543 1.340 . S
C544 C545 1.439 . S
C544 H576 0.950 . S
C545 N541 1.374 . S
C545 C544 1.439 . S
C545 C570 1.395 . S
N546 Co535 1.995 . S
N546 C547 1.376 . S
N546 C550 1.383 . S
C547 N546 1.376 . S
C547 C548 1.446 . S
C547 C570 1.391 . S
C548 C547 1.446 . S
C548 C549 1.339 . S
C548 H577 0.949 . S
C549 C548 1.339 . S
C549 C550 1.439 . S
C549 H578 0.950 . S
C550 N546 1.383 . S
C550 C549 1.439 . S
C550 C568 1.392 . S
N551 Co535 2.282 . S
N551 C554 1.332 . S
N551 C556 1.332 . S
C552 C553 1.386 . S
C552 C555 1.388 . S
C553 C552 1.386 . S
C553 C554 1.382 . S
C553 H579 0.950 . S
C554 N551 1.332 . S
C554 C553 1.382 . S
C554 H565 0.952 . S
C555 C552 1.388 . S
C555 C556 1.382 . S
C555 H580 0.950 . S
C556 N551 1.332 . S
C556 C555 1.382 . S
C556 H566 0.948 . S
N557 Co535 2.282 . S
N557 C561 1.332 . S
N557 C562 1.332 . S
C558 C559 1.388 . S
C558 C562 1.382 . S
C558 H581 0.950 . S
C559 C558 1.388 . S
C559 C560 1.386 . S
C560 C559 1.386 . S
C560 C561 1.382 . S
C560 H582 0.950 . S
C561 N557 1.332 . S
C561 C560 1.382 . S
C561 H563 0.952 . S
C562 N557 1.332 . S
C562 C558 1.382 . S
C562 H564 0.948 . S
H563 C561 0.952 . S
H564 C562 0.948 . S
H565 C554 0.952 . S
H566 C556 0.948 . S
C567 C533 1.395 . S
C567 C537 1.391 . S
C568 C530 1.389 . S
C568 C550 1.392 . S
C569 C540 1.392 . S
C569 C542 1.389 . S
C570 C545 1.395 . S
C570 C547 1.391 . S
H571 C531 0.951 . S
H572 C532 0.950 . S
H573 C538 0.949 . S
H574 C539 0.950 . S
H575 C543 0.951 . S
H576 C544 0.950 . S
H577 C548 0.949 . S
H578 C549 0.950 . S
H579 C553 0.950 . S
H580 C555 0.950 . S
H581 C558 0.950 . S
H582 C560 0.950 . S
C583 C584 1.443 . S
C583 N587 1.376 . S
C583 C621 1.389 . S
C584 C583 1.443 . S
C584 C585 1.340 . S
C584 H624 0.951 . S
C585 C584 1.340 . S
C585 C586 1.439 . S
C585 H625 0.950 . S
C586 C585 1.439 . S
C586 N587 1.374 . S
C586 C620 1.395 . S
N587 C583 1.376 . S
N587 C586 1.374 . S
N587 Co588 2.008 . S
Co588 N587 2.008 . S
Co588 N589 1.995 . S
Co588 N594 2.008 . S
Co588 N599 1.995 . S
Co588 N604 2.282 . S
Co588 N610 2.282 . S
N589 Co588 1.995 . S
N589 C590 1.376 . S
N589 C593 1.383 . S
C590 N589 1.376 . S
C590 C591 1.446 . S
C590 C620 1.391 . S
C591 C590 1.446 . S
C591 C592 1.339 . S
C591 H626 0.949 . S
C592 C591 1.339 . S
C592 C593 1.439 . S
C592 H627 0.950 . S
C593 N589 1.383 . S
C593 C592 1.439 . S
C593 C622 1.392 . S
N594 Co588 2.008 . S
N594 C595 1.376 . S
N594 C598 1.374 . S
C595 N594 1.376 . S
C595 C596 1.443 . S
C595 C622 1.389 . S
C596 C595 1.443 . S
C596 C597 1.340 . S
C596 H628 0.951 . S
C597 C596 1.340 . S
C597 C598 1.439 . S
C597 H629 0.950 . S
C598 N594 1.374 . S
C598 C597 1.439 . S
C598 C623 1.395 . S
N599 Co588 1.995 . S
N599 C600 1.376 . S
N599 C603 1.383 . S
C600 N599 1.376 . S
C600 C601 1.446 . S
C600 C623 1.391 . S
C601 C600 1.446 . S
C601 C602 1.339 . S
C601 H630 0.949 . S
C602 C601 1.339 . S
C602 C603 1.439 . S
C602 H631 0.950 . S
C603 N599 1.383 . S
C603 C602 1.439 . S
C603 C621 1.392 . S
N604 Co588 2.282 . S
N604 C607 1.332 . S
N604 C609 1.332 . S
C605 C606 1.386 . S
C605 C608 1.388 . S
C606 C605 1.386 . S
C606 C607 1.382 . S
C606 H632 0.950 . S
C607 N604 1.332 . S
C607 C606 1.382 . S
C607 H618 0.952 . S
C608 C605 1.388 . S
C608 C609 1.382 . S
C608 H633 0.950 . S
C609 N604 1.332 . S
C609 C608 1.382 . S
C609 H619 0.948 . S
N610 Co588 2.282 . S
N610 C614 1.332 . S
N610 C615 1.332 . S
C611 C612 1.388 . S
C611 C615 1.382 . S
C611 H634 0.950 . S
C612 C611 1.388 . S
C612 C613 1.386 . S
C613 C612 1.386 . S
C613 C614 1.382 . S
C613 H635 0.950 . S
C614 N610 1.332 . S
C614 C613 1.382 . S
C614 H616 0.952 . S
C615 N610 1.332 . S
C615 C611 1.382 . S
C615 H617 0.948 . S
H616 C614 0.952 . S
H617 C615 0.948 . S
H618 C607 0.952 . S
H619 C609 0.948 . S
C620 C586 1.395 . S
C620 C590 1.391 . S
C621 C583 1.389 . S
C621 C603 1.392 . S
C622 C593 1.392 . S
C622 C595 1.389 . S
C623 C598 1.395 . S
C623 C600 1.391 . S
H624 C584 0.951 . S
H625 C585 0.950 . S
H626 C591 0.949 . S
H627 C592 0.950 . S
H628 C596 0.951 . S
H629 C597 0.950 . S
H630 C601 0.949 . S
H631 C602 0.950 . S
H632 C606 0.950 . S
H633 C608 0.950 . S
H634 C611 0.950 . S
H635 C613 0.950 . S
H636 C642 0.930 . S
H637 C646 0.930 . S
H638 C651 0.929 . S
H639 C649 0.929 . S
H640 C644 0.929 . S
H641 C650 0.929 . S
C642 H636 0.930 . S
C642 C643 1.367 . S
C642 C650 1.378 . S
C643 C642 1.367 . S
C643 C651 1.433 . S
C644 H640 0.929 . S
C644 C646 1.378 . S
C644 C648 1.350 . S
C645 C648 1.463 . S
C645 C650 1.350 . S
C645 N653 1.427 . S
C646 H637 0.930 . S
C646 C644 1.378 . S
C646 C647 1.367 . S
C647 C646 1.367 . S
C647 C649 1.433 . S
C648 C644 1.350 . S
C648 C645 1.463 . S
C648 N652 1.427 . S
C649 H639 0.929 . S
C649 C647 1.433 . S
C649 N652 1.384 . S
C650 H641 0.929 . S
C650 C642 1.378 . S
C650 C645 1.350 . S
C651 H638 0.929 . S
C651 C643 1.433 . S
C651 N653 1.384 . S
N652 C648 1.427 . S
N652 C649 1.384 . S
N653 C645 1.427 . S
N653 C651 1.384 . S
H654 C660 0.930 . S
H655 C664 0.930 . S
H656 C669 0.929 . S
H657 C667 0.929 . S
H658 C662 0.929 . S
H659 C668 0.929 . S
C660 H654 0.930 . S
C660 C661 1.367 . S
C660 C668 1.378 . S
C661 C660 1.367 . S
C661 C669 1.433 . S
C662 H658 0.929 . S
C662 C664 1.378 . S
C662 C666 1.350 . S
C663 C666 1.463 . S
C663 C668 1.350 . S
C663 N671 1.427 . S
C664 H655 0.930 . S
C664 C662 1.378 . S
C664 C665 1.367 . S
C665 C664 1.367 . S
C665 C667 1.433 . S
C666 C662 1.350 . S
C666 C663 1.463 . S
C666 N670 1.427 . S
C667 H657 0.929 . S
C667 C665 1.433 . S
C667 N670 1.384 . S
C668 H659 0.929 . S
C668 C660 1.378 . S
C668 C663 1.350 . S
C669 H656 0.929 . S
C669 C661 1.433 . S
C669 N671 1.384 . S
N670 C666 1.427 . S
N670 C667 1.384 . S
N671 C663 1.427 . S
N671 C669 1.384 . S
H672 C678 0.930 . S
H673 C682 0.930 . S
H674 C687 0.929 . S
H675 C685 0.929 . S
H676 C680 0.929 . S
H677 C686 0.929 . S
C678 H672 0.930 . S
C678 C679 1.367 . S
C678 C686 1.378 . S
C679 C678 1.367 . S
C679 C687 1.433 . S
C680 H676 0.929 . S
C680 C682 1.378 . S
C680 C684 1.350 . S
C681 C684 1.463 . S
C681 C686 1.350 . S
C681 N689 1.427 . S
C682 H673 0.930 . S
C682 C680 1.378 . S
C682 C683 1.367 . S
C683 C682 1.367 . S
C683 C685 1.433 . S
C684 C680 1.350 . S
C684 C681 1.463 . S
C684 N688 1.427 . S
C685 H675 0.929 . S
C685 C683 1.433 . S
C685 N688 1.384 . S
C686 H677 0.929 . S
C686 C678 1.378 . S
C686 C681 1.350 . S
C687 H674 0.929 . S
C687 C679 1.433 . S
C687 N689 1.384 . S
N688 C684 1.427 . S
N688 C685 1.384 . S
N689 C681 1.427 . S
N689 C687 1.384 . S
H690 C696 0.930 . S
H691 C700 0.930 . S
H692 C705 0.929 . S
H693 C703 0.929 . S
H694 C698 0.929 . S
H695 C704 0.929 . S
C696 H690 0.930 . S
C696 C697 1.367 . S
C696 C704 1.378 . S
C697 C696 1.367 . S
C697 C705 1.433 . S
C698 H694 0.929 . S
C698 C700 1.378 . S
C698 C702 1.350 . S
C699 C702 1.463 . S
C699 C704 1.350 . S
C699 N707 1.427 . S
C700 H691 0.930 . S
C700 C698 1.378 . S
C700 C701 1.367 . S
C701 C700 1.367 . S
C701 C703 1.433 . S
C702 C698 1.350 . S
C702 C699 1.463 . S
C702 N706 1.427 . S
C703 H693 0.929 . S
C703 C701 1.433 . S
C703 N706 1.384 . S
C704 H695 0.929 . S
C704 C696 1.378 . S
C704 C699 1.350 . S
C705 H692 0.929 . S
C705 C697 1.433 . S
C705 N707 1.384 . S
N706 C702 1.427 . S
N706 C703 1.384 . S
N707 C699 1.427 . S
N707 C705 1.384 . S
H708 C714 0.930 . S
H709 C718 0.930 . S
H710 C723 0.929 . S
H711 C721 0.929 . S
H712 C716 0.929 . S
H713 C722 0.929 . S
C714 H708 0.930 . S
C714 C715 1.367 . S
C714 C722 1.378 . S
C715 C714 1.367 . S
C715 C723 1.433 . S
C716 H712 0.929 . S
C716 C718 1.378 . S
C716 C720 1.350 . S
C717 C720 1.463 . S
C717 C722 1.350 . S
C717 N725 1.427 . S
C718 H709 0.930 . S
C718 C716 1.378 . S
C718 C719 1.367 . S
C719 C718 1.367 . S
C719 C721 1.433 . S
C720 C716 1.350 . S
C720 C717 1.463 . S
C720 N724 1.427 . S
C721 H711 0.929 . S
C721 C719 1.433 . S
C721 N724 1.384 . S
C722 H713 0.929 . S
C722 C714 1.378 . S
C722 C717 1.350 . S
C723 H710 0.929 . S
C723 C715 1.433 . S
C723 N725 1.384 . S
N724 C720 1.427 . S
N724 C721 1.384 . S
N725 C717 1.427 . S
N725 C723 1.384 . S
H726 C732 0.930 . S
H727 C736 0.930 . S
H728 C741 0.929 . S
H729 C739 0.929 . S
H730 C734 0.929 . S
H731 C740 0.929 . S
C732 H726 0.930 . S
C732 C733 1.367 . S
C732 C740 1.378 . S
C733 C732 1.367 . S
C733 C741 1.433 . S
C734 H730 0.929 . S
C734 C736 1.378 . S
C734 C738 1.350 . S
C735 C738 1.463 . S
C735 C740 1.350 . S
C735 N743 1.427 . S
C736 H727 0.930 . S
C736 C734 1.378 . S
C736 C737 1.367 . S
C737 C736 1.367 . S
C737 C739 1.433 . S
C738 C734 1.350 . S
C738 C735 1.463 . S
C738 N742 1.427 . S
C739 H729 0.929 . S
C739 C737 1.433 . S
C739 N742 1.384 . S
C740 H731 0.929 . S
C740 C732 1.378 . S
C740 C735 1.350 . S
C741 H728 0.929 . S
C741 C733 1.433 . S
C741 N743 1.384 . S
N742 C738 1.427 . S
N742 C739 1.384 . S
N743 C735 1.427 . S
N743 C741 1.384 . S
H744 C750 0.930 . S
H745 C754 0.930 . S
H746 C759 0.929 . S
H747 C757 0.929 . S
H748 C752 0.929 . S
H749 C758 0.929 . S
C750 H744 0.930 . S
C750 C751 1.367 . S
C750 C758 1.378 . S
C751 C750 1.367 . S
C751 C759 1.433 . S
C752 H748 0.929 . S
C752 C754 1.378 . S
C752 C756 1.350 . S
C753 C756 1.463 . S
C753 C758 1.350 . S
C753 N761 1.427 . S
C754 H745 0.930 . S
C754 C752 1.378 . S
C754 C755 1.367 . S
C755 C754 1.367 . S
C755 C757 1.433 . S
C756 C752 1.350 . S
C756 C753 1.463 . S
C756 N760 1.427 . S
C757 H747 0.929 . S
C757 C755 1.433 . S
C757 N760 1.384 . S
C758 H749 0.929 . S
C758 C750 1.378 . S
C758 C753 1.350 . S
C759 H746 0.929 . S
C759 C751 1.433 . S
C759 N761 1.384 . S
N760 C756 1.427 . S
N760 C757 1.384 . S
N761 C753 1.427 . S
N761 C759 1.384 . S
H762 C768 0.930 . S
H763 C772 0.930 . S
H764 C777 0.929 . S
H765 C775 0.929 . S
H766 C770 0.929 . S
H767 C776 0.929 . S
C768 H762 0.930 . S
C768 C769 1.367 . S
C768 C776 1.378 . S
C769 C768 1.367 . S
C769 C777 1.433 . S
C770 H766 0.929 . S
C770 C772 1.378 . S
C770 C774 1.350 . S
C771 C774 1.463 1_455 S
C771 C776 1.350 . S
C771 N779 1.427 . S
C772 H763 0.930 . S
C772 C770 1.378 . S
C772 C773 1.367 . S
C773 C772 1.367 . S
C773 C775 1.433 . S
C774 C770 1.350 . S
C774 C771 1.463 1_655 S
C774 N778 1.427 . S
C775 H765 0.929 . S
C775 C773 1.433 . S
C775 N778 1.384 . S
C776 H767 0.929 . S
C776 C768 1.378 . S
C776 C771 1.350 . S
C777 H764 0.929 . S
C777 C769 1.433 . S
C777 N779 1.384 . S
N778 C774 1.427 . S
N778 C775 1.384 . S
N779 C771 1.427 . S
N779 C777 1.384 . S
H780 C786 0.930 . S
H781 C790 0.930 . S
H782 C795 0.929 . S
H783 C793 0.929 . S
H784 C788 0.929 . S
H785 C794 0.929 . S
C786 H780 0.930 . S
C786 C787 1.367 . S
C786 C794 1.378 . S
C787 C786 1.367 . S
C787 C795 1.433 . S
C788 H784 0.929 . S
C788 C790 1.378 . S
C788 C792 1.350 . S
C789 C792 1.463 1_545 S
C789 C794 1.350 . S
C789 N797 1.427 . S
C790 H781 0.930 . S
C790 C788 1.378 . S
C790 C791 1.367 . S
C791 C790 1.367 . S
C791 C793 1.433 . S
C792 C788 1.350 . S
C792 C789 1.463 1_565 S
C792 N796 1.427 . S
C793 H783 0.929 . S
C793 C791 1.433 . S
C793 N796 1.384 . S
C794 H785 0.929 . S
C794 C786 1.378 . S
C794 C789 1.350 . S
C795 H782 0.929 . S
C795 C787 1.433 . S
C795 N797 1.384 . S
N796 C792 1.427 . S
N796 C793 1.384 . S
N797 C789 1.427 . S
N797 C795 1.384 . S
H798 C804 0.930 . S
H799 C808 0.930 . S
H800 C813 0.929 . S
H801 C811 0.929 . S
H802 C806 0.929 . S
H803 C812 0.929 . S
C804 H798 0.930 . S
C804 C805 1.367 . S
C804 C812 1.378 . S
C805 C804 1.367 . S
C805 C813 1.433 . S
C806 H802 0.929 . S
C806 C808 1.378 . S
C806 C810 1.350 . S
C807 C810 1.463 . S
C807 C812 1.350 . S
C807 N815 1.427 . S
C808 H799 0.930 . S
C808 C806 1.378 . S
C808 C809 1.367 . S
C809 C808 1.367 . S
C809 C811 1.433 . S
C810 C806 1.350 . S
C810 C807 1.463 . S
C810 N814 1.427 . S
C811 H801 0.929 . S
C811 C809 1.433 . S
C811 N814 1.384 . S
C812 H803 0.929 . S
C812 C804 1.378 . S
C812 C807 1.350 . S
C813 H800 0.929 . S
C813 C805 1.433 . S
C813 N815 1.384 . S
N814 C810 1.427 . S
N814 C811 1.384 . S
N815 C807 1.427 . S
N815 C813 1.384 . S
H816 C822 0.930 . S
H817 C826 0.930 . S
H818 C831 0.929 . S
H819 C829 0.929 . S
H820 C824 0.929 . S
H821 C830 0.929 . S
C822 H816 0.930 . S
C822 C823 1.367 . S
C822 C830 1.378 . S
C823 C822 1.367 . S
C823 C831 1.433 . S
C824 H820 0.929 . S
C824 C826 1.378 . S
C824 C828 1.350 . S
C825 C828 1.463 1_655 S
C825 C830 1.350 . S
C825 N833 1.427 . S
C826 H817 0.930 . S
C826 C824 1.378 . S
C826 C827 1.367 . S
C827 C826 1.367 . S
C827 C829 1.433 . S
C828 C824 1.350 . S
C828 C825 1.463 1_455 S
C828 N832 1.427 . S
C829 H819 0.929 . S
C829 C827 1.433 . S
C829 N832 1.384 . S
C830 H821 0.929 . S
C830 C822 1.378 . S
C830 C825 1.350 . S
C831 H818 0.929 . S
C831 C823 1.433 . S
C831 N833 1.384 . S
N832 C828 1.427 . S
N832 C829 1.384 . S
N833 C825 1.427 . S
N833 C831 1.384 . S
H834 C840 0.930 . S
H835 C844 0.930 . S
H836 C849 0.929 . S
H837 C847 0.929 . S
H838 C842 0.929 1_565 S
H839 C848 0.929 1_545 S
C840 H834 0.930 . S
C840 C841 1.367 . S
C840 C848 1.378 . S
C841 C840 1.367 . S
C841 C849 1.433 . S
C842 H838 0.929 1_545 S
C842 C844 1.378 . S
C842 C846 1.350 . S
C843 C846 1.463 1_565 S
C843 C848 1.350 . S
C843 N851 1.427 . S
C844 H835 0.930 . S
C844 C842 1.378 . S
C844 C845 1.367 . S
C845 C844 1.367 . S
C845 C847 1.433 . S
C846 C842 1.350 . S
C846 C843 1.463 1_545 S
C846 N850 1.427 . S
C847 H837 0.929 . S
C847 C845 1.433 . S
C847 N850 1.384 . S
C848 H839 0.929 1_565 S
C848 C840 1.378 . S
C848 C843 1.350 . S
C849 H836 0.929 . S
C849 C841 1.433 . S
C849 N851 1.384 . S
N850 C846 1.427 . S
N850 C847 1.384 . S
N851 C843 1.427 . S
N851 C849 1.384 . S
H852 C858 0.930 . S
H853 C862 0.930 . S
H854 C867 0.929 . S
H855 C865 0.929 . S
H856 C860 0.929 . S
H857 C866 0.929 . S
C858 H852 0.930 . S
C858 C859 1.367 . S
C858 C866 1.378 . S
C859 C858 1.367 . S
C859 C867 1.433 . S
C860 H856 0.929 . S
C860 C862 1.378 . S
C860 C864 1.350 . S
C861 C864 1.463 . S
C861 C866 1.350 . S
C861 N869 1.427 . S
C862 H853 0.930 . S
C862 C860 1.378 . S
C862 C863 1.367 . S
C863 C862 1.367 . S
C863 C865 1.433 . S
C864 C860 1.350 . S
C864 C861 1.463 . S
C864 N868 1.427 . S
C865 H855 0.929 . S
C865 C863 1.433 . S
C865 N868 1.384 . S
C866 H857 0.929 . S
C866 C858 1.378 . S
C866 C861 1.350 . S
C867 H854 0.929 . S
C867 C859 1.433 . S
C867 N869 1.384 . S
N868 C864 1.427 . S
N868 C865 1.384 . S
N869 C861 1.427 . S
N869 C867 1.384 . S
H870 C876 0.930 . S
H871 C880 0.930 . S
H872 C885 0.929 . S
H873 C883 0.929 . S
H874 C878 0.929 . S
H875 C884 0.929 . S
C876 H870 0.930 . S
C876 C877 1.367 . S
C876 C884 1.378 . S
C877 C876 1.367 . S
C877 C885 1.433 . S
C878 H874 0.929 . S
C878 C880 1.378 . S
C878 C882 1.350 . S
C879 C882 1.463 1_655 S
C879 C884 1.350 . S
C879 N887 1.427 . S
C880 H871 0.930 . S
C880 C878 1.378 . S
C880 C881 1.367 . S
C881 C880 1.367 . S
C881 C883 1.433 . S
C882 C878 1.350 . S
C882 C879 1.463 1_455 S
C882 N886 1.427 . S
C883 H873 0.929 . S
C883 C881 1.433 . S
C883 N886 1.384 . S
C884 H875 0.929 . S
C884 C876 1.378 . S
C884 C879 1.350 . S
C885 H872 0.929 . S
C885 C877 1.433 . S
C885 N887 1.384 . S
N886 C882 1.427 . S
N886 C883 1.384 . S
N887 C879 1.427 . S
N887 C885 1.384 . S
H888 C894 0.930 . S
H889 C898 0.930 . S
H890 C903 0.929 . S
H891 C901 0.929 . S
H892 C896 0.929 1_556 S
H893 C902 0.929 1_554 S
C894 H888 0.930 . S
C894 C895 1.367 . S
C894 C902 1.378 . S
C895 C894 1.367 . S
C895 C903 1.433 . S
C896 H892 0.929 1_554 S
C896 C898 1.378 . S
C896 C900 1.350 . S
C897 C900 1.463 1_566 S
C897 C902 1.350 . S
C897 N905 1.427 1_565 S
C898 H889 0.930 . S
C898 C896 1.378 . S
C898 C899 1.367 . S
C899 C898 1.367 . S
C899 C901 1.433 . S
C900 C896 1.350 . S
C900 C897 1.463 1_544 S
C900 N904 1.427 1_545 S
C901 H891 0.929 . S
C901 C899 1.433 . S
C901 N904 1.384 1_545 S
C902 H893 0.929 1_556 S
C902 C894 1.378 . S
C902 C897 1.350 . S
C903 H890 0.929 . S
C903 C895 1.433 . S
C903 N905 1.384 1_565 S
N904 C900 1.427 1_565 S
N904 C901 1.384 1_565 S
N905 C897 1.427 1_545 S
N905 C903 1.384 1_545 S
H906 C912 0.930 . S
H907 C916 0.930 . S
H908 C921 0.929 . S
H909 C919 0.929 . S
H910 C914 0.929 . S
H911 C920 0.929 . S
C912 H906 0.930 . S
C912 C913 1.367 . S
C912 C920 1.378 . S
C913 C912 1.367 . S
C913 C921 1.433 . S
C914 H910 0.929 . S
C914 C916 1.378 . S
C914 C918 1.350 . S
C915 C918 1.463 . S
C915 C920 1.350 . S
C915 N923 1.427 . S
C916 H907 0.930 . S
C916 C914 1.378 . S
C916 C917 1.367 . S
C917 C916 1.367 . S
C917 C919 1.433 . S
C918 C914 1.350 . S
C918 C915 1.463 . S
C918 N922 1.427 . S
C919 H909 0.929 . S
C919 C917 1.433 . S
C919 N922 1.384 . S
C920 H911 0.929 . S
C920 C912 1.378 . S
C920 C915 1.350 . S
C921 H908 0.929 . S
C921 C913 1.433 . S
C921 N923 1.384 . S
N922 C918 1.427 . S
N922 C919 1.384 . S
N923 C915 1.427 . S
N923 C921 1.384 . S
H924 C930 0.930 . S
H925 C934 0.930 . S
H926 C939 0.929 . S
H927 C937 0.929 . S
H928 C932 0.929 . S
H929 C938 0.929 . S
C930 H924 0.930 . S
C930 C931 1.367 . S
C930 C938 1.378 . S
C931 C930 1.367 . S
C931 C939 1.433 1_455 S
C932 H928 0.929 . S
C932 C934 1.378 . S
C932 C936 1.350 . S
C933 C936 1.463 1_455 S
C933 C938 1.350 . S
C933 N941 1.427 1_455 S
C934 H925 0.930 . S
C934 C932 1.378 . S
C934 C935 1.367 . S
C935 C934 1.367 . S
C935 C937 1.433 1_655 S
C936 C932 1.350 . S
C936 C933 1.463 1_655 S
C936 N940 1.427 1_655 S
C937 H927 0.929 . S
C937 C935 1.433 1_455 S
C937 N940 1.384 . S
C938 H929 0.929 . S
C938 C930 1.378 . S
C938 C933 1.350 . S
C939 H926 0.929 . S
C939 C931 1.433 1_655 S
C939 N941 1.384 . S
N940 C936 1.427 1_455 S
N940 C937 1.384 . S
N941 C933 1.427 1_655 S
N941 C939 1.384 . S
H942 C948 0.930 . S
H943 C952 0.930 . S
H944 C957 0.929 . S
H945 C955 0.929 . S
H946 C950 0.929 . S
H947 C956 0.929 . S
C948 H942 0.930 . S
C948 C949 1.367 . S
C948 C956 1.378 . S
C949 C948 1.367 . S
C949 C957 1.433 . S
C950 H946 0.929 . S
C950 C952 1.378 . S
C950 C954 1.350 . S
C951 C954 1.463 1_564 S
C951 C956 1.350 . S
C951 N959 1.427 . S
C952 H943 0.930 . S
C952 C950 1.378 . S
C952 C953 1.367 . S
C953 C952 1.367 . S
C953 C955 1.433 . S
C954 C950 1.350 . S
C954 C951 1.463 1_546 S
C954 N958 1.427 . S
C955 H945 0.929 . S
C955 C953 1.433 . S
C955 N958 1.384 . S
C956 H947 0.929 . S
C956 C948 1.378 . S
C956 C951 1.350 . S
C957 H944 0.929 . S
C957 C949 1.433 . S
C957 N959 1.384 . S
N958 C954 1.427 . S
N958 C955 1.384 . S
N959 C951 1.427 . S
N959 C957 1.384 . S
H960 C966 0.930 . S
H961 C970 0.930 . S
H962 C975 0.929 . S
H963 C973 0.929 . S
H964 C968 0.929 . S
H965 C974 0.929 . S
C966 H960 0.930 . S
C966 C967 1.367 . S
C966 C974 1.378 1_655 S
C967 C966 1.367 . S
C967 C975 1.433 . S
C968 H964 0.929 . S
C968 C970 1.378 . S
C968 C972 1.350 . S
C969 C972 1.463 . S
C969 C974 1.350 . S
C969 N977 1.427 1_455 S
C970 H961 0.930 . S
C970 C968 1.378 . S
C970 C971 1.367 . S
C971 C970 1.367 . S
C971 C973 1.433 . S
C972 C968 1.350 . S
C972 C969 1.463 . S
C972 N976 1.427 . S
C973 H963 0.929 . S
C973 C971 1.433 . S
C973 N976 1.384 . S
C974 H965 0.929 . S
C974 C966 1.378 1_455 S
C974 C969 1.350 . S
C975 H962 0.929 . S
C975 C967 1.433 . S
C975 N977 1.384 . S
N976 C972 1.427 . S
N976 C973 1.384 . S
N977 C969 1.427 1_655 S
N977 C975 1.384 . S
H978 C984 0.930 . S
H979 C988 0.930 . S
H980 C993 0.929 . S
H981 C991 0.929 . S
H982 C986 0.929 . S
H983 C992 0.929 . S
C984 H978 0.930 . S
C984 C985 1.367 . S
C984 C992 1.378 . S
C985 C984 1.367 . S
C985 C993 1.433 . S
C986 H982 0.929 . S
C986 C988 1.378 . S
C986 C990 1.350 . S
C987 C990 1.463 1_545 S
C987 C992 1.350 . S
C987 N995 1.427 . S
C988 H979 0.930 . S
C988 C986 1.378 . S
C988 C989 1.367 . S
C989 C988 1.367 . S
C989 C991 1.433 . S
C990 C986 1.350 . S
C990 C987 1.463 1_565 S
C990 N994 1.427 . S
C991 H981 0.929 . S
C991 C989 1.433 . S
C991 N994 1.384 . S
C992 H983 0.929 . S
C992 C984 1.378 . S
C992 C987 1.350 . S
C993 H980 0.929 . S
C993 C985 1.433 . S
C993 N995 1.384 . S
N994 C990 1.427 . S
N994 C991 1.384 . S
N995 C987 1.427 . S
N995 C993 1.384 . S
H996 C1002 0.930 . S
H997 C1006 0.930 . S
H998 C1011 0.929 . S
H999 C1009 0.929 . S
H1000 C1004 0.929 . S
H1001 C1010 0.929 . S
C1002 H996 0.930 . S
C1002 C1003 1.367 . S
C1002 C1010 1.378 . S
C1003 C1002 1.367 . S
C1003 C1011 1.433 . S
C1004 H1000 0.929 . S
C1004 C1006 1.378 . S
C1004 C1008 1.350 . S
C1005 C1008 1.463 . S
C1005 C1010 1.350 . S
C1005 N1013 1.427 . S
C1006 H997 0.930 . S
C1006 C1004 1.378 . S
C1006 C1007 1.367 . S
C1007 C1006 1.367 . S
C1007 C1009 1.433 . S
C1008 C1004 1.350 . S
C1008 C1005 1.463 . S
C1008 N1012 1.427 . S
C1009 H999 0.929 . S
C1009 C1007 1.433 . S
C1009 N1012 1.384 . S
C1010 H1001 0.929 . S
C1010 C1002 1.378 . S
C1010 C1005 1.350 . S
C1011 H998 0.929 . S
C1011 C1003 1.433 . S
C1011 N1013 1.384 . S
N1012 C1008 1.427 . S
N1012 C1009 1.384 . S
N1013 C1005 1.427 . S
N1013 C1011 1.384 . S
H1014 C1020 0.930 . S
H1015 C1024 0.930 . S
H1016 C1029 0.929 . S
H1017 C1027 0.929 . S
H1018 C1022 0.929 . S
H1019 C1028 0.929 . S
C1020 H1014 0.930 . S
C1020 C1021 1.367 . S
C1020 C1028 1.378 . S
C1021 C1020 1.367 . S
C1021 C1029 1.433 . S
C1022 H1018 0.929 . S
C1022 C1024 1.378 . S
C1022 C1026 1.350 1_455 S
C1023 C1026 1.463 . S
C1023 C1028 1.350 . S
C1023 N1031 1.427 . S
C1024 H1015 0.930 . S
C1024 C1022 1.378 . S
C1024 C1025 1.367 . S
C1025 C1024 1.367 . S
C1025 C1027 1.436 1_455 S
C1026 C1022 1.350 1_655 S
C1026 C1023 1.463 . S
C1026 N1030 1.427 . S
C1027 H1017 0.929 . S
C1027 C1025 1.436 1_655 S
C1027 N1030 1.381 . S
C1028 H1019 0.929 . S
C1028 C1020 1.378 . S
C1028 C1023 1.350 . S
C1029 H1016 0.929 . S
C1029 C1021 1.433 . S
C1029 N1031 1.384 . S
N1030 C1026 1.427 . S
N1030 C1027 1.381 . S
N1031 C1023 1.427 . S
N1031 C1029 1.384 . S
H1032 C1038 0.930 . S
H1033 C1042 0.930 . S
H1034 C1047 0.929 . S
H1035 C1045 0.929 . S
H1036 C1040 0.929 . S
H1037 C1046 0.929 . S
C1038 H1032 0.930 . S
C1038 C1039 1.367 . S
C1038 C1046 1.378 . S
C1039 C1038 1.367 . S
C1039 C1047 1.433 . S
C1040 H1036 0.929 . S
C1040 C1042 1.378 . S
C1040 C1044 1.350 . S
C1041 C1044 1.463 1_565 S
C1041 C1046 1.350 . S
C1041 N1049 1.427 . S
C1042 H1033 0.930 . S
C1042 C1040 1.378 . S
C1042 C1043 1.367 . S
C1043 C1042 1.367 . S
C1043 C1045 1.433 . S
C1044 C1040 1.350 . S
C1044 C1041 1.463 1_545 S
C1044 N1048 1.427 . S
C1045 H1035 0.929 . S
C1045 C1043 1.433 . S
C1045 N1048 1.384 . S
C1046 H1037 0.929 . S
C1046 C1038 1.378 . S
C1046 C1041 1.350 . S
C1047 H1034 0.929 . S
C1047 C1039 1.433 . S
C1047 N1049 1.384 . S
N1048 C1044 1.427 . S
N1048 C1045 1.384 . S
N1049 C1041 1.427 . S
N1049 C1047 1.384 . S
H1050 C1056 0.930 . S
H1051 C1060 0.930 . S
H1052 C1065 0.929 . S
H1053 C1063 0.929 . S
H1054 C1058 0.929 . S
H1055 C1064 0.929 . S
C1056 H1050 0.930 . S
C1056 C1057 1.367 . S
C1056 C1064 1.378 . S
C1057 C1056 1.367 . S
C1057 C1065 1.433 . S
C1058 H1054 0.929 . S
C1058 C1060 1.378 . S
C1058 C1062 1.350 . S
C1059 C1062 1.463 . S
C1059 C1064 1.350 . S
C1059 N1067 1.427 . S
C1060 H1051 0.930 . S
C1060 C1058 1.378 . S
C1060 C1061 1.367 . S
C1061 C1060 1.367 . S
C1061 C1063 1.433 . S
C1062 C1058 1.350 . S
C1062 C1059 1.463 . S
C1062 N1066 1.427 . S
C1063 H1053 0.929 . S
C1063 C1061 1.433 . S
C1063 N1066 1.384 . S
C1064 H1055 0.929 . S
C1064 C1056 1.378 . S
C1064 C1059 1.350 . S
C1065 H1052 0.929 . S
C1065 C1057 1.433 . S
C1065 N1067 1.384 . S
N1066 C1062 1.427 . S
N1066 C1063 1.384 . S
N1067 C1059 1.427 . S
N1067 C1065 1.384 . S
C643 C463 1.888 . S
C647 C22 1.889 . S
C661 C75 2.022 . S
C665 C499 2.025 . S
C679 C145 1.889 . S
C683 C552 1.890 . S
C697 C181 1.897 . S
C701 C622 1.895 . S
C715 C340 2.015 . S
C719 C234 2.019 . S
C733 C304 1.889 . S
C737 C393 1.891 . S
C751 C197 2.195 . S
C755 C38 2.198 . S
C769 C250 2.139 . S
C773 C91 2.134 . S
C787 C294 1.325 . S
C791 C135 1.327 . S
C805 C356 2.135 . S
C809 C515 2.139 . S
C823 C409 2.196 . S
C827 C568 2.198 . S
C841 C453 1.320 . S
C845 C612 1.326 . S
C859 C29 1.910 . S
C863 C506 1.892 . S
C877 C82 1.895 . S
C881 C559 1.915 . S
C895 C144 1.513 . S
C899 C621 1.512 . S
C913 C347 1.899 . S
C917 C188 1.909 . S
C931 C241 1.892 . S
C935 C400 1.909 . S
C949 C462 1.519 . S
C953 C303 1.512 . S
C967 C605 1.737 . S
C971 C39 1.737 . S
C985 C92 2.124 . S
C989 C357 2.126 . S
C1003 C410 1.730 . S
C1007 C128 1.727 . S
C1021 C198 1.730 . S
C1025 C446 1.727 . S
C1039 C251 2.123 . S
C1043 C516 2.124 . S
C1057 C569 1.740 . S
C1061 C287 1.739 . S
