# Generated by pormake.
# Topology crs, (6)-cn, num edge types: 1
# Building blocks:
#     Node 0, Type 0, BuildingBlock: BETDEL_clean_sbu_0, # of connection points: 6
#     Node 1, Type 0, BuildingBlock: BETDEL_clean_sbu_0, # of connection points: 6
#     Node 2, Type 0, BuildingBlock: BETDEL_clean_sbu_0, # of connection points: 6
#     Node 3, Type 0, BuildingBlock: BETDEL_clean_sbu_0, # of connection points: 6
#     Node 4, Type 0, BuildingBlock: BETDEL_clean_sbu_0, # of connection points: 6
#     Node 5, Type 0, BuildingBlock: BETDEL_clean_sbu_0, # of connection points: 6
#     Node 6, Type 0, BuildingBlock: BETDEL_clean_sbu_0, # of connection points: 6
#     Node 7, Type 0, BuildingBlock: BETDEL_clean_sbu_0, # of connection points: 6
#     Node 8, Type 0, BuildingBlock: BETDEL_clean_sbu_0, # of connection points: 6
#     Node 9, Type 0, BuildingBlock: BETDEL_clean_sbu_0, # of connection points: 6
#     Node 10, Type 0, BuildingBlock: BETDEL_clean_sbu_0, # of connection points: 6
#     Node 11, Type 0, BuildingBlock: BETDEL_clean_sbu_0, # of connection points: 6
#     Node 12, Type 0, BuildingBlock: BETDEL_clean_sbu_0, # of connection points: 6
#     Node 13, Type 0, BuildingBlock: BETDEL_clean_sbu_0, # of connection points: 6
#     Node 14, Type 0, BuildingBlock: BETDEL_clean_sbu_0, # of connection points: 6
#     Node 15, Type 0, BuildingBlock: BETDEL_clean_sbu_0, # of connection points: 6
#     Edge 16, Type (0, 0), BuildingBlock: UVAHIK_clean_linker_0, # of connection points: 2
#     Edge 17, Type (0, 0), BuildingBlock: UVAHIK_clean_linker_0, # of connection points: 2
#     Edge 18, Type (0, 0), BuildingBlock: UVAHIK_clean_linker_0, # of connection points: 2
#     Edge 19, Type (0, 0), BuildingBlock: UVAHIK_clean_linker_0, # of connection points: 2
#     Edge 20, Type (0, 0), BuildingBlock: UVAHIK_clean_linker_0, # of connection points: 2
#     Edge 21, Type (0, 0), BuildingBlock: UVAHIK_clean_linker_0, # of connection points: 2
#     Edge 22, Type (0, 0), BuildingBlock: UVAHIK_clean_linker_0, # of connection points: 2
#     Edge 23, Type (0, 0), BuildingBlock: UVAHIK_clean_linker_0, # of connection points: 2
#     Edge 24, Type (0, 0), BuildingBlock: UVAHIK_clean_linker_0, # of connection points: 2
#     Edge 25, Type (0, 0), BuildingBlock: UVAHIK_clean_linker_0, # of connection points: 2
#     Edge 26, Type (0, 0), BuildingBlock: UVAHIK_clean_linker_0, # of connection points: 2
#     Edge 27, Type (0, 0), BuildingBlock: UVAHIK_clean_linker_0, # of connection points: 2
#     Edge 28, Type (0, 0), BuildingBlock: UVAHIK_clean_linker_0, # of connection points: 2
#     Edge 29, Type (0, 0), BuildingBlock: UVAHIK_clean_linker_0, # of connection points: 2
#     Edge 30, Type (0, 0), BuildingBlock: UVAHIK_clean_linker_0, # of connection points: 2
#     Edge 31, Type (0, 0), BuildingBlock: UVAHIK_clean_linker_0, # of connection points: 2
#     Edge 32, Type (0, 0), BuildingBlock: UVAHIK_clean_linker_0, # of connection points: 2
#     Edge 33, Type (0, 0), BuildingBlock: UVAHIK_clean_linker_0, # of connection points: 2
#     Edge 34, Type (0, 0), BuildingBlock: UVAHIK_clean_linker_0, # of connection points: 2
#     Edge 35, Type (0, 0), BuildingBlock: UVAHIK_clean_linker_0, # of connection points: 2
#     Edge 36, Type (0, 0), BuildingBlock: UVAHIK_clean_linker_0, # of connection points: 2
#     Edge 37, Type (0, 0), BuildingBlock: UVAHIK_clean_linker_0, # of connection points: 2
#     Edge 38, Type (0, 0), BuildingBlock: UVAHIK_clean_linker_0, # of connection points: 2
#     Edge 39, Type (0, 0), BuildingBlock: UVAHIK_clean_linker_0, # of connection points: 2
#     Edge 40, Type (0, 0), BuildingBlock: UVAHIK_clean_linker_0, # of connection points: 2
#     Edge 41, Type (0, 0), BuildingBlock: UVAHIK_clean_linker_0, # of connection points: 2
#     Edge 42, Type (0, 0), BuildingBlock: UVAHIK_clean_linker_0, # of connection points: 2
#     Edge 43, Type (0, 0), BuildingBlock: UVAHIK_clean_linker_0, # of connection points: 2
#     Edge 44, Type (0, 0), BuildingBlock: UVAHIK_clean_linker_0, # of connection points: 2
#     Edge 45, Type (0, 0), BuildingBlock: UVAHIK_clean_linker_0, # of connection points: 2
#     Edge 46, Type (0, 0), BuildingBlock: UVAHIK_clean_linker_0, # of connection points: 2
#     Edge 47, Type (0, 0), BuildingBlock: UVAHIK_clean_linker_0, # of connection points: 2
#     Edge 48, Type (0, 0), BuildingBlock: UVAHIK_clean_linker_0, # of connection points: 2
#     Edge 49, Type (0, 0), BuildingBlock: UVAHIK_clean_linker_0, # of connection points: 2
#     Edge 50, Type (0, 0), BuildingBlock: UVAHIK_clean_linker_0, # of connection points: 2
#     Edge 51, Type (0, 0), BuildingBlock: UVAHIK_clean_linker_0, # of connection points: 2
#     Edge 52, Type (0, 0), BuildingBlock: UVAHIK_clean_linker_0, # of connection points: 2
#     Edge 53, Type (0, 0), BuildingBlock: UVAHIK_clean_linker_0, # of connection points: 2
#     Edge 54, Type (0, 0), BuildingBlock: UVAHIK_clean_linker_0, # of connection points: 2
#     Edge 55, Type (0, 0), BuildingBlock: UVAHIK_clean_linker_0, # of connection points: 2
#     Edge 56, Type (0, 0), BuildingBlock: UVAHIK_clean_linker_0, # of connection points: 2
#     Edge 57, Type (0, 0), BuildingBlock: UVAHIK_clean_linker_0, # of connection points: 2
#     Edge 58, Type (0, 0), BuildingBlock: UVAHIK_clean_linker_0, # of connection points: 2
#     Edge 59, Type (0, 0), BuildingBlock: UVAHIK_clean_linker_0, # of connection points: 2
#     Edge 60, Type (0, 0), BuildingBlock: UVAHIK_clean_linker_0, # of connection points: 2
#     Edge 61, Type (0, 0), BuildingBlock: UVAHIK_clean_linker_0, # of connection points: 2
#     Edge 62, Type (0, 0), BuildingBlock: UVAHIK_clean_linker_0, # of connection points: 2
#     Edge 63, Type (0, 0), BuildingBlock: UVAHIK_clean_linker_0, # of connection points: 2
# Relax obj value: 0.334
# Max RMSD: 0.289
# Mean RMSD: 0.250
data_MOF--net-crs--node1-BETDEL_clean_sbu_0--edge1-UVAHIK_clean_linker_0
_symmetry_space_group_name_H-M    P1
_symmetry_Int_Tables_number       1
_symmetry_cell_setting            triclinic
loop_
_symmetry_equiv_pos_as_xyz
'x, y, z'
_cell_length_a     54.20773
_cell_length_b     54.585071
_cell_length_c     54.752694
_cell_angle_alpha  86.324925
_cell_angle_beta   87.127725
_cell_angle_gamma 82.422368
loop_
_atom_site_label
_atom_site_type_symbol
_atom_site_fract_x
_atom_site_fract_y
_atom_site_fract_z
_atom_type_partial_charge
Dy0 Dy 0.97185 0.96868 0.01312 0.0
C1 C 0.06338 0.00859 0.98337 0.0
C2 C 0.92411 0.95886 0.02068 0.0
Dy3 Dy 0.01781 -0.0048 0.99696 0.0
O4 O 0.94137 0.95361 0.03651 0.0
O5 O 0.93306 0.96894 0.00065 0.0
O6 O -0.00428 0.93799 0.03307 0.0
O7 O 0.00607 0.97409 0.0296 0.0
C8 C 0.01293 0.95183 0.0365 0.0
C9 C 0.97609 0.01026 0.97322 0.0
O10 O 0.02758 0.95745 0.98238 0.0
O11 O 0.98834 0.94434 0.98377 0.0
O12 O 0.04551 0.00781 0.96869 0.0
O13 O 0.0563 0.00235 0.00567 0.0
O14 O 0.99202 0.02519 0.97732 0.0
O15 O 0.98425 0.98857 0.98043 0.0
O16 O 0.964 0.00491 0.0313 0.0
O17 O 0.00286 0.01891 0.0272 0.0
C18 C 0.01215 0.94211 0.97625 0.0
C19 C 0.97973 0.02031 0.03661 0.0
Dy20 Dy 0.00508 0.25983 0.26259 0.0
C21 C 0.95496 0.1827 0.2278 0.0
C22 C 0.02698 0.29861 0.2765 0.0
Dy23 Dy 0.97422 0.22305 0.24165 0.0
O24 O 0.0375 0.27584 0.27637 0.0
O25 O 0.00461 0.30025 0.26858 0.0
O26 O 0.02571 0.22797 0.28419 0.0
O27 O 0.01296 0.22258 0.2496 0.0
C28 C 0.02312 0.21197 0.26827 0.0
C29 C 0.95593 0.27072 0.23576 0.0
O30 O 0.96368 0.21936 0.28199 0.0
O31 O 0.9793 0.25402 0.29465 0.0
O32 O 0.94587 0.20555 0.22268 0.0
O33 O 0.97434 0.1819 0.24099 0.0
O34 O 0.95277 0.25453 0.22019 0.0
O35 O 0.9664 0.26027 0.25434 0.0
O36 O 0.01262 0.26569 0.22202 0.0
O37 O 0.00124 0.22867 0.21036 0.0
C38 C 0.96663 0.23492 0.29903 0.0
C39 C 0.01147 0.24926 0.20543 0.0
Dy40 Dy 0.73202 0.23181 0.50243 0.0
C41 C 0.75091 0.32599 0.53444 0.0
C42 C 0.72946 0.18473 0.49043 0.0
Dy43 Dy 0.7467 0.27865 0.52432 0.0
O44 O 0.73273 0.20306 0.47481 0.0
O45 O 0.72711 0.19223 0.51256 0.0
O46 O 0.70781 0.25567 0.47582 0.0
O47 O 0.74 0.26794 0.488 0.0
C48 C 0.72086 0.27405 0.47579 0.0
C49 C 0.75916 0.23601 0.54969 0.0
O50 O 0.7056 0.28145 0.53395 0.0
O51 O 0.69649 0.24296 0.52326 0.0
O52 O 0.755 0.3069 0.54982 0.0
O53 O 0.74458 0.31915 0.51363 0.0
O54 O 0.77252 0.25419 0.54917 0.0
O55 O 0.73943 0.24237 0.53848 0.0
O56 O 0.77362 0.22769 0.49619 0.0
O57 O 0.7809 0.26812 0.50106 0.0
C58 C 0.69008 0.26465 0.53293 0.0
C59 C 0.78834 0.24539 0.49415 0.0
Dy60 Dy 0.74181 0.98206 0.71667 0.0
C61 C 0.81084 0.01209 0.782 0.0
C62 C 0.70508 0.97796 0.68576 0.0
Dy63 Dy 0.77694 0.00382 0.74949 0.0
O64 O 0.72091 0.95961 0.69378 0.0
O65 O 0.70935 -0.00158 0.6946 0.0
O66 O 0.7641 0.94468 0.72077 0.0
O67 O 0.78178 0.9767 0.72183 0.0
C68 C 0.78452 0.95348 0.72504 0.0
C69 C 0.73382 0.03179 0.74071 0.0
O70 O 0.79335 0.01551 0.71319 0.0
O71 O 0.76037 0.00801 0.69023 0.0
O72 O 0.79482 0.02903 0.77199 0.0
O73 O 0.80852 0.99061 0.77411 0.0
O74 O 0.75418 0.04103 0.74393 0.0
O75 O 0.73706 0.00871 0.74458 0.0
O76 O 0.72634 0.96949 0.75316 0.0
O77 O 0.75993 0.97636 0.7754 0.0
C78 C 0.78121 0.01786 0.69257 0.0
C79 C 0.73907 0.96645 0.77341 0.0
Dy80 Dy 0.53917 0.76801 0.26316 0.0
C81 C 0.48208 0.69556 0.22957 0.0
C82 C 0.55912 0.80841 0.27579 0.0
Dy83 Dy 0.50667 0.73289 0.24212 0.0
O84 O 0.56701 0.78567 0.28283 0.0
O85 O 0.54066 0.80894 0.26148 0.0
O86 O 0.55915 0.73577 0.28488 0.0
O87 O 0.54539 0.73078 0.25055 0.0
C88 C 0.55531 0.71993 0.2692 0.0
C89 C 0.49106 0.78108 0.23546 0.0
O90 O 0.49914 0.72735 0.28257 0.0
O91 O 0.51195 0.76352 0.2945 0.0
O92 O 0.47179 0.71791 0.2334 0.0
O93 O 0.50587 0.69353 0.23281 0.0
O94 O 0.48797 0.76501 0.21979 0.0
O95 O 0.50025 0.77044 0.25464 0.0
O96 O 0.5501 0.77114 0.22291 0.0
O97 O 0.53082 0.73911 0.20905 0.0
C98 C 0.50069 0.74352 0.2993 0.0
C99 C 0.54482 0.75723 0.2053 0.0
Dy100 Dy 0.25153 0.72376 0.47933 0.0
C101 C 0.2678 0.8105 0.52764 0.0
C102 C 0.2467 0.67946 0.46105 0.0
Dy103 Dy 0.26465 0.76611 0.50887 0.0
O104 O 0.2376 0.70097 0.45162 0.0
O105 O 0.25867 0.68213 0.48047 0.0
O106 O 0.22988 0.7515 0.45384 0.0
O107 O 0.26121 0.76084 0.47044 0.0
C108 C 0.24305 0.76903 0.45754 0.0
C109 C 0.27288 0.72089 0.53081 0.0
O110 O 0.22316 0.76952 0.51452 0.0
O111 O 0.21627 0.73115 0.50214 0.0
O112 O 0.28046 0.78962 0.53472 0.0
O113 O 0.25344 0.80718 0.51021 0.0
O114 O 0.28593 0.73845 0.53468 0.0
O115 O 0.25482 0.72913 0.51782 0.0
O116 O 0.29322 0.72082 0.47316 0.0
O117 O 0.29931 0.7595 0.48544 0.0
C118 C 0.2083 0.75248 0.51202 0.0
C119 C 0.30772 0.73827 0.4756 0.0
Dy120 Dy 0.2334 0.47503 0.72289 0.0
C121 C 0.31134 0.51219 0.77346 0.0
C122 C 0.19994 0.46054 0.6933 0.0
Dy123 Dy 0.2715 0.50039 0.75072 0.0
O124 O 0.22396 0.45706 0.68954 0.0
O125 O 0.1941 0.47196 0.71333 0.0
O126 O 0.25266 0.43803 0.73581 0.0
O127 O 0.27309 0.46798 0.72952 0.0
C128 C 0.27404 0.44579 0.73756 0.0
C129 C 0.22447 0.52219 0.7537 0.0
O130 O 0.28168 0.51268 0.71242 0.0
O131 O 0.24849 0.4999 0.6931 0.0
O132 O 0.29543 0.52811 0.76176 0.0
O133 O 0.30579 0.48987 0.77204 0.0
O134 O 0.24047 0.52373 0.7702 0.0
O135 O 0.23512 0.51166 0.7355 0.0
O136 O 0.21928 0.46985 0.76173 0.0
O137 O 0.25653 0.4745 0.77922 0.0
C138 C 0.26851 0.51162 0.69283 0.0
C139 C 0.23393 0.46756 0.78067 0.0
Dy140 Dy 0.97401 0.49134 0.49399 0.0
C141 C 0.06579 0.53199 0.47049 0.0
C142 C 0.92834 0.47795 0.50686 0.0
Dy143 Dy 0.01912 0.519 0.47843 0.0
O144 O 0.94553 0.47992 0.52197 0.0
O145 O 0.93622 0.48278 0.48448 0.0
O146 O -0.00095 0.46153 0.51412 0.0
O147 O 0.00755 0.4981 0.51113 0.0
C148 C 0.01528 0.47615 0.51822 0.0
C149 C 0.97817 0.53395 0.45356 0.0
O150 O 0.02978 0.48121 0.46396 0.0
O151 O 0.99101 0.46707 0.46496 0.0
O152 O 0.05216 0.52596 0.45358 0.0
O153 O 0.05377 0.53137 0.49156 0.0
O154 O 0.9948 0.54844 0.45684 0.0
O155 O 0.98575 0.51218 0.46127 0.0
O156 O 0.96289 0.52892 0.50831 0.0
O157 O 0.00142 0.54327 0.50736 0.0
C158 C 0.01485 0.46542 0.45771 0.0
C159 C 0.97765 0.5447 0.51473 0.0
Dy160 Dy 0.22705 0.2266 0.98247 0.0
C161 C 0.24828 0.31532 0.02515 0.0
C162 C 0.22202 0.18045 0.96894 0.0
Dy163 Dy 0.24298 0.27036 0.00879 0.0
O164 O 0.21791 0.20057 0.95493 0.0
O165 O 0.22869 0.18563 0.99021 0.0
O166 O 0.20702 0.25323 0.95502 0.0
O167 O 0.23903 0.26211 0.97104 0.0
C168 C 0.22132 0.27019 0.95745 0.0
C169 C 0.24842 0.22647 0.03342 0.0
O170 O 0.20123 0.27652 0.01341 0.0
O171 O 0.19125 0.23842 0.00288 0.0
O172 O 0.25043 0.29466 0.03844 0.0
O173 O 0.24352 0.31139 0.00284 0.0
O174 O 0.26341 0.24289 0.03549 0.0
O175 O 0.23076 0.23507 0.02005 0.0
O176 O 0.2689 0.22055 0.97808 0.0
O177 O 0.27887 0.25865 0.9886 0.0
C178 C 0.18502 0.26051 0.01183 0.0
C179 C 0.28522 0.2364 0.98003 0.0
Dy180 Dy 0.23298 0.97257 0.22468 0.0
C181 C 0.30422 0.01984 0.27097 0.0
C182 C 0.19919 0.95222 0.2 0.0
Dy183 Dy 0.26757 0.00382 0.24637 0.0
O184 O 0.22316 0.94718 0.19719 0.0
O185 O 0.19352 0.96864 0.21621 0.0
O186 O 0.25945 0.93878 0.23455 0.0
O187 O 0.27327 0.97228 0.22399 0.0
C188 C 0.27901 0.95023 0.23189 0.0
C189 C 0.22158 0.02686 0.24003 0.0
O190 O 0.2775 0.0106 0.20685 0.0
O191 O 0.24027 0.00047 0.19408 0.0
O192 O 0.28589 0.03412 0.26108 0.0
O193 O 0.30268 -0.0031 0.2671 0.0
O194 O 0.24135 0.03804 0.23832 0.0
O195 O 0.2271 0.00449 0.2472 0.0
O196 O 0.22392 0.96276 0.2638 0.0
O197 O 0.25639 0.9801 0.27918 0.0
C198 C 0.26085 0.01107 0.1899 0.0
C199 C 0.23786 0.96639 0.28206 0.0
Dy200 Dy 0.50689 0.2576 0.77282 0.0
C201 C 0.46372 0.17678 0.7349 0.0
C202 C 0.51562 0.30001 0.79241 0.0
Dy203 Dy 0.48082 0.21406 0.7571 0.0
O204 O 0.53126 0.2798 0.79222 0.0
O205 O 0.49548 0.29702 0.78179 0.0
O206 O 0.54372 0.2395 0.75853 0.0
O207 O 0.5162 0.21769 0.77247 0.0
C208 C 0.53722 0.21734 0.76146 0.0
C209 C 0.45143 0.25487 0.7691 0.0
O210 O 0.48221 0.20341 0.79692 0.0
O211 O 0.49027 0.24199 0.80812 0.0
O212 O 0.45192 0.19883 0.73702 0.0
O213 O 0.48506 0.17484 0.74522 0.0
O214 O 0.44517 0.23284 0.77369 0.0
O215 O 0.47191 0.25393 0.75715 0.0
O216 O 0.50691 0.2668 0.73261 0.0
O217 O 0.49965 0.22773 0.72225 0.0
C218 C 0.4835 0.21967 0.81367 0.0
C219 C 0.50631 0.24997 0.71632 0.0
Dy220 Dy 0.0266 0.74615 0.76534 0.0
C221 C 0.96948 0.68118 0.71938 0.0
C222 C 0.04889 0.78254 0.78361 0.0
Dy223 Dy 0.99375 0.7155 0.73876 0.0
O224 O 0.0556 0.75896 0.78767 0.0
O225 O 0.03028 0.78616 0.76921 0.0
O226 O 0.04335 0.71099 0.7853 0.0
O227 O 0.03196 0.71052 0.74923 0.0
C228 C 0.04004 0.69739 0.76745 0.0
C229 C 0.98092 0.76434 0.73541 0.0
O230 O 0.98256 0.7077 0.77842 0.0
O231 O -0.00235 0.74091 0.79448 0.0
O232 O 0.9604 0.70412 0.72204 0.0
O233 O 0.99171 0.67685 0.72783 0.0
O234 O 0.97827 0.7501 0.71788 0.0
O235 O 0.98829 0.75172 0.75434 0.0
O236 O 0.03919 0.75291 0.726 0.0
O237 O 0.022 0.72144 0.70882 0.0
C238 C 0.98481 0.72184 0.79684 0.0
C239 C 0.03602 0.73965 0.70716 0.0
Dy240 Dy 0.72714 0.48395 0.22788 0.0
C241 C 0.79198 0.5301 0.28605 0.0
C242 C 0.69119 0.46541 0.20427 0.0
Dy243 Dy 0.75771 0.50914 0.26236 0.0
O244 O 0.68704 0.47998 0.22226 0.0
O245 O 0.71496 0.46072 0.19943 0.0
O246 O 0.76194 0.47295 0.20496 0.0
O247 O 0.76399 0.4756 0.24275 0.0
C248 C 0.77662 0.47229 0.22309 0.0
C249 C 0.70847 0.51852 0.26869 0.0
O250 O 0.762 0.53149 0.22672 0.0
O251 O 0.72952 0.51943 0.20621 0.0
O252 O 0.76802 0.53548 0.28885 0.0
O253 O 0.79729 0.51326 0.27022 0.0
O254 O 0.72359 0.51716 0.28651 0.0
O255 O 0.7204 0.51707 0.24835 0.0
O256 O 0.72279 0.46143 0.26334 0.0
O257 O 0.75501 0.47368 0.28432 0.0
C258 C 0.74722 0.53371 0.20788 0.0
C259 C 0.73718 0.45947 0.2825 0.0
Dy260 Dy 0.73309 0.71926 0.96874 0.0
C261 C 0.74759 0.81486 0.00134 0.0
C262 C 0.72975 0.67119 0.96038 0.0
Dy263 Dy 0.74497 0.76761 0.98962 0.0
O264 O 0.72878 0.68919 0.94359 0.0
O265 O 0.73244 0.67954 0.9816 0.0
O266 O 0.71206 0.74187 0.9388 0.0
O267 O 0.74302 0.75442 0.9534 0.0
C268 C 0.72549 0.75993 0.93902 0.0
C269 C 0.75289 0.72706 0.01936 0.0
O270 O 0.70309 0.77236 0.99053 0.0
O271 O 0.69671 0.7314 0.98761 0.0
O272 O 0.74359 0.79675 0.01692 0.0
O273 O 0.75037 0.80713 0.97931 0.0
O274 O 0.76605 0.7453 0.01946 0.0
O275 O 0.73521 0.73241 0.00509 0.0
O276 O 0.77484 0.7147 0.9662 0.0
O277 O 0.78241 0.75473 0.97308 0.0
C278 C 0.68843 0.75463 0.99229 0.0
C279 C 0.79009 0.73173 0.96707 0.0
Dy280 Dy 0.46586 -0.00087 0.49739 0.0
C281 C 0.55381 0.04466 0.47292 0.0
C282 C 0.42118 0.98271 0.50845 0.0
Dy283 Dy 0.50761 0.03132 0.48178 0.0
O284 O 0.43687 0.98668 0.52442 0.0
O285 O 0.4301 0.98717 0.48641 0.0
O286 O 0.49372 0.97114 0.51667 0.0
O287 O 0.49828 0.00886 0.51407 0.0
C288 C 0.5083 0.9875 0.52054 0.0
C289 C 0.46568 0.04279 0.45765 0.0
O290 O 0.51857 -0.00255 0.4605 0.0
O291 O 0.48393 0.97638 0.46744 0.0
O292 O 0.54917 0.02317 0.48209 0.0
O293 O 0.53317 0.05917 0.46905 0.0
O294 O 0.48081 0.05889 0.46062 0.0
O295 O 0.47534 0.02161 0.46506 0.0
O296 O 0.45294 0.03575 0.51358 0.0
O297 O 0.49114 0.05043 0.51456 0.0
C298 C 0.50599 0.97889 0.45661 0.0
C299 C 0.46737 0.05102 0.52175 0.0
Dy300 Dy 0.45327 0.49551 0.01886 0.0
C301 C 0.54328 0.53497 0.98696 0.0
C302 C 0.4076 0.4824 0.03225 0.0
Dy303 Dy 0.49719 0.52278 -3e-05 0.0
O304 O 0.42708 0.47787 0.04544 0.0
O305 O 0.41312 0.49377 0.01155 0.0
O306 O 0.4798 0.46578 0.03708 0.0
O307 O 0.48796 0.50257 0.03386 0.0
C308 C 0.49619 0.48054 0.0403 0.0
C309 C 0.45482 0.53609 0.97635 0.0
O310 O 0.50487 0.48707 0.98078 0.0
O311 O 0.46688 0.47177 0.9881 0.0
O312 O 0.53885 0.51353 0.99651 0.0
O313 O 0.52262 0.54983 0.98492 0.0
O314 O 0.47132 0.55098 0.97836 0.0
O315 O 0.46324 0.51489 0.98478 0.0
O316 O 0.44455 0.53232 0.03549 0.0
O317 O 0.48409 0.54442 0.03237 0.0
C318 C 0.48936 0.47085 0.97718 0.0
C319 C 0.46075 0.54696 0.04125 0.0
C320 C 0.95003 0.03606 0.07026 0.0
C321 C 0.97201 0.03788 0.05584 0.0
C322 C 0.94451 0.05023 0.09066 0.0
C323 C 0.93224 0.09059 0.12714 0.0
H324 H 0.9887 0.09825 0.16542 0.0
C325 C 0.93203 0.16579 0.19592 0.0
C326 C 0.94856 0.16161 0.21511 0.0
C327 C 0.93067 0.14739 0.17967 0.0
C328 C 0.9726 0.09591 0.1553 0.0
H329 H 0.0046 0.05715 0.05062 0.0
H330 H 0.99467 0.08224 0.0858 0.0
H331 H 0.99502 0.07395 0.12959 0.0
H332 H 0.97457 0.13428 0.23412 0.0
H333 H 0.97163 0.10177 0.2062 0.0
H334 H 0.9098 0.11247 0.15311 0.0
C335 C 0.98207 0.06934 0.08178 0.0
C336 C 0.97632 0.08236 0.13443 0.0
C337 C 0.98766 0.0551 0.06148 0.0
C338 C 0.96185 0.138 0.2193 0.0
C339 C 0.96031 0.11949 0.20318 0.0
C340 C 0.92847 0.10411 0.14816 0.0
C341 C 0.9608 0.06657 0.09697 0.0
C342 C 0.9563 0.07998 0.11982 0.0
C343 C 0.94569 0.12442 0.18248 0.0
C344 C 0.94871 0.10728 0.16223 0.0
H345 H 0.93756 0.02296 0.06646 0.0
H346 H 0.92803 0.04763 0.10203 0.0
H347 H 0.91642 0.08907 0.11627 0.0
H348 H 0.92152 0.18386 0.19235 0.0
H349 H 0.91928 0.1519 0.16391 0.0
C350 C 0.81856 0.21895 0.46793 0.0
C351 C 0.81298 0.24012 0.48151 0.0
C352 C 0.84011 0.21581 0.45284 0.0
C353 C 0.88218 0.25425 0.41866 0.0
H354 H 0.9167 0.19079 0.4004 0.0
C355 C 0.9575 0.24819 0.34168 0.0
C356 C 0.95424 0.23195 0.32351 0.0
C357 C 0.94442 0.24694 0.36418 0.0
C358 C 0.9072 0.20861 0.40537 0.0
H359 H 0.82669 0.27349 0.49162 0.0
H360 H 0.86469 0.26766 0.46579 0.0
H361 H 0.88706 0.19262 0.43563 0.0
H362 H 0.93564 0.2008 0.31526 0.0
H363 H 0.91253 0.19881 0.35467 0.0
H364 H 0.90193 0.27022 0.38827 0.0
C365 C 0.852 0.25388 0.46618 0.0
C366 C 0.89024 0.20969 0.42549 0.0
C367 C 0.83028 0.25717 0.48107 0.0
C368 C 0.93845 0.21367 0.3288 0.0
C369 C 0.92536 0.21241 0.35141 0.0
C370 C 0.89923 0.25319 0.39875 0.0
C371 C 0.8567 0.23364 0.4512 0.0
C372 C 0.87716 0.2325 0.43207 0.0
C373 C 0.92782 0.22942 0.36908 0.0
C374 C 0.91158 0.23035 0.39163 0.0
H375 H 0.80565 0.2054 0.46788 0.0
H376 H 0.84296 0.20012 0.44142 0.0
H377 H 0.8721 0.27208 0.42279 0.0
H378 H 0.96977 0.2623 0.3384 0.0
H379 H 0.94693 0.26005 0.37761 0.0
C380 C 0.80139 0.05431 0.6768 0.0
C381 C 0.79008 0.03357 0.67203 0.0
C382 C 0.8053 0.0721 0.65808 0.0
C383 C 0.77869 0.09476 0.59864 0.0
H384 H 0.8217 0.145 0.60545 0.0
C385 C 0.74931 0.19481 0.56578 0.0
C386 C 0.76717 0.21062 0.55914 0.0
C387 C 0.75662 0.17059 0.57465 0.0
C388 C 0.80985 0.13101 0.60277 0.0
H389 H 0.77634 0.01364 0.64371 0.0
H390 H 0.78466 0.04384 0.61058 0.0
H391 H 0.8297 0.10551 0.62829 0.0
H392 H 0.80661 0.21364 0.55559 0.0
H393 H 0.81964 0.17087 0.57024 0.0
H394 H 0.75949 0.11981 0.57236 0.0
C395 C 0.78935 0.04719 0.62896 0.0
C396 C 0.8142 0.10839 0.61628 0.0
C397 C 0.78477 0.02974 0.64787 0.0
C398 C 0.79252 0.20177 0.561 0.0
C399 C 0.79992 0.1773 0.56941 0.0
C400 C 0.7748 0.11705 0.58463 0.0
C401 C 0.79853 0.06923 0.63401 0.0
C402 C 0.79785 0.09048 0.61541 0.0
C403 C 0.78203 0.16143 0.57658 0.0
C404 C 0.78946 0.13601 0.58751 0.0
H405 H 0.80554 0.05776 0.69533 0.0
H406 H 0.81205 0.08883 0.66301 0.0
H407 H 0.76557 0.08164 0.59728 0.0
H408 H 0.72962 0.20134 0.56457 0.0
H409 H 0.74219 0.15932 0.58058 0.0
C410 C 0.94363 -0.0036 0.94914 0.0
C411 C 0.9552 0.01594 0.95679 0.0
C412 C 0.92482 0.00086 0.93251 0.0
C413 C 0.90276 0.04306 0.88202 0.0
H414 H 0.84809 0.00348 0.88751 0.0
C415 C 0.82962 0.04042 0.80756 0.0
C416 C 0.82719 0.01625 0.80149 0.0
C417 C 0.84356 0.04427 0.82745 0.0
C418 C 0.8632 0.01472 0.88581 0.0
H419 H 0.95626 0.05554 0.95314 0.0
H420 H 0.92308 0.06347 0.9235 0.0
H421 H 0.87403 0.00458 0.92242 0.0
H422 H 0.83766 0.97722 0.81085 0.0
H423 H 0.86174 0.98394 0.8458 0.0
H424 H 0.89201 0.05274 0.84509 0.0
C425 C 0.92862 0.04469 0.93065 0.0
C426 C 0.87802 0.01538 0.90574 0.0
C427 C 0.94748 0.04019 0.94758 0.0
C428 C 0.83927 -0.00398 0.8152 0.0
C429 C 0.85286 -0.00014 0.83524 0.0
C430 C 0.88771 0.04258 0.86208 0.0
C431 C 0.91719 0.02498 0.92293 0.0
C432 C 0.89856 0.02873 0.90373 0.0
C433 C 0.85485 0.02399 0.84171 0.0
C434 C 0.86843 0.02765 0.86359 0.0
H435 H 0.94961 0.97743 0.95542 0.0
H436 H 0.91689 0.98519 0.92646 0.0
H437 H 0.91854 0.0534 0.87992 0.0
H438 H 0.82045 0.05631 0.79719 0.0
H439 H 0.84491 0.06302 0.83212 0.0
C440 C 0.05143 0.96075 0.05497 0.0
C441 C 0.03489 0.94385 0.05105 0.0
C442 C 0.07159 0.95383 0.06978 0.0
C443 C 0.11938 0.92916 0.09232 0.0
H444 H 0.10162 0.91165 0.16014 0.0
C445 C 0.19003 0.92634 0.16669 0.0
C446 C 0.18134 0.94207 0.18544 0.0
C447 C 0.17338 0.91885 0.15097 0.0
C448 C 0.10689 0.91618 0.1412 0.0
H449 H 0.02632 0.90643 0.05936 0.0
H450 H 0.0614 0.89455 0.08622 0.0
H451 H 0.07063 0.91288 0.12885 0.0
H452 H 0.14856 0.96112 0.20356 0.0
H453 H 0.11934 0.94811 0.17595 0.0
H454 H 0.15515 0.93372 0.10466 0.0
C455 C 0.05888 0.91297 0.07736 0.0
C456 C 0.08928 0.9167 0.12334 0.0
C457 C 0.03892 0.91977 0.06206 0.0
C458 C 0.15567 0.94907 0.18914 0.0
C459 C 0.13898 0.94145 0.17349 0.0
C460 C 0.13704 0.92836 0.11007 0.0
C461 C 0.07529 0.93003 0.08135 0.0
C462 C 0.09516 0.92411 0.09896 0.0
C463 C 0.14778 0.92684 0.15386 0.0
C464 C 0.13066 0.92276 0.1348 0.0
H465 H 0.04844 0.97954 0.04714 0.0
H466 H 0.08375 0.96744 0.07298 0.0
H467 H 0.12427 0.93488 0.07358 0.0
H468 H 0.20978 0.92055 0.16361 0.0
H469 H 0.18059 0.90746 0.13606 0.0
C470 C 0.01228 0.42583 0.43806 0.0
C471 C 0.02478 0.44642 0.44056 0.0
C472 C 0.02017 0.40927 0.42001 0.0
C473 C 0.04876 0.37154 0.38663 0.0
H474 H 0.04956 0.40206 0.32063 0.0
C475 C 0.05734 0.31226 0.30368 0.0
C476 C 0.03654 0.31815 0.28913 0.0
C477 C 0.06309 0.32903 0.32007 0.0
C478 C 0.04976 0.39332 0.33896 0.0
H479 H 0.05576 0.46547 0.4266 0.0
H480 H 0.06915 0.4367 0.39465 0.0
H481 H 0.04609 0.42807 0.35578 0.0
H482 H 0.00679 0.34678 0.27852 0.0
H483 H 0.01704 0.37627 0.30693 0.0
H484 H 0.05143 0.33688 0.36993 0.0
C485 C 0.05342 0.43336 0.40683 0.0
C486 C 0.0479 0.40814 0.35902 0.0
C487 C 0.0458 0.4497 0.42517 0.0
C488 C 0.0229 0.34182 0.28961 0.0
C489 C 0.02883 0.35871 0.30578 0.0
C490 C 0.05099 0.35671 0.3666 0.0
C491 C 0.04045 0.41321 0.4039 0.0
C492 C 0.0466 0.39739 0.38299 0.0
C493 C 0.04832 0.35204 0.32187 0.0
C494 C 0.05075 0.36752 0.3426 0.0
H495 H -0.00392 0.42279 0.4497 0.0
H496 H 0.00973 0.39396 0.41796 0.0
H497 H 0.0479 0.36286 0.40496 0.0
H498 H 0.06818 0.29411 0.30359 0.0
H499 H 0.07833 0.32357 0.33215 0.0
C500 C 0.64492 0.25938 0.53642 0.0
C501 C 0.66512 0.26957 0.54486 0.0
C502 C 0.62184 0.2622 0.54922 0.0
C503 C 0.58227 0.25378 0.58827 0.0
H504 H 0.56555 0.30502 0.63428 0.0
C505 C 0.52859 0.23536 0.67818 0.0
C506 C 0.51621 0.25497 0.69122 0.0
C507 C 0.5411 0.24001 0.65586 0.0
C508 C 0.56935 0.29077 0.62125 0.0
H509 H 0.6771 0.29112 0.57286 0.0
H510 H 0.63772 0.2947 0.59603 0.0
H511 H 0.59699 0.30996 0.60216 0.0
H512 H 0.50563 0.29465 0.69051 0.0
H513 H 0.52624 0.30281 0.6507 0.0
H514 H 0.55377 0.23519 0.60656 0.0
C515 C 0.63894 0.28546 0.57903 0.0
C516 C 0.58792 0.29338 0.60301 0.0
C517 C 0.66174 0.28323 0.56585 0.0
C518 C 0.51529 0.27923 0.68087 0.0
C519 C 0.52729 0.28387 0.65814 0.0
C520 C 0.56317 0.25153 0.60602 0.0
C521 C 0.61873 0.27462 0.57117 0.0
C522 C 0.59555 0.27434 0.58706 0.0
C523 C 0.54105 0.26438 0.64567 0.0
C524 C 0.55734 0.26936 0.62359 0.0
H525 H 0.64702 0.24901 0.52005 0.0
H526 H 0.60666 0.25415 0.54213 0.0
H527 H 0.58739 0.23862 0.57646 0.0
H528 H 0.52985 0.21647 0.68588 0.0
H529 H 0.55186 0.22446 0.64735 0.0
C530 C 0.74502 0.94476 0.81471 0.0
C531 C 0.73043 0.95054 0.79412 0.0
C532 C 0.73866 0.92731 0.83287 0.0
C533 C 0.70581 0.87261 0.84008 0.0
H534 H 0.72151 0.87485 0.90816 0.0
C535 C 0.6999 0.78963 0.9107 0.0
C536 C 0.72139 0.78345 0.92422 0.0
C537 C 0.69631 0.81207 0.89668 0.0
C538 C 0.71697 0.87402 0.88921 0.0
H539 H 0.69682 0.94363 0.77722 0.0
H540 H 0.68555 0.91338 0.80915 0.0
H541 H 0.72265 0.91171 0.88064 0.0
H542 H 0.7562 0.79539 0.93335 0.0
H543 H 0.7498 0.8346 0.90929 0.0
H544 H 0.70072 0.83473 0.84858 0.0
C545 C 0.70219 0.92201 0.81098 0.0
C546 C 0.71767 0.89508 0.87345 0.0
C547 C 0.7086 0.93944 0.79274 0.0
C548 C 0.73919 0.79997 0.92354 0.0
C549 C 0.73552 0.82242 0.90978 0.0
C550 C 0.70497 0.8516 0.8559 0.0
C551 C 0.71749 0.9153 0.83094 0.0
C552 C 0.71284 0.89439 0.84853 0.0
C553 C 0.71409 0.82868 0.89615 0.0
C554 C 0.71127 0.85189 0.88042 0.0
H555 H 0.76195 0.95295 0.8164 0.0
H556 H 0.75106 0.92239 0.84781 0.0
H557 H 0.70227 0.87133 0.82095 0.0
H558 H 0.68591 0.77716 0.91095 0.0
H559 H 0.67963 0.81646 0.88632 0.0
C560 C 0.15682 0.28217 0.04301 0.0
C561 C 0.16009 0.26627 0.02366 0.0
C562 C 0.13467 0.28461 0.05716 0.0
C563 C 0.08552 0.29101 0.08457 0.0
H564 H 0.05685 0.22984 0.09668 0.0
C565 C 0.0205 0.27733 0.16933 0.0
C566 C 0.02275 0.25352 0.18086 0.0
C567 C 0.03135 0.28126 0.14595 0.0
C568 C 0.06482 0.24702 0.0938 0.0
H569 H 0.14204 0.24215 0.00245 0.0
H570 H 0.10262 0.24753 0.02622 0.0
H571 H 0.08698 0.2335 0.06315 0.0
H572 H 0.0379 0.21515 0.17743 0.0
H573 H 0.05846 0.22206 0.13771 0.0
H574 H 0.06554 0.30351 0.11684 0.0
C575 C 0.11758 0.25723 0.03132 0.0
C576 C 0.08179 0.24937 0.07404 0.0
C577 C 0.14009 0.25428 0.01752 0.0
C578 C 0.03584 0.23367 0.16876 0.0
C579 C 0.04735 0.23768 0.14577 0.0
C580 C 0.0692 0.28835 0.10482 0.0
C581 C 0.1149 0.27167 0.05196 0.0
C582 C 0.09314 0.27107 0.06969 0.0
C583 C 0.04535 0.26156 0.13399 0.0
C584 C 0.05933 0.26595 0.11027 0.0
H585 H 0.17196 0.29156 0.0483 0.0
H586 H 0.13381 0.29553 0.07306 0.0
H587 H 0.09303 0.3084 0.08134 0.0
H588 H 0.01009 0.29284 0.17827 0.0
H589 H 0.02879 0.29979 0.13739 0.0
C590 C 0.71218 0.42807 0.3032 0.0
C591 C 0.7329 0.44112 0.30276 0.0
C592 C 0.70752 0.4116 0.32295 0.0
C593 C 0.72283 0.3959 0.38761 0.0
H594 H 0.70389 0.33185 0.37539 0.0
C595 C 0.73612 0.31188 0.45614 0.0
C596 C 0.71768 0.296 0.45867 0.0
C597 C 0.7343 0.33162 0.43863 0.0
C598 C 0.70872 0.34984 0.37913 0.0
H599 H 0.76517 0.44686 0.32258 0.0
H600 H 0.75732 0.4178 0.35671 0.0
H601 H 0.70827 0.36213 0.34126 0.0
H602 H 0.68262 0.28848 0.44536 0.0
H603 H 0.67952 0.32306 0.41437 0.0
H604 H 0.72403 0.38326 0.4254 0.0
C605 C 0.74437 0.42067 0.34205 0.0
C606 C 0.71127 0.36717 0.35959 0.0
C607 C 0.74899 0.43718 0.32236 0.0
C608 C 0.69708 0.30048 0.44373 0.0
C609 C 0.69535 0.32018 0.42601 0.0
C610 C 0.72038 0.37855 0.40712 0.0
C611 C 0.72352 0.40781 0.34263 0.0
C612 C 0.71882 0.3902 0.36357 0.0
C613 C 0.71411 0.33574 0.42313 0.0
C614 C 0.71375 0.35519 0.403 0.0
H615 H 0.69931 0.43082 0.28847 0.0
H616 H 0.69118 0.40211 0.32297 0.0
H617 H 0.72815 0.4137 0.39132 0.0
H618 H 0.75241 0.30859 0.46713 0.0
H619 H 0.74924 0.34306 0.43657 0.0
C620 C 0.53925 0.95909 0.54492 0.0
C621 C 0.53022 0.98303 0.53572 0.0
C622 C 0.55874 0.95561 0.56115 0.0
C623 C 0.58462 0.98832 0.60728 0.0
H624 H 0.64588 0.94371 0.59871 0.0
C625 C 0.67023 -0.00239 0.66062 0.0
C626 C 0.68508 0.97608 0.66913 0.0
C627 C 0.65112 -0.00387 0.64493 0.0
C628 C 0.6287 0.95593 0.60158 0.0
H629 H 0.53503 0.02191 0.53525 0.0
H630 H 0.56869 0.01583 0.56363 0.0
H631 H 0.61288 0.94477 0.56951 0.0
H632 H 0.69182 0.93614 0.66809 0.0
H633 H 0.65792 0.93345 0.64084 0.0
H634 H 0.60003 -0.00047 0.63922 0.0
C635 C 0.56067 -0.00017 0.55852 0.0
C636 C 0.60991 0.95655 0.58485 0.0
C637 C 0.54148 0.00326 0.54222 0.0
C638 C 0.68058 0.953 0.66168 0.0
C639 C 0.6613 0.95149 0.64603 0.0
C640 C 0.60319 0.98754 0.62406 0.0
C641 C 0.56913 0.97607 0.56849 0.0
C642 C 0.58801 0.97321 0.58729 0.0
C643 C 0.64629 0.97306 0.63758 0.0
C644 C 0.62571 0.97183 0.62106 0.0
H645 H 0.5309 0.94321 0.54005 0.0
H646 H 0.56506 0.93712 0.56862 0.0
H647 H 0.56766 0.00099 0.60975 0.0
H648 H 0.67344 0.01565 0.666 0.0
H649 H 0.64027 0.01315 0.63834 0.0
C650 C 0.04536 0.9232 0.94725 0.0
C651 C 0.02135 0.92353 0.95836 0.0
C652 C 0.05277 0.90824 0.92775 0.0
C653 C 0.02499 0.87966 0.87893 0.0
H654 H 0.09091 0.84353 0.8689 0.0
C655 C 0.06949 0.79497 0.81957 0.0
C656 C 0.05632 0.80175 0.79825 0.0
C657 C 0.0706 0.81227 0.83707 0.0
C658 C 0.07246 0.85361 0.87144 0.0
H659 H 0.98694 0.90715 0.95882 0.0
H660 H 5e-05 0.88077 0.92512 0.0
H661 H 0.08102 0.86663 0.90575 0.0
H662 H 0.03663 0.8323 0.77691 0.0
H663 H 0.03926 0.86276 0.80707 0.0
H664 H 0.01593 0.86605 0.84535 0.0
C665 C 0.0129 0.89256 0.93109 0.0
C666 C 0.06684 0.86689 0.89246 0.0
C667 C 0.00546 0.90754 0.95052 0.0
C668 C 0.04665 0.8266 0.79339 0.0
C669 C 0.04799 0.84395 0.81074 0.0
C670 C 0.03057 0.86644 0.85803 0.0
C671 C 0.03634 0.89331 0.91904 0.0
C672 C 0.04289 0.8797 0.89658 0.0
C673 C 0.05873 0.83663 0.83335 0.0
C674 C 0.05426 0.85301 0.85414 0.0
H675 H 0.05812 0.93524 0.95287 0.0
H676 H 0.07091 0.90926 0.91881 0.0
H677 H 0.00653 0.88977 0.88133 0.0
H678 H 0.07718 0.77589 0.82369 0.0
H679 H 0.07899 0.80599 0.85428 0.0
C680 C 0.10465 0.01979 0.99348 0.0
C681 C 0.08737 0.01714 0.97593 0.0
C682 C 0.12604 0.03074 0.98669 0.0
C683 C 0.14443 0.07758 0.94224 0.0
H684 H 0.20797 0.06316 0.97306 0.0
C685 C 0.20871 0.152 0.93973 0.0
C686 C 0.21663 0.1559 0.96299 0.0
C687 C 0.19984 0.12984 0.93544 0.0
C688 C 0.19037 0.06738 0.96421 0.0
H689 H 0.07952 0.02204 0.93736 0.0
H690 H 0.1169 0.04119 0.92549 0.0
H691 H 0.17868 0.03256 0.97683 0.0
H692 H 0.22337 0.13931 -0.00053 0.0
H693 H 0.20715 0.10112 0.99237 0.0
H694 H 0.15506 0.1129 0.93102 0.0
C695 C 0.11383 0.0351 0.94449 0.0
C696 C 0.17365 0.04986 0.96635 0.0
C697 C 0.09247 0.02417 0.95128 0.0
C698 C 0.21723 0.13676 0.98138 0.0
C699 C 0.20814 0.11474 0.9772 0.0
C700 C 0.161 0.09512 0.94026 0.0
C701 C 0.13042 0.03921 0.96225 0.0
C702 C 0.15017 0.05518 0.9561 0.0
C703 C 0.19847 0.11138 0.95446 0.0
C704 C 0.18377 0.09063 0.952 0.0
H705 H 0.10115 0.01437 0.01259 0.0
H706 H 0.13834 0.03389 0.00084 0.0
H707 H 0.12637 0.08237 0.93437 0.0
H708 H 0.20839 0.16644 0.92518 0.0
H709 H 0.193 0.12762 0.91757 0.0
C710 C 0.67019 0.5255 0.29536 0.0
C711 C 0.68156 0.52599 0.27179 0.0
C712 C 0.64605 0.53729 0.29932 0.0
C713 C 0.59225 0.5747 0.26885 0.0
H714 H 0.6032 0.62188 0.31586 0.0
C715 C 0.56166 0.67766 0.25391 0.0
C716 C 0.55923 0.69298 0.27368 0.0
C717 C 0.56712 0.65209 0.25793 0.0
C718 C 0.59909 0.60868 0.3032 0.0
H719 H 0.67594 0.53635 0.23343 0.0
H720 H 0.63406 0.55781 0.24037 0.0
H721 H 0.62963 0.58295 0.31516 0.0
H722 H 0.55817 0.69393 0.31318 0.0
H723 H 0.56691 0.6491 0.32043 0.0
H724 H 0.56232 0.60126 0.25615 0.0
C725 C 0.64351 0.54811 0.25581 0.0
C726 C 0.6144 0.58616 0.30279 0.0
C727 C 0.66761 0.53606 0.25183 0.0
C728 C 0.56063 0.68239 0.29764 0.0
C729 C 0.56556 0.65675 0.30173 0.0
C730 C 0.57666 0.59722 0.26944 0.0
C731 C 0.63308 0.55004 0.27979 0.0
C732 C 0.61207 0.56955 0.28473 0.0
C733 C 0.56984 0.64134 0.28188 0.0
C734 C 0.58091 0.61507 0.28567 0.0
H735 H 0.68048 0.51729 0.31097 0.0
H736 H 0.63827 0.53808 0.31792 0.0
H737 H 0.58979 0.56202 0.255 0.0
H738 H 0.56045 0.68552 0.23526 0.0
H739 H 0.57062 0.641 0.24213 0.0
C740 C 0.29247 0.83642 0.54976 0.0
C741 C 0.27212 0.83474 0.53548 0.0
C742 C 0.29972 0.85942 0.55338 0.0
C743 C 0.29674 0.92033 0.52046 0.0
H744 H 0.343 0.92854 0.57006 0.0
C745 C 0.38448 0.96417 0.49645 0.0
C746 C 0.39696 0.97412 0.51447 0.0
C747 C 0.36239 0.95428 0.5025 0.0
C748 C 0.32973 0.92715 0.55625 0.0
H749 H 0.24169 0.85557 0.51589 0.0
H750 H 0.2537 0.89602 0.52303 0.0
H751 H 0.31397 0.89858 0.57769 0.0
H752 H 0.39559 0.98328 0.55246 0.0
H753 H 0.35637 0.96694 0.56294 0.0
H754 H 0.31215 0.94923 0.49921 0.0
C755 C 0.2647 0.87959 0.5307 0.0
C756 C 0.31327 0.90958 0.56051 0.0
C757 C 0.2577 0.85647 0.52672 0.0
C758 C 0.38641 0.97529 0.53834 0.0
C759 C 0.36399 0.96587 0.54432 0.0
C760 C 0.31273 0.93835 0.51647 0.0
C761 C 0.2865 0.88129 0.54309 0.0
C762 C 0.29781 0.90476 0.54198 0.0
C763 C 0.35202 0.95462 0.52662 0.0
C764 C 0.33059 0.9408 0.5336 0.0
H765 H 0.30384 0.8199 0.55679 0.0
H766 H 0.31678 0.85972 0.56274 0.0
H767 H 0.28505 0.91742 0.50573 0.0
H768 H 0.3923 0.96311 0.47789 0.0
H769 H 0.35417 0.94535 0.48841 0.0
C770 C 0.04461 0.65548 0.78887 0.0
C771 C 0.04654 0.67055 0.76739 0.0
C772 C 0.05242 0.63004 0.78867 0.0
C773 C 0.08498 0.58206 0.74637 0.0
H774 H 0.11785 0.55886 0.80607 0.0
C775 C 0.18083 0.5249 0.74003 0.0
C776 C 0.1976 0.52988 0.75712 0.0
C777 C 0.15527 0.53197 0.74389 0.0
C778 C 0.10924 0.56533 0.78903 0.0
H779 H 0.0565 0.67126 0.72864 0.0
H780 H 0.07239 0.62809 0.72849 0.0
H781 H 0.08409 0.59182 0.80732 0.0
H782 H 0.20118 0.5464 0.79145 0.0
H783 H 0.15762 0.56111 0.79699 0.0
H784 H 0.11249 0.5582 0.72751 0.0
C785 C 0.06387 0.63478 0.74546 0.0
C786 C 0.08912 0.58405 0.78983 0.0
C787 C 0.05514 0.65989 0.74551 0.0
C788 C 0.18858 0.54221 0.778 0.0
C789 C 0.16327 0.55019 0.7814 0.0
C790 C 0.10602 0.5644 0.74534 0.0
C791 C 0.06342 0.61945 0.76722 0.0
C792 C 0.07801 0.59417 0.7681 0.0
C793 C 0.14609 0.54536 0.76435 0.0
C794 C 0.11966 0.55728 0.76641 0.0
H795 H 0.03726 0.6634 0.8058 0.0
H796 H 0.05059 0.61901 0.80562 0.0
H797 H 0.07567 0.58768 0.72952 0.0
H798 H 0.18748 0.51589 0.72353 0.0
H799 H 0.14295 0.52736 0.73044 0.0
C800 C 0.75839 0.36802 0.51837 0.0
C801 C 0.75711 0.35078 0.53835 0.0
C802 C 0.76952 0.38934 0.52058 0.0
C803 C 0.81912 0.40645 0.55587 0.0
H804 H 0.81027 0.46573 0.51259 0.0
C805 C 0.89729 0.46681 0.53921 0.0
C806 C 0.90364 0.4711 0.51428 0.0
C807 C 0.87455 0.4587 0.5464 0.0
C808 C 0.81286 0.44934 0.5249 0.0
H809 H 0.76362 0.3434 0.57698 0.0
H810 H 0.78242 0.38111 0.58115 0.0
H811 H 0.77646 0.44018 0.51919 0.0
H812 H 0.89093 0.47161 0.47735 0.0
H813 H 0.85126 0.45691 0.48987 0.0
H814 H 0.85575 0.41496 0.56086 0.0
C815 C 0.77561 0.37782 0.56354 0.0
C816 C 0.79355 0.43472 0.52869 0.0
C817 C 0.76477 0.35631 0.56122 0.0
C818 C 0.88647 0.46825 0.49668 0.0
C819 C 0.86369 0.46011 0.50388 0.0
C820 C 0.83827 0.42113 0.55225 0.0
C821 C 0.77933 0.39389 0.54292 0.0
C822 C 0.79686 0.41256 0.54343 0.0
C823 C 0.85777 0.45472 0.52879 0.0
C824 C 0.8357 0.44219 0.53601 0.0
H825 H 0.75245 0.36421 0.50054 0.0
H826 H 0.77216 0.40114 0.50425 0.0
H827 H 0.8226 0.38935 0.56703 0.0
H828 H 0.91014 0.46917 0.55315 0.0
H829 H 0.87036 0.45493 0.56573 0.0
C830 C 0.3091 0.91238 0.23881 0.0
C831 C 0.30468 0.93801 0.23363 0.0
C832 C 0.33336 0.90026 0.23835 0.0
C833 C 0.39851 0.90558 0.24348 0.0
H834 H 0.40752 0.84987 0.20194 0.0
C835 C 0.47304 0.81754 0.21013 0.0
C836 C 0.47951 0.80689 0.23327 0.0
C837 C 0.45734 0.83983 0.20808 0.0
C838 C 0.4056 0.86567 0.21322 0.0
H839 H 0.32192 0.97139 0.22509 0.0
H840 H 0.36469 0.94999 0.22466 0.0
H841 H 0.3678 0.87609 0.20365 0.0
H842 H 0.47721 0.81216 0.27224 0.0
H843 H 0.44881 0.85078 0.2688 0.0
H844 H 0.43624 0.89442 0.25374 0.0
C845 C 0.3493 0.93941 0.2289 0.0
C846 C 0.38273 0.88045 0.21441 0.0
C847 C 0.32493 0.95155 0.22908 0.0
C848 C 0.47218 0.81999 0.2542 0.0
C849 C 0.4561 0.84218 0.2522 0.0
C850 C 0.42152 0.89055 0.24247 0.0
C851 C 0.35358 0.91361 0.23294 0.0
C852 C 0.37879 0.90009 0.22998 0.0
C853 C 0.44748 0.85154 0.2292 0.0
C854 C 0.42507 0.87015 0.22765 0.0
H855 H 0.29381 0.90157 0.24254 0.0
H856 H 0.33633 0.88034 0.2418 0.0
H857 H 0.39579 0.92074 0.25558 0.0
H858 H 0.47898 0.80793 0.1937 0.0
H859 H 0.45147 0.84697 0.19008 0.0
C860 C 0.31871 0.43512 0.74716 0.0
C861 C 0.29363 0.4328 0.7528 0.0
C862 C 0.33729 0.42003 0.75984 0.0
C863 C 0.34378 0.35843 0.791 0.0
H864 H 0.41267 0.36987 0.79333 0.0
C865 C 0.41912 0.27635 0.79684 0.0
C866 C 0.43723 0.2776 0.77778 0.0
C867 C 0.40413 0.29778 0.8037 0.0
C868 C 0.39344 0.36648 0.79304 0.0
H869 H 0.26785 0.41559 0.77776 0.0
H870 H 0.30011 0.39024 0.80074 0.0
H871 H 0.38011 0.40512 0.78805 0.0
H872 H 0.455 0.30199 0.75174 0.0
H873 H 0.4284 0.33939 0.76318 0.0
H874 H 0.35695 0.31996 0.79472 0.0
C875 C 0.30567 0.40261 0.78582 0.0
C876 C 0.37483 0.38662 0.78994 0.0
C877 C 0.28719 0.41709 0.77269 0.0
C878 C 0.4411 0.30065 0.76653 0.0
C879 C 0.42604 0.32207 0.77328 0.0
C880 C 0.36226 0.33844 0.79424 0.0
C881 C 0.33092 0.40287 0.77868 0.0
C882 C 0.34992 0.38271 0.78779 0.0
C883 C 0.40685 0.32073 0.79137 0.0
C884 C 0.38738 0.34216 0.7942 0.0
H885 H 0.32393 0.44743 0.73202 0.0
H886 H 0.3565 0.42069 0.75372 0.0
H887 H 0.32494 0.35451 0.78906 0.0
H888 H 0.41614 0.25874 0.80605 0.0
H889 H 0.38969 0.29625 0.81792 0.0
C890 C 0.17358 0.77978 0.53186 0.0
C891 C 0.183 0.75645 0.52344 0.0
C892 C 0.15183 0.78266 0.54662 0.0
C893 C 0.09829 0.75242 0.57234 0.0
H894 H 0.11382 0.77991 0.63247 0.0
C895 C 0.05202 0.72765 0.66556 0.0
C896 C 0.04857 0.74527 0.68341 0.0
C897 C 0.06411 0.73284 0.64312 0.0
C898 C 0.10877 0.77273 0.61569 0.0
H899 H 0.17582 0.71841 0.5219 0.0
H900 H 0.13795 0.72341 0.54804 0.0
H901 H 0.14147 0.78294 0.5966 0.0
H902 H 0.05397 0.78254 0.69146 0.0
H903 H 0.07462 0.79184 0.65204 0.0
H904 H 0.06579 0.7417 0.59176 0.0
C905 C 0.14734 0.73947 0.54312 0.0
C906 C 0.12467 0.77446 0.59508 0.0
C907 C 0.16911 0.73657 0.52827 0.0
C908 C 0.05679 0.76844 0.67818 0.0
C909 C 0.06859 0.77376 0.6556 0.0
C910 C 0.08218 0.75088 0.59296 0.0
C911 C 0.13914 0.76228 0.55325 0.0
C912 C 0.11994 0.76379 0.57341 0.0
C913 C 0.07273 0.75588 0.63795 0.0
C914 C 0.08764 0.76043 0.61506 0.0
H915 H 0.18359 0.7956 0.52802 0.0
H916 H 0.14563 0.80056 0.55387 0.0
H917 H 0.09415 0.74422 0.55576 0.0
H918 H 0.04588 0.70961 0.6691 0.0
H919 H 0.06739 0.71846 0.63016 0.0
C920 C 0.24934 0.95539 0.32547 0.0
C921 C 0.23358 0.95359 0.30621 0.0
C922 C 0.24751 0.94066 0.34712 0.0
C923 C 0.20868 0.89836 0.38233 0.0
H924 H 0.27261 0.86204 0.39888 0.0
C925 C 0.21941 0.80108 0.43025 0.0
C926 C 0.23915 0.79418 0.4459 0.0
C927 C 0.21669 0.82438 0.41788 0.0
C928 C 0.25463 0.87233 0.39498 0.0
H929 H 0.20244 0.93616 0.29524 0.0
H930 H 0.1995 0.9103 0.33285 0.0
H931 H 0.271 0.897 0.36908 0.0
H932 H 0.27093 0.80638 0.46182 0.0
H933 H 0.2659 0.84731 0.44065 0.0
H934 H 0.1923 0.87305 0.40773 0.0
C935 C 0.21314 0.9232 0.33131 0.0
C936 C 0.25371 0.89242 0.37785 0.0
C937 C 0.21497 0.9379 0.30965 0.0
C938 C 0.25558 0.81125 0.44976 0.0
C939 C 0.25277 0.83461 0.43754 0.0
C940 C 0.2096 0.87828 0.39956 0.0
C941 C 0.22988 0.92389 0.34995 0.0
C942 C 0.23071 0.90524 0.37087 0.0
C943 C 0.23361 0.84125 0.42106 0.0
C944 C 0.23257 0.86465 0.40558 0.0
H945 H 0.26374 0.96746 0.32353 0.0
H946 H 0.26043 0.94182 0.36134 0.0
H947 H 0.19071 0.90812 0.37751 0.0
H948 H 0.20646 0.78823 0.42703 0.0
H949 H 0.20194 0.82875 0.40507 0.0
C950 C 0.93891 0.67418 0.68902 0.0
C951 C 0.95904 0.66476 0.70353 0.0
C952 C 0.93279 0.66097 0.66968 0.0
C953 C 0.94534 0.64084 0.61929 0.0
H954 H 0.94493 0.5699 0.61877 0.0
C955 C 0.9815 0.58144 0.53872 0.0
C956 C 0.9678 0.56259 0.53306 0.0
C957 C 0.97404 0.59583 0.55863 0.0
C958 C 0.94463 0.58979 0.61866 0.0
H959 H 0.987 0.63332 0.71089 0.0
H960 H 0.97603 0.60999 0.67731 0.0
H961 H 0.94203 0.58966 0.65788 0.0
H962 H 0.93482 0.54486 0.54312 0.0
H963 H 0.92216 0.56975 0.5781 0.0
H964 H 0.94934 0.64078 0.58015 0.0
C965 C 0.96511 0.62761 0.68074 0.0
C966 C 0.94309 0.60103 0.64099 0.0
C967 C 0.97144 0.64097 0.6999 0.0
C968 C 0.94582 0.55924 0.54696 0.0
C969 C 0.93858 0.57338 0.56706 0.0
C970 C 0.94726 0.62956 0.597 0.0
C971 C 0.94647 0.638 0.66483 0.0
C972 C 0.94394 0.62657 0.6415 0.0
C973 C 0.95295 0.59139 0.57338 0.0
C974 C 0.94744 0.60388 0.59653 0.0
H975 H 0.92901 0.69249 0.69151 0.0
H976 H 0.9182 0.66923 0.65777 0.0
H977 H 0.94635 0.66054 0.61919 0.0
H978 H -0.00153 0.58451 0.52833 0.0
H979 H 0.98551 0.60954 0.56326 0.0
C980 C 0.34969 0.75228 0.46919 0.0
C981 C 0.33348 0.735 0.46516 0.0
C982 C 0.37315 0.75083 0.45732 0.0
C983 C 0.41928 0.7112 0.4198 0.0
H984 H 0.43076 0.77395 0.3868 0.0
C985 C 0.47487 0.71952 0.32859 0.0
C986 C 0.48824 0.73976 0.32358 0.0
C987 C 0.46116 0.71715 0.35065 0.0
C988 C 0.42827 0.75636 0.39629 0.0
H989 H 0.32973 0.70175 0.44669 0.0
H990 H 0.3705 0.69954 0.42555 0.0
H991 H 0.39706 0.77275 0.4175 0.0
H992 H 0.49906 0.77251 0.33846 0.0
H993 H 0.4752 0.76823 0.37708 0.0
H994 H 0.45 0.69474 0.39771 0.0
C995 C 0.36519 0.71404 0.43812 0.0
C996 C 0.4089 0.75566 0.41391 0.0
C997 C 0.34174 0.71543 0.45008 0.0
C998 C 0.48869 0.75687 0.34162 0.0
C999 C 0.47501 0.75445 0.36373 0.0
C1000 C 0.43873 0.71191 0.40215 0.0
C1001 C 0.38085 0.73212 0.44111 0.0
C1002 C 0.40376 0.73301 0.42536 0.0
C1003 C 0.4606 0.7349 0.36821 0.0
C1004 C 0.44295 0.73442 0.38972 0.0
H1005 H 0.34405 0.76736 0.48103 0.0
H1006 H 0.38499 0.76478 0.46029 0.0
H1007 H 0.41596 0.69353 0.42861 0.0
H1008 H 0.47425 0.7059 0.31517 0.0
H1009 H 0.45002 0.70204 0.35339 0.0
C1010 C 0.28384 0.04007 0.16306 0.0
C1011 C 0.26383 0.0261 0.16681 0.0
C1012 C 0.28418 0.05771 0.14347 0.0
C1013 C 0.23932 0.09911 0.1089 0.0
H1014 H 0.29715 0.11787 0.07136 0.0
C1015 C 0.23187 0.1868 0.04503 0.0
C1016 C 0.25125 0.20142 0.04529 0.0
C1017 C 0.23447 0.16292 0.05602 0.0
C1018 C 0.28087 0.11292 0.08183 0.0
H1019 H 0.22971 0.01802 0.15168 0.0
H1020 H 0.2304 0.0488 0.11752 0.0
H1021 H 0.30064 0.07894 0.09647 0.0
H1022 H 0.28841 0.20292 0.05742 0.0
H1023 H 0.29263 0.16148 0.07768 0.0
H1024 H 0.21976 0.13334 0.09541 0.0
C1025 C 0.24557 0.04637 0.12997 0.0
C1026 C 0.28286 0.09061 0.09607 0.0
C1027 C 0.24523 0.02872 0.14951 0.0
C1028 C 0.27323 0.19191 0.05693 0.0
C1029 C 0.27573 0.1681 0.06825 0.0
C1030 C 0.23738 0.12141 0.09489 0.0
C1031 C 0.26453 0.06168 0.12732 0.0
C1032 C 0.26214 0.08366 0.10995 0.0
C1033 C 0.25631 0.15337 0.06802 0.0
C1034 C 0.25819 0.12876 0.08142 0.0
H1035 H 0.29856 0.03838 0.17596 0.0
H1036 H 0.29898 0.06933 0.14193 0.0
H1037 H 0.22316 0.0945 0.11982 0.0
H1038 H 0.21459 0.19386 0.03643 0.0
H1039 H 0.21927 0.15199 0.05522 0.0
C1040 C 0.83437 0.74025 0.96418 0.0
C1041 C 0.81639 0.72516 0.95921 0.0
C1042 C 0.85855 0.73564 0.95406 0.0
C1043 C 0.89711 0.73619 0.91294 0.0
H1044 H 0.92871 0.6723 0.89272 0.0
C1045 C 0.95489 0.69974 0.82364 0.0
C1046 C 0.97207 0.71696 0.82075 0.0
C1047 C 0.94138 0.69702 0.84585 0.0
C1048 C 0.92015 0.69022 0.8984 0.0
H1049 H 0.80999 0.69245 0.94112 0.0
H1050 H 0.85162 0.68508 0.92266 0.0
H1051 H 0.89521 0.67426 0.92445 0.0
H1052 H 0.99001 0.74336 0.83943 0.0
H1053 H 0.96638 0.73862 0.87793 0.0
H1054 H 0.92146 0.75217 0.88653 0.0
C1055 C 0.84744 0.70011 0.9348 0.0
C1056 C 0.90098 0.69138 0.91648 0.0
C1057 C 0.82341 0.7045 0.94522 0.0
C1058 C 0.97655 0.73028 0.84087 0.0
C1059 C 0.9631 0.72754 0.86298 0.0
C1060 C 0.91638 0.73501 0.89513 0.0
C1061 C 0.86507 0.71611 0.93843 0.0
C1062 C 0.88864 0.71442 0.9233 0.0
C1063 C 0.94489 0.71144 0.86545 0.0
C1064 C 0.92753 0.71207 0.88713 0.0
H1065 H 0.82959 0.75603 0.97531 0.0
H1066 H 0.87187 0.74797 0.95769 0.0
H1067 H 0.88782 0.75427 0.91733 0.0
H1068 H 0.9512 0.68906 0.80854 0.0
H1069 H 0.92728 0.68461 0.84723 0.0
C1070 C 0.25803 0.53172 0.65162 0.0
C1071 C 0.27507 0.52621 0.67033 0.0
C1072 C 0.26242 0.54884 0.63234 0.0
C1073 C 0.29462 0.60343 0.62169 0.0
H1074 H 0.27258 0.60314 0.55543 0.0
C1075 C 0.29879 0.68793 0.55499 0.0
C1076 C 0.27709 0.69566 0.54221 0.0
C1077 C 0.30226 0.66456 0.56711 0.0
C1078 C 0.27877 0.60346 0.5739 0.0
H1079 H 0.31116 0.53256 0.68229 0.0
H1080 H 0.31897 0.56206 0.64846 0.0
H1081 H 0.27273 0.56583 0.58271 0.0
H1082 H 0.24237 0.68495 0.53122 0.0
H1083 H 0.24816 0.64419 0.55283 0.0
H1084 H 0.29989 0.64113 0.61336 0.0
C1085 C 0.3019 0.55369 0.64905 0.0
C1086 C 0.27889 0.58212 0.58948 0.0
C1087 C 0.29744 0.53672 0.66839 0.0
C1088 C 0.25928 0.67937 0.54099 0.0
C1089 C 0.26269 0.65599 0.55321 0.0
C1090 C 0.2945 0.62467 0.60618 0.0
C1091 C 0.28401 0.56064 0.63134 0.0
C1092 C 0.28648 0.58202 0.61367 0.0
C1093 C 0.28401 0.64853 0.56681 0.0
C1094 C 0.28623 0.62508 0.58224 0.0
H1095 H 0.24063 0.52389 0.65251 0.0
H1096 H 0.24819 0.55389 0.61908 0.0
H1097 H 0.30006 0.60419 0.64037 0.0
H1098 H 0.31294 0.70009 0.55593 0.0
H1099 H 0.31908 0.65918 0.57708 0.0
C1100 C 0.32104 0.05306 0.29189 0.0
C1101 C 0.32131 0.02784 0.2879 0.0
C1102 C 0.33467 0.06022 0.31064 0.0
C1103 C 0.35442 0.03819 0.37043 0.0
H1104 H 0.40932 0.07732 0.36222 0.0
C1105 C 0.43308 0.02652 0.43569 0.0
C1106 C 0.44455 0.04684 0.44144 0.0
C1107 C 0.41441 0.0294 0.41888 0.0
C1108 C 0.39361 0.06693 0.36492 0.0
H1109 H 0.33674 0.99044 0.29937 0.0
H1110 H 0.36018 0.00295 0.33232 0.0
H1111 H 0.38425 0.07268 0.32713 0.0
H1112 H 0.44535 0.08627 0.43455 0.0
H1113 H 0.41245 0.09138 0.40465 0.0
H1114 H 0.36388 0.03183 0.4079 0.0
C1115 C 0.34946 0.0171 0.321 0.0
C1116 C 0.37942 0.06419 0.34485 0.0
C1117 C 0.3362 0.00999 0.30211 0.0
C1118 C 0.43668 0.07033 0.43042 0.0
C1119 C 0.41798 0.07323 0.41333 0.0
C1120 C 0.36834 0.04112 0.39046 0.0
C1121 C 0.34832 0.04219 0.32575 0.0
C1122 C 0.36043 0.04896 0.34734 0.0
C1123 C 0.40683 0.05269 0.40728 0.0
C1124 C 0.38877 0.05458 0.38767 0.0
H1125 H 0.30966 0.06714 0.2811 0.0
H1126 H 0.33368 0.07967 0.31404 0.0
H1127 H 0.33954 0.02668 0.37275 0.0
H1128 H 0.43912 0.00813 0.4435 0.0
H1129 H 0.40664 0.0131 0.4142 0.0
C1130 C 0.7523 0.84452 0.03291 0.0
C1131 C 0.7523 0.83937 0.00813 0.0
C1132 C 0.76172 0.86558 0.03964 0.0
C1133 C 0.78712 0.92302 0.0159 0.0
H1134 H 0.84121 0.89816 0.05819 0.0
C1135 C 0.88265 0.9558 0.00465 0.0
C1136 C 0.89829 0.95363 0.0245 0.0
C1137 C 0.85881 0.94882 0.00767 0.0
C1138 C 0.82589 0.90589 0.04695 0.0
H1139 H 0.75959 0.85316 0.97084 0.0
H1140 H 0.77638 0.88979 0.98254 0.0
H1141 H 0.80756 0.87387 0.05461 0.0
H1142 H 0.90093 0.94439 0.06342 0.0
H1143 H 0.85893 0.93277 0.06897 0.0
H1144 H 0.80617 0.95464 0.00747 0.0
C1145 C 0.76902 0.87776 0.99681 0.0
C1146 C 0.8065 0.89187 0.04488 0.0
C1147 C 0.75963 0.85668 0.99009 0.0
C1148 C 0.88928 0.94581 0.04776 0.0
C1149 C 0.86526 0.93916 0.05089 0.0
C1150 C 0.80645 0.93722 0.01816 0.0
C1151 C 0.77125 0.88178 0.02168 0.0
C1152 C 0.78755 0.89973 0.02849 0.0
C1153 C 0.85003 0.93983 0.03072 0.0
C1154 C 0.82668 0.92821 0.03279 0.0
H1155 H 0.74645 0.83155 0.04715 0.0
H1156 H 0.76296 0.86842 0.05892 0.0
H1157 H 0.77254 0.92964 0.00338 0.0
H1158 H 0.88919 0.96193 0.98654 0.0
H1159 H 0.84784 0.94924 0.99162 0.0
C1160 C 0.7169 0.14326 0.50159 0.0
C1161 C 0.72563 0.15995 0.48376 0.0
C1162 C 0.7084 0.12183 0.49468 0.0
C1163 C 0.68968 0.07714 0.47738 0.0
H1164 H 0.64525 0.09768 0.42446 0.0
C1165 C 0.59987 0.0335 0.47016 0.0
C1166 C 0.57889 0.05131 0.46724 0.0
C1167 C 0.62379 0.04006 0.46553 0.0
C1168 C 0.65764 0.09154 0.43918 0.0
H1169 H 0.73533 0.16619 0.4452 0.0
H1170 H 0.72105 0.12831 0.43307 0.0
H1171 H 0.67989 0.12034 0.42979 0.0
H1172 H 0.56611 0.08957 0.45656 0.0
H1173 H 0.60767 0.10132 0.4493 0.0
H1174 H 0.66568 0.05003 0.48831 0.0
C1175 C 0.71997 0.13209 0.4523 0.0
C1176 C 0.67784 0.1043 0.44204 0.0
C1177 C 0.72819 0.15373 0.45922 0.0
C1178 C 0.58205 0.07554 0.45898 0.0
C1179 C 0.60589 0.08214 0.45452 0.0
C1180 C 0.66921 0.06462 0.47474 0.0
C1181 C 0.70871 0.1166 0.4698 0.0
C1182 C 0.69315 0.09823 0.46212 0.0
C1183 C 0.62706 0.06456 0.45803 0.0
C1184 C 0.65213 0.07273 0.45652 0.0
H1185 H 0.71501 0.14757 0.52069 0.0
H1186 H 0.6997 0.11056 0.50872 0.0
H1187 H 0.70158 0.07151 0.49258 0.0
H1188 H 0.59783 0.01458 0.4763 0.0
H1189 H 0.63969 0.02606 0.46823 0.0
C1190 C 0.81374 0.45023 0.20129 0.0
C1191 C 0.80284 0.46115 0.22239 0.0
C1192 C 0.83704 0.43584 0.20216 0.0
C1193 C 0.87332 0.39731 0.24816 0.0
H1194 H 0.91962 0.38325 0.19303 0.0
C1195 C 0.94636 0.31216 0.25306 0.0
C1196 C 0.94617 0.29711 0.23326 0.0
C1197 C 0.93519 0.3367 0.25137 0.0
C1198 C 0.90691 0.3871 0.20862 0.0
H1199 H 0.80838 0.46737 0.2603 0.0
H1200 H 0.84944 0.44349 0.26151 0.0
H1201 H 0.8884 0.41995 0.1906 0.0
H1202 H 0.93545 0.29598 0.19581 0.0
H1203 H 0.91532 0.3387 0.19301 0.0
H1204 H 0.89099 0.36415 0.26585 0.0
C1205 C 0.8398 0.44526 0.2445 0.0
C1206 C 0.88903 0.40805 0.20722 0.0
C1207 C 0.81637 0.45919 0.24375 0.0
C1208 C 0.93567 0.30723 0.21138 0.0
C1209 C 0.92442 0.33175 0.20969 0.0
C1210 C 0.89118 0.37655 0.24959 0.0
C1211 C 0.84988 0.43244 0.22409 0.0
C1212 C 0.87158 0.41297 0.22674 0.0
C1213 C 0.9235 0.34653 0.2299 0.0
C1214 C 0.90769 0.37082 0.2296 0.0
H1215 H 0.80367 0.45153 0.18456 0.0
H1216 H 0.84413 0.4261 0.18614 0.0
H1217 H 0.85991 0.40014 0.26338 0.0
H1218 H 0.95434 0.30475 0.27016 0.0
H1219 H 0.93497 0.34774 0.26715 0.0
C1220 C 0.10468 0.53412 0.44442 0.0
C1221 C 0.09118 0.53851 0.46658 0.0
C1222 C 0.12864 0.54093 0.44073 0.0
C1223 C 0.17915 0.56426 0.47371 0.0
H1224 H 0.19254 0.59687 0.41043 0.0
C1225 C 0.22152 0.65605 0.43667 0.0
C1226 C 0.23989 0.65585 0.4538 0.0
C1227 C 0.21079 0.63469 0.43356 0.0
C1228 C 0.18913 0.58785 0.42824 0.0
H1229 H 0.09197 0.55292 0.50242 0.0
H1230 H 0.13294 0.56598 0.49571 0.0
H1231 H 0.15792 0.57286 0.4158 0.0
H1232 H 0.26354 0.6328 0.4792 0.0
H1233 H 0.24559 0.59501 0.47301 0.0
H1234 H 0.20854 0.58138 0.4869 0.0
C1235 C 0.12574 0.55652 0.48136 0.0
C1236 C 0.16942 0.57369 0.43125 0.0
C1237 C 0.10206 0.54934 0.48516 0.0
C1238 C 0.24914 0.63342 0.46606 0.0
C1239 C 0.23869 0.61186 0.46264 0.0
C1240 C 0.19844 0.5789 0.47087 0.0
C1241 C 0.13933 0.5526 0.45903 0.0
C1242 C 0.16341 0.56275 0.45437 0.0
C1243 C 0.21848 0.61253 0.44729 0.0
C1244 C 0.20288 0.59193 0.4484 0.0
H1245 H 0.09672 0.52549 0.42993 0.0
H1246 H 0.13863 0.53727 0.42346 0.0
H1247 H 0.17569 0.55531 0.49155 0.0
H1248 H 0.21413 0.67312 0.42691 0.0
H1249 H 0.19516 0.63625 0.42177 0.0
C1250 C 0.70919 0.07146 0.72714 0.0
C1251 C 0.70995 0.04641 0.73489 0.0
C1252 C 0.68642 0.08593 0.72321 0.0
C1253 C 0.62358 0.09155 0.74759 0.0
H1254 H 0.61261 0.14368 0.69628 0.0
C1255 C 0.54475 0.17159 0.75813 0.0
C1256 C 0.55221 0.19504 0.75261 0.0
C1257 C 0.55962 0.15039 0.75044 0.0
C1258 C 0.61537 0.12919 0.71072 0.0
H1259 H 0.68792 0.01638 0.74362 0.0
H1260 H 0.64784 0.04198 0.73729 0.0
H1261 H 0.64778 0.11107 0.69214 0.0
H1262 H 0.58044 0.215 0.73419 0.0
H1263 H 0.6069 0.17811 0.72159 0.0
H1264 H 0.59246 0.11043 0.76707 0.0
C1265 C 0.66487 0.05031 0.73413 0.0
C1266 C 0.63538 0.11051 0.70826 0.0
C1267 C 0.68771 0.03575 0.73777 0.0
C1268 C 0.57436 0.19708 0.73877 0.0
C1269 C 0.58933 0.17593 0.73126 0.0
C1270 C 0.60374 0.11036 0.75018 0.0
C1271 C 0.66405 0.07562 0.72723 0.0
C1272 C 0.64015 0.09206 0.72709 0.0
C1273 C 0.58234 0.1523 0.73733 0.0
C1274 C 0.6 0.12991 0.7322 0.0
H1275 H 0.72615 0.08 0.72463 0.0
H1276 H 0.68627 0.10547 0.7182 0.0
H1277 H 0.627 0.07765 0.76248 0.0
H1278 H 0.52773 0.16959 0.76885 0.0
H1279 H 0.55359 0.13249 0.7552 0.0
C1280 C 0.73341 0.55689 0.1691 0.0
C1281 C 0.75032 0.55284 0.18802 0.0
C1282 C 0.73636 0.57458 0.15004 0.0
C1283 C 0.76553 0.63087 0.134 0.0
H1284 H 0.75081 0.61745 0.0679 0.0
C1285 C 0.776 0.70096 0.0519 0.0
C1286 C 0.75557 0.7053 0.03673 0.0
C1287 C 0.77792 0.68107 0.06934 0.0
C1288 C 0.7549 0.62146 0.08628 0.0
H1289 H 0.7837 0.56418 0.2017 0.0
H1290 H 0.78899 0.59501 0.16819 0.0
H1291 H 0.74968 0.58506 0.10061 0.0
H1292 H 0.72118 0.69241 0.02774 0.0
H1293 H 0.72463 0.65748 0.05803 0.0
H1294 H 0.77053 0.66736 0.11965 0.0
C1295 C 0.77327 0.58463 0.16831 0.0
C1296 C 0.75421 0.60296 0.10501 0.0
C1297 C 0.77027 0.56693 0.18747 0.0
C1298 C 0.73732 0.68922 0.03896 0.0
C1299 C 0.73931 0.66925 0.05629 0.0
C1300 C 0.76633 0.64934 0.11522 0.0
C1301 C 0.75636 0.5886 0.14937 0.0
C1302 C 0.75909 0.6076 0.12916 0.0
C1303 C 0.75949 0.66514 0.07183 0.0
C1304 C 0.76063 0.64493 0.09127 0.0
H1305 H 0.71774 0.54647 0.16898 0.0
H1306 H 0.72273 0.57751 0.136 0.0
H1307 H 0.76911 0.63511 0.15244 0.0
H1308 H 0.79036 0.71309 0.05047 0.0
H1309 H 0.79379 0.67818 0.08094 0.0
C1310 C 0.94136 0.52238 0.43391 0.0
C1311 C 0.95679 0.54034 0.43778 0.0
C1312 C 0.9217 0.52773 0.4182 0.0
C1313 C 0.90337 0.56287 0.36322 0.0
H1314 H 0.8379 0.54484 0.38207 0.0
C1315 C 0.80199 0.55476 0.3201 0.0
C1316 C 0.8102 0.53961 0.30076 0.0
C1317 C 0.81901 0.56125 0.33609 0.0
C1318 C 0.85593 0.55037 0.37659 0.0
H1319 H 0.96397 0.57798 0.42822 0.0
H1320 H 0.92979 0.58713 0.39984 0.0
H1321 H 0.86881 0.5442 0.41308 0.0
H1322 H 0.84255 0.52053 0.28198 0.0
H1323 H 0.87238 0.53194 0.30991 0.0
H1324 H 0.89085 0.56778 0.32646 0.0
C1325 C 0.93278 0.56907 0.40943 0.0
C1326 C 0.87362 0.54986 0.3943 0.0
C1327 C 0.95223 0.56385 0.42562 0.0
C1328 C 0.83579 0.5322 0.29681 0.0
C1329 C 0.85284 0.53886 0.31268 0.0
C1330 C 0.88574 0.56305 0.34539 0.0
C1331 C 0.91739 0.55101 0.40563 0.0
C1332 C 0.89764 0.55553 0.38767 0.0
C1333 C 0.84452 0.55287 0.33286 0.0
C1334 C 0.86205 0.55627 0.35186 0.0
H1335 H 0.94481 0.50397 0.44258 0.0
H1336 H 0.91035 0.51336 0.41524 0.0
H1337 H 0.92186 0.56715 0.35769 0.0
H1338 H 0.78234 0.56081 0.32346 0.0
H1339 H 0.81215 0.57222 0.3514 0.0
C1340 C 0.15634 0.46003 0.68099 0.0
C1341 C 0.18204 0.45442 0.67608 0.0
C1342 C 0.1395 0.4565 0.66343 0.0
C1343 C 0.10756 0.43827 0.62562 0.0
H1344 H 0.12328 0.46834 0.56155 0.0
C1345 C 0.04192 0.44504 0.54424 0.0
C1346 C 0.03664 0.46929 0.53392 0.0
C1347 C 0.06125 0.43912 0.56044 0.0
C1348 C 0.11877 0.45969 0.57929 0.0
H1349 H 0.2104 0.43967 0.64969 0.0
H1350 H 0.18097 0.43361 0.61896 0.0
H1351 H 0.15385 0.46441 0.59324 0.0
H1352 H 0.04726 0.50626 0.53233 0.0
H1353 H 0.08138 0.49581 0.55995 0.0
H1354 H 0.07207 0.43437 0.61177 0.0
C1355 C 0.17384 0.44086 0.63625 0.0
C1356 C 0.13629 0.45727 0.59736 0.0
C1357 C 0.19064 0.44427 0.65384 0.0
C1358 C 0.05125 0.48734 0.53962 0.0
C1359 C 0.07074 0.48137 0.55547 0.0
C1360 C 0.09009 0.44048 0.60742 0.0
C1361 C 0.14815 0.44743 0.64067 0.0
C1362 C 0.13065 0.44705 0.62086 0.0
C1363 C 0.07576 0.45729 0.56622 0.0
C1364 C 0.09534 0.45177 0.58431 0.0
H1365 H 0.14928 0.46787 0.69804 0.0
H1366 H 0.11981 0.46194 0.66723 0.0
H1367 H 0.10283 0.43019 0.64355 0.0
H1368 H 0.03085 0.4308 0.54016 0.0
H1369 H 0.06483 0.42041 0.5685 0.0
C1370 C 0.57679 0.77136 0.17505 0.0
C1371 C 0.55375 0.76274 0.18004 0.0
C1372 C 0.58526 0.77565 0.15083 0.0
C1373 C 0.57498 0.75815 0.08812 0.0
H1374 H 0.62306 0.80372 0.07141 0.0
C1375 C 0.65091 0.74066 0.01407 0.0
C1376 C 0.66335 0.76014 0.00393 0.0
C1377 C 0.63066 0.74535 0.03052 0.0
C1378 C 0.60916 0.79132 0.0754 0.0
H1379 H 0.52068 0.75338 0.16404 0.0
H1380 H 0.53481 0.76195 0.12193 0.0
H1381 H 0.60094 0.80506 0.11094 0.0
H1382 H 0.66237 0.80007 0.00047 0.0
H1383 H 0.62632 0.80836 0.02855 0.0
H1384 H 0.58281 0.74478 0.05239 0.0
C1385 C 0.54697 0.76436 0.13645 0.0
C1386 C 0.59683 0.79175 0.09838 0.0
C1387 C 0.53882 0.7595 0.16059 0.0
C1388 C 0.65343 0.78462 0.00839 0.0
C1389 C 0.63288 0.78936 0.02461 0.0
C1390 C 0.5869 0.75809 0.06496 0.0
C1391 C 0.57053 0.77199 0.13119 0.0
C1392 C 0.58041 0.77444 0.10543 0.0
C1393 C 0.62213 0.76968 0.0369 0.0
C1394 C 0.60502 0.77386 0.05873 0.0
H1395 H 0.58857 0.77402 0.18981 0.0
H1396 H 0.60371 0.78106 0.14758 0.0
H1397 H 0.56253 0.74445 0.09278 0.0
H1398 H 0.65799 0.72157 0.01093 0.0
H1399 H 0.62309 0.72963 0.03965 0.0
C1400 C 0.67868 0.4465 0.16736 0.0
C1401 C 0.67187 0.45853 0.18905 0.0
C1402 C 0.66061 0.44326 0.15098 0.0
C1403 C 0.59306 0.44481 0.14377 0.0
H1404 H 0.60773 0.47004 0.07748 0.0
C1405 C 0.523 0.45011 0.06674 0.0
C1406 C 0.51856 0.47362 0.05461 0.0
C1407 C 0.54313 0.44435 0.08199 0.0
C1408 C 0.60346 0.4628 0.09588 0.0
H1409 H 0.64091 0.47536 0.21142 0.0
H1410 H 0.60923 0.46958 0.18284 0.0
H1411 H 0.63988 0.46587 0.10767 0.0
H1412 H 0.53197 0.50926 0.04814 0.0
H1413 H 0.56736 0.49908 0.07444 0.0
H1414 H 0.55636 0.44249 0.13208 0.0
C1415 C 0.6285 0.46261 0.17849 0.0
C1416 C 0.62189 0.46021 0.11309 0.0
C1417 C 0.6466 0.46601 0.1948 0.0
C1418 C 0.53503 0.49098 0.05725 0.0
C1419 C 0.55531 0.48512 0.07222 0.0
C1420 C 0.57469 0.44717 0.12646 0.0
C1421 C 0.63541 0.45183 0.15612 0.0
C1422 C 0.61672 0.45166 0.13733 0.0
C1423 C 0.55932 0.4619 0.08504 0.0
C1424 C 0.57957 0.45669 0.1025 0.0
H1425 H 0.69807 0.4405 0.16255 0.0
H1426 H 0.6664 0.43465 0.13398 0.0
H1427 H 0.58865 0.43806 0.1623 0.0
H1428 H 0.51056 0.43639 0.06497 0.0
H1429 H 0.54593 0.42627 0.09156 0.0
C1430 C 0.37888 0.46367 0.06268 0.0
C1431 C 0.38334 0.4742 0.0391 0.0
C1432 C 0.35705 0.45314 0.06834 0.0
C1433 C 0.29597 0.44375 0.04399 0.0
H1434 H 0.31302 0.37731 0.07278 0.0
C1435 C 0.25426 0.35949 0.01662 0.0
C1436 C 0.25329 0.33915 0.03346 0.0
C1437 C 0.26289 0.38088 0.02359 0.0
C1438 C 0.30755 0.39599 0.06533 0.0
H1439 H 0.36808 0.48357 0.0034 0.0
H1440 H 0.33037 0.46441 0.01288 0.0
H1441 H 0.34223 0.40698 0.07385 0.0
H1442 H 0.25825 0.32579 0.07125 0.0
H1443 H 0.27314 0.3633 0.08355 0.0
H1444 H 0.26182 0.43195 0.03413 0.0
C1445 C 0.34334 0.46466 0.02724 0.0
C1446 C 0.32438 0.4131 0.06595 0.0
C1447 C 0.36506 0.47542 0.02169 0.0
C1448 C 0.25917 0.34117 0.05785 0.0
C1449 C 0.26769 0.3626 0.06487 0.0
C1450 C 0.27911 0.42655 0.04332 0.0
C1451 C 0.33947 0.45269 0.05039 0.0
C1452 C 0.31924 0.43685 0.05442 0.0
C1453 C 0.2706 0.38228 0.04755 0.0
C1454 C 0.2852 0.40219 0.05312 0.0
H1455 H 0.3926 0.46286 0.07653 0.0
H1456 H 0.35441 0.44446 0.08646 0.0
H1457 H 0.29128 0.46208 0.03537 0.0
H1458 H 0.24967 0.3584 -0.00228 0.0
H1459 H 0.26512 0.39559 0.00973 0.0
C1460 C 0.0462 0.17599 0.29113 0.0
C1461 C 0.03518 0.18622 0.26954 0.0
C1462 C 0.06085 0.15298 0.29131 0.0
C1463 C 0.08303 0.09859 0.25436 0.0
H1464 H 0.14662 0.10634 0.28036 0.0
C1465 C 0.19308 0.06602 0.23578 0.0
C1466 C 0.19633 0.04043 0.24145 0.0
C1467 C 0.17014 0.07996 0.24037 0.0
C1468 C 0.12889 0.10381 0.27322 0.0
H1469 H 0.02894 0.17981 0.2318 0.0
H1470 H 0.05516 0.13995 0.23185 0.0
H1471 H 0.11074 0.13666 0.2885 0.0
H1472 H 0.17789 0.0089 0.25463 0.0
H1473 H 0.13725 0.03361 0.26254 0.0
H1474 H 0.10206 0.06612 0.23811 0.0
C1475 C 0.05227 0.1494 0.24876 0.0
C1476 C 0.10824 0.12101 0.27811 0.0
C1477 C 0.03744 0.17234 0.24865 0.0
C1478 C 0.17581 0.02869 0.25027 0.0
C1479 C 0.15265 0.04272 0.25475 0.0
C1480 C 0.10383 0.08118 0.24959 0.0
C1481 C 0.06495 0.13997 0.26981 0.0
C1482 C 0.08524 0.11903 0.26816 0.0
C1483 C 0.14998 0.06856 0.25058 0.0
C1484 C 0.12705 0.08423 0.25833 0.0
H1485 H 0.04434 0.1862 0.30759 0.0
H1486 H 0.07 0.14593 0.30794 0.0
H1487 H 0.06547 0.09652 0.24662 0.0
H1488 H 0.20851 0.07547 0.22864 0.0
H1489 H 0.16833 0.09984 0.23661 0.0
C1490 C 0.23746 0.30997 0.94507 0.0
C1491 C 0.21912 0.29431 0.94365 0.0
C1492 C 0.23598 0.33242 0.93125 0.0
C1493 C 0.19423 0.37674 0.89231 0.0
H1494 H 0.25715 0.39156 0.86197 0.0
C1495 C 0.20649 0.44014 0.80441 0.0
C1496 C 0.22625 0.4545 0.80364 0.0
C1497 C 0.20239 0.4243 0.82489 0.0
C1498 C 0.23946 0.38794 0.87061 0.0
H1499 H 0.18472 0.28976 0.92699 0.0
H1500 H 0.18266 0.32851 0.9019 0.0
H1501 H 0.25659 0.3564 0.89121 0.0
H1502 H 0.25562 0.46534 0.8246 0.0
H1503 H 0.24839 0.43782 0.86015 0.0
H1504 H 0.17716 0.40792 0.87053 0.0
C1505 C 0.19779 0.32388 0.91425 0.0
C1506 C 0.23913 0.36778 0.88745 0.0
C1507 C 0.19909 0.30157 0.92841 0.0
C1508 C 0.24051 0.4542 0.82442 0.0
C1509 C 0.23641 0.43844 0.8448 0.0
C1510 C 0.19456 0.39686 0.87518 0.0
C1511 C 0.21643 0.33941 0.91526 0.0
C1512 C 0.21653 0.36183 0.89844 0.0
C1513 C 0.21798 0.42265 0.84483 0.0
C1514 C 0.21721 0.40255 0.86415 0.0
H1515 H 0.25326 0.30467 0.95646 0.0
H1516 H 0.25043 0.3441 0.9328 0.0
H1517 H 0.17654 0.37281 0.90065 0.0
H1518 H 0.19513 0.44005 0.78871 0.0
H1519 H 0.18809 0.41225 0.82446 0.0
C1520 C 0.31915 0.20492 0.96454 0.0
C1521 C 0.31118 0.22929 0.97101 0.0
C1522 C 0.34289 0.19864 0.95389 0.0
C1523 C 0.40435 0.22081 0.93987 0.0
H1524 H 0.4023 0.18615 0.88054 0.0
C1525 C 0.46876 0.23326 0.8552 0.0
C1526 C 0.47363 0.21423 0.83882 0.0
C1527 C 0.45438 0.23 0.87672 0.0
C1528 C 0.40355 0.19526 0.89735 0.0
H1529 H 0.32237 0.26587 0.97259 0.0
H1530 H 0.36359 0.25503 0.9535 0.0
H1531 H 0.36623 0.19017 0.90857 0.0
H1532 H 0.46957 0.17593 0.83352 0.0
H1533 H 0.44488 0.17009 0.87139 0.0
H1534 H 0.44146 0.22675 0.92795 0.0
C1535 C 0.35162 0.24068 0.95696 0.0
C1536 C 0.38275 0.19762 0.91345 0.0
C1537 C 0.3279 0.24695 0.96773 0.0
C1538 C 0.46583 0.1911 0.84556 0.0
C1539 C 0.45158 0.18778 0.86721 0.0
C1540 C 0.42525 0.21839 0.92374 0.0
C1541 C 0.35914 0.2166 0.94937 0.0
C1542 C 0.38264 0.21102 0.93453 0.0
C1543 C 0.44471 0.20757 0.88243 0.0
C1544 C 0.42479 0.2062 0.90192 0.0
H1545 H 0.30689 0.19075 0.96718 0.0
H1546 H 0.34829 0.17983 0.94862 0.0
H1547 H 0.40494 0.23092 0.95618 0.0
H1548 H 0.47456 0.25131 0.85067 0.0
H1549 H 0.44935 0.24571 0.8879 0.0
C1550 C 0.42265 0.52019 0.9533 0.0
C1551 C 0.43544 0.53997 0.95808 0.0
C1552 C 0.40684 0.52215 0.93383 0.0
C1553 C 0.39744 0.55466 0.87378 0.0
H1554 H 0.34001 0.5189 0.87647 0.0
C1555 C 0.33178 0.54363 0.7936 0.0
C1556 C 0.32907 0.51874 0.79065 0.0
C1557 C 0.34487 0.54995 0.81318 0.0
C1558 C 0.35597 0.52903 0.87552 0.0
H1559 H 0.44096 0.57774 0.947 0.0
H1560 H 0.41288 0.58134 0.91281 0.0
H1561 H 0.35974 0.52503 0.91424 0.0
H1562 H 0.33907 0.48088 0.80476 0.0
H1563 H 0.36156 0.49198 0.83906 0.0
H1564 H 0.39342 0.55846 0.83481 0.0
C1565 C 0.41538 0.5642 0.92404 0.0
C1566 C 0.36729 0.53251 0.89708 0.0
C1567 C 0.43128 0.56222 0.94366 0.0
C1568 C 0.34083 0.50021 0.80664 0.0
C1569 C 0.35355 0.50654 0.82632 0.0
C1570 C 0.38583 0.55144 0.85215 0.0
C1571 C 0.40335 0.54399 0.91866 0.0
C1572 C 0.38871 0.54455 0.8964 0.0
C1573 C 0.35503 0.53146 0.83014 0.0
C1574 C 0.36555 0.53786 0.85286 0.0
H1575 H 0.42569 0.50271 0.96391 0.0
H1576 H 0.3983 0.50603 0.93 0.0
H1577 H 0.41401 0.56388 0.8726 0.0
H1578 H 0.32284 0.55824 0.78149 0.0
H1579 H 0.34589 0.56928 0.81583 0.0
C1580 C 0.71882 0.63065 0.97736 0.0
C1581 C 0.72374 0.64623 0.95685 0.0
C1582 C 0.70747 0.60956 0.97472 0.0
C1583 C 0.66337 0.5915 0.93312 0.0
H1584 H 0.65896 0.54016 0.98484 0.0
C1585 C 0.57035 0.56542 0.96928 0.0
C1586 C 0.56794 0.54132 0.97858 0.0
C1587 C 0.59358 0.57173 0.96121 0.0
C1588 C 0.66015 0.55397 0.96986 0.0
H1589 H 0.72379 0.6506 0.91727 0.0
H1590 H 0.70478 0.61315 0.91243 0.0
H1591 H 0.69646 0.56031 0.97938 0.0
H1592 H 0.58759 0.50467 0.98641 0.0
H1593 H 0.62846 0.51566 0.97205 0.0
H1594 H 0.62705 0.58527 0.92369 0.0
C1595 C 0.70873 0.61765 0.93069 0.0
C1596 C 0.68157 0.56575 0.96691 0.0
C1597 C 0.71974 0.63903 0.9334 0.0
C1598 C 0.58908 0.52346 0.97942 0.0
C1599 C 0.61242 0.52974 0.97121 0.0
C1600 C 0.6422 0.57946 0.93581 0.0
C1601 C 0.7011 0.60348 0.95143 0.0
C1602 C 0.68273 0.58577 0.94953 0.0
C1603 C 0.61491 0.554 0.96208 0.0
C1604 C 0.63969 0.56171 0.95519 0.0
H1605 H 0.72194 0.63572 0.99566 0.0
H1606 H 0.70182 0.59936 0.9912 0.0
H1607 H 0.66342 0.60673 0.91946 0.0
H1608 H 0.55432 0.57955 0.96849 0.0
H1609 H 0.59486 0.59076 0.95492 0.0
C1610 C 0.96802 0.80371 0.71189 0.0
C1611 C 0.97123 0.7907 0.73463 0.0
C1612 C 0.95431 0.82715 0.71045 0.0
C1613 C 0.91901 0.87697 0.7466 0.0
H1614 H 0.86964 0.87375 0.69839 0.0
C1615 C 0.80992 0.91235 0.72901 0.0
C1616 C 0.8086 0.93818 0.72838 0.0
C1617 C 0.83287 0.89765 0.73015 0.0
C1618 C 0.88335 0.87497 0.71186 0.0
H1619 H 0.96512 0.79256 0.7739 0.0
H1620 H 0.94006 0.83319 0.77139 0.0
H1621 H 0.90676 0.84377 0.6988 0.0
H1622 H 0.82986 0.96905 0.72962 0.0
H1623 H 0.87033 0.94305 0.73176 0.0
H1624 H 0.89447 0.90774 0.76021 0.0
C1625 C 0.94845 0.82561 0.75468 0.0
C1626 C 0.90483 0.85802 0.7119 0.0
C1627 C 0.96261 0.80228 0.75613 0.0
C1628 C 0.83049 0.94911 0.72998 0.0
C1629 C 0.85354 0.93432 0.73128 0.0
C1630 C 0.89739 0.89412 0.74646 0.0
C1631 C 0.94311 0.83767 0.7317 0.0
C1632 C 0.92266 0.85843 0.7296 0.0
C1633 C 0.8549 0.90851 0.73076 0.0
C1634 C 0.87911 0.8927 0.72951 0.0
H1635 H 0.97503 0.79526 0.69511 0.0
H1636 H 0.95108 0.83632 0.69254 0.0
H1637 H 0.9325 0.87778 0.76036 0.0
H1638 H 0.79327 0.90349 0.72806 0.0
H1639 H 0.83346 0.87772 0.73016 0.0
C1640 C 0.43336 0.16464 0.70704 0.0
C1641 C 0.456 0.1589 0.7188 0.0
C1642 C 0.42807 0.15089 0.68782 0.0
C1643 C 0.44619 0.09432 0.65477 0.0
H1644 H 0.4349 0.13812 0.59656 0.0
C1645 C 0.46959 0.08661 0.54752 0.0
C1646 C 0.45791 0.0662 0.5423 0.0
C1647 C 0.46351 0.09845 0.56925 0.0
C1648 C 0.43772 0.12572 0.61272 0.0
H1649 H 0.48992 0.13316 0.72131 0.0
H1650 H 0.48057 0.10888 0.68763 0.0
H1651 H 0.43465 0.15558 0.63656 0.0
H1652 H 0.43007 0.04267 0.55522 0.0
H1653 H 0.4199 0.06313 0.59357 0.0
H1654 H 0.44996 0.06449 0.63067 0.0
C1655 C 0.46697 0.12404 0.69328 0.0
C1656 C 0.43745 0.13564 0.63558 0.0
C1657 C 0.47234 0.13793 0.71248 0.0
C1658 C 0.43925 0.0585 0.55869 0.0
C1659 C 0.43353 0.07003 0.58067 0.0
C1660 C 0.44606 0.08437 0.6319 0.0
C1661 C 0.44526 0.13108 0.68017 0.0
C1662 C 0.44223 0.12007 0.65673 0.0
C1663 C 0.44599 0.08977 0.5863 0.0
C1664 C 0.44242 0.10005 0.61067 0.0
H1665 H 0.42034 0.18063 0.71173 0.0
H1666 H 0.41109 0.15647 0.67817 0.0
H1667 H 0.44992 0.08198 0.67083 0.0
H1668 H 0.48403 0.09289 0.5352 0.0
H1669 H 0.47344 0.11357 0.57331 0.0
C1670 C 0.54082 0.32368 0.81704 0.0
C1671 C 0.51849 0.3218 0.80586 0.0
C1672 C 0.54222 0.34281 0.8325 0.0
C1673 C 0.50696 0.40165 0.85406 0.0
H1674 H 0.53886 0.3804 0.91509 0.0
C1675 C 0.47741 0.44457 0.94536 0.0
C1676 C 0.49616 0.45333 0.95787 0.0
C1677 C 0.48354 0.43024 0.92524 0.0
C1678 C 0.53018 0.38664 0.898 0.0
H1679 H 0.48048 0.3388 0.80099 0.0
H1680 H 0.48252 0.37151 0.82846 0.0
H1681 H 0.54411 0.3531 0.88112 0.0
H1682 H 0.53604 0.45335 0.95973 0.0
H1683 H 0.5468 0.42733 0.92486 0.0
H1684 H 0.49172 0.43451 0.87176 0.0
C1685 C 0.49923 0.35879 0.82502 0.0
C1686 C 0.53329 0.37114 0.87846 0.0
C1687 C 0.49796 0.3399 0.80938 0.0
C1688 C 0.52123 0.44681 0.95039 0.0
C1689 C 0.52739 0.43202 0.93051 0.0
C1690 C 0.50352 0.41691 0.87374 0.0
C1691 C 0.52119 0.36017 0.83724 0.0
C1692 C 0.52117 0.37819 0.85646 0.0
C1693 C 0.50854 0.42405 0.91756 0.0
C1694 C 0.51464 0.40925 0.896 0.0
H1695 H 0.55696 0.30998 0.81442 0.0
H1696 H 0.55956 0.34361 0.84124 0.0
H1697 H 0.49786 0.40795 0.83721 0.0
H1698 H 0.45792 0.44949 0.95056 0.0
H1699 H 0.46874 0.42402 0.91561 0.0
C1700 C 0.57817 0.82701 0.30933 0.0
C1701 C 0.56496 0.83017 0.28773 0.0
C1702 C 0.57749 0.84659 0.32465 0.0
C1703 C 0.57468 0.89219 0.35428 0.0
H1704 H 0.50601 0.92241 0.36146 0.0
C1705 C 0.5395 0.96408 0.42591 0.0
C1706 C 0.51625 0.96165 0.43781 0.0
C1707 C 0.54827 0.94938 0.40659 0.0
C1708 C 0.52524 0.91406 0.35975 0.0
H1709 H 0.5434 0.85674 0.26349 0.0
H1710 H 0.54282 0.89119 0.28986 0.0
H1711 H 0.51857 0.89629 0.32764 0.0
H1712 H 0.48446 0.94115 0.43936 0.0
H1713 H 0.49994 0.9153 0.40583 0.0
H1714 H 0.58091 0.90925 0.38721 0.0
C1715 C 0.553 0.87345 0.29542 0.0
C1716 C 0.53258 0.89945 0.34009 0.0
C1717 C 0.55349 0.85381 0.28024 0.0
C1718 C 0.50237 0.94361 0.43052 0.0
C1719 C 0.51114 0.92893 0.41118 0.0
C1720 C 0.5673 0.90688 0.37403 0.0
C1721 C 0.56374 0.86964 0.31844 0.0
C1722 C 0.55728 0.888 0.33732 0.0
C1723 C 0.53397 0.93198 0.39875 0.0
C1724 C 0.54237 0.91753 0.3772 0.0
H1725 H 0.58723 0.80893 0.31545 0.0
H1726 H 0.58594 0.84301 0.34224 0.0
H1727 H 0.59386 0.88371 0.35257 0.0
H1728 H 0.55075 0.97774 0.43111 0.0
H1729 H 0.56587 0.95221 0.3973 0.0
C1730 C 0.46698 0.58428 0.06304 0.0
C1731 C 0.45339 0.5645 0.06044 0.0
C1732 C 0.46184 0.59912 0.08295 0.0
C1733 C 0.44307 0.59461 0.14626 0.0
H1734 H 0.43894 0.66621 0.1415 0.0
C1735 C 0.48274 0.65385 0.21357 0.0
C1736 C 0.4697 0.67716 0.21811 0.0
C1737 C 0.47315 0.63846 0.19806 0.0
C1738 C 0.43956 0.64626 0.14319 0.0
H1739 H 0.4233 0.54512 0.07616 0.0
H1740 H 0.41485 0.57079 0.11137 0.0
H1741 H 0.43613 0.644 0.10461 0.0
H1742 H 0.4356 0.70191 0.21195 0.0
H1743 H 0.41906 0.67513 0.18443 0.0
H1744 H 0.44821 0.59678 0.18461 0.0
C1745 C 0.42921 0.57489 0.0978 0.0
C1746 C 0.43813 0.6336 0.12209 0.0
C1747 C 0.43401 0.56034 0.07763 0.0
C1748 C 0.44605 0.68404 0.20859 0.0
C1749 C 0.43661 0.66879 0.19285 0.0
C1750 C 0.44491 0.60725 0.16734 0.0
C1751 C 0.44333 0.59415 0.10077 0.0
C1752 C 0.44053 0.60768 0.12339 0.0
C1753 C 0.45054 0.64633 0.18673 0.0
C1754 C 0.4438 0.63313 0.16584 0.0
H1755 H 0.48197 0.58792 0.05002 0.0
H1756 H 0.47312 0.61378 0.08502 0.0
H1757 H 0.44514 0.57456 0.14761 0.0
H1758 H 0.50098 0.64814 0.2208 0.0
H1759 H 0.48432 0.62128 0.19349 0.0
loop_
_geom_bond_atom_site_label_1
_geom_bond_atom_site_label_2
_geom_bond_distance
_geom_bond_site_symmetry_2
_ccdc_geom_bond_type
Dy0 O4 2.398 . S
Dy0 O5 2.491 1_554 S
Dy0 O6 2.403 1_655 S
Dy0 O7 2.664 1_655 S
Dy0 O11 2.326 1_654 S
Dy0 O15 2.310 1_564 S
Dy0 O16 2.351 1_565 S
C1 O12 1.185 . S
C1 O13 1.355 1_556 S
C2 O4 1.185 . S
C2 O5 1.355 1_554 S
Dy3 O7 2.310 1_546 S
Dy3 O10 2.351 1_545 S
Dy3 O12 2.398 . S
Dy3 O13 2.491 1_556 S
Dy3 O14 2.403 1_455 S
Dy3 O15 2.664 1_455 S
Dy3 O17 2.326 1_456 S
O4 Dy0 2.398 . S
O4 C2 1.185 . S
O5 Dy0 2.491 1_556 S
O5 C2 1.355 1_556 S
O6 Dy0 2.403 1_455 S
O6 C8 1.254 . S
O7 Dy0 2.664 1_455 S
O7 Dy3 2.310 1_564 S
O7 C8 1.268 . S
C8 O6 1.254 . S
C8 O7 1.268 . S
C9 O14 1.254 . S
C9 O15 1.268 . S
O10 Dy3 2.351 1_565 S
O10 C18 1.249 . S
O11 Dy0 2.326 1_456 S
O11 C18 1.267 . S
O12 C1 1.185 . S
O12 Dy3 2.398 . S
O13 C1 1.355 1_554 S
O13 Dy3 2.491 1_554 S
O14 Dy3 2.403 1_655 S
O14 C9 1.254 . S
O15 Dy0 2.310 1_546 S
O15 Dy3 2.664 1_655 S
O15 C9 1.268 . S
O16 Dy0 2.351 1_545 S
O16 C19 1.249 . S
O17 Dy3 2.326 1_654 S
O17 C19 1.267 . S
C18 O10 1.249 . S
C18 O11 1.267 . S
C19 O16 1.249 . S
C19 O17 1.267 . S
Dy20 O24 2.398 . S
Dy20 O25 2.491 1_455 S
Dy20 O26 2.403 . S
Dy20 O27 2.664 . S
Dy20 O31 2.326 1_455 S
Dy20 O35 2.310 1_455 S
Dy20 O36 2.351 . S
C21 O32 1.185 . S
C21 O33 1.355 1_655 S
C22 O24 1.185 . S
C22 O25 1.355 1_455 S
Dy23 O27 2.310 1_655 S
Dy23 O30 2.351 . S
Dy23 O32 2.398 . S
Dy23 O33 2.491 1_655 S
Dy23 O34 2.403 . S
Dy23 O35 2.664 . S
Dy23 O37 2.326 1_655 S
O24 Dy20 2.398 . S
O24 C22 1.185 . S
O25 Dy20 2.491 1_655 S
O25 C22 1.355 1_655 S
O26 Dy20 2.403 . S
O26 C28 1.254 . S
O27 Dy20 2.664 . S
O27 Dy23 2.310 1_455 S
O27 C28 1.268 . S
C28 O26 1.254 . S
C28 O27 1.268 . S
C29 O34 1.254 . S
C29 O35 1.268 . S
O30 Dy23 2.351 . S
O30 C38 1.249 . S
O31 Dy20 2.326 1_655 S
O31 C38 1.267 . S
O32 C21 1.185 . S
O32 Dy23 2.398 . S
O33 C21 1.355 1_455 S
O33 Dy23 2.491 1_455 S
O34 Dy23 2.403 . S
O34 C29 1.254 . S
O35 Dy20 2.310 1_655 S
O35 Dy23 2.664 . S
O35 C29 1.268 . S
O36 Dy20 2.351 . S
O36 C39 1.249 . S
O37 Dy23 2.326 1_455 S
O37 C39 1.267 . S
C38 O30 1.249 . S
C38 O31 1.267 . S
C39 O36 1.249 . S
C39 O37 1.267 . S
Dy40 O44 2.398 . S
Dy40 O45 2.491 . S
Dy40 O46 2.403 . S
Dy40 O47 2.664 . S
Dy40 O51 2.326 . S
Dy40 O55 2.310 . S
Dy40 O56 2.351 . S
C41 O52 1.185 . S
C41 O53 1.355 . S
C42 O44 1.185 . S
C42 O45 1.355 . S
Dy43 O47 2.310 . S
Dy43 O50 2.351 . S
Dy43 O52 2.398 . S
Dy43 O53 2.491 . S
Dy43 O54 2.403 . S
Dy43 O55 2.664 . S
Dy43 O57 2.326 . S
O44 Dy40 2.398 . S
O44 C42 1.185 . S
O45 Dy40 2.491 . S
O45 C42 1.355 . S
O46 Dy40 2.403 . S
O46 C48 1.254 . S
O47 Dy40 2.664 . S
O47 Dy43 2.310 . S
O47 C48 1.268 . S
C48 O46 1.254 . S
C48 O47 1.268 . S
C49 O54 1.254 . S
C49 O55 1.268 . S
O50 Dy43 2.351 . S
O50 C58 1.249 . S
O51 Dy40 2.326 . S
O51 C58 1.267 . S
O52 C41 1.185 . S
O52 Dy43 2.398 . S
O53 C41 1.355 . S
O53 Dy43 2.491 . S
O54 Dy43 2.403 . S
O54 C49 1.254 . S
O55 Dy40 2.310 . S
O55 Dy43 2.664 . S
O55 C49 1.268 . S
O56 Dy40 2.351 . S
O56 C59 1.249 . S
O57 Dy43 2.326 . S
O57 C59 1.267 . S
C58 O50 1.249 . S
C58 O51 1.267 . S
C59 O56 1.249 . S
C59 O57 1.267 . S
Dy60 O64 2.398 . S
Dy60 O65 2.491 1_565 S
Dy60 O66 2.403 . S
Dy60 O67 2.664 . S
Dy60 O71 2.326 1_565 S
Dy60 O75 2.310 1_565 S
Dy60 O76 2.351 . S
C61 O72 1.185 . S
C61 O73 1.355 1_545 S
C62 O64 1.185 . S
C62 O65 1.355 1_565 S
Dy63 O67 2.310 1_545 S
Dy63 O70 2.351 . S
Dy63 O72 2.398 . S
Dy63 O73 2.491 1_545 S
Dy63 O74 2.403 . S
Dy63 O75 2.664 . S
Dy63 O77 2.326 1_545 S
O64 Dy60 2.398 . S
O64 C62 1.185 . S
O65 Dy60 2.491 1_545 S
O65 C62 1.355 1_545 S
O66 Dy60 2.403 . S
O66 C68 1.254 . S
O67 Dy60 2.664 . S
O67 Dy63 2.310 1_565 S
O67 C68 1.268 . S
C68 O66 1.254 . S
C68 O67 1.268 . S
C69 O74 1.254 . S
C69 O75 1.268 . S
O70 Dy63 2.351 . S
O70 C78 1.249 . S
O71 Dy60 2.326 1_545 S
O71 C78 1.267 . S
O72 C61 1.185 . S
O72 Dy63 2.398 . S
O73 C61 1.355 1_565 S
O73 Dy63 2.491 1_565 S
O74 Dy63 2.403 . S
O74 C69 1.254 . S
O75 Dy60 2.310 1_545 S
O75 Dy63 2.664 . S
O75 C69 1.268 . S
O76 Dy60 2.351 . S
O76 C79 1.249 . S
O77 Dy63 2.326 1_565 S
O77 C79 1.267 . S
C78 O70 1.249 . S
C78 O71 1.267 . S
C79 O76 1.249 . S
C79 O77 1.267 . S
Dy80 O84 2.398 . S
Dy80 O85 2.491 . S
Dy80 O86 2.403 . S
Dy80 O87 2.664 . S
Dy80 O91 2.326 . S
Dy80 O95 2.310 . S
Dy80 O96 2.351 . S
C81 O92 1.185 . S
C81 O93 1.355 . S
C82 O84 1.185 . S
C82 O85 1.355 . S
Dy83 O87 2.310 . S
Dy83 O90 2.351 . S
Dy83 O92 2.398 . S
Dy83 O93 2.491 . S
Dy83 O94 2.403 . S
Dy83 O95 2.664 . S
Dy83 O97 2.326 . S
O84 Dy80 2.398 . S
O84 C82 1.185 . S
O85 Dy80 2.491 . S
O85 C82 1.355 . S
O86 Dy80 2.403 . S
O86 C88 1.254 . S
O87 Dy80 2.664 . S
O87 Dy83 2.310 . S
O87 C88 1.268 . S
C88 O86 1.254 . S
C88 O87 1.268 . S
C89 O94 1.254 . S
C89 O95 1.268 . S
O90 Dy83 2.351 . S
O90 C98 1.249 . S
O91 Dy80 2.326 . S
O91 C98 1.267 . S
O92 C81 1.185 . S
O92 Dy83 2.398 . S
O93 C81 1.355 . S
O93 Dy83 2.491 . S
O94 Dy83 2.403 . S
O94 C89 1.254 . S
O95 Dy80 2.310 . S
O95 Dy83 2.664 . S
O95 C89 1.268 . S
O96 Dy80 2.351 . S
O96 C99 1.249 . S
O97 Dy83 2.326 . S
O97 C99 1.267 . S
C98 O90 1.249 . S
C98 O91 1.267 . S
C99 O96 1.249 . S
C99 O97 1.267 . S
Dy100 O104 2.398 . S
Dy100 O105 2.491 . S
Dy100 O106 2.403 . S
Dy100 O107 2.664 . S
Dy100 O111 2.326 . S
Dy100 O115 2.310 . S
Dy100 O116 2.351 . S
C101 O112 1.185 . S
C101 O113 1.355 . S
C102 O104 1.185 . S
C102 O105 1.355 . S
Dy103 O107 2.310 . S
Dy103 O110 2.351 . S
Dy103 O112 2.398 . S
Dy103 O113 2.491 . S
Dy103 O114 2.403 . S
Dy103 O115 2.664 . S
Dy103 O117 2.326 . S
O104 Dy100 2.398 . S
O104 C102 1.185 . S
O105 Dy100 2.491 . S
O105 C102 1.355 . S
O106 Dy100 2.403 . S
O106 C108 1.254 . S
O107 Dy100 2.664 . S
O107 Dy103 2.310 . S
O107 C108 1.268 . S
C108 O106 1.254 . S
C108 O107 1.268 . S
C109 O114 1.254 . S
C109 O115 1.268 . S
O110 Dy103 2.351 . S
O110 C118 1.249 . S
O111 Dy100 2.326 . S
O111 C118 1.267 . S
O112 C101 1.185 . S
O112 Dy103 2.398 . S
O113 C101 1.355 . S
O113 Dy103 2.491 . S
O114 Dy103 2.403 . S
O114 C109 1.254 . S
O115 Dy100 2.310 . S
O115 Dy103 2.664 . S
O115 C109 1.268 . S
O116 Dy100 2.351 . S
O116 C119 1.249 . S
O117 Dy103 2.326 . S
O117 C119 1.267 . S
C118 O110 1.249 . S
C118 O111 1.267 . S
C119 O116 1.249 . S
C119 O117 1.267 . S
Dy120 O124 2.398 . S
Dy120 O125 2.491 . S
Dy120 O126 2.403 . S
Dy120 O127 2.664 . S
Dy120 O131 2.326 . S
Dy120 O135 2.310 . S
Dy120 O136 2.351 . S
C121 O132 1.185 . S
C121 O133 1.355 . S
C122 O124 1.185 . S
C122 O125 1.355 . S
Dy123 O127 2.310 . S
Dy123 O130 2.351 . S
Dy123 O132 2.398 . S
Dy123 O133 2.491 . S
Dy123 O134 2.403 . S
Dy123 O135 2.664 . S
Dy123 O137 2.326 . S
O124 Dy120 2.398 . S
O124 C122 1.185 . S
O125 Dy120 2.491 . S
O125 C122 1.355 . S
O126 Dy120 2.403 . S
O126 C128 1.254 . S
O127 Dy120 2.664 . S
O127 Dy123 2.310 . S
O127 C128 1.268 . S
C128 O126 1.254 . S
C128 O127 1.268 . S
C129 O134 1.254 . S
C129 O135 1.268 . S
O130 Dy123 2.351 . S
O130 C138 1.249 . S
O131 Dy120 2.326 . S
O131 C138 1.267 . S
O132 C121 1.185 . S
O132 Dy123 2.398 . S
O133 C121 1.355 . S
O133 Dy123 2.491 . S
O134 Dy123 2.403 . S
O134 C129 1.254 . S
O135 Dy120 2.310 . S
O135 Dy123 2.664 . S
O135 C129 1.268 . S
O136 Dy120 2.351 . S
O136 C139 1.249 . S
O137 Dy123 2.326 . S
O137 C139 1.267 . S
C138 O130 1.249 . S
C138 O131 1.267 . S
C139 O136 1.249 . S
C139 O137 1.267 . S
Dy140 O144 2.398 . S
Dy140 O145 2.491 . S
Dy140 O146 2.403 1_655 S
Dy140 O147 2.664 1_655 S
Dy140 O151 2.326 1_655 S
Dy140 O155 2.310 . S
Dy140 O156 2.351 . S
C141 O152 1.185 . S
C141 O153 1.355 . S
C142 O144 1.185 . S
C142 O145 1.355 . S
Dy143 O147 2.310 . S
Dy143 O150 2.351 . S
Dy143 O152 2.398 . S
Dy143 O153 2.491 . S
Dy143 O154 2.403 1_455 S
Dy143 O155 2.664 1_455 S
Dy143 O157 2.326 1_455 S
O144 Dy140 2.398 . S
O144 C142 1.185 . S
O145 Dy140 2.491 . S
O145 C142 1.355 . S
O146 Dy140 2.403 1_455 S
O146 C148 1.254 . S
O147 Dy140 2.664 1_455 S
O147 Dy143 2.310 . S
O147 C148 1.268 . S
C148 O146 1.254 . S
C148 O147 1.268 . S
C149 O154 1.254 . S
C149 O155 1.268 . S
O150 Dy143 2.351 . S
O150 C158 1.249 . S
O151 Dy140 2.326 1_455 S
O151 C158 1.267 . S
O152 C141 1.185 . S
O152 Dy143 2.398 . S
O153 C141 1.355 . S
O153 Dy143 2.491 . S
O154 Dy143 2.403 1_655 S
O154 C149 1.254 . S
O155 Dy140 2.310 . S
O155 Dy143 2.664 1_655 S
O155 C149 1.268 . S
O156 Dy140 2.351 . S
O156 C159 1.249 . S
O157 Dy143 2.326 1_655 S
O157 C159 1.267 . S
C158 O150 1.249 . S
C158 O151 1.267 . S
C159 O156 1.249 . S
C159 O157 1.267 . S
Dy160 O164 2.398 . S
Dy160 O165 2.491 1_556 S
Dy160 O166 2.403 . S
Dy160 O167 2.664 . S
Dy160 O171 2.326 1_556 S
Dy160 O175 2.310 1_556 S
Dy160 O176 2.351 . S
C161 O172 1.185 . S
C161 O173 1.355 1_554 S
C162 O164 1.185 . S
C162 O165 1.355 1_556 S
Dy163 O167 2.310 1_554 S
Dy163 O170 2.351 . S
Dy163 O172 2.398 . S
Dy163 O173 2.491 1_554 S
Dy163 O174 2.403 . S
Dy163 O175 2.664 . S
Dy163 O177 2.326 1_554 S
O164 Dy160 2.398 . S
O164 C162 1.185 . S
O165 Dy160 2.491 1_554 S
O165 C162 1.355 1_554 S
O166 Dy160 2.403 . S
O166 C168 1.254 . S
O167 Dy160 2.664 . S
O167 Dy163 2.310 1_556 S
O167 C168 1.268 . S
C168 O166 1.254 . S
C168 O167 1.268 . S
C169 O174 1.254 . S
C169 O175 1.268 . S
O170 Dy163 2.351 . S
O170 C178 1.249 . S
O171 Dy160 2.326 1_554 S
O171 C178 1.267 . S
O172 C161 1.185 . S
O172 Dy163 2.398 . S
O173 C161 1.355 1_556 S
O173 Dy163 2.491 1_556 S
O174 Dy163 2.403 . S
O174 C169 1.254 . S
O175 Dy160 2.310 1_554 S
O175 Dy163 2.664 . S
O175 C169 1.268 . S
O176 Dy160 2.351 . S
O176 C179 1.249 . S
O177 Dy163 2.326 1_556 S
O177 C179 1.267 . S
C178 O170 1.249 . S
C178 O171 1.267 . S
C179 O176 1.249 . S
C179 O177 1.267 . S
Dy180 O184 2.398 . S
Dy180 O185 2.491 1_565 S
Dy180 O186 2.403 . S
Dy180 O187 2.664 . S
Dy180 O191 2.326 1_565 S
Dy180 O195 2.310 1_565 S
Dy180 O196 2.351 . S
C181 O192 1.185 . S
C181 O193 1.355 1_545 S
C182 O184 1.185 . S
C182 O185 1.355 1_565 S
Dy183 O187 2.310 1_545 S
Dy183 O190 2.351 . S
Dy183 O192 2.398 . S
Dy183 O193 2.491 1_545 S
Dy183 O194 2.403 . S
Dy183 O195 2.664 . S
Dy183 O197 2.326 1_545 S
O184 Dy180 2.398 . S
O184 C182 1.185 . S
O185 Dy180 2.491 1_545 S
O185 C182 1.355 1_545 S
O186 Dy180 2.403 . S
O186 C188 1.254 . S
O187 Dy180 2.664 . S
O187 Dy183 2.310 1_565 S
O187 C188 1.268 . S
C188 O186 1.254 . S
C188 O187 1.268 . S
C189 O194 1.254 . S
C189 O195 1.268 . S
O190 Dy183 2.351 . S
O190 C198 1.249 . S
O191 Dy180 2.326 1_545 S
O191 C198 1.267 . S
O192 C181 1.185 . S
O192 Dy183 2.398 . S
O193 C181 1.355 1_565 S
O193 Dy183 2.491 1_565 S
O194 Dy183 2.403 . S
O194 C189 1.254 . S
O195 Dy180 2.310 1_545 S
O195 Dy183 2.664 . S
O195 C189 1.268 . S
O196 Dy180 2.351 . S
O196 C199 1.249 . S
O197 Dy183 2.326 1_565 S
O197 C199 1.267 . S
C198 O190 1.249 . S
C198 O191 1.267 . S
C199 O196 1.249 . S
C199 O197 1.267 . S
Dy200 O204 2.398 . S
Dy200 O205 2.491 . S
Dy200 O206 2.403 . S
Dy200 O207 2.664 . S
Dy200 O211 2.326 . S
Dy200 O215 2.310 . S
Dy200 O216 2.351 . S
C201 O212 1.185 . S
C201 O213 1.355 . S
C202 O204 1.185 . S
C202 O205 1.355 . S
Dy203 O207 2.310 . S
Dy203 O210 2.351 . S
Dy203 O212 2.398 . S
Dy203 O213 2.491 . S
Dy203 O214 2.403 . S
Dy203 O215 2.664 . S
Dy203 O217 2.326 . S
O204 Dy200 2.398 . S
O204 C202 1.185 . S
O205 Dy200 2.491 . S
O205 C202 1.355 . S
O206 Dy200 2.403 . S
O206 C208 1.254 . S
O207 Dy200 2.664 . S
O207 Dy203 2.310 . S
O207 C208 1.268 . S
C208 O206 1.254 . S
C208 O207 1.268 . S
C209 O214 1.254 . S
C209 O215 1.268 . S
O210 Dy203 2.351 . S
O210 C218 1.249 . S
O211 Dy200 2.326 . S
O211 C218 1.267 . S
O212 C201 1.185 . S
O212 Dy203 2.398 . S
O213 C201 1.355 . S
O213 Dy203 2.491 . S
O214 Dy203 2.403 . S
O214 C209 1.254 . S
O215 Dy200 2.310 . S
O215 Dy203 2.664 . S
O215 C209 1.268 . S
O216 Dy200 2.351 . S
O216 C219 1.249 . S
O217 Dy203 2.326 . S
O217 C219 1.267 . S
C218 O210 1.249 . S
C218 O211 1.267 . S
C219 O216 1.249 . S
C219 O217 1.267 . S
Dy220 O224 2.398 . S
Dy220 O225 2.491 1_455 S
Dy220 O226 2.403 . S
Dy220 O227 2.664 . S
Dy220 O231 2.326 1_455 S
Dy220 O235 2.310 1_455 S
Dy220 O236 2.351 . S
C221 O232 1.185 . S
C221 O233 1.355 1_655 S
C222 O224 1.185 . S
C222 O225 1.355 1_455 S
Dy223 O227 2.310 1_655 S
Dy223 O230 2.351 . S
Dy223 O232 2.398 . S
Dy223 O233 2.491 1_655 S
Dy223 O234 2.403 . S
Dy223 O235 2.664 . S
Dy223 O237 2.326 1_655 S
O224 Dy220 2.398 . S
O224 C222 1.185 . S
O225 Dy220 2.491 1_655 S
O225 C222 1.355 1_655 S
O226 Dy220 2.403 . S
O226 C228 1.254 . S
O227 Dy220 2.664 . S
O227 Dy223 2.310 1_455 S
O227 C228 1.268 . S
C228 O226 1.254 . S
C228 O227 1.268 . S
C229 O234 1.254 . S
C229 O235 1.268 . S
O230 Dy223 2.351 . S
O230 C238 1.249 . S
O231 Dy220 2.326 1_655 S
O231 C238 1.267 . S
O232 C221 1.185 . S
O232 Dy223 2.398 . S
O233 C221 1.355 1_455 S
O233 Dy223 2.491 1_455 S
O234 Dy223 2.403 . S
O234 C229 1.254 . S
O235 Dy220 2.310 1_655 S
O235 Dy223 2.664 . S
O235 C229 1.268 . S
O236 Dy220 2.351 . S
O236 C239 1.249 . S
O237 Dy223 2.326 1_455 S
O237 C239 1.267 . S
C238 O230 1.249 . S
C238 O231 1.267 . S
C239 O236 1.249 . S
C239 O237 1.267 . S
Dy240 O244 2.398 . S
Dy240 O245 2.491 . S
Dy240 O246 2.403 . S
Dy240 O247 2.664 . S
Dy240 O251 2.326 . S
Dy240 O255 2.310 . S
Dy240 O256 2.351 . S
C241 O252 1.185 . S
C241 O253 1.355 . S
C242 O244 1.185 . S
C242 O245 1.355 . S
Dy243 O247 2.310 . S
Dy243 O250 2.351 . S
Dy243 O252 2.398 . S
Dy243 O253 2.491 . S
Dy243 O254 2.403 . S
Dy243 O255 2.664 . S
Dy243 O257 2.326 . S
O244 Dy240 2.398 . S
O244 C242 1.185 . S
O245 Dy240 2.491 . S
O245 C242 1.355 . S
O246 Dy240 2.403 . S
O246 C248 1.254 . S
O247 Dy240 2.664 . S
O247 Dy243 2.310 . S
O247 C248 1.268 . S
C248 O246 1.254 . S
C248 O247 1.268 . S
C249 O254 1.254 . S
C249 O255 1.268 . S
O250 Dy243 2.351 . S
O250 C258 1.249 . S
O251 Dy240 2.326 . S
O251 C258 1.267 . S
O252 C241 1.185 . S
O252 Dy243 2.398 . S
O253 C241 1.355 . S
O253 Dy243 2.491 . S
O254 Dy243 2.403 . S
O254 C249 1.254 . S
O255 Dy240 2.310 . S
O255 Dy243 2.664 . S
O255 C249 1.268 . S
O256 Dy240 2.351 . S
O256 C259 1.249 . S
O257 Dy243 2.326 . S
O257 C259 1.267 . S
C258 O250 1.249 . S
C258 O251 1.267 . S
C259 O256 1.249 . S
C259 O257 1.267 . S
Dy260 O264 2.398 . S
Dy260 O265 2.491 1_556 S
Dy260 O266 2.403 . S
Dy260 O267 2.664 . S
Dy260 O271 2.326 1_556 S
Dy260 O275 2.310 1_556 S
Dy260 O276 2.351 . S
C261 O272 1.185 . S
C261 O273 1.355 1_554 S
C262 O264 1.185 . S
C262 O265 1.355 1_556 S
Dy263 O267 2.310 1_554 S
Dy263 O270 2.351 . S
Dy263 O272 2.398 . S
Dy263 O273 2.491 1_554 S
Dy263 O274 2.403 . S
Dy263 O275 2.664 . S
Dy263 O277 2.326 1_554 S
O264 Dy260 2.398 . S
O264 C262 1.185 . S
O265 Dy260 2.491 1_554 S
O265 C262 1.355 1_554 S
O266 Dy260 2.403 . S
O266 C268 1.254 . S
O267 Dy260 2.664 . S
O267 Dy263 2.310 1_556 S
O267 C268 1.268 . S
C268 O266 1.254 . S
C268 O267 1.268 . S
C269 O274 1.254 . S
C269 O275 1.268 . S
O270 Dy263 2.351 . S
O270 C278 1.249 . S
O271 Dy260 2.326 1_554 S
O271 C278 1.267 . S
O272 C261 1.185 . S
O272 Dy263 2.398 . S
O273 C261 1.355 1_556 S
O273 Dy263 2.491 1_556 S
O274 Dy263 2.403 . S
O274 C269 1.254 . S
O275 Dy260 2.310 1_554 S
O275 Dy263 2.664 . S
O275 C269 1.268 . S
O276 Dy260 2.351 . S
O276 C279 1.249 . S
O277 Dy263 2.326 1_556 S
O277 C279 1.267 . S
C278 O270 1.249 . S
C278 O271 1.267 . S
C279 O276 1.249 . S
C279 O277 1.267 . S
Dy280 O284 2.398 . S
Dy280 O285 2.491 . S
Dy280 O286 2.403 . S
Dy280 O287 2.664 . S
Dy280 O291 2.326 . S
Dy280 O295 2.310 1_565 S
Dy280 O296 2.351 1_565 S
C281 O292 1.185 . S
C281 O293 1.355 . S
C282 O284 1.185 . S
C282 O285 1.355 . S
Dy283 O287 2.310 1_545 S
Dy283 O290 2.351 1_545 S
Dy283 O292 2.398 . S
Dy283 O293 2.491 . S
Dy283 O294 2.403 . S
Dy283 O295 2.664 . S
Dy283 O297 2.326 . S
O284 Dy280 2.398 . S
O284 C282 1.185 . S
O285 Dy280 2.491 . S
O285 C282 1.355 . S
O286 Dy280 2.403 . S
O286 C288 1.254 . S
O287 Dy280 2.664 . S
O287 Dy283 2.310 1_565 S
O287 C288 1.268 . S
C288 O286 1.254 . S
C288 O287 1.268 . S
C289 O294 1.254 . S
C289 O295 1.268 . S
O290 Dy283 2.351 1_565 S
O290 C298 1.249 . S
O291 Dy280 2.326 . S
O291 C298 1.267 . S
O292 C281 1.185 . S
O292 Dy283 2.398 . S
O293 C281 1.355 . S
O293 Dy283 2.491 . S
O294 Dy283 2.403 . S
O294 C289 1.254 . S
O295 Dy280 2.310 1_545 S
O295 Dy283 2.664 . S
O295 C289 1.268 . S
O296 Dy280 2.351 1_545 S
O296 C299 1.249 . S
O297 Dy283 2.326 . S
O297 C299 1.267 . S
C298 O290 1.249 . S
C298 O291 1.267 . S
C299 O296 1.249 . S
C299 O297 1.267 . S
Dy300 O304 2.398 . S
Dy300 O305 2.491 1_554 S
Dy300 O306 2.403 . S
Dy300 O307 2.664 . S
Dy300 O311 2.326 1_554 S
Dy300 O315 2.310 1_554 S
Dy300 O316 2.351 . S
C301 O312 1.185 . S
C301 O313 1.355 1_556 S
C302 O304 1.185 . S
C302 O305 1.355 1_554 S
Dy303 O307 2.310 1_556 S
Dy303 O310 2.351 . S
Dy303 O312 2.398 . S
Dy303 O313 2.491 1_556 S
Dy303 O314 2.403 . S
Dy303 O315 2.664 . S
Dy303 O317 2.326 1_556 S
O304 Dy300 2.398 . S
O304 C302 1.185 . S
O305 Dy300 2.491 1_556 S
O305 C302 1.355 1_556 S
O306 Dy300 2.403 . S
O306 C308 1.254 . S
O307 Dy300 2.664 . S
O307 Dy303 2.310 1_554 S
O307 C308 1.268 . S
C308 O306 1.254 . S
C308 O307 1.268 . S
C309 O314 1.254 . S
C309 O315 1.268 . S
O310 Dy303 2.351 . S
O310 C318 1.249 . S
O311 Dy300 2.326 1_556 S
O311 C318 1.267 . S
O312 C301 1.185 . S
O312 Dy303 2.398 . S
O313 C301 1.355 1_554 S
O313 Dy303 2.491 1_554 S
O314 Dy303 2.403 . S
O314 C309 1.254 . S
O315 Dy300 2.310 1_556 S
O315 Dy303 2.664 . S
O315 C309 1.268 . S
O316 Dy300 2.351 . S
O316 C319 1.249 . S
O317 Dy303 2.326 1_554 S
O317 C319 1.267 . S
C318 O310 1.249 . S
C318 O311 1.267 . S
C319 O316 1.249 . S
C319 O317 1.267 . S
C320 C321 1.349 1_455 S
C320 C322 1.327 . S
C320 H345 0.950 . S
C321 C320 1.349 1_655 S
C321 C337 1.349 . S
C322 C320 1.327 . S
C322 C341 1.429 1_455 S
C322 H346 0.950 . S
C323 C340 1.574 . S
C323 C342 1.368 . S
C323 H347 0.949 . S
H324 C328 0.949 . S
C325 C326 1.349 . S
C325 C327 1.327 . S
C325 H348 0.950 . S
C326 C325 1.349 . S
C326 C338 1.349 1_655 S
C327 C325 1.327 . S
C327 C343 1.429 . S
C327 H349 0.950 . S
C328 H324 0.949 . S
C328 C336 1.574 . S
C328 C344 1.368 1_455 S
H329 C337 0.950 . S
H330 C335 0.950 . S
H331 C336 0.949 . S
H332 C338 0.950 . S
H333 C339 0.950 . S
H334 C340 0.949 . S
C335 H330 0.950 . S
C335 C337 1.327 . S
C335 C341 1.429 . S
C336 C328 1.574 . S
C336 H331 0.949 . S
C336 C342 1.368 1_455 S
C337 C321 1.349 . S
C337 H329 0.950 . S
C337 C335 1.327 . S
C338 C326 1.349 1_455 S
C338 H332 0.950 . S
C338 C339 1.327 . S
C339 H333 0.950 . S
C339 C338 1.327 . S
C339 C343 1.429 1_455 S
C340 C323 1.574 . S
C340 H334 0.949 . S
C340 C344 1.368 . S
C341 C322 1.429 1_655 S
C341 C335 1.429 . S
C341 C342 1.523 . S
C342 C323 1.368 . S
C342 C336 1.368 1_655 S
C342 C341 1.523 . S
C343 C327 1.429 . S
C343 C339 1.429 1_655 S
C343 C344 1.523 . S
C344 C328 1.368 1_655 S
C344 C340 1.368 . S
C344 C343 1.523 . S
H345 C320 0.950 . S
H346 C322 0.950 . S
H347 C323 0.949 . S
H348 C325 0.950 . S
H349 C327 0.950 . S
C350 C351 1.349 . S
C350 C352 1.327 . S
C350 H375 0.950 . S
C351 C350 1.349 . S
C351 C367 1.349 . S
C352 C350 1.327 . S
C352 C371 1.429 . S
C352 H376 0.950 . S
C353 C370 1.574 . S
C353 C372 1.368 . S
C353 H377 0.949 . S
H354 C358 0.949 . S
C355 C356 1.349 . S
C355 C357 1.327 . S
C355 H378 0.950 . S
C356 C355 1.349 . S
C356 C368 1.349 . S
C357 C355 1.327 . S
C357 C373 1.429 . S
C357 H379 0.950 . S
C358 H354 0.949 . S
C358 C366 1.574 . S
C358 C374 1.368 . S
H359 C367 0.950 . S
H360 C365 0.950 . S
H361 C366 0.949 . S
H362 C368 0.950 . S
H363 C369 0.950 . S
H364 C370 0.949 . S
C365 H360 0.950 . S
C365 C367 1.327 . S
C365 C371 1.429 . S
C366 C358 1.574 . S
C366 H361 0.949 . S
C366 C372 1.368 . S
C367 C351 1.349 . S
C367 H359 0.950 . S
C367 C365 1.327 . S
C368 C356 1.349 . S
C368 H362 0.950 . S
C368 C369 1.327 . S
C369 H363 0.950 . S
C369 C368 1.327 . S
C369 C373 1.429 . S
C370 C353 1.574 . S
C370 H364 0.949 . S
C370 C374 1.368 . S
C371 C352 1.429 . S
C371 C365 1.429 . S
C371 C372 1.523 . S
C372 C353 1.368 . S
C372 C366 1.368 . S
C372 C371 1.523 . S
C373 C357 1.429 . S
C373 C369 1.429 . S
C373 C374 1.523 . S
C374 C358 1.368 . S
C374 C370 1.368 . S
C374 C373 1.523 . S
H375 C350 0.950 . S
H376 C352 0.950 . S
H377 C353 0.949 . S
H378 C355 0.950 . S
H379 C357 0.950 . S
C380 C381 1.349 . S
C380 C382 1.327 . S
C380 H405 0.950 . S
C381 C380 1.349 . S
C381 C397 1.349 . S
C382 C380 1.327 . S
C382 C401 1.429 . S
C382 H406 0.950 . S
C383 C400 1.574 . S
C383 C402 1.368 . S
C383 H407 0.949 . S
H384 C388 0.949 . S
C385 C386 1.349 . S
C385 C387 1.327 . S
C385 H408 0.950 . S
C386 C385 1.349 . S
C386 C398 1.349 . S
C387 C385 1.327 . S
C387 C403 1.429 . S
C387 H409 0.950 . S
C388 H384 0.949 . S
C388 C396 1.574 . S
C388 C404 1.368 . S
H389 C397 0.950 . S
H390 C395 0.950 . S
H391 C396 0.949 . S
H392 C398 0.950 . S
H393 C399 0.950 . S
H394 C400 0.949 . S
C395 H390 0.950 . S
C395 C397 1.327 . S
C395 C401 1.429 . S
C396 C388 1.574 . S
C396 H391 0.949 . S
C396 C402 1.368 . S
C397 C381 1.349 . S
C397 H389 0.950 . S
C397 C395 1.327 . S
C398 C386 1.349 . S
C398 H392 0.950 . S
C398 C399 1.327 . S
C399 H393 0.950 . S
C399 C398 1.327 . S
C399 C403 1.429 . S
C400 C383 1.574 . S
C400 H394 0.949 . S
C400 C404 1.368 . S
C401 C382 1.429 . S
C401 C395 1.429 . S
C401 C402 1.523 . S
C402 C383 1.368 . S
C402 C396 1.368 . S
C402 C401 1.523 . S
C403 C387 1.429 . S
C403 C399 1.429 . S
C403 C404 1.523 . S
C404 C388 1.368 . S
C404 C400 1.368 . S
C404 C403 1.523 . S
H405 C380 0.950 . S
H406 C382 0.950 . S
H407 C383 0.949 . S
H408 C385 0.950 . S
H409 C387 0.950 . S
C410 C411 1.349 . S
C410 C412 1.327 . S
C410 H435 0.950 1_545 S
C411 C410 1.349 . S
C411 C427 1.349 . S
C412 C410 1.327 . S
C412 C431 1.429 . S
C412 H436 0.950 1_545 S
C413 C430 1.574 . S
C413 C432 1.368 . S
C413 H437 0.949 . S
H414 C418 0.949 . S
C415 C416 1.349 . S
C415 C417 1.327 . S
C415 H438 0.950 . S
C416 C415 1.349 . S
C416 C428 1.349 1_545 S
C417 C415 1.327 . S
C417 C433 1.429 . S
C417 H439 0.950 . S
C418 H414 0.949 . S
C418 C426 1.574 . S
C418 C434 1.368 1_565 S
H419 C427 0.950 . S
H420 C425 0.950 . S
H421 C426 0.949 . S
H422 C428 0.950 . S
H423 C429 0.950 . S
H424 C430 0.949 . S
C425 H420 0.950 . S
C425 C427 1.327 . S
C425 C431 1.429 . S
C426 C418 1.574 . S
C426 H421 0.949 . S
C426 C432 1.368 1_565 S
C427 C411 1.349 . S
C427 H419 0.950 . S
C427 C425 1.327 . S
C428 C416 1.349 1_565 S
C428 H422 0.950 . S
C428 C429 1.327 . S
C429 H423 0.950 . S
C429 C428 1.327 . S
C429 C433 1.429 1_565 S
C430 C413 1.574 . S
C430 H424 0.949 . S
C430 C434 1.368 . S
C431 C412 1.429 . S
C431 C425 1.429 . S
C431 C432 1.523 . S
C432 C413 1.368 . S
C432 C426 1.368 1_545 S
C432 C431 1.523 . S
C433 C417 1.429 . S
C433 C429 1.429 1_545 S
C433 C434 1.523 . S
C434 C418 1.368 1_545 S
C434 C430 1.368 . S
C434 C433 1.523 . S
H435 C410 0.950 1_565 S
H436 C412 0.950 1_565 S
H437 C413 0.949 . S
H438 C415 0.950 . S
H439 C417 0.950 . S
C440 C441 1.349 . S
C440 C442 1.327 . S
C440 H465 0.950 . S
C441 C440 1.349 . S
C441 C457 1.349 . S
C442 C440 1.327 . S
C442 C461 1.429 . S
C442 H466 0.950 . S
C443 C460 1.574 . S
C443 C462 1.368 . S
C443 H467 0.949 . S
H444 C448 0.945 1_545 S
C445 C446 1.349 . S
C445 C447 1.327 . S
C445 H468 0.950 . S
C446 C445 1.349 . S
C446 C458 1.351 . S
C447 C445 1.327 . S
C447 C463 1.429 . S
C447 H469 0.950 . S
C448 H444 0.945 1_565 S
C448 C456 1.574 . S
C448 C464 1.368 . S
H449 C457 0.950 . S
H450 C455 0.950 . S
H451 C456 0.949 . S
H452 C458 0.944 1_545 S
H453 C459 0.950 1_545 S
H454 C460 0.949 . S
C455 H450 0.950 . S
C455 C457 1.327 . S
C455 C461 1.429 . S
C456 C448 1.574 . S
C456 H451 0.949 . S
C456 C462 1.368 . S
C457 C441 1.349 . S
C457 H449 0.950 . S
C457 C455 1.327 . S
C458 C446 1.351 . S
C458 H452 0.944 1_565 S
C458 C459 1.330 . S
C459 H453 0.950 1_565 S
C459 C458 1.330 . S
C459 C463 1.429 . S
C460 C443 1.574 . S
C460 H454 0.949 . S
C460 C464 1.368 . S
C461 C442 1.429 . S
C461 C455 1.429 . S
C461 C462 1.523 . S
C462 C443 1.368 . S
C462 C456 1.368 . S
C462 C461 1.523 . S
C463 C447 1.429 . S
C463 C459 1.429 . S
C463 C464 1.523 . S
C464 C448 1.368 . S
C464 C460 1.368 . S
C464 C463 1.523 . S
H465 C440 0.950 . S
H466 C442 0.950 . S
H467 C443 0.949 . S
H468 C445 0.950 . S
H469 C447 0.950 . S
C470 C471 1.349 . S
C470 C472 1.327 . S
C470 H495 0.950 1_455 S
C471 C470 1.349 . S
C471 C487 1.349 . S
C472 C470 1.327 . S
C472 C491 1.429 . S
C472 H496 0.950 1_455 S
C473 C490 1.574 . S
C473 C492 1.368 . S
C473 H497 0.949 . S
H474 C478 0.937 1_655 S
C475 C476 1.349 . S
C475 C477 1.327 . S
C475 H498 0.950 . S
C476 C475 1.349 . S
C476 C488 1.348 1_455 S
C477 C475 1.327 . S
C477 C493 1.429 . S
C477 H499 0.950 . S
C478 H474 0.937 1_455 S
C478 C486 1.578 . S
C478 C494 1.378 . S
H479 C487 0.950 . S
H480 C485 0.950 . S
H481 C486 0.949 1_655 S
H482 C488 0.950 . S
H483 C489 0.950 1_655 S
H484 C490 0.949 . S
C485 H480 0.950 . S
C485 C487 1.327 . S
C485 C491 1.429 . S
C486 C478 1.578 . S
C486 H481 0.949 1_455 S
C486 C492 1.368 . S
C487 C471 1.349 . S
C487 H479 0.950 . S
C487 C485 1.327 . S
C488 C476 1.348 1_655 S
C488 H482 0.950 . S
C488 C489 1.327 1_655 S
C489 H483 0.950 1_455 S
C489 C488 1.327 1_455 S
C489 C493 1.429 . S
C490 C473 1.574 . S
C490 H484 0.949 . S
C490 C494 1.368 . S
C491 C472 1.429 . S
C491 C485 1.429 . S
C491 C492 1.523 . S
C492 C473 1.368 . S
C492 C486 1.368 . S
C492 C491 1.523 . S
C493 C477 1.429 . S
C493 C489 1.429 . S
C493 C494 1.523 . S
C494 C478 1.378 . S
C494 C490 1.368 . S
C494 C493 1.523 . S
H495 C470 0.950 1_655 S
H496 C472 0.950 1_655 S
H497 C473 0.949 . S
H498 C475 0.950 . S
H499 C477 0.950 . S
C500 C501 1.349 . S
C500 C502 1.327 . S
C500 H525 0.950 . S
C501 C500 1.349 . S
C501 C517 1.349 . S
C502 C500 1.327 . S
C502 C521 1.429 . S
C502 H526 0.950 . S
C503 C520 1.574 . S
C503 C522 1.368 . S
C503 H527 0.949 . S
H504 C508 0.949 . S
C505 C506 1.349 . S
C505 C507 1.327 . S
C505 H528 0.950 . S
C506 C505 1.349 . S
C506 C518 1.349 . S
C507 C505 1.327 . S
C507 C523 1.429 . S
C507 H529 0.950 . S
C508 H504 0.949 . S
C508 C516 1.574 . S
C508 C524 1.368 . S
H509 C517 0.950 . S
H510 C515 0.950 . S
H511 C516 0.949 . S
H512 C518 0.950 . S
H513 C519 0.950 . S
H514 C520 0.949 . S
C515 H510 0.950 . S
C515 C517 1.327 . S
C515 C521 1.429 . S
C516 C508 1.574 . S
C516 H511 0.949 . S
C516 C522 1.368 . S
C517 C501 1.349 . S
C517 H509 0.950 . S
C517 C515 1.327 . S
C518 C506 1.349 . S
C518 H512 0.950 . S
C518 C519 1.327 . S
C519 H513 0.950 . S
C519 C518 1.327 . S
C519 C523 1.429 . S
C520 C503 1.574 . S
C520 H514 0.949 . S
C520 C524 1.368 . S
C521 C502 1.429 . S
C521 C515 1.429 . S
C521 C522 1.523 . S
C522 C503 1.368 . S
C522 C516 1.368 . S
C522 C521 1.523 . S
C523 C507 1.429 . S
C523 C519 1.429 . S
C523 C524 1.523 . S
C524 C508 1.368 . S
C524 C520 1.368 . S
C524 C523 1.523 . S
H525 C500 0.950 . S
H526 C502 0.950 . S
H527 C503 0.949 . S
H528 C505 0.950 . S
H529 C507 0.950 . S
C530 C531 1.349 . S
C530 C532 1.327 . S
C530 H555 0.950 . S
C531 C530 1.349 . S
C531 C547 1.349 . S
C532 C530 1.327 . S
C532 C551 1.429 . S
C532 H556 0.950 . S
C533 C550 1.574 . S
C533 C552 1.368 . S
C533 H557 0.949 . S
H534 C538 0.949 . S
C535 C536 1.349 . S
C535 C537 1.327 . S
C535 H558 0.950 . S
C536 C535 1.349 . S
C536 C548 1.349 . S
C537 C535 1.327 . S
C537 C553 1.429 . S
C537 H559 0.950 . S
C538 H534 0.949 . S
C538 C546 1.574 . S
C538 C554 1.368 . S
H539 C547 0.950 . S
H540 C545 0.950 . S
H541 C546 0.949 . S
H542 C548 0.950 . S
H543 C549 0.950 . S
H544 C550 0.949 . S
C545 H540 0.950 . S
C545 C547 1.327 . S
C545 C551 1.429 . S
C546 C538 1.574 . S
C546 H541 0.949 . S
C546 C552 1.368 . S
C547 C531 1.349 . S
C547 H539 0.950 . S
C547 C545 1.327 . S
C548 C536 1.349 . S
C548 H542 0.950 . S
C548 C549 1.327 . S
C549 H543 0.950 . S
C549 C548 1.327 . S
C549 C553 1.429 . S
C550 C533 1.574 . S
C550 H544 0.949 . S
C550 C554 1.368 . S
C551 C532 1.429 . S
C551 C545 1.429 . S
C551 C552 1.523 . S
C552 C533 1.368 . S
C552 C546 1.368 . S
C552 C551 1.523 . S
C553 C537 1.429 . S
C553 C549 1.429 . S
C553 C554 1.523 . S
C554 C538 1.368 . S
C554 C550 1.368 . S
C554 C553 1.523 . S
H555 C530 0.950 . S
H556 C532 0.950 . S
H557 C533 0.949 . S
H558 C535 0.950 . S
H559 C537 0.950 . S
C560 C561 1.349 . S
C560 C562 1.327 . S
C560 H585 0.950 . S
C561 C560 1.349 . S
C561 C577 1.349 . S
C562 C560 1.327 . S
C562 C581 1.429 . S
C562 H586 0.950 . S
C563 C580 1.574 . S
C563 C582 1.368 . S
C563 H587 0.949 . S
H564 C568 0.949 . S
C565 C566 1.349 . S
C565 C567 1.327 . S
C565 H588 0.950 . S
C566 C565 1.349 . S
C566 C578 1.349 . S
C567 C565 1.327 . S
C567 C583 1.429 . S
C567 H589 0.950 . S
C568 H564 0.949 . S
C568 C576 1.574 . S
C568 C584 1.368 . S
H569 C577 0.950 . S
H570 C575 0.950 . S
H571 C576 0.949 . S
H572 C578 0.950 . S
H573 C579 0.950 . S
H574 C580 0.949 . S
C575 H570 0.950 . S
C575 C577 1.327 . S
C575 C581 1.429 . S
C576 C568 1.574 . S
C576 H571 0.949 . S
C576 C582 1.368 . S
C577 C561 1.349 . S
C577 H569 0.950 . S
C577 C575 1.327 . S
C578 C566 1.349 . S
C578 H572 0.950 . S
C578 C579 1.327 . S
C579 H573 0.950 . S
C579 C578 1.327 . S
C579 C583 1.429 . S
C580 C563 1.574 . S
C580 H574 0.949 . S
C580 C584 1.368 . S
C581 C562 1.429 . S
C581 C575 1.429 . S
C581 C582 1.523 . S
C582 C563 1.368 . S
C582 C576 1.368 . S
C582 C581 1.523 . S
C583 C567 1.429 . S
C583 C579 1.429 . S
C583 C584 1.523 . S
C584 C568 1.368 . S
C584 C580 1.368 . S
C584 C583 1.523 . S
H585 C560 0.950 . S
H586 C562 0.950 . S
H587 C563 0.949 . S
H588 C565 0.950 . S
H589 C567 0.950 . S
C590 C591 1.349 . S
C590 C592 1.327 . S
C590 H615 0.950 . S
C591 C590 1.349 . S
C591 C607 1.349 . S
C592 C590 1.327 . S
C592 C611 1.429 . S
C592 H616 0.950 . S
C593 C610 1.574 . S
C593 C612 1.368 . S
C593 H617 0.949 . S
H594 C598 0.949 . S
C595 C596 1.349 . S
C595 C597 1.327 . S
C595 H618 0.950 . S
C596 C595 1.349 . S
C596 C608 1.349 . S
C597 C595 1.327 . S
C597 C613 1.429 . S
C597 H619 0.950 . S
C598 H594 0.949 . S
C598 C606 1.574 . S
C598 C614 1.368 . S
H599 C607 0.950 . S
H600 C605 0.950 . S
H601 C606 0.949 . S
H602 C608 0.950 . S
H603 C609 0.950 . S
H604 C610 0.949 . S
C605 H600 0.950 . S
C605 C607 1.327 . S
C605 C611 1.429 . S
C606 C598 1.574 . S
C606 H601 0.949 . S
C606 C612 1.368 . S
C607 C591 1.349 . S
C607 H599 0.950 . S
C607 C605 1.327 . S
C608 C596 1.349 . S
C608 H602 0.950 . S
C608 C609 1.327 . S
C609 H603 0.950 . S
C609 C608 1.327 . S
C609 C613 1.429 . S
C610 C593 1.574 . S
C610 H604 0.949 . S
C610 C614 1.368 . S
C611 C592 1.429 . S
C611 C605 1.429 . S
C611 C612 1.523 . S
C612 C593 1.368 . S
C612 C606 1.368 . S
C612 C611 1.523 . S
C613 C597 1.429 . S
C613 C609 1.429 . S
C613 C614 1.523 . S
C614 C598 1.368 . S
C614 C610 1.368 . S
C614 C613 1.523 . S
H615 C590 0.950 . S
H616 C592 0.950 . S
H617 C593 0.949 . S
H618 C595 0.950 . S
H619 C597 0.950 . S
C620 C621 1.349 . S
C620 C622 1.327 . S
C620 H645 0.950 . S
C621 C620 1.349 . S
C621 C637 1.349 . S
C622 C620 1.327 . S
C622 C641 1.429 . S
C622 H646 0.950 . S
C623 C640 1.574 . S
C623 C642 1.368 1_545 S
C623 H647 0.949 . S
H624 C628 0.949 . S
C625 C626 1.349 1_545 S
C625 C627 1.327 . S
C625 H648 0.950 . S
C626 C625 1.349 1_565 S
C626 C638 1.349 . S
C627 C625 1.327 . S
C627 C643 1.429 1_545 S
C627 H649 0.950 . S
C628 H624 0.949 . S
C628 C636 1.574 . S
C628 C644 1.368 . S
H629 C637 0.950 1_545 S
H630 C635 0.945 1_545 S
H631 C636 0.949 . S
H632 C638 0.950 . S
H633 C639 0.950 . S
H634 C640 0.949 . S
C635 H630 0.945 1_565 S
C635 C637 1.328 . S
C635 C641 1.432 . S
C636 C628 1.574 . S
C636 H631 0.949 . S
C636 C642 1.368 . S
C637 C621 1.349 . S
C637 H629 0.950 1_565 S
C637 C635 1.328 . S
C638 C626 1.349 . S
C638 H632 0.950 . S
C638 C639 1.327 . S
C639 H633 0.950 . S
C639 C638 1.327 . S
C639 C643 1.429 . S
C640 C623 1.574 . S
C640 H634 0.949 . S
C640 C644 1.368 1_545 S
C641 C622 1.429 . S
C641 C635 1.432 . S
C641 C642 1.523 . S
C642 C623 1.368 1_565 S
C642 C636 1.368 . S
C642 C641 1.523 . S
C643 C627 1.429 1_565 S
C643 C639 1.429 . S
C643 C644 1.523 . S
C644 C628 1.368 . S
C644 C640 1.368 1_565 S
C644 C643 1.523 . S
H645 C620 0.950 . S
H646 C622 0.950 . S
H647 C623 0.949 . S
H648 C625 0.950 . S
H649 C627 0.950 . S
C650 C651 1.349 . S
C650 C652 1.327 . S
C650 H675 0.950 . S
C651 C650 1.349 . S
C651 C667 1.349 . S
C652 C650 1.327 . S
C652 C671 1.429 . S
C652 H676 0.950 . S
C653 C670 1.574 . S
C653 C672 1.368 . S
C653 H677 0.944 1_455 S
H654 C658 0.949 . S
C655 C656 1.349 . S
C655 C657 1.327 . S
C655 H678 0.950 1_455 S
C656 C655 1.349 . S
C656 C668 1.349 . S
C657 C655 1.327 . S
C657 C673 1.429 . S
C657 H679 0.950 1_455 S
C658 H654 0.949 . S
C658 C666 1.574 . S
C658 C674 1.368 . S
H659 C667 0.950 . S
H660 C665 0.949 . S
H661 C666 0.949 . S
H662 C668 0.950 . S
H663 C669 0.950 . S
H664 C670 0.949 1_655 S
C665 H660 0.949 . S
C665 C667 1.327 . S
C665 C671 1.429 . S
C666 C658 1.574 . S
C666 H661 0.949 . S
C666 C672 1.368 . S
C667 C651 1.349 . S
C667 H659 0.950 . S
C667 C665 1.327 . S
C668 C656 1.349 . S
C668 H662 0.950 . S
C668 C669 1.327 . S
C669 H663 0.950 . S
C669 C668 1.327 . S
C669 C673 1.429 . S
C670 C653 1.574 . S
C670 H664 0.949 1_455 S
C670 C674 1.368 . S
C671 C652 1.429 . S
C671 C665 1.429 . S
C671 C672 1.523 . S
C672 C653 1.368 . S
C672 C666 1.368 . S
C672 C671 1.523 . S
C673 C657 1.429 . S
C673 C669 1.429 . S
C673 C674 1.523 . S
C674 C658 1.368 . S
C674 C670 1.368 . S
C674 C673 1.523 . S
H675 C650 0.950 . S
H676 C652 0.950 . S
H677 C653 0.944 1_655 S
H678 C655 0.950 1_655 S
H679 C657 0.950 1_655 S
C680 C681 1.349 . S
C680 C682 1.327 . S
C680 H705 0.950 . S
C681 C680 1.349 . S
C681 C697 1.349 . S
C682 C680 1.327 . S
C682 C701 1.429 . S
C682 H706 0.963 . S
C683 C700 1.574 . S
C683 C702 1.368 . S
C683 H707 0.949 . S
H684 C688 0.949 1_554 S
C685 C686 1.349 . S
C685 C687 1.327 . S
C685 H708 0.950 . S
C686 C685 1.349 . S
C686 C698 1.349 . S
C687 C685 1.327 . S
C687 C703 1.429 . S
C687 H709 0.950 . S
C688 H684 0.949 1_556 S
C688 C696 1.574 . S
C688 C704 1.368 . S
H689 C697 0.950 . S
H690 C695 0.950 . S
H691 C696 0.947 1_554 S
H692 C698 0.950 1_554 S
H693 C699 0.950 1_554 S
H694 C700 0.949 . S
C695 H690 0.950 . S
C695 C697 1.327 . S
C695 C701 1.429 . S
C696 C688 1.574 . S
C696 H691 0.947 1_556 S
C696 C702 1.368 . S
C697 C681 1.349 . S
C697 H689 0.950 . S
C697 C695 1.327 . S
C698 C686 1.349 . S
C698 H692 0.950 1_556 S
C698 C699 1.327 . S
C699 H693 0.950 1_556 S
C699 C698 1.327 . S
C699 C703 1.429 . S
C700 C683 1.574 . S
C700 H694 0.949 . S
C700 C704 1.368 . S
C701 C682 1.429 . S
C701 C695 1.429 . S
C701 C702 1.523 . S
C702 C683 1.368 . S
C702 C696 1.368 . S
C702 C701 1.523 . S
C703 C687 1.429 . S
C703 C699 1.429 . S
C703 C704 1.523 . S
C704 C688 1.368 . S
C704 C700 1.368 . S
C704 C703 1.523 . S
H705 C680 0.950 . S
H706 C682 0.963 . S
H707 C683 0.949 . S
H708 C685 0.950 . S
H709 C687 0.950 . S
C710 C711 1.349 . S
C710 C712 1.327 . S
C710 H735 0.950 . S
C711 C710 1.349 . S
C711 C727 1.349 . S
C712 C710 1.327 . S
C712 C731 1.429 . S
C712 H736 0.950 . S
C713 C730 1.574 . S
C713 C732 1.368 . S
C713 H737 0.949 . S
H714 C718 0.949 . S
C715 C716 1.349 . S
C715 C717 1.327 . S
C715 H738 0.950 . S
C716 C715 1.349 . S
C716 C728 1.349 . S
C717 C715 1.327 . S
C717 C733 1.429 . S
C717 H739 0.950 . S
C718 H714 0.949 . S
C718 C726 1.574 . S
C718 C734 1.368 . S
H719 C727 0.950 . S
H720 C725 0.950 . S
H721 C726 0.949 . S
H722 C728 0.950 . S
H723 C729 0.950 . S
H724 C730 0.949 . S
C725 H720 0.950 . S
C725 C727 1.327 . S
C725 C731 1.429 . S
C726 C718 1.574 . S
C726 H721 0.949 . S
C726 C732 1.368 . S
C727 C711 1.349 . S
C727 H719 0.950 . S
C727 C725 1.327 . S
C728 C716 1.349 . S
C728 H722 0.950 . S
C728 C729 1.327 . S
C729 H723 0.950 . S
C729 C728 1.327 . S
C729 C733 1.429 . S
C730 C713 1.574 . S
C730 H724 0.949 . S
C730 C734 1.368 . S
C731 C712 1.429 . S
C731 C725 1.429 . S
C731 C732 1.523 . S
C732 C713 1.368 . S
C732 C726 1.368 . S
C732 C731 1.523 . S
C733 C717 1.429 . S
C733 C729 1.429 . S
C733 C734 1.523 . S
C734 C718 1.368 . S
C734 C730 1.368 . S
C734 C733 1.523 . S
H735 C710 0.950 . S
H736 C712 0.950 . S
H737 C713 0.949 . S
H738 C715 0.950 . S
H739 C717 0.950 . S
C740 C741 1.349 . S
C740 C742 1.327 . S
C740 H765 0.950 . S
C741 C740 1.349 . S
C741 C757 1.349 . S
C742 C740 1.327 . S
C742 C761 1.429 . S
C742 H766 0.950 . S
C743 C760 1.574 . S
C743 C762 1.368 . S
C743 H767 0.949 . S
H744 C748 0.949 . S
C745 C746 1.349 . S
C745 C747 1.327 . S
C745 H768 0.950 . S
C746 C745 1.349 . S
C746 C758 1.349 . S
C747 C745 1.327 . S
C747 C763 1.429 . S
C747 H769 0.950 . S
C748 H744 0.949 . S
C748 C756 1.574 . S
C748 C764 1.368 . S
H749 C757 0.950 . S
H750 C755 0.950 . S
H751 C756 0.949 . S
H752 C758 0.950 . S
H753 C759 0.950 . S
H754 C760 0.949 . S
C755 H750 0.950 . S
C755 C757 1.327 . S
C755 C761 1.429 . S
C756 C748 1.574 . S
C756 H751 0.949 . S
C756 C762 1.368 . S
C757 C741 1.349 . S
C757 H749 0.950 . S
C757 C755 1.327 . S
C758 C746 1.349 . S
C758 H752 0.950 . S
C758 C759 1.327 . S
C759 H753 0.950 . S
C759 C758 1.327 . S
C759 C763 1.429 . S
C760 C743 1.574 . S
C760 H754 0.949 . S
C760 C764 1.368 . S
C761 C742 1.429 . S
C761 C755 1.429 . S
C761 C762 1.523 . S
C762 C743 1.368 . S
C762 C756 1.368 . S
C762 C761 1.523 . S
C763 C747 1.429 . S
C763 C759 1.429 . S
C763 C764 1.523 . S
C764 C748 1.368 . S
C764 C760 1.368 . S
C764 C763 1.523 . S
H765 C740 0.950 . S
H766 C742 0.950 . S
H767 C743 0.949 . S
H768 C745 0.950 . S
H769 C747 0.950 . S
C770 C771 1.349 . S
C770 C772 1.327 . S
C770 H795 0.950 . S
C771 C770 1.349 . S
C771 C787 1.349 . S
C772 C770 1.327 . S
C772 C791 1.429 . S
C772 H796 0.950 . S
C773 C790 1.574 . S
C773 C792 1.368 . S
C773 H797 0.949 . S
H774 C778 0.949 . S
C775 C776 1.349 . S
C775 C777 1.327 . S
C775 H798 0.950 . S
C776 C775 1.349 . S
C776 C788 1.349 . S
C777 C775 1.327 . S
C777 C793 1.429 . S
C777 H799 0.950 . S
C778 H774 0.949 . S
C778 C786 1.574 . S
C778 C794 1.368 . S
H779 C787 0.950 . S
H780 C785 0.950 . S
H781 C786 0.949 . S
H782 C788 0.950 . S
H783 C789 0.950 . S
H784 C790 0.949 . S
C785 H780 0.950 . S
C785 C787 1.327 . S
C785 C791 1.429 . S
C786 C778 1.574 . S
C786 H781 0.949 . S
C786 C792 1.368 . S
C787 C771 1.349 . S
C787 H779 0.950 . S
C787 C785 1.327 . S
C788 C776 1.349 . S
C788 H782 0.950 . S
C788 C789 1.327 . S
C789 H783 0.950 . S
C789 C788 1.327 . S
C789 C793 1.429 . S
C790 C773 1.574 . S
C790 H784 0.949 . S
C790 C794 1.368 . S
C791 C772 1.429 . S
C791 C785 1.429 . S
C791 C792 1.523 . S
C792 C773 1.368 . S
C792 C786 1.368 . S
C792 C791 1.523 . S
C793 C777 1.429 . S
C793 C789 1.429 . S
C793 C794 1.523 . S
C794 C778 1.368 . S
C794 C790 1.368 . S
C794 C793 1.523 . S
H795 C770 0.950 . S
H796 C772 0.950 . S
H797 C773 0.949 . S
H798 C775 0.950 . S
H799 C777 0.950 . S
C800 C801 1.349 . S
C800 C802 1.327 . S
C800 H825 0.950 . S
C801 C800 1.349 . S
C801 C817 1.349 . S
C802 C800 1.327 . S
C802 C821 1.429 . S
C802 H826 0.950 . S
C803 C820 1.574 . S
C803 C822 1.368 . S
C803 H827 0.949 . S
H804 C808 0.949 . S
C805 C806 1.349 . S
C805 C807 1.327 . S
C805 H828 0.950 . S
C806 C805 1.349 . S
C806 C818 1.349 . S
C807 C805 1.327 . S
C807 C823 1.429 . S
C807 H829 0.950 . S
C808 H804 0.949 . S
C808 C816 1.574 . S
C808 C824 1.368 . S
H809 C817 0.950 . S
H810 C815 0.950 . S
H811 C816 0.949 . S
H812 C818 0.950 . S
H813 C819 0.950 . S
H814 C820 0.949 . S
C815 H810 0.950 . S
C815 C817 1.327 . S
C815 C821 1.429 . S
C816 C808 1.574 . S
C816 H811 0.949 . S
C816 C822 1.368 . S
C817 C801 1.349 . S
C817 H809 0.950 . S
C817 C815 1.327 . S
C818 C806 1.349 . S
C818 H812 0.950 . S
C818 C819 1.327 . S
C819 H813 0.950 . S
C819 C818 1.327 . S
C819 C823 1.429 . S
C820 C803 1.574 . S
C820 H814 0.949 . S
C820 C824 1.368 . S
C821 C802 1.429 . S
C821 C815 1.429 . S
C821 C822 1.523 . S
C822 C803 1.368 . S
C822 C816 1.368 . S
C822 C821 1.523 . S
C823 C807 1.429 . S
C823 C819 1.429 . S
C823 C824 1.523 . S
C824 C808 1.368 . S
C824 C820 1.368 . S
C824 C823 1.523 . S
H825 C800 0.950 . S
H826 C802 0.950 . S
H827 C803 0.949 . S
H828 C805 0.950 . S
H829 C807 0.950 . S
C830 C831 1.349 . S
C830 C832 1.327 . S
C830 H855 0.950 . S
C831 C830 1.349 . S
C831 C847 1.349 . S
C832 C830 1.327 . S
C832 C851 1.429 . S
C832 H856 0.950 . S
C833 C850 1.574 . S
C833 C852 1.368 . S
C833 H857 0.949 . S
H834 C838 0.949 . S
C835 C836 1.349 . S
C835 C837 1.327 . S
C835 H858 0.950 . S
C836 C835 1.349 . S
C836 C848 1.349 . S
C837 C835 1.327 . S
C837 C853 1.429 . S
C837 H859 0.950 . S
C838 H834 0.949 . S
C838 C846 1.574 . S
C838 C854 1.368 . S
H839 C847 0.950 . S
H840 C845 0.950 . S
H841 C846 0.949 . S
H842 C848 0.950 . S
H843 C849 0.950 . S
H844 C850 0.949 . S
C845 H840 0.950 . S
C845 C847 1.327 . S
C845 C851 1.429 . S
C846 C838 1.574 . S
C846 H841 0.949 . S
C846 C852 1.368 . S
C847 C831 1.349 . S
C847 H839 0.950 . S
C847 C845 1.327 . S
C848 C836 1.349 . S
C848 H842 0.950 . S
C848 C849 1.327 . S
C849 H843 0.950 . S
C849 C848 1.327 . S
C849 C853 1.429 . S
C850 C833 1.574 . S
C850 H844 0.949 . S
C850 C854 1.368 . S
C851 C832 1.429 . S
C851 C845 1.429 . S
C851 C852 1.523 . S
C852 C833 1.368 . S
C852 C846 1.368 . S
C852 C851 1.523 . S
C853 C837 1.429 . S
C853 C849 1.429 . S
C853 C854 1.523 . S
C854 C838 1.368 . S
C854 C850 1.368 . S
C854 C853 1.523 . S
H855 C830 0.950 . S
H856 C832 0.950 . S
H857 C833 0.949 . S
H858 C835 0.950 . S
H859 C837 0.950 . S
C860 C861 1.349 . S
C860 C862 1.327 . S
C860 H885 0.950 . S
C861 C860 1.349 . S
C861 C877 1.349 . S
C862 C860 1.327 . S
C862 C881 1.429 . S
C862 H886 0.950 . S
C863 C880 1.574 . S
C863 C882 1.368 . S
C863 H887 0.949 . S
H864 C868 0.949 . S
C865 C866 1.349 . S
C865 C867 1.327 . S
C865 H888 0.950 . S
C866 C865 1.349 . S
C866 C878 1.349 . S
C867 C865 1.327 . S
C867 C883 1.429 . S
C867 H889 0.950 . S
C868 H864 0.949 . S
C868 C876 1.574 . S
C868 C884 1.368 . S
H869 C877 0.950 . S
H870 C875 0.950 . S
H871 C876 0.949 . S
H872 C878 0.950 . S
H873 C879 0.950 . S
H874 C880 0.949 . S
C875 H870 0.950 . S
C875 C877 1.327 . S
C875 C881 1.429 . S
C876 C868 1.574 . S
C876 H871 0.949 . S
C876 C882 1.368 . S
C877 C861 1.349 . S
C877 H869 0.950 . S
C877 C875 1.327 . S
C878 C866 1.349 . S
C878 H872 0.950 . S
C878 C879 1.327 . S
C879 H873 0.950 . S
C879 C878 1.327 . S
C879 C883 1.429 . S
C880 C863 1.574 . S
C880 H874 0.949 . S
C880 C884 1.368 . S
C881 C862 1.429 . S
C881 C875 1.429 . S
C881 C882 1.523 . S
C882 C863 1.368 . S
C882 C876 1.368 . S
C882 C881 1.523 . S
C883 C867 1.429 . S
C883 C879 1.429 . S
C883 C884 1.523 . S
C884 C868 1.368 . S
C884 C880 1.368 . S
C884 C883 1.523 . S
H885 C860 0.950 . S
H886 C862 0.950 . S
H887 C863 0.949 . S
H888 C865 0.950 . S
H889 C867 0.950 . S
C890 C891 1.349 . S
C890 C892 1.327 . S
C890 H915 0.950 . S
C891 C890 1.349 . S
C891 C907 1.349 . S
C892 C890 1.327 . S
C892 C911 1.429 . S
C892 H916 0.950 . S
C893 C910 1.574 . S
C893 C912 1.368 . S
C893 H917 0.949 . S
H894 C898 0.949 . S
C895 C896 1.349 . S
C895 C897 1.327 . S
C895 H918 0.950 . S
C896 C895 1.349 . S
C896 C908 1.349 . S
C897 C895 1.327 . S
C897 C913 1.429 . S
C897 H919 0.950 . S
C898 H894 0.949 . S
C898 C906 1.574 . S
C898 C914 1.368 . S
H899 C907 0.950 . S
H900 C905 0.950 . S
H901 C906 0.949 . S
H902 C908 0.950 . S
H903 C909 0.950 . S
H904 C910 0.949 . S
C905 H900 0.950 . S
C905 C907 1.327 . S
C905 C911 1.429 . S
C906 C898 1.574 . S
C906 H901 0.949 . S
C906 C912 1.368 . S
C907 C891 1.349 . S
C907 H899 0.950 . S
C907 C905 1.327 . S
C908 C896 1.349 . S
C908 H902 0.950 . S
C908 C909 1.327 . S
C909 H903 0.950 . S
C909 C908 1.327 . S
C909 C913 1.429 . S
C910 C893 1.574 . S
C910 H904 0.949 . S
C910 C914 1.368 . S
C911 C892 1.429 . S
C911 C905 1.429 . S
C911 C912 1.523 . S
C912 C893 1.368 . S
C912 C906 1.368 . S
C912 C911 1.523 . S
C913 C897 1.429 . S
C913 C909 1.429 . S
C913 C914 1.523 . S
C914 C898 1.368 . S
C914 C910 1.368 . S
C914 C913 1.523 . S
H915 C890 0.950 . S
H916 C892 0.950 . S
H917 C893 0.949 . S
H918 C895 0.950 . S
H919 C897 0.950 . S
C920 C921 1.349 . S
C920 C922 1.327 . S
C920 H945 0.950 . S
C921 C920 1.349 . S
C921 C937 1.349 . S
C922 C920 1.327 . S
C922 C941 1.429 . S
C922 H946 0.950 . S
C923 C940 1.574 . S
C923 C942 1.368 . S
C923 H947 0.949 . S
H924 C928 0.949 . S
C925 C926 1.349 . S
C925 C927 1.327 . S
C925 H948 0.950 . S
C926 C925 1.349 . S
C926 C938 1.349 . S
C927 C925 1.327 . S
C927 C943 1.429 . S
C927 H949 0.950 . S
C928 H924 0.949 . S
C928 C936 1.574 . S
C928 C944 1.368 . S
H929 C937 0.950 . S
H930 C935 0.950 . S
H931 C936 0.949 . S
H932 C938 0.950 . S
H933 C939 0.950 . S
H934 C940 0.949 . S
C935 H930 0.950 . S
C935 C937 1.327 . S
C935 C941 1.429 . S
C936 C928 1.574 . S
C936 H931 0.949 . S
C936 C942 1.368 . S
C937 C921 1.349 . S
C937 H929 0.950 . S
C937 C935 1.327 . S
C938 C926 1.349 . S
C938 H932 0.950 . S
C938 C939 1.327 . S
C939 H933 0.950 . S
C939 C938 1.327 . S
C939 C943 1.429 . S
C940 C923 1.574 . S
C940 H934 0.949 . S
C940 C944 1.368 . S
C941 C922 1.429 . S
C941 C935 1.429 . S
C941 C942 1.523 . S
C942 C923 1.368 . S
C942 C936 1.368 . S
C942 C941 1.523 . S
C943 C927 1.429 . S
C943 C939 1.429 . S
C943 C944 1.523 . S
C944 C928 1.368 . S
C944 C940 1.368 . S
C944 C943 1.523 . S
H945 C920 0.950 . S
H946 C922 0.950 . S
H947 C923 0.949 . S
H948 C925 0.950 . S
H949 C927 0.950 . S
C950 C951 1.349 . S
C950 C952 1.327 . S
C950 H975 0.950 . S
C951 C950 1.349 . S
C951 C967 1.349 1_655 S
C952 C950 1.327 . S
C952 C971 1.429 . S
C952 H976 0.950 . S
C953 C970 1.574 . S
C953 C972 1.368 1_455 S
C953 H977 0.949 . S
H954 C958 0.949 . S
C955 C956 1.349 1_455 S
C955 C957 1.327 . S
C955 H978 0.950 . S
C956 C955 1.349 1_655 S
C956 C968 1.349 . S
C957 C955 1.327 . S
C957 C973 1.429 1_455 S
C957 H979 0.950 . S
C958 H954 0.949 . S
C958 C966 1.574 . S
C958 C974 1.368 . S
H959 C967 0.950 . S
H960 C965 0.950 . S
H961 C966 0.949 . S
H962 C968 0.950 . S
H963 C969 0.950 . S
H964 C970 0.949 . S
C965 H960 0.950 . S
C965 C967 1.327 . S
C965 C971 1.429 1_455 S
C966 C958 1.574 . S
C966 H961 0.949 . S
C966 C972 1.368 . S
C967 C951 1.349 1_455 S
C967 H959 0.950 . S
C967 C965 1.327 . S
C968 C956 1.349 . S
C968 H962 0.950 . S
C968 C969 1.327 . S
C969 H963 0.950 . S
C969 C968 1.327 . S
C969 C973 1.429 . S
C970 C953 1.574 . S
C970 H964 0.949 . S
C970 C974 1.368 1_455 S
C971 C952 1.429 . S
C971 C965 1.429 1_655 S
C971 C972 1.523 . S
C972 C953 1.368 1_655 S
C972 C966 1.368 . S
C972 C971 1.523 . S
C973 C957 1.429 1_655 S
C973 C969 1.429 . S
C973 C974 1.523 . S
C974 C958 1.368 . S
C974 C970 1.368 1_655 S
C974 C973 1.523 . S
H975 C950 0.950 . S
H976 C952 0.950 . S
H977 C953 0.949 . S
H978 C955 0.950 . S
H979 C957 0.950 . S
C980 C981 1.349 . S
C980 C982 1.327 . S
C980 H1005 0.950 . S
C981 C980 1.349 . S
C981 C997 1.349 . S
C982 C980 1.327 . S
C982 C1001 1.429 . S
C982 H1006 0.950 . S
C983 C1000 1.574 . S
C983 C1002 1.368 . S
C983 H1007 0.949 . S
H984 C988 0.949 . S
C985 C986 1.349 . S
C985 C987 1.327 . S
C985 H1008 0.950 . S
C986 C985 1.349 . S
C986 C998 1.349 . S
C987 C985 1.327 . S
C987 C1003 1.429 . S
C987 H1009 0.950 . S
C988 H984 0.949 . S
C988 C996 1.574 . S
C988 C1004 1.368 . S
H989 C997 0.950 . S
H990 C995 0.950 . S
H991 C996 0.949 . S
H992 C998 0.950 . S
H993 C999 0.950 . S
H994 C1000 0.949 . S
C995 H990 0.950 . S
C995 C997 1.327 . S
C995 C1001 1.429 . S
C996 C988 1.574 . S
C996 H991 0.949 . S
C996 C1002 1.368 . S
C997 C981 1.349 . S
C997 H989 0.950 . S
C997 C995 1.327 . S
C998 C986 1.349 . S
C998 H992 0.950 . S
C998 C999 1.327 . S
C999 H993 0.950 . S
C999 C998 1.327 . S
C999 C1003 1.429 . S
C1000 C983 1.574 . S
C1000 H994 0.949 . S
C1000 C1004 1.368 . S
C1001 C982 1.429 . S
C1001 C995 1.429 . S
C1001 C1002 1.523 . S
C1002 C983 1.368 . S
C1002 C996 1.368 . S
C1002 C1001 1.523 . S
C1003 C987 1.429 . S
C1003 C999 1.429 . S
C1003 C1004 1.523 . S
C1004 C988 1.368 . S
C1004 C1000 1.368 . S
C1004 C1003 1.523 . S
H1005 C980 0.950 . S
H1006 C982 0.950 . S
H1007 C983 0.949 . S
H1008 C985 0.950 . S
H1009 C987 0.950 . S
C1010 C1011 1.349 . S
C1010 C1012 1.327 . S
C1010 H1035 0.950 . S
C1011 C1010 1.349 . S
C1011 C1027 1.349 . S
C1012 C1010 1.327 . S
C1012 C1031 1.429 . S
C1012 H1036 0.950 . S
C1013 C1030 1.574 . S
C1013 C1032 1.368 . S
C1013 H1037 0.949 . S
H1014 C1018 0.949 . S
C1015 C1016 1.349 . S
C1015 C1017 1.327 . S
C1015 H1038 0.950 . S
C1016 C1015 1.349 . S
C1016 C1028 1.349 . S
C1017 C1015 1.327 . S
C1017 C1033 1.429 . S
C1017 H1039 0.950 . S
C1018 H1014 0.949 . S
C1018 C1026 1.574 . S
C1018 C1034 1.368 . S
H1019 C1027 0.950 . S
H1020 C1025 0.950 . S
H1021 C1026 0.949 . S
H1022 C1028 0.950 . S
H1023 C1029 0.950 . S
H1024 C1030 0.949 . S
C1025 H1020 0.950 . S
C1025 C1027 1.327 . S
C1025 C1031 1.429 . S
C1026 C1018 1.574 . S
C1026 H1021 0.949 . S
C1026 C1032 1.368 . S
C1027 C1011 1.349 . S
C1027 H1019 0.950 . S
C1027 C1025 1.327 . S
C1028 C1016 1.349 . S
C1028 H1022 0.950 . S
C1028 C1029 1.327 . S
C1029 H1023 0.950 . S
C1029 C1028 1.327 . S
C1029 C1033 1.429 . S
C1030 C1013 1.574 . S
C1030 H1024 0.949 . S
C1030 C1034 1.368 . S
C1031 C1012 1.429 . S
C1031 C1025 1.429 . S
C1031 C1032 1.523 . S
C1032 C1013 1.368 . S
C1032 C1026 1.368 . S
C1032 C1031 1.523 . S
C1033 C1017 1.429 . S
C1033 C1029 1.429 . S
C1033 C1034 1.523 . S
C1034 C1018 1.368 . S
C1034 C1030 1.368 . S
C1034 C1033 1.523 . S
H1035 C1010 0.950 . S
H1036 C1012 0.950 . S
H1037 C1013 0.949 . S
H1038 C1015 0.950 . S
H1039 C1017 0.950 . S
C1040 C1041 1.349 . S
C1040 C1042 1.327 . S
C1040 H1065 0.950 . S
C1041 C1040 1.349 . S
C1041 C1057 1.349 . S
C1042 C1040 1.327 . S
C1042 C1061 1.429 . S
C1042 H1066 0.950 . S
C1043 C1060 1.574 . S
C1043 C1062 1.368 . S
C1043 H1067 0.949 . S
H1044 C1048 0.949 . S
C1045 C1046 1.349 . S
C1045 C1047 1.327 . S
C1045 H1068 0.950 . S
C1046 C1045 1.349 . S
C1046 C1058 1.349 . S
C1047 C1045 1.327 . S
C1047 C1063 1.429 . S
C1047 H1069 0.950 . S
C1048 H1044 0.949 . S
C1048 C1056 1.574 . S
C1048 C1064 1.368 . S
H1049 C1057 0.950 . S
H1050 C1055 0.950 . S
H1051 C1056 0.949 . S
H1052 C1058 0.950 . S
H1053 C1059 0.950 . S
H1054 C1060 0.949 . S
C1055 H1050 0.950 . S
C1055 C1057 1.327 . S
C1055 C1061 1.429 . S
C1056 C1048 1.574 . S
C1056 H1051 0.949 . S
C1056 C1062 1.368 . S
C1057 C1041 1.349 . S
C1057 H1049 0.950 . S
C1057 C1055 1.327 . S
C1058 C1046 1.349 . S
C1058 H1052 0.950 . S
C1058 C1059 1.327 . S
C1059 H1053 0.950 . S
C1059 C1058 1.327 . S
C1059 C1063 1.429 . S
C1060 C1043 1.574 . S
C1060 H1054 0.949 . S
C1060 C1064 1.368 . S
C1061 C1042 1.429 . S
C1061 C1055 1.429 . S
C1061 C1062 1.523 . S
C1062 C1043 1.368 . S
C1062 C1056 1.368 . S
C1062 C1061 1.523 . S
C1063 C1047 1.429 . S
C1063 C1059 1.429 . S
C1063 C1064 1.523 . S
C1064 C1048 1.368 . S
C1064 C1060 1.368 . S
C1064 C1063 1.523 . S
H1065 C1040 0.950 . S
H1066 C1042 0.950 . S
H1067 C1043 0.949 . S
H1068 C1045 0.950 . S
H1069 C1047 0.950 . S
C1070 C1071 1.349 . S
C1070 C1072 1.327 . S
C1070 H1095 0.950 . S
C1071 C1070 1.349 . S
C1071 C1087 1.349 . S
C1072 C1070 1.327 . S
C1072 C1091 1.429 . S
C1072 H1096 0.950 . S
C1073 C1090 1.574 . S
C1073 C1092 1.368 . S
C1073 H1097 0.949 . S
H1074 C1078 0.949 . S
C1075 C1076 1.349 . S
C1075 C1077 1.327 . S
C1075 H1098 0.950 . S
C1076 C1075 1.349 . S
C1076 C1088 1.349 . S
C1077 C1075 1.327 . S
C1077 C1093 1.429 . S
C1077 H1099 0.950 . S
C1078 H1074 0.949 . S
C1078 C1086 1.574 . S
C1078 C1094 1.368 . S
H1079 C1087 0.950 . S
H1080 C1085 0.950 . S
H1081 C1086 0.949 . S
H1082 C1088 0.950 . S
H1083 C1089 0.950 . S
H1084 C1090 0.949 . S
C1085 H1080 0.950 . S
C1085 C1087 1.327 . S
C1085 C1091 1.429 . S
C1086 C1078 1.574 . S
C1086 H1081 0.949 . S
C1086 C1092 1.368 . S
C1087 C1071 1.349 . S
C1087 H1079 0.950 . S
C1087 C1085 1.327 . S
C1088 C1076 1.349 . S
C1088 H1082 0.950 . S
C1088 C1089 1.327 . S
C1089 H1083 0.950 . S
C1089 C1088 1.327 . S
C1089 C1093 1.429 . S
C1090 C1073 1.574 . S
C1090 H1084 0.949 . S
C1090 C1094 1.368 . S
C1091 C1072 1.429 . S
C1091 C1085 1.429 . S
C1091 C1092 1.523 . S
C1092 C1073 1.368 . S
C1092 C1086 1.368 . S
C1092 C1091 1.523 . S
C1093 C1077 1.429 . S
C1093 C1089 1.429 . S
C1093 C1094 1.523 . S
C1094 C1078 1.368 . S
C1094 C1090 1.368 . S
C1094 C1093 1.523 . S
H1095 C1070 0.950 . S
H1096 C1072 0.950 . S
H1097 C1073 0.949 . S
H1098 C1075 0.950 . S
H1099 C1077 0.950 . S
C1100 C1101 1.349 . S
C1100 C1102 1.327 . S
C1100 H1125 0.950 . S
C1101 C1100 1.349 . S
C1101 C1117 1.349 1_545 S
C1102 C1100 1.327 . S
C1102 C1121 1.429 . S
C1102 H1126 0.950 . S
C1103 C1120 1.574 . S
C1103 C1122 1.368 1_565 S
C1103 H1127 0.949 . S
H1104 C1108 0.949 . S
C1105 C1106 1.349 . S
C1105 C1107 1.327 . S
C1105 H1128 0.950 1_545 S
C1106 C1105 1.349 . S
C1106 C1118 1.349 . S
C1107 C1105 1.327 . S
C1107 C1123 1.429 . S
C1107 H1129 0.950 1_545 S
C1108 H1104 0.949 . S
C1108 C1116 1.574 . S
C1108 C1124 1.368 . S
H1109 C1117 0.950 . S
H1110 C1115 0.950 . S
H1111 C1116 0.949 . S
H1112 C1118 0.950 . S
H1113 C1119 0.950 . S
H1114 C1120 0.949 . S
C1115 H1110 0.950 . S
C1115 C1117 1.327 . S
C1115 C1121 1.429 1_565 S
C1116 C1108 1.574 . S
C1116 H1111 0.949 . S
C1116 C1122 1.368 . S
C1117 C1101 1.349 1_565 S
C1117 H1109 0.950 . S
C1117 C1115 1.327 . S
C1118 C1106 1.349 . S
C1118 H1112 0.950 . S
C1118 C1119 1.327 . S
C1119 H1113 0.950 . S
C1119 C1118 1.327 . S
C1119 C1123 1.429 . S
C1120 C1103 1.574 . S
C1120 H1114 0.949 . S
C1120 C1124 1.368 1_565 S
C1121 C1102 1.429 . S
C1121 C1115 1.429 1_545 S
C1121 C1122 1.523 . S
C1122 C1103 1.368 1_545 S
C1122 C1116 1.368 . S
C1122 C1121 1.523 . S
C1123 C1107 1.429 . S
C1123 C1119 1.429 . S
C1123 C1124 1.523 . S
C1124 C1108 1.368 . S
C1124 C1120 1.368 1_545 S
C1124 C1123 1.523 . S
H1125 C1100 0.950 . S
H1126 C1102 0.950 . S
H1127 C1103 0.949 . S
H1128 C1105 0.950 1_565 S
H1129 C1107 0.950 1_565 S
C1130 C1131 1.349 . S
C1130 C1132 1.327 . S
C1130 H1155 0.950 . S
C1131 C1130 1.349 . S
C1131 C1147 1.349 1_554 S
C1132 C1130 1.327 . S
C1132 C1151 1.429 . S
C1132 H1156 0.950 . S
C1133 C1150 1.574 . S
C1133 C1152 1.368 1_556 S
C1133 H1157 0.949 . S
H1134 C1138 0.949 . S
C1135 C1136 1.349 1_556 S
C1135 C1137 1.327 . S
C1135 H1158 0.950 . S
C1136 C1135 1.349 1_554 S
C1136 C1148 1.349 . S
C1137 C1135 1.327 . S
C1137 C1153 1.429 1_556 S
C1137 H1159 0.950 . S
C1138 H1134 0.949 . S
C1138 C1146 1.574 . S
C1138 C1154 1.368 . S
H1139 C1147 0.950 . S
H1140 C1145 0.950 . S
H1141 C1146 0.949 . S
H1142 C1148 0.950 . S
H1143 C1149 0.950 . S
H1144 C1150 0.949 . S
C1145 H1140 0.950 . S
C1145 C1147 1.327 . S
C1145 C1151 1.429 1_556 S
C1146 C1138 1.574 . S
C1146 H1141 0.949 . S
C1146 C1152 1.368 . S
C1147 C1131 1.349 1_556 S
C1147 H1139 0.950 . S
C1147 C1145 1.327 . S
C1148 C1136 1.349 . S
C1148 H1142 0.950 . S
C1148 C1149 1.327 . S
C1149 H1143 0.950 . S
C1149 C1148 1.327 . S
C1149 C1153 1.429 . S
C1150 C1133 1.574 . S
C1150 H1144 0.949 . S
C1150 C1154 1.368 1_556 S
C1151 C1132 1.429 . S
C1151 C1145 1.429 1_554 S
C1151 C1152 1.523 . S
C1152 C1133 1.368 1_554 S
C1152 C1146 1.368 . S
C1152 C1151 1.523 . S
C1153 C1137 1.429 1_554 S
C1153 C1149 1.429 . S
C1153 C1154 1.523 . S
C1154 C1138 1.368 . S
C1154 C1150 1.368 1_554 S
C1154 C1153 1.523 . S
H1155 C1130 0.950 . S
H1156 C1132 0.950 . S
H1157 C1133 0.949 . S
H1158 C1135 0.950 . S
H1159 C1137 0.950 . S
C1160 C1161 1.349 . S
C1160 C1162 1.327 . S
C1160 H1185 0.950 . S
C1161 C1160 1.349 . S
C1161 C1177 1.349 . S
C1162 C1160 1.327 . S
C1162 C1181 1.429 . S
C1162 H1186 0.950 . S
C1163 C1180 1.574 . S
C1163 C1182 1.368 . S
C1163 H1187 0.949 . S
H1164 C1168 0.949 . S
C1165 C1166 1.349 . S
C1165 C1167 1.327 . S
C1165 H1188 0.950 . S
C1166 C1165 1.349 . S
C1166 C1178 1.349 . S
C1167 C1165 1.327 . S
C1167 C1183 1.429 . S
C1167 H1189 0.950 . S
C1168 H1164 0.949 . S
C1168 C1176 1.574 . S
C1168 C1184 1.368 . S
H1169 C1177 0.950 . S
H1170 C1175 0.950 . S
H1171 C1176 0.949 . S
H1172 C1178 0.950 . S
H1173 C1179 0.950 . S
H1174 C1180 0.949 . S
C1175 H1170 0.950 . S
C1175 C1177 1.327 . S
C1175 C1181 1.429 . S
C1176 C1168 1.574 . S
C1176 H1171 0.949 . S
C1176 C1182 1.368 . S
C1177 C1161 1.349 . S
C1177 H1169 0.950 . S
C1177 C1175 1.327 . S
C1178 C1166 1.349 . S
C1178 H1172 0.950 . S
C1178 C1179 1.327 . S
C1179 H1173 0.950 . S
C1179 C1178 1.327 . S
C1179 C1183 1.429 . S
C1180 C1163 1.574 . S
C1180 H1174 0.949 . S
C1180 C1184 1.368 . S
C1181 C1162 1.429 . S
C1181 C1175 1.429 . S
C1181 C1182 1.523 . S
C1182 C1163 1.368 . S
C1182 C1176 1.368 . S
C1182 C1181 1.523 . S
C1183 C1167 1.429 . S
C1183 C1179 1.429 . S
C1183 C1184 1.523 . S
C1184 C1168 1.368 . S
C1184 C1180 1.368 . S
C1184 C1183 1.523 . S
H1185 C1160 0.950 . S
H1186 C1162 0.950 . S
H1187 C1163 0.949 . S
H1188 C1165 0.950 . S
H1189 C1167 0.950 . S
C1190 C1191 1.349 . S
C1190 C1192 1.327 . S
C1190 H1215 0.950 . S
C1191 C1190 1.349 . S
C1191 C1207 1.349 . S
C1192 C1190 1.327 . S
C1192 C1211 1.429 . S
C1192 H1216 0.950 . S
C1193 C1210 1.574 . S
C1193 C1212 1.368 . S
C1193 H1217 0.949 . S
H1194 C1198 0.949 . S
C1195 C1196 1.349 . S
C1195 C1197 1.327 . S
C1195 H1218 0.950 . S
C1196 C1195 1.349 . S
C1196 C1208 1.349 . S
C1197 C1195 1.327 . S
C1197 C1213 1.429 . S
C1197 H1219 0.950 . S
C1198 H1194 0.949 . S
C1198 C1206 1.574 . S
C1198 C1214 1.368 . S
H1199 C1207 0.950 . S
H1200 C1205 0.950 . S
H1201 C1206 0.949 . S
H1202 C1208 0.950 . S
H1203 C1209 0.950 . S
H1204 C1210 0.949 . S
C1205 H1200 0.950 . S
C1205 C1207 1.327 . S
C1205 C1211 1.429 . S
C1206 C1198 1.574 . S
C1206 H1201 0.949 . S
C1206 C1212 1.368 . S
C1207 C1191 1.349 . S
C1207 H1199 0.950 . S
C1207 C1205 1.327 . S
C1208 C1196 1.349 . S
C1208 H1202 0.950 . S
C1208 C1209 1.327 . S
C1209 H1203 0.950 . S
C1209 C1208 1.327 . S
C1209 C1213 1.429 . S
C1210 C1193 1.574 . S
C1210 H1204 0.949 . S
C1210 C1214 1.368 . S
C1211 C1192 1.429 . S
C1211 C1205 1.429 . S
C1211 C1212 1.523 . S
C1212 C1193 1.368 . S
C1212 C1206 1.368 . S
C1212 C1211 1.523 . S
C1213 C1197 1.429 . S
C1213 C1209 1.429 . S
C1213 C1214 1.523 . S
C1214 C1198 1.368 . S
C1214 C1210 1.368 . S
C1214 C1213 1.523 . S
H1215 C1190 0.950 . S
H1216 C1192 0.950 . S
H1217 C1193 0.949 . S
H1218 C1195 0.950 . S
H1219 C1197 0.950 . S
C1220 C1221 1.349 . S
C1220 C1222 1.327 . S
C1220 H1245 0.950 . S
C1221 C1220 1.349 . S
C1221 C1237 1.349 . S
C1222 C1220 1.327 . S
C1222 C1241 1.429 . S
C1222 H1246 0.950 . S
C1223 C1240 1.574 . S
C1223 C1242 1.368 . S
C1223 H1247 0.949 . S
H1224 C1228 0.949 . S
C1225 C1226 1.349 . S
C1225 C1227 1.327 . S
C1225 H1248 0.950 . S
C1226 C1225 1.349 . S
C1226 C1238 1.349 . S
C1227 C1225 1.327 . S
C1227 C1243 1.429 . S
C1227 H1249 0.950 . S
C1228 H1224 0.949 . S
C1228 C1236 1.574 . S
C1228 C1244 1.368 . S
H1229 C1237 0.950 . S
H1230 C1235 0.950 . S
H1231 C1236 0.949 . S
H1232 C1238 0.950 . S
H1233 C1239 0.950 . S
H1234 C1240 0.949 . S
C1235 H1230 0.950 . S
C1235 C1237 1.327 . S
C1235 C1241 1.429 . S
C1236 C1228 1.574 . S
C1236 H1231 0.949 . S
C1236 C1242 1.368 . S
C1237 C1221 1.349 . S
C1237 H1229 0.950 . S
C1237 C1235 1.327 . S
C1238 C1226 1.349 . S
C1238 H1232 0.950 . S
C1238 C1239 1.327 . S
C1239 H1233 0.950 . S
C1239 C1238 1.327 . S
C1239 C1243 1.429 . S
C1240 C1223 1.574 . S
C1240 H1234 0.949 . S
C1240 C1244 1.368 . S
C1241 C1222 1.429 . S
C1241 C1235 1.429 . S
C1241 C1242 1.523 . S
C1242 C1223 1.368 . S
C1242 C1236 1.368 . S
C1242 C1241 1.523 . S
C1243 C1227 1.429 . S
C1243 C1239 1.429 . S
C1243 C1244 1.523 . S
C1244 C1228 1.368 . S
C1244 C1240 1.368 . S
C1244 C1243 1.523 . S
H1245 C1220 0.950 . S
H1246 C1222 0.950 . S
H1247 C1223 0.949 . S
H1248 C1225 0.950 . S
H1249 C1227 0.950 . S
C1250 C1251 1.349 . S
C1250 C1252 1.327 . S
C1250 H1275 0.950 . S
C1251 C1250 1.349 . S
C1251 C1267 1.349 . S
C1252 C1250 1.327 . S
C1252 C1271 1.429 . S
C1252 H1276 0.950 . S
C1253 C1270 1.574 . S
C1253 C1272 1.368 . S
C1253 H1277 0.949 . S
H1254 C1258 0.949 . S
C1255 C1256 1.349 . S
C1255 C1257 1.327 . S
C1255 H1278 0.950 . S
C1256 C1255 1.349 . S
C1256 C1268 1.349 . S
C1257 C1255 1.327 . S
C1257 C1273 1.429 . S
C1257 H1279 0.950 . S
C1258 H1254 0.949 . S
C1258 C1266 1.574 . S
C1258 C1274 1.368 . S
H1259 C1267 0.950 . S
H1260 C1265 0.950 . S
H1261 C1266 0.949 . S
H1262 C1268 0.950 . S
H1263 C1269 0.950 . S
H1264 C1270 0.949 . S
C1265 H1260 0.950 . S
C1265 C1267 1.327 . S
C1265 C1271 1.429 . S
C1266 C1258 1.574 . S
C1266 H1261 0.949 . S
C1266 C1272 1.368 . S
C1267 C1251 1.349 . S
C1267 H1259 0.950 . S
C1267 C1265 1.327 . S
C1268 C1256 1.349 . S
C1268 H1262 0.950 . S
C1268 C1269 1.327 . S
C1269 H1263 0.950 . S
C1269 C1268 1.327 . S
C1269 C1273 1.429 . S
C1270 C1253 1.574 . S
C1270 H1264 0.949 . S
C1270 C1274 1.368 . S
C1271 C1252 1.429 . S
C1271 C1265 1.429 . S
C1271 C1272 1.523 . S
C1272 C1253 1.368 . S
C1272 C1266 1.368 . S
C1272 C1271 1.523 . S
C1273 C1257 1.429 . S
C1273 C1269 1.429 . S
C1273 C1274 1.523 . S
C1274 C1258 1.368 . S
C1274 C1270 1.368 . S
C1274 C1273 1.523 . S
H1275 C1250 0.950 . S
H1276 C1252 0.950 . S
H1277 C1253 0.949 . S
H1278 C1255 0.950 . S
H1279 C1257 0.950 . S
C1280 C1281 1.349 . S
C1280 C1282 1.327 . S
C1280 H1305 0.950 . S
C1281 C1280 1.349 . S
C1281 C1297 1.349 . S
C1282 C1280 1.327 . S
C1282 C1301 1.429 . S
C1282 H1306 0.950 . S
C1283 C1300 1.574 . S
C1283 C1302 1.368 . S
C1283 H1307 0.949 . S
H1284 C1288 0.949 . S
C1285 C1286 1.349 . S
C1285 C1287 1.327 . S
C1285 H1308 0.950 . S
C1286 C1285 1.349 . S
C1286 C1298 1.349 . S
C1287 C1285 1.327 . S
C1287 C1303 1.429 . S
C1287 H1309 0.950 . S
C1288 H1284 0.949 . S
C1288 C1296 1.574 . S
C1288 C1304 1.368 . S
H1289 C1297 0.950 . S
H1290 C1295 0.950 . S
H1291 C1296 0.949 . S
H1292 C1298 0.950 . S
H1293 C1299 0.950 . S
H1294 C1300 0.949 . S
C1295 H1290 0.950 . S
C1295 C1297 1.327 . S
C1295 C1301 1.429 . S
C1296 C1288 1.574 . S
C1296 H1291 0.949 . S
C1296 C1302 1.368 . S
C1297 C1281 1.349 . S
C1297 H1289 0.950 . S
C1297 C1295 1.327 . S
C1298 C1286 1.349 . S
C1298 H1292 0.950 . S
C1298 C1299 1.327 . S
C1299 H1293 0.950 . S
C1299 C1298 1.327 . S
C1299 C1303 1.429 . S
C1300 C1283 1.574 . S
C1300 H1294 0.949 . S
C1300 C1304 1.368 . S
C1301 C1282 1.429 . S
C1301 C1295 1.429 . S
C1301 C1302 1.523 . S
C1302 C1283 1.368 . S
C1302 C1296 1.368 . S
C1302 C1301 1.523 . S
C1303 C1287 1.429 . S
C1303 C1299 1.429 . S
C1303 C1304 1.523 . S
C1304 C1288 1.368 . S
C1304 C1300 1.368 . S
C1304 C1303 1.523 . S
H1305 C1280 0.950 . S
H1306 C1282 0.950 . S
H1307 C1283 0.949 . S
H1308 C1285 0.950 . S
H1309 C1287 0.950 . S
C1310 C1311 1.349 . S
C1310 C1312 1.327 . S
C1310 H1335 0.950 . S
C1311 C1310 1.349 . S
C1311 C1327 1.349 . S
C1312 C1310 1.327 . S
C1312 C1331 1.429 . S
C1312 H1336 0.950 . S
C1313 C1330 1.574 . S
C1313 C1332 1.368 . S
C1313 H1337 0.949 . S
H1314 C1318 0.949 . S
C1315 C1316 1.349 . S
C1315 C1317 1.327 . S
C1315 H1338 0.950 . S
C1316 C1315 1.349 . S
C1316 C1328 1.349 . S
C1317 C1315 1.327 . S
C1317 C1333 1.429 . S
C1317 H1339 0.950 . S
C1318 H1314 0.949 . S
C1318 C1326 1.574 . S
C1318 C1334 1.368 . S
H1319 C1327 0.950 . S
H1320 C1325 0.950 . S
H1321 C1326 0.949 . S
H1322 C1328 0.950 . S
H1323 C1329 0.950 . S
H1324 C1330 0.949 . S
C1325 H1320 0.950 . S
C1325 C1327 1.327 . S
C1325 C1331 1.429 . S
C1326 C1318 1.574 . S
C1326 H1321 0.949 . S
C1326 C1332 1.368 . S
C1327 C1311 1.349 . S
C1327 H1319 0.950 . S
C1327 C1325 1.327 . S
C1328 C1316 1.349 . S
C1328 H1322 0.950 . S
C1328 C1329 1.327 . S
C1329 H1323 0.950 . S
C1329 C1328 1.327 . S
C1329 C1333 1.429 . S
C1330 C1313 1.574 . S
C1330 H1324 0.949 . S
C1330 C1334 1.368 . S
C1331 C1312 1.429 . S
C1331 C1325 1.429 . S
C1331 C1332 1.523 . S
C1332 C1313 1.368 . S
C1332 C1326 1.368 . S
C1332 C1331 1.523 . S
C1333 C1317 1.429 . S
C1333 C1329 1.429 . S
C1333 C1334 1.523 . S
C1334 C1318 1.368 . S
C1334 C1330 1.368 . S
C1334 C1333 1.523 . S
H1335 C1310 0.950 . S
H1336 C1312 0.950 . S
H1337 C1313 0.949 . S
H1338 C1315 0.950 . S
H1339 C1317 0.950 . S
C1340 C1341 1.349 . S
C1340 C1342 1.327 . S
C1340 H1365 0.950 . S
C1341 C1340 1.349 . S
C1341 C1357 1.349 . S
C1342 C1340 1.327 . S
C1342 C1361 1.429 . S
C1342 H1366 0.950 . S
C1343 C1360 1.574 . S
C1343 C1362 1.368 . S
C1343 H1367 0.949 . S
H1344 C1348 0.949 . S
C1345 C1346 1.349 . S
C1345 C1347 1.327 . S
C1345 H1368 0.950 . S
C1346 C1345 1.349 . S
C1346 C1358 1.349 . S
C1347 C1345 1.327 . S
C1347 C1363 1.429 . S
C1347 H1369 0.950 . S
C1348 H1344 0.949 . S
C1348 C1356 1.574 . S
C1348 C1364 1.368 . S
H1349 C1357 0.950 . S
H1350 C1355 0.950 . S
H1351 C1356 0.949 . S
H1352 C1358 0.950 . S
H1353 C1359 0.950 . S
H1354 C1360 0.949 . S
C1355 H1350 0.950 . S
C1355 C1357 1.327 . S
C1355 C1361 1.429 . S
C1356 C1348 1.574 . S
C1356 H1351 0.949 . S
C1356 C1362 1.368 . S
C1357 C1341 1.349 . S
C1357 H1349 0.950 . S
C1357 C1355 1.327 . S
C1358 C1346 1.349 . S
C1358 H1352 0.950 . S
C1358 C1359 1.327 . S
C1359 H1353 0.950 . S
C1359 C1358 1.327 . S
C1359 C1363 1.429 . S
C1360 C1343 1.574 . S
C1360 H1354 0.949 . S
C1360 C1364 1.368 . S
C1361 C1342 1.429 . S
C1361 C1355 1.429 . S
C1361 C1362 1.523 . S
C1362 C1343 1.368 . S
C1362 C1356 1.368 . S
C1362 C1361 1.523 . S
C1363 C1347 1.429 . S
C1363 C1359 1.429 . S
C1363 C1364 1.523 . S
C1364 C1348 1.368 . S
C1364 C1360 1.368 . S
C1364 C1363 1.523 . S
H1365 C1340 0.950 . S
H1366 C1342 0.950 . S
H1367 C1343 0.949 . S
H1368 C1345 0.950 . S
H1369 C1347 0.950 . S
C1370 C1371 1.349 . S
C1370 C1372 1.327 . S
C1370 H1395 0.950 . S
C1371 C1370 1.349 . S
C1371 C1387 1.349 . S
C1372 C1370 1.327 . S
C1372 C1391 1.429 . S
C1372 H1396 0.950 . S
C1373 C1390 1.574 . S
C1373 C1392 1.368 . S
C1373 H1397 0.949 . S
H1374 C1378 0.949 . S
C1375 C1376 1.349 . S
C1375 C1377 1.327 . S
C1375 H1398 0.950 . S
C1376 C1375 1.349 . S
C1376 C1388 1.349 . S
C1377 C1375 1.327 . S
C1377 C1393 1.429 . S
C1377 H1399 0.950 . S
C1378 H1374 0.949 . S
C1378 C1386 1.574 . S
C1378 C1394 1.368 . S
H1379 C1387 0.950 . S
H1380 C1385 0.950 . S
H1381 C1386 0.949 . S
H1382 C1388 0.950 . S
H1383 C1389 0.950 . S
H1384 C1390 0.949 . S
C1385 H1380 0.950 . S
C1385 C1387 1.327 . S
C1385 C1391 1.429 . S
C1386 C1378 1.574 . S
C1386 H1381 0.949 . S
C1386 C1392 1.368 . S
C1387 C1371 1.349 . S
C1387 H1379 0.950 . S
C1387 C1385 1.327 . S
C1388 C1376 1.349 . S
C1388 H1382 0.950 . S
C1388 C1389 1.327 . S
C1389 H1383 0.950 . S
C1389 C1388 1.327 . S
C1389 C1393 1.429 . S
C1390 C1373 1.574 . S
C1390 H1384 0.949 . S
C1390 C1394 1.368 . S
C1391 C1372 1.429 . S
C1391 C1385 1.429 . S
C1391 C1392 1.523 . S
C1392 C1373 1.368 . S
C1392 C1386 1.368 . S
C1392 C1391 1.523 . S
C1393 C1377 1.429 . S
C1393 C1389 1.429 . S
C1393 C1394 1.523 . S
C1394 C1378 1.368 . S
C1394 C1390 1.368 . S
C1394 C1393 1.523 . S
H1395 C1370 0.950 . S
H1396 C1372 0.950 . S
H1397 C1373 0.949 . S
H1398 C1375 0.950 . S
H1399 C1377 0.950 . S
C1400 C1401 1.349 . S
C1400 C1402 1.327 . S
C1400 H1425 0.950 . S
C1401 C1400 1.349 . S
C1401 C1417 1.349 . S
C1402 C1400 1.327 . S
C1402 C1421 1.429 . S
C1402 H1426 0.950 . S
C1403 C1420 1.574 . S
C1403 C1422 1.368 . S
C1403 H1427 0.949 . S
H1404 C1408 0.949 . S
C1405 C1406 1.349 . S
C1405 C1407 1.327 . S
C1405 H1428 0.950 . S
C1406 C1405 1.349 . S
C1406 C1418 1.349 . S
C1407 C1405 1.327 . S
C1407 C1423 1.429 . S
C1407 H1429 0.950 . S
C1408 H1404 0.949 . S
C1408 C1416 1.574 . S
C1408 C1424 1.368 . S
H1409 C1417 0.950 . S
H1410 C1415 0.950 . S
H1411 C1416 0.949 . S
H1412 C1418 0.950 . S
H1413 C1419 0.950 . S
H1414 C1420 0.949 . S
C1415 H1410 0.950 . S
C1415 C1417 1.327 . S
C1415 C1421 1.429 . S
C1416 C1408 1.574 . S
C1416 H1411 0.949 . S
C1416 C1422 1.368 . S
C1417 C1401 1.349 . S
C1417 H1409 0.950 . S
C1417 C1415 1.327 . S
C1418 C1406 1.349 . S
C1418 H1412 0.950 . S
C1418 C1419 1.327 . S
C1419 H1413 0.950 . S
C1419 C1418 1.327 . S
C1419 C1423 1.429 . S
C1420 C1403 1.574 . S
C1420 H1414 0.949 . S
C1420 C1424 1.368 . S
C1421 C1402 1.429 . S
C1421 C1415 1.429 . S
C1421 C1422 1.523 . S
C1422 C1403 1.368 . S
C1422 C1416 1.368 . S
C1422 C1421 1.523 . S
C1423 C1407 1.429 . S
C1423 C1419 1.429 . S
C1423 C1424 1.523 . S
C1424 C1408 1.368 . S
C1424 C1420 1.368 . S
C1424 C1423 1.523 . S
H1425 C1400 0.950 . S
H1426 C1402 0.950 . S
H1427 C1403 0.949 . S
H1428 C1405 0.950 . S
H1429 C1407 0.950 . S
C1430 C1431 1.349 1_556 S
C1430 C1432 1.327 . S
C1430 H1455 0.950 . S
C1431 C1430 1.349 1_554 S
C1431 C1447 1.349 . S
C1432 C1430 1.327 . S
C1432 C1451 1.429 1_556 S
C1432 H1456 0.950 . S
C1433 C1450 1.574 . S
C1433 C1452 1.368 . S
C1433 H1457 0.949 . S
H1434 C1438 0.949 . S
C1435 C1436 1.349 . S
C1435 C1437 1.327 . S
C1435 H1458 0.950 . S
C1436 C1435 1.349 . S
C1436 C1448 1.349 1_554 S
C1437 C1435 1.327 . S
C1437 C1453 1.429 . S
C1437 H1459 0.950 . S
C1438 H1434 0.949 . S
C1438 C1446 1.574 . S
C1438 C1454 1.368 1_556 S
H1439 C1447 0.950 . S
H1440 C1445 0.950 . S
H1441 C1446 0.949 . S
H1442 C1448 0.950 . S
H1443 C1449 0.950 . S
H1444 C1450 0.949 . S
C1445 H1440 0.950 . S
C1445 C1447 1.327 . S
C1445 C1451 1.429 . S
C1446 C1438 1.574 . S
C1446 H1441 0.949 . S
C1446 C1452 1.368 1_556 S
C1447 C1431 1.349 . S
C1447 H1439 0.950 . S
C1447 C1445 1.327 . S
C1448 C1436 1.349 1_556 S
C1448 H1442 0.950 . S
C1448 C1449 1.327 . S
C1449 H1443 0.950 . S
C1449 C1448 1.327 . S
C1449 C1453 1.429 1_556 S
C1450 C1433 1.574 . S
C1450 H1444 0.949 . S
C1450 C1454 1.368 . S
C1451 C1432 1.429 1_554 S
C1451 C1445 1.429 . S
C1451 C1452 1.523 . S
C1452 C1433 1.368 . S
C1452 C1446 1.368 1_554 S
C1452 C1451 1.523 . S
C1453 C1437 1.429 . S
C1453 C1449 1.429 1_554 S
C1453 C1454 1.523 . S
C1454 C1438 1.368 1_554 S
C1454 C1450 1.368 . S
C1454 C1453 1.523 . S
H1455 C1430 0.950 . S
H1456 C1432 0.950 . S
H1457 C1433 0.949 . S
H1458 C1435 0.950 . S
H1459 C1437 0.950 . S
C1460 C1461 1.349 . S
C1460 C1462 1.327 . S
C1460 H1485 0.950 . S
C1461 C1460 1.349 . S
C1461 C1477 1.349 . S
C1462 C1460 1.327 . S
C1462 C1481 1.429 . S
C1462 H1486 0.950 . S
C1463 C1480 1.574 . S
C1463 C1482 1.368 . S
C1463 H1487 0.949 . S
H1464 C1468 0.949 . S
C1465 C1466 1.349 . S
C1465 C1467 1.327 . S
C1465 H1488 0.950 . S
C1466 C1465 1.349 . S
C1466 C1478 1.349 . S
C1467 C1465 1.327 . S
C1467 C1483 1.429 . S
C1467 H1489 0.950 . S
C1468 H1464 0.949 . S
C1468 C1476 1.574 . S
C1468 C1484 1.368 . S
H1469 C1477 0.950 . S
H1470 C1475 0.950 . S
H1471 C1476 0.949 . S
H1472 C1478 0.950 . S
H1473 C1479 0.950 . S
H1474 C1480 0.949 . S
C1475 H1470 0.950 . S
C1475 C1477 1.327 . S
C1475 C1481 1.429 . S
C1476 C1468 1.574 . S
C1476 H1471 0.949 . S
C1476 C1482 1.368 . S
C1477 C1461 1.349 . S
C1477 H1469 0.950 . S
C1477 C1475 1.327 . S
C1478 C1466 1.349 . S
C1478 H1472 0.950 . S
C1478 C1479 1.327 . S
C1479 H1473 0.950 . S
C1479 C1478 1.327 . S
C1479 C1483 1.429 . S
C1480 C1463 1.574 . S
C1480 H1474 0.949 . S
C1480 C1484 1.368 . S
C1481 C1462 1.429 . S
C1481 C1475 1.429 . S
C1481 C1482 1.523 . S
C1482 C1463 1.368 . S
C1482 C1476 1.368 . S
C1482 C1481 1.523 . S
C1483 C1467 1.429 . S
C1483 C1479 1.429 . S
C1483 C1484 1.523 . S
C1484 C1468 1.368 . S
C1484 C1480 1.368 . S
C1484 C1483 1.523 . S
H1485 C1460 0.950 . S
H1486 C1462 0.950 . S
H1487 C1463 0.949 . S
H1488 C1465 0.950 . S
H1489 C1467 0.950 . S
C1490 C1491 1.349 . S
C1490 C1492 1.327 . S
C1490 H1515 0.950 . S
C1491 C1490 1.349 . S
C1491 C1507 1.349 . S
C1492 C1490 1.327 . S
C1492 C1511 1.429 . S
C1492 H1516 0.950 . S
C1493 C1510 1.574 . S
C1493 C1512 1.368 . S
C1493 H1517 0.949 . S
H1494 C1498 0.949 . S
C1495 C1496 1.349 . S
C1495 C1497 1.327 . S
C1495 H1518 0.950 . S
C1496 C1495 1.349 . S
C1496 C1508 1.349 . S
C1497 C1495 1.327 . S
C1497 C1513 1.429 . S
C1497 H1519 0.950 . S
C1498 H1494 0.949 . S
C1498 C1506 1.574 . S
C1498 C1514 1.368 . S
H1499 C1507 0.950 . S
H1500 C1505 0.950 . S
H1501 C1506 0.949 . S
H1502 C1508 0.950 . S
H1503 C1509 0.950 . S
H1504 C1510 0.949 . S
C1505 H1500 0.950 . S
C1505 C1507 1.327 . S
C1505 C1511 1.429 . S
C1506 C1498 1.574 . S
C1506 H1501 0.949 . S
C1506 C1512 1.368 . S
C1507 C1491 1.349 . S
C1507 H1499 0.950 . S
C1507 C1505 1.327 . S
C1508 C1496 1.349 . S
C1508 H1502 0.950 . S
C1508 C1509 1.327 . S
C1509 H1503 0.950 . S
C1509 C1508 1.327 . S
C1509 C1513 1.429 . S
C1510 C1493 1.574 . S
C1510 H1504 0.949 . S
C1510 C1514 1.368 . S
C1511 C1492 1.429 . S
C1511 C1505 1.429 . S
C1511 C1512 1.523 . S
C1512 C1493 1.368 . S
C1512 C1506 1.368 . S
C1512 C1511 1.523 . S
C1513 C1497 1.429 . S
C1513 C1509 1.429 . S
C1513 C1514 1.523 . S
C1514 C1498 1.368 . S
C1514 C1510 1.368 . S
C1514 C1513 1.523 . S
H1515 C1490 0.950 . S
H1516 C1492 0.950 . S
H1517 C1493 0.949 . S
H1518 C1495 0.950 . S
H1519 C1497 0.950 . S
C1520 C1521 1.349 . S
C1520 C1522 1.327 . S
C1520 H1545 0.950 . S
C1521 C1520 1.349 . S
C1521 C1537 1.349 . S
C1522 C1520 1.327 . S
C1522 C1541 1.429 . S
C1522 H1546 0.950 . S
C1523 C1540 1.574 . S
C1523 C1542 1.368 . S
C1523 H1547 0.949 . S
H1524 C1528 0.949 . S
C1525 C1526 1.349 . S
C1525 C1527 1.327 . S
C1525 H1548 0.950 . S
C1526 C1525 1.349 . S
C1526 C1538 1.349 . S
C1527 C1525 1.327 . S
C1527 C1543 1.429 . S
C1527 H1549 0.950 . S
C1528 H1524 0.949 . S
C1528 C1536 1.574 . S
C1528 C1544 1.368 . S
H1529 C1537 0.950 . S
H1530 C1535 0.950 . S
H1531 C1536 0.949 . S
H1532 C1538 0.950 . S
H1533 C1539 0.950 . S
H1534 C1540 0.949 . S
C1535 H1530 0.950 . S
C1535 C1537 1.327 . S
C1535 C1541 1.429 . S
C1536 C1528 1.574 . S
C1536 H1531 0.949 . S
C1536 C1542 1.368 . S
C1537 C1521 1.349 . S
C1537 H1529 0.950 . S
C1537 C1535 1.327 . S
C1538 C1526 1.349 . S
C1538 H1532 0.950 . S
C1538 C1539 1.327 . S
C1539 H1533 0.950 . S
C1539 C1538 1.327 . S
C1539 C1543 1.429 . S
C1540 C1523 1.574 . S
C1540 H1534 0.949 . S
C1540 C1544 1.368 . S
C1541 C1522 1.429 . S
C1541 C1535 1.429 . S
C1541 C1542 1.523 . S
C1542 C1523 1.368 . S
C1542 C1536 1.368 . S
C1542 C1541 1.523 . S
C1543 C1527 1.429 . S
C1543 C1539 1.429 . S
C1543 C1544 1.523 . S
C1544 C1528 1.368 . S
C1544 C1540 1.368 . S
C1544 C1543 1.523 . S
H1545 C1520 0.950 . S
H1546 C1522 0.950 . S
H1547 C1523 0.949 . S
H1548 C1525 0.950 . S
H1549 C1527 0.950 . S
C1550 C1551 1.349 . S
C1550 C1552 1.327 . S
C1550 H1575 0.950 . S
C1551 C1550 1.349 . S
C1551 C1567 1.349 . S
C1552 C1550 1.327 . S
C1552 C1571 1.429 . S
C1552 H1576 0.950 . S
C1553 C1570 1.574 . S
C1553 C1572 1.368 . S
C1553 H1577 0.949 . S
H1554 C1558 0.949 . S
C1555 C1556 1.349 . S
C1555 C1557 1.327 . S
C1555 H1578 0.950 . S
C1556 C1555 1.349 . S
C1556 C1568 1.349 . S
C1557 C1555 1.327 . S
C1557 C1573 1.429 . S
C1557 H1579 0.950 . S
C1558 H1554 0.949 . S
C1558 C1566 1.574 . S
C1558 C1574 1.368 . S
H1559 C1567 0.950 . S
H1560 C1565 0.950 . S
H1561 C1566 0.949 . S
H1562 C1568 0.950 . S
H1563 C1569 0.950 . S
H1564 C1570 0.949 . S
C1565 H1560 0.950 . S
C1565 C1567 1.327 . S
C1565 C1571 1.429 . S
C1566 C1558 1.574 . S
C1566 H1561 0.949 . S
C1566 C1572 1.368 . S
C1567 C1551 1.349 . S
C1567 H1559 0.950 . S
C1567 C1565 1.327 . S
C1568 C1556 1.349 . S
C1568 H1562 0.950 . S
C1568 C1569 1.327 . S
C1569 H1563 0.950 . S
C1569 C1568 1.327 . S
C1569 C1573 1.429 . S
C1570 C1553 1.574 . S
C1570 H1564 0.949 . S
C1570 C1574 1.368 . S
C1571 C1552 1.429 . S
C1571 C1565 1.429 . S
C1571 C1572 1.523 . S
C1572 C1553 1.368 . S
C1572 C1566 1.368 . S
C1572 C1571 1.523 . S
C1573 C1557 1.429 . S
C1573 C1569 1.429 . S
C1573 C1574 1.523 . S
C1574 C1558 1.368 . S
C1574 C1570 1.368 . S
C1574 C1573 1.523 . S
H1575 C1550 0.950 . S
H1576 C1552 0.950 . S
H1577 C1553 0.949 . S
H1578 C1555 0.950 . S
H1579 C1557 0.950 . S
C1580 C1581 1.349 . S
C1580 C1582 1.327 . S
C1580 H1605 0.950 . S
C1581 C1580 1.349 . S
C1581 C1597 1.349 1_556 S
C1582 C1580 1.327 . S
C1582 C1601 1.429 . S
C1582 H1606 0.950 . S
C1583 C1600 1.574 . S
C1583 C1602 1.368 1_554 S
C1583 H1607 0.949 . S
H1584 C1588 0.949 . S
C1585 C1586 1.349 1_554 S
C1585 C1587 1.327 . S
C1585 H1608 0.950 . S
C1586 C1585 1.349 1_556 S
C1586 C1598 1.349 . S
C1587 C1585 1.327 . S
C1587 C1603 1.429 1_554 S
C1587 H1609 0.950 . S
C1588 H1584 0.949 . S
C1588 C1596 1.574 . S
C1588 C1604 1.368 . S
H1589 C1597 0.950 . S
H1590 C1595 0.950 . S
H1591 C1596 0.949 . S
H1592 C1598 0.950 . S
H1593 C1599 0.950 . S
H1594 C1600 0.949 . S
C1595 H1590 0.950 . S
C1595 C1597 1.327 . S
C1595 C1601 1.429 1_554 S
C1596 C1588 1.574 . S
C1596 H1591 0.949 . S
C1596 C1602 1.368 . S
C1597 C1581 1.349 1_554 S
C1597 H1589 0.950 . S
C1597 C1595 1.327 . S
C1598 C1586 1.349 . S
C1598 H1592 0.950 . S
C1598 C1599 1.327 . S
C1599 H1593 0.950 . S
C1599 C1598 1.327 . S
C1599 C1603 1.429 . S
C1600 C1583 1.574 . S
C1600 H1594 0.949 . S
C1600 C1604 1.368 1_554 S
C1601 C1582 1.429 . S
C1601 C1595 1.429 1_556 S
C1601 C1602 1.523 . S
C1602 C1583 1.368 1_556 S
C1602 C1596 1.368 . S
C1602 C1601 1.523 . S
C1603 C1587 1.429 1_556 S
C1603 C1599 1.429 . S
C1603 C1604 1.523 . S
C1604 C1588 1.368 . S
C1604 C1600 1.368 1_556 S
C1604 C1603 1.523 . S
H1605 C1580 0.950 . S
H1606 C1582 0.950 . S
H1607 C1583 0.949 . S
H1608 C1585 0.950 . S
H1609 C1587 0.950 . S
C1610 C1611 1.349 . S
C1610 C1612 1.327 . S
C1610 H1635 0.950 . S
C1611 C1610 1.349 . S
C1611 C1627 1.349 . S
C1612 C1610 1.327 . S
C1612 C1631 1.429 . S
C1612 H1636 0.950 . S
C1613 C1630 1.574 . S
C1613 C1632 1.368 . S
C1613 H1637 0.949 . S
H1614 C1618 0.949 . S
C1615 C1616 1.349 . S
C1615 C1617 1.327 . S
C1615 H1638 0.950 . S
C1616 C1615 1.349 . S
C1616 C1628 1.349 . S
C1617 C1615 1.327 . S
C1617 C1633 1.429 . S
C1617 H1639 0.950 . S
C1618 H1614 0.949 . S
C1618 C1626 1.574 . S
C1618 C1634 1.368 . S
H1619 C1627 0.950 . S
H1620 C1625 0.950 . S
H1621 C1626 0.949 . S
H1622 C1628 0.950 . S
H1623 C1629 0.950 . S
H1624 C1630 0.949 . S
C1625 H1620 0.950 . S
C1625 C1627 1.327 . S
C1625 C1631 1.429 . S
C1626 C1618 1.574 . S
C1626 H1621 0.949 . S
C1626 C1632 1.368 . S
C1627 C1611 1.349 . S
C1627 H1619 0.950 . S
C1627 C1625 1.327 . S
C1628 C1616 1.349 . S
C1628 H1622 0.950 . S
C1628 C1629 1.327 . S
C1629 H1623 0.950 . S
C1629 C1628 1.327 . S
C1629 C1633 1.429 . S
C1630 C1613 1.574 . S
C1630 H1624 0.949 . S
C1630 C1634 1.368 . S
C1631 C1612 1.429 . S
C1631 C1625 1.429 . S
C1631 C1632 1.523 . S
C1632 C1613 1.368 . S
C1632 C1626 1.368 . S
C1632 C1631 1.523 . S
C1633 C1617 1.429 . S
C1633 C1629 1.429 . S
C1633 C1634 1.523 . S
C1634 C1618 1.368 . S
C1634 C1630 1.368 . S
C1634 C1633 1.523 . S
H1635 C1610 0.950 . S
H1636 C1612 0.950 . S
H1637 C1613 0.949 . S
H1638 C1615 0.950 . S
H1639 C1617 0.950 . S
C1640 C1641 1.349 . S
C1640 C1642 1.327 . S
C1640 H1665 0.950 . S
C1641 C1640 1.349 . S
C1641 C1657 1.349 . S
C1642 C1640 1.327 . S
C1642 C1661 1.429 . S
C1642 H1666 0.950 . S
C1643 C1660 1.574 . S
C1643 C1662 1.368 . S
C1643 H1667 0.949 . S
H1644 C1648 0.949 . S
C1645 C1646 1.349 . S
C1645 C1647 1.327 . S
C1645 H1668 0.950 . S
C1646 C1645 1.349 . S
C1646 C1658 1.349 . S
C1647 C1645 1.327 . S
C1647 C1663 1.429 . S
C1647 H1669 0.950 . S
C1648 H1644 0.949 . S
C1648 C1656 1.574 . S
C1648 C1664 1.368 . S
H1649 C1657 0.950 . S
H1650 C1655 0.950 . S
H1651 C1656 0.949 . S
H1652 C1658 0.950 . S
H1653 C1659 0.950 . S
H1654 C1660 0.949 . S
C1655 H1650 0.950 . S
C1655 C1657 1.327 . S
C1655 C1661 1.429 . S
C1656 C1648 1.574 . S
C1656 H1651 0.949 . S
C1656 C1662 1.368 . S
C1657 C1641 1.349 . S
C1657 H1649 0.950 . S
C1657 C1655 1.327 . S
C1658 C1646 1.349 . S
C1658 H1652 0.950 . S
C1658 C1659 1.327 . S
C1659 H1653 0.950 . S
C1659 C1658 1.327 . S
C1659 C1663 1.429 . S
C1660 C1643 1.574 . S
C1660 H1654 0.949 . S
C1660 C1664 1.368 . S
C1661 C1642 1.429 . S
C1661 C1655 1.429 . S
C1661 C1662 1.523 . S
C1662 C1643 1.368 . S
C1662 C1656 1.368 . S
C1662 C1661 1.523 . S
C1663 C1647 1.429 . S
C1663 C1659 1.429 . S
C1663 C1664 1.523 . S
C1664 C1648 1.368 . S
C1664 C1660 1.368 . S
C1664 C1663 1.523 . S
H1665 C1640 0.950 . S
H1666 C1642 0.950 . S
H1667 C1643 0.949 . S
H1668 C1645 0.950 . S
H1669 C1647 0.950 . S
C1670 C1671 1.349 . S
C1670 C1672 1.327 . S
C1670 H1695 0.950 . S
C1671 C1670 1.349 . S
C1671 C1687 1.349 . S
C1672 C1670 1.327 . S
C1672 C1691 1.429 . S
C1672 H1696 0.950 . S
C1673 C1690 1.574 . S
C1673 C1692 1.368 . S
C1673 H1697 0.949 . S
H1674 C1678 0.949 . S
C1675 C1676 1.349 . S
C1675 C1677 1.327 . S
C1675 H1698 0.950 . S
C1676 C1675 1.349 . S
C1676 C1688 1.349 . S
C1677 C1675 1.327 . S
C1677 C1693 1.429 . S
C1677 H1699 0.950 . S
C1678 H1674 0.949 . S
C1678 C1686 1.574 . S
C1678 C1694 1.368 . S
H1679 C1687 0.950 . S
H1680 C1685 0.950 . S
H1681 C1686 0.949 . S
H1682 C1688 0.950 . S
H1683 C1689 0.950 . S
H1684 C1690 0.949 . S
C1685 H1680 0.950 . S
C1685 C1687 1.327 . S
C1685 C1691 1.429 . S
C1686 C1678 1.574 . S
C1686 H1681 0.949 . S
C1686 C1692 1.368 . S
C1687 C1671 1.349 . S
C1687 H1679 0.950 . S
C1687 C1685 1.327 . S
C1688 C1676 1.349 . S
C1688 H1682 0.950 . S
C1688 C1689 1.327 . S
C1689 H1683 0.950 . S
C1689 C1688 1.327 . S
C1689 C1693 1.429 . S
C1690 C1673 1.574 . S
C1690 H1684 0.949 . S
C1690 C1694 1.368 . S
C1691 C1672 1.429 . S
C1691 C1685 1.429 . S
C1691 C1692 1.523 . S
C1692 C1673 1.368 . S
C1692 C1686 1.368 . S
C1692 C1691 1.523 . S
C1693 C1677 1.429 . S
C1693 C1689 1.429 . S
C1693 C1694 1.523 . S
C1694 C1678 1.368 . S
C1694 C1690 1.368 . S
C1694 C1693 1.523 . S
H1695 C1670 0.950 . S
H1696 C1672 0.950 . S
H1697 C1673 0.949 . S
H1698 C1675 0.950 . S
H1699 C1677 0.950 . S
C1700 C1701 1.349 . S
C1700 C1702 1.327 . S
C1700 H1725 0.950 . S
C1701 C1700 1.349 . S
C1701 C1717 1.349 . S
C1702 C1700 1.327 . S
C1702 C1721 1.429 . S
C1702 H1726 0.950 . S
C1703 C1720 1.574 . S
C1703 C1722 1.368 . S
C1703 H1727 0.949 . S
H1704 C1708 0.949 . S
C1705 C1706 1.349 . S
C1705 C1707 1.327 . S
C1705 H1728 0.950 . S
C1706 C1705 1.349 . S
C1706 C1718 1.349 . S
C1707 C1705 1.327 . S
C1707 C1723 1.429 . S
C1707 H1729 0.950 . S
C1708 H1704 0.949 . S
C1708 C1716 1.574 . S
C1708 C1724 1.368 . S
H1709 C1717 0.950 . S
H1710 C1715 0.950 . S
H1711 C1716 0.949 . S
H1712 C1718 0.950 . S
H1713 C1719 0.950 . S
H1714 C1720 0.949 . S
C1715 H1710 0.950 . S
C1715 C1717 1.327 . S
C1715 C1721 1.429 . S
C1716 C1708 1.574 . S
C1716 H1711 0.949 . S
C1716 C1722 1.368 . S
C1717 C1701 1.349 . S
C1717 H1709 0.950 . S
C1717 C1715 1.327 . S
C1718 C1706 1.349 . S
C1718 H1712 0.950 . S
C1718 C1719 1.327 . S
C1719 H1713 0.950 . S
C1719 C1718 1.327 . S
C1719 C1723 1.429 . S
C1720 C1703 1.574 . S
C1720 H1714 0.949 . S
C1720 C1724 1.368 . S
C1721 C1702 1.429 . S
C1721 C1715 1.429 . S
C1721 C1722 1.523 . S
C1722 C1703 1.368 . S
C1722 C1716 1.368 . S
C1722 C1721 1.523 . S
C1723 C1707 1.429 . S
C1723 C1719 1.429 . S
C1723 C1724 1.523 . S
C1724 C1708 1.368 . S
C1724 C1720 1.368 . S
C1724 C1723 1.523 . S
H1725 C1700 0.950 . S
H1726 C1702 0.950 . S
H1727 C1703 0.949 . S
H1728 C1705 0.950 . S
H1729 C1707 0.950 . S
C1730 C1731 1.349 . S
C1730 C1732 1.327 . S
C1730 H1755 0.950 . S
C1731 C1730 1.349 . S
C1731 C1747 1.349 . S
C1732 C1730 1.327 . S
C1732 C1751 1.429 . S
C1732 H1756 0.950 . S
C1733 C1750 1.574 . S
C1733 C1752 1.368 . S
C1733 H1757 0.949 . S
H1734 C1738 0.949 . S
C1735 C1736 1.349 . S
C1735 C1737 1.327 . S
C1735 H1758 0.950 . S
C1736 C1735 1.349 . S
C1736 C1748 1.349 . S
C1737 C1735 1.327 . S
C1737 C1753 1.429 . S
C1737 H1759 0.950 . S
C1738 H1734 0.949 . S
C1738 C1746 1.574 . S
C1738 C1754 1.368 . S
H1739 C1747 0.950 . S
H1740 C1745 0.950 . S
H1741 C1746 0.949 . S
H1742 C1748 0.950 . S
H1743 C1749 0.950 . S
H1744 C1750 0.949 . S
C1745 H1740 0.950 . S
C1745 C1747 1.327 . S
C1745 C1751 1.429 . S
C1746 C1738 1.574 . S
C1746 H1741 0.949 . S
C1746 C1752 1.368 . S
C1747 C1731 1.349 . S
C1747 H1739 0.950 . S
C1747 C1745 1.327 . S
C1748 C1736 1.349 . S
C1748 H1742 0.950 . S
C1748 C1749 1.327 . S
C1749 H1743 0.950 . S
C1749 C1748 1.327 . S
C1749 C1753 1.429 . S
C1750 C1733 1.574 . S
C1750 H1744 0.949 . S
C1750 C1754 1.368 . S
C1751 C1732 1.429 . S
C1751 C1745 1.429 . S
C1751 C1752 1.523 . S
C1752 C1733 1.368 . S
C1752 C1746 1.368 . S
C1752 C1751 1.523 . S
C1753 C1737 1.429 . S
C1753 C1749 1.429 . S
C1753 C1754 1.523 . S
C1754 C1738 1.368 . S
C1754 C1750 1.368 . S
C1754 C1753 1.523 . S
H1755 C1730 0.950 . S
H1756 C1732 0.950 . S
H1757 C1733 0.949 . S
H1758 C1735 0.950 . S
H1759 C1737 0.950 . S
C321 C19 0.811 . S
C326 C21 0.805 . S
C351 C59 1.123 . S
C356 C38 1.122 . S
C381 C78 1.259 . S
C386 C49 1.233 . S
C411 C9 0.896 . S
C416 C61 0.897 . S
C441 C8 0.896 . S
C446 C182 0.895 . S
C471 C158 0.811 . S
C476 C22 0.807 . S
C501 C58 1.123 . S
C506 C219 1.122 . S
C531 C79 1.259 . S
C536 C268 1.237 . S
C561 C178 1.123 . S
C566 C39 1.121 . S
C591 C259 1.259 . S
C596 C48 1.235 . S
C621 C288 0.896 . S
C626 C62 0.896 . S
C651 C18 0.811 . S
C656 C222 0.809 . S
C681 C1 0.257 . S
C686 C162 0.289 . S
C711 C249 0.933 . S
C716 C88 0.933 . S
C741 C101 0.289 . S
C746 C282 0.259 . S
C771 C228 0.933 . S
C776 C129 0.933 . S
C801 C41 0.289 . S
C806 C142 0.257 . S
C831 C188 0.933 . S
C836 C89 0.934 . S
C861 C128 0.933 . S
C866 C209 0.933 . S
C891 C118 1.122 . S
C896 C239 1.122 . S
C921 C199 1.259 . S
C926 C108 1.236 . S
C951 C221 0.807 . S
C956 C159 0.811 . S
C981 C119 1.123 . S
C986 C98 1.122 . S
C1011 C198 1.259 . S
C1016 C169 1.233 . S
C1041 C279 1.123 . S
C1046 C238 1.122 . S
C1071 C138 1.259 . S
C1076 C109 1.235 . S
C1101 C181 0.896 . S
C1106 C289 0.896 . S
C1131 C261 0.289 . S
C1136 C2 0.259 . S
C1161 C42 0.289 . S
C1166 C281 0.255 . S
C1191 C248 0.933 . S
C1196 C29 0.933 . S
C1221 C141 0.257 . S
C1226 C102 0.289 . S
C1251 C69 0.933 . S
C1256 C208 0.932 . S
C1281 C258 1.259 . S
C1286 C269 1.234 . S
C1311 C149 0.896 . S
C1316 C241 0.896 . S
C1341 C122 0.896 . S
C1346 C148 0.896 . S
C1371 C99 1.122 . S
C1376 C278 1.122 . S
C1401 C242 0.896 . S
C1406 C308 0.895 . S
C1431 C302 0.257 . S
C1436 C161 0.288 . S
C1461 C28 0.933 . S
C1466 C189 0.932 . S
C1491 C168 1.235 . S
C1496 C139 1.260 . S
C1521 C179 1.123 . S
C1526 C218 1.122 . S
C1551 C309 0.896 . S
C1556 C121 0.897 . S
C1581 C262 0.289 . S
C1586 C301 0.257 . S
C1611 C229 0.933 . S
C1616 C68 0.933 . S
C1641 C201 0.807 . S
C1646 C299 0.809 . S
C1671 C202 0.807 . S
C1676 C318 0.812 . S
C1701 C82 0.807 . S
C1706 C298 0.812 . S
C1731 C319 0.811 . S
C1736 C81 0.805 . S
