# Generated by pormake.
# Topology wfs, (7)-cn, num edge types: 1
# Building blocks:
#     Node 0, Type 0, BuildingBlock: NUHQUE_clean_sbu_2, # of connection points: 7
#     Node 1, Type 0, BuildingBlock: NUHQUE_clean_sbu_2, # of connection points: 7
#     Node 2, Type 0, BuildingBlock: NUHQUE_clean_sbu_2, # of connection points: 7
#     Node 3, Type 0, BuildingBlock: NUHQUE_clean_sbu_2, # of connection points: 7
#     Node 4, Type 0, BuildingBlock: NUHQUE_clean_sbu_2, # of connection points: 7
#     Node 5, Type 0, BuildingBlock: NUHQUE_clean_sbu_2, # of connection points: 7
#     Node 6, Type 0, BuildingBlock: NUHQUE_clean_sbu_2, # of connection points: 7
#     Node 7, Type 0, BuildingBlock: NUHQUE_clean_sbu_2, # of connection points: 7
#     Edge 8, Type (0, 0), BuildingBlock: MIFKUJ_clean_linker_0, # of connection points: 2
#     Edge 9, Type (0, 0), BuildingBlock: MIFKUJ_clean_linker_0, # of connection points: 2
#     Edge 10, Type (0, 0), BuildingBlock: MIFKUJ_clean_linker_0, # of connection points: 2
#     Edge 11, Type (0, 0), BuildingBlock: MIFKUJ_clean_linker_0, # of connection points: 2
#     Edge 12, Type (0, 0), BuildingBlock: MIFKUJ_clean_linker_0, # of connection points: 2
#     Edge 13, Type (0, 0), BuildingBlock: MIFKUJ_clean_linker_0, # of connection points: 2
#     Edge 14, Type (0, 0), BuildingBlock: MIFKUJ_clean_linker_0, # of connection points: 2
#     Edge 15, Type (0, 0), BuildingBlock: MIFKUJ_clean_linker_0, # of connection points: 2
#     Edge 16, Type (0, 0), BuildingBlock: MIFKUJ_clean_linker_0, # of connection points: 2
#     Edge 17, Type (0, 0), BuildingBlock: MIFKUJ_clean_linker_0, # of connection points: 2
#     Edge 18, Type (0, 0), BuildingBlock: MIFKUJ_clean_linker_0, # of connection points: 2
#     Edge 19, Type (0, 0), BuildingBlock: MIFKUJ_clean_linker_0, # of connection points: 2
#     Edge 20, Type (0, 0), BuildingBlock: MIFKUJ_clean_linker_0, # of connection points: 2
#     Edge 21, Type (0, 0), BuildingBlock: MIFKUJ_clean_linker_0, # of connection points: 2
#     Edge 22, Type (0, 0), BuildingBlock: MIFKUJ_clean_linker_0, # of connection points: 2
#     Edge 23, Type (0, 0), BuildingBlock: MIFKUJ_clean_linker_0, # of connection points: 2
#     Edge 24, Type (0, 0), BuildingBlock: MIFKUJ_clean_linker_0, # of connection points: 2
#     Edge 25, Type (0, 0), BuildingBlock: MIFKUJ_clean_linker_0, # of connection points: 2
#     Edge 26, Type (0, 0), BuildingBlock: MIFKUJ_clean_linker_0, # of connection points: 2
#     Edge 27, Type (0, 0), BuildingBlock: MIFKUJ_clean_linker_0, # of connection points: 2
#     Edge 28, Type (0, 0), BuildingBlock: MIFKUJ_clean_linker_0, # of connection points: 2
#     Edge 29, Type (0, 0), BuildingBlock: MIFKUJ_clean_linker_0, # of connection points: 2
#     Edge 30, Type (0, 0), BuildingBlock: MIFKUJ_clean_linker_0, # of connection points: 2
#     Edge 31, Type (0, 0), BuildingBlock: MIFKUJ_clean_linker_0, # of connection points: 2
#     Edge 32, Type (0, 0), BuildingBlock: MIFKUJ_clean_linker_0, # of connection points: 2
#     Edge 33, Type (0, 0), BuildingBlock: MIFKUJ_clean_linker_0, # of connection points: 2
#     Edge 34, Type (0, 0), BuildingBlock: MIFKUJ_clean_linker_0, # of connection points: 2
#     Edge 35, Type (0, 0), BuildingBlock: MIFKUJ_clean_linker_0, # of connection points: 2
# Relax obj value: 0.216
# Max RMSD: 0.189
# Mean RMSD: 0.189
data_MOF--net-wfs--node1-NUHQUE_clean_sbu_2--edge1-MIFKUJ_clean_linker_0
_symmetry_space_group_name_H-M    P1
_symmetry_Int_Tables_number       1
_symmetry_cell_setting            triclinic
loop_
_symmetry_equiv_pos_as_xyz
'x, y, z'
_cell_length_a     39.673946
_cell_length_b     46.51677
_cell_length_c     38.220576
_cell_angle_alpha  90.042679
_cell_angle_beta   89.963176
_cell_angle_gamma 90.172241
loop_
_atom_site_label
_atom_site_type_symbol
_atom_site_fract_x
_atom_site_fract_y
_atom_site_fract_z
_atom_type_partial_charge
O0 O 0.21833 0.08542 0.21565 0.0
Tb1 Tb 0.1938 0.10652 0.17202 0.0
Eu2 Eu 0.19497 0.19547 0.1299 0.0
C3 C 0.24868 0.07485 0.2109 0.0
O4 O 0.26498 0.0816 0.18213 0.0
C5 C 0.22074 0.13621 0.1064 0.0
O6 O 0.14467 0.19918 0.10299 0.0
C7 C 0.23445 0.24033 0.12951 0.0
C8 C 0.12798 0.17509 0.09725 0.0
O9 O 0.14147 0.15076 0.10743 0.0
C10 C 0.15863 0.16242 0.19266 0.0
C11 C 0.25659 0.26007 0.15004 0.0
C12 C 0.29004 0.25252 0.15939 0.0
C13 C 0.31136 0.27272 0.17595 0.0
C14 C 0.29933 0.30054 0.18211 0.0
C15 C 0.26691 0.30878 0.17186 0.0
C16 C 0.24542 0.28834 0.15649 0.0
O17 O 0.22365 0.13555 0.14064 0.0
O18 O 0.21234 0.16092 0.09238 0.0
O19 O 0.19142 0.0645 0.14628 0.0
O20 O 0.15004 0.09299 0.14171 0.0
C21 C 0.16164 0.06797 0.13286 0.0
O22 O 0.18755 0.17371 0.18221 0.0
O23 O 0.15693 0.13435 0.19701 0.0
O24 O 0.20156 0.24192 0.13417 0.0
O25 O 0.24504 0.21403 0.12327 0.0
H26 H 0.29959 0.23124 0.15365 0.0
H27 H 0.31585 0.31631 0.19419 0.0
H28 H 0.22052 0.29489 0.14803 0.0
O29 O 0.22236 0.91479 0.79803 0.0
Tb30 Tb 0.20388 0.88234 0.83439 0.0
Eu31 Eu 0.21536 0.81321 0.87598 0.0
C32 C 0.24411 0.93388 0.80989 0.0
O33 O 0.25593 0.93057 0.84169 0.0
C34 C 0.23482 0.87359 0.9042 0.0
O35 O 0.18597 0.77775 0.90163 0.0
C36 C 0.27241 0.79433 0.85204 0.0
C37 C 0.18077 0.77764 0.93554 0.0
O38 O 0.19736 0.79601 0.95523 0.0
C39 C 0.16752 0.82664 0.8074 0.0
C40 C 0.286 0.76899 0.83348 0.0
C41 C 0.31778 0.7708 0.81698 0.0
C42 C 0.33263 0.7462 0.80194 0.0
C43 C 0.31541 0.71989 0.80419 0.0
C44 C 0.28392 0.71778 0.82043 0.0
C45 C 0.26892 0.74239 0.83471 0.0
O46 O 0.24426 0.87556 0.87141 0.0
O47 O 0.21754 0.85074 0.91306 0.0
O48 O 0.17663 0.91956 0.85387 0.0
O49 O 0.15796 0.8779 0.86605 0.0
C50 C 0.15331 0.90534 0.87024 0.0
O51 O 0.17245 0.8132 0.83735 0.0
O52 O 0.18473 0.84984 0.79807 0.0
O53 O 0.26161 0.78959 0.88413 0.0
O54 O 0.25298 0.81197 0.83415 0.0
H55 H 0.33103 0.7912 0.8163 0.0
H56 H 0.32701 0.70046 0.79419 0.0
H57 H 0.24478 0.74063 0.84786 0.0
O58 O 0.80279 0.91571 0.21267 0.0
Tb59 Tb 0.82464 0.88269 0.1796 0.0
Eu60 Eu 0.81225 0.82374 0.12585 0.0
C61 C 0.79491 0.94002 0.19721 0.0
O62 O 0.80148 0.94284 0.16373 0.0
C63 C 0.79172 0.88655 0.1097 0.0
O64 O 0.8453 0.79714 0.09062 0.0
C65 C 0.75291 0.80197 0.13758 0.0
C66 C 0.87787 0.80203 0.09318 0.0
O67 O 0.88845 0.82272 0.11386 0.0
C68 C 0.85239 0.8232 0.20159 0.0
C69 C 0.73636 0.77748 0.15526 0.0
C70 C 0.70293 0.78039 0.16746 0.0
C71 C 0.68679 0.75743 0.18472 0.0
C72 C 0.70423 0.7316 0.18913 0.0
C73 C 0.73705 0.72819 0.17647 0.0
C74 C 0.75328 0.75114 0.15963 0.0
O75 O 0.78325 0.88497 0.14273 0.0
O76 O 0.81067 0.86602 0.09707 0.0
O77 O 0.8653 0.9142 0.17779 0.0
O78 O 0.86501 0.88044 0.14031 0.0
C79 C 0.88081 0.90338 0.15092 0.0
O80 O 0.8489 0.81352 0.16937 0.0
O81 O 0.83649 0.84628 0.21294 0.0
O82 O 0.77097 0.79604 0.10956 0.0
O83 O 0.7668 0.8216 0.15789 0.0
H84 H 0.68966 0.8005 0.16378 0.0
H85 H 0.69182 0.71356 0.2017 0.0
H86 H 0.77877 0.74849 0.14996 0.0
O87 O 0.81178 0.07491 0.80303 0.0
Tb88 Tb 0.83535 0.10087 0.8436 0.0
Eu89 Eu 0.81333 0.19755 0.86014 0.0
C90 C 0.78126 0.06439 0.80761 0.0
O91 O 0.76377 0.07263 0.83499 0.0
C92 C 0.80589 0.13953 0.90077 0.0
O93 O 0.84758 0.23591 0.8544 0.0
C94 C 0.75252 0.21364 0.84446 0.0
C95 C 0.87156 0.24457 0.87563 0.0
O96 O 0.88697 0.26888 0.86831 0.0
C97 C 0.86333 0.15553 0.81535 0.0
C98 C 0.7339 0.23877 0.83129 0.0
C99 C 0.69978 0.23538 0.82207 0.0
C100 C 0.68132 0.25883 0.80941 0.0
C101 C 0.69682 0.28578 0.80693 0.0
C102 C 0.73058 0.28974 0.81665 0.0
C103 C 0.74938 0.26599 0.8283 0.0
O104 O 0.80141 0.13159 0.86808 0.0
O105 O 0.81106 0.16717 0.90709 0.0
O106 O 0.84608 0.0599 0.86971 0.0
O107 O 0.87591 0.09636 0.88186 0.0
C108 C 0.87112 0.06929 0.88846 0.0
O109 O 0.83239 0.16253 0.82444 0.0
O110 O 0.86978 0.12786 0.81409 0.0
O111 O 0.76542 0.21595 0.87604 0.0
O112 O 0.77255 0.20055 0.82218 0.0
H113 H 0.68775 0.2145 0.82433 0.0
H114 H 0.68236 0.3039 0.79731 0.0
H115 H 0.7756 0.26875 0.83559 0.0
O116 O 0.71522 0.58505 0.68796 0.0
Tb117 Tb 0.6975 0.61631 0.64998 0.0
Eu118 Eu 0.71299 0.69274 0.61667 0.0
C119 C 0.74164 0.56905 0.68087 0.0
O120 O 0.75857 0.57396 0.65191 0.0
C121 C 0.73407 0.63369 0.58556 0.0
O122 O 0.68018 0.72563 0.59028 0.0
C123 C 0.77069 0.71449 0.63567 0.0
C124 C 0.66319 0.74474 0.60855 0.0
O125 O 0.66944 0.74764 0.64212 0.0
C126 C 0.66216 0.67183 0.68241 0.0
C127 C 0.78692 0.7393 0.6532 0.0
C128 C 0.82168 0.73802 0.66108 0.0
C129 C 0.83902 0.76272 0.67258 0.0
C130 C 0.82116 0.78836 0.67689 0.0
C131 C 0.78666 0.79009 0.66932 0.0
C132 C 0.7694 0.76537 0.65786 0.0
O133 O 0.7403 0.62909 0.61865 0.0
O134 O 0.71703 0.65676 0.57754 0.0
O135 O 0.67393 0.57815 0.62709 0.0
O136 O 0.65171 0.61887 0.61799 0.0
C137 C 0.649 0.59138 0.61213 0.0
O138 O 0.67236 0.69008 0.6581 0.0
O139 O 0.67403 0.64556 0.68712 0.0
O140 O 0.75596 0.72003 0.6056 0.0
O141 O 0.75403 0.6957 0.65493 0.0
H142 H 0.83549 0.71827 0.6567 0.0
H143 H 0.8344 0.80734 0.68616 0.0
H144 H 0.74292 0.76672 0.65112 0.0
O145 O 0.69982 0.42004 0.26803 0.0
Tb146 Tb 0.67899 0.38424 0.29743 0.0
Eu147 Eu 0.70062 0.31948 0.34437 0.0
C148 C 0.70319 0.4442 0.28561 0.0
O149 O 0.69281 0.44487 0.31824 0.0
C150 C 0.71987 0.38297 0.36417 0.0
O151 O 0.66596 0.29506 0.38066 0.0
C152 C 0.75906 0.2967 0.33038 0.0
C153 C 0.63539 0.30593 0.38242 0.0
O154 O 0.6292 0.32949 0.36466 0.0
C155 C 0.65253 0.32367 0.27389 0.0
C156 C 0.77559 0.2721 0.31265 0.0
C157 C 0.80856 0.27497 0.29861 0.0
C158 C 0.82493 0.25119 0.28301 0.0
C159 C 0.80794 0.22467 0.28229 0.0
C160 C 0.77567 0.22154 0.29655 0.0
C161 C 0.75943 0.24518 0.31151 0.0
O162 O 0.72363 0.38586 0.33028 0.0
O163 O 0.7047 0.35998 0.37616 0.0
O164 O 0.63405 0.4109 0.29637 0.0
O165 O 0.64502 0.38752 0.34276 0.0
C166 C 0.62422 0.40552 0.32815 0.0
O167 O 0.66061 0.31096 0.30353 0.0
O168 O 0.66652 0.34802 0.26352 0.0
O169 O 0.74133 0.29076 0.3587 0.0
O170 O 0.74497 0.31646 0.31047 0.0
H171 H 0.82137 0.29556 0.29992 0.0
H172 H 0.82037 0.20584 0.27169 0.0
H173 H 0.73451 0.24248 0.32273 0.0
O174 O 0.29936 0.41844 0.71494 0.0
Tb175 Tb 0.31599 0.39097 0.67222 0.0
Eu176 Eu 0.29843 0.31715 0.62913 0.0
C177 C 0.26959 0.43084 0.71416 0.0
O178 O 0.24785 0.42305 0.69004 0.0
C179 C 0.27558 0.37823 0.60769 0.0
O180 O 0.32949 0.2859 0.59776 0.0
C181 C 0.24395 0.29465 0.65533 0.0
C182 C 0.33546 0.29117 0.56456 0.0
O183 O 0.31878 0.31198 0.54917 0.0
C184 C 0.35428 0.33379 0.69156 0.0
C185 C 0.22861 0.27021 0.67431 0.0
C186 C 0.19508 0.27272 0.68632 0.0
C187 C 0.17783 0.24868 0.69987 0.0
C188 C 0.19479 0.22237 0.70205 0.0
C189 C 0.22815 0.21959 0.69059 0.0
C190 C 0.24522 0.24356 0.67685 0.0
O191 O 0.27226 0.3795 0.64175 0.0
O192 O 0.28848 0.35488 0.59431 0.0
O193 O 0.33597 0.43237 0.65497 0.0
O194 O 0.35939 0.39443 0.63639 0.0
C195 C 0.35993 0.42245 0.6353 0.0
O196 O 0.34471 0.31932 0.66349 0.0
O197 O 0.33973 0.35741 0.70341 0.0
O198 O 0.25496 0.2893 0.62348 0.0
O199 O 0.26297 0.31301 0.67282 0.0
H200 H 0.18194 0.293 0.68361 0.0
H201 H 0.1819 0.20372 0.71273 0.0
H202 H 0.27074 0.24126 0.66714 0.0
O203 O 0.30112 0.60177 0.29315 0.0
Tb204 Tb 0.32167 0.62723 0.33581 0.0
Eu205 Eu 0.31022 0.69891 0.38429 0.0
C206 C 0.26973 0.5926 0.29411 0.0
O207 O 0.24959 0.60231 0.31869 0.0
C208 C 0.28833 0.63783 0.40432 0.0
O209 O 0.34206 0.72824 0.4178 0.0
C210 C 0.2524 0.72063 0.36632 0.0
C211 C 0.37396 0.72109 0.421 0.0
O212 O 0.38458 0.69753 0.40563 0.0
C213 C 0.36016 0.68501 0.31506 0.0
C214 C 0.23507 0.74521 0.34991 0.0
C215 C 0.20032 0.74301 0.34247 0.0
C216 C 0.18197 0.76732 0.33175 0.0
C217 C 0.1989 0.79362 0.32805 0.0
C218 C 0.23356 0.79601 0.3347 0.0
C219 C 0.25172 0.77168 0.34537 0.0
O220 O 0.28143 0.63873 0.37086 0.0
O221 O 0.30436 0.65978 0.41759 0.0
O222 O 0.36874 0.62127 0.36534 0.0
O223 O 0.33781 0.58512 0.3543 0.0
C224 C 0.36533 0.59362 0.36946 0.0
O225 O 0.3516 0.69967 0.34338 0.0
O226 O 0.3461 0.66063 0.30454 0.0
O227 O 0.26732 0.72581 0.39641 0.0
O228 O 0.26933 0.7028 0.3461 0.0
H229 H 0.18731 0.72273 0.34637 0.0
H230 H 0.18505 0.81241 0.31946 0.0
H231 H 0.27833 0.7736 0.3514 0.0
H232 H 0.30251 0.03986 0.19856 0.0
H233 H 0.31425 0.99371 0.22627 0.0
H234 H 0.23311 0.00775 0.29931 0.0
H235 H 0.2208 0.05395 0.27145 0.0
H236 H 0.29247 0.9789 0.32844 0.0
H237 H 0.21133 0.97092 0.23432 0.0
H238 H 0.19059 0.97937 0.17454 0.0
H239 H 0.2774 0.93668 0.13226 0.0
H240 H 0.2986 0.92784 0.19211 0.0
H241 H 0.21594 0.84568 0.36679 0.0
H242 H 0.23487 0.89421 0.35218 0.0
H243 H 0.30587 0.85926 0.27803 0.0
H244 H 0.28683 0.81036 0.2928 0.0
H245 H 0.26325 0.89832 0.2487 0.0
H246 H 0.3351 0.89573 0.34781 0.0
H247 H 0.35117 0.88684 0.40913 0.0
H248 H 0.279 0.94931 0.44376 0.0
H249 H 0.26211 0.9583 0.38267 0.0
C250 C 0.28765 0.03356 0.22108 0.0
C251 C 0.2604 0.05044 0.23252 0.0
C252 C 0.29443 0.00713 0.23685 0.0
C253 C 0.27434 0.99726 0.26456 0.0
C254 C 0.24892 0.01507 0.27795 0.0
C255 C 0.24186 0.04141 0.26193 0.0
C256 C 0.27694 0.96706 0.27646 0.0
C257 C 0.28611 0.9612 0.31115 0.0
C258 C 0.2693 0.94406 0.25356 0.0
C259 C 0.25676 0.94911 0.21758 0.0
C260 C 0.22612 0.96353 0.21226 0.0
C261 C 0.21426 0.96835 0.17837 0.0
C262 C 0.23283 0.95885 0.14955 0.0
C263 C 0.26313 0.94416 0.15462 0.0
C264 C 0.27504 0.93916 0.18853 0.0
C265 C 0.23622 0.84836 0.34806 0.0
C266 C 0.24991 0.82443 0.33079 0.0
C267 C 0.24715 0.87607 0.33985 0.0
C268 C 0.27191 0.88037 0.31412 0.0
C269 C 0.28686 0.85637 0.29809 0.0
C270 C 0.27612 0.82853 0.3066 0.0
C271 C 0.27847 0.90987 0.30101 0.0
C272 C 0.2707 0.91576 0.26593 0.0
C273 C 0.2871 0.9328 0.32374 0.0
C274 C 0.29721 0.92758 0.36059 0.0
C275 C 0.32247 0.90743 0.3685 0.0
C276 C 0.33176 0.9024 0.40323 0.0
C277 C 0.31608 0.91747 0.43033 0.0
C278 C 0.29112 0.93765 0.42274 0.0
C279 C 0.28173 0.94276 0.38805 0.0
H280 H 0.32331 0.91355 0.4572 0.0
H281 H 0.22372 0.96282 0.12333 0.0
H282 H 0.14023 0.85121 0.74795 0.0
H283 H 0.08802 0.8371 0.7181 0.0
H284 H 0.07638 0.76571 0.7891 0.0
H285 H 0.12863 0.77889 0.81801 0.0
H286 H 0.0562 0.74936 0.728 0.0
H287 H 0.03482 0.83149 0.80097 0.0
H288 H 0.04379 0.88097 0.82239 0.0
H289 H 0.01995 0.91422 0.72061 0.0
H290 H 0.01128 0.86488 0.69848 0.0
H291 H 0.87618 0.72946 0.71763 0.0
H292 H 0.93527 0.73705 0.73479 0.0
H293 H 0.94392 0.8053 0.65888 0.0
H294 H 0.885 0.79811 0.64238 0.0
H295 H 0.96664 0.82314 0.71969 0.0
H296 H 0.98395 0.73816 0.6492 0.0
H297 H 0.97397 0.68783 0.63159 0.0
H298 H 1.0036 0.65902 0.73372 0.0
H299 H 0.01335 0.70921 0.75208 0.0
C300 C 0.12689 0.83221 0.75678 0.0
C301 C 0.13865 0.81644 0.78567 0.0
C302 C 0.09684 0.82427 0.73986 0.0
C303 C 0.07773 0.80063 0.75176 0.0
C304 C 0.09042 0.78407 0.77939 0.0
C305 C 0.12043 0.7918 0.79605 0.0
C306 C 0.04375 0.79382 0.73699 0.0
C307 C 0.03658 0.76549 0.72638 0.0
C308 C 0.01801 0.81478 0.7346 0.0
C309 C 0.02275 0.84448 0.74797 0.0
C310 C 0.03168 0.84935 0.78311 0.0
C311 C 0.0367 0.87737 0.79539 0.0
C312 C 0.03254 0.90072 0.77285 0.0
C313 C 0.02322 0.89611 0.73803 0.0
C314 C 0.01823 0.86812 0.72561 0.0
C315 C 0.89104 0.74556 0.7041 0.0
C316 C 0.87606 0.76318 0.67869 0.0
C317 C 0.92479 0.74997 0.71393 0.0
C318 C 0.94425 0.77181 0.69814 0.0
C319 C 0.92955 0.78847 0.67165 0.0
C320 C 0.89591 0.78424 0.66208 0.0
C321 C 0.9791 0.77869 0.7105 0.0
C322 C 0.98636 0.80706 0.72091 0.0
C323 C 1.00469 0.75765 0.71323 0.0
C324 C 0.99911 0.72746 0.70208 0.0
C325 C 0.98813 0.7211 0.66796 0.0
C326 C 0.98255 0.6926 0.65784 0.0
C327 C 0.98808 0.67024 0.68154 0.0
C328 C 0.9993 0.67635 0.71539 0.0
C329 C 1.0049 0.70482 0.72565 0.0
H330 H 0.98372 0.64819 0.67366 0.0
H331 H 0.03647 0.92239 0.78239 0.0
H332 H 0.74611 0.19329 0.24274 0.0
H333 H 0.73487 0.14155 0.23951 0.0
H334 H 0.76332 0.13257 0.34791 0.0
H335 H 0.77424 0.18453 0.35113 0.0
H336 H 0.80137 0.09972 0.30291 0.0
H337 H 0.68493 0.11509 0.32531 0.0
H338 H 0.6294 0.13804 0.31853 0.0
H339 H 0.62518 0.1104 0.21141 0.0
H340 H 0.68093 0.08763 0.21736 0.0
H341 H 0.79614 0.95003 0.26799 0.0
H342 H 0.77938 0.9945 0.29797 0.0
H343 H 0.74578 0.02984 0.19969 0.0
H344 H 0.76208 0.98572 0.16988 0.0
H345 H 0.70427 0.04576 0.25377 0.0
H346 H 0.82326 0.04319 0.22606 0.0
H347 H 0.88045 0.02263 0.22772 0.0
H348 H 0.88105 0.02894 0.33982 0.0
H349 H 0.82359 0.04919 0.33883 0.0
C350 C 0.74856 0.18036 0.26617 0.0
C351 C 0.76056 0.19264 0.29727 0.0
C352 C 0.74218 0.15087 0.26437 0.0
C353 C 0.74811 0.13325 0.29355 0.0
C354 C 0.75834 0.14584 0.32522 0.0
C355 C 0.76437 0.17543 0.32711 0.0
C356 C 0.74876 0.10163 0.28907 0.0
C357 C 0.77982 0.08769 0.29325 0.0
C358 C 0.72092 0.08622 0.27548 0.0
C359 C 0.68724 0.09973 0.27177 0.0
C360 C 0.67229 0.11406 0.30023 0.0
C361 C 0.64074 0.12701 0.29654 0.0
C362 C 0.62379 0.1257 0.26455 0.0
C363 C 0.63833 0.11138 0.23619 0.0
C364 C 0.66989 0.0984 0.23973 0.0
C365 C 0.78454 0.96709 0.25301 0.0
C366 C 0.78088 0.96466 0.21658 0.0
C367 C 0.77501 0.99243 0.2701 0.0
C368 C 0.76159 0.01551 0.25096 0.0
C369 C 0.75599 0.01229 0.21497 0.0
C370 C 0.76565 0.98716 0.19793 0.0
C371 C 0.75696 0.04418 0.26708 0.0
C372 C 0.72538 0.05758 0.26473 0.0
C373 C 0.78445 0.05938 0.28177 0.0
C374 C 0.81899 0.04731 0.28242 0.0
C375 C 0.83548 0.03996 0.25108 0.0
C376 C 0.86795 0.0284 0.25189 0.0
C377 C 0.88433 0.02438 0.28386 0.0
C378 C 0.86829 0.03199 0.31509 0.0
C379 C 0.83578 0.0435 0.31443 0.0
H380 H 0.90948 0.01544 0.28444 0.0
H381 H 0.59938 0.13576 0.26175 0.0
H382 H 0.92852 0.14672 0.83242 0.0
H383 H 0.97705 0.17626 0.81762 0.0
H384 H 0.91124 0.24078 0.77432 0.0
H385 H 0.86205 0.2105 0.78865 0.0
H386 H 0.95893 0.22849 0.7292 0.0
H387 H 0.96322 0.25815 0.84827 0.0
H388 H 0.96211 0.25411 0.91253 0.0
H389 H 0.04464 0.19475 0.90915 0.0
H390 H 0.04695 0.19908 0.84491 0.0
H391 H 0.14669 0.28759 0.74344 0.0
H392 H 0.08846 0.28542 0.76572 0.0
H393 H 0.07009 0.20979 0.70313 0.0
H394 H 0.12756 0.2121 0.68071 0.0
H395 H 0.05949 0.24359 0.80418 0.0
H396 H 0.99013 0.2056 0.67769 0.0
H397 H 0.99225 0.21492 0.61423 0.0
H398 H 0.03681 0.2977 0.63321 0.0
H399 H 0.03452 0.28908 0.6968 0.0
C400 C 0.92425 0.16744 0.82032 0.0
C401 C 0.89148 0.1763 0.81163 0.0
C402 C 0.95211 0.18453 0.81216 0.0
C403 C 0.94802 0.21102 0.79513 0.0
C404 C 0.91511 0.22051 0.78762 0.0
C405 C 0.88701 0.20332 0.79598 0.0
C406 C 0.97839 0.22656 0.78174 0.0
C407 C 0.98074 0.2322 0.74571 0.0
C408 C 0.00679 0.23207 0.80322 0.0
C409 C 0.00516 0.22887 0.84178 0.0
C410 C 0.981 0.2441 0.86123 0.0
C411 C 0.98017 0.24177 0.89768 0.0
C412 C 1.00299 0.22391 0.91496 0.0
C413 C 0.0269 0.20851 0.8958 0.0
C414 C 0.02818 0.21109 0.85938 0.0
C415 C 0.12991 0.2709 0.73397 0.0
C416 C 0.14171 0.24996 0.71044 0.0
C417 C 0.09676 0.26955 0.74687 0.0
C418 C 0.07471 0.24755 0.73596 0.0
C419 C 0.0863 0.22723 0.71161 0.0
C420 C 0.11929 0.22845 0.69898 0.0
C421 C 0.04039 0.24422 0.75146 0.0
C422 C 0.03742 0.24066 0.78781 0.0
C423 C 0.01128 0.2411 0.73032 0.0
C424 C 0.01229 0.24661 0.69207 0.0
C425 C 1.00017 0.22588 0.66836 0.0
C426 C 1.00146 0.23102 0.63235 0.0
C427 C 0.01471 0.25686 0.61969 0.0
C428 C 0.02663 0.27765 0.64304 0.0
C429 C 0.02539 0.27264 0.67907 0.0
H430 H 0.0157 0.26079 0.5918 0.0
H431 H 1.00229 0.22218 0.94319 0.0
H432 H 0.22038 0.95096 0.74548 0.0
H433 H 0.22676 0.99859 0.71852 0.0
H434 H 0.28919 0.02581 0.80477 0.0
H435 H 0.28328 0.97858 0.83159 0.0
H436 H 0.23502 0.06211 0.79217 0.0
H437 H 0.32421 0.01612 0.72751 0.0
H438 H 0.34873 0.97906 0.6891 0.0
H439 H 0.27994 1.00229 0.60724 0.0
H440 H 0.25466 0.03924 0.64537 0.0
H441 H 0.27465 0.20091 0.73747 0.0
H442 H 0.28705 0.15049 0.75135 0.0
H443 H 0.2265 0.12313 0.66366 0.0
H444 H 0.21411 0.17347 0.64992 0.0
H445 H 0.28142 0.08653 0.67525 0.0
H446 H 0.18951 0.12849 0.73762 0.0
H447 H 0.16127 0.16499 0.77397 0.0
H448 H 0.22989 0.14792 0.85816 0.0
H449 H 0.2589 0.11153 0.82212 0.0
C450 C 0.23596 0.96693 0.75834 0.0
C451 C 0.25117 0.96098 0.79077 0.0
C452 C 0.23961 0.99412 0.7429 0.0
C453 C 0.25841 0.01574 0.75971 0.0
C454 C 0.27452 0.00947 0.7914 0.0
C455 C 0.27113 0.98237 0.80665 0.0
C456 C 0.25928 0.04557 0.74594 0.0
C457 C 0.24571 0.06748 0.76686 0.0
C458 C 0.27212 0.05242 0.7124 0.0
C459 C 0.28731 0.03025 0.68944 0.0
C460 C 0.31409 0.01315 0.70144 0.0
C461 C 0.32818 0.99221 0.67969 0.0
C462 C 0.31584 0.98827 0.64578 0.0
C463 C 0.28944 0.00534 0.63353 0.0
C464 C 0.27525 0.0263 0.65519 0.0
C465 C 0.26523 0.18412 0.7204 0.0
C466 C 0.2437 0.19087 0.69254 0.0
C467 C 0.27207 0.15537 0.72843 0.0
C468 C 0.25733 0.13307 0.70876 0.0
C469 C 0.23819 0.13996 0.67909 0.0
C470 C 0.23119 0.16866 0.67122 0.0
C471 C 0.25781 0.10302 0.72184 0.0
C472 C 0.27117 0.08111 0.70073 0.0
C473 C 0.24423 0.09595 0.75501 0.0
C474 C 0.22667 0.11756 0.777 0.0
C475 C 0.19877 0.13267 0.76379 0.0
C476 C 0.18257 0.15329 0.78437 0.0
C477 C 0.19381 0.15878 0.81836 0.0
C478 C 0.22122 0.1436 0.83186 0.0
C479 C 0.23756 0.12298 0.81136 0.0
H480 H 0.18124 0.17475 0.83427 0.0
H481 H 0.32678 0.97205 0.62898 0.0
H482 H 0.13337 0.80206 0.35885 0.0
H483 H 0.07404 0.80492 0.34182 0.0
H484 H 0.08784 0.73363 0.27111 0.0
H485 H 0.14749 0.73063 0.28832 0.0
H486 H 0.05803 0.78139 0.23995 0.0
H487 H 0.0413 0.72432 0.34281 0.0
H488 H 0.04734 0.71198 0.4052 0.0
H489 H 0.99791 0.79047 0.43415 0.0
H490 H 0.992 0.8035 0.37191 0.0
H491 H 0.88832 0.77443 0.18767 0.0
H492 H 0.94092 0.75924 0.2147 0.0
H493 H 0.93256 0.82761 0.29039 0.0
H494 H 0.87966 0.84314 0.26339 0.0
H495 H 0.95923 0.77869 0.31948 0.0
H496 H 0.97278 0.83486 0.21716 0.0
H497 H 0.97064 0.85051 0.15579 0.0
H498 H 0.02989 0.77761 0.12527 0.0
H499 H 0.03092 0.76063 0.18622 0.0
C500 C 0.12361 0.78669 0.34008 0.0
C501 C 0.14505 0.76613 0.32487 0.0
C502 C 0.08966 0.78829 0.33045 0.0
C503 C 0.07637 0.76945 0.30524 0.0
C504 C 0.09751 0.74835 0.29067 0.0
C505 C 0.13149 0.74651 0.30066 0.0
C506 C 0.04117 0.77327 0.29242 0.0
C507 C 0.03624 0.78008 0.25705 0.0
C508 C 0.01303 0.7728 0.31521 0.0
C509 C 0.01647 0.765 0.35267 0.0
C510 C 0.03197 0.73907 0.36248 0.0
C511 C 0.03532 0.73193 0.39782 0.0
C512 C 0.02309 0.75046 0.42363 0.0
C513 C 0.0074 0.77615 0.41413 0.0
C514 C 1.00401 0.78341 0.37882 0.0
C515 C 0.89714 0.78596 0.21054 0.0
C516 C 0.87976 0.81029 0.22307 0.0
C517 C 0.9274 0.77724 0.22591 0.0
C518 C 0.9411 0.79261 0.25413 0.0
C519 C 0.92256 0.81549 0.2685 0.0
C520 C 0.89223 0.82432 0.25305 0.0
C521 C 0.97589 0.78634 0.26667 0.0
C522 C 0.98083 0.77943 0.30207 0.0
C523 C 1.00415 0.78695 0.24381 0.0
C524 C 1.0016 0.79623 0.20654 0.0
C525 C 0.98472 0.82173 0.19738 0.0
C526 C 0.98372 0.8309 0.16256 0.0
C527 C 1.00006 0.81505 0.1366 0.0
C528 C 0.01708 0.78983 0.14536 0.0
C529 C 0.01771 0.78033 0.18005 0.0
H530 H 0.99948 0.8223 0.1097 0.0
H531 H 0.0257 0.74488 0.45098 0.0
H532 H 0.81019 0.04231 0.74834 0.0
H533 H 0.79496 0.99781 0.71808 0.0
H534 H 0.71048 0.98634 0.78778 0.0
H535 H 0.72547 0.03082 0.81819 0.0
H536 H 0.75131 0.93934 0.78559 0.0
H537 H 0.69611 0.99955 0.70269 0.0
H538 H 0.69056 0.04028 0.66189 0.0
H539 H 0.77108 0.00666 0.59905 0.0
H540 H 0.77746 0.96593 0.63974 0.0
H541 H 0.72968 0.80387 0.70647 0.0
H542 H 0.71154 0.85256 0.72291 0.0
H543 H 0.78975 0.88859 0.65761 0.0
H544 H 0.80695 0.84039 0.64043 0.0
H545 H 0.73834 0.92366 0.65792 0.0
H546 H 0.80273 0.87215 0.74564 0.0
H547 H 0.81342 0.83229 0.78667 0.0
H548 H 0.72093 0.85082 0.8405 0.0
H549 H 0.70951 0.89058 0.79944 0.0
C550 C 0.78796 0.03065 0.7568 0.0
C551 C 0.76918 0.04007 0.78581 0.0
C552 C 0.77919 0.00525 0.73937 0.0
C553 C 0.75149 0.98877 0.75059 0.0
C554 C 0.7319 0.99874 0.77864 0.0
C555 C 0.74049 0.02423 0.79593 0.0
C556 C 0.74532 0.9598 0.73545 0.0
C557 C 0.74756 0.93594 0.75777 0.0
C558 C 0.74122 0.95533 0.69908 0.0
C559 C 0.73738 0.97975 0.67442 0.0
C560 C 0.7128 1.00094 0.68031 0.0
C561 C 0.70947 0.02402 0.65717 0.0
C562 C 0.73048 0.02608 0.62792 0.0
C563 C 0.75482 0.00504 0.62172 0.0
C564 C 0.75826 0.98192 0.64478 0.0
C565 C 0.74211 0.82227 0.69476 0.0
C566 C 0.77004 0.81847 0.67268 0.0
C567 C 0.73196 0.85005 0.70436 0.0
C568 C 0.74985 0.87427 0.6922 0.0
C569 C 0.77564 0.87036 0.66755 0.0
C570 C 0.78559 0.84277 0.65788 0.0
C571 C 0.74511 0.90325 0.70799 0.0
C572 C 0.74105 0.92711 0.68585 0.0
C573 C 0.74817 0.90783 0.74451 0.0
C574 C 0.75505 0.88404 0.76924 0.0
C575 C 0.78458 0.86758 0.76609 0.0
C576 C 0.79077 0.84503 0.78935 0.0
C577 C 0.76781 0.83897 0.8161 0.0
C578 C 0.73865 0.8555 0.8197 0.0
C579 C 0.73229 0.87803 0.79645 0.0
H580 H 0.77266 0.82151 0.8341 0.0
H581 H 0.72787 0.04397 0.61004 0.0
H582 H 0.88187 0.27618 0.31199 0.0
H583 H 0.94077 0.26885 0.29357 0.0
H584 H 0.90648 0.22021 0.20439 0.0
H585 H 0.84808 0.22814 0.22184 0.0
H586 H 0.95233 0.19053 0.25074 0.0
H587 H 0.94098 0.28073 0.18883 0.0
H588 H 0.92965 0.3327 0.18455 0.0
H589 H 0.01032 0.35023 0.25639 0.0
H590 H 0.02181 0.29829 0.26149 0.0
H591 H 0.09772 0.14799 0.16568 0.0
H592 H 0.04341 0.17063 0.17661 0.0
H593 H 0.09234 0.23554 0.23953 0.0
H594 H 0.14746 0.21402 0.22591 0.0
H595 H 0.04041 0.2592 0.21144 0.0
H596 H 0.053 0.1719 0.27529 0.0
H597 H 0.06492 0.12043 0.28436 0.0
H598 H 0.98258 0.09777 0.21679 0.0
H599 H 0.97045 0.14912 0.20694 0.0
C600 C 0.88688 0.26472 0.28787 0.0
C601 C 0.86014 0.25244 0.26869 0.0
C602 C 0.92059 0.26039 0.27747 0.0
C603 C 0.92813 0.24366 0.24777 0.0
C604 C 0.9014 0.23295 0.22754 0.0
C605 C 0.86795 0.2375 0.23764 0.0
C606 C 0.96342 0.23479 0.23929 0.0
C607 C 0.97148 0.20552 0.2418 0.0
C608 C 0.98887 0.25443 0.22896 0.0
C609 C 0.98198 0.28561 0.22587 0.0
C610 C 0.95607 0.29564 0.204 0.0
C611 C 0.94968 0.3251 0.20135 0.0
C612 C 0.96918 0.34475 0.22027 0.0
C613 C 0.99519 0.33498 0.2418 0.0
C614 C 1.00167 0.30554 0.24456 0.0
C615 C 0.09703 0.16753 0.18112 0.0
C616 C 0.12688 0.17921 0.19497 0.0
C617 C 0.06581 0.1803 0.1878 0.0
C618 C 0.06325 0.20423 0.2102 0.0
C619 C 0.09331 0.21693 0.22252 0.0
C620 C 0.12488 0.20466 0.2147 0.0
C621 C 0.02922 0.21465 0.22206 0.0
C622 C 0.02138 0.24415 0.22047 0.0
C623 C 1.00397 0.19529 0.23407 0.0
C624 C 0.01099 0.16436 0.24017 0.0
C625 C 0.03755 0.15594 0.26223 0.0
C626 C 0.04434 0.12679 0.26751 0.0
C627 C 0.02457 0.10585 0.2511 0.0
C628 C 0.9979 0.11401 0.22945 0.0
C629 C 0.99103 0.14314 0.22404 0.0
H630 H 0.02987 0.08329 0.25521 0.0
H631 H 0.9642 0.36754 0.21818 0.0
H632 H 0.79649 0.53398 0.67596 0.0
H633 H 0.80489 0.48752 0.70474 0.0
H634 H 0.71347 0.4998 0.76379 0.0
H635 H 0.70432 0.5459 0.73437 0.0
H636 H 0.76919 0.4765 0.80334 0.0
H637 H 0.70625 0.45954 0.69757 0.0
H638 H 0.69289 0.45944 0.63457 0.0
H639 H 0.78536 0.41516 0.6128 0.0
H640 H 0.79937 0.41515 0.67573 0.0
H641 H 0.7061 0.33885 0.84501 0.0
H642 H 0.72097 0.38799 0.829 0.0
H643 H 0.80211 0.35622 0.76455 0.0
H644 H 0.78673 0.30664 0.78028 0.0
H645 H 0.76113 0.38979 0.72814 0.0
H646 H 0.81785 0.39924 0.83693 0.0
H647 H 0.8258 0.39532 0.90071 0.0
H648 H 0.74235 0.45218 0.91789 0.0
H649 H 0.73355 0.45614 0.85422 0.0
C650 C 0.77823 0.52686 0.69518 0.0
C651 C 0.7494 0.54336 0.70234 0.0
C652 C 0.78312 0.50034 0.71163 0.0
C653 C 0.75957 0.49007 0.736 0.0
C654 C 0.73188 0.50731 0.74492 0.0
C655 C 0.72672 0.53367 0.7281 0.0
C656 C 0.76285 0.46074 0.75081 0.0
C657 C 0.76734 0.45748 0.78701 0.0
C658 C 0.76131 0.43601 0.7293 0.0
C659 C 0.75407 0.43769 0.69129 0.0
C660 C 0.72397 0.45014 0.67931 0.0
C661 C 0.71612 0.44986 0.64365 0.0
C662 C 0.73817 0.43715 0.61972 0.0
C663 C 0.76823 0.42487 0.63138 0.0
C664 C 0.77614 0.42502 0.66703 0.0
C665 C 0.72774 0.34241 0.82823 0.0
C666 C 0.74521 0.31901 0.81374 0.0
C667 C 0.73636 0.37054 0.81921 0.0
C668 C 0.76277 0.37592 0.79563 0.0
C669 C 0.78169 0.3526 0.78286 0.0
C670 C 0.77308 0.32433 0.79202 0.0
C671 C 0.76721 0.4053 0.78089 0.0
C672 C 0.76395 0.40869 0.74456 0.0
C673 C 0.76968 0.43006 0.80236 0.0
C674 C 0.77494 0.42786 0.84073 0.0
C675 C 0.80103 0.41076 0.85429 0.0
C676 C 0.80571 0.40855 0.89044 0.0
C677 C 0.78457 0.42346 0.91333 0.0
C678 C 0.75872 0.44065 0.90012 0.0
C679 C 0.75391 0.44292 0.86399 0.0
H680 H 0.78824 0.42172 0.94131 0.0
H681 H 0.73211 0.43705 0.59211 0.0
H682 H 0.36272 0.25448 0.13321 0.0
H683 H 0.42341 0.25693 0.14599 0.0
H684 H 0.40118 0.28146 0.25237 0.0
H685 H 0.34088 0.27925 0.23956 0.0
H686 H 0.44339 0.31865 0.22444 0.0
H687 H 0.43669 0.216 0.23214 0.0
H688 H 0.4234 0.1669 0.21196 0.0
H689 H 0.49066 0.17744 0.12482 0.0
H690 H 0.50401 0.22678 0.14423 0.0
H691 H 0.61906 0.27296 0.28555 0.0
H692 H 0.56369 0.25902 0.26377 0.0
H693 H 0.56234 0.33355 0.19681 0.0
H694 H 0.61767 0.34811 0.2191 0.0
H695 H 0.53252 0.24608 0.20372 0.0
H696 H 0.48126 0.36185 0.19892 0.0
H697 H 0.49396 0.4098 0.22323 0.0
H698 H 0.54109 0.3709 0.31243 0.0
H699 H 0.52785 0.32268 0.28914 0.0
C700 C 0.37086 0.2594 0.15959 0.0
C701 C 0.34706 0.26659 0.18541 0.0
C702 C 0.40558 0.261 0.16686 0.0
C703 C 0.41705 0.26965 0.20013 0.0
C704 C 0.39313 0.27502 0.22643 0.0
C705 C 0.35863 0.2735 0.21918 0.0
C706 C 0.45357 0.27547 0.20704 0.0
C707 C 0.46282 0.30274 0.21977 0.0
C708 C 0.47912 0.2548 0.20121 0.0
C709 C 0.47106 0.2252 0.18942 0.0
C710 C 0.44841 0.20795 0.20849 0.0
C711 C 0.44092 0.18005 0.19723 0.0
C712 C 0.4561 0.16909 0.16707 0.0
C713 C 0.47887 0.18598 0.14814 0.0
C714 C 0.48643 0.2139 0.15928 0.0
C715 C 0.60744 0.28618 0.26563 0.0
C716 C 0.6229 0.31192 0.25443 0.0
C717 C 0.57564 0.27808 0.25312 0.0
C718 C 0.55838 0.29548 0.22913 0.0
C719 C 0.57484 0.31998 0.21578 0.0
C720 C 0.60668 0.32819 0.22838 0.0
C721 C 0.52224 0.28931 0.22082 0.0
C722 C 0.51306 0.26204 0.20797 0.0
C723 C 0.49657 0.30983 0.22706 0.0
C724 C 0.504 0.33865 0.24196 0.0
C725 C 0.49423 0.36352 0.22377 0.0
C726 C 0.50154 0.39073 0.23736 0.0
C727 C 0.51859 0.39336 0.26915 0.0
C728 C 0.52816 0.36879 0.28762 0.0
C729 C 0.52065 0.34151 0.27429 0.0
H730 H 0.52389 0.41446 0.27964 0.0
H731 H 0.45028 0.14748 0.1584 0.0
H732 H 0.30426 0.675 0.86293 0.0
H733 H 0.29265 0.6237 0.85498 0.0
H734 H 0.22014 0.64377 0.77469 0.0
H735 H 0.23179 0.69533 0.78275 0.0
H736 H 0.20436 0.59237 0.81765 0.0
H737 H 0.29331 0.63422 0.74716 0.0
H738 H 0.34491 0.66305 0.73862 0.0
H739 H 0.39935 0.6066 0.80696 0.0
H740 H 0.34788 0.57759 0.81622 0.0
H741 H 0.2178 0.46912 0.70781 0.0
H742 H 0.2127 0.51596 0.73588 0.0
H743 H 0.30177 0.49874 0.79701 0.0
H744 H 0.30766 0.45211 0.76811 0.0
H745 H 0.30767 0.5485 0.7677 0.0
H746 H 0.21991 0.50335 0.83371 0.0
H747 H 0.16802 0.47511 0.84318 0.0
H748 H 0.11116 0.53709 0.78479 0.0
H749 H 0.16281 0.56552 0.77455 0.0
C750 C 0.28475 0.66846 0.84473 0.0
C751 C 0.26871 0.68892 0.82358 0.0
C752 C 0.27827 0.63921 0.84007 0.0
C753 C 0.25586 0.62998 0.81396 0.0
C754 C 0.23743 0.6505 0.79506 0.0
C755 C 0.24397 0.67989 0.79972 0.0
C756 C 0.25599 0.59946 0.80275 0.0
C757 C 0.22678 0.58271 0.80647 0.0
C758 C 0.2855 0.58687 0.78876 0.0
C759 C 0.31666 0.60392 0.78267 0.0
C760 C 0.31623 0.62807 0.76055 0.0
C761 C 0.34545 0.64443 0.75555 0.0
C762 C 0.37536 0.63675 0.77236 0.0
C763 C 0.37614 0.61257 0.79403 0.0
C764 C 0.34696 0.59613 0.79912 0.0
C765 C 0.23596 0.475 0.72774 0.0
C766 C 0.26325 0.45687 0.73559 0.0
C767 C 0.2329 0.50184 0.74393 0.0
C768 C 0.25673 0.51096 0.76879 0.0
C769 C 0.2831 0.49228 0.77787 0.0
C770 C 0.28637 0.46554 0.76141 0.0
C771 C 0.25599 0.54087 0.78275 0.0
C772 C 0.2852 0.55777 0.77926 0.0
C773 C 0.22645 0.55346 0.79695 0.0
C774 C 0.19531 0.53645 0.80312 0.0
C775 C 0.1964 0.51085 0.82266 0.0
C776 C 0.16701 0.49483 0.82821 0.0
C777 C 0.13633 0.50426 0.81453 0.0
C778 C 0.13495 0.52979 0.79535 0.0
C779 C 0.16427 0.54589 0.7897 0.0
H780 H 0.11361 0.49183 0.81885 0.0
H781 H 0.39795 0.6495 0.76852 0.0
H782 H 0.42091 0.69063 0.34475 0.0
H783 H 0.47324 0.70744 0.31849 0.0
H784 H 0.42231 0.7192 0.21977 0.0
H785 H 0.3698 0.70036 0.24596 0.0
H786 H 0.48314 0.6991 0.20847 0.0
H787 H 0.44241 0.77836 0.27759 0.0
H788 H 0.41882 0.79923 0.33167 0.0
H789 H 0.50719 0.77386 0.38844 0.0
H790 H 0.53129 0.75289 0.3348 0.0
H791 H 0.63041 0.77315 0.14804 0.0
H792 H 0.57137 0.76705 0.16639 0.0
H793 H 0.60463 0.73814 0.26782 0.0
H794 H 0.66332 0.74414 0.24962 0.0
H795 H 0.54864 0.77358 0.27228 0.0
H796 H 0.58518 0.68959 0.20854 0.0
H797 H 0.60906 0.66422 0.15754 0.0
H798 H 0.5289 0.69601 0.09292 0.0
H799 H 0.50486 0.7219 0.14351 0.0
C800 C 0.42086 0.69682 0.31743 0.0
C801 C 0.39131 0.69464 0.29746 0.0
C802 C 0.45077 0.70665 0.30245 0.0
C803 C 0.45163 0.71571 0.26741 0.0
C804 C 0.42225 0.71275 0.24699 0.0
C805 C 0.39229 0.70206 0.26188 0.0
C806 C 0.48343 0.72797 0.25259 0.0
C807 C 0.49698 0.71592 0.22196 0.0
C808 C 0.50205 0.74959 0.27042 0.0
C809 C 0.48862 0.76402 0.30216 0.0
C810 C 0.45688 0.77739 0.30158 0.0
C811 C 0.44341 0.78922 0.33218 0.0
C812 C 0.4615 0.78789 0.36348 0.0
C813 C 0.49326 0.77502 0.36418 0.0
C814 C 0.50691 0.76327 0.33365 0.0
C815 C 0.62501 0.76624 0.17452 0.0
C816 C 0.65141 0.75914 0.19742 0.0
C817 C 0.59133 0.76253 0.18489 0.0
C818 C 0.58356 0.7519 0.2184 0.0
C819 C 0.60994 0.74641 0.24189 0.0
C820 C 0.64347 0.74982 0.23145 0.0
C821 C 0.54833 0.74447 0.22849 0.0
C822 C 0.53426 0.75737 0.25829 0.0
C823 C 0.52931 0.72361 0.20999 0.0
C824 C 0.54352 0.70796 0.17963 0.0
C825 C 0.57286 0.69136 0.18336 0.0
C826 C 0.58638 0.67686 0.15457 0.0
C827 C 0.57057 0.67859 0.12198 0.0
C828 C 0.54115 0.69475 0.11816 0.0
C829 C 0.52757 0.70934 0.14688 0.0
H830 H 0.58106 0.66735 0.09971 0.0
H831 H 0.45083 0.79672 0.38722 0.0
H832 H 0.70844 0.45831 0.2159 0.0
H833 H 0.72553 0.50513 0.19164 0.0
H834 H 0.747 0.5359 0.2958 0.0
H835 H 0.72996 0.48964 0.31997 0.0
H836 H 0.70338 0.57059 0.26054 0.0
H837 H 0.8098 0.52356 0.23901 0.0
H838 H 0.8465 0.48598 0.2143 0.0
H839 H 0.81501 0.50876 0.11052 0.0
H840 H 0.77774 0.54624 0.13465 0.0
H841 H 0.76507 0.70635 0.23503 0.0
H842 H 0.77148 0.65513 0.24802 0.0
H843 H 0.74675 0.63433 0.14107 0.0
H844 H 0.74077 0.68575 0.12798 0.0
H845 H 0.79207 0.59381 0.17324 0.0
H846 H 0.68464 0.63809 0.19242 0.0
H847 H 0.64614 0.67534 0.21471 0.0
H848 H 0.67636 0.65646 0.32003 0.0
H849 H 0.71544 0.61928 0.29831 0.0
C850 C 0.71734 0.47496 0.23345 0.0
C851 C 0.71731 0.47057 0.26982 0.0
C852 C 0.72715 0.50163 0.21961 0.0
C853 C 0.73732 0.52403 0.24199 0.0
C854 C 0.73893 0.51902 0.2781 0.0
C855 C 0.72908 0.49259 0.29187 0.0
C856 C 0.74341 0.55351 0.22862 0.0
C857 C 0.72309 0.57565 0.2418 0.0
C858 C 0.76826 0.55996 0.20319 0.0
C859 C 0.7907 0.53749 0.18867 0.0
C860 C 0.81046 0.52038 0.21094 0.0
C861 C 0.83142 0.49914 0.19703 0.0
C862 C 0.83302 0.49493 0.16087 0.0
C863 C 0.81372 0.51201 0.13853 0.0
C864 C 0.79269 0.53328 0.15231 0.0
C865 C 0.76276 0.69088 0.21395 0.0
C866 C 0.75277 0.69977 0.1805 0.0
C867 C 0.76616 0.66166 0.22139 0.0
C868 C 0.75904 0.64098 0.19562 0.0
C869 C 0.75242 0.64997 0.16126 0.0
C870 C 0.74916 0.67928 0.15377 0.0
C871 C 0.7527 0.61077 0.20604 0.0
C872 C 0.77253 0.5886 0.19209 0.0
C873 C 0.72703 0.60405 0.23046 0.0
C874 C 0.70325 0.62613 0.24371 0.0
C875 C 0.68326 0.64201 0.22032 0.0
C876 C 0.66125 0.66305 0.23286 0.0
C877 C 0.65885 0.66832 0.26875 0.0
C878 C 0.6783 0.65241 0.29221 0.0
C879 C 0.70036 0.63131 0.27982 0.0
H880 H 0.64187 0.6847 0.27837 0.0
H881 H 0.84926 0.47847 0.15015 0.0
H882 H 0.41226 0.32218 0.65838 0.0
H883 H 0.46471 0.30436 0.68306 0.0
H884 H 0.41983 0.30413 0.78603 0.0
H885 H 0.36753 0.3241 0.76127 0.0
H886 H 0.48186 0.3208 0.79111 0.0
H887 H 0.43086 0.23979 0.73409 0.0
H888 H 0.40281 0.21508 0.6849 0.0
H889 H 0.48997 0.22893 0.62036 0.0
H890 H 0.51845 0.25393 0.66906 0.0
H891 H 0.62715 0.24542 0.85037 0.0
H892 H 0.56734 0.25099 0.83476 0.0
H893 H 0.59599 0.27292 0.72916 0.0
H894 H 0.65549 0.26766 0.74482 0.0
H895 H 0.53777 0.23857 0.73225 0.0
H896 H 0.58443 0.3247 0.78516 0.0
H897 H 0.61276 0.35161 0.8324 0.0
H898 H 0.53335 0.32865 0.9036 0.0
H899 H 0.50485 0.30116 0.85685 0.0
C900 C 0.41363 0.3184 0.68633 0.0
C901 C 0.38587 0.32414 0.70795 0.0
C902 C 0.44353 0.30793 0.7004 0.0
C903 C 0.44595 0.30176 0.73627 0.0
C904 C 0.41846 0.30832 0.7582 0.0
C905 C 0.38866 0.3197 0.74414 0.0
C906 C 0.47745 0.28887 0.75045 0.0
C907 C 0.49359 0.30236 0.77877 0.0
C908 C 0.49322 0.26501 0.7341 0.0
C909 C 0.47676 0.2488 0.70524 0.0
C910 C 0.44406 0.23753 0.70942 0.0
C911 C 0.42807 0.2235 0.68161 0.0
C912 C 0.44459 0.22046 0.64952 0.0
C913 C 0.47723 0.23126 0.64525 0.0
C914 C 0.49335 0.24528 0.67299 0.0
C915 C 0.62047 0.25061 0.82364 0.0
C916 C 0.64568 0.25607 0.79871 0.0
C917 C 0.58643 0.25395 0.8148 0.0
C918 C 0.57729 0.2626 0.78087 0.0
C919 C 0.60247 0.26617 0.75543 0.0
C920 C 0.63639 0.26318 0.76436 0.0
C921 C 0.5421 0.27078 0.77243 0.0
C922 C 0.52544 0.25648 0.74513 0.0
C923 C 0.52583 0.29383 0.78969 0.0
C924 C 0.54275 0.31058 0.81767 0.0
C925 C 0.57317 0.32519 0.81097 0.0
C926 C 0.58923 0.34057 0.83763 0.0
C927 C 0.57491 0.34177 0.87101 0.0
C928 C 0.54445 0.32764 0.87776 0.0
C929 C 0.52833 0.31216 0.85119 0.0
H930 H 0.58737 0.35369 0.89163 0.0
H931 H 0.4321 0.20973 0.62797 0.0
H932 H 0.3056 0.56615 0.24213 0.0
H933 H 0.29241 0.52055 0.21353 0.0
H934 H 0.19753 0.51669 0.2685 0.0
H935 H 0.2106 0.56228 0.29742 0.0
H936 H 0.2335 0.46832 0.27735 0.0
H937 H 0.19869 0.52486 0.18021 0.0
H938 H 0.20303 0.56282 0.13545 0.0
H939 H 0.29068 0.52211 0.09223 0.0
H940 H 0.28718 0.4841 0.13704 0.0
H941 H 0.20874 0.33046 0.20054 0.0
H942 H 0.19645 0.38115 0.21356 0.0
H943 H 0.29066 0.40615 0.1658 0.0
H944 H 0.30255 0.35598 0.15219 0.0
H945 H 0.24281 0.44472 0.15114 0.0
H946 H 0.2845 0.39521 0.2539 0.0
H947 H 0.28341 0.35777 0.29956 0.0
H948 H 0.18557 0.38619 0.33271 0.0
H949 H 0.18593 0.42359 0.28689 0.0
C950 C 0.28159 0.55595 0.24761 0.0
C951 C 0.25927 0.5678 0.27225 0.0
C952 C 0.27401 0.52989 0.2311 0.0
C953 C 0.24392 0.51521 0.23879 0.0
C954 C 0.22088 0.52765 0.26216 0.0
C955 C 0.22838 0.55378 0.27859 0.0
C956 C 0.23835 0.48561 0.22529 0.0
C957 C 0.23463 0.46325 0.24966 0.0
C958 C 0.24057 0.4789 0.18924 0.0
C959 C 0.24277 0.5017 0.16216 0.0
C960 C 0.21904 0.5241 0.16133 0.0
C961 C 0.22133 0.54561 0.13591 0.0
C962 C 0.24714 0.5449 0.11104 0.0
C963 C 0.27069 0.52263 0.11151 0.0
C964 C 0.26854 0.50107 0.13688 0.0
C965 C 0.2264 0.3469 0.19224 0.0
C966 C 0.25683 0.33931 0.17588 0.0
C967 C 0.21948 0.37579 0.19982 0.0
C968 C 0.24289 0.39742 0.1911 0.0
C969 C 0.27226 0.3899 0.17286 0.0
C970 C 0.27916 0.36119 0.16538 0.0
C971 C 0.23867 0.42754 0.20327 0.0
C972 C 0.24074 0.44994 0.17873 0.0
C973 C 0.23527 0.43435 0.2392 0.0
C974 C 0.23504 0.41191 0.26671 0.0
C975 C 0.26264 0.39331 0.27075 0.0
C976 C 0.26218 0.37213 0.29668 0.0
C977 C 0.23439 0.36954 0.31895 0.0
C978 C 0.20704 0.38818 0.31538 0.0
C979 C 0.20735 0.40936 0.28945 0.0
H980 H 0.23408 0.35314 0.33902 0.0
H981 H 0.24886 0.56158 0.09139 0.0
H982 H 0.38965 0.77448 0.82492 0.0
H983 H 0.44773 0.76716 0.80447 0.0
H984 H 0.41165 0.70976 0.72422 0.0
H985 H 0.3537 0.71815 0.74299 0.0
H986 H 0.46503 0.69188 0.78734 0.0
H987 H 0.43706 0.7522 0.68698 0.0
H988 H 0.41883 0.79694 0.65837 0.0
H989 H 0.49903 0.84324 0.70879 0.0
H990 H 0.5175 0.79873 0.7381 0.0
H991 H 0.60722 0.63917 0.69665 0.0
H992 H 0.5527 0.65564 0.71787 0.0
H993 H 0.59392 0.74061 0.73428 0.0
H994 H 0.64794 0.72453 0.71032 0.0
H995 H 0.53826 0.74756 0.7068 0.0
H996 H 0.56996 0.68799 0.80388 0.0
H997 H 0.58934 0.64393 0.83348 0.0
H998 H 0.50369 0.59769 0.79373 0.0
H999 H 0.48403 0.64134 0.76351 0.0
C1000 C 0.39395 0.76115 0.80213 0.0
C1001 C 0.36698 0.7466 0.78593 0.0
C1002 C 0.42716 0.75685 0.79063 0.0
C1003 C 0.43387 0.7379 0.76288 0.0
C1004 C 0.40696 0.72453 0.7456 0.0
C1005 C 0.37387 0.7292 0.75659 0.0
C1006 C 0.46886 0.72923 0.75453 0.0
C1007 C 0.48115 0.70392 0.76964 0.0
C1008 C 0.48992 0.7454 0.73217 0.0
C1009 C 0.47826 0.77224 0.71527 0.0
C1010 C 0.45046 0.77199 0.69248 0.0
C1011 C 0.4402 0.79729 0.67596 0.0
C1012 C 0.45764 0.82296 0.68191 0.0
C1013 C 0.48546 0.82336 0.70431 0.0
C1014 C 0.49584 0.7981 0.72086 0.0
C1015 C 0.6049 0.66115 0.70575 0.0
C1016 C 0.632 0.68045 0.7025 0.0
C1017 C 0.57362 0.67061 0.71799 0.0
C1018 C 0.569 0.69932 0.72856 0.0
C1019 C 0.59657 0.71836 0.72641 0.0
C1020 C 0.62759 0.70911 0.71308 0.0
C1021 C 0.53504 0.70987 0.73966 0.0
C1022 C 0.52271 0.73557 0.72505 0.0
C1023 C 0.51399 0.69416 0.76289 0.0
C1024 C 0.52566 0.66791 0.78125 0.0
C1025 C 0.55536 0.66839 0.80131 0.0
C1026 C 0.56638 0.64348 0.81821 0.0
C1027 C 0.54779 0.61802 0.81545 0.0
C1028 C 0.51806 0.61743 0.79588 0.0
C1029 C 0.50694 0.64226 0.7789 0.0
H1030 H 0.55639 0.59876 0.82852 0.0
H1031 H 0.44969 0.84252 0.66905 0.0
H1032 H 0.1763 0.01104 0.12782 0.0
H1033 H 0.13605 0.97245 0.11434 0.0
H1034 H 0.06152 0.03587 0.08663 0.0
H1035 H 0.10116 0.07419 0.10109 0.0
H1036 H 0.07844 0.96835 0.15257 0.0
H1037 H 0.00816 0.01303 0.0341 0.0
H1038 H 0.02307 0.04029 0.98092 0.0
H1039 H 0.12007 0.99959 0.9787 0.0
H1040 H 0.1049 0.97102 0.03061 0.0
H1041 H 0.9075 0.95548 0.16445 0.0
H1042 H 0.96132 0.97483 0.14442 0.0
H1043 H 0.97868 0.89805 0.08377 0.0
H1044 H 0.92385 0.8787 0.10324 0.0
H1045 H 0.99988 0.95777 0.05227 0.0
H1046 H 0.02045 0.89457 0.15446 0.0
H1047 H 0.00769 0.87697 0.21401 0.0
H1048 H 0.01082 0.96322 0.2535 0.0
H1049 H 0.02444 0.98135 0.19449 0.0
C1050 C 0.15158 0.01657 0.11799 0.0
C1051 C 0.14141 0.04538 0.11617 0.0
C1052 C 0.12876 0.99458 0.11007 0.0
C1053 C 0.09594 1.00127 0.09912 0.0
C1054 C 0.0869 0.03016 0.09438 0.0
C1055 C 0.10947 0.05207 0.10287 0.0
C1056 C 0.06931 0.97896 0.0986 0.0
C1057 C 0.06186 0.96532 0.13029 0.0
C1058 C 0.04755 0.97527 0.06964 0.0
C1059 C 0.05508 0.98955 0.03585 0.0
C1060 C 0.03211 0.00915 0.02144 0.0
C1061 C 0.04073 0.02499 0.99166 0.0
C1062 C 0.0724 0.02154 0.97625 0.0
C1063 C 0.09537 1.00203 0.99036 0.0
C1064 C 0.08668 0.98586 0.01981 0.0
C1065 C 0.92249 0.94289 0.14641 0.0
C1066 C 0.91183 0.91551 0.13571 0.0
C1067 C 0.95315 0.95399 0.13492 0.0
C1068 C 0.97404 0.93771 0.11298 0.0
C1069 C 0.96283 0.91088 0.10073 0.0
C1070 C 0.93171 0.89984 0.11198 0.0
C1071 C 0.0088 0.94791 0.10659 0.0
C1072 C 0.01744 0.95956 0.07388 0.0
C1073 C 0.0317 0.9502 0.13478 0.0
C1074 C 0.02339 0.93926 0.17014 0.0
C1075 C 0.01831 0.90975 0.17585 0.0
C1076 C 0.01095 0.89969 0.20947 0.0
C1077 C 0.00813 0.91892 0.2374 0.0
C1078 C 0.01298 0.94832 0.23186 0.0
C1079 C 0.02076 0.95848 0.19841 0.0
H1080 H 1.00232 0.91103 0.26335 0.0
H1081 H 0.07924 0.03412 0.95353 0.0
H1082 H 0.86977 0.01096 0.89558 0.0
H1083 H 0.91677 0.98083 0.9147 0.0
H1084 H 0.97215 0.05671 0.94535 0.0
H1085 H 0.92542 0.08686 0.92611 0.0
H1086 H 0.99962 0.02764 0.89033 0.0
H1087 H 0.95697 0.0053 0.00373 0.0
H1088 H 0.92006 0.98715 0.05047 0.0
H1089 H 0.91887 0.90368 0.00321 0.0
H1090 H 0.95754 0.92071 0.95699 0.0
H1091 H 0.15257 0.95857 0.89797 0.0
H1092 H 0.10384 0.98475 0.91958 0.0
H1093 H 0.04165 0.90935 0.90523 0.0
H1094 H 0.09102 0.88275 0.88402 0.0
H1095 H 0.01885 0.93913 0.95962 0.0
H1096 H 0.05016 0.96126 0.84146 0.0
H1097 H 0.08858 0.97606 0.79401 0.0
H1098 H 0.10328 0.05798 0.84371 0.0
H1099 H 0.06516 0.04357 0.89161 0.0
C1100 C 0.89149 0.0211 0.90759 0.0
C1101 C 0.89446 0.05118 0.9086 0.0
C1102 C 0.91821 0.00385 0.9188 0.0
C1103 C 0.94802 0.01655 0.93122 0.0
C1104 C 0.94934 0.04649 0.93587 0.0
C1105 C 0.92272 0.0637 0.92466 0.0
C1106 C 0.97979 0.99998 0.93064 0.0
C1107 C 1.00408 0.00864 0.90612 0.0
C1108 C 0.98479 0.97442 0.95 0.0
C1109 C 0.96029 0.96437 0.97679 0.0
C1110 C 0.94892 0.98307 0.00316 0.0
C1111 C 0.92775 0.97294 0.02969 0.0
C1112 C 0.91694 0.94437 0.02972 0.0
C1113 C 0.9275 0.92575 0.00327 0.0
C1114 C 0.94933 0.93556 0.97708 0.0
C1115 C 0.12864 0.94742 0.90015 0.0
C1116 C 0.1252 0.91891 0.88882 0.0
C1117 C 0.10082 0.96233 0.91277 0.0
C1118 C 0.06891 0.9492 0.91359 0.0
C1119 C 0.06599 0.91995 0.90478 0.0
C1120 C 0.09409 0.90482 0.89256 0.0
C1121 C 0.03834 0.9669 0.9193 0.0
C1122 C 0.01433 0.95834 0.94428 0.0
C1123 C 0.03277 0.9922 0.89958 0.0
C1124 C 0.05524 1.00115 0.87044 0.0
C1125 C 0.06177 0.98236 0.84239 0.0
C1126 C 0.08346 0.9907 0.81538 0.0
C1127 C 0.0985 0.0179 0.81593 0.0
C1128 C 0.09171 0.03688 0.84339 0.0
C1129 C 0.07006 0.02864 0.87048 0.0
H1130 H 0.11531 0.02431 0.79501 0.0
H1131 H 0.90047 0.93666 0.05028 0.0
H1132 H 0.5882 0.61511 0.59569 0.0
H1133 H 0.53563 0.58918 0.58354 0.0
H1134 H 0.58961 0.50886 0.58379 0.0
H1135 H 0.64222 0.53467 0.59601 0.0
H1136 H 0.53438 0.51028 0.53479 0.0
H1137 H 0.55817 0.5304 0.65793 0.0
H1138 H 0.5721 0.56349 0.70634 0.0
H1139 H 0.48262 0.61223 0.68543 0.0
H1140 H 0.46837 0.57956 0.63656 0.0
H1141 H 0.4202 0.40621 0.60619 0.0
H1142 H 0.46569 0.4381 0.58614 0.0
H1143 H 0.40245 0.51179 0.60515 0.0
H1144 H 0.35735 0.48009 0.62556 0.0
H1145 H 0.45908 0.51824 0.63803 0.0
H1146 H 0.4298 0.4964 0.52131 0.0
H1147 H 0.41651 0.46936 0.46769 0.0
H1148 H 0.51196 0.42646 0.47335 0.0
H1149 H 0.52668 0.45446 0.52611 0.0
C1150 C 0.589 0.59202 0.59214 0.0
C1151 C 0.61913 0.57681 0.59727 0.0
C1152 C 0.55896 0.57723 0.5852 0.0
C1153 C 0.55865 0.54705 0.58318 0.0
C1154 C 0.58927 0.53212 0.58522 0.0
C1155 C 0.61927 0.54687 0.5924 0.0
C1156 C 0.52633 0.53087 0.58452 0.0
C1157 C 0.51795 0.51176 0.55742 0.0
C1158 C 0.50439 0.53357 0.61351 0.0
C1159 C 0.51236 0.5527 0.64347 0.0
C1160 C 0.54154 0.54823 0.66359 0.0
C1161 C 0.54948 0.5669 0.69108 0.0
C1162 C 0.52828 0.58995 0.69889 0.0
C1163 C 0.49901 0.59435 0.67931 0.0
C1164 C 0.49097 0.57575 0.65174 0.0
C1165 C 0.41587 0.42918 0.60539 0.0
C1166 C 0.38548 0.44073 0.61788 0.0
C1167 C 0.44178 0.44741 0.59372 0.0
C1168 C 0.43762 0.47746 0.59421 0.0
C1169 C 0.40642 0.48876 0.60471 0.0
C1170 C 0.38067 0.47061 0.61645 0.0
C1171 C 0.46691 0.49708 0.58842 0.0
C1172 C 0.47502 0.5168 0.61502 0.0
C1173 C 0.48822 0.49512 0.55874 0.0
C1174 C 0.47914 0.47725 0.52799 0.0
C1175 C 0.44784 0.48096 0.5114 0.0
C1176 C 0.44017 0.46565 0.48097 0.0
C1177 C 0.46305 0.44574 0.46755 0.0
C1178 C 0.49413 0.44171 0.48397 0.0
C1179 C 0.50234 0.45759 0.51389 0.0
H1180 H 0.4568 0.4336 0.44428 0.0
H1181 H 0.53452 0.60435 0.72016 0.0
H1182 H 0.60498 0.40393 0.39739 0.0
H1183 H 0.55767 0.43024 0.4244 0.0
H1184 H 0.53184 0.46543 0.32359 0.0
H1185 H 0.57891 0.44005 0.29698 0.0
H1186 H 0.54416 0.49084 0.42484 0.0
H1187 H 0.44672 0.45944 0.31498 0.0
H1188 H 0.42946 0.41605 0.28244 0.0
H1189 H 0.47355 0.36263 0.36157 0.0
H1190 H 0.49059 0.40562 0.39492 0.0
H1191 H 0.43337 0.6011 0.37508 0.0
H1192 H 0.47485 0.56415 0.3896 0.0
H1193 H 0.39422 0.50515 0.41516 0.0
H1194 H 0.35291 0.54161 0.39872 0.0
H1195 H 0.43036 0.48045 0.37285 0.0
H1196 H 0.45432 0.53122 0.47358 0.0
H1197 H 0.46878 0.56832 0.51681 0.0
H1198 H 0.56647 0.57842 0.4701 0.0
H1199 H 0.55267 0.54148 0.42629 0.0
C1200 C 0.58896 0.41717 0.38112 0.0
C1201 C 0.59528 0.41974 0.34504 0.0
C1202 C 0.56212 0.43222 0.39656 0.0
C1203 C 0.54105 0.4495 0.37589 0.0
C1204 C 0.54751 0.45194 0.33994 0.0
C1205 C 0.57442 0.43739 0.32476 0.0
C1206 C 0.51247 0.46584 0.39094 0.0
C1207 C 0.51912 0.48879 0.41378 0.0
C1208 C 0.47948 0.46183 0.378 0.0
C1209 C 0.47003 0.43586 0.35745 0.0
C1210 C 0.45259 0.43846 0.32557 0.0
C1211 C 0.44277 0.41391 0.30701 0.0
C1212 C 0.4502 0.38661 0.32005 0.0
C1213 C 0.46768 0.38379 0.35157 0.0
C1214 C 0.47753 0.40826 0.37025 0.0
C1215 C 0.42463 0.58045 0.38459 0.0
C1216 C 0.39009 0.57395 0.38526 0.0
C1217 C 0.44834 0.55934 0.39316 0.0
C1218 C 0.43783 0.53164 0.40337 0.0
C1219 C 0.40311 0.52614 0.40694 0.0
C1220 C 0.37949 0.54698 0.39758 0.0
C1221 C 0.46246 0.50749 0.40455 0.0
C1222 C 0.45507 0.48284 0.38462 0.0
C1223 C 0.49438 0.50968 0.4212 0.0
C1224 C 0.5024 0.53314 0.44654 0.0
C1225 C 0.47888 0.5413 0.47229 0.0
C1226 C 0.48697 0.5624 0.49697 0.0
C1227 C 0.51853 0.57572 0.49621 0.0
C1228 C 0.54204 0.56801 0.47071 0.0
C1229 C 0.53409 0.54689 0.44597 0.0
H1230 H 0.52474 0.59207 0.51532 0.0
H1231 H 0.4427 0.36764 0.30556 0.0
H1232 H 0.25877 0.08828 0.11483 0.0
H1233 H 0.25725 0.04377 0.08066 0.0
H1234 H 0.17844 0.07906 0.01605 0.0
H1235 H 0.1802 0.12375 0.0502 0.0
H1236 H 0.21053 0.00407 0.06917 0.0
H1237 H 0.18681 0.05175 0.93262 0.0
H1238 H 0.19578 0.09709 0.90031 0.0
H1239 H 0.28087 0.11698 0.96545 0.0
H1240 H 0.27272 0.07161 0.99775 0.0
H1241 H 0.18454 0.88805 0.9499 0.0
H1242 H 0.17827 0.93265 0.98304 0.0
H1243 H 0.27264 0.96356 0.9411 0.0
H1244 H 0.27843 0.91916 0.90701 0.0
H1245 H 0.22926 0.00559 0.94085 0.0
H1246 H 0.26518 0.93802 0.03231 0.0
H1247 H 0.26078 0.89343 0.06712 0.0
H1248 H 0.15823 0.91375 0.09316 0.0
H1249 H 0.16208 0.95824 0.05809 0.0
C1250 C 0.24094 0.08641 0.09357 0.0
C1251 C 0.21944 0.10936 0.08545 0.0
C1252 C 0.24008 0.06097 0.07397 0.0
C1253 C 0.21787 0.05798 0.04554 0.0
C1254 C 0.19614 0.08089 0.03751 0.0
C1255 C 0.19715 0.10643 0.05705 0.0
C1256 C 0.21825 0.03108 0.02411 0.0
C1257 C 0.21442 0.0045 0.04108 0.0
C1258 C 0.22347 0.03135 0.98741 0.0
C1259 C 0.22889 0.05847 0.96785 0.0
C1260 C 0.20749 0.06577 0.93995 0.0
C1261 C 0.21243 0.09147 0.92164 0.0
C1262 C 0.23878 0.10995 0.93095 0.0
C1263 C 0.26038 0.1027 0.95839 0.0
C1264 C 0.2556 0.07702 0.97671 0.0
C1265 C 0.20416 0.90422 0.94801 0.0
C1266 C 0.23211 0.90002 0.9259 0.0
C1267 C 0.20056 0.92977 0.96707 0.0
C1268 C 0.22524 0.95147 0.96518 0.0
C1269 C 0.25319 0.94726 0.94308 0.0
C1270 C 0.25655 0.92185 0.92362 0.0
C1271 C 0.22199 0.97858 0.98602 0.0
C1272 C 0.22503 0.0052 0.9689 0.0
C1273 C 0.21638 0.9784 0.02263 0.0
C1274 C 0.21389 0.95135 0.04277 0.0
C1275 C 0.24168 0.93284 0.04534 0.0
C1276 C 0.2393 0.90761 0.06509 0.0
C1277 C 0.20926 0.90076 0.08235 0.0
C1278 C 0.1815 0.91908 0.07982 0.0
C1279 C 0.18379 0.94431 0.06011 0.0
H1280 H 0.20749 0.88127 0.09769 0.0
H1281 H 0.24252 0.12988 0.9169 0.0
H1282 H 0.1621 0.77143 0.00406 0.0
H1283 H 0.10643 0.75726 0.02558 0.0
H1284 H 0.07536 0.7369 0.92034 0.0
H1285 H 0.131 0.75056 0.8986 0.0
H1286 H 0.03837 0.78106 0.95381 0.0
H1287 H 0.07321 0.68462 0.97635 0.0
H1288 H 0.11026 0.64674 0.99963 0.0
H1289 H 0.09381 0.67765 0.10412 0.0
H1290 H 0.05705 0.716 0.08146 0.0
H1291 H 0.87492 0.78042 0.02646 0.0
H1292 H 0.92202 0.75893 0.9937 0.0
H1293 H 0.98381 0.76263 0.08638 0.0
H1294 H 0.93728 0.78417 0.11882 0.0
H1295 H 1.00001 0.71657 0.04924 0.0
H1296 H 0.98518 0.81795 0.03015 0.0
H1297 H 0.95481 0.86185 0.01318 0.0
H1298 H 0.94027 0.828 0.90964 0.0
H1299 H 0.97048 0.78369 0.92622 0.0
C1300 C 0.1438 0.76304 0.98564 0.0
C1301 C 0.15082 0.76253 0.94959 0.0
C1302 C 0.11204 0.75482 0.99799 0.0
C1303 C 0.08681 0.74611 0.97449 0.0
C1304 C 0.09456 0.74348 0.93886 0.0
C1305 C 0.12643 0.75133 0.92653 0.0
C1306 C 0.05131 0.74493 0.98629 0.0
C1307 C 0.02955 0.76629 0.97383 0.0
C1308 C 0.04043 0.72639 0.01334 0.0
C1309 C 0.06245 0.70329 0.02714 0.0
C1310 C 0.07768 0.68349 0.00427 0.0
C1311 C 0.0986 0.6619 0.01737 0.0
C1312 C 0.10441 0.65981 0.05332 0.0
C1313 C 0.08927 0.67928 0.07627 0.0
C1314 C 0.06833 0.70092 0.06331 0.0
C1315 C 0.89837 0.77597 0.03987 0.0
C1316 C 0.90294 0.7844 0.07481 0.0
C1317 C 0.92521 0.76378 0.02123 0.0
C1318 C 0.95662 0.75969 0.03755 0.0
C1319 C 0.95996 0.76582 0.07327 0.0
C1320 C 0.93349 0.77832 0.09165 0.0
C1321 C 0.98737 0.75299 0.01708 0.0
C1322 C 0.00834 0.73046 0.02813 0.0
C1323 C 0.9982 0.77109 0.98952 0.0
C1324 C 0.97953 0.79737 0.97956 0.0
C1325 C 0.97519 0.81976 0.00387 0.0
C1326 C 0.95808 0.84475 0.99429 0.0
C1327 C 0.94542 0.84768 0.96037 0.0
C1328 C 0.94997 0.82565 0.93594 0.0
C1329 C 0.96709 0.80059 0.94541 0.0
H1330 H 0.93218 0.86705 0.95295 0.0
H1331 H 0.12063 0.64308 0.06341 0.0
H1332 H 0.79291 0.08303 0.89276 0.0
H1333 H 0.79033 0.04562 0.9361 0.0
H1334 H 0.80915 0.10805 0.01742 0.0
H1335 H 0.81593 0.14571 0.9725 0.0
H1336 H 0.83619 0.06116 0.03703 0.0
H1337 H 0.7263 0.08008 0.99883 0.0
H1338 H 0.68016 0.08986 0.95736 0.0
H1339 H 0.69207 0.0059 0.91237 0.0
H1340 H 0.73854 0.99571 0.95328 0.0
H1341 H 0.74063 0.92551 0.11225 0.0
H1342 H 0.73985 0.97409 0.0871 0.0
H1343 H 0.83902 0.96044 0.044 0.0
H1344 H 0.83963 0.91176 0.06854 0.0
H1345 H 0.74342 0.99079 0.01958 0.0
H1346 H 0.88255 0.02981 0.0542 0.0
H1347 H 0.92178 0.02558 0.10389 0.0
H1348 H 0.83985 1.00201 0.17152 0.0
H1349 H 0.80001 0.0067 0.12255 0.0
C1350 C 0.79761 0.08889 0.91961 0.0
C1351 C 0.8054 0.11735 0.9288 0.0
C1352 C 0.79528 0.06741 0.94473 0.0
C1353 C 0.79819 0.07393 0.98041 0.0
C1354 C 0.80641 0.10237 0.99009 0.0
C1355 C 0.81016 0.12392 0.96442 0.0
C1356 C 0.79215 0.05065 0.0067 0.0
C1357 C 0.81591 0.0458 0.03331 0.0
C1358 C 0.76444 0.03143 0.00341 0.0
C1359 C 0.73598 0.03716 0.97914 0.0
C1360 C 0.71913 0.06372 0.98005 0.0
C1361 C 0.69293 0.06934 0.95662 0.0
C1362 C 0.6832 0.04852 0.93224 0.0
C1363 C 0.69959 0.02199 0.93131 0.0
C1364 C 0.72581 0.01625 0.95468 0.0
C1365 C 0.76203 0.93281 0.09701 0.0
C1366 C 0.78996 0.91477 0.09192 0.0
C1367 C 0.76168 0.96058 0.08288 0.0
C1368 C 0.78955 0.97103 0.06403 0.0
C1369 C 0.81742 0.95297 0.05883 0.0
C1370 C 0.81754 0.92502 0.07242 0.0
C1371 C 0.78891 1.00017 0.04798 0.0
C1372 C 0.76364 0.00621 0.02351 0.0
C1373 C 0.81421 0.02107 0.05462 0.0
C1374 C 0.83828 0.01798 0.08428 0.0
C1375 C 0.87281 0.02374 0.07964 0.0
C1376 C 0.89519 0.02134 0.10775 0.0
C1377 C 0.88334 0.01342 0.14078 0.0
C1378 C 0.84906 0.00794 0.14584 0.0
C1379 C 0.82658 0.01036 0.11784 0.0
H1380 H 0.90072 0.01161 0.16248 0.0
H1381 H 0.66295 0.05293 0.91408 0.0
H1382 H 0.09089 0.12832 0.07712 0.0
H1383 H 0.0366 0.12782 0.04676 0.0
H1384 H 0.03556 0.22053 0.04732 0.0
H1385 H 0.08979 0.22125 0.07776 0.0
H1386 H 0.97354 0.19489 0.06686 0.0
H1387 H 0.06262 0.18027 0.97747 0.0
H1388 H 0.10772 0.15158 0.95013 0.0
H1389 H 0.03908 0.08087 0.9367 0.0
H1390 H 0.99376 0.10895 0.96459 0.0
H1391 H 0.89436 0.26651 0.93617 0.0
H1392 H 0.92533 0.24173 0.98147 0.0
H1393 H 0.90541 0.16042 0.9307 0.0
H1394 H 0.87506 0.18586 0.88406 0.0
H1395 H 0.96777 0.16273 0.94327 0.0
H1396 H 0.87684 0.17562 0.01741 0.0
H1397 H 0.82795 0.19788 0.04638 0.0
H1398 H 0.89251 0.26167 0.09258 0.0
H1399 H 0.94176 0.24018 0.06341 0.0
C1400 C 0.07907 0.14864 0.07089 0.0
C1401 C 0.09477 0.17489 0.07963 0.0
C1402 C 0.04804 0.14826 0.05351 0.0
C1403 C 0.03217 0.17412 0.0446 0.0
C1404 C 0.04743 0.20032 0.05399 0.0
C1405 C 0.07849 0.20072 0.07122 0.0
C1406 C 1.00012 0.17442 0.02467 0.0
C1407 C 0.97213 0.18794 0.0398 0.0
C1408 C 0.99747 0.16325 0.9903 0.0
C1409 C 0.02494 0.14656 0.97362 0.0
C1410 C 0.05726 0.15848 0.96911 0.0
C1411 C 0.08285 0.14234 0.95344 0.0
C1412 C 0.07633 0.11435 0.94188 0.0
C1413 C 0.04417 0.10248 0.94583 0.0
C1414 C 0.01853 0.1185 0.96157 0.0
C1415 C 0.89573 0.24326 0.93513 0.0
C1416 C 0.88251 0.22811 0.90653 0.0
C1417 C 0.91322 0.22896 0.96136 0.0
C1418 C 0.91757 0.19903 0.95998 0.0
C1419 C 0.90242 0.18352 0.93247 0.0
C1420 C 0.88486 0.198 0.90596 0.0
C1421 C 0.94183 0.18535 0.98456 0.0
C1422 C 0.9684 0.16904 0.97059 0.0
C1423 C 0.94264 0.19293 0.02047 0.0
C1424 C 0.9131 0.20622 0.03812 0.0
C1425 C 0.88064 0.19451 0.03355 0.0
C1426 C 0.85283 0.207 0.05004 0.0
C1427 C 0.85712 0.23117 0.07131 0.0
C1428 C 0.88923 0.24291 0.07614 0.0
C1429 C 0.91714 0.23054 0.05968 0.0
H1430 H 0.83556 0.2408 0.08407 0.0
H1431 H 0.09616 0.1019 0.92973 0.0
H1432 H 0.69884 0.3891 0.43179 0.0
H1433 H 0.70238 0.43191 0.46852 0.0
H1434 H 0.75625 0.47649 0.38679 0.0
H1435 H 0.75337 0.4334 0.34994 0.0
H1436 H 0.754 0.46223 0.49465 0.0
H1437 H 0.72526 0.54893 0.38796 0.0
H1438 H 0.69337 0.55318 0.33283 0.0
H1439 H 0.63177 0.48102 0.36204 0.0
H1440 H 0.66241 0.47697 0.41784 0.0
H1441 H 0.78599 0.59755 0.57158 0.0
H1442 H 0.78603 0.55612 0.532 0.0
H1443 H 0.68122 0.57157 0.50798 0.0
H1444 H 0.68238 0.61454 0.54483 0.0
H1445 H 0.70692 0.55472 0.45305 0.0
H1446 H 0.71508 0.51873 0.57063 0.0
H1447 H 0.73972 0.51275 0.62934 0.0
H1448 H 0.83025 0.4788 0.5839 0.0
H1449 H 0.80662 0.48539 0.52484 0.0
C1450 C 0.71186 0.40784 0.4217 0.0
C1451 C 0.72543 0.40793 0.38768 0.0
C1452 C 0.71378 0.43235 0.44276 0.0
C1453 C 0.7291 0.45754 0.43022 0.0
C1454 C 0.74381 0.45742 0.39678 0.0
C1455 C 0.74219 0.43277 0.37578 0.0
C1456 C 0.72935 0.48392 0.45217 0.0
C1457 C 0.74384 0.48253 0.48556 0.0
C1458 C 0.71521 0.51014 0.44059 0.0
C1459 C 0.69662 0.51235 0.40692 0.0
C1460 C 0.70485 0.53402 0.3827 0.0
C1461 C 0.68688 0.53648 0.35138 0.0
C1462 C 0.66072 0.51727 0.34384 0.0
C1463 C 0.65219 0.49578 0.3678 0.0
C1464 C 0.66985 0.49342 0.39931 0.0
C1465 C 0.76316 0.59216 0.55746 0.0
C1466 C 0.73422 0.60911 0.56117 0.0
C1467 C 0.76302 0.56831 0.5351 0.0
C1468 C 0.73336 0.56003 0.51747 0.0
C1469 C 0.7045 0.57731 0.52106 0.0
C1470 C 0.70509 0.60183 0.54227 0.0
C1471 C 0.73213 0.53333 0.49568 0.0
C1472 C 0.71735 0.53457 0.46223 0.0
C1473 C 0.74502 0.50665 0.50765 0.0
C1474 C 0.75919 0.50284 0.54326 0.0
C1475 C 0.7404 0.51032 0.57312 0.0
C1476 C 0.75428 0.50696 0.60646 0.0
C1477 C 0.78663 0.49557 0.61029 0.0
C1478 C 0.80527 0.48773 0.58084 0.0
C1479 C 0.79169 0.49135 0.54744 0.0
H1480 H 0.79716 0.49232 0.63603 0.0
H1481 H 0.64702 0.51908 0.31946 0.0
H1482 H 0.35281 0.29569 0.49583 0.0
H1483 H 0.40622 0.28265 0.46892 0.0
H1484 H 0.43946 0.24519 0.56616 0.0
H1485 H 0.38591 0.25863 0.59358 0.0
H1486 H 0.48528 0.28166 0.54184 0.0
H1487 H 0.42688 0.20248 0.4933 0.0
H1488 H 0.38065 0.17636 0.46405 0.0
H1489 H 0.39577 0.22648 0.37103 0.0
H1490 H 0.44175 0.25322 0.39985 0.0
H1491 H 0.6387 0.26991 0.43979 0.0
H1492 H 0.59071 0.2523 0.47497 0.0
H1493 H 0.5218 0.29416 0.40427 0.0
H1494 H 0.56893 0.31169 0.36967 0.0
H1495 H 0.49959 0.24031 0.42313 0.0
H1496 H 0.54628 0.3267 0.47834 0.0
H1497 H 0.59109 0.35448 0.50781 0.0
H1498 H 0.59685 0.29048 0.5885 0.0
H1499 H 0.55232 0.26214 0.55921 0.0
C1500 C 0.37111 0.2841 0.51135 0.0
C1501 C 0.36508 0.2783 0.54688 0.0
C1502 C 0.40167 0.27648 0.49584 0.0
C1503 C 0.42686 0.26268 0.51538 0.0
C1504 C 0.42037 0.2557 0.55051 0.0
C1505 C 0.38966 0.26328 0.56608 0.0
C1506 C 0.46093 0.25865 0.49984 0.0
C1507 C 0.48861 0.27181 0.51633 0.0
C1508 C 0.46537 0.24601 0.46645 0.0
C1509 C 0.43776 0.22992 0.44883 0.0
C1510 C 0.42023 0.20806 0.46668 0.0
C1511 C 0.39407 0.19313 0.45015 0.0
C1512 C 0.38527 0.19977 0.41571 0.0
C1513 C 0.40264 0.22134 0.3977 0.0
C1514 C 0.42881 0.23635 0.4141 0.0
C1515 C 0.61325 0.27493 0.43164 0.0
C1516 C 0.60755 0.29237 0.40223 0.0
C1517 C 0.58592 0.26496 0.45174 0.0
C1518 C 0.55267 0.27202 0.44228 0.0
C1519 C 0.54716 0.28835 0.41203 0.0
C1520 C 0.57421 0.29853 0.3924 0.0
C1521 C 0.52322 0.26445 0.46448 0.0
C1522 C 0.49645 0.24916 0.4492 0.0
C1523 C 0.51956 0.27517 0.49892 0.0
C1524 C 0.54643 0.29209 0.51631 0.0
C1525 C 0.55737 0.31842 0.50217 0.0
C1526 C 0.58265 0.33429 0.51888 0.0
C1527 C 0.59692 0.32418 0.54992 0.0
C1528 C 0.58586 0.29822 0.56438 0.0
C1529 C 0.56062 0.28225 0.54774 0.0
H1530 H 0.61647 0.33651 0.56284 0.0
H1531 H 0.365 0.18818 0.40297 0.0
H1532 H 0.27426 0.38184 0.53656 0.0
H1533 H 0.27543 0.4253 0.50068 0.0
H1534 H 0.27679 0.47743 0.59417 0.0
H1535 H 0.27358 0.43417 0.62991 0.0
H1536 H 0.23795 0.50113 0.54912 0.0
H1537 H 0.34897 0.46113 0.54411 0.0
H1538 H 0.38914 0.42163 0.53411 0.0
H1539 H 0.3613 0.41868 0.42567 0.0
H1540 H 0.3202 0.4576 0.43518 0.0
H1541 H 0.30189 0.62961 0.47346 0.0
H1542 H 0.30007 0.58456 0.50627 0.0
H1543 H 0.27071 0.53897 0.41286 0.0
H1544 H 0.27175 0.58408 0.37989 0.0
H1545 H 0.32458 0.51203 0.45623 0.0
H1546 H 0.21189 0.55157 0.46397 0.0
H1547 H 0.17081 0.58995 0.4763 0.0
H1548 H 0.20552 0.59478 0.58254 0.0
H1549 H 0.24718 0.55669 0.57068 0.0
C1550 C 0.27455 0.40259 0.54943 0.0
C1551 C 0.2742 0.40457 0.58612 0.0
C1552 C 0.27547 0.42742 0.52891 0.0
C1553 C 0.27704 0.45468 0.54469 0.0
C1554 C 0.27575 0.45667 0.58133 0.0
C1555 C 0.274 0.43188 0.6018 0.0
C1556 C 0.2801 0.48115 0.52318 0.0
C1557 C 0.25719 0.50356 0.52914 0.0
C1558 C 0.30496 0.48427 0.49671 0.0
C1559 C 0.3311 0.46202 0.49049 0.0
C1560 C 0.35123 0.45194 0.51818 0.0
C1561 C 0.37402 0.42953 0.51266 0.0
C1562 C 0.37745 0.4174 0.47939 0.0
C1563 C 0.35837 0.4279 0.45149 0.0
C1564 C 0.3353 0.45013 0.45694 0.0
C1565 C 0.29507 0.61003 0.45982 0.0
C1566 C 0.28696 0.61045 0.42401 0.0
C1567 C 0.29414 0.58432 0.47861 0.0
C1568 C 0.28534 0.55853 0.46191 0.0
C1569 C 0.27773 0.5587 0.4261 0.0
C1570 C 0.27813 0.58452 0.40738 0.0
C1571 C 0.28246 0.53169 0.4824 0.0
C1572 C 0.30544 0.50938 0.47628 0.0
C1573 C 0.25805 0.52875 0.50911 0.0
C1574 C 0.23287 0.5515 0.51633 0.0
C1575 C 0.21096 0.56099 0.48987 0.0
C1576 C 0.18753 0.58266 0.49679 0.0
C1577 C 0.18562 0.59485 0.53016 0.0
C1578 C 0.20707 0.58534 0.5567 0.0
C1579 C 0.23057 0.5637 0.5499 0.0
H1580 H 0.16746 0.61162 0.53547 0.0
H1581 H 0.39522 0.40014 0.47513 0.0
H1582 H 0.60928 0.76826 0.64293 0.0
H1583 H 0.5543 0.78016 0.61774 0.0
H1584 H 0.59254 0.76119 0.51461 0.0
H1585 H 0.64738 0.74938 0.53948 0.0
H1586 H 0.54928 0.80679 0.51374 0.0
H1587 H 0.55519 0.71103 0.56481 0.0
H1588 H 0.56103 0.67565 0.61243 0.0
H1589 H 0.476 0.71245 0.66528 0.0
H1590 H 0.47041 0.74883 0.61861 0.0
H1591 H 0.43994 0.72924 0.40713 0.0
H1592 H 0.48248 0.75049 0.44531 0.0
H1593 H 0.4056 0.77148 0.52091 0.0
H1594 H 0.36244 0.75055 0.48205 0.0
H1595 H 0.45918 0.73799 0.54735 0.0
H1596 H 0.44507 0.82495 0.48687 0.0
H1597 H 0.43824 0.85801 0.43708 0.0
H1598 H 0.53698 0.83612 0.39979 0.0
H1599 H 0.54419 0.80245 0.44891 0.0
C1600 C 0.60624 0.76741 0.61478 0.0
C1601 C 0.63259 0.75764 0.59315 0.0
C1602 C 0.57475 0.77408 0.60048 0.0
C1603 C 0.56922 0.77119 0.56436 0.0
C1604 C 0.59624 0.76355 0.54255 0.0
C1605 C 0.62756 0.7567 0.55681 0.0
C1606 C 0.53488 0.77303 0.54921 0.0
C1607 C 0.52946 0.79187 0.52111 0.0
C1608 C 0.5086 0.75424 0.55981 0.0
C1609 C 0.51278 0.73303 0.58851 0.0
C1610 C 0.53813 0.71196 0.5869 0.0
C1611 C 0.54138 0.69172 0.61373 0.0
C1612 C 0.51904 0.69198 0.64199 0.0
C1613 C 0.49348 0.71252 0.64355 0.0
C1614 C 0.49034 0.73302 0.617 0.0
C1615 C 0.43198 0.73896 0.43155 0.0
C1616 C 0.39801 0.73818 0.44181 0.0
C1617 C 0.45627 0.75126 0.45323 0.0
C1618 C 0.44718 0.7627 0.48585 0.0
C1619 C 0.41304 0.76294 0.4957 0.0
C1620 C 0.38847 0.7511 0.47352 0.0
C1621 C 0.47421 0.7708 0.51077 0.0
C1622 C 0.47839 0.75373 0.5407 0.0
C1623 C 0.49941 0.79104 0.50169 0.0
C1624 C 0.49512 0.81102 0.47166 0.0
C1625 C 0.46524 0.82695 0.46791 0.0
C1626 C 0.46133 0.84588 0.43982 0.0
C1627 C 0.48719 0.84922 0.41534 0.0
C1628 C 0.51702 0.83362 0.41888 0.0
C1629 C 0.52104 0.8146 0.44687 0.0
H1630 H 0.48409 0.86384 0.39357 0.0
H1631 H 0.52131 0.6761 0.66251 0.0
loop_
_geom_bond_atom_site_label_1
_geom_bond_atom_site_label_2
_geom_bond_distance
_geom_bond_site_symmetry_2
_ccdc_geom_bond_type
O0 Tb1 2.292 . S
O0 C3 1.255 . S
Tb1 O0 2.292 . S
Tb1 O17 2.326 . S
Tb1 O19 2.500 . S
Tb1 O20 2.473 . S
Tb1 O23 2.324 . S
Eu2 O6 2.292 . S
Eu2 C7 2.852 . S
Eu2 O18 2.324 . S
Eu2 O22 2.326 . S
Eu2 O24 2.500 . S
Eu2 O25 2.473 . S
C3 O0 1.255 . S
C3 O4 1.247 . S
O4 C3 1.247 . S
C5 O17 1.242 . S
C5 O18 1.258 . S
O6 Eu2 2.292 . S
O6 C8 1.255 . S
C7 Eu2 2.852 . S
C7 C11 1.503 . S
C7 O24 1.273 . S
C7 O25 1.257 . S
C8 O6 1.255 . S
C8 O9 1.247 . S
O9 C8 1.247 . S
C10 O22 1.242 . S
C10 O23 1.258 . S
C11 C7 1.503 . S
C11 C12 1.379 . S
C11 C16 1.392 . S
C12 C11 1.379 . S
C12 C13 1.404 . S
C12 H26 0.929 . S
C13 C12 1.404 . S
C13 C14 1.389 . S
C14 C13 1.389 . S
C14 C15 1.399 . S
C14 H27 0.931 . S
C15 C14 1.399 . S
C15 C16 1.390 . S
C16 C11 1.392 . S
C16 C15 1.390 . S
C16 H28 0.929 . S
O17 Tb1 2.326 . S
O17 C5 1.242 . S
O18 Eu2 2.324 . S
O18 C5 1.258 . S
O19 Tb1 2.500 . S
O19 C21 1.273 . S
O20 Tb1 2.473 . S
O20 C21 1.257 . S
C21 O19 1.273 . S
C21 O20 1.257 . S
O22 Eu2 2.326 . S
O22 C10 1.242 . S
O23 Tb1 2.324 . S
O23 C10 1.258 . S
O24 Eu2 2.500 . S
O24 C7 1.273 . S
O25 Eu2 2.473 . S
O25 C7 1.257 . S
H26 C12 0.929 . S
H27 C14 0.931 . S
H28 C16 0.929 . S
O29 Tb30 2.292 . S
O29 C32 1.255 . S
Tb30 O29 2.292 . S
Tb30 O46 2.326 . S
Tb30 O48 2.500 . S
Tb30 O49 2.473 . S
Tb30 O52 2.324 . S
Eu31 O35 2.292 . S
Eu31 C36 2.852 . S
Eu31 O47 2.324 . S
Eu31 O51 2.326 . S
Eu31 O53 2.500 . S
Eu31 O54 2.473 . S
C32 O29 1.255 . S
C32 O33 1.247 . S
O33 C32 1.247 . S
C34 O46 1.242 . S
C34 O47 1.258 . S
O35 Eu31 2.292 . S
O35 C37 1.255 . S
C36 Eu31 2.852 . S
C36 C40 1.503 . S
C36 O53 1.273 . S
C36 O54 1.257 . S
C37 O35 1.255 . S
C37 O38 1.247 . S
O38 C37 1.247 . S
C39 O51 1.242 . S
C39 O52 1.258 . S
C40 C36 1.503 . S
C40 C41 1.379 . S
C40 C45 1.392 . S
C41 C40 1.379 . S
C41 C42 1.404 . S
C41 H55 0.929 . S
C42 C41 1.404 . S
C42 C43 1.389 . S
C43 C42 1.389 . S
C43 C44 1.399 . S
C43 H56 0.931 . S
C44 C43 1.399 . S
C44 C45 1.390 . S
C45 C40 1.392 . S
C45 C44 1.390 . S
C45 H57 0.929 . S
O46 Tb30 2.326 . S
O46 C34 1.242 . S
O47 Eu31 2.324 . S
O47 C34 1.258 . S
O48 Tb30 2.500 . S
O48 C50 1.273 . S
O49 Tb30 2.473 . S
O49 C50 1.257 . S
C50 O48 1.273 . S
C50 O49 1.257 . S
O51 Eu31 2.326 . S
O51 C39 1.242 . S
O52 Tb30 2.324 . S
O52 C39 1.258 . S
O53 Eu31 2.500 . S
O53 C36 1.273 . S
O54 Eu31 2.473 . S
O54 C36 1.257 . S
H55 C41 0.929 . S
H56 C43 0.931 . S
H57 C45 0.929 . S
O58 Tb59 2.292 . S
O58 C61 1.255 . S
Tb59 O58 2.292 . S
Tb59 O75 2.326 . S
Tb59 O77 2.500 . S
Tb59 O78 2.473 . S
Tb59 O81 2.324 . S
Eu60 O64 2.292 . S
Eu60 C65 2.852 . S
Eu60 O76 2.324 . S
Eu60 O80 2.326 . S
Eu60 O82 2.500 . S
Eu60 O83 2.473 . S
C61 O58 1.255 . S
C61 O62 1.247 . S
O62 C61 1.247 . S
C63 O75 1.242 . S
C63 O76 1.258 . S
O64 Eu60 2.292 . S
O64 C66 1.255 . S
C65 Eu60 2.852 . S
C65 C69 1.503 . S
C65 O82 1.273 . S
C65 O83 1.257 . S
C66 O64 1.255 . S
C66 O67 1.247 . S
O67 C66 1.247 . S
C68 O80 1.242 . S
C68 O81 1.258 . S
C69 C65 1.503 . S
C69 C70 1.379 . S
C69 C74 1.392 . S
C70 C69 1.379 . S
C70 C71 1.404 . S
C70 H84 0.929 . S
C71 C70 1.404 . S
C71 C72 1.389 . S
C72 C71 1.389 . S
C72 C73 1.399 . S
C72 H85 0.931 . S
C73 C72 1.399 . S
C73 C74 1.390 . S
C74 C69 1.392 . S
C74 C73 1.390 . S
C74 H86 0.929 . S
O75 Tb59 2.326 . S
O75 C63 1.242 . S
O76 Eu60 2.324 . S
O76 C63 1.258 . S
O77 Tb59 2.500 . S
O77 C79 1.273 . S
O78 Tb59 2.473 . S
O78 C79 1.257 . S
C79 O77 1.273 . S
C79 O78 1.257 . S
O80 Eu60 2.326 . S
O80 C68 1.242 . S
O81 Tb59 2.324 . S
O81 C68 1.258 . S
O82 Eu60 2.500 . S
O82 C65 1.273 . S
O83 Eu60 2.473 . S
O83 C65 1.257 . S
H84 C70 0.929 . S
H85 C72 0.931 . S
H86 C74 0.929 . S
O87 Tb88 2.292 . S
O87 C90 1.255 . S
Tb88 O87 2.292 . S
Tb88 O104 2.326 . S
Tb88 O106 2.500 . S
Tb88 O107 2.473 . S
Tb88 O110 2.324 . S
Eu89 O93 2.292 . S
Eu89 C94 2.852 . S
Eu89 O105 2.324 . S
Eu89 O109 2.326 . S
Eu89 O111 2.500 . S
Eu89 O112 2.473 . S
C90 O87 1.255 . S
C90 O91 1.247 . S
O91 C90 1.247 . S
C92 O104 1.242 . S
C92 O105 1.258 . S
O93 Eu89 2.292 . S
O93 C95 1.255 . S
C94 Eu89 2.852 . S
C94 C98 1.503 . S
C94 O111 1.273 . S
C94 O112 1.257 . S
C95 O93 1.255 . S
C95 O96 1.247 . S
O96 C95 1.247 . S
C97 O109 1.242 . S
C97 O110 1.258 . S
C98 C94 1.503 . S
C98 C99 1.379 . S
C98 C103 1.392 . S
C99 C98 1.379 . S
C99 C100 1.404 . S
C99 H113 0.929 . S
C100 C99 1.404 . S
C100 C101 1.389 . S
C101 C100 1.389 . S
C101 C102 1.399 . S
C101 H114 0.931 . S
C102 C101 1.399 . S
C102 C103 1.390 . S
C103 C98 1.392 . S
C103 C102 1.390 . S
C103 H115 0.929 . S
O104 Tb88 2.326 . S
O104 C92 1.242 . S
O105 Eu89 2.324 . S
O105 C92 1.258 . S
O106 Tb88 2.500 . S
O106 C108 1.273 . S
O107 Tb88 2.473 . S
O107 C108 1.257 . S
C108 O106 1.273 . S
C108 O107 1.257 . S
O109 Eu89 2.326 . S
O109 C97 1.242 . S
O110 Tb88 2.324 . S
O110 C97 1.258 . S
O111 Eu89 2.500 . S
O111 C94 1.273 . S
O112 Eu89 2.473 . S
O112 C94 1.257 . S
H113 C99 0.929 . S
H114 C101 0.931 . S
H115 C103 0.929 . S
O116 Tb117 2.292 . S
O116 C119 1.255 . S
Tb117 O116 2.292 . S
Tb117 O133 2.326 . S
Tb117 O135 2.500 . S
Tb117 O136 2.473 . S
Tb117 O139 2.324 . S
Eu118 O122 2.292 . S
Eu118 C123 2.852 . S
Eu118 O134 2.324 . S
Eu118 O138 2.326 . S
Eu118 O140 2.500 . S
Eu118 O141 2.473 . S
C119 O116 1.255 . S
C119 O120 1.247 . S
O120 C119 1.247 . S
C121 O133 1.242 . S
C121 O134 1.258 . S
O122 Eu118 2.292 . S
O122 C124 1.255 . S
C123 Eu118 2.852 . S
C123 C127 1.503 . S
C123 O140 1.273 . S
C123 O141 1.257 . S
C124 O122 1.255 . S
C124 O125 1.247 . S
O125 C124 1.247 . S
C126 O138 1.242 . S
C126 O139 1.258 . S
C127 C123 1.503 . S
C127 C128 1.379 . S
C127 C132 1.392 . S
C128 C127 1.379 . S
C128 C129 1.404 . S
C128 H142 0.929 . S
C129 C128 1.404 . S
C129 C130 1.389 . S
C130 C129 1.389 . S
C130 C131 1.399 . S
C130 H143 0.931 . S
C131 C130 1.399 . S
C131 C132 1.390 . S
C132 C127 1.392 . S
C132 C131 1.390 . S
C132 H144 0.929 . S
O133 Tb117 2.326 . S
O133 C121 1.242 . S
O134 Eu118 2.324 . S
O134 C121 1.258 . S
O135 Tb117 2.500 . S
O135 C137 1.273 . S
O136 Tb117 2.473 . S
O136 C137 1.257 . S
C137 O135 1.273 . S
C137 O136 1.257 . S
O138 Eu118 2.326 . S
O138 C126 1.242 . S
O139 Tb117 2.324 . S
O139 C126 1.258 . S
O140 Eu118 2.500 . S
O140 C123 1.273 . S
O141 Eu118 2.473 . S
O141 C123 1.257 . S
H142 C128 0.929 . S
H143 C130 0.931 . S
H144 C132 0.929 . S
O145 Tb146 2.292 . S
O145 C148 1.255 . S
Tb146 O145 2.292 . S
Tb146 O162 2.326 . S
Tb146 O164 2.500 . S
Tb146 O165 2.473 . S
Tb146 O168 2.324 . S
Eu147 O151 2.292 . S
Eu147 C152 2.852 . S
Eu147 O163 2.324 . S
Eu147 O167 2.326 . S
Eu147 O169 2.500 . S
Eu147 O170 2.473 . S
C148 O145 1.255 . S
C148 O149 1.247 . S
O149 C148 1.247 . S
C150 O162 1.242 . S
C150 O163 1.258 . S
O151 Eu147 2.292 . S
O151 C153 1.255 . S
C152 Eu147 2.852 . S
C152 C156 1.503 . S
C152 O169 1.273 . S
C152 O170 1.257 . S
C153 O151 1.255 . S
C153 O154 1.247 . S
O154 C153 1.247 . S
C155 O167 1.242 . S
C155 O168 1.258 . S
C156 C152 1.503 . S
C156 C157 1.379 . S
C156 C161 1.392 . S
C157 C156 1.379 . S
C157 C158 1.404 . S
C157 H171 0.929 . S
C158 C157 1.404 . S
C158 C159 1.389 . S
C159 C158 1.389 . S
C159 C160 1.399 . S
C159 H172 0.931 . S
C160 C159 1.399 . S
C160 C161 1.390 . S
C161 C156 1.392 . S
C161 C160 1.390 . S
C161 H173 0.929 . S
O162 Tb146 2.326 . S
O162 C150 1.242 . S
O163 Eu147 2.324 . S
O163 C150 1.258 . S
O164 Tb146 2.500 . S
O164 C166 1.273 . S
O165 Tb146 2.473 . S
O165 C166 1.257 . S
C166 O164 1.273 . S
C166 O165 1.257 . S
O167 Eu147 2.326 . S
O167 C155 1.242 . S
O168 Tb146 2.324 . S
O168 C155 1.258 . S
O169 Eu147 2.500 . S
O169 C152 1.273 . S
O170 Eu147 2.473 . S
O170 C152 1.257 . S
H171 C157 0.929 . S
H172 C159 0.931 . S
H173 C161 0.929 . S
O174 Tb175 2.292 . S
O174 C177 1.255 . S
Tb175 O174 2.292 . S
Tb175 O191 2.326 . S
Tb175 O193 2.500 . S
Tb175 O194 2.473 . S
Tb175 O197 2.324 . S
Eu176 O180 2.292 . S
Eu176 C181 2.852 . S
Eu176 O192 2.324 . S
Eu176 O196 2.326 . S
Eu176 O198 2.500 . S
Eu176 O199 2.473 . S
C177 O174 1.255 . S
C177 O178 1.247 . S
O178 C177 1.247 . S
C179 O191 1.242 . S
C179 O192 1.258 . S
O180 Eu176 2.292 . S
O180 C182 1.255 . S
C181 Eu176 2.852 . S
C181 C185 1.503 . S
C181 O198 1.273 . S
C181 O199 1.257 . S
C182 O180 1.255 . S
C182 O183 1.247 . S
O183 C182 1.247 . S
C184 O196 1.242 . S
C184 O197 1.258 . S
C185 C181 1.503 . S
C185 C186 1.379 . S
C185 C190 1.392 . S
C186 C185 1.379 . S
C186 C187 1.404 . S
C186 H200 0.929 . S
C187 C186 1.404 . S
C187 C188 1.389 . S
C188 C187 1.389 . S
C188 C189 1.399 . S
C188 H201 0.931 . S
C189 C188 1.399 . S
C189 C190 1.390 . S
C190 C185 1.392 . S
C190 C189 1.390 . S
C190 H202 0.929 . S
O191 Tb175 2.326 . S
O191 C179 1.242 . S
O192 Eu176 2.324 . S
O192 C179 1.258 . S
O193 Tb175 2.500 . S
O193 C195 1.273 . S
O194 Tb175 2.473 . S
O194 C195 1.257 . S
C195 O193 1.273 . S
C195 O194 1.257 . S
O196 Eu176 2.326 . S
O196 C184 1.242 . S
O197 Tb175 2.324 . S
O197 C184 1.258 . S
O198 Eu176 2.500 . S
O198 C181 1.273 . S
O199 Eu176 2.473 . S
O199 C181 1.257 . S
H200 C186 0.929 . S
H201 C188 0.931 . S
H202 C190 0.929 . S
O203 Tb204 2.292 . S
O203 C206 1.255 . S
Tb204 O203 2.292 . S
Tb204 O220 2.326 . S
Tb204 O222 2.500 . S
Tb204 O223 2.473 . S
Tb204 O226 2.324 . S
Eu205 O209 2.292 . S
Eu205 C210 2.852 . S
Eu205 O221 2.324 . S
Eu205 O225 2.326 . S
Eu205 O227 2.500 . S
Eu205 O228 2.473 . S
C206 O203 1.255 . S
C206 O207 1.247 . S
O207 C206 1.247 . S
C208 O220 1.242 . S
C208 O221 1.258 . S
O209 Eu205 2.292 . S
O209 C211 1.255 . S
C210 Eu205 2.852 . S
C210 C214 1.503 . S
C210 O227 1.273 . S
C210 O228 1.257 . S
C211 O209 1.255 . S
C211 O212 1.247 . S
O212 C211 1.247 . S
C213 O225 1.242 . S
C213 O226 1.258 . S
C214 C210 1.503 . S
C214 C215 1.379 . S
C214 C219 1.392 . S
C215 C214 1.379 . S
C215 C216 1.404 . S
C215 H229 0.929 . S
C216 C215 1.404 . S
C216 C217 1.389 . S
C217 C216 1.389 . S
C217 C218 1.399 . S
C217 H230 0.931 . S
C218 C217 1.399 . S
C218 C219 1.390 . S
C219 C214 1.392 . S
C219 C218 1.390 . S
C219 H231 0.929 . S
O220 Tb204 2.326 . S
O220 C208 1.242 . S
O221 Eu205 2.324 . S
O221 C208 1.258 . S
O222 Tb204 2.500 . S
O222 C224 1.273 . S
O223 Tb204 2.473 . S
O223 C224 1.257 . S
C224 O222 1.273 . S
C224 O223 1.257 . S
O225 Eu205 2.326 . S
O225 C213 1.242 . S
O226 Tb204 2.324 . S
O226 C213 1.258 . S
O227 Eu205 2.500 . S
O227 C210 1.273 . S
O228 Eu205 2.473 . S
O228 C210 1.257 . S
H229 C215 0.929 . S
H230 C217 0.931 . S
H231 C219 0.929 . S
H232 C250 0.951 . S
H233 C252 0.951 1_565 S
H234 C254 0.950 . S
H235 C255 0.950 . S
H236 C257 0.950 . S
H237 C260 0.950 . S
H238 C261 0.950 . S
H239 C263 0.950 . S
H240 C264 0.950 . S
H241 C265 0.951 . S
H242 C267 0.951 . S
H243 C269 0.950 . S
H244 C270 0.950 . S
H245 C272 0.950 . S
H246 C275 0.950 . S
H247 C276 0.950 . S
H248 C278 0.950 . S
H249 C279 0.950 . S
C250 H232 0.951 . S
C250 C251 1.366 . S
C250 C252 1.388 . S
C251 C250 1.366 . S
C251 C255 1.385 . S
C252 H233 0.951 1_545 S
C252 C250 1.388 . S
C252 C253 1.366 1_545 S
C253 C252 1.366 1_565 S
C253 C254 1.414 1_565 S
C253 C256 1.499 . S
C254 H234 0.950 . S
C254 C253 1.414 1_545 S
C254 C255 1.374 . S
C255 H235 0.950 . S
C255 C251 1.385 . S
C255 C254 1.374 . S
C256 C253 1.499 . S
C256 C257 1.373 . S
C256 C258 1.389 . S
C257 H236 0.950 . S
C257 C256 1.373 . S
C257 C273 1.377 . S
C258 C256 1.389 . S
C258 C259 1.524 . S
C258 C272 1.377 . S
C259 C258 1.524 . S
C259 C260 1.397 . S
C259 C264 1.363 . S
C260 H237 0.950 . S
C260 C259 1.397 . S
C260 C261 1.334 . S
C261 H238 0.950 . S
C261 C260 1.334 . S
C261 C262 1.287 . S
C262 C261 1.287 . S
C262 C263 1.524 . S
C262 H281 0.913 . S
C263 H239 0.950 . S
C263 C262 1.524 . S
C263 C264 1.415 . S
C264 H240 0.950 . S
C264 C259 1.363 . S
C264 C263 1.415 . S
C265 H241 0.951 . S
C265 C266 1.366 . S
C265 C267 1.388 . S
C266 C265 1.366 . S
C266 C270 1.385 . S
C267 H242 0.951 . S
C267 C265 1.388 . S
C267 C268 1.366 . S
C268 C267 1.366 . S
C268 C269 1.414 . S
C268 C271 1.499 . S
C269 H243 0.950 . S
C269 C268 1.414 . S
C269 C270 1.374 . S
C270 H244 0.950 . S
C270 C266 1.385 . S
C270 C269 1.374 . S
C271 C268 1.499 . S
C271 C272 1.373 . S
C271 C273 1.389 . S
C272 H245 0.950 . S
C272 C258 1.377 . S
C272 C271 1.373 . S
C273 C257 1.377 . S
C273 C271 1.389 . S
C273 C274 1.524 . S
C274 C273 1.524 . S
C274 C275 1.397 . S
C274 C279 1.363 . S
C275 H246 0.950 . S
C275 C274 1.397 . S
C275 C276 1.334 . S
C276 H247 0.950 . S
C276 C275 1.334 . S
C276 C277 1.287 . S
C277 C276 1.287 . S
C277 C278 1.524 . S
C277 H280 0.999 . S
C278 H248 0.950 . S
C278 C277 1.524 . S
C278 C279 1.415 . S
C279 H249 0.950 . S
C279 C274 1.363 . S
C279 C278 1.415 . S
H280 C277 0.999 . S
H281 C262 0.913 . S
H282 C300 0.951 . S
H283 C302 0.951 . S
H284 C304 0.950 . S
H285 C305 0.950 . S
H286 C307 0.950 . S
H287 C310 0.950 . S
H288 C311 0.950 . S
H289 C313 0.950 . S
H290 C314 0.950 . S
H291 C315 0.951 . S
H292 C317 0.951 . S
H293 C319 0.950 . S
H294 C320 0.950 . S
H295 C322 0.950 . S
H296 C325 0.950 . S
H297 C326 0.950 . S
H298 C328 0.950 . S
H299 C329 0.950 . S
C300 H282 0.951 . S
C300 C301 1.366 . S
C300 C302 1.388 . S
C301 C300 1.366 . S
C301 C305 1.385 . S
C302 H283 0.951 . S
C302 C300 1.388 . S
C302 C303 1.366 . S
C303 C302 1.366 . S
C303 C304 1.414 . S
C303 C306 1.499 1_455 S
C304 H284 0.950 . S
C304 C303 1.414 . S
C304 C305 1.374 . S
C305 H285 0.950 . S
C305 C301 1.385 . S
C305 C304 1.374 . S
C306 C303 1.499 1_655 S
C306 C307 1.373 . S
C306 C308 1.389 . S
C307 H286 0.950 . S
C307 C306 1.373 . S
C307 C323 1.377 . S
C308 C306 1.389 . S
C308 C309 1.524 . S
C308 C322 1.377 . S
C309 C308 1.524 . S
C309 C310 1.397 . S
C309 C314 1.363 . S
C310 H287 0.950 . S
C310 C309 1.397 . S
C310 C311 1.334 . S
C311 H288 0.950 . S
C311 C310 1.334 . S
C311 C312 1.287 . S
C312 C311 1.287 . S
C312 C313 1.524 . S
C312 H331 0.913 . S
C313 H289 0.950 . S
C313 C312 1.524 . S
C313 C314 1.415 . S
C314 H290 0.950 . S
C314 C309 1.363 . S
C314 C313 1.415 . S
C315 H291 0.951 . S
C315 C316 1.366 . S
C315 C317 1.388 . S
C316 C315 1.366 . S
C316 C320 1.385 . S
C317 H292 0.951 . S
C317 C315 1.388 . S
C317 C318 1.366 . S
C318 C317 1.366 . S
C318 C319 1.414 . S
C318 C321 1.499 . S
C319 H293 0.950 . S
C319 C318 1.414 . S
C319 C320 1.374 . S
C320 H294 0.950 . S
C320 C316 1.385 . S
C320 C319 1.374 . S
C321 C318 1.499 . S
C321 C322 1.373 . S
C321 C323 1.389 . S
C322 H295 0.950 . S
C322 C308 1.377 . S
C322 C321 1.373 . S
C323 C307 1.377 . S
C323 C321 1.389 . S
C323 C324 1.524 . S
C324 C323 1.524 . S
C324 C325 1.397 . S
C324 C329 1.363 . S
C325 H296 0.950 . S
C325 C324 1.397 . S
C325 C326 1.334 . S
C326 H297 0.950 . S
C326 C325 1.334 . S
C326 C327 1.287 . S
C327 C326 1.287 . S
C327 C328 1.524 . S
C327 H330 0.999 . S
C328 H298 0.950 . S
C328 C327 1.524 . S
C328 C329 1.415 . S
C329 H299 0.950 . S
C329 C324 1.363 . S
C329 C328 1.415 . S
H330 C327 0.999 . S
H331 C312 0.913 . S
H332 C350 0.951 . S
H333 C352 0.951 . S
H334 C354 0.950 . S
H335 C355 0.950 . S
H336 C357 0.950 . S
H337 C360 0.950 . S
H338 C361 0.950 . S
H339 C363 0.950 . S
H340 C364 0.950 . S
H341 C365 0.951 . S
H342 C367 0.951 . S
H343 C369 0.939 1_545 S
H344 C370 0.950 . S
H345 C372 0.950 . S
H346 C375 0.950 . S
H347 C376 0.955 . S
H348 C378 0.950 . S
H349 C379 0.950 . S
C350 H332 0.951 . S
C350 C351 1.366 . S
C350 C352 1.388 . S
C351 C350 1.366 . S
C351 C355 1.385 . S
C352 H333 0.951 . S
C352 C350 1.388 . S
C352 C353 1.366 . S
C353 C352 1.366 . S
C353 C354 1.414 . S
C353 C356 1.499 . S
C354 H334 0.950 . S
C354 C353 1.414 . S
C354 C355 1.374 . S
C355 H335 0.950 . S
C355 C351 1.385 . S
C355 C354 1.374 . S
C356 C353 1.499 . S
C356 C357 1.373 . S
C356 C358 1.389 . S
C357 H336 0.950 . S
C357 C356 1.373 . S
C357 C373 1.377 . S
C358 C356 1.389 . S
C358 C359 1.524 . S
C358 C372 1.377 . S
C359 C358 1.524 . S
C359 C360 1.397 . S
C359 C364 1.363 . S
C360 H337 0.950 . S
C360 C359 1.397 . S
C360 C361 1.334 . S
C361 H338 0.950 . S
C361 C360 1.334 . S
C361 C362 1.287 . S
C362 C361 1.287 . S
C362 C363 1.524 . S
C362 H381 0.913 . S
C363 H339 0.950 . S
C363 C362 1.524 . S
C363 C364 1.415 . S
C364 H340 0.950 . S
C364 C359 1.363 . S
C364 C363 1.415 . S
C365 H341 0.951 . S
C365 C366 1.366 . S
C365 C367 1.388 . S
C366 C365 1.366 . S
C366 C370 1.385 . S
C367 H342 0.951 . S
C367 C365 1.388 . S
C367 C368 1.366 1_565 S
C368 C367 1.366 1_545 S
C368 C369 1.411 1_545 S
C368 C371 1.499 . S
C369 H343 0.939 1_565 S
C369 C368 1.411 1_565 S
C369 C370 1.388 . S
C370 H344 0.950 . S
C370 C366 1.385 . S
C370 C369 1.388 . S
C371 C368 1.499 . S
C371 C372 1.373 . S
C371 C373 1.389 . S
C372 H345 0.950 . S
C372 C358 1.377 . S
C372 C371 1.373 . S
C373 C357 1.377 . S
C373 C371 1.389 . S
C373 C374 1.524 . S
C374 C373 1.524 . S
C374 C375 1.397 . S
C374 C379 1.363 . S
C375 H346 0.950 . S
C375 C374 1.397 . S
C375 C376 1.328 1_545 S
C376 H347 0.955 . S
C376 C375 1.328 1_565 S
C376 C377 1.288 . S
C377 C376 1.288 . S
C377 C378 1.524 1_565 S
C377 H380 0.999 . S
C378 H348 0.950 . S
C378 C377 1.524 1_545 S
C378 C379 1.415 . S
C379 H349 0.950 . S
C379 C374 1.363 . S
C379 C378 1.415 . S
H380 C377 0.999 . S
H381 C362 0.913 . S
H382 C400 0.951 . S
H383 C402 0.951 . S
H384 C404 0.950 . S
H385 C405 0.950 . S
H386 C407 0.950 . S
H387 C410 0.950 . S
H388 C411 0.950 . S
H389 C413 0.950 . S
H390 C414 0.950 . S
H391 C415 0.951 . S
H392 C417 0.951 . S
H393 C419 0.950 . S
H394 C420 0.950 . S
H395 C422 0.950 . S
H396 C425 0.950 . S
H397 C426 0.950 . S
H398 C428 0.950 . S
H399 C429 0.950 . S
C400 H382 0.951 . S
C400 C401 1.366 . S
C400 C402 1.388 . S
C401 C400 1.366 . S
C401 C405 1.385 . S
C402 H383 0.951 . S
C402 C400 1.388 . S
C402 C403 1.366 . S
C403 C402 1.366 . S
C403 C404 1.414 . S
C403 C406 1.499 1_655 S
C404 H384 0.950 . S
C404 C403 1.414 . S
C404 C405 1.374 . S
C405 H385 0.950 . S
C405 C401 1.385 . S
C405 C404 1.374 . S
C406 C403 1.499 1_455 S
C406 C407 1.373 . S
C406 C408 1.389 . S
C407 H386 0.950 . S
C407 C406 1.373 . S
C407 C423 1.377 . S
C408 C406 1.389 . S
C408 C409 1.524 . S
C408 C422 1.377 . S
C409 C408 1.524 . S
C409 C410 1.397 . S
C409 C414 1.363 . S
C410 H387 0.950 . S
C410 C409 1.397 . S
C410 C411 1.334 . S
C411 H388 0.950 . S
C411 C410 1.334 . S
C411 C412 1.287 . S
C412 C411 1.287 . S
C412 C413 1.524 . S
C412 H431 0.913 . S
C413 H389 0.950 . S
C413 C412 1.524 . S
C413 C414 1.415 . S
C414 H390 0.950 . S
C414 C409 1.363 . S
C414 C413 1.415 . S
C415 H391 0.951 . S
C415 C416 1.366 . S
C415 C417 1.388 . S
C416 C415 1.366 . S
C416 C420 1.385 . S
C417 H392 0.951 . S
C417 C415 1.388 . S
C417 C418 1.366 . S
C418 C417 1.366 . S
C418 C419 1.414 . S
C418 C421 1.499 . S
C419 H393 0.950 . S
C419 C418 1.414 . S
C419 C420 1.374 . S
C420 H394 0.950 . S
C420 C416 1.385 . S
C420 C419 1.374 . S
C421 C418 1.499 . S
C421 C422 1.373 . S
C421 C423 1.389 . S
C422 H395 0.950 . S
C422 C408 1.377 . S
C422 C421 1.373 . S
C423 C407 1.377 . S
C423 C421 1.389 . S
C423 C424 1.524 . S
C424 C423 1.524 . S
C424 C425 1.397 . S
C424 C429 1.363 . S
C425 H396 0.950 . S
C425 C424 1.397 . S
C425 C426 1.334 . S
C426 H397 0.950 . S
C426 C425 1.334 . S
C426 C427 1.287 . S
C427 C426 1.287 . S
C427 C428 1.524 . S
C427 H430 0.999 . S
C428 H398 0.950 . S
C428 C427 1.524 . S
C428 C429 1.415 . S
C429 H399 0.950 . S
C429 C424 1.363 . S
C429 C428 1.415 . S
H430 C427 0.999 . S
H431 C412 0.913 . S
H432 C450 0.951 . S
H433 C452 0.951 . S
H434 C454 0.922 1_545 S
H435 C455 0.950 . S
H436 C457 0.950 . S
H437 C460 0.950 . S
H438 C461 0.950 . S
H439 C463 0.947 1_565 S
H440 C464 0.950 . S
H441 C465 0.951 . S
H442 C467 0.951 . S
H443 C469 0.950 . S
H444 C470 0.950 . S
H445 C472 0.950 . S
H446 C475 0.950 . S
H447 C476 0.950 . S
H448 C478 0.950 . S
H449 C479 0.950 . S
C450 H432 0.951 . S
C450 C451 1.366 . S
C450 C452 1.388 . S
C451 C450 1.366 . S
C451 C455 1.385 . S
C452 H433 0.951 . S
C452 C450 1.388 . S
C452 C453 1.366 1_565 S
C453 C452 1.366 1_545 S
C453 C454 1.407 1_545 S
C453 C456 1.499 . S
C454 H434 0.922 1_565 S
C454 C453 1.407 1_565 S
C454 C455 1.410 . S
C455 H435 0.950 . S
C455 C451 1.385 . S
C455 C454 1.410 . S
C456 C453 1.499 . S
C456 C457 1.373 . S
C456 C458 1.389 . S
C457 H436 0.950 . S
C457 C456 1.373 . S
C457 C473 1.377 . S
C458 C456 1.389 . S
C458 C459 1.524 . S
C458 C472 1.377 . S
C459 C458 1.524 . S
C459 C460 1.397 . S
C459 C464 1.363 . S
C460 H437 0.950 . S
C460 C459 1.397 . S
C460 C461 1.334 1_545 S
C461 H438 0.950 . S
C461 C460 1.334 1_565 S
C461 C462 1.287 . S
C462 C461 1.287 . S
C462 C463 1.520 1_565 S
C462 H481 0.913 . S
C463 H439 0.947 1_545 S
C463 C462 1.520 1_545 S
C463 C464 1.422 . S
C464 H440 0.950 . S
C464 C459 1.363 . S
C464 C463 1.422 . S
C465 H441 0.951 . S
C465 C466 1.366 . S
C465 C467 1.388 . S
C466 C465 1.366 . S
C466 C470 1.385 . S
C467 H442 0.951 . S
C467 C465 1.388 . S
C467 C468 1.366 . S
C468 C467 1.366 . S
C468 C469 1.414 . S
C468 C471 1.499 . S
C469 H443 0.950 . S
C469 C468 1.414 . S
C469 C470 1.374 . S
C470 H444 0.950 . S
C470 C466 1.385 . S
C470 C469 1.374 . S
C471 C468 1.499 . S
C471 C472 1.373 . S
C471 C473 1.389 . S
C472 H445 0.950 . S
C472 C458 1.377 . S
C472 C471 1.373 . S
C473 C457 1.377 . S
C473 C471 1.389 . S
C473 C474 1.524 . S
C474 C473 1.524 . S
C474 C475 1.397 . S
C474 C479 1.363 . S
C475 H446 0.950 . S
C475 C474 1.397 . S
C475 C476 1.334 . S
C476 H447 0.950 . S
C476 C475 1.334 . S
C476 C477 1.287 . S
C477 C476 1.287 . S
C477 C478 1.524 . S
C477 H480 0.999 . S
C478 H448 0.950 . S
C478 C477 1.524 . S
C478 C479 1.415 . S
C479 H449 0.950 . S
C479 C474 1.363 . S
C479 C478 1.415 . S
H480 C477 0.999 . S
H481 C462 0.913 . S
H482 C500 0.951 . S
H483 C502 0.951 . S
H484 C504 0.950 . S
H485 C505 0.950 . S
H486 C507 0.950 . S
H487 C510 0.950 . S
H488 C511 0.950 . S
H489 C513 0.950 . S
H490 C514 0.950 . S
H491 C515 0.951 . S
H492 C517 0.951 . S
H493 C519 0.950 . S
H494 C520 0.950 . S
H495 C522 0.950 . S
H496 C525 0.950 . S
H497 C526 0.950 . S
H498 C528 0.950 . S
H499 C529 0.950 . S
C500 H482 0.951 . S
C500 C501 1.366 . S
C500 C502 1.388 . S
C501 C500 1.366 . S
C501 C505 1.385 . S
C502 H483 0.951 . S
C502 C500 1.388 . S
C502 C503 1.366 . S
C503 C502 1.366 . S
C503 C504 1.414 . S
C503 C506 1.499 . S
C504 H484 0.950 . S
C504 C503 1.414 . S
C504 C505 1.374 . S
C505 H485 0.950 . S
C505 C501 1.385 . S
C505 C504 1.374 . S
C506 C503 1.499 . S
C506 C507 1.373 . S
C506 C508 1.389 . S
C507 H486 0.950 . S
C507 C506 1.373 . S
C507 C523 1.377 . S
C508 C506 1.389 . S
C508 C509 1.524 . S
C508 C522 1.377 . S
C509 C508 1.524 . S
C509 C510 1.397 . S
C509 C514 1.363 . S
C510 H487 0.950 . S
C510 C509 1.397 . S
C510 C511 1.334 . S
C511 H488 0.950 . S
C511 C510 1.334 . S
C511 C512 1.287 . S
C512 C511 1.287 . S
C512 C513 1.524 . S
C512 H531 0.913 . S
C513 H489 0.950 . S
C513 C512 1.524 . S
C513 C514 1.415 . S
C514 H490 0.950 . S
C514 C509 1.363 . S
C514 C513 1.415 . S
C515 H491 0.951 . S
C515 C516 1.366 . S
C515 C517 1.388 . S
C516 C515 1.366 . S
C516 C520 1.385 . S
C517 H492 0.951 . S
C517 C515 1.388 . S
C517 C518 1.366 . S
C518 C517 1.366 . S
C518 C519 1.414 . S
C518 C521 1.499 1_655 S
C519 H493 0.950 . S
C519 C518 1.414 . S
C519 C520 1.374 . S
C520 H494 0.950 . S
C520 C516 1.385 . S
C520 C519 1.374 . S
C521 C518 1.499 1_455 S
C521 C522 1.373 . S
C521 C523 1.389 . S
C522 H495 0.950 . S
C522 C508 1.377 . S
C522 C521 1.373 . S
C523 C507 1.377 . S
C523 C521 1.389 . S
C523 C524 1.524 . S
C524 C523 1.524 . S
C524 C525 1.397 . S
C524 C529 1.363 . S
C525 H496 0.950 . S
C525 C524 1.397 . S
C525 C526 1.334 . S
C526 H497 0.950 . S
C526 C525 1.334 . S
C526 C527 1.287 . S
C527 C526 1.287 . S
C527 C528 1.524 . S
C527 H530 0.999 . S
C528 H498 0.950 . S
C528 C527 1.524 . S
C528 C529 1.415 . S
C529 H499 0.950 . S
C529 C524 1.363 . S
C529 C528 1.415 . S
H530 C527 0.999 . S
H531 C512 0.913 . S
H532 C550 0.951 . S
H533 C552 0.951 1_565 S
H534 C554 0.950 . S
H535 C555 0.950 . S
H536 C557 0.950 . S
H537 C560 0.950 1_545 S
H538 C561 0.950 . S
H539 C563 0.950 . S
H540 C564 0.950 . S
H541 C565 0.951 . S
H542 C567 0.951 . S
H543 C569 0.950 . S
H544 C570 0.950 . S
H545 C572 0.950 . S
H546 C575 0.950 . S
H547 C576 0.950 . S
H548 C578 0.950 . S
H549 C579 0.950 . S
C550 H532 0.951 . S
C550 C551 1.366 . S
C550 C552 1.388 . S
C551 C550 1.366 . S
C551 C555 1.385 . S
C552 H533 0.951 1_545 S
C552 C550 1.388 . S
C552 C553 1.366 1_545 S
C553 C552 1.366 1_565 S
C553 C554 1.414 1_565 S
C553 C556 1.499 . S
C554 H534 0.950 . S
C554 C553 1.414 1_545 S
C554 C555 1.374 . S
C555 H535 0.950 . S
C555 C551 1.385 . S
C555 C554 1.374 . S
C556 C553 1.499 . S
C556 C557 1.373 . S
C556 C558 1.389 . S
C557 H536 0.950 . S
C557 C556 1.373 . S
C557 C573 1.377 . S
C558 C556 1.389 . S
C558 C559 1.524 . S
C558 C572 1.377 . S
C559 C558 1.524 . S
C559 C560 1.397 . S
C559 C564 1.363 . S
C560 H537 0.950 1_565 S
C560 C559 1.397 . S
C560 C561 1.334 1_565 S
C561 H538 0.950 . S
C561 C560 1.334 1_545 S
C561 C562 1.287 . S
C562 C561 1.287 . S
C562 C563 1.524 1_545 S
C562 H581 0.913 . S
C563 H539 0.950 . S
C563 C562 1.524 1_565 S
C563 C564 1.415 . S
C564 H540 0.950 . S
C564 C559 1.363 . S
C564 C563 1.415 . S
C565 H541 0.951 . S
C565 C566 1.366 . S
C565 C567 1.388 . S
C566 C565 1.366 . S
C566 C570 1.385 . S
C567 H542 0.951 . S
C567 C565 1.388 . S
C567 C568 1.366 . S
C568 C567 1.366 . S
C568 C569 1.414 . S
C568 C571 1.499 . S
C569 H543 0.950 . S
C569 C568 1.414 . S
C569 C570 1.374 . S
C570 H544 0.950 . S
C570 C566 1.385 . S
C570 C569 1.374 . S
C571 C568 1.499 . S
C571 C572 1.373 . S
C571 C573 1.389 . S
C572 H545 0.950 . S
C572 C558 1.377 . S
C572 C571 1.373 . S
C573 C557 1.377 . S
C573 C571 1.389 . S
C573 C574 1.524 . S
C574 C573 1.524 . S
C574 C575 1.397 . S
C574 C579 1.363 . S
C575 H546 0.950 . S
C575 C574 1.397 . S
C575 C576 1.334 . S
C576 H547 0.950 . S
C576 C575 1.334 . S
C576 C577 1.287 . S
C577 C576 1.287 . S
C577 C578 1.524 . S
C577 H580 0.999 . S
C578 H548 0.950 . S
C578 C577 1.524 . S
C578 C579 1.415 . S
C579 H549 0.950 . S
C579 C574 1.363 . S
C579 C578 1.415 . S
H580 C577 0.999 . S
H581 C562 0.913 . S
H582 C600 0.951 . S
H583 C602 0.951 . S
H584 C604 0.950 . S
H585 C605 0.950 . S
H586 C607 0.950 . S
H587 C610 0.950 . S
H588 C611 0.950 . S
H589 C613 0.950 . S
H590 C614 0.950 . S
H591 C615 0.951 . S
H592 C617 0.951 1_655 S
H593 C619 0.950 . S
H594 C620 0.950 . S
H595 C622 0.950 . S
H596 C625 0.950 . S
H597 C626 0.950 1_455 S
H598 C628 0.950 . S
H599 C629 0.950 . S
C600 H582 0.951 . S
C600 C601 1.366 . S
C600 C602 1.388 . S
C601 C600 1.366 . S
C601 C605 1.385 . S
C602 H583 0.951 . S
C602 C600 1.388 . S
C602 C603 1.366 . S
C603 C602 1.366 . S
C603 C604 1.414 . S
C603 C606 1.499 . S
C604 H584 0.950 . S
C604 C603 1.414 . S
C604 C605 1.374 . S
C605 H585 0.950 . S
C605 C601 1.385 . S
C605 C604 1.374 . S
C606 C603 1.499 . S
C606 C607 1.373 . S
C606 C608 1.389 . S
C607 H586 0.950 . S
C607 C606 1.373 . S
C607 C623 1.377 . S
C608 C606 1.389 . S
C608 C609 1.524 . S
C608 C622 1.377 . S
C609 C608 1.524 . S
C609 C610 1.397 . S
C609 C614 1.363 . S
C610 H587 0.950 . S
C610 C609 1.397 . S
C610 C611 1.334 . S
C611 H588 0.950 . S
C611 C610 1.334 . S
C611 C612 1.287 . S
C612 C611 1.287 . S
C612 C613 1.524 . S
C612 H631 0.913 . S
C613 H589 0.950 . S
C613 C612 1.524 . S
C613 C614 1.415 . S
C614 H590 0.950 . S
C614 C609 1.363 . S
C614 C613 1.415 . S
C615 H591 0.951 . S
C615 C616 1.366 . S
C615 C617 1.388 . S
C616 C615 1.366 . S
C616 C620 1.385 . S
C617 H592 0.951 1_455 S
C617 C615 1.388 . S
C617 C618 1.366 . S
C618 C617 1.366 . S
C618 C619 1.414 . S
C618 C621 1.499 1_455 S
C619 H593 0.950 . S
C619 C618 1.414 . S
C619 C620 1.374 . S
C620 H594 0.950 . S
C620 C616 1.385 . S
C620 C619 1.374 . S
C621 C618 1.499 1_655 S
C621 C622 1.373 . S
C621 C623 1.389 . S
C622 H595 0.950 . S
C622 C608 1.377 . S
C622 C621 1.373 . S
C623 C607 1.377 . S
C623 C621 1.389 . S
C623 C624 1.524 . S
C624 C623 1.524 . S
C624 C625 1.397 . S
C624 C629 1.363 . S
C625 H596 0.950 . S
C625 C624 1.397 . S
C625 C626 1.334 . S
C626 H597 0.950 1_655 S
C626 C625 1.334 . S
C626 C627 1.287 . S
C627 C626 1.287 . S
C627 C628 1.524 . S
C627 H630 0.999 . S
C628 H598 0.950 . S
C628 C627 1.524 . S
C628 C629 1.415 . S
C629 H599 0.950 . S
C629 C624 1.363 . S
C629 C628 1.415 . S
H630 C627 0.999 . S
H631 C612 0.913 . S
H632 C650 0.951 . S
H633 C652 0.951 . S
H634 C654 0.950 . S
H635 C655 0.950 . S
H636 C657 0.950 . S
H637 C660 0.950 . S
H638 C661 0.950 . S
H639 C663 0.950 . S
H640 C664 0.950 . S
H641 C665 0.951 . S
H642 C667 0.951 . S
H643 C669 0.950 . S
H644 C670 0.950 . S
H645 C672 0.950 . S
H646 C675 0.950 . S
H647 C676 0.950 . S
H648 C678 0.950 . S
H649 C679 0.950 . S
C650 H632 0.951 . S
C650 C651 1.366 . S
C650 C652 1.388 . S
C651 C650 1.366 . S
C651 C655 1.385 . S
C652 H633 0.951 . S
C652 C650 1.388 . S
C652 C653 1.366 . S
C653 C652 1.366 . S
C653 C654 1.414 . S
C653 C656 1.499 . S
C654 H634 0.950 . S
C654 C653 1.414 . S
C654 C655 1.374 . S
C655 H635 0.950 . S
C655 C651 1.385 . S
C655 C654 1.374 . S
C656 C653 1.499 . S
C656 C657 1.373 . S
C656 C658 1.389 . S
C657 H636 0.950 . S
C657 C656 1.373 . S
C657 C673 1.377 . S
C658 C656 1.389 . S
C658 C659 1.524 . S
C658 C672 1.377 . S
C659 C658 1.524 . S
C659 C660 1.397 . S
C659 C664 1.363 . S
C660 H637 0.950 . S
C660 C659 1.397 . S
C660 C661 1.334 . S
C661 H638 0.950 . S
C661 C660 1.334 . S
C661 C662 1.287 . S
C662 C661 1.287 . S
C662 C663 1.524 . S
C662 H681 0.913 . S
C663 H639 0.950 . S
C663 C662 1.524 . S
C663 C664 1.415 . S
C664 H640 0.950 . S
C664 C659 1.363 . S
C664 C663 1.415 . S
C665 H641 0.951 . S
C665 C666 1.366 . S
C665 C667 1.388 . S
C666 C665 1.366 . S
C666 C670 1.385 . S
C667 H642 0.951 . S
C667 C665 1.388 . S
C667 C668 1.366 . S
C668 C667 1.366 . S
C668 C669 1.414 . S
C668 C671 1.499 . S
C669 H643 0.950 . S
C669 C668 1.414 . S
C669 C670 1.374 . S
C670 H644 0.950 . S
C670 C666 1.385 . S
C670 C669 1.374 . S
C671 C668 1.499 . S
C671 C672 1.373 . S
C671 C673 1.389 . S
C672 H645 0.950 . S
C672 C658 1.377 . S
C672 C671 1.373 . S
C673 C657 1.377 . S
C673 C671 1.389 . S
C673 C674 1.524 . S
C674 C673 1.524 . S
C674 C675 1.397 . S
C674 C679 1.363 . S
C675 H646 0.950 . S
C675 C674 1.397 . S
C675 C676 1.334 . S
C676 H647 0.950 . S
C676 C675 1.334 . S
C676 C677 1.287 . S
C677 C676 1.287 . S
C677 C678 1.524 . S
C677 H680 0.999 . S
C678 H648 0.950 . S
C678 C677 1.524 . S
C678 C679 1.415 . S
C679 H649 0.950 . S
C679 C674 1.363 . S
C679 C678 1.415 . S
H680 C677 0.999 . S
H681 C662 0.913 . S
H682 C700 0.951 . S
H683 C702 0.951 . S
H684 C704 0.950 . S
H685 C705 0.950 . S
H686 C707 0.950 . S
H687 C710 0.950 . S
H688 C711 0.950 . S
H689 C713 0.950 . S
H690 C714 0.950 . S
H691 C715 0.951 . S
H692 C717 0.951 . S
H693 C719 0.950 . S
H694 C720 0.950 . S
H695 C722 0.950 . S
H696 C725 0.950 . S
H697 C726 0.950 . S
H698 C728 0.950 . S
H699 C729 0.950 . S
C700 H682 0.951 . S
C700 C701 1.366 . S
C700 C702 1.388 . S
C701 C700 1.366 . S
C701 C705 1.385 . S
C702 H683 0.951 . S
C702 C700 1.388 . S
C702 C703 1.366 . S
C703 C702 1.366 . S
C703 C704 1.414 . S
C703 C706 1.499 . S
C704 H684 0.950 . S
C704 C703 1.414 . S
C704 C705 1.374 . S
C705 H685 0.950 . S
C705 C701 1.385 . S
C705 C704 1.374 . S
C706 C703 1.499 . S
C706 C707 1.373 . S
C706 C708 1.389 . S
C707 H686 0.950 . S
C707 C706 1.373 . S
C707 C723 1.377 . S
C708 C706 1.389 . S
C708 C709 1.524 . S
C708 C722 1.377 . S
C709 C708 1.524 . S
C709 C710 1.397 . S
C709 C714 1.363 . S
C710 H687 0.950 . S
C710 C709 1.397 . S
C710 C711 1.334 . S
C711 H688 0.950 . S
C711 C710 1.334 . S
C711 C712 1.287 . S
C712 C711 1.287 . S
C712 C713 1.524 . S
C712 H731 0.913 . S
C713 H689 0.950 . S
C713 C712 1.524 . S
C713 C714 1.415 . S
C714 H690 0.950 . S
C714 C709 1.363 . S
C714 C713 1.415 . S
C715 H691 0.951 . S
C715 C716 1.366 . S
C715 C717 1.388 . S
C716 C715 1.366 . S
C716 C720 1.385 . S
C717 H692 0.951 . S
C717 C715 1.388 . S
C717 C718 1.366 . S
C718 C717 1.366 . S
C718 C719 1.414 . S
C718 C721 1.499 . S
C719 H693 0.950 . S
C719 C718 1.414 . S
C719 C720 1.374 . S
C720 H694 0.950 . S
C720 C716 1.385 . S
C720 C719 1.374 . S
C721 C718 1.499 . S
C721 C722 1.373 . S
C721 C723 1.389 . S
C722 H695 0.950 . S
C722 C708 1.377 . S
C722 C721 1.373 . S
C723 C707 1.377 . S
C723 C721 1.389 . S
C723 C724 1.524 . S
C724 C723 1.524 . S
C724 C725 1.397 . S
C724 C729 1.363 . S
C725 H696 0.950 . S
C725 C724 1.397 . S
C725 C726 1.334 . S
C726 H697 0.950 . S
C726 C725 1.334 . S
C726 C727 1.287 . S
C727 C726 1.287 . S
C727 C728 1.524 . S
C727 H730 0.999 . S
C728 H698 0.950 . S
C728 C727 1.524 . S
C728 C729 1.415 . S
C729 H699 0.950 . S
C729 C724 1.363 . S
C729 C728 1.415 . S
H730 C727 0.999 . S
H731 C712 0.913 . S
H732 C750 0.951 . S
H733 C752 0.951 . S
H734 C754 0.950 . S
H735 C755 0.950 . S
H736 C757 0.950 . S
H737 C760 0.950 . S
H738 C761 0.950 . S
H739 C763 0.950 . S
H740 C764 0.950 . S
H741 C765 0.951 . S
H742 C767 0.951 . S
H743 C769 0.950 . S
H744 C770 0.950 . S
H745 C772 0.950 . S
H746 C775 0.950 . S
H747 C776 0.950 . S
H748 C778 0.950 . S
H749 C779 0.950 . S
C750 H732 0.951 . S
C750 C751 1.366 . S
C750 C752 1.388 . S
C751 C750 1.366 . S
C751 C755 1.385 . S
C752 H733 0.951 . S
C752 C750 1.388 . S
C752 C753 1.366 . S
C753 C752 1.366 . S
C753 C754 1.414 . S
C753 C756 1.499 . S
C754 H734 0.950 . S
C754 C753 1.414 . S
C754 C755 1.374 . S
C755 H735 0.950 . S
C755 C751 1.385 . S
C755 C754 1.374 . S
C756 C753 1.499 . S
C756 C757 1.373 . S
C756 C758 1.389 . S
C757 H736 0.950 . S
C757 C756 1.373 . S
C757 C773 1.377 . S
C758 C756 1.389 . S
C758 C759 1.524 . S
C758 C772 1.377 . S
C759 C758 1.524 . S
C759 C760 1.397 . S
C759 C764 1.363 . S
C760 H737 0.950 . S
C760 C759 1.397 . S
C760 C761 1.334 . S
C761 H738 0.950 . S
C761 C760 1.334 . S
C761 C762 1.287 . S
C762 C761 1.287 . S
C762 C763 1.524 . S
C762 H781 0.913 . S
C763 H739 0.950 . S
C763 C762 1.524 . S
C763 C764 1.415 . S
C764 H740 0.950 . S
C764 C759 1.363 . S
C764 C763 1.415 . S
C765 H741 0.951 . S
C765 C766 1.366 . S
C765 C767 1.388 . S
C766 C765 1.366 . S
C766 C770 1.385 . S
C767 H742 0.951 . S
C767 C765 1.388 . S
C767 C768 1.366 . S
C768 C767 1.366 . S
C768 C769 1.414 . S
C768 C771 1.499 . S
C769 H743 0.950 . S
C769 C768 1.414 . S
C769 C770 1.374 . S
C770 H744 0.950 . S
C770 C766 1.385 . S
C770 C769 1.374 . S
C771 C768 1.499 . S
C771 C772 1.373 . S
C771 C773 1.389 . S
C772 H745 0.950 . S
C772 C758 1.377 . S
C772 C771 1.373 . S
C773 C757 1.377 . S
C773 C771 1.389 . S
C773 C774 1.524 . S
C774 C773 1.524 . S
C774 C775 1.397 . S
C774 C779 1.363 . S
C775 H746 0.950 . S
C775 C774 1.397 . S
C775 C776 1.334 . S
C776 H747 0.950 . S
C776 C775 1.334 . S
C776 C777 1.287 . S
C777 C776 1.287 . S
C777 C778 1.524 . S
C777 H780 0.999 . S
C778 H748 0.950 . S
C778 C777 1.524 . S
C778 C779 1.415 . S
C779 H749 0.950 . S
C779 C774 1.363 . S
C779 C778 1.415 . S
H780 C777 0.999 . S
H781 C762 0.913 . S
H782 C800 0.951 . S
H783 C802 0.951 . S
H784 C804 0.950 . S
H785 C805 0.950 . S
H786 C807 0.950 . S
H787 C810 0.950 . S
H788 C811 0.950 . S
H789 C813 0.950 . S
H790 C814 0.950 . S
H791 C815 0.951 . S
H792 C817 0.951 . S
H793 C819 0.950 . S
H794 C820 0.950 . S
H795 C822 0.950 . S
H796 C825 0.950 . S
H797 C826 0.950 . S
H798 C828 0.950 . S
H799 C829 0.950 . S
C800 H782 0.951 . S
C800 C801 1.366 . S
C800 C802 1.388 . S
C801 C800 1.366 . S
C801 C805 1.385 . S
C802 H783 0.951 . S
C802 C800 1.388 . S
C802 C803 1.366 . S
C803 C802 1.366 . S
C803 C804 1.414 . S
C803 C806 1.499 . S
C804 H784 0.950 . S
C804 C803 1.414 . S
C804 C805 1.374 . S
C805 H785 0.950 . S
C805 C801 1.385 . S
C805 C804 1.374 . S
C806 C803 1.499 . S
C806 C807 1.373 . S
C806 C808 1.389 . S
C807 H786 0.950 . S
C807 C806 1.373 . S
C807 C823 1.377 . S
C808 C806 1.389 . S
C808 C809 1.524 . S
C808 C822 1.377 . S
C809 C808 1.524 . S
C809 C810 1.397 . S
C809 C814 1.363 . S
C810 H787 0.950 . S
C810 C809 1.397 . S
C810 C811 1.334 . S
C811 H788 0.950 . S
C811 C810 1.334 . S
C811 C812 1.287 . S
C812 C811 1.287 . S
C812 C813 1.524 . S
C812 H831 0.913 . S
C813 H789 0.950 . S
C813 C812 1.524 . S
C813 C814 1.415 . S
C814 H790 0.950 . S
C814 C809 1.363 . S
C814 C813 1.415 . S
C815 H791 0.951 . S
C815 C816 1.366 . S
C815 C817 1.388 . S
C816 C815 1.366 . S
C816 C820 1.385 . S
C817 H792 0.951 . S
C817 C815 1.388 . S
C817 C818 1.366 . S
C818 C817 1.366 . S
C818 C819 1.414 . S
C818 C821 1.499 . S
C819 H793 0.950 . S
C819 C818 1.414 . S
C819 C820 1.374 . S
C820 H794 0.950 . S
C820 C816 1.385 . S
C820 C819 1.374 . S
C821 C818 1.499 . S
C821 C822 1.373 . S
C821 C823 1.389 . S
C822 H795 0.950 . S
C822 C808 1.377 . S
C822 C821 1.373 . S
C823 C807 1.377 . S
C823 C821 1.389 . S
C823 C824 1.524 . S
C824 C823 1.524 . S
C824 C825 1.397 . S
C824 C829 1.363 . S
C825 H796 0.950 . S
C825 C824 1.397 . S
C825 C826 1.334 . S
C826 H797 0.950 . S
C826 C825 1.334 . S
C826 C827 1.287 . S
C827 C826 1.287 . S
C827 C828 1.524 . S
C827 H830 0.999 . S
C828 H798 0.950 . S
C828 C827 1.524 . S
C828 C829 1.415 . S
C829 H799 0.950 . S
C829 C824 1.363 . S
C829 C828 1.415 . S
H830 C827 0.999 . S
H831 C812 0.913 . S
H832 C850 0.951 . S
H833 C852 0.951 . S
H834 C854 0.950 . S
H835 C855 0.950 . S
H836 C857 0.950 . S
H837 C860 0.950 . S
H838 C861 0.950 . S
H839 C863 0.950 . S
H840 C864 0.950 . S
H841 C865 0.951 . S
H842 C867 0.951 . S
H843 C869 0.950 . S
H844 C870 0.950 . S
H845 C872 0.950 . S
H846 C875 0.950 . S
H847 C876 0.950 . S
H848 C878 0.950 . S
H849 C879 0.950 . S
C850 H832 0.951 . S
C850 C851 1.366 . S
C850 C852 1.388 . S
C851 C850 1.366 . S
C851 C855 1.385 . S
C852 H833 0.951 . S
C852 C850 1.388 . S
C852 C853 1.366 . S
C853 C852 1.366 . S
C853 C854 1.414 . S
C853 C856 1.499 . S
C854 H834 0.950 . S
C854 C853 1.414 . S
C854 C855 1.374 . S
C855 H835 0.950 . S
C855 C851 1.385 . S
C855 C854 1.374 . S
C856 C853 1.499 . S
C856 C857 1.373 . S
C856 C858 1.389 . S
C857 H836 0.950 . S
C857 C856 1.373 . S
C857 C873 1.377 . S
C858 C856 1.389 . S
C858 C859 1.524 . S
C858 C872 1.377 . S
C859 C858 1.524 . S
C859 C860 1.397 . S
C859 C864 1.363 . S
C860 H837 0.950 . S
C860 C859 1.397 . S
C860 C861 1.334 . S
C861 H838 0.950 . S
C861 C860 1.334 . S
C861 C862 1.287 . S
C862 C861 1.287 . S
C862 C863 1.524 . S
C862 H881 0.913 . S
C863 H839 0.950 . S
C863 C862 1.524 . S
C863 C864 1.415 . S
C864 H840 0.950 . S
C864 C859 1.363 . S
C864 C863 1.415 . S
C865 H841 0.951 . S
C865 C866 1.366 . S
C865 C867 1.388 . S
C866 C865 1.366 . S
C866 C870 1.385 . S
C867 H842 0.951 . S
C867 C865 1.388 . S
C867 C868 1.366 . S
C868 C867 1.366 . S
C868 C869 1.414 . S
C868 C871 1.499 . S
C869 H843 0.950 . S
C869 C868 1.414 . S
C869 C870 1.374 . S
C870 H844 0.950 . S
C870 C866 1.385 . S
C870 C869 1.374 . S
C871 C868 1.499 . S
C871 C872 1.373 . S
C871 C873 1.389 . S
C872 H845 0.950 . S
C872 C858 1.377 . S
C872 C871 1.373 . S
C873 C857 1.377 . S
C873 C871 1.389 . S
C873 C874 1.524 . S
C874 C873 1.524 . S
C874 C875 1.397 . S
C874 C879 1.363 . S
C875 H846 0.950 . S
C875 C874 1.397 . S
C875 C876 1.334 . S
C876 H847 0.950 . S
C876 C875 1.334 . S
C876 C877 1.287 . S
C877 C876 1.287 . S
C877 C878 1.524 . S
C877 H880 0.999 . S
C878 H848 0.950 . S
C878 C877 1.524 . S
C878 C879 1.415 . S
C879 H849 0.950 . S
C879 C874 1.363 . S
C879 C878 1.415 . S
H880 C877 0.999 . S
H881 C862 0.913 . S
H882 C900 0.951 . S
H883 C902 0.951 . S
H884 C904 0.950 . S
H885 C905 0.950 . S
H886 C907 0.950 . S
H887 C910 0.950 . S
H888 C911 0.950 . S
H889 C913 0.950 . S
H890 C914 0.950 . S
H891 C915 0.951 . S
H892 C917 0.951 . S
H893 C919 0.950 . S
H894 C920 0.950 . S
H895 C922 0.950 . S
H896 C925 0.950 . S
H897 C926 0.950 . S
H898 C928 0.950 . S
H899 C929 0.950 . S
C900 H882 0.951 . S
C900 C901 1.366 . S
C900 C902 1.388 . S
C901 C900 1.366 . S
C901 C905 1.385 . S
C902 H883 0.951 . S
C902 C900 1.388 . S
C902 C903 1.366 . S
C903 C902 1.366 . S
C903 C904 1.414 . S
C903 C906 1.499 . S
C904 H884 0.950 . S
C904 C903 1.414 . S
C904 C905 1.374 . S
C905 H885 0.950 . S
C905 C901 1.385 . S
C905 C904 1.374 . S
C906 C903 1.499 . S
C906 C907 1.373 . S
C906 C908 1.389 . S
C907 H886 0.950 . S
C907 C906 1.373 . S
C907 C923 1.377 . S
C908 C906 1.389 . S
C908 C909 1.524 . S
C908 C922 1.377 . S
C909 C908 1.524 . S
C909 C910 1.397 . S
C909 C914 1.363 . S
C910 H887 0.950 . S
C910 C909 1.397 . S
C910 C911 1.334 . S
C911 H888 0.950 . S
C911 C910 1.334 . S
C911 C912 1.287 . S
C912 C911 1.287 . S
C912 C913 1.524 . S
C912 H931 0.913 . S
C913 H889 0.950 . S
C913 C912 1.524 . S
C913 C914 1.415 . S
C914 H890 0.950 . S
C914 C909 1.363 . S
C914 C913 1.415 . S
C915 H891 0.951 . S
C915 C916 1.366 . S
C915 C917 1.388 . S
C916 C915 1.366 . S
C916 C920 1.385 . S
C917 H892 0.951 . S
C917 C915 1.388 . S
C917 C918 1.366 . S
C918 C917 1.366 . S
C918 C919 1.414 . S
C918 C921 1.499 . S
C919 H893 0.950 . S
C919 C918 1.414 . S
C919 C920 1.374 . S
C920 H894 0.950 . S
C920 C916 1.385 . S
C920 C919 1.374 . S
C921 C918 1.499 . S
C921 C922 1.373 . S
C921 C923 1.389 . S
C922 H895 0.950 . S
C922 C908 1.377 . S
C922 C921 1.373 . S
C923 C907 1.377 . S
C923 C921 1.389 . S
C923 C924 1.524 . S
C924 C923 1.524 . S
C924 C925 1.397 . S
C924 C929 1.363 . S
C925 H896 0.950 . S
C925 C924 1.397 . S
C925 C926 1.334 . S
C926 H897 0.950 . S
C926 C925 1.334 . S
C926 C927 1.287 . S
C927 C926 1.287 . S
C927 C928 1.524 . S
C927 H930 0.999 . S
C928 H898 0.950 . S
C928 C927 1.524 . S
C928 C929 1.415 . S
C929 H899 0.950 . S
C929 C924 1.363 . S
C929 C928 1.415 . S
H930 C927 0.999 . S
H931 C912 0.913 . S
H932 C950 0.951 . S
H933 C952 0.951 . S
H934 C954 0.950 . S
H935 C955 0.950 . S
H936 C957 0.950 . S
H937 C960 0.950 . S
H938 C961 0.950 . S
H939 C963 0.950 . S
H940 C964 0.950 . S
H941 C965 0.951 . S
H942 C967 0.951 . S
H943 C969 0.950 . S
H944 C970 0.950 . S
H945 C972 0.950 . S
H946 C975 0.950 . S
H947 C976 0.950 . S
H948 C978 0.950 . S
H949 C979 0.950 . S
C950 H932 0.951 . S
C950 C951 1.366 . S
C950 C952 1.388 . S
C951 C950 1.366 . S
C951 C955 1.385 . S
C952 H933 0.951 . S
C952 C950 1.388 . S
C952 C953 1.366 . S
C953 C952 1.366 . S
C953 C954 1.414 . S
C953 C956 1.499 . S
C954 H934 0.950 . S
C954 C953 1.414 . S
C954 C955 1.374 . S
C955 H935 0.950 . S
C955 C951 1.385 . S
C955 C954 1.374 . S
C956 C953 1.499 . S
C956 C957 1.373 . S
C956 C958 1.389 . S
C957 H936 0.950 . S
C957 C956 1.373 . S
C957 C973 1.377 . S
C958 C956 1.389 . S
C958 C959 1.524 . S
C958 C972 1.377 . S
C959 C958 1.524 . S
C959 C960 1.397 . S
C959 C964 1.363 . S
C960 H937 0.950 . S
C960 C959 1.397 . S
C960 C961 1.334 . S
C961 H938 0.950 . S
C961 C960 1.334 . S
C961 C962 1.287 . S
C962 C961 1.287 . S
C962 C963 1.524 . S
C962 H981 0.913 . S
C963 H939 0.950 . S
C963 C962 1.524 . S
C963 C964 1.415 . S
C964 H940 0.950 . S
C964 C959 1.363 . S
C964 C963 1.415 . S
C965 H941 0.951 . S
C965 C966 1.366 . S
C965 C967 1.388 . S
C966 C965 1.366 . S
C966 C970 1.385 . S
C967 H942 0.951 . S
C967 C965 1.388 . S
C967 C968 1.366 . S
C968 C967 1.366 . S
C968 C969 1.414 . S
C968 C971 1.499 . S
C969 H943 0.950 . S
C969 C968 1.414 . S
C969 C970 1.374 . S
C970 H944 0.950 . S
C970 C966 1.385 . S
C970 C969 1.374 . S
C971 C968 1.499 . S
C971 C972 1.373 . S
C971 C973 1.389 . S
C972 H945 0.950 . S
C972 C958 1.377 . S
C972 C971 1.373 . S
C973 C957 1.377 . S
C973 C971 1.389 . S
C973 C974 1.524 . S
C974 C973 1.524 . S
C974 C975 1.397 . S
C974 C979 1.363 . S
C975 H946 0.950 . S
C975 C974 1.397 . S
C975 C976 1.334 . S
C976 H947 0.950 . S
C976 C975 1.334 . S
C976 C977 1.287 . S
C977 C976 1.287 . S
C977 C978 1.524 . S
C977 H980 0.999 . S
C978 H948 0.950 . S
C978 C977 1.524 . S
C978 C979 1.415 . S
C979 H949 0.950 . S
C979 C974 1.363 . S
C979 C978 1.415 . S
H980 C977 0.999 . S
H981 C962 0.913 . S
H982 C1000 0.951 . S
H983 C1002 0.951 . S
H984 C1004 0.950 . S
H985 C1005 0.950 . S
H986 C1007 0.950 . S
H987 C1010 0.950 . S
H988 C1011 0.950 . S
H989 C1013 0.950 . S
H990 C1014 0.950 . S
H991 C1015 0.951 . S
H992 C1017 0.951 . S
H993 C1019 0.950 . S
H994 C1020 0.950 . S
H995 C1022 0.950 . S
H996 C1025 0.950 . S
H997 C1026 0.950 . S
H998 C1028 0.950 . S
H999 C1029 0.950 . S
C1000 H982 0.951 . S
C1000 C1001 1.366 . S
C1000 C1002 1.388 . S
C1001 C1000 1.366 . S
C1001 C1005 1.385 . S
C1002 H983 0.951 . S
C1002 C1000 1.388 . S
C1002 C1003 1.366 . S
C1003 C1002 1.366 . S
C1003 C1004 1.414 . S
C1003 C1006 1.499 . S
C1004 H984 0.950 . S
C1004 C1003 1.414 . S
C1004 C1005 1.374 . S
C1005 H985 0.950 . S
C1005 C1001 1.385 . S
C1005 C1004 1.374 . S
C1006 C1003 1.499 . S
C1006 C1007 1.373 . S
C1006 C1008 1.389 . S
C1007 H986 0.950 . S
C1007 C1006 1.373 . S
C1007 C1023 1.377 . S
C1008 C1006 1.389 . S
C1008 C1009 1.524 . S
C1008 C1022 1.377 . S
C1009 C1008 1.524 . S
C1009 C1010 1.397 . S
C1009 C1014 1.363 . S
C1010 H987 0.950 . S
C1010 C1009 1.397 . S
C1010 C1011 1.334 . S
C1011 H988 0.950 . S
C1011 C1010 1.334 . S
C1011 C1012 1.287 . S
C1012 C1011 1.287 . S
C1012 C1013 1.524 . S
C1012 H1031 0.913 . S
C1013 H989 0.950 . S
C1013 C1012 1.524 . S
C1013 C1014 1.415 . S
C1014 H990 0.950 . S
C1014 C1009 1.363 . S
C1014 C1013 1.415 . S
C1015 H991 0.951 . S
C1015 C1016 1.366 . S
C1015 C1017 1.388 . S
C1016 C1015 1.366 . S
C1016 C1020 1.385 . S
C1017 H992 0.951 . S
C1017 C1015 1.388 . S
C1017 C1018 1.366 . S
C1018 C1017 1.366 . S
C1018 C1019 1.414 . S
C1018 C1021 1.499 . S
C1019 H993 0.950 . S
C1019 C1018 1.414 . S
C1019 C1020 1.374 . S
C1020 H994 0.950 . S
C1020 C1016 1.385 . S
C1020 C1019 1.374 . S
C1021 C1018 1.499 . S
C1021 C1022 1.373 . S
C1021 C1023 1.389 . S
C1022 H995 0.950 . S
C1022 C1008 1.377 . S
C1022 C1021 1.373 . S
C1023 C1007 1.377 . S
C1023 C1021 1.389 . S
C1023 C1024 1.524 . S
C1024 C1023 1.524 . S
C1024 C1025 1.397 . S
C1024 C1029 1.363 . S
C1025 H996 0.950 . S
C1025 C1024 1.397 . S
C1025 C1026 1.334 . S
C1026 H997 0.950 . S
C1026 C1025 1.334 . S
C1026 C1027 1.287 . S
C1027 C1026 1.287 . S
C1027 C1028 1.524 . S
C1027 H1030 0.999 . S
C1028 H998 0.950 . S
C1028 C1027 1.524 . S
C1028 C1029 1.415 . S
C1029 H999 0.950 . S
C1029 C1024 1.363 . S
C1029 C1028 1.415 . S
H1030 C1027 0.999 . S
H1031 C1012 0.913 . S
H1032 C1050 0.951 . S
H1033 C1052 0.951 . S
H1034 C1054 0.950 . S
H1035 C1055 0.950 . S
H1036 C1057 0.950 . S
H1037 C1060 0.950 . S
H1038 C1061 0.950 . S
H1039 C1063 0.950 1_565 S
H1040 C1064 0.950 . S
H1041 C1065 0.951 . S
H1042 C1067 0.951 . S
H1043 C1069 0.950 . S
H1044 C1070 0.950 . S
H1045 C1072 0.950 . S
H1046 C1075 0.950 . S
H1047 C1076 0.950 . S
H1048 C1078 0.950 1_545 S
H1049 C1079 0.950 . S
C1050 H1032 0.951 . S
C1050 C1051 1.366 . S
C1050 C1052 1.388 . S
C1051 C1050 1.366 . S
C1051 C1055 1.385 . S
C1052 H1033 0.951 . S
C1052 C1050 1.388 . S
C1052 C1053 1.366 . S
C1053 C1052 1.366 . S
C1053 C1054 1.414 . S
C1053 C1056 1.499 . S
C1054 H1034 0.950 . S
C1054 C1053 1.414 . S
C1054 C1055 1.374 . S
C1055 H1035 0.950 . S
C1055 C1051 1.385 . S
C1055 C1054 1.374 . S
C1056 C1053 1.499 . S
C1056 C1057 1.373 . S
C1056 C1058 1.389 . S
C1057 H1036 0.950 . S
C1057 C1056 1.373 . S
C1057 C1073 1.377 1_445 S
C1058 C1056 1.389 . S
C1058 C1059 1.524 . S
C1058 C1072 1.377 1_445 S
C1059 C1058 1.524 . S
C1059 C1060 1.397 . S
C1059 C1064 1.363 1_545 S
C1060 H1037 0.950 . S
C1060 C1059 1.397 . S
C1060 C1061 1.334 . S
C1061 H1038 0.950 . S
C1061 C1060 1.334 . S
C1061 C1062 1.287 . S
C1062 C1061 1.287 . S
C1062 C1063 1.524 . S
C1062 H1081 0.913 1_554 S
C1063 H1039 0.950 1_545 S
C1063 C1062 1.524 . S
C1063 C1064 1.415 1_545 S
C1064 H1040 0.950 . S
C1064 C1059 1.363 1_565 S
C1064 C1063 1.415 1_565 S
C1065 H1041 0.951 . S
C1065 C1066 1.366 . S
C1065 C1067 1.388 . S
C1066 C1065 1.366 . S
C1066 C1070 1.385 . S
C1067 H1042 0.951 . S
C1067 C1065 1.388 . S
C1067 C1068 1.366 . S
C1068 C1067 1.366 . S
C1068 C1069 1.414 . S
C1068 C1071 1.499 . S
C1069 H1043 0.950 . S
C1069 C1068 1.414 . S
C1069 C1070 1.374 . S
C1070 H1044 0.950 . S
C1070 C1066 1.385 . S
C1070 C1069 1.374 . S
C1071 C1068 1.499 . S
C1071 C1072 1.373 . S
C1071 C1073 1.389 . S
C1072 H1045 0.950 . S
C1072 C1058 1.377 1_665 S
C1072 C1071 1.373 . S
C1073 C1057 1.377 1_665 S
C1073 C1071 1.389 . S
C1073 C1074 1.524 . S
C1074 C1073 1.524 . S
C1074 C1075 1.397 . S
C1074 C1079 1.363 1_565 S
C1075 H1046 0.950 . S
C1075 C1074 1.397 . S
C1075 C1076 1.334 . S
C1076 H1047 0.950 . S
C1076 C1075 1.334 . S
C1076 C1077 1.287 . S
C1077 C1076 1.287 . S
C1077 C1078 1.524 . S
C1077 H1080 0.999 . S
C1078 H1048 0.950 1_565 S
C1078 C1077 1.524 . S
C1078 C1079 1.415 1_565 S
C1079 H1049 0.950 . S
C1079 C1074 1.363 1_545 S
C1079 C1078 1.415 1_545 S
H1080 C1077 0.999 . S
H1081 C1062 0.913 1_556 S
H1082 C1100 0.951 . S
H1083 C1102 0.951 . S
H1084 C1104 0.950 . S
H1085 C1105 0.950 . S
H1086 C1107 0.950 . S
H1087 C1110 0.950 . S
H1088 C1111 0.950 . S
H1089 C1113 0.950 . S
H1090 C1114 0.950 . S
H1091 C1115 0.951 . S
H1092 C1117 0.951 . S
H1093 C1119 0.950 . S
H1094 C1120 0.950 . S
H1095 C1122 0.950 . S
H1096 C1125 0.950 . S
H1097 C1126 0.950 . S
H1098 C1128 0.950 . S
H1099 C1129 0.950 . S
C1100 H1082 0.951 . S
C1100 C1101 1.366 . S
C1100 C1102 1.388 . S
C1101 C1100 1.366 . S
C1101 C1105 1.385 . S
C1102 H1083 0.951 . S
C1102 C1100 1.388 . S
C1102 C1103 1.366 . S
C1103 C1102 1.366 . S
C1103 C1104 1.414 . S
C1103 C1106 1.499 . S
C1104 H1084 0.950 . S
C1104 C1103 1.414 . S
C1104 C1105 1.374 . S
C1105 H1085 0.950 . S
C1105 C1101 1.385 . S
C1105 C1104 1.374 . S
C1106 C1103 1.499 . S
C1106 C1107 1.373 1_655 S
C1106 C1108 1.369 1_545 S
C1107 H1086 0.950 . S
C1107 C1106 1.373 1_455 S
C1107 C1123 1.396 . S
C1108 C1106 1.369 1_565 S
C1108 C1109 1.526 . S
C1108 C1122 1.396 . S
C1109 C1108 1.526 . S
C1109 C1110 1.397 1_565 S
C1109 C1114 1.363 . S
C1110 H1087 0.950 . S
C1110 C1109 1.397 1_545 S
C1110 C1111 1.334 . S
C1111 H1088 0.950 . S
C1111 C1110 1.334 . S
C1111 C1112 1.287 1_545 S
C1112 C1111 1.287 1_565 S
C1112 C1113 1.524 . S
C1112 H1131 0.914 . S
C1113 H1089 0.950 . S
C1113 C1112 1.524 . S
C1113 C1114 1.415 . S
C1114 H1090 0.950 . S
C1114 C1109 1.363 . S
C1114 C1113 1.415 . S
C1115 H1091 0.951 . S
C1115 C1116 1.366 . S
C1115 C1117 1.388 . S
C1116 C1115 1.366 . S
C1116 C1120 1.385 . S
C1117 H1092 0.951 . S
C1117 C1115 1.388 . S
C1117 C1118 1.366 . S
C1118 C1117 1.366 . S
C1118 C1119 1.414 . S
C1118 C1121 1.499 . S
C1119 H1093 0.950 . S
C1119 C1118 1.414 . S
C1119 C1120 1.374 . S
C1120 H1094 0.950 . S
C1120 C1116 1.385 . S
C1120 C1119 1.374 . S
C1121 C1118 1.499 . S
C1121 C1122 1.373 1_455 S
C1121 C1123 1.369 1_565 S
C1122 H1095 0.950 . S
C1122 C1108 1.396 . S
C1122 C1121 1.373 1_655 S
C1123 C1107 1.396 . S
C1123 C1121 1.369 1_545 S
C1123 C1124 1.526 . S
C1124 C1123 1.526 . S
C1124 C1125 1.397 1_545 S
C1124 C1129 1.363 . S
C1125 H1096 0.950 . S
C1125 C1124 1.397 1_565 S
C1125 C1126 1.334 . S
C1126 H1097 0.950 . S
C1126 C1125 1.334 . S
C1126 C1127 1.287 1_565 S
C1127 C1126 1.287 1_545 S
C1127 C1128 1.524 . S
C1127 H1130 0.999 . S
C1128 H1098 0.950 . S
C1128 C1127 1.524 . S
C1128 C1129 1.415 . S
C1129 H1099 0.950 . S
C1129 C1124 1.363 . S
C1129 C1128 1.415 . S
H1130 C1127 0.999 . S
H1131 C1112 0.914 . S
H1132 C1150 0.951 . S
H1133 C1152 0.951 . S
H1134 C1154 0.950 . S
H1135 C1155 0.950 . S
H1136 C1157 0.950 . S
H1137 C1160 0.950 . S
H1138 C1161 0.950 . S
H1139 C1163 0.950 . S
H1140 C1164 0.950 . S
H1141 C1165 0.951 . S
H1142 C1167 0.951 . S
H1143 C1169 0.950 . S
H1144 C1170 0.950 . S
H1145 C1172 0.950 . S
H1146 C1175 0.950 . S
H1147 C1176 0.950 . S
H1148 C1178 0.950 . S
H1149 C1179 0.950 . S
C1150 H1132 0.951 . S
C1150 C1151 1.366 . S
C1150 C1152 1.388 . S
C1151 C1150 1.366 . S
C1151 C1155 1.385 . S
C1152 H1133 0.951 . S
C1152 C1150 1.388 . S
C1152 C1153 1.366 . S
C1153 C1152 1.366 . S
C1153 C1154 1.414 . S
C1153 C1156 1.499 . S
C1154 H1134 0.950 . S
C1154 C1153 1.414 . S
C1154 C1155 1.374 . S
C1155 H1135 0.950 . S
C1155 C1151 1.385 . S
C1155 C1154 1.374 . S
C1156 C1153 1.499 . S
C1156 C1157 1.373 . S
C1156 C1158 1.389 . S
C1157 H1136 0.950 . S
C1157 C1156 1.373 . S
C1157 C1173 1.377 . S
C1158 C1156 1.389 . S
C1158 C1159 1.524 . S
C1158 C1172 1.377 . S
C1159 C1158 1.524 . S
C1159 C1160 1.397 . S
C1159 C1164 1.363 . S
C1160 H1137 0.950 . S
C1160 C1159 1.397 . S
C1160 C1161 1.334 . S
C1161 H1138 0.950 . S
C1161 C1160 1.334 . S
C1161 C1162 1.287 . S
C1162 C1161 1.287 . S
C1162 C1163 1.524 . S
C1162 H1181 0.913 . S
C1163 H1139 0.950 . S
C1163 C1162 1.524 . S
C1163 C1164 1.415 . S
C1164 H1140 0.950 . S
C1164 C1159 1.363 . S
C1164 C1163 1.415 . S
C1165 H1141 0.951 . S
C1165 C1166 1.366 . S
C1165 C1167 1.388 . S
C1166 C1165 1.366 . S
C1166 C1170 1.385 . S
C1167 H1142 0.951 . S
C1167 C1165 1.388 . S
C1167 C1168 1.366 . S
C1168 C1167 1.366 . S
C1168 C1169 1.414 . S
C1168 C1171 1.499 . S
C1169 H1143 0.950 . S
C1169 C1168 1.414 . S
C1169 C1170 1.374 . S
C1170 H1144 0.950 . S
C1170 C1166 1.385 . S
C1170 C1169 1.374 . S
C1171 C1168 1.499 . S
C1171 C1172 1.373 . S
C1171 C1173 1.389 . S
C1172 H1145 0.950 . S
C1172 C1158 1.377 . S
C1172 C1171 1.373 . S
C1173 C1157 1.377 . S
C1173 C1171 1.389 . S
C1173 C1174 1.524 . S
C1174 C1173 1.524 . S
C1174 C1175 1.397 . S
C1174 C1179 1.363 . S
C1175 H1146 0.950 . S
C1175 C1174 1.397 . S
C1175 C1176 1.334 . S
C1176 H1147 0.950 . S
C1176 C1175 1.334 . S
C1176 C1177 1.287 . S
C1177 C1176 1.287 . S
C1177 C1178 1.524 . S
C1177 H1180 0.999 . S
C1178 H1148 0.950 . S
C1178 C1177 1.524 . S
C1178 C1179 1.415 . S
C1179 H1149 0.950 . S
C1179 C1174 1.363 . S
C1179 C1178 1.415 . S
H1180 C1177 0.999 . S
H1181 C1162 0.913 . S
H1182 C1200 0.951 . S
H1183 C1202 0.951 . S
H1184 C1204 0.950 . S
H1185 C1205 0.950 . S
H1186 C1207 0.950 . S
H1187 C1210 0.950 . S
H1188 C1211 0.950 . S
H1189 C1213 0.950 . S
H1190 C1214 0.950 . S
H1191 C1215 0.951 . S
H1192 C1217 0.951 . S
H1193 C1219 0.950 . S
H1194 C1220 0.950 . S
H1195 C1222 0.950 . S
H1196 C1225 0.950 . S
H1197 C1226 0.950 . S
H1198 C1228 0.950 . S
H1199 C1229 0.950 . S
C1200 H1182 0.951 . S
C1200 C1201 1.366 . S
C1200 C1202 1.388 . S
C1201 C1200 1.366 . S
C1201 C1205 1.385 . S
C1202 H1183 0.951 . S
C1202 C1200 1.388 . S
C1202 C1203 1.366 . S
C1203 C1202 1.366 . S
C1203 C1204 1.414 . S
C1203 C1206 1.499 . S
C1204 H1184 0.950 . S
C1204 C1203 1.414 . S
C1204 C1205 1.374 . S
C1205 H1185 0.950 . S
C1205 C1201 1.385 . S
C1205 C1204 1.374 . S
C1206 C1203 1.499 . S
C1206 C1207 1.373 . S
C1206 C1208 1.389 . S
C1207 H1186 0.950 . S
C1207 C1206 1.373 . S
C1207 C1223 1.377 . S
C1208 C1206 1.389 . S
C1208 C1209 1.524 . S
C1208 C1222 1.377 . S
C1209 C1208 1.524 . S
C1209 C1210 1.397 . S
C1209 C1214 1.363 . S
C1210 H1187 0.950 . S
C1210 C1209 1.397 . S
C1210 C1211 1.334 . S
C1211 H1188 0.950 . S
C1211 C1210 1.334 . S
C1211 C1212 1.287 . S
C1212 C1211 1.287 . S
C1212 C1213 1.524 . S
C1212 H1231 0.913 . S
C1213 H1189 0.950 . S
C1213 C1212 1.524 . S
C1213 C1214 1.415 . S
C1214 H1190 0.950 . S
C1214 C1209 1.363 . S
C1214 C1213 1.415 . S
C1215 H1191 0.951 . S
C1215 C1216 1.366 . S
C1215 C1217 1.388 . S
C1216 C1215 1.366 . S
C1216 C1220 1.385 . S
C1217 H1192 0.951 . S
C1217 C1215 1.388 . S
C1217 C1218 1.366 . S
C1218 C1217 1.366 . S
C1218 C1219 1.414 . S
C1218 C1221 1.499 . S
C1219 H1193 0.950 . S
C1219 C1218 1.414 . S
C1219 C1220 1.374 . S
C1220 H1194 0.950 . S
C1220 C1216 1.385 . S
C1220 C1219 1.374 . S
C1221 C1218 1.499 . S
C1221 C1222 1.373 . S
C1221 C1223 1.389 . S
C1222 H1195 0.950 . S
C1222 C1208 1.377 . S
C1222 C1221 1.373 . S
C1223 C1207 1.377 . S
C1223 C1221 1.389 . S
C1223 C1224 1.524 . S
C1224 C1223 1.524 . S
C1224 C1225 1.397 . S
C1224 C1229 1.363 . S
C1225 H1196 0.950 . S
C1225 C1224 1.397 . S
C1225 C1226 1.334 . S
C1226 H1197 0.950 . S
C1226 C1225 1.334 . S
C1226 C1227 1.287 . S
C1227 C1226 1.287 . S
C1227 C1228 1.524 . S
C1227 H1230 0.999 . S
C1228 H1198 0.950 . S
C1228 C1227 1.524 . S
C1228 C1229 1.415 . S
C1229 H1199 0.950 . S
C1229 C1224 1.363 . S
C1229 C1228 1.415 . S
H1230 C1227 0.999 . S
H1231 C1212 0.913 . S
H1232 C1250 0.951 . S
H1233 C1252 0.951 . S
H1234 C1254 0.950 . S
H1235 C1255 0.950 . S
H1236 C1257 0.952 . S
H1237 C1260 0.950 . S
H1238 C1261 0.950 . S
H1239 C1263 0.950 . S
H1240 C1264 0.950 . S
H1241 C1265 0.951 . S
H1242 C1267 0.951 . S
H1243 C1269 0.950 . S
H1244 C1270 0.950 . S
H1245 C1272 0.952 . S
H1246 C1275 0.950 . S
H1247 C1276 0.950 . S
H1248 C1278 0.950 . S
H1249 C1279 0.950 . S
C1250 H1232 0.951 . S
C1250 C1251 1.366 . S
C1250 C1252 1.388 . S
C1251 C1250 1.366 . S
C1251 C1255 1.385 . S
C1252 H1233 0.951 . S
C1252 C1250 1.388 . S
C1252 C1253 1.366 . S
C1253 C1252 1.366 . S
C1253 C1254 1.414 . S
C1253 C1256 1.499 . S
C1254 H1234 0.950 . S
C1254 C1253 1.414 . S
C1254 C1255 1.374 . S
C1255 H1235 0.950 . S
C1255 C1251 1.385 . S
C1255 C1254 1.374 . S
C1256 C1253 1.499 . S
C1256 C1257 1.348 1_545 S
C1256 C1258 1.389 1_554 S
C1257 H1236 0.952 . S
C1257 C1256 1.348 1_565 S
C1257 C1273 1.401 . S
C1258 C1256 1.389 1_556 S
C1258 C1259 1.524 . S
C1258 C1272 1.401 . S
C1259 C1258 1.524 . S
C1259 C1260 1.397 . S
C1259 C1264 1.363 . S
C1260 H1237 0.950 . S
C1260 C1259 1.397 . S
C1260 C1261 1.334 . S
C1261 H1238 0.950 . S
C1261 C1260 1.334 . S
C1261 C1262 1.287 . S
C1262 C1261 1.287 . S
C1262 C1263 1.524 . S
C1262 H1281 0.913 . S
C1263 H1239 0.950 . S
C1263 C1262 1.524 . S
C1263 C1264 1.415 . S
C1264 H1240 0.950 . S
C1264 C1259 1.363 . S
C1264 C1263 1.415 . S
C1265 H1241 0.951 . S
C1265 C1266 1.366 . S
C1265 C1267 1.388 . S
C1266 C1265 1.366 . S
C1266 C1270 1.385 . S
C1267 H1242 0.951 . S
C1267 C1265 1.388 . S
C1267 C1268 1.366 . S
C1268 C1267 1.366 . S
C1268 C1269 1.414 . S
C1268 C1271 1.499 . S
C1269 H1243 0.950 . S
C1269 C1268 1.414 . S
C1269 C1270 1.374 . S
C1270 H1244 0.950 . S
C1270 C1266 1.385 . S
C1270 C1269 1.374 . S
C1271 C1268 1.499 . S
C1271 C1272 1.348 1_565 S
C1271 C1273 1.389 1_556 S
C1272 H1245 0.952 . S
C1272 C1258 1.401 . S
C1272 C1271 1.348 1_545 S
C1273 C1257 1.401 . S
C1273 C1271 1.389 1_554 S
C1273 C1274 1.524 . S
C1274 C1273 1.524 . S
C1274 C1275 1.397 . S
C1274 C1279 1.363 . S
C1275 H1246 0.950 . S
C1275 C1274 1.397 . S
C1275 C1276 1.334 . S
C1276 H1247 0.950 . S
C1276 C1275 1.334 . S
C1276 C1277 1.287 . S
C1277 C1276 1.287 . S
C1277 C1278 1.524 . S
C1277 H1280 0.999 . S
C1278 H1248 0.950 . S
C1278 C1277 1.524 . S
C1278 C1279 1.415 . S
C1279 H1249 0.950 . S
C1279 C1274 1.363 . S
C1279 C1278 1.415 . S
H1280 C1277 0.999 . S
H1281 C1262 0.913 . S
H1282 C1300 0.951 . S
H1283 C1302 0.951 . S
H1284 C1304 0.950 . S
H1285 C1305 0.950 . S
H1286 C1307 0.950 . S
H1287 C1310 0.950 . S
H1288 C1311 0.950 . S
H1289 C1313 0.950 . S
H1290 C1314 0.950 . S
H1291 C1315 0.951 . S
H1292 C1317 0.951 . S
H1293 C1319 0.950 . S
H1294 C1320 0.950 . S
H1295 C1322 0.950 . S
H1296 C1325 0.950 . S
H1297 C1326 0.950 . S
H1298 C1328 0.950 . S
H1299 C1329 0.950 . S
C1300 H1282 0.951 . S
C1300 C1301 1.366 . S
C1300 C1302 1.388 . S
C1301 C1300 1.366 . S
C1301 C1305 1.385 . S
C1302 H1283 0.951 . S
C1302 C1300 1.388 . S
C1302 C1303 1.366 . S
C1303 C1302 1.366 . S
C1303 C1304 1.414 . S
C1303 C1306 1.499 . S
C1304 H1284 0.950 . S
C1304 C1303 1.414 . S
C1304 C1305 1.374 . S
C1305 H1285 0.950 . S
C1305 C1301 1.385 . S
C1305 C1304 1.374 . S
C1306 C1303 1.499 . S
C1306 C1307 1.373 1_455 S
C1306 C1308 1.389 1_556 S
C1307 H1286 0.950 . S
C1307 C1306 1.373 1_655 S
C1307 C1323 1.377 . S
C1308 C1306 1.389 1_554 S
C1308 C1309 1.524 . S
C1308 C1322 1.377 . S
C1309 C1308 1.524 . S
C1309 C1310 1.397 1_554 S
C1309 C1314 1.363 . S
C1310 H1287 0.950 . S
C1310 C1309 1.397 1_556 S
C1310 C1311 1.334 . S
C1311 H1288 0.950 . S
C1311 C1310 1.334 . S
C1311 C1312 1.287 1_556 S
C1312 C1311 1.287 1_554 S
C1312 C1313 1.524 . S
C1312 H1331 0.913 . S
C1313 H1289 0.950 . S
C1313 C1312 1.524 . S
C1313 C1314 1.415 . S
C1314 H1290 0.950 . S
C1314 C1309 1.363 . S
C1314 C1313 1.415 . S
C1315 H1291 0.951 . S
C1315 C1316 1.366 . S
C1315 C1317 1.388 . S
C1316 C1315 1.366 . S
C1316 C1320 1.385 . S
C1317 H1292 0.951 . S
C1317 C1315 1.388 . S
C1317 C1318 1.366 . S
C1318 C1317 1.366 . S
C1318 C1319 1.414 . S
C1318 C1321 1.499 . S
C1319 H1293 0.950 . S
C1319 C1318 1.414 . S
C1319 C1320 1.374 . S
C1320 H1294 0.950 . S
C1320 C1316 1.385 . S
C1320 C1319 1.374 . S
C1321 C1318 1.499 . S
C1321 C1322 1.373 1_655 S
C1321 C1323 1.389 1_554 S
C1322 H1295 0.950 . S
C1322 C1308 1.377 . S
C1322 C1321 1.373 1_455 S
C1323 C1307 1.377 . S
C1323 C1321 1.389 1_556 S
C1323 C1324 1.524 . S
C1324 C1323 1.524 . S
C1324 C1325 1.397 1_556 S
C1324 C1329 1.363 . S
C1325 H1296 0.950 . S
C1325 C1324 1.397 1_554 S
C1325 C1326 1.334 . S
C1326 H1297 0.950 . S
C1326 C1325 1.334 . S
C1326 C1327 1.287 1_554 S
C1327 C1326 1.287 1_556 S
C1327 C1328 1.524 . S
C1327 H1330 0.999 . S
C1328 H1298 0.950 . S
C1328 C1327 1.524 . S
C1328 C1329 1.415 . S
C1329 H1299 0.950 . S
C1329 C1324 1.363 . S
C1329 C1328 1.415 . S
H1330 C1327 0.999 . S
H1331 C1312 0.913 . S
H1332 C1350 0.951 . S
H1333 C1352 0.951 . S
H1334 C1354 0.950 . S
H1335 C1355 0.950 . S
H1336 C1357 0.950 . S
H1337 C1360 0.950 . S
H1338 C1361 0.950 1_545 S
H1339 C1363 0.950 . S
H1340 C1364 0.950 . S
H1341 C1365 0.951 . S
H1342 C1367 0.951 . S
H1343 C1369 0.950 . S
H1344 C1370 0.950 . S
H1345 C1372 0.950 . S
H1346 C1375 0.950 . S
H1347 C1376 0.950 1_565 S
H1348 C1378 0.950 . S
H1349 C1379 0.950 . S
C1350 H1332 0.951 . S
C1350 C1351 1.366 . S
C1350 C1352 1.388 . S
C1351 C1350 1.366 . S
C1351 C1355 1.385 . S
C1352 H1333 0.951 . S
C1352 C1350 1.388 . S
C1352 C1353 1.366 . S
C1353 C1352 1.366 . S
C1353 C1354 1.414 . S
C1353 C1356 1.499 . S
C1354 H1334 0.950 . S
C1354 C1353 1.414 . S
C1354 C1355 1.374 . S
C1355 H1335 0.950 . S
C1355 C1351 1.385 . S
C1355 C1354 1.374 . S
C1356 C1353 1.499 . S
C1356 C1357 1.373 1_556 S
C1356 C1358 1.389 1_545 S
C1357 H1336 0.950 . S
C1357 C1356 1.373 1_554 S
C1357 C1373 1.377 . S
C1358 C1356 1.389 1_565 S
C1358 C1359 1.524 . S
C1358 C1372 1.377 . S
C1359 C1358 1.524 . S
C1359 C1360 1.397 1_565 S
C1359 C1364 1.363 . S
C1360 H1337 0.950 . S
C1360 C1359 1.397 1_545 S
C1360 C1361 1.334 1_545 S
C1361 H1338 0.950 1_565 S
C1361 C1360 1.334 1_565 S
C1361 C1362 1.287 . S
C1362 C1361 1.287 . S
C1362 C1363 1.524 . S
C1362 H1381 0.913 . S
C1363 H1339 0.950 . S
C1363 C1362 1.524 . S
C1363 C1364 1.415 . S
C1364 H1340 0.950 . S
C1364 C1359 1.363 . S
C1364 C1363 1.415 . S
C1365 H1341 0.951 . S
C1365 C1366 1.366 . S
C1365 C1367 1.388 . S
C1366 C1365 1.366 . S
C1366 C1370 1.385 . S
C1367 H1342 0.951 . S
C1367 C1365 1.388 . S
C1367 C1368 1.366 . S
C1368 C1367 1.366 . S
C1368 C1369 1.414 . S
C1368 C1371 1.499 . S
C1369 H1343 0.950 . S
C1369 C1368 1.414 . S
C1369 C1370 1.374 . S
C1370 H1344 0.950 . S
C1370 C1366 1.385 . S
C1370 C1369 1.374 . S
C1371 C1368 1.499 . S
C1371 C1372 1.373 1_554 S
C1371 C1373 1.389 1_565 S
C1372 H1345 0.950 . S
C1372 C1358 1.377 . S
C1372 C1371 1.373 1_556 S
C1373 C1357 1.377 . S
C1373 C1371 1.389 1_545 S
C1373 C1374 1.524 . S
C1374 C1373 1.524 . S
C1374 C1375 1.397 1_545 S
C1374 C1379 1.363 . S
C1375 H1346 0.950 . S
C1375 C1374 1.397 1_565 S
C1375 C1376 1.334 1_565 S
C1376 H1347 0.950 1_545 S
C1376 C1375 1.334 1_545 S
C1376 C1377 1.287 . S
C1377 C1376 1.287 . S
C1377 C1378 1.524 . S
C1377 H1380 0.999 . S
C1378 H1348 0.950 . S
C1378 C1377 1.524 . S
C1378 C1379 1.415 . S
C1379 H1349 0.950 . S
C1379 C1374 1.363 . S
C1379 C1378 1.415 . S
H1380 C1377 0.999 . S
H1381 C1362 0.913 . S
H1382 C1400 0.951 . S
H1383 C1402 0.951 . S
H1384 C1404 0.950 . S
H1385 C1405 0.950 . S
H1386 C1407 0.950 . S
H1387 C1410 0.953 . S
H1388 C1411 0.950 . S
H1389 C1413 0.950 . S
H1390 C1414 0.950 1_655 S
H1391 C1415 0.951 . S
H1392 C1417 0.951 . S
H1393 C1419 0.950 . S
H1394 C1420 0.950 . S
H1395 C1422 0.950 . S
H1396 C1425 0.953 . S
H1397 C1426 0.950 . S
H1398 C1428 0.950 . S
H1399 C1429 0.950 1_455 S
C1400 H1382 0.951 . S
C1400 C1401 1.366 . S
C1400 C1402 1.388 . S
C1401 C1400 1.366 . S
C1401 C1405 1.385 . S
C1402 H1383 0.951 . S
C1402 C1400 1.388 . S
C1402 C1403 1.366 . S
C1403 C1402 1.366 . S
C1403 C1404 1.414 . S
C1403 C1406 1.499 . S
C1404 H1384 0.950 . S
C1404 C1403 1.414 . S
C1404 C1405 1.374 . S
C1405 H1385 0.950 . S
C1405 C1401 1.385 . S
C1405 C1404 1.374 . S
C1406 C1403 1.499 . S
C1406 C1407 1.373 . S
C1406 C1408 1.389 . S
C1407 H1386 0.950 . S
C1407 C1406 1.373 . S
C1407 C1423 1.377 1_454 S
C1408 C1406 1.389 . S
C1408 C1409 1.524 . S
C1408 C1422 1.377 1_454 S
C1409 C1408 1.524 . S
C1409 C1410 1.397 . S
C1409 C1414 1.363 . S
C1410 H1387 0.953 . S
C1410 C1409 1.397 . S
C1410 C1411 1.334 . S
C1411 H1388 0.950 . S
C1411 C1410 1.334 . S
C1411 C1412 1.287 . S
C1412 C1411 1.287 . S
C1412 C1413 1.524 . S
C1412 H1431 0.913 . S
C1413 H1389 0.950 . S
C1413 C1412 1.524 . S
C1413 C1414 1.415 . S
C1414 H1390 0.950 1_455 S
C1414 C1409 1.363 . S
C1414 C1413 1.415 . S
C1415 H1391 0.951 . S
C1415 C1416 1.366 . S
C1415 C1417 1.388 . S
C1416 C1415 1.366 . S
C1416 C1420 1.385 . S
C1417 H1392 0.951 . S
C1417 C1415 1.388 . S
C1417 C1418 1.366 . S
C1418 C1417 1.366 . S
C1418 C1419 1.414 . S
C1418 C1421 1.499 . S
C1419 H1393 0.950 . S
C1419 C1418 1.414 . S
C1419 C1420 1.374 . S
C1420 H1394 0.950 . S
C1420 C1416 1.385 . S
C1420 C1419 1.374 . S
C1421 C1418 1.499 . S
C1421 C1422 1.373 . S
C1421 C1423 1.389 . S
C1422 H1395 0.950 . S
C1422 C1408 1.377 1_656 S
C1422 C1421 1.373 . S
C1423 C1407 1.377 1_656 S
C1423 C1421 1.389 . S
C1423 C1424 1.524 . S
C1424 C1423 1.524 . S
C1424 C1425 1.397 . S
C1424 C1429 1.363 . S
C1425 H1396 0.953 . S
C1425 C1424 1.397 . S
C1425 C1426 1.334 . S
C1426 H1397 0.950 . S
C1426 C1425 1.334 . S
C1426 C1427 1.287 . S
C1427 C1426 1.287 . S
C1427 C1428 1.524 . S
C1427 H1430 0.999 . S
C1428 H1398 0.950 . S
C1428 C1427 1.524 . S
C1428 C1429 1.415 . S
C1429 H1399 0.950 1_655 S
C1429 C1424 1.363 . S
C1429 C1428 1.415 . S
H1430 C1427 0.999 . S
H1431 C1412 0.913 . S
H1432 C1450 0.951 . S
H1433 C1452 0.951 . S
H1434 C1454 0.950 . S
H1435 C1455 0.950 . S
H1436 C1457 0.950 . S
H1437 C1460 0.950 . S
H1438 C1461 0.950 . S
H1439 C1463 0.950 . S
H1440 C1464 0.950 . S
H1441 C1465 0.951 . S
H1442 C1467 0.951 . S
H1443 C1469 0.950 . S
H1444 C1470 0.950 . S
H1445 C1472 0.950 . S
H1446 C1475 0.950 . S
H1447 C1476 0.950 . S
H1448 C1478 0.950 . S
H1449 C1479 0.950 . S
C1450 H1432 0.951 . S
C1450 C1451 1.366 . S
C1450 C1452 1.388 . S
C1451 C1450 1.366 . S
C1451 C1455 1.385 . S
C1452 H1433 0.951 . S
C1452 C1450 1.388 . S
C1452 C1453 1.366 . S
C1453 C1452 1.366 . S
C1453 C1454 1.414 . S
C1453 C1456 1.499 . S
C1454 H1434 0.950 . S
C1454 C1453 1.414 . S
C1454 C1455 1.374 . S
C1455 H1435 0.950 . S
C1455 C1451 1.385 . S
C1455 C1454 1.374 . S
C1456 C1453 1.499 . S
C1456 C1457 1.373 . S
C1456 C1458 1.389 . S
C1457 H1436 0.950 . S
C1457 C1456 1.373 . S
C1457 C1473 1.377 . S
C1458 C1456 1.389 . S
C1458 C1459 1.524 . S
C1458 C1472 1.377 . S
C1459 C1458 1.524 . S
C1459 C1460 1.397 . S
C1459 C1464 1.363 . S
C1460 H1437 0.950 . S
C1460 C1459 1.397 . S
C1460 C1461 1.334 . S
C1461 H1438 0.950 . S
C1461 C1460 1.334 . S
C1461 C1462 1.287 . S
C1462 C1461 1.287 . S
C1462 C1463 1.524 . S
C1462 H1481 0.913 . S
C1463 H1439 0.950 . S
C1463 C1462 1.524 . S
C1463 C1464 1.415 . S
C1464 H1440 0.950 . S
C1464 C1459 1.363 . S
C1464 C1463 1.415 . S
C1465 H1441 0.951 . S
C1465 C1466 1.366 . S
C1465 C1467 1.388 . S
C1466 C1465 1.366 . S
C1466 C1470 1.385 . S
C1467 H1442 0.951 . S
C1467 C1465 1.388 . S
C1467 C1468 1.366 . S
C1468 C1467 1.366 . S
C1468 C1469 1.414 . S
C1468 C1471 1.499 . S
C1469 H1443 0.950 . S
C1469 C1468 1.414 . S
C1469 C1470 1.374 . S
C1470 H1444 0.950 . S
C1470 C1466 1.385 . S
C1470 C1469 1.374 . S
C1471 C1468 1.499 . S
C1471 C1472 1.373 . S
C1471 C1473 1.389 . S
C1472 H1445 0.950 . S
C1472 C1458 1.377 . S
C1472 C1471 1.373 . S
C1473 C1457 1.377 . S
C1473 C1471 1.389 . S
C1473 C1474 1.524 . S
C1474 C1473 1.524 . S
C1474 C1475 1.397 . S
C1474 C1479 1.363 . S
C1475 H1446 0.950 . S
C1475 C1474 1.397 . S
C1475 C1476 1.334 . S
C1476 H1447 0.950 . S
C1476 C1475 1.334 . S
C1476 C1477 1.287 . S
C1477 C1476 1.287 . S
C1477 C1478 1.524 . S
C1477 H1480 0.999 . S
C1478 H1448 0.950 . S
C1478 C1477 1.524 . S
C1478 C1479 1.415 . S
C1479 H1449 0.950 . S
C1479 C1474 1.363 . S
C1479 C1478 1.415 . S
H1480 C1477 0.999 . S
H1481 C1462 0.913 . S
H1482 C1500 0.951 . S
H1483 C1502 0.951 . S
H1484 C1504 0.950 . S
H1485 C1505 0.950 . S
H1486 C1507 0.950 . S
H1487 C1510 0.950 . S
H1488 C1511 0.950 . S
H1489 C1513 0.950 . S
H1490 C1514 0.950 . S
H1491 C1515 0.951 . S
H1492 C1517 0.951 . S
H1493 C1519 0.950 . S
H1494 C1520 0.950 . S
H1495 C1522 0.950 . S
H1496 C1525 0.950 . S
H1497 C1526 0.950 . S
H1498 C1528 0.950 . S
H1499 C1529 0.950 . S
C1500 H1482 0.951 . S
C1500 C1501 1.366 . S
C1500 C1502 1.388 . S
C1501 C1500 1.366 . S
C1501 C1505 1.385 . S
C1502 H1483 0.951 . S
C1502 C1500 1.388 . S
C1502 C1503 1.366 . S
C1503 C1502 1.366 . S
C1503 C1504 1.414 . S
C1503 C1506 1.499 . S
C1504 H1484 0.950 . S
C1504 C1503 1.414 . S
C1504 C1505 1.374 . S
C1505 H1485 0.950 . S
C1505 C1501 1.385 . S
C1505 C1504 1.374 . S
C1506 C1503 1.499 . S
C1506 C1507 1.373 . S
C1506 C1508 1.389 . S
C1507 H1486 0.950 . S
C1507 C1506 1.373 . S
C1507 C1523 1.377 . S
C1508 C1506 1.389 . S
C1508 C1509 1.524 . S
C1508 C1522 1.377 . S
C1509 C1508 1.524 . S
C1509 C1510 1.397 . S
C1509 C1514 1.363 . S
C1510 H1487 0.950 . S
C1510 C1509 1.397 . S
C1510 C1511 1.334 . S
C1511 H1488 0.950 . S
C1511 C1510 1.334 . S
C1511 C1512 1.287 . S
C1512 C1511 1.287 . S
C1512 C1513 1.524 . S
C1512 H1531 0.913 . S
C1513 H1489 0.950 . S
C1513 C1512 1.524 . S
C1513 C1514 1.415 . S
C1514 H1490 0.950 . S
C1514 C1509 1.363 . S
C1514 C1513 1.415 . S
C1515 H1491 0.951 . S
C1515 C1516 1.366 . S
C1515 C1517 1.388 . S
C1516 C1515 1.366 . S
C1516 C1520 1.385 . S
C1517 H1492 0.951 . S
C1517 C1515 1.388 . S
C1517 C1518 1.366 . S
C1518 C1517 1.366 . S
C1518 C1519 1.414 . S
C1518 C1521 1.499 . S
C1519 H1493 0.950 . S
C1519 C1518 1.414 . S
C1519 C1520 1.374 . S
C1520 H1494 0.950 . S
C1520 C1516 1.385 . S
C1520 C1519 1.374 . S
C1521 C1518 1.499 . S
C1521 C1522 1.373 . S
C1521 C1523 1.389 . S
C1522 H1495 0.950 . S
C1522 C1508 1.377 . S
C1522 C1521 1.373 . S
C1523 C1507 1.377 . S
C1523 C1521 1.389 . S
C1523 C1524 1.524 . S
C1524 C1523 1.524 . S
C1524 C1525 1.397 . S
C1524 C1529 1.363 . S
C1525 H1496 0.950 . S
C1525 C1524 1.397 . S
C1525 C1526 1.334 . S
C1526 H1497 0.950 . S
C1526 C1525 1.334 . S
C1526 C1527 1.287 . S
C1527 C1526 1.287 . S
C1527 C1528 1.524 . S
C1527 H1530 0.999 . S
C1528 H1498 0.950 . S
C1528 C1527 1.524 . S
C1528 C1529 1.415 . S
C1529 H1499 0.950 . S
C1529 C1524 1.363 . S
C1529 C1528 1.415 . S
H1530 C1527 0.999 . S
H1531 C1512 0.913 . S
H1532 C1550 0.951 . S
H1533 C1552 0.951 . S
H1534 C1554 0.950 . S
H1535 C1555 0.950 . S
H1536 C1557 0.950 . S
H1537 C1560 0.950 . S
H1538 C1561 0.950 . S
H1539 C1563 0.950 . S
H1540 C1564 0.950 . S
H1541 C1565 0.951 . S
H1542 C1567 0.951 . S
H1543 C1569 0.950 . S
H1544 C1570 0.950 . S
H1545 C1572 0.950 . S
H1546 C1575 0.950 . S
H1547 C1576 0.950 . S
H1548 C1578 0.950 . S
H1549 C1579 0.950 . S
C1550 H1532 0.951 . S
C1550 C1551 1.366 . S
C1550 C1552 1.388 . S
C1551 C1550 1.366 . S
C1551 C1555 1.385 . S
C1552 H1533 0.951 . S
C1552 C1550 1.388 . S
C1552 C1553 1.366 . S
C1553 C1552 1.366 . S
C1553 C1554 1.414 . S
C1553 C1556 1.499 . S
C1554 H1534 0.950 . S
C1554 C1553 1.414 . S
C1554 C1555 1.374 . S
C1555 H1535 0.950 . S
C1555 C1551 1.385 . S
C1555 C1554 1.374 . S
C1556 C1553 1.499 . S
C1556 C1557 1.373 . S
C1556 C1558 1.389 . S
C1557 H1536 0.950 . S
C1557 C1556 1.373 . S
C1557 C1573 1.377 . S
C1558 C1556 1.389 . S
C1558 C1559 1.524 . S
C1558 C1572 1.377 . S
C1559 C1558 1.524 . S
C1559 C1560 1.397 . S
C1559 C1564 1.363 . S
C1560 H1537 0.950 . S
C1560 C1559 1.397 . S
C1560 C1561 1.334 . S
C1561 H1538 0.950 . S
C1561 C1560 1.334 . S
C1561 C1562 1.287 . S
C1562 C1561 1.287 . S
C1562 C1563 1.524 . S
C1562 H1581 0.913 . S
C1563 H1539 0.950 . S
C1563 C1562 1.524 . S
C1563 C1564 1.415 . S
C1564 H1540 0.950 . S
C1564 C1559 1.363 . S
C1564 C1563 1.415 . S
C1565 H1541 0.951 . S
C1565 C1566 1.366 . S
C1565 C1567 1.388 . S
C1566 C1565 1.366 . S
C1566 C1570 1.385 . S
C1567 H1542 0.951 . S
C1567 C1565 1.388 . S
C1567 C1568 1.366 . S
C1568 C1567 1.366 . S
C1568 C1569 1.414 . S
C1568 C1571 1.499 . S
C1569 H1543 0.950 . S
C1569 C1568 1.414 . S
C1569 C1570 1.374 . S
C1570 H1544 0.950 . S
C1570 C1566 1.385 . S
C1570 C1569 1.374 . S
C1571 C1568 1.499 . S
C1571 C1572 1.373 . S
C1571 C1573 1.389 . S
C1572 H1545 0.950 . S
C1572 C1558 1.377 . S
C1572 C1571 1.373 . S
C1573 C1557 1.377 . S
C1573 C1571 1.389 . S
C1573 C1574 1.524 . S
C1574 C1573 1.524 . S
C1574 C1575 1.397 . S
C1574 C1579 1.363 . S
C1575 H1546 0.950 . S
C1575 C1574 1.397 . S
C1575 C1576 1.334 . S
C1576 H1547 0.950 . S
C1576 C1575 1.334 . S
C1576 C1577 1.287 . S
C1577 C1576 1.287 . S
C1577 C1578 1.524 . S
C1577 H1580 0.999 . S
C1578 H1548 0.950 . S
C1578 C1577 1.524 . S
C1578 C1579 1.415 . S
C1579 H1549 0.950 . S
C1579 C1574 1.363 . S
C1579 C1578 1.415 . S
H1580 C1577 0.999 . S
H1581 C1562 0.913 . S
H1582 C1600 0.951 . S
H1583 C1602 0.951 . S
H1584 C1604 0.950 . S
H1585 C1605 0.950 . S
H1586 C1607 0.950 . S
H1587 C1610 0.950 . S
H1588 C1611 0.950 . S
H1589 C1613 0.950 . S
H1590 C1614 0.950 . S
H1591 C1615 0.951 . S
H1592 C1617 0.951 . S
H1593 C1619 0.950 . S
H1594 C1620 0.950 . S
H1595 C1622 0.950 . S
H1596 C1625 0.950 . S
H1597 C1626 0.950 . S
H1598 C1628 0.950 . S
H1599 C1629 0.950 . S
C1600 H1582 0.951 . S
C1600 C1601 1.366 . S
C1600 C1602 1.388 . S
C1601 C1600 1.366 . S
C1601 C1605 1.385 . S
C1602 H1583 0.951 . S
C1602 C1600 1.388 . S
C1602 C1603 1.366 . S
C1603 C1602 1.366 . S
C1603 C1604 1.414 . S
C1603 C1606 1.499 . S
C1604 H1584 0.950 . S
C1604 C1603 1.414 . S
C1604 C1605 1.374 . S
C1605 H1585 0.950 . S
C1605 C1601 1.385 . S
C1605 C1604 1.374 . S
C1606 C1603 1.499 . S
C1606 C1607 1.373 . S
C1606 C1608 1.389 . S
C1607 H1586 0.950 . S
C1607 C1606 1.373 . S
C1607 C1623 1.377 . S
C1608 C1606 1.389 . S
C1608 C1609 1.524 . S
C1608 C1622 1.377 . S
C1609 C1608 1.524 . S
C1609 C1610 1.397 . S
C1609 C1614 1.363 . S
C1610 H1587 0.950 . S
C1610 C1609 1.397 . S
C1610 C1611 1.334 . S
C1611 H1588 0.950 . S
C1611 C1610 1.334 . S
C1611 C1612 1.287 . S
C1612 C1611 1.287 . S
C1612 C1613 1.524 . S
C1612 H1631 0.913 . S
C1613 H1589 0.950 . S
C1613 C1612 1.524 . S
C1613 C1614 1.415 . S
C1614 H1590 0.950 . S
C1614 C1609 1.363 . S
C1614 C1613 1.415 . S
C1615 H1591 0.951 . S
C1615 C1616 1.366 . S
C1615 C1617 1.388 . S
C1616 C1615 1.366 . S
C1616 C1620 1.385 . S
C1617 H1592 0.951 . S
C1617 C1615 1.388 . S
C1617 C1618 1.366 . S
C1618 C1617 1.366 . S
C1618 C1619 1.414 . S
C1618 C1621 1.499 . S
C1619 H1593 0.950 . S
C1619 C1618 1.414 . S
C1619 C1620 1.374 . S
C1620 H1594 0.950 . S
C1620 C1616 1.385 . S
C1620 C1619 1.374 . S
C1621 C1618 1.499 . S
C1621 C1622 1.373 . S
C1621 C1623 1.389 . S
C1622 H1595 0.950 . S
C1622 C1608 1.377 . S
C1622 C1621 1.373 . S
C1623 C1607 1.377 . S
C1623 C1621 1.389 . S
C1623 C1624 1.524 . S
C1624 C1623 1.524 . S
C1624 C1625 1.397 . S
C1624 C1629 1.363 . S
C1625 H1596 0.950 . S
C1625 C1624 1.397 . S
C1625 C1626 1.334 . S
C1626 H1597 0.950 . S
C1626 C1625 1.334 . S
C1626 C1627 1.287 . S
C1627 C1626 1.287 . S
C1627 C1628 1.524 . S
C1627 H1630 0.999 . S
C1628 H1598 0.950 . S
C1628 C1627 1.524 . S
C1628 C1629 1.415 . S
C1629 H1599 0.950 . S
C1629 C1624 1.363 . S
C1629 C1628 1.415 . S
H1630 C1627 0.999 . S
H1631 C1612 0.913 . S
C251 C3 1.888 . S
C266 C218 1.877 . S
C301 C39 2.084 . S
C316 C129 2.048 . S
C351 C160 1.878 . S
C366 C61 1.888 . S
C401 C97 2.084 . S
C416 C187 2.049 . S
C451 C32 1.887 . S
C466 C189 1.878 . S
C501 C216 2.048 . S
C516 C68 2.084 . S
C551 C90 1.888 . S
C566 C131 1.878 . S
C601 C158 2.048 . S
C616 C10 2.084 . S
C651 C119 1.888 . S
C666 C102 1.877 . S
C701 C13 2.048 . S
C716 C155 2.084 . S
C751 C44 1.878 . S
C766 C177 1.887 . S
C801 C213 2.083 . S
C816 C71 2.049 . S
C851 C148 1.888 . S
C866 C73 1.878 . S
C901 C184 2.083 . S
C916 C100 2.049 . S
C951 C206 1.888 . S
C966 C15 1.878 . S
C1001 C42 2.048 . S
C1016 C126 2.084 . S
C1051 C21 0.442 . S
C1066 C79 0.447 . S
C1101 C108 0.443 . S
C1116 C50 0.447 . S
C1151 C137 0.447 . S
C1166 C195 0.442 . S
C1201 C166 0.446 . S
C1216 C224 0.443 . S
C1251 C5 1.320 . S
C1266 C34 1.320 . S
C1301 C37 1.446 . S
C1316 C66 1.448 . S
C1351 C92 1.319 . S
C1366 C63 1.320 . S
C1401 C8 1.448 . S
C1416 C95 1.446 . S
C1451 C150 1.320 . S
C1466 C121 1.319 . S
C1501 C182 1.446 . S
C1516 C153 1.448 . S
C1551 C179 1.320 . S
C1566 C208 1.320 . S
C1601 C124 1.448 . S
C1616 C211 1.446 . S
