# Generated by pormake.
# Topology pcu-g, (3)-cn, num edge types: 1
# Building blocks:
#     Node 0, Type 0, BuildingBlock: WUSLED_clean_sbu_0, # of connection points: 3
#     Node 1, Type 0, BuildingBlock: WUSLED_clean_sbu_0, # of connection points: 3
#     Node 2, Type 0, BuildingBlock: WUSLED_clean_sbu_0, # of connection points: 3
#     Node 3, Type 0, BuildingBlock: WUSLED_clean_sbu_0, # of connection points: 3
#     Node 4, Type 0, BuildingBlock: WUSLED_clean_sbu_0, # of connection points: 3
#     Node 5, Type 0, BuildingBlock: WUSLED_clean_sbu_0, # of connection points: 3
#     Node 6, Type 0, BuildingBlock: WUSLED_clean_sbu_0, # of connection points: 3
#     Node 7, Type 0, BuildingBlock: WUSLED_clean_sbu_0, # of connection points: 3
#     Node 8, Type 0, BuildingBlock: WUSLED_clean_sbu_0, # of connection points: 3
#     Node 9, Type 0, BuildingBlock: WUSLED_clean_sbu_0, # of connection points: 3
#     Node 10, Type 0, BuildingBlock: WUSLED_clean_sbu_0, # of connection points: 3
#     Node 11, Type 0, BuildingBlock: WUSLED_clean_sbu_0, # of connection points: 3
#     Node 12, Type 0, BuildingBlock: WUSLED_clean_sbu_0, # of connection points: 3
#     Node 13, Type 0, BuildingBlock: WUSLED_clean_sbu_0, # of connection points: 3
#     Node 14, Type 0, BuildingBlock: WUSLED_clean_sbu_0, # of connection points: 3
#     Node 15, Type 0, BuildingBlock: WUSLED_clean_sbu_0, # of connection points: 3
#     Node 16, Type 0, BuildingBlock: WUSLED_clean_sbu_0, # of connection points: 3
#     Node 17, Type 0, BuildingBlock: WUSLED_clean_sbu_0, # of connection points: 3
#     Node 18, Type 0, BuildingBlock: WUSLED_clean_sbu_0, # of connection points: 3
#     Node 19, Type 0, BuildingBlock: WUSLED_clean_sbu_0, # of connection points: 3
#     Node 20, Type 0, BuildingBlock: WUSLED_clean_sbu_0, # of connection points: 3
#     Node 21, Type 0, BuildingBlock: WUSLED_clean_sbu_0, # of connection points: 3
#     Node 22, Type 0, BuildingBlock: WUSLED_clean_sbu_0, # of connection points: 3
#     Node 23, Type 0, BuildingBlock: WUSLED_clean_sbu_0, # of connection points: 3
#     Node 24, Type 0, BuildingBlock: WUSLED_clean_sbu_0, # of connection points: 3
#     Node 25, Type 0, BuildingBlock: WUSLED_clean_sbu_0, # of connection points: 3
#     Node 26, Type 0, BuildingBlock: WUSLED_clean_sbu_0, # of connection points: 3
#     Node 27, Type 0, BuildingBlock: WUSLED_clean_sbu_0, # of connection points: 3
#     Node 28, Type 0, BuildingBlock: WUSLED_clean_sbu_0, # of connection points: 3
#     Node 29, Type 0, BuildingBlock: WUSLED_clean_sbu_0, # of connection points: 3
#     Node 30, Type 0, BuildingBlock: WUSLED_clean_sbu_0, # of connection points: 3
#     Node 31, Type 0, BuildingBlock: WUSLED_clean_sbu_0, # of connection points: 3
#     Node 32, Type 0, BuildingBlock: WUSLED_clean_sbu_0, # of connection points: 3
#     Node 33, Type 0, BuildingBlock: WUSLED_clean_sbu_0, # of connection points: 3
#     Node 34, Type 0, BuildingBlock: WUSLED_clean_sbu_0, # of connection points: 3
#     Node 35, Type 0, BuildingBlock: WUSLED_clean_sbu_0, # of connection points: 3
#     Node 36, Type 0, BuildingBlock: WUSLED_clean_sbu_0, # of connection points: 3
#     Node 37, Type 0, BuildingBlock: WUSLED_clean_sbu_0, # of connection points: 3
#     Node 38, Type 0, BuildingBlock: WUSLED_clean_sbu_0, # of connection points: 3
#     Node 39, Type 0, BuildingBlock: WUSLED_clean_sbu_0, # of connection points: 3
#     Node 40, Type 0, BuildingBlock: WUSLED_clean_sbu_0, # of connection points: 3
#     Node 41, Type 0, BuildingBlock: WUSLED_clean_sbu_0, # of connection points: 3
#     Node 42, Type 0, BuildingBlock: WUSLED_clean_sbu_0, # of connection points: 3
#     Node 43, Type 0, BuildingBlock: WUSLED_clean_sbu_0, # of connection points: 3
#     Node 44, Type 0, BuildingBlock: WUSLED_clean_sbu_0, # of connection points: 3
#     Node 45, Type 0, BuildingBlock: WUSLED_clean_sbu_0, # of connection points: 3
#     Node 46, Type 0, BuildingBlock: WUSLED_clean_sbu_0, # of connection points: 3
#     Node 47, Type 0, BuildingBlock: WUSLED_clean_sbu_0, # of connection points: 3
#     Edge 48, Type (0, 0), BuildingBlock: OJICUG_clean_linker_0, # of connection points: 2
#     Edge 49, Type (0, 0), BuildingBlock: OJICUG_clean_linker_0, # of connection points: 2
#     Edge 50, Type (0, 0), BuildingBlock: OJICUG_clean_linker_0, # of connection points: 2
#     Edge 51, Type (0, 0), BuildingBlock: OJICUG_clean_linker_0, # of connection points: 2
#     Edge 52, Type (0, 0), BuildingBlock: OJICUG_clean_linker_0, # of connection points: 2
#     Edge 53, Type (0, 0), BuildingBlock: OJICUG_clean_linker_0, # of connection points: 2
#     Edge 54, Type (0, 0), BuildingBlock: OJICUG_clean_linker_0, # of connection points: 2
#     Edge 55, Type (0, 0), BuildingBlock: OJICUG_clean_linker_0, # of connection points: 2
#     Edge 56, Type (0, 0), BuildingBlock: OJICUG_clean_linker_0, # of connection points: 2
#     Edge 57, Type (0, 0), BuildingBlock: OJICUG_clean_linker_0, # of connection points: 2
#     Edge 58, Type (0, 0), BuildingBlock: OJICUG_clean_linker_0, # of connection points: 2
#     Edge 59, Type (0, 0), BuildingBlock: OJICUG_clean_linker_0, # of connection points: 2
#     Edge 60, Type (0, 0), BuildingBlock: OJICUG_clean_linker_0, # of connection points: 2
#     Edge 61, Type (0, 0), BuildingBlock: OJICUG_clean_linker_0, # of connection points: 2
#     Edge 62, Type (0, 0), BuildingBlock: OJICUG_clean_linker_0, # of connection points: 2
#     Edge 63, Type (0, 0), BuildingBlock: OJICUG_clean_linker_0, # of connection points: 2
#     Edge 64, Type (0, 0), BuildingBlock: OJICUG_clean_linker_0, # of connection points: 2
#     Edge 65, Type (0, 0), BuildingBlock: OJICUG_clean_linker_0, # of connection points: 2
#     Edge 66, Type (0, 0), BuildingBlock: OJICUG_clean_linker_0, # of connection points: 2
#     Edge 67, Type (0, 0), BuildingBlock: OJICUG_clean_linker_0, # of connection points: 2
#     Edge 68, Type (0, 0), BuildingBlock: OJICUG_clean_linker_0, # of connection points: 2
#     Edge 69, Type (0, 0), BuildingBlock: OJICUG_clean_linker_0, # of connection points: 2
#     Edge 70, Type (0, 0), BuildingBlock: OJICUG_clean_linker_0, # of connection points: 2
#     Edge 71, Type (0, 0), BuildingBlock: OJICUG_clean_linker_0, # of connection points: 2
#     Edge 72, Type (0, 0), BuildingBlock: OJICUG_clean_linker_0, # of connection points: 2
#     Edge 73, Type (0, 0), BuildingBlock: OJICUG_clean_linker_0, # of connection points: 2
#     Edge 74, Type (0, 0), BuildingBlock: OJICUG_clean_linker_0, # of connection points: 2
#     Edge 75, Type (0, 0), BuildingBlock: OJICUG_clean_linker_0, # of connection points: 2
#     Edge 76, Type (0, 0), BuildingBlock: OJICUG_clean_linker_0, # of connection points: 2
#     Edge 77, Type (0, 0), BuildingBlock: OJICUG_clean_linker_0, # of connection points: 2
#     Edge 78, Type (0, 0), BuildingBlock: OJICUG_clean_linker_0, # of connection points: 2
#     Edge 79, Type (0, 0), BuildingBlock: OJICUG_clean_linker_0, # of connection points: 2
#     Edge 80, Type (0, 0), BuildingBlock: OJICUG_clean_linker_0, # of connection points: 2
#     Edge 81, Type (0, 0), BuildingBlock: OJICUG_clean_linker_0, # of connection points: 2
#     Edge 82, Type (0, 0), BuildingBlock: OJICUG_clean_linker_0, # of connection points: 2
#     Edge 83, Type (0, 0), BuildingBlock: OJICUG_clean_linker_0, # of connection points: 2
#     Edge 84, Type (0, 0), BuildingBlock: OJICUG_clean_linker_0, # of connection points: 2
#     Edge 85, Type (0, 0), BuildingBlock: OJICUG_clean_linker_0, # of connection points: 2
#     Edge 86, Type (0, 0), BuildingBlock: OJICUG_clean_linker_0, # of connection points: 2
#     Edge 87, Type (0, 0), BuildingBlock: OJICUG_clean_linker_0, # of connection points: 2
#     Edge 88, Type (0, 0), BuildingBlock: OJICUG_clean_linker_0, # of connection points: 2
#     Edge 89, Type (0, 0), BuildingBlock: OJICUG_clean_linker_0, # of connection points: 2
#     Edge 90, Type (0, 0), BuildingBlock: OJICUG_clean_linker_0, # of connection points: 2
#     Edge 91, Type (0, 0), BuildingBlock: OJICUG_clean_linker_0, # of connection points: 2
#     Edge 92, Type (0, 0), BuildingBlock: OJICUG_clean_linker_0, # of connection points: 2
#     Edge 93, Type (0, 0), BuildingBlock: OJICUG_clean_linker_0, # of connection points: 2
#     Edge 94, Type (0, 0), BuildingBlock: OJICUG_clean_linker_0, # of connection points: 2
#     Edge 95, Type (0, 0), BuildingBlock: OJICUG_clean_linker_0, # of connection points: 2
#     Edge 96, Type (0, 0), BuildingBlock: OJICUG_clean_linker_0, # of connection points: 2
#     Edge 97, Type (0, 0), BuildingBlock: OJICUG_clean_linker_0, # of connection points: 2
#     Edge 98, Type (0, 0), BuildingBlock: OJICUG_clean_linker_0, # of connection points: 2
#     Edge 99, Type (0, 0), BuildingBlock: OJICUG_clean_linker_0, # of connection points: 2
#     Edge 100, Type (0, 0), BuildingBlock: OJICUG_clean_linker_0, # of connection points: 2
#     Edge 101, Type (0, 0), BuildingBlock: OJICUG_clean_linker_0, # of connection points: 2
#     Edge 102, Type (0, 0), BuildingBlock: OJICUG_clean_linker_0, # of connection points: 2
#     Edge 103, Type (0, 0), BuildingBlock: OJICUG_clean_linker_0, # of connection points: 2
#     Edge 104, Type (0, 0), BuildingBlock: OJICUG_clean_linker_0, # of connection points: 2
#     Edge 105, Type (0, 0), BuildingBlock: OJICUG_clean_linker_0, # of connection points: 2
#     Edge 106, Type (0, 0), BuildingBlock: OJICUG_clean_linker_0, # of connection points: 2
#     Edge 107, Type (0, 0), BuildingBlock: OJICUG_clean_linker_0, # of connection points: 2
#     Edge 108, Type (0, 0), BuildingBlock: OJICUG_clean_linker_0, # of connection points: 2
#     Edge 109, Type (0, 0), BuildingBlock: OJICUG_clean_linker_0, # of connection points: 2
#     Edge 110, Type (0, 0), BuildingBlock: OJICUG_clean_linker_0, # of connection points: 2
#     Edge 111, Type (0, 0), BuildingBlock: OJICUG_clean_linker_0, # of connection points: 2
#     Edge 112, Type (0, 0), BuildingBlock: OJICUG_clean_linker_0, # of connection points: 2
#     Edge 113, Type (0, 0), BuildingBlock: OJICUG_clean_linker_0, # of connection points: 2
#     Edge 114, Type (0, 0), BuildingBlock: OJICUG_clean_linker_0, # of connection points: 2
#     Edge 115, Type (0, 0), BuildingBlock: OJICUG_clean_linker_0, # of connection points: 2
#     Edge 116, Type (0, 0), BuildingBlock: OJICUG_clean_linker_0, # of connection points: 2
#     Edge 117, Type (0, 0), BuildingBlock: OJICUG_clean_linker_0, # of connection points: 2
#     Edge 118, Type (0, 0), BuildingBlock: OJICUG_clean_linker_0, # of connection points: 2
#     Edge 119, Type (0, 0), BuildingBlock: OJICUG_clean_linker_0, # of connection points: 2
# Relax obj value: 0.001
# Max RMSD: 0.008
# Mean RMSD: 0.005
data_MOF--net-pcu-g--node1-WUSLED_clean_sbu_0--edge1-OJICUG_clean_linker_0
_symmetry_space_group_name_H-M    P1
_symmetry_Int_Tables_number       1
_symmetry_cell_setting            triclinic
loop_
_symmetry_equiv_pos_as_xyz
'x, y, z'
_cell_length_a     99.783043
_cell_length_b     100.0651
_cell_length_c     100.61084
_cell_angle_alpha  89.918575
_cell_angle_beta   90.013906
_cell_angle_gamma 90.007752
loop_
_atom_site_label
_atom_site_type_symbol
_atom_site_fract_x
_atom_site_fract_y
_atom_site_fract_z
_atom_type_partial_charge
C0 C 1.01252 0.16243 0.4232 0.0
C1 C 1.01672 0.14976 0.4275 0.0
C2 C 1.00027 0.13909 0.413 0.0
C3 C 1.01064 0.1382 0.42247 0.0
C4 C 0.99629 0.15184 0.40856 0.0
C5 C 1.00235 0.16339 0.41363 0.0
U6 U 0.03912 0.18002 0.44412 0.0
O7 O 0.0498 0.19899 0.44088 0.0
O8 O 0.03715 0.19648 0.45854 0.0
C9 C 0.04459 0.20467 0.45146 0.0
C10 C 1.01845 0.1747 0.4288 0.0
C11 C 0.03937 0.21837 0.44972 0.0
C12 C 0.02655 0.23507 0.43751 0.0
C13 C 0.03083 0.2218 0.43916 0.0
C14 C 0.03911 0.24152 0.45707 0.0
C15 C 0.0307 0.24513 0.44642 0.0
C16 C 0.04338 0.2283 0.45868 0.0
C17 C 0.06651 0.15748 0.46044 0.0
C18 C 0.0769 0.15292 0.48193 0.0
C19 C 0.08951 0.14934 0.46171 0.0
C20 C 0.0785 0.15363 0.45421 0.0
C21 C 0.08878 0.14868 0.47567 0.0
C22 C 0.06589 0.15723 0.47441 0.0
C23 C 0.05441 0.16019 0.45224 0.0
O24 O 1.01761 0.17586 0.44179 0.0
O25 O 0.03029 0.17803 0.42414 0.0
O26 O 0.05626 0.16652 0.44092 0.0
O27 O 0.04347 0.16398 0.45848 0.0
H28 H 0.02462 0.14882 0.43484 0.0
H29 H 1.01409 0.12856 0.42598 0.0
H30 H 0.98825 0.15292 0.40141 0.0
H31 H 0.99897 0.17308 0.4102 0.0
H32 H 1.01996 0.23744 0.42928 0.0
H33 H 0.02757 0.21427 0.43215 0.0
H34 H 0.0427 0.24897 0.464 0.0
H35 H 0.05001 0.22586 0.46687 0.0
H36 H 0.0759 0.1524 0.49263 0.0
H37 H 0.09854 0.14634 0.45655 0.0
H38 H 0.07927 0.15356 0.44347 0.0
H39 H 0.05677 0.15996 0.47957 0.0
C40 C 0.97033 0.36824 0.46682 0.0
C41 C 0.97244 0.38195 0.46892 0.0
C42 C 0.95098 0.38372 0.48048 0.0
C43 C 0.96289 0.3896 0.47572 0.0
C44 C 0.94886 0.37001 0.47814 0.0
C45 C 0.95844 0.36236 0.4714 0.0
U46 U 1.00008 0.36421 0.44313 0.0
O47 O 1.01808 0.35159 0.44475 0.0
O48 O 1.00412 0.34867 0.42817 0.0
C49 C 1.01489 0.34433 0.43434 0.0
C50 C 0.98039 0.35992 0.45996 0.0
C51 C 1.016 0.32972 0.43601 0.0
C52 C 1.00958 0.30883 0.44671 0.0
C53 C 1.00806 0.3227 0.44518 0.0
C54 C 0.02688 0.30888 0.42984 0.0
C55 C 1.01904 0.30174 0.43906 0.0
C56 C 0.02536 0.3227 0.42834 0.0
C57 C 1.01365 0.39647 0.42611 0.0
C58 C 0.03585 0.40348 0.41876 0.0
C59 C 1.01611 0.41416 0.40965 0.0
C60 C 1.00798 0.40594 0.41749 0.0
C61 C 0.03017 0.41314 0.41025 0.0
C62 C 0.02768 0.39521 0.42659 0.0
C63 C 1.00468 0.38879 0.43501 0.0
O64 O 0.97899 0.35894 0.44702 0.0
O65 O 0.99291 0.36171 0.46365 0.0
O66 O 1.00998 0.38367 0.44584 0.0
O67 O 0.99603 0.38078 0.42922 0.0
H68 H 0.98154 0.38671 0.46542 0.0
H69 H 0.96497 0.40007 0.47745 0.0
H70 H 0.93974 0.36516 0.48143 0.0
H71 H 0.95658 0.35182 0.46979 0.0
H72 H 1.00328 0.30366 0.45381 0.0
H73 H 1.00075 0.32795 0.45118 0.0
H74 H 0.03441 0.30385 0.42394 0.0
H75 H 0.03161 0.32795 0.42124 0.0
H76 H 0.04663 0.40231 0.41936 0.0
H77 H 1.01136 0.42159 0.40339 0.0
H78 H 0.9972 0.40719 0.41703 0.0
H79 H 0.03235 0.38798 0.43314 0.0
C80 C 1.01245 0.8807 0.12094 0.0
C81 C 1.01578 0.89359 0.11652 0.0
C82 C 0.99959 0.90335 0.13192 0.0
C83 C 1.00941 0.90481 0.12195 0.0
C84 C 0.9965 0.89038 0.13645 0.0
C85 C 1.00286 0.87919 0.131 0.0
U86 U 0.0387 0.86425 0.09862 0.0
O87 O 0.05021 0.84565 0.10128 0.0
O88 O 0.03659 0.84777 0.08428 0.0
C89 C 0.04468 0.83984 0.09092 0.0
C90 C 1.01866 0.86875 0.11498 0.0
C91 C 0.04 0.82598 0.09286 0.0
C92 C 0.02601 0.80936 0.10386 0.0
C93 C 0.03012 0.8227 0.10224 0.0
C94 C 0.04156 0.80254 0.08669 0.0
C95 C 0.03169 0.7991 0.09608 0.0
C96 C 0.04565 0.81582 0.08511 0.0
C97 C 0.06403 0.88766 0.0806 0.0
C98 C 0.08773 0.88667 0.07475 0.0
C99 C 0.07267 0.90061 0.06197 0.0
C100 C 0.062 0.89663 0.07005 0.0
C101 C 0.08571 0.89579 0.06427 0.0
C102 C 0.07701 0.88263 0.08283 0.0
C103 C 0.05268 0.88464 0.08963 0.0
O104 O 1.01719 0.86756 0.10205 0.0
O105 O 0.03087 0.86595 0.11904 0.0
O106 O 0.05542 0.87842 0.10083 0.0
O107 O 0.04157 0.88042 0.084 0.0
H108 H 0.02317 0.89496 0.10875 0.0
H109 H 1.01194 0.9146 0.11811 0.0
H110 H 0.98917 0.88886 0.14424 0.0
H111 H 1.00021 0.86932 0.13458 0.0
H112 H 1.01831 0.80712 0.1111 0.0
H113 H 0.0256 0.83042 0.1083 0.0
H114 H 0.04634 0.79493 0.08069 0.0
H115 H 0.05332 0.81814 0.07784 0.0
H116 H 0.09762 0.88265 0.07672 0.0
H117 H 0.07076 0.9078 0.05413 0.0
H118 H 0.05214 0.9008 0.06822 0.0
H119 H 0.07893 0.87573 0.0909 0.0
C120 C 0.97109 0.67555 0.07566 0.0
C121 C 0.97341 0.6619 0.07342 0.0
C122 C 0.95183 0.65985 0.06212 0.0
C123 C 0.9639 0.65414 0.06669 0.0
C124 C 0.94951 0.67351 0.0646 0.0
C125 C 0.95905 0.68127 0.07127 0.0
U126 U 1.00157 0.67976 0.09839 0.0
O127 O 1.01911 0.69294 0.0965 0.0
O128 O 1.00574 0.69498 0.11369 0.0
C129 C 1.01611 0.69982 0.10722 0.0
C130 C 0.98111 0.68397 0.08246 0.0
C131 C 1.01673 0.71451 0.10589 0.0
C132 C 1.01144 0.73518 0.09422 0.0
C133 C 1.01005 0.72129 0.09562 0.0
C134 C 0.02597 0.73567 0.11349 0.0
C135 C 1.01952 0.74255 0.10308 0.0
C136 C 0.02459 0.72182 0.11486 0.0
C137 C 1.0171 0.64737 0.1134 0.0
C138 C 0.02803 0.64226 0.13447 0.0
C139 C 0.03125 0.62766 0.11558 0.0
C140 C 0.02302 0.63593 0.10789 0.0
C141 C 0.03372 0.6306 0.12903 0.0
C142 C 1.01982 0.65057 0.12674 0.0
C143 C 1.00739 0.65507 0.10531 0.0
O144 O 0.98017 0.68441 0.09547 0.0
O145 O 0.99352 0.68277 0.07825 0.0
O146 O 1.01206 0.66075 0.09447 0.0
O147 O 0.99872 0.66257 0.11172 0.0
H148 H 0.98264 0.65728 0.07677 0.0
H149 H 0.96613 0.64372 0.06486 0.0
H150 H 0.94027 0.67823 0.06145 0.0
H151 H 0.95704 0.69176 0.07298 0.0
H152 H 1.0062 0.74015 0.08619 0.0
H153 H 1.0039 0.71583 0.08861 0.0
H154 H 0.03242 0.74093 0.12038 0.0
H155 H 0.02987 0.71676 0.12282 0.0
H156 H 0.02986 0.64491 0.14474 0.0
H157 H 0.03531 0.61871 0.11109 0.0
H158 H 1.02099 0.63319 0.09766 0.0
H159 H 1.01542 0.65935 0.13127 0.0
C160 C 0.42217 1.01329 0.16238 0.0
C161 C 0.42156 1.02014 0.1502 0.0
C162 C 0.40955 1.00144 0.14011 0.0
C163 C 0.41531 1.01427 0.13917 0.0
C164 C 0.41043 0.99457 0.15231 0.0
C165 C 0.41666 1.00045 0.16331 0.0
U166 U 0.44355 0.04021 0.17937 0.0
O167 O 0.44002 0.05104 0.19813 0.0
O168 O 0.45791 0.03848 0.19588 0.0
C169 C 0.45063 0.04586 0.20393 0.0
C170 C 0.42822 1.01945 0.17427 0.0
C171 C 0.44876 0.04079 0.21763 0.0
C172 C 0.4473 0.02263 0.23375 0.0
C173 C 0.4481 0.02706 0.22052 0.0
C174 C 0.44747 0.04558 0.24131 0.0
C175 C 0.44716 0.03184 0.24435 0.0
C176 C 0.44828 0.04997 0.22813 0.0
C177 C 0.46001 0.06744 0.15697 0.0
C178 C 0.4637 0.09151 0.15818 0.0
C179 C 0.47814 0.07786 0.14446 0.0
C180 C 0.47097 0.06646 0.14827 0.0
C181 C 0.47448 0.09058 0.14918 0.0
C182 C 0.45654 0.08008 0.16202 0.0
C183 C 0.45177 0.05537 0.15959 0.0
O184 O 0.44134 1.0187 0.17514 0.0
O185 O 0.42351 0.03125 0.17757 0.0
O186 O 0.44026 0.05709 0.16572 0.0
O187 O 0.45821 0.04461 0.16354 0.0
H188 H 0.42578 0.03008 0.14928 0.0
H189 H 0.41472 1.01991 0.12999 0.0
H190 H 0.40634 0.9846 0.15337 0.0
H191 H 0.41709 0.99498 0.1726 0.0
H192 H 0.44718 1.01198 0.23568 0.0
H193 H 0.44844 1.01975 0.21259 0.0
H194 H 0.44712 0.05297 0.24915 0.0
H195 H 0.44873 0.06061 0.22614 0.0
H196 H 0.46049 0.10112 0.16192 0.0
H197 H 0.48651 0.07669 0.13771 0.0
H198 H 0.47383 0.05687 0.14417 0.0
H199 H 0.4481 0.08121 0.16869 0.0
C200 C 0.57549 0.47131 0.17719 0.0
C201 C 0.57341 0.47355 0.16357 0.0
C202 C 0.56141 0.45236 0.16166 0.0
C203 C 0.56641 0.46419 0.15589 0.0
C204 C 0.56374 0.45009 0.17528 0.0
C205 C 0.57069 0.45948 0.18295 0.0
U206 U 0.59833 0.50177 0.18118 0.0
O207 O 0.59675 0.51897 0.19468 0.0
O208 O 0.61427 0.50578 0.19584 0.0
C209 C 0.60784 0.51595 0.20107 0.0
C210 C 0.5825 0.48121 0.18552 0.0
C211 C 0.60722 0.51635 0.21575 0.0
C212 C 0.59579 0.51233 0.23678 0.0
C213 C 0.59618 0.51137 0.22286 0.0
C214 C 0.61751 0.52311 0.23661 0.0
C215 C 0.60647 0.51821 0.24384 0.0
C216 C 0.61787 0.52219 0.22275 0.0
C217 C 0.61278 0.51766 0.14889 0.0
C218 C 0.63392 0.52883 0.144 0.0
C219 C 0.61506 0.53154 0.12912 0.0
C220 C 0.6073 0.52332 0.13734 0.0
C221 C 0.62854 0.53424 0.13222 0.0
C222 C 0.62613 0.52064 0.15227 0.0
C223 C 0.60469 0.50792 0.15654 0.0
O224 O 0.59564 0.48036 0.18562 0.0
O225 O 0.57816 0.49358 0.18456 0.0
O226 O 0.59395 0.51257 0.16252 0.0
O227 O 0.61128 0.49911 0.16371 0.0
H228 H 0.57713 0.48259 0.1589 0.0
H229 H 0.56497 0.4662 0.1454 0.0
H230 H 0.55992 0.44118 0.1801 0.0
H231 H 0.5722 0.45756 0.19345 0.0
H232 H 0.5872 0.50832 0.24202 0.0
H233 H 0.58786 0.50679 0.21766 0.0
H234 H 0.62583 0.52787 0.24166 0.0
H235 H 0.62645 0.52616 0.21745 0.0
H236 H 0.64421 0.53084 0.14679 0.0
H237 H 0.61061 0.5354 0.12007 0.0
H238 H 0.59707 0.5211 0.13448 0.0
H239 H 0.63062 0.51645 0.16114 0.0
C240 C 0.42022 0.02926 0.38096 0.0
C241 C 0.42609 0.02828 0.39363 0.0
C242 C 0.40747 0.04072 0.40335 0.0
C243 C 0.4198 0.03402 0.40471 0.0
C244 C 0.40162 0.04157 0.39065 0.0
C245 C 0.40795 0.03592 0.37958 0.0
U246 U 0.44197 1.00269 0.36394 0.0
O247 O 0.43931 0.99261 0.34468 0.0
O248 O 0.45725 1.00478 0.34824 0.0
C249 C 0.45016 0.998 0.33952 0.0
C250 C 0.42669 0.02346 0.36908 0.0
C251 C 0.44902 1.00392 0.326 0.0
C252 C 0.43617 1.00913 0.30599 0.0
C253 C 0.43675 1.00437 0.3191 0.0
C254 C 0.46006 1.01323 0.30644 0.0
C255 C 0.44784 1.01357 0.29945 0.0
C256 C 0.46063 1.00843 0.31951 0.0
C257 C 0.4563 0.97463 0.38684 0.0
C258 C 0.47447 0.95893 0.38266 0.0
C259 C 0.46046 0.95626 0.40213 0.0
C260 C 0.45303 0.96749 0.39837 0.0
C261 C 0.47137 0.95191 0.39442 0.0
C262 C 0.46701 0.97023 0.37891 0.0
C263 C 0.44865 0.98687 0.38378 0.0
O264 O 0.43985 0.02404 0.36868 0.0
O265 O 0.42192 1.01189 0.36511 0.0
O266 O 0.43764 0.98534 0.37677 0.0
O267 O 0.45561 0.99748 0.38033 0.0
H268 H 0.43551 0.02308 0.39497 0.0
H269 H 0.4245 0.03305 0.41436 0.0
H270 H 0.39222 0.04679 0.38921 0.0
H271 H 0.40325 0.03681 0.36991 0.0
H272 H 0.42657 1.00937 0.30098 0.0
H273 H 0.42759 1.00092 0.32375 0.0
H274 H 0.46928 1.01638 0.3017 0.0
H275 H 0.47026 1.00804 0.32448 0.0
H276 H 0.48285 0.95589 0.37653 0.0
H277 H 0.45761 0.95097 0.41109 0.0
H278 H 0.44478 0.97069 0.4046 0.0
H279 H 0.46971 0.97562 0.36996 0.0
C280 C 0.57601 0.57253 0.36645 0.0
C281 C 0.57494 0.57101 0.38027 0.0
C282 C 0.56207 0.59171 0.38178 0.0
C283 C 0.56802 0.58049 0.38786 0.0
C284 C 0.56341 0.59329 0.36793 0.0
C285 C 0.5703 0.58377 0.36035 0.0
U286 U 0.59866 0.54198 0.36344 0.0
O287 O 0.59679 0.52407 0.35088 0.0
O288 O 0.61436 0.53709 0.34885 0.0
C289 C 0.60785 0.52665 0.34425 0.0
C290 C 0.58287 0.56237 0.35829 0.0
C291 C 0.60697 0.52554 0.32965 0.0
C292 C 0.59921 0.53345 0.30807 0.0
C293 C 0.59965 0.53472 0.32197 0.0
C294 C 0.6133 0.5138 0.30945 0.0
C295 C 0.60612 0.52302 0.30162 0.0
C296 C 0.61372 0.51507 0.32329 0.0
C297 C 0.61295 0.52799 0.39664 0.0
C298 C 0.62889 0.50978 0.39933 0.0
C299 C 0.61979 0.52085 0.41872 0.0
C300 C 0.61224 0.52922 0.41049 0.0
C301 C 0.62823 0.511 0.41328 0.0
C302 C 0.62129 0.5182 0.39107 0.0
C303 C 0.60503 0.53727 0.38839 0.0
O304 O 0.59601 0.56317 0.35801 0.0
O305 O 0.5785 0.55007 0.35975 0.0
O306 O 0.59431 0.5323 0.38264 0.0
O307 O 0.61185 0.54536 0.38064 0.0
H308 H 0.57937 0.56244 0.38518 0.0
H309 H 0.56735 0.57904 0.39851 0.0
H310 H 0.55885 0.60171 0.36289 0.0
H311 H 0.57103 0.58512 0.34969 0.0
H312 H 0.59368 0.5408 0.30237 0.0
H313 H 0.59438 0.54289 0.3267 0.0
H314 H 0.61855 0.50552 0.3049 0.0
H315 H 0.61936 0.50784 0.32905 0.0
H316 H 0.63519 0.50224 0.3948 0.0
H317 H 0.61918 0.52228 0.42937 0.0
H318 H 0.60591 0.53677 0.41496 0.0
H319 H 0.62196 0.5171 0.38038 0.0
C320 C 0.17679 0.46684 0.07303 0.0
C321 C 0.16275 0.46649 0.07219 0.0
C322 C 0.16093 0.47994 0.09235 0.0
C323 C 0.1549 0.473 0.08174 0.0
C324 C 0.17502 0.4801 0.0932 0.0
C325 C 0.18285 0.47363 0.08362 0.0
U326 U 0.18034 0.44472 0.0424 0.0
O327 O 0.19312 0.44699 0.02469 0.0
O328 O 0.1953 0.42933 0.03744 0.0
C329 C 0.19992 0.43601 0.02717 0.0
C330 C 0.18517 0.46031 0.06286 0.0
C331 C 0.21465 0.43701 0.02613 0.0
C332 C 0.23613 0.44638 0.03287 0.0
C333 C 0.22211 0.4458 0.03408 0.0
C334 C 0.23529 0.42943 1.01575 0.0
C335 C 0.24291 0.43812 0.02373 0.0
C336 C 0.22134 0.42889 1.01694 0.0
C337 C 0.14719 0.43 0.02812 0.0
C338 C 0.14179 0.42231 1.0058 0.0
C339 C 0.12666 0.41755 0.02401 0.0
C340 C 0.13532 0.42412 0.03276 0.0
C341 C 0.12966 0.41671 1.01037 0.0
C342 C 0.15048 0.42889 1.0146 0.0
C343 C 0.15536 0.4379 0.0375 0.0
O344 O 0.1857 0.4472 0.0635 0.0
O345 O 0.18361 0.4648 0.05068 0.0
O346 O 0.16096 0.44883 0.03282 0.0
O347 O 0.16321 0.43115 0.04556 0.0
H348 H 0.15788 0.46124 0.06411 0.0
H349 H 0.14409 0.47251 0.08086 0.0
H350 H 0.18001 0.48547 0.10111 0.0
H351 H 0.19368 0.47402 0.08442 0.0
H352 H 0.24167 0.4531 0.03927 0.0
H353 H 0.21712 0.45214 0.04126 0.0
H354 H 0.24011 0.42309 1.00846 0.0
H355 H 0.21575 0.42209 1.01066 0.0
H356 H 0.14451 0.42172 0.9954 0.0
H357 H 0.11736 0.41355 0.02788 0.0
H358 H 0.13256 0.42491 0.04314 0.0
H359 H 0.15962 0.43331 1.01079 0.0
C360 C 0.17603 0.57634 0.46994 0.0
C361 C 0.16222 0.57463 0.47203 0.0
C362 C 0.16018 0.56277 0.45092 0.0
C363 C 0.15438 0.56789 0.46263 0.0
C364 C 0.17399 0.56474 0.4488 0.0
C365 C 0.18182 0.57145 0.45823 0.0
U366 U 0.18022 0.59762 0.5012 0.0
O367 O 0.19395 0.59521 0.51815 0.0
O368 O 0.19495 0.61336 0.50592 0.0
C369 C 0.20036 0.60642 0.51564 0.0
C370 C 0.18452 0.58296 0.47996 0.0
C371 C 0.21517 0.60584 0.5159 0.0
C372 C 0.23633 0.59411 0.51261 0.0
C373 C 0.22229 0.59449 0.51167 0.0
C374 C 0.23629 0.61644 0.52182 0.0
C375 C 0.24351 0.60509 0.51772 0.0
C376 C 0.2223 0.61679 0.52093 0.0
C377 C 0.14747 0.61053 0.51811 0.0
C378 C 0.13887 0.63117 0.5278 0.0
C379 C 0.12984 0.60987 0.53486 0.0
C380 C 0.13855 0.60329 0.52616 0.0
C381 C 0.12975 0.62391 0.53567 0.0
C382 C 0.14764 0.62456 0.51911 0.0
C383 C 0.15536 0.60332 0.50787 0.0
O384 O 0.18442 0.59609 0.47975 0.0
O385 O 0.1838 0.578 0.49205 0.0
O386 O 0.16155 0.59237 0.51172 0.0
O387 O 0.16245 0.61054 0.4995 0.0
H388 H 0.15754 0.57842 0.48098 0.0
H389 H 0.14376 0.56672 0.46451 0.0
H390 H 0.17882 0.56081 0.44 0.0
H391 H 0.19246 0.57266 0.45644 0.0
H392 H 0.24156 0.58527 0.50922 0.0
H393 H 0.21701 0.58591 0.50771 0.0
H394 H 0.24144 0.62501 0.52597 0.0
H395 H 0.21702 0.62561 0.52432 0.0
H396 H 0.13918 0.64197 0.52827 0.0
H397 H 0.12283 0.60395 0.54059 0.0
H398 H 0.13804 0.5925 0.52546 0.0
H399 H 0.15432 0.63048 0.513 0.0
C400 C 0.86638 0.96707 0.46766 0.0
C401 C 0.88041 0.96615 0.46707 0.0
C402 C 0.88057 0.97859 0.44615 0.0
C403 C 0.88744 0.97188 0.45642 0.0
C404 C 0.8665 0.9795 0.44689 0.0
C405 C 0.8595 0.9738 0.45753 0.0
U406 U 0.86454 0.94646 0.49972 0.0
O407 O 0.85225 0.94947 0.51766 0.0
O408 O 0.84993 0.93117 0.50591 0.0
C409 C 0.8455 0.93832 0.51594 0.0
C410 C 0.85877 0.96099 0.47868 0.0
C411 C 0.8308 0.93926 0.51726 0.0
C412 C 0.80895 0.94681 0.50949 0.0
C413 C 0.82295 0.94638 0.50808 0.0
C414 C 0.81057 0.9331 0.52927 0.0
C415 C 0.80257 0.94007 0.52006 0.0
C416 C 0.82452 0.93271 0.52787 0.0
C417 C 0.89793 0.93246 0.51379 0.0
C418 C 0.90048 0.91585 0.53131 0.0
C419 C 0.92007 0.92677 0.52213 0.0
C420 C 0.91186 0.93418 0.51361 0.0
C421 C 0.91452 0.91745 0.53106 0.0
C422 C 0.89225 0.92331 0.52275 0.0
C423 C 0.88971 0.94004 0.5042 0.0
O424 O 0.85834 0.94787 0.47876 0.0
O425 O 0.86094 0.96611 0.49051 0.0
O426 O 0.88419 0.9511 0.50861 0.0
O427 O 0.88165 0.93297 0.49663 0.0
H428 H 0.88589 0.96095 0.4748 0.0
H429 H 0.89824 0.97085 0.45612 0.0
H430 H 0.86089 0.98475 0.4393 0.0
H431 H 0.84868 0.97464 0.45784 0.0
H432 H 0.80312 0.95217 0.50214 0.0
H433 H 0.82763 0.95149 0.4998 0.0
H434 H 0.80607 0.92798 0.53764 0.0
H435 H 0.83041 0.9272 0.53509 0.0
H436 H 0.89584 0.90888 0.53815 0.0
H437 H 0.93081 0.92813 0.52147 0.0
H438 H 0.91643 0.94115 0.50672 0.0
H439 H 0.88149 0.92186 0.52305 0.0
C440 C 0.36635 0.57714 0.57447 0.0
C441 C 0.3796 0.57271 0.57277 0.0
C442 C 0.38026 0.56473 0.59574 0.0
C443 C 0.38647 0.56654 0.58328 0.0
C444 C 0.36704 0.56937 0.59739 0.0
C445 C 0.36018 0.57547 0.58687 0.0
U446 U 0.36392 0.59904 0.54312 0.0
O447 O 0.35173 0.59639 0.52503 0.0
O448 O 0.34875 0.61402 0.53762 0.0
C449 C 0.3446 0.6072 0.52725 0.0
C450 C 0.35873 0.58343 0.56352 0.0
C451 C 0.32994 0.60586 0.52579 0.0
C452 C 0.30809 0.59864 0.53387 0.0
C453 C 0.32208 0.59926 0.53533 0.0
C454 C 0.30975 0.61107 0.51327 0.0
C455 C 0.30173 0.60467 0.52288 0.0
C456 C 0.32368 0.61165 0.51473 0.0
C457 C 0.39663 0.61544 0.52987 0.0
C458 C 0.40343 0.62256 0.50768 0.0
C459 C 0.41453 0.63172 0.52703 0.0
C460 C 0.40633 0.62399 0.53528 0.0
C461 C 0.41326 0.63107 0.51311 0.0
C462 C 0.39516 0.61484 0.51598 0.0
C463 C 0.38874 0.6069 0.53899 0.0
O464 O 0.35772 0.59651 0.56401 0.0
O465 O 0.3611 0.57891 0.55148 0.0
O466 O 0.38376 0.59576 0.53413 0.0
O467 O 0.38044 0.61314 0.547 0.0
H468 H 0.38462 0.57394 0.5633 0.0
H469 H 0.39657 0.563 0.58157 0.0
H470 H 0.36199 0.56843 0.60687 0.0
H471 H 0.34999 0.57889 0.58844 0.0
H472 H 0.30224 0.59373 0.54152 0.0
H473 H 0.32674 0.59474 0.54396 0.0
H474 H 0.30526 0.61562 0.50457 0.0
H475 H 0.32957 0.61675 0.50723 0.0
H476 H 0.40207 0.62191 0.49703 0.0
H477 H 0.42211 0.63798 0.53157 0.0
H478 H 0.40772 0.62455 0.54594 0.0
H479 H 0.38774 0.60835 0.51153 0.0
C480 C 0.97022 0.86873 0.57588 0.0
C481 C 0.96747 0.88176 0.58024 0.0
C482 C 0.95121 0.88474 0.56231 0.0
C483 C 0.95804 0.88968 0.57355 0.0
C484 C 0.95404 0.87165 0.55802 0.0
C485 C 0.96343 0.86374 0.56474 0.0
U486 U 1.00035 0.86449 0.59902 0.0
O487 O 1.00453 0.84915 0.6142 0.0
O488 O 1.01806 0.85152 0.59719 0.0
C489 C 1.01506 0.84453 0.60785 0.0
C490 C 0.9802 0.86027 0.5827 0.0
C491 C 1.01594 0.82987 0.60649 0.0
C492 C 1.00875 0.80881 0.59669 0.0
C493 C 1.00739 0.82272 0.598 0.0
C494 C 0.02711 0.8091 0.61242 0.0
C495 C 1.01867 0.80181 0.60387 0.0
C496 C 0.02575 0.82295 0.6137 0.0
C497 C 1.01539 0.89686 0.61447 0.0
C498 C 0.0257 0.90224 0.63577 0.0
C499 C 0.02987 0.91633 0.61664 0.0
C500 C 0.02173 0.90806 0.60889 0.0
C501 C 0.03183 0.91365 0.63023 0.0
C502 C 1.01758 0.89392 0.62797 0.0
C503 C 1.00582 0.88915 0.60623 0.0
O504 O 0.99264 0.86173 0.57867 0.0
O505 O 0.97911 0.85957 0.59571 0.0
O506 O 0.99715 0.88149 0.61248 0.0
O507 O 1.01065 0.88365 0.59539 0.0
H508 H 0.97263 0.88582 0.58881 0.0
H509 H 0.95603 0.89963 0.57725 0.0
H510 H 0.94919 0.86757 0.54929 0.0
H511 H 0.96548 0.85373 0.56117 0.0
H512 H 1.00198 0.80354 0.59012 0.0
H513 H 0.99973 0.82789 0.59235 0.0
H514 H 0.03501 0.80415 0.61793 0.0
H515 H 0.03249 0.8283 0.62026 0.0
H516 H 0.02713 0.89979 0.64616 0.0
H517 H 0.03428 0.9251 0.61207 0.0
H518 H 1.0201 0.91061 0.59854 0.0
H519 H 1.01285 0.88534 0.63257 0.0
C520 C 1.01179 0.66204 0.62019 0.0
C521 C 1.01607 0.6494 0.6159 0.0
C522 C 0.99959 0.6386 0.6303 0.0
C523 C 1.01002 0.6378 0.62089 0.0
C524 C 0.99553 0.65132 0.63473 0.0
C525 C 1.00157 0.66291 0.6297 0.0
U526 U 0.03835 0.67986 0.59934 0.0
O527 O 0.0363 0.69637 0.58493 0.0
O528 O 0.0489 0.69888 0.60263 0.0
C529 C 0.04367 0.70457 0.59204 0.0
C530 C 1.01768 0.67435 0.61461 0.0
C531 C 0.03839 0.71826 0.59376 0.0
C532 C 0.02632 0.73517 0.60638 0.0
C533 C 0.03056 0.72189 0.60477 0.0
C534 C 0.03746 0.74124 0.58587 0.0
C535 C 0.0298 0.74506 0.59698 0.0
C536 C 0.0417 0.72801 0.5843 0.0
C537 C 0.06587 0.6575 0.58304 0.0
C538 C 0.07628 0.65296 0.56158 0.0
C539 C 0.08889 0.64941 0.58181 0.0
C540 C 0.07787 0.65368 0.58929 0.0
C541 C 0.08817 0.64875 0.56786 0.0
C542 C 0.06526 0.65725 0.56907 0.0
C543 C 0.05375 0.66014 0.59123 0.0
O544 O 0.02949 0.67772 0.61931 0.0
O545 O 1.01685 0.67557 0.60163 0.0
O546 O 0.0428 0.66391 0.58498 0.0
O547 O 0.05556 0.66644 0.60255 0.0
H548 H 0.024 0.64852 0.60861 0.0
H549 H 1.01353 0.62819 0.61739 0.0
H550 H 0.98745 0.65234 0.64183 0.0
H551 H 0.99812 0.67258 0.63312 0.0
H552 H 1.02031 0.73769 0.61497 0.0
H553 H 0.02784 0.7145 0.61217 0.0
H554 H 0.04053 0.74856 0.57854 0.0
H555 H 0.04777 0.72543 0.57575 0.0
H556 H 0.07528 0.65243 0.55087 0.0
H557 H 0.09793 0.64643 0.58699 0.0
H558 H 0.07863 0.65361 0.60004 0.0
H559 H 0.05613 0.65995 0.5639 0.0
C560 C 0.97077 0.17617 0.96822 0.0
C561 C 0.96808 0.16316 0.96375 0.0
C562 C 0.95177 0.15998 0.98161 0.0
C563 C 0.95865 0.15516 0.97036 0.0
C564 C 0.95456 0.17305 0.98601 0.0
C565 C 0.96394 0.18104 0.97938 0.0
U566 U 1.00094 0.18064 0.9452 0.0
O567 O 1.00511 0.19607 0.93009 0.0
O568 O 1.01862 0.19364 0.94713 0.0
C569 C 1.01562 0.20068 0.93649 0.0
C570 C 0.98075 0.1847 0.96149 0.0
C571 C 1.01651 0.21534 0.93789 0.0
C572 C 1.01079 0.23616 0.94904 0.0
C573 C 1.00927 0.22228 0.94766 0.0
C574 C 0.02662 0.2363 0.93081 0.0
C575 C 1.01954 0.24336 0.94067 0.0
C576 C 0.02511 0.22247 0.92945 0.0
C577 C 1.01603 0.14834 0.92962 0.0
C578 C 0.02622 0.14288 0.90828 0.0
C579 C 0.03057 0.1289 0.92745 0.0
C580 C 0.02245 0.13719 0.93522 0.0
C581 C 0.03242 0.13153 0.91383 0.0
C582 C 1.01812 0.15122 0.91609 0.0
C583 C 1.00646 0.15602 0.93787 0.0
O584 O 0.99318 0.18326 0.96554 0.0
O585 O 0.97969 0.18549 0.94848 0.0
O586 O 0.99779 0.1637 0.93164 0.0
O587 O 1.01127 0.16148 0.94875 0.0
H588 H 0.97327 0.15918 0.95517 0.0
H589 H 0.95669 0.14522 0.96657 0.0
H590 H 0.94967 0.17705 0.99475 0.0
H591 H 0.96594 0.19103 0.98303 0.0
H592 H 1.00507 0.24126 0.95665 0.0
H593 H 1.00255 0.21695 0.95426 0.0
H594 H 0.0336 0.24141 0.92432 0.0
H595 H 0.03082 0.21729 0.92189 0.0
H596 H 0.02756 0.1453 0.89787 0.0
H597 H 0.03503 0.12017 0.93203 0.0
H598 H 1.0209 0.13467 0.94559 0.0
H599 H 1.01332 0.15975 0.91148 0.0
C600 C 1.01225 0.3817 0.92302 0.0
C601 C 1.01599 0.39443 0.92753 0.0
C602 C 0.9997 0.40483 0.91264 0.0
C603 C 1.00976 0.40588 0.92241 0.0
C604 C 0.9962 0.39203 0.90798 0.0
C605 C 1.00241 0.38058 0.91314 0.0
U606 U 0.03904 0.36498 0.94429 0.0
O607 O 0.03746 0.34867 0.95895 0.0
O608 O 0.05031 0.34629 0.94143 0.0
C609 C 0.04515 0.34059 0.95204 0.0
C610 C 1.01837 0.36955 0.92873 0.0
C611 C 0.0402 0.32679 0.95039 0.0
C612 C 0.02671 0.31007 0.93898 0.0
C613 C 0.03092 0.32338 0.94046 0.0
C614 C 0.04086 0.30352 0.95742 0.0
C615 C 0.03166 0.29994 0.94742 0.0
C616 C 0.04506 0.31678 0.95887 0.0
C617 C 0.06511 0.38908 0.96026 0.0
C618 C 0.08429 0.38311 0.974 0.0
C619 C 0.0793 0.40639 0.96965 0.0
C620 C 0.06826 0.4026 0.96201 0.0
C621 C 0.08751 0.39673 0.97574 0.0
C622 C 0.07318 0.37931 0.9663 0.0
C623 C 0.05337 0.38562 0.95208 0.0
O624 O 0.03033 0.36649 0.9242 0.0
O625 O 1.01743 0.36841 0.94171 0.0
O626 O 0.04273 0.38131 0.95848 0.0
O627 O 0.05575 0.37899 0.94107 0.0
H628 H 0.02364 0.3955 0.9351 0.0
H629 H 1.01285 0.41556 0.9261 0.0
H630 H 0.98841 0.39083 0.90058 0.0
H631 H 0.99939 0.37084 0.90954 0.0
H632 H 1.01952 0.30773 0.93126 0.0
H633 H 0.027 0.33098 0.93384 0.0
H634 H 0.04506 0.29602 0.96397 0.0
H635 H 0.05226 0.3192 0.96657 0.0
H636 H 0.09043 0.3754 0.97847 0.0
H637 H 0.08127 0.41695 0.97097 0.0
H638 H 0.0621 0.41028 0.95747 0.0
H639 H 0.07091 0.3688 0.96504 0.0
C640 C 0.57644 0.97116 0.86698 0.0
C641 C 0.57447 0.97323 0.88064 0.0
C642 C 0.56255 0.95198 0.88243 0.0
C643 C 0.56756 0.96375 0.88828 0.0
C644 C 0.56478 0.94987 0.86877 0.0
C645 C 0.57164 0.95938 0.86114 0.0
U646 U 0.59893 1.00189 0.86326 0.0
O647 O 0.61476 1.00635 0.84862 0.0
O648 O 0.59708 1.0193 0.85 0.0
C649 C 0.60822 1.01657 0.84358 0.0
C650 C 0.58332 0.98122 0.8587 0.0
C651 C 0.60758 1.01727 0.82894 0.0
C652 C 0.59741 1.01145 0.8077 0.0
C653 C 0.5978 1.01037 0.82162 0.0
C654 C 0.61657 0.02629 0.80832 0.0
C655 C 0.60683 1.01941 0.80086 0.0
C656 C 0.61692 0.02522 0.82218 0.0
C657 C 0.61324 1.01748 0.89575 0.0
C658 C 0.63457 0.02748 0.90215 0.0
C659 C 0.61457 0.03237 0.91484 0.0
C660 C 0.60708 0.02422 0.90634 0.0
C661 C 0.62847 0.03393 0.91303 0.0
C662 C 0.62704 1.01935 0.89361 0.0
C663 C 0.60528 1.00774 0.88795 0.0
O664 O 0.57884 0.99353 0.85979 0.0
O665 O 0.59646 0.98051 0.85856 0.0
O666 O 0.61195 0.99911 0.88067 0.0
O667 O 0.59444 1.01231 0.88206 0.0
H668 H 0.57819 0.98222 0.88537 0.0
H669 H 0.56619 0.96562 0.89879 0.0
H670 H 0.56095 0.94102 0.8639 0.0
H671 H 0.57307 0.9576 0.85061 0.0
H672 H 0.58986 1.00591 0.80228 0.0
H673 H 0.5905 1.00415 0.82665 0.0
H674 H 0.62385 0.03266 0.80346 0.0
H675 H 0.6245 0.03069 0.82765 0.0
H676 H 0.64526 0.02834 0.90049 0.0
H677 H 0.60947 0.03735 0.92294 0.0
H678 H 0.59647 0.02292 0.90824 0.0
H679 H 0.63212 1.01426 0.88556 0.0
C680 C 0.42159 0.51441 0.88029 0.0
C681 C 0.42115 0.5214 0.89237 0.0
C682 C 0.40925 0.50287 0.90289 0.0
C683 C 0.41502 0.5157 0.90355 0.0
C684 C 0.40987 0.49586 0.89078 0.0
C685 C 0.41597 0.50159 0.8796 0.0
U686 U 0.44255 0.54157 0.86351 0.0
O687 O 0.45752 0.54026 0.84751 0.0
O688 O 0.43934 0.55225 0.84459 0.0
C689 C 0.4503 0.54741 0.83918 0.0
C690 C 0.42771 0.52039 0.86833 0.0
C691 C 0.44899 0.54218 0.8255 0.0
C692 C 0.44653 0.52387 0.80974 0.0
C693 C 0.44704 0.52853 0.82289 0.0
C694 C 0.44963 0.54646 0.80169 0.0
C695 C 0.44797 0.53277 0.79895 0.0
C696 C 0.45015 0.55109 0.8148 0.0
C697 C 0.45682 0.56917 0.88685 0.0
C698 C 0.47397 0.5858 0.88205 0.0
C699 C 0.46171 0.58673 0.90279 0.0
C700 C 0.45437 0.57546 0.89904 0.0
C701 C 0.47171 0.59199 0.89443 0.0
C702 C 0.4666 0.57446 0.8783 0.0
C703 C 0.44929 0.5569 0.88367 0.0
O704 O 0.42274 0.53198 0.86465 0.0
O705 O 0.44086 0.52003 0.86782 0.0
O706 O 0.45636 0.54652 0.87983 0.0
O707 O 0.43814 0.55843 0.8769 0.0
H708 H 0.42551 0.53129 0.89312 0.0
H709 H 0.41487 0.52132 0.91275 0.0
H710 H 0.4054 0.48605 0.88984 0.0
H711 H 0.41619 0.49604 0.87036 0.0
H712 H 0.44534 0.51325 0.80803 0.0
H713 H 0.44611 0.52146 0.831 0.0
H714 H 0.45052 0.55365 0.79369 0.0
H715 H 0.45159 0.56167 0.81658 0.0
H716 H 0.48164 0.58954 0.8754 0.0
H717 H 0.4595 0.59136 0.91227 0.0
H718 H 0.44683 0.57156 0.90575 0.0
H719 H 0.46865 0.56973 0.86883 0.0
C720 C 0.57677 0.0728 0.67707 0.0
C721 C 0.57563 0.07113 0.66327 0.0
C722 C 0.56306 0.09201 0.6615 0.0
C723 C 0.56882 0.08063 0.65556 0.0
C724 C 0.56446 0.09372 0.67532 0.0
C725 C 0.57123 0.08419 0.68302 0.0
U726 U 0.59908 0.04199 0.68077 0.0
O727 O 0.61482 0.03736 0.69544 0.0
O728 O 0.59709 0.0245 0.69391 0.0
C729 C 0.60823 0.02712 0.70038 0.0
C730 C 0.58355 0.0627 0.68538 0.0
C731 C 0.60754 0.02632 0.71501 0.0
C732 C 0.59807 0.03292 0.73633 0.0
C733 C 0.59847 0.03404 0.72241 0.0
C734 C 0.61576 1.01639 0.73552 0.0
C735 C 0.60677 0.02411 0.74307 0.0
C736 C 0.61613 1.0175 0.72167 0.0
C737 C 0.61337 0.02651 0.64821 0.0
C738 C 0.63466 1.01652 0.64167 0.0
C739 C 0.61458 1.01163 0.6291 0.0
C740 C 0.60714 1.01978 0.63765 0.0
C741 C 0.62849 1.01008 0.63083 0.0
C742 C 0.62719 0.02465 0.65026 0.0
C743 C 0.60546 0.03625 0.65606 0.0
O744 O 0.57902 0.05041 0.68421 0.0
O745 O 0.5967 0.06334 0.68558 0.0
O746 O 0.61217 0.04479 0.66342 0.0
O747 O 0.59458 0.03171 0.66189 0.0
H748 H 0.57992 0.06244 0.65847 0.0
H749 H 0.5681 0.07908 0.64493 0.0
H750 H 0.56003 0.10226 0.68026 0.0
H751 H 0.57201 0.08565 0.69366 0.0
H752 H 0.5911 0.0391 0.74182 0.0
H753 H 0.59175 0.04093 0.71745 0.0
H754 H 0.62246 1.00935 0.74031 0.0
H755 H 0.62315 1.0114 0.71613 0.0
H756 H 0.64536 1.01568 0.64327 0.0
H757 H 0.60942 1.00665 0.62103 0.0
H758 H 0.59652 1.02106 0.63582 0.0
H759 H 0.63232 0.02974 0.65828 0.0
C760 C 0.42071 0.52829 0.66279 0.0
C761 C 0.42698 0.52831 0.65028 0.0
C762 C 0.40771 0.53966 0.64045 0.0
C763 C 0.42057 0.53401 0.63923 0.0
C764 C 0.40144 0.53949 0.65298 0.0
C765 C 0.40789 0.5339 0.66402 0.0
U766 U 0.4427 0.50194 0.67999 0.0
O767 O 0.45811 0.50423 0.69555 0.0
O768 O 0.44024 0.49204 0.69939 0.0
C769 C 0.45113 0.49749 0.70439 0.0
C770 C 0.42731 0.52259 0.67469 0.0
C771 C 0.45009 0.50352 0.71784 0.0
C772 C 0.43712 0.5104 0.73723 0.0
C773 C 0.43767 0.50548 0.72419 0.0
C774 C 0.46132 0.51167 0.73777 0.0
C775 C 0.44894 0.51352 0.74422 0.0
C776 C 0.46187 0.5067 0.72478 0.0
C777 C 0.45694 0.47374 0.65724 0.0
C778 C 0.47516 0.45808 0.66139 0.0
C779 C 0.46109 0.4554 0.64196 0.0
C780 C 0.45365 0.4666 0.64572 0.0
C781 C 0.47205 0.45106 0.64964 0.0
C782 C 0.46768 0.46935 0.66515 0.0
C783 C 0.44927 0.48597 0.66028 0.0
O784 O 0.42261 0.51106 0.67885 0.0
O785 O 0.44047 0.52324 0.67503 0.0
O786 O 0.45623 0.49662 0.66356 0.0
O787 O 0.43834 0.48444 0.66741 0.0
H788 H 0.43683 0.52395 0.64903 0.0
H789 H 0.42561 0.53383 0.62971 0.0
H790 H 0.39162 0.54389 0.65431 0.0
H791 H 0.40287 0.53401 0.67357 0.0
H792 H 0.42741 0.51184 0.74182 0.0
H793 H 0.42838 0.50312 0.71914 0.0
H794 H 0.47064 0.51378 0.74286 0.0
H795 H 0.47157 0.50516 0.72019 0.0
H796 H 0.48356 0.45505 0.6675 0.0
H797 H 0.45824 0.45012 0.63301 0.0
H798 H 0.44537 0.46979 0.63951 0.0
H799 H 0.47039 0.47474 0.67409 0.0
C800 C 0.86636 0.57625 0.96902 0.0
C801 C 0.88031 0.57772 0.96799 0.0
C802 C 0.8804 0.56464 0.9475 0.0
C803 C 0.88728 0.57195 0.95733 0.0
C804 C 0.86642 0.56312 0.94871 0.0
C805 C 0.85949 0.56887 0.95935 0.0
U806 U 0.86426 0.59741 1.00073 0.0
O807 O 0.84946 0.61265 1.00649 0.0
O808 O 0.85184 0.59458 1.01863 0.0
C809 C 0.84503 0.60565 1.01665 0.0
C810 C 0.85876 0.58246 0.97996 0.0
C811 C 0.83034 0.60466 1.01797 0.0
C812 C 0.80842 0.59771 1.00986 0.0
C813 C 0.82242 0.59811 1.00845 0.0
C814 C 0.81018 0.61025 0.03035 0.0
C815 C 0.80211 0.60389 1.02078 0.0
C816 C 0.82412 0.61063 0.02894 0.0
C817 C 0.89714 0.6122 1.01517 0.0
C818 C 0.9017 0.63285 0.02717 0.0
C819 C 0.91747 0.61451 0.02836 0.0
C820 C 0.90919 0.60691 1.02008 0.0
C821 C 0.91394 0.62765 0.03187 0.0
C822 C 0.89337 0.6252 1.01893 0.0
C823 C 0.88925 0.60429 1.00551 0.0
O824 O 0.86099 0.57756 0.99189 0.0
O825 O 0.85823 0.59558 0.97978 0.0
O826 O 0.88129 0.61097 0.99748 0.0
O827 O 0.88388 0.59315 1.00997 0.0
H828 H 0.88578 0.58342 0.97536 0.0
H829 H 0.898 0.57344 0.95666 0.0
H830 H 0.86082 0.55739 0.94147 0.0
H831 H 0.84873 0.56759 0.96001 0.0
H832 H 0.80253 0.59282 1.00225 0.0
H833 H 0.82705 0.59345 0.99989 0.0
H834 H 0.80573 0.61492 0.03899 0.0
H835 H 0.83006 0.61567 0.03642 0.0
H836 H 0.89859 0.64287 0.02981 0.0
H837 H 0.92687 0.61024 0.03166 0.0
H838 H 0.91235 0.59695 1.01726 0.0
H839 H 0.8841 0.62953 1.01534 0.0
C840 C 0.86589 0.46584 0.57501 0.0
C841 C 0.87995 0.4655 0.5752 0.0
C842 C 0.88022 0.4774 0.59639 0.0
C843 C 0.88706 0.47125 0.58578 0.0
C844 C 0.86611 0.47775 0.59606 0.0
C845 C 0.85904 0.47203 0.58549 0.0
U846 U 0.86346 0.44501 0.5431 0.0
O847 O 0.84875 0.42961 0.53745 0.0
O848 O 0.85067 0.44784 0.52547 0.0
C849 C 0.84405 0.43665 0.52745 0.0
C850 C 0.85816 0.45967 0.56413 0.0
C851 C 0.82932 0.4374 0.52634 0.0
C852 C 0.80765 0.44646 0.53292 0.0
C853 C 0.82166 0.44611 0.53422 0.0
C854 C 0.80885 0.42944 0.51588 0.0
C855 C 0.80105 0.43805 0.52377 0.0
C856 C 0.8228 0.42913 0.51716 0.0
C857 C 0.89625 0.43069 0.52803 0.0
C858 C 0.90092 0.4101 0.51597 0.0
C859 C 0.91641 0.42867 0.51453 0.0
C860 C 0.90814 0.43616 0.52293 0.0
C861 C 0.91301 0.41547 0.51109 0.0
C862 C 0.89261 0.41764 0.52432 0.0
C863 C 0.88843 0.43846 0.53785 0.0
O864 O 0.86012 0.46473 0.55222 0.0
O865 O 0.85777 0.44655 0.56418 0.0
O866 O 0.88069 0.43164 0.54597 0.0
O867 O 0.88286 0.44956 0.53355 0.0
H868 H 0.88541 0.46071 0.56721 0.0
H869 H 0.89789 0.47066 0.58576 0.0
H870 H 0.86051 0.48257 0.60392 0.0
H871 H 0.84819 0.47242 0.5855 0.0
H872 H 0.80197 0.45312 0.53924 0.0
H873 H 0.82652 0.45256 0.54139 0.0
H874 H 0.80418 0.42299 0.50859 0.0
H875 H 0.82853 0.42239 0.51095 0.0
H876 H 0.89792 0.40004 0.51338 0.0
H877 H 0.92569 0.43308 0.51108 0.0
H878 H 0.9112 0.44616 0.52571 0.0
H879 H 0.88347 0.41317 0.52806 0.0
C880 C 0.17635 0.07626 0.57375 0.0
C881 C 0.16238 0.07595 0.57219 0.0
C882 C 0.16007 0.06324 0.59279 0.0
C883 C 0.15432 0.06949 0.5816 0.0
C884 C 0.17408 0.06373 0.59436 0.0
C885 C 0.18214 0.07017 0.58491 0.0
U886 U 0.18072 0.09746 0.54249 0.0
O887 O 0.19541 0.11324 0.53774 0.0
O888 O 0.19448 0.09507 0.52558 0.0
C889 C 0.20083 0.10631 0.52804 0.0
C890 C 0.18499 0.08278 0.56377 0.0
C891 C 0.21564 0.1058 0.52778 0.0
C892 C 0.23688 0.09436 0.53154 0.0
C893 C 0.22284 0.09467 0.53245 0.0
C894 C 0.23669 0.11635 0.52148 0.0
C895 C 0.24399 0.10521 0.52604 0.0
C896 C 0.2227 0.11662 0.52234 0.0
C897 C 0.14798 0.11038 0.52557 0.0
C898 C 0.13945 0.13102 0.51579 0.0
C899 C 0.13033 0.10975 0.50884 0.0
C900 C 0.13902 0.10315 0.51756 0.0
C901 C 0.13029 0.12378 0.50795 0.0
C902 C 0.1482 0.12441 0.5245 0.0
C903 C 0.15587 0.10315 0.53582 0.0
O904 O 0.18426 0.07782 0.5517 0.0
O905 O 0.18497 0.09591 0.56393 0.0
O906 O 0.16295 0.11036 0.54419 0.0
O907 O 0.16206 0.09222 0.53198 0.0
H908 H 0.15773 0.08067 0.56365 0.0
H909 H 0.14356 0.06946 0.58016 0.0
H910 H 0.17887 0.0589 0.60274 0.0
H911 H 0.19291 0.07029 0.58628 0.0
H912 H 0.24217 0.08569 0.53528 0.0
H913 H 0.21761 0.0862 0.53673 0.0
H914 H 0.24177 0.1248 0.51702 0.0
H915 H 0.21735 0.12528 0.51861 0.0
H916 H 0.13979 0.14183 0.51526 0.0
H917 H 0.12329 0.10384 0.50313 0.0
H918 H 0.13847 0.09236 0.51831 0.0
H919 H 0.15491 0.13031 0.53058 0.0
C920 C 0.67694 0.46652 0.46907 0.0
C921 C 0.66353 0.46276 0.46714 0.0
C922 C 0.66095 0.47979 0.4499 0.0
C923 C 0.65563 0.4693 0.45763 0.0
C924 C 0.67445 0.48344 0.45186 0.0
C925 C 0.68234 0.47686 0.46134 0.0
U926 U 0.68035 0.44426 0.49966 0.0
O927 O 0.69521 0.42875 0.50466 0.0
O928 O 0.69307 0.44638 0.51741 0.0
C929 C 0.69985 0.4354 0.51493 0.0
C930 C 0.68528 0.45995 0.47926 0.0
C931 C 0.71458 0.43633 0.51599 0.0
C932 C 0.73593 0.44693 0.51076 0.0
C933 C 0.72192 0.44635 0.50946 0.0
C934 C 0.73536 0.42747 0.52508 0.0
C935 C 0.74284 0.43744 0.51855 0.0
C936 C 0.72141 0.42693 0.5238 0.0
C937 C 0.64707 0.4297 0.51375 0.0
C938 C 0.64329 0.41917 0.53525 0.0
C939 C 0.62552 0.41959 0.51886 0.0
C940 C 0.63396 0.42635 0.51004 0.0
C941 C 0.63001 0.416 0.53164 0.0
C942 C 0.65176 0.42596 0.52637 0.0
C943 C 0.65529 0.43758 0.50441 0.0
O944 O 0.68368 0.4644 0.49144 0.0
O945 O 0.68584 0.44684 0.47863 0.0
O946 O 0.66315 0.43081 0.49641 0.0
O947 O 0.66096 0.44841 0.5092 0.0
H948 H 0.65916 0.4548 0.47302 0.0
H949 H 0.64535 0.46609 0.45631 0.0
H950 H 0.67885 0.49159 0.44627 0.0
H951 H 0.69265 0.47996 0.46274 0.0
H952 H 0.74137 0.45466 0.5055 0.0
H953 H 0.71684 0.45369 0.50335 0.0
H954 H 0.74027 0.42012 0.53131 0.0
H955 H 0.71593 0.41915 0.52897 0.0
H956 H 0.64714 0.41644 0.54494 0.0
H957 H 0.61533 0.41756 0.51578 0.0
H958 H 0.63014 0.42921 0.50036 0.0
H959 H 0.66188 0.42843 0.52941 0.0
C960 C 0.51342 0.66225 0.92256 0.0
C961 C 0.51779 0.64955 0.92661 0.0
C962 C 0.50104 0.63895 0.9124 0.0
C963 C 0.51165 0.63802 0.9216 0.0
C964 C 0.49688 0.65173 0.90821 0.0
C965 C 0.503 0.66326 0.91326 0.0
U966 U 0.5402 0.67954 0.94345 0.0
O967 O 0.55106 0.69842 0.94025 0.0
O968 O 0.53846 0.69594 0.95795 0.0
C969 C 0.54596 0.70409 0.95089 0.0
C970 C 0.51943 0.67447 0.92817 0.0
C971 C 0.54086 0.71785 0.94923 0.0
C972 C 0.52722 0.73446 0.93781 0.0
C973 C 0.53148 0.72118 0.93936 0.0
C974 C 0.54151 0.74114 0.95608 0.0
C975 C 0.53222 0.74465 0.94613 0.0
C976 C 0.54576 0.72791 0.95759 0.0
C977 C 0.56721 0.65659 0.9595 0.0
C978 C 0.58057 0.65944 0.97956 0.0
C979 C 0.5867 0.64253 0.96349 0.0
C980 C 0.57588 0.64632 0.9555 0.0
C981 C 0.5891 0.6489 0.97572 0.0
C982 C 0.56975 0.66327 0.97151 0.0
C983 C 0.55523 0.65943 0.95133 0.0
O984 O 0.51863 0.67561 0.94116 0.0
O985 O 0.53129 0.67773 0.92348 0.0
O986 O 0.55723 0.66588 0.94012 0.0
O987 O 0.54442 0.66339 0.95769 0.0
H988 H 0.52588 0.64857 0.93374 0.0
H989 H 0.51524 0.62836 0.92491 0.0
H990 H 0.48865 0.65285 0.90128 0.0
H991 H 0.49948 0.67297 0.91003 0.0
H992 H 0.51995 0.73675 0.93014 0.0
H993 H 0.52754 0.71354 0.93282 0.0
H994 H 0.54576 0.74869 0.96253 0.0
H995 H 0.55304 0.72555 0.96524 0.0
H996 H 0.58222 0.66468 0.98883 0.0
H997 H 0.59292 0.63427 0.96028 0.0
H998 H 0.57407 0.64099 0.94631 0.0
H999 H 0.56323 0.67127 0.9748 0.0
C1000 C 0.4709 0.86711 0.96705 0.0
C1001 C 0.47282 0.88091 0.96874 0.0
C1002 C 0.45154 0.88264 0.98062 0.0
C1003 C 0.46326 0.88858 0.97549 0.0
C1004 C 0.44962 0.86883 0.97871 0.0
C1005 C 0.45922 0.86116 0.97201 0.0
U1006 U 0.50067 0.86346 0.94344 0.0
O1007 O 0.51877 0.85098 0.94492 0.0
O1008 O 0.50487 0.84815 0.92827 0.0
C1009 C 0.51563 0.84379 0.93445 0.0
C1010 C 0.48097 0.85882 0.96017 0.0
C1011 C 0.51676 0.82916 0.93603 0.0
C1012 C 0.51127 0.80838 0.94741 0.0
C1013 C 0.50965 0.82224 0.94591 0.0
C1014 C 0.52695 0.80823 0.92906 0.0
C1015 C 0.52 0.80119 0.93903 0.0
C1016 C 0.52534 0.82205 0.92759 0.0
C1017 C 0.5137 0.89648 0.92726 0.0
C1018 C 0.53547 0.90208 0.91781 0.0
C1019 C 0.51651 0.91674 0.91418 0.0
C1020 C 0.50838 0.9081 0.92155 0.0
C1021 C 0.5302 0.91396 0.91235 0.0
C1022 C 0.52729 0.89342 0.92523 0.0
C1023 C 0.50493 0.88827 0.93583 0.0
O1024 O 0.47961 0.85798 0.94721 0.0
O1025 O 0.49347 0.8606 0.96391 0.0
O1026 O 0.51039 0.88295 0.94649 0.0
O1027 O 0.49652 0.88021 0.92977 0.0
H1028 H 0.48176 0.88572 0.96494 0.0
H1029 H 0.46519 0.89914 0.97689 0.0
H1030 H 0.44065 0.86392 0.9823 0.0
H1031 H 0.45751 0.85055 0.97072 0.0
H1032 H 0.50564 0.80329 0.9551 0.0
H1033 H 0.50293 0.82755 0.95251 0.0
H1034 H 0.53391 0.80312 0.92256 0.0
H1035 H 0.53095 0.82722 0.91993 0.0
H1036 H 0.54598 0.89966 0.91664 0.0
H1037 H 0.51204 0.92563 0.90992 0.0
H1038 H 0.49792 0.91064 0.92298 0.0
H1039 H 0.53162 0.88449 0.92955 0.0
C1040 C 0.51447 0.38137 0.62125 0.0
C1041 C 0.51797 0.39406 0.6164 0.0
C1042 C 0.50192 0.40456 0.63144 0.0
C1043 C 0.51174 0.40554 0.62142 0.0
C1044 C 0.49867 0.39182 0.63645 0.0
C1045 C 0.50487 0.38034 0.63137 0.0
U1046 U 0.54124 0.36431 0.60022 0.0
O1047 O 0.55231 0.34553 0.60331 0.0
O1048 O 0.53956 0.34791 0.5857 0.0
C1049 C 0.54715 0.33981 0.59272 0.0
C1050 C 0.52054 0.36917 0.61564 0.0
C1051 C 0.54211 0.32604 0.59443 0.0
C1052 C 0.52932 0.3092 0.6065 0.0
C1053 C 0.53352 0.3225 0.60492 0.0
C1054 C 0.54207 0.3029 0.58702 0.0
C1055 C 0.53359 0.2992 0.59759 0.0
C1056 C 0.54626 0.31616 0.58548 0.0
C1057 C 0.5677 0.38787 0.58413 0.0
C1058 C 0.58452 0.38207 0.56759 0.0
C1059 C 0.58381 0.40447 0.57664 0.0
C1060 C 0.57294 0.40085 0.58463 0.0
C1061 C 0.58972 0.39517 0.56795 0.0
C1062 C 0.57359 0.37844 0.57563 0.0
C1063 C 0.55587 0.38471 0.59232 0.0
O1064 O 0.51965 0.36798 0.60266 0.0
O1065 O 0.53245 0.36603 0.62026 0.0
O1066 O 0.55811 0.37816 0.60342 0.0
O1067 O 0.54518 0.3805 0.58593 0.0
H1068 H 0.52543 0.39508 0.60864 0.0
H1069 H 0.51462 0.41518 0.61746 0.0
H1070 H 0.49107 0.39067 0.64404 0.0
H1071 H 0.50204 0.37063 0.63524 0.0
H1072 H 0.52268 0.30676 0.61466 0.0
H1073 H 0.53014 0.33 0.61192 0.0
H1074 H 0.54574 0.29549 0.58008 0.0
H1075 H 0.55292 0.31867 0.57734 0.0
H1076 H 0.58889 0.37462 0.56112 0.0
H1077 H 0.58733 0.4147 0.57704 0.0
H1078 H 0.56848 0.40828 0.59108 0.0
H1079 H 0.56969 0.36836 0.57513 0.0
C1080 C 0.47192 0.177 0.57648 0.0
C1081 C 0.47368 0.16317 0.57494 0.0
C1082 C 0.45243 0.16153 0.56298 0.0
C1083 C 0.46406 0.15552 0.56823 0.0
C1084 C 0.45067 0.17539 0.56473 0.0
C1085 C 0.46032 0.18302 0.57139 0.0
U1086 U 0.50175 0.18046 0.60002 0.0
O1087 O 0.51996 0.19278 0.59848 0.0
O1088 O 0.50614 0.19574 0.61516 0.0
C1089 C 0.51693 0.19999 0.60898 0.0
C1090 C 0.48205 0.18524 0.58332 0.0
C1091 C 0.51822 0.2146 0.60742 0.0
C1092 C 0.51213 0.23562 0.59677 0.0
C1093 C 0.51044 0.22176 0.59821 0.0
C1094 C 0.52927 0.23529 0.61379 0.0
C1095 C 0.52161 0.24257 0.60453 0.0
C1096 C 0.52759 0.22148 0.61521 0.0
C1097 C 0.51449 0.14733 0.61614 0.0
C1098 C 0.53598 0.14218 0.62645 0.0
C1099 C 0.5175 0.12663 0.62848 0.0
C1100 C 0.50939 0.13525 0.62107 0.0
C1101 C 0.53095 0.12988 0.63114 0.0
C1102 C 0.52782 0.15083 0.61898 0.0
C1103 C 0.50578 0.1556 0.60761 0.0
O1104 O 0.48073 0.18612 0.59628 0.0
O1105 O 0.49453 0.18337 0.57956 0.0
O1106 O 0.51129 0.16089 0.59695 0.0
O1107 O 0.49748 0.16375 0.6137 0.0
H1108 H 0.48255 0.1583 0.57884 0.0
H1109 H 0.46588 0.14493 0.56695 0.0
H1110 H 0.44177 0.18035 0.56105 0.0
H1111 H 0.45873 0.19367 0.57256 0.0
H1112 H 0.50595 0.24089 0.58963 0.0
H1113 H 0.50312 0.21662 0.59212 0.0
H1114 H 0.53681 0.24022 0.61979 0.0
H1115 H 0.53372 0.21613 0.62233 0.0
H1116 H 0.54631 0.14497 0.62825 0.0
H1117 H 0.5132 0.11739 0.63214 0.0
H1118 H 0.49912 0.13238 0.61903 0.0
H1119 H 0.53197 0.16011 0.61526 0.0
C1120 C 0.92128 0.51318 0.66334 0.0
C1121 C 0.92056 0.51996 0.65113 0.0
C1122 C 0.90863 0.50115 0.64118 0.0
C1123 C 0.9143 0.51401 0.64016 0.0
C1124 C 0.90958 0.49435 0.65341 0.0
C1125 C 0.91583 0.50031 0.66436 0.0
U1126 U 0.94208 0.54083 0.67955 0.0
O1127 O 0.9389 0.55163 0.69837 0.0
O1128 O 0.95719 0.53984 0.69546 0.0
C1129 C 0.94998 0.54702 0.70374 0.0
C1130 C 0.92746 0.51943 0.67511 0.0
C1131 C 0.94887 0.54191 0.71748 0.0
C1132 C 0.94455 0.52409 0.73344 0.0
C1133 C 0.94501 0.5287 0.72026 0.0
C1134 C 0.95161 0.54588 0.74118 0.0
C1135 C 0.94798 0.53259 0.74408 0.0
C1136 C 0.95205 0.55046 0.72804 0.0
C1137 C 0.95594 0.56843 0.65598 0.0
C1138 C 0.97314 0.58507 0.66061 0.0
C1139 C 0.96048 0.58619 0.6401 0.0
C1140 C 0.95325 0.57485 0.64389 0.0
C1141 C 0.97062 0.59139 0.64833 0.0
C1142 C 0.96587 0.57366 0.6644 0.0
C1143 C 0.94853 0.55609 0.6592 0.0
O1144 O 0.94062 0.51924 0.6755 0.0
O1145 O 0.92238 0.531 0.67867 0.0
O1146 O 0.93739 0.55754 0.66601 0.0
O1147 O 0.95571 0.54579 0.66309 0.0
H1148 H 0.92473 0.52992 0.65014 0.0
H1149 H 0.91364 0.51961 0.63096 0.0
H1150 H 0.90555 0.48436 0.65453 0.0
H1151 H 0.91635 0.49489 0.67367 0.0
H1152 H 0.94181 0.51378 0.73528 0.0
H1153 H 0.9425 0.52194 0.71224 0.0
H1154 H 0.95408 0.55279 0.74908 0.0
H1155 H 0.95499 0.56071 0.72612 0.0
H1156 H 0.98092 0.58875 0.66715 0.0
H1157 H 0.95807 0.59093 0.63071 0.0
H1158 H 0.94559 0.571 0.63729 0.0
H1159 H 0.96811 0.56883 0.67379 0.0
C1160 C 0.07491 0.97172 0.6775 0.0
C1161 C 0.07387 0.97315 0.66366 0.0
C1162 C 0.06151 0.95212 0.66218 0.0
C1163 C 0.06723 0.96346 0.65608 0.0
C1164 C 0.06273 0.95072 0.67607 0.0
C1165 C 0.06934 0.96043 0.68363 0.0
U1166 U 0.09739 1.00247 0.68086 0.0
O1167 O 0.09552 1.02004 0.69386 0.0
O1168 O 0.11317 1.00707 0.69549 0.0
C1169 C 0.10663 1.01736 0.70037 0.0
C1170 C 0.0817 0.98191 0.68566 0.0
C1171 C 0.10591 1.01817 0.71499 0.0
C1172 C 0.09609 1.0119 0.73628 0.0
C1173 C 0.0965 1.01081 0.72236 0.0
C1174 C 0.11448 0.02767 0.73554 0.0
C1175 C 0.10514 1.02031 0.74305 0.0
C1176 C 0.11485 0.0266 0.72169 0.0
C1177 C 0.11196 1.01763 0.64826 0.0
C1178 C 0.13335 0.02758 0.64196 0.0
C1179 C 0.11347 0.03235 0.62901 0.0
C1180 C 0.1059 0.02427 0.63753 0.0
C1181 C 0.12735 0.03393 0.63095 0.0
C1182 C 0.12574 1.01952 0.65051 0.0
C1183 C 0.10391 1.008 0.65612 0.0
O1184 O 0.09485 0.98119 0.68592 0.0
O1185 O 0.07725 0.99421 0.68428 0.0
O1186 O 0.09305 1.01267 0.66187 0.0
O1187 O 0.11051 0.99942 0.66357 0.0
H1188 H 0.07813 0.9818 0.65874 0.0
H1189 H 0.06636 0.96498 0.64546 0.0
H1190 H 0.05866 0.94205 0.6811 0.0
H1191 H 0.07011 0.95912 0.6943 0.0
H1192 H 0.08885 1.00599 0.74174 0.0
H1193 H 0.08951 1.00422 0.71737 0.0
H1194 H 0.12146 0.0344 0.74036 0.0
H1195 H 0.12215 0.03241 0.71617 0.0
H1196 H 0.14402 0.02845 0.64372 0.0
H1197 H 0.10845 0.03726 0.62081 0.0
H1198 H 0.0953 0.02296 0.63555 0.0
H1199 H 0.13073 1.01451 0.65868 0.0
C1200 C 0.92109 0.5299 0.87983 0.0
C1201 C 0.92156 0.52348 0.89224 0.0
C1202 C 0.90833 0.54141 0.90218 0.0
C1203 C 0.91524 0.52918 0.90331 0.0
C1204 C 0.90804 0.54783 0.88971 0.0
C1205 C 0.91435 0.54213 0.87867 0.0
U1206 U 0.94215 0.5027 0.86313 0.0
O1207 O 0.93945 0.49267 0.84387 0.0
O1208 O 0.95769 0.50433 0.84761 0.0
C1209 C 0.95054 0.49768 0.83886 0.0
C1210 C 0.92746 0.52397 0.868 0.0
C1211 C 0.94972 0.50357 0.82534 0.0
C1212 C 0.93701 0.5124 0.80655 0.0
C1213 C 0.93747 0.50755 0.81965 0.0
C1214 C 0.96102 0.50955 0.8047 0.0
C1215 C 0.94878 0.51343 0.79889 0.0
C1216 C 0.96146 0.50466 0.81773 0.0
C1217 C 0.95555 0.47439 0.88624 0.0
C1218 C 0.97328 0.45819 0.88207 0.0
C1219 C 0.95955 0.45623 0.90183 0.0
C1220 C 0.95232 0.46755 0.89797 0.0
C1221 C 0.97024 0.45148 0.89403 0.0
C1222 C 0.96601 0.46958 0.87822 0.0
C1223 C 0.94819 0.48678 0.88309 0.0
O1224 O 0.94063 0.52413 0.86788 0.0
O1225 O 0.92242 0.51251 0.86403 0.0
O1226 O 0.93723 0.48549 0.87596 0.0
O1227 O 0.95543 0.49721 0.87971 0.0
H1228 H 0.92672 0.51401 0.89332 0.0
H1229 H 0.91556 0.52388 0.9127 0.0
H1230 H 0.90302 0.55735 0.88849 0.0
H1231 H 0.91394 0.54726 0.86919 0.0
H1232 H 0.92744 0.51543 0.80247 0.0
H1233 H 0.92824 0.50685 0.82526 0.0
H1234 H 0.97026 0.51003 0.79907 0.0
H1235 H 0.97101 0.50156 0.82184 0.0
H1236 H 0.98148 0.45485 0.87587 0.0
H1237 H 0.95676 0.4512 0.91095 0.0
H1238 H 0.94426 0.47107 0.90427 0.0
H1239 H 0.96867 0.47473 0.86912 0.0
C1240 C 0.07527 0.07335 0.86652 0.0
C1241 C 0.07433 0.07197 0.88037 0.0
C1242 C 0.06194 0.09298 0.88185 0.0
C1243 C 0.06772 0.08167 0.88796 0.0
C1244 C 0.06307 0.09433 0.86796 0.0
C1245 C 0.06965 0.08461 0.86039 0.0
U1246 U 0.09773 0.04258 0.86307 0.0
O1247 O 0.09578 0.02502 0.85005 0.0
O1248 O 0.11343 0.03798 0.84837 0.0
C1249 C 0.10687 0.0277 0.84351 0.0
C1250 C 0.08203 0.06315 0.85835 0.0
C1251 C 0.10609 0.0269 0.82889 0.0
C1252 C 0.09621 0.03318 0.80764 0.0
C1253 C 0.09666 0.03426 0.82155 0.0
C1254 C 0.11459 1.0174 0.80832 0.0
C1255 C 0.10523 0.02477 0.80083 0.0
C1256 C 0.11501 1.01847 0.82217 0.0
C1257 C 0.11246 0.02734 0.89557 0.0
C1258 C 0.13395 1.01782 0.9022 0.0
C1259 C 0.11387 1.0121 0.91443 0.0
C1260 C 0.10631 1.02021 0.90593 0.0
C1261 C 0.12784 1.01097 0.91284 0.0
C1262 C 0.12636 0.02592 0.89367 0.0
C1263 C 0.10438 0.037 0.88777 0.0
O1264 O 0.09517 0.06386 0.85804 0.0
O1265 O 0.07758 0.05086 0.85975 0.0
O1266 O 0.09348 0.03236 0.88207 0.0
O1267 O 0.11093 0.0456 0.88031 0.0
H1268 H 0.07863 0.06333 0.88529 0.0
H1269 H 0.06692 0.08018 0.89859 0.0
H1270 H 0.05895 0.10298 0.86292 0.0
H1271 H 0.07035 0.08589 0.84971 0.0
H1272 H 0.08896 0.03909 0.8022 0.0
H1273 H 0.0897 0.04086 0.82656 0.0
H1274 H 0.12155 1.01067 0.80348 0.0
H1275 H 0.12231 1.01265 0.82766 0.0
H1276 H 0.14469 1.01731 0.90073 0.0
H1277 H 0.10877 1.0068 0.92233 0.0
H1278 H 0.09563 1.02116 0.90766 0.0
H1279 H 0.13144 0.03131 0.88581 0.0
C1280 C 0.67684 0.96775 0.5732 0.0
C1281 C 0.66285 0.96799 0.57181 0.0
C1282 C 0.66073 0.98072 0.5924 0.0
C1283 C 0.65487 0.97442 0.5813 0.0
C1284 C 0.67476 0.9803 0.59379 0.0
C1285 C 0.68273 0.97389 0.58427 0.0
U1286 U 0.68111 0.94657 0.54194 0.0
O1287 O 0.69475 0.94909 0.52494 0.0
O1288 O 0.69592 0.93093 0.53715 0.0
C1289 C 0.70122 0.9379 0.52739 0.0
C1290 C 0.6854 0.96129 0.56314 0.0
C1291 C 0.71602 0.93855 0.52704 0.0
C1292 C 0.73718 0.95008 0.53093 0.0
C1293 C 0.72315 0.94963 0.53189 0.0
C1294 C 0.73711 0.92833 0.52043 0.0
C1295 C 0.74435 0.93941 0.52517 0.0
C1296 C 0.72313 0.92792 0.52135 0.0
C1297 C 0.64838 0.93331 0.52523 0.0
C1298 C 0.63946 0.91259 0.516 0.0
C1299 C 0.63105 0.93386 0.50815 0.0
C1300 C 0.63977 0.9405 0.5168 0.0
C1301 C 0.63064 0.91981 0.50776 0.0
C1302 C 0.64823 0.91925 0.52464 0.0
C1303 C 0.65627 0.94063 0.53541 0.0
O1304 O 0.68548 0.94816 0.56334 0.0
O1305 O 0.68451 0.96624 0.55107 0.0
O1306 O 0.66233 0.95162 0.53152 0.0
O1307 O 0.66346 0.9335 0.54377 0.0
H1308 H 0.65811 0.96324 0.56335 0.0
H1309 H 0.6441 0.97439 0.57999 0.0
H1310 H 0.67964 0.98517 0.60209 0.0
H1311 H 0.69352 0.97383 0.5855 0.0
H1312 H 0.74243 0.9587 0.53482 0.0
H1313 H 0.71788 0.95795 0.53637 0.0
H1314 H 0.74224 0.92002 0.51577 0.0
H1315 H 0.71783 0.91931 0.51748 0.0
H1316 H 0.63952 0.90177 0.51586 0.0
H1317 H 0.62428 0.93976 0.50212 0.0
H1318 H 0.63949 0.95132 0.51718 0.0
H1319 H 0.65466 0.91337 0.53105 0.0
C1320 C 0.67719 0.0763 0.97035 0.0
C1321 C 0.6632 0.07608 0.97181 0.0
C1322 C 0.66095 0.06332 0.95125 0.0
C1323 C 0.65516 0.06963 0.96237 0.0
C1324 C 0.67498 0.06374 0.94979 0.0
C1325 C 0.68301 0.07015 0.95926 0.0
U1326 U 0.68157 0.09756 1.00154 0.0
O1327 O 0.69524 0.09508 1.01853 0.0
O1328 O 0.6964 0.1132 1.00627 0.0
C1329 C 0.70171 0.10625 1.01604 0.0
C1330 C 0.6858 0.08278 0.98036 0.0
C1331 C 0.71651 0.10559 1.01638 0.0
C1332 C 0.73766 0.09416 1.01221 0.0
C1333 C 0.72363 0.09462 1.01128 0.0
C1334 C 0.73761 0.11567 0.02318 0.0
C1335 C 0.74484 0.1047 1.01818 0.0
C1336 C 0.72363 0.11609 0.02229 0.0
C1337 C 0.64884 0.11086 1.01821 0.0
C1338 C 0.63992 0.1316 0.02738 0.0
C1339 C 0.6314 0.11036 0.03516 0.0
C1340 C 0.64015 0.10369 0.02657 0.0
C1341 C 0.63102 0.12441 0.03555 0.0
C1342 C 0.64873 0.12492 1.0188 0.0
C1343 C 0.65674 0.10353 1.00806 0.0
O1344 O 0.6859 0.09591 0.98013 0.0
O1345 O 0.68495 0.07786 0.99245 0.0
O1346 O 0.66281 0.09254 1.01198 0.0
O1347 O 0.66394 0.11063 0.99968 0.0
H1348 H 0.65852 0.08083 0.98029 0.0
H1349 H 0.6444 0.06967 0.96373 0.0
H1350 H 0.67981 0.05886 0.94146 0.0
H1351 H 0.69379 0.07021 0.95797 0.0
H1352 H 0.7429 0.08563 1.00812 0.0
H1353 H 0.71834 0.0864 1.00663 0.0
H1354 H 0.74275 0.12387 0.02801 0.0
H1355 H 0.71834 0.12462 0.02635 0.0
H1356 H 0.64001 0.14242 0.02752 0.0
H1357 H 0.62457 0.10447 0.04114 0.0
H1358 H 0.63984 0.09287 0.02619 0.0
H1359 H 0.65521 0.13078 1.01243 0.0
C1360 C 0.36629 0.4671 0.96866 0.0
C1361 C 0.37973 0.46357 0.96647 0.0
C1362 C 0.38103 0.47914 0.9478 0.0
C1363 C 0.38702 0.46951 0.95612 0.0
C1364 C 0.36759 0.48271 0.95015 0.0
C1365 C 0.36031 0.47673 0.96046 0.0
U1366 U 0.36363 0.44581 1.00018 0.0
O1367 O 0.35081 0.44829 1.01782 0.0
O1368 O 0.34903 0.43021 1.00563 0.0
C1369 C 0.34422 0.43711 1.01566 0.0
C1370 C 0.35836 0.46075 0.97931 0.0
C1371 C 0.32947 0.4378 1.01661 0.0
C1372 C 0.30799 0.4481 1.01128 0.0
C1373 C 0.32201 0.44775 1.01008 0.0
C1374 C 0.30876 0.42856 0.02548 0.0
C1375 C 0.30117 0.43845 1.01896 0.0
C1376 C 0.32273 0.42825 0.02431 0.0
C1377 C 0.39692 0.43191 1.01475 0.0
C1378 C 0.3996 0.41449 0.03146 0.0
C1379 C 0.41897 0.42684 0.02372 0.0
C1380 C 0.41074 0.43431 1.01527 0.0
C1381 C 0.41355 0.41677 0.03189 0.0
C1382 C 0.39135 0.42201 0.02297 0.0
C1383 C 0.38875 0.43957 1.00518 0.0
O1384 O 0.35799 0.44762 0.97912 0.0
O1385 O 0.36012 0.46565 0.9913 0.0
O1386 O 0.38298 0.45045 1.00971 0.0
O1387 O 0.38097 0.43257 0.99727 0.0
H1388 H 0.38456 0.45619 0.97275 0.0
H1389 H 0.39739 0.46664 0.9547 0.0
H1390 H 0.36259 0.48995 0.94386 0.0
H1391 H 0.34994 0.47957 0.96198 0.0
H1392 H 0.30247 0.45577 1.00601 0.0
H1393 H 0.32702 0.4552 1.00405 0.0
H1394 H 0.30391 0.4211 0.03163 0.0
H1395 H 0.32829 0.42053 0.02948 0.0
H1396 H 0.39506 0.40693 0.03771 0.0
H1397 H 0.42965 0.42875 0.02358 0.0
H1398 H 0.41523 0.44186 1.00895 0.0
H1399 H 0.38068 0.42003 0.02274 0.0
C1400 C 0.86691 0.07605 0.07492 0.0
C1401 C 0.88072 0.07821 0.07644 0.0
C1402 C 0.88095 0.06424 0.09638 0.0
C1403 C 0.88768 0.07235 0.08707 0.0
C1404 C 0.86711 0.06203 0.09468 0.0
C1405 C 0.86018 0.06788 0.08406 0.0
U1406 U 0.86508 0.09729 0.04324 0.0
O1407 O 0.85279 0.09461 0.02525 0.0
O1408 O 0.85046 0.11267 0.03734 0.0
C1409 C 0.84603 0.10571 0.02718 0.0
C1410 C 0.85932 0.08233 0.06398 0.0
C1411 C 0.83133 0.10477 0.02587 0.0
C1412 C 0.80951 0.09702 0.03352 0.0
C1413 C 0.82351 0.09743 0.0349 0.0
C1414 C 0.81105 0.11118 1.01405 0.0
C1415 C 0.80308 0.10399 0.02313 0.0
C1416 C 0.825 0.11156 1.01542 0.0
C1417 C 0.89848 0.11158 0.02946 0.0
C1418 C 0.90104 0.12841 1.01215 0.0
C1419 C 0.92064 0.11747 1.0213 0.0
C1420 C 0.91242 0.10992 0.02969 0.0
C1421 C 0.91509 0.12687 1.01244 0.0
C1422 C 0.8928 0.12082 1.02058 0.0
C1423 C 0.89025 0.10382 0.03889 0.0
O1424 O 0.85888 0.09545 0.06415 0.0
O1425 O 0.86153 0.07744 0.05207 0.0
O1426 O 0.88474 0.09284 0.03427 0.0
O1427 O 0.88219 0.11074 0.04659 0.0
H1428 H 0.88609 0.0845 0.06947 0.0
H1429 H 0.89829 0.07439 0.08813 0.0
H1430 H 0.86163 0.05569 0.1015 0.0
H1431 H 0.84953 0.06605 0.08302 0.0
H1432 H 0.8037 0.09148 0.04076 0.0
H1433 H 0.82822 0.09214 0.04306 0.0
H1434 H 0.80652 0.11648 1.00581 0.0
H1435 H 0.83086 0.11723 1.00832 0.0
H1436 H 0.89641 0.13544 1.00537 0.0
H1437 H 0.93138 0.11614 0.02199 0.0
H1438 H 0.91699 0.10289 0.03652 0.0
H1439 H 0.88204 0.12222 1.02025 0.0
C1440 C 0.46993 0.36833 0.07617 0.0
C1441 C 0.46638 0.38097 0.08109 0.0
C1442 C 0.45064 0.38413 0.06275 0.0
C1443 C 0.45681 0.38877 0.07447 0.0
C1444 C 0.45427 0.37144 0.05789 0.0
C1445 C 0.4638 0.36363 0.06455 0.0
U1446 U 0.49966 0.36456 0.09983 0.0
O1447 O 0.50407 0.34903 0.11474 0.0
O1448 O 0.51791 0.35231 0.09813 0.0
C1449 C 0.51489 0.34492 0.10852 0.0
C1450 C 0.48009 0.36002 0.08292 0.0
C1451 C 0.51622 0.33034 0.10678 0.0
C1452 C 0.50893 0.30917 0.0973 0.0
C1453 C 0.50733 0.32303 0.09878 0.0
C1454 C 0.52827 0.30981 0.11182 0.0
C1455 C 0.51943 0.30236 0.10382 0.0
C1456 C 0.52666 0.32363 0.11327 0.0
C1457 C 0.5124 0.39736 0.1165 0.0
C1458 C 0.53417 0.40287 0.12601 0.0
C1459 C 0.51521 0.41748 0.12974 0.0
C1460 C 0.50708 0.40893 0.1223 0.0
C1461 C 0.52891 0.41469 0.13155 0.0
C1462 C 0.52599 0.39429 0.11852 0.0
C1463 C 0.50365 0.38927 0.10782 0.0
O1464 O 0.49255 0.3621 0.07923 0.0
O1465 O 0.47875 0.35882 0.09587 0.0
O1466 O 0.49534 0.38101 0.11376 0.0
O1467 O 0.50915 0.3842 0.09707 0.0
H1468 H 0.47102 0.3848 0.09004 0.0
H1469 H 0.45418 0.3984 0.07861 0.0
H1470 H 0.44995 0.36761 0.04879 0.0
H1471 H 0.46647 0.35394 0.06054 0.0
H1472 H 0.50186 0.30377 0.09116 0.0
H1473 H 0.49918 0.32804 0.09369 0.0
H1474 H 0.5366 0.30501 0.1168 0.0
H1475 H 0.53366 0.3291 0.11945 0.0
H1476 H 0.54469 0.40044 0.12714 0.0
H1477 H 0.51075 0.42633 0.13407 0.0
H1478 H 0.49662 0.41147 0.12089 0.0
H1479 H 0.53033 0.38541 0.11412 0.0
C1480 C 0.51269 0.1623 0.11941 0.0
C1481 C 0.51743 0.14972 0.11546 0.0
C1482 C 0.50096 0.13872 0.12972 0.0
C1483 C 0.51161 0.13804 0.12055 0.0
C1484 C 0.49639 0.15139 0.13376 0.0
C1485 C 0.50219 0.16306 0.12863 0.0
U1486 U 0.53911 0.18036 0.09862 0.0
O1487 O 0.53698 0.19694 0.08429 0.0
O1488 O 0.54959 0.1994 0.10199 0.0
C1489 C 0.54431 0.20513 0.09145 0.0
C1490 C 0.51846 0.17468 0.11385 0.0
C1491 C 0.53898 0.2188 0.09325 0.0
C1492 C 0.5276 0.23582 0.10635 0.0
C1493 C 0.53179 0.22254 0.10465 0.0
C1494 C 0.53747 0.24169 0.08516 0.0
C1495 C 0.53048 0.24561 0.09667 0.0
C1496 C 0.54166 0.22845 0.08349 0.0
C1497 C 0.56677 0.15814 0.08232 0.0
C1498 C 0.57715 0.15312 0.06094 0.0
C1499 C 0.58997 0.15052 0.08118 0.0
C1500 C 0.57891 0.15479 0.0886 0.0
C1501 C 0.58917 0.14938 0.06727 0.0
C1502 C 0.56608 0.1574 0.06837 0.0
C1503 C 0.55462 0.16074 0.09047 0.0
O1504 O 0.53025 0.17814 0.11857 0.0
O1505 O 0.51764 0.1759 0.10087 0.0
O1506 O 0.54369 0.16449 0.0842 0.0
O1507 O 0.55638 0.16701 0.10182 0.0
H1508 H 0.52558 0.14893 0.10839 0.0
H1509 H 0.5155 0.12847 0.11735 0.0
H1510 H 0.48812 0.15231 0.14067 0.0
H1511 H 0.49839 0.17269 0.13178 0.0
H1512 H 0.52211 0.23842 0.11526 0.0
H1513 H 0.52955 0.21524 0.1123 0.0
H1514 H 0.54006 0.24893 0.07757 0.0
H1515 H 0.54724 0.22579 0.07464 0.0
H1516 H 0.57608 0.15222 0.05027 0.0
H1517 H 0.5991 0.14791 0.08639 0.0
H1518 H 0.57974 0.15508 0.09934 0.0
H1519 H 0.55686 0.15971 0.06318 0.0
C1520 C 0.47018 0.67654 0.4665 0.0
C1521 C 0.47172 0.6627 0.46821 0.0
C1522 C 0.45072 0.66163 0.48066 0.0
C1523 C 0.4621 0.65532 0.47524 0.0
C1524 C 0.44915 0.67548 0.47867 0.0
C1525 C 0.45879 0.68284 0.47168 0.0
U1526 U 0.50006 0.67965 0.44284 0.0
O1527 O 0.50452 0.69492 0.42767 0.0
O1528 O 0.51833 0.69192 0.44437 0.0
C1529 C 0.51532 0.69914 0.43387 0.0
C1530 C 0.4804 0.68457 0.45952 0.0
C1531 C 0.51662 0.71375 0.43544 0.0
C1532 C 0.50931 0.73499 0.44476 0.0
C1533 C 0.50771 0.72112 0.44336 0.0
C1534 C 0.52869 0.73424 0.4303 0.0
C1535 C 0.51984 0.74174 0.43824 0.0
C1536 C 0.52708 0.72042 0.42893 0.0
C1537 C 0.51286 0.64659 0.4268 0.0
C1538 C 0.53437 0.64169 0.41645 0.0
C1539 C 0.51607 0.6259 0.41456 0.0
C1540 C 0.50789 0.63444 0.42196 0.0
C1541 C 0.52947 0.62931 0.41184 0.0
C1542 C 0.52613 0.65025 0.42389 0.0
C1543 C 0.50408 0.6548 0.43532 0.0
O1544 O 0.49287 0.68261 0.46328 0.0
O1545 O 0.47906 0.68537 0.44655 0.0
O1546 O 0.4958 0.66295 0.42919 0.0
O1547 O 0.50955 0.66006 0.44598 0.0
H1548 H 0.48044 0.65763 0.46425 0.0
H1549 H 0.46374 0.64472 0.47668 0.0
H1550 H 0.44044 0.68066 0.48248 0.0
H1551 H 0.45738 0.6935 0.47039 0.0
H1552 H 0.50223 0.74043 0.45085 0.0
H1553 H 0.49955 0.71614 0.44846 0.0
H1554 H 0.53705 0.739 0.42532 0.0
H1555 H 0.53409 0.7149 0.42281 0.0
H1556 H 0.54465 0.6446 0.41459 0.0
H1557 H 0.51188 0.6166 0.41097 0.0
H1558 H 0.49766 0.63145 0.42405 0.0
H1559 H 0.53018 0.6596 0.42754 0.0
C1560 C 0.51318 0.88166 0.42255 0.0
C1561 C 0.51678 0.89426 0.42751 0.0
C1562 C 0.50092 0.90508 0.41246 0.0
C1563 C 0.5107 0.90585 0.42254 0.0
C1564 C 0.49758 0.89242 0.40734 0.0
C1565 C 0.50364 0.88084 0.41236 0.0
U1566 U 0.53958 0.86372 0.44353 0.0
O1567 O 0.53741 0.8471 0.4578 0.0
O1568 O 0.55018 0.84474 0.44021 0.0
C1569 C 0.54483 0.83896 0.45069 0.0
C1570 C 0.51906 0.86932 0.4281 0.0
C1571 C 0.53957 0.82528 0.44882 0.0
C1572 C 0.52826 0.80826 0.43564 0.0
C1573 C 0.53244 0.82155 0.43737 0.0
C1574 C 0.53801 0.80239 0.45689 0.0
C1575 C 0.53107 0.79847 0.44534 0.0
C1576 C 0.54219 0.81562 0.45858 0.0
C1577 C 0.56692 0.88605 0.46025 0.0
C1578 C 0.57701 0.89111 0.48175 0.0
C1579 C 0.59009 0.89369 0.46168 0.0
C1580 C 0.57913 0.8894 0.45412 0.0
C1581 C 0.58911 0.89485 0.47558 0.0
C1582 C 0.56604 0.88681 0.47419 0.0
C1583 C 0.55487 0.88341 0.45194 0.0
O1584 O 0.53092 0.86601 0.42349 0.0
O1585 O 0.5181 0.86799 0.44106 0.0
O1586 O 0.54388 0.87957 0.45807 0.0
O1587 O 0.5568 0.8772 0.44059 0.0
H1588 H 0.5242 0.89512 0.43533 0.0
H1589 H 0.51366 0.91543 0.42659 0.0
H1590 H 0.49 0.89142 0.39969 0.0
H1591 H 0.50072 0.8712 0.4084 0.0
H1592 H 0.52281 0.80566 0.4267 0.0
H1593 H 0.53024 0.82885 0.42971 0.0
H1594 H 0.54055 0.79515 0.46449 0.0
H1595 H 0.54772 0.81828 0.46747 0.0
H1596 H 0.57581 0.89203 0.49241 0.0
H1597 H 0.59929 0.8963 0.45659 0.0
H1598 H 0.5801 0.88909 0.4434 0.0
H1599 H 0.55675 0.8845 0.47926 0.0
C1600 C 0.07595 0.47111 0.36533 0.0
C1601 C 0.07421 0.47249 0.3791 0.0
C1602 C 0.06203 0.45132 0.37998 0.0
C1603 C 0.0673 0.46271 0.38635 0.0
C1604 C 0.06404 0.44993 0.36619 0.0
C1605 C 0.07091 0.45973 0.35896 0.0
U1606 U 0.09922 0.50138 0.36275 0.0
O1607 O 0.11478 0.5062 0.348 0.0
O1608 O 0.09756 0.51958 0.35049 0.0
C1609 C 0.10842 0.51683 0.34363 0.0
C1610 C 0.08289 0.48147 0.35745 0.0
C1611 C 0.10731 0.51813 0.32906 0.0
C1612 C 0.10003 0.50994 0.30744 0.0
C1613 C 0.10055 0.5086 0.32133 0.0
C1614 C 0.11288 0.53041 0.30892 0.0
C1615 C 0.10631 0.52082 0.30104 0.0
C1616 C 0.11336 0.52907 0.32276 0.0
C1617 C 0.11472 0.51418 0.39592 0.0
C1618 C 0.1244 0.53585 0.40136 0.0
C1619 C 0.12754 0.5171 0.41628 0.0
C1620 C 0.12017 0.50897 0.40768 0.0
C1621 C 0.12963 0.53069 0.41333 0.0
C1622 C 0.11699 0.52767 0.39273 0.0
C1623 C 0.10632 0.50537 0.38762 0.0
O1624 O 0.07881 0.49381 0.35938 0.0
O1625 O 0.096 0.48041 0.35689 0.0
O1626 O 0.11271 0.49719 0.37961 0.0
O1627 O 0.09558 0.51071 0.38221 0.0
H1628 H 0.07807 0.4812 0.38422 0.0
H1629 H 0.06584 0.46422 0.39691 0.0
H1630 H 0.06034 0.44122 0.36097 0.0
H1631 H 0.07224 0.45844 0.34835 0.0
H1632 H 0.09498 0.5023 0.3017 0.0
H1633 H 0.0958 0.50007 0.32602 0.0
H1634 H 0.11762 0.53903 0.30441 0.0
H1635 H 0.11857 0.53657 0.32856 0.0
H1636 H 0.12576 0.54628 0.39881 0.0
H1637 H 0.13162 0.51271 0.42525 0.0
H1638 H 0.11858 0.49858 0.41031 0.0
H1639 H 0.11288 0.53191 0.38369 0.0
C1640 C 0.92184 1.01413 0.37913 0.0
C1641 C 0.92164 1.02068 0.39146 0.0
C1642 C 0.90891 1.00227 0.40124 0.0
C1643 C 0.91524 1.0148 0.40241 0.0
C1644 C 0.90931 0.99572 0.38886 0.0
C1645 C 0.9157 1.0016 0.37793 0.0
U1646 U 0.94308 0.04162 0.36323 0.0
O1647 O 0.95869 0.0405 0.34779 0.0
O1648 O 0.9405 0.05228 0.34424 0.0
C1649 C 0.95174 0.04763 0.33924 0.0
C1650 C 0.92828 1.02028 0.36743 0.0
C1651 C 0.95103 0.04238 0.32556 0.0
C1652 C 0.9426 0.02663 0.30911 0.0
C1653 C 0.94297 0.03137 0.32224 0.0
C1654 C 0.9583 0.04386 0.30253 0.0
C1655 C 0.95034 0.03278 0.29908 0.0
C1656 C 0.95864 0.04858 0.3156 0.0
C1657 C 0.9565 0.06922 0.38694 0.0
C1658 C 0.97381 0.08579 0.38247 0.0
C1659 C 0.96099 0.0869 0.40287 0.0
C1660 C 0.95374 0.0756 0.39901 0.0
C1661 C 0.97122 0.09208 0.39474 0.0
C1662 C 0.96652 0.07443 0.37861 0.0
C1663 C 0.94906 0.05693 0.38364 0.0
O1664 O 0.92332 0.03186 0.36368 0.0
O1665 O 0.94145 1.02005 0.36735 0.0
O1666 O 0.95627 0.04655 0.38005 0.0
O1667 O 0.93813 0.05843 0.3765 0.0
H1668 H 0.92633 0.03038 0.39258 0.0
H1669 H 0.91502 1.02021 0.41173 0.0
H1670 H 0.90475 0.98598 0.38762 0.0
H1671 H 0.91581 0.99637 0.36851 0.0
H1672 H 0.93645 1.01801 0.30686 0.0
H1673 H 0.93703 0.02643 0.3298 0.0
H1674 H 0.96422 0.04899 0.29508 0.0
H1675 H 0.96487 0.05713 0.31795 0.0
H1676 H 0.98166 0.08946 0.37599 0.0
H1677 H 0.95854 0.09161 0.41225 0.0
H1678 H 0.94601 0.07176 0.40555 0.0
H1679 H 0.96881 0.06962 0.36924 0.0
C1680 C 0.07702 0.57277 0.17655 0.0
C1681 C 0.07555 0.57101 0.16279 0.0
C1682 C 0.06357 0.59225 0.16107 0.0
C1683 C 0.06887 0.58064 0.15513 0.0
C1684 C 0.06524 0.59398 0.17486 0.0
C1685 C 0.07188 0.58434 0.18251 0.0
U1686 U 0.09942 0.54194 0.18051 0.0
O1687 O 0.11521 0.53766 0.19525 0.0
O1688 O 0.09752 0.5247 0.19398 0.0
C1689 C 0.10859 0.52758 0.20047 0.0
C1690 C 0.08383 0.56267 0.18484 0.0
C1691 C 0.10785 0.52723 0.21514 0.0
C1692 C 0.09601 0.53074 0.23604 0.0
C1693 C 0.09648 0.53164 0.22212 0.0
C1694 C 0.11829 0.52117 0.23617 0.0
C1695 C 0.10693 0.5255 0.24325 0.0
C1696 C 0.11873 0.52203 0.2223 0.0
C1697 C 0.11386 0.52602 0.14818 0.0
C1698 C 0.13528 0.5166 0.14122 0.0
C1699 C 0.11497 0.51046 0.12961 0.0
C1700 C 0.10752 0.51865 0.13812 0.0
C1701 C 0.12898 0.50951 0.13087 0.0
C1702 C 0.12781 0.52478 0.14977 0.0
C1703 C 0.10589 0.53583 0.1559 0.0
O1704 O 0.07932 0.55037 0.18373 0.0
O1705 O 0.09697 0.56334 0.18502 0.0
O1706 O 0.11253 0.54454 0.16313 0.0
O1707 O 0.09502 0.53132 0.16179 0.0
H1708 H 0.07948 0.56215 0.158 0.0
H1709 H 0.06766 0.57886 0.14458 0.0
H1710 H 0.06151 0.60286 0.17976 0.0
H1711 H 0.07299 0.58591 0.1931 0.0
H1712 H 0.08717 0.5343 0.24117 0.0
H1713 H 0.08797 0.53574 0.21681 0.0
H1714 H 0.1268 0.51691 0.24133 0.0
H1715 H 0.12756 0.5185 0.21712 0.0
H1716 H 0.14605 0.51624 0.14244 0.0
H1717 H 0.10972 0.50497 0.12193 0.0
H1718 H 0.0968 0.51946 0.13662 0.0
H1719 H 0.13303 0.53038 0.15738 0.0
C1720 C 0.92206 0.02947 0.16391 0.0
C1721 C 0.92321 0.02352 0.15133 0.0
C1722 C 0.90902 0.04089 0.14163 0.0
C1723 C 0.91676 0.02919 0.14029 0.0
C1724 C 0.90802 0.04683 0.15428 0.0
C1725 C 0.91448 0.04117 0.16528 0.0
U1726 U 0.94328 1.00231 0.18055 0.0
O1727 O 0.95898 1.00393 0.19591 0.0
O1728 O 0.94072 0.99239 0.19992 0.0
C1729 C 0.95199 0.99719 0.20473 0.0
C1730 C 0.92859 0.02358 0.17569 0.0
C1731 C 0.95141 1.00293 0.21825 0.0
C1732 C 0.94048 1.01619 0.23542 0.0
C1733 C 0.94086 1.01125 0.22236 0.0
C1734 C 0.96122 1.00464 0.24033 0.0
C1735 C 0.95068 1.01294 0.24458 0.0
C1736 C 0.96156 0.9997 0.22733 0.0
C1737 C 0.95647 0.97355 0.15812 0.0
C1738 C 0.97604 0.95915 0.1603 0.0
C1739 C 0.95801 0.95292 0.14545 0.0
C1740 C 0.95102 0.96449 0.14898 0.0
C1741 C 0.97066 0.95012 0.15097 0.0
C1742 C 0.969 0.97074 0.16387 0.0
C1743 C 0.94914 0.9861 0.16083 0.0
O1744 O 0.92357 1.01216 0.17981 0.0
O1745 O 0.94176 0.02371 0.17565 0.0
O1746 O 0.95636 0.99664 0.1639 0.0
O1747 O 0.93814 0.98504 0.16794 0.0
H1748 H 0.92901 1.01446 0.15008 0.0
H1749 H 0.91764 0.02426 0.13075 0.0
H1750 H 0.90234 0.05594 0.15567 0.0
H1751 H 0.91352 0.04593 0.1749 0.0
H1752 H 0.93229 0.02267 0.2383 0.0
H1753 H 0.93292 1.01391 0.2155 0.0
H1754 H 0.96914 1.00176 0.24711 0.0
H1755 H 0.96975 0.99324 0.22439 0.0
H1756 H 0.98568 0.95724 0.16486 0.0
H1757 H 0.95363 0.94633 0.1381 0.0
H1758 H 0.94142 0.9665 0.14435 0.0
H1759 H 0.97341 0.97756 0.17098 0.0
C1760 C 0.36688 0.07818 0.46967 0.0
C1761 C 0.37969 0.07267 0.47156 0.0
C1762 C 0.38055 0.06583 0.44826 0.0
C1763 C 0.38644 0.06653 0.46098 0.0
C1764 C 0.3678 0.07158 0.44642 0.0
C1765 C 0.36105 0.07764 0.457 0.0
U1766 U 0.36455 0.0992 0.50161 0.0
O1767 O 0.34963 0.11435 0.50732 0.0
O1768 O 0.35201 0.09625 0.5194 0.0
C1769 C 0.34516 0.10729 0.51742 0.0
C1770 C 0.3593 0.08439 0.48069 0.0
C1771 C 0.33046 0.1062 0.5186 0.0
C1772 C 0.30872 0.09868 0.51054 0.0
C1773 C 0.32273 0.09925 0.50923 0.0
C1774 C 0.31012 0.1119 0.53063 0.0
C1775 C 0.30223 0.1051 0.52121 0.0
C1776 C 0.32406 0.11244 0.52932 0.0
C1777 C 0.39728 0.11411 0.51631 0.0
C1778 C 0.40232 0.13505 0.52762 0.0
C1779 C 0.41723 0.11614 0.53012 0.0
C1780 C 0.40892 0.10854 0.52187 0.0
C1781 C 0.41416 0.12956 0.53295 0.0
C1782 C 0.39395 0.1274 0.51941 0.0
C1783 C 0.38946 0.10618 0.50659 0.0
O1784 O 0.36132 0.07942 0.49263 0.0
O1785 O 0.35869 0.0975 0.48054 0.0
O1786 O 0.38153 0.11284 0.49852 0.0
O1787 O 0.38412 0.095 0.51097 0.0
H1788 H 0.38444 0.073 0.48124 0.0
H1789 H 0.39617 0.06212 0.46284 0.0
H1790 H 0.36303 0.0715 0.43675 0.0
H1791 H 0.35121 0.08189 0.45529 0.0
H1792 H 0.30297 0.09346 0.50304 0.0
H1793 H 0.3275 0.09438 0.50087 0.0
H1794 H 0.30552 0.11677 0.53908 0.0
H1795 H 0.32987 0.1178 0.5367 0.0
H1796 H 0.39956 0.14529 0.52973 0.0
H1797 H 0.42633 0.11163 0.53393 0.0
H1798 H 0.41176 0.09835 0.51955 0.0
H1799 H 0.38502 0.13198 0.51531 0.0
C1800 C 0.36665 0.96632 0.07396 0.0
C1801 C 0.38071 0.96589 0.07417 0.0
C1802 C 0.38102 0.97792 0.09529 0.0
C1803 C 0.38784 0.97166 0.08473 0.0
C1804 C 0.36692 0.97838 0.09492 0.0
C1805 C 0.35983 0.97263 0.08438 0.0
U1806 U 0.36411 0.94514 0.04229 0.0
O1807 O 0.34921 0.92989 0.03674 0.0
O1808 O 0.35145 0.94795 0.02456 0.0
C1809 C 0.34466 0.93688 0.02664 0.0
C1810 C 0.3589 0.96013 0.06312 0.0
C1811 C 0.32995 0.93786 0.0255 0.0
C1812 C 0.30834 0.94662 0.03262 0.0
C1813 C 0.32235 0.94611 0.03389 0.0
C1814 C 0.30945 0.93072 1.01454 0.0
C1815 C 0.3017 0.93884 0.02297 0.0
C1816 C 0.3234 0.93024 1.0158 0.0
C1817 C 0.3968 0.93023 0.02754 0.0
C1818 C 0.40162 0.90933 1.01608 0.0
C1819 C 0.41678 0.92808 1.0138 0.0
C1820 C 0.40852 0.93571 0.02209 0.0
C1821 C 0.41354 0.91473 1.01084 0.0
C1822 C 0.39331 0.91701 0.02431 0.0
C1823 C 0.38902 0.9382 0.03724 0.0
O1824 O 0.36099 0.96501 0.05116 0.0
O1825 O 0.35833 0.94701 0.06332 0.0
O1826 O 0.38114 0.93157 0.0454 0.0
O1827 O 0.38362 0.94933 0.03281 0.0
H1828 H 0.38615 0.96101 0.06623 0.0
H1829 H 0.39867 0.971 0.08473 0.0
H1830 H 0.36133 0.98328 0.10275 0.0
H1831 H 0.34898 0.9731 0.08438 0.0
H1832 H 0.3027 0.95289 0.03936 0.0
H1833 H 0.32724 0.95205 0.04147 0.0
H1834 H 0.30474 0.92477 1.00686 0.0
H1835 H 0.32909 0.92386 1.00918 0.0
H1836 H 0.39873 0.89914 1.01385 0.0
H1837 H 0.42594 0.93252 1.01008 0.0
H1838 H 0.41148 0.94584 0.0245 0.0
H1839 H 0.38431 0.91251 0.02833 0.0
C1840 C 0.67671 0.57671 0.07442 0.0
C1841 C 0.66285 0.57515 0.07259 0.0
C1842 C 0.66101 0.56369 0.09397 0.0
C1843 C 0.65508 0.56868 0.08226 0.0
C1844 C 0.67489 0.56548 0.09579 0.0
C1845 C 0.68264 0.57191 0.08611 0.0
U1846 U 0.68077 0.59842 0.04333 0.0
O1847 O 0.6958 0.61386 0.03858 0.0
O1848 O 0.6941 0.59599 0.02608 0.0
C1849 C 0.70082 0.60699 0.02863 0.0
C1850 C 0.68511 0.58321 0.06422 0.0
C1851 C 0.71561 0.6061 0.02807 0.0
C1852 C 0.73662 0.59409 0.03126 0.0
C1853 C 0.7226 0.59468 0.03233 0.0
C1854 C 0.73681 0.61635 0.0218 0.0
C1855 C 0.74391 0.60494 0.02598 0.0
C1856 C 0.72284 0.6169 0.02283 0.0
C1857 C 0.64818 0.61312 0.0276 0.0
C1858 C 0.63243 0.63125 0.02329 0.0
C1859 C 0.63769 0.61552 1.00582 0.0
C1860 C 0.64647 0.60879 1.0144 0.0
C1861 C 0.63037 0.62671 1.01022 0.0
C1862 C 0.64117 0.62451 0.03187 0.0
C1863 C 0.65599 0.60521 0.03741 0.0
O1864 O 0.68386 0.5785 0.05209 0.0
O1865 O 0.6855 0.59633 0.06463 0.0
O1866 O 0.66352 0.61196 0.04577 0.0
O1867 O 0.66168 0.59412 0.03323 0.0
H1868 H 0.65807 0.57883 0.06363 0.0
H1869 H 0.64447 0.56737 0.08041 0.0
H1870 H 0.67978 0.56198 0.10475 0.0
H1871 H 0.69331 0.57309 0.08774 0.0
H1872 H 0.74177 0.58521 0.0347 0.0
H1873 H 0.71724 0.58623 0.03646 0.0
H1874 H 0.74203 0.62481 1.01752 0.0
H1875 H 0.71765 0.62578 1.01942 0.0
H1876 H 0.62714 0.63993 0.02698 0.0
H1877 H 0.63627 0.61162 0.99588 0.0
H1878 H 0.65159 0.59998 1.01079 0.0
H1879 H 0.64218 0.62802 0.042 0.0
C1880 C 0.17653 0.96837 0.97013 0.0
C1881 C 0.16251 0.9682 0.97129 0.0
C1882 C 0.16038 0.98151 0.95104 0.0
C1883 C 0.15452 0.97473 0.96186 0.0
C1884 C 0.17445 0.9815 0.94987 0.0
C1885 C 0.18243 0.975 0.95934 0.0
U1886 U 0.18054 0.94609 1.00065 0.0
O1887 O 0.19543 0.93047 1.0052 0.0
O1888 O 0.19376 0.94808 1.01806 0.0
C1889 C 0.20038 0.93705 1.01538 0.0
C1890 C 0.18506 0.96175 0.98013 0.0
C1891 C 0.21514 0.93782 1.01613 0.0
C1892 C 0.23644 0.94864 1.01117 0.0
C1893 C 0.22241 0.9482 1.01009 0.0
C1894 C 0.23604 0.92832 0.02425 0.0
C1895 C 0.24344 0.93866 1.01823 0.0
C1896 C 0.22207 0.92792 0.0232 0.0
C1897 C 0.14757 0.93129 1.01559 0.0
C1898 C 0.13636 0.9286 0.03699 0.0
C1899 C 0.1314 0.91334 1.01902 0.0
C1900 C 0.14053 0.9201 1.01087 0.0
C1901 C 0.12897 0.91767 0.0321 0.0
C1902 C 0.14553 0.93536 0.02882 0.0
C1903 C 0.15566 0.93936 1.00614 0.0
O1904 O 0.18379 0.96619 0.99235 0.0
O1905 O 0.18548 0.94864 0.97946 0.0
O1906 O 0.16323 0.93274 0.99772 0.0
O1907 O 0.1614 0.95026 1.01069 0.0
H1908 H 0.15777 0.96306 0.97953 0.0
H1909 H 0.14373 0.97437 0.96298 0.0
H1910 H 0.17932 0.98674 0.94178 0.0
H1911 H 0.19323 0.97524 0.95829 0.0
H1912 H 0.24182 0.95668 1.0063 0.0
H1913 H 0.21726 0.95593 1.00454 0.0
H1914 H 0.24103 0.92058 0.02993 0.0
H1915 H 0.21665 0.91985 0.02798 0.0
H1916 H 0.13467 0.93231 0.04695 0.0
H1917 H 0.12606 0.90485 1.01498 0.0
H1918 H 0.14178 0.91679 1.0007 0.0
H1919 H 0.15067 0.94402 0.03277 0.0
C1920 C 0.11362 0.14228 0.50378 0.0
C1921 C 0.12034 0.13076 0.4993 0.0
H1922 H 0.09856 0.15703 0.49985 0.0
C1923 C 0.117 0.1256 0.48673 0.0
H1924 H 0.11583 0.14647 0.51345 0.0
C1925 C 0.107 0.13158 0.47899 0.0
C1926 C 0.10004 0.1429 0.4836 0.0
H1927 H 0.12205 0.11684 0.48289 0.0
H1928 H 0.10446 0.12707 0.46954 0.0
C1929 C 0.10359 0.14825 0.49604 0.0
C1930 C 0.92906 0.41276 0.49191 0.0
C1931 C 0.92232 0.40721 0.50289 0.0
H1932 H 0.9431 0.40972 0.4761 0.0
C1933 C 0.92488 0.39381 0.50626 0.0
H1934 H 0.9272 0.423 0.48893 0.0
C1935 C 0.93408 0.38622 0.49897 0.0
C1936 C 0.94093 0.39178 0.48806 0.0
H1937 H 0.92004 0.38928 0.51478 0.0
H1938 H 0.93605 0.37605 0.50212 0.0
C1939 C 0.93822 0.40514 0.48458 0.0
C1940 C 0.10594 0.9077 0.03447 0.0
C1941 C 0.11823 0.91132 0.0403 0.0
H1942 H 0.08621 0.89982 0.03734 0.0
C1943 C 0.11993 0.90926 0.05404 0.0
H1944 H 0.10418 0.90927 0.02396 0.0
C1945 C 0.10952 0.90393 0.06176 0.0
C1946 C 0.09713 0.90059 0.05596 0.0
H1947 H 0.12929 0.91182 0.05885 0.0
H1948 H 0.11106 0.90277 0.07236 0.0
C1949 C 0.09554 0.90241 0.04218 0.0
C1950 C 0.92554 0.64947 0.03663 0.0
C1951 C 0.92323 0.63602 0.03998 0.0
H1952 H 0.93649 0.66739 0.04071 0.0
C1953 C 0.9302 0.63053 0.05085 0.0
H1954 H 0.92052 0.65397 0.02819 0.0
C1955 C 0.93934 0.63826 0.0581 0.0
C1956 C 0.94181 0.65168 0.05464 0.0
H1957 H 0.92854 0.62026 0.05382 0.0
H1958 H 0.94441 0.63373 0.06649 0.0
C1959 C 0.93472 0.65718 0.04384 0.0
C1960 C 0.49192 0.11547 0.12629 0.0
C1961 C 0.49446 0.12629 0.13484 0.0
H1962 H 0.48348 0.09596 0.12398 0.0
C1963 C 0.49052 0.12519 0.14823 0.0
H1964 H 0.4946 0.11603 0.11587 0.0
C1965 C 0.48416 0.11362 0.15292 0.0
C1966 C 0.48155 0.10283 0.14434 0.0
H1967 H 0.49247 0.13325 0.15515 0.0
H1968 H 0.48141 0.11308 0.16332 0.0
C1969 C 0.48555 0.10393 0.13096 0.0
C1970 C 0.53607 0.43812 0.13721 0.0
C1971 C 0.53762 0.42425 0.13899 0.0
H1972 H 0.54222 0.45777 0.14296 0.0
C1973 C 0.54735 0.41968 0.14803 0.0
H1974 H 0.52881 0.44201 0.13021 0.0
C1975 C 0.55515 0.42876 0.15529 0.0
C1976 C 0.55347 0.44263 0.15363 0.0
H1977 H 0.54877 0.40908 0.14969 0.0
H1978 H 0.56253 0.4249 0.16219 0.0
C1979 C 0.54389 0.44718 0.14442 0.0
C1980 C 0.49088 0.91913 0.39409 0.0
C1981 C 0.4939 0.91735 0.40765 0.0
H1982 H 0.48145 0.93138 0.37926 0.0
C1983 C 0.48981 0.92724 0.4167 0.0
H1984 H 0.49399 0.91179 0.38682 0.0
C1985 C 0.48271 0.93848 0.41236 0.0
C1986 C 0.47949 0.94017 0.39884 0.0
H1987 H 0.49183 0.92616 0.42722 0.0
H1988 H 0.47972 0.94586 0.41964 0.0
C1989 C 0.4838 0.93043 0.38973 0.0
C1990 C 0.54541 0.59698 0.39979 0.0
C1991 C 0.55413 0.60148 0.38977 0.0
H1992 H 0.53098 0.60215 0.41464 0.0
C1993 C 0.55496 0.6153 0.38728 0.0
H1994 H 0.5444 0.58641 0.4019 0.0
C1995 C 0.54715 0.62437 0.39455 0.0
C1996 C 0.53825 0.61982 0.40441 0.0
H1997 H 0.56167 0.61914 0.37973 0.0
H1998 H 0.54788 0.63492 0.39224 0.0
C1999 C 0.53758 0.60601 0.407 0.0
C2000 C 0.14128 0.49456 0.09827 0.0
C2001 C 0.15259 0.48722 0.10231 0.0
H2002 H 0.12519 0.50746 0.10395 0.0
C2003 C 0.15597 0.48709 0.1159 0.0
H2004 H 0.1385 0.49508 0.08788 0.0
C2005 C 0.14828 0.49418 0.12517 0.0
C2006 C 0.13701 0.5016 0.12111 0.0
H2007 H 0.1645 0.4814 0.1194 0.0
H2008 H 0.1511 0.49374 0.13556 0.0
C2009 C 0.13362 0.50166 0.10753 0.0
C2010 C 0.13509 0.538 0.43664 0.0
C2011 C 0.13711 0.53937 0.42286 0.0
H2012 H 0.14078 0.54416 0.45621 0.0
C2013 C 0.14649 0.54884 0.41835 0.0
H2014 H 0.12783 0.53095 0.44048 0.0
C2015 C 0.15386 0.55654 0.42741 0.0
C2016 C 0.15198 0.55501 0.4412 0.0
H2017 H 0.14835 0.55012 0.40782 0.0
H2018 H 0.16104 0.5637 0.4236 0.0
C2019 C 0.14242 0.54571 0.44568 0.0
C2020 C 0.90023 0.99124 0.43653 0.0
C2021 C 0.88797 0.98454 0.43466 0.0
H2022 H 0.91647 1.00198 0.42754 0.0
C2023 C 0.88274 0.98366 0.4217 0.0
H2024 H 0.9045 0.99223 0.44637 0.0
C2025 C 0.88953 0.98936 0.41093 0.0
C2026 C 0.90176 0.99612 0.41278 0.0
H2027 H 0.87342 0.97845 0.41984 0.0
H2028 H 0.88508 0.98862 0.40114 0.0
C2029 C 0.90702 0.99698 0.42574 0.0
C2030 C 0.40785 0.55404 0.61983 0.0
C2031 C 0.40083 0.54577 0.62875 0.0
H2032 H 0.4069 0.5667 0.60266 0.0
C2033 C 0.38709 0.54355 0.62654 0.0
H2034 H 0.4184 0.55609 0.62131 0.0
C2035 C 0.38051 0.54954 0.61579 0.0
C2036 C 0.38745 0.55802 0.60697 0.0
H2037 H 0.38143 0.53706 0.63308 0.0
H2038 H 0.36997 0.54742 0.61434 0.0
C2039 C 0.40124 0.56012 0.6091 0.0
C2040 C 0.92968 0.88772 0.54943 0.0
C2041 C 0.94141 0.89327 0.55491 0.0
H2042 H 0.9121 0.89089 0.53761 0.0
C2043 C 0.94388 0.90698 0.55296 0.0
H2044 H 0.92732 0.87726 0.55087 0.0
C2045 C 0.93502 0.91484 0.54551 0.0
C2046 C 0.92346 0.90923 0.53976 0.0
H2047 H 0.95284 0.9116 0.55691 0.0
H2048 H 0.9373 0.92534 0.54421 0.0
C2049 C 0.92083 0.89559 0.54196 0.0
C2050 C 0.10643 0.63168 0.5646 0.0
C2051 C 0.09945 0.64298 0.55995 0.0
H2052 H 0.12152 0.61697 0.56076 0.0
C2053 C 0.10298 0.64832 0.54749 0.0
H2054 H 0.10391 0.62717 0.57407 0.0
C2055 C 0.11302 0.64236 0.53978 0.0
C2056 C 0.11977 0.63087 0.5443 0.0
H2057 H 0.09793 0.65709 0.54364 0.0
H2058 H 0.11522 0.64655 0.53009 0.0
C2059 C 0.11644 0.62571 0.55689 0.0
C2060 C 0.94448 0.13764 0.99075 0.0
C2061 C 0.94198 0.15136 0.98891 0.0
H2062 H 0.93794 0.11917 0.99931 0.0
C2063 C 0.93022 0.15682 0.99441 0.0
H2064 H 0.95347 0.13308 0.98679 0.0
C2065 C 0.92137 0.14885 1.00178 0.0
C2066 C 0.92403 0.1352 1.00386 0.0
H2067 H 0.92784 0.16729 0.99305 0.0
H2068 H 0.91261 0.15349 1.00613 0.0
C2069 C 0.93563 0.12968 0.99809 0.0
C2070 C 0.11217 0.39942 1.00454 0.0
C2071 C 0.11977 0.41072 1.00094 0.0
H2072 H 0.09606 0.38618 0.99951 0.0
C2073 C 0.11725 0.41677 0.98856 0.0
H2074 H 0.11394 0.39438 1.01391 0.0
C2075 C 0.10709 0.41197 0.98025 0.0
C2076 C 0.09915 0.40099 0.98407 0.0
H2077 H 0.1228 0.42554 0.98547 0.0
H2078 H 0.10535 0.41701 0.97087 0.0
C2079 C 0.102 0.39461 0.99621 0.0
C2080 C 0.55635 0.9283 0.88864 0.0
C2081 C 0.55467 0.94215 0.89042 0.0
H2082 H 0.55 0.90855 0.89411 0.0
C2083 C 0.54513 0.94659 0.8997 0.0
H2084 H 0.56369 0.92452 0.88167 0.0
C2085 C 0.53735 0.93745 0.90687 0.0
C2086 C 0.53889 0.9236 0.90498 0.0
H2087 H 0.54346 0.95716 0.90126 0.0
H2088 H 0.53012 0.94126 0.91394 0.0
C2089 C 0.54859 0.91913 0.89587 0.0
C2090 C 0.48287 0.6142 0.88988 0.0
C2091 C 0.47974 0.6038 0.89878 0.0
H2092 H 0.49208 0.63337 0.88713 0.0
C2093 C 0.48407 0.60489 0.91205 0.0
H2094 H 0.47964 0.61373 0.87962 0.0
C2095 C 0.49111 0.61617 0.91637 0.0
C2096 C 0.49403 0.6267 0.90756 0.0
H2097 H 0.48201 0.59701 0.91914 0.0
H2098 H 0.49401 0.61675 0.92673 0.0
C2099 C 0.48989 0.62553 0.89423 0.0
C2100 C 0.54648 0.09739 0.64342 0.0
C2101 C 0.55528 0.10183 0.6534 0.0
H2102 H 0.5321 0.10268 0.62854 0.0
C2103 C 0.55631 0.11566 0.65575 0.0
H2104 H 0.54532 0.08683 0.64141 0.0
C2105 C 0.54862 0.12479 0.64842 0.0
C2106 C 0.53963 0.12031 0.63861 0.0
H2107 H 0.56309 0.11945 0.66326 0.0
H2108 H 0.5495 0.13535 0.65063 0.0
C2109 C 0.53877 0.1065 0.63614 0.0
C2110 C 0.48344 0.43781 0.63167 0.0
C2111 C 0.48021 0.43939 0.64519 0.0
H2112 H 0.49265 0.42566 0.61676 0.0
C2113 C 0.48457 0.42961 0.65426 0.0
H2114 H 0.48041 0.44523 0.62441 0.0
C2115 C 0.49171 0.41838 0.64986 0.0
C2116 C 0.49476 0.41672 0.63629 0.0
H2117 H 0.48221 0.43047 0.66473 0.0
H2118 H 0.49487 0.411 0.65709 0.0
C2119 C 0.49061 0.42665 0.62729 0.0
C2120 C 0.90698 0.54701 0.92663 0.0
C2121 C 0.90126 0.54738 0.91384 0.0
H2122 H 0.90493 0.55207 0.94724 0.0
C2123 C 0.88867 0.55352 0.91226 0.0
H2124 H 0.9167 0.54249 0.92822 0.0
C2125 C 0.88199 0.55912 0.92313 0.0
C2126 C 0.88768 0.55875 0.93592 0.0
H2127 H 0.88387 0.55387 0.90261 0.0
H2128 H 0.87238 0.56386 0.92146 0.0
C2129 C 0.90029 0.55265 0.93752 0.0
C2130 C 0.88286 0.48185 0.62089 0.0
C2131 C 0.88768 0.48333 0.60783 0.0
H2132 H 0.8855 0.48636 0.6415 0.0
C2133 C 0.89958 0.49063 0.60584 0.0
H2134 H 0.87383 0.47617 0.62285 0.0
C2135 C 0.90638 0.49638 0.6166 0.0
C2136 C 0.9015 0.49494 0.62966 0.0
H2137 H 0.90354 0.49208 0.59592 0.0
H2138 H 0.91554 0.50187 0.61469 0.0
C2139 C 0.88966 0.48757 0.63164 0.0
C2140 C 0.14077 0.04801 0.59837 0.0
C2141 C 0.15152 0.05601 0.60264 0.0
H2142 H 0.12496 0.03465 0.60381 0.0
C2143 C 0.15416 0.05684 0.61636 0.0
H2144 H 0.13858 0.04694 0.58788 0.0
C2145 C 0.14629 0.04981 0.62555 0.0
C2146 C 0.13558 0.04174 0.62126 0.0
H2147 H 0.16225 0.06305 0.62003 0.0
H2148 H 0.14853 0.05081 0.63603 0.0
C2149 C 0.13293 0.04096 0.60753 0.0
C2150 C 0.65764 0.4916 0.42791 0.0
C2151 C 0.65239 0.48716 0.44014 0.0
H2152 H 0.65424 0.50258 0.40991 0.0
C2153 C 0.63895 0.49015 0.44314 0.0
H2154 H 0.66788 0.48934 0.42516 0.0
C2155 C 0.63108 0.49758 0.43431 0.0
C2156 C 0.63641 0.50229 0.42223 0.0
H2157 H 0.63457 0.48704 0.45249 0.0
H2158 H 0.62079 0.4997 0.43701 0.0
C2159 C 0.64975 0.49905 0.41907 0.0
C2160 C 0.6125 0.64007 0.97944 0.0
C2161 C 0.60005 0.6441 0.98465 0.0
H2162 H 0.63188 0.63171 0.98336 0.0
C2163 C 0.5979 0.64287 0.99841 0.0
H2164 H 0.61459 0.64106 0.96892 0.0
C2165 C 0.6078 0.63747 1.00669 0.0
C2166 C 0.62016 0.63318 1.00145 0.0
H2167 H 0.58838 0.64565 1.00275 0.0
H2168 H 0.60558 0.63627 1.01715 0.0
C2169 C 0.62242 0.63469 0.98772 0.0
C2170 C 0.42931 0.91166 0.99149 0.0
C2171 C 0.42284 0.90636 1.00274 0.0
H2172 H 0.44314 0.90834 0.97556 0.0
C2173 C 0.42568 0.89311 1.00649 0.0
H2174 H 0.42723 0.92176 0.98822 0.0
C2175 C 0.43488 0.88543 0.99929 0.0
C2176 C 0.44147 0.89076 0.9881 0.0
H2177 H 0.42105 0.88877 1.01522 0.0
H2178 H 0.43707 0.8754 1.00272 0.0
C2179 C 0.43847 0.90396 0.98425 0.0
C2180 C 0.61077 0.40842 0.56344 0.0
C2181 C 0.60089 0.39941 0.55899 0.0
H2182 H 0.62756 0.42073 0.55839 0.0
C2183 C 0.60134 0.39514 0.54569 0.0
H2184 H 0.61089 0.41177 0.57367 0.0
C2185 C 0.61106 0.40015 0.53695 0.0
C2186 C 0.62058 0.40958 0.54127 0.0
H2187 H 0.59389 0.38828 0.54186 0.0
H2188 H 0.61096 0.39677 0.52673 0.0
C2189 C 0.62046 0.41344 0.5547 0.0
C2190 C 0.42655 0.15108 0.53711 0.0
C2191 C 0.42354 0.1379 0.54099 0.0
H2192 H 0.43813 0.16869 0.54074 0.0
C2193 C 0.42991 0.13265 0.55232 0.0
H2194 H 0.422 0.15538 0.52832 0.0
C2195 C 0.43914 0.14032 0.55952 0.0
C2196 C 0.4423 0.15344 0.55554 0.0
H2197 H 0.42771 0.1226 0.55569 0.0
H2198 H 0.44372 0.13598 0.56827 0.0
C2199 C 0.43582 0.15873 0.54427 0.0
C2200 C 0.9888 0.62493 0.64853 0.0
C2201 C 0.99267 0.62628 0.63514 0.0
H2202 H 0.97884 0.61294 0.66321 0.0
C2203 C 0.98956 0.61588 0.62627 0.0
H2204 H 0.99115 0.63267 0.65567 0.0
C2205 C 0.9826 0.60455 0.6306 0.0
C2206 C 0.97854 0.60327 0.64394 0.0
H2207 H 0.99225 0.61661 0.61586 0.0
H2208 H 0.9804 0.59676 0.62346 0.0
C2209 C 0.98186 0.61354 0.65289 0.0
C2210 C 0.04242 0.93589 0.65907 0.0
C2211 C 0.05417 0.94191 0.65415 0.0
H2212 H 0.02616 0.9224 0.65541 0.0
C2213 C 0.05873 0.93822 0.64144 0.0
H2214 H 0.03846 0.93862 0.66871 0.0
C2215 C 0.05163 0.92892 0.63379 0.0
C2216 C 0.03979 0.92303 0.63865 0.0
H2217 H 0.06786 0.94244 0.63741 0.0
H2218 H 0.05546 0.92629 0.62407 0.0
C2219 C 0.03534 0.92656 0.65143 0.0
C2220 C 0.98222 0.42969 0.88965 0.0
C2221 C 0.97823 0.43972 0.89859 0.0
H2222 H 0.99215 0.41086 0.88701 0.0
C2223 C 0.98171 0.43834 0.91208 0.0
H2224 H 0.97966 0.43039 0.87921 0.0
C2225 C 0.98879 0.42714 0.91655 0.0
C2226 C 0.99259 0.41698 0.90768 0.0
H2227 H 0.97897 0.44595 0.91922 0.0
H2228 H 0.99104 0.42632 0.92705 0.0
C2229 C 0.98927 0.41842 0.89415 0.0
C2230 C 0.04284 0.10918 0.88503 0.0
C2231 C 0.05464 0.1032 0.88989 0.0
H2232 H 0.02659 0.12265 0.88873 0.0
C2233 C 0.05928 0.10696 0.90256 0.0
H2234 H 0.03883 0.1064 0.87542 0.0
C2235 C 0.05222 0.11628 0.91022 0.0
C2236 C 0.04034 0.12213 0.90541 0.0
H2237 H 0.06844 0.10276 0.90655 0.0
H2238 H 0.05611 0.11895 0.9199 0.0
C2239 C 0.03581 0.11853 0.89267 0.0
C2240 C 0.64143 0.99586 0.59815 0.0
C2241 C 0.65228 0.98793 0.60232 0.0
H2242 H 0.62566 1.00919 0.60373 0.0
C2243 C 0.65512 0.98716 0.61601 0.0
H2244 H 0.63908 0.99688 0.58769 0.0
C2245 C 0.64737 0.9942 0.62526 0.0
C2246 C 0.63657 1.00222 0.62107 0.0
H2247 H 0.66328 0.981 0.6196 0.0
H2248 H 0.64977 0.99326 0.63571 0.0
C2249 C 0.63371 1.00292 0.60739 0.0
C2250 C 0.64162 0.04817 0.94562 0.0
C2251 C 0.65245 0.0561 0.94138 0.0
H2252 H 0.62581 0.03484 0.94014 0.0
C2253 C 0.6552 0.05686 0.92768 0.0
H2254 H 0.63934 0.04716 0.9561 0.0
C2255 C 0.64739 0.04981 0.91848 0.0
C2256 C 0.63662 0.04179 0.92273 0.0
H2257 H 0.66334 0.06302 0.92404 0.0
H2258 H 0.64972 0.05075 0.90801 0.0
C2259 C 0.63384 0.04111 0.93644 0.0
C2260 C 0.40388 0.48323 0.91772 0.0
C2261 C 0.4024 0.49688 0.91469 0.0
H2262 H 0.39833 0.46694 0.93043 0.0
C2263 C 0.3941 0.50471 0.92286 0.0
H2264 H 0.4103 0.47691 0.91174 0.0
C2265 C 0.3873 0.49901 0.93364 0.0
C2266 C 0.38865 0.48532 0.93658 0.0
H2267 H 0.39262 0.51523 0.92077 0.0
H2268 H 0.38098 0.50535 0.9397 0.0
C2269 C 0.39712 0.47753 0.92854 0.0
C2270 C 0.90122 0.053 0.10649 0.0
C2271 C 0.88822 0.05825 0.10793 0.0
H2272 H 0.91799 0.0435 0.1159 0.0
C2273 C 0.88215 0.05771 0.12055 0.0
H2274 H 0.90616 0.05313 0.09691 0.0
C2275 C 0.88888 0.05208 0.1314 0.0
C2276 C 0.90188 0.04682 0.12997 0.0
H2277 H 0.87222 0.06179 0.1221 0.0
H2278 H 0.88381 0.05173 0.14091 0.0
C2279 C 0.90795 0.04734 0.11736 0.0
C2280 C 0.43359 0.41432 0.04699 0.0
C2281 C 0.42254 0.40851 0.04049 0.0
H2282 H 0.45111 0.4113 0.05887 0.0
C2283 C 0.42052 0.39466 0.04183 0.0
H2284 H 0.43538 0.42498 0.04635 0.0
C2285 C 0.42948 0.3868 0.0492 0.0
C2286 C 0.44071 0.39258 0.05543 0.0
H2287 H 0.41221 0.38979 0.03689 0.0
H2288 H 0.4276 0.37617 0.04997 0.0
C2289 C 0.44255 0.40648 0.05433 0.0
C2290 C 0.60385 0.14863 0.04682 0.0
C2291 C 0.60051 0.1436 0.05947 0.0
H2292 H 0.61599 0.14655 0.02938 0.0
C2293 C 0.60777 0.1326 0.06441 0.0
H2294 H 0.59858 0.15716 0.04274 0.0
C2295 C 0.61785 0.12661 0.05681 0.0
C2296 C 0.62097 0.13143 0.04404 0.0
H2297 H 0.60541 0.12835 0.07403 0.0
H2298 H 0.62313 0.1181 0.06091 0.0
C2299 C 0.61395 0.14263 0.03922 0.0
C2300 C 0.42595 0.6522 0.5079 0.0
C2301 C 0.42236 0.63907 0.5044 0.0
H2302 H 0.43772 0.66947 0.50335 0.0
C2303 C 0.42792 0.63353 0.4928 0.0
H2304 H 0.42176 0.65686 0.51667 0.0
C2305 C 0.437 0.64085 0.48503 0.0
C2306 C 0.44073 0.65391 0.48865 0.0
H2307 H 0.42548 0.62341 0.48985 0.0
H2308 H 0.44108 0.63626 0.47617 0.0
C2309 C 0.435 0.65951 0.50015 0.0
C2310 C 0.60354 0.89562 0.49621 0.0
C2311 C 0.60036 0.90064 0.48352 0.0
H2312 H 0.6155 0.89769 0.51377 0.0
C2313 C 0.60767 0.91164 0.47866 0.0
H2314 H 0.59822 0.88709 0.50023 0.0
C2315 C 0.61767 0.91763 0.48637 0.0
C2316 C 0.62066 0.91281 0.49917 0.0
H2317 H 0.60543 0.91589 0.46901 0.0
H2318 H 0.62301 0.92613 0.48232 0.0
C2319 C 0.61357 0.90161 0.50392 0.0
C2320 C 0.05798 0.43738 0.40056 0.0
C2321 C 0.05421 0.44112 0.38759 0.0
H2322 H 0.05341 0.42572 0.41785 0.0
C2323 C 0.04272 0.4352 0.38201 0.0
H2324 H 0.06685 0.4416 0.40513 0.0
C2325 C 0.03512 0.42597 0.38925 0.0
C2326 C 0.03875 0.42239 0.40229 0.0
H2327 H 0.03941 0.43791 0.37212 0.0
H2328 H 0.02633 0.42165 0.38461 0.0
C2329 C 0.05036 0.42813 0.4078 0.0
C2330 C 0.98258 0.1142 0.39028 0.0
C2331 C 0.97916 0.1039 0.39919 0.0
H2332 H 0.99197 0.13329 0.38757 0.0
C2333 C 0.98314 0.10512 0.41256 0.0
H2334 H 0.97963 0.11364 0.37993 0.0
C2335 C 0.99012 0.1164 0.41695 0.0
C2336 C 0.99333 0.12682 0.40811 0.0
H2337 H 0.98085 0.09732 0.41968 0.0
H2338 H 0.99274 0.11708 0.42738 0.0
C2339 C 0.98954 0.12553 0.39469 0.0
C2340 C 0.05327 0.61496 0.13235 0.0
C2341 C 0.04173 0.62123 0.13742 0.0
H2342 H 0.06931 0.60116 0.13583 0.0
C2343 C 0.03761 0.61808 0.15042 0.0
H2344 H 0.05684 0.61727 0.12245 0.0
C2345 C 0.04472 0.60878 0.15808 0.0
C2346 C 0.05618 0.60239 0.15297 0.0
H2347 H 0.02866 0.62254 0.15458 0.0
H2348 H 0.04102 0.60637 0.16791 0.0
C2349 C 0.06041 0.60568 0.14003 0.0
C2350 C 0.99908 0.92736 0.13965 0.0
C2351 C 0.99234 0.91523 0.13731 0.0
H2352 H 0.9976 0.94783 0.14576 0.0
C2353 C 0.9785 0.91459 0.13994 0.0
H2354 H 1.00975 0.92819 0.13789 0.0
C2355 C 0.97157 0.9258 0.14458 0.0
C2356 C 0.97825 0.93799 0.14673 0.0
H2357 H 0.97293 0.90549 0.13813 0.0
H2358 H 0.96092 0.92492 0.14646 0.0
C2359 C 0.99213 0.93859 0.14433 0.0
C2360 C 0.38676 0.04562 0.41677 0.0
C2361 C 0.4007 0.04684 0.41509 0.0
H2362 H 0.36959 0.05027 0.4286 0.0
C2363 C 0.40803 0.05412 0.42457 0.0
H2364 H 0.38083 0.03989 0.40979 0.0
C2365 C 0.40156 0.06021 0.43535 0.0
C2366 C 0.38758 0.05911 0.43696 0.0
H2367 H 0.41876 0.05539 0.4235 0.0
H2368 H 0.40749 0.06602 0.44225 0.0
C2369 C 0.38031 0.05162 0.42757 0.0
C2370 C 0.40045 0.99104 0.10475 0.0
C2371 C 0.3885 0.98383 0.10673 0.0
H2372 H 0.41648 1.00216 0.11363 0.0
C2373 C 0.38364 0.9824 0.11978 0.0
H2374 H 0.40444 0.99245 0.09483 0.0
C2375 C 0.39047 0.98807 0.13053 0.0
C2376 C 0.40238 0.99534 0.12857 0.0
H2377 H 0.37457 0.97679 0.12173 0.0
H2378 H 0.38628 0.98689 0.14039 0.0
C2379 C 0.40728 0.99675 0.11552 0.0
C2380 C 0.63189 0.55353 0.11638 0.0
C2381 C 0.63704 0.54219 0.1229 0.0
H2382 H 0.6354 0.56932 0.10241 0.0
C2383 C 0.65024 0.53818 0.12005 0.0
H2384 H 0.62183 0.55701 0.11846 0.0
C2385 C 0.658 0.54519 0.11078 0.0
C2386 C 0.65281 0.55644 0.10413 0.0
H2387 H 0.65446 0.52937 0.1247 0.0
H2388 H 0.66798 0.54156 0.10859 0.0
C2389 C 0.63967 0.56057 0.10714 0.0
C2390 C 0.14078 0.9963 0.94537 0.0
C2391 C 0.1519 0.98877 0.94117 0.0
H2392 H 0.12471 1.00932 0.93987 0.0
C2393 C 0.15494 0.98844 0.92751 0.0
H2394 H 0.13827 0.99698 0.95582 0.0
C2395 C 0.1471 0.9955 0.91832 0.0
C2396 C 0.13603 1.00311 0.92253 0.0
H2397 H 0.16331 0.9826 0.9239 0.0
H2398 H 0.14966 0.99489 0.90788 0.0
C2399 C 0.13298 1.00338 0.93619 0.0
C2400 C 1.02092 0.28125 0.45363 0.0
C2401 C 1.02106 0.28703 0.44087 0.0
H2402 H 0.02363 0.26359 0.46537 0.0
C2403 C 0.02368 0.27871 0.4299 0.0
H2404 H 1.01904 0.28732 0.46233 0.0
C2405 C 0.02646 0.2651 0.43165 0.0
C2406 C 0.02672 0.25941 0.44445 0.0
H2407 H 0.02368 0.28274 0.4199 0.0
H2408 H 0.02881 0.25913 0.42299 0.0
C2409 C 0.02372 0.26764 0.45539 0.0
C2410 C 0.02545 0.77945 0.11061 0.0
C2411 C 0.02762 0.78482 0.09786 0.0
H2412 H 1.02104 0.76206 0.12226 0.0
C2413 C 0.02639 0.77628 0.08681 0.0
H2414 H 0.02639 0.78568 0.11936 0.0
C2415 C 0.02345 0.76269 0.08848 0.0
C2416 C 0.02166 0.75724 0.10126 0.0
H2417 H 0.02779 0.78008 0.07682 0.0
H2418 H 0.02297 0.75639 0.07976 0.0
C2419 C 0.02253 0.76585 0.11229 0.0
C2420 C 0.4549 0.03382 0.26812 0.0
C2421 C 0.44709 0.02722 0.2585 0.0
H2422 H 0.46112 0.03487 0.28846 0.0
C2423 C 0.43936 1.01616 0.26253 0.0
H2424 H 0.46111 0.04227 0.2654 0.0
C2425 C 0.43947 1.01183 0.2758 0.0
C2426 C 0.44736 1.0184 0.28538 0.0
H2427 H 0.43314 1.01089 0.25544 0.0
H2428 H 0.43353 1.00318 0.27849 0.0
C2429 C 0.45503 0.02948 0.28135 0.0
C2430 C 0.59442 0.52282 0.26547 0.0
C2431 C 0.60621 0.51926 0.25867 0.0
H2432 H 0.58509 0.52679 0.28427 0.0
C2433 C 0.61791 0.51693 0.26614 0.0
H2434 H 0.58525 0.52481 0.26004 0.0
C2435 C 0.61784 0.51818 0.27998 0.0
C2436 C 0.60608 0.52179 0.28681 0.0
H2437 H 0.62715 0.51404 0.26128 0.0
H2438 H 0.6271 0.51646 0.28534 0.0
C2439 C 0.59436 0.52411 0.27936 0.0
C2440 C 0.27906 0.45052 1.02168 0.0
C2441 C 0.28623 0.43851 1.02008 0.0
H2442 H 0.25985 0.45986 0.02409 0.0
C2443 C 0.27901 0.42644 1.01974 0.0
H2444 H 0.2843 0.45999 0.0221 0.0
C2445 C 0.26504 0.42636 1.02098 0.0
C2446 C 0.25785 0.43834 0.0226 0.0
H2447 H 0.28414 0.41701 1.01839 0.0
H2448 H 0.25988 0.41684 1.02079 0.0
C2449 C 0.26506 0.45043 0.02297 0.0
C2450 C 0.26608 0.61619 0.51569 0.0
C2451 C 0.25845 0.60479 0.51883 0.0
H2452 H 0.28551 0.62515 0.51464 0.0
C2453 C 0.26521 0.59326 0.52326 0.0
H2454 H 0.26126 0.6252 0.51212 0.0
C2455 C 0.2792 0.5932 0.52463 0.0
C2456 C 0.28681 0.60463 0.52151 0.0
H2457 H 0.25966 0.58434 0.52589 0.0
H2458 H 0.28408 0.58414 0.52802 0.0
C2459 C 0.28004 0.61611 0.517 0.0
C2460 C 0.7669 0.92817 0.52651 0.0
C2461 C 0.75929 0.93976 0.52407 0.0
H2462 H 0.78632 0.91914 0.527 0.0
C2463 C 0.76606 0.95152 0.52034 0.0
H2464 H 0.76207 0.91897 0.52953 0.0
C2465 C 0.78006 0.95165 0.51897 0.0
C2466 C 0.78765 0.94004 0.5214 0.0
H2467 H 0.76053 0.9606 0.51827 0.0
H2468 H 0.78495 0.96089 0.51615 0.0
C2469 C 0.78085 0.92831 0.52519 0.0
C2470 C 1.01951 0.78105 0.58966 0.0
C2471 C 1.02052 0.78707 0.60225 0.0
H2472 H 0.02141 0.76316 0.57815 0.0
C2473 C 0.02388 0.77895 0.61321 0.0
H2474 H 1.01705 0.78695 0.58097 0.0
C2475 C 0.02654 0.7653 0.61156 0.0
C2476 C 0.02593 0.75937 0.59891 0.0
H2477 H 0.02457 0.78317 0.62309 0.0
H2478 H 0.02948 0.7595 0.62017 0.0
C2479 C 0.02218 0.7674 0.58801 0.0
C2480 C 0.02339 0.26648 0.93129 0.0
C2481 C 0.02168 0.25806 0.94239 0.0
H2482 H 0.02792 0.28614 0.92413 0.0
C2483 C 0.02259 0.26371 0.95515 0.0
H2484 H 0.02258 0.26254 0.9213 0.0
C2485 C 0.02552 0.27731 0.95677 0.0
C2486 C 0.0276 0.28566 0.94567 0.0
H2487 H 0.02144 0.25756 0.96394 0.0
H2488 H 0.02624 0.28127 0.96675 0.0
C2489 C 0.0263 0.28008 0.93291 0.0
C2490 C 0.59455 1.02167 0.77897 0.0
C2491 C 0.60667 1.0205 0.78604 0.0
H2492 H 0.58503 0.02373 0.75994 0.0
C2493 C 0.61876 1.02057 0.77884 0.0
H2494 H 0.58506 1.02177 0.78419 0.0
C2495 C 0.61875 1.0218 0.76499 0.0
C2496 C 0.60665 0.023 0.75789 0.0
H2497 H 0.62828 1.01954 0.7839 0.0
H2498 H 0.62828 0.02195 0.75984 0.0
C2499 C 0.59454 0.02295 0.76507 0.0
C2500 C 0.43929 0.51767 0.78071 0.0
C2501 C 0.44806 0.52785 0.78491 0.0
H2502 H 0.43268 0.50517 0.76469 0.0
C2503 C 0.457 0.53333 0.77555 0.0
H2504 H 0.43219 0.51328 0.78759 0.0
C2505 C 0.4572 0.52876 0.7624 0.0
C2506 C 0.44846 0.51858 0.7582 0.0
H2507 H 0.46401 0.54106 0.77841 0.0
H2508 H 0.46417 0.5333 0.75549 0.0
C2509 C 0.43946 0.51312 0.76752 0.0
C2510 C 0.76546 0.59285 1.0205 0.0
C2511 C 0.75884 0.60448 0.02484 0.0
H2512 H 0.78424 0.58351 1.01581 0.0
C2513 C 0.76658 0.61582 0.02785 0.0
H2514 H 0.75982 0.58397 1.01798 0.0
C2515 C 0.78054 0.61559 0.02652 0.0
C2516 C 0.78719 0.60401 0.02213 0.0
H2517 H 0.76187 0.62491 0.03135 0.0
H2518 H 0.78611 0.62459 0.02879 0.0
C2519 C 0.77946 0.59264 1.01911 0.0
C2520 C 0.76473 0.44987 0.52137 0.0
C2521 C 0.75777 0.43774 0.5198 0.0
H2522 H 0.78378 0.45952 0.52388 0.0
C2523 C 0.76518 0.42578 0.51959 0.0
H2524 H 0.75935 0.45927 0.52169 0.0
C2525 C 0.77913 0.42592 0.52093 0.0
C2526 C 0.78612 0.43803 0.52253 0.0
H2527 H 0.7602 0.41626 0.51825 0.0
H2528 H 0.78444 0.41649 0.52085 0.0
C2529 C 0.77873 0.45001 0.52277 0.0
C2530 C 0.26644 0.11658 0.52772 0.0
C2531 C 0.25893 0.105 0.525 0.0
H2532 H 0.28579 0.12574 0.52851 0.0
C2533 C 0.2658 0.09338 0.52105 0.0
H2534 H 0.26153 0.12567 0.53091 0.0
C2535 C 0.27981 0.09339 0.51975 0.0
C2536 C 0.2873 0.105 0.52246 0.0
H2537 H 0.26034 0.08432 0.51876 0.0
H2538 H 0.28478 0.08426 0.51675 0.0
C2539 C 0.2804 0.11657 0.52647 0.0
C2540 C 0.52673 0.76443 0.9315 0.0
C2541 C 0.52813 0.75892 0.9443 0.0
H2542 H 0.52291 0.78191 0.91979 0.0
C2543 C 0.52615 0.76732 0.95534 0.0
H2544 H 0.52827 0.75832 0.92275 0.0
C2545 C 0.52322 0.78091 0.95364 0.0
C2546 C 0.52219 0.7865 0.94085 0.0
H2547 H 0.52696 0.76341 0.96536 0.0
H2548 H 0.52214 0.78711 0.96239 0.0
C2549 C 0.52381 0.77802 0.9298 0.0
C2550 C 0.52924 0.27913 0.6122 0.0
C2551 C 0.52961 0.2849 0.59944 0.0
H2552 H 0.52627 0.26143 0.62383 0.0
C2553 C 0.52668 0.27673 0.58843 0.0
H2554 H 0.53153 0.28504 0.62091 0.0
C2555 C 0.5238 0.26312 0.59009 0.0
C2556 C 0.52379 0.25727 0.60282 0.0
H2557 H 0.52669 0.28084 0.57847 0.0
H2558 H 0.52195 0.25711 0.58134 0.0
C2559 C 0.52638 0.26551 0.61386 0.0
C2560 C 0.95845 0.52705 0.78011 0.0
C2561 C 0.94838 0.51846 0.78489 0.0
H2562 H 0.96631 0.53807 0.76362 0.0
C2563 C 0.93811 0.51456 0.77611 0.0
H2564 H 0.96644 0.53038 0.78658 0.0
C2565 C 0.93798 0.51906 0.76289 0.0
C2566 C 0.94806 0.52766 0.75813 0.0
H2567 H 0.93026 0.50784 0.7794 0.0
H2568 H 0.92988 0.51591 0.75644 0.0
C2569 C 0.95829 0.53159 0.76694 0.0
C2570 C 0.09293 0.02316 0.77891 0.0
C2571 C 0.10507 0.02373 0.78601 0.0
H2572 H 0.08339 1.02162 0.75985 0.0
C2573 C 0.11716 0.02313 0.77885 0.0
H2574 H 0.08343 0.02348 0.78409 0.0
C2575 C 0.11714 0.02195 0.765 0.0
C2576 C 0.10502 1.02135 0.75787 0.0
H2577 H 0.12671 0.02368 0.78395 0.0
H2578 H 0.12667 1.02139 0.75988 0.0
C2579 C 0.09291 0.02193 0.76501 0.0
C2580 C 0.76658 0.0925 0.02268 0.0
C2581 C 0.75978 0.10434 1.01924 0.0
H2582 H 0.78549 0.08307 0.02661 0.0
C2583 C 0.76738 0.11599 1.01704 0.0
H2584 H 0.76106 0.08338 0.02457 0.0
C2585 C 0.78134 0.11583 1.01831 0.0
C2586 C 0.78816 0.10403 0.02183 0.0
H2587 H 0.76253 0.12526 1.01424 0.0
H2588 H 0.78679 0.12505 1.01669 0.0
C2589 C 0.78058 0.09236 0.02401 0.0
C2590 C 0.52549 0.27963 0.11294 0.0
C2591 C 0.52138 0.28763 0.10215 0.0
H2592 H 0.53161 0.26026 0.11969 0.0
C2593 C 0.51964 0.28151 0.08969 0.0
H2594 H 0.52676 0.28392 0.12273 0.0
C2595 C 0.52228 0.26786 0.08798 0.0
C2596 C 0.52672 0.25994 0.09869 0.0
H2597 H 0.51658 0.28734 0.08114 0.0
H2598 H 0.52092 0.26354 0.07822 0.0
C2599 C 0.52811 0.26598 0.11123 0.0
C2600 C 0.52275 0.77626 0.45402 0.0
C2601 C 0.52727 0.78415 0.44332 0.0
H2602 H 0.51695 0.75683 0.46087 0.0
C2603 C 0.5287 0.77808 0.4308 0.0
H2604 H 0.52135 0.78061 0.46377 0.0
C2605 C 0.52603 0.76444 0.4291 0.0
C2606 C 0.52185 0.75647 0.43988 0.0
H2607 H 0.53226 0.78378 0.42235 0.0
H2608 H 0.52733 0.76012 0.41933 0.0
C2609 C 0.52006 0.76262 0.45232 0.0
C2610 C 0.11803 0.52756 0.26564 0.0
C2611 C 0.10658 0.52451 0.25808 0.0
H2612 H 0.12699 0.52865 0.28492 0.0
C2613 C 0.09494 0.52029 0.26479 0.0
H2614 H 0.12713 0.53098 0.26085 0.0
C2615 C 0.09483 0.51904 0.27869 0.0
C2616 C 0.10631 0.52207 0.28623 0.0
H2617 H 0.08597 0.51774 0.25929 0.0
H2618 H 0.08569 0.51582 0.28353 0.0
C2619 C 0.1179 0.52636 0.27949 0.0
C2620 C 0.96228 0.02711 0.27777 0.0
C2621 C 0.95031 0.02764 0.28513 0.0
H2622 H 0.97177 0.02231 0.25931 0.0
C2623 C 0.93838 0.02336 0.27899 0.0
H2624 H 0.97169 0.03017 0.28218 0.0
C2625 C 0.93844 1.01873 0.26582 0.0
C2626 C 0.95044 1.01817 0.2585 0.0
H2627 H 0.92895 0.02374 0.2843 0.0
H2628 H 0.9291 1.01541 0.26145 0.0
C2629 C 0.96235 0.02245 0.26466 0.0
C2630 C 0.2794 0.95089 0.02284 0.0
C2631 C 0.28676 0.93894 0.02179 0.0
H2632 H 0.26004 0.96022 0.02253 0.0
C2633 C 0.27973 0.92697 1.01947 0.0
H2634 H 0.28448 0.9603 0.02451 0.0
C2635 C 0.26577 0.92694 1.01824 0.0
C2636 C 0.25839 0.93887 1.01929 0.0
H2637 H 0.28502 0.91755 1.01874 0.0
H2638 H 0.26076 0.91753 1.01635 0.0
C2639 C 0.26539 0.95087 1.02156 0.0
loop_
_geom_bond_atom_site_label_1
_geom_bond_atom_site_label_2
_geom_bond_distance
_geom_bond_site_symmetry_2
_ccdc_geom_bond_type
C0 C1 1.264 . S
C0 C5 1.479 1_455 S
C0 C10 1.465 . S
C1 C0 1.264 . S
C1 C3 1.339 . S
C1 H28 0.931 . S
C2 C3 1.395 1_655 S
C2 C4 1.320 . S
C3 C1 1.339 . S
C3 C2 1.395 1_455 S
C3 H29 0.929 . S
C4 C2 1.320 . S
C4 C5 1.405 . S
C4 H30 0.930 . S
C5 C0 1.479 1_655 S
C5 C4 1.405 . S
C5 H31 0.931 . S
U6 O7 2.454 . S
U6 O8 2.458 . S
U6 C9 2.984 . S
U6 C10 2.847 . S
U6 C23 2.882 . S
U6 O24 2.441 . S
U6 O25 2.420 . S
U6 O26 2.455 . S
U6 O27 2.449 . S
O7 U6 2.454 . S
O7 C9 1.353 . S
O8 U6 2.458 . S
O8 C9 1.286 . S
C9 U6 2.984 . S
C9 O7 1.353 . S
C9 O8 1.286 . S
C9 C11 1.363 . S
C10 C0 1.465 . S
C10 U6 2.847 . S
C10 O24 1.249 . S
C10 O25 1.202 . S
C11 C9 1.363 . S
C11 C13 1.408 . S
C11 C16 1.342 . S
C12 C13 1.310 . S
C12 C15 1.461 . S
C12 H32 0.892 1_455 S
C13 C11 1.408 . S
C13 C12 1.310 . S
C13 H33 0.930 . S
C14 C15 1.474 . S
C14 C16 1.285 . S
C14 H34 0.929 . S
C15 C12 1.461 . S
C15 C14 1.474 . S
C16 C11 1.342 . S
C16 C14 1.285 . S
C16 H35 0.930 . S
C17 C20 1.424 . S
C17 C22 1.245 . S
C17 C23 1.428 . S
C18 C21 1.260 . S
C18 C22 1.477 . S
C18 H36 0.932 . S
C19 C20 1.384 . S
C19 C21 1.479 . S
C19 H37 0.929 . S
C20 C17 1.424 . S
C20 C19 1.384 . S
C20 H38 0.928 . S
C21 C18 1.260 . S
C21 C19 1.479 . S
C22 C17 1.245 . S
C22 C18 1.477 . S
C22 H39 0.932 . S
C23 U6 2.882 . S
C23 C17 1.428 . S
C23 O26 1.301 . S
C23 O27 1.282 . S
O24 U6 2.441 . S
O24 C10 1.249 . S
O25 U6 2.420 . S
O25 C10 1.202 . S
O26 U6 2.455 . S
O26 C23 1.301 . S
O27 U6 2.449 . S
O27 C23 1.282 . S
H28 C1 0.931 . S
H29 C3 0.929 . S
H30 C4 0.930 . S
H31 C5 0.931 . S
H32 C12 0.892 1_655 S
H33 C13 0.930 . S
H34 C14 0.929 . S
H35 C16 0.930 . S
H36 C18 0.932 . S
H37 C19 0.929 . S
H38 C20 0.928 . S
H39 C22 0.932 . S
C40 C41 1.264 . S
C40 C45 1.479 . S
C40 C50 1.465 . S
C41 C40 1.264 . S
C41 C43 1.339 . S
C41 H68 0.931 . S
C42 C43 1.395 . S
C42 C44 1.320 . S
C43 C41 1.339 . S
C43 C42 1.395 . S
C43 H69 0.929 . S
C44 C42 1.320 . S
C44 C45 1.405 . S
C44 H70 0.930 . S
C45 C40 1.479 . S
C45 C44 1.405 . S
C45 H71 0.931 . S
U46 O47 2.454 . S
U46 O48 2.458 . S
U46 C49 2.984 . S
U46 C50 2.847 . S
U46 C63 2.882 . S
U46 O64 2.441 . S
U46 O65 2.420 . S
U46 O66 2.455 . S
U46 O67 2.449 . S
O47 U46 2.454 . S
O47 C49 1.353 . S
O48 U46 2.458 . S
O48 C49 1.286 . S
C49 U46 2.984 . S
C49 O47 1.353 . S
C49 O48 1.286 . S
C49 C51 1.363 . S
C50 C40 1.465 . S
C50 U46 2.847 . S
C50 O64 1.249 . S
C50 O65 1.202 . S
C51 C49 1.363 . S
C51 C53 1.408 . S
C51 C56 1.342 . S
C52 C53 1.310 . S
C52 C55 1.461 . S
C52 H72 0.932 . S
C53 C51 1.408 . S
C53 C52 1.310 . S
C53 H73 0.930 . S
C54 C55 1.474 . S
C54 C56 1.285 . S
C54 H74 0.929 1_655 S
C55 C52 1.461 . S
C55 C54 1.474 . S
C56 C51 1.342 . S
C56 C54 1.285 . S
C56 H75 0.930 . S
C57 C60 1.424 1_455 S
C57 C62 1.245 . S
C57 C63 1.428 1_455 S
C58 C61 1.260 . S
C58 C62 1.477 . S
C58 H76 0.932 . S
C59 C60 1.384 1_455 S
C59 C61 1.479 . S
C59 H77 0.941 . S
C60 C57 1.424 1_655 S
C60 C59 1.384 1_655 S
C60 H78 0.928 . S
C61 C58 1.260 . S
C61 C59 1.479 . S
C62 C57 1.245 . S
C62 C58 1.477 . S
C62 H79 0.932 . S
C63 U46 2.882 . S
C63 C57 1.428 1_655 S
C63 O66 1.301 . S
C63 O67 1.282 . S
O64 U46 2.441 . S
O64 C50 1.249 . S
O65 U46 2.420 . S
O65 C50 1.202 . S
O66 U46 2.455 . S
O66 C63 1.301 . S
O67 U46 2.449 . S
O67 C63 1.282 . S
H68 C41 0.931 . S
H69 C43 0.929 . S
H70 C44 0.930 . S
H71 C45 0.931 . S
H72 C52 0.932 . S
H73 C53 0.930 . S
H74 C54 0.929 1_455 S
H75 C56 0.930 . S
H76 C58 0.932 . S
H77 C59 0.941 . S
H78 C60 0.928 . S
H79 C62 0.932 . S
C80 C81 1.264 . S
C80 C85 1.479 1_455 S
C80 C90 1.465 . S
C81 C80 1.264 . S
C81 C83 1.339 . S
C81 H108 0.931 . S
C82 C83 1.395 1_655 S
C82 C84 1.320 . S
C83 C81 1.339 . S
C83 C82 1.395 1_455 S
C83 H109 0.929 . S
C84 C82 1.320 . S
C84 C85 1.405 . S
C84 H110 0.930 . S
C85 C80 1.479 1_655 S
C85 C84 1.405 . S
C85 H111 0.931 . S
U86 O87 2.454 . S
U86 O88 2.458 . S
U86 C89 2.984 . S
U86 C90 2.847 . S
U86 C103 2.882 . S
U86 O104 2.441 . S
U86 O105 2.420 . S
U86 O106 2.455 . S
U86 O107 2.449 . S
O87 U86 2.454 . S
O87 C89 1.353 . S
O88 U86 2.458 . S
O88 C89 1.286 . S
C89 U86 2.984 . S
C89 O87 1.353 . S
C89 O88 1.286 . S
C89 C91 1.363 . S
C90 C80 1.465 . S
C90 U86 2.847 . S
C90 O104 1.249 . S
C90 O105 1.202 . S
C91 C89 1.363 . S
C91 C93 1.408 . S
C91 C96 1.342 . S
C92 C93 1.310 . S
C92 C95 1.461 . S
C92 H112 0.892 1_455 S
C93 C91 1.408 . S
C93 C92 1.310 . S
C93 H113 0.930 . S
C94 C95 1.474 . S
C94 C96 1.285 . S
C94 H114 0.929 . S
C95 C92 1.461 . S
C95 C94 1.474 . S
C96 C91 1.342 . S
C96 C94 1.285 . S
C96 H115 0.930 . S
C97 C100 1.424 . S
C97 C102 1.245 . S
C97 C103 1.428 . S
C98 C101 1.260 . S
C98 C102 1.477 . S
C98 H116 0.932 . S
C99 C100 1.384 . S
C99 C101 1.479 . S
C99 H117 0.929 . S
C100 C97 1.424 . S
C100 C99 1.384 . S
C100 H118 0.928 . S
C101 C98 1.260 . S
C101 C99 1.479 . S
C102 C97 1.245 . S
C102 C98 1.477 . S
C102 H119 0.932 . S
C103 U86 2.882 . S
C103 C97 1.428 . S
C103 O106 1.301 . S
C103 O107 1.282 . S
O104 U86 2.441 . S
O104 C90 1.249 . S
O105 U86 2.420 . S
O105 C90 1.202 . S
O106 U86 2.455 . S
O106 C103 1.301 . S
O107 U86 2.449 . S
O107 C103 1.282 . S
H108 C81 0.931 . S
H109 C83 0.929 . S
H110 C84 0.930 . S
H111 C85 0.931 . S
H112 C92 0.892 1_655 S
H113 C93 0.930 . S
H114 C94 0.929 . S
H115 C96 0.930 . S
H116 C98 0.932 . S
H117 C99 0.929 . S
H118 C100 0.928 . S
H119 C102 0.932 . S
C120 C121 1.264 . S
C120 C125 1.479 . S
C120 C130 1.465 . S
C121 C120 1.264 . S
C121 C123 1.339 . S
C121 H148 0.931 . S
C122 C123 1.395 . S
C122 C124 1.320 . S
C123 C121 1.339 . S
C123 C122 1.395 . S
C123 H149 0.929 . S
C124 C122 1.320 . S
C124 C125 1.405 . S
C124 H150 0.930 . S
C125 C120 1.479 . S
C125 C124 1.405 . S
C125 H151 0.931 . S
U126 O127 2.454 . S
U126 O128 2.458 . S
U126 C129 2.984 . S
U126 C130 2.847 . S
U126 C143 2.882 . S
U126 O144 2.441 . S
U126 O145 2.420 . S
U126 O146 2.455 . S
U126 O147 2.449 . S
O127 U126 2.454 . S
O127 C129 1.353 . S
O128 U126 2.458 . S
O128 C129 1.286 . S
C129 U126 2.984 . S
C129 O127 1.353 . S
C129 O128 1.286 . S
C129 C131 1.363 . S
C130 C120 1.465 . S
C130 U126 2.847 . S
C130 O144 1.249 . S
C130 O145 1.202 . S
C131 C129 1.363 . S
C131 C133 1.408 . S
C131 C136 1.342 . S
C132 C133 1.310 . S
C132 C135 1.461 . S
C132 H152 0.932 . S
C133 C131 1.408 . S
C133 C132 1.310 . S
C133 H153 0.930 . S
C134 C135 1.474 . S
C134 C136 1.285 . S
C134 H154 0.929 1_655 S
C135 C132 1.461 . S
C135 C134 1.474 . S
C136 C131 1.342 . S
C136 C134 1.285 . S
C136 H155 0.930 . S
C137 C140 1.424 1_455 S
C137 C142 1.245 . S
C137 C143 1.428 1_455 S
C138 C141 1.260 . S
C138 C142 1.477 . S
C138 H156 0.932 . S
C139 C140 1.384 1_455 S
C139 C141 1.479 . S
C139 H157 0.941 . S
C140 C137 1.424 1_655 S
C140 C139 1.384 1_655 S
C140 H158 0.928 . S
C141 C138 1.260 . S
C141 C139 1.479 . S
C142 C137 1.245 . S
C142 C138 1.477 . S
C142 H159 0.932 . S
C143 U126 2.882 . S
C143 C137 1.428 1_655 S
C143 O146 1.301 . S
C143 O147 1.282 . S
O144 U126 2.441 . S
O144 C130 1.249 . S
O145 U126 2.420 . S
O145 C130 1.202 . S
O146 U126 2.455 . S
O146 C143 1.301 . S
O147 U126 2.449 . S
O147 C143 1.282 . S
H148 C121 0.931 . S
H149 C123 0.929 . S
H150 C124 0.930 . S
H151 C125 0.931 . S
H152 C132 0.932 . S
H153 C133 0.930 . S
H154 C134 0.929 1_455 S
H155 C136 0.930 . S
H156 C138 0.932 . S
H157 C139 0.941 . S
H158 C140 0.928 . S
H159 C142 0.932 . S
C160 C161 1.264 . S
C160 C165 1.479 1_545 S
C160 C170 1.465 . S
C161 C160 1.264 . S
C161 C163 1.339 1_545 S
C161 H188 0.931 . S
C162 C163 1.395 . S
C162 C164 1.320 . S
C163 C161 1.339 1_565 S
C163 C162 1.395 . S
C163 H189 0.937 . S
C164 C162 1.320 . S
C164 C165 1.405 . S
C164 H190 0.930 . S
C165 C160 1.479 1_565 S
C165 C164 1.405 . S
C165 H191 0.931 . S
U166 O167 2.454 . S
U166 O168 2.458 . S
U166 C169 2.984 . S
U166 C170 2.847 . S
U166 C183 2.882 . S
U166 O184 2.441 . S
U166 O185 2.420 . S
U166 O186 2.455 . S
U166 O187 2.449 . S
O167 U166 2.454 . S
O167 C169 1.353 . S
O168 U166 2.458 . S
O168 C169 1.286 . S
C169 U166 2.984 . S
C169 O167 1.353 . S
C169 O168 1.286 . S
C169 C171 1.363 . S
C170 C160 1.465 . S
C170 U166 2.847 . S
C170 O184 1.249 . S
C170 O185 1.202 . S
C171 C169 1.363 . S
C171 C173 1.408 . S
C171 C176 1.342 . S
C172 C173 1.310 . S
C172 C175 1.461 . S
C172 H192 0.932 1_545 S
C173 C171 1.408 . S
C173 C172 1.310 . S
C173 H193 0.930 . S
C174 C175 1.474 . S
C174 C176 1.285 . S
C174 H194 0.929 . S
C175 C172 1.461 . S
C175 C174 1.474 . S
C176 C171 1.342 . S
C176 C174 1.285 . S
C176 H195 0.930 . S
C177 C180 1.424 . S
C177 C182 1.245 . S
C177 C183 1.428 . S
C178 C181 1.260 . S
C178 C182 1.477 . S
C178 H196 0.932 . S
C179 C180 1.384 . S
C179 C181 1.479 . S
C179 H197 0.929 . S
C180 C177 1.424 . S
C180 C179 1.384 . S
C180 H198 0.928 . S
C181 C178 1.260 . S
C181 C179 1.479 . S
C182 C177 1.245 . S
C182 C178 1.477 . S
C182 H199 0.932 . S
C183 U166 2.882 . S
C183 C177 1.428 . S
C183 O186 1.301 . S
C183 O187 1.282 . S
O184 U166 2.441 . S
O184 C170 1.249 . S
O185 U166 2.420 . S
O185 C170 1.202 . S
O186 U166 2.455 . S
O186 C183 1.301 . S
O187 U166 2.449 . S
O187 C183 1.282 . S
H188 C161 0.931 . S
H189 C163 0.937 . S
H190 C164 0.930 . S
H191 C165 0.931 . S
H192 C172 0.932 1_565 S
H193 C173 0.930 . S
H194 C174 0.929 . S
H195 C176 0.930 . S
H196 C178 0.932 . S
H197 C179 0.929 . S
H198 C180 0.928 . S
H199 C182 0.932 . S
C200 C201 1.264 . S
C200 C205 1.479 . S
C200 C210 1.465 . S
C201 C200 1.264 . S
C201 C203 1.339 . S
C201 H228 0.931 . S
C202 C203 1.395 . S
C202 C204 1.320 . S
C203 C201 1.339 . S
C203 C202 1.395 . S
C203 H229 0.929 . S
C204 C202 1.320 . S
C204 C205 1.405 . S
C204 H230 0.930 . S
C205 C200 1.479 . S
C205 C204 1.405 . S
C205 H231 0.931 . S
U206 O207 2.454 . S
U206 O208 2.458 . S
U206 C209 2.984 . S
U206 C210 2.847 . S
U206 C223 2.882 . S
U206 O224 2.441 . S
U206 O225 2.420 . S
U206 O226 2.455 . S
U206 O227 2.449 . S
O207 U206 2.454 . S
O207 C209 1.353 . S
O208 U206 2.458 . S
O208 C209 1.286 . S
C209 U206 2.984 . S
C209 O207 1.353 . S
C209 O208 1.286 . S
C209 C211 1.363 . S
C210 C200 1.465 . S
C210 U206 2.847 . S
C210 O224 1.249 . S
C210 O225 1.202 . S
C211 C209 1.363 . S
C211 C213 1.408 . S
C211 C216 1.342 . S
C212 C213 1.310 . S
C212 C215 1.461 . S
C212 H232 0.932 . S
C213 C211 1.408 . S
C213 C212 1.310 . S
C213 H233 0.930 . S
C214 C215 1.474 . S
C214 C216 1.285 . S
C214 H234 0.929 . S
C215 C212 1.461 . S
C215 C214 1.474 . S
C216 C211 1.342 . S
C216 C214 1.285 . S
C216 H235 0.930 . S
C217 C220 1.424 . S
C217 C222 1.245 . S
C217 C223 1.428 . S
C218 C221 1.260 . S
C218 C222 1.477 . S
C218 H236 0.932 . S
C219 C220 1.384 . S
C219 C221 1.479 . S
C219 H237 0.929 . S
C220 C217 1.424 . S
C220 C219 1.384 . S
C220 H238 0.928 . S
C221 C218 1.260 . S
C221 C219 1.479 . S
C222 C217 1.245 . S
C222 C218 1.477 . S
C222 H239 0.932 . S
C223 U206 2.882 . S
C223 C217 1.428 . S
C223 O226 1.301 . S
C223 O227 1.282 . S
O224 U206 2.441 . S
O224 C210 1.249 . S
O225 U206 2.420 . S
O225 C210 1.202 . S
O226 U206 2.455 . S
O226 C223 1.301 . S
O227 U206 2.449 . S
O227 C223 1.282 . S
H228 C201 0.931 . S
H229 C203 0.929 . S
H230 C204 0.930 . S
H231 C205 0.931 . S
H232 C212 0.932 . S
H233 C213 0.930 . S
H234 C214 0.929 . S
H235 C216 0.930 . S
H236 C218 0.932 . S
H237 C219 0.929 . S
H238 C220 0.928 . S
H239 C222 0.932 . S
C240 C241 1.264 . S
C240 C245 1.479 1_565 S
C240 C250 1.465 . S
C241 C240 1.264 . S
C241 C243 1.339 1_565 S
C241 H268 0.931 . S
C242 C243 1.395 . S
C242 C244 1.320 . S
C243 C241 1.339 1_545 S
C243 C242 1.395 . S
C243 H269 0.937 . S
C244 C242 1.320 . S
C244 C245 1.405 . S
C244 H270 0.930 . S
C245 C240 1.479 1_545 S
C245 C244 1.405 . S
C245 H271 0.931 . S
U246 O247 2.454 . S
U246 O248 2.458 . S
U246 C249 2.984 . S
U246 C250 2.847 . S
U246 C263 2.882 . S
U246 O264 2.441 . S
U246 O265 2.420 . S
U246 O266 2.455 . S
U246 O267 2.449 . S
O247 U246 2.454 . S
O247 C249 1.353 . S
O248 U246 2.458 . S
O248 C249 1.286 . S
C249 U246 2.984 . S
C249 O247 1.353 . S
C249 O248 1.286 . S
C249 C251 1.363 . S
C250 C240 1.465 . S
C250 U246 2.847 . S
C250 O264 1.249 . S
C250 O265 1.202 . S
C251 C249 1.363 . S
C251 C253 1.408 . S
C251 C256 1.342 . S
C252 C253 1.310 . S
C252 C255 1.461 . S
C252 H272 0.932 1_565 S
C253 C251 1.408 . S
C253 C252 1.310 . S
C253 H273 0.930 . S
C254 C255 1.474 . S
C254 C256 1.285 . S
C254 H274 0.929 . S
C255 C252 1.461 . S
C255 C254 1.474 . S
C256 C251 1.342 . S
C256 C254 1.285 . S
C256 H275 0.930 . S
C257 C260 1.424 . S
C257 C262 1.245 . S
C257 C263 1.428 . S
C258 C261 1.260 . S
C258 C262 1.477 . S
C258 H276 0.932 . S
C259 C260 1.384 . S
C259 C261 1.479 . S
C259 H277 0.929 . S
C260 C257 1.424 . S
C260 C259 1.384 . S
C260 H278 0.928 . S
C261 C258 1.260 . S
C261 C259 1.479 . S
C262 C257 1.245 . S
C262 C258 1.477 . S
C262 H279 0.932 . S
C263 U246 2.882 . S
C263 C257 1.428 . S
C263 O266 1.301 . S
C263 O267 1.282 . S
O264 U246 2.441 . S
O264 C250 1.249 . S
O265 U246 2.420 . S
O265 C250 1.202 . S
O266 U246 2.455 . S
O266 C263 1.301 . S
O267 U246 2.449 . S
O267 C263 1.282 . S
H268 C241 0.931 . S
H269 C243 0.937 . S
H270 C244 0.930 . S
H271 C245 0.931 . S
H272 C252 0.932 1_545 S
H273 C253 0.930 . S
H274 C254 0.929 . S
H275 C256 0.930 . S
H276 C258 0.932 . S
H277 C259 0.929 . S
H278 C260 0.928 . S
H279 C262 0.932 . S
C280 C281 1.264 . S
C280 C285 1.479 . S
C280 C290 1.465 . S
C281 C280 1.264 . S
C281 C283 1.339 . S
C281 H308 0.931 . S
C282 C283 1.395 . S
C282 C284 1.320 . S
C283 C281 1.339 . S
C283 C282 1.395 . S
C283 H309 0.929 . S
C284 C282 1.320 . S
C284 C285 1.405 . S
C284 H310 0.930 . S
C285 C280 1.479 . S
C285 C284 1.405 . S
C285 H311 0.931 . S
U286 O287 2.454 . S
U286 O288 2.458 . S
U286 C289 2.984 . S
U286 C290 2.847 . S
U286 C303 2.882 . S
U286 O304 2.441 . S
U286 O305 2.420 . S
U286 O306 2.455 . S
U286 O307 2.449 . S
O287 U286 2.454 . S
O287 C289 1.353 . S
O288 U286 2.458 . S
O288 C289 1.286 . S
C289 U286 2.984 . S
C289 O287 1.353 . S
C289 O288 1.286 . S
C289 C291 1.363 . S
C290 C280 1.465 . S
C290 U286 2.847 . S
C290 O304 1.249 . S
C290 O305 1.202 . S
C291 C289 1.363 . S
C291 C293 1.408 . S
C291 C296 1.342 . S
C292 C293 1.310 . S
C292 C295 1.461 . S
C292 H312 0.932 . S
C293 C291 1.408 . S
C293 C292 1.310 . S
C293 H313 0.930 . S
C294 C295 1.474 . S
C294 C296 1.285 . S
C294 H314 0.929 . S
C295 C292 1.461 . S
C295 C294 1.474 . S
C296 C291 1.342 . S
C296 C294 1.285 . S
C296 H315 0.930 . S
C297 C300 1.424 . S
C297 C302 1.245 . S
C297 C303 1.428 . S
C298 C301 1.260 . S
C298 C302 1.477 . S
C298 H316 0.932 . S
C299 C300 1.384 . S
C299 C301 1.479 . S
C299 H317 0.929 . S
C300 C297 1.424 . S
C300 C299 1.384 . S
C300 H318 0.928 . S
C301 C298 1.260 . S
C301 C299 1.479 . S
C302 C297 1.245 . S
C302 C298 1.477 . S
C302 H319 0.932 . S
C303 U286 2.882 . S
C303 C297 1.428 . S
C303 O306 1.301 . S
C303 O307 1.282 . S
O304 U286 2.441 . S
O304 C290 1.249 . S
O305 U286 2.420 . S
O305 C290 1.202 . S
O306 U286 2.455 . S
O306 C303 1.301 . S
O307 U286 2.449 . S
O307 C303 1.282 . S
H308 C281 0.931 . S
H309 C283 0.929 . S
H310 C284 0.930 . S
H311 C285 0.931 . S
H312 C292 0.932 . S
H313 C293 0.930 . S
H314 C294 0.929 . S
H315 C296 0.930 . S
H316 C298 0.932 . S
H317 C299 0.929 . S
H318 C300 0.928 . S
H319 C302 0.932 . S
C320 C321 1.264 . S
C320 C325 1.479 . S
C320 C330 1.465 . S
C321 C320 1.264 . S
C321 C323 1.339 . S
C321 H348 0.931 . S
C322 C323 1.395 . S
C322 C324 1.320 . S
C323 C321 1.339 . S
C323 C322 1.395 . S
C323 H349 0.929 . S
C324 C322 1.320 . S
C324 C325 1.405 . S
C324 H350 0.930 . S
C325 C320 1.479 . S
C325 C324 1.405 . S
C325 H351 0.931 . S
U326 O327 2.454 . S
U326 O328 2.458 . S
U326 C329 2.984 . S
U326 C330 2.847 . S
U326 C343 2.882 . S
U326 O344 2.441 . S
U326 O345 2.420 . S
U326 O346 2.455 . S
U326 O347 2.449 . S
O327 U326 2.454 . S
O327 C329 1.353 . S
O328 U326 2.458 . S
O328 C329 1.286 . S
C329 U326 2.984 . S
C329 O327 1.353 . S
C329 O328 1.286 . S
C329 C331 1.363 . S
C330 C320 1.465 . S
C330 U326 2.847 . S
C330 O344 1.249 . S
C330 O345 1.202 . S
C331 C329 1.363 . S
C331 C333 1.408 . S
C331 C336 1.342 . S
C332 C333 1.310 . S
C332 C335 1.461 . S
C332 H352 0.932 . S
C333 C331 1.408 . S
C333 C332 1.310 . S
C333 H353 0.930 . S
C334 C335 1.474 . S
C334 C336 1.285 . S
C334 H354 0.943 . S
C335 C332 1.461 . S
C335 C334 1.474 . S
C336 C331 1.342 . S
C336 C334 1.285 . S
C336 H355 0.930 . S
C337 C340 1.428 . S
C337 C342 1.237 1_554 S
C337 C343 1.434 . S
C338 C341 1.260 . S
C338 C342 1.477 . S
C338 H356 0.932 . S
C339 C340 1.384 1_556 S
C339 C341 1.479 . S
C339 H357 0.923 1_556 S
C340 C337 1.428 . S
C340 C339 1.384 1_554 S
C340 H358 0.928 . S
C341 C338 1.260 . S
C341 C339 1.479 . S
C342 C337 1.237 1_556 S
C342 C338 1.477 . S
C342 H359 0.932 . S
C343 U326 2.882 . S
C343 C337 1.434 . S
C343 O346 1.301 . S
C343 O347 1.282 . S
O344 U326 2.441 . S
O344 C330 1.249 . S
O345 U326 2.420 . S
O345 C330 1.202 . S
O346 U326 2.455 . S
O346 C343 1.301 . S
O347 U326 2.449 . S
O347 C343 1.282 . S
H348 C321 0.931 . S
H349 C323 0.929 . S
H350 C324 0.930 . S
H351 C325 0.931 . S
H352 C332 0.932 . S
H353 C333 0.930 . S
H354 C334 0.943 . S
H355 C336 0.930 . S
H356 C338 0.932 . S
H357 C339 0.923 1_554 S
H358 C340 0.928 . S
H359 C342 0.932 . S
C360 C361 1.264 . S
C360 C365 1.479 . S
C360 C370 1.465 . S
C361 C360 1.264 . S
C361 C363 1.339 . S
C361 H388 0.931 . S
C362 C363 1.395 . S
C362 C364 1.320 . S
C363 C361 1.339 . S
C363 C362 1.395 . S
C363 H389 0.929 . S
C364 C362 1.320 . S
C364 C365 1.405 . S
C364 H390 0.930 . S
C365 C360 1.479 . S
C365 C364 1.405 . S
C365 H391 0.931 . S
U366 O367 2.454 . S
U366 O368 2.458 . S
U366 C369 2.984 . S
U366 C370 2.847 . S
U366 C383 2.882 . S
U366 O384 2.441 . S
U366 O385 2.420 . S
U366 O386 2.455 . S
U366 O387 2.449 . S
O367 U366 2.454 . S
O367 C369 1.353 . S
O368 U366 2.458 . S
O368 C369 1.286 . S
C369 U366 2.984 . S
C369 O367 1.353 . S
C369 O368 1.286 . S
C369 C371 1.363 . S
C370 C360 1.465 . S
C370 U366 2.847 . S
C370 O384 1.249 . S
C370 O385 1.202 . S
C371 C369 1.363 . S
C371 C373 1.408 . S
C371 C376 1.342 . S
C372 C373 1.310 . S
C372 C375 1.461 . S
C372 H392 0.932 . S
C373 C371 1.408 . S
C373 C372 1.310 . S
C373 H393 0.930 . S
C374 C375 1.474 . S
C374 C376 1.285 . S
C374 H394 0.929 . S
C375 C372 1.461 . S
C375 C374 1.474 . S
C376 C371 1.342 . S
C376 C374 1.285 . S
C376 H395 0.930 . S
C377 C380 1.424 . S
C377 C382 1.245 . S
C377 C383 1.428 . S
C378 C381 1.260 . S
C378 C382 1.477 . S
C378 H396 0.932 . S
C379 C380 1.384 . S
C379 C381 1.479 . S
C379 H397 0.929 . S
C380 C377 1.424 . S
C380 C379 1.384 . S
C380 H398 0.928 . S
C381 C378 1.260 . S
C381 C379 1.479 . S
C382 C377 1.245 . S
C382 C378 1.477 . S
C382 H399 0.932 . S
C383 U366 2.882 . S
C383 C377 1.428 . S
C383 O386 1.301 . S
C383 O387 1.282 . S
O384 U366 2.441 . S
O384 C370 1.249 . S
O385 U366 2.420 . S
O385 C370 1.202 . S
O386 U366 2.455 . S
O386 C383 1.301 . S
O387 U366 2.449 . S
O387 C383 1.282 . S
H388 C361 0.931 . S
H389 C363 0.929 . S
H390 C364 0.930 . S
H391 C365 0.931 . S
H392 C372 0.932 . S
H393 C373 0.930 . S
H394 C374 0.929 . S
H395 C376 0.930 . S
H396 C378 0.932 . S
H397 C379 0.929 . S
H398 C380 0.928 . S
H399 C382 0.932 . S
C400 C401 1.264 . S
C400 C405 1.479 . S
C400 C410 1.465 . S
C401 C400 1.264 . S
C401 C403 1.339 . S
C401 H428 0.931 . S
C402 C403 1.395 . S
C402 C404 1.320 . S
C403 C401 1.339 . S
C403 C402 1.395 . S
C403 H429 0.929 . S
C404 C402 1.320 . S
C404 C405 1.405 . S
C404 H430 0.930 . S
C405 C400 1.479 . S
C405 C404 1.405 . S
C405 H431 0.931 . S
U406 O407 2.454 . S
U406 O408 2.458 . S
U406 C409 2.984 . S
U406 C410 2.847 . S
U406 C423 2.882 . S
U406 O424 2.441 . S
U406 O425 2.420 . S
U406 O426 2.455 . S
U406 O427 2.449 . S
O407 U406 2.454 . S
O407 C409 1.353 . S
O408 U406 2.458 . S
O408 C409 1.286 . S
C409 U406 2.984 . S
C409 O407 1.353 . S
C409 O408 1.286 . S
C409 C411 1.363 . S
C410 C400 1.465 . S
C410 U406 2.847 . S
C410 O424 1.249 . S
C410 O425 1.202 . S
C411 C409 1.363 . S
C411 C413 1.408 . S
C411 C416 1.342 . S
C412 C413 1.310 . S
C412 C415 1.461 . S
C412 H432 0.932 . S
C413 C411 1.408 . S
C413 C412 1.310 . S
C413 H433 0.930 . S
C414 C415 1.474 . S
C414 C416 1.285 . S
C414 H434 0.929 . S
C415 C412 1.461 . S
C415 C414 1.474 . S
C416 C411 1.342 . S
C416 C414 1.285 . S
C416 H435 0.930 . S
C417 C420 1.424 . S
C417 C422 1.245 . S
C417 C423 1.428 . S
C418 C421 1.260 . S
C418 C422 1.477 . S
C418 H436 0.932 . S
C419 C420 1.384 . S
C419 C421 1.479 . S
C419 H437 0.929 . S
C420 C417 1.424 . S
C420 C419 1.384 . S
C420 H438 0.928 . S
C421 C418 1.260 . S
C421 C419 1.479 . S
C422 C417 1.245 . S
C422 C418 1.477 . S
C422 H439 0.932 . S
C423 U406 2.882 . S
C423 C417 1.428 . S
C423 O426 1.301 . S
C423 O427 1.282 . S
O424 U406 2.441 . S
O424 C410 1.249 . S
O425 U406 2.420 . S
O425 C410 1.202 . S
O426 U406 2.455 . S
O426 C423 1.301 . S
O427 U406 2.449 . S
O427 C423 1.282 . S
H428 C401 0.931 . S
H429 C403 0.929 . S
H430 C404 0.930 . S
H431 C405 0.931 . S
H432 C412 0.932 . S
H433 C413 0.930 . S
H434 C414 0.929 . S
H435 C416 0.930 . S
H436 C418 0.932 . S
H437 C419 0.929 . S
H438 C420 0.928 . S
H439 C422 0.932 . S
C440 C441 1.264 . S
C440 C445 1.479 . S
C440 C450 1.465 . S
C441 C440 1.264 . S
C441 C443 1.339 . S
C441 H468 0.931 . S
C442 C443 1.395 . S
C442 C444 1.320 . S
C443 C441 1.339 . S
C443 C442 1.395 . S
C443 H469 0.929 . S
C444 C442 1.320 . S
C444 C445 1.405 . S
C444 H470 0.930 . S
C445 C440 1.479 . S
C445 C444 1.405 . S
C445 H471 0.931 . S
U446 O447 2.454 . S
U446 O448 2.458 . S
U446 C449 2.984 . S
U446 C450 2.847 . S
U446 C463 2.882 . S
U446 O464 2.441 . S
U446 O465 2.420 . S
U446 O466 2.455 . S
U446 O467 2.449 . S
O447 U446 2.454 . S
O447 C449 1.353 . S
O448 U446 2.458 . S
O448 C449 1.286 . S
C449 U446 2.984 . S
C449 O447 1.353 . S
C449 O448 1.286 . S
C449 C451 1.363 . S
C450 C440 1.465 . S
C450 U446 2.847 . S
C450 O464 1.249 . S
C450 O465 1.202 . S
C451 C449 1.363 . S
C451 C453 1.408 . S
C451 C456 1.342 . S
C452 C453 1.310 . S
C452 C455 1.461 . S
C452 H472 0.932 . S
C453 C451 1.408 . S
C453 C452 1.310 . S
C453 H473 0.930 . S
C454 C455 1.474 . S
C454 C456 1.285 . S
C454 H474 0.929 . S
C455 C452 1.461 . S
C455 C454 1.474 . S
C456 C451 1.342 . S
C456 C454 1.285 . S
C456 H475 0.930 . S
C457 C460 1.424 . S
C457 C462 1.245 . S
C457 C463 1.428 . S
C458 C461 1.260 . S
C458 C462 1.477 . S
C458 H476 0.932 . S
C459 C460 1.384 . S
C459 C461 1.479 . S
C459 H477 0.929 . S
C460 C457 1.424 . S
C460 C459 1.384 . S
C460 H478 0.928 . S
C461 C458 1.260 . S
C461 C459 1.479 . S
C462 C457 1.245 . S
C462 C458 1.477 . S
C462 H479 0.932 . S
C463 U446 2.882 . S
C463 C457 1.428 . S
C463 O466 1.301 . S
C463 O467 1.282 . S
O464 U446 2.441 . S
O464 C450 1.249 . S
O465 U446 2.420 . S
O465 C450 1.202 . S
O466 U446 2.455 . S
O466 C463 1.301 . S
O467 U446 2.449 . S
O467 C463 1.282 . S
H468 C441 0.931 . S
H469 C443 0.929 . S
H470 C444 0.930 . S
H471 C445 0.931 . S
H472 C452 0.932 . S
H473 C453 0.930 . S
H474 C454 0.929 . S
H475 C456 0.930 . S
H476 C458 0.932 . S
H477 C459 0.929 . S
H478 C460 0.928 . S
H479 C462 0.932 . S
C480 C481 1.264 . S
C480 C485 1.479 . S
C480 C490 1.465 . S
C481 C480 1.264 . S
C481 C483 1.339 . S
C481 H508 0.931 . S
C482 C483 1.395 . S
C482 C484 1.320 . S
C483 C481 1.339 . S
C483 C482 1.395 . S
C483 H509 0.929 . S
C484 C482 1.320 . S
C484 C485 1.405 . S
C484 H510 0.930 . S
C485 C480 1.479 . S
C485 C484 1.405 . S
C485 H511 0.931 . S
U486 O487 2.454 . S
U486 O488 2.458 . S
U486 C489 2.984 . S
U486 C490 2.847 . S
U486 C503 2.882 . S
U486 O504 2.441 . S
U486 O505 2.420 . S
U486 O506 2.455 . S
U486 O507 2.449 . S
O487 U486 2.454 . S
O487 C489 1.353 . S
O488 U486 2.458 . S
O488 C489 1.286 . S
C489 U486 2.984 . S
C489 O487 1.353 . S
C489 O488 1.286 . S
C489 C491 1.363 . S
C490 C480 1.465 . S
C490 U486 2.847 . S
C490 O504 1.249 . S
C490 O505 1.202 . S
C491 C489 1.363 . S
C491 C493 1.408 . S
C491 C496 1.342 . S
C492 C493 1.310 . S
C492 C495 1.461 . S
C492 H512 0.932 . S
C493 C491 1.408 . S
C493 C492 1.310 . S
C493 H513 0.930 . S
C494 C495 1.474 . S
C494 C496 1.285 . S
C494 H514 0.929 1_655 S
C495 C492 1.461 . S
C495 C494 1.474 . S
C496 C491 1.342 . S
C496 C494 1.285 . S
C496 H515 0.930 . S
C497 C500 1.424 . S
C497 C502 1.245 1_655 S
C497 C503 1.428 . S
C498 C501 1.260 . S
C498 C502 1.477 . S
C498 H516 0.932 . S
C499 C500 1.384 . S
C499 C501 1.479 1_655 S
C499 H517 0.929 . S
C500 C497 1.424 . S
C500 C499 1.384 . S
C500 H518 0.928 . S
C501 C498 1.260 . S
C501 C499 1.479 1_455 S
C502 C497 1.245 1_455 S
C502 C498 1.477 . S
C502 H519 0.932 . S
C503 U486 2.882 . S
C503 C497 1.428 . S
C503 O506 1.301 . S
C503 O507 1.282 . S
O504 U486 2.441 . S
O504 C490 1.249 . S
O505 U486 2.420 . S
O505 C490 1.202 . S
O506 U486 2.455 . S
O506 C503 1.301 . S
O507 U486 2.449 . S
O507 C503 1.282 . S
H508 C481 0.931 . S
H509 C483 0.929 . S
H510 C484 0.930 . S
H511 C485 0.931 . S
H512 C492 0.932 . S
H513 C493 0.930 . S
H514 C494 0.929 1_455 S
H515 C496 0.930 . S
H516 C498 0.932 . S
H517 C499 0.929 . S
H518 C500 0.928 . S
H519 C502 0.932 . S
C520 C521 1.254 1_655 S
C520 C525 1.516 . S
C520 C530 1.444 1_655 S
C521 C520 1.254 1_455 S
C521 C523 1.339 1_455 S
C521 H548 0.931 . S
C522 C523 1.395 . S
C522 C524 1.320 . S
C523 C521 1.339 1_655 S
C523 C522 1.395 . S
C523 H549 0.929 . S
C524 C522 1.320 . S
C524 C525 1.405 . S
C524 H550 0.930 . S
C525 C520 1.516 . S
C525 C524 1.405 . S
C525 H551 0.931 . S
U526 O527 2.454 . S
U526 O528 2.458 . S
U526 C529 2.984 . S
U526 C530 2.847 . S
U526 C543 2.882 . S
U526 O544 2.441 . S
U526 O545 2.420 . S
U526 O546 2.455 . S
U526 O547 2.449 . S
O527 U526 2.454 . S
O527 C529 1.353 . S
O528 U526 2.458 . S
O528 C529 1.286 . S
C529 U526 2.984 . S
C529 O527 1.353 . S
C529 O528 1.286 . S
C529 C531 1.363 . S
C530 C520 1.444 1_455 S
C530 U526 2.847 . S
C530 O544 1.249 . S
C530 O545 1.202 . S
C531 C529 1.363 . S
C531 C533 1.408 . S
C531 C536 1.342 . S
C532 C533 1.310 . S
C532 C535 1.461 . S
C532 H552 0.932 1_455 S
C533 C531 1.408 . S
C533 C532 1.310 . S
C533 H553 0.930 . S
C534 C535 1.474 . S
C534 C536 1.285 . S
C534 H554 0.929 . S
C535 C532 1.461 . S
C535 C534 1.474 . S
C536 C531 1.342 . S
C536 C534 1.285 . S
C536 H555 0.930 . S
C537 C540 1.424 . S
C537 C542 1.245 . S
C537 C543 1.428 . S
C538 C541 1.260 . S
C538 C542 1.477 . S
C538 H556 0.932 . S
C539 C540 1.384 . S
C539 C541 1.479 . S
C539 H557 0.929 . S
C540 C537 1.424 . S
C540 C539 1.384 . S
C540 H558 0.928 . S
C541 C538 1.260 . S
C541 C539 1.479 . S
C542 C537 1.245 . S
C542 C538 1.477 . S
C542 H559 0.932 . S
C543 U526 2.882 . S
C543 C537 1.428 . S
C543 O546 1.301 . S
C543 O547 1.282 . S
O544 U526 2.441 . S
O544 C530 1.249 . S
O545 U526 2.420 . S
O545 C530 1.202 . S
O546 U526 2.455 . S
O546 C543 1.301 . S
O547 U526 2.449 . S
O547 C543 1.282 . S
H548 C521 0.931 . S
H549 C523 0.929 . S
H550 C524 0.930 . S
H551 C525 0.931 . S
H552 C532 0.932 1_655 S
H553 C533 0.930 . S
H554 C534 0.929 . S
H555 C536 0.930 . S
H556 C538 0.932 . S
H557 C539 0.929 . S
H558 C540 0.928 . S
H559 C542 0.932 . S
C560 C561 1.264 . S
C560 C565 1.479 . S
C560 C570 1.465 . S
C561 C560 1.264 . S
C561 C563 1.339 . S
C561 H588 0.931 . S
C562 C563 1.395 . S
C562 C564 1.320 . S
C563 C561 1.339 . S
C563 C562 1.395 . S
C563 H589 0.929 . S
C564 C562 1.320 . S
C564 C565 1.405 . S
C564 H590 0.930 . S
C565 C560 1.479 . S
C565 C564 1.405 . S
C565 H591 0.931 . S
U566 O567 2.454 . S
U566 O568 2.458 . S
U566 C569 2.984 . S
U566 C570 2.847 . S
U566 C583 2.882 . S
U566 O584 2.441 . S
U566 O585 2.420 . S
U566 O586 2.455 . S
U566 O587 2.449 . S
O567 U566 2.454 . S
O567 C569 1.353 . S
O568 U566 2.458 . S
O568 C569 1.286 . S
C569 U566 2.984 . S
C569 O567 1.353 . S
C569 O568 1.286 . S
C569 C571 1.363 . S
C570 C560 1.465 . S
C570 U566 2.847 . S
C570 O584 1.249 . S
C570 O585 1.202 . S
C571 C569 1.363 . S
C571 C573 1.408 . S
C571 C576 1.342 . S
C572 C573 1.310 . S
C572 C575 1.461 . S
C572 H592 0.932 . S
C573 C571 1.408 . S
C573 C572 1.310 . S
C573 H593 0.930 . S
C574 C575 1.474 . S
C574 C576 1.285 . S
C574 H594 0.929 1_655 S
C575 C572 1.461 . S
C575 C574 1.474 . S
C576 C571 1.342 . S
C576 C574 1.285 . S
C576 H595 0.930 . S
C577 C580 1.424 . S
C577 C582 1.245 1_655 S
C577 C583 1.428 . S
C578 C581 1.260 . S
C578 C582 1.477 . S
C578 H596 0.932 . S
C579 C580 1.384 . S
C579 C581 1.479 1_655 S
C579 H597 0.929 . S
C580 C577 1.424 . S
C580 C579 1.384 . S
C580 H598 0.928 . S
C581 C578 1.260 . S
C581 C579 1.479 1_455 S
C582 C577 1.245 1_455 S
C582 C578 1.477 . S
C582 H599 0.932 . S
C583 U566 2.882 . S
C583 C577 1.428 . S
C583 O586 1.301 . S
C583 O587 1.282 . S
O584 U566 2.441 . S
O584 C570 1.249 . S
O585 U566 2.420 . S
O585 C570 1.202 . S
O586 U566 2.455 . S
O586 C583 1.301 . S
O587 U566 2.449 . S
O587 C583 1.282 . S
H588 C561 0.931 . S
H589 C563 0.929 . S
H590 C564 0.930 . S
H591 C565 0.931 . S
H592 C572 0.932 . S
H593 C573 0.930 . S
H594 C574 0.929 1_455 S
H595 C576 0.930 . S
H596 C578 0.932 . S
H597 C579 0.929 . S
H598 C580 0.928 . S
H599 C582 0.932 . S
C600 C601 1.254 1_655 S
C600 C605 1.516 . S
C600 C610 1.444 1_655 S
C601 C600 1.254 1_455 S
C601 C603 1.339 1_455 S
C601 H628 0.931 . S
C602 C603 1.395 . S
C602 C604 1.320 . S
C603 C601 1.339 1_655 S
C603 C602 1.395 . S
C603 H629 0.929 . S
C604 C602 1.320 . S
C604 C605 1.405 . S
C604 H630 0.930 . S
C605 C600 1.516 . S
C605 C604 1.405 . S
C605 H631 0.931 . S
U606 O607 2.454 . S
U606 O608 2.458 . S
U606 C609 2.984 . S
U606 C610 2.847 . S
U606 C623 2.882 . S
U606 O624 2.441 . S
U606 O625 2.420 . S
U606 O626 2.455 . S
U606 O627 2.449 . S
O607 U606 2.454 . S
O607 C609 1.353 . S
O608 U606 2.458 . S
O608 C609 1.286 . S
C609 U606 2.984 . S
C609 O607 1.353 . S
C609 O608 1.286 . S
C609 C611 1.363 . S
C610 C600 1.444 1_455 S
C610 U606 2.847 . S
C610 O624 1.249 . S
C610 O625 1.202 . S
C611 C609 1.363 . S
C611 C613 1.408 . S
C611 C616 1.342 . S
C612 C613 1.310 . S
C612 C615 1.461 . S
C612 H632 0.932 1_455 S
C613 C611 1.408 . S
C613 C612 1.310 . S
C613 H633 0.930 . S
C614 C615 1.474 . S
C614 C616 1.285 . S
C614 H634 0.929 . S
C615 C612 1.461 . S
C615 C614 1.474 . S
C616 C611 1.342 . S
C616 C614 1.285 . S
C616 H635 0.930 . S
C617 C620 1.424 . S
C617 C622 1.245 . S
C617 C623 1.428 . S
C618 C621 1.260 . S
C618 C622 1.477 . S
C618 H636 0.932 . S
C619 C620 1.384 . S
C619 C621 1.479 . S
C619 H637 0.929 . S
C620 C617 1.424 . S
C620 C619 1.384 . S
C620 H638 0.928 . S
C621 C618 1.260 . S
C621 C619 1.479 . S
C622 C617 1.245 . S
C622 C618 1.477 . S
C622 H639 0.932 . S
C623 U606 2.882 . S
C623 C617 1.428 . S
C623 O626 1.301 . S
C623 O627 1.282 . S
O624 U606 2.441 . S
O624 C610 1.249 . S
O625 U606 2.420 . S
O625 C610 1.202 . S
O626 U606 2.455 . S
O626 C623 1.301 . S
O627 U606 2.449 . S
O627 C623 1.282 . S
H628 C601 0.931 . S
H629 C603 0.929 . S
H630 C604 0.930 . S
H631 C605 0.931 . S
H632 C612 0.932 1_655 S
H633 C613 0.930 . S
H634 C614 0.929 . S
H635 C616 0.930 . S
H636 C618 0.932 . S
H637 C619 0.929 . S
H638 C620 0.928 . S
H639 C622 0.932 . S
C640 C641 1.264 . S
C640 C645 1.479 . S
C640 C650 1.465 . S
C641 C640 1.264 . S
C641 C643 1.339 . S
C641 H668 0.931 . S
C642 C643 1.395 . S
C642 C644 1.320 . S
C643 C641 1.339 . S
C643 C642 1.395 . S
C643 H669 0.929 . S
C644 C642 1.320 . S
C644 C645 1.405 . S
C644 H670 0.930 . S
C645 C640 1.479 . S
C645 C644 1.405 . S
C645 H671 0.931 . S
U646 O647 2.454 . S
U646 O648 2.458 . S
U646 C649 2.984 . S
U646 C650 2.847 . S
U646 C663 2.882 . S
U646 O664 2.441 . S
U646 O665 2.420 . S
U646 O666 2.455 . S
U646 O667 2.449 . S
O647 U646 2.454 . S
O647 C649 1.353 . S
O648 U646 2.458 . S
O648 C649 1.286 . S
C649 U646 2.984 . S
C649 O647 1.353 . S
C649 O648 1.286 . S
C649 C651 1.363 . S
C650 C640 1.465 . S
C650 U646 2.847 . S
C650 O664 1.249 . S
C650 O665 1.202 . S
C651 C649 1.363 . S
C651 C653 1.408 . S
C651 C656 1.342 . S
C652 C653 1.310 . S
C652 C655 1.461 . S
C652 H672 0.932 . S
C653 C651 1.408 . S
C653 C652 1.310 . S
C653 H673 0.930 . S
C654 C655 1.474 . S
C654 C656 1.285 . S
C654 H674 0.929 1_565 S
C655 C652 1.461 . S
C655 C654 1.474 . S
C656 C651 1.342 . S
C656 C654 1.285 . S
C656 H675 0.930 . S
C657 C660 1.424 . S
C657 C662 1.245 1_565 S
C657 C663 1.428 . S
C658 C661 1.260 . S
C658 C662 1.477 . S
C658 H676 0.932 . S
C659 C660 1.384 . S
C659 C661 1.479 1_565 S
C659 H677 0.929 . S
C660 C657 1.424 . S
C660 C659 1.384 . S
C660 H678 0.928 . S
C661 C658 1.260 . S
C661 C659 1.479 1_545 S
C662 C657 1.245 1_545 S
C662 C658 1.477 . S
C662 H679 0.932 . S
C663 U646 2.882 . S
C663 C657 1.428 . S
C663 O666 1.301 . S
C663 O667 1.282 . S
O664 U646 2.441 . S
O664 C650 1.249 . S
O665 U646 2.420 . S
O665 C650 1.202 . S
O666 U646 2.455 . S
O666 C663 1.301 . S
O667 U646 2.449 . S
O667 C663 1.282 . S
H668 C641 0.931 . S
H669 C643 0.929 . S
H670 C644 0.930 . S
H671 C645 0.931 . S
H672 C652 0.932 . S
H673 C653 0.930 . S
H674 C654 0.929 1_545 S
H675 C656 0.930 . S
H676 C658 0.932 . S
H677 C659 0.929 . S
H678 C660 0.928 . S
H679 C662 0.932 . S
C680 C681 1.264 . S
C680 C685 1.479 . S
C680 C690 1.465 . S
C681 C680 1.264 . S
C681 C683 1.339 . S
C681 H708 0.931 . S
C682 C683 1.395 . S
C682 C684 1.320 . S
C683 C681 1.339 . S
C683 C682 1.395 . S
C683 H709 0.929 . S
C684 C682 1.320 . S
C684 C685 1.405 . S
C684 H710 0.930 . S
C685 C680 1.479 . S
C685 C684 1.405 . S
C685 H711 0.931 . S
U686 O687 2.454 . S
U686 O688 2.458 . S
U686 C689 2.984 . S
U686 C690 2.847 . S
U686 C703 2.882 . S
U686 O704 2.441 . S
U686 O705 2.420 . S
U686 O706 2.455 . S
U686 O707 2.449 . S
O687 U686 2.454 . S
O687 C689 1.353 . S
O688 U686 2.458 . S
O688 C689 1.286 . S
C689 U686 2.984 . S
C689 O687 1.353 . S
C689 O688 1.286 . S
C689 C691 1.363 . S
C690 C680 1.465 . S
C690 U686 2.847 . S
C690 O704 1.249 . S
C690 O705 1.202 . S
C691 C689 1.363 . S
C691 C693 1.408 . S
C691 C696 1.342 . S
C692 C693 1.310 . S
C692 C695 1.461 . S
C692 H712 0.932 . S
C693 C691 1.408 . S
C693 C692 1.310 . S
C693 H713 0.930 . S
C694 C695 1.474 . S
C694 C696 1.285 . S
C694 H714 0.929 . S
C695 C692 1.461 . S
C695 C694 1.474 . S
C696 C691 1.342 . S
C696 C694 1.285 . S
C696 H715 0.930 . S
C697 C700 1.424 . S
C697 C702 1.245 . S
C697 C703 1.428 . S
C698 C701 1.260 . S
C698 C702 1.477 . S
C698 H716 0.932 . S
C699 C700 1.384 . S
C699 C701 1.479 . S
C699 H717 0.929 . S
C700 C697 1.424 . S
C700 C699 1.384 . S
C700 H718 0.928 . S
C701 C698 1.260 . S
C701 C699 1.479 . S
C702 C697 1.245 . S
C702 C698 1.477 . S
C702 H719 0.932 . S
C703 U686 2.882 . S
C703 C697 1.428 . S
C703 O706 1.301 . S
C703 O707 1.282 . S
O704 U686 2.441 . S
O704 C690 1.249 . S
O705 U686 2.420 . S
O705 C690 1.202 . S
O706 U686 2.455 . S
O706 C703 1.301 . S
O707 U686 2.449 . S
O707 C703 1.282 . S
H708 C681 0.931 . S
H709 C683 0.929 . S
H710 C684 0.930 . S
H711 C685 0.931 . S
H712 C692 0.932 . S
H713 C693 0.930 . S
H714 C694 0.929 . S
H715 C696 0.930 . S
H716 C698 0.932 . S
H717 C699 0.929 . S
H718 C700 0.928 . S
H719 C702 0.932 . S
C720 C721 1.264 . S
C720 C725 1.479 . S
C720 C730 1.465 . S
C721 C720 1.264 . S
C721 C723 1.339 . S
C721 H748 0.931 . S
C722 C723 1.395 . S
C722 C724 1.320 . S
C723 C721 1.339 . S
C723 C722 1.395 . S
C723 H749 0.929 . S
C724 C722 1.320 . S
C724 C725 1.405 . S
C724 H750 0.930 . S
C725 C720 1.479 . S
C725 C724 1.405 . S
C725 H751 0.931 . S
U726 O727 2.454 . S
U726 O728 2.458 . S
U726 C729 2.984 . S
U726 C730 2.847 . S
U726 C743 2.882 . S
U726 O744 2.441 . S
U726 O745 2.420 . S
U726 O746 2.455 . S
U726 O747 2.449 . S
O727 U726 2.454 . S
O727 C729 1.353 . S
O728 U726 2.458 . S
O728 C729 1.286 . S
C729 U726 2.984 . S
C729 O727 1.353 . S
C729 O728 1.286 . S
C729 C731 1.363 . S
C730 C720 1.465 . S
C730 U726 2.847 . S
C730 O744 1.249 . S
C730 O745 1.202 . S
C731 C729 1.363 . S
C731 C733 1.408 . S
C731 C736 1.342 . S
C732 C733 1.310 . S
C732 C735 1.461 . S
C732 H752 0.932 . S
C733 C731 1.408 . S
C733 C732 1.310 . S
C733 H753 0.930 . S
C734 C735 1.474 . S
C734 C736 1.285 . S
C734 H754 0.929 1_545 S
C735 C732 1.461 . S
C735 C734 1.474 . S
C736 C731 1.342 . S
C736 C734 1.285 . S
C736 H755 0.930 . S
C737 C740 1.424 . S
C737 C742 1.245 1_545 S
C737 C743 1.428 . S
C738 C741 1.260 . S
C738 C742 1.477 . S
C738 H756 0.932 . S
C739 C740 1.384 . S
C739 C741 1.479 1_545 S
C739 H757 0.929 . S
C740 C737 1.424 . S
C740 C739 1.384 . S
C740 H758 0.928 . S
C741 C738 1.260 . S
C741 C739 1.479 1_565 S
C742 C737 1.245 1_565 S
C742 C738 1.477 . S
C742 H759 0.932 . S
C743 U726 2.882 . S
C743 C737 1.428 . S
C743 O746 1.301 . S
C743 O747 1.282 . S
O744 U726 2.441 . S
O744 C730 1.249 . S
O745 U726 2.420 . S
O745 C730 1.202 . S
O746 U726 2.455 . S
O746 C743 1.301 . S
O747 U726 2.449 . S
O747 C743 1.282 . S
H748 C721 0.931 . S
H749 C723 0.929 . S
H750 C724 0.930 . S
H751 C725 0.931 . S
H752 C732 0.932 . S
H753 C733 0.930 . S
H754 C734 0.929 1_565 S
H755 C736 0.930 . S
H756 C738 0.932 . S
H757 C739 0.929 . S
H758 C740 0.928 . S
H759 C742 0.932 . S
C760 C761 1.264 . S
C760 C765 1.479 . S
C760 C770 1.465 . S
C761 C760 1.264 . S
C761 C763 1.339 . S
C761 H788 0.931 . S
C762 C763 1.395 . S
C762 C764 1.320 . S
C763 C761 1.339 . S
C763 C762 1.395 . S
C763 H789 0.929 . S
C764 C762 1.320 . S
C764 C765 1.405 . S
C764 H790 0.930 . S
C765 C760 1.479 . S
C765 C764 1.405 . S
C765 H791 0.931 . S
U766 O767 2.454 . S
U766 O768 2.458 . S
U766 C769 2.984 . S
U766 C770 2.847 . S
U766 C783 2.882 . S
U766 O784 2.441 . S
U766 O785 2.420 . S
U766 O786 2.455 . S
U766 O787 2.449 . S
O767 U766 2.454 . S
O767 C769 1.353 . S
O768 U766 2.458 . S
O768 C769 1.286 . S
C769 U766 2.984 . S
C769 O767 1.353 . S
C769 O768 1.286 . S
C769 C771 1.363 . S
C770 C760 1.465 . S
C770 U766 2.847 . S
C770 O784 1.249 . S
C770 O785 1.202 . S
C771 C769 1.363 . S
C771 C773 1.408 . S
C771 C776 1.342 . S
C772 C773 1.310 . S
C772 C775 1.461 . S
C772 H792 0.932 . S
C773 C771 1.408 . S
C773 C772 1.310 . S
C773 H793 0.930 . S
C774 C775 1.474 . S
C774 C776 1.285 . S
C774 H794 0.929 . S
C775 C772 1.461 . S
C775 C774 1.474 . S
C776 C771 1.342 . S
C776 C774 1.285 . S
C776 H795 0.930 . S
C777 C780 1.424 . S
C777 C782 1.245 . S
C777 C783 1.428 . S
C778 C781 1.260 . S
C778 C782 1.477 . S
C778 H796 0.932 . S
C779 C780 1.384 . S
C779 C781 1.479 . S
C779 H797 0.929 . S
C780 C777 1.424 . S
C780 C779 1.384 . S
C780 H798 0.928 . S
C781 C778 1.260 . S
C781 C779 1.479 . S
C782 C777 1.245 . S
C782 C778 1.477 . S
C782 H799 0.932 . S
C783 U766 2.882 . S
C783 C777 1.428 . S
C783 O786 1.301 . S
C783 O787 1.282 . S
O784 U766 2.441 . S
O784 C770 1.249 . S
O785 U766 2.420 . S
O785 C770 1.202 . S
O786 U766 2.455 . S
O786 C783 1.301 . S
O787 U766 2.449 . S
O787 C783 1.282 . S
H788 C761 0.931 . S
H789 C763 0.929 . S
H790 C764 0.930 . S
H791 C765 0.931 . S
H792 C772 0.932 . S
H793 C773 0.930 . S
H794 C774 0.929 . S
H795 C776 0.930 . S
H796 C778 0.932 . S
H797 C779 0.929 . S
H798 C780 0.928 . S
H799 C782 0.932 . S
C800 C801 1.264 . S
C800 C805 1.479 . S
C800 C810 1.465 . S
C801 C800 1.264 . S
C801 C803 1.339 . S
C801 H828 0.931 . S
C802 C803 1.395 . S
C802 C804 1.320 . S
C803 C801 1.339 . S
C803 C802 1.395 . S
C803 H829 0.929 . S
C804 C802 1.320 . S
C804 C805 1.405 . S
C804 H830 0.930 . S
C805 C800 1.479 . S
C805 C804 1.405 . S
C805 H831 0.931 . S
U806 O807 2.454 . S
U806 O808 2.458 . S
U806 C809 2.984 . S
U806 C810 2.847 . S
U806 C823 2.882 . S
U806 O824 2.441 . S
U806 O825 2.420 . S
U806 O826 2.455 . S
U806 O827 2.449 . S
O807 U806 2.454 . S
O807 C809 1.353 . S
O808 U806 2.458 . S
O808 C809 1.286 . S
C809 U806 2.984 . S
C809 O807 1.353 . S
C809 O808 1.286 . S
C809 C811 1.363 . S
C810 C800 1.465 . S
C810 U806 2.847 . S
C810 O824 1.249 . S
C810 O825 1.202 . S
C811 C809 1.363 . S
C811 C813 1.408 . S
C811 C816 1.342 . S
C812 C813 1.310 . S
C812 C815 1.461 . S
C812 H832 0.932 . S
C813 C811 1.408 . S
C813 C812 1.310 . S
C813 H833 0.930 . S
C814 C815 1.474 . S
C814 C816 1.285 . S
C814 H834 0.929 1_556 S
C815 C812 1.461 . S
C815 C814 1.474 . S
C816 C811 1.342 . S
C816 C814 1.285 . S
C816 H835 0.930 . S
C817 C820 1.424 . S
C817 C822 1.245 1_556 S
C817 C823 1.428 . S
C818 C821 1.260 . S
C818 C822 1.477 . S
C818 H836 0.932 . S
C819 C820 1.430 . S
C819 C821 1.413 1_556 S
C819 H837 0.953 . S
C820 C817 1.424 . S
C820 C819 1.430 . S
C820 H838 0.928 . S
C821 C818 1.260 . S
C821 C819 1.413 1_554 S
C822 C817 1.245 1_554 S
C822 C818 1.477 . S
C822 H839 0.932 . S
C823 U806 2.882 . S
C823 C817 1.428 . S
C823 O826 1.301 . S
C823 O827 1.282 . S
O824 U806 2.441 . S
O824 C810 1.249 . S
O825 U806 2.420 . S
O825 C810 1.202 . S
O826 U806 2.455 . S
O826 C823 1.301 . S
O827 U806 2.449 . S
O827 C823 1.282 . S
H828 C801 0.931 . S
H829 C803 0.929 . S
H830 C804 0.930 . S
H831 C805 0.931 . S
H832 C812 0.932 . S
H833 C813 0.930 . S
H834 C814 0.929 1_554 S
H835 C816 0.930 . S
H836 C818 0.932 . S
H837 C819 0.953 . S
H838 C820 0.928 . S
H839 C822 0.932 . S
C840 C841 1.264 . S
C840 C845 1.479 . S
C840 C850 1.465 . S
C841 C840 1.264 . S
C841 C843 1.339 . S
C841 H868 0.931 . S
C842 C843 1.395 . S
C842 C844 1.320 . S
C843 C841 1.339 . S
C843 C842 1.395 . S
C843 H869 0.929 . S
C844 C842 1.320 . S
C844 C845 1.405 . S
C844 H870 0.930 . S
C845 C840 1.479 . S
C845 C844 1.405 . S
C845 H871 0.931 . S
U846 O847 2.454 . S
U846 O848 2.458 . S
U846 C849 2.984 . S
U846 C850 2.847 . S
U846 C863 2.882 . S
U846 O864 2.441 . S
U846 O865 2.420 . S
U846 O866 2.455 . S
U846 O867 2.449 . S
O847 U846 2.454 . S
O847 C849 1.353 . S
O848 U846 2.458 . S
O848 C849 1.286 . S
C849 U846 2.984 . S
C849 O847 1.353 . S
C849 O848 1.286 . S
C849 C851 1.363 . S
C850 C840 1.465 . S
C850 U846 2.847 . S
C850 O864 1.249 . S
C850 O865 1.202 . S
C851 C849 1.363 . S
C851 C853 1.408 . S
C851 C856 1.342 . S
C852 C853 1.310 . S
C852 C855 1.461 . S
C852 H872 0.932 . S
C853 C851 1.408 . S
C853 C852 1.310 . S
C853 H873 0.930 . S
C854 C855 1.474 . S
C854 C856 1.285 . S
C854 H874 0.929 . S
C855 C852 1.461 . S
C855 C854 1.474 . S
C856 C851 1.342 . S
C856 C854 1.285 . S
C856 H875 0.930 . S
C857 C860 1.424 . S
C857 C862 1.245 . S
C857 C863 1.428 . S
C858 C861 1.260 . S
C858 C862 1.477 . S
C858 H876 0.932 . S
C859 C860 1.384 . S
C859 C861 1.479 . S
C859 H877 0.929 . S
C860 C857 1.424 . S
C860 C859 1.384 . S
C860 H878 0.928 . S
C861 C858 1.260 . S
C861 C859 1.479 . S
C862 C857 1.245 . S
C862 C858 1.477 . S
C862 H879 0.932 . S
C863 U846 2.882 . S
C863 C857 1.428 . S
C863 O866 1.301 . S
C863 O867 1.282 . S
O864 U846 2.441 . S
O864 C850 1.249 . S
O865 U846 2.420 . S
O865 C850 1.202 . S
O866 U846 2.455 . S
O866 C863 1.301 . S
O867 U846 2.449 . S
O867 C863 1.282 . S
H868 C841 0.931 . S
H869 C843 0.929 . S
H870 C844 0.930 . S
H871 C845 0.931 . S
H872 C852 0.932 . S
H873 C853 0.930 . S
H874 C854 0.929 . S
H875 C856 0.930 . S
H876 C858 0.932 . S
H877 C859 0.929 . S
H878 C860 0.928 . S
H879 C862 0.932 . S
C880 C881 1.264 . S
C880 C885 1.479 . S
C880 C890 1.465 . S
C881 C880 1.264 . S
C881 C883 1.339 . S
C881 H908 0.931 . S
C882 C883 1.395 . S
C882 C884 1.320 . S
C883 C881 1.339 . S
C883 C882 1.395 . S
C883 H909 0.929 . S
C884 C882 1.320 . S
C884 C885 1.405 . S
C884 H910 0.930 . S
C885 C880 1.479 . S
C885 C884 1.405 . S
C885 H911 0.931 . S
U886 O887 2.454 . S
U886 O888 2.458 . S
U886 C889 2.984 . S
U886 C890 2.847 . S
U886 C903 2.882 . S
U886 O904 2.441 . S
U886 O905 2.420 . S
U886 O906 2.455 . S
U886 O907 2.449 . S
O887 U886 2.454 . S
O887 C889 1.353 . S
O888 U886 2.458 . S
O888 C889 1.286 . S
C889 U886 2.984 . S
C889 O887 1.353 . S
C889 O888 1.286 . S
C889 C891 1.363 . S
C890 C880 1.465 . S
C890 U886 2.847 . S
C890 O904 1.249 . S
C890 O905 1.202 . S
C891 C889 1.363 . S
C891 C893 1.408 . S
C891 C896 1.342 . S
C892 C893 1.310 . S
C892 C895 1.461 . S
C892 H912 0.932 . S
C893 C891 1.408 . S
C893 C892 1.310 . S
C893 H913 0.930 . S
C894 C895 1.474 . S
C894 C896 1.285 . S
C894 H914 0.929 . S
C895 C892 1.461 . S
C895 C894 1.474 . S
C896 C891 1.342 . S
C896 C894 1.285 . S
C896 H915 0.930 . S
C897 C900 1.424 . S
C897 C902 1.245 . S
C897 C903 1.428 . S
C898 C901 1.260 . S
C898 C902 1.477 . S
C898 H916 0.932 . S
C899 C900 1.384 . S
C899 C901 1.479 . S
C899 H917 0.929 . S
C900 C897 1.424 . S
C900 C899 1.384 . S
C900 H918 0.928 . S
C901 C898 1.260 . S
C901 C899 1.479 . S
C902 C897 1.245 . S
C902 C898 1.477 . S
C902 H919 0.932 . S
C903 U886 2.882 . S
C903 C897 1.428 . S
C903 O906 1.301 . S
C903 O907 1.282 . S
O904 U886 2.441 . S
O904 C890 1.249 . S
O905 U886 2.420 . S
O905 C890 1.202 . S
O906 U886 2.455 . S
O906 C903 1.301 . S
O907 U886 2.449 . S
O907 C903 1.282 . S
H908 C881 0.931 . S
H909 C883 0.929 . S
H910 C884 0.930 . S
H911 C885 0.931 . S
H912 C892 0.932 . S
H913 C893 0.930 . S
H914 C894 0.929 . S
H915 C896 0.930 . S
H916 C898 0.932 . S
H917 C899 0.929 . S
H918 C900 0.928 . S
H919 C902 0.932 . S
C920 C921 1.264 . S
C920 C925 1.479 . S
C920 C930 1.465 . S
C921 C920 1.264 . S
C921 C923 1.339 . S
C921 H948 0.931 . S
C922 C923 1.395 . S
C922 C924 1.320 . S
C923 C921 1.339 . S
C923 C922 1.395 . S
C923 H949 0.929 . S
C924 C922 1.320 . S
C924 C925 1.405 . S
C924 H950 0.930 . S
C925 C920 1.479 . S
C925 C924 1.405 . S
C925 H951 0.931 . S
U926 O927 2.454 . S
U926 O928 2.458 . S
U926 C929 2.984 . S
U926 C930 2.847 . S
U926 C943 2.882 . S
U926 O944 2.441 . S
U926 O945 2.420 . S
U926 O946 2.455 . S
U926 O947 2.449 . S
O927 U926 2.454 . S
O927 C929 1.353 . S
O928 U926 2.458 . S
O928 C929 1.286 . S
C929 U926 2.984 . S
C929 O927 1.353 . S
C929 O928 1.286 . S
C929 C931 1.363 . S
C930 C920 1.465 . S
C930 U926 2.847 . S
C930 O944 1.249 . S
C930 O945 1.202 . S
C931 C929 1.363 . S
C931 C933 1.408 . S
C931 C936 1.342 . S
C932 C933 1.310 . S
C932 C935 1.461 . S
C932 H952 0.932 . S
C933 C931 1.408 . S
C933 C932 1.310 . S
C933 H953 0.930 . S
C934 C935 1.474 . S
C934 C936 1.285 . S
C934 H954 0.929 . S
C935 C932 1.461 . S
C935 C934 1.474 . S
C936 C931 1.342 . S
C936 C934 1.285 . S
C936 H955 0.930 . S
C937 C940 1.424 . S
C937 C942 1.245 . S
C937 C943 1.428 . S
C938 C941 1.260 . S
C938 C942 1.477 . S
C938 H956 0.932 . S
C939 C940 1.384 . S
C939 C941 1.479 . S
C939 H957 0.929 . S
C940 C937 1.424 . S
C940 C939 1.384 . S
C940 H958 0.928 . S
C941 C938 1.260 . S
C941 C939 1.479 . S
C942 C937 1.245 . S
C942 C938 1.477 . S
C942 H959 0.932 . S
C943 U926 2.882 . S
C943 C937 1.428 . S
C943 O946 1.301 . S
C943 O947 1.282 . S
O944 U926 2.441 . S
O944 C930 1.249 . S
O945 U926 2.420 . S
O945 C930 1.202 . S
O946 U926 2.455 . S
O946 C943 1.301 . S
O947 U926 2.449 . S
O947 C943 1.282 . S
H948 C921 0.931 . S
H949 C923 0.929 . S
H950 C924 0.930 . S
H951 C925 0.931 . S
H952 C932 0.932 . S
H953 C933 0.930 . S
H954 C934 0.929 . S
H955 C936 0.930 . S
H956 C938 0.932 . S
H957 C939 0.929 . S
H958 C940 0.928 . S
H959 C942 0.932 . S
C960 C961 1.264 . S
C960 C965 1.479 . S
C960 C970 1.465 . S
C961 C960 1.264 . S
C961 C963 1.339 . S
C961 H988 0.931 . S
C962 C963 1.395 . S
C962 C964 1.320 . S
C963 C961 1.339 . S
C963 C962 1.395 . S
C963 H989 0.929 . S
C964 C962 1.320 . S
C964 C965 1.405 . S
C964 H990 0.930 . S
C965 C960 1.479 . S
C965 C964 1.405 . S
C965 H991 0.931 . S
U966 O967 2.454 . S
U966 O968 2.458 . S
U966 C969 2.984 . S
U966 C970 2.847 . S
U966 C983 2.882 . S
U966 O984 2.441 . S
U966 O985 2.420 . S
U966 O986 2.455 . S
U966 O987 2.449 . S
O967 U966 2.454 . S
O967 C969 1.353 . S
O968 U966 2.458 . S
O968 C969 1.286 . S
C969 U966 2.984 . S
C969 O967 1.353 . S
C969 O968 1.286 . S
C969 C971 1.363 . S
C970 C960 1.465 . S
C970 U966 2.847 . S
C970 O984 1.249 . S
C970 O985 1.202 . S
C971 C969 1.363 . S
C971 C973 1.408 . S
C971 C976 1.342 . S
C972 C973 1.310 . S
C972 C975 1.461 . S
C972 H992 0.932 . S
C973 C971 1.408 . S
C973 C972 1.310 . S
C973 H993 0.930 . S
C974 C975 1.474 . S
C974 C976 1.285 . S
C974 H994 0.929 . S
C975 C972 1.461 . S
C975 C974 1.474 . S
C976 C971 1.342 . S
C976 C974 1.285 . S
C976 H995 0.930 . S
C977 C980 1.424 . S
C977 C982 1.245 . S
C977 C983 1.428 . S
C978 C981 1.260 . S
C978 C982 1.477 . S
C978 H996 0.932 . S
C979 C980 1.384 . S
C979 C981 1.479 . S
C979 H997 0.929 . S
C980 C977 1.424 . S
C980 C979 1.384 . S
C980 H998 0.928 . S
C981 C978 1.260 . S
C981 C979 1.479 . S
C982 C977 1.245 . S
C982 C978 1.477 . S
C982 H999 0.932 . S
C983 U966 2.882 . S
C983 C977 1.428 . S
C983 O986 1.301 . S
C983 O987 1.282 . S
O984 U966 2.441 . S
O984 C970 1.249 . S
O985 U966 2.420 . S
O985 C970 1.202 . S
O986 U966 2.455 . S
O986 C983 1.301 . S
O987 U966 2.449 . S
O987 C983 1.282 . S
H988 C961 0.931 . S
H989 C963 0.929 . S
H990 C964 0.930 . S
H991 C965 0.931 . S
H992 C972 0.932 . S
H993 C973 0.930 . S
H994 C974 0.929 . S
H995 C976 0.930 . S
H996 C978 0.932 . S
H997 C979 0.929 . S
H998 C980 0.928 . S
H999 C982 0.932 . S
C1000 C1001 1.264 . S
C1000 C1005 1.479 . S
C1000 C1010 1.465 . S
C1001 C1000 1.264 . S
C1001 C1003 1.339 . S
C1001 H1028 0.931 . S
C1002 C1003 1.395 . S
C1002 C1004 1.320 . S
C1003 C1001 1.339 . S
C1003 C1002 1.395 . S
C1003 H1029 0.929 . S
C1004 C1002 1.320 . S
C1004 C1005 1.405 . S
C1004 H1030 0.930 . S
C1005 C1000 1.479 . S
C1005 C1004 1.405 . S
C1005 H1031 0.931 . S
U1006 O1007 2.454 . S
U1006 O1008 2.458 . S
U1006 C1009 2.984 . S
U1006 C1010 2.847 . S
U1006 C1023 2.882 . S
U1006 O1024 2.441 . S
U1006 O1025 2.420 . S
U1006 O1026 2.455 . S
U1006 O1027 2.449 . S
O1007 U1006 2.454 . S
O1007 C1009 1.353 . S
O1008 U1006 2.458 . S
O1008 C1009 1.286 . S
C1009 U1006 2.984 . S
C1009 O1007 1.353 . S
C1009 O1008 1.286 . S
C1009 C1011 1.363 . S
C1010 C1000 1.465 . S
C1010 U1006 2.847 . S
C1010 O1024 1.249 . S
C1010 O1025 1.202 . S
C1011 C1009 1.363 . S
C1011 C1013 1.408 . S
C1011 C1016 1.342 . S
C1012 C1013 1.310 . S
C1012 C1015 1.461 . S
C1012 H1032 0.932 . S
C1013 C1011 1.408 . S
C1013 C1012 1.310 . S
C1013 H1033 0.930 . S
C1014 C1015 1.474 . S
C1014 C1016 1.285 . S
C1014 H1034 0.929 . S
C1015 C1012 1.461 . S
C1015 C1014 1.474 . S
C1016 C1011 1.342 . S
C1016 C1014 1.285 . S
C1016 H1035 0.930 . S
C1017 C1020 1.424 . S
C1017 C1022 1.245 . S
C1017 C1023 1.428 . S
C1018 C1021 1.260 . S
C1018 C1022 1.477 . S
C1018 H1036 0.932 . S
C1019 C1020 1.384 . S
C1019 C1021 1.479 . S
C1019 H1037 0.929 . S
C1020 C1017 1.424 . S
C1020 C1019 1.384 . S
C1020 H1038 0.928 . S
C1021 C1018 1.260 . S
C1021 C1019 1.479 . S
C1022 C1017 1.245 . S
C1022 C1018 1.477 . S
C1022 H1039 0.932 . S
C1023 U1006 2.882 . S
C1023 C1017 1.428 . S
C1023 O1026 1.301 . S
C1023 O1027 1.282 . S
O1024 U1006 2.441 . S
O1024 C1010 1.249 . S
O1025 U1006 2.420 . S
O1025 C1010 1.202 . S
O1026 U1006 2.455 . S
O1026 C1023 1.301 . S
O1027 U1006 2.449 . S
O1027 C1023 1.282 . S
H1028 C1001 0.931 . S
H1029 C1003 0.929 . S
H1030 C1004 0.930 . S
H1031 C1005 0.931 . S
H1032 C1012 0.932 . S
H1033 C1013 0.930 . S
H1034 C1014 0.929 . S
H1035 C1016 0.930 . S
H1036 C1018 0.932 . S
H1037 C1019 0.929 . S
H1038 C1020 0.928 . S
H1039 C1022 0.932 . S
C1040 C1041 1.264 . S
C1040 C1045 1.479 . S
C1040 C1050 1.465 . S
C1041 C1040 1.264 . S
C1041 C1043 1.339 . S
C1041 H1068 0.931 . S
C1042 C1043 1.395 . S
C1042 C1044 1.320 . S
C1043 C1041 1.339 . S
C1043 C1042 1.395 . S
C1043 H1069 0.929 . S
C1044 C1042 1.320 . S
C1044 C1045 1.405 . S
C1044 H1070 0.930 . S
C1045 C1040 1.479 . S
C1045 C1044 1.405 . S
C1045 H1071 0.931 . S
U1046 O1047 2.454 . S
U1046 O1048 2.458 . S
U1046 C1049 2.984 . S
U1046 C1050 2.847 . S
U1046 C1063 2.882 . S
U1046 O1064 2.441 . S
U1046 O1065 2.420 . S
U1046 O1066 2.455 . S
U1046 O1067 2.449 . S
O1047 U1046 2.454 . S
O1047 C1049 1.353 . S
O1048 U1046 2.458 . S
O1048 C1049 1.286 . S
C1049 U1046 2.984 . S
C1049 O1047 1.353 . S
C1049 O1048 1.286 . S
C1049 C1051 1.363 . S
C1050 C1040 1.465 . S
C1050 U1046 2.847 . S
C1050 O1064 1.249 . S
C1050 O1065 1.202 . S
C1051 C1049 1.363 . S
C1051 C1053 1.408 . S
C1051 C1056 1.342 . S
C1052 C1053 1.310 . S
C1052 C1055 1.461 . S
C1052 H1072 0.932 . S
C1053 C1051 1.408 . S
C1053 C1052 1.310 . S
C1053 H1073 0.930 . S
C1054 C1055 1.474 . S
C1054 C1056 1.285 . S
C1054 H1074 0.929 . S
C1055 C1052 1.461 . S
C1055 C1054 1.474 . S
C1056 C1051 1.342 . S
C1056 C1054 1.285 . S
C1056 H1075 0.930 . S
C1057 C1060 1.424 . S
C1057 C1062 1.245 . S
C1057 C1063 1.428 . S
C1058 C1061 1.260 . S
C1058 C1062 1.477 . S
C1058 H1076 0.932 . S
C1059 C1060 1.384 . S
C1059 C1061 1.479 . S
C1059 H1077 0.929 . S
C1060 C1057 1.424 . S
C1060 C1059 1.384 . S
C1060 H1078 0.928 . S
C1061 C1058 1.260 . S
C1061 C1059 1.479 . S
C1062 C1057 1.245 . S
C1062 C1058 1.477 . S
C1062 H1079 0.932 . S
C1063 U1046 2.882 . S
C1063 C1057 1.428 . S
C1063 O1066 1.301 . S
C1063 O1067 1.282 . S
O1064 U1046 2.441 . S
O1064 C1050 1.249 . S
O1065 U1046 2.420 . S
O1065 C1050 1.202 . S
O1066 U1046 2.455 . S
O1066 C1063 1.301 . S
O1067 U1046 2.449 . S
O1067 C1063 1.282 . S
H1068 C1041 0.931 . S
H1069 C1043 0.929 . S
H1070 C1044 0.930 . S
H1071 C1045 0.931 . S
H1072 C1052 0.932 . S
H1073 C1053 0.930 . S
H1074 C1054 0.929 . S
H1075 C1056 0.930 . S
H1076 C1058 0.932 . S
H1077 C1059 0.929 . S
H1078 C1060 0.928 . S
H1079 C1062 0.932 . S
C1080 C1081 1.264 . S
C1080 C1085 1.479 . S
C1080 C1090 1.465 . S
C1081 C1080 1.264 . S
C1081 C1083 1.339 . S
C1081 H1108 0.931 . S
C1082 C1083 1.395 . S
C1082 C1084 1.320 . S
C1083 C1081 1.339 . S
C1083 C1082 1.395 . S
C1083 H1109 0.929 . S
C1084 C1082 1.320 . S
C1084 C1085 1.405 . S
C1084 H1110 0.930 . S
C1085 C1080 1.479 . S
C1085 C1084 1.405 . S
C1085 H1111 0.931 . S
U1086 O1087 2.454 . S
U1086 O1088 2.458 . S
U1086 C1089 2.984 . S
U1086 C1090 2.847 . S
U1086 C1103 2.882 . S
U1086 O1104 2.441 . S
U1086 O1105 2.420 . S
U1086 O1106 2.455 . S
U1086 O1107 2.449 . S
O1087 U1086 2.454 . S
O1087 C1089 1.353 . S
O1088 U1086 2.458 . S
O1088 C1089 1.286 . S
C1089 U1086 2.984 . S
C1089 O1087 1.353 . S
C1089 O1088 1.286 . S
C1089 C1091 1.363 . S
C1090 C1080 1.465 . S
C1090 U1086 2.847 . S
C1090 O1104 1.249 . S
C1090 O1105 1.202 . S
C1091 C1089 1.363 . S
C1091 C1093 1.408 . S
C1091 C1096 1.342 . S
C1092 C1093 1.310 . S
C1092 C1095 1.461 . S
C1092 H1112 0.932 . S
C1093 C1091 1.408 . S
C1093 C1092 1.310 . S
C1093 H1113 0.930 . S
C1094 C1095 1.474 . S
C1094 C1096 1.285 . S
C1094 H1114 0.929 . S
C1095 C1092 1.461 . S
C1095 C1094 1.474 . S
C1096 C1091 1.342 . S
C1096 C1094 1.285 . S
C1096 H1115 0.930 . S
C1097 C1100 1.424 . S
C1097 C1102 1.245 . S
C1097 C1103 1.428 . S
C1098 C1101 1.260 . S
C1098 C1102 1.477 . S
C1098 H1116 0.932 . S
C1099 C1100 1.384 . S
C1099 C1101 1.479 . S
C1099 H1117 0.929 . S
C1100 C1097 1.424 . S
C1100 C1099 1.384 . S
C1100 H1118 0.928 . S
C1101 C1098 1.260 . S
C1101 C1099 1.479 . S
C1102 C1097 1.245 . S
C1102 C1098 1.477 . S
C1102 H1119 0.932 . S
C1103 U1086 2.882 . S
C1103 C1097 1.428 . S
C1103 O1106 1.301 . S
C1103 O1107 1.282 . S
O1104 U1086 2.441 . S
O1104 C1090 1.249 . S
O1105 U1086 2.420 . S
O1105 C1090 1.202 . S
O1106 U1086 2.455 . S
O1106 C1103 1.301 . S
O1107 U1086 2.449 . S
O1107 C1103 1.282 . S
H1108 C1081 0.931 . S
H1109 C1083 0.929 . S
H1110 C1084 0.930 . S
H1111 C1085 0.931 . S
H1112 C1092 0.932 . S
H1113 C1093 0.930 . S
H1114 C1094 0.929 . S
H1115 C1096 0.930 . S
H1116 C1098 0.932 . S
H1117 C1099 0.929 . S
H1118 C1100 0.928 . S
H1119 C1102 0.932 . S
C1120 C1121 1.264 . S
C1120 C1125 1.479 . S
C1120 C1130 1.465 . S
C1121 C1120 1.264 . S
C1121 C1123 1.339 . S
C1121 H1148 0.931 . S
C1122 C1123 1.395 . S
C1122 C1124 1.320 . S
C1123 C1121 1.339 . S
C1123 C1122 1.395 . S
C1123 H1149 0.929 . S
C1124 C1122 1.320 . S
C1124 C1125 1.405 . S
C1124 H1150 0.930 . S
C1125 C1120 1.479 . S
C1125 C1124 1.405 . S
C1125 H1151 0.931 . S
U1126 O1127 2.454 . S
U1126 O1128 2.458 . S
U1126 C1129 2.984 . S
U1126 C1130 2.847 . S
U1126 C1143 2.882 . S
U1126 O1144 2.441 . S
U1126 O1145 2.420 . S
U1126 O1146 2.455 . S
U1126 O1147 2.449 . S
O1127 U1126 2.454 . S
O1127 C1129 1.353 . S
O1128 U1126 2.458 . S
O1128 C1129 1.286 . S
C1129 U1126 2.984 . S
C1129 O1127 1.353 . S
C1129 O1128 1.286 . S
C1129 C1131 1.363 . S
C1130 C1120 1.465 . S
C1130 U1126 2.847 . S
C1130 O1144 1.249 . S
C1130 O1145 1.202 . S
C1131 C1129 1.363 . S
C1131 C1133 1.408 . S
C1131 C1136 1.342 . S
C1132 C1133 1.310 . S
C1132 C1135 1.461 . S
C1132 H1152 0.932 . S
C1133 C1131 1.408 . S
C1133 C1132 1.310 . S
C1133 H1153 0.930 . S
C1134 C1135 1.474 . S
C1134 C1136 1.285 . S
C1134 H1154 0.929 . S
C1135 C1132 1.461 . S
C1135 C1134 1.474 . S
C1136 C1131 1.342 . S
C1136 C1134 1.285 . S
C1136 H1155 0.930 . S
C1137 C1140 1.424 . S
C1137 C1142 1.245 . S
C1137 C1143 1.428 . S
C1138 C1141 1.260 . S
C1138 C1142 1.477 . S
C1138 H1156 0.932 . S
C1139 C1140 1.384 . S
C1139 C1141 1.479 . S
C1139 H1157 0.929 . S
C1140 C1137 1.424 . S
C1140 C1139 1.384 . S
C1140 H1158 0.928 . S
C1141 C1138 1.260 . S
C1141 C1139 1.479 . S
C1142 C1137 1.245 . S
C1142 C1138 1.477 . S
C1142 H1159 0.932 . S
C1143 U1126 2.882 . S
C1143 C1137 1.428 . S
C1143 O1146 1.301 . S
C1143 O1147 1.282 . S
O1144 U1126 2.441 . S
O1144 C1130 1.249 . S
O1145 U1126 2.420 . S
O1145 C1130 1.202 . S
O1146 U1126 2.455 . S
O1146 C1143 1.301 . S
O1147 U1126 2.449 . S
O1147 C1143 1.282 . S
H1148 C1121 0.931 . S
H1149 C1123 0.929 . S
H1150 C1124 0.930 . S
H1151 C1125 0.931 . S
H1152 C1132 0.932 . S
H1153 C1133 0.930 . S
H1154 C1134 0.929 . S
H1155 C1136 0.930 . S
H1156 C1138 0.932 . S
H1157 C1139 0.929 . S
H1158 C1140 0.928 . S
H1159 C1142 0.932 . S
C1160 C1161 1.264 . S
C1160 C1165 1.479 . S
C1160 C1170 1.465 . S
C1161 C1160 1.264 . S
C1161 C1163 1.339 . S
C1161 H1188 0.931 . S
C1162 C1163 1.395 . S
C1162 C1164 1.320 . S
C1163 C1161 1.339 . S
C1163 C1162 1.395 . S
C1163 H1189 0.929 . S
C1164 C1162 1.320 . S
C1164 C1165 1.405 . S
C1164 H1190 0.930 . S
C1165 C1160 1.479 . S
C1165 C1164 1.405 . S
C1165 H1191 0.931 . S
U1166 O1167 2.454 . S
U1166 O1168 2.458 . S
U1166 C1169 2.984 . S
U1166 C1170 2.847 . S
U1166 C1183 2.882 . S
U1166 O1184 2.441 . S
U1166 O1185 2.420 . S
U1166 O1186 2.455 . S
U1166 O1187 2.449 . S
O1167 U1166 2.454 . S
O1167 C1169 1.353 . S
O1168 U1166 2.458 . S
O1168 C1169 1.286 . S
C1169 U1166 2.984 . S
C1169 O1167 1.353 . S
C1169 O1168 1.286 . S
C1169 C1171 1.363 . S
C1170 C1160 1.465 . S
C1170 U1166 2.847 . S
C1170 O1184 1.249 . S
C1170 O1185 1.202 . S
C1171 C1169 1.363 . S
C1171 C1173 1.408 . S
C1171 C1176 1.342 . S
C1172 C1173 1.310 . S
C1172 C1175 1.461 . S
C1172 H1192 0.932 . S
C1173 C1171 1.408 . S
C1173 C1172 1.310 . S
C1173 H1193 0.930 . S
C1174 C1175 1.474 . S
C1174 C1176 1.285 . S
C1174 H1194 0.929 1_565 S
C1175 C1172 1.461 . S
C1175 C1174 1.474 . S
C1176 C1171 1.342 . S
C1176 C1174 1.285 . S
C1176 H1195 0.930 . S
C1177 C1180 1.424 1_545 S
C1177 C1182 1.245 . S
C1177 C1183 1.428 1_545 S
C1178 C1181 1.260 . S
C1178 C1182 1.477 . S
C1178 H1196 0.932 . S
C1179 C1180 1.384 1_545 S
C1179 C1181 1.479 . S
C1179 H1197 0.948 . S
C1180 C1177 1.424 1_565 S
C1180 C1179 1.384 1_565 S
C1180 H1198 0.928 . S
C1181 C1178 1.260 . S
C1181 C1179 1.479 . S
C1182 C1177 1.245 . S
C1182 C1178 1.477 . S
C1182 H1199 0.932 . S
C1183 U1166 2.882 . S
C1183 C1177 1.428 1_565 S
C1183 O1186 1.301 . S
C1183 O1187 1.282 . S
O1184 U1166 2.441 . S
O1184 C1170 1.249 . S
O1185 U1166 2.420 . S
O1185 C1170 1.202 . S
O1186 U1166 2.455 . S
O1186 C1183 1.301 . S
O1187 U1166 2.449 . S
O1187 C1183 1.282 . S
H1188 C1161 0.931 . S
H1189 C1163 0.929 . S
H1190 C1164 0.930 . S
H1191 C1165 0.931 . S
H1192 C1172 0.932 . S
H1193 C1173 0.930 . S
H1194 C1174 0.929 1_545 S
H1195 C1176 0.930 . S
H1196 C1178 0.932 . S
H1197 C1179 0.948 . S
H1198 C1180 0.928 . S
H1199 C1182 0.932 . S
C1200 C1201 1.264 . S
C1200 C1205 1.479 . S
C1200 C1210 1.465 . S
C1201 C1200 1.264 . S
C1201 C1203 1.339 . S
C1201 H1228 0.931 . S
C1202 C1203 1.395 . S
C1202 C1204 1.320 . S
C1203 C1201 1.339 . S
C1203 C1202 1.395 . S
C1203 H1229 0.929 . S
C1204 C1202 1.320 . S
C1204 C1205 1.405 . S
C1204 H1230 0.930 . S
C1205 C1200 1.479 . S
C1205 C1204 1.405 . S
C1205 H1231 0.931 . S
U1206 O1207 2.454 . S
U1206 O1208 2.458 . S
U1206 C1209 2.984 . S
U1206 C1210 2.847 . S
U1206 C1223 2.882 . S
U1206 O1224 2.441 . S
U1206 O1225 2.420 . S
U1206 O1226 2.455 . S
U1206 O1227 2.449 . S
O1207 U1206 2.454 . S
O1207 C1209 1.353 . S
O1208 U1206 2.458 . S
O1208 C1209 1.286 . S
C1209 U1206 2.984 . S
C1209 O1207 1.353 . S
C1209 O1208 1.286 . S
C1209 C1211 1.363 . S
C1210 C1200 1.465 . S
C1210 U1206 2.847 . S
C1210 O1224 1.249 . S
C1210 O1225 1.202 . S
C1211 C1209 1.363 . S
C1211 C1213 1.408 . S
C1211 C1216 1.342 . S
C1212 C1213 1.310 . S
C1212 C1215 1.461 . S
C1212 H1232 0.932 . S
C1213 C1211 1.408 . S
C1213 C1212 1.310 . S
C1213 H1233 0.930 . S
C1214 C1215 1.474 . S
C1214 C1216 1.285 . S
C1214 H1234 0.929 . S
C1215 C1212 1.461 . S
C1215 C1214 1.474 . S
C1216 C1211 1.342 . S
C1216 C1214 1.285 . S
C1216 H1235 0.930 . S
C1217 C1220 1.424 . S
C1217 C1222 1.245 . S
C1217 C1223 1.428 . S
C1218 C1221 1.260 . S
C1218 C1222 1.477 . S
C1218 H1236 0.932 . S
C1219 C1220 1.384 . S
C1219 C1221 1.479 . S
C1219 H1237 0.929 . S
C1220 C1217 1.424 . S
C1220 C1219 1.384 . S
C1220 H1238 0.928 . S
C1221 C1218 1.260 . S
C1221 C1219 1.479 . S
C1222 C1217 1.245 . S
C1222 C1218 1.477 . S
C1222 H1239 0.932 . S
C1223 U1206 2.882 . S
C1223 C1217 1.428 . S
C1223 O1226 1.301 . S
C1223 O1227 1.282 . S
O1224 U1206 2.441 . S
O1224 C1210 1.249 . S
O1225 U1206 2.420 . S
O1225 C1210 1.202 . S
O1226 U1206 2.455 . S
O1226 C1223 1.301 . S
O1227 U1206 2.449 . S
O1227 C1223 1.282 . S
H1228 C1201 0.931 . S
H1229 C1203 0.929 . S
H1230 C1204 0.930 . S
H1231 C1205 0.931 . S
H1232 C1212 0.932 . S
H1233 C1213 0.930 . S
H1234 C1214 0.929 . S
H1235 C1216 0.930 . S
H1236 C1218 0.932 . S
H1237 C1219 0.929 . S
H1238 C1220 0.928 . S
H1239 C1222 0.932 . S
C1240 C1241 1.264 . S
C1240 C1245 1.479 . S
C1240 C1250 1.465 . S
C1241 C1240 1.264 . S
C1241 C1243 1.339 . S
C1241 H1268 0.931 . S
C1242 C1243 1.395 . S
C1242 C1244 1.320 . S
C1243 C1241 1.339 . S
C1243 C1242 1.395 . S
C1243 H1269 0.929 . S
C1244 C1242 1.320 . S
C1244 C1245 1.405 . S
C1244 H1270 0.930 . S
C1245 C1240 1.479 . S
C1245 C1244 1.405 . S
C1245 H1271 0.931 . S
U1246 O1247 2.454 . S
U1246 O1248 2.458 . S
U1246 C1249 2.984 . S
U1246 C1250 2.847 . S
U1246 C1263 2.882 . S
U1246 O1264 2.441 . S
U1246 O1265 2.420 . S
U1246 O1266 2.455 . S
U1246 O1267 2.449 . S
O1247 U1246 2.454 . S
O1247 C1249 1.353 . S
O1248 U1246 2.458 . S
O1248 C1249 1.286 . S
C1249 U1246 2.984 . S
C1249 O1247 1.353 . S
C1249 O1248 1.286 . S
C1249 C1251 1.363 . S
C1250 C1240 1.465 . S
C1250 U1246 2.847 . S
C1250 O1264 1.249 . S
C1250 O1265 1.202 . S
C1251 C1249 1.363 . S
C1251 C1253 1.408 . S
C1251 C1256 1.342 . S
C1252 C1253 1.310 . S
C1252 C1255 1.461 . S
C1252 H1272 0.932 . S
C1253 C1251 1.408 . S
C1253 C1252 1.310 . S
C1253 H1273 0.930 . S
C1254 C1255 1.474 . S
C1254 C1256 1.285 . S
C1254 H1274 0.929 1_545 S
C1255 C1252 1.461 . S
C1255 C1254 1.474 . S
C1256 C1251 1.342 . S
C1256 C1254 1.285 . S
C1256 H1275 0.930 . S
C1257 C1260 1.424 1_565 S
C1257 C1262 1.245 . S
C1257 C1263 1.428 1_565 S
C1258 C1261 1.260 . S
C1258 C1262 1.477 . S
C1258 H1276 0.932 . S
C1259 C1260 1.384 1_565 S
C1259 C1261 1.479 . S
C1259 H1277 0.948 . S
C1260 C1257 1.424 1_545 S
C1260 C1259 1.384 1_545 S
C1260 H1278 0.928 . S
C1261 C1258 1.260 . S
C1261 C1259 1.479 . S
C1262 C1257 1.245 . S
C1262 C1258 1.477 . S
C1262 H1279 0.932 . S
C1263 U1246 2.882 . S
C1263 C1257 1.428 1_545 S
C1263 O1266 1.301 . S
C1263 O1267 1.282 . S
O1264 U1246 2.441 . S
O1264 C1250 1.249 . S
O1265 U1246 2.420 . S
O1265 C1250 1.202 . S
O1266 U1246 2.455 . S
O1266 C1263 1.301 . S
O1267 U1246 2.449 . S
O1267 C1263 1.282 . S
H1268 C1241 0.931 . S
H1269 C1243 0.929 . S
H1270 C1244 0.930 . S
H1271 C1245 0.931 . S
H1272 C1252 0.932 . S
H1273 C1253 0.930 . S
H1274 C1254 0.929 1_565 S
H1275 C1256 0.930 . S
H1276 C1258 0.932 . S
H1277 C1259 0.948 . S
H1278 C1260 0.928 . S
H1279 C1262 0.932 . S
C1280 C1281 1.264 . S
C1280 C1285 1.479 . S
C1280 C1290 1.465 . S
C1281 C1280 1.264 . S
C1281 C1283 1.339 . S
C1281 H1308 0.931 . S
C1282 C1283 1.395 . S
C1282 C1284 1.320 . S
C1283 C1281 1.339 . S
C1283 C1282 1.395 . S
C1283 H1309 0.929 . S
C1284 C1282 1.320 . S
C1284 C1285 1.405 . S
C1284 H1310 0.930 . S
C1285 C1280 1.479 . S
C1285 C1284 1.405 . S
C1285 H1311 0.931 . S
U1286 O1287 2.454 . S
U1286 O1288 2.458 . S
U1286 C1289 2.984 . S
U1286 C1290 2.847 . S
U1286 C1303 2.882 . S
U1286 O1304 2.441 . S
U1286 O1305 2.420 . S
U1286 O1306 2.455 . S
U1286 O1307 2.449 . S
O1287 U1286 2.454 . S
O1287 C1289 1.353 . S
O1288 U1286 2.458 . S
O1288 C1289 1.286 . S
C1289 U1286 2.984 . S
C1289 O1287 1.353 . S
C1289 O1288 1.286 . S
C1289 C1291 1.363 . S
C1290 C1280 1.465 . S
C1290 U1286 2.847 . S
C1290 O1304 1.249 . S
C1290 O1305 1.202 . S
C1291 C1289 1.363 . S
C1291 C1293 1.408 . S
C1291 C1296 1.342 . S
C1292 C1293 1.310 . S
C1292 C1295 1.461 . S
C1292 H1312 0.932 . S
C1293 C1291 1.408 . S
C1293 C1292 1.310 . S
C1293 H1313 0.930 . S
C1294 C1295 1.474 . S
C1294 C1296 1.285 . S
C1294 H1314 0.929 . S
C1295 C1292 1.461 . S
C1295 C1294 1.474 . S
C1296 C1291 1.342 . S
C1296 C1294 1.285 . S
C1296 H1315 0.930 . S
C1297 C1300 1.424 . S
C1297 C1302 1.245 . S
C1297 C1303 1.428 . S
C1298 C1301 1.260 . S
C1298 C1302 1.477 . S
C1298 H1316 0.932 . S
C1299 C1300 1.384 . S
C1299 C1301 1.479 . S
C1299 H1317 0.929 . S
C1300 C1297 1.424 . S
C1300 C1299 1.384 . S
C1300 H1318 0.928 . S
C1301 C1298 1.260 . S
C1301 C1299 1.479 . S
C1302 C1297 1.245 . S
C1302 C1298 1.477 . S
C1302 H1319 0.932 . S
C1303 U1286 2.882 . S
C1303 C1297 1.428 . S
C1303 O1306 1.301 . S
C1303 O1307 1.282 . S
O1304 U1286 2.441 . S
O1304 C1290 1.249 . S
O1305 U1286 2.420 . S
O1305 C1290 1.202 . S
O1306 U1286 2.455 . S
O1306 C1303 1.301 . S
O1307 U1286 2.449 . S
O1307 C1303 1.282 . S
H1308 C1281 0.931 . S
H1309 C1283 0.929 . S
H1310 C1284 0.930 . S
H1311 C1285 0.931 . S
H1312 C1292 0.932 . S
H1313 C1293 0.930 . S
H1314 C1294 0.929 . S
H1315 C1296 0.930 . S
H1316 C1298 0.932 . S
H1317 C1299 0.929 . S
H1318 C1300 0.928 . S
H1319 C1302 0.932 . S
C1320 C1321 1.264 . S
C1320 C1325 1.479 . S
C1320 C1330 1.465 . S
C1321 C1320 1.264 . S
C1321 C1323 1.339 . S
C1321 H1348 0.931 . S
C1322 C1323 1.395 . S
C1322 C1324 1.320 . S
C1323 C1321 1.339 . S
C1323 C1322 1.395 . S
C1323 H1349 0.929 . S
C1324 C1322 1.320 . S
C1324 C1325 1.405 . S
C1324 H1350 0.930 . S
C1325 C1320 1.479 . S
C1325 C1324 1.405 . S
C1325 H1351 0.931 . S
U1326 O1327 2.454 . S
U1326 O1328 2.458 . S
U1326 C1329 2.984 . S
U1326 C1330 2.847 . S
U1326 C1343 2.882 . S
U1326 O1344 2.441 . S
U1326 O1345 2.420 . S
U1326 O1346 2.455 . S
U1326 O1347 2.449 . S
O1327 U1326 2.454 . S
O1327 C1329 1.353 . S
O1328 U1326 2.458 . S
O1328 C1329 1.286 . S
C1329 U1326 2.984 . S
C1329 O1327 1.353 . S
C1329 O1328 1.286 . S
C1329 C1331 1.363 . S
C1330 C1320 1.465 . S
C1330 U1326 2.847 . S
C1330 O1344 1.249 . S
C1330 O1345 1.202 . S
C1331 C1329 1.363 . S
C1331 C1333 1.408 . S
C1331 C1336 1.342 . S
C1332 C1333 1.310 . S
C1332 C1335 1.461 . S
C1332 H1352 0.932 . S
C1333 C1331 1.408 . S
C1333 C1332 1.310 . S
C1333 H1353 0.930 . S
C1334 C1335 1.474 . S
C1334 C1336 1.285 . S
C1334 H1354 0.943 . S
C1335 C1332 1.461 . S
C1335 C1334 1.474 . S
C1336 C1331 1.342 . S
C1336 C1334 1.285 . S
C1336 H1355 0.930 . S
C1337 C1340 1.428 . S
C1337 C1342 1.237 1_556 S
C1337 C1343 1.434 . S
C1338 C1341 1.260 . S
C1338 C1342 1.477 . S
C1338 H1356 0.932 . S
C1339 C1340 1.384 1_554 S
C1339 C1341 1.479 . S
C1339 H1357 0.923 1_554 S
C1340 C1337 1.428 . S
C1340 C1339 1.384 1_556 S
C1340 H1358 0.928 . S
C1341 C1338 1.260 . S
C1341 C1339 1.479 . S
C1342 C1337 1.237 1_554 S
C1342 C1338 1.477 . S
C1342 H1359 0.932 . S
C1343 U1326 2.882 . S
C1343 C1337 1.434 . S
C1343 O1346 1.301 . S
C1343 O1347 1.282 . S
O1344 U1326 2.441 . S
O1344 C1330 1.249 . S
O1345 U1326 2.420 . S
O1345 C1330 1.202 . S
O1346 U1326 2.455 . S
O1346 C1343 1.301 . S
O1347 U1326 2.449 . S
O1347 C1343 1.282 . S
H1348 C1321 0.931 . S
H1349 C1323 0.929 . S
H1350 C1324 0.930 . S
H1351 C1325 0.931 . S
H1352 C1332 0.932 . S
H1353 C1333 0.930 . S
H1354 C1334 0.943 . S
H1355 C1336 0.930 . S
H1356 C1338 0.932 . S
H1357 C1339 0.923 1_556 S
H1358 C1340 0.928 . S
H1359 C1342 0.932 . S
C1360 C1361 1.264 . S
C1360 C1365 1.479 . S
C1360 C1370 1.465 . S
C1361 C1360 1.264 . S
C1361 C1363 1.339 . S
C1361 H1388 0.931 . S
C1362 C1363 1.395 . S
C1362 C1364 1.320 . S
C1363 C1361 1.339 . S
C1363 C1362 1.395 . S
C1363 H1389 0.929 . S
C1364 C1362 1.320 . S
C1364 C1365 1.405 . S
C1364 H1390 0.930 . S
C1365 C1360 1.479 . S
C1365 C1364 1.405 . S
C1365 H1391 0.931 . S
U1366 O1367 2.454 . S
U1366 O1368 2.458 . S
U1366 C1369 2.984 . S
U1366 C1370 2.847 . S
U1366 C1383 2.882 . S
U1366 O1384 2.441 . S
U1366 O1385 2.420 . S
U1366 O1386 2.455 . S
U1366 O1387 2.449 . S
O1367 U1366 2.454 . S
O1367 C1369 1.353 . S
O1368 U1366 2.458 . S
O1368 C1369 1.286 . S
C1369 U1366 2.984 . S
C1369 O1367 1.353 . S
C1369 O1368 1.286 . S
C1369 C1371 1.363 . S
C1370 C1360 1.465 . S
C1370 U1366 2.847 . S
C1370 O1384 1.249 . S
C1370 O1385 1.202 . S
C1371 C1369 1.363 . S
C1371 C1373 1.408 . S
C1371 C1376 1.342 . S
C1372 C1373 1.310 . S
C1372 C1375 1.461 . S
C1372 H1392 0.932 . S
C1373 C1371 1.408 . S
C1373 C1372 1.310 . S
C1373 H1393 0.930 . S
C1374 C1375 1.474 . S
C1374 C1376 1.285 . S
C1374 H1394 0.929 1_556 S
C1375 C1372 1.461 . S
C1375 C1374 1.474 . S
C1376 C1371 1.342 . S
C1376 C1374 1.285 . S
C1376 H1395 0.930 . S
C1377 C1380 1.424 1_554 S
C1377 C1382 1.245 . S
C1377 C1383 1.428 1_554 S
C1378 C1381 1.260 . S
C1378 C1382 1.477 . S
C1378 H1396 0.932 . S
C1379 C1380 1.384 1_554 S
C1379 C1381 1.479 . S
C1379 H1397 0.929 . S
C1380 C1377 1.424 1_556 S
C1380 C1379 1.384 1_556 S
C1380 H1398 0.928 . S
C1381 C1378 1.260 . S
C1381 C1379 1.479 . S
C1382 C1377 1.245 . S
C1382 C1378 1.477 . S
C1382 H1399 0.932 . S
C1383 U1366 2.882 . S
C1383 C1377 1.428 1_556 S
C1383 O1386 1.301 . S
C1383 O1387 1.282 . S
O1384 U1366 2.441 . S
O1384 C1370 1.249 . S
O1385 U1366 2.420 . S
O1385 C1370 1.202 . S
O1386 U1366 2.455 . S
O1386 C1383 1.301 . S
O1387 U1366 2.449 . S
O1387 C1383 1.282 . S
H1388 C1361 0.931 . S
H1389 C1363 0.929 . S
H1390 C1364 0.930 . S
H1391 C1365 0.931 . S
H1392 C1372 0.932 . S
H1393 C1373 0.930 . S
H1394 C1374 0.929 1_554 S
H1395 C1376 0.930 . S
H1396 C1378 0.932 . S
H1397 C1379 0.929 . S
H1398 C1380 0.928 . S
H1399 C1382 0.932 . S
C1400 C1401 1.264 . S
C1400 C1405 1.479 . S
C1400 C1410 1.465 . S
C1401 C1400 1.264 . S
C1401 C1403 1.339 . S
C1401 H1428 0.931 . S
C1402 C1403 1.395 . S
C1402 C1404 1.320 . S
C1403 C1401 1.339 . S
C1403 C1402 1.395 . S
C1403 H1429 0.929 . S
C1404 C1402 1.320 . S
C1404 C1405 1.405 . S
C1404 H1430 0.930 . S
C1405 C1400 1.479 . S
C1405 C1404 1.405 . S
C1405 H1431 0.931 . S
U1406 O1407 2.454 . S
U1406 O1408 2.458 . S
U1406 C1409 2.984 . S
U1406 C1410 2.847 . S
U1406 C1423 2.882 . S
U1406 O1424 2.441 . S
U1406 O1425 2.420 . S
U1406 O1426 2.455 . S
U1406 O1427 2.449 . S
O1407 U1406 2.454 . S
O1407 C1409 1.353 . S
O1408 U1406 2.458 . S
O1408 C1409 1.286 . S
C1409 U1406 2.984 . S
C1409 O1407 1.353 . S
C1409 O1408 1.286 . S
C1409 C1411 1.363 . S
C1410 C1400 1.465 . S
C1410 U1406 2.847 . S
C1410 O1424 1.249 . S
C1410 O1425 1.202 . S
C1411 C1409 1.363 . S
C1411 C1413 1.408 . S
C1411 C1416 1.342 . S
C1412 C1413 1.310 . S
C1412 C1415 1.461 . S
C1412 H1432 0.932 . S
C1413 C1411 1.408 . S
C1413 C1412 1.310 . S
C1413 H1433 0.930 . S
C1414 C1415 1.474 . S
C1414 C1416 1.285 . S
C1414 H1434 0.929 1_554 S
C1415 C1412 1.461 . S
C1415 C1414 1.474 . S
C1416 C1411 1.342 . S
C1416 C1414 1.285 . S
C1416 H1435 0.930 . S
C1417 C1420 1.424 1_556 S
C1417 C1422 1.245 . S
C1417 C1423 1.428 1_556 S
C1418 C1421 1.260 . S
C1418 C1422 1.477 . S
C1418 H1436 0.932 . S
C1419 C1420 1.384 1_556 S
C1419 C1421 1.479 . S
C1419 H1437 0.929 . S
C1420 C1417 1.424 1_554 S
C1420 C1419 1.384 1_554 S
C1420 H1438 0.928 . S
C1421 C1418 1.260 . S
C1421 C1419 1.479 . S
C1422 C1417 1.245 . S
C1422 C1418 1.477 . S
C1422 H1439 0.932 . S
C1423 U1406 2.882 . S
C1423 C1417 1.428 1_554 S
C1423 O1426 1.301 . S
C1423 O1427 1.282 . S
O1424 U1406 2.441 . S
O1424 C1410 1.249 . S
O1425 U1406 2.420 . S
O1425 C1410 1.202 . S
O1426 U1406 2.455 . S
O1426 C1423 1.301 . S
O1427 U1406 2.449 . S
O1427 C1423 1.282 . S
H1428 C1401 0.931 . S
H1429 C1403 0.929 . S
H1430 C1404 0.930 . S
H1431 C1405 0.931 . S
H1432 C1412 0.932 . S
H1433 C1413 0.930 . S
H1434 C1414 0.929 1_556 S
H1435 C1416 0.930 . S
H1436 C1418 0.932 . S
H1437 C1419 0.929 . S
H1438 C1420 0.928 . S
H1439 C1422 0.932 . S
C1440 C1441 1.264 . S
C1440 C1445 1.479 . S
C1440 C1450 1.465 . S
C1441 C1440 1.264 . S
C1441 C1443 1.339 . S
C1441 H1468 0.931 . S
C1442 C1443 1.395 . S
C1442 C1444 1.320 . S
C1443 C1441 1.339 . S
C1443 C1442 1.395 . S
C1443 H1469 0.929 . S
C1444 C1442 1.320 . S
C1444 C1445 1.405 . S
C1444 H1470 0.930 . S
C1445 C1440 1.479 . S
C1445 C1444 1.405 . S
C1445 H1471 0.931 . S
U1446 O1447 2.454 . S
U1446 O1448 2.458 . S
U1446 C1449 2.984 . S
U1446 C1450 2.847 . S
U1446 C1463 2.882 . S
U1446 O1464 2.441 . S
U1446 O1465 2.420 . S
U1446 O1466 2.455 . S
U1446 O1467 2.449 . S
O1447 U1446 2.454 . S
O1447 C1449 1.353 . S
O1448 U1446 2.458 . S
O1448 C1449 1.286 . S
C1449 U1446 2.984 . S
C1449 O1447 1.353 . S
C1449 O1448 1.286 . S
C1449 C1451 1.363 . S
C1450 C1440 1.465 . S
C1450 U1446 2.847 . S
C1450 O1464 1.249 . S
C1450 O1465 1.202 . S
C1451 C1449 1.363 . S
C1451 C1453 1.408 . S
C1451 C1456 1.342 . S
C1452 C1453 1.310 . S
C1452 C1455 1.461 . S
C1452 H1472 0.932 . S
C1453 C1451 1.408 . S
C1453 C1452 1.310 . S
C1453 H1473 0.930 . S
C1454 C1455 1.474 . S
C1454 C1456 1.285 . S
C1454 H1474 0.929 . S
C1455 C1452 1.461 . S
C1455 C1454 1.474 . S
C1456 C1451 1.342 . S
C1456 C1454 1.285 . S
C1456 H1475 0.930 . S
C1457 C1460 1.424 . S
C1457 C1462 1.245 . S
C1457 C1463 1.428 . S
C1458 C1461 1.260 . S
C1458 C1462 1.477 . S
C1458 H1476 0.932 . S
C1459 C1460 1.384 . S
C1459 C1461 1.479 . S
C1459 H1477 0.929 . S
C1460 C1457 1.424 . S
C1460 C1459 1.384 . S
C1460 H1478 0.928 . S
C1461 C1458 1.260 . S
C1461 C1459 1.479 . S
C1462 C1457 1.245 . S
C1462 C1458 1.477 . S
C1462 H1479 0.932 . S
C1463 U1446 2.882 . S
C1463 C1457 1.428 . S
C1463 O1466 1.301 . S
C1463 O1467 1.282 . S
O1464 U1446 2.441 . S
O1464 C1450 1.249 . S
O1465 U1446 2.420 . S
O1465 C1450 1.202 . S
O1466 U1446 2.455 . S
O1466 C1463 1.301 . S
O1467 U1446 2.449 . S
O1467 C1463 1.282 . S
H1468 C1441 0.931 . S
H1469 C1443 0.929 . S
H1470 C1444 0.930 . S
H1471 C1445 0.931 . S
H1472 C1452 0.932 . S
H1473 C1453 0.930 . S
H1474 C1454 0.929 . S
H1475 C1456 0.930 . S
H1476 C1458 0.932 . S
H1477 C1459 0.929 . S
H1478 C1460 0.928 . S
H1479 C1462 0.932 . S
C1480 C1481 1.264 . S
C1480 C1485 1.479 . S
C1480 C1490 1.465 . S
C1481 C1480 1.264 . S
C1481 C1483 1.339 . S
C1481 H1508 0.931 . S
C1482 C1483 1.395 . S
C1482 C1484 1.320 . S
C1483 C1481 1.339 . S
C1483 C1482 1.395 . S
C1483 H1509 0.929 . S
C1484 C1482 1.320 . S
C1484 C1485 1.405 . S
C1484 H1510 0.930 . S
C1485 C1480 1.479 . S
C1485 C1484 1.405 . S
C1485 H1511 0.931 . S
U1486 O1487 2.454 . S
U1486 O1488 2.458 . S
U1486 C1489 2.984 . S
U1486 C1490 2.847 . S
U1486 C1503 2.882 . S
U1486 O1504 2.441 . S
U1486 O1505 2.420 . S
U1486 O1506 2.455 . S
U1486 O1507 2.449 . S
O1487 U1486 2.454 . S
O1487 C1489 1.353 . S
O1488 U1486 2.458 . S
O1488 C1489 1.286 . S
C1489 U1486 2.984 . S
C1489 O1487 1.353 . S
C1489 O1488 1.286 . S
C1489 C1491 1.363 . S
C1490 C1480 1.465 . S
C1490 U1486 2.847 . S
C1490 O1504 1.249 . S
C1490 O1505 1.202 . S
C1491 C1489 1.363 . S
C1491 C1493 1.408 . S
C1491 C1496 1.342 . S
C1492 C1493 1.310 . S
C1492 C1495 1.461 . S
C1492 H1512 0.932 . S
C1493 C1491 1.408 . S
C1493 C1492 1.310 . S
C1493 H1513 0.930 . S
C1494 C1495 1.474 . S
C1494 C1496 1.285 . S
C1494 H1514 0.929 . S
C1495 C1492 1.461 . S
C1495 C1494 1.474 . S
C1496 C1491 1.342 . S
C1496 C1494 1.285 . S
C1496 H1515 0.930 . S
C1497 C1500 1.424 . S
C1497 C1502 1.245 . S
C1497 C1503 1.428 . S
C1498 C1501 1.260 . S
C1498 C1502 1.477 . S
C1498 H1516 0.932 . S
C1499 C1500 1.384 . S
C1499 C1501 1.479 . S
C1499 H1517 0.929 . S
C1500 C1497 1.424 . S
C1500 C1499 1.384 . S
C1500 H1518 0.928 . S
C1501 C1498 1.260 . S
C1501 C1499 1.479 . S
C1502 C1497 1.245 . S
C1502 C1498 1.477 . S
C1502 H1519 0.932 . S
C1503 U1486 2.882 . S
C1503 C1497 1.428 . S
C1503 O1506 1.301 . S
C1503 O1507 1.282 . S
O1504 U1486 2.441 . S
O1504 C1490 1.249 . S
O1505 U1486 2.420 . S
O1505 C1490 1.202 . S
O1506 U1486 2.455 . S
O1506 C1503 1.301 . S
O1507 U1486 2.449 . S
O1507 C1503 1.282 . S
H1508 C1481 0.931 . S
H1509 C1483 0.929 . S
H1510 C1484 0.930 . S
H1511 C1485 0.931 . S
H1512 C1492 0.932 . S
H1513 C1493 0.930 . S
H1514 C1494 0.929 . S
H1515 C1496 0.930 . S
H1516 C1498 0.932 . S
H1517 C1499 0.929 . S
H1518 C1500 0.928 . S
H1519 C1502 0.932 . S
C1520 C1521 1.264 . S
C1520 C1525 1.479 . S
C1520 C1530 1.465 . S
C1521 C1520 1.264 . S
C1521 C1523 1.339 . S
C1521 H1548 0.931 . S
C1522 C1523 1.395 . S
C1522 C1524 1.320 . S
C1523 C1521 1.339 . S
C1523 C1522 1.395 . S
C1523 H1549 0.929 . S
C1524 C1522 1.320 . S
C1524 C1525 1.405 . S
C1524 H1550 0.930 . S
C1525 C1520 1.479 . S
C1525 C1524 1.405 . S
C1525 H1551 0.931 . S
U1526 O1527 2.454 . S
U1526 O1528 2.458 . S
U1526 C1529 2.984 . S
U1526 C1530 2.847 . S
U1526 C1543 2.882 . S
U1526 O1544 2.441 . S
U1526 O1545 2.420 . S
U1526 O1546 2.455 . S
U1526 O1547 2.449 . S
O1527 U1526 2.454 . S
O1527 C1529 1.353 . S
O1528 U1526 2.458 . S
O1528 C1529 1.286 . S
C1529 U1526 2.984 . S
C1529 O1527 1.353 . S
C1529 O1528 1.286 . S
C1529 C1531 1.363 . S
C1530 C1520 1.465 . S
C1530 U1526 2.847 . S
C1530 O1544 1.249 . S
C1530 O1545 1.202 . S
C1531 C1529 1.363 . S
C1531 C1533 1.408 . S
C1531 C1536 1.342 . S
C1532 C1533 1.310 . S
C1532 C1535 1.461 . S
C1532 H1552 0.932 . S
C1533 C1531 1.408 . S
C1533 C1532 1.310 . S
C1533 H1553 0.930 . S
C1534 C1535 1.474 . S
C1534 C1536 1.285 . S
C1534 H1554 0.929 . S
C1535 C1532 1.461 . S
C1535 C1534 1.474 . S
C1536 C1531 1.342 . S
C1536 C1534 1.285 . S
C1536 H1555 0.930 . S
C1537 C1540 1.424 . S
C1537 C1542 1.245 . S
C1537 C1543 1.428 . S
C1538 C1541 1.260 . S
C1538 C1542 1.477 . S
C1538 H1556 0.932 . S
C1539 C1540 1.384 . S
C1539 C1541 1.479 . S
C1539 H1557 0.929 . S
C1540 C1537 1.424 . S
C1540 C1539 1.384 . S
C1540 H1558 0.928 . S
C1541 C1538 1.260 . S
C1541 C1539 1.479 . S
C1542 C1537 1.245 . S
C1542 C1538 1.477 . S
C1542 H1559 0.932 . S
C1543 U1526 2.882 . S
C1543 C1537 1.428 . S
C1543 O1546 1.301 . S
C1543 O1547 1.282 . S
O1544 U1526 2.441 . S
O1544 C1530 1.249 . S
O1545 U1526 2.420 . S
O1545 C1530 1.202 . S
O1546 U1526 2.455 . S
O1546 C1543 1.301 . S
O1547 U1526 2.449 . S
O1547 C1543 1.282 . S
H1548 C1521 0.931 . S
H1549 C1523 0.929 . S
H1550 C1524 0.930 . S
H1551 C1525 0.931 . S
H1552 C1532 0.932 . S
H1553 C1533 0.930 . S
H1554 C1534 0.929 . S
H1555 C1536 0.930 . S
H1556 C1538 0.932 . S
H1557 C1539 0.929 . S
H1558 C1540 0.928 . S
H1559 C1542 0.932 . S
C1560 C1561 1.264 . S
C1560 C1565 1.479 . S
C1560 C1570 1.465 . S
C1561 C1560 1.264 . S
C1561 C1563 1.339 . S
C1561 H1588 0.931 . S
C1562 C1563 1.395 . S
C1562 C1564 1.320 . S
C1563 C1561 1.339 . S
C1563 C1562 1.395 . S
C1563 H1589 0.929 . S
C1564 C1562 1.320 . S
C1564 C1565 1.405 . S
C1564 H1590 0.930 . S
C1565 C1560 1.479 . S
C1565 C1564 1.405 . S
C1565 H1591 0.931 . S
U1566 O1567 2.454 . S
U1566 O1568 2.458 . S
U1566 C1569 2.984 . S
U1566 C1570 2.847 . S
U1566 C1583 2.882 . S
U1566 O1584 2.441 . S
U1566 O1585 2.420 . S
U1566 O1586 2.455 . S
U1566 O1587 2.449 . S
O1567 U1566 2.454 . S
O1567 C1569 1.353 . S
O1568 U1566 2.458 . S
O1568 C1569 1.286 . S
C1569 U1566 2.984 . S
C1569 O1567 1.353 . S
C1569 O1568 1.286 . S
C1569 C1571 1.363 . S
C1570 C1560 1.465 . S
C1570 U1566 2.847 . S
C1570 O1584 1.249 . S
C1570 O1585 1.202 . S
C1571 C1569 1.363 . S
C1571 C1573 1.408 . S
C1571 C1576 1.342 . S
C1572 C1573 1.310 . S
C1572 C1575 1.461 . S
C1572 H1592 0.932 . S
C1573 C1571 1.408 . S
C1573 C1572 1.310 . S
C1573 H1593 0.930 . S
C1574 C1575 1.474 . S
C1574 C1576 1.285 . S
C1574 H1594 0.929 . S
C1575 C1572 1.461 . S
C1575 C1574 1.474 . S
C1576 C1571 1.342 . S
C1576 C1574 1.285 . S
C1576 H1595 0.930 . S
C1577 C1580 1.424 . S
C1577 C1582 1.245 . S
C1577 C1583 1.428 . S
C1578 C1581 1.260 . S
C1578 C1582 1.477 . S
C1578 H1596 0.932 . S
C1579 C1580 1.384 . S
C1579 C1581 1.479 . S
C1579 H1597 0.929 . S
C1580 C1577 1.424 . S
C1580 C1579 1.384 . S
C1580 H1598 0.928 . S
C1581 C1578 1.260 . S
C1581 C1579 1.479 . S
C1582 C1577 1.245 . S
C1582 C1578 1.477 . S
C1582 H1599 0.932 . S
C1583 U1566 2.882 . S
C1583 C1577 1.428 . S
C1583 O1586 1.301 . S
C1583 O1587 1.282 . S
O1584 U1566 2.441 . S
O1584 C1570 1.249 . S
O1585 U1566 2.420 . S
O1585 C1570 1.202 . S
O1586 U1566 2.455 . S
O1586 C1583 1.301 . S
O1587 U1566 2.449 . S
O1587 C1583 1.282 . S
H1588 C1561 0.931 . S
H1589 C1563 0.929 . S
H1590 C1564 0.930 . S
H1591 C1565 0.931 . S
H1592 C1572 0.932 . S
H1593 C1573 0.930 . S
H1594 C1574 0.929 . S
H1595 C1576 0.930 . S
H1596 C1578 0.932 . S
H1597 C1579 0.929 . S
H1598 C1580 0.928 . S
H1599 C1582 0.932 . S
C1600 C1601 1.264 . S
C1600 C1605 1.479 . S
C1600 C1610 1.465 . S
C1601 C1600 1.264 . S
C1601 C1603 1.339 . S
C1601 H1628 0.931 . S
C1602 C1603 1.395 . S
C1602 C1604 1.320 . S
C1603 C1601 1.339 . S
C1603 C1602 1.395 . S
C1603 H1629 0.929 . S
C1604 C1602 1.320 . S
C1604 C1605 1.405 . S
C1604 H1630 0.930 . S
C1605 C1600 1.479 . S
C1605 C1604 1.405 . S
C1605 H1631 0.931 . S
U1606 O1607 2.454 . S
U1606 O1608 2.458 . S
U1606 C1609 2.984 . S
U1606 C1610 2.847 . S
U1606 C1623 2.882 . S
U1606 O1624 2.441 . S
U1606 O1625 2.420 . S
U1606 O1626 2.455 . S
U1606 O1627 2.449 . S
O1607 U1606 2.454 . S
O1607 C1609 1.353 . S
O1608 U1606 2.458 . S
O1608 C1609 1.286 . S
C1609 U1606 2.984 . S
C1609 O1607 1.353 . S
C1609 O1608 1.286 . S
C1609 C1611 1.363 . S
C1610 C1600 1.465 . S
C1610 U1606 2.847 . S
C1610 O1624 1.249 . S
C1610 O1625 1.202 . S
C1611 C1609 1.363 . S
C1611 C1613 1.408 . S
C1611 C1616 1.342 . S
C1612 C1613 1.310 . S
C1612 C1615 1.461 . S
C1612 H1632 0.932 . S
C1613 C1611 1.408 . S
C1613 C1612 1.310 . S
C1613 H1633 0.930 . S
C1614 C1615 1.474 . S
C1614 C1616 1.285 . S
C1614 H1634 0.929 . S
C1615 C1612 1.461 . S
C1615 C1614 1.474 . S
C1616 C1611 1.342 . S
C1616 C1614 1.285 . S
C1616 H1635 0.930 . S
C1617 C1620 1.424 . S
C1617 C1622 1.245 . S
C1617 C1623 1.428 . S
C1618 C1621 1.260 . S
C1618 C1622 1.477 . S
C1618 H1636 0.932 . S
C1619 C1620 1.384 . S
C1619 C1621 1.479 . S
C1619 H1637 0.929 . S
C1620 C1617 1.424 . S
C1620 C1619 1.384 . S
C1620 H1638 0.928 . S
C1621 C1618 1.260 . S
C1621 C1619 1.479 . S
C1622 C1617 1.245 . S
C1622 C1618 1.477 . S
C1622 H1639 0.932 . S
C1623 U1606 2.882 . S
C1623 C1617 1.428 . S
C1623 O1626 1.301 . S
C1623 O1627 1.282 . S
O1624 U1606 2.441 . S
O1624 C1610 1.249 . S
O1625 U1606 2.420 . S
O1625 C1610 1.202 . S
O1626 U1606 2.455 . S
O1626 C1623 1.301 . S
O1627 U1606 2.449 . S
O1627 C1623 1.282 . S
H1628 C1601 0.931 . S
H1629 C1603 0.929 . S
H1630 C1604 0.930 . S
H1631 C1605 0.931 . S
H1632 C1612 0.932 . S
H1633 C1613 0.930 . S
H1634 C1614 0.929 . S
H1635 C1616 0.930 . S
H1636 C1618 0.932 . S
H1637 C1619 0.929 . S
H1638 C1620 0.928 . S
H1639 C1622 0.932 . S
C1640 C1641 1.264 . S
C1640 C1645 1.479 . S
C1640 C1650 1.465 1_565 S
C1641 C1640 1.264 . S
C1641 C1643 1.339 . S
C1641 H1668 0.931 1_565 S
C1642 C1643 1.395 . S
C1642 C1644 1.320 . S
C1643 C1641 1.339 . S
C1643 C1642 1.395 . S
C1643 H1669 0.929 . S
C1644 C1642 1.320 . S
C1644 C1645 1.405 . S
C1644 H1670 0.930 . S
C1645 C1640 1.479 . S
C1645 C1644 1.405 . S
C1645 H1671 0.931 . S
U1646 O1647 2.454 . S
U1646 O1648 2.458 . S
U1646 C1649 2.984 . S
U1646 C1650 2.847 . S
U1646 C1663 2.882 . S
U1646 O1664 2.455 . S
U1646 O1665 2.420 . S
U1646 O1666 2.455 . S
U1646 O1667 2.449 . S
O1647 U1646 2.454 . S
O1647 C1649 1.353 . S
O1648 U1646 2.458 . S
O1648 C1649 1.286 . S
C1649 U1646 2.984 . S
C1649 O1647 1.353 . S
C1649 O1648 1.286 . S
C1649 C1651 1.363 . S
C1650 C1640 1.465 1_545 S
C1650 U1646 2.847 . S
C1650 O1664 1.251 . S
C1650 O1665 1.202 . S
C1651 C1649 1.363 . S
C1651 C1653 1.408 . S
C1651 C1656 1.342 . S
C1652 C1653 1.310 . S
C1652 C1655 1.461 . S
C1652 H1672 0.932 1_545 S
C1653 C1651 1.408 . S
C1653 C1652 1.310 . S
C1653 H1673 0.930 1_545 S
C1654 C1655 1.474 . S
C1654 C1656 1.285 . S
C1654 H1674 0.929 . S
C1655 C1652 1.461 . S
C1655 C1654 1.474 . S
C1656 C1651 1.342 . S
C1656 C1654 1.285 . S
C1656 H1675 0.930 . S
C1657 C1660 1.424 . S
C1657 C1662 1.245 . S
C1657 C1663 1.428 . S
C1658 C1661 1.260 . S
C1658 C1662 1.477 . S
C1658 H1676 0.932 . S
C1659 C1660 1.384 . S
C1659 C1661 1.479 . S
C1659 H1677 0.929 . S
C1660 C1657 1.424 . S
C1660 C1659 1.384 . S
C1660 H1678 0.928 . S
C1661 C1658 1.260 . S
C1661 C1659 1.479 . S
C1662 C1657 1.245 . S
C1662 C1658 1.477 . S
C1662 H1679 0.932 . S
C1663 U1646 2.882 . S
C1663 C1657 1.428 . S
C1663 O1666 1.301 . S
C1663 O1667 1.282 . S
O1664 U1646 2.455 . S
O1664 C1650 1.251 . S
O1665 U1646 2.420 . S
O1665 C1650 1.202 . S
O1666 U1646 2.455 . S
O1666 C1663 1.301 . S
O1667 U1646 2.449 . S
O1667 C1663 1.282 . S
H1668 C1641 0.931 1_545 S
H1669 C1643 0.929 . S
H1670 C1644 0.930 . S
H1671 C1645 0.931 . S
H1672 C1652 0.932 1_565 S
H1673 C1653 0.930 1_565 S
H1674 C1654 0.929 . S
H1675 C1656 0.930 . S
H1676 C1658 0.932 . S
H1677 C1659 0.929 . S
H1678 C1660 0.928 . S
H1679 C1662 0.932 . S
C1680 C1681 1.264 . S
C1680 C1685 1.479 . S
C1680 C1690 1.465 . S
C1681 C1680 1.264 . S
C1681 C1683 1.339 . S
C1681 H1708 0.931 . S
C1682 C1683 1.395 . S
C1682 C1684 1.320 . S
C1683 C1681 1.339 . S
C1683 C1682 1.395 . S
C1683 H1709 0.929 . S
C1684 C1682 1.320 . S
C1684 C1685 1.405 . S
C1684 H1710 0.930 . S
C1685 C1680 1.479 . S
C1685 C1684 1.405 . S
C1685 H1711 0.931 . S
U1686 O1687 2.454 . S
U1686 O1688 2.458 . S
U1686 C1689 2.984 . S
U1686 C1690 2.847 . S
U1686 C1703 2.882 . S
U1686 O1704 2.441 . S
U1686 O1705 2.420 . S
U1686 O1706 2.455 . S
U1686 O1707 2.449 . S
O1687 U1686 2.454 . S
O1687 C1689 1.353 . S
O1688 U1686 2.458 . S
O1688 C1689 1.286 . S
C1689 U1686 2.984 . S
C1689 O1687 1.353 . S
C1689 O1688 1.286 . S
C1689 C1691 1.363 . S
C1690 C1680 1.465 . S
C1690 U1686 2.847 . S
C1690 O1704 1.249 . S
C1690 O1705 1.202 . S
C1691 C1689 1.363 . S
C1691 C1693 1.408 . S
C1691 C1696 1.342 . S
C1692 C1693 1.310 . S
C1692 C1695 1.461 . S
C1692 H1712 0.932 . S
C1693 C1691 1.408 . S
C1693 C1692 1.310 . S
C1693 H1713 0.930 . S
C1694 C1695 1.474 . S
C1694 C1696 1.285 . S
C1694 H1714 0.929 . S
C1695 C1692 1.461 . S
C1695 C1694 1.474 . S
C1696 C1691 1.342 . S
C1696 C1694 1.285 . S
C1696 H1715 0.930 . S
C1697 C1700 1.424 . S
C1697 C1702 1.245 . S
C1697 C1703 1.428 . S
C1698 C1701 1.260 . S
C1698 C1702 1.477 . S
C1698 H1716 0.932 . S
C1699 C1700 1.384 . S
C1699 C1701 1.479 . S
C1699 H1717 0.929 . S
C1700 C1697 1.424 . S
C1700 C1699 1.384 . S
C1700 H1718 0.928 . S
C1701 C1698 1.260 . S
C1701 C1699 1.479 . S
C1702 C1697 1.245 . S
C1702 C1698 1.477 . S
C1702 H1719 0.932 . S
C1703 U1686 2.882 . S
C1703 C1697 1.428 . S
C1703 O1706 1.301 . S
C1703 O1707 1.282 . S
O1704 U1686 2.441 . S
O1704 C1690 1.249 . S
O1705 U1686 2.420 . S
O1705 C1690 1.202 . S
O1706 U1686 2.455 . S
O1706 C1703 1.301 . S
O1707 U1686 2.449 . S
O1707 C1703 1.282 . S
H1708 C1681 0.931 . S
H1709 C1683 0.929 . S
H1710 C1684 0.930 . S
H1711 C1685 0.931 . S
H1712 C1692 0.932 . S
H1713 C1693 0.930 . S
H1714 C1694 0.929 . S
H1715 C1696 0.930 . S
H1716 C1698 0.932 . S
H1717 C1699 0.929 . S
H1718 C1700 0.928 . S
H1719 C1702 0.932 . S
C1720 C1721 1.264 . S
C1720 C1725 1.479 . S
C1720 C1730 1.465 1_545 S
C1721 C1720 1.264 . S
C1721 C1723 1.339 . S
C1721 H1748 0.931 1_545 S
C1722 C1723 1.395 . S
C1722 C1724 1.320 . S
C1723 C1721 1.339 . S
C1723 C1722 1.395 . S
C1723 H1749 0.929 . S
C1724 C1722 1.320 . S
C1724 C1725 1.405 . S
C1724 H1750 0.930 . S
C1725 C1720 1.479 . S
C1725 C1724 1.405 . S
C1725 H1751 0.931 . S
U1726 O1727 2.454 . S
U1726 O1728 2.458 . S
U1726 C1729 2.984 . S
U1726 C1730 2.847 . S
U1726 C1743 2.882 . S
U1726 O1744 2.455 . S
U1726 O1745 2.420 . S
U1726 O1746 2.455 . S
U1726 O1747 2.449 . S
O1727 U1726 2.454 . S
O1727 C1729 1.353 . S
O1728 U1726 2.458 . S
O1728 C1729 1.286 . S
C1729 U1726 2.984 . S
C1729 O1727 1.353 . S
C1729 O1728 1.286 . S
C1729 C1731 1.363 . S
C1730 C1720 1.465 1_565 S
C1730 U1726 2.847 . S
C1730 O1744 1.251 . S
C1730 O1745 1.202 . S
C1731 C1729 1.363 . S
C1731 C1733 1.408 . S
C1731 C1736 1.342 . S
C1732 C1733 1.310 . S
C1732 C1735 1.461 . S
C1732 H1752 0.932 1_565 S
C1733 C1731 1.408 . S
C1733 C1732 1.310 . S
C1733 H1753 0.930 1_565 S
C1734 C1735 1.474 . S
C1734 C1736 1.285 . S
C1734 H1754 0.929 . S
C1735 C1732 1.461 . S
C1735 C1734 1.474 . S
C1736 C1731 1.342 . S
C1736 C1734 1.285 . S
C1736 H1755 0.930 . S
C1737 C1740 1.424 . S
C1737 C1742 1.245 . S
C1737 C1743 1.428 . S
C1738 C1741 1.260 . S
C1738 C1742 1.477 . S
C1738 H1756 0.932 . S
C1739 C1740 1.384 . S
C1739 C1741 1.479 . S
C1739 H1757 0.929 . S
C1740 C1737 1.424 . S
C1740 C1739 1.384 . S
C1740 H1758 0.928 . S
C1741 C1738 1.260 . S
C1741 C1739 1.479 . S
C1742 C1737 1.245 . S
C1742 C1738 1.477 . S
C1742 H1759 0.932 . S
C1743 U1726 2.882 . S
C1743 C1737 1.428 . S
C1743 O1746 1.301 . S
C1743 O1747 1.282 . S
O1744 U1726 2.455 . S
O1744 C1730 1.251 . S
O1745 U1726 2.420 . S
O1745 C1730 1.202 . S
O1746 U1726 2.455 . S
O1746 C1743 1.301 . S
O1747 U1726 2.449 . S
O1747 C1743 1.282 . S
H1748 C1721 0.931 1_565 S
H1749 C1723 0.929 . S
H1750 C1724 0.930 . S
H1751 C1725 0.931 . S
H1752 C1732 0.932 1_545 S
H1753 C1733 0.930 1_545 S
H1754 C1734 0.929 . S
H1755 C1736 0.930 . S
H1756 C1738 0.932 . S
H1757 C1739 0.929 . S
H1758 C1740 0.928 . S
H1759 C1742 0.932 . S
C1760 C1761 1.264 . S
C1760 C1765 1.479 . S
C1760 C1770 1.465 . S
C1761 C1760 1.264 . S
C1761 C1763 1.339 . S
C1761 H1788 0.931 . S
C1762 C1763 1.395 . S
C1762 C1764 1.320 . S
C1763 C1761 1.339 . S
C1763 C1762 1.395 . S
C1763 H1789 0.929 . S
C1764 C1762 1.320 . S
C1764 C1765 1.405 . S
C1764 H1790 0.930 . S
C1765 C1760 1.479 . S
C1765 C1764 1.405 . S
C1765 H1791 0.931 . S
U1766 O1767 2.454 . S
U1766 O1768 2.458 . S
U1766 C1769 2.984 . S
U1766 C1770 2.847 . S
U1766 C1783 2.882 . S
U1766 O1784 2.441 . S
U1766 O1785 2.420 . S
U1766 O1786 2.455 . S
U1766 O1787 2.449 . S
O1767 U1766 2.454 . S
O1767 C1769 1.353 . S
O1768 U1766 2.458 . S
O1768 C1769 1.286 . S
C1769 U1766 2.984 . S
C1769 O1767 1.353 . S
C1769 O1768 1.286 . S
C1769 C1771 1.363 . S
C1770 C1760 1.465 . S
C1770 U1766 2.847 . S
C1770 O1784 1.249 . S
C1770 O1785 1.202 . S
C1771 C1769 1.363 . S
C1771 C1773 1.408 . S
C1771 C1776 1.342 . S
C1772 C1773 1.310 . S
C1772 C1775 1.461 . S
C1772 H1792 0.932 . S
C1773 C1771 1.408 . S
C1773 C1772 1.310 . S
C1773 H1793 0.930 . S
C1774 C1775 1.474 . S
C1774 C1776 1.285 . S
C1774 H1794 0.929 . S
C1775 C1772 1.461 . S
C1775 C1774 1.474 . S
C1776 C1771 1.342 . S
C1776 C1774 1.285 . S
C1776 H1795 0.930 . S
C1777 C1780 1.424 . S
C1777 C1782 1.245 . S
C1777 C1783 1.428 . S
C1778 C1781 1.260 . S
C1778 C1782 1.477 . S
C1778 H1796 0.932 . S
C1779 C1780 1.384 . S
C1779 C1781 1.479 . S
C1779 H1797 0.929 . S
C1780 C1777 1.424 . S
C1780 C1779 1.384 . S
C1780 H1798 0.928 . S
C1781 C1778 1.260 . S
C1781 C1779 1.479 . S
C1782 C1777 1.245 . S
C1782 C1778 1.477 . S
C1782 H1799 0.932 . S
C1783 U1766 2.882 . S
C1783 C1777 1.428 . S
C1783 O1786 1.301 . S
C1783 O1787 1.282 . S
O1784 U1766 2.441 . S
O1784 C1770 1.249 . S
O1785 U1766 2.420 . S
O1785 C1770 1.202 . S
O1786 U1766 2.455 . S
O1786 C1783 1.301 . S
O1787 U1766 2.449 . S
O1787 C1783 1.282 . S
H1788 C1761 0.931 . S
H1789 C1763 0.929 . S
H1790 C1764 0.930 . S
H1791 C1765 0.931 . S
H1792 C1772 0.932 . S
H1793 C1773 0.930 . S
H1794 C1774 0.929 . S
H1795 C1776 0.930 . S
H1796 C1778 0.932 . S
H1797 C1779 0.929 . S
H1798 C1780 0.928 . S
H1799 C1782 0.932 . S
C1800 C1801 1.264 . S
C1800 C1805 1.479 . S
C1800 C1810 1.465 . S
C1801 C1800 1.264 . S
C1801 C1803 1.339 . S
C1801 H1828 0.931 . S
C1802 C1803 1.395 . S
C1802 C1804 1.320 . S
C1803 C1801 1.339 . S
C1803 C1802 1.395 . S
C1803 H1829 0.929 . S
C1804 C1802 1.320 . S
C1804 C1805 1.405 . S
C1804 H1830 0.930 . S
C1805 C1800 1.479 . S
C1805 C1804 1.405 . S
C1805 H1831 0.931 . S
U1806 O1807 2.454 . S
U1806 O1808 2.458 . S
U1806 C1809 2.984 . S
U1806 C1810 2.847 . S
U1806 C1823 2.882 . S
U1806 O1824 2.441 . S
U1806 O1825 2.420 . S
U1806 O1826 2.455 . S
U1806 O1827 2.449 . S
O1807 U1806 2.454 . S
O1807 C1809 1.353 . S
O1808 U1806 2.458 . S
O1808 C1809 1.286 . S
C1809 U1806 2.984 . S
C1809 O1807 1.353 . S
C1809 O1808 1.286 . S
C1809 C1811 1.363 . S
C1810 C1800 1.465 . S
C1810 U1806 2.847 . S
C1810 O1824 1.249 . S
C1810 O1825 1.202 . S
C1811 C1809 1.363 . S
C1811 C1813 1.408 . S
C1811 C1816 1.342 . S
C1812 C1813 1.310 . S
C1812 C1815 1.461 . S
C1812 H1832 0.932 . S
C1813 C1811 1.408 . S
C1813 C1812 1.310 . S
C1813 H1833 0.930 . S
C1814 C1815 1.474 . S
C1814 C1816 1.285 . S
C1814 H1834 0.929 1_554 S
C1815 C1812 1.461 . S
C1815 C1814 1.474 . S
C1816 C1811 1.342 . S
C1816 C1814 1.285 . S
C1816 H1835 0.930 . S
C1817 C1820 1.424 . S
C1817 C1822 1.245 1_554 S
C1817 C1823 1.428 . S
C1818 C1821 1.260 . S
C1818 C1822 1.477 . S
C1818 H1836 0.932 . S
C1819 C1820 1.430 . S
C1819 C1821 1.413 1_554 S
C1819 H1837 0.953 . S
C1820 C1817 1.424 . S
C1820 C1819 1.430 . S
C1820 H1838 0.928 . S
C1821 C1818 1.260 . S
C1821 C1819 1.413 1_556 S
C1822 C1817 1.245 1_556 S
C1822 C1818 1.477 . S
C1822 H1839 0.932 . S
C1823 U1806 2.882 . S
C1823 C1817 1.428 . S
C1823 O1826 1.301 . S
C1823 O1827 1.282 . S
O1824 U1806 2.441 . S
O1824 C1810 1.249 . S
O1825 U1806 2.420 . S
O1825 C1810 1.202 . S
O1826 U1806 2.455 . S
O1826 C1823 1.301 . S
O1827 U1806 2.449 . S
O1827 C1823 1.282 . S
H1828 C1801 0.931 . S
H1829 C1803 0.929 . S
H1830 C1804 0.930 . S
H1831 C1805 0.931 . S
H1832 C1812 0.932 . S
H1833 C1813 0.930 . S
H1834 C1814 0.929 1_556 S
H1835 C1816 0.930 . S
H1836 C1818 0.932 . S
H1837 C1819 0.953 . S
H1838 C1820 0.928 . S
H1839 C1822 0.932 . S
C1840 C1841 1.264 . S
C1840 C1845 1.479 . S
C1840 C1850 1.465 . S
C1841 C1840 1.264 . S
C1841 C1843 1.339 . S
C1841 H1868 0.931 . S
C1842 C1843 1.395 . S
C1842 C1844 1.320 . S
C1843 C1841 1.339 . S
C1843 C1842 1.395 . S
C1843 H1869 0.929 . S
C1844 C1842 1.320 . S
C1844 C1845 1.405 . S
C1844 H1870 0.930 . S
C1845 C1840 1.479 . S
C1845 C1844 1.405 . S
C1845 H1871 0.931 . S
U1846 O1847 2.454 . S
U1846 O1848 2.458 . S
U1846 C1849 2.984 . S
U1846 C1850 2.847 . S
U1846 C1863 2.882 . S
U1846 O1864 2.441 . S
U1846 O1865 2.420 . S
U1846 O1866 2.455 . S
U1846 O1867 2.449 . S
O1847 U1846 2.454 . S
O1847 C1849 1.353 . S
O1848 U1846 2.458 . S
O1848 C1849 1.286 . S
C1849 U1846 2.984 . S
C1849 O1847 1.353 . S
C1849 O1848 1.286 . S
C1849 C1851 1.363 . S
C1850 C1840 1.465 . S
C1850 U1846 2.847 . S
C1850 O1864 1.249 . S
C1850 O1865 1.202 . S
C1851 C1849 1.363 . S
C1851 C1853 1.408 . S
C1851 C1856 1.342 . S
C1852 C1853 1.310 . S
C1852 C1855 1.461 . S
C1852 H1872 0.932 . S
C1853 C1851 1.408 . S
C1853 C1852 1.310 . S
C1853 H1873 0.930 . S
C1854 C1855 1.474 . S
C1854 C1856 1.285 . S
C1854 H1874 0.865 1_554 S
C1855 C1852 1.461 . S
C1855 C1854 1.474 . S
C1856 C1851 1.342 . S
C1856 C1854 1.285 . S
C1856 H1875 0.930 . S
C1857 C1860 1.424 . S
C1857 C1862 1.245 1_554 S
C1857 C1863 1.428 . S
C1858 C1861 1.260 . S
C1858 C1862 1.477 . S
C1858 H1876 0.932 . S
C1859 C1860 1.384 . S
C1859 C1861 1.479 1_554 S
C1859 H1877 0.929 . S
C1860 C1857 1.424 . S
C1860 C1859 1.384 . S
C1860 H1878 0.928 . S
C1861 C1858 1.260 . S
C1861 C1859 1.479 1_556 S
C1862 C1857 1.245 1_556 S
C1862 C1858 1.477 . S
C1862 H1879 0.932 . S
C1863 U1846 2.882 . S
C1863 C1857 1.428 . S
C1863 O1866 1.301 . S
C1863 O1867 1.282 . S
O1864 U1846 2.441 . S
O1864 C1850 1.249 . S
O1865 U1846 2.420 . S
O1865 C1850 1.202 . S
O1866 U1846 2.455 . S
O1866 C1863 1.301 . S
O1867 U1846 2.449 . S
O1867 C1863 1.282 . S
H1868 C1841 0.931 . S
H1869 C1843 0.929 . S
H1870 C1844 0.930 . S
H1871 C1845 0.931 . S
H1872 C1852 0.932 . S
H1873 C1853 0.930 . S
H1874 C1854 0.865 1_556 S
H1875 C1856 0.930 . S
H1876 C1858 0.932 . S
H1877 C1859 0.929 . S
H1878 C1860 0.928 . S
H1879 C1862 0.932 . S
C1880 C1881 1.264 . S
C1880 C1885 1.479 . S
C1880 C1890 1.465 . S
C1881 C1880 1.264 . S
C1881 C1883 1.339 . S
C1881 H1908 0.931 . S
C1882 C1883 1.395 . S
C1882 C1884 1.320 . S
C1883 C1881 1.339 . S
C1883 C1882 1.395 . S
C1883 H1909 0.929 . S
C1884 C1882 1.320 . S
C1884 C1885 1.405 . S
C1884 H1910 0.930 . S
C1885 C1880 1.479 . S
C1885 C1884 1.405 . S
C1885 H1911 0.931 . S
U1886 O1887 2.454 . S
U1886 O1888 2.458 . S
U1886 C1889 2.984 . S
U1886 C1890 2.847 . S
U1886 C1903 2.882 . S
U1886 O1904 2.441 . S
U1886 O1905 2.420 . S
U1886 O1906 2.455 . S
U1886 O1907 2.449 . S
O1887 U1886 2.454 . S
O1887 C1889 1.353 . S
O1888 U1886 2.458 . S
O1888 C1889 1.286 . S
C1889 U1886 2.984 . S
C1889 O1887 1.353 . S
C1889 O1888 1.286 . S
C1889 C1891 1.363 . S
C1890 C1880 1.465 . S
C1890 U1886 2.847 . S
C1890 O1904 1.249 . S
C1890 O1905 1.202 . S
C1891 C1889 1.363 . S
C1891 C1893 1.408 . S
C1891 C1896 1.342 . S
C1892 C1893 1.310 . S
C1892 C1895 1.461 . S
C1892 H1912 0.932 . S
C1893 C1891 1.408 . S
C1893 C1892 1.310 . S
C1893 H1913 0.930 . S
C1894 C1895 1.474 . S
C1894 C1896 1.285 . S
C1894 H1914 0.865 1_556 S
C1895 C1892 1.461 . S
C1895 C1894 1.474 . S
C1896 C1891 1.342 . S
C1896 C1894 1.285 . S
C1896 H1915 0.930 . S
C1897 C1900 1.424 . S
C1897 C1902 1.245 1_556 S
C1897 C1903 1.428 . S
C1898 C1901 1.260 . S
C1898 C1902 1.477 . S
C1898 H1916 0.932 . S
C1899 C1900 1.384 . S
C1899 C1901 1.479 1_556 S
C1899 H1917 0.929 . S
C1900 C1897 1.424 . S
C1900 C1899 1.384 . S
C1900 H1918 0.928 . S
C1901 C1898 1.260 . S
C1901 C1899 1.479 1_554 S
C1902 C1897 1.245 1_554 S
C1902 C1898 1.477 . S
C1902 H1919 0.932 . S
C1903 U1886 2.882 . S
C1903 C1897 1.428 . S
C1903 O1906 1.301 . S
C1903 O1907 1.282 . S
O1904 U1886 2.441 . S
O1904 C1890 1.249 . S
O1905 U1886 2.420 . S
O1905 C1890 1.202 . S
O1906 U1886 2.455 . S
O1906 C1903 1.301 . S
O1907 U1886 2.449 . S
O1907 C1903 1.282 . S
H1908 C1881 0.931 . S
H1909 C1883 0.929 . S
H1910 C1884 0.930 . S
H1911 C1885 0.931 . S
H1912 C1892 0.932 . S
H1913 C1893 0.930 . S
H1914 C1894 0.865 1_554 S
H1915 C1896 0.930 . S
H1916 C1898 0.932 . S
H1917 C1899 0.929 . S
H1918 C1900 0.928 . S
H1919 C1902 0.932 . S
C1920 C1921 1.387 . S
C1920 H1924 0.950 . S
C1920 C1929 1.390 . S
C1921 C1920 1.387 . S
C1921 C1923 1.387 . S
H1922 C1929 0.950 . S
C1923 C1921 1.387 . S
C1923 C1925 1.390 . S
C1923 H1927 0.950 . S
H1924 C1920 0.950 . S
C1925 C1923 1.390 . S
C1925 C1926 1.387 . S
C1925 H1928 0.950 . S
C1926 C1925 1.387 . S
C1926 C1929 1.387 . S
H1927 C1923 0.950 . S
H1928 C1925 0.950 . S
C1929 C1920 1.390 . S
C1929 H1922 0.950 . S
C1929 C1926 1.387 . S
C1930 C1931 1.387 . S
C1930 H1934 0.950 . S
C1930 C1939 1.390 . S
C1931 C1930 1.387 . S
C1931 C1933 1.387 . S
H1932 C1939 0.950 . S
C1933 C1931 1.387 . S
C1933 C1935 1.390 . S
C1933 H1937 0.950 . S
H1934 C1930 0.950 . S
C1935 C1933 1.390 . S
C1935 C1936 1.387 . S
C1935 H1938 0.950 . S
C1936 C1935 1.387 . S
C1936 C1939 1.387 . S
H1937 C1933 0.950 . S
H1938 C1935 0.950 . S
C1939 C1930 1.390 . S
C1939 H1932 0.950 . S
C1939 C1936 1.387 . S
C1940 C1941 1.387 . S
C1940 H1944 0.950 . S
C1940 C1949 1.390 . S
C1941 C1940 1.387 . S
C1941 C1943 1.387 . S
H1942 C1949 0.950 . S
C1943 C1941 1.387 . S
C1943 C1945 1.390 . S
C1943 H1947 0.950 . S
H1944 C1940 0.950 . S
C1945 C1943 1.390 . S
C1945 C1946 1.387 . S
C1945 H1948 0.950 . S
C1946 C1945 1.387 . S
C1946 C1949 1.387 . S
H1947 C1943 0.950 . S
H1948 C1945 0.950 . S
C1949 C1940 1.390 . S
C1949 H1942 0.950 . S
C1949 C1946 1.387 . S
C1950 C1951 1.387 . S
C1950 H1954 0.950 . S
C1950 C1959 1.390 . S
C1951 C1950 1.387 . S
C1951 C1953 1.387 . S
H1952 C1959 0.950 . S
C1953 C1951 1.387 . S
C1953 C1955 1.390 . S
C1953 H1957 0.950 . S
H1954 C1950 0.950 . S
C1955 C1953 1.390 . S
C1955 C1956 1.387 . S
C1955 H1958 0.950 . S
C1956 C1955 1.387 . S
C1956 C1959 1.387 . S
H1957 C1953 0.950 . S
H1958 C1955 0.950 . S
C1959 C1950 1.390 . S
C1959 H1952 0.950 . S
C1959 C1956 1.387 . S
C1960 C1961 1.387 . S
C1960 H1964 0.950 . S
C1960 C1969 1.390 . S
C1961 C1960 1.387 . S
C1961 C1963 1.387 . S
H1962 C1969 0.950 . S
C1963 C1961 1.387 . S
C1963 C1965 1.390 . S
C1963 H1967 0.950 . S
H1964 C1960 0.950 . S
C1965 C1963 1.390 . S
C1965 C1966 1.387 . S
C1965 H1968 0.950 . S
C1966 C1965 1.387 . S
C1966 C1969 1.387 . S
H1967 C1963 0.950 . S
H1968 C1965 0.950 . S
C1969 C1960 1.390 . S
C1969 H1962 0.950 . S
C1969 C1966 1.387 . S
C1970 C1971 1.387 . S
C1970 H1974 0.950 . S
C1970 C1979 1.390 . S
C1971 C1970 1.387 . S
C1971 C1973 1.387 . S
H1972 C1979 0.950 . S
C1973 C1971 1.387 . S
C1973 C1975 1.390 . S
C1973 H1977 0.950 . S
H1974 C1970 0.950 . S
C1975 C1973 1.390 . S
C1975 C1976 1.387 . S
C1975 H1978 0.950 . S
C1976 C1975 1.387 . S
C1976 C1979 1.387 . S
H1977 C1973 0.950 . S
H1978 C1975 0.950 . S
C1979 C1970 1.390 . S
C1979 H1972 0.950 . S
C1979 C1976 1.387 . S
C1980 C1981 1.387 . S
C1980 H1984 0.950 . S
C1980 C1989 1.390 . S
C1981 C1980 1.387 . S
C1981 C1983 1.387 . S
H1982 C1989 0.950 . S
C1983 C1981 1.387 . S
C1983 C1985 1.390 . S
C1983 H1987 0.950 . S
H1984 C1980 0.950 . S
C1985 C1983 1.390 . S
C1985 C1986 1.387 . S
C1985 H1988 0.950 . S
C1986 C1985 1.387 . S
C1986 C1989 1.387 . S
H1987 C1983 0.950 . S
H1988 C1985 0.950 . S
C1989 C1980 1.390 . S
C1989 H1982 0.950 . S
C1989 C1986 1.387 . S
C1990 C1991 1.387 . S
C1990 H1994 0.950 . S
C1990 C1999 1.390 . S
C1991 C1990 1.387 . S
C1991 C1993 1.387 . S
H1992 C1999 0.950 . S
C1993 C1991 1.387 . S
C1993 C1995 1.390 . S
C1993 H1997 0.950 . S
H1994 C1990 0.950 . S
C1995 C1993 1.390 . S
C1995 C1996 1.387 . S
C1995 H1998 0.950 . S
C1996 C1995 1.387 . S
C1996 C1999 1.387 . S
H1997 C1993 0.950 . S
H1998 C1995 0.950 . S
C1999 C1990 1.390 . S
C1999 H1992 0.950 . S
C1999 C1996 1.387 . S
C2000 C2001 1.387 . S
C2000 H2004 0.950 . S
C2000 C2009 1.390 . S
C2001 C2000 1.387 . S
C2001 C2003 1.387 . S
H2002 C2009 0.950 . S
C2003 C2001 1.387 . S
C2003 C2005 1.390 . S
C2003 H2007 0.950 . S
H2004 C2000 0.950 . S
C2005 C2003 1.390 . S
C2005 C2006 1.387 . S
C2005 H2008 0.950 . S
C2006 C2005 1.387 . S
C2006 C2009 1.387 . S
H2007 C2003 0.950 . S
H2008 C2005 0.950 . S
C2009 C2000 1.390 . S
C2009 H2002 0.950 . S
C2009 C2006 1.387 . S
C2010 C2011 1.387 . S
C2010 H2014 0.950 . S
C2010 C2019 1.390 . S
C2011 C2010 1.387 . S
C2011 C2013 1.387 . S
H2012 C2019 0.950 . S
C2013 C2011 1.387 . S
C2013 C2015 1.390 . S
C2013 H2017 0.950 . S
H2014 C2010 0.950 . S
C2015 C2013 1.390 . S
C2015 C2016 1.387 . S
C2015 H2018 0.950 . S
C2016 C2015 1.387 . S
C2016 C2019 1.387 . S
H2017 C2013 0.950 . S
H2018 C2015 0.950 . S
C2019 C2010 1.390 . S
C2019 H2012 0.950 . S
C2019 C2016 1.387 . S
C2020 C2021 1.387 . S
C2020 H2024 0.950 . S
C2020 C2029 1.390 . S
C2021 C2020 1.387 . S
C2021 C2023 1.387 . S
H2022 C2029 0.950 . S
C2023 C2021 1.387 . S
C2023 C2025 1.390 . S
C2023 H2027 0.950 . S
H2024 C2020 0.950 . S
C2025 C2023 1.390 . S
C2025 C2026 1.387 . S
C2025 H2028 0.950 . S
C2026 C2025 1.387 . S
C2026 C2029 1.387 . S
H2027 C2023 0.950 . S
H2028 C2025 0.950 . S
C2029 C2020 1.390 . S
C2029 H2022 0.950 . S
C2029 C2026 1.387 . S
C2030 C2031 1.387 . S
C2030 H2034 0.950 . S
C2030 C2039 1.390 . S
C2031 C2030 1.387 . S
C2031 C2033 1.387 . S
H2032 C2039 0.950 . S
C2033 C2031 1.387 . S
C2033 C2035 1.390 . S
C2033 H2037 0.950 . S
H2034 C2030 0.950 . S
C2035 C2033 1.390 . S
C2035 C2036 1.387 . S
C2035 H2038 0.950 . S
C2036 C2035 1.387 . S
C2036 C2039 1.387 . S
H2037 C2033 0.950 . S
H2038 C2035 0.950 . S
C2039 C2030 1.390 . S
C2039 H2032 0.950 . S
C2039 C2036 1.387 . S
C2040 C2041 1.387 . S
C2040 H2044 0.950 . S
C2040 C2049 1.390 . S
C2041 C2040 1.387 . S
C2041 C2043 1.387 . S
H2042 C2049 0.950 . S
C2043 C2041 1.387 . S
C2043 C2045 1.390 . S
C2043 H2047 0.950 . S
H2044 C2040 0.950 . S
C2045 C2043 1.390 . S
C2045 C2046 1.387 . S
C2045 H2048 0.950 . S
C2046 C2045 1.387 . S
C2046 C2049 1.387 . S
H2047 C2043 0.950 . S
H2048 C2045 0.950 . S
C2049 C2040 1.390 . S
C2049 H2042 0.950 . S
C2049 C2046 1.387 . S
C2050 C2051 1.387 . S
C2050 H2054 0.950 . S
C2050 C2059 1.390 . S
C2051 C2050 1.387 . S
C2051 C2053 1.387 . S
H2052 C2059 0.950 . S
C2053 C2051 1.387 . S
C2053 C2055 1.390 . S
C2053 H2057 0.950 . S
H2054 C2050 0.950 . S
C2055 C2053 1.390 . S
C2055 C2056 1.387 . S
C2055 H2058 0.950 . S
C2056 C2055 1.387 . S
C2056 C2059 1.387 . S
H2057 C2053 0.950 . S
H2058 C2055 0.950 . S
C2059 C2050 1.390 . S
C2059 H2052 0.950 . S
C2059 C2056 1.387 . S
C2060 C2061 1.387 . S
C2060 H2064 0.950 . S
C2060 C2069 1.390 . S
C2061 C2060 1.387 . S
C2061 C2063 1.387 . S
H2062 C2069 0.950 . S
C2063 C2061 1.387 . S
C2063 C2065 1.390 . S
C2063 H2067 0.950 . S
H2064 C2060 0.950 . S
C2065 C2063 1.390 . S
C2065 C2066 1.387 . S
C2065 H2068 0.950 . S
C2066 C2065 1.387 . S
C2066 C2069 1.387 . S
H2067 C2063 0.950 . S
H2068 C2065 0.950 . S
C2069 C2060 1.390 . S
C2069 H2062 0.950 . S
C2069 C2066 1.387 . S
C2070 C2071 1.387 . S
C2070 H2074 0.950 . S
C2070 C2079 1.390 . S
C2071 C2070 1.387 . S
C2071 C2073 1.387 . S
H2072 C2079 0.950 . S
C2073 C2071 1.387 . S
C2073 C2075 1.390 . S
C2073 H2077 0.950 . S
H2074 C2070 0.950 . S
C2075 C2073 1.390 . S
C2075 C2076 1.387 . S
C2075 H2078 0.950 . S
C2076 C2075 1.387 . S
C2076 C2079 1.387 . S
H2077 C2073 0.950 . S
H2078 C2075 0.950 . S
C2079 C2070 1.390 . S
C2079 H2072 0.950 . S
C2079 C2076 1.387 . S
C2080 C2081 1.387 . S
C2080 H2084 0.950 . S
C2080 C2089 1.390 . S
C2081 C2080 1.387 . S
C2081 C2083 1.387 . S
H2082 C2089 0.950 . S
C2083 C2081 1.387 . S
C2083 C2085 1.390 . S
C2083 H2087 0.950 . S
H2084 C2080 0.950 . S
C2085 C2083 1.390 . S
C2085 C2086 1.387 . S
C2085 H2088 0.950 . S
C2086 C2085 1.387 . S
C2086 C2089 1.387 . S
H2087 C2083 0.950 . S
H2088 C2085 0.950 . S
C2089 C2080 1.390 . S
C2089 H2082 0.950 . S
C2089 C2086 1.387 . S
C2090 C2091 1.387 . S
C2090 H2094 0.950 . S
C2090 C2099 1.390 . S
C2091 C2090 1.387 . S
C2091 C2093 1.387 . S
H2092 C2099 0.950 . S
C2093 C2091 1.387 . S
C2093 C2095 1.390 . S
C2093 H2097 0.950 . S
H2094 C2090 0.950 . S
C2095 C2093 1.390 . S
C2095 C2096 1.387 . S
C2095 H2098 0.950 . S
C2096 C2095 1.387 . S
C2096 C2099 1.387 . S
H2097 C2093 0.950 . S
H2098 C2095 0.950 . S
C2099 C2090 1.390 . S
C2099 H2092 0.950 . S
C2099 C2096 1.387 . S
C2100 C2101 1.387 . S
C2100 H2104 0.950 . S
C2100 C2109 1.390 . S
C2101 C2100 1.387 . S
C2101 C2103 1.387 . S
H2102 C2109 0.950 . S
C2103 C2101 1.387 . S
C2103 C2105 1.390 . S
C2103 H2107 0.950 . S
H2104 C2100 0.950 . S
C2105 C2103 1.390 . S
C2105 C2106 1.387 . S
C2105 H2108 0.950 . S
C2106 C2105 1.387 . S
C2106 C2109 1.387 . S
H2107 C2103 0.950 . S
H2108 C2105 0.950 . S
C2109 C2100 1.390 . S
C2109 H2102 0.950 . S
C2109 C2106 1.387 . S
C2110 C2111 1.387 . S
C2110 H2114 0.950 . S
C2110 C2119 1.390 . S
C2111 C2110 1.387 . S
C2111 C2113 1.387 . S
H2112 C2119 0.950 . S
C2113 C2111 1.387 . S
C2113 C2115 1.390 . S
C2113 H2117 0.950 . S
H2114 C2110 0.950 . S
C2115 C2113 1.390 . S
C2115 C2116 1.387 . S
C2115 H2118 0.950 . S
C2116 C2115 1.387 . S
C2116 C2119 1.387 . S
H2117 C2113 0.950 . S
H2118 C2115 0.950 . S
C2119 C2110 1.390 . S
C2119 H2112 0.950 . S
C2119 C2116 1.387 . S
C2120 C2121 1.387 . S
C2120 H2124 0.950 . S
C2120 C2129 1.390 . S
C2121 C2120 1.387 . S
C2121 C2123 1.387 . S
H2122 C2129 0.950 . S
C2123 C2121 1.387 . S
C2123 C2125 1.390 . S
C2123 H2127 0.950 . S
H2124 C2120 0.950 . S
C2125 C2123 1.390 . S
C2125 C2126 1.387 . S
C2125 H2128 0.950 . S
C2126 C2125 1.387 . S
C2126 C2129 1.387 . S
H2127 C2123 0.950 . S
H2128 C2125 0.950 . S
C2129 C2120 1.390 . S
C2129 H2122 0.950 . S
C2129 C2126 1.387 . S
C2130 C2131 1.387 . S
C2130 H2134 0.950 . S
C2130 C2139 1.390 . S
C2131 C2130 1.387 . S
C2131 C2133 1.387 . S
H2132 C2139 0.950 . S
C2133 C2131 1.387 . S
C2133 C2135 1.390 . S
C2133 H2137 0.950 . S
H2134 C2130 0.950 . S
C2135 C2133 1.390 . S
C2135 C2136 1.387 . S
C2135 H2138 0.950 . S
C2136 C2135 1.387 . S
C2136 C2139 1.387 . S
H2137 C2133 0.950 . S
H2138 C2135 0.950 . S
C2139 C2130 1.390 . S
C2139 H2132 0.950 . S
C2139 C2136 1.387 . S
C2140 C2141 1.387 . S
C2140 H2144 0.950 . S
C2140 C2149 1.390 . S
C2141 C2140 1.387 . S
C2141 C2143 1.387 . S
H2142 C2149 0.950 . S
C2143 C2141 1.387 . S
C2143 C2145 1.390 . S
C2143 H2147 0.950 . S
H2144 C2140 0.950 . S
C2145 C2143 1.390 . S
C2145 C2146 1.387 . S
C2145 H2148 0.950 . S
C2146 C2145 1.387 . S
C2146 C2149 1.387 . S
H2147 C2143 0.950 . S
H2148 C2145 0.950 . S
C2149 C2140 1.390 . S
C2149 H2142 0.950 . S
C2149 C2146 1.387 . S
C2150 C2151 1.387 . S
C2150 H2154 0.950 . S
C2150 C2159 1.390 . S
C2151 C2150 1.387 . S
C2151 C2153 1.387 . S
H2152 C2159 0.950 . S
C2153 C2151 1.387 . S
C2153 C2155 1.390 . S
C2153 H2157 0.950 . S
H2154 C2150 0.950 . S
C2155 C2153 1.390 . S
C2155 C2156 1.387 . S
C2155 H2158 0.950 . S
C2156 C2155 1.387 . S
C2156 C2159 1.387 . S
H2157 C2153 0.950 . S
H2158 C2155 0.950 . S
C2159 C2150 1.390 . S
C2159 H2152 0.950 . S
C2159 C2156 1.387 . S
C2160 C2161 1.387 . S
C2160 H2164 0.950 . S
C2160 C2169 1.390 . S
C2161 C2160 1.387 . S
C2161 C2163 1.387 . S
H2162 C2169 0.950 . S
C2163 C2161 1.387 . S
C2163 C2165 1.390 . S
C2163 H2167 0.950 . S
H2164 C2160 0.950 . S
C2165 C2163 1.390 . S
C2165 C2166 1.387 . S
C2165 H2168 0.950 . S
C2166 C2165 1.387 . S
C2166 C2169 1.387 . S
H2167 C2163 0.950 . S
H2168 C2165 0.950 . S
C2169 C2160 1.390 . S
C2169 H2162 0.950 . S
C2169 C2166 1.387 . S
C2170 C2171 1.387 . S
C2170 H2174 0.950 . S
C2170 C2179 1.390 . S
C2171 C2170 1.387 . S
C2171 C2173 1.387 . S
H2172 C2179 0.950 . S
C2173 C2171 1.387 . S
C2173 C2175 1.390 . S
C2173 H2177 0.950 . S
H2174 C2170 0.950 . S
C2175 C2173 1.390 . S
C2175 C2176 1.387 . S
C2175 H2178 0.950 . S
C2176 C2175 1.387 . S
C2176 C2179 1.387 . S
H2177 C2173 0.950 . S
H2178 C2175 0.950 . S
C2179 C2170 1.390 . S
C2179 H2172 0.950 . S
C2179 C2176 1.387 . S
C2180 C2181 1.387 . S
C2180 H2184 0.950 . S
C2180 C2189 1.390 . S
C2181 C2180 1.387 . S
C2181 C2183 1.387 . S
H2182 C2189 0.950 . S
C2183 C2181 1.387 . S
C2183 C2185 1.390 . S
C2183 H2187 0.950 . S
H2184 C2180 0.950 . S
C2185 C2183 1.390 . S
C2185 C2186 1.387 . S
C2185 H2188 0.950 . S
C2186 C2185 1.387 . S
C2186 C2189 1.387 . S
H2187 C2183 0.950 . S
H2188 C2185 0.950 . S
C2189 C2180 1.390 . S
C2189 H2182 0.950 . S
C2189 C2186 1.387 . S
C2190 C2191 1.387 . S
C2190 H2194 0.950 . S
C2190 C2199 1.390 . S
C2191 C2190 1.387 . S
C2191 C2193 1.387 . S
H2192 C2199 0.950 . S
C2193 C2191 1.387 . S
C2193 C2195 1.390 . S
C2193 H2197 0.950 . S
H2194 C2190 0.950 . S
C2195 C2193 1.390 . S
C2195 C2196 1.387 . S
C2195 H2198 0.950 . S
C2196 C2195 1.387 . S
C2196 C2199 1.387 . S
H2197 C2193 0.950 . S
H2198 C2195 0.950 . S
C2199 C2190 1.390 . S
C2199 H2192 0.950 . S
C2199 C2196 1.387 . S
C2200 C2201 1.387 . S
C2200 H2204 0.950 . S
C2200 C2209 1.390 . S
C2201 C2200 1.387 . S
C2201 C2203 1.387 . S
H2202 C2209 0.950 . S
C2203 C2201 1.387 . S
C2203 C2205 1.390 . S
C2203 H2207 0.950 . S
H2204 C2200 0.950 . S
C2205 C2203 1.390 . S
C2205 C2206 1.387 . S
C2205 H2208 0.950 . S
C2206 C2205 1.387 . S
C2206 C2209 1.387 . S
H2207 C2203 0.950 . S
H2208 C2205 0.950 . S
C2209 C2200 1.390 . S
C2209 H2202 0.950 . S
C2209 C2206 1.387 . S
C2210 C2211 1.387 . S
C2210 H2214 0.950 . S
C2210 C2219 1.390 . S
C2211 C2210 1.387 . S
C2211 C2213 1.387 . S
H2212 C2219 0.950 . S
C2213 C2211 1.387 . S
C2213 C2215 1.390 . S
C2213 H2217 0.950 . S
H2214 C2210 0.950 . S
C2215 C2213 1.390 . S
C2215 C2216 1.387 . S
C2215 H2218 0.950 . S
C2216 C2215 1.387 . S
C2216 C2219 1.387 . S
H2217 C2213 0.950 . S
H2218 C2215 0.950 . S
C2219 C2210 1.390 . S
C2219 H2212 0.950 . S
C2219 C2216 1.387 . S
C2220 C2221 1.387 . S
C2220 H2224 0.950 . S
C2220 C2229 1.390 . S
C2221 C2220 1.387 . S
C2221 C2223 1.387 . S
H2222 C2229 0.950 . S
C2223 C2221 1.387 . S
C2223 C2225 1.390 . S
C2223 H2227 0.950 . S
H2224 C2220 0.950 . S
C2225 C2223 1.390 . S
C2225 C2226 1.387 . S
C2225 H2228 0.950 . S
C2226 C2225 1.387 . S
C2226 C2229 1.387 . S
H2227 C2223 0.950 . S
H2228 C2225 0.950 . S
C2229 C2220 1.390 . S
C2229 H2222 0.950 . S
C2229 C2226 1.387 . S
C2230 C2231 1.387 . S
C2230 H2234 0.950 . S
C2230 C2239 1.390 . S
C2231 C2230 1.387 . S
C2231 C2233 1.387 . S
H2232 C2239 0.950 . S
C2233 C2231 1.387 . S
C2233 C2235 1.390 . S
C2233 H2237 0.950 . S
H2234 C2230 0.950 . S
C2235 C2233 1.390 . S
C2235 C2236 1.387 . S
C2235 H2238 0.950 . S
C2236 C2235 1.387 . S
C2236 C2239 1.387 . S
H2237 C2233 0.950 . S
H2238 C2235 0.950 . S
C2239 C2230 1.390 . S
C2239 H2232 0.950 . S
C2239 C2236 1.387 . S
C2240 C2241 1.387 . S
C2240 H2244 0.950 . S
C2240 C2249 1.390 . S
C2241 C2240 1.387 . S
C2241 C2243 1.387 . S
H2242 C2249 0.950 . S
C2243 C2241 1.387 . S
C2243 C2245 1.390 . S
C2243 H2247 0.950 . S
H2244 C2240 0.950 . S
C2245 C2243 1.390 . S
C2245 C2246 1.387 . S
C2245 H2248 0.950 . S
C2246 C2245 1.387 . S
C2246 C2249 1.387 . S
H2247 C2243 0.950 . S
H2248 C2245 0.950 . S
C2249 C2240 1.390 . S
C2249 H2242 0.950 . S
C2249 C2246 1.387 . S
C2250 C2251 1.387 . S
C2250 H2254 0.950 . S
C2250 C2259 1.390 . S
C2251 C2250 1.387 . S
C2251 C2253 1.387 . S
H2252 C2259 0.950 . S
C2253 C2251 1.387 . S
C2253 C2255 1.390 . S
C2253 H2257 0.950 . S
H2254 C2250 0.950 . S
C2255 C2253 1.390 . S
C2255 C2256 1.387 . S
C2255 H2258 0.950 . S
C2256 C2255 1.387 . S
C2256 C2259 1.387 . S
H2257 C2253 0.950 . S
H2258 C2255 0.950 . S
C2259 C2250 1.390 . S
C2259 H2252 0.950 . S
C2259 C2256 1.387 . S
C2260 C2261 1.387 . S
C2260 H2264 0.950 . S
C2260 C2269 1.390 . S
C2261 C2260 1.387 . S
C2261 C2263 1.387 . S
H2262 C2269 0.950 . S
C2263 C2261 1.387 . S
C2263 C2265 1.390 . S
C2263 H2267 0.950 . S
H2264 C2260 0.950 . S
C2265 C2263 1.390 . S
C2265 C2266 1.387 . S
C2265 H2268 0.950 . S
C2266 C2265 1.387 . S
C2266 C2269 1.387 . S
H2267 C2263 0.950 . S
H2268 C2265 0.950 . S
C2269 C2260 1.390 . S
C2269 H2262 0.950 . S
C2269 C2266 1.387 . S
C2270 C2271 1.387 . S
C2270 H2274 0.950 . S
C2270 C2279 1.390 . S
C2271 C2270 1.387 . S
C2271 C2273 1.387 . S
H2272 C2279 0.950 . S
C2273 C2271 1.387 . S
C2273 C2275 1.390 . S
C2273 H2277 0.950 . S
H2274 C2270 0.950 . S
C2275 C2273 1.390 . S
C2275 C2276 1.387 . S
C2275 H2278 0.950 . S
C2276 C2275 1.387 . S
C2276 C2279 1.387 . S
H2277 C2273 0.950 . S
H2278 C2275 0.950 . S
C2279 C2270 1.390 . S
C2279 H2272 0.950 . S
C2279 C2276 1.387 . S
C2280 C2281 1.387 . S
C2280 H2284 0.950 . S
C2280 C2289 1.390 . S
C2281 C2280 1.387 . S
C2281 C2283 1.387 . S
H2282 C2289 0.950 . S
C2283 C2281 1.387 . S
C2283 C2285 1.390 . S
C2283 H2287 0.950 . S
H2284 C2280 0.950 . S
C2285 C2283 1.390 . S
C2285 C2286 1.387 . S
C2285 H2288 0.950 . S
C2286 C2285 1.387 . S
C2286 C2289 1.387 . S
H2287 C2283 0.950 . S
H2288 C2285 0.950 . S
C2289 C2280 1.390 . S
C2289 H2282 0.950 . S
C2289 C2286 1.387 . S
C2290 C2291 1.387 . S
C2290 H2294 0.950 . S
C2290 C2299 1.390 . S
C2291 C2290 1.387 . S
C2291 C2293 1.387 . S
H2292 C2299 0.950 . S
C2293 C2291 1.387 . S
C2293 C2295 1.390 . S
C2293 H2297 0.950 . S
H2294 C2290 0.950 . S
C2295 C2293 1.390 . S
C2295 C2296 1.387 . S
C2295 H2298 0.950 . S
C2296 C2295 1.387 . S
C2296 C2299 1.387 . S
H2297 C2293 0.950 . S
H2298 C2295 0.950 . S
C2299 C2290 1.390 . S
C2299 H2292 0.950 . S
C2299 C2296 1.387 . S
C2300 C2301 1.387 . S
C2300 H2304 0.950 . S
C2300 C2309 1.390 . S
C2301 C2300 1.387 . S
C2301 C2303 1.387 . S
H2302 C2309 0.950 . S
C2303 C2301 1.387 . S
C2303 C2305 1.390 . S
C2303 H2307 0.950 . S
H2304 C2300 0.950 . S
C2305 C2303 1.390 . S
C2305 C2306 1.387 . S
C2305 H2308 0.950 . S
C2306 C2305 1.387 . S
C2306 C2309 1.387 . S
H2307 C2303 0.950 . S
H2308 C2305 0.950 . S
C2309 C2300 1.390 . S
C2309 H2302 0.950 . S
C2309 C2306 1.387 . S
C2310 C2311 1.387 . S
C2310 H2314 0.950 . S
C2310 C2319 1.390 . S
C2311 C2310 1.387 . S
C2311 C2313 1.387 . S
H2312 C2319 0.950 . S
C2313 C2311 1.387 . S
C2313 C2315 1.390 . S
C2313 H2317 0.950 . S
H2314 C2310 0.950 . S
C2315 C2313 1.390 . S
C2315 C2316 1.387 . S
C2315 H2318 0.950 . S
C2316 C2315 1.387 . S
C2316 C2319 1.387 . S
H2317 C2313 0.950 . S
H2318 C2315 0.950 . S
C2319 C2310 1.390 . S
C2319 H2312 0.950 . S
C2319 C2316 1.387 . S
C2320 C2321 1.387 . S
C2320 H2324 0.950 . S
C2320 C2329 1.390 . S
C2321 C2320 1.387 . S
C2321 C2323 1.387 . S
H2322 C2329 0.950 . S
C2323 C2321 1.387 . S
C2323 C2325 1.390 . S
C2323 H2327 0.950 . S
H2324 C2320 0.950 . S
C2325 C2323 1.390 . S
C2325 C2326 1.387 . S
C2325 H2328 0.950 . S
C2326 C2325 1.387 . S
C2326 C2329 1.387 . S
H2327 C2323 0.950 . S
H2328 C2325 0.950 . S
C2329 C2320 1.390 . S
C2329 H2322 0.950 . S
C2329 C2326 1.387 . S
C2330 C2331 1.387 . S
C2330 H2334 0.950 . S
C2330 C2339 1.390 . S
C2331 C2330 1.387 . S
C2331 C2333 1.387 . S
H2332 C2339 0.950 . S
C2333 C2331 1.387 . S
C2333 C2335 1.390 . S
C2333 H2337 0.950 . S
H2334 C2330 0.950 . S
C2335 C2333 1.390 . S
C2335 C2336 1.387 . S
C2335 H2338 0.950 . S
C2336 C2335 1.387 . S
C2336 C2339 1.387 . S
H2337 C2333 0.950 . S
H2338 C2335 0.950 . S
C2339 C2330 1.390 . S
C2339 H2332 0.950 . S
C2339 C2336 1.387 . S
C2340 C2341 1.387 . S
C2340 H2344 0.950 . S
C2340 C2349 1.390 . S
C2341 C2340 1.387 . S
C2341 C2343 1.387 . S
H2342 C2349 0.950 . S
C2343 C2341 1.387 . S
C2343 C2345 1.390 . S
C2343 H2347 0.950 . S
H2344 C2340 0.950 . S
C2345 C2343 1.390 . S
C2345 C2346 1.387 . S
C2345 H2348 0.950 . S
C2346 C2345 1.387 . S
C2346 C2349 1.387 . S
H2347 C2343 0.950 . S
H2348 C2345 0.950 . S
C2349 C2340 1.390 . S
C2349 H2342 0.950 . S
C2349 C2346 1.387 . S
C2350 C2351 1.387 . S
C2350 H2354 0.950 . S
C2350 C2359 1.390 . S
C2351 C2350 1.387 . S
C2351 C2353 1.387 . S
H2352 C2359 0.950 . S
C2353 C2351 1.387 . S
C2353 C2355 1.390 . S
C2353 H2357 0.950 . S
H2354 C2350 0.950 . S
C2355 C2353 1.390 . S
C2355 C2356 1.387 . S
C2355 H2358 0.950 . S
C2356 C2355 1.387 . S
C2356 C2359 1.387 . S
H2357 C2353 0.950 . S
H2358 C2355 0.950 . S
C2359 C2350 1.390 . S
C2359 H2352 0.950 . S
C2359 C2356 1.387 . S
C2360 C2361 1.387 . S
C2360 H2364 0.950 . S
C2360 C2369 1.390 . S
C2361 C2360 1.387 . S
C2361 C2363 1.387 . S
H2362 C2369 0.950 . S
C2363 C2361 1.387 . S
C2363 C2365 1.390 . S
C2363 H2367 0.950 . S
H2364 C2360 0.950 . S
C2365 C2363 1.390 . S
C2365 C2366 1.387 . S
C2365 H2368 0.950 . S
C2366 C2365 1.387 . S
C2366 C2369 1.387 . S
H2367 C2363 0.950 . S
H2368 C2365 0.950 . S
C2369 C2360 1.390 . S
C2369 H2362 0.950 . S
C2369 C2366 1.387 . S
C2370 C2371 1.387 . S
C2370 H2374 0.950 . S
C2370 C2379 1.390 . S
C2371 C2370 1.387 . S
C2371 C2373 1.387 . S
H2372 C2379 0.950 . S
C2373 C2371 1.387 . S
C2373 C2375 1.390 . S
C2373 H2377 0.950 . S
H2374 C2370 0.950 . S
C2375 C2373 1.390 . S
C2375 C2376 1.387 . S
C2375 H2378 0.950 . S
C2376 C2375 1.387 . S
C2376 C2379 1.387 . S
H2377 C2373 0.950 . S
H2378 C2375 0.950 . S
C2379 C2370 1.390 . S
C2379 H2372 0.950 . S
C2379 C2376 1.387 . S
C2380 C2381 1.387 . S
C2380 H2384 0.950 . S
C2380 C2389 1.390 . S
C2381 C2380 1.387 . S
C2381 C2383 1.387 . S
H2382 C2389 0.950 . S
C2383 C2381 1.387 . S
C2383 C2385 1.390 . S
C2383 H2387 0.950 . S
H2384 C2380 0.950 . S
C2385 C2383 1.390 . S
C2385 C2386 1.387 . S
C2385 H2388 0.950 . S
C2386 C2385 1.387 . S
C2386 C2389 1.387 . S
H2387 C2383 0.950 . S
H2388 C2385 0.950 . S
C2389 C2380 1.390 . S
C2389 H2382 0.950 . S
C2389 C2386 1.387 . S
C2390 C2391 1.387 . S
C2390 H2394 0.950 . S
C2390 C2399 1.390 . S
C2391 C2390 1.387 . S
C2391 C2393 1.387 . S
H2392 C2399 0.950 . S
C2393 C2391 1.387 . S
C2393 C2395 1.390 . S
C2393 H2397 0.950 . S
H2394 C2390 0.950 . S
C2395 C2393 1.390 . S
C2395 C2396 1.387 . S
C2395 H2398 0.950 . S
C2396 C2395 1.387 . S
C2396 C2399 1.387 . S
H2397 C2393 0.950 . S
H2398 C2395 0.950 . S
C2399 C2390 1.390 . S
C2399 H2392 0.950 . S
C2399 C2396 1.387 . S
C2400 C2401 1.387 . S
C2400 H2404 0.950 . S
C2400 C2409 1.390 1_655 S
C2401 C2400 1.387 . S
C2401 C2403 1.387 . S
H2402 C2409 0.950 . S
C2403 C2401 1.387 . S
C2403 C2405 1.390 1_655 S
C2403 H2407 0.950 . S
H2404 C2400 0.950 . S
C2405 C2403 1.390 1_455 S
C2405 C2406 1.387 . S
C2405 H2408 0.950 . S
C2406 C2405 1.387 . S
C2406 C2409 1.387 . S
H2407 C2403 0.950 . S
H2408 C2405 0.950 . S
C2409 C2400 1.390 1_455 S
C2409 H2402 0.950 . S
C2409 C2406 1.387 . S
C2410 C2411 1.387 . S
C2410 H2414 0.950 . S
C2410 C2419 1.390 1_455 S
C2411 C2410 1.387 . S
C2411 C2413 1.387 . S
H2412 C2419 0.950 . S
C2413 C2411 1.387 . S
C2413 C2415 1.390 1_455 S
C2413 H2417 0.950 . S
H2414 C2410 0.950 . S
C2415 C2413 1.390 1_655 S
C2415 C2416 1.387 . S
C2415 H2418 0.950 . S
C2416 C2415 1.387 . S
C2416 C2419 1.387 . S
H2417 C2413 0.950 . S
H2418 C2415 0.950 . S
C2419 C2410 1.390 1_655 S
C2419 H2412 0.950 . S
C2419 C2416 1.387 . S
C2420 C2421 1.387 . S
C2420 H2424 0.950 . S
C2420 C2429 1.390 1_545 S
C2421 C2420 1.387 . S
C2421 C2423 1.387 . S
H2422 C2429 0.950 . S
C2423 C2421 1.387 . S
C2423 C2425 1.390 1_545 S
C2423 H2427 0.950 . S
H2424 C2420 0.950 . S
C2425 C2423 1.390 1_565 S
C2425 C2426 1.387 . S
C2425 H2428 0.950 . S
C2426 C2425 1.387 . S
C2426 C2429 1.387 . S
H2427 C2423 0.950 . S
H2428 C2425 0.950 . S
C2429 C2420 1.390 1_565 S
C2429 H2422 0.950 . S
C2429 C2426 1.387 . S
C2430 C2431 1.387 . S
C2430 H2434 0.950 . S
C2430 C2439 1.390 . S
C2431 C2430 1.387 . S
C2431 C2433 1.387 . S
H2432 C2439 0.950 . S
C2433 C2431 1.387 . S
C2433 C2435 1.390 . S
C2433 H2437 0.950 . S
H2434 C2430 0.950 . S
C2435 C2433 1.390 . S
C2435 C2436 1.387 . S
C2435 H2438 0.950 . S
C2436 C2435 1.387 . S
C2436 C2439 1.387 . S
H2437 C2433 0.950 . S
H2438 C2435 0.950 . S
C2439 C2430 1.390 . S
C2439 H2432 0.950 . S
C2439 C2436 1.387 . S
C2440 C2441 1.387 . S
C2440 H2444 0.950 . S
C2440 C2449 1.390 1_556 S
C2441 C2440 1.387 . S
C2441 C2443 1.387 . S
H2442 C2449 0.950 . S
C2443 C2441 1.387 . S
C2443 C2445 1.390 1_556 S
C2443 H2447 0.950 . S
H2444 C2440 0.950 . S
C2445 C2443 1.390 1_554 S
C2445 C2446 1.387 . S
C2445 H2448 0.950 . S
C2446 C2445 1.387 . S
C2446 C2449 1.387 . S
H2447 C2443 0.950 . S
H2448 C2445 0.950 . S
C2449 C2440 1.390 1_554 S
C2449 H2442 0.950 . S
C2449 C2446 1.387 . S
C2450 C2451 1.387 . S
C2450 H2454 0.950 . S
C2450 C2459 1.390 . S
C2451 C2450 1.387 . S
C2451 C2453 1.387 . S
H2452 C2459 0.950 . S
C2453 C2451 1.387 . S
C2453 C2455 1.390 . S
C2453 H2457 0.950 . S
H2454 C2450 0.950 . S
C2455 C2453 1.390 . S
C2455 C2456 1.387 . S
C2455 H2458 0.950 . S
C2456 C2455 1.387 . S
C2456 C2459 1.387 . S
H2457 C2453 0.950 . S
H2458 C2455 0.950 . S
C2459 C2450 1.390 . S
C2459 H2452 0.950 . S
C2459 C2456 1.387 . S
C2460 C2461 1.387 . S
C2460 H2464 0.950 . S
C2460 C2469 1.390 . S
C2461 C2460 1.387 . S
C2461 C2463 1.387 . S
H2462 C2469 0.950 . S
C2463 C2461 1.387 . S
C2463 C2465 1.390 . S
C2463 H2467 0.950 . S
H2464 C2460 0.950 . S
C2465 C2463 1.390 . S
C2465 C2466 1.387 . S
C2465 H2468 0.950 . S
C2466 C2465 1.387 . S
C2466 C2469 1.387 . S
H2467 C2463 0.950 . S
H2468 C2465 0.950 . S
C2469 C2460 1.390 . S
C2469 H2462 0.950 . S
C2469 C2466 1.387 . S
C2470 C2471 1.387 . S
C2470 H2474 0.950 . S
C2470 C2479 1.390 1_655 S
C2471 C2470 1.387 . S
C2471 C2473 1.387 . S
H2472 C2479 0.950 . S
C2473 C2471 1.387 . S
C2473 C2475 1.390 1_655 S
C2473 H2477 0.950 . S
H2474 C2470 0.950 . S
C2475 C2473 1.390 1_455 S
C2475 C2476 1.387 . S
C2475 H2478 0.950 . S
C2476 C2475 1.387 . S
C2476 C2479 1.387 . S
H2477 C2473 0.950 . S
H2478 C2475 0.950 . S
C2479 C2470 1.390 1_455 S
C2479 H2472 0.950 . S
C2479 C2476 1.387 . S
C2480 C2481 1.387 . S
C2480 H2484 0.950 . S
C2480 C2489 1.390 1_655 S
C2481 C2480 1.387 . S
C2481 C2483 1.387 . S
H2482 C2489 0.950 . S
C2483 C2481 1.387 . S
C2483 C2485 1.390 1_655 S
C2483 H2487 0.950 . S
H2484 C2480 0.950 . S
C2485 C2483 1.390 1_455 S
C2485 C2486 1.387 . S
C2485 H2488 0.950 . S
C2486 C2485 1.387 . S
C2486 C2489 1.387 . S
H2487 C2483 0.950 . S
H2488 C2485 0.950 . S
C2489 C2480 1.390 1_455 S
C2489 H2482 0.950 . S
C2489 C2486 1.387 . S
C2490 C2491 1.387 . S
C2490 H2494 0.950 . S
C2490 C2499 1.390 1_565 S
C2491 C2490 1.387 . S
C2491 C2493 1.387 . S
H2492 C2499 0.950 . S
C2493 C2491 1.387 . S
C2493 C2495 1.390 1_565 S
C2493 H2497 0.950 . S
H2494 C2490 0.950 . S
C2495 C2493 1.390 1_545 S
C2495 C2496 1.387 . S
C2495 H2498 0.950 . S
C2496 C2495 1.387 . S
C2496 C2499 1.387 . S
H2497 C2493 0.950 . S
H2498 C2495 0.950 . S
C2499 C2490 1.390 1_545 S
C2499 H2492 0.950 . S
C2499 C2496 1.387 . S
C2500 C2501 1.387 . S
C2500 H2504 0.950 . S
C2500 C2509 1.390 . S
C2501 C2500 1.387 . S
C2501 C2503 1.387 . S
H2502 C2509 0.950 . S
C2503 C2501 1.387 . S
C2503 C2505 1.390 . S
C2503 H2507 0.950 . S
H2504 C2500 0.950 . S
C2505 C2503 1.390 . S
C2505 C2506 1.387 . S
C2505 H2508 0.950 . S
C2506 C2505 1.387 . S
C2506 C2509 1.387 . S
H2507 C2503 0.950 . S
H2508 C2505 0.950 . S
C2509 C2500 1.390 . S
C2509 H2502 0.950 . S
C2509 C2506 1.387 . S
C2510 C2511 1.387 . S
C2510 H2514 0.950 . S
C2510 C2519 1.390 1_554 S
C2511 C2510 1.387 . S
C2511 C2513 1.387 . S
H2512 C2519 0.950 . S
C2513 C2511 1.387 . S
C2513 C2515 1.390 1_554 S
C2513 H2517 0.950 . S
H2514 C2510 0.950 . S
C2515 C2513 1.390 1_556 S
C2515 C2516 1.387 . S
C2515 H2518 0.950 . S
C2516 C2515 1.387 . S
C2516 C2519 1.387 . S
H2517 C2513 0.950 . S
H2518 C2515 0.950 . S
C2519 C2510 1.390 1_556 S
C2519 H2512 0.950 . S
C2519 C2516 1.387 . S
C2520 C2521 1.387 . S
C2520 H2524 0.950 . S
C2520 C2529 1.390 . S
C2521 C2520 1.387 . S
C2521 C2523 1.387 . S
H2522 C2529 0.950 . S
C2523 C2521 1.387 . S
C2523 C2525 1.390 . S
C2523 H2527 0.950 . S
H2524 C2520 0.950 . S
C2525 C2523 1.390 . S
C2525 C2526 1.387 . S
C2525 H2528 0.950 . S
C2526 C2525 1.387 . S
C2526 C2529 1.387 . S
H2527 C2523 0.950 . S
H2528 C2525 0.950 . S
C2529 C2520 1.390 . S
C2529 H2522 0.950 . S
C2529 C2526 1.387 . S
C2530 C2531 1.387 . S
C2530 H2534 0.950 . S
C2530 C2539 1.390 . S
C2531 C2530 1.387 . S
C2531 C2533 1.387 . S
H2532 C2539 0.950 . S
C2533 C2531 1.387 . S
C2533 C2535 1.390 . S
C2533 H2537 0.950 . S
H2534 C2530 0.950 . S
C2535 C2533 1.390 . S
C2535 C2536 1.387 . S
C2535 H2538 0.950 . S
C2536 C2535 1.387 . S
C2536 C2539 1.387 . S
H2537 C2533 0.950 . S
H2538 C2535 0.950 . S
C2539 C2530 1.390 . S
C2539 H2532 0.950 . S
C2539 C2536 1.387 . S
C2540 C2541 1.387 . S
C2540 H2544 0.950 . S
C2540 C2549 1.390 . S
C2541 C2540 1.387 . S
C2541 C2543 1.387 . S
H2542 C2549 0.950 . S
C2543 C2541 1.387 . S
C2543 C2545 1.390 . S
C2543 H2547 0.950 . S
H2544 C2540 0.950 . S
C2545 C2543 1.390 . S
C2545 C2546 1.387 . S
C2545 H2548 0.950 . S
C2546 C2545 1.387 . S
C2546 C2549 1.387 . S
H2547 C2543 0.950 . S
H2548 C2545 0.950 . S
C2549 C2540 1.390 . S
C2549 H2542 0.950 . S
C2549 C2546 1.387 . S
C2550 C2551 1.387 . S
C2550 H2554 0.950 . S
C2550 C2559 1.390 . S
C2551 C2550 1.387 . S
C2551 C2553 1.387 . S
H2552 C2559 0.950 . S
C2553 C2551 1.387 . S
C2553 C2555 1.390 . S
C2553 H2557 0.950 . S
H2554 C2550 0.950 . S
C2555 C2553 1.390 . S
C2555 C2556 1.387 . S
C2555 H2558 0.950 . S
C2556 C2555 1.387 . S
C2556 C2559 1.387 . S
H2557 C2553 0.950 . S
H2558 C2555 0.950 . S
C2559 C2550 1.390 . S
C2559 H2552 0.950 . S
C2559 C2556 1.387 . S
C2560 C2561 1.387 . S
C2560 H2564 0.950 . S
C2560 C2569 1.390 . S
C2561 C2560 1.387 . S
C2561 C2563 1.387 . S
H2562 C2569 0.950 . S
C2563 C2561 1.387 . S
C2563 C2565 1.390 . S
C2563 H2567 0.950 . S
H2564 C2560 0.950 . S
C2565 C2563 1.390 . S
C2565 C2566 1.387 . S
C2565 H2568 0.950 . S
C2566 C2565 1.387 . S
C2566 C2569 1.387 . S
H2567 C2563 0.950 . S
H2568 C2565 0.950 . S
C2569 C2560 1.390 . S
C2569 H2562 0.950 . S
C2569 C2566 1.387 . S
C2570 C2571 1.387 . S
C2570 H2574 0.950 . S
C2570 C2579 1.390 1_545 S
C2571 C2570 1.387 . S
C2571 C2573 1.387 . S
H2572 C2579 0.950 . S
C2573 C2571 1.387 . S
C2573 C2575 1.390 1_545 S
C2573 H2577 0.950 . S
H2574 C2570 0.950 . S
C2575 C2573 1.390 1_565 S
C2575 C2576 1.387 . S
C2575 H2578 0.950 . S
C2576 C2575 1.387 . S
C2576 C2579 1.387 . S
H2577 C2573 0.950 . S
H2578 C2575 0.950 . S
C2579 C2570 1.390 1_565 S
C2579 H2572 0.950 . S
C2579 C2576 1.387 . S
C2580 C2581 1.387 . S
C2580 H2584 0.950 . S
C2580 C2589 1.390 1_556 S
C2581 C2580 1.387 . S
C2581 C2583 1.387 . S
H2582 C2589 0.950 . S
C2583 C2581 1.387 . S
C2583 C2585 1.390 1_556 S
C2583 H2587 0.950 . S
H2584 C2580 0.950 . S
C2585 C2583 1.390 1_554 S
C2585 C2586 1.387 . S
C2585 H2588 0.950 . S
C2586 C2585 1.387 . S
C2586 C2589 1.387 . S
H2587 C2583 0.950 . S
H2588 C2585 0.950 . S
C2589 C2580 1.390 1_554 S
C2589 H2582 0.950 . S
C2589 C2586 1.387 . S
C2590 C2591 1.387 . S
C2590 H2594 0.950 . S
C2590 C2599 1.390 . S
C2591 C2590 1.387 . S
C2591 C2593 1.387 . S
H2592 C2599 0.950 . S
C2593 C2591 1.387 . S
C2593 C2595 1.390 . S
C2593 H2597 0.950 . S
H2594 C2590 0.950 . S
C2595 C2593 1.390 . S
C2595 C2596 1.387 . S
C2595 H2598 0.950 . S
C2596 C2595 1.387 . S
C2596 C2599 1.387 . S
H2597 C2593 0.950 . S
H2598 C2595 0.950 . S
C2599 C2590 1.390 . S
C2599 H2592 0.950 . S
C2599 C2596 1.387 . S
C2600 C2601 1.387 . S
C2600 H2604 0.950 . S
C2600 C2609 1.390 . S
C2601 C2600 1.387 . S
C2601 C2603 1.387 . S
H2602 C2609 0.950 . S
C2603 C2601 1.387 . S
C2603 C2605 1.390 . S
C2603 H2607 0.950 . S
H2604 C2600 0.950 . S
C2605 C2603 1.390 . S
C2605 C2606 1.387 . S
C2605 H2608 0.950 . S
C2606 C2605 1.387 . S
C2606 C2609 1.387 . S
H2607 C2603 0.950 . S
H2608 C2605 0.950 . S
C2609 C2600 1.390 . S
C2609 H2602 0.950 . S
C2609 C2606 1.387 . S
C2610 C2611 1.387 . S
C2610 H2614 0.950 . S
C2610 C2619 1.390 . S
C2611 C2610 1.387 . S
C2611 C2613 1.387 . S
H2612 C2619 0.950 . S
C2613 C2611 1.387 . S
C2613 C2615 1.390 . S
C2613 H2617 0.950 . S
H2614 C2610 0.950 . S
C2615 C2613 1.390 . S
C2615 C2616 1.387 . S
C2615 H2618 0.950 . S
C2616 C2615 1.387 . S
C2616 C2619 1.387 . S
H2617 C2613 0.950 . S
H2618 C2615 0.950 . S
C2619 C2610 1.390 . S
C2619 H2612 0.950 . S
C2619 C2616 1.387 . S
C2620 C2621 1.387 . S
C2620 H2624 0.950 . S
C2620 C2629 1.390 1_545 S
C2621 C2620 1.387 . S
C2621 C2623 1.387 . S
H2622 C2629 0.950 . S
C2623 C2621 1.387 . S
C2623 C2625 1.390 1_545 S
C2623 H2627 0.950 . S
H2624 C2620 0.950 . S
C2625 C2623 1.390 1_565 S
C2625 C2626 1.387 . S
C2625 H2628 0.950 . S
C2626 C2625 1.387 . S
C2626 C2629 1.387 . S
H2627 C2623 0.950 . S
H2628 C2625 0.950 . S
C2629 C2620 1.390 1_565 S
C2629 H2622 0.950 . S
C2629 C2626 1.387 . S
C2630 C2631 1.387 . S
C2630 H2634 0.950 . S
C2630 C2639 1.390 1_554 S
C2631 C2630 1.387 . S
C2631 C2633 1.387 . S
H2632 C2639 0.950 . S
C2633 C2631 1.387 . S
C2633 C2635 1.390 1_554 S
C2633 H2637 0.950 . S
H2634 C2630 0.950 . S
C2635 C2633 1.390 1_556 S
C2635 C2636 1.387 . S
C2635 H2638 0.950 . S
C2636 C2635 1.387 . S
C2636 C2639 1.387 . S
H2637 C2633 0.950 . S
H2638 C2635 0.950 . S
C2639 C2630 1.390 1_556 S
C2639 H2632 0.950 . S
C2639 C2636 1.387 . S
C1921 C901 1.810 . S
C1926 C21 1.811 . S
C1931 C861 1.736 . S
C1936 C42 1.636 . S
C1941 C1901 1.809 . S
C1946 C101 1.810 . S
C1951 C821 1.737 . S
C1956 C122 1.639 . S
C1961 C1482 1.647 . S
C1966 C181 1.753 . S
C1971 C1461 1.755 . S
C1976 C202 1.653 . S
C1981 C1562 1.649 . S
C1986 C261 1.754 . S
C1991 C282 1.653 . S
C1996 C1541 1.755 . S
C2001 C322 1.693 . S
C2006 C1701 1.803 . S
C2011 C1621 1.803 . S
C2016 C362 1.692 . S
C2021 C402 1.618 . S
C2026 C1642 1.622 . S
C2031 C762 1.623 . S
C2036 C442 1.619 . S
C2041 C482 1.717 . S
C2046 C421 1.645 . S
C2051 C541 1.715 . S
C2056 C381 1.715 . S
C2061 C562 1.718 . S
C2066 C1421 1.647 . S
C2071 C341 1.713 . S
C2076 C621 1.712 . S
C2081 C642 1.736 . S
C2086 C1021 1.666 . S
C2091 C701 1.665 . S
C2096 C962 1.733 . S
C2101 C722 1.738 . S
C2106 C1101 1.669 . S
C2111 C781 1.668 . S
C2116 C1042 1.735 . S
C2121 C1202 1.702 . S
C2126 C802 1.703 . S
C2131 C842 1.701 . S
C2136 C1122 1.700 . S
C2141 C882 1.784 . S
C2146 C1181 1.712 . S
C2151 C922 1.782 . S
C2156 C301 1.709 . S
C2161 C981 1.810 . S
C2166 C1861 1.809 . S
C2171 C1821 1.736 . S
C2176 C1002 1.636 . S
C2181 C1061 1.811 . S
C2186 C941 1.810 . S
C2191 C1781 1.737 . S
C2196 C1082 1.639 . S
C2201 C522 1.649 . S
C2206 C1141 1.754 . S
C2211 C1162 1.656 . S
C2216 C501 1.756 . S
C2221 C1221 1.754 . S
C2226 C602 1.649 . S
C2231 C1242 1.657 . S
C2236 C581 1.756 . S
C2241 C1282 1.693 . S
C2246 C741 1.803 . S
C2251 C1322 1.693 . S
C2256 C661 1.803 . S
C2261 C682 1.624 . S
C2266 C1362 1.619 . S
C2271 C1402 1.618 . S
C2276 C1722 1.622 . S
C2281 C1381 1.647 . S
C2286 C1442 1.718 . S
C2291 C1501 1.712 . S
C2296 C1341 1.713 . S
C2301 C461 1.646 . S
C2306 C1522 1.717 . S
C2311 C1581 1.712 . S
C2316 C1301 1.713 . S
C2321 C1602 1.737 . S
C2326 C61 1.668 . S
C2331 C1661 1.665 . S
C2336 C2 1.733 . S
C2341 C141 1.668 . S
C2346 C1682 1.737 . S
C2351 C82 1.733 . S
C2356 C1741 1.665 . S
C2361 C242 1.700 . S
C2366 C1762 1.702 . S
C2371 C1802 1.703 . S
C2376 C162 1.701 . S
C2381 C221 1.711 . S
C2386 C1842 1.784 . S
C2391 C1882 1.784 . S
C2396 C1261 1.712 . S
C2401 C55 1.660 . S
C2406 C15 1.661 . S
C2411 C95 1.663 . S
C2416 C135 1.661 . S
C2421 C175 1.612 . S
C2426 C255 1.612 . S
C2431 C215 1.666 . S
C2436 C295 1.666 . S
C2441 C1375 1.665 . S
C2446 C335 1.663 . S
C2451 C375 1.665 . S
C2456 C455 1.667 . S
C2461 C1295 1.665 . S
C2466 C415 1.667 . S
C2471 C495 1.666 . S
C2476 C535 1.658 . S
C2481 C575 1.665 . S
C2486 C615 1.656 . S
C2491 C655 1.672 . S
C2496 C735 1.672 . S
C2501 C695 1.607 . S
C2506 C775 1.607 . S
C2511 C1855 1.670 . S
C2516 C815 1.672 . S
C2521 C935 1.670 . S
C2526 C855 1.672 . S
C2531 C895 1.668 . S
C2536 C1775 1.670 . S
C2541 C975 1.663 . S
C2546 C1015 1.661 . S
C2551 C1055 1.663 . S
C2556 C1095 1.661 . S
C2561 C1215 1.612 . S
C2566 C1135 1.612 . S
C2571 C1255 1.666 . S
C2576 C1175 1.666 . S
C2581 C1335 1.663 . S
C2586 C1415 1.665 . S
C2591 C1455 1.665 . S
C2596 C1495 1.656 . S
C2601 C1575 1.658 . S
C2606 C1535 1.666 . S
C2611 C1695 1.670 . S
C2616 C1615 1.670 . S
C2621 C1655 1.609 . S
C2626 C1735 1.609 . S
C2631 C1815 1.672 . S
C2636 C1895 1.670 . S
