# Generated by pormake.
# Topology ukh, (4)-cn, num edge types: 1
# Building blocks:
#     Node 0, Type 0, BuildingBlock: CEKHIL_clean_sbu_0, # of connection points: 4
#     Node 1, Type 0, BuildingBlock: CEKHIL_clean_sbu_0, # of connection points: 4
#     Node 2, Type 0, BuildingBlock: CEKHIL_clean_sbu_0, # of connection points: 4
#     Node 3, Type 0, BuildingBlock: CEKHIL_clean_sbu_0, # of connection points: 4
#     Node 4, Type 0, BuildingBlock: CEKHIL_clean_sbu_0, # of connection points: 4
#     Node 5, Type 0, BuildingBlock: CEKHIL_clean_sbu_0, # of connection points: 4
#     Node 6, Type 0, BuildingBlock: CEKHIL_clean_sbu_0, # of connection points: 4
#     Node 7, Type 0, BuildingBlock: CEKHIL_clean_sbu_0, # of connection points: 4
#     Node 8, Type 0, BuildingBlock: CEKHIL_clean_sbu_0, # of connection points: 4
#     Node 9, Type 0, BuildingBlock: CEKHIL_clean_sbu_0, # of connection points: 4
#     Node 10, Type 0, BuildingBlock: CEKHIL_clean_sbu_0, # of connection points: 4
#     Node 11, Type 0, BuildingBlock: CEKHIL_clean_sbu_0, # of connection points: 4
#     Edge 12, Type (0, 0), BuildingBlock: MIFKUJ_clean_linker_0, # of connection points: 2
#     Edge 13, Type (0, 0), BuildingBlock: MIFKUJ_clean_linker_0, # of connection points: 2
#     Edge 14, Type (0, 0), BuildingBlock: MIFKUJ_clean_linker_0, # of connection points: 2
#     Edge 15, Type (0, 0), BuildingBlock: MIFKUJ_clean_linker_0, # of connection points: 2
#     Edge 16, Type (0, 0), BuildingBlock: MIFKUJ_clean_linker_0, # of connection points: 2
#     Edge 17, Type (0, 0), BuildingBlock: MIFKUJ_clean_linker_0, # of connection points: 2
#     Edge 18, Type (0, 0), BuildingBlock: MIFKUJ_clean_linker_0, # of connection points: 2
#     Edge 19, Type (0, 0), BuildingBlock: MIFKUJ_clean_linker_0, # of connection points: 2
#     Edge 20, Type (0, 0), BuildingBlock: MIFKUJ_clean_linker_0, # of connection points: 2
#     Edge 21, Type (0, 0), BuildingBlock: MIFKUJ_clean_linker_0, # of connection points: 2
#     Edge 22, Type (0, 0), BuildingBlock: MIFKUJ_clean_linker_0, # of connection points: 2
#     Edge 23, Type (0, 0), BuildingBlock: MIFKUJ_clean_linker_0, # of connection points: 2
#     Edge 24, Type (0, 0), BuildingBlock: MIFKUJ_clean_linker_0, # of connection points: 2
#     Edge 25, Type (0, 0), BuildingBlock: MIFKUJ_clean_linker_0, # of connection points: 2
#     Edge 26, Type (0, 0), BuildingBlock: MIFKUJ_clean_linker_0, # of connection points: 2
#     Edge 27, Type (0, 0), BuildingBlock: MIFKUJ_clean_linker_0, # of connection points: 2
#     Edge 28, Type (0, 0), BuildingBlock: MIFKUJ_clean_linker_0, # of connection points: 2
#     Edge 29, Type (0, 0), BuildingBlock: MIFKUJ_clean_linker_0, # of connection points: 2
#     Edge 30, Type (0, 0), BuildingBlock: MIFKUJ_clean_linker_0, # of connection points: 2
#     Edge 31, Type (0, 0), BuildingBlock: MIFKUJ_clean_linker_0, # of connection points: 2
#     Edge 32, Type (0, 0), BuildingBlock: MIFKUJ_clean_linker_0, # of connection points: 2
#     Edge 33, Type (0, 0), BuildingBlock: MIFKUJ_clean_linker_0, # of connection points: 2
#     Edge 34, Type (0, 0), BuildingBlock: MIFKUJ_clean_linker_0, # of connection points: 2
#     Edge 35, Type (0, 0), BuildingBlock: MIFKUJ_clean_linker_0, # of connection points: 2
# Relax obj value: 0.070
# Max RMSD: 0.090
# Mean RMSD: 0.090
data_MOF--net-ukh--node1-CEKHIL_clean_sbu_0--edge1-MIFKUJ_clean_linker_0
_symmetry_space_group_name_H-M    P1
_symmetry_Int_Tables_number       1
_symmetry_cell_setting            triclinic
loop_
_symmetry_equiv_pos_as_xyz
'x, y, z'
_cell_length_a     41.973486
_cell_length_b     41.979316
_cell_length_c     78.98723
_cell_angle_alpha  89.985315
_cell_angle_beta   90.014976
_cell_angle_gamma 120.01568
loop_
_atom_site_label
_atom_site_type_symbol
_atom_site_fract_x
_atom_site_fract_y
_atom_site_fract_z
_atom_type_partial_charge
Co0 Co 0.32568 0.25094 0.04968 0.0
O1 O 0.34241 0.29992 0.05775 0.0
O2 O 0.3777 0.28253 0.04455 0.0
C3 C 0.27467 0.24466 0.03709 0.0
O4 O 0.31681 0.20238 0.03924 0.0
Co5 Co 0.25037 0.18678 0.06231 0.0
O6 O 0.2577 0.15894 0.04404 0.0
C7 C 0.31663 0.2145 0.08402 0.0
C8 C 0.37435 0.30879 0.05157 0.0
C9 C 0.28887 0.16984 0.03713 0.0
O10 O 0.33715 0.23687 0.07239 0.0
O11 O 0.28167 0.19412 0.0827 0.0
O12 O 0.30604 0.26094 0.02925 0.0
O13 O 0.27564 0.23537 0.05257 0.0
Co14 Co 0.07084 0.31931 0.38267 0.0
O15 O 0.03606 0.33464 0.38799 0.0
O16 O 0.09054 0.37085 0.37649 0.0
C17 C 0.02966 0.26636 0.3701 0.0
O18 O 0.11259 0.31071 0.37494 0.0
Co19 Co 0.05871 0.24722 0.40001 0.0
O20 O 0.10019 0.2554 0.3852 0.0
C21 C 0.0883 0.31544 0.41971 0.0
C22 C 0.05918 0.3665 0.3818 0.0
C23 C 0.11987 0.28435 0.37648 0.0
O24 O 0.09315 0.3339 0.40601 0.0
O25 O 0.07114 0.28025 0.42022 0.0
O26 O 0.0444 0.29704 0.36169 0.0
O27 O 0.03743 0.26937 0.38602 0.0
Co28 Co 0.75639 0.07442 0.71597 0.0
O29 O 0.70673 0.03791 0.72122 0.0
O30 O 0.72368 0.09464 0.71318 0.0
C31 C 0.76725 0.03693 0.69964 0.0
O32 O 0.80608 0.11841 0.70871 0.0
Co33 Co 0.81869 0.05939 0.7281 0.0
O34 O 0.85001 0.10387 0.7146 0.0
C35 C 0.78327 0.08512 0.75255 0.0
C36 C 0.69722 0.06188 0.71726 0.0
C37 C 0.83981 0.12544 0.70846 0.0
O38 O 0.76584 0.09064 0.74051 0.0
O39 O 0.80265 0.06973 0.75024 0.0
O40 O 0.75054 0.05317 0.69334 0.0
O41 O 0.77347 0.04102 0.71568 0.0
Co42 Co 0.66865 0.75022 0.0478 0.0
O43 O 0.64292 0.69999 0.05518 0.0
O44 O 0.61706 0.72698 0.04119 0.0
C45 C 0.71635 0.74728 0.03646 0.0
O46 O 0.68827 0.80203 0.03782 0.0
Co47 Co 0.7465 0.80293 0.0627 0.0
O48 O 0.7491 0.83356 0.04317 0.0
C49 C 0.67981 0.786 0.08246 0.0
C50 C 0.6139 0.69738 0.04815 0.0
C51 C 0.72066 0.83037 0.03576 0.0
O52 O 0.65852 0.76641 0.07032 0.0
O53 O 0.71491 0.80102 0.08206 0.0
O54 O 0.68643 0.7366 0.0278 0.0
O55 O 0.71532 0.75632 0.05197 0.0
Co56 Co 0.92647 0.67985 0.3816 0.0
O57 O 0.96044 0.66437 0.38828 0.0
O58 O 0.90639 0.6277 0.37652 0.0
C59 C 0.9689 0.73131 0.36842 0.0
O60 O 0.88577 0.68867 0.3724 0.0
Co61 Co 0.93891 0.75445 0.39618 0.0
O62 O 0.9052 0.74862 0.37735 0.0
C63 C 0.90889 0.68866 0.4179 0.0
C64 C 0.93744 0.63218 0.38237 0.0
C65 C 0.88354 0.71801 0.3702 0.0
O66 O 0.9035 0.66803 0.40492 0.0
O67 O 0.92597 0.72385 0.41725 0.0
O68 O 0.95401 0.69993 0.36059 0.0
O69 O 0.96028 0.7298 0.38418 0.0
Co70 Co 0.25113 0.93062 0.71753 0.0
O71 O 0.30146 0.96453 0.7228 0.0
O72 O 0.28189 0.90885 0.71259 0.0
C73 C 0.24168 0.97198 0.70348 0.0
O74 O 0.19987 0.88939 0.71026 0.0
Co75 Co 0.19343 0.94845 0.73318 0.0
O76 O 0.15934 0.90676 0.71867 0.0
C77 C 0.22859 0.9174 0.75461 0.0
C78 C 0.30943 0.94016 0.71766 0.0
C79 C 0.16693 0.88452 0.71109 0.0
O80 O 0.24242 0.9108 0.74145 0.0
O81 O 0.21174 0.93575 0.75408 0.0
O82 O 0.2562 0.95502 0.69576 0.0
O83 O 0.2369 0.96602 0.71953 0.0
Co84 Co 0.75606 0.67106 0.61715 0.0
O85 O 0.70785 0.65812 0.60922 0.0
O86 O 0.72142 0.61928 0.62173 0.0
C87 C 0.76585 0.72319 0.62997 0.0
O88 O 0.80318 0.67621 0.62776 0.0
Co89 Co 0.82404 0.74454 0.60514 0.0
O90 O 0.84823 0.73525 0.62442 0.0
C91 C 0.79315 0.6785 0.58313 0.0
C92 C 0.69652 0.62547 0.61517 0.0
C93 C 0.83577 0.70338 0.63083 0.0
O94 O 0.76904 0.65873 0.59434 0.0
O95 O 0.81592 0.71294 0.58482 0.0
O96 O 0.74755 0.69175 0.63765 0.0
O97 O 0.77519 0.72177 0.61456 0.0
Co98 Co 0.07722 0.75163 0.94882 0.0
O99 O 0.04863 0.70097 0.94229 0.0
O100 O 0.10346 0.72565 0.95444 0.0
C101 C 0.03047 0.75375 0.96187 0.0
O102 O 0.11382 0.80353 0.95746 0.0
Co103 Co 0.05399 0.8064 0.93424 0.0
O104 O 0.09258 0.84133 0.94974 0.0
C105 C 0.09723 0.78321 0.91317 0.0
C106 C 0.07483 0.69661 0.94832 0.0
C107 C 0.11599 0.83535 0.95724 0.0
O108 O 0.1002 0.76473 0.92548 0.0
O109 O 0.07806 0.79917 0.91394 0.0
O110 O 0.04923 0.74158 0.96987 0.0
O111 O 0.03833 0.76095 0.94606 0.0
Co112 Co 0.32715 0.08413 0.28132 0.0
O113 O 0.3394 0.0478 0.2745 0.0
O114 O 0.37921 0.10177 0.28541 0.0
C115 C 0.27602 0.04479 0.2956 0.0
O116 O 0.32235 0.12734 0.29033 0.0
Co117 Co 0.25361 0.07538 0.26739 0.0
O118 O 0.26627 0.11761 0.28256 0.0
C119 C 0.3174 0.1007 0.24492 0.0
C120 C 0.3726 0.06996 0.2796 0.0
C121 C 0.29688 0.13605 0.29027 0.0
O122 O 0.33818 0.10577 0.2578 0.0
O123 O 0.2823 0.08485 0.24585 0.0
O124 O 0.30807 0.05847 0.30274 0.0
O125 O 0.27634 0.05233 0.27975 0.0
Co126 Co 0.24638 0.32657 0.61211 0.0
O127 O 0.29511 0.34035 0.60469 0.0
O128 O 0.28029 0.37845 0.61692 0.0
C129 C 0.2364 0.27465 0.62524 0.0
O130 O 0.19832 0.32057 0.62194 0.0
Co131 Co 0.18068 0.25267 0.59896 0.0
O132 O 0.15235 0.26323 0.61576 0.0
C133 C 0.21236 0.31891 0.57719 0.0
C134 C 0.30575 0.37299 0.61046 0.0
C135 C 0.16455 0.29427 0.62302 0.0
O136 O 0.23447 0.33882 0.58903 0.0
O137 O 0.19076 0.28412 0.57841 0.0
O138 O 0.25384 0.3061 0.63296 0.0
O139 O 0.22837 0.276 0.60959 0.0
Co140 Co 0.92311 0.25371 0.94747 0.0
O141 O 0.95142 0.30373 0.94005 0.0
O142 O 0.89781 0.28061 0.95321 0.0
C143 C 0.97055 0.25207 0.95993 0.0
O144 O 0.88736 0.20273 0.95726 0.0
Co145 Co 0.94387 0.1972 0.93313 0.0
O146 O 0.91265 0.1672 0.95223 0.0
C147 C 0.90419 0.22377 0.91169 0.0
C148 C 0.92611 0.30901 0.94646 0.0
C149 C 0.88883 0.17299 0.95945 0.0
O150 O 0.8984 0.23904 0.92456 0.0
O151 O 0.92446 0.20896 0.91229 0.0
O152 O 0.95274 0.26518 0.96803 0.0
O153 O 0.96141 0.24374 0.94429 0.0
Co154 Co 0.6709 0.91779 0.28309 0.0
O155 O 0.65872 0.95457 0.27694 0.0
O156 O 0.61855 0.89931 0.28664 0.0
C157 C 0.72135 0.95644 0.29807 0.0
O158 O 0.67531 0.87393 0.29151 0.0
Co159 Co 0.74588 0.92742 0.27056 0.0
O160 O 0.73436 0.88833 0.2875 0.0
C161 C 0.68379 0.9036 0.24679 0.0
C162 C 0.62536 0.9317 0.28161 0.0
C163 C 0.70231 0.86783 0.29359 0.0
O164 O 0.66159 0.89825 0.25912 0.0
O165 O 0.71868 0.9185 0.24863 0.0
O166 O 0.68903 0.94201 0.30501 0.0
O167 O 0.72161 0.94966 0.28218 0.0
H168 H 0.56869 0.65657 0.07357 0.0
H169 H 0.52584 0.59014 0.07296 0.0
H170 H 0.54642 0.58851 0.0195 0.0
H171 H 0.58754 0.65539 0.02001 0.0
H172 H 0.47982 0.5376 0.02529 0.0
H173 H 0.59486 0.56999 0.05093 0.0
H174 H 0.64683 0.60201 0.07074 0.0
H175 H 0.57407 0.55089 0.11285 0.0
H176 H 0.52155 0.51895 0.09328 0.0
H177 H 0.42781 0.34549 0.02765 0.0
H178 H 0.46919 0.41252 0.02572 0.0
H179 H 0.42802 0.42654 0.07349 0.0
H180 H 0.38621 0.36011 0.07525 0.0
H181 H 0.50791 0.46997 0.06887 0.0
H182 H 0.39237 0.43911 0.04093 0.0
H183 H 0.34372 0.4061 0.01966 0.0
H184 H 0.42353 0.45339 0.97977 0.0
H185 H 0.47277 0.48625 0.00084 0.0
C186 C 0.56272 0.64214 0.06159 0.0
C187 C 0.58076 0.66095 0.04679 0.0
C188 C 0.53877 0.60411 0.06127 0.0
C189 C 0.53378 0.58397 0.04629 0.0
C190 C 0.5499 0.60324 0.03124 0.0
C191 C 0.57316 0.64149 0.03149 0.0
C192 C 0.51418 0.54292 0.04664 0.0
C193 C 0.48638 0.52294 0.0347 0.0
C194 C 0.52267 0.52341 0.05883 0.0
C195 C 0.55422 0.54234 0.07064 0.0
C196 C 0.58991 0.56575 0.06442 0.0
C197 C 0.61947 0.58387 0.0756 0.0
C198 C 0.61374 0.57855 0.09305 0.0
C199 C 0.57845 0.55501 0.09934 0.0
C200 C 0.54878 0.53687 0.0882 0.0
C201 C 0.42825 0.36289 0.03788 0.0
C202 C 0.40392 0.34771 0.05161 0.0
C203 C 0.45163 0.4011 0.03671 0.0
C204 C 0.4514 0.42444 0.04941 0.0
C205 C 0.42857 0.40903 0.06355 0.0
C206 C 0.40475 0.3711 0.06454 0.0
C207 C 0.47341 0.46505 0.04776 0.0
C208 C 0.50168 0.48485 0.05943 0.0
C209 C 0.46593 0.48428 0.03511 0.0
C210 C 0.43629 0.46477 0.02246 0.0
C211 C 0.39959 0.44219 0.02763 0.0
C212 C 0.3719 0.42357 0.01561 0.0
C213 C 0.38054 0.42755 0.99837 0.0
C214 C 0.41688 0.45027 0.99312 0.0
C215 C 0.44468 0.46891 0.0051 0.0
H216 H 0.35906 0.41312 0.98908 0.0
H217 H 0.63666 0.5926 0.10169 0.0
H218 H 0.10353 0.4414 0.3771 0.0
H219 H 0.08358 0.48752 0.37585 0.0
H220 H 0.97066 0.40146 0.38162 0.0
H221 H 0.99014 0.35582 0.3831 0.0
H222 H 0.98061 0.45282 0.35623 0.0
H223 H 0.01309 0.44917 0.41482 0.0
H224 H 0.0551 0.45392 0.43777 0.0
H225 H 0.13118 0.56538 0.42335 0.0
H226 H 0.08981 0.5611 0.40014 0.0
H227 H 0.89371 0.55708 0.37775 0.0
H228 H 0.91423 0.51153 0.37667 0.0
H229 H 0.02681 0.59858 0.38279 0.0
H230 H 0.00647 0.6433 0.38467 0.0
H231 H 0.01796 0.5465 0.40157 0.0
H232 H 0.98762 0.55275 0.34348 0.0
H233 H 0.94818 0.5494 0.3196 0.0
H234 H 0.87194 0.43633 0.33138 0.0
H235 H 0.91073 0.43915 0.35547 0.0
C236 C 0.0745 0.43245 0.37803 0.0
C237 C 0.04847 0.39507 0.38033 0.0
C238 C 0.06314 0.45873 0.37733 0.0
C239 C 0.0256 0.44783 0.37868 0.0
C240 C 0.99968 0.41045 0.38052 0.0
C241 C 0.01098 0.38444 0.38147 0.0
C242 C 0.01294 0.47511 0.37882 0.0
C243 C 0.98858 0.47325 0.36617 0.0
C244 C 0.02381 0.50204 0.39164 0.0
C245 C 0.04857 0.50467 0.40563 0.0
C246 C 0.03893 0.47458 0.41645 0.0
C247 C 0.06258 0.47721 0.42953 0.0
C248 C 0.09584 0.5099 0.43199 0.0
C249 C 0.10544 0.54006 0.42141 0.0
C250 C 0.0819 0.53755 0.4083 0.0
C251 C 0.92276 0.5663 0.37889 0.0
C252 C 0.94839 0.60371 0.3814 0.0
C253 C 0.93456 0.54034 0.37816 0.0
C254 C 0.97224 0.55156 0.37949 0.0
C255 C 0.99764 0.58901 0.38185 0.0
C256 C 0.98588 0.61464 0.38289 0.0
C257 C 0.98571 0.52474 0.37881 0.0
C258 C 0.01011 0.52644 0.39147 0.0
C259 C 0.97526 0.49804 0.36583 0.0
C260 C 0.95188 0.49628 0.35138 0.0
C261 C 0.9623 0.52726 0.34105 0.0
C262 C 0.9401 0.52544 0.32747 0.0
C263 C 0.90753 0.4927 0.324 0.0
C264 C 0.89715 0.46169 0.33409 0.0
C265 C 0.91924 0.46337 0.3477 0.0
H266 H 0.89037 0.49135 0.31348 0.0
H267 H 0.11411 0.51188 0.44212 0.0
H268 H 0.36861 0.0046 0.72717 0.0
H269 H 0.43326 0.02289 0.72572 0.0
H270 H 0.40494 0.91629 0.70583 0.0
H271 H 0.33909 0.8974 0.70722 0.0
H272 H 0.45929 0.9424 0.73184 0.0
H273 H 0.43779 0.9866 0.6794 0.0
H274 H 0.41506 0.01933 0.66162 0.0
H275 H 0.48663 0.12037 0.68746 0.0
H276 H 0.50943 0.08814 0.70556 0.0
H277 H 0.64106 0.99333 0.71131 0.0
H278 H 0.57559 0.972 0.71012 0.0
H279 H 0.59754 0.08217 0.72037 0.0
H280 H 0.66406 0.10419 0.72065 0.0
H281 H 0.54518 0.05231 0.69835 0.0
H282 H 0.56466 0.01049 0.75165 0.0
H283 H 0.58678 0.97961 0.771 0.0
H284 H 0.51877 0.87674 0.74577 0.0
H285 H 0.49659 0.9071 0.72612 0.0
C286 C 0.37583 0.98479 0.72248 0.0
C287 C 0.34853 0.94947 0.71723 0.0
C288 C 0.41299 0.99547 0.7216 0.0
C289 C 0.42401 0.97123 0.71543 0.0
C290 C 0.39697 0.93552 0.71054 0.0
C291 C 0.35943 0.92476 0.71133 0.0
C292 C 0.46392 0.98369 0.71431 0.0
C293 C 0.47804 0.96597 0.72427 0.0
C294 C 0.4885 0.01534 0.70493 0.0
C295 C 0.47514 0.03488 0.69392 0.0
C296 C 0.44851 0.01575 0.68137 0.0
C297 C 0.43564 0.03422 0.67122 0.0
C298 C 0.44934 0.07189 0.67343 0.0
C299 C 0.47603 0.09119 0.68577 0.0
C300 C 0.48898 0.07284 0.69596 0.0
C301 C 0.63204 0.01312 0.71334 0.0
C302 C 0.65768 0.0504 0.71631 0.0
C303 C 0.59444 0.00078 0.71275 0.0
C304 C 0.58128 0.02513 0.71567 0.0
C305 C 0.60691 0.0627 0.71823 0.0
C306 C 0.64488 0.0753 0.71842 0.0
C307 C 0.54083 0.0111 0.71594 0.0
C308 C 0.52655 0.02859 0.70587 0.0
C309 C 0.51612 0.97954 0.72544 0.0
C310 C 0.52921 0.96115 0.73732 0.0
C311 C 0.5546 0.98133 0.75016 0.0
C312 C 0.56712 0.96391 0.76119 0.0
C313 C 0.55426 0.92626 0.75959 0.0
C314 C 0.52875 0.90591 0.74699 0.0
C315 C 0.51615 0.9232 0.73591 0.0
H316 H 0.564 0.91283 0.76814 0.0
H317 H 0.43932 0.08614 0.66557 0.0
H318 H 0.66195 0.54965 0.61554 0.0
H319 H 0.595 0.50623 0.61513 0.0
H320 H 0.57482 0.59727 0.61608 0.0
H321 H 0.64098 0.64044 0.61584 0.0
H322 H 0.53308 0.52284 0.6416 0.0
H323 H 0.55734 0.57724 0.58389 0.0
H324 H 0.59245 0.59399 0.55717 0.0
H325 H 0.56707 0.48212 0.5507 0.0
H326 H 0.53226 0.4649 0.57756 0.0
H327 H 0.34044 0.44196 0.62512 0.0
H328 H 0.40702 0.4854 0.62638 0.0
H329 H 0.42696 0.41003 0.59737 0.0
H330 H 0.36114 0.36732 0.59578 0.0
H331 H 0.4702 0.47629 0.5864 0.0
H332 H 0.43888 0.41841 0.64076 0.0
H333 H 0.40558 0.39845 0.6679 0.0
H334 H 0.44537 0.51107 0.68174 0.0
H335 H 0.47852 0.5317 0.65456 0.0
C336 C 0.64315 0.56026 0.61567 0.0
C337 C 0.65664 0.59837 0.61555 0.0
C338 C 0.60505 0.53553 0.61546 0.0
C339 C 0.58013 0.54869 0.61555 0.0
C340 C 0.59363 0.58664 0.61597 0.0
C341 C 0.63145 0.61122 0.61574 0.0
C342 C 0.53991 0.52318 0.6146 0.0
C343 C 0.51914 0.5128 0.62956 0.0
C344 C 0.52203 0.5097 0.59893 0.0
C345 C 0.54272 0.51994 0.5828 0.0
C346 C 0.55963 0.55634 0.57686 0.0
C347 C 0.57937 0.56589 0.56167 0.0
C348 C 0.58212 0.53916 0.55227 0.0
C349 C 0.56501 0.50281 0.55802 0.0
C350 C 0.54528 0.49315 0.57322 0.0
C351 C 0.35907 0.43492 0.61888 0.0
C352 C 0.34545 0.40115 0.61039 0.0
C353 C 0.39712 0.4596 0.61971 0.0
C354 C 0.42215 0.45081 0.61215 0.0
C355 C 0.40837 0.41753 0.60331 0.0
C356 C 0.37058 0.39304 0.60246 0.0
C357 C 0.46272 0.4758 0.61345 0.0
C358 C 0.48377 0.48617 0.59852 0.0
C359 C 0.48082 0.48885 0.62922 0.0
C360 C 0.46083 0.47657 0.64554 0.0
C361 C 0.44026 0.43891 0.64953 0.0
C362 C 0.42146 0.42747 0.66493 0.0
C363 C 0.42326 0.45347 0.67651 0.0
C364 C 0.44394 0.49096 0.67274 0.0
C365 C 0.46276 0.50255 0.65734 0.0
H366 H 0.40871 0.44457 0.68844 0.0
H367 H 0.5974 0.54659 0.54051 0.0
H368 H 0.94899 0.35805 0.92088 0.0
H369 H 0.97454 0.42444 0.92319 0.0
H370 H 0.94699 0.41247 0.97633 0.0
H371 H 0.91951 0.34539 0.97375 0.0
H372 H 0.94164 0.46766 0.96432 0.0
H373 H 0.03462 0.43531 0.96247 0.0
H374 H 0.06803 0.4049 0.95196 0.0
H375 H 0.09066 0.46455 0.90519 0.0
H376 H 0.0569 0.49495 0.91532 0.0
H377 H 0.07854 0.65988 0.97603 0.0
H378 H 0.05443 0.59307 0.97805 0.0
H379 H 0.03414 0.58268 0.92427 0.0
H380 H 0.05674 0.64888 0.92236 0.0
H381 H 0.06788 0.53961 0.94072 0.0
H382 H 0.96666 0.56646 0.94402 0.0
H383 H 0.9362 0.59766 0.95704 0.0
H384 H 0.93432 0.54874 0.00505 0.0
H385 H 0.96536 0.51773 0.99235 0.0
C386 C 0.9473 0.36952 0.93292 0.0
C387 C 0.93219 0.34674 0.94712 0.0
C388 C 0.96236 0.40751 0.9343 0.0
C389 C 0.96396 0.42372 0.95008 0.0
C390 C 0.94646 0.40071 0.96406 0.0
C391 C 0.93051 0.36239 0.96256 0.0
C392 C 0.98582 0.46452 0.95198 0.0
C393 C 0.96943 0.48324 0.95938 0.0
C394 C 0.02237 0.48518 0.94575 0.0
C395 C 0.04298 0.46721 0.93962 0.0
C396 C 0.04653 0.44179 0.9499 0.0
C397 C 0.06554 0.42456 0.94401 0.0
C398 C 0.0814 0.43274 0.9279 0.0
C399 C 0.07834 0.45823 0.91766 0.0
C400 C 0.0593 0.4755 0.92348 0.0
C401 C 0.07002 0.6434 0.96461 0.0
C402 C 0.06988 0.65937 0.949 0.0
C403 C 0.05598 0.60532 0.96579 0.0
C404 C 0.0424 0.58304 0.95131 0.0
C405 C 0.04458 0.59945 0.93556 0.0
C406 C 0.05763 0.6372 0.93447 0.0
C407 C 0.02324 0.54237 0.95256 0.0
C408 C 0.04024 0.52379 0.94579 0.0
C409 C 0.98773 0.5219 0.95975 0.0
C410 C 0.96874 0.54019 0.9673 0.0
C411 C 0.96009 0.56267 0.95739 0.0
C412 C 0.94265 0.58025 0.9647 0.0
C413 C 0.93344 0.57529 0.98188 0.0
C414 C 0.94155 0.55262 0.99176 0.0
C415 C 0.95905 0.53504 0.98451 0.0
H416 H 0.91994 0.58891 0.98752 0.0
H417 H 0.0961 0.41937 0.92336 0.0
H418 H 0.44547 0.10813 0.2895 0.0
H419 H 0.48886 0.08484 0.29026 0.0
H420 H 0.40474 0.98066 0.27043 0.0
H421 H 0.3617 0.00344 0.26959 0.0
H422 H 0.44009 0.97194 0.29764 0.0
H423 H 0.47196 0.04015 0.24508 0.0
H424 H 0.49125 0.09543 0.22752 0.0
H425 H 0.59111 0.15354 0.25625 0.0
H426 H 0.57218 0.09872 0.27413 0.0
H427 H 0.55007 0.89055 0.27775 0.0
H428 H 0.50655 0.91361 0.27737 0.0
H429 H 0.59591 0.02338 0.28755 0.0
H430 H 0.63918 0.00089 0.28686 0.0
H431 H 0.5571 0.02944 0.2654 0.0
H432 H 0.52687 0.96335 0.3183 0.0
H433 H 0.50813 0.90953 0.33683 0.0
H434 H 0.40679 0.84956 0.30932 0.0
H435 H 0.42512 0.90289 0.2905 0.0
C436 C 0.4364 0.08039 0.28521 0.0
C437 C 0.40017 0.05772 0.27947 0.0
C438 C 0.46115 0.0671 0.28565 0.0
C439 C 0.44997 0.03096 0.2804 0.0
C440 C 0.41391 0.00851 0.27462 0.0
C441 C 0.38939 0.02175 0.27408 0.0
C442 C 0.47548 0.01607 0.28089 0.0
C443 C 0.4656 0.98432 0.29051 0.0
C444 C 0.50901 0.0326 0.27185 0.0
C445 C 0.52048 0.06547 0.26104 0.0
C446 C 0.4979 0.06481 0.24773 0.0
C447 C 0.50879 0.09604 0.23771 0.0
C448 C 0.54234 0.12801 0.2408 0.0
C449 C 0.56511 0.12877 0.25389 0.0
C450 C 0.55433 0.09763 0.26396 0.0
C451 C 0.56018 0.91952 0.27994 0.0
C452 C 0.59793 0.94395 0.28224 0.0
C453 C 0.53534 0.93273 0.27983 0.0
C454 C 0.54775 0.97034 0.28261 0.0
C455 C 0.58547 0.99438 0.28523 0.0
C456 C 0.61024 0.98144 0.28488 0.0
C457 C 0.52212 0.98532 0.28238 0.0
C458 C 0.53181 0.01706 0.2727 0.0
C459 C 0.48863 0.96901 0.29156 0.0
C460 C 0.47753 0.93698 0.3029 0.0
C461 C 0.5007 0.9386 0.31614 0.0
C462 C 0.49013 0.9082 0.3267 0.0
C463 C 0.45634 0.87612 0.32422 0.0
C464 C 0.43298 0.87441 0.31121 0.0
C465 C 0.44343 0.90472 0.3006 0.0
H466 H 0.44821 0.85261 0.33241 0.0
H467 H 0.55072 0.15216 0.23303 0.0
H468 H 0.38125 0.16491 0.23878 0.0
H469 H 0.40374 0.1948 0.21114 0.0
H470 H 0.31464 0.10083 0.18643 0.0
H471 H 0.29151 0.07145 0.21391 0.0
H472 H 0.38704 0.13389 0.16928 0.0
H473 H 0.29819 0.16345 0.195 0.0
H474 H 0.27766 0.18841 0.21813 0.0
H475 H 0.37728 0.29264 0.21378 0.0
H476 H 0.39861 0.26802 0.19076 0.0
H477 H 0.29481 0.15192 0.10165 0.0
H478 H 0.31908 0.1442 0.12834 0.0
H479 H 0.40088 0.25959 0.12856 0.0
H480 H 0.37683 0.26744 0.10131 0.0
H481 H 0.35728 0.23274 0.15883 0.0
H482 H 0.43381 0.20584 0.12573 0.0
H483 H 0.45152 0.17938 0.10219 0.0
H484 H 0.37566 0.07039 0.11981 0.0
H485 H 0.357 0.09613 0.14331 0.0
C486 C 0.36702 0.15037 0.2274 0.0
C487 C 0.33453 0.11604 0.22841 0.0
C488 C 0.37987 0.16744 0.21168 0.0
C489 C 0.3608 0.14993 0.19682 0.0
C490 C 0.32981 0.11462 0.19777 0.0
C491 C 0.31651 0.09799 0.21345 0.0
C492 C 0.36987 0.16958 0.18046 0.0
C493 C 0.38103 0.15581 0.16695 0.0
C494 C 0.36309 0.19893 0.17765 0.0
C495 C 0.35022 0.21378 0.19137 0.0
C496 C 0.31585 0.19158 0.1991 0.0
C497 C 0.30404 0.20567 0.21216 0.0
C498 C 0.32622 0.24205 0.21747 0.0
C499 C 0.36019 0.26444 0.20969 0.0
C500 C 0.37216 0.25043 0.19664 0.0
C501 C 0.31821 0.17564 0.10726 0.0
C502 C 0.33379 0.21034 0.09952 0.0
C503 C 0.33226 0.17112 0.12244 0.0
C504 C 0.36196 0.20125 0.13033 0.0
C505 C 0.37811 0.23598 0.12255 0.0
C506 C 0.36443 0.2404 0.10705 0.0
C507 C 0.37301 0.19602 0.14742 0.0
C508 C 0.36522 0.21218 0.16115 0.0
C509 C 0.38292 0.16887 0.15041 0.0
C510 C 0.39396 0.15299 0.13631 0.0
C511 C 0.4207 0.17622 0.12454 0.0
C512 C 0.43094 0.16134 0.1112 0.0
C513 C 0.41473 0.12323 0.10951 0.0
C514 C 0.38824 0.09992 0.12116 0.0
C515 C 0.37788 0.11465 0.13452 0.0
H516 H 0.42269 0.11176 0.09917 0.0
H517 H 0.31703 0.25292 0.22758 0.0
H518 H 0.15527 0.37769 0.42312 0.0
H519 H 0.18953 0.4028 0.44961 0.0
H520 H 0.09581 0.32261 0.47804 0.0
H521 H 0.06198 0.29688 0.45171 0.0
H522 H 0.13599 0.39611 0.49322 0.0
H523 H 0.15367 0.29887 0.46768 0.0
H524 H 0.17309 0.27374 0.44418 0.0
H525 H 0.28116 0.36909 0.44547 0.0
H526 H 0.26212 0.395 0.46885 0.0
H527 H 0.15011 0.30092 0.56013 0.0
H528 H 0.1434 0.32608 0.53351 0.0
H529 H 0.26043 0.4016 0.53208 0.0
H530 H 0.26728 0.37669 0.55932 0.0
H531 H 0.22855 0.35697 0.50189 0.0
H532 H 0.2134 0.44112 0.53513 0.0
H533 H 0.19233 0.46341 0.5591 0.0
H534 H 0.08002 0.39346 0.54392 0.0
H535 H 0.10031 0.37025 0.52001 0.0
C536 C 0.14172 0.36614 0.43507 0.0
C537 C 0.10611 0.33524 0.43543 0.0
C538 C 0.16131 0.38045 0.45014 0.0
C539 C 0.14514 0.36447 0.46572 0.0
C540 C 0.10863 0.33541 0.46613 0.0
C541 C 0.08942 0.32063 0.4511 0.0
C542 C 0.16709 0.37413 0.48146 0.0
C543 C 0.15662 0.38811 0.49514 0.0
C544 C 0.19484 0.36477 0.48372 0.0
C545 C 0.20635 0.34909 0.46981 0.0
C546 C 0.18147 0.3146 0.46284 0.0
C547 C 0.19242 0.30019 0.44957 0.0
C548 C 0.2283 0.31987 0.44328 0.0
C549 C 0.25335 0.35393 0.45031 0.0
C550 C 0.24249 0.3685 0.46357 0.0
C551 C 0.17444 0.32313 0.55426 0.0
C552 C 0.20925 0.3367 0.56167 0.0
C553 C 0.17053 0.3377 0.53912 0.0
C554 C 0.20136 0.36589 0.53092 0.0
C555 C 0.2363 0.38002 0.53834 0.0
C556 C 0.24016 0.36586 0.55382 0.0
C557 C 0.19624 0.37742 0.51391 0.0
C558 C 0.20948 0.36699 0.49992 0.0
C559 C 0.17107 0.39011 0.51139 0.0
C560 C 0.15845 0.40392 0.52574 0.0
C561 C 0.18418 0.4303 0.53694 0.0
C562 C 0.17237 0.44312 0.55052 0.0
C563 C 0.13486 0.42986 0.55303 0.0
C564 C 0.10908 0.40375 0.54194 0.0
C565 C 0.12074 0.39081 0.52834 0.0
H566 H 0.12577 0.43983 0.56355 0.0
H567 H 0.23674 0.30868 0.43301 0.0
H568 H 0.73948 0.11133 0.76559 0.0
H569 H 0.74282 0.13618 0.79418 0.0
H570 H 0.83185 0.11668 0.80645 0.0
H571 H 0.82802 0.09122 0.77864 0.0
H572 H 0.7862 0.09567 0.83156 0.0
H573 H 0.84297 0.20405 0.7937 0.0
H574 H 0.84016 0.24215 0.77058 0.0
H575 H 0.75446 0.24966 0.79674 0.0
H576 H 0.75658 0.2113 0.81993 0.0
H577 H 0.92636 0.21798 0.88021 0.0
H578 H 0.88939 0.19875 0.85451 0.0
H579 H 0.80061 0.20115 0.88077 0.0
H580 H 0.83779 0.22068 0.90683 0.0
H581 H 0.82242 0.22664 0.84002 0.0
H582 H 0.77834 0.12649 0.88123 0.0
H583 H 0.78977 0.09295 0.90388 0.0
H584 H 0.85778 0.07232 0.87024 0.0
H585 H 0.84722 0.10626 0.84748 0.0
C586 C 0.75952 0.11213 0.77449 0.0
C587 C 0.78334 0.09908 0.76981 0.0
C588 C 0.76147 0.12644 0.79078 0.0
C589 C 0.78762 0.12834 0.80249 0.0
C590 C 0.81113 0.11516 0.79776 0.0
C591 C 0.80893 0.1006 0.78174 0.0
C592 C 0.7921 0.14456 0.81964 0.0
C593 C 0.79342 0.12412 0.83342 0.0
C594 C 0.80066 0.1814 0.82229 0.0
C595 C 0.79961 0.20449 0.8084 0.0
C596 C 0.82339 0.21366 0.79445 0.0
C597 C 0.82195 0.23532 0.78135 0.0
C598 C 0.79706 0.24821 0.78216 0.0
C599 C 0.77366 0.23958 0.7961 0.0
C600 C 0.77497 0.2179 0.80922 0.0
C601 C 0.89933 0.21532 0.88047 0.0
C602 C 0.88473 0.22025 0.8956 0.0
C603 C 0.87834 0.20458 0.86574 0.0
C604 C 0.8423 0.19835 0.86584 0.0
C605 C 0.82851 0.20606 0.8805 0.0
C606 C 0.84973 0.21711 0.89534 0.0
C607 C 0.81816 0.17811 0.85144 0.0
C608 C 0.81333 0.1977 0.83828 0.0
C609 C 0.80672 0.14052 0.84921 0.0
C610 C 0.81203 0.11896 0.86268 0.0
C611 C 0.79583 0.1149 0.87869 0.0
C612 C 0.80216 0.09584 0.89155 0.0
C613 C 0.8245 0.08052 0.8885 0.0
C614 C 0.84045 0.08415 0.87258 0.0
C615 C 0.83425 0.10324 0.85969 0.0
H616 H 0.82942 0.06583 0.89848 0.0
H617 H 0.79598 0.26496 0.77201 0.0
H618 H 0.70585 0.85073 0.09851 0.0
H619 H 0.68849 0.86162 0.12641 0.0
H620 H 0.60188 0.74826 0.12916 0.0
H621 H 0.61882 0.73731 0.1007 0.0
H622 H 0.58827 0.80745 0.14592 0.0
H623 H 0.66991 0.75805 0.14655 0.0
H624 H 0.72262 0.75287 0.13628 0.0
H625 H 0.79602 0.86628 0.14866 0.0
H626 H 0.74366 0.87229 0.15874 0.0
H627 H 0.61824 0.84253 0.23813 0.0
H628 H 0.60108 0.8141 0.20989 0.0
H629 H 0.69905 0.90578 0.18897 0.0
H630 H 0.71651 0.93363 0.21693 0.0
H631 H 0.69534 0.84022 0.18333 0.0
H632 H 0.61311 0.89093 0.17997 0.0
H633 H 0.56057 0.89719 0.18951 0.0
H634 H 0.48809 0.78114 0.18284 0.0
H635 H 0.54034 0.77413 0.17345 0.0
C636 C 0.6825 0.82832 0.10486 0.0
C637 C 0.664 0.79307 0.09765 0.0
C638 C 0.67249 0.83462 0.12074 0.0
C639 C 0.64425 0.80564 0.12988 0.0
C640 C 0.62369 0.77095 0.12223 0.0
C641 C 0.63344 0.76471 0.10607 0.0
C642 C 0.64114 0.8111 0.14817 0.0
C643 C 0.61119 0.81381 0.15429 0.0
C644 C 0.6711 0.81937 0.159 0.0
C645 C 0.70282 0.81563 0.15334 0.0
C646 C 0.69727 0.78193 0.147 0.0
C647 C 0.72709 0.77885 0.14122 0.0
C648 C 0.76265 0.80924 0.14181 0.0
C649 C 0.76847 0.84275 0.14822 0.0
C650 C 0.73873 0.846 0.154 0.0
C651 C 0.63552 0.85696 0.22738 0.0
C652 C 0.66896 0.89 0.22971 0.0
C653 C 0.62571 0.8407 0.21129 0.0
C654 C 0.64903 0.85767 0.19739 0.0
C655 C 0.68088 0.89203 0.19957 0.0
C656 C 0.69083 0.90794 0.21555 0.0
C657 C 0.64337 0.83853 0.18096 0.0
C658 C 0.67184 0.83301 0.1752 0.0
C659 C 0.61199 0.82758 0.17065 0.0
C660 C 0.58069 0.83194 0.17621 0.0
C661 C 0.58603 0.8667 0.18068 0.0
C662 C 0.55629 0.8704 0.18603 0.0
C663 C 0.52104 0.83957 0.18684 0.0
C664 C 0.51543 0.80499 0.18224 0.0
C665 C 0.54508 0.80114 0.1769 0.0
H666 H 0.49805 0.84249 0.19098 0.0
H667 H 0.78569 0.8068 0.13731 0.0
H668 H 0.8554 0.6847 0.57059 0.0
H669 H 0.86527 0.669 0.5421 0.0
H670 H 0.74925 0.61972 0.53158 0.0
H671 H 0.73905 0.63468 0.56057 0.0
H672 H 0.79126 0.58577 0.51423 0.0
H673 H 0.79067 0.69994 0.52112 0.0
H674 H 0.80702 0.75786 0.53593 0.0
H675 H 0.92181 0.79512 0.52881 0.0
H676 H 0.90612 0.73713 0.5142 0.0
H677 H 0.8391 0.63331 0.42491 0.0
H678 H 0.81063 0.6162 0.45311 0.0
H679 H 0.91598 0.68903 0.476 0.0
H680 H 0.94376 0.70724 0.44799 0.0
H681 H 0.86741 0.70613 0.48579 0.0
H682 H 0.86896 0.59178 0.47974 0.0
H683 H 0.85356 0.53324 0.46579 0.0
H684 H 0.73836 0.49605 0.47103 0.0
H685 H 0.75309 0.55458 0.48483 0.0
C686 C 0.83183 0.66945 0.56238 0.0
C687 C 0.79658 0.66123 0.56758 0.0
C688 C 0.83745 0.66035 0.54617 0.0
C689 C 0.80807 0.64365 0.53472 0.0
C690 C 0.77221 0.63248 0.5403 0.0
C691 C 0.76644 0.64113 0.55677 0.0
C692 C 0.81656 0.64459 0.5165 0.0
C693 C 0.80738 0.61194 0.50782 0.0
C694 C 0.83771 0.6788 0.50827 0.0
C695 C 0.8472 0.71411 0.51666 0.0
C696 C 0.81939 0.72041 0.52279 0.0
C697 C 0.82854 0.75325 0.53115 0.0
C698 C 0.86543 0.78013 0.53333 0.0
C699 C 0.89324 0.77427 0.52711 0.0
C700 C 0.88424 0.74145 0.51877 0.0
C701 C 0.85619 0.64478 0.43604 0.0
C702 C 0.89346 0.67175 0.4344 0.0
C703 C 0.83996 0.63499 0.45212 0.0
C704 C 0.86112 0.65152 0.46669 0.0
C705 C 0.89901 0.67619 0.46496 0.0
C706 C 0.91493 0.68652 0.44898 0.0
C707 C 0.84377 0.64736 0.48354 0.0
C708 C 0.851 0.67972 0.49197 0.0
C709 C 0.82091 0.61289 0.49139 0.0
C710 C 0.81213 0.57772 0.48314 0.0
C711 C 0.84035 0.57125 0.47779 0.0
C712 C 0.83174 0.53804 0.46994 0.0
C713 C 0.79501 0.51099 0.46748 0.0
C714 C 0.7668 0.51705 0.47292 0.0
C715 C 0.77526 0.55021 0.48076 0.0
H716 H 0.7884 0.4853 0.4614 0.0
H717 H 0.87246 0.80553 0.53982 0.0
H718 H 0.1288 0.84458 0.89421 0.0
H719 H 0.158 0.8537 0.86672 0.0
H720 H 0.14336 0.74449 0.86879 0.0
H721 H 0.11422 0.73526 0.89694 0.0
H722 H 0.21597 0.80796 0.85309 0.0
H723 H 0.08509 0.74397 0.84663 0.0
H724 H 0.02217 0.73023 0.85353 0.0
H725 H 0.05003 0.83984 0.8392 0.0
H726 H 0.11328 0.85443 0.83246 0.0
H727 H 0.23325 0.85515 0.76019 0.0
H728 H 0.21832 0.8198 0.78673 0.0
H729 H 0.20739 0.90472 0.81213 0.0
H730 H 0.22215 0.93993 0.78597 0.0
H731 H 0.14214 0.83047 0.8107 0.0
H732 H 0.27515 0.89606 0.82249 0.0
H733 H 0.33867 0.9108 0.81626 0.0
H734 H 0.30588 0.79635 0.8198 0.0
H735 H 0.24202 0.78089 0.82583 0.0
C736 C 0.13208 0.82255 0.88896 0.0
C737 C 0.11857 0.78892 0.89751 0.0
C738 C 0.14903 0.82792 0.87331 0.0
C739 C 0.15237 0.79962 0.86568 0.0
C740 C 0.14098 0.76662 0.87454 0.0
C741 C 0.12425 0.76135 0.89051 0.0
C742 C 0.16388 0.80426 0.84775 0.0
C743 C 0.1995 0.81179 0.8436 0.0
C744 C 0.14227 0.80914 0.83541 0.0
C745 C 0.10395 0.80026 0.83904 0.0
C746 C 0.07783 0.76518 0.845 0.0
C747 C 0.04211 0.75725 0.84889 0.0
C748 C 0.0321 0.78414 0.8468 0.0
C749 C 0.05779 0.81901 0.84078 0.0
C750 C 0.09357 0.8271 0.83689 0.0
C751 C 0.22874 0.86673 0.77157 0.0
C752 C 0.22827 0.90004 0.77095 0.0
C753 C 0.22017 0.84648 0.78667 0.0
C754 C 0.21139 0.85956 0.80126 0.0
C755 C 0.21385 0.89411 0.80094 0.0
C756 C 0.22224 0.91417 0.78596 0.0
C757 C 0.19489 0.83608 0.81631 0.0
C758 C 0.15812 0.82508 0.81987 0.0
C759 C 0.21537 0.8278 0.82791 0.0
C760 C 0.25375 0.83727 0.82437 0.0
C761 C 0.28141 0.874 0.82176 0.0
C762 C 0.31749 0.88249 0.81831 0.0
C763 C 0.32628 0.85451 0.81757 0.0
C764 C 0.29903 0.81799 0.82034 0.0
C765 C 0.2629 0.80935 0.82378 0.0
H766 H 0.35423 0.86114 0.8149 0.0
H767 H 0.00445 0.77796 0.84984 0.0
H768 H 0.15672 0.83859 0.98543 0.0
H769 H 0.20397 0.89486 -0.00035 0.0
H770 H 0.19327 0.96095 0.96068 0.0
H771 H 0.14693 0.9057 0.94661 0.0
H772 H 0.26393 0.99081 0.97024 0.0
H773 H 0.14387 0.9391 0.9965 0.0
H774 H 0.08978 0.88996 0.01109 0.0
H775 H 0.15781 0.895 0.05279 0.0
H776 H 0.21273 0.94328 0.03807 0.0
H777 H 0.27612 0.15335 0.0037 0.0
H778 H 0.26443 0.09567 0.9904 0.0
H779 H 0.29453 0.06338 0.03688 0.0
H780 H 0.30623 0.12113 0.05011 0.0
H781 H 0.22645 0.01296 0.02655 0.0
H782 H 0.34526 0.07613 0.00154 0.0
H783 H 0.39741 0.12562 0.98594 0.0
H784 H 0.32986 0.10156 0.94164 0.0
H785 H 0.27711 0.05227 0.95704 0.0
C786 C 0.16507 0.86516 0.97981 0.0
C787 C 0.14768 0.86777 0.96509 0.0
C788 C 0.19198 0.89724 0.98791 0.0
C789 C 0.20195 0.93219 0.98129 0.0
C790 C 0.18618 0.93444 0.96604 0.0
C791 C 0.15932 0.90272 0.9581 0.0
C792 C 0.22549 0.96675 0.99082 0.0
C793 C 0.25593 0.99566 0.9826 0.0
C794 C 0.21547 0.97292 0.00709 0.0
C795 C 0.18247 0.94436 0.01607 0.0
C796 C 0.14737 0.92949 0.00871 0.0
C797 C 0.11654 0.9018 0.01701 0.0
C798 C 0.12028 0.88938 0.03289 0.0
C799 C 0.15495 0.90459 0.04048 0.0
C800 C 0.18597 0.93201 0.03212 0.0
C801 C 0.28183 0.13462 0.01076 0.0
C802 C 0.29282 0.14181 0.02775 0.0
C803 C 0.275 0.10161 0.00322 0.0
C804 C 0.27873 0.07519 0.01263 0.0
C805 C 0.29166 0.08339 0.02935 0.0
C806 C 0.29867 0.11646 0.03684 0.0
C807 C 0.26435 0.03743 0.00576 0.0
C808 C 0.23541 0.00795 0.01445 0.0
C809 C 0.27549 0.03094 0.98984 0.0
C810 C 0.30714 0.06058 0.9805 0.0
C811 C 0.34142 0.08155 0.98851 0.0
C812 C 0.37112 0.10955 0.97969 0.0
C813 C 0.36694 0.11676 0.96282 0.0
C814 C 0.33306 0.09594 0.95472 0.0
C815 C 0.30327 0.06792 0.96348 0.0
H816 H 0.38997 0.13844 0.95601 0.0
H817 H 0.09632 0.86801 0.03932 0.0
H818 H 0.16102 0.25549 0.38757 0.0
H819 H 0.20753 0.24909 0.37211 0.0
H820 H 0.19871 0.31063 0.33041 0.0
H821 H 0.15132 0.31695 0.34599 0.0
H822 H 0.19064 0.24559 0.32029 0.0
H823 H 0.27906 0.3455 0.35305 0.0
H824 H 0.30634 0.38191 0.37894 0.0
H825 H 0.31771 0.29388 0.40006 0.0
H826 H 0.29001 0.25668 0.37441 0.0
H827 H 0.30425 0.19826 0.27662 0.0
H828 H 0.29165 0.24252 0.29091 0.0
H829 H 0.28325 0.18885 0.33864 0.0
H830 H 0.29706 0.14522 0.32434 0.0
H831 H 0.30859 0.263 0.34301 0.0
H832 H 0.20853 0.15979 0.31399 0.0
H833 H 0.17856 0.12039 0.28916 0.0
H834 H 0.18681 0.21301 0.26214 0.0
H835 H 0.21736 0.25309 0.28676 0.0
C836 C 0.16939 0.26829 0.37522 0.0
C837 C 0.1523 0.2865 0.36793 0.0
C838 C 0.19631 0.26488 0.36644 0.0
C839 C 0.20695 0.27963 0.35013 0.0
C840 C 0.19107 0.29922 0.34303 0.0
C841 C 0.16416 0.30296 0.35195 0.0
C842 C 0.23118 0.27042 0.34002 0.0
C843 C 0.21699 0.25045 0.325 0.0
C844 C 0.2651 0.27577 0.34641 0.0
C845 C 0.28229 0.29822 0.3618 0.0
C846 C 0.28719 0.3338 0.36325 0.0
C847 C 0.30275 0.3546 0.37788 0.0
C848 C 0.31371 0.3402 0.39114 0.0
C849 C 0.30923 0.305 0.38978 0.0
C850 C 0.29366 0.28408 0.37517 0.0
C851 C 0.30145 0.19709 0.29028 0.0
C852 C 0.30192 0.16869 0.29946 0.0
C853 C 0.29394 0.22216 0.29842 0.0
C854 C 0.28569 0.21851 0.31579 0.0
C855 C 0.28951 0.1922 0.32523 0.0
C856 C 0.29755 0.16738 0.31709 0.0
C857 C 0.26768 0.23786 0.32348 0.0
C858 C 0.28283 0.25928 0.33807 0.0
C859 C 0.23441 0.23363 0.31682 0.0
C860 C 0.21559 0.20949 0.30212 0.0
C861 C 0.20414 0.17178 0.30271 0.0
C862 C 0.18705 0.14933 0.28869 0.0
C863 C 0.18088 0.16421 0.27406 0.0
C864 C 0.19168 0.20155 0.27346 0.0
C865 C 0.20889 0.22414 0.28744 0.0
H866 H 0.16764 0.14679 0.26321 0.0
H867 H 0.3257 0.35632 0.40247 0.0
H868 H 0.83837 0.15948 0.67884 0.0
H869 H 0.89259 0.2067 0.66347 0.0
H870 H 0.96204 0.21391 0.70531 0.0
H871 H 0.90845 0.16774 0.7206 0.0
H872 H 0.98976 0.27932 0.69076 0.0
H873 H 0.94306 0.15305 0.67239 0.0
H874 H 0.89588 0.09332 0.66073 0.0
H875 H 0.89048 0.1469 0.61539 0.0
H876 H 0.93728 0.20704 0.62691 0.0
H877 H 0.1555 0.29589 0.65714 0.0
H878 H 0.0988 0.28477 0.67133 0.0
H879 H 0.05339 0.29041 0.62314 0.0
H880 H 0.10967 0.30074 0.60903 0.0
H881 H 0.00991 0.22764 0.63808 0.0
H882 H 0.0691 0.35322 0.65522 0.0
H883 H 0.11801 0.41102 0.66762 0.0
H884 H 0.10249 0.35788 0.71581 0.0
H885 H 0.05384 0.29959 0.70366 0.0
C886 C 0.86507 0.1722 0.68493 0.0
C887 C 0.86933 0.15971 0.7008 0.0
C888 C 0.89607 0.19894 0.67612 0.0
C889 C 0.93158 0.21336 0.6831 0.0
C890 C 0.93512 0.20324 0.6996 0.0
C891 C 0.90441 0.17665 0.70831 0.0
C892 C 0.96547 0.23489 0.67276 0.0
C893 C 0.99419 0.26817 0.67919 0.0
C894 C 0.9712 0.22065 0.65754 0.0
C895 C 0.94324 0.18453 0.65059 0.0
C896 C 0.9316 0.15209 0.65998 0.0
C897 C 0.90496 0.11818 0.6534 0.0
C898 C 0.8901 0.11633 0.63735 0.0
C899 C 0.90194 0.14839 0.62784 0.0
C900 C 0.9285 0.18239 0.63438 0.0
C901 C 0.134 0.29638 0.64975 0.0
C902 C 0.13698 0.29968 0.63207 0.0
C903 C 0.10152 0.2899 0.65783 0.0
C904 C 0.07168 0.28674 0.64831 0.0
C905 C 0.07591 0.29271 0.63076 0.0
C906 C 0.10817 0.29893 0.62272 0.0
C907 C 0.03463 0.27196 0.65617 0.0
C908 C 0.00536 0.23961 0.64934 0.0
C909 C 0.02869 0.28691 0.6711 0.0
C910 C 0.05794 0.32193 0.67848 0.0
C911 C 0.0763 0.35376 0.66843 0.0
C912 C 0.10395 0.38664 0.67543 0.0
C913 C 0.11339 0.3881 0.69249 0.0
C914 C 0.09515 0.3567 0.7026 0.0
C915 C 0.06749 0.32374 0.69567 0.0
H916 H 0.13481 0.41359 0.69788 0.0
H917 H 0.8695 0.09005 0.63228 0.0
H918 H 0.66883 0.84867 0.02508 0.0
H919 H 0.68154 0.90775 0.0125 0.0
H920 H 0.79743 0.94408 0.01183 0.0
H921 H 0.7853 0.88588 0.02382 0.0
H922 H 0.77317 0.99108 0.03013 0.0
H923 H 0.76088 0.92425 0.97706 0.0
H924 H 0.7251 0.87471 0.95655 0.0
H925 H 0.64637 0.91116 0.95215 0.0
H926 H 0.68149 0.96066 0.97284 0.0
H927 H 0.9024 0.13159 0.98108 0.0
H928 H 0.85798 0.07543 0.99544 0.0
H929 H 0.76906 0.08857 0.97616 0.0
H930 H 0.8141 0.1457 0.96168 0.0
H931 H 0.7591 0.01803 0.97033 0.0
H932 H 0.78161 0.09526 0.0175 0.0
H933 H 0.81772 0.14525 0.03774 0.0
H934 H 0.87511 0.08994 0.05398 0.0
H935 H 0.83977 0.03987 0.03367 0.0
C936 C 0.69688 0.86899 0.0219 0.0
C937 C 0.72605 0.86265 0.02569 0.0
C938 C 0.70409 0.90273 0.0148 0.0
C939 C 0.7405 0.93039 0.0115 0.0
C940 C 0.76921 0.92327 0.01448 0.0
C941 C 0.76211 0.88983 0.02135 0.0
C942 C 0.75009 0.96783 0.00584 0.0
C943 C 0.76981 0.99708 0.01711 0.0
C944 C 0.74447 0.97549 0.98904 0.0
C945 C 0.72345 0.94573 0.97668 0.0
C946 C 0.7357 0.92142 0.97187 0.0
C947 C 0.71562 0.89343 0.96017 0.0
C948 C 0.68339 0.88968 0.9531 0.0
C949 C 0.67127 0.91402 0.95767 0.0
C950 C 0.69125 0.94204 0.96938 0.0
C951 C 0.87343 0.12299 0.98018 0.0
C952 C 0.86167 0.14303 0.97033 0.0
C953 C 0.84803 0.0909 0.98843 0.0
C954 C 0.81015 0.07783 0.98697 0.0
C955 C 0.79817 0.09828 0.97751 0.0
C956 C 0.82385 0.13098 0.96939 0.0
C957 C 0.78394 0.04141 0.99444 0.0
C958 C 0.76124 0.01229 0.98355 0.0
C959 C 0.78664 0.0338 0.01167 0.0
C960 C 0.80799 0.06377 0.02401 0.0
C961 C 0.80207 0.09383 0.02531 0.0
C962 C 0.8224 0.12219 0.03681 0.0
C963 C 0.84869 0.12078 0.04714 0.0
C964 C 0.85469 0.09097 0.04599 0.0
C965 C 0.83445 0.06254 0.03451 0.0
H966 H 0.86441 0.14276 0.05603 0.0
H967 H 0.66789 0.86801 0.94404 0.0
H968 H 0.67503 0.79862 0.28149 0.0
H969 H 0.68627 0.75129 0.29365 0.0
H970 H 0.73342 0.81876 0.33804 0.0
H971 H 0.72208 0.86575 0.32588 0.0
H972 H 0.75415 0.76534 0.29851 0.0
H973 H 0.73201 0.769 0.3714 0.0
H974 H 0.68613 0.76945 0.39072 0.0
H975 H 0.60307 0.71957 0.35232 0.0
H976 H 0.64828 0.71829 0.33284 0.0
H977 H 0.89085 0.77297 0.35 0.0
H978 H 0.84285 0.778 0.33512 0.0
H979 H 0.76279 0.66806 0.35081 0.0
H980 H 0.81147 0.66284 0.36593 0.0
H981 H 0.7409 0.71965 0.35747 0.0
H982 H 0.78253 0.68229 0.30973 0.0
H983 H 0.82817 0.68136 0.2904 0.0
H984 H 0.86889 0.79483 0.27793 0.0
H985 H 0.82387 0.79664 0.29736 0.0
C986 C 0.68607 0.80234 0.2942 0.0
C987 C 0.69704 0.83532 0.30295 0.0
C988 C 0.69282 0.77551 0.30107 0.0
C989 C 0.71058 0.78131 0.3168 0.0
C990 C 0.71904 0.8132 0.32605 0.0
C991 C 0.71248 0.84005 0.31914 0.0
C992 C 0.72602 0.75782 0.32227 0.0
C993 C 0.7507 0.75475 0.31132 0.0
C994 C 0.72111 0.74336 0.33887 0.0
C995 C 0.69365 0.74369 0.35062 0.0
C996 C 0.70391 0.75788 0.3671 0.0
C997 C 0.67802 0.75835 0.37808 0.0
C998 C 0.64172 0.7446 0.37274 0.0
C999 C 0.63122 0.73031 0.35642 0.0
C1000 C 0.65699 0.72976 0.3454 0.0
C1001 C 0.86315 0.74955 0.35007 0.0
C1002 C 0.85486 0.71752 0.35915 0.0
C1003 C 0.83573 0.75242 0.34149 0.0
C1004 C 0.79923 0.72335 0.34175 0.0
C1005 C 0.79084 0.69076 0.35039 0.0
C1006 C 0.81862 0.68769 0.3589 0.0
C1007 C 0.7702 0.72902 0.33396 0.0
C1008 C 0.74329 0.72907 0.3445 0.0
C1009 C 0.77287 0.74057 0.31694 0.0
C1010 C 0.79977 0.73957 0.30503 0.0
C1011 C 0.80131 0.7071 0.30292 0.0
C1012 C 0.82708 0.70642 0.29194 0.0
C1013 C 0.85141 0.73801 0.28294 0.0
C1014 C 0.84998 0.77035 0.28489 0.0
C1015 C 0.82428 0.77119 0.29586 0.0
H1016 H 0.87136 0.73744 0.27446 0.0
H1017 H 0.62173 0.745 0.38126 0.0
H1018 H 0.0963 0.85119 0.72166 0.0
H1019 H 0.04209 0.80312 0.70776 0.0
H1020 H 0.1101 0.79448 0.66917 0.0
H1021 H 0.16543 0.84387 0.68314 0.0
H1022 H 0.05458 0.8001 0.65542 0.0
H1023 H 0.06088 0.7223 0.6967 0.0
H1024 H 0.06928 0.70267 0.72496 0.0
H1025 H 0.97466 0.70591 0.74329 0.0
H1026 H 0.96596 0.7261 0.71522 0.0
H1027 H 0.88102 0.67916 0.62002 0.0
H1028 H 0.93873 0.69199 0.63374 0.0
H1029 H 0.90978 0.73316 0.67766 0.0
H1030 H 0.85226 0.72045 0.66389 0.0
H1031 H 0.95004 0.69775 0.68588 0.0
H1032 H 0.95565 0.79033 0.64657 0.0
H1033 H 0.94741 0.8109 0.61848 0.0
H1034 H 0.02093 0.779 0.59659 0.0
H1035 H 0.02914 0.75772 0.62454 0.0
C1036 C 0.10001 0.83887 0.71032 0.0
C1037 C 0.13526 0.8516 0.70344 0.0
C1038 C 0.06883 0.81097 0.70246 0.0
C1039 C 0.07184 0.79467 0.68751 0.0
C1040 C 0.1071 0.80646 0.68078 0.0
C1041 C 0.13867 0.83452 0.68878 0.0
C1042 C 0.03759 0.76817 0.6784 0.0
C1043 C 0.03214 0.77697 0.6619 0.0
C1044 C 0.00796 0.73822 0.68688 0.0
C1045 C 0.01283 0.72582 0.70382 0.0
C1046 C 0.04197 0.71904 0.70678 0.0
C1047 C 0.04677 0.70778 0.72277 0.0
C1048 C 0.02253 0.70306 0.73591 0.0
C1049 C 0.99339 0.70954 0.73309 0.0
C1050 C 0.98847 0.72081 0.71712 0.0
C1051 C 0.88624 0.68921 0.63293 0.0
C1052 C 0.86203 0.69818 0.64108 0.0
C1053 C 0.91935 0.6969 0.64069 0.0
C1054 C 0.92877 0.71393 0.65665 0.0
C1055 C 0.90303 0.71987 0.66538 0.0
C1056 C 0.87007 0.7124 0.65758 0.0
C1057 C 0.96702 0.73052 0.66323 0.0
C1058 C 0.97299 0.72002 0.67924 0.0
C1059 C 0.99721 0.75882 0.6543 0.0
C1060 C 0.99263 0.77202 0.63757 0.0
C1061 C 0.96984 0.78747 0.63573 0.0
C1062 C 0.9652 0.79928 0.61985 0.0
C1063 C 0.98354 0.79615 0.60575 0.0
C1064 C 0.00666 0.78132 0.60752 0.0
C1065 C 0.01132 0.76937 0.62337 0.0
H1066 H 0.97992 0.80531 0.59346 0.0
H1067 H 0.02631 0.69436 0.74829 0.0
H1068 H 0.98221 0.24979 0.99372 0.0
H1069 H 0.03048 0.24229 0.00723 0.0
H1070 H 0.07141 0.23514 0.95806 0.0
H1071 H 0.02213 0.24092 0.94455 0.0
H1072 H 0.07555 0.18875 0.97806 0.0
H1073 H 0.11169 0.31614 0.98219 0.0
H1074 H 0.10506 0.36969 0.98939 0.0
H1075 H 0.09344 0.33979 0.04196 0.0
H1076 H 0.09948 0.28574 0.03503 0.0
H1077 H 0.26219 0.24974 0.00357 0.0
H1078 H 0.20649 0.24438 0.99077 0.0
H1079 H 0.15483 0.22205 0.03988 0.0
H1080 H 0.21008 0.22668 0.05273 0.0
H1081 H 0.15541 0.2814 0.02062 0.0
H1082 H 0.12424 0.15469 0.01491 0.0
H1083 H 0.13551 0.10483 0.00612 0.0
H1084 H 0.14364 0.1387 0.95425 0.0
H1085 H 0.133 0.18917 0.96277 0.0
C1086 C 0.00144 0.24645 0.98583 0.0
C1087 C 0.99875 0.24629 0.96811 0.0
C1088 C 0.02907 0.2423 0.99354 0.0
C1089 C 0.05507 0.23893 0.98366 0.0
C1090 C 0.05174 0.23778 0.96595 0.0
C1091 C 0.02369 0.24123 0.95824 0.0
C1092 C 0.08631 0.23763 0.99173 0.0
C1093 C 0.09319 0.20924 0.98724 0.0
C1094 C 0.1092 0.26414 0.00385 0.0
C1095 C 0.10564 0.29668 0.00806 0.0
C1096 C 0.10744 0.32083 0.99527 0.0
C1097 C 0.10383 0.3513 -0.0007 0.0
C1098 C 0.09872 0.35808 0.01612 0.0
C1099 C 0.09732 0.33446 0.02894 0.0
C1100 C 0.10086 0.30392 0.02497 0.0
C1101 C 0.23879 0.24328 0.01159 0.0
C1102 C 0.24041 0.23873 0.02913 0.0
C1103 C 0.20705 0.24014 0.00427 0.0
C1104 C 0.17672 0.23281 0.01442 0.0
C1105 C 0.17805 0.22769 0.03188 0.0
C1106 C 0.20953 0.23025 0.03917 0.0
C1107 C 0.1444 0.23261 0.00695 0.0
C1108 C 0.1375 0.26084 0.01152 0.0
C1109 C 0.12208 0.20647 0.99466 0.0
C1110 C 0.12817 0.17594 0.98951 0.0
C1111 C 0.12876 0.15172 0.00165 0.0
C1112 C 0.13497 0.12331 0.99671 0.0
C1113 C 0.14038 0.11866 0.97964 0.0
C1114 C 0.13948 0.14236 0.96747 0.0
C1115 C 0.13333 0.17085 0.97234 0.0
H1116 H 0.14519 0.09665 0.97584 0.0
H1117 H 0.09594 0.38168 0.01922 0.0
H1118 H 0.79086 0.97263 0.29006 0.0
H1119 H 0.8481 0.01783 0.30365 0.0
H1120 H 0.786 0.04261 0.3396 0.0
H1121 H 0.7287 0.99592 0.32659 0.0
H1122 H 0.87675 0.08599 0.30472 0.0
H1123 H 0.83145 0.07904 0.37527 0.0
H1124 H 0.79183 0.03201 0.39609 0.0
H1125 H 0.80241 0.9497 0.36846 0.0
H1126 H 0.84252 0.9963 0.34762 0.0
H1127 H 0.98476 0.2561 0.34355 0.0
H1128 H 0.93677 0.19786 0.33204 0.0
H1129 H 0.9676 0.13893 0.36712 0.0
H1130 H 0.01402 0.19753 0.37949 0.0
H1131 H 0.89928 0.10618 0.36645 0.0
H1132 H 0.98724 0.14658 0.32214 0.0
H1133 H 0.03136 0.18937 0.30114 0.0
H1134 H 0.94425 0.19614 0.27597 0.0
H1135 H 0.89967 0.15378 0.29695 0.0
C1136 C 0.78947 0.98725 0.30107 0.0
C1137 C 0.75546 0.98087 0.3073 0.0
C1138 C 0.82219 0.01315 0.3088 0.0
C1139 C 0.82152 0.0336 0.32273 0.0
C1140 C 0.78737 0.02665 0.32915 0.0
C1141 C 0.7546 1.00011 0.32165 0.0
C1142 C 0.85638 0.06422 0.32961 0.0
C1143 C 0.88183 0.09016 0.31823 0.0
C1144 C 0.86363 0.06932 0.3472 0.0
C1145 C 0.8398 0.04117 0.35981 0.0
C1146 C 0.8255 0.05095 0.37369 0.0
C1147 C 0.80291 0.02435 0.38548 0.0
C1148 C 0.79454 0.98788 0.38358 0.0
C1149 C 0.80882 0.97794 0.3699 0.0
C1150 C 0.83145 0.00443 0.35807 0.0
C1151 C 0.98148 0.23069 0.34868 0.0
C1152 C 0.00305 0.23114 0.36233 0.0
C1153 C 0.9542 0.19736 0.34202 0.0
C1154 C 0.94896 0.16382 0.34842 0.0
C1155 C 0.97107 0.16436 0.36193 0.0
C1156 C 0.99765 0.19777 0.36895 0.0
C1157 C 0.91917 0.12837 0.34156 0.0
C1158 C 0.89458 0.10163 0.35294 0.0
C1159 C 0.91345 0.12178 0.32393 0.0
C1160 C 0.94014 0.14712 0.31119 0.0
C1161 C 0.97752 0.15734 0.31218 0.0
C1162 C 0.00261 0.18151 0.30027 0.0
C1163 C 0.99062 0.1955 0.28724 0.0
C1164 C 0.9535 0.18528 0.28607 0.0
C1165 C 0.92829 0.16113 0.29795 0.0
H1166 H 0.0101 0.21423 0.27804 0.0
H1167 H 0.77702 0.96732 0.39272 0.0
H1168 H 0.7407 0.73278 0.66031 0.0
H1169 H 0.74709 0.78998 0.67156 0.0
H1170 H 0.81465 0.8495 0.62875 0.0
H1171 H 0.80765 0.79233 0.61726 0.0
H1172 H 0.80097 0.85434 0.68153 0.0
H1173 H 0.79263 0.91332 0.61606 0.0
H1174 H 0.76552 0.89044 0.58784 0.0
H1175 H 0.684 0.78827 0.60983 0.0
H1176 H 0.71026 0.81072 0.63818 0.0
H1177 H 0.82806 0.02973 0.70009 0.0
H1178 H 0.83541 0.98148 0.68636 0.0
H1179 H 0.72632 0.93567 0.66506 0.0
H1180 H 0.72058 0.9858 0.67752 0.0
H1181 H 0.76295 0.92444 0.64412 0.0
H1182 H 0.74908 0.90468 0.7044 0.0
H1183 H 0.765 0.92102 0.73444 0.0
H1184 H 0.87151 0.93292 0.72605 0.0
H1185 H 0.85634 0.91705 0.69591 0.0
C1186 C 0.75724 0.75814 0.6534 0.0
C1187 C 0.77332 0.75809 0.63782 0.0
C1188 C 0.76095 0.7908 0.65986 0.0
C1189 C 0.78085 0.82386 0.65085 0.0
C1190 C 0.7986 0.82416 0.63575 0.0
C1191 C 0.79467 0.7915 0.62923 0.0
C1192 C 0.78135 0.85758 0.65677 0.0
C1193 C 0.7928 0.86979 0.67336 0.0
C1194 C 0.76983 0.87718 0.64622 0.0
C1195 C 0.75376 0.86355 0.6292 0.0
C1196 C 0.76888 0.88601 0.61487 0.0
C1197 C 0.75365 0.87311 0.59885 0.0
C1198 C 0.72316 0.83787 0.59704 0.0
C1199 C 0.70772 0.81549 0.61124 0.0
C1200 C 0.7228 0.82828 0.62728 0.0
C1201 C 0.80611 0.0097 0.69215 0.0
C1202 C 0.77374 0.01112 0.68983 0.0
C1203 C 0.8101 0.98194 0.68447 0.0
C1204 C 0.78095 0.95411 0.6751 0.0
C1205 C 0.74922 0.95665 0.67223 0.0
C1206 C 0.74588 0.98523 0.67936 0.0
C1207 C 0.78243 0.92136 0.66901 0.0
C1208 C 0.77146 0.9093 0.65232 0.0
C1209 C 0.79272 0.90091 0.67975 0.0
C1210 C 0.80171 0.91003 0.69789 0.0
C1211 C 0.77594 0.91094 0.70896 0.0
C1212 C 0.78483 0.92012 0.726 0.0
C1213 C 0.81928 0.9281 0.73214 0.0
C1214 C 0.84486 0.92679 0.72127 0.0
C1215 C 0.83613 0.91768 0.70422 0.0
H1216 H 0.82612 0.93522 0.74533 0.0
H1217 H 0.71142 0.82794 0.58463 0.0
H1218 H 0.73306 0.75012 0.00298 0.0
H1219 H 0.78865 0.75487 0.99059 0.0
H1220 H 0.8299 0.75464 0.04065 0.0
H1221 H 0.77518 0.75175 0.05307 0.0
H1222 H 0.88327 0.80173 0.02262 0.0
H1223 H 0.79004 0.67644 0.01392 0.0
H1224 H 0.73026 0.62526 0.00442 0.0
H1225 H 0.75656 0.66276 0.95303 0.0
H1226 H 0.81632 0.71448 0.96225 0.0
H1227 H 0.01313 0.74731 0.99552 0.0
H1228 H 0.96207 0.75081 0.00868 0.0
H1229 H 0.93132 0.7734 0.95995 0.0
H1230 H 0.9823 0.77021 0.94673 0.0
H1231 H 0.87357 0.71523 0.97747 0.0
H1232 H 0.96959 0.84055 0.98779 0.0
H1233 H 0.02879 0.89 -0.00117 0.0
H1234 H 0.99699 0.84763 0.04925 0.0
H1235 H 0.93776 0.79766 0.0385 0.0
C1236 C 0.75405 0.75112 0.01131 0.0
C1237 C 0.74983 0.75034 0.02895 0.0
C1238 C 0.7857 0.75364 0.00423 0.0
C1239 C 0.81316 0.75435 0.01468 0.0
C1240 C 0.80909 0.75405 0.03233 0.0
C1241 C 0.77779 0.7523 0.03941 0.0
C1242 C 0.84615 0.75547 0.00724 0.0
C1243 C 0.88109 0.78246 0.01292 0.0
C1244 C 0.84341 0.73065 0.9944 0.0
C1245 C 0.8075 0.69954 0.98881 0.0
C1246 C 0.78296 0.67393 0.00061 0.0
C1247 C 0.7491 0.6448 0.99527 0.0
C1248 C 0.73958 0.64081 0.97814 0.0
C1249 C 0.76395 0.66591 0.9663 0.0
C1250 C 0.79783 0.69512 0.97157 0.0
C1251 C 0.99568 0.75339 0.98766 0.0
C1252 C 0.00152 0.75832 0.9701 0.0
C1253 C 0.96669 0.75553 0.99519 0.0
C1254 C 0.94308 0.76244 0.98526 0.0
C1255 C 0.94931 0.76805 0.9678 0.0
C1256 C 0.97844 0.76627 0.96029 0.0
C1257 C 0.91045 0.7615 0.99284 0.0
C1258 C 0.87561 0.73443 0.98719 0.0
C1259 C 0.91331 0.78571 0.00593 0.0
C1260 C 0.94937 0.81517 0.01231 0.0
C1261 C 0.97539 0.84152 0.0012 0.0
C1262 C 0.0089 0.86972 0.00742 0.0
C1263 C 0.01662 0.87196 0.02473 0.0
C1264 C 0.99095 0.84588 0.03585 0.0
C1265 C 0.9574 0.81764 0.0297 0.0
H1266 H 0.04244 0.89395 0.02955 0.0
H1267 H 0.71335 0.61824 0.97403 0.0
H1268 H 0.00476 0.74024 0.33857 0.0
H1269 H 0.05287 0.79783 0.32635 0.0
H1270 H 0.03844 0.85856 0.36683 0.0
H1271 H 0.99151 0.80088 0.3795 0.0
H1272 H 0.05967 0.85749 0.31399 0.0
H1273 H 0.11995 0.93099 0.37799 0.0
H1274 H 0.12439 0.91512 0.40766 0.0
H1275 H 0.11414 0.81271 0.39154 0.0
H1276 H 0.11014 0.82819 0.36179 0.0
H1277 H 0.20651 0.03303 0.29103 0.0
H1278 H 0.14993 0.98522 0.3044 0.0
H1279 H 0.21337 0.94683 0.33188 0.0
H1280 H 0.26975 0.99625 0.31963 0.0
H1281 H 0.16427 0.93949 0.35113 0.0
H1282 H 0.1626 0.90688 0.29238 0.0
H1283 H 0.16372 0.916 0.26148 0.0
H1284 H 0.0663 0.9248 0.26495 0.0
H1285 H 0.06486 0.91612 0.29591 0.0
C1286 C 0.01169 0.76592 0.34478 0.0
C1287 C 0.99485 0.76615 0.36009 0.0
C1288 C 0.03906 0.79882 0.33775 0.0
C1289 C 0.04973 0.83249 0.34583 0.0
C1290 C 0.03128 0.83286 0.36059 0.0
C1291 C 0.0044 0.79991 0.36779 0.0
C1292 C 0.08157 0.8668 0.33932 0.0
C1293 C 0.0825 0.87553 0.32212 0.0
C1294 C 0.11167 0.89 0.34984 0.0
C1295 C 0.11425 0.88056 0.3677 0.0
C1296 C 0.11871 0.90513 0.38079 0.0
C1297 C 0.12115 0.8962 0.39762 0.0
C1298 C 0.11939 0.86287 0.40149 0.0
C1299 C 0.11533 0.83845 0.38854 0.0
C1300 C 0.11294 0.84727 0.37169 0.0
C1301 C 0.20816 0.01458 0.30012 0.0
C1302 C 0.24223 0.01804 0.30431 0.0
C1303 C 0.17589 0.98711 0.30765 0.0
C1304 C 0.17713 0.96173 0.31888 0.0
C1305 C 0.21149 0.966 0.32332 0.0
C1306 C 0.24375 0.99419 0.31628 0.0
C1307 C 0.14297 0.92988 0.32564 0.0
C1308 C 0.14137 0.92173 0.34297 0.0
C1309 C 0.11313 0.90621 0.31505 0.0
C1310 C 0.11387 0.91127 0.29645 0.0
C1311 C 0.14156 0.91097 0.28655 0.0
C1312 C 0.14223 0.91604 0.26904 0.0
C1313 C 0.11517 0.92109 0.26126 0.0
C1314 C 0.08729 0.92096 0.27099 0.0
C1315 C 0.08652 0.91595 0.28851 0.0
H1316 H 0.11574 0.92501 0.2477 0.0
H1317 H 0.12126 0.856 0.41452 0.0
H1318 H 0.22252 0.01884 0.7179 0.0
H1319 H 0.21398 0.06572 0.70379 0.0
H1320 H 0.23229 0.03006 0.65533 0.0
H1321 H 0.2422 0.98387 0.6695 0.0
H1322 H 0.27143 0.10075 0.65728 0.0
H1323 H 0.14554 0.01416 0.66819 0.0
H1324 H 0.09149 0.97133 0.68507 0.0
H1325 H 0.10583 0.0604 0.71695 0.0
H1326 H 0.16033 0.10371 0.70041 0.0
H1327 H 0.21761 0.20975 0.60978 0.0
H1328 H 0.21113 0.15399 0.6229 0.0
H1329 H 0.23054 0.20503 0.67206 0.0
H1330 H 0.23794 0.26139 0.65898 0.0
H1331 H 0.16895 0.12474 0.66849 0.0
H1332 H 0.29884 0.20931 0.65805 0.0
H1333 H 0.35144 0.25089 0.64008 0.0
H1334 H 0.32621 0.16207 0.60572 0.0
H1335 H 0.27305 0.1201 0.62337 0.0
C1336 C 0.22432 0.02072 0.70422 0.0
C1337 C 0.23315 0.99784 0.69478 0.0
C1338 C 0.2192 0.04739 0.69615 0.0
C1339 C 0.22207 0.05117 0.67847 0.0
C1340 C 0.22994 0.02764 0.66898 0.0
C1341 C 0.23552 0.00124 0.67708 0.0
C1342 C 0.21948 0.08137 0.67003 0.0
C1343 C 0.24862 0.10547 0.65952 0.0
C1344 C 0.19009 0.08806 0.67317 0.0
C1345 C 0.15723 0.06214 0.68313 0.0
C1346 C 0.13735 0.02458 0.67887 0.0
C1347 C 0.10659 1.00022 0.68837 0.0
C1348 C 0.09528 0.01313 0.7021 0.0
C1349 C 0.11465 0.05044 0.70633 0.0
C1350 C 0.14545 0.07492 0.69688 0.0
C1351 C 0.22002 0.20894 0.62341 0.0
C1352 C 0.22855 0.23991 0.63338 0.0
C1353 C 0.21629 0.17712 0.63085 0.0
C1354 C 0.22046 0.17563 0.64839 0.0
C1355 C 0.22715 0.2058 0.65849 0.0
C1356 C 0.23154 0.23793 0.65101 0.0
C1357 C 0.22082 0.14369 0.65593 0.0
C1358 C 0.19142 0.11951 0.66623 0.0
C1359 C 0.24968 0.13658 0.65248 0.0
C1360 C 0.28173 0.16171 0.64191 0.0
C1361 C 0.30428 0.19875 0.64657 0.0
C1362 C 0.33424 0.22236 0.63646 0.0
C1363 C 0.34209 0.20916 0.62173 0.0
C1364 C 0.32005 0.17228 0.61711 0.0
C1365 C 0.29002 0.14857 0.62717 0.0
H1366 H 0.36531 0.22748 0.61393 0.0
H1367 H 0.07146 0.99422 0.70944 0.0
loop_
_geom_bond_atom_site_label_1
_geom_bond_atom_site_label_2
_geom_bond_distance
_geom_bond_site_symmetry_2
_ccdc_geom_bond_type
Co0 O1 2.216 . S
Co0 O2 2.091 . S
Co0 O4 2.004 . S
Co0 O10 2.021 . S
Co0 O12 2.137 . S
Co0 O13 2.244 . S
O1 Co0 2.216 . S
O1 C8 1.247 . S
O2 Co0 2.091 . S
O2 C8 1.261 . S
C3 O12 1.247 . S
C3 O13 1.272 . S
O4 Co0 2.004 . S
O4 C9 1.259 . S
Co5 O6 2.061 . S
Co5 O11 2.052 . S
Co5 O13 2.135 . S
O6 Co5 2.061 . S
O6 C9 1.235 . S
C7 O10 1.238 . S
C7 O11 1.241 . S
C8 O1 1.247 . S
C8 O2 1.261 . S
C9 O4 1.259 . S
C9 O6 1.235 . S
O10 Co0 2.021 . S
O10 C7 1.238 . S
O11 Co5 2.052 . S
O11 C7 1.241 . S
O12 Co0 2.137 . S
O12 C3 1.247 . S
O13 Co0 2.244 . S
O13 C3 1.272 . S
O13 Co5 2.135 . S
Co14 O15 2.216 . S
Co14 O16 2.091 . S
Co14 O18 2.004 . S
Co14 O24 2.021 . S
Co14 O26 2.137 . S
Co14 O27 2.244 . S
O15 Co14 2.216 . S
O15 C22 1.247 . S
O16 Co14 2.091 . S
O16 C22 1.261 . S
C17 O26 1.247 . S
C17 O27 1.272 . S
O18 Co14 2.004 . S
O18 C23 1.259 . S
Co19 O20 2.061 . S
Co19 O25 2.052 . S
Co19 O27 2.135 . S
O20 Co19 2.061 . S
O20 C23 1.235 . S
C21 O24 1.238 . S
C21 O25 1.241 . S
C22 O15 1.247 . S
C22 O16 1.261 . S
C23 O18 1.259 . S
C23 O20 1.235 . S
O24 Co14 2.021 . S
O24 C21 1.238 . S
O25 Co19 2.052 . S
O25 C21 1.241 . S
O26 Co14 2.137 . S
O26 C17 1.247 . S
O27 Co14 2.244 . S
O27 C17 1.272 . S
O27 Co19 2.135 . S
Co28 O29 2.216 . S
Co28 O30 2.091 . S
Co28 O32 2.004 . S
Co28 O38 2.021 . S
Co28 O40 2.137 . S
Co28 O41 2.244 . S
O29 Co28 2.216 . S
O29 C36 1.247 . S
O30 Co28 2.091 . S
O30 C36 1.261 . S
C31 O40 1.247 . S
C31 O41 1.272 . S
O32 Co28 2.004 . S
O32 C37 1.259 . S
Co33 O34 2.061 . S
Co33 O39 2.052 . S
Co33 O41 2.135 . S
O34 Co33 2.061 . S
O34 C37 1.235 . S
C35 O38 1.238 . S
C35 O39 1.241 . S
C36 O29 1.247 . S
C36 O30 1.261 . S
C37 O32 1.259 . S
C37 O34 1.235 . S
O38 Co28 2.021 . S
O38 C35 1.238 . S
O39 Co33 2.052 . S
O39 C35 1.241 . S
O40 Co28 2.137 . S
O40 C31 1.247 . S
O41 Co28 2.244 . S
O41 C31 1.272 . S
O41 Co33 2.135 . S
Co42 O43 2.216 . S
Co42 O44 2.091 . S
Co42 O46 2.004 . S
Co42 O52 2.021 . S
Co42 O54 2.137 . S
Co42 O55 2.244 . S
O43 Co42 2.216 . S
O43 C50 1.247 . S
O44 Co42 2.091 . S
O44 C50 1.261 . S
C45 O54 1.247 . S
C45 O55 1.272 . S
O46 Co42 2.004 . S
O46 C51 1.259 . S
Co47 O48 2.061 . S
Co47 O53 2.052 . S
Co47 O55 2.135 . S
O48 Co47 2.061 . S
O48 C51 1.235 . S
C49 O52 1.238 . S
C49 O53 1.241 . S
C50 O43 1.247 . S
C50 O44 1.261 . S
C51 O46 1.259 . S
C51 O48 1.235 . S
O52 Co42 2.021 . S
O52 C49 1.238 . S
O53 Co47 2.052 . S
O53 C49 1.241 . S
O54 Co42 2.137 . S
O54 C45 1.247 . S
O55 Co42 2.244 . S
O55 C45 1.272 . S
O55 Co47 2.135 . S
Co56 O57 2.216 . S
Co56 O58 2.091 . S
Co56 O60 2.004 . S
Co56 O66 2.021 . S
Co56 O68 2.137 . S
Co56 O69 2.244 . S
O57 Co56 2.216 . S
O57 C64 1.247 . S
O58 Co56 2.091 . S
O58 C64 1.261 . S
C59 O68 1.247 . S
C59 O69 1.272 . S
O60 Co56 2.004 . S
O60 C65 1.259 . S
Co61 O62 2.061 . S
Co61 O67 2.052 . S
Co61 O69 2.135 . S
O62 Co61 2.061 . S
O62 C65 1.235 . S
C63 O66 1.238 . S
C63 O67 1.241 . S
C64 O57 1.247 . S
C64 O58 1.261 . S
C65 O60 1.259 . S
C65 O62 1.235 . S
O66 Co56 2.021 . S
O66 C63 1.238 . S
O67 Co61 2.052 . S
O67 C63 1.241 . S
O68 Co56 2.137 . S
O68 C59 1.247 . S
O69 Co56 2.244 . S
O69 C59 1.272 . S
O69 Co61 2.135 . S
Co70 O71 2.216 . S
Co70 O72 2.091 . S
Co70 O74 2.004 . S
Co70 O80 2.021 . S
Co70 O82 2.137 . S
Co70 O83 2.244 . S
O71 Co70 2.216 . S
O71 C78 1.247 . S
O72 Co70 2.091 . S
O72 C78 1.261 . S
C73 O82 1.247 . S
C73 O83 1.272 . S
O74 Co70 2.004 . S
O74 C79 1.259 . S
Co75 O76 2.061 . S
Co75 O81 2.052 . S
Co75 O83 2.135 . S
O76 Co75 2.061 . S
O76 C79 1.235 . S
C77 O80 1.238 . S
C77 O81 1.241 . S
C78 O71 1.247 . S
C78 O72 1.261 . S
C79 O74 1.259 . S
C79 O76 1.235 . S
O80 Co70 2.021 . S
O80 C77 1.238 . S
O81 Co75 2.052 . S
O81 C77 1.241 . S
O82 Co70 2.137 . S
O82 C73 1.247 . S
O83 Co70 2.244 . S
O83 C73 1.272 . S
O83 Co75 2.135 . S
Co84 O85 2.216 . S
Co84 O86 2.091 . S
Co84 O88 2.004 . S
Co84 O94 2.021 . S
Co84 O96 2.137 . S
Co84 O97 2.244 . S
O85 Co84 2.216 . S
O85 C92 1.247 . S
O86 Co84 2.091 . S
O86 C92 1.261 . S
C87 O96 1.247 . S
C87 O97 1.272 . S
O88 Co84 2.004 . S
O88 C93 1.259 . S
Co89 O90 2.061 . S
Co89 O95 2.052 . S
Co89 O97 2.135 . S
O90 Co89 2.061 . S
O90 C93 1.235 . S
C91 O94 1.238 . S
C91 O95 1.241 . S
C92 O85 1.247 . S
C92 O86 1.261 . S
C93 O88 1.259 . S
C93 O90 1.235 . S
O94 Co84 2.021 . S
O94 C91 1.238 . S
O95 Co89 2.052 . S
O95 C91 1.241 . S
O96 Co84 2.137 . S
O96 C87 1.247 . S
O97 Co84 2.244 . S
O97 C87 1.272 . S
O97 Co89 2.135 . S
Co98 O99 2.216 . S
Co98 O100 2.091 . S
Co98 O102 2.004 . S
Co98 O108 2.021 . S
Co98 O110 2.137 . S
Co98 O111 2.244 . S
O99 Co98 2.216 . S
O99 C106 1.247 . S
O100 Co98 2.091 . S
O100 C106 1.261 . S
C101 O110 1.247 . S
C101 O111 1.272 . S
O102 Co98 2.004 . S
O102 C107 1.259 . S
Co103 O104 2.061 . S
Co103 O109 2.052 . S
Co103 O111 2.135 . S
O104 Co103 2.061 . S
O104 C107 1.235 . S
C105 O108 1.238 . S
C105 O109 1.241 . S
C106 O99 1.247 . S
C106 O100 1.261 . S
C107 O102 1.259 . S
C107 O104 1.235 . S
O108 Co98 2.021 . S
O108 C105 1.238 . S
O109 Co103 2.052 . S
O109 C105 1.241 . S
O110 Co98 2.137 . S
O110 C101 1.247 . S
O111 Co98 2.244 . S
O111 C101 1.272 . S
O111 Co103 2.135 . S
Co112 O113 2.216 . S
Co112 O114 2.091 . S
Co112 O116 2.004 . S
Co112 O122 2.021 . S
Co112 O124 2.137 . S
Co112 O125 2.244 . S
O113 Co112 2.216 . S
O113 C120 1.247 . S
O114 Co112 2.091 . S
O114 C120 1.261 . S
C115 O124 1.247 . S
C115 O125 1.272 . S
O116 Co112 2.004 . S
O116 C121 1.259 . S
Co117 O118 2.061 . S
Co117 O123 2.052 . S
Co117 O125 2.135 . S
O118 Co117 2.061 . S
O118 C121 1.235 . S
C119 O122 1.238 . S
C119 O123 1.241 . S
C120 O113 1.247 . S
C120 O114 1.261 . S
C121 O116 1.259 . S
C121 O118 1.235 . S
O122 Co112 2.021 . S
O122 C119 1.238 . S
O123 Co117 2.052 . S
O123 C119 1.241 . S
O124 Co112 2.137 . S
O124 C115 1.247 . S
O125 Co112 2.244 . S
O125 C115 1.272 . S
O125 Co117 2.135 . S
Co126 O127 2.216 . S
Co126 O128 2.091 . S
Co126 O130 2.004 . S
Co126 O136 2.021 . S
Co126 O138 2.137 . S
Co126 O139 2.244 . S
O127 Co126 2.216 . S
O127 C134 1.247 . S
O128 Co126 2.091 . S
O128 C134 1.261 . S
C129 O138 1.247 . S
C129 O139 1.272 . S
O130 Co126 2.004 . S
O130 C135 1.259 . S
Co131 O132 2.061 . S
Co131 O137 2.052 . S
Co131 O139 2.135 . S
O132 Co131 2.061 . S
O132 C135 1.235 . S
C133 O136 1.238 . S
C133 O137 1.241 . S
C134 O127 1.247 . S
C134 O128 1.261 . S
C135 O130 1.259 . S
C135 O132 1.235 . S
O136 Co126 2.021 . S
O136 C133 1.238 . S
O137 Co131 2.052 . S
O137 C133 1.241 . S
O138 Co126 2.137 . S
O138 C129 1.247 . S
O139 Co126 2.244 . S
O139 C129 1.272 . S
O139 Co131 2.135 . S
Co140 O141 2.216 . S
Co140 O142 2.091 . S
Co140 O144 2.004 . S
Co140 O150 2.021 . S
Co140 O152 2.137 . S
Co140 O153 2.244 . S
O141 Co140 2.216 . S
O141 C148 1.247 . S
O142 Co140 2.091 . S
O142 C148 1.261 . S
C143 O152 1.247 . S
C143 O153 1.272 . S
O144 Co140 2.004 . S
O144 C149 1.259 . S
Co145 O146 2.061 . S
Co145 O151 2.052 . S
Co145 O153 2.135 . S
O146 Co145 2.061 . S
O146 C149 1.235 . S
C147 O150 1.238 . S
C147 O151 1.241 . S
C148 O141 1.247 . S
C148 O142 1.261 . S
C149 O144 1.259 . S
C149 O146 1.235 . S
O150 Co140 2.021 . S
O150 C147 1.238 . S
O151 Co145 2.052 . S
O151 C147 1.241 . S
O152 Co140 2.137 . S
O152 C143 1.247 . S
O153 Co140 2.244 . S
O153 C143 1.272 . S
O153 Co145 2.135 . S
Co154 O155 2.216 . S
Co154 O156 2.091 . S
Co154 O158 2.004 . S
Co154 O164 2.021 . S
Co154 O166 2.137 . S
Co154 O167 2.244 . S
O155 Co154 2.216 . S
O155 C162 1.247 . S
O156 Co154 2.091 . S
O156 C162 1.261 . S
C157 O166 1.247 . S
C157 O167 1.272 . S
O158 Co154 2.004 . S
O158 C163 1.259 . S
Co159 O160 2.061 . S
Co159 O165 2.052 . S
Co159 O167 2.135 . S
O160 Co159 2.061 . S
O160 C163 1.235 . S
C161 O164 1.238 . S
C161 O165 1.241 . S
C162 O155 1.247 . S
C162 O156 1.261 . S
C163 O158 1.259 . S
C163 O160 1.235 . S
O164 Co154 2.021 . S
O164 C161 1.238 . S
O165 Co159 2.052 . S
O165 C161 1.241 . S
O166 Co154 2.137 . S
O166 C157 1.247 . S
O167 Co154 2.244 . S
O167 C157 1.272 . S
O167 Co159 2.135 . S
H168 C186 0.951 . S
H169 C188 0.951 . S
H170 C190 0.950 . S
H171 C191 0.950 . S
H172 C193 0.950 . S
H173 C196 0.950 . S
H174 C197 0.950 . S
H175 C199 0.950 . S
H176 C200 0.950 . S
H177 C201 0.951 . S
H178 C203 0.951 . S
H179 C205 0.950 . S
H180 C206 0.950 . S
H181 C208 0.950 . S
H182 C211 0.950 . S
H183 C212 0.950 . S
H184 C214 0.950 . S
H185 C215 0.947 1_556 S
C186 H168 0.951 . S
C186 C187 1.366 . S
C186 C188 1.388 . S
C187 C186 1.366 . S
C187 C191 1.385 . S
C188 H169 0.951 . S
C188 C186 1.388 . S
C188 C189 1.366 . S
C189 C188 1.366 . S
C189 C190 1.414 . S
C189 C192 1.499 . S
C190 H170 0.950 . S
C190 C189 1.414 . S
C190 C191 1.374 . S
C191 H171 0.950 . S
C191 C187 1.385 . S
C191 C190 1.374 . S
C192 C189 1.499 . S
C192 C193 1.373 . S
C192 C194 1.389 . S
C193 H172 0.950 . S
C193 C192 1.373 . S
C193 C209 1.377 . S
C194 C192 1.389 . S
C194 C195 1.524 . S
C194 C208 1.377 . S
C195 C194 1.524 . S
C195 C196 1.397 . S
C195 C200 1.363 . S
C196 H173 0.950 . S
C196 C195 1.397 . S
C196 C197 1.334 . S
C197 H174 0.950 . S
C197 C196 1.334 . S
C197 C198 1.287 . S
C198 C197 1.287 . S
C198 C199 1.524 . S
C198 H217 0.913 . S
C199 H175 0.950 . S
C199 C198 1.524 . S
C199 C200 1.415 . S
C200 H176 0.950 . S
C200 C195 1.363 . S
C200 C199 1.415 . S
C201 H177 0.951 . S
C201 C202 1.366 . S
C201 C203 1.388 . S
C202 C201 1.366 . S
C202 C206 1.385 . S
C203 H178 0.951 . S
C203 C201 1.388 . S
C203 C204 1.366 . S
C204 C203 1.366 . S
C204 C205 1.414 . S
C204 C207 1.499 . S
C205 H179 0.950 . S
C205 C204 1.414 . S
C205 C206 1.374 . S
C206 H180 0.950 . S
C206 C202 1.385 . S
C206 C205 1.374 . S
C207 C204 1.499 . S
C207 C208 1.373 . S
C207 C209 1.389 . S
C208 H181 0.950 . S
C208 C194 1.377 . S
C208 C207 1.373 . S
C209 C193 1.377 . S
C209 C207 1.389 . S
C209 C210 1.524 . S
C210 C209 1.524 . S
C210 C211 1.397 . S
C210 C215 1.363 . S
C211 H182 0.950 . S
C211 C210 1.397 . S
C211 C212 1.334 . S
C212 H183 0.950 . S
C212 C211 1.334 . S
C212 C213 1.287 1_554 S
C213 C212 1.287 1_556 S
C213 C214 1.524 . S
C213 H216 0.999 . S
C214 H184 0.950 . S
C214 C213 1.524 . S
C214 C215 1.415 1_556 S
C215 H185 0.947 1_554 S
C215 C210 1.363 . S
C215 C214 1.415 1_554 S
H216 C213 0.999 . S
H217 C198 0.913 . S
H218 C236 0.951 . S
H219 C238 0.951 . S
H220 C240 0.950 1_655 S
H221 C241 0.950 . S
H222 C243 0.950 . S
H223 C246 0.950 . S
H224 C247 0.950 . S
H225 C249 0.950 . S
H226 C250 0.950 . S
H227 C251 0.951 . S
H228 C253 0.951 . S
H229 C255 0.950 1_455 S
H230 C256 0.950 . S
H231 C258 0.950 . S
H232 C261 0.950 . S
H233 C262 0.950 . S
H234 C264 0.950 . S
H235 C265 0.950 . S
C236 H218 0.951 . S
C236 C237 1.366 . S
C236 C238 1.388 . S
C237 C236 1.366 . S
C237 C241 1.385 . S
C238 H219 0.951 . S
C238 C236 1.388 . S
C238 C239 1.366 . S
C239 C238 1.366 . S
C239 C240 1.414 . S
C239 C242 1.499 . S
C240 H220 0.950 1_455 S
C240 C239 1.414 . S
C240 C241 1.374 . S
C241 H221 0.950 . S
C241 C237 1.385 . S
C241 C240 1.374 . S
C242 C239 1.499 . S
C242 C243 1.373 1_455 S
C242 C244 1.389 . S
C243 H222 0.950 . S
C243 C242 1.373 1_655 S
C243 C259 1.377 . S
C244 C242 1.389 . S
C244 C245 1.524 . S
C244 C258 1.377 . S
C245 C244 1.524 . S
C245 C246 1.397 . S
C245 C250 1.363 . S
C246 H223 0.950 . S
C246 C245 1.397 . S
C246 C247 1.334 . S
C247 H224 0.950 . S
C247 C246 1.334 . S
C247 C248 1.287 . S
C248 C247 1.287 . S
C248 C249 1.524 . S
C248 H267 0.913 . S
C249 H225 0.950 . S
C249 C248 1.524 . S
C249 C250 1.415 . S
C250 H226 0.950 . S
C250 C245 1.363 . S
C250 C249 1.415 . S
C251 H227 0.951 . S
C251 C252 1.366 . S
C251 C253 1.388 . S
C252 C251 1.366 . S
C252 C256 1.385 . S
C253 H228 0.951 . S
C253 C251 1.388 . S
C253 C254 1.366 . S
C254 C253 1.366 . S
C254 C255 1.414 . S
C254 C257 1.499 . S
C255 H229 0.950 1_655 S
C255 C254 1.414 . S
C255 C256 1.374 . S
C256 H230 0.950 . S
C256 C252 1.385 . S
C256 C255 1.374 . S
C257 C254 1.499 . S
C257 C258 1.373 1_655 S
C257 C259 1.389 . S
C258 H231 0.950 . S
C258 C244 1.377 . S
C258 C257 1.373 1_455 S
C259 C243 1.377 . S
C259 C257 1.389 . S
C259 C260 1.524 . S
C260 C259 1.524 . S
C260 C261 1.397 . S
C260 C265 1.363 . S
C261 H232 0.950 . S
C261 C260 1.397 . S
C261 C262 1.334 . S
C262 H233 0.950 . S
C262 C261 1.334 . S
C262 C263 1.287 . S
C263 C262 1.287 . S
C263 C264 1.524 . S
C263 H266 0.999 . S
C264 H234 0.950 . S
C264 C263 1.524 . S
C264 C265 1.415 . S
C265 H235 0.950 . S
C265 C260 1.363 . S
C265 C264 1.415 . S
H266 C263 0.999 . S
H267 C248 0.913 . S
H268 C286 0.951 . S
H269 C288 0.951 1_545 S
H270 C290 0.950 . S
H271 C291 0.950 . S
H272 C293 0.950 . S
H273 C296 0.950 1_565 S
H274 C297 0.950 . S
H275 C299 0.950 . S
H276 C300 0.950 . S
H277 C301 0.951 . S
H278 C303 0.951 1_565 S
H279 C305 0.950 . S
H280 C306 0.950 . S
H281 C308 0.950 . S
H282 C311 0.950 1_545 S
H283 C312 0.950 . S
H284 C314 0.950 . S
H285 C315 0.950 . S
C286 H268 0.951 . S
C286 C287 1.366 . S
C286 C288 1.388 . S
C287 C286 1.366 . S
C287 C291 1.385 . S
C288 H269 0.951 1_565 S
C288 C286 1.388 . S
C288 C289 1.366 . S
C289 C288 1.366 . S
C289 C290 1.414 . S
C289 C292 1.499 . S
C290 H270 0.950 . S
C290 C289 1.414 . S
C290 C291 1.374 . S
C291 H271 0.950 . S
C291 C287 1.385 . S
C291 C290 1.374 . S
C292 C289 1.499 . S
C292 C293 1.373 . S
C292 C294 1.389 1_565 S
C293 H272 0.950 . S
C293 C292 1.373 . S
C293 C309 1.377 . S
C294 C292 1.389 1_545 S
C294 C295 1.524 . S
C294 C308 1.377 . S
C295 C294 1.524 . S
C295 C296 1.397 . S
C295 C300 1.363 . S
C296 H273 0.950 1_545 S
C296 C295 1.397 . S
C296 C297 1.334 . S
C297 H274 0.950 . S
C297 C296 1.334 . S
C297 C298 1.287 . S
C298 C297 1.287 . S
C298 C299 1.524 . S
C298 H317 0.913 . S
C299 H275 0.950 . S
C299 C298 1.524 . S
C299 C300 1.415 . S
C300 H276 0.950 . S
C300 C295 1.363 . S
C300 C299 1.415 . S
C301 H277 0.951 . S
C301 C302 1.366 . S
C301 C303 1.388 . S
C302 C301 1.366 . S
C302 C306 1.385 . S
C303 H278 0.951 1_545 S
C303 C301 1.388 . S
C303 C304 1.366 . S
C304 C303 1.366 . S
C304 C305 1.414 . S
C304 C307 1.499 . S
C305 H279 0.950 . S
C305 C304 1.414 . S
C305 C306 1.374 . S
C306 H280 0.950 . S
C306 C302 1.385 . S
C306 C305 1.374 . S
C307 C304 1.499 . S
C307 C308 1.373 . S
C307 C309 1.389 1_545 S
C308 H281 0.950 . S
C308 C294 1.377 . S
C308 C307 1.373 . S
C309 C293 1.377 . S
C309 C307 1.389 1_565 S
C309 C310 1.524 . S
C310 C309 1.524 . S
C310 C311 1.397 . S
C310 C315 1.363 . S
C311 H282 0.950 1_565 S
C311 C310 1.397 . S
C311 C312 1.334 . S
C312 H283 0.950 . S
C312 C311 1.334 . S
C312 C313 1.287 . S
C313 C312 1.287 . S
C313 C314 1.524 . S
C313 H316 0.999 . S
C314 H284 0.950 . S
C314 C313 1.524 . S
C314 C315 1.415 . S
C315 H285 0.950 . S
C315 C310 1.363 . S
C315 C314 1.415 . S
H316 C313 0.999 . S
H317 C298 0.913 . S
H318 C336 0.951 . S
H319 C338 0.951 . S
H320 C340 0.950 . S
H321 C341 0.950 . S
H322 C343 0.950 . S
H323 C346 0.950 . S
H324 C347 0.950 . S
H325 C349 0.950 . S
H326 C350 0.950 . S
H327 C351 0.951 . S
H328 C353 0.951 . S
H329 C355 0.950 . S
H330 C356 0.950 . S
H331 C358 0.950 . S
H332 C361 0.950 . S
H333 C362 0.950 . S
H334 C364 0.950 . S
H335 C365 0.950 . S
C336 H318 0.951 . S
C336 C337 1.366 . S
C336 C338 1.388 . S
C337 C336 1.366 . S
C337 C341 1.385 . S
C338 H319 0.951 . S
C338 C336 1.388 . S
C338 C339 1.366 . S
C339 C338 1.366 . S
C339 C340 1.414 . S
C339 C342 1.499 . S
C340 H320 0.950 . S
C340 C339 1.414 . S
C340 C341 1.374 . S
C341 H321 0.950 . S
C341 C337 1.385 . S
C341 C340 1.374 . S
C342 C339 1.499 . S
C342 C343 1.373 . S
C342 C344 1.389 . S
C343 H322 0.950 . S
C343 C342 1.373 . S
C343 C359 1.377 . S
C344 C342 1.389 . S
C344 C345 1.524 . S
C344 C358 1.377 . S
C345 C344 1.524 . S
C345 C346 1.397 . S
C345 C350 1.363 . S
C346 H323 0.950 . S
C346 C345 1.397 . S
C346 C347 1.334 . S
C347 H324 0.950 . S
C347 C346 1.334 . S
C347 C348 1.287 . S
C348 C347 1.287 . S
C348 C349 1.524 . S
C348 H367 0.913 . S
C349 H325 0.950 . S
C349 C348 1.524 . S
C349 C350 1.415 . S
C350 H326 0.950 . S
C350 C345 1.363 . S
C350 C349 1.415 . S
C351 H327 0.951 . S
C351 C352 1.366 . S
C351 C353 1.388 . S
C352 C351 1.366 . S
C352 C356 1.385 . S
C353 H328 0.951 . S
C353 C351 1.388 . S
C353 C354 1.366 . S
C354 C353 1.366 . S
C354 C355 1.414 . S
C354 C357 1.499 . S
C355 H329 0.950 . S
C355 C354 1.414 . S
C355 C356 1.374 . S
C356 H330 0.950 . S
C356 C352 1.385 . S
C356 C355 1.374 . S
C357 C354 1.499 . S
C357 C358 1.373 . S
C357 C359 1.389 . S
C358 H331 0.950 . S
C358 C344 1.377 . S
C358 C357 1.373 . S
C359 C343 1.377 . S
C359 C357 1.389 . S
C359 C360 1.524 . S
C360 C359 1.524 . S
C360 C361 1.397 . S
C360 C365 1.363 . S
C361 H332 0.950 . S
C361 C360 1.397 . S
C361 C362 1.334 . S
C362 H333 0.950 . S
C362 C361 1.334 . S
C362 C363 1.287 . S
C363 C362 1.287 . S
C363 C364 1.524 . S
C363 H366 0.999 . S
C364 H334 0.950 . S
C364 C363 1.524 . S
C364 C365 1.415 . S
C365 H335 0.950 . S
C365 C360 1.363 . S
C365 C364 1.415 . S
H366 C363 0.999 . S
H367 C348 0.913 . S
H368 C386 0.951 . S
H369 C388 0.951 . S
H370 C390 0.950 . S
H371 C391 0.950 . S
H372 C393 0.950 . S
H373 C396 0.950 . S
H374 C397 0.950 . S
H375 C399 0.950 . S
H376 C400 0.950 . S
H377 C401 0.951 . S
H378 C403 0.951 . S
H379 C405 0.950 . S
H380 C406 0.950 . S
H381 C408 0.950 . S
H382 C411 0.950 . S
H383 C412 0.950 . S
H384 C414 0.950 1_554 S
H385 C415 0.950 . S
C386 H368 0.951 . S
C386 C387 1.366 . S
C386 C388 1.388 . S
C387 C386 1.366 . S
C387 C391 1.385 . S
C388 H369 0.951 . S
C388 C386 1.388 . S
C388 C389 1.366 . S
C389 C388 1.366 . S
C389 C390 1.414 . S
C389 C392 1.499 . S
C390 H370 0.950 . S
C390 C389 1.414 . S
C390 C391 1.374 . S
C391 H371 0.950 . S
C391 C387 1.385 . S
C391 C390 1.374 . S
C392 C389 1.499 . S
C392 C393 1.373 . S
C392 C394 1.389 1_655 S
C393 H372 0.950 . S
C393 C392 1.373 . S
C393 C409 1.377 . S
C394 C392 1.389 1_455 S
C394 C395 1.524 . S
C394 C408 1.377 . S
C395 C394 1.524 . S
C395 C396 1.397 . S
C395 C400 1.363 . S
C396 H373 0.950 . S
C396 C395 1.397 . S
C396 C397 1.334 . S
C397 H374 0.950 . S
C397 C396 1.334 . S
C397 C398 1.287 . S
C398 C397 1.287 . S
C398 C399 1.524 . S
C398 H417 0.913 . S
C399 H375 0.950 . S
C399 C398 1.524 . S
C399 C400 1.415 . S
C400 H376 0.950 . S
C400 C395 1.363 . S
C400 C399 1.415 . S
C401 H377 0.951 . S
C401 C402 1.366 . S
C401 C403 1.388 . S
C402 C401 1.366 . S
C402 C406 1.385 . S
C403 H378 0.951 . S
C403 C401 1.388 . S
C403 C404 1.366 . S
C404 C403 1.366 . S
C404 C405 1.414 . S
C404 C407 1.499 . S
C405 H379 0.950 . S
C405 C404 1.414 . S
C405 C406 1.374 . S
C406 H380 0.950 . S
C406 C402 1.385 . S
C406 C405 1.374 . S
C407 C404 1.499 . S
C407 C408 1.373 . S
C407 C409 1.389 1_455 S
C408 H381 0.950 . S
C408 C394 1.377 . S
C408 C407 1.373 . S
C409 C393 1.377 . S
C409 C407 1.389 1_655 S
C409 C410 1.524 . S
C410 C409 1.524 . S
C410 C411 1.397 . S
C410 C415 1.363 . S
C411 H382 0.950 . S
C411 C410 1.397 . S
C411 C412 1.334 . S
C412 H383 0.950 . S
C412 C411 1.334 . S
C412 C413 1.287 . S
C413 C412 1.287 . S
C413 C414 1.524 . S
C413 H416 0.999 . S
C414 H384 0.950 1_556 S
C414 C413 1.524 . S
C414 C415 1.415 . S
C415 H385 0.950 . S
C415 C410 1.363 . S
C415 C414 1.415 . S
H416 C413 0.999 . S
H417 C398 0.913 . S
H418 C436 0.951 . S
H419 C438 0.951 . S
H420 C440 0.950 1_565 S
H421 C441 0.950 . S
H422 C443 0.950 . S
H423 C446 0.950 . S
H424 C447 0.950 . S
H425 C449 0.950 . S
H426 C450 0.950 . S
H427 C451 0.951 . S
H428 C453 0.951 . S
H429 C455 0.950 1_545 S
H430 C456 0.950 . S
H431 C458 0.950 . S
H432 C461 0.950 . S
H433 C462 0.950 . S
H434 C464 0.950 . S
H435 C465 0.950 . S
C436 H418 0.951 . S
C436 C437 1.366 . S
C436 C438 1.388 . S
C437 C436 1.366 . S
C437 C441 1.385 . S
C438 H419 0.951 . S
C438 C436 1.388 . S
C438 C439 1.366 . S
C439 C438 1.366 . S
C439 C440 1.414 . S
C439 C442 1.499 . S
C440 H420 0.950 1_545 S
C440 C439 1.414 . S
C440 C441 1.374 . S
C441 H421 0.950 . S
C441 C437 1.385 . S
C441 C440 1.374 . S
C442 C439 1.499 . S
C442 C443 1.373 1_545 S
C442 C444 1.389 . S
C443 H422 0.950 . S
C443 C442 1.373 1_565 S
C443 C459 1.377 . S
C444 C442 1.389 . S
C444 C445 1.524 . S
C444 C458 1.377 . S
C445 C444 1.524 . S
C445 C446 1.397 . S
C445 C450 1.363 . S
C446 H423 0.950 . S
C446 C445 1.397 . S
C446 C447 1.334 . S
C447 H424 0.950 . S
C447 C446 1.334 . S
C447 C448 1.287 . S
C448 C447 1.287 . S
C448 C449 1.524 . S
C448 H467 0.913 . S
C449 H425 0.950 . S
C449 C448 1.524 . S
C449 C450 1.415 . S
C450 H426 0.950 . S
C450 C445 1.363 . S
C450 C449 1.415 . S
C451 H427 0.951 . S
C451 C452 1.366 . S
C451 C453 1.388 . S
C452 C451 1.366 . S
C452 C456 1.385 . S
C453 H428 0.951 . S
C453 C451 1.388 . S
C453 C454 1.366 . S
C454 C453 1.366 . S
C454 C455 1.414 . S
C454 C457 1.499 . S
C455 H429 0.950 1_565 S
C455 C454 1.414 . S
C455 C456 1.374 . S
C456 H430 0.950 . S
C456 C452 1.385 . S
C456 C455 1.374 . S
C457 C454 1.499 . S
C457 C458 1.373 1_565 S
C457 C459 1.389 . S
C458 H431 0.950 . S
C458 C444 1.377 . S
C458 C457 1.373 1_545 S
C459 C443 1.377 . S
C459 C457 1.389 . S
C459 C460 1.524 . S
C460 C459 1.524 . S
C460 C461 1.397 . S
C460 C465 1.363 . S
C461 H432 0.950 . S
C461 C460 1.397 . S
C461 C462 1.334 . S
C462 H433 0.950 . S
C462 C461 1.334 . S
C462 C463 1.287 . S
C463 C462 1.287 . S
C463 C464 1.524 . S
C463 H466 0.999 . S
C464 H434 0.950 . S
C464 C463 1.524 . S
C464 C465 1.415 . S
C465 H435 0.950 . S
C465 C460 1.363 . S
C465 C464 1.415 . S
H466 C463 0.999 . S
H467 C448 0.913 . S
H468 C486 0.951 . S
H469 C488 0.951 . S
H470 C490 0.950 . S
H471 C491 0.950 . S
H472 C493 0.950 . S
H473 C496 0.950 . S
H474 C497 0.950 . S
H475 C499 0.950 . S
H476 C500 0.950 . S
H477 C501 0.951 . S
H478 C503 0.951 . S
H479 C505 0.950 . S
H480 C506 0.950 . S
H481 C508 0.950 . S
H482 C511 0.950 . S
H483 C512 0.950 . S
H484 C514 0.950 . S
H485 C515 0.950 . S
C486 H468 0.951 . S
C486 C487 1.366 . S
C486 C488 1.388 . S
C487 C486 1.366 . S
C487 C491 1.385 . S
C488 H469 0.951 . S
C488 C486 1.388 . S
C488 C489 1.366 . S
C489 C488 1.366 . S
C489 C490 1.414 . S
C489 C492 1.499 . S
C490 H470 0.950 . S
C490 C489 1.414 . S
C490 C491 1.374 . S
C491 H471 0.950 . S
C491 C487 1.385 . S
C491 C490 1.374 . S
C492 C489 1.499 . S
C492 C493 1.373 . S
C492 C494 1.389 . S
C493 H472 0.950 . S
C493 C492 1.373 . S
C493 C509 1.377 . S
C494 C492 1.389 . S
C494 C495 1.524 . S
C494 C508 1.377 . S
C495 C494 1.524 . S
C495 C496 1.397 . S
C495 C500 1.363 . S
C496 H473 0.950 . S
C496 C495 1.397 . S
C496 C497 1.334 . S
C497 H474 0.950 . S
C497 C496 1.334 . S
C497 C498 1.287 . S
C498 C497 1.287 . S
C498 C499 1.524 . S
C498 H517 0.913 . S
C499 H475 0.950 . S
C499 C498 1.524 . S
C499 C500 1.415 . S
C500 H476 0.950 . S
C500 C495 1.363 . S
C500 C499 1.415 . S
C501 H477 0.951 . S
C501 C502 1.366 . S
C501 C503 1.388 . S
C502 C501 1.366 . S
C502 C506 1.385 . S
C503 H478 0.951 . S
C503 C501 1.388 . S
C503 C504 1.366 . S
C504 C503 1.366 . S
C504 C505 1.414 . S
C504 C507 1.499 . S
C505 H479 0.950 . S
C505 C504 1.414 . S
C505 C506 1.374 . S
C506 H480 0.950 . S
C506 C502 1.385 . S
C506 C505 1.374 . S
C507 C504 1.499 . S
C507 C508 1.373 . S
C507 C509 1.389 . S
C508 H481 0.950 . S
C508 C494 1.377 . S
C508 C507 1.373 . S
C509 C493 1.377 . S
C509 C507 1.389 . S
C509 C510 1.524 . S
C510 C509 1.524 . S
C510 C511 1.397 . S
C510 C515 1.363 . S
C511 H482 0.950 . S
C511 C510 1.397 . S
C511 C512 1.334 . S
C512 H483 0.950 . S
C512 C511 1.334 . S
C512 C513 1.287 . S
C513 C512 1.287 . S
C513 C514 1.524 . S
C513 H516 0.999 . S
C514 H484 0.950 . S
C514 C513 1.524 . S
C514 C515 1.415 . S
C515 H485 0.950 . S
C515 C510 1.363 . S
C515 C514 1.415 . S
H516 C513 0.999 . S
H517 C498 0.913 . S
H518 C536 0.951 . S
H519 C538 0.951 . S
H520 C540 0.950 . S
H521 C541 0.950 . S
H522 C543 0.950 . S
H523 C546 0.950 . S
H524 C547 0.950 . S
H525 C549 0.950 . S
H526 C550 0.950 . S
H527 C551 0.951 . S
H528 C553 0.951 . S
H529 C555 0.950 . S
H530 C556 0.950 . S
H531 C558 0.950 . S
H532 C561 0.950 . S
H533 C562 0.950 . S
H534 C564 0.950 . S
H535 C565 0.950 . S
C536 H518 0.951 . S
C536 C537 1.366 . S
C536 C538 1.388 . S
C537 C536 1.366 . S
C537 C541 1.385 . S
C538 H519 0.951 . S
C538 C536 1.388 . S
C538 C539 1.366 . S
C539 C538 1.366 . S
C539 C540 1.414 . S
C539 C542 1.499 . S
C540 H520 0.950 . S
C540 C539 1.414 . S
C540 C541 1.374 . S
C541 H521 0.950 . S
C541 C537 1.385 . S
C541 C540 1.374 . S
C542 C539 1.499 . S
C542 C543 1.373 . S
C542 C544 1.389 . S
C543 H522 0.950 . S
C543 C542 1.373 . S
C543 C559 1.377 . S
C544 C542 1.389 . S
C544 C545 1.524 . S
C544 C558 1.377 . S
C545 C544 1.524 . S
C545 C546 1.397 . S
C545 C550 1.363 . S
C546 H523 0.950 . S
C546 C545 1.397 . S
C546 C547 1.334 . S
C547 H524 0.950 . S
C547 C546 1.334 . S
C547 C548 1.287 . S
C548 C547 1.287 . S
C548 C549 1.524 . S
C548 H567 0.913 . S
C549 H525 0.950 . S
C549 C548 1.524 . S
C549 C550 1.415 . S
C550 H526 0.950 . S
C550 C545 1.363 . S
C550 C549 1.415 . S
C551 H527 0.951 . S
C551 C552 1.366 . S
C551 C553 1.388 . S
C552 C551 1.366 . S
C552 C556 1.385 . S
C553 H528 0.951 . S
C553 C551 1.388 . S
C553 C554 1.366 . S
C554 C553 1.366 . S
C554 C555 1.414 . S
C554 C557 1.499 . S
C555 H529 0.950 . S
C555 C554 1.414 . S
C555 C556 1.374 . S
C556 H530 0.950 . S
C556 C552 1.385 . S
C556 C555 1.374 . S
C557 C554 1.499 . S
C557 C558 1.373 . S
C557 C559 1.389 . S
C558 H531 0.950 . S
C558 C544 1.377 . S
C558 C557 1.373 . S
C559 C543 1.377 . S
C559 C557 1.389 . S
C559 C560 1.524 . S
C560 C559 1.524 . S
C560 C561 1.397 . S
C560 C565 1.363 . S
C561 H532 0.950 . S
C561 C560 1.397 . S
C561 C562 1.334 . S
C562 H533 0.950 . S
C562 C561 1.334 . S
C562 C563 1.287 . S
C563 C562 1.287 . S
C563 C564 1.524 . S
C563 H566 0.999 . S
C564 H534 0.950 . S
C564 C563 1.524 . S
C564 C565 1.415 . S
C565 H535 0.950 . S
C565 C560 1.363 . S
C565 C564 1.415 . S
H566 C563 0.999 . S
H567 C548 0.913 . S
H568 C586 0.951 . S
H569 C588 0.951 . S
H570 C590 0.950 . S
H571 C591 0.950 . S
H572 C593 0.950 . S
H573 C596 0.950 . S
H574 C597 0.950 . S
H575 C599 0.950 . S
H576 C600 0.950 . S
H577 C601 0.951 . S
H578 C603 0.951 . S
H579 C605 0.950 . S
H580 C606 0.950 . S
H581 C608 0.950 . S
H582 C611 0.950 . S
H583 C612 0.950 . S
H584 C614 0.950 . S
H585 C615 0.950 . S
C586 H568 0.951 . S
C586 C587 1.366 . S
C586 C588 1.388 . S
C587 C586 1.366 . S
C587 C591 1.385 . S
C588 H569 0.951 . S
C588 C586 1.388 . S
C588 C589 1.366 . S
C589 C588 1.366 . S
C589 C590 1.414 . S
C589 C592 1.499 . S
C590 H570 0.950 . S
C590 C589 1.414 . S
C590 C591 1.374 . S
C591 H571 0.950 . S
C591 C587 1.385 . S
C591 C590 1.374 . S
C592 C589 1.499 . S
C592 C593 1.373 . S
C592 C594 1.389 . S
C593 H572 0.950 . S
C593 C592 1.373 . S
C593 C609 1.377 . S
C594 C592 1.389 . S
C594 C595 1.524 . S
C594 C608 1.377 . S
C595 C594 1.524 . S
C595 C596 1.397 . S
C595 C600 1.363 . S
C596 H573 0.950 . S
C596 C595 1.397 . S
C596 C597 1.334 . S
C597 H574 0.950 . S
C597 C596 1.334 . S
C597 C598 1.287 . S
C598 C597 1.287 . S
C598 C599 1.524 . S
C598 H617 0.913 . S
C599 H575 0.950 . S
C599 C598 1.524 . S
C599 C600 1.415 . S
C600 H576 0.950 . S
C600 C595 1.363 . S
C600 C599 1.415 . S
C601 H577 0.951 . S
C601 C602 1.366 . S
C601 C603 1.388 . S
C602 C601 1.366 . S
C602 C606 1.385 . S
C603 H578 0.951 . S
C603 C601 1.388 . S
C603 C604 1.366 . S
C604 C603 1.366 . S
C604 C605 1.414 . S
C604 C607 1.499 . S
C605 H579 0.950 . S
C605 C604 1.414 . S
C605 C606 1.374 . S
C606 H580 0.950 . S
C606 C602 1.385 . S
C606 C605 1.374 . S
C607 C604 1.499 . S
C607 C608 1.373 . S
C607 C609 1.389 . S
C608 H581 0.950 . S
C608 C594 1.377 . S
C608 C607 1.373 . S
C609 C593 1.377 . S
C609 C607 1.389 . S
C609 C610 1.524 . S
C610 C609 1.524 . S
C610 C611 1.397 . S
C610 C615 1.363 . S
C611 H582 0.950 . S
C611 C610 1.397 . S
C611 C612 1.334 . S
C612 H583 0.950 . S
C612 C611 1.334 . S
C612 C613 1.287 . S
C613 C612 1.287 . S
C613 C614 1.524 . S
C613 H616 0.999 . S
C614 H584 0.950 . S
C614 C613 1.524 . S
C614 C615 1.415 . S
C615 H585 0.950 . S
C615 C610 1.363 . S
C615 C614 1.415 . S
H616 C613 0.999 . S
H617 C598 0.913 . S
H618 C636 0.951 . S
H619 C638 0.951 . S
H620 C640 0.950 . S
H621 C641 0.950 . S
H622 C643 0.950 . S
H623 C646 0.950 . S
H624 C647 0.950 . S
H625 C649 0.950 . S
H626 C650 0.950 . S
H627 C651 0.951 . S
H628 C653 0.951 . S
H629 C655 0.950 . S
H630 C656 0.950 . S
H631 C658 0.950 . S
H632 C661 0.950 . S
H633 C662 0.950 . S
H634 C664 0.950 . S
H635 C665 0.950 . S
C636 H618 0.951 . S
C636 C637 1.366 . S
C636 C638 1.388 . S
C637 C636 1.366 . S
C637 C641 1.385 . S
C638 H619 0.951 . S
C638 C636 1.388 . S
C638 C639 1.366 . S
C639 C638 1.366 . S
C639 C640 1.414 . S
C639 C642 1.499 . S
C640 H620 0.950 . S
C640 C639 1.414 . S
C640 C641 1.374 . S
C641 H621 0.950 . S
C641 C637 1.385 . S
C641 C640 1.374 . S
C642 C639 1.499 . S
C642 C643 1.373 . S
C642 C644 1.389 . S
C643 H622 0.950 . S
C643 C642 1.373 . S
C643 C659 1.377 . S
C644 C642 1.389 . S
C644 C645 1.524 . S
C644 C658 1.377 . S
C645 C644 1.524 . S
C645 C646 1.397 . S
C645 C650 1.363 . S
C646 H623 0.950 . S
C646 C645 1.397 . S
C646 C647 1.334 . S
C647 H624 0.950 . S
C647 C646 1.334 . S
C647 C648 1.287 . S
C648 C647 1.287 . S
C648 C649 1.524 . S
C648 H667 0.913 . S
C649 H625 0.950 . S
C649 C648 1.524 . S
C649 C650 1.415 . S
C650 H626 0.950 . S
C650 C645 1.363 . S
C650 C649 1.415 . S
C651 H627 0.951 . S
C651 C652 1.366 . S
C651 C653 1.388 . S
C652 C651 1.366 . S
C652 C656 1.385 . S
C653 H628 0.951 . S
C653 C651 1.388 . S
C653 C654 1.366 . S
C654 C653 1.366 . S
C654 C655 1.414 . S
C654 C657 1.499 . S
C655 H629 0.950 . S
C655 C654 1.414 . S
C655 C656 1.374 . S
C656 H630 0.950 . S
C656 C652 1.385 . S
C656 C655 1.374 . S
C657 C654 1.499 . S
C657 C658 1.373 . S
C657 C659 1.389 . S
C658 H631 0.950 . S
C658 C644 1.377 . S
C658 C657 1.373 . S
C659 C643 1.377 . S
C659 C657 1.389 . S
C659 C660 1.524 . S
C660 C659 1.524 . S
C660 C661 1.397 . S
C660 C665 1.363 . S
C661 H632 0.950 . S
C661 C660 1.397 . S
C661 C662 1.334 . S
C662 H633 0.950 . S
C662 C661 1.334 . S
C662 C663 1.287 . S
C663 C662 1.287 . S
C663 C664 1.524 . S
C663 H666 0.999 . S
C664 H634 0.950 . S
C664 C663 1.524 . S
C664 C665 1.415 . S
C665 H635 0.950 . S
C665 C660 1.363 . S
C665 C664 1.415 . S
H666 C663 0.999 . S
H667 C648 0.913 . S
H668 C686 0.951 . S
H669 C688 0.951 . S
H670 C690 0.950 . S
H671 C691 0.950 . S
H672 C693 0.950 . S
H673 C696 0.950 . S
H674 C697 0.950 . S
H675 C699 0.950 . S
H676 C700 0.950 . S
H677 C701 0.951 . S
H678 C703 0.951 . S
H679 C705 0.950 . S
H680 C706 0.950 . S
H681 C708 0.950 . S
H682 C711 0.950 . S
H683 C712 0.950 . S
H684 C714 0.950 . S
H685 C715 0.950 . S
C686 H668 0.951 . S
C686 C687 1.366 . S
C686 C688 1.388 . S
C687 C686 1.366 . S
C687 C691 1.385 . S
C688 H669 0.951 . S
C688 C686 1.388 . S
C688 C689 1.366 . S
C689 C688 1.366 . S
C689 C690 1.414 . S
C689 C692 1.499 . S
C690 H670 0.950 . S
C690 C689 1.414 . S
C690 C691 1.374 . S
C691 H671 0.950 . S
C691 C687 1.385 . S
C691 C690 1.374 . S
C692 C689 1.499 . S
C692 C693 1.373 . S
C692 C694 1.389 . S
C693 H672 0.950 . S
C693 C692 1.373 . S
C693 C709 1.377 . S
C694 C692 1.389 . S
C694 C695 1.524 . S
C694 C708 1.377 . S
C695 C694 1.524 . S
C695 C696 1.397 . S
C695 C700 1.363 . S
C696 H673 0.950 . S
C696 C695 1.397 . S
C696 C697 1.334 . S
C697 H674 0.950 . S
C697 C696 1.334 . S
C697 C698 1.287 . S
C698 C697 1.287 . S
C698 C699 1.524 . S
C698 H717 0.913 . S
C699 H675 0.950 . S
C699 C698 1.524 . S
C699 C700 1.415 . S
C700 H676 0.950 . S
C700 C695 1.363 . S
C700 C699 1.415 . S
C701 H677 0.951 . S
C701 C702 1.366 . S
C701 C703 1.388 . S
C702 C701 1.366 . S
C702 C706 1.385 . S
C703 H678 0.951 . S
C703 C701 1.388 . S
C703 C704 1.366 . S
C704 C703 1.366 . S
C704 C705 1.414 . S
C704 C707 1.499 . S
C705 H679 0.950 . S
C705 C704 1.414 . S
C705 C706 1.374 . S
C706 H680 0.950 . S
C706 C702 1.385 . S
C706 C705 1.374 . S
C707 C704 1.499 . S
C707 C708 1.373 . S
C707 C709 1.389 . S
C708 H681 0.950 . S
C708 C694 1.377 . S
C708 C707 1.373 . S
C709 C693 1.377 . S
C709 C707 1.389 . S
C709 C710 1.524 . S
C710 C709 1.524 . S
C710 C711 1.397 . S
C710 C715 1.363 . S
C711 H682 0.950 . S
C711 C710 1.397 . S
C711 C712 1.334 . S
C712 H683 0.950 . S
C712 C711 1.334 . S
C712 C713 1.287 . S
C713 C712 1.287 . S
C713 C714 1.524 . S
C713 H716 0.999 . S
C714 H684 0.950 . S
C714 C713 1.524 . S
C714 C715 1.415 . S
C715 H685 0.950 . S
C715 C710 1.363 . S
C715 C714 1.415 . S
H716 C713 0.999 . S
H717 C698 0.913 . S
H718 C736 0.951 . S
H719 C738 0.951 . S
H720 C740 0.950 . S
H721 C741 0.950 . S
H722 C743 0.950 . S
H723 C746 0.950 . S
H724 C747 0.950 . S
H725 C749 0.950 . S
H726 C750 0.950 . S
H727 C751 0.951 . S
H728 C753 0.951 . S
H729 C755 0.950 . S
H730 C756 0.950 . S
H731 C758 0.950 . S
H732 C761 0.950 . S
H733 C762 0.950 . S
H734 C764 0.950 . S
H735 C765 0.950 . S
C736 H718 0.951 . S
C736 C737 1.366 . S
C736 C738 1.388 . S
C737 C736 1.366 . S
C737 C741 1.385 . S
C738 H719 0.951 . S
C738 C736 1.388 . S
C738 C739 1.366 . S
C739 C738 1.366 . S
C739 C740 1.414 . S
C739 C742 1.499 . S
C740 H720 0.950 . S
C740 C739 1.414 . S
C740 C741 1.374 . S
C741 H721 0.950 . S
C741 C737 1.385 . S
C741 C740 1.374 . S
C742 C739 1.499 . S
C742 C743 1.373 . S
C742 C744 1.389 . S
C743 H722 0.950 . S
C743 C742 1.373 . S
C743 C759 1.377 . S
C744 C742 1.389 . S
C744 C745 1.524 . S
C744 C758 1.377 . S
C745 C744 1.524 . S
C745 C746 1.397 . S
C745 C750 1.363 . S
C746 H723 0.950 . S
C746 C745 1.397 . S
C746 C747 1.334 . S
C747 H724 0.950 . S
C747 C746 1.334 . S
C747 C748 1.287 . S
C748 C747 1.287 . S
C748 C749 1.524 . S
C748 H767 0.913 . S
C749 H725 0.950 . S
C749 C748 1.524 . S
C749 C750 1.415 . S
C750 H726 0.950 . S
C750 C745 1.363 . S
C750 C749 1.415 . S
C751 H727 0.951 . S
C751 C752 1.366 . S
C751 C753 1.388 . S
C752 C751 1.366 . S
C752 C756 1.385 . S
C753 H728 0.951 . S
C753 C751 1.388 . S
C753 C754 1.366 . S
C754 C753 1.366 . S
C754 C755 1.414 . S
C754 C757 1.499 . S
C755 H729 0.950 . S
C755 C754 1.414 . S
C755 C756 1.374 . S
C756 H730 0.950 . S
C756 C752 1.385 . S
C756 C755 1.374 . S
C757 C754 1.499 . S
C757 C758 1.373 . S
C757 C759 1.389 . S
C758 H731 0.950 . S
C758 C744 1.377 . S
C758 C757 1.373 . S
C759 C743 1.377 . S
C759 C757 1.389 . S
C759 C760 1.524 . S
C760 C759 1.524 . S
C760 C761 1.397 . S
C760 C765 1.363 . S
C761 H732 0.950 . S
C761 C760 1.397 . S
C761 C762 1.334 . S
C762 H733 0.950 . S
C762 C761 1.334 . S
C762 C763 1.287 . S
C763 C762 1.287 . S
C763 C764 1.524 . S
C763 H766 0.999 . S
C764 H734 0.950 . S
C764 C763 1.524 . S
C764 C765 1.415 . S
C765 H735 0.950 . S
C765 C760 1.363 . S
C765 C764 1.415 . S
H766 C763 0.999 . S
H767 C748 0.913 . S
H768 C786 0.951 . S
H769 C788 0.951 1_554 S
H770 C790 0.950 . S
H771 C791 0.950 . S
H772 C793 0.950 . S
H773 C796 0.950 1_556 S
H774 C797 0.950 . S
H775 C799 0.950 . S
H776 C800 0.950 . S
H777 C801 0.951 . S
H778 C803 0.951 1_556 S
H779 C805 0.950 . S
H780 C806 0.950 . S
H781 C808 0.950 . S
H782 C811 0.950 1_554 S
H783 C812 0.950 . S
H784 C814 0.950 . S
H785 C815 0.950 . S
C786 H768 0.951 . S
C786 C787 1.366 . S
C786 C788 1.388 . S
C787 C786 1.366 . S
C787 C791 1.385 . S
C788 H769 0.951 1_556 S
C788 C786 1.388 . S
C788 C789 1.366 . S
C789 C788 1.366 . S
C789 C790 1.414 . S
C789 C792 1.499 . S
C790 H770 0.950 . S
C790 C789 1.414 . S
C790 C791 1.374 . S
C791 H771 0.950 . S
C791 C787 1.385 . S
C791 C790 1.374 . S
C792 C789 1.499 . S
C792 C793 1.373 . S
C792 C794 1.389 1_556 S
C793 H772 0.950 . S
C793 C792 1.373 . S
C793 C809 1.377 1_565 S
C794 C792 1.389 1_554 S
C794 C795 1.524 . S
C794 C808 1.377 1_565 S
C795 C794 1.524 . S
C795 C796 1.397 . S
C795 C800 1.363 . S
C796 H773 0.950 1_554 S
C796 C795 1.397 . S
C796 C797 1.334 . S
C797 H774 0.950 . S
C797 C796 1.334 . S
C797 C798 1.287 . S
C798 C797 1.287 . S
C798 C799 1.524 . S
C798 H817 0.913 . S
C799 H775 0.950 . S
C799 C798 1.524 . S
C799 C800 1.415 . S
C800 H776 0.950 . S
C800 C795 1.363 . S
C800 C799 1.415 . S
C801 H777 0.951 . S
C801 C802 1.366 . S
C801 C803 1.388 . S
C802 C801 1.366 . S
C802 C806 1.385 . S
C803 H778 0.951 1_554 S
C803 C801 1.388 . S
C803 C804 1.366 . S
C804 C803 1.366 . S
C804 C805 1.414 . S
C804 C807 1.499 . S
C805 H779 0.950 . S
C805 C804 1.414 . S
C805 C806 1.374 . S
C806 H780 0.950 . S
C806 C802 1.385 . S
C806 C805 1.374 . S
C807 C804 1.499 . S
C807 C808 1.373 . S
C807 C809 1.389 1_554 S
C808 H781 0.950 . S
C808 C794 1.377 1_545 S
C808 C807 1.373 . S
C809 C793 1.377 1_545 S
C809 C807 1.389 1_556 S
C809 C810 1.524 . S
C810 C809 1.524 . S
C810 C811 1.397 . S
C810 C815 1.363 . S
C811 H782 0.950 1_556 S
C811 C810 1.397 . S
C811 C812 1.334 . S
C812 H783 0.950 . S
C812 C811 1.334 . S
C812 C813 1.287 . S
C813 C812 1.287 . S
C813 C814 1.524 . S
C813 H816 0.999 . S
C814 H784 0.950 . S
C814 C813 1.524 . S
C814 C815 1.415 . S
C815 H785 0.950 . S
C815 C810 1.363 . S
C815 C814 1.415 . S
H816 C813 0.999 . S
H817 C798 0.913 . S
H818 C836 0.951 . S
H819 C838 0.951 . S
H820 C840 0.950 . S
H821 C841 0.950 . S
H822 C843 0.950 . S
H823 C846 0.950 . S
H824 C847 0.950 . S
H825 C849 0.950 . S
H826 C850 0.950 . S
H827 C851 0.951 . S
H828 C853 0.951 . S
H829 C855 0.950 . S
H830 C856 0.950 . S
H831 C858 0.950 . S
H832 C861 0.950 . S
H833 C862 0.950 . S
H834 C864 0.950 . S
H835 C865 0.950 . S
C836 H818 0.951 . S
C836 C837 1.366 . S
C836 C838 1.388 . S
C837 C836 1.366 . S
C837 C841 1.385 . S
C838 H819 0.951 . S
C838 C836 1.388 . S
C838 C839 1.366 . S
C839 C838 1.366 . S
C839 C840 1.414 . S
C839 C842 1.499 . S
C840 H820 0.950 . S
C840 C839 1.414 . S
C840 C841 1.374 . S
C841 H821 0.950 . S
C841 C837 1.385 . S
C841 C840 1.374 . S
C842 C839 1.499 . S
C842 C843 1.373 . S
C842 C844 1.389 . S
C843 H822 0.950 . S
C843 C842 1.373 . S
C843 C859 1.377 . S
C844 C842 1.389 . S
C844 C845 1.524 . S
C844 C858 1.377 . S
C845 C844 1.524 . S
C845 C846 1.397 . S
C845 C850 1.363 . S
C846 H823 0.950 . S
C846 C845 1.397 . S
C846 C847 1.334 . S
C847 H824 0.950 . S
C847 C846 1.334 . S
C847 C848 1.287 . S
C848 C847 1.287 . S
C848 C849 1.524 . S
C848 H867 0.913 . S
C849 H825 0.950 . S
C849 C848 1.524 . S
C849 C850 1.415 . S
C850 H826 0.950 . S
C850 C845 1.363 . S
C850 C849 1.415 . S
C851 H827 0.951 . S
C851 C852 1.366 . S
C851 C853 1.388 . S
C852 C851 1.366 . S
C852 C856 1.385 . S
C853 H828 0.951 . S
C853 C851 1.388 . S
C853 C854 1.366 . S
C854 C853 1.366 . S
C854 C855 1.414 . S
C854 C857 1.499 . S
C855 H829 0.950 . S
C855 C854 1.414 . S
C855 C856 1.374 . S
C856 H830 0.950 . S
C856 C852 1.385 . S
C856 C855 1.374 . S
C857 C854 1.499 . S
C857 C858 1.373 . S
C857 C859 1.389 . S
C858 H831 0.950 . S
C858 C844 1.377 . S
C858 C857 1.373 . S
C859 C843 1.377 . S
C859 C857 1.389 . S
C859 C860 1.524 . S
C860 C859 1.524 . S
C860 C861 1.397 . S
C860 C865 1.363 . S
C861 H832 0.950 . S
C861 C860 1.397 . S
C861 C862 1.334 . S
C862 H833 0.950 . S
C862 C861 1.334 . S
C862 C863 1.287 . S
C863 C862 1.287 . S
C863 C864 1.524 . S
C863 H866 0.999 . S
C864 H834 0.950 . S
C864 C863 1.524 . S
C864 C865 1.415 . S
C865 H835 0.950 . S
C865 C860 1.363 . S
C865 C864 1.415 . S
H866 C863 0.999 . S
H867 C848 0.913 . S
H868 C886 0.951 . S
H869 C888 0.951 . S
H870 C890 0.950 . S
H871 C891 0.950 . S
H872 C893 0.950 . S
H873 C896 0.950 . S
H874 C897 0.950 . S
H875 C899 0.950 . S
H876 C900 0.950 . S
H877 C901 0.951 . S
H878 C903 0.951 . S
H879 C905 0.950 . S
H880 C906 0.950 . S
H881 C908 0.950 . S
H882 C911 0.950 . S
H883 C912 0.950 . S
H884 C914 0.950 . S
H885 C915 0.950 . S
C886 H868 0.951 . S
C886 C887 1.366 . S
C886 C888 1.388 . S
C887 C886 1.366 . S
C887 C891 1.385 . S
C888 H869 0.951 . S
C888 C886 1.388 . S
C888 C889 1.366 . S
C889 C888 1.366 . S
C889 C890 1.414 . S
C889 C892 1.499 . S
C890 H870 0.950 . S
C890 C889 1.414 . S
C890 C891 1.374 . S
C891 H871 0.950 . S
C891 C887 1.385 . S
C891 C890 1.374 . S
C892 C889 1.499 . S
C892 C893 1.373 . S
C892 C894 1.389 . S
C893 H872 0.950 . S
C893 C892 1.373 . S
C893 C909 1.377 1_655 S
C894 C892 1.389 . S
C894 C895 1.524 . S
C894 C908 1.377 1_655 S
C895 C894 1.524 . S
C895 C896 1.397 . S
C895 C900 1.363 . S
C896 H873 0.950 . S
C896 C895 1.397 . S
C896 C897 1.334 . S
C897 H874 0.950 . S
C897 C896 1.334 . S
C897 C898 1.287 . S
C898 C897 1.287 . S
C898 C899 1.524 . S
C898 H917 0.913 . S
C899 H875 0.950 . S
C899 C898 1.524 . S
C899 C900 1.415 . S
C900 H876 0.950 . S
C900 C895 1.363 . S
C900 C899 1.415 . S
C901 H877 0.951 . S
C901 C902 1.366 . S
C901 C903 1.388 . S
C902 C901 1.366 . S
C902 C906 1.385 . S
C903 H878 0.951 . S
C903 C901 1.388 . S
C903 C904 1.366 . S
C904 C903 1.366 . S
C904 C905 1.414 . S
C904 C907 1.499 . S
C905 H879 0.950 . S
C905 C904 1.414 . S
C905 C906 1.374 . S
C906 H880 0.950 . S
C906 C902 1.385 . S
C906 C905 1.374 . S
C907 C904 1.499 . S
C907 C908 1.373 . S
C907 C909 1.389 . S
C908 H881 0.950 . S
C908 C894 1.377 1_455 S
C908 C907 1.373 . S
C909 C893 1.377 1_455 S
C909 C907 1.389 . S
C909 C910 1.524 . S
C910 C909 1.524 . S
C910 C911 1.397 . S
C910 C915 1.363 . S
C911 H882 0.950 . S
C911 C910 1.397 . S
C911 C912 1.334 . S
C912 H883 0.950 . S
C912 C911 1.334 . S
C912 C913 1.287 . S
C913 C912 1.287 . S
C913 C914 1.524 . S
C913 H916 0.999 . S
C914 H884 0.950 . S
C914 C913 1.524 . S
C914 C915 1.415 . S
C915 H885 0.950 . S
C915 C910 1.363 . S
C915 C914 1.415 . S
H916 C913 0.999 . S
H917 C898 0.913 . S
H918 C936 0.951 . S
H919 C938 0.951 . S
H920 C940 0.950 . S
H921 C941 0.950 . S
H922 C943 0.950 . S
H923 C946 0.950 . S
H924 C947 0.950 . S
H925 C949 0.950 . S
H926 C950 0.950 . S
H927 C951 0.951 . S
H928 C953 0.951 . S
H929 C955 0.950 . S
H930 C956 0.950 . S
H931 C958 0.950 . S
H932 C961 0.950 . S
H933 C962 0.950 . S
H934 C964 0.950 . S
H935 C965 0.950 . S
C936 H918 0.951 . S
C936 C937 1.366 . S
C936 C938 1.388 . S
C937 C936 1.366 . S
C937 C941 1.385 . S
C938 H919 0.951 . S
C938 C936 1.388 . S
C938 C939 1.366 . S
C939 C938 1.366 . S
C939 C940 1.414 . S
C939 C942 1.499 . S
C940 H920 0.950 . S
C940 C939 1.414 . S
C940 C941 1.374 . S
C941 H921 0.950 . S
C941 C937 1.385 . S
C941 C940 1.374 . S
C942 C939 1.499 . S
C942 C943 1.373 . S
C942 C944 1.389 1_554 S
C943 H922 0.950 . S
C943 C942 1.373 . S
C943 C959 1.377 1_565 S
C944 C942 1.389 1_556 S
C944 C945 1.524 . S
C944 C958 1.377 1_565 S
C945 C944 1.524 . S
C945 C946 1.397 . S
C945 C950 1.363 . S
C946 H923 0.950 . S
C946 C945 1.397 . S
C946 C947 1.334 . S
C947 H924 0.950 . S
C947 C946 1.334 . S
C947 C948 1.287 . S
C948 C947 1.287 . S
C948 C949 1.524 . S
C948 H967 0.913 . S
C949 H925 0.950 . S
C949 C948 1.524 . S
C949 C950 1.415 . S
C950 H926 0.950 . S
C950 C945 1.363 . S
C950 C949 1.415 . S
C951 H927 0.951 . S
C951 C952 1.366 . S
C951 C953 1.388 . S
C952 C951 1.366 . S
C952 C956 1.385 . S
C953 H928 0.951 . S
C953 C951 1.388 . S
C953 C954 1.366 . S
C954 C953 1.366 . S
C954 C955 1.414 . S
C954 C957 1.499 . S
C955 H929 0.950 . S
C955 C954 1.414 . S
C955 C956 1.374 . S
C956 H930 0.950 . S
C956 C952 1.385 . S
C956 C955 1.374 . S
C957 C954 1.499 . S
C957 C958 1.373 . S
C957 C959 1.389 1_556 S
C958 H931 0.950 . S
C958 C944 1.377 1_545 S
C958 C957 1.373 . S
C959 C943 1.377 1_545 S
C959 C957 1.389 1_554 S
C959 C960 1.524 . S
C960 C959 1.524 . S
C960 C961 1.397 . S
C960 C965 1.363 . S
C961 H932 0.950 . S
C961 C960 1.397 . S
C961 C962 1.334 . S
C962 H933 0.950 . S
C962 C961 1.334 . S
C962 C963 1.287 . S
C963 C962 1.287 . S
C963 C964 1.524 . S
C963 H966 0.999 . S
C964 H934 0.950 . S
C964 C963 1.524 . S
C964 C965 1.415 . S
C965 H935 0.950 . S
C965 C960 1.363 . S
C965 C964 1.415 . S
H966 C963 0.999 . S
H967 C948 0.913 . S
H968 C986 0.951 . S
H969 C988 0.951 . S
H970 C990 0.950 . S
H971 C991 0.950 . S
H972 C993 0.950 . S
H973 C996 0.950 . S
H974 C997 0.950 . S
H975 C999 0.950 . S
H976 C1000 0.950 . S
H977 C1001 0.951 . S
H978 C1003 0.951 . S
H979 C1005 0.950 . S
H980 C1006 0.950 . S
H981 C1008 0.950 . S
H982 C1011 0.950 . S
H983 C1012 0.950 . S
H984 C1014 0.950 . S
H985 C1015 0.950 . S
C986 H968 0.951 . S
C986 C987 1.366 . S
C986 C988 1.388 . S
C987 C986 1.366 . S
C987 C991 1.385 . S
C988 H969 0.951 . S
C988 C986 1.388 . S
C988 C989 1.366 . S
C989 C988 1.366 . S
C989 C990 1.414 . S
C989 C992 1.499 . S
C990 H970 0.950 . S
C990 C989 1.414 . S
C990 C991 1.374 . S
C991 H971 0.950 . S
C991 C987 1.385 . S
C991 C990 1.374 . S
C992 C989 1.499 . S
C992 C993 1.373 . S
C992 C994 1.389 . S
C993 H972 0.950 . S
C993 C992 1.373 . S
C993 C1009 1.377 . S
C994 C992 1.389 . S
C994 C995 1.524 . S
C994 C1008 1.377 . S
C995 C994 1.524 . S
C995 C996 1.397 . S
C995 C1000 1.363 . S
C996 H973 0.950 . S
C996 C995 1.397 . S
C996 C997 1.334 . S
C997 H974 0.950 . S
C997 C996 1.334 . S
C997 C998 1.287 . S
C998 C997 1.287 . S
C998 C999 1.524 . S
C998 H1017 0.913 . S
C999 H975 0.950 . S
C999 C998 1.524 . S
C999 C1000 1.415 . S
C1000 H976 0.950 . S
C1000 C995 1.363 . S
C1000 C999 1.415 . S
C1001 H977 0.951 . S
C1001 C1002 1.366 . S
C1001 C1003 1.388 . S
C1002 C1001 1.366 . S
C1002 C1006 1.385 . S
C1003 H978 0.951 . S
C1003 C1001 1.388 . S
C1003 C1004 1.366 . S
C1004 C1003 1.366 . S
C1004 C1005 1.414 . S
C1004 C1007 1.499 . S
C1005 H979 0.950 . S
C1005 C1004 1.414 . S
C1005 C1006 1.374 . S
C1006 H980 0.950 . S
C1006 C1002 1.385 . S
C1006 C1005 1.374 . S
C1007 C1004 1.499 . S
C1007 C1008 1.373 . S
C1007 C1009 1.389 . S
C1008 H981 0.950 . S
C1008 C994 1.377 . S
C1008 C1007 1.373 . S
C1009 C993 1.377 . S
C1009 C1007 1.389 . S
C1009 C1010 1.524 . S
C1010 C1009 1.524 . S
C1010 C1011 1.397 . S
C1010 C1015 1.363 . S
C1011 H982 0.950 . S
C1011 C1010 1.397 . S
C1011 C1012 1.334 . S
C1012 H983 0.950 . S
C1012 C1011 1.334 . S
C1012 C1013 1.287 . S
C1013 C1012 1.287 . S
C1013 C1014 1.524 . S
C1013 H1016 0.999 . S
C1014 H984 0.950 . S
C1014 C1013 1.524 . S
C1014 C1015 1.415 . S
C1015 H985 0.950 . S
C1015 C1010 1.363 . S
C1015 C1014 1.415 . S
H1016 C1013 0.999 . S
H1017 C998 0.913 . S
H1018 C1036 0.951 . S
H1019 C1038 0.951 . S
H1020 C1040 0.950 . S
H1021 C1041 0.950 . S
H1022 C1043 0.950 . S
H1023 C1046 0.950 . S
H1024 C1047 0.950 . S
H1025 C1049 0.950 . S
H1026 C1050 0.950 . S
H1027 C1051 0.951 . S
H1028 C1053 0.951 . S
H1029 C1055 0.950 . S
H1030 C1056 0.950 . S
H1031 C1058 0.950 . S
H1032 C1061 0.950 . S
H1033 C1062 0.950 . S
H1034 C1064 0.950 . S
H1035 C1065 0.950 . S
C1036 H1018 0.951 . S
C1036 C1037 1.366 . S
C1036 C1038 1.388 . S
C1037 C1036 1.366 . S
C1037 C1041 1.385 . S
C1038 H1019 0.951 . S
C1038 C1036 1.388 . S
C1038 C1039 1.366 . S
C1039 C1038 1.366 . S
C1039 C1040 1.414 . S
C1039 C1042 1.499 . S
C1040 H1020 0.950 . S
C1040 C1039 1.414 . S
C1040 C1041 1.374 . S
C1041 H1021 0.950 . S
C1041 C1037 1.385 . S
C1041 C1040 1.374 . S
C1042 C1039 1.499 . S
C1042 C1043 1.373 . S
C1042 C1044 1.389 . S
C1043 H1022 0.950 . S
C1043 C1042 1.373 . S
C1043 C1059 1.377 1_455 S
C1044 C1042 1.389 . S
C1044 C1045 1.524 . S
C1044 C1058 1.377 1_455 S
C1045 C1044 1.524 . S
C1045 C1046 1.397 . S
C1045 C1050 1.363 1_455 S
C1046 H1023 0.950 . S
C1046 C1045 1.397 . S
C1046 C1047 1.334 . S
C1047 H1024 0.950 . S
C1047 C1046 1.334 . S
C1047 C1048 1.287 . S
C1048 C1047 1.287 . S
C1048 C1049 1.524 1_455 S
C1048 H1067 0.913 . S
C1049 H1025 0.950 . S
C1049 C1048 1.524 1_655 S
C1049 C1050 1.415 . S
C1050 H1026 0.950 . S
C1050 C1045 1.363 1_655 S
C1050 C1049 1.415 . S
C1051 H1027 0.951 . S
C1051 C1052 1.366 . S
C1051 C1053 1.388 . S
C1052 C1051 1.366 . S
C1052 C1056 1.385 . S
C1053 H1028 0.951 . S
C1053 C1051 1.388 . S
C1053 C1054 1.366 . S
C1054 C1053 1.366 . S
C1054 C1055 1.414 . S
C1054 C1057 1.499 . S
C1055 H1029 0.950 . S
C1055 C1054 1.414 . S
C1055 C1056 1.374 . S
C1056 H1030 0.950 . S
C1056 C1052 1.385 . S
C1056 C1055 1.374 . S
C1057 C1054 1.499 . S
C1057 C1058 1.373 . S
C1057 C1059 1.389 . S
C1058 H1031 0.950 . S
C1058 C1044 1.377 1_655 S
C1058 C1057 1.373 . S
C1059 C1043 1.377 1_655 S
C1059 C1057 1.389 . S
C1059 C1060 1.524 . S
C1060 C1059 1.524 . S
C1060 C1061 1.397 . S
C1060 C1065 1.363 1_655 S
C1061 H1032 0.950 . S
C1061 C1060 1.397 . S
C1061 C1062 1.334 . S
C1062 H1033 0.950 . S
C1062 C1061 1.334 . S
C1062 C1063 1.287 . S
C1063 C1062 1.287 . S
C1063 C1064 1.524 1_655 S
C1063 H1066 0.999 . S
C1064 H1034 0.950 . S
C1064 C1063 1.524 1_455 S
C1064 C1065 1.415 . S
C1065 H1035 0.950 . S
C1065 C1060 1.363 1_455 S
C1065 C1064 1.415 . S
H1066 C1063 0.999 . S
H1067 C1048 0.913 . S
H1068 C1086 0.951 1_655 S
H1069 C1088 0.951 1_554 S
H1070 C1090 0.950 . S
H1071 C1091 0.950 . S
H1072 C1093 0.950 . S
H1073 C1096 0.986 . S
H1074 C1097 0.950 1_556 S
H1075 C1099 0.950 . S
H1076 C1100 0.950 . S
H1077 C1101 0.951 . S
H1078 C1103 0.951 1_556 S
H1079 C1105 0.950 . S
H1080 C1106 0.950 . S
H1081 C1108 0.950 . S
H1082 C1111 0.950 . S
H1083 C1112 0.950 1_554 S
H1084 C1114 0.950 . S
H1085 C1115 0.950 . S
C1086 H1068 0.951 1_455 S
C1086 C1087 1.366 1_455 S
C1086 C1088 1.388 . S
C1087 C1086 1.366 1_655 S
C1087 C1091 1.385 1_655 S
C1088 H1069 0.951 1_556 S
C1088 C1086 1.388 . S
C1088 C1089 1.366 . S
C1089 C1088 1.366 . S
C1089 C1090 1.414 . S
C1089 C1092 1.499 . S
C1090 H1070 0.950 . S
C1090 C1089 1.414 . S
C1090 C1091 1.374 . S
C1091 H1071 0.950 . S
C1091 C1087 1.385 1_455 S
C1091 C1090 1.374 . S
C1092 C1089 1.499 . S
C1092 C1093 1.373 . S
C1092 C1094 1.389 1_556 S
C1093 H1072 0.950 . S
C1093 C1092 1.373 . S
C1093 C1109 1.377 . S
C1094 C1092 1.389 1_554 S
C1094 C1095 1.524 . S
C1094 C1108 1.377 . S
C1095 C1094 1.524 . S
C1095 C1096 1.370 1_554 S
C1095 C1100 1.363 . S
C1096 H1073 0.986 . S
C1096 C1095 1.370 1_556 S
C1096 C1097 1.325 1_556 S
C1097 H1074 0.950 1_554 S
C1097 C1096 1.325 1_554 S
C1097 C1098 1.287 . S
C1098 C1097 1.287 . S
C1098 C1099 1.524 . S
C1098 H1117 0.913 . S
C1099 H1075 0.950 . S
C1099 C1098 1.524 . S
C1099 C1100 1.415 . S
C1100 H1076 0.950 . S
C1100 C1095 1.363 . S
C1100 C1099 1.415 . S
C1101 H1077 0.951 . S
C1101 C1102 1.366 . S
C1101 C1103 1.388 . S
C1102 C1101 1.366 . S
C1102 C1106 1.385 . S
C1103 H1078 0.951 1_554 S
C1103 C1101 1.388 . S
C1103 C1104 1.366 . S
C1104 C1103 1.366 . S
C1104 C1105 1.414 . S
C1104 C1107 1.499 . S
C1105 H1079 0.950 . S
C1105 C1104 1.414 . S
C1105 C1106 1.374 . S
C1106 H1080 0.950 . S
C1106 C1102 1.385 . S
C1106 C1105 1.374 . S
C1107 C1104 1.499 . S
C1107 C1108 1.373 . S
C1107 C1109 1.389 1_554 S
C1108 H1081 0.950 . S
C1108 C1094 1.377 . S
C1108 C1107 1.373 . S
C1109 C1093 1.377 . S
C1109 C1107 1.389 1_556 S
C1109 C1110 1.524 . S
C1110 C1109 1.524 . S
C1110 C1111 1.397 1_556 S
C1110 C1115 1.363 . S
C1111 H1082 0.950 . S
C1111 C1110 1.397 1_554 S
C1111 C1112 1.334 1_554 S
C1112 H1083 0.950 1_556 S
C1112 C1111 1.334 1_556 S
C1112 C1113 1.287 . S
C1113 C1112 1.287 . S
C1113 C1114 1.524 . S
C1113 H1116 0.999 . S
C1114 H1084 0.950 . S
C1114 C1113 1.524 . S
C1114 C1115 1.415 . S
C1115 H1085 0.950 . S
C1115 C1110 1.363 . S
C1115 C1114 1.415 . S
H1116 C1113 0.999 . S
H1117 C1098 0.913 . S
H1118 C1136 0.951 . S
H1119 C1138 0.951 . S
H1120 C1140 0.950 . S
H1121 C1141 0.950 . S
H1122 C1143 0.950 . S
H1123 C1146 0.950 . S
H1124 C1147 0.950 . S
H1125 C1149 0.950 . S
H1126 C1150 0.950 . S
H1127 C1151 0.951 . S
H1128 C1153 0.951 . S
H1129 C1155 0.950 . S
H1130 C1156 0.950 1_455 S
H1131 C1158 0.950 . S
H1132 C1161 0.950 . S
H1133 C1162 0.927 1_455 S
H1134 C1164 0.950 . S
H1135 C1165 0.950 . S
C1136 H1118 0.951 . S
C1136 C1137 1.366 . S
C1136 C1138 1.388 1_565 S
C1137 C1136 1.366 . S
C1137 C1141 1.385 1_565 S
C1138 H1119 0.951 . S
C1138 C1136 1.388 1_545 S
C1138 C1139 1.366 . S
C1139 C1138 1.366 . S
C1139 C1140 1.414 . S
C1139 C1142 1.499 . S
C1140 H1120 0.950 . S
C1140 C1139 1.414 . S
C1140 C1141 1.374 . S
C1141 H1121 0.950 . S
C1141 C1137 1.385 1_545 S
C1141 C1140 1.374 . S
C1142 C1139 1.499 . S
C1142 C1143 1.373 . S
C1142 C1144 1.389 . S
C1143 H1122 0.950 . S
C1143 C1142 1.373 . S
C1143 C1159 1.377 . S
C1144 C1142 1.389 . S
C1144 C1145 1.524 . S
C1144 C1158 1.377 . S
C1145 C1144 1.524 . S
C1145 C1146 1.397 . S
C1145 C1150 1.363 . S
C1146 H1123 0.950 . S
C1146 C1145 1.397 . S
C1146 C1147 1.334 . S
C1147 H1124 0.950 . S
C1147 C1146 1.334 . S
C1147 C1148 1.287 . S
C1148 C1147 1.287 . S
C1148 C1149 1.524 . S
C1148 H1167 0.913 1_545 S
C1149 H1125 0.950 . S
C1149 C1148 1.524 . S
C1149 C1150 1.415 . S
C1150 H1126 0.950 . S
C1150 C1145 1.363 . S
C1150 C1149 1.415 . S
C1151 H1127 0.951 . S
C1151 C1152 1.366 1_655 S
C1151 C1153 1.388 . S
C1152 C1151 1.366 1_455 S
C1152 C1156 1.385 1_455 S
C1153 H1128 0.951 . S
C1153 C1151 1.388 . S
C1153 C1154 1.366 . S
C1154 C1153 1.366 . S
C1154 C1155 1.414 . S
C1154 C1157 1.499 . S
C1155 H1129 0.950 . S
C1155 C1154 1.414 . S
C1155 C1156 1.374 . S
C1156 H1130 0.950 1_655 S
C1156 C1152 1.385 1_655 S
C1156 C1155 1.374 . S
C1157 C1154 1.499 . S
C1157 C1158 1.373 . S
C1157 C1159 1.389 . S
C1158 H1131 0.950 . S
C1158 C1144 1.377 . S
C1158 C1157 1.373 . S
C1159 C1143 1.377 . S
C1159 C1157 1.389 . S
C1159 C1160 1.524 . S
C1160 C1159 1.524 . S
C1160 C1161 1.397 . S
C1160 C1165 1.363 . S
C1161 H1132 0.950 . S
C1161 C1160 1.397 . S
C1161 C1162 1.334 . S
C1162 H1133 0.927 1_655 S
C1162 C1161 1.334 . S
C1162 C1163 1.287 . S
C1163 C1162 1.287 . S
C1163 C1164 1.524 . S
C1163 H1166 0.999 . S
C1164 H1134 0.950 . S
C1164 C1163 1.524 . S
C1164 C1165 1.415 . S
C1165 H1135 0.950 . S
C1165 C1160 1.363 . S
C1165 C1164 1.415 . S
H1166 C1163 0.999 . S
H1167 C1148 0.913 1_565 S
H1168 C1186 0.951 . S
H1169 C1188 0.951 . S
H1170 C1190 0.950 . S
H1171 C1191 0.950 . S
H1172 C1193 0.950 . S
H1173 C1196 0.950 . S
H1174 C1197 0.950 . S
H1175 C1199 0.950 . S
H1176 C1200 0.950 . S
H1177 C1201 0.951 . S
H1178 C1203 0.951 . S
H1179 C1205 0.950 . S
H1180 C1206 0.950 . S
H1181 C1208 0.950 . S
H1182 C1211 0.950 . S
H1183 C1212 0.950 . S
H1184 C1214 0.950 . S
H1185 C1215 0.950 . S
C1186 H1168 0.951 . S
C1186 C1187 1.366 . S
C1186 C1188 1.388 . S
C1187 C1186 1.366 . S
C1187 C1191 1.385 . S
C1188 H1169 0.951 . S
C1188 C1186 1.388 . S
C1188 C1189 1.366 . S
C1189 C1188 1.366 . S
C1189 C1190 1.414 . S
C1189 C1192 1.499 . S
C1190 H1170 0.950 . S
C1190 C1189 1.414 . S
C1190 C1191 1.374 . S
C1191 H1171 0.950 . S
C1191 C1187 1.385 . S
C1191 C1190 1.374 . S
C1192 C1189 1.499 . S
C1192 C1193 1.373 . S
C1192 C1194 1.389 . S
C1193 H1172 0.950 . S
C1193 C1192 1.373 . S
C1193 C1209 1.377 . S
C1194 C1192 1.389 . S
C1194 C1195 1.524 . S
C1194 C1208 1.377 . S
C1195 C1194 1.524 . S
C1195 C1196 1.397 . S
C1195 C1200 1.363 . S
C1196 H1173 0.950 . S
C1196 C1195 1.397 . S
C1196 C1197 1.334 . S
C1197 H1174 0.950 . S
C1197 C1196 1.334 . S
C1197 C1198 1.287 . S
C1198 C1197 1.287 . S
C1198 C1199 1.524 . S
C1198 H1217 0.913 . S
C1199 H1175 0.950 . S
C1199 C1198 1.524 . S
C1199 C1200 1.415 . S
C1200 H1176 0.950 . S
C1200 C1195 1.363 . S
C1200 C1199 1.415 . S
C1201 H1177 0.951 . S
C1201 C1202 1.366 . S
C1201 C1203 1.388 1_545 S
C1202 C1201 1.366 . S
C1202 C1206 1.385 1_545 S
C1203 H1178 0.951 . S
C1203 C1201 1.388 1_565 S
C1203 C1204 1.366 . S
C1204 C1203 1.366 . S
C1204 C1205 1.414 . S
C1204 C1207 1.499 . S
C1205 H1179 0.950 . S
C1205 C1204 1.414 . S
C1205 C1206 1.374 . S
C1206 H1180 0.950 . S
C1206 C1202 1.385 1_565 S
C1206 C1205 1.374 . S
C1207 C1204 1.499 . S
C1207 C1208 1.373 . S
C1207 C1209 1.389 . S
C1208 H1181 0.950 . S
C1208 C1194 1.377 . S
C1208 C1207 1.373 . S
C1209 C1193 1.377 . S
C1209 C1207 1.389 . S
C1209 C1210 1.524 . S
C1210 C1209 1.524 . S
C1210 C1211 1.397 . S
C1210 C1215 1.363 . S
C1211 H1182 0.950 . S
C1211 C1210 1.397 . S
C1211 C1212 1.334 . S
C1212 H1183 0.950 . S
C1212 C1211 1.334 . S
C1212 C1213 1.287 . S
C1213 C1212 1.287 . S
C1213 C1214 1.524 . S
C1213 H1216 0.999 . S
C1214 H1184 0.950 . S
C1214 C1213 1.524 . S
C1214 C1215 1.415 . S
C1215 H1185 0.950 . S
C1215 C1210 1.363 . S
C1215 C1214 1.415 . S
H1216 C1213 0.999 . S
H1217 C1198 0.913 . S
H1218 C1236 0.951 . S
H1219 C1238 0.951 1_556 S
H1220 C1240 0.950 . S
H1221 C1241 0.950 . S
H1222 C1243 0.950 . S
H1223 C1246 0.950 1_554 S
H1224 C1247 0.950 . S
H1225 C1249 0.950 . S
H1226 C1250 0.950 . S
H1227 C1251 0.951 1_455 S
H1228 C1253 0.951 1_554 S
H1229 C1255 0.950 . S
H1230 C1256 0.950 . S
H1231 C1258 0.950 . S
H1232 C1261 0.950 1_556 S
H1233 C1262 0.950 . S
H1234 C1264 0.950 . S
H1235 C1265 0.950 . S
C1236 H1218 0.951 . S
C1236 C1237 1.366 . S
C1236 C1238 1.388 . S
C1237 C1236 1.366 . S
C1237 C1241 1.385 . S
C1238 H1219 0.951 1_554 S
C1238 C1236 1.388 . S
C1238 C1239 1.366 . S
C1239 C1238 1.366 . S
C1239 C1240 1.414 . S
C1239 C1242 1.499 . S
C1240 H1220 0.950 . S
C1240 C1239 1.414 . S
C1240 C1241 1.374 . S
C1241 H1221 0.950 . S
C1241 C1237 1.385 . S
C1241 C1240 1.374 . S
C1242 C1239 1.499 . S
C1242 C1243 1.373 . S
C1242 C1244 1.389 1_554 S
C1243 H1222 0.950 . S
C1243 C1242 1.373 . S
C1243 C1259 1.377 . S
C1244 C1242 1.389 1_556 S
C1244 C1245 1.524 . S
C1244 C1258 1.377 . S
C1245 C1244 1.524 . S
C1245 C1246 1.397 . S
C1245 C1250 1.363 . S
C1246 H1223 0.950 1_556 S
C1246 C1245 1.397 . S
C1246 C1247 1.334 . S
C1247 H1224 0.950 . S
C1247 C1246 1.334 . S
C1247 C1248 1.287 . S
C1248 C1247 1.287 . S
C1248 C1249 1.524 . S
C1248 H1267 0.913 . S
C1249 H1225 0.950 . S
C1249 C1248 1.524 . S
C1249 C1250 1.415 . S
C1250 H1226 0.950 . S
C1250 C1245 1.363 . S
C1250 C1249 1.415 . S
C1251 H1227 0.951 1_655 S
C1251 C1252 1.366 1_655 S
C1251 C1253 1.388 . S
C1252 C1251 1.366 1_455 S
C1252 C1256 1.385 1_455 S
C1253 H1228 0.951 1_556 S
C1253 C1251 1.388 . S
C1253 C1254 1.366 . S
C1254 C1253 1.366 . S
C1254 C1255 1.414 . S
C1254 C1257 1.499 . S
C1255 H1229 0.950 . S
C1255 C1254 1.414 . S
C1255 C1256 1.374 . S
C1256 H1230 0.950 . S
C1256 C1252 1.385 1_655 S
C1256 C1255 1.374 . S
C1257 C1254 1.499 . S
C1257 C1258 1.373 . S
C1257 C1259 1.389 1_556 S
C1258 H1231 0.950 . S
C1258 C1244 1.377 . S
C1258 C1257 1.373 . S
C1259 C1243 1.377 . S
C1259 C1257 1.389 1_554 S
C1259 C1260 1.524 . S
C1260 C1259 1.524 . S
C1260 C1261 1.397 . S
C1260 C1265 1.363 . S
C1261 H1232 0.950 1_554 S
C1261 C1260 1.397 . S
C1261 C1262 1.334 1_655 S
C1262 H1233 0.950 . S
C1262 C1261 1.334 1_455 S
C1262 C1263 1.287 . S
C1263 C1262 1.287 . S
C1263 C1264 1.524 1_455 S
C1263 H1266 0.999 . S
C1264 H1234 0.950 . S
C1264 C1263 1.524 1_655 S
C1264 C1265 1.415 . S
C1265 H1235 0.950 . S
C1265 C1260 1.363 . S
C1265 C1264 1.415 . S
H1266 C1263 0.999 . S
H1267 C1248 0.913 . S
H1268 C1286 0.951 . S
H1269 C1288 0.951 . S
H1270 C1290 0.950 . S
H1271 C1291 0.950 . S
H1272 C1293 0.950 . S
H1273 C1296 0.950 . S
H1274 C1297 0.950 . S
H1275 C1299 0.950 . S
H1276 C1300 0.950 . S
H1277 C1301 0.951 . S
H1278 C1303 0.951 . S
H1279 C1305 0.950 . S
H1280 C1306 0.950 . S
H1281 C1308 0.950 . S
H1282 C1311 0.950 . S
H1283 C1312 0.950 . S
H1284 C1314 0.950 . S
H1285 C1315 0.950 . S
C1286 H1268 0.951 . S
C1286 C1287 1.366 1_455 S
C1286 C1288 1.388 . S
C1287 C1286 1.366 1_655 S
C1287 C1291 1.385 . S
C1288 H1269 0.951 . S
C1288 C1286 1.388 . S
C1288 C1289 1.366 . S
C1289 C1288 1.366 . S
C1289 C1290 1.414 . S
C1289 C1292 1.499 . S
C1290 H1270 0.950 . S
C1290 C1289 1.414 . S
C1290 C1291 1.374 1_455 S
C1291 H1271 0.950 . S
C1291 C1287 1.385 . S
C1291 C1290 1.374 1_655 S
C1292 C1289 1.499 . S
C1292 C1293 1.373 . S
C1292 C1294 1.389 . S
C1293 H1272 0.950 . S
C1293 C1292 1.373 . S
C1293 C1309 1.377 . S
C1294 C1292 1.389 . S
C1294 C1295 1.524 . S
C1294 C1308 1.377 . S
C1295 C1294 1.524 . S
C1295 C1296 1.397 . S
C1295 C1300 1.363 . S
C1296 H1273 0.950 . S
C1296 C1295 1.397 . S
C1296 C1297 1.334 . S
C1297 H1274 0.950 . S
C1297 C1296 1.334 . S
C1297 C1298 1.287 . S
C1298 C1297 1.287 . S
C1298 C1299 1.524 . S
C1298 H1317 0.913 . S
C1299 H1275 0.950 . S
C1299 C1298 1.524 . S
C1299 C1300 1.415 . S
C1300 H1276 0.950 . S
C1300 C1295 1.363 . S
C1300 C1299 1.415 . S
C1301 H1277 0.951 . S
C1301 C1302 1.366 . S
C1301 C1303 1.388 1_545 S
C1302 C1301 1.366 . S
C1302 C1306 1.385 1_545 S
C1303 H1278 0.951 . S
C1303 C1301 1.388 1_565 S
C1303 C1304 1.366 . S
C1304 C1303 1.366 . S
C1304 C1305 1.414 . S
C1304 C1307 1.499 . S
C1305 H1279 0.950 . S
C1305 C1304 1.414 . S
C1305 C1306 1.374 . S
C1306 H1280 0.950 . S
C1306 C1302 1.385 1_565 S
C1306 C1305 1.374 . S
C1307 C1304 1.499 . S
C1307 C1308 1.373 . S
C1307 C1309 1.389 . S
C1308 H1281 0.950 . S
C1308 C1294 1.377 . S
C1308 C1307 1.373 . S
C1309 C1293 1.377 . S
C1309 C1307 1.389 . S
C1309 C1310 1.524 . S
C1310 C1309 1.524 . S
C1310 C1311 1.397 . S
C1310 C1315 1.363 . S
C1311 H1282 0.950 . S
C1311 C1310 1.397 . S
C1311 C1312 1.334 . S
C1312 H1283 0.950 . S
C1312 C1311 1.334 . S
C1312 C1313 1.287 . S
C1313 C1312 1.287 . S
C1313 C1314 1.524 . S
C1313 H1316 0.999 . S
C1314 H1284 0.950 . S
C1314 C1313 1.524 . S
C1314 C1315 1.415 . S
C1315 H1285 0.950 . S
C1315 C1310 1.363 . S
C1315 C1314 1.415 . S
H1316 C1313 0.999 . S
H1317 C1298 0.913 . S
H1318 C1336 0.951 . S
H1319 C1338 0.951 . S
H1320 C1340 0.950 . S
H1321 C1341 0.950 1_565 S
H1322 C1343 0.950 . S
H1323 C1346 0.950 . S
H1324 C1347 0.950 1_565 S
H1325 C1349 0.950 . S
H1326 C1350 0.950 . S
H1327 C1351 0.951 . S
H1328 C1353 0.951 . S
H1329 C1355 0.950 . S
H1330 C1356 0.950 . S
H1331 C1358 0.950 . S
H1332 C1361 0.950 . S
H1333 C1362 0.950 . S
H1334 C1364 0.950 . S
H1335 C1365 0.950 . S
C1336 H1318 0.951 . S
C1336 C1337 1.366 1_545 S
C1336 C1338 1.388 . S
C1337 C1336 1.366 1_565 S
C1337 C1341 1.385 1_565 S
C1338 H1319 0.951 . S
C1338 C1336 1.388 . S
C1338 C1339 1.366 . S
C1339 C1338 1.366 . S
C1339 C1340 1.414 . S
C1339 C1342 1.499 . S
C1340 H1320 0.950 . S
C1340 C1339 1.414 . S
C1340 C1341 1.374 . S
C1341 H1321 0.950 1_545 S
C1341 C1337 1.385 1_545 S
C1341 C1340 1.374 . S
C1342 C1339 1.499 . S
C1342 C1343 1.373 . S
C1342 C1344 1.389 . S
C1343 H1322 0.950 . S
C1343 C1342 1.373 . S
C1343 C1359 1.377 . S
C1344 C1342 1.389 . S
C1344 C1345 1.524 . S
C1344 C1358 1.377 . S
C1345 C1344 1.524 . S
C1345 C1346 1.397 . S
C1345 C1350 1.363 . S
C1346 H1323 0.950 . S
C1346 C1345 1.397 . S
C1346 C1347 1.334 . S
C1347 H1324 0.950 1_545 S
C1347 C1346 1.334 . S
C1347 C1348 1.287 . S
C1348 C1347 1.287 . S
C1348 C1349 1.524 . S
C1348 H1367 0.913 . S
C1349 H1325 0.950 . S
C1349 C1348 1.524 . S
C1349 C1350 1.415 . S
C1350 H1326 0.950 . S
C1350 C1345 1.363 . S
C1350 C1349 1.415 . S
C1351 H1327 0.951 . S
C1351 C1352 1.366 . S
C1351 C1353 1.388 . S
C1352 C1351 1.366 . S
C1352 C1356 1.385 . S
C1353 H1328 0.951 . S
C1353 C1351 1.388 . S
C1353 C1354 1.366 . S
C1354 C1353 1.366 . S
C1354 C1355 1.414 . S
C1354 C1357 1.499 . S
C1355 H1329 0.950 . S
C1355 C1354 1.414 . S
C1355 C1356 1.374 . S
C1356 H1330 0.950 . S
C1356 C1352 1.385 . S
C1356 C1355 1.374 . S
C1357 C1354 1.499 . S
C1357 C1358 1.373 . S
C1357 C1359 1.389 . S
C1358 H1331 0.950 . S
C1358 C1344 1.377 . S
C1358 C1357 1.373 . S
C1359 C1343 1.377 . S
C1359 C1357 1.389 . S
C1359 C1360 1.524 . S
C1360 C1359 1.524 . S
C1360 C1361 1.397 . S
C1360 C1365 1.363 . S
C1361 H1332 0.950 . S
C1361 C1360 1.397 . S
C1361 C1362 1.334 . S
C1362 H1333 0.950 . S
C1362 C1361 1.334 . S
C1362 C1363 1.287 . S
C1363 C1362 1.287 . S
C1363 C1364 1.524 . S
C1363 H1366 0.999 . S
C1364 H1334 0.950 . S
C1364 C1363 1.524 . S
C1364 C1365 1.415 . S
C1365 H1335 0.950 . S
C1365 C1360 1.363 . S
C1365 C1364 1.415 . S
H1366 C1363 0.999 . S
H1367 C1348 0.913 . S
C187 C50 1.317 . S
C202 C8 1.317 . S
C237 C22 1.317 . S
C252 C64 1.317 . S
C287 C78 1.318 . S
C302 C36 1.318 . S
C337 C92 1.317 . S
C352 C134 1.318 . S
C387 C148 1.317 . S
C402 C106 1.317 . S
C437 C120 1.317 . S
C452 C162 1.317 . S
C487 C119 1.618 . S
C502 C7 1.617 . S
C537 C21 1.618 . S
C552 C133 1.617 . S
C587 C35 1.617 . S
C602 C147 1.618 . S
C637 C49 1.618 . S
C652 C161 1.617 . S
C687 C91 1.618 . S
C702 C63 1.617 . S
C737 C105 1.618 . S
C752 C77 1.617 . S
C787 C107 1.109 . S
C802 C9 1.108 . S
C837 C23 1.108 . S
C852 C121 1.110 . S
C887 C37 1.109 . S
C902 C135 1.108 . S
C937 C51 1.108 . S
C952 C149 1.108 . S
C987 C163 1.108 . S
C1002 C65 1.109 . S
C1037 C79 1.109 . S
C1052 C93 1.110 . S
C1087 C143 1.444 . S
C1102 C3 1.444 . S
C1137 C157 1.444 . S
C1152 C17 1.444 . S
C1187 C87 1.444 . S
C1202 C31 1.444 . S
C1237 C45 1.444 . S
C1252 C101 1.444 . S
C1287 C59 1.444 . S
C1302 C115 1.444 . S
C1337 C73 1.444 . S
C1352 C129 1.444 . S
