# Generated by pormake.
# Topology zfm, (5)-cn, num edge types: 1
# Building blocks:
#     Node 0, Type 0, BuildingBlock: BEQFEK_clean_sbu_0, # of connection points: 5
#     Node 1, Type 0, BuildingBlock: BEQFEK_clean_sbu_0, # of connection points: 5
#     Node 2, Type 0, BuildingBlock: BEQFEK_clean_sbu_0, # of connection points: 5
#     Node 3, Type 0, BuildingBlock: BEQFEK_clean_sbu_0, # of connection points: 5
#     Node 4, Type 0, BuildingBlock: BEQFEK_clean_sbu_0, # of connection points: 5
#     Node 5, Type 0, BuildingBlock: BEQFEK_clean_sbu_0, # of connection points: 5
#     Node 6, Type 0, BuildingBlock: BEQFEK_clean_sbu_0, # of connection points: 5
#     Node 7, Type 0, BuildingBlock: BEQFEK_clean_sbu_0, # of connection points: 5
#     Node 8, Type 0, BuildingBlock: BEQFEK_clean_sbu_0, # of connection points: 5
#     Node 9, Type 0, BuildingBlock: BEQFEK_clean_sbu_0, # of connection points: 5
#     Node 10, Type 0, BuildingBlock: BEQFEK_clean_sbu_0, # of connection points: 5
#     Node 11, Type 0, BuildingBlock: BEQFEK_clean_sbu_0, # of connection points: 5
#     Node 12, Type 0, BuildingBlock: BEQFEK_clean_sbu_0, # of connection points: 5
#     Node 13, Type 0, BuildingBlock: BEQFEK_clean_sbu_0, # of connection points: 5
#     Node 14, Type 0, BuildingBlock: BEQFEK_clean_sbu_0, # of connection points: 5
#     Node 15, Type 0, BuildingBlock: BEQFEK_clean_sbu_0, # of connection points: 5
#     Edge 16, Type (0, 0), BuildingBlock: KIFKEQ_clean_linker_1, # of connection points: 2
#     Edge 17, Type (0, 0), BuildingBlock: KIFKEQ_clean_linker_1, # of connection points: 2
#     Edge 18, Type (0, 0), BuildingBlock: KIFKEQ_clean_linker_1, # of connection points: 2
#     Edge 19, Type (0, 0), BuildingBlock: KIFKEQ_clean_linker_1, # of connection points: 2
#     Edge 20, Type (0, 0), BuildingBlock: KIFKEQ_clean_linker_1, # of connection points: 2
#     Edge 21, Type (0, 0), BuildingBlock: KIFKEQ_clean_linker_1, # of connection points: 2
#     Edge 22, Type (0, 0), BuildingBlock: KIFKEQ_clean_linker_1, # of connection points: 2
#     Edge 23, Type (0, 0), BuildingBlock: KIFKEQ_clean_linker_1, # of connection points: 2
#     Edge 24, Type (0, 0), BuildingBlock: KIFKEQ_clean_linker_1, # of connection points: 2
#     Edge 25, Type (0, 0), BuildingBlock: KIFKEQ_clean_linker_1, # of connection points: 2
#     Edge 26, Type (0, 0), BuildingBlock: KIFKEQ_clean_linker_1, # of connection points: 2
#     Edge 27, Type (0, 0), BuildingBlock: KIFKEQ_clean_linker_1, # of connection points: 2
#     Edge 28, Type (0, 0), BuildingBlock: KIFKEQ_clean_linker_1, # of connection points: 2
#     Edge 29, Type (0, 0), BuildingBlock: KIFKEQ_clean_linker_1, # of connection points: 2
#     Edge 30, Type (0, 0), BuildingBlock: KIFKEQ_clean_linker_1, # of connection points: 2
#     Edge 31, Type (0, 0), BuildingBlock: KIFKEQ_clean_linker_1, # of connection points: 2
#     Edge 32, Type (0, 0), BuildingBlock: KIFKEQ_clean_linker_1, # of connection points: 2
#     Edge 33, Type (0, 0), BuildingBlock: KIFKEQ_clean_linker_1, # of connection points: 2
#     Edge 34, Type (0, 0), BuildingBlock: KIFKEQ_clean_linker_1, # of connection points: 2
#     Edge 35, Type (0, 0), BuildingBlock: KIFKEQ_clean_linker_1, # of connection points: 2
#     Edge 36, Type (0, 0), BuildingBlock: KIFKEQ_clean_linker_1, # of connection points: 2
#     Edge 37, Type (0, 0), BuildingBlock: KIFKEQ_clean_linker_1, # of connection points: 2
#     Edge 38, Type (0, 0), BuildingBlock: KIFKEQ_clean_linker_1, # of connection points: 2
#     Edge 39, Type (0, 0), BuildingBlock: KIFKEQ_clean_linker_1, # of connection points: 2
#     Edge 40, Type (0, 0), BuildingBlock: KIFKEQ_clean_linker_1, # of connection points: 2
#     Edge 41, Type (0, 0), BuildingBlock: KIFKEQ_clean_linker_1, # of connection points: 2
#     Edge 42, Type (0, 0), BuildingBlock: KIFKEQ_clean_linker_1, # of connection points: 2
#     Edge 43, Type (0, 0), BuildingBlock: KIFKEQ_clean_linker_1, # of connection points: 2
#     Edge 44, Type (0, 0), BuildingBlock: KIFKEQ_clean_linker_1, # of connection points: 2
#     Edge 45, Type (0, 0), BuildingBlock: KIFKEQ_clean_linker_1, # of connection points: 2
#     Edge 46, Type (0, 0), BuildingBlock: KIFKEQ_clean_linker_1, # of connection points: 2
#     Edge 47, Type (0, 0), BuildingBlock: KIFKEQ_clean_linker_1, # of connection points: 2
#     Edge 48, Type (0, 0), BuildingBlock: KIFKEQ_clean_linker_1, # of connection points: 2
#     Edge 49, Type (0, 0), BuildingBlock: KIFKEQ_clean_linker_1, # of connection points: 2
#     Edge 50, Type (0, 0), BuildingBlock: KIFKEQ_clean_linker_1, # of connection points: 2
#     Edge 51, Type (0, 0), BuildingBlock: KIFKEQ_clean_linker_1, # of connection points: 2
#     Edge 52, Type (0, 0), BuildingBlock: KIFKEQ_clean_linker_1, # of connection points: 2
#     Edge 53, Type (0, 0), BuildingBlock: KIFKEQ_clean_linker_1, # of connection points: 2
#     Edge 54, Type (0, 0), BuildingBlock: KIFKEQ_clean_linker_1, # of connection points: 2
#     Edge 55, Type (0, 0), BuildingBlock: KIFKEQ_clean_linker_1, # of connection points: 2
# Relax obj value: 0.136
# Max RMSD: 0.195
# Mean RMSD: 0.195
data_MOF--net-zfm--node1-BEQFEK_clean_sbu_0--edge1-KIFKEQ_clean_linker_1
_symmetry_space_group_name_H-M    P1
_symmetry_Int_Tables_number       1
_symmetry_cell_setting            triclinic
loop_
_symmetry_equiv_pos_as_xyz
'x, y, z'
_cell_length_a     28.981399
_cell_length_b     28.964582
_cell_length_c     77.760691
_cell_angle_alpha  89.994292
_cell_angle_beta   89.998827
_cell_angle_gamma 90.039371
loop_
_atom_site_label
_atom_site_type_symbol
_atom_site_fract_x
_atom_site_fract_y
_atom_site_fract_z
_atom_type_partial_charge
Co0 Co 0.44634 0.0777 0.15246 0.0
Co1 Co 0.44871 0.07333 0.11199 0.0
C2 C 0.40093 0.00067 0.13202 0.0
O3 O 0.41188 0.02113 0.14594 0.0
O4 O 0.41443 0.01589 0.11748 0.0
C5 C 0.42135 0.06334 0.18714 0.0
O6 O 0.38267 0.05005 0.17984 0.0
C7 C 0.4585 0.04704 0.0753 0.0
C8 C 0.48322 0.11269 0.06411 0.0
C9 C 0.47328 0.06722 0.06002 0.0
N10 N 0.46063 0.07896 0.08785 0.0
N11 N 0.47497 0.1182 0.08101 0.0
C12 C 0.43981 -0.00064 0.07787 0.0
H13 H 0.40776 0.0012 0.08558 0.0
H14 H 0.46533 0.97845 0.08512 0.0
H15 H 0.4316 0.98225 0.0655 0.0
C16 C 0.54674 0.08679 0.14739 0.0
N17 N 0.50368 0.08174 0.1412 0.0
N18 N 0.50532 0.07754 0.12438 0.0
C19 C 0.54987 0.07839 0.11935 0.0
C20 C 0.57767 0.08475 0.13375 0.0
C21 C 0.55746 0.09514 0.16596 0.0
H22 H 0.53178 0.11929 0.17151 0.0
H23 H 0.55502 0.062 0.17307 0.0
H24 H 0.59252 0.10983 0.16766 0.0
O25 O 0.4068 0.13031 0.14652 0.0
O26 O 0.40614 0.12471 0.11802 0.0
H27 H 0.56442 0.10152 0.09383 0.0
H28 H 0.60143 0.05551 0.10111 0.0
C29 C 0.56562 0.06899 0.10135 0.0
H30 H 0.54257 0.04336 0.09517 0.0
H31 H 0.47987 0.14861 0.08798 0.0
O32 O 0.45448 0.07694 0.17772 0.0
C33 C 0.39241 0.14372 0.1319 0.0
Co34 Co 0.41402 0.4447 0.6529 0.0
Co35 Co 0.41449 0.44427 0.61229 0.0
C36 C 0.48899 0.39798 0.63237 0.0
O37 O 0.47019 0.40984 0.64651 0.0
O38 O 0.47199 0.4102 0.61794 0.0
C39 C 0.45002 0.45427 0.68737 0.0
O40 O 0.49032 0.45253 0.67966 0.0
C41 C 0.44373 0.45961 0.57638 0.0
C42 C 0.37644 0.46429 0.56311 0.0
C43 C 0.42359 0.46685 0.56041 0.0
N44 N 0.40996 0.45321 0.588 0.0
N45 N 0.36987 0.45552 0.57993 0.0
C46 C 0.49388 0.46193 0.58082 0.0
H47 H 0.49837 0.47451 0.5942 0.0
H48 H 0.51267 0.48486 0.57177 0.0
H49 H 0.50884 0.42674 0.57994 0.0
C50 C 0.4098 0.54591 0.64666 0.0
N51 N 0.41077 0.50187 0.64105 0.0
N52 N 0.41021 0.50161 0.62413 0.0
C53 C 0.40817 0.54548 0.61842 0.0
C54 C 0.4081 0.57514 0.63247 0.0
C55 C 0.41458 0.55919 0.66517 0.0
H56 H 0.44589 0.54266 0.67056 0.0
H57 H 0.41737 0.59705 0.66692 0.0
H58 H 0.3844 0.54599 0.67245 0.0
O59 O 0.36097 0.40401 0.64715 0.0
O60 O 0.36356 0.40271 0.61863 0.0
H61 H 0.39762 0.59593 0.59812 0.0
H62 H 0.43765 0.54982 0.59326 0.0
C63 C 0.40488 0.55864 0.59984 0.0
H64 H 0.37659 0.53893 0.59371 0.0
H65 H 0.33792 0.45207 0.58601 0.0
O66 O 0.41342 0.45305 0.67834 0.0
C67 C 0.34603 0.38921 0.63276 0.0
Co68 Co 0.05595 0.4172 0.15259 0.0
Co69 Co 0.05743 0.41824 0.11203 0.0
C70 C 0.10206 0.49317 0.13261 0.0
O71 O 0.0907 0.47408 0.14675 0.0
O72 O 0.08966 0.47616 0.11822 0.0
C73 C 0.04492 0.45164 0.1872 0.0
O74 O 0.04658 0.49226 0.17971 0.0
C75 C 0.0365 0.44928 0.07687 0.0
C76 C 0.05356 0.38703 0.06175 0.0
C77 C 0.03778 0.43205 0.0601 0.0
N78 N 0.05082 0.41594 0.08765 0.0
N79 N 0.06112 0.37892 0.07852 0.0
C80 C 0.0197 0.49526 0.08298 0.0
H81 H 0.01092 0.49373 0.09687 0.0
H82 H 0.98896 0.50625 0.07552 0.0
H83 H 0.04747 0.52125 0.08127 0.0
C84 C 0.95493 0.41068 0.14574 0.0
N85 N -0.00088 0.4131 0.14038 0.0
N86 N 4e-05 0.41158 0.12346 0.0
C87 C 0.95664 0.40681 0.11754 0.0
C88 C 0.92645 0.40663 0.1314 0.0
C89 C 0.94064 0.41582 0.16413 0.0
H90 H 0.95798 0.44643 0.16975 0.0
H91 H 0.90281 0.41995 0.16551 0.0
H92 H 0.95211 0.38503 0.17147 0.0
O93 O 0.09761 0.36479 0.14678 0.0
O94 O 0.09946 0.36802 0.11827 0.0
H95 H 0.90968 0.38431 0.09761 0.0
H96 H 0.94416 0.43417 0.09243 0.0
C97 C 0.94432 0.40022 0.099 0.0
H98 H 0.97006 0.37765 0.09267 0.0
H99 H 0.07318 0.34802 0.08377 0.0
O100 O 0.04666 0.41538 0.17799 0.0
C101 C 0.11286 0.35036 0.13237 0.0
Co102 Co 0.07438 0.05394 0.65407 0.0
Co103 Co 0.07305 0.04946 0.61352 0.0
C104 C -0.00101 0.09806 0.63239 0.0
O105 O 0.01823 0.08772 0.64661 0.0
O106 O 0.01546 0.08413 0.6181 0.0
C107 C 0.05228 0.07703 0.68875 0.0
O108 O 0.03536 0.11416 0.68139 0.0
C109 C 0.04801 0.03632 0.57693 0.0
C110 C 0.11502 0.01507 0.56591 0.0
C111 C 0.06923 0.02275 0.56172 0.0
N112 N 0.07992 0.03671 0.5895 0.0
N113 N 0.11992 0.02431 0.58278 0.0
C114 C 0.99771 0.04481 0.57987 0.0
H115 H 0.98739 0.03125 0.59265 0.0
H116 H 0.97636 0.02826 0.56975 0.0
H117 H 0.99125 0.08256 0.57974 0.0
C118 C 0.08376 0.95319 0.6497 0.0
N119 N 0.07935 0.99601 0.64319 0.0
N120 N 0.07655 0.99358 0.62634 0.0
C121 C 0.07794 0.9488 0.62159 0.0
C122 C 0.08297 0.92165 0.63623 0.0
C123 C 0.09007 0.94321 0.66844 0.0
H124 H 0.11418 0.96873 0.67413 0.0
H125 H 0.05635 0.94662 0.67507 0.0
H126 H 0.10385 0.90794 0.67057 0.0
O127 O 0.12727 0.09383 0.64835 0.0
O128 O 0.12376 0.09253 0.61979 0.0
H129 H 0.10327 0.93493 0.59632 0.0
H130 H 0.05847 0.89591 0.60327 0.0
C131 C 0.07041 0.93229 0.60356 0.0
H132 H 0.04423 0.95411 0.59712 0.0
H133 H 0.15046 0.0213 0.58981 0.0
O134 O 0.07124 0.04632 0.67945 0.0
C135 C 0.14161 0.1074 0.63372 0.0
Co136 Co 0.44835 0.42515 0.85178 0.0
Co137 Co 0.44462 0.41634 0.89222 0.0
C138 C 0.40141 0.49619 0.87316 0.0
O139 O 0.41546 0.48191 0.8586 0.0
O140 O 0.41108 0.47441 0.88693 0.0
C141 C 0.42672 0.44372 0.81714 0.0
O142 O 0.38802 0.45651 0.82453 0.0
C143 C 0.46625 0.44378 0.92779 0.0
C144 C 0.43984 0.38419 0.94256 0.0
C145 C 0.46031 0.42712 0.94438 0.0
N146 N 0.45028 0.41198 0.91667 0.0
N147 N 0.43475 0.37636 0.92559 0.0
C148 C 0.48301 0.49064 0.92262 0.0
H149 H 0.46284 0.5175 0.92948 0.0
H150 H 0.47991 0.49557 0.90852 0.0
H151 H 0.51968 0.49481 0.92636 0.0
C152 C 0.54872 0.41622 0.85907 0.0
N153 N 0.50436 0.4178 0.86423 0.0
N154 N 0.50268 0.41256 0.88104 0.0
C155 C 0.5458 0.40604 0.88703 0.0
C156 C 0.57657 0.40861 0.87336 0.0
C157 C 0.5639 0.42513 0.84097 0.0
H158 H 0.54233 0.45267 0.83519 0.0
H159 H 0.60067 0.43566 0.84038 0.0
H160 H 0.5591 0.39321 0.83329 0.0
O161 O 0.40462 0.37328 0.85611 0.0
O162 O 0.40405 0.36589 0.88456 0.0
H163 H 0.59096 0.37692 0.9063 0.0
H164 H 0.55894 0.42712 0.9129 0.0
C165 C 0.55718 0.39476 0.90533 0.0
H166 H 0.5301 0.37227 0.91091 0.0
H167 H 0.41974 0.34708 0.92011 0.0
O168 O 0.45923 0.42818 0.82648 0.0
C169 C 0.39001 0.35362 0.86974 0.0
Co170 Co 0.07238 0.44629 0.35163 0.0
Co171 Co 0.07945 0.44238 0.39213 0.0
C172 C 0.00084 0.39842 0.3726 0.0
O173 O 0.01575 0.41322 0.35823 0.0
O174 O 0.0219 0.40758 0.38659 0.0
C175 C 0.05452 0.42469 0.31689 0.0
O176 O 0.04147 0.38591 0.32419 0.0
C177 C 0.0518 0.46288 0.42793 0.0
C178 C 0.11429 0.44199 0.44222 0.0
C179 C 0.07013 0.45932 0.4444 0.0
N180 N 0.08386 0.44861 0.41659 0.0
N181 N 0.12113 0.43633 0.42524 0.0
C182 C 0.00371 0.47649 0.42308 0.0
H183 H 0.00013 0.51451 0.42395 0.0
H184 H 0.97852 0.46069 0.43209 0.0
H185 H 0.99583 0.466 0.4097 0.0
C186 C 0.08014 0.54661 0.35889 0.0
N187 N 0.07863 0.50227 0.36409 0.0
N188 N 0.08304 0.50068 0.38093 0.0
C189 C 0.08905 0.54394 0.38691 0.0
C190 C 0.08698 0.57464 0.37319 0.0
C191 C 0.07183 0.56157 0.34072 0.0
H192 H 0.04481 0.53961 0.3348 0.0
H193 H 0.06085 0.59819 0.34003 0.0
H194 H 0.10411 0.55716 0.33323 0.0
O195 O 0.12446 0.4032 0.35623 0.0
O196 O 0.13073 0.4025 0.38472 0.0
H197 H 0.12282 0.52899 0.41083 0.0
H198 H 0.11655 0.58975 0.40634 0.0
C199 C 0.09967 0.55547 0.40526 0.0
H200 H 0.06717 0.55608 0.41275 0.0
H201 H 0.15111 0.42345 0.41955 0.0
O202 O 0.06996 0.4571 0.32632 0.0
C203 C 0.14376 0.38875 0.36995 0.0
Co204 Co 0.05224 0.07822 0.85277 0.0
Co205 Co 0.05467 0.08549 0.89333 0.0
C206 C 0.10153 0.00817 0.87357 0.0
O207 O 0.08694 0.02223 0.85904 0.0
O208 O 0.09123 0.02935 0.88743 0.0
C209 C 0.0435 0.0435 0.81806 0.0
O210 O 0.04853 0.00283 0.82529 0.0
C211 C 0.03489 0.05491 0.92905 0.0
C212 C 0.04415 0.12008 0.94336 0.0
C213 C 0.03282 0.07389 0.94557 0.0
N214 N 0.04643 0.0885 0.91785 0.0
N215 N 0.05196 0.12729 0.92653 0.0
C216 C 0.02769 0.00567 0.92387 0.0
H217 H 0.04151 -0.00086 0.91084 0.0
H218 H 0.99018 0.99807 0.92356 0.0
H219 H 0.04454 0.9821 0.93321 0.0
C220 C 0.95168 0.08318 0.85956 0.0
N221 N 0.99584 0.08284 0.86497 0.0
N222 N 0.99678 0.08734 0.8818 0.0
C223 C 0.95319 0.09183 0.88761 0.0
C224 C 0.92304 0.08906 0.87374 0.0
C225 C 0.93762 0.07448 0.84132 0.0
H226 H 0.94537 0.10557 0.8335 0.0
H227 H 0.95795 0.04533 0.83606 0.0
H228 H 0.90042 0.06609 0.84022 0.0
O229 O 0.09364 0.1309 0.85792 0.0
O230 O 0.09368 0.13836 0.88635 0.0
H231 H 0.96495 0.1266 0.91153 0.0
H232 H 0.90511 0.11451 0.90718 0.0
C233 C 0.94077 0.101 0.90598 0.0
H234 H 0.94358 0.06849 0.91342 0.0
H235 H 0.06104 0.15878 0.92094 0.0
O236 O 0.04255 0.0794 0.82746 0.0
C237 C 0.10748 0.15108 0.87153 0.0
Co238 Co 0.42169 0.05494 0.35103 0.0
Co239 Co 0.41856 0.05413 0.39153 0.0
C240 C 0.49514 0.10076 0.37241 0.0
O241 O 0.47812 0.08816 0.35806 0.0
O242 O 0.4762 0.08932 0.38659 0.0
C243 C 0.43567 0.08039 0.31647 0.0
O244 O 0.4454 0.12006 0.32383 0.0
C245 C 0.44312 0.04551 0.42844 0.0
C246 C 0.37803 0.01832 0.43923 0.0
C247 C 0.423 0.02964 0.44358 0.0
N248 N 0.41175 0.04256 0.41571 0.0
N249 N 0.3728 0.02682 0.42233 0.0
C250 C 0.49009 0.06608 0.42616 0.0
H251 H 0.48719 0.09826 0.41857 0.0
H252 H 0.51223 0.04158 0.41894 0.0
H253 H 0.50643 0.07473 0.43864 0.0
C254 C 0.41261 0.95469 0.35629 0.0
N255 N 0.41558 0.99799 0.36243 0.0
N256 N 0.41682 0.99684 0.37933 0.0
C257 C 0.41612 0.95231 0.38448 0.0
C258 C 0.41302 0.92406 0.37003 0.0
C259 C 0.40818 0.9434 0.33757 0.0
H260 H 0.38401 0.96796 0.33136 0.0
H261 H 0.44238 0.94722 0.33131 0.0
H262 H 0.39532 0.90772 0.33558 0.0
O263 O 0.36974 0.09607 0.35606 0.0
O264 O 0.3666 0.09552 0.38461 0.0
H265 H 0.38951 0.93812 0.40954 0.0
H266 H 0.43675 0.90131 0.40332 0.0
C267 C 0.42305 0.93702 0.40269 0.0
H268 H 0.44759 0.96041 0.40928 0.0
H269 H 0.34285 0.02093 0.4152 0.0
O270 O 0.42444 0.04626 0.32584 0.0
C271 C 0.35194 0.10991 0.37009 0.0
Co272 Co 0.55364 0.91783 0.85105 0.0
Co273 Co 0.55536 0.91581 0.89157 0.0
C274 C 0.60058 0.9919 0.87148 0.0
O275 O 0.5886 0.97446 0.85712 0.0
O276 O 0.5886 0.97339 0.88566 0.0
C277 C 0.54368 0.95219 0.81638 0.0
O278 O 0.54692 0.99301 0.82365 0.0
C279 C 0.53485 0.94469 0.92724 0.0
C280 C 0.55375 0.88166 0.94162 0.0
C281 C 0.53759 0.92629 0.94372 0.0
N282 N 0.54848 0.91219 0.91596 0.0
N283 N 0.55956 0.87461 0.92467 0.0
C284 C 0.52258 0.99315 0.92237 0.0
H285 H 0.53301 0.00068 0.90896 0.0
H286 H 0.48472 0.99789 0.92335 0.0
H287 H 0.53927 0.01794 0.93131 0.0
C288 C 0.45261 0.91235 0.85791 0.0
N289 N 0.49688 0.91342 0.86324 0.0
N290 N 0.49788 0.91057 0.88013 0.0
C291 C 0.45444 0.90621 0.88605 0.0
C292 C 0.42414 0.90777 0.87223 0.0
C293 C 0.4383 0.91947 0.83961 0.0
H294 H 0.44824 0.88872 0.83195 0.0
H295 H 0.45691 0.94967 0.83425 0.0
H296 H 0.40067 0.92535 0.83838 0.0
O297 O 0.59525 0.86513 0.85636 0.0
O298 O 0.597 0.86558 0.88489 0.0
H299 H 0.46733 0.87489 0.91059 0.0
H300 H 0.40707 0.88358 0.90583 0.0
C301 C 0.44214 0.8986 0.90453 0.0
H302 H 0.44304 0.93205 0.91143 0.0
H303 H 0.57171 0.84425 0.91903 0.0
O304 O 0.54407 0.91625 0.82577 0.0
C305 C 0.61044 0.84932 0.87056 0.0
Co306 Co 0.58457 0.55465 0.3515 0.0
Co307 Co 0.57981 0.55152 0.39201 0.0
C308 C 0.50763 0.59987 0.37175 0.0
O309 O 0.52791 0.58923 0.35775 0.0
O310 O 0.5229 0.58602 0.38622 0.0
C311 C 0.54995 0.54284 0.31698 0.0
O312 O 0.50965 0.53996 0.32464 0.0
C313 C 0.54854 0.53311 0.42755 0.0
C314 C 0.61469 0.53526 0.44162 0.0
C315 C 0.56762 0.52904 0.44399 0.0
N316 N 0.58283 0.54131 0.41628 0.0
N317 N 0.6222 0.54265 0.42479 0.0
C318 C 0.49938 0.52671 0.42215 0.0
H319 H 0.49728 0.51954 0.40815 0.0
H320 H 0.48335 0.49775 0.42934 0.0
H321 H 0.47984 0.55886 0.42479 0.0
C322 C 0.59304 0.45369 0.3565 0.0
N323 N 0.58818 0.49678 0.36271 0.0
N324 N 0.58522 0.49504 0.37958 0.0
C325 C 0.58747 0.45054 0.38465 0.0
C326 C 0.59263 0.42274 0.37016 0.0
C327 C 0.59953 0.44279 0.33784 0.0
H328 H 0.62334 0.46826 0.33195 0.0
H329 H 0.56577 0.44534 0.33118 0.0
H330 H 0.61374 0.40758 0.33599 0.0
O331 O 0.63691 0.5944 0.35803 0.0
O332 O 0.63136 0.59413 0.38651 0.0
H333 H 0.611 0.44713 0.41068 0.0
H334 H 0.57793 0.39719 0.40404 0.0
C335 C 0.58125 0.43514 0.40288 0.0
H336 H 0.54962 0.45098 0.4082 0.0
H337 H 0.65427 0.54861 0.41909 0.0
O338 O 0.5861 0.54805 0.32605 0.0
C339 C 0.65036 0.60834 0.37272 0.0
Co340 Co 0.94696 0.57302 0.85163 0.0
Co341 Co 0.94574 0.57736 0.89215 0.0
C342 C 0.9005 0.50006 0.87333 0.0
O343 O 0.91223 0.51723 0.85889 0.0
O344 O 0.91282 0.51881 0.88743 0.0
C345 C 0.92314 0.55536 0.81718 0.0
O346 O 0.88391 0.54512 0.82475 0.0
C347 C 0.96105 0.55204 0.92833 0.0
C348 C 0.96107 0.62032 0.94102 0.0
C349 C 0.96602 0.57352 0.94418 0.0
N350 N 0.95351 0.58468 0.91637 0.0
N351 N 0.95312 0.62537 0.92407 0.0
C352 C 0.96666 0.50187 0.9243 0.0
H353 H 0.97927 0.4974 0.91092 0.0
H354 H 0.991 0.48529 0.93342 0.0
H355 H 0.93263 0.48455 0.92543 0.0
C356 C 0.04787 0.58006 0.85816 0.0
N357 N 0.00376 0.5786 0.86363 0.0
N358 N 0.00311 0.5812 0.88053 0.0
C359 C 0.04671 0.58518 0.88633 0.0
C360 C 0.07665 0.58434 0.87239 0.0
C361 C 0.06181 0.57393 0.83977 0.0
H362 H 0.04208 0.54494 0.83403 0.0
H363 H 0.09925 0.56688 0.83847 0.0
H364 H 0.05306 0.60571 0.83249 0.0
O365 O 0.90555 0.62645 0.85609 0.0
O366 O 0.90382 0.62656 0.88464 0.0
H367 H 0.0379 0.61921 0.91051 0.0
H368 H 0.09607 0.60094 0.90651 0.0
C369 C 0.05928 0.59142 0.90487 0.0
H370 H 0.0522 0.55895 0.91196 0.0
H371 H 0.94822 0.65669 0.91768 0.0
O372 O 0.95683 0.56896 0.82636 0.0
C373 C 0.8903 0.64248 0.87025 0.0
Co374 Co 0.92017 0.94348 0.35095 0.0
Co375 Co 0.92336 0.94817 0.39146 0.0
C376 C 0.99639 0.89922 0.37201 0.0
O377 O 0.9765 0.90887 0.35784 0.0
O378 O 0.98069 0.91408 0.38628 0.0
C379 C 0.95777 0.96161 0.31754 0.0
O380 O 0.9948 0.97227 0.32645 0.0
C381 C 0.95263 0.96616 0.42726 0.0
C382 C 0.88537 0.96828 0.44059 0.0
C383 C 0.9325 0.97198 0.44342 0.0
N384 N 0.91887 0.9593 0.41565 0.0
N385 N 0.87882 0.96051 0.42372 0.0
C386 C 0.00248 0.97022 0.42245 0.0
H387 H 0.01982 0.93662 0.42471 0.0
H388 H 0.00604 0.97897 0.40863 0.0
H389 H 0.01975 0.99715 0.43031 0.0
C390 C 0.90966 0.04477 0.35557 0.0
N391 N 0.91556 0.00186 0.36189 0.0
N392 N 0.91836 0.00405 0.37876 0.0
C393 C 0.91535 0.04856 0.3837 0.0
C394 C 0.90944 0.07596 0.36917 0.0
C395 C 0.90213 0.05528 0.33694 0.0
H396 H 0.8809 0.02779 0.33095 0.0
H397 H 0.93599 0.05638 0.3303 0.0
H398 H 0.88465 0.08904 0.33522 0.0
O399 O 0.86744 0.90385 0.35722 0.0
O400 O 0.87236 0.90513 0.38573 0.0
H401 H 0.89035 0.05526 0.40944 0.0
H402 H 0.92748 0.10217 0.40274 0.0
C403 C 0.92149 0.06447 0.40188 0.0
H404 H 0.9515 0.04672 0.40765 0.0
H405 H 0.84694 0.9561 0.41769 0.0
O406 O 0.92142 0.94933 0.32548 0.0
C407 C 0.85372 0.89036 0.37194 0.0
Co408 Co 0.55525 0.56965 0.15258 0.0
Co409 Co 0.557 0.57902 0.11209 0.0
C410 C 0.60287 0.49992 0.13101 0.0
O411 O 0.58853 0.51329 0.14565 0.0
O412 O 0.59284 0.52212 0.11736 0.0
C413 C 0.57703 0.55076 0.18734 0.0
O414 O 0.61547 0.53678 0.18006 0.0
C415 C 0.53586 0.55068 0.07634 0.0
C416 C 0.54792 0.61576 0.06225 0.0
C417 C 0.5347 0.57014 0.05992 0.0
N418 N 0.54869 0.58348 0.08766 0.0
N419 N 0.55587 0.62224 0.07912 0.0
C420 C 0.52691 0.50152 0.08129 0.0
H421 H 0.5415 0.49373 0.0941 0.0
H422 H 0.48916 0.49556 0.08198 0.0
H423 H 0.54185 0.4777 0.07159 0.0
C424 C 0.45459 0.57673 0.14603 0.0
N425 N 0.49869 0.5759 0.14054 0.0
N426 N 0.49944 0.58122 0.12373 0.0
C427 C 0.4559 0.58694 0.11805 0.0
C428 C 0.42588 0.58392 0.13194 0.0
C429 C 0.44053 0.56755 0.16423 0.0
H430 H 0.46255 0.54004 0.16979 0.0
H431 H 0.40386 0.55682 0.16512 0.0
H432 H 0.44567 0.5994 0.17193 0.0
O433 O 0.59779 0.62216 0.14783 0.0
O434 O 0.5966 0.63076 0.11941 0.0
H435 H 0.46854 0.62291 0.09441 0.0
H436 H 0.40837 0.6129 0.09887 0.0
C437 C 0.44349 0.5979 0.09981 0.0
H438 H 0.44479 0.56584 0.09204 0.0
H439 H 0.56628 0.65316 0.08481 0.0
O440 O 0.54507 0.567 0.1779 0.0
C441 C 0.61124 0.64267 0.1342 0.0
Co442 Co 0.91028 0.55385 0.65312 0.0
Co443 Co 0.91789 0.55024 0.61259 0.0
C444 C 0.98875 0.59866 0.63339 0.0
O445 O 0.96726 0.58831 0.64716 0.0
O446 O 0.97461 0.58471 0.61876 0.0
C447 C 0.9441 0.54032 0.68751 0.0
O448 O 0.98384 0.53436 0.67969 0.0
C449 C 0.94748 0.53837 0.57614 0.0
C450 C 0.88182 0.51614 0.56428 0.0
C451 C 0.92789 0.5243 0.56064 0.0
N452 N 0.91455 0.53761 0.58837 0.0
N453 N 0.87539 0.52465 0.58112 0.0
C454 C 0.9957 0.55495 0.57919 0.0
H455 H 0.995 0.58611 0.58741 0.0
H456 H 0.01542 0.52774 0.58603 0.0
H457 H 0.01341 0.56385 0.56699 0.0
C458 C 0.90269 0.45275 0.64825 0.0
N459 N 0.90759 0.49588 0.64204 0.0
N460 N 0.91272 0.49404 0.62525 0.0
C461 C 0.91257 0.44941 0.62028 0.0
C462 C 0.9057 0.42169 0.63467 0.0
C463 C 0.89382 0.44189 0.66677 0.0
H464 H 0.87043 0.46815 0.67239 0.0
H465 H 0.92695 0.44295 0.67391 0.0
H466 H 0.87812 0.40718 0.6683 0.0
O467 O 0.8583 0.59321 0.64611 0.0
O468 O 0.86594 0.59304 0.61769 0.0
H469 H 0.89155 0.43562 0.59445 0.0
H470 H 0.93605 0.39749 0.60225 0.0
C471 C 0.92328 0.43358 0.60239 0.0
H472 H 0.94996 0.45615 0.5966 0.0
H473 H 0.84427 0.52109 0.58775 0.0
O474 O 0.90815 0.54783 0.67856 0.0
C475 C 0.84593 0.60719 0.6313 0.0
Co476 Co 0.94617 0.91997 0.15411 0.0
Co477 Co 0.94712 0.91657 0.11353 0.0
C478 C 0.90086 0.99332 0.13271 0.0
O479 O 0.91315 0.97667 0.14716 0.0
O480 O 0.91241 0.97398 0.11864 0.0
C481 C 0.96392 0.95843 0.1876 0.0
O482 O 0.97225 0.99633 0.17885 0.0
C483 C 0.96579 0.94662 0.07793 0.0
C484 C 0.95702 0.88151 0.06349 0.0
C485 C 0.96665 0.92802 0.06149 0.0
N486 N 0.95637 0.91254 0.08917 0.0
N487 N 0.95131 0.87371 0.08043 0.0
C488 C 0.96987 0.99642 0.08281 0.0
H489 H 0.93613 0.01356 0.08065 0.0
H490 H 0.97911 -0.00017 0.0966 0.0
H491 H 0.99599 0.01422 0.07478 0.0
C492 C 0.04675 0.90954 0.14861 0.0
N493 N 0.00337 0.91337 0.1426 0.0
N494 N 0.00427 0.91334 0.12567 0.0
C495 C 0.04851 0.91027 0.12037 0.0
C496 C 0.07702 0.90771 0.13476 0.0
C497 C 0.05869 0.90618 0.16729 0.0
H498 H 0.03295 0.88437 0.17403 0.0
H499 H 0.05785 0.94119 0.17306 0.0
H500 H 0.09354 0.89117 0.16918 0.0
O501 O 0.90449 0.86827 0.14874 0.0
O502 O 0.90544 0.86478 0.1202 0.0
H503 H 0.04846 0.88407 0.09466 0.0
H504 H 0.10094 0.91432 0.10037 0.0
C505 C 0.06298 0.91365 0.10193 0.0
H506 H 0.04886 0.94581 0.09633 0.0
H507 H 0.94322 0.84195 0.08602 0.0
O508 O 0.95345 0.92169 0.17953 0.0
C509 C 0.89074 0.85036 0.13469 0.0
Co510 Co 0.5778 0.94384 0.65247 0.0
Co511 Co 0.57523 0.94851 0.612 0.0
C512 C 0.50155 0.90004 0.63134 0.0
O513 O 0.52113 0.90994 0.64554 0.0
O514 O 0.51774 0.91445 0.61709 0.0
C515 C 0.55846 0.91953 0.68713 0.0
O516 O 0.54327 0.88174 0.67969 0.0
C517 C 0.54542 0.96625 0.57638 0.0
C518 C 0.61228 0.96866 0.56272 0.0
C519 C 0.5651 0.97198 0.56024 0.0
N520 N 0.57955 0.9602 0.58788 0.0
N521 N 0.61939 0.96177 0.57963 0.0
C522 C 0.49526 0.96261 0.58077 0.0
H523 H 0.4866 0.92574 0.58291 0.0
H524 H 0.48822 0.98135 0.59294 0.0
H525 H 0.47287 0.97602 0.57037 0.0
C526 C 0.58723 0.04481 0.64801 0.0
N527 N 0.58258 0.00196 0.64154 0.0
N528 N 0.58001 0.00435 0.62469 0.0
C529 C 0.58203 0.04904 0.61987 0.0
C530 C 0.58694 0.07629 0.63451 0.0
C531 C 0.59324 0.05489 0.66675 0.0
H532 H 0.61755 0.02965 0.67249 0.0
H533 H 0.55949 0.05105 0.67335 0.0
H534 H 0.60664 0.09031 0.6689 0.0
O535 O 0.63032 0.90372 0.64634 0.0
O536 O 0.62614 0.90538 0.6178 0.0
H537 H 0.60647 0.05641 0.59408 0.0
H538 H 0.56899 0.10279 0.60097 0.0
C539 C 0.57537 0.06514 0.60174 0.0
H540 H 0.54547 0.04701 0.596 0.0
H541 H 0.65147 0.95764 0.58554 0.0
O542 O 0.5757 0.95133 0.67786 0.0
C543 C 0.64432 0.89032 0.63163 0.0
H544 H 0.49281 0.09677 0.20648 0.0
H545 H 0.35979 0.03009 0.21065 0.0
H546 H 0.49871 0.09882 0.2378 0.0
H547 H 0.36559 0.03256 0.2419 0.0
H548 H 0.41194 0.00518 0.2971 0.0
H549 H 0.41096 -0.00096 0.2658 0.0
H550 H 0.45971 0.13958 0.26173 0.0
H551 H 0.46119 0.14567 0.29298 0.0
C552 C 0.4649 0.08247 0.21407 0.0
C553 C 0.42574 0.06342 0.20609 0.0
C554 C 0.4682 0.08385 0.23199 0.0
C555 C 0.43258 0.06592 0.24229 0.0
C556 C 0.39381 0.0462 0.2343 0.0
C557 C 0.39037 0.04507 0.21639 0.0
C558 C 0.42264 0.03471 0.28953 0.0
C559 C 0.43648 0.07599 0.29753 0.0
C560 C 0.42188 0.03124 0.27161 0.0
C561 C 0.43517 0.06886 0.26132 0.0
C562 C 0.44975 0.10984 0.26932 0.0
C563 C 0.45031 0.1134 0.28723 0.0
H564 H 0.49637 0.40974 0.79686 0.0
H565 H 0.36834 0.48579 0.79458 0.0
H566 H 0.50242 0.41344 0.76557 0.0
H567 H 0.37511 0.49092 0.7635 0.0
H568 H 0.37296 0.44629 0.70742 0.0
H569 H 0.36857 0.44417 0.73864 0.0
H570 H 0.51619 0.46381 0.74174 0.0
H571 H 0.52072 0.46435 0.71043 0.0
C572 C 0.46973 0.42757 0.7897 0.0
C573 C 0.43173 0.44719 0.79821 0.0
C574 C 0.47332 0.42997 0.77175 0.0
C575 C 0.43914 0.45232 0.76193 0.0
C576 C 0.40162 0.47261 0.77055 0.0
C577 C 0.39787 0.46991 0.78843 0.0
C578 C 0.40448 0.45035 0.71475 0.0
C579 C 0.44719 0.45545 0.70641 0.0
C580 C 0.40196 0.44937 0.7327 0.0
C581 C 0.44203 0.45387 0.74279 0.0
C582 C 0.48471 0.45953 0.73442 0.0
C583 C 0.48727 0.46019 0.71644 0.0
H584 H 0.08812 0.49512 0.29687 0.0
H585 H 0.01338 0.36624 0.29408 0.0
H586 H 0.08456 0.50192 0.2656 0.0
H587 H 0.0084 0.37374 0.26301 0.0
H588 H 0.05329 0.3739 0.2069 0.0
H589 H 0.05519 0.36849 0.23811 0.0
H590 H 0.03403 0.51585 0.24186 0.0
H591 H 0.0337 0.52142 0.21057 0.0
C592 C 0.07063 0.46843 0.2896 0.0
C593 C 0.0513 0.43 0.29797 0.0
C594 C 0.0683 0.47245 0.27167 0.0
C595 C 0.04632 0.43828 0.26171 0.0
C596 C 0.02639 0.40027 0.27018 0.0
C597 C 0.02901 0.3961 0.28805 0.0
C598 C 0.04884 0.40515 0.21437 0.0
C599 C 0.0434 0.4481 0.20622 0.0
C600 C 0.04969 0.40203 0.23231 0.0
C601 C 0.04476 0.44174 0.24258 0.0
C602 C 0.03868 0.48464 0.2344 0.0
C603 C 0.03814 0.48779 0.21644 0.0
H604 H 0.04509 0.12267 0.79897 0.0
H605 H 0.03765 0.97422 0.79422 0.0
H606 H 0.04641 0.1299 0.76783 0.0
H607 H 0.03741 0.9815 0.76298 0.0
H608 H 0.09161 0.00953 0.70856 0.0
H609 H 0.08774 0.00113 0.73972 0.0
H610 H 0.00048 0.12185 0.74268 0.0
H611 H 0.00567 0.13109 0.71164 0.0
C612 C 0.04317 0.09156 0.79128 0.0
C613 C 0.04139 0.04785 0.7991 0.0
C614 C 0.04368 0.09572 0.77338 0.0
C615 C 0.04207 0.05628 0.76283 0.0
C616 C 0.03947 0.01258 0.77068 0.0
C617 C 0.03927 0.00841 0.7886 0.0
C618 C 0.07161 0.03427 0.71588 0.0
C619 C 0.04917 0.07113 0.70763 0.0
C620 C 0.0691 0.02927 0.73374 0.0
C621 C 0.04382 0.06084 0.74376 0.0
C622 C 0.02091 0.09734 0.73544 0.0
C623 C 0.02369 0.10251 0.7176 0.0
H624 H 0.53558 0.02118 0.79251 0.0
H625 H 0.54963 0.87324 0.79732 0.0
H626 H 0.53705 0.01396 0.76127 0.0
H627 H 0.55269 0.86614 0.7662 0.0
H628 H 0.51408 0.86307 0.70984 0.0
H629 H 0.50748 0.87198 0.74084 0.0
H630 H 0.58911 0.99677 0.73827 0.0
H631 H 0.59433 0.98865 0.70712 0.0
C632 C 0.539 0.98712 0.78691 0.0
C633 C 0.54246 0.9478 0.79742 0.0
C634 C 0.5402 0.983 0.76899 0.0
C635 C 0.54517 0.93948 0.76117 0.0
C636 C 0.54813 0.90014 0.77173 0.0
C637 C 0.5466 0.90424 0.78961 0.0
C638 C 0.5306 0.89245 0.71587 0.0
C639 C 0.55485 0.92508 0.70601 0.0
C640 C 0.52701 0.89745 0.73369 0.0
C641 C 0.54789 0.93501 0.74211 0.0
C642 C 0.57202 0.96776 0.73221 0.0
C643 C 0.57532 0.96294 0.71435 0.0
H644 H 0.48009 0.53082 0.29367 0.0
H645 H 0.62725 0.55292 0.2972 0.0
H646 H 0.48555 0.53093 0.26235 0.0
H647 H 0.63251 0.55433 0.266 0.0
H648 H 0.63496 0.50959 0.21031 0.0
H649 H 0.62723 0.5054 0.2414 0.0
H650 H 0.4996 0.58208 0.23845 0.0
H651 H 0.50668 0.58505 0.20718 0.0
C652 C 0.51359 0.53575 0.28778 0.0
C653 C 0.55323 0.54179 0.29796 0.0
C654 C 0.51667 0.53615 0.26981 0.0
C655 C 0.55946 0.54267 0.26161 0.0
C656 C 0.59909 0.5485 0.27184 0.0
C657 C 0.59603 0.54795 0.28977 0.0
C658 C 0.60517 0.52551 0.21626 0.0
C659 C 0.57154 0.54784 0.20625 0.0
C660 C 0.60086 0.52332 0.23414 0.0
C661 C 0.56295 0.54366 0.24249 0.0
C662 C 0.52899 0.56558 0.23245 0.0
C663 C 0.53318 0.56755 0.21453 0.0
H664 H 0.01327 0.52217 0.71053 0.0
H665 H 0.86894 0.55867 0.70758 0.0
H666 H 0.00906 0.52399 0.74186 0.0
H667 H 0.86507 0.56179 0.73879 0.0
H668 H 0.86039 0.51947 0.79474 0.0
H669 H 0.86638 0.5135 0.76364 0.0
H670 H 0.00118 0.57721 0.76551 0.0
H671 H 0.99572 0.58193 0.7968 0.0
C672 C 0.98066 0.53064 0.71656 0.0
C673 C 0.94143 0.5402 0.70654 0.0
C674 C 0.97833 0.532 0.73453 0.0
C675 C 0.93674 0.54307 0.74289 0.0
C676 C 0.8975 0.55242 0.73283 0.0
C677 C 0.89978 0.55087 0.71489 0.0
C678 C 0.89139 0.53215 0.78855 0.0
C679 C 0.92751 0.55135 0.79826 0.0
C680 C 0.89471 0.52895 0.77067 0.0
C681 C 0.93413 0.54513 0.76201 0.0
C682 C 0.97052 0.56392 0.77176 0.0
C683 C 0.9673 0.5669 0.78969 0.0
H684 H 0.02685 0.99337 0.29665 0.0
H685 H 0.8909 0.93208 0.29528 0.0
H686 H 0.02937 0.99265 0.26526 0.0
H687 H 0.89343 0.93164 0.26393 0.0
H688 H 0.9379 0.88937 0.20954 0.0
H689 H 0.93684 0.89098 0.24089 0.0
H690 H 0.99071 0.03 0.24021 0.0
H691 H 0.99203 0.02842 0.20881 0.0
C692 C 0.99744 0.9799 0.28967 0.0
C693 C 0.95872 0.96268 0.29849 0.0
C694 C -0.00117 0.97969 0.27168 0.0
C695 C 0.96169 0.96192 0.26212 0.0
C696 C 0.92284 0.94501 0.27094 0.0
C697 C 0.92129 0.94555 0.28891 0.0
C698 C 0.9497 0.92024 0.21605 0.0
C699 C 0.96497 0.95881 0.20666 0.0
C700 C 0.94879 0.92125 0.23402 0.0
C701 C 0.96347 0.9607 0.24302 0.0
C702 C 0.97948 -0.00101 0.23365 0.0
C703 C 0.98005 0.99813 0.21566 0.0
H704 H 0.50611 0.98069 0.0527 0.0
H705 H 0.4597 0.10685 0.02875 0.0
H706 H 0.51909 0.94671 0.02453 0.0
H707 H 0.47551 0.07399 1.00046 0.0
H708 H 0.46563 0.98349 0.95221 0.0
H709 H 0.44908 0.01746 0.98022 0.0
H710 H 0.57091 0.95211 1.00109 0.0
H711 H 0.58677 0.91765 0.97315 0.0
C712 C 0.49784 0.00089 0.0414 0.0
C713 C 0.48037 0.04589 0.04293 0.0
C714 C 0.50627 0.98177 0.02522 0.0
C715 C 0.49833 0.00756 0.01017 0.0
C716 C 0.48126 0.05281 0.01174 0.0
C717 C 0.4725 0.07178 0.02794 0.0
C718 C 0.48932 0.97717 0.96269 0.0
C719 C 0.52795 0.94861 0.96043 0.0
C720 C 0.47973 0.99646 0.97879 0.0
C721 C 0.50863 0.98757 0.99296 0.0
C722 C 0.54741 0.9591 0.99059 0.0
C723 C 0.55672 0.93957 0.97455 0.0
H724 H 0.60891 0.49495 0.47269 0.0
H725 H 0.47687 0.54393 0.45443 0.0
H726 H 0.57586 0.48193 0.50087 0.0
H727 H 0.44276 0.52626 0.48194 0.0
H728 H 0.4011 0.53406 0.5377 0.0
H729 H 0.43635 0.55015 0.50992 0.0
H730 H 0.52941 0.43499 0.51734 0.0
H731 H 0.49571 0.42127 0.54561 0.0
C732 C 0.57256 0.50213 0.47451 0.0
C733 C 0.54551 0.51939 0.46092 0.0
C734 C 0.55339 0.49409 0.49072 0.0
C735 C 0.50632 0.50248 0.49382 0.0
C736 C 0.47923 0.5197 0.48022 0.0
C737 C 0.49869 0.52871 0.46411 0.0
C738 C 0.42937 0.51254 0.53336 0.0
C739 C 0.44608 0.47679 0.5438 0.0
C740 C 0.44936 0.52138 0.51735 0.0
C741 C 0.48577 0.49378 0.51116 0.0
C742 C 0.50219 0.45772 0.5217 0.0
C743 C 0.48284 0.44963 0.53791 0.0
H744 H 0.02704 0.6037 0.9681 0.0
H745 H 0.92639 0.49706 0.95849 0.0
H746 H 0.04398 0.56991 0.99608 0.0
H747 H 0.94137 0.4642 0.9868 0.0
H748 H 0.01153 0.38889 0.03069 0.0
H749 H 0.99486 0.42252 0.00284 0.0
H750 H 0.01704 0.55889 0.0239 0.0
H751 H 0.03781 0.525 0.05125 0.0
C752 C 0.00835 0.5731 0.97208 0.0
C753 C 0.97597 0.55253 0.96108 0.0
C754 C 0.01771 0.55389 0.98819 0.0
C755 C 0.99408 0.51418 0.99383 0.0
C756 C 0.96108 0.4941 0.98281 0.0
C757 C 0.95237 0.51291 0.96657 0.0
C758 C 0.01293 0.4261 0.02941 0.0
C759 C 0.02505 0.45411 0.04349 0.0
C760 C 0.00282 0.4455 0.01341 0.0
C761 C 0.00413 0.4936 0.01102 0.0
C762 C 0.016 0.52168 0.02513 0.0
C763 C 0.02687 0.50217 0.04108 0.0
H764 H 0.00946 0.07933 0.54459 0.0
H765 H 0.08367 0.95093 0.54005 0.0
H766 H 0.97799 0.06867 0.51576 0.0
H767 H 0.05073 0.93873 0.51159 0.0
H768 H 0.01929 0.94694 0.45517 0.0
H769 H 0.05282 0.96226 0.4831 0.0
H770 H 0.92544 0.02638 0.49941 0.0
H771 H 0.89344 0.01474 0.4709 0.0
C772 C 0.01831 0.04839 0.5375 0.0
C773 C 0.04855 0.0157 0.54456 0.0
C774 C 0.00025 0.04214 0.52097 0.0
C775 C 0.01162 0.00273 0.51122 0.0
C776 C 0.0418 0.96997 0.51846 0.0
C777 C 0.06043 0.97668 0.53485 0.0
C778 C -0.00109 0.96583 0.46441 0.0
C779 C 0.95406 0.9809 0.46047 0.0
C780 C 0.01783 0.97364 0.4807 0.0
C781 C 0.99201 0.99568 0.49366 0.0
C782 C 0.94691 0.0102 0.48975 0.0
C783 C 0.92831 0.00304 0.47339 0.0
H784 H 0.56518 0.5972 0.02842 0.0
H785 H 0.4764 0.49658 0.05268 0.0
H786 H 0.54617 0.56511 1.00044 0.0
H787 H 0.46081 0.46194 0.02502 0.0
H788 H 0.40372 0.43572 0.97191 0.0
H789 H 0.42056 0.47162 0.99955 0.0
H790 H 0.55886 0.50271 0.98204 0.0
H791 H 0.54083 0.46849 0.95419 0.0
C792 C 0.54221 0.56772 0.02787 0.0
C793 C 0.52352 0.5488 0.043 0.0
C794 C 0.53166 0.54895 0.01177 0.0
C795 C 0.50226 0.51047 0.01035 0.0
C796 C 0.48332 0.49175 0.02549 0.0
C797 C 0.49332 0.51101 0.04156 0.0
C798 C 0.43755 0.45062 0.974 0.0
C799 C 0.47072 0.45009 0.96088 0.0
C800 C 0.44745 0.47087 0.9899 0.0
C801 C 0.49122 0.49013 0.99318 0.0
C802 C 0.52446 0.48926 0.97995 0.0
C803 C 0.5142 0.46969 0.96394 0.0
H804 H 0.01417 0.48985 0.55362 0.0
H805 H 0.88992 0.5393 0.52919 0.0
H806 H 0.04886 0.47677 0.52555 0.0
H807 H 0.92339 0.52345 0.50104 0.0
H808 H 0.01421 0.53223 0.45305 0.0
H809 H 0.98046 0.54902 0.48106 0.0
H810 H 0.04388 0.42598 0.50182 0.0
H811 H 0.07818 0.40989 0.47386 0.0
C812 C 0.99456 0.49876 0.54225 0.0
C813 C 0.94986 0.51707 0.54363 0.0
C814 C 0.01407 0.49029 0.52611 0.0
C815 C 0.98901 0.49911 0.51096 0.0
C816 C 0.94408 0.51703 0.51239 0.0
C817 C 0.92473 0.5258 0.52853 0.0
C818 C 0.02019 0.50834 0.46351 0.0
C819 C 0.04813 0.46927 0.46118 0.0
C820 C 0.00102 0.51806 0.47962 0.0
C821 C 0.00932 0.48886 0.49376 0.0
C822 C 0.0373 0.44971 0.49134 0.0
C823 C 0.05673 0.44027 0.47528 0.0
H824 H 0.05819 0.10475 0.97723 0.0
H825 H 0.98123 0.99495 0.95285 0.0
H826 H 0.04049 0.07214 0.00518 0.0
H827 H 0.96747 0.96001 0.98054 0.0
H828 H 0.91109 0.92869 0.03345 0.0
H829 H 0.92548 0.96513 0.00568 0.0
H830 H 0.05797 0.01303 0.02419 0.0
H831 H 0.04194 0.97841 0.05216 0.0
C832 C 0.03818 0.07318 0.97773 0.0
C833 C 0.02246 0.052 0.96252 0.0
C834 C 0.02841 0.05411 0.99384 0.0
C835 C 0.00293 0.01294 0.99528 0.0
C836 C 0.98692 0.9919 0.98009 0.0
C837 C 0.99599 0.01147 0.96398 0.0
C838 C 0.94301 0.9475 0.03153 0.0
C839 C 0.97505 0.95158 0.04495 0.0
C840 C 0.95159 0.96804 0.01557 0.0
C841 C 0.99305 0.99216 0.01252 0.0
C842 C 0.02521 0.99578 0.02606 0.0
C843 C 0.01615 0.97593 0.04212 0.0
H844 H 0.57911 0.9243 0.53076 0.0
H845 H 0.5015 0.03771 0.55199 0.0
H846 H 0.54389 0.93759 0.50271 0.0
H847 H 0.46717 0.05243 0.52383 0.0
H848 H 0.38169 0.03924 0.47477 0.0
H849 H 0.41442 0.02399 0.5031 0.0
H850 H 0.54468 0.98875 0.47939 0.0
H851 H 0.51081 0.00062 0.45117 0.0
C852 C 0.55439 0.95209 0.52935 0.0
C853 C 0.54223 0.97941 0.54352 0.0
C854 C 0.53446 0.96004 0.51327 0.0
C855 C 0.50263 0.99621 0.51091 0.0
C856 C 0.49077 0.02371 0.52518 0.0
C857 C 0.51034 0.01532 0.54133 0.0
C858 C 0.41735 0.02832 0.47566 0.0
C859 C 0.44408 0.02261 0.46075 0.0
C860 C 0.43627 0.01991 0.49191 0.0
C861 C 0.4824 0.00547 0.49362 0.0
C862 C 0.50896 -0.0005 0.47863 0.0
C863 C 0.48986 0.00742 0.4624 0.0
H864 H 0.63816 0.13211 0.11325 0.0
H865 H 0.63212 0.03675 0.15584 0.0
H866 H 0.72264 0.12652 0.1132 0.0
H867 H 0.71586 0.03202 0.15611 0.0
H868 H 0.86431 0.03992 0.16013 0.0
H869 H 0.78852 0.07603 0.16102 0.0
H870 H 0.7769 0.0619 0.10592 0.0
H871 H 0.85285 0.02624 0.10491 0.0
C872 C 0.65496 0.11039 0.1227 0.0
C873 C 0.62871 0.08481 0.13455 0.0
C874 C 0.70318 0.1074 0.12272 0.0
C875 C 0.72591 0.0792 0.13475 0.0
C876 C 0.69951 0.05491 0.14694 0.0
C877 C 0.65148 0.05751 0.14677 0.0
C878 C 0.84637 0.0459 0.14811 0.0
C879 C 0.8641 0.02889 0.1325 0.0
C880 C 0.8028 0.06638 0.14866 0.0
C881 C 0.77628 0.07051 0.13361 0.0
C882 C 0.79642 0.05896 0.11775 0.0
C883 C 0.84003 0.0384 0.11719 0.0
H884 H 0.46163 0.85673 0.65897 0.0
H885 H 0.46354 0.85705 0.60336 0.0
H886 H 0.42754 0.77981 0.6587 0.0
H887 H 0.42926 0.78032 0.60321 0.0
H888 H 0.46873 0.62642 0.61416 0.0
H889 H 0.47535 0.71013 0.61297 0.0
H890 H 0.3634 0.72303 0.6493 0.0
H891 H 0.3558 0.63842 0.65003 0.0
C892 C 0.45329 0.84122 0.64668 0.0
C893 C 0.46663 0.86258 0.63119 0.0
C894 C 0.43363 0.79711 0.64656 0.0
C895 C 0.42698 0.77372 0.63094 0.0
C896 C 0.43498 0.79732 0.61544 0.0
C897 C 0.45439 0.84146 0.61555 0.0
C898 C 0.44497 0.64713 0.62165 0.0
C899 C 0.4116 0.6261 0.6321 0.0
C900 C 0.4486 0.69504 0.62092 0.0
C901 C 0.41938 0.72311 0.63084 0.0
C902 C 0.38614 0.70216 0.64146 0.0
C903 C 0.38203 0.65394 0.64196 0.0
H904 H 0.86342 0.35507 0.14949 0.0
H905 H 0.87492 0.46313 0.11153 0.0
H906 H 0.77887 0.3615 0.14839 0.0
H907 H 0.79145 0.46908 0.11017 0.0
H908 H 0.64469 0.46392 0.10243 0.0
H909 H 0.72057 0.42792 0.10163 0.0
H910 H 0.72223 0.42196 0.1571 0.0
H911 H 0.64609 0.45704 0.15798 0.0
C912 C 0.8478 0.37996 0.14088 0.0
C913 C 0.87549 0.40864 0.1306 0.0
C914 C 0.79959 0.38343 0.14016 0.0
C915 C 0.77847 0.41531 0.12901 0.0
C916 C 0.80648 0.44328 0.11855 0.0
C917 C 0.85435 0.44009 0.11939 0.0
C918 C 0.66046 0.45351 0.11445 0.0
C919 C 0.63989 0.46469 0.13028 0.0
C920 C 0.70409 0.43311 0.11398 0.0
C921 C 0.72792 0.4235 0.12932 0.0
C922 C 0.7049 0.42922 0.14507 0.0
C923 C 0.66117 0.44952 0.14554 0.0
H924 H 0.02892 0.63575 0.66208 0.0
H925 H 0.02762 0.64655 0.60663 0.0
H926 H 0.06555 0.71126 0.66394 0.0
H927 H 0.06364 0.72216 0.60857 0.0
H928 H 0.13295 0.86017 0.61713 0.0
H929 H 0.12639 0.77572 0.61726 0.0
H930 H 0.02539 0.78464 0.658 0.0
H931 H 0.03145 0.86836 0.65761 0.0
C932 C 0.03767 0.65351 0.65025 0.0
C933 C 0.02415 0.63558 0.63421 0.0
C934 C 0.05844 0.69693 0.65135 0.0
C935 C 0.06624 0.72318 0.63643 0.0
C936 C 0.05792 0.70288 0.62031 0.0
C937 C 0.03715 0.6594 0.61921 0.0
C938 C 0.10967 0.84381 0.62617 0.0
C939 C 0.08261 0.87064 0.63733 0.0
C940 C 0.10606 0.79561 0.62629 0.0
C941 C 0.07563 0.77347 0.63771 0.0
C942 C 0.04993 0.80047 0.6493 0.0
C943 C 0.05327 0.84849 0.64906 0.0
H944 H 0.63824 0.36144 0.85322 0.0
H945 H 0.62967 0.4573 0.89556 0.0
H946 H 0.72275 0.36675 0.854 0.0
H947 H 0.71324 0.46247 0.89649 0.0
H948 H 0.86119 0.45884 0.90149 0.0
H949 H 0.78537 0.42261 0.90235 0.0
H950 H 0.77861 0.42713 0.84689 0.0
H951 H 0.85468 0.46215 0.84595 0.0
C952 C 0.65451 0.38333 0.86275 0.0
C953 C 0.62758 0.40901 0.87432 0.0
C954 C 0.70275 0.38622 0.86325 0.0
C955 C 0.72481 0.41469 0.8754 0.0
C956 C 0.69759 0.43928 0.88724 0.0
C957 C 0.6496 0.43653 0.88667 0.0
C958 C 0.8443 0.45065 0.88944 0.0
C959 C 0.86349 0.46468 0.87367 0.0
C960 C 0.80064 0.43018 0.88995 0.0
C961 C 0.77535 0.42339 0.87472 0.0
C962 C 0.79698 0.4321 0.85887 0.0
C963 C 0.84073 0.45238 0.85835 0.0
H964 H 0.13431 0.63573 0.35282 0.0
H965 H 0.0386 0.62859 0.39524 0.0
H966 H 0.1287 0.72028 0.35307 0.0
H967 H 0.03349 0.7123 0.39573 0.0
H968 H 0.03948 0.86106 0.39998 0.0
H969 H 0.07511 0.78499 0.40104 0.0
H970 H 0.06626 0.77512 0.34573 0.0
H971 H 0.0314 0.85135 0.34457 0.0
C972 C 0.11243 0.65231 0.36227 0.0
C973 C 0.0868 0.62574 0.37399 0.0
C974 C 0.1094 0.70058 0.36247 0.0
C975 C 0.08097 0.72304 0.37451 0.0
C976 C 0.05657 0.69626 0.38655 0.0
C977 C 0.05934 0.64821 0.38625 0.0
C978 C 0.04654 0.84344 0.38798 0.0
C979 C 0.03134 0.86183 0.37223 0.0
C980 C 0.06669 0.79965 0.38862 0.0
C981 C 0.07221 0.77352 0.37352 0.0
C982 C 0.06228 0.79425 0.35761 0.0
C983 C 0.04212 0.83804 0.35696 0.0
H984 H 0.8616 0.13643 0.8536 0.0
H985 H 0.86971 0.03761 0.895 0.0
H986 H 0.77719 0.12889 0.85346 0.0
H987 H 0.78611 0.03072 0.89516 0.0
H988 H 0.63754 0.03541 0.89954 0.0
H989 H 0.71294 0.07239 0.90079 0.0
H990 H 0.72361 0.06458 0.84549 0.0
H991 H 0.64803 0.02817 0.84413 0.0
C992 C 0.84524 0.11345 0.86274 0.0
C993 C 0.87202 0.0875 0.87429 0.0
C994 C 0.79708 0.10933 0.86273 0.0
C995 C 0.77496 0.07959 0.87441 0.0
C996 C 0.80192 0.05477 0.88627 0.0
C997 C 0.84986 0.05855 0.88615 0.0
C998 C 0.65519 0.04294 0.88758 0.0
C999 C 0.63728 0.02758 0.87177 0.0
C1000 C 0.69854 0.06391 0.88832 0.0
C1001 C 0.72471 0.07011 0.87328 0.0
C1002 C 0.70438 0.06005 0.85731 0.0
C1003 C 0.66097 0.03905 0.85655 0.0
H1004 H 0.46723 0.87124 0.34945 0.0
H1005 H 0.364 0.86189 0.3893 0.0
H1006 H 0.47396 0.78759 0.34904 0.0
H1007 H 0.37152 0.77746 0.38923 0.0
H1008 H 0.47001 0.64664 0.39901 0.0
H1009 H 0.43496 0.72293 0.39775 0.0
H1010 H 0.43164 0.71502 0.34232 0.0
H1011 H 0.46715 0.63893 0.34349 0.0
C1012 C 0.44527 0.85115 0.35789 0.0
C1013 C 0.41496 0.87299 0.36934 0.0
C1014 C 0.44903 0.80318 0.35764 0.0
C1015 C 0.4229 0.77585 0.36899 0.0
C1016 C 0.39206 0.79764 0.38034 0.0
C1017 C 0.38793 0.84582 0.38043 0.0
C1018 C 0.46036 0.66036 0.38656 0.0
C1019 C 0.47263 0.63718 0.37133 0.0
C1020 C 0.44018 0.70419 0.38585 0.0
C1021 C 0.43179 0.72544 0.36991 0.0
C1022 C 0.43884 0.69989 0.35478 0.0
C1023 C 0.45896 0.65614 0.35548 0.0
H1024 H 0.14371 0.97074 0.90182 0.0
H1025 H 0.14469 0.967 0.84623 0.0
H1026 H 0.21905 0.93358 0.90228 0.0
H1027 H 0.22032 0.93075 0.84676 0.0
H1028 H 0.35956 0.85957 0.85365 0.0
H1029 H 0.27527 0.86851 0.85483 0.0
H1030 H 0.29111 0.97273 0.89416 0.0
H1031 H 0.37436 0.96423 0.89274 0.0
C1032 C 0.1593 0.96086 0.88971 0.0
C1033 C 0.13871 0.97307 0.87399 0.0
C1034 C 0.20263 0.93979 0.88998 0.0
C1035 C 0.22618 0.93054 0.87455 0.0
C1036 C 0.2032 0.93764 0.85887 0.0
C1037 C 0.15977 0.9586 0.85859 0.0
C1038 C 0.34471 0.88424 0.86253 0.0
C1039 C 0.37327 0.91122 0.87311 0.0
C1040 C 0.29663 0.88918 0.86328 0.0
C1041 C 0.27649 0.92087 0.87475 0.0
C1042 C 0.30534 0.94712 0.88551 0.0
C1043 C 0.3531 0.94245 0.88465 0.0
H1044 H 0.54018 0.13663 0.34453 0.0
H1045 H 0.53028 0.1493 0.39982 0.0
H1046 H 0.57737 0.21187 0.34312 0.0
H1047 H 0.56755 0.22456 0.39828 0.0
H1048 H 0.6435 0.36103 0.38901 0.0
H1049 H 0.63558 0.27656 0.38931 0.0
H1050 H 0.53301 0.28573 0.34917 0.0
H1051 H 0.53965 0.36948 0.34937 0.0
C1052 C 0.54722 0.15464 0.35646 0.0
C1053 C 0.53096 0.13739 0.37226 0.0
C1054 C 0.56842 0.19787 0.3556 0.0
C1055 C 0.57426 0.22447 0.37053 0.0
C1056 C 0.56332 0.20485 0.38655 0.0
C1057 C 0.54183 0.16164 0.38741 0.0
C1058 C 0.61941 0.34474 0.38025 0.0
C1059 C 0.59187 0.37167 0.36926 0.0
C1060 C 0.61512 0.29657 0.38035 0.0
C1061 C 0.58396 0.2746 0.36919 0.0
C1062 C 0.55798 0.30159 0.3577 0.0
C1063 C 0.5617 0.34957 0.35781 0.0
H1064 H 0.13861 0.63609 0.85397 0.0
H1065 H 0.1292 0.52797 0.89198 0.0
H1066 H 0.22328 0.6312 0.855 0.0
H1067 H 0.21287 0.52349 0.89326 0.0
H1068 H 0.35914 0.53304 0.9015 0.0
H1069 H 0.28249 0.56737 0.90198 0.0
H1070 H 0.28157 0.57164 0.84649 0.0
H1071 H 0.35846 0.53813 0.84592 0.0
C1072 C 0.15474 0.61152 0.86258 0.0
C1073 C 0.12762 0.58254 0.87296 0.0
C1074 C 0.203 0.6089 0.86325 0.0
C1075 C 0.22474 0.57755 0.87444 0.0
C1076 C 0.1973 0.54896 0.88487 0.0
C1077 C 0.14936 0.55128 0.88408 0.0
C1078 C 0.34339 0.5428 0.8894 0.0
C1079 C 0.36438 0.53144 0.87366 0.0
C1080 C 0.29931 0.56222 0.88969 0.0
C1081 C 0.27549 0.57073 0.87426 0.0
C1082 C 0.2989 0.56514 0.85859 0.0
C1083 C 0.34307 0.5458 0.85829 0.0
H1084 H 0.95365 0.36444 0.34487 0.0
H1085 H 0.96825 0.34788 0.39988 0.0
H1086 H 0.91711 0.28893 0.3431 0.0
H1087 H 0.93154 0.27234 0.39799 0.0
H1088 H 0.85787 0.13559 0.38861 0.0
H1089 H 0.86359 0.22015 0.38927 0.0
H1090 H 0.96295 0.21523 0.34793 0.0
H1091 H 0.95856 0.13134 0.34775 0.0
C1092 C 0.94772 0.3455 0.35668 0.0
C1093 C 0.96515 0.3617 0.37247 0.0
C1094 C 0.9269 0.30212 0.35562 0.0
C1095 C 0.92257 0.27438 0.37034 0.0
C1096 C 0.9346 0.29294 0.38642 0.0
C1097 C 0.95573 0.33628 0.38749 0.0
C1098 C 0.88071 0.15281 0.37963 0.0
C1099 C 0.90814 0.12702 0.36824 0.0
C1100 C 0.88374 0.20105 0.37995 0.0
C1101 C 0.9135 0.22423 0.3686 0.0
C1102 C 0.93906 0.1984 0.35662 0.0
C1103 C 0.9366 0.15032 0.35652 0.0
H1104 H 0.13994 0.53837 0.10506 0.0
H1105 H 0.14892 0.5275 0.16043 0.0
H1106 H 0.21592 0.57424 0.1044 0.0
H1107 H 0.22511 0.5626 0.15964 0.0
H1108 H 0.36539 0.63048 0.15277 0.0
H1109 H 0.2808 0.62524 0.15264 0.0
H1110 H 0.2878 0.53086 0.10969 0.0
H1111 H 0.37148 0.53553 0.11008 0.0
C1112 C 0.15738 0.54491 0.11715 0.0
C1113 C 0.13889 0.52874 0.13275 0.0
C1114 C 0.20109 0.56521 0.11674 0.0
C1115 C 0.22705 0.56987 0.13191 0.0
C1116 C 0.20611 0.55923 0.14772 0.0
C1117 C 0.16234 0.53896 0.14814 0.0
C1118 C 0.34857 0.60883 0.1433 0.0
C1119 C 0.37482 0.5834 0.13143 0.0
C1120 C 0.30031 0.60603 0.14316 0.0
C1121 C 0.27758 0.57809 0.13102 0.0
C1122 C 0.30407 0.55365 0.11892 0.0
C1123 C 0.35208 0.55614 0.11918 0.0
H1124 H 0.95356 0.13429 0.66011 0.0
H1125 H 0.96585 0.14719 0.6049 0.0
H1126 H 0.91757 0.21012 0.66142 0.0
H1127 H 0.93027 0.22318 0.60631 0.0
H1128 H 0.85928 0.361 0.61401 0.0
H1129 H 0.86592 0.27659 0.61373 0.0
H1130 H 0.9594 0.28362 0.65693 0.0
H1131 H 0.95339 0.36738 0.65694 0.0
C1132 C 0.94737 0.15262 0.64818 0.0
C1133 C 0.96377 0.13516 0.63245 0.0
C1134 C 0.92696 0.19622 0.64897 0.0
C1135 C 0.92232 0.22313 0.63404 0.0
C1136 C 0.93354 0.20337 0.61806 0.0
C1137 C 0.95399 0.15969 0.61727 0.0
C1138 C 0.88096 0.34425 0.62349 0.0
C1139 C 0.90595 0.37061 0.63547 0.0
C1140 C 0.8846 0.29606 0.62337 0.0
C1141 C 0.91293 0.2734 0.63536 0.0
C1142 C 0.93649 0.29987 0.64774 0.0
C1143 C 0.93316 0.34792 0.64775 0.0
H1144 H 0.13876 0.85376 0.1171 0.0
H1145 H 0.13025 0.96498 0.15388 0.0
H1146 H 0.22329 0.86094 0.11691 0.0
H1147 H 0.21397 0.97096 0.15422 0.0
H1148 H 0.35376 0.96149 0.10506 0.0
H1149 H 0.27757 0.92619 0.10674 0.0
H1150 H 0.28621 0.92606 0.16214 0.0
H1151 H 0.36234 0.96132 0.16057 0.0
C1152 C 0.15502 0.87944 0.12521 0.0
C1153 C 0.12808 0.90907 0.13541 0.0
C1154 C 0.20322 0.88329 0.1252 0.0
C1155 C 0.22518 0.91616 0.13568 0.0
C1156 C 0.19812 0.94463 0.14628 0.0
C1157 C 0.15015 0.9413 0.14606 0.0
C1158 C 0.34029 0.95243 0.1176 0.0
C1159 C 0.3637 0.96552 0.13269 0.0
C1160 C 0.29654 0.93211 0.11854 0.0
C1161 C 0.27557 0.92455 0.13458 0.0
C1162 C 0.30126 0.93246 0.14961 0.0
C1163 C 0.345 0.95252 0.14868 0.0
H1164 H 0.52599 0.35027 0.6052 0.0
H1165 H 0.53197 0.36162 0.66061 0.0
H1166 H 0.56326 0.27505 0.60685 0.0
H1167 H 0.56942 0.28653 0.66214 0.0
H1168 H 0.63745 0.13847 0.61579 0.0
H1169 H 0.62955 0.22289 0.61576 0.0
H1170 H 0.52717 0.21263 0.65595 0.0
H1171 H 0.53406 0.12894 0.65556 0.0
C1172 C 0.53674 0.33761 0.61768 0.0
C1173 C 0.52476 0.36142 0.6328 0.0
C1174 C 0.55821 0.29444 0.61861 0.0
C1175 C 0.56811 0.27448 0.63466 0.0
C1176 C 0.5612 0.30073 0.64962 0.0
C1177 C 0.5399 0.34387 0.6487 0.0
C1178 C 0.6135 0.15452 0.62465 0.0
C1179 C 0.58616 0.12731 0.63561 0.0
C1180 C 0.60917 0.20268 0.62469 0.0
C1181 C 0.57801 0.22436 0.63593 0.0
C1182 C 0.55218 0.19706 0.64738 0.0
C1183 C 0.55604 0.14908 0.64715 0.0
H1184 H 0.14636 0.29703 0.15877 0.0
H1185 H 0.16695 0.32849 0.10496 0.0
H1186 H 0.21457 0.24771 0.15828 0.0
H1187 H 0.23589 0.28149 0.10469 0.0
H1188 H 0.33344 0.15942 0.10526 0.0
H1189 H 0.26414 0.20632 0.10543 0.0
H1190 H 0.29603 0.25225 0.15701 0.0
H1191 H 0.36439 0.20332 0.15711 0.0
C1192 C 0.16529 0.29329 0.14684 0.0
C1193 C 0.15109 0.31659 0.13191 0.0
C1194 C 0.20473 0.26547 0.14659 0.0
C1195 C 0.23111 0.26088 0.13148 0.0
C1196 C 0.21622 0.28354 0.1165 0.0
C1197 C 0.17657 0.3107 0.11668 0.0
C1198 C 0.32604 0.18 0.11656 0.0
C1199 C 0.35444 0.17767 0.13117 0.0
C1200 C 0.28619 0.20698 0.11667 0.0
C1201 C 0.27415 0.23293 0.13129 0.0
C1202 C 0.30357 0.23189 0.14568 0.0
C1203 C 0.34311 0.20432 0.14566 0.0
H1204 H 0.15822 0.1646 0.60663 0.0
H1205 H 0.19929 0.13833 0.65914 0.0
H1206 H 0.20423 0.2345 0.60639 0.0
H1207 H 0.24755 0.20729 0.65865 0.0
H1208 H 0.32504 0.33357 0.60566 0.0
H1209 H 0.27857 0.26413 0.60579 0.0
H1210 H 0.24291 0.28856 0.65903 0.0
H1211 H 0.29175 0.35718 0.65912 0.0
C1212 C 0.17802 0.17315 0.61801 0.0
C1213 C 0.17513 0.14585 0.6329 0.0
C1214 C 0.20453 0.21337 0.61788 0.0
C1215 C 0.22953 0.22692 0.63254 0.0
C1216 C 0.22793 0.19862 0.64725 0.0
C1217 C 0.20075 0.15872 0.64747 0.0
C1218 C 0.30688 0.32454 0.61737 0.0
C1219 C 0.31217 0.35097 0.6324 0.0
C1220 C 0.28004 0.28458 0.61743 0.0
C1221 C 0.25706 0.27035 0.63244 0.0
C1222 C 0.26094 0.29779 0.64733 0.0
C1223 C 0.28847 0.33749 0.64734 0.0
H1224 H 0.33132 0.33932 0.84274 0.0
H1225 H 0.36063 0.29357 0.89449 0.0
H1226 H 0.26076 0.29369 0.84269 0.0
H1227 H 0.29106 0.24653 0.89422 0.0
H1228 H 0.14114 0.20767 0.89681 0.0
H1229 H 0.20977 0.25612 0.89555 0.0
H1230 H 0.22937 0.21831 0.84227 0.0
H1231 H 0.1599 0.17149 0.84334 0.0
C1232 C 0.32327 0.31866 0.85396 0.0
C1233 C 0.35153 0.32018 0.86864 0.0
C1234 C 0.28271 0.29251 0.85395 0.0
C1235 C 0.26976 0.26689 0.86855 0.0
C1236 C 0.29922 0.26682 0.88292 0.0
C1237 C 0.33946 0.29334 0.88301 0.0
C1238 C 0.15969 0.2103 0.88476 0.0
C1239 C 0.14505 0.18557 0.87021 0.0
C1240 C 0.19939 0.23766 0.88408 0.0
C1241 C 0.22566 0.24054 0.86889 0.0
C1242 C 0.20993 0.21723 0.85415 0.0
C1243 C 0.16999 0.19028 0.85478 0.0
H1244 H 0.29797 0.14314 0.39631 0.0
H1245 H 0.32963 0.16354 0.34252 0.0
H1246 H 0.24828 0.21103 0.39573 0.0
H1247 H 0.28197 0.23223 0.34213 0.0
H1248 H 0.15925 0.33023 0.34305 0.0
H1249 H 0.20661 0.26102 0.34295 0.0
H1250 H 0.25323 0.29243 0.39447 0.0
H1251 H 0.20413 0.3606 0.39482 0.0
C1252 C 0.29416 0.16196 0.38435 0.0
C1253 C 0.31771 0.14781 0.36947 0.0
C1254 C 0.26611 0.20123 0.38405 0.0
C1255 C 0.26144 0.22757 0.36892 0.0
C1256 C 0.28416 0.21264 0.35396 0.0
C1257 C 0.31166 0.17313 0.3542 0.0
C1258 C 0.1801 0.32272 0.35427 0.0
C1259 C 0.17789 0.35091 0.36895 0.0
C1260 C 0.20732 0.28293 0.35423 0.0
C1261 C 0.2335 0.27071 0.36877 0.0
C1262 C 0.23265 0.30002 0.3832 0.0
C1263 C 0.20494 0.33947 0.38333 0.0
H1264 H 0.66921 0.83094 0.89683 0.0
H1265 H 0.6403 0.7941 0.84406 0.0
H1266 H 0.73824 0.78435 0.89624 0.0
H1267 H 0.70863 0.74468 0.84375 0.0
H1268 H 0.85859 0.69584 0.84347 0.0
H1269 H 0.79032 0.74538 0.84334 0.0
H1270 H 0.76429 0.70938 0.89646 0.0
H1271 H 0.8332 0.66273 0.89684 0.0
C1272 C 0.677 0.81192 0.88519 0.0
C1273 C 0.64905 0.81602 0.87051 0.0
C1274 C 0.71673 0.78498 0.88486 0.0
C1275 C 0.72917 0.76044 0.86996 0.0
C1276 C 0.70062 0.76369 0.85535 0.0
C1277 C 0.66113 0.79151 0.85559 0.0
C1278 C 0.83857 0.69925 0.85516 0.0
C1279 C 0.85163 0.67574 0.87019 0.0
C1280 C 0.79911 0.72716 0.85505 0.0
C1281 C 0.77159 0.73148 0.86989 0.0
C1282 C 0.785 0.70793 0.88488 0.0
C1283 C 0.82467 0.68092 0.88509 0.0
H1284 H 0.83518 0.83554 0.39962 0.0
H1285 H 0.79687 0.85794 0.34656 0.0
H1286 H 0.78891 0.76569 0.40024 0.0
H1287 H 0.74873 0.78902 0.34739 0.0
H1288 H 0.70848 0.63878 0.34742 0.0
H1289 H 0.75658 0.70773 0.34784 0.0
H1290 H 0.71401 0.73494 0.40017 0.0
H1291 H 0.66772 0.66503 0.39998 0.0
C1292 C 0.81601 0.82614 0.38819 0.0
C1293 C 0.81986 0.85225 0.37301 0.0
C1294 C 0.78938 0.78598 0.38855 0.0
C1295 C 0.76543 0.77127 0.3738 0.0
C1296 C 0.76767 0.79858 0.35885 0.0
C1297 C 0.79481 0.83845 0.35843 0.0
C1298 C 0.71 0.65913 0.3591 0.0
C1299 C 0.68428 0.6464 0.37366 0.0
C1300 C 0.73712 0.69901 0.35928 0.0
C1301 C 0.73867 0.72742 0.37395 0.0
C1302 C 0.71406 0.71379 0.38869 0.0
C1303 C 0.68745 0.67359 0.38858 0.0
H1304 H 0.67001 0.65729 0.16108 0.0
H1305 H 0.6393 0.70398 0.10956 0.0
H1306 H 0.73925 0.7046 0.16134 0.0
H1307 H 0.70759 0.75301 0.11007 0.0
H1308 H 0.85718 0.79711 0.10833 0.0
H1309 H 0.78906 0.7477 0.10875 0.0
H1310 H 0.76817 0.78007 0.16247 0.0
H1311 H 0.83709 0.82752 0.16223 0.0
C1312 C 0.67745 0.67851 0.14995 0.0
C1313 C 0.64913 0.67682 0.13529 0.0
C1314 C 0.71726 0.70571 0.15009 0.0
C1315 C 0.72942 0.73239 0.13566 0.0
C1316 C 0.70002 0.73206 0.12125 0.0
C1317 C 0.6605 0.70439 0.12104 0.0
C1318 C 0.83839 0.79309 0.12028 0.0
C1319 C 0.85269 0.81623 0.13524 0.0
C1320 C 0.79897 0.76519 0.12048 0.0
C1321 C 0.77265 0.76024 0.1356 0.0
C1322 C 0.78773 0.78252 0.15064 0.0
C1323 C 0.82737 0.80989 0.15049 0.0
H1324 H 0.78575 0.63679 0.65602 0.0
H1325 H 0.83083 0.66479 0.60408 0.0
H1326 H 0.73814 0.70596 0.65544 0.0
H1327 H 0.78487 0.73495 0.60374 0.0
H1328 H 0.69938 0.85638 0.65728 0.0
H1329 H 0.747 0.78718 0.65646 0.0
H1330 H 0.71008 0.76643 0.60314 0.0
H1331 H 0.66424 0.83656 0.60377 0.0
C1332 C 0.78526 0.65756 0.64443 0.0
C1333 C 0.8121 0.64528 0.63011 0.0
C1334 C 0.75841 0.69758 0.64417 0.0
C1335 C 0.75821 0.72659 0.62965 0.0
C1336 C 0.78382 0.71335 0.6151 0.0
C1337 C 0.81022 0.67302 0.61529 0.0
C1338 C 0.70202 0.83741 0.64532 0.0
C1339 C 0.67798 0.85201 0.63061 0.0
C1340 C 0.72887 0.79737 0.64489 0.0
C1341 C 0.73185 0.77068 0.6298 0.0
C1342 C 0.70898 0.78621 0.61494 0.0
C1343 C 0.68261 0.82653 0.61532 0.0
loop_
_geom_bond_atom_site_label_1
_geom_bond_atom_site_label_2
_geom_bond_distance
_geom_bond_site_symmetry_2
_ccdc_geom_bond_type
Co0 O3 1.970 . S
Co0 N17 1.989 . S
Co0 O25 1.967 . S
Co0 O32 1.920 . S
Co1 O4 1.966 . S
Co1 N10 2.022 . S
Co1 N18 1.993 . S
Co1 O26 1.941 . S
C2 O3 1.258 . S
C2 O4 1.263 . S
O3 Co0 1.970 . S
O3 C2 1.258 . S
O4 Co1 1.966 . S
O4 C2 1.263 . S
C5 O6 1.235 . S
C5 O32 1.289 . S
O6 C5 1.235 . S
C7 C9 1.400 . S
C7 N10 1.351 . S
C7 C12 1.501 1_545 S
C8 C9 1.387 . S
C8 N11 1.341 . S
C9 C7 1.400 . S
C9 C8 1.387 . S
N10 Co1 2.022 . S
N10 C7 1.351 . S
N10 N11 1.365 . S
N11 C8 1.341 . S
N11 N10 1.365 . S
N11 H31 0.862 . S
C12 C7 1.501 1_565 S
C12 H13 0.961 1_565 S
C12 H14 0.961 . S
C12 H15 0.960 . S
H13 C12 0.961 1_545 S
H14 C12 0.961 . S
H15 C12 0.960 . S
C16 N17 1.342 . S
C16 C20 1.401 . S
C16 C21 1.499 . S
N17 Co0 1.989 . S
N17 C16 1.342 . S
N17 N18 1.388 . S
N18 Co1 1.993 . S
N18 N17 1.388 . S
N18 C19 1.346 . S
C19 N18 1.346 . S
C19 C20 1.396 . S
C19 C29 1.510 . S
C20 C16 1.401 . S
C20 C19 1.396 . S
C21 C16 1.499 . S
C21 H22 0.959 . S
C21 H23 0.960 . S
C21 H24 0.961 . S
H22 C21 0.959 . S
H23 C21 0.960 . S
H24 C21 0.961 . S
O25 Co0 1.967 . S
O25 C33 1.258 . S
O26 Co1 1.941 . S
O26 C33 1.266 . S
H27 C29 0.959 . S
H28 C29 0.961 . S
C29 C19 1.510 . S
C29 H27 0.959 . S
C29 H28 0.961 . S
C29 H30 0.960 . S
H30 C29 0.960 . S
H31 N11 0.862 . S
O32 Co0 1.920 . S
O32 C5 1.289 . S
C33 O25 1.258 . S
C33 O26 1.266 . S
Co34 O37 1.970 . S
Co34 N51 1.989 . S
Co34 O59 1.967 . S
Co34 O66 1.920 . S
Co35 O38 1.966 . S
Co35 N44 2.022 . S
Co35 N52 1.993 . S
Co35 O60 1.941 . S
C36 O37 1.258 . S
C36 O38 1.263 . S
O37 Co34 1.970 . S
O37 C36 1.258 . S
O38 Co35 1.966 . S
O38 C36 1.263 . S
C39 O40 1.235 . S
C39 O66 1.289 . S
O40 C39 1.235 . S
C41 C43 1.400 . S
C41 N44 1.351 . S
C41 C46 1.501 . S
C42 C43 1.387 . S
C42 N45 1.341 . S
C43 C41 1.400 . S
C43 C42 1.387 . S
N44 Co35 2.022 . S
N44 C41 1.351 . S
N44 N45 1.365 . S
N45 C42 1.341 . S
N45 N44 1.365 . S
N45 H65 0.862 . S
C46 C41 1.501 . S
C46 H47 0.961 . S
C46 H48 0.961 . S
C46 H49 0.960 . S
H47 C46 0.961 . S
H48 C46 0.961 . S
H49 C46 0.960 . S
C50 N51 1.342 . S
C50 C54 1.401 . S
C50 C55 1.499 . S
N51 Co34 1.989 . S
N51 C50 1.342 . S
N51 N52 1.388 . S
N52 Co35 1.993 . S
N52 N51 1.388 . S
N52 C53 1.346 . S
C53 N52 1.346 . S
C53 C54 1.396 . S
C53 C63 1.510 . S
C54 C50 1.401 . S
C54 C53 1.396 . S
C55 C50 1.499 . S
C55 H56 0.959 . S
C55 H57 0.960 . S
C55 H58 0.961 . S
H56 C55 0.959 . S
H57 C55 0.960 . S
H58 C55 0.961 . S
O59 Co34 1.967 . S
O59 C67 1.258 . S
O60 Co35 1.941 . S
O60 C67 1.266 . S
H61 C63 0.959 . S
H62 C63 0.961 . S
C63 C53 1.510 . S
C63 H61 0.959 . S
C63 H62 0.961 . S
C63 H64 0.960 . S
H64 C63 0.960 . S
H65 N45 0.862 . S
O66 Co34 1.920 . S
O66 C39 1.289 . S
C67 O59 1.258 . S
C67 O60 1.266 . S
Co68 O71 1.970 . S
Co68 N85 1.989 . S
Co68 O93 1.967 . S
Co68 O100 1.920 . S
Co69 O72 1.966 . S
Co69 N78 2.022 . S
Co69 N86 1.993 . S
Co69 O94 1.941 . S
C70 O71 1.258 . S
C70 O72 1.263 . S
O71 Co68 1.970 . S
O71 C70 1.258 . S
O72 Co69 1.966 . S
O72 C70 1.263 . S
C73 O74 1.235 . S
C73 O100 1.289 . S
O74 C73 1.235 . S
C75 C77 1.400 . S
C75 N78 1.351 . S
C75 C80 1.501 . S
C76 C77 1.387 . S
C76 N79 1.341 . S
C77 C75 1.400 . S
C77 C76 1.387 . S
N78 Co69 2.022 . S
N78 C75 1.351 . S
N78 N79 1.365 . S
N79 C76 1.341 . S
N79 N78 1.365 . S
N79 H99 0.862 . S
C80 C75 1.501 . S
C80 H81 0.961 . S
C80 H82 0.961 . S
C80 H83 0.960 . S
H81 C80 0.961 . S
H82 C80 0.961 . S
H83 C80 0.960 . S
C84 N85 1.342 1_655 S
C84 C88 1.401 . S
C84 C89 1.499 . S
N85 Co68 1.989 . S
N85 C84 1.342 1_455 S
N85 N86 1.388 . S
N86 Co69 1.993 . S
N86 N85 1.388 . S
N86 C87 1.346 1_455 S
C87 N86 1.346 1_655 S
C87 C88 1.396 . S
C87 C97 1.510 . S
C88 C84 1.401 . S
C88 C87 1.396 . S
C89 C84 1.499 . S
C89 H90 0.959 1_655 S
C89 H91 0.960 . S
C89 H92 0.961 . S
H90 C89 0.959 1_455 S
H91 C89 0.960 . S
H92 C89 0.961 . S
O93 Co68 1.967 . S
O93 C101 1.258 . S
O94 Co69 1.941 . S
O94 C101 1.266 . S
H95 C97 0.959 . S
H96 C97 0.961 . S
C97 C87 1.510 . S
C97 H95 0.959 . S
C97 H96 0.961 . S
C97 H98 0.960 . S
H98 C97 0.960 . S
H99 N79 0.862 . S
O100 Co68 1.920 . S
O100 C73 1.289 . S
C101 O93 1.258 . S
C101 O94 1.266 . S
Co102 O105 1.970 . S
Co102 N119 1.989 . S
Co102 O127 1.967 . S
Co102 O134 1.920 . S
Co103 O106 1.966 . S
Co103 N112 2.022 . S
Co103 N120 1.993 . S
Co103 O128 1.941 . S
C104 O105 1.258 . S
C104 O106 1.263 . S
O105 Co102 1.970 . S
O105 C104 1.258 . S
O106 Co103 1.966 . S
O106 C104 1.263 . S
C107 O108 1.235 . S
C107 O134 1.289 . S
O108 C107 1.235 . S
C109 C111 1.400 . S
C109 N112 1.351 . S
C109 C114 1.501 1_455 S
C110 C111 1.387 . S
C110 N113 1.341 . S
C111 C109 1.400 . S
C111 C110 1.387 . S
N112 Co103 2.022 . S
N112 C109 1.351 . S
N112 N113 1.365 . S
N113 C110 1.341 . S
N113 N112 1.365 . S
N113 H133 0.862 . S
C114 C109 1.501 1_655 S
C114 H115 0.961 1_655 S
C114 H116 0.961 . S
C114 H117 0.960 . S
H115 C114 0.961 1_455 S
H116 C114 0.961 . S
H117 C114 0.960 . S
C118 N119 1.342 1_565 S
C118 C122 1.401 . S
C118 C123 1.499 . S
N119 Co102 1.989 . S
N119 C118 1.342 1_545 S
N119 N120 1.388 . S
N120 Co103 1.993 . S
N120 N119 1.388 . S
N120 C121 1.346 1_545 S
C121 N120 1.346 1_565 S
C121 C122 1.396 . S
C121 C131 1.510 . S
C122 C118 1.401 . S
C122 C121 1.396 . S
C123 C118 1.499 . S
C123 H124 0.959 1_565 S
C123 H125 0.960 . S
C123 H126 0.961 . S
H124 C123 0.959 1_545 S
H125 C123 0.960 . S
H126 C123 0.961 . S
O127 Co102 1.967 . S
O127 C135 1.258 . S
O128 Co103 1.941 . S
O128 C135 1.266 . S
H129 C131 0.959 . S
H130 C131 0.961 . S
C131 C121 1.510 . S
C131 H129 0.959 . S
C131 H130 0.961 . S
C131 H132 0.960 . S
H132 C131 0.960 . S
H133 N113 0.862 . S
O134 Co102 1.920 . S
O134 C107 1.289 . S
C135 O127 1.258 . S
C135 O128 1.266 . S
Co136 O139 1.970 . S
Co136 N153 1.989 . S
Co136 O161 1.967 . S
Co136 O168 1.920 . S
Co137 O140 1.966 . S
Co137 N146 2.022 . S
Co137 N154 1.993 . S
Co137 O162 1.941 . S
C138 O139 1.258 . S
C138 O140 1.263 . S
O139 Co136 1.970 . S
O139 C138 1.258 . S
O140 Co137 1.966 . S
O140 C138 1.263 . S
C141 O142 1.235 . S
C141 O168 1.289 . S
O142 C141 1.235 . S
C143 C145 1.400 . S
C143 N146 1.351 . S
C143 C148 1.501 . S
C144 C145 1.387 . S
C144 N147 1.341 . S
C145 C143 1.400 . S
C145 C144 1.387 . S
N146 Co137 2.022 . S
N146 C143 1.351 . S
N146 N147 1.365 . S
N147 C144 1.341 . S
N147 N146 1.365 . S
N147 H167 0.862 . S
C148 C143 1.501 . S
C148 H149 0.961 . S
C148 H150 0.961 . S
C148 H151 0.960 . S
H149 C148 0.961 . S
H150 C148 0.961 . S
H151 C148 0.960 . S
C152 N153 1.342 . S
C152 C156 1.401 . S
C152 C157 1.499 . S
N153 Co136 1.989 . S
N153 C152 1.342 . S
N153 N154 1.388 . S
N154 Co137 1.993 . S
N154 N153 1.388 . S
N154 C155 1.346 . S
C155 N154 1.346 . S
C155 C156 1.396 . S
C155 C165 1.510 . S
C156 C152 1.401 . S
C156 C155 1.396 . S
C157 C152 1.499 . S
C157 H158 0.959 . S
C157 H159 0.960 . S
C157 H160 0.961 . S
H158 C157 0.959 . S
H159 C157 0.960 . S
H160 C157 0.961 . S
O161 Co136 1.967 . S
O161 C169 1.258 . S
O162 Co137 1.941 . S
O162 C169 1.266 . S
H163 C165 0.959 . S
H164 C165 0.961 . S
C165 C155 1.510 . S
C165 H163 0.959 . S
C165 H164 0.961 . S
C165 H166 0.960 . S
H166 C165 0.960 . S
H167 N147 0.862 . S
O168 Co136 1.920 . S
O168 C141 1.289 . S
C169 O161 1.258 . S
C169 O162 1.266 . S
Co170 O173 1.970 . S
Co170 N187 1.989 . S
Co170 O195 1.967 . S
Co170 O202 1.920 . S
Co171 O174 1.966 . S
Co171 N180 2.022 . S
Co171 N188 1.993 . S
Co171 O196 1.941 . S
C172 O173 1.258 . S
C172 O174 1.263 . S
O173 Co170 1.970 . S
O173 C172 1.258 . S
O174 Co171 1.966 . S
O174 C172 1.263 . S
C175 O176 1.235 . S
C175 O202 1.289 . S
O176 C175 1.235 . S
C177 C179 1.400 . S
C177 N180 1.351 . S
C177 C182 1.501 1_455 S
C178 C179 1.387 . S
C178 N181 1.341 . S
C179 C177 1.400 . S
C179 C178 1.387 . S
N180 Co171 2.022 . S
N180 C177 1.351 . S
N180 N181 1.365 . S
N181 C178 1.341 . S
N181 N180 1.365 . S
N181 H201 0.862 . S
C182 C177 1.501 1_655 S
C182 H183 0.961 1_655 S
C182 H184 0.961 . S
C182 H185 0.960 . S
H183 C182 0.961 1_455 S
H184 C182 0.961 . S
H185 C182 0.960 . S
C186 N187 1.342 . S
C186 C190 1.401 . S
C186 C191 1.499 . S
N187 Co170 1.989 . S
N187 C186 1.342 . S
N187 N188 1.388 . S
N188 Co171 1.993 . S
N188 N187 1.388 . S
N188 C189 1.346 . S
C189 N188 1.346 . S
C189 C190 1.396 . S
C189 C199 1.510 . S
C190 C186 1.401 . S
C190 C189 1.396 . S
C191 C186 1.499 . S
C191 H192 0.959 . S
C191 H193 0.960 . S
C191 H194 0.961 . S
H192 C191 0.959 . S
H193 C191 0.960 . S
H194 C191 0.961 . S
O195 Co170 1.967 . S
O195 C203 1.258 . S
O196 Co171 1.941 . S
O196 C203 1.266 . S
H197 C199 0.959 . S
H198 C199 0.961 . S
C199 C189 1.510 . S
C199 H197 0.959 . S
C199 H198 0.961 . S
C199 H200 0.960 . S
H200 C199 0.960 . S
H201 N181 0.862 . S
O202 Co170 1.920 . S
O202 C175 1.289 . S
C203 O195 1.258 . S
C203 O196 1.266 . S
Co204 O207 1.970 . S
Co204 N221 1.989 . S
Co204 O229 1.967 . S
Co204 O236 1.920 . S
Co205 O208 1.966 . S
Co205 N214 2.022 . S
Co205 N222 1.993 . S
Co205 O230 1.941 . S
C206 O207 1.258 . S
C206 O208 1.263 . S
O207 Co204 1.970 . S
O207 C206 1.258 . S
O208 Co205 1.966 . S
O208 C206 1.263 . S
C209 O210 1.235 . S
C209 O236 1.289 . S
O210 C209 1.235 . S
C211 C213 1.400 . S
C211 N214 1.351 . S
C211 C216 1.501 1_545 S
C212 C213 1.387 . S
C212 N215 1.341 . S
C213 C211 1.400 . S
C213 C212 1.387 . S
N214 Co205 2.022 . S
N214 C211 1.351 . S
N214 N215 1.365 . S
N215 C212 1.341 . S
N215 N214 1.365 . S
N215 H235 0.862 . S
C216 C211 1.501 1_565 S
C216 H217 0.961 1_565 S
C216 H218 0.961 . S
C216 H219 0.960 . S
H217 C216 0.961 1_545 S
H218 C216 0.961 . S
H219 C216 0.960 . S
C220 N221 1.342 1_655 S
C220 C224 1.401 . S
C220 C225 1.499 . S
N221 Co204 1.989 . S
N221 C220 1.342 1_455 S
N221 N222 1.388 . S
N222 Co205 1.993 . S
N222 N221 1.388 . S
N222 C223 1.346 1_455 S
C223 N222 1.346 1_655 S
C223 C224 1.396 . S
C223 C233 1.510 . S
C224 C220 1.401 . S
C224 C223 1.396 . S
C225 C220 1.499 . S
C225 H226 0.959 1_655 S
C225 H227 0.960 . S
C225 H228 0.961 . S
H226 C225 0.959 1_455 S
H227 C225 0.960 . S
H228 C225 0.961 . S
O229 Co204 1.967 . S
O229 C237 1.258 . S
O230 Co205 1.941 . S
O230 C237 1.266 . S
H231 C233 0.959 . S
H232 C233 0.961 . S
C233 C223 1.510 . S
C233 H231 0.959 . S
C233 H232 0.961 . S
C233 H234 0.960 . S
H234 C233 0.960 . S
H235 N215 0.862 . S
O236 Co204 1.920 . S
O236 C209 1.289 . S
C237 O229 1.258 . S
C237 O230 1.266 . S
Co238 O241 1.970 . S
Co238 N255 1.989 . S
Co238 O263 1.967 . S
Co238 O270 1.920 . S
Co239 O242 1.966 . S
Co239 N248 2.022 . S
Co239 N256 1.993 . S
Co239 O264 1.941 . S
C240 O241 1.258 . S
C240 O242 1.263 . S
O241 Co238 1.970 . S
O241 C240 1.258 . S
O242 Co239 1.966 . S
O242 C240 1.263 . S
C243 O244 1.235 . S
C243 O270 1.289 . S
O244 C243 1.235 . S
C245 C247 1.400 . S
C245 N248 1.351 . S
C245 C250 1.501 . S
C246 C247 1.387 . S
C246 N249 1.341 . S
C247 C245 1.400 . S
C247 C246 1.387 . S
N248 Co239 2.022 . S
N248 C245 1.351 . S
N248 N249 1.365 . S
N249 C246 1.341 . S
N249 N248 1.365 . S
N249 H269 0.862 . S
C250 C245 1.501 . S
C250 H251 0.961 . S
C250 H252 0.961 . S
C250 H253 0.960 . S
H251 C250 0.961 . S
H252 C250 0.961 . S
H253 C250 0.960 . S
C254 N255 1.342 1_565 S
C254 C258 1.401 . S
C254 C259 1.499 . S
N255 Co238 1.989 . S
N255 C254 1.342 1_545 S
N255 N256 1.388 . S
N256 Co239 1.993 . S
N256 N255 1.388 . S
N256 C257 1.346 1_545 S
C257 N256 1.346 1_565 S
C257 C258 1.396 . S
C257 C267 1.510 . S
C258 C254 1.401 . S
C258 C257 1.396 . S
C259 C254 1.499 . S
C259 H260 0.959 1_565 S
C259 H261 0.960 . S
C259 H262 0.961 . S
H260 C259 0.959 1_545 S
H261 C259 0.960 . S
H262 C259 0.961 . S
O263 Co238 1.967 . S
O263 C271 1.258 . S
O264 Co239 1.941 . S
O264 C271 1.266 . S
H265 C267 0.959 . S
H266 C267 0.961 . S
C267 C257 1.510 . S
C267 H265 0.959 . S
C267 H266 0.961 . S
C267 H268 0.960 . S
H268 C267 0.960 . S
H269 N249 0.862 . S
O270 Co238 1.920 . S
O270 C243 1.289 . S
C271 O263 1.258 . S
C271 O264 1.266 . S
Co272 O275 1.970 . S
Co272 N289 1.989 . S
Co272 O297 1.967 . S
Co272 O304 1.920 . S
Co273 O276 1.966 . S
Co273 N282 2.022 . S
Co273 N290 1.993 . S
Co273 O298 1.941 . S
C274 O275 1.258 . S
C274 O276 1.263 . S
O275 Co272 1.970 . S
O275 C274 1.258 . S
O276 Co273 1.966 . S
O276 C274 1.263 . S
C277 O278 1.235 . S
C277 O304 1.289 . S
O278 C277 1.235 . S
C279 C281 1.400 . S
C279 N282 1.351 . S
C279 C284 1.501 1_565 S
C280 C281 1.387 . S
C280 N283 1.341 . S
C281 C279 1.400 . S
C281 C280 1.387 . S
N282 Co273 2.022 . S
N282 C279 1.351 . S
N282 N283 1.365 . S
N283 C280 1.341 . S
N283 N282 1.365 . S
N283 H303 0.862 . S
C284 C279 1.501 1_545 S
C284 H285 0.961 1_545 S
C284 H286 0.961 . S
C284 H287 0.960 . S
H285 C284 0.961 1_565 S
H286 C284 0.961 . S
H287 C284 0.960 . S
C288 N289 1.342 . S
C288 C292 1.401 . S
C288 C293 1.499 . S
N289 Co272 1.989 . S
N289 C288 1.342 . S
N289 N290 1.388 . S
N290 Co273 1.993 . S
N290 N289 1.388 . S
N290 C291 1.346 . S
C291 N290 1.346 . S
C291 C292 1.396 . S
C291 C301 1.510 . S
C292 C288 1.401 . S
C292 C291 1.396 . S
C293 C288 1.499 . S
C293 H294 0.959 . S
C293 H295 0.960 . S
C293 H296 0.961 . S
H294 C293 0.959 . S
H295 C293 0.960 . S
H296 C293 0.961 . S
O297 Co272 1.967 . S
O297 C305 1.258 . S
O298 Co273 1.941 . S
O298 C305 1.266 . S
H299 C301 0.959 . S
H300 C301 0.961 . S
C301 C291 1.510 . S
C301 H299 0.959 . S
C301 H300 0.961 . S
C301 H302 0.960 . S
H302 C301 0.960 . S
H303 N283 0.862 . S
O304 Co272 1.920 . S
O304 C277 1.289 . S
C305 O297 1.258 . S
C305 O298 1.266 . S
Co306 O309 1.970 . S
Co306 N323 1.989 . S
Co306 O331 1.967 . S
Co306 O338 1.920 . S
Co307 O310 1.966 . S
Co307 N316 2.022 . S
Co307 N324 1.993 . S
Co307 O332 1.941 . S
C308 O309 1.258 . S
C308 O310 1.263 . S
O309 Co306 1.970 . S
O309 C308 1.258 . S
O310 Co307 1.966 . S
O310 C308 1.263 . S
C311 O312 1.235 . S
C311 O338 1.289 . S
O312 C311 1.235 . S
C313 C315 1.400 . S
C313 N316 1.351 . S
C313 C318 1.501 . S
C314 C315 1.387 . S
C314 N317 1.341 . S
C315 C313 1.400 . S
C315 C314 1.387 . S
N316 Co307 2.022 . S
N316 C313 1.351 . S
N316 N317 1.365 . S
N317 C314 1.341 . S
N317 N316 1.365 . S
N317 H337 0.862 . S
C318 C313 1.501 . S
C318 H319 0.961 . S
C318 H320 0.961 . S
C318 H321 0.960 . S
H319 C318 0.961 . S
H320 C318 0.961 . S
H321 C318 0.960 . S
C322 N323 1.342 . S
C322 C326 1.401 . S
C322 C327 1.499 . S
N323 Co306 1.989 . S
N323 C322 1.342 . S
N323 N324 1.388 . S
N324 Co307 1.993 . S
N324 N323 1.388 . S
N324 C325 1.346 . S
C325 N324 1.346 . S
C325 C326 1.396 . S
C325 C335 1.510 . S
C326 C322 1.401 . S
C326 C325 1.396 . S
C327 C322 1.499 . S
C327 H328 0.959 . S
C327 H329 0.960 . S
C327 H330 0.961 . S
H328 C327 0.959 . S
H329 C327 0.960 . S
H330 C327 0.961 . S
O331 Co306 1.967 . S
O331 C339 1.258 . S
O332 Co307 1.941 . S
O332 C339 1.266 . S
H333 C335 0.959 . S
H334 C335 0.961 . S
C335 C325 1.510 . S
C335 H333 0.959 . S
C335 H334 0.961 . S
C335 H336 0.960 . S
H336 C335 0.960 . S
H337 N317 0.862 . S
O338 Co306 1.920 . S
O338 C311 1.289 . S
C339 O331 1.258 . S
C339 O332 1.266 . S
Co340 O343 1.970 . S
Co340 N357 1.989 . S
Co340 O365 1.967 . S
Co340 O372 1.920 . S
Co341 O344 1.966 . S
Co341 N350 2.022 . S
Co341 N358 1.993 . S
Co341 O366 1.941 . S
C342 O343 1.258 . S
C342 O344 1.263 . S
O343 Co340 1.970 . S
O343 C342 1.258 . S
O344 Co341 1.966 . S
O344 C342 1.263 . S
C345 O346 1.235 . S
C345 O372 1.289 . S
O346 C345 1.235 . S
C347 C349 1.400 . S
C347 N350 1.351 . S
C347 C352 1.501 . S
C348 C349 1.387 . S
C348 N351 1.341 . S
C349 C347 1.400 . S
C349 C348 1.387 . S
N350 Co341 2.022 . S
N350 C347 1.351 . S
N350 N351 1.365 . S
N351 C348 1.341 . S
N351 N350 1.365 . S
N351 H371 0.862 . S
C352 C347 1.501 . S
C352 H353 0.961 . S
C352 H354 0.961 . S
C352 H355 0.960 . S
H353 C352 0.961 . S
H354 C352 0.961 . S
H355 C352 0.960 . S
C356 N357 1.342 1_455 S
C356 C360 1.401 . S
C356 C361 1.499 . S
N357 Co340 1.989 . S
N357 C356 1.342 1_655 S
N357 N358 1.388 . S
N358 Co341 1.993 . S
N358 N357 1.388 . S
N358 C359 1.346 1_655 S
C359 N358 1.346 1_455 S
C359 C360 1.396 . S
C359 C369 1.510 . S
C360 C356 1.401 . S
C360 C359 1.396 . S
C361 C356 1.499 . S
C361 H362 0.959 1_455 S
C361 H363 0.960 . S
C361 H364 0.961 . S
H362 C361 0.959 1_655 S
H363 C361 0.960 . S
H364 C361 0.961 . S
O365 Co340 1.967 . S
O365 C373 1.258 . S
O366 Co341 1.941 . S
O366 C373 1.266 . S
H367 C369 0.959 . S
H368 C369 0.961 . S
C369 C359 1.510 . S
C369 H367 0.959 . S
C369 H368 0.961 . S
C369 H370 0.960 . S
H370 C369 0.960 . S
H371 N351 0.862 . S
O372 Co340 1.920 . S
O372 C345 1.289 . S
C373 O365 1.258 . S
C373 O366 1.266 . S
Co374 O377 1.970 . S
Co374 N391 1.989 . S
Co374 O399 1.967 . S
Co374 O406 1.920 . S
Co375 O378 1.966 . S
Co375 N384 2.022 . S
Co375 N392 1.993 . S
Co375 O400 1.941 . S
C376 O377 1.258 . S
C376 O378 1.263 . S
O377 Co374 1.970 . S
O377 C376 1.258 . S
O378 Co375 1.966 . S
O378 C376 1.263 . S
C379 O380 1.235 . S
C379 O406 1.289 . S
O380 C379 1.235 . S
C381 C383 1.400 . S
C381 N384 1.351 . S
C381 C386 1.501 1_655 S
C382 C383 1.387 . S
C382 N385 1.341 . S
C383 C381 1.400 . S
C383 C382 1.387 . S
N384 Co375 2.022 . S
N384 C381 1.351 . S
N384 N385 1.365 . S
N385 C382 1.341 . S
N385 N384 1.365 . S
N385 H405 0.862 . S
C386 C381 1.501 1_455 S
C386 H387 0.961 1_455 S
C386 H388 0.961 . S
C386 H389 0.960 . S
H387 C386 0.961 1_655 S
H388 C386 0.961 . S
H389 C386 0.960 . S
C390 N391 1.342 1_545 S
C390 C394 1.401 . S
C390 C395 1.499 . S
N391 Co374 1.989 . S
N391 C390 1.342 1_565 S
N391 N392 1.388 . S
N392 Co375 1.993 . S
N392 N391 1.388 . S
N392 C393 1.346 1_565 S
C393 N392 1.346 1_545 S
C393 C394 1.396 . S
C393 C403 1.510 . S
C394 C390 1.401 . S
C394 C393 1.396 . S
C395 C390 1.499 . S
C395 H396 0.959 1_545 S
C395 H397 0.960 . S
C395 H398 0.961 . S
H396 C395 0.959 1_565 S
H397 C395 0.960 . S
H398 C395 0.961 . S
O399 Co374 1.967 . S
O399 C407 1.258 . S
O400 Co375 1.941 . S
O400 C407 1.266 . S
H401 C403 0.959 . S
H402 C403 0.961 . S
C403 C393 1.510 . S
C403 H401 0.959 . S
C403 H402 0.961 . S
C403 H404 0.960 . S
H404 C403 0.960 . S
H405 N385 0.862 . S
O406 Co374 1.920 . S
O406 C379 1.289 . S
C407 O399 1.258 . S
C407 O400 1.266 . S
Co408 O411 1.970 . S
Co408 N425 1.989 . S
Co408 O433 1.967 . S
Co408 O440 1.920 . S
Co409 O412 1.966 . S
Co409 N418 2.022 . S
Co409 N426 1.993 . S
Co409 O434 1.941 . S
C410 O411 1.258 . S
C410 O412 1.263 . S
O411 Co408 1.970 . S
O411 C410 1.258 . S
O412 Co409 1.966 . S
O412 C410 1.263 . S
C413 O414 1.235 . S
C413 O440 1.289 . S
O414 C413 1.235 . S
C415 C417 1.400 . S
C415 N418 1.351 . S
C415 C420 1.501 . S
C416 C417 1.387 . S
C416 N419 1.341 . S
C417 C415 1.400 . S
C417 C416 1.387 . S
N418 Co409 2.022 . S
N418 C415 1.351 . S
N418 N419 1.365 . S
N419 C416 1.341 . S
N419 N418 1.365 . S
N419 H439 0.862 . S
C420 C415 1.501 . S
C420 H421 0.961 . S
C420 H422 0.961 . S
C420 H423 0.960 . S
H421 C420 0.961 . S
H422 C420 0.961 . S
H423 C420 0.960 . S
C424 N425 1.342 . S
C424 C428 1.401 . S
C424 C429 1.499 . S
N425 Co408 1.989 . S
N425 C424 1.342 . S
N425 N426 1.388 . S
N426 Co409 1.993 . S
N426 N425 1.388 . S
N426 C427 1.346 . S
C427 N426 1.346 . S
C427 C428 1.396 . S
C427 C437 1.510 . S
C428 C424 1.401 . S
C428 C427 1.396 . S
C429 C424 1.499 . S
C429 H430 0.959 . S
C429 H431 0.960 . S
C429 H432 0.961 . S
H430 C429 0.959 . S
H431 C429 0.960 . S
H432 C429 0.961 . S
O433 Co408 1.967 . S
O433 C441 1.258 . S
O434 Co409 1.941 . S
O434 C441 1.266 . S
H435 C437 0.959 . S
H436 C437 0.961 . S
C437 C427 1.510 . S
C437 H435 0.959 . S
C437 H436 0.961 . S
C437 H438 0.960 . S
H438 C437 0.960 . S
H439 N419 0.862 . S
O440 Co408 1.920 . S
O440 C413 1.289 . S
C441 O433 1.258 . S
C441 O434 1.266 . S
Co442 O445 1.970 . S
Co442 N459 1.989 . S
Co442 O467 1.967 . S
Co442 O474 1.920 . S
Co443 O446 1.966 . S
Co443 N452 2.022 . S
Co443 N460 1.993 . S
Co443 O468 1.941 . S
C444 O445 1.258 . S
C444 O446 1.263 . S
O445 Co442 1.970 . S
O445 C444 1.258 . S
O446 Co443 1.966 . S
O446 C444 1.263 . S
C447 O448 1.235 . S
C447 O474 1.289 . S
O448 C447 1.235 . S
C449 C451 1.400 . S
C449 N452 1.351 . S
C449 C454 1.501 1_655 S
C450 C451 1.387 . S
C450 N453 1.341 . S
C451 C449 1.400 . S
C451 C450 1.387 . S
N452 Co443 2.022 . S
N452 C449 1.351 . S
N452 N453 1.365 . S
N453 C450 1.341 . S
N453 N452 1.365 . S
N453 H473 0.862 . S
C454 C449 1.501 1_455 S
C454 H455 0.961 1_455 S
C454 H456 0.961 . S
C454 H457 0.960 . S
H455 C454 0.961 1_655 S
H456 C454 0.961 . S
H457 C454 0.960 . S
C458 N459 1.342 . S
C458 C462 1.401 . S
C458 C463 1.499 . S
N459 Co442 1.989 . S
N459 C458 1.342 . S
N459 N460 1.388 . S
N460 Co443 1.993 . S
N460 N459 1.388 . S
N460 C461 1.346 . S
C461 N460 1.346 . S
C461 C462 1.396 . S
C461 C471 1.510 . S
C462 C458 1.401 . S
C462 C461 1.396 . S
C463 C458 1.499 . S
C463 H464 0.959 . S
C463 H465 0.960 . S
C463 H466 0.961 . S
H464 C463 0.959 . S
H465 C463 0.960 . S
H466 C463 0.961 . S
O467 Co442 1.967 . S
O467 C475 1.258 . S
O468 Co443 1.941 . S
O468 C475 1.266 . S
H469 C471 0.959 . S
H470 C471 0.961 . S
C471 C461 1.510 . S
C471 H469 0.959 . S
C471 H470 0.961 . S
C471 H472 0.960 . S
H472 C471 0.960 . S
H473 N453 0.862 . S
O474 Co442 1.920 . S
O474 C447 1.289 . S
C475 O467 1.258 . S
C475 O468 1.266 . S
Co476 O479 1.970 . S
Co476 N493 1.989 . S
Co476 O501 1.967 . S
Co476 O508 1.920 . S
Co477 O480 1.966 . S
Co477 N486 2.022 . S
Co477 N494 1.993 . S
Co477 O502 1.941 . S
C478 O479 1.258 . S
C478 O480 1.263 . S
O479 Co476 1.970 . S
O479 C478 1.258 . S
O480 Co477 1.966 . S
O480 C478 1.263 . S
C481 O482 1.235 . S
C481 O508 1.289 . S
O482 C481 1.235 . S
C483 C485 1.400 . S
C483 N486 1.351 . S
C483 C488 1.501 1_565 S
C484 C485 1.387 . S
C484 N487 1.341 . S
C485 C483 1.400 . S
C485 C484 1.387 . S
N486 Co477 2.022 . S
N486 C483 1.351 . S
N486 N487 1.365 . S
N487 C484 1.341 . S
N487 N486 1.365 . S
N487 H507 0.862 . S
C488 C483 1.501 1_545 S
C488 H489 0.961 1_545 S
C488 H490 0.961 . S
C488 H491 0.960 . S
H489 C488 0.961 1_565 S
H490 C488 0.961 . S
H491 C488 0.960 . S
C492 N493 1.342 1_455 S
C492 C496 1.401 . S
C492 C497 1.499 . S
N493 Co476 1.989 . S
N493 C492 1.342 1_655 S
N493 N494 1.388 . S
N494 Co477 1.993 . S
N494 N493 1.388 . S
N494 C495 1.346 1_655 S
C495 N494 1.346 1_455 S
C495 C496 1.396 . S
C495 C505 1.510 . S
C496 C492 1.401 . S
C496 C495 1.396 . S
C497 C492 1.499 . S
C497 H498 0.959 1_455 S
C497 H499 0.960 . S
C497 H500 0.961 . S
H498 C497 0.959 1_655 S
H499 C497 0.960 . S
H500 C497 0.961 . S
O501 Co476 1.967 . S
O501 C509 1.258 . S
O502 Co477 1.941 . S
O502 C509 1.266 . S
H503 C505 0.959 . S
H504 C505 0.961 . S
C505 C495 1.510 . S
C505 H503 0.959 . S
C505 H504 0.961 . S
C505 H506 0.960 . S
H506 C505 0.960 . S
H507 N487 0.862 . S
O508 Co476 1.920 . S
O508 C481 1.289 . S
C509 O501 1.258 . S
C509 O502 1.266 . S
Co510 O513 1.970 . S
Co510 N527 1.989 . S
Co510 O535 1.967 . S
Co510 O542 1.920 . S
Co511 O514 1.966 . S
Co511 N520 2.022 . S
Co511 N528 1.993 . S
Co511 O536 1.941 . S
C512 O513 1.258 . S
C512 O514 1.263 . S
O513 Co510 1.970 . S
O513 C512 1.258 . S
O514 Co511 1.966 . S
O514 C512 1.263 . S
C515 O516 1.235 . S
C515 O542 1.289 . S
O516 C515 1.235 . S
C517 C519 1.400 . S
C517 N520 1.351 . S
C517 C522 1.501 . S
C518 C519 1.387 . S
C518 N521 1.341 . S
C519 C517 1.400 . S
C519 C518 1.387 . S
N520 Co511 2.022 . S
N520 C517 1.351 . S
N520 N521 1.365 . S
N521 C518 1.341 . S
N521 N520 1.365 . S
N521 H541 0.862 . S
C522 C517 1.501 . S
C522 H523 0.961 . S
C522 H524 0.961 . S
C522 H525 0.960 . S
H523 C522 0.961 . S
H524 C522 0.961 . S
H525 C522 0.960 . S
C526 N527 1.342 1_545 S
C526 C530 1.401 . S
C526 C531 1.499 . S
N527 Co510 1.989 . S
N527 C526 1.342 1_565 S
N527 N528 1.388 . S
N528 Co511 1.993 . S
N528 N527 1.388 . S
N528 C529 1.346 1_565 S
C529 N528 1.346 1_545 S
C529 C530 1.396 . S
C529 C539 1.510 . S
C530 C526 1.401 . S
C530 C529 1.396 . S
C531 C526 1.499 . S
C531 H532 0.959 1_545 S
C531 H533 0.960 . S
C531 H534 0.961 . S
H532 C531 0.959 1_565 S
H533 C531 0.960 . S
H534 C531 0.961 . S
O535 Co510 1.967 . S
O535 C543 1.258 . S
O536 Co511 1.941 . S
O536 C543 1.266 . S
H537 C539 0.959 . S
H538 C539 0.961 . S
C539 C529 1.510 . S
C539 H537 0.959 . S
C539 H538 0.961 . S
C539 H540 0.960 . S
H540 C539 0.960 . S
H541 N521 0.862 . S
O542 Co510 1.920 . S
O542 C515 1.289 . S
C543 O535 1.258 . S
C543 O536 1.266 . S
H544 C552 0.950 . S
H545 C557 0.950 1_565 S
H546 C554 0.950 . S
H547 C556 0.950 1_565 S
H548 C558 0.950 . S
H549 C560 0.950 . S
H550 C562 0.950 . S
H551 C563 0.950 . S
C552 H544 0.950 . S
C552 C553 1.386 . S
C552 C554 1.391 . S
C553 C552 1.386 . S
C553 C557 1.393 . S
C554 H546 0.950 . S
C554 C552 1.391 . S
C554 C555 1.400 . S
C555 C554 1.400 . S
C555 C556 1.398 . S
C555 C561 1.491 . S
C556 H547 0.950 1_545 S
C556 C555 1.398 . S
C556 C557 1.391 . S
C557 H545 0.950 1_545 S
C557 C553 1.393 . S
C557 C556 1.391 . S
C558 H548 0.950 . S
C558 C559 1.386 . S
C558 C560 1.391 . S
C559 C558 1.386 . S
C559 C563 1.393 . S
C560 H549 0.950 . S
C560 C558 1.391 . S
C560 C561 1.400 . S
C561 C555 1.491 . S
C561 C560 1.400 . S
C561 C562 1.398 . S
C562 H550 0.950 . S
C562 C561 1.398 . S
C562 C563 1.391 . S
C563 H551 0.950 . S
C563 C559 1.393 . S
C563 C562 1.391 . S
H564 C572 0.950 . S
H565 C577 0.950 . S
H566 C574 0.950 . S
H567 C576 0.950 . S
H568 C578 0.950 . S
H569 C580 0.950 . S
H570 C582 0.950 . S
H571 C583 0.950 . S
C572 H564 0.950 . S
C572 C573 1.386 . S
C572 C574 1.391 . S
C573 C572 1.386 . S
C573 C577 1.393 . S
C574 H566 0.950 . S
C574 C572 1.391 . S
C574 C575 1.400 . S
C575 C574 1.400 . S
C575 C576 1.398 . S
C575 C581 1.491 . S
C576 H567 0.950 . S
C576 C575 1.398 . S
C576 C577 1.391 . S
C577 H565 0.950 . S
C577 C573 1.393 . S
C577 C576 1.391 . S
C578 H568 0.950 . S
C578 C579 1.386 . S
C578 C580 1.391 . S
C579 C578 1.386 . S
C579 C583 1.393 . S
C580 H569 0.950 . S
C580 C578 1.391 . S
C580 C581 1.400 . S
C581 C575 1.491 . S
C581 C580 1.400 . S
C581 C582 1.398 . S
C582 H570 0.950 . S
C582 C581 1.398 . S
C582 C583 1.391 . S
C583 H571 0.950 . S
C583 C579 1.393 . S
C583 C582 1.391 . S
H584 C592 0.950 . S
H585 C597 0.950 . S
H586 C594 0.950 . S
H587 C596 0.950 . S
H588 C598 0.950 . S
H589 C600 0.950 . S
H590 C602 0.950 . S
H591 C603 0.950 . S
C592 H584 0.950 . S
C592 C593 1.386 . S
C592 C594 1.391 . S
C593 C592 1.386 . S
C593 C597 1.393 . S
C594 H586 0.950 . S
C594 C592 1.391 . S
C594 C595 1.400 . S
C595 C594 1.400 . S
C595 C596 1.398 . S
C595 C601 1.491 . S
C596 H587 0.950 . S
C596 C595 1.398 . S
C596 C597 1.391 . S
C597 H585 0.950 . S
C597 C593 1.393 . S
C597 C596 1.391 . S
C598 H588 0.950 . S
C598 C599 1.386 . S
C598 C600 1.391 . S
C599 C598 1.386 . S
C599 C603 1.393 . S
C600 H589 0.950 . S
C600 C598 1.391 . S
C600 C601 1.400 . S
C601 C595 1.491 . S
C601 C600 1.400 . S
C601 C602 1.398 . S
C602 H590 0.950 . S
C602 C601 1.398 . S
C602 C603 1.391 . S
C603 H591 0.950 . S
C603 C599 1.393 . S
C603 C602 1.391 . S
H604 C612 0.950 . S
H605 C617 0.950 1_565 S
H606 C614 0.950 . S
H607 C616 0.934 1_565 S
H608 C618 0.950 . S
H609 C620 0.950 . S
H610 C622 0.950 . S
H611 C623 0.950 . S
C612 H604 0.950 . S
C612 C613 1.386 . S
C612 C614 1.391 . S
C613 C612 1.386 . S
C613 C617 1.393 . S
C614 H606 0.950 . S
C614 C612 1.391 . S
C614 C615 1.400 . S
C615 C614 1.400 . S
C615 C616 1.398 . S
C615 C621 1.491 . S
C616 H607 0.934 1_545 S
C616 C615 1.398 . S
C616 C617 1.391 . S
C617 H605 0.950 1_545 S
C617 C613 1.393 . S
C617 C616 1.391 . S
C618 H608 0.950 . S
C618 C619 1.386 . S
C618 C620 1.391 . S
C619 C618 1.386 . S
C619 C623 1.393 . S
C620 H609 0.950 . S
C620 C618 1.391 . S
C620 C621 1.400 . S
C621 C615 1.491 . S
C621 C620 1.400 . S
C621 C622 1.398 . S
C622 H610 0.950 . S
C622 C621 1.398 . S
C622 C623 1.391 . S
C623 H611 0.950 . S
C623 C619 1.393 . S
C623 C622 1.391 . S
H624 C632 0.950 1_545 S
H625 C637 0.950 . S
H626 C634 0.946 1_545 S
H627 C636 0.950 . S
H628 C638 0.950 . S
H629 C640 0.950 . S
H630 C642 0.950 . S
H631 C643 0.950 . S
C632 H624 0.950 1_565 S
C632 C633 1.386 . S
C632 C634 1.391 . S
C633 C632 1.386 . S
C633 C637 1.393 . S
C634 H626 0.946 1_565 S
C634 C632 1.391 . S
C634 C635 1.400 . S
C635 C634 1.400 . S
C635 C636 1.398 . S
C635 C641 1.491 . S
C636 H627 0.950 . S
C636 C635 1.398 . S
C636 C637 1.391 . S
C637 H625 0.950 . S
C637 C633 1.393 . S
C637 C636 1.391 . S
C638 H628 0.950 . S
C638 C639 1.386 . S
C638 C640 1.391 . S
C639 C638 1.386 . S
C639 C643 1.393 . S
C640 H629 0.950 . S
C640 C638 1.391 . S
C640 C641 1.400 . S
C641 C635 1.491 . S
C641 C640 1.400 . S
C641 C642 1.398 . S
C642 H630 0.950 . S
C642 C641 1.398 . S
C642 C643 1.391 . S
C643 H631 0.950 . S
C643 C639 1.393 . S
C643 C642 1.391 . S
H644 C652 0.950 . S
H645 C657 0.950 . S
H646 C654 0.950 . S
H647 C656 0.950 . S
H648 C658 0.950 . S
H649 C660 0.950 . S
H650 C662 0.950 . S
H651 C663 0.950 . S
C652 H644 0.950 . S
C652 C653 1.386 . S
C652 C654 1.391 . S
C653 C652 1.386 . S
C653 C657 1.393 . S
C654 H646 0.950 . S
C654 C652 1.391 . S
C654 C655 1.400 . S
C655 C654 1.400 . S
C655 C656 1.398 . S
C655 C661 1.491 . S
C656 H647 0.950 . S
C656 C655 1.398 . S
C656 C657 1.391 . S
C657 H645 0.950 . S
C657 C653 1.393 . S
C657 C656 1.391 . S
C658 H648 0.950 . S
C658 C659 1.386 . S
C658 C660 1.391 . S
C659 C658 1.386 . S
C659 C663 1.393 . S
C660 H649 0.950 . S
C660 C658 1.391 . S
C660 C661 1.400 . S
C661 C655 1.491 . S
C661 C660 1.400 . S
C661 C662 1.398 . S
C662 H650 0.950 . S
C662 C661 1.398 . S
C662 C663 1.391 . S
C663 H651 0.950 . S
C663 C659 1.393 . S
C663 C662 1.391 . S
H664 C672 0.950 . S
H665 C677 0.950 . S
H666 C674 0.950 . S
H667 C676 0.950 . S
H668 C678 0.950 . S
H669 C680 0.950 . S
H670 C682 0.950 . S
H671 C683 0.950 . S
C672 H664 0.950 . S
C672 C673 1.386 . S
C672 C674 1.391 . S
C673 C672 1.386 . S
C673 C677 1.393 . S
C674 H666 0.950 . S
C674 C672 1.391 . S
C674 C675 1.400 . S
C675 C674 1.400 . S
C675 C676 1.398 . S
C675 C681 1.491 . S
C676 H667 0.950 . S
C676 C675 1.398 . S
C676 C677 1.391 . S
C677 H665 0.950 . S
C677 C673 1.393 . S
C677 C676 1.391 . S
C678 H668 0.950 . S
C678 C679 1.386 . S
C678 C680 1.391 . S
C679 C678 1.386 . S
C679 C683 1.393 . S
C680 H669 0.950 . S
C680 C678 1.391 . S
C680 C681 1.400 . S
C681 C675 1.491 . S
C681 C680 1.400 . S
C681 C682 1.398 . S
C682 H670 0.950 . S
C682 C681 1.398 . S
C682 C683 1.391 . S
C683 H671 0.950 . S
C683 C679 1.393 . S
C683 C682 1.391 . S
H684 C692 0.950 1_455 S
H685 C697 0.950 . S
H686 C694 0.955 . S
H687 C696 0.950 . S
H688 C698 0.950 . S
H689 C700 0.950 . S
H690 C702 0.950 . S
H691 C703 0.950 . S
C692 H684 0.950 1_655 S
C692 C693 1.386 . S
C692 C694 1.391 . S
C693 C692 1.386 . S
C693 C697 1.393 . S
C694 H686 0.955 . S
C694 C692 1.391 . S
C694 C695 1.400 . S
C695 C694 1.400 . S
C695 C696 1.398 . S
C695 C701 1.491 . S
C696 H687 0.950 . S
C696 C695 1.398 . S
C696 C697 1.391 . S
C697 H685 0.950 . S
C697 C693 1.393 . S
C697 C696 1.391 . S
C698 H688 0.950 . S
C698 C699 1.386 . S
C698 C700 1.391 . S
C699 C698 1.386 . S
C699 C703 1.393 . S
C700 H689 0.950 . S
C700 C698 1.391 . S
C700 C701 1.400 . S
C701 C695 1.491 . S
C701 C700 1.400 . S
C701 C702 1.398 . S
C702 H690 0.950 . S
C702 C701 1.398 . S
C702 C703 1.391 . S
C703 H691 0.950 . S
C703 C699 1.393 . S
C703 C702 1.391 . S
H704 C712 0.950 . S
H705 C717 0.950 . S
H706 C714 0.950 . S
H707 C716 0.950 . S
H708 C718 0.950 . S
H709 C720 0.950 . S
H710 C722 0.950 . S
H711 C723 0.950 . S
C712 H704 0.950 . S
C712 C713 1.386 1_565 S
C712 C714 1.391 . S
C713 C712 1.386 1_545 S
C713 C717 1.393 . S
C714 H706 0.950 . S
C714 C712 1.391 . S
C714 C715 1.400 1_565 S
C715 C714 1.400 1_545 S
C715 C716 1.398 . S
C715 C721 1.491 1_544 S
C716 H707 0.950 . S
C716 C715 1.398 . S
C716 C717 1.391 . S
C717 H705 0.950 . S
C717 C713 1.393 . S
C717 C716 1.391 . S
C718 H708 0.950 . S
C718 C719 1.386 1_545 S
C718 C720 1.391 . S
C719 C718 1.386 1_565 S
C719 C723 1.393 . S
C720 H709 0.950 . S
C720 C718 1.391 . S
C720 C721 1.400 1_545 S
C721 C715 1.491 1_566 S
C721 C720 1.400 1_565 S
C721 C722 1.398 . S
C722 H710 0.950 . S
C722 C721 1.398 . S
C722 C723 1.391 . S
C723 H711 0.950 . S
C723 C719 1.393 . S
C723 C722 1.391 . S
H724 C732 0.950 . S
H725 C737 0.950 . S
H726 C734 0.950 . S
H727 C736 0.950 . S
H728 C738 0.950 . S
H729 C740 0.950 . S
H730 C742 0.950 . S
H731 C743 0.950 . S
C732 H724 0.950 . S
C732 C733 1.386 . S
C732 C734 1.391 . S
C733 C732 1.386 . S
C733 C737 1.393 . S
C734 H726 0.950 . S
C734 C732 1.391 . S
C734 C735 1.400 . S
C735 C734 1.400 . S
C735 C736 1.398 . S
C735 C741 1.491 . S
C736 H727 0.950 . S
C736 C735 1.398 . S
C736 C737 1.391 . S
C737 H725 0.950 . S
C737 C733 1.393 . S
C737 C736 1.391 . S
C738 H728 0.950 . S
C738 C739 1.386 . S
C738 C740 1.391 . S
C739 C738 1.386 . S
C739 C743 1.393 . S
C740 H729 0.950 . S
C740 C738 1.391 . S
C740 C741 1.400 . S
C741 C735 1.491 . S
C741 C740 1.400 . S
C741 C742 1.398 . S
C742 H730 0.950 . S
C742 C741 1.398 . S
C742 C743 1.391 . S
C743 H731 0.950 . S
C743 C739 1.393 . S
C743 C742 1.391 . S
H744 C752 0.950 . S
H745 C757 0.950 . S
H746 C754 0.950 . S
H747 C756 0.950 . S
H748 C758 0.950 . S
H749 C760 0.950 . S
H750 C762 0.950 . S
H751 C763 0.950 . S
C752 H744 0.950 . S
C752 C753 1.386 . S
C752 C754 1.391 1_655 S
C753 C752 1.386 . S
C753 C757 1.393 . S
C754 H746 0.950 . S
C754 C752 1.391 1_455 S
C754 C755 1.400 1_455 S
C755 C754 1.400 1_655 S
C755 C756 1.398 . S
C755 C761 1.491 1_656 S
C756 H747 0.950 . S
C756 C755 1.398 . S
C756 C757 1.391 . S
C757 H745 0.950 . S
C757 C753 1.393 . S
C757 C756 1.391 . S
C758 H748 0.950 . S
C758 C759 1.386 . S
C758 C760 1.391 1_455 S
C759 C758 1.386 . S
C759 C763 1.393 . S
C760 H749 0.950 . S
C760 C758 1.391 1_655 S
C760 C761 1.400 1_655 S
C761 C755 1.491 1_454 S
C761 C760 1.400 1_455 S
C761 C762 1.398 . S
C762 H750 0.950 . S
C762 C761 1.398 . S
C762 C763 1.391 . S
C763 H751 0.950 . S
C763 C759 1.393 . S
C763 C762 1.391 . S
H764 C772 0.950 . S
H765 C777 0.950 . S
H766 C774 0.951 . S
H767 C776 0.950 . S
H768 C778 0.950 . S
H769 C780 0.951 . S
H770 C782 0.950 . S
H771 C783 0.950 . S
C772 H764 0.950 . S
C772 C773 1.386 . S
C772 C774 1.391 . S
C773 C772 1.386 . S
C773 C777 1.393 1_545 S
C774 H766 0.951 . S
C774 C772 1.391 . S
C774 C775 1.400 . S
C775 C774 1.400 . S
C775 C776 1.398 1_545 S
C775 C781 1.491 1_445 S
C776 H767 0.950 . S
C776 C775 1.398 1_565 S
C776 C777 1.391 . S
C777 H765 0.950 . S
C777 C773 1.393 1_565 S
C777 C776 1.391 . S
C778 H768 0.950 . S
C778 C779 1.386 . S
C778 C780 1.391 . S
C779 C778 1.386 . S
C779 C783 1.393 1_565 S
C780 H769 0.951 . S
C780 C778 1.391 . S
C780 C781 1.400 . S
C781 C775 1.491 1_665 S
C781 C780 1.400 . S
C781 C782 1.398 1_565 S
C782 H770 0.950 . S
C782 C781 1.398 1_545 S
C782 C783 1.391 . S
C783 H771 0.950 . S
C783 C779 1.393 1_545 S
C783 C782 1.391 . S
H784 C792 0.950 . S
H785 C797 0.950 . S
H786 C794 0.950 . S
H787 C796 0.950 . S
H788 C798 0.950 . S
H789 C800 0.950 . S
H790 C802 0.950 . S
H791 C803 0.950 . S
C792 H784 0.950 . S
C792 C793 1.386 . S
C792 C794 1.391 . S
C793 C792 1.386 . S
C793 C797 1.393 . S
C794 H786 0.950 . S
C794 C792 1.391 . S
C794 C795 1.400 . S
C795 C794 1.400 . S
C795 C796 1.398 . S
C795 C801 1.491 1_554 S
C796 H787 0.950 . S
C796 C795 1.398 . S
C796 C797 1.391 . S
C797 H785 0.950 . S
C797 C793 1.393 . S
C797 C796 1.391 . S
C798 H788 0.950 . S
C798 C799 1.386 . S
C798 C800 1.391 . S
C799 C798 1.386 . S
C799 C803 1.393 . S
C800 H789 0.950 . S
C800 C798 1.391 . S
C800 C801 1.400 . S
C801 C795 1.491 1_556 S
C801 C800 1.400 . S
C801 C802 1.398 . S
C802 H790 0.950 . S
C802 C801 1.398 . S
C802 C803 1.391 . S
C803 H791 0.950 . S
C803 C799 1.393 . S
C803 C802 1.391 . S
H804 C812 0.950 . S
H805 C817 0.950 . S
H806 C814 0.950 . S
H807 C816 0.950 . S
H808 C818 0.950 . S
H809 C820 0.950 . S
H810 C822 0.950 . S
H811 C823 0.950 . S
C812 H804 0.950 . S
C812 C813 1.386 1_455 S
C812 C814 1.391 . S
C813 C812 1.386 1_655 S
C813 C817 1.393 . S
C814 H806 0.950 . S
C814 C812 1.391 . S
C814 C815 1.400 1_455 S
C815 C814 1.400 1_655 S
C815 C816 1.398 . S
C815 C821 1.491 1_655 S
C816 H807 0.950 . S
C816 C815 1.398 . S
C816 C817 1.391 . S
C817 H805 0.950 . S
C817 C813 1.393 . S
C817 C816 1.391 . S
C818 H808 0.950 . S
C818 C819 1.386 1_655 S
C818 C820 1.391 . S
C819 C818 1.386 1_455 S
C819 C823 1.393 . S
C820 H809 0.950 . S
C820 C818 1.391 . S
C820 C821 1.400 1_655 S
C821 C815 1.491 1_455 S
C821 C820 1.400 1_455 S
C821 C822 1.398 . S
C822 H810 0.950 . S
C822 C821 1.398 . S
C822 C823 1.391 . S
C823 H811 0.950 . S
C823 C819 1.393 . S
C823 C822 1.391 . S
H824 C832 0.950 . S
H825 C837 0.950 . S
H826 C834 0.950 . S
H827 C836 0.950 . S
H828 C838 0.950 . S
H829 C840 0.950 . S
H830 C842 0.950 . S
H831 C843 0.950 . S
C832 H824 0.950 . S
C832 C833 1.386 . S
C832 C834 1.391 . S
C833 C832 1.386 . S
C833 C837 1.393 1_545 S
C834 H826 0.950 . S
C834 C832 1.391 . S
C834 C835 1.400 . S
C835 C834 1.400 . S
C835 C836 1.398 1_545 S
C835 C841 1.491 1_446 S
C836 H827 0.950 . S
C836 C835 1.398 1_565 S
C836 C837 1.391 . S
C837 H825 0.950 . S
C837 C833 1.393 1_565 S
C837 C836 1.391 . S
C838 H828 0.950 . S
C838 C839 1.386 . S
C838 C840 1.391 . S
C839 C838 1.386 . S
C839 C843 1.393 1_565 S
C840 H829 0.950 . S
C840 C838 1.391 . S
C840 C841 1.400 . S
C841 C835 1.491 1_664 S
C841 C840 1.400 . S
C841 C842 1.398 1_565 S
C842 H830 0.950 . S
C842 C841 1.398 1_545 S
C842 C843 1.391 . S
C843 H831 0.950 . S
C843 C839 1.393 1_545 S
C843 C842 1.391 . S
H844 C852 0.950 . S
H845 C857 0.950 . S
H846 C854 0.950 1_545 S
H847 C856 0.950 . S
H848 C858 0.950 . S
H849 C860 0.950 1_565 S
H850 C862 0.950 . S
H851 C863 0.950 . S
C852 H844 0.950 . S
C852 C853 1.386 . S
C852 C854 1.391 . S
C853 C852 1.386 . S
C853 C857 1.393 . S
C854 H846 0.950 1_565 S
C854 C852 1.391 . S
C854 C855 1.400 . S
C855 C854 1.400 . S
C855 C856 1.398 . S
C855 C861 1.491 1_565 S
C856 H847 0.950 . S
C856 C855 1.398 . S
C856 C857 1.391 . S
C857 H845 0.950 . S
C857 C853 1.393 . S
C857 C856 1.391 . S
C858 H848 0.950 . S
C858 C859 1.386 . S
C858 C860 1.391 . S
C859 C858 1.386 . S
C859 C863 1.393 . S
C860 H849 0.950 1_545 S
C860 C858 1.391 . S
C860 C861 1.400 . S
C861 C855 1.491 1_545 S
C861 C860 1.400 . S
C861 C862 1.398 . S
C862 H850 0.950 . S
C862 C861 1.398 . S
C862 C863 1.391 . S
C863 H851 0.950 . S
C863 C859 1.393 . S
C863 C862 1.391 . S
H864 C872 0.950 . S
H865 C877 0.950 . S
H866 C874 0.950 . S
H867 C876 0.950 . S
H868 C878 0.950 . S
H869 C880 0.950 . S
H870 C882 0.950 . S
H871 C883 0.950 . S
C872 H864 0.950 . S
C872 C873 1.386 . S
C872 C874 1.391 . S
C873 C872 1.386 . S
C873 C877 1.393 . S
C874 H866 0.950 . S
C874 C872 1.391 . S
C874 C875 1.400 . S
C875 C874 1.400 . S
C875 C876 1.398 . S
C875 C881 1.491 . S
C876 H867 0.950 . S
C876 C875 1.398 . S
C876 C877 1.391 . S
C877 H865 0.950 . S
C877 C873 1.393 . S
C877 C876 1.391 . S
C878 H868 0.950 . S
C878 C879 1.386 1_545 S
C878 C880 1.391 . S
C879 C878 1.386 1_565 S
C879 C883 1.393 . S
C880 H869 0.950 . S
C880 C878 1.391 . S
C880 C881 1.400 . S
C881 C875 1.491 . S
C881 C880 1.400 . S
C881 C882 1.398 1_545 S
C882 H870 0.950 . S
C882 C881 1.398 1_565 S
C882 C883 1.391 . S
C883 H871 0.950 . S
C883 C879 1.393 . S
C883 C882 1.391 . S
H884 C892 0.950 . S
H885 C897 0.950 . S
H886 C894 0.950 . S
H887 C896 0.950 . S
H888 C898 0.950 . S
H889 C900 0.950 . S
H890 C902 0.950 . S
H891 C903 0.950 . S
C892 H884 0.950 . S
C892 C893 1.386 . S
C892 C894 1.391 . S
C893 C892 1.386 . S
C893 C897 1.393 . S
C894 H886 0.950 . S
C894 C892 1.391 . S
C894 C895 1.400 . S
C895 C894 1.400 . S
C895 C896 1.398 . S
C895 C901 1.491 . S
C896 H887 0.950 . S
C896 C895 1.398 . S
C896 C897 1.391 . S
C897 H885 0.950 . S
C897 C893 1.393 . S
C897 C896 1.391 . S
C898 H888 0.950 . S
C898 C899 1.386 . S
C898 C900 1.391 . S
C899 C898 1.386 . S
C899 C903 1.393 . S
C900 H889 0.950 . S
C900 C898 1.391 . S
C900 C901 1.400 . S
C901 C895 1.491 . S
C901 C900 1.400 . S
C901 C902 1.398 . S
C902 H890 0.950 . S
C902 C901 1.398 . S
C902 C903 1.391 . S
C903 H891 0.950 . S
C903 C899 1.393 . S
C903 C902 1.391 . S
H904 C912 0.950 . S
H905 C917 0.950 . S
H906 C914 0.950 . S
H907 C916 0.950 . S
H908 C918 0.950 . S
H909 C920 0.950 . S
H910 C922 0.950 . S
H911 C923 0.950 . S
C912 H904 0.950 . S
C912 C913 1.386 . S
C912 C914 1.391 . S
C913 C912 1.386 . S
C913 C917 1.393 . S
C914 H906 0.950 . S
C914 C912 1.391 . S
C914 C915 1.400 . S
C915 C914 1.400 . S
C915 C916 1.398 . S
C915 C921 1.491 . S
C916 H907 0.950 . S
C916 C915 1.398 . S
C916 C917 1.391 . S
C917 H905 0.950 . S
C917 C913 1.393 . S
C917 C916 1.391 . S
C918 H908 0.950 . S
C918 C919 1.386 . S
C918 C920 1.391 . S
C919 C918 1.386 . S
C919 C923 1.393 . S
C920 H909 0.950 . S
C920 C918 1.391 . S
C920 C921 1.400 . S
C921 C915 1.491 . S
C921 C920 1.400 . S
C921 C922 1.398 . S
C922 H910 0.950 . S
C922 C921 1.398 . S
C922 C923 1.391 . S
C923 H911 0.950 . S
C923 C919 1.393 . S
C923 C922 1.391 . S
H924 C932 0.950 . S
H925 C937 0.950 . S
H926 C934 0.950 . S
H927 C936 0.950 . S
H928 C938 0.950 . S
H929 C940 0.950 . S
H930 C942 0.950 . S
H931 C943 0.950 1_655 S
C932 H924 0.950 . S
C932 C933 1.386 . S
C932 C934 1.391 . S
C933 C932 1.386 . S
C933 C937 1.393 1_655 S
C934 H926 0.950 . S
C934 C932 1.391 . S
C934 C935 1.400 1_655 S
C935 C934 1.400 1_455 S
C935 C936 1.398 . S
C935 C941 1.491 . S
C936 H927 0.950 . S
C936 C935 1.398 . S
C936 C937 1.391 . S
C937 H925 0.950 . S
C937 C933 1.393 1_455 S
C937 C936 1.391 . S
C938 H928 0.950 . S
C938 C939 1.386 . S
C938 C940 1.391 . S
C939 C938 1.386 . S
C939 C943 1.393 . S
C940 H929 0.950 . S
C940 C938 1.391 . S
C940 C941 1.400 . S
C941 C935 1.491 . S
C941 C940 1.400 . S
C941 C942 1.398 1_455 S
C942 H930 0.950 . S
C942 C941 1.398 1_655 S
C942 C943 1.391 1_655 S
C943 H931 0.950 1_455 S
C943 C939 1.393 . S
C943 C942 1.391 1_455 S
H944 C952 0.950 . S
H945 C957 0.950 . S
H946 C954 0.950 . S
H947 C956 0.950 . S
H948 C958 0.950 . S
H949 C960 0.950 . S
H950 C962 0.950 . S
H951 C963 0.950 . S
C952 H944 0.950 . S
C952 C953 1.386 . S
C952 C954 1.391 . S
C953 C952 1.386 . S
C953 C957 1.393 . S
C954 H946 0.950 . S
C954 C952 1.391 . S
C954 C955 1.400 . S
C955 C954 1.400 . S
C955 C956 1.398 . S
C955 C961 1.491 . S
C956 H947 0.950 . S
C956 C955 1.398 . S
C956 C957 1.391 . S
C957 H945 0.950 . S
C957 C953 1.393 . S
C957 C956 1.391 . S
C958 H948 0.950 . S
C958 C959 1.386 . S
C958 C960 1.391 . S
C959 C958 1.386 . S
C959 C963 1.393 . S
C960 H949 0.950 . S
C960 C958 1.391 . S
C960 C961 1.400 . S
C961 C955 1.491 . S
C961 C960 1.400 . S
C961 C962 1.398 . S
C962 H950 0.950 . S
C962 C961 1.398 . S
C962 C963 1.391 . S
C963 H951 0.950 . S
C963 C959 1.393 . S
C963 C962 1.391 . S
H964 C972 0.950 . S
H965 C977 0.950 1_655 S
H966 C974 0.950 . S
H967 C976 0.950 1_655 S
H968 C978 0.950 . S
H969 C980 0.950 . S
H970 C982 0.950 . S
H971 C983 0.950 . S
C972 H964 0.950 . S
C972 C973 1.386 . S
C972 C974 1.391 . S
C973 C972 1.386 . S
C973 C977 1.393 . S
C974 H966 0.950 . S
C974 C972 1.391 . S
C974 C975 1.400 . S
C975 C974 1.400 . S
C975 C976 1.398 . S
C975 C981 1.491 . S
C976 H967 0.950 1_455 S
C976 C975 1.398 . S
C976 C977 1.391 . S
C977 H965 0.950 1_455 S
C977 C973 1.393 . S
C977 C976 1.391 . S
C978 H968 0.950 . S
C978 C979 1.386 . S
C978 C980 1.391 . S
C979 C978 1.386 . S
C979 C983 1.393 1_655 S
C980 H969 0.950 . S
C980 C978 1.391 . S
C980 C981 1.400 1_655 S
C981 C975 1.491 . S
C981 C980 1.400 1_455 S
C981 C982 1.398 . S
C982 H970 0.950 . S
C982 C981 1.398 . S
C982 C983 1.391 . S
C983 H971 0.950 . S
C983 C979 1.393 1_455 S
C983 C982 1.391 . S
H984 C992 0.950 . S
H985 C997 0.950 1_565 S
H986 C994 0.950 . S
H987 C996 0.950 . S
H988 C998 0.950 . S
H989 C1000 0.950 . S
H990 C1002 0.950 . S
H991 C1003 0.950 . S
C992 H984 0.950 . S
C992 C993 1.386 . S
C992 C994 1.391 . S
C993 C992 1.386 . S
C993 C997 1.393 . S
C994 H986 0.950 . S
C994 C992 1.391 . S
C994 C995 1.400 . S
C995 C994 1.400 . S
C995 C996 1.398 1_545 S
C995 C1001 1.491 . S
C996 H987 0.950 . S
C996 C995 1.398 1_565 S
C996 C997 1.391 1_565 S
C997 H985 0.950 1_545 S
C997 C993 1.393 . S
C997 C996 1.391 1_545 S
C998 H988 0.950 . S
C998 C999 1.386 . S
C998 C1000 1.391 . S
C999 C998 1.386 . S
C999 C1003 1.393 1_565 S
C1000 H989 0.950 . S
C1000 C998 1.391 . S
C1000 C1001 1.400 1_565 S
C1001 C995 1.491 . S
C1001 C1000 1.400 1_545 S
C1001 C1002 1.398 . S
C1002 H990 0.950 . S
C1002 C1001 1.398 . S
C1002 C1003 1.391 . S
C1003 H991 0.950 . S
C1003 C999 1.393 1_545 S
C1003 C1002 1.391 . S
H1004 C1012 0.950 . S
H1005 C1017 0.950 . S
H1006 C1014 0.950 . S
H1007 C1016 0.950 . S
H1008 C1018 0.950 . S
H1009 C1020 0.950 . S
H1010 C1022 0.950 . S
H1011 C1023 0.950 . S
C1012 H1004 0.950 . S
C1012 C1013 1.386 . S
C1012 C1014 1.391 . S
C1013 C1012 1.386 . S
C1013 C1017 1.393 . S
C1014 H1006 0.950 . S
C1014 C1012 1.391 . S
C1014 C1015 1.400 . S
C1015 C1014 1.400 . S
C1015 C1016 1.398 . S
C1015 C1021 1.491 . S
C1016 H1007 0.950 . S
C1016 C1015 1.398 . S
C1016 C1017 1.391 . S
C1017 H1005 0.950 . S
C1017 C1013 1.393 . S
C1017 C1016 1.391 . S
C1018 H1008 0.950 . S
C1018 C1019 1.386 . S
C1018 C1020 1.391 . S
C1019 C1018 1.386 . S
C1019 C1023 1.393 . S
C1020 H1009 0.950 . S
C1020 C1018 1.391 . S
C1020 C1021 1.400 . S
C1021 C1015 1.491 . S
C1021 C1020 1.400 . S
C1021 C1022 1.398 . S
C1022 H1010 0.950 . S
C1022 C1021 1.398 . S
C1022 C1023 1.391 . S
C1023 H1011 0.950 . S
C1023 C1019 1.393 . S
C1023 C1022 1.391 . S
H1024 C1032 0.950 . S
H1025 C1037 0.950 . S
H1026 C1034 0.950 . S
H1027 C1036 0.950 . S
H1028 C1038 0.950 . S
H1029 C1040 0.950 . S
H1030 C1042 0.950 . S
H1031 C1043 0.950 1_545 S
C1032 H1024 0.950 . S
C1032 C1033 1.386 . S
C1032 C1034 1.391 . S
C1033 C1032 1.386 . S
C1033 C1037 1.393 1_545 S
C1034 H1026 0.950 . S
C1034 C1032 1.391 . S
C1034 C1035 1.400 1_545 S
C1035 C1034 1.400 1_565 S
C1035 C1036 1.398 . S
C1035 C1041 1.491 . S
C1036 H1027 0.950 . S
C1036 C1035 1.398 . S
C1036 C1037 1.391 . S
C1037 H1025 0.950 . S
C1037 C1033 1.393 1_565 S
C1037 C1036 1.391 . S
C1038 H1028 0.950 . S
C1038 C1039 1.386 . S
C1038 C1040 1.391 . S
C1039 C1038 1.386 . S
C1039 C1043 1.393 . S
C1040 H1029 0.950 . S
C1040 C1038 1.391 . S
C1040 C1041 1.400 . S
C1041 C1035 1.491 . S
C1041 C1040 1.400 . S
C1041 C1042 1.398 1_565 S
C1042 H1030 0.950 . S
C1042 C1041 1.398 1_545 S
C1042 C1043 1.391 1_545 S
C1043 H1031 0.950 1_565 S
C1043 C1039 1.393 . S
C1043 C1042 1.391 1_565 S
H1044 C1052 0.950 . S
H1045 C1057 0.950 . S
H1046 C1054 0.950 . S
H1047 C1056 0.950 . S
H1048 C1058 0.950 . S
H1049 C1060 0.950 . S
H1050 C1062 0.950 . S
H1051 C1063 0.950 . S
C1052 H1044 0.950 . S
C1052 C1053 1.386 . S
C1052 C1054 1.391 . S
C1053 C1052 1.386 . S
C1053 C1057 1.393 . S
C1054 H1046 0.950 . S
C1054 C1052 1.391 . S
C1054 C1055 1.400 . S
C1055 C1054 1.400 . S
C1055 C1056 1.398 . S
C1055 C1061 1.491 . S
C1056 H1047 0.950 . S
C1056 C1055 1.398 . S
C1056 C1057 1.391 . S
C1057 H1045 0.950 . S
C1057 C1053 1.393 . S
C1057 C1056 1.391 . S
C1058 H1048 0.950 . S
C1058 C1059 1.386 . S
C1058 C1060 1.391 . S
C1059 C1058 1.386 . S
C1059 C1063 1.393 . S
C1060 H1049 0.950 . S
C1060 C1058 1.391 . S
C1060 C1061 1.400 . S
C1061 C1055 1.491 . S
C1061 C1060 1.400 . S
C1061 C1062 1.398 . S
C1062 H1050 0.950 . S
C1062 C1061 1.398 . S
C1062 C1063 1.391 . S
C1063 H1051 0.950 . S
C1063 C1059 1.393 . S
C1063 C1062 1.391 . S
H1064 C1072 0.950 . S
H1065 C1077 0.950 . S
H1066 C1074 0.950 . S
H1067 C1076 0.950 . S
H1068 C1078 0.950 . S
H1069 C1080 0.950 . S
H1070 C1082 0.950 . S
H1071 C1083 0.950 . S
C1072 H1064 0.950 . S
C1072 C1073 1.386 . S
C1072 C1074 1.391 . S
C1073 C1072 1.386 . S
C1073 C1077 1.393 . S
C1074 H1066 0.950 . S
C1074 C1072 1.391 . S
C1074 C1075 1.400 . S
C1075 C1074 1.400 . S
C1075 C1076 1.398 . S
C1075 C1081 1.491 . S
C1076 H1067 0.950 . S
C1076 C1075 1.398 . S
C1076 C1077 1.391 . S
C1077 H1065 0.950 . S
C1077 C1073 1.393 . S
C1077 C1076 1.391 . S
C1078 H1068 0.950 . S
C1078 C1079 1.386 . S
C1078 C1080 1.391 . S
C1079 C1078 1.386 . S
C1079 C1083 1.393 . S
C1080 H1069 0.950 . S
C1080 C1078 1.391 . S
C1080 C1081 1.400 . S
C1081 C1075 1.491 . S
C1081 C1080 1.400 . S
C1081 C1082 1.398 . S
C1082 H1070 0.950 . S
C1082 C1081 1.398 . S
C1082 C1083 1.391 . S
C1083 H1071 0.950 . S
C1083 C1079 1.393 . S
C1083 C1082 1.391 . S
H1084 C1092 0.950 . S
H1085 C1097 0.950 . S
H1086 C1094 0.950 . S
H1087 C1096 0.951 . S
H1088 C1098 0.950 . S
H1089 C1100 0.950 . S
H1090 C1102 0.950 . S
H1091 C1103 0.950 . S
C1092 H1084 0.950 . S
C1092 C1093 1.386 . S
C1092 C1094 1.391 1_455 S
C1093 C1092 1.386 . S
C1093 C1097 1.393 . S
C1094 H1086 0.950 . S
C1094 C1092 1.391 1_655 S
C1094 C1095 1.400 . S
C1095 C1094 1.400 . S
C1095 C1096 1.402 . S
C1095 C1101 1.491 . S
C1096 H1087 0.951 . S
C1096 C1095 1.402 . S
C1096 C1097 1.387 1_655 S
C1097 H1085 0.950 . S
C1097 C1093 1.393 . S
C1097 C1096 1.387 1_455 S
C1098 H1088 0.950 . S
C1098 C1099 1.386 . S
C1098 C1100 1.391 . S
C1099 C1098 1.386 . S
C1099 C1103 1.393 . S
C1100 H1089 0.950 . S
C1100 C1098 1.391 . S
C1100 C1101 1.400 . S
C1101 C1095 1.491 . S
C1101 C1100 1.400 . S
C1101 C1102 1.398 . S
C1102 H1090 0.950 . S
C1102 C1101 1.398 . S
C1102 C1103 1.391 . S
C1103 H1091 0.950 . S
C1103 C1099 1.393 . S
C1103 C1102 1.391 . S
H1104 C1112 0.950 . S
H1105 C1117 0.950 . S
H1106 C1114 0.950 . S
H1107 C1116 0.950 . S
H1108 C1118 0.950 . S
H1109 C1120 0.950 . S
H1110 C1122 0.950 . S
H1111 C1123 0.950 . S
C1112 H1104 0.950 . S
C1112 C1113 1.386 . S
C1112 C1114 1.391 . S
C1113 C1112 1.386 . S
C1113 C1117 1.393 . S
C1114 H1106 0.950 . S
C1114 C1112 1.391 . S
C1114 C1115 1.400 . S
C1115 C1114 1.400 . S
C1115 C1116 1.398 . S
C1115 C1121 1.491 . S
C1116 H1107 0.950 . S
C1116 C1115 1.398 . S
C1116 C1117 1.391 . S
C1117 H1105 0.950 . S
C1117 C1113 1.393 . S
C1117 C1116 1.391 . S
C1118 H1108 0.950 . S
C1118 C1119 1.386 . S
C1118 C1120 1.391 . S
C1119 C1118 1.386 . S
C1119 C1123 1.393 . S
C1120 H1109 0.950 . S
C1120 C1118 1.391 . S
C1120 C1121 1.400 . S
C1121 C1115 1.491 . S
C1121 C1120 1.400 . S
C1121 C1122 1.398 . S
C1122 H1110 0.950 . S
C1122 C1121 1.398 . S
C1122 C1123 1.391 . S
C1123 H1111 0.950 . S
C1123 C1119 1.393 . S
C1123 C1122 1.391 . S
H1124 C1132 0.950 . S
H1125 C1137 0.950 . S
H1126 C1134 0.950 . S
H1127 C1136 0.950 . S
H1128 C1138 0.950 . S
H1129 C1140 0.950 . S
H1130 C1142 0.950 . S
H1131 C1143 0.950 . S
C1132 H1124 0.950 . S
C1132 C1133 1.386 . S
C1132 C1134 1.391 1_455 S
C1133 C1132 1.386 . S
C1133 C1137 1.393 . S
C1134 H1126 0.950 . S
C1134 C1132 1.391 1_655 S
C1134 C1135 1.400 . S
C1135 C1134 1.400 . S
C1135 C1136 1.398 1_655 S
C1135 C1141 1.491 . S
C1136 H1127 0.950 . S
C1136 C1135 1.398 1_455 S
C1136 C1137 1.391 . S
C1137 H1125 0.950 . S
C1137 C1133 1.393 . S
C1137 C1136 1.391 . S
C1138 H1128 0.950 . S
C1138 C1139 1.386 . S
C1138 C1140 1.391 . S
C1139 C1138 1.386 . S
C1139 C1143 1.393 . S
C1140 H1129 0.950 . S
C1140 C1138 1.391 . S
C1140 C1141 1.400 . S
C1141 C1135 1.491 . S
C1141 C1140 1.400 . S
C1141 C1142 1.398 . S
C1142 H1130 0.950 . S
C1142 C1141 1.398 . S
C1142 C1143 1.391 . S
C1143 H1131 0.950 . S
C1143 C1139 1.393 . S
C1143 C1142 1.391 . S
H1144 C1152 0.950 . S
H1145 C1157 0.950 1_545 S
H1146 C1154 0.950 . S
H1147 C1156 0.950 . S
H1148 C1158 0.950 . S
H1149 C1160 0.950 . S
H1150 C1162 0.950 . S
H1151 C1163 0.950 . S
C1152 H1144 0.950 . S
C1152 C1153 1.386 . S
C1152 C1154 1.391 . S
C1153 C1152 1.386 . S
C1153 C1157 1.393 . S
C1154 H1146 0.950 . S
C1154 C1152 1.391 . S
C1154 C1155 1.400 . S
C1155 C1154 1.400 . S
C1155 C1156 1.398 1_565 S
C1155 C1161 1.491 . S
C1156 H1147 0.950 . S
C1156 C1155 1.398 1_545 S
C1156 C1157 1.391 1_545 S
C1157 H1145 0.950 1_565 S
C1157 C1153 1.393 . S
C1157 C1156 1.391 1_565 S
C1158 H1148 0.950 . S
C1158 C1159 1.386 . S
C1158 C1160 1.391 . S
C1159 C1158 1.386 . S
C1159 C1163 1.393 1_545 S
C1160 H1149 0.950 . S
C1160 C1158 1.391 . S
C1160 C1161 1.400 1_545 S
C1161 C1155 1.491 . S
C1161 C1160 1.400 1_565 S
C1161 C1162 1.398 . S
C1162 H1150 0.950 . S
C1162 C1161 1.398 . S
C1162 C1163 1.391 . S
C1163 H1151 0.950 . S
C1163 C1159 1.393 1_565 S
C1163 C1162 1.391 . S
H1164 C1172 0.950 . S
H1165 C1177 0.950 . S
H1166 C1174 0.950 . S
H1167 C1176 0.950 . S
H1168 C1178 0.950 . S
H1169 C1180 0.950 . S
H1170 C1182 0.950 . S
H1171 C1183 0.950 . S
C1172 H1164 0.950 . S
C1172 C1173 1.386 . S
C1172 C1174 1.391 . S
C1173 C1172 1.386 . S
C1173 C1177 1.393 . S
C1174 H1166 0.950 . S
C1174 C1172 1.391 . S
C1174 C1175 1.400 . S
C1175 C1174 1.400 . S
C1175 C1176 1.398 . S
C1175 C1181 1.491 . S
C1176 H1167 0.950 . S
C1176 C1175 1.398 . S
C1176 C1177 1.391 . S
C1177 H1165 0.950 . S
C1177 C1173 1.393 . S
C1177 C1176 1.391 . S
C1178 H1168 0.950 . S
C1178 C1179 1.386 . S
C1178 C1180 1.391 . S
C1179 C1178 1.386 . S
C1179 C1183 1.393 . S
C1180 H1169 0.950 . S
C1180 C1178 1.391 . S
C1180 C1181 1.400 . S
C1181 C1175 1.491 . S
C1181 C1180 1.400 . S
C1181 C1182 1.398 . S
C1182 H1170 0.950 . S
C1182 C1181 1.398 . S
C1182 C1183 1.391 . S
C1183 H1171 0.950 . S
C1183 C1179 1.393 . S
C1183 C1182 1.391 . S
H1184 C1192 0.950 . S
H1185 C1197 0.950 . S
H1186 C1194 0.950 . S
H1187 C1196 0.950 . S
H1188 C1198 0.950 . S
H1189 C1200 0.950 . S
H1190 C1202 0.950 . S
H1191 C1203 0.950 . S
C1192 H1184 0.950 . S
C1192 C1193 1.386 . S
C1192 C1194 1.391 . S
C1193 C1192 1.386 . S
C1193 C1197 1.393 . S
C1194 H1186 0.950 . S
C1194 C1192 1.391 . S
C1194 C1195 1.400 . S
C1195 C1194 1.400 . S
C1195 C1196 1.398 . S
C1195 C1201 1.491 . S
C1196 H1187 0.950 . S
C1196 C1195 1.398 . S
C1196 C1197 1.391 . S
C1197 H1185 0.950 . S
C1197 C1193 1.393 . S
C1197 C1196 1.391 . S
C1198 H1188 0.950 . S
C1198 C1199 1.386 . S
C1198 C1200 1.391 . S
C1199 C1198 1.386 . S
C1199 C1203 1.393 . S
C1200 H1189 0.950 . S
C1200 C1198 1.391 . S
C1200 C1201 1.400 . S
C1201 C1195 1.491 . S
C1201 C1200 1.400 . S
C1201 C1202 1.398 . S
C1202 H1190 0.950 . S
C1202 C1201 1.398 . S
C1202 C1203 1.391 . S
C1203 H1191 0.950 . S
C1203 C1199 1.393 . S
C1203 C1202 1.391 . S
H1204 C1212 0.950 . S
H1205 C1217 0.950 . S
H1206 C1214 0.950 . S
H1207 C1216 0.950 . S
H1208 C1218 0.950 . S
H1209 C1220 0.950 . S
H1210 C1222 0.950 . S
H1211 C1223 0.950 . S
C1212 H1204 0.950 . S
C1212 C1213 1.386 . S
C1212 C1214 1.391 . S
C1213 C1212 1.386 . S
C1213 C1217 1.393 . S
C1214 H1206 0.950 . S
C1214 C1212 1.391 . S
C1214 C1215 1.400 . S
C1215 C1214 1.400 . S
C1215 C1216 1.398 . S
C1215 C1221 1.491 . S
C1216 H1207 0.950 . S
C1216 C1215 1.398 . S
C1216 C1217 1.391 . S
C1217 H1205 0.950 . S
C1217 C1213 1.393 . S
C1217 C1216 1.391 . S
C1218 H1208 0.950 . S
C1218 C1219 1.386 . S
C1218 C1220 1.391 . S
C1219 C1218 1.386 . S
C1219 C1223 1.393 . S
C1220 H1209 0.950 . S
C1220 C1218 1.391 . S
C1220 C1221 1.400 . S
C1221 C1215 1.491 . S
C1221 C1220 1.400 . S
C1221 C1222 1.398 . S
C1222 H1210 0.950 . S
C1222 C1221 1.398 . S
C1222 C1223 1.391 . S
C1223 H1211 0.950 . S
C1223 C1219 1.393 . S
C1223 C1222 1.391 . S
H1224 C1232 0.950 . S
H1225 C1237 0.950 . S
H1226 C1234 0.950 . S
H1227 C1236 0.950 . S
H1228 C1238 0.950 . S
H1229 C1240 0.950 . S
H1230 C1242 0.950 . S
H1231 C1243 0.950 . S
C1232 H1224 0.950 . S
C1232 C1233 1.386 . S
C1232 C1234 1.391 . S
C1233 C1232 1.386 . S
C1233 C1237 1.393 . S
C1234 H1226 0.950 . S
C1234 C1232 1.391 . S
C1234 C1235 1.400 . S
C1235 C1234 1.400 . S
C1235 C1236 1.398 . S
C1235 C1241 1.491 . S
C1236 H1227 0.950 . S
C1236 C1235 1.398 . S
C1236 C1237 1.391 . S
C1237 H1225 0.950 . S
C1237 C1233 1.393 . S
C1237 C1236 1.391 . S
C1238 H1228 0.950 . S
C1238 C1239 1.386 . S
C1238 C1240 1.391 . S
C1239 C1238 1.386 . S
C1239 C1243 1.393 . S
C1240 H1229 0.950 . S
C1240 C1238 1.391 . S
C1240 C1241 1.400 . S
C1241 C1235 1.491 . S
C1241 C1240 1.400 . S
C1241 C1242 1.398 . S
C1242 H1230 0.950 . S
C1242 C1241 1.398 . S
C1242 C1243 1.391 . S
C1243 H1231 0.950 . S
C1243 C1239 1.393 . S
C1243 C1242 1.391 . S
H1244 C1252 0.950 . S
H1245 C1257 0.950 . S
H1246 C1254 0.950 . S
H1247 C1256 0.950 . S
H1248 C1258 0.950 . S
H1249 C1260 0.950 . S
H1250 C1262 0.950 . S
H1251 C1263 0.950 . S
C1252 H1244 0.950 . S
C1252 C1253 1.386 . S
C1252 C1254 1.391 . S
C1253 C1252 1.386 . S
C1253 C1257 1.393 . S
C1254 H1246 0.950 . S
C1254 C1252 1.391 . S
C1254 C1255 1.400 . S
C1255 C1254 1.400 . S
C1255 C1256 1.398 . S
C1255 C1261 1.491 . S
C1256 H1247 0.950 . S
C1256 C1255 1.398 . S
C1256 C1257 1.391 . S
C1257 H1245 0.950 . S
C1257 C1253 1.393 . S
C1257 C1256 1.391 . S
C1258 H1248 0.950 . S
C1258 C1259 1.386 . S
C1258 C1260 1.391 . S
C1259 C1258 1.386 . S
C1259 C1263 1.393 . S
C1260 H1249 0.950 . S
C1260 C1258 1.391 . S
C1260 C1261 1.400 . S
C1261 C1255 1.491 . S
C1261 C1260 1.400 . S
C1261 C1262 1.398 . S
C1262 H1250 0.950 . S
C1262 C1261 1.398 . S
C1262 C1263 1.391 . S
C1263 H1251 0.950 . S
C1263 C1259 1.393 . S
C1263 C1262 1.391 . S
H1264 C1272 0.950 . S
H1265 C1277 0.950 . S
H1266 C1274 0.950 . S
H1267 C1276 0.950 . S
H1268 C1278 0.950 . S
H1269 C1280 0.950 . S
H1270 C1282 0.950 . S
H1271 C1283 0.950 . S
C1272 H1264 0.950 . S
C1272 C1273 1.386 . S
C1272 C1274 1.391 . S
C1273 C1272 1.386 . S
C1273 C1277 1.393 . S
C1274 H1266 0.950 . S
C1274 C1272 1.391 . S
C1274 C1275 1.400 . S
C1275 C1274 1.400 . S
C1275 C1276 1.398 . S
C1275 C1281 1.491 . S
C1276 H1267 0.950 . S
C1276 C1275 1.398 . S
C1276 C1277 1.391 . S
C1277 H1265 0.950 . S
C1277 C1273 1.393 . S
C1277 C1276 1.391 . S
C1278 H1268 0.950 . S
C1278 C1279 1.386 . S
C1278 C1280 1.391 . S
C1279 C1278 1.386 . S
C1279 C1283 1.393 . S
C1280 H1269 0.950 . S
C1280 C1278 1.391 . S
C1280 C1281 1.400 . S
C1281 C1275 1.491 . S
C1281 C1280 1.400 . S
C1281 C1282 1.398 . S
C1282 H1270 0.950 . S
C1282 C1281 1.398 . S
C1282 C1283 1.391 . S
C1283 H1271 0.950 . S
C1283 C1279 1.393 . S
C1283 C1282 1.391 . S
H1284 C1292 0.950 . S
H1285 C1297 0.950 . S
H1286 C1294 0.950 . S
H1287 C1296 0.950 . S
H1288 C1298 0.950 . S
H1289 C1300 0.950 . S
H1290 C1302 0.950 . S
H1291 C1303 0.950 . S
C1292 H1284 0.950 . S
C1292 C1293 1.386 . S
C1292 C1294 1.391 . S
C1293 C1292 1.386 . S
C1293 C1297 1.393 . S
C1294 H1286 0.950 . S
C1294 C1292 1.391 . S
C1294 C1295 1.400 . S
C1295 C1294 1.400 . S
C1295 C1296 1.398 . S
C1295 C1301 1.491 . S
C1296 H1287 0.950 . S
C1296 C1295 1.398 . S
C1296 C1297 1.391 . S
C1297 H1285 0.950 . S
C1297 C1293 1.393 . S
C1297 C1296 1.391 . S
C1298 H1288 0.950 . S
C1298 C1299 1.386 . S
C1298 C1300 1.391 . S
C1299 C1298 1.386 . S
C1299 C1303 1.393 . S
C1300 H1289 0.950 . S
C1300 C1298 1.391 . S
C1300 C1301 1.400 . S
C1301 C1295 1.491 . S
C1301 C1300 1.400 . S
C1301 C1302 1.398 . S
C1302 H1290 0.950 . S
C1302 C1301 1.398 . S
C1302 C1303 1.391 . S
C1303 H1291 0.950 . S
C1303 C1299 1.393 . S
C1303 C1302 1.391 . S
H1304 C1312 0.950 . S
H1305 C1317 0.950 . S
H1306 C1314 0.950 . S
H1307 C1316 0.950 . S
H1308 C1318 0.950 . S
H1309 C1320 0.950 . S
H1310 C1322 0.950 . S
H1311 C1323 0.950 . S
C1312 H1304 0.950 . S
C1312 C1313 1.386 . S
C1312 C1314 1.391 . S
C1313 C1312 1.386 . S
C1313 C1317 1.393 . S
C1314 H1306 0.950 . S
C1314 C1312 1.391 . S
C1314 C1315 1.400 . S
C1315 C1314 1.400 . S
C1315 C1316 1.398 . S
C1315 C1321 1.491 . S
C1316 H1307 0.950 . S
C1316 C1315 1.398 . S
C1316 C1317 1.391 . S
C1317 H1305 0.950 . S
C1317 C1313 1.393 . S
C1317 C1316 1.391 . S
C1318 H1308 0.950 . S
C1318 C1319 1.386 . S
C1318 C1320 1.391 . S
C1319 C1318 1.386 . S
C1319 C1323 1.393 . S
C1320 H1309 0.950 . S
C1320 C1318 1.391 . S
C1320 C1321 1.400 . S
C1321 C1315 1.491 . S
C1321 C1320 1.400 . S
C1321 C1322 1.398 . S
C1322 H1310 0.950 . S
C1322 C1321 1.398 . S
C1322 C1323 1.391 . S
C1323 H1311 0.950 . S
C1323 C1319 1.393 . S
C1323 C1322 1.391 . S
H1324 C1332 0.950 . S
H1325 C1337 0.950 . S
H1326 C1334 0.950 . S
H1327 C1336 0.950 . S
H1328 C1338 0.950 . S
H1329 C1340 0.950 . S
H1330 C1342 0.950 . S
H1331 C1343 0.950 . S
C1332 H1324 0.950 . S
C1332 C1333 1.386 . S
C1332 C1334 1.391 . S
C1333 C1332 1.386 . S
C1333 C1337 1.393 . S
C1334 H1326 0.950 . S
C1334 C1332 1.391 . S
C1334 C1335 1.400 . S
C1335 C1334 1.400 . S
C1335 C1336 1.398 . S
C1335 C1341 1.491 . S
C1336 H1327 0.950 . S
C1336 C1335 1.398 . S
C1336 C1337 1.391 . S
C1337 H1325 0.950 . S
C1337 C1333 1.393 . S
C1337 C1336 1.391 . S
C1338 H1328 0.950 . S
C1338 C1339 1.386 . S
C1338 C1340 1.391 . S
C1339 C1338 1.386 . S
C1339 C1343 1.393 . S
C1340 H1329 0.950 . S
C1340 C1338 1.391 . S
C1340 C1341 1.400 . S
C1341 C1335 1.491 . S
C1341 C1340 1.400 . S
C1341 C1342 1.398 . S
C1342 H1330 0.950 . S
C1342 C1341 1.398 . S
C1342 C1343 1.391 . S
C1343 H1331 0.950 . S
C1343 C1339 1.393 . S
C1343 C1342 1.391 . S
C553 C5 1.540 . S
C559 C243 1.534 . S
C573 C141 1.542 . S
C579 C39 1.534 . S
C593 C175 1.542 . S
C599 C73 1.534 . S
C613 C209 1.540 . S
C619 C107 1.534 . S
C633 C277 1.541 . S
C639 C515 1.533 . S
C653 C311 1.542 . S
C659 C413 1.533 . S
C673 C447 1.542 . S
C679 C345 1.533 . S
C693 C379 1.540 . S
C699 C481 1.534 . S
C713 C9 1.513 . S
C719 C281 1.513 . S
C733 C315 1.512 . S
C739 C43 1.512 . S
C753 C349 1.510 . S
C759 C77 1.510 . S
C773 C111 1.497 . S
C779 C383 1.497 . S
C793 C417 1.527 . S
C799 C145 1.527 . S
C813 C451 1.497 . S
C819 C179 1.497 . S
C833 C213 1.507 . S
C839 C485 1.507 . S
C853 C519 1.516 . S
C859 C247 1.516 . S
C873 C20 0.949 . S
C879 C478 0.927 . S
C893 C512 0.949 . S
C899 C54 0.935 . S
C913 C88 0.934 . S
C919 C410 0.949 . S
C933 C444 0.940 . S
C939 C122 0.935 . S
C953 C156 0.934 . S
C959 C342 0.949 . S
C973 C190 0.935 . S
C979 C376 0.949 . S
C993 C224 0.937 . S
C999 C274 0.948 . S
C1013 C258 0.937 . S
C1019 C308 0.937 . S
C1033 C206 0.945 . S
C1039 C292 0.940 . S
C1053 C240 0.932 . S
C1059 C326 0.949 . S
C1073 C360 0.943 . S
C1079 C138 0.930 . S
C1093 C172 0.928 . S
C1099 C394 0.949 . S
C1113 C70 0.949 . S
C1119 C428 0.936 . S
C1133 C104 0.928 . S
C1139 C462 0.949 . S
C1153 C496 0.939 . S
C1159 C2 0.934 . S
C1173 C36 0.944 . S
C1179 C530 0.942 . S
C1193 C101 1.226 . S
C1199 C33 1.227 . S
C1213 C135 1.211 . S
C1219 C67 1.208 . S
C1233 C169 1.220 . S
C1239 C237 1.217 . S
C1253 C271 1.192 . S
C1259 C203 1.194 . S
C1273 C305 1.222 . S
C1279 C373 1.224 . S
C1293 C407 1.223 . S
C1299 C339 1.221 . S
C1313 C441 1.200 . S
C1319 C509 1.203 . S
C1333 C475 1.205 . S
C1339 C543 1.202 . S
