# Generated by pormake.
# Topology sml, (6)-cn, num edge types: 1
# Building blocks:
#     Node 0, Type 0, BuildingBlock: MIDCAF_clean_sbu_0, # of connection points: 6
#     Node 1, Type 0, BuildingBlock: MIDCAF_clean_sbu_0, # of connection points: 6
#     Node 2, Type 0, BuildingBlock: MIDCAF_clean_sbu_0, # of connection points: 6
#     Node 3, Type 0, BuildingBlock: MIDCAF_clean_sbu_0, # of connection points: 6
#     Node 4, Type 0, BuildingBlock: MIDCAF_clean_sbu_0, # of connection points: 6
#     Node 5, Type 0, BuildingBlock: MIDCAF_clean_sbu_0, # of connection points: 6
#     Edge 6, Type (0, 0), BuildingBlock: KIFKEQ_clean_linker_1, # of connection points: 2
#     Edge 7, Type (0, 0), BuildingBlock: KIFKEQ_clean_linker_1, # of connection points: 2
#     Edge 8, Type (0, 0), BuildingBlock: KIFKEQ_clean_linker_1, # of connection points: 2
#     Edge 9, Type (0, 0), BuildingBlock: KIFKEQ_clean_linker_1, # of connection points: 2
#     Edge 10, Type (0, 0), BuildingBlock: KIFKEQ_clean_linker_1, # of connection points: 2
#     Edge 11, Type (0, 0), BuildingBlock: KIFKEQ_clean_linker_1, # of connection points: 2
#     Edge 12, Type (0, 0), BuildingBlock: KIFKEQ_clean_linker_1, # of connection points: 2
#     Edge 13, Type (0, 0), BuildingBlock: KIFKEQ_clean_linker_1, # of connection points: 2
#     Edge 14, Type (0, 0), BuildingBlock: KIFKEQ_clean_linker_1, # of connection points: 2
#     Edge 15, Type (0, 0), BuildingBlock: KIFKEQ_clean_linker_1, # of connection points: 2
#     Edge 16, Type (0, 0), BuildingBlock: KIFKEQ_clean_linker_1, # of connection points: 2
#     Edge 17, Type (0, 0), BuildingBlock: KIFKEQ_clean_linker_1, # of connection points: 2
#     Edge 18, Type (0, 0), BuildingBlock: KIFKEQ_clean_linker_1, # of connection points: 2
#     Edge 19, Type (0, 0), BuildingBlock: KIFKEQ_clean_linker_1, # of connection points: 2
#     Edge 20, Type (0, 0), BuildingBlock: KIFKEQ_clean_linker_1, # of connection points: 2
#     Edge 21, Type (0, 0), BuildingBlock: KIFKEQ_clean_linker_1, # of connection points: 2
#     Edge 22, Type (0, 0), BuildingBlock: KIFKEQ_clean_linker_1, # of connection points: 2
#     Edge 23, Type (0, 0), BuildingBlock: KIFKEQ_clean_linker_1, # of connection points: 2
# Relax obj value: 0.361
# Max RMSD: 0.205
# Mean RMSD: 0.205
data_MOF--net-sml--node1-MIDCAF_clean_sbu_0--edge1-KIFKEQ_clean_linker_1
_symmetry_space_group_name_H-M    P1
_symmetry_Int_Tables_number       1
_symmetry_cell_setting            triclinic
loop_
_symmetry_equiv_pos_as_xyz
'x, y, z'
_cell_length_a     40.133724
_cell_length_b     40.188301
_cell_length_c     13.768824
_cell_angle_alpha  88.666951
_cell_angle_beta   89.786172
_cell_angle_gamma 120.19927
loop_
_atom_site_label
_atom_site_type_symbol
_atom_site_fract_x
_atom_site_fract_y
_atom_site_fract_z
_atom_type_partial_charge
Zn0 Zn 0.23238 0.4217 0.84174 0.0
Zn1 Zn 0.22738 0.41762 0.1617 0.0
Zn2 Zn 0.23593 0.43939 0.00296 0.0
C3 C 0.16861 0.35508 0.11205 0.0
C4 C 0.29146 0.47229 0.19057 0.0
O5 O 0.2971 0.47578 0.98925 0.0
O6 O 0.28964 0.46639 0.83206 0.0
C7 C 0.20909 0.46625 0.8096 0.0
O8 O 0.18346 0.37778 0.03617 0.0
O9 O 0.18769 0.36405 0.18916 0.0
O10 O 0.28001 0.43773 0.21595 0.0
O11 O 0.27923 0.47849 0.10984 0.0
O12 O 0.19152 0.43126 0.78752 0.0
O13 O 0.22677 0.47486 0.89065 0.0
O14 O 0.23255 0.38151 0.98601 0.0
O15 O 0.22584 0.37057 0.82984 0.0
C16 C 0.23121 0.36105 0.91357 0.0
O17 O 0.20231 0.46576 0.01683 0.0
O18 O 0.20524 0.45446 0.17272 0.0
C19 C 0.3112 0.48423 0.90258 0.0
C20 C 0.19642 0.47068 0.10525 0.0
Zn21 Zn 0.76221 0.2079 0.48659 0.0
Zn22 Zn 0.86848 0.27709 0.06947 0.0
Zn23 Zn 0.81325 0.23555 0.29448 0.0
C24 C 0.88941 0.23047 0.20775 0.0
C25 C 0.78734 0.22173 0.11981 0.0
O26 O 0.74603 0.20809 0.28389 0.0
O27 O 0.71282 0.1792 0.42115 0.0
C28 C 0.81396 0.28493 0.43761 0.0
O29 O 0.86033 0.21898 0.26891 0.0
O30 O 0.8946 0.25244 0.13434 0.0
O31 O 0.82137 0.24613 0.1358 0.0
O32 O 0.7651 0.20954 0.19345 0.0
O33 O 0.77963 0.26043 0.42139 0.0
O34 O 0.83778 0.28777 0.37266 0.0
O35 O 0.82781 0.19282 0.35285 0.0
O36 O 0.78979 0.17661 0.48445 0.0
C37 C 0.81258 0.17162 0.43052 0.0
O38 O 0.8459 0.30158 0.26534 0.0
O39 O 0.87995 0.327 0.1262 0.0
C40 C 0.71351 0.1891 0.33276 0.0
C41 C 0.86709 0.3309 0.20735 0.0
Zn42 Zn 0.61541 0.8103 0.81655 0.0
Zn43 Zn 0.61322 0.83709 0.49145 0.0
Zn44 Zn 0.60117 0.81372 0.65412 0.0
C45 C 0.67836 0.89248 0.5589 0.0
C46 C 0.57911 0.76596 0.45977 0.0
O47 O 0.56953 0.75129 0.65694 0.0
O48 O 0.5723 0.75366 0.81651 0.0
C49 C 0.57119 0.83401 0.85108 0.0
O50 O 0.66299 0.86717 0.63003 0.0
O51 O 0.66082 0.88618 0.4799 0.0
O52 O 0.61191 0.79187 0.42945 0.0
O53 O 0.56894 0.76853 0.54653 0.0
O54 O 0.60565 0.84926 0.87798 0.0
O55 O 0.56337 0.81945 0.76617 0.0
O56 O 0.66429 0.82909 0.67455 0.0
O57 O 0.66609 0.8169 0.83069 0.0
C58 C 0.68202 0.82468 0.74797 0.0
O59 O 0.56223 0.83549 0.65871 0.0
O60 O 0.56418 0.84019 0.49869 0.0
C61 C 0.55843 0.73425 0.74073 0.0
C62 C 0.54871 0.84043 0.5789 0.0
Zn63 Zn 0.81865 0.62031 0.10915 0.0
Zn64 Zn 0.7348 0.58592 0.93968 0.0
Zn65 Zn 0.79348 0.58753 0.95465 0.0
C66 C 0.7753 0.65796 0.95268 0.0
C67 C 0.75141 0.57229 0.76079 0.0
O68 O 0.83386 0.56952 0.01021 0.0
O69 O 0.82494 0.57551 0.1645 0.0
C70 C 0.74657 0.57957 0.13899 0.0
O71 O 0.79753 0.64517 0.92545 0.0
O72 O 0.74326 0.63493 -0.00553 0.0
O73 O 0.73974 0.5935 0.79512 0.0
O74 O 0.77019 0.56157 0.81584 0.0
O75 O 0.76804 0.61548 0.15049 0.0
O76 O 0.75656 0.56303 0.07747 0.0
O77 O 0.85623 0.6112 0.9603 0.0
O78 O 0.86565 0.66295 0.03478 0.0
C79 C 0.87957 0.64549 0.98899 0.0
O80 O 0.74794 0.52973 0.90963 0.0
O81 O 0.69636 0.52876 0.96987 0.0
C82 C 0.83427 0.55968 0.09978 0.0
C83 C 0.71167 0.51098 0.93169 0.0
Zn84 Zn 0.21122 0.7544 0.53855 0.0
Zn85 Zn 0.23663 0.78432 0.17947 0.0
Zn86 Zn 0.21792 0.79439 0.32628 0.0
C87 C 0.15366 0.74484 0.19555 0.0
C88 C 0.24495 0.84744 0.13615 0.0
O89 O 0.27193 0.799 0.36671 0.0
O90 O 0.25047 0.74659 0.4615 0.0
C91 C 0.16737 0.78686 0.4947 0.0
O92 O 0.16256 0.74477 0.28531 0.0
O93 O 0.18079 0.76244 0.13358 0.0
O94 O 0.27089 0.83845 0.1248 0.0
O95 O 0.22157 0.83231 0.20834 0.0
O96 O 0.16088 0.75245 0.49496 0.0
O97 O 0.19349 0.81095 0.436 0.0
O98 O 0.24611 0.82929 0.4558 0.0
O99 O 0.24615 0.80512 0.602 0.0
C100 C 0.25702 0.83409 0.54482 0.0
O101 O 0.19814 0.73199 0.31126 0.0
O102 O 0.24752 0.74233 0.2177 0.0
C103 C 0.27817 0.77554 0.41713 0.0
C104 C 0.21806 0.71931 0.26887 0.0
Zn105 Zn 0.47774 0.25912 0.9234 0.0
Zn106 Zn 0.38962 0.14714 0.50322 0.0
Zn107 Zn 0.43369 0.19979 0.68058 0.0
C108 C 0.3874 0.10426 0.67429 0.0
C109 C 0.37833 0.20432 0.56686 0.0
O110 O 0.49746 0.2341 0.64998 0.0
O111 O 0.48519 0.23952 0.79686 0.0
C112 C 0.43114 0.17756 0.88112 0.0
O113 O 0.40219 0.13613 0.72077 0.0
O114 O 0.38272 0.1032 0.58322 0.0
O115 O 0.3659 0.16972 0.59067 0.0
O116 O 0.40449 0.2281 0.6214 0.0
O117 O 0.4628 0.20768 0.86058 0.0
O118 O 0.411 0.15972 0.80836 0.0
O119 O 0.41216 0.23921 0.73748 0.0
O120 O 0.43583 0.27078 0.87843 0.0
C121 C 0.41302 0.26153 0.80606 0.0
O122 O 0.47912 0.20792 0.57374 0.0
O123 O 0.44515 0.17511 0.44676 0.0
C124 C 0.50991 0.25163 0.7288 0.0
C125 C 0.4775 0.19586 0.48666 0.0
H126 H 0.33726 0.22357 0.74724 0.0
H127 H 0.42236 0.32745 0.8819 0.0
H128 H 0.28742 0.23954 0.78684 0.0
H129 H 0.37344 0.3441 0.91863 0.0
H130 H 0.2195 0.30574 0.78494 0.0
H131 H 0.26152 0.27966 0.75626 0.0
H132 H 0.32093 0.32916 0.02202 0.0
H133 H 0.27969 0.35682 0.04814 0.0
C134 C 0.34554 0.25032 0.78288 0.0
C135 C 0.38393 0.27427 0.81085 0.0
C136 C 0.31687 0.25942 0.80651 0.0
C137 C 0.3259 0.29286 0.85824 0.0
C138 C 0.36473 0.31748 0.88199 0.0
C139 C 0.3931 0.30824 0.85926 0.0
C140 C 0.24077 0.31013 0.83905 0.0
C141 C 0.24627 0.33378 0.9186 0.0
C142 C 0.26513 0.29516 0.82227 0.0
C143 C 0.2957 0.30308 0.88495 0.0
C144 C 0.29866 0.32344 0.96996 0.0
C145 C 0.27434 0.33864 0.98646 0.0
H146 H 0.13299 0.30411 0.26447 0.0
H147 H 0.10882 0.33476 0.98158 0.0
H148 H 0.06428 0.26372 0.29899 0.0
H149 H 0.03941 0.29287 0.01576 0.0
H150 H 0.91638 0.198 0.08364 0.0
H151 H 0.98501 0.22227 0.05492 0.0
H152 H 1.01039 0.27983 0.32781 0.0
H153 H 0.9416 0.25649 0.35478 0.0
C154 C 0.11315 0.30158 0.20815 0.0
C155 C 0.12705 0.32316 0.11977 0.0
C156 C 0.07348 0.27843 0.22872 0.0
C157 C 0.046 0.27515 0.16098 0.0
C158 C 0.05967 0.29453 0.06984 0.0
C159 C 0.09961 0.31845 0.04977 0.0
C160 C 0.93632 0.21399 0.14041 0.0
C161 C 0.92297 0.22467 0.22248 0.0
C162 C 0.97592 0.2288 0.1225 0.0
C163 C 1.00356 0.25387 0.18763 0.0
C164 C 0.99004 0.26073 0.27557 0.0
C165 C 0.95032 0.24653 0.29246 0.0
H166 H 0.81721 0.14276 0.60769 0.0
H167 H 0.80432 0.11596 0.30435 0.0
H168 H 0.79465 0.07554 0.65142 0.0
H169 H 0.7804 0.04828 0.34731 0.0
H170 H 0.7398 0.9263 0.43398 0.0
H171 H 0.78347 0.99519 0.4069 0.0
H172 H 0.73627 0.01749 0.66333 0.0
H173 H 0.69367 0.94827 0.69148 0.0
C174 C 0.81085 0.12268 0.54988 0.0
C175 C 0.8132 0.13519 0.45218 0.0
C176 C 0.79703 0.0837 0.57514 0.0
C177 C 0.78456 0.05551 0.50368 0.0
C178 C 0.78979 0.06861 0.40533 0.0
C179 C 0.80399 0.10781 0.38005 0.0
C180 C 0.74005 0.94588 0.48718 0.0
C181 C 0.71362 0.93142 0.56619 0.0
C182 C 0.76462 0.9857 0.47039 0.0
C183 C 0.76333 0.01278 0.53124 0.0
C184 C 0.73881 0.99812 0.61458 0.0
C185 C 0.71443 0.95809 0.63181 0.0
H186 H 0.74503 0.85548 0.8615 0.0
H187 H 0.69327 0.77889 0.62417 0.0
H188 H 0.78119 0.82353 0.9041 0.0
H189 H 0.72932 0.74653 0.66699 0.0
H190 H 0.79956 0.69223 0.77183 0.0
H191 H 0.7901 0.74354 0.70097 0.0
H192 H 0.75124 0.75824 0.98094 0.0
H193 H 0.76001 0.7069 0.05032 0.0
C194 C 0.743 0.83318 0.81495 0.0
C195 C 0.7163 0.81991 0.73911 0.0
C196 C 0.76325 0.81434 0.84052 0.0
C197 C 0.75748 0.78172 0.79077 0.0
C198 C 0.73455 0.77152 0.70713 0.0
C199 C 0.71418 0.79045 0.68154 0.0
C200 C 0.79046 0.70753 0.81886 0.0
C201 C 0.78104 0.69582 0.91717 0.0
C202 C 0.78452 0.73658 0.77793 0.0
C203 C 0.76983 0.75515 0.83492 0.0
C204 C 0.76306 0.74512 0.93474 0.0
C205 C 0.76819 0.71566 0.9749 0.0
H206 H 0.12986 0.75838 0.02308 0.0
H207 H 0.08594 0.69092 0.29033 0.0
H208 H 0.06448 0.73354 0.9666 0.0
H209 H 0.01968 0.66481 0.23085 0.0
H210 H 0.91451 0.60206 0.00585 0.0
H211 H 0.98041 0.6237 0.05836 0.0
H212 H 1.00495 0.74122 0.05099 0.0
H213 H 0.93861 0.71961 0.00235 0.0
C214 C 0.10627 0.73785 0.06959 0.0
C215 C 0.11324 0.72669 0.16164 0.0
C216 C 0.06878 0.72372 0.03691 0.0
C217 C 0.03714 0.69731 0.09421 0.0
C218 C 0.04376 0.68509 0.18518 0.0
C219 C 0.08155 0.70004 0.21924 0.0
C220 C 0.93407 0.63258 0.0138 0.0
C221 C 0.92131 0.65917 -0.00062 0.0
C222 C 0.97163 0.64483 0.04506 0.0
C223 C 0.99748 0.68401 0.05986 0.0
C224 C 0.98544 0.7108 0.04061 0.0
C225 C 0.94762 0.69848 0.01196 0.0
H226 H 0.42568 0.06551 0.70124 0.0
H227 H 0.31512 0.057 0.74118 0.0
H228 H 0.39394 0.99545 0.68904 0.0
H229 H 0.28329 0.98712 0.72757 0.0
H230 H 0.3075 0.85836 0.69579 0.0
H231 H 0.34107 0.92292 0.76481 0.0
H232 H 0.28938 0.96213 0.55056 0.0
H233 H 0.2576 0.89872 0.47895 0.0
C234 C 0.39482 0.04841 0.71417 0.0
C235 C 0.37284 0.06655 0.72327 0.0
C236 C 0.3766 1.00836 0.70575 0.0
C237 C 0.33619 0.98614 0.70525 0.0
C238 C 0.31451 1.00375 0.72685 0.0
C239 C 0.33275 0.04366 0.73644 0.0
C240 C 0.30362 0.88095 0.66319 0.0
C241 C 0.27944 0.87339 0.58291 0.0
C242 C 0.32272 0.91773 0.70281 0.0
C243 C 0.31689 0.94706 0.66463 0.0
C244 C 0.2935 0.93967 0.58302 0.0
C245 C 0.27553 0.90346 0.54161 0.0
H246 H 0.28214 0.52829 0.78551 0.0
H247 H 0.17332 0.4657 0.64076 0.0
H248 H 0.31553 0.54939 0.6281 0.0
H249 H 0.20649 0.48887 0.4838 0.0
H250 H 0.32861 0.47609 0.3596 0.0
H251 H 0.31492 0.49584 0.51379 0.0
H252 H 0.25609 0.54593 0.36262 0.0
H253 H 0.2712 0.52771 0.20768 0.0
C254 C 0.26501 0.52073 0.72057 0.0
C255 C 0.22502 0.49433 0.72591 0.0
C256 C 0.28431 0.53277 0.63017 0.0
C257 C 0.26374 0.52023 0.54353 0.0
C258 C 0.2232 0.49902 0.54923 0.0
C259 C 0.20407 0.48593 0.63943 0.0
C260 C 0.31477 0.49331 0.3585 0.0
C261 C 0.30033 0.49949 0.27115 0.0
C262 C 0.30669 0.50448 0.44716 0.0
C263 C 0.28359 0.52161 0.45043 0.0
C264 C 0.27352 0.53233 0.36233 0.0
C265 C 0.28251 0.52206 0.27336 0.0
H266 H 0.8202 0.19466 0.00355 0.0
H267 H 0.73363 0.22795 0.01216 0.0
H268 H 0.83389 0.21446 0.83584 0.0
H269 H 0.7434 0.24356 0.83836 0.0
H270 H 0.84847 0.24866 0.51825 0.0
H271 H 0.8309 0.21918 0.67867 0.0
H272 H 0.7869 0.2948 0.74975 0.0
H273 H 0.79942 0.31956 0.58309 0.0
C274 C 0.80211 0.20375 0.96678 0.0
C275 C 0.77655 0.21069 0.02014 0.0
C276 C 0.8102 0.21559 0.86995 0.0
C277 C 0.79129 0.23279 0.8234 0.0
C278 C 0.76043 0.23285 0.87315 0.0
C279 C 0.75355 0.22247 0.97187 0.0
C280 C 0.83611 0.25965 0.5696 0.0
C281 C 0.82456 0.28566 0.53872 0.0
C282 C 0.82559 0.24251 0.66208 0.0
C283 C 0.80564 0.25313 0.72742 0.0
C284 C 0.79988 0.28388 0.70025 0.0
C285 C 0.80853 0.29942 0.60596 0.0
H286 H 0.51207 0.76715 0.44696 0.0
H287 H 0.58224 0.73097 0.29567 0.0
H288 H 0.48787 0.77614 0.29189 0.0
H289 H 0.55605 0.73745 0.1414 0.0
H290 H 0.5667 0.86798 0.01568 0.0
H291 H 0.54536 0.83368 0.17228 0.0
H292 H 0.49326 0.72526 0.02772 0.0
H293 H 0.51204 0.75963 0.87038 0.0
C294 C 0.52036 0.75853 0.38141 0.0
C295 C 0.54969 0.74901 0.38347 0.0
C296 C 0.50659 0.76397 0.29241 0.0
C297 C 0.52047 0.75801 0.20456 0.0
C298 C 0.54473 0.74216 0.208 0.0
C299 C 0.55952 0.73806 0.29661 0.0
C300 C 0.54827 0.83694 0.01677 0.0
C301 C 0.54186 0.81662 0.93063 0.0
C302 C 0.53631 0.81718 0.10672 0.0
C303 C 0.51836 0.77678 0.1122 0.0
C304 C 0.50722 0.7564 0.02561 0.0
C305 C 0.51793 0.77624 0.93536 0.0
H306 H 0.67825 0.54868 0.70974 0.0
H307 H 0.77962 0.54459 0.62299 0.0
H308 H 0.64879 0.52315 0.55465 0.0
H309 H 0.75031 0.51944 0.46652 0.0
H310 H 0.70739 0.60179 0.25761 0.0
H311 H 0.68307 0.57334 0.41765 0.0
H312 H 0.69591 0.4761 0.34745 0.0
H313 H 0.71884 0.50391 0.18529 0.0
C314 C 0.69398 0.54174 0.65763 0.0
C315 C 0.73209 0.55064 0.67479 0.0
C316 C 0.67667 0.52628 0.57016 0.0
C317 C 0.69752 0.52013 0.49826 0.0
C318 C 0.73352 0.52394 0.52096 0.0
C319 C 0.75074 0.5391 0.60933 0.0
C320 C 0.70293 0.57334 0.27447 0.0
C321 C 0.7168 0.55598 0.21191 0.0
C322 C 0.6886 0.55671 0.36589 0.0
C323 C 0.68928 0.52331 0.39566 0.0
C324 C 0.6959 0.50224 0.32631 0.0
C325 C 0.70932 0.51843 0.23384 0.0
H326 H 0.13503 0.74784 0.6675 0.0
H327 H 0.18957 0.86179 0.53335 0.0
H328 H 0.14829 0.77617 0.82741 0.0
H329 H 0.20503 0.89 0.69389 0.0
H330 H 0.17269 0.8361 0.10641 0.0
H331 H 0.14305 0.82825 0.94842 0.0
H332 H 0.25442 0.87625 0.80865 0.0
H333 H 0.28452 0.88241 0.96613 0.0
C334 C 0.14874 0.77884 0.67178 0.0
C335 C 0.16261 0.80255 0.58738 0.0
C336 C 0.15637 0.79509 0.76358 0.0
C337 C 0.17829 0.83526 0.7726 0.0
C338 C 0.18831 0.85896 0.68869 0.0
C339 C 0.1796 0.8427 0.5969 0.0
C340 C 0.19138 0.84656 0.04254 0.0
C341 C 0.23106 0.85905 0.04905 0.0
C342 C 0.17415 0.84186 0.95196 0.0
C343 C 0.19651 0.85112 0.86662 0.0
C344 C 0.23675 0.86889 0.87361 0.0
C345 C 0.25395 0.87251 0.96394 0.0
H346 H 0.32149 0.16907 0.43783 0.0
H347 H 0.44211 0.2546 0.45592 0.0
H348 H 0.33004 0.1619 0.26568 0.0
H349 H 0.45062 0.24794 0.28309 0.0
H350 H 0.46565 0.17944 0.04775 0.0
H351 H 0.45052 0.19316 0.20782 0.0
H352 H 0.34747 0.18756 0.09555 0.0
H353 H 0.36279 0.17324 0.93403 0.0
C354 C 0.34948 0.18763 0.4038 0.0
C355 C 0.38117 0.21215 0.4606 0.0
C356 C 0.35441 0.18334 0.30518 0.0
C357 C 0.3912 0.20349 0.26131 0.0
C358 C 0.42204 0.23126 0.31552 0.0
C359 C 0.41707 0.23565 0.41427 0.0
C360 C 0.43913 0.17996 0.05804 0.0
C361 C 0.41495 0.17444 0.9793 0.0
C362 C 0.43089 0.18871 0.14918 0.0
C363 C 0.39835 0.19255 0.16398 0.0
C364 C 0.37288 0.18499 0.08635 0.0
C365 C 0.38122 0.17614 -0.0056 0.0
H366 H 0.18603 0.52094 0.98628 0.0
H367 H 0.18476 0.48782 0.28793 0.0
H368 H 0.18304 0.57754 0.03757 0.0
H369 H 0.18312 0.54462 0.33777 0.0
H370 H 0.25672 0.6841 0.33243 0.0
H371 H 0.242 0.61857 0.29737 0.0
H372 H 0.13799 0.59747 0.15406 0.0
H373 H 0.15199 0.6627 0.19308 0.0
C374 C 0.18412 0.52508 0.06312 0.0
C375 C 0.18598 0.49991 0.13274 0.0
C376 C 0.18247 0.5575 0.09243 0.0
C377 C 0.18319 0.5655 0.19162 0.0
C378 C 0.18271 0.53918 0.26094 0.0
C379 C 0.1836 0.50658 0.23195 0.0
C380 C 0.23005 0.66491 0.2966 0.0
C381 C 0.20506 0.67793 0.26721 0.0
C382 C 0.22174 0.62761 0.27599 0.0
C383 C 0.18895 0.60312 0.22268 0.0
C384 C 0.16342 0.61583 0.19523 0.0
C385 C 0.17118 0.65284 0.21848 0.0
H386 H 0.70834 0.25111 0.27393 0.0
H387 H 0.63952 0.12901 0.33476 0.0
H388 H 0.65093 0.25726 0.2939 0.0
H389 H 0.58193 0.13483 0.35083 0.0
H390 H 0.48144 0.15778 0.32882 0.0
H391 H 0.5376 0.15737 0.26225 0.0
H392 H 0.61071 0.24479 0.46102 0.0
H393 H 0.55436 0.24475 0.53007 0.0
C394 C 0.68058 0.22524 0.2858 0.0
C395 C 0.67839 0.18942 0.30094 0.0
C396 C 0.64783 0.2289 0.29912 0.0
C397 C 0.61195 0.19661 0.32508 0.0
C398 C 0.60908 0.16024 0.33055 0.0
C399 C 0.64199 0.15677 0.32001 0.0
C400 C 0.5095 0.17752 0.35775 0.0
C401 C 0.51303 0.2011 0.436 0.0
C402 C 0.54169 0.17708 0.31939 0.0
C403 C 0.57859 0.2009 0.35639 0.0
C404 C 0.58266 0.22623 0.43046 0.0
C405 C 0.55026 0.2261 0.47044 0.0
H406 H 0.36182 0.54026 0.02467 0.0
H407 H 0.35007 0.50399 0.72798 0.0
H408 H 0.42278 0.59815 0.98072 0.0
H409 H 0.41133 0.56096 0.68462 0.0
H410 H 0.4992 0.68993 0.61686 0.0
H411 H 0.44123 0.62803 0.656 0.0
H412 H 0.48781 0.62476 0.93621 0.0
H413 H 0.54461 0.68674 0.89822 0.0
C414 C 0.37259 0.54417 0.95057 0.0
C415 C 0.35088 0.51719 0.8803 0.0
C416 C 0.40774 0.57747 0.92503 0.0
C417 C 0.42239 0.58472 0.82853 0.0
C418 C 0.40102 0.55708 0.75911 0.0
C419 C 0.36588 0.52399 0.78448 0.0
C420 C 0.49734 0.67553 0.68587 0.0
C421 C 0.52667 0.69343 0.75417 0.0
C422 C 0.46397 0.63996 0.70876 0.0
C423 C 0.45919 0.62121 0.8003 0.0
C424 C 0.4896 0.63843 0.86619 0.0
C425 C 0.52259 0.67395 0.84373 0.0
H426 H 0.8182 0.34732 0.30931 0.0
H427 H 0.92295 0.4008 0.13519 0.0
H428 H 0.81472 0.4062 0.29341 0.0
H429 H 0.91955 0.45949 0.11959 0.0
H430 H 0.86342 0.52569 0.98264 0.0
H431 H 0.87648 0.47421 0.02633 0.0
H432 H 0.84283 0.47562 0.32374 0.0
H433 H 0.8296 0.52707 0.27996 0.0
C434 C 0.84129 0.37204 0.27087 0.0
C435 C 0.87076 0.36914 0.22324 0.0
C436 C 0.83916 0.40582 0.26104 0.0
C437 C 0.86641 0.43738 0.20329 0.0
C438 C 0.89754 0.43547 0.16253 0.0
C439 C 0.8997 0.40188 0.17243 0.0
C440 C 0.85925 0.51539 0.05757 0.0
C441 C 0.84554 0.53068 0.12762 0.0
C442 C 0.86692 0.48593 0.08289 0.0
C443 C 0.86078 0.4707 0.1788 0.0
C444 C 0.84763 0.48642 0.24918 0.0
C445 C 0.8403 0.51614 0.22404 0.0
H446 H 0.34384 0.81154 0.30201 0.0
H447 H 0.30274 0.76457 0.59099 0.0
H448 H 0.40944 0.82997 0.34884 0.0
H449 H 0.36793 0.78558 0.64091 0.0
H450 H 0.48324 0.79126 0.68002 0.0
H451 H 0.41809 0.77556 0.6406 0.0
H452 H 0.46395 0.87005 0.42839 0.0
H453 H 0.52883 0.88317 0.46312 0.0
C454 C 0.34896 0.80535 0.37566 0.0
C455 C 0.3181 0.78596 0.44211 0.0
C456 C 0.38671 0.8164 0.40343 0.0
C457 C 0.3947 0.80949 0.49943 0.0
C458 C 0.36349 0.79064 0.56583 0.0
C459 C 0.32582 0.77861 0.53721 0.0
C460 C 0.47929 0.80928 0.62698 0.0
C461 C 0.51108 0.8387 0.57548 0.0
C462 C 0.44174 0.80025 0.60368 0.0
C463 C 0.43501 0.82111 0.52984 0.0
C464 C 0.46735 0.85234 0.48329 0.0
C465 C 0.50478 0.86055 0.50465 0.0
H466 H 0.72562 0.47506 0.78363 0.0
H467 H 0.6415 0.4572 0.00582 0.0
H468 H 0.68208 0.41048 0.72325 0.0
H469 H 0.59856 0.39278 0.94668 0.0
H470 H 0.54938 0.26858 0.89391 0.0
H471 H 0.60294 0.33057 0.93876 0.0
H472 H 0.61054 0.37438 0.64542 0.0
H473 H 0.55606 0.31143 0.59988 0.0
C474 C 0.6981 0.45715 0.82038 0.0
C475 C 0.68702 0.471 0.90007 0.0
C476 C 0.67314 0.42042 0.78518 0.0
C477 C 0.63711 0.39666 0.83055 0.0
C478 C 0.62636 0.4104 0.9109 0.0
C479 C 0.65089 0.44725 0.94476 0.0
C480 C 0.56306 0.29109 0.83813 0.0
C481 C 0.54836 0.28543 0.74373 0.0
C482 C 0.59359 0.32661 0.86404 0.0
C483 C 0.61028 0.35742 0.79617 0.0
C484 C 0.59801 0.35099 0.69914 0.0
C485 C 0.56707 0.31505 0.67295 0.0
loop_
_geom_bond_atom_site_label_1
_geom_bond_atom_site_label_2
_geom_bond_distance
_geom_bond_site_symmetry_2
_ccdc_geom_bond_type
Zn0 O6 1.920 . S
Zn0 O12 1.898 . S
Zn0 O15 1.905 . S
Zn1 O9 1.905 . S
Zn1 O10 1.898 . S
Zn1 O18 1.920 . S
Zn2 O5 2.080 1_554 S
Zn2 O8 2.114 . S
Zn2 O11 2.120 . S
Zn2 O13 2.120 1_554 S
Zn2 O14 2.114 1_554 S
Zn2 O17 2.080 . S
C3 O8 1.166 . S
C3 O9 1.182 . S
C4 O10 1.167 . S
C4 O11 1.299 . S
O5 Zn2 2.080 1_556 S
O5 C19 1.305 . S
O6 Zn0 1.920 . S
O6 C19 1.234 . S
C7 O12 1.167 . S
C7 O13 1.299 . S
O8 Zn2 2.114 . S
O8 C3 1.166 . S
O9 Zn1 1.905 . S
O9 C3 1.182 . S
O10 Zn1 1.898 . S
O10 C4 1.167 . S
O11 Zn2 2.120 . S
O11 C4 1.299 . S
O12 Zn0 1.898 . S
O12 C7 1.167 . S
O13 Zn2 2.120 1_556 S
O13 C7 1.299 . S
O14 Zn2 2.114 1_556 S
O14 C16 1.166 . S
O15 Zn0 1.905 . S
O15 C16 1.182 . S
C16 O14 1.166 . S
C16 O15 1.182 . S
O17 Zn2 2.080 . S
O17 C20 1.305 . S
O18 Zn1 1.920 . S
O18 C20 1.234 . S
C19 O5 1.305 . S
C19 O6 1.234 . S
C20 O17 1.305 . S
C20 O18 1.234 . S
Zn21 O27 1.920 . S
Zn21 O33 1.898 . S
Zn21 O36 1.905 . S
Zn22 O30 1.905 . S
Zn22 O31 1.898 . S
Zn22 O39 1.920 . S
Zn23 O26 2.080 . S
Zn23 O29 2.114 . S
Zn23 O32 2.120 . S
Zn23 O34 2.120 . S
Zn23 O35 2.114 . S
Zn23 O38 2.080 . S
C24 O29 1.166 . S
C24 O30 1.182 . S
C25 O31 1.167 . S
C25 O32 1.299 . S
O26 Zn23 2.080 . S
O26 C40 1.305 . S
O27 Zn21 1.920 . S
O27 C40 1.234 . S
C28 O33 1.167 . S
C28 O34 1.299 . S
O29 Zn23 2.114 . S
O29 C24 1.166 . S
O30 Zn22 1.905 . S
O30 C24 1.182 . S
O31 Zn22 1.898 . S
O31 C25 1.167 . S
O32 Zn23 2.120 . S
O32 C25 1.299 . S
O33 Zn21 1.898 . S
O33 C28 1.167 . S
O34 Zn23 2.120 . S
O34 C28 1.299 . S
O35 Zn23 2.114 . S
O35 C37 1.166 . S
O36 Zn21 1.905 . S
O36 C37 1.182 . S
C37 O35 1.166 . S
C37 O36 1.182 . S
O38 Zn23 2.080 . S
O38 C41 1.305 . S
O39 Zn22 1.920 . S
O39 C41 1.234 . S
C40 O26 1.305 . S
C40 O27 1.234 . S
C41 O38 1.305 . S
C41 O39 1.234 . S
Zn42 O48 1.920 . S
Zn42 O54 1.898 . S
Zn42 O57 1.905 . S
Zn43 O51 1.905 . S
Zn43 O52 1.898 . S
Zn43 O60 1.920 . S
Zn44 O47 2.080 . S
Zn44 O50 2.114 . S
Zn44 O53 2.120 . S
Zn44 O55 2.120 . S
Zn44 O56 2.114 . S
Zn44 O59 2.080 . S
C45 O50 1.166 . S
C45 O51 1.182 . S
C46 O52 1.167 . S
C46 O53 1.299 . S
O47 Zn44 2.080 . S
O47 C61 1.305 . S
O48 Zn42 1.920 . S
O48 C61 1.234 . S
C49 O54 1.167 . S
C49 O55 1.299 . S
O50 Zn44 2.114 . S
O50 C45 1.166 . S
O51 Zn43 1.905 . S
O51 C45 1.182 . S
O52 Zn43 1.898 . S
O52 C46 1.167 . S
O53 Zn44 2.120 . S
O53 C46 1.299 . S
O54 Zn42 1.898 . S
O54 C49 1.167 . S
O55 Zn44 2.120 . S
O55 C49 1.299 . S
O56 Zn44 2.114 . S
O56 C58 1.166 . S
O57 Zn42 1.905 . S
O57 C58 1.182 . S
C58 O56 1.166 . S
C58 O57 1.182 . S
O59 Zn44 2.080 . S
O59 C62 1.305 . S
O60 Zn43 1.920 . S
O60 C62 1.234 . S
C61 O47 1.305 . S
C61 O48 1.234 . S
C62 O59 1.305 . S
C62 O60 1.234 . S
Zn63 O69 1.920 . S
Zn63 O75 1.898 . S
Zn63 O78 1.905 . S
Zn64 O72 1.905 . S
Zn64 O73 1.898 . S
Zn64 O81 1.920 . S
Zn65 O68 2.080 . S
Zn65 O71 2.114 1_554 S
Zn65 O74 2.120 1_554 S
Zn65 O76 2.120 . S
Zn65 O77 2.114 . S
Zn65 O80 2.080 1_554 S
C66 O71 1.166 . S
C66 O72 1.182 . S
C67 O73 1.167 . S
C67 O74 1.299 . S
O68 Zn65 2.080 . S
O68 C82 1.305 . S
O69 Zn63 1.920 . S
O69 C82 1.234 . S
C70 O75 1.167 . S
C70 O76 1.299 . S
O71 Zn65 2.114 1_556 S
O71 C66 1.166 . S
O72 Zn64 1.905 . S
O72 C66 1.182 . S
O73 Zn64 1.898 . S
O73 C67 1.167 . S
O74 Zn65 2.120 1_556 S
O74 C67 1.299 . S
O75 Zn63 1.898 . S
O75 C70 1.167 . S
O76 Zn65 2.120 . S
O76 C70 1.299 . S
O77 Zn65 2.114 . S
O77 C79 1.166 . S
O78 Zn63 1.905 . S
O78 C79 1.182 . S
C79 O77 1.166 . S
C79 O78 1.182 . S
O80 Zn65 2.080 1_556 S
O80 C83 1.305 . S
O81 Zn64 1.920 . S
O81 C83 1.234 . S
C82 O68 1.305 . S
C82 O69 1.234 . S
C83 O80 1.305 . S
C83 O81 1.234 . S
Zn84 O90 1.920 . S
Zn84 O96 1.898 . S
Zn84 O99 1.905 . S
Zn85 O93 1.905 . S
Zn85 O94 1.898 . S
Zn85 O102 1.920 . S
Zn86 O89 2.080 . S
Zn86 O92 2.114 . S
Zn86 O95 2.120 . S
Zn86 O97 2.120 . S
Zn86 O98 2.114 . S
Zn86 O101 2.080 . S
C87 O92 1.166 . S
C87 O93 1.182 . S
C88 O94 1.167 . S
C88 O95 1.299 . S
O89 Zn86 2.080 . S
O89 C103 1.305 . S
O90 Zn84 1.920 . S
O90 C103 1.234 . S
C91 O96 1.167 . S
C91 O97 1.299 . S
O92 Zn86 2.114 . S
O92 C87 1.166 . S
O93 Zn85 1.905 . S
O93 C87 1.182 . S
O94 Zn85 1.898 . S
O94 C88 1.167 . S
O95 Zn86 2.120 . S
O95 C88 1.299 . S
O96 Zn84 1.898 . S
O96 C91 1.167 . S
O97 Zn86 2.120 . S
O97 C91 1.299 . S
O98 Zn86 2.114 . S
O98 C100 1.166 . S
O99 Zn84 1.905 . S
O99 C100 1.182 . S
C100 O98 1.166 . S
C100 O99 1.182 . S
O101 Zn86 2.080 . S
O101 C104 1.305 . S
O102 Zn85 1.920 . S
O102 C104 1.234 . S
C103 O89 1.305 . S
C103 O90 1.234 . S
C104 O101 1.305 . S
C104 O102 1.234 . S
Zn105 O111 1.920 . S
Zn105 O117 1.898 . S
Zn105 O120 1.905 . S
Zn106 O114 1.905 . S
Zn106 O115 1.898 . S
Zn106 O123 1.920 . S
Zn107 O110 2.080 . S
Zn107 O113 2.114 . S
Zn107 O116 2.120 . S
Zn107 O118 2.120 . S
Zn107 O119 2.114 . S
Zn107 O122 2.080 . S
C108 O113 1.166 . S
C108 O114 1.182 . S
C109 O115 1.167 . S
C109 O116 1.299 . S
O110 Zn107 2.080 . S
O110 C124 1.305 . S
O111 Zn105 1.920 . S
O111 C124 1.234 . S
C112 O117 1.167 . S
C112 O118 1.299 . S
O113 Zn107 2.114 . S
O113 C108 1.166 . S
O114 Zn106 1.905 . S
O114 C108 1.182 . S
O115 Zn106 1.898 . S
O115 C109 1.167 . S
O116 Zn107 2.120 . S
O116 C109 1.299 . S
O117 Zn105 1.898 . S
O117 C112 1.167 . S
O118 Zn107 2.120 . S
O118 C112 1.299 . S
O119 Zn107 2.114 . S
O119 C121 1.166 . S
O120 Zn105 1.905 . S
O120 C121 1.182 . S
C121 O119 1.166 . S
C121 O120 1.182 . S
O122 Zn107 2.080 . S
O122 C125 1.305 . S
O123 Zn106 1.920 . S
O123 C125 1.234 . S
C124 O110 1.305 . S
C124 O111 1.234 . S
C125 O122 1.305 . S
C125 O123 1.234 . S
H126 C134 0.950 . S
H127 C139 0.950 . S
H128 C136 0.950 . S
H129 C138 0.950 . S
H130 C140 0.950 . S
H131 C142 0.950 . S
H132 C144 0.950 . S
H133 C145 0.950 1_554 S
C134 H126 0.950 . S
C134 C135 1.386 . S
C134 C136 1.391 . S
C135 C134 1.386 . S
C135 C139 1.393 . S
C136 H128 0.950 . S
C136 C134 1.391 . S
C136 C137 1.400 . S
C137 C136 1.400 . S
C137 C138 1.398 . S
C137 C143 1.491 . S
C138 H129 0.950 . S
C138 C137 1.398 . S
C138 C139 1.391 . S
C139 H127 0.950 . S
C139 C135 1.393 . S
C139 C138 1.391 . S
C140 H130 0.950 . S
C140 C141 1.386 . S
C140 C142 1.391 . S
C141 C140 1.386 . S
C141 C145 1.393 . S
C142 H131 0.950 . S
C142 C140 1.391 . S
C142 C143 1.400 . S
C143 C137 1.491 . S
C143 C142 1.400 . S
C143 C144 1.398 . S
C144 H132 0.950 . S
C144 C143 1.398 . S
C144 C145 1.391 . S
C145 H133 0.950 1_556 S
C145 C141 1.393 . S
C145 C144 1.391 . S
H146 C154 0.950 . S
H147 C159 0.950 . S
H148 C156 0.950 . S
H149 C158 0.945 1_655 S
H150 C160 0.950 . S
H151 C162 0.950 . S
H152 C164 0.945 1_455 S
H153 C165 0.950 . S
C154 H146 0.950 . S
C154 C155 1.386 . S
C154 C156 1.391 . S
C155 C154 1.386 . S
C155 C159 1.393 1_554 S
C156 H148 0.950 . S
C156 C154 1.391 . S
C156 C157 1.400 . S
C157 C156 1.400 . S
C157 C158 1.398 . S
C157 C163 1.491 1_455 S
C158 H149 0.945 1_455 S
C158 C157 1.398 . S
C158 C159 1.391 1_554 S
C159 H147 0.950 . S
C159 C155 1.393 1_556 S
C159 C158 1.391 1_556 S
C160 H150 0.950 . S
C160 C161 1.386 . S
C160 C162 1.391 . S
C161 C160 1.386 . S
C161 C165 1.393 . S
C162 H151 0.950 . S
C162 C160 1.391 . S
C162 C163 1.400 . S
C163 C157 1.491 1_655 S
C163 C162 1.400 . S
C163 C164 1.398 . S
C164 H152 0.945 1_655 S
C164 C163 1.398 . S
C164 C165 1.391 . S
C165 H153 0.950 . S
C165 C161 1.393 . S
C165 C164 1.391 . S
H166 C174 0.950 . S
H167 C179 0.950 . S
H168 C176 0.950 . S
H169 C178 0.950 . S
H170 C180 0.950 . S
H171 C182 0.950 . S
H172 C184 0.950 . S
H173 C185 0.950 . S
C174 H166 0.950 . S
C174 C175 1.386 . S
C174 C176 1.391 . S
C175 C174 1.386 . S
C175 C179 1.393 . S
C176 H168 0.950 . S
C176 C174 1.391 . S
C176 C177 1.400 . S
C177 C176 1.400 . S
C177 C178 1.398 . S
C177 C183 1.491 1_545 S
C178 H169 0.950 . S
C178 C177 1.398 . S
C178 C179 1.391 . S
C179 H167 0.950 . S
C179 C175 1.393 . S
C179 C178 1.391 . S
C180 H170 0.950 . S
C180 C181 1.386 . S
C180 C182 1.391 . S
C181 C180 1.386 . S
C181 C185 1.393 . S
C182 H171 0.950 . S
C182 C180 1.391 . S
C182 C183 1.400 . S
C183 C177 1.491 1_565 S
C183 C182 1.400 . S
C183 C184 1.398 . S
C184 H172 0.950 . S
C184 C183 1.398 . S
C184 C185 1.391 . S
C185 H173 0.950 . S
C185 C181 1.393 . S
C185 C184 1.391 . S
H186 C194 0.950 . S
H187 C199 0.950 . S
H188 C196 0.950 . S
H189 C198 0.950 . S
H190 C200 0.950 . S
H191 C202 0.950 . S
H192 C204 0.950 . S
H193 C205 0.950 . S
C194 H186 0.950 . S
C194 C195 1.386 . S
C194 C196 1.391 . S
C195 C194 1.386 . S
C195 C199 1.393 . S
C196 H188 0.950 . S
C196 C194 1.391 . S
C196 C197 1.400 . S
C197 C196 1.400 . S
C197 C198 1.398 . S
C197 C203 1.491 . S
C198 H189 0.950 . S
C198 C197 1.398 . S
C198 C199 1.391 . S
C199 H187 0.950 . S
C199 C195 1.393 . S
C199 C198 1.391 . S
C200 H190 0.950 . S
C200 C201 1.386 . S
C200 C202 1.391 . S
C201 C200 1.386 . S
C201 C205 1.393 1_556 S
C202 H191 0.950 . S
C202 C200 1.391 . S
C202 C203 1.400 . S
C203 C197 1.491 . S
C203 C202 1.400 . S
C203 C204 1.398 . S
C204 H192 0.950 . S
C204 C203 1.398 . S
C204 C205 1.391 1_556 S
C205 H193 0.950 . S
C205 C201 1.393 1_554 S
C205 C204 1.391 1_554 S
H206 C214 0.950 . S
H207 C219 0.950 . S
H208 C216 0.950 . S
H209 C218 0.950 . S
H210 C220 0.950 . S
H211 C222 0.950 . S
H212 C224 0.950 . S
H213 C225 0.950 . S
C214 H206 0.950 . S
C214 C215 1.386 . S
C214 C216 1.391 . S
C215 C214 1.386 . S
C215 C219 1.393 . S
C216 H208 0.950 . S
C216 C214 1.391 . S
C216 C217 1.400 . S
C217 C216 1.400 . S
C217 C218 1.398 . S
C217 C223 1.491 1_455 S
C218 H209 0.950 . S
C218 C217 1.398 . S
C218 C219 1.391 . S
C219 H207 0.950 . S
C219 C215 1.393 . S
C219 C218 1.391 . S
C220 H210 0.950 . S
C220 C221 1.386 . S
C220 C222 1.391 . S
C221 C220 1.386 . S
C221 C225 1.393 . S
C222 H211 0.950 . S
C222 C220 1.391 . S
C222 C223 1.400 . S
C223 C217 1.491 1_655 S
C223 C222 1.400 . S
C223 C224 1.398 . S
C224 H212 0.950 . S
C224 C223 1.398 . S
C224 C225 1.391 . S
C225 H213 0.950 . S
C225 C221 1.393 . S
C225 C224 1.391 . S
H226 C234 0.950 . S
H227 C239 0.950 . S
H228 C236 0.950 . S
H229 C238 0.950 . S
H230 C240 0.950 . S
H231 C242 0.950 . S
H232 C244 0.950 . S
H233 C245 0.950 . S
C234 H226 0.950 . S
C234 C235 1.386 . S
C234 C236 1.391 . S
C235 C234 1.386 . S
C235 C239 1.393 . S
C236 H228 0.950 . S
C236 C234 1.391 . S
C236 C237 1.400 . S
C237 C236 1.400 . S
C237 C238 1.398 . S
C237 C243 1.491 1_545 S
C238 H229 0.950 . S
C238 C237 1.398 . S
C238 C239 1.391 . S
C239 H227 0.950 . S
C239 C235 1.393 . S
C239 C238 1.391 . S
C240 H230 0.950 . S
C240 C241 1.386 . S
C240 C242 1.391 . S
C241 C240 1.386 . S
C241 C245 1.393 . S
C242 H231 0.950 . S
C242 C240 1.391 . S
C242 C243 1.400 . S
C243 C237 1.491 1_565 S
C243 C242 1.400 . S
C243 C244 1.398 . S
C244 H232 0.950 . S
C244 C243 1.398 . S
C244 C245 1.391 . S
C245 H233 0.950 . S
C245 C241 1.393 . S
C245 C244 1.391 . S
H246 C254 0.950 . S
H247 C259 0.950 . S
H248 C256 0.950 . S
H249 C258 0.950 . S
H250 C260 0.950 . S
H251 C262 0.950 . S
H252 C264 0.950 . S
H253 C265 0.950 . S
C254 H246 0.950 . S
C254 C255 1.386 . S
C254 C256 1.391 . S
C255 C254 1.386 . S
C255 C259 1.393 . S
C256 H248 0.950 . S
C256 C254 1.391 . S
C256 C257 1.400 . S
C257 C256 1.400 . S
C257 C258 1.398 . S
C257 C263 1.491 . S
C258 H249 0.950 . S
C258 C257 1.398 . S
C258 C259 1.391 . S
C259 H247 0.950 . S
C259 C255 1.393 . S
C259 C258 1.391 . S
C260 H250 0.950 . S
C260 C261 1.386 . S
C260 C262 1.391 . S
C261 C260 1.386 . S
C261 C265 1.393 . S
C262 H251 0.950 . S
C262 C260 1.391 . S
C262 C263 1.400 . S
C263 C257 1.491 . S
C263 C262 1.400 . S
C263 C264 1.398 . S
C264 H252 0.950 . S
C264 C263 1.398 . S
C264 C265 1.391 . S
C265 H253 0.950 . S
C265 C261 1.393 . S
C265 C264 1.391 . S
H266 C274 0.950 . S
H267 C279 0.950 . S
H268 C276 0.950 . S
H269 C278 0.950 . S
H270 C280 0.950 . S
H271 C282 0.950 . S
H272 C284 0.950 . S
H273 C285 0.950 . S
C274 H266 0.950 . S
C274 C275 1.386 . S
C274 C276 1.391 1_554 S
C275 C274 1.386 . S
C275 C279 1.393 . S
C276 H268 0.950 . S
C276 C274 1.391 1_556 S
C276 C277 1.400 . S
C277 C276 1.400 . S
C277 C278 1.398 . S
C277 C283 1.491 . S
C278 H269 0.950 . S
C278 C277 1.398 . S
C278 C279 1.391 1_556 S
C279 H267 0.950 . S
C279 C275 1.393 . S
C279 C278 1.391 1_554 S
C280 H270 0.950 . S
C280 C281 1.386 . S
C280 C282 1.391 . S
C281 C280 1.386 . S
C281 C285 1.393 . S
C282 H271 0.950 . S
C282 C280 1.391 . S
C282 C283 1.400 . S
C283 C277 1.491 . S
C283 C282 1.400 . S
C283 C284 1.398 . S
C284 H272 0.950 . S
C284 C283 1.398 . S
C284 C285 1.391 . S
C285 H273 0.950 . S
C285 C281 1.393 . S
C285 C284 1.391 . S
H286 C294 0.950 . S
H287 C299 0.950 . S
H288 C296 0.950 . S
H289 C298 0.950 . S
H290 C300 0.950 . S
H291 C302 0.950 . S
H292 C304 0.950 . S
H293 C305 0.950 . S
C294 H286 0.950 . S
C294 C295 1.386 . S
C294 C296 1.391 . S
C295 C294 1.386 . S
C295 C299 1.393 . S
C296 H288 0.950 . S
C296 C294 1.391 . S
C296 C297 1.400 . S
C297 C296 1.400 . S
C297 C298 1.398 . S
C297 C303 1.491 . S
C298 H289 0.950 . S
C298 C297 1.398 . S
C298 C299 1.391 . S
C299 H287 0.950 . S
C299 C295 1.393 . S
C299 C298 1.391 . S
C300 H290 0.950 . S
C300 C301 1.386 . S
C300 C302 1.391 1_556 S
C301 C300 1.386 . S
C301 C305 1.393 . S
C302 H291 0.950 . S
C302 C300 1.391 1_554 S
C302 C303 1.400 . S
C303 C297 1.491 . S
C303 C302 1.400 . S
C303 C304 1.398 . S
C304 H292 0.950 . S
C304 C303 1.398 . S
C304 C305 1.391 1_554 S
C305 H293 0.950 . S
C305 C301 1.393 . S
C305 C304 1.391 1_556 S
H306 C314 0.950 . S
H307 C319 0.950 . S
H308 C316 0.950 . S
H309 C318 0.950 . S
H310 C320 0.950 . S
H311 C322 0.950 . S
H312 C324 0.950 . S
H313 C325 0.950 . S
C314 H306 0.950 . S
C314 C315 1.386 . S
C314 C316 1.391 . S
C315 C314 1.386 . S
C315 C319 1.393 . S
C316 H308 0.950 . S
C316 C314 1.391 . S
C316 C317 1.400 . S
C317 C316 1.400 . S
C317 C318 1.398 . S
C317 C323 1.491 . S
C318 H309 0.950 . S
C318 C317 1.398 . S
C318 C319 1.391 . S
C319 H307 0.950 . S
C319 C315 1.393 . S
C319 C318 1.391 . S
C320 H310 0.950 . S
C320 C321 1.386 . S
C320 C322 1.391 . S
C321 C320 1.386 . S
C321 C325 1.393 . S
C322 H311 0.950 . S
C322 C320 1.391 . S
C322 C323 1.400 . S
C323 C317 1.491 . S
C323 C322 1.400 . S
C323 C324 1.398 . S
C324 H312 0.950 . S
C324 C323 1.398 . S
C324 C325 1.391 . S
C325 H313 0.950 . S
C325 C321 1.393 . S
C325 C324 1.391 . S
H326 C334 0.950 . S
H327 C339 0.950 . S
H328 C336 0.950 . S
H329 C338 0.950 . S
H330 C340 0.950 . S
H331 C342 0.950 . S
H332 C344 0.950 . S
H333 C345 0.950 . S
C334 H326 0.950 . S
C334 C335 1.386 . S
C334 C336 1.391 . S
C335 C334 1.386 . S
C335 C339 1.393 . S
C336 H328 0.950 . S
C336 C334 1.391 . S
C336 C337 1.400 . S
C337 C336 1.400 . S
C337 C338 1.398 . S
C337 C343 1.491 . S
C338 H329 0.950 . S
C338 C337 1.398 . S
C338 C339 1.391 . S
C339 H327 0.950 . S
C339 C335 1.393 . S
C339 C338 1.391 . S
C340 H330 0.950 . S
C340 C341 1.386 . S
C340 C342 1.391 1_554 S
C341 C340 1.386 . S
C341 C345 1.393 . S
C342 H331 0.950 . S
C342 C340 1.391 1_556 S
C342 C343 1.400 . S
C343 C337 1.491 . S
C343 C342 1.400 . S
C343 C344 1.398 . S
C344 H332 0.950 . S
C344 C343 1.398 . S
C344 C345 1.391 1_556 S
C345 H333 0.950 . S
C345 C341 1.393 . S
C345 C344 1.391 1_554 S
H346 C354 0.950 . S
H347 C359 0.950 . S
H348 C356 0.950 . S
H349 C358 0.950 . S
H350 C360 0.950 . S
H351 C362 0.950 . S
H352 C364 0.950 . S
H353 C365 0.950 . S
C354 H346 0.950 . S
C354 C355 1.386 . S
C354 C356 1.391 . S
C355 C354 1.386 . S
C355 C359 1.393 . S
C356 H348 0.950 . S
C356 C354 1.391 . S
C356 C357 1.400 . S
C357 C356 1.400 . S
C357 C358 1.398 . S
C357 C363 1.491 . S
C358 H349 0.950 . S
C358 C357 1.398 . S
C358 C359 1.391 . S
C359 H347 0.950 . S
C359 C355 1.393 . S
C359 C358 1.391 . S
C360 H350 0.950 . S
C360 C361 1.386 . S
C360 C362 1.391 1_556 S
C361 C360 1.386 . S
C361 C365 1.393 . S
C362 H351 0.950 . S
C362 C360 1.391 1_554 S
C362 C363 1.400 . S
C363 C357 1.491 . S
C363 C362 1.400 . S
C363 C364 1.398 . S
C364 H352 0.950 . S
C364 C363 1.398 . S
C364 C365 1.391 1_554 S
C365 H353 0.950 . S
C365 C361 1.393 . S
C365 C364 1.391 1_556 S
H366 C374 0.950 . S
H367 C379 0.950 . S
H368 C376 0.950 . S
H369 C378 0.950 . S
H370 C380 0.950 . S
H371 C382 0.950 . S
H372 C384 0.950 . S
H373 C385 0.950 . S
C374 H366 0.950 . S
C374 C375 1.386 . S
C374 C376 1.391 . S
C375 C374 1.386 . S
C375 C379 1.393 . S
C376 H368 0.950 . S
C376 C374 1.391 . S
C376 C377 1.400 . S
C377 C376 1.400 . S
C377 C378 1.398 . S
C377 C383 1.491 . S
C378 H369 0.950 . S
C378 C377 1.398 . S
C378 C379 1.391 . S
C379 H367 0.950 . S
C379 C375 1.393 . S
C379 C378 1.391 . S
C380 H370 0.950 . S
C380 C381 1.386 . S
C380 C382 1.391 . S
C381 C380 1.386 . S
C381 C385 1.393 . S
C382 H371 0.950 . S
C382 C380 1.391 . S
C382 C383 1.400 . S
C383 C377 1.491 . S
C383 C382 1.400 . S
C383 C384 1.398 . S
C384 H372 0.950 . S
C384 C383 1.398 . S
C384 C385 1.391 . S
C385 H373 0.950 . S
C385 C381 1.393 . S
C385 C384 1.391 . S
H386 C394 0.950 . S
H387 C399 0.950 . S
H388 C396 0.950 . S
H389 C398 0.950 . S
H390 C400 0.950 . S
H391 C402 0.950 . S
H392 C404 0.950 . S
H393 C405 0.950 . S
C394 H386 0.950 . S
C394 C395 1.386 . S
C394 C396 1.391 . S
C395 C394 1.386 . S
C395 C399 1.393 . S
C396 H388 0.950 . S
C396 C394 1.391 . S
C396 C397 1.400 . S
C397 C396 1.400 . S
C397 C398 1.398 . S
C397 C403 1.491 . S
C398 H389 0.950 . S
C398 C397 1.398 . S
C398 C399 1.391 . S
C399 H387 0.950 . S
C399 C395 1.393 . S
C399 C398 1.391 . S
C400 H390 0.950 . S
C400 C401 1.386 . S
C400 C402 1.391 . S
C401 C400 1.386 . S
C401 C405 1.393 . S
C402 H391 0.950 . S
C402 C400 1.391 . S
C402 C403 1.400 . S
C403 C397 1.491 . S
C403 C402 1.400 . S
C403 C404 1.398 . S
C404 H392 0.950 . S
C404 C403 1.398 . S
C404 C405 1.391 . S
C405 H393 0.950 . S
C405 C401 1.393 . S
C405 C404 1.391 . S
H406 C414 0.950 . S
H407 C419 0.950 . S
H408 C416 0.950 . S
H409 C418 0.950 . S
H410 C420 0.950 . S
H411 C422 0.950 . S
H412 C424 0.950 . S
H413 C425 0.950 . S
C414 H406 0.950 . S
C414 C415 1.386 . S
C414 C416 1.391 . S
C415 C414 1.386 . S
C415 C419 1.393 . S
C416 H408 0.950 . S
C416 C414 1.391 . S
C416 C417 1.400 . S
C417 C416 1.400 . S
C417 C418 1.398 . S
C417 C423 1.491 . S
C418 H409 0.950 . S
C418 C417 1.398 . S
C418 C419 1.391 . S
C419 H407 0.950 . S
C419 C415 1.393 . S
C419 C418 1.391 . S
C420 H410 0.950 . S
C420 C421 1.386 . S
C420 C422 1.391 . S
C421 C420 1.386 . S
C421 C425 1.393 . S
C422 H411 0.950 . S
C422 C420 1.391 . S
C422 C423 1.400 . S
C423 C417 1.491 . S
C423 C422 1.400 . S
C423 C424 1.398 . S
C424 H412 0.950 . S
C424 C423 1.398 . S
C424 C425 1.391 . S
C425 H413 0.950 . S
C425 C421 1.393 . S
C425 C424 1.391 . S
H426 C434 0.950 . S
H427 C439 0.950 . S
H428 C436 0.950 . S
H429 C438 0.950 . S
H430 C440 0.950 . S
H431 C442 0.950 . S
H432 C444 0.950 . S
H433 C445 0.950 . S
C434 H426 0.950 . S
C434 C435 1.386 . S
C434 C436 1.391 . S
C435 C434 1.386 . S
C435 C439 1.393 . S
C436 H428 0.950 . S
C436 C434 1.391 . S
C436 C437 1.400 . S
C437 C436 1.400 . S
C437 C438 1.398 . S
C437 C443 1.491 . S
C438 H429 0.950 . S
C438 C437 1.398 . S
C438 C439 1.391 . S
C439 H427 0.950 . S
C439 C435 1.393 . S
C439 C438 1.391 . S
C440 H430 0.950 . S
C440 C441 1.386 . S
C440 C442 1.391 . S
C441 C440 1.386 . S
C441 C445 1.393 . S
C442 H431 0.950 . S
C442 C440 1.391 . S
C442 C443 1.400 . S
C443 C437 1.491 . S
C443 C442 1.400 . S
C443 C444 1.398 . S
C444 H432 0.950 . S
C444 C443 1.398 . S
C444 C445 1.391 . S
C445 H433 0.950 . S
C445 C441 1.393 . S
C445 C444 1.391 . S
H446 C454 0.950 . S
H447 C459 0.950 . S
H448 C456 0.950 . S
H449 C458 0.950 . S
H450 C460 0.950 . S
H451 C462 0.950 . S
H452 C464 0.950 . S
H453 C465 0.950 . S
C454 H446 0.950 . S
C454 C455 1.386 . S
C454 C456 1.391 . S
C455 C454 1.386 . S
C455 C459 1.393 . S
C456 H448 0.950 . S
C456 C454 1.391 . S
C456 C457 1.400 . S
C457 C456 1.400 . S
C457 C458 1.398 . S
C457 C463 1.491 . S
C458 H449 0.950 . S
C458 C457 1.398 . S
C458 C459 1.391 . S
C459 H447 0.950 . S
C459 C455 1.393 . S
C459 C458 1.391 . S
C460 H450 0.950 . S
C460 C461 1.386 . S
C460 C462 1.391 . S
C461 C460 1.386 . S
C461 C465 1.393 . S
C462 H451 0.950 . S
C462 C460 1.391 . S
C462 C463 1.400 . S
C463 C457 1.491 . S
C463 C462 1.400 . S
C463 C464 1.398 . S
C464 H452 0.950 . S
C464 C463 1.398 . S
C464 C465 1.391 . S
C465 H453 0.950 . S
C465 C461 1.393 . S
C465 C464 1.391 . S
H466 C474 0.950 . S
H467 C479 0.950 1_554 S
H468 C476 0.950 . S
H469 C478 0.950 . S
H470 C480 0.950 . S
H471 C482 0.950 . S
H472 C484 0.950 . S
H473 C485 0.950 . S
C474 H466 0.950 . S
C474 C475 1.386 . S
C474 C476 1.391 . S
C475 C474 1.386 . S
C475 C479 1.393 . S
C476 H468 0.950 . S
C476 C474 1.391 . S
C476 C477 1.400 . S
C477 C476 1.400 . S
C477 C478 1.398 . S
C477 C483 1.491 . S
C478 H469 0.950 . S
C478 C477 1.398 . S
C478 C479 1.391 . S
C479 H467 0.950 1_556 S
C479 C475 1.393 . S
C479 C478 1.391 . S
C480 H470 0.950 . S
C480 C481 1.386 . S
C480 C482 1.391 . S
C481 C480 1.386 . S
C481 C485 1.393 . S
C482 H471 0.950 . S
C482 C480 1.391 . S
C482 C483 1.400 . S
C483 C477 1.491 . S
C483 C482 1.400 . S
C483 C484 1.398 . S
C484 H472 0.950 . S
C484 C483 1.398 . S
C484 C485 1.391 . S
C485 H473 0.950 . S
C485 C481 1.393 . S
C485 C484 1.391 . S
C135 C121 1.252 . S
C141 C16 1.271 . S
C155 C3 1.257 . S
C161 C24 1.279 . S
C175 C37 1.284 . S
C181 C45 1.300 . S
C195 C58 1.277 . S
C201 C66 1.296 . S
C215 C87 1.247 . S
C221 C79 1.253 . S
C235 C108 1.301 . S
C241 C100 1.298 . S
C255 C7 0.692 . S
C261 C4 0.713 . S
C275 C25 0.755 . S
C281 C28 0.726 . S
C295 C46 0.712 . S
C301 C49 0.692 . S
C315 C67 0.691 . S
C321 C70 0.688 . S
C335 C91 0.688 . S
C341 C88 0.690 . S
C355 C109 0.731 . S
C361 C112 0.759 . S
C375 C20 1.398 . S
C381 C104 1.413 . S
C395 C40 1.412 . S
C401 C125 1.403 . S
C415 C19 1.376 . S
C421 C61 1.381 . S
C435 C41 1.409 . S
C441 C82 1.408 . S
C455 C103 1.374 . S
C461 C62 1.386 . S
C475 C83 1.413 . S
C481 C124 1.400 . S
