# Generated by pormake.
# Topology wgb, (5)-cn, num edge types: 1
# Building blocks:
#     Node 0, Type 0, BuildingBlock: BEQFEK_clean_sbu_0, # of connection points: 5
#     Node 1, Type 0, BuildingBlock: BEQFEK_clean_sbu_0, # of connection points: 5
#     Node 2, Type 0, BuildingBlock: BEQFEK_clean_sbu_0, # of connection points: 5
#     Node 3, Type 0, BuildingBlock: BEQFEK_clean_sbu_0, # of connection points: 5
#     Node 4, Type 0, BuildingBlock: BEQFEK_clean_sbu_0, # of connection points: 5
#     Node 5, Type 0, BuildingBlock: BEQFEK_clean_sbu_0, # of connection points: 5
#     Node 6, Type 0, BuildingBlock: BEQFEK_clean_sbu_0, # of connection points: 5
#     Node 7, Type 0, BuildingBlock: BEQFEK_clean_sbu_0, # of connection points: 5
#     Node 8, Type 0, BuildingBlock: BEQFEK_clean_sbu_0, # of connection points: 5
#     Node 9, Type 0, BuildingBlock: BEQFEK_clean_sbu_0, # of connection points: 5
#     Node 10, Type 0, BuildingBlock: BEQFEK_clean_sbu_0, # of connection points: 5
#     Node 11, Type 0, BuildingBlock: BEQFEK_clean_sbu_0, # of connection points: 5
#     Node 12, Type 0, BuildingBlock: BEQFEK_clean_sbu_0, # of connection points: 5
#     Node 13, Type 0, BuildingBlock: BEQFEK_clean_sbu_0, # of connection points: 5
#     Node 14, Type 0, BuildingBlock: BEQFEK_clean_sbu_0, # of connection points: 5
#     Node 15, Type 0, BuildingBlock: BEQFEK_clean_sbu_0, # of connection points: 5
#     Edge 16, Type (0, 0), BuildingBlock: UVAHIK_clean_linker_0, # of connection points: 2
#     Edge 17, Type (0, 0), BuildingBlock: UVAHIK_clean_linker_0, # of connection points: 2
#     Edge 18, Type (0, 0), BuildingBlock: UVAHIK_clean_linker_0, # of connection points: 2
#     Edge 19, Type (0, 0), BuildingBlock: UVAHIK_clean_linker_0, # of connection points: 2
#     Edge 20, Type (0, 0), BuildingBlock: UVAHIK_clean_linker_0, # of connection points: 2
#     Edge 21, Type (0, 0), BuildingBlock: UVAHIK_clean_linker_0, # of connection points: 2
#     Edge 22, Type (0, 0), BuildingBlock: UVAHIK_clean_linker_0, # of connection points: 2
#     Edge 23, Type (0, 0), BuildingBlock: UVAHIK_clean_linker_0, # of connection points: 2
#     Edge 24, Type (0, 0), BuildingBlock: UVAHIK_clean_linker_0, # of connection points: 2
#     Edge 25, Type (0, 0), BuildingBlock: UVAHIK_clean_linker_0, # of connection points: 2
#     Edge 26, Type (0, 0), BuildingBlock: UVAHIK_clean_linker_0, # of connection points: 2
#     Edge 27, Type (0, 0), BuildingBlock: UVAHIK_clean_linker_0, # of connection points: 2
#     Edge 28, Type (0, 0), BuildingBlock: UVAHIK_clean_linker_0, # of connection points: 2
#     Edge 29, Type (0, 0), BuildingBlock: UVAHIK_clean_linker_0, # of connection points: 2
#     Edge 30, Type (0, 0), BuildingBlock: UVAHIK_clean_linker_0, # of connection points: 2
#     Edge 31, Type (0, 0), BuildingBlock: UVAHIK_clean_linker_0, # of connection points: 2
#     Edge 32, Type (0, 0), BuildingBlock: UVAHIK_clean_linker_0, # of connection points: 2
#     Edge 33, Type (0, 0), BuildingBlock: UVAHIK_clean_linker_0, # of connection points: 2
#     Edge 34, Type (0, 0), BuildingBlock: UVAHIK_clean_linker_0, # of connection points: 2
#     Edge 35, Type (0, 0), BuildingBlock: UVAHIK_clean_linker_0, # of connection points: 2
#     Edge 36, Type (0, 0), BuildingBlock: UVAHIK_clean_linker_0, # of connection points: 2
#     Edge 37, Type (0, 0), BuildingBlock: UVAHIK_clean_linker_0, # of connection points: 2
#     Edge 38, Type (0, 0), BuildingBlock: UVAHIK_clean_linker_0, # of connection points: 2
#     Edge 39, Type (0, 0), BuildingBlock: UVAHIK_clean_linker_0, # of connection points: 2
#     Edge 40, Type (0, 0), BuildingBlock: UVAHIK_clean_linker_0, # of connection points: 2
#     Edge 41, Type (0, 0), BuildingBlock: UVAHIK_clean_linker_0, # of connection points: 2
#     Edge 42, Type (0, 0), BuildingBlock: UVAHIK_clean_linker_0, # of connection points: 2
#     Edge 43, Type (0, 0), BuildingBlock: UVAHIK_clean_linker_0, # of connection points: 2
#     Edge 44, Type (0, 0), BuildingBlock: UVAHIK_clean_linker_0, # of connection points: 2
#     Edge 45, Type (0, 0), BuildingBlock: UVAHIK_clean_linker_0, # of connection points: 2
#     Edge 46, Type (0, 0), BuildingBlock: UVAHIK_clean_linker_0, # of connection points: 2
#     Edge 47, Type (0, 0), BuildingBlock: UVAHIK_clean_linker_0, # of connection points: 2
#     Edge 48, Type (0, 0), BuildingBlock: UVAHIK_clean_linker_0, # of connection points: 2
#     Edge 49, Type (0, 0), BuildingBlock: UVAHIK_clean_linker_0, # of connection points: 2
#     Edge 50, Type (0, 0), BuildingBlock: UVAHIK_clean_linker_0, # of connection points: 2
#     Edge 51, Type (0, 0), BuildingBlock: UVAHIK_clean_linker_0, # of connection points: 2
#     Edge 52, Type (0, 0), BuildingBlock: UVAHIK_clean_linker_0, # of connection points: 2
#     Edge 53, Type (0, 0), BuildingBlock: UVAHIK_clean_linker_0, # of connection points: 2
#     Edge 54, Type (0, 0), BuildingBlock: UVAHIK_clean_linker_0, # of connection points: 2
#     Edge 55, Type (0, 0), BuildingBlock: UVAHIK_clean_linker_0, # of connection points: 2
# Relax obj value: 0.133
# Max RMSD: 0.138
# Mean RMSD: 0.138
data_MOF--net-wgb--node1-BEQFEK_clean_sbu_0--edge1-UVAHIK_clean_linker_0
_symmetry_space_group_name_H-M    P1
_symmetry_Int_Tables_number       1
_symmetry_cell_setting            triclinic
loop_
_symmetry_equiv_pos_as_xyz
'x, y, z'
_cell_length_a     80.070977
_cell_length_b     80.081093
_cell_length_c     26.075603
_cell_angle_alpha  89.96349
_cell_angle_beta   89.994582
_cell_angle_gamma 89.961127
loop_
_atom_site_label
_atom_site_type_symbol
_atom_site_fract_x
_atom_site_fract_y
_atom_site_fract_z
_atom_type_partial_charge
Co0 Co 0.34423 0.07367 0.11638 0.0
Co1 Co 0.33455 0.11135 0.13525 0.0
C2 C 0.32131 0.09226 0.04437 0.0
O3 O 0.32917 0.07895 0.05684 0.0
O4 O 0.32276 0.10565 0.07055 0.0
C5 C 0.34584 0.03792 0.1112 0.0
O6 O 0.32951 0.03915 0.10773 0.0
C7 C 0.33259 0.14845 0.12583 0.0
C8 C 0.32567 0.15494 0.20544 0.0
C9 C 0.32917 0.16193 0.15807 0.0
N10 N 0.33131 0.13428 0.1534 0.0
N11 N 0.3271 0.1383 0.20081 0.0
C12 C 0.33635 0.14882 0.06966 0.0
H13 H 0.3332 0.13668 0.05173 0.0
H14 H 0.3499 0.15107 0.06404 0.0
H15 H 0.32931 0.15903 0.05058 0.0
C16 C 0.37783 0.08776 0.1369 0.0
N17 N 0.36145 0.08983 0.12668 0.0
N18 N 0.35747 0.10559 0.13421 0.0
C19 C 0.37117 0.11401 0.14957 0.0
C20 C 0.38455 0.10298 0.15186 0.0
C21 C 0.38653 0.07122 0.13655 0.0
H22 H 0.38175 0.06351 0.16872 0.0
H23 H 0.38376 0.06461 0.10017 0.0
H24 H 0.40025 0.07267 0.1405 0.0
O25 O 0.32999 0.07223 0.17823 0.0
O26 O 0.32367 0.09887 0.19065 0.0
H27 H 0.36139 0.13233 0.20113 0.0
H28 H 0.38302 0.13552 0.18522 0.0
C29 C 0.37076 0.13149 0.16995 0.0
H30 H 0.36696 0.14013 0.13886 0.0
H31 H 0.32534 0.12968 0.2303 0.0
O32 O 0.35457 0.05117 0.11139 0.0
C33 C 0.32267 0.08362 0.20369 0.0
Co34 Co 0.07313 0.65886 0.87282 0.0
Co35 Co 0.11105 0.66777 0.85633 0.0
C36 C 0.09258 0.67969 0.94925 0.0
O37 O 0.07903 0.67269 0.93464 0.0
O38 O 0.10609 0.67815 0.92365 0.0
C39 C 0.03725 0.65766 0.88064 0.0
O40 O 0.03853 0.67389 0.88708 0.0
C41 C 0.14805 0.66867 0.86492 0.0
C42 C 0.15474 0.67411 0.78436 0.0
C43 C 0.16158 0.67078 0.83203 0.0
N44 N 0.13393 0.67053 0.83754 0.0
N45 N 0.13805 0.67399 0.78963 0.0
C46 C 0.14837 0.6636 0.92011 0.0
H47 H 0.13632 0.65773 0.93108 0.0
H48 H 0.15884 0.65483 0.92747 0.0
H49 H 0.15022 0.67487 0.94417 0.0
C50 C 0.08641 0.62511 0.84861 0.0
N51 N 0.08877 0.6414 0.8595 0.0
N52 N 0.10465 0.64505 0.85306 0.0
C53 C 0.1129 0.63121 0.83797 0.0
C54 C 0.1016 0.61809 0.83459 0.0
C55 C 0.06975 0.61668 0.84893 0.0
H56 H 0.0633 0.6193 0.88571 0.0
H57 H 0.07096 0.60297 0.84403 0.0
H58 H 0.062 0.62184 0.81738 0.0
O59 O 0.07193 0.67444 0.81397 0.0
O60 O 0.09869 0.6807 0.80484 0.0
H61 H 0.1323 0.64046 0.78935 0.0
H62 H 0.13463 0.61878 0.8055 0.0
C63 C 0.1307 0.63113 0.82032 0.0
H64 H 0.13892 0.63464 0.85274 0.0
H65 H 0.12945 0.67582 0.7601 0.0
O66 O 0.05047 0.64894 0.87732 0.0
C67 C 0.08353 0.68244 0.79152 0.0
Co68 Co 0.66112 0.92982 0.12494 0.0
Co69 Co 0.66718 0.89093 0.13132 0.0
C70 C 0.6798 0.91055 0.04206 0.0
O71 O 0.67383 0.92411 0.06053 0.0
O72 O 0.67749 0.89654 0.06437 0.0
C73 C 0.64473 0.96263 0.10001 0.0
O74 O 0.63749 0.95617 0.05941 0.0
C75 C 0.66813 0.85352 0.12089 0.0
C76 C 0.67099 0.84701 0.20284 0.0
C77 C 0.66976 0.84004 0.15446 0.0
N78 N 0.66831 0.86771 0.14865 0.0
N79 N 0.67004 0.86364 0.19748 0.0
C80 C 0.66709 0.85306 0.06366 0.0
H81 H 0.67146 0.86502 0.04701 0.0
H82 H 0.65389 0.8512 0.05215 0.0
H83 H 0.67463 0.84257 0.0482 0.0
C84 C 0.6269 0.9185 0.15506 0.0
N85 N 0.64259 0.91541 0.13851 0.0
N86 N 0.64509 0.89916 0.13846 0.0
C87 C 0.63098 0.89142 0.15356 0.0
C88 C 0.61901 0.90338 0.16515 0.0
C89 C 0.62046 0.93553 0.16815 0.0
H90 H 0.63052 0.94307 0.18589 0.0
H91 H 0.61632 0.94184 0.13248 0.0
H92 H 0.60973 0.9349 0.19498 0.0
O93 O 0.67732 0.92833 0.18139 0.0
O94 O 0.68165 0.90108 0.18353 0.0
H95 H 0.63531 0.86864 0.19419 0.0
H96 H 0.6158 0.86918 0.15961 0.0
C97 C 0.62915 0.87289 0.1584 0.0
H98 H 0.63524 0.86666 0.12539 0.0
H99 H 0.67058 0.87228 0.22737 0.0
O100 O 0.65432 0.95365 0.1274 0.0
C101 C 0.68467 0.91567 0.20005 0.0
Co102 Co 0.92892 0.34171 0.87443 0.0
Co103 Co 0.88989 0.33715 0.86908 0.0
C104 C 0.90921 0.3229 0.95642 0.0
O105 O 0.9229 0.32857 0.93792 0.0
O106 O 0.89519 0.32593 0.93492 0.0
C107 C 0.96226 0.35697 0.89902 0.0
O108 O 0.95618 0.36395 0.94061 0.0
C109 C 0.8527 0.33755 0.88138 0.0
C110 C 0.84555 0.33849 0.79949 0.0
C111 C 0.83899 0.3384 0.84857 0.0
N112 N 0.86666 0.3373 0.85261 0.0
N113 N 0.86223 0.33769 0.80381 0.0
C114 C 0.8527 0.33817 0.93867 0.0
H115 H 0.86475 0.34321 0.95291 0.0
H116 H 0.84219 0.34593 0.95287 0.0
H117 H 0.85118 0.32531 0.95387 0.0
C118 C 0.91879 0.37651 0.84676 0.0
N119 N 0.91519 0.36088 0.86292 0.0
N120 N 0.89886 0.35903 0.86399 0.0
C121 C 0.89159 0.37354 0.85028 0.0
C122 C 0.90392 0.38505 0.83816 0.0
C123 C 0.93593 0.38227 0.83226 0.0
H124 H 0.94288 0.37198 0.81349 0.0
H125 H 0.94275 0.386 0.86745 0.0
H126 H 0.93549 0.39313 0.80587 0.0
O127 O 0.92664 0.32621 0.81656 0.0
O128 O 0.89924 0.32287 0.81481 0.0
H129 H 0.86839 0.37108 0.81046 0.0
H130 H 0.87005 0.38978 0.84846 0.0
C131 C 0.87313 0.37627 0.84708 0.0
H132 H 0.86682 0.36986 0.87937 0.0
H133 H 0.87067 0.33774 0.77331 0.0
O134 O 0.95294 0.3478 0.87144 0.0
C135 C 0.91368 0.31954 0.7975 0.0
Co136 Co 0.34161 0.43032 0.12733 0.0
Co137 Co 0.33719 0.39129 0.12116 0.0
C138 C 0.32271 0.4103 0.20845 0.0
O139 O 0.32835 0.42406 0.19039 0.0
O140 O 0.32579 0.39637 0.18659 0.0
C141 C 0.3577 0.463 0.1527 0.0
O142 O 0.36546 0.45603 0.1916 0.0
C143 C 0.33737 0.35412 0.13351 0.0
C144 C 0.33872 0.3469 0.05176 0.0
C145 C 0.33829 0.34038 0.10089 0.0
N146 N 0.33741 0.36806 0.10462 0.0
N147 N 0.33804 0.36359 0.05588 0.0
C148 C 0.3376 0.35416 0.19083 0.0
H149 H 0.3428 0.36611 0.20528 0.0
H150 H 0.34506 0.3435 0.20564 0.0
H151 H 0.32462 0.35293 0.2052 0.0
C152 C 0.3763 0.42024 0.09802 0.0
N153 N 0.36082 0.41664 0.11552 0.0
N154 N 0.35906 0.40031 0.11719 0.0
C155 C 0.37352 0.39305 0.103 0.0
C156 C 0.38486 0.40538 0.08949 0.0
C157 C 0.38176 0.43729 0.08146 0.0
H158 H 0.37104 0.44429 0.06528 0.0
H159 H 0.38661 0.44416 0.11521 0.0
H160 H 0.3918 0.43664 0.05223 0.0
O161 O 0.32636 0.42821 0.06885 0.0
O162 O 0.32328 0.40077 0.06609 0.0
H163 H 0.37121 0.36972 0.06385 0.0
H164 H 0.38982 0.37158 0.10212 0.0
C165 C 0.3763 0.37459 0.10042 0.0
H166 H 0.36985 0.36835 0.13278 0.0
H167 H 0.33831 0.372 0.02532 0.0
O168 O 0.34767 0.45438 0.1258 0.0
C169 C 0.31996 0.41525 0.04895 0.0
Co170 Co 0.42981 0.66031 0.87442 0.0
Co171 Co 0.39093 0.66631 0.88121 0.0
C172 C 0.41063 0.68052 0.79459 0.0
O173 O 0.42415 0.67416 0.81204 0.0
O174 O 0.39664 0.67793 0.8166 0.0
C175 C 0.46144 0.64247 0.84837 0.0
O176 O 0.45349 0.63407 0.81267 0.0
C177 C 0.35361 0.6677 0.86917 0.0
C178 C 0.34661 0.66872 0.95112 0.0
C179 C 0.33992 0.6686 0.90218 0.0
N180 N 0.36764 0.66719 0.89773 0.0
N181 N 0.36328 0.66783 0.94656 0.0
C182 C 0.35352 0.668 0.81182 0.0
H183 H 0.36564 0.67254 0.79686 0.0
H184 H 0.35154 0.65512 0.79735 0.0
H185 H 0.34327 0.67606 0.79739 0.0
C186 C 0.41825 0.62593 0.90277 0.0
N187 N 0.41532 0.64161 0.88564 0.0
N188 N 0.39906 0.64408 0.88425 0.0
C189 C 0.39119 0.62994 0.89832 0.0
C190 C 0.40304 0.61801 0.9112 0.0
C191 C 0.435 0.6197 0.91972 0.0
H192 H 0.4427 0.63019 0.93414 0.0
H193 H 0.44143 0.61382 0.88669 0.0
H194 H 0.4338 0.61019 0.95047 0.0
O195 O 0.42838 0.67534 0.93373 0.0
O196 O 0.40106 0.6794 0.937 0.0
H197 H 0.36821 0.63377 0.93833 0.0
H198 H 0.36893 0.61476 0.90143 0.0
C199 C 0.37263 0.62811 0.90199 0.0
H200 H 0.36658 0.63464 0.86943 0.0
H201 H 0.37174 0.66766 0.97698 0.0
O202 O 0.45368 0.65343 0.87435 0.0
C203 C 0.41566 0.68207 0.95417 0.0
Co204 Co 0.65874 0.57165 0.12887 0.0
Co205 Co 0.6644 0.6105 0.12086 0.0
C206 C 0.67851 0.59123 0.20861 0.0
O207 O 0.67232 0.5776 0.19138 0.0
O208 O 0.67587 0.60516 0.18614 0.0
C209 C 0.64271 0.53863 0.15448 0.0
O210 O 0.63525 0.54497 0.19492 0.0
C211 C 0.66463 0.64774 0.13204 0.0
C212 C 0.66481 0.65467 0.04993 0.0
C213 C 0.66441 0.66137 0.0988 0.0
N214 N 0.66496 0.63369 0.10368 0.0
N215 N 0.66526 0.638 0.05476 0.0
C216 C 0.66325 0.64788 0.18921 0.0
H217 H 0.65809 0.63585 0.20318 0.0
H218 H 0.65524 0.65839 0.20211 0.0
H219 H 0.67588 0.64954 0.20593 0.0
C220 C 0.62427 0.58264 0.10053 0.0
N221 N 0.63991 0.58587 0.11738 0.0
N222 N 0.64222 0.60214 0.11763 0.0
C223 C 0.62801 0.60974 0.1028 0.0
C224 C 0.61623 0.59769 0.09062 0.0
C225 C 0.61819 0.56561 0.08604 0.0
H226 H 0.62841 0.55842 0.0677 0.0
H227 H 0.61421 0.55891 0.12119 0.0
H228 H 0.60741 0.56625 0.05937 0.0
O229 O 0.67387 0.57318 0.06988 0.0
O230 O 0.67777 0.60047 0.06558 0.0
H231 H 0.63177 0.63239 0.06091 0.0
H232 H 0.61255 0.63177 0.09673 0.0
C233 C 0.62595 0.62823 0.09731 0.0
H234 H 0.63215 0.63467 0.12972 0.0
H235 H 0.6654 0.62949 0.02447 0.0
O236 O 0.65221 0.54776 0.12734 0.0
C237 C 0.68056 0.58583 0.04902 0.0
Co238 Co 0.57128 0.34265 0.8705 0.0
Co239 Co 0.60968 0.33493 0.8842 0.0
C240 C 0.59038 0.32186 0.79368 0.0
O241 O 0.5768 0.3288 0.80842 0.0
O242 O 0.60397 0.32371 0.81864 0.0
C243 C 0.53816 0.35859 0.84202 0.0
O244 O 0.54346 0.36309 0.79638 0.0
C245 C 0.64694 0.33386 0.8732 0.0
C246 C 0.65371 0.32808 0.95347 0.0
C247 C 0.66053 0.33102 0.90554 0.0
N248 N 0.63284 0.33275 0.90123 0.0
N249 N 0.63706 0.32926 0.94905 0.0
C250 C 0.64716 0.33693 0.81663 0.0
H251 H 0.63501 0.33344 0.79928 0.0
H252 H 0.64926 0.35042 0.80946 0.0
H253 H 0.65741 0.32977 0.79822 0.0
C254 C 0.58381 0.37685 0.89466 0.0
N255 N 0.58649 0.36072 0.88208 0.0
N256 N 0.60255 0.35748 0.88668 0.0
C257 C 0.61058 0.37142 0.90185 0.0
C258 C 0.59897 0.38418 0.90757 0.0
C259 C 0.56692 0.3848 0.89728 0.0
H260 H 0.55891 0.37772 0.92434 0.0
H261 H 0.56108 0.38431 0.85881 0.0
H262 H 0.56761 0.39805 0.90949 0.0
O263 O 0.57156 0.32742 0.9299 0.0
O264 O 0.59856 0.32243 0.93898 0.0
H265 H 0.63031 0.36294 0.95048 0.0
H266 H 0.63259 0.38431 0.93064 0.0
C267 C 0.62851 0.37175 0.91814 0.0
H268 H 0.63648 0.36761 0.88579 0.0
H269 H 0.62854 0.32775 0.97896 0.0
O270 O 0.54784 0.35071 0.87214 0.0
C271 C 0.58355 0.32035 0.95318 0.0
Co272 Co 0.84092 0.57311 0.62645 0.0
Co273 Co 0.83372 0.61181 0.62995 0.0
C274 C 0.8217 0.59163 0.54216 0.0
O275 O 0.82785 0.57827 0.56165 0.0
O276 O 0.82378 0.60582 0.56344 0.0
C277 C 0.85949 0.54144 0.60389 0.0
O278 O 0.86717 0.5487 0.56534 0.0
C279 C 0.83153 0.64912 0.6191 0.0
C280 C 0.82884 0.65561 0.70111 0.0
C281 C 0.82968 0.66256 0.6526 0.0
N282 N 0.83188 0.63496 0.647 0.0
N283 N 0.83022 0.63901 0.69586 0.0
C284 C 0.83231 0.64959 0.56181 0.0
H285 H 0.82807 0.63756 0.54543 0.0
H286 H 0.84543 0.65167 0.54971 0.0
H287 H 0.82453 0.65995 0.54661 0.0
C288 C 0.87461 0.58595 0.65821 0.0
N289 N 0.85897 0.58822 0.63987 0.0
N290 N 0.85601 0.60436 0.63692 0.0
C291 C 0.86978 0.61281 0.65097 0.0
C292 C 0.88199 0.60149 0.66591 0.0
C293 C 0.88135 0.56944 0.67549 0.0
H294 H 0.87111 0.56153 0.69063 0.0
H295 H 0.88715 0.563 0.64231 0.0
H296 H 0.89097 0.57098 0.70573 0.0
O297 O 0.82473 0.57421 0.68291 0.0
O298 O 0.81958 0.60133 0.68248 0.0
H299 H 0.86516 0.63653 0.68588 0.0
H300 H 0.88436 0.63552 0.64977 0.0
C301 C 0.87112 0.63146 0.6508 0.0
H302 H 0.86458 0.63659 0.61683 0.0
H303 H 0.83008 0.63037 0.72584 0.0
O304 O 0.84869 0.54955 0.62952 0.0
C305 C 0.81699 0.58681 0.70035 0.0
Co306 Co 0.57312 0.1606 0.37427 0.0
Co307 Co 0.61172 0.16797 0.3633 0.0
C308 C 0.59222 0.18007 0.45451 0.0
O309 O 0.57864 0.17358 0.43802 0.0
O310 O 0.60598 0.17823 0.43038 0.0
C311 C 0.53933 0.14558 0.40012 0.0
O312 O 0.54419 0.14063 0.44579 0.0
C313 C 0.64902 0.16833 0.37463 0.0
C314 C 0.65587 0.17504 0.29512 0.0
C315 C 0.66266 0.17141 0.34265 0.0
N316 N 0.63494 0.16999 0.34675 0.0
N317 N 0.63921 0.17404 0.2994 0.0
C318 C 0.64919 0.16459 0.43081 0.0
H319 H 0.63704 0.16793 0.44846 0.0
H320 H 0.65125 0.15102 0.4365 0.0
H321 H 0.65944 0.17149 0.45007 0.0
C322 C 0.58531 0.12643 0.34817 0.0
N323 N 0.58811 0.1425 0.36115 0.0
N324 N 0.6042 0.1456 0.35714 0.0
C325 C 0.61215 0.13162 0.34178 0.0
C326 C 0.60044 0.11898 0.33551 0.0
C327 C 0.56837 0.1186 0.34608 0.0
H328 H 0.56248 0.1195 0.38442 0.0
H329 H 0.56898 0.10525 0.33493 0.0
H330 H 0.56044 0.12553 0.3184 0.0
O331 O 0.57388 0.17675 0.31734 0.0
O332 O 0.60091 0.18192 0.3112 0.0
H333 H 0.63246 0.14037 0.29595 0.0
H334 H 0.63407 0.11866 0.3125 0.0
C335 C 0.63019 0.1311 0.32671 0.0
H336 H 0.63799 0.1345 0.36022 0.0
H337 H 0.63071 0.17607 0.26972 0.0
O338 O 0.54948 0.15319 0.37084 0.0
C339 C 0.586 0.1844 0.29661 0.0
Co340 Co 0.16032 0.42829 0.62375 0.0
Co341 Co 0.16544 0.38934 0.63074 0.0
C342 C 0.17946 0.40882 0.54283 0.0
O343 O 0.17355 0.4225 0.56057 0.0
O344 O 0.17669 0.39487 0.56506 0.0
C345 C 0.14641 0.46218 0.59725 0.0
O346 O 0.14108 0.45686 0.55251 0.0
C347 C 0.16484 0.3523 0.61657 0.0
C348 C 0.16609 0.34452 0.69789 0.0
C349 C 0.16488 0.33835 0.64849 0.0
N350 N 0.16582 0.36603 0.64616 0.0
N351 N 0.16675 0.36123 0.69457 0.0
C352 C 0.16272 0.35274 0.55964 0.0
H353 H 0.15743 0.36494 0.5475 0.0
H354 H 0.15451 0.3424 0.54672 0.0
H355 H 0.17512 0.35121 0.54122 0.0
C356 C 0.12536 0.41782 0.64744 0.0
N357 N 0.14128 0.41431 0.63423 0.0
N358 N 0.14339 0.398 0.63518 0.0
C359 C 0.12883 0.39064 0.64791 0.0
C360 C 0.11691 0.40294 0.65641 0.0
C361 C 0.11862 0.43512 0.65398 0.0
H362 H 0.11862 0.44148 0.61624 0.0
H363 H 0.10567 0.43509 0.66899 0.0
H364 H 0.12682 0.44227 0.68029 0.0
O365 O 0.17578 0.42616 0.68205 0.0
O366 O 0.17936 0.39882 0.6853 0.0
H367 H 0.11383 0.36864 0.66446 0.0
H368 H 0.13217 0.36512 0.62587 0.0
C369 C 0.127 0.37234 0.65844 0.0
H370 H 0.13413 0.36913 0.69351 0.0
H371 H 0.1675 0.36942 0.72559 0.0
O372 O 0.15403 0.45224 0.62718 0.0
C373 C 0.18251 0.41336 0.70199 0.0
Co374 Co 0.42962 0.84246 0.37554 0.0
Co375 Co 0.39076 0.83637 0.37358 0.0
C376 C 0.41088 0.8237 0.46053 0.0
O377 O 0.42427 0.82955 0.44047 0.0
O378 O 0.39663 0.82613 0.43987 0.0
C379 C 0.46172 0.86019 0.39732 0.0
O380 O 0.45455 0.86824 0.43529 0.0
C381 C 0.35361 0.83532 0.38687 0.0
C382 C 0.34623 0.83577 0.30513 0.0
C383 C 0.3398 0.83556 0.35437 0.0
N384 N 0.3675 0.83553 0.35776 0.0
N385 N 0.36294 0.83561 0.30906 0.0
C386 C 0.35372 0.83611 0.44414 0.0
H387 H 0.36563 0.84158 0.458 0.0
H388 H 0.343 0.84359 0.45835 0.0
H389 H 0.35263 0.82326 0.45973 0.0
C390 C 0.41765 0.87647 0.34383 0.0
N391 N 0.41503 0.86095 0.36267 0.0
N392 N 0.39884 0.85849 0.36679 0.0
C393 C 0.39072 0.87254 0.35329 0.0
C394 C 0.40228 0.88434 0.33715 0.0
C395 C 0.43421 0.88263 0.32514 0.0
H396 H 0.44177 0.87208 0.31032 0.0
H397 H 0.441 0.88851 0.3575 0.0
H398 H 0.4327 0.89207 0.29432 0.0
O399 O 0.42778 0.82638 0.31913 0.0
O400 O 0.40053 0.82195 0.32022 0.0
H401 H 0.36649 0.8693 0.32019 0.0
H402 H 0.36867 0.88801 0.35785 0.0
C403 C 0.37215 0.87462 0.35535 0.0
H404 H 0.36707 0.86797 0.38919 0.0
H405 H 0.3713 0.83591 0.27836 0.0
O406 O 0.45342 0.84947 0.37202 0.0
C407 C 0.41493 0.819 0.30195 0.0
Co408 Co 0.8433 0.93053 0.62701 0.0
Co409 Co 0.83662 0.89187 0.62114 0.0
C410 C 0.82283 0.91154 0.70751 0.0
O411 O 0.82924 0.925 0.6896 0.0
O412 O 0.82529 0.89746 0.68587 0.0
C413 C 0.86161 0.96226 0.6511 0.0
O414 O 0.86954 0.95486 0.68892 0.0
C415 C 0.83524 0.85466 0.63182 0.0
C416 C 0.83575 0.84792 0.54958 0.0
C417 C 0.83548 0.84111 0.59835 0.0
N418 N 0.83554 0.86877 0.6037 0.0
N419 N 0.83565 0.86458 0.55469 0.0
C420 C 0.83603 0.85436 0.68909 0.0
H421 H 0.84118 0.86629 0.70384 0.0
H422 H 0.84378 0.84372 0.70251 0.0
H423 H 0.82321 0.8528 0.70458 0.0
C424 C 0.87741 0.91813 0.59791 0.0
N425 N 0.86173 0.91569 0.61573 0.0
N426 N 0.85897 0.89952 0.61879 0.0
C427 C 0.87296 0.89123 0.60579 0.0
C428 C 0.88505 0.90266 0.5909 0.0
C429 C 0.88389 0.93463 0.5797 0.0
H430 H 0.87351 0.94238 0.56465 0.0
H431 H 0.88977 0.94126 0.61238 0.0
H432 H 0.89342 0.93304 0.54919 0.0
O433 O 0.82827 0.92944 0.56778 0.0
O434 O 0.82365 0.90224 0.56542 0.0
H435 H 0.86928 0.86736 0.57073 0.0
H436 H 0.88796 0.86883 0.60894 0.0
C437 C 0.87465 0.87262 0.60642 0.0
H438 H 0.86783 0.8674 0.63972 0.0
H439 H 0.83606 0.87316 0.52458 0.0
O440 O 0.85076 0.95419 0.62558 0.0
C441 C 0.82127 0.91683 0.54776 0.0
Co442 Co 0.93122 0.16044 0.37182 0.0
Co443 Co 0.89212 0.16469 0.37784 0.0
C444 C 0.9111 0.1794 0.29079 0.0
O445 O 0.92488 0.17379 0.30892 0.0
O446 O 0.89716 0.17621 0.31245 0.0
C447 C 0.96376 0.14435 0.34548 0.0
O448 O 0.95652 0.1367 0.30688 0.0
C449 C 0.85489 0.16419 0.366 0.0
C450 C 0.84783 0.1629 0.44791 0.0
C451 C 0.84122 0.16317 0.3989 0.0
N452 N 0.86889 0.16436 0.39465 0.0
N453 N 0.8645 0.16376 0.44347 0.0
C454 C 0.85484 0.16383 0.30869 0.0
H455 H 0.86688 0.15884 0.29413 0.0
H456 H 0.84432 0.15613 0.29426 0.0
H457 H 0.85329 0.17675 0.29405 0.0
C458 C 0.9213 0.12561 0.40032 0.0
N459 N 0.91762 0.14114 0.3833 0.0
N460 N 0.90127 0.14285 0.38176 0.0
C461 C 0.89409 0.12833 0.39571 0.0
C462 C 0.90648 0.11699 0.4087 0.0
C463 C 0.93837 0.12011 0.41653 0.0
H464 H 0.94538 0.13078 0.4329 0.0
H465 H 0.94521 0.11534 0.38258 0.0
H466 H 0.93776 0.10997 0.44547 0.0
O467 O 0.929 0.17562 0.43055 0.0
O468 O 0.90154 0.17859 0.43289 0.0
H469 H 0.87085 0.13057 0.43548 0.0
H470 H 0.87269 0.11196 0.3972 0.0
C471 C 0.87565 0.12549 0.39878 0.0
H472 H 0.86931 0.13191 0.36656 0.0
H473 H 0.87297 0.16361 0.47389 0.0
O474 O 0.95534 0.15441 0.37292 0.0
C475 C 0.91597 0.18196 0.45027 0.0
Co476 Co 0.16224 0.07076 0.61811 0.0
Co477 Co 0.16915 0.10939 0.60795 0.0
C478 C 0.18052 0.0906 0.70039 0.0
O479 O 0.17454 0.07692 0.68293 0.0
O480 O 0.17864 0.10435 0.6763 0.0
C481 C 0.14478 0.03869 0.64441 0.0
O482 O 0.13672 0.04597 0.68215 0.0
C483 C 0.16994 0.14674 0.61701 0.0
C484 C 0.17392 0.15312 0.53542 0.0
C485 C 0.17181 0.16017 0.58344 0.0
N486 N 0.17073 0.13249 0.58961 0.0
N487 N 0.17317 0.13647 0.541 0.0
C488 C 0.16802 0.14729 0.67405 0.0
H489 H 0.17243 0.13548 0.69158 0.0
H490 H 0.15461 0.14883 0.68366 0.0
H491 H 0.17506 0.15797 0.69037 0.0
C492 C 0.12838 0.08247 0.5845 0.0
N493 N 0.14408 0.08536 0.60142 0.0
N494 N 0.14694 0.10154 0.59984 0.0
C495 C 0.13307 0.10945 0.58342 0.0
C496 C 0.12088 0.09766 0.57259 0.0
C497 C 0.12155 0.06549 0.57295 0.0
H498 H 0.13156 0.05734 0.55764 0.0
H499 H 0.11665 0.05989 0.60881 0.0
H500 H 0.11123 0.06611 0.54461 0.0
O501 O 0.17893 0.07133 0.56292 0.0
O502 O 0.18405 0.09843 0.55808 0.0
H503 H 0.13831 0.13187 0.54195 0.0
H504 H 0.11836 0.13194 0.57427 0.0
C505 C 0.13161 0.12797 0.5772 0.0
H506 H 0.13737 0.13429 0.61055 0.0
H507 H 0.17425 0.12777 0.51142 0.0
O508 O 0.15514 0.04701 0.61778 0.0
C509 C 0.18684 0.08354 0.54361 0.0
Co510 Co 0.07313 0.84153 0.37014 0.0
Co511 Co 0.11091 0.83192 0.38797 0.0
C512 C 0.09221 0.81985 0.29531 0.0
O513 O 0.07881 0.82735 0.30886 0.0
O514 O 0.10559 0.82106 0.32162 0.0
C515 C 0.03731 0.84347 0.36435 0.0
O516 O 0.03829 0.82713 0.36109 0.0
C517 C 0.14806 0.82927 0.38011 0.0
C518 C 0.15419 0.82436 0.46138 0.0
C519 C 0.16138 0.8266 0.41359 0.0
N520 N 0.13377 0.82884 0.40735 0.0
N521 N 0.13758 0.82581 0.45577 0.0
C522 C 0.14874 0.83172 0.32326 0.0
H523 H 0.13679 0.82794 0.30532 0.0
H524 H 0.15078 0.84514 0.31479 0.0
H525 H 0.15918 0.82444 0.30638 0.0
C526 C 0.08686 0.87486 0.3963 0.0
N527 N 0.08909 0.85868 0.38355 0.0
N528 N 0.10493 0.85476 0.38965 0.0
C529 C 0.1133 0.86836 0.40594 0.0
C530 C 0.10214 0.88153 0.41115 0.0
C531 C 0.07005 0.88281 0.40199 0.0
H532 H 0.0624 0.87523 0.42873 0.0
H533 H 0.06367 0.88295 0.36423 0.0
H534 H 0.07085 0.89574 0.41695 0.0
O535 O 0.07154 0.8264 0.42982 0.0
O536 O 0.09822 0.82 0.44124 0.0
H537 H 0.13352 0.8612 0.45477 0.0
H538 H 0.1362 0.88139 0.42476 0.0
C539 C 0.13149 0.86849 0.41913 0.0
H540 H 0.13869 0.86257 0.38779 0.0
H541 H 0.12882 0.82489 0.48524 0.0
O542 O 0.05069 0.85199 0.36469 0.0
C543 C 0.08295 0.81868 0.45402 0.0
C544 C 0.30698 0.09171 0.28208 0.0
C545 C 0.31196 0.0792 0.24763 0.0
C546 C 0.2953 0.08829 0.3201 0.0
C547 C 0.25954 0.0617 0.34397 0.0
H548 H 0.26068 0.08401 0.47591 0.0
C549 C 0.20426 0.06405 0.49044 0.0
C550 C 0.2007 0.08034 0.50758 0.0
C551 C 0.21855 0.0609 0.46115 0.0
C552 C 0.26024 0.07763 0.43929 0.0
H553 H 0.30923 0.05307 0.22743 0.0
H554 H 0.28857 0.04708 0.29432 0.0
H555 H 0.28589 0.08291 0.42354 0.0
H556 H 0.209 0.10616 0.50563 0.0
H557 H 0.23385 0.1006 0.45496 0.0
H558 H 0.23367 0.05689 0.35944 0.0
C559 C 0.29374 0.05955 0.29149 0.0
C560 C 0.27464 0.07699 0.4094 0.0
C561 C 0.3056 0.06295 0.25348 0.0
C562 C 0.21138 0.09346 0.49334 0.0
C563 C 0.22569 0.09028 0.46468 0.0
C564 C 0.24513 0.06225 0.37416 0.0
C565 C 0.28828 0.07228 0.32454 0.0
C566 C 0.27425 0.06963 0.36056 0.0
C567 C 0.22957 0.07395 0.4492 0.0
C568 C 0.24524 0.07081 0.42109 0.0
H569 H 0.31173 0.10432 0.27879 0.0
H570 H 0.29118 0.09844 0.34448 0.0
H571 H 0.25886 0.05604 0.30632 0.0
H572 H 0.19624 0.05368 0.50065 0.0
H573 H 0.22128 0.04823 0.44929 0.0
C574 C 0.09114 0.80124 0.5289 0.0
C575 C 0.07855 0.8072 0.4962 0.0
C576 C 0.08758 0.78917 0.56566 0.0
C577 C 0.05976 0.75429 0.5898 0.0
H578 H 0.08306 0.75417 0.7202 0.0
C579 C 0.06273 0.69967 0.74206 0.0
C580 C 0.07941 0.69541 0.75319 0.0
C581 C 0.05913 0.71366 0.71173 0.0
C582 C 0.07633 0.75413 0.68414 0.0
H583 H 0.05219 0.80559 0.47748 0.0
H584 H 0.04597 0.78425 0.54214 0.0
H585 H 0.08243 0.77961 0.66879 0.0
H586 H 0.10534 0.70186 0.7384 0.0
H587 H 0.09899 0.72619 0.68644 0.0
H588 H 0.05418 0.72851 0.605 0.0
C589 C 0.0586 0.78898 0.53896 0.0
C590 C 0.076 0.76863 0.65472 0.0
C591 C 0.06215 0.80123 0.50223 0.0
C592 C 0.09236 0.70484 0.73117 0.0
C593 C 0.08876 0.71883 0.70156 0.0
C594 C 0.05999 0.73976 0.61961 0.0
C595 C 0.07135 0.78272 0.5706 0.0
C596 C 0.06835 0.76865 0.60626 0.0
C597 C 0.07217 0.7236 0.69278 0.0
C598 C 0.06888 0.73944 0.66594 0.0
H599 H 0.10389 0.80561 0.52538 0.0
H600 H 0.09774 0.78441 0.58888 0.0
H601 H 0.05384 0.75394 0.55248 0.0
H602 H 0.05248 0.69261 0.75833 0.0
H603 H 0.04624 0.71713 0.705 0.0
C604 C 0.80386 0.93509 0.4908 0.0
C605 C 0.80946 0.91909 0.50492 0.0
C606 C 0.79153 0.93695 0.45332 0.0
C607 C 0.77025 0.91452 0.34831 0.0
H608 H 0.732 0.94193 0.38397 0.0
C609 C 0.70665 0.90391 0.25728 0.0
C610 C 0.69809 0.91792 0.23821 0.0
C611 C 0.72067 0.9059 0.28817 0.0
C612 C 0.7427 0.93443 0.37322 0.0
H613 H 0.80703 0.89256 0.4894 0.0
H614 H 0.78556 0.89581 0.42456 0.0
H615 H 0.7569 0.94242 0.4383 0.0
H616 H 0.69704 0.94502 0.2388 0.0
H617 H 0.72162 0.94844 0.29348 0.0
H618 H 0.75591 0.90612 0.28424 0.0
C619 C 0.79073 0.90693 0.44207 0.0
C620 C 0.75695 0.93475 0.40411 0.0
C621 C 0.80295 0.90506 0.47956 0.0
C622 C 0.70339 0.93398 0.25279 0.0
C623 C 0.71743 0.93596 0.28403 0.0
C624 C 0.75603 0.91416 0.31764 0.0
C625 C 0.78471 0.92285 0.4291 0.0
C626 C 0.77068 0.92445 0.39262 0.0
C627 C 0.72641 0.92192 0.30085 0.0
C628 C 0.74198 0.92377 0.33058 0.0
H629 H 0.80866 0.94614 0.50961 0.0
H630 H 0.78719 0.94938 0.44368 0.0
H631 H 0.78078 0.9067 0.33803 0.0
H632 H 0.70282 0.89136 0.24724 0.0
H633 H 0.72716 0.89486 0.30167 0.0
C634 C 0.93127 0.30093 0.7422 0.0
C635 C 0.91541 0.30651 0.75784 0.0
C636 C 0.93279 0.28717 0.70962 0.0
C637 C 0.90996 0.24943 0.67406 0.0
H638 H 0.93929 0.24796 0.5558 0.0
C639 C 0.90307 0.20075 0.5154 0.0
C640 C 0.9175 0.19428 0.49205 0.0
C641 C 0.90427 0.21348 0.5515 0.0
C642 C 0.93128 0.24809 0.58927 0.0
H643 H 0.8887 0.30265 0.74916 0.0
H644 H 0.8914 0.27877 0.69229 0.0
H645 H 0.93858 0.27298 0.60949 0.0
H646 H 0.94457 0.19569 0.48965 0.0
H647 H 0.94663 0.21796 0.55333 0.0
H648 H 0.90252 0.22468 0.65386 0.0
C649 C 0.90264 0.28483 0.70601 0.0
C650 C 0.93083 0.26241 0.61978 0.0
C651 C 0.90112 0.29857 0.73832 0.0
C652 C 0.93321 0.20044 0.50688 0.0
C653 C 0.9344 0.21325 0.54304 0.0
C654 C 0.91046 0.23513 0.64377 0.0
C655 C 0.91847 0.27876 0.69237 0.0
C656 C 0.9199 0.26331 0.66178 0.0
C657 C 0.91991 0.22003 0.56516 0.0
C658 C 0.92086 0.23444 0.60047 0.0
H659 H 0.94253 0.3068 0.75647 0.0
H660 H 0.94514 0.28272 0.69957 0.0
H661 H 0.90171 0.24968 0.70697 0.0
H662 H 0.89077 0.19626 0.50494 0.0
H663 H 0.89286 0.21859 0.56741 0.0
C664 C 0.301 0.40264 0.98378 0.0
C665 C 0.30766 0.41696 0.00714 0.0
C666 C 0.28833 0.40404 0.9475 0.0
C667 C 0.25417 0.43158 0.90914 0.0
H668 H 0.25224 0.40182 0.79202 0.0
C669 C 0.20114 0.43129 0.75615 0.0
C670 C 0.19545 0.41535 0.7418 0.0
C671 C 0.21494 0.43296 0.78856 0.0
C672 C 0.25259 0.41015 0.82473 0.0
H673 H 0.30666 0.44405 0.0094 0.0
H674 H 0.2845 0.44647 0.94545 0.0
H675 H 0.27728 0.40247 0.845 0.0
H676 H 0.19911 0.38869 0.75276 0.0
H677 H 0.22305 0.39167 0.80922 0.0
H678 H 0.22933 0.43911 0.88882 0.0
C679 C 0.28901 0.43417 0.95585 0.0
C680 C 0.26691 0.41054 0.85495 0.0
C681 C 0.30175 0.43277 0.99218 0.0
C682 C 0.20327 0.40116 0.76255 0.0
C683 C 0.21705 0.40284 0.79464 0.0
C684 C 0.23983 0.43124 0.87865 0.0
C685 C 0.28204 0.41979 0.93367 0.0
C686 C 0.2677 0.42097 0.89815 0.0
C687 C 0.22327 0.41872 0.80685 0.0
C688 C 0.2388 0.42023 0.83695 0.0
H689 H 0.30529 0.39027 0.99434 0.0
H690 H 0.28307 0.39272 0.93158 0.0
H691 H 0.25438 0.43964 0.94249 0.0
H692 H 0.19535 0.44247 0.74091 0.0
H693 H 0.2195 0.44535 0.79759 0.0
C694 C 0.40264 0.79705 0.24571 0.0
C695 C 0.4168 0.80565 0.26336 0.0
C696 C 0.40437 0.78312 0.21427 0.0
C697 C 0.43237 0.76137 0.1262 0.0
H698 H 0.40526 0.72304 0.16301 0.0
C699 C 0.43371 0.69996 0.01021 0.0
C700 C 0.41779 0.69399 0.99676 0.0
C701 C 0.43542 0.71245 0.04721 0.0
C702 C 0.41289 0.73365 0.15225 0.0
H703 H 0.44387 0.80687 0.25971 0.0
H704 H 0.44683 0.78245 0.20425 0.0
H705 H 0.40465 0.74793 0.21664 0.0
H706 H 0.39126 0.69593 0.01305 0.0
H707 H 0.39424 0.71769 0.07708 0.0
H708 H 0.44025 0.7472 0.06095 0.0
C709 C 0.43443 0.78653 0.21513 0.0
C710 C 0.41251 0.74789 0.18282 0.0
C711 C 0.43271 0.80048 0.24686 0.0
C712 C 0.40371 0.70029 0.02238 0.0
C713 C 0.40542 0.71268 0.05938 0.0
C714 C 0.43271 0.7471 0.09543 0.0
C715 C 0.42028 0.77751 0.19964 0.0
C716 C 0.42193 0.76201 0.16942 0.0
C717 C 0.42125 0.71907 0.07161 0.0
C718 C 0.42266 0.73326 0.10758 0.0
H719 H 0.39018 0.80078 0.25726 0.0
H720 H 0.39323 0.77659 0.20186 0.0
H721 H 0.43972 0.77213 0.11504 0.0
H722 H 0.44482 0.69533 0.99118 0.0
H723 H 0.44778 0.71707 0.0563 0.0
C724 C 0.69886 0.59754 0.98058 0.0
C725 C 0.69249 0.58354 0.00649 0.0
C726 C 0.71115 0.59564 0.94329 0.0
C727 C 0.74521 0.568 0.90644 0.0
H728 H 0.74584 0.59601 0.78508 0.0
C729 C 0.79855 0.56853 0.75423 0.0
C730 C 0.80366 0.58458 0.7388 0.0
C731 C 0.78458 0.56656 0.78581 0.0
C732 C 0.74583 0.58814 0.81889 0.0
H733 H 0.6936 0.55652 0.0124 0.0
H734 H 0.71516 0.55325 0.94681 0.0
H735 H 0.72104 0.59549 0.83922 0.0
H736 H 0.79868 0.61113 0.74674 0.0
H737 H 0.77448 0.60763 0.80174 0.0
H738 H 0.7702 0.56093 0.88634 0.0
C739 C 0.71068 0.56566 0.95587 0.0
C740 C 0.73166 0.58782 0.84977 0.0
C741 C 0.69829 0.56755 0.99316 0.0
C742 C 0.79499 0.59859 0.75739 0.0
C743 C 0.78106 0.5966 0.78863 0.0
C744 C 0.75942 0.56828 0.87535 0.0
C745 C 0.71734 0.57973 0.93106 0.0
C746 C 0.73138 0.57812 0.89459 0.0
C747 C 0.7755 0.58058 0.80214 0.0
C748 C 0.75998 0.57873 0.83215 0.0
H749 H 0.69463 0.61003 0.98983 0.0
H750 H 0.71621 0.60674 0.92529 0.0
H751 H 0.74537 0.5605 0.94102 0.0
H752 H 0.80499 0.5575 0.74062 0.0
H753 H 0.78054 0.55408 0.79592 0.0
C754 C 0.59602 0.20742 0.24027 0.0
C755 C 0.58271 0.1977 0.25873 0.0
C756 C 0.59295 0.22146 0.21033 0.0
C757 C 0.56406 0.24179 0.12436 0.0
H758 H 0.58742 0.28175 0.1683 0.0
C759 C 0.56392 0.30273 0.00508 0.0
C760 C 0.58012 0.30883 0.99603 0.0
C761 C 0.56118 0.29058 0.04266 0.0
C762 C 0.58076 0.27072 0.15568 0.0
H763 H 0.55577 0.19453 0.25762 0.0
H764 H 0.55047 0.21913 0.2041 0.0
H765 H 0.58855 0.25666 0.22114 0.0
H766 H 0.60599 0.30755 0.02069 0.0
H767 H 0.60124 0.28645 0.08565 0.0
H768 H 0.55697 0.25565 0.05752 0.0
C769 C 0.56323 0.21586 0.21365 0.0
C770 C 0.58142 0.2564 0.18583 0.0
C771 C 0.56629 0.20182 0.24416 0.0
C772 C 0.59337 0.30307 0.02655 0.0
C773 C 0.59062 0.29107 0.06414 0.0
C774 C 0.56348 0.25615 0.09388 0.0
C775 C 0.57653 0.22602 0.19784 0.0
C776 C 0.57357 0.24167 0.16954 0.0
C777 C 0.57457 0.28451 0.07208 0.0
C778 C 0.57234 0.27054 0.10848 0.0
H779 H 0.60883 0.20455 0.25034 0.0
H780 H 0.60343 0.22895 0.19757 0.0
H781 H 0.55789 0.23055 0.11119 0.0
H782 H 0.55346 0.30695 0.98213 0.0
H783 H 0.54867 0.28576 0.04825 0.0
C784 C 0.34879 0.31184 0.08183 0.0
C785 C 0.33899 0.32234 0.11272 0.0
C786 C 0.34828 0.29456 0.08812 0.0
C787 C 0.33478 0.26084 0.17646 0.0
H788 H 0.33467 0.23439 0.05181 0.0
C789 C 0.31898 0.1907 0.17663 0.0
C790 C 0.32944 0.18014 0.1479 0.0
C791 C 0.32007 0.20801 0.17176 0.0
C792 C 0.33484 0.24159 0.08696 0.0
H793 H 0.32093 0.32297 0.17455 0.0
H794 H 0.3199 0.29268 0.18549 0.0
H795 H 0.33702 0.26467 0.04634 0.0
H796 H 0.34956 0.17967 0.09218 0.0
H797 H 0.35117 0.20991 0.08268 0.0
H798 H 0.33236 0.2377 0.21694 0.0
C799 C 0.32829 0.29785 0.15705 0.0
C800 C 0.33624 0.25895 0.08391 0.0
C801 C 0.32891 0.31522 0.15097 0.0
C802 C 0.3409 0.18733 0.11356 0.0
C803 C 0.34194 0.2047 0.10847 0.0
C804 C 0.33329 0.24348 0.17948 0.0
C805 C 0.33775 0.2873 0.12504 0.0
C806 C 0.33627 0.26881 0.12863 0.0
C807 C 0.33168 0.21522 0.13805 0.0
C808 C 0.33331 0.23366 0.13475 0.0
H809 H 0.35675 0.31701 0.05219 0.0
H810 H 0.35603 0.28687 0.0636 0.0
H811 H 0.33499 0.268 0.21167 0.0
H812 H 0.31001 0.18556 0.20346 0.0
H813 H 0.31184 0.21577 0.19453 0.0
C814 C 0.18696 0.67527 0.8871 0.0
C815 C 0.17966 0.669 0.84214 0.0
C816 C 0.20431 0.6747 0.89371 0.0
C817 C 0.24351 0.67099 0.81843 0.0
H818 H 0.26348 0.66286 0.95152 0.0
C819 C 0.31466 0.66103 0.84907 0.0
C820 C 0.32178 0.66939 0.8911 0.0
C821 C 0.29732 0.66095 0.84208 0.0
C822 C 0.25806 0.66527 0.91417 0.0
H823 H 0.18465 0.65685 0.7695 0.0
H824 H 0.21475 0.65543 0.7815 0.0
H825 H 0.23317 0.66225 0.9425 0.0
H826 H 0.31625 0.68427 0.95854 0.0
H827 H 0.28612 0.68405 0.94639 0.0
H828 H 0.26847 0.67384 0.79013 0.0
C829 C 0.20723 0.66116 0.8112 0.0
C830 C 0.24069 0.66496 0.90901 0.0
C831 C 0.18996 0.66187 0.80446 0.0
C832 C 0.31118 0.67769 0.92575 0.0
C833 C 0.29391 0.67752 0.91897 0.0
C834 C 0.26088 0.67118 0.82354 0.0
C835 C 0.21467 0.6678 0.85553 0.0
C836 C 0.23318 0.66788 0.86111 0.0
C837 C 0.28676 0.66903 0.87735 0.0
C838 C 0.26834 0.66842 0.87151 0.0
H839 H 0.17939 0.6812 0.91624 0.0
H840 H 0.20962 0.68016 0.92801 0.0
H841 H 0.23817 0.6736 0.78112 0.0
H842 H 0.32234 0.65402 0.82264 0.0
H843 H 0.29213 0.65411 0.80999 0.0
C844 C 0.66026 0.81451 0.10598 0.0
C845 C 0.67014 0.82184 0.14438 0.0
C846 C 0.65963 0.79711 0.10084 0.0
C847 C 0.66611 0.75851 0.17561 0.0
H848 H 0.66711 0.73701 0.04257 0.0
C849 C 0.67235 0.68677 0.15018 0.0
C850 C 0.6634 0.67947 0.10972 0.0
C851 C 0.67268 0.70416 0.15588 0.0
C852 C 0.66659 0.74282 0.08003 0.0
H853 H 0.68727 0.8167 0.20687 0.0
H854 H 0.68623 0.78649 0.19768 0.0
H855 H 0.6689 0.76734 0.04795 0.0
H856 H 0.64731 0.68453 0.04466 0.0
H857 H 0.64757 0.71469 0.05519 0.0
H858 H 0.66371 0.73401 0.20772 0.0
C859 C 0.67885 0.79411 0.1719 0.0
C860 C 0.66764 0.76021 0.08305 0.0
C861 C 0.67951 0.81144 0.17694 0.0
C862 C 0.65442 0.68982 0.07606 0.0
C863 C 0.65466 0.70712 0.08188 0.0
C864 C 0.66499 0.74112 0.1726 0.0
C865 C 0.66874 0.78673 0.13426 0.0
C866 C 0.66745 0.76825 0.13087 0.0
C867 C 0.66405 0.71455 0.12121 0.0
C868 C 0.66521 0.73306 0.12476 0.0
H869 H 0.65248 0.82209 0.08133 0.0
H870 H 0.65155 0.79177 0.07185 0.0
H871 H 0.66567 0.76436 0.21303 0.0
H872 H 0.6797 0.67915 0.176 0.0
H873 H 0.68019 0.70949 0.18629 0.0
C874 C 0.81061 0.34911 0.8284 0.0
C875 C 0.82095 0.33942 0.86015 0.0
C876 C 0.79331 0.34886 0.83448 0.0
C877 C 0.75936 0.33654 0.92338 0.0
H878 H 0.73304 0.33539 0.79844 0.0
C879 C 0.68927 0.32093 0.92458 0.0
C880 C 0.67871 0.33112 0.89494 0.0
C881 C 0.70658 0.32196 0.91951 0.0
C882 C 0.74021 0.33587 0.83364 0.0
H883 H 0.82129 0.32186 0.92335 0.0
H884 H 0.79097 0.32129 0.93398 0.0
H885 H 0.76336 0.3375 0.79317 0.0
H886 H 0.67817 0.35059 0.8371 0.0
H887 H 0.70845 0.35211 0.82736 0.0
H888 H 0.73615 0.33468 0.96375 0.0
C889 C 0.79628 0.32939 0.90497 0.0
C890 C 0.75758 0.33712 0.83071 0.0
C891 C 0.81367 0.32975 0.89907 0.0
C892 C 0.68586 0.34217 0.85933 0.0
C893 C 0.70324 0.34316 0.85409 0.0
C894 C 0.74198 0.33521 0.92629 0.0
C895 C 0.78589 0.33872 0.87209 0.0
C896 C 0.76738 0.33749 0.87554 0.0
C897 C 0.71378 0.33323 0.88472 0.0
C898 C 0.73222 0.33483 0.88145 0.0
H899 H 0.8159 0.35677 0.79823 0.0
H900 H 0.78574 0.3565 0.80927 0.0
H901 H 0.76648 0.33703 0.95865 0.0
H902 H 0.68416 0.31226 0.95233 0.0
H903 H 0.71435 0.31395 0.94305 0.0
C904 C 0.84522 0.81258 0.57594 0.0
C905 C 0.83611 0.82299 0.60903 0.0
C906 C 0.84471 0.79528 0.58157 0.0
C907 C 0.83356 0.76135 0.67129 0.0
H908 H 0.82998 0.73533 0.54624 0.0
C909 C 0.8194 0.69097 0.67475 0.0
C910 C 0.82897 0.68072 0.64234 0.0
C911 C 0.81986 0.7083 0.66974 0.0
C912 C 0.83113 0.7424 0.58145 0.0
H913 H 0.81928 0.82343 0.67409 0.0
H914 H 0.81837 0.79309 0.68411 0.0
H915 H 0.83191 0.76566 0.54123 0.0
H916 H 0.84674 0.6807 0.57961 0.0
H917 H 0.84736 0.71102 0.57024 0.0
H918 H 0.8327 0.73805 0.71147 0.0
C919 C 0.82616 0.79837 0.65429 0.0
C920 C 0.83227 0.75978 0.57864 0.0
C921 C 0.82674 0.81576 0.64875 0.0
C922 C 0.83882 0.68818 0.60411 0.0
C923 C 0.83927 0.70558 0.59903 0.0
C924 C 0.83238 0.74396 0.67409 0.0
C925 C 0.83493 0.78793 0.62016 0.0
C926 C 0.83356 0.76946 0.62351 0.0
C927 C 0.82998 0.71582 0.63234 0.0
C928 C 0.83117 0.7343 0.6292 0.0
H929 H 0.85265 0.81781 0.54515 0.0
H930 H 0.85191 0.78765 0.55535 0.0
H931 H 0.83476 0.76841 0.70651 0.0
H932 H 0.81167 0.68559 0.70457 0.0
H933 H 0.81235 0.71583 0.69543 0.0
C934 C 0.81582 0.17203 0.34902 0.0
C935 C 0.82316 0.16218 0.38744 0.0
C936 C 0.79842 0.17239 0.34324 0.0
C937 C 0.75972 0.16408 0.41715 0.0
H938 H 0.73832 0.16757 0.28429 0.0
C939 C 0.68793 0.15958 0.38789 0.0
C940 C 0.68085 0.17102 0.35323 0.0
C941 C 0.70531 0.15842 0.3931 0.0
C942 C 0.74414 0.16674 0.32171 0.0
H943 H 0.8182 0.14453 0.4486 0.0
H944 H 0.78803 0.14478 0.43771 0.0
H945 H 0.76864 0.16514 0.28927 0.0
H946 H 0.68646 0.19035 0.29751 0.0
H947 H 0.71663 0.18832 0.30667 0.0
H948 H 0.73516 0.16557 0.44949 0.0
C949 C 0.79555 0.15257 0.41282 0.0
C950 C 0.76152 0.16536 0.32456 0.0
C951 C 0.81286 0.15232 0.41881 0.0
C952 C 0.69151 0.18138 0.3245 0.0
C953 C 0.7088 0.18016 0.3295 0.0
C954 C 0.74234 0.16535 0.41427 0.0
C955 C 0.78807 0.16286 0.37571 0.0
C956 C 0.76954 0.16406 0.37233 0.0
C957 C 0.71592 0.16853 0.36334 0.0
C958 C 0.73436 0.16679 0.36654 0.0
H959 H 0.8234 0.18005 0.32506 0.0
H960 H 0.79308 0.18062 0.31464 0.0
H961 H 0.76548 0.16342 0.45467 0.0
H962 H 0.68018 0.15104 0.40941 0.0
H963 H 0.71045 0.1492 0.41909 0.0
C964 C 0.17225 0.31341 0.59442 0.0
C965 C 0.16353 0.32041 0.63588 0.0
C966 C 0.17245 0.29608 0.58729 0.0
C967 C 0.16651 0.25693 0.66081 0.0
H968 H 0.16601 0.23625 0.52649 0.0
C969 C 0.16106 0.18544 0.6308 0.0
C970 C 0.17149 0.1784 0.59325 0.0
C971 C 0.16001 0.2028 0.63632 0.0
C972 C 0.1663 0.24187 0.56425 0.0
H973 H 0.14767 0.31493 0.70108 0.0
H974 H 0.14762 0.28487 0.68795 0.0
H975 H 0.16371 0.26655 0.53364 0.0
H976 H 0.18898 0.18404 0.53212 0.0
H977 H 0.18714 0.21423 0.54182 0.0
H978 H 0.169 0.23222 0.69137 0.0
C979 C 0.15466 0.29261 0.66163 0.0
C980 C 0.165 0.25923 0.56834 0.0
C981 C 0.15458 0.30985 0.66895 0.0
C982 C 0.18084 0.18907 0.56149 0.0
C983 C 0.17973 0.20637 0.56682 0.0
C984 C 0.16771 0.23958 0.65672 0.0
C985 C 0.1639 0.28545 0.62144 0.0
C986 C 0.1651 0.26698 0.61669 0.0
C987 C 0.16921 0.21344 0.604 0.0
C988 C 0.16768 0.23186 0.60841 0.0
H989 H 0.17955 0.32121 0.56899 0.0
H990 H 0.17984 0.29098 0.55624 0.0
H991 H 0.16697 0.26248 0.69864 0.0
H992 H 0.15322 0.17767 0.65463 0.0
H993 H 0.1516 0.20789 0.66485 0.0
C994 C 0.31487 0.82634 0.40588 0.0
C995 C 0.32176 0.83606 0.36638 0.0
C996 C 0.29752 0.82554 0.41234 0.0
C997 C 0.25841 0.83198 0.33897 0.0
H998 H 0.23733 0.83017 0.47265 0.0
C999 C 0.18692 0.83736 0.36777 0.0
C1000 C 0.17962 0.8266 0.40397 0.0
C1001 C 0.2043 0.83819 0.36271 0.0
C1002 C 0.24306 0.83049 0.43503 0.0
H1003 H 0.31604 0.85302 0.30399 0.0
H1004 H 0.28594 0.85196 0.31596 0.0
H1005 H 0.26764 0.83276 0.46665 0.0
H1006 H 0.18483 0.80827 0.4631 0.0
H1007 H 0.21509 0.8097 0.45415 0.0
H1008 H 0.23382 0.82985 0.30739 0.0
C1009 C 0.2938 0.84463 0.34122 0.0
C1010 C 0.26042 0.83197 0.43161 0.0
C1011 C 0.31106 0.84533 0.33458 0.0
C1012 C 0.19007 0.81666 0.43476 0.0
C1013 C 0.20741 0.81754 0.42986 0.0
C1014 C 0.24106 0.83058 0.34241 0.0
C1015 C 0.28677 0.83445 0.37944 0.0
C1016 C 0.26831 0.83278 0.38351 0.0
C1017 C 0.21473 0.82842 0.39412 0.0
C1018 C 0.23318 0.82983 0.39046 0.0
H1019 H 0.32279 0.81878 0.43023 0.0
H1020 H 0.29251 0.81744 0.44184 0.0
H1021 H 0.26408 0.83221 0.30127 0.0
H1022 H 0.17933 0.84565 0.34479 0.0
H1023 H 0.20958 0.84689 0.33536 0.0
C1024 C 0.30295 0.07644 0.9828 0.0
C1025 C 0.3086 0.09176 0.00275 0.0
C1026 C 0.28919 0.07588 0.94957 0.0
C1027 C 0.26265 0.10207 0.86454 0.0
H1028 H 0.22895 0.06837 0.89088 0.0
C1029 C 0.1987 0.1052 0.76472 0.0
C1030 C 0.1923 0.09022 0.74457 0.0
C1031 C 0.21222 0.10505 0.7987 0.0
C1032 C 0.23829 0.07777 0.88264 0.0
H1033 H 0.30458 0.11856 0.00128 0.0
H1034 H 0.28077 0.11757 0.94344 0.0
H1035 H 0.25468 0.06852 0.94114 0.0
H1036 H 0.19461 0.06323 0.74702 0.0
H1037 H 0.21822 0.06298 0.80605 0.0
H1038 H 0.24637 0.11131 0.80601 0.0
C1039 C 0.28695 0.10597 0.95336 0.0
C1040 C 0.25309 0.07783 0.91139 0.0
C1041 C 0.30062 0.10653 0.98674 0.0
C1042 C 0.19913 0.07502 0.76185 0.0
C1043 C 0.21273 0.07488 0.79576 0.0
C1044 C 0.2479 0.102 0.83577 0.0
C1045 C 0.28083 0.09062 0.93516 0.0
C1046 C 0.26542 0.09004 0.90291 0.0
C1047 C 0.21978 0.08992 0.81339 0.0
C1048 C 0.23545 0.08992 0.84461 0.0
H1049 H 0.30874 0.06481 0.99435 0.0
H1050 H 0.28497 0.06386 0.93565 0.0
H1051 H 0.27197 0.1115 0.85638 0.0
H1052 H 0.1937 0.11715 0.75265 0.0
H1053 H 0.21701 0.11686 0.81251 0.0
C1054 C 0.1067 0.8003 0.23459 0.0
C1055 C 0.09181 0.80766 0.25227 0.0
C1056 C 0.10631 0.78692 0.20018 0.0
C1057 C 0.07902 0.75236 0.15926 0.0
H1058 H 0.11161 0.74723 0.0505 0.0
C1059 C 0.07691 0.69818 0.01074 0.0
C1060 C 0.09219 0.69194 0.99214 0.0
C1061 C 0.07655 0.71192 0.04402 0.0
C1062 C 0.10256 0.74832 0.08118 0.0
H1063 H 0.06481 0.80706 0.24563 0.0
H1064 H 0.06415 0.78375 0.18523 0.0
H1065 H 0.11134 0.77269 0.1015 0.0
H1066 H 0.11911 0.69465 0.99688 0.0
H1067 H 0.11847 0.7182 0.05576 0.0
H1068 H 0.07035 0.72791 0.13928 0.0
C1069 C 0.07613 0.78825 0.19859 0.0
C1070 C 0.10236 0.76299 0.11028 0.0
C1071 C 0.07653 0.80175 0.2328 0.0
C1072 C 0.1071 0.69917 0.01005 0.0
C1073 C 0.10673 0.71283 0.04346 0.0
C1074 C 0.07926 0.73764 0.13024 0.0
C1075 C 0.09101 0.78045 0.18267 0.0
C1076 C 0.09065 0.76518 0.14988 0.0
C1077 C 0.09145 0.71972 0.05973 0.0
C1078 C 0.09111 0.73536 0.09098 0.0
H1079 H 0.11871 0.8045 0.24872 0.0
H1080 H 0.118 0.78118 0.18902 0.0
H1081 H 0.06999 0.75352 0.18997 0.0
H1082 H 0.06517 0.69302 0.99758 0.0
H1083 H 0.06454 0.71689 0.0555 0.0
C1084 C 0.69788 0.9268 0.9807 0.0
C1085 C 0.69192 0.91134 0.99877 0.0
C1086 C 0.71154 0.92754 0.94711 0.0
C1087 C 0.73803 0.90177 0.86003 0.0
H1088 H 0.77197 0.93484 0.89066 0.0
C1089 C 0.80333 0.8976 0.76948 0.0
C1090 C 0.81017 0.9124 0.7493 0.0
C1091 C 0.78926 0.89808 0.80124 0.0
C1092 C 0.76256 0.92563 0.88126 0.0
H1093 H 0.6952 0.8845 0.99306 0.0
H1094 H 0.71887 0.8858 0.93492 0.0
H1095 H 0.74587 0.93471 0.93913 0.0
H1096 H 0.80803 0.9394 0.74942 0.0
H1097 H 0.78349 0.94022 0.80506 0.0
H1098 H 0.75474 0.89259 0.80252 0.0
C1099 C 0.713 0.89739 0.94647 0.0
C1100 C 0.74754 0.92558 0.90893 0.0
C1101 C 0.69938 0.89664 0.98004 0.0
C1102 C 0.80316 0.92776 0.76434 0.0
C1103 C 0.78905 0.92823 0.79622 0.0
C1104 C 0.75303 0.90179 0.8325 0.0
C1105 C 0.71955 0.91285 0.93056 0.0
C1106 C 0.73512 0.91356 0.89896 0.0
C1107 C 0.78162 0.91335 0.8138 0.0
C1108 C 0.76557 0.91361 0.84303 0.0
H1109 H 0.69248 0.9384 0.9942 0.0
H1110 H 0.71603 0.93966 0.9349 0.0
H1111 H 0.72867 0.89251 0.85059 0.0
H1112 H 0.80843 0.88553 0.75916 0.0
H1113 H 0.78415 0.8864 0.81511 0.0
C1114 C 0.92663 0.19871 0.23114 0.0
C1115 C 0.91142 0.19195 0.24855 0.0
C1116 C 0.92681 0.21256 0.19821 0.0
C1117 C 0.90015 0.23817 0.1111 0.0
H1118 H 0.93185 0.27326 0.14302 0.0
C1119 C 0.89491 0.30311 0.01709 0.0
C1120 C 0.90977 0.31034 0.9986 0.0
C1121 C 0.89538 0.28915 0.04941 0.0
C1122 C 0.92301 0.26354 0.13324 0.0
H1123 H 0.88446 0.19407 0.24248 0.0
H1124 H 0.88481 0.21809 0.18542 0.0
H1125 H 0.93244 0.24721 0.19157 0.0
H1126 H 0.93681 0.30894 0.00226 0.0
H1127 H 0.9376 0.28464 0.05857 0.0
H1128 H 0.89069 0.2545 0.05293 0.0
C1129 C 0.89663 0.21269 0.19701 0.0
C1130 C 0.92338 0.24854 0.16099 0.0
C1131 C 0.89643 0.19888 0.22996 0.0
C1132 C 0.9251 0.30379 0.01576 0.0
C1133 C 0.92556 0.2898 0.04813 0.0
C1134 C 0.89977 0.25316 0.08342 0.0
C1135 C 0.91181 0.21998 0.18165 0.0
C1136 C 0.91191 0.23567 0.15046 0.0
C1137 C 0.9107 0.28201 0.06422 0.0
C1138 C 0.91113 0.2661 0.09425 0.0
H1139 H 0.93843 0.19374 0.24456 0.0
H1140 H 0.93875 0.21763 0.18641 0.0
H1141 H 0.89129 0.22848 0.1013 0.0
H1142 H 0.88285 0.30783 0.00503 0.0
H1143 H 0.88369 0.28374 0.06199 0.0
C1144 C 0.19933 0.39452 0.48246 0.0
C1145 C 0.19192 0.40935 0.50042 0.0
C1146 C 0.2131 0.39503 0.44946 0.0
C1147 C 0.24805 0.42278 0.41264 0.0
H1148 H 0.25503 0.39002 0.30543 0.0
C1149 C 0.30318 0.42581 0.26737 0.0
C1150 C 0.31017 0.41062 0.25065 0.0
C1151 C 0.28921 0.42594 0.29979 0.0
C1152 C 0.2534 0.39913 0.33569 0.0
H1153 H 0.19278 0.43639 0.49518 0.0
H1154 H 0.21662 0.43724 0.43697 0.0
H1155 H 0.22899 0.38993 0.35374 0.0
H1156 H 0.30851 0.38367 0.25796 0.0
H1157 H 0.28445 0.38394 0.31501 0.0
H1158 H 0.2725 0.43196 0.39454 0.0
C1159 C 0.21195 0.4252 0.44931 0.0
C1160 C 0.23841 0.39911 0.36331 0.0
C1161 C 0.19813 0.4247 0.48228 0.0
C1162 C 0.30343 0.39562 0.26965 0.0
C1163 C 0.28949 0.39576 0.30202 0.0
C1164 C 0.26305 0.4228 0.38496 0.0
C1165 C 0.21987 0.41038 0.43345 0.0
C1166 C 0.23554 0.41088 0.40234 0.0
C1167 C 0.28189 0.41089 0.31634 0.0
C1168 C 0.26597 0.41091 0.34629 0.0
H1169 H 0.19494 0.38246 0.49556 0.0
H1170 H 0.2189 0.38336 0.43837 0.0
H1171 H 0.24642 0.43186 0.44298 0.0
H1172 H 0.30797 0.43762 0.25345 0.0
H1173 H 0.28368 0.43784 0.30987 0.0
C1174 C 0.39732 0.80492 0.52542 0.0
C1175 C 0.41198 0.81159 0.5038 0.0
C1176 C 0.39804 0.79129 0.55893 0.0
C1177 C 0.42507 0.75529 0.5915 0.0
H1178 H 0.39368 0.74979 0.70338 0.0
C1179 C 0.42683 0.69954 0.73566 0.0
C1180 C 0.4114 0.69327 0.75299 0.0
C1181 C 0.42748 0.71365 0.70379 0.0
C1182 C 0.40241 0.75102 0.67189 0.0
H1183 H 0.43901 0.8096 0.50306 0.0
H1184 H 0.44025 0.78602 0.56238 0.0
H1185 H 0.39416 0.77588 0.65547 0.0
H1186 H 0.38452 0.69638 0.74732 0.0
H1187 H 0.38569 0.72069 0.69146 0.0
H1188 H 0.43331 0.73037 0.60818 0.0
C1189 C 0.42816 0.79115 0.55248 0.0
C1190 C 0.40272 0.76604 0.64444 0.0
C1191 C 0.42745 0.80483 0.51891 0.0
C1192 C 0.39665 0.70088 0.73517 0.0
C1193 C 0.39731 0.71496 0.70346 0.0
C1194 C 0.4248 0.74026 0.61913 0.0
C1195 C 0.41343 0.78394 0.57194 0.0
C1196 C 0.41393 0.76835 0.60351 0.0
C1197 C 0.41273 0.72183 0.68855 0.0
C1198 C 0.41333 0.73787 0.65933 0.0
H1199 H 0.38517 0.80974 0.51473 0.0
H1200 H 0.38641 0.78605 0.57271 0.0
H1201 H 0.43371 0.75649 0.55977 0.0
H1202 H 0.43845 0.69406 0.74865 0.0
H1203 H 0.43957 0.71859 0.6931 0.0
C1204 C 0.6971 0.57525 0.26932 0.0
C1205 C 0.69106 0.59062 0.25074 0.0
C1206 C 0.71093 0.57466 0.30223 0.0
C1207 C 0.73775 0.60091 0.38685 0.0
H1208 H 0.77143 0.56734 0.35816 0.0
C1209 C 0.80297 0.60519 0.47724 0.0
C1210 C 0.80952 0.59051 0.49913 0.0
C1211 C 0.78905 0.60458 0.44493 0.0
C1212 C 0.76209 0.57671 0.36697 0.0
H1213 H 0.69446 0.61749 0.25462 0.0
H1214 H 0.71845 0.61644 0.31151 0.0
H1215 H 0.74526 0.56733 0.30998 0.0
H1216 H 0.80709 0.56354 0.50122 0.0
H1217 H 0.78282 0.5625 0.44456 0.0
H1218 H 0.75459 0.61038 0.44347 0.0
C1219 C 0.71249 0.60481 0.30095 0.0
C1220 C 0.74704 0.57667 0.33949 0.0
C1221 C 0.6987 0.6054 0.26808 0.0
C1222 C 0.80245 0.57509 0.48499 0.0
C1223 C 0.78848 0.57449 0.45254 0.0
C1224 C 0.75279 0.60098 0.41415 0.0
C1225 C 0.71906 0.58942 0.31755 0.0
C1226 C 0.7347 0.58885 0.3488 0.0
C1227 C 0.78127 0.58929 0.43351 0.0
C1228 C 0.76523 0.58898 0.4043 0.0
H1229 H 0.69156 0.5636 0.25687 0.0
H1230 H 0.71543 0.5626 0.315 0.0
H1231 H 0.72846 0.61029 0.39581 0.0
H1232 H 0.80813 0.61729 0.48682 0.0
H1233 H 0.7841 0.61619 0.42991 0.0
C1234 C 0.5748 0.30316 0.73254 0.0
C1235 C 0.59004 0.30948 0.75114 0.0
C1236 C 0.57454 0.28945 0.69913 0.0
C1237 C 0.60107 0.26392 0.61211 0.0
H1238 H 0.56934 0.22876 0.64313 0.0
C1239 C 0.60646 0.19951 0.51608 0.0
C1240 C 0.59163 0.19226 0.49755 0.0
C1241 C 0.60593 0.21328 0.54902 0.0
C1242 C 0.57818 0.2385 0.63358 0.0
H1243 H 0.61698 0.3068 0.74677 0.0
H1244 H 0.6165 0.28307 0.68865 0.0
H1245 H 0.56872 0.2547 0.6922 0.0
H1246 H 0.56459 0.19336 0.50181 0.0
H1247 H 0.56369 0.21739 0.55909 0.0
H1248 H 0.61053 0.2478 0.55354 0.0
C1249 C 0.60473 0.28867 0.69979 0.0
C1250 C 0.57779 0.25342 0.66164 0.0
C1251 C 0.605 0.3023 0.73332 0.0
C1252 C 0.57627 0.19854 0.51538 0.0
C1253 C 0.57575 0.21237 0.54829 0.0
C1254 C 0.60144 0.24904 0.58405 0.0
C1255 C 0.5895 0.2818 0.68323 0.0
C1256 C 0.5893 0.26629 0.65148 0.0
C1257 C 0.59058 0.22023 0.56431 0.0
C1258 C 0.59009 0.23606 0.59462 0.0
H1259 H 0.56303 0.30834 0.74545 0.0
H1260 H 0.56259 0.28466 0.68645 0.0
H1261 H 0.60995 0.27364 0.60268 0.0
H1262 H 0.61853 0.19496 0.50354 0.0
H1263 H 0.61761 0.21872 0.56162 0.0
C1264 C 0.36963 0.02105 0.14631 0.0
C1265 C 0.35368 0.02166 0.12383 0.0
C1266 C 0.37606 0.00601 0.16519 0.0
C1267 C 0.36153 0.96421 0.20855 0.0
H1268 H 0.40892 0.9542 0.21288 0.0
C1269 C 0.38641 0.90008 0.2703 0.0
C1270 C 0.39861 0.90003 0.30902 0.0
C1271 C 0.38197 0.91489 0.24566 0.0
C1272 C 0.39566 0.95692 0.21216 0.0
H1273 H 0.33243 0.00675 0.10053 0.0
H1274 H 0.34391 0.9804 0.13115 0.0
H1275 H 0.39923 0.97965 0.17031 0.0
H1276 H 0.41638 0.91527 0.35043 0.0
H1277 H 0.40883 0.94135 0.30616 0.0
H1278 H 0.35799 0.94127 0.2493 0.0
C1279 C 0.35123 0.99164 0.13621 0.0
C1280 C 0.39008 0.97152 0.18789 0.0
C1281 C 0.34469 0.00673 0.1181 0.0
C1282 C 0.40689 0.915 0.32086 0.0
C1283 C 0.40258 0.92987 0.29558 0.0
C1284 C 0.36709 0.94956 0.23203 0.0
C1285 C 0.3668 0.99113 0.16137 0.0
C1286 C 0.3729 0.97537 0.18575 0.0
C1287 C 0.38983 0.92997 0.25845 0.0
C1288 C 0.3842 0.94575 0.2341 0.0
H1289 H 0.37687 0.03234 0.15156 0.0
H1290 H 0.38799 0.00624 0.18467 0.0
H1291 H 0.34827 0.96688 0.20912 0.0
H1292 H 0.38021 0.88864 0.25909 0.0
H1293 H 0.37233 0.91455 0.2165 0.0
C1294 C 0.89786 0.61731 0.73259 0.0
C1295 C 0.89779 0.60537 0.69314 0.0
C1296 C 0.91275 0.62185 0.75655 0.0
C1297 C 0.95527 0.60844 0.78594 0.0
H1298 H 0.96472 0.65589 0.79187 0.0
C1299 C 0.01996 0.6343 0.84518 0.0
C1300 C 0.02083 0.65002 0.869 0.0
C1301 C 0.00469 0.62801 0.82784 0.0
C1302 C 0.9622 0.64261 0.79163 0.0
H1303 H 0.9131 0.58821 0.64948 0.0
H1304 H 0.9393 0.59591 0.69251 0.0
H1305 H 0.93877 0.64625 0.75368 0.0
H1306 H 0.0062 0.671 0.89612 0.0
H1307 H 0.97946 0.65974 0.86804 0.0
H1308 H 0.9785 0.60475 0.8249 0.0
C1309 C 0.92778 0.60187 0.70427 0.0
C1310 C 0.94734 0.63709 0.76932 0.0
C1311 C 0.91284 0.59748 0.6797 0.0
C1312 C 0.00597 0.65892 0.87747 0.0
C1313 C 0.99065 0.65251 0.86086 0.0
C1314 C 0.97006 0.61397 0.80903 0.0
C1315 C 0.92789 0.61433 0.74229 0.0
C1316 C 0.94374 0.61997 0.76608 0.0
C1317 C 0.98984 0.63716 0.83457 0.0
C1318 C 0.97377 0.63115 0.81203 0.0
H1319 H 0.88638 0.62321 0.74493 0.0
H1320 H 0.91244 0.63126 0.78637 0.0
H1321 H 0.95271 0.59517 0.78435 0.0
H1322 H 0.03117 0.62713 0.83783 0.0
H1323 H 0.00469 0.61626 0.80733 0.0
C1324 C 0.64845 0.98616 0.16184 0.0
C1325 C 0.64047 0.97967 0.11813 0.0
C1326 C 0.64383 0.00162 0.18188 0.0
C1327 C 0.60897 0.03173 0.18556 0.0
H1328 H 0.64273 0.06075 0.24394 0.0
C1329 C 0.59501 0.09801 0.26633 0.0
C1330 C 0.60328 0.10244 0.31181 0.0
C1331 C 0.59887 0.08305 0.2413 0.0
C1332 C 0.63313 0.05271 0.22826 0.0
H1333 H 0.62153 0.98459 0.06065 0.0
H1334 H 0.61357 0.01186 0.09544 0.0
H1335 H 0.65115 0.0353 0.19998 0.0
H1336 H 0.6216 0.09462 0.36782 0.0
H1337 H 0.6284 0.06842 0.32428 0.0
H1338 H 0.59096 0.04928 0.21395 0.0
C1339 C 0.62329 0.00479 0.11449 0.0
C1340 C 0.63796 0.03812 0.20296 0.0
C1341 C 0.62794 0.98923 0.09432 0.0
C1342 C 0.61514 0.09147 0.33261 0.0
C1343 C 0.61908 0.07657 0.30753 0.0
C1344 C 0.60414 0.04641 0.21073 0.0
C1345 C 0.63113 0.01112 0.15875 0.0
C1346 C 0.62594 0.02731 0.18193 0.0
C1347 C 0.61117 0.07229 0.26117 0.0
C1348 C 0.61617 0.05694 0.23298 0.0
H1349 H 0.65812 0.97915 0.18138 0.0
H1350 H 0.64996 0.00593 0.21644 0.0
H1351 H 0.59938 0.0236 0.17033 0.0
H1352 H 0.58594 0.10639 0.24928 0.0
H1353 H 0.59265 0.08018 0.2055 0.0
C1354 C 0.09696 0.40728 0.72903 0.0
C1355 C 0.10034 0.40058 0.68038 0.0
C1356 C 0.08206 0.40339 0.75442 0.0
C1357 C 0.0505 0.3703 0.76033 0.0
H1358 H 0.02348 0.40279 0.83299 0.0
C1359 C 0.9848 0.35445 0.83318 0.0
C1360 C 0.97914 0.36133 0.87965 0.0
C1361 C 1.00003 0.35933 0.81205 0.0
C1362 C 0.03103 0.39351 0.81361 0.0
H1363 H 0.09071 0.38515 0.61913 0.0
H1364 H 0.06464 0.37825 0.66342 0.0
H1365 H 0.04878 0.41183 0.78836 0.0
H1366 H 0.98531 0.37856 0.94087 0.0
H1367 H 0.01221 0.38689 0.90429 0.0
H1368 H 0.033 0.35195 0.78572 0.0
C1369 C 0.07354 0.38638 0.68223 0.0
C1370 C 0.04548 0.39872 0.78784 0.0
C1371 C 0.08837 0.39039 0.65676 0.0
C1372 C 0.9893 0.373 0.90506 0.0
C1373 C 0.00465 0.37788 0.88386 0.0
C1374 C 0.03618 0.36509 0.78633 0.0
C1375 C 0.07035 0.39259 0.73174 0.0
C1376 C 0.05523 0.38719 0.76032 0.0
C1377 C 0.01014 0.37117 0.83686 0.0
C1378 C 0.0261 0.37665 0.81269 0.0
H1379 H 0.10612 0.41503 0.7482 0.0
H1380 H 0.08001 0.40828 0.79263 0.0
H1381 H 0.05796 0.36106 0.74047 0.0
H1382 H 0.9773 0.34549 0.81229 0.0
H1383 H 0.00365 0.3541 0.7754 0.0
C1384 C 0.38983 0.60184 0.98248 0.0
C1385 C 0.4001 0.60212 0.93886 0.0
C1386 C 0.38672 0.58688 0.00833 0.0
C1387 C 0.38601 0.54151 0.98818 0.0
H1388 H 0.38279 0.53981 0.13658 0.0
C1389 C 0.35438 0.48673 0.09116 0.0
C1390 C 0.36241 0.47991 0.13435 0.0
C1391 C 0.35981 0.50175 0.06979 0.0
C1392 C 0.38377 0.54005 0.09516 0.0
H1393 H 0.41563 0.58718 0.88884 0.0
H1394 H 0.41023 0.56086 0.93409 0.0
H1395 H 0.39166 0.56562 0.09448 0.0
H1396 H 0.38214 0.4839 0.18996 0.0
H1397 H 0.39159 0.51033 0.15257 0.0
H1398 H 0.37811 0.516 0.98872 0.0
C1399 C 0.4044 0.5722 0.94795 0.0
C1400 C 0.38871 0.55487 0.071 0.0
C1401 C 0.40756 0.58722 0.92219 0.0
C1402 C 0.37565 0.48882 0.15678 0.0
C1403 C 0.38107 0.50395 0.13538 0.0
C1404 C 0.381 0.52676 0.01227 0.0
C1405 C 0.39385 0.57184 0.99115 0.0
C1406 C 0.38972 0.55582 0.01718 0.0
C1407 C 0.3734 0.5104 0.09101 0.0
C1408 C 0.37961 0.5259 0.06599 0.0
H1409 H 0.38419 0.61322 0.99672 0.0
H1410 H 0.37843 0.58705 0.04114 0.0
H1411 H 0.38652 0.54184 0.94668 0.0
H1412 H 0.34406 0.48029 0.07299 0.0
H1413 H 0.35339 0.50655 0.0363 0.0
C1414 C 0.58538 0.59395 0.07724 0.0
C1415 C 0.60075 0.60037 0.06062 0.0
C1416 C 0.57073 0.59741 0.04974 0.0
C1417 C 0.55366 0.62853 0.95924 0.0
H1418 H 0.51801 0.59636 0.94062 0.0
C1419 C 0.48738 0.6479 0.89889 0.0
C1420 C 0.47857 0.63772 0.86433 0.0
C1421 C 0.5028 0.64286 0.91847 0.0
C1422 C 0.52794 0.60543 0.94502 0.0
H1423 H 0.61314 0.6145 0.0009 0.0
H1424 H 0.58773 0.62052 0.95293 0.0
H1425 H 0.54388 0.58784 0.98329 0.0
H1426 H 0.47925 0.61435 0.82247 0.0
H1427 H 0.50637 0.60554 0.85662 0.0
H1428 H 0.53784 0.64609 0.92101 0.0
C1429 C 0.5868 0.61319 0.98775 0.0
C1430 C 0.54267 0.6006 0.97001 0.0
C1431 C 0.60136 0.60975 0.01518 0.0
C1432 C 0.48576 0.62251 0.84883 0.0
C1433 C 0.5012 0.6174 0.86876 0.0
C1434 C 0.53897 0.63334 0.93447 0.0
C1435 C 0.57126 0.60732 0.00508 0.0
C1436 C 0.55567 0.61213 0.97762 0.0
C1437 C 0.50982 0.62747 0.90417 0.0
C1438 C 0.52586 0.62191 0.92743 0.0
H1439 H 0.58466 0.58662 0.1121 0.0
H1440 H 0.55895 0.59277 0.06429 0.0
H1441 H 0.56333 0.6378 0.96493 0.0
H1442 H 0.48221 0.65969 0.91175 0.0
H1443 H 0.50899 0.65083 0.94609 0.0
C1444 C 0.62623 0.51183 0.15927 0.0
C1445 C 0.63868 0.5216 0.13589 0.0
C1446 C 0.62171 0.49634 0.13837 0.0
C1447 C 0.63647 0.46366 0.04746 0.0
H1448 H 0.5895 0.45253 0.03603 0.0
C1449 C 0.61359 0.41168 0.91287 0.0
C1450 C 0.60179 0.40049 0.93278 0.0
C1451 C 0.61754 0.42631 0.93941 0.0
C1452 C 0.60267 0.45539 0.03935 0.0
H1453 H 0.65635 0.52252 0.07272 0.0
H1454 H 0.64839 0.4959 0.03637 0.0
H1455 H 0.59788 0.4778 0.08177 0.0
H1456 H 0.58463 0.3958 0.99529 0.0
H1457 H 0.59136 0.42153 0.0416 0.0
H1458 H 0.64126 0.44145 0.00437 0.0
C1459 C 0.64224 0.49997 0.07117 0.0
C1460 C 0.60748 0.46984 0.06576 0.0
C1461 C 0.64674 0.51536 0.09195 0.0
C1462 C 0.59363 0.40438 0.9789 0.0
C1463 C 0.5975 0.41907 0.00538 0.0
C1464 C 0.63166 0.44931 0.02091 0.0
C1465 C 0.62959 0.4903 0.09377 0.0
C1466 C 0.62444 0.47426 0.06954 0.0
C1467 C 0.60972 0.43006 0.98636 0.0
C1468 C 0.61471 0.44511 0.01598 0.0
H1469 H 0.61977 0.51627 0.19311 0.0
H1470 H 0.61203 0.48912 0.15705 0.0
H1471 H 0.64966 0.46648 0.05053 0.0
H1472 H 0.61999 0.40892 0.87726 0.0
H1473 H 0.62681 0.43465 0.92333 0.0
C1474 C 0.41537 0.41113 0.07608 0.0
C1475 C 0.40066 0.40302 0.06084 0.0
C1476 C 0.43032 0.40839 0.04945 0.0
C1477 C 0.4615 0.3911 0.00873 0.0
H1478 H 0.46193 0.3845 0.86133 0.0
C1479 C 0.51589 0.35793 0.909 0.0
C1480 C 0.52173 0.36419 0.8619 0.0
C1481 C 0.5012 0.36401 0.93078 0.0
C1482 C 0.46208 0.38649 0.90241 0.0
H1483 H 0.38979 0.38638 0.00455 0.0
H1484 H 0.41582 0.38122 0.95908 0.0
H1485 H 0.43633 0.39371 0.90359 0.0
H1486 H 0.51642 0.38154 0.80017 0.0
H1487 H 0.49063 0.39228 0.83853 0.0
H1488 H 0.48724 0.38399 0.00762 0.0
C1489 C 0.41592 0.38978 0.99122 0.0
C1490 C 0.44736 0.39159 0.92674 0.0
C1491 C 0.40104 0.39252 0.01777 0.0
C1492 C 0.51224 0.37641 0.83639 0.0
C1493 C 0.49746 0.38256 0.85837 0.0
C1494 C 0.4762 0.38602 0.98443 0.0
C1495 C 0.4308 0.39755 0.00693 0.0
C1496 C 0.44681 0.39368 0.98034 0.0
C1497 C 0.49193 0.37658 0.90626 0.0
C1498 C 0.4766 0.38333 0.93112 0.0
H1499 H 0.41533 0.41938 0.10899 0.0
H1500 H 0.44151 0.41475 0.06221 0.0
H1501 H 0.46153 0.39246 0.05005 0.0
H1502 H 0.52278 0.3484 0.92956 0.0
H1503 H 0.4971 0.35881 0.96701 0.0
C1504 C 0.90923 0.41581 0.82952 0.0
C1505 C 0.9016 0.4012 0.81137 0.0
C1506 C 0.90649 0.43109 0.80473 0.0
C1507 C 0.89153 0.44968 0.68239 0.0
H1508 H 0.88102 0.48801 0.76721 0.0
C1509 C 0.87819 0.51611 0.60001 0.0
C1510 C 0.86478 0.52475 0.62263 0.0
C1511 C 0.88387 0.50101 0.62103 0.0
C1512 C 0.8839 0.47741 0.74296 0.0
H1513 H 0.88572 0.39088 0.7521 0.0
H1514 H 0.8807 0.4175 0.70933 0.0
H1515 H 0.88916 0.46178 0.80757 0.0
H1516 H 0.84654 0.52397 0.68428 0.0
H1517 H 0.85634 0.49778 0.72031 0.0
H1518 H 0.88581 0.46526 0.6178 0.0
C1519 C 0.88885 0.41725 0.74246 0.0
C1520 C 0.88876 0.46243 0.7661 0.0
C1521 C 0.89155 0.40203 0.76733 0.0
C1522 C 0.85696 0.51774 0.66591 0.0
C1523 C 0.86266 0.50277 0.68692 0.0
C1524 C 0.88674 0.46472 0.65921 0.0
C1525 C 0.89616 0.432 0.76108 0.0
C1526 C 0.89239 0.4483 0.73615 0.0
C1527 C 0.87632 0.49432 0.66524 0.0
C1528 C 0.88259 0.47867 0.68929 0.0
H1529 H 0.9171 0.41542 0.8633 0.0
H1530 H 0.91244 0.4422 0.81974 0.0
H1531 H 0.89443 0.43908 0.6582 0.0
H1532 H 0.88451 0.52117 0.56675 0.0
H1533 H 0.89445 0.49481 0.6035 0.0
C1534 C 0.51217 0.12972 0.40459 0.0
C1535 C 0.5225 0.14146 0.38012 0.0
C1536 C 0.49674 0.12528 0.38301 0.0
C1537 C 0.46478 0.14 0.29087 0.0
H1538 H 0.45315 0.0932 0.27819 0.0
C1539 C 0.41146 0.11861 0.15861 0.0
C1540 C 0.40087 0.106 0.17678 0.0
C1541 C 0.4262 0.12245 0.18477 0.0
C1542 C 0.4561 0.10633 0.28194 0.0
H1543 H 0.52454 0.158 0.31436 0.0
H1544 H 0.49785 0.15033 0.27724 0.0
H1545 H 0.4785 0.10118 0.32424 0.0
H1546 H 0.39729 0.08738 0.23596 0.0
H1547 H 0.42301 0.0941 0.28202 0.0
H1548 H 0.44249 0.14523 0.24872 0.0
C1549 C 0.50154 0.14458 0.3131 0.0
C1550 C 0.47062 0.1109 0.30843 0.0
C1551 C 0.51693 0.1489 0.33432 0.0
C1552 C 0.4054 0.09703 0.2209 0.0
C1553 C 0.42013 0.10089 0.2472 0.0
C1554 C 0.45028 0.13546 0.26461 0.0
C1555 C 0.4913 0.13265 0.33691 0.0
C1556 C 0.47523 0.12778 0.31258 0.0
C1557 C 0.43061 0.11381 0.22985 0.0
C1558 C 0.44585 0.11856 0.25919 0.0
H1559 H 0.51612 0.12373 0.43982 0.0
H1560 H 0.48906 0.11612 0.40243 0.0
H1561 H 0.46784 0.15313 0.29413 0.0
H1562 H 0.40819 0.12564 0.12455 0.0
H1563 H 0.43413 0.13226 0.16974 0.0
C1564 C 0.13041 0.48923 0.59099 0.0
C1565 C 0.14227 0.47916 0.61605 0.0
C1566 C 0.12575 0.5047 0.61176 0.0
C1567 C 0.13973 0.5372 0.70323 0.0
H1568 H 0.09272 0.54839 0.71291 0.0
C1569 C 0.117 0.59098 0.83137 0.0
C1570 C 0.10463 0.60152 0.81135 0.0
C1571 C 0.12103 0.57605 0.80655 0.0
C1572 C 0.10591 0.54554 0.71001 0.0
H1573 H 0.15879 0.47765 0.68193 0.0
H1574 H 0.15072 0.50441 0.71775 0.0
H1575 H 0.10127 0.52291 0.66851 0.0
H1576 H 0.08652 0.60475 0.75057 0.0
H1577 H 0.09354 0.57865 0.70686 0.0
H1578 H 0.14444 0.55972 0.7447 0.0
C1579 C 0.14506 0.50049 0.682 0.0
C1580 C 0.1108 0.53096 0.68446 0.0
C1581 C 0.14962 0.48506 0.66153 0.0
C1582 C 0.09599 0.5967 0.76695 0.0
C1583 C 0.10003 0.58176 0.74201 0.0
C1584 C 0.13486 0.55175 0.72863 0.0
C1585 C 0.13298 0.51044 0.65769 0.0
C1586 C 0.12777 0.52653 0.68132 0.0
C1587 C 0.11279 0.57138 0.76105 0.0
C1588 C 0.11788 0.55602 0.7329 0.0
H1589 H 0.12448 0.48502 0.55599 0.0
H1590 H 0.1165 0.51216 0.59191 0.0
H1591 H 0.15292 0.53429 0.70074 0.0
H1592 H 0.12374 0.59446 0.86576 0.0
H1593 H 0.13068 0.5682 0.82286 0.0
C1594 C 0.60212 0.89078 0.23589 0.0
C1595 C 0.60284 0.90067 0.19147 0.0
C1596 C 0.58689 0.88785 0.26043 0.0
C1597 C 0.54169 0.88695 0.2358 0.0
H1598 H 0.53845 0.88511 0.38417 0.0
C1599 C 0.48564 0.85664 0.33653 0.0
C1600 C 0.47861 0.86495 0.37888 0.0
C1601 C 0.50081 0.86186 0.31571 0.0
C1602 C 0.53912 0.88571 0.34273 0.0
H1603 H 0.58839 0.91559 0.13843 0.0
H1604 H 0.56161 0.91054 0.1814 0.0
H1605 H 0.56473 0.89345 0.34389 0.0
H1606 H 0.48235 0.88504 0.43338 0.0
H1607 H 0.50902 0.89416 0.39693 0.0
H1608 H 0.51612 0.87923 0.23452 0.0
C1609 C 0.57281 0.90489 0.19698 0.0
C1610 C 0.55421 0.89034 0.31962 0.0
C1611 C 0.5881 0.90786 0.17253 0.0
C1612 C 0.48742 0.87834 0.40084 0.0
C1613 C 0.5027 0.88355 0.38 0.0
C1614 C 0.52665 0.88226 0.25886 0.0
C1615 C 0.57201 0.89475 0.24108 0.0
C1616 C 0.55572 0.89086 0.26585 0.0
C1617 C 0.50943 0.87552 0.33665 0.0
C1618 C 0.52523 0.88138 0.31258 0.0
H1619 H 0.61336 0.88529 0.2517 0.0
H1620 H 0.58672 0.87986 0.29395 0.0
H1621 H 0.54244 0.88708 0.19433 0.0
H1622 H 0.47928 0.84621 0.31872 0.0
H1623 H 0.5058 0.85518 0.283 0.0
C1624 C 0.91198 0.08634 0.41984 0.0
C1625 C 0.90422 0.10105 0.43672 0.0
C1626 C 0.90925 0.07124 0.4457 0.0
C1627 C 0.89414 0.0535 0.56897 0.0
H1628 H 0.88335 0.01475 0.48642 0.0
C1629 C 0.88041 0.9875 0.65435 0.0
C1630 C 0.86685 0.97895 0.63231 0.0
C1631 C 0.88617 0.00249 0.63282 0.0
C1632 C 0.88632 0.02547 0.51003 0.0
H1633 H 0.88822 0.11179 0.49501 0.0
H1634 H 0.88325 0.0855 0.53969 0.0
H1635 H 0.89172 0.04064 0.44452 0.0
H1636 H 0.84839 0.97983 0.57131 0.0
H1637 H 0.85835 0.0058 0.53434 0.0
H1638 H 0.8883 0.03837 0.63446 0.0
C1639 C 0.89145 0.08553 0.50666 0.0
C1640 C 0.8913 0.04025 0.48602 0.0
C1641 C 0.89411 0.10054 0.4807 0.0
C1642 C 0.85892 0.98598 0.58924 0.0
C1643 C 0.86471 1.00083 0.56769 0.0
C1644 C 0.88924 0.03866 0.59303 0.0
C1645 C 0.89884 0.07065 0.48922 0.0
C1646 C 0.89502 0.05453 0.51513 0.0
C1647 C 0.87855 0.00914 0.58866 0.0
C1648 C 0.88498 0.02457 0.56376 0.0
H1649 H 0.91991 0.08649 0.38619 0.0
H1650 H 0.91526 0.06003 0.43161 0.0
H1651 H 0.8971 0.06424 0.59251 0.0
H1652 H 0.88682 0.98242 0.68744 0.0
H1653 H 0.89688 0.00861 0.64982 0.0
C1654 C 0.10418 0.11017 0.50122 0.0
C1655 C 0.10474 0.10053 0.54617 0.0
C1656 C 0.08896 0.11349 0.47704 0.0
C1657 C 0.05598 0.11212 0.41927 0.0
H1658 H 0.01861 0.12465 0.50558 0.0
C1659 C 0.98931 0.12603 0.34013 0.0
C1660 C 0.98077 0.13951 0.36266 0.0
C1661 C 0.00459 0.12053 0.36035 0.0
C1662 C 0.02894 0.12126 0.48088 0.0
H1663 H 0.09001 0.08636 0.60039 0.0
H1664 H 0.06327 0.09205 0.55797 0.0
H1665 H 0.04481 0.11599 0.54492 0.0
H1666 H 0.98196 0.15816 0.42296 0.0
H1667 H 0.00851 0.14873 0.45752 0.0
H1668 H 0.04017 0.11781 0.35522 0.0
C1669 C 0.07458 0.09725 0.54174 0.0
C1670 C 0.04391 0.11608 0.50347 0.0
C1671 C 0.08985 0.09389 0.56586 0.0
C1672 C 0.98811 0.14767 0.40477 0.0
C1673 C 0.0033 0.14217 0.42493 0.0
C1674 C 0.04097 0.11725 0.39664 0.0
C1675 C 0.07394 0.10721 0.49724 0.0
C1676 C 0.05768 0.11163 0.47299 0.0
C1677 C 0.0116 0.12836 0.40358 0.0
C1678 C 0.02734 0.1221 0.42721 0.0
H1679 H 0.11553 0.11523 0.48485 0.0
H1680 H 0.08894 0.12133 0.44318 0.0
H1681 H 0.06629 0.1086 0.39466 0.0
H1682 H 0.98399 0.11942 0.3078 0.0
H1683 H 0.01064 0.10981 0.3431 0.0
C1684 C 0.10074 0.91278 0.41349 0.0
C1685 C 0.10517 0.89769 0.43712 0.0
C1686 C 0.10384 0.92801 0.43803 0.0
C1687 C 0.11358 0.94665 0.56526 0.0
H1688 H 0.13128 0.98292 0.48322 0.0
C1689 C 0.12595 0.01349 0.64539 0.0
C1690 C 0.1404 0.02157 0.62744 0.0
C1691 C 0.12104 0.99812 0.62448 0.0
C1692 C 0.12645 0.97289 0.5068 0.0
H1693 H 0.11588 0.88651 0.50523 0.0
H1694 H 0.12171 0.91303 0.54763 0.0
H1695 H 0.12366 0.95679 0.44202 0.0
H1696 H 0.16144 0.01944 0.57531 0.0
H1697 H 0.15305 0.99273 0.53981 0.0
H1698 H 0.11685 0.9627 0.6303 0.0
C1699 C 0.11566 0.91321 0.51048 0.0
C1700 C 0.12185 0.95796 0.48302 0.0
C1701 C 0.11252 0.89802 0.48597 0.0
C1702 C 0.15014 0.01367 0.5897 0.0
C1703 C 0.14526 0.99838 0.569 0.0
C1704 C 0.11819 0.96162 0.5891 0.0
C1705 C 0.11145 0.92841 0.48673 0.0
C1706 C 0.1155 0.94459 0.51196 0.0
C1707 C 0.13048 0.99057 0.58528 0.0
C1708 C 0.12486 0.97485 0.5602 0.0
H1709 H 0.09501 0.91279 0.37585 0.0
H1710 H 0.10024 0.93946 0.4189 0.0
H1711 H 0.10854 0.93668 0.58864 0.0
H1712 H 0.11815 0.01927 0.67429 0.0
H1713 H 0.10955 0.99245 0.63779 0.0
C1714 C 0.02081 0.86763 0.39856 0.0
C1715 C 0.02116 0.85159 0.37668 0.0
C1716 C 0.00589 0.87434 0.41731 0.0
C1717 C 0.96386 0.86061 0.4612 0.0
H1718 H 0.95487 0.90819 0.46556 0.0
C1719 C 0.90035 0.88701 0.52271 0.0
C1720 C 0.90064 0.89885 0.56244 0.0
C1721 C 0.91503 0.88233 0.49785 0.0
C1722 C 0.95731 0.89489 0.46481 0.0
H1723 H 0.00591 0.8305 0.35413 0.0
H1724 H 0.97975 0.84249 0.38441 0.0
H1725 H 0.98003 0.89796 0.4226 0.0
H1726 H 0.91635 0.91582 0.6053 0.0
H1727 H 0.94224 0.90788 0.56056 0.0
H1728 H 0.94089 0.85757 0.50217 0.0
C1729 C 0.99111 0.84965 0.3892 0.0
C1730 C 0.97174 0.88899 0.44033 0.0
C1731 C 0.00609 0.84282 0.37128 0.0
C1732 C 0.91583 0.9066 0.57499 0.0
C1733 C 0.93058 0.90207 0.54945 0.0
C1734 C 0.94936 0.86648 0.48481 0.0
C1735 C 0.99086 0.8653 0.41388 0.0
C1736 C 0.97523 0.87174 0.43824 0.0
C1737 C 0.93033 0.88962 0.5114 0.0
C1738 C 0.94594 0.88366 0.48692 0.0
H1739 H 0.03219 0.87473 0.40346 0.0
H1740 H 0.00633 0.88633 0.43642 0.0
H1741 H 0.96625 0.8473 0.46182 0.0
H1742 H 0.88874 0.88126 0.51091 0.0
H1743 H 0.91444 0.87295 0.46799 0.0
loop_
_geom_bond_atom_site_label_1
_geom_bond_atom_site_label_2
_geom_bond_distance
_geom_bond_site_symmetry_2
_ccdc_geom_bond_type
Co0 O3 1.970 . S
Co0 N17 1.989 . S
Co0 O25 1.967 . S
Co0 O32 1.920 . S
Co1 O4 1.966 . S
Co1 N10 2.022 . S
Co1 N18 1.993 . S
Co1 O26 1.941 . S
C2 O3 1.258 . S
C2 O4 1.263 . S
O3 Co0 1.970 . S
O3 C2 1.258 . S
O4 Co1 1.966 . S
O4 C2 1.263 . S
C5 O6 1.235 . S
C5 O32 1.289 . S
O6 C5 1.235 . S
C7 C9 1.400 . S
C7 N10 1.351 . S
C7 C12 1.501 . S
C8 C9 1.387 . S
C8 N11 1.341 . S
C9 C7 1.400 . S
C9 C8 1.387 . S
N10 Co1 2.022 . S
N10 C7 1.351 . S
N10 N11 1.365 . S
N11 C8 1.341 . S
N11 N10 1.365 . S
N11 H31 0.862 . S
C12 C7 1.501 . S
C12 H13 0.961 . S
C12 H14 0.961 . S
C12 H15 0.960 . S
H13 C12 0.961 . S
H14 C12 0.961 . S
H15 C12 0.960 . S
C16 N17 1.342 . S
C16 C20 1.401 . S
C16 C21 1.499 . S
N17 Co0 1.989 . S
N17 C16 1.342 . S
N17 N18 1.388 . S
N18 Co1 1.993 . S
N18 N17 1.388 . S
N18 C19 1.346 . S
C19 N18 1.346 . S
C19 C20 1.396 . S
C19 C29 1.510 . S
C20 C16 1.401 . S
C20 C19 1.396 . S
C21 C16 1.499 . S
C21 H22 0.959 . S
C21 H23 0.960 . S
C21 H24 0.961 . S
H22 C21 0.959 . S
H23 C21 0.960 . S
H24 C21 0.961 . S
O25 Co0 1.967 . S
O25 C33 1.258 . S
O26 Co1 1.941 . S
O26 C33 1.266 . S
H27 C29 0.959 . S
H28 C29 0.961 . S
C29 C19 1.510 . S
C29 H27 0.959 . S
C29 H28 0.961 . S
C29 H30 0.960 . S
H30 C29 0.960 . S
H31 N11 0.862 . S
O32 Co0 1.920 . S
O32 C5 1.289 . S
C33 O25 1.258 . S
C33 O26 1.266 . S
Co34 O37 1.970 . S
Co34 N51 1.989 . S
Co34 O59 1.967 . S
Co34 O66 1.920 . S
Co35 O38 1.966 . S
Co35 N44 2.022 . S
Co35 N52 1.993 . S
Co35 O60 1.941 . S
C36 O37 1.258 . S
C36 O38 1.263 . S
O37 Co34 1.970 . S
O37 C36 1.258 . S
O38 Co35 1.966 . S
O38 C36 1.263 . S
C39 O40 1.235 . S
C39 O66 1.289 . S
O40 C39 1.235 . S
C41 C43 1.400 . S
C41 N44 1.351 . S
C41 C46 1.501 . S
C42 C43 1.387 . S
C42 N45 1.341 . S
C43 C41 1.400 . S
C43 C42 1.387 . S
N44 Co35 2.022 . S
N44 C41 1.351 . S
N44 N45 1.365 . S
N45 C42 1.341 . S
N45 N44 1.365 . S
N45 H65 0.862 . S
C46 C41 1.501 . S
C46 H47 0.961 . S
C46 H48 0.961 . S
C46 H49 0.960 . S
H47 C46 0.961 . S
H48 C46 0.961 . S
H49 C46 0.960 . S
C50 N51 1.342 . S
C50 C54 1.401 . S
C50 C55 1.499 . S
N51 Co34 1.989 . S
N51 C50 1.342 . S
N51 N52 1.388 . S
N52 Co35 1.993 . S
N52 N51 1.388 . S
N52 C53 1.346 . S
C53 N52 1.346 . S
C53 C54 1.396 . S
C53 C63 1.510 . S
C54 C50 1.401 . S
C54 C53 1.396 . S
C55 C50 1.499 . S
C55 H56 0.959 . S
C55 H57 0.960 . S
C55 H58 0.961 . S
H56 C55 0.959 . S
H57 C55 0.960 . S
H58 C55 0.961 . S
O59 Co34 1.967 . S
O59 C67 1.258 . S
O60 Co35 1.941 . S
O60 C67 1.266 . S
H61 C63 0.959 . S
H62 C63 0.961 . S
C63 C53 1.510 . S
C63 H61 0.959 . S
C63 H62 0.961 . S
C63 H64 0.960 . S
H64 C63 0.960 . S
H65 N45 0.862 . S
O66 Co34 1.920 . S
O66 C39 1.289 . S
C67 O59 1.258 . S
C67 O60 1.266 . S
Co68 O71 1.970 . S
Co68 N85 1.989 . S
Co68 O93 1.967 . S
Co68 O100 1.920 . S
Co69 O72 1.966 . S
Co69 N78 2.022 . S
Co69 N86 1.993 . S
Co69 O94 1.941 . S
C70 O71 1.258 . S
C70 O72 1.263 . S
O71 Co68 1.970 . S
O71 C70 1.258 . S
O72 Co69 1.966 . S
O72 C70 1.263 . S
C73 O74 1.235 . S
C73 O100 1.289 . S
O74 C73 1.235 . S
C75 C77 1.400 . S
C75 N78 1.351 . S
C75 C80 1.501 . S
C76 C77 1.387 . S
C76 N79 1.341 . S
C77 C75 1.400 . S
C77 C76 1.387 . S
N78 Co69 2.022 . S
N78 C75 1.351 . S
N78 N79 1.365 . S
N79 C76 1.341 . S
N79 N78 1.365 . S
N79 H99 0.862 . S
C80 C75 1.501 . S
C80 H81 0.961 . S
C80 H82 0.961 . S
C80 H83 0.960 . S
H81 C80 0.961 . S
H82 C80 0.961 . S
H83 C80 0.960 . S
C84 N85 1.342 . S
C84 C88 1.401 . S
C84 C89 1.499 . S
N85 Co68 1.989 . S
N85 C84 1.342 . S
N85 N86 1.388 . S
N86 Co69 1.993 . S
N86 N85 1.388 . S
N86 C87 1.346 . S
C87 N86 1.346 . S
C87 C88 1.396 . S
C87 C97 1.510 . S
C88 C84 1.401 . S
C88 C87 1.396 . S
C89 C84 1.499 . S
C89 H90 0.959 . S
C89 H91 0.960 . S
C89 H92 0.961 . S
H90 C89 0.959 . S
H91 C89 0.960 . S
H92 C89 0.961 . S
O93 Co68 1.967 . S
O93 C101 1.258 . S
O94 Co69 1.941 . S
O94 C101 1.266 . S
H95 C97 0.959 . S
H96 C97 0.961 . S
C97 C87 1.510 . S
C97 H95 0.959 . S
C97 H96 0.961 . S
C97 H98 0.960 . S
H98 C97 0.960 . S
H99 N79 0.862 . S
O100 Co68 1.920 . S
O100 C73 1.289 . S
C101 O93 1.258 . S
C101 O94 1.266 . S
Co102 O105 1.970 . S
Co102 N119 1.989 . S
Co102 O127 1.967 . S
Co102 O134 1.920 . S
Co103 O106 1.966 . S
Co103 N112 2.022 . S
Co103 N120 1.993 . S
Co103 O128 1.941 . S
C104 O105 1.258 . S
C104 O106 1.263 . S
O105 Co102 1.970 . S
O105 C104 1.258 . S
O106 Co103 1.966 . S
O106 C104 1.263 . S
C107 O108 1.235 . S
C107 O134 1.289 . S
O108 C107 1.235 . S
C109 C111 1.400 . S
C109 N112 1.351 . S
C109 C114 1.501 . S
C110 C111 1.387 . S
C110 N113 1.341 . S
C111 C109 1.400 . S
C111 C110 1.387 . S
N112 Co103 2.022 . S
N112 C109 1.351 . S
N112 N113 1.365 . S
N113 C110 1.341 . S
N113 N112 1.365 . S
N113 H133 0.862 . S
C114 C109 1.501 . S
C114 H115 0.961 . S
C114 H116 0.961 . S
C114 H117 0.960 . S
H115 C114 0.961 . S
H116 C114 0.961 . S
H117 C114 0.960 . S
C118 N119 1.342 . S
C118 C122 1.401 . S
C118 C123 1.499 . S
N119 Co102 1.989 . S
N119 C118 1.342 . S
N119 N120 1.388 . S
N120 Co103 1.993 . S
N120 N119 1.388 . S
N120 C121 1.346 . S
C121 N120 1.346 . S
C121 C122 1.396 . S
C121 C131 1.510 . S
C122 C118 1.401 . S
C122 C121 1.396 . S
C123 C118 1.499 . S
C123 H124 0.959 . S
C123 H125 0.960 . S
C123 H126 0.961 . S
H124 C123 0.959 . S
H125 C123 0.960 . S
H126 C123 0.961 . S
O127 Co102 1.967 . S
O127 C135 1.258 . S
O128 Co103 1.941 . S
O128 C135 1.266 . S
H129 C131 0.959 . S
H130 C131 0.961 . S
C131 C121 1.510 . S
C131 H129 0.959 . S
C131 H130 0.961 . S
C131 H132 0.960 . S
H132 C131 0.960 . S
H133 N113 0.862 . S
O134 Co102 1.920 . S
O134 C107 1.289 . S
C135 O127 1.258 . S
C135 O128 1.266 . S
Co136 O139 1.970 . S
Co136 N153 1.989 . S
Co136 O161 1.967 . S
Co136 O168 1.920 . S
Co137 O140 1.966 . S
Co137 N146 2.022 . S
Co137 N154 1.993 . S
Co137 O162 1.941 . S
C138 O139 1.258 . S
C138 O140 1.263 . S
O139 Co136 1.970 . S
O139 C138 1.258 . S
O140 Co137 1.966 . S
O140 C138 1.263 . S
C141 O142 1.235 . S
C141 O168 1.289 . S
O142 C141 1.235 . S
C143 C145 1.400 . S
C143 N146 1.351 . S
C143 C148 1.501 . S
C144 C145 1.387 . S
C144 N147 1.341 . S
C145 C143 1.400 . S
C145 C144 1.387 . S
N146 Co137 2.022 . S
N146 C143 1.351 . S
N146 N147 1.365 . S
N147 C144 1.341 . S
N147 N146 1.365 . S
N147 H167 0.862 . S
C148 C143 1.501 . S
C148 H149 0.961 . S
C148 H150 0.961 . S
C148 H151 0.960 . S
H149 C148 0.961 . S
H150 C148 0.961 . S
H151 C148 0.960 . S
C152 N153 1.342 . S
C152 C156 1.401 . S
C152 C157 1.499 . S
N153 Co136 1.989 . S
N153 C152 1.342 . S
N153 N154 1.388 . S
N154 Co137 1.993 . S
N154 N153 1.388 . S
N154 C155 1.346 . S
C155 N154 1.346 . S
C155 C156 1.396 . S
C155 C165 1.510 . S
C156 C152 1.401 . S
C156 C155 1.396 . S
C157 C152 1.499 . S
C157 H158 0.959 . S
C157 H159 0.960 . S
C157 H160 0.961 . S
H158 C157 0.959 . S
H159 C157 0.960 . S
H160 C157 0.961 . S
O161 Co136 1.967 . S
O161 C169 1.258 . S
O162 Co137 1.941 . S
O162 C169 1.266 . S
H163 C165 0.959 . S
H164 C165 0.961 . S
C165 C155 1.510 . S
C165 H163 0.959 . S
C165 H164 0.961 . S
C165 H166 0.960 . S
H166 C165 0.960 . S
H167 N147 0.862 . S
O168 Co136 1.920 . S
O168 C141 1.289 . S
C169 O161 1.258 . S
C169 O162 1.266 . S
Co170 O173 1.970 . S
Co170 N187 1.989 . S
Co170 O195 1.967 . S
Co170 O202 1.920 . S
Co171 O174 1.966 . S
Co171 N180 2.022 . S
Co171 N188 1.993 . S
Co171 O196 1.941 . S
C172 O173 1.258 . S
C172 O174 1.263 . S
O173 Co170 1.970 . S
O173 C172 1.258 . S
O174 Co171 1.966 . S
O174 C172 1.263 . S
C175 O176 1.235 . S
C175 O202 1.289 . S
O176 C175 1.235 . S
C177 C179 1.400 . S
C177 N180 1.351 . S
C177 C182 1.501 . S
C178 C179 1.387 . S
C178 N181 1.341 . S
C179 C177 1.400 . S
C179 C178 1.387 . S
N180 Co171 2.022 . S
N180 C177 1.351 . S
N180 N181 1.365 . S
N181 C178 1.341 . S
N181 N180 1.365 . S
N181 H201 0.862 . S
C182 C177 1.501 . S
C182 H183 0.961 . S
C182 H184 0.961 . S
C182 H185 0.960 . S
H183 C182 0.961 . S
H184 C182 0.961 . S
H185 C182 0.960 . S
C186 N187 1.342 . S
C186 C190 1.401 . S
C186 C191 1.499 . S
N187 Co170 1.989 . S
N187 C186 1.342 . S
N187 N188 1.388 . S
N188 Co171 1.993 . S
N188 N187 1.388 . S
N188 C189 1.346 . S
C189 N188 1.346 . S
C189 C190 1.396 . S
C189 C199 1.510 . S
C190 C186 1.401 . S
C190 C189 1.396 . S
C191 C186 1.499 . S
C191 H192 0.959 . S
C191 H193 0.960 . S
C191 H194 0.961 . S
H192 C191 0.959 . S
H193 C191 0.960 . S
H194 C191 0.961 . S
O195 Co170 1.967 . S
O195 C203 1.258 . S
O196 Co171 1.941 . S
O196 C203 1.266 . S
H197 C199 0.959 . S
H198 C199 0.961 . S
C199 C189 1.510 . S
C199 H197 0.959 . S
C199 H198 0.961 . S
C199 H200 0.960 . S
H200 C199 0.960 . S
H201 N181 0.862 . S
O202 Co170 1.920 . S
O202 C175 1.289 . S
C203 O195 1.258 . S
C203 O196 1.266 . S
Co204 O207 1.970 . S
Co204 N221 1.989 . S
Co204 O229 1.967 . S
Co204 O236 1.920 . S
Co205 O208 1.966 . S
Co205 N214 2.022 . S
Co205 N222 1.993 . S
Co205 O230 1.941 . S
C206 O207 1.258 . S
C206 O208 1.263 . S
O207 Co204 1.970 . S
O207 C206 1.258 . S
O208 Co205 1.966 . S
O208 C206 1.263 . S
C209 O210 1.235 . S
C209 O236 1.289 . S
O210 C209 1.235 . S
C211 C213 1.400 . S
C211 N214 1.351 . S
C211 C216 1.501 . S
C212 C213 1.387 . S
C212 N215 1.341 . S
C213 C211 1.400 . S
C213 C212 1.387 . S
N214 Co205 2.022 . S
N214 C211 1.351 . S
N214 N215 1.365 . S
N215 C212 1.341 . S
N215 N214 1.365 . S
N215 H235 0.862 . S
C216 C211 1.501 . S
C216 H217 0.961 . S
C216 H218 0.961 . S
C216 H219 0.960 . S
H217 C216 0.961 . S
H218 C216 0.961 . S
H219 C216 0.960 . S
C220 N221 1.342 . S
C220 C224 1.401 . S
C220 C225 1.499 . S
N221 Co204 1.989 . S
N221 C220 1.342 . S
N221 N222 1.388 . S
N222 Co205 1.993 . S
N222 N221 1.388 . S
N222 C223 1.346 . S
C223 N222 1.346 . S
C223 C224 1.396 . S
C223 C233 1.510 . S
C224 C220 1.401 . S
C224 C223 1.396 . S
C225 C220 1.499 . S
C225 H226 0.959 . S
C225 H227 0.960 . S
C225 H228 0.961 . S
H226 C225 0.959 . S
H227 C225 0.960 . S
H228 C225 0.961 . S
O229 Co204 1.967 . S
O229 C237 1.258 . S
O230 Co205 1.941 . S
O230 C237 1.266 . S
H231 C233 0.959 . S
H232 C233 0.961 . S
C233 C223 1.510 . S
C233 H231 0.959 . S
C233 H232 0.961 . S
C233 H234 0.960 . S
H234 C233 0.960 . S
H235 N215 0.862 . S
O236 Co204 1.920 . S
O236 C209 1.289 . S
C237 O229 1.258 . S
C237 O230 1.266 . S
Co238 O241 1.970 . S
Co238 N255 1.989 . S
Co238 O263 1.967 . S
Co238 O270 1.920 . S
Co239 O242 1.966 . S
Co239 N248 2.022 . S
Co239 N256 1.993 . S
Co239 O264 1.941 . S
C240 O241 1.258 . S
C240 O242 1.263 . S
O241 Co238 1.970 . S
O241 C240 1.258 . S
O242 Co239 1.966 . S
O242 C240 1.263 . S
C243 O244 1.235 . S
C243 O270 1.289 . S
O244 C243 1.235 . S
C245 C247 1.400 . S
C245 N248 1.351 . S
C245 C250 1.501 . S
C246 C247 1.387 . S
C246 N249 1.341 . S
C247 C245 1.400 . S
C247 C246 1.387 . S
N248 Co239 2.022 . S
N248 C245 1.351 . S
N248 N249 1.365 . S
N249 C246 1.341 . S
N249 N248 1.365 . S
N249 H269 0.862 . S
C250 C245 1.501 . S
C250 H251 0.961 . S
C250 H252 0.961 . S
C250 H253 0.960 . S
H251 C250 0.961 . S
H252 C250 0.961 . S
H253 C250 0.960 . S
C254 N255 1.342 . S
C254 C258 1.401 . S
C254 C259 1.499 . S
N255 Co238 1.989 . S
N255 C254 1.342 . S
N255 N256 1.388 . S
N256 Co239 1.993 . S
N256 N255 1.388 . S
N256 C257 1.346 . S
C257 N256 1.346 . S
C257 C258 1.396 . S
C257 C267 1.510 . S
C258 C254 1.401 . S
C258 C257 1.396 . S
C259 C254 1.499 . S
C259 H260 0.959 . S
C259 H261 0.960 . S
C259 H262 0.961 . S
H260 C259 0.959 . S
H261 C259 0.960 . S
H262 C259 0.961 . S
O263 Co238 1.967 . S
O263 C271 1.258 . S
O264 Co239 1.941 . S
O264 C271 1.266 . S
H265 C267 0.959 . S
H266 C267 0.961 . S
C267 C257 1.510 . S
C267 H265 0.959 . S
C267 H266 0.961 . S
C267 H268 0.960 . S
H268 C267 0.960 . S
H269 N249 0.862 . S
O270 Co238 1.920 . S
O270 C243 1.289 . S
C271 O263 1.258 . S
C271 O264 1.266 . S
Co272 O275 1.970 . S
Co272 N289 1.989 . S
Co272 O297 1.967 . S
Co272 O304 1.920 . S
Co273 O276 1.966 . S
Co273 N282 2.022 . S
Co273 N290 1.993 . S
Co273 O298 1.941 . S
C274 O275 1.258 . S
C274 O276 1.263 . S
O275 Co272 1.970 . S
O275 C274 1.258 . S
O276 Co273 1.966 . S
O276 C274 1.263 . S
C277 O278 1.235 . S
C277 O304 1.289 . S
O278 C277 1.235 . S
C279 C281 1.400 . S
C279 N282 1.351 . S
C279 C284 1.501 . S
C280 C281 1.387 . S
C280 N283 1.341 . S
C281 C279 1.400 . S
C281 C280 1.387 . S
N282 Co273 2.022 . S
N282 C279 1.351 . S
N282 N283 1.365 . S
N283 C280 1.341 . S
N283 N282 1.365 . S
N283 H303 0.862 . S
C284 C279 1.501 . S
C284 H285 0.961 . S
C284 H286 0.961 . S
C284 H287 0.960 . S
H285 C284 0.961 . S
H286 C284 0.961 . S
H287 C284 0.960 . S
C288 N289 1.342 . S
C288 C292 1.401 . S
C288 C293 1.499 . S
N289 Co272 1.989 . S
N289 C288 1.342 . S
N289 N290 1.388 . S
N290 Co273 1.993 . S
N290 N289 1.388 . S
N290 C291 1.346 . S
C291 N290 1.346 . S
C291 C292 1.396 . S
C291 C301 1.510 . S
C292 C288 1.401 . S
C292 C291 1.396 . S
C293 C288 1.499 . S
C293 H294 0.959 . S
C293 H295 0.960 . S
C293 H296 0.961 . S
H294 C293 0.959 . S
H295 C293 0.960 . S
H296 C293 0.961 . S
O297 Co272 1.967 . S
O297 C305 1.258 . S
O298 Co273 1.941 . S
O298 C305 1.266 . S
H299 C301 0.959 . S
H300 C301 0.961 . S
C301 C291 1.510 . S
C301 H299 0.959 . S
C301 H300 0.961 . S
C301 H302 0.960 . S
H302 C301 0.960 . S
H303 N283 0.862 . S
O304 Co272 1.920 . S
O304 C277 1.289 . S
C305 O297 1.258 . S
C305 O298 1.266 . S
Co306 O309 1.970 . S
Co306 N323 1.989 . S
Co306 O331 1.967 . S
Co306 O338 1.920 . S
Co307 O310 1.966 . S
Co307 N316 2.022 . S
Co307 N324 1.993 . S
Co307 O332 1.941 . S
C308 O309 1.258 . S
C308 O310 1.263 . S
O309 Co306 1.970 . S
O309 C308 1.258 . S
O310 Co307 1.966 . S
O310 C308 1.263 . S
C311 O312 1.235 . S
C311 O338 1.289 . S
O312 C311 1.235 . S
C313 C315 1.400 . S
C313 N316 1.351 . S
C313 C318 1.501 . S
C314 C315 1.387 . S
C314 N317 1.341 . S
C315 C313 1.400 . S
C315 C314 1.387 . S
N316 Co307 2.022 . S
N316 C313 1.351 . S
N316 N317 1.365 . S
N317 C314 1.341 . S
N317 N316 1.365 . S
N317 H337 0.862 . S
C318 C313 1.501 . S
C318 H319 0.961 . S
C318 H320 0.961 . S
C318 H321 0.960 . S
H319 C318 0.961 . S
H320 C318 0.961 . S
H321 C318 0.960 . S
C322 N323 1.342 . S
C322 C326 1.401 . S
C322 C327 1.499 . S
N323 Co306 1.989 . S
N323 C322 1.342 . S
N323 N324 1.388 . S
N324 Co307 1.993 . S
N324 N323 1.388 . S
N324 C325 1.346 . S
C325 N324 1.346 . S
C325 C326 1.396 . S
C325 C335 1.510 . S
C326 C322 1.401 . S
C326 C325 1.396 . S
C327 C322 1.499 . S
C327 H328 0.959 . S
C327 H329 0.960 . S
C327 H330 0.961 . S
H328 C327 0.959 . S
H329 C327 0.960 . S
H330 C327 0.961 . S
O331 Co306 1.967 . S
O331 C339 1.258 . S
O332 Co307 1.941 . S
O332 C339 1.266 . S
H333 C335 0.959 . S
H334 C335 0.961 . S
C335 C325 1.510 . S
C335 H333 0.959 . S
C335 H334 0.961 . S
C335 H336 0.960 . S
H336 C335 0.960 . S
H337 N317 0.862 . S
O338 Co306 1.920 . S
O338 C311 1.289 . S
C339 O331 1.258 . S
C339 O332 1.266 . S
Co340 O343 1.970 . S
Co340 N357 1.989 . S
Co340 O365 1.967 . S
Co340 O372 1.920 . S
Co341 O344 1.966 . S
Co341 N350 2.022 . S
Co341 N358 1.993 . S
Co341 O366 1.941 . S
C342 O343 1.258 . S
C342 O344 1.263 . S
O343 Co340 1.970 . S
O343 C342 1.258 . S
O344 Co341 1.966 . S
O344 C342 1.263 . S
C345 O346 1.235 . S
C345 O372 1.289 . S
O346 C345 1.235 . S
C347 C349 1.400 . S
C347 N350 1.351 . S
C347 C352 1.501 . S
C348 C349 1.387 . S
C348 N351 1.341 . S
C349 C347 1.400 . S
C349 C348 1.387 . S
N350 Co341 2.022 . S
N350 C347 1.351 . S
N350 N351 1.365 . S
N351 C348 1.341 . S
N351 N350 1.365 . S
N351 H371 0.862 . S
C352 C347 1.501 . S
C352 H353 0.961 . S
C352 H354 0.961 . S
C352 H355 0.960 . S
H353 C352 0.961 . S
H354 C352 0.961 . S
H355 C352 0.960 . S
C356 N357 1.342 . S
C356 C360 1.401 . S
C356 C361 1.499 . S
N357 Co340 1.989 . S
N357 C356 1.342 . S
N357 N358 1.388 . S
N358 Co341 1.993 . S
N358 N357 1.388 . S
N358 C359 1.346 . S
C359 N358 1.346 . S
C359 C360 1.396 . S
C359 C369 1.510 . S
C360 C356 1.401 . S
C360 C359 1.396 . S
C361 C356 1.499 . S
C361 H362 0.959 . S
C361 H363 0.960 . S
C361 H364 0.961 . S
H362 C361 0.959 . S
H363 C361 0.960 . S
H364 C361 0.961 . S
O365 Co340 1.967 . S
O365 C373 1.258 . S
O366 Co341 1.941 . S
O366 C373 1.266 . S
H367 C369 0.959 . S
H368 C369 0.961 . S
C369 C359 1.510 . S
C369 H367 0.959 . S
C369 H368 0.961 . S
C369 H370 0.960 . S
H370 C369 0.960 . S
H371 N351 0.862 . S
O372 Co340 1.920 . S
O372 C345 1.289 . S
C373 O365 1.258 . S
C373 O366 1.266 . S
Co374 O377 1.970 . S
Co374 N391 1.989 . S
Co374 O399 1.967 . S
Co374 O406 1.920 . S
Co375 O378 1.966 . S
Co375 N384 2.022 . S
Co375 N392 1.993 . S
Co375 O400 1.941 . S
C376 O377 1.258 . S
C376 O378 1.263 . S
O377 Co374 1.970 . S
O377 C376 1.258 . S
O378 Co375 1.966 . S
O378 C376 1.263 . S
C379 O380 1.235 . S
C379 O406 1.289 . S
O380 C379 1.235 . S
C381 C383 1.400 . S
C381 N384 1.351 . S
C381 C386 1.501 . S
C382 C383 1.387 . S
C382 N385 1.341 . S
C383 C381 1.400 . S
C383 C382 1.387 . S
N384 Co375 2.022 . S
N384 C381 1.351 . S
N384 N385 1.365 . S
N385 C382 1.341 . S
N385 N384 1.365 . S
N385 H405 0.862 . S
C386 C381 1.501 . S
C386 H387 0.961 . S
C386 H388 0.961 . S
C386 H389 0.960 . S
H387 C386 0.961 . S
H388 C386 0.961 . S
H389 C386 0.960 . S
C390 N391 1.342 . S
C390 C394 1.401 . S
C390 C395 1.499 . S
N391 Co374 1.989 . S
N391 C390 1.342 . S
N391 N392 1.388 . S
N392 Co375 1.993 . S
N392 N391 1.388 . S
N392 C393 1.346 . S
C393 N392 1.346 . S
C393 C394 1.396 . S
C393 C403 1.510 . S
C394 C390 1.401 . S
C394 C393 1.396 . S
C395 C390 1.499 . S
C395 H396 0.959 . S
C395 H397 0.960 . S
C395 H398 0.961 . S
H396 C395 0.959 . S
H397 C395 0.960 . S
H398 C395 0.961 . S
O399 Co374 1.967 . S
O399 C407 1.258 . S
O400 Co375 1.941 . S
O400 C407 1.266 . S
H401 C403 0.959 . S
H402 C403 0.961 . S
C403 C393 1.510 . S
C403 H401 0.959 . S
C403 H402 0.961 . S
C403 H404 0.960 . S
H404 C403 0.960 . S
H405 N385 0.862 . S
O406 Co374 1.920 . S
O406 C379 1.289 . S
C407 O399 1.258 . S
C407 O400 1.266 . S
Co408 O411 1.970 . S
Co408 N425 1.989 . S
Co408 O433 1.967 . S
Co408 O440 1.920 . S
Co409 O412 1.966 . S
Co409 N418 2.022 . S
Co409 N426 1.993 . S
Co409 O434 1.941 . S
C410 O411 1.258 . S
C410 O412 1.263 . S
O411 Co408 1.970 . S
O411 C410 1.258 . S
O412 Co409 1.966 . S
O412 C410 1.263 . S
C413 O414 1.235 . S
C413 O440 1.289 . S
O414 C413 1.235 . S
C415 C417 1.400 . S
C415 N418 1.351 . S
C415 C420 1.501 . S
C416 C417 1.387 . S
C416 N419 1.341 . S
C417 C415 1.400 . S
C417 C416 1.387 . S
N418 Co409 2.022 . S
N418 C415 1.351 . S
N418 N419 1.365 . S
N419 C416 1.341 . S
N419 N418 1.365 . S
N419 H439 0.862 . S
C420 C415 1.501 . S
C420 H421 0.961 . S
C420 H422 0.961 . S
C420 H423 0.960 . S
H421 C420 0.961 . S
H422 C420 0.961 . S
H423 C420 0.960 . S
C424 N425 1.342 . S
C424 C428 1.401 . S
C424 C429 1.499 . S
N425 Co408 1.989 . S
N425 C424 1.342 . S
N425 N426 1.388 . S
N426 Co409 1.993 . S
N426 N425 1.388 . S
N426 C427 1.346 . S
C427 N426 1.346 . S
C427 C428 1.396 . S
C427 C437 1.510 . S
C428 C424 1.401 . S
C428 C427 1.396 . S
C429 C424 1.499 . S
C429 H430 0.959 . S
C429 H431 0.960 . S
C429 H432 0.961 . S
H430 C429 0.959 . S
H431 C429 0.960 . S
H432 C429 0.961 . S
O433 Co408 1.967 . S
O433 C441 1.258 . S
O434 Co409 1.941 . S
O434 C441 1.266 . S
H435 C437 0.959 . S
H436 C437 0.961 . S
C437 C427 1.510 . S
C437 H435 0.959 . S
C437 H436 0.961 . S
C437 H438 0.960 . S
H438 C437 0.960 . S
H439 N419 0.862 . S
O440 Co408 1.920 . S
O440 C413 1.289 . S
C441 O433 1.258 . S
C441 O434 1.266 . S
Co442 O445 1.970 . S
Co442 N459 1.989 . S
Co442 O467 1.967 . S
Co442 O474 1.920 . S
Co443 O446 1.966 . S
Co443 N452 2.022 . S
Co443 N460 1.993 . S
Co443 O468 1.941 . S
C444 O445 1.258 . S
C444 O446 1.263 . S
O445 Co442 1.970 . S
O445 C444 1.258 . S
O446 Co443 1.966 . S
O446 C444 1.263 . S
C447 O448 1.235 . S
C447 O474 1.289 . S
O448 C447 1.235 . S
C449 C451 1.400 . S
C449 N452 1.351 . S
C449 C454 1.501 . S
C450 C451 1.387 . S
C450 N453 1.341 . S
C451 C449 1.400 . S
C451 C450 1.387 . S
N452 Co443 2.022 . S
N452 C449 1.351 . S
N452 N453 1.365 . S
N453 C450 1.341 . S
N453 N452 1.365 . S
N453 H473 0.862 . S
C454 C449 1.501 . S
C454 H455 0.961 . S
C454 H456 0.961 . S
C454 H457 0.960 . S
H455 C454 0.961 . S
H456 C454 0.961 . S
H457 C454 0.960 . S
C458 N459 1.342 . S
C458 C462 1.401 . S
C458 C463 1.499 . S
N459 Co442 1.989 . S
N459 C458 1.342 . S
N459 N460 1.388 . S
N460 Co443 1.993 . S
N460 N459 1.388 . S
N460 C461 1.346 . S
C461 N460 1.346 . S
C461 C462 1.396 . S
C461 C471 1.510 . S
C462 C458 1.401 . S
C462 C461 1.396 . S
C463 C458 1.499 . S
C463 H464 0.959 . S
C463 H465 0.960 . S
C463 H466 0.961 . S
H464 C463 0.959 . S
H465 C463 0.960 . S
H466 C463 0.961 . S
O467 Co442 1.967 . S
O467 C475 1.258 . S
O468 Co443 1.941 . S
O468 C475 1.266 . S
H469 C471 0.959 . S
H470 C471 0.961 . S
C471 C461 1.510 . S
C471 H469 0.959 . S
C471 H470 0.961 . S
C471 H472 0.960 . S
H472 C471 0.960 . S
H473 N453 0.862 . S
O474 Co442 1.920 . S
O474 C447 1.289 . S
C475 O467 1.258 . S
C475 O468 1.266 . S
Co476 O479 1.970 . S
Co476 N493 1.989 . S
Co476 O501 1.967 . S
Co476 O508 1.920 . S
Co477 O480 1.966 . S
Co477 N486 2.022 . S
Co477 N494 1.993 . S
Co477 O502 1.941 . S
C478 O479 1.258 . S
C478 O480 1.263 . S
O479 Co476 1.970 . S
O479 C478 1.258 . S
O480 Co477 1.966 . S
O480 C478 1.263 . S
C481 O482 1.235 . S
C481 O508 1.289 . S
O482 C481 1.235 . S
C483 C485 1.400 . S
C483 N486 1.351 . S
C483 C488 1.501 . S
C484 C485 1.387 . S
C484 N487 1.341 . S
C485 C483 1.400 . S
C485 C484 1.387 . S
N486 Co477 2.022 . S
N486 C483 1.351 . S
N486 N487 1.365 . S
N487 C484 1.341 . S
N487 N486 1.365 . S
N487 H507 0.862 . S
C488 C483 1.501 . S
C488 H489 0.961 . S
C488 H490 0.961 . S
C488 H491 0.960 . S
H489 C488 0.961 . S
H490 C488 0.961 . S
H491 C488 0.960 . S
C492 N493 1.342 . S
C492 C496 1.401 . S
C492 C497 1.499 . S
N493 Co476 1.989 . S
N493 C492 1.342 . S
N493 N494 1.388 . S
N494 Co477 1.993 . S
N494 N493 1.388 . S
N494 C495 1.346 . S
C495 N494 1.346 . S
C495 C496 1.396 . S
C495 C505 1.510 . S
C496 C492 1.401 . S
C496 C495 1.396 . S
C497 C492 1.499 . S
C497 H498 0.959 . S
C497 H499 0.960 . S
C497 H500 0.961 . S
H498 C497 0.959 . S
H499 C497 0.960 . S
H500 C497 0.961 . S
O501 Co476 1.967 . S
O501 C509 1.258 . S
O502 Co477 1.941 . S
O502 C509 1.266 . S
H503 C505 0.959 . S
H504 C505 0.961 . S
C505 C495 1.510 . S
C505 H503 0.959 . S
C505 H504 0.961 . S
C505 H506 0.960 . S
H506 C505 0.960 . S
H507 N487 0.862 . S
O508 Co476 1.920 . S
O508 C481 1.289 . S
C509 O501 1.258 . S
C509 O502 1.266 . S
Co510 O513 1.970 . S
Co510 N527 1.989 . S
Co510 O535 1.967 . S
Co510 O542 1.920 . S
Co511 O514 1.966 . S
Co511 N520 2.022 . S
Co511 N528 1.993 . S
Co511 O536 1.941 . S
C512 O513 1.258 . S
C512 O514 1.263 . S
O513 Co510 1.970 . S
O513 C512 1.258 . S
O514 Co511 1.966 . S
O514 C512 1.263 . S
C515 O516 1.235 . S
C515 O542 1.289 . S
O516 C515 1.235 . S
C517 C519 1.400 . S
C517 N520 1.351 . S
C517 C522 1.501 . S
C518 C519 1.387 . S
C518 N521 1.341 . S
C519 C517 1.400 . S
C519 C518 1.387 . S
N520 Co511 2.022 . S
N520 C517 1.351 . S
N520 N521 1.365 . S
N521 C518 1.341 . S
N521 N520 1.365 . S
N521 H541 0.862 . S
C522 C517 1.501 . S
C522 H523 0.961 . S
C522 H524 0.961 . S
C522 H525 0.960 . S
H523 C522 0.961 . S
H524 C522 0.961 . S
H525 C522 0.960 . S
C526 N527 1.342 . S
C526 C530 1.401 . S
C526 C531 1.499 . S
N527 Co510 1.989 . S
N527 C526 1.342 . S
N527 N528 1.388 . S
N528 Co511 1.993 . S
N528 N527 1.388 . S
N528 C529 1.346 . S
C529 N528 1.346 . S
C529 C530 1.396 . S
C529 C539 1.510 . S
C530 C526 1.401 . S
C530 C529 1.396 . S
C531 C526 1.499 . S
C531 H532 0.959 . S
C531 H533 0.960 . S
C531 H534 0.961 . S
H532 C531 0.959 . S
H533 C531 0.960 . S
H534 C531 0.961 . S
O535 Co510 1.967 . S
O535 C543 1.258 . S
O536 Co511 1.941 . S
O536 C543 1.266 . S
H537 C539 0.959 . S
H538 C539 0.961 . S
C539 C529 1.510 . S
C539 H537 0.959 . S
C539 H538 0.961 . S
C539 H540 0.960 . S
H540 C539 0.960 . S
H541 N521 0.862 . S
O542 Co510 1.920 . S
O542 C515 1.289 . S
C543 O535 1.258 . S
C543 O536 1.266 . S
C544 C545 1.349 . S
C544 C546 1.327 . S
C544 H569 0.950 . S
C545 C544 1.349 . S
C545 C561 1.349 . S
C546 C544 1.327 . S
C546 C565 1.429 . S
C546 H570 0.950 . S
C547 C564 1.574 . S
C547 C566 1.368 . S
C547 H571 0.949 . S
H548 C552 0.949 . S
C549 C550 1.349 . S
C549 C551 1.327 . S
C549 H572 0.950 . S
C550 C549 1.349 . S
C550 C562 1.349 . S
C551 C549 1.327 . S
C551 C567 1.429 . S
C551 H573 0.950 . S
C552 H548 0.949 . S
C552 C560 1.574 . S
C552 C568 1.368 . S
H553 C561 0.950 . S
H554 C559 0.950 . S
H555 C560 0.949 . S
H556 C562 0.950 . S
H557 C563 0.950 . S
H558 C564 0.949 . S
C559 H554 0.950 . S
C559 C561 1.327 . S
C559 C565 1.429 . S
C560 C552 1.574 . S
C560 H555 0.949 . S
C560 C566 1.368 . S
C561 C545 1.349 . S
C561 H553 0.950 . S
C561 C559 1.327 . S
C562 C550 1.349 . S
C562 H556 0.950 . S
C562 C563 1.327 . S
C563 H557 0.950 . S
C563 C562 1.327 . S
C563 C567 1.429 . S
C564 C547 1.574 . S
C564 H558 0.949 . S
C564 C568 1.368 . S
C565 C546 1.429 . S
C565 C559 1.429 . S
C565 C566 1.523 . S
C566 C547 1.368 . S
C566 C560 1.368 . S
C566 C565 1.523 . S
C567 C551 1.429 . S
C567 C563 1.429 . S
C567 C568 1.523 . S
C568 C552 1.368 . S
C568 C564 1.368 . S
C568 C567 1.523 . S
H569 C544 0.950 . S
H570 C546 0.950 . S
H571 C547 0.949 . S
H572 C549 0.950 . S
H573 C551 0.950 . S
C574 C575 1.349 . S
C574 C576 1.327 . S
C574 H599 0.950 . S
C575 C574 1.349 . S
C575 C591 1.349 . S
C576 C574 1.327 . S
C576 C595 1.429 . S
C576 H600 0.950 . S
C577 C594 1.574 . S
C577 C596 1.368 . S
C577 H601 0.949 . S
H578 C582 0.949 . S
C579 C580 1.349 . S
C579 C581 1.327 . S
C579 H602 0.950 . S
C580 C579 1.349 . S
C580 C592 1.349 . S
C581 C579 1.327 . S
C581 C597 1.429 . S
C581 H603 0.950 . S
C582 H578 0.949 . S
C582 C590 1.574 . S
C582 C598 1.368 . S
H583 C591 0.950 . S
H584 C589 0.950 . S
H585 C590 0.949 . S
H586 C592 0.950 . S
H587 C593 0.950 . S
H588 C594 0.949 . S
C589 H584 0.950 . S
C589 C591 1.327 . S
C589 C595 1.429 . S
C590 C582 1.574 . S
C590 H585 0.949 . S
C590 C596 1.368 . S
C591 C575 1.349 . S
C591 H583 0.950 . S
C591 C589 1.327 . S
C592 C580 1.349 . S
C592 H586 0.950 . S
C592 C593 1.327 . S
C593 H587 0.950 . S
C593 C592 1.327 . S
C593 C597 1.429 . S
C594 C577 1.574 . S
C594 H588 0.949 . S
C594 C598 1.368 . S
C595 C576 1.429 . S
C595 C589 1.429 . S
C595 C596 1.523 . S
C596 C577 1.368 . S
C596 C590 1.368 . S
C596 C595 1.523 . S
C597 C581 1.429 . S
C597 C593 1.429 . S
C597 C598 1.523 . S
C598 C582 1.368 . S
C598 C594 1.368 . S
C598 C597 1.523 . S
H599 C574 0.950 . S
H600 C576 0.950 . S
H601 C577 0.949 . S
H602 C579 0.950 . S
H603 C581 0.950 . S
C604 C605 1.349 . S
C604 C606 1.327 . S
C604 H629 0.950 . S
C605 C604 1.349 . S
C605 C621 1.349 . S
C606 C604 1.327 . S
C606 C625 1.429 . S
C606 H630 0.950 . S
C607 C624 1.574 . S
C607 C626 1.368 . S
C607 H631 0.949 . S
H608 C612 0.949 . S
C609 C610 1.349 . S
C609 C611 1.327 . S
C609 H632 0.950 . S
C610 C609 1.349 . S
C610 C622 1.349 . S
C611 C609 1.327 . S
C611 C627 1.429 . S
C611 H633 0.950 . S
C612 H608 0.949 . S
C612 C620 1.574 . S
C612 C628 1.368 . S
H613 C621 0.950 . S
H614 C619 0.950 . S
H615 C620 0.949 . S
H616 C622 0.950 . S
H617 C623 0.950 . S
H618 C624 0.949 . S
C619 H614 0.950 . S
C619 C621 1.327 . S
C619 C625 1.429 . S
C620 C612 1.574 . S
C620 H615 0.949 . S
C620 C626 1.368 . S
C621 C605 1.349 . S
C621 H613 0.950 . S
C621 C619 1.327 . S
C622 C610 1.349 . S
C622 H616 0.950 . S
C622 C623 1.327 . S
C623 H617 0.950 . S
C623 C622 1.327 . S
C623 C627 1.429 . S
C624 C607 1.574 . S
C624 H618 0.949 . S
C624 C628 1.368 . S
C625 C606 1.429 . S
C625 C619 1.429 . S
C625 C626 1.523 . S
C626 C607 1.368 . S
C626 C620 1.368 . S
C626 C625 1.523 . S
C627 C611 1.429 . S
C627 C623 1.429 . S
C627 C628 1.523 . S
C628 C612 1.368 . S
C628 C624 1.368 . S
C628 C627 1.523 . S
H629 C604 0.950 . S
H630 C606 0.950 . S
H631 C607 0.949 . S
H632 C609 0.950 . S
H633 C611 0.950 . S
C634 C635 1.349 . S
C634 C636 1.327 . S
C634 H659 0.950 . S
C635 C634 1.349 . S
C635 C651 1.349 . S
C636 C634 1.327 . S
C636 C655 1.429 . S
C636 H660 0.950 . S
C637 C654 1.574 . S
C637 C656 1.368 . S
C637 H661 0.949 . S
H638 C642 0.949 . S
C639 C640 1.349 . S
C639 C641 1.327 . S
C639 H662 0.950 . S
C640 C639 1.349 . S
C640 C652 1.349 . S
C641 C639 1.327 . S
C641 C657 1.429 . S
C641 H663 0.950 . S
C642 H638 0.949 . S
C642 C650 1.574 . S
C642 C658 1.368 . S
H643 C651 0.950 . S
H644 C649 0.950 . S
H645 C650 0.949 . S
H646 C652 0.950 . S
H647 C653 0.950 . S
H648 C654 0.949 . S
C649 H644 0.950 . S
C649 C651 1.327 . S
C649 C655 1.429 . S
C650 C642 1.574 . S
C650 H645 0.949 . S
C650 C656 1.368 . S
C651 C635 1.349 . S
C651 H643 0.950 . S
C651 C649 1.327 . S
C652 C640 1.349 . S
C652 H646 0.950 . S
C652 C653 1.327 . S
C653 H647 0.950 . S
C653 C652 1.327 . S
C653 C657 1.429 . S
C654 C637 1.574 . S
C654 H648 0.949 . S
C654 C658 1.368 . S
C655 C636 1.429 . S
C655 C649 1.429 . S
C655 C656 1.523 . S
C656 C637 1.368 . S
C656 C650 1.368 . S
C656 C655 1.523 . S
C657 C641 1.429 . S
C657 C653 1.429 . S
C657 C658 1.523 . S
C658 C642 1.368 . S
C658 C654 1.368 . S
C658 C657 1.523 . S
H659 C634 0.950 . S
H660 C636 0.950 . S
H661 C637 0.949 . S
H662 C639 0.950 . S
H663 C641 0.950 . S
C664 C665 1.349 . S
C664 C666 1.327 1_554 S
C664 H689 0.950 . S
C665 C664 1.349 . S
C665 C681 1.349 1_554 S
C666 C664 1.327 1_556 S
C666 C685 1.429 . S
C666 H690 0.950 . S
C667 C684 1.574 . S
C667 C686 1.368 . S
C667 H691 0.949 . S
H668 C672 0.949 . S
C669 C670 1.349 . S
C669 C671 1.327 . S
C669 H692 0.950 . S
C670 C669 1.349 . S
C670 C682 1.349 . S
C671 C669 1.327 . S
C671 C687 1.429 . S
C671 H693 0.950 . S
C672 H668 0.949 . S
C672 C680 1.574 . S
C672 C688 1.368 . S
H673 C681 0.950 . S
H674 C679 0.950 . S
H675 C680 0.949 . S
H676 C682 0.950 . S
H677 C683 0.950 . S
H678 C684 0.949 . S
C679 H674 0.950 . S
C679 C681 1.327 . S
C679 C685 1.429 . S
C680 C672 1.574 . S
C680 H675 0.949 . S
C680 C686 1.368 . S
C681 C665 1.349 1_556 S
C681 H673 0.950 . S
C681 C679 1.327 . S
C682 C670 1.349 . S
C682 H676 0.950 . S
C682 C683 1.327 . S
C683 H677 0.950 . S
C683 C682 1.327 . S
C683 C687 1.429 . S
C684 C667 1.574 . S
C684 H678 0.949 . S
C684 C688 1.368 . S
C685 C666 1.429 . S
C685 C679 1.429 . S
C685 C686 1.523 . S
C686 C667 1.368 . S
C686 C680 1.368 . S
C686 C685 1.523 . S
C687 C671 1.429 . S
C687 C683 1.429 . S
C687 C688 1.523 . S
C688 C672 1.368 . S
C688 C684 1.368 . S
C688 C687 1.523 . S
H689 C664 0.950 . S
H690 C666 0.950 . S
H691 C667 0.949 . S
H692 C669 0.950 . S
H693 C671 0.950 . S
C694 C695 1.349 . S
C694 C696 1.327 . S
C694 H719 0.950 . S
C695 C694 1.349 . S
C695 C711 1.349 . S
C696 C694 1.327 . S
C696 C715 1.429 . S
C696 H720 0.950 . S
C697 C714 1.574 . S
C697 C716 1.368 . S
C697 H721 0.949 . S
H698 C702 0.949 . S
C699 C700 1.349 . S
C699 C701 1.327 1_556 S
C699 H722 0.950 . S
C700 C699 1.349 . S
C700 C712 1.349 1_556 S
C701 C699 1.327 1_554 S
C701 C717 1.429 . S
C701 H723 0.950 1_554 S
C702 H698 0.949 . S
C702 C710 1.574 . S
C702 C718 1.368 . S
H703 C711 0.950 . S
H704 C709 0.950 . S
H705 C710 0.949 . S
H706 C712 0.950 . S
H707 C713 0.950 . S
H708 C714 0.949 . S
C709 H704 0.950 . S
C709 C711 1.327 . S
C709 C715 1.429 . S
C710 C702 1.574 . S
C710 H705 0.949 . S
C710 C716 1.368 . S
C711 C695 1.349 . S
C711 H703 0.950 . S
C711 C709 1.327 . S
C712 C700 1.349 1_554 S
C712 H706 0.950 . S
C712 C713 1.327 . S
C713 H707 0.950 . S
C713 C712 1.327 . S
C713 C717 1.429 . S
C714 C697 1.574 . S
C714 H708 0.949 . S
C714 C718 1.368 . S
C715 C696 1.429 . S
C715 C709 1.429 . S
C715 C716 1.523 . S
C716 C697 1.368 . S
C716 C710 1.368 . S
C716 C715 1.523 . S
C717 C701 1.429 . S
C717 C713 1.429 . S
C717 C718 1.523 . S
C718 C702 1.368 . S
C718 C714 1.368 . S
C718 C717 1.523 . S
H719 C694 0.950 . S
H720 C696 0.950 . S
H721 C697 0.949 . S
H722 C699 0.950 . S
H723 C701 0.950 1_556 S
C724 C725 1.349 . S
C724 C726 1.327 1_554 S
C724 H749 0.950 . S
C725 C724 1.349 . S
C725 C741 1.349 1_554 S
C726 C724 1.327 1_556 S
C726 C745 1.429 . S
C726 H750 0.950 . S
C727 C744 1.574 . S
C727 C746 1.368 . S
C727 H751 0.949 . S
H728 C732 0.949 . S
C729 C730 1.349 . S
C729 C731 1.327 . S
C729 H752 0.950 . S
C730 C729 1.349 . S
C730 C742 1.349 . S
C731 C729 1.327 . S
C731 C747 1.429 . S
C731 H753 0.950 . S
C732 H728 0.949 . S
C732 C740 1.574 . S
C732 C748 1.368 . S
H733 C741 0.950 . S
H734 C739 0.950 . S
H735 C740 0.949 . S
H736 C742 0.950 . S
H737 C743 0.950 . S
H738 C744 0.949 . S
C739 H734 0.950 . S
C739 C741 1.327 . S
C739 C745 1.429 . S
C740 C732 1.574 . S
C740 H735 0.949 . S
C740 C746 1.368 . S
C741 C725 1.349 1_556 S
C741 H733 0.950 . S
C741 C739 1.327 . S
C742 C730 1.349 . S
C742 H736 0.950 . S
C742 C743 1.327 . S
C743 H737 0.950 . S
C743 C742 1.327 . S
C743 C747 1.429 . S
C744 C727 1.574 . S
C744 H738 0.949 . S
C744 C748 1.368 . S
C745 C726 1.429 . S
C745 C739 1.429 . S
C745 C746 1.523 . S
C746 C727 1.368 . S
C746 C740 1.368 . S
C746 C745 1.523 . S
C747 C731 1.429 . S
C747 C743 1.429 . S
C747 C748 1.523 . S
C748 C732 1.368 . S
C748 C744 1.368 . S
C748 C747 1.523 . S
H749 C724 0.950 . S
H750 C726 0.950 . S
H751 C727 0.949 . S
H752 C729 0.950 . S
H753 C731 0.950 . S
C754 C755 1.349 . S
C754 C756 1.327 . S
C754 H779 0.950 . S
C755 C754 1.349 . S
C755 C771 1.349 . S
C756 C754 1.327 . S
C756 C775 1.429 . S
C756 H780 0.950 . S
C757 C774 1.574 . S
C757 C776 1.368 . S
C757 H781 0.949 . S
H758 C762 0.949 . S
C759 C760 1.349 . S
C759 C761 1.327 1_556 S
C759 H782 0.950 . S
C760 C759 1.349 . S
C760 C772 1.349 1_556 S
C761 C759 1.327 1_554 S
C761 C777 1.429 . S
C761 H783 0.950 1_554 S
C762 H758 0.949 . S
C762 C770 1.574 . S
C762 C778 1.368 . S
H763 C771 0.950 . S
H764 C769 0.950 . S
H765 C770 0.949 . S
H766 C772 0.950 . S
H767 C773 0.950 . S
H768 C774 0.949 . S
C769 H764 0.950 . S
C769 C771 1.327 . S
C769 C775 1.429 . S
C770 C762 1.574 . S
C770 H765 0.949 . S
C770 C776 1.368 . S
C771 C755 1.349 . S
C771 H763 0.950 . S
C771 C769 1.327 . S
C772 C760 1.349 1_554 S
C772 H766 0.950 . S
C772 C773 1.327 . S
C773 H767 0.950 . S
C773 C772 1.327 . S
C773 C777 1.429 . S
C774 C757 1.574 . S
C774 H768 0.949 . S
C774 C778 1.368 . S
C775 C756 1.429 . S
C775 C769 1.429 . S
C775 C776 1.523 . S
C776 C757 1.368 . S
C776 C770 1.368 . S
C776 C775 1.523 . S
C777 C761 1.429 . S
C777 C773 1.429 . S
C777 C778 1.523 . S
C778 C762 1.368 . S
C778 C774 1.368 . S
C778 C777 1.523 . S
H779 C754 0.950 . S
H780 C756 0.950 . S
H781 C757 0.949 . S
H782 C759 0.950 . S
H783 C761 0.950 1_556 S
C784 C785 1.349 . S
C784 C786 1.327 . S
C784 H809 0.950 . S
C785 C784 1.349 . S
C785 C801 1.349 . S
C786 C784 1.327 . S
C786 C805 1.429 . S
C786 H810 0.950 . S
C787 C804 1.574 . S
C787 C806 1.368 . S
C787 H811 0.949 . S
H788 C792 0.949 . S
C789 C790 1.349 . S
C789 C791 1.327 . S
C789 H812 0.950 . S
C790 C789 1.349 . S
C790 C802 1.349 . S
C791 C789 1.327 . S
C791 C807 1.429 . S
C791 H813 0.950 . S
C792 H788 0.949 . S
C792 C800 1.574 . S
C792 C808 1.368 . S
H793 C801 0.950 . S
H794 C799 0.950 . S
H795 C800 0.949 . S
H796 C802 0.950 . S
H797 C803 0.950 . S
H798 C804 0.949 . S
C799 H794 0.950 . S
C799 C801 1.327 . S
C799 C805 1.429 . S
C800 C792 1.574 . S
C800 H795 0.949 . S
C800 C806 1.368 . S
C801 C785 1.349 . S
C801 H793 0.950 . S
C801 C799 1.327 . S
C802 C790 1.349 . S
C802 H796 0.950 . S
C802 C803 1.327 . S
C803 H797 0.950 . S
C803 C802 1.327 . S
C803 C807 1.429 . S
C804 C787 1.574 . S
C804 H798 0.949 . S
C804 C808 1.368 . S
C805 C786 1.429 . S
C805 C799 1.429 . S
C805 C806 1.523 . S
C806 C787 1.368 . S
C806 C800 1.368 . S
C806 C805 1.523 . S
C807 C791 1.429 . S
C807 C803 1.429 . S
C807 C808 1.523 . S
C808 C792 1.368 . S
C808 C804 1.368 . S
C808 C807 1.523 . S
H809 C784 0.950 . S
H810 C786 0.950 . S
H811 C787 0.949 . S
H812 C789 0.950 . S
H813 C791 0.950 . S
C814 C815 1.349 . S
C814 C816 1.327 . S
C814 H839 0.950 . S
C815 C814 1.349 . S
C815 C831 1.349 . S
C816 C814 1.327 . S
C816 C835 1.429 . S
C816 H840 0.950 . S
C817 C834 1.574 . S
C817 C836 1.368 . S
C817 H841 0.949 . S
H818 C822 0.949 . S
C819 C820 1.349 . S
C819 C821 1.327 . S
C819 H842 0.950 . S
C820 C819 1.349 . S
C820 C832 1.349 . S
C821 C819 1.327 . S
C821 C837 1.429 . S
C821 H843 0.950 . S
C822 H818 0.949 . S
C822 C830 1.574 . S
C822 C838 1.368 . S
H823 C831 0.950 . S
H824 C829 0.950 . S
H825 C830 0.949 . S
H826 C832 0.950 . S
H827 C833 0.950 . S
H828 C834 0.949 . S
C829 H824 0.950 . S
C829 C831 1.327 . S
C829 C835 1.429 . S
C830 C822 1.574 . S
C830 H825 0.949 . S
C830 C836 1.368 . S
C831 C815 1.349 . S
C831 H823 0.950 . S
C831 C829 1.327 . S
C832 C820 1.349 . S
C832 H826 0.950 . S
C832 C833 1.327 . S
C833 H827 0.950 . S
C833 C832 1.327 . S
C833 C837 1.429 . S
C834 C817 1.574 . S
C834 H828 0.949 . S
C834 C838 1.368 . S
C835 C816 1.429 . S
C835 C829 1.429 . S
C835 C836 1.523 . S
C836 C817 1.368 . S
C836 C830 1.368 . S
C836 C835 1.523 . S
C837 C821 1.429 . S
C837 C833 1.429 . S
C837 C838 1.523 . S
C838 C822 1.368 . S
C838 C834 1.368 . S
C838 C837 1.523 . S
H839 C814 0.950 . S
H840 C816 0.950 . S
H841 C817 0.949 . S
H842 C819 0.950 . S
H843 C821 0.950 . S
C844 C845 1.349 . S
C844 C846 1.327 . S
C844 H869 0.950 . S
C845 C844 1.349 . S
C845 C861 1.349 . S
C846 C844 1.327 . S
C846 C865 1.429 . S
C846 H870 0.950 . S
C847 C864 1.574 . S
C847 C866 1.368 . S
C847 H871 0.949 . S
H848 C852 0.949 . S
C849 C850 1.349 . S
C849 C851 1.327 . S
C849 H872 0.950 . S
C850 C849 1.349 . S
C850 C862 1.349 . S
C851 C849 1.327 . S
C851 C867 1.429 . S
C851 H873 0.950 . S
C852 H848 0.949 . S
C852 C860 1.574 . S
C852 C868 1.368 . S
H853 C861 0.950 . S
H854 C859 0.950 . S
H855 C860 0.949 . S
H856 C862 0.950 . S
H857 C863 0.950 . S
H858 C864 0.949 . S
C859 H854 0.950 . S
C859 C861 1.327 . S
C859 C865 1.429 . S
C860 C852 1.574 . S
C860 H855 0.949 . S
C860 C866 1.368 . S
C861 C845 1.349 . S
C861 H853 0.950 . S
C861 C859 1.327 . S
C862 C850 1.349 . S
C862 H856 0.950 . S
C862 C863 1.327 . S
C863 H857 0.950 . S
C863 C862 1.327 . S
C863 C867 1.429 . S
C864 C847 1.574 . S
C864 H858 0.949 . S
C864 C868 1.368 . S
C865 C846 1.429 . S
C865 C859 1.429 . S
C865 C866 1.523 . S
C866 C847 1.368 . S
C866 C860 1.368 . S
C866 C865 1.523 . S
C867 C851 1.429 . S
C867 C863 1.429 . S
C867 C868 1.523 . S
C868 C852 1.368 . S
C868 C864 1.368 . S
C868 C867 1.523 . S
H869 C844 0.950 . S
H870 C846 0.950 . S
H871 C847 0.949 . S
H872 C849 0.950 . S
H873 C851 0.950 . S
C874 C875 1.349 . S
C874 C876 1.327 . S
C874 H899 0.950 . S
C875 C874 1.349 . S
C875 C891 1.349 . S
C876 C874 1.327 . S
C876 C895 1.429 . S
C876 H900 0.950 . S
C877 C894 1.574 . S
C877 C896 1.368 . S
C877 H901 0.949 . S
H878 C882 0.949 . S
C879 C880 1.349 . S
C879 C881 1.327 . S
C879 H902 0.950 . S
C880 C879 1.349 . S
C880 C892 1.349 . S
C881 C879 1.327 . S
C881 C897 1.429 . S
C881 H903 0.950 . S
C882 H878 0.949 . S
C882 C890 1.574 . S
C882 C898 1.368 . S
H883 C891 0.950 . S
H884 C889 0.950 . S
H885 C890 0.949 . S
H886 C892 0.950 . S
H887 C893 0.950 . S
H888 C894 0.949 . S
C889 H884 0.950 . S
C889 C891 1.327 . S
C889 C895 1.429 . S
C890 C882 1.574 . S
C890 H885 0.949 . S
C890 C896 1.368 . S
C891 C875 1.349 . S
C891 H883 0.950 . S
C891 C889 1.327 . S
C892 C880 1.349 . S
C892 H886 0.950 . S
C892 C893 1.327 . S
C893 H887 0.950 . S
C893 C892 1.327 . S
C893 C897 1.429 . S
C894 C877 1.574 . S
C894 H888 0.949 . S
C894 C898 1.368 . S
C895 C876 1.429 . S
C895 C889 1.429 . S
C895 C896 1.523 . S
C896 C877 1.368 . S
C896 C890 1.368 . S
C896 C895 1.523 . S
C897 C881 1.429 . S
C897 C893 1.429 . S
C897 C898 1.523 . S
C898 C882 1.368 . S
C898 C894 1.368 . S
C898 C897 1.523 . S
H899 C874 0.950 . S
H900 C876 0.950 . S
H901 C877 0.949 . S
H902 C879 0.950 . S
H903 C881 0.950 . S
C904 C905 1.349 . S
C904 C906 1.327 . S
C904 H929 0.950 . S
C905 C904 1.349 . S
C905 C921 1.349 . S
C906 C904 1.327 . S
C906 C925 1.429 . S
C906 H930 0.950 . S
C907 C924 1.574 . S
C907 C926 1.368 . S
C907 H931 0.949 . S
H908 C912 0.949 . S
C909 C910 1.349 . S
C909 C911 1.327 . S
C909 H932 0.950 . S
C910 C909 1.349 . S
C910 C922 1.349 . S
C911 C909 1.327 . S
C911 C927 1.429 . S
C911 H933 0.950 . S
C912 H908 0.949 . S
C912 C920 1.574 . S
C912 C928 1.368 . S
H913 C921 0.950 . S
H914 C919 0.950 . S
H915 C920 0.949 . S
H916 C922 0.950 . S
H917 C923 0.950 . S
H918 C924 0.949 . S
C919 H914 0.950 . S
C919 C921 1.327 . S
C919 C925 1.429 . S
C920 C912 1.574 . S
C920 H915 0.949 . S
C920 C926 1.368 . S
C921 C905 1.349 . S
C921 H913 0.950 . S
C921 C919 1.327 . S
C922 C910 1.349 . S
C922 H916 0.950 . S
C922 C923 1.327 . S
C923 H917 0.950 . S
C923 C922 1.327 . S
C923 C927 1.429 . S
C924 C907 1.574 . S
C924 H918 0.949 . S
C924 C928 1.368 . S
C925 C906 1.429 . S
C925 C919 1.429 . S
C925 C926 1.523 . S
C926 C907 1.368 . S
C926 C920 1.368 . S
C926 C925 1.523 . S
C927 C911 1.429 . S
C927 C923 1.429 . S
C927 C928 1.523 . S
C928 C912 1.368 . S
C928 C924 1.368 . S
C928 C927 1.523 . S
H929 C904 0.950 . S
H930 C906 0.950 . S
H931 C907 0.949 . S
H932 C909 0.950 . S
H933 C911 0.950 . S
C934 C935 1.349 . S
C934 C936 1.327 . S
C934 H959 0.950 . S
C935 C934 1.349 . S
C935 C951 1.349 . S
C936 C934 1.327 . S
C936 C955 1.429 . S
C936 H960 0.950 . S
C937 C954 1.574 . S
C937 C956 1.368 . S
C937 H961 0.949 . S
H938 C942 0.949 . S
C939 C940 1.349 . S
C939 C941 1.327 . S
C939 H962 0.950 . S
C940 C939 1.349 . S
C940 C952 1.349 . S
C941 C939 1.327 . S
C941 C957 1.429 . S
C941 H963 0.950 . S
C942 H938 0.949 . S
C942 C950 1.574 . S
C942 C958 1.368 . S
H943 C951 0.950 . S
H944 C949 0.950 . S
H945 C950 0.949 . S
H946 C952 0.950 . S
H947 C953 0.950 . S
H948 C954 0.949 . S
C949 H944 0.950 . S
C949 C951 1.327 . S
C949 C955 1.429 . S
C950 C942 1.574 . S
C950 H945 0.949 . S
C950 C956 1.368 . S
C951 C935 1.349 . S
C951 H943 0.950 . S
C951 C949 1.327 . S
C952 C940 1.349 . S
C952 H946 0.950 . S
C952 C953 1.327 . S
C953 H947 0.950 . S
C953 C952 1.327 . S
C953 C957 1.429 . S
C954 C937 1.574 . S
C954 H948 0.949 . S
C954 C958 1.368 . S
C955 C936 1.429 . S
C955 C949 1.429 . S
C955 C956 1.523 . S
C956 C937 1.368 . S
C956 C950 1.368 . S
C956 C955 1.523 . S
C957 C941 1.429 . S
C957 C953 1.429 . S
C957 C958 1.523 . S
C958 C942 1.368 . S
C958 C954 1.368 . S
C958 C957 1.523 . S
H959 C934 0.950 . S
H960 C936 0.950 . S
H961 C937 0.949 . S
H962 C939 0.950 . S
H963 C941 0.950 . S
C964 C965 1.349 . S
C964 C966 1.327 . S
C964 H989 0.950 . S
C965 C964 1.349 . S
C965 C981 1.349 . S
C966 C964 1.327 . S
C966 C985 1.429 . S
C966 H990 0.950 . S
C967 C984 1.574 . S
C967 C986 1.368 . S
C967 H991 0.949 . S
H968 C972 0.949 . S
C969 C970 1.349 . S
C969 C971 1.327 . S
C969 H992 0.950 . S
C970 C969 1.349 . S
C970 C982 1.349 . S
C971 C969 1.327 . S
C971 C987 1.429 . S
C971 H993 0.950 . S
C972 H968 0.949 . S
C972 C980 1.574 . S
C972 C988 1.368 . S
H973 C981 0.950 . S
H974 C979 0.950 . S
H975 C980 0.949 . S
H976 C982 0.950 . S
H977 C983 0.950 . S
H978 C984 0.949 . S
C979 H974 0.950 . S
C979 C981 1.327 . S
C979 C985 1.429 . S
C980 C972 1.574 . S
C980 H975 0.949 . S
C980 C986 1.368 . S
C981 C965 1.349 . S
C981 H973 0.950 . S
C981 C979 1.327 . S
C982 C970 1.349 . S
C982 H976 0.950 . S
C982 C983 1.327 . S
C983 H977 0.950 . S
C983 C982 1.327 . S
C983 C987 1.429 . S
C984 C967 1.574 . S
C984 H978 0.949 . S
C984 C988 1.368 . S
C985 C966 1.429 . S
C985 C979 1.429 . S
C985 C986 1.523 . S
C986 C967 1.368 . S
C986 C980 1.368 . S
C986 C985 1.523 . S
C987 C971 1.429 . S
C987 C983 1.429 . S
C987 C988 1.523 . S
C988 C972 1.368 . S
C988 C984 1.368 . S
C988 C987 1.523 . S
H989 C964 0.950 . S
H990 C966 0.950 . S
H991 C967 0.949 . S
H992 C969 0.950 . S
H993 C971 0.950 . S
C994 C995 1.349 . S
C994 C996 1.327 . S
C994 H1019 0.950 . S
C995 C994 1.349 . S
C995 C1011 1.349 . S
C996 C994 1.327 . S
C996 C1015 1.429 . S
C996 H1020 0.950 . S
C997 C1014 1.574 . S
C997 C1016 1.368 . S
C997 H1021 0.949 . S
H998 C1002 0.949 . S
C999 C1000 1.349 . S
C999 C1001 1.327 . S
C999 H1022 0.950 . S
C1000 C999 1.349 . S
C1000 C1012 1.349 . S
C1001 C999 1.327 . S
C1001 C1017 1.429 . S
C1001 H1023 0.950 . S
C1002 H998 0.949 . S
C1002 C1010 1.574 . S
C1002 C1018 1.368 . S
H1003 C1011 0.950 . S
H1004 C1009 0.950 . S
H1005 C1010 0.949 . S
H1006 C1012 0.950 . S
H1007 C1013 0.950 . S
H1008 C1014 0.949 . S
C1009 H1004 0.950 . S
C1009 C1011 1.327 . S
C1009 C1015 1.429 . S
C1010 C1002 1.574 . S
C1010 H1005 0.949 . S
C1010 C1016 1.368 . S
C1011 C995 1.349 . S
C1011 H1003 0.950 . S
C1011 C1009 1.327 . S
C1012 C1000 1.349 . S
C1012 H1006 0.950 . S
C1012 C1013 1.327 . S
C1013 H1007 0.950 . S
C1013 C1012 1.327 . S
C1013 C1017 1.429 . S
C1014 C997 1.574 . S
C1014 H1008 0.949 . S
C1014 C1018 1.368 . S
C1015 C996 1.429 . S
C1015 C1009 1.429 . S
C1015 C1016 1.523 . S
C1016 C997 1.368 . S
C1016 C1010 1.368 . S
C1016 C1015 1.523 . S
C1017 C1001 1.429 . S
C1017 C1013 1.429 . S
C1017 C1018 1.523 . S
C1018 C1002 1.368 . S
C1018 C1014 1.368 . S
C1018 C1017 1.523 . S
H1019 C994 0.950 . S
H1020 C996 0.950 . S
H1021 C997 0.949 . S
H1022 C999 0.950 . S
H1023 C1001 0.950 . S
C1024 C1025 1.349 . S
C1024 C1026 1.327 1_554 S
C1024 H1049 0.950 . S
C1025 C1024 1.349 . S
C1025 C1041 1.349 1_554 S
C1026 C1024 1.327 1_556 S
C1026 C1045 1.429 . S
C1026 H1050 0.950 . S
C1027 C1044 1.574 . S
C1027 C1046 1.368 . S
C1027 H1051 0.949 . S
H1028 C1032 0.949 . S
C1029 C1030 1.349 . S
C1029 C1031 1.327 . S
C1029 H1052 0.950 . S
C1030 C1029 1.349 . S
C1030 C1042 1.349 . S
C1031 C1029 1.327 . S
C1031 C1047 1.429 . S
C1031 H1053 0.950 . S
C1032 H1028 0.949 . S
C1032 C1040 1.574 . S
C1032 C1048 1.368 . S
H1033 C1041 0.950 . S
H1034 C1039 0.950 . S
H1035 C1040 0.949 . S
H1036 C1042 0.950 . S
H1037 C1043 0.950 . S
H1038 C1044 0.949 . S
C1039 H1034 0.950 . S
C1039 C1041 1.327 . S
C1039 C1045 1.429 . S
C1040 C1032 1.574 . S
C1040 H1035 0.949 . S
C1040 C1046 1.368 . S
C1041 C1025 1.349 1_556 S
C1041 H1033 0.950 . S
C1041 C1039 1.327 . S
C1042 C1030 1.349 . S
C1042 H1036 0.950 . S
C1042 C1043 1.327 . S
C1043 H1037 0.950 . S
C1043 C1042 1.327 . S
C1043 C1047 1.429 . S
C1044 C1027 1.574 . S
C1044 H1038 0.949 . S
C1044 C1048 1.368 . S
C1045 C1026 1.429 . S
C1045 C1039 1.429 . S
C1045 C1046 1.523 . S
C1046 C1027 1.368 . S
C1046 C1040 1.368 . S
C1046 C1045 1.523 . S
C1047 C1031 1.429 . S
C1047 C1043 1.429 . S
C1047 C1048 1.523 . S
C1048 C1032 1.368 . S
C1048 C1044 1.368 . S
C1048 C1047 1.523 . S
H1049 C1024 0.950 . S
H1050 C1026 0.950 . S
H1051 C1027 0.949 . S
H1052 C1029 0.950 . S
H1053 C1031 0.950 . S
C1054 C1055 1.349 . S
C1054 C1056 1.327 . S
C1054 H1079 0.950 . S
C1055 C1054 1.349 . S
C1055 C1071 1.349 . S
C1056 C1054 1.327 . S
C1056 C1075 1.429 . S
C1056 H1080 0.950 . S
C1057 C1074 1.574 . S
C1057 C1076 1.368 . S
C1057 H1081 0.949 . S
H1058 C1062 0.949 . S
C1059 C1060 1.349 1_554 S
C1059 C1061 1.327 . S
C1059 H1082 0.950 . S
C1060 C1059 1.349 1_556 S
C1060 C1072 1.349 . S
C1061 C1059 1.327 . S
C1061 C1077 1.429 . S
C1061 H1083 0.950 . S
C1062 H1058 0.949 . S
C1062 C1070 1.574 . S
C1062 C1078 1.368 . S
H1063 C1071 0.950 . S
H1064 C1069 0.950 . S
H1065 C1070 0.949 . S
H1066 C1072 0.950 . S
H1067 C1073 0.944 1_556 S
H1068 C1074 0.949 . S
C1069 H1064 0.950 . S
C1069 C1071 1.327 . S
C1069 C1075 1.429 . S
C1070 C1062 1.574 . S
C1070 H1065 0.949 . S
C1070 C1076 1.368 . S
C1071 C1055 1.349 . S
C1071 H1063 0.950 . S
C1071 C1069 1.327 . S
C1072 C1060 1.349 . S
C1072 H1066 0.950 . S
C1072 C1073 1.312 1_556 S
C1073 H1067 0.944 1_554 S
C1073 C1072 1.312 1_554 S
C1073 C1077 1.449 . S
C1074 C1057 1.574 . S
C1074 H1068 0.949 . S
C1074 C1078 1.368 . S
C1075 C1056 1.429 . S
C1075 C1069 1.429 . S
C1075 C1076 1.523 . S
C1076 C1057 1.368 . S
C1076 C1070 1.368 . S
C1076 C1075 1.523 . S
C1077 C1061 1.429 . S
C1077 C1073 1.449 . S
C1077 C1078 1.523 . S
C1078 C1062 1.368 . S
C1078 C1074 1.368 . S
C1078 C1077 1.523 . S
H1079 C1054 0.950 . S
H1080 C1056 0.950 . S
H1081 C1057 0.949 . S
H1082 C1059 0.950 . S
H1083 C1061 0.950 . S
C1084 C1085 1.349 . S
C1084 C1086 1.327 1_554 S
C1084 H1109 0.950 . S
C1085 C1084 1.349 . S
C1085 C1101 1.349 1_554 S
C1086 C1084 1.327 1_556 S
C1086 C1105 1.429 . S
C1086 H1110 0.950 . S
C1087 C1104 1.574 . S
C1087 C1106 1.368 . S
C1087 H1111 0.949 . S
H1088 C1092 0.949 . S
C1089 C1090 1.349 . S
C1089 C1091 1.327 . S
C1089 H1112 0.950 . S
C1090 C1089 1.349 . S
C1090 C1102 1.349 . S
C1091 C1089 1.327 . S
C1091 C1107 1.429 . S
C1091 H1113 0.950 . S
C1092 H1088 0.949 . S
C1092 C1100 1.574 . S
C1092 C1108 1.368 . S
H1093 C1101 0.950 . S
H1094 C1099 0.950 . S
H1095 C1100 0.949 . S
H1096 C1102 0.950 . S
H1097 C1103 0.950 . S
H1098 C1104 0.949 . S
C1099 H1094 0.950 . S
C1099 C1101 1.327 . S
C1099 C1105 1.429 . S
C1100 C1092 1.574 . S
C1100 H1095 0.949 . S
C1100 C1106 1.368 . S
C1101 C1085 1.349 1_556 S
C1101 H1093 0.950 . S
C1101 C1099 1.327 . S
C1102 C1090 1.349 . S
C1102 H1096 0.950 . S
C1102 C1103 1.327 . S
C1103 H1097 0.950 . S
C1103 C1102 1.327 . S
C1103 C1107 1.429 . S
C1104 C1087 1.574 . S
C1104 H1098 0.949 . S
C1104 C1108 1.368 . S
C1105 C1086 1.429 . S
C1105 C1099 1.429 . S
C1105 C1106 1.523 . S
C1106 C1087 1.368 . S
C1106 C1100 1.368 . S
C1106 C1105 1.523 . S
C1107 C1091 1.429 . S
C1107 C1103 1.429 . S
C1107 C1108 1.523 . S
C1108 C1092 1.368 . S
C1108 C1104 1.368 . S
C1108 C1107 1.523 . S
H1109 C1084 0.950 . S
H1110 C1086 0.950 . S
H1111 C1087 0.949 . S
H1112 C1089 0.950 . S
H1113 C1091 0.950 . S
C1114 C1115 1.349 . S
C1114 C1116 1.327 . S
C1114 H1139 0.950 . S
C1115 C1114 1.349 . S
C1115 C1131 1.349 . S
C1116 C1114 1.327 . S
C1116 C1135 1.429 . S
C1116 H1140 0.950 . S
C1117 C1134 1.574 . S
C1117 C1136 1.368 . S
C1117 H1141 0.949 . S
H1118 C1122 0.949 . S
C1119 C1120 1.349 . S
C1119 C1121 1.327 . S
C1119 H1142 0.950 . S
C1120 C1119 1.349 . S
C1120 C1132 1.349 1_556 S
C1121 C1119 1.327 . S
C1121 C1137 1.429 1_556 S
C1121 H1143 0.950 . S
C1122 H1118 0.949 . S
C1122 C1130 1.574 . S
C1122 C1138 1.368 . S
H1123 C1131 0.950 . S
H1124 C1129 0.950 . S
H1125 C1130 0.949 . S
H1126 C1132 0.950 . S
H1127 C1133 0.950 . S
H1128 C1134 0.949 . S
C1129 H1124 0.950 . S
C1129 C1131 1.327 . S
C1129 C1135 1.429 . S
C1130 C1122 1.574 . S
C1130 H1125 0.949 . S
C1130 C1136 1.368 . S
C1131 C1115 1.349 . S
C1131 H1123 0.950 . S
C1131 C1129 1.327 . S
C1132 C1120 1.349 1_554 S
C1132 H1126 0.950 . S
C1132 C1133 1.327 . S
C1133 H1127 0.950 . S
C1133 C1132 1.327 . S
C1133 C1137 1.429 . S
C1134 C1117 1.574 . S
C1134 H1128 0.949 . S
C1134 C1138 1.368 . S
C1135 C1116 1.429 . S
C1135 C1129 1.429 . S
C1135 C1136 1.523 . S
C1136 C1117 1.368 . S
C1136 C1130 1.368 . S
C1136 C1135 1.523 . S
C1137 C1121 1.429 1_554 S
C1137 C1133 1.429 . S
C1137 C1138 1.523 . S
C1138 C1122 1.368 . S
C1138 C1134 1.368 . S
C1138 C1137 1.523 . S
H1139 C1114 0.950 . S
H1140 C1116 0.950 . S
H1141 C1117 0.949 . S
H1142 C1119 0.950 . S
H1143 C1121 0.950 . S
C1144 C1145 1.349 . S
C1144 C1146 1.327 . S
C1144 H1169 0.950 . S
C1145 C1144 1.349 . S
C1145 C1161 1.349 . S
C1146 C1144 1.327 . S
C1146 C1165 1.429 . S
C1146 H1170 0.950 . S
C1147 C1164 1.574 . S
C1147 C1166 1.368 . S
C1147 H1171 0.949 . S
H1148 C1152 0.949 . S
C1149 C1150 1.349 . S
C1149 C1151 1.327 . S
C1149 H1172 0.950 . S
C1150 C1149 1.349 . S
C1150 C1162 1.349 . S
C1151 C1149 1.327 . S
C1151 C1167 1.429 . S
C1151 H1173 0.950 . S
C1152 H1148 0.949 . S
C1152 C1160 1.574 . S
C1152 C1168 1.368 . S
H1153 C1161 0.950 . S
H1154 C1159 0.950 . S
H1155 C1160 0.949 . S
H1156 C1162 0.950 . S
H1157 C1163 0.950 . S
H1158 C1164 0.949 . S
C1159 H1154 0.950 . S
C1159 C1161 1.327 . S
C1159 C1165 1.429 . S
C1160 C1152 1.574 . S
C1160 H1155 0.949 . S
C1160 C1166 1.368 . S
C1161 C1145 1.349 . S
C1161 H1153 0.950 . S
C1161 C1159 1.327 . S
C1162 C1150 1.349 . S
C1162 H1156 0.950 . S
C1162 C1163 1.327 . S
C1163 H1157 0.950 . S
C1163 C1162 1.327 . S
C1163 C1167 1.429 . S
C1164 C1147 1.574 . S
C1164 H1158 0.949 . S
C1164 C1168 1.368 . S
C1165 C1146 1.429 . S
C1165 C1159 1.429 . S
C1165 C1166 1.523 . S
C1166 C1147 1.368 . S
C1166 C1160 1.368 . S
C1166 C1165 1.523 . S
C1167 C1151 1.429 . S
C1167 C1163 1.429 . S
C1167 C1168 1.523 . S
C1168 C1152 1.368 . S
C1168 C1164 1.368 . S
C1168 C1167 1.523 . S
H1169 C1144 0.950 . S
H1170 C1146 0.950 . S
H1171 C1147 0.949 . S
H1172 C1149 0.950 . S
H1173 C1151 0.950 . S
C1174 C1175 1.349 . S
C1174 C1176 1.327 . S
C1174 H1199 0.950 . S
C1175 C1174 1.349 . S
C1175 C1191 1.349 . S
C1176 C1174 1.327 . S
C1176 C1195 1.429 . S
C1176 H1200 0.950 . S
C1177 C1194 1.574 . S
C1177 C1196 1.368 . S
C1177 H1201 0.949 . S
H1178 C1182 0.949 . S
C1179 C1180 1.349 . S
C1179 C1181 1.327 . S
C1179 H1202 0.950 . S
C1180 C1179 1.349 . S
C1180 C1192 1.349 . S
C1181 C1179 1.327 . S
C1181 C1197 1.429 . S
C1181 H1203 0.950 . S
C1182 H1178 0.949 . S
C1182 C1190 1.574 . S
C1182 C1198 1.368 . S
H1183 C1191 0.950 . S
H1184 C1189 0.950 . S
H1185 C1190 0.949 . S
H1186 C1192 0.950 . S
H1187 C1193 0.950 . S
H1188 C1194 0.949 . S
C1189 H1184 0.950 . S
C1189 C1191 1.327 . S
C1189 C1195 1.429 . S
C1190 C1182 1.574 . S
C1190 H1185 0.949 . S
C1190 C1196 1.368 . S
C1191 C1175 1.349 . S
C1191 H1183 0.950 . S
C1191 C1189 1.327 . S
C1192 C1180 1.349 . S
C1192 H1186 0.950 . S
C1192 C1193 1.327 . S
C1193 H1187 0.950 . S
C1193 C1192 1.327 . S
C1193 C1197 1.429 . S
C1194 C1177 1.574 . S
C1194 H1188 0.949 . S
C1194 C1198 1.368 . S
C1195 C1176 1.429 . S
C1195 C1189 1.429 . S
C1195 C1196 1.523 . S
C1196 C1177 1.368 . S
C1196 C1190 1.368 . S
C1196 C1195 1.523 . S
C1197 C1181 1.429 . S
C1197 C1193 1.429 . S
C1197 C1198 1.523 . S
C1198 C1182 1.368 . S
C1198 C1194 1.368 . S
C1198 C1197 1.523 . S
H1199 C1174 0.950 . S
H1200 C1176 0.950 . S
H1201 C1177 0.949 . S
H1202 C1179 0.950 . S
H1203 C1181 0.950 . S
C1204 C1205 1.349 . S
C1204 C1206 1.327 . S
C1204 H1229 0.950 . S
C1205 C1204 1.349 . S
C1205 C1221 1.349 . S
C1206 C1204 1.327 . S
C1206 C1225 1.429 . S
C1206 H1230 0.950 . S
C1207 C1224 1.574 . S
C1207 C1226 1.368 . S
C1207 H1231 0.949 . S
H1208 C1212 0.949 . S
C1209 C1210 1.349 . S
C1209 C1211 1.327 . S
C1209 H1232 0.950 . S
C1210 C1209 1.349 . S
C1210 C1222 1.349 . S
C1211 C1209 1.327 . S
C1211 C1227 1.429 . S
C1211 H1233 0.950 . S
C1212 H1208 0.949 . S
C1212 C1220 1.574 . S
C1212 C1228 1.368 . S
H1213 C1221 0.950 . S
H1214 C1219 0.950 . S
H1215 C1220 0.949 . S
H1216 C1222 0.950 . S
H1217 C1223 0.950 . S
H1218 C1224 0.949 . S
C1219 H1214 0.950 . S
C1219 C1221 1.327 . S
C1219 C1225 1.429 . S
C1220 C1212 1.574 . S
C1220 H1215 0.949 . S
C1220 C1226 1.368 . S
C1221 C1205 1.349 . S
C1221 H1213 0.950 . S
C1221 C1219 1.327 . S
C1222 C1210 1.349 . S
C1222 H1216 0.950 . S
C1222 C1223 1.327 . S
C1223 H1217 0.950 . S
C1223 C1222 1.327 . S
C1223 C1227 1.429 . S
C1224 C1207 1.574 . S
C1224 H1218 0.949 . S
C1224 C1228 1.368 . S
C1225 C1206 1.429 . S
C1225 C1219 1.429 . S
C1225 C1226 1.523 . S
C1226 C1207 1.368 . S
C1226 C1220 1.368 . S
C1226 C1225 1.523 . S
C1227 C1211 1.429 . S
C1227 C1223 1.429 . S
C1227 C1228 1.523 . S
C1228 C1212 1.368 . S
C1228 C1224 1.368 . S
C1228 C1227 1.523 . S
H1229 C1204 0.950 . S
H1230 C1206 0.950 . S
H1231 C1207 0.949 . S
H1232 C1209 0.950 . S
H1233 C1211 0.950 . S
C1234 C1235 1.349 . S
C1234 C1236 1.327 . S
C1234 H1259 0.950 . S
C1235 C1234 1.349 . S
C1235 C1251 1.349 . S
C1236 C1234 1.327 . S
C1236 C1255 1.429 . S
C1236 H1260 0.950 . S
C1237 C1254 1.574 . S
C1237 C1256 1.368 . S
C1237 H1261 0.949 . S
H1238 C1242 0.949 . S
C1239 C1240 1.349 . S
C1239 C1241 1.327 . S
C1239 H1262 0.950 . S
C1240 C1239 1.349 . S
C1240 C1252 1.349 . S
C1241 C1239 1.327 . S
C1241 C1257 1.429 . S
C1241 H1263 0.950 . S
C1242 H1238 0.949 . S
C1242 C1250 1.574 . S
C1242 C1258 1.368 . S
H1243 C1251 0.950 . S
H1244 C1249 0.950 . S
H1245 C1250 0.949 . S
H1246 C1252 0.950 . S
H1247 C1253 0.950 . S
H1248 C1254 0.949 . S
C1249 H1244 0.950 . S
C1249 C1251 1.327 . S
C1249 C1255 1.429 . S
C1250 C1242 1.574 . S
C1250 H1245 0.949 . S
C1250 C1256 1.368 . S
C1251 C1235 1.349 . S
C1251 H1243 0.950 . S
C1251 C1249 1.327 . S
C1252 C1240 1.349 . S
C1252 H1246 0.950 . S
C1252 C1253 1.327 . S
C1253 H1247 0.950 . S
C1253 C1252 1.327 . S
C1253 C1257 1.429 . S
C1254 C1237 1.574 . S
C1254 H1248 0.949 . S
C1254 C1258 1.368 . S
C1255 C1236 1.429 . S
C1255 C1249 1.429 . S
C1255 C1256 1.523 . S
C1256 C1237 1.368 . S
C1256 C1250 1.368 . S
C1256 C1255 1.523 . S
C1257 C1241 1.429 . S
C1257 C1253 1.429 . S
C1257 C1258 1.523 . S
C1258 C1242 1.368 . S
C1258 C1254 1.368 . S
C1258 C1257 1.523 . S
H1259 C1234 0.950 . S
H1260 C1236 0.950 . S
H1261 C1237 0.949 . S
H1262 C1239 0.950 . S
H1263 C1241 0.950 . S
C1264 C1265 1.349 . S
C1264 C1266 1.327 . S
C1264 H1289 0.950 . S
C1265 C1264 1.349 . S
C1265 C1281 1.349 . S
C1266 C1264 1.327 . S
C1266 C1285 1.429 1_545 S
C1266 H1290 0.950 . S
C1267 C1284 1.574 . S
C1267 C1286 1.368 . S
C1267 H1291 0.949 . S
H1268 C1272 0.949 . S
C1269 C1270 1.349 . S
C1269 C1271 1.327 . S
C1269 H1292 0.950 . S
C1270 C1269 1.349 . S
C1270 C1282 1.349 . S
C1271 C1269 1.327 . S
C1271 C1287 1.429 . S
C1271 H1293 0.950 . S
C1272 H1268 0.949 . S
C1272 C1280 1.574 . S
C1272 C1288 1.368 . S
H1273 C1281 0.950 . S
H1274 C1279 0.950 . S
H1275 C1280 0.949 . S
H1276 C1282 0.950 . S
H1277 C1283 0.950 . S
H1278 C1284 0.949 . S
C1279 H1274 0.950 . S
C1279 C1281 1.327 1_565 S
C1279 C1285 1.429 . S
C1280 C1272 1.574 . S
C1280 H1275 0.949 . S
C1280 C1286 1.368 . S
C1281 C1265 1.349 . S
C1281 H1273 0.950 . S
C1281 C1279 1.327 1_545 S
C1282 C1270 1.349 . S
C1282 H1276 0.950 . S
C1282 C1283 1.327 . S
C1283 H1277 0.950 . S
C1283 C1282 1.327 . S
C1283 C1287 1.429 . S
C1284 C1267 1.574 . S
C1284 H1278 0.949 . S
C1284 C1288 1.368 . S
C1285 C1266 1.429 1_565 S
C1285 C1279 1.429 . S
C1285 C1286 1.523 . S
C1286 C1267 1.368 . S
C1286 C1280 1.368 . S
C1286 C1285 1.523 . S
C1287 C1271 1.429 . S
C1287 C1283 1.429 . S
C1287 C1288 1.523 . S
C1288 C1272 1.368 . S
C1288 C1284 1.368 . S
C1288 C1287 1.523 . S
H1289 C1264 0.950 . S
H1290 C1266 0.950 . S
H1291 C1267 0.949 . S
H1292 C1269 0.950 . S
H1293 C1271 0.950 . S
C1294 C1295 1.349 . S
C1294 C1296 1.327 . S
C1294 H1319 0.950 . S
C1295 C1294 1.349 . S
C1295 C1311 1.349 . S
C1296 C1294 1.327 . S
C1296 C1315 1.429 . S
C1296 H1320 0.950 . S
C1297 C1314 1.574 . S
C1297 C1316 1.368 . S
C1297 H1321 0.949 . S
H1298 C1302 0.949 . S
C1299 C1300 1.349 . S
C1299 C1301 1.327 . S
C1299 H1322 0.950 . S
C1300 C1299 1.349 . S
C1300 C1312 1.349 . S
C1301 C1299 1.327 . S
C1301 C1317 1.429 1_455 S
C1301 H1323 0.950 . S
C1302 H1298 0.949 . S
C1302 C1310 1.574 . S
C1302 C1318 1.368 . S
H1303 C1311 0.950 . S
H1304 C1309 0.950 . S
H1305 C1310 0.949 . S
H1306 C1312 0.950 . S
H1307 C1313 0.950 . S
H1308 C1314 0.949 . S
C1309 H1304 0.950 . S
C1309 C1311 1.327 . S
C1309 C1315 1.429 . S
C1310 C1302 1.574 . S
C1310 H1305 0.949 . S
C1310 C1316 1.368 . S
C1311 C1295 1.349 . S
C1311 H1303 0.950 . S
C1311 C1309 1.327 . S
C1312 C1300 1.349 . S
C1312 H1306 0.950 . S
C1312 C1313 1.327 1_455 S
C1313 H1307 0.950 . S
C1313 C1312 1.327 1_655 S
C1313 C1317 1.429 . S
C1314 C1297 1.574 . S
C1314 H1308 0.949 . S
C1314 C1318 1.368 . S
C1315 C1296 1.429 . S
C1315 C1309 1.429 . S
C1315 C1316 1.523 . S
C1316 C1297 1.368 . S
C1316 C1310 1.368 . S
C1316 C1315 1.523 . S
C1317 C1301 1.429 1_655 S
C1317 C1313 1.429 . S
C1317 C1318 1.523 . S
C1318 C1302 1.368 . S
C1318 C1314 1.368 . S
C1318 C1317 1.523 . S
H1319 C1294 0.950 . S
H1320 C1296 0.950 . S
H1321 C1297 0.949 . S
H1322 C1299 0.950 . S
H1323 C1301 0.950 . S
C1324 C1325 1.349 . S
C1324 C1326 1.327 . S
C1324 H1349 0.950 . S
C1325 C1324 1.349 . S
C1325 C1341 1.349 . S
C1326 C1324 1.327 . S
C1326 C1345 1.429 1_565 S
C1326 H1350 0.950 1_565 S
C1327 C1344 1.574 . S
C1327 C1346 1.368 . S
C1327 H1351 0.949 . S
H1328 C1332 0.949 . S
C1329 C1330 1.349 . S
C1329 C1331 1.327 . S
C1329 H1352 0.950 . S
C1330 C1329 1.349 . S
C1330 C1342 1.349 . S
C1331 C1329 1.327 . S
C1331 C1347 1.429 . S
C1331 H1353 0.950 . S
C1332 H1328 0.949 . S
C1332 C1340 1.574 . S
C1332 C1348 1.368 . S
H1333 C1341 0.950 . S
H1334 C1339 0.977 . S
H1335 C1340 0.949 . S
H1336 C1342 0.950 . S
H1337 C1343 0.950 . S
H1338 C1344 0.949 . S
C1339 H1334 0.977 . S
C1339 C1341 1.327 . S
C1339 C1345 1.429 1_565 S
C1340 C1332 1.574 . S
C1340 H1335 0.949 . S
C1340 C1346 1.368 . S
C1341 C1325 1.349 . S
C1341 H1333 0.950 . S
C1341 C1339 1.327 . S
C1342 C1330 1.349 . S
C1342 H1336 0.950 . S
C1342 C1343 1.327 . S
C1343 H1337 0.950 . S
C1343 C1342 1.327 . S
C1343 C1347 1.429 . S
C1344 C1327 1.574 . S
C1344 H1338 0.949 . S
C1344 C1348 1.368 . S
C1345 C1326 1.429 1_545 S
C1345 C1339 1.429 1_545 S
C1345 C1346 1.523 . S
C1346 C1327 1.368 . S
C1346 C1340 1.368 . S
C1346 C1345 1.523 . S
C1347 C1331 1.429 . S
C1347 C1343 1.429 . S
C1347 C1348 1.523 . S
C1348 C1332 1.368 . S
C1348 C1344 1.368 . S
C1348 C1347 1.523 . S
H1349 C1324 0.950 . S
H1350 C1326 0.950 1_545 S
H1351 C1327 0.949 . S
H1352 C1329 0.950 . S
H1353 C1331 0.950 . S
C1354 C1355 1.349 . S
C1354 C1356 1.327 . S
C1354 H1379 0.950 . S
C1355 C1354 1.349 . S
C1355 C1371 1.349 . S
C1356 C1354 1.327 . S
C1356 C1375 1.429 . S
C1356 H1380 0.950 . S
C1357 C1374 1.574 . S
C1357 C1376 1.368 . S
C1357 H1381 0.949 . S
H1358 C1362 0.949 . S
C1359 C1360 1.349 . S
C1359 C1361 1.327 . S
C1359 H1382 0.950 . S
C1360 C1359 1.349 . S
C1360 C1372 1.349 . S
C1361 C1359 1.327 . S
C1361 C1377 1.429 1_655 S
C1361 H1383 0.931 1_655 S
C1362 H1358 0.949 . S
C1362 C1370 1.574 . S
C1362 C1378 1.368 . S
H1363 C1371 0.950 . S
H1364 C1369 0.950 . S
H1365 C1370 0.949 . S
H1366 C1372 0.950 . S
H1367 C1373 0.942 1_455 S
H1368 C1374 0.949 . S
C1369 H1364 0.950 . S
C1369 C1371 1.327 . S
C1369 C1375 1.429 . S
C1370 C1362 1.574 . S
C1370 H1365 0.949 . S
C1370 C1376 1.368 . S
C1371 C1355 1.349 . S
C1371 H1363 0.950 . S
C1371 C1369 1.327 . S
C1372 C1360 1.349 . S
C1372 H1366 0.950 . S
C1372 C1373 1.327 . S
C1373 H1367 0.942 1_655 S
C1373 C1372 1.327 . S
C1373 C1377 1.429 1_655 S
C1374 C1357 1.574 . S
C1374 H1368 0.949 . S
C1374 C1378 1.368 . S
C1375 C1356 1.429 . S
C1375 C1369 1.429 . S
C1375 C1376 1.523 . S
C1376 C1357 1.368 . S
C1376 C1370 1.368 . S
C1376 C1375 1.523 . S
C1377 C1361 1.429 1_455 S
C1377 C1373 1.429 1_455 S
C1377 C1378 1.523 . S
C1378 C1362 1.368 . S
C1378 C1374 1.368 . S
C1378 C1377 1.523 . S
H1379 C1354 0.950 . S
H1380 C1356 0.950 . S
H1381 C1357 0.949 . S
H1382 C1359 0.950 . S
H1383 C1361 0.931 1_455 S
C1384 C1385 1.349 1_554 S
C1384 C1386 1.327 . S
C1384 H1409 0.950 . S
C1385 C1384 1.349 1_556 S
C1385 C1401 1.349 . S
C1386 C1384 1.327 . S
C1386 C1405 1.429 1_554 S
C1386 H1410 0.950 . S
C1387 C1404 1.574 . S
C1387 C1406 1.368 1_556 S
C1387 H1411 0.949 . S
H1388 C1392 0.949 . S
C1389 C1390 1.349 . S
C1389 C1391 1.327 . S
C1389 H1412 0.950 . S
C1390 C1389 1.349 . S
C1390 C1402 1.349 . S
C1391 C1389 1.327 . S
C1391 C1407 1.429 . S
C1391 H1413 0.950 1_554 S
C1392 H1388 0.949 . S
C1392 C1400 1.574 . S
C1392 C1408 1.368 . S
H1393 C1401 0.950 . S
H1394 C1399 0.950 . S
H1395 C1400 0.949 . S
H1396 C1402 0.950 . S
H1397 C1403 0.950 . S
H1398 C1404 0.949 . S
C1399 H1394 0.950 . S
C1399 C1401 1.327 . S
C1399 C1405 1.429 . S
C1400 C1392 1.574 . S
C1400 H1395 0.949 . S
C1400 C1406 1.368 . S
C1401 C1385 1.349 . S
C1401 H1393 0.950 . S
C1401 C1399 1.327 . S
C1402 C1390 1.349 . S
C1402 H1396 0.950 . S
C1402 C1403 1.327 . S
C1403 H1397 0.950 . S
C1403 C1402 1.327 . S
C1403 C1407 1.429 . S
C1404 C1387 1.574 . S
C1404 H1398 0.949 . S
C1404 C1408 1.368 1_556 S
C1405 C1386 1.429 1_556 S
C1405 C1399 1.429 . S
C1405 C1406 1.523 1_556 S
C1406 C1387 1.368 1_554 S
C1406 C1400 1.368 . S
C1406 C1405 1.523 1_554 S
C1407 C1391 1.429 . S
C1407 C1403 1.429 . S
C1407 C1408 1.523 . S
C1408 C1392 1.368 . S
C1408 C1404 1.368 1_554 S
C1408 C1407 1.523 . S
H1409 C1384 0.950 . S
H1410 C1386 0.950 . S
H1411 C1387 0.949 . S
H1412 C1389 0.950 . S
H1413 C1391 0.950 1_556 S
C1414 C1415 1.349 . S
C1414 C1416 1.327 . S
C1414 H1439 0.950 . S
C1415 C1414 1.349 . S
C1415 C1431 1.349 . S
C1416 C1414 1.327 . S
C1416 C1435 1.429 . S
C1416 H1440 0.950 1_554 S
C1417 C1434 1.574 . S
C1417 C1436 1.368 . S
C1417 H1441 0.949 1_556 S
H1418 C1422 0.949 . S
C1419 C1420 1.349 . S
C1419 C1421 1.327 . S
C1419 H1442 0.950 . S
C1420 C1419 1.349 . S
C1420 C1432 1.349 . S
C1421 C1419 1.327 . S
C1421 C1437 1.429 . S
C1421 H1443 0.950 . S
C1422 H1418 0.949 . S
C1422 C1430 1.574 . S
C1422 C1438 1.368 . S
H1423 C1431 0.950 . S
H1424 C1429 0.950 . S
H1425 C1430 0.949 . S
H1426 C1432 0.950 . S
H1427 C1433 0.950 . S
H1428 C1434 0.949 . S
C1429 H1424 0.950 . S
C1429 C1431 1.327 . S
C1429 C1435 1.429 . S
C1430 C1422 1.574 . S
C1430 H1425 0.949 . S
C1430 C1436 1.368 . S
C1431 C1415 1.349 . S
C1431 H1423 0.950 . S
C1431 C1429 1.327 . S
C1432 C1420 1.349 . S
C1432 H1426 0.950 . S
C1432 C1433 1.327 . S
C1433 H1427 0.950 . S
C1433 C1432 1.327 . S
C1433 C1437 1.429 . S
C1434 C1417 1.574 . S
C1434 H1428 0.949 . S
C1434 C1438 1.368 . S
C1435 C1416 1.429 . S
C1435 C1429 1.429 . S
C1435 C1436 1.523 1_554 S
C1436 C1417 1.368 . S
C1436 C1430 1.368 . S
C1436 C1435 1.523 1_556 S
C1437 C1421 1.429 . S
C1437 C1433 1.429 . S
C1437 C1438 1.523 . S
C1438 C1422 1.368 . S
C1438 C1434 1.368 . S
C1438 C1437 1.523 . S
H1439 C1414 0.950 . S
H1440 C1416 0.950 1_556 S
H1441 C1417 0.949 1_554 S
H1442 C1419 0.950 . S
H1443 C1421 0.950 . S
C1444 C1445 1.349 . S
C1444 C1446 1.327 . S
C1444 H1469 0.950 . S
C1445 C1444 1.349 . S
C1445 C1461 1.349 . S
C1446 C1444 1.327 . S
C1446 C1465 1.429 . S
C1446 H1470 0.950 . S
C1447 C1464 1.574 . S
C1447 C1466 1.368 1_556 S
C1447 H1471 0.949 . S
H1448 C1452 0.949 . S
C1449 C1450 1.349 . S
C1449 C1451 1.327 . S
C1449 H1472 0.950 . S
C1450 C1449 1.349 . S
C1450 C1462 1.349 1_556 S
C1451 C1449 1.327 . S
C1451 C1467 1.429 . S
C1451 H1473 0.950 . S
C1452 H1448 0.949 . S
C1452 C1460 1.574 . S
C1452 C1468 1.368 . S
H1453 C1461 0.950 . S
H1454 C1459 0.950 1_556 S
H1455 C1460 0.949 . S
H1456 C1462 0.950 . S
H1457 C1463 0.950 . S
H1458 C1464 0.949 . S
C1459 H1454 0.950 1_554 S
C1459 C1461 1.327 . S
C1459 C1465 1.429 . S
C1460 C1452 1.574 . S
C1460 H1455 0.949 . S
C1460 C1466 1.368 . S
C1461 C1445 1.349 . S
C1461 H1453 0.950 . S
C1461 C1459 1.327 . S
C1462 C1450 1.349 1_554 S
C1462 H1456 0.950 . S
C1462 C1463 1.327 . S
C1463 H1457 0.950 . S
C1463 C1462 1.327 . S
C1463 C1467 1.429 1_554 S
C1464 C1447 1.574 . S
C1464 H1458 0.949 . S
C1464 C1468 1.368 1_556 S
C1465 C1446 1.429 . S
C1465 C1459 1.429 . S
C1465 C1466 1.523 . S
C1466 C1447 1.368 1_554 S
C1466 C1460 1.368 . S
C1466 C1465 1.523 . S
C1467 C1451 1.429 . S
C1467 C1463 1.429 1_556 S
C1467 C1468 1.523 1_556 S
C1468 C1452 1.368 . S
C1468 C1464 1.368 1_554 S
C1468 C1467 1.523 1_554 S
H1469 C1444 0.950 . S
H1470 C1446 0.950 . S
H1471 C1447 0.949 . S
H1472 C1449 0.950 . S
H1473 C1451 0.950 . S
C1474 C1475 1.349 . S
C1474 C1476 1.327 . S
C1474 H1499 0.950 . S
C1475 C1474 1.349 . S
C1475 C1491 1.349 . S
C1476 C1474 1.327 . S
C1476 C1495 1.429 . S
C1476 H1500 0.950 . S
C1477 C1494 1.574 . S
C1477 C1496 1.368 . S
C1477 H1501 0.949 . S
H1478 C1482 0.949 . S
C1479 C1480 1.349 . S
C1479 C1481 1.327 . S
C1479 H1502 0.950 . S
C1480 C1479 1.349 . S
C1480 C1492 1.349 . S
C1481 C1479 1.327 . S
C1481 C1497 1.429 . S
C1481 H1503 0.950 . S
C1482 H1478 0.949 . S
C1482 C1490 1.574 . S
C1482 C1498 1.368 . S
H1483 C1491 0.950 . S
H1484 C1489 0.950 . S
H1485 C1490 0.949 . S
H1486 C1492 0.950 . S
H1487 C1493 0.950 . S
H1488 C1494 0.949 . S
C1489 H1484 0.950 . S
C1489 C1491 1.327 . S
C1489 C1495 1.429 . S
C1490 C1482 1.574 . S
C1490 H1485 0.949 . S
C1490 C1496 1.368 . S
C1491 C1475 1.349 . S
C1491 H1483 0.950 . S
C1491 C1489 1.327 . S
C1492 C1480 1.349 . S
C1492 H1486 0.950 . S
C1492 C1493 1.327 . S
C1493 H1487 0.950 . S
C1493 C1492 1.327 . S
C1493 C1497 1.429 . S
C1494 C1477 1.574 . S
C1494 H1488 0.949 . S
C1494 C1498 1.368 . S
C1495 C1476 1.429 . S
C1495 C1489 1.429 . S
C1495 C1496 1.523 1_554 S
C1496 C1477 1.368 . S
C1496 C1490 1.368 . S
C1496 C1495 1.523 1_556 S
C1497 C1481 1.429 . S
C1497 C1493 1.429 . S
C1497 C1498 1.523 . S
C1498 C1482 1.368 . S
C1498 C1494 1.368 . S
C1498 C1497 1.523 . S
H1499 C1474 0.950 . S
H1500 C1476 0.950 . S
H1501 C1477 0.949 . S
H1502 C1479 0.950 . S
H1503 C1481 0.950 . S
C1504 C1505 1.349 . S
C1504 C1506 1.327 . S
C1504 H1529 0.950 . S
C1505 C1504 1.349 . S
C1505 C1521 1.349 . S
C1506 C1504 1.327 . S
C1506 C1525 1.429 . S
C1506 H1530 0.950 . S
C1507 C1524 1.574 . S
C1507 C1526 1.368 . S
C1507 H1531 0.949 . S
H1508 C1512 0.949 . S
C1509 C1510 1.349 . S
C1509 C1511 1.327 . S
C1509 H1532 0.950 . S
C1510 C1509 1.349 . S
C1510 C1522 1.349 . S
C1511 C1509 1.327 . S
C1511 C1527 1.429 . S
C1511 H1533 0.950 . S
C1512 H1508 0.949 . S
C1512 C1520 1.574 . S
C1512 C1528 1.368 . S
H1513 C1521 0.950 . S
H1514 C1519 0.950 . S
H1515 C1520 0.949 . S
H1516 C1522 0.950 . S
H1517 C1523 0.950 . S
H1518 C1524 0.949 . S
C1519 H1514 0.950 . S
C1519 C1521 1.327 . S
C1519 C1525 1.429 . S
C1520 C1512 1.574 . S
C1520 H1515 0.949 . S
C1520 C1526 1.368 . S
C1521 C1505 1.349 . S
C1521 H1513 0.950 . S
C1521 C1519 1.327 . S
C1522 C1510 1.349 . S
C1522 H1516 0.950 . S
C1522 C1523 1.327 . S
C1523 H1517 0.950 . S
C1523 C1522 1.327 . S
C1523 C1527 1.429 . S
C1524 C1507 1.574 . S
C1524 H1518 0.949 . S
C1524 C1528 1.368 . S
C1525 C1506 1.429 . S
C1525 C1519 1.429 . S
C1525 C1526 1.523 . S
C1526 C1507 1.368 . S
C1526 C1520 1.368 . S
C1526 C1525 1.523 . S
C1527 C1511 1.429 . S
C1527 C1523 1.429 . S
C1527 C1528 1.523 . S
C1528 C1512 1.368 . S
C1528 C1524 1.368 . S
C1528 C1527 1.523 . S
H1529 C1504 0.950 . S
H1530 C1506 0.950 . S
H1531 C1507 0.949 . S
H1532 C1509 0.950 . S
H1533 C1511 0.950 . S
C1534 C1535 1.349 . S
C1534 C1536 1.327 . S
C1534 H1559 0.950 . S
C1535 C1534 1.349 . S
C1535 C1551 1.349 . S
C1536 C1534 1.327 . S
C1536 C1555 1.429 . S
C1536 H1560 0.950 . S
C1537 C1554 1.574 . S
C1537 C1556 1.368 . S
C1537 H1561 0.949 . S
H1538 C1542 0.949 . S
C1539 C1540 1.349 . S
C1539 C1541 1.327 . S
C1539 H1562 0.950 . S
C1540 C1539 1.349 . S
C1540 C1552 1.349 . S
C1541 C1539 1.327 . S
C1541 C1557 1.429 . S
C1541 H1563 0.950 . S
C1542 H1538 0.949 . S
C1542 C1550 1.574 . S
C1542 C1558 1.368 . S
H1543 C1551 0.950 . S
H1544 C1549 0.950 . S
H1545 C1550 0.949 . S
H1546 C1552 0.950 . S
H1547 C1553 0.950 . S
H1548 C1554 0.949 . S
C1549 H1544 0.950 . S
C1549 C1551 1.327 . S
C1549 C1555 1.429 . S
C1550 C1542 1.574 . S
C1550 H1545 0.949 . S
C1550 C1556 1.368 . S
C1551 C1535 1.349 . S
C1551 H1543 0.950 . S
C1551 C1549 1.327 . S
C1552 C1540 1.349 . S
C1552 H1546 0.950 . S
C1552 C1553 1.327 . S
C1553 H1547 0.950 . S
C1553 C1552 1.327 . S
C1553 C1557 1.429 . S
C1554 C1537 1.574 . S
C1554 H1548 0.949 . S
C1554 C1558 1.368 . S
C1555 C1536 1.429 . S
C1555 C1549 1.429 . S
C1555 C1556 1.523 . S
C1556 C1537 1.368 . S
C1556 C1550 1.368 . S
C1556 C1555 1.523 . S
C1557 C1541 1.429 . S
C1557 C1553 1.429 . S
C1557 C1558 1.523 . S
C1558 C1542 1.368 . S
C1558 C1554 1.368 . S
C1558 C1557 1.523 . S
H1559 C1534 0.950 . S
H1560 C1536 0.950 . S
H1561 C1537 0.949 . S
H1562 C1539 0.950 . S
H1563 C1541 0.950 . S
C1564 C1565 1.349 . S
C1564 C1566 1.327 . S
C1564 H1589 0.950 . S
C1565 C1564 1.349 . S
C1565 C1581 1.349 . S
C1566 C1564 1.327 . S
C1566 C1585 1.429 . S
C1566 H1590 0.950 . S
C1567 C1584 1.574 . S
C1567 C1586 1.368 . S
C1567 H1591 0.949 . S
H1568 C1572 0.949 . S
C1569 C1570 1.349 . S
C1569 C1571 1.327 . S
C1569 H1592 0.950 . S
C1570 C1569 1.349 . S
C1570 C1582 1.349 . S
C1571 C1569 1.327 . S
C1571 C1587 1.429 . S
C1571 H1593 0.950 . S
C1572 H1568 0.949 . S
C1572 C1580 1.574 . S
C1572 C1588 1.368 . S
H1573 C1581 0.950 . S
H1574 C1579 0.950 . S
H1575 C1580 0.949 . S
H1576 C1582 0.950 . S
H1577 C1583 0.950 . S
H1578 C1584 0.949 . S
C1579 H1574 0.950 . S
C1579 C1581 1.327 . S
C1579 C1585 1.429 . S
C1580 C1572 1.574 . S
C1580 H1575 0.949 . S
C1580 C1586 1.368 . S
C1581 C1565 1.349 . S
C1581 H1573 0.950 . S
C1581 C1579 1.327 . S
C1582 C1570 1.349 . S
C1582 H1576 0.950 . S
C1582 C1583 1.327 . S
C1583 H1577 0.950 . S
C1583 C1582 1.327 . S
C1583 C1587 1.429 . S
C1584 C1567 1.574 . S
C1584 H1578 0.949 . S
C1584 C1588 1.368 . S
C1585 C1566 1.429 . S
C1585 C1579 1.429 . S
C1585 C1586 1.523 . S
C1586 C1567 1.368 . S
C1586 C1580 1.368 . S
C1586 C1585 1.523 . S
C1587 C1571 1.429 . S
C1587 C1583 1.429 . S
C1587 C1588 1.523 . S
C1588 C1572 1.368 . S
C1588 C1584 1.368 . S
C1588 C1587 1.523 . S
H1589 C1564 0.950 . S
H1590 C1566 0.950 . S
H1591 C1567 0.949 . S
H1592 C1569 0.950 . S
H1593 C1571 0.950 . S
C1594 C1595 1.349 . S
C1594 C1596 1.327 . S
C1594 H1619 0.950 . S
C1595 C1594 1.349 . S
C1595 C1611 1.349 . S
C1596 C1594 1.327 . S
C1596 C1615 1.429 . S
C1596 H1620 0.950 . S
C1597 C1614 1.574 . S
C1597 C1616 1.368 . S
C1597 H1621 0.949 . S
H1598 C1602 0.949 . S
C1599 C1600 1.349 . S
C1599 C1601 1.327 . S
C1599 H1622 0.950 . S
C1600 C1599 1.349 . S
C1600 C1612 1.349 . S
C1601 C1599 1.327 . S
C1601 C1617 1.429 . S
C1601 H1623 0.950 . S
C1602 H1598 0.949 . S
C1602 C1610 1.574 . S
C1602 C1618 1.368 . S
H1603 C1611 0.950 . S
H1604 C1609 0.950 . S
H1605 C1610 0.949 . S
H1606 C1612 0.950 . S
H1607 C1613 0.950 . S
H1608 C1614 0.949 . S
C1609 H1604 0.950 . S
C1609 C1611 1.327 . S
C1609 C1615 1.429 . S
C1610 C1602 1.574 . S
C1610 H1605 0.949 . S
C1610 C1616 1.368 . S
C1611 C1595 1.349 . S
C1611 H1603 0.950 . S
C1611 C1609 1.327 . S
C1612 C1600 1.349 . S
C1612 H1606 0.950 . S
C1612 C1613 1.327 . S
C1613 H1607 0.950 . S
C1613 C1612 1.327 . S
C1613 C1617 1.429 . S
C1614 C1597 1.574 . S
C1614 H1608 0.949 . S
C1614 C1618 1.368 . S
C1615 C1596 1.429 . S
C1615 C1609 1.429 . S
C1615 C1616 1.523 . S
C1616 C1597 1.368 . S
C1616 C1610 1.368 . S
C1616 C1615 1.523 . S
C1617 C1601 1.429 . S
C1617 C1613 1.429 . S
C1617 C1618 1.523 . S
C1618 C1602 1.368 . S
C1618 C1614 1.368 . S
C1618 C1617 1.523 . S
H1619 C1594 0.950 . S
H1620 C1596 0.950 . S
H1621 C1597 0.949 . S
H1622 C1599 0.950 . S
H1623 C1601 0.950 . S
C1624 C1625 1.349 . S
C1624 C1626 1.327 . S
C1624 H1649 0.950 . S
C1625 C1624 1.349 . S
C1625 C1641 1.349 . S
C1626 C1624 1.327 . S
C1626 C1645 1.429 . S
C1626 H1650 0.950 . S
C1627 C1644 1.574 . S
C1627 C1646 1.368 . S
C1627 H1651 0.949 . S
H1628 C1632 0.949 . S
C1629 C1630 1.349 . S
C1629 C1631 1.327 1_565 S
C1629 H1652 0.950 . S
C1630 C1629 1.349 . S
C1630 C1642 1.349 . S
C1631 C1629 1.327 1_545 S
C1631 C1647 1.429 . S
C1631 H1653 0.950 . S
C1632 H1628 0.949 . S
C1632 C1640 1.574 . S
C1632 C1648 1.368 . S
H1633 C1641 0.950 . S
H1634 C1639 0.950 . S
H1635 C1640 0.949 . S
H1636 C1642 0.950 . S
H1637 C1643 0.950 . S
H1638 C1644 0.949 . S
C1639 H1634 0.950 . S
C1639 C1641 1.327 . S
C1639 C1645 1.429 . S
C1640 C1632 1.574 . S
C1640 H1635 0.949 . S
C1640 C1646 1.368 . S
C1641 C1625 1.349 . S
C1641 H1633 0.950 . S
C1641 C1639 1.327 . S
C1642 C1630 1.349 . S
C1642 H1636 0.950 . S
C1642 C1643 1.327 . S
C1643 H1637 0.950 . S
C1643 C1642 1.327 . S
C1643 C1647 1.429 1_565 S
C1644 C1627 1.574 . S
C1644 H1638 0.949 . S
C1644 C1648 1.368 . S
C1645 C1626 1.429 . S
C1645 C1639 1.429 . S
C1645 C1646 1.523 . S
C1646 C1627 1.368 . S
C1646 C1640 1.368 . S
C1646 C1645 1.523 . S
C1647 C1631 1.429 . S
C1647 C1643 1.429 1_545 S
C1647 C1648 1.523 . S
C1648 C1632 1.368 . S
C1648 C1644 1.368 . S
C1648 C1647 1.523 . S
H1649 C1624 0.950 . S
H1650 C1626 0.950 . S
H1651 C1627 0.949 . S
H1652 C1629 0.950 . S
H1653 C1631 0.950 . S
C1654 C1655 1.349 . S
C1654 C1656 1.327 . S
C1654 H1679 0.950 . S
C1655 C1654 1.349 . S
C1655 C1671 1.349 . S
C1656 C1654 1.327 . S
C1656 C1675 1.429 . S
C1656 H1680 0.950 . S
C1657 C1674 1.574 . S
C1657 C1676 1.368 . S
C1657 H1681 0.949 . S
H1658 C1662 0.949 . S
C1659 C1660 1.349 . S
C1659 C1661 1.327 . S
C1659 H1682 0.950 . S
C1660 C1659 1.349 . S
C1660 C1672 1.349 . S
C1661 C1659 1.327 . S
C1661 C1677 1.429 1_655 S
C1661 H1683 0.950 . S
C1662 H1658 0.949 . S
C1662 C1670 1.574 . S
C1662 C1678 1.368 . S
H1663 C1671 0.950 . S
H1664 C1669 0.950 . S
H1665 C1670 0.949 . S
H1666 C1672 0.950 . S
H1667 C1673 0.922 1_455 S
H1668 C1674 0.949 . S
C1669 H1664 0.950 . S
C1669 C1671 1.327 . S
C1669 C1675 1.429 . S
C1670 C1662 1.574 . S
C1670 H1665 0.949 . S
C1670 C1676 1.368 . S
C1671 C1655 1.349 . S
C1671 H1663 0.950 . S
C1671 C1669 1.327 . S
C1672 C1660 1.349 . S
C1672 H1666 0.950 . S
C1672 C1673 1.367 . S
C1673 H1667 0.922 1_655 S
C1673 C1672 1.367 . S
C1673 C1677 1.417 1_655 S
C1674 C1657 1.574 . S
C1674 H1668 0.949 . S
C1674 C1678 1.368 . S
C1675 C1656 1.429 . S
C1675 C1669 1.429 . S
C1675 C1676 1.523 . S
C1676 C1657 1.368 . S
C1676 C1670 1.368 . S
C1676 C1675 1.523 . S
C1677 C1661 1.429 1_455 S
C1677 C1673 1.417 1_455 S
C1677 C1678 1.523 . S
C1678 C1662 1.368 . S
C1678 C1674 1.368 . S
C1678 C1677 1.523 . S
H1679 C1654 0.950 . S
H1680 C1656 0.950 . S
H1681 C1657 0.949 . S
H1682 C1659 0.950 . S
H1683 C1661 0.950 . S
C1684 C1685 1.349 . S
C1684 C1686 1.327 . S
C1684 H1709 0.950 . S
C1685 C1684 1.349 . S
C1685 C1701 1.349 . S
C1686 C1684 1.327 . S
C1686 C1705 1.429 . S
C1686 H1710 0.950 . S
C1687 C1704 1.574 . S
C1687 C1706 1.368 . S
C1687 H1711 0.949 . S
H1688 C1692 0.949 . S
C1689 C1690 1.349 . S
C1689 C1691 1.327 1_545 S
C1689 H1712 0.950 . S
C1690 C1689 1.349 . S
C1690 C1702 1.349 . S
C1691 C1689 1.327 1_565 S
C1691 C1707 1.429 . S
C1691 H1713 0.950 . S
C1692 H1688 0.949 . S
C1692 C1700 1.574 . S
C1692 C1708 1.368 . S
H1693 C1701 0.950 . S
H1694 C1699 0.950 . S
H1695 C1700 0.949 . S
H1696 C1702 0.950 . S
H1697 C1703 0.950 . S
H1698 C1704 0.949 . S
C1699 H1694 0.950 . S
C1699 C1701 1.327 . S
C1699 C1705 1.429 . S
C1700 C1692 1.574 . S
C1700 H1695 0.949 . S
C1700 C1706 1.368 . S
C1701 C1685 1.349 . S
C1701 H1693 0.950 . S
C1701 C1699 1.327 . S
C1702 C1690 1.349 . S
C1702 H1696 0.950 . S
C1702 C1703 1.327 . S
C1703 H1697 0.950 . S
C1703 C1702 1.327 . S
C1703 C1707 1.429 1_545 S
C1704 C1687 1.574 . S
C1704 H1698 0.949 . S
C1704 C1708 1.368 . S
C1705 C1686 1.429 . S
C1705 C1699 1.429 . S
C1705 C1706 1.523 . S
C1706 C1687 1.368 . S
C1706 C1700 1.368 . S
C1706 C1705 1.523 . S
C1707 C1691 1.429 . S
C1707 C1703 1.429 1_565 S
C1707 C1708 1.523 . S
C1708 C1692 1.368 . S
C1708 C1704 1.368 . S
C1708 C1707 1.523 . S
H1709 C1684 0.950 . S
H1710 C1686 0.950 . S
H1711 C1687 0.949 . S
H1712 C1689 0.950 . S
H1713 C1691 0.950 . S
C1714 C1715 1.349 . S
C1714 C1716 1.327 . S
C1714 H1739 0.950 . S
C1715 C1714 1.349 . S
C1715 C1731 1.349 . S
C1716 C1714 1.327 . S
C1716 C1735 1.429 1_455 S
C1716 H1740 0.950 . S
C1717 C1734 1.574 . S
C1717 C1736 1.368 . S
C1717 H1741 0.949 . S
H1718 C1722 0.949 . S
C1719 C1720 1.349 . S
C1719 C1721 1.327 . S
C1719 H1742 0.950 . S
C1720 C1719 1.349 . S
C1720 C1732 1.349 . S
C1721 C1719 1.327 . S
C1721 C1737 1.429 . S
C1721 H1743 0.950 . S
C1722 H1718 0.949 . S
C1722 C1730 1.574 . S
C1722 C1738 1.368 . S
H1723 C1731 0.950 . S
H1724 C1729 0.950 . S
H1725 C1730 0.949 . S
H1726 C1732 0.950 . S
H1727 C1733 0.950 . S
H1728 C1734 0.949 . S
C1729 H1724 0.950 . S
C1729 C1731 1.327 1_655 S
C1729 C1735 1.429 . S
C1730 C1722 1.574 . S
C1730 H1725 0.949 . S
C1730 C1736 1.368 . S
C1731 C1715 1.349 . S
C1731 H1723 0.950 . S
C1731 C1729 1.327 1_455 S
C1732 C1720 1.349 . S
C1732 H1726 0.950 . S
C1732 C1733 1.327 . S
C1733 H1727 0.950 . S
C1733 C1732 1.327 . S
C1733 C1737 1.429 . S
C1734 C1717 1.574 . S
C1734 H1728 0.949 . S
C1734 C1738 1.368 . S
C1735 C1716 1.429 1_655 S
C1735 C1729 1.429 . S
C1735 C1736 1.523 . S
C1736 C1717 1.368 . S
C1736 C1730 1.368 . S
C1736 C1735 1.523 . S
C1737 C1721 1.429 . S
C1737 C1733 1.429 . S
C1737 C1738 1.523 . S
C1738 C1722 1.368 . S
C1738 C1734 1.368 . S
C1738 C1737 1.523 . S
H1739 C1714 0.950 . S
H1740 C1716 0.950 . S
H1741 C1717 0.949 . S
H1742 C1719 0.950 . S
H1743 C1721 0.950 . S
C545 C33 0.750 . S
C550 C509 0.750 . S
C575 C543 0.750 . S
C580 C67 0.750 . S
C605 C441 0.750 . S
C610 C101 0.750 . S
C635 C135 0.750 . S
C640 C475 0.750 . S
C665 C169 0.750 . S
C670 C373 0.750 . S
C695 C407 0.750 . S
C700 C203 0.750 . S
C725 C237 0.750 . S
C730 C305 0.750 . S
C755 C339 0.750 . S
C760 C271 0.750 . S
C785 C145 1.051 . S
C790 C9 1.051 . S
C815 C43 1.051 . S
C820 C179 1.051 . S
C845 C77 1.051 . S
C850 C213 1.051 . S
C875 C111 1.051 . S
C880 C247 1.051 . S
C905 C417 1.052 . S
C910 C281 1.052 . S
C935 C451 1.051 . S
C940 C315 1.051 . S
C965 C349 1.051 . S
C970 C485 1.051 . S
C995 C383 1.052 . S
C1000 C519 1.052 . S
C1025 C2 2.004 . S
C1030 C478 2.004 . S
C1055 C512 2.004 . S
C1060 C36 2.004 . S
C1085 C70 2.004 . S
C1090 C410 2.004 . S
C1115 C444 2.004 . S
C1120 C104 2.004 . S
C1145 C342 2.004 . S
C1150 C138 2.004 . S
C1175 C376 2.004 . S
C1180 C172 2.004 . S
C1205 C206 2.004 . S
C1210 C274 2.004 . S
C1235 C240 2.004 . S
C1240 C308 2.004 . S
C1265 C5 1.623 . S
C1270 C394 1.634 . S
C1295 C292 1.634 . S
C1300 C39 1.623 . S
C1325 C73 1.623 . S
C1330 C326 1.634 . S
C1355 C360 1.633 . S
C1360 C107 1.623 . S
C1385 C190 1.633 . S
C1390 C141 1.623 . S
C1415 C224 1.633 . S
C1420 C175 1.623 . S
C1445 C209 1.623 . S
C1450 C258 1.633 . S
C1475 C156 1.633 . S
C1480 C243 1.623 . S
C1505 C122 1.634 . S
C1510 C277 1.624 . S
C1535 C311 1.624 . S
C1540 C20 1.634 . S
C1565 C345 1.624 . S
C1570 C54 1.634 . S
C1595 C88 1.634 . S
C1600 C379 1.624 . S
C1625 C462 1.633 . S
C1630 C413 1.623 . S
C1655 C496 1.633 . S
C1660 C447 1.623 . S
C1685 C530 1.633 . S
C1690 C481 1.623 . S
C1715 C515 1.623 . S
C1720 C428 1.633 . S
