# Generated by pormake.
# Topology umo, (4)-cn, num edge types: 1
# Building blocks:
#     Node 0, Type 0, BuildingBlock: NAWXER_clean_sbu_0, # of connection points: 4
#     Node 1, Type 0, BuildingBlock: NAWXER_clean_sbu_0, # of connection points: 4
#     Node 2, Type 0, BuildingBlock: NAWXER_clean_sbu_0, # of connection points: 4
#     Node 3, Type 0, BuildingBlock: NAWXER_clean_sbu_0, # of connection points: 4
#     Node 4, Type 0, BuildingBlock: NAWXER_clean_sbu_0, # of connection points: 4
#     Node 5, Type 0, BuildingBlock: NAWXER_clean_sbu_0, # of connection points: 4
#     Node 6, Type 0, BuildingBlock: NAWXER_clean_sbu_0, # of connection points: 4
#     Node 7, Type 0, BuildingBlock: NAWXER_clean_sbu_0, # of connection points: 4
#     Node 8, Type 0, BuildingBlock: NAWXER_clean_sbu_0, # of connection points: 4
#     Node 9, Type 0, BuildingBlock: NAWXER_clean_sbu_0, # of connection points: 4
#     Node 10, Type 0, BuildingBlock: NAWXER_clean_sbu_0, # of connection points: 4
#     Node 11, Type 0, BuildingBlock: NAWXER_clean_sbu_0, # of connection points: 4
#     Edge 12, Type (0, 0), BuildingBlock: AJUNOK_clean_linker_0, # of connection points: 2
#     Edge 13, Type (0, 0), BuildingBlock: AJUNOK_clean_linker_0, # of connection points: 2
#     Edge 14, Type (0, 0), BuildingBlock: AJUNOK_clean_linker_0, # of connection points: 2
#     Edge 15, Type (0, 0), BuildingBlock: AJUNOK_clean_linker_0, # of connection points: 2
#     Edge 16, Type (0, 0), BuildingBlock: AJUNOK_clean_linker_0, # of connection points: 2
#     Edge 17, Type (0, 0), BuildingBlock: AJUNOK_clean_linker_0, # of connection points: 2
#     Edge 18, Type (0, 0), BuildingBlock: AJUNOK_clean_linker_0, # of connection points: 2
#     Edge 19, Type (0, 0), BuildingBlock: AJUNOK_clean_linker_0, # of connection points: 2
#     Edge 20, Type (0, 0), BuildingBlock: AJUNOK_clean_linker_0, # of connection points: 2
#     Edge 21, Type (0, 0), BuildingBlock: AJUNOK_clean_linker_0, # of connection points: 2
#     Edge 22, Type (0, 0), BuildingBlock: AJUNOK_clean_linker_0, # of connection points: 2
#     Edge 23, Type (0, 0), BuildingBlock: AJUNOK_clean_linker_0, # of connection points: 2
#     Edge 24, Type (0, 0), BuildingBlock: AJUNOK_clean_linker_0, # of connection points: 2
#     Edge 25, Type (0, 0), BuildingBlock: AJUNOK_clean_linker_0, # of connection points: 2
#     Edge 26, Type (0, 0), BuildingBlock: AJUNOK_clean_linker_0, # of connection points: 2
#     Edge 27, Type (0, 0), BuildingBlock: AJUNOK_clean_linker_0, # of connection points: 2
#     Edge 28, Type (0, 0), BuildingBlock: AJUNOK_clean_linker_0, # of connection points: 2
#     Edge 29, Type (0, 0), BuildingBlock: AJUNOK_clean_linker_0, # of connection points: 2
#     Edge 30, Type (0, 0), BuildingBlock: AJUNOK_clean_linker_0, # of connection points: 2
#     Edge 31, Type (0, 0), BuildingBlock: AJUNOK_clean_linker_0, # of connection points: 2
#     Edge 32, Type (0, 0), BuildingBlock: AJUNOK_clean_linker_0, # of connection points: 2
#     Edge 33, Type (0, 0), BuildingBlock: AJUNOK_clean_linker_0, # of connection points: 2
#     Edge 34, Type (0, 0), BuildingBlock: AJUNOK_clean_linker_0, # of connection points: 2
#     Edge 35, Type (0, 0), BuildingBlock: AJUNOK_clean_linker_0, # of connection points: 2
# Relax obj value: 0.169
# Max RMSD: 0.217
# Mean RMSD: 0.217
data_MOF--net-umo--node1-NAWXER_clean_sbu_0--edge1-AJUNOK_clean_linker_0
_symmetry_space_group_name_H-M    P1
_symmetry_Int_Tables_number       1
_symmetry_cell_setting            triclinic
loop_
_symmetry_equiv_pos_as_xyz
'x, y, z'
_cell_length_a     36.827703
_cell_length_b     36.973782
_cell_length_c     26.449696
_cell_angle_alpha  90.167109
_cell_angle_beta   89.871136
_cell_angle_gamma 120.13322
loop_
_atom_site_label
_atom_site_type_symbol
_atom_site_fract_x
_atom_site_fract_y
_atom_site_fract_z
_atom_type_partial_charge
C0 C 0.21564 0.60337 0.42203 0.0
C1 C 0.07239 0.49895 0.38502 0.0
O2 O 0.20553 0.56827 0.44282 0.0
Zn3 Zn 0.15198 0.50571 0.44307 0.0
O4 O 0.19014 0.60643 0.39257 0.0
Zn5 Zn 0.14535 0.55021 0.40083 0.0
O6 O 0.13266 0.54932 0.48086 0.0
O7 O 0.14058 0.49947 0.51508 0.0
O8 O 0.09345 0.53667 0.37067 0.0
O9 O 0.09013 0.48314 0.41154 0.0
O10 O 0.17411 0.47355 0.41005 0.0
O11 O 0.16766 0.51625 0.35776 0.0
C12 C 0.13241 0.52891 0.52013 0.0
C13 C 0.17781 0.48833 0.36583 0.0
C14 C 0.5616 0.07437 0.54438 0.0
C15 C 0.59014 0.21391 0.58191 0.0
O16 O 0.59535 0.09398 0.57058 0.0
Zn17 Zn 0.63206 0.15665 0.60059 0.0
O18 O 0.54329 0.09359 0.52919 0.0
Zn19 Zn 0.57915 0.14623 0.55957 0.0
O20 O 0.6363 0.17444 0.51612 0.0
O21 O 0.68635 0.18154 0.56769 0.0
O22 O 0.56154 0.18635 0.55404 0.0
O23 O 0.61859 0.20752 0.60051 0.0
O24 O 0.62903 0.14597 0.67239 0.0
O25 O 0.56879 0.13336 0.63965 0.0
C26 C 0.67512 0.18678 0.52428 0.0
C27 C 0.59054 0.13495 0.67825 0.0
C28 C 0.47532 0.67694 0.69616 0.0
C29 C 0.43098 0.58765 0.84725 0.0
O30 O 0.44643 0.6394 0.68659 0.0
Zn31 Zn 0.41115 0.58232 0.72743 0.0
O32 O 0.49046 0.68627 0.7405 0.0
Zn33 Zn 0.4563 0.63158 0.77185 0.0
O34 O 0.47699 0.5909 0.74025 0.0
O35 O 0.42349 0.54371 0.69571 0.0
O36 O 0.46144 0.62507 0.84376 0.0
O37 O 0.41083 0.56864 0.80713 0.0
O38 O 0.35514 0.57195 0.71966 0.0
O39 O 0.39408 0.62394 0.77203 0.0
C40 C 0.46044 0.55796 0.7124 0.0
C41 C 0.35871 0.59983 0.75068 0.0
C42 C 0.75372 0.37074 0.91264 0.0
C43 C 0.89262 0.48796 0.88241 0.0
O44 O 0.75917 0.40441 0.9336 0.0
Zn45 Zn 0.80782 0.469 0.93875 0.0
O46 O 0.78245 0.37151 0.88512 0.0
Zn47 Zn 0.82156 0.43002 0.89377 0.0
O48 O 0.83358 0.43013 0.97374 0.0
O49 O 0.81647 0.47283 1.01123 0.0
O50 O 0.87533 0.45183 0.86272 0.0
O51 O 0.8715 0.49847 0.91144 0.0
O52 O 0.78107 0.49726 0.90712 0.0
O53 O 0.7919 0.45807 0.85323 0.0
C54 C 0.82958 0.44692 1.0143 0.0
C55 C 0.77777 0.48274 0.86272 0.0
C56 C 0.40821 0.89512 0.05213 0.0
C57 C 0.36388 0.7503 0.08456 0.0
O58 O 0.37404 0.8776 0.07785 0.0
Zn59 Zn 0.33256 0.81585 0.10699 0.0
O60 O 0.42415 0.87358 0.03692 0.0
Zn61 Zn 0.38383 0.82139 0.06534 0.0
O62 O 0.32794 0.80076 1.02135 0.0
O63 O 0.27907 0.79645 0.07315 0.0
O64 O 0.39362 0.77565 0.05615 0.0
O65 O 0.33934 0.76115 0.10544 0.0
O66 O 0.3365 0.82573 0.17914 0.0
O67 O 0.39442 0.83223 0.14601 0.0
C68 C 0.28996 0.79181 1.0291 0.0
C69 C 0.3737 0.83251 0.18496 0.0
C70 C 0.49539 0.29841 0.18842 0.0
C71 C 0.51983 0.37727 0.34673 0.0
O72 O 0.52237 0.33741 0.18447 0.0
Zn73 Zn 0.54645 0.39266 0.22953 0.0
O74 O 0.47358 0.2849 0.22854 0.0
Zn75 Zn 0.5012 0.33767 0.26666 0.0
O76 O 0.47651 0.37504 0.23677 0.0
O77 O 0.52969 0.42829 0.19873 0.0
O78 O 0.49227 0.33902 0.33956 0.0
O79 O 0.54046 0.39957 0.30879 0.0
O80 O 0.60482 0.41081 0.22807 0.0
O81 O 0.56576 0.35095 0.26836 0.0
C82 C 0.49142 0.40928 0.2118 0.0
C83 C 0.60172 0.37989 0.2527 0.0
C84 C 0.48199 0.78674 0.53805 0.0
C85 C 0.44104 0.83268 0.38476 0.0
O86 O 0.45461 0.79764 0.54664 0.0
Zn87 Zn 0.42168 0.82127 0.50478 0.0
O88 O 0.497 0.79072 0.49378 0.0
Zn89 Zn 0.46552 0.8138 0.461 0.0
O90 O 0.4891 0.87601 0.49125 0.0
O91 O 0.43668 0.87361 0.53462 0.0
O92 O 0.47048 0.82422 0.38844 0.0
O93 O 0.42182 0.83335 0.42491 0.0
O94 O 0.36475 0.77728 0.51327 0.0
O95 O 0.40231 0.76136 0.46194 0.0
C96 C 0.47404 0.8943 0.51829 0.0
C97 C 0.36731 0.75188 0.48308 0.0
C98 C 0.58185 0.43761 0.55 0.0
C99 C 0.66572 0.47527 0.70515 0.0
O100 O 0.56038 0.41678 0.5885 0.0
Zn101 Zn 0.57071 0.41519 0.66892 0.0
O102 O 0.61973 0.46654 0.55622 0.0
Zn103 Zn 0.62271 0.45948 0.62817 0.0
O104 O 0.61296 0.39642 0.62876 0.0
O105 O 0.55623 0.35834 0.67505 0.0
O106 O 0.67646 0.49167 0.66162 0.0
O107 O 0.62739 0.44708 0.71306 0.0
O108 O 0.53234 0.429 0.69856 0.0
O109 O 0.58285 0.48221 0.65717 0.0
C110 C 0.58572 0.361 0.64744 0.0
C111 C 0.54867 0.46627 0.68285 0.0
C112 C 0.18232 0.68979 0.8678 0.0
C113 C 0.13131 0.59861 0.71787 0.0
O114 O 0.17005 0.65149 0.87757 0.0
Zn115 Zn 0.14355 0.59361 0.83844 0.0
O116 O 0.17872 0.70014 0.82314 0.0
Zn117 Zn 0.15311 0.64442 0.79211 0.0
O118 O 0.09078 0.60852 0.82294 0.0
O119 O 0.09091 0.56005 0.8715 0.0
O120 O 0.14185 0.63711 0.72006 0.0
O121 O 0.12975 0.57935 0.75883 0.0
O122 O 0.18648 0.57898 0.84707 0.0
O123 O 0.2035 0.63109 0.7936 0.0
C124 C 0.07163 0.57731 0.85299 0.0
C125 C 0.21203 0.6054 0.81549 0.0
C126 C 0.50196 0.07411 1.01735 0.0
C127 C 0.60848 0.21486 0.97247 0.0
O128 O 0.48607 0.09226 0.99192 0.0
Zn129 Zn 0.50831 0.15314 0.96016 0.0
O130 O 0.54038 0.0944 1.0297 0.0
Zn131 Zn 0.55521 0.14616 0.99767 0.0
O132 O 0.52881 0.17581 0.04199 0.0
O133 O 0.47867 0.17649 0.9973 0.0
O134 O 0.61318 0.18834 0.99788 0.0
O135 O 0.57185 0.20602 0.95721 0.0
O136 O 0.49889 0.14117 0.88781 0.0
O137 O 0.54895 0.13178 0.91881 0.0
C138 C 0.50037 0.18589 0.03756 0.0
C139 C 0.52739 0.13172 0.88091 0.0
C140 C 0.39664 0.49398 0.1811 0.0
C141 C 0.35819 0.59786 0.14366 0.0
O142 O 0.36258 0.47777 0.1552 0.0
Zn143 Zn 0.32249 0.49964 0.12515 0.0
O144 O 0.41316 0.5316 0.19591 0.0
Zn145 Zn 0.37446 0.54479 0.16619 0.0
O146 O 0.31849 0.51257 0.21035 0.0
O147 O 0.26858 0.46824 0.15955 0.0
O148 O 0.38696 0.60132 0.17308 0.0
O149 O 0.33237 0.56243 0.12384 0.0
O150 O 0.32599 0.49204 0.05318 0.0
O151 O 0.38484 0.54243 0.08583 0.0
C152 C 0.28006 0.48463 0.20308 0.0
C153 C 0.36375 0.52137 0.04717 0.0
C154 C 0.78337 0.29656 0.36725 0.0
C155 C 0.83188 0.38115 0.2133 0.0
O156 O 0.79475 0.335 0.3755 0.0
Zn157 Zn 0.82071 0.39179 0.33228 0.0
O158 O 0.78798 0.28531 0.32344 0.0
Zn159 Zn 0.81179 0.33946 0.29088 0.0
O160 O 0.87427 0.37719 0.32173 0.0
O161 O 0.87302 0.42868 0.36245 0.0
O162 O 0.82228 0.34319 0.21869 0.0
O163 O 0.83298 0.40229 0.25235 0.0
O164 O 0.77882 0.40719 0.33905 0.0
O165 O 0.75934 0.35053 0.29262 0.0
C166 C 0.89305 0.41093 0.34801 0.0
C167 C 0.75146 0.37773 0.31195 0.0
C168 C 0.26749 0.64724 0.48737 0.0
C169 C 0.25515 0.64072 0.43627 0.0
C170 C 0.30382 0.68369 0.50273 0.0
C171 C 0.32936 0.71385 0.46714 0.0
H172 H 0.24837 0.62451 0.5158 0.0
H173 H 0.31218 0.68815 0.54244 0.0
S174 S 0.31136 0.71124 0.32903 0.0
N175 N 0.27109 0.66741 0.35036 0.0
N176 N 0.34052 0.73518 0.379 0.0
C177 C 0.31781 0.70741 0.41594 0.0
C178 C 0.28029 0.67096 0.40051 0.0
C179 C 0.62585 0.28927 0.60613 0.0
C180 C 0.58852 0.25137 0.59712 0.0
C181 C 0.62479 0.32474 0.62278 0.0
C182 C 0.58639 0.32298 0.63247 0.0
H183 H 0.65604 0.29162 0.59979 0.0
H184 H 0.65419 0.35361 0.62851 0.0
S185 S 0.47993 0.23079 0.61591 0.0
N186 N 0.5122 0.21402 0.59934 0.0
N187 N 0.5102 0.28035 0.63183 0.0
C188 C 0.54888 0.2851 0.62422 0.0
C189 C 0.54995 0.24935 0.60616 0.0
C190 C 0.27914 0.6071 0.83393 0.0
C191 C 0.24909 0.60372 0.7989 0.0
C192 C 0.31526 0.60689 0.81763 0.0
C193 C 0.32156 0.60201 0.76609 0.0
H194 H 0.27503 0.61059 0.87388 0.0
H195 H 0.33798 0.60967 0.84563 0.0
S196 S 0.25101 0.59064 0.66004 0.0
N197 N 0.22752 0.59535 0.71083 0.0
N198 N 0.29458 0.59309 0.68045 0.0
C199 C 0.2913 0.59789 0.73093 0.0
C200 C 0.25521 0.59927 0.74732 0.0
C201 C 0.71798 0.29424 0.92946 0.0
C202 C 0.71569 0.3309 0.9248 0.0
C203 C 0.68335 0.25692 0.94619 0.0
C204 C 0.64512 0.25492 0.95776 0.0
H205 H 0.74705 0.29464 0.92147 0.0
H206 H 0.68635 0.22933 0.9494 0.0
S207 S 0.62273 0.34201 0.9509 0.0
N208 N 0.6722 0.36295 0.93289 0.0
N209 N 0.60675 0.29246 0.9631 0.0
C210 C 0.64222 0.29117 0.95253 0.0
C211 C 0.67764 0.3293 0.93638 0.0
C212 C 0.35641 0.69883 0.14942 0.0
C213 C 0.36011 0.71018 0.09814 0.0
C214 C 0.3557 0.66216 0.16418 0.0
C215 C 0.35719 0.63523 0.12789 0.0
H216 H 0.35538 0.7191 0.17839 0.0
H217 H 0.35389 0.65479 0.20405 0.0
S218 S 0.36549 0.6501 0.98895 0.0
N219 N 0.36509 0.69173 1.0112 0.0
N220 N 0.36173 0.62158 0.0388 0.0
C221 C 0.35976 0.64563 0.07648 0.0
C222 C 0.36178 0.68355 0.06159 0.0
C223 C 0.71236 0.41494 0.2946 0.0
C224 C 0.71238 0.37703 0.29855 0.0
C225 C 0.67665 0.41565 0.27828 0.0
C226 C 0.63954 0.37841 0.26647 0.0
H227 H 0.74041 0.44439 0.30313 0.0
H228 H 0.67788 0.4455 0.27582 0.0
S229 S 0.62316 0.271 0.27106 0.0
N230 N 0.67234 0.30137 0.28908 0.0
N231 N 0.60465 0.30265 0.25982 0.0
C232 C 0.63894 0.34026 0.27073 0.0
C233 C 0.67556 0.33959 0.28638 0.0
C234 C 0.12528 0.59718 0.62321 0.0
C235 C 0.12585 0.57729 0.6682 0.0
C236 C 0.12554 0.58026 0.57573 0.0
C237 C 0.12676 0.54286 0.57101 0.0
H238 H 0.12578 0.6267 0.62453 0.0
H239 H 0.12626 0.5976 0.54244 0.0
S240 S 0.12601 0.47694 0.67706 0.0
N241 N 0.12533 0.5166 0.70485 0.0
N242 N 0.12629 0.4853 0.61578 0.0
C243 C 0.12575 0.52178 0.61566 0.0
C244 C 0.12513 0.53883 0.66409 0.0
C245 C 0.53601 0.13223 0.73749 0.0
C246 C 0.57168 0.12816 0.72953 0.0
C247 C 0.52051 0.13129 0.78631 0.0
C248 C 0.53981 0.12587 0.82919 0.0
H249 H 0.52093 0.13805 0.70595 0.0
H250 H 0.49417 0.13642 0.79048 0.0
S251 S 0.63081 0.10815 0.82816 0.0
N252 N 0.62349 0.11472 0.76813 0.0
N253 N 0.5943 0.11222 0.85966 0.0
C254 C 0.574 0.1192 0.82138 0.0
C255 C 0.58997 0.12059 0.77169 0.0
C256 C 0.42051 0.57267 0.98988 0.0
C257 C 0.38246 0.5346 0.99581 0.0
C258 C 0.43678 0.58876 0.94188 0.0
C259 C 0.41588 0.56742 0.89755 0.0
H260 H 0.43736 0.59116 1.02259 0.0
H261 H 0.4654 0.61881 0.93966 0.0
S262 S 0.31693 0.46457 0.89204 0.0
N263 N 0.32567 0.47467 0.95302 0.0
N264 N 0.35617 0.50453 0.8629 0.0
C265 C 0.37871 0.52835 0.90291 0.0
C266 C 0.36203 0.51207 0.9519 0.0
C267 C 0.83509 0.43688 0.15671 0.0
C268 C 0.83708 0.39998 0.16225 0.0
C269 C 0.83435 0.45275 0.10887 0.0
C270 C 0.83599 0.43269 0.0644 0.0
H271 H 0.8324 0.45293 0.18959 0.0
H272 H 0.8313 0.48036 0.10685 0.0
S273 S 0.84569 0.33734 0.05798 0.0
N274 N 0.8437 0.34548 0.11905 0.0
N275 N 0.84278 0.37533 1.02918 0.0
C276 C 0.8402 0.39694 0.06939 0.0
C277 C 0.84058 0.38057 0.11821 0.0
C278 C 0.43057 0.83768 0.24201 0.0
C279 C 0.3922 0.83712 0.23631 0.0
C280 C 0.44688 0.83769 0.28996 0.0
C281 C 0.42573 0.83744 0.33442 0.0
H282 H 0.44774 0.83686 0.20914 0.0
H283 H 0.47585 0.83692 0.29206 0.0
S284 S 0.32525 0.83845 0.34063 0.0
N285 N 0.33443 0.83816 0.2796 0.0
N286 N 0.36497 0.83854 0.36945 0.0
C287 C 0.38806 0.83846 0.3293 0.0
C288 C 0.37134 0.83818 0.28043 0.0
C289 C 0.51309 0.37039 0.44147 0.0
C290 C 0.53224 0.39528 0.39861 0.0
C291 C 0.52827 0.38506 0.49038 0.0
C292 C 0.56348 0.42508 0.49849 0.0
H293 H 0.48701 0.3388 0.43722 0.0
H294 H 0.51321 0.36408 0.5219 0.0
S295 S 0.62253 0.50445 0.39985 0.0
N296 N 0.58646 0.46366 0.36829 0.0
N297 N 0.61499 0.49055 0.45988 0.0
C298 C 0.58177 0.45099 0.45629 0.0
C299 C 0.56613 0.4363 0.40654 0.0
C300 C 0.96145 0.47533 0.36291 0.0
C301 C 0.93858 0.43157 0.35782 0.0
C302 C 0.00476 0.49661 0.37072 0.0
C303 C 0.0269 0.47497 0.37478 0.0
H304 H 0.94588 0.49352 0.36011 0.0
H305 H 0.02089 0.53035 0.37444 0.0
S306 S -0.01816 0.36022 0.36453 0.0
N307 N 0.94121 0.36715 0.35694 0.0
N308 N 0.02298 0.40733 0.37317 0.0
C309 C 0.00453 0.43116 0.37018 0.0
C310 C 0.9603 0.40942 0.36118 0.0
C311 C 0.47594 0.96186 0.52898 0.0
C312 C 0.49797 0.94002 0.52587 0.0
C313 C 0.49709 0.00534 0.53374 0.0
C314 C 0.54113 0.02873 0.53668 0.0
H315 H 0.44197 0.94533 0.52682 0.0
H316 H 0.4786 0.02064 0.53604 0.0
S317 S 0.61356 -0.01349 0.53113 0.0
N318 N 0.56629 0.94484 0.5258 0.0
N319 N 0.60624 0.02694 0.53652 0.0
C320 C 0.56368 0.00735 0.53419 0.0
C321 C 0.54206 0.96291 0.52821 0.0
C322 C 0.52695 0.55536 0.70389 0.0
C323 C 0.48278 0.53468 0.70323 0.0
C324 C 0.54835 0.53321 0.69677 0.0
C325 C 0.52621 0.48955 0.69029 0.0
H326 H 0.54508 0.58889 0.70958 0.0
H327 H 0.58236 0.55023 0.69716 0.0
S328 S 0.41045 0.42073 0.68545 0.0
N329 N 0.41777 0.46807 0.69485 0.0
N330 N 0.45787 0.42658 0.68263 0.0
C331 C 0.48211 0.46857 0.68966 0.0
C332 C 0.46041 0.49111 0.69581 0.0
C333 C -0.00082 0.55315 0.82218 0.0
C334 C 0.02643 0.55921 0.86264 0.0
C335 C 0.95551 0.53095 0.82898 0.0
C336 C 0.93803 0.51555 0.87677 0.0
H337 H 0.01162 0.56381 0.78456 0.0
H338 H 0.9353 0.52509 0.7966 0.0
S339 S -0.00429 0.52569 0.99533 0.0
N340 N 0.03287 0.54935 0.95228 0.0
N341 N 0.95073 0.5092 0.96543 0.0
C342 C 0.96488 0.52308 0.91791 0.0
C343 C 0.0092 0.54456 0.91075 0.0
C344 C 0.49742 0.00559 1.03221 0.0
C345 C 0.47694 0.0289 1.02813 0.0
C346 C 0.47473 0.96228 0.03913 0.0
C347 C 0.43073 0.94067 0.04329 0.0
H348 H 0.53127 0.02075 1.02894 0.0
H349 H 0.49193 0.94568 0.04185 0.0
S350 S 0.3621 -0.01277 0.03636 0.0
N351 N 0.4101 0.0273 1.02899 0.0
N352 N 0.3674 0.94574 0.04344 0.0
C353 C 0.4098 0.96359 0.04009 0.0
C354 C 0.43291 0.00774 1.03206 0.0
C355 C 0.46304 0.49336 0.19405 0.0
C356 C 0.41907 0.4708 0.1896 0.0
C357 C 0.48595 0.47293 0.2 0.0
C358 C 0.4658 0.42909 0.20275 0.0
H359 H 0.48012 0.52721 0.19214 0.0
H360 H 0.51977 0.49181 0.20338 0.0
S361 S 0.35117 0.35541 0.19359 0.0
N362 N 0.35606 0.40216 0.18796 0.0
N363 N 0.39928 0.36357 0.20071 0.0
C364 C 0.42179 0.406 0.19878 0.0
C365 C 0.3984 0.42689 0.19169 0.0
C366 C 0.23587 0.47772 0.33461 0.0
C367 C 0.19843 0.47785 0.32482 0.0
C368 C 0.26111 0.47745 0.29484 0.0
C369 C 0.24917 0.47603 0.24399 0.0
H370 H 0.24724 0.48083 0.37302 0.0
H371 H 0.29101 0.48006 0.3039 0.0
S372 S 0.15152 0.47111 0.1988 0.0
N373 N 0.1491 0.47352 0.26099 0.0
N374 N 0.19563 0.47134 0.1864 0.0
C375 C 0.21026 0.473 0.23396 0.0
C376 C 0.18514 0.47439 0.27436 0.0
C377 C 0.72286 0.2283 0.39513 0.0
C378 C 0.76034 0.26525 0.40713 0.0
C379 C 0.69617 0.20198 0.43332 0.0
C380 C 0.70663 0.21101 0.48476 0.0
H381 H 0.71281 0.22099 0.35613 0.0
H382 H 0.66654 0.175 0.42253 0.0
S383 S 0.80329 0.302 0.53562 0.0
N384 N 0.80775 0.30839 0.47368 0.0
N385 N 0.75853 0.25816 0.54538 0.0
C386 C 0.74532 0.24652 0.49703 0.0
C387 C 0.7719 0.27386 0.45822 0.0
C388 C 0.48634 0.69898 0.60542 0.0
C389 C 0.48677 0.70942 0.65677 0.0
C390 C 0.48886 0.72617 0.56677 0.0
C391 C 0.49068 0.76422 0.57813 0.0
H392 H 0.48226 0.6688 0.59502 0.0
H393 H 0.48622 0.71589 0.52786 0.0
S394 S 0.49607 0.80769 0.7062 0.0
N395 N 0.49281 0.76213 0.71668 0.0
N396 N 0.49586 0.81237 0.64412 0.0
C397 C 0.49331 0.77597 0.62919 0.0
C398 C 0.49185 0.74881 0.66851 0.0
C399 C 0.71358 0.48395 0.83497 0.0
C400 C 0.75331 0.48944 0.82329 0.0
C401 C 0.68597 0.48119 0.79655 0.0
C402 C 0.69754 0.48495 0.7452 0.0
H403 H 0.7027 0.47909 0.87379 0.0
H404 H 0.65483 0.47477 0.80706 0.0
S405 S 0.79985 0.50365 0.69539 0.0
N406 N 0.80386 0.50096 0.75728 0.0
N407 N 0.7528 0.49741 0.68523 0.0
C408 C 0.73827 0.49313 0.73338 0.0
C409 C 0.7659 0.49489 0.77239 0.0
C410 C 0.27126 0.78037 0.93711 0.0
C411 C 0.2586 0.7715 0.98806 0.0
C412 C 0.24466 0.75605 0.89755 0.0
C413 C 0.2049 0.72137 0.90769 0.0
H414 H 0.30264 0.80521 0.92784 0.0
H415 H 0.25652 0.76258 0.85916 0.0
S416 S 0.15535 0.68689 0.0338 0.0
N417 N 0.20202 0.72769 0.04587 0.0
N418 N 0.15283 0.68122 0.97172 0.0
C419 C 0.191 0.71355 0.95812 0.0
C420 C 0.21762 0.73885 0.99827 0.0
C421 C 0.45838 0.23496 0.13148 0.0
C422 C 0.49565 0.26932 0.1499 0.0
C423 C 0.45959 0.20808 0.0943 0.0
C424 C 0.49814 0.21394 0.07602 0.0
H425 H 0.42824 0.22929 0.14521 0.0
H426 H 0.43035 0.18225 0.08046 0.0
S427 S 0.60441 0.29862 0.11312 0.0
N428 N 0.57197 0.30749 0.14696 0.0
N429 N 0.57422 0.25654 0.07918 0.0
C430 C 0.53543 0.24784 0.0948 0.0
C431 C 0.5342 0.27561 0.13124 0.0
loop_
_geom_bond_atom_site_label_1
_geom_bond_atom_site_label_2
_geom_bond_distance
_geom_bond_site_symmetry_2
_ccdc_geom_bond_type
C0 O2 1.247 . S
C0 O4 1.258 . S
C1 O8 1.247 . S
C1 O9 1.258 . S
O2 C0 1.247 . S
O2 Zn3 2.028 . S
Zn3 O2 2.028 . S
Zn3 O7 2.035 . S
Zn3 O9 2.035 . S
Zn3 O10 2.028 . S
O4 C0 1.258 . S
O4 Zn5 2.035 . S
Zn5 O4 2.035 . S
Zn5 O6 2.028 . S
Zn5 O8 2.028 . S
Zn5 O11 2.035 . S
O6 Zn5 2.028 . S
O6 C12 1.247 . S
O7 Zn3 2.035 . S
O7 C12 1.258 . S
O8 C1 1.247 . S
O8 Zn5 2.028 . S
O9 C1 1.258 . S
O9 Zn3 2.035 . S
O10 Zn3 2.028 . S
O10 C13 1.247 . S
O11 Zn5 2.035 . S
O11 C13 1.258 . S
C12 O6 1.247 . S
C12 O7 1.258 . S
C13 O10 1.247 . S
C13 O11 1.258 . S
C14 O16 1.247 . S
C14 O18 1.258 . S
C15 O22 1.247 . S
C15 O23 1.258 . S
O16 C14 1.247 . S
O16 Zn17 2.028 . S
Zn17 O16 2.028 . S
Zn17 O21 2.035 . S
Zn17 O23 2.035 . S
Zn17 O24 2.028 . S
O18 C14 1.258 . S
O18 Zn19 2.035 . S
Zn19 O18 2.035 . S
Zn19 O20 2.028 . S
Zn19 O22 2.028 . S
Zn19 O25 2.035 . S
O20 Zn19 2.028 . S
O20 C26 1.247 . S
O21 Zn17 2.035 . S
O21 C26 1.258 . S
O22 C15 1.247 . S
O22 Zn19 2.028 . S
O23 C15 1.258 . S
O23 Zn17 2.035 . S
O24 Zn17 2.028 . S
O24 C27 1.247 . S
O25 Zn19 2.035 . S
O25 C27 1.258 . S
C26 O20 1.247 . S
C26 O21 1.258 . S
C27 O24 1.247 . S
C27 O25 1.258 . S
C28 O30 1.247 . S
C28 O32 1.258 . S
C29 O36 1.247 . S
C29 O37 1.258 . S
O30 C28 1.247 . S
O30 Zn31 2.028 . S
Zn31 O30 2.028 . S
Zn31 O35 2.035 . S
Zn31 O37 2.035 . S
Zn31 O38 2.028 . S
O32 C28 1.258 . S
O32 Zn33 2.035 . S
Zn33 O32 2.035 . S
Zn33 O34 2.028 . S
Zn33 O36 2.028 . S
Zn33 O39 2.035 . S
O34 Zn33 2.028 . S
O34 C40 1.247 . S
O35 Zn31 2.035 . S
O35 C40 1.258 . S
O36 C29 1.247 . S
O36 Zn33 2.028 . S
O37 C29 1.258 . S
O37 Zn31 2.035 . S
O38 Zn31 2.028 . S
O38 C41 1.247 . S
O39 Zn33 2.035 . S
O39 C41 1.258 . S
C40 O34 1.247 . S
C40 O35 1.258 . S
C41 O38 1.247 . S
C41 O39 1.258 . S
C42 O44 1.247 . S
C42 O46 1.258 . S
C43 O50 1.247 . S
C43 O51 1.258 . S
O44 C42 1.247 . S
O44 Zn45 2.028 . S
Zn45 O44 2.028 . S
Zn45 O49 2.035 . S
Zn45 O51 2.035 . S
Zn45 O52 2.028 . S
O46 C42 1.258 . S
O46 Zn47 2.035 . S
Zn47 O46 2.035 . S
Zn47 O48 2.028 . S
Zn47 O50 2.028 . S
Zn47 O53 2.035 . S
O48 Zn47 2.028 . S
O48 C54 1.247 . S
O49 Zn45 2.035 . S
O49 C54 1.258 . S
O50 C43 1.247 . S
O50 Zn47 2.028 . S
O51 C43 1.258 . S
O51 Zn45 2.035 . S
O52 Zn45 2.028 . S
O52 C55 1.247 . S
O53 Zn47 2.035 . S
O53 C55 1.258 . S
C54 O48 1.247 . S
C54 O49 1.258 . S
C55 O52 1.247 . S
C55 O53 1.258 . S
C56 O58 1.247 . S
C56 O60 1.258 . S
C57 O64 1.247 . S
C57 O65 1.258 . S
O58 C56 1.247 . S
O58 Zn59 2.028 . S
Zn59 O58 2.028 . S
Zn59 O63 2.035 . S
Zn59 O65 2.035 . S
Zn59 O66 2.028 . S
O60 C56 1.258 . S
O60 Zn61 2.035 . S
Zn61 O60 2.035 . S
Zn61 O62 2.028 1_554 S
Zn61 O64 2.028 . S
Zn61 O67 2.035 . S
O62 Zn61 2.028 1_556 S
O62 C68 1.247 . S
O63 Zn59 2.035 . S
O63 C68 1.258 1_554 S
O64 C57 1.247 . S
O64 Zn61 2.028 . S
O65 C57 1.258 . S
O65 Zn59 2.035 . S
O66 Zn59 2.028 . S
O66 C69 1.247 . S
O67 Zn61 2.035 . S
O67 C69 1.258 . S
C68 O62 1.247 . S
C68 O63 1.258 1_556 S
C69 O66 1.247 . S
C69 O67 1.258 . S
C70 O72 1.247 . S
C70 O74 1.258 . S
C71 O78 1.247 . S
C71 O79 1.258 . S
O72 C70 1.247 . S
O72 Zn73 2.028 . S
Zn73 O72 2.028 . S
Zn73 O77 2.035 . S
Zn73 O79 2.035 . S
Zn73 O80 2.028 . S
O74 C70 1.258 . S
O74 Zn75 2.035 . S
Zn75 O74 2.035 . S
Zn75 O76 2.028 . S
Zn75 O78 2.028 . S
Zn75 O81 2.035 . S
O76 Zn75 2.028 . S
O76 C82 1.247 . S
O77 Zn73 2.035 . S
O77 C82 1.258 . S
O78 C71 1.247 . S
O78 Zn75 2.028 . S
O79 C71 1.258 . S
O79 Zn73 2.035 . S
O80 Zn73 2.028 . S
O80 C83 1.247 . S
O81 Zn75 2.035 . S
O81 C83 1.258 . S
C82 O76 1.247 . S
C82 O77 1.258 . S
C83 O80 1.247 . S
C83 O81 1.258 . S
C84 O86 1.247 . S
C84 O88 1.258 . S
C85 O92 1.247 . S
C85 O93 1.258 . S
O86 C84 1.247 . S
O86 Zn87 2.028 . S
Zn87 O86 2.028 . S
Zn87 O91 2.035 . S
Zn87 O93 2.035 . S
Zn87 O94 2.028 . S
O88 C84 1.258 . S
O88 Zn89 2.035 . S
Zn89 O88 2.035 . S
Zn89 O90 2.028 . S
Zn89 O92 2.028 . S
Zn89 O95 2.035 . S
O90 Zn89 2.028 . S
O90 C96 1.247 . S
O91 Zn87 2.035 . S
O91 C96 1.258 . S
O92 C85 1.247 . S
O92 Zn89 2.028 . S
O93 C85 1.258 . S
O93 Zn87 2.035 . S
O94 Zn87 2.028 . S
O94 C97 1.247 . S
O95 Zn89 2.035 . S
O95 C97 1.258 . S
C96 O90 1.247 . S
C96 O91 1.258 . S
C97 O94 1.247 . S
C97 O95 1.258 . S
C98 O100 1.247 . S
C98 O102 1.258 . S
C99 O106 1.247 . S
C99 O107 1.258 . S
O100 C98 1.247 . S
O100 Zn101 2.028 . S
Zn101 O100 2.028 . S
Zn101 O105 2.035 . S
Zn101 O107 2.035 . S
Zn101 O108 2.028 . S
O102 C98 1.258 . S
O102 Zn103 2.035 . S
Zn103 O102 2.035 . S
Zn103 O104 2.028 . S
Zn103 O106 2.028 . S
Zn103 O109 2.035 . S
O104 Zn103 2.028 . S
O104 C110 1.247 . S
O105 Zn101 2.035 . S
O105 C110 1.258 . S
O106 C99 1.247 . S
O106 Zn103 2.028 . S
O107 C99 1.258 . S
O107 Zn101 2.035 . S
O108 Zn101 2.028 . S
O108 C111 1.247 . S
O109 Zn103 2.035 . S
O109 C111 1.258 . S
C110 O104 1.247 . S
C110 O105 1.258 . S
C111 O108 1.247 . S
C111 O109 1.258 . S
C112 O114 1.247 . S
C112 O116 1.258 . S
C113 O120 1.247 . S
C113 O121 1.258 . S
O114 C112 1.247 . S
O114 Zn115 2.028 . S
Zn115 O114 2.028 . S
Zn115 O119 2.035 . S
Zn115 O121 2.035 . S
Zn115 O122 2.028 . S
O116 C112 1.258 . S
O116 Zn117 2.035 . S
Zn117 O116 2.035 . S
Zn117 O118 2.028 . S
Zn117 O120 2.028 . S
Zn117 O123 2.035 . S
O118 Zn117 2.028 . S
O118 C124 1.247 . S
O119 Zn115 2.035 . S
O119 C124 1.258 . S
O120 C113 1.247 . S
O120 Zn117 2.028 . S
O121 C113 1.258 . S
O121 Zn115 2.035 . S
O122 Zn115 2.028 . S
O122 C125 1.247 . S
O123 Zn117 2.035 . S
O123 C125 1.258 . S
C124 O118 1.247 . S
C124 O119 1.258 . S
C125 O122 1.247 . S
C125 O123 1.258 . S
C126 O128 1.247 . S
C126 O130 1.258 . S
C127 O134 1.247 . S
C127 O135 1.258 . S
O128 C126 1.247 . S
O128 Zn129 2.028 . S
Zn129 O128 2.028 . S
Zn129 O133 2.035 . S
Zn129 O135 2.035 . S
Zn129 O136 2.028 . S
O130 C126 1.258 . S
O130 Zn131 2.035 . S
Zn131 O130 2.035 . S
Zn131 O132 2.028 1_556 S
Zn131 O134 2.028 . S
Zn131 O137 2.035 . S
O132 Zn131 2.028 1_554 S
O132 C138 1.247 . S
O133 Zn129 2.035 . S
O133 C138 1.258 1_556 S
O134 C127 1.247 . S
O134 Zn131 2.028 . S
O135 C127 1.258 . S
O135 Zn129 2.035 . S
O136 Zn129 2.028 . S
O136 C139 1.247 . S
O137 Zn131 2.035 . S
O137 C139 1.258 . S
C138 O132 1.247 . S
C138 O133 1.258 1_554 S
C139 O136 1.247 . S
C139 O137 1.258 . S
C140 O142 1.247 . S
C140 O144 1.258 . S
C141 O148 1.247 . S
C141 O149 1.258 . S
O142 C140 1.247 . S
O142 Zn143 2.028 . S
Zn143 O142 2.028 . S
Zn143 O147 2.035 . S
Zn143 O149 2.035 . S
Zn143 O150 2.028 . S
O144 C140 1.258 . S
O144 Zn145 2.035 . S
Zn145 O144 2.035 . S
Zn145 O146 2.028 . S
Zn145 O148 2.028 . S
Zn145 O151 2.035 . S
O146 Zn145 2.028 . S
O146 C152 1.247 . S
O147 Zn143 2.035 . S
O147 C152 1.258 . S
O148 C141 1.247 . S
O148 Zn145 2.028 . S
O149 C141 1.258 . S
O149 Zn143 2.035 . S
O150 Zn143 2.028 . S
O150 C153 1.247 . S
O151 Zn145 2.035 . S
O151 C153 1.258 . S
C152 O146 1.247 . S
C152 O147 1.258 . S
C153 O150 1.247 . S
C153 O151 1.258 . S
C154 O156 1.247 . S
C154 O158 1.258 . S
C155 O162 1.247 . S
C155 O163 1.258 . S
O156 C154 1.247 . S
O156 Zn157 2.028 . S
Zn157 O156 2.028 . S
Zn157 O161 2.035 . S
Zn157 O163 2.035 . S
Zn157 O164 2.028 . S
O158 C154 1.258 . S
O158 Zn159 2.035 . S
Zn159 O158 2.035 . S
Zn159 O160 2.028 . S
Zn159 O162 2.028 . S
Zn159 O165 2.035 . S
O160 Zn159 2.028 . S
O160 C166 1.247 . S
O161 Zn157 2.035 . S
O161 C166 1.258 . S
O162 C155 1.247 . S
O162 Zn159 2.028 . S
O163 C155 1.258 . S
O163 Zn157 2.035 . S
O164 Zn157 2.028 . S
O164 C167 1.247 . S
O165 Zn159 2.035 . S
O165 C167 1.258 . S
C166 O160 1.247 . S
C166 O161 1.258 . S
C167 O164 1.247 . S
C167 O165 1.258 . S
C168 C169 1.369 . S
C168 C170 1.419 . S
C168 H172 0.930 . S
C169 C168 1.369 . S
C169 C178 1.429 . S
C170 C168 1.419 . S
C170 C171 1.363 . S
C170 H173 0.929 . S
C171 C170 1.363 . S
C171 C177 1.428 . S
H172 C168 0.930 . S
H173 C170 0.929 . S
S174 N175 1.613 . S
S174 N176 1.610 . S
N175 S174 1.613 . S
N175 C178 1.350 . S
N176 S174 1.610 . S
N176 C177 1.351 . S
C177 C171 1.428 . S
C177 N176 1.351 . S
C177 C178 1.434 . S
C178 C169 1.429 . S
C178 N175 1.350 . S
C178 C177 1.434 . S
C179 C180 1.369 . S
C179 C181 1.419 . S
C179 H183 0.930 . S
C180 C179 1.369 . S
C180 C189 1.429 . S
C181 C179 1.419 . S
C181 C182 1.363 . S
C181 H184 0.929 . S
C182 C181 1.363 . S
C182 C188 1.428 . S
H183 C179 0.930 . S
H184 C181 0.929 . S
S185 N186 1.613 . S
S185 N187 1.610 . S
N186 S185 1.613 . S
N186 C189 1.350 . S
N187 S185 1.610 . S
N187 C188 1.351 . S
C188 C182 1.428 . S
C188 N187 1.351 . S
C188 C189 1.434 . S
C189 C180 1.429 . S
C189 N186 1.350 . S
C189 C188 1.434 . S
C190 C191 1.369 . S
C190 C192 1.419 . S
C190 H194 0.930 . S
C191 C190 1.369 . S
C191 C200 1.429 . S
C192 C190 1.419 . S
C192 C193 1.363 . S
C192 H195 0.929 . S
C193 C192 1.363 . S
C193 C199 1.428 . S
H194 C190 0.930 . S
H195 C192 0.929 . S
S196 N197 1.613 . S
S196 N198 1.610 . S
N197 S196 1.613 . S
N197 C200 1.350 . S
N198 S196 1.610 . S
N198 C199 1.351 . S
C199 C193 1.428 . S
C199 N198 1.351 . S
C199 C200 1.434 . S
C200 C191 1.429 . S
C200 N197 1.350 . S
C200 C199 1.434 . S
C201 C202 1.369 . S
C201 C203 1.419 . S
C201 H205 0.930 . S
C202 C201 1.369 . S
C202 C211 1.429 . S
C203 C201 1.419 . S
C203 C204 1.363 . S
C203 H206 0.929 . S
C204 C203 1.363 . S
C204 C210 1.428 . S
H205 C201 0.930 . S
H206 C203 0.929 . S
S207 N208 1.613 1_554 S
S207 N209 1.610 1_554 S
N208 S207 1.613 1_556 S
N208 C211 1.350 . S
N209 S207 1.610 1_556 S
N209 C210 1.351 . S
C210 C204 1.428 . S
C210 N209 1.351 . S
C210 C211 1.434 . S
C211 C202 1.429 . S
C211 N208 1.350 . S
C211 C210 1.434 . S
C212 C213 1.369 . S
C212 C214 1.419 . S
C212 H216 0.930 . S
C213 C212 1.369 . S
C213 C222 1.429 . S
C214 C212 1.419 . S
C214 C215 1.363 . S
C214 H217 0.929 . S
C215 C214 1.363 . S
C215 C221 1.428 . S
H216 C212 0.930 . S
H217 C214 0.929 . S
S218 N219 1.613 1_556 S
S218 N220 1.605 1_556 S
N219 S218 1.613 1_554 S
N219 C222 1.350 . S
N220 S218 1.605 1_554 S
N220 C221 1.360 . S
C221 C215 1.428 . S
C221 N220 1.360 . S
C221 C222 1.434 . S
C222 C213 1.429 . S
C222 N219 1.350 . S
C222 C221 1.434 . S
C223 C224 1.369 . S
C223 C225 1.419 . S
C223 H227 0.930 . S
C224 C223 1.369 . S
C224 C233 1.429 . S
C225 C223 1.419 . S
C225 C226 1.363 . S
C225 H228 0.929 . S
C226 C225 1.363 . S
C226 C232 1.428 . S
H227 C223 0.930 . S
H228 C225 0.929 . S
S229 N230 1.613 . S
S229 N231 1.610 . S
N230 S229 1.613 . S
N230 C233 1.350 . S
N231 S229 1.610 . S
N231 C232 1.351 . S
C232 C226 1.428 . S
C232 N231 1.351 . S
C232 C233 1.434 . S
C233 C224 1.429 . S
C233 N230 1.350 . S
C233 C232 1.434 . S
C234 C235 1.369 . S
C234 C236 1.419 . S
C234 H238 0.930 . S
C235 C234 1.369 . S
C235 C244 1.429 . S
C236 C234 1.419 . S
C236 C237 1.363 . S
C236 H239 0.929 . S
C237 C236 1.363 . S
C237 C243 1.428 . S
H238 C234 0.930 . S
H239 C236 0.929 . S
S240 N241 1.613 . S
S240 N242 1.610 . S
N241 S240 1.613 . S
N241 C244 1.350 . S
N242 S240 1.610 . S
N242 C243 1.351 . S
C243 C237 1.428 . S
C243 N242 1.351 . S
C243 C244 1.434 . S
C244 C235 1.429 . S
C244 N241 1.350 . S
C244 C243 1.434 . S
C245 C246 1.369 . S
C245 C247 1.419 . S
C245 H249 0.930 . S
C246 C245 1.369 . S
C246 C255 1.429 . S
C247 C245 1.419 . S
C247 C248 1.363 . S
C247 H250 0.929 . S
C248 C247 1.363 . S
C248 C254 1.428 . S
H249 C245 0.930 . S
H250 C247 0.929 . S
S251 N252 1.613 . S
S251 N253 1.610 . S
N252 S251 1.613 . S
N252 C255 1.350 . S
N253 S251 1.610 . S
N253 C254 1.351 . S
C254 C248 1.428 . S
C254 N253 1.351 . S
C254 C255 1.434 . S
C255 C246 1.429 . S
C255 N252 1.350 . S
C255 C254 1.434 . S
C256 C257 1.369 . S
C256 C258 1.419 . S
C256 H260 0.930 . S
C257 C256 1.369 . S
C257 C266 1.429 . S
C258 C256 1.419 . S
C258 C259 1.363 . S
C258 H261 0.929 . S
C259 C258 1.363 . S
C259 C265 1.428 . S
H260 C256 0.930 . S
H261 C258 0.929 . S
S262 N263 1.613 . S
S262 N264 1.610 . S
N263 S262 1.613 . S
N263 C266 1.350 . S
N264 S262 1.610 . S
N264 C265 1.351 . S
C265 C259 1.428 . S
C265 N264 1.351 . S
C265 C266 1.434 . S
C266 C257 1.429 . S
C266 N263 1.350 . S
C266 C265 1.434 . S
C267 C268 1.369 . S
C267 C269 1.419 . S
C267 H271 0.930 . S
C268 C267 1.369 . S
C268 C277 1.429 . S
C269 C267 1.419 . S
C269 C270 1.363 . S
C269 H272 0.929 . S
C270 C269 1.363 . S
C270 C276 1.428 . S
H271 C267 0.930 . S
H272 C269 0.929 . S
S273 N274 1.613 . S
S273 N275 1.610 . S
N274 S273 1.613 . S
N274 C277 1.350 . S
N275 S273 1.610 . S
N275 C276 1.351 . S
C276 C270 1.428 . S
C276 N275 1.351 . S
C276 C277 1.434 . S
C277 C268 1.429 . S
C277 N274 1.350 . S
C277 C276 1.434 . S
C278 C279 1.369 . S
C278 C280 1.419 . S
C278 H282 0.930 . S
C279 C278 1.369 . S
C279 C288 1.429 . S
C280 C278 1.419 . S
C280 C281 1.363 . S
C280 H283 0.929 . S
C281 C280 1.363 . S
C281 C287 1.428 . S
H282 C278 0.930 . S
H283 C280 0.929 . S
S284 N285 1.613 . S
S284 N286 1.610 . S
N285 S284 1.613 . S
N285 C288 1.350 . S
N286 S284 1.610 . S
N286 C287 1.351 . S
C287 C281 1.428 . S
C287 N286 1.351 . S
C287 C288 1.434 . S
C288 C279 1.429 . S
C288 N285 1.350 . S
C288 C287 1.434 . S
C289 C290 1.369 . S
C289 C291 1.419 . S
C289 H293 0.930 . S
C290 C289 1.369 . S
C290 C299 1.429 . S
C291 C289 1.419 . S
C291 C292 1.363 . S
C291 H294 0.929 . S
C292 C291 1.363 . S
C292 C298 1.428 . S
H293 C289 0.930 . S
H294 C291 0.929 . S
S295 N296 1.613 . S
S295 N297 1.610 . S
N296 S295 1.613 . S
N296 C299 1.350 . S
N297 S295 1.610 . S
N297 C298 1.351 . S
C298 C292 1.428 . S
C298 N297 1.351 . S
C298 C299 1.434 . S
C299 C290 1.429 . S
C299 N296 1.350 . S
C299 C298 1.434 . S
C300 C301 1.369 . S
C300 C302 1.419 1_655 S
C300 H304 0.930 . S
C301 C300 1.369 . S
C301 C310 1.429 . S
C302 C300 1.419 1_455 S
C302 C303 1.363 . S
C302 H305 0.929 . S
C303 C302 1.363 . S
C303 C309 1.428 . S
H304 C300 0.930 . S
H305 C302 0.929 . S
S306 N307 1.613 1_455 S
S306 N308 1.610 . S
N307 S306 1.613 1_655 S
N307 C310 1.350 . S
N308 S306 1.610 . S
N308 C309 1.351 . S
C309 C303 1.428 . S
C309 N308 1.351 . S
C309 C310 1.434 1_455 S
C310 C301 1.429 . S
C310 N307 1.350 . S
C310 C309 1.434 1_655 S
C311 C312 1.369 . S
C311 C313 1.419 1_565 S
C311 H315 0.930 . S
C312 C311 1.369 . S
C312 C321 1.429 . S
C313 C311 1.419 1_545 S
C313 C314 1.363 . S
C313 H316 0.929 . S
C314 C313 1.363 . S
C314 C320 1.428 . S
H315 C311 0.930 . S
H316 C313 0.929 . S
S317 N318 1.613 . S
S317 N319 1.610 1_565 S
N318 S317 1.613 . S
N318 C321 1.350 . S
N319 S317 1.610 1_545 S
N319 C320 1.351 . S
C320 C314 1.428 . S
C320 N319 1.351 . S
C320 C321 1.434 1_545 S
C321 C312 1.429 . S
C321 N318 1.350 . S
C321 C320 1.434 1_565 S
C322 C323 1.369 . S
C322 C324 1.419 . S
C322 H326 0.930 . S
C323 C322 1.369 . S
C323 C332 1.429 . S
C324 C322 1.419 . S
C324 C325 1.363 . S
C324 H327 0.929 . S
C325 C324 1.363 . S
C325 C331 1.428 . S
H326 C322 0.930 . S
H327 C324 0.929 . S
S328 N329 1.613 . S
S328 N330 1.610 . S
N329 S328 1.613 . S
N329 C332 1.350 . S
N330 S328 1.610 . S
N330 C331 1.351 . S
C331 C325 1.428 . S
C331 N330 1.351 . S
C331 C332 1.434 . S
C332 C323 1.429 . S
C332 N329 1.350 . S
C332 C331 1.434 . S
C333 C334 1.369 . S
C333 C335 1.419 1_455 S
C333 H337 0.930 . S
C334 C333 1.369 . S
C334 C343 1.429 . S
C335 C333 1.419 1_655 S
C335 C336 1.363 . S
C335 H338 0.929 . S
C336 C335 1.363 . S
C336 C342 1.428 . S
H337 C333 0.930 . S
H338 C335 0.929 . S
S339 N340 1.613 . S
S339 N341 1.580 1_455 S
N340 S339 1.613 . S
N340 C343 1.350 . S
N341 S339 1.580 1_655 S
N341 C342 1.363 . S
C342 C336 1.428 . S
C342 N341 1.363 . S
C342 C343 1.434 1_655 S
C343 C334 1.429 . S
C343 N340 1.350 . S
C343 C342 1.434 1_455 S
C344 C345 1.369 1_554 S
C344 C346 1.419 1_545 S
C344 H348 0.930 . S
C345 C344 1.369 1_556 S
C345 C354 1.429 . S
C346 C344 1.419 1_565 S
C346 C347 1.363 . S
C346 H349 0.929 . S
C347 C346 1.363 . S
C347 C353 1.428 1_554 S
H348 C344 0.930 . S
H349 C346 0.929 . S
S350 N351 1.613 1_565 S
S350 N352 1.610 . S
N351 S350 1.613 1_545 S
N351 C354 1.350 . S
N352 S350 1.610 . S
N352 C353 1.351 . S
C353 C347 1.428 1_556 S
C353 N352 1.351 . S
C353 C354 1.434 1_565 S
C354 C345 1.429 . S
C354 N351 1.350 . S
C354 C353 1.434 1_545 S
C355 C356 1.369 . S
C355 C357 1.419 . S
C355 H359 0.930 . S
C356 C355 1.369 . S
C356 C365 1.429 . S
C357 C355 1.419 . S
C357 C358 1.363 . S
C357 H360 0.929 . S
C358 C357 1.363 . S
C358 C364 1.428 . S
H359 C355 0.930 . S
H360 C357 0.929 . S
S361 N362 1.613 . S
S361 N363 1.610 . S
N362 S361 1.613 . S
N362 C365 1.350 . S
N363 S361 1.610 . S
N363 C364 1.351 . S
C364 C358 1.428 . S
C364 N363 1.351 . S
C364 C365 1.434 . S
C365 C356 1.429 . S
C365 N362 1.350 . S
C365 C364 1.434 . S
C366 C367 1.369 . S
C366 C368 1.419 . S
C366 H370 0.930 . S
C367 C366 1.369 . S
C367 C376 1.429 . S
C368 C366 1.419 . S
C368 C369 1.363 . S
C368 H371 0.929 . S
C369 C368 1.363 . S
C369 C375 1.428 . S
H370 C366 0.930 . S
H371 C368 0.929 . S
S372 N373 1.613 . S
S372 N374 1.610 . S
N373 S372 1.613 . S
N373 C376 1.350 . S
N374 S372 1.610 . S
N374 C375 1.351 . S
C375 C369 1.428 . S
C375 N374 1.351 . S
C375 C376 1.434 . S
C376 C367 1.429 . S
C376 N373 1.350 . S
C376 C375 1.434 . S
C377 C378 1.369 . S
C377 C379 1.419 . S
C377 H381 0.930 . S
C378 C377 1.369 . S
C378 C387 1.429 . S
C379 C377 1.419 . S
C379 C380 1.363 . S
C379 H382 0.929 . S
C380 C379 1.363 . S
C380 C386 1.428 . S
H381 C377 0.930 . S
H382 C379 0.929 . S
S383 N384 1.613 . S
S383 N385 1.610 . S
N384 S383 1.613 . S
N384 C387 1.350 . S
N385 S383 1.610 . S
N385 C386 1.351 . S
C386 C380 1.428 . S
C386 N385 1.351 . S
C386 C387 1.434 . S
C387 C378 1.429 . S
C387 N384 1.350 . S
C387 C386 1.434 . S
C388 C389 1.369 . S
C388 C390 1.419 . S
C388 H392 0.930 . S
C389 C388 1.369 . S
C389 C398 1.429 . S
C390 C388 1.419 . S
C390 C391 1.363 . S
C390 H393 0.929 . S
C391 C390 1.363 . S
C391 C397 1.428 . S
H392 C388 0.930 . S
H393 C390 0.929 . S
S394 N395 1.613 . S
S394 N396 1.610 . S
N395 S394 1.613 . S
N395 C398 1.350 . S
N396 S394 1.610 . S
N396 C397 1.351 . S
C397 C391 1.428 . S
C397 N396 1.351 . S
C397 C398 1.434 . S
C398 C389 1.429 . S
C398 N395 1.350 . S
C398 C397 1.434 . S
C399 C400 1.369 . S
C399 C401 1.419 . S
C399 H403 0.930 . S
C400 C399 1.369 . S
C400 C409 1.429 . S
C401 C399 1.419 . S
C401 C402 1.363 . S
C401 H404 0.929 . S
C402 C401 1.363 . S
C402 C408 1.428 . S
H403 C399 0.930 . S
H404 C401 0.929 . S
S405 N406 1.613 . S
S405 N407 1.610 . S
N406 S405 1.613 . S
N406 C409 1.350 . S
N407 S405 1.610 . S
N407 C408 1.351 . S
C408 C402 1.428 . S
C408 N407 1.351 . S
C408 C409 1.434 . S
C409 C400 1.429 . S
C409 N406 1.350 . S
C409 C408 1.434 . S
C410 C411 1.369 . S
C410 C412 1.419 . S
C410 H414 0.930 . S
C411 C410 1.369 . S
C411 C420 1.429 . S
C412 C410 1.419 . S
C412 C413 1.363 . S
C412 H415 0.929 . S
C413 C412 1.363 . S
C413 C419 1.428 . S
H414 C410 0.930 . S
H415 C412 0.929 . S
S416 N417 1.613 . S
S416 N418 1.610 . S
N417 S416 1.613 . S
N417 C420 1.350 . S
N418 S416 1.610 . S
N418 C419 1.351 . S
C419 C413 1.428 . S
C419 N418 1.351 . S
C419 C420 1.434 . S
C420 C411 1.429 . S
C420 N417 1.350 . S
C420 C419 1.434 . S
C421 C422 1.369 . S
C421 C423 1.419 . S
C421 H425 0.930 . S
C422 C421 1.369 . S
C422 C431 1.429 . S
C423 C421 1.419 . S
C423 C424 1.363 . S
C423 H426 0.929 . S
C424 C423 1.363 . S
C424 C430 1.428 . S
H425 C421 0.930 . S
H426 C423 0.929 . S
S427 N428 1.613 . S
S427 N429 1.610 . S
N428 S427 1.613 . S
N428 C431 1.350 . S
N429 S427 1.610 . S
N429 C430 1.351 . S
C430 C424 1.428 . S
C430 N429 1.351 . S
C430 C431 1.434 . S
C431 C422 1.429 . S
C431 N428 1.350 . S
C431 C430 1.434 . S
C169 C0 1.518 . S
C171 C97 1.517 . S
C180 C15 1.513 . S
C182 C110 1.516 . S
C191 C125 1.516 . S
C193 C41 1.515 . S
C202 C42 1.519 . S
C204 C127 1.516 . S
C213 C57 1.515 . S
C215 C141 1.517 . S
C224 C167 1.518 . S
C226 C83 1.518 . S
C235 C113 1.590 . S
C237 C12 1.591 . S
C246 C27 1.592 . S
C248 C139 1.591 . S
C257 C153 1.591 1_556 S
C259 C29 1.590 . S
C268 C155 1.592 . S
C270 C54 1.592 1_554 S
C279 C69 1.590 . S
C281 C85 1.589 . S
C290 C71 1.586 . S
C292 C98 1.587 . S
C301 C166 1.822 . S
C303 C1 1.817 . S
C312 C96 1.819 . S
C314 C14 1.821 . S
C323 C40 1.819 . S
C325 C111 1.815 . S
C334 C124 1.816 . S
C336 C43 1.817 . S
C345 C126 1.821 . S
C347 C56 1.820 . S
C356 C140 1.823 . S
C358 C82 1.818 . S
C367 C13 1.615 . S
C369 C152 1.611 . S
C378 C154 1.616 . S
C380 C26 1.611 . S
C389 C28 1.611 . S
C391 C84 1.614 . S
C400 C55 1.614 . S
C402 C99 1.610 . S
C411 C68 1.611 . S
C413 C112 1.615 . S
C422 C70 1.613 . S
C424 C138 1.613 . S
