# Generated by pormake.
# Topology bcu-i, (5)-cn, num edge types: 1
# Building blocks:
#     Node 0, Type 0, BuildingBlock: XOMCOT_clean_sbu_0, # of connection points: 5
#     Node 1, Type 0, BuildingBlock: XOMCOT_clean_sbu_0, # of connection points: 5
#     Node 2, Type 0, BuildingBlock: XOMCOT_clean_sbu_0, # of connection points: 5
#     Node 3, Type 0, BuildingBlock: XOMCOT_clean_sbu_0, # of connection points: 5
#     Node 4, Type 0, BuildingBlock: XOMCOT_clean_sbu_0, # of connection points: 5
#     Node 5, Type 0, BuildingBlock: XOMCOT_clean_sbu_0, # of connection points: 5
#     Node 6, Type 0, BuildingBlock: XOMCOT_clean_sbu_0, # of connection points: 5
#     Node 7, Type 0, BuildingBlock: XOMCOT_clean_sbu_0, # of connection points: 5
#     Node 8, Type 0, BuildingBlock: XOMCOT_clean_sbu_0, # of connection points: 5
#     Node 9, Type 0, BuildingBlock: XOMCOT_clean_sbu_0, # of connection points: 5
#     Node 10, Type 0, BuildingBlock: XOMCOT_clean_sbu_0, # of connection points: 5
#     Node 11, Type 0, BuildingBlock: XOMCOT_clean_sbu_0, # of connection points: 5
#     Node 12, Type 0, BuildingBlock: XOMCOT_clean_sbu_0, # of connection points: 5
#     Node 13, Type 0, BuildingBlock: XOMCOT_clean_sbu_0, # of connection points: 5
#     Node 14, Type 0, BuildingBlock: XOMCOT_clean_sbu_0, # of connection points: 5
#     Node 15, Type 0, BuildingBlock: XOMCOT_clean_sbu_0, # of connection points: 5
#     Edge 16, Type (0, 0), BuildingBlock: CIFDUS_clean_linker_0, # of connection points: 2
#     Edge 17, Type (0, 0), BuildingBlock: CIFDUS_clean_linker_0, # of connection points: 2
#     Edge 18, Type (0, 0), BuildingBlock: CIFDUS_clean_linker_0, # of connection points: 2
#     Edge 19, Type (0, 0), BuildingBlock: CIFDUS_clean_linker_0, # of connection points: 2
#     Edge 20, Type (0, 0), BuildingBlock: CIFDUS_clean_linker_0, # of connection points: 2
#     Edge 21, Type (0, 0), BuildingBlock: CIFDUS_clean_linker_0, # of connection points: 2
#     Edge 22, Type (0, 0), BuildingBlock: CIFDUS_clean_linker_0, # of connection points: 2
#     Edge 23, Type (0, 0), BuildingBlock: CIFDUS_clean_linker_0, # of connection points: 2
#     Edge 24, Type (0, 0), BuildingBlock: CIFDUS_clean_linker_0, # of connection points: 2
#     Edge 25, Type (0, 0), BuildingBlock: CIFDUS_clean_linker_0, # of connection points: 2
#     Edge 26, Type (0, 0), BuildingBlock: CIFDUS_clean_linker_0, # of connection points: 2
#     Edge 27, Type (0, 0), BuildingBlock: CIFDUS_clean_linker_0, # of connection points: 2
#     Edge 28, Type (0, 0), BuildingBlock: CIFDUS_clean_linker_0, # of connection points: 2
#     Edge 29, Type (0, 0), BuildingBlock: CIFDUS_clean_linker_0, # of connection points: 2
#     Edge 30, Type (0, 0), BuildingBlock: CIFDUS_clean_linker_0, # of connection points: 2
#     Edge 31, Type (0, 0), BuildingBlock: CIFDUS_clean_linker_0, # of connection points: 2
#     Edge 32, Type (0, 0), BuildingBlock: CIFDUS_clean_linker_0, # of connection points: 2
#     Edge 33, Type (0, 0), BuildingBlock: CIFDUS_clean_linker_0, # of connection points: 2
#     Edge 34, Type (0, 0), BuildingBlock: CIFDUS_clean_linker_0, # of connection points: 2
#     Edge 35, Type (0, 0), BuildingBlock: CIFDUS_clean_linker_0, # of connection points: 2
#     Edge 36, Type (0, 0), BuildingBlock: CIFDUS_clean_linker_0, # of connection points: 2
#     Edge 37, Type (0, 0), BuildingBlock: CIFDUS_clean_linker_0, # of connection points: 2
#     Edge 38, Type (0, 0), BuildingBlock: CIFDUS_clean_linker_0, # of connection points: 2
#     Edge 39, Type (0, 0), BuildingBlock: CIFDUS_clean_linker_0, # of connection points: 2
#     Edge 40, Type (0, 0), BuildingBlock: CIFDUS_clean_linker_0, # of connection points: 2
#     Edge 41, Type (0, 0), BuildingBlock: CIFDUS_clean_linker_0, # of connection points: 2
#     Edge 42, Type (0, 0), BuildingBlock: CIFDUS_clean_linker_0, # of connection points: 2
#     Edge 43, Type (0, 0), BuildingBlock: CIFDUS_clean_linker_0, # of connection points: 2
#     Edge 44, Type (0, 0), BuildingBlock: CIFDUS_clean_linker_0, # of connection points: 2
#     Edge 45, Type (0, 0), BuildingBlock: CIFDUS_clean_linker_0, # of connection points: 2
#     Edge 46, Type (0, 0), BuildingBlock: CIFDUS_clean_linker_0, # of connection points: 2
#     Edge 47, Type (0, 0), BuildingBlock: CIFDUS_clean_linker_0, # of connection points: 2
#     Edge 48, Type (0, 0), BuildingBlock: CIFDUS_clean_linker_0, # of connection points: 2
#     Edge 49, Type (0, 0), BuildingBlock: CIFDUS_clean_linker_0, # of connection points: 2
#     Edge 50, Type (0, 0), BuildingBlock: CIFDUS_clean_linker_0, # of connection points: 2
#     Edge 51, Type (0, 0), BuildingBlock: CIFDUS_clean_linker_0, # of connection points: 2
#     Edge 52, Type (0, 0), BuildingBlock: CIFDUS_clean_linker_0, # of connection points: 2
#     Edge 53, Type (0, 0), BuildingBlock: CIFDUS_clean_linker_0, # of connection points: 2
#     Edge 54, Type (0, 0), BuildingBlock: CIFDUS_clean_linker_0, # of connection points: 2
#     Edge 55, Type (0, 0), BuildingBlock: CIFDUS_clean_linker_0, # of connection points: 2
# Relax obj value: 0.526
# Max RMSD: 0.251
# Mean RMSD: 0.251
data_MOF--net-bcu-i--node1-XOMCOT_clean_sbu_0--edge1-CIFDUS_clean_linker_0
_symmetry_space_group_name_H-M    P1
_symmetry_Int_Tables_number       1
_symmetry_cell_setting            triclinic
loop_
_symmetry_equiv_pos_as_xyz
'x, y, z'
_cell_length_a     39.88698
_cell_length_b     39.866267
_cell_length_c     46.026975
_cell_angle_alpha  89.910823
_cell_angle_beta   90.154407
_cell_angle_gamma 89.927777
loop_
_atom_site_label
_atom_site_type_symbol
_atom_site_fract_x
_atom_site_fract_y
_atom_site_fract_z
_atom_type_partial_charge
Co0 Co 0.17438 0.07899 0.35472 0.0
C1 C 0.12404 0.12489 0.32788 0.0
C2 C 0.10474 0.07517 0.33261 0.0
C3 C 0.07961 0.09534 0.32205 0.0
N4 N 0.13318 0.09328 0.33532 0.0
N5 N 0.09173 0.12663 0.31918 0.0
H6 H 0.1399 0.14665 0.33053 0.0
H7 H 0.10122 0.04976 0.34008 0.0
C8 C 0.15397 0.01485 0.32616 0.0
O9 O 0.15275 0.03076 0.30114 0.0
N10 N 0.21469 0.06528 0.37476 0.0
C11 C 0.24314 0.08316 0.37827 0.0
C12 C 0.26613 0.06372 0.39314 0.0
C13 C 0.22068 0.03537 0.38722 0.0
N14 N 0.25192 0.03367 0.39816 0.0
C15 C 0.1998 0.10643 0.30119 0.0
C16 C 0.24165 0.05268 0.28914 0.0
C17 C 0.24179 0.08059 0.27092 0.0
C18 C 0.22029 0.10751 0.27675 0.0
C19 C 0.22034 0.05232 0.31296 0.0
N20 N 0.19966 0.07893 0.31879 0.0
H21 H 0.18541 0.12832 0.30662 0.0
H22 H 0.22117 0.03081 0.3272 0.0
H23 H 0.24696 0.10847 0.37046 0.0
H24 H 0.20254 0.01528 0.38865 0.0
O25 O 0.18254 0.12442 0.36783 0.0
O26 O 0.15275 0.08583 0.39127 0.0
O27 O 0.16167 0.03058 0.34935 0.0
C28 C 0.16516 0.11597 0.39064 0.0
H29 H 0.0536 0.08824 0.31929 0.0
H30 H 0.29121 0.07089 0.39966 0.0
H31 H 0.25864 0.03188 0.28553 0.0
H32 H 0.22089 0.13005 0.26356 0.0
Co33 Co 0.92081 0.26927 0.4024 0.0
C34 C 0.87494 0.21395 0.38481 0.0
C35 C 0.92467 0.20626 0.36907 0.0
C36 C 0.90626 0.17802 0.36324 0.0
N37 N 0.90489 0.22955 0.38174 0.0
N38 N 0.87505 0.18274 0.3734 0.0
H39 H 0.85441 0.22375 0.39751 0.0
H40 H 0.95157 0.20767 0.36716 0.0
C41 C 0.96543 0.26834 0.34995 0.0
O42 O 0.93868 0.26807 0.33321 0.0
N43 N 0.93724 0.3075 0.42345 0.0
C44 C 0.91945 0.33187 0.43659 0.0
C45 C 0.94155 0.35291 0.45076 0.0
C46 C 0.96953 0.31398 0.42944 0.0
N47 N 0.97297 0.34165 0.44594 0.0
C48 C 0.86302 0.2965 0.37349 0.0
C49 C 0.89586 0.35006 0.34805 0.0
C50 C 0.86129 0.34646 0.34353 0.0
C51 C 0.84489 0.31923 0.35659 0.0
C52 C 0.91309 0.32651 0.36485 0.0
N53 N 0.89682 0.29965 0.37674 0.0
H54 H 0.84964 0.27688 0.38448 0.0
H55 H 0.93957 0.33018 0.36871 0.0
H56 H 0.89239 0.33356 0.43661 0.0
H57 H 0.98998 0.29755 0.4234 0.0
O58 O 0.88702 0.26249 0.432 0.0
O59 O 0.93793 0.2399 0.43209 0.0
O60 O 0.96222 0.2705 0.37748 0.0
C61 C 0.90885 0.24285 0.44455 0.0
H62 H 0.91609 0.15448 0.35519 0.0
H63 H 0.93503 0.37399 0.46443 0.0
H64 H 0.90947 0.37114 0.33909 0.0
H65 H 0.81824 0.31527 0.35373 0.0
Co66 Co 0.75199 0.94356 0.3773 0.0
C67 C 0.79912 0.8896 0.35991 0.0
C68 C 0.81477 0.93722 0.34316 0.0
C69 C 0.83861 0.91354 0.33609 0.0
N70 N 0.79005 0.92224 0.35837 0.0
N71 N 0.82881 0.88373 0.34694 0.0
H72 H 0.78505 0.87046 0.37117 0.0
H73 H 0.81632 0.96371 0.33844 0.0
C74 C 0.77686 0.01157 0.38578 0.0
O75 O 0.77231 0.00536 0.41349 0.0
N76 N 0.71369 0.96513 0.39563 0.0
C77 C 0.6898 0.98346 0.38209 0.0
C78 C 0.67156 0.00067 0.40253 0.0
C79 C 0.7093 0.97137 0.42418 0.0
N80 N 0.68416 0.99342 0.42899 0.0
C81 C 0.70099 0.91878 0.33976 0.0
C82 C 0.71901 0.95564 0.29129 0.0
C83 C 0.69225 0.93299 0.28916 0.0
C84 C 0.6832 0.91456 0.31394 0.0
C85 C 0.7365 0.9587 0.31739 0.0
N86 N 0.72729 0.94049 0.34122 0.0
H87 H 0.69372 0.90447 0.35865 0.0
H88 H 0.75769 0.97542 0.31808 0.0
H89 H 0.6873 0.98653 0.35887 0.0
H90 H 0.7265 0.96305 0.44089 0.0
O91 O 0.73949 0.9011 0.39491 0.0
O92 O 0.77472 0.9379 0.41407 0.0
O93 O 0.76983 0.98915 0.367 0.0
C94 C 0.76016 0.90883 0.41576 0.0
H95 H 0.86233 0.91832 0.3255 0.0
H96 H 0.65227 0.01908 0.39801 0.0
H97 H 0.72674 0.97066 0.27288 0.0
H98 H 0.66318 0.89626 0.31327 0.0
Co99 Co 0.04826 0.7428 0.34701 0.0
C100 C 0.0744 0.81141 0.33255 0.0
C101 C 0.03836 0.79287 0.30188 0.0
C102 C 0.04947 0.8234 0.2923 0.0
N103 N 0.05377 0.7853 0.32717 0.0
N104 N 0.07224 0.83499 0.31147 0.0
H105 H 0.09146 0.81276 0.35079 0.0
H106 H 0.02107 0.77665 0.29053 0.0
C107 C 0.97678 0.75454 0.35418 0.0
O108 O 0.98352 0.7536 0.38212 0.0
N109 N 0.04234 0.69945 0.36578 0.0
C110 C 0.06647 0.6796 0.37721 0.0
C111 C 0.05157 0.65261 0.39075 0.0
C112 C 0.0134 0.68333 0.37139 0.0
N113 N 0.01813 0.65513 0.38706 0.0
C114 C 0.09015 0.72851 0.29995 0.0
C115 C 0.05216 0.67793 0.27514 0.0
C116 C 0.08333 0.68636 0.26324 0.0
C117 C 0.10211 0.71219 0.27558 0.0
C118 C 0.04061 0.69564 0.29945 0.0
N119 N 0.05995 0.72018 0.31159 0.0
H120 H 0.10541 0.74774 0.30987 0.0
H121 H 0.01675 0.68912 0.30898 0.0
H122 H 0.09303 0.68491 0.37692 0.0
H123 H 0.98893 0.69264 0.36566 0.0
O124 O 0.0928 0.74593 0.36418 0.0
O125 O 0.04632 0.76545 0.38406 0.0
O126 O -0.00065 0.7459 0.33596 0.0
C127 C 0.07845 0.76084 0.38596 0.0
H128 H 0.04144 0.83601 0.27263 0.0
H129 H 0.06417 0.63377 0.40376 0.0
H130 H 0.03736 0.65771 0.2661 0.0
H131 H 0.1265 0.71889 0.26701 0.0
Co132 Co 0.18044 0.86964 0.5666 0.0
C133 C 0.12383 0.83357 0.59333 0.0
C134 C 0.11872 0.88691 0.5982 0.0
C135 C 0.09186 0.87167 0.61136 0.0
N136 N 0.1388 0.863 0.58703 0.0
N137 N 0.0951 0.83822 0.60822 0.0
H138 H 0.13354 0.80932 0.58695 0.0
H139 H 0.12276 0.91363 0.59652 0.0
C140 C 0.20524 0.93536 0.59332 0.0
O141 O 0.23553 0.92365 0.5983 0.0
N142 N 0.22214 0.87653 0.54583 0.0
C143 C 0.24299 0.85335 0.53429 0.0
C144 C 0.26648 0.86934 0.51732 0.0
C145 C 0.23278 0.90601 0.53497 0.0
N146 N 0.26016 0.90245 0.51827 0.0
C147 C 0.22006 0.82063 0.59642 0.0
C148 C 0.2173 0.85055 0.65048 0.0
C149 C 0.23607 0.82113 0.647 0.0
C150 C 0.23689 0.80583 0.61968 0.0
C151 C 0.20097 0.8646 0.62655 0.0
N152 N 0.20388 0.85054 0.59962 0.0
H153 H 0.21931 0.80747 0.57606 0.0
H154 H 0.18559 0.88653 0.62987 0.0
H155 H 0.23993 0.82655 0.53571 0.0
H156 H 0.219 0.92928 0.53685 0.0
O157 O 0.17223 0.82936 0.54394 0.0
O158 O 0.15576 0.88078 0.53203 0.0
O159 O 0.18254 0.91661 0.58243 0.0
C160 C 0.15653 0.84903 0.5258 0.0
H161 H 0.07076 0.88427 0.62132 0.0
H162 H 0.28517 0.85748 0.50375 0.0
H163 H 0.21547 0.86278 0.67142 0.0
H164 H 0.24992 0.78227 0.61642 0.0
Co165 Co 0.12451 0.21936 0.58929 0.0
C166 C 0.14147 0.14725 0.60063 0.0
C167 C 0.09047 0.15914 0.61055 0.0
C168 C 0.09439 0.12514 0.61257 0.0
N169 N 0.12015 0.17354 0.60395 0.0
N170 N 0.12637 0.1176 0.60615 0.0
H171 H 0.16613 0.14915 0.59109 0.0
H172 H 0.0665 0.17166 0.61048 0.0
C173 C 0.07692 0.22744 0.63907 0.0
O174 O 0.09953 0.21405 0.65641 0.0
N175 N 0.12759 0.2641 0.57377 0.0
C176 C 0.15475 0.28005 0.56322 0.0
C177 C 0.1444 0.30998 0.55094 0.0
C178 C 0.10145 0.28438 0.56822 0.0
N179 N 0.11094 0.31262 0.55449 0.0
C180 C 0.18289 0.21399 0.6267 0.0
C181 C 0.16982 0.27277 0.65652 0.0
C182 C 0.19754 0.25339 0.6644 0.0
C183 C 0.20424 0.22371 0.64932 0.0
C184 C 0.14884 0.26182 0.6344 0.0
N185 N 0.15493 0.23235 0.62023 0.0
H186 H 0.18913 0.19205 0.61431 0.0
H187 H 0.12735 0.27704 0.6288 0.0
H188 H 0.17989 0.26987 0.56315 0.0
H189 H 0.07561 0.27737 0.572 0.0
O190 O 0.15601 0.20413 0.56006 0.0
O191 O 0.1005 0.20559 0.55539 0.0
O192 O 0.08425 0.23338 0.61259 0.0
C193 C 0.12945 0.19841 0.54418 0.0
H194 H 0.07452 0.10706 0.61587 0.0
H195 H 0.15984 0.32748 0.53895 0.0
H196 H 0.16407 0.29593 0.66778 0.0
H197 H 0.22595 0.20854 0.6547 0.0
Co198 Co 0.81866 0.1073 0.61554 0.0
C199 C 0.88328 0.13673 0.63615 0.0
C200 C 0.87395 0.08811 0.65426 0.0
C201 C 0.90311 0.10029 0.66601 0.0
N202 N 0.86159 0.11073 0.63527 0.0
N203 N 0.90901 0.13103 0.6548 0.0
H204 H 0.87976 0.15971 0.6241 0.0
H205 H 0.8622 0.06464 0.66 0.0
C206 C 0.83253 0.03661 0.60189 0.0
O207 O 0.84371 0.04755 0.57682 0.0
N208 N 0.77554 0.10357 0.59664 0.0
C209 C 0.75028 0.1261 0.59708 0.0
C210 C 0.72384 0.11364 0.58094 0.0
C211 C 0.76417 0.07783 0.58058 0.0
N212 N 0.73271 0.08313 0.57101 0.0
C213 C 0.80364 0.13945 0.66857 0.0
C214 C 0.75895 0.09192 0.68903 0.0
C215 C 0.76664 0.11985 0.70625 0.0
C216 C 0.78916 0.14385 0.6957 0.0
C217 C 0.77435 0.0883 0.66201 0.0
N218 N 0.79655 0.11181 0.65238 0.0
H219 H 0.82077 0.15822 0.66048 0.0
H220 H 0.76825 0.0668 0.64874 0.0
H221 H 0.75111 0.14996 0.60822 0.0
H222 H 0.7787 0.05601 0.57499 0.0
O223 O 0.8202 0.15418 0.60406 0.0
O224 O 0.84036 0.11191 0.57832 0.0
O225 O 0.82075 0.05711 0.62051 0.0
C226 C 0.83499 0.14392 0.58054 0.0
H227 H 0.91866 0.08718 0.68159 0.0
H228 H 0.70012 0.12598 0.57673 0.0
H229 H 0.74141 0.07305 0.69644 0.0
H230 H 0.79507 0.16617 0.70809 0.0
Co231 Co 0.87357 0.74978 0.5589 0.0
C232 C 0.84941 0.81368 0.5852 0.0
C233 C 0.90172 0.80631 0.59289 0.0
C234 C 0.89318 0.83762 0.6026 0.0
N235 N 0.8741 0.79043 0.58279 0.0
N236 N 0.86037 0.84237 0.59749 0.0
H237 H 0.82465 0.81103 0.57584 0.0
H238 H 0.92722 0.79811 0.59014 0.0
C239 C 0.93225 0.73509 0.59824 0.0
O240 O 0.91252 0.73838 0.62088 0.0
N241 N 0.87385 0.71056 0.53452 0.0
C242 C 0.84773 0.6922 0.52488 0.0
C243 C 0.86003 0.66635 0.50795 0.0
C244 C 0.90136 0.69583 0.52363 0.0
N245 N 0.89376 0.6686 0.5077 0.0
C246 C 0.82623 0.73565 0.60404 0.0
C247 C 0.85329 0.67423 0.6198 0.0
C248 C 0.82743 0.68797 0.63643 0.0
C249 C 0.81317 0.71856 0.62786 0.0
C250 C 0.86582 0.69234 0.59629 0.0
N251 N 0.85339 0.72342 0.58963 0.0
H252 H 0.81474 0.7589 0.59746 0.0
H253 H 0.88663 0.68201 0.58426 0.0
H254 H 0.82169 0.6974 0.52961 0.0
H255 H 0.92649 0.70552 0.52639 0.0
O256 O 0.83347 0.7654 0.53938 0.0
O257 O 0.88566 0.77718 0.52617 0.0
O258 O 0.92027 0.73813 0.57258 0.0
C259 C 0.85364 0.78131 0.52191 0.0
H260 H 0.91056 0.85697 0.60938 0.0
H261 H 0.84544 0.64769 0.49647 0.0
H262 H 0.86469 0.65048 0.62566 0.0
H263 H 0.79238 0.72937 0.63972 0.0
Co264 Co 0.6915 0.59916 0.87 0.0
C265 C 0.63214 0.62435 0.83625 0.0
C266 C 0.62921 0.57185 0.84559 0.0
C267 C 0.60046 0.58119 0.83132 0.0
N268 N 0.64985 0.59855 0.84778 0.0
N269 N 0.6023 0.61421 0.82546 0.0
H270 H 0.63958 0.65031 0.83731 0.0
H271 H 0.63358 0.54757 0.85535 0.0
C272 C 0.69586 0.53351 0.83839 0.0
O273 O 0.69013 0.54926 0.81376 0.0
N274 N 0.73189 0.59906 0.89296 0.0
C275 C 0.75304 0.62491 0.89731 0.0
C276 C 0.77308 0.61754 0.92095 0.0
C277 C 0.73948 0.57628 0.91354 0.0
N278 N 0.76449 0.58693 0.93095 0.0
C279 C 0.71127 0.64325 0.82457 0.0
C280 C 0.76395 0.60522 0.80378 0.0
C281 C 0.75643 0.63599 0.79055 0.0
C282 C 0.72998 0.65521 0.80141 0.0
C283 C 0.74469 0.59435 0.82731 0.0
N284 N 0.7176 0.61254 0.83643 0.0
H285 H 0.69245 0.65942 0.83357 0.0
H286 H 0.75184 0.57153 0.8384 0.0
H287 H 0.75205 0.6485 0.88568 0.0
H288 H 0.7247 0.55399 0.91756 0.0
O289 O 0.68119 0.6431 0.88473 0.0
O290 O 0.66542 0.59517 0.90519 0.0
O291 O 0.69812 0.54994 0.86214 0.0
C292 C 0.66621 0.62782 0.90598 0.0
H293 H 0.57876 0.56548 0.82757 0.0
H294 H 0.79096 0.6342 0.93118 0.0
H295 H 0.78493 0.59019 0.79646 0.0
H296 H 0.72376 0.67941 0.79209 0.0
Co297 Co 0.38704 0.71747 0.87083 0.0
C298 C 0.36152 0.64904 0.85641 0.0
C299 C 0.41505 0.65193 0.85571 0.0
C300 C 0.40595 0.61903 0.85203 0.0
N301 N 0.38723 0.67108 0.85771 0.0
N302 N 0.37223 0.61712 0.85261 0.0
H303 H 0.33577 0.6556 0.86032 0.0
H304 H 0.44037 0.66081 0.85901 0.0
C305 C 0.43693 0.71552 0.8227 0.0
O306 O 0.41411 0.7011 0.80629 0.0
N307 N 0.38744 0.76284 0.88471 0.0
C308 C 0.36065 0.78181 0.89164 0.0
C309 C 0.37164 0.80917 0.90727 0.0
C310 C 0.41419 0.77884 0.8957 0.0
N311 N 0.40528 0.80715 0.90966 0.0
C312 C 0.32556 0.72127 0.83787 0.0
C313 C 0.34884 0.76769 0.79813 0.0
C314 C 0.31646 0.75479 0.79477 0.0
C315 C 0.30444 0.73194 0.81541 0.0
C316 C 0.36891 0.75647 0.82088 0.0
N317 N 0.358 0.73198 0.83934 0.0
H318 H 0.31546 0.7052 0.85448 0.0
H319 H 0.39318 0.76791 0.82382 0.0
H320 H 0.33485 0.77485 0.88766 0.0
H321 H 0.43915 0.76813 0.89616 0.0
O322 O 0.35407 0.70634 0.90027 0.0
O323 O 0.40937 0.70291 0.90547 0.0
O324 O 0.42898 0.7264 0.84784 0.0
C325 C 0.37981 0.69896 0.91665 0.0
H326 H 0.42299 0.5979 0.85148 0.0
H327 H 0.35602 0.82769 0.91784 0.0
H328 H 0.35845 0.78669 0.78352 0.0
H329 H 0.27911 0.72229 0.81412 0.0
Co330 Co 0.32272 0.36227 0.89503 0.0
C331 C 0.38806 0.32865 0.88204 0.0
C332 C 0.36949 0.35801 0.84635 0.0
C333 C 0.39919 0.3434 0.83813 0.0
N334 N 0.36263 0.3491 0.87398 0.0
N335 N 0.41076 0.32494 0.86055 0.0
H336 H 0.3903 0.31698 0.90318 0.0
H337 H 0.35373 0.37371 0.83284 0.0
C338 C 0.30524 0.43227 0.87304 0.0
O339 O 0.2756 0.43154 0.88529 0.0
N340 N 0.28253 0.37505 0.91598 0.0
C341 C 0.25063 0.36412 0.91278 0.0
C342 C 0.23049 0.38058 0.93258 0.0
C343 C 0.28148 0.39681 0.93829 0.0
N344 N 0.25023 0.40073 0.94857 0.0
C345 C 0.30121 0.30621 0.86231 0.0
C346 C 0.2627 0.34088 0.82231 0.0
C347 C 0.26875 0.30661 0.818 0.0
C348 C 0.28752 0.28901 0.83876 0.0
C349 C 0.27691 0.35712 0.8461 0.0
N350 N 0.29654 0.33994 0.86535 0.0
H351 H 0.31709 0.29273 0.87737 0.0
H352 H 0.27228 0.38347 0.84864 0.0
H353 H 0.24231 0.34558 0.89727 0.0
H354 H 0.30291 0.41074 0.94619 0.0
O355 O 0.3279 0.32571 0.92261 0.0
O356 O 0.34995 0.37652 0.92726 0.0
O357 O 0.32421 0.40636 0.87308 0.0
C358 C 0.34528 0.34683 0.93815 0.0
H359 H 0.41117 0.34587 0.81716 0.0
H360 H 0.20366 0.37785 0.93519 0.0
H361 H 0.24759 0.3552 0.80713 0.0
H362 H 0.29291 0.26255 0.83614 0.0
Co363 Co 0.63922 0.25615 0.92061 0.0
C364 C 0.65975 0.32277 0.8976 0.0
C365 C 0.63493 0.2933 0.86519 0.0
C366 C 0.64272 0.32408 0.85335 0.0
N367 N 0.64523 0.29266 0.89311 0.0
N368 N 0.65821 0.34265 0.87386 0.0
H369 H 0.67151 0.33008 0.91773 0.0
H370 H 0.62238 0.27293 0.85416 0.0
C371 C 0.57339 0.22285 0.90124 0.0
O372 O 0.5772 0.1959 0.9173 0.0
N373 N 0.63403 0.22013 0.94822 0.0
C374 C 0.65778 0.19809 0.95699 0.0
C375 C 0.64566 0.18009 0.98034 0.0
C376 C 0.60852 0.2162 0.96687 0.0
N377 N 0.61459 0.1914 0.98595 0.0
C378 C 0.69709 0.23907 0.88769 0.0
C379 C 0.67357 0.17795 0.86796 0.0
C380 C 0.70402 0.19019 0.85721 0.0
C381 C 0.71619 0.22083 0.86787 0.0
C382 C 0.65508 0.19723 0.88731 0.0
N383 N 0.66647 0.22772 0.89629 0.0
H384 H 0.70624 0.26299 0.89539 0.0
H385 H 0.63166 0.18752 0.89502 0.0
H386 H 0.6826 0.19607 0.94776 0.0
H387 H 0.58611 0.23157 0.96681 0.0
O388 O 0.67311 0.27458 0.9464 0.0
O389 O 0.61868 0.28661 0.94734 0.0
O390 O 0.59672 0.24464 0.89887 0.0
C391 C 0.64834 0.29101 0.95832 0.0
H392 H 0.63654 0.33234 0.83158 0.0
H393 H 0.65863 0.1607 -0.00756 0.0
H394 H 0.6637 0.15395 0.86103 0.0
H395 H 0.7395 0.23139 0.86008 0.0
Co396 Co 0.70451 0.44449 0.12858 0.0
C397 C 0.65118 0.40409 0.15804 0.0
C398 C 0.63676 0.45547 0.15325 0.0
C399 C 0.61086 0.43851 0.16615 0.0
N400 N 0.66293 0.43437 0.14931 0.0
N401 N 0.62 0.40626 0.16917 0.0
H402 H 0.66437 0.38061 0.15524 0.0
H403 H 0.63515 0.48095 0.14551 0.0
C404 C 0.69085 0.51135 0.15558 0.0
O405 O 0.69061 0.49638 0.18104 0.0
N406 N 0.74444 0.45462 0.10678 0.0
C407 C 0.77214 0.43549 0.10401 0.0
C408 C 0.79078 0.44767 0.08108 0.0
C409 C 0.74666 0.47819 0.08594 0.0
N410 N 0.77468 0.47456 0.06997 0.0
C411 C 0.72851 0.41585 0.18158 0.0
C412 C 0.77638 0.46404 0.1936 0.0
C413 C 0.77288 0.43652 0.21226 0.0
C414 C 0.74857 0.41236 0.20607 0.0
C415 C 0.75507 0.46699 0.16951 0.0
N416 N 0.73105 0.44329 0.16405 0.0
H417 H 0.71208 0.39555 0.17612 0.0
H418 H 0.75823 0.48804 0.15494 0.0
H419 H 0.77718 0.41293 0.11637 0.0
H420 H 0.72669 0.49565 0.08079 0.0
O421 O 0.70936 0.39815 0.11788 0.0
O422 O 0.68122 0.43633 0.0924 0.0
O423 O 0.69575 0.49423 0.1325 0.0
C424 C 0.69212 0.40557 0.09475 0.0
H425 H 0.58628 0.44856 0.17105 0.0
H426 H 0.81331 0.43657 0.07221 0.0
H427 H 0.79552 0.48277 0.19744 0.0
H428 H 0.74617 0.39 0.21934 0.0
Co429 Co 0.59882 0.78096 0.07253 0.0
C430 C 0.6179 0.71344 0.09542 0.0
C431 C 0.62384 0.75091 0.1282 0.0
C432 C 0.63486 0.72084 0.1392 0.0
N433 N 0.61327 0.74659 0.10051 0.0
N434 N 0.63132 0.69725 0.11854 0.0
H435 H 0.61192 0.70123 0.07515 0.0
H436 H 0.62426 0.7743 0.13995 0.0
C437 C 0.54145 0.78048 0.11561 0.0
O438 O 0.56198 0.7846 0.1376 0.0
N439 N 0.58515 0.81461 0.045 0.0
C440 C 0.60473 0.83853 0.0332 0.0
C441 C 0.58684 0.85457 0.01163 0.0
C442 C 0.55572 0.81647 0.03086 0.0
N443 N 0.55607 0.84071 0.0104 0.0
C444 C 0.64875 0.81779 0.10289 0.0
C445 C 0.60643 0.86602 0.12561 0.0
C446 C 0.64019 0.86554 0.13427 0.0
C447 C 0.66167 0.84169 0.12183 0.0
C448 C 0.5945 0.84142 0.10672 0.0
N449 N 0.61523 0.81654 0.0972 0.0
H450 H 0.6653 0.79885 0.09418 0.0
H451 H 0.5685 0.84204 0.1001 0.0
H452 H 0.63068 0.84288 0.03894 0.0
H453 H 0.53535 0.79892 0.03403 0.0
O454 O 0.6387 0.77308 0.04955 0.0
O455 O 0.58994 0.74696 0.04408 0.0
O456 O 0.55235 0.78104 0.08959 0.0
C457 C 0.62065 0.75119 0.03549 0.0
H458 H 0.6458 0.71707 0.16049 0.0
H459 H 0.59609 0.87388 -0.00283 0.0
H460 H 0.58923 0.88475 0.13385 0.0
H461 H 0.68791 0.84023 0.12781 0.0
Co462 Co 0.32332 0.60254 0.11391 0.0
C463 C 0.36491 0.65694 0.14006 0.0
C464 C 0.38491 0.60839 0.14975 0.0
C465 C 0.4065 0.63202 0.16046 0.0
N466 N 0.35804 0.62373 0.13765 0.0
N467 N 0.39412 0.66253 0.15419 0.0
H468 H 0.35019 0.67661 0.13 0.0
H469 H 0.39091 0.58213 0.14835 0.0
C470 C 0.34187 0.54189 0.15064 0.0
O471 O 0.3364 0.55833 0.17491 0.0
N472 N 0.28982 0.58154 0.08982 0.0
C473 C 0.25805 0.59145 0.08453 0.0
C474 C 0.24229 0.56684 0.06839 0.0
C475 C 0.2932 0.55179 0.07659 0.0
N476 N 0.26448 0.54183 0.06382 0.0
C477 C 0.28264 0.6358 0.15584 0.0
C478 C 0.24361 0.58054 0.16949 0.0
C479 C 0.23437 0.61208 0.17988 0.0
C480 C 0.25446 0.63988 0.17336 0.0
C481 C 0.27155 0.57767 0.15159 0.0
N482 N 0.29071 0.60508 0.14494 0.0
H483 H 0.2968 0.65767 0.14961 0.0
H484 H 0.27656 0.55365 0.14167 0.0
H485 H 0.24687 0.61432 0.09264 0.0
H486 H 0.31635 0.53771 0.0763 0.0
O487 O 0.31368 0.64455 0.09461 0.0
O488 O 0.35166 0.60714 0.08054 0.0
O489 O 0.33869 0.55647 0.12609 0.0
C490 C 0.33609 0.63532 0.07569 0.0
H491 H 0.43126 0.62715 0.16924 0.0
H492 H 0.21638 0.5669 0.06137 0.0
H493 H 0.22827 0.55867 0.17375 0.0
H494 H 0.24785 0.66469 0.18105 0.0
Co495 Co 0.41868 0.2627 0.13659 0.0
C496 C 0.40578 0.33305 0.15492 0.0
C497 C 0.39684 0.29908 0.19007 0.0
C498 C 0.38989 0.33096 0.19944 0.0
N499 N 0.40673 0.30013 0.16198 0.0
N500 N 0.39537 0.35234 0.17731 0.0
H501 H 0.41254 0.34282 0.13384 0.0
H502 H 0.39509 0.27693 0.20346 0.0
C503 C 0.4794 0.27109 0.17479 0.0
O504 O 0.46075 0.27056 0.19821 0.0
N505 N 0.42992 0.22567 0.1118 0.0
C506 C 0.40915 0.20093 0.10315 0.0
C507 C 0.42651 0.1798 0.08497 0.0
C508 C 0.4595 0.21931 0.09914 0.0
N509 N 0.45812 0.19137 0.08276 0.0
C510 C 0.37272 0.22805 0.17145 0.0
C511 C 0.4157 0.17711 0.18874 0.0
C512 C 0.38125 0.1741 0.19376 0.0
C513 C 0.3599 0.2005 0.18589 0.0
C514 C 0.42766 0.20549 0.17422 0.0
N515 N 0.40606 0.23026 0.16558 0.0
H516 H 0.35566 0.24738 0.1641 0.0
H517 H 0.45376 0.20634 0.1681 0.0
H518 H 0.38309 0.19874 0.10931 0.0
H519 H 0.48117 0.23552 0.10086 0.0
O520 O 0.37624 0.26665 0.11626 0.0
O521 O 0.42321 0.29254 0.10387 0.0
O522 O 0.4666 0.26551 0.14988 0.0
C523 C 0.392 0.28592 0.09801 0.0
H524 H 0.38065 0.33768 0.22074 0.0
H525 H 0.41661 0.15805 0.07382 0.0
H526 H 0.4328 0.15707 0.19457 0.0
H527 H 0.3332 0.19941 0.1901 0.0
H528 H 0.13689 0.97359 0.28177 0.0
H529 H 0.14638 0.97694 0.37521 0.0
H530 H 0.12354 0.92038 0.37885 0.0
H531 H 0.09711 0.87162 0.3557 0.0
H532 H 0.08846 0.8683 0.26226 0.0
H533 H 0.11451 0.92329 0.25851 0.0
C534 C 0.13417 0.9619 0.30293 0.0
C535 C 0.14294 0.97962 0.32815 0.0
C536 C 0.12087 0.92948 0.30492 0.0
C537 C 0.1396 0.96394 0.3554 0.0
C538 C 0.12649 0.9316 0.35755 0.0
C539 C 0.10141 0.88269 0.33451 0.0
C540 C 0.09036 0.86607 0.30936 0.0
C541 C 0.11651 0.91436 0.33248 0.0
C542 C 0.09595 0.88088 0.28204 0.0
C543 C 0.11105 0.91227 0.27983 0.0
H544 H 0.09706 0.18588 0.34679 0.0
H545 H 0.04084 0.13317 0.28119 0.0
H546 H -0.00078 0.17824 0.28001 0.0
H547 H 0.97405 0.22677 0.30408 0.0
H548 H 0.0279 0.27678 0.37286 0.0
H549 H 0.07581 0.23949 0.36565 0.0
C550 C 0.07628 0.18484 0.33159 0.0
C551 C 0.07172 0.15616 0.3143 0.0
C552 C 0.05193 0.21034 0.33176 0.0
C553 C 0.04449 0.15489 0.29493 0.0
C554 C 0.02074 0.18061 0.29428 0.0
C555 C 0.99674 0.23035 0.31674 0.0
C556 C 0.99732 0.25424 0.33916 0.0
C557 C 0.02345 0.20771 0.31351 0.0
C558 C 0.02681 0.25838 0.35557 0.0
C559 C 0.05409 0.23686 0.35164 0.0
H560 H 0.78164 0.06821 0.41788 0.0
H561 H 0.80595 0.02736 0.33373 0.0
H562 H 0.83651 0.07858 0.32147 0.0
H563 H 0.86029 0.133 0.33644 0.0
H564 H 0.83593 0.17331 0.42063 0.0
H565 H 0.80092 0.12456 0.43095 0.0
C566 C 0.79343 0.07058 0.39676 0.0
C567 C 0.79203 0.0438 0.37693 0.0
C568 C 0.81089 0.10004 0.38988 0.0
C569 C 0.80688 0.0475 0.34947 0.0
C570 C 0.82441 0.07676 0.34247 0.0
C571 C 0.84694 0.13117 0.35687 0.0
C572 C 0.85071 0.15662 0.37773 0.0
C573 C 0.82718 0.10286 0.36276 0.0
C574 C 0.83311 0.15428 0.40406 0.0
C575 C 0.81336 0.12623 0.41009 0.0
H576 H 0.87187 0.8587 0.3075 0.0
H577 H 0.83164 0.84217 0.3932 0.0
H578 H 0.87103 0.79634 0.40114 0.0
H579 H 0.92127 0.76586 0.3862 0.0
H580 H 0.96248 0.78202 0.30078 0.0
H581 H 0.91798 0.82238 0.28995 0.0
C582 C 0.87157 0.84471 0.32771 0.0
C583 C 0.84908 0.85399 0.34977 0.0
C584 C 0.89449 0.81836 0.3322 0.0
C585 C 0.84851 0.83542 0.37578 0.0
C586 C 0.87119 0.8093 0.38041 0.0
C587 C 0.92018 0.7777 0.36497 0.0
C588 C 0.94563 0.77151 0.34458 0.0
C589 C 0.89487 0.8012 0.3591 0.0
C590 C 0.94348 0.78658 0.31701 0.0
C591 C 0.91813 0.80988 0.31087 0.0
H592 H 0.18569 0.09012 0.62198 0.0
H593 H 0.09403 0.07104 0.57509 0.0
H594 H 0.11095 0.01316 0.56683 0.0
H595 H 0.15004 0.96772 0.57441 0.0
H596 H 0.24233 0.98415 0.62138 0.0
H597 H 0.22707 0.04337 0.62815 0.0
C598 C 0.16979 0.0732 0.60976 0.0
C599 C 0.1385 0.08455 0.59945 0.0
C600 C 0.1796 0.03956 0.60535 0.0
C601 C 0.11792 0.0626 0.58363 0.0
C602 C 0.1276 0.02957 0.57885 0.0
C603 C 0.16692 0.98403 0.5863 0.0
C604 C 0.19711 0.97131 0.59771 0.0
C605 C 0.15805 0.01768 0.59002 0.0
C606 C 0.21881 0.99321 0.61254 0.0
C607 C 0.2101 0.02707 0.61637 0.0
H608 H 0.92868 0.18632 0.6247 0.0
H609 H 0.95426 0.12493 0.69908 0.0
H610 H 0.00685 0.15469 0.70437 0.0
H611 H 0.04917 0.19192 0.68342 0.0
H612 H 0.02356 0.25335 0.60928 0.0
H613 H 0.96677 0.23087 0.60948 0.0
C614 C 0.9452 0.1797 0.64249 0.0
C615 C 0.93761 0.15232 0.66071 0.0
C616 C 0.97555 0.19713 0.64565 0.0
C617 C 0.95964 0.14482 0.68384 0.0
C618 C 0.98979 0.16212 0.68715 0.0
C619 C 0.0309 0.20128 0.6679 0.0
C620 C 0.04089 0.22364 0.64593 0.0
C621 C 0.99857 0.18743 0.6675 0.0
C622 C 0.0167 0.23572 0.62618 0.0
C623 C 0.98427 0.22263 0.62608 0.0
H624 H 0.85826 0.88757 0.64012 0.0
H625 H 0.82948 0.87003 0.55124 0.0
H626 H 0.81559 0.92947 0.5452 0.0
H627 H 0.81878 0.98735 0.56362 0.0
H628 H 0.8454 0.00487 0.65314 0.0
H629 H 0.85282 0.9445 0.66082 0.0
C630 C 0.84805 0.89683 0.61977 0.0
C631 C 0.84485 0.87479 0.59617 0.0
C632 C 0.84035 0.93097 0.6165 0.0
C633 C 0.83171 0.88664 0.56975 0.0
C634 C 0.82418 0.92062 0.56623 0.0
C635 C 0.82585 0.97781 0.58487 0.0
C636 C 0.83232 0.00031 0.60764 0.0
C637 C 0.82954 0.94316 0.58916 0.0
C638 C 0.84063 0.98788 0.63527 0.0
C639 C 0.84493 0.95344 0.63963 0.0
H640 H 0.96403 0.76555 0.64296 0.0
H641 H 0.9818 0.7176 0.56047 0.0
H642 H 0.03813 0.74161 0.55883 0.0
H643 H 0.07715 0.78501 0.5761 0.0
H644 H 0.05651 0.83704 0.65603 0.0
H645 H 0.00653 0.80268 0.6636 0.0
C646 C 0.98064 0.75936 0.62513 0.0
C647 C 0.9687 0.74015 0.60172 0.0
C648 C 0.0122 0.77471 0.62358 0.0
C649 C 0.99043 0.73256 0.57865 0.0
C650 C 0.02251 0.74651 0.57758 0.0
C651 C 0.06222 0.78803 0.59558 0.0
C652 C 0.07011 0.81367 0.61535 0.0
C653 C 0.03293 0.76901 0.59918 0.0
C654 C 0.05048 0.8177 0.64037 0.0
C655 C 0.02198 0.79809 0.64468 0.0
H656 H 0.69365 0.4948 0.8867 0.0
H657 H 0.693 0.48905 0.79304 0.0
H658 H 0.68315 0.42856 0.79577 0.0
H659 H 0.67137 0.37809 0.8249 0.0
H660 H 0.66816 0.38604 0.91851 0.0
H661 H 0.68339 0.44472 0.9155 0.0
C662 C 0.69175 0.48035 0.86681 0.0
C663 C 0.69392 0.49649 0.8397 0.0
C664 C 0.68528 0.4459 0.86852 0.0
C665 C 0.69133 0.47728 0.81421 0.0
C666 C 0.68559 0.4427 0.81575 0.0
C667 C 0.67386 0.3926 0.84465 0.0
C668 C 0.6686 0.37727 0.87186 0.0
C669 C 0.68185 0.42687 0.84282 0.0
C670 C 0.67253 0.39662 0.89722 0.0
C671 C 0.68101 0.43045 0.89557 0.0
H672 H 0.46366 0.66902 0.78659 0.0
H673 H 0.49077 0.74659 0.84754 0.0
H674 H 0.54776 0.72434 0.85034 0.0
H675 H 0.58591 0.67665 0.84281 0.0
H676 H 0.55719 0.59715 0.78455 0.0
H677 H 0.50481 0.62628 0.7733 0.0
C678 C 0.4823 0.68177 0.79974 0.0
C679 C 0.47286 0.7091 0.81715 0.0
C680 C 0.51454 0.66795 0.80226 0.0
C681 C 0.49735 0.72528 0.83411 0.0
C682 C 0.52988 0.7124 0.83592 0.0
C683 C 0.56865 0.66625 0.82701 0.0
C684 C 0.57509 0.63458 0.81484 0.0
C685 C 0.53821 0.68275 0.82124 0.0
C686 C 0.55237 0.62123 0.79456 0.0
C687 C 0.52249 0.63789 0.7881 0.0
H688 H 0.28032 0.49469 0.88248 0.0
H689 H 0.36016 0.44207 0.83865 0.0
H690 H 0.38628 0.49546 0.82591 0.0
H691 H 0.389 0.55662 0.83095 0.0
H692 H 0.31116 0.60861 0.87794 0.0
H693 H 0.28138 0.55605 0.88501 0.0
C694 C 0.30313 0.49486 0.8697 0.0
C695 C 0.31834 0.4644 0.86168 0.0
C696 C 0.31849 0.52559 0.86311 0.0
C697 C 0.34801 0.46514 0.84526 0.0
C698 C 0.36301 0.49566 0.83801 0.0
C699 C 0.36554 0.55651 0.84276 0.0
C700 C 0.3527 0.58668 0.85412 0.0
C701 C 0.34894 0.52598 0.84751 0.0
C702 C 0.32174 0.58605 0.86872 0.0
C703 C 0.30473 0.55585 0.87301 0.0
H704 H 0.42291 0.26723 0.88928 0.0
H705 H 0.46862 0.34184 0.8343 0.0
H706 H 0.52268 0.3136 0.83873 0.0
H707 H 0.55783 0.27105 0.86188 0.0
H708 H 0.51293 0.19667 0.91777 0.0
H709 H 0.45758 0.22097 0.90881 0.0
C710 C 0.44474 0.27716 0.87825 0.0
C711 C 0.4419 0.30675 0.86175 0.0
C712 C 0.47581 0.26077 0.88094 0.0
C713 C 0.47016 0.31904 0.84704 0.0
C714 C 0.5011 0.30298 0.84964 0.0
C715 C 0.5359 0.25975 0.87172 0.0
C716 C 0.5396 0.23232 0.8907 0.0
C717 C 0.50433 0.27423 0.86698 0.0
C718 C 0.51084 0.21776 0.90301 0.0
C719 C 0.47918 0.23186 0.89814 0.0
H720 H 0.63958 0.6603 0.16719 0.0
H721 H 0.6477 0.65589 0.07375 0.0
H722 H 0.66737 0.59808 0.07697 0.0
H723 H 0.68277 0.5488 0.10636 0.0
H724 H 0.67591 0.55414 0.19989 0.0
H725 H 0.65613 0.61187 0.1965 0.0
C726 C 0.64593 0.64692 0.14749 0.0
C727 C 0.64205 0.66267 0.12029 0.0
C728 C 0.65775 0.61384 0.1495 0.0
C729 C 0.64987 0.64446 0.095 0.0
C730 C 0.66144 0.6114 0.09682 0.0
C731 C 0.67711 0.56262 0.12603 0.0
C732 C 0.6808 0.54704 0.15334 0.0
C733 C 0.66555 0.59586 0.12396 0.0
C734 C 0.67331 0.5654 0.17857 0.0
C735 C 0.6619 0.59844 0.17667 0.0
H736 H 0.51394 0.7594 0.16649 0.0
H737 H 0.49063 0.77557 0.0759 0.0
H738 H 0.43806 0.74507 0.08153 0.0
H739 H 0.4042 0.7052 0.10994 0.0
H740 H 0.42983 0.68575 0.19926 0.0
H741 H 0.47552 0.72657 0.19669 0.0
C742 C 0.49699 0.75702 0.14814 0.0
C743 C 0.50656 0.76921 0.12071 0.0
C744 C 0.46725 0.73855 0.1513 0.0
C745 C 0.48416 0.766 0.0972 0.0
C746 C 0.45407 0.74848 0.10036 0.0
C747 C 0.41902 0.71096 0.12907 0.0
C748 C 0.41386 0.69264 0.15476 0.0
C749 C 0.44609 0.73338 0.12699 0.0
C750 C 0.43355 0.69971 0.17932 0.0
C751 C 0.45976 0.72279 0.17775 0.0
H752 H 0.36007 0.50405 0.19768 0.0
H753 H 0.34863 0.49997 0.10442 0.0
H754 H 0.36487 0.44132 0.10442 0.0
H755 H 0.38065 0.39066 0.13075 0.0
H756 H 0.39471 0.39433 0.22368 0.0
H757 H 0.37909 0.45351 0.2239 0.0
C758 C 0.36117 0.49033 0.17738 0.0
C759 C 0.35274 0.50642 0.15117 0.0
C760 C 0.37101 0.45646 0.17742 0.0
C761 C 0.35464 0.4883 0.125 0.0
C762 C 0.36404 0.45466 0.12492 0.0
C763 C 0.38091 0.40442 0.15102 0.0
C764 C 0.38869 0.38788 0.17715 0.0
C765 C 0.37214 0.43846 0.15099 0.0
C766 C 0.3883 0.40621 0.20326 0.0
C767 C 0.37949 0.44014 0.20342 0.0
H768 H 0.50226 0.31744 0.21271 0.0
H769 H 0.53143 0.25946 0.1379 0.0
H770 H 0.58157 0.29406 0.13205 0.0
H771 H 0.61197 0.34623 0.14363 0.0
H772 H 0.5792 0.40709 0.21535 0.0
H773 H 0.53577 0.36603 0.22723 0.0
C774 C 0.52015 0.31173 0.1957 0.0
C775 C 0.51321 0.28602 0.17576 0.0
C776 C 0.54797 0.33272 0.19164 0.0
C777 C 0.53629 0.27922 0.15349 0.0
C778 C 0.56482 0.29912 0.15003 0.0
C779 C 0.59582 0.34991 0.16227 0.0
C780 C 0.59849 0.37953 0.17859 0.0
C781 C 0.57018 0.32678 0.16825 0.0
C782 C 0.57722 0.38448 0.20245 0.0
C783 C 0.55247 0.36106 0.20919 0.0
H784 H 0.1143 0.11662 0.42856 0.0
H785 H 0.20889 0.16387 0.40969 0.0
H786 H 0.20676 0.19386 0.45619 0.0
H787 H 0.17908 0.20378 0.5037 0.0
H788 H 0.08313 0.15785 0.52039 0.0
H789 H 0.08475 0.12999 0.47336 0.0
C790 C 0.13425 0.13381 0.43452 0.0
C791 C 0.16175 0.13802 0.41601 0.0
C792 C 0.13276 0.15083 0.46103 0.0
C793 C 0.18733 0.16051 0.42367 0.0
C794 C 0.18626 0.17738 0.45031 0.0
C795 C 0.15864 0.18765 0.4969 0.0
C796 C 0.1312 0.18253 0.51544 0.0
C797 C 0.15936 0.17222 0.46944 0.0
C798 C 0.10452 0.1621 0.50639 0.0
C799 C 0.1054 0.14615 0.47954 0.0
H800 H 0.85937 0.25406 0.48412 0.0
H801 H 0.93902 0.18539 0.46213 0.0
H802 H 0.92315 0.14876 0.50225 0.0
H803 H 0.88569 0.13524 0.54267 0.0
H804 H 0.80812 0.20499 0.56713 0.0
H805 H 0.82412 0.24231 0.52711 0.0
C806 C 0.87329 0.23116 0.48828 0.0
C807 C 0.90023 0.22237 0.47018 0.0
C808 C 0.86435 0.2104 0.51176 0.0
C809 C 0.91829 0.19279 0.47587 0.0
C810 C 0.90915 0.17174 0.49873 0.0
C811 C 0.87234 0.15866 0.53923 0.0
C812 C 0.84561 0.1673 0.55752 0.0
C813 C 0.88209 0.18015 0.51664 0.0
C814 C 0.82882 0.1979 0.55323 0.0
C815 C 0.83789 0.21915 0.53034 0.0
H816 H 0.78966 0.78883 0.50184 0.0
H817 H 0.88939 0.82993 0.49478 0.0
H818 H 0.86854 0.87425 0.46299 0.0
H819 H 0.82218 0.9017 0.43749 0.0
H820 H 0.72315 0.85884 0.44069 0.0
H821 H 0.74332 0.81502 0.47402 0.0
C822 C 0.8068 0.8074 0.49318 0.0
C823 C 0.84101 0.80609 0.50066 0.0
C824 C 0.79469 0.8327 0.47457 0.0
C825 C 0.86299 0.83021 0.4892 0.0
C826 C 0.85107 0.85573 0.47117 0.0
C827 C 0.80492 0.88302 0.44585 0.0
C828 C 0.77113 0.88375 0.43729 0.0
C829 C 0.81697 0.85736 0.46392 0.0
C830 C 0.74921 0.85886 0.44738 0.0
C831 C 0.76077 0.8338 0.46627 0.0
H832 H 0.06335 0.81382 0.41964 0.0
H833 H 0.1365 0.73528 0.40851 0.0
H834 H 0.16695 0.7548 0.45168 0.0
H835 H 0.17227 0.79439 0.49295 0.0
H836 H 0.10106 0.87534 0.50093 0.0
H837 H 0.07028 0.85477 0.45871 0.0
C838 C 0.08594 0.80097 0.42673 0.0
C839 C 0.09759 0.77305 0.41123 0.0
C840 C 0.10359 0.81279 0.45101 0.0
C841 C 0.12716 0.7569 0.42021 0.0
C842 C 0.14447 0.76799 0.4449 0.0
C843 C 0.14998 0.80736 0.48538 0.0
C844 C 0.13876 0.83616 0.50003 0.0
C845 C 0.13285 0.79588 0.46054 0.0
C846 C 0.11017 0.85315 0.4899 0.0
C847 C 0.09252 0.84138 0.46582 0.0
H848 H 0.68863 0.68737 0.92537 0.0
H849 H 0.61584 0.61008 0.94283 0.0
H850 H 0.59526 0.64176 0.98477 0.0
H851 H 0.59798 0.69156 0.01605 0.0
H852 H 0.67323 0.76704 0.00041 0.0
H853 H 0.69322 0.73574 0.9581 0.0
C854 C 0.66809 0.67763 0.93827 0.0
C855 C 0.65335 0.64678 0.93094 0.0
C856 C 0.6571 0.6955 0.96264 0.0
C857 C 0.62736 0.63392 0.9481 0.0
C858 C 0.61566 0.65198 0.97201 0.0
C859 C 0.61877 0.70112 0.00336 0.0
C860 C 0.63403 0.73161 0.01107 0.0
C861 C 0.63035 0.68279 0.97944 0.0
C862 C 0.66122 0.74355 -0.00518 0.0
C863 C 0.67251 0.72577 0.97061 0.0
H864 H 0.32913 0.71015 0.95506 0.0
H865 H 0.42348 0.65858 0.94465 0.0
H866 H 0.41932 0.636 -0.00628 0.0
H867 H 0.38818 0.62929 0.0389 0.0
H868 H 0.29479 0.68203 0.05089 0.0
H869 H 0.29953 0.70635 0.00219 0.0
C870 C 0.34863 0.6939 0.96363 0.0
C871 C 0.37638 0.68573 0.94631 0.0
C872 C 0.34643 0.68151 -0.00782 0.0
C873 C 0.40186 0.66516 0.95766 0.0
C874 C 0.39954 0.65225 0.9857 0.0
C875 C 0.36903 0.64637 0.03096 0.0
C876 C 0.34114 0.65374 0.0483 0.0
C877 C 0.37189 0.66012 0.00307 0.0
C878 C 0.31662 0.67612 0.03791 0.0
C879 C 0.31917 0.68981 0.01 0.0
H880 H 0.31873 0.30333 0.97726 0.0
H881 H 0.40029 0.37262 0.96435 0.0
H882 H 0.42104 0.36124 0.01338 0.0
H883 H 0.41648 0.33107 0.05958 0.0
H884 H 0.3338 0.26334 0.07363 0.0
H885 H 0.31258 0.27512 0.02477 0.0
C886 C 0.34119 0.31565 0.98519 0.0
C887 C 0.35827 0.33839 0.96722 0.0
C888 C 0.35248 0.30963 0.01369 0.0
C889 C 0.38688 0.35485 0.97783 0.0
C890 C 0.39869 0.34844 0.00585 0.0
C891 C 0.39364 0.31912 0.05205 0.0
C892 C 0.37678 0.29634 0.07015 0.0
C893 C 0.38168 0.32592 0.02397 0.0
C894 C 0.34714 0.28115 0.06016 0.0
C895 C 0.33514 0.28766 0.03213 0.0
H896 H 0.69438 0.28919 0.00192 0.0
H897 H 0.61295 0.34789 0.96674 0.0
H898 H 0.61929 0.3889 0.00568 0.0
H899 H 0.64764 0.40791 0.05007 0.0
H900 H 0.7268 0.34756 0.08714 0.0
H901 H 0.72157 0.30734 0.04746 0.0
C902 C 0.67823 0.31108 0.00282 0.0
C903 C 0.65336 0.31568 0.98162 0.0
C904 C 0.68143 0.33414 0.02573 0.0
C905 C 0.6322 0.34383 0.98304 0.0
C906 C 0.63581 0.3673 0.00524 0.0
C907 C 0.66366 0.38591 0.04945 0.0
C908 C 0.68752 0.3807 0.07143 0.0
C909 C 0.66022 0.36264 0.0268 0.0
C910 C 0.70804 0.35201 0.07052 0.0
C911 C 0.7052 0.32906 0.04777 0.0
H912 H 0.30786 0.08264 0.28067 0.0
H913 H 0.23351 0.08879 0.21279 0.0
H914 H 0.2756 0.11053 0.17906 0.0
H915 H 0.32902 0.13924 0.17304 0.0
H916 H 0.40025 0.14179 0.24356 0.0
H917 H 0.36478 0.10384 0.27191 0.0
C918 C 0.30137 0.08766 0.25816 0.0
C919 C 0.26797 0.08448 0.24895 0.0
C920 C 0.32512 0.10198 0.23964 0.0
C921 C 0.25925 0.09129 0.22004 0.0
C922 C 0.2832 0.10381 0.20093 0.0
C923 C 0.33705 0.13075 0.19437 0.0
C924 C 0.36647 0.14381 0.20672 0.0
C925 C 0.31558 0.11105 0.21107 0.0
C926 C 0.37741 0.13219 0.2339 0.0
C927 C 0.35698 0.11085 0.25016 0.0
H928 H 0.75637 0.42588 0.26818 0.0
H929 H 0.84087 0.43219 0.21035 0.0
H930 H 0.87729 0.40758 0.24768 0.0
H931 H 0.88246 0.37631 0.29347 0.0
H932 H 0.79769 0.37063 0.3515 0.0
H933 H 0.7638 0.40266 0.31715 0.0
C934 C 0.78297 0.42262 0.26415 0.0
C935 C 0.79605 0.43048 0.2367 0.0
C936 C 0.80341 0.40787 0.28539 0.0
C937 C 0.83045 0.42642 0.23149 0.0
C938 C 0.85112 0.41202 0.25268 0.0
C939 C 0.85686 0.38278 0.29903 0.0
C940 C 0.84244 0.37029 0.32475 0.0
C941 C 0.83753 0.40143 0.27926 0.0
C942 C 0.80914 0.37892 0.33144 0.0
C943 C 0.78978 0.39749 0.31192 0.0
H944 H 0.72084 0.93199 0.23553 0.0
H945 H 0.62577 0.9197 0.27901 0.0
H946 H 0.60024 0.90101 0.23366 0.0
H947 H 0.60679 0.88204 0.1835 0.0
H948 H 0.70113 0.89678 0.13949 0.0
H949 H 0.72489 0.92158 0.18338 0.0
C950 C 0.6943 0.92621 0.23505 0.0
C951 C 0.67546 0.9267 0.26086 0.0
C952 C 0.67969 0.91576 0.20889 0.0
C953 C 0.64115 0.91866 0.25968 0.0
C954 C 0.62644 0.90818 0.23371 0.0
C955 C 0.63222 0.8916 0.18312 0.0
C956 C 0.65232 0.887 0.15837 0.0
C957 C 0.64575 0.90571 0.20841 0.0
C958 C 0.68535 0.89929 0.15848 0.0
C959 C 0.69894 0.91352 0.18354 0.0
H960 H 0.11662 0.62839 0.26868 0.0
H961 H 0.08759 0.70405 0.20669 0.0
H962 H 0.13124 0.68499 0.17325 0.0
H963 H 0.18354 0.6536 0.16597 0.0
H964 H 0.21443 0.57963 0.22897 0.0
H965 H 0.16424 0.59106 0.25796 0.0
C966 C 0.119 0.63954 0.24726 0.0
C967 C 0.09896 0.66716 0.23976 0.0
C968 C 0.14513 0.62948 0.22892 0.0
C969 C 0.10253 0.6823 0.21243 0.0
C970 C 0.1278 0.67179 0.19363 0.0
C971 C 0.17899 0.63985 0.18594 0.0
C972 C 0.20272 0.61645 0.19585 0.0
C973 C 0.15026 0.6466 0.20234 0.0
C974 C 0.19649 0.59806 0.22127 0.0
C975 C 0.16786 0.60455 0.23775 0.0
H976 H 0.33576 0.75961 0.73889 0.0
H977 H 0.25058 0.77418 0.795 0.0
H978 H 0.21765 0.79537 0.75387 0.0
H979 H 0.21405 0.81159 0.70227 0.0
H980 H 0.3 0.79761 0.64681 0.0
H981 H 0.33182 0.77437 0.68748 0.0
C982 C 0.31001 0.76754 0.7421 0.0
C983 C 0.29564 0.76565 0.76987 0.0
C984 C 0.29148 0.77984 0.71855 0.0
C985 C 0.26207 0.77529 0.77373 0.0
C986 C 0.24335 0.78758 0.7503 0.0
C987 C 0.23979 0.80357 0.6992 0.0
C988 C 0.25475 0.80638 0.67168 0.0
C989 C 0.25795 0.7903 0.72268 0.0
C990 C 0.28791 0.79542 0.66777 0.0
C991 C 0.30614 0.78228 0.69101 0.0
H992 H 0.27218 0.33069 0.76326 0.0
H993 H 0.23954 0.24476 0.8127 0.0
H994 H 0.21841 0.21841 0.76829 0.0
H995 H 0.20512 0.22216 0.71595 0.0
H996 H 0.23479 0.30983 0.66765 0.0
H997 H 0.26147 0.33326 0.71104 0.0
C998 C 0.26026 0.30628 0.76433 0.0
C999 C 0.25694 0.28989 0.7912 0.0
C1000 C 0.24786 0.2916 0.73891 0.0
C1001 C 0.24233 0.25786 0.79221 0.0
C1002 C 0.23019 0.24285 0.76688 0.0
C1003 C 0.21815 0.24601 0.71497 0.0
C1004 C 0.21842 0.2643 0.68892 0.0
C1005 C 0.23238 0.25972 0.74018 0.0
C1006 C 0.23466 0.29543 0.68764 0.0
C1007 C 0.24964 0.30885 0.7124 0.0
H1008 H 0.67534 0.15926 0.81105 0.0
H1009 H 0.77167 0.18201 0.84925 0.0
H1010 H 0.79979 0.15922 0.8065 0.0
H1011 H 0.79661 0.13724 0.75676 0.0
H1012 H 0.70021 0.11476 0.71888 0.0
H1013 H 0.67239 0.13183 0.76376 0.0
C1014 C 0.70251 0.15847 0.81046 0.0
C1015 C 0.72137 0.17259 0.83323 0.0
C1016 C 0.71843 0.14535 0.78594 0.0
C1017 C 0.75656 0.17187 0.83178 0.0
C1018 C 0.77264 0.15871 0.80743 0.0
C1019 C 0.76952 0.13582 0.75852 0.0
C1020 C 0.75037 0.12519 0.7346 0.0
C1021 C 0.75377 0.14616 0.78412 0.0
C1022 C 0.7154 0.12281 0.73712 0.0
C1023 C 0.69951 0.1328 0.76264 0.0
H1024 H 0.77185 0.60251 0.74109 0.0
H1025 H 0.78353 0.69789 0.78405 0.0
H1026 H 0.80774 0.72198 0.7401 0.0
H1027 H 0.82164 0.71709 0.68869 0.0
H1028 H 0.80998 0.62232 0.6449 0.0
H1029 H 0.78995 0.59653 0.69005 0.0
C1030 C 0.78034 0.62835 0.74088 0.0
C1031 C 0.7757 0.64856 0.76551 0.0
C1032 C 0.7938 0.64216 0.7154 0.0
C1033 C 0.78654 0.68207 0.76511 0.0
C1034 C 0.80031 0.69583 0.74005 0.0
C1035 C 0.8146 0.69081 0.68908 0.0
C1036 C 0.81662 0.67169 0.6636 0.0
C1037 C 0.80324 0.67635 0.71491 0.0
C1038 C 0.80836 0.63747 0.66436 0.0
C1039 C 0.79692 0.6228 0.69009 0.0
H1040 H 0.27615 0.03588 0.45202 0.0
H1041 H 0.25547 0.96995 0.38037 0.0
H1042 H 0.26465 0.92088 0.4115 0.0
H1043 H 0.26694 0.8979 0.46087 0.0
H1044 H 0.27943 0.96428 0.53366 0.0
H1045 H 0.2859 0.01219 0.50072 0.0
C1046 C 0.27491 0.01068 0.44324 0.0
C1047 C 0.26523 0.00607 0.41427 0.0
C1048 C 0.27834 0.98287 0.46165 0.0
C1049 C 0.26292 0.97361 0.40279 0.0
C1050 C 0.26798 0.94573 0.42057 0.0
C1051 C 0.27239 0.9227 0.46929 0.0
C1052 C 0.2728 0.92792 0.49937 0.0
C1053 C 0.27405 0.95012 0.45032 0.0
C1054 C 0.27913 0.96008 0.51041 0.0
C1055 C 0.28255 0.98735 0.49164 0.0
H1056 H 0.97881 0.36021 0.50163 0.0
H1057 H 0.03506 0.34289 0.42337 0.0
H1058 H 0.08726 0.34114 0.4513 0.0
H1059 H 0.11376 0.33052 0.4986 0.0
H1060 H 0.05618 0.34175 0.57688 0.0
H1061 H 0.00777 0.36102 0.54866 0.0
C1062 C 0.00265 0.35745 0.49064 0.0
C1063 C 0.00325 0.35106 0.46068 0.0
C1064 C 0.03223 0.35493 0.50702 0.0
C1065 C 0.0342 0.34731 0.44657 0.0
C1066 C 0.06394 0.34617 0.46253 0.0
C1067 C 0.09107 0.33869 0.50944 0.0
C1068 C 0.08813 0.33449 0.53958 0.0
C1069 C 0.06294 0.34787 0.49292 0.0
C1070 C 0.05863 0.3447 0.55359 0.0
C1071 C 0.03096 0.35537 0.53745 0.0
H1072 H 0.69436 0.97182 0.48354 0.0
H1073 H 0.66489 0.05865 0.43356 0.0
H1074 H 0.67141 0.0941 0.47617 0.0
H1075 H 0.69611 0.10199 0.52479 0.0
H1076 H 0.73023 0.01587 0.57317 0.0
H1077 H 0.71149 0.97863 0.53427 0.0
C1078 C 0.68887 0.99842 0.48213 0.0
C1079 C 0.67987 0.01255 0.45525 0.0
C1080 C 0.69408 0.01892 0.50641 0.0
C1081 C 0.67193 0.04695 0.4539 0.0
C1082 C 0.67601 0.0674 0.47824 0.0
C1083 C 0.6984 0.07501 0.52708 0.0
C1084 C 0.71485 0.06158 0.55145 0.0
C1085 C 0.68861 0.05391 0.5042 0.0
C1086 C 0.71801 0.02663 0.55428 0.0
C1087 C 0.70737 0.0054 0.53208 0.0
H1088 H 0.88595 0.64833 0.45255 0.0
H1089 H 0.9549 0.64824 0.52465 0.0
H1090 H 0.0011 0.63377 0.49228 0.0
H1091 H 0.02301 0.63623 0.44285 0.0
H1092 H 0.95486 0.64094 0.37024 0.0
H1093 H 0.90703 0.63734 0.40319 0.0
C1094 C 0.91084 0.64374 0.4612 0.0
C1095 C 0.91739 0.65002 0.49066 0.0
C1096 C 0.93746 0.63679 0.44224 0.0
C1097 C 0.94966 0.6441 0.50183 0.0
C1098 C 0.97602 0.63595 0.48334 0.0
C1099 C 0.99777 0.63488 0.43415 0.0
C1100 C 0.99234 0.63978 0.4043 0.0
C1101 C 0.97053 0.63444 0.45331 0.0
C1102 C 0.95948 0.6379 0.39329 0.0
C1103 C 0.93217 0.63612 0.41213 0.0
H1104 H 0.78031 0.52282 0.94107 0.0
H1105 H 0.76645 0.61851 0.98251 0.0
H1106 H 0.77114 0.59209 0.03043 0.0
H1107 H 0.77315 0.54058 0.06024 0.0
H1108 H 0.78918 0.44516 0.01894 0.0
H1109 H 0.79017 0.47235 0.97116 0.0
C1110 C 0.77904 0.53778 0.96069 0.0
C1111 C 0.77302 0.57238 0.95851 0.0
C1112 C 0.78195 0.5224 0.98804 0.0
C1113 C 0.77142 0.59185 0.98386 0.0
C1114 C 0.77383 0.57671 0.01117 0.0
C1115 C 0.77752 0.52603 0.04072 0.0
C1116 C 0.78099 0.49109 0.04284 0.0
C1117 C 0.77823 0.5419 0.0135 0.0
C1118 C 0.78675 0.47217 0.01765 0.0
C1119 C 0.78705 0.48767 -0.0096 0.0
H1120 H 0.46758 0.82841 0.90009 0.0
H1121 H 0.39026 0.823 0.96498 0.0
H1122 H 0.4307 0.83799 0.00281 0.0
H1123 H 0.48979 0.84287 0.01796 0.0
H1124 H 0.56718 0.84781 0.95307 0.0
H1125 H 0.52516 0.84329 0.91447 0.0
C1126 C 0.45961 0.83155 0.92243 0.0
C1127 C 0.42633 0.82442 0.92995 0.0
C1128 C 0.48308 0.83959 0.94398 0.0
C1129 C 0.41582 0.82861 0.9588 0.0
C1130 C 0.43898 0.83679 0.98042 0.0
C1131 C 0.49715 0.84371 -0.00469 0.0
C1132 C 0.53128 0.8452 0.98818 0.0
C1133 C 0.47292 0.84084 0.97338 0.0
C1134 C 0.54092 0.84672 0.9589 0.0
C1135 C 0.51697 0.84388 0.9369 0.0
H1136 H 0.22155 0.5296 0.01958 0.0
H1137 H 0.2954 0.48311 0.07531 0.0
H1138 H 0.29396 0.43249 0.04597 0.0
H1139 H 0.27734 0.40444 0.00097 0.0
H1140 H 0.2036 0.44951 0.9449 0.0
H1141 H 0.19835 0.49738 0.97822 0.0
C1142 C 0.23674 0.50813 0.0256 0.0
C1143 C 0.25934 0.51051 0.04902 0.0
C1144 C 0.23574 0.47891 0.00858 0.0
C1145 C 0.27873 0.48237 0.05674 0.0
C1146 C 0.27774 0.45329 0.04013 0.0
C1147 C 0.25952 0.42443 -0.00337 0.0
C1148 C 0.24098 0.42393 0.97079 0.0
C1149 C 0.25725 0.45177 0.01548 0.0
C1150 C 0.21784 0.44959 0.96496 0.0
C1151 C 0.21518 0.47699 0.9838 0.0
H1152 H 0.55243 0.17036 0.97799 0.0
H1153 H 0.62674 0.19092 0.04338 0.0
H1154 H 0.58378 0.18775 0.08143 0.0
H1155 H 0.52376 0.18867 0.09415 0.0
H1156 H 0.44962 0.16911 0.02811 0.0
H1157 H 0.49375 0.16148 -0.00803 0.0
C1158 C 0.5591 0.17308 0.00073 0.0
C1159 C 0.59215 0.18108 0.00826 0.0
C1160 C 0.53432 0.17173 0.02206 0.0
C1161 C 0.60121 0.18458 0.0375 0.0
C1162 C 0.57668 0.18309 0.05905 0.0
C1163 C 0.51752 0.18205 0.07194 0.0
C1164 C 0.48377 0.17997 0.06348 0.0
C1165 C 0.54296 0.17816 0.05136 0.0
C1166 C 0.47556 0.17081 0.03492 0.0
C1167 C 0.50071 0.16671 0.01429 0.0
loop_
_geom_bond_atom_site_label_1
_geom_bond_atom_site_label_2
_geom_bond_distance
_geom_bond_site_symmetry_2
_ccdc_geom_bond_type
Co0 N4 2.148 . S
Co0 N10 2.128 . S
Co0 N20 2.194 . S
Co0 O25 2.351 . S
Co0 O26 2.155 . S
Co0 O27 2.096 . S
C1 N4 1.301 . S
C1 N5 1.328 . S
C1 H6 0.930 . S
C2 C3 1.333 . S
C2 N4 1.317 . S
C2 H7 0.930 . S
C3 C2 1.333 . S
C3 N5 1.350 . S
C3 H29 0.931 . S
N4 Co0 2.148 . S
N4 C1 1.301 . S
N4 C2 1.317 . S
N5 C1 1.328 . S
N5 C3 1.350 . S
H6 C1 0.930 . S
H7 C2 0.930 . S
C8 O9 1.224 . S
C8 O27 1.247 . S
O9 C8 1.224 . S
N10 Co0 2.128 . S
N10 C11 1.355 . S
N10 C13 1.311 . S
C11 N10 1.355 . S
C11 C12 1.363 . S
C11 H23 0.929 . S
C12 C11 1.363 . S
C12 N14 1.375 . S
C12 H30 0.931 . S
C13 N10 1.311 . S
C13 N14 1.347 . S
C13 H24 0.929 . S
N14 C12 1.375 . S
N14 C13 1.347 . S
C15 C18 1.365 . S
C15 N20 1.328 . S
C15 H21 0.929 . S
C16 C17 1.362 . S
C16 C19 1.378 . S
C16 H31 0.929 . S
C17 C16 1.362 . S
C17 C18 1.366 . S
C18 C15 1.365 . S
C18 C17 1.366 . S
C18 H32 0.930 . S
C19 C16 1.378 . S
C19 N20 1.315 . S
C19 H22 0.930 . S
N20 Co0 2.194 . S
N20 C15 1.328 . S
N20 C19 1.315 . S
H21 C15 0.929 . S
H22 C19 0.930 . S
H23 C11 0.929 . S
H24 C13 0.929 . S
O25 Co0 2.351 . S
O25 C28 1.244 . S
O26 Co0 2.155 . S
O26 C28 1.240 . S
O27 Co0 2.096 . S
O27 C8 1.247 . S
C28 O25 1.244 . S
C28 O26 1.240 . S
H29 C3 0.931 . S
H30 C12 0.931 . S
H31 C16 0.929 . S
H32 C18 0.930 . S
Co33 N37 2.148 . S
Co33 N43 2.128 . S
Co33 N53 2.194 . S
Co33 O58 2.351 . S
Co33 O59 2.155 . S
Co33 O60 2.096 . S
C34 N37 1.301 . S
C34 N38 1.328 . S
C34 H39 0.930 . S
C35 C36 1.333 . S
C35 N37 1.317 . S
C35 H40 0.930 . S
C36 C35 1.333 . S
C36 N38 1.350 . S
C36 H62 0.931 . S
N37 Co33 2.148 . S
N37 C34 1.301 . S
N37 C35 1.317 . S
N38 C34 1.328 . S
N38 C36 1.350 . S
H39 C34 0.930 . S
H40 C35 0.930 . S
C41 O42 1.224 . S
C41 O60 1.247 . S
O42 C41 1.224 . S
N43 Co33 2.128 . S
N43 C44 1.355 . S
N43 C46 1.311 . S
C44 N43 1.355 . S
C44 C45 1.363 . S
C44 H56 0.929 . S
C45 C44 1.363 . S
C45 N47 1.375 . S
C45 H63 0.931 . S
C46 N43 1.311 . S
C46 N47 1.347 . S
C46 H57 0.929 . S
N47 C45 1.375 . S
N47 C46 1.347 . S
C48 C51 1.365 . S
C48 N53 1.328 . S
C48 H54 0.929 . S
C49 C50 1.362 . S
C49 C52 1.378 . S
C49 H64 0.929 . S
C50 C49 1.362 . S
C50 C51 1.366 . S
C51 C48 1.365 . S
C51 C50 1.366 . S
C51 H65 0.930 . S
C52 C49 1.378 . S
C52 N53 1.315 . S
C52 H55 0.930 . S
N53 Co33 2.194 . S
N53 C48 1.328 . S
N53 C52 1.315 . S
H54 C48 0.929 . S
H55 C52 0.930 . S
H56 C44 0.929 . S
H57 C46 0.929 . S
O58 Co33 2.351 . S
O58 C61 1.244 . S
O59 Co33 2.155 . S
O59 C61 1.240 . S
O60 Co33 2.096 . S
O60 C41 1.247 . S
C61 O58 1.244 . S
C61 O59 1.240 . S
H62 C36 0.931 . S
H63 C45 0.931 . S
H64 C49 0.929 . S
H65 C51 0.930 . S
Co66 N70 2.148 . S
Co66 N76 2.128 . S
Co66 N86 2.194 . S
Co66 O91 2.351 . S
Co66 O92 2.155 . S
Co66 O93 2.096 . S
C67 N70 1.301 . S
C67 N71 1.328 . S
C67 H72 0.930 . S
C68 C69 1.333 . S
C68 N70 1.317 . S
C68 H73 0.930 . S
C69 C68 1.333 . S
C69 N71 1.350 . S
C69 H95 0.931 . S
N70 Co66 2.148 . S
N70 C67 1.301 . S
N70 C68 1.317 . S
N71 C67 1.328 . S
N71 C69 1.350 . S
H72 C67 0.930 . S
H73 C68 0.930 . S
C74 O75 1.224 . S
C74 O93 1.247 . S
O75 C74 1.224 . S
N76 Co66 2.128 . S
N76 C77 1.355 . S
N76 C79 1.311 . S
C77 N76 1.355 . S
C77 C78 1.363 . S
C77 H89 0.929 . S
C78 C77 1.363 . S
C78 N80 1.375 . S
C78 H96 0.931 . S
C79 N76 1.311 . S
C79 N80 1.347 . S
C79 H90 0.929 . S
N80 C78 1.375 . S
N80 C79 1.347 . S
C81 C84 1.365 . S
C81 N86 1.328 . S
C81 H87 0.929 . S
C82 C83 1.362 . S
C82 C85 1.378 . S
C82 H97 0.929 . S
C83 C82 1.362 . S
C83 C84 1.366 . S
C84 C81 1.365 . S
C84 C83 1.366 . S
C84 H98 0.930 . S
C85 C82 1.378 . S
C85 N86 1.315 . S
C85 H88 0.930 . S
N86 Co66 2.194 . S
N86 C81 1.328 . S
N86 C85 1.315 . S
H87 C81 0.929 . S
H88 C85 0.930 . S
H89 C77 0.929 . S
H90 C79 0.929 . S
O91 Co66 2.351 . S
O91 C94 1.244 . S
O92 Co66 2.155 . S
O92 C94 1.240 . S
O93 Co66 2.096 . S
O93 C74 1.247 . S
C94 O91 1.244 . S
C94 O92 1.240 . S
H95 C69 0.931 . S
H96 C78 0.931 . S
H97 C82 0.929 . S
H98 C84 0.930 . S
Co99 N103 2.148 . S
Co99 N109 2.128 . S
Co99 N119 2.194 . S
Co99 O124 2.351 . S
Co99 O125 2.155 . S
Co99 O126 2.096 . S
C100 N103 1.301 . S
C100 N104 1.328 . S
C100 H105 0.930 . S
C101 C102 1.333 . S
C101 N103 1.317 . S
C101 H106 0.930 . S
C102 C101 1.333 . S
C102 N104 1.350 . S
C102 H128 0.931 . S
N103 Co99 2.148 . S
N103 C100 1.301 . S
N103 C101 1.317 . S
N104 C100 1.328 . S
N104 C102 1.350 . S
H105 C100 0.930 . S
H106 C101 0.930 . S
C107 O108 1.224 . S
C107 O126 1.247 . S
O108 C107 1.224 . S
N109 Co99 2.128 . S
N109 C110 1.355 . S
N109 C112 1.311 . S
C110 N109 1.355 . S
C110 C111 1.363 . S
C110 H122 0.929 . S
C111 C110 1.363 . S
C111 N113 1.375 . S
C111 H129 0.931 . S
C112 N109 1.311 . S
C112 N113 1.347 . S
C112 H123 0.929 . S
N113 C111 1.375 . S
N113 C112 1.347 . S
C114 C117 1.365 . S
C114 N119 1.328 . S
C114 H120 0.929 . S
C115 C116 1.362 . S
C115 C118 1.378 . S
C115 H130 0.929 . S
C116 C115 1.362 . S
C116 C117 1.366 . S
C117 C114 1.365 . S
C117 C116 1.366 . S
C117 H131 0.930 . S
C118 C115 1.378 . S
C118 N119 1.315 . S
C118 H121 0.930 . S
N119 Co99 2.194 . S
N119 C114 1.328 . S
N119 C118 1.315 . S
H120 C114 0.929 . S
H121 C118 0.930 . S
H122 C110 0.929 . S
H123 C112 0.929 . S
O124 Co99 2.351 . S
O124 C127 1.244 . S
O125 Co99 2.155 . S
O125 C127 1.240 . S
O126 Co99 2.096 . S
O126 C107 1.247 . S
C127 O124 1.244 . S
C127 O125 1.240 . S
H128 C102 0.931 . S
H129 C111 0.931 . S
H130 C115 0.929 . S
H131 C117 0.930 . S
Co132 N136 2.148 . S
Co132 N142 2.128 . S
Co132 N152 2.194 . S
Co132 O157 2.351 . S
Co132 O158 2.155 . S
Co132 O159 2.096 . S
C133 N136 1.301 . S
C133 N137 1.328 . S
C133 H138 0.930 . S
C134 C135 1.333 . S
C134 N136 1.317 . S
C134 H139 0.930 . S
C135 C134 1.333 . S
C135 N137 1.350 . S
C135 H161 0.931 . S
N136 Co132 2.148 . S
N136 C133 1.301 . S
N136 C134 1.317 . S
N137 C133 1.328 . S
N137 C135 1.350 . S
H138 C133 0.930 . S
H139 C134 0.930 . S
C140 O141 1.224 . S
C140 O159 1.247 . S
O141 C140 1.224 . S
N142 Co132 2.128 . S
N142 C143 1.355 . S
N142 C145 1.311 . S
C143 N142 1.355 . S
C143 C144 1.363 . S
C143 H155 0.929 . S
C144 C143 1.363 . S
C144 N146 1.375 . S
C144 H162 0.931 . S
C145 N142 1.311 . S
C145 N146 1.347 . S
C145 H156 0.929 . S
N146 C144 1.375 . S
N146 C145 1.347 . S
C147 C150 1.365 . S
C147 N152 1.328 . S
C147 H153 0.929 . S
C148 C149 1.362 . S
C148 C151 1.378 . S
C148 H163 0.929 . S
C149 C148 1.362 . S
C149 C150 1.366 . S
C150 C147 1.365 . S
C150 C149 1.366 . S
C150 H164 0.930 . S
C151 C148 1.378 . S
C151 N152 1.315 . S
C151 H154 0.930 . S
N152 Co132 2.194 . S
N152 C147 1.328 . S
N152 C151 1.315 . S
H153 C147 0.929 . S
H154 C151 0.930 . S
H155 C143 0.929 . S
H156 C145 0.929 . S
O157 Co132 2.351 . S
O157 C160 1.244 . S
O158 Co132 2.155 . S
O158 C160 1.240 . S
O159 Co132 2.096 . S
O159 C140 1.247 . S
C160 O157 1.244 . S
C160 O158 1.240 . S
H161 C135 0.931 . S
H162 C144 0.931 . S
H163 C148 0.929 . S
H164 C150 0.930 . S
Co165 N169 2.148 . S
Co165 N175 2.128 . S
Co165 N185 2.194 . S
Co165 O190 2.351 . S
Co165 O191 2.155 . S
Co165 O192 2.096 . S
C166 N169 1.301 . S
C166 N170 1.328 . S
C166 H171 0.930 . S
C167 C168 1.333 . S
C167 N169 1.317 . S
C167 H172 0.930 . S
C168 C167 1.333 . S
C168 N170 1.350 . S
C168 H194 0.931 . S
N169 Co165 2.148 . S
N169 C166 1.301 . S
N169 C167 1.317 . S
N170 C166 1.328 . S
N170 C168 1.350 . S
H171 C166 0.930 . S
H172 C167 0.930 . S
C173 O174 1.224 . S
C173 O192 1.247 . S
O174 C173 1.224 . S
N175 Co165 2.128 . S
N175 C176 1.355 . S
N175 C178 1.311 . S
C176 N175 1.355 . S
C176 C177 1.363 . S
C176 H188 0.929 . S
C177 C176 1.363 . S
C177 N179 1.375 . S
C177 H195 0.931 . S
C178 N175 1.311 . S
C178 N179 1.347 . S
C178 H189 0.929 . S
N179 C177 1.375 . S
N179 C178 1.347 . S
C180 C183 1.365 . S
C180 N185 1.328 . S
C180 H186 0.929 . S
C181 C182 1.362 . S
C181 C184 1.378 . S
C181 H196 0.929 . S
C182 C181 1.362 . S
C182 C183 1.366 . S
C183 C180 1.365 . S
C183 C182 1.366 . S
C183 H197 0.930 . S
C184 C181 1.378 . S
C184 N185 1.315 . S
C184 H187 0.930 . S
N185 Co165 2.194 . S
N185 C180 1.328 . S
N185 C184 1.315 . S
H186 C180 0.929 . S
H187 C184 0.930 . S
H188 C176 0.929 . S
H189 C178 0.929 . S
O190 Co165 2.351 . S
O190 C193 1.244 . S
O191 Co165 2.155 . S
O191 C193 1.240 . S
O192 Co165 2.096 . S
O192 C173 1.247 . S
C193 O190 1.244 . S
C193 O191 1.240 . S
H194 C168 0.931 . S
H195 C177 0.931 . S
H196 C181 0.929 . S
H197 C183 0.930 . S
Co198 N202 2.148 . S
Co198 N208 2.128 . S
Co198 N218 2.194 . S
Co198 O223 2.351 . S
Co198 O224 2.155 . S
Co198 O225 2.096 . S
C199 N202 1.301 . S
C199 N203 1.328 . S
C199 H204 0.930 . S
C200 C201 1.333 . S
C200 N202 1.317 . S
C200 H205 0.930 . S
C201 C200 1.333 . S
C201 N203 1.350 . S
C201 H227 0.931 . S
N202 Co198 2.148 . S
N202 C199 1.301 . S
N202 C200 1.317 . S
N203 C199 1.328 . S
N203 C201 1.350 . S
H204 C199 0.930 . S
H205 C200 0.930 . S
C206 O207 1.224 . S
C206 O225 1.247 . S
O207 C206 1.224 . S
N208 Co198 2.128 . S
N208 C209 1.355 . S
N208 C211 1.311 . S
C209 N208 1.355 . S
C209 C210 1.363 . S
C209 H221 0.929 . S
C210 C209 1.363 . S
C210 N212 1.375 . S
C210 H228 0.931 . S
C211 N208 1.311 . S
C211 N212 1.347 . S
C211 H222 0.929 . S
N212 C210 1.375 . S
N212 C211 1.347 . S
C213 C216 1.365 . S
C213 N218 1.328 . S
C213 H219 0.929 . S
C214 C215 1.362 . S
C214 C217 1.378 . S
C214 H229 0.929 . S
C215 C214 1.362 . S
C215 C216 1.366 . S
C216 C213 1.365 . S
C216 C215 1.366 . S
C216 H230 0.930 . S
C217 C214 1.378 . S
C217 N218 1.315 . S
C217 H220 0.930 . S
N218 Co198 2.194 . S
N218 C213 1.328 . S
N218 C217 1.315 . S
H219 C213 0.929 . S
H220 C217 0.930 . S
H221 C209 0.929 . S
H222 C211 0.929 . S
O223 Co198 2.351 . S
O223 C226 1.244 . S
O224 Co198 2.155 . S
O224 C226 1.240 . S
O225 Co198 2.096 . S
O225 C206 1.247 . S
C226 O223 1.244 . S
C226 O224 1.240 . S
H227 C201 0.931 . S
H228 C210 0.931 . S
H229 C214 0.929 . S
H230 C216 0.930 . S
Co231 N235 2.148 . S
Co231 N241 2.128 . S
Co231 N251 2.194 . S
Co231 O256 2.351 . S
Co231 O257 2.155 . S
Co231 O258 2.096 . S
C232 N235 1.301 . S
C232 N236 1.328 . S
C232 H237 0.930 . S
C233 C234 1.333 . S
C233 N235 1.317 . S
C233 H238 0.930 . S
C234 C233 1.333 . S
C234 N236 1.350 . S
C234 H260 0.931 . S
N235 Co231 2.148 . S
N235 C232 1.301 . S
N235 C233 1.317 . S
N236 C232 1.328 . S
N236 C234 1.350 . S
H237 C232 0.930 . S
H238 C233 0.930 . S
C239 O240 1.224 . S
C239 O258 1.247 . S
O240 C239 1.224 . S
N241 Co231 2.128 . S
N241 C242 1.355 . S
N241 C244 1.311 . S
C242 N241 1.355 . S
C242 C243 1.363 . S
C242 H254 0.929 . S
C243 C242 1.363 . S
C243 N245 1.375 . S
C243 H261 0.931 . S
C244 N241 1.311 . S
C244 N245 1.347 . S
C244 H255 0.929 . S
N245 C243 1.375 . S
N245 C244 1.347 . S
C246 C249 1.365 . S
C246 N251 1.328 . S
C246 H252 0.929 . S
C247 C248 1.362 . S
C247 C250 1.378 . S
C247 H262 0.929 . S
C248 C247 1.362 . S
C248 C249 1.366 . S
C249 C246 1.365 . S
C249 C248 1.366 . S
C249 H263 0.930 . S
C250 C247 1.378 . S
C250 N251 1.315 . S
C250 H253 0.930 . S
N251 Co231 2.194 . S
N251 C246 1.328 . S
N251 C250 1.315 . S
H252 C246 0.929 . S
H253 C250 0.930 . S
H254 C242 0.929 . S
H255 C244 0.929 . S
O256 Co231 2.351 . S
O256 C259 1.244 . S
O257 Co231 2.155 . S
O257 C259 1.240 . S
O258 Co231 2.096 . S
O258 C239 1.247 . S
C259 O256 1.244 . S
C259 O257 1.240 . S
H260 C234 0.931 . S
H261 C243 0.931 . S
H262 C247 0.929 . S
H263 C249 0.930 . S
Co264 N268 2.148 . S
Co264 N274 2.128 . S
Co264 N284 2.194 . S
Co264 O289 2.351 . S
Co264 O290 2.155 . S
Co264 O291 2.096 . S
C265 N268 1.301 . S
C265 N269 1.328 . S
C265 H270 0.930 . S
C266 C267 1.333 . S
C266 N268 1.317 . S
C266 H271 0.930 . S
C267 C266 1.333 . S
C267 N269 1.350 . S
C267 H293 0.931 . S
N268 Co264 2.148 . S
N268 C265 1.301 . S
N268 C266 1.317 . S
N269 C265 1.328 . S
N269 C267 1.350 . S
H270 C265 0.930 . S
H271 C266 0.930 . S
C272 O273 1.224 . S
C272 O291 1.247 . S
O273 C272 1.224 . S
N274 Co264 2.128 . S
N274 C275 1.355 . S
N274 C277 1.311 . S
C275 N274 1.355 . S
C275 C276 1.363 . S
C275 H287 0.929 . S
C276 C275 1.363 . S
C276 N278 1.375 . S
C276 H294 0.931 . S
C277 N274 1.311 . S
C277 N278 1.347 . S
C277 H288 0.929 . S
N278 C276 1.375 . S
N278 C277 1.347 . S
C279 C282 1.365 . S
C279 N284 1.328 . S
C279 H285 0.929 . S
C280 C281 1.362 . S
C280 C283 1.378 . S
C280 H295 0.929 . S
C281 C280 1.362 . S
C281 C282 1.366 . S
C282 C279 1.365 . S
C282 C281 1.366 . S
C282 H296 0.930 . S
C283 C280 1.378 . S
C283 N284 1.315 . S
C283 H286 0.930 . S
N284 Co264 2.194 . S
N284 C279 1.328 . S
N284 C283 1.315 . S
H285 C279 0.929 . S
H286 C283 0.930 . S
H287 C275 0.929 . S
H288 C277 0.929 . S
O289 Co264 2.351 . S
O289 C292 1.244 . S
O290 Co264 2.155 . S
O290 C292 1.240 . S
O291 Co264 2.096 . S
O291 C272 1.247 . S
C292 O289 1.244 . S
C292 O290 1.240 . S
H293 C267 0.931 . S
H294 C276 0.931 . S
H295 C280 0.929 . S
H296 C282 0.930 . S
Co297 N301 2.148 . S
Co297 N307 2.128 . S
Co297 N317 2.194 . S
Co297 O322 2.351 . S
Co297 O323 2.155 . S
Co297 O324 2.096 . S
C298 N301 1.301 . S
C298 N302 1.328 . S
C298 H303 0.930 . S
C299 C300 1.333 . S
C299 N301 1.317 . S
C299 H304 0.930 . S
C300 C299 1.333 . S
C300 N302 1.350 . S
C300 H326 0.931 . S
N301 Co297 2.148 . S
N301 C298 1.301 . S
N301 C299 1.317 . S
N302 C298 1.328 . S
N302 C300 1.350 . S
H303 C298 0.930 . S
H304 C299 0.930 . S
C305 O306 1.224 . S
C305 O324 1.247 . S
O306 C305 1.224 . S
N307 Co297 2.128 . S
N307 C308 1.355 . S
N307 C310 1.311 . S
C308 N307 1.355 . S
C308 C309 1.363 . S
C308 H320 0.929 . S
C309 C308 1.363 . S
C309 N311 1.375 . S
C309 H327 0.931 . S
C310 N307 1.311 . S
C310 N311 1.347 . S
C310 H321 0.929 . S
N311 C309 1.375 . S
N311 C310 1.347 . S
C312 C315 1.365 . S
C312 N317 1.328 . S
C312 H318 0.929 . S
C313 C314 1.362 . S
C313 C316 1.378 . S
C313 H328 0.929 . S
C314 C313 1.362 . S
C314 C315 1.366 . S
C315 C312 1.365 . S
C315 C314 1.366 . S
C315 H329 0.930 . S
C316 C313 1.378 . S
C316 N317 1.315 . S
C316 H319 0.930 . S
N317 Co297 2.194 . S
N317 C312 1.328 . S
N317 C316 1.315 . S
H318 C312 0.929 . S
H319 C316 0.930 . S
H320 C308 0.929 . S
H321 C310 0.929 . S
O322 Co297 2.351 . S
O322 C325 1.244 . S
O323 Co297 2.155 . S
O323 C325 1.240 . S
O324 Co297 2.096 . S
O324 C305 1.247 . S
C325 O322 1.244 . S
C325 O323 1.240 . S
H326 C300 0.931 . S
H327 C309 0.931 . S
H328 C313 0.929 . S
H329 C315 0.930 . S
Co330 N334 2.148 . S
Co330 N340 2.128 . S
Co330 N350 2.194 . S
Co330 O355 2.351 . S
Co330 O356 2.155 . S
Co330 O357 2.096 . S
C331 N334 1.301 . S
C331 N335 1.328 . S
C331 H336 0.930 . S
C332 C333 1.333 . S
C332 N334 1.317 . S
C332 H337 0.930 . S
C333 C332 1.333 . S
C333 N335 1.350 . S
C333 H359 0.931 . S
N334 Co330 2.148 . S
N334 C331 1.301 . S
N334 C332 1.317 . S
N335 C331 1.328 . S
N335 C333 1.350 . S
H336 C331 0.930 . S
H337 C332 0.930 . S
C338 O339 1.224 . S
C338 O357 1.247 . S
O339 C338 1.224 . S
N340 Co330 2.128 . S
N340 C341 1.355 . S
N340 C343 1.311 . S
C341 N340 1.355 . S
C341 C342 1.363 . S
C341 H353 0.929 . S
C342 C341 1.363 . S
C342 N344 1.375 . S
C342 H360 0.931 . S
C343 N340 1.311 . S
C343 N344 1.347 . S
C343 H354 0.929 . S
N344 C342 1.375 . S
N344 C343 1.347 . S
C345 C348 1.365 . S
C345 N350 1.328 . S
C345 H351 0.929 . S
C346 C347 1.362 . S
C346 C349 1.378 . S
C346 H361 0.929 . S
C347 C346 1.362 . S
C347 C348 1.366 . S
C348 C345 1.365 . S
C348 C347 1.366 . S
C348 H362 0.930 . S
C349 C346 1.378 . S
C349 N350 1.315 . S
C349 H352 0.930 . S
N350 Co330 2.194 . S
N350 C345 1.328 . S
N350 C349 1.315 . S
H351 C345 0.929 . S
H352 C349 0.930 . S
H353 C341 0.929 . S
H354 C343 0.929 . S
O355 Co330 2.351 . S
O355 C358 1.244 . S
O356 Co330 2.155 . S
O356 C358 1.240 . S
O357 Co330 2.096 . S
O357 C338 1.247 . S
C358 O355 1.244 . S
C358 O356 1.240 . S
H359 C333 0.931 . S
H360 C342 0.931 . S
H361 C346 0.929 . S
H362 C348 0.930 . S
Co363 N367 2.148 . S
Co363 N373 2.128 . S
Co363 N383 2.194 . S
Co363 O388 2.351 . S
Co363 O389 2.155 . S
Co363 O390 2.096 . S
C364 N367 1.301 . S
C364 N368 1.328 . S
C364 H369 0.930 . S
C365 C366 1.333 . S
C365 N367 1.317 . S
C365 H370 0.930 . S
C366 C365 1.333 . S
C366 N368 1.350 . S
C366 H392 0.931 . S
N367 Co363 2.148 . S
N367 C364 1.301 . S
N367 C365 1.317 . S
N368 C364 1.328 . S
N368 C366 1.350 . S
H369 C364 0.930 . S
H370 C365 0.930 . S
C371 O372 1.224 . S
C371 O390 1.247 . S
O372 C371 1.224 . S
N373 Co363 2.128 . S
N373 C374 1.355 . S
N373 C376 1.311 . S
C374 N373 1.355 . S
C374 C375 1.363 . S
C374 H386 0.929 . S
C375 C374 1.363 . S
C375 N377 1.375 . S
C375 H393 0.931 . S
C376 N373 1.311 . S
C376 N377 1.347 . S
C376 H387 0.929 . S
N377 C375 1.375 . S
N377 C376 1.347 . S
C378 C381 1.365 . S
C378 N383 1.328 . S
C378 H384 0.929 . S
C379 C380 1.362 . S
C379 C382 1.378 . S
C379 H394 0.929 . S
C380 C379 1.362 . S
C380 C381 1.366 . S
C381 C378 1.365 . S
C381 C380 1.366 . S
C381 H395 0.930 . S
C382 C379 1.378 . S
C382 N383 1.315 . S
C382 H385 0.930 . S
N383 Co363 2.194 . S
N383 C378 1.328 . S
N383 C382 1.315 . S
H384 C378 0.929 . S
H385 C382 0.930 . S
H386 C374 0.929 . S
H387 C376 0.929 . S
O388 Co363 2.351 . S
O388 C391 1.244 . S
O389 Co363 2.155 . S
O389 C391 1.240 . S
O390 Co363 2.096 . S
O390 C371 1.247 . S
C391 O388 1.244 . S
C391 O389 1.240 . S
H392 C366 0.931 . S
H393 C375 0.931 . S
H394 C379 0.929 . S
H395 C381 0.930 . S
Co396 N400 2.148 . S
Co396 N406 2.128 . S
Co396 N416 2.194 . S
Co396 O421 2.351 . S
Co396 O422 2.155 . S
Co396 O423 2.096 . S
C397 N400 1.301 . S
C397 N401 1.328 . S
C397 H402 0.930 . S
C398 C399 1.333 . S
C398 N400 1.317 . S
C398 H403 0.930 . S
C399 C398 1.333 . S
C399 N401 1.350 . S
C399 H425 0.931 . S
N400 Co396 2.148 . S
N400 C397 1.301 . S
N400 C398 1.317 . S
N401 C397 1.328 . S
N401 C399 1.350 . S
H402 C397 0.930 . S
H403 C398 0.930 . S
C404 O405 1.224 . S
C404 O423 1.247 . S
O405 C404 1.224 . S
N406 Co396 2.128 . S
N406 C407 1.355 . S
N406 C409 1.311 . S
C407 N406 1.355 . S
C407 C408 1.363 . S
C407 H419 0.929 . S
C408 C407 1.363 . S
C408 N410 1.375 . S
C408 H426 0.931 . S
C409 N406 1.311 . S
C409 N410 1.347 . S
C409 H420 0.929 . S
N410 C408 1.375 . S
N410 C409 1.347 . S
C411 C414 1.365 . S
C411 N416 1.328 . S
C411 H417 0.929 . S
C412 C413 1.362 . S
C412 C415 1.378 . S
C412 H427 0.929 . S
C413 C412 1.362 . S
C413 C414 1.366 . S
C414 C411 1.365 . S
C414 C413 1.366 . S
C414 H428 0.930 . S
C415 C412 1.378 . S
C415 N416 1.315 . S
C415 H418 0.930 . S
N416 Co396 2.194 . S
N416 C411 1.328 . S
N416 C415 1.315 . S
H417 C411 0.929 . S
H418 C415 0.930 . S
H419 C407 0.929 . S
H420 C409 0.929 . S
O421 Co396 2.351 . S
O421 C424 1.244 . S
O422 Co396 2.155 . S
O422 C424 1.240 . S
O423 Co396 2.096 . S
O423 C404 1.247 . S
C424 O421 1.244 . S
C424 O422 1.240 . S
H425 C399 0.931 . S
H426 C408 0.931 . S
H427 C412 0.929 . S
H428 C414 0.930 . S
Co429 N433 2.148 . S
Co429 N439 2.128 . S
Co429 N449 2.194 . S
Co429 O454 2.351 . S
Co429 O455 2.155 . S
Co429 O456 2.096 . S
C430 N433 1.301 . S
C430 N434 1.328 . S
C430 H435 0.930 . S
C431 C432 1.333 . S
C431 N433 1.317 . S
C431 H436 0.930 . S
C432 C431 1.333 . S
C432 N434 1.350 . S
C432 H458 0.931 . S
N433 Co429 2.148 . S
N433 C430 1.301 . S
N433 C431 1.317 . S
N434 C430 1.328 . S
N434 C432 1.350 . S
H435 C430 0.930 . S
H436 C431 0.930 . S
C437 O438 1.224 . S
C437 O456 1.247 . S
O438 C437 1.224 . S
N439 Co429 2.128 . S
N439 C440 1.355 . S
N439 C442 1.311 . S
C440 N439 1.355 . S
C440 C441 1.363 . S
C440 H452 0.929 . S
C441 C440 1.363 . S
C441 N443 1.375 . S
C441 H459 0.931 . S
C442 N439 1.311 . S
C442 N443 1.347 . S
C442 H453 0.929 . S
N443 C441 1.375 . S
N443 C442 1.347 . S
C444 C447 1.365 . S
C444 N449 1.328 . S
C444 H450 0.929 . S
C445 C446 1.362 . S
C445 C448 1.378 . S
C445 H460 0.929 . S
C446 C445 1.362 . S
C446 C447 1.366 . S
C447 C444 1.365 . S
C447 C446 1.366 . S
C447 H461 0.930 . S
C448 C445 1.378 . S
C448 N449 1.315 . S
C448 H451 0.930 . S
N449 Co429 2.194 . S
N449 C444 1.328 . S
N449 C448 1.315 . S
H450 C444 0.929 . S
H451 C448 0.930 . S
H452 C440 0.929 . S
H453 C442 0.929 . S
O454 Co429 2.351 . S
O454 C457 1.244 . S
O455 Co429 2.155 . S
O455 C457 1.240 . S
O456 Co429 2.096 . S
O456 C437 1.247 . S
C457 O454 1.244 . S
C457 O455 1.240 . S
H458 C432 0.931 . S
H459 C441 0.931 . S
H460 C445 0.929 . S
H461 C447 0.930 . S
Co462 N466 2.148 . S
Co462 N472 2.128 . S
Co462 N482 2.194 . S
Co462 O487 2.351 . S
Co462 O488 2.155 . S
Co462 O489 2.096 . S
C463 N466 1.301 . S
C463 N467 1.328 . S
C463 H468 0.930 . S
C464 C465 1.333 . S
C464 N466 1.317 . S
C464 H469 0.930 . S
C465 C464 1.333 . S
C465 N467 1.350 . S
C465 H491 0.931 . S
N466 Co462 2.148 . S
N466 C463 1.301 . S
N466 C464 1.317 . S
N467 C463 1.328 . S
N467 C465 1.350 . S
H468 C463 0.930 . S
H469 C464 0.930 . S
C470 O471 1.224 . S
C470 O489 1.247 . S
O471 C470 1.224 . S
N472 Co462 2.128 . S
N472 C473 1.355 . S
N472 C475 1.311 . S
C473 N472 1.355 . S
C473 C474 1.363 . S
C473 H485 0.929 . S
C474 C473 1.363 . S
C474 N476 1.375 . S
C474 H492 0.931 . S
C475 N472 1.311 . S
C475 N476 1.347 . S
C475 H486 0.929 . S
N476 C474 1.375 . S
N476 C475 1.347 . S
C477 C480 1.365 . S
C477 N482 1.328 . S
C477 H483 0.929 . S
C478 C479 1.362 . S
C478 C481 1.378 . S
C478 H493 0.929 . S
C479 C478 1.362 . S
C479 C480 1.366 . S
C480 C477 1.365 . S
C480 C479 1.366 . S
C480 H494 0.930 . S
C481 C478 1.378 . S
C481 N482 1.315 . S
C481 H484 0.930 . S
N482 Co462 2.194 . S
N482 C477 1.328 . S
N482 C481 1.315 . S
H483 C477 0.929 . S
H484 C481 0.930 . S
H485 C473 0.929 . S
H486 C475 0.929 . S
O487 Co462 2.351 . S
O487 C490 1.244 . S
O488 Co462 2.155 . S
O488 C490 1.240 . S
O489 Co462 2.096 . S
O489 C470 1.247 . S
C490 O487 1.244 . S
C490 O488 1.240 . S
H491 C465 0.931 . S
H492 C474 0.931 . S
H493 C478 0.929 . S
H494 C480 0.930 . S
Co495 N499 2.148 . S
Co495 N505 2.128 . S
Co495 N515 2.194 . S
Co495 O520 2.351 . S
Co495 O521 2.155 . S
Co495 O522 2.096 . S
C496 N499 1.301 . S
C496 N500 1.328 . S
C496 H501 0.930 . S
C497 C498 1.333 . S
C497 N499 1.317 . S
C497 H502 0.930 . S
C498 C497 1.333 . S
C498 N500 1.350 . S
C498 H524 0.931 . S
N499 Co495 2.148 . S
N499 C496 1.301 . S
N499 C497 1.317 . S
N500 C496 1.328 . S
N500 C498 1.350 . S
H501 C496 0.930 . S
H502 C497 0.930 . S
C503 O504 1.224 . S
C503 O522 1.247 . S
O504 C503 1.224 . S
N505 Co495 2.128 . S
N505 C506 1.355 . S
N505 C508 1.311 . S
C506 N505 1.355 . S
C506 C507 1.363 . S
C506 H518 0.929 . S
C507 C506 1.363 . S
C507 N509 1.375 . S
C507 H525 0.931 . S
C508 N505 1.311 . S
C508 N509 1.347 . S
C508 H519 0.929 . S
N509 C507 1.375 . S
N509 C508 1.347 . S
C510 C513 1.365 . S
C510 N515 1.328 . S
C510 H516 0.929 . S
C511 C512 1.362 . S
C511 C514 1.378 . S
C511 H526 0.929 . S
C512 C511 1.362 . S
C512 C513 1.366 . S
C513 C510 1.365 . S
C513 C512 1.366 . S
C513 H527 0.930 . S
C514 C511 1.378 . S
C514 N515 1.315 . S
C514 H517 0.930 . S
N515 Co495 2.194 . S
N515 C510 1.328 . S
N515 C514 1.315 . S
H516 C510 0.929 . S
H517 C514 0.930 . S
H518 C506 0.929 . S
H519 C508 0.929 . S
O520 Co495 2.351 . S
O520 C523 1.244 . S
O521 Co495 2.155 . S
O521 C523 1.240 . S
O522 Co495 2.096 . S
O522 C503 1.247 . S
C523 O520 1.244 . S
C523 O521 1.240 . S
H524 C498 0.931 . S
H525 C507 0.931 . S
H526 C511 0.929 . S
H527 C513 0.930 . S
H528 C534 0.930 . S
H529 C537 0.930 . S
H530 C538 0.930 . S
H531 C539 0.930 . S
H532 C542 0.930 . S
H533 C543 0.930 . S
C534 H528 0.930 . S
C534 C535 1.355 . S
C534 C536 1.415 . S
C535 C534 1.355 . S
C535 C537 1.419 . S
C536 C534 1.415 . S
C536 C541 1.425 . S
C536 C543 1.409 . S
C537 H529 0.930 . S
C537 C535 1.419 . S
C537 C538 1.362 . S
C538 H530 0.930 . S
C538 C537 1.362 . S
C538 C541 1.409 . S
C539 H531 0.930 . S
C539 C540 1.355 . S
C539 C541 1.415 . S
C540 C539 1.355 . S
C540 C542 1.419 . S
C541 C536 1.425 . S
C541 C538 1.409 . S
C541 C539 1.415 . S
C542 H532 0.930 . S
C542 C540 1.419 . S
C542 C543 1.362 . S
C543 H533 0.930 . S
C543 C536 1.409 . S
C543 C542 1.362 . S
H544 C550 0.930 . S
H545 C553 0.930 . S
H546 C554 0.930 . S
H547 C555 0.930 . S
H548 C558 0.930 . S
H549 C559 0.930 . S
C550 H544 0.930 . S
C550 C551 1.355 . S
C550 C552 1.415 . S
C551 C550 1.355 . S
C551 C553 1.419 . S
C552 C550 1.415 . S
C552 C557 1.425 . S
C552 C559 1.409 . S
C553 H545 0.930 . S
C553 C551 1.419 . S
C553 C554 1.362 . S
C554 H546 0.930 . S
C554 C553 1.362 . S
C554 C557 1.409 . S
C555 H547 0.930 . S
C555 C556 1.355 . S
C555 C557 1.415 . S
C556 C555 1.355 . S
C556 C558 1.419 . S
C557 C552 1.425 . S
C557 C554 1.409 . S
C557 C555 1.415 . S
C558 H548 0.930 . S
C558 C556 1.419 . S
C558 C559 1.362 . S
C559 H549 0.930 . S
C559 C552 1.409 . S
C559 C558 1.362 . S
H560 C566 0.930 . S
H561 C569 0.930 1_565 S
H562 C570 0.930 . S
H563 C571 0.930 . S
H564 C574 0.930 . S
H565 C575 0.930 . S
C566 H560 0.930 . S
C566 C567 1.355 . S
C566 C568 1.415 . S
C567 C566 1.355 . S
C567 C569 1.419 . S
C568 C566 1.415 . S
C568 C573 1.425 . S
C568 C575 1.409 . S
C569 H561 0.930 1_545 S
C569 C567 1.419 . S
C569 C570 1.362 . S
C570 H562 0.930 . S
C570 C569 1.362 . S
C570 C573 1.409 . S
C571 H563 0.930 . S
C571 C572 1.355 . S
C571 C573 1.415 . S
C572 C571 1.355 . S
C572 C574 1.419 . S
C573 C568 1.425 . S
C573 C570 1.409 . S
C573 C571 1.415 . S
C574 H564 0.930 . S
C574 C572 1.419 . S
C574 C575 1.362 . S
C575 H565 0.930 . S
C575 C568 1.409 . S
C575 C574 1.362 . S
H576 C582 0.930 . S
H577 C585 0.930 . S
H578 C586 0.930 . S
H579 C587 0.930 . S
H580 C590 0.930 1_455 S
H581 C591 0.930 . S
C582 H576 0.930 . S
C582 C583 1.355 . S
C582 C584 1.415 . S
C583 C582 1.355 . S
C583 C585 1.419 . S
C584 C582 1.415 . S
C584 C589 1.425 . S
C584 C591 1.409 . S
C585 H577 0.930 . S
C585 C583 1.419 . S
C585 C586 1.362 . S
C586 H578 0.930 . S
C586 C585 1.362 . S
C586 C589 1.409 . S
C587 H579 0.930 . S
C587 C588 1.355 . S
C587 C589 1.415 . S
C588 C587 1.355 . S
C588 C590 1.419 . S
C589 C584 1.425 . S
C589 C586 1.409 . S
C589 C587 1.415 . S
C590 H580 0.930 1_655 S
C590 C588 1.419 . S
C590 C591 1.362 . S
C591 H581 0.930 . S
C591 C584 1.409 . S
C591 C590 1.362 . S
H592 C598 0.930 . S
H593 C601 0.930 . S
H594 C602 0.930 . S
H595 C603 0.930 . S
H596 C606 0.930 1_565 S
H597 C607 0.930 . S
C598 H592 0.930 . S
C598 C599 1.355 . S
C598 C600 1.415 . S
C599 C598 1.355 . S
C599 C601 1.419 . S
C600 C598 1.415 . S
C600 C605 1.425 . S
C600 C607 1.409 . S
C601 H593 0.930 . S
C601 C599 1.419 . S
C601 C602 1.362 . S
C602 H594 0.930 . S
C602 C601 1.362 . S
C602 C605 1.409 . S
C603 H595 0.930 . S
C603 C604 1.355 . S
C603 C605 1.415 . S
C604 C603 1.355 . S
C604 C606 1.419 . S
C605 C600 1.425 . S
C605 C602 1.409 . S
C605 C603 1.415 . S
C606 H596 0.930 1_545 S
C606 C604 1.419 . S
C606 C607 1.362 . S
C607 H597 0.930 . S
C607 C600 1.409 . S
C607 C606 1.362 . S
H608 C614 0.930 . S
H609 C617 0.930 . S
H610 C618 0.930 . S
H611 C619 0.930 . S
H612 C622 0.930 . S
H613 C623 0.930 . S
C614 H608 0.930 . S
C614 C615 1.355 . S
C614 C616 1.415 . S
C615 C614 1.355 . S
C615 C617 1.419 . S
C616 C614 1.415 . S
C616 C621 1.425 . S
C616 C623 1.409 . S
C617 H609 0.930 . S
C617 C615 1.419 . S
C617 C618 1.362 . S
C618 H610 0.930 . S
C618 C617 1.362 . S
C618 C621 1.409 . S
C619 H611 0.930 . S
C619 C620 1.355 . S
C619 C621 1.415 . S
C620 C619 1.355 . S
C620 C622 1.419 . S
C621 C616 1.425 . S
C621 C618 1.409 . S
C621 C619 1.415 . S
C622 H612 0.930 . S
C622 C620 1.419 . S
C622 C623 1.362 . S
C623 H613 0.930 . S
C623 C616 1.409 . S
C623 C622 1.362 . S
H624 C630 0.930 . S
H625 C633 0.930 . S
H626 C634 0.930 . S
H627 C635 0.930 . S
H628 C638 0.930 1_545 S
H629 C639 0.930 . S
C630 H624 0.930 . S
C630 C631 1.355 . S
C630 C632 1.415 . S
C631 C630 1.355 . S
C631 C633 1.419 . S
C632 C630 1.415 . S
C632 C637 1.425 . S
C632 C639 1.409 . S
C633 H625 0.930 . S
C633 C631 1.419 . S
C633 C634 1.362 . S
C634 H626 0.930 . S
C634 C633 1.362 . S
C634 C637 1.409 . S
C635 H627 0.930 . S
C635 C636 1.355 . S
C635 C637 1.415 . S
C636 C635 1.355 . S
C636 C638 1.419 . S
C637 C632 1.425 . S
C637 C634 1.409 . S
C637 C635 1.415 . S
C638 H628 0.930 1_565 S
C638 C636 1.419 . S
C638 C639 1.362 . S
C639 H629 0.930 . S
C639 C632 1.409 . S
C639 C638 1.362 . S
H640 C646 0.930 . S
H641 C649 0.930 . S
H642 C650 0.930 . S
H643 C651 0.930 . S
H644 C654 0.930 . S
H645 C655 0.930 . S
C646 H640 0.930 . S
C646 C647 1.355 . S
C646 C648 1.415 . S
C647 C646 1.355 . S
C647 C649 1.419 . S
C648 C646 1.415 . S
C648 C653 1.425 . S
C648 C655 1.409 . S
C649 H641 0.930 . S
C649 C647 1.419 . S
C649 C650 1.362 . S
C650 H642 0.930 . S
C650 C649 1.362 . S
C650 C653 1.409 . S
C651 H643 0.930 . S
C651 C652 1.355 . S
C651 C653 1.415 . S
C652 C651 1.355 . S
C652 C654 1.419 . S
C653 C648 1.425 . S
C653 C650 1.409 . S
C653 C651 1.415 . S
C654 H644 0.930 . S
C654 C652 1.419 . S
C654 C655 1.362 . S
C655 H645 0.930 . S
C655 C648 1.409 . S
C655 C654 1.362 . S
H656 C662 0.930 . S
H657 C665 0.930 . S
H658 C666 0.930 . S
H659 C667 0.930 . S
H660 C670 0.930 . S
H661 C671 0.930 . S
C662 H656 0.930 . S
C662 C663 1.355 . S
C662 C664 1.415 . S
C663 C662 1.355 . S
C663 C665 1.419 . S
C664 C662 1.415 . S
C664 C669 1.425 . S
C664 C671 1.409 . S
C665 H657 0.930 . S
C665 C663 1.419 . S
C665 C666 1.362 . S
C666 H658 0.930 . S
C666 C665 1.362 . S
C666 C669 1.409 . S
C667 H659 0.930 . S
C667 C668 1.355 . S
C667 C669 1.415 . S
C668 C667 1.355 . S
C668 C670 1.419 . S
C669 C664 1.425 . S
C669 C666 1.409 . S
C669 C667 1.415 . S
C670 H660 0.930 . S
C670 C668 1.419 . S
C670 C671 1.362 . S
C671 H661 0.930 . S
C671 C664 1.409 . S
C671 C670 1.362 . S
H672 C678 0.930 . S
H673 C681 0.930 . S
H674 C682 0.930 . S
H675 C683 0.930 . S
H676 C686 0.930 . S
H677 C687 0.930 . S
C678 H672 0.930 . S
C678 C679 1.355 . S
C678 C680 1.415 . S
C679 C678 1.355 . S
C679 C681 1.419 . S
C680 C678 1.415 . S
C680 C685 1.425 . S
C680 C687 1.409 . S
C681 H673 0.930 . S
C681 C679 1.419 . S
C681 C682 1.362 . S
C682 H674 0.930 . S
C682 C681 1.362 . S
C682 C685 1.409 . S
C683 H675 0.930 . S
C683 C684 1.355 . S
C683 C685 1.415 . S
C684 C683 1.355 . S
C684 C686 1.419 . S
C685 C680 1.425 . S
C685 C682 1.409 . S
C685 C683 1.415 . S
C686 H676 0.930 . S
C686 C684 1.419 . S
C686 C687 1.362 . S
C687 H677 0.930 . S
C687 C680 1.409 . S
C687 C686 1.362 . S
H688 C694 0.930 . S
H689 C697 0.930 . S
H690 C698 0.930 . S
H691 C699 0.930 . S
H692 C702 0.930 . S
H693 C703 0.930 . S
C694 H688 0.930 . S
C694 C695 1.355 . S
C694 C696 1.415 . S
C695 C694 1.355 . S
C695 C697 1.419 . S
C696 C694 1.415 . S
C696 C701 1.425 . S
C696 C703 1.409 . S
C697 H689 0.930 . S
C697 C695 1.419 . S
C697 C698 1.362 . S
C698 H690 0.930 . S
C698 C697 1.362 . S
C698 C701 1.409 . S
C699 H691 0.930 . S
C699 C700 1.355 . S
C699 C701 1.415 . S
C700 C699 1.355 . S
C700 C702 1.419 . S
C701 C696 1.425 . S
C701 C698 1.409 . S
C701 C699 1.415 . S
C702 H692 0.930 . S
C702 C700 1.419 . S
C702 C703 1.362 . S
C703 H693 0.930 . S
C703 C696 1.409 . S
C703 C702 1.362 . S
H704 C710 0.930 . S
H705 C713 0.930 . S
H706 C714 0.930 . S
H707 C715 0.930 . S
H708 C718 0.930 . S
H709 C719 0.930 . S
C710 H704 0.930 . S
C710 C711 1.355 . S
C710 C712 1.415 . S
C711 C710 1.355 . S
C711 C713 1.419 . S
C712 C710 1.415 . S
C712 C717 1.425 . S
C712 C719 1.409 . S
C713 H705 0.930 . S
C713 C711 1.419 . S
C713 C714 1.362 . S
C714 H706 0.930 . S
C714 C713 1.362 . S
C714 C717 1.409 . S
C715 H707 0.930 . S
C715 C716 1.355 . S
C715 C717 1.415 . S
C716 C715 1.355 . S
C716 C718 1.419 . S
C717 C712 1.425 . S
C717 C714 1.409 . S
C717 C715 1.415 . S
C718 H708 0.930 . S
C718 C716 1.419 . S
C718 C719 1.362 . S
C719 H709 0.930 . S
C719 C712 1.409 . S
C719 C718 1.362 . S
H720 C726 0.930 . S
H721 C729 0.930 . S
H722 C730 0.930 . S
H723 C731 0.930 . S
H724 C734 0.930 . S
H725 C735 0.930 . S
C726 H720 0.930 . S
C726 C727 1.355 . S
C726 C728 1.415 . S
C727 C726 1.355 . S
C727 C729 1.419 . S
C728 C726 1.415 . S
C728 C733 1.425 . S
C728 C735 1.409 . S
C729 H721 0.930 . S
C729 C727 1.419 . S
C729 C730 1.362 . S
C730 H722 0.930 . S
C730 C729 1.362 . S
C730 C733 1.409 . S
C731 H723 0.930 . S
C731 C732 1.355 . S
C731 C733 1.415 . S
C732 C731 1.355 . S
C732 C734 1.419 . S
C733 C728 1.425 . S
C733 C730 1.409 . S
C733 C731 1.415 . S
C734 H724 0.930 . S
C734 C732 1.419 . S
C734 C735 1.362 . S
C735 H725 0.930 . S
C735 C728 1.409 . S
C735 C734 1.362 . S
H736 C742 0.930 . S
H737 C745 0.930 . S
H738 C746 0.930 . S
H739 C747 0.930 . S
H740 C750 0.930 . S
H741 C751 0.930 . S
C742 H736 0.930 . S
C742 C743 1.355 . S
C742 C744 1.415 . S
C743 C742 1.355 . S
C743 C745 1.419 . S
C744 C742 1.415 . S
C744 C749 1.425 . S
C744 C751 1.409 . S
C745 H737 0.930 . S
C745 C743 1.419 . S
C745 C746 1.362 . S
C746 H738 0.930 . S
C746 C745 1.362 . S
C746 C749 1.409 . S
C747 H739 0.930 . S
C747 C748 1.355 . S
C747 C749 1.415 . S
C748 C747 1.355 . S
C748 C750 1.419 . S
C749 C744 1.425 . S
C749 C746 1.409 . S
C749 C747 1.415 . S
C750 H740 0.930 . S
C750 C748 1.419 . S
C750 C751 1.362 . S
C751 H741 0.930 . S
C751 C744 1.409 . S
C751 C750 1.362 . S
H752 C758 0.930 . S
H753 C761 0.930 . S
H754 C762 0.930 . S
H755 C763 0.930 . S
H756 C766 0.930 . S
H757 C767 0.930 . S
C758 H752 0.930 . S
C758 C759 1.355 . S
C758 C760 1.415 . S
C759 C758 1.355 . S
C759 C761 1.419 . S
C760 C758 1.415 . S
C760 C765 1.425 . S
C760 C767 1.409 . S
C761 H753 0.930 . S
C761 C759 1.419 . S
C761 C762 1.362 . S
C762 H754 0.930 . S
C762 C761 1.362 . S
C762 C765 1.409 . S
C763 H755 0.930 . S
C763 C764 1.355 . S
C763 C765 1.415 . S
C764 C763 1.355 . S
C764 C766 1.419 . S
C765 C760 1.425 . S
C765 C762 1.409 . S
C765 C763 1.415 . S
C766 H756 0.930 . S
C766 C764 1.419 . S
C766 C767 1.362 . S
C767 H757 0.930 . S
C767 C760 1.409 . S
C767 C766 1.362 . S
H768 C774 0.930 . S
H769 C777 0.930 . S
H770 C778 0.930 . S
H771 C779 0.930 . S
H772 C782 0.930 . S
H773 C783 0.930 . S
C774 H768 0.930 . S
C774 C775 1.355 . S
C774 C776 1.415 . S
C775 C774 1.355 . S
C775 C777 1.419 . S
C776 C774 1.415 . S
C776 C781 1.425 . S
C776 C783 1.409 . S
C777 H769 0.930 . S
C777 C775 1.419 . S
C777 C778 1.362 . S
C778 H770 0.930 . S
C778 C777 1.362 . S
C778 C781 1.409 . S
C779 H771 0.930 . S
C779 C780 1.355 . S
C779 C781 1.415 . S
C780 C779 1.355 . S
C780 C782 1.419 . S
C781 C776 1.425 . S
C781 C778 1.409 . S
C781 C779 1.415 . S
C782 H772 0.930 . S
C782 C780 1.419 . S
C782 C783 1.362 . S
C783 H773 0.930 . S
C783 C776 1.409 . S
C783 C782 1.362 . S
H784 C790 0.930 . S
H785 C793 0.930 . S
H786 C794 0.930 . S
H787 C795 0.930 . S
H788 C798 0.930 . S
H789 C799 0.930 . S
C790 H784 0.930 . S
C790 C791 1.355 . S
C790 C792 1.415 . S
C791 C790 1.355 . S
C791 C793 1.419 . S
C792 C790 1.415 . S
C792 C797 1.425 . S
C792 C799 1.409 . S
C793 H785 0.930 . S
C793 C791 1.419 . S
C793 C794 1.362 . S
C794 H786 0.930 . S
C794 C793 1.362 . S
C794 C797 1.409 . S
C795 H787 0.930 . S
C795 C796 1.355 . S
C795 C797 1.415 . S
C796 C795 1.355 . S
C796 C798 1.419 . S
C797 C792 1.425 . S
C797 C794 1.409 . S
C797 C795 1.415 . S
C798 H788 0.930 . S
C798 C796 1.419 . S
C798 C799 1.362 . S
C799 H789 0.930 . S
C799 C792 1.409 . S
C799 C798 1.362 . S
H800 C806 0.930 . S
H801 C809 0.930 . S
H802 C810 0.930 . S
H803 C811 0.930 . S
H804 C814 0.930 . S
H805 C815 0.930 . S
C806 H800 0.930 . S
C806 C807 1.355 . S
C806 C808 1.415 . S
C807 C806 1.355 . S
C807 C809 1.419 . S
C808 C806 1.415 . S
C808 C813 1.425 . S
C808 C815 1.409 . S
C809 H801 0.930 . S
C809 C807 1.419 . S
C809 C810 1.362 . S
C810 H802 0.930 . S
C810 C809 1.362 . S
C810 C813 1.409 . S
C811 H803 0.930 . S
C811 C812 1.355 . S
C811 C813 1.415 . S
C812 C811 1.355 . S
C812 C814 1.419 . S
C813 C808 1.425 . S
C813 C810 1.409 . S
C813 C811 1.415 . S
C814 H804 0.930 . S
C814 C812 1.419 . S
C814 C815 1.362 . S
C815 H805 0.930 . S
C815 C808 1.409 . S
C815 C814 1.362 . S
H816 C822 0.930 . S
H817 C825 0.930 . S
H818 C826 0.930 . S
H819 C827 0.930 . S
H820 C830 0.930 . S
H821 C831 0.930 . S
C822 H816 0.930 . S
C822 C823 1.355 . S
C822 C824 1.415 . S
C823 C822 1.355 . S
C823 C825 1.419 . S
C824 C822 1.415 . S
C824 C829 1.425 . S
C824 C831 1.409 . S
C825 H817 0.930 . S
C825 C823 1.419 . S
C825 C826 1.362 . S
C826 H818 0.930 . S
C826 C825 1.362 . S
C826 C829 1.409 . S
C827 H819 0.930 . S
C827 C828 1.355 . S
C827 C829 1.415 . S
C828 C827 1.355 . S
C828 C830 1.419 . S
C829 C824 1.425 . S
C829 C826 1.409 . S
C829 C827 1.415 . S
C830 H820 0.930 . S
C830 C828 1.419 . S
C830 C831 1.362 . S
C831 H821 0.930 . S
C831 C824 1.409 . S
C831 C830 1.362 . S
H832 C838 0.930 . S
H833 C841 0.930 . S
H834 C842 0.930 . S
H835 C843 0.930 . S
H836 C846 0.930 . S
H837 C847 0.930 . S
C838 H832 0.930 . S
C838 C839 1.355 . S
C838 C840 1.415 . S
C839 C838 1.355 . S
C839 C841 1.419 . S
C840 C838 1.415 . S
C840 C845 1.425 . S
C840 C847 1.409 . S
C841 H833 0.930 . S
C841 C839 1.419 . S
C841 C842 1.362 . S
C842 H834 0.930 . S
C842 C841 1.362 . S
C842 C845 1.409 . S
C843 H835 0.930 . S
C843 C844 1.355 . S
C843 C845 1.415 . S
C844 C843 1.355 . S
C844 C846 1.419 . S
C845 C840 1.425 . S
C845 C842 1.409 . S
C845 C843 1.415 . S
C846 H836 0.930 . S
C846 C844 1.419 . S
C846 C847 1.362 . S
C847 H837 0.930 . S
C847 C840 1.409 . S
C847 C846 1.362 . S
H848 C854 0.930 . S
H849 C857 0.930 . S
H850 C858 0.930 . S
H851 C859 0.930 . S
H852 C862 0.930 . S
H853 C863 0.930 . S
C854 H848 0.930 . S
C854 C855 1.355 . S
C854 C856 1.415 . S
C855 C854 1.355 . S
C855 C857 1.419 . S
C856 C854 1.415 . S
C856 C861 1.425 1_556 S
C856 C863 1.409 . S
C857 H849 0.930 . S
C857 C855 1.419 . S
C857 C858 1.362 1_556 S
C858 H850 0.930 . S
C858 C857 1.362 1_554 S
C858 C861 1.409 . S
C859 H851 0.930 . S
C859 C860 1.355 . S
C859 C861 1.415 . S
C860 C859 1.355 . S
C860 C862 1.419 . S
C861 C856 1.425 1_554 S
C861 C858 1.409 . S
C861 C859 1.415 . S
C862 H852 0.930 . S
C862 C860 1.419 . S
C862 C863 1.362 1_554 S
C863 H853 0.930 . S
C863 C856 1.409 . S
C863 C862 1.362 1_556 S
H864 C870 0.930 . S
H865 C873 0.930 . S
H866 C874 0.930 . S
H867 C875 0.930 . S
H868 C878 0.930 . S
H869 C879 0.930 . S
C870 H864 0.930 . S
C870 C871 1.355 . S
C870 C872 1.415 . S
C871 C870 1.355 . S
C871 C873 1.419 . S
C872 C870 1.415 . S
C872 C877 1.425 1_556 S
C872 C879 1.409 1_556 S
C873 H865 0.930 . S
C873 C871 1.419 . S
C873 C874 1.362 . S
C874 H866 0.930 . S
C874 C873 1.362 . S
C874 C877 1.409 1_556 S
C875 H867 0.930 . S
C875 C876 1.355 . S
C875 C877 1.415 . S
C876 C875 1.355 . S
C876 C878 1.419 . S
C877 C872 1.425 1_554 S
C877 C874 1.409 1_554 S
C877 C875 1.415 . S
C878 H868 0.930 . S
C878 C876 1.419 . S
C878 C879 1.362 . S
C879 H869 0.930 . S
C879 C872 1.409 1_554 S
C879 C878 1.362 . S
H880 C886 0.930 . S
H881 C889 0.930 . S
H882 C890 0.930 1_554 S
H883 C891 0.930 . S
H884 C894 0.930 . S
H885 C895 0.930 1_556 S
C886 H880 0.930 . S
C886 C887 1.355 . S
C886 C888 1.415 . S
C887 C886 1.355 . S
C887 C889 1.419 . S
C888 C886 1.415 . S
C888 C893 1.425 1_556 S
C888 C895 1.409 1_556 S
C889 H881 0.930 . S
C889 C887 1.419 . S
C889 C890 1.362 . S
C890 H882 0.930 1_556 S
C890 C889 1.362 . S
C890 C893 1.409 1_556 S
C891 H883 0.930 . S
C891 C892 1.355 . S
C891 C893 1.415 . S
C892 C891 1.355 . S
C892 C894 1.419 . S
C893 C888 1.425 1_554 S
C893 C890 1.409 1_554 S
C893 C891 1.415 . S
C894 H884 0.930 . S
C894 C892 1.419 . S
C894 C895 1.362 . S
C895 H885 0.930 1_554 S
C895 C888 1.409 1_554 S
C895 C894 1.362 . S
H896 C902 0.930 . S
H897 C905 0.930 . S
H898 C906 0.930 . S
H899 C907 0.930 . S
H900 C910 0.930 . S
H901 C911 0.930 . S
C902 H896 0.930 . S
C902 C903 1.355 . S
C902 C904 1.415 . S
C903 C902 1.355 . S
C903 C905 1.419 . S
C904 C902 1.415 . S
C904 C909 1.425 1_556 S
C904 C911 1.409 . S
C905 H897 0.930 . S
C905 C903 1.419 . S
C905 C906 1.362 1_556 S
C906 H898 0.930 . S
C906 C905 1.362 1_554 S
C906 C909 1.409 . S
C907 H899 0.930 . S
C907 C908 1.355 . S
C907 C909 1.415 . S
C908 C907 1.355 . S
C908 C910 1.419 . S
C909 C904 1.425 1_554 S
C909 C906 1.409 . S
C909 C907 1.415 . S
C910 H900 0.930 . S
C910 C908 1.419 . S
C910 C911 1.362 1_554 S
C911 H901 0.930 . S
C911 C904 1.409 . S
C911 C910 1.362 1_556 S
H912 C918 0.930 . S
H913 C921 0.930 . S
H914 C922 0.930 . S
H915 C923 0.930 . S
H916 C926 0.930 . S
H917 C927 0.930 . S
C918 H912 0.930 . S
C918 C919 1.355 . S
C918 C920 1.415 . S
C919 C918 1.355 . S
C919 C921 1.419 . S
C920 C918 1.415 . S
C920 C925 1.425 . S
C920 C927 1.409 . S
C921 H913 0.930 . S
C921 C919 1.419 . S
C921 C922 1.362 . S
C922 H914 0.930 . S
C922 C921 1.362 . S
C922 C925 1.409 . S
C923 H915 0.930 . S
C923 C924 1.355 . S
C923 C925 1.415 . S
C924 C923 1.355 . S
C924 C926 1.419 . S
C925 C920 1.425 . S
C925 C922 1.409 . S
C925 C923 1.415 . S
C926 H916 0.930 . S
C926 C924 1.419 . S
C926 C927 1.362 . S
C927 H917 0.930 . S
C927 C920 1.409 . S
C927 C926 1.362 . S
H928 C934 0.930 . S
H929 C937 0.930 . S
H930 C938 0.930 . S
H931 C939 0.930 . S
H932 C942 0.930 . S
H933 C943 0.930 . S
C934 H928 0.930 . S
C934 C935 1.355 . S
C934 C936 1.415 . S
C935 C934 1.355 . S
C935 C937 1.419 . S
C936 C934 1.415 . S
C936 C941 1.425 . S
C936 C943 1.409 . S
C937 H929 0.930 . S
C937 C935 1.419 . S
C937 C938 1.362 . S
C938 H930 0.930 . S
C938 C937 1.362 . S
C938 C941 1.409 . S
C939 H931 0.930 . S
C939 C940 1.355 . S
C939 C941 1.415 . S
C940 C939 1.355 . S
C940 C942 1.419 . S
C941 C936 1.425 . S
C941 C938 1.409 . S
C941 C939 1.415 . S
C942 H932 0.930 . S
C942 C940 1.419 . S
C942 C943 1.362 . S
C943 H933 0.930 . S
C943 C936 1.409 . S
C943 C942 1.362 . S
H944 C950 0.930 . S
H945 C953 0.930 . S
H946 C954 0.930 . S
H947 C955 0.930 . S
H948 C958 0.930 . S
H949 C959 0.930 . S
C950 H944 0.930 . S
C950 C951 1.355 . S
C950 C952 1.415 . S
C951 C950 1.355 . S
C951 C953 1.419 . S
C952 C950 1.415 . S
C952 C957 1.425 . S
C952 C959 1.409 . S
C953 H945 0.930 . S
C953 C951 1.419 . S
C953 C954 1.362 . S
C954 H946 0.930 . S
C954 C953 1.362 . S
C954 C957 1.409 . S
C955 H947 0.930 . S
C955 C956 1.355 . S
C955 C957 1.415 . S
C956 C955 1.355 . S
C956 C958 1.419 . S
C957 C952 1.425 . S
C957 C954 1.409 . S
C957 C955 1.415 . S
C958 H948 0.930 . S
C958 C956 1.419 . S
C958 C959 1.362 . S
C959 H949 0.930 . S
C959 C952 1.409 . S
C959 C958 1.362 . S
H960 C966 0.930 . S
H961 C969 0.930 . S
H962 C970 0.930 . S
H963 C971 0.930 . S
H964 C974 0.930 . S
H965 C975 0.930 . S
C966 H960 0.930 . S
C966 C967 1.355 . S
C966 C968 1.415 . S
C967 C966 1.355 . S
C967 C969 1.419 . S
C968 C966 1.415 . S
C968 C973 1.425 . S
C968 C975 1.409 . S
C969 H961 0.930 . S
C969 C967 1.419 . S
C969 C970 1.362 . S
C970 H962 0.930 . S
C970 C969 1.362 . S
C970 C973 1.409 . S
C971 H963 0.930 . S
C971 C972 1.355 . S
C971 C973 1.415 . S
C972 C971 1.355 . S
C972 C974 1.419 . S
C973 C968 1.425 . S
C973 C970 1.409 . S
C973 C971 1.415 . S
C974 H964 0.930 . S
C974 C972 1.419 . S
C974 C975 1.362 . S
C975 H965 0.930 . S
C975 C968 1.409 . S
C975 C974 1.362 . S
H976 C982 0.930 . S
H977 C985 0.930 . S
H978 C986 0.930 . S
H979 C987 0.930 . S
H980 C990 0.930 . S
H981 C991 0.930 . S
C982 H976 0.930 . S
C982 C983 1.355 . S
C982 C984 1.415 . S
C983 C982 1.355 . S
C983 C985 1.419 . S
C984 C982 1.415 . S
C984 C989 1.425 . S
C984 C991 1.409 . S
C985 H977 0.930 . S
C985 C983 1.419 . S
C985 C986 1.362 . S
C986 H978 0.930 . S
C986 C985 1.362 . S
C986 C989 1.409 . S
C987 H979 0.930 . S
C987 C988 1.355 . S
C987 C989 1.415 . S
C988 C987 1.355 . S
C988 C990 1.419 . S
C989 C984 1.425 . S
C989 C986 1.409 . S
C989 C987 1.415 . S
C990 H980 0.930 . S
C990 C988 1.419 . S
C990 C991 1.362 . S
C991 H981 0.930 . S
C991 C984 1.409 . S
C991 C990 1.362 . S
H992 C998 0.930 . S
H993 C1001 0.930 . S
H994 C1002 0.930 . S
H995 C1003 0.930 . S
H996 C1006 0.930 . S
H997 C1007 0.930 . S
C998 H992 0.930 . S
C998 C999 1.355 . S
C998 C1000 1.415 . S
C999 C998 1.355 . S
C999 C1001 1.419 . S
C1000 C998 1.415 . S
C1000 C1005 1.425 . S
C1000 C1007 1.409 . S
C1001 H993 0.930 . S
C1001 C999 1.419 . S
C1001 C1002 1.362 . S
C1002 H994 0.930 . S
C1002 C1001 1.362 . S
C1002 C1005 1.409 . S
C1003 H995 0.930 . S
C1003 C1004 1.355 . S
C1003 C1005 1.415 . S
C1004 C1003 1.355 . S
C1004 C1006 1.419 . S
C1005 C1000 1.425 . S
C1005 C1002 1.409 . S
C1005 C1003 1.415 . S
C1006 H996 0.930 . S
C1006 C1004 1.419 . S
C1006 C1007 1.362 . S
C1007 H997 0.930 . S
C1007 C1000 1.409 . S
C1007 C1006 1.362 . S
H1008 C1014 0.930 . S
H1009 C1017 0.930 . S
H1010 C1018 0.930 . S
H1011 C1019 0.930 . S
H1012 C1022 0.930 . S
H1013 C1023 0.930 . S
C1014 H1008 0.930 . S
C1014 C1015 1.355 . S
C1014 C1016 1.415 . S
C1015 C1014 1.355 . S
C1015 C1017 1.419 . S
C1016 C1014 1.415 . S
C1016 C1021 1.425 . S
C1016 C1023 1.409 . S
C1017 H1009 0.930 . S
C1017 C1015 1.419 . S
C1017 C1018 1.362 . S
C1018 H1010 0.930 . S
C1018 C1017 1.362 . S
C1018 C1021 1.409 . S
C1019 H1011 0.930 . S
C1019 C1020 1.355 . S
C1019 C1021 1.415 . S
C1020 C1019 1.355 . S
C1020 C1022 1.419 . S
C1021 C1016 1.425 . S
C1021 C1018 1.409 . S
C1021 C1019 1.415 . S
C1022 H1012 0.930 . S
C1022 C1020 1.419 . S
C1022 C1023 1.362 . S
C1023 H1013 0.930 . S
C1023 C1016 1.409 . S
C1023 C1022 1.362 . S
H1024 C1030 0.930 . S
H1025 C1033 0.930 . S
H1026 C1034 0.930 . S
H1027 C1035 0.930 . S
H1028 C1038 0.930 . S
H1029 C1039 0.930 . S
C1030 H1024 0.930 . S
C1030 C1031 1.355 . S
C1030 C1032 1.415 . S
C1031 C1030 1.355 . S
C1031 C1033 1.419 . S
C1032 C1030 1.415 . S
C1032 C1037 1.425 . S
C1032 C1039 1.409 . S
C1033 H1025 0.930 . S
C1033 C1031 1.419 . S
C1033 C1034 1.362 . S
C1034 H1026 0.930 . S
C1034 C1033 1.362 . S
C1034 C1037 1.409 . S
C1035 H1027 0.930 . S
C1035 C1036 1.355 . S
C1035 C1037 1.415 . S
C1036 C1035 1.355 . S
C1036 C1038 1.419 . S
C1037 C1032 1.425 . S
C1037 C1034 1.409 . S
C1037 C1035 1.415 . S
C1038 H1028 0.930 . S
C1038 C1036 1.419 . S
C1038 C1039 1.362 . S
C1039 H1029 0.930 . S
C1039 C1032 1.409 . S
C1039 C1038 1.362 . S
H1040 C1046 0.930 . S
H1041 C1049 0.930 . S
H1042 C1050 0.930 . S
H1043 C1051 0.930 . S
H1044 C1054 0.930 . S
H1045 C1055 0.930 . S
C1046 H1040 0.930 . S
C1046 C1047 1.355 . S
C1046 C1048 1.415 . S
C1047 C1046 1.355 . S
C1047 C1049 1.419 . S
C1048 C1046 1.415 . S
C1048 C1053 1.425 1_545 S
C1048 C1055 1.409 . S
C1049 H1041 0.930 . S
C1049 C1047 1.419 . S
C1049 C1050 1.362 1_545 S
C1050 H1042 0.930 . S
C1050 C1049 1.362 1_565 S
C1050 C1053 1.409 . S
C1051 H1043 0.930 . S
C1051 C1052 1.355 . S
C1051 C1053 1.415 . S
C1052 C1051 1.355 . S
C1052 C1054 1.419 . S
C1053 C1048 1.425 1_565 S
C1053 C1050 1.409 . S
C1053 C1051 1.415 . S
C1054 H1044 0.930 . S
C1054 C1052 1.419 . S
C1054 C1055 1.362 1_565 S
C1055 H1045 0.930 . S
C1055 C1048 1.409 . S
C1055 C1054 1.362 1_545 S
H1056 C1062 0.930 . S
H1057 C1065 0.930 . S
H1058 C1066 0.930 . S
H1059 C1067 0.930 . S
H1060 C1070 0.930 . S
H1061 C1071 0.930 . S
C1062 H1056 0.930 . S
C1062 C1063 1.355 . S
C1062 C1064 1.415 . S
C1063 C1062 1.355 . S
C1063 C1065 1.419 . S
C1064 C1062 1.415 . S
C1064 C1069 1.425 1_655 S
C1064 C1071 1.409 . S
C1065 H1057 0.930 . S
C1065 C1063 1.419 . S
C1065 C1066 1.362 1_655 S
C1066 H1058 0.930 . S
C1066 C1065 1.362 1_455 S
C1066 C1069 1.409 . S
C1067 H1059 0.930 . S
C1067 C1068 1.355 . S
C1067 C1069 1.415 . S
C1068 C1067 1.355 . S
C1068 C1070 1.419 . S
C1069 C1064 1.425 1_455 S
C1069 C1066 1.409 . S
C1069 C1067 1.415 . S
C1070 H1060 0.930 . S
C1070 C1068 1.419 . S
C1070 C1071 1.362 1_455 S
C1071 H1061 0.930 . S
C1071 C1064 1.409 . S
C1071 C1070 1.362 1_655 S
H1072 C1078 0.930 . S
H1073 C1081 0.930 1_545 S
H1074 C1082 0.930 . S
H1075 C1083 0.930 . S
H1076 C1086 0.930 1_565 S
H1077 C1087 0.930 . S
C1078 H1072 0.930 . S
C1078 C1079 1.355 . S
C1078 C1080 1.415 . S
C1079 C1078 1.355 . S
C1079 C1081 1.419 . S
C1080 C1078 1.415 . S
C1080 C1085 1.425 1_565 S
C1080 C1087 1.409 . S
C1081 H1073 0.930 1_565 S
C1081 C1079 1.419 . S
C1081 C1082 1.362 1_565 S
C1082 H1074 0.930 . S
C1082 C1081 1.362 1_545 S
C1082 C1085 1.409 . S
C1083 H1075 0.930 . S
C1083 C1084 1.355 . S
C1083 C1085 1.415 . S
C1084 C1083 1.355 . S
C1084 C1086 1.419 . S
C1085 C1080 1.425 1_545 S
C1085 C1082 1.409 . S
C1085 C1083 1.415 . S
C1086 H1076 0.930 1_545 S
C1086 C1084 1.419 . S
C1086 C1087 1.362 1_545 S
C1087 H1077 0.930 . S
C1087 C1080 1.409 . S
C1087 C1086 1.362 1_565 S
H1088 C1094 0.930 . S
H1089 C1097 0.930 . S
H1090 C1098 0.930 . S
H1091 C1099 0.930 . S
H1092 C1102 0.930 . S
H1093 C1103 0.930 . S
C1094 H1088 0.930 . S
C1094 C1095 1.355 . S
C1094 C1096 1.415 . S
C1095 C1094 1.355 . S
C1095 C1097 1.419 . S
C1096 C1094 1.415 . S
C1096 C1101 1.425 1_655 S
C1096 C1103 1.409 . S
C1097 H1089 0.930 . S
C1097 C1095 1.419 . S
C1097 C1098 1.362 1_655 S
C1098 H1090 0.930 . S
C1098 C1097 1.362 1_455 S
C1098 C1101 1.409 . S
C1099 H1091 0.930 . S
C1099 C1100 1.355 . S
C1099 C1101 1.415 . S
C1100 C1099 1.355 . S
C1100 C1102 1.419 . S
C1101 C1096 1.425 1_455 S
C1101 C1098 1.409 . S
C1101 C1099 1.415 . S
C1102 H1092 0.930 . S
C1102 C1100 1.419 . S
C1102 C1103 1.362 1_455 S
C1103 H1093 0.930 . S
C1103 C1096 1.409 . S
C1103 C1102 1.362 1_655 S
H1104 C1110 0.930 . S
H1105 C1113 0.930 . S
H1106 C1114 0.930 1_554 S
H1107 C1115 0.930 . S
H1108 C1118 0.930 . S
H1109 C1119 0.930 1_556 S
C1110 H1104 0.930 . S
C1110 C1111 1.355 . S
C1110 C1112 1.415 . S
C1111 C1110 1.355 . S
C1111 C1113 1.419 . S
C1112 C1110 1.415 . S
C1112 C1117 1.425 1_556 S
C1112 C1119 1.409 1_556 S
C1113 H1105 0.930 . S
C1113 C1111 1.419 . S
C1113 C1114 1.362 . S
C1114 H1106 0.930 1_556 S
C1114 C1113 1.362 . S
C1114 C1117 1.409 1_556 S
C1115 H1107 0.930 . S
C1115 C1116 1.355 . S
C1115 C1117 1.415 . S
C1116 C1115 1.355 . S
C1116 C1118 1.419 . S
C1117 C1112 1.425 1_554 S
C1117 C1114 1.409 1_554 S
C1117 C1115 1.415 . S
C1118 H1108 0.930 . S
C1118 C1116 1.419 . S
C1118 C1119 1.362 . S
C1119 H1109 0.930 1_554 S
C1119 C1112 1.409 1_554 S
C1119 C1118 1.362 . S
H1120 C1126 0.930 . S
H1121 C1129 0.930 . S
H1122 C1130 0.928 1_554 S
H1123 C1131 0.930 . S
H1124 C1134 0.930 . S
H1125 C1135 0.928 1_556 S
C1126 H1120 0.930 . S
C1126 C1127 1.355 . S
C1126 C1128 1.415 . S
C1127 C1126 1.355 . S
C1127 C1129 1.419 . S
C1128 C1126 1.415 . S
C1128 C1133 1.425 1_556 S
C1128 C1135 1.408 1_556 S
C1129 H1121 0.930 . S
C1129 C1127 1.419 . S
C1129 C1130 1.365 . S
C1130 H1122 0.928 1_556 S
C1130 C1129 1.365 . S
C1130 C1133 1.408 1_556 S
C1131 H1123 0.930 . S
C1131 C1132 1.355 . S
C1131 C1133 1.415 . S
C1132 C1131 1.355 . S
C1132 C1134 1.419 . S
C1133 C1128 1.425 1_554 S
C1133 C1130 1.408 1_554 S
C1133 C1131 1.415 . S
C1134 H1124 0.930 . S
C1134 C1132 1.419 . S
C1134 C1135 1.365 . S
C1135 H1125 0.928 1_554 S
C1135 C1128 1.408 1_554 S
C1135 C1134 1.365 . S
H1136 C1142 0.930 . S
H1137 C1145 0.930 . S
H1138 C1146 0.930 . S
H1139 C1147 0.930 . S
H1140 C1150 0.930 . S
H1141 C1151 0.930 . S
C1142 H1136 0.930 . S
C1142 C1143 1.355 . S
C1142 C1144 1.415 1_554 S
C1143 C1142 1.355 . S
C1143 C1145 1.419 . S
C1144 C1142 1.415 1_556 S
C1144 C1149 1.425 1_556 S
C1144 C1151 1.409 . S
C1145 H1137 0.930 . S
C1145 C1143 1.419 . S
C1145 C1146 1.362 . S
C1146 H1138 0.930 . S
C1146 C1145 1.362 . S
C1146 C1149 1.409 . S
C1147 H1139 0.930 . S
C1147 C1148 1.355 . S
C1147 C1149 1.415 1_556 S
C1148 C1147 1.355 . S
C1148 C1150 1.419 . S
C1149 C1144 1.425 1_554 S
C1149 C1146 1.409 . S
C1149 C1147 1.415 1_554 S
C1150 H1140 0.930 . S
C1150 C1148 1.419 . S
C1150 C1151 1.362 . S
C1151 H1141 0.930 . S
C1151 C1144 1.409 . S
C1151 C1150 1.362 . S
H1152 C1158 0.930 . S
H1153 C1161 0.930 . S
H1154 C1162 0.930 . S
H1155 C1163 0.930 . S
H1156 C1166 0.930 . S
H1157 C1167 0.930 . S
C1158 H1152 0.930 . S
C1158 C1159 1.355 . S
C1158 C1160 1.415 . S
C1159 C1158 1.355 . S
C1159 C1161 1.419 . S
C1160 C1158 1.415 . S
C1160 C1165 1.425 1_556 S
C1160 C1167 1.409 . S
C1161 H1153 0.930 . S
C1161 C1159 1.419 . S
C1161 C1162 1.362 1_556 S
C1162 H1154 0.930 . S
C1162 C1161 1.362 1_554 S
C1162 C1165 1.409 . S
C1163 H1155 0.930 . S
C1163 C1164 1.355 . S
C1163 C1165 1.415 . S
C1164 C1163 1.355 . S
C1164 C1166 1.419 . S
C1165 C1160 1.425 1_554 S
C1165 C1162 1.409 . S
C1165 C1163 1.415 . S
C1166 H1156 0.930 . S
C1166 C1164 1.419 . S
C1166 C1167 1.362 1_554 S
C1167 H1157 0.930 . S
C1167 C1160 1.409 . S
C1167 C1166 1.362 1_556 S
C535 C8 2.005 1_565 S
C540 N104 1.811 . S
C551 N5 1.795 . S
C556 C41 2.000 1_455 S
C567 C74 2.001 1_545 S
C572 N38 1.813 . S
C583 N71 1.871 . S
C588 C107 2.020 1_655 S
C599 N170 1.818 . S
C604 C140 2.002 1_545 S
C615 N203 1.802 . S
C620 C173 2.002 1_655 S
C631 N236 1.846 . S
C636 C206 2.011 1_565 S
C647 C239 2.010 1_455 S
C652 N137 1.827 . S
C663 C272 1.996 . S
C668 N368 1.786 . S
C679 C305 2.007 . S
C684 N269 1.817 . S
C695 C338 2.009 . S
C700 N302 1.841 . S
C711 N335 1.856 . S
C716 C371 2.018 . S
C727 N434 1.783 . S
C732 C404 1.995 . S
C743 C437 2.020 . S
C748 N467 1.864 . S
C759 C470 2.004 . S
C764 N500 1.807 . S
C775 C503 2.008 . S
C780 N401 1.821 . S
C791 C28 0.742 . S
C796 C193 0.782 . S
C807 C61 0.778 . S
C812 C226 0.750 . S
C823 C259 0.710 . S
C828 C94 0.790 . S
C839 C127 0.788 . S
C844 C160 0.705 . S
C855 C292 0.778 . S
C860 C457 0.750 . S
C871 C325 0.709 . S
C876 C490 0.790 . S
C887 C358 0.718 . S
C892 C523 0.790 . S
C903 C391 0.773 . S
C908 C424 0.756 . S
C919 C17 1.094 . S
C924 C512 1.065 . S
C935 C413 1.142 . S
C940 C50 1.090 . S
C951 C83 1.177 . S
C956 C446 1.156 . S
C967 C116 1.066 . S
C972 C479 1.079 . S
C983 C314 1.138 . S
C988 C149 1.174 . S
C999 C347 1.177 . S
C1004 C182 1.148 . S
C1015 C380 1.166 . S
C1020 C215 1.174 . S
C1031 C281 1.165 . S
C1036 C248 1.175 . S
C1047 N14 1.077 . S
C1052 N146 1.000 . S
C1063 N47 1.011 . S
C1068 N179 1.080 . S
C1079 N80 1.062 . S
C1084 N212 1.066 . S
C1095 N245 1.061 . S
C1100 N113 0.971 . S
C1111 N278 1.024 . S
C1116 N410 0.947 . S
C1127 N311 0.955 . S
C1132 N443 1.043 . S
C1143 N476 1.074 . S
C1148 N344 1.051 . S
C1159 N377 0.991 . S
C1164 N509 0.947 . S
