# Generated by pormake.
# Topology sow, (4)-cn, num edge types: 1
# Building blocks:
#     Node 0, Type 0, BuildingBlock: QUQFOY_clean_sbu_1, # of connection points: 4
#     Node 1, Type 0, BuildingBlock: QUQFOY_clean_sbu_1, # of connection points: 4
#     Node 2, Type 0, BuildingBlock: QUQFOY_clean_sbu_1, # of connection points: 4
#     Node 3, Type 0, BuildingBlock: QUQFOY_clean_sbu_1, # of connection points: 4
#     Node 4, Type 0, BuildingBlock: QUQFOY_clean_sbu_1, # of connection points: 4
#     Node 5, Type 0, BuildingBlock: QUQFOY_clean_sbu_1, # of connection points: 4
#     Node 6, Type 0, BuildingBlock: QUQFOY_clean_sbu_1, # of connection points: 4
#     Node 7, Type 0, BuildingBlock: QUQFOY_clean_sbu_1, # of connection points: 4
#     Edge 8, Type (0, 0), BuildingBlock: UVAHIK_clean_linker_0, # of connection points: 2
#     Edge 9, Type (0, 0), BuildingBlock: UVAHIK_clean_linker_0, # of connection points: 2
#     Edge 10, Type (0, 0), BuildingBlock: UVAHIK_clean_linker_0, # of connection points: 2
#     Edge 11, Type (0, 0), BuildingBlock: UVAHIK_clean_linker_0, # of connection points: 2
#     Edge 12, Type (0, 0), BuildingBlock: UVAHIK_clean_linker_0, # of connection points: 2
#     Edge 13, Type (0, 0), BuildingBlock: UVAHIK_clean_linker_0, # of connection points: 2
#     Edge 14, Type (0, 0), BuildingBlock: UVAHIK_clean_linker_0, # of connection points: 2
#     Edge 15, Type (0, 0), BuildingBlock: UVAHIK_clean_linker_0, # of connection points: 2
#     Edge 16, Type (0, 0), BuildingBlock: UVAHIK_clean_linker_0, # of connection points: 2
#     Edge 17, Type (0, 0), BuildingBlock: UVAHIK_clean_linker_0, # of connection points: 2
#     Edge 18, Type (0, 0), BuildingBlock: UVAHIK_clean_linker_0, # of connection points: 2
#     Edge 19, Type (0, 0), BuildingBlock: UVAHIK_clean_linker_0, # of connection points: 2
#     Edge 20, Type (0, 0), BuildingBlock: UVAHIK_clean_linker_0, # of connection points: 2
#     Edge 21, Type (0, 0), BuildingBlock: UVAHIK_clean_linker_0, # of connection points: 2
#     Edge 22, Type (0, 0), BuildingBlock: UVAHIK_clean_linker_0, # of connection points: 2
#     Edge 23, Type (0, 0), BuildingBlock: UVAHIK_clean_linker_0, # of connection points: 2
# Relax obj value: 0.078
# Max RMSD: 0.127
# Mean RMSD: 0.127
data_MOF--net-sow--node1-QUQFOY_clean_sbu_1--edge1-UVAHIK_clean_linker_0
_symmetry_space_group_name_H-M    P1
_symmetry_Int_Tables_number       1
_symmetry_cell_setting            triclinic
loop_
_symmetry_equiv_pos_as_xyz
'x, y, z'
_cell_length_a     45.304273
_cell_length_b     46.860771
_cell_length_c     30.675305
_cell_angle_alpha  89.987691
_cell_angle_beta   89.988427
_cell_angle_gamma 90.039691
loop_
_atom_site_label
_atom_site_type_symbol
_atom_site_fract_x
_atom_site_fract_y
_atom_site_fract_z
_atom_type_partial_charge
O0 O 0.17584 0.219 0.04629 0.0
Cd1 Cd 0.14003 0.22862 0.00808 0.0
Cd2 Cd 0.12162 0.17376 0.04473 0.0
O3 O 0.16337 0.17678 0.07281 0.0
O4 O 0.15438 0.26147 0.97262 0.0
O5 O 0.14077 0.22042 0.94348 0.0
C6 C 0.15124 0.24586 0.93838 0.0
C7 C 0.10065 0.12863 0.03038 0.0
C8 C 0.1815 0.1975 0.07012 0.0
C9 C 0.08616 0.22856 0.0633 0.0
O10 O 0.0902 0.20186 0.0672 0.0
O11 O 0.10356 0.24387 0.04079 0.0
O12 O 0.10579 0.13726 0.06944 0.0
O13 O 0.10896 0.14498 0.99879 0.0
O14 O 0.32859 0.29871 0.54628 0.0
Cd15 Cd 0.36446 0.28904 0.50819 0.0
Cd16 Cd 0.38275 0.34393 0.54455 0.0
O17 O 0.34094 0.34104 0.57246 0.0
O18 O 0.35015 0.25618 0.47275 0.0
O19 O 0.36378 0.29723 0.44359 0.0
C20 C 0.3533 0.2718 0.4385 0.0
C21 C 0.40385 0.38895 0.52979 0.0
C22 C 0.32285 0.32028 0.56989 0.0
C23 C 0.41819 0.28921 0.56363 0.0
O24 O 0.41408 0.31591 0.56742 0.0
O25 O 0.40089 0.27385 0.54105 0.0
O26 O 0.39856 0.38052 0.56892 0.0
O27 O 0.39558 0.37247 0.49835 0.0
O28 O 0.67581 0.29847 0.95297 0.0
Cd29 Cd 0.64 0.28874 0.99118 0.0
Cd30 Cd 0.62149 0.34361 0.95456 0.0
O31 O 0.66324 0.34066 0.92647 0.0
O32 O 0.65441 0.25595 0.02667 0.0
O33 O 0.64073 0.29698 0.05576 0.0
C34 C 0.65126 0.27157 0.06089 0.0
C35 C 0.60053 0.38875 0.96864 0.0
C36 C 0.68142 0.32 0.92916 0.0
C37 C 0.58607 0.2887 0.93613 0.0
O38 O 0.59007 0.31542 0.93227 0.0
O39 O 0.60354 0.27341 0.95851 0.0
O40 O 0.60566 0.38001 0.92963 0.0
O41 O 0.60883 0.3725 0.00032 0.0
O42 O 0.82894 0.2196 0.45303 0.0
Cd43 Cd 0.86475 0.22932 0.49119 0.0
Cd44 Cd 0.88322 0.17444 0.45463 0.0
O45 O 0.84147 0.1774 0.42657 0.0
O46 O 0.85038 0.26213 0.52666 0.0
O47 O 0.86405 0.2211 0.55578 0.0
C48 C 0.85354 0.24651 0.56089 0.0
C49 C 0.90418 0.12929 0.46874 0.0
C50 C 0.82331 0.19807 0.42925 0.0
C51 C 0.91865 0.22933 0.43605 0.0
O52 O 0.91464 0.20261 0.43224 0.0
O53 O 0.9012 0.24463 0.45845 0.0
O54 O 0.89904 0.13803 0.42974 0.0
O55 O 0.89589 0.14557 0.50042 0.0
O56 O 0.82967 0.79793 0.95057 0.0
Cd57 Cd 0.86483 0.78813 0.98998 0.0
Cd58 Cd 0.88397 0.84327 0.9556 0.0
O59 O 0.84238 0.84079 0.92689 0.0
O60 O 0.85001 0.75556 0.02562 0.0
O61 O 0.86345 0.7968 0.05436 0.0
C62 C 0.85288 0.77142 0.05966 0.0
C63 C 0.90514 0.88833 0.97006 0.0
C64 C 0.8243 0.81995 0.92774 0.0
C65 C 0.91935 0.7884 0.9365 0.0
O66 O 0.91539 0.81515 0.93309 0.0
O67 O 0.90168 0.77293 0.95829 0.0
O68 O 0.9001 0.87968 0.931 0.0
O69 O 0.89666 0.87203 0.00161 0.0
O70 O 0.67494 0.71916 0.45256 0.0
Cd71 Cd 0.63927 0.72835 0.49137 0.0
Cd72 Cd 0.62164 0.67298 0.45508 0.0
O73 O 0.66332 0.67649 0.42692 0.0
O74 O 0.65311 0.76221 0.525 0.0
O75 O 0.64136 0.72133 0.55633 0.0
C76 C 0.65106 0.74715 0.55998 0.0
C77 C 0.60117 0.62772 0.46992 0.0
C78 C 0.68099 0.69761 0.42907 0.0
C79 C 0.5852 0.72713 0.43644 0.0
O80 O 0.58984 0.70053 0.43233 0.0
O81 O 0.60222 0.7427 0.45913 0.0
O82 O 0.60631 0.63619 0.43077 0.0
O83 O 0.60929 0.6443 0.50133 0.0
O84 O 0.32827 0.71837 0.04809 0.0
Cd85 Cd 0.36333 0.72933 0.00911 0.0
Cd86 Cd 0.38332 0.67368 0.04244 0.0
O87 O 0.34172 0.67558 0.0712 0.0
O88 O 0.34836 0.76312 0.97642 0.0
O89 O 0.3615 0.72303 0.94399 0.0
C90 C 0.35103 0.7486 0.94101 0.0
C91 C 0.40489 0.6288 0.02797 0.0
C92 C 0.32329 0.69611 0.07062 0.0
C93 C 0.41795 0.72882 0.06279 0.0
O94 O 0.41443 0.70197 0.06541 0.0
O95 O 0.40002 0.74428 0.04152 0.0
O96 O 0.3997 0.63739 0.06702 0.0
O97 O 0.39636 0.64506 0.99642 0.0
O98 O 0.17629 0.79956 0.54813 0.0
Cd99 Cd 0.14122 0.78862 0.50916 0.0
Cd100 Cd 0.12127 0.84426 0.54257 0.0
O101 O 0.16289 0.84237 0.5712 0.0
O102 O 0.15619 0.75482 0.47651 0.0
O103 O 0.14307 0.79491 0.44404 0.0
C104 C 0.15353 0.76934 0.44109 0.0
C105 C 0.09968 0.88913 0.52808 0.0
C106 C 0.1813 0.82182 0.57061 0.0
C107 C 0.08665 0.78912 0.56301 0.0
O108 O 0.0902 0.81596 0.56568 0.0
O109 O 0.10452 0.77368 0.5416 0.0
O110 O 0.1049 0.88056 0.56713 0.0
O111 O 0.10818 0.87286 0.49654 0.0
C112 C 0.29407 0.33712 0.63514 0.0
C113 C 0.29659 0.31903 0.59875 0.0
C114 C 0.27253 0.33197 0.66698 0.0
C115 C 0.23171 0.27132 0.71219 0.0
H116 H 0.18993 0.32872 0.77893 0.0
C117 C 0.15821 0.23957 0.85765 0.0
C118 C 0.16108 0.25646 0.89524 0.0
C119 C 0.16999 0.24879 0.81785 0.0
C120 C 0.20158 0.31242 0.76076 0.0
H121 H 0.27677 0.2829 0.56545 0.0
H122 H 0.23921 0.27423 0.62055 0.0
H123 H 0.21897 0.34296 0.71536 0.0
H124 H 0.17777 0.29669 0.92017 0.0
H125 H 0.19875 0.31239 0.85139 0.0
H126 H 0.21542 0.2409 0.75813 0.0
C127 C 0.25427 0.29195 0.62504 0.0
C128 C 0.21815 0.32061 0.7243 0.0
C129 C 0.27574 0.29705 0.59333 0.0
C130 C 0.17512 0.28314 0.89184 0.0
C131 C 0.187 0.29227 0.85221 0.0
C132 C 0.21533 0.26317 0.74869 0.0
C133 C 0.2531 0.30867 0.66299 0.0
C134 C 0.23363 0.30016 0.69983 0.0
C135 C 0.18504 0.27503 0.81482 0.0
C136 C 0.20031 0.28362 0.77379 0.0
H137 H 0.30978 0.35421 0.64036 0.0
H138 H 0.27225 0.34522 0.69591 0.0
H139 H 0.24382 0.25507 0.69458 0.0
H140 H 0.14738 0.21898 0.85912 0.0
H141 H 0.16762 0.23516 0.78957 0.0
C142 C 0.22855 0.2208 0.09365 0.0
C143 C 0.20771 0.1988 0.09905 0.0
C144 C 0.24999 0.22591 0.12538 0.0
C145 C 0.28613 0.19719 0.22456 0.0
H146 H 0.28895 0.27688 0.25843 0.0
C147 C 0.32938 0.23454 0.392 0.0
C148 C 0.34343 0.26121 0.39537 0.0
C149 C 0.31745 0.22544 0.35239 0.0
C150 C 0.28901 0.25462 0.24898 0.0
H151 H 0.19451 0.16362 0.14067 0.0
H152 H 0.23201 0.17262 0.19624 0.0
H153 H 0.26048 0.26276 0.19494 0.0
H154 H 0.35711 0.29871 0.35924 0.0
H155 H 0.33678 0.28258 0.28974 0.0
H156 H 0.3144 0.18904 0.27911 0.0
C157 C 0.23173 0.18588 0.16732 0.0
C158 C 0.27259 0.24649 0.21251 0.0
C159 C 0.21021 0.18072 0.13546 0.0
C160 C 0.34627 0.27812 0.35779 0.0
C161 C 0.33444 0.26894 0.31802 0.0
C162 C 0.30275 0.20535 0.26098 0.0
C163 C 0.25116 0.20918 0.16332 0.0
C164 C 0.27065 0.21766 0.20014 0.0
C165 C 0.31937 0.2427 0.31501 0.0
C166 C 0.30405 0.23414 0.27403 0.0
H167 H 0.22753 0.23494 0.06576 0.0
H168 H 0.26505 0.24363 0.12088 0.0
H169 H 0.2853 0.17484 0.21561 0.0
H170 H 0.32675 0.22097 0.42033 0.0
H171 H 0.30568 0.20532 0.3516 0.0
C172 C 0.7946 0.18116 0.36398 0.0
C173 C 0.79708 0.19927 0.40035 0.0
C174 C 0.77304 0.18622 0.33215 0.0
C175 C 0.732 0.24666 0.28691 0.0
H176 H 0.69034 0.18902 0.22042 0.0
C177 C 0.65825 0.27795 0.14159 0.0
C178 C 0.66115 0.26104 0.10403 0.0
C179 C 0.67009 0.26882 0.18138 0.0
C180 C 0.70195 0.20538 0.23851 0.0
H181 H 0.77719 0.23536 0.43361 0.0
H182 H 0.73961 0.24387 0.37854 0.0
H183 H 0.71949 0.17496 0.28393 0.0
H184 H 0.67794 0.22086 0.07913 0.0
H185 H 0.69904 0.20531 0.1479 0.0
H186 H 0.71556 0.27697 0.24096 0.0
C187 C 0.75471 0.2262 0.37405 0.0
C188 C 0.71859 0.1973 0.27495 0.0
C189 C 0.77619 0.22119 0.40575 0.0
C190 C 0.67527 0.23443 0.10744 0.0
C191 C 0.68722 0.22538 0.14707 0.0
C192 C 0.71556 0.25471 0.25044 0.0
C193 C 0.75355 0.20945 0.33613 0.0
C194 C 0.73402 0.21784 0.29932 0.0
C195 C 0.68523 0.24265 0.18443 0.0
C196 C 0.70057 0.23417 0.22542 0.0
H197 H 0.81034 0.16411 0.35877 0.0
H198 H 0.77278 0.17295 0.30325 0.0
H199 H 0.74407 0.26299 0.30446 0.0
H200 H 0.64735 0.29849 0.14011 0.0
H201 H 0.6677 0.28247 0.20964 0.0
C202 C 0.71014 0.33692 0.86388 0.0
C203 C 0.70766 0.31881 0.90027 0.0
C204 C 0.73172 0.33187 0.83207 0.0
C205 C 0.77284 0.27145 0.78695 0.0
H206 H 0.81446 0.32911 0.72036 0.0
C207 C 0.8466 0.24016 0.64162 0.0
C208 C 0.84367 0.25705 0.60403 0.0
C209 C 0.83477 0.24931 0.68141 0.0
C210 C 0.80287 0.31275 0.73848 0.0
H211 H 0.72758 0.28277 0.93361 0.0
H212 H 0.76521 0.27428 0.87857 0.0
H213 H 0.78529 0.34317 0.78386 0.0
H214 H 0.82685 0.29722 0.5791 0.0
H215 H 0.80578 0.31279 0.64787 0.0
H216 H 0.78933 0.24115 0.74104 0.0
C217 C 0.75008 0.29193 0.87405 0.0
C218 C 0.78621 0.32083 0.77491 0.0
C219 C 0.72858 0.29693 0.90572 0.0
C220 C 0.82954 0.28367 0.60743 0.0
C221 C 0.81761 0.29273 0.64706 0.0
C222 C 0.7893 0.26341 0.75049 0.0
C223 C 0.75124 0.30867 0.8361 0.0
C224 C 0.77079 0.30028 0.79932 0.0
C225 C 0.81962 0.27547 0.68444 0.0
C226 C 0.80427 0.28396 0.72544 0.0
H227 H 0.69438 0.35394 0.85863 0.0
H228 H 0.73198 0.34513 0.80314 0.0
H229 H 0.76079 0.25513 0.80452 0.0
H230 H 0.8575 0.21962 0.64015 0.0
H231 H 0.83717 0.23567 0.70969 0.0
C232 C 0.84513 0.77836 0.1401 0.0
C233 C 0.84271 0.76112 0.10281 0.0
C234 C 0.83314 0.76937 0.17989 0.0
C235 C 0.80206 0.7059 0.23785 0.0
H236 H 0.7587 0.76326 0.30243 0.0
C237 C 0.70993 0.68085 0.36392 0.0
C238 C 0.70708 0.69922 0.39992 0.0
C239 C 0.7313 0.68612 0.33188 0.0
C240 C 0.77111 0.74702 0.28526 0.0
H241 H 0.82657 0.72054 0.0784 0.0
H242 H 0.80524 0.70523 0.14717 0.0
H243 H 0.78713 0.77723 0.23878 0.0
H244 H 0.72615 0.73608 0.43229 0.0
H245 H 0.76343 0.74497 0.37687 0.0
H246 H 0.78501 0.67555 0.28382 0.0
C247 C 0.81679 0.72545 0.14612 0.0
C248 C 0.7875 0.75506 0.24871 0.0
C249 C 0.82888 0.73436 0.10649 0.0
C250 C 0.72744 0.72169 0.40473 0.0
C251 C 0.74874 0.72692 0.37282 0.0
C252 C 0.78549 0.69782 0.27437 0.0
C253 C 0.81833 0.74302 0.1832 0.0
C254 C 0.80295 0.73459 0.2242 0.0
C255 C 0.75025 0.70983 0.33528 0.0
C256 C 0.76962 0.71827 0.29828 0.0
H257 H 0.85579 0.79902 0.13841 0.0
H258 H 0.83517 0.78326 0.20794 0.0
H259 H 0.81403 0.68961 0.22014 0.0
H260 H 0.6946 0.66337 0.35917 0.0
H261 H 0.73185 0.67259 0.30328 0.0
C262 C 0.6626 0.74169 0.63975 0.0
C263 C 0.66133 0.75885 0.60222 0.0
C264 C 0.67522 0.75218 0.67825 0.0
C265 C 0.72995 0.80501 0.71423 0.0
H266 H 0.70068 0.78763 0.82998 0.0
C267 C 0.79468 0.84061 0.86593 0.0
C268 C 0.79853 0.8194 0.89784 0.0
C269 C 0.7735 0.83724 0.83306 0.0
C270 C 0.70922 0.79258 0.79788 0.0
H271 H 0.67104 0.80094 0.57633 0.0
H272 H 0.69279 0.81916 0.6433 0.0
H273 H 0.67203 0.77332 0.76613 0.0
H274 H 0.78164 0.77896 0.92186 0.0
H275 H 0.74533 0.77294 0.86457 0.0
H276 H 0.76756 0.82334 0.74551 0.0
C277 C 0.68448 0.79748 0.64287 0.0
C278 C 0.69278 0.78436 0.76132 0.0
C279 C 0.67186 0.78705 0.60453 0.0
C280 C 0.77944 0.7957 0.89772 0.0
C281 C 0.75839 0.7923 0.86489 0.0
C282 C 0.74642 0.81309 0.75068 0.0
C283 C 0.68688 0.78001 0.67992 0.0
C284 C 0.70314 0.79021 0.71906 0.0
C285 C 0.75574 0.81259 0.83136 0.0
C286 C 0.73649 0.80667 0.793 0.0
H287 H 0.65469 0.71988 0.63903 0.0
H288 H 0.67692 0.7381 0.70614 0.0
H289 H 0.73881 0.80945 0.68214 0.0
H290 H 0.80888 0.85921 0.86513 0.0
H291 H 0.77165 0.85358 0.80824 0.0
C292 C 0.32951 0.78854 0.89731 0.0
C293 C 0.34084 0.76063 0.89895 0.0
C294 C 0.31727 0.79926 0.85889 0.0
C295 C 0.31157 0.78783 0.73964 0.0
H296 H 0.23567 0.82492 0.75363 0.0
C297 C 0.22667 0.7986 0.60078 0.0
C298 C 0.20698 0.82182 0.60068 0.0
C299 C 0.24745 0.79545 0.63403 0.0
C300 C 0.25712 0.81521 0.749 0.0
H301 H 0.34922 0.72248 0.86095 0.0
H302 H 0.32761 0.74119 0.79374 0.0
H303 H 0.26354 0.81076 0.8177 0.0
H304 H 0.19536 0.86112 0.63382 0.0
H305 H 0.23209 0.8559 0.69148 0.0
H306 H 0.30482 0.79185 0.67079 0.0
C307 C 0.32842 0.75484 0.82221 0.0
C308 C 0.2731 0.80698 0.78585 0.0
C309 C 0.34067 0.74406 0.86077 0.0
C310 C 0.21003 0.84289 0.63299 0.0
C311 C 0.23092 0.83976 0.66629 0.0
C312 C 0.29562 0.79619 0.70269 0.0
C313 C 0.31605 0.78238 0.8211 0.0
C314 C 0.3003 0.79283 0.78165 0.0
C315 C 0.24921 0.81549 0.66802 0.0
C316 C 0.26795 0.80959 0.70691 0.0
H317 H 0.32947 0.80198 0.92603 0.0
H318 H 0.30838 0.82072 0.85896 0.0
H319 H 0.33265 0.77732 0.73532 0.0
H320 H 0.2251 0.782 0.57632 0.0
H321 H 0.26096 0.7764 0.63434 0.0
C322 C 0.27791 0.7193 0.10081 0.0
C323 C 0.29763 0.69611 0.10073 0.0
C324 C 0.25714 0.72244 0.13409 0.0
C325 C 0.24752 0.70274 0.24912 0.0
H326 H 0.17195 0.74054 0.23544 0.0
C327 C 0.17511 0.72941 0.39744 0.0
C328 C 0.16375 0.7573 0.39904 0.0
C329 C 0.18737 0.71868 0.35904 0.0
C330 C 0.19305 0.73005 0.23976 0.0
H331 H 0.30932 0.65684 0.13394 0.0
H332 H 0.2726 0.66205 0.19165 0.0
H333 H 0.19978 0.726 0.17091 0.0
H334 H 0.15533 0.79543 0.36099 0.0
H335 H 0.17697 0.77671 0.29379 0.0
H336 H 0.24112 0.70722 0.31781 0.0
C337 C 0.27374 0.67818 0.16642 0.0
C338 C 0.209 0.72169 0.20281 0.0
C339 C 0.29462 0.67505 0.1331 0.0
C340 C 0.1639 0.77386 0.36083 0.0
C341 C 0.17617 0.76308 0.32228 0.0
C342 C 0.23155 0.71098 0.28597 0.0
C343 C 0.25542 0.70242 0.16812 0.0
C344 C 0.23668 0.70833 0.20703 0.0
C345 C 0.18857 0.73555 0.32121 0.0
C346 C 0.20432 0.72509 0.28177 0.0
H347 H 0.27945 0.73588 0.07632 0.0
H348 H 0.2436 0.74148 0.13438 0.0
H349 H 0.26899 0.69306 0.25375 0.0
H350 H 0.17516 0.71598 0.42618 0.0
H351 H 0.19628 0.69723 0.35913 0.0
C352 C 0.0702 0.26544 0.11682 0.0
C353 C 0.0633 0.24172 0.09073 0.0
C354 C 0.05262 0.27209 0.15298 0.0
C355 C 0.00839 0.23076 0.22898 0.0
H356 H 0.992 0.30278 0.2863 0.0
C357 C 0.96808 0.22789 0.40175 0.0
C358 C 0.94152 0.24251 0.40862 0.0
C359 C 0.98593 0.23472 0.36627 0.0
C360 C 0.9965 0.28256 0.27058 0.0
H361 H 0.031 0.20872 0.07808 0.0
H362 H 0.99958 0.2211 0.13969 0.0
H363 H 0.01264 0.30255 0.2121 0.0
H364 H 0.91401 0.27744 0.38668 0.0
H365 H 0.94483 0.28889 0.3235 0.0
H366 H 0.99213 0.21056 0.28624 0.0
C367 C 0.01906 0.23391 0.1335 0.0
C368 C 0.0083 0.28243 0.22825 0.0
C369 C 0.03685 0.22695 0.09803 0.0
C370 C 0.93454 0.26598 0.38209 0.0
C371 C 0.95217 0.2725 0.34591 0.0
C372 C 0.99683 0.23089 0.27091 0.0
C373 C 0.02782 0.25526 0.16301 0.0
C374 C 0.01414 0.25644 0.20695 0.0
C375 C 0.97711 0.25578 0.33631 0.0
C376 C 0.99085 0.2567 0.2924 0.0
H377 H 0.09064 0.27703 0.1119 0.0
H378 H 0.0599 0.2887 0.17505 0.0
H379 H 0.01325 0.21034 0.21406 0.0
H380 H 0.974 0.20984 0.42204 0.0
H381 H 0.00551 0.22202 0.36042 0.0
C382 C 0.4674 0.29099 0.59859 0.0
C383 C 0.44102 0.27612 0.59121 0.0
C384 C 0.48515 0.2841 0.63412 0.0
C385 C 0.49609 0.23556 0.72877 0.0
H386 H 0.51197 0.30743 0.78687 0.0
C387 C 0.57013 0.25208 0.88219 0.0
C388 C 0.56316 0.27551 0.90881 0.0
C389 C 0.55241 0.24556 0.84612 0.0
C390 C 0.50735 0.2871 0.77152 0.0
H391 H 0.41377 0.24074 0.61232 0.0
H392 H 0.44444 0.22916 0.67558 0.0
H393 H 0.49073 0.30763 0.71477 0.0
H394 H 0.53064 0.30809 0.9225 0.0
H395 H 0.49897 0.29589 0.86109 0.0
H396 H 0.5126 0.21521 0.7867 0.0
C397 C 0.4517 0.2458 0.65352 0.0
C398 C 0.49571 0.28722 0.72964 0.0
C399 C 0.43415 0.25239 0.6173 0.0
C400 C 0.53654 0.29008 0.90214 0.0
C401 C 0.5186 0.28323 0.86678 0.0
C402 C 0.50795 0.23543 0.77106 0.0
C403 C 0.47643 0.26271 0.66361 0.0
C404 C 0.49008 0.26154 0.70756 0.0
C405 C 0.52739 0.26222 0.83673 0.0
C406 C 0.51351 0.26129 0.79291 0.0
H407 H 0.47323 0.30923 0.57864 0.0
H408 H 0.50457 0.29697 0.64037 0.0
H409 H 0.49184 0.21543 0.71259 0.0
H410 H 0.5907 0.24067 0.88661 0.0
H411 H 0.55973 0.22921 0.82364 0.0
C412 C 0.03748 0.79077 0.59825 0.0
C413 C 0.06393 0.77606 0.59088 0.0
C414 C 0.01983 0.7839 0.63394 0.0
C415 C 0.00947 0.73559 0.72909 0.0
H416 H 0.99293 0.80751 0.7866 0.0
C417 C 0.93563 0.75179 0.88277 0.0
C418 C 0.94236 0.77542 0.90915 0.0
C419 C 0.95335 0.74536 0.84666 0.0
C420 C 0.99774 0.78717 0.77141 0.0
H421 H 0.0914 0.74091 0.61221 0.0
H422 H 0.06093 0.7294 0.6757 0.0
H423 H 0.014 0.80766 0.71438 0.0
H424 H 0.97454 0.80844 0.92238 0.0
H425 H 0.00619 0.79643 0.86087 0.0
H426 H 0.99333 0.71529 0.7873 0.0
C427 C 0.05353 0.74591 0.65354 0.0
C428 C 0.00928 0.78726 0.72946 0.0
C429 C 0.07097 0.75247 0.61717 0.0
C430 C 0.9688 0.79029 0.9022 0.0
C431 C 0.98673 0.78354 0.86678 0.0
C432 C 0.99771 0.7355 0.77144 0.0
C433 C 0.02873 0.76269 0.66359 0.0
C434 C 0.01514 0.76156 0.70759 0.0
C435 C 0.97813 0.76231 0.83697 0.0
C436 C 0.99192 0.76137 0.79309 0.0
H437 H 0.03148 0.80888 0.57814 0.0
H438 H 1.00034 0.79666 0.64014 0.0
H439 H 0.0139 0.71545 0.71307 0.0
H440 H 0.91522 0.74012 0.88741 0.0
H441 H 0.94618 0.72883 0.82438 0.0
C442 C 0.46737 0.72739 0.0972 0.0
C443 C 0.44068 0.74185 0.09061 0.0
C444 C 0.48513 0.73403 0.13286 0.0
C445 C 0.49496 0.78113 0.22965 0.0
H446 H 0.51309 0.70866 0.28446 0.0
C447 C 0.56851 0.76408 0.38351 0.0
C448 C 0.56214 0.73994 0.40899 0.0
C449 C 0.55092 0.77065 0.34733 0.0
C450 C 0.50784 0.72913 0.27002 0.0
H451 H 0.41285 0.77635 0.11331 0.0
H452 H 0.44349 0.78741 0.17676 0.0
H453 H 0.49204 0.70924 0.21227 0.0
H454 H 0.53068 0.70602 0.42058 0.0
H455 H 0.49921 0.71823 0.35897 0.0
H456 H 0.51057 0.8008 0.28865 0.0
C457 C 0.45101 0.77131 0.15401 0.0
C458 C 0.49632 0.72949 0.22808 0.0
C459 C 0.43347 0.765 0.11767 0.0
C460 C 0.53614 0.72458 0.40109 0.0
C461 C 0.51832 0.73145 0.36561 0.0
C462 C 0.50669 0.78077 0.27201 0.0
C463 C 0.47609 0.75472 0.16327 0.0
C464 C 0.48985 0.75541 0.20719 0.0
C465 C 0.52662 0.75331 0.33668 0.0
C466 C 0.51302 0.75468 0.2927 0.0
H467 H 0.47348 0.70961 0.0765 0.0
H468 H 0.50484 0.72146 0.13842 0.0
H469 H 0.49008 0.80143 0.21442 0.0
H470 H 0.5886 0.77614 0.38889 0.0
H471 H 0.55784 0.78767 0.32573 0.0
C472 C 0.07519 0.08485 0.05837 0.0
C473 C 0.08357 0.10201 0.02282 0.0
C474 C 0.05632 0.06154 0.05254 0.0
C475 C 0.02519 0.01259 0.96933 0.0
H476 H 0.9634 1.00179 0.05536 0.0
C477 C 0.93068 0.93208 0.94215 0.0
C478 C 0.92226 0.91492 0.97767 0.0
C479 C 0.94957 0.95537 0.94801 0.0
C480 C 0.98069 1.00429 0.03128 0.0
H481 H 0.07929 0.10754 0.95296 0.0
H482 H 0.04622 0.06684 0.94273 0.0
H483 H 0.99883 0.04054 0.06422 0.0
H484 H 0.92648 0.90938 0.04753 0.0
H485 H 0.95959 0.95005 0.05784 0.0
H486 H 0.00706 0.97634 0.93638 0.0
C487 C 0.05444 0.07132 0.97516 0.0
C488 C 1.00107 0.02652 0.03636 0.0
C489 C 0.07339 0.09469 0.981 0.0
C490 C 0.93242 0.92222 0.01951 0.0
C491 C 0.95138 0.94558 0.0254 0.0
C492 C 0.00482 0.99036 0.96425 0.0
C493 C 0.04524 0.05475 0.01101 0.0
C494 C 0.02362 0.03096 0.00548 0.0
C495 C 0.96062 0.96215 0.98956 0.0
C496 C 0.98226 0.98592 0.99512 0.0
H497 H 0.08271 0.08975 0.09104 0.0
H498 H 0.05024 0.04894 0.08075 0.0
H499 H 0.04248 0.01509 0.94524 0.0
H500 H 0.92318 0.92719 0.90947 0.0
H501 H 0.95568 0.96797 0.91982 0.0
C502 C 0.57384 0.59403 0.5196 0.0
C503 C 0.58419 0.60107 0.47776 0.0
C504 C 0.55483 0.57072 0.52563 0.0
C505 C 0.52698 0.50455 0.47232 0.0
H506 H 0.45974 0.51528 0.54875 0.0
C507 C 0.43148 0.42247 0.4802 0.0
C508 C 0.42106 0.41546 0.52202 0.0
C509 C 0.45059 0.4457 0.47421 0.0
C510 C 0.47852 0.51181 0.52757 0.0
H511 H 0.58345 0.5885 0.40969 0.0
H512 H 0.55044 0.54815 0.42015 0.0
H513 H 0.49617 0.55327 0.5411 0.0
H514 H 0.42185 0.42799 0.59011 0.0
H515 H 0.45505 0.4682 0.57971 0.0
H516 H 0.50932 0.46308 0.45877 0.0
C517 C 0.55707 0.56041 0.44843 0.0
C518 C 0.4995 0.53358 0.5233 0.0
C519 C 0.57596 0.58368 0.44241 0.0
C520 C 0.42938 0.43278 0.5574 0.0
C521 C 0.44838 0.45598 0.55142 0.0
C522 C 0.506 0.48277 0.47658 0.0
C523 C 0.54583 0.55388 0.48998 0.0
C524 C 0.52401 0.53026 0.49561 0.0
C525 C 0.45964 0.4625 0.50988 0.0
C526 C 0.48148 0.48609 0.50427 0.0
H527 H 0.57972 0.60697 0.54752 0.0
H528 H 0.54697 0.56604 0.5582 0.0
H529 H 0.54575 0.50107 0.45113 0.0
H530 H 0.42553 0.40957 0.45225 0.0
H531 H 0.45848 0.45037 0.44164 0.0
C532 C 0.43063 0.58523 0.05596 0.0
C533 C 0.42216 0.60233 0.0204 0.0
C534 C 0.44959 0.56203 0.05014 0.0
C535 C 0.48078 0.51311 0.96702 0.0
H536 H 0.54254 0.50252 0.05309 0.0
C537 C 0.57515 0.43246 0.94038 0.0
C538 C 0.58349 0.41539 0.97603 0.0
C539 C 0.55632 0.45579 0.94606 0.0
C540 C 0.52526 0.50496 0.02899 0.0
H541 H 0.4264 0.60785 0.95054 0.0
H542 H 0.45965 0.56731 0.94031 0.0
H543 H 0.50714 0.54126 0.06178 0.0
H544 H 0.57918 0.41005 0.04592 0.0
H545 H 0.54618 0.45079 0.05591 0.0
H546 H 0.49889 0.4768 0.93424 0.0
C547 C 0.45142 0.57178 0.97274 0.0
C548 C 0.5049 0.52719 0.03398 0.0
C549 C 0.43238 0.59506 0.97858 0.0
C550 C 0.57331 0.42282 0.0178 0.0
C551 C 0.55441 0.44622 0.02351 0.0
C552 C 0.50114 0.49088 0.96203 0.0
C553 C 0.46068 0.55526 0.0086 0.0
C554 C 0.48234 0.53154 0.0031 0.0
C555 C 0.54525 0.4627 0.98755 0.0
C556 C 0.52368 0.48651 0.99294 0.0
H557 H 0.42309 0.5901 0.08863 0.0
H558 H 0.45572 0.54946 0.07836 0.0
H559 H 0.46349 0.51554 0.94293 0.0
H560 H 0.58267 0.42747 0.90774 0.0
H561 H 0.55027 0.46832 0.91778 0.0
C562 C 0.07397 0.93271 0.55607 0.0
C563 C 0.08241 0.91561 0.52052 0.0
C564 C 0.05502 0.95593 0.55026 0.0
C565 C 0.02386 1.00487 0.46714 0.0
H566 H 0.96212 0.01551 0.55327 0.0
C567 C 0.92953 0.08557 0.44051 0.0
C568 C 0.92121 0.10266 0.47615 0.0
C569 C 0.94835 0.06223 0.4462 0.0
C570 C 0.9794 0.01306 0.52915 0.0
H571 H 0.07815 0.91008 0.45067 0.0
H572 H 0.04493 0.95065 0.44045 0.0
H573 H 0.9975 0.97675 0.56196 0.0
H574 H 0.92553 0.10801 0.54603 0.0
H575 H 0.95851 0.06725 0.55603 0.0
H576 H 0.00577 0.04119 0.43435 0.0
C577 C 0.05316 0.94618 0.47287 0.0
C578 C 0.99974 0.99082 0.53414 0.0
C579 C 0.07219 0.92288 0.47871 0.0
C580 C 0.93139 0.09523 0.51792 0.0
C581 C 0.95029 0.07182 0.52363 0.0
C582 C 0.00351 0.02711 0.46215 0.0
C583 C 0.04393 0.9627 0.50873 0.0
C584 C 0.02228 0.98644 0.50323 0.0
C585 C 0.95942 0.05532 0.48769 0.0
C586 C 0.98099 0.0315 0.49308 0.0
H587 H 0.08152 0.92784 0.58874 0.0
H588 H 0.04892 0.9685 0.57847 0.0
H589 H 0.04114 1.00242 0.44303 0.0
H590 H 0.92201 0.09056 0.40787 0.0
H591 H 0.95438 0.04969 0.41793 0.0
loop_
_geom_bond_atom_site_label_1
_geom_bond_atom_site_label_2
_geom_bond_distance
_geom_bond_site_symmetry_2
_ccdc_geom_bond_type
O0 Cd1 2.223 . S
O0 C8 1.315 . S
Cd1 O0 2.223 . S
Cd1 O4 2.297 1_554 S
Cd1 O5 2.439 1_554 S
Cd1 O11 2.240 . S
Cd2 O3 2.240 . S
Cd2 O10 2.223 . S
Cd2 O12 2.297 . S
Cd2 O13 2.439 . S
O3 Cd2 2.240 . S
O3 C8 1.279 . S
O4 Cd1 2.297 1_556 S
O4 C6 1.247 . S
O5 Cd1 2.439 1_556 S
O5 C6 1.208 . S
C6 O4 1.247 . S
C6 O5 1.208 . S
C7 O12 1.247 . S
C7 O13 1.208 . S
C8 O0 1.315 . S
C8 O3 1.279 . S
C9 O10 1.315 . S
C9 O11 1.279 . S
O10 Cd2 2.223 . S
O10 C9 1.315 . S
O11 Cd1 2.240 . S
O11 C9 1.279 . S
O12 Cd2 2.297 . S
O12 C7 1.247 . S
O13 Cd2 2.439 . S
O13 C7 1.208 . S
O14 Cd15 2.223 . S
O14 C22 1.315 . S
Cd15 O14 2.223 . S
Cd15 O18 2.297 . S
Cd15 O19 2.439 . S
Cd15 O25 2.240 . S
Cd16 O17 2.240 . S
Cd16 O24 2.223 . S
Cd16 O26 2.297 . S
Cd16 O27 2.439 . S
O17 Cd16 2.240 . S
O17 C22 1.279 . S
O18 Cd15 2.297 . S
O18 C20 1.247 . S
O19 Cd15 2.439 . S
O19 C20 1.208 . S
C20 O18 1.247 . S
C20 O19 1.208 . S
C21 O26 1.247 . S
C21 O27 1.208 . S
C22 O14 1.315 . S
C22 O17 1.279 . S
C23 O24 1.315 . S
C23 O25 1.279 . S
O24 Cd16 2.223 . S
O24 C23 1.315 . S
O25 Cd15 2.240 . S
O25 C23 1.279 . S
O26 Cd16 2.297 . S
O26 C21 1.247 . S
O27 Cd16 2.439 . S
O27 C21 1.208 . S
O28 Cd29 2.223 . S
O28 C36 1.315 . S
Cd29 O28 2.223 . S
Cd29 O32 2.297 1_556 S
Cd29 O33 2.439 1_556 S
Cd29 O39 2.240 . S
Cd30 O31 2.240 . S
Cd30 O38 2.223 . S
Cd30 O40 2.297 . S
Cd30 O41 2.439 . S
O31 Cd30 2.240 . S
O31 C36 1.279 . S
O32 Cd29 2.297 1_554 S
O32 C34 1.247 . S
O33 Cd29 2.439 1_554 S
O33 C34 1.208 . S
C34 O32 1.247 . S
C34 O33 1.208 . S
C35 O40 1.247 . S
C35 O41 1.208 . S
C36 O28 1.315 . S
C36 O31 1.279 . S
C37 O38 1.315 . S
C37 O39 1.279 . S
O38 Cd30 2.223 . S
O38 C37 1.315 . S
O39 Cd29 2.240 . S
O39 C37 1.279 . S
O40 Cd30 2.297 . S
O40 C35 1.247 . S
O41 Cd30 2.439 . S
O41 C35 1.208 . S
O42 Cd43 2.223 . S
O42 C50 1.315 . S
Cd43 O42 2.223 . S
Cd43 O46 2.297 . S
Cd43 O47 2.439 . S
Cd43 O53 2.240 . S
Cd44 O45 2.240 . S
Cd44 O52 2.223 . S
Cd44 O54 2.297 . S
Cd44 O55 2.439 . S
O45 Cd44 2.240 . S
O45 C50 1.279 . S
O46 Cd43 2.297 . S
O46 C48 1.247 . S
O47 Cd43 2.439 . S
O47 C48 1.208 . S
C48 O46 1.247 . S
C48 O47 1.208 . S
C49 O54 1.247 . S
C49 O55 1.208 . S
C50 O42 1.315 . S
C50 O45 1.279 . S
C51 O52 1.315 . S
C51 O53 1.279 . S
O52 Cd44 2.223 . S
O52 C51 1.315 . S
O53 Cd43 2.240 . S
O53 C51 1.279 . S
O54 Cd44 2.297 . S
O54 C49 1.247 . S
O55 Cd44 2.439 . S
O55 C49 1.208 . S
O56 Cd57 2.223 . S
O56 C64 1.315 . S
Cd57 O56 2.223 . S
Cd57 O60 2.297 1_556 S
Cd57 O61 2.439 1_556 S
Cd57 O67 2.240 . S
Cd58 O59 2.240 . S
Cd58 O66 2.223 . S
Cd58 O68 2.297 . S
Cd58 O69 2.439 . S
O59 Cd58 2.240 . S
O59 C64 1.279 . S
O60 Cd57 2.297 1_554 S
O60 C62 1.247 . S
O61 Cd57 2.439 1_554 S
O61 C62 1.208 . S
C62 O60 1.247 . S
C62 O61 1.208 . S
C63 O68 1.247 . S
C63 O69 1.208 . S
C64 O56 1.315 . S
C64 O59 1.279 . S
C65 O66 1.315 . S
C65 O67 1.279 . S
O66 Cd58 2.223 . S
O66 C65 1.315 . S
O67 Cd57 2.240 . S
O67 C65 1.279 . S
O68 Cd58 2.297 . S
O68 C63 1.247 . S
O69 Cd58 2.439 . S
O69 C63 1.208 . S
O70 Cd71 2.223 . S
O70 C78 1.315 . S
Cd71 O70 2.223 . S
Cd71 O74 2.297 . S
Cd71 O75 2.439 . S
Cd71 O81 2.240 . S
Cd72 O73 2.240 . S
Cd72 O80 2.223 . S
Cd72 O82 2.297 . S
Cd72 O83 2.439 . S
O73 Cd72 2.240 . S
O73 C78 1.279 . S
O74 Cd71 2.297 . S
O74 C76 1.247 . S
O75 Cd71 2.439 . S
O75 C76 1.208 . S
C76 O74 1.247 . S
C76 O75 1.208 . S
C77 O82 1.247 . S
C77 O83 1.208 . S
C78 O70 1.315 . S
C78 O73 1.279 . S
C79 O80 1.315 . S
C79 O81 1.279 . S
O80 Cd72 2.223 . S
O80 C79 1.315 . S
O81 Cd71 2.240 . S
O81 C79 1.279 . S
O82 Cd72 2.297 . S
O82 C77 1.247 . S
O83 Cd72 2.439 . S
O83 C77 1.208 . S
O84 Cd85 2.223 . S
O84 C92 1.315 . S
Cd85 O84 2.223 . S
Cd85 O88 2.297 1_554 S
Cd85 O89 2.439 1_554 S
Cd85 O95 2.240 . S
Cd86 O87 2.240 . S
Cd86 O94 2.223 . S
Cd86 O96 2.297 . S
Cd86 O97 2.439 . S
O87 Cd86 2.240 . S
O87 C92 1.279 . S
O88 Cd85 2.297 1_556 S
O88 C90 1.247 . S
O89 Cd85 2.439 1_556 S
O89 C90 1.208 . S
C90 O88 1.247 . S
C90 O89 1.208 . S
C91 O96 1.247 . S
C91 O97 1.208 . S
C92 O84 1.315 . S
C92 O87 1.279 . S
C93 O94 1.315 . S
C93 O95 1.279 . S
O94 Cd86 2.223 . S
O94 C93 1.315 . S
O95 Cd85 2.240 . S
O95 C93 1.279 . S
O96 Cd86 2.297 . S
O96 C91 1.247 . S
O97 Cd86 2.439 . S
O97 C91 1.208 . S
O98 Cd99 2.223 . S
O98 C106 1.315 . S
Cd99 O98 2.223 . S
Cd99 O102 2.297 . S
Cd99 O103 2.439 . S
Cd99 O109 2.240 . S
Cd100 O101 2.240 . S
Cd100 O108 2.223 . S
Cd100 O110 2.297 . S
Cd100 O111 2.439 . S
O101 Cd100 2.240 . S
O101 C106 1.279 . S
O102 Cd99 2.297 . S
O102 C104 1.247 . S
O103 Cd99 2.439 . S
O103 C104 1.208 . S
C104 O102 1.247 . S
C104 O103 1.208 . S
C105 O110 1.247 . S
C105 O111 1.208 . S
C106 O98 1.315 . S
C106 O101 1.279 . S
C107 O108 1.315 . S
C107 O109 1.279 . S
O108 Cd100 2.223 . S
O108 C107 1.315 . S
O109 Cd99 2.240 . S
O109 C107 1.279 . S
O110 Cd100 2.297 . S
O110 C105 1.247 . S
O111 Cd100 2.439 . S
O111 C105 1.208 . S
C112 C113 1.349 . S
C112 C114 1.327 . S
C112 H137 0.950 . S
C113 C112 1.349 . S
C113 C129 1.349 . S
C114 C112 1.327 . S
C114 C133 1.429 . S
C114 H138 0.950 . S
C115 C132 1.574 . S
C115 C134 1.368 . S
C115 H139 0.949 . S
H116 C120 0.949 . S
C117 C118 1.349 . S
C117 C119 1.327 . S
C117 H140 0.950 . S
C118 C117 1.349 . S
C118 C130 1.349 . S
C119 C117 1.327 . S
C119 C135 1.429 . S
C119 H141 0.950 . S
C120 H116 0.949 . S
C120 C128 1.574 . S
C120 C136 1.368 . S
H121 C129 0.950 . S
H122 C127 0.950 . S
H123 C128 0.949 . S
H124 C130 0.950 . S
H125 C131 0.950 . S
H126 C132 0.949 . S
C127 H122 0.950 . S
C127 C129 1.327 . S
C127 C133 1.429 . S
C128 C120 1.574 . S
C128 H123 0.949 . S
C128 C134 1.368 . S
C129 C113 1.349 . S
C129 H121 0.950 . S
C129 C127 1.327 . S
C130 C118 1.349 . S
C130 H124 0.950 . S
C130 C131 1.327 . S
C131 H125 0.950 . S
C131 C130 1.327 . S
C131 C135 1.429 . S
C132 C115 1.574 . S
C132 H126 0.949 . S
C132 C136 1.368 . S
C133 C114 1.429 . S
C133 C127 1.429 . S
C133 C134 1.523 . S
C134 C115 1.368 . S
C134 C128 1.368 . S
C134 C133 1.523 . S
C135 C119 1.429 . S
C135 C131 1.429 . S
C135 C136 1.523 . S
C136 C120 1.368 . S
C136 C132 1.368 . S
C136 C135 1.523 . S
H137 C112 0.950 . S
H138 C114 0.950 . S
H139 C115 0.949 . S
H140 C117 0.950 . S
H141 C119 0.950 . S
C142 C143 1.349 . S
C142 C144 1.327 . S
C142 H167 0.950 . S
C143 C142 1.349 . S
C143 C159 1.349 . S
C144 C142 1.327 . S
C144 C163 1.429 . S
C144 H168 0.950 . S
C145 C162 1.574 . S
C145 C164 1.368 . S
C145 H169 0.949 . S
H146 C150 0.949 . S
C147 C148 1.349 . S
C147 C149 1.327 . S
C147 H170 0.950 . S
C148 C147 1.349 . S
C148 C160 1.349 . S
C149 C147 1.327 . S
C149 C165 1.429 . S
C149 H171 0.950 . S
C150 H146 0.949 . S
C150 C158 1.574 . S
C150 C166 1.368 . S
H151 C159 0.950 . S
H152 C157 0.950 . S
H153 C158 0.949 . S
H154 C160 0.950 . S
H155 C161 0.950 . S
H156 C162 0.949 . S
C157 H152 0.950 . S
C157 C159 1.327 . S
C157 C163 1.429 . S
C158 C150 1.574 . S
C158 H153 0.949 . S
C158 C164 1.368 . S
C159 C143 1.349 . S
C159 H151 0.950 . S
C159 C157 1.327 . S
C160 C148 1.349 . S
C160 H154 0.950 . S
C160 C161 1.327 . S
C161 H155 0.950 . S
C161 C160 1.327 . S
C161 C165 1.429 . S
C162 C145 1.574 . S
C162 H156 0.949 . S
C162 C166 1.368 . S
C163 C144 1.429 . S
C163 C157 1.429 . S
C163 C164 1.523 . S
C164 C145 1.368 . S
C164 C158 1.368 . S
C164 C163 1.523 . S
C165 C149 1.429 . S
C165 C161 1.429 . S
C165 C166 1.523 . S
C166 C150 1.368 . S
C166 C162 1.368 . S
C166 C165 1.523 . S
H167 C142 0.950 . S
H168 C144 0.950 . S
H169 C145 0.949 . S
H170 C147 0.950 . S
H171 C149 0.950 . S
C172 C173 1.349 . S
C172 C174 1.327 . S
C172 H197 0.950 . S
C173 C172 1.349 . S
C173 C189 1.349 . S
C174 C172 1.327 . S
C174 C193 1.429 . S
C174 H198 0.950 . S
C175 C192 1.574 . S
C175 C194 1.368 . S
C175 H199 0.949 . S
H176 C180 0.949 . S
C177 C178 1.349 . S
C177 C179 1.327 . S
C177 H200 0.950 . S
C178 C177 1.349 . S
C178 C190 1.349 . S
C179 C177 1.327 . S
C179 C195 1.429 . S
C179 H201 0.950 . S
C180 H176 0.949 . S
C180 C188 1.574 . S
C180 C196 1.368 . S
H181 C189 0.950 . S
H182 C187 0.950 . S
H183 C188 0.949 . S
H184 C190 0.950 . S
H185 C191 0.950 . S
H186 C192 0.949 . S
C187 H182 0.950 . S
C187 C189 1.327 . S
C187 C193 1.429 . S
C188 C180 1.574 . S
C188 H183 0.949 . S
C188 C194 1.368 . S
C189 C173 1.349 . S
C189 H181 0.950 . S
C189 C187 1.327 . S
C190 C178 1.349 . S
C190 H184 0.950 . S
C190 C191 1.327 . S
C191 H185 0.950 . S
C191 C190 1.327 . S
C191 C195 1.429 . S
C192 C175 1.574 . S
C192 H186 0.949 . S
C192 C196 1.368 . S
C193 C174 1.429 . S
C193 C187 1.429 . S
C193 C194 1.523 . S
C194 C175 1.368 . S
C194 C188 1.368 . S
C194 C193 1.523 . S
C195 C179 1.429 . S
C195 C191 1.429 . S
C195 C196 1.523 . S
C196 C180 1.368 . S
C196 C192 1.368 . S
C196 C195 1.523 . S
H197 C172 0.950 . S
H198 C174 0.950 . S
H199 C175 0.949 . S
H200 C177 0.950 . S
H201 C179 0.950 . S
C202 C203 1.349 . S
C202 C204 1.327 . S
C202 H227 0.950 . S
C203 C202 1.349 . S
C203 C219 1.349 . S
C204 C202 1.327 . S
C204 C223 1.429 . S
C204 H228 0.950 . S
C205 C222 1.574 . S
C205 C224 1.368 . S
C205 H229 0.949 . S
H206 C210 0.949 . S
C207 C208 1.349 . S
C207 C209 1.327 . S
C207 H230 0.950 . S
C208 C207 1.349 . S
C208 C220 1.349 . S
C209 C207 1.327 . S
C209 C225 1.429 . S
C209 H231 0.950 . S
C210 H206 0.949 . S
C210 C218 1.574 . S
C210 C226 1.368 . S
H211 C219 0.950 . S
H212 C217 0.950 . S
H213 C218 0.949 . S
H214 C220 0.950 . S
H215 C221 0.950 . S
H216 C222 0.949 . S
C217 H212 0.950 . S
C217 C219 1.327 . S
C217 C223 1.429 . S
C218 C210 1.574 . S
C218 H213 0.949 . S
C218 C224 1.368 . S
C219 C203 1.349 . S
C219 H211 0.950 . S
C219 C217 1.327 . S
C220 C208 1.349 . S
C220 H214 0.950 . S
C220 C221 1.327 . S
C221 H215 0.950 . S
C221 C220 1.327 . S
C221 C225 1.429 . S
C222 C205 1.574 . S
C222 H216 0.949 . S
C222 C226 1.368 . S
C223 C204 1.429 . S
C223 C217 1.429 . S
C223 C224 1.523 . S
C224 C205 1.368 . S
C224 C218 1.368 . S
C224 C223 1.523 . S
C225 C209 1.429 . S
C225 C221 1.429 . S
C225 C226 1.523 . S
C226 C210 1.368 . S
C226 C222 1.368 . S
C226 C225 1.523 . S
H227 C202 0.950 . S
H228 C204 0.950 . S
H229 C205 0.949 . S
H230 C207 0.950 . S
H231 C209 0.950 . S
C232 C233 1.349 . S
C232 C234 1.327 . S
C232 H257 0.950 . S
C233 C232 1.349 . S
C233 C249 1.349 . S
C234 C232 1.327 . S
C234 C253 1.429 . S
C234 H258 0.950 . S
C235 C252 1.574 . S
C235 C254 1.368 . S
C235 H259 0.949 . S
H236 C240 0.949 . S
C237 C238 1.349 . S
C237 C239 1.327 . S
C237 H260 0.950 . S
C238 C237 1.349 . S
C238 C250 1.349 . S
C239 C237 1.327 . S
C239 C255 1.429 . S
C239 H261 0.950 . S
C240 H236 0.949 . S
C240 C248 1.574 . S
C240 C256 1.368 . S
H241 C249 0.950 . S
H242 C247 0.950 . S
H243 C248 0.949 . S
H244 C250 0.950 . S
H245 C251 0.950 . S
H246 C252 0.949 . S
C247 H242 0.950 . S
C247 C249 1.327 . S
C247 C253 1.429 . S
C248 C240 1.574 . S
C248 H243 0.949 . S
C248 C254 1.368 . S
C249 C233 1.349 . S
C249 H241 0.950 . S
C249 C247 1.327 . S
C250 C238 1.349 . S
C250 H244 0.950 . S
C250 C251 1.327 . S
C251 H245 0.950 . S
C251 C250 1.327 . S
C251 C255 1.429 . S
C252 C235 1.574 . S
C252 H246 0.949 . S
C252 C256 1.368 . S
C253 C234 1.429 . S
C253 C247 1.429 . S
C253 C254 1.523 . S
C254 C235 1.368 . S
C254 C248 1.368 . S
C254 C253 1.523 . S
C255 C239 1.429 . S
C255 C251 1.429 . S
C255 C256 1.523 . S
C256 C240 1.368 . S
C256 C252 1.368 . S
C256 C255 1.523 . S
H257 C232 0.950 . S
H258 C234 0.950 . S
H259 C235 0.949 . S
H260 C237 0.950 . S
H261 C239 0.950 . S
C262 C263 1.349 . S
C262 C264 1.327 . S
C262 H287 0.950 . S
C263 C262 1.349 . S
C263 C279 1.349 . S
C264 C262 1.327 . S
C264 C283 1.429 . S
C264 H288 0.950 . S
C265 C282 1.574 . S
C265 C284 1.368 . S
C265 H289 0.949 . S
H266 C270 0.949 . S
C267 C268 1.349 . S
C267 C269 1.327 . S
C267 H290 0.950 . S
C268 C267 1.349 . S
C268 C280 1.349 . S
C269 C267 1.327 . S
C269 C285 1.429 . S
C269 H291 0.950 . S
C270 H266 0.949 . S
C270 C278 1.574 . S
C270 C286 1.368 . S
H271 C279 0.950 . S
H272 C277 0.950 . S
H273 C278 0.949 . S
H274 C280 0.950 . S
H275 C281 0.950 . S
H276 C282 0.949 . S
C277 H272 0.950 . S
C277 C279 1.327 . S
C277 C283 1.429 . S
C278 C270 1.574 . S
C278 H273 0.949 . S
C278 C284 1.368 . S
C279 C263 1.349 . S
C279 H271 0.950 . S
C279 C277 1.327 . S
C280 C268 1.349 . S
C280 H274 0.950 . S
C280 C281 1.327 . S
C281 H275 0.950 . S
C281 C280 1.327 . S
C281 C285 1.429 . S
C282 C265 1.574 . S
C282 H276 0.949 . S
C282 C286 1.368 . S
C283 C264 1.429 . S
C283 C277 1.429 . S
C283 C284 1.523 . S
C284 C265 1.368 . S
C284 C278 1.368 . S
C284 C283 1.523 . S
C285 C269 1.429 . S
C285 C281 1.429 . S
C285 C286 1.523 . S
C286 C270 1.368 . S
C286 C282 1.368 . S
C286 C285 1.523 . S
H287 C262 0.950 . S
H288 C264 0.950 . S
H289 C265 0.949 . S
H290 C267 0.950 . S
H291 C269 0.950 . S
C292 C293 1.349 . S
C292 C294 1.327 . S
C292 H317 0.950 . S
C293 C292 1.349 . S
C293 C309 1.349 . S
C294 C292 1.327 . S
C294 C313 1.429 . S
C294 H318 0.950 . S
C295 C312 1.574 . S
C295 C314 1.368 . S
C295 H319 0.949 . S
H296 C300 0.949 . S
C297 C298 1.349 . S
C297 C299 1.327 . S
C297 H320 0.950 . S
C298 C297 1.349 . S
C298 C310 1.349 . S
C299 C297 1.327 . S
C299 C315 1.429 . S
C299 H321 0.950 . S
C300 H296 0.949 . S
C300 C308 1.574 . S
C300 C316 1.368 . S
H301 C309 0.950 . S
H302 C307 0.950 . S
H303 C308 0.949 . S
H304 C310 0.950 . S
H305 C311 0.950 . S
H306 C312 0.949 . S
C307 H302 0.950 . S
C307 C309 1.327 . S
C307 C313 1.429 . S
C308 C300 1.574 . S
C308 H303 0.949 . S
C308 C314 1.368 . S
C309 C293 1.349 . S
C309 H301 0.950 . S
C309 C307 1.327 . S
C310 C298 1.349 . S
C310 H304 0.950 . S
C310 C311 1.327 . S
C311 H305 0.950 . S
C311 C310 1.327 . S
C311 C315 1.429 . S
C312 C295 1.574 . S
C312 H306 0.949 . S
C312 C316 1.368 . S
C313 C294 1.429 . S
C313 C307 1.429 . S
C313 C314 1.523 . S
C314 C295 1.368 . S
C314 C308 1.368 . S
C314 C313 1.523 . S
C315 C299 1.429 . S
C315 C311 1.429 . S
C315 C316 1.523 . S
C316 C300 1.368 . S
C316 C312 1.368 . S
C316 C315 1.523 . S
H317 C292 0.950 . S
H318 C294 0.950 . S
H319 C295 0.949 . S
H320 C297 0.950 . S
H321 C299 0.950 . S
C322 C323 1.349 . S
C322 C324 1.327 . S
C322 H347 0.950 . S
C323 C322 1.349 . S
C323 C339 1.349 . S
C324 C322 1.327 . S
C324 C343 1.429 . S
C324 H348 0.950 . S
C325 C342 1.574 . S
C325 C344 1.368 . S
C325 H349 0.949 . S
H326 C330 0.949 . S
C327 C328 1.349 . S
C327 C329 1.327 . S
C327 H350 0.950 . S
C328 C327 1.349 . S
C328 C340 1.349 . S
C329 C327 1.327 . S
C329 C345 1.429 . S
C329 H351 0.950 . S
C330 H326 0.949 . S
C330 C338 1.574 . S
C330 C346 1.368 . S
H331 C339 0.950 . S
H332 C337 0.950 . S
H333 C338 0.949 . S
H334 C340 0.950 . S
H335 C341 0.950 . S
H336 C342 0.949 . S
C337 H332 0.950 . S
C337 C339 1.327 . S
C337 C343 1.429 . S
C338 C330 1.574 . S
C338 H333 0.949 . S
C338 C344 1.368 . S
C339 C323 1.349 . S
C339 H331 0.950 . S
C339 C337 1.327 . S
C340 C328 1.349 . S
C340 H334 0.950 . S
C340 C341 1.327 . S
C341 H335 0.950 . S
C341 C340 1.327 . S
C341 C345 1.429 . S
C342 C325 1.574 . S
C342 H336 0.949 . S
C342 C346 1.368 . S
C343 C324 1.429 . S
C343 C337 1.429 . S
C343 C344 1.523 . S
C344 C325 1.368 . S
C344 C338 1.368 . S
C344 C343 1.523 . S
C345 C329 1.429 . S
C345 C341 1.429 . S
C345 C346 1.523 . S
C346 C330 1.368 . S
C346 C342 1.368 . S
C346 C345 1.523 . S
H347 C322 0.950 . S
H348 C324 0.950 . S
H349 C325 0.949 . S
H350 C327 0.950 . S
H351 C329 0.950 . S
C352 C353 1.349 . S
C352 C354 1.327 . S
C352 H377 0.950 . S
C353 C352 1.349 . S
C353 C369 1.349 . S
C354 C352 1.327 . S
C354 C373 1.429 . S
C354 H378 0.950 . S
C355 C372 1.574 . S
C355 C374 1.368 . S
C355 H379 0.949 . S
H356 C360 0.949 . S
C357 C358 1.349 . S
C357 C359 1.327 . S
C357 H380 0.950 . S
C358 C357 1.349 . S
C358 C370 1.349 . S
C359 C357 1.327 . S
C359 C375 1.429 . S
C359 H381 0.950 . S
C360 H356 0.949 . S
C360 C368 1.574 . S
C360 C376 1.368 . S
H361 C369 0.950 . S
H362 C367 0.950 . S
H363 C368 0.949 . S
H364 C370 0.950 . S
H365 C371 0.950 . S
H366 C372 0.949 . S
C367 H362 0.950 . S
C367 C369 1.327 . S
C367 C373 1.429 . S
C368 C360 1.574 . S
C368 H363 0.949 . S
C368 C374 1.368 1_655 S
C369 C353 1.349 . S
C369 H361 0.950 . S
C369 C367 1.327 . S
C370 C358 1.349 . S
C370 H364 0.950 . S
C370 C371 1.327 . S
C371 H365 0.950 . S
C371 C370 1.327 . S
C371 C375 1.429 . S
C372 C355 1.574 . S
C372 H366 0.949 . S
C372 C376 1.368 1_455 S
C373 C354 1.429 . S
C373 C367 1.429 . S
C373 C374 1.523 . S
C374 C355 1.368 . S
C374 C368 1.368 1_455 S
C374 C373 1.523 . S
C375 C359 1.429 . S
C375 C371 1.429 . S
C375 C376 1.523 . S
C376 C360 1.368 . S
C376 C372 1.368 1_655 S
C376 C375 1.523 . S
H377 C352 0.950 . S
H378 C354 0.950 . S
H379 C355 0.949 . S
H380 C357 0.950 . S
H381 C359 0.950 . S
C382 C383 1.349 . S
C382 C384 1.327 . S
C382 H407 0.950 . S
C383 C382 1.349 . S
C383 C399 1.349 . S
C384 C382 1.327 . S
C384 C403 1.429 . S
C384 H408 0.950 . S
C385 C402 1.574 . S
C385 C404 1.368 . S
C385 H409 0.949 . S
H386 C390 0.949 . S
C387 C388 1.349 . S
C387 C389 1.327 . S
C387 H410 0.950 . S
C388 C387 1.349 . S
C388 C400 1.349 . S
C389 C387 1.327 . S
C389 C405 1.429 . S
C389 H411 0.950 . S
C390 H386 0.949 . S
C390 C398 1.574 . S
C390 C406 1.368 . S
H391 C399 0.950 . S
H392 C397 0.950 . S
H393 C398 0.949 . S
H394 C400 0.950 . S
H395 C401 0.950 . S
H396 C402 0.949 . S
C397 H392 0.950 . S
C397 C399 1.327 . S
C397 C403 1.429 . S
C398 C390 1.574 . S
C398 H393 0.949 . S
C398 C404 1.368 . S
C399 C383 1.349 . S
C399 H391 0.950 . S
C399 C397 1.327 . S
C400 C388 1.349 . S
C400 H394 0.950 . S
C400 C401 1.327 . S
C401 H395 0.950 . S
C401 C400 1.327 . S
C401 C405 1.429 . S
C402 C385 1.574 . S
C402 H396 0.949 . S
C402 C406 1.368 . S
C403 C384 1.429 . S
C403 C397 1.429 . S
C403 C404 1.523 . S
C404 C385 1.368 . S
C404 C398 1.368 . S
C404 C403 1.523 . S
C405 C389 1.429 . S
C405 C401 1.429 . S
C405 C406 1.523 . S
C406 C390 1.368 . S
C406 C402 1.368 . S
C406 C405 1.523 . S
H407 C382 0.950 . S
H408 C384 0.950 . S
H409 C385 0.949 . S
H410 C387 0.950 . S
H411 C389 0.950 . S
C412 C413 1.349 . S
C412 C414 1.327 . S
C412 H437 0.950 . S
C413 C412 1.349 . S
C413 C429 1.349 . S
C414 C412 1.327 . S
C414 C433 1.429 . S
C414 H438 0.950 . S
C415 C432 1.574 . S
C415 C434 1.368 . S
C415 H439 0.949 . S
H416 C420 0.949 . S
C417 C418 1.349 . S
C417 C419 1.327 . S
C417 H440 0.950 . S
C418 C417 1.349 . S
C418 C430 1.349 . S
C419 C417 1.327 . S
C419 C435 1.429 . S
C419 H441 0.950 . S
C420 H416 0.949 . S
C420 C428 1.574 . S
C420 C436 1.368 . S
H421 C429 0.950 . S
H422 C427 0.950 . S
H423 C428 0.949 . S
H424 C430 0.950 . S
H425 C431 0.950 . S
H426 C432 0.949 . S
C427 H422 0.950 . S
C427 C429 1.327 . S
C427 C433 1.429 . S
C428 C420 1.574 . S
C428 H423 0.949 . S
C428 C434 1.368 1_655 S
C429 C413 1.349 . S
C429 H421 0.950 . S
C429 C427 1.327 . S
C430 C418 1.349 . S
C430 H424 0.950 . S
C430 C431 1.327 . S
C431 H425 0.950 . S
C431 C430 1.327 . S
C431 C435 1.429 . S
C432 C415 1.574 . S
C432 H426 0.949 . S
C432 C436 1.368 1_455 S
C433 C414 1.429 . S
C433 C427 1.429 . S
C433 C434 1.523 . S
C434 C415 1.368 . S
C434 C428 1.368 1_455 S
C434 C433 1.523 . S
C435 C419 1.429 . S
C435 C431 1.429 . S
C435 C436 1.523 . S
C436 C420 1.368 . S
C436 C432 1.368 1_655 S
C436 C435 1.523 . S
H437 C412 0.950 . S
H438 C414 0.950 . S
H439 C415 0.949 . S
H440 C417 0.950 . S
H441 C419 0.950 . S
C442 C443 1.349 . S
C442 C444 1.327 . S
C442 H467 0.950 . S
C443 C442 1.349 . S
C443 C459 1.349 . S
C444 C442 1.327 . S
C444 C463 1.429 . S
C444 H468 0.950 . S
C445 C462 1.574 . S
C445 C464 1.368 . S
C445 H469 0.949 . S
H446 C450 0.949 . S
C447 C448 1.349 . S
C447 C449 1.327 . S
C447 H470 0.950 . S
C448 C447 1.349 . S
C448 C460 1.349 . S
C449 C447 1.327 . S
C449 C465 1.429 . S
C449 H471 0.950 . S
C450 H446 0.949 . S
C450 C458 1.574 . S
C450 C466 1.368 . S
H451 C459 0.950 . S
H452 C457 0.950 . S
H453 C458 0.949 . S
H454 C460 0.950 . S
H455 C461 0.950 . S
H456 C462 0.949 . S
C457 H452 0.950 . S
C457 C459 1.327 . S
C457 C463 1.429 . S
C458 C450 1.574 . S
C458 H453 0.949 . S
C458 C464 1.368 . S
C459 C443 1.349 . S
C459 H451 0.950 . S
C459 C457 1.327 . S
C460 C448 1.349 . S
C460 H454 0.950 . S
C460 C461 1.327 . S
C461 H455 0.950 . S
C461 C460 1.327 . S
C461 C465 1.429 . S
C462 C445 1.574 . S
C462 H456 0.949 . S
C462 C466 1.368 . S
C463 C444 1.429 . S
C463 C457 1.429 . S
C463 C464 1.523 . S
C464 C445 1.368 . S
C464 C458 1.368 . S
C464 C463 1.523 . S
C465 C449 1.429 . S
C465 C461 1.429 . S
C465 C466 1.523 . S
C466 C450 1.368 . S
C466 C462 1.368 . S
C466 C465 1.523 . S
H467 C442 0.950 . S
H468 C444 0.950 . S
H469 C445 0.949 . S
H470 C447 0.950 . S
H471 C449 0.950 . S
C472 C473 1.349 . S
C472 C474 1.327 . S
C472 H497 0.950 . S
C473 C472 1.349 . S
C473 C489 1.349 1_554 S
C474 C472 1.327 . S
C474 C493 1.429 . S
C474 H498 0.950 . S
C475 C492 1.574 1_545 S
C475 C494 1.368 1_556 S
C475 H499 0.949 . S
H476 C480 0.949 . S
C477 C478 1.349 . S
C477 C479 1.327 . S
C477 H500 0.950 . S
C478 C477 1.349 . S
C478 C490 1.349 1_556 S
C479 C477 1.327 . S
C479 C495 1.429 . S
C479 H501 0.950 . S
C480 H476 0.949 . S
C480 C488 1.574 1_565 S
C480 C496 1.368 1_554 S
H481 C489 0.950 . S
H482 C487 0.950 . S
H483 C488 0.949 . S
H484 C490 0.950 . S
H485 C491 0.950 . S
H486 C492 0.949 . S
C487 H482 0.950 . S
C487 C489 1.327 . S
C487 C493 1.429 1_556 S
C488 C480 1.574 1_545 S
C488 H483 0.949 . S
C488 C494 1.368 1_655 S
C489 C473 1.349 1_556 S
C489 H481 0.950 . S
C489 C487 1.327 . S
C490 C478 1.349 1_554 S
C490 H484 0.950 . S
C490 C491 1.327 . S
C491 H485 0.950 . S
C491 C490 1.327 . S
C491 C495 1.429 1_554 S
C492 C475 1.574 1_565 S
C492 H486 0.949 . S
C492 C496 1.368 1_455 S
C493 C474 1.429 . S
C493 C487 1.429 1_554 S
C493 C494 1.523 . S
C494 C475 1.368 1_554 S
C494 C488 1.368 1_455 S
C494 C493 1.523 . S
C495 C479 1.429 . S
C495 C491 1.429 1_556 S
C495 C496 1.523 . S
C496 C480 1.368 1_556 S
C496 C492 1.368 1_655 S
C496 C495 1.523 . S
H497 C472 0.950 . S
H498 C474 0.950 . S
H499 C475 0.949 . S
H500 C477 0.950 . S
H501 C479 0.950 . S
C502 C503 1.349 . S
C502 C504 1.327 . S
C502 H527 0.950 . S
C503 C502 1.349 . S
C503 C519 1.349 . S
C504 C502 1.327 . S
C504 C523 1.429 . S
C504 H528 0.950 . S
C505 C522 1.574 . S
C505 C524 1.368 . S
C505 H529 0.949 . S
H506 C510 0.949 . S
C507 C508 1.349 . S
C507 C509 1.327 . S
C507 H530 0.950 . S
C508 C507 1.349 . S
C508 C520 1.349 . S
C509 C507 1.327 . S
C509 C525 1.429 . S
C509 H531 0.950 . S
C510 H506 0.949 . S
C510 C518 1.574 . S
C510 C526 1.368 . S
H511 C519 0.950 . S
H512 C517 0.950 . S
H513 C518 0.949 . S
H514 C520 0.950 . S
H515 C521 0.950 . S
H516 C522 0.949 . S
C517 H512 0.950 . S
C517 C519 1.327 . S
C517 C523 1.429 . S
C518 C510 1.574 . S
C518 H513 0.949 . S
C518 C524 1.368 . S
C519 C503 1.349 . S
C519 H511 0.950 . S
C519 C517 1.327 . S
C520 C508 1.349 . S
C520 H514 0.950 . S
C520 C521 1.327 . S
C521 H515 0.950 . S
C521 C520 1.327 . S
C521 C525 1.429 . S
C522 C505 1.574 . S
C522 H516 0.949 . S
C522 C526 1.368 . S
C523 C504 1.429 . S
C523 C517 1.429 . S
C523 C524 1.523 . S
C524 C505 1.368 . S
C524 C518 1.368 . S
C524 C523 1.523 . S
C525 C509 1.429 . S
C525 C521 1.429 . S
C525 C526 1.523 . S
C526 C510 1.368 . S
C526 C522 1.368 . S
C526 C525 1.523 . S
H527 C502 0.950 . S
H528 C504 0.950 . S
H529 C505 0.949 . S
H530 C507 0.950 . S
H531 C509 0.950 . S
C532 C533 1.349 . S
C532 C534 1.327 . S
C532 H557 0.950 . S
C533 C532 1.349 . S
C533 C549 1.349 1_554 S
C534 C532 1.327 . S
C534 C553 1.429 . S
C534 H558 0.950 . S
C535 C552 1.574 . S
C535 C554 1.368 1_556 S
C535 H559 0.949 . S
H536 C540 0.949 . S
C537 C538 1.349 . S
C537 C539 1.327 . S
C537 H560 0.950 . S
C538 C537 1.349 . S
C538 C550 1.349 1_556 S
C539 C537 1.327 . S
C539 C555 1.429 . S
C539 H561 0.950 . S
C540 H536 0.949 . S
C540 C548 1.574 . S
C540 C556 1.368 1_554 S
H541 C549 0.950 . S
H542 C547 0.950 . S
H543 C548 0.949 . S
H544 C550 0.950 . S
H545 C551 0.950 . S
H546 C552 0.949 . S
C547 H542 0.950 . S
C547 C549 1.327 . S
C547 C553 1.429 1_556 S
C548 C540 1.574 . S
C548 H543 0.949 . S
C548 C554 1.368 . S
C549 C533 1.349 1_556 S
C549 H541 0.950 . S
C549 C547 1.327 . S
C550 C538 1.349 1_554 S
C550 H544 0.950 . S
C550 C551 1.327 . S
C551 H545 0.950 . S
C551 C550 1.327 . S
C551 C555 1.429 1_554 S
C552 C535 1.574 . S
C552 H546 0.949 . S
C552 C556 1.368 . S
C553 C534 1.429 . S
C553 C547 1.429 1_554 S
C553 C554 1.523 . S
C554 C535 1.368 1_554 S
C554 C548 1.368 . S
C554 C553 1.523 . S
C555 C539 1.429 . S
C555 C551 1.429 1_556 S
C555 C556 1.523 . S
C556 C540 1.368 1_556 S
C556 C552 1.368 . S
C556 C555 1.523 . S
H557 C532 0.950 . S
H558 C534 0.950 . S
H559 C535 0.949 . S
H560 C537 0.950 . S
H561 C539 0.950 . S
C562 C563 1.349 . S
C562 C564 1.327 . S
C562 H587 0.950 . S
C563 C562 1.349 . S
C563 C579 1.349 . S
C564 C562 1.327 . S
C564 C583 1.429 . S
C564 H588 0.950 . S
C565 C582 1.574 1_565 S
C565 C584 1.368 1_655 S
C565 H589 0.949 . S
H566 C570 0.949 . S
C567 C568 1.349 . S
C567 C569 1.327 . S
C567 H590 0.950 . S
C568 C567 1.349 . S
C568 C580 1.349 . S
C569 C567 1.327 . S
C569 C585 1.429 . S
C569 H591 0.950 . S
C570 H566 0.949 . S
C570 C578 1.574 1_545 S
C570 C586 1.368 1_455 S
H571 C579 0.950 . S
H572 C577 0.950 . S
H573 C578 0.949 . S
H574 C580 0.950 . S
H575 C581 0.950 . S
H576 C582 0.949 . S
C577 H572 0.950 . S
C577 C579 1.327 . S
C577 C583 1.429 . S
C578 C570 1.574 1_565 S
C578 H573 0.949 . S
C578 C584 1.368 . S
C579 C563 1.349 . S
C579 H571 0.950 . S
C579 C577 1.327 . S
C580 C568 1.349 . S
C580 H574 0.950 . S
C580 C581 1.327 . S
C581 H575 0.950 . S
C581 C580 1.327 . S
C581 C585 1.429 . S
C582 C565 1.574 1_545 S
C582 H576 0.949 . S
C582 C586 1.368 . S
C583 C564 1.429 . S
C583 C577 1.429 . S
C583 C584 1.523 . S
C584 C565 1.368 1_455 S
C584 C578 1.368 . S
C584 C583 1.523 . S
C585 C569 1.429 . S
C585 C581 1.429 . S
C585 C586 1.523 . S
C586 C570 1.368 1_655 S
C586 C582 1.368 . S
C586 C585 1.523 . S
H587 C562 0.950 . S
H588 C564 0.950 . S
H589 C565 0.949 . S
H590 C567 0.950 . S
H591 C569 0.950 . S
C113 C22 1.662 . S
C118 C6 1.669 . S
C143 C8 1.662 . S
C148 C20 1.669 . S
C173 C50 1.662 . S
C178 C34 1.669 . S
C203 C36 1.662 . S
C208 C48 1.669 . S
C233 C62 1.669 . S
C238 C78 1.662 . S
C263 C76 1.669 . S
C268 C64 1.662 . S
C293 C90 1.669 . S
C298 C106 1.662 . S
C323 C92 1.662 . S
C328 C104 1.669 . S
C353 C9 0.475 . S
C358 C51 0.475 . S
C383 C23 0.475 . S
C388 C37 0.475 . S
C413 C107 0.475 . S
C418 C65 0.475 . S
C443 C93 0.475 . S
C448 C79 0.475 . S
C473 C7 1.505 . S
C478 C63 1.505 . S
C503 C77 1.505 . S
C508 C21 1.505 . S
C533 C91 1.505 . S
C538 C35 1.505 . S
C563 C105 1.505 . S
C568 C49 1.505 . S
