# Generated by pormake.
# Topology ure, (4)-cn, num edge types: 1
# Building blocks:
#     Node 0, Type 0, BuildingBlock: GALJAG_clean_sbu_0, # of connection points: 4
#     Node 1, Type 0, BuildingBlock: GALJAG_clean_sbu_0, # of connection points: 4
#     Node 2, Type 0, BuildingBlock: GALJAG_clean_sbu_0, # of connection points: 4
#     Node 3, Type 0, BuildingBlock: GALJAG_clean_sbu_0, # of connection points: 4
#     Node 4, Type 0, BuildingBlock: GALJAG_clean_sbu_0, # of connection points: 4
#     Node 5, Type 0, BuildingBlock: GALJAG_clean_sbu_0, # of connection points: 4
#     Node 6, Type 0, BuildingBlock: GALJAG_clean_sbu_0, # of connection points: 4
#     Node 7, Type 0, BuildingBlock: GALJAG_clean_sbu_0, # of connection points: 4
#     Node 8, Type 0, BuildingBlock: GALJAG_clean_sbu_0, # of connection points: 4
#     Node 9, Type 0, BuildingBlock: GALJAG_clean_sbu_0, # of connection points: 4
#     Node 10, Type 0, BuildingBlock: GALJAG_clean_sbu_0, # of connection points: 4
#     Node 11, Type 0, BuildingBlock: GALJAG_clean_sbu_0, # of connection points: 4
#     Node 12, Type 0, BuildingBlock: GALJAG_clean_sbu_0, # of connection points: 4
#     Node 13, Type 0, BuildingBlock: GALJAG_clean_sbu_0, # of connection points: 4
#     Node 14, Type 0, BuildingBlock: GALJAG_clean_sbu_0, # of connection points: 4
#     Node 15, Type 0, BuildingBlock: GALJAG_clean_sbu_0, # of connection points: 4
#     Edge 16, Type (0, 0), BuildingBlock: UVAHIK_clean_linker_0, # of connection points: 2
#     Edge 17, Type (0, 0), BuildingBlock: UVAHIK_clean_linker_0, # of connection points: 2
#     Edge 18, Type (0, 0), BuildingBlock: UVAHIK_clean_linker_0, # of connection points: 2
#     Edge 19, Type (0, 0), BuildingBlock: UVAHIK_clean_linker_0, # of connection points: 2
#     Edge 20, Type (0, 0), BuildingBlock: UVAHIK_clean_linker_0, # of connection points: 2
#     Edge 21, Type (0, 0), BuildingBlock: UVAHIK_clean_linker_0, # of connection points: 2
#     Edge 22, Type (0, 0), BuildingBlock: UVAHIK_clean_linker_0, # of connection points: 2
#     Edge 23, Type (0, 0), BuildingBlock: UVAHIK_clean_linker_0, # of connection points: 2
#     Edge 24, Type (0, 0), BuildingBlock: UVAHIK_clean_linker_0, # of connection points: 2
#     Edge 25, Type (0, 0), BuildingBlock: UVAHIK_clean_linker_0, # of connection points: 2
#     Edge 26, Type (0, 0), BuildingBlock: UVAHIK_clean_linker_0, # of connection points: 2
#     Edge 27, Type (0, 0), BuildingBlock: UVAHIK_clean_linker_0, # of connection points: 2
#     Edge 28, Type (0, 0), BuildingBlock: UVAHIK_clean_linker_0, # of connection points: 2
#     Edge 29, Type (0, 0), BuildingBlock: UVAHIK_clean_linker_0, # of connection points: 2
#     Edge 30, Type (0, 0), BuildingBlock: UVAHIK_clean_linker_0, # of connection points: 2
#     Edge 31, Type (0, 0), BuildingBlock: UVAHIK_clean_linker_0, # of connection points: 2
#     Edge 32, Type (0, 0), BuildingBlock: UVAHIK_clean_linker_0, # of connection points: 2
#     Edge 33, Type (0, 0), BuildingBlock: UVAHIK_clean_linker_0, # of connection points: 2
#     Edge 34, Type (0, 0), BuildingBlock: UVAHIK_clean_linker_0, # of connection points: 2
#     Edge 35, Type (0, 0), BuildingBlock: UVAHIK_clean_linker_0, # of connection points: 2
#     Edge 36, Type (0, 0), BuildingBlock: UVAHIK_clean_linker_0, # of connection points: 2
#     Edge 37, Type (0, 0), BuildingBlock: UVAHIK_clean_linker_0, # of connection points: 2
#     Edge 38, Type (0, 0), BuildingBlock: UVAHIK_clean_linker_0, # of connection points: 2
#     Edge 39, Type (0, 0), BuildingBlock: UVAHIK_clean_linker_0, # of connection points: 2
#     Edge 40, Type (0, 0), BuildingBlock: UVAHIK_clean_linker_0, # of connection points: 2
#     Edge 41, Type (0, 0), BuildingBlock: UVAHIK_clean_linker_0, # of connection points: 2
#     Edge 42, Type (0, 0), BuildingBlock: UVAHIK_clean_linker_0, # of connection points: 2
#     Edge 43, Type (0, 0), BuildingBlock: UVAHIK_clean_linker_0, # of connection points: 2
#     Edge 44, Type (0, 0), BuildingBlock: UVAHIK_clean_linker_0, # of connection points: 2
#     Edge 45, Type (0, 0), BuildingBlock: UVAHIK_clean_linker_0, # of connection points: 2
#     Edge 46, Type (0, 0), BuildingBlock: UVAHIK_clean_linker_0, # of connection points: 2
#     Edge 47, Type (0, 0), BuildingBlock: UVAHIK_clean_linker_0, # of connection points: 2
# Relax obj value: 0.290
# Max RMSD: 0.221
# Mean RMSD: 0.173
data_MOF--net-ure--node1-GALJAG_clean_sbu_0--edge1-UVAHIK_clean_linker_0
_symmetry_space_group_name_H-M    P1
_symmetry_Int_Tables_number       1
_symmetry_cell_setting            triclinic
loop_
_symmetry_equiv_pos_as_xyz
'x, y, z'
_cell_length_a     35.582873
_cell_length_b     41.763863
_cell_length_c     41.686576
_cell_angle_alpha  100.28062
_cell_angle_beta   96.141703
_cell_angle_gamma 96.105653
loop_
_atom_site_label
_atom_site_type_symbol
_atom_site_fract_x
_atom_site_fract_y
_atom_site_fract_z
_atom_type_partial_charge
In0 In 0.33175 0.32738 0.27098 0.0
O1 O 0.29226 0.27873 0.26002 0.0
O2 O 0.28805 0.3099 0.22517 0.0
C3 C 0.34626 0.33185 0.33688 0.0
C4 C 0.39555 0.30763 0.2485 0.0
C5 C 0.3143 0.38689 0.26253 0.0
O6 O 0.31469 0.31885 0.32058 0.0
O7 O 0.37008 0.34303 0.32009 0.0
O8 O 0.33764 0.37182 0.24694 0.0
O9 O 0.29875 0.37161 0.28225 0.0
C10 C 0.27675 0.28288 0.23267 0.0
O11 O 0.39038 0.33735 0.25488 0.0
O12 O 0.36858 0.28778 0.2535 0.0
In13 In 0.96429 0.99521 0.47882 0.0
O14 O 0.9883 0.01794 0.53212 0.0
O15 O 0.97046 0.96654 0.52028 0.0
C16 C 0.95421 0.05491 0.46529 0.0
C17 C 0.02203 0.96998 0.45098 0.0
C18 C 0.89461 0.96249 0.45533 0.0
O19 O 0.93936 0.04381 0.48787 0.0
O20 O 0.97477 0.03629 0.45013 0.0
O21 O 0.91837 0.97021 0.43679 0.0
O22 O 0.90613 0.97101 0.48565 0.0
C23 C 0.98431 0.99112 0.54216 0.0
O24 O 0.98818 0.95597 0.44459 0.0
O25 O 0.02681 0.99649 0.47173 0.0
In26 In 0.35454 0.77409 0.80562 0.0
O27 O 0.29259 0.75078 0.79142 0.0
O28 O 0.30328 0.79984 0.81803 0.0
C29 C 0.37485 0.71355 0.80351 0.0
C30 C 0.37098 0.79681 0.75121 0.0
C31 C 0.38415 0.80475 0.86739 0.0
O32 O 0.34544 0.72236 0.81522 0.0
O33 O 0.39409 0.73528 0.79223 0.0
O34 O 0.3666 0.81936 0.84764 0.0
O35 O 0.38863 0.7758 0.85528 0.0
C36 C 0.27887 0.77601 0.804 0.0
O37 O 0.39193 0.8063 0.77844 0.0
O38 O 0.34324 0.77564 0.75163 0.0
In39 In 0.4788 0.97067 0.98122 0.0
O40 O 0.44388 0.97739 0.93386 0.0
O41 O 0.4545 0.01714 0.97489 0.0
C42 C 0.49761 0.90937 0.97297 0.0
C43 C 0.54804 0.00055 0.97672 0.0
C44 C 0.44176 0.96785 0.03379 0.0
O45 O 0.47132 0.91682 0.95367 0.0
O46 O 0.51365 0.93263 0.99536 0.0
O47 O 0.47295 0.98593 0.03515 0.0
O48 O 0.42807 0.95226 0.00536 0.0
C49 C 0.44093 0.00715 0.94511 0.0
O50 O 0.53486 0.00245 0.00392 0.0
O51 O 0.52623 0.98386 0.95223 0.0
In52 In 0.36765 0.79287 0.25916 0.0
O53 O 0.34023 0.74142 0.23313 0.0
O54 O 0.36005 0.74878 0.28412 0.0
C55 C 0.37474 0.8079 0.19956 0.0
C56 C 0.31562 0.82375 0.2906 0.0
C57 C 0.43941 0.81288 0.28892 0.0
O58 O 0.39206 0.78638 0.21033 0.0
O59 O 0.35299 0.8211 0.21841 0.0
O60 O 0.41806 0.83229 0.279 0.0
O61 O 0.42447 0.78337 0.28404 0.0
C62 C 0.34429 0.72903 0.25858 0.0
O63 O 0.35021 0.82706 0.30246 0.0
O64 O 0.30727 0.80455 0.26318 0.0
In65 In 0.4285 0.95906 0.41121 0.0
O66 O 0.39457 0.95658 0.45479 0.0
O67 O 0.42117 0.91526 0.43656 0.0
C68 C 0.44412 0.025 0.43025 0.0
C69 C 0.49983 0.94404 0.40734 0.0
C70 C 0.38338 0.94087 0.35249 0.0
O71 O 0.41522 0.00892 0.43757 0.0
O72 O 0.46469 0.0079 0.41328 0.0
O73 O 0.4001 0.92104 0.36646 0.0
O74 O 0.3872 0.96953 0.36918 0.0
C75 C 0.4022 0.9284 0.45793 0.0
O76 O 0.47766 0.9465 0.38241 0.0
O77 O 0.48625 0.94977 0.43425 0.0
In78 In 0.39094 0.31787 0.74292 0.0
O79 O 0.39069 0.26261 0.73821 0.0
O80 O 0.43036 0.29346 0.77554 0.0
C81 C 0.39724 0.32173 0.67977 0.0
C82 C 0.31659 0.31094 0.75169 0.0
C83 C 0.42272 0.37834 0.7754 0.0
O84 O 0.41628 0.30368 0.69471 0.0
O85 O 0.37534 0.33737 0.69665 0.0
O86 O 0.39365 0.36299 0.78298 0.0
O87 O 0.43747 0.36245 0.75238 0.0
C88 C 0.41608 0.26455 0.76224 0.0
O89 O 0.34316 0.31382 0.77494 0.0
O90 O 0.32744 0.31099 0.72388 0.0
In91 In 0.00566 0.97921 0.94605 0.0
O92 O 0.9508 0.9942 0.92297 0.0
O93 O 0.95801 0.99668 0.97457 0.0
C94 C 0.02152 0.9736 0.88342 0.0
C95 C 0.05542 0.02448 0.98914 0.0
C96 C 0.00277 0.91809 0.95938 0.0
O97 O 0.99611 0.95461 0.89192 0.0
O98 O 0.03973 0.99502 0.90667 0.0
O99 O 0.03108 0.93153 0.94863 0.0
O100 O 0.97656 0.93577 0.96415 0.0
C101 C 0.93714 0.0009 0.94966 0.0
O102 O 0.05223 0.99437 0.99048 0.0
O103 O 0.03432 0.03142 0.96579 0.0
In104 In 0.84055 0.26106 0.75752 0.0
O105 O 0.83756 0.30009 0.80305 0.0
O106 O 0.7862 0.28057 0.7717 0.0
C107 C 0.91616 0.2811 0.7683 0.0
C108 C 0.82946 0.19811 0.76643 0.0
C109 C 0.81836 0.26659 0.69492 0.0
O110 O 0.89569 0.28141 0.74178 0.0
O111 O 0.89842 0.27096 0.78999 0.0
O112 O 0.8171 0.23923 0.70392 0.0
O113 O 0.83008 0.29104 0.71757 0.0
C114 C 0.80206 0.30022 0.79725 0.0
O115 O 0.85815 0.20964 0.75494 0.0
O116 O 0.80614 0.2182 0.77329 0.0
In117 In 0.96581 0.50701 0.95755 0.0
O118 O 0.02184 0.49225 0.94159 0.0
O119 O 0.02167 0.51273 0.99193 0.0
C120 C 0.93368 0.48085 0.8953 0.0
C121 C 0.9339 0.47629 0.00207 0.0
C122 C 0.96582 0.57209 0.9601 0.0
O123 O 0.95894 0.46837 0.91072 0.0
O124 O 0.92302 0.50587 0.91185 0.0
O125 O 0.93791 0.5544 0.9671 0.0
O126 O 0.99309 0.55688 0.95178 0.0
C127 C 0.04056 0.50084 0.9698 0.0
O128 O 0.9444 0.50672 0.00744 0.0
O129 O 0.93754 0.46164 0.97365 0.0
In130 In 0.90598 0.83666 0.2933 0.0
O131 O 0.90338 0.78132 0.28825 0.0
O132 O 0.9428 0.81068 0.32672 0.0
C133 C 0.89591 0.82701 0.22682 0.0
C134 C 0.83752 0.8458 0.31337 0.0
C135 C 0.95104 0.89375 0.3195 0.0
O136 O 0.92742 0.82468 0.24283 0.0
O137 O 0.87012 0.83421 0.24431 0.0
O138 O 0.9294 0.87898 0.33569 0.0
O139 O 0.95191 0.87858 0.2906 0.0
C140 C 0.92793 0.78217 0.31259 0.0
O141 O 0.856 0.86607 0.30001 0.0
O142 O 0.85356 0.82087 0.31669 0.0
In143 In 0.96974 0.44873 0.4908 0.0
O144 O 0.02195 0.44377 0.46416 0.0
O145 O 0.03121 0.45895 0.51607 0.0
C146 C 0.9529 0.4488 0.55238 0.0
C147 C 0.95095 0.50177 0.4666 0.0
C148 C 0.93904 0.38749 0.45971 0.0
O149 O 0.97825 0.43328 0.54026 0.0
O150 O 0.93596 0.46475 0.53346 0.0
O151 O 0.96709 0.403 0.45076 0.0
O152 O 0.92489 0.4036 0.48295 0.0
C153 C 0.04571 0.45213 0.48976 0.0
O154 O 0.93439 0.47319 0.45472 0.0
O155 O 0.9755 0.50348 0.49113 0.0
In156 In 0.52318 0.52223 0.03516 0.0
O157 O 0.53496 0.48186 0.99446 0.0
O158 O 0.58251 0.51343 0.02236 0.0
C159 C 0.44651 0.51058 0.02679 0.0
C160 C 0.53954 0.50616 0.0946 0.0
C161 C 0.53111 0.58248 0.01954 0.0
O162 O 0.46659 0.49548 0.00748 0.0
O163 O 0.46514 0.53135 0.05037 0.0
O164 O 0.54109 0.57772 0.04811 0.0
O165 O 0.51773 0.55688 0.99888 0.0
C166 C 0.57065 0.4894 0.99926 0.0
O167 O 0.55021 0.53419 0.08889 0.0
O168 O 0.52114 0.48625 0.07026 0.0
In169 In 0.81168 0.80134 0.81252 0.0
O170 O 0.87293 0.82532 0.81679 0.0
O171 O 0.85563 0.78258 0.78007 0.0
C172 C 0.79417 0.8612 0.80503 0.0
C173 C 0.76269 0.75028 0.7761 0.0
C174 C 0.81785 0.79254 0.87551 0.0
O175 O 0.79982 0.83966 0.78128 0.0
O176 O 0.79586 0.85212 0.83239 0.0
O177 O 0.78799 0.80074 0.86164 0.0
O178 O 0.84367 0.78805 0.8574 0.0
C179 C 0.88219 0.80467 0.79407 0.0
O180 O 0.7929 0.74671 0.79302 0.0
O181 O 0.75625 0.77968 0.77835 0.0
In182 In 0.84377 0.25714 0.29395 0.0
O183 O 0.7905 0.22976 0.26075 0.0
O184 O 0.79353 0.28142 0.27676 0.0
C185 C 0.88306 0.20675 0.30148 0.0
C186 C 0.88239 0.29297 0.25752 0.0
C187 C 0.82417 0.26999 0.3551 0.0
O188 O 0.85193 0.20346 0.28284 0.0
O189 O 0.89556 0.23596 0.31536 0.0
O190 O 0.84946 0.28882 0.34594 0.0
O191 O 0.80934 0.24554 0.33354 0.0
C192 C 0.77447 0.25532 0.26044 0.0
O193 O 0.87632 0.30498 0.28629 0.0
O194 O 0.87104 0.26272 0.24828 0.0
In195 In 0.52107 0.43632 0.48078 0.0
O196 O 0.57062 0.45578 0.52222 0.0
O197 O 0.53527 0.48956 0.50684 0.0
C198 C 0.52548 0.37495 0.49231 0.0
C199 C 0.44726 0.44542 0.48136 0.0
C200 C 0.53945 0.44103 0.42029 0.0
O201 O 0.50148 0.39263 0.50333 0.0
O202 O 0.54874 0.38873 0.47663 0.0
O203 O 0.5146 0.41918 0.42514 0.0
O204 O 0.55568 0.46027 0.44605 0.0
C205 C 0.56319 0.48506 0.52609 0.0
O206 O 0.46197 0.43938 0.4551 0.0
O207 O 0.46989 0.44736 0.50724 0.0
C208 C 0.24383 0.22524 0.21667 0.0
C209 C 0.25031 0.25697 0.20984 0.0
C210 C 0.22206 0.19986 0.19349 0.0
C211 C 0.18973 0.17681 0.10409 0.0
H212 H 0.12198 0.10906 0.12904 0.0
C213 C 0.08423 0.08273 0.00952 0.0
C214 C 0.08021 0.04999 0.01382 0.0
C215 C 0.10578 0.10736 0.03355 0.0
C216 C 0.14113 0.12761 0.12175 0.0
H217 H 0.23779 0.28734 0.17397 0.0
H218 H 0.19906 0.24335 0.13388 0.0
H219 H 0.15609 0.15388 0.1713 0.0
H220 H 0.09592 0.01728 0.0465 0.0
H221 H 0.13371 0.06047 0.08864 0.0
H222 H 0.17444 0.15074 0.05453 0.0
C223 C 0.21154 0.23779 0.15678 0.0
C224 C 0.16067 0.15332 0.14596 0.0
C225 C 0.23347 0.26309 0.17987 0.0
C226 C 0.09858 0.0423 0.0425 0.0
C227 C 0.11996 0.06704 0.06671 0.0
C228 C 0.17007 0.15124 0.07992 0.0
C229 C 0.20615 0.2057 0.16302 0.0
C230 C 0.18511 0.17832 0.13741 0.0
C231 C 0.12364 0.09987 0.06254 0.0
C232 C 0.14545 0.12641 0.08844 0.0
H233 H 0.25659 0.21974 0.23952 0.0
H234 H 0.21881 0.17543 0.19904 0.0
H235 H 0.20895 0.1952 0.09665 0.0
H236 H 0.07032 0.08943 0.98771 0.0
H237 H 0.10773 0.13244 0.02975 0.0
C238 C 0.09126 0.97119 0.4455 0.0
C239 C 0.05346 0.9568 0.43488 0.0
C240 C 0.12104 0.95892 0.42998 0.0
C241 C 0.14201 0.91267 0.35244 0.0
H242 H 0.23022 0.89259 0.40469 0.0
C243 C 0.24839 0.8334 0.29485 0.0
C244 C 0.28716 0.8412 0.3072 0.0
C245 C 0.22121 0.84976 0.31043 0.0
C246 C 0.20612 0.89859 0.38975 0.0
H247 H 0.01701 0.9184 0.39983 0.0
H248 H 0.06905 0.89729 0.37238 0.0
H249 H 0.18003 0.91722 0.43202 0.0
H250 H 0.32816 0.87243 0.34518 0.0
H251 H 0.28067 0.90172 0.37203 0.0
H252 H 0.16799 0.89434 0.31017 0.0
C253 C 0.0756 0.91804 0.39266 0.0
C254 C 0.17737 0.91257 0.40542 0.0
C255 C 0.04588 0.93003 0.40844 0.0
C256 C 0.29838 0.86585 0.33526 0.0
C257 C 0.27117 0.88249 0.3507 0.0
C258 C 0.17089 0.89899 0.33678 0.0
C259 C 0.11342 0.93235 0.40335 0.0
C260 C 0.14484 0.91927 0.38687 0.0
C261 C 0.23225 0.87452 0.33849 0.0
C262 C 0.20299 0.8913 0.35524 0.0
H263 H 0.09786 0.99188 0.46584 0.0
H264 H 0.14997 0.97047 0.43853 0.0
H265 H 0.11745 0.91812 0.33763 0.0
H266 H 0.23896 0.81438 0.27331 0.0
H267 H 0.19144 0.84256 0.30074 0.0
C268 C 0.40921 0.8848 0.49117 0.0
C269 C 0.39432 0.91375 0.48665 0.0
C270 C 0.40641 0.87302 0.52024 0.0
C271 C 0.35341 0.87605 0.59123 0.0
H272 H 0.44418 0.84845 0.6328 0.0
C273 C 0.34868 0.8009 0.69362 0.0
C274 C 0.37627 0.81051 0.72143 0.0
C275 C 0.35159 0.81486 0.66588 0.0
C276 C 0.41873 0.85632 0.62161 0.0
H277 H 0.36362 0.95244 0.50851 0.0
H278 H 0.35819 0.93151 0.55927 0.0
H279 H 0.44664 0.86998 0.58211 0.0
H280 H 0.429 0.84186 0.74177 0.0
H281 H 0.43444 0.86613 0.6927 0.0
H282 H 0.32542 0.86218 0.63059 0.0
C283 C 0.37216 0.91804 0.54031 0.0
C284 C 0.42 0.86831 0.59245 0.0
C285 C 0.37523 0.93 0.51127 0.0
C286 C 0.40737 0.83397 0.72066 0.0
C287 C 0.41048 0.84779 0.69263 0.0
C288 C 0.35204 0.86378 0.62021 0.0
C289 C 0.38841 0.88979 0.54534 0.0
C290 C 0.38726 0.87804 0.57682 0.0
C291 C 0.38231 0.83862 0.66513 0.0
C292 C 0.38459 0.85351 0.63553 0.0
H293 H 0.4241 0.87172 0.47266 0.0
H294 H 0.41862 0.85088 0.52319 0.0
H295 H 0.32773 0.88327 0.5797 0.0
H296 H 0.32437 0.78284 0.69338 0.0
H297 H 0.32981 0.8069 0.64488 0.0
C298 C 0.43329 0.06407 0.93781 0.0
C299 C 0.42958 0.03043 0.92407 0.0
C300 C 0.43072 0.08728 0.91769 0.0
C301 C 0.39616 0.10305 0.83764 0.0
H302 H 0.48467 0.1693 0.85378 0.0
C303 C 0.40953 0.20383 0.75947 0.0
C304 C 0.42422 0.23562 0.77641 0.0
C305 C 0.41233 0.17681 0.77478 0.0
C306 C 0.45951 0.1513 0.84912 0.0
H307 H 0.41759 0.99463 0.87852 0.0
H308 H 0.41196 0.03553 0.8432 0.0
H309 H 0.48144 0.12627 0.88622 0.0
H310 H 0.45435 0.26398 0.82229 0.0
H311 H 0.45834 0.21729 0.84933 0.0
H312 H 0.37333 0.12872 0.80154 0.0
C313 C 0.41739 0.04372 0.86962 0.0
C314 C 0.45778 0.12656 0.86765 0.0
C315 C 0.42049 0.02037 0.88982 0.0
C316 C 0.44304 0.23974 0.8085 0.0
C317 C 0.44541 0.21282 0.82397 0.0
C318 C 0.39757 0.12816 0.8194 0.0
C319 C 0.42384 0.0774 0.8834 0.0
C320 C 0.42594 0.10245 0.86236 0.0
C321 C 0.42946 0.18103 0.80755 0.0
C322 C 0.42911 0.15287 0.82517 0.0
H323 H 0.44018 0.07268 0.9641 0.0
H324 H 0.4352 0.11309 0.92892 0.0
H325 H 0.37126 0.08475 0.83318 0.0
H326 H 0.39498 0.1999 0.73464 0.0
H327 H 0.40049 0.15269 0.76106 0.0
C328 C 0.74075 0.31908 0.8115 0.0
C329 C 0.78055 0.32166 0.81843 0.0
C330 C 0.72008 0.33928 0.83124 0.0
C331 C 0.72513 0.39047 0.9137 0.0
H332 H 0.63852 0.42428 0.87288 0.0
C333 C 0.6361 0.47939 0.9867 0.0
C334 C 0.59636 0.47176 0.97907 0.0
C335 C 0.66032 0.46276 0.96731 0.0
C336 C 0.66249 0.41484 0.88463 0.0
H337 H 0.83007 0.34748 0.85134 0.0
H338 H 0.7939 0.3832 0.88577 0.0
H339 H 0.67813 0.39266 0.83851 0.0
H340 H 0.55076 0.44081 0.94528 0.0
H341 H 0.59299 0.41182 0.91147 0.0
H342 H 0.70927 0.41271 0.95986 0.0
C343 C 0.77865 0.36523 0.86528 0.0
C344 C 0.68516 0.3967 0.86497 0.0
C345 C 0.79936 0.34489 0.84552 0.0
C346 C 0.58128 0.44724 0.95174 0.0
C347 C 0.60545 0.43079 0.93226 0.0
C348 C 0.70251 0.40878 0.93339 0.0
C349 C 0.73876 0.36265 0.85831 0.0
C350 C 0.71638 0.38386 0.87927 0.0
C351 C 0.6452 0.4384 0.93981 0.0
C352 C 0.67064 0.42072 0.91904 0.0
H353 H 0.72545 0.3013 0.79086 0.0
H354 H 0.68935 0.33623 0.82553 0.0
H355 H 0.74874 0.38065 0.92549 0.0
H356 H 0.6485 0.49822 0.00764 0.0
H357 H 0.69085 0.46928 0.97357 0.0
C358 C 0.91771 0.42418 0.02211 0.0
C359 C 0.92356 0.45864 0.02827 0.0
C360 C 0.9137 0.40728 0.04787 0.0
C361 C 0.89301 0.41573 0.13378 0.0
H362 H 0.95148 0.34258 0.13484 0.0
C363 C 0.90111 0.3477 0.24296 0.0
C364 C 0.89608 0.31328 0.23442 0.0
C365 C 0.90776 0.36675 0.2192 0.0
C366 C 0.93474 0.36278 0.13482 0.0
H367 H 0.92806 0.50243 0.06599 0.0
H368 H 0.92084 0.4729 0.11098 0.0
H369 H 0.95303 0.37265 0.08991 0.0
H370 H 0.89586 0.27186 0.19473 0.0
H371 H 0.90718 0.30487 0.15344 0.0
H372 H 0.87427 0.40557 0.17847 0.0
C373 C 0.91933 0.45894 0.08624 0.0
C374 C 0.93556 0.37996 0.109 0.0
C375 C 0.92349 0.47586 0.06047 0.0
C376 C 0.89972 0.29834 0.20212 0.0
C377 C 0.90634 0.31732 0.17843 0.0
C378 C 0.89205 0.39844 0.15957 0.0
C379 C 0.91532 0.42446 0.08034 0.0
C380 C 0.91446 0.40646 0.10803 0.0
C381 C 0.90957 0.35174 0.18645 0.0
C382 C 0.91269 0.37158 0.16028 0.0
H383 H 0.91756 0.41021 0.99756 0.0
H384 H 0.90993 0.3807 0.04244 0.0
H385 H 0.87624 0.43589 0.13362 0.0
H386 H 0.89842 0.35991 0.26765 0.0
H387 H 0.91076 0.39322 0.22633 0.0
C388 C 0.92238 0.52719 0.42105 0.0
C389 C 0.94514 0.53058 0.45144 0.0
C390 C 0.92047 0.55402 0.40528 0.0
C391 C 0.97504 0.63383 0.40267 0.0
H392 H 0.88057 0.65058 0.35701 0.0
C393 C 0.95821 0.75449 0.3555 0.0
C394 C 0.93509 0.75232 0.3255 0.0
C395 C 0.96099 0.72666 0.36956 0.0
C396 C 0.90731 0.64599 0.36928 0.0
H397 H 0.98261 0.56496 0.48972 0.0
H398 H 0.97877 0.61172 0.46259 0.0
H399 H 0.88071 0.60383 0.38467 0.0
H400 H 0.89807 0.71908 0.286 0.0
H401 H 0.90335 0.67055 0.31025 0.0
H402 H 0.00159 0.67609 0.38743 0.0
C403 C 0.96301 0.58826 0.45054 0.0
C404 C 0.90736 0.6192 0.38517 0.0
C405 C 0.96493 0.56151 0.46623 0.0
C406 C 0.91601 0.72157 0.30923 0.0
C407 C 0.91877 0.6938 0.32325 0.0
C408 C 0.97499 0.66062 0.3868 0.0
C409 C 0.9413 0.58474 0.41962 0.0
C410 C 0.94119 0.6129 0.40222 0.0
C411 C 0.94068 0.69612 0.35389 0.0
C412 C 0.9411 0.66709 0.37 0.0
H413 H 0.90696 0.50361 0.40899 0.0
H414 H 0.90365 0.55042 0.38139 0.0
H415 H 0.00176 0.62932 0.41504 0.0
H416 H 0.97313 0.77788 0.36867 0.0
H417 H 0.97792 0.72935 0.39329 0.0
C418 C 0.57405 0.54383 0.5546 0.0
C419 C 0.5844 0.51199 0.5517 0.0
C420 C 0.59289 0.56927 0.57935 0.0
C421 C 0.65188 0.58527 0.66049 0.0
H422 H 0.67529 0.67217 0.64133 0.0
C423 C 0.74851 0.69048 0.75128 0.0
C424 C 0.73883 0.72248 0.75335 0.0
C425 C 0.72834 0.66455 0.72774 0.0
C426 C 0.66849 0.64817 0.64724 0.0
H427 H 0.62289 0.4819 0.57234 0.0
H428 H 0.6562 0.5265 0.61549 0.0
H429 H 0.6442 0.62748 0.59772 0.0
H430 H 0.6997 0.75224 0.73297 0.0
H431 H 0.66414 0.70688 0.69205 0.0
H432 H 0.67636 0.60602 0.71002 0.0
C433 C 0.63314 0.53169 0.59882 0.0
C434 C 0.65072 0.6225 0.62219 0.0
C435 C 0.61426 0.50618 0.57397 0.0
C436 C 0.70786 0.72786 0.73196 0.0
C437 C 0.6877 0.70191 0.70835 0.0
C438 C 0.66969 0.61097 0.68556 0.0
C439 C 0.62259 0.56354 0.60186 0.0
C440 C 0.64214 0.59072 0.62848 0.0
C441 C 0.69803 0.67001 0.70566 0.0
C442 C 0.67821 0.64276 0.67925 0.0
H443 H 0.55105 0.5491 0.53791 0.0
H444 H 0.58364 0.59334 0.5812 0.0
H445 H 0.64515 0.56124 0.66634 0.0
H446 H 0.77232 0.68556 0.76734 0.0
H447 H 0.73733 0.64041 0.72618 0.0
C448 C 0.33191 0.3132 0.38849 0.0
C449 C 0.35543 0.33253 0.37243 0.0
C450 C 0.3417 0.3123 0.42165 0.0
C451 C 0.39551 0.35924 0.49803 0.0
H452 H 0.38512 0.27574 0.52677 0.0
C453 C 0.381 0.34786 0.63167 0.0
C454 C 0.39953 0.32429 0.64511 0.0
C455 C 0.38135 0.34972 0.59862 0.0
C456 C 0.38856 0.29922 0.51911 0.0
H457 H 0.40721 0.36671 0.37862 0.0
H458 H 0.42393 0.36565 0.43689 0.0
H459 H 0.37466 0.27704 0.46816 0.0
H460 H 0.43367 0.2846 0.63466 0.0
H461 H 0.434 0.28767 0.5765 0.0
H462 H 0.40885 0.38152 0.54896 0.0
C463 C 0.39812 0.35096 0.42368 0.0
C464 C 0.38223 0.29998 0.48561 0.0
C465 C 0.38857 0.35152 0.39036 0.0
C466 C 0.41908 0.30296 0.62493 0.0
C467 C 0.41915 0.30465 0.59167 0.0
C468 C 0.40153 0.35854 0.53155 0.0
C469 C 0.37498 0.33102 0.43954 0.0
C470 C 0.38495 0.33005 0.47479 0.0
C471 C 0.40002 0.32791 0.57814 0.0
C472 C 0.39754 0.32853 0.54249 0.0
H473 H 0.30622 0.29831 0.3753 0.0
H474 H 0.32301 0.29715 0.4334 0.0
H475 H 0.39777 0.38269 0.49037 0.0
H476 H 0.36576 0.3647 0.64661 0.0
H477 H 0.36595 0.36764 0.58886 0.0
C478 C 0.04812 0.99913 0.83941 0.0
C479 C 0.02673 0.97278 0.84862 0.0
C480 C 0.04907 0.00033 0.80621 0.0
C481 C 0.03079 0.95086 0.72217 0.0
H482 H 0.00661 0.03214 0.69721 0.0
C483 C 0.98341 0.95937 0.58758 0.0
C484 C 0.99413 0.98867 0.57692 0.0
C485 C 0.99137 0.95723 0.62062 0.0
C486 C 0.01411 0.00945 0.70369 0.0
H487 H 0.99117 0.92621 0.83041 0.0
H488 H 0.9932 0.92814 0.77241 0.0
H489 H 0.01498 0.02829 0.75503 0.0
H490 H 0.02246 0.03848 0.59227 0.0
H491 H 0.03731 0.03458 0.64986 0.0
H492 H 0.03002 0.93197 0.67088 0.0
C493 C 0.00911 0.94791 0.79083 0.0
C494 C 0.01883 0.00725 0.73689 0.0
C495 C 0.00782 0.94688 0.82403 0.0
C496 C 0.01362 0.01564 0.59984 0.0
C497 C 0.02192 0.01343 0.63288 0.0
C498 C 0.02645 0.95315 0.68895 0.0
C499 C 0.02901 0.97502 0.78158 0.0
C500 C 0.02679 0.97783 0.74647 0.0
C501 C 0.01058 0.98428 0.64377 0.0
C502 C 0.01757 0.98236 0.67923 0.0
H503 H 0.06299 0.01942 0.85783 0.0
H504 H 0.06499 0.02133 0.79977 0.0
H505 H 0.03729 0.92798 0.72888 0.0
H506 H 0.96819 0.9382 0.57048 0.0
H507 H 0.98158 0.93458 0.62811 0.0
C508 C 0.38427 0.84898 0.91705 0.0
C509 C 0.39351 0.81807 0.90299 0.0
C510 C 0.38814 0.85898 0.95132 0.0
C511 C 0.43401 0.84294 0.02888 0.0
H512 H 0.33747 0.85133 0.06262 0.0
C513 C 0.40509 0.80206 0.14797 0.0
C514 C 0.38038 0.81755 0.16787 0.0
C515 C 0.41075 0.81116 0.11807 0.0
C516 C 0.36496 0.84993 0.05393 0.0
H517 H 0.41507 0.77393 0.91371 0.0
H518 H 0.42214 0.79147 0.97305 0.0
H519 H 0.34227 0.85352 0.00511 0.0
H520 H 0.34257 0.8551 0.17241 0.0
H521 H 0.35236 0.87099 0.12003 0.0
H522 H 0.45678 0.83874 0.07723 0.0
C523 C 0.41206 0.80802 0.95773 0.0
C524 C 0.36764 0.85121 0.02094 0.0
C525 C 0.40795 0.79797 0.92371 0.0
C526 C 0.36164 0.84258 0.15743 0.0
C527 C 0.3673 0.85171 0.12744 0.0
C528 C 0.43158 0.84229 0.06193 0.0
C529 C 0.40171 0.83834 0.97186 0.0
C530 C 0.40173 0.84617 0.00785 0.0
C531 C 0.39197 0.83613 0.10737 0.0
C532 C 0.39652 0.84404 0.07446 0.0
H533 H 0.37275 0.86486 0.90166 0.0
H534 H 0.37981 0.88243 0.96179 0.0
H535 H 0.46057 0.83908 0.01931 0.0
H536 H 0.41988 0.78265 0.15534 0.0
H537 H 0.42915 0.79792 0.10295 0.0
C538 C 0.35312 0.95689 0.30167 0.0
C539 C 0.36906 0.93324 0.31702 0.0
C540 C 0.3496 0.95356 0.26743 0.0
C541 C 0.34164 0.93817 0.19184 0.0
H542 H 0.44065 0.92229 0.16615 0.0
C543 C 0.39039 0.94248 0.06191 0.0
C544 C 0.42508 0.96274 0.06377 0.0
C545 C 0.37696 0.93534 0.09059 0.0
C546 C 0.4128 0.92659 0.17292 0.0
H547 H 0.39053 0.88628 0.30855 0.0
H548 H 0.38447 0.88052 0.24899 0.0
H549 H 0.42534 0.91316 0.21955 0.0
H550 H 0.47244 0.99188 0.09706 0.0
H551 H 0.44941 0.97891 0.14676 0.0
H552 H 0.32986 0.95245 0.14508 0.0
C553 C 0.37471 0.90157 0.26328 0.0
C554 C 0.40381 0.92103 0.20335 0.0
C555 C 0.37797 0.90478 0.2974 0.0
C556 C 0.4456 0.97623 0.09477 0.0
C557 C 0.43256 0.96867 0.12323 0.0
C558 C 0.35051 0.94332 0.16104 0.0
C559 C 0.36225 0.92666 0.24806 0.0
C560 C 0.36853 0.92755 0.21356 0.0
C561 C 0.39846 0.94781 0.12141 0.0
C562 C 0.38663 0.93852 0.15182 0.0
H563 H 0.34597 0.97908 0.3162 0.0
H564 H 0.34001 0.9734 0.25647 0.0
H565 H 0.31419 0.94325 0.19903 0.0
H566 H 0.37406 0.93161 0.03831 0.0
H567 H 0.35052 0.91925 0.08863 0.0
C568 C 0.43545 0.26366 0.23038 0.0
C569 C 0.43106 0.29711 0.23747 0.0
C570 C 0.47013 0.25389 0.22224 0.0
C571 C 0.56342 0.28396 0.19842 0.0
H572 H 0.60183 0.22142 0.24797 0.0
C573 C 0.72103 0.28445 0.24225 0.0
C574 C 0.7353 0.25478 0.24462 0.0
C575 C 0.68266 0.28466 0.2314 0.0
C576 C 0.59131 0.23831 0.23329 0.0
H577 H 0.4589 0.34653 0.24053 0.0
H578 H 0.51956 0.32961 0.22701 0.0
H579 H 0.53565 0.23111 0.24763 0.0
H580 H 0.72128 0.20189 0.23578 0.0
H581 H 0.65375 0.20227 0.21695 0.0
H582 H 0.61982 0.29232 0.18553 0.0
C583 C 0.49615 0.31082 0.22714 0.0
C584 C 0.55332 0.2439 0.23311 0.0
C585 C 0.46148 0.32056 0.23518 0.0
C586 C 0.71094 0.22512 0.23427 0.0
C587 C 0.67235 0.22535 0.22363 0.0
C588 C 0.60146 0.27843 0.19868 0.0
C589 C 0.50107 0.2774 0.22111 0.0
C590 C 0.5393 0.26757 0.21657 0.0
C591 C 0.65768 0.2552 0.22286 0.0
C592 C 0.61608 0.25634 0.21702 0.0
H593 H 0.41233 0.24504 0.23173 0.0
H594 H 0.47292 0.22795 0.21737 0.0
H595 H 0.55324 0.30187 0.1849 0.0
H596 H 0.73924 0.30767 0.24992 0.0
H597 H 0.67218 0.30809 0.23147 0.0
C598 C 0.91095 0.33326 0.46885 0.0
C599 C 0.92866 0.35179 0.44841 0.0
C600 C 0.90735 0.29906 0.46165 0.0
C601 C 0.95568 0.23354 0.4229 0.0
H602 H 0.86941 0.1782 0.44167 0.0
C603 C 0.96419 0.09771 0.43097 0.0
C604 C 0.94742 0.0868 0.45674 0.0
C605 C 0.95761 0.12784 0.42279 0.0
C606 C 0.89386 0.19329 0.4365 0.0
H607 H 0.95499 0.34921 0.40365 0.0
H608 H 0.9477 0.28907 0.39051 0.0
H609 H 0.86414 0.23541 0.43925 0.0
H610 H 0.91054 0.09871 0.4941 0.0
H611 H 0.89975 0.15151 0.48047 0.0
H612 H 0.98641 0.19224 0.42222 0.0
C613 C 0.93709 0.30113 0.41232 0.0
C614 C 0.89063 0.22599 0.43482 0.0
C615 C 0.94104 0.33546 0.41973 0.0
C616 C 0.92379 0.10646 0.47405 0.0
C617 C 0.91726 0.13659 0.46593 0.0
C618 C 0.95911 0.20092 0.42497 0.0
C619 C 0.92097 0.28264 0.43365 0.0
C620 C 0.92187 0.24671 0.42904 0.0
C621 C 0.93407 0.14771 0.44017 0.0
C622 C 0.92864 0.1807 0.43293 0.0
H623 H 0.90161 0.34516 0.49136 0.0
H624 H 0.89531 0.28553 0.47883 0.0
H625 H 0.98038 0.24899 0.41865 0.0
H626 H 0.98247 0.083 0.4171 0.0
H627 H 0.97099 0.13549 0.40283 0.0
C628 C 0.95018 0.8298 0.80352 0.0
C629 C 0.92185 0.80449 0.78699 0.0
C630 C 0.9885 0.82753 0.80036 0.0
C631 C 0.05193 0.76509 0.78449 0.0
H632 H 0.12653 0.83889 0.78149 0.0
C633 C 0.21167 0.75269 0.78151 0.0
C634 C 0.23765 0.77831 0.80083 0.0
C635 C 0.17285 0.7558 0.77697 0.0
C636 C 0.10605 0.81812 0.78261 0.0
H637 H 0.91103 0.75789 0.75279 0.0
H638 H 0.9781 0.75395 0.74721 0.0
H639 H 0.05889 0.84535 0.77665 0.0
H640 H 0.24351 0.82699 0.83105 0.0
H641 H 0.17571 0.83214 0.82375 0.0
H642 H 0.09896 0.73806 0.79127 0.0
C643 C 0.97068 0.77533 0.7629 0.0
C644 C 0.06736 0.8218 0.77971 0.0
C645 C 0.93232 0.77768 0.76594 0.0
C646 C 0.22411 0.80687 0.81594 0.0
C647 C 0.18533 0.80994 0.8115 0.0
C648 C 0.09059 0.76144 0.7875 0.0
C649 C -0.00081 0.79984 0.78072 0.0
C650 C 0.03995 0.7954 0.78095 0.0
C651 C 0.15929 0.78455 0.79177 0.0
C652 C 0.11812 0.78801 0.78697 0.0
H653 H 0.9429 0.85082 0.81985 0.0
H654 H 0.00984 0.84672 0.81455 0.0
H655 H 0.0315 0.74445 0.7861 0.0
H656 H 0.22138 0.73047 0.76942 0.0
H657 H 0.15357 0.73592 0.76139 0.0
C658 C 0.51809 0.61964 0.97985 0.0
C659 C 0.5329 0.61552 0.01129 0.0
C660 C 0.51724 0.65107 0.97275 0.0
C661 C 0.51687 0.73637 0.01472 0.0
H662 H 0.5386 0.75881 0.9316 0.0
C663 C 0.52986 0.86901 0.99915 0.0
C664 C 0.50758 0.87581 0.97185 0.0
C665 C 0.53615 0.83699 0.00075 0.0
C666 C 0.5322 0.75275 0.9548 0.0
H667 H 0.55968 0.64094 0.05955 0.0
H668 H 0.55873 0.69573 0.0471 0.0
H669 H 0.54349 0.70303 0.9411 0.0
H670 H 0.47751 0.85495 0.92345 0.0
H671 H 0.48954 0.79845 0.92591 0.0
H672 H 0.50548 0.7858 0.02848 0.0
C673 C 0.54709 0.67474 0.02808 0.0
C674 C 0.53497 0.72088 0.96026 0.0
C675 C 0.54787 0.64336 0.03518 0.0
C676 C 0.4942 0.85024 0.94501 0.0
C677 C 0.50119 0.81804 0.94638 0.0
C678 C 0.51419 0.76806 0.00931 0.0
C679 C 0.53118 0.67899 0.99697 0.0
C680 C 0.52775 0.71249 0.99047 0.0
C681 C 0.52063 0.811 0.97498 0.0
C682 C 0.52235 0.77675 0.97952 0.0
H683 H 0.50632 0.59861 0.96092 0.0
H684 H 0.50454 0.65349 0.94865 0.0
H685 H 0.51005 0.73051 0.03789 0.0
H686 H 0.54112 0.88824 0.02008 0.0
H687 H 0.55217 0.83243 0.02273 0.0
C688 C 0.78277 0.87832 0.31837 0.0
C689 C 0.79907 0.84987 0.32225 0.0
C690 C 0.745 0.88084 0.3236 0.0
C691 C 0.66178 0.84019 0.35538 0.0
H692 H 0.60427 0.87378 0.28722 0.0
C693 C 0.50183 0.80101 0.31438 0.0
C694 C 0.47956 0.82341 0.3029 0.0
C695 C 0.54087 0.80982 0.32419 0.0
C696 C 0.61987 0.86499 0.30694 0.0
H697 H 0.78932 0.80233 0.33603 0.0
H698 H 0.72314 0.80616 0.34413 0.0
H699 H 0.67312 0.87943 0.29129 0.0
H700 H 0.48008 0.87312 0.29422 0.0
H701 H 0.54836 0.88833 0.31077 0.0
H702 H 0.60808 0.82504 0.3704 0.0
C703 C 0.73957 0.82692 0.33774 0.0
C704 C 0.65952 0.86824 0.30931 0.0
C705 C 0.77745 0.82455 0.33281 0.0
C706 C 0.49663 0.85528 0.30281 0.0
C707 C 0.53575 0.86399 0.3123 0.0
C708 C 0.62205 0.83711 0.35312 0.0
C709 C 0.72259 0.85478 0.33244 0.0
C710 C 0.68095 0.8552 0.33305 0.0
C711 C 0.55844 0.84117 0.32252 0.0
C712 C 0.60061 0.84867 0.32829 0.0
H713 H 0.79895 0.89843 0.31064 0.0
H714 H 0.73315 0.90298 0.32005 0.0
H715 H 0.67743 0.83049 0.37442 0.0
H716 H 0.48936 0.77629 0.31479 0.0
H717 H 0.55754 0.79147 0.33148 0.0
C718 C 0.43158 0.07919 0.46141 0.0
C719 C 0.45356 0.06096 0.44071 0.0
C720 C 0.44094 0.11321 0.47126 0.0
C721 C 0.52039 0.1804 0.47729 0.0
H722 H 0.4395 0.23572 0.47828 0.0
C723 C 0.54525 0.31918 0.47602 0.0
C724 C 0.52312 0.3398 0.49414 0.0
C725 C 0.5389 0.2852 0.47394 0.0
C726 C 0.46242 0.22061 0.47862 0.0
H727 H 0.50248 0.06401 0.41402 0.0
H728 H 0.51833 0.1232 0.43057 0.0
H729 H 0.4235 0.17627 0.46568 0.0
H730 H 0.47864 0.3413 0.52586 0.0
H731 H 0.46778 0.28203 0.52244 0.0
H732 H 0.5593 0.22486 0.48945 0.0
C733 C 0.49433 0.1113 0.43981 0.0
C734 C 0.45324 0.1865 0.47141 0.0
C735 C 0.48505 0.07737 0.43008 0.0
C736 C 0.49584 0.32597 0.51142 0.0
C737 C 0.48946 0.29204 0.50932 0.0
C738 C 0.52956 0.21451 0.48436 0.0
C739 C 0.47244 0.12969 0.46054 0.0
C740 C 0.48212 0.16595 0.47025 0.0
C741 C 0.51028 0.27121 0.48992 0.0
C742 C 0.5007 0.235 0.48476 0.0
H743 H 0.40723 0.06717 0.4701 0.0
H744 H 0.42371 0.12655 0.48752 0.0
H745 H 0.54334 0.16533 0.47726 0.0
H746 H 0.56639 0.32914 0.46235 0.0
H747 H 0.55526 0.2698 0.45861 0.0
C748 C 0.24825 0.31186 0.7313 0.0
C749 C 0.27614 0.30927 0.75687 0.0
C750 C 0.21018 0.31189 0.73658 0.0
C751 C 0.14074 0.28537 0.78799 0.0
H752 H 0.08297 0.34907 0.75512 0.0
C753 C 0.98074 0.2869 0.80103 0.0
C754 C 0.95786 0.29012 0.77246 0.0
C755 C 0.02049 0.29299 0.80338 0.0
C756 C 0.09863 0.331 0.76429 0.0
H757 H 0.28613 0.30417 0.80785 0.0
H758 H 0.21928 0.30373 0.81693 0.0
H759 H 0.15084 0.35127 0.75029 0.0
H760 H 0.95843 0.30317 0.72441 0.0
H761 H 0.02732 0.31322 0.72823 0.0
H762 H 0.08833 0.26433 0.80095 0.0
C763 C 0.22699 0.30586 0.79288 0.0
C764 C 0.13747 0.33229 0.76153 0.0
C765 C 0.26518 0.30618 0.78769 0.0
C766 C 0.97531 0.30048 0.74676 0.0
C767 C 0.01487 0.3065 0.74907 0.0
C768 C 0.10176 0.28389 0.79052 0.0
C769 C 0.1992 0.30902 0.76745 0.0
C770 C 0.15874 0.30913 0.7728 0.0
C771 C 0.038 0.30244 0.7772 0.0
C772 C 0.08011 0.30631 0.7781 0.0
H773 H 0.25589 0.3143 0.70731 0.0
H774 H 0.18924 0.3139 0.71642 0.0
H775 H 0.15646 0.26711 0.79673 0.0
H776 H 0.96801 0.27904 0.82125 0.0
H777 H 0.03751 0.29002 0.82554 0.0
C778 C 0.02623 0.86326 0.95318 0.0
C779 C -0.00083 0.88357 0.96366 0.0
C780 C 0.021 0.82989 0.95438 0.0
C781 C 0.96857 0.76748 0.9915 0.0
H782 H 0.99077 0.70824 0.91505 0.0
C783 C 0.93743 0.62489 0.97253 0.0
C784 C 0.96694 0.60778 0.96131 0.0
C785 C 0.93914 0.65875 0.97352 0.0
C786 C 0.98466 0.72445 0.93668 0.0
H787 H 0.94614 0.88519 0.98482 0.0
H788 H 0.93725 0.82697 0.98728 0.0
H789 H -0.0012 0.76707 0.9165 0.0
H790 H 0.0214 0.61272 0.94257 0.0
H791 H 0.02436 0.67142 0.9443 0.0
H792 H 0.95422 0.72454 0.01152 0.0
C793 C 0.96236 0.83673 0.97792 0.0
C794 C 0.98938 0.75819 0.93756 0.0
C795 C 0.96745 0.87009 0.97648 0.0
C796 C -0.00188 0.62514 0.9512 0.0
C797 C -0.00028 0.65878 0.95202 0.0
C798 C 0.96366 0.73358 0.99055 0.0
C799 C 0.98867 0.8161 0.96621 0.0
C800 C 0.98201 0.78016 0.96517 0.0
C801 C 0.97023 0.67599 0.96304 0.0
C802 C 0.97233 0.71176 0.96334 0.0
H803 H 0.05102 0.87296 0.94329 0.0
H804 H 0.04221 0.81481 0.94579 0.0
H805 H 0.96262 0.78378 0.01313 0.0
H806 H 0.91307 0.61213 0.98052 0.0
H807 H 0.9159 0.67134 0.98198 0.0
C808 C 0.32913 0.43685 0.239 0.0
C809 C 0.30779 0.42053 0.25908 0.0
C810 C 0.32554 0.46943 0.23727 0.0
C811 C 0.29616 0.54413 0.28415 0.0
H812 H 0.3114 0.57665 0.2044 0.0
C813 C 0.34428 0.68034 0.28569 0.0
C814 C 0.33256 0.694 0.25844 0.0
C815 C 0.33485 0.64691 0.28515 0.0
C816 C 0.30643 0.56807 0.22679 0.0
H817 H 0.26502 0.42518 0.29234 0.0
H818 H 0.25802 0.48216 0.28878 0.0
H819 H 0.30439 0.51799 0.20321 0.0
H820 H 0.30062 0.68373 0.20971 0.0
H821 H 0.28314 0.62547 0.20905 0.0
H822 H 0.29749 0.59423 0.30758 0.0
C823 C 0.27811 0.46989 0.27483 0.0
C824 C 0.30296 0.53435 0.22621 0.0
C825 C 0.28191 0.43721 0.27673 0.0
C826 C 0.31033 0.67377 0.23096 0.0
C827 C 0.30049 0.64036 0.23055 0.0
C828 C 0.29922 0.57788 0.28465 0.0
C829 C 0.30025 0.48652 0.25536 0.0
C830 C 0.29884 0.52198 0.25507 0.0
C831 C 0.31306 0.62638 0.25748 0.0
C832 C 0.30539 0.59036 0.25617 0.0
H833 H 0.34946 0.42472 0.2252 0.0
H834 H 0.34362 0.48151 0.22252 0.0
H835 H 0.29321 0.53559 0.3069 0.0
H836 H 0.36158 0.69533 0.30719 0.0
H837 H 0.34569 0.63704 0.30611 0.0
C838 C 0.85239 0.14354 0.76624 0.0
C839 C 0.82372 0.16383 0.77139 0.0
C840 C 0.84702 0.11106 0.77066 0.0
C841 C 0.78764 0.05377 0.80924 0.0
H842 H 0.82687 0.98799 0.74836 0.0
C843 C 0.79465 0.92057 0.82947 0.0
C844 C 0.79005 0.89532 0.80159 0.0
C845 C 0.79565 0.95337 0.82606 0.0
C846 C 0.81523 0.00589 0.76536 0.0
H847 H 0.76696 0.1661 0.78534 0.0
H848 H 0.75718 0.10912 0.79236 0.0
H849 H 0.83463 0.04473 0.74169 0.0
H850 H 0.78081 0.88438 0.74835 0.0
H851 H 0.78115 0.94135 0.7423 0.0
H852 H 0.76738 0.01462 0.83241 0.0
C853 C 0.78412 0.11844 0.78547 0.0
C854 C 0.82026 0.03863 0.76184 0.0
C855 C 0.78961 0.15103 0.78124 0.0
C856 C 0.78469 0.90335 0.77028 0.0
C857 C 0.78525 0.93606 0.76685 0.0
C858 C 0.78241 0.02091 0.81268 0.0
C859 C 0.81271 0.09799 0.78009 0.0
C860 C 0.80672 0.06305 0.7838 0.0
C861 C 0.79171 0.96158 0.79465 0.0
C862 C 0.79619 0.99653 0.79078 0.0
H863 H 0.87911 0.15278 0.75889 0.0
H864 H 0.86996 0.09627 0.76689 0.0
H865 H 0.77717 0.07196 0.82682 0.0
H866 H 0.79906 0.91512 0.85395 0.0
H867 H 0.80103 0.9723 0.84803 0.0
C868 C 0.38366 0.52061 0.0454 0.0
C869 C 0.40449 0.50517 0.0217 0.0
C870 C 0.34389 0.51664 0.04006 0.0
C871 C 0.26434 0.4985 0.97378 0.0
H872 H 0.20334 0.48481 0.04305 0.0
C873 C 0.10028 0.48184 0.95125 0.0
C874 C 0.0815 0.49791 0.97617 0.0
C875 C 0.13928 0.47983 0.95692 0.0
C876 C 0.21998 0.48895 0.02355 0.0
H877 H 0.40016 0.47306 0.97409 0.0
H878 H 0.33054 0.46628 0.96466 0.0
H879 H 0.27244 0.48645 0.05287 0.0
H880 H 0.08856 0.52422 0.02663 0.0
H881 H 0.15682 0.52143 0.03635 0.0
H882 H 0.21223 0.50188 0.94469 0.0
C883 C 0.34502 0.48154 0.9873 0.0
C884 C 0.25952 0.48979 0.02916 0.0
C885 C 0.38482 0.4853 0.99276 0.0
C886 C 0.10231 0.5116 0.00699 0.0
C887 C 0.14137 0.5098 0.01261 0.0
C888 C 0.22486 0.49788 0.96823 0.0
C889 C 0.32419 0.49735 0.01081 0.0
C890 C 0.2821 0.49478 0.0044 0.0
C891 C 0.16038 0.49406 0.98757 0.0
C892 C 0.20221 0.49333 0.99311 0.0
H893 H 0.39809 0.53606 0.06795 0.0
H894 H 0.32859 0.52939 0.05846 0.0
H895 H 0.28109 0.50285 0.9544 0.0
H896 H 0.08487 0.47085 0.92731 0.0
H897 H 0.15286 0.46706 0.93727 0.0
C898 C 0.93664 0.18204 0.32842 0.0
C899 C 0.90117 0.17815 0.30873 0.0
C900 C 0.95195 0.15464 0.3369 0.0
C901 C 0.98226 0.08596 0.33036 0.0
H902 H 0.91189 0.02479 0.36176 0.0
C903 C 0.98288 0.94645 0.30887 0.0
C904 C 0.96651 0.92876 0.33068 0.0
C905 C 0.98682 0.98076 0.31526 0.0
C906 C 0.93232 0.04177 0.35368 0.0
H907 H 0.85415 0.14262 0.28236 0.0
H908 H 0.88039 0.09522 0.29767 0.0
H909 H 0.89364 0.07767 0.35427 0.0
H910 H 0.94607 0.93308 0.37825 0.0
H911 H 0.95363 0.99291 0.3896 0.0
H912 H 0.02028 0.04921 0.32831 0.0
C913 C 0.89644 0.11932 0.30643 0.0
C914 C 0.92161 0.07193 0.34903 0.0
C915 C 0.88156 0.14646 0.29749 0.0
C916 C 0.95838 0.94601 0.36077 0.0
C917 C 0.96251 0.98029 0.36722 0.0
C918 C 0.99288 0.05546 0.33465 0.0
C919 C 0.93153 0.12312 0.32648 0.0
C920 C 0.94592 0.09384 0.33633 0.0
C921 C 0.97455 0.99794 0.34364 0.0
C922 C 0.96752 0.03265 0.34544 0.0
H923 H 0.9523 0.20623 0.33757 0.0
H924 H 0.97917 0.15816 0.35225 0.0
H925 H 0.00152 0.10253 0.32062 0.0
H926 H 0.98961 0.93384 0.28555 0.0
H927 H 0.9962 0.99356 0.29654 0.0
C928 C 0.87604 0.01393 0.92263 0.0
C929 C 0.89903 0.01137 0.9514 0.0
C930 C 0.83885 0.02139 0.924 0.0
C931 C 0.77164 0.05226 0.9809 0.0
H932 H 0.69612 0.99366 0.91718 0.0
C933 C 0.61508 0.02215 0.00133 0.0
C934 C 0.58718 0.01402 0.97374 0.0
C935 C 0.65336 0.02969 0.99745 0.0
C936 C 0.71672 0.01079 0.93476 0.0
H937 H 0.90182 0.0158 0.00424 0.0
H938 H 0.83673 0.02835 0.00659 0.0
H939 H 0.76322 0.99252 0.9121 0.0
H940 H 0.57661 0.01012 0.92091 0.0
H941 H 0.64314 0.02415 0.91422 0.0
H942 H 0.72489 0.06986 0.00405 0.0
C943 C 0.84751 0.02502 0.98305 0.0
C944 C 0.75528 0.01008 0.93184 0.0
C945 C 0.88468 0.01756 0.98168 0.0
C946 C 0.5977 0.01585 0.94255 0.0
C947 C 0.63581 0.02372 0.93871 0.0
C948 C 0.73295 0.05305 0.98377 0.0
C949 C 0.82397 0.02642 0.95415 0.0
C950 C 0.78319 0.03031 0.95524 0.0
C951 C 0.66424 0.02951 0.96594 0.0
C952 C 0.70509 0.03185 0.96107 0.0
H953 H 0.88646 0.00945 0.89896 0.0
H954 H 0.82151 0.02267 0.90137 0.0
H955 H 0.79255 0.06845 0.99905 0.0
H956 H 0.60767 0.0209 0.02565 0.0
H957 H 0.67455 0.0338 0.01892 0.0
C958 C 0.36855 0.66076 0.82354 0.0
C959 C 0.3863 0.6807 0.80432 0.0
C960 C 0.37869 0.62957 0.82445 0.0
C961 C 0.45215 0.5747 0.8039 0.0
H962 H 0.36864 0.50721 0.80443 0.0
C963 C 0.45499 0.43326 0.77059 0.0
C964 C 0.43328 0.41388 0.78802 0.0
C965 C 0.45627 0.46748 0.77732 0.0
C966 C 0.39242 0.52584 0.80482 0.0
H967 H 0.4291 0.68392 0.77137 0.0
H968 H 0.446 0.6287 0.77197 0.0
H969 H 0.35598 0.56317 0.80526 0.0
H970 H 0.39947 0.41509 0.82839 0.0
H971 H 0.40217 0.4746 0.84038 0.0
H972 H 0.48826 0.53646 0.80218 0.0
C973 C 0.42475 0.63748 0.78691 0.0
C974 C 0.38517 0.55802 0.80532 0.0
C975 C 0.41488 0.66899 0.78634 0.0
C976 C 0.41606 0.42938 0.81431 0.0
C977 C 0.41742 0.46345 0.82106 0.0
C978 C 0.45938 0.54222 0.80308 0.0
C979 C 0.40645 0.61724 0.80574 0.0
C980 C 0.41489 0.58297 0.80506 0.0
C981 C 0.43592 0.4827 0.80158 0.0
C982 C 0.42955 0.51752 0.80374 0.0
H983 H 0.34682 0.66931 0.83807 0.0
H984 H 0.36464 0.61509 0.83987 0.0
H985 H 0.47578 0.59333 0.80395 0.0
H986 H 0.46853 0.42195 0.75016 0.0
H987 H 0.47079 0.48171 0.76193 0.0
C988 C 0.10151 0.44541 0.45878 0.0
C989 C 0.08712 0.4532 0.48891 0.0
C990 C 0.14063 0.44566 0.45789 0.0
C991 C 0.22915 0.43925 0.50913 0.0
H992 H 0.27816 0.47598 0.4427 0.0
C993 C 0.39207 0.45663 0.51187 0.0
C994 C 0.40645 0.44838 0.48183 0.0
C995 C 0.35315 0.45784 0.51257 0.0
C996 C 0.2648 0.46532 0.46117 0.0
H997 H 0.10226 0.46769 0.5417 0.0
H998 H 0.17074 0.46833 0.54014 0.0
H999 H 0.21001 0.47733 0.44443 0.0
H1000 H 0.39155 0.43467 0.42895 0.0
H1001 H 0.32337 0.43659 0.43016 0.0
H1002 H 0.28382 0.42707 0.52578 0.0
C1003 C 0.15172 0.46168 0.51725 0.0
C1004 C 0.2258 0.46612 0.46218 0.0
C1005 C 0.11257 0.4615 0.51813 0.0
C1006 C 0.38126 0.4415 0.45244 0.0
C1007 C 0.34226 0.44265 0.45314 0.0
C1008 C 0.2681 0.43841 0.50809 0.0
C1009 C 0.16614 0.45364 0.48712 0.0
C1010 C 0.20759 0.45311 0.48619 0.0
C1011 C 0.32779 0.45073 0.48323 0.0
C1012 C 0.28636 0.45148 0.48414 0.0
H1013 H 0.08252 0.43886 0.43586 0.0
H1014 H 0.15084 0.43899 0.43435 0.0
H1015 H 0.21578 0.42853 0.52757 0.0
H1016 H 0.41087 0.46195 0.53491 0.0
H1017 H 0.34293 0.46454 0.53611 0.0
C1018 C 0.85771 0.78122 0.92431 0.0
C1019 C 0.82381 0.79091 0.91079 0.0
C1020 C 0.86536 0.78271 0.95815 0.0
C1021 C 0.83935 0.82628 0.03634 0.0
H1022 H 0.89266 0.76299 0.07453 0.0
C1023 C 0.8538 0.82665 0.17488 0.0
C1024 C 0.88917 0.82184 0.1905 0.0
C1025 C 0.84687 0.82205 0.14069 0.0
C1026 C 0.87811 0.78104 0.0642 0.0
H1027 H 0.77068 0.80853 0.92193 0.0
H1028 H 0.78391 0.81102 0.98106 0.0
H1029 H 0.87703 0.75492 0.0149 0.0
H1030 H 0.94498 0.80815 0.18249 0.0
H1031 H 0.93283 0.80011 0.12239 0.0
H1032 H 0.84024 0.85227 0.08554 0.0
C1033 C 0.80491 0.80275 0.96558 0.0
C1034 C 0.86909 0.77641 0.03001 0.0
C1035 C 0.79712 0.80105 0.93166 0.0
C1036 C 0.91746 0.81207 0.17112 0.0
C1037 C 0.91043 0.8073 0.13675 0.0
C1038 C 0.8482 0.83079 0.07041 0.0
C1039 C 0.83952 0.79429 0.97934 0.0
C1040 C 0.84927 0.79886 0.01567 0.0
C1041 C 0.87509 0.81245 0.12118 0.0
C1042 C 0.86738 0.80811 0.08479 0.0
H1043 H 0.87884 0.7732 0.90884 0.0
H1044 H 0.89218 0.77589 0.96774 0.0
H1045 H 0.82508 0.84458 0.0262 0.0
H1046 H 0.83134 0.83404 0.18909 0.0
H1047 H 0.81915 0.82572 0.12948 0.0
C1048 C 0.57152 0.47208 0.38248 0.0
C1049 C 0.5469 0.44509 0.38694 0.0
C1050 C 0.57592 0.47746 0.35086 0.0
C1051 C 0.56052 0.4378 0.26287 0.0
H1052 H 0.55303 0.52627 0.24863 0.0
C1053 C 0.52952 0.46772 0.1334 0.0
C1054 C 0.54634 0.49775 0.12752 0.0
C1055 C 0.53383 0.46051 0.16496 0.0
C1056 C 0.55588 0.50154 0.25219 0.0
H1057 H 0.50854 0.40194 0.36182 0.0
H1058 H 0.51621 0.41132 0.30663 0.0
H1059 H 0.55361 0.51483 0.30386 0.0
H1060 H 0.58193 0.54334 0.14979 0.0
H1061 H 0.59019 0.53053 0.20478 0.0
H1062 H 0.56255 0.42446 0.21112 0.0
C1063 C 0.53229 0.42825 0.32753 0.0
C1064 C 0.55616 0.49498 0.28391 0.0
C1065 C 0.52775 0.42297 0.35915 0.0
C1066 C 0.56843 0.52007 0.15363 0.0
C1067 C 0.57295 0.5128 0.18518 0.0
C1068 C 0.56047 0.4444 0.23113 0.0
C1069 C 0.55593 0.45586 0.32304 0.0
C1070 C 0.5581 0.46299 0.28958 0.0
C1071 C 0.55527 0.48311 0.19134 0.0
C1072 C 0.55774 0.47631 0.22533 0.0
H1073 H 0.58673 0.4895 0.40344 0.0
H1074 H 0.59471 0.49872 0.34818 0.0
H1075 H 0.56249 0.41296 0.26652 0.0
H1076 H 0.51221 0.45005 0.11376 0.0
H1077 H 0.51936 0.43763 0.16882 0.0
C1078 C 0.79356 0.24784 0.39874 0.0
C1079 C 0.81405 0.27426 0.38887 0.0
C1080 C 0.78728 0.24973 0.43138 0.0
C1081 C 0.78978 0.30399 0.51186 0.0
H1082 H 0.82111 0.22839 0.5447 0.0
C1083 C 0.81912 0.29984 0.65065 0.0
C1084 C 0.80997 0.26965 0.66022 0.0
C1085 C 0.81493 0.30203 0.6174 0.0
C1086 C 0.81157 0.24943 0.53592 0.0
H1087 H 0.84105 0.32444 0.40467 0.0
H1088 H 0.82889 0.32811 0.46204 0.0
H1089 H 0.82084 0.23019 0.48685 0.0
H1090 H 0.78743 0.21849 0.64278 0.0
H1091 H 0.77917 0.2224 0.58487 0.0
H1092 H 0.78074 0.32327 0.56126 0.0
C1093 C 0.81856 0.30569 0.44448 0.0
C1094 C 0.8115 0.25049 0.50272 0.0
C1095 C 0.82564 0.30356 0.41178 0.0
C1096 C 0.79501 0.24202 0.63609 0.0
C1097 C 0.79054 0.24425 0.6029 0.0
C1098 C 0.78964 0.30286 0.54524 0.0
C1099 C 0.80104 0.27819 0.45486 0.0
C1100 C 0.80042 0.27765 0.49025 0.0
C1101 C 0.8013 0.27409 0.59309 0.0
C1102 C 0.80043 0.27547 0.55761 0.0
H1103 H 0.78378 0.22504 0.38156 0.0
H1104 H 0.77285 0.22843 0.43851 0.0
H1105 H 0.78113 0.32522 0.50287 0.0
H1106 H 0.8308 0.32157 0.66874 0.0
H1107 H 0.82381 0.32532 0.61074 0.0
C1108 C 0.95931 0.42563 0.60356 0.0
C1109 C 0.94399 0.44804 0.58609 0.0
C1110 C 0.95222 0.4253 0.63579 0.0
C1111 C 0.89051 0.45502 0.69866 0.0
H1112 H 0.97671 0.4436 0.75889 0.0
C1113 C 0.9027 0.48966 0.84121 0.0
C1114 C 0.92244 0.47004 0.85948 0.0
C1115 C 0.8991 0.48293 0.80681 0.0
C1116 C 0.95211 0.44628 0.74235 0.0
H1117 H 0.90855 0.48727 0.58838 0.0
H1118 H 0.89699 0.48743 0.64519 0.0
H1119 H 0.98325 0.44053 0.70117 0.0
H1120 H 0.95094 0.4264 0.8561 0.0
H1121 H 0.94417 0.41441 0.79623 0.0
H1122 H 0.85987 0.46181 0.74053 0.0
C1123 C 0.91393 0.46964 0.63377 0.0
C1124 C 0.95585 0.44451 0.70914 0.0
C1125 C 0.92076 0.46974 0.6013 0.0
C1126 C 0.93591 0.44217 0.84271 0.0
C1127 C 0.93225 0.43542 0.80841 0.0
C1128 C 0.88684 0.457 0.73208 0.0
C1129 C 0.92999 0.44767 0.65156 0.0
C1130 C 0.92517 0.44888 0.68681 0.0
C1131 C 0.91515 0.45644 0.79011 0.0
C1132 C 0.91765 0.45266 0.75428 0.0
H1133 H 0.97694 0.4083 0.59236 0.0
H1134 H 0.96435 0.40753 0.64841 0.0
H1135 H 0.86615 0.45814 0.68211 0.0
H1136 H 0.89204 0.51132 0.85348 0.0
H1137 H 0.88583 0.49962 0.79342 0.0
C1138 C 0.83066 0.93818 0.46462 0.0
C1139 C 0.85535 0.94718 0.44276 0.0
C1140 C 0.79216 0.92771 0.45369 0.0
C1141 C 0.71831 0.93991 0.39072 0.0
H1142 H 0.65574 0.88168 0.43217 0.0
C1143 C 0.55478 0.93421 0.37581 0.0
C1144 C 0.53887 0.9358 0.40536 0.0
C1145 C 0.5924 0.92784 0.37444 0.0
C1146 C 0.67285 0.89808 0.42045 0.0
H1147 H 0.85984 0.95053 0.39197 0.0
H1148 H 0.79235 0.93271 0.37294 0.0
H1149 H 0.72475 0.88253 0.43922 0.0
H1150 H 0.54926 0.93111 0.4564 0.0
H1151 H 0.6149 0.9204 0.4542 0.0
H1152 H 0.66658 0.95601 0.37256 0.0
C1153 C 0.80268 0.93363 0.39848 0.0
C1154 C 0.71235 0.89851 0.42441 0.0
C1155 C 0.84133 0.94386 0.40939 0.0
C1156 C 0.56084 0.93008 0.43329 0.0
C1157 C 0.59833 0.92359 0.4319 0.0
C1158 C 0.67878 0.93925 0.3865 0.0
C1159 C 0.77749 0.92613 0.42067 0.0
C1160 C 0.73563 0.92043 0.41073 0.0
C1161 C 0.61471 0.92276 0.40257 0.0
C1162 C 0.65573 0.91923 0.40234 0.0
H1163 H 0.84075 0.94041 0.49048 0.0
H1164 H 0.77358 0.92268 0.47162 0.0
H1165 H 0.73533 0.95728 0.38002 0.0
H1166 H 0.5384 0.93848 0.35388 0.0
H1167 H 0.60412 0.92719 0.35144 0.0
loop_
_geom_bond_atom_site_label_1
_geom_bond_atom_site_label_2
_geom_bond_distance
_geom_bond_site_symmetry_2
_ccdc_geom_bond_type
In0 O1 2.294 . S
In0 O2 2.326 . S
In0 O6 2.266 . S
In0 O7 2.326 . S
In0 O8 2.266 . S
In0 O9 2.326 . S
In0 O11 2.294 . S
In0 O12 2.326 . S
O1 In0 2.294 . S
O1 C10 1.240 . S
O2 In0 2.326 . S
O2 C10 1.252 . S
C3 O6 1.252 . S
C3 O7 1.260 . S
C4 O11 1.240 . S
C4 O12 1.252 . S
C5 O8 1.252 . S
C5 O9 1.260 . S
O6 In0 2.266 . S
O6 C3 1.252 . S
O7 In0 2.326 . S
O7 C3 1.260 . S
O8 In0 2.266 . S
O8 C5 1.252 . S
O9 In0 2.326 . S
O9 C5 1.260 . S
C10 O1 1.240 . S
C10 O2 1.252 . S
O11 In0 2.294 . S
O11 C4 1.240 . S
O12 In0 2.326 . S
O12 C4 1.252 . S
In13 O14 2.294 1_655 S
In13 O15 2.329 1_545 S
In13 O19 2.263 1_655 S
In13 O20 2.323 . S
In13 O21 2.267 1_545 S
In13 O22 2.324 . S
In13 O24 2.296 1_645 S
In13 O25 2.327 1_645 S
O14 In13 2.294 1_455 S
O14 C23 1.240 1_545 S
O15 In13 2.329 1_565 S
O15 C23 1.252 1_655 S
C16 O19 1.252 1_655 S
C16 O20 1.260 . S
C17 O24 1.240 . S
C17 O25 1.252 . S
C18 O21 1.245 1_545 S
C18 O22 1.266 . S
O19 In13 2.263 1_455 S
O19 C16 1.252 1_455 S
O20 In13 2.323 . S
O20 C16 1.260 . S
O21 In13 2.267 1_565 S
O21 C18 1.245 1_565 S
O22 In13 2.324 . S
O22 C18 1.266 . S
C23 O14 1.240 1_565 S
C23 O15 1.252 1_455 S
O24 In13 2.296 1_465 S
O24 C17 1.240 . S
O25 In13 2.327 1_465 S
O25 C17 1.252 . S
In26 O27 2.294 . S
In26 O28 2.326 . S
In26 O32 2.266 . S
In26 O33 2.326 . S
In26 O34 2.266 . S
In26 O35 2.326 . S
In26 O37 2.294 . S
In26 O38 2.326 . S
O27 In26 2.294 . S
O27 C36 1.240 . S
O28 In26 2.326 . S
O28 C36 1.252 . S
C29 O32 1.252 . S
C29 O33 1.260 . S
C30 O37 1.240 . S
C30 O38 1.252 . S
C31 O34 1.252 . S
C31 O35 1.260 . S
O32 In26 2.266 . S
O32 C29 1.252 . S
O33 In26 2.326 . S
O33 C29 1.260 . S
O34 In26 2.266 . S
O34 C31 1.252 . S
O35 In26 2.326 . S
O35 C31 1.260 . S
C36 O27 1.240 . S
C36 O28 1.252 . S
O37 In26 2.294 . S
O37 C30 1.240 . S
O38 In26 2.326 . S
O38 C30 1.252 . S
In39 O40 2.294 1_554 S
In39 O41 2.326 1_565 S
In39 O45 2.266 1_554 S
In39 O46 2.326 . S
In39 O47 2.266 . S
In39 O48 2.326 . S
In39 O50 2.294 . S
In39 O51 2.326 1_554 S
O40 In39 2.294 1_556 S
O40 C49 1.240 1_565 S
O41 In39 2.326 1_545 S
O41 C49 1.252 1_554 S
C42 O45 1.252 1_554 S
C42 O46 1.260 . S
C43 O50 1.240 1_556 S
C43 O51 1.252 . S
C44 O47 1.252 . S
C44 O48 1.260 . S
O45 In39 2.266 1_556 S
O45 C42 1.252 1_556 S
O46 In39 2.326 . S
O46 C42 1.260 . S
O47 In39 2.266 . S
O47 C44 1.252 . S
O48 In39 2.326 . S
O48 C44 1.260 . S
C49 O40 1.240 1_545 S
C49 O41 1.252 1_556 S
O50 In39 2.294 . S
O50 C43 1.240 1_554 S
O51 In39 2.326 1_556 S
O51 C43 1.252 . S
In52 O53 2.294 . S
In52 O54 2.326 . S
In52 O58 2.266 . S
In52 O59 2.326 . S
In52 O60 2.266 . S
In52 O61 2.326 . S
In52 O63 2.294 . S
In52 O64 2.326 . S
O53 In52 2.294 . S
O53 C62 1.240 . S
O54 In52 2.326 . S
O54 C62 1.252 . S
C55 O58 1.252 . S
C55 O59 1.260 . S
C56 O63 1.240 . S
C56 O64 1.252 . S
C57 O60 1.252 . S
C57 O61 1.260 . S
O58 In52 2.266 . S
O58 C55 1.252 . S
O59 In52 2.326 . S
O59 C55 1.260 . S
O60 In52 2.266 . S
O60 C57 1.252 . S
O61 In52 2.326 . S
O61 C57 1.260 . S
C62 O53 1.240 . S
C62 O54 1.252 . S
O63 In52 2.294 . S
O63 C56 1.240 . S
O64 In52 2.326 . S
O64 C56 1.252 . S
In65 O66 2.294 . S
In65 O67 2.326 1_545 S
In65 O71 2.266 . S
In65 O72 2.326 . S
In65 O73 2.267 . S
In65 O74 2.326 . S
In65 O76 2.293 . S
In65 O77 2.326 . S
O66 In65 2.294 . S
O66 C75 1.240 1_545 S
O67 In65 2.326 1_565 S
O67 C75 1.252 . S
C68 O71 1.252 . S
C68 O72 1.260 . S
C69 O76 1.240 . S
C69 O77 1.252 . S
C70 O73 1.254 . S
C70 O74 1.260 . S
O71 In65 2.266 . S
O71 C68 1.252 . S
O72 In65 2.326 . S
O72 C68 1.260 . S
O73 In65 2.267 . S
O73 C70 1.254 . S
O74 In65 2.326 . S
O74 C70 1.260 . S
C75 O66 1.240 1_565 S
C75 O67 1.252 . S
O76 In65 2.293 . S
O76 C69 1.240 . S
O77 In65 2.326 . S
O77 C69 1.252 . S
In78 O79 2.294 . S
In78 O80 2.326 . S
In78 O84 2.266 . S
In78 O85 2.326 . S
In78 O86 2.266 . S
In78 O87 2.326 . S
In78 O89 2.294 . S
In78 O90 2.326 . S
O79 In78 2.294 . S
O79 C88 1.240 . S
O80 In78 2.326 . S
O80 C88 1.252 . S
C81 O84 1.252 . S
C81 O85 1.260 . S
C82 O89 1.240 . S
C82 O90 1.252 . S
C83 O86 1.252 . S
C83 O87 1.260 . S
O84 In78 2.266 . S
O84 C81 1.252 . S
O85 In78 2.326 . S
O85 C81 1.260 . S
O86 In78 2.266 . S
O86 C83 1.252 . S
O87 In78 2.326 . S
O87 C83 1.260 . S
C88 O79 1.240 . S
C88 O80 1.252 . S
O89 In78 2.294 . S
O89 C82 1.240 . S
O90 In78 2.326 . S
O90 C82 1.252 . S
In91 O92 2.295 . S
In91 O93 2.327 . S
In91 O97 2.266 . S
In91 O98 2.325 1_655 S
In91 O99 2.266 1_655 S
In91 O100 2.326 . S
In91 O102 2.293 1_655 S
In91 O103 2.326 1_665 S
O92 In91 2.295 . S
O92 C101 1.240 . S
O93 In91 2.327 . S
O93 C101 1.252 . S
C94 O97 1.252 1_455 S
C94 O98 1.260 . S
C95 O102 1.240 1_545 S
C95 O103 1.252 . S
C96 O99 1.252 . S
C96 O100 1.260 1_455 S
O97 In91 2.266 . S
O97 C94 1.252 1_655 S
O98 In91 2.325 1_455 S
O98 C94 1.260 . S
O99 In91 2.266 1_455 S
O99 C96 1.252 . S
O100 In91 2.326 . S
O100 C96 1.260 1_655 S
C101 O92 1.240 . S
C101 O93 1.252 . S
O102 In91 2.293 1_455 S
O102 C95 1.240 1_565 S
O103 In91 2.326 1_445 S
O103 C95 1.252 . S
In104 O105 2.294 . S
In104 O106 2.326 . S
In104 O110 2.266 . S
In104 O111 2.326 . S
In104 O112 2.266 . S
In104 O113 2.326 . S
In104 O115 2.294 . S
In104 O116 2.326 . S
O105 In104 2.294 . S
O105 C114 1.240 . S
O106 In104 2.326 . S
O106 C114 1.252 . S
C107 O110 1.252 . S
C107 O111 1.260 . S
C108 O115 1.240 . S
C108 O116 1.252 . S
C109 O112 1.252 . S
C109 O113 1.260 . S
O110 In104 2.266 . S
O110 C107 1.252 . S
O111 In104 2.326 . S
O111 C107 1.260 . S
O112 In104 2.266 . S
O112 C109 1.252 . S
O113 In104 2.326 . S
O113 C109 1.260 . S
C114 O105 1.240 . S
C114 O106 1.252 . S
O115 In104 2.294 . S
O115 C108 1.240 . S
O116 In104 2.326 . S
O116 C108 1.252 . S
In117 O118 2.296 . S
In117 O119 2.327 . S
In117 O123 2.266 . S
In117 O124 2.324 1_455 S
In117 O125 2.265 1_455 S
In117 O126 2.326 . S
In117 O128 2.293 1_455 S
In117 O129 2.326 1_455 S
O118 In117 2.296 . S
O118 C127 1.240 . S
O119 In117 2.327 . S
O119 C127 1.252 . S
C120 O123 1.252 1_655 S
C120 O124 1.260 . S
C121 O128 1.240 . S
C121 O129 1.252 . S
C122 O125 1.252 . S
C122 O126 1.260 1_655 S
O123 In117 2.266 . S
O123 C120 1.252 1_455 S
O124 In117 2.324 1_655 S
O124 C120 1.260 . S
O125 In117 2.265 1_655 S
O125 C122 1.252 . S
O126 In117 2.326 . S
O126 C122 1.260 1_455 S
C127 O118 1.240 . S
C127 O119 1.252 . S
O128 In117 2.293 1_655 S
O128 C121 1.240 . S
O129 In117 2.326 1_655 S
O129 C121 1.252 . S
In130 O131 2.294 . S
In130 O132 2.326 . S
In130 O136 2.266 . S
In130 O137 2.326 . S
In130 O138 2.266 . S
In130 O139 2.326 . S
In130 O141 2.294 . S
In130 O142 2.326 . S
O131 In130 2.294 . S
O131 C140 1.240 . S
O132 In130 2.326 . S
O132 C140 1.252 . S
C133 O136 1.252 . S
C133 O137 1.260 . S
C134 O141 1.240 . S
C134 O142 1.252 . S
C135 O138 1.252 . S
C135 O139 1.260 . S
O136 In130 2.266 . S
O136 C133 1.252 . S
O137 In130 2.326 . S
O137 C133 1.260 . S
O138 In130 2.266 . S
O138 C135 1.252 . S
O139 In130 2.326 . S
O139 C135 1.260 . S
C140 O131 1.240 . S
C140 O132 1.252 . S
O141 In130 2.294 . S
O141 C134 1.240 . S
O142 In130 2.326 . S
O142 C134 1.252 . S
In143 O144 2.294 . S
In143 O145 2.326 . S
In143 O149 2.266 . S
In143 O150 2.326 1_455 S
In143 O151 2.266 1_455 S
In143 O152 2.326 . S
In143 O154 2.294 1_455 S
In143 O155 2.326 . S
O144 In143 2.294 . S
O144 C153 1.240 . S
O145 In143 2.326 . S
O145 C153 1.252 . S
C146 O149 1.252 1_655 S
C146 O150 1.260 . S
C147 O154 1.240 . S
C147 O155 1.252 1_655 S
C148 O151 1.252 . S
C148 O152 1.260 1_655 S
O149 In143 2.266 . S
O149 C146 1.252 1_455 S
O150 In143 2.326 1_655 S
O150 C146 1.260 . S
O151 In143 2.266 1_655 S
O151 C148 1.252 . S
O152 In143 2.326 . S
O152 C148 1.260 1_455 S
C153 O144 1.240 . S
C153 O145 1.252 . S
O154 In143 2.294 1_655 S
O154 C147 1.240 . S
O155 In143 2.326 . S
O155 C147 1.252 1_455 S
In156 O157 2.294 1_554 S
In156 O158 2.326 . S
In156 O162 2.266 1_554 S
In156 O163 2.326 . S
In156 O164 2.266 . S
In156 O165 2.326 1_554 S
In156 O167 2.294 . S
In156 O168 2.326 . S
O157 In156 2.294 1_556 S
O157 C166 1.240 1_556 S
O158 In156 2.326 . S
O158 C166 1.252 . S
C159 O162 1.252 1_554 S
C159 O163 1.260 . S
C160 O167 1.240 . S
C160 O168 1.252 . S
C161 O164 1.252 . S
C161 O165 1.260 1_554 S
O162 In156 2.266 1_556 S
O162 C159 1.252 1_556 S
O163 In156 2.326 . S
O163 C159 1.260 . S
O164 In156 2.266 . S
O164 C161 1.252 . S
O165 In156 2.326 1_556 S
O165 C161 1.260 1_556 S
C166 O157 1.240 1_554 S
C166 O158 1.252 . S
O167 In156 2.294 . S
O167 C160 1.240 . S
O168 In156 2.326 . S
O168 C160 1.252 . S
In169 O170 2.294 . S
In169 O171 2.326 . S
In169 O175 2.266 . S
In169 O176 2.326 . S
In169 O177 2.266 . S
In169 O178 2.326 . S
In169 O180 2.294 . S
In169 O181 2.326 . S
O170 In169 2.294 . S
O170 C179 1.240 . S
O171 In169 2.326 . S
O171 C179 1.252 . S
C172 O175 1.252 . S
C172 O176 1.260 . S
C173 O180 1.240 . S
C173 O181 1.252 . S
C174 O177 1.252 . S
C174 O178 1.260 . S
O175 In169 2.266 . S
O175 C172 1.252 . S
O176 In169 2.326 . S
O176 C172 1.260 . S
O177 In169 2.266 . S
O177 C174 1.252 . S
O178 In169 2.326 . S
O178 C174 1.260 . S
C179 O170 1.240 . S
C179 O171 1.252 . S
O180 In169 2.294 . S
O180 C173 1.240 . S
O181 In169 2.326 . S
O181 C173 1.252 . S
In182 O183 2.294 . S
In182 O184 2.326 . S
In182 O188 2.266 . S
In182 O189 2.326 . S
In182 O190 2.266 . S
In182 O191 2.326 . S
In182 O193 2.294 . S
In182 O194 2.326 . S
O183 In182 2.294 . S
O183 C192 1.240 . S
O184 In182 2.326 . S
O184 C192 1.252 . S
C185 O188 1.252 . S
C185 O189 1.260 . S
C186 O193 1.240 . S
C186 O194 1.252 . S
C187 O190 1.252 . S
C187 O191 1.260 . S
O188 In182 2.266 . S
O188 C185 1.252 . S
O189 In182 2.326 . S
O189 C185 1.260 . S
O190 In182 2.266 . S
O190 C187 1.252 . S
O191 In182 2.326 . S
O191 C187 1.260 . S
C192 O183 1.240 . S
C192 O184 1.252 . S
O193 In182 2.294 . S
O193 C186 1.240 . S
O194 In182 2.326 . S
O194 C186 1.252 . S
In195 O196 2.294 . S
In195 O197 2.326 . S
In195 O201 2.266 . S
In195 O202 2.326 . S
In195 O203 2.266 . S
In195 O204 2.326 . S
In195 O206 2.294 . S
In195 O207 2.326 . S
O196 In195 2.294 . S
O196 C205 1.240 . S
O197 In195 2.326 . S
O197 C205 1.252 . S
C198 O201 1.252 . S
C198 O202 1.260 . S
C199 O206 1.240 . S
C199 O207 1.252 . S
C200 O203 1.252 . S
C200 O204 1.260 . S
O201 In195 2.266 . S
O201 C198 1.252 . S
O202 In195 2.326 . S
O202 C198 1.260 . S
O203 In195 2.266 . S
O203 C200 1.252 . S
O204 In195 2.326 . S
O204 C200 1.260 . S
C205 O196 1.240 . S
C205 O197 1.252 . S
O206 In195 2.294 . S
O206 C199 1.240 . S
O207 In195 2.326 . S
O207 C199 1.252 . S
C208 C209 1.349 . S
C208 C210 1.327 . S
C208 H233 0.950 . S
C209 C208 1.349 . S
C209 C225 1.349 . S
C210 C208 1.327 . S
C210 C229 1.429 . S
C210 H234 0.950 . S
C211 C228 1.574 . S
C211 C230 1.368 . S
C211 H235 0.949 . S
H212 C216 0.949 . S
C213 C214 1.359 . S
C213 C215 1.343 . S
C213 H236 0.923 1_554 S
C214 C213 1.359 . S
C214 C226 1.349 . S
C215 C213 1.343 . S
C215 C231 1.429 . S
C215 H237 0.950 . S
C216 H212 0.949 . S
C216 C224 1.574 . S
C216 C232 1.368 . S
H217 C225 0.950 . S
H218 C223 0.950 . S
H219 C224 0.949 . S
H220 C226 0.950 . S
H221 C227 0.950 . S
H222 C228 0.949 . S
C223 H218 0.950 . S
C223 C225 1.327 . S
C223 C229 1.429 . S
C224 C216 1.574 . S
C224 H219 0.949 . S
C224 C230 1.368 . S
C225 C209 1.349 . S
C225 H217 0.950 . S
C225 C223 1.327 . S
C226 C214 1.349 . S
C226 H220 0.950 . S
C226 C227 1.327 . S
C227 H221 0.950 . S
C227 C226 1.327 . S
C227 C231 1.429 . S
C228 C211 1.574 . S
C228 H222 0.949 . S
C228 C232 1.368 . S
C229 C210 1.429 . S
C229 C223 1.429 . S
C229 C230 1.523 . S
C230 C211 1.368 . S
C230 C224 1.368 . S
C230 C229 1.523 . S
C231 C215 1.429 . S
C231 C227 1.429 . S
C231 C232 1.523 . S
C232 C216 1.368 . S
C232 C228 1.368 . S
C232 C231 1.523 . S
H233 C208 0.950 . S
H234 C210 0.950 . S
H235 C211 0.949 . S
H236 C213 0.923 1_556 S
H237 C215 0.950 . S
C238 C239 1.349 . S
C238 C240 1.327 . S
C238 H263 0.950 . S
C239 C238 1.349 . S
C239 C255 1.349 . S
C240 C238 1.327 . S
C240 C259 1.429 . S
C240 H264 0.950 . S
C241 C258 1.574 . S
C241 C260 1.368 . S
C241 H265 0.949 . S
H242 C246 0.949 . S
C243 C244 1.349 . S
C243 C245 1.327 . S
C243 H266 0.950 . S
C244 C243 1.349 . S
C244 C256 1.349 . S
C245 C243 1.327 . S
C245 C261 1.429 . S
C245 H267 0.950 . S
C246 H242 0.949 . S
C246 C254 1.574 . S
C246 C262 1.368 . S
H247 C255 0.950 . S
H248 C253 0.950 . S
H249 C254 0.949 . S
H250 C256 0.950 . S
H251 C257 0.950 . S
H252 C258 0.949 . S
C253 H248 0.950 . S
C253 C255 1.327 . S
C253 C259 1.429 . S
C254 C246 1.574 . S
C254 H249 0.949 . S
C254 C260 1.368 . S
C255 C239 1.349 . S
C255 H247 0.950 . S
C255 C253 1.327 . S
C256 C244 1.349 . S
C256 H250 0.950 . S
C256 C257 1.327 . S
C257 H251 0.950 . S
C257 C256 1.327 . S
C257 C261 1.429 . S
C258 C241 1.574 . S
C258 H252 0.949 . S
C258 C262 1.368 . S
C259 C240 1.429 . S
C259 C253 1.429 . S
C259 C260 1.523 . S
C260 C241 1.368 . S
C260 C254 1.368 . S
C260 C259 1.523 . S
C261 C245 1.429 . S
C261 C257 1.429 . S
C261 C262 1.523 . S
C262 C246 1.368 . S
C262 C258 1.368 . S
C262 C261 1.523 . S
H263 C238 0.950 . S
H264 C240 0.950 . S
H265 C241 0.949 . S
H266 C243 0.950 . S
H267 C245 0.950 . S
C268 C269 1.349 . S
C268 C270 1.327 . S
C268 H293 0.950 . S
C269 C268 1.349 . S
C269 C285 1.349 . S
C270 C268 1.327 . S
C270 C289 1.429 . S
C270 H294 0.950 . S
C271 C288 1.574 . S
C271 C290 1.368 . S
C271 H295 0.949 . S
H272 C276 0.949 . S
C273 C274 1.349 . S
C273 C275 1.327 . S
C273 H296 0.950 . S
C274 C273 1.349 . S
C274 C286 1.349 . S
C275 C273 1.327 . S
C275 C291 1.429 . S
C275 H297 0.950 . S
C276 H272 0.949 . S
C276 C284 1.574 . S
C276 C292 1.368 . S
H277 C285 0.950 . S
H278 C283 0.950 . S
H279 C284 0.949 . S
H280 C286 0.950 . S
H281 C287 0.950 . S
H282 C288 0.949 . S
C283 H278 0.950 . S
C283 C285 1.327 . S
C283 C289 1.429 . S
C284 C276 1.574 . S
C284 H279 0.949 . S
C284 C290 1.368 . S
C285 C269 1.349 . S
C285 H277 0.950 . S
C285 C283 1.327 . S
C286 C274 1.349 . S
C286 H280 0.950 . S
C286 C287 1.327 . S
C287 H281 0.950 . S
C287 C286 1.327 . S
C287 C291 1.429 . S
C288 C271 1.574 . S
C288 H282 0.949 . S
C288 C292 1.368 . S
C289 C270 1.429 . S
C289 C283 1.429 . S
C289 C290 1.523 . S
C290 C271 1.368 . S
C290 C284 1.368 . S
C290 C289 1.523 . S
C291 C275 1.429 . S
C291 C287 1.429 . S
C291 C292 1.523 . S
C292 C276 1.368 . S
C292 C288 1.368 . S
C292 C291 1.523 . S
H293 C268 0.950 . S
H294 C270 0.950 . S
H295 C271 0.949 . S
H296 C273 0.950 . S
H297 C275 0.950 . S
C298 C299 1.349 . S
C298 C300 1.327 . S
C298 H323 0.950 . S
C299 C298 1.349 . S
C299 C315 1.349 . S
C300 C298 1.327 . S
C300 C319 1.429 . S
C300 H324 0.950 . S
C301 C318 1.574 . S
C301 C320 1.368 . S
C301 H325 0.949 . S
H302 C306 0.949 . S
C303 C304 1.349 . S
C303 C305 1.327 . S
C303 H326 0.950 . S
C304 C303 1.349 . S
C304 C316 1.349 . S
C305 C303 1.327 . S
C305 C321 1.429 . S
C305 H327 0.950 . S
C306 H302 0.949 . S
C306 C314 1.574 . S
C306 C322 1.368 . S
H307 C315 0.950 . S
H308 C313 0.950 . S
H309 C314 0.949 . S
H310 C316 0.950 . S
H311 C317 0.950 . S
H312 C318 0.949 . S
C313 H308 0.950 . S
C313 C315 1.327 . S
C313 C319 1.429 . S
C314 C306 1.574 . S
C314 H309 0.949 . S
C314 C320 1.368 . S
C315 C299 1.349 . S
C315 H307 0.950 . S
C315 C313 1.327 . S
C316 C304 1.349 . S
C316 H310 0.950 . S
C316 C317 1.327 . S
C317 H311 0.950 . S
C317 C316 1.327 . S
C317 C321 1.429 . S
C318 C301 1.574 . S
C318 H312 0.949 . S
C318 C322 1.368 . S
C319 C300 1.429 . S
C319 C313 1.429 . S
C319 C320 1.523 . S
C320 C301 1.368 . S
C320 C314 1.368 . S
C320 C319 1.523 . S
C321 C305 1.429 . S
C321 C317 1.429 . S
C321 C322 1.523 . S
C322 C306 1.368 . S
C322 C318 1.368 . S
C322 C321 1.523 . S
H323 C298 0.950 . S
H324 C300 0.950 . S
H325 C301 0.949 . S
H326 C303 0.950 . S
H327 C305 0.950 . S
C328 C329 1.349 . S
C328 C330 1.327 . S
C328 H353 0.950 . S
C329 C328 1.349 . S
C329 C345 1.349 . S
C330 C328 1.327 . S
C330 C349 1.429 . S
C330 H354 0.950 . S
C331 C348 1.574 . S
C331 C350 1.368 . S
C331 H355 0.949 . S
H332 C336 0.949 . S
C333 C334 1.349 . S
C333 C335 1.327 . S
C333 H356 0.950 1_556 S
C334 C333 1.349 . S
C334 C346 1.349 . S
C335 C333 1.327 . S
C335 C351 1.429 . S
C335 H357 0.950 . S
C336 H332 0.949 . S
C336 C344 1.574 . S
C336 C352 1.368 . S
H337 C345 0.950 . S
H338 C343 0.950 . S
H339 C344 0.949 . S
H340 C346 0.950 . S
H341 C347 0.950 . S
H342 C348 0.949 . S
C343 H338 0.950 . S
C343 C345 1.327 . S
C343 C349 1.429 . S
C344 C336 1.574 . S
C344 H339 0.949 . S
C344 C350 1.368 . S
C345 C329 1.349 . S
C345 H337 0.950 . S
C345 C343 1.327 . S
C346 C334 1.349 . S
C346 H340 0.950 . S
C346 C347 1.327 . S
C347 H341 0.950 . S
C347 C346 1.327 . S
C347 C351 1.429 . S
C348 C331 1.574 . S
C348 H342 0.949 . S
C348 C352 1.368 . S
C349 C330 1.429 . S
C349 C343 1.429 . S
C349 C350 1.523 . S
C350 C331 1.368 . S
C350 C344 1.368 . S
C350 C349 1.523 . S
C351 C335 1.429 . S
C351 C347 1.429 . S
C351 C352 1.523 . S
C352 C336 1.368 . S
C352 C348 1.368 . S
C352 C351 1.523 . S
H353 C328 0.950 . S
H354 C330 0.950 . S
H355 C331 0.949 . S
H356 C333 0.950 1_554 S
H357 C335 0.950 . S
C358 C359 1.349 . S
C358 C360 1.327 . S
C358 H383 0.950 1_554 S
C359 C358 1.349 . S
C359 C375 1.349 . S
C360 C358 1.327 . S
C360 C379 1.429 . S
C360 H384 0.950 . S
C361 C378 1.574 . S
C361 C380 1.368 . S
C361 H385 0.949 . S
H362 C366 0.949 . S
C363 C364 1.349 . S
C363 C365 1.327 . S
C363 H386 0.950 . S
C364 C363 1.349 . S
C364 C376 1.349 . S
C365 C363 1.327 . S
C365 C381 1.429 . S
C365 H387 0.950 . S
C366 H362 0.949 . S
C366 C374 1.574 . S
C366 C382 1.368 . S
H367 C375 0.950 . S
H368 C373 0.950 . S
H369 C374 0.949 . S
H370 C376 0.950 . S
H371 C377 0.950 . S
H372 C378 0.949 . S
C373 H368 0.950 . S
C373 C375 1.327 . S
C373 C379 1.429 . S
C374 C366 1.574 . S
C374 H369 0.949 . S
C374 C380 1.368 . S
C375 C359 1.349 . S
C375 H367 0.950 . S
C375 C373 1.327 . S
C376 C364 1.349 . S
C376 H370 0.950 . S
C376 C377 1.327 . S
C377 H371 0.950 . S
C377 C376 1.327 . S
C377 C381 1.429 . S
C378 C361 1.574 . S
C378 H372 0.949 . S
C378 C382 1.368 . S
C379 C360 1.429 . S
C379 C373 1.429 . S
C379 C380 1.523 . S
C380 C361 1.368 . S
C380 C374 1.368 . S
C380 C379 1.523 . S
C381 C365 1.429 . S
C381 C377 1.429 . S
C381 C382 1.523 . S
C382 C366 1.368 . S
C382 C378 1.368 . S
C382 C381 1.523 . S
H383 C358 0.950 1_556 S
H384 C360 0.950 . S
H385 C361 0.949 . S
H386 C363 0.950 . S
H387 C365 0.950 . S
C388 C389 1.349 . S
C388 C390 1.327 . S
C388 H413 0.950 . S
C389 C388 1.349 . S
C389 C405 1.349 . S
C390 C388 1.327 . S
C390 C409 1.429 . S
C390 H414 0.950 . S
C391 C408 1.574 . S
C391 C410 1.368 . S
C391 H415 0.949 . S
H392 C396 0.949 . S
C393 C394 1.349 . S
C393 C395 1.327 . S
C393 H416 0.950 . S
C394 C393 1.349 . S
C394 C406 1.349 . S
C395 C393 1.327 . S
C395 C411 1.429 . S
C395 H417 0.950 . S
C396 H392 0.949 . S
C396 C404 1.574 . S
C396 C412 1.368 . S
H397 C405 0.950 1_455 S
H398 C403 0.950 1_455 S
H399 C404 0.949 . S
H400 C406 0.950 . S
H401 C407 0.950 . S
H402 C408 0.949 . S
C403 H398 0.950 1_655 S
C403 C405 1.327 . S
C403 C409 1.429 . S
C404 C396 1.574 . S
C404 H399 0.949 . S
C404 C410 1.368 . S
C405 C389 1.349 . S
C405 H397 0.950 1_655 S
C405 C403 1.327 . S
C406 C394 1.349 . S
C406 H400 0.950 . S
C406 C407 1.327 . S
C407 H401 0.950 . S
C407 C406 1.327 . S
C407 C411 1.429 . S
C408 C391 1.574 . S
C408 H402 0.949 . S
C408 C412 1.368 . S
C409 C390 1.429 . S
C409 C403 1.429 . S
C409 C410 1.523 . S
C410 C391 1.368 . S
C410 C404 1.368 . S
C410 C409 1.523 . S
C411 C395 1.429 . S
C411 C407 1.429 . S
C411 C412 1.523 . S
C412 C396 1.368 . S
C412 C408 1.368 . S
C412 C411 1.523 . S
H413 C388 0.950 . S
H414 C390 0.950 . S
H415 C391 0.949 . S
H416 C393 0.950 . S
H417 C395 0.950 . S
C418 C419 1.349 . S
C418 C420 1.327 . S
C418 H443 0.950 . S
C419 C418 1.349 . S
C419 C435 1.349 . S
C420 C418 1.327 . S
C420 C439 1.429 . S
C420 H444 0.950 . S
C421 C438 1.574 . S
C421 C440 1.368 . S
C421 H445 0.949 . S
H422 C426 0.949 . S
C423 C424 1.349 . S
C423 C425 1.327 . S
C423 H446 0.950 . S
C424 C423 1.349 . S
C424 C436 1.349 . S
C425 C423 1.327 . S
C425 C441 1.429 . S
C425 H447 0.950 . S
C426 H422 0.949 . S
C426 C434 1.574 . S
C426 C442 1.368 . S
H427 C435 0.950 . S
H428 C433 0.950 . S
H429 C434 0.949 . S
H430 C436 0.950 . S
H431 C437 0.950 . S
H432 C438 0.949 . S
C433 H428 0.950 . S
C433 C435 1.327 . S
C433 C439 1.429 . S
C434 C426 1.574 . S
C434 H429 0.949 . S
C434 C440 1.368 . S
C435 C419 1.349 . S
C435 H427 0.950 . S
C435 C433 1.327 . S
C436 C424 1.349 . S
C436 H430 0.950 . S
C436 C437 1.327 . S
C437 H431 0.950 . S
C437 C436 1.327 . S
C437 C441 1.429 . S
C438 C421 1.574 . S
C438 H432 0.949 . S
C438 C442 1.368 . S
C439 C420 1.429 . S
C439 C433 1.429 . S
C439 C440 1.523 . S
C440 C421 1.368 . S
C440 C434 1.368 . S
C440 C439 1.523 . S
C441 C425 1.429 . S
C441 C437 1.429 . S
C441 C442 1.523 . S
C442 C426 1.368 . S
C442 C438 1.368 . S
C442 C441 1.523 . S
H443 C418 0.950 . S
H444 C420 0.950 . S
H445 C421 0.949 . S
H446 C423 0.950 . S
H447 C425 0.950 . S
C448 C449 1.349 . S
C448 C450 1.327 . S
C448 H473 0.950 . S
C449 C448 1.349 . S
C449 C465 1.349 . S
C450 C448 1.327 . S
C450 C469 1.429 . S
C450 H474 0.950 . S
C451 C468 1.574 . S
C451 C470 1.368 . S
C451 H475 0.949 . S
H452 C456 0.949 . S
C453 C454 1.349 . S
C453 C455 1.327 . S
C453 H476 0.950 . S
C454 C453 1.349 . S
C454 C466 1.349 . S
C455 C453 1.327 . S
C455 C471 1.429 . S
C455 H477 0.950 . S
C456 H452 0.949 . S
C456 C464 1.574 . S
C456 C472 1.368 . S
H457 C465 0.950 . S
H458 C463 0.950 . S
H459 C464 0.949 . S
H460 C466 0.950 . S
H461 C467 0.950 . S
H462 C468 0.949 . S
C463 H458 0.950 . S
C463 C465 1.327 . S
C463 C469 1.429 . S
C464 C456 1.574 . S
C464 H459 0.949 . S
C464 C470 1.368 . S
C465 C449 1.349 . S
C465 H457 0.950 . S
C465 C463 1.327 . S
C466 C454 1.349 . S
C466 H460 0.950 . S
C466 C467 1.327 . S
C467 H461 0.950 . S
C467 C466 1.327 . S
C467 C471 1.429 . S
C468 C451 1.574 . S
C468 H462 0.949 . S
C468 C472 1.368 . S
C469 C450 1.429 . S
C469 C463 1.429 . S
C469 C470 1.523 . S
C470 C451 1.368 . S
C470 C464 1.368 . S
C470 C469 1.523 . S
C471 C455 1.429 . S
C471 C467 1.429 . S
C471 C472 1.523 . S
C472 C456 1.368 . S
C472 C468 1.368 . S
C472 C471 1.523 . S
H473 C448 0.950 . S
H474 C450 0.950 . S
H475 C451 0.949 . S
H476 C453 0.950 . S
H477 C455 0.950 . S
C478 C479 1.349 . S
C478 C480 1.327 . S
C478 H503 0.950 1_565 S
C479 C478 1.349 . S
C479 C495 1.349 . S
C480 C478 1.327 . S
C480 C499 1.429 . S
C480 H504 0.950 1_565 S
C481 C498 1.574 . S
C481 C500 1.368 1_655 S
C481 H505 0.949 . S
H482 C486 0.949 1_545 S
C483 C484 1.349 1_655 S
C483 C485 1.327 . S
C483 H506 0.950 . S
C484 C483 1.349 1_455 S
C484 C496 1.349 . S
C485 C483 1.327 . S
C485 C501 1.429 1_655 S
C485 H507 0.950 . S
C486 H482 0.949 1_565 S
C486 C494 1.574 . S
C486 C502 1.368 . S
H487 C495 0.950 1_655 S
H488 C493 0.950 1_655 S
H489 C494 0.949 1_545 S
H490 C496 0.950 1_545 S
H491 C497 0.950 1_545 S
H492 C498 0.949 . S
C493 H488 0.950 1_455 S
C493 C495 1.327 . S
C493 C499 1.429 . S
C494 C486 1.574 . S
C494 H489 0.949 1_565 S
C494 C500 1.368 . S
C495 C479 1.349 . S
C495 H487 0.950 1_455 S
C495 C493 1.327 . S
C496 C484 1.349 . S
C496 H490 0.950 1_565 S
C496 C497 1.327 . S
C497 H491 0.950 1_565 S
C497 C496 1.327 . S
C497 C501 1.429 . S
C498 C481 1.574 . S
C498 H492 0.949 . S
C498 C502 1.368 1_655 S
C499 C480 1.429 . S
C499 C493 1.429 . S
C499 C500 1.523 . S
C500 C481 1.368 1_455 S
C500 C494 1.368 . S
C500 C499 1.523 . S
C501 C485 1.429 1_455 S
C501 C497 1.429 . S
C501 C502 1.523 . S
C502 C486 1.368 . S
C502 C498 1.368 1_455 S
C502 C501 1.523 . S
H503 C478 0.950 1_545 S
H504 C480 0.950 1_545 S
H505 C481 0.949 . S
H506 C483 0.950 . S
H507 C485 0.950 . S
C508 C509 1.349 . S
C508 C510 1.327 . S
C508 H533 0.950 . S
C509 C508 1.349 . S
C509 C525 1.349 . S
C510 C508 1.327 . S
C510 C529 1.429 . S
C510 H534 0.950 . S
C511 C528 1.574 . S
C511 C530 1.368 1_554 S
C511 H535 0.949 1_554 S
H512 C516 0.949 . S
C513 C514 1.349 . S
C513 C515 1.327 . S
C513 H536 0.950 . S
C514 C513 1.349 . S
C514 C526 1.349 . S
C515 C513 1.327 . S
C515 C531 1.429 . S
C515 H537 0.950 . S
C516 H512 0.949 . S
C516 C524 1.574 . S
C516 C532 1.368 . S
H517 C525 0.950 . S
H518 C523 0.950 . S
H519 C524 0.947 1_556 S
H520 C526 0.950 . S
H521 C527 0.950 . S
H522 C528 0.949 . S
C523 H518 0.950 . S
C523 C525 1.327 . S
C523 C529 1.429 . S
C524 C516 1.574 . S
C524 H519 0.947 1_554 S
C524 C530 1.368 1_554 S
C525 C509 1.349 . S
C525 H517 0.950 . S
C525 C523 1.327 . S
C526 C514 1.349 . S
C526 H520 0.950 . S
C526 C527 1.327 . S
C527 H521 0.950 . S
C527 C526 1.327 . S
C527 C531 1.429 . S
C528 C511 1.574 . S
C528 H522 0.949 . S
C528 C532 1.368 . S
C529 C510 1.429 . S
C529 C523 1.429 . S
C529 C530 1.523 . S
C530 C511 1.368 1_556 S
C530 C524 1.368 1_556 S
C530 C529 1.523 . S
C531 C515 1.429 . S
C531 C527 1.429 . S
C531 C532 1.523 . S
C532 C516 1.368 . S
C532 C528 1.368 . S
C532 C531 1.523 . S
H533 C508 0.950 . S
H534 C510 0.950 . S
H535 C511 0.949 1_556 S
H536 C513 0.950 . S
H537 C515 0.950 . S
C538 C539 1.349 1_545 S
C538 C540 1.327 . S
C538 H563 0.950 . S
C539 C538 1.349 1_565 S
C539 C555 1.349 . S
C540 C538 1.327 . S
C540 C559 1.429 1_545 S
C540 H564 0.950 . S
C541 C558 1.574 . S
C541 C560 1.368 . S
C541 H565 0.949 . S
H542 C546 0.949 . S
C543 C544 1.349 . S
C543 C545 1.327 . S
C543 H566 0.950 . S
C544 C543 1.349 . S
C544 C556 1.349 1_565 S
C545 C543 1.327 . S
C545 C561 1.429 . S
C545 H567 0.950 . S
C546 H542 0.949 . S
C546 C554 1.574 . S
C546 C562 1.368 1_545 S
H547 C555 0.950 . S
H548 C553 0.950 . S
H549 C554 0.949 . S
H550 C556 0.950 . S
H551 C557 0.950 . S
H552 C558 0.949 . S
C553 H548 0.950 . S
C553 C555 1.327 . S
C553 C559 1.429 . S
C554 C546 1.574 . S
C554 H549 0.949 . S
C554 C560 1.368 1_545 S
C555 C539 1.349 . S
C555 H547 0.950 . S
C555 C553 1.327 . S
C556 C544 1.349 1_545 S
C556 H550 0.950 . S
C556 C557 1.327 . S
C557 H551 0.950 . S
C557 C556 1.327 . S
C557 C561 1.429 1_545 S
C558 C541 1.574 . S
C558 H552 0.949 . S
C558 C562 1.368 . S
C559 C540 1.429 1_565 S
C559 C553 1.429 . S
C559 C560 1.523 . S
C560 C541 1.368 . S
C560 C554 1.368 1_565 S
C560 C559 1.523 . S
C561 C545 1.429 . S
C561 C557 1.429 1_565 S
C561 C562 1.523 . S
C562 C546 1.368 1_565 S
C562 C558 1.368 . S
C562 C561 1.523 . S
H563 C538 0.950 . S
H564 C540 0.950 . S
H565 C541 0.949 . S
H566 C543 0.950 . S
H567 C545 0.950 . S
C568 C569 1.349 . S
C568 C570 1.327 . S
C568 H593 0.950 . S
C569 C568 1.349 . S
C569 C585 1.349 . S
C570 C568 1.327 . S
C570 C589 1.429 . S
C570 H594 0.950 . S
C571 C588 1.574 . S
C571 C590 1.368 . S
C571 H595 0.949 . S
H572 C576 0.949 . S
C573 C574 1.349 . S
C573 C575 1.327 . S
C573 H596 0.950 . S
C574 C573 1.349 . S
C574 C586 1.349 . S
C575 C573 1.327 . S
C575 C591 1.429 . S
C575 H597 0.950 . S
C576 H572 0.949 . S
C576 C584 1.574 . S
C576 C592 1.368 . S
H577 C585 0.950 . S
H578 C583 0.950 . S
H579 C584 0.949 . S
H580 C586 0.950 . S
H581 C587 0.950 . S
H582 C588 0.949 . S
C583 H578 0.950 . S
C583 C585 1.327 . S
C583 C589 1.429 . S
C584 C576 1.574 . S
C584 H579 0.949 . S
C584 C590 1.368 . S
C585 C569 1.349 . S
C585 H577 0.950 . S
C585 C583 1.327 . S
C586 C574 1.349 . S
C586 H580 0.950 . S
C586 C587 1.327 . S
C587 H581 0.950 . S
C587 C586 1.327 . S
C587 C591 1.429 . S
C588 C571 1.574 . S
C588 H582 0.949 . S
C588 C592 1.368 . S
C589 C570 1.429 . S
C589 C583 1.429 . S
C589 C590 1.523 . S
C590 C571 1.368 . S
C590 C584 1.368 . S
C590 C589 1.523 . S
C591 C575 1.429 . S
C591 C587 1.429 . S
C591 C592 1.523 . S
C592 C576 1.368 . S
C592 C588 1.368 . S
C592 C591 1.523 . S
H593 C568 0.950 . S
H594 C570 0.950 . S
H595 C571 0.949 . S
H596 C573 0.950 . S
H597 C575 0.950 . S
C598 C599 1.349 . S
C598 C600 1.327 . S
C598 H623 0.950 . S
C599 C598 1.349 . S
C599 C615 1.349 1_655 S
C600 C598 1.327 . S
C600 C619 1.429 . S
C600 H624 0.950 . S
C601 C618 1.574 . S
C601 C620 1.368 1_455 S
C601 H625 0.949 . S
H602 C606 0.949 . S
C603 C604 1.349 1_455 S
C603 C605 1.327 . S
C603 H626 0.950 . S
C604 C603 1.349 1_655 S
C604 C616 1.349 . S
C605 C603 1.327 . S
C605 C621 1.429 1_455 S
C605 H627 0.950 . S
C606 H602 0.949 . S
C606 C614 1.574 . S
C606 C622 1.368 . S
H607 C615 0.950 . S
H608 C613 0.950 . S
H609 C614 0.949 . S
H610 C616 0.950 . S
H611 C617 0.950 . S
H612 C618 0.949 . S
C613 H608 0.950 . S
C613 C615 1.327 . S
C613 C619 1.429 1_455 S
C614 C606 1.574 . S
C614 H609 0.949 . S
C614 C620 1.368 . S
C615 C599 1.349 1_455 S
C615 H607 0.950 . S
C615 C613 1.327 . S
C616 C604 1.349 . S
C616 H610 0.950 . S
C616 C617 1.327 . S
C617 H611 0.950 . S
C617 C616 1.327 . S
C617 C621 1.429 . S
C618 C601 1.574 . S
C618 H612 0.949 . S
C618 C622 1.368 1_455 S
C619 C600 1.429 . S
C619 C613 1.429 1_655 S
C619 C620 1.523 . S
C620 C601 1.368 1_655 S
C620 C614 1.368 . S
C620 C619 1.523 . S
C621 C605 1.429 1_655 S
C621 C617 1.429 . S
C621 C622 1.523 . S
C622 C606 1.368 . S
C622 C618 1.368 1_655 S
C622 C621 1.523 . S
H623 C598 0.950 . S
H624 C600 0.950 . S
H625 C601 0.949 . S
H626 C603 0.950 . S
H627 C605 0.950 . S
C628 C629 1.349 . S
C628 C630 1.327 . S
C628 H653 0.950 . S
C629 C628 1.349 . S
C629 C645 1.349 . S
C630 C628 1.327 . S
C630 C649 1.429 . S
C630 H654 0.950 . S
C631 C648 1.574 . S
C631 C650 1.368 . S
C631 H655 0.949 . S
H632 C636 0.949 . S
C633 C634 1.349 . S
C633 C635 1.327 . S
C633 H656 0.950 . S
C634 C633 1.349 . S
C634 C646 1.349 . S
C635 C633 1.327 . S
C635 C651 1.429 . S
C635 H657 0.950 . S
C636 H632 0.949 . S
C636 C644 1.574 . S
C636 C652 1.368 . S
H637 C645 0.950 . S
H638 C643 0.950 . S
H639 C644 0.949 . S
H640 C646 0.950 . S
H641 C647 0.950 . S
H642 C648 0.949 . S
C643 H638 0.950 . S
C643 C645 1.327 . S
C643 C649 1.429 . S
C644 C636 1.574 . S
C644 H639 0.949 . S
C644 C650 1.368 . S
C645 C629 1.349 . S
C645 H637 0.950 . S
C645 C643 1.327 . S
C646 C634 1.349 . S
C646 H640 0.950 . S
C646 C647 1.327 . S
C647 H641 0.950 . S
C647 C646 1.327 . S
C647 C651 1.429 . S
C648 C631 1.574 . S
C648 H642 0.949 . S
C648 C652 1.368 . S
C649 C630 1.429 . S
C649 C643 1.429 . S
C649 C650 1.523 1_655 S
C650 C631 1.368 . S
C650 C644 1.368 . S
C650 C649 1.523 1_455 S
C651 C635 1.429 . S
C651 C647 1.429 . S
C651 C652 1.523 . S
C652 C636 1.368 . S
C652 C648 1.368 . S
C652 C651 1.523 . S
H653 C628 0.950 . S
H654 C630 0.950 . S
H655 C631 0.949 . S
H656 C633 0.950 . S
H657 C635 0.950 . S
C658 C659 1.349 1_556 S
C658 C660 1.327 . S
C658 H683 0.950 . S
C659 C658 1.349 1_554 S
C659 C675 1.349 . S
C660 C658 1.327 . S
C660 C679 1.429 1_556 S
C660 H684 0.950 . S
C661 C678 1.574 . S
C661 C680 1.368 . S
C661 H685 0.949 . S
H662 C666 0.949 . S
C663 C664 1.349 . S
C663 C665 1.327 . S
C663 H686 0.950 . S
C664 C663 1.349 . S
C664 C676 1.349 1_554 S
C665 C663 1.327 . S
C665 C681 1.429 . S
C665 H687 0.950 . S
C666 H662 0.949 . S
C666 C674 1.574 . S
C666 C682 1.368 1_556 S
H667 C675 0.950 . S
H668 C673 0.950 . S
H669 C674 0.949 . S
H670 C676 0.950 . S
H671 C677 0.950 . S
H672 C678 0.949 . S
C673 H668 0.950 . S
C673 C675 1.327 . S
C673 C679 1.429 . S
C674 C666 1.574 . S
C674 H669 0.949 . S
C674 C680 1.368 1_556 S
C675 C659 1.349 . S
C675 H667 0.950 . S
C675 C673 1.327 . S
C676 C664 1.349 1_556 S
C676 H670 0.950 . S
C676 C677 1.327 . S
C677 H671 0.950 . S
C677 C676 1.327 . S
C677 C681 1.429 1_556 S
C678 C661 1.574 . S
C678 H672 0.949 . S
C678 C682 1.368 . S
C679 C660 1.429 1_554 S
C679 C673 1.429 . S
C679 C680 1.523 . S
C680 C661 1.368 . S
C680 C674 1.368 1_554 S
C680 C679 1.523 . S
C681 C665 1.429 . S
C681 C677 1.429 1_554 S
C681 C682 1.523 . S
C682 C666 1.368 1_554 S
C682 C678 1.368 . S
C682 C681 1.523 . S
H683 C658 0.950 . S
H684 C660 0.950 . S
H685 C661 0.949 . S
H686 C663 0.950 . S
H687 C665 0.950 . S
C688 C689 1.349 . S
C688 C690 1.327 . S
C688 H713 0.950 . S
C689 C688 1.349 . S
C689 C705 1.349 . S
C690 C688 1.327 . S
C690 C709 1.429 . S
C690 H714 0.950 . S
C691 C708 1.574 . S
C691 C710 1.368 . S
C691 H715 0.949 . S
H692 C696 0.949 . S
C693 C694 1.349 . S
C693 C695 1.327 . S
C693 H716 0.950 . S
C694 C693 1.349 . S
C694 C706 1.349 . S
C695 C693 1.327 . S
C695 C711 1.429 . S
C695 H717 0.950 . S
C696 H692 0.949 . S
C696 C704 1.574 . S
C696 C712 1.368 . S
H697 C705 0.950 . S
H698 C703 0.950 . S
H699 C704 0.949 . S
H700 C706 0.950 . S
H701 C707 0.950 . S
H702 C708 0.949 . S
C703 H698 0.950 . S
C703 C705 1.327 . S
C703 C709 1.429 . S
C704 C696 1.574 . S
C704 H699 0.949 . S
C704 C710 1.368 . S
C705 C689 1.349 . S
C705 H697 0.950 . S
C705 C703 1.327 . S
C706 C694 1.349 . S
C706 H700 0.950 . S
C706 C707 1.327 . S
C707 H701 0.950 . S
C707 C706 1.327 . S
C707 C711 1.429 . S
C708 C691 1.574 . S
C708 H702 0.949 . S
C708 C712 1.368 . S
C709 C690 1.429 . S
C709 C703 1.429 . S
C709 C710 1.523 . S
C710 C691 1.368 . S
C710 C704 1.368 . S
C710 C709 1.523 . S
C711 C695 1.429 . S
C711 C707 1.429 . S
C711 C712 1.523 . S
C712 C696 1.368 . S
C712 C708 1.368 . S
C712 C711 1.523 . S
H713 C688 0.950 . S
H714 C690 0.950 . S
H715 C691 0.949 . S
H716 C693 0.950 . S
H717 C695 0.950 . S
C718 C719 1.349 . S
C718 C720 1.327 . S
C718 H743 0.950 . S
C719 C718 1.349 . S
C719 C735 1.349 . S
C720 C718 1.327 . S
C720 C739 1.429 . S
C720 H744 0.950 . S
C721 C738 1.574 . S
C721 C740 1.368 . S
C721 H745 0.949 . S
H722 C726 0.949 . S
C723 C724 1.349 . S
C723 C725 1.327 . S
C723 H746 0.950 . S
C724 C723 1.349 . S
C724 C736 1.349 . S
C725 C723 1.327 . S
C725 C741 1.429 . S
C725 H747 0.950 . S
C726 H722 0.949 . S
C726 C734 1.574 . S
C726 C742 1.368 . S
H727 C735 0.950 . S
H728 C733 0.950 . S
H729 C734 0.949 . S
H730 C736 0.950 . S
H731 C737 0.950 . S
H732 C738 0.949 . S
C733 H728 0.950 . S
C733 C735 1.327 . S
C733 C739 1.429 . S
C734 C726 1.574 . S
C734 H729 0.949 . S
C734 C740 1.368 . S
C735 C719 1.349 . S
C735 H727 0.950 . S
C735 C733 1.327 . S
C736 C724 1.349 . S
C736 H730 0.950 . S
C736 C737 1.327 . S
C737 H731 0.950 . S
C737 C736 1.327 . S
C737 C741 1.429 . S
C738 C721 1.574 . S
C738 H732 0.949 . S
C738 C742 1.368 . S
C739 C720 1.429 . S
C739 C733 1.429 . S
C739 C740 1.523 . S
C740 C721 1.368 . S
C740 C734 1.368 . S
C740 C739 1.523 . S
C741 C725 1.429 . S
C741 C737 1.429 . S
C741 C742 1.523 . S
C742 C726 1.368 . S
C742 C738 1.368 . S
C742 C741 1.523 . S
H743 C718 0.950 . S
H744 C720 0.950 . S
H745 C721 0.949 . S
H746 C723 0.950 . S
H747 C725 0.950 . S
C748 C749 1.349 . S
C748 C750 1.327 . S
C748 H773 0.950 . S
C749 C748 1.349 . S
C749 C765 1.349 . S
C750 C748 1.327 . S
C750 C769 1.429 . S
C750 H774 0.950 . S
C751 C768 1.574 . S
C751 C770 1.368 . S
C751 H775 0.949 . S
H752 C756 0.949 . S
C753 C754 1.349 . S
C753 C755 1.327 1_655 S
C753 H776 0.950 . S
C754 C753 1.349 . S
C754 C766 1.349 . S
C755 C753 1.327 1_455 S
C755 C771 1.429 . S
C755 H777 0.950 . S
C756 H752 0.949 . S
C756 C764 1.574 . S
C756 C772 1.368 . S
H757 C765 0.950 . S
H758 C763 0.950 . S
H759 C764 0.949 . S
H760 C766 0.950 . S
H761 C767 0.950 . S
H762 C768 0.949 . S
C763 H758 0.950 . S
C763 C765 1.327 . S
C763 C769 1.429 . S
C764 C756 1.574 . S
C764 H759 0.949 . S
C764 C770 1.368 . S
C765 C749 1.349 . S
C765 H757 0.950 . S
C765 C763 1.327 . S
C766 C754 1.349 . S
C766 H760 0.950 . S
C766 C767 1.327 1_655 S
C767 H761 0.950 . S
C767 C766 1.327 1_455 S
C767 C771 1.429 . S
C768 C751 1.574 . S
C768 H762 0.949 . S
C768 C772 1.368 . S
C769 C750 1.429 . S
C769 C763 1.429 . S
C769 C770 1.523 . S
C770 C751 1.368 . S
C770 C764 1.368 . S
C770 C769 1.523 . S
C771 C755 1.429 . S
C771 C767 1.429 . S
C771 C772 1.523 . S
C772 C756 1.368 . S
C772 C768 1.368 . S
C772 C771 1.523 . S
H773 C748 0.950 . S
H774 C750 0.950 . S
H775 C751 0.949 . S
H776 C753 0.950 . S
H777 C755 0.950 . S
C778 C779 1.349 . S
C778 C780 1.327 . S
C778 H803 0.950 . S
C779 C778 1.349 . S
C779 C795 1.349 1_455 S
C780 C778 1.327 . S
C780 C799 1.429 . S
C780 H804 0.950 . S
C781 C798 1.574 . S
C781 C800 1.368 1_655 S
C781 H805 0.949 . S
H782 C786 0.949 . S
C783 C784 1.349 . S
C783 C785 1.327 . S
C783 H806 0.950 . S
C784 C783 1.349 . S
C784 C796 1.349 1_655 S
C785 C783 1.327 . S
C785 C801 1.429 . S
C785 H807 0.950 . S
C786 H782 0.949 . S
C786 C794 1.574 . S
C786 C802 1.368 1_455 S
H787 C795 0.950 . S
H788 C793 0.950 . S
H789 C794 0.949 . S
H790 C796 0.950 . S
H791 C797 0.950 . S
H792 C798 0.949 . S
C793 H788 0.950 . S
C793 C795 1.327 . S
C793 C799 1.429 1_655 S
C794 C786 1.574 . S
C794 H789 0.949 . S
C794 C800 1.368 . S
C795 C779 1.349 1_655 S
C795 H787 0.950 . S
C795 C793 1.327 . S
C796 C784 1.349 1_455 S
C796 H790 0.950 . S
C796 C797 1.327 . S
C797 H791 0.950 . S
C797 C796 1.327 . S
C797 C801 1.429 1_455 S
C798 C781 1.574 . S
C798 H792 0.949 . S
C798 C802 1.368 . S
C799 C780 1.429 . S
C799 C793 1.429 1_455 S
C799 C800 1.523 . S
C800 C781 1.368 1_455 S
C800 C794 1.368 . S
C800 C799 1.523 . S
C801 C785 1.429 . S
C801 C797 1.429 1_655 S
C801 C802 1.523 . S
C802 C786 1.368 1_655 S
C802 C798 1.368 . S
C802 C801 1.523 . S
H803 C778 0.950 . S
H804 C780 0.950 . S
H805 C781 0.949 . S
H806 C783 0.950 . S
H807 C785 0.950 . S
C808 C809 1.349 . S
C808 C810 1.327 . S
C808 H833 0.950 . S
C809 C808 1.349 . S
C809 C825 1.349 . S
C810 C808 1.327 . S
C810 C829 1.429 . S
C810 H834 0.950 . S
C811 C828 1.574 . S
C811 C830 1.368 . S
C811 H835 0.949 . S
H812 C816 0.949 . S
C813 C814 1.349 . S
C813 C815 1.327 . S
C813 H836 0.950 . S
C814 C813 1.349 . S
C814 C826 1.349 . S
C815 C813 1.327 . S
C815 C831 1.429 . S
C815 H837 0.950 . S
C816 H812 0.949 . S
C816 C824 1.574 . S
C816 C832 1.368 . S
H817 C825 0.950 . S
H818 C823 0.950 . S
H819 C824 0.949 . S
H820 C826 0.950 . S
H821 C827 0.950 . S
H822 C828 0.949 . S
C823 H818 0.950 . S
C823 C825 1.327 . S
C823 C829 1.429 . S
C824 C816 1.574 . S
C824 H819 0.949 . S
C824 C830 1.368 . S
C825 C809 1.349 . S
C825 H817 0.950 . S
C825 C823 1.327 . S
C826 C814 1.349 . S
C826 H820 0.950 . S
C826 C827 1.327 . S
C827 H821 0.950 . S
C827 C826 1.327 . S
C827 C831 1.429 . S
C828 C811 1.574 . S
C828 H822 0.949 . S
C828 C832 1.368 . S
C829 C810 1.429 . S
C829 C823 1.429 . S
C829 C830 1.523 . S
C830 C811 1.368 . S
C830 C824 1.368 . S
C830 C829 1.523 . S
C831 C815 1.429 . S
C831 C827 1.429 . S
C831 C832 1.523 . S
C832 C816 1.368 . S
C832 C828 1.368 . S
C832 C831 1.523 . S
H833 C808 0.950 . S
H834 C810 0.950 . S
H835 C811 0.949 . S
H836 C813 0.950 . S
H837 C815 0.950 . S
C838 C839 1.349 . S
C838 C840 1.327 . S
C838 H863 0.950 . S
C839 C838 1.349 . S
C839 C855 1.349 . S
C840 C838 1.327 . S
C840 C859 1.429 . S
C840 H864 0.950 . S
C841 C858 1.574 . S
C841 C860 1.368 . S
C841 H865 0.949 . S
H842 C846 0.949 1_565 S
C843 C844 1.349 . S
C843 C845 1.327 . S
C843 H866 0.950 . S
C844 C843 1.349 . S
C844 C856 1.349 . S
C845 C843 1.327 . S
C845 C861 1.429 . S
C845 H867 0.950 . S
C846 H842 0.949 1_545 S
C846 C854 1.574 . S
C846 C862 1.368 . S
H847 C855 0.950 . S
H848 C853 0.950 . S
H849 C854 0.949 . S
H850 C856 0.950 . S
H851 C857 0.950 . S
H852 C858 0.949 . S
C853 H848 0.950 . S
C853 C855 1.327 . S
C853 C859 1.429 . S
C854 C846 1.574 . S
C854 H849 0.949 . S
C854 C860 1.368 . S
C855 C839 1.349 . S
C855 H847 0.950 . S
C855 C853 1.327 . S
C856 C844 1.349 . S
C856 H850 0.950 . S
C856 C857 1.327 . S
C857 H851 0.950 . S
C857 C856 1.327 . S
C857 C861 1.429 . S
C858 C841 1.574 . S
C858 H852 0.949 . S
C858 C862 1.368 . S
C859 C840 1.429 . S
C859 C853 1.429 . S
C859 C860 1.523 . S
C860 C841 1.368 . S
C860 C854 1.368 . S
C860 C859 1.523 . S
C861 C845 1.429 . S
C861 C857 1.429 . S
C861 C862 1.523 1_565 S
C862 C846 1.368 . S
C862 C858 1.368 . S
C862 C861 1.523 1_545 S
H863 C838 0.950 . S
H864 C840 0.950 . S
H865 C841 0.949 . S
H866 C843 0.950 . S
H867 C845 0.950 . S
C868 C869 1.349 . S
C868 C870 1.327 . S
C868 H893 0.950 . S
C869 C868 1.349 . S
C869 C885 1.349 1_554 S
C870 C868 1.327 . S
C870 C889 1.429 . S
C870 H894 0.950 . S
C871 C888 1.574 . S
C871 C890 1.368 1_556 S
C871 H895 0.949 . S
H872 C876 0.949 . S
C873 C874 1.349 . S
C873 C875 1.327 . S
C873 H896 0.950 . S
C874 C873 1.349 . S
C874 C886 1.349 1_556 S
C875 C873 1.327 . S
C875 C891 1.429 . S
C875 H897 0.950 . S
C876 H872 0.949 . S
C876 C884 1.574 . S
C876 C892 1.368 1_554 S
H877 C885 0.950 . S
H878 C883 0.950 . S
H879 C884 0.949 . S
H880 C886 0.950 . S
H881 C887 0.950 . S
H882 C888 0.949 . S
C883 H878 0.950 . S
C883 C885 1.327 . S
C883 C889 1.429 1_556 S
C884 C876 1.574 . S
C884 H879 0.949 . S
C884 C890 1.368 . S
C885 C869 1.349 1_556 S
C885 H877 0.950 . S
C885 C883 1.327 . S
C886 C874 1.349 1_554 S
C886 H880 0.950 . S
C886 C887 1.327 . S
C887 H881 0.950 . S
C887 C886 1.327 . S
C887 C891 1.429 1_554 S
C888 C871 1.574 . S
C888 H882 0.949 . S
C888 C892 1.368 . S
C889 C870 1.429 . S
C889 C883 1.429 1_554 S
C889 C890 1.523 . S
C890 C871 1.368 1_554 S
C890 C884 1.368 . S
C890 C889 1.523 . S
C891 C875 1.429 . S
C891 C887 1.429 1_556 S
C891 C892 1.523 . S
C892 C876 1.368 1_556 S
C892 C888 1.368 . S
C892 C891 1.523 . S
H893 C868 0.950 . S
H894 C870 0.950 . S
H895 C871 0.949 . S
H896 C873 0.950 . S
H897 C875 0.950 . S
C898 C899 1.349 . S
C898 C900 1.327 . S
C898 H923 0.950 . S
C899 C898 1.349 . S
C899 C915 1.349 . S
C900 C898 1.327 . S
C900 C919 1.429 . S
C900 H924 0.950 . S
C901 C918 1.574 . S
C901 C920 1.368 . S
C901 H925 0.949 . S
H902 C906 0.949 . S
C903 C904 1.349 . S
C903 C905 1.327 . S
C903 H926 0.950 . S
C904 C903 1.349 . S
C904 C916 1.349 . S
C905 C903 1.327 . S
C905 C921 1.429 . S
C905 H927 0.950 . S
C906 H902 0.949 . S
C906 C914 1.574 . S
C906 C922 1.368 . S
H907 C915 0.950 . S
H908 C913 0.950 . S
H909 C914 0.949 . S
H910 C916 0.950 . S
H911 C917 0.950 . S
H912 C918 0.949 . S
C913 H908 0.950 . S
C913 C915 1.327 . S
C913 C919 1.429 . S
C914 C906 1.574 . S
C914 H909 0.949 . S
C914 C920 1.368 . S
C915 C899 1.349 . S
C915 H907 0.950 . S
C915 C913 1.327 . S
C916 C904 1.349 . S
C916 H910 0.950 . S
C916 C917 1.327 . S
C917 H911 0.950 . S
C917 C916 1.327 . S
C917 C921 1.429 . S
C918 C901 1.574 . S
C918 H912 0.949 . S
C918 C922 1.368 . S
C919 C900 1.429 . S
C919 C913 1.429 . S
C919 C920 1.523 . S
C920 C901 1.368 . S
C920 C914 1.368 . S
C920 C919 1.523 . S
C921 C905 1.429 . S
C921 C917 1.429 . S
C921 C922 1.523 1_565 S
C922 C906 1.368 . S
C922 C918 1.368 . S
C922 C921 1.523 1_545 S
H923 C898 0.950 . S
H924 C900 0.950 . S
H925 C901 0.949 . S
H926 C903 0.950 . S
H927 C905 0.950 . S
C928 C929 1.349 . S
C928 C930 1.327 . S
C928 H953 0.950 1_565 S
C929 C928 1.349 . S
C929 C945 1.349 . S
C930 C928 1.327 . S
C930 C949 1.429 . S
C930 H954 0.950 1_565 S
C931 C948 1.574 . S
C931 C950 1.368 . S
C931 H955 0.949 1_556 S
H932 C936 0.949 1_545 S
C933 C934 1.349 1_554 S
C933 C935 1.327 . S
C933 H956 0.950 . S
C934 C933 1.349 1_556 S
C934 C946 1.349 . S
C935 C933 1.327 . S
C935 C951 1.429 1_554 S
C935 H957 0.950 . S
C936 H932 0.949 1_565 S
C936 C944 1.574 . S
C936 C952 1.368 . S
H937 C945 0.950 1_554 S
H938 C943 0.950 1_554 S
H939 C944 0.949 1_545 S
H940 C946 0.950 1_545 S
H941 C947 0.950 1_545 S
H942 C948 0.949 1_554 S
C943 H938 0.950 1_556 S
C943 C945 1.327 . S
C943 C949 1.429 . S
C944 C936 1.574 . S
C944 H939 0.949 1_565 S
C944 C950 1.368 . S
C945 C929 1.349 . S
C945 H937 0.950 1_556 S
C945 C943 1.327 . S
C946 C934 1.349 . S
C946 H940 0.950 1_565 S
C946 C947 1.327 . S
C947 H941 0.950 1_565 S
C947 C946 1.327 . S
C947 C951 1.429 . S
C948 C931 1.574 . S
C948 H942 0.949 1_556 S
C948 C952 1.368 . S
C949 C930 1.429 . S
C949 C943 1.429 . S
C949 C950 1.523 . S
C950 C931 1.368 . S
C950 C944 1.368 . S
C950 C949 1.523 . S
C951 C935 1.429 1_556 S
C951 C947 1.429 . S
C951 C952 1.523 . S
C952 C936 1.368 . S
C952 C948 1.368 . S
C952 C951 1.523 . S
H953 C928 0.950 1_545 S
H954 C930 0.950 1_545 S
H955 C931 0.949 1_554 S
H956 C933 0.950 . S
H957 C935 0.950 . S
C958 C959 1.349 . S
C958 C960 1.327 . S
C958 H983 0.950 . S
C959 C958 1.349 . S
C959 C975 1.349 . S
C960 C958 1.327 . S
C960 C979 1.429 . S
C960 H984 0.950 . S
C961 C978 1.574 . S
C961 C980 1.368 . S
C961 H985 0.949 . S
H962 C966 0.949 . S
C963 C964 1.349 . S
C963 C965 1.327 . S
C963 H986 0.950 . S
C964 C963 1.349 . S
C964 C976 1.349 . S
C965 C963 1.327 . S
C965 C981 1.429 . S
C965 H987 0.950 . S
C966 H962 0.949 . S
C966 C974 1.574 . S
C966 C982 1.368 . S
H967 C975 0.950 . S
H968 C973 0.950 . S
H969 C974 0.949 . S
H970 C976 0.950 . S
H971 C977 0.950 . S
H972 C978 0.949 . S
C973 H968 0.950 . S
C973 C975 1.327 . S
C973 C979 1.429 . S
C974 C966 1.574 . S
C974 H969 0.949 . S
C974 C980 1.368 . S
C975 C959 1.349 . S
C975 H967 0.950 . S
C975 C973 1.327 . S
C976 C964 1.349 . S
C976 H970 0.950 . S
C976 C977 1.327 . S
C977 H971 0.950 . S
C977 C976 1.327 . S
C977 C981 1.429 . S
C978 C961 1.574 . S
C978 H972 0.949 . S
C978 C982 1.368 . S
C979 C960 1.429 . S
C979 C973 1.429 . S
C979 C980 1.523 . S
C980 C961 1.368 . S
C980 C974 1.368 . S
C980 C979 1.523 . S
C981 C965 1.429 . S
C981 C977 1.429 . S
C981 C982 1.523 . S
C982 C966 1.368 . S
C982 C978 1.368 . S
C982 C981 1.523 . S
H983 C958 0.950 . S
H984 C960 0.950 . S
H985 C961 0.949 . S
H986 C963 0.950 . S
H987 C965 0.950 . S
C988 C989 1.349 . S
C988 C990 1.327 . S
C988 H1013 0.950 . S
C989 C988 1.349 . S
C989 C1005 1.349 . S
C990 C988 1.327 . S
C990 C1009 1.429 . S
C990 H1014 0.950 . S
C991 C1008 1.574 . S
C991 C1010 1.368 . S
C991 H1015 0.949 . S
H992 C996 0.949 . S
C993 C994 1.349 . S
C993 C995 1.327 . S
C993 H1016 0.950 . S
C994 C993 1.349 . S
C994 C1006 1.349 . S
C995 C993 1.327 . S
C995 C1011 1.429 . S
C995 H1017 0.950 . S
C996 H992 0.949 . S
C996 C1004 1.574 . S
C996 C1012 1.368 . S
H997 C1005 0.950 . S
H998 C1003 0.950 . S
H999 C1004 0.949 . S
H1000 C1006 0.950 . S
H1001 C1007 0.950 . S
H1002 C1008 0.949 . S
C1003 H998 0.950 . S
C1003 C1005 1.327 . S
C1003 C1009 1.429 . S
C1004 C996 1.574 . S
C1004 H999 0.949 . S
C1004 C1010 1.368 . S
C1005 C989 1.349 . S
C1005 H997 0.950 . S
C1005 C1003 1.327 . S
C1006 C994 1.349 . S
C1006 H1000 0.950 . S
C1006 C1007 1.327 . S
C1007 H1001 0.950 . S
C1007 C1006 1.327 . S
C1007 C1011 1.429 . S
C1008 C991 1.574 . S
C1008 H1002 0.949 . S
C1008 C1012 1.368 . S
C1009 C990 1.429 . S
C1009 C1003 1.429 . S
C1009 C1010 1.523 . S
C1010 C991 1.368 . S
C1010 C1004 1.368 . S
C1010 C1009 1.523 . S
C1011 C995 1.429 . S
C1011 C1007 1.429 . S
C1011 C1012 1.523 . S
C1012 C996 1.368 . S
C1012 C1008 1.368 . S
C1012 C1011 1.523 . S
H1013 C988 0.950 . S
H1014 C990 0.950 . S
H1015 C991 0.949 . S
H1016 C993 0.950 . S
H1017 C995 0.950 . S
C1018 C1019 1.349 . S
C1018 C1020 1.327 . S
C1018 H1043 0.950 . S
C1019 C1018 1.349 . S
C1019 C1035 1.349 . S
C1020 C1018 1.327 . S
C1020 C1039 1.429 . S
C1020 H1044 0.950 . S
C1021 C1038 1.574 . S
C1021 C1040 1.368 1_554 S
C1021 H1045 0.949 . S
H1022 C1026 0.949 . S
C1023 C1024 1.349 . S
C1023 C1025 1.327 . S
C1023 H1046 0.950 . S
C1024 C1023 1.349 . S
C1024 C1036 1.349 . S
C1025 C1023 1.327 . S
C1025 C1041 1.429 . S
C1025 H1047 0.950 . S
C1026 H1022 0.949 . S
C1026 C1034 1.576 . S
C1026 C1042 1.368 . S
H1027 C1035 0.950 . S
H1028 C1033 0.950 . S
H1029 C1034 0.948 1_556 S
H1030 C1036 0.950 . S
H1031 C1037 0.950 . S
H1032 C1038 0.949 . S
C1033 H1028 0.950 . S
C1033 C1035 1.327 . S
C1033 C1039 1.429 . S
C1034 C1026 1.576 . S
C1034 H1029 0.948 1_554 S
C1034 C1040 1.368 1_554 S
C1035 C1019 1.349 . S
C1035 H1027 0.950 . S
C1035 C1033 1.327 . S
C1036 C1024 1.349 . S
C1036 H1030 0.950 . S
C1036 C1037 1.327 . S
C1037 H1031 0.950 . S
C1037 C1036 1.327 . S
C1037 C1041 1.429 . S
C1038 C1021 1.574 . S
C1038 H1032 0.949 . S
C1038 C1042 1.368 . S
C1039 C1020 1.429 . S
C1039 C1033 1.429 . S
C1039 C1040 1.523 . S
C1040 C1021 1.368 1_556 S
C1040 C1034 1.368 1_556 S
C1040 C1039 1.523 . S
C1041 C1025 1.429 . S
C1041 C1037 1.429 . S
C1041 C1042 1.523 . S
C1042 C1026 1.368 . S
C1042 C1038 1.368 . S
C1042 C1041 1.523 . S
H1043 C1018 0.950 . S
H1044 C1020 0.950 . S
H1045 C1021 0.949 . S
H1046 C1023 0.950 . S
H1047 C1025 0.950 . S
C1048 C1049 1.349 . S
C1048 C1050 1.327 . S
C1048 H1073 0.950 . S
C1049 C1048 1.349 . S
C1049 C1065 1.349 . S
C1050 C1048 1.327 . S
C1050 C1069 1.429 . S
C1050 H1074 0.950 . S
C1051 C1068 1.574 . S
C1051 C1070 1.368 . S
C1051 H1075 0.949 . S
H1052 C1056 0.949 . S
C1053 C1054 1.349 . S
C1053 C1055 1.327 . S
C1053 H1076 0.950 . S
C1054 C1053 1.349 . S
C1054 C1066 1.349 . S
C1055 C1053 1.327 . S
C1055 C1071 1.429 . S
C1055 H1077 0.950 . S
C1056 H1052 0.949 . S
C1056 C1064 1.574 . S
C1056 C1072 1.368 . S
H1057 C1065 0.950 . S
H1058 C1063 0.950 . S
H1059 C1064 0.949 . S
H1060 C1066 0.950 . S
H1061 C1067 0.950 . S
H1062 C1068 0.949 . S
C1063 H1058 0.950 . S
C1063 C1065 1.327 . S
C1063 C1069 1.429 . S
C1064 C1056 1.574 . S
C1064 H1059 0.949 . S
C1064 C1070 1.368 . S
C1065 C1049 1.349 . S
C1065 H1057 0.950 . S
C1065 C1063 1.327 . S
C1066 C1054 1.349 . S
C1066 H1060 0.950 . S
C1066 C1067 1.327 . S
C1067 H1061 0.950 . S
C1067 C1066 1.327 . S
C1067 C1071 1.429 . S
C1068 C1051 1.574 . S
C1068 H1062 0.949 . S
C1068 C1072 1.368 . S
C1069 C1050 1.429 . S
C1069 C1063 1.429 . S
C1069 C1070 1.523 . S
C1070 C1051 1.368 . S
C1070 C1064 1.368 . S
C1070 C1069 1.523 . S
C1071 C1055 1.429 . S
C1071 C1067 1.429 . S
C1071 C1072 1.523 . S
C1072 C1056 1.368 . S
C1072 C1068 1.368 . S
C1072 C1071 1.523 . S
H1073 C1048 0.950 . S
H1074 C1050 0.950 . S
H1075 C1051 0.949 . S
H1076 C1053 0.950 . S
H1077 C1055 0.950 . S
C1078 C1079 1.349 . S
C1078 C1080 1.327 . S
C1078 H1103 0.950 . S
C1079 C1078 1.349 . S
C1079 C1095 1.349 . S
C1080 C1078 1.327 . S
C1080 C1099 1.429 . S
C1080 H1104 0.950 . S
C1081 C1098 1.574 . S
C1081 C1100 1.368 . S
C1081 H1105 0.949 . S
H1082 C1086 0.949 . S
C1083 C1084 1.349 . S
C1083 C1085 1.327 . S
C1083 H1106 0.950 . S
C1084 C1083 1.349 . S
C1084 C1096 1.349 . S
C1085 C1083 1.327 . S
C1085 C1101 1.429 . S
C1085 H1107 0.950 . S
C1086 H1082 0.949 . S
C1086 C1094 1.574 . S
C1086 C1102 1.368 . S
H1087 C1095 0.950 . S
H1088 C1093 0.950 . S
H1089 C1094 0.949 . S
H1090 C1096 0.950 . S
H1091 C1097 0.950 . S
H1092 C1098 0.949 . S
C1093 H1088 0.950 . S
C1093 C1095 1.327 . S
C1093 C1099 1.429 . S
C1094 C1086 1.574 . S
C1094 H1089 0.949 . S
C1094 C1100 1.368 . S
C1095 C1079 1.349 . S
C1095 H1087 0.950 . S
C1095 C1093 1.327 . S
C1096 C1084 1.349 . S
C1096 H1090 0.950 . S
C1096 C1097 1.327 . S
C1097 H1091 0.950 . S
C1097 C1096 1.327 . S
C1097 C1101 1.429 . S
C1098 C1081 1.574 . S
C1098 H1092 0.949 . S
C1098 C1102 1.368 . S
C1099 C1080 1.429 . S
C1099 C1093 1.429 . S
C1099 C1100 1.523 . S
C1100 C1081 1.368 . S
C1100 C1094 1.368 . S
C1100 C1099 1.523 . S
C1101 C1085 1.429 . S
C1101 C1097 1.429 . S
C1101 C1102 1.523 . S
C1102 C1086 1.368 . S
C1102 C1098 1.368 . S
C1102 C1101 1.523 . S
H1103 C1078 0.950 . S
H1104 C1080 0.950 . S
H1105 C1081 0.949 . S
H1106 C1083 0.950 . S
H1107 C1085 0.950 . S
C1108 C1109 1.349 . S
C1108 C1110 1.327 . S
C1108 H1133 0.950 1_655 S
C1109 C1108 1.349 . S
C1109 C1125 1.349 . S
C1110 C1108 1.327 . S
C1110 C1129 1.429 . S
C1110 H1134 0.950 1_655 S
C1111 C1128 1.574 . S
C1111 C1130 1.368 . S
C1111 H1135 0.949 . S
H1112 C1116 0.949 . S
C1113 C1114 1.349 . S
C1113 C1115 1.327 . S
C1113 H1136 0.950 . S
C1114 C1113 1.349 . S
C1114 C1126 1.349 . S
C1115 C1113 1.327 . S
C1115 C1131 1.429 . S
C1115 H1137 0.950 . S
C1116 H1112 0.949 . S
C1116 C1124 1.574 . S
C1116 C1132 1.368 . S
H1117 C1125 0.950 . S
H1118 C1123 0.950 . S
H1119 C1124 0.949 1_455 S
H1120 C1126 0.950 . S
H1121 C1127 0.950 . S
H1122 C1128 0.949 . S
C1123 H1118 0.950 . S
C1123 C1125 1.327 . S
C1123 C1129 1.429 . S
C1124 C1116 1.574 . S
C1124 H1119 0.949 1_655 S
C1124 C1130 1.368 . S
C1125 C1109 1.349 . S
C1125 H1117 0.950 . S
C1125 C1123 1.327 . S
C1126 C1114 1.349 . S
C1126 H1120 0.950 . S
C1126 C1127 1.327 . S
C1127 H1121 0.950 . S
C1127 C1126 1.327 . S
C1127 C1131 1.429 . S
C1128 C1111 1.574 . S
C1128 H1122 0.949 . S
C1128 C1132 1.368 . S
C1129 C1110 1.429 . S
C1129 C1123 1.429 . S
C1129 C1130 1.523 . S
C1130 C1111 1.368 . S
C1130 C1124 1.368 . S
C1130 C1129 1.523 . S
C1131 C1115 1.429 . S
C1131 C1127 1.429 . S
C1131 C1132 1.523 . S
C1132 C1116 1.368 . S
C1132 C1128 1.368 . S
C1132 C1131 1.523 . S
H1133 C1108 0.950 1_455 S
H1134 C1110 0.950 1_455 S
H1135 C1111 0.949 . S
H1136 C1113 0.950 . S
H1137 C1115 0.950 . S
C1138 C1139 1.347 1_545 S
C1138 C1140 1.327 . S
C1138 H1163 0.950 . S
C1139 C1138 1.347 1_565 S
C1139 C1155 1.350 . S
C1140 C1138 1.327 . S
C1140 C1159 1.429 . S
C1140 H1164 0.950 . S
C1141 C1158 1.574 . S
C1141 C1160 1.368 1_565 S
C1141 H1165 0.949 . S
H1142 C1146 0.949 . S
C1143 C1144 1.349 1_565 S
C1143 C1145 1.327 . S
C1143 H1166 0.950 . S
C1144 C1143 1.349 1_545 S
C1144 C1156 1.349 . S
C1145 C1143 1.327 . S
C1145 C1161 1.429 1_565 S
C1145 H1167 0.950 . S
C1146 H1142 0.949 . S
C1146 C1154 1.574 . S
C1146 C1162 1.368 . S
H1147 C1155 0.950 . S
H1148 C1153 0.950 . S
H1149 C1154 0.949 . S
H1150 C1156 0.950 . S
H1151 C1157 0.950 . S
H1152 C1158 0.949 . S
C1153 H1148 0.950 . S
C1153 C1155 1.327 . S
C1153 C1159 1.429 1_565 S
C1154 C1146 1.574 . S
C1154 H1149 0.949 . S
C1154 C1160 1.368 . S
C1155 C1139 1.350 . S
C1155 H1147 0.950 . S
C1155 C1153 1.327 . S
C1156 C1144 1.349 . S
C1156 H1150 0.950 . S
C1156 C1157 1.327 . S
C1157 H1151 0.950 . S
C1157 C1156 1.327 . S
C1157 C1161 1.429 . S
C1158 C1141 1.574 . S
C1158 H1152 0.949 . S
C1158 C1162 1.368 1_565 S
C1159 C1140 1.429 . S
C1159 C1153 1.429 1_545 S
C1159 C1160 1.523 . S
C1160 C1141 1.368 1_545 S
C1160 C1154 1.368 . S
C1160 C1159 1.523 . S
C1161 C1145 1.429 1_545 S
C1161 C1157 1.429 . S
C1161 C1162 1.523 . S
C1162 C1146 1.368 . S
C1162 C1158 1.368 1_545 S
C1162 C1161 1.523 . S
H1163 C1138 0.950 . S
H1164 C1140 0.950 . S
H1165 C1141 0.949 . S
H1166 C1143 0.950 . S
H1167 C1145 0.950 . S
C209 C10 2.052 . S
C214 C95 2.053 1_554 S
C239 C17 2.024 . S
C244 C56 2.025 . S
C269 C75 2.063 . S
C274 C30 2.084 . S
C299 C49 2.061 . S
C304 C88 2.039 . S
C329 C114 1.983 . S
C334 C166 1.982 1_556 S
C359 C121 2.085 1_554 S
C364 C186 2.104 . S
C389 C147 2.068 . S
C394 C140 2.045 . S
C419 C205 1.925 . S
C424 C173 1.925 . S
C449 C3 1.243 . S
C454 C81 1.249 . S
C479 C94 0.561 . S
C484 C23 0.566 . S
C509 C31 1.739 . S
C514 C55 1.743 . S
C539 C70 0.854 1_565 S
C544 C44 0.867 . S
C569 C4 1.576 . S
C574 C192 1.581 . S
C599 C148 1.741 . S
C604 C16 1.741 . S
C629 C179 1.459 . S
C634 C36 1.462 . S
C659 C161 1.688 . S
C664 C42 1.681 . S
C689 C134 1.090 . S
C694 C57 1.103 . S
C719 C68 1.225 . S
C724 C198 1.218 . S
C749 C82 0.989 . S
C754 C107 0.999 . S
C779 C96 1.226 . S
C784 C122 1.233 . S
C809 C5 0.591 . S
C814 C62 0.586 . S
C839 C108 0.622 . S
C844 C172 0.626 . S
C869 C159 0.819 . S
C874 C127 0.812 . S
C899 C185 0.853 . S
C904 C135 0.839 . S
C929 C101 1.264 . S
C934 C43 1.263 . S
C959 C29 0.922 . S
C964 C83 0.901 . S
C989 C153 1.486 . S
C994 C199 1.484 . S
C1019 C174 1.213 . S
C1024 C133 1.220 . S
C1049 C200 0.550 . S
C1054 C160 0.544 . S
C1079 C187 1.743 . S
C1084 C109 1.741 . S
C1109 C146 0.868 . S
C1114 C120 0.858 . S
C1139 C18 1.045 1_565 S
C1144 C69 1.032 . S
