# Generated by pormake.
# Topology ukb, (4)-cn, num edge types: 1
# Building blocks:
#     Node 0, Type 0, BuildingBlock: TATPOV_clean_sbu_0, # of connection points: 4
#     Node 1, Type 0, BuildingBlock: TATPOV_clean_sbu_0, # of connection points: 4
#     Node 2, Type 0, BuildingBlock: TATPOV_clean_sbu_0, # of connection points: 4
#     Node 3, Type 0, BuildingBlock: TATPOV_clean_sbu_0, # of connection points: 4
#     Node 4, Type 0, BuildingBlock: TATPOV_clean_sbu_0, # of connection points: 4
#     Node 5, Type 0, BuildingBlock: TATPOV_clean_sbu_0, # of connection points: 4
#     Node 6, Type 0, BuildingBlock: TATPOV_clean_sbu_0, # of connection points: 4
#     Node 7, Type 0, BuildingBlock: TATPOV_clean_sbu_0, # of connection points: 4
#     Node 8, Type 0, BuildingBlock: TATPOV_clean_sbu_0, # of connection points: 4
#     Node 9, Type 0, BuildingBlock: TATPOV_clean_sbu_0, # of connection points: 4
#     Node 10, Type 0, BuildingBlock: TATPOV_clean_sbu_0, # of connection points: 4
#     Node 11, Type 0, BuildingBlock: TATPOV_clean_sbu_0, # of connection points: 4
#     Node 12, Type 0, BuildingBlock: TATPOV_clean_sbu_0, # of connection points: 4
#     Node 13, Type 0, BuildingBlock: TATPOV_clean_sbu_0, # of connection points: 4
#     Node 14, Type 0, BuildingBlock: TATPOV_clean_sbu_0, # of connection points: 4
#     Node 15, Type 0, BuildingBlock: TATPOV_clean_sbu_0, # of connection points: 4
#     Edge 16, Type (0, 0), BuildingBlock: OJICUG_clean_linker_0, # of connection points: 2
#     Edge 17, Type (0, 0), BuildingBlock: OJICUG_clean_linker_0, # of connection points: 2
#     Edge 18, Type (0, 0), BuildingBlock: OJICUG_clean_linker_0, # of connection points: 2
#     Edge 19, Type (0, 0), BuildingBlock: OJICUG_clean_linker_0, # of connection points: 2
#     Edge 20, Type (0, 0), BuildingBlock: OJICUG_clean_linker_0, # of connection points: 2
#     Edge 21, Type (0, 0), BuildingBlock: OJICUG_clean_linker_0, # of connection points: 2
#     Edge 22, Type (0, 0), BuildingBlock: OJICUG_clean_linker_0, # of connection points: 2
#     Edge 23, Type (0, 0), BuildingBlock: OJICUG_clean_linker_0, # of connection points: 2
#     Edge 24, Type (0, 0), BuildingBlock: OJICUG_clean_linker_0, # of connection points: 2
#     Edge 25, Type (0, 0), BuildingBlock: OJICUG_clean_linker_0, # of connection points: 2
#     Edge 26, Type (0, 0), BuildingBlock: OJICUG_clean_linker_0, # of connection points: 2
#     Edge 27, Type (0, 0), BuildingBlock: OJICUG_clean_linker_0, # of connection points: 2
#     Edge 28, Type (0, 0), BuildingBlock: OJICUG_clean_linker_0, # of connection points: 2
#     Edge 29, Type (0, 0), BuildingBlock: OJICUG_clean_linker_0, # of connection points: 2
#     Edge 30, Type (0, 0), BuildingBlock: OJICUG_clean_linker_0, # of connection points: 2
#     Edge 31, Type (0, 0), BuildingBlock: OJICUG_clean_linker_0, # of connection points: 2
#     Edge 32, Type (0, 0), BuildingBlock: OJICUG_clean_linker_0, # of connection points: 2
#     Edge 33, Type (0, 0), BuildingBlock: OJICUG_clean_linker_0, # of connection points: 2
#     Edge 34, Type (0, 0), BuildingBlock: OJICUG_clean_linker_0, # of connection points: 2
#     Edge 35, Type (0, 0), BuildingBlock: OJICUG_clean_linker_0, # of connection points: 2
#     Edge 36, Type (0, 0), BuildingBlock: OJICUG_clean_linker_0, # of connection points: 2
#     Edge 37, Type (0, 0), BuildingBlock: OJICUG_clean_linker_0, # of connection points: 2
#     Edge 38, Type (0, 0), BuildingBlock: OJICUG_clean_linker_0, # of connection points: 2
#     Edge 39, Type (0, 0), BuildingBlock: OJICUG_clean_linker_0, # of connection points: 2
#     Edge 40, Type (0, 0), BuildingBlock: OJICUG_clean_linker_0, # of connection points: 2
#     Edge 41, Type (0, 0), BuildingBlock: OJICUG_clean_linker_0, # of connection points: 2
#     Edge 42, Type (0, 0), BuildingBlock: OJICUG_clean_linker_0, # of connection points: 2
#     Edge 43, Type (0, 0), BuildingBlock: OJICUG_clean_linker_0, # of connection points: 2
#     Edge 44, Type (0, 0), BuildingBlock: OJICUG_clean_linker_0, # of connection points: 2
#     Edge 45, Type (0, 0), BuildingBlock: OJICUG_clean_linker_0, # of connection points: 2
#     Edge 46, Type (0, 0), BuildingBlock: OJICUG_clean_linker_0, # of connection points: 2
#     Edge 47, Type (0, 0), BuildingBlock: OJICUG_clean_linker_0, # of connection points: 2
# Relax obj value: 0.142
# Max RMSD: 0.150
# Mean RMSD: 0.150
data_MOF--net-ukb--node1-TATPOV_clean_sbu_0--edge1-OJICUG_clean_linker_0
_symmetry_space_group_name_H-M    P1
_symmetry_Int_Tables_number       1
_symmetry_cell_setting            triclinic
loop_
_symmetry_equiv_pos_as_xyz
'x, y, z'
_cell_length_a     31.505507
_cell_length_b     31.643975
_cell_length_c     29.274221
_cell_angle_alpha  90.258856
_cell_angle_beta   89.96693
_cell_angle_gamma 90.004521
loop_
_atom_site_label
_atom_site_type_symbol
_atom_site_fract_x
_atom_site_fract_y
_atom_site_fract_z
_atom_type_partial_charge
Zn0 Zn 0.56733 0.27367 0.09007 0.0
Zn1 Zn 0.5079 0.23617 0.1406 0.0
O2 O 0.47782 0.24571 0.07848 0.0
O3 O 0.5259 0.28098 0.03949 0.0
O4 O 0.46492 0.20477 0.17826 0.0
O5 O 0.60502 0.22146 0.09507 0.0
O6 O 0.55583 0.19282 0.13824 0.0
C7 C 0.48912 0.26532 0.04256 0.0
C8 C 0.55108 0.31799 0.17338 0.0
O9 O 0.52509 0.28779 0.18042 0.0
O10 O 0.57216 0.31959 0.13665 0.0
C11 C 0.42481 0.20639 0.17395 0.0
O12 O 0.40803 0.23212 0.14385 0.0
C13 C 0.59216 0.19091 0.11927 0.0
Zn14 Zn 0.27419 0.59929 0.607 0.0
Zn15 Zn 0.29971 0.52363 0.63417 0.0
O16 O 0.29424 0.51755 0.56374 0.0
O17 O 0.2779 0.58225 0.54222 0.0
O18 O 0.32616 0.46828 0.65142 0.0
O19 O 0.32431 0.62825 0.63572 0.0
O20 O 0.34478 0.56541 0.65886 0.0
C21 C 0.28628 0.54426 0.53248 0.0
C22 C 0.21469 0.55635 0.66692 0.0
O23 O 0.24327 0.52799 0.66965 0.0
O24 O 0.22016 0.58848 0.64196 0.0
C25 C 0.30886 0.43634 0.66983 0.0
O26 O 0.26823 0.43728 0.6799 0.0
C27 C 0.35062 0.60522 0.65667 0.0
Zn28 Zn 0.90437 0.2385 0.11949 0.0
Zn29 Zn 0.00942 0.2937 0.16618 0.0
O30 O 0.03128 0.26864 0.10361 0.0
O31 O 0.96726 0.25009 0.11517 0.0
O32 O 0.05194 0.33758 0.18564 0.0
O33 O 0.88588 0.29954 0.1328 0.0
O34 O 0.94825 0.32389 0.16087 0.0
C35 C 0.99916 0.2489 0.08907 0.0
C36 C 0.97051 0.22623 0.20109 0.0
O37 O 1.00297 0.24601 0.21526 0.0
O38 O 0.95494 0.23905 0.1638 0.0
C39 C 0.08946 0.32876 0.19838 0.0
O40 O 0.10101 0.289 0.20165 0.0
C41 C 0.90857 0.32899 0.15085 0.0
Zn42 Zn 0.26993 0.91731 0.64272 0.0
Zn43 Zn 0.22399 0.97213 0.68768 0.0
O44 O 0.24317 1.00415 0.6293 0.0
O45 O 0.28759 0.95955 0.5968 0.0
O46 O 0.18482 0.01464 0.7171 0.0
O47 O 0.21953 0.87888 0.63266 0.0
O48 O 0.18279 0.92252 0.67579 0.0
C49 C 0.2699 0.99534 0.59797 0.0
C50 C 0.30127 0.93094 0.73287 0.0
O51 O 0.27062 0.95724 0.73598 0.0
O52 O 0.30699 0.90974 0.69672 0.0
C53 C 0.19512 0.05001 0.73462 0.0
O54 O 0.23537 0.06061 0.7371 0.0
C55 C 0.18518 0.88833 0.65271 0.0
Zn56 Zn 0.56772 0.24825 0.81379 0.0
Zn57 Zn 0.50575 0.28053 0.76279 0.0
O58 O 0.47811 0.27244 0.82651 0.0
O59 O 0.52798 0.24025 0.86588 0.0
O60 O 0.45974 0.30927 0.727 0.0
O61 O 0.60252 0.3021 0.80622 0.0
O62 O 0.55271 0.32515 0.76007 0.0
C63 C 0.49061 0.25444 0.86291 0.0
C64 C 0.55034 0.19923 0.73304 0.0
O65 O 0.52237 0.22744 0.72529 0.0
O66 O 0.57328 0.20113 0.76843 0.0
C67 C 0.42018 0.30497 0.73426 0.0
O68 O 0.40714 0.27756 0.76478 0.0
C69 C 0.5887 0.33004 0.77915 0.0
Zn70 Zn 0.23212 0.62642 0.2884 0.0
Zn71 Zn 0.2193 0.55684 0.25231 0.0
O72 O 0.23513 0.54076 0.31878 0.0
O73 O 0.26244 0.60123 0.34124 0.0
O74 O 0.1964 0.50259 0.22585 0.0
O75 O 0.17174 0.64603 0.29293 0.0
O76 O 0.16775 0.59621 0.24101 0.0
C77 C 0.25596 0.56236 0.34792 0.0
C78 C 0.28265 0.61395 0.20889 0.0
O79 O 0.27156 0.57549 0.2142 0.0
O80 O 0.26631 0.64267 0.2334 0.0
C81 C 0.2049 0.46564 0.24007 0.0
O82 O 0.23442 0.46058 0.27124 0.0
C83 C 0.15155 0.62837 0.26083 0.0
Zn84 Zn 0.89636 0.20027 0.84337 0.0
Zn85 Zn 0.96992 0.18209 0.80523 0.0
O86 O 0.98327 0.18946 0.87445 0.0
O87 O 0.91998 0.19543 0.90572 0.0
O88 O 0.02398 0.1574 0.77953 0.0
O89 O 0.86578 0.15084 0.81579 0.0
O90 O 0.92713 0.13648 0.78354 0.0
C91 C 0.95981 0.193 0.90976 0.0
C92 C 0.92905 0.26479 0.78096 0.0
O93 O 0.95881 0.2385 0.77276 0.0
O94 O 0.90046 0.25624 0.81 0.0
C95 C 0.06146 0.16308 0.79448 0.0
O96 O 0.068 0.19024 0.82781 0.0
C97 C 0.88803 0.12778 0.78981 0.0
Zn98 Zn 0.28487 0.93266 0.36061 0.0
Zn99 Zn 0.31476 1.00214 0.31871 0.0
O100 O 0.30275 0.02437 0.38384 0.0
O101 O 0.27709 0.96738 0.41709 0.0
O102 O 0.34166 0.05211 0.28808 0.0
O103 O 0.34003 0.90104 0.34784 0.0
O104 O 0.36249 0.95819 0.31298 0.0
C105 C 0.28679 1.00614 0.41848 0.0
C106 C 0.23418 0.95843 0.28367 0.0
O107 O 0.26221 0.98725 0.27951 0.0
O108 O 0.2367 0.93165 0.31555 0.0
C109 C 0.32276 0.08149 0.26676 0.0
O110 O 0.28119 0.08077 0.26325 0.0
C111 C 0.36866 0.92022 0.32567 0.0
Zn112 Zn 0.43836 0.75098 0.86102 0.0
Zn113 Zn 0.49763 0.78501 0.8056 0.0
O114 O 0.53042 0.77532 0.86567 0.0
O115 O 0.48299 0.74371 0.90901 0.0
O116 O 0.54068 0.81322 0.76486 0.0
O117 O 0.40285 0.80493 0.85569 0.0
O118 O 0.45173 0.83048 0.80983 0.0
C119 C 0.52031 0.7573 0.90289 0.0
C120 C 0.44962 0.70397 0.77807 0.0
O121 O 0.47646 0.73297 0.769 0.0
O122 O 0.42987 0.70408 0.81572 0.0
C123 C 0.58065 0.80813 0.7676 0.0
O124 O 0.59604 0.78106 0.79718 0.0
C125 C 0.41626 0.83445 0.83034 0.0
Zn126 Zn 0.73999 0.41081 0.32566 0.0
Zn127 Zn 0.72358 0.48487 0.28541 0.0
O128 O 0.73928 0.5022 0.35178 0.0
O129 O 0.75241 0.44059 0.38388 0.0
O130 O 0.69989 0.53839 0.25803 0.0
O131 O 0.68184 0.38696 0.31248 0.0
O132 O 0.6714 0.44667 0.2763 0.0
C133 C 0.75032 0.48041 0.38626 0.0
C134 C 0.79636 0.4311 0.24976 0.0
O135 O 0.77452 0.46487 0.24569 0.0
O136 O 0.78759 0.40429 0.28034 0.0
C137 C 0.70657 0.57613 0.27133 0.0
O138 O 0.73517 0.5835 0.303 0.0
C139 C 0.65833 0.41027 0.28828 0.0
Zn140 Zn 0.10121 0.71095 0.79445 0.0
Zn141 Zn 0.02861 0.70325 0.77096 0.0
O142 O 0.02192 0.73007 0.83564 0.0
O143 O 0.08762 0.75188 0.84368 0.0
O144 O 0.96997 0.68144 0.75604 0.0
O145 O 0.11689 0.65088 0.80759 0.0
O146 O 0.06399 0.64836 0.75945 0.0
C147 C 0.04944 0.75224 0.85675 0.0
C148 C 0.08483 0.75477 0.71238 0.0
O149 O 0.04647 0.74999 0.72544 0.0
O150 O 0.11433 0.73523 0.73264 0.0
C151 C 0.9552 0.65664 0.78628 0.0
O152 O 0.97697 0.65125 0.82409 0.0
C153 C 0.09612 0.63066 0.77778 0.0
Zn154 Zn 0.75828 0.10749 0.2958 0.0
Zn155 Zn 0.78613 0.04083 0.24771 0.0
O156 O 0.76786 0.01433 0.30906 0.0
O157 O 0.73901 0.06845 0.34515 0.0
O158 O 0.81537 0.99315 0.21441 0.0
O159 O 0.81631 0.13511 0.29687 0.0
O160 O 0.83533 0.08334 0.25099 0.0
C161 C 0.74788 0.02951 0.34317 0.0
C162 C 0.71435 0.09431 0.20999 0.0
O163 O 0.7373 0.0613 0.20596 0.0
O164 O 0.71839 0.11884 0.24395 0.0
C165 C 0.81342 0.95418 0.22468 0.0
O166 O 0.78712 0.94179 0.25676 0.0
C167 C 0.84398 0.11783 0.2716 0.0
Zn168 Zn 0.4607 0.78651 0.12947 0.0
Zn169 Zn 0.51029 0.73728 0.1757 0.0
O170 O 0.54092 0.74899 0.11399 0.0
O171 O 0.50213 0.7972 0.08007 0.0
O172 O 0.55225 0.69825 0.20601 0.0
O173 O 0.41731 0.73896 0.12512 0.0
O174 O 0.45835 0.69903 0.1676 0.0
C175 C 0.53481 0.77415 0.08074 0.0
C176 C 0.47479 0.81994 0.21756 0.0
O177 O 0.49661 0.78615 0.22227 0.0
O178 O 0.45695 0.82796 0.17997 0.0
C179 C 0.59023 0.70807 0.21625 0.0
O180 O 0.60316 0.74718 0.21064 0.0
C181 C 0.42381 0.70444 0.1458 0.0
Zn182 Zn 0.78002 0.40321 0.62405 0.0
Zn183 Zn 0.7975 0.47183 0.67142 0.0
O184 O 0.78978 0.49159 0.60421 0.0
O185 O 0.77819 0.43313 0.56502 0.0
O186 O 0.81939 0.52577 0.69953 0.0
O187 O 0.83301 0.37344 0.64388 0.0
O188 O 0.84484 0.42883 0.6877 0.0
C189 C 0.78272 0.47273 0.56647 0.0
C190 C 0.71758 0.42446 0.69433 0.0
O191 O 0.74194 0.45537 0.7042 0.0
O192 O 0.72671 0.39931 0.66201 0.0
C193 C 0.83184 0.52922 0.74061 0.0
O194 O 0.82712 0.49701 0.76832 0.0
C195 C 0.85508 0.39186 0.67404 0.0
Zn196 Zn 0.11196 0.8166 0.09938 0.0
Zn197 Zn 0.03935 0.8371 0.13306 0.0
O198 O 0.02966 0.82796 0.06328 0.0
O199 O 0.09433 0.82341 0.03541 0.0
O200 O 0.98406 0.86355 0.15197 0.0
O201 O 0.14474 0.8629 0.12896 0.0
O202 O 0.083 0.88097 0.15814 0.0
C203 C 0.05474 0.82509 0.02925 0.0
C204 C 0.07363 0.75318 0.15925 0.0
O205 O 0.04545 0.7811 0.16717 0.0
O206 O 0.10325 0.76031 0.13097 0.0
C207 C 0.95112 0.84574 0.16794 0.0
O208 O 0.95123 0.80479 0.1751 0.0
C209 C 0.12287 0.88714 0.15399 0.0
Zn210 Zn 0.73024 0.07814 0.58629 0.0
Zn211 Zn 0.70097 0.0072 0.6246 0.0
O212 O 0.7111 0.98939 0.55713 0.0
O213 O 0.7365 0.04807 0.52718 0.0
O214 O 0.67305 0.95612 0.65212 0.0
O215 O 0.67595 0.10945 0.60174 0.0
O216 O 0.65441 0.05134 0.63548 0.0
C217 C 0.72605 0.00969 0.52326 0.0
C218 C 0.78176 0.04901 0.66115 0.0
O219 O 0.75395 0.01984 0.66423 0.0
O220 O 0.7789 0.07692 0.63047 0.0
C221 C 0.69018 0.9267 0.67503 0.0
O222 O 0.73134 0.92733 0.6822 0.0
C223 C 0.64822 0.08978 0.62465 0.0
C224 C 0.41673 0.1473 0.22959 0.0
C225 C 0.39787 0.17664 0.19997 0.0
H226 H 0.40795 0.09452 0.27372 0.0
C227 C 0.35359 0.17572 0.194 0.0
H228 H 0.45072 0.14713 0.23513 0.0
C229 C 0.32887 0.14536 0.21635 0.0
C230 C 0.34802 0.1153 0.24493 0.0
H231 H 0.33807 0.19793 0.17145 0.0
H232 H 0.29493 0.14496 0.21052 0.0
C233 C 0.39214 0.117 0.25171 0.0
C234 C 0.31995 0.36754 0.71073 0.0
C235 C 0.33557 0.39975 0.68242 0.0
H236 H 0.33444 0.31194 0.74925 0.0
C237 C 0.37808 0.39803 0.66794 0.0
H238 H 0.28728 0.36787 0.72229 0.0
C239 C 0.40493 0.36605 0.68314 0.0
C240 C 0.39001 0.33503 0.71334 0.0
H241 H 0.39106 0.42206 0.64569 0.0
H242 H 0.43782 0.36652 0.67232 0.0
C243 C 0.34696 0.33548 0.72612 0.0
C244 C 0.11094 0.40463 0.19378 0.0
C245 C 0.12008 0.36319 0.20771 0.0
H246 H 0.13082 0.4691 0.19215 0.0
C247 C 0.15862 0.3552 0.23027 0.0
H248 H 0.08172 0.41181 0.17593 0.0
C249 C 0.18684 0.38826 0.23988 0.0
C250 C 0.1773 0.42982 0.22654 0.0
H251 H 0.16662 0.32355 0.24128 0.0
H252 H 0.21583 0.38134 0.25824 0.0
C253 C 0.1393 0.43747 0.20281 0.0
C254 C 0.11912 0.07251 0.73675 0.0
C255 C 0.16147 0.0797 0.74965 0.0
H256 H 0.05475 0.09338 0.74 0.0
C257 C 0.17106 0.11555 0.77627 0.0
H258 H 0.11062 0.04541 0.71594 0.0
C259 C 0.13874 0.14313 0.79044 0.0
C260 C 0.09635 0.13566 0.77769 0.0
H261 H 0.20341 0.12202 0.78666 0.0
H262 H 0.14695 0.17012 0.81152 0.0
C263 C 0.08704 0.10024 0.75034 0.0
C264 C 0.59255 0.86515 0.71012 0.0
C265 C 0.60939 0.83563 0.74089 0.0
H266 H 0.60472 0.91668 0.66516 0.0
C267 C 0.65358 0.83451 0.74772 0.0
H268 H 0.55871 0.86678 0.70385 0.0
C269 C 0.68014 0.86333 0.72545 0.0
C270 C 0.66301 0.8938 0.69592 0.0
H271 H 0.66759 0.81211 0.77115 0.0
H272 H 0.71391 0.86235 0.73222 0.0
C273 C 0.619 0.89384 0.68792 0.0
C274 C 0.65941 0.68501 0.25106 0.0
C275 C 0.6204 0.67473 0.23049 0.0
H276 H 0.71733 0.66188 0.28037 0.0
C277 C 0.61077 0.63201 0.22226 0.0
H278 H 0.66778 0.71766 0.25771 0.0
C279 C 0.63938 0.60029 0.23431 0.0
C280 C 0.67808 0.61038 0.25562 0.0
H281 H 0.58119 0.62299 0.20609 0.0
H282 H 0.63068 0.56771 0.2277 0.0
C283 C 0.68781 0.6531 0.26391 0.0
C284 C 0.89944 0.62806 0.73318 0.0
C285 C 0.91827 0.629 0.77665 0.0
H286 H 0.85693 0.59602 0.68777 0.0
C287 C 0.90435 0.60006 0.8098 0.0
H288 H 0.90927 0.65003 0.70695 0.0
C289 C 0.87447 0.56901 0.79882 0.0
C290 C 0.85773 0.56625 0.75447 0.0
H291 H 0.91788 0.60015 0.8438 0.0
H292 H 0.86587 0.54609 0.8246 0.0
C293 C 0.86943 0.59703 0.72221 0.0
C294 C 0.8467 0.88209 0.21959 0.0
C295 C 0.84551 0.92463 0.20588 0.0
H296 H 0.88102 0.82352 0.21822 0.0
C297 C 0.87769 0.93984 0.17706 0.0
H298 H 0.82234 0.86936 0.24173 0.0
C299 C 0.91133 0.91382 0.16405 0.0
C300 C 0.91351 0.8718 0.1792 0.0
H301 H 0.87776 0.97237 0.16567 0.0
H302 H 0.93609 0.92699 0.14272 0.0
C303 C 0.88034 0.85584 0.20621 0.0
C304 C 0.57601 0.33019 0.25269 0.0
C305 C 0.56383 0.3469 0.21036 0.0
H306 H 0.61618 0.33751 0.31121 0.0
C307 C 0.57524 0.38851 0.19946 0.0
H308 H 0.56786 0.29801 0.26164 0.0
C309 C 0.60249 0.4113 0.22791 0.0
C310 C 0.61956 0.39238 0.26718 0.0
H311 H 0.56618 0.40198 0.16692 0.0
H312 H 0.61337 0.44202 0.21666 0.0
C313 C 0.60404 0.35268 0.28081 0.0
C314 C 0.13813 0.56846 0.67977 0.0
C315 C 0.17769 0.55651 0.69746 0.0
H316 H 0.07929 0.59968 0.69266 0.0
C317 C 0.18409 0.55746 0.74485 0.0
H318 H 0.13256 0.56782 0.64325 0.0
C319 C 0.15393 0.57668 0.77326 0.0
C320 C 0.11702 0.59466 0.75443 0.0
H321 H 0.21447 0.54848 0.75916 0.0
H322 H 0.16179 0.58173 0.80889 0.0
C323 C 0.10763 0.58678 0.70822 0.0
C324 C 0.89527 0.17757 0.28467 0.0
C325 C 0.88379 0.14057 0.26076 0.0
H326 H 0.93363 0.23377 0.28487 0.0
C327 C 0.90757 0.12859 0.22217 0.0
H328 H 0.87767 0.18753 0.31464 0.0
C329 C 0.93905 0.1552 0.20513 0.0
C330 C 0.94821 0.19358 0.22705 0.0
H331 H 0.89972 0.10032 0.20296 0.0
H332 H 0.95433 0.14711 0.17308 0.0
C333 C 0.92751 0.20384 0.268 0.0
C334 C 0.37343 0.92659 0.76427 0.0
C335 C 0.32968 0.92159 0.77121 0.0
H336 H 0.43564 0.90343 0.77867 0.0
C337 C 0.31547 0.89464 0.80592 0.0
H338 H 0.38501 0.94683 0.73722 0.0
C339 C 0.34444 0.86902 0.8293 0.0
C340 C 0.3879 0.87006 0.818 0.0
H341 H 0.28179 0.88975 0.81121 0.0
H342 H 0.33225 0.84563 0.8528 0.0
C343 C 0.40236 0.90127 0.78769 0.0
C344 C 0.56894 0.12568 0.71243 0.0
C345 C 0.56154 0.16738 0.69851 0.0
H346 H 0.60127 0.06764 0.69887 0.0
C347 C 0.57584 0.18052 0.65548 0.0
H348 H 0.55844 0.1151 0.74573 0.0
C349 C 0.60151 0.1538 0.6291 0.0
C350 C 0.61242 0.11339 0.64515 0.0
H351 H 0.57096 0.21279 0.64442 0.0
H352 H 0.61522 0.16585 0.59782 0.0
C353 C 0.59366 0.09864 0.68563 0.0
C354 C 0.34775 0.68424 0.13558 0.0
C355 C 0.38881 0.6734 0.15022 0.0
H356 H 0.28113 0.67269 0.14262 0.0
C357 C 0.39445 0.63581 0.17506 0.0
H358 H 0.34221 0.71269 0.11602 0.0
C359 C 0.35922 0.61226 0.18931 0.0
C360 C 0.31807 0.62628 0.17923 0.0
H361 H 0.42571 0.62634 0.18648 0.0
H362 H 0.36403 0.58581 0.21212 0.0
C363 C 0.31268 0.66114 0.15042 0.0
C364 C 0.89034 0.37208 0.74688 0.0
C365 C 0.88661 0.36666 0.69941 0.0
H366 H 0.90689 0.3431 0.81043 0.0
C367 C 0.90585 0.33137 0.6786 0.0
H368 H 0.87568 0.39884 0.76388 0.0
C369 C 0.9247 0.29994 0.70527 0.0
C370 C 0.92353 0.30298 0.75306 0.0
H371 H 0.90347 0.32651 0.64204 0.0
H372 H 0.93619 0.27145 0.68874 0.0
C373 C 0.90808 0.34014 0.77356 0.0
C374 C 0.18426 0.93464 0.17026 0.0
C375 C 0.14532 0.91713 0.18412 0.0
H376 H 0.24283 0.96321 0.19144 0.0
C377 C 0.13263 0.92133 0.22987 0.0
H378 H 0.19471 0.93176 0.13512 0.0
C379 C 0.16059 0.93824 0.26215 0.0
C380 C 0.20101 0.95236 0.24889 0.0
H381 H 0.10294 0.90786 0.2415 0.0
H382 H 0.1517 0.93775 0.29791 0.0
C383 C 0.21172 0.95271 0.2024 0.0
C384 C 0.40142 0.66479 0.66893 0.0
C385 C 0.38505 0.62557 0.68286 0.0
H386 H 0.43673 0.71998 0.68809 0.0
C387 C 0.3974 0.60904 0.72523 0.0
H388 H 0.39254 0.67807 0.63625 0.0
C389 C 0.42194 0.63336 0.75516 0.0
C390 C 0.43551 0.67398 0.74261 0.0
H391 H 0.38519 0.57892 0.73681 0.0
H392 H 0.42806 0.62153 0.78921 0.0
C393 C 0.42698 0.68859 0.69838 0.0
C394 C 0.89902 0.38598 0.20925 0.0
C395 C 0.88588 0.36679 0.16824 0.0
H396 H 0.88003 0.42237 0.26774 0.0
C397 C 0.84642 0.37833 0.14948 0.0
H398 H 0.92908 0.37764 0.22472 0.0
C399 C 0.81879 0.40487 0.17371 0.0
C400 C 0.83004 0.41975 0.21721 0.0
H401 H 0.83551 0.36416 0.11784 0.0
H402 H 0.78705 0.41001 0.16063 0.0
C403 C 0.87102 0.41174 0.23387 0.0
C404 C 0.13144 0.78223 0.6516 0.0
C405 C 0.09783 0.78937 0.68211 0.0
H406 H 0.18505 0.80837 0.61729 0.0
C407 C 0.08735 0.83107 0.6942 0.0
H408 H 0.14024 0.75026 0.64207 0.0
C409 C 0.11377 0.86449 0.68103 0.0
C410 C 0.15063 0.85657 0.65518 0.0
H411 H 0.06191 0.83729 0.71821 0.0
H412 H 0.1073 0.89583 0.6944 0.0
C413 C 0.1574 0.81557 0.63787 0.0
C414 C 0.60933 0.12597 0.16404 0.0
C415 C 0.62177 0.15646 0.13184 0.0
H416 H 0.62995 0.08109 0.21397 0.0
C417 C 0.66454 0.15785 0.11799 0.0
H418 H 0.57664 0.12374 0.17525 0.0
C419 C 0.69491 0.13283 0.13987 0.0
C420 C 0.68286 0.10592 0.1755 0.0
H421 H 0.67518 0.18075 0.09309 0.0
H422 H 0.72819 0.1375 0.13196 0.0
C423 C 0.63974 0.10117 0.18597 0.0
C424 C 0.44007 0.8288 0.29301 0.0
C425 C 0.46267 0.84677 0.25662 0.0
H426 H 0.39197 0.83822 0.34386 0.0
C427 C 0.46094 0.89066 0.25026 0.0
H428 H 0.44041 0.79493 0.29814 0.0
C429 C 0.43329 0.91551 0.27623 0.0
C430 C 0.40629 0.89672 0.30857 0.0
H431 H 0.47788 0.90515 0.22213 0.0
H432 H 0.43038 0.94869 0.26795 0.0
C433 C 0.41187 0.8536 0.31872 0.0
C434 C 0.68702 0.39746 0.7665 0.0
C435 C 0.68067 0.41384 0.72261 0.0
H436 H 0.66244 0.35761 0.81931 0.0
C437 C 0.64103 0.40895 0.70153 0.0
H438 H 0.71771 0.40027 0.78295 0.0
C439 C 0.60926 0.38506 0.72238 0.0
C440 C 0.61714 0.36456 0.76405 0.0
H441 H 0.63577 0.42089 0.66736 0.0
H442 H 0.58002 0.37961 0.70381 0.0
C443 C 0.65554 0.37271 0.78702 0.0
C444 C 0.10868 0.64525 0.19201 0.0
C445 C 0.11653 0.65173 0.23878 0.0
H446 H 0.08837 0.6735 0.12942 0.0
C447 C 0.09852 0.68719 0.26059 0.0
H448 H 0.12173 0.61812 0.17421 0.0
C449 C 0.07845 0.71852 0.23486 0.0
C450 C 0.07684 0.71487 0.18714 0.0
H451 H 0.10363 0.69277 0.29671 0.0
H452 H 0.06891 0.7476 0.25163 0.0
C453 C 0.08955 0.67695 0.16625 0.0
C454 C 0.82748 0.0786 0.77451 0.0
C455 C 0.86666 0.09582 0.76098 0.0
H456 H 0.77 0.04813 0.75298 0.0
C457 C 0.88125 0.0884 0.71632 0.0
H458 H 0.8156 0.0837 0.80883 0.0
C459 C 0.85483 0.06885 0.68428 0.0
C460 C 0.81404 0.05529 0.69679 0.0
H461 H 0.91126 0.10132 0.70489 0.0
H462 H 0.865 0.06723 0.64894 0.0
C463 C 0.80152 0.05797 0.74269 0.0
C464 C 0.46044 0.29923 -0.02639 0.0
C465 C 0.46439 0.26267 0.00028 0.0
H466 H 0.4635 0.3248 0.90615 0.0
C467 C 0.46085 0.22292 -0.02072 0.0
H468 H 0.46334 0.3302 -0.01073 0.0
C469 C 0.46223 0.21983 0.93169 0.0
C470 C 0.46575 0.2565 0.90515 0.0
H471 H 0.46416 0.19433 -0.00079 0.0
H472 H 0.46637 0.18896 0.91614 0.0
C473 C 0.46055 0.29612 0.926 0.0
C474 C 0.24374 0.51845 0.41742 0.0
C475 C 0.2706 0.54411 0.39114 0.0
H476 H 0.22849 0.49748 0.48519 0.0
C477 C 0.30845 0.5594 0.41027 0.0
H478 H 0.21432 0.5065 0.40326 0.0
C479 C 0.31674 0.55375 0.45648 0.0
C480 C 0.28727 0.53283 0.48412 0.0
H481 H 0.3298 0.57893 0.39042 0.0
H482 H 0.34389 0.5696 0.47152 0.0
C483 C 0.25196 0.51306 0.46408 0.0
C484 C 0.02249 0.23963 0.0073 0.0
C485 C 0.99632 0.22811 0.04409 0.0
H486 H 0.03165 0.23657 0.93453 0.0
C487 C 0.96366 0.19866 0.0369 0.0
H488 H 0.04809 0.26205 0.01216 0.0
C489 C 0.95447 0.1842 -0.00683 0.0
C490 C 0.97788 0.19866 0.95567 0.0
H491 H 0.94367 0.18834 0.06484 0.0
H492 H 0.9273 0.16364 -0.01166 0.0
C493 C 0.01329 0.22487 0.9631 0.0
C494 C 0.24287 0.03075 0.48275 0.0
C495 C 0.28321 0.02754 0.46267 0.0
H496 H 0.20699 0.02526 0.54453 0.0
C497 C 0.31936 0.029 0.49045 0.0
H498 H 0.2146 0.02921 0.46172 0.0
C499 C 0.31503 0.02581 0.53776 0.0
C500 C 0.27452 0.02186 0.55735 0.0
H501 H 0.35072 0.02605 0.47553 0.0
H502 H 0.34318 0.02057 0.55822 0.0
C503 C 0.23853 0.02855 0.53018 0.0
C504 C 0.55805 0.79883 0.96125 0.0
C505 C 0.54826 0.75904 0.94285 0.0
H506 H 0.56265 0.83521 0.02284 0.0
C507 C 0.55147 0.72315 -0.02937 0.0
H508 H 0.5557 0.82692 0.94036 0.0
C509 C 0.5568 0.72778 0.01774 0.0
C510 C 0.55722 0.76839 0.03716 0.0
H511 H 0.5441 0.69213 0.95693 0.0
H512 H 0.55308 0.70013 0.03909 0.0
C513 C 0.56213 0.80357 0.00851 0.0
C514 C 0.81169 0.49365 0.49211 0.0
C515 C 0.77828 0.4958 0.52361 0.0
H516 H 0.82853 0.48874 0.42148 0.0
C517 C 0.73729 0.50587 0.50841 0.0
H518 H 0.84333 0.48505 0.50321 0.0
C519 C 0.72878 0.50802 0.4616 0.0
C520 C 0.76127 0.49998 0.43001 0.0
H521 H 0.71099 0.50672 0.53227 0.0
H522 H 0.69612 0.5104 0.45032 0.0
C523 C 0.8032 0.49577 0.44542 0.0
C524 C 0.06145 0.83514 0.94652 0.0
C525 C 0.03922 0.81693 -0.01712 0.0
H526 H 0.0814 0.82863 0.87725 0.0
C527 C 0.01205 0.78251 -0.02553 0.0
H528 H 0.08252 0.86171 0.95233 0.0
C529 C 0.01167 0.76314 0.93128 0.0
C530 C 0.03852 0.77825 0.89674 0.0
H531 H 0.995 0.76775 0.0023 0.0
H532 H 0.99385 0.73419 0.9264 0.0
C533 C 0.06111 0.81594 0.90377 0.0
C534 C 0.69222 0.99866 0.44915 0.0
C535 C 0.72744 0.99158 0.4773 0.0
H536 H 0.67146 0.01641 0.38233 0.0
C537 C 0.76732 0.98426 0.45736 0.0
H538 H 0.66138 1.00518 0.46402 0.0
C539 C 0.77299 0.98999 0.41043 0.0
C540 C 0.73895 1.00397 0.38363 0.0
H541 H 0.795 0.97959 0.47871 0.0
H542 H 0.80489 0.98927 0.39655 0.0
C543 C 0.69804 1.00535 0.4025 0.0
loop_
_geom_bond_atom_site_label_1
_geom_bond_atom_site_label_2
_geom_bond_distance
_geom_bond_site_symmetry_2
_ccdc_geom_bond_type
Zn0 O3 2.031 . S
Zn0 O5 2.049 . S
Zn0 O10 2.067 . S
Zn1 O2 1.962 . S
Zn1 O4 1.986 . S
Zn1 O6 1.996 . S
Zn1 O9 1.943 . S
O2 Zn1 1.962 . S
O2 C7 1.254 . S
O3 Zn0 2.031 . S
O3 C7 1.269 . S
O4 Zn1 1.986 . S
O4 C11 1.262 . S
O5 Zn0 2.049 . S
O5 C13 1.260 . S
O6 Zn1 1.996 . S
O6 C13 1.257 . S
C7 O2 1.254 . S
C7 O3 1.269 . S
C8 O9 1.249 . S
C8 O10 1.270 . S
O9 Zn1 1.943 . S
O9 C8 1.249 . S
O10 Zn0 2.067 . S
O10 C8 1.270 . S
C11 O4 1.262 . S
C11 O12 1.232 . S
O12 C11 1.232 . S
C13 O5 1.260 . S
C13 O6 1.257 . S
Zn14 O17 2.031 . S
Zn14 O19 2.049 . S
Zn14 O24 2.067 . S
Zn15 O16 1.962 . S
Zn15 O18 1.986 . S
Zn15 O20 1.996 . S
Zn15 O23 1.943 . S
O16 Zn15 1.962 . S
O16 C21 1.254 . S
O17 Zn14 2.031 . S
O17 C21 1.269 . S
O18 Zn15 1.986 . S
O18 C25 1.262 . S
O19 Zn14 2.049 . S
O19 C27 1.260 . S
O20 Zn15 1.996 . S
O20 C27 1.257 . S
C21 O16 1.254 . S
C21 O17 1.269 . S
C22 O23 1.249 . S
C22 O24 1.270 . S
O23 Zn15 1.943 . S
O23 C22 1.249 . S
O24 Zn14 2.067 . S
O24 C22 1.270 . S
C25 O18 1.262 . S
C25 O26 1.232 . S
O26 C25 1.232 . S
C27 O19 1.260 . S
C27 O20 1.257 . S
Zn28 O31 2.031 . S
Zn28 O33 2.049 . S
Zn28 O38 2.067 . S
Zn29 O30 1.962 . S
Zn29 O32 1.986 . S
Zn29 O34 1.996 . S
Zn29 O37 1.943 . S
O30 Zn29 1.962 . S
O30 C35 1.254 . S
O31 Zn28 2.031 . S
O31 C35 1.269 . S
O32 Zn29 1.986 . S
O32 C39 1.262 1_655 S
O33 Zn28 2.049 . S
O33 C41 1.260 . S
O34 Zn29 1.996 . S
O34 C41 1.257 . S
C35 O30 1.254 . S
C35 O31 1.269 . S
C36 O37 1.249 . S
C36 O38 1.270 . S
O37 Zn29 1.943 . S
O37 C36 1.249 . S
O38 Zn28 2.067 . S
O38 C36 1.270 . S
C39 O32 1.262 1_455 S
C39 O40 1.232 . S
O40 C39 1.232 . S
C41 O33 1.260 . S
C41 O34 1.257 . S
Zn42 O45 2.031 . S
Zn42 O47 2.049 . S
Zn42 O52 2.067 . S
Zn43 O44 1.962 . S
Zn43 O46 1.986 . S
Zn43 O48 1.996 . S
Zn43 O51 1.943 . S
O44 Zn43 1.962 . S
O44 C49 1.254 . S
O45 Zn42 2.031 . S
O45 C49 1.269 . S
O46 Zn43 1.986 . S
O46 C53 1.262 1_565 S
O47 Zn42 2.049 . S
O47 C55 1.260 . S
O48 Zn43 1.996 . S
O48 C55 1.257 . S
C49 O44 1.254 . S
C49 O45 1.269 . S
C50 O51 1.249 . S
C50 O52 1.270 . S
O51 Zn43 1.943 . S
O51 C50 1.249 . S
O52 Zn42 2.067 . S
O52 C50 1.270 . S
C53 O46 1.262 1_545 S
C53 O54 1.232 . S
O54 C53 1.232 . S
C55 O47 1.260 . S
C55 O48 1.257 . S
Zn56 O59 2.031 . S
Zn56 O61 2.049 . S
Zn56 O66 2.067 . S
Zn57 O58 1.962 . S
Zn57 O60 1.986 . S
Zn57 O62 1.996 . S
Zn57 O65 1.943 . S
O58 Zn57 1.962 . S
O58 C63 1.254 . S
O59 Zn56 2.031 . S
O59 C63 1.269 . S
O60 Zn57 1.986 . S
O60 C67 1.262 . S
O61 Zn56 2.049 . S
O61 C69 1.260 . S
O62 Zn57 1.996 . S
O62 C69 1.257 . S
C63 O58 1.254 . S
C63 O59 1.269 . S
C64 O65 1.249 . S
C64 O66 1.270 . S
O65 Zn57 1.943 . S
O65 C64 1.249 . S
O66 Zn56 2.067 . S
O66 C64 1.270 . S
C67 O60 1.262 . S
C67 O68 1.232 . S
O68 C67 1.232 . S
C69 O61 1.260 . S
C69 O62 1.257 . S
Zn70 O73 2.031 . S
Zn70 O75 2.049 . S
Zn70 O80 2.067 . S
Zn71 O72 1.962 . S
Zn71 O74 1.986 . S
Zn71 O76 1.996 . S
Zn71 O79 1.943 . S
O72 Zn71 1.962 . S
O72 C77 1.254 . S
O73 Zn70 2.031 . S
O73 C77 1.269 . S
O74 Zn71 1.986 . S
O74 C81 1.262 . S
O75 Zn70 2.049 . S
O75 C83 1.260 . S
O76 Zn71 1.996 . S
O76 C83 1.257 . S
C77 O72 1.254 . S
C77 O73 1.269 . S
C78 O79 1.249 . S
C78 O80 1.270 . S
O79 Zn71 1.943 . S
O79 C78 1.249 . S
O80 Zn70 2.067 . S
O80 C78 1.270 . S
C81 O74 1.262 . S
C81 O82 1.232 . S
O82 C81 1.232 . S
C83 O75 1.260 . S
C83 O76 1.257 . S
Zn84 O87 2.031 . S
Zn84 O89 2.049 . S
Zn84 O94 2.067 . S
Zn85 O86 1.962 . S
Zn85 O88 1.986 . S
Zn85 O90 1.996 . S
Zn85 O93 1.943 . S
O86 Zn85 1.962 . S
O86 C91 1.254 . S
O87 Zn84 2.031 . S
O87 C91 1.269 . S
O88 Zn85 1.986 . S
O88 C95 1.262 1_655 S
O89 Zn84 2.049 . S
O89 C97 1.260 . S
O90 Zn85 1.996 . S
O90 C97 1.257 . S
C91 O86 1.254 . S
C91 O87 1.269 . S
C92 O93 1.249 . S
C92 O94 1.270 . S
O93 Zn85 1.943 . S
O93 C92 1.249 . S
O94 Zn84 2.067 . S
O94 C92 1.270 . S
C95 O88 1.262 1_455 S
C95 O96 1.232 . S
O96 C95 1.232 . S
C97 O89 1.260 . S
C97 O90 1.257 . S
Zn98 O101 2.031 . S
Zn98 O103 2.049 . S
Zn98 O108 2.067 . S
Zn99 O100 1.962 . S
Zn99 O102 1.986 . S
Zn99 O104 1.996 . S
Zn99 O107 1.943 . S
O100 Zn99 1.962 . S
O100 C105 1.254 . S
O101 Zn98 2.031 . S
O101 C105 1.269 . S
O102 Zn99 1.986 . S
O102 C109 1.262 1_565 S
O103 Zn98 2.049 . S
O103 C111 1.260 . S
O104 Zn99 1.996 . S
O104 C111 1.257 . S
C105 O100 1.254 . S
C105 O101 1.269 . S
C106 O107 1.249 . S
C106 O108 1.270 . S
O107 Zn99 1.943 . S
O107 C106 1.249 . S
O108 Zn98 2.067 . S
O108 C106 1.270 . S
C109 O102 1.262 1_545 S
C109 O110 1.232 . S
O110 C109 1.232 . S
C111 O103 1.260 . S
C111 O104 1.257 . S
Zn112 O115 2.031 . S
Zn112 O117 2.049 . S
Zn112 O122 2.067 . S
Zn113 O114 1.962 . S
Zn113 O116 1.986 . S
Zn113 O118 1.996 . S
Zn113 O121 1.943 . S
O114 Zn113 1.962 . S
O114 C119 1.254 . S
O115 Zn112 2.031 . S
O115 C119 1.269 . S
O116 Zn113 1.986 . S
O116 C123 1.262 . S
O117 Zn112 2.049 . S
O117 C125 1.260 . S
O118 Zn113 1.996 . S
O118 C125 1.257 . S
C119 O114 1.254 . S
C119 O115 1.269 . S
C120 O121 1.249 . S
C120 O122 1.270 . S
O121 Zn113 1.943 . S
O121 C120 1.249 . S
O122 Zn112 2.067 . S
O122 C120 1.270 . S
C123 O116 1.262 . S
C123 O124 1.232 . S
O124 C123 1.232 . S
C125 O117 1.260 . S
C125 O118 1.257 . S
Zn126 O129 2.031 . S
Zn126 O131 2.049 . S
Zn126 O136 2.067 . S
Zn127 O128 1.962 . S
Zn127 O130 1.986 . S
Zn127 O132 1.996 . S
Zn127 O135 1.943 . S
O128 Zn127 1.962 . S
O128 C133 1.254 . S
O129 Zn126 2.031 . S
O129 C133 1.269 . S
O130 Zn127 1.986 . S
O130 C137 1.262 . S
O131 Zn126 2.049 . S
O131 C139 1.260 . S
O132 Zn127 1.996 . S
O132 C139 1.257 . S
C133 O128 1.254 . S
C133 O129 1.269 . S
C134 O135 1.249 . S
C134 O136 1.270 . S
O135 Zn127 1.943 . S
O135 C134 1.249 . S
O136 Zn126 2.067 . S
O136 C134 1.270 . S
C137 O130 1.262 . S
C137 O138 1.232 . S
O138 C137 1.232 . S
C139 O131 1.260 . S
C139 O132 1.257 . S
Zn140 O143 2.031 . S
Zn140 O145 2.049 . S
Zn140 O150 2.067 . S
Zn141 O142 1.962 . S
Zn141 O144 1.986 . S
Zn141 O146 1.996 . S
Zn141 O149 1.943 . S
O142 Zn141 1.962 . S
O142 C147 1.254 . S
O143 Zn140 2.031 . S
O143 C147 1.269 . S
O144 Zn141 1.986 . S
O144 C151 1.262 1_455 S
O145 Zn140 2.049 . S
O145 C153 1.260 . S
O146 Zn141 1.996 . S
O146 C153 1.257 . S
C147 O142 1.254 . S
C147 O143 1.269 . S
C148 O149 1.249 . S
C148 O150 1.270 . S
O149 Zn141 1.943 . S
O149 C148 1.249 . S
O150 Zn140 2.067 . S
O150 C148 1.270 . S
C151 O144 1.262 1_655 S
C151 O152 1.232 . S
O152 C151 1.232 . S
C153 O145 1.260 . S
C153 O146 1.257 . S
Zn154 O157 2.031 . S
Zn154 O159 2.049 . S
Zn154 O164 2.067 . S
Zn155 O156 1.962 . S
Zn155 O158 1.986 . S
Zn155 O160 1.996 . S
Zn155 O163 1.943 . S
O156 Zn155 1.962 . S
O156 C161 1.254 . S
O157 Zn154 2.031 . S
O157 C161 1.269 . S
O158 Zn155 1.986 . S
O158 C165 1.262 1_545 S
O159 Zn154 2.049 . S
O159 C167 1.260 . S
O160 Zn155 1.996 . S
O160 C167 1.257 . S
C161 O156 1.254 . S
C161 O157 1.269 . S
C162 O163 1.249 . S
C162 O164 1.270 . S
O163 Zn155 1.943 . S
O163 C162 1.249 . S
O164 Zn154 2.067 . S
O164 C162 1.270 . S
C165 O158 1.262 1_565 S
C165 O166 1.232 . S
O166 C165 1.232 . S
C167 O159 1.260 . S
C167 O160 1.257 . S
Zn168 O171 2.031 . S
Zn168 O173 2.049 . S
Zn168 O178 2.067 . S
Zn169 O170 1.962 . S
Zn169 O172 1.986 . S
Zn169 O174 1.996 . S
Zn169 O177 1.943 . S
O170 Zn169 1.962 . S
O170 C175 1.254 . S
O171 Zn168 2.031 . S
O171 C175 1.269 . S
O172 Zn169 1.986 . S
O172 C179 1.262 . S
O173 Zn168 2.049 . S
O173 C181 1.260 . S
O174 Zn169 1.996 . S
O174 C181 1.257 . S
C175 O170 1.254 . S
C175 O171 1.269 . S
C176 O177 1.249 . S
C176 O178 1.270 . S
O177 Zn169 1.943 . S
O177 C176 1.249 . S
O178 Zn168 2.067 . S
O178 C176 1.270 . S
C179 O172 1.262 . S
C179 O180 1.232 . S
O180 C179 1.232 . S
C181 O173 1.260 . S
C181 O174 1.257 . S
Zn182 O185 2.031 . S
Zn182 O187 2.049 . S
Zn182 O192 2.067 . S
Zn183 O184 1.962 . S
Zn183 O186 1.986 . S
Zn183 O188 1.996 . S
Zn183 O191 1.943 . S
O184 Zn183 1.962 . S
O184 C189 1.254 . S
O185 Zn182 2.031 . S
O185 C189 1.269 . S
O186 Zn183 1.986 . S
O186 C193 1.262 . S
O187 Zn182 2.049 . S
O187 C195 1.260 . S
O188 Zn183 1.996 . S
O188 C195 1.257 . S
C189 O184 1.254 . S
C189 O185 1.269 . S
C190 O191 1.249 . S
C190 O192 1.270 . S
O191 Zn183 1.943 . S
O191 C190 1.249 . S
O192 Zn182 2.067 . S
O192 C190 1.270 . S
C193 O186 1.262 . S
C193 O194 1.232 . S
O194 C193 1.232 . S
C195 O187 1.260 . S
C195 O188 1.257 . S
Zn196 O199 2.031 . S
Zn196 O201 2.049 . S
Zn196 O206 2.067 . S
Zn197 O198 1.962 . S
Zn197 O200 1.986 . S
Zn197 O202 1.996 . S
Zn197 O205 1.943 . S
O198 Zn197 1.962 . S
O198 C203 1.254 . S
O199 Zn196 2.031 . S
O199 C203 1.269 . S
O200 Zn197 1.986 . S
O200 C207 1.262 1_455 S
O201 Zn196 2.049 . S
O201 C209 1.260 . S
O202 Zn197 1.996 . S
O202 C209 1.257 . S
C203 O198 1.254 . S
C203 O199 1.269 . S
C204 O205 1.249 . S
C204 O206 1.270 . S
O205 Zn197 1.943 . S
O205 C204 1.249 . S
O206 Zn196 2.067 . S
O206 C204 1.270 . S
C207 O200 1.262 1_655 S
C207 O208 1.232 . S
O208 C207 1.232 . S
C209 O201 1.260 . S
C209 O202 1.257 . S
Zn210 O213 2.031 . S
Zn210 O215 2.049 . S
Zn210 O220 2.067 . S
Zn211 O212 1.962 . S
Zn211 O214 1.986 . S
Zn211 O216 1.996 . S
Zn211 O219 1.943 . S
O212 Zn211 1.962 . S
O212 C217 1.254 . S
O213 Zn210 2.031 . S
O213 C217 1.269 . S
O214 Zn211 1.986 . S
O214 C221 1.262 1_545 S
O215 Zn210 2.049 . S
O215 C223 1.260 . S
O216 Zn211 1.996 . S
O216 C223 1.257 . S
C217 O212 1.254 . S
C217 O213 1.269 . S
C218 O219 1.249 . S
C218 O220 1.270 . S
O219 Zn211 1.943 . S
O219 C218 1.249 . S
O220 Zn210 2.067 . S
O220 C218 1.270 . S
C221 O214 1.262 1_565 S
C221 O222 1.232 . S
O222 C221 1.232 . S
C223 O215 1.260 . S
C223 O216 1.257 . S
C224 C225 1.387 . S
C224 H228 0.950 . S
C224 C233 1.390 . S
C225 C224 1.387 . S
C225 C227 1.387 . S
H226 C233 0.950 . S
C227 C225 1.387 . S
C227 C229 1.390 . S
C227 H231 0.950 . S
H228 C224 0.950 . S
C229 C227 1.390 . S
C229 C230 1.387 . S
C229 H232 0.950 . S
C230 C229 1.387 . S
C230 C233 1.387 . S
H231 C227 0.950 . S
H232 C229 0.950 . S
C233 C224 1.390 . S
C233 H226 0.950 . S
C233 C230 1.387 . S
C234 C235 1.387 . S
C234 H238 0.950 . S
C234 C243 1.390 . S
C235 C234 1.387 . S
C235 C237 1.387 . S
H236 C243 0.950 . S
C237 C235 1.387 . S
C237 C239 1.390 . S
C237 H241 0.950 . S
H238 C234 0.950 . S
C239 C237 1.390 . S
C239 C240 1.387 . S
C239 H242 0.950 . S
C240 C239 1.387 . S
C240 C243 1.387 . S
H241 C237 0.950 . S
H242 C239 0.950 . S
C243 C234 1.390 . S
C243 H236 0.950 . S
C243 C240 1.387 . S
C244 C245 1.387 . S
C244 H248 0.950 . S
C244 C253 1.390 . S
C245 C244 1.387 . S
C245 C247 1.387 . S
H246 C253 0.950 . S
C247 C245 1.387 . S
C247 C249 1.390 . S
C247 H251 0.950 . S
H248 C244 0.950 . S
C249 C247 1.390 . S
C249 C250 1.387 . S
C249 H252 0.950 . S
C250 C249 1.387 . S
C250 C253 1.387 . S
H251 C247 0.950 . S
H252 C249 0.950 . S
C253 C244 1.390 . S
C253 H246 0.950 . S
C253 C250 1.387 . S
C254 C255 1.387 . S
C254 H258 0.950 . S
C254 C263 1.390 . S
C255 C254 1.387 . S
C255 C257 1.387 . S
H256 C263 0.950 . S
C257 C255 1.387 . S
C257 C259 1.390 . S
C257 H261 0.950 . S
H258 C254 0.950 . S
C259 C257 1.390 . S
C259 C260 1.387 . S
C259 H262 0.950 . S
C260 C259 1.387 . S
C260 C263 1.387 . S
H261 C257 0.950 . S
H262 C259 0.950 . S
C263 C254 1.390 . S
C263 H256 0.950 . S
C263 C260 1.387 . S
C264 C265 1.387 . S
C264 H268 0.950 . S
C264 C273 1.390 . S
C265 C264 1.387 . S
C265 C267 1.387 . S
H266 C273 0.950 . S
C267 C265 1.387 . S
C267 C269 1.390 . S
C267 H271 0.950 . S
H268 C264 0.950 . S
C269 C267 1.390 . S
C269 C270 1.387 . S
C269 H272 0.950 . S
C270 C269 1.387 . S
C270 C273 1.387 . S
H271 C267 0.950 . S
H272 C269 0.950 . S
C273 C264 1.390 . S
C273 H266 0.950 . S
C273 C270 1.387 . S
C274 C275 1.387 . S
C274 H278 0.950 . S
C274 C283 1.390 . S
C275 C274 1.387 . S
C275 C277 1.387 . S
H276 C283 0.950 . S
C277 C275 1.387 . S
C277 C279 1.390 . S
C277 H281 0.950 . S
H278 C274 0.950 . S
C279 C277 1.390 . S
C279 C280 1.387 . S
C279 H282 0.950 . S
C280 C279 1.387 . S
C280 C283 1.387 . S
H281 C277 0.950 . S
H282 C279 0.950 . S
C283 C274 1.390 . S
C283 H276 0.950 . S
C283 C280 1.387 . S
C284 C285 1.387 . S
C284 H288 0.950 . S
C284 C293 1.390 . S
C285 C284 1.387 . S
C285 C287 1.387 . S
H286 C293 0.950 . S
C287 C285 1.387 . S
C287 C289 1.390 . S
C287 H291 0.950 . S
H288 C284 0.950 . S
C289 C287 1.390 . S
C289 C290 1.387 . S
C289 H292 0.950 . S
C290 C289 1.387 . S
C290 C293 1.387 . S
H291 C287 0.950 . S
H292 C289 0.950 . S
C293 C284 1.390 . S
C293 H286 0.950 . S
C293 C290 1.387 . S
C294 C295 1.387 . S
C294 H298 0.950 . S
C294 C303 1.390 . S
C295 C294 1.387 . S
C295 C297 1.387 . S
H296 C303 0.950 . S
C297 C295 1.387 . S
C297 C299 1.390 . S
C297 H301 0.950 . S
H298 C294 0.950 . S
C299 C297 1.390 . S
C299 C300 1.387 . S
C299 H302 0.950 . S
C300 C299 1.387 . S
C300 C303 1.387 . S
H301 C297 0.950 . S
H302 C299 0.950 . S
C303 C294 1.390 . S
C303 H296 0.950 . S
C303 C300 1.387 . S
C304 C305 1.387 . S
C304 H308 0.950 . S
C304 C313 1.390 . S
C305 C304 1.387 . S
C305 C307 1.387 . S
H306 C313 0.950 . S
C307 C305 1.387 . S
C307 C309 1.390 . S
C307 H311 0.950 . S
H308 C304 0.950 . S
C309 C307 1.390 . S
C309 C310 1.387 . S
C309 H312 0.950 . S
C310 C309 1.387 . S
C310 C313 1.387 . S
H311 C307 0.950 . S
H312 C309 0.950 . S
C313 C304 1.390 . S
C313 H306 0.950 . S
C313 C310 1.387 . S
C314 C315 1.387 . S
C314 H318 0.950 . S
C314 C323 1.390 . S
C315 C314 1.387 . S
C315 C317 1.387 . S
H316 C323 0.950 . S
C317 C315 1.387 . S
C317 C319 1.390 . S
C317 H321 0.950 . S
H318 C314 0.950 . S
C319 C317 1.390 . S
C319 C320 1.387 . S
C319 H322 0.950 . S
C320 C319 1.387 . S
C320 C323 1.387 . S
H321 C317 0.950 . S
H322 C319 0.950 . S
C323 C314 1.390 . S
C323 H316 0.950 . S
C323 C320 1.387 . S
C324 C325 1.387 . S
C324 H328 0.950 . S
C324 C333 1.390 . S
C325 C324 1.387 . S
C325 C327 1.387 . S
H326 C333 0.950 . S
C327 C325 1.387 . S
C327 C329 1.390 . S
C327 H331 0.950 . S
H328 C324 0.950 . S
C329 C327 1.390 . S
C329 C330 1.387 . S
C329 H332 0.950 . S
C330 C329 1.387 . S
C330 C333 1.387 . S
H331 C327 0.950 . S
H332 C329 0.950 . S
C333 C324 1.390 . S
C333 H326 0.950 . S
C333 C330 1.387 . S
C334 C335 1.387 . S
C334 H338 0.950 . S
C334 C343 1.390 . S
C335 C334 1.387 . S
C335 C337 1.387 . S
H336 C343 0.950 . S
C337 C335 1.387 . S
C337 C339 1.390 . S
C337 H341 0.950 . S
H338 C334 0.950 . S
C339 C337 1.390 . S
C339 C340 1.387 . S
C339 H342 0.950 . S
C340 C339 1.387 . S
C340 C343 1.387 . S
H341 C337 0.950 . S
H342 C339 0.950 . S
C343 C334 1.390 . S
C343 H336 0.950 . S
C343 C340 1.387 . S
C344 C345 1.387 . S
C344 H348 0.950 . S
C344 C353 1.390 . S
C345 C344 1.387 . S
C345 C347 1.387 . S
H346 C353 0.950 . S
C347 C345 1.387 . S
C347 C349 1.390 . S
C347 H351 0.950 . S
H348 C344 0.950 . S
C349 C347 1.390 . S
C349 C350 1.387 . S
C349 H352 0.950 . S
C350 C349 1.387 . S
C350 C353 1.387 . S
H351 C347 0.950 . S
H352 C349 0.950 . S
C353 C344 1.390 . S
C353 H346 0.950 . S
C353 C350 1.387 . S
C354 C355 1.387 . S
C354 H358 0.950 . S
C354 C363 1.390 . S
C355 C354 1.387 . S
C355 C357 1.387 . S
H356 C363 0.950 . S
C357 C355 1.387 . S
C357 C359 1.390 . S
C357 H361 0.950 . S
H358 C354 0.950 . S
C359 C357 1.390 . S
C359 C360 1.387 . S
C359 H362 0.950 . S
C360 C359 1.387 . S
C360 C363 1.387 . S
H361 C357 0.950 . S
H362 C359 0.950 . S
C363 C354 1.390 . S
C363 H356 0.950 . S
C363 C360 1.387 . S
C364 C365 1.387 . S
C364 H368 0.950 . S
C364 C373 1.390 . S
C365 C364 1.387 . S
C365 C367 1.387 . S
H366 C373 0.950 . S
C367 C365 1.387 . S
C367 C369 1.390 . S
C367 H371 0.950 . S
H368 C364 0.950 . S
C369 C367 1.390 . S
C369 C370 1.387 . S
C369 H372 0.950 . S
C370 C369 1.387 . S
C370 C373 1.387 . S
H371 C367 0.950 . S
H372 C369 0.950 . S
C373 C364 1.390 . S
C373 H366 0.950 . S
C373 C370 1.387 . S
C374 C375 1.387 . S
C374 H378 0.950 . S
C374 C383 1.390 . S
C375 C374 1.387 . S
C375 C377 1.387 . S
H376 C383 0.950 . S
C377 C375 1.387 . S
C377 C379 1.390 . S
C377 H381 0.950 . S
H378 C374 0.950 . S
C379 C377 1.390 . S
C379 C380 1.387 . S
C379 H382 0.950 . S
C380 C379 1.387 . S
C380 C383 1.387 . S
H381 C377 0.950 . S
H382 C379 0.950 . S
C383 C374 1.390 . S
C383 H376 0.950 . S
C383 C380 1.387 . S
C384 C385 1.387 . S
C384 H388 0.950 . S
C384 C393 1.390 . S
C385 C384 1.387 . S
C385 C387 1.387 . S
H386 C393 0.950 . S
C387 C385 1.387 . S
C387 C389 1.390 . S
C387 H391 0.950 . S
H388 C384 0.950 . S
C389 C387 1.390 . S
C389 C390 1.387 . S
C389 H392 0.950 . S
C390 C389 1.387 . S
C390 C393 1.387 . S
H391 C387 0.950 . S
H392 C389 0.950 . S
C393 C384 1.390 . S
C393 H386 0.950 . S
C393 C390 1.387 . S
C394 C395 1.387 . S
C394 H398 0.950 . S
C394 C403 1.390 . S
C395 C394 1.387 . S
C395 C397 1.387 . S
H396 C403 0.950 . S
C397 C395 1.387 . S
C397 C399 1.390 . S
C397 H401 0.950 . S
H398 C394 0.950 . S
C399 C397 1.390 . S
C399 C400 1.387 . S
C399 H402 0.950 . S
C400 C399 1.387 . S
C400 C403 1.387 . S
H401 C397 0.950 . S
H402 C399 0.950 . S
C403 C394 1.390 . S
C403 H396 0.950 . S
C403 C400 1.387 . S
C404 C405 1.387 . S
C404 H408 0.950 . S
C404 C413 1.390 . S
C405 C404 1.387 . S
C405 C407 1.387 . S
H406 C413 0.950 . S
C407 C405 1.387 . S
C407 C409 1.390 . S
C407 H411 0.950 . S
H408 C404 0.950 . S
C409 C407 1.390 . S
C409 C410 1.387 . S
C409 H412 0.950 . S
C410 C409 1.387 . S
C410 C413 1.387 . S
H411 C407 0.950 . S
H412 C409 0.950 . S
C413 C404 1.390 . S
C413 H406 0.950 . S
C413 C410 1.387 . S
C414 C415 1.387 . S
C414 H418 0.950 . S
C414 C423 1.390 . S
C415 C414 1.387 . S
C415 C417 1.387 . S
H416 C423 0.950 . S
C417 C415 1.387 . S
C417 C419 1.390 . S
C417 H421 0.950 . S
H418 C414 0.950 . S
C419 C417 1.390 . S
C419 C420 1.387 . S
C419 H422 0.950 . S
C420 C419 1.387 . S
C420 C423 1.387 . S
H421 C417 0.950 . S
H422 C419 0.950 . S
C423 C414 1.390 . S
C423 H416 0.950 . S
C423 C420 1.387 . S
C424 C425 1.387 . S
C424 H428 0.950 . S
C424 C433 1.390 . S
C425 C424 1.387 . S
C425 C427 1.387 . S
H426 C433 0.950 . S
C427 C425 1.387 . S
C427 C429 1.390 . S
C427 H431 0.950 . S
H428 C424 0.950 . S
C429 C427 1.390 . S
C429 C430 1.387 . S
C429 H432 0.950 . S
C430 C429 1.387 . S
C430 C433 1.387 . S
H431 C427 0.950 . S
H432 C429 0.950 . S
C433 C424 1.390 . S
C433 H426 0.950 . S
C433 C430 1.387 . S
C434 C435 1.387 . S
C434 H438 0.950 . S
C434 C443 1.390 . S
C435 C434 1.387 . S
C435 C437 1.387 . S
H436 C443 0.950 . S
C437 C435 1.387 . S
C437 C439 1.390 . S
C437 H441 0.950 . S
H438 C434 0.950 . S
C439 C437 1.390 . S
C439 C440 1.387 . S
C439 H442 0.950 . S
C440 C439 1.387 . S
C440 C443 1.387 . S
H441 C437 0.950 . S
H442 C439 0.950 . S
C443 C434 1.390 . S
C443 H436 0.950 . S
C443 C440 1.387 . S
C444 C445 1.387 . S
C444 H448 0.950 . S
C444 C453 1.390 . S
C445 C444 1.387 . S
C445 C447 1.387 . S
H446 C453 0.950 . S
C447 C445 1.387 . S
C447 C449 1.390 . S
C447 H451 0.950 . S
H448 C444 0.950 . S
C449 C447 1.390 . S
C449 C450 1.387 . S
C449 H452 0.950 . S
C450 C449 1.387 . S
C450 C453 1.387 . S
H451 C447 0.950 . S
H452 C449 0.950 . S
C453 C444 1.390 . S
C453 H446 0.950 . S
C453 C450 1.387 . S
C454 C455 1.387 . S
C454 H458 0.950 . S
C454 C463 1.390 . S
C455 C454 1.387 . S
C455 C457 1.387 . S
H456 C463 0.950 . S
C457 C455 1.387 . S
C457 C459 1.390 . S
C457 H461 0.950 . S
H458 C454 0.950 . S
C459 C457 1.390 . S
C459 C460 1.387 . S
C459 H462 0.950 . S
C460 C459 1.387 . S
C460 C463 1.387 . S
H461 C457 0.950 . S
H462 C459 0.950 . S
C463 C454 1.390 . S
C463 H456 0.950 . S
C463 C460 1.387 . S
C464 C465 1.387 . S
C464 H468 0.950 . S
C464 C473 1.390 1_554 S
C465 C464 1.387 . S
C465 C467 1.387 . S
H466 C473 0.950 . S
C467 C465 1.387 . S
C467 C469 1.390 1_554 S
C467 H471 0.950 . S
H468 C464 0.950 . S
C469 C467 1.390 1_556 S
C469 C470 1.387 . S
C469 H472 0.950 . S
C470 C469 1.387 . S
C470 C473 1.387 . S
H471 C467 0.950 . S
H472 C469 0.950 . S
C473 C464 1.390 1_556 S
C473 H466 0.950 . S
C473 C470 1.387 . S
C474 C475 1.387 . S
C474 H478 0.950 . S
C474 C483 1.390 . S
C475 C474 1.387 . S
C475 C477 1.387 . S
H476 C483 0.950 . S
C477 C475 1.387 . S
C477 C479 1.390 . S
C477 H481 0.950 . S
H478 C474 0.950 . S
C479 C477 1.390 . S
C479 C480 1.387 . S
C479 H482 0.950 . S
C480 C479 1.387 . S
C480 C483 1.387 . S
H481 C477 0.950 . S
H482 C479 0.950 . S
C483 C474 1.390 . S
C483 H476 0.950 . S
C483 C480 1.387 . S
C484 C485 1.387 1_455 S
C484 H488 0.950 . S
C484 C493 1.390 1_554 S
C485 C484 1.387 1_655 S
C485 C487 1.387 . S
H486 C493 0.950 . S
C487 C485 1.387 . S
C487 C489 1.390 1_554 S
C487 H491 0.950 . S
H488 C484 0.950 . S
C489 C487 1.390 1_556 S
C489 C490 1.387 . S
C489 H492 0.950 . S
C490 C489 1.387 . S
C490 C493 1.387 1_655 S
H491 C487 0.950 . S
H492 C489 0.950 . S
C493 C484 1.390 1_556 S
C493 H486 0.950 . S
C493 C490 1.387 1_455 S
C494 C495 1.387 1_545 S
C494 H498 0.950 . S
C494 C503 1.390 . S
C495 C494 1.387 1_565 S
C495 C497 1.387 . S
H496 C503 0.950 . S
C497 C495 1.387 . S
C497 C499 1.390 . S
C497 H501 0.950 . S
H498 C494 0.950 . S
C499 C497 1.390 . S
C499 C500 1.387 . S
C499 H502 0.950 . S
C500 C499 1.387 . S
C500 C503 1.387 1_565 S
H501 C497 0.950 . S
H502 C499 0.950 . S
C503 C494 1.390 . S
C503 H496 0.950 . S
C503 C500 1.387 1_545 S
C504 C505 1.387 . S
C504 H508 0.950 . S
C504 C513 1.390 1_556 S
C505 C504 1.387 . S
C505 C507 1.387 . S
H506 C513 0.950 . S
C507 C505 1.387 . S
C507 C509 1.390 1_556 S
C507 H511 0.950 . S
H508 C504 0.950 . S
C509 C507 1.390 1_554 S
C509 C510 1.387 . S
C509 H512 0.950 . S
C510 C509 1.387 . S
C510 C513 1.387 . S
H511 C507 0.950 . S
H512 C509 0.950 . S
C513 C504 1.390 1_554 S
C513 H506 0.950 . S
C513 C510 1.387 . S
C514 C515 1.387 . S
C514 H518 0.950 . S
C514 C523 1.390 . S
C515 C514 1.387 . S
C515 C517 1.387 . S
H516 C523 0.950 . S
C517 C515 1.387 . S
C517 C519 1.390 . S
C517 H521 0.950 . S
H518 C514 0.950 . S
C519 C517 1.390 . S
C519 C520 1.387 . S
C519 H522 0.950 . S
C520 C519 1.387 . S
C520 C523 1.387 . S
H521 C517 0.950 . S
H522 C519 0.950 . S
C523 C514 1.390 . S
C523 H516 0.950 . S
C523 C520 1.387 . S
C524 C525 1.387 . S
C524 H528 0.950 . S
C524 C533 1.390 1_554 S
C525 C524 1.387 . S
C525 C527 1.387 1_455 S
H526 C533 0.950 . S
C527 C525 1.387 1_655 S
C527 C529 1.390 1_554 S
C527 H531 0.950 . S
H528 C524 0.950 . S
C529 C527 1.390 1_556 S
C529 C530 1.387 1_655 S
C529 H532 0.950 . S
C530 C529 1.387 1_455 S
C530 C533 1.387 . S
H531 C527 0.950 . S
H532 C529 0.950 . S
C533 C524 1.390 1_556 S
C533 H526 0.950 . S
C533 C530 1.387 . S
C534 C535 1.387 . S
C534 H538 0.950 . S
C534 C543 1.390 . S
C535 C534 1.387 . S
C535 C537 1.387 1_545 S
H536 C543 0.950 . S
C537 C535 1.387 1_565 S
C537 C539 1.390 . S
C537 H541 0.950 . S
H538 C534 0.950 . S
C539 C537 1.390 . S
C539 C540 1.387 1_565 S
C539 H542 0.950 . S
C540 C539 1.387 1_545 S
C540 C543 1.387 . S
H541 C537 0.950 . S
H542 C539 0.950 . S
C543 C534 1.390 . S
C543 H536 0.950 . S
C543 C540 1.387 . S
C225 C11 1.298 . S
C230 C109 1.297 . S
C235 C25 1.299 . S
C240 C67 1.299 . S
C245 C39 1.297 . S
C250 C81 1.298 . S
C255 C53 1.298 . S
C260 C95 1.297 . S
C265 C123 1.297 . S
C270 C221 1.299 . S
C275 C179 1.297 . S
C280 C137 1.297 . S
C285 C151 1.299 . S
C290 C193 1.298 . S
C295 C165 1.297 . S
C300 C207 1.298 . S
C305 C8 1.241 . S
C310 C139 1.309 . S
C315 C22 1.236 . S
C320 C153 1.312 . S
C325 C167 1.312 . S
C330 C36 1.238 . S
C335 C50 1.236 . S
C340 C125 1.313 . S
C345 C64 1.235 . S
C350 C223 1.312 . S
C355 C181 1.309 . S
C360 C78 1.239 . S
C365 C195 1.312 . S
C370 C92 1.235 . S
C375 C209 1.309 . S
C380 C106 1.241 . S
C385 C27 1.313 . S
C390 C120 1.236 . S
C395 C41 1.309 . S
C400 C134 1.240 . S
C405 C148 1.235 . S
C410 C55 1.312 . S
C415 C13 1.309 . S
C420 C162 1.240 . S
C425 C176 1.235 . S
C430 C111 1.312 . S
C435 C190 1.236 . S
C440 C69 1.313 . S
C445 C83 1.309 . S
C450 C204 1.241 . S
C455 C97 1.312 . S
C460 C218 1.235 . S
C465 C7 1.502 . S
C470 C63 1.502 . S
C475 C77 1.503 . S
C480 C21 1.503 . S
C485 C35 1.503 . S
C490 C91 1.503 . S
C495 C105 1.503 . S
C500 C49 1.503 . S
C505 C119 1.502 . S
C510 C175 1.502 . S
C515 C189 1.502 . S
C520 C133 1.502 . S
C525 C203 1.503 . S
C530 C147 1.503 . S
C535 C217 1.503 . S
C540 C161 1.503 . S
