# Generated by pormake.
# Topology wme, (6)-cn, num edge types: 1
# Building blocks:
#     Node 0, Type 0, BuildingBlock: MIDCAF_clean_sbu_0, # of connection points: 6
#     Node 1, Type 0, BuildingBlock: MIDCAF_clean_sbu_0, # of connection points: 6
#     Node 2, Type 0, BuildingBlock: MIDCAF_clean_sbu_0, # of connection points: 6
#     Node 3, Type 0, BuildingBlock: MIDCAF_clean_sbu_0, # of connection points: 6
#     Node 4, Type 0, BuildingBlock: MIDCAF_clean_sbu_0, # of connection points: 6
#     Node 5, Type 0, BuildingBlock: MIDCAF_clean_sbu_0, # of connection points: 6
#     Node 6, Type 0, BuildingBlock: MIDCAF_clean_sbu_0, # of connection points: 6
#     Node 7, Type 0, BuildingBlock: MIDCAF_clean_sbu_0, # of connection points: 6
#     Node 8, Type 0, BuildingBlock: MIDCAF_clean_sbu_0, # of connection points: 6
#     Node 9, Type 0, BuildingBlock: MIDCAF_clean_sbu_0, # of connection points: 6
#     Node 10, Type 0, BuildingBlock: MIDCAF_clean_sbu_0, # of connection points: 6
#     Node 11, Type 0, BuildingBlock: MIDCAF_clean_sbu_0, # of connection points: 6
#     Edge 12, Type (0, 0), BuildingBlock: KIFKEQ_clean_linker_1, # of connection points: 2
#     Edge 13, Type (0, 0), BuildingBlock: KIFKEQ_clean_linker_1, # of connection points: 2
#     Edge 14, Type (0, 0), BuildingBlock: KIFKEQ_clean_linker_1, # of connection points: 2
#     Edge 15, Type (0, 0), BuildingBlock: KIFKEQ_clean_linker_1, # of connection points: 2
#     Edge 16, Type (0, 0), BuildingBlock: KIFKEQ_clean_linker_1, # of connection points: 2
#     Edge 17, Type (0, 0), BuildingBlock: KIFKEQ_clean_linker_1, # of connection points: 2
#     Edge 18, Type (0, 0), BuildingBlock: KIFKEQ_clean_linker_1, # of connection points: 2
#     Edge 19, Type (0, 0), BuildingBlock: KIFKEQ_clean_linker_1, # of connection points: 2
#     Edge 20, Type (0, 0), BuildingBlock: KIFKEQ_clean_linker_1, # of connection points: 2
#     Edge 21, Type (0, 0), BuildingBlock: KIFKEQ_clean_linker_1, # of connection points: 2
#     Edge 22, Type (0, 0), BuildingBlock: KIFKEQ_clean_linker_1, # of connection points: 2
#     Edge 23, Type (0, 0), BuildingBlock: KIFKEQ_clean_linker_1, # of connection points: 2
#     Edge 24, Type (0, 0), BuildingBlock: KIFKEQ_clean_linker_1, # of connection points: 2
#     Edge 25, Type (0, 0), BuildingBlock: KIFKEQ_clean_linker_1, # of connection points: 2
#     Edge 26, Type (0, 0), BuildingBlock: KIFKEQ_clean_linker_1, # of connection points: 2
#     Edge 27, Type (0, 0), BuildingBlock: KIFKEQ_clean_linker_1, # of connection points: 2
#     Edge 28, Type (0, 0), BuildingBlock: KIFKEQ_clean_linker_1, # of connection points: 2
#     Edge 29, Type (0, 0), BuildingBlock: KIFKEQ_clean_linker_1, # of connection points: 2
#     Edge 30, Type (0, 0), BuildingBlock: KIFKEQ_clean_linker_1, # of connection points: 2
#     Edge 31, Type (0, 0), BuildingBlock: KIFKEQ_clean_linker_1, # of connection points: 2
#     Edge 32, Type (0, 0), BuildingBlock: KIFKEQ_clean_linker_1, # of connection points: 2
#     Edge 33, Type (0, 0), BuildingBlock: KIFKEQ_clean_linker_1, # of connection points: 2
#     Edge 34, Type (0, 0), BuildingBlock: KIFKEQ_clean_linker_1, # of connection points: 2
#     Edge 35, Type (0, 0), BuildingBlock: KIFKEQ_clean_linker_1, # of connection points: 2
#     Edge 36, Type (0, 0), BuildingBlock: KIFKEQ_clean_linker_1, # of connection points: 2
#     Edge 37, Type (0, 0), BuildingBlock: KIFKEQ_clean_linker_1, # of connection points: 2
#     Edge 38, Type (0, 0), BuildingBlock: KIFKEQ_clean_linker_1, # of connection points: 2
#     Edge 39, Type (0, 0), BuildingBlock: KIFKEQ_clean_linker_1, # of connection points: 2
#     Edge 40, Type (0, 0), BuildingBlock: KIFKEQ_clean_linker_1, # of connection points: 2
#     Edge 41, Type (0, 0), BuildingBlock: KIFKEQ_clean_linker_1, # of connection points: 2
#     Edge 42, Type (0, 0), BuildingBlock: KIFKEQ_clean_linker_1, # of connection points: 2
#     Edge 43, Type (0, 0), BuildingBlock: KIFKEQ_clean_linker_1, # of connection points: 2
#     Edge 44, Type (0, 0), BuildingBlock: KIFKEQ_clean_linker_1, # of connection points: 2
#     Edge 45, Type (0, 0), BuildingBlock: KIFKEQ_clean_linker_1, # of connection points: 2
#     Edge 46, Type (0, 0), BuildingBlock: KIFKEQ_clean_linker_1, # of connection points: 2
#     Edge 47, Type (0, 0), BuildingBlock: KIFKEQ_clean_linker_1, # of connection points: 2
# Relax obj value: 0.386
# Max RMSD: 0.269
# Mean RMSD: 0.269
data_MOF--net-wme--node1-MIDCAF_clean_sbu_0--edge1-KIFKEQ_clean_linker_1
_symmetry_space_group_name_H-M    P1
_symmetry_Int_Tables_number       1
_symmetry_cell_setting            triclinic
loop_
_symmetry_equiv_pos_as_xyz
'x, y, z'
_cell_length_a     28.467885
_cell_length_b     28.520111
_cell_length_c     58.858272
_cell_angle_alpha  89.70492
_cell_angle_beta   89.640047
_cell_angle_gamma 119.87112
loop_
_atom_site_label
_atom_site_type_symbol
_atom_site_fract_x
_atom_site_fract_y
_atom_site_fract_z
_atom_type_partial_charge
Zn0 Zn 0.16129 0.24266 0.11932 0.0
Zn1 Zn 0.25036 0.39965 0.08225 0.0
Zn2 Zn 0.21477 0.33209 0.11161 0.0
C3 C 0.18297 0.42169 0.11233 0.0
C4 C 0.33732 0.41038 0.11023 0.0
O5 O 0.26723 0.30327 0.12554 0.0
O6 O 0.21892 0.23241 0.10437 0.0
C7 C 0.09419 0.28262 0.11194 0.0
O8 O 0.17774 0.37997 0.12329 0.0
O9 O 0.21163 0.43718 0.09436 0.0
O10 O 0.32708 0.42678 0.09189 0.0
O11 O 0.29864 0.37257 0.12179 0.0
O12 O 0.09774 0.24356 0.10372 0.0
O13 O 0.13527 0.3202 0.12229 0.0
O14 O 0.1724 0.33466 0.14297 0.0
O15 O 0.17264 0.26098 0.1535 0.0
C16 C 0.17218 0.30362 0.15909 0.0
O17 O 0.19024 0.28869 0.07993 0.0
O18 O 0.22264 0.35357 0.05441 0.0
C19 C 0.26166 0.2609 0.11548 0.0
C20 C 0.19732 0.30365 0.05919 0.0
Zn21 Zn 0.81776 0.23533 0.59624 0.0
Zn22 Zn 0.92201 0.17199 0.65023 0.0
Zn23 Zn 0.86879 0.2023 0.62382 0.0
C24 C 0.90567 0.24015 0.67684 0.0
C25 C 0.8223 0.07916 0.63971 0.0
O26 O 0.9185 0.23756 0.59162 0.0
O27 O 0.86877 0.25921 0.56999 0.0
C28 C 0.84339 0.29566 0.63723 0.0
O29 O 0.88223 0.24167 0.65834 0.0
O30 O 0.92926 0.21278 0.6778 0.0
O31 O 0.86547 0.09376 0.6506 0.0
O32 O 0.81563 0.11431 0.62854 0.0
O33 O 0.82045 0.28983 0.61829 0.0
O34 O 0.86448 0.26638 0.64253 0.0
O35 O 0.78503 0.13392 0.61773 0.0
O36 O 0.74868 0.16636 0.5937 0.0
C37 C 0.74449 0.12776 0.6058 0.0
O38 O 0.94362 0.21674 0.60552 0.0
O39 O 0.98731 0.19674 0.63131 0.0
C40 C 0.9113 0.25653 0.57277 0.0
C41 C 0.98532 0.21352 0.61168 0.0
Zn42 Zn 0.7528 0.92182 0.1623 0.0
Zn43 Zn 0.59763 0.87289 0.1166 0.0
Zn44 Zn 0.67303 0.89194 0.13999 0.0
C45 C 0.59137 0.77458 0.12809 0.0
C46 C 0.5804 0.91436 0.15451 0.0
O47 O 0.73293 0.97152 0.12684 0.0
O48 O 0.77583 0.00064 0.15921 0.0
C49 C 0.74555 0.84044 0.13557 0.0
O50 O 0.64215 0.80738 0.13093 0.0
O51 O 0.5601 0.79319 0.1242 0.0
O52 O 0.57526 0.91925 0.13349 0.0
O53 O 0.61174 0.89673 0.1612 0.0
O54 O 0.78298 0.88597 0.14207 0.0
O55 O 0.69608 0.82971 0.13672 0.0
O56 O 0.6502 0.89646 0.1757 0.0
O57 O 0.71356 0.88349 0.19069 0.0
C58 C 0.66996 0.88453 0.19294 0.0
O59 O 0.70214 0.94519 0.10863 0.0
O60 O 0.63203 0.89927 0.08636 0.0
C61 C 0.76491 0.01077 0.13968 0.0
C62 C 0.68047 0.93639 0.08876 0.0
Zn63 Zn 0.82591 0.81825 0.65145 0.0
Zn64 Zn 0.79291 0.61523 0.60484 0.0
Zn65 Zn 0.77995 0.66992 0.63384 0.0
C66 C 0.83901 0.60869 0.64679 0.0
C67 C 0.6781 0.5721 0.6184 0.0
O68 O 0.70201 0.66792 0.63703 0.0
O69 O 0.76856 0.74063 0.64974 0.0
C70 C 0.89055 0.79898 0.62178 0.0
O71 O 0.81079 0.62878 0.6546 0.0
O72 O 0.84358 0.60535 0.62552 0.0
O73 O 0.71138 0.5623 0.60794 0.0
O74 O 0.695 0.61706 0.62872 0.0
O75 O 0.88948 0.84048 0.6289 0.0
O76 O 0.8499 0.75175 0.62624 0.0
O77 O 0.80775 0.67563 0.66811 0.0
O78 O 0.82105 0.75856 0.67503 0.0
C79 C 0.817 0.71393 0.68197 0.0
O80 O 0.81476 0.71617 0.60312 0.0
O81 O 0.82107 0.66413 0.57733 0.0
C82 C 0.71975 0.716 0.644 0.0
C83 C 0.82599 0.70907 0.58276 0.0
Zn84 Zn 0.06657 0.80229 0.16559 0.0
Zn85 Zn 0.15344 0.76014 0.10053 0.0
Zn86 Zn 0.10455 0.78116 0.13301 0.0
C87 C 0.22577 0.80102 0.13583 0.0
C88 C 0.06048 0.66306 0.11776 0.0
O89 O 0.01826 0.71891 0.1348 0.0
O90 O 0.99331 0.7707 0.15284 0.0
C91 C 0.13688 0.89645 0.14028 0.0
O92 O 0.18203 0.79369 0.14556 0.0
O93 O 0.22702 0.79406 0.11469 0.0
O94 O 0.1041 0.68104 0.10645 0.0
O95 O 0.04812 0.69576 0.12748 0.0
O96 O 0.12421 0.88028 0.16062 0.0
O97 O 0.11949 0.86154 0.12423 0.0
O98 O 0.14976 0.78631 0.16409 0.0
O99 O 0.07989 0.75703 0.18745 0.0
C100 C 0.12705 0.76569 0.18334 0.0
O101 O 0.10679 0.83197 0.10401 0.0
O102 O 0.13241 0.79629 0.07672 0.0
C103 C 0.98097 0.72877 0.14147 0.0
C104 C 0.11292 0.82569 0.08271 0.0
Zn105 Zn 0.23994 0.04973 0.64208 0.0
Zn106 Zn 0.3945 0.12109 0.59445 0.0
Zn107 Zn 0.31815 0.0778 0.61787 0.0
C108 C 0.39796 0.201 0.61944 0.0
C109 C 0.40121 0.04269 0.61965 0.0
O110 O 0.29161 0.99158 0.62205 0.0
O111 O 0.21007 0.97459 0.63264 0.0
C112 C 0.22563 0.1023 0.6059 0.0
O113 O 0.37331 0.15902 0.63249 0.0
O114 O 0.40555 0.19488 0.59881 0.0
O115 O 0.43139 0.09182 0.61415 0.0
O116 O 0.34954 0.02145 0.61825 0.0
O117 O 0.21278 0.09433 0.62673 0.0
O118 O 0.26101 0.09118 0.59782 0.0
O119 O 0.34606 0.12459 0.65013 0.0
O120 O 0.27665 0.06842 0.67156 0.0
C121 C 0.32472 0.10686 0.66994 0.0
O122 O 0.28859 0.07729 0.58316 0.0
O123 O 0.35999 0.08239 0.56615 0.0
C124 C 0.24118 0.95779 0.62586 0.0
C125 C 0.31112 0.07087 0.56529 0.0
Zn126 Zn 0.61343 0.77474 0.43617 0.0
Zn127 Zn 0.73193 0.81689 0.36741 0.0
Zn128 Zn 0.67195 0.7959 0.4012 0.0
C129 C 0.64111 0.80599 0.35051 0.0
C130 C 0.76859 0.90584 0.39722 0.0
O131 O 0.72649 0.83656 0.43069 0.0
O132 O 0.66987 0.8003 0.45978 0.0
C133 C 0.58952 0.67551 0.41724 0.0
O134 O 0.63967 0.81955 0.37128 0.0
O135 O 0.67279 0.78895 0.34496 0.0
O136 O 0.7657 0.89561 0.37622 0.0
O137 O 0.74408 0.86678 0.41151 0.0
O138 O 0.56988 0.69514 0.43106 0.0
O139 O 0.63217 0.70737 0.40554 0.0
O140 O 0.61485 0.82376 0.39179 0.0
O141 O 0.58518 0.82281 0.42657 0.0
C142 C 0.58831 0.83643 0.40591 0.0
O143 O 0.68394 0.72619 0.39688 0.0
O144 O 0.76105 0.77053 0.37791 0.0
C145 C 0.71765 0.82854 0.45229 0.0
C146 C 0.72845 0.72992 0.38966 0.0
Zn147 Zn 0.98292 0.80556 0.87232 0.0
Zn148 Zn 0.82019 0.62594 0.92886 0.0
Zn149 Zn 0.88192 0.6926 0.90036 0.0
C150 C 0.7604 0.63409 0.8917 0.0
C151 C 0.88437 0.58621 0.91131 0.0
O152 O 0.9542 0.6854 0.89901 0.0
O153 O 0.97432 0.73101 0.86807 0.0
C154 C 0.89355 0.80399 0.90116 0.0
O155 O 0.80638 0.65431 0.88136 0.0
O156 O 0.75794 0.62614 0.91297 0.0
O157 O 0.83895 0.56812 0.92118 0.0
O158 O 0.91091 0.63589 0.90498 0.0
O159 O 0.92578 0.82198 0.88426 0.0
O160 O 0.89209 0.76676 0.91409 0.0
O161 O 0.85511 0.69523 0.86608 0.0
O162 O 0.93688 0.74424 0.84935 0.0
C163 C 0.88524 0.71449 0.84819 0.0
O164 O 0.89086 0.73798 0.93247 0.0
O165 O 0.8522 0.66986 0.95679 0.0
C166 C 0.99119 0.71895 0.88564 0.0
C167 C 0.88129 0.72008 0.95316 0.0
Zn168 Zn 0.13502 0.87384 0.36318 0.0
Zn169 Zn 0.22983 0.79763 0.39448 0.0
Zn170 Zn 0.18352 0.84176 0.38565 0.0
C171 C 0.12521 0.72087 0.39875 0.0
C172 C 0.30162 0.88973 0.37653 0.0
O173 O 0.23415 0.92847 0.39079 0.0
O174 O 0.19101 0.9525 0.36657 0.0
C175 C 0.06753 0.81545 0.40139 0.0
O176 O 0.12539 0.76481 0.40414 0.0
O177 O 0.16675 0.72397 0.38939 0.0
O178 O 0.28323 0.8416 0.37004 0.0
O179 O 0.27099 0.9004 0.38906 0.0
O180 O 0.06962 0.84309 0.38412 0.0
O181 O 0.10765 0.80795 0.40585 0.0
O182 O 0.18189 0.80355 0.35498 0.0
O183 O 0.13488 0.83176 0.33557 0.0
C184 C 0.15936 0.805 0.33669 0.0
O185 O 0.15458 0.81596 0.41986 0.0
O186 O 0.23677 0.83136 0.42631 0.0
C187 C 0.22869 0.96545 0.38074 0.0
C188 C 0.19434 0.83057 0.43363 0.0
Zn189 Zn 0.25342 0.1825 0.85216 0.0
Zn190 Zn 0.39687 0.21722 0.90423 0.0
Zn191 Zn 0.33163 0.20778 0.8778 0.0
C192 C 0.39922 0.1512 0.8729 0.0
C193 C 0.42809 0.31638 0.88139 0.0
O194 O 0.32043 0.27866 0.88076 0.0
O195 O 0.23747 0.23471 0.8671 0.0
C196 C 0.22426 0.09661 0.88226 0.0
O197 O 0.38528 0.18128 0.86173 0.0
O198 O 0.39584 0.14977 0.89431 0.0
O199 O 0.44749 0.28756 0.88837 0.0
O200 O 0.37637 0.2958 0.88092 0.0
O201 O 0.21237 0.10445 0.86247 0.0
O202 O 0.26461 0.135 0.89263 0.0
O203 O 0.35613 0.19119 0.84455 0.0
O204 O 0.29926 0.20523 0.82436 0.0
C205 C 0.34085 0.20024 0.82531 0.0
O206 O 0.29106 0.16746 0.91017 0.0
O207 O 0.35916 0.21626 0.93283 0.0
C208 C 0.27366 0.27452 0.87777 0.0
C209 C 0.3091 0.18455 0.93024 0.0
Zn210 Zn 0.08588 0.23806 0.36842 0.0
Zn211 Zn 0.18211 0.42191 0.38675 0.0
Zn212 Zn 0.1354 0.32826 0.37935 0.0
C213 C 0.25958 0.3983 0.379 0.0
C214 C 0.08021 0.39555 0.38017 0.0
O215 O 0.05881 0.29319 0.39994 0.0
O216 O 0.01385 0.21654 0.38126 0.0
C217 C 0.17385 0.24743 0.39339 0.0
O218 O 0.22036 0.35501 0.38779 0.0
O219 O 0.24999 0.43402 0.37124 0.0
O220 O 0.12333 0.42682 0.36939 0.0
O221 O 0.07836 0.3555 0.39111 0.0
O222 O 0.12926 0.2119 0.38532 0.0
O223 O 0.1876 0.29756 0.39181 0.0
O224 O 0.13158 0.33857 0.34246 0.0
O225 O 0.09777 0.25237 0.33533 0.0
C226 C 0.11678 0.30029 0.32807 0.0
O227 O 0.10052 0.33781 0.41148 0.0
O228 O 0.17386 0.41123 0.42251 0.0
C229 C 0.0151 0.24774 0.39664 0.0
C230 C 0.12957 0.36911 0.42773 0.0
Zn231 Zn 0.86549 0.09696 0.86569 0.0
Zn232 Zn 0.78738 0.18288 0.90881 0.0
Zn233 Zn 0.82133 0.13908 0.88765 0.0
C234 C 0.87332 0.25911 0.88652 0.0
C235 C 0.70763 0.11787 0.8805 0.0
O236 O 0.75384 0.05637 0.88473 0.0
O237 O 0.80626 0.0235 0.87422 0.0
C238 C 0.9323 0.1529 0.90314 0.0
O239 O 0.85178 0.21953 0.87256 0.0
O240 O 0.85957 0.25029 0.9072 0.0
O241 O 0.7298 0.16719 0.88577 0.0
O242 O 0.73245 0.09147 0.88462 0.0
O243 O 0.9335 0.1334 0.88406 0.0
O244 O 0.88861 0.15177 0.90998 0.0
O245 O 0.85138 0.18589 0.85514 0.0
O246 O 0.86668 0.12901 0.83549 0.0
C247 C 0.8629 0.17128 0.8362 0.0
O248 O 0.84351 0.13565 0.92374 0.0
O249 O 0.76852 0.13286 0.9351 0.0
C250 C 0.76087 0.01585 0.88121 0.0
C251 C 0.80634 0.12311 0.93901 0.0
H252 H 0.21068 0.96772 0.16949 0.0
H253 H 0.1511 0.95611 0.1013 0.0
H254 H 0.27061 0.06436 0.16434 0.0
H255 H 0.20956 0.05375 0.09636 0.0
H256 H 0.31045 0.22344 0.0872 0.0
H257 H 0.29695 0.13293 0.0931 0.0
H258 H 0.25711 0.13922 0.16359 0.0
H259 H 0.27233 0.22989 0.15763 0.0
C260 C 0.21027 0.98598 0.15336 0.0
C261 C 0.17515 0.95457 0.13595 0.0
C262 C 0.24486 0.04147 0.1504 0.0
C263 C 0.24478 0.06733 0.13006 0.0
C264 C 0.21145 0.03533 0.1122 0.0
C265 C 0.17732 0.9794 0.11506 0.0
C266 C 0.30275 0.20689 0.10432 0.0
C267 C 0.29129 0.23306 0.12186 0.0
C268 C 0.29346 0.15433 0.10757 0.0
C269 C 0.27322 0.1276 0.12851 0.0
C270 C 0.27194 0.15799 0.1471 0.0
C271 C 0.28163 0.21072 0.14382 0.0
H272 H 0.12162 0.05089 0.5927 0.0
H273 H 0.27022 0.20361 0.58807 0.0
H274 H 0.07089 0.09384 0.58002 0.0
H275 H 0.2195 0.24756 0.57538 0.0
H276 H 0.09237 0.27872 0.61787 0.0
H277 H 0.16136 0.2613 0.60253 0.0
H278 H 0.0455 0.14796 0.55521 0.0
H279 H 0.97623 0.16617 0.57075 0.0
C280 C 0.14354 0.09332 0.58792 0.0
C281 C 0.1994 0.12419 0.59138 0.0
C282 C 0.11464 0.11805 0.58048 0.0
C283 C 0.14107 0.1744 0.5769 0.0
C284 C 0.198 0.20418 0.5781 0.0
C285 C 0.22703 0.17913 0.58529 0.0
C286 C 0.08261 0.25255 0.60328 0.0
C287 C 0.02906 0.223 0.59572 0.0
C288 C 0.12221 0.2425 0.5944 0.0
C289 C 0.10846 0.20195 0.57809 0.0
C290 C 0.05696 0.17874 0.56805 0.0
C291 C 0.0174 0.1894 0.57681 0.0
H292 H 0.784 0.1016 0.16212 0.0
H293 H 0.81262 0.04549 0.09862 0.0
H294 H 0.85119 0.19437 0.15173 0.0
H295 H 0.88105 0.13613 0.08846 0.0
H296 H 0.02753 0.27082 0.07717 0.0
H297 H 0.92917 0.22622 0.08045 0.0
H298 H 0.94307 0.23298 0.15375 0.0
H299 H 0.04072 0.28177 0.15004 0.0
C300 C 0.80385 0.10951 0.14565 0.0
C301 C 0.794 0.0667 0.13118 0.0
C302 C 0.84248 0.16254 0.1397 0.0
C303 C 0.87336 0.17315 0.11959 0.0
C304 C 0.85852 0.13056 0.10407 0.0
C305 C 0.81909 0.07795 0.10983 0.0
C306 C 0.00912 0.26525 0.09387 0.0
C307 C 0.04082 0.27797 0.1134 0.0
C308 C 0.95281 0.23914 0.09582 0.0
C309 C 0.92776 0.22262 0.11735 0.0
C310 C 0.96023 0.24375 0.1368 0.0
C311 C 0.0166 0.27172 0.13478 0.0
H312 H 0.72378 0.76686 0.60509 0.0
H313 H 0.66346 0.74259 0.6737 0.0
H314 H 0.72564 0.85252 0.60297 0.0
H315 H 0.66201 0.8275 0.67155 0.0
H316 H 0.75392 0.01857 0.60547 0.0
H317 H 0.69811 0.91964 0.60463 0.0
H318 H 0.74354 0.91154 0.67391 0.0
H319 H 0.79761 0.00906 0.67468 0.0
C320 C 0.70719 0.77811 0.61913 0.0
C321 C 0.69337 0.74808 0.63941 0.0
C322 C 0.70841 0.82764 0.61804 0.0
C323 C 0.6954 0.84791 0.63734 0.0
C324 C 0.67371 0.81379 0.65656 0.0
C325 C 0.67358 0.76464 0.65771 0.0
C326 C 0.75036 0.99542 0.62067 0.0
C327 C 0.78057 0.02126 0.64005 0.0
C328 C 0.71865 0.9388 0.62019 0.0
C329 C 0.71642 0.90726 0.63915 0.0
C330 C 0.74337 0.93398 0.65905 0.0
C331 C 0.77513 0.99012 0.65944 0.0
H332 H 0.94611 0.71505 0.09804 0.0
H333 H 0.89103 0.67775 0.16757 0.0
H334 H 0.86346 0.71599 0.08814 0.0
H335 H 0.8092 0.67919 0.15805 0.0
H336 H 0.69532 0.73335 0.14683 0.0
H337 H 0.72964 0.67111 0.13988 0.0
H338 H 0.8636 0.79659 0.10132 0.0
H339 H 0.82833 0.85725 0.1078 0.0
C340 C 0.91459 0.70325 0.11085 0.0
C341 C 0.92504 0.6975 0.13363 0.0
C342 C 0.8675 0.70448 0.10527 0.0
C343 C 0.83096 0.70018 0.12251 0.0
C344 C 0.83664 0.68343 0.14434 0.0
C345 C 0.88366 0.68239 0.14988 0.0
C346 C 0.7307 0.74644 0.13602 0.0
C347 C 0.75936 0.79984 0.12783 0.0
C348 C 0.7505 0.71099 0.13212 0.0
C349 C 0.79953 0.72875 0.12013 0.0
C350 C 0.82533 0.78093 0.11033 0.0
C351 C 0.80566 0.81618 0.1143 0.0
H352 H 0.9218 0.72287 0.62284 0.0
H353 H 0.97526 0.88685 0.60114 0.0
H354 H 0.01306 0.73745 0.61636 0.0
H355 H 0.06599 0.90088 0.59408 0.0
H356 H 0.22324 0.92768 0.58205 0.0
H357 H 0.12797 0.86994 0.57267 0.0
H358 H 0.09616 0.80447 0.64087 0.0
H359 H 0.1906 0.86411 0.6503 0.0
C360 C 0.9525 0.7614 0.61589 0.0
C361 C 0.94157 0.80402 0.61273 0.0
C362 C 0.00472 0.76962 0.61218 0.0
C363 C 0.04661 0.82015 0.60463 0.0
C364 C 0.03437 0.86119 0.59958 0.0
C365 C 0.98252 0.85338 0.60379 0.0
C366 C 0.19674 0.89812 0.59453 0.0
C367 C 0.21345 0.90236 0.6172 0.0
C368 C 0.14184 0.86571 0.58925 0.0
C369 C 0.10429 0.83439 0.60632 0.0
C370 C 0.12396 0.82877 0.62741 0.0
C371 C 0.1786 0.86231 0.63274 0.0
H372 H 0.00831 0.70725 0.40889 0.0
H373 H 0.00783 0.85631 0.41933 0.0
H374 H 0.91002 0.65619 0.41489 0.0
H375 H 0.91032 0.8056 0.42648 0.0
H376 H 0.77216 0.67659 0.36811 0.0
H377 H 0.85218 0.67694 0.38265 0.0
H378 H 0.82196 0.72159 0.44876 0.0
H379 H 0.73951 0.71757 0.43444 0.0
C380 C 0.98769 0.72878 0.41381 0.0
C381 C 0.01539 0.78554 0.4136 0.0
C382 C 0.93146 0.69958 0.41721 0.0
C383 C 0.90266 0.72692 0.4212 0.0
C384 C 0.9316 0.7834 0.42377 0.0
C385 C 0.98738 0.81252 0.41964 0.0
C386 C 0.78014 0.68213 0.38617 0.0
C387 C 0.75055 0.69817 0.40008 0.0
C388 C 0.82628 0.68275 0.39451 0.0
C389 C 0.84386 0.70064 0.41668 0.0
C390 C 0.80932 0.70793 0.43157 0.0
C391 C 0.762 0.70535 0.42338 0.0
H392 H 0.9961 0.7687 0.92575 0.0
H393 H 0.09205 0.77401 0.86775 0.0
H394 H 0.0611 0.86368 0.93346 0.0
H395 H 0.15816 0.86804 0.87613 0.0
H396 H 0.26758 0.04261 0.90357 0.0
H397 H 0.22067 0.94567 0.91328 0.0
H398 H 0.06866 0.93227 0.89375 0.0
H399 H 0.11568 0.02814 0.883 0.0
C400 C 0.03259 0.78915 0.91548 0.0
C401 C 0.03896 0.76444 0.89601 0.0
C402 C 0.06959 0.84339 0.91989 0.0
C403 C 0.11409 0.87273 0.90529 0.0
C404 C 0.12427 0.84587 0.88771 0.0
C405 C 0.08659 0.79215 0.88294 0.0
C406 C 0.22393 0.01908 0.90198 0.0
C407 C 0.19496 0.0423 0.8925 0.0
C408 C 0.19732 0.96395 0.90755 0.0
C409 C 0.14126 0.93216 0.90446 0.0
C410 C 0.11188 0.95642 0.89658 0.0
C411 C 0.13865 0.01095 0.89032 0.0
H412 H 0.14996 0.16849 0.4242 0.0
H413 H 0.27858 0.28308 0.38053 0.0
H414 H 0.19473 0.1153 0.4273 0.0
H415 H 0.32413 0.2296 0.38351 0.0
H416 H 0.27035 0.05343 0.35311 0.0
H417 H 0.28529 0.14179 0.36388 0.0
H418 H 0.26786 0.09453 0.43466 0.0
H419 H 0.25318 0.00557 0.42364 0.0
C420 C 0.18938 0.18368 0.41621 0.0
C421 C 0.21075 0.22953 0.40205 0.0
C422 C 0.21532 0.15331 0.41804 0.0
C423 C 0.26268 0.16765 0.40533 0.0
C424 C 0.28746 0.21726 0.39334 0.0
C425 C 0.26167 0.24815 0.39176 0.0
C426 C 0.27257 0.06294 0.37101 0.0
C427 C 0.25983 0.02259 0.38752 0.0
C428 C 0.28135 0.1138 0.37726 0.0
C429 C 0.27654 0.12489 0.40014 0.0
C430 C 0.27114 0.08693 0.41687 0.0
C431 C 0.26312 0.03611 0.41059 0.0
H432 H 0.2683 0.27508 0.92357 0.0
H433 H 0.22722 0.33229 0.86324 0.0
H434 H 0.18397 0.25892 0.94164 0.0
H435 H 0.14396 0.31759 0.8814 0.0
H436 H 0.9828 0.26022 0.91114 0.0
H437 H 0.08117 0.31893 0.91421 0.0
H438 H 0.09868 0.17793 0.92235 0.0
H439 H 0.00106 0.1198 0.91827 0.0
C440 C 0.24347 0.28825 0.9148 0.0
C441 C 0.25361 0.30362 0.89178 0.0
C442 C 0.19462 0.27804 0.92506 0.0
C443 C 0.15654 0.28518 0.91268 0.0
C444 C 0.17222 0.31129 0.89139 0.0
C445 C 0.22052 0.3205 0.88101 0.0
C446 C 0.00752 0.2421 0.91482 0.0
C447 C 0.98445 0.18558 0.91468 0.0
C448 C 0.06384 0.27567 0.91641 0.0
C449 C 0.09774 0.25314 0.91849 0.0
C450 C 0.07373 0.19667 0.92106 0.0
C451 C 0.01773 0.16321 0.91879 0.0
H452 H 0.91825 0.24375 0.39232 0.0
H453 H 0.0085 0.19406 0.43483 0.0
H454 H 0.83519 0.16054 0.40234 0.0
H455 H 0.92713 0.11261 0.445 0.0
H456 H 0.79324 0.94554 0.44073 0.0
H457 H 0.83401 0.04013 0.45225 0.0
H458 H 0.83822 0.08717 0.38197 0.0
H459 H 0.79769 0.99401 0.37069 0.0
C460 C 0.91978 0.21739 0.40526 0.0
C461 C 0.96978 0.22529 0.41277 0.0
C462 C 0.87232 0.16941 0.41085 0.0
C463 C 0.87527 0.12893 0.42351 0.0
C464 C 0.92338 0.14253 0.43499 0.0
C465 C 0.97057 0.19034 0.42943 0.0
C466 C 0.80247 0.97617 0.42784 0.0
C467 C 0.79345 0.96245 0.40473 0.0
C468 C 0.82516 0.03019 0.43447 0.0
C469 C 0.83865 0.07121 0.41812 0.0
C470 C 0.82714 0.05676 0.39518 0.0
C471 C 0.80508 0.00323 0.38859 0.0
H472 H 0.82965 0.7987 0.93797 0.0
H473 H 0.85589 0.83651 0.86623 0.0
H474 H 0.75857 0.82404 0.93815 0.0
H475 H 0.78701 0.86137 0.86631 0.0
H476 H 0.69235 0.92227 0.85937 0.0
H477 H 0.69565 0.84112 0.86958 0.0
H478 H 0.76217 0.9106 0.93472 0.0
H479 H 0.75486 0.98897 0.92497 0.0
C480 C 0.82006 0.81203 0.9223 0.0
C481 C 0.84959 0.81735 0.90228 0.0
C482 C 0.77913 0.82605 0.92233 0.0
C483 C 0.7664 0.84435 0.90221 0.0
C484 C 0.79427 0.84645 0.88209 0.0
C485 C 0.83515 0.83341 0.88215 0.0
C486 C 0.70308 0.918 0.87658 0.0
C487 C 0.72477 0.9624 0.89119 0.0
C488 C 0.70608 0.87191 0.88235 0.0
C489 C 0.73291 0.87124 0.90231 0.0
C490 C 0.74252 0.91007 0.91895 0.0
C491 C 0.73759 0.95515 0.91346 0.0
H492 H 0.0039 0.57818 0.08985 0.0
H493 H 0.06132 0.61992 0.15839 0.0
H494 H 0.012 0.49723 0.09267 0.0
H495 H 0.07198 0.54034 0.16089 0.0
H496 H 0.10922 0.39768 0.1477 0.0
H497 H 0.04911 0.43587 0.15359 0.0
H498 H 0.11669 0.53456 0.0933 0.0
H499 H 0.17683 0.49902 0.08796 0.0
C500 C 0.01459 0.56801 0.10605 0.0
C501 C 0.03277 0.60543 0.12376 0.0
C502 C 0.01973 0.52191 0.10763 0.0
C503 C 0.04457 0.51384 0.12669 0.0
C504 C 0.05305 0.54576 0.14597 0.0
C505 C 0.04669 0.59132 0.14454 0.0
C506 C 0.1115 0.42802 0.13596 0.0
C507 C 0.14841 0.44569 0.11755 0.0
C508 C 0.07663 0.44919 0.13915 0.0
C509 C 0.07716 0.48692 0.12352 0.0
C510 C 0.11408 0.50429 0.10526 0.0
C511 C 0.1493 0.48436 0.10241 0.0
H512 H 0.66614 0.08353 0.57401 0.0
H513 H 0.6993 0.06497 0.64387 0.0
H514 H 0.56989 0.02859 0.58142 0.0
H515 H 0.60211 0.00853 0.65141 0.0
H516 H 0.46331 0.05595 0.65594 0.0
H517 H 0.54264 0.04548 0.65454 0.0
H518 H 0.48424 0.95346 0.59281 0.0
H519 H 0.40479 0.96518 0.59425 0.0
C520 C 0.6528 0.0656 0.59076 0.0
C521 C 0.69012 0.07945 0.60846 0.0
C522 C 0.59733 0.03356 0.59504 0.0
C523 C 0.57782 0.01496 0.6172 0.0
C524 C 0.61566 0.02303 0.63424 0.0
C525 C 0.67143 0.05504 0.6299 0.0
C526 C 0.46577 0.03058 0.64288 0.0
C527 C 0.42829 0.01169 0.62514 0.0
C528 C 0.51156 0.02461 0.64197 0.0
C529 C 0.52091 9e-05 0.62312 0.0
C530 C 0.47892 0.9737 0.60729 0.0
C531 C 0.43291 0.97965 0.60826 0.0
H532 H 0.63192 0.71028 0.11365 0.0
H533 H 0.49717 0.70656 0.14914 0.0
H534 H 0.58757 0.61137 0.11666 0.0
H535 H 0.452 0.60878 0.15144 0.0
H536 H 0.36564 0.44014 0.15426 0.0
H537 H 0.44478 0.5255 0.16496 0.0
H538 H 0.50998 0.54309 0.09695 0.0
H539 H 0.43202 0.45771 0.08665 0.0
C540 C 0.59356 0.68834 0.12261 0.0
C541 C 0.56795 0.71578 0.1312 0.0
C542 C 0.56796 0.63179 0.12422 0.0
C543 C 0.51622 0.60188 0.1344 0.0
C544 C 0.49219 0.63012 0.14393 0.0
C545 C 0.51763 0.68625 0.14225 0.0
C546 C 0.39845 0.46072 0.14206 0.0
C547 C 0.3922 0.44328 0.11947 0.0
C548 C 0.44351 0.51004 0.14807 0.0
C549 C 0.48259 0.54227 0.13153 0.0
C550 C 0.48056 0.51988 0.1101 0.0
C551 C 0.43568 0.47076 0.10414 0.0
H552 H 0.78644 0.54428 0.68333 0.0
H553 H 0.93113 0.60367 0.64213 0.0
H554 H 0.79446 0.46587 0.69438 0.0
H555 H 0.93923 0.52577 0.65302 0.0
H556 H 0.76324 0.31666 0.64707 0.0
H557 H 0.77273 0.39875 0.66345 0.0
H558 H 0.94109 0.45391 0.67742 0.0
H559 H 0.9308 0.37004 0.66122 0.0
C560 C 0.8217 0.54225 0.67771 0.0
C561 C 0.85746 0.57914 0.66146 0.0
C562 C 0.82611 0.49713 0.68391 0.0
C563 C 0.86652 0.4888 0.67402 0.0
C564 C 0.90746 0.53068 0.66088 0.0
C565 C 0.90276 0.57539 0.65455 0.0
C566 C 0.80171 0.3454 0.65444 0.0
C567 C 0.84647 0.33764 0.65261 0.0
C568 C 0.80714 0.39233 0.66406 0.0
C569 C 0.85784 0.43318 0.67163 0.0
C570 C 0.90157 0.42318 0.6717 0.0
C571 C 0.89573 0.37531 0.66245 0.0
H572 H 0.52196 0.84035 0.18714 0.0
H573 H 0.54393 0.98588 0.1546 0.0
H574 H 0.42699 0.81203 0.1945 0.0
H575 H 0.4497 0.95846 0.16251 0.0
H576 H 0.26906 0.88094 0.16718 0.0
H577 H 0.35649 0.91519 0.18639 0.0
H578 H 0.37772 0.79116 0.15419 0.0
H579 H 0.29173 0.7583 0.13471 0.0
C580 C 0.50757 0.86809 0.18303 0.0
C581 C 0.53939 0.91441 0.16971 0.0
C582 C 0.45312 0.85173 0.18716 0.0
C583 C 0.43092 0.88238 0.17846 0.0
C584 C 0.46575 0.93393 0.16927 0.0
C585 C 0.51979 0.94972 0.16474 0.0
C586 C 0.2921 0.86045 0.16475 0.0
C587 C 0.27445 0.81747 0.14942 0.0
C588 C 0.34168 0.87976 0.17579 0.0
C589 C 0.37329 0.85526 0.17205 0.0
C590 C 0.3536 0.81005 0.15779 0.0
C591 C 0.30492 0.79174 0.14637 0.0
H592 H 0.6137 0.50538 0.58562 0.0
H593 H 0.61801 0.5368 0.6574 0.0
H594 H 0.53123 0.41859 0.59124 0.0
H595 H 0.53579 0.44846 0.66325 0.0
H596 H 0.47084 0.25297 0.65326 0.0
H597 H 0.52701 0.35146 0.65671 0.0
H598 H 0.43157 0.3728 0.60534 0.0
H599 H 0.37558 0.27481 0.60208 0.0
C600 C 0.59584 0.49436 0.60249 0.0
C601 C 0.62173 0.52783 0.62102 0.0
C602 C 0.54868 0.44468 0.60575 0.0
C603 C 0.52716 0.42677 0.62771 0.0
C604 C 0.55151 0.46142 0.64616 0.0
C605 C 0.59811 0.51202 0.64278 0.0
C606 C 0.46021 0.2788 0.64367 0.0
C607 C 0.41894 0.25661 0.62749 0.0
C608 C 0.49244 0.33514 0.64553 0.0
C609 C 0.48396 0.36966 0.63106 0.0
C610 C 0.43919 0.34713 0.61656 0.0
C611 C 0.40708 0.29114 0.61477 0.0
H612 H 0.36488 0.89606 0.34096 0.0
H613 H 0.372 0.96109 0.40761 0.0
H614 H 0.45375 0.90661 0.34588 0.0
H615 H 0.46356 0.97589 0.41207 0.0
H616 H 0.52347 0.85865 0.43208 0.0
H617 H 0.47394 0.90295 0.42175 0.0
H618 H 0.54318 0.93211 0.35396 0.0
H619 H 0.5924 0.88524 0.36449 0.0
C620 C 0.3871 0.91594 0.35614 0.0
C621 C 0.36074 0.92539 0.37435 0.0
C622 C 0.43845 0.92204 0.35902 0.0
C623 C 0.46467 0.93893 0.38 0.0
C624 C 0.4431 0.95982 0.39615 0.0
C625 C 0.39097 0.95246 0.39347 0.0
C626 C 0.52878 0.87475 0.41496 0.0
C627 C 0.56108 0.86705 0.39894 0.0
C628 C 0.50084 0.90139 0.40909 0.0
C629 C 0.50432 0.92175 0.38696 0.0
C630 C 0.53887 0.91652 0.37112 0.0
C631 C 0.56689 0.88934 0.37706 0.0
H632 H 0.73537 0.59003 0.84899 0.0
H633 H 0.6666 0.62445 0.90766 0.0
H634 H 0.64453 0.52306 0.8368 0.0
H635 H 0.57678 0.55604 0.89647 0.0
H636 H 0.42152 0.41007 0.88401 0.0
H637 H 0.49617 0.50255 0.87666 0.0
H638 H 0.59601 0.43728 0.85302 0.0
H639 H 0.52219 0.34701 0.85969 0.0
C640 C 0.70081 0.58487 0.85879 0.0
C641 C 0.70817 0.61121 0.87961 0.0
C642 C 0.6486 0.54585 0.85203 0.0
C643 C 0.60317 0.53205 0.86619 0.0
C644 C 0.61029 0.56461 0.88516 0.0
C645 C 0.66219 0.60386 0.89172 0.0
C646 C 0.45905 0.41595 0.87662 0.0
C647 C 0.46664 0.37157 0.87298 0.0
C648 C 0.50197 0.46883 0.87249 0.0
C649 C 0.55288 0.47793 0.86455 0.0
C650 C 0.55787 0.43276 0.85892 0.0
C651 C 0.51551 0.38056 0.8631 0.0
H652 H 0.0325 0.66001 0.37542 0.0
H653 H 0.12233 0.6585 0.4337 0.0
H654 H 0.98432 0.56124 0.37485 0.0
H655 H 0.07708 0.56069 0.43267 0.0
H656 H 0.03609 0.39863 0.42123 0.0
H657 H 0.01321 0.46791 0.43147 0.0
H658 H 0.02366 0.51289 0.36053 0.0
H659 H 0.04486 0.44344 0.35063 0.0
C660 C 0.03981 0.63831 0.38883 0.0
C661 C 0.08082 0.66656 0.40467 0.0
C662 C 0.0129 0.5817 0.38833 0.0
C663 C 0.02802 0.5526 0.40318 0.0
C664 C 0.06395 0.58102 0.4209 0.0
C665 C 0.09013 0.63745 0.42157 0.0
C666 C 0.03039 0.42139 0.4078 0.0
C667 C 0.04326 0.41655 0.38517 0.0
C668 C 0.01803 0.46172 0.41367 0.0
C669 C 0.01854 0.4977 0.39698 0.0
C670 C 0.02302 0.48664 0.37402 0.0
C671 C 0.03536 0.4466 0.36822 0.0
H672 H 0.67848 0.12825 0.83798 0.0
H673 H 0.61394 0.0562 0.90348 0.0
H674 H 0.59062 0.117 0.82739 0.0
H675 H 0.52706 0.04726 0.89373 0.0
H676 H 0.38073 0.04972 0.88057 0.0
H677 H 0.4461 0.01921 0.87478 0.0
H678 H 0.55053 0.16765 0.83805 0.0
H679 H 0.48345 0.196 0.84283 0.0
C680 C 0.64462 0.10786 0.84973 0.0
C681 C 0.65248 0.09248 0.87141 0.0
C682 C 0.5945 0.10223 0.84385 0.0
C683 C 0.5517 0.08246 0.85983 0.0
C684 C 0.55846 0.06223 0.88077 0.0
C685 C 0.60837 0.06716 0.88646 0.0
C686 C 0.41663 0.07446 0.87034 0.0
C687 C 0.42744 0.12534 0.86228 0.0
C688 C 0.45452 0.0574 0.86727 0.0
C689 C 0.50472 0.09161 0.85663 0.0
C690 C 0.51254 0.13987 0.84633 0.0
C691 C 0.474 0.15636 0.84901 0.0
H692 H 0.30659 0.36805 0.41221 0.0
H693 H 0.34121 0.46016 0.34988 0.0
H694 H 0.40317 0.41643 0.42127 0.0
H695 H 0.43644 0.50901 0.35892 0.0
H696 H 0.59477 0.62067 0.37995 0.0
H697 H 0.52569 0.52959 0.36895 0.0
H698 H 0.44648 0.50766 0.43422 0.0
H699 H 0.51561 0.59715 0.44521 0.0
C700 C 0.33507 0.39702 0.40003 0.0
C701 C 0.31655 0.41166 0.3807 0.0
C702 C 0.39035 0.42498 0.40524 0.0
C703 C 0.42751 0.46793 0.39121 0.0
C704 C 0.40942 0.47654 0.37025 0.0
C705 C 0.35448 0.44882 0.36512 0.0
C706 C 0.56374 0.59545 0.39222 0.0
C707 C 0.55943 0.61661 0.41313 0.0
C708 C 0.52403 0.5433 0.38591 0.0
C709 C 0.47949 0.51176 0.40041 0.0
C710 C 0.47982 0.53047 0.4225 0.0
C711 C 0.51929 0.58235 0.42876 0.0
H712 H 0.87334 0.49983 0.93533 0.0
H713 H 0.93752 0.58828 0.87239 0.0
H714 H 0.89516 0.43155 0.92248 0.0
H715 H 0.95752 0.51838 0.85914 0.0
H716 H 0.85121 0.30973 0.85243 0.0
H717 H 0.87521 0.40485 0.85449 0.0
H718 H 0.98889 0.43036 0.90766 0.0
H719 H 0.96491 0.33579 0.90568 0.0
C720 C 0.89294 0.50501 0.91893 0.0
C721 C 0.90403 0.5492 0.90491 0.0
C722 C 0.90563 0.46624 0.91161 0.0
C723 C 0.9284 0.47029 0.88993 0.0
C724 C 0.94056 0.51497 0.876 0.0
C725 C 0.92925 0.55475 0.88362 0.0
C726 C 0.8839 0.33658 0.86343 0.0
C727 C 0.90564 0.31567 0.87918 0.0
C728 C 0.89749 0.39091 0.86468 0.0
C729 C 0.933 0.42415 0.88157 0.0
C730 C 0.96119 0.40521 0.89462 0.0
C731 C 0.94761 0.35119 0.89341 0.0
H732 H 0.08571 0.22314 0.29601 0.0
H733 H 0.16187 0.39671 0.30291 0.0
H734 H 0.10206 0.23327 0.25565 0.0
H735 H 0.17816 0.40662 0.26137 0.0
H736 H 0.13426 0.36621 0.17951 0.0
H737 H 0.1224 0.37423 0.22059 0.0
H738 H 0.19337 0.27431 0.2346 0.0
H739 H 0.20425 0.26567 0.19421 0.0
C740 C 0.10569 0.26376 0.28896 0.0
C741 C 0.1231 0.30923 0.30298 0.0
C742 C 0.11514 0.26942 0.26566 0.0
C743 C 0.14214 0.32069 0.25536 0.0
C744 C 0.15739 0.36654 0.26894 0.0
C745 C 0.1482 0.36088 0.29267 0.0
C746 C 0.1478 0.34661 0.19142 0.0
C747 C 0.16906 0.31434 0.18357 0.0
C748 C 0.14132 0.35145 0.21491 0.0
C749 C 0.15636 0.32433 0.23077 0.0
C750 C 0.18054 0.29493 0.2228 0.0
C751 C 0.18657 0.28983 0.1996 0.0
H752 H 0.81153 0.21351 0.69892 0.0
H753 H 0.98497 0.31068 0.70425 0.0
H754 H 0.80281 0.21373 0.7403 0.0
H755 H 0.97652 0.31297 0.74542 0.0
H756 H 0.94319 0.1952 0.80613 0.0
H757 H 0.95391 0.2327 0.76816 0.0
H758 H 0.81607 0.25479 0.7795 0.0
H759 H 0.80578 0.21705 0.81821 0.0
C760 C 0.84747 0.23784 0.70885 0.0
C761 C 0.89893 0.26207 0.69846 0.0
C762 C 0.84256 0.23771 0.73261 0.0
C763 C 0.88912 0.26223 0.74622 0.0
C764 C 0.93994 0.29271 0.73546 0.0
C765 C 0.94483 0.29214 0.71184 0.0
C766 C 0.916 0.20934 0.80075 0.0
C767 C 0.87382 0.2034 0.81507 0.0
C768 C 0.92229 0.23123 0.77899 0.0
C769 C 0.88609 0.24723 0.77074 0.0
C770 C 0.84473 0.24303 0.78538 0.0
C771 C 0.83905 0.22185 0.80753 0.0
H772 H 0.64612 0.79532 0.21695 0.0
H773 H 0.63292 0.93939 0.219 0.0
H774 H 0.61724 0.77577 0.25637 0.0
H775 H 0.60415 0.92027 0.2592 0.0
H776 H 0.66845 0.90481 0.33364 0.0
H777 H 0.65593 0.92259 0.29413 0.0
H778 H 0.54611 0.752 0.28469 0.0
H779 H 0.56029 0.7345 0.32398 0.0
C780 C 0.63554 0.82206 0.22581 0.0
C781 C 0.64171 0.86877 0.21507 0.0
C782 C 0.61859 0.81074 0.2484 0.0
C783 C 0.60812 0.84635 0.26102 0.0
C784 C 0.61184 0.89204 0.24993 0.0
C785 C 0.62795 0.90285 0.22697 0.0
C786 C 0.63925 0.87164 0.32345 0.0
C787 C 0.61485 0.81836 0.33184 0.0
C788 C 0.63225 0.88173 0.30074 0.0
C789 C 0.60083 0.83855 0.28612 0.0
C790 C 0.57126 0.78604 0.29542 0.0
C791 C 0.57873 0.77599 0.318 0.0
H792 H 0.83564 0.64013 0.70513 0.0
H793 H 0.80026 0.76952 0.71498 0.0
H794 H 0.84222 0.63311 0.74655 0.0
H795 H 0.80516 0.76145 0.75565 0.0
H796 H 0.90573 0.7939 0.81901 0.0
H797 H 0.88351 0.78711 0.77909 0.0
H798 H 0.79282 0.61283 0.78518 0.0
H799 H 0.81707 0.62012 0.82575 0.0
C800 C 0.82874 0.66654 0.71607 0.0
C801 C 0.81873 0.70621 0.70676 0.0
C802 C 0.83201 0.66222 0.73974 0.0
C803 C 0.82486 0.69723 0.75431 0.0
C804 C 0.81203 0.73469 0.74488 0.0
C805 C 0.80943 0.7394 0.72149 0.0
C806 C 0.88012 0.75412 0.81194 0.0
C807 C 0.86216 0.70756 0.82542 0.0
C808 C 0.86731 0.75017 0.78907 0.0
C809 C 0.83598 0.69943 0.77899 0.0
C810 C 0.81703 0.65245 0.79254 0.0
C811 C 0.82996 0.65653 0.81573 0.0
H812 H 0.21821 0.84096 0.20384 0.0
H813 H 0.09782 0.67166 0.20498 0.0
H814 H 0.24072 0.83433 0.24316 0.0
H815 H 0.12067 0.66448 0.24426 0.0
H816 H 0.07898 0.73737 0.30938 0.0
H817 H 0.08864 0.71234 0.27096 0.0
H818 H 0.26258 0.79438 0.27848 0.0
H819 H 0.25229 0.81816 0.31758 0.0
C820 C 0.19927 0.80159 0.21204 0.0
C821 C 0.15615 0.75689 0.20169 0.0
C822 C 0.21203 0.79769 0.23459 0.0
C823 C 0.18145 0.74909 0.24685 0.0
C824 C 0.14429 0.7025 0.23522 0.0
C825 C 0.13126 0.70655 0.2128 0.0
C826 C 0.119 0.74811 0.30309 0.0
C827 C 0.16484 0.77951 0.31616 0.0
C828 C 0.12468 0.73352 0.28118 0.0
C829 C 0.17647 0.75127 0.27177 0.0
C830 C 0.2223 0.77987 0.28544 0.0
C831 C 0.21641 0.79333 0.30769 0.0
H832 H 0.35118 0.26151 0.78866 0.0
H833 H 0.39096 0.14279 0.81317 0.0
H834 H 0.37214 0.24844 0.75017 0.0
H835 H 0.41402 0.13052 0.77428 0.0
H836 H 0.32145 0.0501 0.70697 0.0
H837 H 0.35109 0.08383 0.74486 0.0
H838 H 0.42547 0.24797 0.71908 0.0
H839 H 0.39325 0.21318 0.6809 0.0
C840 C 0.3663 0.23383 0.78582 0.0
C841 C 0.36839 0.20229 0.80375 0.0
C842 C 0.379 0.22675 0.76371 0.0
C843 C 0.39399 0.18774 0.75896 0.0
C844 C 0.40168 0.16027 0.77731 0.0
C845 C 0.38894 0.16751 0.7996 0.0
C846 C 0.34531 0.09344 0.70931 0.0
C847 C 0.3546 0.12918 0.69114 0.0
C848 C 0.36302 0.1129 0.73105 0.0
C849 C 0.3903 0.16873 0.73519 0.0
C850 C 0.40396 0.20466 0.71653 0.0
C851 C 0.38609 0.18496 0.69462 0.0
H852 H 0.33166 0.18387 0.97484 0.0
H853 H 0.20396 0.16283 0.92954 0.0
H854 H 0.28183 0.19209 1.00681 0.0
H855 H 0.15385 0.17143 0.96181 0.0
H856 H 0.18311 0.31582 0.01426 0.0
H857 H 0.19004 0.26352 0.98317 0.0
H858 H 0.19446 0.15129 0.03137 0.0
H859 H 0.18647 0.20303 0.06256 0.0
C860 C 0.29202 0.17917 0.97186 0.0
C861 C 0.27202 0.17349 0.94971 0.0
C862 C 0.26329 0.18356 0.9902 0.0
C863 C 0.21428 0.18304 0.98671 0.0
C864 C 0.1918 0.17238 0.96486 0.0
C865 C 0.22028 0.16711 0.94647 0.0
C866 C 0.18348 0.27885 0.01821 0.0
C867 C 0.18523 0.26411 0.04086 0.0
C868 C 0.18707 0.24865 1.00037 0.0
C869 C 0.19325 0.2036 1.00488 0.0
C870 C 0.18987 0.18595 0.02747 0.0
C871 C 0.18526 0.21564 0.04531 0.0
H872 H 0.13578 0.43817 0.46214 0.0
H873 H 0.07741 0.27085 0.44697 0.0
H874 H 0.08931 0.41136 0.4995 0.0
H875 H 0.02867 0.24366 0.48335 0.0
H876 H 0.88586 0.23386 0.52867 0.0
H877 H 0.94615 0.26354 0.4956 0.0
H878 H 0.08432 0.34668 0.53927 0.0
H879 H 0.02336 0.31552 0.57285 0.0
C880 C 0.11345 0.39577 0.46687 0.0
C881 C 0.10842 0.35612 0.45141 0.0
C882 C 0.08696 0.38044 0.48819 0.0
C883 C 0.05502 0.32538 0.49419 0.0
C884 C 0.05245 0.2863 0.47909 0.0
C885 C 0.0794 0.30165 0.45815 0.0
C886 C 0.92913 0.25809 0.5313 0.0
C887 C 0.94991 0.2721 0.55336 0.0
C888 C 0.9636 0.27511 0.51235 0.0
C889 C 0.0198 0.30768 0.51486 0.0
C890 C 0.04104 0.32186 0.5369 0.0
C891 C 0.00633 0.30364 0.55606 0.0
H892 H 0.78368 0.96821 0.07316 0.0
H893 H 0.64094 0.9789 0.05879 0.0
H894 H 0.82413 0.01364 0.03658 0.0
H895 H 0.68064 0.02382 0.02281 0.0
H896 H 0.71979 0.02973 0.95098 0.0
H897 H 0.69785 0.98595 0.98797 0.0
H898 H 0.85605 0.10354 0.01218 0.0
H899 H 0.8791 0.14663 0.97409 0.0
C900 C 0.76168 0.98153 0.06245 0.0
C901 C 0.70937 0.97042 0.06877 0.0
C902 C 0.78465 0.00723 0.04154 0.0
C903 C 0.75517 0.0214 0.02664 0.0
C904 C 0.70398 0.01238 0.03365 0.0
C905 C 0.68128 0.98692 0.05432 0.0
C906 C 0.75076 0.04513 0.9639 0.0
C907 C 0.80124 0.09125 0.95965 0.0
C908 C 0.73791 0.0205 0.98522 0.0
C909 C 0.77463 0.04217 1.00318 0.0
C910 C 0.82688 0.08611 0.99865 0.0
C911 C 0.84018 0.11058 0.9769 0.0
H912 H 0.90032 0.75357 0.54741 0.0
H913 H 0.75756 0.74525 0.57648 0.0
H914 H 0.89587 0.80668 0.51522 0.0
H915 H 0.75169 0.79642 0.54514 0.0
H916 H 0.73343 0.88263 0.49179 0.0
H917 H 0.78121 0.87477 0.52444 0.0
H918 H 0.843 0.79269 0.4827 0.0
H919 H 0.79975 0.8063 0.44969 0.0
C920 C 0.8689 0.76443 0.54718 0.0
C921 C 0.83031 0.74731 0.56482 0.0
C922 C 0.86605 0.79455 0.52875 0.0
C923 C 0.8239 0.80699 0.52754 0.0
C924 C 0.78624 0.79025 0.54563 0.0
C925 C 0.78957 0.76101 0.56389 0.0
C926 C 0.75968 0.8656 0.48944 0.0
C927 C 0.76214 0.84402 0.46844 0.0
C928 C 0.78633 0.86008 0.50821 0.0
C929 C 0.8137 0.83042 0.50659 0.0
C930 C 0.82189 0.81516 0.48483 0.0
C931 C 0.7969 0.82275 0.46583 0.0
H932 H 0.8568 0.69858 0.99818 0.0
H933 H 0.97057 0.82219 0.95231 0.0
H934 H 0.91488 0.74516 0.03002 0.0
H935 H 0.02956 0.86906 0.98438 0.0
H936 H 0.14404 0.85127 0.0385 0.0
H937 H 0.08504 0.84283 1.00719 0.0
H938 H 0.9607 0.82283 0.05511 0.0
H939 H 0.02005 0.83105 0.08653 0.0
C940 C 0.89363 0.73658 0.99495 0.0
C941 C 0.90954 0.75604 0.9726 0.0
C942 C 0.92694 0.7636 0.0133 0.0
C943 C 0.97735 0.81067 0.00981 0.0
C944 C 0.99131 0.83255 0.98765 0.0
C945 C 0.95745 0.80577 0.96926 0.0
C946 C 0.10502 0.84749 0.04235 0.0
C947 C 0.08667 0.8416 0.06498 0.0
C948 C 0.07104 0.84262 0.02436 0.0
C949 C 0.01766 0.83121 0.02858 0.0
C950 C 0.00133 0.8309 0.05126 0.0
C951 C 0.03565 0.83638 0.0693 0.0
H952 H 0.127 0.86714 0.44907 0.0
H953 H 0.26531 0.85179 0.46787 0.0
H954 H 0.14413 0.92775 0.48137 0.0
H955 H 0.28205 0.91197 0.49973 0.0
H956 H 0.34992 0.08282 0.52245 0.0
H957 H 0.30892 0.01893 0.49164 0.0
H958 H 0.16169 0.93021 0.53106 0.0
H959 H 0.20285 0.99512 0.56224 0.0
C960 C 0.15986 0.8752 0.46047 0.0
C961 C 0.19514 0.85505 0.45583 0.0
C962 C 0.16965 0.90998 0.47885 0.0
C963 C 0.2148 0.92492 0.4927 0.0
C964 C 0.24732 0.9014 0.48908 0.0
C965 C 0.23758 0.86681 0.47088 0.0
C966 C 0.30818 0.0508 0.52432 0.0
C967 C 0.2799 0.04338 0.54486 0.0
C968 C 0.28487 0.01411 0.50673 0.0
C969 C 0.23277 0.96921 0.50928 0.0
C970 C 0.20208 0.96454 0.52882 0.0
C971 C 0.22553 0.00174 0.54656 0.0
loop_
_geom_bond_atom_site_label_1
_geom_bond_atom_site_label_2
_geom_bond_distance
_geom_bond_site_symmetry_2
_ccdc_geom_bond_type
Zn0 O6 1.920 . S
Zn0 O12 1.898 . S
Zn0 O15 1.905 . S
Zn1 O9 1.905 . S
Zn1 O10 1.898 . S
Zn1 O18 1.920 . S
Zn2 O5 2.080 . S
Zn2 O8 2.114 . S
Zn2 O11 2.120 . S
Zn2 O13 2.120 . S
Zn2 O14 2.114 . S
Zn2 O17 2.080 . S
C3 O8 1.166 . S
C3 O9 1.182 . S
C4 O10 1.167 . S
C4 O11 1.299 . S
O5 Zn2 2.080 . S
O5 C19 1.305 . S
O6 Zn0 1.920 . S
O6 C19 1.234 . S
C7 O12 1.167 . S
C7 O13 1.299 . S
O8 Zn2 2.114 . S
O8 C3 1.166 . S
O9 Zn1 1.905 . S
O9 C3 1.182 . S
O10 Zn1 1.898 . S
O10 C4 1.167 . S
O11 Zn2 2.120 . S
O11 C4 1.299 . S
O12 Zn0 1.898 . S
O12 C7 1.167 . S
O13 Zn2 2.120 . S
O13 C7 1.299 . S
O14 Zn2 2.114 . S
O14 C16 1.166 . S
O15 Zn0 1.905 . S
O15 C16 1.182 . S
C16 O14 1.166 . S
C16 O15 1.182 . S
O17 Zn2 2.080 . S
O17 C20 1.305 . S
O18 Zn1 1.920 . S
O18 C20 1.234 . S
C19 O5 1.305 . S
C19 O6 1.234 . S
C20 O17 1.305 . S
C20 O18 1.234 . S
Zn21 O27 1.920 . S
Zn21 O33 1.898 . S
Zn21 O36 1.905 . S
Zn22 O30 1.905 . S
Zn22 O31 1.898 . S
Zn22 O39 1.920 . S
Zn23 O26 2.080 . S
Zn23 O29 2.114 . S
Zn23 O32 2.120 . S
Zn23 O34 2.120 . S
Zn23 O35 2.114 . S
Zn23 O38 2.080 . S
C24 O29 1.166 . S
C24 O30 1.182 . S
C25 O31 1.167 . S
C25 O32 1.299 . S
O26 Zn23 2.080 . S
O26 C40 1.305 . S
O27 Zn21 1.920 . S
O27 C40 1.234 . S
C28 O33 1.167 . S
C28 O34 1.299 . S
O29 Zn23 2.114 . S
O29 C24 1.166 . S
O30 Zn22 1.905 . S
O30 C24 1.182 . S
O31 Zn22 1.898 . S
O31 C25 1.167 . S
O32 Zn23 2.120 . S
O32 C25 1.299 . S
O33 Zn21 1.898 . S
O33 C28 1.167 . S
O34 Zn23 2.120 . S
O34 C28 1.299 . S
O35 Zn23 2.114 . S
O35 C37 1.166 . S
O36 Zn21 1.905 . S
O36 C37 1.182 . S
C37 O35 1.166 . S
C37 O36 1.182 . S
O38 Zn23 2.080 . S
O38 C41 1.305 . S
O39 Zn22 1.920 . S
O39 C41 1.234 . S
C40 O26 1.305 . S
C40 O27 1.234 . S
C41 O38 1.305 . S
C41 O39 1.234 . S
Zn42 O48 1.920 . S
Zn42 O54 1.898 . S
Zn42 O57 1.905 . S
Zn43 O51 1.905 . S
Zn43 O52 1.898 . S
Zn43 O60 1.920 . S
Zn44 O47 2.080 . S
Zn44 O50 2.114 . S
Zn44 O53 2.120 . S
Zn44 O55 2.120 . S
Zn44 O56 2.114 . S
Zn44 O59 2.080 . S
C45 O50 1.166 . S
C45 O51 1.182 . S
C46 O52 1.167 . S
C46 O53 1.299 . S
O47 Zn44 2.080 . S
O47 C61 1.305 . S
O48 Zn42 1.920 . S
O48 C61 1.234 . S
C49 O54 1.167 . S
C49 O55 1.299 . S
O50 Zn44 2.114 . S
O50 C45 1.166 . S
O51 Zn43 1.905 . S
O51 C45 1.182 . S
O52 Zn43 1.898 . S
O52 C46 1.167 . S
O53 Zn44 2.120 . S
O53 C46 1.299 . S
O54 Zn42 1.898 . S
O54 C49 1.167 . S
O55 Zn44 2.120 . S
O55 C49 1.299 . S
O56 Zn44 2.114 . S
O56 C58 1.166 . S
O57 Zn42 1.905 . S
O57 C58 1.182 . S
C58 O56 1.166 . S
C58 O57 1.182 . S
O59 Zn44 2.080 . S
O59 C62 1.305 . S
O60 Zn43 1.920 . S
O60 C62 1.234 . S
C61 O47 1.305 . S
C61 O48 1.234 . S
C62 O59 1.305 . S
C62 O60 1.234 . S
Zn63 O69 1.920 . S
Zn63 O75 1.898 . S
Zn63 O78 1.905 . S
Zn64 O72 1.905 . S
Zn64 O73 1.898 . S
Zn64 O81 1.920 . S
Zn65 O68 2.080 . S
Zn65 O71 2.114 . S
Zn65 O74 2.120 . S
Zn65 O76 2.120 . S
Zn65 O77 2.114 . S
Zn65 O80 2.080 . S
C66 O71 1.166 . S
C66 O72 1.182 . S
C67 O73 1.167 . S
C67 O74 1.299 . S
O68 Zn65 2.080 . S
O68 C82 1.305 . S
O69 Zn63 1.920 . S
O69 C82 1.234 . S
C70 O75 1.167 . S
C70 O76 1.299 . S
O71 Zn65 2.114 . S
O71 C66 1.166 . S
O72 Zn64 1.905 . S
O72 C66 1.182 . S
O73 Zn64 1.898 . S
O73 C67 1.167 . S
O74 Zn65 2.120 . S
O74 C67 1.299 . S
O75 Zn63 1.898 . S
O75 C70 1.167 . S
O76 Zn65 2.120 . S
O76 C70 1.299 . S
O77 Zn65 2.114 . S
O77 C79 1.166 . S
O78 Zn63 1.905 . S
O78 C79 1.182 . S
C79 O77 1.166 . S
C79 O78 1.182 . S
O80 Zn65 2.080 . S
O80 C83 1.305 . S
O81 Zn64 1.920 . S
O81 C83 1.234 . S
C82 O68 1.305 . S
C82 O69 1.234 . S
C83 O80 1.305 . S
C83 O81 1.234 . S
Zn84 O90 1.920 . S
Zn84 O96 1.898 . S
Zn84 O99 1.905 . S
Zn85 O93 1.905 . S
Zn85 O94 1.898 . S
Zn85 O102 1.920 . S
Zn86 O89 2.080 . S
Zn86 O92 2.114 . S
Zn86 O95 2.120 . S
Zn86 O97 2.120 . S
Zn86 O98 2.114 . S
Zn86 O101 2.080 . S
C87 O92 1.166 . S
C87 O93 1.182 . S
C88 O94 1.167 . S
C88 O95 1.299 . S
O89 Zn86 2.080 . S
O89 C103 1.305 . S
O90 Zn84 1.920 . S
O90 C103 1.234 . S
C91 O96 1.167 . S
C91 O97 1.299 . S
O92 Zn86 2.114 . S
O92 C87 1.166 . S
O93 Zn85 1.905 . S
O93 C87 1.182 . S
O94 Zn85 1.898 . S
O94 C88 1.167 . S
O95 Zn86 2.120 . S
O95 C88 1.299 . S
O96 Zn84 1.898 . S
O96 C91 1.167 . S
O97 Zn86 2.120 . S
O97 C91 1.299 . S
O98 Zn86 2.114 . S
O98 C100 1.166 . S
O99 Zn84 1.905 . S
O99 C100 1.182 . S
C100 O98 1.166 . S
C100 O99 1.182 . S
O101 Zn86 2.080 . S
O101 C104 1.305 . S
O102 Zn85 1.920 . S
O102 C104 1.234 . S
C103 O89 1.305 . S
C103 O90 1.234 . S
C104 O101 1.305 . S
C104 O102 1.234 . S
Zn105 O111 1.920 . S
Zn105 O117 1.898 . S
Zn105 O120 1.905 . S
Zn106 O114 1.905 . S
Zn106 O115 1.898 . S
Zn106 O123 1.920 . S
Zn107 O110 2.080 . S
Zn107 O113 2.114 . S
Zn107 O116 2.120 . S
Zn107 O118 2.120 . S
Zn107 O119 2.114 . S
Zn107 O122 2.080 . S
C108 O113 1.166 . S
C108 O114 1.182 . S
C109 O115 1.167 . S
C109 O116 1.299 . S
O110 Zn107 2.080 . S
O110 C124 1.305 . S
O111 Zn105 1.920 . S
O111 C124 1.234 . S
C112 O117 1.167 . S
C112 O118 1.299 . S
O113 Zn107 2.114 . S
O113 C108 1.166 . S
O114 Zn106 1.905 . S
O114 C108 1.182 . S
O115 Zn106 1.898 . S
O115 C109 1.167 . S
O116 Zn107 2.120 . S
O116 C109 1.299 . S
O117 Zn105 1.898 . S
O117 C112 1.167 . S
O118 Zn107 2.120 . S
O118 C112 1.299 . S
O119 Zn107 2.114 . S
O119 C121 1.166 . S
O120 Zn105 1.905 . S
O120 C121 1.182 . S
C121 O119 1.166 . S
C121 O120 1.182 . S
O122 Zn107 2.080 . S
O122 C125 1.305 . S
O123 Zn106 1.920 . S
O123 C125 1.234 . S
C124 O110 1.305 . S
C124 O111 1.234 . S
C125 O122 1.305 . S
C125 O123 1.234 . S
Zn126 O132 1.920 . S
Zn126 O138 1.898 . S
Zn126 O141 1.905 . S
Zn127 O135 1.905 . S
Zn127 O136 1.898 . S
Zn127 O144 1.920 . S
Zn128 O131 2.080 . S
Zn128 O134 2.114 . S
Zn128 O137 2.120 . S
Zn128 O139 2.120 . S
Zn128 O140 2.114 . S
Zn128 O143 2.080 . S
C129 O134 1.166 . S
C129 O135 1.182 . S
C130 O136 1.167 . S
C130 O137 1.299 . S
O131 Zn128 2.080 . S
O131 C145 1.305 . S
O132 Zn126 1.920 . S
O132 C145 1.234 . S
C133 O138 1.167 . S
C133 O139 1.299 . S
O134 Zn128 2.114 . S
O134 C129 1.166 . S
O135 Zn127 1.905 . S
O135 C129 1.182 . S
O136 Zn127 1.898 . S
O136 C130 1.167 . S
O137 Zn128 2.120 . S
O137 C130 1.299 . S
O138 Zn126 1.898 . S
O138 C133 1.167 . S
O139 Zn128 2.120 . S
O139 C133 1.299 . S
O140 Zn128 2.114 . S
O140 C142 1.166 . S
O141 Zn126 1.905 . S
O141 C142 1.182 . S
C142 O140 1.166 . S
C142 O141 1.182 . S
O143 Zn128 2.080 . S
O143 C146 1.305 . S
O144 Zn127 1.920 . S
O144 C146 1.234 . S
C145 O131 1.305 . S
C145 O132 1.234 . S
C146 O143 1.305 . S
C146 O144 1.234 . S
Zn147 O153 1.920 . S
Zn147 O159 1.898 . S
Zn147 O162 1.905 . S
Zn148 O156 1.905 . S
Zn148 O157 1.898 . S
Zn148 O165 1.920 . S
Zn149 O152 2.080 . S
Zn149 O155 2.114 . S
Zn149 O158 2.120 . S
Zn149 O160 2.120 . S
Zn149 O161 2.114 . S
Zn149 O164 2.080 . S
C150 O155 1.166 . S
C150 O156 1.182 . S
C151 O157 1.167 . S
C151 O158 1.299 . S
O152 Zn149 2.080 . S
O152 C166 1.305 . S
O153 Zn147 1.920 . S
O153 C166 1.234 . S
C154 O159 1.167 . S
C154 O160 1.299 . S
O155 Zn149 2.114 . S
O155 C150 1.166 . S
O156 Zn148 1.905 . S
O156 C150 1.182 . S
O157 Zn148 1.898 . S
O157 C151 1.167 . S
O158 Zn149 2.120 . S
O158 C151 1.299 . S
O159 Zn147 1.898 . S
O159 C154 1.167 . S
O160 Zn149 2.120 . S
O160 C154 1.299 . S
O161 Zn149 2.114 . S
O161 C163 1.166 . S
O162 Zn147 1.905 . S
O162 C163 1.182 . S
C163 O161 1.166 . S
C163 O162 1.182 . S
O164 Zn149 2.080 . S
O164 C167 1.305 . S
O165 Zn148 1.920 . S
O165 C167 1.234 . S
C166 O152 1.305 . S
C166 O153 1.234 . S
C167 O164 1.305 . S
C167 O165 1.234 . S
Zn168 O174 1.920 . S
Zn168 O180 1.898 . S
Zn168 O183 1.905 . S
Zn169 O177 1.905 . S
Zn169 O178 1.898 . S
Zn169 O186 1.920 . S
Zn170 O173 2.080 . S
Zn170 O176 2.114 . S
Zn170 O179 2.120 . S
Zn170 O181 2.120 . S
Zn170 O182 2.114 . S
Zn170 O185 2.080 . S
C171 O176 1.166 . S
C171 O177 1.182 . S
C172 O178 1.167 . S
C172 O179 1.299 . S
O173 Zn170 2.080 . S
O173 C187 1.305 . S
O174 Zn168 1.920 . S
O174 C187 1.234 . S
C175 O180 1.167 . S
C175 O181 1.299 . S
O176 Zn170 2.114 . S
O176 C171 1.166 . S
O177 Zn169 1.905 . S
O177 C171 1.182 . S
O178 Zn169 1.898 . S
O178 C172 1.167 . S
O179 Zn170 2.120 . S
O179 C172 1.299 . S
O180 Zn168 1.898 . S
O180 C175 1.167 . S
O181 Zn170 2.120 . S
O181 C175 1.299 . S
O182 Zn170 2.114 . S
O182 C184 1.166 . S
O183 Zn168 1.905 . S
O183 C184 1.182 . S
C184 O182 1.166 . S
C184 O183 1.182 . S
O185 Zn170 2.080 . S
O185 C188 1.305 . S
O186 Zn169 1.920 . S
O186 C188 1.234 . S
C187 O173 1.305 . S
C187 O174 1.234 . S
C188 O185 1.305 . S
C188 O186 1.234 . S
Zn189 O195 1.920 . S
Zn189 O201 1.898 . S
Zn189 O204 1.905 . S
Zn190 O198 1.905 . S
Zn190 O199 1.898 . S
Zn190 O207 1.920 . S
Zn191 O194 2.080 . S
Zn191 O197 2.114 . S
Zn191 O200 2.120 . S
Zn191 O202 2.120 . S
Zn191 O203 2.114 . S
Zn191 O206 2.080 . S
C192 O197 1.166 . S
C192 O198 1.182 . S
C193 O199 1.167 . S
C193 O200 1.299 . S
O194 Zn191 2.080 . S
O194 C208 1.305 . S
O195 Zn189 1.920 . S
O195 C208 1.234 . S
C196 O201 1.167 . S
C196 O202 1.299 . S
O197 Zn191 2.114 . S
O197 C192 1.166 . S
O198 Zn190 1.905 . S
O198 C192 1.182 . S
O199 Zn190 1.898 . S
O199 C193 1.167 . S
O200 Zn191 2.120 . S
O200 C193 1.299 . S
O201 Zn189 1.898 . S
O201 C196 1.167 . S
O202 Zn191 2.120 . S
O202 C196 1.299 . S
O203 Zn191 2.114 . S
O203 C205 1.166 . S
O204 Zn189 1.905 . S
O204 C205 1.182 . S
C205 O203 1.166 . S
C205 O204 1.182 . S
O206 Zn191 2.080 . S
O206 C209 1.305 . S
O207 Zn190 1.920 . S
O207 C209 1.234 . S
C208 O194 1.305 . S
C208 O195 1.234 . S
C209 O206 1.305 . S
C209 O207 1.234 . S
Zn210 O216 1.920 . S
Zn210 O222 1.898 . S
Zn210 O225 1.905 . S
Zn211 O219 1.905 . S
Zn211 O220 1.898 . S
Zn211 O228 1.920 . S
Zn212 O215 2.080 . S
Zn212 O218 2.114 . S
Zn212 O221 2.120 . S
Zn212 O223 2.120 . S
Zn212 O224 2.114 . S
Zn212 O227 2.080 . S
C213 O218 1.166 . S
C213 O219 1.182 . S
C214 O220 1.167 . S
C214 O221 1.299 . S
O215 Zn212 2.080 . S
O215 C229 1.305 . S
O216 Zn210 1.920 . S
O216 C229 1.234 . S
C217 O222 1.167 . S
C217 O223 1.299 . S
O218 Zn212 2.114 . S
O218 C213 1.166 . S
O219 Zn211 1.905 . S
O219 C213 1.182 . S
O220 Zn211 1.898 . S
O220 C214 1.167 . S
O221 Zn212 2.120 . S
O221 C214 1.299 . S
O222 Zn210 1.898 . S
O222 C217 1.167 . S
O223 Zn212 2.120 . S
O223 C217 1.299 . S
O224 Zn212 2.114 . S
O224 C226 1.166 . S
O225 Zn210 1.905 . S
O225 C226 1.182 . S
C226 O224 1.166 . S
C226 O225 1.182 . S
O227 Zn212 2.080 . S
O227 C230 1.305 . S
O228 Zn211 1.920 . S
O228 C230 1.234 . S
C229 O215 1.305 . S
C229 O216 1.234 . S
C230 O227 1.305 . S
C230 O228 1.234 . S
Zn231 O237 1.920 . S
Zn231 O243 1.898 . S
Zn231 O246 1.905 . S
Zn232 O240 1.905 . S
Zn232 O241 1.898 . S
Zn232 O249 1.920 . S
Zn233 O236 2.080 . S
Zn233 O239 2.114 . S
Zn233 O242 2.120 . S
Zn233 O244 2.120 . S
Zn233 O245 2.114 . S
Zn233 O248 2.080 . S
C234 O239 1.166 . S
C234 O240 1.182 . S
C235 O241 1.167 . S
C235 O242 1.299 . S
O236 Zn233 2.080 . S
O236 C250 1.305 . S
O237 Zn231 1.920 . S
O237 C250 1.234 . S
C238 O243 1.167 . S
C238 O244 1.299 . S
O239 Zn233 2.114 . S
O239 C234 1.166 . S
O240 Zn232 1.905 . S
O240 C234 1.182 . S
O241 Zn232 1.898 . S
O241 C235 1.167 . S
O242 Zn233 2.120 . S
O242 C235 1.299 . S
O243 Zn231 1.898 . S
O243 C238 1.167 . S
O244 Zn233 2.120 . S
O244 C238 1.299 . S
O245 Zn233 2.114 . S
O245 C247 1.166 . S
O246 Zn231 1.905 . S
O246 C247 1.182 . S
C247 O245 1.166 . S
C247 O246 1.182 . S
O248 Zn233 2.080 . S
O248 C251 1.305 . S
O249 Zn232 1.920 . S
O249 C251 1.234 . S
C250 O236 1.305 . S
C250 O237 1.234 . S
C251 O248 1.305 . S
C251 O249 1.234 . S
H252 C260 0.950 . S
H253 C265 0.950 . S
H254 C262 0.950 . S
H255 C264 0.950 . S
H256 C266 0.950 . S
H257 C268 0.950 . S
H258 C270 0.950 . S
H259 C271 0.950 . S
C260 H252 0.950 . S
C260 C261 1.386 . S
C260 C262 1.391 1_565 S
C261 C260 1.386 . S
C261 C265 1.393 . S
C262 H254 0.950 . S
C262 C260 1.391 1_545 S
C262 C263 1.400 . S
C263 C262 1.400 . S
C263 C264 1.398 . S
C263 C269 1.491 . S
C264 H255 0.950 . S
C264 C263 1.398 . S
C264 C265 1.391 1_545 S
C265 H253 0.950 . S
C265 C261 1.393 . S
C265 C264 1.391 1_565 S
C266 H256 0.950 . S
C266 C267 1.386 . S
C266 C268 1.391 . S
C267 C266 1.386 . S
C267 C271 1.393 . S
C268 H257 0.950 . S
C268 C266 1.391 . S
C268 C269 1.400 . S
C269 C263 1.491 . S
C269 C268 1.400 . S
C269 C270 1.398 . S
C270 H258 0.950 . S
C270 C269 1.398 . S
C270 C271 1.391 . S
C271 H259 0.950 . S
C271 C267 1.393 . S
C271 C270 1.391 . S
H272 C280 0.950 . S
H273 C285 0.950 . S
H274 C282 0.950 . S
H275 C284 0.950 . S
H276 C286 0.950 . S
H277 C288 0.950 . S
H278 C290 0.950 . S
H279 C291 0.950 . S
C280 H272 0.950 . S
C280 C281 1.386 . S
C280 C282 1.391 . S
C281 C280 1.386 . S
C281 C285 1.393 . S
C282 H274 0.950 . S
C282 C280 1.391 . S
C282 C283 1.400 . S
C283 C282 1.400 . S
C283 C284 1.398 . S
C283 C289 1.491 . S
C284 H275 0.950 . S
C284 C283 1.398 . S
C284 C285 1.391 . S
C285 H273 0.950 . S
C285 C281 1.393 . S
C285 C284 1.391 . S
C286 H276 0.950 . S
C286 C287 1.386 . S
C286 C288 1.391 . S
C287 C286 1.386 . S
C287 C291 1.393 . S
C288 H277 0.950 . S
C288 C286 1.391 . S
C288 C289 1.400 . S
C289 C283 1.491 . S
C289 C288 1.400 . S
C289 C290 1.398 . S
C290 H278 0.950 . S
C290 C289 1.398 . S
C290 C291 1.391 . S
C291 H279 0.950 . S
C291 C287 1.393 . S
C291 C290 1.391 . S
H292 C300 0.950 . S
H293 C305 0.950 1_565 S
H294 C302 0.950 . S
H295 C304 0.950 . S
H296 C306 0.950 . S
H297 C308 0.950 . S
H298 C310 0.950 . S
H299 C311 0.950 . S
C300 H292 0.950 . S
C300 C301 1.386 . S
C300 C302 1.391 . S
C301 C300 1.386 . S
C301 C305 1.393 . S
C302 H294 0.950 . S
C302 C300 1.391 . S
C302 C303 1.400 . S
C303 C302 1.400 . S
C303 C304 1.398 . S
C303 C309 1.491 . S
C304 H295 0.950 . S
C304 C303 1.398 . S
C304 C305 1.391 . S
C305 H293 0.950 1_545 S
C305 C301 1.393 . S
C305 C304 1.391 . S
C306 H296 0.950 . S
C306 C307 1.386 . S
C306 C308 1.391 1_455 S
C307 C306 1.386 . S
C307 C311 1.393 . S
C308 H297 0.950 . S
C308 C306 1.391 1_655 S
C308 C309 1.400 . S
C309 C303 1.491 . S
C309 C308 1.400 . S
C309 C310 1.398 . S
C310 H298 0.950 . S
C310 C309 1.398 . S
C310 C311 1.391 1_655 S
C311 H299 0.950 . S
C311 C307 1.393 . S
C311 C310 1.391 1_455 S
H312 C320 0.950 . S
H313 C325 0.950 . S
H314 C322 0.950 . S
H315 C324 0.950 . S
H316 C326 0.950 . S
H317 C328 0.950 . S
H318 C330 0.950 . S
H319 C331 0.950 . S
C320 H312 0.950 . S
C320 C321 1.386 . S
C320 C322 1.391 . S
C321 C320 1.386 . S
C321 C325 1.393 . S
C322 H314 0.950 . S
C322 C320 1.391 . S
C322 C323 1.400 . S
C323 C322 1.400 . S
C323 C324 1.398 . S
C323 C329 1.491 . S
C324 H315 0.950 . S
C324 C323 1.398 . S
C324 C325 1.391 . S
C325 H313 0.950 . S
C325 C321 1.393 . S
C325 C324 1.391 . S
C326 H316 0.950 . S
C326 C327 1.386 . S
C326 C328 1.391 1_545 S
C327 C326 1.386 . S
C327 C331 1.393 . S
C328 H317 0.950 . S
C328 C326 1.391 1_565 S
C328 C329 1.400 . S
C329 C323 1.491 . S
C329 C328 1.400 . S
C329 C330 1.398 . S
C330 H318 0.950 . S
C330 C329 1.398 . S
C330 C331 1.391 1_565 S
C331 H319 0.950 . S
C331 C327 1.393 . S
C331 C330 1.391 1_545 S
H332 C340 0.950 . S
H333 C345 0.950 . S
H334 C342 0.950 . S
H335 C344 0.950 . S
H336 C346 0.950 . S
H337 C348 0.950 . S
H338 C350 0.950 . S
H339 C351 0.950 . S
C340 H332 0.950 . S
C340 C341 1.386 . S
C340 C342 1.391 . S
C341 C340 1.386 . S
C341 C345 1.393 . S
C342 H334 0.950 . S
C342 C340 1.391 . S
C342 C343 1.400 . S
C343 C342 1.400 . S
C343 C344 1.398 . S
C343 C349 1.491 . S
C344 H335 0.950 . S
C344 C343 1.398 . S
C344 C345 1.391 . S
C345 H333 0.950 . S
C345 C341 1.393 . S
C345 C344 1.391 . S
C346 H336 0.950 . S
C346 C347 1.386 . S
C346 C348 1.391 . S
C347 C346 1.386 . S
C347 C351 1.393 . S
C348 H337 0.950 . S
C348 C346 1.391 . S
C348 C349 1.400 . S
C349 C343 1.491 . S
C349 C348 1.400 . S
C349 C350 1.398 . S
C350 H338 0.950 . S
C350 C349 1.398 . S
C350 C351 1.391 . S
C351 H339 0.950 . S
C351 C347 1.393 . S
C351 C350 1.391 . S
H352 C360 0.950 . S
H353 C365 0.950 . S
H354 C362 0.950 . S
H355 C364 0.950 . S
H356 C366 0.950 . S
H357 C368 0.950 . S
H358 C370 0.950 . S
H359 C371 0.950 . S
C360 H352 0.950 . S
C360 C361 1.386 . S
C360 C362 1.391 1_655 S
C361 C360 1.386 . S
C361 C365 1.393 . S
C362 H354 0.950 . S
C362 C360 1.391 1_455 S
C362 C363 1.400 . S
C363 C362 1.400 . S
C363 C364 1.398 . S
C363 C369 1.491 . S
C364 H355 0.950 . S
C364 C363 1.398 . S
C364 C365 1.391 1_455 S
C365 H353 0.950 . S
C365 C361 1.393 . S
C365 C364 1.391 1_655 S
C366 H356 0.950 . S
C366 C367 1.386 . S
C366 C368 1.391 . S
C367 C366 1.386 . S
C367 C371 1.393 . S
C368 H357 0.950 . S
C368 C366 1.391 . S
C368 C369 1.400 . S
C369 C363 1.491 . S
C369 C368 1.400 . S
C369 C370 1.398 . S
C370 H358 0.950 . S
C370 C369 1.398 . S
C370 C371 1.391 . S
C371 H359 0.950 . S
C371 C367 1.393 . S
C371 C370 1.391 . S
H372 C380 0.950 . S
H373 C385 0.950 . S
H374 C382 0.950 . S
H375 C384 0.950 . S
H376 C386 0.950 . S
H377 C388 0.950 . S
H378 C390 0.950 . S
H379 C391 0.950 . S
C380 H372 0.950 . S
C380 C381 1.386 . S
C380 C382 1.391 1_455 S
C381 C380 1.386 . S
C381 C385 1.393 . S
C382 H374 0.950 . S
C382 C380 1.391 1_655 S
C382 C383 1.400 . S
C383 C382 1.400 . S
C383 C384 1.398 . S
C383 C389 1.491 . S
C384 H375 0.950 . S
C384 C383 1.398 . S
C384 C385 1.391 1_655 S
C385 H373 0.950 . S
C385 C381 1.393 . S
C385 C384 1.391 1_455 S
C386 H376 0.950 . S
C386 C387 1.386 . S
C386 C388 1.391 . S
C387 C386 1.386 . S
C387 C391 1.393 . S
C388 H377 0.950 . S
C388 C386 1.391 . S
C388 C389 1.400 . S
C389 C383 1.491 . S
C389 C388 1.400 . S
C389 C390 1.398 . S
C390 H378 0.950 . S
C390 C389 1.398 . S
C390 C391 1.391 . S
C391 H379 0.950 . S
C391 C387 1.393 . S
C391 C390 1.391 . S
H392 C400 0.950 1_655 S
H393 C405 0.950 . S
H394 C402 0.950 . S
H395 C404 0.950 . S
H396 C406 0.950 . S
H397 C408 0.950 . S
H398 C410 0.950 . S
H399 C411 0.950 . S
C400 H392 0.950 1_455 S
C400 C401 1.386 . S
C400 C402 1.391 . S
C401 C400 1.386 . S
C401 C405 1.393 . S
C402 H394 0.950 . S
C402 C400 1.391 . S
C402 C403 1.400 . S
C403 C402 1.400 . S
C403 C404 1.398 . S
C403 C409 1.491 . S
C404 H395 0.950 . S
C404 C403 1.398 . S
C404 C405 1.391 . S
C405 H393 0.950 . S
C405 C401 1.393 . S
C405 C404 1.391 . S
C406 H396 0.950 . S
C406 C407 1.386 . S
C406 C408 1.391 1_545 S
C407 C406 1.386 . S
C407 C411 1.393 . S
C408 H397 0.950 . S
C408 C406 1.391 1_565 S
C408 C409 1.400 . S
C409 C403 1.491 . S
C409 C408 1.400 . S
C409 C410 1.398 . S
C410 H398 0.950 . S
C410 C409 1.398 . S
C410 C411 1.391 1_565 S
C411 H399 0.950 . S
C411 C407 1.393 . S
C411 C410 1.391 1_545 S
H412 C420 0.950 . S
H413 C425 0.950 . S
H414 C422 0.950 . S
H415 C424 0.950 . S
H416 C426 0.950 . S
H417 C428 0.950 . S
H418 C430 0.950 . S
H419 C431 0.950 1_565 S
C420 H412 0.950 . S
C420 C421 1.386 . S
C420 C422 1.391 . S
C421 C420 1.386 . S
C421 C425 1.393 . S
C422 H414 0.950 . S
C422 C420 1.391 . S
C422 C423 1.400 . S
C423 C422 1.400 . S
C423 C424 1.398 . S
C423 C429 1.491 . S
C424 H415 0.950 . S
C424 C423 1.398 . S
C424 C425 1.391 . S
C425 H413 0.950 . S
C425 C421 1.393 . S
C425 C424 1.391 . S
C426 H416 0.950 . S
C426 C427 1.386 . S
C426 C428 1.391 . S
C427 C426 1.386 . S
C427 C431 1.393 . S
C428 H417 0.950 . S
C428 C426 1.391 . S
C428 C429 1.400 . S
C429 C423 1.491 . S
C429 C428 1.400 . S
C429 C430 1.398 . S
C430 H418 0.950 . S
C430 C429 1.398 . S
C430 C431 1.391 . S
C431 H419 0.950 1_545 S
C431 C427 1.393 . S
C431 C430 1.391 . S
H432 C440 0.950 . S
H433 C445 0.950 . S
H434 C442 0.950 . S
H435 C444 0.950 . S
H436 C446 0.950 . S
H437 C448 0.950 . S
H438 C450 0.950 . S
H439 C451 0.950 . S
C440 H432 0.950 . S
C440 C441 1.386 . S
C440 C442 1.391 . S
C441 C440 1.386 . S
C441 C445 1.393 . S
C442 H434 0.950 . S
C442 C440 1.391 . S
C442 C443 1.400 . S
C443 C442 1.400 . S
C443 C444 1.398 . S
C443 C449 1.491 . S
C444 H435 0.950 . S
C444 C443 1.398 . S
C444 C445 1.391 . S
C445 H433 0.950 . S
C445 C441 1.393 . S
C445 C444 1.391 . S
C446 H436 0.950 . S
C446 C447 1.386 . S
C446 C448 1.391 1_655 S
C447 C446 1.386 . S
C447 C451 1.393 . S
C448 H437 0.950 . S
C448 C446 1.391 1_455 S
C448 C449 1.400 . S
C449 C443 1.491 . S
C449 C448 1.400 . S
C449 C450 1.398 . S
C450 H438 0.950 . S
C450 C449 1.398 . S
C450 C451 1.391 1_455 S
C451 H439 0.950 . S
C451 C447 1.393 . S
C451 C450 1.391 1_655 S
H452 C460 0.950 . S
H453 C465 0.950 1_455 S
H454 C462 0.950 . S
H455 C464 0.950 . S
H456 C466 0.950 . S
H457 C468 0.950 . S
H458 C470 0.950 . S
H459 C471 0.950 . S
C460 H452 0.950 . S
C460 C461 1.386 . S
C460 C462 1.391 . S
C461 C460 1.386 . S
C461 C465 1.393 . S
C462 H454 0.950 . S
C462 C460 1.391 . S
C462 C463 1.400 . S
C463 C462 1.400 . S
C463 C464 1.398 . S
C463 C469 1.491 . S
C464 H455 0.950 . S
C464 C463 1.398 . S
C464 C465 1.391 . S
C465 H453 0.950 1_655 S
C465 C461 1.393 . S
C465 C464 1.391 . S
C466 H456 0.950 . S
C466 C467 1.386 . S
C466 C468 1.391 1_565 S
C467 C466 1.386 . S
C467 C471 1.393 . S
C468 H457 0.950 . S
C468 C466 1.391 1_545 S
C468 C469 1.400 . S
C469 C463 1.491 . S
C469 C468 1.400 . S
C469 C470 1.398 . S
C470 H458 0.950 . S
C470 C469 1.398 . S
C470 C471 1.391 1_545 S
C471 H459 0.950 . S
C471 C467 1.393 . S
C471 C470 1.391 1_565 S
H472 C480 0.950 . S
H473 C485 0.950 . S
H474 C482 0.950 . S
H475 C484 0.950 . S
H476 C486 0.950 . S
H477 C488 0.950 . S
H478 C490 0.950 . S
H479 C491 0.950 1_545 S
C480 H472 0.950 . S
C480 C481 1.386 . S
C480 C482 1.391 . S
C481 C480 1.386 . S
C481 C485 1.393 . S
C482 H474 0.950 . S
C482 C480 1.391 . S
C482 C483 1.400 . S
C483 C482 1.400 . S
C483 C484 1.398 . S
C483 C489 1.491 . S
C484 H475 0.950 . S
C484 C483 1.398 . S
C484 C485 1.391 . S
C485 H473 0.950 . S
C485 C481 1.393 . S
C485 C484 1.391 . S
C486 H476 0.950 . S
C486 C487 1.386 . S
C486 C488 1.391 . S
C487 C486 1.386 . S
C487 C491 1.393 . S
C488 H477 0.950 . S
C488 C486 1.391 . S
C488 C489 1.400 . S
C489 C483 1.491 . S
C489 C488 1.400 . S
C489 C490 1.398 . S
C490 H478 0.950 . S
C490 C489 1.398 . S
C490 C491 1.391 . S
C491 H479 0.950 1_565 S
C491 C487 1.393 . S
C491 C490 1.391 . S
H492 C500 0.950 . S
H493 C505 0.950 . S
H494 C502 0.950 . S
H495 C504 0.950 . S
H496 C506 0.950 . S
H497 C508 0.950 . S
H498 C510 0.950 . S
H499 C511 0.950 . S
C500 H492 0.950 . S
C500 C501 1.386 . S
C500 C502 1.391 . S
C501 C500 1.386 . S
C501 C505 1.393 . S
C502 H494 0.950 . S
C502 C500 1.391 . S
C502 C503 1.400 . S
C503 C502 1.400 . S
C503 C504 1.398 . S
C503 C509 1.491 . S
C504 H495 0.950 . S
C504 C503 1.398 . S
C504 C505 1.391 . S
C505 H493 0.950 . S
C505 C501 1.393 . S
C505 C504 1.391 . S
C506 H496 0.950 . S
C506 C507 1.386 . S
C506 C508 1.391 . S
C507 C506 1.386 . S
C507 C511 1.393 . S
C508 H497 0.950 . S
C508 C506 1.391 . S
C508 C509 1.400 . S
C509 C503 1.491 . S
C509 C508 1.400 . S
C509 C510 1.398 . S
C510 H498 0.950 . S
C510 C509 1.398 . S
C510 C511 1.391 . S
C511 H499 0.950 . S
C511 C507 1.393 . S
C511 C510 1.391 . S
H512 C520 0.950 . S
H513 C525 0.950 . S
H514 C522 0.950 . S
H515 C524 0.950 . S
H516 C526 0.950 . S
H517 C528 0.950 . S
H518 C530 0.950 . S
H519 C531 0.950 . S
C520 H512 0.950 . S
C520 C521 1.386 . S
C520 C522 1.391 . S
C521 C520 1.386 . S
C521 C525 1.393 . S
C522 H514 0.950 . S
C522 C520 1.391 . S
C522 C523 1.400 . S
C523 C522 1.400 . S
C523 C524 1.398 . S
C523 C529 1.491 . S
C524 H515 0.950 . S
C524 C523 1.398 . S
C524 C525 1.391 . S
C525 H513 0.950 . S
C525 C521 1.393 . S
C525 C524 1.391 . S
C526 H516 0.950 . S
C526 C527 1.386 . S
C526 C528 1.391 . S
C527 C526 1.386 . S
C527 C531 1.393 . S
C528 H517 0.950 . S
C528 C526 1.391 . S
C528 C529 1.400 . S
C529 C523 1.491 . S
C529 C528 1.400 . S
C529 C530 1.398 . S
C530 H518 0.950 . S
C530 C529 1.398 . S
C530 C531 1.391 . S
C531 H519 0.950 . S
C531 C527 1.393 . S
C531 C530 1.391 . S
H532 C540 0.950 . S
H533 C545 0.950 . S
H534 C542 0.950 . S
H535 C544 0.950 . S
H536 C546 0.950 . S
H537 C548 0.950 . S
H538 C550 0.950 . S
H539 C551 0.950 . S
C540 H532 0.950 . S
C540 C541 1.386 . S
C540 C542 1.391 . S
C541 C540 1.386 . S
C541 C545 1.393 . S
C542 H534 0.950 . S
C542 C540 1.391 . S
C542 C543 1.400 . S
C543 C542 1.400 . S
C543 C544 1.398 . S
C543 C549 1.491 . S
C544 H535 0.950 . S
C544 C543 1.398 . S
C544 C545 1.391 . S
C545 H533 0.950 . S
C545 C541 1.393 . S
C545 C544 1.391 . S
C546 H536 0.950 . S
C546 C547 1.386 . S
C546 C548 1.391 . S
C547 C546 1.386 . S
C547 C551 1.393 . S
C548 H537 0.950 . S
C548 C546 1.391 . S
C548 C549 1.400 . S
C549 C543 1.491 . S
C549 C548 1.400 . S
C549 C550 1.398 . S
C550 H538 0.950 . S
C550 C549 1.398 . S
C550 C551 1.391 . S
C551 H539 0.950 . S
C551 C547 1.393 . S
C551 C550 1.391 . S
H552 C560 0.950 . S
H553 C565 0.950 . S
H554 C562 0.950 . S
H555 C564 0.950 . S
H556 C566 0.950 . S
H557 C568 0.950 . S
H558 C570 0.950 . S
H559 C571 0.950 . S
C560 H552 0.950 . S
C560 C561 1.386 . S
C560 C562 1.391 . S
C561 C560 1.386 . S
C561 C565 1.393 . S
C562 H554 0.950 . S
C562 C560 1.391 . S
C562 C563 1.400 . S
C563 C562 1.400 . S
C563 C564 1.398 . S
C563 C569 1.491 . S
C564 H555 0.950 . S
C564 C563 1.398 . S
C564 C565 1.391 . S
C565 H553 0.950 . S
C565 C561 1.393 . S
C565 C564 1.391 . S
C566 H556 0.950 . S
C566 C567 1.386 . S
C566 C568 1.391 . S
C567 C566 1.386 . S
C567 C571 1.393 . S
C568 H557 0.950 . S
C568 C566 1.391 . S
C568 C569 1.400 . S
C569 C563 1.491 . S
C569 C568 1.400 . S
C569 C570 1.398 . S
C570 H558 0.950 . S
C570 C569 1.398 . S
C570 C571 1.391 . S
C571 H559 0.950 . S
C571 C567 1.393 . S
C571 C570 1.391 . S
H572 C580 0.950 . S
H573 C585 0.950 . S
H574 C582 0.950 . S
H575 C584 0.950 . S
H576 C586 0.950 . S
H577 C588 0.950 . S
H578 C590 0.950 . S
H579 C591 0.950 . S
C580 H572 0.950 . S
C580 C581 1.386 . S
C580 C582 1.391 . S
C581 C580 1.386 . S
C581 C585 1.393 . S
C582 H574 0.950 . S
C582 C580 1.391 . S
C582 C583 1.400 . S
C583 C582 1.400 . S
C583 C584 1.398 . S
C583 C589 1.491 . S
C584 H575 0.950 . S
C584 C583 1.398 . S
C584 C585 1.391 . S
C585 H573 0.950 . S
C585 C581 1.393 . S
C585 C584 1.391 . S
C586 H576 0.950 . S
C586 C587 1.386 . S
C586 C588 1.391 . S
C587 C586 1.386 . S
C587 C591 1.393 . S
C588 H577 0.950 . S
C588 C586 1.391 . S
C588 C589 1.400 . S
C589 C583 1.491 . S
C589 C588 1.400 . S
C589 C590 1.398 . S
C590 H578 0.950 . S
C590 C589 1.398 . S
C590 C591 1.391 . S
C591 H579 0.950 . S
C591 C587 1.393 . S
C591 C590 1.391 . S
H592 C600 0.950 . S
H593 C605 0.950 . S
H594 C602 0.950 . S
H595 C604 0.950 . S
H596 C606 0.950 . S
H597 C608 0.950 . S
H598 C610 0.950 . S
H599 C611 0.950 . S
C600 H592 0.950 . S
C600 C601 1.386 . S
C600 C602 1.391 . S
C601 C600 1.386 . S
C601 C605 1.393 . S
C602 H594 0.950 . S
C602 C600 1.391 . S
C602 C603 1.400 . S
C603 C602 1.400 . S
C603 C604 1.398 . S
C603 C609 1.491 . S
C604 H595 0.950 . S
C604 C603 1.398 . S
C604 C605 1.391 . S
C605 H593 0.950 . S
C605 C601 1.393 . S
C605 C604 1.391 . S
C606 H596 0.950 . S
C606 C607 1.386 . S
C606 C608 1.391 . S
C607 C606 1.386 . S
C607 C611 1.393 . S
C608 H597 0.950 . S
C608 C606 1.391 . S
C608 C609 1.400 . S
C609 C603 1.491 . S
C609 C608 1.400 . S
C609 C610 1.398 . S
C610 H598 0.950 . S
C610 C609 1.398 . S
C610 C611 1.391 . S
C611 H599 0.950 . S
C611 C607 1.393 . S
C611 C610 1.391 . S
H612 C620 0.950 . S
H613 C625 0.950 . S
H614 C622 0.950 . S
H615 C624 0.950 . S
H616 C626 0.950 . S
H617 C628 0.950 . S
H618 C630 0.950 . S
H619 C631 0.950 . S
C620 H612 0.950 . S
C620 C621 1.386 . S
C620 C622 1.391 . S
C621 C620 1.386 . S
C621 C625 1.393 . S
C622 H614 0.950 . S
C622 C620 1.391 . S
C622 C623 1.400 . S
C623 C622 1.400 . S
C623 C624 1.398 . S
C623 C629 1.491 . S
C624 H615 0.950 . S
C624 C623 1.398 . S
C624 C625 1.391 . S
C625 H613 0.950 . S
C625 C621 1.393 . S
C625 C624 1.391 . S
C626 H616 0.950 . S
C626 C627 1.386 . S
C626 C628 1.391 . S
C627 C626 1.386 . S
C627 C631 1.393 . S
C628 H617 0.950 . S
C628 C626 1.391 . S
C628 C629 1.400 . S
C629 C623 1.491 . S
C629 C628 1.400 . S
C629 C630 1.398 . S
C630 H618 0.950 . S
C630 C629 1.398 . S
C630 C631 1.391 . S
C631 H619 0.950 . S
C631 C627 1.393 . S
C631 C630 1.391 . S
H632 C640 0.950 . S
H633 C645 0.950 . S
H634 C642 0.950 . S
H635 C644 0.950 . S
H636 C646 0.950 . S
H637 C648 0.950 . S
H638 C650 0.950 . S
H639 C651 0.950 . S
C640 H632 0.950 . S
C640 C641 1.386 . S
C640 C642 1.391 . S
C641 C640 1.386 . S
C641 C645 1.393 . S
C642 H634 0.950 . S
C642 C640 1.391 . S
C642 C643 1.400 . S
C643 C642 1.400 . S
C643 C644 1.398 . S
C643 C649 1.491 . S
C644 H635 0.950 . S
C644 C643 1.398 . S
C644 C645 1.391 . S
C645 H633 0.950 . S
C645 C641 1.393 . S
C645 C644 1.391 . S
C646 H636 0.950 . S
C646 C647 1.386 . S
C646 C648 1.391 . S
C647 C646 1.386 . S
C647 C651 1.393 . S
C648 H637 0.950 . S
C648 C646 1.391 . S
C648 C649 1.400 . S
C649 C643 1.491 . S
C649 C648 1.400 . S
C649 C650 1.398 . S
C650 H638 0.950 . S
C650 C649 1.398 . S
C650 C651 1.391 . S
C651 H639 0.950 . S
C651 C647 1.393 . S
C651 C650 1.391 . S
H652 C660 0.950 . S
H653 C665 0.950 . S
H654 C662 0.950 . S
H655 C664 0.950 . S
H656 C666 0.950 . S
H657 C668 0.950 . S
H658 C670 0.950 . S
H659 C671 0.950 . S
C660 H652 0.950 . S
C660 C661 1.386 . S
C660 C662 1.391 . S
C661 C660 1.386 . S
C661 C665 1.393 . S
C662 H654 0.950 . S
C662 C660 1.391 . S
C662 C663 1.400 . S
C663 C662 1.400 . S
C663 C664 1.398 . S
C663 C669 1.491 . S
C664 H655 0.950 . S
C664 C663 1.398 . S
C664 C665 1.391 . S
C665 H653 0.950 . S
C665 C661 1.393 . S
C665 C664 1.391 . S
C666 H656 0.950 . S
C666 C667 1.386 . S
C666 C668 1.391 . S
C667 C666 1.386 . S
C667 C671 1.393 . S
C668 H657 0.950 . S
C668 C666 1.391 . S
C668 C669 1.400 . S
C669 C663 1.491 . S
C669 C668 1.400 . S
C669 C670 1.398 . S
C670 H658 0.950 . S
C670 C669 1.398 . S
C670 C671 1.391 . S
C671 H659 0.950 . S
C671 C667 1.393 . S
C671 C670 1.391 . S
H672 C680 0.950 . S
H673 C685 0.950 . S
H674 C682 0.950 . S
H675 C684 0.950 . S
H676 C686 0.950 . S
H677 C688 0.950 . S
H678 C690 0.950 . S
H679 C691 0.950 . S
C680 H672 0.950 . S
C680 C681 1.386 . S
C680 C682 1.391 . S
C681 C680 1.386 . S
C681 C685 1.393 . S
C682 H674 0.950 . S
C682 C680 1.391 . S
C682 C683 1.400 . S
C683 C682 1.400 . S
C683 C684 1.398 . S
C683 C689 1.491 . S
C684 H675 0.950 . S
C684 C683 1.398 . S
C684 C685 1.391 . S
C685 H673 0.950 . S
C685 C681 1.393 . S
C685 C684 1.391 . S
C686 H676 0.950 . S
C686 C687 1.386 . S
C686 C688 1.391 . S
C687 C686 1.386 . S
C687 C691 1.393 . S
C688 H677 0.950 . S
C688 C686 1.391 . S
C688 C689 1.400 . S
C689 C683 1.491 . S
C689 C688 1.400 . S
C689 C690 1.398 . S
C690 H678 0.950 . S
C690 C689 1.398 . S
C690 C691 1.391 . S
C691 H679 0.950 . S
C691 C687 1.393 . S
C691 C690 1.391 . S
H692 C700 0.950 . S
H693 C705 0.950 . S
H694 C702 0.950 . S
H695 C704 0.950 . S
H696 C706 0.950 . S
H697 C708 0.950 . S
H698 C710 0.950 . S
H699 C711 0.950 . S
C700 H692 0.950 . S
C700 C701 1.386 . S
C700 C702 1.391 . S
C701 C700 1.386 . S
C701 C705 1.393 . S
C702 H694 0.950 . S
C702 C700 1.391 . S
C702 C703 1.400 . S
C703 C702 1.400 . S
C703 C704 1.398 . S
C703 C709 1.491 . S
C704 H695 0.950 . S
C704 C703 1.398 . S
C704 C705 1.391 . S
C705 H693 0.950 . S
C705 C701 1.393 . S
C705 C704 1.391 . S
C706 H696 0.950 . S
C706 C707 1.386 . S
C706 C708 1.391 . S
C707 C706 1.386 . S
C707 C711 1.393 . S
C708 H697 0.950 . S
C708 C706 1.391 . S
C708 C709 1.400 . S
C709 C703 1.491 . S
C709 C708 1.400 . S
C709 C710 1.398 . S
C710 H698 0.950 . S
C710 C709 1.398 . S
C710 C711 1.391 . S
C711 H699 0.950 . S
C711 C707 1.393 . S
C711 C710 1.391 . S
H712 C720 0.950 . S
H713 C725 0.950 . S
H714 C722 0.950 . S
H715 C724 0.950 . S
H716 C726 0.950 . S
H717 C728 0.950 . S
H718 C730 0.950 . S
H719 C731 0.950 . S
C720 H712 0.950 . S
C720 C721 1.386 . S
C720 C722 1.391 . S
C721 C720 1.386 . S
C721 C725 1.393 . S
C722 H714 0.950 . S
C722 C720 1.391 . S
C722 C723 1.400 . S
C723 C722 1.400 . S
C723 C724 1.398 . S
C723 C729 1.491 . S
C724 H715 0.950 . S
C724 C723 1.398 . S
C724 C725 1.391 . S
C725 H713 0.950 . S
C725 C721 1.393 . S
C725 C724 1.391 . S
C726 H716 0.950 . S
C726 C727 1.386 . S
C726 C728 1.391 . S
C727 C726 1.386 . S
C727 C731 1.393 . S
C728 H717 0.950 . S
C728 C726 1.391 . S
C728 C729 1.400 . S
C729 C723 1.491 . S
C729 C728 1.400 . S
C729 C730 1.398 . S
C730 H718 0.950 . S
C730 C729 1.398 . S
C730 C731 1.391 . S
C731 H719 0.950 . S
C731 C727 1.393 . S
C731 C730 1.391 . S
H732 C740 0.950 . S
H733 C745 0.950 . S
H734 C742 0.950 . S
H735 C744 0.950 . S
H736 C746 0.950 . S
H737 C748 0.950 . S
H738 C750 0.950 . S
H739 C751 0.950 . S
C740 H732 0.950 . S
C740 C741 1.386 . S
C740 C742 1.391 . S
C741 C740 1.386 . S
C741 C745 1.393 . S
C742 H734 0.950 . S
C742 C740 1.391 . S
C742 C743 1.400 . S
C743 C742 1.400 . S
C743 C744 1.398 . S
C743 C749 1.491 . S
C744 H735 0.950 . S
C744 C743 1.398 . S
C744 C745 1.391 . S
C745 H733 0.950 . S
C745 C741 1.393 . S
C745 C744 1.391 . S
C746 H736 0.950 . S
C746 C747 1.386 . S
C746 C748 1.391 . S
C747 C746 1.386 . S
C747 C751 1.393 . S
C748 H737 0.950 . S
C748 C746 1.391 . S
C748 C749 1.400 . S
C749 C743 1.491 . S
C749 C748 1.400 . S
C749 C750 1.398 . S
C750 H738 0.950 . S
C750 C749 1.398 . S
C750 C751 1.391 . S
C751 H739 0.950 . S
C751 C747 1.393 . S
C751 C750 1.391 . S
H752 C760 0.950 . S
H753 C765 0.950 . S
H754 C762 0.950 . S
H755 C764 0.950 . S
H756 C766 0.950 . S
H757 C768 0.950 . S
H758 C770 0.950 . S
H759 C771 0.950 . S
C760 H752 0.950 . S
C760 C761 1.386 . S
C760 C762 1.391 . S
C761 C760 1.386 . S
C761 C765 1.393 . S
C762 H754 0.950 . S
C762 C760 1.391 . S
C762 C763 1.400 . S
C763 C762 1.400 . S
C763 C764 1.398 . S
C763 C769 1.491 . S
C764 H755 0.950 . S
C764 C763 1.398 . S
C764 C765 1.391 . S
C765 H753 0.950 . S
C765 C761 1.393 . S
C765 C764 1.391 . S
C766 H756 0.950 . S
C766 C767 1.386 . S
C766 C768 1.391 . S
C767 C766 1.386 . S
C767 C771 1.393 . S
C768 H757 0.950 . S
C768 C766 1.391 . S
C768 C769 1.400 . S
C769 C763 1.491 . S
C769 C768 1.400 . S
C769 C770 1.398 . S
C770 H758 0.950 . S
C770 C769 1.398 . S
C770 C771 1.391 . S
C771 H759 0.950 . S
C771 C767 1.393 . S
C771 C770 1.391 . S
H772 C780 0.950 . S
H773 C785 0.950 . S
H774 C782 0.950 . S
H775 C784 0.950 . S
H776 C786 0.950 . S
H777 C788 0.950 . S
H778 C790 0.950 . S
H779 C791 0.950 . S
C780 H772 0.950 . S
C780 C781 1.386 . S
C780 C782 1.391 . S
C781 C780 1.386 . S
C781 C785 1.393 . S
C782 H774 0.950 . S
C782 C780 1.391 . S
C782 C783 1.400 . S
C783 C782 1.400 . S
C783 C784 1.398 . S
C783 C789 1.491 . S
C784 H775 0.950 . S
C784 C783 1.398 . S
C784 C785 1.391 . S
C785 H773 0.950 . S
C785 C781 1.393 . S
C785 C784 1.391 . S
C786 H776 0.950 . S
C786 C787 1.386 . S
C786 C788 1.391 . S
C787 C786 1.386 . S
C787 C791 1.393 . S
C788 H777 0.950 . S
C788 C786 1.391 . S
C788 C789 1.400 . S
C789 C783 1.491 . S
C789 C788 1.400 . S
C789 C790 1.398 . S
C790 H778 0.950 . S
C790 C789 1.398 . S
C790 C791 1.391 . S
C791 H779 0.950 . S
C791 C787 1.393 . S
C791 C790 1.391 . S
H792 C800 0.950 . S
H793 C805 0.950 . S
H794 C802 0.950 . S
H795 C804 0.950 . S
H796 C806 0.950 . S
H797 C808 0.950 . S
H798 C810 0.950 . S
H799 C811 0.950 . S
C800 H792 0.950 . S
C800 C801 1.386 . S
C800 C802 1.391 . S
C801 C800 1.386 . S
C801 C805 1.393 . S
C802 H794 0.950 . S
C802 C800 1.391 . S
C802 C803 1.400 . S
C803 C802 1.400 . S
C803 C804 1.398 . S
C803 C809 1.491 . S
C804 H795 0.950 . S
C804 C803 1.398 . S
C804 C805 1.391 . S
C805 H793 0.950 . S
C805 C801 1.393 . S
C805 C804 1.391 . S
C806 H796 0.950 . S
C806 C807 1.386 . S
C806 C808 1.391 . S
C807 C806 1.386 . S
C807 C811 1.393 . S
C808 H797 0.950 . S
C808 C806 1.391 . S
C808 C809 1.400 . S
C809 C803 1.491 . S
C809 C808 1.400 . S
C809 C810 1.398 . S
C810 H798 0.950 . S
C810 C809 1.398 . S
C810 C811 1.391 . S
C811 H799 0.950 . S
C811 C807 1.393 . S
C811 C810 1.391 . S
H812 C820 0.950 . S
H813 C825 0.950 . S
H814 C822 0.950 . S
H815 C824 0.950 . S
H816 C826 0.950 . S
H817 C828 0.950 . S
H818 C830 0.950 . S
H819 C831 0.950 . S
C820 H812 0.950 . S
C820 C821 1.386 . S
C820 C822 1.391 . S
C821 C820 1.386 . S
C821 C825 1.393 . S
C822 H814 0.950 . S
C822 C820 1.391 . S
C822 C823 1.400 . S
C823 C822 1.400 . S
C823 C824 1.398 . S
C823 C829 1.491 . S
C824 H815 0.950 . S
C824 C823 1.398 . S
C824 C825 1.391 . S
C825 H813 0.950 . S
C825 C821 1.393 . S
C825 C824 1.391 . S
C826 H816 0.950 . S
C826 C827 1.386 . S
C826 C828 1.391 . S
C827 C826 1.386 . S
C827 C831 1.393 . S
C828 H817 0.950 . S
C828 C826 1.391 . S
C828 C829 1.400 . S
C829 C823 1.491 . S
C829 C828 1.400 . S
C829 C830 1.398 . S
C830 H818 0.950 . S
C830 C829 1.398 . S
C830 C831 1.391 . S
C831 H819 0.950 . S
C831 C827 1.393 . S
C831 C830 1.391 . S
H832 C840 0.950 . S
H833 C845 0.950 . S
H834 C842 0.950 . S
H835 C844 0.950 . S
H836 C846 0.950 . S
H837 C848 0.950 . S
H838 C850 0.950 . S
H839 C851 0.950 . S
C840 H832 0.950 . S
C840 C841 1.386 . S
C840 C842 1.391 . S
C841 C840 1.386 . S
C841 C845 1.393 . S
C842 H834 0.950 . S
C842 C840 1.391 . S
C842 C843 1.400 . S
C843 C842 1.400 . S
C843 C844 1.398 . S
C843 C849 1.491 . S
C844 H835 0.950 . S
C844 C843 1.398 . S
C844 C845 1.391 . S
C845 H833 0.950 . S
C845 C841 1.393 . S
C845 C844 1.391 . S
C846 H836 0.950 . S
C846 C847 1.386 . S
C846 C848 1.391 . S
C847 C846 1.386 . S
C847 C851 1.393 . S
C848 H837 0.950 . S
C848 C846 1.391 . S
C848 C849 1.400 . S
C849 C843 1.491 . S
C849 C848 1.400 . S
C849 C850 1.398 . S
C850 H838 0.950 . S
C850 C849 1.398 . S
C850 C851 1.391 . S
C851 H839 0.950 . S
C851 C847 1.393 . S
C851 C850 1.391 . S
H852 C860 0.950 . S
H853 C865 0.950 . S
H854 C862 0.950 . S
H855 C864 0.950 . S
H856 C866 0.950 . S
H857 C868 0.950 . S
H858 C870 0.950 . S
H859 C871 0.950 . S
C860 H852 0.950 . S
C860 C861 1.386 . S
C860 C862 1.391 . S
C861 C860 1.386 . S
C861 C865 1.393 . S
C862 H854 0.950 . S
C862 C860 1.391 . S
C862 C863 1.400 . S
C863 C862 1.400 . S
C863 C864 1.398 . S
C863 C869 1.491 1_556 S
C864 H855 0.950 . S
C864 C863 1.398 . S
C864 C865 1.391 . S
C865 H853 0.950 . S
C865 C861 1.393 . S
C865 C864 1.391 . S
C866 H856 0.950 . S
C866 C867 1.386 . S
C866 C868 1.391 . S
C867 C866 1.386 . S
C867 C871 1.393 . S
C868 H857 0.950 . S
C868 C866 1.391 . S
C868 C869 1.400 . S
C869 C863 1.491 1_554 S
C869 C868 1.400 . S
C869 C870 1.398 . S
C870 H858 0.950 . S
C870 C869 1.398 . S
C870 C871 1.391 . S
C871 H859 0.950 . S
C871 C867 1.393 . S
C871 C870 1.391 . S
H872 C880 0.950 . S
H873 C885 0.950 . S
H874 C882 0.950 . S
H875 C884 0.950 1_655 S
H876 C886 0.950 . S
H877 C888 0.950 . S
H878 C890 0.950 1_455 S
H879 C891 0.950 . S
C880 H872 0.950 . S
C880 C881 1.386 . S
C880 C882 1.391 . S
C881 C880 1.386 . S
C881 C885 1.393 . S
C882 H874 0.950 . S
C882 C880 1.391 . S
C882 C883 1.400 . S
C883 C882 1.400 . S
C883 C884 1.398 . S
C883 C889 1.491 1_455 S
C884 H875 0.950 1_455 S
C884 C883 1.398 . S
C884 C885 1.391 . S
C885 H873 0.950 . S
C885 C881 1.393 . S
C885 C884 1.391 . S
C886 H876 0.950 . S
C886 C887 1.386 . S
C886 C888 1.391 . S
C887 C886 1.386 . S
C887 C891 1.393 . S
C888 H877 0.950 . S
C888 C886 1.391 . S
C888 C889 1.400 . S
C889 C883 1.491 1_655 S
C889 C888 1.400 . S
C889 C890 1.398 . S
C890 H878 0.950 1_655 S
C890 C889 1.398 . S
C890 C891 1.391 . S
C891 H879 0.950 . S
C891 C887 1.393 . S
C891 C890 1.391 . S
H892 C900 0.950 . S
H893 C905 0.950 . S
H894 C902 0.950 1_545 S
H895 C904 0.950 . S
H896 C906 0.950 . S
H897 C908 0.950 1_565 S
H898 C910 0.950 . S
H899 C911 0.950 . S
C900 H892 0.950 . S
C900 C901 1.386 . S
C900 C902 1.391 . S
C901 C900 1.386 . S
C901 C905 1.393 . S
C902 H894 0.950 1_565 S
C902 C900 1.391 . S
C902 C903 1.400 . S
C903 C902 1.400 . S
C903 C904 1.398 . S
C903 C909 1.491 1_564 S
C904 H895 0.950 . S
C904 C903 1.398 . S
C904 C905 1.391 . S
C905 H893 0.950 . S
C905 C901 1.393 . S
C905 C904 1.391 . S
C906 H896 0.950 . S
C906 C907 1.386 . S
C906 C908 1.391 . S
C907 C906 1.386 . S
C907 C911 1.393 . S
C908 H897 0.950 1_545 S
C908 C906 1.391 . S
C908 C909 1.400 . S
C909 C903 1.491 1_546 S
C909 C908 1.400 . S
C909 C910 1.398 . S
C910 H898 0.950 . S
C910 C909 1.398 . S
C910 C911 1.391 . S
C911 H899 0.950 . S
C911 C907 1.393 . S
C911 C910 1.391 . S
H912 C920 0.950 . S
H913 C925 0.950 . S
H914 C922 0.950 . S
H915 C924 0.950 . S
H916 C926 0.950 . S
H917 C928 0.950 . S
H918 C930 0.950 . S
H919 C931 0.950 . S
C920 H912 0.950 . S
C920 C921 1.386 . S
C920 C922 1.391 . S
C921 C920 1.386 . S
C921 C925 1.393 . S
C922 H914 0.950 . S
C922 C920 1.391 . S
C922 C923 1.400 . S
C923 C922 1.400 . S
C923 C924 1.398 . S
C923 C929 1.491 . S
C924 H915 0.950 . S
C924 C923 1.398 . S
C924 C925 1.391 . S
C925 H913 0.950 . S
C925 C921 1.393 . S
C925 C924 1.391 . S
C926 H916 0.950 . S
C926 C927 1.386 . S
C926 C928 1.391 . S
C927 C926 1.386 . S
C927 C931 1.393 . S
C928 H917 0.950 . S
C928 C926 1.391 . S
C928 C929 1.400 . S
C929 C923 1.491 . S
C929 C928 1.400 . S
C929 C930 1.398 . S
C930 H918 0.950 . S
C930 C929 1.398 . S
C930 C931 1.391 . S
C931 H919 0.950 . S
C931 C927 1.393 . S
C931 C930 1.391 . S
H932 C940 0.950 . S
H933 C945 0.950 . S
H934 C942 0.950 . S
H935 C944 0.950 1_455 S
H936 C946 0.950 . S
H937 C948 0.950 . S
H938 C950 0.950 1_655 S
H939 C951 0.950 . S
C940 H932 0.950 . S
C940 C941 1.386 . S
C940 C942 1.391 . S
C941 C940 1.386 . S
C941 C945 1.393 . S
C942 H934 0.950 . S
C942 C940 1.391 . S
C942 C943 1.400 . S
C943 C942 1.400 . S
C943 C944 1.398 . S
C943 C949 1.491 1_656 S
C944 H935 0.950 1_655 S
C944 C943 1.398 . S
C944 C945 1.391 . S
C945 H933 0.950 . S
C945 C941 1.393 . S
C945 C944 1.391 . S
C946 H936 0.950 . S
C946 C947 1.386 . S
C946 C948 1.391 . S
C947 C946 1.386 . S
C947 C951 1.393 . S
C948 H937 0.950 . S
C948 C946 1.391 . S
C948 C949 1.400 . S
C949 C943 1.491 1_454 S
C949 C948 1.400 . S
C949 C950 1.398 . S
C950 H938 0.950 1_455 S
C950 C949 1.398 . S
C950 C951 1.391 . S
C951 H939 0.950 . S
C951 C947 1.393 . S
C951 C950 1.391 . S
H952 C960 0.950 . S
H953 C965 0.950 . S
H954 C962 0.950 . S
H955 C964 0.950 . S
H956 C966 0.950 . S
H957 C968 0.950 . S
H958 C970 0.950 . S
H959 C971 0.950 . S
C960 H952 0.950 . S
C960 C961 1.386 . S
C960 C962 1.391 1_565 S
C961 C960 1.386 . S
C961 C965 1.393 . S
C962 H954 0.950 . S
C962 C960 1.391 1_545 S
C962 C963 1.400 1_545 S
C963 C962 1.400 1_565 S
C963 C964 1.398 . S
C963 C969 1.491 1_565 S
C964 H955 0.950 . S
C964 C963 1.398 . S
C964 C965 1.391 . S
C965 H953 0.950 . S
C965 C961 1.393 . S
C965 C964 1.391 . S
C966 H956 0.950 . S
C966 C967 1.386 . S
C966 C968 1.391 1_545 S
C967 C966 1.386 . S
C967 C971 1.393 . S
C968 H957 0.950 . S
C968 C966 1.391 1_565 S
C968 C969 1.400 1_565 S
C969 C963 1.491 1_545 S
C969 C968 1.400 1_545 S
C969 C970 1.398 . S
C970 H958 0.950 . S
C970 C969 1.398 . S
C970 C971 1.391 . S
C971 H959 0.950 . S
C971 C967 1.393 . S
C971 C970 1.391 . S
C261 C91 0.891 . S
C267 C19 0.838 . S
C281 C112 0.828 . S
C287 C41 0.895 1_455 S
C301 C61 0.820 1_545 S
C307 C7 0.900 . S
C321 C82 0.867 . S
C327 C25 0.865 . S
C341 C103 0.877 1_655 S
C347 C49 0.841 . S
C361 C70 0.901 . S
C367 C124 0.821 1_565 S
C381 C175 0.864 . S
C387 C146 0.852 . S
C401 C166 0.876 1_455 S
C407 C196 0.856 . S
C421 C217 0.854 . S
C427 C187 0.878 1_545 S
C441 C208 0.893 . S
C447 C238 0.829 . S
C461 C229 0.837 1_655 S
C467 C130 0.880 . S
C481 C154 0.833 . S
C487 C250 0.894 1_565 S
C501 C88 0.836 . S
C507 C3 1.007 . S
C521 C37 1.011 . S
C527 C109 0.840 . S
C541 C45 0.988 . S
C547 C4 0.839 . S
C561 C66 0.965 . S
C567 C28 0.867 . S
C581 C46 0.905 . S
C587 C87 0.994 . S
C601 C67 0.835 . S
C607 C108 1.003 . S
C621 C172 0.873 . S
C627 C142 0.962 . S
C641 C150 0.959 . S
C647 C193 0.908 . S
C661 C171 0.957 . S
C667 C214 0.900 . S
C681 C235 0.912 . S
C687 C192 0.985 . S
C701 C213 1.012 . S
C707 C133 0.875 . S
C721 C151 0.834 . S
C727 C234 1.002 . S
C741 C226 1.393 . S
C747 C16 1.413 . S
C761 C24 1.372 . S
C767 C247 1.402 . S
C781 C58 1.373 . S
C787 C129 1.401 . S
C801 C79 1.376 . S
C807 C163 1.393 . S
C821 C100 1.386 . S
C827 C184 1.416 . S
C841 C205 1.409 . S
C847 C121 1.372 . S
C861 C209 1.360 . S
C867 C20 1.382 . S
C881 C230 1.386 . S
C887 C40 1.390 . S
C901 C62 1.368 . S
C907 C251 1.365 . S
C921 C83 1.360 . S
C927 C145 1.384 . S
C941 C167 1.386 . S
C947 C104 1.391 . S
C961 C188 1.375 . S
C967 C125 1.361 . S
