# Generated by pormake.
# Topology unb, (4)-cn, num edge types: 1
# Building blocks:
#     Node 0, Type 0, BuildingBlock: ICAMEG_clean_sbu_1, # of connection points: 4
#     Node 1, Type 0, BuildingBlock: ICAMEG_clean_sbu_1, # of connection points: 4
#     Node 2, Type 0, BuildingBlock: ICAMEG_clean_sbu_1, # of connection points: 4
#     Node 3, Type 0, BuildingBlock: ICAMEG_clean_sbu_1, # of connection points: 4
#     Node 4, Type 0, BuildingBlock: ICAMEG_clean_sbu_1, # of connection points: 4
#     Node 5, Type 0, BuildingBlock: ICAMEG_clean_sbu_1, # of connection points: 4
#     Node 6, Type 0, BuildingBlock: ICAMEG_clean_sbu_1, # of connection points: 4
#     Node 7, Type 0, BuildingBlock: ICAMEG_clean_sbu_1, # of connection points: 4
#     Node 8, Type 0, BuildingBlock: ICAMEG_clean_sbu_1, # of connection points: 4
#     Node 9, Type 0, BuildingBlock: ICAMEG_clean_sbu_1, # of connection points: 4
#     Node 10, Type 0, BuildingBlock: ICAMEG_clean_sbu_1, # of connection points: 4
#     Node 11, Type 0, BuildingBlock: ICAMEG_clean_sbu_1, # of connection points: 4
#     Node 12, Type 0, BuildingBlock: ICAMEG_clean_sbu_1, # of connection points: 4
#     Node 13, Type 0, BuildingBlock: ICAMEG_clean_sbu_1, # of connection points: 4
#     Node 14, Type 0, BuildingBlock: ICAMEG_clean_sbu_1, # of connection points: 4
#     Node 15, Type 0, BuildingBlock: ICAMEG_clean_sbu_1, # of connection points: 4
#     Node 16, Type 0, BuildingBlock: ICAMEG_clean_sbu_1, # of connection points: 4
#     Node 17, Type 0, BuildingBlock: ICAMEG_clean_sbu_1, # of connection points: 4
#     Edge 18, Type (0, 0), BuildingBlock: AJUNOK_clean_linker_0, # of connection points: 2
#     Edge 19, Type (0, 0), BuildingBlock: AJUNOK_clean_linker_0, # of connection points: 2
#     Edge 20, Type (0, 0), BuildingBlock: AJUNOK_clean_linker_0, # of connection points: 2
#     Edge 21, Type (0, 0), BuildingBlock: AJUNOK_clean_linker_0, # of connection points: 2
#     Edge 22, Type (0, 0), BuildingBlock: AJUNOK_clean_linker_0, # of connection points: 2
#     Edge 23, Type (0, 0), BuildingBlock: AJUNOK_clean_linker_0, # of connection points: 2
#     Edge 24, Type (0, 0), BuildingBlock: AJUNOK_clean_linker_0, # of connection points: 2
#     Edge 25, Type (0, 0), BuildingBlock: AJUNOK_clean_linker_0, # of connection points: 2
#     Edge 26, Type (0, 0), BuildingBlock: AJUNOK_clean_linker_0, # of connection points: 2
#     Edge 27, Type (0, 0), BuildingBlock: AJUNOK_clean_linker_0, # of connection points: 2
#     Edge 28, Type (0, 0), BuildingBlock: AJUNOK_clean_linker_0, # of connection points: 2
#     Edge 29, Type (0, 0), BuildingBlock: AJUNOK_clean_linker_0, # of connection points: 2
#     Edge 30, Type (0, 0), BuildingBlock: AJUNOK_clean_linker_0, # of connection points: 2
#     Edge 31, Type (0, 0), BuildingBlock: AJUNOK_clean_linker_0, # of connection points: 2
#     Edge 32, Type (0, 0), BuildingBlock: AJUNOK_clean_linker_0, # of connection points: 2
#     Edge 33, Type (0, 0), BuildingBlock: AJUNOK_clean_linker_0, # of connection points: 2
#     Edge 34, Type (0, 0), BuildingBlock: AJUNOK_clean_linker_0, # of connection points: 2
#     Edge 35, Type (0, 0), BuildingBlock: AJUNOK_clean_linker_0, # of connection points: 2
#     Edge 36, Type (0, 0), BuildingBlock: AJUNOK_clean_linker_0, # of connection points: 2
#     Edge 37, Type (0, 0), BuildingBlock: AJUNOK_clean_linker_0, # of connection points: 2
#     Edge 38, Type (0, 0), BuildingBlock: AJUNOK_clean_linker_0, # of connection points: 2
#     Edge 39, Type (0, 0), BuildingBlock: AJUNOK_clean_linker_0, # of connection points: 2
#     Edge 40, Type (0, 0), BuildingBlock: AJUNOK_clean_linker_0, # of connection points: 2
#     Edge 41, Type (0, 0), BuildingBlock: AJUNOK_clean_linker_0, # of connection points: 2
#     Edge 42, Type (0, 0), BuildingBlock: AJUNOK_clean_linker_0, # of connection points: 2
#     Edge 43, Type (0, 0), BuildingBlock: AJUNOK_clean_linker_0, # of connection points: 2
#     Edge 44, Type (0, 0), BuildingBlock: AJUNOK_clean_linker_0, # of connection points: 2
#     Edge 45, Type (0, 0), BuildingBlock: AJUNOK_clean_linker_0, # of connection points: 2
#     Edge 46, Type (0, 0), BuildingBlock: AJUNOK_clean_linker_0, # of connection points: 2
#     Edge 47, Type (0, 0), BuildingBlock: AJUNOK_clean_linker_0, # of connection points: 2
#     Edge 48, Type (0, 0), BuildingBlock: AJUNOK_clean_linker_0, # of connection points: 2
#     Edge 49, Type (0, 0), BuildingBlock: AJUNOK_clean_linker_0, # of connection points: 2
#     Edge 50, Type (0, 0), BuildingBlock: AJUNOK_clean_linker_0, # of connection points: 2
#     Edge 51, Type (0, 0), BuildingBlock: AJUNOK_clean_linker_0, # of connection points: 2
#     Edge 52, Type (0, 0), BuildingBlock: AJUNOK_clean_linker_0, # of connection points: 2
#     Edge 53, Type (0, 0), BuildingBlock: AJUNOK_clean_linker_0, # of connection points: 2
# Relax obj value: 0.086
# Max RMSD: 0.091
# Mean RMSD: 0.091
data_MOF--net-unb--node1-ICAMEG_clean_sbu_1--edge1-AJUNOK_clean_linker_0
_symmetry_space_group_name_H-M    P1
_symmetry_Int_Tables_number       1
_symmetry_cell_setting            triclinic
loop_
_symmetry_equiv_pos_as_xyz
'x, y, z'
_cell_length_a     47.830135
_cell_length_b     47.812553
_cell_length_c     22.155083
_cell_angle_alpha  90.034789
_cell_angle_beta   90.013679
_cell_angle_gamma 120.06577
loop_
_atom_site_label
_atom_site_type_symbol
_atom_site_fract_x
_atom_site_fract_y
_atom_site_fract_z
_atom_type_partial_charge
Co0 Co 0.19524 0.31733 0.0898 0.0
Co1 Co 0.13494 0.2444 0.03814 0.0
O2 O 0.15167 0.27925 0.09863 0.0
C3 C 0.19312 0.30051 0.22067 0.0
O4 O 0.17949 0.26979 0.20628 0.0
C5 C 0.0783 0.25454 0.04289 0.0
O6 O 0.09764 0.28586 0.03789 0.0
O7 O 0.14171 0.27602 0.97423 0.0
O8 O 0.19118 0.3156 0.99991 0.0
H9 H 0.13606 0.19506 0.83841 0.0
H10 H 0.14686 0.32071 0.1682 0.0
O11 O 0.2009 0.32166 0.17958 0.0
H12 H 0.17698 0.40669 0.01675 0.0
H13 H 0.28755 0.42737 0.14561 0.0
H14 H 0.25096 0.33393 0.00915 0.0
H15 H 0.20229 0.37271 0.01566 0.0
H16 H 0.23224 0.38085 0.15335 0.0
O17 O 0.08961 0.23561 0.04913 0.0
H18 H 0.15647 0.23773 0.91608 0.0
H19 H 0.07751 0.17795 0.03042 0.0
H20 H 0.30633 0.38012 0.99941 0.0
H21 H 0.12115 0.35435 0.17128 0.0
H22 H 0.32502 0.42721 0.06819 0.0
H23 H 0.13614 0.39766 0.09507 0.0
O24 O 0.21463 0.28874 0.08622 0.0
H25 H 0.09721 0.19322 0.24176 0.0
H26 H 0.15253 0.19299 0.05408 0.0
H27 H 0.14624 0.15552 0.13628 0.0
H28 H 0.11835 0.15544 0.23092 0.0
H29 H 0.10434 0.23055 0.15851 0.0
H30 H 0.05612 0.13471 0.95376 0.0
H31 H 0.08552 0.14309 0.85701 0.0
O32 O 0.1791 0.25123 0.02277 0.0
C33 C 0.16769 0.30223 0.96284 0.0
C34 C 0.12308 0.19107 0.88046 0.0
C35 C 0.07823 0.1572 0.94521 0.0
N36 N 0.11837 0.21027 0.97797 0.0
C37 C 0.13456 0.21513 0.9247 0.0
C38 C 0.09045 0.18179 0.98844 0.0
C39 C 0.09472 0.16193 0.89092 0.0
C40 C 0.1537 0.33969 0.13521 0.0
N41 N 0.17618 0.34485 0.09207 0.0
C42 C 0.13898 0.35859 0.13705 0.0
C43 C 0.14738 0.38286 0.09423 0.0
C44 C 0.17028 0.38793 0.05027 0.0
C45 C 0.18449 0.36857 0.04982 0.0
C46 C 0.27969 0.40699 0.11539 0.0
C47 C 0.25878 0.35442 0.03894 0.0
C48 C 0.24841 0.38051 0.11966 0.0
N49 N 0.2383 0.35465 0.0817 0.0
C50 C 0.29021 0.38049 0.0333 0.0
C51 C 0.3007 0.4069 0.07191 0.0
C52 C 0.20669 0.26598 0.04801 0.0
C53 C 0.1093 0.19294 0.20065 0.0
C54 C 0.14046 0.19318 0.09519 0.0
C55 C 0.13689 0.17184 0.14152 0.0
C56 C 0.12122 0.17179 0.19459 0.0
N57 N 0.1287 0.21386 0.10152 0.0
C58 C 0.11328 0.21392 0.15333 0.0
Co59 Co 0.76344 0.88211 0.00767 0.0
Co60 Co 0.69257 0.86995 0.06925 0.0
O61 O 0.73031 0.86376 0.07108 0.0
C62 C 0.75099 0.81438 0.00803 0.0
O63 O 0.71975 0.8034 0.00891 0.0
C64 C 0.68797 0.88877 0.19538 0.0
O65 O 0.68994 0.91502 0.17242 0.0
O66 O 0.72198 0.91803 0.06788 0.0
O67 O 0.75757 0.92044 0.99917 0.0
H68 H 0.62882 0.92097 0.9968 0.0
H69 H 0.77953 0.86259 0.12323 0.0
O70 O 0.77102 0.84454 0.0121 0.0
H71 H 0.85713 0.97928 0.10439 0.0
H72 H 0.86981 0.9114 0.91017 0.0
H73 H 0.76817 0.91339 0.88942 0.0
H74 H 0.81673 0.95027 0.02477 0.0
H75 H 0.82854 0.88908 0.99029 0.0
O76 O 0.69132 0.86923 0.16073 0.0
H77 H 0.6756 0.9126 1.00053 0.0
H78 H 0.62928 0.8403 0.13476 0.0
H79 H 0.8089 0.93622 0.80849 0.0
H80 H 0.81988 0.89059 0.20368 0.0
H81 H 0.86016 0.93531 0.81855 0.0
H82 H 0.85897 0.94937 0.19454 0.0
O83 O 0.72996 0.85913 0.9452 0.0
H84 H 0.65541 0.75694 0.14066 0.0
H85 H 0.63608 0.8233 0.99479 0.0
H86 H 0.60165 0.764 0.99207 0.0
H87 H 0.61113 0.73039 0.06554 0.0
H88 H 0.68959 0.81632 0.14128 0.0
H89 H 0.58206 0.84805 0.13274 0.0
H90 H 0.58161 0.8886 0.06334 0.0
O91 O 0.69212 0.87 0.97867 0.0
C92 C 0.74401 0.93331 0.02848 0.0
C93 C 0.62873 0.90323 0.02727 0.0
C94 C 0.60248 0.8623 0.10353 0.0
N95 N 0.65525 0.87599 0.06778 0.0
C96 C 0.65517 0.89837 0.02955 0.0
C97 C 0.62931 0.85804 0.10448 0.0
C98 C 0.60225 0.88506 0.06459 0.0
C99 C 0.79666 0.88812 0.11882 0.0
N100 N 0.79589 0.90473 0.06933 0.0
C101 C 0.81936 0.90386 0.16455 0.0
C102 C 0.84127 0.93686 0.15942 0.0
C103 C 0.84025 0.95366 0.10886 0.0
C104 C 0.81725 0.93711 0.06401 0.0
C105 C 0.84761 0.91202 0.90533 0.0
C106 C 0.79046 0.91302 0.89432 0.0
C107 C 0.82412 0.89937 0.95051 0.0
N108 N 0.79601 0.90006 0.94474 0.0
C109 C 0.81342 0.92594 0.84826 0.0
C110 C 0.84217 0.92541 0.85392 0.0
C111 C 0.70483 0.86141 0.93732 0.0
C112 C 0.65096 0.77133 0.10858 0.0
C113 C 0.64048 0.80887 0.02677 0.0
C114 C 0.62083 0.77529 0.0251 0.0
C115 C 0.62615 0.75645 0.06636 0.0
N116 N 0.66469 0.82331 0.0685 0.0
C117 C 0.67013 0.80497 0.10891 0.0
Co118 Co 0.11637 0.87204 0.02087 0.0
Co119 Co 0.12953 0.81605 0.09112 0.0
O120 O 0.13386 0.85926 0.08897 0.0
C121 C 0.18272 0.92955 0.02672 0.0
O122 O 0.1948 0.91036 0.03221 0.0
C123 C 0.10896 0.79425 0.21799 0.0
O124 O 0.08306 0.76914 0.19587 0.0
O125 O 0.08124 0.79563 0.085 0.0
O126 O 0.07966 0.8268 0.01097 0.0
H127 H 0.08313 0.70039 0.02607 0.0
H128 H 0.13046 0.90853 0.13524 0.0
O129 O 0.15227 0.91812 0.02648 0.0
H130 H 0.01384 0.86389 0.10034 0.0
H131 H 0.0845 0.94373 0.9096 0.0
H132 H 0.09066 0.84393 0.90021 0.0
H133 H 0.04683 0.85388 0.02754 0.0
H134 H 0.10604 0.92758 0.99555 0.0
O135 O 0.12834 0.81674 0.18251 0.0
H136 H 0.08965 0.75487 0.02431 0.0
H137 H 0.15977 0.78527 0.16395 0.0
H138 H 0.06867 0.85898 0.81352 0.0
H139 H 0.09843 0.91953 0.20897 0.0
H140 H 0.06548 0.90924 0.81785 0.0
H141 H 0.03967 0.89706 0.19172 0.0
O142 O 0.14273 0.86277 0.96424 0.0
H143 H 0.23978 0.89631 0.16942 0.0
H144 H 0.17929 0.80739 0.02517 0.0
H145 H 0.2387 0.83427 0.02817 0.0
H146 H 0.26937 0.87899 0.10087 0.0
H147 H 0.18034 0.86906 0.16437 0.0
H148 H 0.15378 0.731 0.16762 0.0
H149 H 0.11526 0.6881 0.09829 0.0
O150 O 0.13205 0.81468 1.00067 0.0
C151 C 0.06659 0.8009 0.042 0.0
C152 C 0.09999 0.71887 0.05653 0.0
C153 C 0.13964 0.73605 0.13594 0.0
N154 N 0.1251 0.77333 0.09384 0.0
C155 C 0.10383 0.74981 0.05566 0.0
C156 C 0.14291 0.76674 0.13367 0.0
C157 C 0.11803 0.712 0.09703 0.0
C158 C 0.10495 0.8989 0.12731 0.0
N159 N 0.09058 0.88074 0.07711 0.0
C160 C 0.08692 0.90511 0.16925 0.0
C161 C 0.05394 0.89247 0.15958 0.0
C162 C 0.03943 0.87385 0.10833 0.0
C163 C 0.05823 0.86817 0.06736 0.0
C164 C 0.08566 0.92172 0.90723 0.0
C165 C 0.08918 0.86572 0.90264 0.0
C166 C 0.09787 0.91246 0.95574 0.0
N167 N 0.09937 0.88467 0.95315 0.0
C168 C 0.07678 0.87417 0.85331 0.0
C169 C 0.07501 0.90237 0.85576 0.0
C170 C 0.1422 0.83601 0.95906 0.0
C171 C 0.22668 0.87677 0.13772 0.0
C172 C 0.19242 0.82693 0.05676 0.0
C173 C 0.22608 0.842 0.05836 0.0
C174 C 0.24327 0.86707 0.09918 0.0
N175 N 0.17629 0.83648 0.0949 0.0
C176 C 0.19301 0.86114 0.13485 0.0
Co177 Co 0.25873 0.13031 0.98158 0.0
Co178 Co 0.32582 0.19385 0.91836 0.0
O179 O 0.29083 0.14818 0.91629 0.0
C180 C 0.25695 0.06935 0.0129 0.0
O181 O 0.26745 0.08241 0.06624 0.0
C182 C 0.3107 0.17711 0.78528 0.0
O183 O 0.28675 0.14821 0.79831 0.0
O184 O 0.29303 0.20796 0.92423 0.0
O185 O 0.26174 0.17322 0.99569 0.0
H186 H 0.38106 0.30781 0.99736 0.0
H187 H 0.24123 0.09569 0.86474 0.0
O188 O 0.2543 0.08617 0.97058 0.0
H189 H 0.15977 0.12852 0.89813 0.0
H190 H 0.15522 0.04804 0.08221 0.0
H191 H 0.25558 0.15292 0.1047 0.0
H192 H 0.20266 0.14156 0.97316 0.0
H193 H 0.19471 0.07017 0.99917 0.0
O194 O 0.32631 0.19736 0.8271 0.0
H195 H 0.33915 0.25021 0.99498 0.0
H196 H 0.38521 0.23463 0.84524 0.0
H197 H 0.21664 0.13178 0.18875 0.0
H198 H 0.19838 0.08162 0.78893 0.0
H199 H 0.16602 0.07897 0.17783 0.0
H200 H 0.15733 0.09817 0.80535 0.0
O201 O 0.29436 0.14232 0.0394 0.0
H202 H 0.37213 0.12566 0.84437 0.0
H203 H 0.38725 0.21267 0.98347 0.0
H204 H 0.42754 0.19499 0.98147 0.0
H205 H 0.42029 0.15136 0.91119 0.0
H206 H 0.3322 0.14357 0.84871 0.0
H207 H 0.42741 0.29216 0.84568 0.0
H208 H 0.42556 0.32917 0.92222 0.0
O209 O 0.32807 0.193 0.00896 0.0
C210 C 0.27236 0.19969 0.96678 0.0
C211 C 0.38216 0.29191 0.96383 0.0
C212 C 0.40814 0.28314 0.87866 0.0
N213 N 0.35971 0.23897 0.92014 0.0
C214 C 0.35852 0.25922 0.96233 0.0
C215 C 0.38409 0.25059 0.87852 0.0
C216 C 0.40711 0.30389 0.92164 0.0
C217 C 0.22331 0.10276 0.87234 0.0
N218 N 0.22445 0.11938 0.92329 0.0
C219 C 0.19917 0.09482 0.8292 0.0
C220 C 0.17616 0.10414 0.83842 0.0
C221 C 0.17753 0.12118 0.89044 0.0
C222 C 0.20199 0.12864 0.93263 0.0
C223 C 0.17717 0.07109 0.08752 0.0
C224 C 0.2336 0.12995 0.0995 0.0
C225 C 0.19965 0.08374 0.04065 0.0
N226 N 0.22745 0.11285 0.04696 0.0
C227 C 0.21164 0.11809 0.1473 0.0
C228 C 0.18325 0.08846 0.14114 0.0
C229 C 0.31862 0.17027 0.04755 0.0
C230 C 0.37578 0.14498 0.87468 0.0
C231 C 0.38392 0.19378 0.95245 0.0
C232 C 0.40684 0.18383 0.95165 0.0
C233 C 0.40275 0.15934 0.91227 0.0
N234 N 0.35774 0.17996 0.91473 0.0
C235 C 0.35332 0.1555 0.87685 0.0
Co236 Co 0.8797 0.12367 0.98364 0.0
Co237 Co 0.81728 0.12846 0.91863 0.0
O238 O 0.86272 0.13894 0.91885 0.0
C239 C 0.93887 0.18317 0.02203 0.0
O240 O 0.92462 0.1786 0.07466 0.0
C241 C 0.79686 0.10801 0.79202 0.0
O242 O 0.77462 0.07998 0.81343 0.0
O243 O 0.80297 0.08133 0.92114 0.0
O244 O 0.83707 0.08272 0.99236 0.0
H245 H 0.70075 0.06622 0.98243 0.0
H246 H 0.91583 0.14486 0.86872 0.0
O247 O 0.92341 0.16453 0.97768 0.0
H248 H 0.88721 0.03101 0.89276 0.0
H249 H 0.96187 0.10278 0.08531 0.0
H250 H 0.85515 0.09422 0.10378 0.0
H251 H 0.87119 0.05764 0.96958 0.0
H252 H 0.94058 0.12158 0.00315 0.0
O253 O 0.81793 0.12904 0.82759 0.0
H254 H 0.75805 0.08108 0.98374 0.0
H255 H 0.77957 0.1528 0.85035 0.0
H256 H 0.87534 0.07483 0.18678 0.0
H257 H 0.93286 0.11934 0.79122 0.0
H258 H 0.92911 0.07907 0.17788 0.0
H259 H 0.91847 0.06199 0.80298 0.0
O260 O 0.86533 0.14456 0.04325 0.0
H261 H 0.8864 0.24324 0.84905 0.0
H262 H 0.80002 0.17109 0.98896 0.0
H263 H 0.81928 0.22953 0.99034 0.0
H264 H 0.86264 0.26602 0.91975 0.0
H265 H 0.86669 0.18468 0.84969 0.0
H266 H 0.72241 0.13846 0.84707 0.0
H267 H 0.68251 0.09487 0.91345 0.0
O268 O 0.81552 0.12861 0.00886 0.0
C269 C 0.81077 0.06786 0.9625 0.0
C270 C 0.71789 0.08527 0.95327 0.0
C271 C 0.73005 0.1258 0.87733 0.0
N272 N 0.77228 0.11785 0.91727 0.0
C273 C 0.75044 0.09385 0.95392 0.0
C274 C 0.76241 0.1338 0.87935 0.0
C275 C 0.70768 0.10135 0.91459 0.0
C276 C 0.90975 0.11999 0.87433 0.0
N277 N 0.89282 0.10288 0.92381 0.0
C278 C 0.91934 0.10563 0.83023 0.0
C279 C 0.91123 0.07344 0.83683 0.0
C280 C 0.89368 0.05604 0.88718 0.0
C281 C 0.88458 0.07122 0.93042 0.0
C282 C 0.93837 0.10071 0.08967 0.0
C283 C 0.87844 0.09596 0.09935 0.0
C284 C 0.92618 0.11133 0.04329 0.0
N285 N 0.89649 0.10877 0.04838 0.0
C286 C 0.88981 0.08502 0.1466 0.0
C287 C 0.91998 0.08742 0.14159 0.0
C288 C 0.83685 0.13962 0.05033 0.0
C289 C 0.8674 0.22757 0.87984 0.0
C290 C 0.81898 0.1868 0.95823 0.0
C291 C 0.82975 0.21988 0.95916 0.0
C292 C 0.85408 0.24034 0.91955 0.0
N293 N 0.83193 0.1744 0.91869 0.0
C294 C 0.85606 0.19438 0.88027 0.0
Co295 Co 0.87482 0.67188 0.91932 0.0
Co296 Co 0.87621 0.7396 0.97321 0.0
O297 O 0.86331 0.70605 0.9107 0.0
C298 C 0.88779 0.68996 0.7887 0.0
O299 O 0.90011 0.72063 0.80245 0.0
C300 C 0.81549 0.73956 0.99902 0.0
O301 O 0.81745 0.72964 0.05326 0.0
O302 O 0.85285 0.70525 0.03362 0.0
O303 O 0.87152 0.6723 0.00871 0.0
H304 H 0.91748 0.78722 0.17857 0.0
H305 H 0.82066 0.66137 0.83959 0.0
O306 O 0.87765 0.66875 0.82998 0.0
H307 H 0.77301 0.57258 0.98776 0.0
H308 H 0.8723 0.56846 0.86278 0.0
H309 H 0.91871 0.66216 1.00039 0.0
H310 H 0.83105 0.6131 0.99139 0.0
H311 H 0.85652 0.61012 0.85455 0.0
O312 O 0.8358 0.74237 0.95828 0.0
H313 H 0.9015 0.74656 0.09779 0.0
H314 H 0.87804 0.80299 0.98312 0.0
H315 H 0.9347 0.62078 0.01083 0.0
H316 H 0.76253 0.62114 0.83393 0.0
H317 H 0.91155 0.57356 0.94152 0.0
H318 H 0.73834 0.57638 0.90846 0.0
O319 O 0.92154 0.70556 0.92481 0.0
H320 H 0.88777 0.79326 0.77281 0.0
H321 H 0.94272 0.79711 0.96361 0.0
H322 H 0.9723 0.83799 0.88515 0.0
H323 H 0.94475 0.83632 0.78902 0.0
H324 H 0.85925 0.75252 0.85219 0.0
H325 H 0.89354 0.84417 0.06279 0.0
H326 H 0.91353 0.83646 0.16136 0.0
O327 O 0.91691 0.73849 0.99106 0.0
C328 C 0.85734 0.6818 0.04474 0.0
C329 C 0.90881 0.79087 0.13582 0.0
C330 C 0.89537 0.82282 0.07086 0.0
N331 N 0.88878 0.77232 0.03573 0.0
C332 C 0.89973 0.76791 0.08987 0.0
C333 C 0.88655 0.79937 0.02593 0.0
C334 C 0.90658 0.81848 0.12614 0.0
C335 C 0.81035 0.64183 0.8719 0.0
N336 N 0.82928 0.63949 0.91547 0.0
C337 C 0.7774 0.61917 0.86859 0.0
C338 C 0.76384 0.59408 0.91045 0.0
C339 C 0.78328 0.59194 0.95496 0.0
C340 C 0.81612 0.61501 0.95685 0.0
C341 C 0.88254 0.58892 0.89326 0.0
C342 C 0.9083 0.64159 0.97035 0.0
C343 C 0.87379 0.61268 0.88868 0.0
N344 N 0.8866 0.63858 0.92706 0.0
C345 C 0.91754 0.61826 0.97637 0.0
C346 C 0.90456 0.59178 0.93746 0.0
C347 C 0.93342 0.72774 0.96498 0.0
C348 C 0.89999 0.79433 0.8146 0.0
C349 C 0.93061 0.79609 0.92178 0.0
C350 C 0.94746 0.81938 0.87759 0.0
C351 C 0.93198 0.81844 0.82368 0.0
N352 N 0.89921 0.77255 0.91257 0.0
C353 C 0.88392 0.77142 0.85979 0.0
Co354 Co 0.85807 0.64831 0.41041 0.0
Co355 Co 0.79571 0.57474 0.36665 0.0
O356 O 0.81384 0.61191 0.42192 0.0
C357 C 0.86092 0.63838 0.54325 0.0
O358 O 0.85317 0.60823 0.53351 0.0
C359 C 0.74172 0.58896 0.36386 0.0
O360 O 0.7626 0.61973 0.35567 0.0
O361 O 0.80438 0.60404 0.29719 0.0
O362 O 0.85461 0.64274 0.32128 0.0
H363 H 0.79413 0.51524 0.17832 0.0
H364 H 0.81124 0.65772 0.4825 0.0
O365 O 0.86319 0.65639 0.49928 0.0
H366 H 0.84386 0.73621 0.31573 0.0
H367 H 0.95148 0.76035 0.44977 0.0
H368 H 0.9149 0.65853 0.33853 0.0
H369 H 0.86696 0.70045 0.32476 0.0
H370 H 0.89581 0.71506 0.46141 0.0
O371 O 0.75125 0.56886 0.37411 0.0
H372 H 0.81615 0.56133 0.2488 0.0
H373 H 0.73602 0.50975 0.36578 0.0
H374 H 0.97062 0.70335 0.32475 0.0
H375 H 0.78786 0.69335 0.47562 0.0
H376 H 0.98929 0.75476 0.38067 0.0
H377 H 0.80411 0.73289 0.39167 0.0
O378 O 0.87569 0.61815 0.41452 0.0
H379 H 0.75606 0.53312 0.57546 0.0
H380 H 0.80953 0.5217 0.39448 0.0
H381 H 0.80097 0.48697 0.48286 0.0
H382 H 0.77397 0.49252 0.57415 0.0
H383 H 0.7654 0.5676 0.48613 0.0
H384 H 0.71283 0.46326 0.29608 0.0
H385 H 0.74205 0.46573 0.20175 0.0
O386 O 0.83907 0.57877 0.35518 0.0
C387 C 0.8316 0.62835 0.2837 0.0
C388 C 0.78123 0.5138 0.2194 0.0
C389 C 0.73561 0.48463 0.2855 0.0
N390 N 0.77765 0.53812 0.31175 0.0
C391 C 0.79367 0.53979 0.25963 0.0
C392 C 0.74885 0.51106 0.32476 0.0
C393 C 0.752 0.48604 0.23256 0.0
C394 C 0.81864 0.67507 0.44615 0.0
N395 N 0.84059 0.67712 0.40435 0.0
C396 C 0.80524 0.6951 0.44236 0.0
C397 C 0.81433 0.71725 0.39521 0.0
C398 C 0.83662 0.71911 0.35257 0.0
C399 C 0.84954 0.69872 0.35783 0.0
C400 C 0.94361 0.73811 0.42499 0.0
C401 C 0.92266 0.68087 0.36254 0.0
C402 C 0.9121 0.71232 0.43153 0.0
N403 N 0.90187 0.68421 0.40015 0.0
C404 C 0.95433 0.70616 0.35477 0.0
C405 C 0.96481 0.73497 0.38622 0.0
C406 C 0.86693 0.59392 0.37947 0.0
C407 C 0.76775 0.53041 0.53589 0.0
C408 C 0.79786 0.52433 0.4341 0.0
C409 C 0.79301 0.50454 0.48395 0.0
C410 C 0.77785 0.50766 0.53515 0.0
N411 N 0.7878 0.54652 0.43515 0.0
C412 C 0.773 0.54978 0.48517 0.0
Co413 Co 0.4322 0.21814 0.36086 0.0
Co414 Co 0.36124 0.21003 0.41386 0.0
O415 O 0.39716 0.20107 0.4207 0.0
C416 C 0.41674 0.1493 0.36216 0.0
O417 O 0.38577 0.13948 0.35897 0.0
C418 C 0.37201 0.20722 0.54863 0.0
O419 O 0.39717 0.20382 0.53866 0.0
O420 O 0.39261 0.25755 0.41296 0.0
O421 O 0.42869 0.25778 0.34823 0.0
H422 H 0.30499 0.26575 0.32631 0.0
H423 H 0.44482 0.19735 0.47841 0.0
O424 O 0.43741 0.17918 0.36891 0.0
H425 H 0.52524 0.31343 0.46331 0.0
H426 H 0.53955 0.24188 0.2757 0.0
H427 H 0.44163 0.24931 0.24096 0.0
H428 H 0.48644 0.28557 0.38082 0.0
H429 H 0.49623 0.22177 0.35195 0.0
O430 O 0.35692 0.21106 0.50485 0.0
H431 H 0.34876 0.253 0.33562 0.0
H432 H 0.29846 0.18721 0.47792 0.0
H433 H 0.48451 0.27001 0.1638 0.0
H434 H 0.48349 0.22416 0.56179 0.0
H435 H 0.5339 0.26634 0.1809 0.0
H436 H 0.52398 0.28265 0.55457 0.0
O437 O 0.40027 0.196 0.29609 0.0
H438 H 0.31644 0.09467 0.48153 0.0
H439 H 0.3037 0.16675 0.33929 0.0
H440 H 0.26559 0.10815 0.33512 0.0
H441 H 0.27167 0.07164 0.40685 0.0
H442 H 0.35425 0.15319 0.4834 0.0
H443 H 0.25432 0.19954 0.47051 0.0
H444 H 0.25734 0.23896 0.39412 0.0
O445 O 0.363 0.20896 0.32327 0.0
C446 C 0.41543 0.27182 0.3747 0.0
C447 C 0.30336 0.24848 0.35972 0.0
C448 C 0.27495 0.21136 0.4407 0.0
N449 N 0.32618 0.21931 0.40713 0.0
C450 C 0.32806 0.24111 0.36513 0.0
C451 C 0.3001 0.20458 0.44483 0.0
C452 C 0.27665 0.23347 0.39781 0.0
C453 C 0.4625 0.22276 0.47491 0.0
N454 N 0.46328 0.23988 0.42502 0.0
C455 C 0.48428 0.23783 0.52227 0.0
C456 C 0.50697 0.27066 0.51821 0.0
C457 C 0.50767 0.28795 0.46705 0.0
C458 C 0.48552 0.27207 0.4206 0.0
C459 C 0.51819 0.24371 0.2678 0.0
C460 C 0.46314 0.24782 0.24897 0.0
C461 C 0.49356 0.23234 0.31079 0.0
N462 N 0.46651 0.23459 0.30117 0.0
C463 C 0.4873 0.25951 0.20501 0.0
C464 C 0.515 0.25742 0.21462 0.0
C465 C 0.37562 0.19863 0.28494 0.0
C466 C 0.31328 0.11035 0.45049 0.0
C467 C 0.30648 0.15112 0.37096 0.0
C468 C 0.28481 0.11791 0.36827 0.0
C469 C 0.28824 0.09744 0.40849 0.0
N470 N 0.33077 0.16373 0.41286 0.0
C471 C 0.3345 0.14369 0.45181 0.0
Co472 Co 0.78683 0.20098 0.36457 0.0
Co473 Co 0.78651 0.13237 0.41499 0.0
O474 O 0.79895 0.17848 0.42422 0.0
C475 C 0.84885 0.2593 0.33368 0.0
O476 O 0.84419 0.24699 0.27916 0.0
C477 C 0.77818 0.14129 0.54749 0.0
O478 O 0.77547 0.16669 0.53567 0.0
O479 O 0.73986 0.11923 0.40516 0.0
O480 O 0.74467 0.16061 0.34974 0.0
H481 H 0.72971 0.02256 0.31728 0.0
H482 H 0.80931 0.23262 0.48349 0.0
O483 O 0.82933 0.24285 0.37634 0.0
H484 H 0.69737 0.21068 0.46432 0.0
H485 H 0.77438 0.29252 0.28221 0.0
H486 H 0.75788 0.18378 0.24232 0.0
H487 H 0.72227 0.19542 0.3829 0.0
H488 H 0.78937 0.26482 0.35841 0.0
O489 O 0.78107 0.1251 0.50481 0.0
H490 H 0.74519 0.07978 0.32927 0.0
H491 H 0.80196 0.0878 0.48286 0.0
H492 H 0.74232 0.2105 0.16499 0.0
H493 H 0.78558 0.24892 0.56557 0.0
H494 H 0.75059 0.2653 0.18466 0.0
H495 H 0.72916 0.23783 0.55635 0.0
O496 O 0.80661 0.18805 0.30045 0.0
H497 H 0.89721 0.19235 0.5084 0.0
H498 H 0.83115 0.1174 0.34658 0.0
H499 H 0.88882 0.13404 0.35447 0.0
H500 H 0.92225 0.17166 0.43603 0.0
H501 H 0.83958 0.17543 0.49843 0.0
H502 H 0.78658 0.03052 0.47318 0.0
H503 H 0.75056 0.99758 0.38962 0.0
O504 O 0.79187 0.13708 0.32557 0.0
C505 C 0.72815 0.13167 0.3692 0.0
C506 C 0.74555 0.03669 0.3538 0.0
C507 C 0.77742 0.04116 0.44134 0.0
N508 N 0.77457 0.08725 0.40654 0.0
C509 C 0.7545 0.06917 0.36068 0.0
C510 C 0.78593 0.07357 0.44672 0.0
C511 C 0.75717 0.02267 0.39444 0.0
C512 C 0.78487 0.22804 0.47892 0.0
N513 N 0.76724 0.21314 0.42846 0.0
C514 C 0.7715 0.23717 0.52565 0.0
C515 C 0.73983 0.23089 0.52049 0.0
C516 C 0.72196 0.21562 0.46891 0.0
C517 C 0.73613 0.20684 0.42309 0.0
C518 C 0.77064 0.26864 0.27309 0.0
C519 C 0.76151 0.2076 0.25131 0.0
C520 C 0.77914 0.25285 0.31607 0.0
N521 N 0.77454 0.2227 0.30491 0.0
C522 C 0.75266 0.22262 0.20731 0.0
C523 C 0.7573 0.25336 0.21838 0.0
C524 C 0.80309 0.16054 0.28857 0.0
C525 C 0.88286 0.1758 0.47287 0.0
C526 C 0.84551 0.13382 0.38216 0.0
C527 C 0.87817 0.14312 0.38644 0.0
C528 C 0.8969 0.16423 0.4322 0.0
N529 N 0.83182 0.14508 0.42252 0.0
C530 C 0.85012 0.16599 0.46719 0.0
Co531 Co 0.91246 0.45605 0.32477 0.0
Co532 Co 0.98277 0.51444 0.26126 0.0
O533 O 0.94484 0.47041 0.25966 0.0
C534 C 0.92144 0.39862 0.32066 0.0
O535 O 0.95292 0.41765 0.32047 0.0
C536 C 0.96809 0.49824 0.12779 0.0
O537 O 0.94295 0.46993 0.14 0.0
O538 O 0.95355 0.53305 0.26505 0.0
O539 O 0.92039 0.50089 0.33733 0.0
H540 H 0.04694 0.6284 0.3388 0.0
H541 H 0.89264 0.42105 0.20847 0.0
O542 O 0.90265 0.41022 0.317 0.0
H543 H 0.82079 0.46628 0.23692 0.0
H544 H 0.80604 0.38134 0.42488 0.0
H545 H 0.91101 0.48172 0.44611 0.0
H546 H 0.86144 0.47453 0.31388 0.0
H547 H 0.84618 0.39962 0.3428 0.0
O548 O 0.98421 0.51786 0.17007 0.0
H549 H 1.00094 0.57266 0.33596 0.0
H550 H 0.04375 0.55024 0.18965 0.0
H551 H 0.8715 0.4644 0.5291 0.0
H552 H 0.85193 0.41179 0.13059 0.0
H553 H 0.81855 0.41387 0.51879 0.0
H554 H 0.81576 0.43462 0.14452 0.0
O555 O 0.94655 0.46446 0.38435 0.0
H556 H 0.01918 0.43727 0.19155 0.0
H557 H 0.04208 0.5276 0.32841 0.0
H558 H 0.07805 0.50463 0.32859 0.0
H559 H 0.06689 0.45928 0.25945 0.0
H560 H 0.9836 0.46047 0.19368 0.0
H561 H 0.09002 0.60589 0.19043 0.0
H562 H 0.09189 0.64538 0.26552 0.0
O563 O 0.98409 0.51355 0.35176 0.0
C564 C 0.93311 0.52703 0.3072 0.0
C565 C 0.04645 0.61139 0.30594 0.0
C566 C 0.0706 0.59877 0.22262 0.0
N567 N 0.01968 0.55808 0.26298 0.0
C568 C 0.02049 0.57974 0.30425 0.0
C569 C 0.04425 0.5673 0.22228 0.0
C570 C 0.07165 0.62091 0.26479 0.0
C571 C 0.87681 0.43084 0.21494 0.0
N572 N 0.87947 0.44834 0.26551 0.0
C573 C 0.85387 0.4256 0.17068 0.0
C574 C 0.8336 0.43844 0.17849 0.0
C575 C 0.83642 0.45623 0.2303 0.0
C576 C 0.85961 0.46093 0.27361 0.0
C577 C 0.82899 0.40344 0.42985 0.0
C578 C 0.88801 0.45975 0.44113 0.0
C579 C 0.85184 0.41391 0.38354 0.0
N580 N 0.88088 0.44182 0.38946 0.0
C581 C 0.86573 0.45005 0.48835 0.0
C582 C 0.83604 0.4217 0.48254 0.0
C583 C 0.97231 0.49144 0.39181 0.0
C584 C 0.02457 0.45731 0.22133 0.0
C585 C 0.03708 0.508 0.29784 0.0
C586 C 0.05755 0.49504 0.29829 0.0
C587 C 0.05127 0.4696 0.25954 0.0
N588 N 0.0112 0.49622 0.25945 0.0
C589 C 1.00461 0.47086 0.2222 0.0
Co590 Co 0.54306 0.46366 0.31183 0.0
Co591 Co 0.47713 0.46243 0.24887 0.0
O592 O 0.52361 0.47609 0.24622 0.0
C593 C 0.60251 0.52466 0.34272 0.0
O594 O 0.58905 0.52204 0.39561 0.0
C595 C 0.49328 0.46583 0.11465 0.0
O596 O 0.52313 0.4732 0.12611 0.0
O597 O 0.46613 0.41627 0.25388 0.0
O598 O 0.50142 0.42229 0.32633 0.0
H599 H 0.36377 0.39705 0.32846 0.0
H600 H 0.57682 0.48182 0.19439 0.0
O601 O 0.58618 0.50475 0.30048 0.0
H602 H 0.5513 0.36965 0.22985 0.0
H603 H 0.6289 0.44824 0.4133 0.0
H604 H 0.52173 0.4383 0.43553 0.0
H605 H 0.53604 0.39788 0.3045 0.0
H606 H 0.60494 0.4631 0.32963 0.0
O607 O 0.4733 0.45957 0.15772 0.0
H608 H 0.42222 0.41667 0.32571 0.0
H609 H 0.43326 0.47735 0.17678 0.0
H610 H 0.54463 0.42289 0.52018 0.0
H611 H 0.59302 0.45467 0.11889 0.0
H612 H 0.59864 0.42786 0.50943 0.0
H613 H 0.58018 0.39814 0.13638 0.0
O614 O 0.52933 0.48603 0.36932 0.0
H615 H 0.53913 0.57804 0.17721 0.0
H616 H 0.45452 0.50161 0.31525 0.0
H617 H 0.46859 0.55867 0.31483 0.0
H618 H 0.51104 0.59735 0.24515 0.0
H619 H 0.52472 0.521 0.17972 0.0
H620 H 0.37481 0.45788 0.17728 0.0
H621 H 0.33964 0.41754 0.25366 0.0
O622 O 0.47801 0.46518 0.33946 0.0
C623 C 0.47547 0.405 0.29671 0.0
C624 C 0.37885 0.41466 0.29499 0.0
C625 C 0.38504 0.44878 0.21013 0.0
N626 N 0.43125 0.44819 0.2512 0.0
C627 C 0.41202 0.42594 0.2933 0.0
C628 C 0.41813 0.4596 0.20992 0.0
C629 C 0.36532 0.42615 0.253 0.0
C630 C 0.57135 0.4573 0.20243 0.0
N631 N 0.55562 0.44154 0.25382 0.0
C632 C 0.5805 0.44201 0.15947 0.0
C633 C 0.57326 0.41029 0.1693 0.0
C634 C 0.55704 0.39428 0.22171 0.0
C635 C 0.54833 0.41036 0.2637 0.0
C636 C 0.60535 0.44596 0.41855 0.0
C637 C 0.54519 0.44047 0.43036 0.0
C638 C 0.59167 0.4544 0.37133 0.0
N639 N 0.56193 0.4516 0.37755 0.0
C640 C 0.55806 0.43172 0.47852 0.0
C641 C 0.58836 0.43452 0.47247 0.0
C642 C 0.50063 0.48018 0.37767 0.0
C643 C 0.52032 0.56135 0.20727 0.0
C644 C 0.47288 0.51815 0.28442 0.0
C645 C 0.48079 0.5505 0.28454 0.0
C646 C 0.50462 0.57219 0.2455 0.0
N647 N 0.48805 0.50751 0.24614 0.0
C648 C 0.5118 0.52881 0.20847 0.0
Co649 Co 0.52912 0.00541 0.26263 0.0
Co650 Co 0.54325 0.08361 0.28183 0.0
O651 O 0.52249 0.04162 0.24062 0.0
C652 C 0.54446 0.01401 0.1309 0.0
O653 O 0.56328 0.04504 0.14121 0.0
C654 C 0.47644 0.07189 0.3073 0.0
O655 O 0.46972 0.04589 0.33834 0.0
O656 O 0.5302 0.06247 0.36239 0.0
O657 O 0.52757 0.01445 0.34935 0.0
H658 H 0.61345 0.16283 0.44085 0.0
H659 H 0.47675 0.99469 0.1773 0.0
O660 O 0.53008 0.99502 0.17482 0.0
H661 H 0.42207 0.92208 0.34922 0.0
H662 H 0.5119 0.89293 0.23968 0.0
H663 H 0.56397 0.99286 0.36058 0.0
H664 H 0.48133 0.95689 0.34816 0.0
H665 H 0.50445 0.93884 0.21361 0.0
O666 O 0.50269 0.08652 0.27718 0.0
H667 H 0.58699 0.11055 0.38737 0.0
H668 H 0.54446 0.14618 0.2636 0.0
H669 H 0.57193 0.94753 0.38866 0.0
H670 H 0.41745 0.96 0.17623 0.0
H671 H 0.54589 0.89707 0.32783 0.0
H672 H 0.38972 0.9234 0.26269 0.0
O673 O 0.57766 0.03399 0.26531 0.0
H674 H 0.52552 0.09935 0.06405 0.0
H675 H 0.60465 0.13681 0.23027 0.0
H676 H 0.62179 0.16168 0.12962 0.0
H677 H 0.58201 0.14295 0.04564 0.0
H678 H 0.50964 0.07493 0.16537 0.0
H679 H 0.56987 0.1986 0.3165 0.0
H680 H 0.60484 0.20726 0.40563 0.0
O681 O 0.58429 0.08281 0.28803 0.0
C682 C 0.52693 0.03596 0.38204 0.0
C683 C 0.59825 0.15935 0.4021 0.0
C684 C 0.57376 0.17941 0.33237 0.0
N685 N 0.56407 0.12523 0.32248 0.0
C686 C 0.58325 0.12981 0.37153 0.0
C687 C 0.55924 0.14958 0.30283 0.0
C688 C 0.5934 0.18426 0.38233 0.0
C689 C 0.46489 0.97864 0.21486 0.0
N690 N 0.48252 0.97765 0.26249 0.0
C691 C 0.43129 0.95913 0.2141 0.0
C692 C 0.41574 0.93863 0.26266 0.0
C693 C 0.43388 0.93788 0.31123 0.0
C694 C 0.46743 0.9577 0.31041 0.0
C695 C 0.52369 0.91491 0.26614 0.0
C696 C 0.55288 0.97123 0.33343 0.0
C697 C 0.51981 0.94115 0.25117 0.0
N698 N 0.53461 0.96903 0.2843 0.0
C699 C 0.55732 0.94551 0.34977 0.0
C700 C 0.54269 0.91722 0.31567 0.0
C701 C 0.59532 0.06369 0.28067 0.0
C702 C 0.54309 0.10768 0.10024 0.0
C703 C 0.5874 0.12828 0.19377 0.0
C704 C 0.59714 0.14259 0.13698 0.0
C705 C 0.5748 0.13211 0.08992 0.0
N706 N 0.55632 0.10424 0.20347 0.0
C707 C 0.53422 0.09399 0.15768 0.0
Co708 Co 0.52826 0.98987 0.74968 0.0
Co709 Co 0.46255 0.92433 0.68783 0.0
O710 O 0.48203 0.9564 0.75319 0.0
C711 C 0.52067 0.96874 0.87992 0.0
O712 O 0.50352 0.93828 0.86379 0.0
C713 C 0.40316 0.92616 0.65726 0.0
O714 O 0.41643 0.9366 0.60413 0.0
O715 O 0.47607 0.96026 0.62981 0.0
O716 O 0.52721 0.99196 0.65934 0.0
H717 H 0.46043 0.88125 0.47985 0.0
H718 H 0.4834 0.99997 0.82641 0.0
O719 O 0.53163 0.9908 0.84003 0.0
H720 H 0.53093 0.09236 0.68595 0.0
H721 H 0.62903 0.09043 0.8184 0.0
H722 H 0.58385 0.99913 0.67529 0.0
H723 H 0.54698 0.05079 0.68168 0.0
H724 H 0.57088 0.05012 0.81946 0.0
O725 O 0.4193 0.9221 0.69924 0.0
H726 H 0.48375 0.91981 0.56429 0.0
H727 H 0.40067 0.86179 0.67094 0.0
H728 H 0.64202 0.03917 0.67199 0.0
H729 H 0.46691 0.04122 0.83268 0.0
H730 H 0.66503 0.08517 0.74415 0.0
H731 H 0.4907 0.08779 0.76203 0.0
O732 O 0.54016 0.95536 0.74401 0.0
H733 H 0.41485 0.86729 0.88333 0.0
H734 H 0.46953 0.86559 0.69583 0.0
H735 H 0.45551 0.82308 0.77214 0.0
H736 H 0.42787 0.82369 0.86663 0.0
H737 H 0.42968 0.90959 0.80603 0.0
H738 H 0.37637 0.82268 0.58758 0.0
H739 H 0.40634 0.83227 0.49116 0.0
O740 O 0.50427 0.92476 0.67329 0.0
C741 C 0.50445 0.98379 0.62122 0.0
C742 C 0.44713 0.87679 0.52163 0.0
C743 C 0.39996 0.84393 0.58207 0.0
N744 N 0.44359 0.89312 0.62254 0.0
C745 C 0.46022 0.89855 0.56964 0.0
C746 C 0.41382 0.86619 0.62911 0.0
C747 C 0.41678 0.84933 0.528 0.0
C748 C 0.494 0.02028 0.79578 0.0
N749 N 0.51624 0.02304 0.75399 0.0
C750 C 0.48452 0.04351 0.79943 0.0
C751 C 0.49785 0.06962 0.75974 0.0
C752 C 0.52041 0.0722 0.71704 0.0
C753 C 0.52934 0.04853 0.71474 0.0
C754 C 0.61929 0.07052 0.78666 0.0
C755 C 0.59357 0.01923 0.70641 0.0
C756 C 0.58638 0.04755 0.78715 0.0
N757 N 0.57387 0.02235 0.74718 0.0
C758 C 0.62658 0.04178 0.70448 0.0
C759 C 0.63947 0.06757 0.74498 0.0
C760 C 0.53046 0.93396 0.70246 0.0
C761 C 0.42676 0.86668 0.84222 0.0
C762 C 0.45762 0.86611 0.73691 0.0
C763 C 0.44965 0.84191 0.77989 0.0
C764 C 0.43413 0.84226 0.83288 0.0
N765 N 0.45024 0.88995 0.74637 0.0
C766 C 0.43507 0.89047 0.79822 0.0
Co767 Co 0.08936 0.5436 0.69928 0.0
Co768 Co 0.01807 0.5321 0.75765 0.0
O769 O 0.05515 0.52472 0.76107 0.0
C770 C 0.07764 0.47607 0.69793 0.0
O771 O 0.04635 0.46483 0.69687 0.0
C772 C 0.02989 0.52811 0.89173 0.0
O773 O 0.05471 0.52428 0.88069 0.0
O774 O 0.04824 0.57985 0.75767 0.0
O775 O 0.08337 0.58187 0.68867 0.0
H776 H 0.95821 0.58603 0.67896 0.0
H777 H 0.10509 0.52402 0.81508 0.0
O778 O 0.09732 0.5062 0.7048 0.0
H779 H 0.18007 0.64149 0.80055 0.0
H780 H 0.19817 0.576 0.6093 0.0
H781 H 0.095 0.57403 0.57974 0.0
H782 H 0.14138 0.61223 0.71873 0.0
H783 H 0.15547 0.5524 0.68672 0.0
O784 O 0.01477 0.53252 0.84877 0.0
H785 H 1.00305 0.57467 0.68374 0.0
H786 H 0.95575 0.50695 0.82479 0.0
H787 H 0.13706 0.59788 0.50125 0.0
H788 H 0.14386 0.55226 0.8977 0.0
H789 H 0.18912 0.59903 0.51581 0.0
H790 H 0.18158 0.61145 0.8908 0.0
O791 O 0.05672 0.52034 0.63597 0.0
H792 H 0.9772 0.41664 0.82091 0.0
H793 H 0.95997 0.48822 0.68505 0.0
H794 H 0.92292 0.42944 0.68025 0.0
H795 H 0.93123 0.39316 0.74883 0.0
H796 H 0.01393 0.47533 0.82338 0.0
H797 H 0.91064 0.51799 0.82219 0.0
H798 H 0.91162 0.5577 0.74876 0.0
O799 O 0.01874 0.53158 0.66704 0.0
C800 C 0.07011 0.59494 0.71815 0.0
C801 C 0.95746 0.56861 0.71107 0.0
C802 C 0.93079 0.53046 0.7915 0.0
N803 N 0.98199 0.54001 0.75416 0.0
C804 C 0.98274 0.56198 0.71381 0.0
C805 C 0.95648 0.5244 0.79288 0.0
C806 C 0.93134 0.55273 0.75026 0.0
C807 C 0.12164 0.54973 0.81165 0.0
N808 N 0.12091 0.56642 0.76229 0.0
C809 C 0.14345 0.56561 0.85859 0.0
C810 C 0.16459 0.59883 0.85472 0.0
C811 C 0.16375 0.61569 0.80412 0.0
C812 C 0.14165 0.599 0.75804 0.0
C813 C 0.17563 0.57574 0.60251 0.0
C814 C 0.11758 0.57443 0.58648 0.0
C815 C 0.15135 0.56239 0.64619 0.0
N816 N 0.1228 0.56196 0.63795 0.0
C817 C 0.14132 0.58797 0.54184 0.0
C818 C 0.17052 0.58862 0.55004 0.0
C819 C 0.03127 0.52192 0.62722 0.0
C820 C 0.97307 0.43221 0.7913 0.0
C821 C 0.96374 0.4727 0.71536 0.0
C822 C 0.94266 0.43938 0.71231 0.0
C823 C 0.94734 0.41905 0.75075 0.0
N824 N 0.98867 0.48556 0.75595 0.0
C825 C 0.99368 0.46565 0.79301 0.0
Co826 Co 0.44455 0.54032 0.68847 0.0
Co827 Co 0.45872 0.48133 0.74242 0.0
O828 O 0.46401 0.52498 0.74906 0.0
C829 C 0.51145 0.59717 0.68946 0.0
O830 O 0.52304 0.57746 0.68636 0.0
C831 C 0.45938 0.49346 0.87784 0.0
O832 O 0.45947 0.52064 0.86939 0.0
O833 O 0.4107 0.46167 0.74212 0.0
O834 O 0.40705 0.4955 0.6768 0.0
H835 H 0.41008 0.3693 0.65577 0.0
H836 H 0.4633 0.57428 0.80583 0.0
O837 O 0.48121 0.58608 0.69575 0.0
H838 H 0.34573 0.53045 0.78987 0.0
H839 H 0.41178 0.61694 0.60103 0.0
H840 H 0.41362 0.51581 0.56918 0.0
H841 H 0.3756 0.52205 0.70789 0.0
H842 H 0.43548 0.59756 0.67769 0.0
O843 O 0.45856 0.47624 0.83321 0.0
H844 H 0.41858 0.42441 0.66466 0.0
H845 H 0.48633 0.44543 0.80611 0.0
H846 H 0.38931 0.53407 0.49177 0.0
H847 H 0.43443 0.58362 0.88873 0.0
H848 H 0.38831 0.58501 0.50741 0.0
H849 H 0.3752 0.56153 0.88106 0.0
O850 O 0.4684 0.53269 0.62396 0.0
H851 H 0.57238 0.55891 0.8104 0.0
H852 H 0.50502 0.47191 0.66717 0.0
H853 H 0.56424 0.49703 0.66284 0.0
H854 H 0.59839 0.54077 0.73501 0.0
H855 H 0.51318 0.53344 0.81266 0.0
H856 H 0.47813 0.39034 0.7993 0.0
H857 H 0.43986 0.35188 0.72359 0.0
O858 O 0.45919 0.48375 0.6519 0.0
C859 C 0.39498 0.46842 0.70393 0.0
C860 C 0.42684 0.38585 0.68892 0.0
C861 C 0.46501 0.39765 0.76951 0.0
N862 N 0.45299 0.43822 0.73575 0.0
C863 C 0.43183 0.41715 0.69408 0.0
C864 C 0.46945 0.42879 0.7733 0.0
C865 C 0.44355 0.37609 0.72699 0.0
C866 C 0.43756 0.56478 0.80214 0.0
N867 N 0.42117 0.54761 0.75225 0.0
C868 C 0.42133 0.57006 0.84922 0.0
C869 C 0.38809 0.55763 0.84491 0.0
C870 C 0.37153 0.54017 0.79379 0.0
C871 C 0.38857 0.53537 0.74763 0.0
C872 C 0.412 0.59466 0.59377 0.0
C873 C 0.41307 0.53786 0.57658 0.0
C874 C 0.42544 0.58359 0.63697 0.0
N875 N 0.42568 0.5554 0.62822 0.0
C876 C 0.39936 0.54815 0.53246 0.0
C877 C 0.39883 0.57674 0.54125 0.0
C878 C 0.46804 0.50641 0.61333 0.0
C879 C 0.55776 0.53965 0.7791 0.0
C880 C 0.51964 0.49083 0.69897 0.0
C881 C 0.5532 0.50499 0.69622 0.0
C882 C 0.57234 0.52953 0.73669 0.0
N883 N 0.50545 0.50063 0.74113 0.0
C884 C 0.52412 0.52492 0.78051 0.0
Co885 Co 0.58465 0.79652 0.63812 0.0
Co886 Co 0.64992 0.86176 0.57379 0.0
O887 O 0.61611 0.8155 0.5715 0.0
C888 C 0.58606 0.73679 0.66763 0.0
O889 O 0.59799 0.75048 0.71995 0.0
C890 C 0.63572 0.84647 0.43898 0.0
O891 O 0.61412 0.81611 0.44916 0.0
O892 O 0.61573 0.87391 0.58154 0.0
O893 O 0.58605 0.83869 0.65366 0.0
H894 H 0.701 0.97547 0.65325 0.0
H895 H 0.56753 0.76275 0.52064 0.0
O896 O 0.58139 0.75279 0.62621 0.0
H897 H 0.48305 0.79089 0.55941 0.0
H898 H 0.48344 0.7119 0.74169 0.0
H899 H 0.58244 0.818 0.76269 0.0
H900 H 0.52673 0.80496 0.63316 0.0
H901 H 0.52156 0.73546 0.65684 0.0
O902 O 0.64951 0.86593 0.48285 0.0
H903 H 0.66126 0.91718 0.65133 0.0
H904 H 0.70817 0.90473 0.49946 0.0
H905 H 0.54485 0.79554 0.8485 0.0
H906 H 0.524 0.74783 0.44591 0.0
H907 H 0.49493 0.74205 0.83839 0.0
H908 H 0.48141 0.76199 0.46508 0.0
O909 O 0.62112 0.80961 0.6944 0.0
H910 H 0.70011 0.7977 0.49586 0.0
H911 H 0.71255 0.8832 0.63624 0.0
H912 H 0.75477 0.86818 0.63177 0.0
H913 H 0.74886 0.82529 0.56086 0.0
H914 H 0.65833 0.81308 0.5024 0.0
H915 H 0.74801 0.96301 0.49902 0.0
H916 H 0.74467 0.99882 0.57643 0.0
O917 O 0.65319 0.86065 0.66431 0.0
C918 C 0.59533 0.86492 0.62464 0.0
C919 C 0.70277 0.96011 0.61938 0.0
C920 C 0.72913 0.95312 0.5328 0.0
N921 N 0.68244 0.90743 0.57566 0.0
C922 C 0.68041 0.92702 0.61825 0.0
C923 C 0.70641 0.92013 0.53319 0.0
C924 C 0.72725 0.9732 0.57625 0.0
C925 C 0.54893 0.76877 0.52941 0.0
N926 N 0.54962 0.7846 0.5812 0.0
C927 C 0.52441 0.76035 0.4869 0.0
C928 C 0.50054 0.76834 0.49765 0.0
C929 C 0.50146 0.78458 0.55054 0.0
C930 C 0.52635 0.7926 0.59203 0.0
C931 C 0.50509 0.73523 0.74668 0.0
C932 C 0.56074 0.7948 0.75777 0.0
C933 C 0.52681 0.74866 0.69879 0.0
N934 N 0.55423 0.77812 0.70467 0.0
C935 C 0.53955 0.78216 0.8066 0.0
C936 C 0.51155 0.75216 0.8009 0.0
C937 C 0.64479 0.8379 0.7026 0.0
C938 C 0.70317 0.81672 0.52639 0.0
C939 C 0.70979 0.86466 0.60487 0.0
C940 C 0.73381 0.8562 0.6027 0.0
C941 C 0.73047 0.83214 0.56297 0.0
N942 N 0.68327 0.84983 0.56808 0.0
C943 C 0.67963 0.8258 0.52984 0.0
Co944 Co 0.20842 0.78393 0.65224 0.0
Co945 Co 0.14399 0.78855 0.5969 0.0
O946 O 0.18896 0.79774 0.58875 0.0
C947 C 0.26332 0.85211 0.64256 0.0
O948 O 0.24335 0.86323 0.64878 0.0
C949 C 0.15345 0.78589 0.4606 0.0
O950 O 0.18303 0.79138 0.4677 0.0
O951 O 0.12861 0.74132 0.60553 0.0
O952 O 0.16558 0.74501 0.67192 0.0
H953 H 0.03405 0.73546 0.69332 0.0
H954 H 0.23802 0.79794 0.5309 0.0
O955 O 0.25267 0.82189 0.6371 0.0
H956 H 0.20331 0.68341 0.56848 0.0
H957 H 0.29269 0.76205 0.74073 0.0
H958 H 0.1915 0.76258 0.77938 0.0
H959 H 0.195 0.71576 0.64554 0.0
H960 H 0.26792 0.77855 0.66109 0.0
O961 O 0.13613 0.78314 0.50652 0.0
H962 H 0.09058 0.7486 0.68167 0.0
H963 H 0.1017 0.80746 0.52971 0.0
H964 H 0.21514 0.74547 0.86004 0.0
H965 H 0.2472 0.76657 0.45276 0.0
H966 H 0.26615 0.74512 0.84095 0.0
H967 H 0.22969 0.70885 0.47133 0.0
O968 O 0.20004 0.80952 0.71254 0.0
H969 H 0.21206 0.9008 0.51208 0.0
H970 H 0.13027 0.83433 0.66398 0.0
H971 H 0.15002 0.89275 0.65904 0.0
H972 H 0.1911 0.92643 0.58244 0.0
H973 H 0.19198 0.8425 0.519 0.0
H974 H 0.04507 0.79439 0.539 0.0
H975 H 0.01087 0.75831 0.6215 0.0
O976 O 0.14891 0.79383 0.68678 0.0
C977 C 0.13796 0.72917 0.64679 0.0
C978 C 0.04872 0.75126 0.65724 0.0
C979 C 0.0549 0.78431 0.57062 0.0
N980 N 0.09956 0.77892 0.60528 0.0
C981 C 0.08082 0.75889 0.65055 0.0
C982 C 0.08693 0.79151 0.56544 0.0
C983 C 0.03572 0.76408 0.61692 0.0
C984 C 0.23054 0.77289 0.53935 0.0
N985 N 0.21599 0.75872 0.5926 0.0
C986 C 0.23572 0.75523 0.49494 0.0
C987 C 0.22586 0.72283 0.50536 0.0
C988 C 0.21103 0.70854 0.55984 0.0
C989 C 0.20625 0.72695 0.60319 0.0
C990 C 0.27033 0.76185 0.74947 0.0
C991 C 0.2134 0.76205 0.77041 0.0
C992 C 0.25614 0.77113 0.70451 0.0
N993 N 0.22781 0.7708 0.71507 0.0
C994 C 0.22681 0.75254 0.81641 0.0
C995 C 0.25544 0.75238 0.8057 0.0
C996 C 0.17254 0.80643 0.72368 0.0
C997 C 0.19386 0.88632 0.54517 0.0
C998 C 0.14796 0.84869 0.63013 0.0
C999 C 0.15911 0.88182 0.6277 0.0
C1000 C 0.18217 0.9007 0.58476 0.0
N1001 N 0.15916 0.83459 0.59054 0.0
C1002 C 0.18213 0.8531 0.54893 0.0
Co1003 Co 0.19954 0.33798 0.60204 0.0
Co1004 Co 0.20722 0.41083 0.64038 0.0
O1005 O 0.18999 0.37295 0.58684 0.0
C1006 C 0.21289 0.34848 0.46936 0.0
O1007 O 0.23193 0.37948 0.4798 0.0
C1008 C 0.13984 0.40029 0.65108 0.0
O1009 O 0.13059 0.37331 0.6808 0.0
O1010 O 0.18648 0.38222 0.71057 0.0
O1011 O 0.19973 0.34423 0.69113 0.0
H1012 H 0.26139 0.47376 0.82837 0.0
H1013 H 0.14359 0.32554 0.52568 0.0
O1014 O 0.19861 0.32938 0.51312 0.0
H1015 H 0.09777 0.24781 0.69367 0.0
H1016 H 0.18804 0.22833 0.56946 0.0
H1017 H 0.24447 0.33041 0.68382 0.0
H1018 H 0.15644 0.28541 0.68715 0.0
H1019 H 0.17526 0.27163 0.55219 0.0
O1020 O 0.16783 0.41521 0.62684 0.0
H1021 H 0.24006 0.42697 0.75959 0.0
H1022 H 0.21008 0.47465 0.63591 0.0
H1023 H 0.25764 0.28757 0.70328 0.0
H1024 H 0.08475 0.28803 0.53004 0.0
H1025 H 0.22942 0.2361 0.64573 0.0
H1026 H 0.06149 0.24888 0.6146 0.0
O1027 O 0.24701 0.36967 0.59967 0.0
H1028 H 0.21137 0.44953 0.42817 0.0
H1029 H 0.27385 0.4651 0.61467 0.0
H1030 H 0.30077 0.49923 0.52602 0.0
H1031 H 0.26944 0.49163 0.43197 0.0
H1032 H 0.1855 0.41559 0.51774 0.0
H1033 H 0.23061 0.52173 0.70379 0.0
H1034 H 0.25669 0.52157 0.80069 0.0
O1035 O 0.24731 0.40864 0.65649 0.0
C1036 C 0.18928 0.35813 0.72593 0.0
C1037 C 0.25012 0.47414 0.78624 0.0
C1038 C 0.23282 0.50105 0.71637 0.0
N1039 N 0.22388 0.44806 0.69364 0.0
C1040 C 0.23805 0.44773 0.74702 0.0
C1041 C 0.2211 0.47424 0.6782 0.0
C1042 C 0.24745 0.50095 0.7707 0.0
C1043 C 0.13366 0.30838 0.56233 0.0
N1044 N 0.15346 0.30756 0.60587 0.0
C1045 C 0.10032 0.28727 0.56467 0.0
C1046 C 0.08728 0.26533 0.61215 0.0
C1047 C 0.10762 0.2647 0.6565 0.0
C1048 C 0.14083 0.28612 0.65263 0.0
C1049 C 0.20059 0.25069 0.59468 0.0
C1050 C 0.23202 0.30809 0.65862 0.0
C1051 C 0.19359 0.27538 0.58477 0.0
N1052 N 0.20922 0.30365 0.61658 0.0
C1053 C 0.23961 0.28391 0.66983 0.0
C1054 C 0.22378 0.25505 0.63753 0.0
C1055 C 0.26142 0.39455 0.63357 0.0
C1056 C 0.22525 0.45313 0.46894 0.0
C1057 C 0.26008 0.46152 0.57383 0.0
C1058 C 0.27544 0.481 0.52383 0.0
C1059 C 0.25785 0.47673 0.47108 0.0
N1060 N 0.22808 0.43847 0.57138 0.0
C1061 C 0.2107 0.43408 0.51982 0.0
C1062 C 0.22482 0.35581 0.35806 0.0
C1063 C 0.20779 0.33533 0.40657 0.0
C1064 C 0.22025 0.34415 0.29858 0.0
C1065 C 0.19859 0.31141 0.28478 0.0
H1066 H 0.24179 0.38117 0.36587 0.0
H1067 H 0.23389 0.36109 0.26305 0.0
S1068 S 0.14745 0.24757 0.39466 0.0
N1069 N 0.16777 0.28043 0.43606 0.0
N1070 N 0.15971 0.2587 0.32464 0.0
C1071 C 0.18158 0.29055 0.33271 0.0
C1072 C 0.18599 0.30245 0.39335 0.0
C1073 C 0.64786 0.83576 0.33364 0.0
C1074 C 0.64803 0.85758 0.37657 0.0
C1075 C 0.66171 0.84621 0.27609 0.0
C1076 C 0.67595 0.8789 0.25854 0.0
H1077 H 0.63749 0.81044 0.34491 0.0
H1078 H 0.66072 0.82832 0.2448 0.0
S1079 S 0.68158 0.9456 0.35363 0.0
N1080 N 0.66325 0.91336 0.39717 0.0
N1081 N 0.68873 0.93292 0.28924 0.0
C1082 C 0.67597 0.90091 0.30097 0.0
C1083 C 0.66221 0.8903 0.35978 0.0
C1084 C 0.16326 0.80524 0.3529 0.0
C1085 C 0.14133 0.78721 0.39904 0.0
C1086 C 0.15252 0.80841 0.2955 0.0
C1087 C 0.11935 0.79315 0.28117 0.0
H1088 H 0.18902 0.81746 0.36134 0.0
H1089 H 0.1705 0.82235 0.26164 0.0
S1090 S 0.05185 0.74315 0.38575 0.0
N1091 N 0.08469 0.75422 0.42649 0.0
N1092 N 0.06463 0.75943 0.31844 0.0
C1093 C 0.09714 0.77499 0.32683 0.0
C1094 C 0.10807 0.77224 0.38568 0.0
C1095 C 0.34873 0.22099 0.63799 0.0
C1096 C 0.35677 0.19972 0.60915 0.0
C1097 C 0.33362 0.21357 0.69501 0.0
C1098 C 0.32472 0.18397 0.72366 0.0
H1099 H 0.35467 0.24372 0.61681 0.0
H1100 H 0.32865 0.23094 0.71662 0.0
S1101 S 0.33949 0.11968 0.66589 0.0
N1102 N 0.3547 0.14798 0.61342 0.0
N1103 N 0.32495 0.13333 0.7186 0.0
C1104 C 0.33203 0.16229 0.69454 0.0
C1105 C 0.34838 0.17033 0.63775 0.0
C1106 C 0.77226 0.10121 0.62667 0.0
C1107 C 0.7823 0.13338 0.6105 0.0
C1108 C 0.77741 0.09327 0.68513 0.0
C1109 C 0.7937 0.11728 0.72926 0.0
H1110 H 0.76006 0.08194 0.59398 0.0
H1111 H 0.76868 0.06811 0.69571 0.0
S1112 S 0.82599 0.20541 0.70891 0.0
N1113 N 0.80962 0.18944 0.64304 0.0
N1114 N 0.82024 0.17482 0.75194 0.0
C1115 C 0.80437 0.14964 0.71319 0.0
C1116 C 0.7984 0.15759 0.65416 0.0
C1117 C 0.87771 0.64741 0.71216 0.0
C1118 C 0.88305 0.67861 0.72511 0.0
C1119 C 0.87053 0.63461 0.65356 0.0
C1120 C 0.86825 0.65239 0.60525 0.0
H1121 H 0.87894 0.63253 0.74773 0.0
H1122 H 0.86673 0.61054 0.64626 0.0
S1123 S 0.87936 0.73514 0.61526 0.0
N1124 N 0.88536 0.72693 0.6848 0.0
N1125 N 0.8715 0.703 0.57486 0.0
C1126 C 0.87363 0.68376 0.61756 0.0
C1127 C 0.88119 0.69685 0.67731 0.0
C1128 C 0.99194 0.53486 0.03819 0.0
C1129 C 0.98236 0.50503 0.06644 0.0
C1130 C 0.00732 0.54229 0.98146 0.0
C1131 C 0.01498 0.52077 0.95252 0.0
H1132 H 0.98726 0.55242 0.05986 0.0
H1133 H 0.01366 0.56518 0.96049 0.0
S1134 S 0.9959 0.44002 0.00832 0.0
N1135 N 0.98158 0.45391 0.06102 0.0
N1136 N 0.0118 0.46851 0.95625 0.0
C1137 C 0.00595 0.49114 0.98076 0.0
C1138 C 0.98934 0.48312 0.0373 0.0
C1139 C 0.50783 0.49319 0.01339 0.0
C1140 C 0.48408 0.47068 0.0528 0.0
C1141 C 0.49948 0.50074 0.95729 0.0
C1142 C 0.46714 0.48586 0.93813 0.0
H1143 H 0.53303 0.50577 0.02659 0.0
H1144 H 0.5185 0.51836 0.92862 0.0
S1145 S 0.39588 0.42402 0.02186 0.0
N1146 N 0.4267 0.43285 0.06709 0.0
N1147 N 0.41139 0.44671 0.96116 0.0
C1148 C 0.44323 0.46281 0.97604 0.0
C1149 C 0.4516 0.45535 0.03352 0.0
C1150 C 0.55617 0.02165 0.01966 0.0
C1151 C 0.53871 1.00112 0.0678 0.0
C1152 C 0.55049 0.01068 0.95968 0.0
C1153 C 0.52706 0.97862 0.94473 0.0
H1154 H 0.57432 0.04659 0.02813 0.0
H1155 H 0.56462 0.02774 0.92468 0.0
S1156 S 0.47438 0.91487 0.05354 0.0
N1157 N 0.49667 0.94684 0.096 0.0
N1158 N 0.48628 0.92639 0.98348 0.0
C1159 C 0.50965 0.95764 0.99235 0.0
C1160 C 0.51536 0.96884 0.05365 0.0
C1161 C 0.20364 0.33797 0.88168 0.0
C1162 C 0.17208 0.31732 0.90305 0.0
C1163 C 0.20893 0.35226 0.82484 0.0
C1164 C 0.18291 0.34695 0.78812 0.0
H1165 H 0.2245 0.3425 0.90829 0.0
H1166 H 0.23352 0.36703 0.80893 0.0
S1167 S 0.09588 0.29594 0.82246 0.0
N1168 N 0.11442 0.29279 0.88281 0.0
N1169 N 0.12476 0.32035 0.77573 0.0
C1170 C 0.15132 0.32709 0.80887 0.0
C1171 C 0.1458 0.31205 0.86651 0.0
C1172 C 0.66822 0.82233 0.78769 0.0
C1173 C 0.66163 0.8451 0.76097 0.0
C1174 C 0.68318 0.82813 0.84433 0.0
C1175 C 0.69103 0.85641 0.87652 0.0
H1176 H 0.66187 0.79995 0.76455 0.0
H1177 H 0.68781 0.81005 0.86377 0.0
S1178 S 0.67917 0.92367 0.82625 0.0
N1179 N 0.66492 0.89734 0.77024 0.0
N1180 N 0.69187 0.90764 0.87775 0.0
C1181 C 0.6847 0.87939 0.85028 0.0
C1182 C 0.67031 0.8739 0.79209 0.0
C1183 C 0.17668 0.85178 0.86649 0.0
C1184 C 0.1508 0.82795 0.90036 0.0
C1185 C 0.18452 0.8445 0.80975 0.0
C1186 C 0.16596 0.81354 0.78467 0.0
H1187 H 0.19102 0.87608 0.88411 0.0
H1188 H 0.20454 0.86335 0.78467 0.0
S1189 S 0.09579 0.7429 0.8546 0.0
N1190 N 0.10735 0.77201 0.90514 0.0
N1191 N 0.12078 0.7591 0.79715 0.0
C1192 C 0.14003 0.78967 0.81787 0.0
C1193 C 0.13279 0.79668 0.87619 0.0
C1194 C 0.35267 0.21182 0.19621 0.0
C1195 C 0.36209 0.19135 0.22377 0.0
C1196 C 0.3394 0.20528 0.13813 0.0
C1197 C 0.33436 0.17762 0.10673 0.0
H1198 H 0.35581 0.23314 0.21952 0.0
H1199 H 0.33228 0.2215 0.11828 0.0
S1200 S 0.35493 0.11656 0.15904 0.0
N1201 N 0.36605 0.14277 0.21516 0.0
N1202 N 0.34001 0.12989 0.10645 0.0
C1203 C 0.34362 0.15698 0.13371 0.0
C1204 C 0.35785 0.16403 0.1922 0.0
C1205 C 0.85 0.17082 0.14604 0.0
C1206 C 0.8275 0.14497 0.11038 0.0
C1207 C 0.84175 0.17608 0.20377 0.0
C1208 C 0.81112 0.15509 0.22789 0.0
H1209 H 0.87399 0.18726 0.12898 0.0
H1210 H 0.85955 0.19631 0.2301 0.0
S1211 S 0.74362 0.08409 0.15315 0.0
N1212 N 0.77314 0.09857 0.10306 0.0
N1213 N 0.75811 0.10801 0.21259 0.0
C1214 C 0.78847 0.12917 0.19303 0.0
C1215 C 0.79654 0.12423 0.13383 0.0
C1216 C 0.81962 0.65491 0.13009 0.0
C1217 C 0.85067 0.66823 0.1052 0.0
C1218 C 0.8131 0.6408 0.18752 0.0
C1219 C 0.83774 0.6405 0.22164 0.0
H1220 H 0.80032 0.65508 0.10478 0.0
H1221 H 0.78898 0.63086 0.20591 0.0
S1222 S 0.92317 0.67305 0.17533 0.0
N1223 N 0.90601 0.6803 0.11752 0.0
N1224 N 0.89429 0.65483 0.22596 0.0
C1225 C 0.8689 0.65399 0.19677 0.0
C1226 C 0.87525 0.66764 0.13826 0.0
C1227 C 0.99529 0.47813 0.48069 0.0
C1228 C 0.98721 0.49923 0.45167 0.0
C1229 C 0.01037 0.48597 0.53736 0.0
C1230 C 0.01678 0.51459 0.56695 0.0
H1231 H 0.99037 0.45578 0.45907 0.0
H1232 H 0.01648 0.46933 0.55865 0.0
S1233 S 0.99961 0.5773 0.50996 0.0
N1234 N 0.98668 0.54973 0.45608 0.0
N1235 N 0.01396 0.5639 0.56344 0.0
C1236 C 0.00846 0.5356 0.53854 0.0
C1237 C 0.99391 0.52805 0.48051 0.0
C1238 C 0.45733 0.47056 0.52491 0.0
C1239 C 0.47634 0.50081 0.55255 0.0
C1240 C 0.46492 0.46438 0.46733 0.0
C1241 C 0.49237 0.48788 0.43666 0.0
H1242 H 0.43634 0.45164 0.54777 0.0
H1243 H 0.44964 0.44083 0.44728 0.0
S1244 S 0.54993 0.57074 0.4897 0.0
N1245 N 0.52332 0.55462 0.54492 0.0
N1246 N 0.53837 0.54248 0.43727 0.0
C1247 C 0.51163 0.51814 0.46382 0.0
C1248 C 0.50339 0.52476 0.52173 0.0
C1249 C 0.48695 1.00202 0.53054 0.0
C1250 C 0.51176 1.00101 0.563 0.0
C1251 C 0.49261 0.01597 0.47306 0.0
C1252 C 0.52324 0.02934 0.44658 0.0
H1253 H 0.4628 0.99133 0.54904 0.0
H1254 H 0.47259 0.01481 0.44803 0.0
S1255 S 0.59657 0.03398 0.51233 0.0
N1256 N 0.56848 0.01576 0.56446 0.0
N1257 N 0.5788 0.0418 0.45622 0.0
C1258 C 0.5485 0.02963 0.47901 0.0
C1259 C 0.54287 0.01558 0.53748 0.0
C1260 C 0.23981 0.24025 0.06974 0.0
C1261 C 0.22995 0.25602 0.02896 0.0
C1262 C 0.25487 0.22326 0.04911 0.0
C1263 C 0.26092 0.2218 0.98712 0.0
H1264 H 0.23399 0.23926 0.11724 0.0
H1265 H 0.26086 0.21025 0.08184 0.0
S1266 S 0.24176 0.26137 0.86301 0.0
N1267 N 0.22864 0.27072 0.92449 0.0
N1268 N 0.25763 0.23944 0.88593 0.0
C1269 C 0.25291 0.23916 0.94645 0.0
C1270 C 0.23715 0.25603 0.96735 0.0
C1271 C 0.7761 0.00954 0.93533 0.0
C1272 C 0.7884 0.03385 0.97942 0.0
C1273 C 0.75993 0.97681 0.95196 0.0
C1274 C 0.75471 0.96728 0.01313 0.0
H1275 H 0.78078 0.0158 0.88797 0.0
H1276 H 0.75263 0.9588 0.91666 0.0
S1277 S 0.77901 0.02184 0.14537 0.0
N1278 N 0.79221 0.04636 0.0866 0.0
N1279 N 0.76094 0.98481 0.11746 0.0
C1280 C 0.76487 0.99134 0.05739 0.0
C1281 C 0.78199 0.02467 0.04058 0.0
C1282 C 0.97547 0.74886 0.0464 0.0
C1283 C 0.96744 0.74144 0.98485 0.0
C1284 C 0.00782 0.76573 0.06592 0.0
C1285 C 0.03325 0.77646 0.02431 0.0
H1286 H 0.95659 0.74246 0.07957 0.0
H1287 H 0.01291 0.77221 0.11315 0.0
S1288 S 0.02532 0.76261 0.85867 0.0
N1289 N 0.98766 0.74483 0.88316 0.0
N1290 N 0.0483 0.77761 0.91918 0.0
C1291 C 0.02551 0.76827 0.96302 0.0
C1292 C 0.99265 0.75045 0.94343 0.0
C1293 C 0.76924 0.74657 0.03189 0.0
C1294 C 0.79491 0.75452 0.99127 0.0
C1295 C 0.75369 0.76489 0.03495 0.0
C1296 C 0.76376 0.79223 0.99841 0.0
H1297 H 0.76195 0.72679 0.06341 0.0
H1298 H 0.73495 0.75868 0.06838 0.0
S1299 S 0.82659 0.82116 0.87921 0.0
N1300 N 0.82695 0.7897 0.90895 0.0
N1301 N 0.79843 0.82453 0.91614 0.0
C1302 C 0.78797 0.79936 0.95524 0.0
C1303 C 0.80332 0.78034 0.95115 0.0
C1304 C 0.23145 0.98257 0.05362 0.0
C1305 C 0.20415 0.96469 0.01713 0.0
C1306 C 0.24959 0.01646 0.04943 0.0
C1307 C 0.24155 0.03361 0.00764 0.0
H1308 H 0.23788 0.97049 0.0876 0.0
H1309 H 0.26945 0.0294 0.08066 0.0
S1310 S 0.17479 0.99705 0.89581 0.0
N1311 N 0.17172 0.96598 0.93397 0.0
N1312 N 0.20608 0.02935 0.925 0.0
C1313 C 0.21561 0.01561 0.968 0.0
C1314 C 0.1968 0.98124 0.97314 0.0
C1315 C 0.99001 0.22916 0.06415 0.0
C1316 C 0.97448 0.20524 0.01923 0.0
C1317 C 0.02385 0.24646 0.06992 0.0
C1318 C 0.0433 0.24002 0.03164 0.0
H1319 H 0.97585 0.23379 0.09656 0.0
H1320 H 0.03473 0.26378 0.10631 0.0
S1321 S 0.0156 0.18271 0.90291 0.0
N1322 N 0.98198 0.17841 0.93246 0.0
N1323 N 0.04531 0.2105 0.94417 0.0
C1324 C 0.02839 0.21751 0.98474 0.0
C1325 C 0.99405 0.20028 0.97819 0.0
C1326 C 0.90399 0.57271 0.40374 0.0
C1327 C 0.89008 0.58363 0.3609 0.0
C1328 C 0.91983 0.55606 0.3855 0.0
C1329 C 0.923 0.55058 0.3239 0.0
H1330 H 0.90066 0.57502 0.45148 0.0
H1331 H 0.92835 0.54607 0.41998 0.0
S1332 S 0.89294 0.57676 0.19433 0.0
N1333 N 0.88187 0.58933 0.25435 0.0
N1334 N 0.91264 0.55912 0.22039 0.0
C1335 C 0.91111 0.56331 0.28072 0.0
C1336 C 0.89434 0.57954 0.29922 0.0
C1337 C 0.44586 0.34572 0.27435 0.0
C1338 C 0.45535 0.37098 0.31605 0.0
C1339 C 0.43185 0.31352 0.29394 0.0
C1340 C 0.42617 0.30541 0.35572 0.0
H1341 H 0.45087 0.351 0.22674 0.0
H1342 H 0.42608 0.29484 0.26052 0.0
S1343 S 0.44413 0.36263 0.48218 0.0
N1344 N 0.45652 0.38574 0.42144 0.0
N1345 N 0.42932 0.32514 0.45784 0.0
C1346 C 0.43387 0.33028 0.39743 0.0
C1347 C 0.44875 0.36311 0.37766 0.0
C1348 C 0.65117 0.11066 0.28348 0.0
C1349 C 0.63029 0.07767 0.29507 0.0
C1350 C 0.68229 0.1274 0.30772 0.0
C1351 C 0.69446 0.11212 0.34522 0.0
H1352 H 0.64312 0.12413 0.25656 0.0
H1353 H 0.69666 0.1529 0.29735 0.0
S1354 S 0.65075 0.02494 0.38531 0.0
N1355 N 0.62488 0.02951 0.343 0.0
N1356 N 0.6835 0.061 0.38945 0.0
C1357 C 0.6744 0.07867 0.35531 0.0
C1358 C 0.64245 0.06145 0.32986 0.0
C1359 C 0.46853 0.11922 0.29034 0.0
C1360 C 0.45726 0.08845 0.3161 0.0
C1361 C 0.45497 0.13829 0.30544 0.0
C1362 C 0.42889 0.12724 0.34575 0.0
H1363 H 0.48875 0.12932 0.25945 0.0
H1364 H 0.46515 0.16206 0.28533 0.0
S1365 S 0.38737 0.04727 0.42066 0.0
N1366 N 0.41653 0.04694 0.38119 0.0
N1367 N 0.39031 0.08267 0.40751 0.0
C1368 C 0.41583 0.09585 0.36904 0.0
C1369 C 0.43015 0.07649 0.35469 0.0
C1370 C 0.89645 0.3106 0.29685 0.0
C1371 C 0.87178 0.29457 0.34021 0.0
C1372 C 0.91394 0.3445 0.29274 0.0
C1373 C 0.90693 0.36352 0.33108 0.0
H1374 H 0.90134 0.2968 0.26402 0.0
H1375 H 0.93172 0.35576 0.25724 0.0
S1376 S 0.8481 0.33434 0.45728 0.0
N1377 N 0.84412 0.30105 0.42663 0.0
N1378 N 0.87639 0.36452 0.41774 0.0
C1379 C 0.88387 0.34808 0.37689 0.0
C1380 C 0.86651 0.31365 0.38191 0.0
C1381 C 0.65506 0.57022 0.38105 0.0
C1382 C 0.63832 0.54518 0.33859 0.0
C1383 C 0.68885 0.58568 0.38716 0.0
C1384 C 0.707 0.57615 0.35191 0.0
H1385 H 0.64182 0.57711 0.4115 0.0
H1386 H 0.70061 0.60398 0.4217 0.0
S1387 S 0.67605 0.51477 0.22988 0.0
N1388 N 0.64351 0.51414 0.2566 0.0
N1389 N 0.70664 0.54243 0.26967 0.0
C1390 C 0.69097 0.55247 0.3073 0.0
C1391 C 0.65674 0.53724 0.30009 0.0
C1392 C 0.5694 0.89822 0.60269 0.0
C1393 C 0.58248 0.88592 0.64463 0.0
C1394 C 0.55335 0.91452 0.62199 0.0
C1395 C 0.5506 0.91988 0.68382 0.0
H1396 H 0.57028 0.89397 0.55487 0.0
H1397 H 0.54256 0.92258 0.58823 0.0
S1398 S 0.58307 0.89463 0.81125 0.0
N1399 N 0.59296 0.88143 0.75055 0.0
N1400 N 0.5638 0.91298 0.78647 0.0
C1401 C 0.56497 0.90908 0.72595 0.0
C1402 C 0.58061 0.89181 0.70642 0.0
C1403 C 0.09609 0.67107 0.62738 0.0
C1404 C 0.11642 0.69545 0.668 0.0
C1405 C 0.07943 0.63843 0.64511 0.0
C1406 C 0.08157 0.62918 0.70454 0.0
H1407 H 0.09452 0.677 0.58078 0.0
H1408 H 0.06576 0.62016 0.61149 0.0
S1409 S 0.12947 0.68346 0.82932 0.0
N1410 N 0.13644 0.70777 0.77136 0.0
N1411 N 0.10418 0.64672 0.80436 0.0
C1412 C 0.10025 0.65329 0.74632 0.0
C1413 C 0.11788 0.68636 0.72811 0.0
C1414 C 0.3369 0.4319 0.73009 0.0
C1415 C 0.36166 0.44395 0.68692 0.0
C1416 C 0.30435 0.41426 0.7123 0.0
C1417 C 0.29555 0.40747 0.65098 0.0
H1418 H 0.34261 0.43789 0.77735 0.0
H1419 H 0.28583 0.40692 0.74661 0.0
S1420 S 0.35161 0.43159 0.52123 0.0
N1421 N 0.37546 0.44655 0.58071 0.0
N1422 N 0.31429 0.41262 0.54769 0.0
C1423 C 0.32015 0.41771 0.60785 0.0
C1424 C 0.35323 0.43621 0.62578 0.0
C1425 C 0.09556 0.40689 0.69873 0.0
C1426 C 0.12063 0.41701 0.65575 0.0
C1427 C 0.08079 0.42542 0.71105 0.0
C1428 C 0.09085 0.45491 0.68141 0.0
H1429 H 0.08812 0.38515 0.72488 0.0
H1430 H 0.06235 0.4173 0.74565 0.0
S1431 S 0.15116 0.48965 0.55804 0.0
N1432 N 0.15157 0.45662 0.57815 0.0
N1433 N 0.12426 0.49136 0.60215 0.0
C1434 C 0.1144 0.46433 0.63604 0.0
C1435 C 0.12914 0.44541 0.62295 0.0
C1436 C 0.52161 0.64928 0.64388 0.0
C1437 C 0.53274 0.63235 0.67925 0.0
C1438 C 0.54034 0.68287 0.63567 0.0
C1439 C 0.57054 0.70101 0.6641 0.0
H1440 H 0.498 0.63649 0.62281 0.0
H1441 H 0.53025 0.69484 0.60955 0.0
S1442 S 0.6117 0.6679 0.75752 0.0
N1443 N 0.57698 0.63583 0.73873 0.0
N1444 N 0.61164 0.69914 0.72582 0.0
C1445 C 0.58248 0.68416 0.69761 0.0
C1446 C 0.56374 0.64981 0.70458 0.0
C1447 C 0.31578 0.86378 0.68834 0.0
C1448 C 0.29859 0.87371 0.65079 0.0
C1449 C 0.34949 0.88237 0.69444 0.0
C1450 C 0.36748 0.91123 0.66181 0.0
H1451 H 0.30309 0.84117 0.71276 0.0
H1452 H 0.36161 0.87309 0.72234 0.0
S1453 S 0.33373 0.94915 0.56121 0.0
N1454 N 0.3017 0.91555 0.58456 0.0
N1455 N 0.36523 0.94996 0.59371 0.0
C1456 C 0.35041 0.9221 0.62605 0.0
C1457 C 0.31594 0.9035 0.62111 0.0
loop_
_geom_bond_atom_site_label_1
_geom_bond_atom_site_label_2
_geom_bond_distance
_geom_bond_site_symmetry_2
_ccdc_geom_bond_type
Co0 O2 2.143 . S
Co0 O8 2.074 1_554 S
Co0 O11 2.093 . S
Co0 O24 2.097 . S
Co0 N41 2.151 . S
Co0 N49 2.214 . S
Co1 O2 2.160 . S
Co1 O7 2.058 1_554 S
Co1 O17 2.057 . S
Co1 O32 2.037 . S
Co1 N36 2.145 1_554 S
Co1 N57 2.257 . S
O2 Co0 2.143 . S
O2 Co1 2.160 . S
C3 O4 1.278 . S
C3 O11 1.224 . S
O4 C3 1.278 . S
C5 O6 1.245 . S
C5 O17 1.232 . S
O6 C5 1.245 . S
O7 Co1 2.058 1_556 S
O7 C33 1.269 . S
O8 Co0 2.074 1_556 S
O8 C33 1.257 . S
H9 C34 0.930 . S
H10 C40 0.930 . S
O11 Co0 2.093 . S
O11 C3 1.224 . S
H12 C44 0.929 . S
H13 C46 0.930 . S
H14 C47 0.930 . S
H15 C45 0.929 . S
H16 C48 0.928 . S
O17 Co1 2.057 . S
O17 C5 1.232 . S
H18 C37 0.929 . S
H19 C38 0.929 . S
H20 C50 0.931 1_556 S
H21 C42 0.929 . S
H22 C51 0.930 . S
H23 C43 0.931 . S
O24 Co0 2.097 . S
O24 C52 1.214 . S
H25 C53 0.929 . S
H26 C54 0.929 . S
H27 C55 0.930 . S
H28 C56 0.929 . S
H29 C58 0.930 . S
H30 C35 0.930 . S
H31 C39 0.930 . S
O32 Co1 2.037 . S
O32 C52 1.234 . S
C33 O7 1.269 . S
C33 O8 1.257 . S
C34 H9 0.930 . S
C34 C37 1.388 . S
C34 C39 1.418 . S
C35 H30 0.930 . S
C35 C38 1.404 . S
C35 C39 1.353 . S
N36 Co1 2.145 1_556 S
N36 C37 1.397 . S
N36 C38 1.334 . S
C37 H18 0.929 . S
C37 C34 1.388 . S
C37 N36 1.397 . S
C38 H19 0.929 . S
C38 C35 1.404 . S
C38 N36 1.334 . S
C39 H31 0.930 . S
C39 C34 1.418 . S
C39 C35 1.353 . S
C40 H10 0.930 . S
C40 N41 1.330 . S
C40 C42 1.446 . S
N41 Co0 2.151 . S
N41 C40 1.330 . S
N41 C45 1.418 . S
C42 H21 0.929 . S
C42 C40 1.446 . S
C42 C43 1.332 . S
C43 H23 0.931 . S
C43 C42 1.332 . S
C43 C44 1.267 . S
C44 H12 0.929 . S
C44 C43 1.267 . S
C44 C45 1.251 . S
C45 H15 0.929 . S
C45 N41 1.418 . S
C45 C44 1.251 . S
C46 H13 0.930 . S
C46 C48 1.406 . S
C46 C51 1.261 . S
C47 H14 0.930 . S
C47 N49 1.325 . S
C47 C50 1.357 . S
C48 H16 0.928 . S
C48 C46 1.406 . S
C48 N49 1.261 . S
N49 Co0 2.214 . S
N49 C47 1.325 . S
N49 C48 1.261 . S
C50 H20 0.931 1_554 S
C50 C47 1.357 . S
C50 C51 1.312 . S
C51 H22 0.930 . S
C51 C46 1.261 . S
C51 C50 1.312 . S
C52 O24 1.214 . S
C52 O32 1.234 . S
C53 H25 0.929 . S
C53 C56 1.391 . S
C53 C58 1.391 . S
C54 H26 0.929 . S
C54 C55 1.390 . S
C54 N57 1.391 . S
C55 H27 0.930 . S
C55 C54 1.390 . S
C55 C56 1.392 . S
C56 H28 0.929 . S
C56 C53 1.391 . S
C56 C55 1.392 . S
N57 Co1 2.257 . S
N57 C54 1.391 . S
N57 C58 1.388 . S
C58 H29 0.930 . S
C58 C53 1.391 . S
C58 N57 1.388 . S
Co59 O61 2.143 1_556 S
Co59 O67 2.074 . S
Co59 O70 2.093 . S
Co59 O83 2.097 . S
Co59 N100 2.151 1_556 S
Co59 N108 2.214 . S
Co60 O61 2.160 . S
Co60 O66 2.058 . S
Co60 O76 2.057 . S
Co60 O91 2.037 1_554 S
Co60 N95 2.145 . S
Co60 N116 2.257 . S
O61 Co59 2.143 1_554 S
O61 Co60 2.160 . S
C62 O63 1.278 . S
C62 O70 1.224 1_554 S
O63 C62 1.278 . S
C64 O65 1.245 . S
C64 O76 1.232 . S
O65 C64 1.245 . S
O66 Co60 2.058 . S
O66 C92 1.269 . S
O67 Co59 2.074 . S
O67 C92 1.251 1_556 S
H68 C93 0.930 1_556 S
H69 C99 0.930 . S
O70 Co59 2.093 . S
O70 C62 1.224 1_556 S
H71 C103 0.929 . S
H72 C105 0.930 . S
H73 C106 0.930 . S
H74 C104 0.929 . S
H75 C107 0.928 . S
O76 Co60 2.057 . S
O76 C64 1.232 . S
H77 C96 0.929 1_556 S
H78 C97 0.929 . S
H79 C109 0.931 . S
H80 C101 0.929 . S
H81 C110 0.930 . S
H82 C102 0.931 . S
O83 Co59 2.097 . S
O83 C111 1.214 . S
H84 C112 0.929 . S
H85 C113 0.929 1_556 S
H86 C114 0.930 1_556 S
H87 C115 0.929 . S
H88 C117 0.930 . S
H89 C94 0.930 . S
H90 C98 0.930 . S
O91 Co60 2.037 1_556 S
O91 C111 1.234 . S
C92 O66 1.269 . S
C92 O67 1.251 1_554 S
C93 H68 0.930 1_554 S
C93 C96 1.388 . S
C93 C98 1.418 . S
C94 H89 0.930 . S
C94 C97 1.404 . S
C94 C98 1.353 . S
N95 Co60 2.145 . S
N95 C96 1.397 . S
N95 C97 1.334 . S
C96 H77 0.929 1_554 S
C96 C93 1.388 . S
C96 N95 1.397 . S
C97 H78 0.929 . S
C97 C94 1.404 . S
C97 N95 1.334 . S
C98 H90 0.930 . S
C98 C93 1.418 . S
C98 C94 1.353 . S
C99 H69 0.930 . S
C99 N100 1.330 . S
C99 C101 1.446 . S
N100 Co59 2.151 1_554 S
N100 C99 1.330 . S
N100 C104 1.418 . S
C101 H80 0.929 . S
C101 C99 1.446 . S
C101 C102 1.332 . S
C102 H82 0.931 . S
C102 C101 1.332 . S
C102 C103 1.267 . S
C103 H71 0.929 . S
C103 C102 1.267 . S
C103 C104 1.251 . S
C104 H74 0.929 . S
C104 N100 1.418 . S
C104 C103 1.251 . S
C105 H72 0.930 . S
C105 C107 1.406 . S
C105 C110 1.261 . S
C106 H73 0.930 . S
C106 N108 1.325 . S
C106 C109 1.357 . S
C107 H75 0.928 . S
C107 C105 1.406 . S
C107 N108 1.261 . S
N108 Co59 2.214 . S
N108 C106 1.325 . S
N108 C107 1.261 . S
C109 H79 0.931 . S
C109 C106 1.357 . S
C109 C110 1.312 . S
C110 H81 0.930 . S
C110 C105 1.261 . S
C110 C109 1.312 . S
C111 O83 1.214 . S
C111 O91 1.234 . S
C112 H84 0.929 . S
C112 C115 1.391 . S
C112 C117 1.391 . S
C113 H85 0.929 1_554 S
C113 C114 1.390 . S
C113 N116 1.391 . S
C114 H86 0.930 1_554 S
C114 C113 1.390 . S
C114 C115 1.392 . S
C115 H87 0.929 . S
C115 C112 1.391 . S
C115 C114 1.392 . S
N116 Co60 2.257 . S
N116 C113 1.391 . S
N116 C117 1.388 . S
C117 H88 0.930 . S
C117 C112 1.391 . S
C117 N116 1.388 . S
Co118 O120 2.143 1_556 S
Co118 O126 2.074 . S
Co118 O129 2.093 . S
Co118 O142 2.097 . S
Co118 N159 2.151 1_556 S
Co118 N167 2.214 . S
Co119 O120 2.160 . S
Co119 O125 2.058 . S
Co119 O135 2.057 . S
Co119 O150 2.037 1_554 S
Co119 N154 2.145 . S
Co119 N175 2.257 . S
O120 Co118 2.143 1_554 S
O120 Co119 2.160 . S
C121 O122 1.278 . S
C121 O129 1.224 1_554 S
O122 C121 1.278 . S
C123 O124 1.245 . S
C123 O135 1.232 . S
O124 C123 1.245 . S
O125 Co119 2.058 . S
O125 C151 1.269 . S
O126 Co118 2.074 . S
O126 C151 1.249 1_556 S
H127 C152 0.930 1_556 S
H128 C158 0.930 . S
O129 Co118 2.093 . S
O129 C121 1.224 1_556 S
H130 C162 0.929 . S
H131 C164 0.930 . S
H132 C165 0.930 . S
H133 C163 0.929 . S
H134 C166 0.928 . S
O135 Co119 2.057 . S
O135 C123 1.232 . S
H136 C155 0.929 1_556 S
H137 C156 0.929 . S
H138 C168 0.931 . S
H139 C160 0.929 . S
H140 C169 0.930 . S
H141 C161 0.931 . S
O142 Co118 2.097 . S
O142 C170 1.214 . S
H143 C171 0.929 . S
H144 C172 0.929 1_556 S
H145 C173 0.930 1_556 S
H146 C174 0.929 . S
H147 C176 0.930 . S
H148 C153 0.930 . S
H149 C157 0.930 . S
O150 Co119 2.037 1_556 S
O150 C170 1.234 . S
C151 O125 1.269 . S
C151 O126 1.249 1_554 S
C152 H127 0.930 1_554 S
C152 C155 1.388 . S
C152 C157 1.418 . S
C153 H148 0.930 . S
C153 C156 1.404 . S
C153 C157 1.353 . S
N154 Co119 2.145 . S
N154 C155 1.397 . S
N154 C156 1.334 . S
C155 H136 0.929 1_554 S
C155 C152 1.388 . S
C155 N154 1.397 . S
C156 H137 0.929 . S
C156 C153 1.404 . S
C156 N154 1.334 . S
C157 H149 0.930 . S
C157 C152 1.418 . S
C157 C153 1.353 . S
C158 H128 0.930 . S
C158 N159 1.330 . S
C158 C160 1.446 . S
N159 Co118 2.151 1_554 S
N159 C158 1.330 . S
N159 C163 1.418 . S
C160 H139 0.929 . S
C160 C158 1.446 . S
C160 C161 1.332 . S
C161 H141 0.931 . S
C161 C160 1.332 . S
C161 C162 1.267 . S
C162 H130 0.929 . S
C162 C161 1.267 . S
C162 C163 1.251 . S
C163 H133 0.929 . S
C163 N159 1.418 . S
C163 C162 1.251 . S
C164 H131 0.930 . S
C164 C166 1.406 . S
C164 C169 1.261 . S
C165 H132 0.930 . S
C165 N167 1.325 . S
C165 C168 1.357 . S
C166 H134 0.928 . S
C166 C164 1.406 . S
C166 N167 1.261 . S
N167 Co118 2.214 . S
N167 C165 1.325 . S
N167 C166 1.261 . S
C168 H138 0.931 . S
C168 C165 1.357 . S
C168 C169 1.312 . S
C169 H140 0.930 . S
C169 C164 1.261 . S
C169 C168 1.312 . S
C170 O142 1.214 . S
C170 O150 1.234 . S
C171 H143 0.929 . S
C171 C174 1.391 . S
C171 C176 1.391 . S
C172 H144 0.929 1_554 S
C172 C173 1.390 . S
C172 N175 1.391 . S
C173 H145 0.930 1_554 S
C173 C172 1.390 . S
C173 C174 1.392 . S
C174 H146 0.929 . S
C174 C171 1.391 . S
C174 C173 1.392 . S
N175 Co119 2.257 . S
N175 C172 1.391 . S
N175 C176 1.388 . S
C176 H147 0.930 . S
C176 C171 1.391 . S
C176 N175 1.388 . S
Co177 O179 2.143 1_554 S
Co177 O185 2.074 . S
Co177 O188 2.093 . S
Co177 O201 2.097 . S
Co177 N218 2.151 1_554 S
Co177 N226 2.214 . S
Co178 O179 2.160 . S
Co178 O184 2.058 . S
Co178 O194 2.057 . S
Co178 O209 2.037 1_556 S
Co178 N213 2.145 . S
Co178 N234 2.257 . S
O179 Co177 2.143 1_556 S
O179 Co178 2.160 . S
C180 O181 1.278 . S
C180 O188 1.224 1_556 S
O181 C180 1.278 . S
C182 O183 1.245 . S
C182 O194 1.232 . S
O183 C182 1.245 . S
O184 Co178 2.058 . S
O184 C210 1.269 . S
O185 Co177 2.074 . S
O185 C210 1.249 1_554 S
H186 C211 0.930 1_554 S
H187 C217 0.930 . S
O188 Co177 2.093 . S
O188 C180 1.224 1_554 S
H189 C221 0.929 . S
H190 C223 0.930 . S
H191 C224 0.930 . S
H192 C222 0.929 . S
H193 C225 0.928 . S
O194 Co178 2.057 . S
O194 C182 1.232 . S
H195 C214 0.929 1_554 S
H196 C215 0.929 . S
H197 C227 0.931 . S
H198 C219 0.929 . S
H199 C228 0.930 . S
H200 C220 0.931 . S
O201 Co177 2.097 . S
O201 C229 1.214 . S
H202 C230 0.929 . S
H203 C231 0.929 1_554 S
H204 C232 0.930 1_554 S
H205 C233 0.929 . S
H206 C235 0.930 . S
H207 C212 0.930 . S
H208 C216 0.930 . S
O209 Co178 2.037 1_554 S
O209 C229 1.234 . S
C210 O184 1.269 . S
C210 O185 1.249 1_556 S
C211 H186 0.930 1_556 S
C211 C214 1.388 . S
C211 C216 1.418 . S
C212 H207 0.930 . S
C212 C215 1.404 . S
C212 C216 1.353 . S
N213 Co178 2.145 . S
N213 C214 1.397 . S
N213 C215 1.334 . S
C214 H195 0.929 1_556 S
C214 C211 1.388 . S
C214 N213 1.397 . S
C215 H196 0.929 . S
C215 C212 1.404 . S
C215 N213 1.334 . S
C216 H208 0.930 . S
C216 C211 1.418 . S
C216 C212 1.353 . S
C217 H187 0.930 . S
C217 N218 1.330 . S
C217 C219 1.446 . S
N218 Co177 2.151 1_556 S
N218 C217 1.330 . S
N218 C222 1.418 . S
C219 H198 0.929 . S
C219 C217 1.446 . S
C219 C220 1.332 . S
C220 H200 0.931 . S
C220 C219 1.332 . S
C220 C221 1.267 . S
C221 H189 0.929 . S
C221 C220 1.267 . S
C221 C222 1.251 . S
C222 H192 0.929 . S
C222 N218 1.418 . S
C222 C221 1.251 . S
C223 H190 0.930 . S
C223 C225 1.406 . S
C223 C228 1.261 . S
C224 H191 0.930 . S
C224 N226 1.325 . S
C224 C227 1.357 . S
C225 H193 0.928 . S
C225 C223 1.406 . S
C225 N226 1.261 . S
N226 Co177 2.214 . S
N226 C224 1.325 . S
N226 C225 1.261 . S
C227 H197 0.931 . S
C227 C224 1.357 . S
C227 C228 1.312 . S
C228 H199 0.930 . S
C228 C223 1.261 . S
C228 C227 1.312 . S
C229 O201 1.214 . S
C229 O209 1.234 . S
C230 H202 0.929 . S
C230 C233 1.391 . S
C230 C235 1.391 . S
C231 H203 0.929 1_556 S
C231 C232 1.390 . S
C231 N234 1.391 . S
C232 H204 0.930 1_556 S
C232 C231 1.390 . S
C232 C233 1.392 . S
C233 H205 0.929 . S
C233 C230 1.391 . S
C233 C232 1.392 . S
N234 Co178 2.257 . S
N234 C231 1.391 . S
N234 C235 1.388 . S
C235 H206 0.930 . S
C235 C230 1.391 . S
C235 N234 1.388 . S
Co236 O238 2.143 1_554 S
Co236 O244 2.074 . S
Co236 O247 2.093 . S
Co236 O260 2.097 . S
Co236 N277 2.151 1_554 S
Co236 N285 2.214 . S
Co237 O238 2.160 . S
Co237 O243 2.058 . S
Co237 O253 2.057 . S
Co237 O268 2.037 1_556 S
Co237 N272 2.145 . S
Co237 N293 2.257 . S
O238 Co236 2.143 1_556 S
O238 Co237 2.160 . S
C239 O240 1.278 . S
C239 O247 1.224 1_556 S
O240 C239 1.278 . S
C241 O242 1.245 . S
C241 O253 1.232 . S
O242 C241 1.245 . S
O243 Co237 2.058 . S
O243 C269 1.269 . S
O244 Co236 2.074 . S
O244 C269 1.251 1_554 S
H245 C270 0.930 1_554 S
H246 C276 0.930 . S
O247 Co236 2.093 . S
O247 C239 1.224 1_554 S
H248 C280 0.929 . S
H249 C282 0.930 . S
H250 C283 0.930 . S
H251 C281 0.929 . S
H252 C284 0.928 . S
O253 Co237 2.057 . S
O253 C241 1.232 . S
H254 C273 0.929 1_554 S
H255 C274 0.929 . S
H256 C286 0.931 . S
H257 C278 0.929 . S
H258 C287 0.930 . S
H259 C279 0.931 . S
O260 Co236 2.097 . S
O260 C288 1.214 . S
H261 C289 0.929 . S
H262 C290 0.929 1_554 S
H263 C291 0.930 1_554 S
H264 C292 0.929 . S
H265 C294 0.930 . S
H266 C271 0.930 . S
H267 C275 0.930 . S
O268 Co237 2.037 1_554 S
O268 C288 1.234 . S
C269 O243 1.269 . S
C269 O244 1.251 1_556 S
C270 H245 0.930 1_556 S
C270 C273 1.388 . S
C270 C275 1.418 . S
C271 H266 0.930 . S
C271 C274 1.404 . S
C271 C275 1.353 . S
N272 Co237 2.145 . S
N272 C273 1.397 . S
N272 C274 1.334 . S
C273 H254 0.929 1_556 S
C273 C270 1.388 . S
C273 N272 1.397 . S
C274 H255 0.929 . S
C274 C271 1.404 . S
C274 N272 1.334 . S
C275 H267 0.930 . S
C275 C270 1.418 . S
C275 C271 1.353 . S
C276 H246 0.930 . S
C276 N277 1.330 . S
C276 C278 1.446 . S
N277 Co236 2.151 1_556 S
N277 C276 1.330 . S
N277 C281 1.418 . S
C278 H257 0.929 . S
C278 C276 1.446 . S
C278 C279 1.332 . S
C279 H259 0.931 . S
C279 C278 1.332 . S
C279 C280 1.267 . S
C280 H248 0.929 . S
C280 C279 1.267 . S
C280 C281 1.251 . S
C281 H251 0.929 . S
C281 N277 1.418 . S
C281 C280 1.251 . S
C282 H249 0.930 . S
C282 C284 1.406 . S
C282 C287 1.261 . S
C283 H250 0.930 . S
C283 N285 1.325 . S
C283 C286 1.357 . S
C284 H252 0.928 . S
C284 C282 1.406 . S
C284 N285 1.261 . S
N285 Co236 2.214 . S
N285 C283 1.325 . S
N285 C284 1.261 . S
C286 H256 0.931 . S
C286 C283 1.357 . S
C286 C287 1.312 . S
C287 H258 0.930 . S
C287 C282 1.261 . S
C287 C286 1.312 . S
C288 O260 1.214 . S
C288 O268 1.234 . S
C289 H261 0.929 . S
C289 C292 1.391 . S
C289 C294 1.391 . S
C290 H262 0.929 1_556 S
C290 C291 1.390 . S
C290 N293 1.391 . S
C291 H263 0.930 1_556 S
C291 C290 1.390 . S
C291 C292 1.392 . S
C292 H264 0.929 . S
C292 C289 1.391 . S
C292 C291 1.392 . S
N293 Co237 2.257 . S
N293 C290 1.391 . S
N293 C294 1.388 . S
C294 H265 0.930 . S
C294 C289 1.391 . S
C294 N293 1.388 . S
Co295 O297 2.143 . S
Co295 O303 2.074 1_556 S
Co295 O306 2.093 . S
Co295 O319 2.097 . S
Co295 N336 2.151 . S
Co295 N344 2.214 . S
Co296 O297 2.160 . S
Co296 O302 2.058 1_556 S
Co296 O312 2.057 . S
Co296 O327 2.037 . S
Co296 N331 2.145 1_556 S
Co296 N352 2.257 . S
O297 Co295 2.143 . S
O297 Co296 2.160 . S
C298 O299 1.278 . S
C298 O306 1.224 . S
O299 C298 1.278 . S
C300 O301 1.245 . S
C300 O312 1.232 . S
O301 C300 1.245 . S
O302 Co296 2.058 1_554 S
O302 C328 1.269 . S
O303 Co295 2.074 1_554 S
O303 C328 1.257 . S
H304 C329 0.930 . S
H305 C335 0.930 . S
O306 Co295 2.093 . S
O306 C298 1.224 . S
H307 C339 0.929 . S
H308 C341 0.930 . S
H309 C342 0.930 . S
H310 C340 0.929 . S
H311 C343 0.928 . S
O312 Co296 2.057 . S
O312 C300 1.232 . S
H313 C332 0.929 . S
H314 C333 0.929 . S
H315 C345 0.931 1_554 S
H316 C337 0.929 . S
H317 C346 0.930 . S
H318 C338 0.931 . S
O319 Co295 2.097 . S
O319 C347 1.214 . S
H320 C348 0.929 . S
H321 C349 0.929 . S
H322 C350 0.930 . S
H323 C351 0.929 . S
H324 C353 0.930 . S
H325 C330 0.930 . S
H326 C334 0.930 . S
O327 Co296 2.037 . S
O327 C347 1.234 . S
C328 O302 1.269 . S
C328 O303 1.257 . S
C329 H304 0.930 . S
C329 C332 1.388 . S
C329 C334 1.418 . S
C330 H325 0.930 . S
C330 C333 1.404 . S
C330 C334 1.353 . S
N331 Co296 2.145 1_554 S
N331 C332 1.397 . S
N331 C333 1.334 . S
C332 H313 0.929 . S
C332 C329 1.388 . S
C332 N331 1.397 . S
C333 H314 0.929 . S
C333 C330 1.404 . S
C333 N331 1.334 . S
C334 H326 0.930 . S
C334 C329 1.418 . S
C334 C330 1.353 . S
C335 H305 0.930 . S
C335 N336 1.330 . S
C335 C337 1.446 . S
N336 Co295 2.151 . S
N336 C335 1.330 . S
N336 C340 1.418 . S
C337 H316 0.929 . S
C337 C335 1.446 . S
C337 C338 1.332 . S
C338 H318 0.931 . S
C338 C337 1.332 . S
C338 C339 1.267 . S
C339 H307 0.929 . S
C339 C338 1.267 . S
C339 C340 1.251 . S
C340 H310 0.929 . S
C340 N336 1.418 . S
C340 C339 1.251 . S
C341 H308 0.930 . S
C341 C343 1.406 . S
C341 C346 1.261 . S
C342 H309 0.930 . S
C342 N344 1.325 . S
C342 C345 1.357 . S
C343 H311 0.928 . S
C343 C341 1.406 . S
C343 N344 1.261 . S
N344 Co295 2.214 . S
N344 C342 1.325 . S
N344 C343 1.261 . S
C345 H315 0.931 1_556 S
C345 C342 1.357 . S
C345 C346 1.312 . S
C346 H317 0.930 . S
C346 C341 1.261 . S
C346 C345 1.312 . S
C347 O319 1.214 . S
C347 O327 1.234 . S
C348 H320 0.929 . S
C348 C351 1.391 . S
C348 C353 1.391 . S
C349 H321 0.929 . S
C349 C350 1.390 . S
C349 N352 1.391 . S
C350 H322 0.930 . S
C350 C349 1.390 . S
C350 C351 1.392 . S
C351 H323 0.929 . S
C351 C348 1.391 . S
C351 C350 1.392 . S
N352 Co296 2.257 . S
N352 C349 1.391 . S
N352 C353 1.388 . S
C353 H324 0.930 . S
C353 C348 1.391 . S
C353 N352 1.388 . S
Co354 O356 2.143 . S
Co354 O362 2.074 . S
Co354 O365 2.093 . S
Co354 O378 2.097 . S
Co354 N395 2.151 . S
Co354 N403 2.214 . S
Co355 O356 2.160 . S
Co355 O361 2.058 . S
Co355 O371 2.057 . S
Co355 O386 2.037 . S
Co355 N390 2.145 . S
Co355 N411 2.257 . S
O356 Co354 2.143 . S
O356 Co355 2.160 . S
C357 O358 1.278 . S
C357 O365 1.224 . S
O358 C357 1.278 . S
C359 O360 1.245 . S
C359 O371 1.232 . S
O360 C359 1.245 . S
O361 Co355 2.058 . S
O361 C387 1.269 . S
O362 Co354 2.074 . S
O362 C387 1.257 . S
H363 C388 0.930 . S
H364 C394 0.930 . S
O365 Co354 2.093 . S
O365 C357 1.224 . S
H366 C398 0.929 . S
H367 C400 0.930 . S
H368 C401 0.930 . S
H369 C399 0.929 . S
H370 C402 0.928 . S
O371 Co355 2.057 . S
O371 C359 1.232 . S
H372 C391 0.929 . S
H373 C392 0.929 . S
H374 C404 0.931 . S
H375 C396 0.929 . S
H376 C405 0.930 . S
H377 C397 0.931 . S
O378 Co354 2.097 . S
O378 C406 1.214 . S
H379 C407 0.929 . S
H380 C408 0.929 . S
H381 C409 0.930 . S
H382 C410 0.929 . S
H383 C412 0.930 . S
H384 C389 0.930 . S
H385 C393 0.930 . S
O386 Co355 2.037 . S
O386 C406 1.234 . S
C387 O361 1.269 . S
C387 O362 1.257 . S
C388 H363 0.930 . S
C388 C391 1.388 . S
C388 C393 1.418 . S
C389 H384 0.930 . S
C389 C392 1.404 . S
C389 C393 1.353 . S
N390 Co355 2.145 . S
N390 C391 1.397 . S
N390 C392 1.334 . S
C391 H372 0.929 . S
C391 C388 1.388 . S
C391 N390 1.397 . S
C392 H373 0.929 . S
C392 C389 1.404 . S
C392 N390 1.334 . S
C393 H385 0.930 . S
C393 C388 1.418 . S
C393 C389 1.353 . S
C394 H364 0.930 . S
C394 N395 1.330 . S
C394 C396 1.446 . S
N395 Co354 2.151 . S
N395 C394 1.330 . S
N395 C399 1.418 . S
C396 H375 0.929 . S
C396 C394 1.446 . S
C396 C397 1.332 . S
C397 H377 0.931 . S
C397 C396 1.332 . S
C397 C398 1.267 . S
C398 H366 0.929 . S
C398 C397 1.267 . S
C398 C399 1.251 . S
C399 H369 0.929 . S
C399 N395 1.418 . S
C399 C398 1.251 . S
C400 H367 0.930 . S
C400 C402 1.406 . S
C400 C405 1.261 . S
C401 H368 0.930 . S
C401 N403 1.325 . S
C401 C404 1.357 . S
C402 H370 0.928 . S
C402 C400 1.406 . S
C402 N403 1.261 . S
N403 Co354 2.214 . S
N403 C401 1.325 . S
N403 C402 1.261 . S
C404 H374 0.931 . S
C404 C401 1.357 . S
C404 C405 1.312 . S
C405 H376 0.930 . S
C405 C400 1.261 . S
C405 C404 1.312 . S
C406 O378 1.214 . S
C406 O386 1.234 . S
C407 H379 0.929 . S
C407 C410 1.391 . S
C407 C412 1.391 . S
C408 H380 0.929 . S
C408 C409 1.390 . S
C408 N411 1.391 . S
C409 H381 0.930 . S
C409 C408 1.390 . S
C409 C410 1.392 . S
C410 H382 0.929 . S
C410 C407 1.391 . S
C410 C409 1.392 . S
N411 Co355 2.257 . S
N411 C408 1.391 . S
N411 C412 1.388 . S
C412 H383 0.930 . S
C412 C407 1.391 . S
C412 N411 1.388 . S
Co413 O415 2.143 . S
Co413 O421 2.074 . S
Co413 O424 2.093 . S
Co413 O437 2.097 . S
Co413 N454 2.151 . S
Co413 N462 2.214 . S
Co414 O415 2.160 . S
Co414 O420 2.058 . S
Co414 O430 2.057 . S
Co414 O445 2.037 . S
Co414 N449 2.145 . S
Co414 N470 2.257 . S
O415 Co413 2.143 . S
O415 Co414 2.160 . S
C416 O417 1.278 . S
C416 O424 1.224 . S
O417 C416 1.278 . S
C418 O419 1.245 . S
C418 O430 1.232 . S
O419 C418 1.245 . S
O420 Co414 2.058 . S
O420 C446 1.269 . S
O421 Co413 2.074 . S
O421 C446 1.257 . S
H422 C447 0.930 . S
H423 C453 0.930 . S
O424 Co413 2.093 . S
O424 C416 1.224 . S
H425 C457 0.929 . S
H426 C459 0.930 . S
H427 C460 0.930 . S
H428 C458 0.929 . S
H429 C461 0.928 . S
O430 Co414 2.057 . S
O430 C418 1.232 . S
H431 C450 0.929 . S
H432 C451 0.929 . S
H433 C463 0.931 . S
H434 C455 0.929 . S
H435 C464 0.930 . S
H436 C456 0.931 . S
O437 Co413 2.097 . S
O437 C465 1.214 . S
H438 C466 0.929 . S
H439 C467 0.929 . S
H440 C468 0.930 . S
H441 C469 0.929 . S
H442 C471 0.930 . S
H443 C448 0.930 . S
H444 C452 0.930 . S
O445 Co414 2.037 . S
O445 C465 1.234 . S
C446 O420 1.269 . S
C446 O421 1.257 . S
C447 H422 0.930 . S
C447 C450 1.388 . S
C447 C452 1.418 . S
C448 H443 0.930 . S
C448 C451 1.404 . S
C448 C452 1.353 . S
N449 Co414 2.145 . S
N449 C450 1.397 . S
N449 C451 1.334 . S
C450 H431 0.929 . S
C450 C447 1.388 . S
C450 N449 1.397 . S
C451 H432 0.929 . S
C451 C448 1.404 . S
C451 N449 1.334 . S
C452 H444 0.930 . S
C452 C447 1.418 . S
C452 C448 1.353 . S
C453 H423 0.930 . S
C453 N454 1.330 . S
C453 C455 1.446 . S
N454 Co413 2.151 . S
N454 C453 1.330 . S
N454 C458 1.418 . S
C455 H434 0.929 . S
C455 C453 1.446 . S
C455 C456 1.332 . S
C456 H436 0.931 . S
C456 C455 1.332 . S
C456 C457 1.267 . S
C457 H425 0.929 . S
C457 C456 1.267 . S
C457 C458 1.251 . S
C458 H428 0.929 . S
C458 N454 1.418 . S
C458 C457 1.251 . S
C459 H426 0.930 . S
C459 C461 1.406 . S
C459 C464 1.261 . S
C460 H427 0.930 . S
C460 N462 1.325 . S
C460 C463 1.357 . S
C461 H429 0.928 . S
C461 C459 1.406 . S
C461 N462 1.261 . S
N462 Co413 2.214 . S
N462 C460 1.325 . S
N462 C461 1.261 . S
C463 H433 0.931 . S
C463 C460 1.357 . S
C463 C464 1.312 . S
C464 H435 0.930 . S
C464 C459 1.261 . S
C464 C463 1.312 . S
C465 O437 1.214 . S
C465 O445 1.234 . S
C466 H438 0.929 . S
C466 C469 1.391 . S
C466 C471 1.391 . S
C467 H439 0.929 . S
C467 C468 1.390 . S
C467 N470 1.391 . S
C468 H440 0.930 . S
C468 C467 1.390 . S
C468 C469 1.392 . S
C469 H441 0.929 . S
C469 C466 1.391 . S
C469 C468 1.392 . S
N470 Co414 2.257 . S
N470 C467 1.391 . S
N470 C471 1.388 . S
C471 H442 0.930 . S
C471 C466 1.391 . S
C471 N470 1.388 . S
Co472 O474 2.143 . S
Co472 O480 2.074 . S
Co472 O483 2.093 . S
Co472 O496 2.097 . S
Co472 N513 2.151 . S
Co472 N521 2.214 . S
Co473 O474 2.160 . S
Co473 O479 2.058 . S
Co473 O489 2.057 . S
Co473 O504 2.037 . S
Co473 N508 2.145 . S
Co473 N529 2.257 . S
O474 Co472 2.143 . S
O474 Co473 2.160 . S
C475 O476 1.278 . S
C475 O483 1.224 . S
O476 C475 1.278 . S
C477 O478 1.245 . S
C477 O489 1.232 . S
O478 C477 1.245 . S
O479 Co473 2.058 . S
O479 C505 1.269 . S
O480 Co472 2.074 . S
O480 C505 1.257 . S
H481 C506 0.930 . S
H482 C512 0.930 . S
O483 Co472 2.093 . S
O483 C475 1.224 . S
H484 C516 0.929 . S
H485 C518 0.930 . S
H486 C519 0.930 . S
H487 C517 0.929 . S
H488 C520 0.928 . S
O489 Co473 2.057 . S
O489 C477 1.232 . S
H490 C509 0.929 . S
H491 C510 0.929 . S
H492 C522 0.931 . S
H493 C514 0.929 . S
H494 C523 0.930 . S
H495 C515 0.931 . S
O496 Co472 2.097 . S
O496 C524 1.214 . S
H497 C525 0.929 . S
H498 C526 0.929 . S
H499 C527 0.930 . S
H500 C528 0.929 . S
H501 C530 0.930 . S
H502 C507 0.930 . S
H503 C511 0.930 . S
O504 Co473 2.037 . S
O504 C524 1.234 . S
C505 O479 1.269 . S
C505 O480 1.257 . S
C506 H481 0.930 . S
C506 C509 1.388 . S
C506 C511 1.418 . S
C507 H502 0.930 . S
C507 C510 1.404 . S
C507 C511 1.353 . S
N508 Co473 2.145 . S
N508 C509 1.397 . S
N508 C510 1.334 . S
C509 H490 0.929 . S
C509 C506 1.388 . S
C509 N508 1.397 . S
C510 H491 0.929 . S
C510 C507 1.404 . S
C510 N508 1.334 . S
C511 H503 0.930 . S
C511 C506 1.418 . S
C511 C507 1.353 . S
C512 H482 0.930 . S
C512 N513 1.330 . S
C512 C514 1.446 . S
N513 Co472 2.151 . S
N513 C512 1.330 . S
N513 C517 1.418 . S
C514 H493 0.929 . S
C514 C512 1.446 . S
C514 C515 1.332 . S
C515 H495 0.931 . S
C515 C514 1.332 . S
C515 C516 1.267 . S
C516 H484 0.929 . S
C516 C515 1.267 . S
C516 C517 1.251 . S
C517 H487 0.929 . S
C517 N513 1.418 . S
C517 C516 1.251 . S
C518 H485 0.930 . S
C518 C520 1.406 . S
C518 C523 1.261 . S
C519 H486 0.930 . S
C519 N521 1.325 . S
C519 C522 1.357 . S
C520 H488 0.928 . S
C520 C518 1.406 . S
C520 N521 1.261 . S
N521 Co472 2.214 . S
N521 C519 1.325 . S
N521 C520 1.261 . S
C522 H492 0.931 . S
C522 C519 1.357 . S
C522 C523 1.312 . S
C523 H494 0.930 . S
C523 C518 1.261 . S
C523 C522 1.312 . S
C524 O496 1.214 . S
C524 O504 1.234 . S
C525 H497 0.929 . S
C525 C528 1.391 . S
C525 C530 1.391 . S
C526 H498 0.929 . S
C526 C527 1.390 . S
C526 N529 1.391 . S
C527 H499 0.930 . S
C527 C526 1.390 . S
C527 C528 1.392 . S
C528 H500 0.929 . S
C528 C525 1.391 . S
C528 C527 1.392 . S
N529 Co473 2.257 . S
N529 C526 1.391 . S
N529 C530 1.388 . S
C530 H501 0.930 . S
C530 C525 1.391 . S
C530 N529 1.388 . S
Co531 O533 2.143 . S
Co531 O539 2.074 . S
Co531 O542 2.093 . S
Co531 O555 2.097 . S
Co531 N572 2.151 . S
Co531 N580 2.214 . S
Co532 O533 2.160 . S
Co532 O538 2.058 . S
Co532 O548 2.057 . S
Co532 O563 2.037 . S
Co532 N567 2.145 1_655 S
Co532 N588 2.257 1_655 S
O533 Co531 2.143 . S
O533 Co532 2.160 . S
C534 O535 1.278 . S
C534 O542 1.224 . S
O535 C534 1.278 . S
C536 O537 1.245 . S
C536 O548 1.232 . S
O537 C536 1.245 . S
O538 Co532 2.058 . S
O538 C564 1.269 . S
O539 Co531 2.074 . S
O539 C564 1.257 . S
H540 C565 0.930 . S
H541 C571 0.930 . S
O542 Co531 2.093 . S
O542 C534 1.224 . S
H543 C575 0.929 . S
H544 C577 0.930 . S
H545 C578 0.930 . S
H546 C576 0.929 . S
H547 C579 0.928 . S
O548 Co532 2.057 . S
O548 C536 1.232 . S
H549 C568 0.929 . S
H550 C569 0.929 . S
H551 C581 0.931 . S
H552 C573 0.929 . S
H553 C582 0.930 . S
H554 C574 0.931 . S
O555 Co531 2.097 . S
O555 C583 1.214 . S
H556 C584 0.929 . S
H557 C585 0.929 . S
H558 C586 0.930 . S
H559 C587 0.929 . S
H560 C589 0.930 . S
H561 C566 0.930 . S
H562 C570 0.930 . S
O563 Co532 2.037 . S
O563 C583 1.234 . S
C564 O538 1.269 . S
C564 O539 1.257 . S
C565 H540 0.930 . S
C565 C568 1.388 . S
C565 C570 1.418 . S
C566 H561 0.930 . S
C566 C569 1.404 . S
C566 C570 1.353 . S
N567 Co532 2.145 1_455 S
N567 C568 1.397 . S
N567 C569 1.334 . S
C568 H549 0.929 . S
C568 C565 1.388 . S
C568 N567 1.397 . S
C569 H550 0.929 . S
C569 C566 1.404 . S
C569 N567 1.334 . S
C570 H562 0.930 . S
C570 C565 1.418 . S
C570 C566 1.353 . S
C571 H541 0.930 . S
C571 N572 1.330 . S
C571 C573 1.446 . S
N572 Co531 2.151 . S
N572 C571 1.330 . S
N572 C576 1.418 . S
C573 H552 0.929 . S
C573 C571 1.446 . S
C573 C574 1.332 . S
C574 H554 0.931 . S
C574 C573 1.332 . S
C574 C575 1.267 . S
C575 H543 0.929 . S
C575 C574 1.267 . S
C575 C576 1.251 . S
C576 H546 0.929 . S
C576 N572 1.418 . S
C576 C575 1.251 . S
C577 H544 0.930 . S
C577 C579 1.406 . S
C577 C582 1.261 . S
C578 H545 0.930 . S
C578 N580 1.325 . S
C578 C581 1.357 . S
C579 H547 0.928 . S
C579 C577 1.406 . S
C579 N580 1.261 . S
N580 Co531 2.214 . S
N580 C578 1.325 . S
N580 C579 1.261 . S
C581 H551 0.931 . S
C581 C578 1.357 . S
C581 C582 1.312 . S
C582 H553 0.930 . S
C582 C577 1.261 . S
C582 C581 1.312 . S
C583 O555 1.214 . S
C583 O563 1.234 . S
C584 H556 0.929 . S
C584 C587 1.391 . S
C584 C589 1.391 . S
C585 H557 0.929 . S
C585 C586 1.390 . S
C585 N588 1.391 . S
C586 H558 0.930 . S
C586 C585 1.390 . S
C586 C587 1.392 . S
C587 H559 0.929 . S
C587 C584 1.391 . S
C587 C586 1.392 . S
N588 Co532 2.257 1_455 S
N588 C585 1.391 . S
N588 C589 1.388 . S
C589 H560 0.930 . S
C589 C584 1.391 . S
C589 N588 1.388 . S
Co590 O592 2.143 . S
Co590 O598 2.074 . S
Co590 O601 2.093 . S
Co590 O614 2.097 . S
Co590 N631 2.151 . S
Co590 N639 2.214 . S
Co591 O592 2.160 . S
Co591 O597 2.058 . S
Co591 O607 2.057 . S
Co591 O622 2.037 . S
Co591 N626 2.145 . S
Co591 N647 2.257 . S
O592 Co590 2.143 . S
O592 Co591 2.160 . S
C593 O594 1.278 . S
C593 O601 1.224 . S
O594 C593 1.278 . S
C595 O596 1.245 . S
C595 O607 1.232 . S
O596 C595 1.245 . S
O597 Co591 2.058 . S
O597 C623 1.269 . S
O598 Co590 2.074 . S
O598 C623 1.257 . S
H599 C624 0.930 . S
H600 C630 0.930 . S
O601 Co590 2.093 . S
O601 C593 1.224 . S
H602 C634 0.929 . S
H603 C636 0.930 . S
H604 C637 0.930 . S
H605 C635 0.929 . S
H606 C638 0.928 . S
O607 Co591 2.057 . S
O607 C595 1.232 . S
H608 C627 0.929 . S
H609 C628 0.929 . S
H610 C640 0.931 . S
H611 C632 0.929 . S
H612 C641 0.930 . S
H613 C633 0.931 . S
O614 Co590 2.097 . S
O614 C642 1.214 . S
H615 C643 0.929 . S
H616 C644 0.929 . S
H617 C645 0.930 . S
H618 C646 0.929 . S
H619 C648 0.930 . S
H620 C625 0.930 . S
H621 C629 0.930 . S
O622 Co591 2.037 . S
O622 C642 1.234 . S
C623 O597 1.269 . S
C623 O598 1.257 . S
C624 H599 0.930 . S
C624 C627 1.388 . S
C624 C629 1.418 . S
C625 H620 0.930 . S
C625 C628 1.404 . S
C625 C629 1.353 . S
N626 Co591 2.145 . S
N626 C627 1.397 . S
N626 C628 1.334 . S
C627 H608 0.929 . S
C627 C624 1.388 . S
C627 N626 1.397 . S
C628 H609 0.929 . S
C628 C625 1.404 . S
C628 N626 1.334 . S
C629 H621 0.930 . S
C629 C624 1.418 . S
C629 C625 1.353 . S
C630 H600 0.930 . S
C630 N631 1.330 . S
C630 C632 1.446 . S
N631 Co590 2.151 . S
N631 C630 1.330 . S
N631 C635 1.418 . S
C632 H611 0.929 . S
C632 C630 1.446 . S
C632 C633 1.332 . S
C633 H613 0.931 . S
C633 C632 1.332 . S
C633 C634 1.267 . S
C634 H602 0.929 . S
C634 C633 1.267 . S
C634 C635 1.251 . S
C635 H605 0.929 . S
C635 N631 1.418 . S
C635 C634 1.251 . S
C636 H603 0.930 . S
C636 C638 1.406 . S
C636 C641 1.261 . S
C637 H604 0.930 . S
C637 N639 1.325 . S
C637 C640 1.357 . S
C638 H606 0.928 . S
C638 C636 1.406 . S
C638 N639 1.261 . S
N639 Co590 2.214 . S
N639 C637 1.325 . S
N639 C638 1.261 . S
C640 H610 0.931 . S
C640 C637 1.357 . S
C640 C641 1.312 . S
C641 H612 0.930 . S
C641 C636 1.261 . S
C641 C640 1.312 . S
C642 O614 1.214 . S
C642 O622 1.234 . S
C643 H615 0.929 . S
C643 C646 1.391 . S
C643 C648 1.391 . S
C644 H616 0.929 . S
C644 C645 1.390 . S
C644 N647 1.391 . S
C645 H617 0.930 . S
C645 C644 1.390 . S
C645 C646 1.392 . S
C646 H618 0.929 . S
C646 C643 1.391 . S
C646 C645 1.392 . S
N647 Co591 2.257 . S
N647 C644 1.391 . S
N647 C648 1.388 . S
C648 H619 0.930 . S
C648 C643 1.391 . S
C648 N647 1.388 . S
Co649 O651 2.143 1_565 S
Co649 O657 2.074 . S
Co649 O660 2.093 . S
Co649 O673 2.097 1_565 S
Co649 N690 2.151 . S
Co649 N698 2.214 . S
Co650 O651 2.160 . S
Co650 O656 2.058 . S
Co650 O666 2.057 . S
Co650 O681 2.037 . S
Co650 N685 2.145 . S
Co650 N706 2.257 . S
O651 Co649 2.143 1_545 S
O651 Co650 2.160 . S
C652 O653 1.278 . S
C652 O660 1.224 1_545 S
O653 C652 1.278 . S
C654 O655 1.245 . S
C654 O666 1.232 . S
O655 C654 1.245 . S
O656 Co650 2.058 . S
O656 C682 1.269 . S
O657 Co649 2.074 . S
O657 C682 1.257 1_565 S
H658 C683 0.930 . S
H659 C689 0.930 . S
O660 Co649 2.093 . S
O660 C652 1.224 1_565 S
H661 C693 0.929 . S
H662 C695 0.930 . S
H663 C696 0.930 . S
H664 C694 0.929 . S
H665 C697 0.928 . S
O666 Co650 2.057 . S
O666 C654 1.232 . S
H667 C686 0.929 . S
H668 C687 0.929 . S
H669 C699 0.931 . S
H670 C691 0.929 . S
H671 C700 0.930 . S
H672 C692 0.931 . S
O673 Co649 2.097 1_545 S
O673 C701 1.214 . S
H674 C702 0.929 . S
H675 C703 0.929 . S
H676 C704 0.930 . S
H677 C705 0.929 . S
H678 C707 0.930 . S
H679 C684 0.930 . S
H680 C688 0.930 . S
O681 Co650 2.037 . S
O681 C701 1.234 . S
C682 O656 1.269 . S
C682 O657 1.257 1_545 S
C683 H658 0.930 . S
C683 C686 1.388 . S
C683 C688 1.418 . S
C684 H679 0.930 . S
C684 C687 1.404 . S
C684 C688 1.353 . S
N685 Co650 2.145 . S
N685 C686 1.397 . S
N685 C687 1.334 . S
C686 H667 0.929 . S
C686 C683 1.388 . S
C686 N685 1.397 . S
C687 H668 0.929 . S
C687 C684 1.404 . S
C687 N685 1.334 . S
C688 H680 0.930 . S
C688 C683 1.418 . S
C688 C684 1.353 . S
C689 H659 0.930 . S
C689 N690 1.330 . S
C689 C691 1.446 . S
N690 Co649 2.151 . S
N690 C689 1.330 . S
N690 C694 1.418 . S
C691 H670 0.929 . S
C691 C689 1.446 . S
C691 C692 1.332 . S
C692 H672 0.931 . S
C692 C691 1.332 . S
C692 C693 1.267 . S
C693 H661 0.929 . S
C693 C692 1.267 . S
C693 C694 1.251 . S
C694 H664 0.929 . S
C694 N690 1.418 . S
C694 C693 1.251 . S
C695 H662 0.930 . S
C695 C697 1.406 . S
C695 C700 1.261 . S
C696 H663 0.930 . S
C696 N698 1.325 . S
C696 C699 1.357 . S
C697 H665 0.928 . S
C697 C695 1.406 . S
C697 N698 1.261 . S
N698 Co649 2.214 . S
N698 C696 1.325 . S
N698 C697 1.261 . S
C699 H669 0.931 . S
C699 C696 1.357 . S
C699 C700 1.312 . S
C700 H671 0.930 . S
C700 C695 1.261 . S
C700 C699 1.312 . S
C701 O673 1.214 . S
C701 O681 1.234 . S
C702 H674 0.929 . S
C702 C705 1.391 . S
C702 C707 1.391 . S
C703 H675 0.929 . S
C703 C704 1.390 . S
C703 N706 1.391 . S
C704 H676 0.930 . S
C704 C703 1.390 . S
C704 C705 1.392 . S
C705 H677 0.929 . S
C705 C702 1.391 . S
C705 C704 1.392 . S
N706 Co650 2.257 . S
N706 C703 1.391 . S
N706 C707 1.388 . S
C707 H678 0.930 . S
C707 C702 1.391 . S
C707 N706 1.388 . S
Co708 O710 2.143 . S
Co708 O716 2.074 . S
Co708 O719 2.093 . S
Co708 O732 2.097 . S
Co708 N749 2.151 1_565 S
Co708 N757 2.214 1_565 S
Co709 O710 2.160 . S
Co709 O715 2.058 . S
Co709 O725 2.057 . S
Co709 O740 2.037 . S
Co709 N744 2.145 . S
Co709 N765 2.257 . S
O710 Co708 2.143 . S
O710 Co709 2.160 . S
C711 O712 1.278 . S
C711 O719 1.224 . S
O712 C711 1.278 . S
C713 O714 1.245 . S
C713 O725 1.232 . S
O714 C713 1.245 . S
O715 Co709 2.058 . S
O715 C741 1.269 . S
O716 Co708 2.074 . S
O716 C741 1.257 . S
H717 C742 0.930 . S
H718 C748 0.930 . S
O719 Co708 2.093 . S
O719 C711 1.224 . S
H720 C752 0.929 . S
H721 C754 0.930 . S
H722 C755 0.930 . S
H723 C753 0.929 . S
H724 C756 0.928 . S
O725 Co709 2.057 . S
O725 C713 1.232 . S
H726 C745 0.929 . S
H727 C746 0.929 . S
H728 C758 0.931 . S
H729 C750 0.929 . S
H730 C759 0.930 . S
H731 C751 0.931 . S
O732 Co708 2.097 . S
O732 C760 1.214 . S
H733 C761 0.929 . S
H734 C762 0.929 . S
H735 C763 0.930 . S
H736 C764 0.929 . S
H737 C766 0.930 . S
H738 C743 0.930 . S
H739 C747 0.930 . S
O740 Co709 2.037 . S
O740 C760 1.234 . S
C741 O715 1.269 . S
C741 O716 1.257 . S
C742 H717 0.930 . S
C742 C745 1.388 . S
C742 C747 1.418 . S
C743 H738 0.930 . S
C743 C746 1.404 . S
C743 C747 1.353 . S
N744 Co709 2.145 . S
N744 C745 1.397 . S
N744 C746 1.334 . S
C745 H726 0.929 . S
C745 C742 1.388 . S
C745 N744 1.397 . S
C746 H727 0.929 . S
C746 C743 1.404 . S
C746 N744 1.334 . S
C747 H739 0.930 . S
C747 C742 1.418 . S
C747 C743 1.353 . S
C748 H718 0.930 . S
C748 N749 1.330 . S
C748 C750 1.446 . S
N749 Co708 2.151 1_545 S
N749 C748 1.330 . S
N749 C753 1.418 . S
C750 H729 0.929 . S
C750 C748 1.446 . S
C750 C751 1.332 . S
C751 H731 0.931 . S
C751 C750 1.332 . S
C751 C752 1.267 . S
C752 H720 0.929 . S
C752 C751 1.267 . S
C752 C753 1.251 . S
C753 H723 0.929 . S
C753 N749 1.418 . S
C753 C752 1.251 . S
C754 H721 0.930 . S
C754 C756 1.406 . S
C754 C759 1.261 . S
C755 H722 0.930 . S
C755 N757 1.325 . S
C755 C758 1.357 . S
C756 H724 0.928 . S
C756 C754 1.406 . S
C756 N757 1.261 . S
N757 Co708 2.214 1_545 S
N757 C755 1.325 . S
N757 C756 1.261 . S
C758 H728 0.931 . S
C758 C755 1.357 . S
C758 C759 1.312 . S
C759 H730 0.930 . S
C759 C754 1.261 . S
C759 C758 1.312 . S
C760 O732 1.214 . S
C760 O740 1.234 . S
C761 H733 0.929 . S
C761 C764 1.391 . S
C761 C766 1.391 . S
C762 H734 0.929 . S
C762 C763 1.390 . S
C762 N765 1.391 . S
C763 H735 0.930 . S
C763 C762 1.390 . S
C763 C764 1.392 . S
C764 H736 0.929 . S
C764 C761 1.391 . S
C764 C763 1.392 . S
N765 Co709 2.257 . S
N765 C762 1.391 . S
N765 C766 1.388 . S
C766 H737 0.930 . S
C766 C761 1.391 . S
C766 N765 1.388 . S
Co767 O769 2.143 . S
Co767 O775 2.074 . S
Co767 O778 2.093 . S
Co767 O791 2.097 . S
Co767 N808 2.151 . S
Co767 N816 2.214 . S
Co768 O769 2.160 1_655 S
Co768 O774 2.058 1_655 S
Co768 O784 2.057 . S
Co768 O799 2.037 . S
Co768 N803 2.145 . S
Co768 N824 2.257 . S
O769 Co767 2.143 . S
O769 Co768 2.160 1_455 S
C770 O771 1.278 . S
C770 O778 1.224 . S
O771 C770 1.278 . S
C772 O773 1.245 . S
C772 O784 1.232 1_455 S
O773 C772 1.245 . S
O774 Co768 2.058 1_455 S
O774 C800 1.269 . S
O775 Co767 2.074 . S
O775 C800 1.257 . S
H776 C801 0.930 . S
H777 C807 0.930 . S
O778 Co767 2.093 . S
O778 C770 1.224 . S
H779 C811 0.929 . S
H780 C813 0.930 . S
H781 C814 0.930 . S
H782 C812 0.929 . S
H783 C815 0.928 . S
O784 Co768 2.057 . S
O784 C772 1.232 1_655 S
H785 C804 0.929 . S
H786 C805 0.929 . S
H787 C817 0.931 . S
H788 C809 0.929 . S
H789 C818 0.930 . S
H790 C810 0.931 . S
O791 Co767 2.097 . S
O791 C819 1.214 . S
H792 C820 0.929 . S
H793 C821 0.929 . S
H794 C822 0.930 . S
H795 C823 0.929 . S
H796 C825 0.930 . S
H797 C802 0.930 . S
H798 C806 0.930 . S
O799 Co768 2.037 . S
O799 C819 1.234 1_655 S
C800 O774 1.269 . S
C800 O775 1.257 . S
C801 H776 0.930 . S
C801 C804 1.388 . S
C801 C806 1.418 . S
C802 H797 0.930 . S
C802 C805 1.404 . S
C802 C806 1.353 . S
N803 Co768 2.145 . S
N803 C804 1.397 . S
N803 C805 1.334 . S
C804 H785 0.929 . S
C804 C801 1.388 . S
C804 N803 1.397 . S
C805 H786 0.929 . S
C805 C802 1.404 . S
C805 N803 1.334 . S
C806 H798 0.930 . S
C806 C801 1.418 . S
C806 C802 1.353 . S
C807 H777 0.930 . S
C807 N808 1.330 . S
C807 C809 1.446 . S
N808 Co767 2.151 . S
N808 C807 1.330 . S
N808 C812 1.418 . S
C809 H788 0.929 . S
C809 C807 1.446 . S
C809 C810 1.332 . S
C810 H790 0.931 . S
C810 C809 1.332 . S
C810 C811 1.267 . S
C811 H779 0.929 . S
C811 C810 1.267 . S
C811 C812 1.251 . S
C812 H782 0.929 . S
C812 N808 1.418 . S
C812 C811 1.251 . S
C813 H780 0.930 . S
C813 C815 1.406 . S
C813 C818 1.261 . S
C814 H781 0.930 . S
C814 N816 1.325 . S
C814 C817 1.357 . S
C815 H783 0.928 . S
C815 C813 1.406 . S
C815 N816 1.261 . S
N816 Co767 2.214 . S
N816 C814 1.325 . S
N816 C815 1.261 . S
C817 H787 0.931 . S
C817 C814 1.357 . S
C817 C818 1.312 . S
C818 H789 0.930 . S
C818 C813 1.261 . S
C818 C817 1.312 . S
C819 O791 1.214 . S
C819 O799 1.234 1_455 S
C820 H792 0.929 . S
C820 C823 1.391 . S
C820 C825 1.391 . S
C821 H793 0.929 . S
C821 C822 1.390 . S
C821 N824 1.391 . S
C822 H794 0.930 . S
C822 C821 1.390 . S
C822 C823 1.392 . S
C823 H795 0.929 . S
C823 C820 1.391 . S
C823 C822 1.392 . S
N824 Co768 2.257 . S
N824 C821 1.391 . S
N824 C825 1.388 . S
C825 H796 0.930 . S
C825 C820 1.391 . S
C825 N824 1.388 . S
Co826 O828 2.143 . S
Co826 O834 2.074 . S
Co826 O837 2.093 . S
Co826 O850 2.097 . S
Co826 N867 2.151 . S
Co826 N875 2.214 . S
Co827 O828 2.160 . S
Co827 O833 2.058 . S
Co827 O843 2.057 . S
Co827 O858 2.037 . S
Co827 N862 2.145 . S
Co827 N883 2.257 . S
O828 Co826 2.143 . S
O828 Co827 2.160 . S
C829 O830 1.278 . S
C829 O837 1.224 . S
O830 C829 1.278 . S
C831 O832 1.245 . S
C831 O843 1.232 . S
O832 C831 1.245 . S
O833 Co827 2.058 . S
O833 C859 1.269 . S
O834 Co826 2.074 . S
O834 C859 1.257 . S
H835 C860 0.930 . S
H836 C866 0.930 . S
O837 Co826 2.093 . S
O837 C829 1.224 . S
H838 C870 0.929 . S
H839 C872 0.930 . S
H840 C873 0.930 . S
H841 C871 0.929 . S
H842 C874 0.928 . S
O843 Co827 2.057 . S
O843 C831 1.232 . S
H844 C863 0.929 . S
H845 C864 0.929 . S
H846 C876 0.931 . S
H847 C868 0.929 . S
H848 C877 0.930 . S
H849 C869 0.931 . S
O850 Co826 2.097 . S
O850 C878 1.214 . S
H851 C879 0.929 . S
H852 C880 0.929 . S
H853 C881 0.930 . S
H854 C882 0.929 . S
H855 C884 0.930 . S
H856 C861 0.930 . S
H857 C865 0.930 . S
O858 Co827 2.037 . S
O858 C878 1.234 . S
C859 O833 1.269 . S
C859 O834 1.257 . S
C860 H835 0.930 . S
C860 C863 1.388 . S
C860 C865 1.418 . S
C861 H856 0.930 . S
C861 C864 1.404 . S
C861 C865 1.353 . S
N862 Co827 2.145 . S
N862 C863 1.397 . S
N862 C864 1.334 . S
C863 H844 0.929 . S
C863 C860 1.388 . S
C863 N862 1.397 . S
C864 H845 0.929 . S
C864 C861 1.404 . S
C864 N862 1.334 . S
C865 H857 0.930 . S
C865 C860 1.418 . S
C865 C861 1.353 . S
C866 H836 0.930 . S
C866 N867 1.330 . S
C866 C868 1.446 . S
N867 Co826 2.151 . S
N867 C866 1.330 . S
N867 C871 1.418 . S
C868 H847 0.929 . S
C868 C866 1.446 . S
C868 C869 1.332 . S
C869 H849 0.931 . S
C869 C868 1.332 . S
C869 C870 1.267 . S
C870 H838 0.929 . S
C870 C869 1.267 . S
C870 C871 1.251 . S
C871 H841 0.929 . S
C871 N867 1.418 . S
C871 C870 1.251 . S
C872 H839 0.930 . S
C872 C874 1.406 . S
C872 C877 1.261 . S
C873 H840 0.930 . S
C873 N875 1.325 . S
C873 C876 1.357 . S
C874 H842 0.928 . S
C874 C872 1.406 . S
C874 N875 1.261 . S
N875 Co826 2.214 . S
N875 C873 1.325 . S
N875 C874 1.261 . S
C876 H846 0.931 . S
C876 C873 1.357 . S
C876 C877 1.312 . S
C877 H848 0.930 . S
C877 C872 1.261 . S
C877 C876 1.312 . S
C878 O850 1.214 . S
C878 O858 1.234 . S
C879 H851 0.929 . S
C879 C882 1.391 . S
C879 C884 1.391 . S
C880 H852 0.929 . S
C880 C881 1.390 . S
C880 N883 1.391 . S
C881 H853 0.930 . S
C881 C880 1.390 . S
C881 C882 1.392 . S
C882 H854 0.929 . S
C882 C879 1.391 . S
C882 C881 1.392 . S
N883 Co827 2.257 . S
N883 C880 1.391 . S
N883 C884 1.388 . S
C884 H855 0.930 . S
C884 C879 1.391 . S
C884 N883 1.388 . S
Co885 O887 2.143 . S
Co885 O893 2.074 . S
Co885 O896 2.093 . S
Co885 O909 2.097 . S
Co885 N926 2.151 . S
Co885 N934 2.214 . S
Co886 O887 2.160 . S
Co886 O892 2.058 . S
Co886 O902 2.057 . S
Co886 O917 2.037 . S
Co886 N921 2.145 . S
Co886 N942 2.257 . S
O887 Co885 2.143 . S
O887 Co886 2.160 . S
C888 O889 1.278 . S
C888 O896 1.224 . S
O889 C888 1.278 . S
C890 O891 1.245 . S
C890 O902 1.232 . S
O891 C890 1.245 . S
O892 Co886 2.058 . S
O892 C918 1.269 . S
O893 Co885 2.074 . S
O893 C918 1.257 . S
H894 C919 0.930 . S
H895 C925 0.930 . S
O896 Co885 2.093 . S
O896 C888 1.224 . S
H897 C929 0.929 . S
H898 C931 0.930 . S
H899 C932 0.930 . S
H900 C930 0.929 . S
H901 C933 0.928 . S
O902 Co886 2.057 . S
O902 C890 1.232 . S
H903 C922 0.929 . S
H904 C923 0.929 . S
H905 C935 0.931 . S
H906 C927 0.929 . S
H907 C936 0.930 . S
H908 C928 0.931 . S
O909 Co885 2.097 . S
O909 C937 1.214 . S
H910 C938 0.929 . S
H911 C939 0.929 . S
H912 C940 0.930 . S
H913 C941 0.929 . S
H914 C943 0.930 . S
H915 C920 0.930 . S
H916 C924 0.930 . S
O917 Co886 2.037 . S
O917 C937 1.234 . S
C918 O892 1.269 . S
C918 O893 1.257 . S
C919 H894 0.930 . S
C919 C922 1.388 . S
C919 C924 1.418 . S
C920 H915 0.930 . S
C920 C923 1.404 . S
C920 C924 1.353 . S
N921 Co886 2.145 . S
N921 C922 1.397 . S
N921 C923 1.334 . S
C922 H903 0.929 . S
C922 C919 1.388 . S
C922 N921 1.397 . S
C923 H904 0.929 . S
C923 C920 1.404 . S
C923 N921 1.334 . S
C924 H916 0.930 . S
C924 C919 1.418 . S
C924 C920 1.353 . S
C925 H895 0.930 . S
C925 N926 1.330 . S
C925 C927 1.446 . S
N926 Co885 2.151 . S
N926 C925 1.330 . S
N926 C930 1.418 . S
C927 H906 0.929 . S
C927 C925 1.446 . S
C927 C928 1.332 . S
C928 H908 0.931 . S
C928 C927 1.332 . S
C928 C929 1.267 . S
C929 H897 0.929 . S
C929 C928 1.267 . S
C929 C930 1.251 . S
C930 H900 0.929 . S
C930 N926 1.418 . S
C930 C929 1.251 . S
C931 H898 0.930 . S
C931 C933 1.406 . S
C931 C936 1.261 . S
C932 H899 0.930 . S
C932 N934 1.325 . S
C932 C935 1.357 . S
C933 H901 0.928 . S
C933 C931 1.406 . S
C933 N934 1.261 . S
N934 Co885 2.214 . S
N934 C932 1.325 . S
N934 C933 1.261 . S
C935 H905 0.931 . S
C935 C932 1.357 . S
C935 C936 1.312 . S
C936 H907 0.930 . S
C936 C931 1.261 . S
C936 C935 1.312 . S
C937 O909 1.214 . S
C937 O917 1.234 . S
C938 H910 0.929 . S
C938 C941 1.391 . S
C938 C943 1.391 . S
C939 H911 0.929 . S
C939 C940 1.390 . S
C939 N942 1.391 . S
C940 H912 0.930 . S
C940 C939 1.390 . S
C940 C941 1.392 . S
C941 H913 0.929 . S
C941 C938 1.391 . S
C941 C940 1.392 . S
N942 Co886 2.257 . S
N942 C939 1.391 . S
N942 C943 1.388 . S
C943 H914 0.930 . S
C943 C938 1.391 . S
C943 N942 1.388 . S
Co944 O946 2.143 . S
Co944 O952 2.074 . S
Co944 O955 2.093 . S
Co944 O968 2.097 . S
Co944 N985 2.151 . S
Co944 N993 2.214 . S
Co945 O946 2.160 . S
Co945 O951 2.058 . S
Co945 O961 2.057 . S
Co945 O976 2.037 . S
Co945 N980 2.145 . S
Co945 N1001 2.257 . S
O946 Co944 2.143 . S
O946 Co945 2.160 . S
C947 O948 1.278 . S
C947 O955 1.224 . S
O948 C947 1.278 . S
C949 O950 1.245 . S
C949 O961 1.232 . S
O950 C949 1.245 . S
O951 Co945 2.058 . S
O951 C977 1.269 . S
O952 Co944 2.074 . S
O952 C977 1.257 . S
H953 C978 0.930 . S
H954 C984 0.930 . S
O955 Co944 2.093 . S
O955 C947 1.224 . S
H956 C988 0.929 . S
H957 C990 0.930 . S
H958 C991 0.930 . S
H959 C989 0.929 . S
H960 C992 0.928 . S
O961 Co945 2.057 . S
O961 C949 1.232 . S
H962 C981 0.929 . S
H963 C982 0.929 . S
H964 C994 0.931 . S
H965 C986 0.929 . S
H966 C995 0.930 . S
H967 C987 0.931 . S
O968 Co944 2.097 . S
O968 C996 1.214 . S
H969 C997 0.929 . S
H970 C998 0.929 . S
H971 C999 0.930 . S
H972 C1000 0.929 . S
H973 C1002 0.930 . S
H974 C979 0.930 . S
H975 C983 0.930 . S
O976 Co945 2.037 . S
O976 C996 1.234 . S
C977 O951 1.269 . S
C977 O952 1.257 . S
C978 H953 0.930 . S
C978 C981 1.388 . S
C978 C983 1.418 . S
C979 H974 0.930 . S
C979 C982 1.404 . S
C979 C983 1.353 . S
N980 Co945 2.145 . S
N980 C981 1.397 . S
N980 C982 1.334 . S
C981 H962 0.929 . S
C981 C978 1.388 . S
C981 N980 1.397 . S
C982 H963 0.929 . S
C982 C979 1.404 . S
C982 N980 1.334 . S
C983 H975 0.930 . S
C983 C978 1.418 . S
C983 C979 1.353 . S
C984 H954 0.930 . S
C984 N985 1.330 . S
C984 C986 1.446 . S
N985 Co944 2.151 . S
N985 C984 1.330 . S
N985 C989 1.418 . S
C986 H965 0.929 . S
C986 C984 1.446 . S
C986 C987 1.332 . S
C987 H967 0.931 . S
C987 C986 1.332 . S
C987 C988 1.267 . S
C988 H956 0.929 . S
C988 C987 1.267 . S
C988 C989 1.251 . S
C989 H959 0.929 . S
C989 N985 1.418 . S
C989 C988 1.251 . S
C990 H957 0.930 . S
C990 C992 1.406 . S
C990 C995 1.261 . S
C991 H958 0.930 . S
C991 N993 1.325 . S
C991 C994 1.357 . S
C992 H960 0.928 . S
C992 C990 1.406 . S
C992 N993 1.261 . S
N993 Co944 2.214 . S
N993 C991 1.325 . S
N993 C992 1.261 . S
C994 H964 0.931 . S
C994 C991 1.357 . S
C994 C995 1.312 . S
C995 H966 0.930 . S
C995 C990 1.261 . S
C995 C994 1.312 . S
C996 O968 1.214 . S
C996 O976 1.234 . S
C997 H969 0.929 . S
C997 C1000 1.391 . S
C997 C1002 1.391 . S
C998 H970 0.929 . S
C998 C999 1.390 . S
C998 N1001 1.391 . S
C999 H971 0.930 . S
C999 C998 1.390 . S
C999 C1000 1.392 . S
C1000 H972 0.929 . S
C1000 C997 1.391 . S
C1000 C999 1.392 . S
N1001 Co945 2.257 . S
N1001 C998 1.391 . S
N1001 C1002 1.388 . S
C1002 H973 0.930 . S
C1002 C997 1.391 . S
C1002 N1001 1.388 . S
Co1003 O1005 2.143 . S
Co1003 O1011 2.074 . S
Co1003 O1014 2.093 . S
Co1003 O1027 2.097 . S
Co1003 N1044 2.151 . S
Co1003 N1052 2.214 . S
Co1004 O1005 2.160 . S
Co1004 O1010 2.058 . S
Co1004 O1020 2.057 . S
Co1004 O1035 2.037 . S
Co1004 N1039 2.145 . S
Co1004 N1060 2.257 . S
O1005 Co1003 2.143 . S
O1005 Co1004 2.160 . S
C1006 O1007 1.278 . S
C1006 O1014 1.224 . S
O1007 C1006 1.278 . S
C1008 O1009 1.245 . S
C1008 O1020 1.232 . S
O1009 C1008 1.245 . S
O1010 Co1004 2.058 . S
O1010 C1036 1.269 . S
O1011 Co1003 2.074 . S
O1011 C1036 1.257 . S
H1012 C1037 0.930 . S
H1013 C1043 0.930 . S
O1014 Co1003 2.093 . S
O1014 C1006 1.224 . S
H1015 C1047 0.929 . S
H1016 C1049 0.930 . S
H1017 C1050 0.930 . S
H1018 C1048 0.929 . S
H1019 C1051 0.928 . S
O1020 Co1004 2.057 . S
O1020 C1008 1.232 . S
H1021 C1040 0.929 . S
H1022 C1041 0.929 . S
H1023 C1053 0.931 . S
H1024 C1045 0.929 . S
H1025 C1054 0.930 . S
H1026 C1046 0.931 . S
O1027 Co1003 2.097 . S
O1027 C1055 1.214 . S
H1028 C1056 0.929 . S
H1029 C1057 0.929 . S
H1030 C1058 0.930 . S
H1031 C1059 0.929 . S
H1032 C1061 0.930 . S
H1033 C1038 0.930 . S
H1034 C1042 0.930 . S
O1035 Co1004 2.037 . S
O1035 C1055 1.234 . S
C1036 O1010 1.269 . S
C1036 O1011 1.257 . S
C1037 H1012 0.930 . S
C1037 C1040 1.388 . S
C1037 C1042 1.418 . S
C1038 H1033 0.930 . S
C1038 C1041 1.404 . S
C1038 C1042 1.353 . S
N1039 Co1004 2.145 . S
N1039 C1040 1.397 . S
N1039 C1041 1.334 . S
C1040 H1021 0.929 . S
C1040 C1037 1.388 . S
C1040 N1039 1.397 . S
C1041 H1022 0.929 . S
C1041 C1038 1.404 . S
C1041 N1039 1.334 . S
C1042 H1034 0.930 . S
C1042 C1037 1.418 . S
C1042 C1038 1.353 . S
C1043 H1013 0.930 . S
C1043 N1044 1.330 . S
C1043 C1045 1.446 . S
N1044 Co1003 2.151 . S
N1044 C1043 1.330 . S
N1044 C1048 1.418 . S
C1045 H1024 0.929 . S
C1045 C1043 1.446 . S
C1045 C1046 1.332 . S
C1046 H1026 0.931 . S
C1046 C1045 1.332 . S
C1046 C1047 1.267 . S
C1047 H1015 0.929 . S
C1047 C1046 1.267 . S
C1047 C1048 1.251 . S
C1048 H1018 0.929 . S
C1048 N1044 1.418 . S
C1048 C1047 1.251 . S
C1049 H1016 0.930 . S
C1049 C1051 1.406 . S
C1049 C1054 1.261 . S
C1050 H1017 0.930 . S
C1050 N1052 1.325 . S
C1050 C1053 1.357 . S
C1051 H1019 0.928 . S
C1051 C1049 1.406 . S
C1051 N1052 1.261 . S
N1052 Co1003 2.214 . S
N1052 C1050 1.325 . S
N1052 C1051 1.261 . S
C1053 H1023 0.931 . S
C1053 C1050 1.357 . S
C1053 C1054 1.312 . S
C1054 H1025 0.930 . S
C1054 C1049 1.261 . S
C1054 C1053 1.312 . S
C1055 O1027 1.214 . S
C1055 O1035 1.234 . S
C1056 H1028 0.929 . S
C1056 C1059 1.391 . S
C1056 C1061 1.391 . S
C1057 H1029 0.929 . S
C1057 C1058 1.390 . S
C1057 N1060 1.391 . S
C1058 H1030 0.930 . S
C1058 C1057 1.390 . S
C1058 C1059 1.392 . S
C1059 H1031 0.929 . S
C1059 C1056 1.391 . S
C1059 C1058 1.392 . S
N1060 Co1004 2.257 . S
N1060 C1057 1.391 . S
N1060 C1061 1.388 . S
C1061 H1032 0.930 . S
C1061 C1056 1.391 . S
C1061 N1060 1.388 . S
C1062 C1063 1.369 . S
C1062 C1064 1.419 . S
C1062 H1066 0.930 . S
C1063 C1062 1.369 . S
C1063 C1072 1.429 . S
C1064 C1062 1.419 . S
C1064 C1065 1.363 . S
C1064 H1067 0.929 . S
C1065 C1064 1.363 . S
C1065 C1071 1.428 . S
H1066 C1062 0.930 . S
H1067 C1064 0.929 . S
S1068 N1069 1.613 . S
S1068 N1070 1.610 . S
N1069 S1068 1.613 . S
N1069 C1072 1.350 . S
N1070 S1068 1.610 . S
N1070 C1071 1.351 . S
C1071 C1065 1.428 . S
C1071 N1070 1.351 . S
C1071 C1072 1.434 . S
C1072 C1063 1.429 . S
C1072 N1069 1.350 . S
C1072 C1071 1.434 . S
C1073 C1074 1.369 . S
C1073 C1075 1.419 . S
C1073 H1077 0.930 . S
C1074 C1073 1.369 . S
C1074 C1083 1.429 . S
C1075 C1073 1.419 . S
C1075 C1076 1.363 . S
C1075 H1078 0.929 . S
C1076 C1075 1.363 . S
C1076 C1082 1.428 . S
H1077 C1073 0.930 . S
H1078 C1075 0.929 . S
S1079 N1080 1.613 . S
S1079 N1081 1.610 . S
N1080 S1079 1.613 . S
N1080 C1083 1.350 . S
N1081 S1079 1.610 . S
N1081 C1082 1.351 . S
C1082 C1076 1.428 . S
C1082 N1081 1.351 . S
C1082 C1083 1.434 . S
C1083 C1074 1.429 . S
C1083 N1080 1.350 . S
C1083 C1082 1.434 . S
C1084 C1085 1.369 . S
C1084 C1086 1.419 . S
C1084 H1088 0.930 . S
C1085 C1084 1.369 . S
C1085 C1094 1.429 . S
C1086 C1084 1.419 . S
C1086 C1087 1.363 . S
C1086 H1089 0.929 . S
C1087 C1086 1.363 . S
C1087 C1093 1.428 . S
H1088 C1084 0.930 . S
H1089 C1086 0.929 . S
S1090 N1091 1.613 . S
S1090 N1092 1.610 . S
N1091 S1090 1.613 . S
N1091 C1094 1.350 . S
N1092 S1090 1.610 . S
N1092 C1093 1.351 . S
C1093 C1087 1.428 . S
C1093 N1092 1.351 . S
C1093 C1094 1.434 . S
C1094 C1085 1.429 . S
C1094 N1091 1.350 . S
C1094 C1093 1.434 . S
C1095 C1096 1.369 . S
C1095 C1097 1.419 . S
C1095 H1099 0.930 . S
C1096 C1095 1.369 . S
C1096 C1105 1.429 . S
C1097 C1095 1.419 . S
C1097 C1098 1.363 . S
C1097 H1100 0.929 . S
C1098 C1097 1.363 . S
C1098 C1104 1.428 . S
H1099 C1095 0.930 . S
H1100 C1097 0.929 . S
S1101 N1102 1.613 . S
S1101 N1103 1.610 . S
N1102 S1101 1.613 . S
N1102 C1105 1.350 . S
N1103 S1101 1.610 . S
N1103 C1104 1.351 . S
C1104 C1098 1.428 . S
C1104 N1103 1.351 . S
C1104 C1105 1.434 . S
C1105 C1096 1.429 . S
C1105 N1102 1.350 . S
C1105 C1104 1.434 . S
C1106 C1107 1.369 . S
C1106 C1108 1.419 . S
C1106 H1110 0.930 . S
C1107 C1106 1.369 . S
C1107 C1116 1.429 . S
C1108 C1106 1.419 . S
C1108 C1109 1.363 . S
C1108 H1111 0.929 . S
C1109 C1108 1.363 . S
C1109 C1115 1.428 . S
H1110 C1106 0.930 . S
H1111 C1108 0.929 . S
S1112 N1113 1.613 . S
S1112 N1114 1.610 . S
N1113 S1112 1.613 . S
N1113 C1116 1.350 . S
N1114 S1112 1.610 . S
N1114 C1115 1.351 . S
C1115 C1109 1.428 . S
C1115 N1114 1.351 . S
C1115 C1116 1.434 . S
C1116 C1107 1.429 . S
C1116 N1113 1.350 . S
C1116 C1115 1.434 . S
C1117 C1118 1.369 . S
C1117 C1119 1.419 . S
C1117 H1121 0.930 . S
C1118 C1117 1.369 . S
C1118 C1127 1.429 . S
C1119 C1117 1.419 . S
C1119 C1120 1.363 . S
C1119 H1122 0.929 . S
C1120 C1119 1.363 . S
C1120 C1126 1.428 . S
H1121 C1117 0.930 . S
H1122 C1119 0.929 . S
S1123 N1124 1.613 . S
S1123 N1125 1.610 . S
N1124 S1123 1.613 . S
N1124 C1127 1.350 . S
N1125 S1123 1.610 . S
N1125 C1126 1.351 . S
C1126 C1120 1.428 . S
C1126 N1125 1.351 . S
C1126 C1127 1.434 . S
C1127 C1118 1.429 . S
C1127 N1124 1.350 . S
C1127 C1126 1.434 . S
C1128 C1129 1.369 . S
C1128 C1130 1.419 1_654 S
C1128 H1132 0.930 . S
C1129 C1128 1.369 . S
C1129 C1138 1.429 . S
C1130 C1128 1.419 1_456 S
C1130 C1131 1.363 . S
C1130 H1133 0.929 . S
C1131 C1130 1.363 . S
C1131 C1137 1.428 1_455 S
H1132 C1128 0.930 . S
H1133 C1130 0.929 . S
S1134 N1135 1.613 1_556 S
S1134 N1136 1.610 . S
N1135 S1134 1.613 1_554 S
N1135 C1138 1.350 . S
N1136 S1134 1.610 . S
N1136 C1137 1.351 . S
C1137 C1131 1.428 1_655 S
C1137 N1136 1.351 . S
C1137 C1138 1.434 1_556 S
C1138 C1129 1.429 . S
C1138 N1135 1.350 . S
C1138 C1137 1.434 1_554 S
C1139 C1140 1.369 . S
C1139 C1141 1.419 1_554 S
C1139 H1143 0.930 . S
C1140 C1139 1.369 . S
C1140 C1149 1.429 . S
C1141 C1139 1.419 1_556 S
C1141 C1142 1.363 . S
C1141 H1144 0.929 . S
C1142 C1141 1.363 . S
C1142 C1148 1.428 . S
H1143 C1139 0.930 . S
H1144 C1141 0.929 . S
S1145 N1146 1.613 1_556 S
S1145 N1147 1.610 . S
N1146 S1145 1.613 1_554 S
N1146 C1149 1.350 . S
N1147 S1145 1.610 . S
N1147 C1148 1.351 . S
C1148 C1142 1.428 . S
C1148 N1147 1.351 . S
C1148 C1149 1.434 1_556 S
C1149 C1140 1.429 . S
C1149 N1146 1.350 . S
C1149 C1148 1.434 1_554 S
C1150 C1151 1.369 . S
C1150 C1152 1.419 1_554 S
C1150 H1154 0.930 . S
C1151 C1150 1.369 . S
C1151 C1160 1.429 1_545 S
C1152 C1150 1.419 1_556 S
C1152 C1153 1.363 1_545 S
C1152 H1155 0.929 . S
C1153 C1152 1.363 1_565 S
C1153 C1159 1.428 . S
H1154 C1150 0.930 . S
H1155 C1152 0.929 . S
S1156 N1157 1.613 . S
S1156 N1158 1.610 1_554 S
N1157 S1156 1.613 . S
N1157 C1160 1.350 . S
N1158 S1156 1.610 1_556 S
N1158 C1159 1.351 . S
C1159 C1153 1.428 . S
C1159 N1158 1.351 . S
C1159 C1160 1.434 1_556 S
C1160 C1151 1.429 1_565 S
C1160 N1157 1.350 . S
C1160 C1159 1.434 1_554 S
C1161 C1162 1.369 . S
C1161 C1163 1.419 . S
C1161 H1165 0.930 . S
C1162 C1161 1.369 . S
C1162 C1171 1.429 . S
C1163 C1161 1.419 . S
C1163 C1164 1.363 . S
C1163 H1166 0.929 . S
C1164 C1163 1.363 . S
C1164 C1170 1.428 . S
H1165 C1161 0.930 . S
H1166 C1163 0.929 . S
S1167 N1168 1.613 . S
S1167 N1169 1.610 . S
N1168 S1167 1.613 . S
N1168 C1171 1.350 . S
N1169 S1167 1.610 . S
N1169 C1170 1.351 . S
C1170 C1164 1.428 . S
C1170 N1169 1.351 . S
C1170 C1171 1.434 . S
C1171 C1162 1.429 . S
C1171 N1168 1.350 . S
C1171 C1170 1.434 . S
C1172 C1173 1.369 . S
C1172 C1174 1.419 . S
C1172 H1176 0.930 . S
C1173 C1172 1.369 . S
C1173 C1182 1.429 . S
C1174 C1172 1.419 . S
C1174 C1175 1.363 . S
C1174 H1177 0.929 . S
C1175 C1174 1.363 . S
C1175 C1181 1.428 . S
H1176 C1172 0.930 . S
H1177 C1174 0.929 . S
S1178 N1179 1.613 . S
S1178 N1180 1.610 . S
N1179 S1178 1.613 . S
N1179 C1182 1.350 . S
N1180 S1178 1.610 . S
N1180 C1181 1.351 . S
C1181 C1175 1.428 . S
C1181 N1180 1.351 . S
C1181 C1182 1.434 . S
C1182 C1173 1.429 . S
C1182 N1179 1.350 . S
C1182 C1181 1.434 . S
C1183 C1184 1.369 . S
C1183 C1185 1.419 . S
C1183 H1187 0.930 . S
C1184 C1183 1.369 . S
C1184 C1193 1.429 . S
C1185 C1183 1.419 . S
C1185 C1186 1.363 . S
C1185 H1188 0.929 . S
C1186 C1185 1.363 . S
C1186 C1192 1.428 . S
H1187 C1183 0.930 . S
H1188 C1185 0.929 . S
S1189 N1190 1.613 . S
S1189 N1191 1.610 . S
N1190 S1189 1.613 . S
N1190 C1193 1.350 . S
N1191 S1189 1.610 . S
N1191 C1192 1.351 . S
C1192 C1186 1.428 . S
C1192 N1191 1.351 . S
C1192 C1193 1.434 . S
C1193 C1184 1.429 . S
C1193 N1190 1.350 . S
C1193 C1192 1.434 . S
C1194 C1195 1.369 . S
C1194 C1196 1.419 . S
C1194 H1198 0.930 . S
C1195 C1194 1.369 . S
C1195 C1204 1.429 . S
C1196 C1194 1.419 . S
C1196 C1197 1.363 . S
C1196 H1199 0.929 . S
C1197 C1196 1.363 . S
C1197 C1203 1.428 . S
H1198 C1194 0.930 . S
H1199 C1196 0.929 . S
S1200 N1201 1.613 . S
S1200 N1202 1.610 . S
N1201 S1200 1.613 . S
N1201 C1204 1.350 . S
N1202 S1200 1.610 . S
N1202 C1203 1.351 . S
C1203 C1197 1.428 . S
C1203 N1202 1.351 . S
C1203 C1204 1.434 . S
C1204 C1195 1.429 . S
C1204 N1201 1.350 . S
C1204 C1203 1.434 . S
C1205 C1206 1.369 . S
C1205 C1207 1.419 . S
C1205 H1209 0.930 . S
C1206 C1205 1.369 . S
C1206 C1215 1.429 . S
C1207 C1205 1.419 . S
C1207 C1208 1.363 . S
C1207 H1210 0.929 . S
C1208 C1207 1.363 . S
C1208 C1214 1.428 . S
H1209 C1205 0.930 . S
H1210 C1207 0.929 . S
S1211 N1212 1.613 . S
S1211 N1213 1.610 . S
N1212 S1211 1.613 . S
N1212 C1215 1.350 . S
N1213 S1211 1.610 . S
N1213 C1214 1.351 . S
C1214 C1208 1.428 . S
C1214 N1213 1.351 . S
C1214 C1215 1.434 . S
C1215 C1206 1.429 . S
C1215 N1212 1.350 . S
C1215 C1214 1.434 . S
C1216 C1217 1.369 . S
C1216 C1218 1.419 . S
C1216 H1220 0.930 . S
C1217 C1216 1.369 . S
C1217 C1226 1.429 . S
C1218 C1216 1.419 . S
C1218 C1219 1.363 . S
C1218 H1221 0.929 . S
C1219 C1218 1.363 . S
C1219 C1225 1.428 . S
H1220 C1216 0.930 . S
H1221 C1218 0.929 . S
S1222 N1223 1.613 . S
S1222 N1224 1.610 . S
N1223 S1222 1.613 . S
N1223 C1226 1.350 . S
N1224 S1222 1.610 . S
N1224 C1225 1.351 . S
C1225 C1219 1.428 . S
C1225 N1224 1.351 . S
C1225 C1226 1.434 . S
C1226 C1217 1.429 . S
C1226 N1223 1.350 . S
C1226 C1225 1.434 . S
C1227 C1228 1.369 . S
C1227 C1229 1.419 . S
C1227 H1231 0.930 . S
C1228 C1227 1.369 . S
C1228 C1237 1.429 1_655 S
C1229 C1227 1.419 . S
C1229 C1230 1.358 1_655 S
C1229 H1232 0.929 . S
C1230 C1229 1.358 1_455 S
C1230 C1236 1.432 . S
H1231 C1227 0.930 . S
H1232 C1229 0.929 . S
S1233 N1234 1.613 . S
S1233 N1235 1.610 . S
N1234 S1233 1.613 . S
N1234 C1237 1.350 . S
N1235 S1233 1.610 . S
N1235 C1236 1.351 . S
C1236 C1230 1.432 . S
C1236 N1235 1.351 . S
C1236 C1237 1.434 . S
C1237 C1228 1.429 1_455 S
C1237 N1234 1.350 . S
C1237 C1236 1.434 . S
C1238 C1239 1.369 . S
C1238 C1240 1.419 . S
C1238 H1242 0.930 . S
C1239 C1238 1.369 . S
C1239 C1248 1.429 . S
C1240 C1238 1.419 . S
C1240 C1241 1.363 . S
C1240 H1243 0.929 . S
C1241 C1240 1.363 . S
C1241 C1247 1.428 . S
H1242 C1238 0.930 . S
H1243 C1240 0.929 . S
S1244 N1245 1.613 . S
S1244 N1246 1.610 . S
N1245 S1244 1.613 . S
N1245 C1248 1.350 . S
N1246 S1244 1.610 . S
N1246 C1247 1.351 . S
C1247 C1241 1.428 . S
C1247 N1246 1.351 . S
C1247 C1248 1.434 . S
C1248 C1239 1.429 . S
C1248 N1245 1.350 . S
C1248 C1247 1.434 . S
C1249 C1250 1.369 . S
C1249 C1251 1.419 . S
C1249 H1253 0.930 . S
C1250 C1249 1.369 . S
C1250 C1259 1.429 1_565 S
C1251 C1249 1.419 . S
C1251 C1252 1.364 1_565 S
C1251 H1254 0.929 . S
C1252 C1251 1.364 1_545 S
C1252 C1258 1.427 . S
H1253 C1249 0.930 . S
H1254 C1251 0.929 . S
S1255 N1256 1.613 . S
S1255 N1257 1.610 . S
N1256 S1255 1.613 . S
N1256 C1259 1.350 . S
N1257 S1255 1.610 . S
N1257 C1258 1.351 . S
C1258 C1252 1.427 . S
C1258 N1257 1.351 . S
C1258 C1259 1.434 . S
C1259 C1250 1.429 1_545 S
C1259 N1256 1.350 . S
C1259 C1258 1.434 . S
C1260 C1261 1.369 . S
C1260 C1262 1.419 . S
C1260 H1264 0.930 . S
C1261 C1260 1.369 . S
C1261 C1270 1.429 1_554 S
C1262 C1260 1.419 . S
C1262 C1263 1.363 1_554 S
C1262 H1265 0.929 . S
C1263 C1262 1.363 1_556 S
C1263 C1269 1.428 . S
H1264 C1260 0.930 . S
H1265 C1262 0.929 . S
S1266 N1267 1.613 . S
S1266 N1268 1.610 . S
N1267 S1266 1.613 . S
N1267 C1270 1.350 . S
N1268 S1266 1.610 . S
N1268 C1269 1.351 . S
C1269 C1263 1.428 . S
C1269 N1268 1.351 . S
C1269 C1270 1.434 . S
C1270 C1261 1.429 1_556 S
C1270 N1267 1.350 . S
C1270 C1269 1.434 . S
C1271 C1272 1.369 . S
C1271 C1273 1.419 1_546 S
C1271 H1275 0.930 . S
C1272 C1271 1.369 . S
C1272 C1281 1.429 . S
C1273 C1271 1.419 1_564 S
C1273 C1274 1.363 . S
C1273 H1276 0.929 . S
C1274 C1273 1.363 . S
C1274 C1280 1.428 . S
H1275 C1271 0.930 . S
H1276 C1273 0.929 . S
S1277 N1278 1.613 1_564 S
S1277 N1279 1.610 . S
N1278 S1277 1.613 1_546 S
N1278 C1281 1.350 . S
N1279 S1277 1.610 . S
N1279 C1280 1.351 . S
C1280 C1274 1.428 . S
C1280 N1279 1.351 . S
C1280 C1281 1.434 1_564 S
C1281 C1272 1.429 . S
C1281 N1278 1.350 . S
C1281 C1280 1.434 1_546 S
C1282 C1283 1.369 1_554 S
C1282 C1284 1.419 1_655 S
C1282 H1286 0.930 . S
C1283 C1282 1.369 1_556 S
C1283 C1292 1.429 . S
C1284 C1282 1.419 1_455 S
C1284 C1285 1.363 . S
C1284 H1287 0.929 . S
C1285 C1284 1.363 . S
C1285 C1291 1.428 1_554 S
H1286 C1282 0.930 . S
H1287 C1284 0.929 . S
S1288 N1289 1.613 1_455 S
S1288 N1290 1.610 . S
N1289 S1288 1.613 1_655 S
N1289 C1292 1.350 . S
N1290 S1288 1.610 . S
N1290 C1291 1.351 . S
C1291 C1285 1.428 1_556 S
C1291 N1290 1.351 . S
C1291 C1292 1.434 1_455 S
C1292 C1283 1.429 . S
C1292 N1289 1.350 . S
C1292 C1291 1.434 1_655 S
C1293 C1294 1.369 . S
C1293 C1295 1.419 1_556 S
C1293 H1297 0.930 . S
C1294 C1293 1.369 . S
C1294 C1303 1.429 . S
C1295 C1293 1.419 1_554 S
C1295 C1296 1.363 . S
C1295 H1298 0.929 . S
C1296 C1295 1.363 . S
C1296 C1302 1.428 . S
H1297 C1293 0.930 . S
H1298 C1295 0.929 . S
S1299 N1300 1.613 . S
S1299 N1301 1.610 1_556 S
N1300 S1299 1.613 . S
N1300 C1303 1.350 . S
N1301 S1299 1.610 1_554 S
N1301 C1302 1.351 . S
C1302 C1296 1.428 . S
C1302 N1301 1.351 . S
C1302 C1303 1.434 1_554 S
C1303 C1294 1.429 . S
C1303 N1300 1.350 . S
C1303 C1302 1.434 1_556 S
C1304 C1305 1.369 . S
C1304 C1306 1.419 1_565 S
C1304 H1308 0.930 . S
C1305 C1304 1.369 . S
C1305 C1314 1.429 1_554 S
C1306 C1304 1.419 1_545 S
C1306 C1307 1.363 1_554 S
C1306 H1309 0.929 . S
C1307 C1306 1.363 1_556 S
C1307 C1313 1.428 . S
H1308 C1304 0.930 . S
H1309 C1306 0.929 . S
S1310 N1311 1.613 . S
S1310 N1312 1.610 1_565 S
N1311 S1310 1.613 . S
N1311 C1314 1.350 . S
N1312 S1310 1.610 1_545 S
N1312 C1313 1.351 . S
C1313 C1307 1.428 . S
C1313 N1312 1.351 . S
C1313 C1314 1.434 1_545 S
C1314 C1305 1.429 1_556 S
C1314 N1311 1.350 . S
C1314 C1313 1.434 1_565 S
C1315 C1316 1.369 1_554 S
C1315 C1317 1.419 1_655 S
C1315 H1319 0.930 . S
C1316 C1315 1.369 1_556 S
C1316 C1325 1.429 . S
C1317 C1315 1.419 1_455 S
C1317 C1318 1.363 . S
C1317 H1320 0.929 . S
C1318 C1317 1.363 . S
C1318 C1324 1.428 1_554 S
H1319 C1315 0.930 . S
H1320 C1317 0.929 . S
S1321 N1322 1.613 1_455 S
S1321 N1323 1.610 . S
N1322 S1321 1.613 1_655 S
N1322 C1325 1.350 . S
N1323 S1321 1.610 . S
N1323 C1324 1.351 . S
C1324 C1318 1.428 1_556 S
C1324 N1323 1.351 . S
C1324 C1325 1.434 1_455 S
C1325 C1316 1.429 . S
C1325 N1322 1.350 . S
C1325 C1324 1.434 1_655 S
C1326 C1327 1.369 . S
C1326 C1328 1.419 . S
C1326 H1330 0.930 . S
C1327 C1326 1.369 . S
C1327 C1336 1.429 . S
C1328 C1326 1.419 . S
C1328 C1329 1.363 . S
C1328 H1331 0.929 . S
C1329 C1328 1.363 . S
C1329 C1335 1.428 . S
H1330 C1326 0.930 . S
H1331 C1328 0.929 . S
S1332 N1333 1.613 . S
S1332 N1334 1.610 . S
N1333 S1332 1.613 . S
N1333 C1336 1.350 . S
N1334 S1332 1.610 . S
N1334 C1335 1.351 . S
C1335 C1329 1.428 . S
C1335 N1334 1.351 . S
C1335 C1336 1.434 . S
C1336 C1327 1.429 . S
C1336 N1333 1.350 . S
C1336 C1335 1.434 . S
C1337 C1338 1.369 . S
C1337 C1339 1.419 . S
C1337 H1341 0.930 . S
C1338 C1337 1.369 . S
C1338 C1347 1.429 . S
C1339 C1337 1.419 . S
C1339 C1340 1.363 . S
C1339 H1342 0.929 . S
C1340 C1339 1.363 . S
C1340 C1346 1.428 . S
H1341 C1337 0.930 . S
H1342 C1339 0.929 . S
S1343 N1344 1.613 . S
S1343 N1345 1.610 . S
N1344 S1343 1.613 . S
N1344 C1347 1.350 . S
N1345 S1343 1.610 . S
N1345 C1346 1.351 . S
C1346 C1340 1.428 . S
C1346 N1345 1.351 . S
C1346 C1347 1.434 . S
C1347 C1338 1.429 . S
C1347 N1344 1.350 . S
C1347 C1346 1.434 . S
C1348 C1349 1.369 . S
C1348 C1350 1.419 . S
C1348 H1352 0.930 . S
C1349 C1348 1.369 . S
C1349 C1358 1.429 . S
C1350 C1348 1.419 . S
C1350 C1351 1.363 . S
C1350 H1353 0.929 . S
C1351 C1350 1.363 . S
C1351 C1357 1.428 . S
H1352 C1348 0.930 . S
H1353 C1350 0.929 . S
S1354 N1355 1.613 . S
S1354 N1356 1.610 . S
N1355 S1354 1.613 . S
N1355 C1358 1.350 . S
N1356 S1354 1.610 . S
N1356 C1357 1.351 . S
C1357 C1351 1.428 . S
C1357 N1356 1.351 . S
C1357 C1358 1.434 . S
C1358 C1349 1.429 . S
C1358 N1355 1.350 . S
C1358 C1357 1.434 . S
C1359 C1360 1.369 . S
C1359 C1361 1.419 . S
C1359 H1363 0.930 . S
C1360 C1359 1.369 . S
C1360 C1369 1.429 . S
C1361 C1359 1.419 . S
C1361 C1362 1.363 . S
C1361 H1364 0.929 . S
C1362 C1361 1.363 . S
C1362 C1368 1.428 . S
H1363 C1359 0.930 . S
H1364 C1361 0.929 . S
S1365 N1366 1.613 . S
S1365 N1367 1.610 . S
N1366 S1365 1.613 . S
N1366 C1369 1.350 . S
N1367 S1365 1.610 . S
N1367 C1368 1.351 . S
C1368 C1362 1.428 . S
C1368 N1367 1.351 . S
C1368 C1369 1.434 . S
C1369 C1360 1.429 . S
C1369 N1366 1.350 . S
C1369 C1368 1.434 . S
C1370 C1371 1.369 . S
C1370 C1372 1.419 . S
C1370 H1374 0.930 . S
C1371 C1370 1.369 . S
C1371 C1380 1.429 . S
C1372 C1370 1.419 . S
C1372 C1373 1.363 . S
C1372 H1375 0.929 . S
C1373 C1372 1.363 . S
C1373 C1379 1.428 . S
H1374 C1370 0.930 . S
H1375 C1372 0.929 . S
S1376 N1377 1.613 . S
S1376 N1378 1.610 . S
N1377 S1376 1.613 . S
N1377 C1380 1.350 . S
N1378 S1376 1.610 . S
N1378 C1379 1.351 . S
C1379 C1373 1.428 . S
C1379 N1378 1.351 . S
C1379 C1380 1.434 . S
C1380 C1371 1.429 . S
C1380 N1377 1.350 . S
C1380 C1379 1.434 . S
C1381 C1382 1.369 . S
C1381 C1383 1.419 . S
C1381 H1385 0.930 . S
C1382 C1381 1.369 . S
C1382 C1391 1.429 . S
C1383 C1381 1.419 . S
C1383 C1384 1.363 . S
C1383 H1386 0.929 . S
C1384 C1383 1.363 . S
C1384 C1390 1.428 . S
H1385 C1381 0.930 . S
H1386 C1383 0.929 . S
S1387 N1388 1.613 . S
S1387 N1389 1.610 . S
N1388 S1387 1.613 . S
N1388 C1391 1.350 . S
N1389 S1387 1.610 . S
N1389 C1390 1.351 . S
C1390 C1384 1.428 . S
C1390 N1389 1.351 . S
C1390 C1391 1.434 . S
C1391 C1382 1.429 . S
C1391 N1388 1.350 . S
C1391 C1390 1.434 . S
C1392 C1393 1.369 . S
C1392 C1394 1.419 . S
C1392 H1396 0.930 . S
C1393 C1392 1.369 . S
C1393 C1402 1.429 . S
C1394 C1392 1.419 . S
C1394 C1395 1.363 . S
C1394 H1397 0.929 . S
C1395 C1394 1.363 . S
C1395 C1401 1.428 . S
H1396 C1392 0.930 . S
H1397 C1394 0.929 . S
S1398 N1399 1.613 . S
S1398 N1400 1.610 . S
N1399 S1398 1.613 . S
N1399 C1402 1.350 . S
N1400 S1398 1.610 . S
N1400 C1401 1.351 . S
C1401 C1395 1.428 . S
C1401 N1400 1.351 . S
C1401 C1402 1.434 . S
C1402 C1393 1.429 . S
C1402 N1399 1.350 . S
C1402 C1401 1.434 . S
C1403 C1404 1.369 . S
C1403 C1405 1.419 . S
C1403 H1407 0.930 . S
C1404 C1403 1.369 . S
C1404 C1413 1.429 . S
C1405 C1403 1.419 . S
C1405 C1406 1.363 . S
C1405 H1408 0.929 . S
C1406 C1405 1.363 . S
C1406 C1412 1.428 . S
H1407 C1403 0.930 . S
H1408 C1405 0.929 . S
S1409 N1410 1.613 . S
S1409 N1411 1.610 . S
N1410 S1409 1.613 . S
N1410 C1413 1.350 . S
N1411 S1409 1.610 . S
N1411 C1412 1.351 . S
C1412 C1406 1.428 . S
C1412 N1411 1.351 . S
C1412 C1413 1.434 . S
C1413 C1404 1.429 . S
C1413 N1410 1.350 . S
C1413 C1412 1.434 . S
C1414 C1415 1.369 . S
C1414 C1416 1.419 . S
C1414 H1418 0.930 . S
C1415 C1414 1.369 . S
C1415 C1424 1.429 . S
C1416 C1414 1.419 . S
C1416 C1417 1.363 . S
C1416 H1419 0.929 . S
C1417 C1416 1.363 . S
C1417 C1423 1.428 . S
H1418 C1414 0.930 . S
H1419 C1416 0.929 . S
S1420 N1421 1.613 . S
S1420 N1422 1.610 . S
N1421 S1420 1.613 . S
N1421 C1424 1.350 . S
N1422 S1420 1.610 . S
N1422 C1423 1.351 . S
C1423 C1417 1.428 . S
C1423 N1422 1.351 . S
C1423 C1424 1.434 . S
C1424 C1415 1.429 . S
C1424 N1421 1.350 . S
C1424 C1423 1.434 . S
C1425 C1426 1.369 . S
C1425 C1427 1.419 . S
C1425 H1429 0.930 . S
C1426 C1425 1.369 . S
C1426 C1435 1.429 . S
C1427 C1425 1.419 . S
C1427 C1428 1.363 . S
C1427 H1430 0.929 . S
C1428 C1427 1.363 . S
C1428 C1434 1.428 . S
H1429 C1425 0.930 . S
H1430 C1427 0.929 . S
S1431 N1432 1.613 . S
S1431 N1433 1.610 . S
N1432 S1431 1.613 . S
N1432 C1435 1.350 . S
N1433 S1431 1.610 . S
N1433 C1434 1.351 . S
C1434 C1428 1.428 . S
C1434 N1433 1.351 . S
C1434 C1435 1.434 . S
C1435 C1426 1.429 . S
C1435 N1432 1.350 . S
C1435 C1434 1.434 . S
C1436 C1437 1.369 . S
C1436 C1438 1.419 . S
C1436 H1440 0.930 . S
C1437 C1436 1.369 . S
C1437 C1446 1.429 . S
C1438 C1436 1.419 . S
C1438 C1439 1.363 . S
C1438 H1441 0.929 . S
C1439 C1438 1.363 . S
C1439 C1445 1.428 . S
H1440 C1436 0.930 . S
H1441 C1438 0.929 . S
S1442 N1443 1.613 . S
S1442 N1444 1.610 . S
N1443 S1442 1.613 . S
N1443 C1446 1.350 . S
N1444 S1442 1.610 . S
N1444 C1445 1.351 . S
C1445 C1439 1.428 . S
C1445 N1444 1.351 . S
C1445 C1446 1.434 . S
C1446 C1437 1.429 . S
C1446 N1443 1.350 . S
C1446 C1445 1.434 . S
C1447 C1448 1.369 . S
C1447 C1449 1.419 . S
C1447 H1451 0.930 . S
C1448 C1447 1.369 . S
C1448 C1457 1.429 . S
C1449 C1447 1.419 . S
C1449 C1450 1.363 . S
C1449 H1452 0.929 . S
C1450 C1449 1.363 . S
C1450 C1456 1.428 . S
H1451 C1447 0.930 . S
H1452 C1449 0.929 . S
S1453 N1454 1.613 . S
S1453 N1455 1.610 . S
N1454 S1453 1.613 . S
N1454 C1457 1.350 . S
N1455 S1453 1.610 . S
N1455 C1456 1.351 . S
C1456 C1450 1.428 . S
C1456 N1455 1.351 . S
C1456 C1457 1.434 . S
C1457 C1448 1.429 . S
C1457 N1454 1.350 . S
C1457 C1456 1.434 . S
C1063 C1006 1.664 . S
C1065 C3 1.663 . S
C1074 C890 1.659 . S
C1076 C64 1.659 . S
C1085 C949 1.659 . S
C1087 C123 1.659 . S
C1096 C418 1.659 . S
C1098 C182 1.659 . S
C1107 C477 1.659 . S
C1109 C241 1.659 . S
C1118 C298 1.663 . S
C1120 C357 1.664 . S
C1129 C536 1.659 . S
C1131 C772 1.659 . S
C1140 C595 1.658 . S
C1142 C831 1.659 . S
C1151 C652 1.663 . S
C1153 C711 1.663 . S
C1162 C33 0.889 . S
C1164 C1036 0.891 . S
C1173 C937 0.880 . S
C1175 C111 0.880 . S
C1184 C170 0.881 . S
C1186 C996 0.879 . S
C1195 C465 0.875 . S
C1197 C229 0.877 . S
C1206 C288 0.880 . S
C1208 C524 0.880 . S
C1217 C328 0.896 . S
C1219 C387 0.888 . S
C1228 C583 0.883 . S
C1230 C819 0.882 . S
C1239 C878 0.873 . S
C1241 C642 0.880 . S
C1250 C741 0.895 . S
C1252 C682 0.892 . S
C1261 C52 1.788 . S
C1263 C210 1.790 . S
C1272 C269 1.788 . S
C1274 C92 1.789 . S
C1283 C347 1.791 . S
C1285 C151 1.790 . S
C1294 C300 1.750 . S
C1296 C62 1.727 . S
C1305 C121 1.725 . S
C1307 C180 1.729 . S
C1316 C239 1.728 . S
C1318 C5 1.750 . S
C1327 C406 1.788 . S
C1329 C564 1.789 . S
C1338 C623 1.787 . S
C1340 C446 1.789 . S
C1349 C701 1.790 . S
C1351 C505 1.791 . S
C1360 C654 1.751 . S
C1362 C416 1.729 . S
C1371 C475 1.727 . S
C1373 C534 1.727 . S
C1382 C593 1.729 . S
C1384 C359 1.750 . S
C1393 C918 1.791 . S
C1395 C760 1.791 . S
C1404 C977 1.786 . S
C1406 C800 1.788 . S
C1415 C859 1.788 . S
C1417 C1055 1.789 . S
C1426 C1008 1.751 . S
C1428 C770 1.727 . S
C1437 C829 1.731 . S
C1439 C888 1.725 . S
C1448 C947 1.730 . S
C1450 C713 1.751 . S
