# Generated by pormake.
# Topology wiv, (6)-cn, num edge types: 1
# Building blocks:
#     Node 0, Type 0, BuildingBlock: UKALOJ_clean_sbu_0, # of connection points: 6
#     Node 1, Type 0, BuildingBlock: UKALOJ_clean_sbu_0, # of connection points: 6
#     Node 2, Type 0, BuildingBlock: UKALOJ_clean_sbu_0, # of connection points: 6
#     Node 3, Type 0, BuildingBlock: UKALOJ_clean_sbu_0, # of connection points: 6
#     Node 4, Type 0, BuildingBlock: UKALOJ_clean_sbu_0, # of connection points: 6
#     Node 5, Type 0, BuildingBlock: UKALOJ_clean_sbu_0, # of connection points: 6
#     Node 6, Type 0, BuildingBlock: UKALOJ_clean_sbu_0, # of connection points: 6
#     Node 7, Type 0, BuildingBlock: UKALOJ_clean_sbu_0, # of connection points: 6
#     Node 8, Type 0, BuildingBlock: UKALOJ_clean_sbu_0, # of connection points: 6
#     Node 9, Type 0, BuildingBlock: UKALOJ_clean_sbu_0, # of connection points: 6
#     Node 10, Type 0, BuildingBlock: UKALOJ_clean_sbu_0, # of connection points: 6
#     Node 11, Type 0, BuildingBlock: UKALOJ_clean_sbu_0, # of connection points: 6
#     Node 12, Type 0, BuildingBlock: UKALOJ_clean_sbu_0, # of connection points: 6
#     Node 13, Type 0, BuildingBlock: UKALOJ_clean_sbu_0, # of connection points: 6
#     Node 14, Type 0, BuildingBlock: UKALOJ_clean_sbu_0, # of connection points: 6
#     Node 15, Type 0, BuildingBlock: UKALOJ_clean_sbu_0, # of connection points: 6
#     Edge 16, Type (0, 0), BuildingBlock: KIFKEQ_clean_linker_1, # of connection points: 2
#     Edge 17, Type (0, 0), BuildingBlock: KIFKEQ_clean_linker_1, # of connection points: 2
#     Edge 18, Type (0, 0), BuildingBlock: KIFKEQ_clean_linker_1, # of connection points: 2
#     Edge 19, Type (0, 0), BuildingBlock: KIFKEQ_clean_linker_1, # of connection points: 2
#     Edge 20, Type (0, 0), BuildingBlock: KIFKEQ_clean_linker_1, # of connection points: 2
#     Edge 21, Type (0, 0), BuildingBlock: KIFKEQ_clean_linker_1, # of connection points: 2
#     Edge 22, Type (0, 0), BuildingBlock: KIFKEQ_clean_linker_1, # of connection points: 2
#     Edge 23, Type (0, 0), BuildingBlock: KIFKEQ_clean_linker_1, # of connection points: 2
#     Edge 24, Type (0, 0), BuildingBlock: KIFKEQ_clean_linker_1, # of connection points: 2
#     Edge 25, Type (0, 0), BuildingBlock: KIFKEQ_clean_linker_1, # of connection points: 2
#     Edge 26, Type (0, 0), BuildingBlock: KIFKEQ_clean_linker_1, # of connection points: 2
#     Edge 27, Type (0, 0), BuildingBlock: KIFKEQ_clean_linker_1, # of connection points: 2
#     Edge 28, Type (0, 0), BuildingBlock: KIFKEQ_clean_linker_1, # of connection points: 2
#     Edge 29, Type (0, 0), BuildingBlock: KIFKEQ_clean_linker_1, # of connection points: 2
#     Edge 30, Type (0, 0), BuildingBlock: KIFKEQ_clean_linker_1, # of connection points: 2
#     Edge 31, Type (0, 0), BuildingBlock: KIFKEQ_clean_linker_1, # of connection points: 2
#     Edge 32, Type (0, 0), BuildingBlock: KIFKEQ_clean_linker_1, # of connection points: 2
#     Edge 33, Type (0, 0), BuildingBlock: KIFKEQ_clean_linker_1, # of connection points: 2
#     Edge 34, Type (0, 0), BuildingBlock: KIFKEQ_clean_linker_1, # of connection points: 2
#     Edge 35, Type (0, 0), BuildingBlock: KIFKEQ_clean_linker_1, # of connection points: 2
#     Edge 36, Type (0, 0), BuildingBlock: KIFKEQ_clean_linker_1, # of connection points: 2
#     Edge 37, Type (0, 0), BuildingBlock: KIFKEQ_clean_linker_1, # of connection points: 2
#     Edge 38, Type (0, 0), BuildingBlock: KIFKEQ_clean_linker_1, # of connection points: 2
#     Edge 39, Type (0, 0), BuildingBlock: KIFKEQ_clean_linker_1, # of connection points: 2
#     Edge 40, Type (0, 0), BuildingBlock: KIFKEQ_clean_linker_1, # of connection points: 2
#     Edge 41, Type (0, 0), BuildingBlock: KIFKEQ_clean_linker_1, # of connection points: 2
#     Edge 42, Type (0, 0), BuildingBlock: KIFKEQ_clean_linker_1, # of connection points: 2
#     Edge 43, Type (0, 0), BuildingBlock: KIFKEQ_clean_linker_1, # of connection points: 2
#     Edge 44, Type (0, 0), BuildingBlock: KIFKEQ_clean_linker_1, # of connection points: 2
#     Edge 45, Type (0, 0), BuildingBlock: KIFKEQ_clean_linker_1, # of connection points: 2
#     Edge 46, Type (0, 0), BuildingBlock: KIFKEQ_clean_linker_1, # of connection points: 2
#     Edge 47, Type (0, 0), BuildingBlock: KIFKEQ_clean_linker_1, # of connection points: 2
#     Edge 48, Type (0, 0), BuildingBlock: KIFKEQ_clean_linker_1, # of connection points: 2
#     Edge 49, Type (0, 0), BuildingBlock: KIFKEQ_clean_linker_1, # of connection points: 2
#     Edge 50, Type (0, 0), BuildingBlock: KIFKEQ_clean_linker_1, # of connection points: 2
#     Edge 51, Type (0, 0), BuildingBlock: KIFKEQ_clean_linker_1, # of connection points: 2
#     Edge 52, Type (0, 0), BuildingBlock: KIFKEQ_clean_linker_1, # of connection points: 2
#     Edge 53, Type (0, 0), BuildingBlock: KIFKEQ_clean_linker_1, # of connection points: 2
#     Edge 54, Type (0, 0), BuildingBlock: KIFKEQ_clean_linker_1, # of connection points: 2
#     Edge 55, Type (0, 0), BuildingBlock: KIFKEQ_clean_linker_1, # of connection points: 2
#     Edge 56, Type (0, 0), BuildingBlock: KIFKEQ_clean_linker_1, # of connection points: 2
#     Edge 57, Type (0, 0), BuildingBlock: KIFKEQ_clean_linker_1, # of connection points: 2
#     Edge 58, Type (0, 0), BuildingBlock: KIFKEQ_clean_linker_1, # of connection points: 2
#     Edge 59, Type (0, 0), BuildingBlock: KIFKEQ_clean_linker_1, # of connection points: 2
#     Edge 60, Type (0, 0), BuildingBlock: KIFKEQ_clean_linker_1, # of connection points: 2
#     Edge 61, Type (0, 0), BuildingBlock: KIFKEQ_clean_linker_1, # of connection points: 2
#     Edge 62, Type (0, 0), BuildingBlock: KIFKEQ_clean_linker_1, # of connection points: 2
#     Edge 63, Type (0, 0), BuildingBlock: KIFKEQ_clean_linker_1, # of connection points: 2
# Relax obj value: 0.115
# Max RMSD: 0.126
# Mean RMSD: 0.126
data_MOF--net-wiv--node1-UKALOJ_clean_sbu_0--edge1-KIFKEQ_clean_linker_1
_symmetry_space_group_name_H-M    P1
_symmetry_Int_Tables_number       1
_symmetry_cell_setting            triclinic
loop_
_symmetry_equiv_pos_as_xyz
'x, y, z'
_cell_length_a     68.510081
_cell_length_b     68.519181
_cell_length_c     14.98257
_cell_angle_alpha  90.089409
_cell_angle_beta   90.140424
_cell_angle_gamma 90.077235
loop_
_atom_site_label
_atom_site_type_symbol
_atom_site_fract_x
_atom_site_fract_y
_atom_site_fract_z
_atom_type_partial_charge
Zn0 Zn 0.36543 0.13191 0.11139 0.0
O1 O 0.37516 0.13378 -0.02192 0.0
C2 C 0.32854 0.11613 0.04335 0.0
Zn3 Zn 0.36755 0.09938 0.1059 0.0
C4 C 0.37837 0.11789 0.93633 0.0
O5 O 0.37674 0.10166 0.97645 0.0
C6 C 0.35514 0.11275 0.28144 0.0
O7 O 0.39717 0.09962 0.15191 0.0
O8 O 0.39441 0.13142 0.15813 0.0
N9 N 0.36714 0.0693 0.09851 0.0
C10 C 0.38114 0.0554 0.09912 0.0
C11 C 0.35369 0.0408 0.10298 0.0
N12 N 0.35013 0.06011 0.10046 0.0
N13 N 0.37305 0.03741 0.10268 0.0
C14 C 0.35906 0.17761 0.09034 0.0
C15 C 0.3755 0.18697 0.20371 0.0
N16 N 0.36617 0.16147 0.13044 0.0
N17 N 0.37627 0.16742 0.20088 0.0
N18 N 0.36478 0.19383 0.13531 0.0
H19 H 0.35039 0.16395 0.96688 0.0
H20 H 0.35066 0.19047 0.965 0.0
H21 H 0.33162 0.17755 0.02287 0.0
C22 C 0.34737 0.17738 0.00587 0.0
C23 C 0.40254 0.05939 0.09022 0.0
H24 H 0.40497 0.07194 0.04481 0.0
H25 H 0.41031 0.04645 0.06352 0.0
H26 H 0.4087 0.06299 0.15681 0.0
O27 O 0.35854 0.09743 0.23673 0.0
O28 O 0.35587 0.12929 0.24373 0.0
C29 C 0.40453 0.11619 0.16995 0.0
O30 O 0.3366 0.13229 0.06349 0.0
O31 O 0.33769 0.10024 0.05789 0.0
Zn32 Zn 0.13401 0.67384 0.8442 0.0
O33 O 0.13859 0.66562 0.97567 0.0
C34 C 0.11345 0.7089 0.90839 0.0
Zn35 Zn 0.10196 0.66784 0.85246 0.0
C36 C 0.1237 0.66097 0.02151 0.0
O37 O 0.10692 0.66014 -0.01469 0.0
C38 C 0.11244 0.68133 0.67527 0.0
O39 O 0.1064 0.63826 0.8131 0.0
O40 O 0.13762 0.6447 0.80049 0.0
N41 N 0.07238 0.66339 0.86762 0.0
C42 C 0.05943 0.65225 0.82214 0.0
C43 C 0.04353 0.66785 0.9213 0.0
N44 N 0.06244 0.67304 0.92913 0.0
N45 N 0.04118 0.65488 0.85442 0.0
C46 C 0.1791 0.68272 0.86797 0.0
C47 C 0.18816 0.68001 0.73249 0.0
N48 N 0.16308 0.67845 0.81911 0.0
N49 N 0.16883 0.67683 0.73511 0.0
N50 N 0.19506 0.68378 0.8149 0.0
H51 H 0.17897 0.67294 0.0032 0.0
H52 H 0.19155 0.69583 -0.01368 0.0
H53 H 0.16514 0.69478 -0.01658 0.0
C54 C 0.17875 0.68692 0.96597 0.0
C55 C 0.06517 0.63747 0.75297 0.0
H56 H 0.0726 0.62515 0.78669 0.0
H57 H 0.05256 0.63123 0.7167 0.0
H58 H 0.07551 0.64403 0.70477 0.0
O59 O 0.09743 0.67573 0.71766 0.0
O60 O 0.1287 0.68224 0.71509 0.0
C61 C 0.12356 0.63269 0.79359 0.0
O62 O 0.13036 0.70269 0.88828 0.0
O63 O 0.09871 0.69779 0.89642 0.0
Zn64 Zn 0.66215 0.93098 0.09903 0.0
O65 O 0.6322 0.92798 0.13746 0.0
C66 C 0.67539 0.91971 0.27562 0.0
Zn67 Zn 0.66654 0.89881 0.106 0.0
C68 C 0.62618 0.91106 0.15852 0.0
O69 O 0.63769 0.89668 0.15189 0.0
C70 C 0.70233 0.91751 0.04082 0.0
O71 O 0.65752 0.89455 0.97532 0.0
O72 O 0.65435 0.92651 0.96555 0.0
N73 N 0.66922 0.86967 0.1314 0.0
C74 C 0.67413 0.85349 0.08533 0.0
C75 C 0.666 0.8445 0.21644 0.0
N76 N 0.66427 0.86398 0.21272 0.0
N77 N 0.67219 0.8375 0.13757 0.0
C78 C 0.64871 0.97404 0.12924 0.0
C79 C 0.66505 0.98925 0.03032 0.0
N80 N 0.65925 0.96065 0.08401 0.0
N81 N 0.66936 0.97015 0.02266 0.0
N82 N 0.65219 0.99214 0.09693 0.0
H83 H 0.62087 0.96236 0.16396 0.0
H84 H 0.62823 0.98178 0.23518 0.0
H85 H 0.63962 0.95812 0.24573 0.0
C86 C 0.63366 0.96896 0.19811 0.0
C87 C 0.67901 0.8534 -0.01198 0.0
H88 H 0.6653 0.85466 0.94891 0.0
H89 H 0.6865 0.83977 0.96797 0.0
H90 H 0.68828 0.86618 0.97184 0.0
O91 O 0.69509 0.9009 0.05902 0.0
O92 O 0.69237 0.93287 0.05644 0.0
C93 C 0.65397 0.90972 0.92934 0.0
O94 O 0.67013 0.93495 0.23406 0.0
O95 O 0.67585 0.90355 0.23485 0.0
Zn96 Zn 0.93368 0.36776 0.8561 0.0
O97 O 0.9309 0.39772 0.81559 0.0
C98 C 0.92235 0.35426 0.67968 0.0
Zn99 Zn 0.90142 0.3634 0.84889 0.0
C100 C 0.91393 0.40369 0.7946 0.0
O101 O 0.89949 0.3922 0.80216 0.0
C102 C 0.92001 0.32768 0.91603 0.0
O103 O 0.89718 0.37256 -0.02066 0.0
O104 O 0.92915 0.37589 -0.01067 0.0
N105 N 0.87218 0.36046 0.82301 0.0
C106 C 0.856 0.35575 0.86951 0.0
C107 C 0.84721 0.36092 0.73498 0.0
N108 N 0.86658 0.36367 0.73967 0.0
N109 N 0.84011 0.35591 0.81542 0.0
C110 C 0.97697 0.38101 0.82705 0.0
C111 C 0.99195 0.36412 0.92488 0.0
N112 N 0.96336 0.37071 0.87212 0.0
N113 N 0.97273 0.3603 0.93302 0.0
N114 N 0.99499 0.37717 0.85925 0.0
H115 H 0.97005 0.40893 0.77271 0.0
H116 H 0.98538 0.39426 0.70219 0.0
H117 H 0.95967 0.38882 0.71178 0.0
C118 C 0.97277 0.39387 0.74849 0.0
C119 C 0.8561 0.3501 0.96593 0.0
H120 H 0.87005 0.34287 -0.01668 0.0
H121 H 0.85476 0.36346 0.00743 0.0
H122 H 0.84373 0.3402 -0.01878 0.0
O123 O 0.90345 0.33489 0.89675 0.0
O124 O 0.93542 0.33759 0.90062 0.0
C125 C 0.91237 0.37621 0.02543 0.0
O126 O 0.93764 0.35938 0.72154 0.0
O127 O 0.90618 0.35397 0.72017 0.0
Zn128 Zn 0.36359 0.39853 0.10809 0.0
O129 O 0.37125 0.39361 0.24218 0.0
C130 C 0.329 0.42048 0.17089 0.0
Zn131 Zn 0.37013 0.43051 0.11504 0.0
C132 C 0.37705 0.40866 0.28444 0.0
O133 O 0.37829 0.42493 0.24452 0.0
C134 C 0.35707 0.42086 0.93821 0.0
O135 O 0.39927 0.42521 0.07213 0.0
O136 O 0.39292 0.39384 0.06904 0.0
N137 N 0.37648 0.45969 0.13416 0.0
C138 C 0.38394 0.47334 0.07893 0.0
C139 C 0.37941 0.48707 0.20483 0.0
N140 N 0.37374 0.46828 0.21243 0.0
N141 N 0.38583 0.49064 0.12153 0.0
C142 C 0.35347 0.35364 0.13033 0.0
C143 C 0.35526 0.34479 -0.00587 0.0
N144 N 0.35791 0.36964 0.08202 0.0
N145 N 0.35895 0.36402 -0.00243 0.0
N146 N 0.35175 0.33781 0.07645 0.0
H147 H 0.34267 0.36781 0.24818 0.0
H148 H 0.36394 0.35289 0.2646 0.0
H149 H 0.3404 0.34146 0.24884 0.0
C150 C 0.34979 0.3539 0.22874 0.0
C151 C 0.39041 0.46949 -0.01491 0.0
H152 H 0.40222 0.47968 0.96528 0.0
H153 H 0.37782 0.47158 0.93936 0.0
H154 H 0.39573 0.45436 -0.02232 0.0
O155 O 0.36198 0.43565 -0.01608 0.0
O156 O 0.3561 0.40425 0.97484 0.0
C157 C 0.40488 0.40781 0.0579 0.0
O158 O 0.33461 0.40345 0.14885 0.0
O159 O 0.34066 0.43487 0.1614 0.0
Zn160 Zn 0.43305 0.66352 0.84918 0.0
O161 O 0.43261 0.63373 0.8951 0.0
C162 C 0.41888 0.67618 0.02274 0.0
Zn163 Zn 0.4005 0.66573 0.85075 0.0
C164 C 0.41583 0.62622 0.90689 0.0
O165 O 0.40084 0.63656 0.89253 0.0
C166 C 0.4165 0.70268 0.78679 0.0
O167 O 0.39858 0.6568 0.72053 0.0
O168 O 0.43069 0.65442 0.71563 0.0
N169 N 0.37091 0.66502 0.86912 0.0
C170 C 0.35487 0.67299 0.83151 0.0
C171 C 0.34531 0.65524 0.93975 0.0
N172 N 0.36483 0.6541 0.93641 0.0
N173 N 0.33858 0.66703 0.87489 0.0
C174 C 0.47724 0.65029 0.84634 0.0
C175 C 0.49147 0.67795 0.84709 0.0
N176 N 0.46315 0.66407 0.84304 0.0
N177 N 0.47212 0.68121 0.84304 0.0
N178 N 0.49512 0.65865 0.84974 0.0
H179 H 0.46117 0.62584 0.79437 0.0
H180 H 0.48665 0.62096 0.81598 0.0
H181 H 0.4698 0.62316 0.90763 0.0
C182 C 0.47353 0.62879 0.84042 0.0
C183 C 0.35526 0.6858 0.75079 0.0
H184 H 0.36857 0.683 0.71092 0.0
H185 H 0.34208 0.68337 0.70908 0.0
H186 H 0.35549 0.70129 0.77249 0.0
O187 O 0.40026 0.69471 0.80591 0.0
O188 O 0.43231 0.69341 0.80177 0.0
C189 C 0.41414 0.65359 0.67694 0.0
O190 O 0.43479 0.67275 -0.01742 0.0
O191 O 0.40289 0.6748 -0.01923 0.0
Zn192 Zn 0.6715 0.63262 0.09402 0.0
O193 O 0.66355 0.63712 0.22542 0.0
C194 C 0.70693 0.61282 0.15831 0.0
Zn195 Zn 0.66604 0.60053 0.10119 0.0
C196 C 0.65881 0.62218 0.27073 0.0
O197 O 0.65786 0.60547 0.23386 0.0
C198 C 0.67943 0.61122 0.92473 0.0
O199 O 0.63636 0.60434 0.05881 0.0
O200 O 0.64221 0.63572 0.05226 0.0
N201 N 0.66219 0.57091 0.11716 0.0
C202 C 0.65163 0.55764 0.07087 0.0
C203 C 0.66682 0.54231 0.17336 0.0
N204 N 0.67161 0.56133 0.18068 0.0
N205 N 0.65435 0.53954 0.10476 0.0
C206 C 0.6805 0.67762 0.11571 0.0
C207 C 0.67529 0.68678 -0.0182 0.0
N208 N 0.67533 0.66166 0.0684 0.0
N209 N 0.67213 0.66746 -0.0146 0.0
N210 N 0.68058 0.6936 0.06257 0.0
H211 H 0.67312 0.67819 0.25403 0.0
H212 H 0.69621 0.68958 0.22827 0.0
H213 H 0.69382 0.66323 0.22756 0.0
C214 C 0.68639 0.67718 0.21195 0.0
C215 C 0.63714 0.56292 -0.00037 0.0
H216 H 0.62427 0.56962 0.032 0.0
H217 H 0.63178 0.55018 0.96151 0.0
H218 H 0.64354 0.57374 0.95318 0.0
O219 O 0.67445 0.59602 0.9672 0.0
O220 O 0.67967 0.62751 0.96443 0.0
C221 C 0.63046 0.62155 0.04212 0.0
O222 O 0.70055 0.62957 0.13666 0.0
O223 O 0.69596 0.59792 0.14741 0.0
Zn224 Zn 0.63404 0.36445 0.85106 0.0
O225 O 0.63791 0.37367 0.7207 0.0
C226 C 0.61642 0.32813 0.78395 0.0
Zn227 Zn 0.60168 0.36778 0.84406 0.0
C228 C 0.62265 0.37694 0.67477 0.0
O229 O 0.6059 0.37619 0.71102 0.0
C230 C 0.61363 0.35452 0.02018 0.0
O231 O 0.60334 0.39768 0.88532 0.0
O232 O 0.63494 0.39348 0.89799 0.0
N233 N 0.57197 0.36992 0.82733 0.0
C234 C 0.55788 0.37886 0.87524 0.0
C235 C 0.54394 0.36437 0.76647 0.0
N236 N 0.56325 0.361 0.75967 0.0
N237 N 0.54011 0.37563 0.83816 0.0
C238 C 0.67971 0.35853 0.83084 0.0
C239 C 0.68842 0.36738 0.96168 0.0
N240 N 0.66335 0.36295 0.87654 0.0
N241 N 0.66888 0.36835 0.95768 0.0
N242 N 0.69564 0.36124 0.88315 0.0
H243 H 0.67793 0.3669 0.69411 0.0
H244 H 0.69391 0.34655 0.7138 0.0
H245 H 0.66761 0.34344 0.71802 0.0
C246 C 0.67994 0.35338 0.73373 0.0
C247 C 0.56149 0.38994 0.96017 0.0
H248 H 0.57557 0.38598 -0.00897 0.0
H249 H 0.56195 0.40578 0.94513 0.0
H250 H 0.54959 0.38722 0.00872 0.0
O251 O 0.59814 0.35897 -0.02167 0.0
O252 O 0.6298 0.35494 -0.02022 0.0
C253 C 0.62008 0.40436 0.9059 0.0
O254 O 0.63289 0.33569 0.80297 0.0
O255 O 0.60086 0.33778 0.79914 0.0
Zn256 Zn 0.86587 0.63236 0.60103 0.0
O257 O 0.87467 0.63623 0.47002 0.0
C258 C 0.82978 0.6145 0.53602 0.0
Zn259 Zn 0.87026 0.60015 0.59301 0.0
C260 C 0.87848 0.6211 0.42405 0.0
O261 O 0.87837 0.60432 0.46016 0.0
C262 C 0.85697 0.61188 0.76981 0.0
O263 O 0.90019 0.60181 0.63256 0.0
O264 O 0.89525 0.63324 0.64572 0.0
N265 N 0.87215 0.57044 0.57747 0.0
C266 C 0.88217 0.55663 0.62253 0.0
C267 C 0.86483 0.54201 0.5248 0.0
N268 N 0.86144 0.5613 0.51666 0.0
N269 N 0.8779 0.53871 0.59033 0.0
C270 C 0.85772 0.67805 0.58921 0.0
C271 C 0.87264 0.68653 0.70824 0.0
N272 N 0.86483 0.66166 0.62715 0.0
N273 N 0.87394 0.66707 0.70121 0.0
N274 N 0.86253 0.69388 0.63899 0.0
H275 H 0.8494 0.66488 0.46409 0.0
H276 H 0.85144 0.69133 0.46245 0.0
H277 H 0.83104 0.67972 0.51596 0.0
C278 C 0.84691 0.67848 0.50239 0.0
C279 C 0.8952 0.56054 0.70113 0.0
H280 H 0.91031 0.56293 0.67698 0.0
H281 H 0.89531 0.54792 0.74746 0.0
H282 H 0.89049 0.57372 0.73788 0.0
O283 O 0.86186 0.59658 0.7277 0.0
O284 O 0.85686 0.62811 0.72979 0.0
C285 C 0.90653 0.61866 0.65297 0.0
O286 O 0.83672 0.63122 0.55572 0.0
O287 O 0.8402 0.59934 0.54905 0.0
Zn288 Zn 0.63261 0.16747 0.34986 0.0
O289 O 0.63683 0.15849 0.48054 0.0
C290 C 0.6146 0.20376 0.41544 0.0
Zn291 Zn 0.60032 0.16385 0.35732 0.0
C292 C 0.62159 0.15528 0.5266 0.0
O293 O 0.60479 0.15605 0.4906 0.0
C294 C 0.61171 0.17668 0.1806 0.0
O295 O 0.60288 0.1339 0.31901 0.0
O296 O 0.6343 0.13855 0.30367 0.0
N297 N 0.57056 0.16101 0.37237 0.0
C298 C 0.55722 0.15022 0.32749 0.0
C299 C 0.54201 0.16603 0.42825 0.0
N300 N 0.56105 0.17082 0.43476 0.0
N301 N 0.53917 0.15317 0.36127 0.0
C302 C 0.67811 0.17438 0.36938 0.0
C303 C 0.68667 0.16609 0.23778 0.0
N304 N 0.66173 0.16975 0.32384 0.0
N305 N 0.66716 0.16471 0.24222 0.0
N306 N 0.69394 0.17215 0.3165 0.0
H307 H 0.67736 0.1656 0.50576 0.0
H308 H 0.69221 0.18682 0.4859 0.0
H309 H 0.66577 0.18855 0.48381 0.0
C310 C 0.6785 0.1793 0.46672 0.0
C311 C 0.56236 0.13535 0.25765 0.0
H312 H 0.56837 0.12226 0.29123 0.0
H313 H 0.54965 0.13043 0.21814 0.0
H314 H 0.57362 0.14124 0.21201 0.0
O315 O 0.59636 0.17181 0.22227 0.0
O316 O 0.62791 0.17676 0.22122 0.0
C317 C 0.61958 0.12741 0.29759 0.0
O318 O 0.631 0.19611 0.3969 0.0
O319 O 0.59896 0.19413 0.40022 0.0
Zn320 Zn 0.16576 0.43518 0.60144 0.0
O321 O 0.13583 0.43213 0.64066 0.0
C322 C 0.17857 0.42511 0.77935 0.0
Zn323 Zn 0.1712 0.40314 0.61035 0.0
C324 C 0.13011 0.415 0.6603 0.0
O325 O 0.14194 0.40083 0.65304 0.0
C326 C 0.20675 0.42233 0.54704 0.0
O327 O 0.1626 0.39849 0.47619 0.0
O328 O 0.15788 0.43024 0.47169 0.0
N329 N 0.17441 0.37406 0.63715 0.0
C330 C 0.17927 0.3579 0.59081 0.0
C331 C 0.17414 0.34921 0.72535 0.0
N332 N 0.17124 0.36855 0.72052 0.0
N333 N 0.17922 0.34208 0.645 0.0
C334 C 0.15268 0.47875 0.62553 0.0
C335 C 0.17019 0.49292 0.52764 0.0
N336 N 0.1628 0.46473 0.5823 0.0
N337 N 0.17356 0.47361 0.52123 0.0
N338 N 0.15705 0.49653 0.59222 0.0
H339 H 0.12424 0.47382 0.67863 0.0
H340 H 0.14007 0.48761 0.75095 0.0
H341 H 0.14339 0.46159 0.73841 0.0
C342 C 0.13946 0.4752 0.70334 0.0
C343 C 0.18495 0.35795 0.49441 0.0
H344 H 0.17163 0.35626 0.45283 0.0
H345 H 0.19506 0.34574 0.47947 0.0
H346 H 0.19196 0.37202 0.47668 0.0
O347 O 0.20022 0.40556 0.56749 0.0
O348 O 0.19587 0.43723 0.55816 0.0
C349 C 0.15792 0.41377 0.43288 0.0
O350 O 0.17354 0.43983 0.7337 0.0
O351 O 0.17967 0.4085 0.74255 0.0
Zn352 Zn 0.39743 0.86182 0.34532 0.0
O353 O 0.39315 0.87044 0.47609 0.0
C354 C 0.41594 0.8259 0.41132 0.0
Zn355 Zn 0.42964 0.86601 0.35179 0.0
C356 C 0.40833 0.8744 0.5216 0.0
O357 O 0.42503 0.87444 0.48481 0.0
C358 C 0.4184 0.8527 0.17574 0.0
O359 O 0.42692 0.8959 0.30915 0.0
O360 O 0.39537 0.89089 0.30163 0.0
N361 N 0.45919 0.86894 0.36895 0.0
C362 C 0.47296 0.87899 0.32386 0.0
C363 C 0.48755 0.86256 0.42454 0.0
N364 N 0.46831 0.85881 0.43162 0.0
N365 N 0.49083 0.87529 0.35784 0.0
C366 C 0.35238 0.85356 0.3669 0.0
C367 C 0.34308 0.85888 0.2332 0.0
N368 N 0.36829 0.85873 0.3197 0.0
N369 N 0.36241 0.86201 0.23682 0.0
N370 N 0.33635 0.85351 0.31381 0.0
H371 H 0.3516 0.86091 0.50534 0.0
H372 H 0.34062 0.83764 0.47877 0.0
H373 H 0.36691 0.84048 0.47904 0.0
C374 C 0.35286 0.84767 0.46303 0.0
C375 C 0.46908 0.89149 0.24374 0.0
H376 H 0.4558 0.88666 0.2078 0.0
H377 H 0.4669 0.90678 0.26606 0.0
H378 H 0.48167 0.89119 0.19733 0.0
O379 O 0.4338 0.8573 0.21799 0.0
O380 O 0.40218 0.85294 0.21581 0.0
C381 C 0.40988 0.90222 0.29158 0.0
O382 O 0.39946 0.83307 0.39059 0.0
O383 O 0.43135 0.83594 0.39776 0.0
Zn384 Zn 0.86637 0.9314 0.61318 0.0
O385 O 0.89612 0.92831 0.57115 0.0
C386 C 0.85329 0.9208 0.43639 0.0
Zn387 Zn 0.86194 0.89915 0.60565 0.0
C388 C 0.90223 0.91132 0.55151 0.0
O389 O 0.89086 0.8968 0.56029 0.0
C390 C 0.82628 0.91818 0.67236 0.0
O391 O 0.87106 0.89478 0.7392 0.0
O392 O 0.87478 0.92665 0.74258 0.0
N393 N 0.85841 0.86998 0.58052 0.0
C394 C 0.85363 0.85402 0.62844 0.0
C395 C 0.8578 0.84482 0.49382 0.0
N396 N 0.86098 0.86415 0.49709 0.0
N397 N 0.85312 0.83802 0.57523 0.0
C398 C 0.87986 0.97479 0.58644 0.0
C399 C 0.86562 0.98897 0.69474 0.0
N400 N 0.87006 0.96095 0.63231 0.0
N401 N 0.86134 0.96981 0.69982 0.0
N402 N 0.87733 0.99256 0.62443 0.0
H403 H 0.88698 0.95689 0.4723 0.0
H404 H 0.90689 0.9704 0.51848 0.0
H405 H 0.8886 0.98284 0.45339 0.0
C406 C 0.89108 0.97099 0.50247 0.0
C407 C 0.84854 0.85447 0.72553 0.0
H408 H 0.84184 0.86866 0.74338 0.0
H409 H 0.86208 0.85276 0.76549 0.0
H410 H 0.83836 0.84242 0.74244 0.0
O411 O 0.83332 0.90163 0.65179 0.0
O412 O 0.83643 0.93352 0.65894 0.0
C413 C 0.87526 0.9103 0.78203 0.0
O414 O 0.85789 0.93577 0.48164 0.0
O415 O 0.85291 0.90421 0.47357 0.0
Zn416 Zn 0.89898 0.16763 0.34584 0.0
O417 O 0.89416 0.15956 0.21225 0.0
C418 C 0.91892 0.20331 0.28275 0.0
Zn419 Zn 0.93117 0.1629 0.3404 0.0
C420 C 0.90954 0.15477 0.17025 0.0
O421 O 0.92586 0.15458 0.21046 0.0
C422 C 0.921 0.1754 0.5165 0.0
O423 O 0.92736 0.13326 0.38317 0.0
O424 O 0.89579 0.13836 0.38553 0.0
N425 N 0.96053 0.15826 0.32092 0.0
C426 C 0.97467 0.15178 0.37623 0.0
C427 C 0.98795 0.15713 0.25015 0.0
N428 N 0.96883 0.16152 0.24254 0.0
N429 N 0.99199 0.15105 0.33359 0.0
C430 C 0.85401 0.17692 0.32597 0.0
C431 C 0.84522 0.17219 0.46069 0.0
N432 N 0.87004 0.17165 0.37241 0.0
N433 N 0.86447 0.16873 0.45589 0.0
N434 N 0.83822 0.1774 0.38022 0.0
H435 H 0.8684 0.18915 0.21154 0.0
H436 H 0.85221 0.16915 0.18822 0.0
H437 H 0.8422 0.19283 0.21409 0.0
C438 C 0.85418 0.18248 0.2294 0.0
C439 C 0.97135 0.14511 0.47019 0.0
H440 H 0.98233 0.13405 0.49014 0.0
H441 H 0.97266 0.15783 0.51574 0.0
H442 H 0.95662 0.13876 0.47763 0.0
O443 O 0.93602 0.17116 0.47146 0.0
O444 O 0.9044 0.17562 0.47909 0.0
C445 C 0.91016 0.12695 0.39698 0.0
O446 O 0.90225 0.19656 0.30374 0.0
O447 O 0.93405 0.19276 0.2946 0.0
Zn448 Zn 0.1679 0.13636 0.60993 0.0
O449 O 0.15954 0.14073 0.74324 0.0
C450 C 0.20406 0.11751 0.67397 0.0
Zn451 Zn 0.16394 0.10399 0.61534 0.0
C452 C 0.15523 0.1252 0.78524 0.0
O453 O 0.15556 0.10887 0.74517 0.0
C454 C 0.17628 0.11476 0.43945 0.0
O455 O 0.13424 0.10695 0.57281 0.0
O456 O 0.13862 0.13859 0.56897 0.0
N457 N 0.15985 0.07438 0.63346 0.0
C458 C 0.15302 0.06037 0.57802 0.0
C459 C 0.15841 0.04688 0.70368 0.0
N460 N 0.16315 0.06593 0.71155 0.0
N461 N 0.15207 0.043 0.62033 0.0
C462 C 0.17529 0.18181 0.62979 0.0
C463 C 0.16744 0.1905 0.49778 0.0
N464 N 0.17067 0.16549 0.58381 0.0
N465 N 0.16591 0.171 0.50193 0.0
N466 N 0.17332 0.1977 0.57693 0.0
H467 H 0.16599 0.18227 0.7654 0.0
H468 H 0.18839 0.19527 0.74617 0.0
H469 H 0.18806 0.16878 0.74639 0.0
C470 C 0.17988 0.18212 0.72748 0.0
C471 C 0.14618 0.06387 0.48433 0.0
H472 H 0.13472 0.05322 0.46494 0.0
H473 H 0.15873 0.06217 0.4383 0.0
H474 H 0.14028 0.07875 0.47673 0.0
O475 O 0.17228 0.09963 0.48427 0.0
O476 O 0.17621 0.13134 0.47697 0.0
C477 C 0.12755 0.12393 0.55789 0.0
O478 O 0.19689 0.13402 0.65336 0.0
O479 O 0.19393 0.10207 0.66132 0.0
Zn480 Zn 0.09907 0.87221 0.34215 0.0
O481 O 0.10095 0.90202 0.38558 0.0
C482 C 0.11047 0.85944 0.51729 0.0
Zn483 Zn 0.13124 0.86774 0.34667 0.0
C484 C 0.11811 0.90857 0.39802 0.0
O485 O 0.13252 0.89733 0.38519 0.0
C486 C 0.11323 0.83164 0.28476 0.0
O487 O 0.13477 0.87591 0.21256 0.0
O488 O 0.10306 0.88094 0.21301 0.0
N489 N 0.16048 0.86663 0.37127 0.0
C490 C 0.17667 0.85933 0.33251 0.0
C491 C 0.18565 0.87436 0.45051 0.0
N492 N 0.16618 0.87582 0.44464 0.0
N493 N 0.19269 0.86408 0.38117 0.0
C494 C 0.05534 0.88392 0.37005 0.0
C495 C 0.04112 0.86624 0.27239 0.0
N496 N 0.06937 0.8741 0.32561 0.0
N497 N 0.06047 0.86321 0.26474 0.0
N498 N 0.03753 0.87929 0.33758 0.0
H499 H 0.07252 0.89308 0.48353 0.0
H500 H 0.06034 0.91231 0.42416 0.0
H501 H 0.04653 0.89647 0.49585 0.0
C502 C 0.05892 0.89708 0.44835 0.0
C503 C 0.17674 0.8484 0.24597 0.0
H504 H 0.16316 0.85115 0.20772 0.0
H505 H 0.18965 0.85257 0.20561 0.0
H506 H 0.17761 0.83253 0.26006 0.0
O507 O 0.12991 0.83837 0.30615 0.0
O508 O 0.09816 0.84232 0.29544 0.0
C509 C 0.1192 0.88069 0.17171 0.0
O510 O 0.09532 0.86344 0.47243 0.0
O511 O 0.12706 0.85968 0.48004 0.0
H512 H 0.43671 0.93175 0.26454 0.0
H513 H 0.37522 0.91833 0.2432 0.0
H514 H 0.43025 0.96478 0.20853 0.0
H515 H 0.36884 0.95097 0.18923 0.0
H516 H 0.36284 1.00392 0.02204 0.0
H517 H 0.37402 0.97109 0.0595 0.0
H518 H 0.41366 0.99537 0.25513 0.0
H519 H 0.40251 0.02821 0.21635 0.0
C520 C 0.42187 0.93581 0.24801 0.0
C521 C 0.40651 0.92235 0.25836 0.0
C522 C 0.41816 0.95473 0.21617 0.0
C523 C 0.39905 0.96048 0.19343 0.0
C524 C 0.38379 0.94697 0.2041 0.0
C525 C 0.38746 0.92822 0.23597 0.0
C526 C 0.37422 1.00219 0.0717 0.0
C527 C 0.38195 0.01858 0.11551 0.0
C528 C 0.38055 0.98343 0.09369 0.0
C529 C 0.39459 0.98056 0.16115 0.0
C530 C 0.40299 0.99705 0.20225 0.0
C531 C 0.39668 1.01587 0.17982 0.0
H532 H 0.93937 0.59733 0.61462 0.0
H533 H 0.91901 0.6469 0.76641 0.0
H534 H 0.973 0.60425 0.66388 0.0
H535 H 0.95231 0.65328 0.81753 0.0
H536 H 1.01251 0.64129 0.95969 0.0
H537 H 0.97985 0.63046 0.91313 0.0
H538 H 0.99527 0.6401 0.63787 0.0
H539 H 0.02743 0.65211 0.68475 0.0
C540 C 0.94205 0.6095 0.65925 0.0
C541 C 0.92664 0.62164 0.68634 0.0
C542 C 0.96122 0.61347 0.68708 0.0
C543 C 0.96511 0.62925 0.74447 0.0
C544 C 0.94962 0.64098 0.7736 0.0
C545 C 0.93062 0.63736 0.74404 0.0
C546 C 1.00895 0.64086 0.88925 0.0
C547 C 0.02275 0.64684 0.82564 0.0
C548 C 0.99036 0.63465 0.86273 0.0
C549 C 0.98529 0.63412 0.77194 0.0
C550 C 0.99907 0.63991 0.70809 0.0
C551 C 0.01752 0.64655 0.73482 0.0
H552 H 0.65032 1.00606 0.26617 0.0
H553 H 0.63936 0.02108 -0.00875 0.0
H554 H 0.63928 0.03852 0.31285 0.0
H555 H 0.62947 0.05401 0.03753 0.0
H556 H 0.64722 0.11458 0.18275 0.0
H557 H 0.65285 0.08119 0.13151 0.0
H558 H 0.60403 0.06123 0.28821 0.0
H559 H 0.59789 0.09494 0.33769 0.0
C560 C 0.64496 1.0161 0.21609 0.0
C561 C 0.64489 1.01083 0.12539 0.0
C562 C 0.63887 0.03469 0.24268 0.0
C563 C 0.63328 0.04855 0.17871 0.0
C564 C 0.63351 0.04344 0.08797 0.0
C565 C 0.63918 0.02471 0.06161 0.0
C566 C 0.63758 0.1031 0.20577 0.0
C567 C 0.62215 0.1073 0.26438 0.0
C568 C 0.64076 0.08407 0.17613 0.0
C569 C 0.62887 0.06877 0.2061 0.0
C570 C 0.61337 0.07287 0.26439 0.0
C571 C 0.60984 0.09208 0.29234 0.0
H572 H 0.0248 0.35422 0.81217 0.0
H573 H 1.00734 0.41433 0.83521 0.0
H574 H 0.05702 0.3643 0.76174 0.0
H575 H 0.04005 0.42482 0.78922 0.0
H576 H 0.09661 0.43605 0.62877 0.0
H577 H 0.06333 0.42751 0.67395 0.0
H578 H 0.08578 0.37729 0.81529 0.0
H579 H 0.11847 0.38522 0.76596 0.0
C580 C 0.02804 0.36965 0.80683 0.0
C581 C 1.01371 0.3835 0.82716 0.0
C582 C 0.04655 0.37551 0.77872 0.0
C583 C 0.05141 0.39546 0.77248 0.0
C584 C 0.03688 0.40936 0.79216 0.0
C585 C 0.01817 0.40341 0.8188 0.0
C586 C 0.09431 0.42322 0.66957 0.0
C587 C 0.11008 0.41115 0.69272 0.0
C588 C 0.07525 0.41834 0.6959 0.0
C589 C 0.07167 0.40147 0.7472 0.0
C590 C 0.08771 0.38999 0.7733 0.0
C591 C 0.10657 0.39463 0.74562 0.0
H592 H 0.37465 0.50735 0.96666 0.0
H593 H 0.41033 0.51628 0.20051 0.0
H594 H 0.38407 0.5394 0.91063 0.0
H595 H 0.4195 0.5488 0.14566 0.0
H596 H 0.44336 0.60017 0.97029 0.0
H597 H 0.43762 0.56648 0.02032 0.0
H598 H 0.37628 0.57275 0.96011 0.0
H599 H 0.38188 0.60587 0.91036 0.0
C600 C 0.38481 0.51606 0.00521 0.0
C601 C 0.39204 0.50924 0.08708 0.0
C602 C 0.39004 0.53451 0.97375 0.0
C603 C 0.40255 0.54664 0.02373 0.0
C604 C 0.41004 0.5397 0.10516 0.0
C605 C 0.40469 0.52122 0.13687 0.0
C606 C 0.42871 0.59426 0.96744 0.0
C607 C 0.41312 0.60572 0.93612 0.0
C608 C 0.4254 0.57505 -0.00353 0.0
C609 C 0.40651 0.56693 -0.0065 0.0
C610 C 0.39105 0.57843 0.96193 0.0
C611 C 0.39428 0.59752 0.93388 0.0
H612 H 0.61503 0.65647 -0.0079 0.0
H613 H 0.60019 0.59544 0.01855 0.0
H614 H 0.58232 0.66334 0.93876 0.0
H615 H 0.56729 0.60234 0.96299 0.0
H616 H 0.50442 0.63004 0.96724 0.0
H617 H 0.53725 0.61929 0.00833 0.0
H618 H 0.56159 0.65816 0.81081 0.0
H619 H 0.52873 0.66893 0.77086 0.0
C620 C 0.60482 0.64445 -0.01385 0.0
C621 C 0.61032 0.62536 0.00963 0.0
C622 C 0.58605 0.64839 0.95466 0.0
C623 C 0.57218 0.63337 0.9456 0.0
C624 C 0.57759 0.61426 0.96947 0.0
C625 C 0.59648 0.61029 0.00095 0.0
C626 C 0.51677 0.6358 0.93084 0.0
C627 C 0.51405 0.65013 0.86497 0.0
C628 C 0.5356 0.62972 0.95464 0.0
C629 C 0.5521 0.63798 0.91345 0.0
C630 C 0.54925 0.65175 0.84506 0.0
C631 C 0.53046 0.65783 0.8216 0.0
H632 H 0.64014 0.51123 0.21039 0.0
H633 H 0.65301 0.52508 0.93615 0.0
H634 H 0.62968 0.47838 0.16491 0.0
H635 H 0.64137 0.49274 0.89011 0.0
H636 H 0.59841 0.43688 0.86603 0.0
H637 H 0.60485 0.47062 0.9149 0.0
H638 H 0.65362 0.45057 0.07239 0.0
H639 H 0.64772 0.41716 0.02164 0.0
C640 C 0.64025 0.50739 0.14026 0.0
C641 C 0.64668 0.52094 0.07643 0.0
C642 C 0.63424 0.4887 0.11435 0.0
C643 C 0.63437 0.48329 0.02397 0.0
C644 C 0.64066 0.49682 0.95993 0.0
C645 C 0.6471 0.51536 -0.01388 0.0
C646 C 0.6104 0.43972 0.91153 0.0
C647 C 0.62263 0.42447 0.93974 0.0
C648 C 0.6141 0.45895 0.93912 0.0
C649 C 0.62969 0.46304 -0.00266 0.0
C650 C 0.64147 0.44771 0.02778 0.0
C651 C 0.63812 0.42865 -0.00153 0.0
H652 H 0.43132 0.43335 -0.01391 0.0
H653 H 0.42397 0.37297 0.06116 0.0
H654 H 0.46398 0.42607 0.93058 0.0
H655 H 0.4568 0.36582 0.00982 0.0
H656 H 0.50768 0.35361 0.82877 0.0
H657 H 0.47504 0.36198 0.8794 0.0
H658 H 0.49631 0.41809 0.96974 0.0
H659 H 0.52857 0.41017 0.91236 0.0
C660 C 0.43678 0.41857 -0.00834 0.0
C661 C 0.42503 0.40372 0.02763 0.0
C662 C 0.45556 0.41439 0.96025 0.0
C663 C 0.46311 0.3953 0.96509 0.0
C664 C 0.4514 0.38059 0.00284 0.0
C665 C 0.43257 0.38471 0.03301 0.0
C666 C 0.50533 0.36776 0.85915 0.0
C667 C 0.52089 0.38095 0.86907 0.0
C668 C 0.48664 0.37251 0.88919 0.0
C669 C 0.48299 0.3906 0.93046 0.0
C670 C 0.49849 0.40402 0.93844 0.0
C671 C 0.51716 0.39932 0.90727 0.0
H672 H 0.88481 0.41527 0.68487 0.0
H673 H 0.93534 0.43703 0.82611 0.0
H674 H 0.87737 0.44792 0.63351 0.0
H675 H 0.92728 0.47028 0.77869 0.0
H676 H 0.91492 0.52608 0.6147 0.0
H677 H 0.9251 0.49333 0.66146 0.0
H678 H 0.8644 0.47673 0.687 0.0
H679 H 0.85462 0.50901 0.63607 0.0
C680 C 0.89427 0.42714 0.70555 0.0
C681 C 0.91054 0.42363 0.76031 0.0
C682 C 0.88991 0.44596 0.6767 0.0
C683 C 0.90142 0.46196 0.70341 0.0
C684 C 0.9181 0.45837 0.75633 0.0
C685 C 0.9227 0.43934 0.78389 0.0
C686 C 0.9039 0.51532 0.63083 0.0
C687 C 0.88402 0.5199 0.62194 0.0
C688 C 0.90966 0.4966 0.65789 0.0
C689 C 0.89561 0.48218 0.67734 0.0
C690 C 0.87571 0.48714 0.67028 0.0
C691 C 0.87002 0.50567 0.64183 0.0
H692 H 0.51183 0.13843 0.47059 0.0
H693 H 0.52394 0.15099 0.19436 0.0
H694 H 0.47918 0.12661 0.42884 0.0
H695 H 0.49185 0.13805 0.15201 0.0
H696 H 0.43723 0.09527 0.12549 0.0
H697 H 0.47099 0.10205 0.17387 0.0
H698 H 0.45016 0.14837 0.34401 0.0
H699 H 0.41677 0.14214 0.29375 0.0
C700 C 0.50765 0.1382 0.40084 0.0
C701 C 0.52064 0.14494 0.33535 0.0
C702 C 0.48909 0.1314 0.37702 0.0
C703 C 0.48327 0.13105 0.28712 0.0
C704 C 0.49626 0.13767 0.22148 0.0
C705 C 0.51465 0.14489 0.24557 0.0
C706 C 0.43993 0.1067 0.17403 0.0
C707 C 0.4245 0.11825 0.20573 0.0
C708 C 0.45915 0.11062 0.20128 0.0
C709 C 0.46304 0.1257 0.2626 0.0
C710 C 0.44748 0.13661 0.29709 0.0
C711 C 0.42844 0.13308 0.26813 0.0
H712 H 0.15404 0.62025 0.69326 0.0
H713 H 0.10166 0.59974 0.82239 0.0
H714 H 0.16112 0.58737 0.64302 0.0
H715 H 0.10928 0.56637 0.77657 0.0
H716 H 0.12046 0.5105 0.61347 0.0
H717 H 0.11135 0.54356 0.66015 0.0
H718 H 0.17252 0.5578 0.6933 0.0
H719 H 0.18124 0.52524 0.64188 0.0
C720 C 0.14413 0.60862 0.71173 0.0
C721 C 0.12736 0.61256 0.76226 0.0
C722 C 0.14826 0.58965 0.68351 0.0
C723 C 0.13599 0.57397 0.70673 0.0
C724 C 0.11902 0.578 0.75646 0.0
C725 C 0.11467 0.59713 0.78325 0.0
C726 C 0.13181 0.52082 0.63116 0.0
C727 C 0.15151 0.5155 0.62414 0.0
C728 C 0.12667 0.53972 0.65826 0.0
C729 C 0.14117 0.55358 0.67999 0.0
C730 C 0.16089 0.54787 0.67483 0.0
C731 C 0.16596 0.52916 0.64616 0.0
H732 H 0.61438 0.88235 0.26942 0.0
H733 H 0.59294 0.93221 0.12357 0.0
H734 H 0.5816 0.87501 0.31945 0.0
H735 H 0.55957 0.92423 0.16954 0.0
H736 H 0.50335 0.91226 0.33103 0.0
H737 H 0.53619 0.92242 0.2854 0.0
H738 H 0.55299 0.86172 0.26471 0.0
H739 H 0.52063 0.85199 0.31467 0.0
C740 C 0.60255 0.89167 0.24744 0.0
C741 C 0.60617 0.90772 0.19181 0.0
C742 C 0.58366 0.88737 0.27552 0.0
C743 C 0.56773 0.89872 0.24705 0.0
C744 C 0.57143 0.91518 0.19324 0.0
C745 C 0.59052 0.91973 0.16651 0.0
C746 C 0.51418 0.90124 0.3162 0.0
C747 C 0.50965 0.88139 0.3263 0.0
C748 C 0.53295 0.90699 0.28981 0.0
C749 C 0.54744 0.89293 0.27217 0.0
C750 C 0.54251 0.87304 0.28015 0.0
C751 C 0.52394 0.86738 0.30799 0.0
H752 H 0.85607 0.0254 0.63242 0.0
H753 H 0.91233 1.00341 0.55232 0.0
H754 H 0.86505 0.05773 0.57988 0.0
H755 H 0.92092 0.03546 0.49341 0.0
H756 H 0.93613 0.1011 0.47183 0.0
H757 H 0.92904 0.06846 0.5298 0.0
H758 H 0.86902 0.0744 0.44438 0.0
H759 H 0.87592 0.10701 0.39031 0.0
C760 C 0.87031 0.02745 0.60263 0.0
C761 C 0.8832 1.01166 0.59393 0.0
C762 C 0.87541 0.04595 0.57151 0.0
C763 C 0.89357 0.0492 0.53032 0.0
C764 C 0.90678 0.03354 0.52431 0.0
C765 C 0.9017 1.01501 0.55644 0.0
C766 C 0.92146 0.09533 0.46534 0.0
C767 C 0.90655 0.10669 0.42716 0.0
C768 C 0.91739 0.07661 0.49825 0.0
C769 C 0.89838 0.06881 0.49287 0.0
C770 C 0.8837 0.08005 0.45209 0.0
C771 C 0.88769 0.09875 0.42035 0.0
H772 H 0.10137 0.09653 0.49673 0.0
H773 H 0.10778 0.15826 0.54905 0.0
H774 H 0.06798 0.10223 0.44338 0.0
H775 H 0.07471 0.16386 0.49593 0.0
H776 H 1.00843 0.16409 0.48612 0.0
H777 H 0.04086 0.1562 0.54369 0.0
H778 H 0.05125 0.11955 0.31387 0.0
H779 H 0.01848 0.12732 0.25728 0.0
C780 C 0.09565 0.11126 0.49721 0.0
C781 C 0.1072 0.12693 0.52732 0.0
C782 C 0.07661 0.11453 0.46621 0.0
C783 C 0.06873 0.13348 0.46586 0.0
C784 C 0.08028 0.14907 0.49646 0.0
C785 C 0.09928 0.14585 0.52646 0.0
C786 C 0.01753 0.15409 0.44892 0.0
C787 C 1.01092 0.14603 0.36816 0.0
C788 C 0.03615 0.14973 0.48124 0.0
C789 C 0.04858 0.13722 0.43336 0.0
C790 C 0.0419 0.12904 0.35272 0.0
C791 C 0.02329 0.13357 0.32003 0.0
H792 H 0.15292 0.92754 0.40062 0.0
H793 H 0.09192 0.93556 0.46344 0.0
H794 H 0.16002 0.96029 0.45313 0.0
H795 H 0.09915 0.96877 0.51617 0.0
H796 H 0.12768 0.01737 0.69892 0.0
H797 H 0.11798 0.98509 0.64239 0.0
H798 H 0.15354 0.99426 0.40846 0.0
H799 H 0.16341 0.02615 0.46609 0.0
C800 C 0.14096 0.93633 0.42529 0.0
C801 C 0.12181 0.92891 0.42764 0.0
C802 C 0.14505 0.9552 0.45497 0.0
C803 C 0.13015 0.96717 0.4884 0.0
C804 C 0.11095 0.95982 0.4911 0.0
C805 C 0.10679 0.94089 0.46043 0.0
C806 C 0.1333 1.0124 0.63534 0.0
C807 C 0.14605 0.02428 0.58617 0.0
C808 C 0.12764 0.99406 0.60263 0.0
C809 C 0.13493 0.98716 0.52079 0.0
C810 C 0.14771 0.99912 0.47185 0.0
C811 C 0.15323 0.01745 0.50426 0.0
H812 H 1.00903 0.85497 0.38747 0.0
H813 H 0.02351 0.91581 0.3603 0.0
H814 H 0.97666 0.86357 0.44132 0.0
H815 H 0.99062 0.9248 0.4096 0.0
H816 H 0.93501 0.93376 0.57813 0.0
H817 H 0.96826 0.92658 0.52846 0.0
H818 H 0.94697 0.87506 0.39201 0.0
H819 H 0.91433 0.88166 0.44596 0.0
C820 C 1.00508 0.87023 0.39248 0.0
C821 C 0.01861 0.88474 0.37015 0.0
C822 C 0.98649 0.87524 0.42259 0.0
C823 C 0.98077 0.89494 0.42889 0.0
C824 C 0.99449 0.9095 0.40677 0.0
C825 C 1.01328 0.90442 0.37818 0.0
C826 C 0.93756 0.92093 0.53752 0.0
C827 C 0.92217 0.90812 0.51703 0.0
C828 C 0.95659 0.91684 0.50856 0.0
C829 C 0.9605 0.90003 0.45715 0.0
C830 C 0.9448 0.88776 0.4339 0.0
C831 C 0.92598 0.89162 0.46426 0.0
H832 H 0.39129 0.22232 0.14827 0.0
H833 H 0.33058 0.21146 0.0902 0.0
H834 H 0.38562 0.25733 0.14099 0.0
H835 H 0.32468 0.24677 0.08318 0.0
H836 H 0.33103 0.31161 -0.01786 0.0
H837 H 0.33257 0.2761 -0.00445 0.0
H838 H 0.36949 0.28229 0.22809 0.0
H839 H 0.36853 0.31769 0.21204 0.0
C840 C 0.37673 0.22752 0.13312 0.0
C841 C 0.36144 0.21422 0.1188 0.0
C842 C 0.37341 0.24756 0.12999 0.0
C843 C 0.35462 0.25488 0.11313 0.0
C844 C 0.33934 0.24158 0.09612 0.0
C845 C 0.34272 0.2214 0.09922 0.0
C846 C 0.33911 0.3053 0.03718 0.0
C847 C 0.34947 0.31741 0.0966 0.0
C848 C 0.33996 0.28499 0.04502 0.0
C849 C 0.35134 0.27634 0.1122 0.0
C850 C 0.36083 0.2885 0.17467 0.0
C851 C 0.35999 0.30881 0.16669 0.0
H852 H 0.32181 0.70206 0.83618 0.0
H853 H 0.30928 0.64134 0.88532 0.0
H854 H 0.28669 0.70895 0.82949 0.0
H855 H 0.27444 0.64806 0.87915 0.0
H856 H 0.21456 0.66668 0.95136 0.0
H857 H 0.24995 0.66487 0.96888 0.0
H858 H 0.25727 0.70173 0.73766 0.0
H859 H 0.2218 0.70398 0.72235 0.0
C860 C 0.31157 0.69014 0.84339 0.0
C861 C 0.31823 0.67111 0.86005 0.0
C862 C 0.29148 0.69409 0.84059 0.0
C863 C 0.27778 0.6791 0.85528 0.0
C864 C 0.28457 0.66004 0.86983 0.0
C865 C 0.30451 0.65613 0.87239 0.0
C866 C 0.22371 0.67501 0.90659 0.0
C867 C 0.21546 0.68568 0.8362 0.0
C868 C 0.24399 0.67371 0.91551 0.0
C869 C 0.25642 0.68294 0.85383 0.0
C870 C 0.24813 0.69453 0.7865 0.0
C871 C 0.22786 0.69579 0.77759 0.0
H872 H 0.70439 0.81923 0.07549 0.0
H873 H 0.6452 0.80993 0.16174 0.0
H874 H 0.70911 0.78379 0.06354 0.0
H875 H 0.64958 0.77471 0.14928 0.0
H876 H 0.66706 0.71346 0.2062 0.0
H877 H 0.66692 0.74885 0.22524 0.0
H878 H 0.69848 0.75528 -0.02239 0.0
H879 H 0.69922 0.71984 0.96099 0.0
C880 C 0.69228 0.80955 0.08947 0.0
C881 C 0.67433 0.81714 0.11783 0.0
C882 C 0.69498 0.78932 0.08355 0.0
C883 C 0.67979 0.77641 0.10664 0.0
C884 C 0.66172 0.78418 0.13301 0.0
C885 C 0.65909 0.8043 0.13899 0.0
C886 C 0.67461 0.7224 0.15784 0.0
C887 C 0.68339 0.71392 0.08277 0.0
C888 C 0.67422 0.7427 0.16767 0.0
C889 C 0.68246 0.75491 0.10222 0.0
C890 C 0.6921 0.74634 0.02948 0.0
C891 C 0.69249 0.72607 0.01979 0.0
H892 H 0.81429 0.33702 0.71177 0.0
H893 H 0.81966 0.36946 0.95738 0.0
H894 H 0.7788 0.33719 0.72626 0.0
H895 H 0.78421 0.36906 0.97421 0.0
H896 H 0.72246 0.38899 0.90894 0.0
H897 H 0.75783 0.3856 0.89795 0.0
H898 H 0.75051 0.32587 0.81063 0.0
H899 H 0.71494 0.32957 0.82126 0.0
C900 C 0.80783 0.34374 0.77012 0.0
C901 C 0.81971 0.35304 0.83391 0.0
C902 C 0.78753 0.34378 0.77862 0.0
C903 C 0.77864 0.35329 0.85093 0.0
C904 C 0.79059 0.36184 0.91697 0.0
C905 C 0.81093 0.36178 0.90838 0.0
C906 C 0.7285 0.37526 0.88613 0.0
C907 C 0.7161 0.35968 0.8641 0.0
C908 C 0.74872 0.3732 0.88098 0.0
C909 C 0.75704 0.35537 0.85453 0.0
C910 C 0.74457 0.33984 0.83064 0.0
C911 C 0.72425 0.34196 0.83578 0.0
H912 H 0.88905 0.72201 0.66354 0.0
H913 H 0.82922 0.71219 0.58562 0.0
H914 H 0.88407 0.75709 0.65563 0.0
H915 H 0.82403 0.74759 0.57766 0.0
H916 H 0.83358 0.81194 0.4753 0.0
H917 H 0.83403 0.77648 0.49144 0.0
H918 H 0.86708 0.7826 0.7359 0.0
H919 H 0.86722 0.81797 0.71736 0.0
C920 C 0.87483 0.72744 0.64415 0.0
C921 C 0.8596 0.71441 0.62416 0.0
C922 C 0.87189 0.74753 0.64056 0.0
C923 C 0.85356 0.75517 0.61744 0.0
C924 C 0.83835 0.74215 0.59542 0.0
C925 C 0.84134 0.72191 0.59904 0.0
C926 C 0.84058 0.80564 0.53336 0.0
C927 C 0.8502 0.81771 0.59548 0.0
C928 C 0.84078 0.78536 0.54281 0.0
C929 C 0.85077 0.77669 0.61439 0.0
C930 C 0.85948 0.78883 0.67923 0.0
C931 C 0.85928 0.80913 0.66966 0.0
H932 H 0.8174 0.16405 0.23864 0.0
H933 H 0.81294 0.19693 0.48329 0.0
H934 H 0.78194 0.16468 0.22275 0.0
H935 H 0.77742 0.19696 0.46984 0.0
H936 H 0.71318 0.20403 0.3769 0.0
H937 H 0.74878 0.208 0.38605 0.0
H938 H 0.75606 0.14806 0.30206 0.0
H939 H 0.7207 0.14443 0.29231 0.0
C940 C 0.80887 0.17191 0.28752 0.0
C941 C 0.8179 0.18066 0.36157 0.0
C942 C 0.78853 0.17197 0.2795 0.0
C943 C 0.77684 0.18064 0.3458 0.0
C944 C 0.78597 0.19026 0.4174 0.0
C945 C 0.80628 0.1902 0.42527 0.0
C946 C 0.72251 0.19167 0.36275 0.0
C947 C 0.71438 0.17383 0.33553 0.0
C948 C 0.74283 0.19394 0.36706 0.0
C949 C 0.75526 0.17842 0.34348 0.0
C950 C 0.74695 0.16045 0.31857 0.0
C951 C 0.72676 0.15825 0.3142 0.0
H952 H 0.16578 0.3215 0.50273 0.0
H953 H 0.19802 0.31639 0.74904 0.0
H954 H 0.16609 0.28604 0.48607 0.0
H955 H 0.19773 0.28089 0.73477 0.0
H956 H 0.20501 0.21687 0.64012 0.0
H957 H 0.20893 0.25244 0.65095 0.0
H958 H 0.1493 0.25989 0.56238 0.0
H959 H 0.14572 0.22454 0.55107 0.0
C960 C 0.17342 0.31282 0.55191 0.0
C961 C 0.18211 0.32168 0.62653 0.0
C962 C 0.17329 0.29249 0.54343 0.0
C963 C 0.18172 0.28061 0.60978 0.0
C964 C 0.19121 0.28957 0.68222 0.0
C965 C 0.19134 0.30987 0.69057 0.0
C966 C 0.19269 0.22622 0.62537 0.0
C967 C 0.17496 0.21813 0.59649 0.0
C968 C 0.19494 0.24653 0.63063 0.0
C969 C 0.1795 0.25902 0.60636 0.0
C970 C 0.16163 0.25075 0.57958 0.0
C971 C 0.15945 0.23055 0.57427 0.0
H972 H 0.31014 0.83452 0.21243 0.0
H973 H 0.3166 0.86693 0.45765 0.0
H974 H 0.27466 0.83507 0.2294 0.0
H975 H 0.28124 0.86692 0.47675 0.0
H976 H 0.22117 0.89027 0.40376 0.0
H977 H 0.25616 0.88479 0.3948 0.0
H978 H 0.24572 0.82485 0.31807 0.0
H979 H 0.2104 0.8305 0.32746 0.0
C980 C 0.30393 0.84125 0.2713 0.0
C981 C 0.31608 0.85052 0.33412 0.0
C982 C 0.28366 0.8415 0.2812 0.0
C983 C 0.27515 0.85122 0.35386 0.0
C984 C 0.28738 0.85954 0.41936 0.0
C985 C 0.30765 0.85926 0.40939 0.0
C986 C 0.22637 0.87596 0.38444 0.0
C987 C 0.21311 0.86088 0.36534 0.0
C988 C 0.2464 0.87274 0.38022 0.0
C989 C 0.25372 0.85429 0.35723 0.0
C990 C 0.24048 0.83924 0.33583 0.0
C991 C 0.2203 0.8425 0.34023 0.0
H992 H 0.22195 0.14737 0.76076 0.0
H993 H 0.22849 0.08605 0.70159 0.0
H994 H 0.25084 0.1465 0.85316 0.0
H995 H 0.25853 0.08535 0.79028 0.0
H996 H 0.30233 0.08598 0.02209 0.0
H997 H 0.27246 0.08586 0.93235 0.0
H998 H 0.28395 0.14557 0.85472 0.0
H999 H 0.31275 0.14594 0.94837 0.0
C1000 C 0.22987 0.13373 0.76572 0.0
C1001 C 0.22296 0.11681 0.72284 0.0
C1002 C 0.24663 0.13324 0.81882 0.0
C1003 C 0.25739 0.11589 0.82931 0.0
C1004 C 0.2506 0.09895 0.78528 0.0
C1005 C 0.23348 0.09937 0.7334 0.0
C1006 C 0.29822 0.09913 -0.01325 0.0
C1007 C 0.30975 0.11606 -0.00639 0.0
C1008 C 0.2812 0.09903 0.93424 0.0
C1009 C 0.27552 0.11573 0.88581 0.0
C1010 C 0.28731 0.13255 0.89247 0.0
C1011 C 0.30399 0.13277 0.94628 0.0
H1012 H 0.08206 0.72294 0.00249 0.0
H1013 H 0.14084 0.73766 0.92337 0.0
H1014 H 0.0811 0.75189 0.09795 0.0
H1015 H 0.13969 0.76675 0.01616 0.0
H1016 H 0.14181 0.80428 0.26193 0.0
H1017 H 0.14065 0.775 0.17007 0.0
H1018 H 0.08038 0.78692 0.10462 0.0
H1019 H 0.08139 0.81597 0.19906 0.0
C1020 C 0.09462 0.73256 0.00394 0.0
C1021 C 0.11154 0.72793 0.95535 0.0
C1022 C 0.09409 0.74917 0.05885 0.0
C1023 C 0.11044 0.76157 0.06618 0.0
C1024 C 0.12701 0.75732 0.01436 0.0
C1025 C 0.12758 0.74071 0.96013 0.0
C1026 C 0.12822 0.80053 0.22901 0.0
C1027 C 0.11171 0.81253 0.23798 0.0
C1028 C 0.1276 0.78382 0.17533 0.0
C1029 C 0.11051 0.77869 0.12835 0.0
C1030 C 0.09377 0.79031 0.13995 0.0
C1031 C 0.09435 0.807 0.19421 0.0
H1032 H 0.72798 0.94843 0.02345 0.0
H1033 H 0.71814 0.8889 0.93991 0.0
H1034 H 0.75787 0.9494 0.93376 0.0
H1035 H 0.74679 0.89016 0.84692 0.0
H1036 H 0.8087 0.88845 0.75981 0.0
H1037 H 0.77996 0.88929 0.85218 0.0
H1038 H 0.77205 0.95042 0.79033 0.0
H1039 H 0.80203 0.94976 0.70133 0.0
C1040 C 0.73221 0.93558 -0.01393 0.0
C1041 C 0.72092 0.91846 -0.00955 0.0
C1042 C 0.74922 0.93617 0.93375 0.0
C1043 C 0.75505 0.91978 0.88332 0.0
C1044 C 0.74335 0.9029 0.8867 0.0
C1045 C 0.72675 0.90217 0.94017 0.0
C1046 C 0.80079 0.90208 0.76493 0.0
C1047 C 0.80757 0.91899 0.722 0.0
C1048 C 0.78412 0.90256 0.818 0.0
C1049 C 0.77329 0.91986 0.8283 0.0
C1050 C 0.78002 0.93685 0.78496 0.0
C1051 C 0.79709 0.93645 0.73301 0.0
H1052 H 0.95046 0.30146 0.93261 0.0
H1053 H 0.89152 0.31264 0.01976 0.0
H1054 H 0.95102 0.27156 0.02247 0.0
H1055 H 0.89243 0.284 0.113 0.0
H1056 H 0.88929 0.22201 0.19906 0.0
H1057 H 0.89056 0.25093 0.10793 0.0
H1058 H 0.9522 0.257 0.16488 0.0
H1059 H 0.95106 0.22683 0.25256 0.0
C1060 C 0.93766 0.29753 0.97091 0.0
C1061 C 0.9208 0.30918 0.96732 0.0
C1062 C 0.93802 0.28051 0.02332 0.0
C1063 C 0.92167 0.27503 0.07472 0.0
C1064 C 0.90509 0.28714 0.07241 0.0
C1065 C 0.90458 0.30374 0.01881 0.0
C1066 C 0.90313 0.22955 0.19316 0.0
C1067 C 0.92003 0.22218 0.23427 0.0
C1068 C 0.90386 0.24634 0.14081 0.0
C1069 C 0.92144 0.2567 0.1294 0.0
C1070 C 0.93841 0.2494 0.17107 0.0
C1071 C 0.93774 0.23222 0.22229 0.0
H1072 H 0.29962 0.39377 0.18508 0.0
H1073 H 0.31552 0.45233 0.26411 0.0
H1074 H 0.27061 0.39558 0.27771 0.0
H1075 H 0.28656 0.45399 0.35904 0.0
H1076 H 0.22207 0.45411 0.4598 0.0
H1077 H 0.25105 0.45496 0.36485 0.0
H1078 H 0.26347 0.39506 0.43397 0.0
H1079 H 0.23442 0.39407 0.5266 0.0
C1080 C 0.29685 0.40712 0.22168 0.0
C1081 C 0.30998 0.42288 0.21722 0.0
C1082 C 0.28028 0.40809 0.27573 0.0
C1083 C 0.27639 0.42479 0.32749 0.0
C1084 C 0.28905 0.44091 0.32008 0.0
C1085 C 0.30566 0.43996 0.2655 0.0
C1086 C 0.23116 0.44122 0.45572 0.0
C1087 C 0.22584 0.424 0.50062 0.0
C1088 C 0.24779 0.44171 0.40114 0.0
C1089 C 0.25946 0.42498 0.3903 0.0
C1090 C 0.25457 0.40807 0.43864 0.0
C1091 C 0.23798 0.40757 0.49271 0.0
H1092 H 0.38686 0.7185 0.69067 0.0
H1093 H 0.44687 0.72864 0.7659 0.0
H1094 H 0.3875 0.74703 0.59606 0.0
H1095 H 0.44727 0.75826 0.67493 0.0
H1096 H 0.4473 0.8014 0.4407 0.0
H1097 H 0.44787 0.77172 0.53155 0.0
H1098 H 0.38686 0.78018 0.59429 0.0
H1099 H 0.38611 0.80866 0.49995 0.0
C1100 C 0.40009 0.72715 0.68879 0.0
C1101 C 0.41674 0.72139 0.73687 0.0
C1102 C 0.40048 0.74367 0.63438 0.0
C1103 C 0.41739 0.75531 0.62777 0.0
C1104 C 0.43403 0.74964 0.67689 0.0
C1105 C 0.43376 0.73277 0.73009 0.0
C1106 C 0.43399 0.79665 0.47295 0.0
C1107 C 0.4166 0.80724 0.46168 0.0
C1108 C 0.43433 0.77974 0.52604 0.0
C1109 C 0.41737 0.77327 0.57052 0.0
C1110 C 0.40012 0.78414 0.55956 0.0
C1111 C 0.39969 0.80067 0.50531 0.0
H1112 H 0.73552 0.64047 0.17071 0.0
H1113 H 0.72114 0.58205 0.25623 0.0
H1114 H 0.76467 0.63994 0.26352 0.0
H1115 H 0.75007 0.58173 0.35187 0.0
H1116 H 0.81384 0.58235 0.45421 0.0
H1117 H 0.78485 0.58099 0.35956 0.0
H1118 H 0.7735 0.64179 0.41588 0.0
H1119 H 0.8028 0.64329 0.5078 0.0
C1120 C 0.73865 0.62742 0.20892 0.0
C1121 C 0.72596 0.61129 0.20576 0.0
C1122 C 0.75529 0.62721 0.26321 0.0
C1123 C 0.75966 0.61092 0.31681 0.0
C1124 C 0.74731 0.5945 0.31134 0.0
C1125 C 0.73069 0.59466 0.2563 0.0
C1126 C 0.80502 0.59537 0.44728 0.0
C1127 C 0.81072 0.61295 0.48864 0.0
C1128 C 0.78834 0.59458 0.39289 0.0
C1129 C 0.77686 0.61133 0.37873 0.0
C1130 C 0.78219 0.6287 0.42309 0.0
C1131 C 0.79892 0.62952 0.47686 0.0
H1132 H 0.58381 0.22919 0.44012 0.0
H1133 H 0.6445 0.22038 0.50676 0.0
H1134 H 0.58372 0.25923 0.52912 0.0
H1135 H 0.64419 0.24927 0.599 0.0
H1136 H 0.64568 0.31137 0.68932 0.0
H1137 H 0.64442 0.28254 0.59628 0.0
H1138 H 0.5843 0.27308 0.67277 0.0
H1139 H 0.58535 0.30297 0.76235 0.0
C1140 C 0.59711 0.23368 0.47358 0.0
C1141 C 0.61423 0.22256 0.46492 0.0
C1142 C 0.59704 0.25079 0.52555 0.0
C1143 C 0.614 0.25694 0.57134 0.0
C1144 C 0.63097 0.24553 0.5631 0.0
C1145 C 0.63114 0.22879 0.51007 0.0
C1146 C 0.63222 0.30306 0.68723 0.0
C1147 C 0.61569 0.30937 0.73435 0.0
C1148 C 0.63149 0.28637 0.63374 0.0
C1149 C 0.61431 0.27514 0.62712 0.0
C1150 C 0.59774 0.28139 0.67496 0.0
C1151 C 0.59838 0.29841 0.72731 0.0
H1152 H 0.33982 0.13838 0.40227 0.0
H1153 H 0.3741 0.08576 0.37814 0.0
H1154 H 0.34773 0.13994 0.56122 0.0
H1155 H 0.38347 0.08821 0.53256 0.0
H1156 H 0.38076 0.08595 0.83087 0.0
H1157 H 0.37356 0.08427 0.67445 0.0
H1158 H 0.37301 0.1474 0.66042 0.0
H1159 H 0.37853 0.14901 0.82122 0.0
C1160 C 0.34879 0.12704 0.43146 0.0
C1161 C 0.35606 0.11179 0.37877 0.0
C1162 C 0.35371 0.12814 0.52176 0.0
C1163 C 0.36645 0.11433 0.55975 0.0
C1164 C 0.37329 0.09888 0.5067 0.0
C1165 C 0.36785 0.09742 0.41779 0.0
C1166 C 0.37942 0.09955 0.79455 0.0
C1167 C 0.37988 0.11763 0.83868 0.0
C1168 C 0.37535 0.09858 0.70408 0.0
C1169 C 0.37238 0.1157 0.65457 0.0
C1170 C 0.37459 0.1339 0.69718 0.0
C1171 C 0.37814 0.13486 0.78888 0.0
H1172 H 0.1428 0.69218 0.5719 0.0
H1173 H 0.08236 0.67401 0.55842 0.0
H1174 H 0.14646 0.68606 0.41528 0.0
H1175 H 0.08553 0.66952 0.39744 0.0
H1176 H 0.10296 0.63958 0.14126 0.0
H1177 H 0.09932 0.6469 0.2999 0.0
H1178 H 0.14055 0.69451 0.27243 0.0
H1179 H 0.14533 0.68595 0.11781 0.0
C1180 C 0.13004 0.68749 0.53467 0.0
C1181 C 0.11237 0.68318 0.57776 0.0
C1182 C 0.13213 0.68408 0.4441 0.0
C1183 C 0.1164 0.67693 0.39353 0.0
C1184 C 0.09814 0.67439 0.43508 0.0
C1185 C 0.09618 0.67733 0.52687 0.0
C1186 C 0.11171 0.6511 0.1708 0.0
C1187 C 0.12472 0.66194 0.11857 0.0
C1188 C 0.10931 0.65563 0.26083 0.0
C1189 C 0.11942 0.6715 0.29896 0.0
C1190 C 0.13279 0.68195 0.24638 0.0
C1191 C 0.13566 0.67698 0.15757 0.0
H1192 H 0.68357 0.88844 0.37886 0.0
H1193 H 0.67043 0.9501 0.39299 0.0
H1194 H 0.67718 0.88514 0.53545 0.0
H1195 H 0.66564 0.94715 0.55376 0.0
H1196 H 0.63432 0.93203 0.80897 0.0
H1197 H 0.64191 0.93509 0.65048 0.0
H1198 H 0.6861 0.89033 0.67886 0.0
H1199 H 0.67722 0.88626 0.83357 0.0
C1200 C 0.67995 0.9015 0.41619 0.0
C1201 C 0.67714 0.91949 0.37328 0.0
C1202 C 0.67637 0.8996 0.50673 0.0
C1203 C 0.67052 0.9158 0.55741 0.0
C1204 C 0.66946 0.93422 0.51604 0.0
C1205 C 0.67258 0.93603 0.42435 0.0
C1206 C 0.64512 0.92242 0.77972 0.0
C1207 C 0.6549 0.90864 0.83225 0.0
C1208 C 0.64983 0.92446 0.68974 0.0
C1209 C 0.66484 0.91317 0.6519 0.0
C1210 C 0.67421 0.89904 0.70473 0.0
C1211 C 0.66904 0.89658 0.79355 0.0
H1212 H 0.93502 0.39561 0.14613 0.0
H1213 H 0.8886 0.35327 0.12141 0.0
H1214 H 0.93802 0.388 0.30472 0.0
H1215 H 0.89261 0.34435 0.27605 0.0
H1216 H 0.89098 0.34639 0.5758 0.0
H1217 H 0.88767 0.35307 0.41942 0.0
H1218 H 0.94977 0.36427 0.40202 0.0
H1219 H 0.95274 0.35922 0.56269 0.0
C1220 C 0.92526 0.38493 0.17533 0.0
C1221 C 0.91132 0.37531 0.12264 0.0
C1222 C 0.92726 0.38021 0.26541 0.0
C1223 C 0.91577 0.36533 0.30327 0.0
C1224 C 0.90148 0.35614 0.25028 0.0
C1225 C 0.89906 0.36133 0.1614 0.0
C1226 C 0.90405 0.34999 0.53871 0.0
C1227 C 0.92208 0.35262 0.58192 0.0
C1228 C 0.90215 0.35375 0.44825 0.0
C1229 C 0.91838 0.35958 0.39783 0.0
C1230 C 0.93682 0.36047 0.43948 0.0
C1231 C 0.93864 0.35718 0.53112 0.0
H1232 H 0.38784 0.43911 0.38805 0.0
H1233 H 0.3694 0.37877 0.40118 0.0
H1234 H 0.38156 0.44298 0.54428 0.0
H1235 H 0.36474 0.38215 0.56195 0.0
H1236 H 0.33529 0.40009 0.81902 0.0
H1237 H 0.34229 0.39619 0.66014 0.0
H1238 H 0.39035 0.43697 0.68654 0.0
H1239 H 0.38217 0.44196 0.84089 0.0
C1240 C 0.38307 0.42641 0.42512 0.0
C1241 C 0.37875 0.40871 0.38201 0.0
C1242 C 0.37955 0.42862 0.51548 0.0
C1243 C 0.37232 0.41297 0.56591 0.0
C1244 C 0.3697 0.39469 0.52439 0.0
C1245 C 0.37274 0.39261 0.43274 0.0
C1246 C 0.34683 0.4087 0.78917 0.0
C1247 C 0.35789 0.42168 0.84108 0.0
C1248 C 0.35117 0.40615 0.699 0.0
C1249 C 0.36705 0.41609 0.66049 0.0
C1250 C 0.37775 0.42938 0.71281 0.0
C1251 C 0.37298 0.43239 0.80162 0.0
H1252 H 0.44964 0.67868 0.1396 0.0
H1253 H 0.3866 0.67579 0.12576 0.0
H1254 H 0.4481 0.6731 0.30032 0.0
H1255 H 0.38515 0.66862 0.28212 0.0
H1256 H 0.38615 0.67058 0.57809 0.0
H1257 H 0.38824 0.67965 0.42367 0.0
H1258 H 0.44213 0.64713 0.39873 0.0
H1259 H 0.44083 0.63951 0.5579 0.0
C1260 C 0.4355 0.67714 0.17104 0.0
C1261 C 0.41828 0.67752 0.12023 0.0
C1262 C 0.43461 0.67358 0.26259 0.0
C1263 C 0.41653 0.67001 0.30387 0.0
C1264 C 0.39933 0.67153 0.25333 0.0
C1265 C 0.40018 0.6756 0.163 0.0
C1266 C 0.39825 0.66498 0.53946 0.0
C1267 C 0.41329 0.65423 0.57961 0.0
C1268 C 0.39949 0.67025 0.45051 0.0
C1269 C 0.41541 0.66422 0.39857 0.0
C1270 C 0.42993 0.65245 0.43752 0.0
C1271 C 0.42901 0.64772 0.52791 0.0
H1272 H 0.68939 0.64189 0.82142 0.0
H1273 H 0.67312 0.58094 0.8079 0.0
H1274 H 0.68326 0.64537 0.66467 0.0
H1275 H 0.66862 0.58397 0.64682 0.0
H1276 H 0.63813 0.60063 0.39036 0.0
H1277 H 0.6456 0.59708 0.54895 0.0
H1278 H 0.69198 0.6397 0.52197 0.0
H1279 H 0.68326 0.64437 0.36745 0.0
C1280 C 0.68513 0.629 0.78416 0.0
C1281 C 0.68134 0.61121 0.82725 0.0
C1282 C 0.68171 0.63098 0.69351 0.0
C1283 C 0.67509 0.61504 0.64289 0.0
C1284 C 0.67308 0.59672 0.68448 0.0
C1285 C 0.67603 0.59485 0.77634 0.0
C1286 C 0.64941 0.60968 0.41995 0.0
C1287 C 0.65985 0.62304 0.36786 0.0
C1288 C 0.65404 0.60735 0.50997 0.0
C1289 C 0.6696 0.6179 0.54825 0.0
C1290 C 0.67966 0.63159 0.4958 0.0
C1291 C 0.67459 0.63439 0.40703 0.0
H1292 H 0.64724 0.35493 0.57861 0.0
H1293 H 0.59926 0.39536 0.55417 0.0
H1294 H 0.64359 0.34584 0.42385 0.0
H1295 H 0.59656 0.3876 0.3955 0.0
H1296 H 0.58303 0.3582 0.13706 0.0
H1297 H 0.58576 0.36339 0.2978 0.0
H1298 H 0.64825 0.35479 0.28065 0.0
H1299 H 0.64525 0.34798 0.12414 0.0
C1300 C 0.63648 0.36256 0.53867 0.0
C1301 C 0.6237 0.37605 0.57754 0.0
C1302 C 0.63428 0.35726 0.44973 0.0
C1303 C 0.61966 0.36586 0.39678 0.0
C1304 C 0.60761 0.38026 0.43477 0.0
C1305 C 0.60941 0.38508 0.52491 0.0
C1306 C 0.59719 0.35676 0.16868 0.0
C1307 C 0.61393 0.35289 0.11792 0.0
C1308 C 0.59885 0.36012 0.26038 0.0
C1309 C 0.6173 0.36001 0.30212 0.0
C1310 C 0.63376 0.35486 0.25173 0.0
C1311 C 0.63204 0.35102 0.1612 0.0
H1312 H 0.84919 0.64312 0.87399 0.0
H1313 H 0.86153 0.58128 0.88596 0.0
H1314 H 0.85566 0.64615 0.03073 0.0
H1315 H 0.86638 0.58398 0.04696 0.0
H1316 H 0.89789 0.59858 0.3036 0.0
H1317 H 0.89028 0.59568 0.14482 0.0
H1318 H 0.84654 0.64086 0.17337 0.0
H1319 H 0.85545 0.64478 0.32815 0.0
C1320 C 0.85263 0.62998 0.91088 0.0
C1321 C 0.85521 0.612 0.86737 0.0
C1322 C 0.85626 0.63171 0.0015 0.0
C1323 C 0.8619 0.61538 0.05165 0.0
C1324 C 0.86271 0.59699 0.00964 0.0
C1325 C 0.85956 0.59534 0.91784 0.0
C1326 C 0.88719 0.6083 0.27434 0.0
C1327 C 0.87755 0.62216 0.32696 0.0
C1328 C 0.88247 0.60636 0.1842 0.0
C1329 C 0.86758 0.61784 0.14632 0.0
C1330 C 0.85834 0.63202 0.19928 0.0
C1331 C 0.86353 0.63439 0.2882 0.0
H1332 H 0.64534 0.17828 0.62294 0.0
H1333 H 0.59915 0.13571 0.64636 0.0
H1334 H 0.64132 0.18717 0.77783 0.0
H1335 H 0.59615 0.14328 0.805 0.0
H1336 H 0.5813 0.17183 0.06291 0.0
H1337 H 0.58426 0.16702 0.90207 0.0
H1338 H 0.64635 0.17834 0.92115 0.0
H1339 H 0.64304 0.18478 0.07777 0.0
C1340 C 0.63494 0.17017 0.66276 0.0
C1341 C 0.62274 0.15613 0.62369 0.0
C1342 C 0.63252 0.17534 0.75168 0.0
C1343 C 0.61828 0.16607 0.80422 0.0
C1344 C 0.60686 0.15113 0.76599 0.0
C1345 C 0.60886 0.14643 0.67593 0.0
C1346 C 0.59539 0.17394 0.0317 0.0
C1347 C 0.61195 0.17844 0.08298 0.0
C1348 C 0.5972 0.1708 0.93996 0.0
C1349 C 0.61565 0.17178 0.89878 0.0
C1350 C 0.63187 0.17758 0.9497 0.0
C1351 C 0.62997 0.18119 0.04026 0.0
H1352 H 0.16482 0.38352 0.31657 0.0
H1353 H 0.14735 0.4441 0.32888 0.0
H1354 H 0.16937 0.38658 0.15559 0.0
H1355 H 0.15362 0.44769 0.17264 0.0
H1356 H 0.15413 0.44712 0.87631 0.0
H1357 H 0.14534 0.44214 0.03006 0.0
H1358 H 0.19199 0.3999 0.05741 0.0
H1359 H 0.19942 0.40367 0.89907 0.0
C1360 C 0.16166 0.39735 0.28477 0.0
C1361 C 0.156 0.41361 0.33534 0.0
C1362 C 0.16465 0.39925 0.19297 0.0
C1363 C 0.16235 0.41752 0.15116 0.0
C1364 C 0.15539 0.43333 0.20147 0.0
C1365 C 0.1519 0.43129 0.29193 0.0
C1366 C 0.16283 0.43714 0.91571 0.0
C1367 C 0.17761 0.42596 0.87654 0.0
C1368 C 0.15774 0.43417 0.0042 0.0
C1369 C 0.16786 0.4205 0.05665 0.0
C1370 C 0.18349 0.41014 0.0185 0.0
C1371 C 0.18811 0.41261 0.92862 0.0
H1372 H 0.38711 0.84473 0.07176 0.0
H1373 H 0.4489 0.85746 0.05912 0.0
H1374 H 0.3839 0.85124 0.91521 0.0
H1375 H 0.44603 0.86235 0.89827 0.0
H1376 H 0.3848 0.85128 0.61783 0.0
H1377 H 0.38897 0.84231 0.77222 0.0
H1378 H 0.43428 0.88607 0.80056 0.0
H1379 H 0.43113 0.89373 0.64205 0.0
C1380 C 0.40021 0.84827 0.03474 0.0
C1381 C 0.41821 0.85094 0.07808 0.0
C1382 C 0.39837 0.85193 0.94419 0.0
C1383 C 0.41464 0.85768 0.89386 0.0
C1384 C 0.43306 0.85858 0.93567 0.0
C1385 C 0.43481 0.8554 0.02741 0.0
C1386 C 0.39528 0.85935 0.65764 0.0
C1387 C 0.40746 0.8734 0.61882 0.0
C1388 C 0.39779 0.85413 0.74639 0.0
C1389 C 0.41206 0.86336 0.79925 0.0
C1390 C 0.42351 0.87826 0.76132 0.0
C1391 C 0.42143 0.88301 0.67131 0.0
H1392 H 0.83452 0.897 0.31784 0.0
H1393 H 0.87474 0.94539 0.33672 0.0
H1394 H 0.84194 0.89375 0.15928 0.0
H1395 H 0.8838 0.94096 0.18339 0.0
H1396 H 0.88276 0.94164 0.88588 0.0
H1397 H 0.87559 0.94501 0.04112 0.0
H1398 H 0.8652 0.88276 0.05971 0.0
H1399 H 0.87046 0.87978 0.89912 0.0
C1400 C 0.84472 0.9071 0.28755 0.0
C1401 C 0.85386 0.92161 0.3389 0.0
C1402 C 0.84937 0.90496 0.19743 0.0
C1403 C 0.86373 0.91688 0.15818 0.0
C1404 C 0.87238 0.93173 0.20982 0.0
C1405 C 0.86715 0.93434 0.29841 0.0
C1406 C 0.8792 0.92854 0.9229 0.0
C1407 C 0.87681 0.91048 0.87981 0.0
C1408 C 0.87518 0.93047 0.01296 0.0
C1409 C 0.8695 0.91422 0.06361 0.0
C1410 C 0.86889 0.89573 0.0222 0.0
C1411 C 0.87232 0.8939 0.93062 0.0
H1412 H 0.87931 0.16083 0.05284 0.0
H1413 H 0.94049 0.14557 0.06733 0.0
H1414 H 0.88247 0.16562 0.89206 0.0
H1415 H 0.94406 0.15201 0.91111 0.0
H1416 H 0.94324 0.15142 0.61462 0.0
H1417 H 0.93855 0.14294 0.76879 0.0
H1418 H 0.89534 0.18872 0.79378 0.0
H1419 H 0.89899 0.19595 0.63502 0.0
C1420 C 0.8933 0.15821 0.02156 0.0
C1421 C 0.90968 0.15305 0.07267 0.0
C1422 C 0.89524 0.16133 0.92991 0.0
C1423 C 0.91362 0.15966 0.88875 0.0
C1424 C 0.92961 0.15328 0.93959 0.0
C1425 C 0.92757 0.14967 0.02995 0.0
C1426 C 0.93317 0.16007 0.65355 0.0
C1427 C 0.92174 0.17457 0.61371 0.0
C1428 C 0.93035 0.15512 0.74226 0.0
C1429 C 0.91649 0.16508 0.79416 0.0
C1430 C 0.90577 0.18039 0.75526 0.0
C1431 C 0.90816 0.18488 0.66517 0.0
H1432 H 0.16016 0.15569 0.90232 0.0
H1433 H 0.14727 0.09393 0.88837 0.0
H1434 H 0.1651 0.1528 0.0632 0.0
H1435 H 0.1539 0.09069 0.04467 0.0
H1436 H 0.15318 0.09157 0.34076 0.0
H1437 H 0.14456 0.0959 0.18654 0.0
H1438 H 0.18867 0.14093 0.16222 0.0
H1439 H 0.196 0.1376 0.3212 0.0
C1440 C 0.15809 0.14162 0.93374 0.0
C1441 C 0.15355 0.12502 0.88277 0.0
C1442 C 0.16131 0.13985 0.02544 0.0
C1443 C 0.16035 0.12143 0.06677 0.0
C1444 C 0.15459 0.10517 0.01605 0.0
C1445 C 0.15087 0.10702 0.92564 0.0
C1446 C 0.16144 0.10199 0.30207 0.0
C1447 C 0.17548 0.11402 0.34221 0.0
C1448 C 0.15641 0.1046 0.21326 0.0
C1449 C 0.16585 0.11883 0.16149 0.0
C1450 C 0.18074 0.13018 0.20065 0.0
C1451 C 0.18529 0.12799 0.29088 0.0
H1452 H 0.1354 0.842 0.63454 0.0
H1453 H 0.08428 0.87865 0.61758 0.0
H1454 H 0.13786 0.84901 0.79394 0.0
H1455 H 0.08778 0.8873 0.77223 0.0
H1456 H 0.08701 0.88465 0.06929 0.0
H1457 H 0.08417 0.87746 0.91363 0.0
H1458 H 0.14712 0.87348 0.89332 0.0
H1459 H 0.1498 0.87881 0.05403 0.0
C1460 C 0.12457 0.85132 0.6654 0.0
C1461 C 0.10956 0.85965 0.6145 0.0
C1462 C 0.12622 0.85572 0.75595 0.0
C1463 C 0.11322 0.86899 0.79589 0.0
C1464 C 0.09786 0.87674 0.74479 0.0
C1465 C 0.0958 0.87176 0.65564 0.0
C1466 C 0.10035 0.88253 0.03184 0.0
C1467 C 0.11864 0.88199 0.07419 0.0
C1468 C 0.09871 0.87849 0.94171 0.0
C1469 C 0.11539 0.87462 0.89061 0.0
C1470 C 0.13391 0.87576 0.9314 0.0
C1471 C 0.13551 0.87921 0.02296 0.0
loop_
_geom_bond_atom_site_label_1
_geom_bond_atom_site_label_2
_geom_bond_distance
_geom_bond_site_symmetry_2
_ccdc_geom_bond_type
Zn0 O1 2.055 1_554 S
Zn0 O8 2.046 . S
Zn0 N16 2.036 . S
Zn0 O28 2.053 . S
Zn0 O30 2.066 . S
O1 Zn0 2.055 1_556 S
O1 C4 1.259 . S
C2 O30 1.256 . S
C2 O31 1.244 . S
Zn3 O5 2.046 1_554 S
Zn3 O7 2.055 . S
Zn3 N9 2.036 . S
Zn3 O27 2.066 . S
Zn3 O31 2.053 . S
C4 O1 1.259 . S
C4 O5 1.254 . S
O5 Zn3 2.046 1_556 S
O5 C4 1.254 . S
C6 O27 1.256 . S
C6 O28 1.244 . S
O7 Zn3 2.055 . S
O7 C29 1.259 . S
O8 Zn0 2.046 . S
O8 C29 1.254 . S
N9 Zn3 2.036 . S
N9 C10 1.298 . S
N9 N12 1.398 . S
C10 N9 1.298 . S
C10 N13 1.367 . S
C10 C23 1.481 . S
C11 N12 1.299 . S
C11 N13 1.379 . S
N12 N9 1.398 . S
N12 C11 1.299 . S
N13 C10 1.367 . S
N13 C11 1.379 . S
C14 N16 1.298 . S
C14 N18 1.367 . S
C14 C22 1.481 1_554 S
C15 N17 1.299 . S
C15 N18 1.379 . S
N16 Zn0 2.036 . S
N16 C14 1.298 . S
N16 N17 1.398 . S
N17 C15 1.299 . S
N17 N16 1.398 . S
N18 C14 1.367 . S
N18 C15 1.379 . S
H19 C22 0.980 . S
H20 C22 0.981 . S
H21 C22 0.981 . S
C22 C14 1.481 1_556 S
C22 H19 0.980 . S
C22 H20 0.981 . S
C22 H21 0.981 . S
C23 C10 1.481 . S
C23 H24 0.980 . S
C23 H25 0.981 . S
C23 H26 0.981 . S
H24 C23 0.980 . S
H25 C23 0.981 . S
H26 C23 0.981 . S
O27 Zn3 2.066 . S
O27 C6 1.256 . S
O28 Zn0 2.053 . S
O28 C6 1.244 . S
C29 O7 1.259 . S
C29 O8 1.254 . S
O30 Zn0 2.066 . S
O30 C2 1.256 . S
O31 C2 1.244 . S
O31 Zn3 2.053 . S
Zn32 O33 2.055 1_556 S
Zn32 O40 2.046 . S
Zn32 N48 2.036 . S
Zn32 O60 2.053 . S
Zn32 O62 2.066 . S
O33 Zn32 2.055 1_554 S
O33 C36 1.259 . S
C34 O62 1.256 . S
C34 O63 1.244 . S
Zn35 O37 2.046 1_556 S
Zn35 O39 2.055 . S
Zn35 N41 2.036 . S
Zn35 O59 2.066 . S
Zn35 O63 2.053 . S
C36 O33 1.259 . S
C36 O37 1.254 . S
O37 Zn35 2.046 1_554 S
O37 C36 1.254 . S
C38 O59 1.256 . S
C38 O60 1.244 . S
O39 Zn35 2.055 . S
O39 C61 1.259 . S
O40 Zn32 2.046 . S
O40 C61 1.254 . S
N41 Zn35 2.036 . S
N41 C42 1.298 . S
N41 N44 1.398 . S
C42 N41 1.298 . S
C42 N45 1.367 . S
C42 C55 1.481 . S
C43 N44 1.299 . S
C43 N45 1.379 . S
N44 N41 1.398 . S
N44 C43 1.299 . S
N45 C42 1.367 . S
N45 C43 1.379 . S
C46 N48 1.298 . S
C46 N50 1.367 . S
C46 C54 1.481 1_556 S
C47 N49 1.299 . S
C47 N50 1.379 . S
N48 Zn32 2.036 . S
N48 C46 1.298 . S
N48 N49 1.398 . S
N49 C47 1.299 . S
N49 N48 1.398 . S
N50 C46 1.367 . S
N50 C47 1.379 . S
H51 C54 0.980 . S
H52 C54 0.981 . S
H53 C54 0.981 . S
C54 C46 1.481 1_554 S
C54 H51 0.980 . S
C54 H52 0.981 . S
C54 H53 0.981 . S
C55 C42 1.481 . S
C55 H56 0.980 . S
C55 H57 0.981 . S
C55 H58 0.981 . S
H56 C55 0.980 . S
H57 C55 0.981 . S
H58 C55 0.981 . S
O59 Zn35 2.066 . S
O59 C38 1.256 . S
O60 Zn32 2.053 . S
O60 C38 1.244 . S
C61 O39 1.259 . S
C61 O40 1.254 . S
O62 Zn32 2.066 . S
O62 C34 1.256 . S
O63 C34 1.244 . S
O63 Zn35 2.053 . S
Zn64 O65 2.055 . S
Zn64 O72 2.046 1_554 S
Zn64 N80 2.036 . S
Zn64 O92 2.053 . S
Zn64 O94 2.066 . S
O65 Zn64 2.055 . S
O65 C68 1.259 . S
C66 O94 1.256 . S
C66 O95 1.244 . S
Zn67 O69 2.046 . S
Zn67 O71 2.055 1_554 S
Zn67 N73 2.036 . S
Zn67 O91 2.066 . S
Zn67 O95 2.053 . S
C68 O65 1.259 . S
C68 O69 1.254 . S
O69 Zn67 2.046 . S
O69 C68 1.254 . S
C70 O91 1.256 . S
C70 O92 1.244 . S
O71 Zn67 2.055 1_556 S
O71 C93 1.259 . S
O72 Zn64 2.046 1_556 S
O72 C93 1.254 . S
N73 Zn67 2.036 . S
N73 C74 1.298 . S
N73 N76 1.398 . S
C74 N73 1.298 . S
C74 N77 1.367 . S
C74 C87 1.481 1_554 S
C75 N76 1.299 . S
C75 N77 1.379 . S
N76 N73 1.398 . S
N76 C75 1.299 . S
N77 C74 1.367 . S
N77 C75 1.379 . S
C78 N80 1.298 . S
C78 N82 1.367 . S
C78 C86 1.481 . S
C79 N81 1.299 . S
C79 N82 1.379 . S
N80 Zn64 2.036 . S
N80 C78 1.298 . S
N80 N81 1.398 . S
N81 C79 1.299 . S
N81 N80 1.398 . S
N82 C78 1.367 . S
N82 C79 1.379 . S
H83 C86 0.980 . S
H84 C86 0.981 . S
H85 C86 0.981 . S
C86 C78 1.481 . S
C86 H83 0.980 . S
C86 H84 0.981 . S
C86 H85 0.981 . S
C87 C74 1.481 1_556 S
C87 H88 0.980 . S
C87 H89 0.981 . S
C87 H90 0.981 . S
H88 C87 0.980 . S
H89 C87 0.981 . S
H90 C87 0.981 . S
O91 Zn67 2.066 . S
O91 C70 1.256 . S
O92 Zn64 2.053 . S
O92 C70 1.244 . S
C93 O71 1.259 . S
C93 O72 1.254 . S
O94 Zn64 2.066 . S
O94 C66 1.256 . S
O95 C66 1.244 . S
O95 Zn67 2.053 . S
Zn96 O97 2.055 . S
Zn96 O104 2.046 1_556 S
Zn96 N112 2.036 . S
Zn96 O124 2.053 . S
Zn96 O126 2.066 . S
O97 Zn96 2.055 . S
O97 C100 1.259 . S
C98 O126 1.256 . S
C98 O127 1.244 . S
Zn99 O101 2.046 . S
Zn99 O103 2.055 1_556 S
Zn99 N105 2.036 . S
Zn99 O123 2.066 . S
Zn99 O127 2.053 . S
C100 O97 1.259 . S
C100 O101 1.254 . S
O101 Zn99 2.046 . S
O101 C100 1.254 . S
C102 O123 1.256 . S
C102 O124 1.244 . S
O103 Zn99 2.055 1_554 S
O103 C125 1.259 . S
O104 Zn96 2.046 1_554 S
O104 C125 1.254 . S
N105 Zn99 2.036 . S
N105 C106 1.298 . S
N105 N108 1.398 . S
C106 N105 1.298 . S
C106 N109 1.367 . S
C106 C119 1.481 1_556 S
C107 N108 1.299 . S
C107 N109 1.379 . S
N108 N105 1.398 . S
N108 C107 1.299 . S
N109 C106 1.367 . S
N109 C107 1.379 . S
C110 N112 1.298 . S
C110 N114 1.367 . S
C110 C118 1.481 . S
C111 N113 1.299 . S
C111 N114 1.379 . S
N112 Zn96 2.036 . S
N112 C110 1.298 . S
N112 N113 1.398 . S
N113 C111 1.299 . S
N113 N112 1.398 . S
N114 C110 1.367 . S
N114 C111 1.379 . S
H115 C118 0.980 . S
H116 C118 0.981 . S
H117 C118 0.981 . S
C118 C110 1.481 . S
C118 H115 0.980 . S
C118 H116 0.981 . S
C118 H117 0.981 . S
C119 C106 1.481 1_554 S
C119 H120 0.980 . S
C119 H121 0.981 . S
C119 H122 0.981 . S
H120 C119 0.980 . S
H121 C119 0.981 . S
H122 C119 0.981 . S
O123 Zn99 2.066 . S
O123 C102 1.256 . S
O124 Zn96 2.053 . S
O124 C102 1.244 . S
C125 O103 1.259 . S
C125 O104 1.254 . S
O126 Zn96 2.066 . S
O126 C98 1.256 . S
O127 C98 1.244 . S
O127 Zn99 2.053 . S
Zn128 O129 2.055 . S
Zn128 O136 2.046 . S
Zn128 N144 2.036 . S
Zn128 O156 2.053 1_554 S
Zn128 O158 2.066 . S
O129 Zn128 2.055 . S
O129 C132 1.259 . S
C130 O158 1.256 . S
C130 O159 1.244 . S
Zn131 O133 2.046 . S
Zn131 O135 2.055 . S
Zn131 N137 2.036 . S
Zn131 O155 2.066 1_554 S
Zn131 O159 2.053 . S
C132 O129 1.259 . S
C132 O133 1.254 . S
O133 Zn131 2.046 . S
O133 C132 1.254 . S
C134 O155 1.256 . S
C134 O156 1.244 . S
O135 Zn131 2.055 . S
O135 C157 1.259 . S
O136 Zn128 2.046 . S
O136 C157 1.254 . S
N137 Zn131 2.036 . S
N137 C138 1.298 . S
N137 N140 1.398 . S
C138 N137 1.298 . S
C138 N141 1.367 . S
C138 C151 1.481 . S
C139 N140 1.299 . S
C139 N141 1.379 . S
N140 N137 1.398 . S
N140 C139 1.299 . S
N141 C138 1.367 . S
N141 C139 1.379 . S
C142 N144 1.298 . S
C142 N146 1.367 . S
C142 C150 1.481 . S
C143 N145 1.299 . S
C143 N146 1.379 . S
N144 Zn128 2.036 . S
N144 C142 1.298 . S
N144 N145 1.398 . S
N145 C143 1.299 . S
N145 N144 1.398 . S
N146 C142 1.367 . S
N146 C143 1.379 . S
H147 C150 0.980 . S
H148 C150 0.981 . S
H149 C150 0.981 . S
C150 C142 1.481 . S
C150 H147 0.980 . S
C150 H148 0.981 . S
C150 H149 0.981 . S
C151 C138 1.481 . S
C151 H152 0.980 . S
C151 H153 0.981 . S
C151 H154 0.981 1_554 S
H152 C151 0.980 . S
H153 C151 0.981 . S
H154 C151 0.981 1_556 S
O155 Zn131 2.066 1_556 S
O155 C134 1.256 . S
O156 Zn128 2.053 1_556 S
O156 C134 1.244 . S
C157 O135 1.259 . S
C157 O136 1.254 . S
O158 Zn128 2.066 . S
O158 C130 1.256 . S
O159 C130 1.244 . S
O159 Zn131 2.053 . S
Zn160 O161 2.055 . S
Zn160 O168 2.046 . S
Zn160 N176 2.036 . S
Zn160 O188 2.053 . S
Zn160 O190 2.066 1_556 S
O161 Zn160 2.055 . S
O161 C164 1.259 . S
C162 O190 1.256 . S
C162 O191 1.244 . S
Zn163 O165 2.046 . S
Zn163 O167 2.055 . S
Zn163 N169 2.036 . S
Zn163 O187 2.066 . S
Zn163 O191 2.053 1_556 S
C164 O161 1.259 . S
C164 O165 1.254 . S
O165 Zn163 2.046 . S
O165 C164 1.254 . S
C166 O187 1.256 . S
C166 O188 1.244 . S
O167 Zn163 2.055 . S
O167 C189 1.259 . S
O168 Zn160 2.046 . S
O168 C189 1.254 . S
N169 Zn163 2.036 . S
N169 C170 1.298 . S
N169 N172 1.398 . S
C170 N169 1.298 . S
C170 N173 1.367 . S
C170 C183 1.481 . S
C171 N172 1.299 . S
C171 N173 1.379 . S
N172 N169 1.398 . S
N172 C171 1.299 . S
N173 C170 1.367 . S
N173 C171 1.379 . S
C174 N176 1.298 . S
C174 N178 1.367 . S
C174 C182 1.481 . S
C175 N177 1.299 . S
C175 N178 1.379 . S
N176 Zn160 2.036 . S
N176 C174 1.298 . S
N176 N177 1.398 . S
N177 C175 1.299 . S
N177 N176 1.398 . S
N178 C174 1.367 . S
N178 C175 1.379 . S
H179 C182 0.980 . S
H180 C182 0.981 . S
H181 C182 0.981 1_554 S
C182 C174 1.481 . S
C182 H179 0.980 . S
C182 H180 0.981 . S
C182 H181 0.981 1_556 S
C183 C170 1.481 . S
C183 H184 0.980 . S
C183 H185 0.981 . S
C183 H186 0.981 . S
H184 C183 0.980 . S
H185 C183 0.981 . S
H186 C183 0.981 . S
O187 Zn163 2.066 . S
O187 C166 1.256 . S
O188 Zn160 2.053 . S
O188 C166 1.244 . S
C189 O167 1.259 . S
C189 O168 1.254 . S
O190 Zn160 2.066 1_554 S
O190 C162 1.256 . S
O191 C162 1.244 . S
O191 Zn163 2.053 1_554 S
Zn192 O193 2.055 . S
Zn192 O200 2.046 . S
Zn192 N208 2.036 . S
Zn192 O220 2.053 1_554 S
Zn192 O222 2.066 . S
O193 Zn192 2.055 . S
O193 C196 1.259 . S
C194 O222 1.256 . S
C194 O223 1.244 . S
Zn195 O197 2.046 . S
Zn195 O199 2.055 . S
Zn195 N201 2.036 . S
Zn195 O219 2.066 1_554 S
Zn195 O223 2.053 . S
C196 O193 1.259 . S
C196 O197 1.254 . S
O197 Zn195 2.046 . S
O197 C196 1.254 . S
C198 O219 1.256 . S
C198 O220 1.244 . S
O199 Zn195 2.055 . S
O199 C221 1.259 . S
O200 Zn192 2.046 . S
O200 C221 1.254 . S
N201 Zn195 2.036 . S
N201 C202 1.298 . S
N201 N204 1.398 . S
C202 N201 1.298 . S
C202 N205 1.367 . S
C202 C215 1.481 . S
C203 N204 1.299 . S
C203 N205 1.379 . S
N204 N201 1.398 . S
N204 C203 1.299 . S
N205 C202 1.367 . S
N205 C203 1.379 . S
C206 N208 1.298 . S
C206 N210 1.367 . S
C206 C214 1.481 . S
C207 N209 1.299 . S
C207 N210 1.379 . S
N208 Zn192 2.036 . S
N208 C206 1.298 . S
N208 N209 1.398 . S
N209 C207 1.299 . S
N209 N208 1.398 . S
N210 C206 1.367 . S
N210 C207 1.379 . S
H211 C214 0.980 . S
H212 C214 0.981 . S
H213 C214 0.981 . S
C214 C206 1.481 . S
C214 H211 0.980 . S
C214 H212 0.981 . S
C214 H213 0.981 . S
C215 C202 1.481 . S
C215 H216 0.980 . S
C215 H217 0.981 . S
C215 H218 0.981 1_554 S
H216 C215 0.980 . S
H217 C215 0.981 . S
H218 C215 0.981 1_556 S
O219 Zn195 2.066 1_556 S
O219 C198 1.256 . S
O220 Zn192 2.053 1_556 S
O220 C198 1.244 . S
C221 O199 1.259 . S
C221 O200 1.254 . S
O222 Zn192 2.066 . S
O222 C194 1.256 . S
O223 C194 1.244 . S
O223 Zn195 2.053 . S
Zn224 O225 2.055 . S
Zn224 O232 2.046 . S
Zn224 N240 2.036 . S
Zn224 O252 2.053 1_556 S
Zn224 O254 2.066 . S
O225 Zn224 2.055 . S
O225 C228 1.259 . S
C226 O254 1.256 . S
C226 O255 1.244 . S
Zn227 O229 2.046 . S
Zn227 O231 2.055 . S
Zn227 N233 2.036 . S
Zn227 O251 2.066 1_556 S
Zn227 O255 2.053 . S
C228 O225 1.259 . S
C228 O229 1.254 . S
O229 Zn227 2.046 . S
O229 C228 1.254 . S
C230 O251 1.256 . S
C230 O252 1.244 . S
O231 Zn227 2.055 . S
O231 C253 1.259 . S
O232 Zn224 2.046 . S
O232 C253 1.254 . S
N233 Zn227 2.036 . S
N233 C234 1.298 . S
N233 N236 1.398 . S
C234 N233 1.298 . S
C234 N237 1.367 . S
C234 C247 1.481 . S
C235 N236 1.299 . S
C235 N237 1.379 . S
N236 N233 1.398 . S
N236 C235 1.299 . S
N237 C234 1.367 . S
N237 C235 1.379 . S
C238 N240 1.298 . S
C238 N242 1.367 . S
C238 C246 1.481 . S
C239 N241 1.299 . S
C239 N242 1.379 . S
N240 Zn224 2.036 . S
N240 C238 1.298 . S
N240 N241 1.398 . S
N241 C239 1.299 . S
N241 N240 1.398 . S
N242 C238 1.367 . S
N242 C239 1.379 . S
H243 C246 0.980 . S
H244 C246 0.981 . S
H245 C246 0.981 . S
C246 C238 1.481 . S
C246 H243 0.980 . S
C246 H244 0.981 . S
C246 H245 0.981 . S
C247 C234 1.481 . S
C247 H248 0.980 . S
C247 H249 0.981 . S
C247 H250 0.981 1_556 S
H248 C247 0.980 . S
H249 C247 0.981 . S
H250 C247 0.981 1_554 S
O251 Zn227 2.066 1_554 S
O251 C230 1.256 . S
O252 Zn224 2.053 1_554 S
O252 C230 1.244 . S
C253 O231 1.259 . S
C253 O232 1.254 . S
O254 Zn224 2.066 . S
O254 C226 1.256 . S
O255 C226 1.244 . S
O255 Zn227 2.053 . S
Zn256 O257 2.055 . S
Zn256 O264 2.046 . S
Zn256 N272 2.036 . S
Zn256 O284 2.053 . S
Zn256 O286 2.066 . S
O257 Zn256 2.055 . S
O257 C260 1.259 . S
C258 O286 1.256 . S
C258 O287 1.244 . S
Zn259 O261 2.046 . S
Zn259 O263 2.055 . S
Zn259 N265 2.036 . S
Zn259 O283 2.066 . S
Zn259 O287 2.053 . S
C260 O257 1.259 . S
C260 O261 1.254 . S
O261 Zn259 2.046 . S
O261 C260 1.254 . S
C262 O283 1.256 . S
C262 O284 1.244 . S
O263 Zn259 2.055 . S
O263 C285 1.259 . S
O264 Zn256 2.046 . S
O264 C285 1.254 . S
N265 Zn259 2.036 . S
N265 C266 1.298 . S
N265 N268 1.398 . S
C266 N265 1.298 . S
C266 N269 1.367 . S
C266 C279 1.481 . S
C267 N268 1.299 . S
C267 N269 1.379 . S
N268 N265 1.398 . S
N268 C267 1.299 . S
N269 C266 1.367 . S
N269 C267 1.379 . S
C270 N272 1.298 . S
C270 N274 1.367 . S
C270 C278 1.481 . S
C271 N273 1.299 . S
C271 N274 1.379 . S
N272 Zn256 2.036 . S
N272 C270 1.298 . S
N272 N273 1.398 . S
N273 C271 1.299 . S
N273 N272 1.398 . S
N274 C270 1.367 . S
N274 C271 1.379 . S
H275 C278 0.980 . S
H276 C278 0.981 . S
H277 C278 0.981 . S
C278 C270 1.481 . S
C278 H275 0.980 . S
C278 H276 0.981 . S
C278 H277 0.981 . S
C279 C266 1.481 . S
C279 H280 0.980 . S
C279 H281 0.981 . S
C279 H282 0.981 . S
H280 C279 0.980 . S
H281 C279 0.981 . S
H282 C279 0.981 . S
O283 Zn259 2.066 . S
O283 C262 1.256 . S
O284 Zn256 2.053 . S
O284 C262 1.244 . S
C285 O263 1.259 . S
C285 O264 1.254 . S
O286 Zn256 2.066 . S
O286 C258 1.256 . S
O287 C258 1.244 . S
O287 Zn259 2.053 . S
Zn288 O289 2.055 . S
Zn288 O296 2.046 . S
Zn288 N304 2.036 . S
Zn288 O316 2.053 . S
Zn288 O318 2.066 . S
O289 Zn288 2.055 . S
O289 C292 1.259 . S
C290 O318 1.256 . S
C290 O319 1.244 . S
Zn291 O293 2.046 . S
Zn291 O295 2.055 . S
Zn291 N297 2.036 . S
Zn291 O315 2.066 . S
Zn291 O319 2.053 . S
C292 O289 1.259 . S
C292 O293 1.254 . S
O293 Zn291 2.046 . S
O293 C292 1.254 . S
C294 O315 1.256 . S
C294 O316 1.244 . S
O295 Zn291 2.055 . S
O295 C317 1.259 . S
O296 Zn288 2.046 . S
O296 C317 1.254 . S
N297 Zn291 2.036 . S
N297 C298 1.298 . S
N297 N300 1.398 . S
C298 N297 1.298 . S
C298 N301 1.367 . S
C298 C311 1.481 . S
C299 N300 1.299 . S
C299 N301 1.379 . S
N300 N297 1.398 . S
N300 C299 1.299 . S
N301 C298 1.367 . S
N301 C299 1.379 . S
C302 N304 1.298 . S
C302 N306 1.367 . S
C302 C310 1.481 . S
C303 N305 1.299 . S
C303 N306 1.379 . S
N304 Zn288 2.036 . S
N304 C302 1.298 . S
N304 N305 1.398 . S
N305 C303 1.299 . S
N305 N304 1.398 . S
N306 C302 1.367 . S
N306 C303 1.379 . S
H307 C310 0.980 . S
H308 C310 0.981 . S
H309 C310 0.981 . S
C310 C302 1.481 . S
C310 H307 0.980 . S
C310 H308 0.981 . S
C310 H309 0.981 . S
C311 C298 1.481 . S
C311 H312 0.980 . S
C311 H313 0.981 . S
C311 H314 0.981 . S
H312 C311 0.980 . S
H313 C311 0.981 . S
H314 C311 0.981 . S
O315 Zn291 2.066 . S
O315 C294 1.256 . S
O316 Zn288 2.053 . S
O316 C294 1.244 . S
C317 O295 1.259 . S
C317 O296 1.254 . S
O318 Zn288 2.066 . S
O318 C290 1.256 . S
O319 C290 1.244 . S
O319 Zn291 2.053 . S
Zn320 O321 2.055 . S
Zn320 O328 2.046 . S
Zn320 N336 2.036 . S
Zn320 O348 2.053 . S
Zn320 O350 2.066 . S
O321 Zn320 2.055 . S
O321 C324 1.259 . S
C322 O350 1.256 . S
C322 O351 1.244 . S
Zn323 O325 2.046 . S
Zn323 O327 2.055 . S
Zn323 N329 2.036 . S
Zn323 O347 2.066 . S
Zn323 O351 2.053 . S
C324 O321 1.259 . S
C324 O325 1.254 . S
O325 Zn323 2.046 . S
O325 C324 1.254 . S
C326 O347 1.256 . S
C326 O348 1.244 . S
O327 Zn323 2.055 . S
O327 C349 1.259 . S
O328 Zn320 2.046 . S
O328 C349 1.254 . S
N329 Zn323 2.036 . S
N329 C330 1.298 . S
N329 N332 1.398 . S
C330 N329 1.298 . S
C330 N333 1.367 . S
C330 C343 1.481 . S
C331 N332 1.299 . S
C331 N333 1.379 . S
N332 N329 1.398 . S
N332 C331 1.299 . S
N333 C330 1.367 . S
N333 C331 1.379 . S
C334 N336 1.298 . S
C334 N338 1.367 . S
C334 C342 1.481 . S
C335 N337 1.299 . S
C335 N338 1.379 . S
N336 Zn320 2.036 . S
N336 C334 1.298 . S
N336 N337 1.398 . S
N337 C335 1.299 . S
N337 N336 1.398 . S
N338 C334 1.367 . S
N338 C335 1.379 . S
H339 C342 0.980 . S
H340 C342 0.981 . S
H341 C342 0.981 . S
C342 C334 1.481 . S
C342 H339 0.980 . S
C342 H340 0.981 . S
C342 H341 0.981 . S
C343 C330 1.481 . S
C343 H344 0.980 . S
C343 H345 0.981 . S
C343 H346 0.981 . S
H344 C343 0.980 . S
H345 C343 0.981 . S
H346 C343 0.981 . S
O347 Zn323 2.066 . S
O347 C326 1.256 . S
O348 Zn320 2.053 . S
O348 C326 1.244 . S
C349 O327 1.259 . S
C349 O328 1.254 . S
O350 Zn320 2.066 . S
O350 C322 1.256 . S
O351 C322 1.244 . S
O351 Zn323 2.053 . S
Zn352 O353 2.055 . S
Zn352 O360 2.046 . S
Zn352 N368 2.036 . S
Zn352 O380 2.053 . S
Zn352 O382 2.066 . S
O353 Zn352 2.055 . S
O353 C356 1.259 . S
C354 O382 1.256 . S
C354 O383 1.244 . S
Zn355 O357 2.046 . S
Zn355 O359 2.055 . S
Zn355 N361 2.036 . S
Zn355 O379 2.066 . S
Zn355 O383 2.053 . S
C356 O353 1.259 . S
C356 O357 1.254 . S
O357 Zn355 2.046 . S
O357 C356 1.254 . S
C358 O379 1.256 . S
C358 O380 1.244 . S
O359 Zn355 2.055 . S
O359 C381 1.259 . S
O360 Zn352 2.046 . S
O360 C381 1.254 . S
N361 Zn355 2.036 . S
N361 C362 1.298 . S
N361 N364 1.398 . S
C362 N361 1.298 . S
C362 N365 1.367 . S
C362 C375 1.481 . S
C363 N364 1.299 . S
C363 N365 1.379 . S
N364 N361 1.398 . S
N364 C363 1.299 . S
N365 C362 1.367 . S
N365 C363 1.379 . S
C366 N368 1.298 . S
C366 N370 1.367 . S
C366 C374 1.481 . S
C367 N369 1.299 . S
C367 N370 1.379 . S
N368 Zn352 2.036 . S
N368 C366 1.298 . S
N368 N369 1.398 . S
N369 C367 1.299 . S
N369 N368 1.398 . S
N370 C366 1.367 . S
N370 C367 1.379 . S
H371 C374 0.980 . S
H372 C374 0.981 . S
H373 C374 0.981 . S
C374 C366 1.481 . S
C374 H371 0.980 . S
C374 H372 0.981 . S
C374 H373 0.981 . S
C375 C362 1.481 . S
C375 H376 0.980 . S
C375 H377 0.981 . S
C375 H378 0.981 . S
H376 C375 0.980 . S
H377 C375 0.981 . S
H378 C375 0.981 . S
O379 Zn355 2.066 . S
O379 C358 1.256 . S
O380 Zn352 2.053 . S
O380 C358 1.244 . S
C381 O359 1.259 . S
C381 O360 1.254 . S
O382 Zn352 2.066 . S
O382 C354 1.256 . S
O383 C354 1.244 . S
O383 Zn355 2.053 . S
Zn384 O385 2.055 . S
Zn384 O392 2.046 . S
Zn384 N400 2.036 . S
Zn384 O412 2.053 . S
Zn384 O414 2.066 . S
O385 Zn384 2.055 . S
O385 C388 1.259 . S
C386 O414 1.256 . S
C386 O415 1.244 . S
Zn387 O389 2.046 . S
Zn387 O391 2.055 . S
Zn387 N393 2.036 . S
Zn387 O411 2.066 . S
Zn387 O415 2.053 . S
C388 O385 1.259 . S
C388 O389 1.254 . S
O389 Zn387 2.046 . S
O389 C388 1.254 . S
C390 O411 1.256 . S
C390 O412 1.244 . S
O391 Zn387 2.055 . S
O391 C413 1.259 . S
O392 Zn384 2.046 . S
O392 C413 1.254 . S
N393 Zn387 2.036 . S
N393 C394 1.298 . S
N393 N396 1.398 . S
C394 N393 1.298 . S
C394 N397 1.367 . S
C394 C407 1.481 . S
C395 N396 1.299 . S
C395 N397 1.379 . S
N396 N393 1.398 . S
N396 C395 1.299 . S
N397 C394 1.367 . S
N397 C395 1.379 . S
C398 N400 1.298 . S
C398 N402 1.367 . S
C398 C406 1.481 . S
C399 N401 1.299 . S
C399 N402 1.379 . S
N400 Zn384 2.036 . S
N400 C398 1.298 . S
N400 N401 1.398 . S
N401 C399 1.299 . S
N401 N400 1.398 . S
N402 C398 1.367 . S
N402 C399 1.379 . S
H403 C406 0.980 . S
H404 C406 0.981 . S
H405 C406 0.981 . S
C406 C398 1.481 . S
C406 H403 0.980 . S
C406 H404 0.981 . S
C406 H405 0.981 . S
C407 C394 1.481 . S
C407 H408 0.980 . S
C407 H409 0.981 . S
C407 H410 0.981 . S
H408 C407 0.980 . S
H409 C407 0.981 . S
H410 C407 0.981 . S
O411 Zn387 2.066 . S
O411 C390 1.256 . S
O412 Zn384 2.053 . S
O412 C390 1.244 . S
C413 O391 1.259 . S
C413 O392 1.254 . S
O414 Zn384 2.066 . S
O414 C386 1.256 . S
O415 C386 1.244 . S
O415 Zn387 2.053 . S
Zn416 O417 2.055 . S
Zn416 O424 2.046 . S
Zn416 N432 2.036 . S
Zn416 O444 2.053 . S
Zn416 O446 2.066 . S
O417 Zn416 2.055 . S
O417 C420 1.259 . S
C418 O446 1.256 . S
C418 O447 1.244 . S
Zn419 O421 2.046 . S
Zn419 O423 2.055 . S
Zn419 N425 2.036 . S
Zn419 O443 2.066 . S
Zn419 O447 2.053 . S
C420 O417 1.259 . S
C420 O421 1.254 . S
O421 Zn419 2.046 . S
O421 C420 1.254 . S
C422 O443 1.256 . S
C422 O444 1.244 . S
O423 Zn419 2.055 . S
O423 C445 1.259 . S
O424 Zn416 2.046 . S
O424 C445 1.254 . S
N425 Zn419 2.036 . S
N425 C426 1.298 . S
N425 N428 1.398 . S
C426 N425 1.298 . S
C426 N429 1.367 . S
C426 C439 1.481 . S
C427 N428 1.299 . S
C427 N429 1.379 . S
N428 N425 1.398 . S
N428 C427 1.299 . S
N429 C426 1.367 . S
N429 C427 1.379 . S
C430 N432 1.298 . S
C430 N434 1.367 . S
C430 C438 1.481 . S
C431 N433 1.299 . S
C431 N434 1.379 . S
N432 Zn416 2.036 . S
N432 C430 1.298 . S
N432 N433 1.398 . S
N433 C431 1.299 . S
N433 N432 1.398 . S
N434 C430 1.367 . S
N434 C431 1.379 . S
H435 C438 0.980 . S
H436 C438 0.981 . S
H437 C438 0.981 . S
C438 C430 1.481 . S
C438 H435 0.980 . S
C438 H436 0.981 . S
C438 H437 0.981 . S
C439 C426 1.481 . S
C439 H440 0.980 . S
C439 H441 0.981 . S
C439 H442 0.981 . S
H440 C439 0.980 . S
H441 C439 0.981 . S
H442 C439 0.981 . S
O443 Zn419 2.066 . S
O443 C422 1.256 . S
O444 Zn416 2.053 . S
O444 C422 1.244 . S
C445 O423 1.259 . S
C445 O424 1.254 . S
O446 Zn416 2.066 . S
O446 C418 1.256 . S
O447 C418 1.244 . S
O447 Zn419 2.053 . S
Zn448 O449 2.055 . S
Zn448 O456 2.046 . S
Zn448 N464 2.036 . S
Zn448 O476 2.053 . S
Zn448 O478 2.066 . S
O449 Zn448 2.055 . S
O449 C452 1.259 . S
C450 O478 1.256 . S
C450 O479 1.244 . S
Zn451 O453 2.046 . S
Zn451 O455 2.055 . S
Zn451 N457 2.036 . S
Zn451 O475 2.066 . S
Zn451 O479 2.053 . S
C452 O449 1.259 . S
C452 O453 1.254 . S
O453 Zn451 2.046 . S
O453 C452 1.254 . S
C454 O475 1.256 . S
C454 O476 1.244 . S
O455 Zn451 2.055 . S
O455 C477 1.259 . S
O456 Zn448 2.046 . S
O456 C477 1.254 . S
N457 Zn451 2.036 . S
N457 C458 1.298 . S
N457 N460 1.398 . S
C458 N457 1.298 . S
C458 N461 1.367 . S
C458 C471 1.481 . S
C459 N460 1.299 . S
C459 N461 1.379 . S
N460 N457 1.398 . S
N460 C459 1.299 . S
N461 C458 1.367 . S
N461 C459 1.379 . S
C462 N464 1.298 . S
C462 N466 1.367 . S
C462 C470 1.481 . S
C463 N465 1.299 . S
C463 N466 1.379 . S
N464 Zn448 2.036 . S
N464 C462 1.298 . S
N464 N465 1.398 . S
N465 C463 1.299 . S
N465 N464 1.398 . S
N466 C462 1.367 . S
N466 C463 1.379 . S
H467 C470 0.980 . S
H468 C470 0.981 . S
H469 C470 0.981 . S
C470 C462 1.481 . S
C470 H467 0.980 . S
C470 H468 0.981 . S
C470 H469 0.981 . S
C471 C458 1.481 . S
C471 H472 0.980 . S
C471 H473 0.981 . S
C471 H474 0.981 . S
H472 C471 0.980 . S
H473 C471 0.981 . S
H474 C471 0.981 . S
O475 Zn451 2.066 . S
O475 C454 1.256 . S
O476 Zn448 2.053 . S
O476 C454 1.244 . S
C477 O455 1.259 . S
C477 O456 1.254 . S
O478 Zn448 2.066 . S
O478 C450 1.256 . S
O479 C450 1.244 . S
O479 Zn451 2.053 . S
Zn480 O481 2.055 . S
Zn480 O488 2.046 . S
Zn480 N496 2.036 . S
Zn480 O508 2.053 . S
Zn480 O510 2.066 . S
O481 Zn480 2.055 . S
O481 C484 1.259 . S
C482 O510 1.256 . S
C482 O511 1.244 . S
Zn483 O485 2.046 . S
Zn483 O487 2.055 . S
Zn483 N489 2.036 . S
Zn483 O507 2.066 . S
Zn483 O511 2.053 . S
C484 O481 1.259 . S
C484 O485 1.254 . S
O485 Zn483 2.046 . S
O485 C484 1.254 . S
C486 O507 1.256 . S
C486 O508 1.244 . S
O487 Zn483 2.055 . S
O487 C509 1.259 . S
O488 Zn480 2.046 . S
O488 C509 1.254 . S
N489 Zn483 2.036 . S
N489 C490 1.298 . S
N489 N492 1.398 . S
C490 N489 1.298 . S
C490 N493 1.367 . S
C490 C503 1.481 . S
C491 N492 1.299 . S
C491 N493 1.379 . S
N492 N489 1.398 . S
N492 C491 1.299 . S
N493 C490 1.367 . S
N493 C491 1.379 . S
C494 N496 1.298 . S
C494 N498 1.367 . S
C494 C502 1.481 . S
C495 N497 1.299 . S
C495 N498 1.379 . S
N496 Zn480 2.036 . S
N496 C494 1.298 . S
N496 N497 1.398 . S
N497 C495 1.299 . S
N497 N496 1.398 . S
N498 C494 1.367 . S
N498 C495 1.379 . S
H499 C502 0.980 . S
H500 C502 0.981 . S
H501 C502 0.981 . S
C502 C494 1.481 . S
C502 H499 0.980 . S
C502 H500 0.981 . S
C502 H501 0.981 . S
C503 C490 1.481 . S
C503 H504 0.980 . S
C503 H505 0.981 . S
C503 H506 0.981 . S
H504 C503 0.980 . S
H505 C503 0.981 . S
H506 C503 0.981 . S
O507 Zn483 2.066 . S
O507 C486 1.256 . S
O508 Zn480 2.053 . S
O508 C486 1.244 . S
C509 O487 1.259 . S
C509 O488 1.254 . S
O510 Zn480 2.066 . S
O510 C482 1.256 . S
O511 C482 1.244 . S
O511 Zn483 2.053 . S
H512 C520 0.950 . S
H513 C525 0.950 . S
H514 C522 0.950 . S
H515 C524 0.950 . S
H516 C526 0.950 . S
H517 C528 0.950 . S
H518 C530 0.950 . S
H519 C531 0.950 . S
C520 H512 0.950 . S
C520 C521 1.386 . S
C520 C522 1.391 . S
C521 C520 1.386 . S
C521 C525 1.393 . S
C522 H514 0.950 . S
C522 C520 1.391 . S
C522 C523 1.400 . S
C523 C522 1.400 . S
C523 C524 1.398 . S
C523 C529 1.491 . S
C524 H515 0.950 . S
C524 C523 1.398 . S
C524 C525 1.391 . S
C525 H513 0.950 . S
C525 C521 1.393 . S
C525 C524 1.391 . S
C526 H516 0.950 . S
C526 C527 1.386 1_565 S
C526 C528 1.391 . S
C527 C526 1.386 1_545 S
C527 C531 1.393 . S
C528 H517 0.950 . S
C528 C526 1.391 . S
C528 C529 1.400 . S
C529 C523 1.491 . S
C529 C528 1.400 . S
C529 C530 1.398 . S
C530 H518 0.950 . S
C530 C529 1.398 . S
C530 C531 1.391 1_565 S
C531 H519 0.950 . S
C531 C527 1.393 . S
C531 C530 1.391 1_545 S
H532 C540 0.950 . S
H533 C545 0.950 . S
H534 C542 0.950 . S
H535 C544 0.950 . S
H536 C546 0.950 . S
H537 C548 0.950 . S
H538 C550 0.950 . S
H539 C551 0.950 . S
C540 H532 0.950 . S
C540 C541 1.386 . S
C540 C542 1.391 . S
C541 C540 1.386 . S
C541 C545 1.393 . S
C542 H534 0.950 . S
C542 C540 1.391 . S
C542 C543 1.400 . S
C543 C542 1.400 . S
C543 C544 1.398 . S
C543 C549 1.491 . S
C544 H535 0.950 . S
C544 C543 1.398 . S
C544 C545 1.391 . S
C545 H533 0.950 . S
C545 C541 1.393 . S
C545 C544 1.391 . S
C546 H536 0.950 . S
C546 C547 1.386 1_655 S
C546 C548 1.391 . S
C547 C546 1.386 1_455 S
C547 C551 1.393 . S
C548 H537 0.950 . S
C548 C546 1.391 . S
C548 C549 1.400 . S
C549 C543 1.491 . S
C549 C548 1.400 . S
C549 C550 1.398 . S
C550 H538 0.950 . S
C550 C549 1.398 . S
C550 C551 1.391 1_655 S
C551 H539 0.950 . S
C551 C547 1.393 . S
C551 C550 1.391 1_455 S
H552 C560 0.950 . S
H553 C565 0.950 . S
H554 C562 0.950 . S
H555 C564 0.950 . S
H556 C566 0.950 . S
H557 C568 0.950 . S
H558 C570 0.950 . S
H559 C571 0.950 . S
C560 H552 0.950 . S
C560 C561 1.386 . S
C560 C562 1.391 1_565 S
C561 C560 1.386 . S
C561 C565 1.393 1_565 S
C562 H554 0.950 . S
C562 C560 1.391 1_545 S
C562 C563 1.400 . S
C563 C562 1.400 . S
C563 C564 1.398 . S
C563 C569 1.491 . S
C564 H555 0.950 . S
C564 C563 1.398 . S
C564 C565 1.391 . S
C565 H553 0.950 . S
C565 C561 1.393 1_545 S
C565 C564 1.391 . S
C566 H556 0.950 . S
C566 C567 1.386 . S
C566 C568 1.391 . S
C567 C566 1.386 . S
C567 C571 1.393 . S
C568 H557 0.950 . S
C568 C566 1.391 . S
C568 C569 1.400 . S
C569 C563 1.491 . S
C569 C568 1.400 . S
C569 C570 1.398 . S
C570 H558 0.950 . S
C570 C569 1.398 . S
C570 C571 1.391 . S
C571 H559 0.950 . S
C571 C567 1.393 . S
C571 C570 1.391 . S
H572 C580 0.950 . S
H573 C585 0.988 . S
H574 C582 0.950 . S
H575 C584 0.950 . S
H576 C586 0.950 . S
H577 C588 0.950 . S
H578 C590 0.950 . S
H579 C591 0.950 . S
C580 H572 0.950 . S
C580 C581 1.386 1_455 S
C580 C582 1.391 . S
C581 C580 1.386 1_655 S
C581 C585 1.411 . S
C582 H574 0.950 . S
C582 C580 1.391 . S
C582 C583 1.400 . S
C583 C582 1.400 . S
C583 C584 1.398 . S
C583 C589 1.491 . S
C584 H575 0.950 . S
C584 C583 1.398 . S
C584 C585 1.337 1_455 S
C585 H573 0.988 . S
C585 C581 1.411 . S
C585 C584 1.337 1_655 S
C586 H576 0.950 . S
C586 C587 1.386 . S
C586 C588 1.391 . S
C587 C586 1.386 . S
C587 C591 1.393 . S
C588 H577 0.950 . S
C588 C586 1.391 . S
C588 C589 1.400 . S
C589 C583 1.491 . S
C589 C588 1.400 . S
C589 C590 1.398 . S
C590 H578 0.950 . S
C590 C589 1.398 . S
C590 C591 1.391 . S
C591 H579 0.950 . S
C591 C587 1.393 . S
C591 C590 1.391 . S
H592 C600 0.950 . S
H593 C605 0.950 . S
H594 C602 0.950 . S
H595 C604 0.950 . S
H596 C606 0.950 . S
H597 C608 0.950 . S
H598 C610 0.950 . S
H599 C611 0.950 . S
C600 H592 0.950 . S
C600 C601 1.386 1_556 S
C600 C602 1.391 . S
C601 C600 1.386 1_554 S
C601 C605 1.393 . S
C602 H594 0.950 . S
C602 C600 1.391 . S
C602 C603 1.404 . S
C603 C602 1.404 . S
C603 C604 1.394 1_556 S
C603 C609 1.492 . S
C604 H595 0.950 . S
C604 C603 1.394 1_554 S
C604 C605 1.391 . S
C605 H593 0.950 . S
C605 C601 1.393 . S
C605 C604 1.391 . S
C606 H596 0.950 . S
C606 C607 1.386 1_554 S
C606 C608 1.391 . S
C607 C606 1.386 1_556 S
C607 C611 1.393 . S
C608 H597 0.950 . S
C608 C606 1.391 . S
C608 C609 1.400 1_554 S
C609 C603 1.492 . S
C609 C608 1.400 1_556 S
C609 C610 1.398 . S
C610 H598 0.950 . S
C610 C609 1.398 . S
C610 C611 1.391 . S
C611 H599 0.950 . S
C611 C607 1.393 . S
C611 C610 1.391 . S
H612 C620 0.950 . S
H613 C625 0.950 . S
H614 C622 0.950 . S
H615 C624 0.950 . S
H616 C626 0.950 . S
H617 C628 0.950 . S
H618 C630 0.950 . S
H619 C631 0.950 . S
C620 H612 0.950 . S
C620 C621 1.386 1_556 S
C620 C622 1.391 . S
C621 C620 1.386 1_554 S
C621 C625 1.393 . S
C622 H614 0.950 . S
C622 C620 1.391 . S
C622 C623 1.400 1_556 S
C623 C622 1.400 1_554 S
C623 C624 1.398 . S
C623 C629 1.491 . S
C624 H615 0.950 . S
C624 C623 1.398 . S
C624 C625 1.391 . S
C625 H613 0.950 . S
C625 C621 1.393 . S
C625 C624 1.391 . S
C626 H616 0.950 . S
C626 C627 1.386 1_554 S
C626 C628 1.391 . S
C627 C626 1.386 1_556 S
C627 C631 1.393 . S
C628 H617 0.950 . S
C628 C626 1.391 . S
C628 C629 1.400 . S
C629 C623 1.491 . S
C629 C628 1.400 . S
C629 C630 1.398 1_554 S
C630 H618 0.950 . S
C630 C629 1.398 1_556 S
C630 C631 1.391 . S
C631 H619 0.950 . S
C631 C627 1.393 . S
C631 C630 1.391 . S
H632 C640 0.950 . S
H633 C645 0.950 . S
H634 C642 0.950 . S
H635 C644 0.950 . S
H636 C646 0.950 . S
H637 C648 0.950 . S
H638 C650 0.950 . S
H639 C651 0.950 . S
C640 H632 0.950 . S
C640 C641 1.386 . S
C640 C642 1.391 . S
C641 C640 1.386 . S
C641 C645 1.393 1_554 S
C642 H634 0.950 . S
C642 C640 1.391 . S
C642 C643 1.406 . S
C643 C642 1.406 . S
C643 C644 1.394 1_554 S
C643 C649 1.489 1_554 S
C644 H635 0.950 . S
C644 C643 1.394 1_556 S
C644 C645 1.391 . S
C645 H633 0.950 . S
C645 C641 1.393 1_556 S
C645 C644 1.391 . S
C646 H636 0.950 . S
C646 C647 1.386 . S
C646 C648 1.391 . S
C647 C646 1.386 . S
C647 C651 1.393 1_556 S
C648 H637 0.950 . S
C648 C646 1.391 . S
C648 C649 1.400 . S
C649 C643 1.489 1_556 S
C649 C648 1.400 . S
C649 C650 1.398 1_556 S
C650 H638 0.950 . S
C650 C649 1.398 1_554 S
C650 C651 1.391 . S
C651 H639 0.950 . S
C651 C647 1.393 1_554 S
C651 C650 1.391 . S
H652 C660 0.950 . S
H653 C665 0.950 . S
H654 C662 0.950 . S
H655 C664 0.950 . S
H656 C666 0.950 . S
H657 C668 0.950 . S
H658 C670 0.950 . S
H659 C671 0.950 . S
C660 H652 0.950 . S
C660 C661 1.386 . S
C660 C662 1.391 . S
C661 C660 1.386 . S
C661 C665 1.393 1_554 S
C662 H654 0.950 . S
C662 C660 1.391 . S
C662 C663 1.400 . S
C663 C662 1.400 . S
C663 C664 1.398 1_554 S
C663 C669 1.488 1_554 S
C664 H655 0.950 . S
C664 C663 1.398 1_556 S
C664 C665 1.391 . S
C665 H653 0.950 . S
C665 C661 1.393 1_556 S
C665 C664 1.391 . S
C666 H656 0.950 . S
C666 C667 1.386 . S
C666 C668 1.391 . S
C667 C666 1.386 . S
C667 C671 1.393 1_556 S
C668 H657 0.950 . S
C668 C666 1.391 . S
C668 C669 1.408 . S
C669 C663 1.488 1_556 S
C669 C668 1.408 . S
C669 C670 1.393 1_556 S
C670 H658 0.950 . S
C670 C669 1.393 1_554 S
C670 C671 1.391 . S
C671 H659 0.950 . S
C671 C667 1.393 1_554 S
C671 C670 1.391 . S
H672 C680 0.950 . S
H673 C685 0.950 . S
H674 C682 0.950 . S
H675 C684 0.950 . S
H676 C686 0.950 . S
H677 C688 0.950 . S
H678 C690 0.950 . S
H679 C691 0.950 . S
C680 H672 0.950 . S
C680 C681 1.386 . S
C680 C682 1.391 . S
C681 C680 1.386 . S
C681 C685 1.393 . S
C682 H674 0.950 . S
C682 C680 1.391 . S
C682 C683 1.400 . S
C683 C682 1.400 . S
C683 C684 1.398 . S
C683 C689 1.491 . S
C684 H675 0.950 . S
C684 C683 1.398 . S
C684 C685 1.391 . S
C685 H673 0.950 . S
C685 C681 1.393 . S
C685 C684 1.391 . S
C686 H676 0.950 . S
C686 C687 1.386 . S
C686 C688 1.391 . S
C687 C686 1.386 . S
C687 C691 1.393 . S
C688 H677 0.950 . S
C688 C686 1.391 . S
C688 C689 1.400 . S
C689 C683 1.491 . S
C689 C688 1.400 . S
C689 C690 1.398 . S
C690 H678 0.950 . S
C690 C689 1.398 . S
C690 C691 1.391 . S
C691 H679 0.950 . S
C691 C687 1.393 . S
C691 C690 1.391 . S
H692 C700 0.950 . S
H693 C705 0.950 . S
H694 C702 0.950 . S
H695 C704 0.950 . S
H696 C706 0.950 . S
H697 C708 0.950 . S
H698 C710 0.950 . S
H699 C711 0.950 . S
C700 H692 0.950 . S
C700 C701 1.386 . S
C700 C702 1.391 . S
C701 C700 1.386 . S
C701 C705 1.393 . S
C702 H694 0.950 . S
C702 C700 1.391 . S
C702 C703 1.400 . S
C703 C702 1.400 . S
C703 C704 1.398 . S
C703 C709 1.491 . S
C704 H695 0.950 . S
C704 C703 1.398 . S
C704 C705 1.391 . S
C705 H693 0.950 . S
C705 C701 1.393 . S
C705 C704 1.391 . S
C706 H696 0.950 . S
C706 C707 1.386 . S
C706 C708 1.391 . S
C707 C706 1.386 . S
C707 C711 1.393 . S
C708 H697 0.950 . S
C708 C706 1.391 . S
C708 C709 1.400 . S
C709 C703 1.491 . S
C709 C708 1.400 . S
C709 C710 1.398 . S
C710 H698 0.950 . S
C710 C709 1.398 . S
C710 C711 1.391 . S
C711 H699 0.950 . S
C711 C707 1.393 . S
C711 C710 1.391 . S
H712 C720 0.950 . S
H713 C725 0.950 . S
H714 C722 0.950 . S
H715 C724 0.950 . S
H716 C726 0.950 . S
H717 C728 0.950 . S
H718 C730 0.950 . S
H719 C731 0.950 . S
C720 H712 0.950 . S
C720 C721 1.386 . S
C720 C722 1.391 . S
C721 C720 1.386 . S
C721 C725 1.393 . S
C722 H714 0.950 . S
C722 C720 1.391 . S
C722 C723 1.400 . S
C723 C722 1.400 . S
C723 C724 1.398 . S
C723 C729 1.491 . S
C724 H715 0.950 . S
C724 C723 1.398 . S
C724 C725 1.391 . S
C725 H713 0.950 . S
C725 C721 1.393 . S
C725 C724 1.391 . S
C726 H716 0.950 . S
C726 C727 1.386 . S
C726 C728 1.391 . S
C727 C726 1.386 . S
C727 C731 1.393 . S
C728 H717 0.950 . S
C728 C726 1.391 . S
C728 C729 1.400 . S
C729 C723 1.491 . S
C729 C728 1.400 . S
C729 C730 1.398 . S
C730 H718 0.950 . S
C730 C729 1.398 . S
C730 C731 1.391 . S
C731 H719 0.950 . S
C731 C727 1.393 . S
C731 C730 1.391 . S
H732 C740 0.950 . S
H733 C745 0.950 . S
H734 C742 0.950 . S
H735 C744 0.950 . S
H736 C746 0.950 . S
H737 C748 0.950 . S
H738 C750 0.950 . S
H739 C751 0.950 . S
C740 H732 0.950 . S
C740 C741 1.386 . S
C740 C742 1.391 . S
C741 C740 1.386 . S
C741 C745 1.393 . S
C742 H734 0.950 . S
C742 C740 1.391 . S
C742 C743 1.400 . S
C743 C742 1.400 . S
C743 C744 1.398 . S
C743 C749 1.491 . S
C744 H735 0.950 . S
C744 C743 1.398 . S
C744 C745 1.391 . S
C745 H733 0.950 . S
C745 C741 1.393 . S
C745 C744 1.391 . S
C746 H736 0.950 . S
C746 C747 1.386 . S
C746 C748 1.391 . S
C747 C746 1.386 . S
C747 C751 1.393 . S
C748 H737 0.950 . S
C748 C746 1.391 . S
C748 C749 1.400 . S
C749 C743 1.491 . S
C749 C748 1.400 . S
C749 C750 1.398 . S
C750 H738 0.950 . S
C750 C749 1.398 . S
C750 C751 1.391 . S
C751 H739 0.950 . S
C751 C747 1.393 . S
C751 C750 1.391 . S
H752 C760 0.950 . S
H753 C765 0.950 . S
H754 C762 0.950 . S
H755 C764 0.950 . S
H756 C766 0.950 . S
H757 C768 0.950 . S
H758 C770 0.950 . S
H759 C771 0.950 . S
C760 H752 0.950 . S
C760 C761 1.386 1_545 S
C760 C762 1.391 . S
C761 C760 1.386 1_565 S
C761 C765 1.393 . S
C762 H754 0.950 . S
C762 C760 1.391 . S
C762 C763 1.400 . S
C763 C762 1.400 . S
C763 C764 1.398 . S
C763 C769 1.491 . S
C764 H755 0.950 . S
C764 C763 1.398 . S
C764 C765 1.391 1_545 S
C765 H753 0.950 . S
C765 C761 1.393 . S
C765 C764 1.391 1_565 S
C766 H756 0.950 . S
C766 C767 1.386 . S
C766 C768 1.391 . S
C767 C766 1.386 . S
C767 C771 1.393 . S
C768 H757 0.950 . S
C768 C766 1.391 . S
C768 C769 1.400 . S
C769 C763 1.491 . S
C769 C768 1.400 . S
C769 C770 1.398 . S
C770 H758 0.950 . S
C770 C769 1.398 . S
C770 C771 1.391 . S
C771 H759 0.950 . S
C771 C767 1.393 . S
C771 C770 1.391 . S
H772 C780 0.950 . S
H773 C785 0.950 . S
H774 C782 0.950 . S
H775 C784 0.950 . S
H776 C786 0.950 1_655 S
H777 C788 0.950 . S
H778 C790 0.950 . S
H779 C791 0.950 1_655 S
C780 H772 0.950 . S
C780 C781 1.386 . S
C780 C782 1.391 . S
C781 C780 1.386 . S
C781 C785 1.393 . S
C782 H774 0.950 . S
C782 C780 1.391 . S
C782 C783 1.400 . S
C783 C782 1.400 . S
C783 C784 1.398 . S
C783 C789 1.491 . S
C784 H775 0.950 . S
C784 C783 1.398 . S
C784 C785 1.391 . S
C785 H773 0.950 . S
C785 C781 1.393 . S
C785 C784 1.391 . S
C786 H776 0.950 1_455 S
C786 C787 1.386 1_455 S
C786 C788 1.391 . S
C787 C786 1.386 1_655 S
C787 C791 1.393 1_655 S
C788 H777 0.950 . S
C788 C786 1.391 . S
C788 C789 1.400 . S
C789 C783 1.491 . S
C789 C788 1.400 . S
C789 C790 1.398 . S
C790 H778 0.950 . S
C790 C789 1.398 . S
C790 C791 1.391 . S
C791 H779 0.950 1_455 S
C791 C787 1.393 1_455 S
C791 C790 1.391 . S
H792 C800 0.950 . S
H793 C805 0.950 . S
H794 C802 0.950 . S
H795 C804 0.950 . S
H796 C806 0.950 . S
H797 C808 0.950 . S
H798 C810 0.950 . S
H799 C811 0.975 . S
C800 H792 0.950 . S
C800 C801 1.386 . S
C800 C802 1.391 . S
C801 C800 1.386 . S
C801 C805 1.393 . S
C802 H794 0.950 . S
C802 C800 1.391 . S
C802 C803 1.400 . S
C803 C802 1.400 . S
C803 C804 1.398 . S
C803 C809 1.491 . S
C804 H795 0.950 . S
C804 C803 1.398 . S
C804 C805 1.391 . S
C805 H793 0.950 . S
C805 C801 1.393 . S
C805 C804 1.391 . S
C806 H796 0.950 . S
C806 C807 1.386 1_565 S
C806 C808 1.391 . S
C807 C806 1.386 1_545 S
C807 C811 1.404 . S
C808 H797 0.950 . S
C808 C806 1.391 . S
C808 C809 1.400 . S
C809 C803 1.491 . S
C809 C808 1.400 . S
C809 C810 1.398 . S
C810 H798 0.950 . S
C810 C809 1.398 . S
C810 C811 1.355 1_565 S
C811 H799 0.975 . S
C811 C807 1.404 . S
C811 C810 1.355 1_545 S
H812 C820 0.950 . S
H813 C825 0.950 . S
H814 C822 0.950 . S
H815 C824 0.950 . S
H816 C826 0.950 . S
H817 C828 0.950 . S
H818 C830 0.950 . S
H819 C831 0.950 . S
C820 H812 0.950 . S
C820 C821 1.386 1_655 S
C820 C822 1.391 . S
C821 C820 1.386 1_455 S
C821 C825 1.393 . S
C822 H814 0.950 . S
C822 C820 1.391 . S
C822 C823 1.400 . S
C823 C822 1.400 . S
C823 C824 1.398 . S
C823 C829 1.491 . S
C824 H815 0.950 . S
C824 C823 1.398 . S
C824 C825 1.391 1_655 S
C825 H813 0.950 . S
C825 C821 1.393 . S
C825 C824 1.391 1_455 S
C826 H816 0.950 . S
C826 C827 1.386 . S
C826 C828 1.391 . S
C827 C826 1.386 . S
C827 C831 1.393 . S
C828 H817 0.950 . S
C828 C826 1.391 . S
C828 C829 1.400 . S
C829 C823 1.491 . S
C829 C828 1.400 . S
C829 C830 1.398 . S
C830 H818 0.950 . S
C830 C829 1.398 . S
C830 C831 1.391 . S
C831 H819 0.950 . S
C831 C827 1.393 . S
C831 C830 1.391 . S
H832 C840 0.950 . S
H833 C845 0.950 . S
H834 C842 0.950 . S
H835 C844 0.950 . S
H836 C846 0.950 . S
H837 C848 0.950 . S
H838 C850 0.950 . S
H839 C851 0.950 . S
C840 H832 0.950 . S
C840 C841 1.386 . S
C840 C842 1.391 . S
C841 C840 1.386 . S
C841 C845 1.393 . S
C842 H834 0.950 . S
C842 C840 1.391 . S
C842 C843 1.400 . S
C843 C842 1.400 . S
C843 C844 1.398 . S
C843 C849 1.491 . S
C844 H835 0.950 . S
C844 C843 1.398 . S
C844 C845 1.391 . S
C845 H833 0.950 . S
C845 C841 1.393 . S
C845 C844 1.391 . S
C846 H836 0.950 . S
C846 C847 1.386 . S
C846 C848 1.391 . S
C847 C846 1.386 . S
C847 C851 1.393 . S
C848 H837 0.950 . S
C848 C846 1.391 . S
C848 C849 1.400 . S
C849 C843 1.491 . S
C849 C848 1.400 . S
C849 C850 1.398 . S
C850 H838 0.950 . S
C850 C849 1.398 . S
C850 C851 1.391 . S
C851 H839 0.950 . S
C851 C847 1.393 . S
C851 C850 1.391 . S
H852 C860 0.950 . S
H853 C865 0.950 . S
H854 C862 0.950 . S
H855 C864 0.950 . S
H856 C866 0.950 1_554 S
H857 C868 0.950 . S
H858 C870 0.950 . S
H859 C871 0.950 . S
C860 H852 0.950 . S
C860 C861 1.386 . S
C860 C862 1.391 . S
C861 C860 1.386 . S
C861 C865 1.393 . S
C862 H854 0.950 . S
C862 C860 1.391 . S
C862 C863 1.400 . S
C863 C862 1.400 . S
C863 C864 1.398 . S
C863 C869 1.491 . S
C864 H855 0.950 . S
C864 C863 1.398 . S
C864 C865 1.391 . S
C865 H853 0.950 . S
C865 C861 1.393 . S
C865 C864 1.391 . S
C866 H856 0.950 1_556 S
C866 C867 1.386 . S
C866 C868 1.391 . S
C867 C866 1.386 . S
C867 C871 1.393 . S
C868 H857 0.950 . S
C868 C866 1.391 . S
C868 C869 1.400 . S
C869 C863 1.491 . S
C869 C868 1.400 . S
C869 C870 1.398 . S
C870 H858 0.950 . S
C870 C869 1.398 . S
C870 C871 1.391 . S
C871 H859 0.950 . S
C871 C867 1.393 . S
C871 C870 1.391 . S
H872 C880 0.950 . S
H873 C885 0.950 . S
H874 C882 0.950 . S
H875 C884 0.950 . S
H876 C886 0.950 . S
H877 C888 0.950 . S
H878 C890 0.950 . S
H879 C891 0.950 . S
C880 H872 0.950 . S
C880 C881 1.386 . S
C880 C882 1.391 . S
C881 C880 1.386 . S
C881 C885 1.393 . S
C882 H874 0.950 . S
C882 C880 1.391 . S
C882 C883 1.400 . S
C883 C882 1.400 . S
C883 C884 1.398 . S
C883 C889 1.491 . S
C884 H875 0.950 . S
C884 C883 1.398 . S
C884 C885 1.391 . S
C885 H873 0.950 . S
C885 C881 1.393 . S
C885 C884 1.391 . S
C886 H876 0.950 . S
C886 C887 1.386 . S
C886 C888 1.391 . S
C887 C886 1.386 . S
C887 C891 1.393 . S
C888 H877 0.950 . S
C888 C886 1.391 . S
C888 C889 1.400 . S
C889 C883 1.491 . S
C889 C888 1.400 . S
C889 C890 1.398 . S
C890 H878 0.950 . S
C890 C889 1.398 . S
C890 C891 1.391 . S
C891 H879 0.950 . S
C891 C887 1.393 . S
C891 C890 1.391 . S
H892 C900 0.950 . S
H893 C905 0.950 . S
H894 C902 0.950 . S
H895 C904 0.950 . S
H896 C906 0.950 . S
H897 C908 0.950 . S
H898 C910 0.950 . S
H899 C911 0.950 . S
C900 H892 0.950 . S
C900 C901 1.386 . S
C900 C902 1.391 . S
C901 C900 1.386 . S
C901 C905 1.393 . S
C902 H894 0.950 . S
C902 C900 1.391 . S
C902 C903 1.400 . S
C903 C902 1.400 . S
C903 C904 1.398 . S
C903 C909 1.491 . S
C904 H895 0.950 . S
C904 C903 1.398 . S
C904 C905 1.391 . S
C905 H893 0.950 . S
C905 C901 1.393 . S
C905 C904 1.391 . S
C906 H896 0.950 . S
C906 C907 1.386 . S
C906 C908 1.391 . S
C907 C906 1.386 . S
C907 C911 1.393 . S
C908 H897 0.950 . S
C908 C906 1.391 . S
C908 C909 1.400 . S
C909 C903 1.491 . S
C909 C908 1.400 . S
C909 C910 1.398 . S
C910 H898 0.950 . S
C910 C909 1.398 . S
C910 C911 1.391 . S
C911 H899 0.950 . S
C911 C907 1.393 . S
C911 C910 1.391 . S
H912 C920 0.950 . S
H913 C925 0.950 . S
H914 C922 0.950 . S
H915 C924 0.950 . S
H916 C926 0.950 . S
H917 C928 0.950 . S
H918 C930 0.950 . S
H919 C931 0.950 . S
C920 H912 0.950 . S
C920 C921 1.386 . S
C920 C922 1.391 . S
C921 C920 1.386 . S
C921 C925 1.393 . S
C922 H914 0.950 . S
C922 C920 1.391 . S
C922 C923 1.400 . S
C923 C922 1.400 . S
C923 C924 1.398 . S
C923 C929 1.491 . S
C924 H915 0.950 . S
C924 C923 1.398 . S
C924 C925 1.391 . S
C925 H913 0.950 . S
C925 C921 1.393 . S
C925 C924 1.391 . S
C926 H916 0.950 . S
C926 C927 1.386 . S
C926 C928 1.391 . S
C927 C926 1.386 . S
C927 C931 1.393 . S
C928 H917 0.950 . S
C928 C926 1.391 . S
C928 C929 1.400 . S
C929 C923 1.491 . S
C929 C928 1.400 . S
C929 C930 1.398 . S
C930 H918 0.950 . S
C930 C929 1.398 . S
C930 C931 1.391 . S
C931 H919 0.950 . S
C931 C927 1.393 . S
C931 C930 1.391 . S
H932 C940 0.950 . S
H933 C945 0.950 . S
H934 C942 0.950 . S
H935 C944 0.950 . S
H936 C946 0.950 . S
H937 C948 0.950 . S
H938 C950 0.950 . S
H939 C951 0.950 . S
C940 H932 0.950 . S
C940 C941 1.386 . S
C940 C942 1.391 . S
C941 C940 1.386 . S
C941 C945 1.393 . S
C942 H934 0.950 . S
C942 C940 1.391 . S
C942 C943 1.400 . S
C943 C942 1.400 . S
C943 C944 1.398 . S
C943 C949 1.491 . S
C944 H935 0.950 . S
C944 C943 1.398 . S
C944 C945 1.391 . S
C945 H933 0.950 . S
C945 C941 1.393 . S
C945 C944 1.391 . S
C946 H936 0.950 . S
C946 C947 1.386 . S
C946 C948 1.391 . S
C947 C946 1.386 . S
C947 C951 1.393 . S
C948 H937 0.950 . S
C948 C946 1.391 . S
C948 C949 1.400 . S
C949 C943 1.491 . S
C949 C948 1.400 . S
C949 C950 1.398 . S
C950 H938 0.950 . S
C950 C949 1.398 . S
C950 C951 1.391 . S
C951 H939 0.950 . S
C951 C947 1.393 . S
C951 C950 1.391 . S
H952 C960 0.950 . S
H953 C965 0.950 . S
H954 C962 0.950 . S
H955 C964 0.950 . S
H956 C966 0.950 . S
H957 C968 0.950 . S
H958 C970 0.950 . S
H959 C971 0.950 . S
C960 H952 0.950 . S
C960 C961 1.386 . S
C960 C962 1.391 . S
C961 C960 1.386 . S
C961 C965 1.393 . S
C962 H954 0.950 . S
C962 C960 1.391 . S
C962 C963 1.400 . S
C963 C962 1.400 . S
C963 C964 1.398 . S
C963 C969 1.491 . S
C964 H955 0.950 . S
C964 C963 1.398 . S
C964 C965 1.391 . S
C965 H953 0.950 . S
C965 C961 1.393 . S
C965 C964 1.391 . S
C966 H956 0.950 . S
C966 C967 1.386 . S
C966 C968 1.391 . S
C967 C966 1.386 . S
C967 C971 1.393 . S
C968 H957 0.950 . S
C968 C966 1.391 . S
C968 C969 1.400 . S
C969 C963 1.491 . S
C969 C968 1.400 . S
C969 C970 1.398 . S
C970 H958 0.950 . S
C970 C969 1.398 . S
C970 C971 1.391 . S
C971 H959 0.950 . S
C971 C967 1.393 . S
C971 C970 1.391 . S
H972 C980 0.950 . S
H973 C985 0.950 . S
H974 C982 0.950 . S
H975 C984 0.950 . S
H976 C986 0.950 . S
H977 C988 0.950 . S
H978 C990 0.950 . S
H979 C991 0.950 . S
C980 H972 0.950 . S
C980 C981 1.386 . S
C980 C982 1.391 . S
C981 C980 1.386 . S
C981 C985 1.393 . S
C982 H974 0.950 . S
C982 C980 1.391 . S
C982 C983 1.400 . S
C983 C982 1.400 . S
C983 C984 1.398 . S
C983 C989 1.491 . S
C984 H975 0.950 . S
C984 C983 1.398 . S
C984 C985 1.391 . S
C985 H973 0.950 . S
C985 C981 1.393 . S
C985 C984 1.391 . S
C986 H976 0.950 . S
C986 C987 1.386 . S
C986 C988 1.391 . S
C987 C986 1.386 . S
C987 C991 1.393 . S
C988 H977 0.950 . S
C988 C986 1.391 . S
C988 C989 1.400 . S
C989 C983 1.491 . S
C989 C988 1.400 . S
C989 C990 1.398 . S
C990 H978 0.950 . S
C990 C989 1.398 . S
C990 C991 1.391 . S
C991 H979 0.950 . S
C991 C987 1.393 . S
C991 C990 1.391 . S
H992 C1000 0.950 . S
H993 C1005 0.950 . S
H994 C1002 0.950 . S
H995 C1004 0.950 . S
H996 C1006 0.950 . S
H997 C1008 0.950 . S
H998 C1010 0.950 1_554 S
H999 C1011 0.950 . S
C1000 H992 0.950 . S
C1000 C1001 1.386 . S
C1000 C1002 1.391 . S
C1001 C1000 1.386 . S
C1001 C1005 1.393 . S
C1002 H994 0.950 . S
C1002 C1000 1.391 . S
C1002 C1003 1.400 . S
C1003 C1002 1.400 . S
C1003 C1004 1.398 . S
C1003 C1009 1.491 . S
C1004 H995 0.950 . S
C1004 C1003 1.398 . S
C1004 C1005 1.391 . S
C1005 H993 0.950 . S
C1005 C1001 1.393 . S
C1005 C1004 1.391 . S
C1006 H996 0.950 . S
C1006 C1007 1.386 1_556 S
C1006 C1008 1.391 . S
C1007 C1006 1.386 1_554 S
C1007 C1011 1.393 . S
C1008 H997 0.950 . S
C1008 C1006 1.391 . S
C1008 C1009 1.400 . S
C1009 C1003 1.491 . S
C1009 C1008 1.400 . S
C1009 C1010 1.398 . S
C1010 H998 0.950 1_556 S
C1010 C1009 1.398 . S
C1010 C1011 1.391 1_556 S
C1011 H999 0.950 . S
C1011 C1007 1.393 . S
C1011 C1010 1.391 1_554 S
H1012 C1020 0.950 . S
H1013 C1025 0.950 . S
H1014 C1022 0.950 . S
H1015 C1024 0.950 . S
H1016 C1026 0.950 . S
H1017 C1028 0.950 . S
H1018 C1030 0.950 . S
H1019 C1031 0.950 . S
C1020 H1012 0.950 . S
C1020 C1021 1.386 . S
C1020 C1022 1.391 1_556 S
C1021 C1020 1.386 . S
C1021 C1025 1.393 1_556 S
C1022 H1014 0.950 . S
C1022 C1020 1.391 1_554 S
C1022 C1023 1.400 . S
C1023 C1022 1.400 . S
C1023 C1024 1.398 . S
C1023 C1029 1.491 . S
C1024 H1015 0.950 . S
C1024 C1023 1.398 . S
C1024 C1025 1.391 . S
C1025 H1013 0.950 . S
C1025 C1021 1.393 1_554 S
C1025 C1024 1.391 . S
C1026 H1016 0.950 . S
C1026 C1027 1.386 . S
C1026 C1028 1.391 . S
C1027 C1026 1.386 . S
C1027 C1031 1.393 . S
C1028 H1017 0.950 . S
C1028 C1026 1.391 . S
C1028 C1029 1.400 . S
C1029 C1023 1.491 . S
C1029 C1028 1.400 . S
C1029 C1030 1.398 . S
C1030 H1018 0.950 . S
C1030 C1029 1.398 . S
C1030 C1031 1.391 . S
C1031 H1019 0.950 . S
C1031 C1027 1.393 . S
C1031 C1030 1.391 . S
H1032 C1040 0.950 . S
H1033 C1045 0.950 . S
H1034 C1042 0.950 . S
H1035 C1044 0.950 1_554 S
H1036 C1046 0.950 . S
H1037 C1048 0.950 . S
H1038 C1050 0.950 . S
H1039 C1051 0.950 . S
C1040 H1032 0.950 . S
C1040 C1041 1.386 1_556 S
C1040 C1042 1.391 . S
C1041 C1040 1.386 1_554 S
C1041 C1045 1.393 . S
C1042 H1034 0.950 . S
C1042 C1040 1.391 . S
C1042 C1043 1.400 . S
C1043 C1042 1.400 . S
C1043 C1044 1.398 . S
C1043 C1049 1.491 . S
C1044 H1035 0.950 1_556 S
C1044 C1043 1.398 . S
C1044 C1045 1.391 1_556 S
C1045 H1033 0.950 . S
C1045 C1041 1.393 . S
C1045 C1044 1.391 1_554 S
C1046 H1036 0.950 . S
C1046 C1047 1.386 . S
C1046 C1048 1.391 . S
C1047 C1046 1.386 . S
C1047 C1051 1.393 . S
C1048 H1037 0.950 . S
C1048 C1046 1.391 . S
C1048 C1049 1.400 . S
C1049 C1043 1.491 . S
C1049 C1048 1.400 . S
C1049 C1050 1.398 . S
C1050 H1038 0.950 . S
C1050 C1049 1.398 . S
C1050 C1051 1.391 . S
C1051 H1039 0.950 . S
C1051 C1047 1.393 . S
C1051 C1050 1.391 . S
H1052 C1060 0.950 . S
H1053 C1065 0.950 . S
H1054 C1062 0.950 . S
H1055 C1064 0.950 . S
H1056 C1066 0.950 . S
H1057 C1068 0.950 . S
H1058 C1070 0.950 . S
H1059 C1071 0.950 . S
C1060 H1052 0.950 . S
C1060 C1061 1.386 . S
C1060 C1062 1.391 . S
C1061 C1060 1.386 . S
C1061 C1065 1.393 1_556 S
C1062 H1054 0.950 . S
C1062 C1060 1.391 . S
C1062 C1063 1.400 1_556 S
C1063 C1062 1.400 1_554 S
C1063 C1064 1.398 . S
C1063 C1069 1.491 . S
C1064 H1055 0.950 . S
C1064 C1063 1.398 . S
C1064 C1065 1.391 . S
C1065 H1053 0.950 . S
C1065 C1061 1.393 1_554 S
C1065 C1064 1.391 . S
C1066 H1056 0.950 . S
C1066 C1067 1.386 . S
C1066 C1068 1.391 . S
C1067 C1066 1.386 . S
C1067 C1071 1.393 . S
C1068 H1057 0.950 . S
C1068 C1066 1.391 . S
C1068 C1069 1.400 . S
C1069 C1063 1.491 . S
C1069 C1068 1.400 . S
C1069 C1070 1.398 . S
C1070 H1058 0.950 . S
C1070 C1069 1.398 . S
C1070 C1071 1.391 . S
C1071 H1059 0.950 . S
C1071 C1067 1.393 . S
C1071 C1070 1.391 . S
H1072 C1080 0.950 . S
H1073 C1085 0.950 . S
H1074 C1082 0.950 . S
H1075 C1084 0.950 . S
H1076 C1086 0.950 . S
H1077 C1088 0.950 . S
H1078 C1090 0.950 . S
H1079 C1091 0.950 . S
C1080 H1072 0.950 . S
C1080 C1081 1.386 . S
C1080 C1082 1.391 . S
C1081 C1080 1.386 . S
C1081 C1085 1.393 . S
C1082 H1074 0.950 . S
C1082 C1080 1.391 . S
C1082 C1083 1.400 . S
C1083 C1082 1.400 . S
C1083 C1084 1.398 . S
C1083 C1089 1.491 . S
C1084 H1075 0.950 . S
C1084 C1083 1.398 . S
C1084 C1085 1.391 . S
C1085 H1073 0.950 . S
C1085 C1081 1.393 . S
C1085 C1084 1.391 . S
C1086 H1076 0.950 . S
C1086 C1087 1.386 . S
C1086 C1088 1.391 . S
C1087 C1086 1.386 . S
C1087 C1091 1.393 . S
C1088 H1077 0.950 . S
C1088 C1086 1.391 . S
C1088 C1089 1.400 . S
C1089 C1083 1.491 . S
C1089 C1088 1.400 . S
C1089 C1090 1.398 . S
C1090 H1078 0.950 . S
C1090 C1089 1.398 . S
C1090 C1091 1.391 . S
C1091 H1079 0.950 . S
C1091 C1087 1.393 . S
C1091 C1090 1.391 . S
H1092 C1100 0.950 . S
H1093 C1105 0.950 . S
H1094 C1102 0.950 . S
H1095 C1104 0.950 . S
H1096 C1106 0.950 . S
H1097 C1108 0.950 . S
H1098 C1110 0.950 . S
H1099 C1111 0.950 . S
C1100 H1092 0.950 . S
C1100 C1101 1.386 . S
C1100 C1102 1.391 . S
C1101 C1100 1.386 . S
C1101 C1105 1.393 . S
C1102 H1094 0.950 . S
C1102 C1100 1.391 . S
C1102 C1103 1.400 . S
C1103 C1102 1.400 . S
C1103 C1104 1.398 . S
C1103 C1109 1.491 . S
C1104 H1095 0.950 . S
C1104 C1103 1.398 . S
C1104 C1105 1.391 . S
C1105 H1093 0.950 . S
C1105 C1101 1.393 . S
C1105 C1104 1.391 . S
C1106 H1096 0.950 . S
C1106 C1107 1.386 . S
C1106 C1108 1.391 . S
C1107 C1106 1.386 . S
C1107 C1111 1.393 . S
C1108 H1097 0.950 . S
C1108 C1106 1.391 . S
C1108 C1109 1.400 . S
C1109 C1103 1.491 . S
C1109 C1108 1.400 . S
C1109 C1110 1.398 . S
C1110 H1098 0.950 . S
C1110 C1109 1.398 . S
C1110 C1111 1.391 . S
C1111 H1099 0.950 . S
C1111 C1107 1.393 . S
C1111 C1110 1.391 . S
H1112 C1120 0.950 . S
H1113 C1125 0.950 . S
H1114 C1122 0.950 . S
H1115 C1124 0.950 . S
H1116 C1126 0.950 . S
H1117 C1128 0.950 . S
H1118 C1130 0.950 . S
H1119 C1131 0.950 . S
C1120 H1112 0.950 . S
C1120 C1121 1.386 . S
C1120 C1122 1.391 . S
C1121 C1120 1.386 . S
C1121 C1125 1.393 . S
C1122 H1114 0.950 . S
C1122 C1120 1.391 . S
C1122 C1123 1.400 . S
C1123 C1122 1.400 . S
C1123 C1124 1.398 . S
C1123 C1129 1.491 . S
C1124 H1115 0.950 . S
C1124 C1123 1.398 . S
C1124 C1125 1.391 . S
C1125 H1113 0.950 . S
C1125 C1121 1.393 . S
C1125 C1124 1.391 . S
C1126 H1116 0.950 . S
C1126 C1127 1.386 . S
C1126 C1128 1.391 . S
C1127 C1126 1.386 . S
C1127 C1131 1.393 . S
C1128 H1117 0.950 . S
C1128 C1126 1.391 . S
C1128 C1129 1.400 . S
C1129 C1123 1.491 . S
C1129 C1128 1.400 . S
C1129 C1130 1.398 . S
C1130 H1118 0.950 . S
C1130 C1129 1.398 . S
C1130 C1131 1.391 . S
C1131 H1119 0.950 . S
C1131 C1127 1.393 . S
C1131 C1130 1.391 . S
H1132 C1140 0.950 . S
H1133 C1145 0.950 . S
H1134 C1142 0.950 . S
H1135 C1144 0.950 . S
H1136 C1146 0.950 . S
H1137 C1148 0.950 . S
H1138 C1150 0.950 . S
H1139 C1151 0.950 . S
C1140 H1132 0.950 . S
C1140 C1141 1.386 . S
C1140 C1142 1.391 . S
C1141 C1140 1.386 . S
C1141 C1145 1.393 . S
C1142 H1134 0.950 . S
C1142 C1140 1.391 . S
C1142 C1143 1.400 . S
C1143 C1142 1.400 . S
C1143 C1144 1.398 . S
C1143 C1149 1.491 . S
C1144 H1135 0.950 . S
C1144 C1143 1.398 . S
C1144 C1145 1.391 . S
C1145 H1133 0.950 . S
C1145 C1141 1.393 . S
C1145 C1144 1.391 . S
C1146 H1136 0.950 . S
C1146 C1147 1.386 . S
C1146 C1148 1.391 . S
C1147 C1146 1.386 . S
C1147 C1151 1.393 . S
C1148 H1137 0.950 . S
C1148 C1146 1.391 . S
C1148 C1149 1.400 . S
C1149 C1143 1.491 . S
C1149 C1148 1.400 . S
C1149 C1150 1.398 . S
C1150 H1138 0.950 . S
C1150 C1149 1.398 . S
C1150 C1151 1.391 . S
C1151 H1139 0.950 . S
C1151 C1147 1.393 . S
C1151 C1150 1.391 . S
H1152 C1160 0.950 . S
H1153 C1165 0.950 . S
H1154 C1162 0.950 . S
H1155 C1164 0.950 . S
H1156 C1166 0.950 . S
H1157 C1168 0.950 . S
H1158 C1170 0.950 . S
H1159 C1171 0.950 . S
C1160 H1152 0.950 . S
C1160 C1161 1.386 . S
C1160 C1162 1.391 . S
C1161 C1160 1.386 . S
C1161 C1165 1.393 . S
C1162 H1154 0.950 . S
C1162 C1160 1.391 . S
C1162 C1163 1.400 . S
C1163 C1162 1.400 . S
C1163 C1164 1.398 . S
C1163 C1169 1.491 . S
C1164 H1155 0.950 . S
C1164 C1163 1.398 . S
C1164 C1165 1.391 . S
C1165 H1153 0.950 . S
C1165 C1161 1.393 . S
C1165 C1164 1.391 . S
C1166 H1156 0.950 . S
C1166 C1167 1.386 . S
C1166 C1168 1.391 . S
C1167 C1166 1.386 . S
C1167 C1171 1.393 . S
C1168 H1157 0.950 . S
C1168 C1166 1.391 . S
C1168 C1169 1.400 . S
C1169 C1163 1.491 . S
C1169 C1168 1.400 . S
C1169 C1170 1.398 . S
C1170 H1158 0.950 . S
C1170 C1169 1.398 . S
C1170 C1171 1.391 . S
C1171 H1159 0.950 . S
C1171 C1167 1.393 . S
C1171 C1170 1.391 . S
H1172 C1180 0.950 . S
H1173 C1185 0.950 . S
H1174 C1182 0.950 . S
H1175 C1184 0.950 . S
H1176 C1186 0.950 . S
H1177 C1188 0.950 . S
H1178 C1190 0.950 . S
H1179 C1191 0.950 . S
C1180 H1172 0.950 . S
C1180 C1181 1.386 . S
C1180 C1182 1.391 . S
C1181 C1180 1.386 . S
C1181 C1185 1.393 . S
C1182 H1174 0.950 . S
C1182 C1180 1.391 . S
C1182 C1183 1.400 . S
C1183 C1182 1.400 . S
C1183 C1184 1.398 . S
C1183 C1189 1.491 . S
C1184 H1175 0.950 . S
C1184 C1183 1.398 . S
C1184 C1185 1.391 . S
C1185 H1173 0.950 . S
C1185 C1181 1.393 . S
C1185 C1184 1.391 . S
C1186 H1176 0.950 . S
C1186 C1187 1.386 . S
C1186 C1188 1.391 . S
C1187 C1186 1.386 . S
C1187 C1191 1.393 . S
C1188 H1177 0.950 . S
C1188 C1186 1.391 . S
C1188 C1189 1.400 . S
C1189 C1183 1.491 . S
C1189 C1188 1.400 . S
C1189 C1190 1.398 . S
C1190 H1178 0.950 . S
C1190 C1189 1.398 . S
C1190 C1191 1.391 . S
C1191 H1179 0.950 . S
C1191 C1187 1.393 . S
C1191 C1190 1.391 . S
H1192 C1200 0.950 . S
H1193 C1205 0.950 . S
H1194 C1202 0.950 . S
H1195 C1204 0.950 . S
H1196 C1206 0.950 . S
H1197 C1208 0.950 . S
H1198 C1210 0.950 . S
H1199 C1211 0.950 . S
C1200 H1192 0.950 . S
C1200 C1201 1.386 . S
C1200 C1202 1.391 . S
C1201 C1200 1.386 . S
C1201 C1205 1.393 . S
C1202 H1194 0.950 . S
C1202 C1200 1.391 . S
C1202 C1203 1.400 . S
C1203 C1202 1.400 . S
C1203 C1204 1.398 . S
C1203 C1209 1.491 . S
C1204 H1195 0.950 . S
C1204 C1203 1.398 . S
C1204 C1205 1.391 . S
C1205 H1193 0.950 . S
C1205 C1201 1.393 . S
C1205 C1204 1.391 . S
C1206 H1196 0.950 . S
C1206 C1207 1.386 . S
C1206 C1208 1.391 . S
C1207 C1206 1.386 . S
C1207 C1211 1.393 . S
C1208 H1197 0.950 . S
C1208 C1206 1.391 . S
C1208 C1209 1.400 . S
C1209 C1203 1.491 . S
C1209 C1208 1.400 . S
C1209 C1210 1.398 . S
C1210 H1198 0.950 . S
C1210 C1209 1.398 . S
C1210 C1211 1.391 . S
C1211 H1199 0.950 . S
C1211 C1207 1.393 . S
C1211 C1210 1.391 . S
H1212 C1220 0.950 . S
H1213 C1225 0.950 . S
H1214 C1222 0.950 . S
H1215 C1224 0.950 . S
H1216 C1226 0.950 . S
H1217 C1228 0.950 . S
H1218 C1230 0.950 . S
H1219 C1231 0.950 . S
C1220 H1212 0.950 . S
C1220 C1221 1.386 . S
C1220 C1222 1.391 . S
C1221 C1220 1.386 . S
C1221 C1225 1.393 . S
C1222 H1214 0.950 . S
C1222 C1220 1.391 . S
C1222 C1223 1.400 . S
C1223 C1222 1.400 . S
C1223 C1224 1.398 . S
C1223 C1229 1.491 . S
C1224 H1215 0.950 . S
C1224 C1223 1.398 . S
C1224 C1225 1.391 . S
C1225 H1213 0.950 . S
C1225 C1221 1.393 . S
C1225 C1224 1.391 . S
C1226 H1216 0.950 . S
C1226 C1227 1.386 . S
C1226 C1228 1.391 . S
C1227 C1226 1.386 . S
C1227 C1231 1.393 . S
C1228 H1217 0.950 . S
C1228 C1226 1.391 . S
C1228 C1229 1.400 . S
C1229 C1223 1.491 . S
C1229 C1228 1.400 . S
C1229 C1230 1.398 . S
C1230 H1218 0.950 . S
C1230 C1229 1.398 . S
C1230 C1231 1.391 . S
C1231 H1219 0.950 . S
C1231 C1227 1.393 . S
C1231 C1230 1.391 . S
H1232 C1240 0.950 . S
H1233 C1245 0.950 . S
H1234 C1242 0.950 . S
H1235 C1244 0.950 . S
H1236 C1246 0.950 . S
H1237 C1248 0.950 . S
H1238 C1250 0.950 . S
H1239 C1251 0.950 . S
C1240 H1232 0.950 . S
C1240 C1241 1.386 . S
C1240 C1242 1.391 . S
C1241 C1240 1.386 . S
C1241 C1245 1.393 . S
C1242 H1234 0.950 . S
C1242 C1240 1.391 . S
C1242 C1243 1.400 . S
C1243 C1242 1.400 . S
C1243 C1244 1.398 . S
C1243 C1249 1.491 . S
C1244 H1235 0.950 . S
C1244 C1243 1.398 . S
C1244 C1245 1.391 . S
C1245 H1233 0.950 . S
C1245 C1241 1.393 . S
C1245 C1244 1.391 . S
C1246 H1236 0.950 . S
C1246 C1247 1.386 . S
C1246 C1248 1.391 . S
C1247 C1246 1.386 . S
C1247 C1251 1.393 . S
C1248 H1237 0.950 . S
C1248 C1246 1.391 . S
C1248 C1249 1.400 . S
C1249 C1243 1.491 . S
C1249 C1248 1.400 . S
C1249 C1250 1.398 . S
C1250 H1238 0.950 . S
C1250 C1249 1.398 . S
C1250 C1251 1.391 . S
C1251 H1239 0.950 . S
C1251 C1247 1.393 . S
C1251 C1250 1.391 . S
H1252 C1260 0.950 . S
H1253 C1265 0.950 . S
H1254 C1262 0.950 . S
H1255 C1264 0.950 . S
H1256 C1266 0.950 . S
H1257 C1268 0.950 . S
H1258 C1270 0.950 . S
H1259 C1271 0.950 . S
C1260 H1252 0.950 . S
C1260 C1261 1.386 . S
C1260 C1262 1.391 . S
C1261 C1260 1.386 . S
C1261 C1265 1.393 . S
C1262 H1254 0.950 . S
C1262 C1260 1.391 . S
C1262 C1263 1.400 . S
C1263 C1262 1.400 . S
C1263 C1264 1.398 . S
C1263 C1269 1.491 . S
C1264 H1255 0.950 . S
C1264 C1263 1.398 . S
C1264 C1265 1.391 . S
C1265 H1253 0.950 . S
C1265 C1261 1.393 . S
C1265 C1264 1.391 . S
C1266 H1256 0.950 . S
C1266 C1267 1.386 . S
C1266 C1268 1.391 . S
C1267 C1266 1.386 . S
C1267 C1271 1.393 . S
C1268 H1257 0.950 . S
C1268 C1266 1.391 . S
C1268 C1269 1.400 . S
C1269 C1263 1.491 . S
C1269 C1268 1.400 . S
C1269 C1270 1.398 . S
C1270 H1258 0.950 . S
C1270 C1269 1.398 . S
C1270 C1271 1.391 . S
C1271 H1259 0.950 . S
C1271 C1267 1.393 . S
C1271 C1270 1.391 . S
H1272 C1280 0.950 . S
H1273 C1285 0.950 . S
H1274 C1282 0.950 . S
H1275 C1284 0.950 . S
H1276 C1286 0.950 . S
H1277 C1288 0.950 . S
H1278 C1290 0.950 . S
H1279 C1291 0.950 . S
C1280 H1272 0.950 . S
C1280 C1281 1.386 . S
C1280 C1282 1.391 . S
C1281 C1280 1.386 . S
C1281 C1285 1.393 . S
C1282 H1274 0.950 . S
C1282 C1280 1.391 . S
C1282 C1283 1.400 . S
C1283 C1282 1.400 . S
C1283 C1284 1.398 . S
C1283 C1289 1.491 . S
C1284 H1275 0.950 . S
C1284 C1283 1.398 . S
C1284 C1285 1.391 . S
C1285 H1273 0.950 . S
C1285 C1281 1.393 . S
C1285 C1284 1.391 . S
C1286 H1276 0.950 . S
C1286 C1287 1.386 . S
C1286 C1288 1.391 . S
C1287 C1286 1.386 . S
C1287 C1291 1.393 . S
C1288 H1277 0.950 . S
C1288 C1286 1.391 . S
C1288 C1289 1.400 . S
C1289 C1283 1.491 . S
C1289 C1288 1.400 . S
C1289 C1290 1.398 . S
C1290 H1278 0.950 . S
C1290 C1289 1.398 . S
C1290 C1291 1.391 . S
C1291 H1279 0.950 . S
C1291 C1287 1.393 . S
C1291 C1290 1.391 . S
H1292 C1300 0.950 . S
H1293 C1305 0.950 . S
H1294 C1302 0.950 . S
H1295 C1304 0.950 . S
H1296 C1306 0.950 . S
H1297 C1308 0.950 . S
H1298 C1310 0.950 . S
H1299 C1311 0.950 . S
C1300 H1292 0.950 . S
C1300 C1301 1.386 . S
C1300 C1302 1.391 . S
C1301 C1300 1.386 . S
C1301 C1305 1.393 . S
C1302 H1294 0.950 . S
C1302 C1300 1.391 . S
C1302 C1303 1.400 . S
C1303 C1302 1.400 . S
C1303 C1304 1.398 . S
C1303 C1309 1.491 . S
C1304 H1295 0.950 . S
C1304 C1303 1.398 . S
C1304 C1305 1.391 . S
C1305 H1293 0.950 . S
C1305 C1301 1.393 . S
C1305 C1304 1.391 . S
C1306 H1296 0.950 . S
C1306 C1307 1.386 . S
C1306 C1308 1.391 . S
C1307 C1306 1.386 . S
C1307 C1311 1.393 . S
C1308 H1297 0.950 . S
C1308 C1306 1.391 . S
C1308 C1309 1.400 . S
C1309 C1303 1.491 . S
C1309 C1308 1.400 . S
C1309 C1310 1.398 . S
C1310 H1298 0.950 . S
C1310 C1309 1.398 . S
C1310 C1311 1.391 . S
C1311 H1299 0.950 . S
C1311 C1307 1.393 . S
C1311 C1310 1.391 . S
H1312 C1320 0.950 . S
H1313 C1325 0.950 . S
H1314 C1322 0.950 . S
H1315 C1324 0.950 . S
H1316 C1326 0.950 . S
H1317 C1328 0.950 . S
H1318 C1330 0.950 . S
H1319 C1331 0.950 . S
C1320 H1312 0.950 . S
C1320 C1321 1.386 . S
C1320 C1322 1.391 1_556 S
C1321 C1320 1.386 . S
C1321 C1325 1.393 . S
C1322 H1314 0.950 . S
C1322 C1320 1.391 1_554 S
C1322 C1323 1.400 . S
C1323 C1322 1.400 . S
C1323 C1324 1.398 . S
C1323 C1329 1.491 . S
C1324 H1315 0.950 . S
C1324 C1323 1.398 . S
C1324 C1325 1.391 1_554 S
C1325 H1313 0.950 . S
C1325 C1321 1.393 . S
C1325 C1324 1.391 1_556 S
C1326 H1316 0.950 . S
C1326 C1327 1.386 . S
C1326 C1328 1.391 . S
C1327 C1326 1.386 . S
C1327 C1331 1.393 . S
C1328 H1317 0.950 . S
C1328 C1326 1.391 . S
C1328 C1329 1.400 . S
C1329 C1323 1.491 . S
C1329 C1328 1.400 . S
C1329 C1330 1.398 . S
C1330 H1318 0.950 . S
C1330 C1329 1.398 . S
C1330 C1331 1.391 . S
C1331 H1319 0.950 . S
C1331 C1327 1.393 . S
C1331 C1330 1.391 . S
H1332 C1340 0.950 . S
H1333 C1345 0.950 . S
H1334 C1342 0.950 . S
H1335 C1344 0.950 . S
H1336 C1346 0.950 . S
H1337 C1348 0.950 . S
H1338 C1350 0.950 . S
H1339 C1351 0.950 . S
C1340 H1332 0.950 . S
C1340 C1341 1.386 . S
C1340 C1342 1.391 . S
C1341 C1340 1.386 . S
C1341 C1345 1.393 . S
C1342 H1334 0.950 . S
C1342 C1340 1.391 . S
C1342 C1343 1.400 . S
C1343 C1342 1.400 . S
C1343 C1344 1.398 . S
C1343 C1349 1.491 . S
C1344 H1335 0.950 . S
C1344 C1343 1.398 . S
C1344 C1345 1.391 . S
C1345 H1333 0.950 . S
C1345 C1341 1.393 . S
C1345 C1344 1.391 . S
C1346 H1336 0.950 . S
C1346 C1347 1.386 . S
C1346 C1348 1.391 1_554 S
C1347 C1346 1.386 . S
C1347 C1351 1.393 . S
C1348 H1337 0.950 . S
C1348 C1346 1.391 1_556 S
C1348 C1349 1.400 . S
C1349 C1343 1.491 . S
C1349 C1348 1.400 . S
C1349 C1350 1.398 . S
C1350 H1338 0.950 . S
C1350 C1349 1.398 . S
C1350 C1351 1.391 1_556 S
C1351 H1339 0.950 . S
C1351 C1347 1.393 . S
C1351 C1350 1.391 1_554 S
H1352 C1360 0.950 . S
H1353 C1365 0.950 . S
H1354 C1362 0.950 . S
H1355 C1364 0.950 . S
H1356 C1366 0.950 . S
H1357 C1368 0.950 . S
H1358 C1370 0.950 . S
H1359 C1371 0.950 . S
C1360 H1352 0.950 . S
C1360 C1361 1.386 . S
C1360 C1362 1.391 . S
C1361 C1360 1.386 . S
C1361 C1365 1.393 . S
C1362 H1354 0.950 . S
C1362 C1360 1.391 . S
C1362 C1363 1.400 . S
C1363 C1362 1.400 . S
C1363 C1364 1.398 . S
C1363 C1369 1.491 . S
C1364 H1355 0.950 . S
C1364 C1363 1.398 . S
C1364 C1365 1.391 . S
C1365 H1353 0.950 . S
C1365 C1361 1.393 . S
C1365 C1364 1.391 . S
C1366 H1356 0.950 . S
C1366 C1367 1.386 . S
C1366 C1368 1.391 1_556 S
C1367 C1366 1.386 . S
C1367 C1371 1.393 . S
C1368 H1357 0.950 . S
C1368 C1366 1.391 1_554 S
C1368 C1369 1.400 . S
C1369 C1363 1.491 . S
C1369 C1368 1.400 . S
C1369 C1370 1.398 . S
C1370 H1358 0.950 . S
C1370 C1369 1.398 . S
C1370 C1371 1.391 1_554 S
C1371 H1359 0.950 . S
C1371 C1367 1.393 . S
C1371 C1370 1.391 1_556 S
H1372 C1380 0.950 . S
H1373 C1385 0.950 . S
H1374 C1382 0.950 . S
H1375 C1384 0.950 . S
H1376 C1386 0.950 . S
H1377 C1388 0.950 . S
H1378 C1390 0.950 . S
H1379 C1391 0.950 . S
C1380 H1372 0.950 . S
C1380 C1381 1.386 . S
C1380 C1382 1.391 1_554 S
C1381 C1380 1.386 . S
C1381 C1385 1.393 . S
C1382 H1374 0.950 . S
C1382 C1380 1.391 1_556 S
C1382 C1383 1.400 . S
C1383 C1382 1.400 . S
C1383 C1384 1.398 . S
C1383 C1389 1.491 . S
C1384 H1375 0.950 . S
C1384 C1383 1.398 . S
C1384 C1385 1.391 1_556 S
C1385 H1373 0.950 . S
C1385 C1381 1.393 . S
C1385 C1384 1.391 1_554 S
C1386 H1376 0.950 . S
C1386 C1387 1.386 . S
C1386 C1388 1.391 . S
C1387 C1386 1.386 . S
C1387 C1391 1.393 . S
C1388 H1377 0.950 . S
C1388 C1386 1.391 . S
C1388 C1389 1.400 . S
C1389 C1383 1.491 . S
C1389 C1388 1.400 . S
C1389 C1390 1.398 . S
C1390 H1378 0.950 . S
C1390 C1389 1.398 . S
C1390 C1391 1.391 . S
C1391 H1379 0.950 . S
C1391 C1387 1.393 . S
C1391 C1390 1.391 . S
H1392 C1400 0.950 . S
H1393 C1405 0.950 . S
H1394 C1402 0.950 . S
H1395 C1404 0.950 . S
H1396 C1406 0.950 . S
H1397 C1408 0.950 . S
H1398 C1410 0.950 . S
H1399 C1411 0.950 . S
C1400 H1392 0.950 . S
C1400 C1401 1.386 . S
C1400 C1402 1.391 . S
C1401 C1400 1.386 . S
C1401 C1405 1.393 . S
C1402 H1394 0.950 . S
C1402 C1400 1.391 . S
C1402 C1403 1.400 . S
C1403 C1402 1.400 . S
C1403 C1404 1.398 . S
C1403 C1409 1.491 . S
C1404 H1395 0.950 . S
C1404 C1403 1.398 . S
C1404 C1405 1.391 . S
C1405 H1393 0.950 . S
C1405 C1401 1.393 . S
C1405 C1404 1.391 . S
C1406 H1396 0.950 . S
C1406 C1407 1.386 . S
C1406 C1408 1.391 1_556 S
C1407 C1406 1.386 . S
C1407 C1411 1.393 . S
C1408 H1397 0.950 . S
C1408 C1406 1.391 1_554 S
C1408 C1409 1.400 . S
C1409 C1403 1.491 . S
C1409 C1408 1.400 . S
C1409 C1410 1.398 . S
C1410 H1398 0.950 . S
C1410 C1409 1.398 . S
C1410 C1411 1.391 1_554 S
C1411 H1399 0.950 . S
C1411 C1407 1.393 . S
C1411 C1410 1.391 1_556 S
H1412 C1420 0.950 . S
H1413 C1425 0.950 . S
H1414 C1422 0.950 . S
H1415 C1424 0.950 . S
H1416 C1426 0.950 . S
H1417 C1428 0.950 . S
H1418 C1430 0.950 . S
H1419 C1431 0.950 . S
C1420 H1412 0.950 . S
C1420 C1421 1.386 . S
C1420 C1422 1.391 1_554 S
C1421 C1420 1.386 . S
C1421 C1425 1.393 . S
C1422 H1414 0.950 . S
C1422 C1420 1.391 1_556 S
C1422 C1423 1.400 . S
C1423 C1422 1.400 . S
C1423 C1424 1.398 . S
C1423 C1429 1.491 . S
C1424 H1415 0.950 . S
C1424 C1423 1.398 . S
C1424 C1425 1.391 1_556 S
C1425 H1413 0.950 . S
C1425 C1421 1.393 . S
C1425 C1424 1.391 1_554 S
C1426 H1416 0.950 . S
C1426 C1427 1.386 . S
C1426 C1428 1.391 . S
C1427 C1426 1.386 . S
C1427 C1431 1.393 . S
C1428 H1417 0.950 . S
C1428 C1426 1.391 . S
C1428 C1429 1.400 . S
C1429 C1423 1.491 . S
C1429 C1428 1.400 . S
C1429 C1430 1.398 . S
C1430 H1418 0.950 . S
C1430 C1429 1.398 . S
C1430 C1431 1.391 . S
C1431 H1419 0.950 . S
C1431 C1427 1.393 . S
C1431 C1430 1.391 . S
H1432 C1440 0.950 . S
H1433 C1445 0.950 . S
H1434 C1442 0.950 . S
H1435 C1444 0.950 . S
H1436 C1446 0.950 . S
H1437 C1448 0.950 . S
H1438 C1450 0.950 . S
H1439 C1451 0.950 . S
C1440 H1432 0.950 . S
C1440 C1441 1.386 . S
C1440 C1442 1.391 1_556 S
C1441 C1440 1.386 . S
C1441 C1445 1.393 . S
C1442 H1434 0.950 . S
C1442 C1440 1.391 1_554 S
C1442 C1443 1.400 . S
C1443 C1442 1.400 . S
C1443 C1444 1.398 . S
C1443 C1449 1.491 . S
C1444 H1435 0.950 . S
C1444 C1443 1.398 . S
C1444 C1445 1.391 1_554 S
C1445 H1433 0.950 . S
C1445 C1441 1.393 . S
C1445 C1444 1.391 1_556 S
C1446 H1436 0.950 . S
C1446 C1447 1.386 . S
C1446 C1448 1.391 . S
C1447 C1446 1.386 . S
C1447 C1451 1.393 . S
C1448 H1437 0.950 . S
C1448 C1446 1.391 . S
C1448 C1449 1.400 . S
C1449 C1443 1.491 . S
C1449 C1448 1.400 . S
C1449 C1450 1.398 . S
C1450 H1438 0.950 . S
C1450 C1449 1.398 . S
C1450 C1451 1.391 . S
C1451 H1439 0.950 . S
C1451 C1447 1.393 . S
C1451 C1450 1.391 . S
H1452 C1460 0.950 . S
H1453 C1465 0.950 . S
H1454 C1462 0.950 . S
H1455 C1464 0.950 . S
H1456 C1466 0.950 . S
H1457 C1468 0.950 . S
H1458 C1470 0.950 . S
H1459 C1471 0.950 . S
C1460 H1452 0.950 . S
C1460 C1461 1.386 . S
C1460 C1462 1.391 . S
C1461 C1460 1.386 . S
C1461 C1465 1.393 . S
C1462 H1454 0.950 . S
C1462 C1460 1.391 . S
C1462 C1463 1.400 . S
C1463 C1462 1.400 . S
C1463 C1464 1.398 . S
C1463 C1469 1.491 . S
C1464 H1455 0.950 . S
C1464 C1463 1.398 . S
C1464 C1465 1.391 . S
C1465 H1453 0.950 . S
C1465 C1461 1.393 . S
C1465 C1464 1.391 . S
C1466 H1456 0.950 . S
C1466 C1467 1.386 . S
C1466 C1468 1.391 1_554 S
C1467 C1466 1.386 . S
C1467 C1471 1.393 . S
C1468 H1457 0.950 . S
C1468 C1466 1.391 1_556 S
C1468 C1469 1.400 . S
C1469 C1463 1.491 . S
C1469 C1468 1.400 . S
C1469 C1470 1.398 . S
C1470 H1458 0.950 . S
C1470 C1469 1.398 . S
C1470 C1471 1.391 1_556 S
C1471 H1459 0.950 . S
C1471 C1467 1.393 . S
C1471 C1470 1.391 1_554 S
C521 C381 1.586 . S
C527 N13 1.576 . S
C541 C285 1.572 . S
C547 N45 1.568 . S
C561 N82 1.577 . S
C567 C317 1.586 . S
C581 N114 1.580 . S
C587 C324 1.581 . S
C601 N141 1.571 . S
C607 C164 1.584 . S
C621 C221 1.586 . S
C627 N178 1.575 . S
C641 N205 1.570 . S
C647 C253 1.572 . S
C661 C157 1.572 . S
C667 N237 1.568 . S
C681 C100 1.576 . S
C687 N269 1.564 . S
C701 N301 1.574 . S
C707 C29 1.585 . S
C721 C61 1.577 . S
C727 N338 1.565 . S
C741 C68 1.585 . S
C747 N365 1.579 . S
C761 N402 1.566 . S
C767 C445 1.572 . S
C781 C477 1.579 . S
C787 N429 1.565 . S
C801 C484 1.585 . S
C807 N461 1.573 . S
C821 N498 1.580 . S
C827 C388 1.583 . S
C841 N18 1.182 . S
C847 N146 1.178 . S
C861 N173 1.160 . S
C867 N50 1.185 . S
C881 N77 1.155 . S
C887 N210 1.146 . S
C901 N109 1.184 . S
C907 N242 1.176 . S
C921 N274 1.177 . S
C927 N397 1.183 . S
C941 N434 1.144 . S
C947 N306 1.163 . S
C961 N333 1.183 . S
C967 N466 1.177 . S
C981 N370 1.182 . S
C987 N493 1.179 . S
C1001 C450 2.201 . S
C1007 C2 2.199 . S
C1021 C34 2.198 . S
C1027 C486 2.198 . S
C1041 C70 2.207 . S
C1047 C390 2.205 . S
C1061 C102 2.203 . S
C1067 C418 2.201 . S
C1081 C130 2.198 . S
C1087 C326 2.199 . S
C1101 C166 2.207 . S
C1107 C354 2.207 . S
C1121 C194 2.197 . S
C1127 C258 2.197 . S
C1141 C290 2.201 . S
C1147 C226 2.203 . S
C1161 C6 1.046 . S
C1167 C4 1.045 . S
C1181 C38 1.041 . S
C1187 C36 1.045 . S
C1201 C66 1.047 . S
C1207 C93 1.045 . S
C1221 C125 1.045 . S
C1227 C98 1.047 . S
C1241 C132 1.045 . S
C1247 C134 1.042 . S
C1261 C162 1.047 . S
C1267 C189 1.045 . S
C1281 C198 1.045 . S
C1287 C196 1.045 . S
C1301 C228 1.045 . S
C1307 C230 1.043 . S
C1321 C262 1.047 . S
C1327 C260 1.045 . S
C1341 C292 1.045 . S
C1347 C294 1.043 . S
C1361 C349 1.045 . S
C1367 C322 1.046 . S
C1381 C358 1.043 . S
C1387 C356 1.045 . S
C1401 C386 1.047 . S
C1407 C413 1.045 . S
C1421 C420 1.045 . S
C1427 C422 1.041 . S
C1441 C452 1.045 . S
C1447 C454 1.047 . S
C1461 C482 1.042 . S
C1467 C509 1.045 . S
