# Generated by pormake.
# Topology wkj, (6)-cn, num edge types: 1
# Building blocks:
#     Node 0, Type 0, BuildingBlock: JUFBIX_clean_sbu_0, # of connection points: 6
#     Node 1, Type 0, BuildingBlock: JUFBIX_clean_sbu_0, # of connection points: 6
#     Node 2, Type 0, BuildingBlock: JUFBIX_clean_sbu_0, # of connection points: 6
#     Node 3, Type 0, BuildingBlock: JUFBIX_clean_sbu_0, # of connection points: 6
#     Node 4, Type 0, BuildingBlock: JUFBIX_clean_sbu_0, # of connection points: 6
#     Node 5, Type 0, BuildingBlock: JUFBIX_clean_sbu_0, # of connection points: 6
#     Node 6, Type 0, BuildingBlock: JUFBIX_clean_sbu_0, # of connection points: 6
#     Node 7, Type 0, BuildingBlock: JUFBIX_clean_sbu_0, # of connection points: 6
#     Node 8, Type 0, BuildingBlock: JUFBIX_clean_sbu_0, # of connection points: 6
#     Node 9, Type 0, BuildingBlock: JUFBIX_clean_sbu_0, # of connection points: 6
#     Node 10, Type 0, BuildingBlock: JUFBIX_clean_sbu_0, # of connection points: 6
#     Node 11, Type 0, BuildingBlock: JUFBIX_clean_sbu_0, # of connection points: 6
#     Edge 12, Type (0, 0), BuildingBlock: UVAHIK_clean_linker_0, # of connection points: 2
#     Edge 13, Type (0, 0), BuildingBlock: UVAHIK_clean_linker_0, # of connection points: 2
#     Edge 14, Type (0, 0), BuildingBlock: UVAHIK_clean_linker_0, # of connection points: 2
#     Edge 15, Type (0, 0), BuildingBlock: UVAHIK_clean_linker_0, # of connection points: 2
#     Edge 16, Type (0, 0), BuildingBlock: UVAHIK_clean_linker_0, # of connection points: 2
#     Edge 17, Type (0, 0), BuildingBlock: UVAHIK_clean_linker_0, # of connection points: 2
#     Edge 18, Type (0, 0), BuildingBlock: UVAHIK_clean_linker_0, # of connection points: 2
#     Edge 19, Type (0, 0), BuildingBlock: UVAHIK_clean_linker_0, # of connection points: 2
#     Edge 20, Type (0, 0), BuildingBlock: UVAHIK_clean_linker_0, # of connection points: 2
#     Edge 21, Type (0, 0), BuildingBlock: UVAHIK_clean_linker_0, # of connection points: 2
#     Edge 22, Type (0, 0), BuildingBlock: UVAHIK_clean_linker_0, # of connection points: 2
#     Edge 23, Type (0, 0), BuildingBlock: UVAHIK_clean_linker_0, # of connection points: 2
#     Edge 24, Type (0, 0), BuildingBlock: UVAHIK_clean_linker_0, # of connection points: 2
#     Edge 25, Type (0, 0), BuildingBlock: UVAHIK_clean_linker_0, # of connection points: 2
#     Edge 26, Type (0, 0), BuildingBlock: UVAHIK_clean_linker_0, # of connection points: 2
#     Edge 27, Type (0, 0), BuildingBlock: UVAHIK_clean_linker_0, # of connection points: 2
#     Edge 28, Type (0, 0), BuildingBlock: UVAHIK_clean_linker_0, # of connection points: 2
#     Edge 29, Type (0, 0), BuildingBlock: UVAHIK_clean_linker_0, # of connection points: 2
#     Edge 30, Type (0, 0), BuildingBlock: UVAHIK_clean_linker_0, # of connection points: 2
#     Edge 31, Type (0, 0), BuildingBlock: UVAHIK_clean_linker_0, # of connection points: 2
#     Edge 32, Type (0, 0), BuildingBlock: UVAHIK_clean_linker_0, # of connection points: 2
#     Edge 33, Type (0, 0), BuildingBlock: UVAHIK_clean_linker_0, # of connection points: 2
#     Edge 34, Type (0, 0), BuildingBlock: UVAHIK_clean_linker_0, # of connection points: 2
#     Edge 35, Type (0, 0), BuildingBlock: UVAHIK_clean_linker_0, # of connection points: 2
#     Edge 36, Type (0, 0), BuildingBlock: UVAHIK_clean_linker_0, # of connection points: 2
#     Edge 37, Type (0, 0), BuildingBlock: UVAHIK_clean_linker_0, # of connection points: 2
#     Edge 38, Type (0, 0), BuildingBlock: UVAHIK_clean_linker_0, # of connection points: 2
#     Edge 39, Type (0, 0), BuildingBlock: UVAHIK_clean_linker_0, # of connection points: 2
#     Edge 40, Type (0, 0), BuildingBlock: UVAHIK_clean_linker_0, # of connection points: 2
#     Edge 41, Type (0, 0), BuildingBlock: UVAHIK_clean_linker_0, # of connection points: 2
#     Edge 42, Type (0, 0), BuildingBlock: UVAHIK_clean_linker_0, # of connection points: 2
#     Edge 43, Type (0, 0), BuildingBlock: UVAHIK_clean_linker_0, # of connection points: 2
#     Edge 44, Type (0, 0), BuildingBlock: UVAHIK_clean_linker_0, # of connection points: 2
#     Edge 45, Type (0, 0), BuildingBlock: UVAHIK_clean_linker_0, # of connection points: 2
#     Edge 46, Type (0, 0), BuildingBlock: UVAHIK_clean_linker_0, # of connection points: 2
#     Edge 47, Type (0, 0), BuildingBlock: UVAHIK_clean_linker_0, # of connection points: 2
# Relax obj value: 0.777
# Max RMSD: 0.257
# Mean RMSD: 0.256
data_MOF--net-wkj--node1-JUFBIX_clean_sbu_0--edge1-UVAHIK_clean_linker_0
_symmetry_space_group_name_H-M    P1
_symmetry_Int_Tables_number       1
_symmetry_cell_setting            triclinic
loop_
_symmetry_equiv_pos_as_xyz
'x, y, z'
_cell_length_a     64.720098
_cell_length_b     64.795483
_cell_length_c     33.92214
_cell_angle_alpha  89.995348
_cell_angle_beta   90.002914
_cell_angle_gamma 120.09236
loop_
_atom_site_label
_atom_site_type_symbol
_atom_site_fract_x
_atom_site_fract_y
_atom_site_fract_z
_atom_type_partial_charge
Co0 Co 0.40192 0.05966 0.17315 0.0
C1 C 0.41572 0.02642 0.16794 0.0
Co2 Co 0.43704 0.07182 0.20043 0.0
C3 C 0.36921 0.04441 0.10951 0.0
C4 C 0.35198 0.04652 0.1618 0.0
N5 N 0.37317 0.0503 0.14792 0.0
N6 N 0.34667 0.03729 0.09859 0.0
C7 C 0.33547 0.03819 0.13142 0.0
H8 H 0.38233 0.04418 0.09001 0.0
H9 H 0.34861 0.04913 0.1921 0.0
C10 C 0.42241 0.10512 0.20453 0.0
N11 N 0.46592 0.08123 0.22455 0.0
C12 C 0.4729 0.09142 0.26033 0.0
C13 C 0.48508 0.08092 0.20962 0.0
N14 N 0.49571 0.09768 0.26825 0.0
C15 C 0.50351 0.09114 0.23643 0.0
C16 C 0.44187 0.08334 0.12183 0.0
O17 O 0.40452 0.08905 0.18601 0.0
O18 O 0.43912 0.1013 0.21464 0.0
O19 O 0.45333 0.08561 0.15324 0.0
O20 O 0.41916 0.07301 0.12354 0.0
O21 O 0.43444 0.0422 0.18543 0.0
H22 H 0.48571 0.07402 0.18088 0.0
H23 H 0.46164 0.09477 0.27979 0.0
O24 O 0.39902 0.03052 0.16027 0.0
O25 O 0.38563 0.04589 0.22306 0.0
O26 O 0.42098 0.0577 0.24823 0.0
C27 C 0.39845 0.0468 0.25241 0.0
H28 H 0.31678 0.03296 0.13335 0.0
H29 H 0.52117 0.09345 0.23296 0.0
Co30 Co 0.37642 0.44995 0.63382 0.0
C31 C 0.41255 0.48274 0.68119 0.0
Co32 Co 0.36919 0.47704 0.6586 0.0
C33 C 0.3747 0.41737 0.57648 0.0
C34 C 0.38931 0.41317 0.6304 0.0
N35 N 0.38156 0.42671 0.61276 0.0
N36 N 0.37739 0.39829 0.57072 0.0
C37 C 0.38667 0.39556 0.60457 0.0
H38 H 0.36654 0.42369 0.55546 0.0
H39 H 0.39544 0.41531 0.66059 0.0
C40 C 0.33231 0.44437 0.61264 0.0
N41 N 0.36382 0.50024 0.67987 0.0
C42 C 0.36956 0.50943 0.71656 0.0
C43 C 0.35618 0.51357 0.66121 0.0
N44 N 0.36623 0.52821 0.72141 0.0
C45 C 0.35782 0.53093 0.68663 0.0
C46 C 0.39136 0.48926 0.58385 0.0
O47 O 0.34609 0.4359 0.60813 0.0
O48 O 0.3387 0.46216 0.63523 0.0
O49 O 0.38259 0.49625 0.61097 0.0
O50 O 0.39092 0.46958 0.58859 0.0
O51 O 0.39921 0.4918 0.68191 0.0
H52 H 0.35079 0.51147 0.63061 0.0
H53 H 0.3775 0.50341 0.73854 0.0
O54 O 0.40656 0.46424 0.66033 0.0
O55 O 0.36235 0.43046 0.67833 0.0
O56 O 0.3567 0.45774 0.70607 0.0
C57 C 0.35602 0.43774 0.70812 0.0
H58 H 0.39077 0.38159 0.61054 0.0
H59 H 0.35388 0.54491 0.67974 0.0
Co60 Co 0.92897 0.36902 0.86857 0.0
C61 C 0.95355 0.41213 0.90725 0.0
Co62 Co 0.9063 0.38083 0.89723 0.0
C63 C 0.94721 0.3487 0.8114 0.0
C64 C 0.96735 0.35966 0.865 0.0
N65 N 0.94862 0.35909 0.84654 0.0
N66 N 0.96438 0.34277 0.80729 0.0
C67 C 0.97702 0.34966 0.8411 0.0
H68 H 0.93395 0.34573 0.78928 0.0
H69 H 0.9734 0.36659 0.89434 0.0
C70 C 0.88094 0.33604 0.86382 0.0
N71 N 0.88678 0.39054 0.92056 0.0
C72 C 0.88739 0.39703 0.95846 0.0
C73 C 0.86898 0.39273 0.904 0.0
N74 N 0.87075 0.40311 0.96621 0.0
C75 C 0.85919 0.40067 0.93206 0.0
C76 C 0.91588 0.39475 0.81808 0.0
O77 O 0.90132 0.34024 0.85187 0.0
O78 O 0.87943 0.35156 0.88446 0.0
O79 O 0.90405 0.394 0.84846 0.0
O80 O 0.92869 0.38487 0.8197 0.0
O81 O 0.93295 0.40971 0.91063 0.0
H82 H 0.86338 0.38868 0.87358 0.0
H83 H 0.90001 0.39761 0.98 0.0
O84 O 0.95615 0.39718 0.88678 0.0
O85 O 0.92979 0.35421 0.91738 0.0
O86 O 0.90949 0.36829 0.94675 0.0
C87 C 0.92174 0.35798 0.94908 0.0
H88 H 0.99202 0.34737 0.84842 0.0
H89 H 0.84448 0.40393 0.92798 0.0
Co90 Co 0.5465 0.92387 0.27917 0.0
C91 C 0.50535 0.92245 0.30671 0.0
Co92 Co 0.52039 0.89016 0.30728 0.0
C93 C 0.58176 0.95655 0.22535 0.0
C94 C 0.57565 0.97476 0.27255 0.0
N95 N 0.56852 0.95282 0.258 0.0
N96 N 0.59695 0.97994 0.21886 0.0
C97 C 0.5931 0.99151 0.24841 0.0
H98 H 0.57997 0.94232 0.20635 0.0
H99 H 0.56873 0.9783 0.29914 0.0
C100 C 0.56033 0.89006 0.27782 0.0
N101 N 0.49837 0.86117 0.32899 0.0
C102 C 0.48753 0.8575 0.36431 0.0
C103 C 0.48801 0.83947 0.31177 0.0
N104 N 0.47065 0.83449 0.36965 0.0
C105 C 0.47075 0.82303 0.33663 0.0
C106 C 0.51263 0.89359 0.22553 0.0
O107 O 0.56685 0.9113 0.26743 0.0
O108 O 0.54071 0.87797 0.29603 0.0
O109 O 0.50489 0.87978 0.25548 0.0
O110 O 0.53155 0.91367 0.22932 0.0
O111 O 0.50018 0.90185 0.31821 0.0
H112 H 0.4922 0.83598 0.28253 0.0
H113 H 0.49107 0.87167 0.38491 0.0
O114 O 0.52547 0.93573 0.29031 0.0
O115 O 0.56138 0.93454 0.32866 0.0
O116 O 0.53559 0.90155 0.35829 0.0
C117 C 0.5537 0.9225 0.36012 0.0
H118 H 0.60231 0.01065 0.25245 0.0
H119 H 0.45892 0.80427 0.33066 0.0
Co120 Co 0.6374 0.57721 0.5331 0.0
C121 C 0.59319 0.55445 0.56624 0.0
Co122 Co 0.62877 0.54316 0.5604 0.0
C123 C 0.65572 0.61247 0.47313 0.0
C124 C 0.6432 0.624 0.52204 0.0
N125 N 0.64562 0.60569 0.50896 0.0
N126 N 0.65949 0.63418 0.46279 0.0
C127 C 0.65167 0.64156 0.49362 0.0
H128 H 0.65994 0.60142 0.4548 0.0
H129 H 0.63534 0.62433 0.55002 0.0
C130 C 0.67449 0.56729 0.53205 0.0
N131 N 0.62084 0.51465 0.58442 0.0
C132 C 0.61022 0.50715 0.61974 0.0
C133 C 0.62397 0.49684 0.57098 0.0
N134 N 0.60651 0.48532 0.62917 0.0
C135 C 0.61518 0.47875 0.59846 0.0
C136 C 0.61672 0.53791 0.48124 0.0
O137 O 0.66806 0.58188 0.52071 0.0
O138 O 0.65974 0.54863 0.55053 0.0
O139 O 0.61798 0.5271 0.51153 0.0
O140 O 0.62445 0.56025 0.48368 0.0
O141 O 0.5982 0.53802 0.57091 0.0
H142 H 0.63208 0.49698 0.54302 0.0
H143 H 0.60563 0.51781 0.63835 0.0
O144 O 0.60739 0.57301 0.54695 0.0
O145 O 0.64906 0.5935 0.58228 0.0
O146 O 0.63871 0.55924 0.61016 0.0
C147 C 0.64587 0.58137 0.61348 0.0
H148 H 0.65104 0.65792 0.49486 0.0
H149 H 0.61507 0.46206 0.59574 0.0
Co150 Co 0.07429 0.60637 0.96564 0.0
C151 C 0.06299 0.56945 0.01738 0.0
Co152 Co 0.10559 0.60766 0.99344 0.0
C153 C 0.04832 0.61436 0.90561 0.0
C154 C 0.02779 0.60172 0.95859 0.0
N155 N 0.04857 0.60618 0.94196 0.0
N156 N 0.02851 0.61572 0.899 0.0
C157 C 0.01542 0.60767 0.93221 0.0
H158 H 0.06315 0.62065 0.88525 0.0
H159 H 0.02257 0.59574 0.98861 0.0
C160 C 0.11806 0.64593 0.94511 0.0
N161 N 0.13118 0.60803 0.01834 0.0
C162 C 0.13224 0.60426 0.05718 0.0
C163 C 0.15102 0.60935 1.00291 0.0
N164 N 0.15168 0.60286 0.0667 0.0
C165 C 0.16359 0.60594 0.03262 0.0
C166 C 0.0932 0.5835 0.92056 0.0
O167 O 0.09573 0.63539 0.93844 0.0
O168 O 0.12613 0.63676 0.96924 0.0
O169 O 0.10868 0.59066 0.94823 0.0
O170 O 0.07632 0.58813 0.92304 0.0
O171 O 0.08546 0.57904 0.01827 0.0
H172 H 0.15552 0.61164 0.9719 0.0
H173 H 0.11816 0.60105 0.07779 0.0
O174 O 0.0534 0.57771 0.99421 0.0
O175 O 0.07187 0.62415 0.00753 0.0
O176 O 0.10147 0.62395 0.03814 0.0
C177 C 0.08479 0.62896 0.03799 0.0
H178 H -0.00151 0.60677 0.93746 0.0
H179 H 0.17977 0.60508 0.02929 0.0
Co180 Co 0.93941 0.58472 0.44815 0.0
C181 C 0.95727 0.55888 0.41352 0.0
Co182 Co 0.91246 0.55323 0.41609 0.0
C183 C 0.95782 0.61778 0.51111 0.0
C184 C 0.98421 0.62735 0.4661 0.0
N185 N 0.96144 0.61128 0.47529 0.0
N186 N 0.97751 0.63701 0.5254 0.0
C187 C -0.00581 0.64319 0.49695 0.0
H188 H 0.94105 0.60804 0.52669 0.0
H189 H 0.99318 0.62705 0.43938 0.0
C190 C 0.89382 0.57869 0.44995 0.0
N191 N 0.88995 0.52658 0.38933 0.0
C192 C 0.89072 0.52081 0.35142 0.0
C193 C 0.86932 0.50848 0.40361 0.0
N194 N 0.87146 0.49985 0.34152 0.0
C195 C 0.85797 0.49188 0.37427 0.0
C196 C 0.91759 0.54356 0.49488 0.0
O197 O 0.91535 0.59276 0.45988 0.0
O198 O 0.8887 0.56004 0.43053 0.0
O199 O 0.90657 0.53429 0.46289 0.0
O200 O 0.93197 0.56597 0.49575 0.0
O201 O 0.93594 0.54646 0.40159 0.0
H202 H 0.86298 0.50739 0.43346 0.0
H203 H 0.90539 0.5315 0.33165 0.0
O204 O 0.96301 0.57649 0.43632 0.0
O205 O 0.94752 0.60285 0.40063 0.0
O206 O 0.91938 0.57202 0.36929 0.0
C207 C 0.93709 0.5932 0.36843 0.0
H208 H 0.01262 0.65731 0.49901 0.0
H209 H 0.84109 0.47538 0.37664 0.0
Co210 Co 0.34025 0.88286 0.70864 0.0
C211 C 0.31067 0.84946 0.76272 0.0
Co212 Co 0.36027 0.87525 0.7551 0.0
C213 C 0.33439 0.89986 0.63228 0.0
C214 C 0.30575 0.89327 0.67115 0.0
N215 N 0.32544 0.89122 0.66863 0.0
N216 N 0.32149 0.90767 0.61238 0.0
C217 C 0.30324 0.90326 0.63673 0.0
H218 H 0.3505 0.90096 0.62089 0.0
H219 H 0.29459 0.8889 0.69707 0.0
C220 C 0.38953 0.90688 0.69935 0.0
N221 N 0.37686 0.86812 0.79418 0.0
C222 C 0.37863 0.87099 0.83409 0.0
C223 C 0.39173 0.85983 0.78551 0.0
N224 N 0.39377 0.86448 0.8503 0.0
C225 C 0.40191 0.85749 0.81947 0.0
C226 C 0.34874 0.84666 0.68782 0.0
O227 O 0.37002 0.90436 0.68655 0.0
O228 O 0.38968 0.89664 0.73119 0.0
O229 O 0.35837 0.85068 0.72179 0.0
O230 O 0.33909 0.85854 0.67626 0.0
O231 O 0.33048 0.85356 0.77761 0.0
H232 H 0.39557 0.85631 0.75607 0.0
H233 H 0.36914 0.87784 0.85086 0.0
O234 O 0.31055 0.86052 0.73165 0.0
O235 O 0.34159 0.90712 0.74189 0.0
O236 O 0.36161 0.89983 0.78687 0.0
C237 C 0.35154 0.91139 0.77563 0.0
H238 H 0.28976 0.90811 0.63106 0.0
H239 H 0.41502 0.85181 0.82107 0.0
Co240 Co 0.42848 0.3618 0.11609 0.0
C241 C 0.4456 0.40175 0.07084 0.0
Co242 Co 0.46053 0.3692 0.08261 0.0
C243 C 0.39732 0.34586 0.18167 0.0
C244 C 0.38205 0.35583 0.13474 0.0
N245 N 0.40152 0.35452 0.14472 0.0
N246 N 0.37609 0.34175 0.19563 0.0
C247 C 0.36635 0.34801 0.1661 0.0
H248 H 0.40975 0.34253 0.19786 0.0
H249 H 0.37952 0.36217 0.10666 0.0
C250 C 0.44241 0.32782 0.1255 0.0
N251 N 0.48753 0.37589 0.05454 0.0
C252 C 0.49189 0.38165 0.0161 0.0
C253 C 0.50723 0.37606 0.06803 0.0
N254 N 0.51351 0.38542 1.00505 0.0
C255 C 0.52332 0.38206 0.03763 0.0
C256 C 0.47083 0.38927 0.1581 0.0
O257 O 0.42692 0.33344 0.13501 0.0
O258 O 0.45897 0.3411 0.10188 0.0
O259 O 0.48006 0.38687 0.1266 0.0
O260 O 0.44819 0.37926 0.16026 0.0
O261 O 0.46172 0.39675 0.06265 0.0
H262 H 0.50971 0.37208 0.09804 0.0
H263 H 0.47962 0.38352 0.9968 0.0
O264 O 0.42992 0.38969 0.09664 0.0
O265 O 0.40909 0.34546 0.07157 0.0
O266 O 0.44096 0.35256 0.03835 0.0
C267 C 0.41873 0.34555 0.03884 0.0
H268 H 0.34944 0.34758 0.1673 0.0
H269 H 0.54076 0.38362 0.03925 0.0
Co270 Co 0.08468 0.40586 0.40981 0.0
C271 C 0.12962 0.41662 0.43174 0.0
Co272 Co 0.09771 0.42979 0.46279 0.0
C273 C 0.06023 0.39123 0.33459 0.0
C274 C 0.07251 0.36761 0.35274 0.0
N275 N 0.07222 0.38741 0.36388 0.0
N276 N 0.05296 0.37464 0.30561 0.0
C277 C 0.06078 0.35977 0.31709 0.0
H278 H 0.05704 0.4061 0.33454 0.0
H279 H 0.08053 0.35927 0.36962 0.0
C280 C 0.05283 0.41837 0.44161 0.0
N281 N 0.1098 0.44962 0.50811 0.0
C282 C 0.09882 0.452 0.54067 0.0
C283 C 0.13303 0.46606 0.51326 0.0
N284 N 0.11443 0.46907 0.56586 0.0
C285 C 0.13591 0.47781 0.54836 0.0
C286 C 0.1094 0.45456 0.39256 0.0
O287 O 0.05673 0.4078 0.41361 0.0
O288 O 0.06893 0.42972 0.4672 0.0
O289 O 0.11028 0.45738 0.42978 0.0
O290 O 0.09929 0.43361 0.37829 0.0
O291 O 0.12635 0.4291 0.45726 0.0
H292 H 0.14708 0.46966 0.4924 0.0
H293 H 0.07979 0.44142 0.54582 0.0
O294 O 0.11313 0.40399 0.40723 0.0
O295 O 0.07025 0.37846 0.44231 0.0
O296 O 0.08492 0.40194 0.49432 0.0
C297 C 0.07298 0.38108 0.47952 0.0
H298 H 0.05785 0.34401 0.30134 0.0
H299 H 0.15259 0.49221 0.55961 0.0
Co300 Co 0.61973 0.08347 0.75817 0.0
C301 C 0.57876 0.06241 0.7134 0.0
Co302 Co 0.61366 0.10868 0.72384 0.0
C303 C 0.63316 0.06551 0.82429 0.0
C304 C 0.62066 0.0406 0.77651 0.0
N305 N 0.62446 0.06225 0.78736 0.0
N306 N 0.63494 0.04676 0.83719 0.0
C307 C 0.62705 0.03101 0.80712 0.0
H308 H 0.63827 0.08153 0.84114 0.0
H309 H 0.61364 0.03234 0.74821 0.0
C310 C 0.65653 0.13011 0.76416 0.0
N311 N 0.60935 0.13003 0.69407 0.0
C312 C 0.60294 0.12726 0.65587 0.0
C313 C 0.61292 0.15174 0.70398 0.0
N314 N 0.60256 0.14639 0.64115 0.0
C315 C 0.60867 0.16184 0.67144 0.0
C316 C 0.59473 0.10168 0.79941 0.0
O317 O 0.64938 0.10911 0.77662 0.0
O318 O 0.64338 0.13369 0.74076 0.0
O319 O 0.59808 0.11367 0.76793 0.0
O320 O 0.6031 0.08764 0.80153 0.0
O321 O 0.5845 0.08379 0.70594 0.0
H322 H 0.61864 0.15983 0.73276 0.0
H323 H 0.59859 0.11138 0.63921 0.0
O324 O 0.59073 0.05818 0.7385 0.0
O325 O 0.63525 0.07853 0.7148 0.0
O326 O 0.62824 0.10255 0.67949 0.0
C327 C 0.63492 0.08715 0.68138 0.0
H328 H 0.62547 0.01357 0.80742 0.0
H329 H 0.61049 0.17936 0.67 0.0
Co330 Co 0.547 0.65905 0.06282 0.0
C331 C 0.54955 0.69468 0.1097 0.0
Co332 Co 0.5208 0.6449 0.1128 0.0
C333 C 0.56671 0.657 0.98627 0.0
C334 C 0.5905 0.68844 0.01842 0.0
N335 N 0.56854 0.66893 0.02015 0.0
N336 N 0.58666 0.66808 0.9638 0.0
C337 C 0.60158 0.68801 0.98396 0.0
H338 H 0.55114 0.64026 0.97839 0.0
H339 H 0.59838 0.7017 0.04147 0.0
C340 C 0.51746 0.60971 0.06484 0.0
N341 N 0.49929 0.63428 0.156 0.0
C342 C 0.49673 0.61971 0.18683 0.0
C343 C 0.48284 0.64081 0.16278 0.0
N344 N 0.47919 0.6168 0.21218 0.0
C345 C 0.47052 0.63014 0.19682 0.0
C346 C 0.50268 0.65279 0.0436 0.0
O347 O 0.53483 0.62716 0.04762 0.0
O348 O 0.50911 0.61321 0.09646 0.0
O349 O 0.49763 0.64587 0.07927 0.0
O350 O 0.52372 0.66018 0.03072 0.0
O351 O 0.5328 0.67712 0.12815 0.0
H352 H 0.48012 0.65286 0.14435 0.0
H353 H 0.50744 0.6113 0.19048 0.0
O354 O 0.55844 0.69092 0.07894 0.0
O355 O 0.57005 0.65779 0.09563 0.0
O356 O 0.54423 0.64404 0.14442 0.0
C357 C 0.56512 0.65102 0.13129 0.0
H358 H 0.61967 0.70085 0.97534 0.0
H359 H 0.45656 0.63251 0.20974 0.0
C360 C 0.44476 0.14753 0.22841 0.0
C361 C 0.42426 0.12851 0.21132 0.0
C362 C 0.44735 0.17029 0.23029 0.0
C363 C 0.41403 0.20304 0.21563 0.0
H364 H 0.47557 0.25422 0.18074 0.0
C365 C 0.45504 0.29719 0.12602 0.0
C366 C 0.44161 0.30652 0.14267 0.0
C367 C 0.45427 0.27702 0.14223 0.0
C368 C 0.45823 0.24011 0.19034 0.0
H369 H 0.38992 0.11818 0.18465 0.0
H370 H 0.39466 0.15759 0.18695 0.0
H371 H 0.47089 0.21551 0.19644 0.0
H372 H 0.41744 0.30261 0.19013 0.0
H373 H 0.4166 0.2678 0.21914 0.0
H374 H 0.40089 0.227 0.20669 0.0
C375 C 0.40861 0.15509 0.19959 0.0
C376 C 0.45565 0.21799 0.20003 0.0
C377 C 0.40598 0.13243 0.19791 0.0
C378 C 0.42774 0.2956 0.17633 0.0
C379 C 0.42723 0.27562 0.19291 0.0
C380 C 0.41653 0.22504 0.20544 0.0
C381 C 0.42952 0.17443 0.21503 0.0
C382 C 0.43332 0.19896 0.21162 0.0
C383 C 0.44032 0.26593 0.17586 0.0
C384 C 0.4385 0.24365 0.19157 0.0
H385 H 0.45909 0.14501 0.23924 0.0
H386 H 0.46354 0.18474 0.24288 0.0
H387 H 0.3967 0.18892 0.22526 0.0
H388 H 0.46586 0.30522 0.10002 0.0
H389 H 0.46419 0.26981 0.12774 0.0
C390 C 0.30244 0.41537 0.5642 0.0
C391 C 0.31058 0.43569 0.58829 0.0
C392 C 0.28359 0.40912 0.53771 0.0
C393 C 0.25783 0.43623 0.47798 0.0
H394 H 0.1952 0.38015 0.49006 0.0
C395 C 0.17288 0.43701 0.4462 0.0
C396 C 0.15238 0.41667 0.43233 0.0
C397 C 0.19377 0.43649 0.45315 0.0
C398 C 0.21274 0.39554 0.48539 0.0
H399 H 0.30492 0.46495 0.60419 0.0
H400 H 0.27248 0.45423 0.5577 0.0
H401 H 0.229 0.3836 0.52809 0.0
H402 H 0.13781 0.38011 0.41297 0.0
H403 H 0.17467 0.37903 0.42585 0.0
H404 H 0.24165 0.44877 0.43676 0.0
C405 C 0.28065 0.44318 0.55939 0.0
C406 C 0.232 0.39752 0.50728 0.0
C407 C 0.2991 0.44918 0.58618 0.0
C408 C 0.15348 0.39606 0.42353 0.0
C409 C 0.17445 0.3954 0.43109 0.0
C410 C 0.23874 0.43416 0.45589 0.0
C411 C 0.27303 0.42338 0.53452 0.0
C412 C 0.25436 0.4184 0.50504 0.0
C413 C 0.19465 0.41552 0.44675 0.0
C414 C 0.21573 0.41439 0.46093 0.0
H415 H 0.31098 0.40465 0.56515 0.0
H416 H 0.27782 0.39369 0.51885 0.0
H417 H 0.27505 0.45238 0.47558 0.0
H418 H 0.17252 0.45317 0.45306 0.0
H419 H 0.20884 0.45218 0.46575 0.0
C420 C 0.83763 0.30786 0.8741 0.0
C421 C 0.85899 0.31336 0.85477 0.0
C422 C 0.81652 0.28695 0.8654 0.0
C423 C 0.79126 0.2275 0.81982 0.0
H424 H 0.73515 0.23415 0.81037 0.0
C425 C 0.68827 0.17276 0.75851 0.0
C426 C 0.68013 0.15018 0.77543 0.0
C427 C 0.71063 0.19184 0.76822 0.0
C428 C 0.75065 0.23199 0.8126 0.0
H429 H 0.87511 0.30093 0.81184 0.0
H430 H 0.83778 0.26432 0.79587 0.0
H431 H 0.7734 0.2688 0.82607 0.0
H432 H 0.68915 0.12986 0.81564 0.0
H433 H 0.72829 0.16356 0.83326 0.0
H434 H 0.76833 0.19062 0.80526 0.0
C435 C 0.83758 0.27618 0.81815 0.0
C436 C 0.77255 0.25181 0.82207 0.0
C437 C 0.85889 0.29717 0.82709 0.0
C438 C 0.69493 0.14707 0.80219 0.0
C439 C 0.71738 0.16629 0.81204 0.0
C440 C 0.76924 0.20756 0.81021 0.0
C441 C 0.81612 0.27107 0.83687 0.0
C442 C 0.79309 0.24981 0.82596 0.0
C443 C 0.72537 0.18891 0.79528 0.0
C444 C 0.74873 0.20966 0.80638 0.0
H445 H 0.83714 0.31976 0.89603 0.0
H446 H 0.80042 0.28327 0.88101 0.0
H447 H 0.80676 0.22539 0.82289 0.0
H448 H 0.67742 0.17573 0.7375 0.0
H449 H 0.71643 0.20892 0.75424 0.0
C450 C 0.57496 0.73912 0.10268 0.0
C451 C 0.55936 0.71909 0.12533 0.0
C452 C 0.58434 0.76213 0.11813 0.0
C453 C 0.58407 0.80636 0.15119 0.0
H454 H 0.6038 0.81869 0.26071 0.0
C455 C 0.56908 0.857 0.28372 0.0
C456 C 0.57361 0.87822 0.26518 0.0
C457 C 0.57719 0.84271 0.26709 0.0
C458 C 0.59857 0.81564 0.22998 0.0
H459 H 0.54178 0.70746 0.1821 0.0
H460 H 0.55816 0.74745 0.20889 0.0
H461 H 0.59832 0.78248 0.22891 0.0
H462 H 0.59187 0.90223 0.21648 0.0
H463 H 0.60606 0.87705 0.18711 0.0
H464 H 0.58264 0.83859 0.15292 0.0
C465 C 0.56324 0.7454 0.17934 0.0
C466 C 0.59542 0.79494 0.21182 0.0
C467 C 0.55363 0.7225 0.1638 0.0
C468 C 0.58809 0.8859 0.23136 0.0
C469 C 0.59608 0.87144 0.21444 0.0
C470 C 0.58707 0.82702 0.16943 0.0
C471 C 0.57861 0.76544 0.15667 0.0
C472 C 0.58711 0.7896 0.17283 0.0
C473 C 0.58992 0.84926 0.23138 0.0
C474 C 0.59325 0.83129 0.20956 0.0
H475 H 0.57975 0.73702 0.07296 0.0
H476 H 0.5961 0.77732 0.10004 0.0
H477 H 0.5776 0.80264 0.12111 0.0
H478 H 0.55808 0.85072 0.30998 0.0
H479 H 0.57189 0.82567 0.28077 0.0
C480 C 0.70537 0.55507 0.53365 0.0
C481 C 0.69917 0.57251 0.52559 0.0
C482 C 0.72891 0.56025 0.52942 0.0
C483 C 0.78576 0.60151 0.48056 0.0
H484 H 0.80953 0.57141 0.55201 0.0
C485 C 0.87882 0.60579 0.47231 0.0
C486 C 0.87446 0.58286 0.46254 0.0
C487 C 0.85993 0.60912 0.48393 0.0
C488 C 0.80323 0.58024 0.5323 0.0
H489 H 0.7127 0.60906 0.50663 0.0
H490 H 0.754 0.61825 0.49983 0.0
H491 H 0.7712 0.56871 0.56533 0.0
H492 H 0.84726 0.54546 0.45808 0.0
H493 H 0.81464 0.55129 0.47935 0.0
H494 H 0.81787 0.6126 0.44729 0.0
C495 C 0.74059 0.60047 0.50893 0.0
C496 C 0.78122 0.57847 0.53956 0.0
C497 C 0.71695 0.59521 0.51286 0.0
C498 C 0.85113 0.56336 0.46515 0.0
C499 C 0.83249 0.56662 0.4775 0.0
C500 C 0.80799 0.60353 0.4736 0.0
C501 C 0.74685 0.58308 0.51743 0.0
C502 C 0.7718 0.58826 0.51293 0.0
C503 C 0.83673 0.58947 0.48684 0.0
C504 C 0.81641 0.5922 0.49874 0.0
H505 H 0.69204 0.53736 0.54325 0.0
H506 H 0.73297 0.54623 0.53519 0.0
H507 H 0.77898 0.60915 0.45938 0.0
H508 H 0.89668 0.62108 0.47047 0.0
H509 H 0.8634 0.62689 0.49097 0.0
C510 C 0.28885 0.81867 0.81416 0.0
C511 C 0.2881 0.83086 0.78043 0.0
C512 C 0.26807 0.79939 0.8289 0.0
C513 C 0.20325 0.76931 0.83297 0.0
H514 H 0.20973 0.71393 0.85364 0.0
C515 C 0.1273 0.67757 0.89394 0.0
C516 C 0.13487 0.66818 0.92446 0.0
C517 C 0.14397 0.69782 0.8731 0.0
C518 C 0.20764 0.72925 0.84811 0.0
H519 H 0.26473 0.83319 0.73698 0.0
H520 H 0.2281 0.79922 0.76324 0.0
H521 H 0.24263 0.74915 0.82356 0.0
H522 H 0.16563 0.67326 0.95815 0.0
H523 H 0.19434 0.7083 0.92223 0.0
H524 H 0.16829 0.74935 0.85871 0.0
C525 C 0.24494 0.80471 0.77791 0.0
C526 C 0.22645 0.74938 0.8309 0.0
C527 C 0.26587 0.82405 0.76291 0.0
C528 C 0.15919 0.67982 0.93452 0.0
C529 C 0.1757 0.69987 0.91381 0.0
C530 C 0.1843 0.74904 0.85045 0.0
C531 C 0.24603 0.79186 0.8104 0.0
C532 C 0.22473 0.76984 0.82423 0.0
C533 C 0.16839 0.70881 0.88241 0.0
C534 C 0.18668 0.72912 0.85922 0.0
H535 H 0.3056 0.82358 0.8287 0.0
H536 H 0.2693 0.79004 0.85448 0.0
H537 H 0.20152 0.78489 0.82795 0.0
H538 H 0.10865 0.669 0.88563 0.0
H539 H 0.1379 0.70442 0.84902 0.0
C540 C 0.57147 0.11899 0.83128 0.0
C541 C 0.57966 0.10255 0.83197 0.0
C542 C 0.5559 0.11856 0.86055 0.0
C543 C 0.5113 0.07831 0.93359 0.0
H544 H 0.52082 0.13651 0.98256 0.0
C545 C 0.44443 0.07762 0.04876 0.0
C546 C 0.45513 0.09 0.08379 0.0
C547 C 0.4584 0.08067 0.01512 0.0
C548 C 0.51785 0.12009 0.96909 0.0
H549 H 0.57798 0.07293 0.86455 0.0
H550 H 0.55084 0.07214 0.91523 0.0
H551 H 0.54816 0.13858 0.93084 0.0
H552 H 0.48866 0.11624 0.11016 0.0
H553 H 0.51273 0.12195 0.0516 0.0
H554 H 0.48121 0.05979 0.97216 0.0
C555 C 0.55635 0.0853 0.89195 0.0
C556 C 0.53346 0.12129 0.93926 0.0
C557 C 0.5721 0.0859 0.863 0.0
C558 C 0.47981 0.10648 0.08364 0.0
C559 C 0.49365 0.10979 0.04997 0.0
C560 C 0.49553 0.07713 0.96305 0.0
C561 C 0.54787 0.10149 0.89099 0.0
C562 C 0.53061 0.10039 0.9215 0.0
C563 C 0.48329 0.09646 0.01557 0.0
C564 C 0.49876 0.09797 0.9816 0.0
H565 H 0.57685 0.13203 0.80782 0.0
H566 H 0.54967 0.13124 0.85876 0.0
H567 H 0.50838 0.06187 0.92027 0.0
H568 H 0.42553 0.06463 0.04798 0.0
H569 H 0.44979 0.07028 0.989 0.0
C570 C 0.44748 0.59371 0.26157 0.0
C571 C 0.47117 0.60299 0.24848 0.0
C572 C 0.4398 0.58173 0.29774 0.0
C573 C 0.45583 0.55211 0.37778 0.0
H574 H 0.40828 0.55916 0.43628 0.0
C575 C 0.40858 0.49371 0.51553 0.0
C576 C 0.40155 0.50328 0.54662 0.0
C577 C 0.41781 0.50635 0.4802 0.0
C578 C 0.42176 0.55711 0.42077 0.0
H579 H 0.50523 0.6064 0.26362 0.0
H580 H 0.492 0.58577 0.32708 0.0
H581 H 0.42329 0.58015 0.37423 0.0
H582 H 0.39905 0.53405 0.56445 0.0
H583 H 0.4156 0.55634 0.50331 0.0
H584 H 0.4548 0.52963 0.425 0.0
C585 C 0.47917 0.58749 0.30901 0.0
C586 C 0.43017 0.56895 0.38453 0.0
C587 C 0.48684 0.59938 0.27248 0.0
C588 C 0.40418 0.52602 0.54125 0.0
C589 C 0.41357 0.53877 0.50588 0.0
C590 C 0.44749 0.54035 0.41416 0.0
C591 C 0.45554 0.57867 0.32252 0.0
C592 C 0.4472 0.56651 0.3621 0.0
C593 C 0.42052 0.52913 0.47461 0.0
C594 C 0.43014 0.54246 0.43623 0.0
H595 H 0.43471 0.59563 0.24367 0.0
H596 H 0.42132 0.57471 0.30608 0.0
H597 H 0.46877 0.54952 0.36163 0.0
H598 H 0.4067 0.47619 0.51823 0.0
H599 H 0.42239 0.49792 0.45693 0.0
C600 C 0.90087 0.4188 0.78288 0.0
C601 C 0.91532 0.40823 0.78259 0.0
C602 C 0.9011 0.43289 0.7514 0.0
C603 C 0.91734 0.44734 0.64571 0.0
H604 H 0.91462 0.50425 0.67155 0.0
C605 C 0.90246 0.50307 0.52597 0.0
C606 C 0.91564 0.52812 0.52913 0.0
C607 C 0.90252 0.48847 0.55655 0.0
C608 C 0.91555 0.48854 0.66365 0.0
H609 H 0.94105 0.404 0.74786 0.0
H610 H 0.94144 0.42868 0.69258 0.0
H611 H 0.91531 0.47905 0.7242 0.0
H612 H 0.93899 0.55729 0.56765 0.0
H613 H 0.93897 0.53192 0.62091 0.0
H614 H 0.91783 0.45706 0.58506 0.0
C615 C 0.92982 0.42592 0.71741 0.0
C616 C 0.91568 0.47387 0.69398 0.0
C617 C 0.92965 0.41178 0.74919 0.0
C618 C 0.92848 0.53811 0.56416 0.0
C619 C 0.92844 0.52349 0.59483 0.0
C620 C 0.91707 0.46198 0.61531 0.0
C621 C 0.91577 0.43697 0.71833 0.0
C622 C 0.91644 0.45295 0.68556 0.0
C623 C 0.91566 0.49843 0.59137 0.0
C624 C 0.9161 0.48279 0.62379 0.0
H625 H 0.88944 0.41645 0.80783 0.0
H626 H 0.88964 0.44059 0.75303 0.0
H627 H 0.91779 0.43137 0.63793 0.0
H628 H 0.89241 0.49466 0.49946 0.0
H629 H 0.89216 0.4693 0.55289 0.0
C630 C 0.40869 0.84966 0.9045 0.0
C631 C 0.40117 0.86544 0.8911 0.0
C632 C 0.41814 0.85171 0.94241 0.0
C633 C 0.44753 0.89528 0.02409 0.0
H634 H 0.4388 0.83937 0.08043 0.0
C635 C 0.47533 0.86872 0.18441 0.0
C636 C 0.49889 0.88794 0.18765 0.0
C637 C 0.46189 0.86532 0.14983 0.0
C638 C 0.44133 0.85522 0.06544 0.0
H639 H 0.39718 0.89542 0.9083 0.0
H640 H 0.41345 0.89889 0.97493 0.0
H641 H 0.41707 0.83463 0.01928 0.0
H642 H 0.52677 0.91831 0.15615 0.0
H643 H 0.50376 0.91215 0.09631 0.0
H644 H 0.47158 0.91586 0.0705 0.0
C645 C 0.4123 0.88504 0.95565 0.0
C646 C 0.429 0.85251 0.0299 0.0
C647 C 0.40269 0.88291 0.91751 0.0
C648 C 0.50871 0.9033 0.15501 0.0
C649 C 0.49534 0.89992 0.12061 0.0
C650 C 0.45987 0.89798 0.05961 0.0
C651 C 0.42045 0.86961 0.96857 0.0
C652 C 0.43214 0.8725 0.00827 0.0
C653 C 0.47159 0.88107 0.1175 0.0
C654 C 0.45727 0.87802 0.08063 0.0
H655 H 0.40754 0.83577 0.88536 0.0
H656 H 0.42436 0.8396 0.95068 0.0
H657 H 0.45066 0.91116 0.00847 0.0
H658 H 0.46704 0.85666 0.20899 0.0
H659 H 0.44364 0.85068 0.14889 0.0
C660 C 0.47624 0.40659 0.2265 0.0
C661 C 0.48629 0.40433 0.19113 0.0
C662 C 0.49079 0.42143 0.25695 0.0
C663 C 0.55158 0.4728 0.27718 0.0
H664 H 0.53612 0.45186 0.38564 0.0
C665 C 0.60001 0.53453 0.41244 0.0
C666 C 0.6045 0.52394 0.44508 0.0
C667 C 0.5864 0.52056 0.38034 0.0
C668 C 0.54084 0.45798 0.35553 0.0
H669 H 0.51974 0.41598 0.16039 0.0
H670 H 0.54504 0.44166 0.21344 0.0
H671 H 0.51098 0.42619 0.33265 0.0
H672 H 0.59878 0.49031 0.46861 0.0
H673 H 0.57548 0.46626 0.41301 0.0
H674 H 0.58166 0.50451 0.30022 0.0
C675 C 0.52586 0.43216 0.21753 0.0
C676 C 0.5262 0.44332 0.32507 0.0
C677 C 0.51132 0.41724 0.18716 0.0
C678 C 0.59563 0.49917 0.4442 0.0
C679 C 0.58204 0.48526 0.41233 0.0
C680 C 0.56618 0.48756 0.30773 0.0
C681 C 0.51583 0.43453 0.25288 0.0
C682 C 0.53138 0.45043 0.2854 0.0
C683 C 0.57686 0.49563 0.38019 0.0
C684 C 0.56111 0.48029 0.34736 0.0
H685 H 0.45705 0.39701 0.23062 0.0
H686 H 0.48235 0.42294 0.2835 0.0
H687 H 0.55602 0.47904 0.24708 0.0
H688 H 0.60648 0.55353 0.41209 0.0
H689 H 0.58273 0.52919 0.35622 0.0
C690 C 0.11406 0.56652 0.87939 0.0
C691 C 0.09462 0.57021 0.88534 0.0
C692 C 0.11528 0.55446 0.84565 0.0
C693 C 0.0892 0.53513 0.74383 0.0
H694 H 0.11807 0.49537 0.75003 0.0
C695 C 0.08862 0.47744 0.61029 0.0
C696 C 0.10998 0.47729 0.60314 0.0
C697 C 0.08557 0.48748 0.6452 0.0
C698 C 0.11008 0.50654 0.74755 0.0
H699 H 0.06106 0.56364 0.86007 0.0
H700 H 0.06292 0.54242 0.80234 0.0
H701 H 0.11555 0.51548 0.80898 0.0
H702 H 0.14439 0.48677 0.62838 0.0
H703 H 0.13917 0.50409 0.68847 0.0
H704 H 0.08368 0.52606 0.68235 0.0
C705 C 0.07757 0.54921 0.82312 0.0
C706 C 0.10871 0.51822 0.78156 0.0
C707 C 0.0764 0.56131 0.85665 0.0
C708 C 0.1278 0.48677 0.63246 0.0
C709 C 0.1247 0.49655 0.66732 0.0
C710 C 0.09048 0.52335 0.70985 0.0
C711 C 0.09707 0.54563 0.81681 0.0
C712 C 0.09835 0.53286 0.78035 0.0
C713 C 0.10367 0.49736 0.67421 0.0
C714 C 0.1011 0.50898 0.71103 0.0
H715 H 0.12849 0.57317 0.9006 0.0
H716 H 0.1308 0.55246 0.84193 0.0
H717 H 0.08143 0.54648 0.74113 0.0
H718 H 0.07456 0.47045 0.5884 0.0
H719 H 0.069 0.4875 0.64946 0.0
C720 C 0.33551 0.93834 0.79312 0.0
C721 C 0.34889 0.92748 0.80346 0.0
C722 C 0.33026 0.95081 0.8213 0.0
C723 C 0.32445 0.95384 0.92867 0.0
H724 H 0.33227 0.01635 0.90941 0.0
C725 C 0.35077 0.03904 0.02682 0.0
C726 C 0.33697 0.02797 0.06041 0.0
C727 C 0.34523 0.02711 0.99084 0.0
C728 C 0.32973 -0.00123 0.91507 0.0
H729 H 0.36817 0.92213 0.85103 0.0
H730 H 0.35924 0.94404 0.89984 0.0
H731 H 0.3386 0.99496 0.85563 0.0
H732 H 0.30528 -0.00313 0.08222 0.0
H733 H 0.29529 0.97578 0.01886 0.0
H734 H 0.31688 0.95802 0.98839 0.0
C735 C 0.35241 0.94253 0.87018 0.0
C736 C 0.33329 0.98652 0.88428 0.0
C737 C 0.35773 0.93018 0.84208 0.0
C738 C 0.31611 0.00572 0.05661 0.0
C739 C 0.31058 0.99364 0.0205 0.0
C740 C 0.32085 0.96602 0.95933 0.0
C741 C 0.33818 0.95251 0.86035 0.0
C742 C 0.33149 0.9643 0.89119 0.0
C743 C 0.3258 0.00376 0.98778 0.0
C744 C 0.32423 0.98896 0.95325 0.0
H745 H 0.32841 0.93656 0.76361 0.0
H746 H 0.31931 0.95838 0.8129 0.0
H747 H 0.32245 0.93651 0.93463 0.0
H748 H 0.36688 0.05628 0.0292 0.0
H749 H 0.35743 0.03542 0.96642 0.0
C750 C 0.38274 0.33713 0.26589 0.0
C751 C 0.36701 0.33419 0.235 0.0
C752 C 0.37464 0.33193 0.30454 0.0
C753 C 0.33087 0.33491 0.36579 0.0
H754 H 0.36543 0.3215 0.44568 0.0
C755 C 0.36854 0.39249 0.49982 0.0
C756 C 0.36965 0.38311 0.53654 0.0
C757 C 0.35986 0.37786 0.46687 0.0
C758 C 0.35505 0.32471 0.42403 0.0
H759 H 0.32996 0.32186 0.22054 0.0
H760 H 0.31584 0.31325 0.28871 0.0
H761 H 0.36396 0.30779 0.3783 0.0
H762 H 0.36254 0.35089 0.56742 0.0
H763 H 0.34782 0.32519 0.50902 0.0
H764 H 0.32287 0.35274 0.41112 0.0
C765 C 0.33452 0.31966 0.28265 0.0
C766 C 0.35437 0.31703 0.38536 0.0
C767 C 0.34265 0.32478 0.24367 0.0
C768 C 0.36213 0.35868 0.53943 0.0
C769 C 0.3535 0.34395 0.50617 0.0
C770 C 0.33137 0.34239 0.40448 0.0
C771 C 0.35059 0.32375 0.31359 0.0
C772 C 0.34378 0.32361 0.35535 0.0
C773 C 0.35214 0.35342 0.46963 0.0
C774 C 0.34493 0.33886 0.43324 0.0
H775 H 0.40166 0.34465 0.26082 0.0
H776 H 0.38769 0.3359 0.32761 0.0
H777 H 0.32241 0.34016 0.34352 0.0
H778 H 0.37468 0.4113 0.49637 0.0
H779 H 0.35984 0.38589 0.43887 0.0
C780 C 0.03745 0.34151 0.4949 0.0
C781 C 0.05988 0.36055 0.506 0.0
C782 C 0.02227 0.32534 0.52325 0.0
C783 C 0.01784 0.30738 0.62832 0.0
H784 H 0.96553 0.32035 0.63181 0.0
C785 C 0.99233 0.33623 0.76716 0.0
C786 C 0.96921 0.33239 0.77347 0.0
C787 C -0.00232 0.32767 0.73334 0.0
C788 C 0.97945 0.31572 0.63113 0.0
H789 H 0.08521 0.3761 0.55392 0.0
H790 H 0.05903 0.34774 0.60314 0.0
H791 H 0.98672 0.32536 0.5704 0.0
H792 H 0.93319 0.31527 0.75002 0.0
H793 H 0.94267 0.30052 0.69027 0.0
H794 H 0.01151 0.29921 0.68976 0.0
C795 C 0.05298 0.34527 0.57282 0.0
C796 C 0.99162 0.31859 0.59577 0.0
C797 C 0.06793 0.36166 0.54474 0.0
C798 C 0.95129 0.31892 0.74571 0.0
C799 C 0.95667 0.31033 0.71165 0.0
C800 C 0.00549 0.30426 0.6636 0.0
C801 C 0.02956 0.32775 0.5628 0.0
C802 C 0.01193 0.31603 0.59478 0.0
C803 C 0.98006 0.31502 0.70476 0.0
C804 C 0.9873 0.31008 0.66597 0.0
H805 H 0.03083 0.34029 0.46516 0.0
H806 H 0.0043 0.31197 0.51484 0.0
H807 H 0.03323 0.30497 0.62812 0.0
H808 H 0.0067 0.3468 0.78745 0.0
H809 H 0.01604 0.33222 0.72866 0.0
C810 C 0.62169 0.97736 0.16588 0.0
C811 C 0.61262 0.99021 0.18561 0.0
C812 C 0.6343 0.98593 0.13064 0.0
C813 C 0.66131 0.03836 0.06295 0.0
H814 H 0.63292 0.9899 0.98178 0.0
C815 C 0.64973 0.02692 0.88225 0.0
C816 C 0.64232 0.04368 0.8758 0.0
C817 C 0.65485 0.02254 0.92034 0.0
C818 C 0.64159 0.0036 1.00404 0.0
H819 H 0.61089 0.02275 0.18519 0.0
H820 H 0.63248 0.03753 0.12359 0.0
H821 H 0.62648 0.97818 0.05059 0.0
H822 H 0.63537 0.06957 0.90452 0.0
H823 H 0.64434 0.06203 0.97034 0.0
H824 H 0.67509 0.06388 0.01601 0.0
C825 C 0.63025 0.02103 0.13551 0.0
C826 C 0.63791 -0.00312 0.04359 0.0
C827 C 0.61774 0.0125 0.17079 0.0
C828 C 0.64128 0.05675 0.90806 0.0
C829 C 0.64652 0.05249 0.94597 0.0
C830 C 0.66493 0.04509 0.02333 0.0
C831 C 0.63801 0.00747 0.11441 0.0
C832 C 0.64682 0.01427 0.07346 0.0
C833 C 0.65283 0.03497 0.95265 0.0
C834 C 0.65419 0.02783 0.99357 0.0
H835 H 0.61852 0.96039 0.17716 0.0
H836 H 0.6404 0.97528 0.1154 0.0
H837 H 0.66882 0.05211 0.08535 0.0
H838 H 0.65122 0.01688 0.85803 0.0
H839 H 0.65984 0.00905 0.92465 0.0
C840 C 0.67497 0.66964 0.41956 0.0
C841 C 0.66635 0.64511 0.42445 0.0
C842 C 0.67722 0.67925 0.38185 0.0
C843 C 0.65239 0.68418 0.31082 0.0
H844 H 0.65558 0.65332 0.21487 0.0
C845 C 0.5789 0.64944 0.19901 0.0
C846 C 0.58411 0.65402 0.15872 0.0
C847 C 0.59711 0.65527 0.22612 0.0
C848 C 0.65511 0.66259 0.24113 0.0
H849 H 0.65559 0.61197 0.39319 0.0
H850 H 0.65903 0.62839 0.32839 0.0
H851 H 0.67815 0.65369 0.27297 0.0
H852 H 0.61243 0.66734 0.115 0.0
H853 H 0.64443 0.67697 0.16296 0.0
H854 H 0.62834 0.69189 0.27971 0.0
C855 C 0.66445 0.64047 0.35327 0.0
C856 C 0.66789 0.6627 0.27444 0.0
C857 C 0.66229 0.63092 0.3908 0.0
C858 C 0.60788 0.66361 0.14591 0.0
C859 C 0.62618 0.66924 0.17322 0.0
C860 C 0.63974 0.68413 0.27761 0.0
C861 C 0.67073 0.66445 0.34841 0.0
C862 C 0.6653 0.67204 0.3104 0.0
C863 C 0.62093 0.66565 0.21361 0.0
C864 C 0.63976 0.67195 0.24343 0.0
H865 H 0.67891 0.68118 0.44489 0.0
H866 H 0.68256 0.69792 0.37902 0.0
H867 H 0.64992 0.69158 0.33784 0.0
H868 H 0.5608 0.64199 0.2099 0.0
H869 H 0.59254 0.65173 0.25707 0.0
C870 C 0.01108 0.6382 0.8683 0.0
C871 C 0.024 0.62614 0.86502 0.0
C872 C 0.0077 0.64914 0.83532 0.0
C873 C 0.02969 0.66842 0.73291 0.0
H874 H 0.96448 0.65228 0.71147 0.0
C875 C 0.00062 0.66856 0.57479 0.0
C876 C 0.98098 0.64616 0.5651 0.0
C877 C 0.00584 0.67567 0.61421 0.0
C878 C 0.98287 0.65724 0.71718 0.0
H879 H 0.04307 0.61571 0.82466 0.0
H880 H 0.0369 0.63429 0.76729 0.0
H881 H 0.97526 0.64582 0.77719 0.0
H882 H 0.95059 0.61446 0.58975 0.0
H883 H 0.95964 0.62663 0.65723 0.0
H884 H 0.0368 0.67761 0.6721 0.0
C885 C 0.02999 0.63603 0.79541 0.0
C886 C 0.9891 0.65372 0.75495 0.0
C887 C 0.03338 0.62518 0.82824 0.0
C888 C 0.96575 0.6319 0.59554 0.0
C889 C 0.97091 0.639 0.63468 0.0
C890 C 0.02341 0.6717 0.69508 0.0
C891 C 0.01718 0.64819 0.79853 0.0
C892 C 0.01224 0.65794 0.7625 0.0
C893 C 0.99146 0.66055 0.64465 0.0
C894 C -0.00042 0.66474 0.68626 0.0
H895 H 0.00395 0.63953 0.89642 0.0
H896 H -0.00224 0.6584 0.83863 0.0
H897 H 0.04786 0.67251 0.73823 0.0
H898 H 0.01242 0.68026 0.55209 0.0
H899 H 0.02166 0.69254 0.62095 0.0
C900 C 0.38878 0.98266 0.16188 0.0
C901 C 0.41202 0.00253 0.16064 0.0
C902 C 0.38542 0.9597 0.1645 0.0
C903 C 0.4176 0.92611 0.169 0.0
H904 H 0.40604 0.92508 0.28148 0.0
C905 C 0.48856 0.94488 0.27402 0.0
C906 C 0.48558 0.92714 0.30085 0.0
C907 C 0.46884 0.943 0.25443 0.0
C908 C 0.40856 0.92423 0.25006 0.0
H909 H 0.44961 0.01418 0.1553 0.0
H910 H 0.44387 0.97421 0.15915 0.0
H911 H 0.38606 0.93846 0.23617 0.0
H912 H 0.45943 0.89595 0.33337 0.0
H913 H 0.42479 0.89325 0.29943 0.0
H914 H 0.44248 0.91476 0.18367 0.0
C915 C 0.42819 0.97616 0.15844 0.0
C916 C 0.39698 0.93169 0.22395 0.0
C917 C 0.43159 -0.0009 0.15688 0.0
C918 C 0.46228 0.90967 0.31224 0.0
C919 C 0.44248 0.90787 0.29263 0.0
C920 C 0.42908 0.91855 0.19505 0.0
C921 C 0.40524 0.95645 0.16491 0.0
C922 C 0.40372 0.93536 0.18398 0.0
C923 C 0.44594 0.92362 0.26188 0.0
C924 C 0.42634 0.91995 0.23584 0.0
H925 H 0.37335 0.98493 0.16448 0.0
H926 H 0.36764 0.9448 0.16981 0.0
H927 H 0.42272 0.92844 0.13819 0.0
H928 H 0.50619 0.95873 0.26501 0.0
H929 H 0.47161 0.95587 0.23164 0.0
C930 C 0.4392 0.51291 0.73053 0.0
C931 C 0.43437 0.4937 0.70538 0.0
C932 C 0.46118 0.52552 0.74957 0.0
C933 C 0.51232 0.55923 0.72903 0.0
H934 H 0.5527 0.53116 0.73563 0.0
C935 C 0.56024 0.53462 0.61397 0.0
C936 C 0.5772 0.55571 0.59551 0.0
C937 C 0.55091 0.53547 0.6504 0.0
C938 C 0.54207 0.5398 0.73484 0.0
H939 H 0.4473 0.4706 0.68471 0.0
H940 H 0.48591 0.49296 0.71657 0.0
H941 H 0.51531 0.51333 0.77216 0.0
H942 H 0.59699 0.59439 0.59992 0.0
H943 H 0.5796 0.59579 0.66326 0.0
H944 H 0.53725 0.58348 0.68712 0.0
C945 C 0.47277 0.49829 0.72214 0.0
C946 C 0.52072 0.52967 0.75596 0.0
C947 C 0.45079 0.48568 0.70309 0.0
C948 C 0.58349 0.57782 0.61303 0.0
C949 C 0.57408 0.57866 0.64969 0.0
C950 C 0.53357 0.56926 0.70772 0.0
C951 C 0.47871 0.51919 0.74363 0.0
C952 C 0.50424 0.53726 0.74832 0.0
C953 C 0.55831 0.55743 0.66921 0.0
C954 C 0.54674 0.55749 0.70659 0.0
H955 H 0.42652 0.51906 0.73392 0.0
H956 H 0.46521 0.54141 0.7661 0.0
H957 H 0.5004 0.56614 0.72379 0.0
H958 H 0.55526 0.51738 0.60134 0.0
H959 H 0.5379 0.51881 0.66396 0.0
C960 C 0.98099 0.41322 0.95919 0.0
C961 C 0.97018 0.4246 0.93967 0.0
C962 C 0.98813 0.41861 0.99855 0.0
C963 C 0.01698 0.45263 0.06739 0.0
H964 H 0.97929 0.47593 0.11894 0.0
C965 C 0.02429 0.53511 0.04088 0.0
C966 C 0.04894 0.54998 0.04535 0.0
C967 C 0.01214 0.51483 0.06446 0.0
C968 C 0.99004 0.46896 0.10679 0.0
H969 H 0.96033 0.45184 0.94464 0.0
H970 H 0.97401 0.46227 0.01216 0.0
H971 H 0.95954 0.43938 0.08065 0.0
H972 H 0.07954 0.55761 0.08206 0.0
H973 H 0.05841 0.52192 0.12225 0.0
H974 H 0.04757 0.48362 0.08905 0.0
C975 C 0.97578 0.44826 0.99796 0.0
C976 C 0.97871 0.44802 0.08462 0.0
C977 C 0.9687 0.44292 0.95888 0.0
C978 C 0.06064 0.54589 0.07686 0.0
C979 C 0.04849 0.52571 0.10051 0.0
C980 C 0.02825 0.47335 0.09006 0.0
C981 C 0.98454 0.43542 0.01869 0.0
C982 C 0.99252 0.44233 0.05972 0.0
C983 C 0.0245 0.50912 0.09282 0.0
C984 C 0.01489 0.48373 0.1033 0.0
H985 H 0.98199 0.39869 0.94535 0.0
H986 H -0.00443 0.40906 0.01361 0.0
H987 H 0.02796 0.44782 0.04997 0.0
H988 H 0.01474 0.5382 0.01753 0.0
H989 H -0.00638 0.50243 0.05744 0.0
C990 C 0.01605 0.41253 0.40847 0.0
C991 C 0.03093 0.4197 0.44181 0.0
C992 C -0.0005 0.42007 0.40375 0.0
C993 C -0.00237 0.46426 0.38604 0.0
H994 H 0.96788 0.48347 0.46598 0.0
C995 C 0.98646 0.54819 0.43782 0.0
C996 C 0.97331 0.54968 0.40629 0.0
C997 C 0.99279 0.5306 0.43755 0.0
C998 C 0.97628 0.47826 0.44352 0.0
H999 H 0.03738 0.43637 0.49941 0.0
H1000 H 0.00899 0.44992 0.4909 0.0
H1001 H 0.97079 0.44773 0.47628 0.0
H1002 H 0.95993 0.53732 0.34732 0.0
H1003 H 0.97151 0.50688 0.34653 0.0
H1004 H 0.00378 0.49527 0.35391 0.0
C1005 C 0.01001 0.43869 0.46823 0.0
C1006 C 0.97757 0.45769 0.44912 0.0
C1007 C 0.02656 0.43123 0.47292 0.0
C1008 C 0.96993 0.53619 0.37204 0.0
C1009 C 0.97642 0.51875 0.37165 0.0
C1010 C -0.00381 0.48475 0.38035 0.0
C1011 C -0.0022 0.4348 0.4323 0.0
C1012 C 0.98922 0.45113 0.42124 0.0
C1013 C 0.98627 0.51478 0.40556 0.0
C1014 C 0.98645 0.49239 0.40984 0.0
H1015 H 0.01866 0.40306 0.38444 0.0
H1016 H 0.98986 0.41646 0.37615 0.0
H1017 H 0.00703 0.45984 0.36425 0.0
H1018 H 0.98922 0.55848 0.46447 0.0
H1019 H 0.00096 0.52807 0.4636 0.0
C1020 C 0.40923 0.92565 0.63561 0.0
C1021 C 0.41076 0.91806 0.67382 0.0
C1022 C 0.4287 0.93451 0.61008 0.0
C1023 C 0.49171 0.94696 0.60355 0.0
H1024 H 0.50338 0.01104 0.58737 0.0
C1025 C 0.55467 0.01961 0.69462 0.0
C1026 C 0.56326 0.04363 0.68557 0.0
C1027 C 0.54202 0.00204 0.66653 0.0
C1028 C 0.50078 0.99324 0.59008 0.0
H1029 H 0.43352 0.9128 0.71456 0.0
H1030 H 0.46792 0.92963 0.67125 0.0
H1031 H 0.46327 0.97823 0.58485 0.0
H1032 H 0.56735 0.06837 0.63884 0.0
H1033 H 0.5452 0.03768 0.58991 0.0
H1034 H 0.52926 0.96268 0.61328 0.0
C1035 C 0.45145 0.92797 0.66023 0.0
C1036 C 0.47749 0.97419 0.58863 0.0
C1037 C 0.43192 0.91889 0.68559 0.0
C1038 C 0.56008 0.04988 0.64724 0.0
C1039 C 0.54781 0.03236 0.61892 0.0
C1040 C 0.51508 0.96608 0.60494 0.0
C1041 C 0.45022 0.93629 0.62241 0.0
C1042 C 0.47264 0.95145 0.60061 0.0
C1043 C 0.53799 0.00819 0.62857 0.0
C1044 C 0.51918 0.98951 0.60358 0.0
H1045 H 0.39303 0.92487 0.62534 0.0
H1046 H 0.4272 0.94081 0.58122 0.0
H1047 H 0.48844 0.92929 0.61083 0.0
H1048 H 0.55744 0.01436 0.72359 0.0
H1049 H 0.53431 0.98358 0.67544 0.0
C1050 C 0.48302 0.56829 0.05954 0.0
C1051 C 0.50429 0.58684 0.04384 0.0
C1052 C 0.46897 0.54784 0.0374 0.0
C1053 C 0.47649 0.51235 0.96396 0.0
H1054 H 0.4099 0.47141 0.9914 0.0
C1055 C 0.44972 0.42078 1.00573 0.0
C1056 C 0.44252 0.41823 0.04534 0.0
C1057 C 0.44706 0.43647 0.98108 0.0
C1058 C 0.42832 0.48262 0.98238 0.0
H1059 H 0.52731 0.59867 0.99226 0.0
H1060 H 0.50276 0.56297 0.95375 0.0
H1061 H 0.42741 0.5146 0.99398 0.0
H1062 H 0.42458 0.42781 0.08928 0.0
H1063 H 0.42159 0.45666 0.04752 0.0
H1064 H 0.47833 0.48084 0.95635 0.0
C1065 C 0.49696 0.56425 0.98315 0.0
C1066 C 0.43836 0.50732 0.98402 0.0
C1067 C 0.51114 0.58459 1.00545 0.0
C1068 C 0.43091 0.4301 0.05914 0.0
C1069 C 0.42869 0.44617 0.03476 0.0
C1070 C 0.46648 0.48773 0.96232 0.0
C1071 C 0.47581 0.54557 0.99899 0.0
C1072 C 0.46311 0.52217 0.97903 0.0
C1073 C 0.43773 0.45033 0.99597 0.0
C1074 C 0.44309 0.4728 0.97611 0.0
H1075 H 0.47712 0.56959 0.08885 0.0
H1076 H 0.45316 0.53346 0.05105 0.0
H1077 H 0.49553 0.52329 0.959 0.0
H1078 H 0.45771 0.41087 0.99387 0.0
H1079 H 0.45373 0.4389 0.95115 0.0
C1080 C 0.35159 0.93492 0.56367 0.0
C1081 C 0.32759 0.92076 0.57538 0.0
C1082 C 0.35763 0.94861 0.52905 0.0
C1083 C 0.33419 0.95479 0.43257 0.0
H1084 H 0.38758 0.01948 0.43711 0.0
C1085 C 0.36329 0.01883 0.29588 0.0
C1086 C 0.38801 0.03402 0.29044 0.0
C1087 C 0.35438 0.00551 0.33095 0.0
C1088 C 0.37281 0.00137 0.43491 0.0
H1089 H 0.29114 0.90963 0.55887 0.0
H1090 H 0.30168 0.93333 0.49821 0.0
H1091 H 0.37552 0.99488 0.49614 0.0
H1092 H 0.42258 0.04713 0.31836 0.0
H1093 H 0.40735 0.02399 0.37799 0.0
H1094 H 0.33185 0.96108 0.37101 0.0
C1095 C 0.31584 0.93388 0.516 0.0
C1096 C 0.36584 0.98723 0.46902 0.0
C1097 C 0.30979 0.92039 0.55096 0.0
C1098 C 0.40341 0.03579 0.32125 0.0
C1099 C 0.39459 0.02252 0.35593 0.0
C1100 C 0.34133 0.96889 0.3982 0.0
C1101 C 0.33988 0.94842 0.50476 0.0
C1102 C 0.3466 0.96364 0.46835 0.0
C1103 C 0.36995 0.00703 0.3615 0.0
C1104 C 0.36099 0.99235 0.39866 0.0
H1105 H 0.36584 0.93594 0.58176 0.0
H1106 H 0.37632 0.95936 0.52124 0.0
H1107 H 0.31935 0.93668 0.43082 0.0
H1108 H 0.35087 0.0169 0.27283 0.0
H1109 H 0.33527 0.99404 0.33407 0.0
C1110 C 0.42033 0.35572 0.96711 0.0
C1111 C 0.40666 0.3458 1.00149 0.0
C1112 C 0.41151 0.36322 0.93586 0.0
C1113 C 0.39589 0.39505 0.89412 0.0
H1114 H 0.33287 0.35863 0.84767 0.0
C1115 C 0.36135 0.43791 0.78155 0.0
C1116 C 0.35288 0.42506 0.74616 0.0
C1117 C 0.36466 0.42713 0.81507 0.0
C1118 C 0.3505 0.36906 0.86045 0.0
H1119 H 0.37208 0.33426 0.0281 0.0
H1120 H 0.35639 0.34647 0.9728 0.0
H1121 H 0.34539 0.34057 0.89911 0.0
H1122 H 0.33978 0.39041 0.7191 0.0
H1123 H 0.34479 0.37149 0.77766 0.0
H1124 H 0.40111 0.42351 0.85562 0.0
C1125 C 0.37413 0.34882 0.97048 0.0
C1126 C 0.35763 0.35873 0.88999 0.0
C1127 C 0.3831 0.34165 1.00211 0.0
C1128 C 0.34614 0.40075 0.74598 0.0
C1129 C 0.34907 0.3899 0.77959 0.0
C1130 C 0.38864 0.40549 0.86509 0.0
C1131 C 0.3886 0.36059 0.93769 0.0
C1132 C 0.38056 0.37149 0.90678 0.0
C1133 C 0.35921 0.40316 0.81415 0.0
C1134 C 0.36594 0.39257 0.84752 0.0
H1135 H 0.43855 0.35934 0.96538 0.0
H1136 H 0.42297 0.37185 0.91073 0.0
H1137 H 0.41354 0.40551 0.90683 0.0
H1138 H 0.36706 0.45674 0.78254 0.0
H1139 H 0.37227 0.4378 0.84134 0.0
C1140 C 0.94567 0.34513 0.99065 0.0
C1141 C 0.93093 0.3553 0.98809 0.0
C1142 C 0.95777 0.34638 0.02573 0.0
C1143 C 0.98031 0.38191 0.11811 0.0
H1144 H 0.98841 0.32936 0.15251 0.0
C1145 C 0.02498 0.38347 0.26842 0.0
C1146 C 0.03936 0.37284 0.2703 0.0
C1147 C 0.01151 0.38128 0.23453 0.0
C1148 C 0.98665 0.34439 0.14319 0.0
H1149 H 0.9173 0.37457 0.02123 0.0
H1150 H 0.93813 0.37652 0.08228 0.0
H1151 H 0.9651 0.32507 0.09352 0.0
H1152 H 0.05105 0.35203 0.23683 0.0
H1153 H 0.02787 0.34837 0.1781 0.0
H1154 H 0.00202 0.40131 0.16757 0.0
C1155 C 0.94045 0.36764 0.05704 0.0
C1156 C 0.97316 0.34188 0.10922 0.0
C1157 C 0.92818 0.36622 0.02205 0.0
C1158 C 0.03996 0.36015 0.23701 0.0
C1159 C 0.02654 0.358 0.20314 0.0
C1160 C -0.00614 0.38445 0.15205 0.0
C1161 C 0.95569 0.35802 0.05931 0.0
C1162 C 0.96978 0.36059 0.09608 0.0
C1163 C 0.01198 0.36842 0.20133 0.0
C1164 C -0.00269 0.36574 0.16515 0.0
H1165 H 0.94857 0.33692 0.96504 0.0
H1166 H 0.96951 0.33898 0.02603 0.0
H1167 H 0.9785 0.39689 0.10869 0.0
H1168 H 0.0237 0.39311 0.29345 0.0
H1169 H 0.00033 0.38931 0.23472 0.0
C1170 C 0.62266 0.07505 0.61124 0.0
C1171 C 0.63444 0.07382 0.6453 0.0
C1172 C 0.61557 0.05772 0.58166 0.0
C1173 C 0.5868 0.00865 0.54289 0.0
H1174 H 0.6276 0.9864 0.49951 0.0
C1175 C 0.5507 0.92954 0.43247 0.0
C1176 C 0.56453 0.93448 0.39809 0.0
C1177 C 0.55985 0.94452 0.4656 0.0
C1178 C 0.61594 0.99235 0.51142 0.0
H1179 H 0.64941 0.05418 0.67335 0.0
H1180 H 0.63789 0.02452 0.62092 0.0
H1181 H 0.64348 0.01815 0.54902 0.0
H1182 H 0.59922 0.9581 0.37238 0.0
H1183 H 0.61524 0.98368 0.43001 0.0
H1184 H 0.55934 0.98307 0.50508 0.0
C1185 C 0.63382 0.03873 0.61748 0.0
C1186 C 0.62503 0.0105 0.53989 0.0
C1187 C 0.64059 0.05586 0.64743 0.0
C1188 C 0.58812 0.95375 0.39845 0.0
C1189 C 0.59734 0.96843 0.43158 0.0
C1190 C 0.57763 0.99032 0.51476 0.0
C1191 C 0.62046 0.03895 0.58495 0.0
C1192 C 0.6107 0.01915 0.55549 0.0
C1193 C 0.58314 0.96447 0.4652 0.0
C1194 C 0.59218 0.98217 0.4982 0.0
H1195 H 0.61736 0.08842 0.6086 0.0
H1196 H 0.60564 0.05863 0.55667 0.0
H1197 H 0.57515 0.01461 0.55481 0.0
H1198 H 0.53239 0.91499 0.43298 0.0
H1199 H 0.54851 0.94083 0.49117 0.0
C1200 C 0.60841 0.67556 0.90032 0.0
C1201 C 0.592 0.65948 0.9279 0.0
C1202 C 0.61457 0.66733 0.86656 0.0
C1203 C 0.59574 0.61263 0.8047 0.0
H1204 H 0.66071 0.6489 0.76575 0.0
C1205 C 0.63208 0.57583 0.68392 0.0
C1206 C 0.64467 0.59133 0.65253 0.0
C1207 C 0.62642 0.58429 0.71791 0.0
C1208 C 0.64245 0.63863 0.77606 0.0
H1209 H 0.56925 0.62196 0.94127 0.0
H1210 H 0.58025 0.60758 0.88307 0.0
H1211 H 0.64886 0.66297 0.82336 0.0
H1212 H 0.66174 0.62813 0.63319 0.0
H1213 H 0.65258 0.64303 0.69311 0.0
H1214 H 0.58961 0.58804 0.75769 0.0
C1215 C 0.58803 0.62664 0.88689 0.0
C1216 C 0.63555 0.64677 0.80911 0.0
C1217 C 0.58169 0.63489 0.92048 0.0
C1218 C 0.65234 0.61573 0.65691 0.0
C1219 C 0.64699 0.62426 0.69124 0.0
C1220 C 0.60273 0.60438 0.77191 0.0
C1221 C 0.60471 0.64272 0.85944 0.0
C1222 C 0.61205 0.63395 0.82398 0.0
C1223 C 0.63348 0.60855 0.72182 0.0
C1224 C 0.62617 0.61728 0.75709 0.0
H1225 H 0.61644 0.6946 0.90473 0.0
H1226 H 0.62702 0.68038 0.8459 0.0
H1227 H 0.57738 0.60239 0.81451 0.0
H1228 H 0.62553 0.55687 0.68153 0.0
H1229 H 0.61621 0.57172 0.74099 0.0
C1230 C 0.07967 0.62693 0.1114 0.0
C1231 C 0.0767 0.63521 0.07473 0.0
C1232 C 0.0664 0.62671 0.14426 0.0
C1233 C 0.0284 0.64929 0.1858 0.0
H1234 H -0.00618 0.58676 0.23433 0.0
C1235 C 0.97076 0.62582 0.32963 0.0
C1236 C 0.9494 0.60363 0.33036 0.0
C1237 C 0.98605 0.63263 0.29689 0.0
C1238 C 0.00325 0.6043 0.22097 0.0
H1239 H 0.05887 0.65145 0.04461 0.0
H1240 H 0.03635 0.65174 0.10216 0.0
H1241 H 0.02341 0.59437 0.18338 0.0
H1242 H 0.92658 0.57217 0.29556 0.0
H1243 H 0.95324 0.58401 0.23885 0.0
H1244 H 0.00816 0.65915 0.2238 0.0
C1245 C 0.04872 0.6452 0.10548 0.0
C1246 C 0.02044 0.60876 0.19213 0.0
C1247 C 0.06167 0.64506 0.0725 0.0
C1248 C 0.94284 0.58935 0.29624 0.0
C1249 C 0.95826 0.59601 0.2638 0.0
C1250 C 0.01142 0.64493 0.21524 0.0
C1251 C 0.05018 0.63513 0.14132 0.0
C1252 C 0.03316 0.63124 0.17399 0.0
C1253 C 0.98044 0.61729 0.26435 0.0
C1254 C -0.00155 0.62228 0.23285 0.0
H1255 H 0.09086 0.61895 0.11404 0.0
H1256 H 0.06811 0.61906 0.17161 0.0
H1257 H 0.03788 0.66679 0.17235 0.0
H1258 H 0.97645 0.63727 0.35535 0.0
H1259 H 0.00298 0.64916 0.29818 0.0
C1260 C 0.49724 0.10342 0.3401 0.0
C1261 C 0.50885 0.10896 0.30347 0.0
C1262 C 0.51006 0.11369 0.37456 0.0
C1263 C 0.57141 0.14192 0.41385 0.0
H1264 H 0.54086 0.15111 0.50512 0.0
C1265 C 0.58757 0.16421 0.59235 0.0
C1266 C 0.59692 0.14929 0.6012 0.0
C1267 C 0.58032 0.16533 0.55393 0.0
C1268 C 0.54993 0.14916 0.4798 0.0
H1269 H 0.54266 0.13029 0.27374 0.0
H1270 H 0.56511 0.14882 0.33386 0.0
H1271 H 0.52113 0.1427 0.44138 0.0
H1272 H 0.60745 0.12514 0.57603 0.0
H1273 H 0.59399 0.12626 0.51009 0.0
H1274 H 0.60036 0.1487 0.45213 0.0
C1275 C 0.54622 0.13603 0.33619 0.0
C1276 C 0.53841 0.14394 0.44331 0.0
C1277 C 0.53341 0.12546 0.30176 0.0
C1278 C 0.59982 0.13638 0.57055 0.0
C1279 C 0.59247 0.13738 0.53239 0.0
C1280 C 0.58307 0.14747 0.45019 0.0
C1281 C 0.53476 0.13003 0.37311 0.0
C1282 C 0.5486 0.13936 0.41022 0.0
C1283 C 0.58228 0.15156 0.52367 0.0
C1284 C 0.57206 0.15023 0.48392 0.0
H1285 H 0.47836 0.09054 0.34221 0.0
H1286 H 0.50069 0.10818 0.40243 0.0
H1287 H 0.57984 0.13846 0.38915 0.0
H1288 H 0.58512 0.17438 0.61529 0.0
H1289 H 0.57281 0.17666 0.54811 0.0
C1290 C 0.37184 0.53516 0.79304 0.0
C1291 C 0.37391 0.54412 0.75466 0.0
C1292 C 0.38169 0.5507 0.82501 0.0
C1293 C 0.43216 0.60776 0.84769 0.0
H1294 H 0.40127 0.60183 0.94832 0.0
C1295 C 0.48871 0.66049 0.97962 0.0
C1296 C 0.48348 0.64782 0.01521 0.0
C1297 C 0.4722 0.65217 0.94873 0.0
C1298 C 0.41026 0.60365 0.92055 0.0
H1299 H 0.38737 0.57627 0.71963 0.0
H1300 H 0.40513 0.60353 0.77553 0.0
H1301 H 0.37775 0.57786 0.89228 0.0
H1302 H 0.45641 0.61731 0.04733 0.0
H1303 H 0.42814 0.60215 0.99327 0.0
H1304 H 0.46489 0.63198 0.87587 0.0
C1305 C 0.39558 0.58447 0.78083 0.0
C1306 C 0.39671 0.59001 0.88844 0.0
C1307 C 0.38533 0.56891 0.74897 0.0
C1308 C 0.46083 0.6276 0.02033 0.0
C1309 C 0.44455 0.61892 0.98915 0.0
C1310 C 0.44579 0.621 0.87988 0.0
C1311 C 0.39416 0.57549 0.81904 0.0
C1312 C 0.40763 0.59172 0.85191 0.0
C1313 C 0.45037 0.63058 0.95235 0.0
C1314 C 0.43514 0.61885 0.91703 0.0
H1315 H 0.36304 0.51611 0.79813 0.0
H1316 H 0.38055 0.54334 0.85414 0.0
H1317 H 0.44106 0.60915 0.81994 0.0
H1318 H 0.50602 0.67624 0.97502 0.0
H1319 H 0.47706 0.66213 0.92139 0.0
C1320 C 0.86259 0.42975 1.00665 0.0
C1321 C 0.86625 0.41024 1.00369 0.0
C1322 C 0.86009 0.43776 0.04361 0.0
C1323 C 0.87285 0.4338 0.14943 0.0
H1324 H 0.83582 0.46518 0.16499 0.0
C1325 C 0.85747 0.46346 0.30178 0.0
C1326 C 0.86684 0.4882 0.30398 0.0
C1327 C 0.85461 0.45241 0.26525 0.0
C1328 C 0.84613 0.45636 0.1609 0.0
H1329 H 0.86884 0.38291 0.0361 0.0
H1330 H 0.86318 0.3959 0.10053 0.0
H1331 H 0.83528 0.44778 0.10079 0.0
H1332 H 0.87959 0.52071 0.2702 0.0
H1333 H 0.87398 0.50122 0.20597 0.0
H1334 H 0.88314 0.44196 0.20996 0.0
C1335 C 0.86332 0.40583 0.07477 0.0
C1336 C 0.84602 0.44656 0.12414 0.0
C1337 C 0.86638 0.39824 0.03794 0.0
C1338 C 0.87249 0.50162 0.26909 0.0
C1339 C 0.86914 0.4905 0.23253 0.0
C1340 C 0.87252 0.44312 0.18629 0.0
C1341 C 0.86068 0.42604 0.07823 0.0
C1342 C 0.85962 0.43539 0.11779 0.0
C1343 C 0.86056 0.4659 0.23044 0.0
C1344 C 0.85938 0.45467 0.19215 0.0
H1345 H 0.86262 0.43931 0.98046 0.0
H1346 H 0.85848 0.45358 0.04498 0.0
H1347 H 0.88403 0.42592 0.1456 0.0
H1348 H 0.85316 0.45284 0.32838 0.0
H1349 H 0.848 0.43339 0.26415 0.0
C1350 C 0.42969 0.80989 0.39506 0.0
C1351 C 0.45419 0.82508 0.40199 0.0
C1352 C 0.41334 0.80323 0.42608 0.0
C1353 C 0.40575 0.7979 0.53293 0.0
H1354 H 0.36401 0.8242 0.51998 0.0
C1355 C 0.37215 0.82823 0.66385 0.0
C1356 C 0.35242 0.83152 0.65949 0.0
C1357 C 0.37935 0.81914 0.63284 0.0
C1358 C 0.37486 0.81599 0.52407 0.0
H1359 H 0.48104 0.84413 0.44654 0.0
H1360 H 0.45249 0.83194 0.50115 0.0
H1361 H 0.38677 0.82301 0.46413 0.0
H1362 H 0.32321 0.82549 0.62101 0.0
H1363 H 0.33486 0.80823 0.56765 0.0
H1364 H 0.39401 0.79085 0.59283 0.0
C1365 C 0.44594 0.82536 0.47176 0.0
C1366 C 0.38805 0.81548 0.49193 0.0
C1367 C 0.46221 0.83246 0.44064 0.0
C1368 C 0.33867 0.8234 0.62497 0.0
C1369 C 0.34554 0.81375 0.59424 0.0
C1370 C 0.39213 0.79788 0.56495 0.0
C1371 C 0.42134 0.81119 0.46458 0.0
C1372 C 0.40422 0.80724 0.49647 0.0
C1373 C 0.36669 0.81263 0.59696 0.0
C1374 C 0.37724 0.80785 0.56141 0.0
H1375 H 0.42314 0.80418 0.3654 0.0
H1376 H 0.39442 0.7924 0.41991 0.0
H1377 H 0.41803 0.79129 0.53694 0.0
H1378 H 0.38319 0.83442 0.69003 0.0
H1379 H 0.39584 0.81888 0.63626 0.0
C1380 C 0.58255 0.47853 0.68955 0.0
C1381 C 0.59629 0.47242 0.66525 0.0
C1382 C 0.57412 0.46736 0.72582 0.0
C1383 C 0.55784 0.41392 0.78235 0.0
H1384 H 0.5717 0.45535 0.87306 0.0
C1385 C 0.5487 0.40805 0.96254 0.0
C1386 C 0.52405 0.39241 0.96662 0.0
C1387 C 0.55866 0.41619 0.92532 0.0
C1388 C 0.5679 0.44358 0.84804 0.0
H1389 H 0.61112 0.44898 0.65985 0.0
H1390 H 0.59569 0.429 0.72293 0.0
H1391 H 0.58632 0.47276 0.80801 0.0
H1392 H 0.49064 0.37208 0.93514 0.0
H1393 H 0.5081 0.3862 0.86987 0.0
H1394 H 0.53887 0.38473 0.82242 0.0
C1395 C 0.59176 0.44268 0.71369 0.0
C1396 C 0.57607 0.45352 0.81089 0.0
C1397 C 0.60051 0.4541 0.67753 0.0
C1398 C 0.50966 0.38435 0.93275 0.0
C1399 C 0.51966 0.39222 0.89549 0.0
C1400 C 0.54934 0.40395 0.81951 0.0
C1401 C 0.57889 0.44956 0.73838 0.0
C1402 C 0.57096 0.43879 0.77773 0.0
C1403 C 0.54416 0.40853 0.89155 0.0
C1404 C 0.55423 0.41874 0.85259 0.0
H1405 H 0.57829 0.49202 0.6808 0.0
H1406 H 0.56384 0.47265 0.74414 0.0
H1407 H 0.55367 0.40225 0.7571 0.0
H1408 H 0.56013 0.41462 0.98823 0.0
H1409 H 0.57763 0.42871 0.92292 0.0
C1410 C 0.12671 0.47237 0.32731 0.0
C1411 C 0.12008 0.47517 0.3655 0.0
C1412 C 0.1357 0.4912 0.3005 0.0
C1413 C 0.13051 0.54189 0.27318 0.0
H1414 H 0.185 0.55772 0.20606 0.0
C1415 C 0.15004 0.603 0.13919 0.0
C1416 C 0.15601 0.59553 0.10433 0.0
C1417 C 0.15076 0.59321 0.17549 0.0
C1418 C 0.16966 0.55344 0.22436 0.0
H1419 H 0.11799 0.49997 0.40588 0.0
H1420 H 0.1331 0.53294 0.35816 0.0
H1421 H 0.17656 0.53106 0.26218 0.0
H1422 H 0.16824 0.57265 0.08008 0.0
H1423 H 0.16885 0.55493 0.14305 0.0
H1424 H 0.12251 0.5628 0.23426 0.0
C1425 C 0.13158 0.51615 0.34941 0.0
C1426 C 0.16496 0.53832 0.25665 0.0
C1427 C 0.12301 0.49737 0.37663 0.0
C1428 C 0.16381 0.57891 0.10659 0.0
C1429 C 0.16419 0.56881 0.14282 0.0
C1430 C 0.13498 0.55673 0.24058 0.0
C1431 C 0.13789 0.51315 0.31105 0.0
C1432 C 0.14504 0.532 0.28081 0.0
C1433 C 0.15709 0.5754 0.17765 0.0
C1434 C 0.15431 0.56226 0.21517 0.0
H1435 H 0.12478 0.4555 0.31795 0.0
H1436 H 0.14015 0.48832 0.27099 0.0
H1437 H 0.11488 0.53706 0.29111 0.0
H1438 H 0.14423 0.61603 0.13817 0.0
H1439 H 0.14575 0.59918 0.20172 0.0
loop_
_geom_bond_atom_site_label_1
_geom_bond_atom_site_label_2
_geom_bond_distance
_geom_bond_site_symmetry_2
_ccdc_geom_bond_type
Co0 N5 2.057 . S
Co0 O17 2.021 . S
Co0 O20 2.062 . S
Co0 O24 2.117 . S
Co0 O25 2.020 . S
C1 O21 1.259 . S
C1 O24 1.258 . S
Co2 N11 2.057 . S
Co2 O18 2.117 . S
Co2 O19 2.020 . S
Co2 O21 2.021 . S
Co2 O26 2.062 . S
C3 N5 1.316 . S
C3 N6 1.347 . S
C3 H8 0.931 . S
C4 N5 1.375 . S
C4 C7 1.350 . S
C4 H9 0.930 . S
N5 Co0 2.057 . S
N5 C3 1.316 . S
N5 C4 1.375 . S
N6 C3 1.347 . S
N6 C7 1.373 . S
C7 C4 1.350 . S
C7 N6 1.373 . S
C7 H28 0.931 . S
H8 C3 0.931 . S
H9 C4 0.930 . S
C10 O17 1.259 . S
C10 O18 1.258 . S
N11 Co2 2.057 . S
N11 C12 1.316 . S
N11 C13 1.375 . S
C12 N11 1.316 . S
C12 N14 1.347 . S
C12 H23 0.931 . S
C13 N11 1.375 . S
C13 C15 1.350 . S
C13 H22 0.930 . S
N14 C12 1.347 . S
N14 C15 1.373 . S
C15 C13 1.350 . S
C15 N14 1.373 . S
C15 H29 0.931 . S
C16 O19 1.256 . S
C16 O20 1.255 . S
O17 Co0 2.021 . S
O17 C10 1.259 . S
O18 Co2 2.117 . S
O18 C10 1.258 . S
O19 Co2 2.020 . S
O19 C16 1.256 . S
O20 Co0 2.062 . S
O20 C16 1.255 . S
O21 C1 1.259 . S
O21 Co2 2.021 . S
H22 C13 0.930 . S
H23 C12 0.931 . S
O24 Co0 2.117 . S
O24 C1 1.258 . S
O25 Co0 2.020 . S
O25 C27 1.256 . S
O26 Co2 2.062 . S
O26 C27 1.255 . S
C27 O25 1.256 . S
C27 O26 1.255 . S
H28 C7 0.931 . S
H29 C15 0.931 . S
Co30 N35 2.057 . S
Co30 O47 2.021 . S
Co30 O50 2.062 . S
Co30 O54 2.117 . S
Co30 O55 2.020 . S
C31 O51 1.259 . S
C31 O54 1.258 . S
Co32 N41 2.057 . S
Co32 O48 2.117 . S
Co32 O49 2.020 . S
Co32 O51 2.021 . S
Co32 O56 2.062 . S
C33 N35 1.316 . S
C33 N36 1.347 . S
C33 H38 0.931 . S
C34 N35 1.375 . S
C34 C37 1.350 . S
C34 H39 0.930 . S
N35 Co30 2.057 . S
N35 C33 1.316 . S
N35 C34 1.375 . S
N36 C33 1.347 . S
N36 C37 1.373 . S
C37 C34 1.350 . S
C37 N36 1.373 . S
C37 H58 0.931 . S
H38 C33 0.931 . S
H39 C34 0.930 . S
C40 O47 1.259 . S
C40 O48 1.258 . S
N41 Co32 2.057 . S
N41 C42 1.316 . S
N41 C43 1.375 . S
C42 N41 1.316 . S
C42 N44 1.347 . S
C42 H53 0.931 . S
C43 N41 1.375 . S
C43 C45 1.350 . S
C43 H52 0.930 . S
N44 C42 1.347 . S
N44 C45 1.373 . S
C45 C43 1.350 . S
C45 N44 1.373 . S
C45 H59 0.931 . S
C46 O49 1.256 . S
C46 O50 1.255 . S
O47 Co30 2.021 . S
O47 C40 1.259 . S
O48 Co32 2.117 . S
O48 C40 1.258 . S
O49 Co32 2.020 . S
O49 C46 1.256 . S
O50 Co30 2.062 . S
O50 C46 1.255 . S
O51 C31 1.259 . S
O51 Co32 2.021 . S
H52 C43 0.930 . S
H53 C42 0.931 . S
O54 Co30 2.117 . S
O54 C31 1.258 . S
O55 Co30 2.020 . S
O55 C57 1.256 . S
O56 Co32 2.062 . S
O56 C57 1.255 . S
C57 O55 1.256 . S
C57 O56 1.255 . S
H58 C37 0.931 . S
H59 C45 0.931 . S
Co60 N65 2.057 . S
Co60 O77 2.021 . S
Co60 O80 2.062 . S
Co60 O84 2.117 . S
Co60 O85 2.020 . S
C61 O81 1.259 . S
C61 O84 1.258 . S
Co62 N71 2.057 . S
Co62 O78 2.117 . S
Co62 O79 2.020 . S
Co62 O81 2.021 . S
Co62 O86 2.062 . S
C63 N65 1.316 . S
C63 N66 1.347 . S
C63 H68 0.931 . S
C64 N65 1.375 . S
C64 C67 1.350 . S
C64 H69 0.930 . S
N65 Co60 2.057 . S
N65 C63 1.316 . S
N65 C64 1.375 . S
N66 C63 1.347 . S
N66 C67 1.373 . S
C67 C64 1.350 . S
C67 N66 1.373 . S
C67 H88 0.931 . S
H68 C63 0.931 . S
H69 C64 0.930 . S
C70 O77 1.259 . S
C70 O78 1.258 . S
N71 Co62 2.057 . S
N71 C72 1.316 . S
N71 C73 1.375 . S
C72 N71 1.316 . S
C72 N74 1.347 . S
C72 H83 0.931 . S
C73 N71 1.375 . S
C73 C75 1.350 . S
C73 H82 0.930 . S
N74 C72 1.347 . S
N74 C75 1.373 . S
C75 C73 1.350 . S
C75 N74 1.373 . S
C75 H89 0.931 . S
C76 O79 1.256 . S
C76 O80 1.255 . S
O77 Co60 2.021 . S
O77 C70 1.259 . S
O78 Co62 2.117 . S
O78 C70 1.258 . S
O79 Co62 2.020 . S
O79 C76 1.256 . S
O80 Co60 2.062 . S
O80 C76 1.255 . S
O81 C61 1.259 . S
O81 Co62 2.021 . S
H82 C73 0.930 . S
H83 C72 0.931 . S
O84 Co60 2.117 . S
O84 C61 1.258 . S
O85 Co60 2.020 . S
O85 C87 1.256 . S
O86 Co62 2.062 . S
O86 C87 1.255 . S
C87 O85 1.256 . S
C87 O86 1.255 . S
H88 C67 0.931 . S
H89 C75 0.931 . S
Co90 N95 2.057 . S
Co90 O107 2.021 . S
Co90 O110 2.062 . S
Co90 O114 2.117 . S
Co90 O115 2.020 . S
C91 O111 1.259 . S
C91 O114 1.258 . S
Co92 N101 2.057 . S
Co92 O108 2.117 . S
Co92 O109 2.020 . S
Co92 O111 2.021 . S
Co92 O116 2.062 . S
C93 N95 1.316 . S
C93 N96 1.347 . S
C93 H98 0.931 . S
C94 N95 1.375 . S
C94 C97 1.350 . S
C94 H99 0.930 . S
N95 Co90 2.057 . S
N95 C93 1.316 . S
N95 C94 1.375 . S
N96 C93 1.347 . S
N96 C97 1.373 . S
C97 C94 1.350 . S
C97 N96 1.373 . S
C97 H118 0.931 . S
H98 C93 0.931 . S
H99 C94 0.930 . S
C100 O107 1.259 . S
C100 O108 1.258 . S
N101 Co92 2.057 . S
N101 C102 1.316 . S
N101 C103 1.375 . S
C102 N101 1.316 . S
C102 N104 1.347 . S
C102 H113 0.931 . S
C103 N101 1.375 . S
C103 C105 1.350 . S
C103 H112 0.930 . S
N104 C102 1.347 . S
N104 C105 1.373 . S
C105 C103 1.350 . S
C105 N104 1.373 . S
C105 H119 0.931 . S
C106 O109 1.256 . S
C106 O110 1.255 . S
O107 Co90 2.021 . S
O107 C100 1.259 . S
O108 Co92 2.117 . S
O108 C100 1.258 . S
O109 Co92 2.020 . S
O109 C106 1.256 . S
O110 Co90 2.062 . S
O110 C106 1.255 . S
O111 C91 1.259 . S
O111 Co92 2.021 . S
H112 C103 0.930 . S
H113 C102 0.931 . S
O114 Co90 2.117 . S
O114 C91 1.258 . S
O115 Co90 2.020 . S
O115 C117 1.256 . S
O116 Co92 2.062 . S
O116 C117 1.255 . S
C117 O115 1.256 . S
C117 O116 1.255 . S
H118 C97 0.931 . S
H119 C105 0.931 . S
Co120 N125 2.057 . S
Co120 O137 2.021 . S
Co120 O140 2.062 . S
Co120 O144 2.117 . S
Co120 O145 2.020 . S
C121 O141 1.259 . S
C121 O144 1.258 . S
Co122 N131 2.057 . S
Co122 O138 2.117 . S
Co122 O139 2.020 . S
Co122 O141 2.021 . S
Co122 O146 2.062 . S
C123 N125 1.316 . S
C123 N126 1.347 . S
C123 H128 0.931 . S
C124 N125 1.375 . S
C124 C127 1.350 . S
C124 H129 0.930 . S
N125 Co120 2.057 . S
N125 C123 1.316 . S
N125 C124 1.375 . S
N126 C123 1.347 . S
N126 C127 1.373 . S
C127 C124 1.350 . S
C127 N126 1.373 . S
C127 H148 0.931 . S
H128 C123 0.931 . S
H129 C124 0.930 . S
C130 O137 1.259 . S
C130 O138 1.258 . S
N131 Co122 2.057 . S
N131 C132 1.316 . S
N131 C133 1.375 . S
C132 N131 1.316 . S
C132 N134 1.347 . S
C132 H143 0.931 . S
C133 N131 1.375 . S
C133 C135 1.350 . S
C133 H142 0.930 . S
N134 C132 1.347 . S
N134 C135 1.373 . S
C135 C133 1.350 . S
C135 N134 1.373 . S
C135 H149 0.931 . S
C136 O139 1.256 . S
C136 O140 1.255 . S
O137 Co120 2.021 . S
O137 C130 1.259 . S
O138 Co122 2.117 . S
O138 C130 1.258 . S
O139 Co122 2.020 . S
O139 C136 1.256 . S
O140 Co120 2.062 . S
O140 C136 1.255 . S
O141 C121 1.259 . S
O141 Co122 2.021 . S
H142 C133 0.930 . S
H143 C132 0.931 . S
O144 Co120 2.117 . S
O144 C121 1.258 . S
O145 Co120 2.020 . S
O145 C147 1.256 . S
O146 Co122 2.062 . S
O146 C147 1.255 . S
C147 O145 1.256 . S
C147 O146 1.255 . S
H148 C127 0.931 . S
H149 C135 0.931 . S
Co150 N155 2.057 . S
Co150 O167 2.021 . S
Co150 O170 2.062 . S
Co150 O174 2.117 . S
Co150 O175 2.020 . S
C151 O171 1.259 . S
C151 O174 1.258 . S
Co152 N161 2.057 1_556 S
Co152 O168 2.117 . S
Co152 O169 2.020 . S
Co152 O171 2.021 . S
Co152 O176 2.062 1_556 S
C153 N155 1.316 . S
C153 N156 1.347 . S
C153 H158 0.931 . S
C154 N155 1.375 . S
C154 C157 1.350 . S
C154 H159 0.930 . S
N155 Co150 2.057 . S
N155 C153 1.316 . S
N155 C154 1.375 . S
N156 C153 1.347 . S
N156 C157 1.373 . S
C157 C154 1.350 . S
C157 N156 1.373 . S
C157 H178 0.931 . S
H158 C153 0.931 . S
H159 C154 0.930 . S
C160 O167 1.259 . S
C160 O168 1.258 . S
N161 Co152 2.057 1_554 S
N161 C162 1.316 . S
N161 C163 1.375 . S
C162 N161 1.316 . S
C162 N164 1.347 . S
C162 H173 0.931 . S
C163 N161 1.375 . S
C163 C165 1.350 . S
C163 H172 0.930 . S
N164 C162 1.347 . S
N164 C165 1.373 . S
C165 C163 1.350 . S
C165 N164 1.373 . S
C165 H179 0.931 . S
C166 O169 1.256 . S
C166 O170 1.255 . S
O167 Co150 2.021 . S
O167 C160 1.259 . S
O168 Co152 2.117 . S
O168 C160 1.258 . S
O169 Co152 2.020 . S
O169 C166 1.256 . S
O170 Co150 2.062 . S
O170 C166 1.255 . S
O171 C151 1.259 . S
O171 Co152 2.021 . S
H172 C163 0.930 . S
H173 C162 0.931 . S
O174 Co150 2.117 . S
O174 C151 1.258 . S
O175 Co150 2.020 . S
O175 C177 1.256 1_556 S
O176 Co152 2.062 1_554 S
O176 C177 1.255 . S
C177 O175 1.256 1_554 S
C177 O176 1.255 . S
H178 C157 0.931 . S
H179 C165 0.931 . S
Co180 N185 2.057 . S
Co180 O197 2.021 . S
Co180 O200 2.062 . S
Co180 O204 2.117 . S
Co180 O205 2.020 . S
C181 O201 1.259 . S
C181 O204 1.258 . S
Co182 N191 2.057 . S
Co182 O198 2.117 . S
Co182 O199 2.020 . S
Co182 O201 2.021 . S
Co182 O206 2.062 . S
C183 N185 1.316 . S
C183 N186 1.347 . S
C183 H188 0.931 . S
C184 N185 1.375 . S
C184 C187 1.350 . S
C184 H189 0.930 . S
N185 Co180 2.057 . S
N185 C183 1.316 . S
N185 C184 1.375 . S
N186 C183 1.347 . S
N186 C187 1.373 . S
C187 C184 1.350 . S
C187 N186 1.373 . S
C187 H208 0.931 . S
H188 C183 0.931 . S
H189 C184 0.930 . S
C190 O197 1.259 . S
C190 O198 1.258 . S
N191 Co182 2.057 . S
N191 C192 1.316 . S
N191 C193 1.375 . S
C192 N191 1.316 . S
C192 N194 1.347 . S
C192 H203 0.931 . S
C193 N191 1.375 . S
C193 C195 1.350 . S
C193 H202 0.930 . S
N194 C192 1.347 . S
N194 C195 1.373 . S
C195 C193 1.350 . S
C195 N194 1.373 . S
C195 H209 0.931 . S
C196 O199 1.256 . S
C196 O200 1.255 . S
O197 Co180 2.021 . S
O197 C190 1.259 . S
O198 Co182 2.117 . S
O198 C190 1.258 . S
O199 Co182 2.020 . S
O199 C196 1.256 . S
O200 Co180 2.062 . S
O200 C196 1.255 . S
O201 C181 1.259 . S
O201 Co182 2.021 . S
H202 C193 0.930 . S
H203 C192 0.931 . S
O204 Co180 2.117 . S
O204 C181 1.258 . S
O205 Co180 2.020 . S
O205 C207 1.256 . S
O206 Co182 2.062 . S
O206 C207 1.255 . S
C207 O205 1.256 . S
C207 O206 1.255 . S
H208 C187 0.931 . S
H209 C195 0.931 . S
Co210 N215 2.057 . S
Co210 O227 2.021 . S
Co210 O230 2.062 . S
Co210 O234 2.117 . S
Co210 O235 2.020 . S
C211 O231 1.259 . S
C211 O234 1.258 . S
Co212 N221 2.057 . S
Co212 O228 2.117 . S
Co212 O229 2.020 . S
Co212 O231 2.021 . S
Co212 O236 2.062 . S
C213 N215 1.316 . S
C213 N216 1.347 . S
C213 H218 0.931 . S
C214 N215 1.375 . S
C214 C217 1.350 . S
C214 H219 0.930 . S
N215 Co210 2.057 . S
N215 C213 1.316 . S
N215 C214 1.375 . S
N216 C213 1.347 . S
N216 C217 1.373 . S
C217 C214 1.350 . S
C217 N216 1.373 . S
C217 H238 0.931 . S
H218 C213 0.931 . S
H219 C214 0.930 . S
C220 O227 1.259 . S
C220 O228 1.258 . S
N221 Co212 2.057 . S
N221 C222 1.316 . S
N221 C223 1.375 . S
C222 N221 1.316 . S
C222 N224 1.347 . S
C222 H233 0.931 . S
C223 N221 1.375 . S
C223 C225 1.350 . S
C223 H232 0.930 . S
N224 C222 1.347 . S
N224 C225 1.373 . S
C225 C223 1.350 . S
C225 N224 1.373 . S
C225 H239 0.931 . S
C226 O229 1.256 . S
C226 O230 1.255 . S
O227 Co210 2.021 . S
O227 C220 1.259 . S
O228 Co212 2.117 . S
O228 C220 1.258 . S
O229 Co212 2.020 . S
O229 C226 1.256 . S
O230 Co210 2.062 . S
O230 C226 1.255 . S
O231 C211 1.259 . S
O231 Co212 2.021 . S
H232 C223 0.930 . S
H233 C222 0.931 . S
O234 Co210 2.117 . S
O234 C211 1.258 . S
O235 Co210 2.020 . S
O235 C237 1.256 . S
O236 Co212 2.062 . S
O236 C237 1.255 . S
C237 O235 1.256 . S
C237 O236 1.255 . S
H238 C217 0.931 . S
H239 C225 0.931 . S
Co240 N245 2.057 . S
Co240 O257 2.021 . S
Co240 O260 2.062 . S
Co240 O264 2.117 . S
Co240 O265 2.020 . S
C241 O261 1.259 . S
C241 O264 1.258 . S
Co242 N251 2.057 . S
Co242 O258 2.117 . S
Co242 O259 2.020 . S
Co242 O261 2.021 . S
Co242 O266 2.062 . S
C243 N245 1.316 . S
C243 N246 1.347 . S
C243 H248 0.931 . S
C244 N245 1.375 . S
C244 C247 1.350 . S
C244 H249 0.930 . S
N245 Co240 2.057 . S
N245 C243 1.316 . S
N245 C244 1.375 . S
N246 C243 1.347 . S
N246 C247 1.373 . S
C247 C244 1.350 . S
C247 N246 1.373 . S
C247 H268 0.931 . S
H248 C243 0.931 . S
H249 C244 0.930 . S
C250 O257 1.259 . S
C250 O258 1.258 . S
N251 Co242 2.057 . S
N251 C252 1.316 1_554 S
N251 C253 1.375 . S
C252 N251 1.316 1_556 S
C252 N254 1.347 . S
C252 H263 0.931 . S
C253 N251 1.375 . S
C253 C255 1.350 1_554 S
C253 H262 0.930 . S
N254 C252 1.347 . S
N254 C255 1.373 . S
C255 C253 1.350 1_556 S
C255 N254 1.373 . S
C255 H269 0.931 . S
C256 O259 1.256 . S
C256 O260 1.255 . S
O257 Co240 2.021 . S
O257 C250 1.259 . S
O258 Co242 2.117 . S
O258 C250 1.258 . S
O259 Co242 2.020 . S
O259 C256 1.256 . S
O260 Co240 2.062 . S
O260 C256 1.255 . S
O261 C241 1.259 . S
O261 Co242 2.021 . S
H262 C253 0.930 . S
H263 C252 0.931 . S
O264 Co240 2.117 . S
O264 C241 1.258 . S
O265 Co240 2.020 . S
O265 C267 1.256 . S
O266 Co242 2.062 . S
O266 C267 1.255 . S
C267 O265 1.256 . S
C267 O266 1.255 . S
H268 C247 0.931 . S
H269 C255 0.931 . S
Co270 N275 2.057 . S
Co270 O287 2.021 . S
Co270 O290 2.062 . S
Co270 O294 2.117 . S
Co270 O295 2.020 . S
C271 O291 1.259 . S
C271 O294 1.258 . S
Co272 N281 2.057 . S
Co272 O288 2.117 . S
Co272 O289 2.020 . S
Co272 O291 2.021 . S
Co272 O296 2.062 . S
C273 N275 1.316 . S
C273 N276 1.347 . S
C273 H278 0.931 . S
C274 N275 1.375 . S
C274 C277 1.350 . S
C274 H279 0.930 . S
N275 Co270 2.057 . S
N275 C273 1.316 . S
N275 C274 1.375 . S
N276 C273 1.347 . S
N276 C277 1.373 . S
C277 C274 1.350 . S
C277 N276 1.373 . S
C277 H298 0.931 . S
H278 C273 0.931 . S
H279 C274 0.930 . S
C280 O287 1.259 . S
C280 O288 1.258 . S
N281 Co272 2.057 . S
N281 C282 1.316 . S
N281 C283 1.375 . S
C282 N281 1.316 . S
C282 N284 1.347 . S
C282 H293 0.931 . S
C283 N281 1.375 . S
C283 C285 1.350 . S
C283 H292 0.930 . S
N284 C282 1.347 . S
N284 C285 1.373 . S
C285 C283 1.350 . S
C285 N284 1.373 . S
C285 H299 0.931 . S
C286 O289 1.256 . S
C286 O290 1.255 . S
O287 Co270 2.021 . S
O287 C280 1.259 . S
O288 Co272 2.117 . S
O288 C280 1.258 . S
O289 Co272 2.020 . S
O289 C286 1.256 . S
O290 Co270 2.062 . S
O290 C286 1.255 . S
O291 C271 1.259 . S
O291 Co272 2.021 . S
H292 C283 0.930 . S
H293 C282 0.931 . S
O294 Co270 2.117 . S
O294 C271 1.258 . S
O295 Co270 2.020 . S
O295 C297 1.256 . S
O296 Co272 2.062 . S
O296 C297 1.255 . S
C297 O295 1.256 . S
C297 O296 1.255 . S
H298 C277 0.931 . S
H299 C285 0.931 . S
Co300 N305 2.057 . S
Co300 O317 2.021 . S
Co300 O320 2.062 . S
Co300 O324 2.117 . S
Co300 O325 2.020 . S
C301 O321 1.259 . S
C301 O324 1.258 . S
Co302 N311 2.057 . S
Co302 O318 2.117 . S
Co302 O319 2.020 . S
Co302 O321 2.021 . S
Co302 O326 2.062 . S
C303 N305 1.316 . S
C303 N306 1.347 . S
C303 H308 0.931 . S
C304 N305 1.375 . S
C304 C307 1.350 . S
C304 H309 0.930 . S
N305 Co300 2.057 . S
N305 C303 1.316 . S
N305 C304 1.375 . S
N306 C303 1.347 . S
N306 C307 1.373 . S
C307 C304 1.350 . S
C307 N306 1.373 . S
C307 H328 0.931 . S
H308 C303 0.931 . S
H309 C304 0.930 . S
C310 O317 1.259 . S
C310 O318 1.258 . S
N311 Co302 2.057 . S
N311 C312 1.316 . S
N311 C313 1.375 . S
C312 N311 1.316 . S
C312 N314 1.347 . S
C312 H323 0.931 . S
C313 N311 1.375 . S
C313 C315 1.350 . S
C313 H322 0.930 . S
N314 C312 1.347 . S
N314 C315 1.373 . S
C315 C313 1.350 . S
C315 N314 1.373 . S
C315 H329 0.931 . S
C316 O319 1.256 . S
C316 O320 1.255 . S
O317 Co300 2.021 . S
O317 C310 1.259 . S
O318 Co302 2.117 . S
O318 C310 1.258 . S
O319 Co302 2.020 . S
O319 C316 1.256 . S
O320 Co300 2.062 . S
O320 C316 1.255 . S
O321 C301 1.259 . S
O321 Co302 2.021 . S
H322 C313 0.930 . S
H323 C312 0.931 . S
O324 Co300 2.117 . S
O324 C301 1.258 . S
O325 Co300 2.020 . S
O325 C327 1.256 . S
O326 Co302 2.062 . S
O326 C327 1.255 . S
C327 O325 1.256 . S
C327 O326 1.255 . S
H328 C307 0.931 . S
H329 C315 0.931 . S
Co330 N335 2.057 . S
Co330 O347 2.021 . S
Co330 O350 2.062 . S
Co330 O354 2.117 . S
Co330 O355 2.020 . S
C331 O351 1.259 . S
C331 O354 1.258 . S
Co332 N341 2.057 . S
Co332 O348 2.117 . S
Co332 O349 2.020 . S
Co332 O351 2.021 . S
Co332 O356 2.062 . S
C333 N335 1.316 1_556 S
C333 N336 1.347 . S
C333 H338 0.931 . S
C334 N335 1.375 . S
C334 C337 1.350 1_554 S
C334 H339 0.930 . S
N335 Co330 2.057 . S
N335 C333 1.316 1_554 S
N335 C334 1.375 . S
N336 C333 1.347 . S
N336 C337 1.373 . S
C337 C334 1.350 1_556 S
C337 N336 1.373 . S
C337 H358 0.931 . S
H338 C333 0.931 . S
H339 C334 0.930 . S
C340 O347 1.259 . S
C340 O348 1.258 . S
N341 Co332 2.057 . S
N341 C342 1.316 . S
N341 C343 1.375 . S
C342 N341 1.316 . S
C342 N344 1.347 . S
C342 H353 0.931 . S
C343 N341 1.375 . S
C343 C345 1.350 . S
C343 H352 0.930 . S
N344 C342 1.347 . S
N344 C345 1.373 . S
C345 C343 1.350 . S
C345 N344 1.373 . S
C345 H359 0.931 . S
C346 O349 1.256 . S
C346 O350 1.255 . S
O347 Co330 2.021 . S
O347 C340 1.259 . S
O348 Co332 2.117 . S
O348 C340 1.258 . S
O349 Co332 2.020 . S
O349 C346 1.256 . S
O350 Co330 2.062 . S
O350 C346 1.255 . S
O351 C331 1.259 . S
O351 Co332 2.021 . S
H352 C343 0.930 . S
H353 C342 0.931 . S
O354 Co330 2.117 . S
O354 C331 1.258 . S
O355 Co330 2.020 . S
O355 C357 1.256 . S
O356 Co332 2.062 . S
O356 C357 1.255 . S
C357 O355 1.256 . S
C357 O356 1.255 . S
H358 C337 0.931 . S
H359 C345 0.931 . S
C360 C361 1.349 . S
C360 C362 1.327 . S
C360 H385 0.950 . S
C361 C360 1.349 . S
C361 C377 1.349 . S
C362 C360 1.327 . S
C362 C381 1.429 . S
C362 H386 0.950 . S
C363 C380 1.574 . S
C363 C382 1.368 . S
C363 H387 0.949 . S
H364 C368 0.949 . S
C365 C366 1.349 . S
C365 C367 1.327 . S
C365 H388 0.950 . S
C366 C365 1.349 . S
C366 C378 1.349 . S
C367 C365 1.327 . S
C367 C383 1.429 . S
C367 H389 0.950 . S
C368 H364 0.949 . S
C368 C376 1.574 . S
C368 C384 1.368 . S
H369 C377 0.950 . S
H370 C375 0.950 . S
H371 C376 0.949 . S
H372 C378 0.950 . S
H373 C379 0.950 . S
H374 C380 0.949 . S
C375 H370 0.950 . S
C375 C377 1.327 . S
C375 C381 1.429 . S
C376 C368 1.574 . S
C376 H371 0.949 . S
C376 C382 1.368 . S
C377 C361 1.349 . S
C377 H369 0.950 . S
C377 C375 1.327 . S
C378 C366 1.349 . S
C378 H372 0.950 . S
C378 C379 1.327 . S
C379 H373 0.950 . S
C379 C378 1.327 . S
C379 C383 1.429 . S
C380 C363 1.574 . S
C380 H374 0.949 . S
C380 C384 1.368 . S
C381 C362 1.429 . S
C381 C375 1.429 . S
C381 C382 1.523 . S
C382 C363 1.368 . S
C382 C376 1.368 . S
C382 C381 1.523 . S
C383 C367 1.429 . S
C383 C379 1.429 . S
C383 C384 1.523 . S
C384 C368 1.368 . S
C384 C380 1.368 . S
C384 C383 1.523 . S
H385 C360 0.950 . S
H386 C362 0.950 . S
H387 C363 0.949 . S
H388 C365 0.950 . S
H389 C367 0.950 . S
C390 C391 1.349 . S
C390 C392 1.327 . S
C390 H415 0.950 . S
C391 C390 1.349 . S
C391 C407 1.349 . S
C392 C390 1.327 . S
C392 C411 1.429 . S
C392 H416 0.950 . S
C393 C410 1.574 . S
C393 C412 1.368 . S
C393 H417 0.949 . S
H394 C398 0.949 . S
C395 C396 1.349 . S
C395 C397 1.327 . S
C395 H418 0.950 . S
C396 C395 1.349 . S
C396 C408 1.349 . S
C397 C395 1.327 . S
C397 C413 1.429 . S
C397 H419 0.950 . S
C398 H394 0.949 . S
C398 C406 1.574 . S
C398 C414 1.368 . S
H399 C407 0.950 . S
H400 C405 0.950 . S
H401 C406 0.949 . S
H402 C408 0.950 . S
H403 C409 0.950 . S
H404 C410 0.949 . S
C405 H400 0.950 . S
C405 C407 1.327 . S
C405 C411 1.429 . S
C406 C398 1.574 . S
C406 H401 0.949 . S
C406 C412 1.368 . S
C407 C391 1.349 . S
C407 H399 0.950 . S
C407 C405 1.327 . S
C408 C396 1.349 . S
C408 H402 0.950 . S
C408 C409 1.327 . S
C409 H403 0.950 . S
C409 C408 1.327 . S
C409 C413 1.429 . S
C410 C393 1.574 . S
C410 H404 0.949 . S
C410 C414 1.368 . S
C411 C392 1.429 . S
C411 C405 1.429 . S
C411 C412 1.523 . S
C412 C393 1.368 . S
C412 C406 1.368 . S
C412 C411 1.523 . S
C413 C397 1.429 . S
C413 C409 1.429 . S
C413 C414 1.523 . S
C414 C398 1.368 . S
C414 C410 1.368 . S
C414 C413 1.523 . S
H415 C390 0.950 . S
H416 C392 0.950 . S
H417 C393 0.949 . S
H418 C395 0.950 . S
H419 C397 0.950 . S
C420 C421 1.349 . S
C420 C422 1.327 . S
C420 H445 0.950 . S
C421 C420 1.349 . S
C421 C437 1.349 . S
C422 C420 1.327 . S
C422 C441 1.429 . S
C422 H446 0.950 . S
C423 C440 1.574 . S
C423 C442 1.368 . S
C423 H447 0.949 . S
H424 C428 0.949 . S
C425 C426 1.349 . S
C425 C427 1.327 . S
C425 H448 0.950 . S
C426 C425 1.349 . S
C426 C438 1.349 . S
C427 C425 1.327 . S
C427 C443 1.429 . S
C427 H449 0.950 . S
C428 H424 0.949 . S
C428 C436 1.574 . S
C428 C444 1.368 . S
H429 C437 0.950 . S
H430 C435 0.950 . S
H431 C436 0.949 . S
H432 C438 0.950 . S
H433 C439 0.950 . S
H434 C440 0.949 . S
C435 H430 0.950 . S
C435 C437 1.327 . S
C435 C441 1.429 . S
C436 C428 1.574 . S
C436 H431 0.949 . S
C436 C442 1.368 . S
C437 C421 1.349 . S
C437 H429 0.950 . S
C437 C435 1.327 . S
C438 C426 1.349 . S
C438 H432 0.950 . S
C438 C439 1.327 . S
C439 H433 0.950 . S
C439 C438 1.327 . S
C439 C443 1.429 . S
C440 C423 1.574 . S
C440 H434 0.949 . S
C440 C444 1.368 . S
C441 C422 1.429 . S
C441 C435 1.429 . S
C441 C442 1.523 . S
C442 C423 1.368 . S
C442 C436 1.368 . S
C442 C441 1.523 . S
C443 C427 1.429 . S
C443 C439 1.429 . S
C443 C444 1.523 . S
C444 C428 1.368 . S
C444 C440 1.368 . S
C444 C443 1.523 . S
H445 C420 0.950 . S
H446 C422 0.950 . S
H447 C423 0.949 . S
H448 C425 0.950 . S
H449 C427 0.950 . S
C450 C451 1.349 . S
C450 C452 1.327 . S
C450 H475 0.950 . S
C451 C450 1.349 . S
C451 C467 1.349 . S
C452 C450 1.327 . S
C452 C471 1.429 . S
C452 H476 0.950 . S
C453 C470 1.574 . S
C453 C472 1.368 . S
C453 H477 0.949 . S
H454 C458 0.949 . S
C455 C456 1.349 . S
C455 C457 1.327 . S
C455 H478 0.950 . S
C456 C455 1.349 . S
C456 C468 1.349 . S
C457 C455 1.327 . S
C457 C473 1.429 . S
C457 H479 0.950 . S
C458 H454 0.949 . S
C458 C466 1.574 . S
C458 C474 1.368 . S
H459 C467 0.950 . S
H460 C465 0.950 . S
H461 C466 0.949 . S
H462 C468 0.950 . S
H463 C469 0.950 . S
H464 C470 0.949 . S
C465 H460 0.950 . S
C465 C467 1.327 . S
C465 C471 1.429 . S
C466 C458 1.574 . S
C466 H461 0.949 . S
C466 C472 1.368 . S
C467 C451 1.349 . S
C467 H459 0.950 . S
C467 C465 1.327 . S
C468 C456 1.349 . S
C468 H462 0.950 . S
C468 C469 1.327 . S
C469 H463 0.950 . S
C469 C468 1.327 . S
C469 C473 1.429 . S
C470 C453 1.574 . S
C470 H464 0.949 . S
C470 C474 1.368 . S
C471 C452 1.429 . S
C471 C465 1.429 . S
C471 C472 1.523 . S
C472 C453 1.368 . S
C472 C466 1.368 . S
C472 C471 1.523 . S
C473 C457 1.429 . S
C473 C469 1.429 . S
C473 C474 1.523 . S
C474 C458 1.368 . S
C474 C470 1.368 . S
C474 C473 1.523 . S
H475 C450 0.950 . S
H476 C452 0.950 . S
H477 C453 0.949 . S
H478 C455 0.950 . S
H479 C457 0.950 . S
C480 C481 1.349 . S
C480 C482 1.327 . S
C480 H505 0.950 . S
C481 C480 1.349 . S
C481 C497 1.349 . S
C482 C480 1.327 . S
C482 C501 1.429 . S
C482 H506 0.950 . S
C483 C500 1.574 . S
C483 C502 1.368 . S
C483 H507 0.949 . S
H484 C488 0.949 . S
C485 C486 1.349 . S
C485 C487 1.327 . S
C485 H508 0.950 . S
C486 C485 1.349 . S
C486 C498 1.349 . S
C487 C485 1.327 . S
C487 C503 1.429 . S
C487 H509 0.950 . S
C488 H484 0.949 . S
C488 C496 1.574 . S
C488 C504 1.368 . S
H489 C497 0.950 . S
H490 C495 0.950 . S
H491 C496 0.949 . S
H492 C498 0.950 . S
H493 C499 0.950 . S
H494 C500 0.949 . S
C495 H490 0.950 . S
C495 C497 1.327 . S
C495 C501 1.429 . S
C496 C488 1.574 . S
C496 H491 0.949 . S
C496 C502 1.368 . S
C497 C481 1.349 . S
C497 H489 0.950 . S
C497 C495 1.327 . S
C498 C486 1.349 . S
C498 H492 0.950 . S
C498 C499 1.327 . S
C499 H493 0.950 . S
C499 C498 1.327 . S
C499 C503 1.429 . S
C500 C483 1.574 . S
C500 H494 0.949 . S
C500 C504 1.368 . S
C501 C482 1.429 . S
C501 C495 1.429 . S
C501 C502 1.523 . S
C502 C483 1.368 . S
C502 C496 1.368 . S
C502 C501 1.523 . S
C503 C487 1.429 . S
C503 C499 1.429 . S
C503 C504 1.523 . S
C504 C488 1.368 . S
C504 C500 1.368 . S
C504 C503 1.523 . S
H505 C480 0.950 . S
H506 C482 0.950 . S
H507 C483 0.949 . S
H508 C485 0.950 . S
H509 C487 0.950 . S
C510 C511 1.349 . S
C510 C512 1.327 . S
C510 H535 0.950 . S
C511 C510 1.349 . S
C511 C527 1.349 . S
C512 C510 1.327 . S
C512 C531 1.429 . S
C512 H536 0.950 . S
C513 C530 1.574 . S
C513 C532 1.368 . S
C513 H537 0.949 . S
H514 C518 0.949 . S
C515 C516 1.349 . S
C515 C517 1.327 . S
C515 H538 0.950 . S
C516 C515 1.349 . S
C516 C528 1.349 . S
C517 C515 1.327 . S
C517 C533 1.429 . S
C517 H539 0.950 . S
C518 H514 0.949 . S
C518 C526 1.574 . S
C518 C534 1.368 . S
H519 C527 0.950 . S
H520 C525 0.950 . S
H521 C526 0.949 . S
H522 C528 0.950 . S
H523 C529 0.950 . S
H524 C530 0.949 . S
C525 H520 0.950 . S
C525 C527 1.327 . S
C525 C531 1.429 . S
C526 C518 1.574 . S
C526 H521 0.949 . S
C526 C532 1.368 . S
C527 C511 1.349 . S
C527 H519 0.950 . S
C527 C525 1.327 . S
C528 C516 1.349 . S
C528 H522 0.950 . S
C528 C529 1.327 . S
C529 H523 0.950 . S
C529 C528 1.327 . S
C529 C533 1.429 . S
C530 C513 1.574 . S
C530 H524 0.949 . S
C530 C534 1.368 . S
C531 C512 1.429 . S
C531 C525 1.429 . S
C531 C532 1.523 . S
C532 C513 1.368 . S
C532 C526 1.368 . S
C532 C531 1.523 . S
C533 C517 1.429 . S
C533 C529 1.429 . S
C533 C534 1.523 . S
C534 C518 1.368 . S
C534 C530 1.368 . S
C534 C533 1.523 . S
H535 C510 0.950 . S
H536 C512 0.950 . S
H537 C513 0.949 . S
H538 C515 0.950 . S
H539 C517 0.950 . S
C540 C541 1.349 . S
C540 C542 1.327 . S
C540 H565 0.950 . S
C541 C540 1.349 . S
C541 C557 1.349 . S
C542 C540 1.327 . S
C542 C561 1.429 . S
C542 H566 0.950 . S
C543 C560 1.574 1_556 S
C543 C562 1.368 . S
C543 H567 0.949 . S
H544 C548 0.949 . S
C545 C546 1.349 . S
C545 C547 1.327 . S
C545 H568 0.950 . S
C546 C545 1.349 . S
C546 C558 1.349 . S
C547 C545 1.327 . S
C547 C563 1.429 . S
C547 H569 0.950 . S
C548 H544 0.949 . S
C548 C556 1.574 . S
C548 C564 1.368 1_556 S
H549 C557 0.950 . S
H550 C555 0.950 . S
H551 C556 0.949 . S
H552 C558 0.950 . S
H553 C559 0.950 . S
H554 C560 0.949 . S
C555 H550 0.950 . S
C555 C557 1.327 . S
C555 C561 1.429 . S
C556 C548 1.574 . S
C556 H551 0.949 . S
C556 C562 1.368 . S
C557 C541 1.349 . S
C557 H549 0.950 . S
C557 C555 1.327 . S
C558 C546 1.349 . S
C558 H552 0.950 . S
C558 C559 1.327 . S
C559 H553 0.950 . S
C559 C558 1.327 . S
C559 C563 1.429 . S
C560 C543 1.574 1_554 S
C560 H554 0.949 . S
C560 C564 1.368 . S
C561 C542 1.429 . S
C561 C555 1.429 . S
C561 C562 1.523 . S
C562 C543 1.368 . S
C562 C556 1.368 . S
C562 C561 1.523 . S
C563 C547 1.429 . S
C563 C559 1.429 . S
C563 C564 1.523 . S
C564 C548 1.368 1_554 S
C564 C560 1.368 . S
C564 C563 1.523 . S
H565 C540 0.950 . S
H566 C542 0.950 . S
H567 C543 0.949 . S
H568 C545 0.950 . S
H569 C547 0.950 . S
C570 C571 1.349 . S
C570 C572 1.327 . S
C570 H595 0.950 . S
C571 C570 1.349 . S
C571 C587 1.349 . S
C572 C570 1.327 . S
C572 C591 1.429 . S
C572 H596 0.950 . S
C573 C590 1.574 . S
C573 C592 1.368 . S
C573 H597 0.949 . S
H574 C578 0.949 . S
C575 C576 1.349 . S
C575 C577 1.327 . S
C575 H598 0.950 . S
C576 C575 1.349 . S
C576 C588 1.349 . S
C577 C575 1.327 . S
C577 C593 1.429 . S
C577 H599 0.950 . S
C578 H574 0.949 . S
C578 C586 1.574 . S
C578 C594 1.368 . S
H579 C587 0.950 . S
H580 C585 0.950 . S
H581 C586 0.949 . S
H582 C588 0.950 . S
H583 C589 0.950 . S
H584 C590 0.949 . S
C585 H580 0.950 . S
C585 C587 1.327 . S
C585 C591 1.429 . S
C586 C578 1.574 . S
C586 H581 0.949 . S
C586 C592 1.368 . S
C587 C571 1.349 . S
C587 H579 0.950 . S
C587 C585 1.327 . S
C588 C576 1.349 . S
C588 H582 0.950 . S
C588 C589 1.327 . S
C589 H583 0.950 . S
C589 C588 1.327 . S
C589 C593 1.429 . S
C590 C573 1.574 . S
C590 H584 0.949 . S
C590 C594 1.368 . S
C591 C572 1.429 . S
C591 C585 1.429 . S
C591 C592 1.523 . S
C592 C573 1.368 . S
C592 C586 1.368 . S
C592 C591 1.523 . S
C593 C577 1.429 . S
C593 C589 1.429 . S
C593 C594 1.523 . S
C594 C578 1.368 . S
C594 C590 1.368 . S
C594 C593 1.523 . S
H595 C570 0.950 . S
H596 C572 0.950 . S
H597 C573 0.949 . S
H598 C575 0.950 . S
H599 C577 0.950 . S
C600 C601 1.349 . S
C600 C602 1.327 . S
C600 H625 0.950 . S
C601 C600 1.349 . S
C601 C617 1.349 . S
C602 C600 1.327 . S
C602 C621 1.429 . S
C602 H626 0.950 . S
C603 C620 1.574 . S
C603 C622 1.368 . S
C603 H627 0.949 . S
H604 C608 0.949 . S
C605 C606 1.349 . S
C605 C607 1.327 . S
C605 H628 0.950 . S
C606 C605 1.349 . S
C606 C618 1.349 . S
C607 C605 1.327 . S
C607 C623 1.429 . S
C607 H629 0.950 . S
C608 H604 0.949 . S
C608 C616 1.574 . S
C608 C624 1.368 . S
H609 C617 0.950 . S
H610 C615 0.950 . S
H611 C616 0.949 . S
H612 C618 0.950 . S
H613 C619 0.950 . S
H614 C620 0.949 . S
C615 H610 0.950 . S
C615 C617 1.327 . S
C615 C621 1.429 . S
C616 C608 1.574 . S
C616 H611 0.949 . S
C616 C622 1.368 . S
C617 C601 1.349 . S
C617 H609 0.950 . S
C617 C615 1.327 . S
C618 C606 1.349 . S
C618 H612 0.950 . S
C618 C619 1.327 . S
C619 H613 0.950 . S
C619 C618 1.327 . S
C619 C623 1.429 . S
C620 C603 1.574 . S
C620 H614 0.949 . S
C620 C624 1.368 . S
C621 C602 1.429 . S
C621 C615 1.429 . S
C621 C622 1.523 . S
C622 C603 1.368 . S
C622 C616 1.368 . S
C622 C621 1.523 . S
C623 C607 1.429 . S
C623 C619 1.429 . S
C623 C624 1.523 . S
C624 C608 1.368 . S
C624 C620 1.368 . S
C624 C623 1.523 . S
H625 C600 0.950 . S
H626 C602 0.950 . S
H627 C603 0.949 . S
H628 C605 0.950 . S
H629 C607 0.950 . S
C630 C631 1.349 . S
C630 C632 1.327 . S
C630 H655 0.950 . S
C631 C630 1.349 . S
C631 C647 1.349 . S
C632 C630 1.327 . S
C632 C651 1.429 . S
C632 H656 0.950 . S
C633 C650 1.574 . S
C633 C652 1.368 . S
C633 H657 0.949 . S
H634 C638 0.949 . S
C635 C636 1.349 . S
C635 C637 1.327 . S
C635 H658 0.950 . S
C636 C635 1.349 . S
C636 C648 1.349 . S
C637 C635 1.327 . S
C637 C653 1.429 . S
C637 H659 0.950 . S
C638 H634 0.949 . S
C638 C646 1.574 . S
C638 C654 1.368 . S
H639 C647 0.950 . S
H640 C645 0.950 . S
H641 C646 0.949 1_556 S
H642 C648 0.950 . S
H643 C649 0.950 . S
H644 C650 0.949 . S
C645 H640 0.950 . S
C645 C647 1.327 . S
C645 C651 1.429 . S
C646 C638 1.574 . S
C646 H641 0.949 1_554 S
C646 C652 1.368 . S
C647 C631 1.349 . S
C647 H639 0.950 . S
C647 C645 1.327 . S
C648 C636 1.349 . S
C648 H642 0.950 . S
C648 C649 1.327 . S
C649 H643 0.950 . S
C649 C648 1.327 . S
C649 C653 1.429 . S
C650 C633 1.574 . S
C650 H644 0.949 . S
C650 C654 1.368 . S
C651 C632 1.429 . S
C651 C645 1.429 . S
C651 C652 1.523 1_556 S
C652 C633 1.368 . S
C652 C646 1.368 . S
C652 C651 1.523 1_554 S
C653 C637 1.429 . S
C653 C649 1.429 . S
C653 C654 1.523 . S
C654 C638 1.368 . S
C654 C650 1.368 . S
C654 C653 1.523 . S
H655 C630 0.950 . S
H656 C632 0.950 . S
H657 C633 0.949 . S
H658 C635 0.950 . S
H659 C637 0.950 . S
C660 C661 1.349 . S
C660 C662 1.327 . S
C660 H685 0.950 . S
C661 C660 1.349 . S
C661 C677 1.349 . S
C662 C660 1.327 . S
C662 C681 1.429 . S
C662 H686 0.950 . S
C663 C680 1.574 . S
C663 C682 1.368 . S
C663 H687 0.949 . S
H664 C668 0.949 . S
C665 C666 1.349 . S
C665 C667 1.327 . S
C665 H688 0.950 . S
C666 C665 1.349 . S
C666 C678 1.349 . S
C667 C665 1.327 . S
C667 C683 1.429 . S
C667 H689 0.950 . S
C668 H664 0.949 . S
C668 C676 1.574 . S
C668 C684 1.368 . S
H669 C677 0.950 . S
H670 C675 0.950 . S
H671 C676 0.949 . S
H672 C678 0.950 . S
H673 C679 0.950 . S
H674 C680 0.949 . S
C675 H670 0.950 . S
C675 C677 1.327 . S
C675 C681 1.429 . S
C676 C668 1.574 . S
C676 H671 0.949 . S
C676 C682 1.368 . S
C677 C661 1.349 . S
C677 H669 0.950 . S
C677 C675 1.327 . S
C678 C666 1.349 . S
C678 H672 0.950 . S
C678 C679 1.327 . S
C679 H673 0.950 . S
C679 C678 1.327 . S
C679 C683 1.429 . S
C680 C663 1.574 . S
C680 H674 0.949 . S
C680 C684 1.368 . S
C681 C662 1.429 . S
C681 C675 1.429 . S
C681 C682 1.523 . S
C682 C663 1.368 . S
C682 C676 1.368 . S
C682 C681 1.523 . S
C683 C667 1.429 . S
C683 C679 1.429 . S
C683 C684 1.523 . S
C684 C668 1.368 . S
C684 C680 1.368 . S
C684 C683 1.523 . S
H685 C660 0.950 . S
H686 C662 0.950 . S
H687 C663 0.949 . S
H688 C665 0.950 . S
H689 C667 0.950 . S
C690 C691 1.349 . S
C690 C692 1.327 . S
C690 H715 0.950 . S
C691 C690 1.349 . S
C691 C707 1.349 . S
C692 C690 1.327 . S
C692 C711 1.429 . S
C692 H716 0.950 . S
C693 C710 1.574 . S
C693 C712 1.368 . S
C693 H717 0.949 . S
H694 C698 0.949 . S
C695 C696 1.349 . S
C695 C697 1.327 . S
C695 H718 0.950 . S
C696 C695 1.349 . S
C696 C708 1.349 . S
C697 C695 1.327 . S
C697 C713 1.429 . S
C697 H719 0.950 . S
C698 H694 0.949 . S
C698 C706 1.574 . S
C698 C714 1.368 . S
H699 C707 0.950 . S
H700 C705 0.950 . S
H701 C706 0.949 . S
H702 C708 0.950 . S
H703 C709 0.950 . S
H704 C710 0.949 . S
C705 H700 0.950 . S
C705 C707 1.327 . S
C705 C711 1.429 . S
C706 C698 1.574 . S
C706 H701 0.949 . S
C706 C712 1.368 . S
C707 C691 1.349 . S
C707 H699 0.950 . S
C707 C705 1.327 . S
C708 C696 1.349 . S
C708 H702 0.950 . S
C708 C709 1.327 . S
C709 H703 0.950 . S
C709 C708 1.327 . S
C709 C713 1.429 . S
C710 C693 1.574 . S
C710 H704 0.949 . S
C710 C714 1.368 . S
C711 C692 1.429 . S
C711 C705 1.429 . S
C711 C712 1.523 . S
C712 C693 1.368 . S
C712 C706 1.368 . S
C712 C711 1.523 . S
C713 C697 1.429 . S
C713 C709 1.429 . S
C713 C714 1.523 . S
C714 C698 1.368 . S
C714 C710 1.368 . S
C714 C713 1.523 . S
H715 C690 0.950 . S
H716 C692 0.950 . S
H717 C693 0.949 . S
H718 C695 0.950 . S
H719 C697 0.950 . S
C720 C721 1.349 . S
C720 C722 1.327 . S
C720 H745 0.950 . S
C721 C720 1.349 . S
C721 C737 1.349 . S
C722 C720 1.327 . S
C722 C741 1.429 . S
C722 H746 0.950 . S
C723 C740 1.574 . S
C723 C742 1.368 . S
C723 H747 0.949 . S
H724 C728 0.949 . S
C725 C726 1.349 . S
C725 C727 1.327 . S
C725 H748 0.950 . S
C726 C725 1.349 . S
C726 C738 1.349 . S
C727 C725 1.327 . S
C727 C743 1.429 . S
C727 H749 0.950 . S
C728 H724 0.949 . S
C728 C736 1.574 1_545 S
C728 C744 1.370 . S
H729 C737 0.950 . S
H730 C735 0.950 . S
H731 C736 0.949 . S
H732 C738 0.950 . S
H733 C739 0.950 1_556 S
H734 C740 0.949 1_554 S
C735 H730 0.950 . S
C735 C737 1.327 . S
C735 C741 1.429 . S
C736 C728 1.574 1_565 S
C736 H731 0.949 . S
C736 C742 1.368 . S
C737 C721 1.349 . S
C737 H729 0.950 . S
C737 C735 1.327 . S
C738 C726 1.349 . S
C738 H732 0.950 . S
C738 C739 1.327 . S
C739 H733 0.950 1_554 S
C739 C738 1.327 . S
C739 C743 1.429 . S
C740 C723 1.574 . S
C740 H734 0.949 1_556 S
C740 C744 1.366 1_565 S
C741 C722 1.429 . S
C741 C735 1.429 . S
C741 C742 1.523 . S
C742 C723 1.368 . S
C742 C736 1.368 . S
C742 C741 1.523 . S
C743 C727 1.429 . S
C743 C739 1.429 . S
C743 C744 1.524 1_554 S
C744 C728 1.370 . S
C744 C740 1.366 1_545 S
C744 C743 1.524 1_556 S
H745 C720 0.950 . S
H746 C722 0.950 . S
H747 C723 0.949 . S
H748 C725 0.950 . S
H749 C727 0.950 . S
C750 C751 1.349 . S
C750 C752 1.327 . S
C750 H775 0.950 . S
C751 C750 1.349 . S
C751 C767 1.349 . S
C752 C750 1.327 . S
C752 C771 1.429 . S
C752 H776 0.950 . S
C753 C770 1.574 . S
C753 C772 1.368 . S
C753 H777 0.949 . S
H754 C758 0.949 . S
C755 C756 1.349 . S
C755 C757 1.327 . S
C755 H778 0.950 . S
C756 C755 1.349 . S
C756 C768 1.349 . S
C757 C755 1.327 . S
C757 C773 1.429 . S
C757 H779 0.950 . S
C758 H754 0.949 . S
C758 C766 1.574 . S
C758 C774 1.368 . S
H759 C767 0.950 . S
H760 C765 0.950 . S
H761 C766 0.949 . S
H762 C768 0.950 . S
H763 C769 0.950 . S
H764 C770 0.949 . S
C765 H760 0.950 . S
C765 C767 1.327 . S
C765 C771 1.429 . S
C766 C758 1.574 . S
C766 H761 0.949 . S
C766 C772 1.368 . S
C767 C751 1.349 . S
C767 H759 0.950 . S
C767 C765 1.327 . S
C768 C756 1.349 . S
C768 H762 0.950 . S
C768 C769 1.327 . S
C769 H763 0.950 . S
C769 C768 1.327 . S
C769 C773 1.429 . S
C770 C753 1.574 . S
C770 H764 0.949 . S
C770 C774 1.368 . S
C771 C752 1.429 . S
C771 C765 1.429 . S
C771 C772 1.523 . S
C772 C753 1.368 . S
C772 C766 1.368 . S
C772 C771 1.523 . S
C773 C757 1.429 . S
C773 C769 1.429 . S
C773 C774 1.523 . S
C774 C758 1.368 . S
C774 C770 1.368 . S
C774 C773 1.523 . S
H775 C750 0.950 . S
H776 C752 0.950 . S
H777 C753 0.949 . S
H778 C755 0.950 . S
H779 C757 0.950 . S
C780 C781 1.349 . S
C780 C782 1.327 . S
C780 H805 0.950 . S
C781 C780 1.349 . S
C781 C797 1.349 . S
C782 C780 1.327 . S
C782 C801 1.429 . S
C782 H806 0.950 . S
C783 C800 1.574 . S
C783 C802 1.368 . S
C783 H807 0.949 . S
H784 C788 0.914 1_655 S
C785 C786 1.349 . S
C785 C787 1.327 . S
C785 H808 0.950 . S
C786 C785 1.349 . S
C786 C798 1.349 . S
C787 C785 1.327 . S
C787 C803 1.429 . S
C787 H809 0.950 . S
C788 H784 0.914 1_455 S
C788 C796 1.594 . S
C788 C804 1.390 1_455 S
H789 C797 0.950 . S
H790 C795 0.950 . S
H791 C796 0.949 . S
H792 C798 0.950 . S
H793 C799 0.950 . S
H794 C800 0.949 . S
C795 H790 0.950 . S
C795 C797 1.327 . S
C795 C801 1.429 . S
C796 C788 1.594 . S
C796 H791 0.949 . S
C796 C802 1.368 . S
C797 C781 1.349 . S
C797 H789 0.950 . S
C797 C795 1.327 . S
C798 C786 1.349 . S
C798 H792 0.950 . S
C798 C799 1.327 . S
C799 H793 0.950 . S
C799 C798 1.327 . S
C799 C803 1.429 . S
C800 C783 1.574 . S
C800 H794 0.949 . S
C800 C804 1.365 1_455 S
C801 C782 1.429 . S
C801 C795 1.429 . S
C801 C802 1.523 . S
C802 C783 1.368 . S
C802 C796 1.368 . S
C802 C801 1.523 . S
C803 C787 1.429 . S
C803 C799 1.429 . S
C803 C804 1.525 . S
C804 C788 1.390 1_655 S
C804 C800 1.365 1_655 S
C804 C803 1.525 . S
H805 C780 0.950 . S
H806 C782 0.950 . S
H807 C783 0.949 . S
H808 C785 0.950 . S
H809 C787 0.950 . S
C810 C811 1.349 . S
C810 C812 1.327 . S
C810 H835 0.950 . S
C811 C810 1.349 . S
C811 C827 1.349 . S
C812 C810 1.327 . S
C812 C831 1.429 . S
C812 H836 0.950 . S
C813 C830 1.574 1_564 S
C813 C832 1.368 . S
C813 H837 0.949 . S
H814 C818 0.949 . S
C815 C816 1.349 . S
C815 C817 1.327 . S
C815 H838 0.950 . S
C816 C815 1.349 . S
C816 C828 1.349 . S
C817 C815 1.327 . S
C817 C833 1.429 . S
C817 H839 0.950 . S
C818 H814 0.949 . S
C818 C826 1.574 1_546 S
C818 C834 1.368 . S
H819 C827 0.950 . S
H820 C825 0.950 . S
H821 C826 0.949 . S
H822 C828 0.950 . S
H823 C829 0.950 . S
H824 C830 0.949 . S
C825 H820 0.950 . S
C825 C827 1.327 . S
C825 C831 1.429 . S
C826 C818 1.574 1_564 S
C826 H821 0.949 . S
C826 C832 1.368 . S
C827 C811 1.349 . S
C827 H819 0.950 . S
C827 C825 1.327 . S
C828 C816 1.349 . S
C828 H822 0.950 . S
C828 C829 1.327 . S
C829 H823 0.950 . S
C829 C828 1.327 . S
C829 C833 1.429 . S
C830 C813 1.574 1_546 S
C830 H824 0.949 . S
C830 C834 1.368 . S
C831 C812 1.429 . S
C831 C825 1.429 . S
C831 C832 1.523 . S
C832 C813 1.368 . S
C832 C826 1.368 . S
C832 C831 1.523 . S
C833 C817 1.429 . S
C833 C829 1.429 . S
C833 C834 1.523 . S
C834 C818 1.368 . S
C834 C830 1.368 . S
C834 C833 1.523 . S
H835 C810 0.950 . S
H836 C812 0.950 . S
H837 C813 0.949 . S
H838 C815 0.950 . S
H839 C817 0.950 . S
C840 C841 1.349 . S
C840 C842 1.327 . S
C840 H865 0.950 . S
C841 C840 1.349 . S
C841 C857 1.349 . S
C842 C840 1.327 . S
C842 C861 1.429 . S
C842 H866 0.950 . S
C843 C860 1.574 . S
C843 C862 1.368 . S
C843 H867 0.949 . S
H844 C848 0.949 . S
C845 C846 1.349 . S
C845 C847 1.327 . S
C845 H868 0.950 . S
C846 C845 1.349 . S
C846 C858 1.349 . S
C847 C845 1.327 . S
C847 C863 1.429 . S
C847 H869 0.950 . S
C848 H844 0.949 . S
C848 C856 1.574 . S
C848 C864 1.368 . S
H849 C857 0.950 . S
H850 C855 0.950 . S
H851 C856 0.949 . S
H852 C858 0.950 . S
H853 C859 0.950 . S
H854 C860 0.949 . S
C855 H850 0.950 . S
C855 C857 1.327 . S
C855 C861 1.429 . S
C856 C848 1.574 . S
C856 H851 0.949 . S
C856 C862 1.368 . S
C857 C841 1.349 . S
C857 H849 0.950 . S
C857 C855 1.327 . S
C858 C846 1.349 . S
C858 H852 0.950 . S
C858 C859 1.327 . S
C859 H853 0.950 . S
C859 C858 1.327 . S
C859 C863 1.429 . S
C860 C843 1.574 . S
C860 H854 0.949 . S
C860 C864 1.368 . S
C861 C842 1.429 . S
C861 C855 1.429 . S
C861 C862 1.523 . S
C862 C843 1.368 . S
C862 C856 1.368 . S
C862 C861 1.523 . S
C863 C847 1.429 . S
C863 C859 1.429 . S
C863 C864 1.523 . S
C864 C848 1.368 . S
C864 C860 1.368 . S
C864 C863 1.523 . S
H865 C840 0.950 . S
H866 C842 0.950 . S
H867 C843 0.949 . S
H868 C845 0.950 . S
H869 C847 0.950 . S
C870 C871 1.349 . S
C870 C872 1.327 . S
C870 H895 0.950 . S
C871 C870 1.349 . S
C871 C887 1.349 . S
C872 C870 1.327 . S
C872 C891 1.429 . S
C872 H896 0.950 . S
C873 C890 1.574 . S
C873 C892 1.368 . S
C873 H897 0.949 . S
H874 C878 0.949 . S
C875 C876 1.349 . S
C875 C877 1.327 . S
C875 H898 0.950 . S
C876 C875 1.349 . S
C876 C888 1.349 . S
C877 C875 1.327 . S
C877 C893 1.429 . S
C877 H899 0.950 . S
C878 H874 0.949 . S
C878 C886 1.574 . S
C878 C894 1.368 . S
H879 C887 0.950 . S
H880 C885 0.950 . S
H881 C886 0.949 . S
H882 C888 0.950 . S
H883 C889 0.950 . S
H884 C890 0.949 . S
C885 H880 0.950 . S
C885 C887 1.327 . S
C885 C891 1.429 . S
C886 C878 1.574 . S
C886 H881 0.949 . S
C886 C892 1.368 1_655 S
C887 C871 1.349 . S
C887 H879 0.950 . S
C887 C885 1.327 . S
C888 C876 1.349 . S
C888 H882 0.950 . S
C888 C889 1.327 . S
C889 H883 0.950 . S
C889 C888 1.327 . S
C889 C893 1.429 . S
C890 C873 1.574 . S
C890 H884 0.949 . S
C890 C894 1.368 1_455 S
C891 C872 1.429 . S
C891 C885 1.429 . S
C891 C892 1.523 . S
C892 C873 1.368 . S
C892 C886 1.368 1_455 S
C892 C891 1.523 . S
C893 C877 1.429 . S
C893 C889 1.429 . S
C893 C894 1.523 . S
C894 C878 1.368 . S
C894 C890 1.368 1_655 S
C894 C893 1.523 . S
H895 C870 0.950 . S
H896 C872 0.950 . S
H897 C873 0.949 . S
H898 C875 0.950 . S
H899 C877 0.950 . S
C900 C901 1.349 . S
C900 C902 1.327 . S
C900 H925 0.950 . S
C901 C900 1.349 . S
C901 C917 1.349 . S
C902 C900 1.327 . S
C902 C921 1.429 . S
C902 H926 0.950 . S
C903 C920 1.574 . S
C903 C922 1.368 . S
C903 H927 0.949 . S
H904 C908 0.949 . S
C905 C906 1.349 . S
C905 C907 1.327 . S
C905 H928 0.950 . S
C906 C905 1.349 . S
C906 C918 1.349 . S
C907 C905 1.327 . S
C907 C923 1.429 . S
C907 H929 0.950 . S
C908 H904 0.949 . S
C908 C916 1.574 . S
C908 C924 1.368 . S
H909 C917 0.950 . S
H910 C915 0.950 . S
H911 C916 0.949 . S
H912 C918 0.950 . S
H913 C919 0.950 . S
H914 C920 0.949 . S
C915 H910 0.950 . S
C915 C917 1.327 . S
C915 C921 1.429 . S
C916 C908 1.574 . S
C916 H911 0.949 . S
C916 C922 1.368 1_565 S
C917 C901 1.349 . S
C917 H909 0.950 . S
C917 C915 1.327 . S
C918 C906 1.349 . S
C918 H912 0.950 . S
C918 C919 1.327 . S
C919 H913 0.950 . S
C919 C918 1.327 . S
C919 C923 1.429 . S
C920 C903 1.574 . S
C920 H914 0.949 . S
C920 C924 1.368 1_545 S
C921 C902 1.429 . S
C921 C915 1.429 . S
C921 C922 1.523 . S
C922 C903 1.368 . S
C922 C916 1.368 1_545 S
C922 C921 1.523 . S
C923 C907 1.429 . S
C923 C919 1.429 . S
C923 C924 1.523 . S
C924 C908 1.368 . S
C924 C920 1.368 1_565 S
C924 C923 1.523 . S
H925 C900 0.950 . S
H926 C902 0.950 . S
H927 C903 0.949 . S
H928 C905 0.950 . S
H929 C907 0.950 . S
C930 C931 1.349 . S
C930 C932 1.327 . S
C930 H955 0.950 . S
C931 C930 1.349 . S
C931 C947 1.349 . S
C932 C930 1.327 . S
C932 C951 1.429 . S
C932 H956 0.950 . S
C933 C950 1.574 . S
C933 C952 1.368 . S
C933 H957 0.949 . S
H934 C938 0.949 . S
C935 C936 1.349 . S
C935 C937 1.327 . S
C935 H958 0.950 . S
C936 C935 1.349 . S
C936 C948 1.349 . S
C937 C935 1.327 . S
C937 C953 1.429 . S
C937 H959 0.950 . S
C938 H934 0.949 . S
C938 C946 1.574 . S
C938 C954 1.368 . S
H939 C947 0.950 . S
H940 C945 0.950 . S
H941 C946 0.949 . S
H942 C948 0.950 . S
H943 C949 0.950 . S
H944 C950 0.949 . S
C945 H940 0.950 . S
C945 C947 1.327 . S
C945 C951 1.429 . S
C946 C938 1.574 . S
C946 H941 0.949 . S
C946 C952 1.368 . S
C947 C931 1.349 . S
C947 H939 0.950 . S
C947 C945 1.327 . S
C948 C936 1.349 . S
C948 H942 0.950 . S
C948 C949 1.327 . S
C949 H943 0.950 . S
C949 C948 1.327 . S
C949 C953 1.429 . S
C950 C933 1.574 . S
C950 H944 0.949 . S
C950 C954 1.368 . S
C951 C932 1.429 . S
C951 C945 1.429 . S
C951 C952 1.523 . S
C952 C933 1.368 . S
C952 C946 1.368 . S
C952 C951 1.523 . S
C953 C937 1.429 . S
C953 C949 1.429 . S
C953 C954 1.523 . S
C954 C938 1.368 . S
C954 C950 1.368 . S
C954 C953 1.523 . S
H955 C930 0.950 . S
H956 C932 0.950 . S
H957 C933 0.949 . S
H958 C935 0.950 . S
H959 C937 0.950 . S
C960 C961 1.349 . S
C960 C962 1.327 . S
C960 H985 0.950 . S
C961 C960 1.349 . S
C961 C977 1.349 . S
C962 C960 1.327 . S
C962 C981 1.429 . S
C962 H986 0.950 . S
C963 C980 1.574 1_655 S
C963 C982 1.368 . S
C963 H987 0.949 . S
H964 C968 0.949 . S
C965 C966 1.349 . S
C965 C967 1.327 . S
C965 H988 0.950 . S
C966 C965 1.349 . S
C966 C978 1.349 . S
C967 C965 1.327 . S
C967 C983 1.429 . S
C967 H989 0.950 . S
C968 H964 0.949 . S
C968 C976 1.574 . S
C968 C984 1.368 . S
H969 C977 0.950 . S
H970 C975 0.950 . S
H971 C976 0.949 . S
H972 C978 0.950 1_554 S
H973 C979 0.950 . S
H974 C980 0.949 . S
C975 H970 0.950 . S
C975 C977 1.327 . S
C975 C981 1.429 . S
C976 C968 1.574 . S
C976 H971 0.949 . S
C976 C982 1.368 1_455 S
C977 C961 1.349 . S
C977 H969 0.950 . S
C977 C975 1.327 . S
C978 C966 1.349 . S
C978 H972 0.950 1_556 S
C978 C979 1.327 . S
C979 H973 0.950 . S
C979 C978 1.327 . S
C979 C983 1.429 . S
C980 C963 1.574 1_455 S
C980 H974 0.949 . S
C980 C984 1.368 . S
C981 C962 1.429 . S
C981 C975 1.429 . S
C981 C982 1.523 . S
C982 C963 1.368 . S
C982 C976 1.368 1_655 S
C982 C981 1.523 . S
C983 C967 1.429 . S
C983 C979 1.429 . S
C983 C984 1.523 . S
C984 C968 1.368 . S
C984 C980 1.368 . S
C984 C983 1.523 . S
H985 C960 0.950 . S
H986 C962 0.950 . S
H987 C963 0.949 . S
H988 C965 0.950 . S
H989 C967 0.950 . S
C990 C991 1.349 . S
C990 C992 1.327 . S
C990 H1015 0.950 . S
C991 C990 1.349 . S
C991 C1007 1.349 . S
C992 C990 1.327 . S
C992 C1011 1.429 . S
C992 H1016 0.950 . S
C993 C1010 1.574 . S
C993 C1012 1.368 . S
C993 H1017 0.949 . S
H994 C998 0.949 . S
C995 C996 1.349 . S
C995 C997 1.327 . S
C995 H1018 0.950 . S
C996 C995 1.349 . S
C996 C1008 1.349 . S
C997 C995 1.327 . S
C997 C1013 1.429 . S
C997 H1019 0.950 . S
C998 H994 0.949 . S
C998 C1006 1.574 . S
C998 C1014 1.368 . S
H999 C1007 0.950 . S
H1000 C1005 0.950 . S
H1001 C1006 0.949 . S
H1002 C1008 0.950 . S
H1003 C1009 0.950 . S
H1004 C1010 0.949 . S
C1005 H1000 0.950 . S
C1005 C1007 1.327 . S
C1005 C1011 1.429 . S
C1006 C998 1.574 . S
C1006 H1001 0.949 . S
C1006 C1012 1.368 1_655 S
C1007 C991 1.349 . S
C1007 H999 0.950 . S
C1007 C1005 1.327 . S
C1008 C996 1.349 . S
C1008 H1002 0.950 . S
C1008 C1009 1.327 . S
C1009 H1003 0.950 . S
C1009 C1008 1.327 . S
C1009 C1013 1.429 . S
C1010 C993 1.574 . S
C1010 H1004 0.949 . S
C1010 C1014 1.368 1_455 S
C1011 C992 1.429 . S
C1011 C1005 1.429 . S
C1011 C1012 1.523 . S
C1012 C993 1.368 . S
C1012 C1006 1.368 1_455 S
C1012 C1011 1.523 . S
C1013 C997 1.429 . S
C1013 C1009 1.429 . S
C1013 C1014 1.523 . S
C1014 C998 1.368 . S
C1014 C1010 1.368 1_655 S
C1014 C1013 1.523 . S
H1015 C990 0.950 . S
H1016 C992 0.950 . S
H1017 C993 0.949 . S
H1018 C995 0.950 . S
H1019 C997 0.950 . S
C1020 C1021 1.349 . S
C1020 C1022 1.327 . S
C1020 H1045 0.950 . S
C1021 C1020 1.349 . S
C1021 C1037 1.349 . S
C1022 C1020 1.327 . S
C1022 C1041 1.429 . S
C1022 H1046 0.950 . S
C1023 C1040 1.574 . S
C1023 C1042 1.368 . S
C1023 H1047 0.949 . S
H1024 C1028 0.949 . S
C1025 C1026 1.349 . S
C1025 C1027 1.327 . S
C1025 H1048 0.950 . S
C1026 C1025 1.349 . S
C1026 C1038 1.349 . S
C1027 C1025 1.327 . S
C1027 C1043 1.429 . S
C1027 H1049 0.950 . S
C1028 H1024 0.949 . S
C1028 C1036 1.579 . S
C1028 C1044 1.368 . S
H1029 C1037 0.950 . S
H1030 C1035 0.950 . S
H1031 C1036 0.966 . S
H1032 C1038 0.950 . S
H1033 C1039 0.950 . S
H1034 C1040 0.949 . S
C1035 H1030 0.950 . S
C1035 C1037 1.327 . S
C1035 C1041 1.429 . S
C1036 C1028 1.579 . S
C1036 H1031 0.966 . S
C1036 C1042 1.345 1_545 S
C1037 C1021 1.349 . S
C1037 H1029 0.950 . S
C1037 C1035 1.327 . S
C1038 C1026 1.349 . S
C1038 H1032 0.950 . S
C1038 C1039 1.327 . S
C1039 H1033 0.950 . S
C1039 C1038 1.327 . S
C1039 C1043 1.429 . S
C1040 C1023 1.574 . S
C1040 H1034 0.949 . S
C1040 C1044 1.368 1_565 S
C1041 C1022 1.429 . S
C1041 C1035 1.429 . S
C1041 C1042 1.523 . S
C1042 C1023 1.368 . S
C1042 C1036 1.345 1_565 S
C1042 C1041 1.523 . S
C1043 C1027 1.429 . S
C1043 C1039 1.429 . S
C1043 C1044 1.523 . S
C1044 C1028 1.368 . S
C1044 C1040 1.368 1_545 S
C1044 C1043 1.523 . S
H1045 C1020 0.950 . S
H1046 C1022 0.950 . S
H1047 C1023 0.949 . S
H1048 C1025 0.950 . S
H1049 C1027 0.950 . S
C1050 C1051 1.349 . S
C1050 C1052 1.327 . S
C1050 H1075 0.950 . S
C1051 C1050 1.349 . S
C1051 C1067 1.349 . S
C1052 C1050 1.327 . S
C1052 C1071 1.429 . S
C1052 H1076 0.950 . S
C1053 C1070 1.574 . S
C1053 C1072 1.368 . S
C1053 H1077 0.949 . S
H1054 C1058 0.949 . S
C1055 C1056 1.349 . S
C1055 C1057 1.327 . S
C1055 H1078 0.950 . S
C1056 C1055 1.349 . S
C1056 C1068 1.349 . S
C1057 C1055 1.327 . S
C1057 C1073 1.429 . S
C1057 H1079 0.950 . S
C1058 H1054 0.949 . S
C1058 C1066 1.574 . S
C1058 C1074 1.368 . S
H1059 C1067 0.950 . S
H1060 C1065 0.950 . S
H1061 C1066 0.949 . S
H1062 C1068 0.950 . S
H1063 C1069 0.950 . S
H1064 C1070 0.949 . S
C1065 H1060 0.950 . S
C1065 C1067 1.327 . S
C1065 C1071 1.429 . S
C1066 C1058 1.574 . S
C1066 H1061 0.949 . S
C1066 C1072 1.368 . S
C1067 C1051 1.349 . S
C1067 H1059 0.950 . S
C1067 C1065 1.327 . S
C1068 C1056 1.349 . S
C1068 H1062 0.950 . S
C1068 C1069 1.327 . S
C1069 H1063 0.950 . S
C1069 C1068 1.327 . S
C1069 C1073 1.429 . S
C1070 C1053 1.574 . S
C1070 H1064 0.949 . S
C1070 C1074 1.368 . S
C1071 C1052 1.429 . S
C1071 C1065 1.429 . S
C1071 C1072 1.523 . S
C1072 C1053 1.368 . S
C1072 C1066 1.368 . S
C1072 C1071 1.523 . S
C1073 C1057 1.429 . S
C1073 C1069 1.429 . S
C1073 C1074 1.523 . S
C1074 C1058 1.368 . S
C1074 C1070 1.368 . S
C1074 C1073 1.523 . S
H1075 C1050 0.950 . S
H1076 C1052 0.950 . S
H1077 C1053 0.949 . S
H1078 C1055 0.950 . S
H1079 C1057 0.950 . S
C1080 C1081 1.349 . S
C1080 C1082 1.327 . S
C1080 H1105 0.950 . S
C1081 C1080 1.349 . S
C1081 C1097 1.349 . S
C1082 C1080 1.327 . S
C1082 C1101 1.429 . S
C1082 H1106 0.950 1_565 S
C1083 C1100 1.574 . S
C1083 C1102 1.368 . S
C1083 H1107 0.949 . S
H1084 C1088 0.949 . S
C1085 C1086 1.349 . S
C1085 C1087 1.327 . S
C1085 H1108 0.950 . S
C1086 C1085 1.349 . S
C1086 C1098 1.349 . S
C1087 C1085 1.327 . S
C1087 C1103 1.429 . S
C1087 H1109 0.950 . S
C1088 H1084 0.949 . S
C1088 C1096 1.574 . S
C1088 C1104 1.368 . S
H1089 C1097 0.950 . S
H1090 C1095 0.950 . S
H1091 C1096 0.949 . S
H1092 C1098 0.950 . S
H1093 C1099 0.950 . S
H1094 C1100 0.949 . S
C1095 H1090 0.950 . S
C1095 C1097 1.327 . S
C1095 C1101 1.429 . S
C1096 C1088 1.574 . S
C1096 H1091 0.949 . S
C1096 C1102 1.368 1_545 S
C1097 C1081 1.349 . S
C1097 H1089 0.950 . S
C1097 C1095 1.327 . S
C1098 C1086 1.349 . S
C1098 H1092 0.950 . S
C1098 C1099 1.327 . S
C1099 H1093 0.950 . S
C1099 C1098 1.327 . S
C1099 C1103 1.429 . S
C1100 C1083 1.574 . S
C1100 H1094 0.949 . S
C1100 C1104 1.368 1_565 S
C1101 C1082 1.429 . S
C1101 C1095 1.429 . S
C1101 C1102 1.523 . S
C1102 C1083 1.368 . S
C1102 C1096 1.368 1_565 S
C1102 C1101 1.523 . S
C1103 C1087 1.429 . S
C1103 C1099 1.429 . S
C1103 C1104 1.523 . S
C1104 C1088 1.368 . S
C1104 C1100 1.368 1_545 S
C1104 C1103 1.523 . S
H1105 C1080 0.950 . S
H1106 C1082 0.950 1_545 S
H1107 C1083 0.949 . S
H1108 C1085 0.950 . S
H1109 C1087 0.950 . S
C1110 C1111 1.349 . S
C1110 C1112 1.327 . S
C1110 H1135 0.950 . S
C1111 C1110 1.349 . S
C1111 C1127 1.349 . S
C1112 C1110 1.327 . S
C1112 C1131 1.429 . S
C1112 H1136 0.950 . S
C1113 C1130 1.574 . S
C1113 C1132 1.368 . S
C1113 H1137 0.949 . S
H1114 C1118 0.949 . S
C1115 C1116 1.349 . S
C1115 C1117 1.327 . S
C1115 H1138 0.950 . S
C1116 C1115 1.349 . S
C1116 C1128 1.349 . S
C1117 C1115 1.327 . S
C1117 C1133 1.429 . S
C1117 H1139 0.950 . S
C1118 H1114 0.949 . S
C1118 C1126 1.574 . S
C1118 C1134 1.368 . S
H1119 C1127 0.950 . S
H1120 C1125 0.950 . S
H1121 C1126 0.949 . S
H1122 C1128 0.950 . S
H1123 C1129 0.950 . S
H1124 C1130 0.949 . S
C1125 H1120 0.950 . S
C1125 C1127 1.327 . S
C1125 C1131 1.429 . S
C1126 C1118 1.574 . S
C1126 H1121 0.949 . S
C1126 C1132 1.368 . S
C1127 C1111 1.349 . S
C1127 H1119 0.950 . S
C1127 C1125 1.327 . S
C1128 C1116 1.349 . S
C1128 H1122 0.950 . S
C1128 C1129 1.327 . S
C1129 H1123 0.950 . S
C1129 C1128 1.327 . S
C1129 C1133 1.429 . S
C1130 C1113 1.574 . S
C1130 H1124 0.949 . S
C1130 C1134 1.368 . S
C1131 C1112 1.429 . S
C1131 C1125 1.429 . S
C1131 C1132 1.523 . S
C1132 C1113 1.368 . S
C1132 C1126 1.368 . S
C1132 C1131 1.523 . S
C1133 C1117 1.429 . S
C1133 C1129 1.429 . S
C1133 C1134 1.523 . S
C1134 C1118 1.368 . S
C1134 C1130 1.368 . S
C1134 C1133 1.523 . S
H1135 C1110 0.950 . S
H1136 C1112 0.950 . S
H1137 C1113 0.949 . S
H1138 C1115 0.950 . S
H1139 C1117 0.950 . S
C1140 C1141 1.349 . S
C1140 C1142 1.327 1_556 S
C1140 H1165 0.950 . S
C1141 C1140 1.349 . S
C1141 C1157 1.349 . S
C1142 C1140 1.327 1_554 S
C1142 C1161 1.429 . S
C1142 H1166 0.950 . S
C1143 C1160 1.574 1_655 S
C1143 C1162 1.368 . S
C1143 H1167 0.949 . S
H1144 C1148 0.956 . S
C1145 C1146 1.349 . S
C1145 C1147 1.327 . S
C1145 H1168 0.950 . S
C1146 C1145 1.349 . S
C1146 C1158 1.349 . S
C1147 C1145 1.327 . S
C1147 C1163 1.429 . S
C1147 H1169 0.950 . S
C1148 H1144 0.956 . S
C1148 C1156 1.574 . S
C1148 C1164 1.368 1_655 S
H1149 C1157 0.950 . S
H1150 C1155 0.950 . S
H1151 C1156 0.949 . S
H1152 C1158 0.950 . S
H1153 C1159 0.950 . S
H1154 C1160 0.949 . S
C1155 H1150 0.950 . S
C1155 C1157 1.327 1_554 S
C1155 C1161 1.429 . S
C1156 C1148 1.574 . S
C1156 H1151 0.949 . S
C1156 C1162 1.368 . S
C1157 C1141 1.349 . S
C1157 H1149 0.950 . S
C1157 C1155 1.327 1_556 S
C1158 C1146 1.349 . S
C1158 H1152 0.950 . S
C1158 C1159 1.327 . S
C1159 H1153 0.950 . S
C1159 C1158 1.327 . S
C1159 C1163 1.429 . S
C1160 C1143 1.574 1_455 S
C1160 H1154 0.949 . S
C1160 C1164 1.368 . S
C1161 C1142 1.429 . S
C1161 C1155 1.429 . S
C1161 C1162 1.523 . S
C1162 C1143 1.368 . S
C1162 C1156 1.368 . S
C1162 C1161 1.523 . S
C1163 C1147 1.429 . S
C1163 C1159 1.429 . S
C1163 C1164 1.523 . S
C1164 C1148 1.368 1_455 S
C1164 C1160 1.368 . S
C1164 C1163 1.523 . S
H1165 C1140 0.950 . S
H1166 C1142 0.950 . S
H1167 C1143 0.949 . S
H1168 C1145 0.950 . S
H1169 C1147 0.950 . S
C1170 C1171 1.349 . S
C1170 C1172 1.327 . S
C1170 H1195 0.950 . S
C1171 C1170 1.349 . S
C1171 C1187 1.349 . S
C1172 C1170 1.327 . S
C1172 C1191 1.429 . S
C1172 H1196 0.950 . S
C1173 C1190 1.574 . S
C1173 C1192 1.368 1_565 S
C1173 H1197 0.949 . S
H1174 C1178 0.949 . S
C1175 C1176 1.349 . S
C1175 C1177 1.327 . S
C1175 H1198 0.950 . S
C1176 C1175 1.349 . S
C1176 C1188 1.349 . S
C1177 C1175 1.327 . S
C1177 C1193 1.429 . S
C1177 H1199 0.950 . S
C1178 H1174 0.949 . S
C1178 C1186 1.574 . S
C1178 C1194 1.368 1_545 S
H1179 C1187 0.950 . S
H1180 C1185 0.950 . S
H1181 C1186 0.949 . S
H1182 C1188 0.950 . S
H1183 C1189 0.950 . S
H1184 C1190 0.949 . S
C1185 H1180 0.950 . S
C1185 C1187 1.327 . S
C1185 C1191 1.429 . S
C1186 C1178 1.574 . S
C1186 H1181 0.949 . S
C1186 C1192 1.368 . S
C1187 C1171 1.349 . S
C1187 H1179 0.950 . S
C1187 C1185 1.327 . S
C1188 C1176 1.349 . S
C1188 H1182 0.950 . S
C1188 C1189 1.327 . S
C1189 H1183 0.950 . S
C1189 C1188 1.327 . S
C1189 C1193 1.429 . S
C1190 C1173 1.574 . S
C1190 H1184 0.949 . S
C1190 C1194 1.368 . S
C1191 C1172 1.429 . S
C1191 C1185 1.429 . S
C1191 C1192 1.523 . S
C1192 C1173 1.368 1_545 S
C1192 C1186 1.368 . S
C1192 C1191 1.523 . S
C1193 C1177 1.429 . S
C1193 C1189 1.429 . S
C1193 C1194 1.523 . S
C1194 C1178 1.368 1_565 S
C1194 C1190 1.368 . S
C1194 C1193 1.523 . S
H1195 C1170 0.950 . S
H1196 C1172 0.950 . S
H1197 C1173 0.949 . S
H1198 C1175 0.950 . S
H1199 C1177 0.950 . S
C1200 C1201 1.349 . S
C1200 C1202 1.327 . S
C1200 H1225 0.950 . S
C1201 C1200 1.349 . S
C1201 C1217 1.349 . S
C1202 C1200 1.327 . S
C1202 C1221 1.429 . S
C1202 H1226 0.950 . S
C1203 C1220 1.574 . S
C1203 C1222 1.368 . S
C1203 H1227 0.949 . S
H1204 C1208 0.949 . S
C1205 C1206 1.349 . S
C1205 C1207 1.327 . S
C1205 H1228 0.950 . S
C1206 C1205 1.349 . S
C1206 C1218 1.349 . S
C1207 C1205 1.327 . S
C1207 C1223 1.429 . S
C1207 H1229 0.950 . S
C1208 H1204 0.949 . S
C1208 C1216 1.574 . S
C1208 C1224 1.368 . S
H1209 C1217 0.950 . S
H1210 C1215 0.950 . S
H1211 C1216 0.949 . S
H1212 C1218 0.950 . S
H1213 C1219 0.950 . S
H1214 C1220 0.949 . S
C1215 H1210 0.950 . S
C1215 C1217 1.327 . S
C1215 C1221 1.429 . S
C1216 C1208 1.574 . S
C1216 H1211 0.949 . S
C1216 C1222 1.368 . S
C1217 C1201 1.349 . S
C1217 H1209 0.950 . S
C1217 C1215 1.327 . S
C1218 C1206 1.349 . S
C1218 H1212 0.950 . S
C1218 C1219 1.327 . S
C1219 H1213 0.950 . S
C1219 C1218 1.327 . S
C1219 C1223 1.429 . S
C1220 C1203 1.574 . S
C1220 H1214 0.949 . S
C1220 C1224 1.368 . S
C1221 C1202 1.429 . S
C1221 C1215 1.429 . S
C1221 C1222 1.523 . S
C1222 C1203 1.368 . S
C1222 C1216 1.368 . S
C1222 C1221 1.523 . S
C1223 C1207 1.429 . S
C1223 C1219 1.429 . S
C1223 C1224 1.523 . S
C1224 C1208 1.368 . S
C1224 C1220 1.368 . S
C1224 C1223 1.523 . S
H1225 C1200 0.950 . S
H1226 C1202 0.950 . S
H1227 C1203 0.949 . S
H1228 C1205 0.950 . S
H1229 C1207 0.950 . S
C1230 C1231 1.349 . S
C1230 C1232 1.327 . S
C1230 H1255 0.950 . S
C1231 C1230 1.349 . S
C1231 C1247 1.349 . S
C1232 C1230 1.327 . S
C1232 C1251 1.429 . S
C1232 H1256 0.950 . S
C1233 C1250 1.574 1_455 S
C1233 C1252 1.368 . S
C1233 H1257 0.949 . S
H1234 C1238 0.949 . S
C1235 C1236 1.349 . S
C1235 C1237 1.327 . S
C1235 H1258 0.950 . S
C1236 C1235 1.349 . S
C1236 C1248 1.349 . S
C1237 C1235 1.327 . S
C1237 C1253 1.429 . S
C1237 H1259 0.950 . S
C1238 H1234 0.949 . S
C1238 C1246 1.574 1_655 S
C1238 C1254 1.368 . S
H1239 C1247 0.950 . S
H1240 C1245 0.950 . S
H1241 C1246 0.949 . S
H1242 C1248 0.950 . S
H1243 C1249 0.950 . S
H1244 C1250 0.949 . S
C1245 H1240 0.950 . S
C1245 C1247 1.327 . S
C1245 C1251 1.429 . S
C1246 C1238 1.574 1_455 S
C1246 H1241 0.949 . S
C1246 C1252 1.368 . S
C1247 C1231 1.349 . S
C1247 H1239 0.950 . S
C1247 C1245 1.327 . S
C1248 C1236 1.349 . S
C1248 H1242 0.950 . S
C1248 C1249 1.327 . S
C1249 H1243 0.950 . S
C1249 C1248 1.327 . S
C1249 C1253 1.429 . S
C1250 C1233 1.574 1_655 S
C1250 H1244 0.949 . S
C1250 C1254 1.368 . S
C1251 C1232 1.429 . S
C1251 C1245 1.429 . S
C1251 C1252 1.523 . S
C1252 C1233 1.368 . S
C1252 C1246 1.368 . S
C1252 C1251 1.523 . S
C1253 C1237 1.429 . S
C1253 C1249 1.429 . S
C1253 C1254 1.523 . S
C1254 C1238 1.368 . S
C1254 C1250 1.368 . S
C1254 C1253 1.523 . S
H1255 C1230 0.950 . S
H1256 C1232 0.950 . S
H1257 C1233 0.949 . S
H1258 C1235 0.950 . S
H1259 C1237 0.950 . S
C1260 C1261 1.349 . S
C1260 C1262 1.327 . S
C1260 H1285 0.950 . S
C1261 C1260 1.349 . S
C1261 C1277 1.349 . S
C1262 C1260 1.327 . S
C1262 C1281 1.429 . S
C1262 H1286 0.950 . S
C1263 C1280 1.574 . S
C1263 C1282 1.368 . S
C1263 H1287 0.949 . S
H1264 C1268 0.949 . S
C1265 C1266 1.349 . S
C1265 C1267 1.327 . S
C1265 H1288 0.950 . S
C1266 C1265 1.349 . S
C1266 C1278 1.349 . S
C1267 C1265 1.327 . S
C1267 C1283 1.429 . S
C1267 H1289 0.950 . S
C1268 H1264 0.949 . S
C1268 C1276 1.574 . S
C1268 C1284 1.368 . S
H1269 C1277 0.950 . S
H1270 C1275 0.950 . S
H1271 C1276 0.949 . S
H1272 C1278 0.950 . S
H1273 C1279 0.950 . S
H1274 C1280 0.949 . S
C1275 H1270 0.950 . S
C1275 C1277 1.327 . S
C1275 C1281 1.429 . S
C1276 C1268 1.574 . S
C1276 H1271 0.949 . S
C1276 C1282 1.368 . S
C1277 C1261 1.349 . S
C1277 H1269 0.950 . S
C1277 C1275 1.327 . S
C1278 C1266 1.349 . S
C1278 H1272 0.950 . S
C1278 C1279 1.327 . S
C1279 H1273 0.950 . S
C1279 C1278 1.327 . S
C1279 C1283 1.429 . S
C1280 C1263 1.574 . S
C1280 H1274 0.949 . S
C1280 C1284 1.368 . S
C1281 C1262 1.429 . S
C1281 C1275 1.429 . S
C1281 C1282 1.523 . S
C1282 C1263 1.368 . S
C1282 C1276 1.368 . S
C1282 C1281 1.523 . S
C1283 C1267 1.429 . S
C1283 C1279 1.429 . S
C1283 C1284 1.523 . S
C1284 C1268 1.368 . S
C1284 C1280 1.368 . S
C1284 C1283 1.523 . S
H1285 C1260 0.950 . S
H1286 C1262 0.950 . S
H1287 C1263 0.949 . S
H1288 C1265 0.950 . S
H1289 C1267 0.950 . S
C1290 C1291 1.349 . S
C1290 C1292 1.327 . S
C1290 H1315 0.950 . S
C1291 C1290 1.349 . S
C1291 C1307 1.349 . S
C1292 C1290 1.327 . S
C1292 C1311 1.429 . S
C1292 H1316 0.950 . S
C1293 C1310 1.574 . S
C1293 C1312 1.368 . S
C1293 H1317 0.949 . S
H1294 C1298 0.949 . S
C1295 C1296 1.349 1_556 S
C1295 C1297 1.327 . S
C1295 H1318 0.950 . S
C1296 C1295 1.349 1_554 S
C1296 C1308 1.349 . S
C1297 C1295 1.327 . S
C1297 C1313 1.429 . S
C1297 H1319 0.950 . S
C1298 H1294 0.949 . S
C1298 C1306 1.574 . S
C1298 C1314 1.368 . S
H1299 C1307 0.950 . S
H1300 C1305 0.950 . S
H1301 C1306 0.949 . S
H1302 C1308 0.950 . S
H1303 C1309 0.950 . S
H1304 C1310 0.949 . S
C1305 H1300 0.950 . S
C1305 C1307 1.327 . S
C1305 C1311 1.429 . S
C1306 C1298 1.574 . S
C1306 H1301 0.949 . S
C1306 C1312 1.368 . S
C1307 C1291 1.349 . S
C1307 H1299 0.950 . S
C1307 C1305 1.327 . S
C1308 C1296 1.349 . S
C1308 H1302 0.950 . S
C1308 C1309 1.327 1_554 S
C1309 H1303 0.950 . S
C1309 C1308 1.327 1_556 S
C1309 C1313 1.429 . S
C1310 C1293 1.574 . S
C1310 H1304 0.949 . S
C1310 C1314 1.368 . S
C1311 C1292 1.429 . S
C1311 C1305 1.429 . S
C1311 C1312 1.523 . S
C1312 C1293 1.368 . S
C1312 C1306 1.368 . S
C1312 C1311 1.523 . S
C1313 C1297 1.429 . S
C1313 C1309 1.429 . S
C1313 C1314 1.523 . S
C1314 C1298 1.368 . S
C1314 C1310 1.368 . S
C1314 C1313 1.523 . S
H1315 C1290 0.950 . S
H1316 C1292 0.950 . S
H1317 C1293 0.949 . S
H1318 C1295 0.950 . S
H1319 C1297 0.950 . S
C1320 C1321 1.349 . S
C1320 C1322 1.327 . S
C1320 H1345 0.950 1_554 S
C1321 C1320 1.349 . S
C1321 C1337 1.349 . S
C1322 C1320 1.327 . S
C1322 C1341 1.429 . S
C1322 H1346 0.950 . S
C1323 C1340 1.574 . S
C1323 C1342 1.368 . S
C1323 H1347 0.949 . S
H1324 C1328 0.949 . S
C1325 C1326 1.349 . S
C1325 C1327 1.327 . S
C1325 H1348 0.950 . S
C1326 C1325 1.349 . S
C1326 C1338 1.349 . S
C1327 C1325 1.327 . S
C1327 C1343 1.429 . S
C1327 H1349 0.950 . S
C1328 H1324 0.949 . S
C1328 C1336 1.574 . S
C1328 C1344 1.368 . S
H1329 C1337 0.950 . S
H1330 C1335 0.950 . S
H1331 C1336 0.949 . S
H1332 C1338 0.950 . S
H1333 C1339 0.950 . S
H1334 C1340 0.949 . S
C1335 H1330 0.950 . S
C1335 C1337 1.327 . S
C1335 C1341 1.429 . S
C1336 C1328 1.574 . S
C1336 H1331 0.949 . S
C1336 C1342 1.368 . S
C1337 C1321 1.349 . S
C1337 H1329 0.950 . S
C1337 C1335 1.327 . S
C1338 C1326 1.349 . S
C1338 H1332 0.950 . S
C1338 C1339 1.327 . S
C1339 H1333 0.950 . S
C1339 C1338 1.327 . S
C1339 C1343 1.429 . S
C1340 C1323 1.574 . S
C1340 H1334 0.949 . S
C1340 C1344 1.368 . S
C1341 C1322 1.429 . S
C1341 C1335 1.429 . S
C1341 C1342 1.523 . S
C1342 C1323 1.368 . S
C1342 C1336 1.368 . S
C1342 C1341 1.523 . S
C1343 C1327 1.429 . S
C1343 C1339 1.429 . S
C1343 C1344 1.523 . S
C1344 C1328 1.368 . S
C1344 C1340 1.368 . S
C1344 C1343 1.523 . S
H1345 C1320 0.950 1_556 S
H1346 C1322 0.950 . S
H1347 C1323 0.949 . S
H1348 C1325 0.950 . S
H1349 C1327 0.950 . S
C1350 C1351 1.349 . S
C1350 C1352 1.327 . S
C1350 H1375 0.950 . S
C1351 C1350 1.349 . S
C1351 C1367 1.349 . S
C1352 C1350 1.327 . S
C1352 C1371 1.429 . S
C1352 H1376 0.950 . S
C1353 C1370 1.574 . S
C1353 C1372 1.368 . S
C1353 H1377 0.949 . S
H1354 C1358 0.949 . S
C1355 C1356 1.349 . S
C1355 C1357 1.327 . S
C1355 H1378 0.950 . S
C1356 C1355 1.349 . S
C1356 C1368 1.349 . S
C1357 C1355 1.327 . S
C1357 C1373 1.429 . S
C1357 H1379 0.950 . S
C1358 H1354 0.949 . S
C1358 C1366 1.574 . S
C1358 C1374 1.368 . S
H1359 C1367 0.950 . S
H1360 C1365 0.950 . S
H1361 C1366 0.949 . S
H1362 C1368 0.950 . S
H1363 C1369 0.950 . S
H1364 C1370 0.949 . S
C1365 H1360 0.950 . S
C1365 C1367 1.327 . S
C1365 C1371 1.429 . S
C1366 C1358 1.574 . S
C1366 H1361 0.949 . S
C1366 C1372 1.368 . S
C1367 C1351 1.349 . S
C1367 H1359 0.950 . S
C1367 C1365 1.327 . S
C1368 C1356 1.349 . S
C1368 H1362 0.950 . S
C1368 C1369 1.327 . S
C1369 H1363 0.950 . S
C1369 C1368 1.327 . S
C1369 C1373 1.429 . S
C1370 C1353 1.574 . S
C1370 H1364 0.949 . S
C1370 C1374 1.368 . S
C1371 C1352 1.429 . S
C1371 C1365 1.429 . S
C1371 C1372 1.523 . S
C1372 C1353 1.368 . S
C1372 C1366 1.368 . S
C1372 C1371 1.523 . S
C1373 C1357 1.429 . S
C1373 C1369 1.429 . S
C1373 C1374 1.523 . S
C1374 C1358 1.368 . S
C1374 C1370 1.368 . S
C1374 C1373 1.523 . S
H1375 C1350 0.950 . S
H1376 C1352 0.950 . S
H1377 C1353 0.949 . S
H1378 C1355 0.950 . S
H1379 C1357 0.950 . S
C1380 C1381 1.349 . S
C1380 C1382 1.327 . S
C1380 H1405 0.950 . S
C1381 C1380 1.349 . S
C1381 C1397 1.349 . S
C1382 C1380 1.327 . S
C1382 C1401 1.429 . S
C1382 H1406 0.950 . S
C1383 C1400 1.574 . S
C1383 C1402 1.368 . S
C1383 H1407 0.949 . S
H1384 C1388 0.949 . S
C1385 C1386 1.349 . S
C1385 C1387 1.327 . S
C1385 H1408 0.950 . S
C1386 C1385 1.349 . S
C1386 C1398 1.349 . S
C1387 C1385 1.327 . S
C1387 C1403 1.429 . S
C1387 H1409 0.950 . S
C1388 H1384 0.949 . S
C1388 C1396 1.574 . S
C1388 C1404 1.368 . S
H1389 C1397 0.950 . S
H1390 C1395 0.950 . S
H1391 C1396 0.949 . S
H1392 C1398 0.950 . S
H1393 C1399 0.950 . S
H1394 C1400 0.949 . S
C1395 H1390 0.950 . S
C1395 C1397 1.327 . S
C1395 C1401 1.429 . S
C1396 C1388 1.574 . S
C1396 H1391 0.949 . S
C1396 C1402 1.368 . S
C1397 C1381 1.349 . S
C1397 H1389 0.950 . S
C1397 C1395 1.327 . S
C1398 C1386 1.349 . S
C1398 H1392 0.950 . S
C1398 C1399 1.327 . S
C1399 H1393 0.950 . S
C1399 C1398 1.327 . S
C1399 C1403 1.429 . S
C1400 C1383 1.574 . S
C1400 H1394 0.949 . S
C1400 C1404 1.368 . S
C1401 C1382 1.429 . S
C1401 C1395 1.429 . S
C1401 C1402 1.523 . S
C1402 C1383 1.368 . S
C1402 C1396 1.368 . S
C1402 C1401 1.523 . S
C1403 C1387 1.429 . S
C1403 C1399 1.429 . S
C1403 C1404 1.523 . S
C1404 C1388 1.368 . S
C1404 C1400 1.368 . S
C1404 C1403 1.523 . S
H1405 C1380 0.950 . S
H1406 C1382 0.950 . S
H1407 C1383 0.949 . S
H1408 C1385 0.950 . S
H1409 C1387 0.950 . S
C1410 C1411 1.349 . S
C1410 C1412 1.327 . S
C1410 H1435 0.950 . S
C1411 C1410 1.349 . S
C1411 C1427 1.349 . S
C1412 C1410 1.327 . S
C1412 C1431 1.429 . S
C1412 H1436 0.950 . S
C1413 C1430 1.574 . S
C1413 C1432 1.368 . S
C1413 H1437 0.949 . S
H1414 C1418 0.949 . S
C1415 C1416 1.349 . S
C1415 C1417 1.327 . S
C1415 H1438 0.950 . S
C1416 C1415 1.349 . S
C1416 C1428 1.349 . S
C1417 C1415 1.327 . S
C1417 C1433 1.429 . S
C1417 H1439 0.950 . S
C1418 H1414 0.949 . S
C1418 C1426 1.574 . S
C1418 C1434 1.368 . S
H1419 C1427 0.950 . S
H1420 C1425 0.950 . S
H1421 C1426 0.949 . S
H1422 C1428 0.950 . S
H1423 C1429 0.950 . S
H1424 C1430 0.949 . S
C1425 H1420 0.950 . S
C1425 C1427 1.327 . S
C1425 C1431 1.429 . S
C1426 C1418 1.574 . S
C1426 H1421 0.949 . S
C1426 C1432 1.368 . S
C1427 C1411 1.349 . S
C1427 H1419 0.950 . S
C1427 C1425 1.327 . S
C1428 C1416 1.349 . S
C1428 H1422 0.950 . S
C1428 C1429 1.327 . S
C1429 H1423 0.950 . S
C1429 C1428 1.327 . S
C1429 C1433 1.429 . S
C1430 C1413 1.574 . S
C1430 H1424 0.949 . S
C1430 C1434 1.368 . S
C1431 C1412 1.429 . S
C1431 C1425 1.429 . S
C1431 C1432 1.523 . S
C1432 C1413 1.368 . S
C1432 C1426 1.368 . S
C1432 C1431 1.523 . S
C1433 C1417 1.429 . S
C1433 C1429 1.429 . S
C1433 C1434 1.523 . S
C1434 C1418 1.368 . S
C1434 C1430 1.368 . S
C1434 C1433 1.523 . S
H1435 C1410 0.950 . S
H1436 C1412 0.950 . S
H1437 C1413 0.949 . S
H1438 C1415 0.950 . S
H1439 C1417 0.950 . S
C361 C10 0.589 . S
C366 C250 0.592 . S
C391 C40 0.863 . S
C396 C271 0.860 . S
C421 C70 0.589 . S
C426 C310 0.592 . S
C451 C331 0.860 . S
C456 C100 0.863 . S
C481 C130 0.589 . S
C486 C190 0.592 . S
C511 C211 0.860 . S
C516 C160 0.863 . S
C541 C316 2.038 . S
C546 C16 2.051 . S
C571 N344 1.443 . S
C576 C46 1.529 . S
C601 C76 2.051 . S
C606 C196 2.038 . S
C631 N224 1.443 . S
C636 C106 1.529 . S
C661 C256 2.038 . S
C666 C136 2.051 . S
C691 C166 1.529 . S
C696 N284 1.443 . S
C721 C237 0.538 . S
C726 N6 0.627 . S
C751 N246 0.532 . S
C756 N36 0.539 . S
C781 C297 0.538 . S
C786 N66 0.627 . S
C811 N96 0.539 . S
C816 N306 0.532 . S
C841 N126 0.627 . S
C846 C357 0.538 . S
C871 N156 0.539 . S
C876 N186 0.532 . S
C901 C1 0.271 . S
C906 C91 0.307 . S
C931 C31 0.307 . S
C936 C121 0.271 . S
C961 C61 0.271 . S
C966 C151 0.307 . S
C991 C280 0.053 . S
C996 C181 0.257 . S
C1021 C220 0.053 . S
C1026 C301 0.257 . S
C1051 C340 0.053 . S
C1056 C241 0.257 . S
C1081 N216 1.870 . S
C1086 C27 1.831 . S
C1111 C267 1.990 1_556 S
C1116 C57 1.997 . S
C1141 C87 1.831 . S
C1146 N276 1.870 . S
C1171 C327 1.990 . S
C1176 C117 1.997 . S
C1201 N336 1.870 . S
C1206 C147 1.832 . S
C1231 C177 1.997 . S
C1236 C207 1.990 . S
C1261 N14 0.496 . S
C1266 N314 0.496 . S
C1291 N44 1.022 . S
C1296 C346 1.007 . S
C1321 N74 0.496 1_554 S
C1326 N194 0.496 . S
C1351 N104 1.022 . S
C1356 C226 1.007 . S
C1381 N134 0.496 . S
C1386 N254 0.496 . S
C1411 C286 1.007 . S
C1416 N164 1.022 . S
