# Generated by pormake.
# Topology fca, (5)-cn, num edge types: 1
# Building blocks:
#     Node 0, Type 0, BuildingBlock: BEQFEK_clean_sbu_0, # of connection points: 5
#     Node 1, Type 0, BuildingBlock: BEQFEK_clean_sbu_0, # of connection points: 5
#     Node 2, Type 0, BuildingBlock: BEQFEK_clean_sbu_0, # of connection points: 5
#     Node 3, Type 0, BuildingBlock: BEQFEK_clean_sbu_0, # of connection points: 5
#     Node 4, Type 0, BuildingBlock: BEQFEK_clean_sbu_0, # of connection points: 5
#     Node 5, Type 0, BuildingBlock: BEQFEK_clean_sbu_0, # of connection points: 5
#     Node 6, Type 0, BuildingBlock: BEQFEK_clean_sbu_0, # of connection points: 5
#     Node 7, Type 0, BuildingBlock: BEQFEK_clean_sbu_0, # of connection points: 5
#     Node 8, Type 0, BuildingBlock: BEQFEK_clean_sbu_0, # of connection points: 5
#     Node 9, Type 0, BuildingBlock: BEQFEK_clean_sbu_0, # of connection points: 5
#     Node 10, Type 0, BuildingBlock: BEQFEK_clean_sbu_0, # of connection points: 5
#     Node 11, Type 0, BuildingBlock: BEQFEK_clean_sbu_0, # of connection points: 5
#     Node 12, Type 0, BuildingBlock: BEQFEK_clean_sbu_0, # of connection points: 5
#     Node 13, Type 0, BuildingBlock: BEQFEK_clean_sbu_0, # of connection points: 5
#     Node 14, Type 0, BuildingBlock: BEQFEK_clean_sbu_0, # of connection points: 5
#     Node 15, Type 0, BuildingBlock: BEQFEK_clean_sbu_0, # of connection points: 5
#     Node 16, Type 0, BuildingBlock: BEQFEK_clean_sbu_0, # of connection points: 5
#     Node 17, Type 0, BuildingBlock: BEQFEK_clean_sbu_0, # of connection points: 5
#     Node 18, Type 0, BuildingBlock: BEQFEK_clean_sbu_0, # of connection points: 5
#     Node 19, Type 0, BuildingBlock: BEQFEK_clean_sbu_0, # of connection points: 5
#     Node 20, Type 0, BuildingBlock: BEQFEK_clean_sbu_0, # of connection points: 5
#     Node 21, Type 0, BuildingBlock: BEQFEK_clean_sbu_0, # of connection points: 5
#     Node 22, Type 0, BuildingBlock: BEQFEK_clean_sbu_0, # of connection points: 5
#     Node 23, Type 0, BuildingBlock: BEQFEK_clean_sbu_0, # of connection points: 5
#     Edge 24, Type (0, 0), BuildingBlock: ZUJKAS_clean_linker_0, # of connection points: 2
#     Edge 25, Type (0, 0), BuildingBlock: ZUJKAS_clean_linker_0, # of connection points: 2
#     Edge 26, Type (0, 0), BuildingBlock: ZUJKAS_clean_linker_0, # of connection points: 2
#     Edge 27, Type (0, 0), BuildingBlock: ZUJKAS_clean_linker_0, # of connection points: 2
#     Edge 28, Type (0, 0), BuildingBlock: ZUJKAS_clean_linker_0, # of connection points: 2
#     Edge 29, Type (0, 0), BuildingBlock: ZUJKAS_clean_linker_0, # of connection points: 2
#     Edge 30, Type (0, 0), BuildingBlock: ZUJKAS_clean_linker_0, # of connection points: 2
#     Edge 31, Type (0, 0), BuildingBlock: ZUJKAS_clean_linker_0, # of connection points: 2
#     Edge 32, Type (0, 0), BuildingBlock: ZUJKAS_clean_linker_0, # of connection points: 2
#     Edge 33, Type (0, 0), BuildingBlock: ZUJKAS_clean_linker_0, # of connection points: 2
#     Edge 34, Type (0, 0), BuildingBlock: ZUJKAS_clean_linker_0, # of connection points: 2
#     Edge 35, Type (0, 0), BuildingBlock: ZUJKAS_clean_linker_0, # of connection points: 2
#     Edge 36, Type (0, 0), BuildingBlock: ZUJKAS_clean_linker_0, # of connection points: 2
#     Edge 37, Type (0, 0), BuildingBlock: ZUJKAS_clean_linker_0, # of connection points: 2
#     Edge 38, Type (0, 0), BuildingBlock: ZUJKAS_clean_linker_0, # of connection points: 2
#     Edge 39, Type (0, 0), BuildingBlock: ZUJKAS_clean_linker_0, # of connection points: 2
#     Edge 40, Type (0, 0), BuildingBlock: ZUJKAS_clean_linker_0, # of connection points: 2
#     Edge 41, Type (0, 0), BuildingBlock: ZUJKAS_clean_linker_0, # of connection points: 2
#     Edge 42, Type (0, 0), BuildingBlock: ZUJKAS_clean_linker_0, # of connection points: 2
#     Edge 43, Type (0, 0), BuildingBlock: ZUJKAS_clean_linker_0, # of connection points: 2
#     Edge 44, Type (0, 0), BuildingBlock: ZUJKAS_clean_linker_0, # of connection points: 2
#     Edge 45, Type (0, 0), BuildingBlock: ZUJKAS_clean_linker_0, # of connection points: 2
#     Edge 46, Type (0, 0), BuildingBlock: ZUJKAS_clean_linker_0, # of connection points: 2
#     Edge 47, Type (0, 0), BuildingBlock: ZUJKAS_clean_linker_0, # of connection points: 2
#     Edge 48, Type (0, 0), BuildingBlock: ZUJKAS_clean_linker_0, # of connection points: 2
#     Edge 49, Type (0, 0), BuildingBlock: ZUJKAS_clean_linker_0, # of connection points: 2
#     Edge 50, Type (0, 0), BuildingBlock: ZUJKAS_clean_linker_0, # of connection points: 2
#     Edge 51, Type (0, 0), BuildingBlock: ZUJKAS_clean_linker_0, # of connection points: 2
#     Edge 52, Type (0, 0), BuildingBlock: ZUJKAS_clean_linker_0, # of connection points: 2
#     Edge 53, Type (0, 0), BuildingBlock: ZUJKAS_clean_linker_0, # of connection points: 2
#     Edge 54, Type (0, 0), BuildingBlock: ZUJKAS_clean_linker_0, # of connection points: 2
#     Edge 55, Type (0, 0), BuildingBlock: ZUJKAS_clean_linker_0, # of connection points: 2
#     Edge 56, Type (0, 0), BuildingBlock: ZUJKAS_clean_linker_0, # of connection points: 2
#     Edge 57, Type (0, 0), BuildingBlock: ZUJKAS_clean_linker_0, # of connection points: 2
#     Edge 58, Type (0, 0), BuildingBlock: ZUJKAS_clean_linker_0, # of connection points: 2
#     Edge 59, Type (0, 0), BuildingBlock: ZUJKAS_clean_linker_0, # of connection points: 2
#     Edge 60, Type (0, 0), BuildingBlock: ZUJKAS_clean_linker_0, # of connection points: 2
#     Edge 61, Type (0, 0), BuildingBlock: ZUJKAS_clean_linker_0, # of connection points: 2
#     Edge 62, Type (0, 0), BuildingBlock: ZUJKAS_clean_linker_0, # of connection points: 2
#     Edge 63, Type (0, 0), BuildingBlock: ZUJKAS_clean_linker_0, # of connection points: 2
#     Edge 64, Type (0, 0), BuildingBlock: ZUJKAS_clean_linker_0, # of connection points: 2
#     Edge 65, Type (0, 0), BuildingBlock: ZUJKAS_clean_linker_0, # of connection points: 2
#     Edge 66, Type (0, 0), BuildingBlock: ZUJKAS_clean_linker_0, # of connection points: 2
#     Edge 67, Type (0, 0), BuildingBlock: ZUJKAS_clean_linker_0, # of connection points: 2
#     Edge 68, Type (0, 0), BuildingBlock: ZUJKAS_clean_linker_0, # of connection points: 2
#     Edge 69, Type (0, 0), BuildingBlock: ZUJKAS_clean_linker_0, # of connection points: 2
#     Edge 70, Type (0, 0), BuildingBlock: ZUJKAS_clean_linker_0, # of connection points: 2
#     Edge 71, Type (0, 0), BuildingBlock: ZUJKAS_clean_linker_0, # of connection points: 2
#     Edge 72, Type (0, 0), BuildingBlock: ZUJKAS_clean_linker_0, # of connection points: 2
#     Edge 73, Type (0, 0), BuildingBlock: ZUJKAS_clean_linker_0, # of connection points: 2
#     Edge 74, Type (0, 0), BuildingBlock: ZUJKAS_clean_linker_0, # of connection points: 2
#     Edge 75, Type (0, 0), BuildingBlock: ZUJKAS_clean_linker_0, # of connection points: 2
#     Edge 76, Type (0, 0), BuildingBlock: ZUJKAS_clean_linker_0, # of connection points: 2
#     Edge 77, Type (0, 0), BuildingBlock: ZUJKAS_clean_linker_0, # of connection points: 2
#     Edge 78, Type (0, 0), BuildingBlock: ZUJKAS_clean_linker_0, # of connection points: 2
#     Edge 79, Type (0, 0), BuildingBlock: ZUJKAS_clean_linker_0, # of connection points: 2
#     Edge 80, Type (0, 0), BuildingBlock: ZUJKAS_clean_linker_0, # of connection points: 2
#     Edge 81, Type (0, 0), BuildingBlock: ZUJKAS_clean_linker_0, # of connection points: 2
#     Edge 82, Type (0, 0), BuildingBlock: ZUJKAS_clean_linker_0, # of connection points: 2
#     Edge 83, Type (0, 0), BuildingBlock: ZUJKAS_clean_linker_0, # of connection points: 2
# Relax obj value: 0.450
# Max RMSD: 0.290
# Mean RMSD: 0.290
data_MOF--net-fca--node1-BEQFEK_clean_sbu_0--edge1-ZUJKAS_clean_linker_0
_symmetry_space_group_name_H-M    P1
_symmetry_Int_Tables_number       1
_symmetry_cell_setting            triclinic
loop_
_symmetry_equiv_pos_as_xyz
'x, y, z'
_cell_length_a     70.166031
_cell_length_b     70.174693
_cell_length_c     70.172923
_cell_angle_alpha  90.012298
_cell_angle_beta   90.022595
_cell_angle_gamma 89.994361
loop_
_atom_site_label
_atom_site_type_symbol
_atom_site_fract_x
_atom_site_fract_y
_atom_site_fract_z
_atom_type_partial_charge
Co0 Co 0.03413 0.37596 0.29286 0.0
Co1 Co 0.06186 0.38025 0.32735 0.0
C2 C 0.07592 0.3847 0.28732 0.0
O3 O 0.05928 0.38147 0.28076 0.0
O4 O 0.07926 0.38366 0.30515 0.0
C5 C 0.0187 0.36055 0.25757 0.0
O6 O 0.03608 0.35475 0.25374 0.0
C7 C 0.09203 0.37158 0.35515 0.0
C8 C 0.08353 0.39012 0.37916 0.0
C9 C 0.09707 0.37687 0.37358 0.0
N10 N 0.07627 0.38127 0.35022 0.0
N11 N 0.07141 0.39248 0.36454 0.0
C12 C 0.10084 0.35649 0.34295 0.0
H13 H 0.09076 0.35198 0.33161 0.0
H14 H 0.10501 0.34402 0.35173 0.0
H15 H 0.11382 0.36232 0.33607 0.0
C16 C 0.02091 0.3433 0.31555 0.0
N17 N 0.03427 0.35659 0.31176 0.0
N18 N 0.04567 0.35833 0.32654 0.0
C19 C 0.03983 0.34618 0.34029 0.0
C20 C 0.02389 0.33622 0.33383 0.0
C21 C 0.0036 0.34033 0.30341 0.0
H22 H 0.99637 0.3542 0.30111 0.0
H23 H 0.00804 0.33475 0.28931 0.0
H24 H 0.9933 0.33028 0.30991 0.0
O25 O 0.02525 0.40008 0.30438 0.0
O26 O 0.0459 0.40318 0.32812 0.0
H27 H 0.04535 0.35955 0.36711 0.0
H28 H 0.04174 0.33403 0.36861 0.0
C29 C 0.04801 0.34569 0.35998 0.0
H30 H 0.06362 0.34354 0.35912 0.0
H31 H 0.05957 0.40149 0.36448 0.0
O32 O 0.01544 0.36956 0.27293 0.0
C33 C 0.0319 0.40939 0.31846 0.0
Co34 Co 0.98336 0.63952 0.2913 0.0
Co35 Co 0.95609 0.63653 0.3263 0.0
C36 C 0.94128 0.63141 0.28667 0.0
O37 O 0.9579 0.63419 0.27989 0.0
O38 O 0.93812 0.63297 0.3045 0.0
C39 C 0.99805 0.65366 0.25524 0.0
O40 O 0.9807 0.65985 0.25187 0.0
C41 C 0.92691 0.646 0.35505 0.0
C42 C 0.93634 0.6279 0.37905 0.0
C43 C 0.92267 0.64115 0.37379 0.0
N44 N 0.94239 0.6361 0.34964 0.0
N45 N 0.94779 0.62515 0.36397 0.0
C46 C 0.91765 0.6609 0.34295 0.0
H47 H 0.92724 0.66512 0.33109 0.0
H48 H 0.91395 0.67357 0.35167 0.0
H49 H 0.90433 0.65503 0.33677 0.0
C50 C 0.99758 0.6724 0.31305 0.0
N51 N 0.98392 0.65927 0.30977 0.0
N52 N 0.97271 0.65809 0.32474 0.0
C53 C 0.979 0.67044 0.33812 0.0
C54 C 0.99503 0.67994 0.3312 0.0
C55 C 0.01472 0.67479 0.30055 0.0
H56 H 0.02167 0.66075 0.29846 0.0
H57 H 0.0101 0.68008 0.28639 0.0
H58 H 0.02527 0.68485 0.30664 0.0
O59 O 0.992 0.61544 0.30307 0.0
O60 O 0.97158 0.61327 0.32707 0.0
H61 H 0.97377 0.65783 0.36534 0.0
H62 H 0.97777 0.68332 0.36616 0.0
C63 C 0.97118 0.67155 0.35792 0.0
H64 H 0.95559 0.67391 0.35726 0.0
H65 H 0.95957 0.61608 0.3636 0.0
O66 O 0.00163 0.64504 0.27075 0.0
C67 C 0.98529 0.60653 0.31736 0.0
Co68 Co 0.03219 0.64074 0.7322 0.0
Co69 Co 0.06024 0.63857 0.6979 0.0
C70 C 0.07339 0.6319 0.73841 0.0
O71 O 0.05689 0.63543 0.7451 0.0
O72 O 0.07663 0.63325 0.7206 0.0
C73 C 0.01394 0.65654 0.7658 0.0
O74 O 0.02955 0.66663 0.76812 0.0
C75 C 0.09117 0.65164 0.67305 0.0
C76 C 0.08667 0.63363 0.64762 0.0
C77 C 0.09819 0.648 0.65483 0.0
N78 N 0.07618 0.64014 0.67614 0.0
N79 N 0.07368 0.62928 0.66098 0.0
C80 C 0.0986 0.66525 0.68769 0.0
H81 H 0.09431 0.66065 0.70218 0.0
H82 H 0.09234 0.67955 0.68515 0.0
H83 H 0.11436 0.66627 0.68687 0.0
C84 C 0.0185 0.67419 0.71063 0.0
N85 N 0.03217 0.66115 0.71426 0.0
N86 N 0.04373 0.66016 0.69955 0.0
C87 C 0.0376 0.67241 0.68597 0.0
C88 C 0.02129 0.68169 0.69249 0.0
C89 C 0.00184 0.67788 0.72343 0.0
H90 H 0.00712 0.68231 0.73763 0.0
H91 H 0.99252 0.68937 0.71785 0.0
H92 H 0.99343 0.66461 0.72513 0.0
O93 O 0.02476 0.61684 0.71905 0.0
O94 O 0.04449 0.61577 0.69434 0.0
H95 H 0.0364 0.68171 0.65646 0.0
H96 H 0.05992 0.67718 0.66583 0.0
C97 C 0.04489 0.67232 0.66592 0.0
H98 H 0.04448 0.65758 0.66024 0.0
H99 H 0.06297 0.61907 0.65966 0.0
O100 O 0.01264 0.64514 0.75179 0.0
C101 C 0.03095 0.60866 0.70406 0.0
Co102 Co 0.98468 0.37828 0.72451 0.0
Co103 Co 0.95898 0.38282 0.68857 0.0
C104 C 0.94316 0.38756 0.72828 0.0
O105 O 0.95925 0.3837 0.73575 0.0
O106 O 0.94091 0.38697 0.71025 0.0
C107 C 0.99868 0.36337 0.76045 0.0
O108 O 0.98115 0.35756 0.76349 0.0
C109 C 0.92981 0.37243 0.66056 0.0
C110 C 0.93699 0.39157 0.63661 0.0
C111 C 0.92441 0.37741 0.64217 0.0
N112 N 0.94483 0.38318 0.66553 0.0
N113 N 0.94893 0.39474 0.65125 0.0
C114 C 0.92205 0.35675 0.67272 0.0
H115 H 0.93247 0.35279 0.68395 0.0
H116 H 0.91856 0.3441 0.66389 0.0
H117 H 0.90879 0.36174 0.67975 0.0
C118 C 0.99848 0.34519 0.7027 0.0
N119 N 0.98521 0.35875 0.70573 0.0
N120 N 0.97478 0.3607 0.69028 0.0
C121 C 0.98131 0.34857 0.67679 0.0
C122 C 0.99667 0.33835 0.68419 0.0
C123 C 0.0139 0.34035 0.71663 0.0
H124 H 0.02359 0.35274 0.71824 0.0
H125 H 0.00746 0.33727 0.73071 0.0
H126 H 0.02222 0.32773 0.71198 0.0
O127 O 0.99379 0.40251 0.71321 0.0
O128 O 0.97546 0.40537 0.6876 0.0
H129 H 0.98429 0.34019 0.64714 0.0
H130 H 0.96028 0.34487 0.6551 0.0
C131 C 0.97536 0.34944 0.65632 0.0
H132 H 0.97636 0.36434 0.65117 0.0
H133 H 0.96009 0.40454 0.65136 0.0
O134 O 0.00267 0.37215 0.74514 0.0
C135 C 0.98863 0.4116 0.69837 0.0
Co136 Co 0.29516 0.03878 0.37446 0.0
Co137 Co 0.3315 0.06351 0.38047 0.0
C138 C 0.29205 0.07996 0.3851 0.0
O139 O 0.28437 0.06424 0.38034 0.0
O140 O 0.31012 0.08181 0.3851 0.0
C141 C 0.26121 0.01943 0.38002 0.0
O142 O 0.26287 0.02832 0.39643 0.0
C143 C 0.36001 0.09259 0.37124 0.0
C144 C 0.38305 0.08556 0.39154 0.0
C145 C 0.37806 0.09814 0.37717 0.0
N146 N 0.35473 0.07734 0.38151 0.0
N147 N 0.3685 0.07328 0.3937 0.0
C148 C 0.34755 0.10193 0.35665 0.0
H149 H 0.35061 0.09575 0.34243 0.0
H150 H 0.35031 0.1175 0.3561 0.0
H151 H 0.33232 0.09926 0.35988 0.0
C152 C 0.31735 0.02499 0.3418 0.0
N153 N 0.31425 0.03827 0.35534 0.0
N154 N 0.32984 0.04835 0.35786 0.0
C155 C 0.3435 0.0416 0.34608 0.0
C156 C 0.33609 0.02651 0.33547 0.0
C157 C 0.3039 0.00884 0.33806 0.0
H158 H 0.30161 0.00077 0.35147 0.0
H159 H 0.28993 0.01464 0.33347 0.0
H160 H 0.3093 0.99894 0.32701 0.0
O161 O 0.30582 0.02867 0.39861 0.0
O162 O 0.33182 0.04628 0.4025 0.0
H163 H 0.36986 0.04466 0.3611 0.0
H164 H 0.37261 0.04065 0.33572 0.0
C165 C 0.3639 0.04781 0.34679 0.0
H166 H 0.36471 0.06339 0.34451 0.0
H167 H 0.36799 0.0621 0.40349 0.0
O168 O 0.2738 0.0221 0.36734 0.0
C169 C 0.32061 0.0332 0.40812 0.0
Co170 Co 0.72496 0.98495 0.37978 0.0
Co171 Co 0.69055 0.95702 0.38238 0.0
C172 C 0.73087 0.94381 0.38962 0.0
O173 O 0.73754 0.96029 0.38598 0.0
O174 O 0.71307 0.94048 0.3881 0.0
C175 C 0.75956 0.00112 0.36432 0.0
O176 O 0.76221 0.98438 0.35637 0.0
C177 C 0.66479 0.92626 0.3703 0.0
C178 C 0.64044 0.93068 0.38978 0.0
C179 C 0.64693 0.9192 0.37509 0.0
N180 N 0.66853 0.94131 0.38153 0.0
N181 N 0.65398 0.94377 0.39323 0.0
C182 C 0.6785 0.91846 0.35594 0.0
H183 H 0.69334 0.92209 0.35999 0.0
H184 H 0.67559 0.92495 0.34183 0.0
H185 H 0.67688 0.90278 0.35465 0.0
C186 C 0.70403 0.99759 0.34563 0.0
N187 N 0.70729 0.98433 0.35919 0.0
N188 N 0.69248 0.9729 0.36032 0.0
C189 C 0.67917 0.97874 0.34767 0.0
C190 C 0.68606 0.99457 0.33784 0.0
C191 C 0.71616 0.01496 0.34304 0.0
H192 H 0.71805 0.0222 0.35697 0.0
H193 H 0.73041 0.0106 0.33778 0.0
H194 H 0.70987 0.02522 0.33281 0.0
O195 O 0.71166 0.99353 0.40319 0.0
O196 O 0.68713 0.9736 0.40462 0.0
H197 H 0.65242 0.97283 0.36105 0.0
H198 H 0.6506 0.97821 0.33584 0.0
C199 C 0.65929 0.97104 0.34692 0.0
H200 H 0.65978 0.95562 0.34367 0.0
H201 H 0.65325 0.95447 0.40354 0.0
O202 O 0.74495 0.00392 0.37461 0.0
C203 C 0.6966 0.9875 0.41135 0.0
Co204 Co 0.2914 0.9839 0.63842 0.0
Co205 Co 0.32634 0.95673 0.63462 0.0
C206 C 0.286 0.94241 0.62997 0.0
O207 O 0.27905 0.9588 0.63355 0.0
O208 O 0.30393 0.9396 0.63064 0.0
C209 C 0.25624 0.99962 0.65337 0.0
O210 O 0.25256 0.98232 0.65949 0.0
C211 C 0.35288 0.92652 0.6461 0.0
C212 C 0.37691 0.93142 0.62634 0.0
C213 C 0.37084 0.91981 0.6411 0.0
N214 N 0.34872 0.9415 0.63493 0.0
N215 N 0.36307 0.94426 0.62306 0.0
C216 C 0.33951 0.91856 0.66067 0.0
H217 H 0.32454 0.92176 0.65674 0.0
H218 H 0.34237 0.92534 0.67466 0.0
H219 H 0.34149 0.90293 0.66213 0.0
C220 C 0.31377 0.99781 0.67118 0.0
N221 N 0.3102 0.98427 0.65798 0.0
N222 N 0.3252 0.97317 0.65631 0.0
C223 C 0.33893 0.97948 0.66827 0.0
C224 C 0.33217 0.99533 0.67817 0.0
C225 C 0.30126 0.01484 0.6742 0.0
H226 H 0.28711 0.01004 0.67935 0.0
H227 H 0.30736 0.02501 0.68462 0.0
H228 H 0.29917 0.0223 0.66042 0.0
O229 O 0.30309 0.99186 0.61399 0.0
O230 O 0.32805 0.97256 0.6116 0.0
H231 H 0.36533 0.97382 0.65413 0.0
H232 H 0.36784 0.97928 0.67926 0.0
C233 C 0.3589 0.97198 0.66845 0.0
H234 H 0.35867 0.95656 0.67174 0.0
H235 H 0.36346 0.95499 0.61277 0.0
O236 O 0.27153 0.00283 0.64425 0.0
C237 C 0.31771 0.98591 0.60501 0.0
Co238 Co 0.72415 0.03151 0.63827 0.0
Co239 Co 0.69033 0.06025 0.63652 0.0
C240 C 0.73068 0.0731 0.63027 0.0
O241 O 0.73691 0.05631 0.63316 0.0
O242 O 0.71298 0.07683 0.63185 0.0
C243 C 0.75644 0.01219 0.65589 0.0
O244 O 0.75626 0.02571 0.66885 0.0
C245 C 0.66448 0.09136 0.64794 0.0
C246 C 0.64019 0.08625 0.62852 0.0
C247 C 0.64666 0.09827 0.64276 0.0
N248 N 0.66823 0.07589 0.63728 0.0
N249 N 0.6537 0.073 0.62565 0.0
C250 C 0.6781 0.09969 0.66208 0.0
H251 H 0.69295 0.09566 0.65848 0.0
H252 H 0.67487 0.094 0.67646 0.0
H253 H 0.67668 0.11544 0.66253 0.0
C254 C 0.70224 0.01769 0.67154 0.0
N255 N 0.70613 0.0314 0.6586 0.0
N256 N 0.69185 0.04355 0.65804 0.0
C257 C 0.67842 0.03792 0.67065 0.0
C258 C 0.68457 0.02136 0.67971 0.0
C259 C 0.71326 0.99946 0.67314 0.0
H260 H 0.72642 0.00209 0.68148 0.0
H261 H 0.70497 0.9881 0.68033 0.0
H262 H 0.71734 0.99437 0.65875 0.0
O263 O 0.71115 0.02395 0.61443 0.0
O264 O 0.68721 0.04457 0.61352 0.0
H265 H 0.65063 0.04041 0.68393 0.0
H266 H 0.66067 0.06226 0.67504 0.0
C267 C 0.65911 0.04683 0.67223 0.0
H268 H 0.65139 0.04509 0.65854 0.0
H269 H 0.65299 0.06195 0.61572 0.0
O270 O 0.74426 0.01242 0.6425 0.0
C271 C 0.6964 0.03072 0.60632 0.0
Co272 Co 0.37848 0.28745 0.03371 0.0
Co273 Co 0.38032 0.32322 0.06006 0.0
C274 C 0.38589 0.2839 0.07585 0.0
O275 O 0.38302 0.2766 0.05949 0.0
O276 O 0.38451 0.30183 0.07836 0.0
C277 C 0.3601 0.25462 0.01604 0.0
O278 O 0.346 0.25714 0.02809 0.0
C279 C 0.36937 0.35154 0.08918 0.0
C280 C 0.38848 0.37542 0.08167 0.0
C281 C 0.37453 0.36991 0.09447 0.0
N282 N 0.37973 0.34656 0.07386 0.0
N283 N 0.39118 0.36086 0.06952 0.0
C284 C 0.35548 0.33858 0.09887 0.0
H285 H 0.35912 0.32347 0.09605 0.0
H286 H 0.34098 0.34124 0.09317 0.0
H287 H 0.3553 0.34131 0.11446 0.0
C288 C 0.34597 0.3091 0.01759 0.0
N289 N 0.35855 0.30584 0.03181 0.0
N290 N 0.35902 0.32079 0.04314 0.0
C291 C 0.34661 0.33396 0.03653 0.0
C292 C 0.33786 0.327 0.02012 0.0
C293 C 0.34472 0.29718 0.99991 0.0
H294 H 0.35902 0.29173 0.99602 0.0
H295 H 0.33515 0.2849 0.00261 0.0
H296 H 0.33894 0.30537 0.98768 0.0
O297 O 0.4027 0.29933 0.02575 0.0
O298 O 0.40367 0.32466 0.04465 0.0
H299 H 0.35835 0.36151 0.04216 0.0
H300 H 0.33291 0.36162 0.03775 0.0
C301 C 0.34481 0.35367 0.04447 0.0
H302 H 0.34221 0.35286 0.05999 0.0
H303 H 0.40086 0.36071 0.05824 0.0
O304 O 0.37431 0.26582 0.01632 0.0
C305 C 0.41099 0.31434 0.03169 0.0
Co306 Co 0.37675 0.72509 0.98597 0.0
Co307 Co 0.37782 0.69165 0.95678 0.0
C308 C 0.38557 0.73207 0.94468 0.0
O309 O 0.38256 0.73821 0.96149 0.0
O310 O 0.38361 0.71446 0.94076 0.0
C311 C 0.36194 0.75954 0.00226 0.0
O312 O 0.35451 0.76229 0.98529 0.0
C313 C 0.36548 0.66742 0.92481 0.0
C314 C 0.38101 0.64079 0.93119 0.0
C315 C 0.36827 0.64882 0.91837 0.0
N316 N 0.37588 0.66993 0.94071 0.0
N317 N 0.38527 0.65404 0.94432 0.0
C318 C 0.35357 0.68279 0.91607 0.0
H319 H 0.3387 0.68148 0.92128 0.0
H320 H 0.35364 0.68162 0.90029 0.0
H321 H 0.35888 0.69703 0.92033 0.0
C322 C 0.3426 0.70438 0.99888 0.0
N323 N 0.35586 0.70786 0.98539 0.0
N324 N 0.35616 0.69364 0.97319 0.0
C325 C 0.34307 0.68059 0.9786 0.0
C326 C 0.33401 0.68691 0.99511 0.0
C327 C 0.341 0.71565 0.01694 0.0
H328 H 0.35531 0.71719 0.02349 0.0
H329 H 0.33557 0.7301 0.01355 0.0
H330 H 0.33132 0.70889 0.02742 0.0
O331 O 0.40012 0.71118 0.99356 0.0
O332 O 0.40053 0.68739 0.97268 0.0
H333 H 0.3542 0.6531 0.97164 0.0
H334 H 0.32871 0.65342 0.97562 0.0
C335 C 0.34092 0.66141 0.96954 0.0
H336 H 0.33861 0.66316 0.95402 0.0
H337 H 0.39438 0.65215 0.95592 0.0
O338 O 0.37197 0.74479 0.00533 0.0
C339 C 0.40786 0.69624 0.98672 0.0
Co340 Co 0.64059 0.29303 0.98229 0.0
Co341 Co 0.63506 0.32898 0.95679 0.0
C342 C 0.62918 0.28938 0.94119 0.0
O343 O 0.63385 0.28186 0.95705 0.0
O344 O 0.62979 0.3074 0.93894 0.0
C345 C 0.65435 0.25628 0.99579 0.0
O346 O 0.65804 0.25224 0.97789 0.0
C347 C 0.64315 0.35698 0.92682 0.0
C348 C 0.62587 0.3815 0.93643 0.0
C349 C 0.63833 0.37564 0.92227 0.0
N350 N 0.63396 0.35215 0.94289 0.0
N351 N 0.62347 0.36677 0.94843 0.0
C352 C 0.6575 0.34446 0.91727 0.0
H353 H 0.66199 0.33279 0.92696 0.0
H354 H 0.67011 0.35291 0.91282 0.0
H355 H 0.651 0.33804 0.90436 0.0
C356 C 0.674 0.31496 0.99503 0.0
N357 N 0.66016 0.31177 0.98206 0.0
N358 N 0.65791 0.32709 0.97151 0.0
C359 C 0.67024 0.3406 0.97755 0.0
C360 C 0.68085 0.33343 0.99275 0.0
C361 C 0.67768 0.30198 0.01157 0.0
H362 H 0.66428 0.30003 0.01974 0.0
H363 H 0.68217 0.28781 0.00617 0.0
H364 H 0.6888 0.30758 0.02129 0.0
O365 O 0.61694 0.3044 0.99254 0.0
O366 O 0.61338 0.33003 0.97438 0.0
H367 H 0.65644 0.36755 0.97423 0.0
H368 H 0.6821 0.3691 0.97667 0.0
C369 C 0.6702 0.36072 0.97049 0.0
H370 H 0.67158 0.36076 0.95477 0.0
H371 H 0.615 0.36684 0.96064 0.0
O372 O 0.64729 0.27238 1.00007 0.0
C373 C 0.60773 0.3193 0.98784 0.0
Co374 Co 0.63528 0.72169 0.02954 0.0
Co375 Co 0.63287 0.68732 0.05755 0.0
C376 C 0.62628 0.72761 0.07094 0.0
O377 O 0.62958 0.73417 0.05435 0.0
O378 O 0.62771 0.70982 0.07431 0.0
C379 C 0.65049 0.75664 0.01445 0.0
O380 O 0.65731 0.75919 0.0317 0.0
C381 C 0.6448 0.66159 0.08838 0.0
C382 C 0.626 0.63682 0.08333 0.0
C383 C 0.64026 0.64357 0.0952 0.0
N384 N 0.63384 0.66517 0.07309 0.0
N385 N 0.62255 0.65037 0.07023 0.0
C386 C 0.65869 0.67556 0.09655 0.0
H387 H 0.67298 0.67302 0.09029 0.0
H388 H 0.65971 0.67388 0.11225 0.0
H389 H 0.6544 0.69034 0.09296 0.0
C390 C 0.66915 0.70062 0.01649 0.0
N391 N 0.6557 0.70388 0.02983 0.0
N392 N 0.65473 0.68914 0.04137 0.0
C393 C 0.66748 0.67591 0.03556 0.0
C394 C 0.67712 0.68274 0.01958 0.0
C395 C 0.67154 0.71272 0.99906 0.0
H396 H 0.6575 0.71466 0.99204 0.0
H397 H 0.6769 0.72696 0.00333 0.0
H398 H 0.68157 0.70638 0.98864 0.0
O399 O 0.6116 0.70869 0.02123 0.0
O400 O 0.61026 0.68426 0.04129 0.0
H401 H 0.65482 0.64887 0.04167 0.0
H402 H 0.68018 0.64776 0.03685 0.0
C403 C 0.66869 0.65621 0.04365 0.0
H404 H 0.67158 0.65708 0.05912 0.0
H405 H 0.61253 0.64947 0.05928 0.0
O406 O 0.64072 0.74184 0.0108 0.0
C407 C 0.60336 0.69376 0.02748 0.0
Co408 Co 0.53082 0.87961 0.79321 0.0
Co409 Co 0.55848 0.88343 0.82777 0.0
C410 C 0.57218 0.88825 0.7873 0.0
O411 O 0.55571 0.88457 0.78064 0.0
O412 O 0.57531 0.88762 0.80518 0.0
C413 C 0.51495 0.86359 0.75874 0.0
O414 O 0.53184 0.85591 0.75622 0.0
C415 C 0.58894 0.87184 0.85397 0.0
C416 C 0.58452 0.89177 0.87795 0.0
C417 C 0.59588 0.87684 0.87182 0.0
N418 N 0.57404 0.88315 0.84991 0.0
N419 N 0.57158 0.89514 0.86422 0.0
C420 C 0.59664 0.85711 0.84059 0.0
H421 H 0.58966 0.84323 0.84347 0.0
H422 H 0.61224 0.8554 0.84256 0.0
H423 H 0.59347 0.86108 0.82563 0.0
C424 C 0.51739 0.84673 0.81561 0.0
N425 N 0.53081 0.85999 0.8119 0.0
N426 N 0.54216 0.86163 0.82673 0.0
C427 C 0.53613 0.84958 0.84048 0.0
C428 C 0.52022 0.83965 0.83391 0.0
C429 C 0.50014 0.84376 0.80338 0.0
H430 H 0.49297 0.85764 0.80096 0.0
H431 H 0.50464 0.83806 0.78935 0.0
H432 H 0.48979 0.83376 0.80989 0.0
O433 O 0.52287 0.90395 0.80512 0.0
O434 O 0.54251 0.90631 0.82984 0.0
H435 H 0.54222 0.8637 0.86682 0.0
H436 H 0.53672 0.83858 0.86939 0.0
C437 C 0.5439 0.84936 0.86035 0.0
H438 H 0.5593 0.84601 0.85992 0.0
H439 H 0.56096 0.90555 0.86468 0.0
O440 O 0.5119 0.87389 0.7733 0.0
C441 C 0.52896 0.91286 0.81973 0.0
Co442 Co 0.48298 0.14263 0.78924 0.0
Co443 Co 0.45585 0.13867 0.82411 0.0
C444 C 0.44206 0.13266 0.78358 0.0
O445 O 0.4583 0.13679 0.77664 0.0
O446 O 0.43917 0.13351 0.8015 0.0
C447 C 0.49887 0.15667 0.75382 0.0
O448 O 0.48142 0.16197 0.74958 0.0
C449 C 0.42576 0.15099 0.85037 0.0
C450 C 0.42741 0.12872 0.87259 0.0
C451 C 0.41747 0.14493 0.86729 0.0
N452 N 0.43997 0.13894 0.846 0.0
N453 N 0.44084 0.12564 0.85929 0.0
C454 C 0.41965 0.16712 0.83784 0.0
H455 H 0.42409 0.16444 0.82289 0.0
H456 H 0.42663 0.18044 0.84269 0.0
H457 H 0.40398 0.16913 0.8386 0.0
C458 C 0.49567 0.17623 0.81083 0.0
N459 N 0.48246 0.16267 0.80753 0.0
N460 N 0.4717 0.16076 0.82276 0.0
C461 C 0.47813 0.17272 0.83646 0.0
C462 C 0.49363 0.18295 0.82936 0.0
C463 C 0.51129 0.18117 0.79717 0.0
H464 H 0.52138 0.16904 0.79612 0.0
H465 H 0.50512 0.18377 0.78287 0.0
H466 H 0.51914 0.19412 0.80174 0.0
O467 O 0.49154 0.11868 0.80171 0.0
O468 O 0.4724 0.11638 0.8268 0.0
H469 H 0.47095 0.1563 0.8612 0.0
H470 H 0.48237 0.17878 0.8665 0.0
C471 C 0.47215 0.17146 0.8569 0.0
H472 H 0.45795 0.17816 0.85857 0.0
H473 H 0.45053 0.11435 0.85922 0.0
O474 O 0.50213 0.14837 0.76957 0.0
C475 C 0.48597 0.10997 0.81665 0.0
Co476 Co 0.53495 0.14021 0.22609 0.0
Co477 Co 0.56142 0.1367 0.19055 0.0
C478 C 0.57646 0.13022 0.23016 0.0
O479 O 0.56021 0.13389 0.23736 0.0
O480 O 0.57919 0.13155 0.21225 0.0
C481 C 0.52186 0.15553 0.26197 0.0
O482 O 0.53957 0.16106 0.26445 0.0
C483 C 0.59097 0.14675 0.16242 0.0
C484 C 0.58262 0.1284 0.13822 0.0
C485 C 0.59587 0.14192 0.14383 0.0
N486 N 0.57544 0.13669 0.16736 0.0
N487 N 0.57063 0.12565 0.15289 0.0
C488 C 0.60104 0.16017 0.1756 0.0
H489 H 0.59522 0.17473 0.17365 0.0
H490 H 0.61655 0.16044 0.17252 0.0
H491 H 0.5986 0.15597 0.19063 0.0
C492 C 0.52141 0.1737 0.20482 0.0
N493 N 0.53486 0.16029 0.2079 0.0
N494 N 0.54581 0.1589 0.19276 0.0
C495 C 0.53952 0.17133 0.17946 0.0
C496 C 0.5238 0.18115 0.18661 0.0
C497 C 0.50443 0.17638 0.21747 0.0
H498 H 0.50927 0.18151 0.23162 0.0
H499 H 0.49407 0.18671 0.21153 0.0
H500 H 0.49719 0.16248 0.21953 0.0
O501 O 0.52538 0.11656 0.21398 0.0
O502 O 0.54455 0.11444 0.18891 0.0
H503 H 0.54388 0.15807 0.15237 0.0
H504 H 0.53995 0.18355 0.15109 0.0
C505 C 0.54674 0.17194 0.1594 0.0
H506 H 0.56234 0.17427 0.15952 0.0
H507 H 0.55904 0.11634 0.15294 0.0
O508 O 0.5173 0.14651 0.24695 0.0
C509 C 0.53095 0.10797 0.19898 0.0
Co510 Co 0.48582 0.87916 0.22338 0.0
Co511 Co 0.45791 0.88281 0.18904 0.0
C512 C 0.44466 0.88883 0.22949 0.0
O513 O 0.46113 0.88507 0.23615 0.0
O514 O 0.44141 0.88772 0.21166 0.0
C515 C 0.50165 0.86371 0.25814 0.0
O516 O 0.48439 0.85727 0.26147 0.0
C517 C 0.42692 0.87153 0.16333 0.0
C518 C 0.43126 0.89134 0.13923 0.0
C519 C 0.41973 0.87666 0.14563 0.0
N520 N 0.44211 0.88256 0.16708 0.0
N521 N 0.44454 0.89446 0.1527 0.0
C522 C 0.41915 0.85702 0.17689 0.0
H523 H 0.42559 0.84293 0.17377 0.0
H524 H 0.40345 0.8558 0.17534 0.0
H525 H 0.42286 0.86084 0.19177 0.0
C526 C 0.49831 0.84551 0.20146 0.0
N527 N 0.48519 0.85912 0.20506 0.0
N528 N 0.47375 0.86072 0.1903 0.0
C529 C 0.47942 0.84832 0.1767 0.0
C530 C 0.49518 0.83819 0.1833 0.0
C531 C 0.5156 0.84237 0.21359 0.0
H532 H 0.52326 0.85607 0.21545 0.0
H533 H 0.51108 0.83731 0.22786 0.0
H534 H 0.52551 0.83181 0.20729 0.0
O535 O 0.49428 0.90306 0.2109 0.0
O536 O 0.47434 0.90527 0.18643 0.0
H537 H 0.47344 0.8622 0.15022 0.0
H538 H 0.47843 0.83694 0.14795 0.0
C539 C 0.47151 0.84799 0.15688 0.0
H540 H 0.45605 0.84495 0.15746 0.0
H541 H 0.45532 0.90468 0.15203 0.0
O542 O 0.50489 0.87323 0.24309 0.0
C543 C 0.48816 0.91177 0.19618 0.0
Co544 Co 0.79036 0.53086 0.87674 0.0
Co545 Co 0.82492 0.55857 0.87947 0.0
C546 C 0.78536 0.57301 0.88491 0.0
O547 O 0.7788 0.55627 0.8823 0.0
O548 O 0.80312 0.5764 0.88313 0.0
C549 C 0.7575 0.51319 0.85809 0.0
O550 O 0.75822 0.52692 0.84539 0.0
C551 C 0.85301 0.58859 0.87091 0.0
C552 C 0.87752 0.57865 0.88804 0.0
C553 C 0.87173 0.59298 0.87574 0.0
N554 N 0.84812 0.57243 0.87994 0.0
N555 N 0.86276 0.56669 0.89029 0.0
C556 C 0.84038 0.59848 0.85687 0.0
H557 H 0.84876 0.60333 0.84436 0.0
H558 H 0.83388 0.61114 0.86376 0.0
H559 H 0.82876 0.58884 0.85215 0.0
C560 C 0.81244 0.5168 0.84365 0.0
N561 N 0.8088 0.53034 0.85684 0.0
N562 N 0.82336 0.54213 0.85774 0.0
C563 C 0.83666 0.53652 0.84499 0.0
C564 C 0.83022 0.52025 0.8356 0.0
C565 C 0.8009 0.49895 0.84155 0.0
H566 H 0.79622 0.49387 0.85575 0.0
H567 H 0.78809 0.50209 0.83285 0.0
H568 H 0.80907 0.48741 0.8345 0.0
O569 O 0.80243 0.52207 0.9006 0.0
O570 O 0.82607 0.54292 0.90264 0.0
H571 H 0.86429 0.54251 0.85634 0.0
H572 H 0.86381 0.53978 0.83069 0.0
C573 C 0.85596 0.5454 0.84321 0.0
H574 H 0.85443 0.56104 0.84169 0.0
H575 H 0.86278 0.55442 0.89869 0.0
O576 O 0.76953 0.5128 0.87162 0.0
C577 C 0.81672 0.52896 0.90938 0.0
Co578 Co 0.2281 0.47876 0.8763 0.0
Co579 Co 0.19252 0.4523 0.87922 0.0
C580 C 0.23192 0.43658 0.88366 0.0
O581 O 0.23901 0.45296 0.88049 0.0
O582 O 0.21398 0.43399 0.88286 0.0
C583 C 0.25909 0.49762 0.85566 0.0
O584 O 0.25381 0.48827 0.84033 0.0
C585 C 0.16427 0.42292 0.86909 0.0
C586 C 0.14042 0.43067 0.88816 0.0
C587 C 0.1459 0.41768 0.87435 0.0
N588 N 0.16925 0.4384 0.87923 0.0
N589 N 0.15498 0.44287 0.89067 0.0
C590 C 0.1772 0.4131 0.85526 0.0
H591 H 0.19232 0.41575 0.85898 0.0
H592 H 0.17471 0.4189 0.84077 0.0
H593 H 0.17434 0.39755 0.85502 0.0
C594 C 0.20465 0.49561 0.84541 0.0
N595 N 0.20885 0.48095 0.85719 0.0
N596 N 0.1942 0.46924 0.85783 0.0
C597 C 0.18042 0.47589 0.8461 0.0
C598 C 0.18657 0.49283 0.83779 0.0
C599 C 0.21558 0.51396 0.84491 0.0
H600 H 0.22307 0.51631 0.85861 0.0
H601 H 0.22617 0.51339 0.8332 0.0
H602 H 0.20604 0.52628 0.84223 0.0
O603 O 0.21712 0.48676 0.90092 0.0
O604 O 0.19179 0.46787 0.90259 0.0
H605 H 0.15318 0.46965 0.85821 0.0
H606 H 0.15266 0.47387 0.83276 0.0
C607 C 0.16092 0.46742 0.8446 0.0
H608 H 0.16209 0.4519 0.84206 0.0
H609 H 0.15515 0.4543 0.90018 0.0
O610 O 0.25 0.49556 0.87118 0.0
C611 C 0.20233 0.48085 0.90961 0.0
Co612 Co 0.7927 0.48403 0.13907 0.0
Co613 Co 0.82707 0.45591 0.13676 0.0
C614 C 0.78687 0.44244 0.13041 0.0
O615 O 0.78033 0.4591 0.13347 0.0
O616 O 0.80462 0.43898 0.13213 0.0
C617 C 0.75783 0.50015 0.15409 0.0
O618 O 0.75509 0.4834 0.162 0.0
C619 C 0.85369 0.42568 0.14861 0.0
C620 C 0.87766 0.43067 0.1288 0.0
C621 C 0.87164 0.41903 0.14354 0.0
N622 N 0.84945 0.44066 0.13746 0.0
N623 N 0.86379 0.44348 0.12558 0.0
C624 C 0.84036 0.41755 0.16313 0.0
H625 H 0.82539 0.42098 0.15939 0.0
H626 H 0.84344 0.42395 0.17725 0.0
H627 H 0.84224 0.40188 0.16424 0.0
C628 C 0.81399 0.49752 0.17261 0.0
N629 N 0.81066 0.48399 0.15935 0.0
N630 N 0.82547 0.47255 0.15832 0.0
C631 C 0.83885 0.47865 0.17079 0.0
C632 C 0.83201 0.49467 0.18034 0.0
C633 C 0.80179 0.51489 0.17496 0.0
H634 H 0.78758 0.51055 0.18033 0.0
H635 H 0.80807 0.52535 0.18498 0.0
H636 H 0.7998 0.52186 0.16091 0.0
O637 O 0.80551 0.49208 0.11528 0.0
O638 O 0.82945 0.47147 0.11365 0.0
H639 H 0.86566 0.47249 0.15767 0.0
H640 H 0.86731 0.47798 0.18287 0.0
C641 C 0.85866 0.47081 0.17174 0.0
H642 H 0.85804 0.4554 0.17504 0.0
H643 H 0.86413 0.4542 0.11528 0.0
O644 O 0.77262 0.50297 0.14405 0.0
C645 C 0.82003 0.48531 0.10674 0.0
Co646 Co 0.22581 0.53138 0.1394 0.0
Co647 Co 0.18989 0.55719 0.13484 0.0
C648 C 0.22966 0.57271 0.12934 0.0
O649 O 0.23717 0.55671 0.13349 0.0
O650 O 0.21165 0.57497 0.13002 0.0
C651 C 0.26203 0.51729 0.1538 0.0
O652 O 0.26575 0.53499 0.15864 0.0
C653 C 0.16206 0.5868 0.14504 0.0
C654 C 0.13802 0.57951 0.12602 0.0
C655 C 0.14368 0.59225 0.14 0.0
N656 N 0.16684 0.57144 0.13466 0.0
N657 N 0.15248 0.56725 0.12323 0.0
C658 C 0.1752 0.59624 0.15894 0.0
H659 H 0.17288 0.59011 0.17332 0.0
H660 H 0.17243 0.61181 0.15956 0.0
H661 H 0.19026 0.5936 0.15495 0.0
C662 C 0.20408 0.51783 0.17262 0.0
N663 N 0.20717 0.53111 0.15906 0.0
N664 N 0.19182 0.54169 0.15715 0.0
C665 C 0.17837 0.53531 0.16936 0.0
C666 C 0.18565 0.51992 0.17961 0.0
C667 C 0.2171 0.50123 0.17592 0.0
H668 H 0.21915 0.49341 0.16233 0.0
H669 H 0.23121 0.50655 0.18067 0.0
H670 H 0.21147 0.49122 0.18675 0.0
O671 O 0.21422 0.52203 0.11544 0.0
O672 O 0.18858 0.54033 0.11252 0.0
H673 H 0.15158 0.53941 0.1554 0.0
H674 H 0.14967 0.53528 0.18083 0.0
C675 C 0.15819 0.54223 0.16949 0.0
H676 H 0.15802 0.55781 0.17193 0.0
H677 H 0.15249 0.55592 0.11359 0.0
O678 O 0.24635 0.51332 0.14568 0.0
C679 C 0.19931 0.52707 0.10639 0.0
Co680 Co 0.88024 0.79066 0.5336 0.0
Co681 Co 0.88412 0.82602 0.56018 0.0
C682 C 0.8893 0.78599 0.57507 0.0
O683 O 0.88557 0.77879 0.55882 0.0
O684 O 0.88849 0.80395 0.57768 0.0
C685 C 0.86364 0.75644 0.51654 0.0
O686 O 0.85376 0.75435 0.53231 0.0
C687 C 0.87292 0.85347 0.58966 0.0
C688 C 0.89234 0.87748 0.58346 0.0
C689 C 0.87774 0.87178 0.59546 0.0
N690 N 0.88416 0.84868 0.57494 0.0
N691 N 0.8959 0.86298 0.57147 0.0
C692 C 0.85692 0.84129 0.59672 0.0
H693 H 0.85352 0.82997 0.58619 0.0
H694 H 0.84409 0.85011 0.59952 0.0
H695 H 0.86126 0.83439 0.61027 0.0
C696 C 0.84701 0.81263 0.51989 0.0
N697 N 0.86045 0.8093 0.53325 0.0
N698 N 0.86214 0.82447 0.54414 0.0
C699 C 0.84996 0.83804 0.53786 0.0
C700 C 0.83996 0.831 0.52219 0.0
C701 C 0.84242 0.79916 0.504 0.0
H702 H 0.83811 0.78526 0.51009 0.0
H703 H 0.8306 0.80448 0.49496 0.0
H704 H 0.85529 0.79691 0.49509 0.0
O705 O 0.90435 0.80258 0.525 0.0
O706 O 0.90673 0.82779 0.54391 0.0
H707 H 0.84154 0.86772 0.53539 0.0
H708 H 0.84547 0.85915 0.5593 0.0
C709 C 0.85055 0.85834 0.54437 0.0
H710 H 0.86545 0.86359 0.54399 0.0
H711 H 0.90606 0.86302 0.56061 0.0
O712 O 0.87496 0.77046 0.51485 0.0
C713 C 0.91318 0.81744 0.53053 0.0
Co714 Co 0.87948 0.22383 0.48595 0.0
Co715 Co 0.8819 0.18983 0.45746 0.0
C716 C 0.8879 0.23037 0.4446 0.0
O717 O 0.88451 0.23678 0.46124 0.0
O718 O 0.88671 0.2126 0.44109 0.0
C719 C 0.86221 0.25649 0.5047 0.0
O720 O 0.85058 0.25735 0.49005 0.0
C721 C 0.87011 0.16447 0.42621 0.0
C722 C 0.88931 0.13992 0.43074 0.0
C723 C 0.87493 0.14666 0.41903 0.0
N724 N 0.88105 0.16794 0.44155 0.0
N725 N 0.89258 0.15327 0.44408 0.0
C726 C 0.85597 0.17837 0.41833 0.0
H727 H 0.86003 0.19314 0.42218 0.0
H728 H 0.84174 0.17548 0.42456 0.0
H729 H 0.85494 0.17695 0.4026 0.0
C730 C 0.84624 0.20177 0.49949 0.0
N731 N 0.85934 0.20562 0.48593 0.0
N732 N 0.86026 0.19119 0.47399 0.0
C733 C 0.84779 0.17766 0.47965 0.0
C734 C 0.83841 0.1839 0.496 0.0
C735 C 0.84413 0.21315 0.51744 0.0
H736 H 0.8584 0.21661 0.52327 0.0
H737 H 0.83666 0.22667 0.51413 0.0
H738 H 0.83591 0.20543 0.5285 0.0
O739 O 0.90352 0.21108 0.49336 0.0
O740 O 0.90484 0.18673 0.47322 0.0
H741 H 0.86055 0.15086 0.47271 0.0
H742 H 0.83524 0.14948 0.47766 0.0
C743 C 0.84664 0.15818 0.47103 0.0
H744 H 0.84363 0.15946 0.4556 0.0
H745 H 0.90267 0.15233 0.45498 0.0
O746 O 0.87492 0.24361 0.5053 0.0
C747 C 0.91187 0.19632 0.48689 0.0
Co748 Co 0.14155 0.78719 0.48312 0.0
Co749 Co 0.13932 0.82226 0.45613 0.0
C750 C 0.1338 0.78274 0.44113 0.0
O751 O 0.1368 0.77582 0.45761 0.0
O752 O 0.13516 0.80059 0.43828 0.0
C753 C 0.16149 0.75583 0.50186 0.0
O754 O 0.17674 0.76052 0.4921 0.0
C755 C 0.15177 0.84925 0.42685 0.0
C756 C 0.13107 0.87269 0.43058 0.0
C757 C 0.14656 0.86694 0.41983 0.0
N758 N 0.13994 0.84477 0.4412 0.0
N759 N 0.12748 0.85875 0.44323 0.0
C760 C 0.16713 0.83639 0.41951 0.0
H761 H 0.1655 0.82182 0.42542 0.0
H762 H 0.18129 0.84198 0.42372 0.0
H763 H 0.16666 0.83595 0.4037 0.0
C764 C 0.17336 0.80994 0.49929 0.0
N765 N 0.16127 0.80592 0.48483 0.0
N766 N 0.16072 0.82054 0.47307 0.0
C767 C 0.17268 0.83419 0.4796 0.0
C768 C 0.1812 0.82789 0.49639 0.0
C769 C 0.17407 0.79901 0.51763 0.0
H770 H 0.1602 0.79202 0.52042 0.0
H771 H 0.18536 0.78799 0.51669 0.0
H772 H 0.1775 0.80843 0.52986 0.0
O773 O 0.11733 0.79912 0.49117 0.0
O774 O 0.11611 0.8241 0.47176 0.0
H775 H 0.16002 0.86094 0.47223 0.0
H776 H 0.185 0.86254 0.4786 0.0
C777 C 0.17408 0.85378 0.47128 0.0
H778 H 0.17803 0.85271 0.45607 0.0
H779 H 0.11658 0.85883 0.45335 0.0
O780 O 0.14622 0.76541 0.50017 0.0
C781 C 0.10898 0.81404 0.48505 0.0
Co782 Co 0.14064 0.22662 0.53038 0.0
Co783 Co 0.13791 0.19153 0.55749 0.0
C784 C 0.13109 0.23153 0.57172 0.0
O785 O 0.13483 0.2386 0.55542 0.0
O786 O 0.13238 0.21365 0.57458 0.0
C787 C 0.15803 0.26005 0.51293 0.0
O788 O 0.16933 0.26077 0.52784 0.0
C789 C 0.149 0.16484 0.58794 0.0
C790 C 0.12975 0.14063 0.58197 0.0
C791 C 0.14388 0.14681 0.59428 0.0
N792 N 0.13845 0.169 0.57251 0.0
N793 N 0.1269 0.15452 0.5691 0.0
C794 C 0.16297 0.17831 0.59679 0.0
H795 H 0.17742 0.17538 0.5911 0.0
H796 H 0.16334 0.17642 0.61249 0.0
H797 H 0.15926 0.19325 0.59319 0.0
C798 C 0.17467 0.20553 0.51709 0.0
N799 N 0.16105 0.20865 0.53032 0.0
N800 N 0.15998 0.19376 0.54166 0.0
C801 C 0.17285 0.18063 0.5359 0.0
C802 C 0.18269 0.18768 0.52017 0.0
C803 C 0.17725 0.21763 0.49969 0.0
H804 H 0.16316 0.22114 0.49348 0.0
H805 H 0.18443 0.2311 0.50379 0.0
H806 H 0.18597 0.21045 0.48864 0.0
O807 O 0.11696 0.21387 0.52178 0.0
O808 O 0.11555 0.18875 0.54092 0.0
H809 H 0.16015 0.1535 0.54148 0.0
H810 H 0.18557 0.15248 0.53697 0.0
C811 C 0.17398 0.16083 0.54373 0.0
H812 H 0.17667 0.16149 0.55925 0.0
H813 H 0.11707 0.15409 0.55795 0.0
O814 O 0.14549 0.24705 0.5118 0.0
C815 C 0.10873 0.19871 0.52742 0.0
H816 H 0.09381 0.37049 0.41135 0.0
H817 H 0.11653 0.35521 0.43249 0.0
H818 H 0.15652 0.34976 0.38608 0.0
H819 H 0.13351 0.36503 0.36462 0.0
H820 H 0.15288 0.31717 0.40364 0.0
H821 H 0.16394 0.37086 0.45924 0.0
H822 H 0.13878 0.36845 0.45584 0.0
H823 H 0.1535 0.37688 0.43648 0.0
C824 C 0.10756 0.36634 0.40566 0.0
C825 C 0.11175 0.36866 0.38625 0.0
C826 C 0.12065 0.35778 0.41784 0.0
C827 C 0.13845 0.35172 0.41101 0.0
C828 C 0.14293 0.35446 0.3917 0.0
H829 H 0.18493 0.28825 0.50836 0.0
H830 H 0.18756 0.31078 0.48167 0.0
C831 C 0.12969 0.36296 0.3794 0.0
C832 C 0.15095 0.34039 0.42371 0.0
H833 H 0.16279 0.33722 0.4707 0.0
C834 C 0.15566 0.32177 0.41813 0.0
C835 C 0.15532 0.34646 0.44245 0.0
C836 C 0.1528 0.36686 0.44871 0.0
C837 C 0.16221 0.30843 0.43147 0.0
C838 C 0.16346 0.31374 0.45088 0.0
C839 C 0.16126 0.33296 0.45592 0.0
C840 C 0.16344 0.29928 0.46624 0.0
C841 C 0.16661 0.28847 0.4248 0.0
C842 C 0.14885 0.28562 0.46656 0.0
C843 C 0.14732 0.27286 0.48164 0.0
C844 C 0.16017 0.27362 0.49697 0.0
C845 C 0.17481 0.28733 0.49674 0.0
C846 C 0.17638 0.30013 0.48149 0.0
H847 H 0.17289 0.28871 0.41027 0.0
H848 H 0.17662 0.2811 0.43459 0.0
H849 H 0.15318 0.28015 0.424 0.0
H850 H 0.13825 0.28513 0.45534 0.0
H851 H 0.1358 0.26259 0.48137 0.0
H852 H 0.92778 0.64847 0.41116 0.0
H853 H 0.90587 0.66365 0.43319 0.0
H854 H 0.8636 0.66791 0.38869 0.0
H855 H 0.88582 0.65278 0.3663 0.0
H856 H 0.86696 0.70059 0.40626 0.0
H857 H 0.86027 0.64628 0.46193 0.0
H858 H 0.88515 0.64958 0.45742 0.0
H859 H 0.86985 0.64073 0.43869 0.0
C860 C 0.91373 0.65238 0.40608 0.0
C861 C 0.90862 0.64966 0.38694 0.0
C862 C 0.9011 0.66088 0.41877 0.0
C863 C 0.88287 0.66649 0.41276 0.0
C864 C 0.87754 0.66353 0.39368 0.0
H865 H 0.83819 0.72681 0.51279 0.0
H866 H 0.83548 0.70458 0.48587 0.0
C867 C 0.89032 0.6551 0.38086 0.0
C868 C 0.87062 0.67738 0.42608 0.0
H869 H 0.86058 0.67982 0.47351 0.0
C870 C 0.86497 0.69583 0.42082 0.0
C871 C 0.86725 0.67105 0.44493 0.0
C872 C 0.87076 0.65071 0.45094 0.0
C873 C 0.85842 0.70883 0.4345 0.0
C874 C 0.85815 0.70337 0.45392 0.0
C875 C 0.86135 0.68423 0.45872 0.0
C876 C 0.85803 0.71772 0.46942 0.0
C877 C 0.85285 0.72858 0.42811 0.0
C878 C 0.87174 0.73226 0.46922 0.0
C879 C 0.87328 0.74489 0.48442 0.0
C880 C 0.86136 0.7431 0.5004 0.0
C881 C 0.84759 0.72854 0.50068 0.0
C882 C 0.84596 0.7159 0.48529 0.0
H883 H 0.84588 0.72807 0.4139 0.0
H884 H 0.843 0.73551 0.43838 0.0
H885 H 0.86585 0.73748 0.42669 0.0
H886 H 0.88172 0.73354 0.45752 0.0
H887 H 0.88415 0.75583 0.48376 0.0
H888 H 0.1115 0.68512 0.65846 0.0
H889 H 0.13139 0.70229 0.63609 0.0
H890 H 0.13653 0.65175 0.60153 0.0
H891 H 0.11799 0.63386 0.62478 0.0
H892 H 0.16832 0.67413 0.59866 0.0
H893 H 0.10226 0.71688 0.58899 0.0
H894 H 0.11226 0.71827 0.61247 0.0
H895 H 0.10297 0.69597 0.60381 0.0
C896 C 0.11757 0.67723 0.64676 0.0
C897 C 0.11304 0.65797 0.64355 0.0
C898 C 0.12876 0.68726 0.63372 0.0
C899 C 0.13496 0.67844 0.61689 0.0
C900 C 0.13178 0.65889 0.61438 0.0
H901 H 0.13529 0.72848 0.50763 0.0
H902 H 0.13241 0.70784 0.53546 0.0
C903 C 0.121 0.64873 0.62762 0.0
C904 C 0.14207 0.68992 0.6007 0.0
H905 H 0.12814 0.7244 0.56948 0.0
C906 C 0.15965 0.68522 0.59231 0.0
C907 C 0.13053 0.70417 0.59229 0.0
C908 C 0.11089 0.70903 0.59971 0.0
C909 C 0.16579 0.69416 0.57545 0.0
C910 C 0.15417 0.70834 0.56711 0.0
C911 C 0.13697 0.71344 0.5759 0.0
C912 C 0.15861 0.71748 0.54864 0.0
C913 C 0.1842 0.68786 0.56633 0.0
C914 C 0.17478 0.72908 0.54639 0.0
C915 C 0.17666 0.74057 0.53018 0.0
C916 C 0.16216 0.74084 0.51638 0.0
C917 C 0.14661 0.72846 0.51815 0.0
C918 C 0.14496 0.71672 0.53403 0.0
H919 H 0.18921 0.674 0.57211 0.0
H920 H 0.18253 0.68655 0.55065 0.0
H921 H 0.19537 0.69869 0.56917 0.0
H922 H 0.18529 0.73015 0.55763 0.0
H923 H 0.18864 0.75024 0.52914 0.0
H924 H 0.92791 0.37047 0.60451 0.0
H925 H 0.90575 0.35385 0.5837 0.0
H926 H 0.86615 0.3477 0.63035 0.0
H927 H 0.88861 0.36423 0.65145 0.0
H928 H 0.87078 0.31504 0.61336 0.0
H929 H 0.85773 0.36756 0.55701 0.0
H930 H 0.88297 0.36571 0.5602 0.0
H931 H 0.86826 0.3742 0.57955 0.0
C932 C 0.91436 0.36584 0.61029 0.0
C933 C 0.91012 0.36836 0.62966 0.0
C934 C 0.90158 0.35652 0.59832 0.0
C935 C 0.88406 0.34989 0.60532 0.0
C936 C 0.87954 0.35281 0.62461 0.0
H937 H 0.83545 0.28465 0.51009 0.0
H938 H 0.83381 0.30741 0.53664 0.0
C939 C 0.89246 0.36204 0.63669 0.0
C940 C 0.87186 0.33795 0.59289 0.0
H941 H 0.85893 0.33383 0.54625 0.0
C942 C 0.86762 0.31935 0.59885 0.0
C943 C 0.86701 0.34364 0.57415 0.0
C944 C 0.86904 0.36397 0.5675 0.0
C945 C 0.86091 0.3057 0.58591 0.0
C946 C 0.85902 0.31068 0.56647 0.0
C947 C 0.86092 0.32983 0.56105 0.0
C948 C 0.85842 0.29598 0.55133 0.0
C949 C 0.8569 0.28582 0.59304 0.0
C950 C 0.87291 0.28223 0.55067 0.0
C951 C 0.87387 0.26931 0.53567 0.0
C952 C 0.86052 0.27001 0.52076 0.0
C953 C 0.84594 0.28376 0.52138 0.0
C954 C 0.84494 0.29671 0.53655 0.0
H955 H 0.85109 0.28624 0.60776 0.0
H956 H 0.84662 0.27821 0.58371 0.0
H957 H 0.87041 0.27761 0.59352 0.0
H958 H 0.8839 0.28181 0.56151 0.0
H959 H 0.88536 0.259 0.53562 0.0
H960 H 0.48351 0.15152 0.25838 0.0
H961 H 0.45966 0.15313 0.28343 0.0
H962 H 0.503 0.16888 0.3241 0.0
H963 H 0.52722 0.16707 0.29895 0.0
H964 H 0.48273 0.13771 0.3348 0.0
H965 H 0.43241 0.19407 0.31347 0.0
H966 H 0.43733 0.17861 0.29375 0.0
H967 H 0.45631 0.1926 0.30397 0.0
C968 C 0.48798 0.15565 0.27257 0.0
C969 C 0.50728 0.15895 0.27675 0.0
C970 C 0.47425 0.15683 0.28684 0.0
C971 C 0.47949 0.16145 0.30557 0.0
C972 C 0.49865 0.16552 0.30967 0.0
H973 H 0.40296 0.12079 0.39637 0.0
H974 H 0.42754 0.14154 0.38268 0.0
C975 C 0.51245 0.16443 0.29532 0.0
C976 C 0.46538 0.15892 0.32101 0.0
H977 H 0.41863 0.16734 0.33131 0.0
C978 C 0.4689 0.14461 0.33451 0.0
C979 C 0.4474 0.168 0.3206 0.0
C980 C 0.44323 0.18432 0.30727 0.0
C981 C 0.45431 0.13777 0.3463 0.0
C982 C 0.43586 0.14575 0.34473 0.0
C983 C 0.43277 0.16117 0.33238 0.0
C984 C 0.41918 0.13632 0.35346 0.0
C985 C 0.45837 0.12098 0.35914 0.0
C986 C 0.40591 0.12725 0.34158 0.0
C987 C 0.39186 0.11553 0.34933 0.0
C988 C 0.39078 0.11281 0.36911 0.0
C989 C 0.40351 0.12266 0.38105 0.0
C990 C 0.41753 0.13448 0.37328 0.0
H991 H 0.47277 0.11486 0.35668 0.0
H992 H 0.45753 0.12559 0.37424 0.0
H993 H 0.44762 0.10958 0.35691 0.0
H994 H 0.40709 0.12836 0.32622 0.0
H995 H 0.38269 0.10772 0.33971 0.0
H996 H 0.64394 0.91217 0.33691 0.0
H997 H 0.62032 0.89211 0.3212 0.0
H998 H 0.59948 0.87345 0.37592 0.0
H999 H 0.62311 0.89371 0.3918 0.0
H1000 H 0.60896 0.85305 0.32204 0.0
H1001 H 0.55421 0.90194 0.35252 0.0
H1002 H 0.57932 0.90728 0.35352 0.0
H1003 H 0.56929 0.88973 0.36921 0.0
C1004 C 0.63486 0.90327 0.34562 0.0
C1005 C 0.63542 0.90441 0.36558 0.0
C1006 C 0.62127 0.89188 0.33661 0.0
C1007 C 0.60801 0.88152 0.34741 0.0
C1008 C 0.60942 0.88157 0.36735 0.0
H1009 H 0.49918 0.85 0.29466 0.0
H1010 H 0.52489 0.84832 0.3183 0.0
C1011 C 0.62292 0.89309 0.37637 0.0
C1012 C 0.59146 0.87279 0.33773 0.0
H1013 H 0.54406 0.88004 0.32974 0.0
C1014 C 0.59469 0.85867 0.32395 0.0
C1015 C 0.57284 0.8801 0.34034 0.0
C1016 C 0.5686 0.89568 0.35459 0.0
C1017 C 0.57992 0.85233 0.31203 0.0
C1018 C 0.56162 0.86059 0.3138 0.0
C1019 C 0.55812 0.87372 0.32845 0.0
C1020 C 0.54679 0.85825 0.299 0.0
C1021 C 0.5842 0.83732 0.29726 0.0
C1022 C 0.55064 0.86426 0.28034 0.0
C1023 C 0.53604 0.86536 0.26692 0.0
C1024 C 0.51725 0.86058 0.27193 0.0
C1025 C 0.51351 0.8538 0.2904 0.0
C1026 C 0.52818 0.85277 0.30389 0.0
H1027 H 0.59583 0.82773 0.30211 0.0
H1028 H 0.5714 0.8286 0.29399 0.0
H1029 H 0.58901 0.84436 0.28395 0.0
H1030 H 0.56477 0.86904 0.27637 0.0
H1031 H 0.53942 0.87054 0.25278 0.0
H1032 H 0.51711 0.84633 0.72366 0.0
H1033 H 0.49205 0.84499 0.69927 0.0
H1034 H 0.45337 0.87374 0.7374 0.0
H1035 H 0.478 0.87489 0.7618 0.0
H1036 H 0.43638 0.84353 0.71593 0.0
H1037 H 0.47767 0.89454 0.67102 0.0
H1038 H 0.48904 0.87258 0.67775 0.0
H1039 H 0.48379 0.89014 0.69559 0.0
C1040 C 0.50318 0.85214 0.7269 0.0
C1041 C 0.49962 0.86099 0.74454 0.0
C1042 C 0.48893 0.85139 0.71296 0.0
C1043 C 0.47098 0.85948 0.7165 0.0
C1044 C 0.46714 0.86742 0.73441 0.0
H1045 H 0.37345 0.91146 0.67911 0.0
H1046 H 0.39654 0.89072 0.69445 0.0
C1047 C 0.4813 0.86818 0.74829 0.0
C1048 C 0.45654 0.86145 0.70129 0.0
H1049 H 0.44594 0.88919 0.66287 0.0
C1050 C 0.43855 0.85316 0.70404 0.0
C1051 C 0.45948 0.87393 0.68574 0.0
C1052 C 0.47847 0.88344 0.68228 0.0
C1053 C 0.42307 0.85798 0.69234 0.0
C1054 C 0.42566 0.87165 0.67778 0.0
C1055 C 0.44399 0.87874 0.67409 0.0
C1056 C 0.40938 0.88098 0.66813 0.0
C1057 C 0.40396 0.84891 0.69612 0.0
C1058 C 0.40887 0.88244 0.6482 0.0
C1059 C 0.39559 0.89436 0.63936 0.0
C1060 C 0.3826 0.90498 0.65031 0.0
C1061 C 0.3827 0.90295 0.67021 0.0
C1062 C 0.39597 0.89107 0.67903 0.0
H1063 H 0.40568 0.83438 0.70217 0.0
H1064 H 0.39609 0.85762 0.70672 0.0
H1065 H 0.39526 0.84798 0.68292 0.0
H1066 H 0.41925 0.87498 0.63955 0.0
H1067 H 0.39591 0.89578 0.62399 0.0
H1068 H 0.53669 0.15145 0.76049 0.0
H1069 H 0.56257 0.15261 0.73751 0.0
H1070 H 0.52318 0.17 0.69362 0.0
H1071 H 0.49692 0.16859 0.71663 0.0
H1072 H 0.54323 0.13858 0.68414 0.0
H1073 H 0.59343 0.19296 0.71052 0.0
H1074 H 0.58671 0.17702 0.7293 0.0
H1075 H 0.5689 0.19191 0.71829 0.0
C1076 C 0.53352 0.15583 0.74603 0.0
C1077 C 0.51471 0.1597 0.74031 0.0
C1078 C 0.54842 0.15676 0.73295 0.0
C1079 C 0.54487 0.16172 0.71393 0.0
C1080 C 0.52623 0.16636 0.70831 0.0
H1081 H 0.6235 0.12331 0.62457 0.0
H1082 H 0.59964 0.14425 0.63913 0.0
C1083 C 0.51125 0.16548 0.72144 0.0
C1084 C 0.56011 0.15899 0.69961 0.0
H1085 H 0.60753 0.16685 0.69224 0.0
C1086 C 0.55715 0.14516 0.68549 0.0
C1087 C 0.57824 0.16759 0.70147 0.0
C1088 C 0.58193 0.18335 0.71561 0.0
C1089 C 0.57225 0.13849 0.67427 0.0
C1090 C 0.5907 0.14618 0.67702 0.0
C1091 C 0.59339 0.16094 0.69023 0.0
C1092 C 0.60756 0.13728 0.66809 0.0
C1093 C 0.56858 0.12223 0.66063 0.0
C1094 C 0.62059 0.12736 0.67959 0.0
C1095 C 0.63432 0.11558 0.67133 0.0
C1096 C 0.63523 0.11361 0.65144 0.0
C1097 C 0.62303 0.12457 0.63995 0.0
C1098 C 0.6094 0.13648 0.64822 0.0
H1099 H 0.55422 0.11586 0.6626 0.0
H1100 H 0.56957 0.12753 0.64577 0.0
H1101 H 0.57941 0.11084 0.6625 0.0
H1102 H 0.6193 0.12773 0.69497 0.0
H1103 H 0.64319 0.107 0.68056 0.0
H1104 H 0.25642 0.47913 0.1503 0.0
H1105 H 0.28037 0.45411 0.15071 0.0
H1106 H 0.32378 0.49551 0.16424 0.0
H1107 H 0.29974 0.52089 0.16358 0.0
H1108 H 0.33197 0.47482 0.13271 0.0
H1109 H 0.31104 0.42547 0.19012 0.0
H1110 H 0.29101 0.4311 0.1753 0.0
H1111 H 0.30237 0.44969 0.18892 0.0
C1112 C 0.27099 0.48293 0.1537 0.0
C1113 C 0.27624 0.50202 0.15669 0.0
C1114 C 0.28465 0.46853 0.15419 0.0
C1115 C 0.30381 0.47288 0.15782 0.0
C1116 C 0.30901 0.49184 0.16163 0.0
H1117 H 0.39328 0.39533 0.11679 0.0
H1118 H 0.3792 0.42002 0.1371 0.0
C1119 C 0.29528 0.50631 0.1612 0.0
C1120 C 0.31848 0.45808 0.15457 0.0
H1121 H 0.328 0.41118 0.16324 0.0
C1122 C 0.33154 0.46106 0.13976 0.0
C1123 C 0.31784 0.44017 0.16378 0.0
C1124 C 0.30492 0.4365 0.18055 0.0
C1125 C 0.34282 0.44614 0.13277 0.0
C1126 C 0.34121 0.42786 0.14112 0.0
C1127 C 0.32912 0.4252 0.15682 0.0
C1128 C 0.35012 0.411 0.13218 0.0
C1129 C 0.35526 0.44974 0.11558 0.0
C1130 C 0.33848 0.39724 0.12352 0.0
C1131 C 0.34648 0.38307 0.11207 0.0
C1132 C 0.36626 0.38243 0.10919 0.0
C1133 C 0.37797 0.39557 0.11877 0.0
C1134 C 0.36997 0.40966 0.13032 0.0
H1135 H 0.35244 0.46385 0.10898 0.0
H1136 H 0.37046 0.44933 0.11994 0.0
H1137 H 0.35301 0.43853 0.10463 0.0
H1138 H 0.32311 0.39814 0.12469 0.0
H1139 H 0.33704 0.37351 0.10452 0.0
H1140 H 0.33258 0.65478 0.90219 0.0
H1141 H 0.31528 0.6331 0.88163 0.0
H1142 H 0.36344 0.59496 0.881 0.0
H1143 H 0.38161 0.61743 0.90021 0.0
H1144 H 0.34312 0.59239 0.84794 0.0
H1145 H 0.29527 0.58839 0.91106 0.0
H1146 H 0.2963 0.61139 0.90002 0.0
H1147 H 0.31717 0.6017 0.91138 0.0
C1148 C 0.34001 0.6424 0.89697 0.0
C1149 C 0.35863 0.63796 0.90299 0.0
C1150 C 0.32987 0.62977 0.88539 0.0
C1151 C 0.33786 0.61217 0.88027 0.0
C1152 C 0.35692 0.60841 0.88489 0.0
H1153 H 0.28551 0.50491 0.88249 0.0
H1154 H 0.30604 0.53287 0.88466 0.0
C1155 C 0.36723 0.62122 0.89606 0.0
C1156 C 0.32576 0.59653 0.87292 0.0
H1157 H 0.28891 0.56767 0.8859 0.0
C1158 C 0.33113 0.58705 0.85609 0.0
C1159 C 0.31028 0.58946 0.88377 0.0
C1160 C 0.30448 0.59812 0.90263 0.0
C1161 C 0.32179 0.57033 0.85018 0.0
C1162 C 0.30656 0.56321 0.86124 0.0
C1163 C 0.30067 0.57318 0.87752 0.0
C1164 C 0.29734 0.54464 0.85749 0.0
C1165 C 0.3288 0.55994 0.83273 0.0
C1166 C 0.28629 0.54156 0.84108 0.0
C1167 C 0.2748 0.52529 0.83966 0.0
C1168 C 0.274 0.51225 0.85482 0.0
C1169 C 0.28588 0.51484 0.87067 0.0
C1170 C 0.29757 0.53079 0.87191 0.0
H1171 H 0.34282 0.5654 0.8278 0.0
H1172 H 0.33009 0.54443 0.83563 0.0
H1173 H 0.31835 0.56181 0.821 0.0
H1174 H 0.28567 0.55222 0.82994 0.0
H1175 H 0.26555 0.52364 0.8274 0.0
H1176 H 0.73166 0.50629 0.8293 0.0
H1177 H 0.70811 0.48036 0.82786 0.0
H1178 H 0.7276 0.45983 0.88244 0.0
H1179 H 0.75112 0.4851 0.88383 0.0
H1180 H 0.72277 0.431 0.85538 0.0
H1181 H 0.65921 0.47852 0.86014 0.0
H1182 H 0.67596 0.48206 0.84105 0.0
H1183 H 0.68286 0.48731 0.8651 0.0
C1184 C 0.73089 0.4962 0.84095 0.0
C1185 C 0.74319 0.4978 0.85672 0.0
C1186 C 0.71744 0.48144 0.84011 0.0
C1187 C 0.71609 0.46824 0.85509 0.0
C1188 C 0.72849 0.46978 0.87067 0.0
H1189 H 0.6473 0.41282 0.92624 0.0
H1190 H 0.66324 0.43347 0.90344 0.0
C1191 C 0.74189 0.48433 0.87147 0.0
C1192 C 0.70149 0.45305 0.8555 0.0
H1193 H 0.65495 0.4464 0.86768 0.0
C1194 C 0.70779 0.43418 0.85753 0.0
C1195 C 0.68199 0.45734 0.85812 0.0
C1196 C 0.67447 0.47738 0.85607 0.0
C1197 C 0.69561 0.41988 0.86433 0.0
C1198 C 0.67648 0.42457 0.86864 0.0
C1199 C 0.66966 0.44293 0.86446 0.0
C1200 C 0.66474 0.41222 0.88109 0.0
C1201 C 0.70383 0.40047 0.86863 0.0
C1202 C 0.6599 0.39349 0.87598 0.0
C1203 C 0.65098 0.3815 0.8892 0.0
C1204 C 0.64664 0.38819 0.90758 0.0
C1205 C 0.65056 0.40723 0.91221 0.0
C1206 C 0.65961 0.41908 0.89915 0.0
H1207 H 0.71953 0.4 0.86662 0.0
H1208 H 0.70058 0.39626 0.88353 0.0
H1209 H 0.69735 0.38975 0.85898 0.0
H1210 H 0.66332 0.38805 0.86195 0.0
H1211 H 0.64752 0.36706 0.88505 0.0
H1212 H 0.62334 0.61862 0.11944 0.0
H1213 H 0.63909 0.59575 0.14058 0.0
H1214 H 0.69375 0.61926 0.12515 0.0
H1215 H 0.67818 0.64199 0.10415 0.0
H1216 H 0.66255 0.56942 0.12662 0.0
H1217 H 0.70162 0.6101 0.18133 0.0
H1218 H 0.68243 0.62041 0.16758 0.0
H1219 H 0.70628 0.61954 0.15807 0.0
C1220 C 0.63869 0.61924 0.12103 0.0
C1221 C 0.6495 0.6323 0.11038 0.0
C1222 C 0.64764 0.60623 0.13314 0.0
C1223 C 0.66757 0.60602 0.13474 0.0
C1224 C 0.67833 0.61957 0.12469 0.0
H1225 H 0.7613 0.53688 0.14222 0.0
H1226 H 0.73711 0.56172 0.14273 0.0
C1227 C 0.66938 0.63263 0.11265 0.0
C1228 C 0.67737 0.58985 0.1441 0.0
H1229 H 0.71542 0.57934 0.17247 0.0
C1230 C 0.67374 0.57146 0.1371 0.0
C1231 C 0.6919 0.59255 0.15779 0.0
C1232 C 0.69563 0.61172 0.16676 0.0
C1233 C 0.68536 0.55601 0.1421 0.0
C1234 C 0.70083 0.55903 0.15466 0.0
C1235 C 0.70358 0.5771 0.16278 0.0
C1236 C 0.7159 0.54451 0.157 0.0
C1237 C 0.68192 0.53694 0.13272 0.0
C1238 C 0.71211 0.52671 0.1653 0.0
C1239 C 0.72594 0.51233 0.16491 0.0
C1240 C 0.7437 0.51561 0.15623 0.0
C1241 C 0.74769 0.53378 0.14881 0.0
C1242 C 0.73393 0.54807 0.14921 0.0
H1243 H 0.67081 0.53769 0.12146 0.0
H1244 H 0.69529 0.53148 0.12625 0.0
H1245 H 0.67719 0.52651 0.14361 0.0
H1246 H 0.69832 0.5238 0.17159 0.0
H1247 H 0.72251 0.49853 0.1709 0.0
H1248 H 0.98442 0.67177 0.68553 0.0
H1249 H 0.96061 0.68905 0.66672 0.0
H1250 H 0.00216 0.73255 0.65415 0.0
H1251 H 0.02607 0.71519 0.67306 0.0
H1252 H 0.94624 0.72581 0.67142 0.0
H1253 H 0.98198 0.71797 0.60131 0.0
H1254 H 0.98875 0.70411 0.62189 0.0
H1255 H 0.99662 0.72837 0.61956 0.0
C1256 C 0.98843 0.68508 0.67883 0.0
C1257 C 0.00703 0.69225 0.68086 0.0
C1258 C 0.97483 0.69493 0.66805 0.0
C1259 C 0.97958 0.71205 0.65887 0.0
C1260 C 0.9982 0.71923 0.66085 0.0
H1261 H 0.90277 0.79667 0.61028 0.0
H1262 H 0.92324 0.77815 0.63151 0.0
C1263 C 0.01183 0.70937 0.67169 0.0
C1264 C 0.96495 0.72234 0.64736 0.0
H1265 H 0.95483 0.73802 0.60236 0.0
C1266 C 0.94811 0.72847 0.65631 0.0
C1267 C 0.96723 0.72557 0.62758 0.0
C1268 C 0.98452 0.71853 0.61693 0.0
C1269 C 0.93366 0.73799 0.64611 0.0
C1270 C 0.93617 0.74167 0.62644 0.0
C1271 C 0.9529 0.73529 0.61745 0.0
C1272 C 0.92179 0.75223 0.61485 0.0
C1273 C 0.9157 0.74373 0.65643 0.0
C1274 C 0.91386 0.74383 0.59851 0.0
C1275 C 0.90211 0.7544 0.58629 0.0
C1276 C 0.89814 0.77372 0.59004 0.0
C1277 C 0.90536 0.78182 0.60694 0.0
C1278 C 0.9171 0.77122 0.61916 0.0
H1279 H 0.91373 0.73544 0.66978 0.0
H1280 H 0.91659 0.75903 0.66029 0.0
H1281 H 0.90297 0.74169 0.64724 0.0
H1282 H 0.91724 0.72921 0.59487 0.0
H1283 H 0.8969 0.74764 0.57343 0.0
H1284 H 0.99143 0.30581 0.6633 0.0
H1285 H 0.0157 0.28747 0.64581 0.0
H1286 H 0.05857 0.32812 0.6628 0.0
H1287 H 0.03445 0.34626 0.68031 0.0
H1288 H 0.0386 0.29782 0.61612 0.0
H1289 H 0.08348 0.27829 0.67807 0.0
H1290 H 0.05977 0.28793 0.68067 0.0
H1291 H 0.07962 0.30349 0.67603 0.0
C1292 C 0.00607 0.31071 0.66332 0.0
C1293 C 0.01114 0.32725 0.67338 0.0
C1294 C 0.01992 0.30026 0.65336 0.0
C1295 C 0.03909 0.30616 0.65332 0.0
C1296 C 0.04403 0.32293 0.66305 0.0
H1297 H 0.1243 0.27006 0.57026 0.0
H1298 H 0.10309 0.28852 0.59083 0.0
C1299 C 0.03023 0.33333 0.67301 0.0
C1300 C 0.05382 0.29516 0.64261 0.0
H1301 H 0.09682 0.27259 0.64735 0.0
C1302 C 0.05129 0.29226 0.62298 0.0
C1303 C 0.07032 0.28766 0.65156 0.0
C1304 C 0.07342 0.28931 0.67278 0.0
C1305 C 0.06489 0.28241 0.61201 0.0
C1306 C 0.08173 0.27555 0.62082 0.0
C1307 C 0.0841 0.2781 0.64053 0.0
C1308 C 0.09667 0.26512 0.60984 0.0
C1309 C 0.06088 0.27911 0.59114 0.0
C1310 C 0.10114 0.24614 0.61436 0.0
C1311 C 0.11349 0.23557 0.60274 0.0
C1312 C 0.12167 0.24376 0.58634 0.0
C1313 C 0.1182 0.26319 0.58266 0.0
C1314 C 0.10589 0.27375 0.59432 0.0
H1315 H 0.04549 0.28079 0.58777 0.0
H1316 H 0.0689 0.2897 0.58256 0.0
H1317 H 0.06547 0.26464 0.58668 0.0
H1318 H 0.09438 0.23921 0.62638 0.0
H1319 H 0.11581 0.22068 0.60609 0.0
H1320 H 0.90165 0.22108 0.40912 0.0
H1321 H 0.92305 0.24014 0.38928 0.0
H1322 H 0.9168 0.28756 0.42779 0.0
H1323 H 0.89557 0.26862 0.44786 0.0
H1324 H 0.92094 0.27611 0.37069 0.0
H1325 H 0.97436 0.27631 0.42912 0.0
H1326 H 0.95381 0.26085 0.42924 0.0
H1327 H 0.95138 0.28555 0.43559 0.0
C1328 C 0.90446 0.2357 0.4132 0.0
C1329 C 0.89701 0.24318 0.43029 0.0
C1330 C 0.91678 0.24657 0.40184 0.0
C1331 C 0.92195 0.26511 0.40731 0.0
C1332 C 0.91339 0.27312 0.42353 0.0
H1333 H 0.00602 0.34692 0.36667 0.0
H1334 H 0.98121 0.32959 0.38416 0.0
C1335 C 0.90109 0.26229 0.43491 0.0
C1336 C 0.93711 0.27558 0.39674 0.0
H1337 H 0.98181 0.2944 0.40172 0.0
C1338 C 0.93426 0.28009 0.37745 0.0
C1339 C 0.95455 0.28071 0.40554 0.0
C1340 C 0.95886 0.27549 0.42596 0.0
C1341 C 0.94819 0.28992 0.36686 0.0
C1342 C 0.96564 0.29503 0.37567 0.0
C1343 C 0.96846 0.29051 0.39496 0.0
C1344 C 0.98109 0.30523 0.36524 0.0
C1345 C 0.94392 0.29513 0.34644 0.0
C1346 C 0.98968 0.29713 0.34904 0.0
C1347 C 0.00395 0.30698 0.33912 0.0
C1348 C 0.01003 0.32502 0.3453 0.0
C1349 C 0.00178 0.33291 0.36175 0.0
C1350 C 0.98752 0.32308 0.37166 0.0
H1351 H 0.92837 0.2948 0.34343 0.0
H1352 H 0.94945 0.30954 0.34298 0.0
H1353 H 0.95094 0.28471 0.33684 0.0
H1354 H 0.98531 0.2832 0.34403 0.0
H1355 H 0.01011 0.3006 0.32649 0.0
H1356 H 0.1197 0.79338 0.40615 0.0
H1357 H 0.09788 0.77511 0.38597 0.0
H1358 H 0.10473 0.72627 0.42254 0.0
H1359 H 0.12641 0.74438 0.4429 0.0
H1360 H 0.0994 0.73912 0.36618 0.0
H1361 H 0.04717 0.73872 0.42564 0.0
H1362 H 0.06785 0.75401 0.42552 0.0
H1363 H 0.07022 0.72922 0.43149 0.0
C1364 C 0.11697 0.7786 0.40969 0.0
C1365 C 0.12469 0.77048 0.42636 0.0
C1366 C 0.1044 0.76819 0.39814 0.0
C1367 C 0.09928 0.74948 0.40302 0.0
C1368 C 0.10814 0.74083 0.41874 0.0
H1369 H 0.01336 0.66925 0.36376 0.0
H1370 H 0.03873 0.68633 0.38067 0.0
C1371 C 0.12069 0.7512 0.43029 0.0
C1372 C 0.08374 0.7395 0.39252 0.0
H1373 H 0.03893 0.72117 0.39812 0.0
C1374 C 0.08616 0.73522 0.37313 0.0
C1375 C 0.06641 0.73449 0.40158 0.0
C1376 C 0.0626 0.73946 0.42216 0.0
C1377 C 0.07192 0.72566 0.36268 0.0
C1378 C 0.05459 0.72062 0.37176 0.0
C1379 C 0.05218 0.725 0.39114 0.0
C1380 C 0.03887 0.71055 0.36157 0.0
C1381 C 0.07577 0.72061 0.34214 0.0
C1382 C 0.03014 0.71863 0.34544 0.0
C1383 C 0.01557 0.7089 0.33582 0.0
C1384 C 0.00932 0.69101 0.34226 0.0
C1385 C 0.01773 0.68314 0.35864 0.0
C1386 C 0.03231 0.69284 0.36823 0.0
H1387 H 0.09126 0.72077 0.33888 0.0
H1388 H 0.06999 0.70631 0.33861 0.0
H1389 H 0.06873 0.73123 0.33277 0.0
H1390 H 0.03459 0.73247 0.34027 0.0
H1391 H 0.00928 0.71525 0.32323 0.0
H1392 H 0.60785 0.90149 0.79673 0.0
H1393 H 0.62822 0.92232 0.77756 0.0
H1394 H 0.5898 0.91641 0.73002 0.0
H1395 H 0.56928 0.89565 0.74901 0.0
H1396 H 0.64645 0.91899 0.74024 0.0
H1397 H 0.58995 0.97446 0.74247 0.0
H1398 H 0.58991 0.95405 0.75813 0.0
H1399 H 0.58251 0.95155 0.73375 0.0
C1400 C 0.60391 0.90423 0.78206 0.0
C1401 C 0.58674 0.89701 0.77454 0.0
C1402 C 0.61557 0.91622 0.77113 0.0
C1403 C 0.6103 0.92128 0.75251 0.0
C1404 C 0.59395 0.91299 0.74449 0.0
H1405 H 0.65026 0.00538 0.67066 0.0
H1406 H 0.63271 0.98095 0.68843 0.0
C1407 C 0.5823 0.90098 0.75536 0.0
C1408 C 0.62112 0.93617 0.74197 0.0
H1409 H 0.61715 0.98125 0.72393 0.0
C1410 C 0.64009 0.93262 0.73669 0.0
C1411 C 0.61281 0.95397 0.73738 0.0
C1412 C 0.59273 0.95889 0.74333 0.0
C1413 C 0.65082 0.94625 0.72658 0.0
C1414 C 0.64251 0.9641 0.72203 0.0
C1415 C 0.62355 0.96761 0.72738 0.0
C1416 C 0.65309 0.97926 0.71154 0.0
C1417 C 0.67079 0.94118 0.72043 0.0
C1418 C 0.67019 0.98682 0.71878 0.0
C1419 C 0.68018 0.00084 0.70865 0.0
C1420 C 0.67313 0.00777 0.69124 0.0
C1421 C 0.65583 0.00053 0.68421 0.0
C1422 C 0.64588 0.98648 0.6943 0.0
H1423 H 0.67305 0.9255 0.72023 0.0
H1424 H 0.67396 0.94693 0.70604 0.0
H1425 H 0.68112 0.94742 0.73065 0.0
H1426 H 0.67584 0.98186 0.73225 0.0
H1427 H 0.69352 0.00617 0.71431 0.0
H1428 H 0.44455 0.12494 0.74531 0.0
H1429 H 0.42419 0.10368 0.7267 0.0
H1430 H 0.38698 0.09674 0.77506 0.0
H1431 H 0.40713 0.11812 0.79376 0.0
H1432 H 0.41823 0.06582 0.73641 0.0
H1433 H 0.34903 0.10371 0.73147 0.0
H1434 H 0.37092 0.11566 0.73784 0.0
H1435 H 0.35827 0.10179 0.75526 0.0
C1436 C 0.43176 0.11934 0.75189 0.0
C1437 C 0.42757 0.12329 0.77113 0.0
C1438 C 0.42017 0.10707 0.74122 0.0
C1439 C 0.40399 0.09859 0.74941 0.0
C1440 C 0.39919 0.10329 0.76827 0.0
H1441 H 0.32534 0.00857 0.71412 0.0
H1442 H 0.34295 0.03337 0.73156 0.0
C1443 C 0.41079 0.11555 0.77899 0.0
C1444 C 0.39329 0.08352 0.73888 0.0
H1445 H 0.34919 0.07109 0.7222 0.0
C1446 C 0.40316 0.06705 0.73318 0.0
C1447 C 0.37358 0.08499 0.73482 0.0
C1448 C 0.36232 0.10255 0.74 0.0
C1449 C 0.39386 0.05194 0.72383 0.0
C1450 C 0.37417 0.05344 0.71966 0.0
C1451 C 0.36427 0.0699 0.72539 0.0
C1452 C 0.36366 0.03816 0.7092 0.0
C1453 C 0.40516 0.03429 0.71898 0.0
C1454 C 0.3693 0.03265 0.69079 0.0
C1455 C 0.35932 0.01845 0.68091 0.0
C1456 C 0.34342 0.00953 0.68918 0.0
C1457 C 0.33767 0.01511 0.70752 0.0
C1458 C 0.34767 0.02931 0.71743 0.0
H1459 H 0.41824 0.0331 0.72783 0.0
H1460 H 0.39648 0.02122 0.721 0.0
H1461 H 0.40962 0.03499 0.70383 0.0
H1462 H 0.38125 0.03956 0.6839 0.0
H1463 H 0.36379 0.01472 0.66661 0.0
H1464 H 0.61177 0.11686 0.21956 0.0
H1465 H 0.63262 0.0957 0.23781 0.0
H1466 H 0.59508 0.10019 0.2862 0.0
H1467 H 0.57434 0.12161 0.26826 0.0
H1468 H 0.63316 0.09969 0.29672 0.0
H1469 H 0.61733 0.04039 0.24674 0.0
H1470 H 0.62741 0.06114 0.23569 0.0
H1471 H 0.60422 0.0625 0.24649 0.0
C1472 C 0.60811 0.1137 0.23421 0.0
C1473 C 0.59119 0.12084 0.24231 0.0
C1474 C 0.61998 0.1014 0.24458 0.0
C1475 C 0.61515 0.09588 0.26321 0.0
C1476 C 0.59902 0.10405 0.27179 0.0
H1477 H 0.65371 0.01372 0.34781 0.0
H1478 H 0.63692 0.03837 0.32956 0.0
C1479 C 0.58718 0.11638 0.26147 0.0
C1480 C 0.62625 0.08092 0.27347 0.0
H1481 H 0.63938 0.03398 0.27134 0.0
C1482 C 0.63454 0.08534 0.29116 0.0
C1483 C 0.628 0.06211 0.26628 0.0
C1484 C 0.61864 0.05613 0.24785 0.0
C1485 C 0.64464 0.07158 0.30171 0.0
C1486 C 0.64626 0.05276 0.29457 0.0
C1487 C 0.63816 0.04839 0.27681 0.0
C1488 C 0.65609 0.03735 0.30542 0.0
C1489 C 0.65373 0.07739 0.32032 0.0
C1490 C 0.67206 0.02806 0.29768 0.0
C1491 C 0.68153 0.01382 0.30803 0.0
C1492 C 0.67507 0.00845 0.32619 0.0
C1493 C 0.65885 0.01744 0.33374 0.0
C1494 C 0.64941 0.03169 0.32343 0.0
H1495 H 0.65559 0.09308 0.32128 0.0
H1496 H 0.64443 0.07285 0.33227 0.0
H1497 H 0.66785 0.07047 0.32215 0.0
H1498 H 0.67742 0.03209 0.28378 0.0
H1499 H 0.69407 0.00717 0.30196 0.0
H1500 H 0.32938 0.01426 0.29916 0.0
H1501 H 0.34583 0.98866 0.28179 0.0
H1502 H 0.38339 0.98033 0.32974 0.0
H1503 H 0.36665 0.00549 0.34724 0.0
H1504 H 0.38326 0.98534 0.27093 0.0
H1505 H 0.36471 0.92646 0.32016 0.0
H1506 H 0.35319 0.94944 0.32115 0.0
H1507 H 0.37631 0.9461 0.33174 0.0
C1508 C 0.34117 0.00693 0.30592 0.0
C1509 C 0.34682 0.01189 0.32448 0.0
C1510 C 0.35054 0.99231 0.29603 0.0
C1511 C 0.36566 0.98228 0.30456 0.0
C1512 C 0.37152 0.98751 0.32298 0.0
H1513 H 0.44789 0.89794 0.26746 0.0
H1514 H 0.42738 0.91941 0.28573 0.0
C1515 C 0.36213 0.00209 0.33288 0.0
C1516 C 0.37558 0.96669 0.29401 0.0
H1517 H 0.38812 0.9196 0.29651 0.0
C1518 C 0.38417 0.97093 0.27645 0.0
C1519 C 0.37681 0.94785 0.30121 0.0
C1520 C 0.36712 0.9421 0.31951 0.0
C1521 C 0.39435 0.95706 0.26616 0.0
C1522 C 0.39573 0.93827 0.27342 0.0
C1523 C 0.38705 0.93397 0.29093 0.0
C1524 C 0.40663 0.92314 0.26324 0.0
C1525 C 0.40404 0.9628 0.24784 0.0
C1526 C 0.40132 0.9173 0.24485 0.0
C1527 C 0.41298 0.90495 0.23435 0.0
C1528 C 0.43023 0.89812 0.24203 0.0
C1529 C 0.43477 0.9029 0.26101 0.0
C1530 C 0.42308 0.91526 0.27149 0.0
H1531 H 0.40535 0.97852 0.24652 0.0
H1532 H 0.4185 0.95642 0.24687 0.0
H1533 H 0.39553 0.95756 0.23558 0.0
H1534 H 0.38846 0.92285 0.23834 0.0
H1535 H 0.40891 0.90154 0.21985 0.0
H1536 H 0.66806 0.64956 0.00138 0.0
H1537 H 0.68665 0.63273 0.977 0.0
H1538 H 0.73087 0.67517 0.98144 0.0
H1539 H 0.71243 0.6918 0.00613 0.0
H1540 H 0.69871 0.64639 0.94165 0.0
H1541 H 0.76082 0.62548 0.98602 0.0
H1542 H 0.73866 0.63361 0.99624 0.0
H1543 H 0.75533 0.65047 0.98655 0.0
C1544 C 0.68193 0.65505 0.99742 0.0
C1545 C 0.68899 0.67179 0.00585 0.0
C1546 C 0.69247 0.64553 0.98337 0.0
C1547 C 0.71029 0.65252 0.97751 0.0
C1548 C 0.71736 0.66926 0.98596 0.0
H1549 H 0.79501 0.60894 0.89722 0.0
H1550 H 0.77621 0.6299 0.91777 0.0
C1551 C 0.70681 0.67878 1.00001 0.0
C1552 C 0.72119 0.64257 0.9622 0.0
H1553 H 0.76314 0.6196 0.95292 0.0
C1554 C 0.7128 0.64051 0.94412 0.0
C1555 C 0.73961 0.63497 0.96536 0.0
C1556 C 0.74911 0.63606 0.98462 0.0
C1557 C 0.72235 0.6312 0.92913 0.0
C1558 C 0.74068 0.6234 0.93235 0.0
C1559 C 0.74914 0.62565 0.95037 0.0
C1560 C 0.75105 0.61208 0.91761 0.0
C1561 C 0.7128 0.63005 0.9099 0.0
C1562 C 0.74305 0.59529 0.9102 0.0
C1563 C 0.75373 0.58331 0.89832 0.0
C1564 C 0.77277 0.58772 0.89371 0.0
C1565 C 0.78041 0.60506 0.90036 0.0
C1566 C 0.7697 0.61704 0.91224 0.0
H1567 H 0.70202 0.64151 0.90808 0.0
H1568 H 0.72337 0.63111 0.89817 0.0
H1569 H 0.70534 0.61617 0.90863 0.0
H1570 H 0.72885 0.59092 0.91436 0.0
H1571 H 0.74736 0.57006 0.89362 0.0
H1572 H 0.79684 0.4075 0.11573 0.0
H1573 H 0.7781 0.38778 0.09393 0.0
H1574 H 0.72986 0.42505 0.10143 0.0
H1575 H 0.74851 0.44502 0.12304 0.0
H1576 H 0.74309 0.36818 0.09553 0.0
H1577 H 0.73997 0.42812 0.04402 0.0
H1578 H 0.75558 0.42828 0.06446 0.0
H1579 H 0.73069 0.4337 0.0672 0.0
C1580 C 0.78212 0.41133 0.11311 0.0
C1581 C 0.77432 0.42806 0.12103 0.0
C1582 C 0.77143 0.40004 0.10054 0.0
C1583 C 0.75273 0.40522 0.0956 0.0
C1584 C 0.74442 0.42103 0.10463 0.0
H1585 H 0.66981 0.36496 0.01263 0.0
H1586 H 0.68749 0.38191 0.03756 0.0
C1587 C 0.75509 0.43236 0.11715 0.0
C1588 C 0.74235 0.39476 0.08026 0.0
H1589 H 0.72223 0.40054 0.03622 0.0
C1590 C 0.73856 0.37523 0.08254 0.0
C1591 C 0.73653 0.40392 0.06323 0.0
C1592 C 0.74103 0.42461 0.05942 0.0
C1593 C 0.72874 0.36477 0.06849 0.0
C1594 C 0.72284 0.37398 0.05151 0.0
C1595 C 0.7267 0.39347 0.04922 0.0
C1596 C 0.71238 0.36377 0.03604 0.0
C1597 C 0.72435 0.34405 0.07216 0.0
C1598 C 0.72062 0.34816 0.02654 0.0
C1599 C 0.71056 0.33854 0.01217 0.0
C1600 C 0.69215 0.34444 0.00695 0.0
C1601 C 0.68408 0.36027 0.01619 0.0
C1602 C 0.69413 0.36988 0.03052 0.0
H1603 H 0.72538 0.34047 0.08755 0.0
H1604 H 0.70983 0.34033 0.06705 0.0
H1605 H 0.73476 0.33507 0.06436 0.0
H1606 H 0.73483 0.34341 0.03021 0.0
H1607 H 0.71708 0.3264 0.00523 0.0
H1608 H 0.34303 0.65278 0.01138 0.0
H1609 H 0.32501 0.63516 0.03563 0.0
H1610 H 0.28131 0.67837 0.03455 0.0
H1611 H 0.29926 0.6959 0.0101 0.0
H1612 H 0.3139 0.64856 0.07232 0.0
H1613 H 0.25113 0.62827 0.0285 0.0
H1614 H 0.27328 0.6362 0.01807 0.0
H1615 H 0.25706 0.65318 0.02827 0.0
C1616 C 0.32939 0.6583 0.01607 0.0
C1617 C 0.32236 0.67553 0.00868 0.0
C1618 C 0.31919 0.64832 0.03003 0.0
C1619 C 0.30169 0.65531 0.0368 0.0
C1620 C 0.29461 0.67251 0.02934 0.0
H1621 H 0.21868 0.60817 0.11681 0.0
H1622 H 0.2367 0.62978 0.09625 0.0
C1623 C 0.30486 0.68252 0.01542 0.0
C1624 C 0.29119 0.64487 0.05203 0.0
H1625 H 0.24978 0.62098 0.0613 0.0
C1626 C 0.29988 0.64252 0.06992 0.0
C1627 C 0.27284 0.63708 0.04896 0.0
C1628 C 0.26303 0.63863 0.02988 0.0
C1629 C 0.29069 0.63272 0.08483 0.0
C1630 C 0.27246 0.62465 0.08167 0.0
C1631 C 0.2637 0.62719 0.06382 0.0
C1632 C 0.26246 0.61284 0.0963 0.0
C1633 C 0.30051 0.63142 0.10391 0.0
C1634 C 0.27103 0.59629 0.10364 0.0
C1635 C 0.26082 0.58397 0.11558 0.0
C1636 C 0.24166 0.58774 0.12027 0.0
C1637 C 0.23339 0.60477 0.11359 0.0
C1638 C 0.24366 0.61713 0.10171 0.0
H1639 H 0.3109 0.6432 0.1059 0.0
H1640 H 0.29008 0.63182 0.1158 0.0
H1641 H 0.30849 0.61779 0.10472 0.0
H1642 H 0.28535 0.59239 0.09942 0.0
H1643 H 0.26766 0.57095 0.12026 0.0
H1644 H 0.2214 0.40151 0.89771 0.0
H1645 H 0.24013 0.38102 0.91887 0.0
H1646 H 0.28894 0.41746 0.91126 0.0
H1647 H 0.27044 0.43804 0.89013 0.0
H1648 H 0.27794 0.36166 0.91572 0.0
H1649 H 0.2756 0.4197 0.96961 0.0
H1650 H 0.25982 0.41906 0.9493 0.0
H1651 H 0.28416 0.42637 0.94641 0.0
C1652 C 0.23626 0.40493 0.90009 0.0
C1653 C 0.24429 0.42162 0.89232 0.0
C1654 C 0.24693 0.39321 0.91228 0.0
C1655 C 0.2658 0.39795 0.91697 0.0
C1656 C 0.2743 0.41371 0.90808 0.0
H1657 H 0.34682 0.36082 0.00304 0.0
H1658 H 0.32922 0.37737 0.97781 0.0
C1659 C 0.26369 0.42541 0.89588 0.0
C1660 C 0.27609 0.38741 0.93224 0.0
H1661 H 0.29386 0.39256 0.97732 0.0
C1662 C 0.2814 0.36836 0.92921 0.0
C1663 C 0.28057 0.39618 0.94985 0.0
C1664 C 0.27465 0.4164 0.95415 0.0
C1665 C 0.29147 0.358 0.94317 0.0
C1666 C 0.29592 0.36677 0.96083 0.0
C1667 C 0.29049 0.3858 0.96383 0.0
C1668 C 0.30641 0.35664 0.97633 0.0
C1669 C 0.29771 0.33793 0.93862 0.0
C1670 C 0.29933 0.33964 0.98423 0.0
C1671 C 0.30937 0.33021 0.9987 0.0
C1672 C 0.32653 0.33773 0.00577 0.0
C1673 C 0.33344 0.35489 0.99812 0.0
C1674 C 0.32346 0.36428 0.9836 0.0
H1675 H 0.29805 0.33531 0.92301 0.0
H1676 H 0.31206 0.33493 0.94457 0.0
H1677 H 0.28746 0.32773 0.94501 0.0
H1678 H 0.286 0.33368 0.97924 0.0
H1679 H 0.30379 0.31697 0.00435 0.0
H1680 H 0.60246 0.83861 0.87512 0.0
H1681 H 0.6225 0.8228 0.89863 0.0
H1682 H 0.64139 0.8774 0.91963 0.0
H1683 H 0.62119 0.89341 0.896 0.0
H1684 H 0.66173 0.82366 0.90939 0.0
H1685 H 0.61354 0.85357 0.96511 0.0
H1686 H 0.6078 0.85479 0.94009 0.0
H1687 H 0.62561 0.8703 0.94996 0.0
C1688 C 0.6114 0.84729 0.8842 0.0
C1689 C 0.61041 0.86726 0.88361 0.0
C1690 C 0.62277 0.83822 0.89774 0.0
C1691 C 0.63324 0.84895 0.91098 0.0
C1692 C 0.63321 0.86889 0.90968 0.0
H1693 H 0.6647 0.79285 0.01818 0.0
H1694 H 0.66663 0.81737 0.99334 0.0
C1695 C 0.62173 0.87799 0.89619 0.0
C1696 C 0.64217 0.8391 0.92731 0.0
H1697 H 0.63499 0.83006 0.97452 0.0
C1698 C 0.65619 0.82531 0.92373 0.0
C1699 C 0.63498 0.84139 0.94602 0.0
C1700 C 0.61958 0.8557 0.95063 0.0
C1701 C 0.66244 0.81298 0.93817 0.0
C1702 C 0.65419 0.81434 0.9565 0.0
C1703 C 0.64127 0.82907 0.96042 0.0
C1704 C 0.65624 0.79903 0.97082 0.0
C1705 C 0.67727 0.79815 0.93349 0.0
C1706 C 0.64984 0.78063 0.96634 0.0
C1707 C 0.64858 0.76672 0.98045 0.0
C1708 C 0.6536 0.77096 0.99936 0.0
C1709 C 0.66071 0.78918 0.00373 0.0
C1710 C 0.66188 0.80317 0.98957 0.0
H1711 H 0.68692 0.8032 0.922 0.0
H1712 H 0.68595 0.79443 0.9462 0.0
H1713 H 0.67008 0.78506 0.92831 0.0
H1714 H 0.64493 0.77725 0.9521 0.0
H1715 H 0.64315 0.7528 0.97659 0.0
H1716 H 0.32878 0.23514 0.00283 0.0
H1717 H 0.32808 0.21142 0.97694 0.0
H1718 H 0.38898 0.21667 0.97064 0.0
H1719 H 0.38982 0.24022 0.99609 0.0
H1720 H 0.3442 0.21845 0.93731 0.0
H1721 H 0.37702 0.15776 0.97558 0.0
H1722 H 0.36458 0.17682 0.98768 0.0
H1723 H 0.38881 0.18006 0.97999 0.0
C1724 C 0.342 0.23103 0.99602 0.0
C1725 C 0.35935 0.2395 0.00145 0.0
C1726 C 0.34156 0.21758 0.98126 0.0
C1727 C 0.35851 0.21225 0.9721 0.0
C1728 C 0.3758 0.22048 0.97772 0.0
H1729 H 0.4117 0.18293 0.87368 0.0
H1730 H 0.39047 0.19714 0.8971 0.0
C1731 C 0.37623 0.23399 0.99221 0.0
C1732 C 0.3586 0.19878 0.95597 0.0
H1733 H 0.38179 0.15874 0.94154 0.0
C1734 C 0.3519 0.20507 0.93822 0.0
C1735 C 0.36834 0.18124 0.9573 0.0
C1736 C 0.37495 0.17345 0.97621 0.0
C1737 C 0.35635 0.1951 0.92146 0.0
C1738 C 0.36802 0.17869 0.92261 0.0
C1739 C 0.37303 0.17144 0.94058 0.0
C1740 C 0.37757 0.17044 0.90568 0.0
C1741 C 0.34922 0.20269 0.90267 0.0
C1742 C 0.3774 0.15068 0.90261 0.0
C1743 C 0.38971 0.1425 0.88928 0.0
C1744 C 0.40229 0.15394 0.87873 0.0
C1745 C 0.40177 0.17379 0.88112 0.0
C1746 C 0.38956 0.18195 0.89454 0.0
H1747 H 0.3352 0.20985 0.90444 0.0
H1748 H 0.35942 0.21346 0.89721 0.0
H1749 H 0.34776 0.19117 0.89191 0.0
H1750 H 0.36842 0.14151 0.91118 0.0
H1751 H 0.38989 0.12714 0.88774 0.0
H1752 H 0.66289 0.21829 0.99177 0.0
H1753 H 0.66228 0.1939 0.0168 0.0
H1754 H 0.65 0.23715 0.05871 0.0
H1755 H 0.65098 0.26153 0.03405 0.0
H1756 H 0.67494 0.20887 0.07212 0.0
H1757 H 0.61002 0.17845 0.03783 0.0
H1758 H 0.63117 0.17937 0.02343 0.0
H1759 H 0.61985 0.20112 0.0308 0.0
C1760 C 0.66039 0.22262 0.00637 0.0
C1761 C 0.65663 0.24178 0.01089 0.0
C1762 C 0.65999 0.20867 0.02062 0.0
C1763 C 0.65575 0.21372 0.03952 0.0
C1764 C 0.65323 0.23296 0.0442 0.0
H1765 H 0.60834 0.179 0.14227 0.0
H1766 H 0.62806 0.19336 0.11764 0.0
C1767 C 0.65366 0.24686 0.03004 0.0
C1768 C 0.65198 0.1991 0.05422 0.0
H1769 H 0.61857 0.16647 0.06764 0.0
C1770 C 0.66283 0.19933 0.07104 0.0
C1771 C 0.63612 0.18673 0.05276 0.0
C1772 C 0.62349 0.1864 0.03533 0.0
C1773 C 0.65775 0.18804 0.08676 0.0
C1774 C 0.64136 0.17643 0.08559 0.0
C1775 C 0.63118 0.17538 0.06842 0.0
C1776 C 0.63306 0.16697 0.10248 0.0
C1777 C 0.66965 0.18901 0.10463 0.0
C1778 C 0.62948 0.14732 0.10225 0.0
C1779 C 0.6183 0.13902 0.11646 0.0
C1780 C 0.61044 0.15024 0.13108 0.0
C1781 C 0.61471 0.16979 0.1317 0.0
C1782 C 0.62595 0.17807 0.11753 0.0
H1783 H 0.68446 0.19363 0.10147 0.0
H1784 H 0.66327 0.19957 0.11453 0.0
H1785 H 0.67009 0.17499 0.11196 0.0
H1786 H 0.63465 0.13857 0.09063 0.0
H1787 H 0.61517 0.12393 0.11557 0.0
H1788 H 0.37023 0.755 0.03983 0.0
H1789 H 0.36876 0.77893 0.06488 0.0
H1790 H 0.34571 0.81965 0.02501 0.0
H1791 H 0.34729 0.79566 0.99961 0.0
H1792 H 0.37784 0.83211 0.04332 0.0
H1793 H 0.32722 0.80401 0.09647 0.0
H1794 H 0.34397 0.78608 0.08933 0.0
H1795 H 0.32763 0.79579 0.07206 0.0
C1796 C 0.36457 0.76895 0.03641 0.0
C1797 C 0.35907 0.77352 0.0177 0.0
C1798 C 0.36349 0.78254 0.05082 0.0
C1799 C 0.3568 0.80096 0.04688 0.0
C1800 C 0.35068 0.80542 0.02837 0.0
H1801 H 0.39394 0.89385 0.12241 0.0
H1802 H 0.37295 0.87836 0.09913 0.0
C1803 C 0.35166 0.79174 0.01389 0.0
C1804 C 0.35908 0.816 0.06145 0.0
H1805 H 0.35259 0.82437 0.10889 0.0
C1806 C 0.37188 0.83083 0.05753 0.0
C1807 C 0.35126 0.81425 0.07992 0.0
C1808 C 0.3366 0.79927 0.08463 0.0
C1809 C 0.37849 0.84286 0.07203 0.0
C1810 C 0.37172 0.8402 0.09085 0.0
C1811 C 0.3578 0.82631 0.09446 0.0
C1812 C 0.38102 0.84972 0.10718 0.0
C1813 C 0.3938 0.85725 0.06736 0.0
C1814 C 0.39165 0.8387 0.12004 0.0
C1815 C 0.40344 0.84747 0.13343 0.0
C1816 C 0.40472 0.86741 0.13419 0.0
C1817 C 0.3932 0.87843 0.12206 0.0
C1818 C 0.38127 0.86964 0.10876 0.0
H1819 H 0.39958 0.85533 0.05275 0.0
H1820 H 0.38777 0.87183 0.06834 0.0
H1821 H 0.40577 0.85619 0.07766 0.0
H1822 H 0.39174 0.82329 0.11895 0.0
H1823 H 0.41249 0.83859 0.1422 0.0
H1824 H 0.98115 0.63602 0.76567 0.0
H1825 H 0.95438 0.63857 0.7873 0.0
H1826 H 0.98204 0.68497 0.81671 0.0
H1827 H 0.00947 0.68215 0.79515 0.0
H1828 H 0.96945 0.65987 0.84124 0.0
H1829 H 0.91041 0.67405 0.79217 0.0
H1830 H 0.92352 0.65429 0.78279 0.0
H1831 H 0.93497 0.67724 0.78509 0.0
C1832 C 0.98154 0.64695 0.77657 0.0
C1833 C 0.99748 0.65886 0.77871 0.0
C1834 C 0.96604 0.64858 0.7888 0.0
C1835 C 0.9659 0.66236 0.80329 0.0
C1836 C 0.98172 0.67444 0.80542 0.0
H1837 H 0.86294 0.63014 0.86599 0.0
H1838 H 0.88457 0.65387 0.85214 0.0
C1839 C 0.9974 0.67274 0.79318 0.0
C1840 C 0.95018 0.66214 0.81737 0.0
H1841 H 0.9027 0.65224 0.81921 0.0
C1842 C 0.95475 0.65887 0.83657 0.0
C1843 C 0.93087 0.66158 0.8116 0.0
C1844 C 0.9247 0.66724 0.7918 0.0
C1845 C 0.94088 0.65244 0.84941 0.0
C1846 C 0.92226 0.64866 0.84268 0.0
C1847 C 0.91713 0.65454 0.82427 0.0
C1848 C 0.90933 0.63549 0.85289 0.0
C1849 C 0.94664 0.64864 0.86977 0.0
C1850 C 0.916 0.61726 0.85768 0.0
C1851 C 0.90373 0.60374 0.86536 0.0
C1852 C 0.88438 0.60797 0.86811 0.0
C1853 C 0.87766 0.62629 0.86357 0.0
C1854 C 0.89005 0.63994 0.8559 0.0
H1855 H 0.95725 0.65935 0.87464 0.0
H1856 H 0.9342 0.64896 0.87953 0.0
H1857 H 0.95352 0.63443 0.87069 0.0
H1858 H 0.93062 0.6132 0.85485 0.0
H1859 H 0.90933 0.58972 0.8686 0.0
H1860 H 0.99507 0.34905 0.79672 0.0
H1861 H 0.01994 0.34744 0.82129 0.0
H1862 H 0.06092 0.36973 0.78129 0.0
H1863 H 0.03648 0.37106 0.75673 0.0
H1864 H 0.07553 0.34039 0.80507 0.0
H1865 H 0.03808 0.39752 0.8458 0.0
H1866 H 0.02514 0.37598 0.84084 0.0
H1867 H 0.03155 0.39163 0.82165 0.0
C1868 C 0.00945 0.35337 0.79312 0.0
C1869 C 0.01374 0.36049 0.77489 0.0
C1870 C 0.0236 0.35246 0.80717 0.0
C1871 C 0.04217 0.35871 0.80313 0.0
C1872 C 0.04666 0.36485 0.78468 0.0
H1873 H 0.14294 0.40658 0.83706 0.0
H1874 H 0.11861 0.38622 0.82317 0.0
C1875 C 0.03262 0.36573 0.77069 0.0
C1876 C 0.0567 0.36074 0.81825 0.0
H1877 H 0.06929 0.39045 0.85456 0.0
C1878 C 0.07406 0.35101 0.8162 0.0
C1879 C 0.05468 0.37453 0.83281 0.0
C1880 C 0.03643 0.38564 0.83547 0.0
C1881 C 0.08986 0.35559 0.82757 0.0
C1882 C 0.08826 0.37045 0.84107 0.0
C1883 C 0.07048 0.37908 0.84415 0.0
C1884 C 0.10516 0.37931 0.85007 0.0
C1885 C 0.10829 0.34496 0.82454 0.0
C1886 C 0.10576 0.38219 0.86984 0.0
C1887 C 0.11974 0.3939 0.87784 0.0
C1888 C 0.13335 0.40288 0.86621 0.0
C1889 C 0.13317 0.39934 0.84652 0.0
C1890 C 0.11919 0.38768 0.83853 0.0
H1891 H 0.10557 0.33019 0.81953 0.0
H1892 H 0.11675 0.35231 0.81338 0.0
H1893 H 0.1169 0.34438 0.83781 0.0
H1894 H 0.09492 0.37607 0.87897 0.0
H1895 H 0.11949 0.39649 0.89306 0.0
H1896 H 0.98088 0.36627 0.26373 0.0
H1897 H 0.9553 0.36564 0.24037 0.0
H1898 H 0.99498 0.34766 0.197 0.0
H1899 H 0.02095 0.34853 0.22041 0.0
H1900 H 0.97545 0.3795 0.18729 0.0
H1901 H 0.92424 0.3257 0.21291 0.0
H1902 H 0.93098 0.34153 0.23179 0.0
H1903 H 0.9487 0.32641 0.22097 0.0
C1904 C 0.98417 0.36186 0.2493 0.0
C1905 C 0.00299 0.35766 0.24385 0.0
C1906 C 0.96945 0.36126 0.236 0.0
C1907 C 0.97316 0.35629 0.21701 0.0
C1908 C 0.99179 0.35131 0.21165 0.0
H1909 H 0.89577 0.39432 0.12612 0.0
H1910 H 0.91979 0.37403 0.14133 0.0
C1911 C 0.0066 0.35186 0.22502 0.0
C1912 C 0.95814 0.35927 0.2025 0.0
H1913 H 0.91075 0.35189 0.19436 0.0
C1914 C 0.96144 0.37307 0.18843 0.0
C1915 C 0.93989 0.35087 0.20407 0.0
C1916 C 0.93582 0.33516 0.21815 0.0
C1917 C 0.94658 0.37989 0.17696 0.0
C1918 C 0.92802 0.37237 0.17941 0.0
C1919 C 0.92498 0.35767 0.1926 0.0
C1920 C 0.91137 0.3813 0.17008 0.0
C1921 C 0.9506 0.39606 0.16333 0.0
C1922 C 0.8981 0.39127 0.18123 0.0
C1923 C 0.8843 0.40271 0.1726 0.0
C1924 C 0.88353 0.40428 0.15267 0.0
C1925 C 0.8961 0.39338 0.14152 0.0
C1926 C 0.90982 0.38183 0.15017 0.0
H1927 H 0.96498 0.40232 0.16555 0.0
H1928 H 0.94983 0.3907 0.14848 0.0
H1929 H 0.93982 0.40753 0.16496 0.0
H1930 H 0.89916 0.39113 0.19664 0.0
H1931 H 0.87518 0.41129 0.18159 0.0
H1932 H 0.1168 0.61346 0.12197 0.0
H1933 H 0.09263 0.63396 0.13662 0.0
H1934 H 0.11752 0.62367 0.19187 0.0
H1935 H 0.14141 0.60314 0.17745 0.0
H1936 H 0.06741 0.61984 0.16227 0.0
H1937 H 0.10578 0.68034 0.19483 0.0
H1938 H 0.11614 0.66572 0.17633 0.0
H1939 H 0.11668 0.658 0.2008 0.0
C1940 C 0.11739 0.616 0.13719 0.0
C1941 C 0.13124 0.60697 0.1485 0.0
C1942 C 0.10363 0.62774 0.14551 0.0
C1943 C 0.10352 0.63066 0.16528 0.0
C1944 C 0.11773 0.62217 0.17651 0.0
H1945 H 0.03565 0.6453 0.25957 0.0
H1946 H 0.06011 0.64441 0.23502 0.0
C1947 C 0.13147 0.61043 0.16821 0.0
C1948 C 0.08704 0.63993 0.17461 0.0
H1949 H 0.07565 0.67166 0.20963 0.0
C1950 C 0.06904 0.63154 0.17224 0.0
C1951 C 0.08925 0.65519 0.18756 0.0
C1952 C 0.10799 0.66546 0.18989 0.0
C1953 C 0.05355 0.6369 0.18365 0.0
C1954 C 0.05611 0.65129 0.19754 0.0
C1955 C 0.07376 0.66061 0.19898 0.0
C1956 C 0.04168 0.65464 0.21251 0.0
C1957 C 0.03503 0.6261 0.18176 0.0
C1958 C 0.02331 0.66124 0.20809 0.0
C1959 C 0.00915 0.66163 0.22214 0.0
C1960 C 0.01324 0.65546 0.24077 0.0
C1961 C 0.03195 0.64991 0.24531 0.0
C1962 C 0.04601 0.64952 0.23132 0.0
H1963 H 0.03634 0.61356 0.17218 0.0
H1964 H 0.03006 0.62111 0.19593 0.0
H1965 H 0.02395 0.63569 0.17581 0.0
H1966 H 0.01979 0.66552 0.19369 0.0
H1967 H 0.99491 0.66614 0.21826 0.0
H1968 H 0.86341 0.8626 0.63083 0.0
H1969 H 0.84566 0.88366 0.65241 0.0
H1970 H 0.8526 0.93004 0.61264 0.0
H1971 H 0.87051 0.90931 0.59139 0.0
H1972 H 0.85729 0.94165 0.64935 0.0
H1973 H 0.79097 0.89846 0.64181 0.0
H1974 H 0.81158 0.88683 0.6516 0.0
H1975 H 0.81158 0.89423 0.62709 0.0
C1976 C 0.86102 0.87726 0.62671 0.0
C1977 C 0.86793 0.88424 0.60925 0.0
C1978 C 0.85097 0.88928 0.63907 0.0
C1979 C 0.84754 0.90833 0.63398 0.0
C1980 C 0.8551 0.91541 0.61689 0.0
H1981 H 0.76316 0.98552 0.62876 0.0
H1982 H 0.7857 0.95932 0.62973 0.0
C1983 C 0.86528 0.90352 0.60471 0.0
C1984 C 0.83505 0.92091 0.64542 0.0
H1985 H 0.78802 0.92891 0.65464 0.0
C1986 C 0.8422 0.93876 0.65098 0.0
C1987 C 0.8154 0.91697 0.64761 0.0
C1988 C 0.80681 0.89816 0.64166 0.0
C1989 C 0.82995 0.95345 0.65682 0.0
C1990 C 0.81013 0.94994 0.65755 0.0
C1991 C 0.80325 0.93151 0.65395 0.0
C1992 C 0.79615 0.96571 0.65805 0.0
C1993 C 0.83812 0.97301 0.66047 0.0
C1994 C 0.79454 0.97809 0.6737 0.0
C1995 C 0.7817 0.99338 0.67309 0.0
C1996 C 0.77022 0.99632 0.6569 0.0
C1997 C 0.77176 0.98369 0.64145 0.0
C1998 C 0.7846 0.96862 0.64201 0.0
H1999 H 0.85359 0.97377 0.65719 0.0
H2000 H 0.83058 0.98384 0.65172 0.0
H2001 H 0.8361 0.9768 0.67568 0.0
H2002 H 0.80316 0.97593 0.68631 0.0
H2003 H 0.78069 0.0028 0.68528 0.0
H2004 H 0.89215 0.12255 0.39418 0.0
H2005 H 0.87667 0.09944 0.37309 0.0
H2006 H 0.82167 0.12146 0.38952 0.0
H2007 H 0.83698 0.14446 0.41042 0.0
H2008 H 0.85444 0.07253 0.38753 0.0
H2009 H 0.81272 0.11164 0.33371 0.0
H2010 H 0.83185 0.12268 0.34697 0.0
H2011 H 0.80825 0.12112 0.357 0.0
C2012 C 0.87677 0.12282 0.39279 0.0
C2013 C 0.86579 0.13549 0.40373 0.0
C2014 C 0.86797 0.10967 0.38072 0.0
C2015 C 0.84803 0.10892 0.37946 0.0
C2016 C 0.83709 0.12218 0.38972 0.0
H2017 H 0.75606 0.03786 0.37616 0.0
H2018 H 0.77978 0.06309 0.37439 0.0
C2019 C 0.84589 0.13538 0.40171 0.0
C2020 C 0.83851 0.09241 0.3704 0.0
H2021 H 0.79983 0.08066 0.34341 0.0
C2022 C 0.84288 0.07419 0.37739 0.0
C2023 C 0.82349 0.0946 0.35715 0.0
C2024 C 0.81896 0.11357 0.34814 0.0
C2025 C 0.83151 0.0584 0.37292 0.0
C2026 C 0.81553 0.06091 0.36091 0.0
C2027 C 0.81205 0.07882 0.3527 0.0
C2028 C 0.80067 0.04608 0.3594 0.0
C2029 C 0.83575 0.03952 0.38234 0.0
C2030 C 0.80443 0.02824 0.35116 0.0
C2031 C 0.79088 0.01364 0.35228 0.0
C2032 C 0.77343 0.01673 0.36164 0.0
C2033 C 0.76945 0.03491 0.36906 0.0
C2034 C 0.78293 0.04942 0.36793 0.0
H2035 H 0.84734 0.04062 0.39308 0.0
H2036 H 0.8228 0.03388 0.38947 0.0
H2037 H 0.84019 0.02905 0.37136 0.0
H2038 H 0.81799 0.02549 0.34433 0.0
H2039 H 0.79428 0.99983 0.34627 0.0
H2040 H 0.23722 0.0051 0.4068 0.0
H2041 H 0.21457 0.97912 0.40315 0.0
H2042 H 0.22765 0.97571 0.34316 0.0
H2043 H 0.25108 0.00137 0.34688 0.0
H2044 H 0.183 0.97426 0.38226 0.0
H2045 H 0.23842 0.92194 0.36 0.0
H2046 H 0.24448 0.9453 0.36878 0.0
H2047 H 0.23539 0.94245 0.345 0.0
C2048 C 0.23523 0.99894 0.39279 0.0
C2049 C 0.24609 0.00512 0.37718 0.0
C2050 C 0.22222 0.98411 0.3907 0.0
C2051 C 0.21965 0.97525 0.37295 0.0
C2052 C 0.22976 0.98202 0.35708 0.0
H2053 H 0.13214 0.88684 0.38987 0.0
H2054 H 0.14851 0.91173 0.37149 0.0
C2055 C 0.24303 0.99675 0.35921 0.0
C2056 C 0.20702 0.9584 0.37174 0.0
H2057 H 0.20818 0.91002 0.36704 0.0
C2058 C 0.18834 0.96021 0.37862 0.0
C2059 C 0.21408 0.94014 0.36688 0.0
C2060 C 0.23421 0.9372 0.35987 0.0
C2061 C 0.1771 0.94416 0.38245 0.0
C2062 C 0.18453 0.9258 0.37851 0.0
C2063 C 0.20257 0.92411 0.37003 0.0
C2064 C 0.17544 0.90837 0.38619 0.0
C2065 C 0.15812 0.94703 0.3922 0.0
C2066 C 0.18552 0.89735 0.39953 0.0
C2067 C 0.17639 0.88287 0.40956 0.0
C2068 C 0.15699 0.87923 0.40649 0.0
C2069 C 0.14714 0.88947 0.3924 0.0
C2070 C 0.15642 0.90374 0.38205 0.0
H2071 H 0.1562 0.96189 0.39731 0.0
H2072 H 0.14645 0.94388 0.38201 0.0
H2073 H 0.15666 0.9373 0.40459 0.0
H2074 H 0.20019 0.90071 0.40303 0.0
H2075 H 0.18415 0.87553 0.42069 0.0
H2076 H 0.18162 0.14342 0.60332 0.0
H2077 H 0.19606 0.11937 0.62383 0.0
H2078 H 0.14025 0.09869 0.63916 0.0
H2079 H 0.12566 0.12273 0.61844 0.0
H2080 H 0.19301 0.10742 0.66261 0.0
H2081 H 0.16479 0.05366 0.6113 0.0
H2082 H 0.16428 0.07885 0.60631 0.0
H2083 H 0.14755 0.06869 0.6228 0.0
C2084 C 0.17238 0.13426 0.61158 0.0
C2085 C 0.15251 0.13499 0.60937 0.0
C2086 C 0.18066 0.12043 0.62323 0.0
C2087 C 0.16921 0.10711 0.63278 0.0
C2088 C 0.14932 0.10868 0.63167 0.0
H2089 H 0.2191 0.99729 0.66536 0.0
H2090 H 0.19567 0.02323 0.66637 0.0
C2091 C 0.14103 0.12241 0.61989 0.0
C2092 C 0.17827 0.09035 0.64178 0.0
H2093 H 0.18615 0.04298 0.63435 0.0
C2094 C 0.19127 0.09324 0.6567 0.0
C2095 C 0.17588 0.07186 0.63408 0.0
C2096 C 0.16249 0.06798 0.61766 0.0
C2097 C 0.20266 0.07827 0.66349 0.0
C2098 C 0.20115 0.0601 0.65491 0.0
C2099 C 0.18723 0.05693 0.64093 0.0
C2100 C 0.21567 0.0451 0.65783 0.0
C2101 C 0.21661 0.08219 0.67936 0.0
C2102 C 0.23465 0.04885 0.65285 0.0
C2103 C 0.24795 0.03413 0.65213 0.0
C2104 C 0.24251 0.01531 0.65626 0.0
C2105 C 0.22369 0.01165 0.66208 0.0
C2106 C 0.21032 0.02644 0.66271 0.0
H2107 H 0.21135 0.09374 0.68884 0.0
H2108 H 0.21928 0.06924 0.68806 0.0
H2109 H 0.23034 0.08697 0.67315 0.0
H2110 H 0.239 0.06302 0.64854 0.0
H2111 H 0.26237 0.03745 0.64772 0.0
H2112 H 0.39326 0.24553 0.07481 0.0
H2113 H 0.41444 0.22765 0.09584 0.0
H2114 H 0.42097 0.27712 0.13166 0.0
H2115 H 0.39967 0.29515 0.11079 0.0
H2116 H 0.45232 0.23862 0.1012 0.0
H2117 H 0.41487 0.23405 0.1707 0.0
H2118 H 0.40262 0.23946 0.14871 0.0
H2119 H 0.41613 0.25759 0.16073 0.0
C2120 C 0.39872 0.25252 0.08745 0.0
C2121 C 0.39475 0.27188 0.09099 0.0
C2122 C 0.41094 0.24226 0.09943 0.0
C2123 C 0.41934 0.251 0.11535 0.0
C2124 C 0.41449 0.26995 0.11962 0.0
H2125 H 0.51024 0.21692 0.19387 0.0
H2126 H 0.48515 0.23425 0.17654 0.0
C2127 C 0.40227 0.28026 0.10762 0.0
C2128 C 0.43465 0.24097 0.12616 0.0
H2129 H 0.44745 0.2248 0.17033 0.0
C2130 C 0.45119 0.2355 0.11629 0.0
C2131 C 0.43331 0.2371 0.1459 0.0
C2132 C 0.41573 0.24219 0.15715 0.0
C2133 C 0.46646 0.22645 0.1256 0.0
C2134 C 0.46505 0.22233 0.1453 0.0
C2135 C 0.44856 0.22793 0.15523 0.0
C2136 C 0.48041 0.21195 0.15574 0.0
C2137 C 0.48415 0.22181 0.11428 0.0
C2138 C 0.48601 0.19361 0.14996 0.0
C2139 C 0.50039 0.18382 0.15975 0.0
C2140 C 0.50938 0.1921 0.17561 0.0
C2141 C 0.50366 0.21034 0.18155 0.0
C2142 C 0.48929 0.22018 0.17172 0.0
H2143 H 0.48525 0.23075 0.10126 0.0
H2144 H 0.49722 0.22389 0.12297 0.0
H2145 H 0.48357 0.20668 0.10971 0.0
H2146 H 0.47908 0.18673 0.13802 0.0
H2147 H 0.50421 0.16959 0.15516 0.0
H2148 H 0.61885 0.76588 0.06803 0.0
H2149 H 0.59865 0.78514 0.08884 0.0
H2150 H 0.59235 0.73748 0.12706 0.0
H2151 H 0.6127 0.71813 0.10644 0.0
H2152 H 0.56094 0.77621 0.09638 0.0
H2153 H 0.60159 0.78152 0.164 0.0
H2154 H 0.61256 0.77457 0.14177 0.0
H2155 H 0.59883 0.75764 0.15521 0.0
C2156 C 0.6136 0.75958 0.0811 0.0
C2157 C 0.61743 0.74036 0.08547 0.0
C2158 C 0.60195 0.77063 0.09296 0.0
C2159 C 0.59398 0.76282 0.10958 0.0
C2160 C 0.59854 0.74396 0.1145 0.0
H2161 H 0.50764 0.80205 0.19057 0.0
H2162 H 0.53137 0.78352 0.1726 0.0
C2163 C 0.6102 0.73287 0.10264 0.0
C2164 C 0.57954 0.77381 0.12067 0.0
H2165 H 0.56927 0.79169 0.16484 0.0
C2166 C 0.56283 0.7797 0.11132 0.0
C2167 C 0.58188 0.77822 0.14022 0.0
C2168 C 0.59975 0.77282 0.15089 0.0
C2169 C 0.54834 0.78962 0.12099 0.0
C2170 C 0.55073 0.79418 0.1405 0.0
C2171 C 0.5674 0.78822 0.14989 0.0
C2172 C 0.53619 0.80531 0.15131 0.0
C2173 C 0.5304 0.79472 0.11028 0.0
C2174 C 0.53109 0.82379 0.14548 0.0
C2175 C 0.51752 0.83429 0.15566 0.0
C2176 C 0.5088 0.82658 0.17195 0.0
C2177 C 0.51402 0.8082 0.17793 0.0
C2178 C 0.52761 0.79767 0.16772 0.0
H2179 H 0.52847 0.78566 0.09744 0.0
H2180 H 0.51762 0.79322 0.11949 0.0
H2181 H 0.53131 0.80976 0.10548 0.0
H2182 H 0.53783 0.83022 0.13317 0.0
H2183 H 0.51409 0.8486 0.15101 0.0
H2184 H 0.39432 0.76998 0.94869 0.0
H2185 H 0.41505 0.78912 0.92829 0.0
H2186 H 0.41944 0.74238 0.88866 0.0
H2187 H 0.39853 0.7232 0.90881 0.0
H2188 H 0.45219 0.77947 0.92036 0.0
H2189 H 0.41179 0.78733 0.8529 0.0
H2190 H 0.40065 0.78 0.8749 0.0
H2191 H 0.41392 0.76313 0.8609 0.0
C2192 C 0.39926 0.76389 0.93539 0.0
C2193 C 0.39472 0.74496 0.93048 0.0
C2194 C 0.41121 0.77486 0.92376 0.0
C2195 C 0.4188 0.76726 0.90688 0.0
C2196 C 0.41354 0.74872 0.90143 0.0
H2197 H 0.50688 0.80382 0.8268 0.0
H2198 H 0.48248 0.78609 0.84466 0.0
C2199 C 0.40157 0.73773 0.91304 0.0
C2200 C 0.43358 0.77801 0.89601 0.0
H2201 H 0.44461 0.79599 0.85207 0.0
C2202 C 0.45045 0.78321 0.90547 0.0
C2203 C 0.43143 0.78275 0.87651 0.0
C2204 C 0.41341 0.77818 0.86572 0.0
C2205 C 0.4653 0.79272 0.89596 0.0
C2206 C 0.46315 0.79752 0.87648 0.0
C2207 C 0.4463 0.7923 0.86698 0.0
C2208 C 0.47815 0.80813 0.86581 0.0
C2209 C 0.48338 0.79712 0.90676 0.0
C2210 C 0.48376 0.82646 0.87163 0.0
C2211 C 0.4977 0.83651 0.8615 0.0
C2212 C 0.50629 0.82847 0.8453 0.0
C2213 C 0.5006 0.81022 0.83937 0.0
C2214 C 0.48663 0.80015 0.84951 0.0
H2215 H 0.48487 0.78804 0.91965 0.0
H2216 H 0.49613 0.79506 0.89762 0.0
H2217 H 0.48306 0.81221 0.91148 0.0
H2218 H 0.47713 0.83313 0.88386 0.0
H2219 H 0.50149 0.85075 0.8661 0.0
H2220 H 0.48816 0.21486 0.8512 0.0
H2221 H 0.51241 0.23321 0.86875 0.0
H2222 H 0.55561 0.19351 0.85046 0.0
H2223 H 0.53154 0.17533 0.83297 0.0
H2224 H 0.53635 0.22264 0.89795 0.0
H2225 H 0.57912 0.24419 0.8352 0.0
H2226 H 0.55548 0.23428 0.83307 0.0
H2227 H 0.57565 0.21891 0.83684 0.0
C2228 C 0.50286 0.21015 0.85093 0.0
C2229 C 0.50804 0.19391 0.84044 0.0
C2230 C 0.5167 0.22061 0.86092 0.0
C2231 C 0.53597 0.21503 0.86057 0.0
C2232 C 0.541 0.19848 0.8505 0.0
H2233 H 0.62313 0.2507 0.94178 0.0
H2234 H 0.60152 0.23244 0.92145 0.0
C2235 C 0.52721 0.18807 0.84054 0.0
C2236 C 0.55075 0.22613 0.87111 0.0
H2237 H 0.59318 0.2496 0.86566 0.0
C2238 C 0.54873 0.22858 0.89086 0.0
C2239 C 0.56684 0.23412 0.86187 0.0
C2240 C 0.56936 0.23293 0.84055 0.0
C2241 C 0.56248 0.23844 0.90166 0.0
C2242 C 0.57893 0.24579 0.89254 0.0
C2243 C 0.58076 0.24371 0.87272 0.0
C2244 C 0.59403 0.25622 0.90332 0.0
C2245 C 0.55906 0.24118 0.92271 0.0
C2246 C 0.598 0.2754 0.89919 0.0
C2247 C 0.61056 0.28588 0.91068 0.0
C2248 C 0.61948 0.27739 0.92655 0.0
C2249 C 0.61648 0.2578 0.92979 0.0
C2250 C 0.60394 0.24735 0.91828 0.0
H2251 H 0.54382 0.2391 0.9265 0.0
H2252 H 0.56757 0.23058 0.93079 0.0
H2253 H 0.56349 0.25564 0.92735 0.0
H2254 H 0.59069 0.28252 0.88761 0.0
H2255 H 0.61249 0.30089 0.90767 0.0
H2256 H 0.11104 0.39914 0.29695 0.0
H2257 H 0.13107 0.42014 0.27765 0.0
H2258 H 0.0938 0.41174 0.22956 0.0
H2259 H 0.07352 0.39093 0.24875 0.0
H2260 H 0.15065 0.41741 0.24245 0.0
H2261 H 0.09116 0.46947 0.2387 0.0
H2262 H 0.09095 0.4494 0.25476 0.0
H2263 H 0.08536 0.44612 0.22997 0.0
C2264 C 0.10728 0.40139 0.28215 0.0
C2265 C 0.09046 0.39348 0.27453 0.0
C2266 C 0.11876 0.41348 0.27114 0.0
C2267 C 0.11367 0.41795 0.25231 0.0
C2268 C 0.09776 0.40889 0.2442 0.0
H2269 H 0.15424 0.49989 0.16852 0.0
H2270 H 0.13733 0.47496 0.18622 0.0
C2271 C 0.08625 0.39683 0.25519 0.0
C2272 C 0.12423 0.43296 0.2416 0.0
H2273 H 0.11881 0.47677 0.22093 0.0
C2274 C 0.14371 0.4304 0.23776 0.0
C2275 C 0.11521 0.44999 0.23558 0.0
C2276 C 0.09457 0.45407 0.24008 0.0
C2277 C 0.15428 0.4442 0.22771 0.0
C2278 C 0.14522 0.46121 0.22164 0.0
C2279 C 0.12576 0.46375 0.22553 0.0
C2280 C 0.15555 0.47648 0.21107 0.0
C2281 C 0.17494 0.44026 0.22329 0.0
C2282 C 0.17122 0.48594 0.21925 0.0
C2283 C 0.1808 0.5003 0.20918 0.0
C2284 C 0.1748 0.50557 0.19082 0.0
C2285 C 0.15898 0.4963 0.18276 0.0
C2286 C 0.1494 0.48197 0.19282 0.0
H2287 H 0.17835 0.42484 0.22443 0.0
H2288 H 0.17868 0.44521 0.20874 0.0
H2289 H 0.18405 0.44803 0.23363 0.0
H2290 H 0.17599 0.48228 0.23346 0.0
H2291 H 0.19296 0.50725 0.21568 0.0
H2292 H 0.9063 0.61697 0.29691 0.0
H2293 H 0.88623 0.59548 0.27813 0.0
H2294 H 0.92299 0.60331 0.22959 0.0
H2295 H 0.94323 0.62468 0.2482 0.0
H2296 H 0.86659 0.59774 0.24203 0.0
H2297 H 0.92607 0.54551 0.24086 0.0
H2298 H 0.92585 0.56586 0.2566 0.0
H2299 H 0.93198 0.56875 0.2319 0.0
C2300 C 0.9099 0.61453 0.2821 0.0
C2301 C 0.92658 0.62244 0.2742 0.0
C2302 C 0.89842 0.60214 0.2714 0.0
C2303 C 0.90338 0.59739 0.2526 0.0
C2304 C 0.91912 0.60643 0.2442 0.0
H2305 H 0.86459 0.5133 0.17017 0.0
H2306 H 0.88139 0.53831 0.1879 0.0
C2307 C 0.93061 0.6188 0.25486 0.0
C2308 C 0.89294 0.58207 0.24224 0.0
H2309 H 0.89868 0.5377 0.2229 0.0
C2310 C 0.87357 0.58459 0.23788 0.0
C2311 C 0.90203 0.56486 0.23689 0.0
C2312 C 0.92258 0.56092 0.24192 0.0
C2313 C 0.86319 0.57057 0.22791 0.0
C2314 C 0.87232 0.55337 0.22252 0.0
C2315 C 0.89167 0.55085 0.22698 0.0
C2316 C 0.8622 0.53788 0.21203 0.0
C2317 C 0.84268 0.57454 0.22281 0.0
C2318 C 0.84604 0.52895 0.21984 0.0
C2319 C 0.8365 0.51458 0.20974 0.0
C2320 C 0.84304 0.50872 0.19175 0.0
C2321 C 0.85941 0.51735 0.18413 0.0
C2322 C 0.86894 0.53173 0.1942 0.0
H2323 H 0.83941 0.59003 0.22331 0.0
H2324 H 0.83925 0.5691 0.20835 0.0
H2325 H 0.83325 0.56726 0.2332 0.0
H2326 H 0.8408 0.53309 0.23375 0.0
H2327 H 0.82388 0.50815 0.21589 0.0
H2328 H 0.1094 0.61978 0.72884 0.0
H2329 H 0.12974 0.59799 0.74696 0.0
H2330 H 0.09039 0.60013 0.79402 0.0
H2331 H 0.06989 0.62184 0.77607 0.0
H2332 H 0.14734 0.59909 0.78459 0.0
H2333 H 0.09177 0.54304 0.77804 0.0
H2334 H 0.09157 0.56441 0.76374 0.0
H2335 H 0.08388 0.56521 0.78813 0.0
C2336 C 0.10523 0.61599 0.74321 0.0
C2337 C 0.08783 0.62248 0.75086 0.0
C2338 C 0.11689 0.60346 0.75353 0.0
C2339 C 0.11138 0.59707 0.77167 0.0
C2340 C 0.09475 0.60457 0.7799 0.0
H2341 H 0.15195 0.50778 0.84782 0.0
H2342 H 0.1342 0.53325 0.83182 0.0
C2343 C 0.08311 0.61714 0.76963 0.0
C2344 C 0.12231 0.58169 0.78142 0.0
H2345 H 0.11892 0.53543 0.79636 0.0
C2346 C 0.14116 0.58516 0.78716 0.0
C2347 C 0.11424 0.56349 0.78473 0.0
C2348 C 0.09431 0.55866 0.77822 0.0
C2349 C 0.15202 0.57106 0.79646 0.0
C2350 C 0.14398 0.5528 0.79969 0.0
C2351 C 0.12512 0.54938 0.79392 0.0
C2352 C 0.15476 0.53708 0.80916 0.0
C2353 C 0.17184 0.57603 0.80316 0.0
C2354 C 0.17207 0.5304 0.80159 0.0
C2355 C 0.18219 0.51576 0.81069 0.0
C2356 C 0.17506 0.5073 0.82738 0.0
C2357 C 0.15759 0.51374 0.83476 0.0
C2358 C 0.14752 0.52841 0.8257 0.0
H2359 H 0.17378 0.59168 0.80456 0.0
H2360 H 0.17503 0.56927 0.81711 0.0
H2361 H 0.18236 0.57078 0.79259 0.0
H2362 H 0.17778 0.53648 0.78861 0.0
H2363 H 0.19565 0.5111 0.80475 0.0
H2364 H 0.8647 0.50404 0.84362 0.0
H2365 H 0.88188 0.47994 0.82497 0.0
H2366 H 0.83748 0.48112 0.78249 0.0
H2367 H 0.82036 0.50539 0.80106 0.0
H2368 H 0.86767 0.44308 0.81376 0.0
H2369 H 0.88723 0.4877 0.75131 0.0
H2370 H 0.88007 0.49786 0.77385 0.0
H2371 H 0.8625 0.48813 0.75799 0.0
C2372 C 0.85882 0.49943 0.83011 0.0
C2373 C 0.84136 0.50679 0.8236 0.0
C2374 C 0.86855 0.48554 0.81956 0.0
C2375 C 0.86108 0.47884 0.80223 0.0
C2376 C 0.84368 0.48627 0.79566 0.0
H2377 H 0.90769 0.40024 0.71743 0.0
H2378 H 0.88598 0.42039 0.73583 0.0
C2379 C 0.8339 0.5001 0.80626 0.0
C2380 C 0.87126 0.4637 0.79135 0.0
H2381 H 0.89463 0.45497 0.74954 0.0
C2382 C 0.87357 0.44566 0.79971 0.0
C2383 C 0.87882 0.46702 0.77297 0.0
C2384 C 0.87721 0.48625 0.76348 0.0
C2385 C 0.88316 0.43084 0.79017 0.0
C2386 C 0.89108 0.43426 0.77191 0.0
C2387 C 0.88853 0.45226 0.76348 0.0
C2388 C 0.90285 0.41979 0.76164 0.0
C2389 C 0.88441 0.41158 0.79964 0.0
C2390 C 0.91937 0.41226 0.7701 0.0
C2391 C 0.93172 0.40055 0.75967 0.0
C2392 C 0.92803 0.39629 0.7404 0.0
C2393 C 0.91101 0.40312 0.73222 0.0
C2394 C 0.89861 0.41477 0.74271 0.0
H2395 H 0.87259 0.40946 0.80995 0.0
H2396 H 0.88402 0.39987 0.789 0.0
H2397 H 0.898 0.41062 0.80766 0.0
H2398 H 0.92325 0.41618 0.78451 0.0
H2399 H 0.94472 0.39572 0.76646 0.0
H2400 H 0.17414 0.15482 0.50118 0.0
H2401 H 0.19327 0.13863 0.47676 0.0
H2402 H 0.23731 0.18101 0.48316 0.0
H2403 H 0.21825 0.19711 0.50775 0.0
H2404 H 0.20662 0.15464 0.4417 0.0
H2405 H 0.26642 0.12996 0.48744 0.0
H2406 H 0.24377 0.13741 0.49713 0.0
H2407 H 0.26072 0.15487 0.48921 0.0
C2408 C 0.18808 0.16043 0.49763 0.0
C2409 C 0.19491 0.177 0.50656 0.0
C2410 C 0.19892 0.15128 0.48357 0.0
C2411 C 0.21683 0.15847 0.47826 0.0
C2412 C 0.2237 0.175 0.48724 0.0
H2413 H 0.30333 0.11438 0.40008 0.0
H2414 H 0.28475 0.13541 0.42078 0.0
C2415 C 0.21282 0.18419 0.50125 0.0
C2416 C 0.22803 0.14896 0.46293 0.0
H2417 H 0.26945 0.12484 0.45436 0.0
C2418 C 0.22037 0.14812 0.44445 0.0
C2419 C 0.24602 0.14058 0.46648 0.0
C2420 C 0.25472 0.14056 0.48615 0.0
C2421 C 0.23023 0.1392 0.42943 0.0
C2422 C 0.24808 0.13048 0.43305 0.0
C2423 C 0.25583 0.13156 0.4515 0.0
C2424 C 0.25856 0.11932 0.41828 0.0
C2425 C 0.22153 0.13948 0.40977 0.0
C2426 C 0.24996 0.1035 0.40951 0.0
C2427 C 0.2605 0.09154 0.39751 0.0
C2428 C 0.28001 0.09494 0.39417 0.0
C2429 C 0.28835 0.11131 0.40224 0.0
C2430 C 0.27776 0.12332 0.4142 0.0
H2431 H 0.21161 0.1517 0.40801 0.0
H2432 H 0.23265 0.14032 0.39855 0.0
H2433 H 0.21322 0.1262 0.40758 0.0
H2434 H 0.23532 0.09982 0.41269 0.0
H2435 H 0.25357 0.07902 0.39173 0.0
H2436 H 0.17192 0.86224 0.51245 0.0
H2437 H 0.18957 0.87987 0.53698 0.0
H2438 H 0.23236 0.83578 0.53791 0.0
H2439 H 0.21486 0.81828 0.51313 0.0
H2440 H 0.19981 0.86757 0.5742 0.0
H2441 H 0.26376 0.88485 0.53089 0.0
H2442 H 0.24164 0.87702 0.52034 0.0
H2443 H 0.25735 0.86007 0.53136 0.0
C2444 C 0.1853 0.85653 0.51761 0.0
C2445 C 0.1923 0.83913 0.51056 0.0
C2446 C 0.19527 0.86651 0.53177 0.0
C2447 C 0.21245 0.85931 0.53912 0.0
C2448 C 0.21935 0.84182 0.53221 0.0
H2449 H 0.29572 0.90612 0.61895 0.0
H2450 H 0.27714 0.88447 0.59893 0.0
C2451 C 0.20935 0.83182 0.5181 0.0
C2452 C 0.22296 0.86996 0.55423 0.0
H2453 H 0.26493 0.89287 0.56354 0.0
C2454 C 0.21405 0.87312 0.57188 0.0
C2455 C 0.24157 0.87713 0.55125 0.0
C2456 C 0.25164 0.87478 0.5324 0.0
C2457 C 0.22329 0.88308 0.58667 0.0
C2458 C 0.24183 0.89048 0.58361 0.0
C2459 C 0.25077 0.88716 0.56598 0.0
C2460 C 0.25201 0.90233 0.59808 0.0
C2461 C 0.21322 0.88529 0.60552 0.0
C2462 C 0.24397 0.91941 0.60478 0.0
C2463 C 0.25452 0.93177 0.61641 0.0
C2464 C 0.27349 0.92748 0.62142 0.0
C2465 C 0.28117 0.90992 0.61545 0.0
C2466 C 0.27058 0.89754 0.60388 0.0
H2467 H 0.20236 0.87396 0.60763 0.0
H2468 H 0.22343 0.88484 0.6176 0.0
H2469 H 0.20575 0.89922 0.60582 0.0
H2470 H 0.22986 0.92369 0.60025 0.0
H2471 H 0.24812 0.94519 0.62055 0.0
H2472 H 0.76859 0.06921 0.62154 0.0
H2473 H 0.78762 0.08967 0.6008 0.0
H2474 H 0.74102 0.12951 0.59705 0.0
H2475 H 0.72187 0.10923 0.61791 0.0
H2476 H 0.77664 0.09788 0.56345 0.0
H2477 H 0.78707 0.16468 0.60448 0.0
H2478 H 0.7801 0.14254 0.61561 0.0
H2479 H 0.76278 0.15669 0.60313 0.0
C2480 C 0.76251 0.08256 0.61677 0.0
C2481 C 0.7436 0.08747 0.62141 0.0
C2482 C 0.77342 0.09422 0.6048 0.0
C2483 C 0.7658 0.11116 0.59735 0.0
C2484 C 0.74734 0.11666 0.60281 0.0
H2485 H 0.80335 0.19221 0.51056 0.0
H2486 H 0.78543 0.17436 0.5348 0.0
C2487 C 0.73638 0.10499 0.61476 0.0
C2488 C 0.77641 0.12196 0.58245 0.0
H2489 H 0.79547 0.16549 0.57168 0.0
C2490 C 0.78087 0.11263 0.56531 0.0
C2491 C 0.78175 0.14127 0.58477 0.0
C2492 C 0.77785 0.15189 0.60304 0.0
C2493 C 0.79028 0.12209 0.55036 0.0
C2494 C 0.79579 0.14136 0.55271 0.0
C2495 C 0.79126 0.15073 0.56984 0.0
C2496 C 0.80643 0.15194 0.53766 0.0
C2497 C 0.79378 0.11145 0.53199 0.0
C2498 C 0.82423 0.14538 0.53123 0.0
C2499 C 0.83436 0.15548 0.51732 0.0
C2500 C 0.82696 0.17242 0.50962 0.0
C2501 C 0.80923 0.17906 0.51611 0.0
C2502 C 0.79906 0.16893 0.53001 0.0
H2503 H 0.78399 0.0991 0.53044 0.0
H2504 H 0.79196 0.12093 0.51946 0.0
H2505 H 0.80859 0.10592 0.53194 0.0
H2506 H 0.83049 0.13262 0.53723 0.0
H2507 H 0.84823 0.15032 0.51293 0.0
H2508 H 0.80689 0.85093 0.52778 0.0
H2509 H 0.78831 0.86871 0.50389 0.0
H2510 H 0.82988 0.85434 0.46096 0.0
H2511 H 0.84827 0.83655 0.4847 0.0
H2512 H 0.798 0.89944 0.48182 0.0
H2513 H 0.78064 0.83805 0.43528 0.0
H2514 H 0.79012 0.83516 0.45902 0.0
H2515 H 0.80572 0.84078 0.43948 0.0
C2516 C 0.81196 0.85156 0.51321 0.0
C2517 C 0.82881 0.84212 0.50799 0.0
C2518 C 0.80137 0.86169 0.49958 0.0
C2519 C 0.80744 0.86252 0.48048 0.0
C2520 C 0.82456 0.85347 0.47542 0.0
H2521 H 0.76926 0.94633 0.39687 0.0
H2522 H 0.78818 0.92594 0.41785 0.0
C2523 C 0.8351 0.84336 0.48901 0.0
C2524 C 0.7962 0.87327 0.46595 0.0
H2525 H 0.77393 0.8689 0.42275 0.0
C2526 C 0.79269 0.89274 0.46894 0.0
C2527 C 0.78905 0.8645 0.44921 0.0
C2528 C 0.79139 0.84344 0.4456 0.0
C2529 C 0.78256 0.90373 0.45557 0.0
C2530 C 0.77601 0.89513 0.4385 0.0
C2531 C 0.77919 0.87557 0.43567 0.0
C2532 C 0.7653 0.90614 0.42377 0.0
C2533 C 0.77864 0.92439 0.46005 0.0
C2534 C 0.74648 0.90118 0.41912 0.0
C2535 C 0.73564 0.9127 0.40691 0.0
C2536 C 0.74341 0.92946 0.39904 0.0
C2537 C 0.76271 0.93364 0.40272 0.0
C2538 C 0.77353 0.92208 0.4149 0.0
H2539 H 0.78019 0.92745 0.47551 0.0
H2540 H 0.78897 0.93346 0.45225 0.0
H2541 H 0.76404 0.92852 0.45553 0.0
H2542 H 0.73986 0.88884 0.42562 0.0
H2543 H 0.72087 0.90896 0.40442 0.0
H2544 H 0.04882 0.43668 0.34018 0.0
H2545 H 0.03948 0.46987 0.3433 0.0
H2546 H 0.98915 0.45912 0.3096 0.0
H2547 H 0.99889 0.42585 0.30566 0.0
H2548 H 0.00762 0.48851 0.2964 0.0
H2549 H 0.00107 0.49761 0.3743 0.0
H2550 H 0.02395 0.4881 0.36815 0.0
H2551 H 0.00274 0.47443 0.3633 0.0
C2552 C 0.03555 0.44124 0.33371 0.0
C2553 C 0.0246 0.42866 0.32259 0.0
C2554 C 0.03016 0.46024 0.33566 0.0
C2555 C 0.01347 0.46692 0.32695 0.0
C2556 C 0.00207 0.45421 0.3165 0.0
H2557 H 0.96847 0.58057 0.34076 0.0
H2558 H 0.97608 0.54688 0.34368 0.0
C2559 C 0.00762 0.43523 0.31427 0.0
C2560 C 0.00909 0.48753 0.32706 0.0
H2561 H 0.00517 0.52636 0.35604 0.0
C2562 C 0.00685 0.49675 0.30946 0.0
C2563 C 0.00796 0.49824 0.34411 0.0
C2564 C 0.00885 0.48902 0.36352 0.0
C2565 C 0.00382 0.51643 0.30839 0.0
C2566 C 0.00378 0.52729 0.32537 0.0
C2567 C 0.00564 0.51805 0.34301 0.0
C2568 C 0.0007 0.54812 0.32515 0.0
C2569 C 1.00028 0.52525 0.28908 0.0
C2570 C 0.0125 0.56015 0.31437 0.0
C2571 C 0.00802 0.57944 0.3124 0.0
C2572 C 0.99189 0.58702 0.32153 0.0
C2573 C 0.98095 0.57518 0.33345 0.0
C2574 C 0.98527 0.55589 0.33515 0.0
H2575 H 0.99543 0.51448 0.27853 0.0
H2576 H 0.98938 0.53669 0.28992 0.0
H2577 H 0.01374 0.53155 0.28368 0.0
H2578 H 0.02485 0.55451 0.30703 0.0
H2579 H 0.01685 0.58826 0.30333 0.0
H2580 H 0.00722 0.58574 0.72478 0.0
H2581 H 1.00023 0.55216 0.71893 0.0
H2582 H 0.03157 0.55456 0.66613 0.0
H2583 H 0.03893 0.58809 0.67195 0.0
H2584 H 0.98296 0.53216 0.68902 0.0
H2585 H 0.0596 0.51351 0.69711 0.0
H2586 H 0.05021 0.53655 0.7036 0.0
H2587 H 0.05438 0.53083 0.679 0.0
C2588 C 0.01238 0.57924 0.71177 0.0
C2589 C 0.02389 0.5895 0.69898 0.0
C2590 C 0.00839 0.56005 0.70847 0.0
C2591 C 0.01578 0.55086 0.69234 0.0
C2592 C 0.02613 0.56135 0.67888 0.0
H2593 H 0.98382 0.43337 0.66646 0.0
H2594 H 0.99198 0.46698 0.6626 0.0
C2595 C 0.03022 0.58052 0.6822 0.0
C2596 C 0.01352 0.53006 0.69027 0.0
H2597 H 0.03843 0.48827 0.69056 0.0
C2598 C 0.99506 0.52253 0.68919 0.0
C2599 C 0.0294 0.51763 0.69078 0.0
C2600 C 0.04952 0.52496 0.69285 0.0
C2601 C 0.99199 0.50281 0.68885 0.0
C2602 C 0.00787 0.49038 0.68922 0.0
C2603 C 0.02635 0.49791 0.69006 0.0
C2604 C 0.00545 0.46952 0.69021 0.0
C2605 C 0.97176 0.49545 0.68888 0.0
C2606 C 0.01135 0.45963 0.70655 0.0
C2607 C 0.0069 0.44038 0.70875 0.0
C2608 C 0.99642 0.43077 0.69464 0.0
C2609 C 0.99168 0.44044 0.67772 0.0
C2610 C 0.99624 0.45965 0.6755 0.0
H2611 H 0.96135 0.50673 0.69276 0.0
H2612 H 0.9681 0.49018 0.67443 0.0
H2613 H 0.97018 0.48342 0.69904 0.0
H2614 H 0.01861 0.46704 0.718 0.0
H2615 H 0.01082 0.43334 0.72191 0.0
H2616 H 0.29608 0.01104 0.42878 0.0
H2617 H 0.29917 0.00219 0.46233 0.0
H2618 H 0.3552 0.02738 0.46406 0.0
H2619 H 0.35219 0.03655 0.43063 0.0
H2620 H 0.32604 0.98103 0.48347 0.0
H2621 H 0.32481 0.0575 0.50421 0.0
H2622 H 0.31862 0.04945 0.48058 0.0
H2623 H 0.3432 0.0511 0.4876 0.0
C2624 C 0.3092 0.01441 0.43619 0.0
C2625 C 0.32377 0.02477 0.42714 0.0
C2626 C 0.31092 0.00937 0.45535 0.0
C2627 C 0.32722 0.01456 0.4657 0.0
C2628 C 0.34234 0.02366 0.45637 0.0
H2629 H 0.34843 0.97788 0.58245 0.0
H2630 H 0.3524 0.98574 0.54878 0.0
C2631 C 0.34061 0.0288 0.43725 0.0
C2632 C 0.32785 0.01149 0.48649 0.0
H2633 H 0.32892 0.03512 0.52899 0.0
C2634 C 0.32677 0.99281 0.49345 0.0
C2635 C 0.3285 0.02698 0.49939 0.0
C2636 C 0.32868 0.04741 0.49264 0.0
C2637 C 0.32631 0.98917 0.51309 0.0
C2638 C 0.3273 0.00465 0.52599 0.0
C2639 C 0.3284 0.02332 0.51901 0.0
C2640 C 0.32613 0.00175 0.54678 0.0
C2641 C 0.32416 0.96886 0.51985 0.0
C2642 C 0.31056 0.00905 0.55695 0.0
C2643 C 0.30831 0.00476 0.57624 0.0
C2644 C 0.32162 0.99308 0.58562 0.0
C2645 C 0.3378 0.98674 0.5756 0.0
C2646 C 0.34006 0.99111 0.55634 0.0
H2647 H 0.3193 0.95925 0.50824 0.0
H2648 H 0.33814 0.96359 0.52503 0.0
H2649 H 0.31384 0.96798 0.53181 0.0
H2650 H 0.29975 0.01744 0.54979 0.0
H2651 H 0.29573 0.00992 0.58354 0.0
H2652 H 0.66455 0.04012 0.58598 0.0
H2653 H 0.65762 0.03216 0.55283 0.0
H2654 H 0.70877 0.99816 0.55023 0.0
H2655 H 0.71569 0.00575 0.58344 0.0
H2656 H 0.68065 0.04223 0.52337 0.0
H2657 H 0.67027 0.9641 0.52378 0.0
H2658 H 0.66938 0.97827 0.54525 0.0
H2659 H 0.69194 0.97092 0.5355 0.0
C2660 C 0.67414 0.03063 0.57849 0.0
C2661 C 0.69075 0.02365 0.58732 0.0
C2662 C 0.67014 0.02611 0.55956 0.0
C2663 C 0.68259 0.01447 0.54916 0.0
C2664 C 0.69876 0.00685 0.55814 0.0
H2665 H 0.71676 0.01198 0.43402 0.0
H2666 H 0.70975 0.0205 0.46698 0.0
C2667 C 0.70275 0.01129 0.5771 0.0
C2668 C 0.67988 0.01193 0.52845 0.0
H2669 H 0.6788 0.97816 0.49361 0.0
C2670 C 0.67989 0.02823 0.51685 0.0
C2671 C 0.67862 0.9937 0.52003 0.0
C2672 C 0.67735 0.97577 0.53181 0.0
C2673 C 0.67974 0.02673 0.49694 0.0
C2674 C 0.67994 0.00845 0.48852 0.0
C2675 C 0.67884 0.99218 0.50013 0.0
C2676 C 0.68268 0.0057 0.46784 0.0
C2677 C 0.67968 0.0447 0.48515 0.0
C2678 C 0.66973 0.99466 0.45739 0.0
C2679 C 0.67379 0.9896 0.43861 0.0
C2680 C 0.69093 0.99543 0.43 0.0
C2681 C 0.70341 0.00732 0.4402 0.0
C2682 C 0.69937 0.01229 0.45902 0.0
H2683 H 0.67321 0.05677 0.4931 0.0
H2684 H 0.69458 0.04867 0.48166 0.0
H2685 H 0.67174 0.04267 0.47161 0.0
H2686 H 0.6568 0.98941 0.46399 0.0
H2687 H 0.66381 0.98052 0.4311 0.0
H2688 H 0.43395 0.29272 0.00879 0.0
H2689 H 0.4677 0.29797 0.00207 0.0
H2690 H 0.46573 0.3513 0.03255 0.0
H2691 H 0.43206 0.34612 0.0396 0.0
H2692 H 0.48772 0.32773 0.98429 0.0
H2693 H 0.50675 0.32027 0.06089 0.0
H2694 H 0.48367 0.31367 0.05163 0.0
H2695 H 0.48935 0.33831 0.05563 0.0
C2696 C 0.4406 0.3057 0.01384 0.0
C2697 C 0.43039 0.31887 0.02496 0.0
C2698 C 0.45988 0.30866 0.01001 0.0
C2699 C 0.46921 0.3248 0.0172 0.0
C2700 C 0.45882 0.33855 0.02726 0.0
H2701 H 0.58594 0.35134 0.98414 0.0
H2702 H 0.55252 0.35503 0.99315 0.0
C2703 C 0.43956 0.33559 0.03118 0.0
C2704 C 0.48999 0.32673 0.01485 0.0
H2705 H 0.53189 0.32689 0.03957 0.0
C2706 C 0.49741 0.3277 0.99634 0.0
C2707 C 0.50249 0.32639 0.03067 0.0
C2708 C 0.49524 0.32444 0.05084 0.0
C2709 C 0.51711 0.32817 0.99319 0.0
C2710 C 0.52961 0.32805 0.00902 0.0
C2711 C 0.52219 0.32723 0.02753 0.0
C2712 C 0.55044 0.32731 0.00647 0.0
C2713 C 0.52437 0.32806 0.97293 0.0
C2714 C 0.56052 0.31099 0.01206 0.0
C2715 C 0.57966 0.30889 0.00711 0.0
C2716 C 0.58892 0.32307 0.99643 0.0
C2717 C 0.57912 0.34003 0.99213 0.0
C2718 C 0.56003 0.34215 0.99719 0.0
H2719 H 0.51307 0.32404 0.96259 0.0
H2720 H 0.52952 0.34253 0.96917 0.0
H2721 H 0.53647 0.31798 0.97136 0.0
H2722 H 0.55333 0.29946 0.01937 0.0
H2723 H 0.58683 0.2957 0.01072 0.0
H2724 H 0.58326 0.66129 0.03503 0.0
H2725 H 0.55013 0.65464 0.02674 0.0
H2726 H 0.54728 0.70747 0.99544 0.0
H2727 H 0.58048 0.7141 0.00334 0.0
H2728 H 0.52083 0.67676 0.03824 0.0
H2729 H 0.52026 0.67121 0.95965 0.0
H2730 H 0.54195 0.66964 0.97345 0.0
H2731 H 0.53195 0.69253 0.96755 0.0
C2732 C 0.57573 0.67131 0.02603 0.0
C2733 C 0.58447 0.6883 0.01994 0.0
C2734 C 0.5568 0.66747 0.02131 0.0
C2735 C 0.54631 0.68048 0.01037 0.0
C2736 C 0.55524 0.69703 0.00356 0.0
H2737 H 0.43112 0.71475 0.01193 0.0
H2738 H 0.46426 0.70723 0.01924 0.0
C2739 C 0.57421 0.70085 0.00819 0.0
C2740 C 0.52555 0.67793 0.0079 0.0
H2741 H 0.49026 0.67902 0.97456 0.0
C2742 C 0.51414 0.6769 0.0243 0.0
C2743 C 0.51688 0.67783 0.98973 0.0
C2744 C 0.52843 0.67765 0.9716 0.0
C2745 C 0.49421 0.67685 0.02304 0.0
C2746 C 0.48555 0.67824 0.00492 0.0
C2747 C 0.49695 0.67817 0.98848 0.0
C2748 C 0.46482 0.68122 0.00265 0.0
C2749 C 0.48266 0.67562 0.04112 0.0
C2750 C 0.45413 0.66904 0.99097 0.0
C2751 C 0.43523 0.67339 0.98661 0.0
C2752 C 0.42672 0.69008 0.99379 0.0
C2753 C 0.4372 0.70176 0.00623 0.0
C2754 C 0.45614 0.69743 0.01051 0.0
H2755 H 0.49075 0.66833 0.05262 0.0
H2756 H 0.47928 0.69023 0.04614 0.0
H2757 H 0.46906 0.66787 0.03876 0.0
H2758 H 0.46062 0.65649 0.98473 0.0
H2759 H 0.42753 0.66403 0.97704 0.0
H2760 H 0.50871 0.08753 0.79432 0.0
H2761 H 0.51656 0.05402 0.79957 0.0
H2762 H 0.48892 0.05592 0.85442 0.0
H2763 H 0.48068 0.08933 0.84921 0.0
H2764 H 0.53594 0.03381 0.828 0.0
H2765 H 0.45899 0.01499 0.82522 0.0
H2766 H 0.46782 0.03812 0.8183 0.0
H2767 H 0.46533 0.0322 0.84309 0.0
C2768 C 0.50458 0.08094 0.80765 0.0
C2769 C 0.4938 0.09099 0.82121 0.0
C2770 C 0.50906 0.06179 0.81061 0.0
C2771 C 0.50289 0.05246 0.82717 0.0
C2772 C 0.49338 0.0628 0.84134 0.0
H2773 H 0.53655 0.93494 0.85093 0.0
H2774 H 0.52904 0.96868 0.85509 0.0
C2775 C 0.48878 0.0819 0.83836 0.0
C2776 C 0.50537 0.03165 0.82895 0.0
H2777 H 0.4806 0.98982 0.83049 0.0
C2778 C 0.52388 0.02416 0.8287 0.0
C2779 C 0.48953 0.01919 0.82956 0.0
C2780 C 0.46928 0.02645 0.8289 0.0
C2781 C 0.52701 0.00444 0.82885 0.0
C2782 C 0.51117 0.99198 0.82964 0.0
C2783 C 0.49267 0.99948 0.8301 0.0
C2784 C 0.51353 0.97111 0.82856 0.0
C2785 C 0.54719 0.99711 0.82739 0.0
C2786 C 0.50632 0.96115 0.8128 0.0
C2787 C 0.51039 0.94183 0.81046 0.0
C2788 C 0.52178 0.93221 0.82384 0.0
C2789 C 0.52793 0.94199 0.84024 0.0
C2790 C 0.52376 0.96128 0.84261 0.0
H2791 H 0.55727 0.0084 0.82272 0.0
H2792 H 0.5519 0.99193 0.84156 0.0
H2793 H 0.54807 0.98503 0.8172 0.0
H2794 H 0.49825 0.96852 0.80189 0.0
H2795 H 0.50537 0.93472 0.79771 0.0
H2796 H 0.47979 0.9335 0.165 0.0
H2797 H 0.48778 0.96697 0.15999 0.0
H2798 H 0.52075 0.96701 0.21188 0.0
H2799 H 0.51305 0.93347 0.21694 0.0
H2800 H 0.47698 0.99505 0.18519 0.0
H2801 H 0.55526 0.99556 0.17484 0.0
H2802 H 0.54112 0.97419 0.17245 0.0
H2803 H 0.54804 0.9826 0.19567 0.0
C2804 C 0.48908 0.94049 0.17516 0.0
C2805 C 0.49568 0.93085 0.19146 0.0
C2806 C 0.49361 0.95961 0.17225 0.0
C2807 C 0.5049 0.96939 0.18551 0.0
C2808 C 0.51228 0.9596 0.2013 0.0
H2809 H 0.50767 0.08545 0.2207 0.0
H2810 H 0.49938 0.05217 0.21476 0.0
C2811 C 0.5078 0.94044 0.20421 0.0
C2812 C 0.5073 0.99022 0.18394 0.0
H2813 H 0.5408 0.02534 0.18335 0.0
C2814 C 0.49092 0.0017 0.18451 0.0
C2815 C 0.52547 0.9988 0.18287 0.0
C2816 C 0.54347 0.98715 0.18123 0.0
C2817 C 0.49228 0.02162 0.18481 0.0
C2818 C 0.51049 0.03017 0.18483 0.0
C2819 C 0.52684 0.01871 0.18347 0.0
C2820 C 0.51309 0.05092 0.18715 0.0
C2821 C 0.47423 0.0333 0.18524 0.0
C2822 C 0.52336 0.06124 0.17351 0.0
C2823 C 0.52823 0.08019 0.17691 0.0
C2824 C 0.523 0.08912 0.19409 0.0
C2825 C 0.51184 0.07902 0.2073 0.0
C2826 C 0.50703 0.06001 0.2039 0.0
H2827 H 0.46193 0.02519 0.17943 0.0
H2828 H 0.47088 0.03713 0.20021 0.0
H2829 H 0.47588 0.04668 0.17695 0.0
H2830 H 0.52815 0.05443 0.16051 0.0
H2831 H 0.53674 0.0876 0.16638 0.0
H2832 H 0.8067 0.51707 0.08835 0.0
H2833 H 0.81022 0.52458 0.05449 0.0
H2834 H 0.84633 0.47536 0.0472 0.0
H2835 H 0.84356 0.46819 0.08102 0.0
H2836 H 0.8583 0.50411 0.02552 0.0
H2837 H 0.7805 0.49397 0.0161 0.0
H2838 H 0.78609 0.51263 0.03265 0.0
H2839 H 0.79257 0.4884 0.03808 0.0
C2840 C 0.81566 0.50806 0.0796 0.0
C2841 C 0.8246 0.49188 0.0873 0.0
C2842 C 0.81754 0.51228 0.06024 0.0
C2843 C 0.82802 0.50015 0.04827 0.0
C2844 C 0.83801 0.48478 0.05617 0.0
H2845 H 0.80464 0.49615 0.92673 0.0
H2846 H 0.80985 0.48685 0.95994 0.0
C2847 C 0.83639 0.48072 0.07554 0.0
C2848 C 0.82768 0.50272 0.02737 0.0
H2849 H 0.79755 0.50571 0.98939 0.0
C2850 C 0.84504 0.5044 0.01758 0.0
C2851 C 0.81038 0.50248 0.017 0.0
C2852 C 0.79135 0.49906 0.02646 0.0
C2853 C 0.84553 0.50636 0.9977 0.0
C2854 C 0.82817 0.50725 0.98748 0.0
C2855 C 0.81086 0.50513 0.99725 0.0
C2856 C 0.82739 0.51131 0.96681 0.0
C2857 C 0.86465 0.50714 0.98788 0.0
C2858 C 0.8358 0.52792 0.95959 0.0
C2859 C 0.83312 0.53308 0.94062 0.0
C2860 C 0.82156 0.52195 0.92859 0.0
C2861 C 0.81356 0.50503 0.93567 0.0
C2862 C 0.81652 0.49972 0.95462 0.0
H2863 H 0.87572 0.49951 0.99627 0.0
H2864 H 0.86401 0.50079 0.9734 0.0
H2865 H 0.86921 0.52222 0.98659 0.0
H2866 H 0.84376 0.53739 0.96883 0.0
H2867 H 0.83937 0.54629 0.93566 0.0
H2868 H 0.22464 0.50362 0.93205 0.0
H2869 H 0.21985 0.51107 0.96571 0.0
H2870 H 0.16604 0.4814 0.96483 0.0
H2871 H 0.17078 0.47359 0.93125 0.0
H2872 H 0.19083 0.52981 0.98558 0.0
H2873 H 0.19655 0.45353 0.0063 0.0
H2874 H 0.20307 0.46205 0.98294 0.0
H2875 H 0.17841 0.45878 0.98901 0.0
C2876 C 0.21167 0.49888 0.93892 0.0
C2877 C 0.19822 0.48779 0.92904 0.0
C2878 C 0.20897 0.50313 0.95816 0.0
C2879 C 0.1928 0.4964 0.96778 0.0
C2880 C 0.17881 0.48632 0.95771 0.0
H2881 H 0.16773 0.53237 0.08419 0.0
H2882 H 0.16387 0.52345 0.05075 0.0
C2883 C 0.18152 0.48197 0.93851 0.0
C2884 C 0.19107 0.49929 0.98853 0.0
H2885 H 0.19049 0.47557 0.03098 0.0
C2886 C 0.19062 0.51798 0.99554 0.0
C2887 C 0.19107 0.48376 0.00138 0.0
C2888 C 0.19247 0.46339 0.99461 0.0
C2889 C 0.19035 0.52161 0.01517 0.0
C2890 C 0.19014 0.50608 0.02803 0.0
C2891 C 0.19042 0.48738 0.02101 0.0
C2892 C 0.19106 0.50906 0.04882 0.0
C2893 C 0.19104 0.54202 0.02197 0.0
C2894 C 0.20713 0.50292 0.05899 0.0
C2895 C 0.20932 0.50781 0.07814 0.0
C2896 C 0.19547 0.51896 0.08736 0.0
C2897 C 0.17878 0.52398 0.07743 0.0
C2898 C 0.17657 0.51899 0.05831 0.0
H2899 H 0.19534 0.55196 0.01043 0.0
H2900 H 0.17668 0.54631 0.02702 0.0
H2901 H 0.20117 0.5436 0.03403 0.0
H2902 H 0.21839 0.4951 0.05188 0.0
H2903 H 0.2223 0.50364 0.08539 0.0
H2904 H 0.9349 0.84902 0.53728 0.0
H2905 H 0.9681 0.85403 0.52824 0.0
H2906 H 0.96796 0.8007 0.49767 0.0
H2907 H 0.93467 0.79564 0.50638 0.0
H2908 H 0.99678 0.83 0.53935 0.0
H2909 H 0.99508 0.83624 0.46069 0.0
H2910 H 0.97402 0.83895 0.47524 0.0
H2911 H 0.98266 0.81557 0.46921 0.0
C2912 C 0.94179 0.83852 0.52831 0.0
C2913 C 0.93218 0.82185 0.52265 0.0
C2914 C 0.96076 0.84143 0.52317 0.0
C2915 C 0.9704 0.82781 0.51221 0.0
C2916 C 0.96064 0.81156 0.50584 0.0
H2917 H 0.08642 0.79329 0.50914 0.0
H2918 H 0.05315 0.79945 0.51721 0.0
C2919 C 0.94163 0.80865 0.51091 0.0
C2920 C 0.99113 0.82953 0.50915 0.0
H2921 H 0.02534 0.82853 0.47473 0.0
C2922 C 0.00305 0.82998 0.52522 0.0
C2923 C 0.99921 0.8297 0.49072 0.0
C2924 C 0.98707 0.83029 0.47298 0.0
C2925 C 0.02292 0.82975 0.52334 0.0
C2926 C 0.03098 0.82873 0.50494 0.0
C2927 C 0.01908 0.82914 0.48885 0.0
C2928 C 0.05164 0.82622 0.50196 0.0
C2929 C 0.03508 0.83042 0.54107 0.0
C2930 C 0.06178 0.83927 0.49076 0.0
C2931 C 0.08074 0.83573 0.486 0.0
C2932 C 0.08985 0.819 0.49227 0.0
C2933 C 0.07985 0.80633 0.50414 0.0
C2934 C 0.06086 0.80987 0.50884 0.0
H2935 H 0.02728 0.83698 0.55319 0.0
H2936 H 0.039 0.81568 0.54524 0.0
H2937 H 0.0484 0.83858 0.53858 0.0
H2938 H 0.05485 0.85194 0.48529 0.0
H2939 H 0.08804 0.84582 0.47689 0.0
H2940 H 0.08545 0.22049 0.50503 0.0
H2941 H 0.05203 0.21435 0.49749 0.0
H2942 H 0.05575 0.15939 0.52473 0.0
H2943 H 0.08909 0.16552 0.53269 0.0
H2944 H 0.03229 0.18576 0.4782 0.0
H2945 H 0.01456 0.18708 0.55546 0.0
H2946 H 0.03741 0.19459 0.54642 0.0
H2947 H 0.03198 0.16966 0.54852 0.0
C2948 C 0.07928 0.20696 0.50914 0.0
C2949 C 0.08981 0.19363 0.51975 0.0
C2950 C 0.06018 0.20348 0.50482 0.0
C2951 C 0.05138 0.18662 0.51097 0.0
C2952 C 0.06222 0.17268 0.52029 0.0
H2953 H 0.93289 0.16461 0.4784 0.0
H2954 H 0.96658 0.15928 0.48546 0.0
C2955 C 0.08128 0.17619 0.52473 0.0
C2956 C 0.03059 0.18436 0.50877 0.0
H2957 H 0.98913 0.18236 0.53412 0.0
C2958 C 0.02282 0.18481 0.49038 0.0
C2959 C 0.01836 0.18341 0.52478 0.0
C2960 C 0.02592 0.18381 0.54493 0.0
C2961 C 0.00305 0.18471 0.48753 0.0
C2962 C 0.99083 0.18374 0.50354 0.0
C2963 C 0.99861 0.18289 0.52192 0.0
C2964 C 0.96996 0.18536 0.50154 0.0
C2965 C 0.99543 0.18655 0.46749 0.0
C2966 C 0.96054 0.20123 0.50922 0.0
C2967 C 0.94126 0.20424 0.50541 0.0
C2968 C 0.93114 0.19143 0.4938 0.0
C2969 C 0.94035 0.17488 0.48719 0.0
C2970 C 0.95961 0.17184 0.49111 0.0
H2971 H 0.00663 0.19113 0.45728 0.0
H2972 H 0.9899 0.17253 0.4627 0.0
H2973 H 0.98353 0.19697 0.46693 0.0
H2974 H 0.96831 0.21175 0.51743 0.0
H2975 H 0.93459 0.21708 0.51078 0.0
loop_
_geom_bond_atom_site_label_1
_geom_bond_atom_site_label_2
_geom_bond_distance
_geom_bond_site_symmetry_2
_ccdc_geom_bond_type
Co0 O3 1.940 1_655 S
Co0 N17 1.998 . S
Co0 O25 1.957 1_655 S
Co0 O32 1.949 . S
Co1 O4 1.966 . S
Co1 N10 2.022 . S
Co1 N18 1.993 . S
Co1 O26 1.941 . S
C2 O3 1.258 . S
C2 O4 1.263 . S
O3 Co0 1.940 1_455 S
O3 C2 1.258 . S
O4 Co1 1.966 . S
O4 C2 1.263 . S
C5 O6 1.235 . S
C5 O32 1.289 . S
O6 C5 1.235 . S
C7 C9 1.400 . S
C7 N10 1.351 . S
C7 C12 1.501 . S
C8 C9 1.387 . S
C8 N11 1.341 . S
C9 C7 1.400 . S
C9 C8 1.387 . S
N10 Co1 2.022 . S
N10 C7 1.351 . S
N10 N11 1.365 . S
N11 C8 1.341 . S
N11 N10 1.365 . S
N11 H31 0.862 . S
C12 C7 1.501 . S
C12 H13 0.961 . S
C12 H14 0.961 . S
C12 H15 0.960 . S
H13 C12 0.961 . S
H14 C12 0.961 . S
H15 C12 0.960 . S
C16 N17 1.342 . S
C16 C20 1.401 . S
C16 C21 1.499 . S
N17 Co0 1.998 . S
N17 C16 1.342 . S
N17 N18 1.388 1_655 S
N18 Co1 1.993 . S
N18 N17 1.388 1_455 S
N18 C19 1.355 . S
C19 N18 1.355 . S
C19 C20 1.371 1_455 S
C19 C29 1.525 . S
C20 C16 1.401 . S
C20 C19 1.371 1_655 S
C21 C16 1.499 . S
C21 H22 0.959 . S
C21 H23 0.960 . S
C21 H24 0.961 . S
H22 C21 0.959 . S
H23 C21 0.960 . S
H24 C21 0.961 . S
O25 Co0 1.957 1_455 S
O25 C33 1.258 . S
O26 Co1 1.941 . S
O26 C33 1.266 . S
H27 C29 0.959 . S
H28 C29 0.961 . S
C29 C19 1.525 . S
C29 H27 0.959 . S
C29 H28 0.961 . S
C29 H30 0.960 . S
H30 C29 0.960 . S
H31 N11 0.862 . S
O32 Co0 1.949 . S
O32 C5 1.289 . S
C33 O25 1.258 . S
C33 O26 1.266 . S
Co34 O37 1.970 1_455 S
Co34 N51 1.989 . S
Co34 O59 1.967 . S
Co34 O66 1.920 . S
Co35 O38 1.966 . S
Co35 N44 2.022 . S
Co35 N52 1.993 1_655 S
Co35 O60 1.941 . S
C36 O37 1.258 . S
C36 O38 1.263 . S
O37 Co34 1.970 1_655 S
O37 C36 1.258 . S
O38 Co35 1.966 . S
O38 C36 1.263 . S
C39 O40 1.235 . S
C39 O66 1.289 . S
O40 C39 1.235 . S
C41 C43 1.400 . S
C41 N44 1.351 . S
C41 C46 1.501 . S
C42 C43 1.387 . S
C42 N45 1.341 . S
C43 C41 1.400 . S
C43 C42 1.387 . S
N44 Co35 2.022 . S
N44 C41 1.351 . S
N44 N45 1.365 . S
N45 C42 1.341 . S
N45 N44 1.365 . S
N45 H65 0.862 . S
C46 C41 1.501 . S
C46 H47 0.961 . S
C46 H48 0.961 . S
C46 H49 0.960 . S
H47 C46 0.961 . S
H48 C46 0.961 . S
H49 C46 0.960 . S
C50 N51 1.342 . S
C50 C54 1.401 . S
C50 C55 1.499 . S
N51 Co34 1.989 . S
N51 C50 1.342 . S
N51 N52 1.388 . S
N52 Co35 1.993 1_455 S
N52 N51 1.388 . S
N52 C53 1.346 . S
C53 N52 1.346 . S
C53 C54 1.396 . S
C53 C63 1.510 . S
C54 C50 1.401 . S
C54 C53 1.396 . S
C55 C50 1.499 . S
C55 H56 0.959 . S
C55 H57 0.960 . S
C55 H58 0.961 . S
H56 C55 0.959 . S
H57 C55 0.960 . S
H58 C55 0.961 . S
O59 Co34 1.967 . S
O59 C67 1.267 . S
O60 Co35 1.941 . S
O60 C67 1.257 1_655 S
H61 C63 0.959 . S
H62 C63 0.961 . S
C63 C53 1.510 . S
C63 H61 0.959 . S
C63 H62 0.961 . S
C63 H64 0.960 1_455 S
H64 C63 0.960 1_655 S
H65 N45 0.862 . S
O66 Co34 1.920 . S
O66 C39 1.289 . S
C67 O59 1.267 . S
C67 O60 1.257 1_455 S
Co68 O71 1.940 1_655 S
Co68 N85 1.998 . S
Co68 O93 1.957 1_655 S
Co68 O100 1.950 . S
Co69 O72 1.966 . S
Co69 N78 2.022 . S
Co69 N86 1.993 . S
Co69 O94 1.941 . S
C70 O71 1.258 . S
C70 O72 1.263 . S
O71 Co68 1.940 1_455 S
O71 C70 1.258 . S
O72 Co69 1.966 . S
O72 C70 1.263 . S
C73 O74 1.235 . S
C73 O100 1.289 . S
O74 C73 1.235 . S
C75 C77 1.400 . S
C75 N78 1.351 . S
C75 C80 1.501 . S
C76 C77 1.387 . S
C76 N79 1.341 . S
C77 C75 1.400 . S
C77 C76 1.387 . S
N78 Co69 2.022 . S
N78 C75 1.351 . S
N78 N79 1.365 . S
N79 C76 1.341 . S
N79 N78 1.365 . S
N79 H99 0.862 . S
C80 C75 1.501 . S
C80 H81 0.961 . S
C80 H82 0.961 . S
C80 H83 0.960 . S
H81 C80 0.961 . S
H82 C80 0.961 . S
H83 C80 0.960 . S
C84 N85 1.342 . S
C84 C88 1.401 . S
C84 C89 1.499 . S
N85 Co68 1.998 . S
N85 C84 1.342 . S
N85 N86 1.388 1_655 S
N86 Co69 1.993 . S
N86 N85 1.388 1_455 S
N86 C87 1.355 . S
C87 N86 1.355 . S
C87 C88 1.371 1_455 S
C87 C97 1.525 . S
C88 C84 1.401 . S
C88 C87 1.371 1_655 S
C89 C84 1.499 . S
C89 H90 0.959 . S
C89 H91 0.960 . S
C89 H92 0.961 . S
H90 C89 0.959 . S
H91 C89 0.960 . S
H92 C89 0.961 . S
O93 Co68 1.957 1_455 S
O93 C101 1.258 . S
O94 Co69 1.941 . S
O94 C101 1.266 . S
H95 C97 0.959 . S
H96 C97 0.961 . S
C97 C87 1.525 . S
C97 H95 0.959 . S
C97 H96 0.961 . S
C97 H98 0.960 . S
H98 C97 0.960 . S
H99 N79 0.862 . S
O100 Co68 1.950 . S
O100 C73 1.289 . S
C101 O93 1.258 . S
C101 O94 1.266 . S
Co102 O105 1.970 1_455 S
Co102 N119 1.989 . S
Co102 O127 1.967 . S
Co102 O134 1.920 . S
Co103 O106 1.966 . S
Co103 N112 2.022 . S
Co103 N120 1.993 1_655 S
Co103 O128 1.941 . S
C104 O105 1.258 . S
C104 O106 1.263 . S
O105 Co102 1.970 1_655 S
O105 C104 1.258 . S
O106 Co103 1.966 . S
O106 C104 1.263 . S
C107 O108 1.235 . S
C107 O134 1.289 . S
O108 C107 1.235 . S
C109 C111 1.400 . S
C109 N112 1.351 . S
C109 C114 1.501 . S
C110 C111 1.387 . S
C110 N113 1.341 . S
C111 C109 1.400 . S
C111 C110 1.387 . S
N112 Co103 2.022 . S
N112 C109 1.351 . S
N112 N113 1.365 . S
N113 C110 1.341 . S
N113 N112 1.365 . S
N113 H133 0.862 . S
C114 C109 1.501 . S
C114 H115 0.961 . S
C114 H116 0.961 . S
C114 H117 0.960 . S
H115 C114 0.961 . S
H116 C114 0.961 . S
H117 C114 0.960 . S
C118 N119 1.342 . S
C118 C122 1.401 . S
C118 C123 1.499 . S
N119 Co102 1.989 . S
N119 C118 1.342 . S
N119 N120 1.388 . S
N120 Co103 1.993 1_455 S
N120 N119 1.388 . S
N120 C121 1.346 . S
C121 N120 1.346 . S
C121 C122 1.396 . S
C121 C131 1.510 . S
C122 C118 1.401 . S
C122 C121 1.396 . S
C123 C118 1.499 . S
C123 H124 0.959 . S
C123 H125 0.960 . S
C123 H126 0.961 . S
H124 C123 0.959 . S
H125 C123 0.960 . S
H126 C123 0.961 . S
O127 Co102 1.967 . S
O127 C135 1.267 . S
O128 Co103 1.941 . S
O128 C135 1.257 1_655 S
H129 C131 0.959 . S
H130 C131 0.961 . S
C131 C121 1.510 . S
C131 H129 0.959 . S
C131 H130 0.961 . S
C131 H132 0.960 1_455 S
H132 C131 0.960 1_655 S
H133 N113 0.862 . S
O134 Co102 1.920 . S
O134 C107 1.289 . S
C135 O127 1.267 . S
C135 O128 1.257 1_455 S
Co136 O139 1.940 1_565 S
Co136 N153 1.998 . S
Co136 O161 1.957 1_565 S
Co136 O168 1.949 . S
Co137 O140 1.966 . S
Co137 N146 2.022 . S
Co137 N154 1.993 . S
Co137 O162 1.941 . S
C138 O139 1.258 . S
C138 O140 1.263 . S
O139 Co136 1.940 1_545 S
O139 C138 1.258 . S
O140 Co137 1.966 . S
O140 C138 1.263 . S
C141 O142 1.235 . S
C141 O168 1.289 . S
O142 C141 1.235 . S
C143 C145 1.400 . S
C143 N146 1.351 . S
C143 C148 1.501 . S
C144 C145 1.387 . S
C144 N147 1.341 . S
C145 C143 1.400 . S
C145 C144 1.387 . S
N146 Co137 2.022 . S
N146 C143 1.351 . S
N146 N147 1.365 . S
N147 C144 1.341 . S
N147 N146 1.365 . S
N147 H167 0.862 . S
C148 C143 1.501 . S
C148 H149 0.961 . S
C148 H150 0.961 . S
C148 H151 0.960 . S
H149 C148 0.961 . S
H150 C148 0.961 . S
H151 C148 0.960 . S
C152 N153 1.342 . S
C152 C156 1.401 . S
C152 C157 1.499 . S
N153 Co136 1.998 . S
N153 C152 1.342 . S
N153 N154 1.388 1_565 S
N154 Co137 1.993 . S
N154 N153 1.388 1_545 S
N154 C155 1.355 . S
C155 N154 1.355 . S
C155 C156 1.371 1_545 S
C155 C165 1.525 . S
C156 C152 1.401 . S
C156 C155 1.371 1_565 S
C157 C152 1.499 . S
C157 H158 0.959 . S
C157 H159 0.960 . S
C157 H160 0.961 . S
H158 C157 0.959 . S
H159 C157 0.960 . S
H160 C157 0.961 . S
O161 Co136 1.957 1_545 S
O161 C169 1.258 . S
O162 Co137 1.941 . S
O162 C169 1.266 . S
H163 C165 0.959 . S
H164 C165 0.961 . S
C165 C155 1.525 . S
C165 H163 0.959 . S
C165 H164 0.961 . S
C165 H166 0.960 . S
H166 C165 0.960 . S
H167 N147 0.862 . S
O168 Co136 1.949 . S
O168 C141 1.289 . S
C169 O161 1.258 . S
C169 O162 1.266 . S
Co170 O173 1.970 1_545 S
Co170 N187 1.989 . S
Co170 O195 1.967 . S
Co170 O202 1.920 . S
Co171 O174 1.966 . S
Co171 N180 2.022 . S
Co171 N188 1.993 1_565 S
Co171 O196 1.941 . S
C172 O173 1.258 . S
C172 O174 1.263 . S
O173 Co170 1.970 1_565 S
O173 C172 1.258 . S
O174 Co171 1.966 . S
O174 C172 1.263 . S
C175 O176 1.235 . S
C175 O202 1.289 . S
O176 C175 1.235 . S
C177 C179 1.400 . S
C177 N180 1.351 . S
C177 C182 1.501 . S
C178 C179 1.387 . S
C178 N181 1.341 . S
C179 C177 1.400 . S
C179 C178 1.387 . S
N180 Co171 2.022 . S
N180 C177 1.351 . S
N180 N181 1.365 . S
N181 C178 1.341 . S
N181 N180 1.365 . S
N181 H201 0.862 . S
C182 C177 1.501 . S
C182 H183 0.961 . S
C182 H184 0.961 . S
C182 H185 0.960 . S
H183 C182 0.961 . S
H184 C182 0.961 . S
H185 C182 0.960 . S
C186 N187 1.342 . S
C186 C190 1.401 . S
C186 C191 1.499 . S
N187 Co170 1.989 . S
N187 C186 1.342 . S
N187 N188 1.388 . S
N188 Co171 1.993 1_545 S
N188 N187 1.388 . S
N188 C189 1.346 . S
C189 N188 1.346 . S
C189 C190 1.396 . S
C189 C199 1.510 . S
C190 C186 1.401 . S
C190 C189 1.396 . S
C191 C186 1.499 . S
C191 H192 0.959 . S
C191 H193 0.960 . S
C191 H194 0.961 . S
H192 C191 0.959 . S
H193 C191 0.960 . S
H194 C191 0.961 . S
O195 Co170 1.967 . S
O195 C203 1.267 . S
O196 Co171 1.941 . S
O196 C203 1.257 1_565 S
H197 C199 0.959 . S
H198 C199 0.961 . S
C199 C189 1.510 . S
C199 H197 0.959 . S
C199 H198 0.961 . S
C199 H200 0.960 1_545 S
H200 C199 0.960 1_565 S
H201 N181 0.862 . S
O202 Co170 1.920 . S
O202 C175 1.289 . S
C203 O195 1.267 . S
C203 O196 1.257 1_545 S
Co204 O207 1.970 1_545 S
Co204 N221 1.989 . S
Co204 O229 1.967 . S
Co204 O236 1.920 . S
Co205 O208 1.966 . S
Co205 N214 2.022 . S
Co205 N222 1.993 1_565 S
Co205 O230 1.941 . S
C206 O207 1.258 . S
C206 O208 1.263 . S
O207 Co204 1.970 1_565 S
O207 C206 1.258 . S
O208 Co205 1.966 . S
O208 C206 1.263 . S
C209 O210 1.235 . S
C209 O236 1.289 . S
O210 C209 1.235 . S
C211 C213 1.400 . S
C211 N214 1.351 . S
C211 C216 1.501 . S
C212 C213 1.387 . S
C212 N215 1.341 . S
C213 C211 1.400 . S
C213 C212 1.387 . S
N214 Co205 2.022 . S
N214 C211 1.351 . S
N214 N215 1.365 . S
N215 C212 1.341 . S
N215 N214 1.365 . S
N215 H235 0.862 . S
C216 C211 1.501 . S
C216 H217 0.961 . S
C216 H218 0.961 . S
C216 H219 0.960 . S
H217 C216 0.961 . S
H218 C216 0.961 . S
H219 C216 0.960 . S
C220 N221 1.342 . S
C220 C224 1.401 . S
C220 C225 1.499 . S
N221 Co204 1.989 . S
N221 C220 1.342 . S
N221 N222 1.388 . S
N222 Co205 1.993 1_545 S
N222 N221 1.388 . S
N222 C223 1.346 . S
C223 N222 1.346 . S
C223 C224 1.396 . S
C223 C233 1.510 . S
C224 C220 1.401 . S
C224 C223 1.396 . S
C225 C220 1.499 . S
C225 H226 0.959 . S
C225 H227 0.960 . S
C225 H228 0.961 . S
H226 C225 0.959 . S
H227 C225 0.960 . S
H228 C225 0.961 . S
O229 Co204 1.967 . S
O229 C237 1.267 . S
O230 Co205 1.941 . S
O230 C237 1.257 1_565 S
H231 C233 0.959 . S
H232 C233 0.961 . S
C233 C223 1.510 . S
C233 H231 0.959 . S
C233 H232 0.961 . S
C233 H234 0.960 1_545 S
H234 C233 0.960 1_565 S
H235 N215 0.862 . S
O236 Co204 1.920 . S
O236 C209 1.289 . S
C237 O229 1.267 . S
C237 O230 1.257 1_545 S
Co238 O241 1.940 1_565 S
Co238 N255 1.998 . S
Co238 O263 1.957 1_565 S
Co238 O270 1.950 . S
Co239 O242 1.966 . S
Co239 N248 2.022 . S
Co239 N256 1.993 . S
Co239 O264 1.941 . S
C240 O241 1.258 . S
C240 O242 1.263 . S
O241 Co238 1.940 1_545 S
O241 C240 1.258 . S
O242 Co239 1.966 . S
O242 C240 1.263 . S
C243 O244 1.235 . S
C243 O270 1.289 . S
O244 C243 1.235 . S
C245 C247 1.400 . S
C245 N248 1.351 . S
C245 C250 1.501 . S
C246 C247 1.387 . S
C246 N249 1.341 . S
C247 C245 1.400 . S
C247 C246 1.387 . S
N248 Co239 2.022 . S
N248 C245 1.351 . S
N248 N249 1.365 . S
N249 C246 1.341 . S
N249 N248 1.365 . S
N249 H269 0.862 . S
C250 C245 1.501 . S
C250 H251 0.961 . S
C250 H252 0.961 . S
C250 H253 0.960 . S
H251 C250 0.961 . S
H252 C250 0.961 . S
H253 C250 0.960 . S
C254 N255 1.342 . S
C254 C258 1.401 . S
C254 C259 1.499 . S
N255 Co238 1.998 . S
N255 C254 1.342 . S
N255 N256 1.388 1_565 S
N256 Co239 1.993 . S
N256 N255 1.388 1_545 S
N256 C257 1.355 . S
C257 N256 1.355 . S
C257 C258 1.371 1_545 S
C257 C267 1.525 . S
C258 C254 1.401 . S
C258 C257 1.371 1_565 S
C259 C254 1.499 . S
C259 H260 0.959 . S
C259 H261 0.960 . S
C259 H262 0.961 . S
H260 C259 0.959 . S
H261 C259 0.960 . S
H262 C259 0.961 . S
O263 Co238 1.957 1_545 S
O263 C271 1.258 . S
O264 Co239 1.941 . S
O264 C271 1.266 . S
H265 C267 0.959 . S
H266 C267 0.961 . S
C267 C257 1.525 . S
C267 H265 0.959 . S
C267 H266 0.961 . S
C267 H268 0.960 . S
H268 C267 0.960 . S
H269 N249 0.862 . S
O270 Co238 1.950 . S
O270 C243 1.289 . S
C271 O263 1.258 . S
C271 O264 1.266 . S
Co272 O275 1.940 1_556 S
Co272 N289 1.998 . S
Co272 O297 1.957 1_556 S
Co272 O304 1.949 . S
Co273 O276 1.966 . S
Co273 N282 2.022 . S
Co273 N290 1.993 . S
Co273 O298 1.941 . S
C274 O275 1.258 . S
C274 O276 1.263 . S
O275 Co272 1.940 1_554 S
O275 C274 1.258 . S
O276 Co273 1.966 . S
O276 C274 1.263 . S
C277 O278 1.235 . S
C277 O304 1.289 . S
O278 C277 1.235 . S
C279 C281 1.400 . S
C279 N282 1.351 . S
C279 C284 1.501 . S
C280 C281 1.387 . S
C280 N283 1.341 . S
C281 C279 1.400 . S
C281 C280 1.387 . S
N282 Co273 2.022 . S
N282 C279 1.351 . S
N282 N283 1.365 . S
N283 C280 1.341 . S
N283 N282 1.365 . S
N283 H303 0.862 . S
C284 C279 1.501 . S
C284 H285 0.961 . S
C284 H286 0.961 . S
C284 H287 0.960 . S
H285 C284 0.961 . S
H286 C284 0.961 . S
H287 C284 0.960 . S
C288 N289 1.342 . S
C288 C292 1.401 . S
C288 C293 1.499 . S
N289 Co272 1.998 . S
N289 C288 1.342 . S
N289 N290 1.388 1_556 S
N290 Co273 1.993 . S
N290 N289 1.388 1_554 S
N290 C291 1.355 . S
C291 N290 1.355 . S
C291 C292 1.371 1_554 S
C291 C301 1.525 . S
C292 C288 1.401 . S
C292 C291 1.371 1_556 S
C293 C288 1.499 . S
C293 H294 0.959 . S
C293 H295 0.960 . S
C293 H296 0.961 . S
H294 C293 0.959 . S
H295 C293 0.960 . S
H296 C293 0.961 . S
O297 Co272 1.957 1_554 S
O297 C305 1.258 . S
O298 Co273 1.941 . S
O298 C305 1.266 . S
H299 C301 0.959 . S
H300 C301 0.961 . S
C301 C291 1.525 . S
C301 H299 0.959 . S
C301 H300 0.961 . S
C301 H302 0.960 . S
H302 C301 0.960 . S
H303 N283 0.862 . S
O304 Co272 1.949 . S
O304 C277 1.289 . S
C305 O297 1.258 . S
C305 O298 1.266 . S
Co306 O309 1.970 1_554 S
Co306 N323 1.989 . S
Co306 O331 1.967 . S
Co306 O338 1.920 . S
Co307 O310 1.966 . S
Co307 N316 2.022 . S
Co307 N324 1.993 1_556 S
Co307 O332 1.941 . S
C308 O309 1.258 . S
C308 O310 1.263 . S
O309 Co306 1.970 1_556 S
O309 C308 1.258 . S
O310 Co307 1.966 . S
O310 C308 1.263 . S
C311 O312 1.235 . S
C311 O338 1.289 . S
O312 C311 1.235 . S
C313 C315 1.400 . S
C313 N316 1.351 . S
C313 C318 1.501 . S
C314 C315 1.387 . S
C314 N317 1.341 . S
C315 C313 1.400 . S
C315 C314 1.387 . S
N316 Co307 2.022 . S
N316 C313 1.351 . S
N316 N317 1.365 . S
N317 C314 1.341 . S
N317 N316 1.365 . S
N317 H337 0.862 . S
C318 C313 1.501 . S
C318 H319 0.961 . S
C318 H320 0.961 . S
C318 H321 0.960 . S
H319 C318 0.961 . S
H320 C318 0.961 . S
H321 C318 0.960 . S
C322 N323 1.342 . S
C322 C326 1.401 . S
C322 C327 1.499 . S
N323 Co306 1.989 . S
N323 C322 1.342 . S
N323 N324 1.388 . S
N324 Co307 1.993 1_554 S
N324 N323 1.388 . S
N324 C325 1.346 . S
C325 N324 1.346 . S
C325 C326 1.396 . S
C325 C335 1.510 . S
C326 C322 1.401 . S
C326 C325 1.396 . S
C327 C322 1.499 . S
C327 H328 0.959 . S
C327 H329 0.960 . S
C327 H330 0.961 . S
H328 C327 0.959 . S
H329 C327 0.960 . S
H330 C327 0.961 . S
O331 Co306 1.967 . S
O331 C339 1.267 . S
O332 Co307 1.941 . S
O332 C339 1.257 1_556 S
H333 C335 0.959 . S
H334 C335 0.961 . S
C335 C325 1.510 . S
C335 H333 0.959 . S
C335 H334 0.961 . S
C335 H336 0.960 1_554 S
H336 C335 0.960 1_556 S
H337 N317 0.862 . S
O338 Co306 1.920 . S
O338 C311 1.289 . S
C339 O331 1.267 . S
C339 O332 1.257 1_554 S
Co340 O343 1.970 1_554 S
Co340 N357 1.989 . S
Co340 O365 1.967 . S
Co340 O372 1.920 . S
Co341 O344 1.966 . S
Co341 N350 2.022 . S
Co341 N358 1.993 1_556 S
Co341 O366 1.941 . S
C342 O343 1.258 . S
C342 O344 1.263 . S
O343 Co340 1.970 1_556 S
O343 C342 1.258 . S
O344 Co341 1.966 . S
O344 C342 1.263 . S
C345 O346 1.235 . S
C345 O372 1.289 . S
O346 C345 1.235 . S
C347 C349 1.400 . S
C347 N350 1.351 . S
C347 C352 1.501 . S
C348 C349 1.387 . S
C348 N351 1.341 . S
C349 C347 1.400 . S
C349 C348 1.387 . S
N350 Co341 2.022 . S
N350 C347 1.351 . S
N350 N351 1.365 . S
N351 C348 1.341 . S
N351 N350 1.365 . S
N351 H371 0.862 . S
C352 C347 1.501 . S
C352 H353 0.961 . S
C352 H354 0.961 . S
C352 H355 0.960 . S
H353 C352 0.961 . S
H354 C352 0.961 . S
H355 C352 0.960 . S
C356 N357 1.342 . S
C356 C360 1.401 . S
C356 C361 1.499 . S
N357 Co340 1.989 . S
N357 C356 1.342 . S
N357 N358 1.388 . S
N358 Co341 1.993 1_554 S
N358 N357 1.388 . S
N358 C359 1.346 . S
C359 N358 1.346 . S
C359 C360 1.396 . S
C359 C369 1.510 . S
C360 C356 1.401 . S
C360 C359 1.396 . S
C361 C356 1.499 . S
C361 H362 0.959 . S
C361 H363 0.960 . S
C361 H364 0.961 . S
H362 C361 0.959 . S
H363 C361 0.960 . S
H364 C361 0.961 . S
O365 Co340 1.967 . S
O365 C373 1.267 . S
O366 Co341 1.941 . S
O366 C373 1.257 1_556 S
H367 C369 0.959 . S
H368 C369 0.961 . S
C369 C359 1.510 . S
C369 H367 0.959 . S
C369 H368 0.961 . S
C369 H370 0.960 1_554 S
H370 C369 0.960 1_556 S
H371 N351 0.862 . S
O372 Co340 1.920 . S
O372 C345 1.289 . S
C373 O365 1.267 . S
C373 O366 1.257 1_554 S
Co374 O377 1.940 1_556 S
Co374 N391 1.998 . S
Co374 O399 1.957 1_556 S
Co374 O406 1.950 . S
Co375 O378 1.966 . S
Co375 N384 2.022 . S
Co375 N392 1.993 . S
Co375 O400 1.941 . S
C376 O377 1.258 . S
C376 O378 1.263 . S
O377 Co374 1.940 1_554 S
O377 C376 1.258 . S
O378 Co375 1.966 . S
O378 C376 1.263 . S
C379 O380 1.235 . S
C379 O406 1.289 . S
O380 C379 1.235 . S
C381 C383 1.400 . S
C381 N384 1.351 . S
C381 C386 1.501 . S
C382 C383 1.387 . S
C382 N385 1.341 . S
C383 C381 1.400 . S
C383 C382 1.387 . S
N384 Co375 2.022 . S
N384 C381 1.351 . S
N384 N385 1.365 . S
N385 C382 1.341 . S
N385 N384 1.365 . S
N385 H405 0.862 . S
C386 C381 1.501 . S
C386 H387 0.961 . S
C386 H388 0.961 . S
C386 H389 0.960 . S
H387 C386 0.961 . S
H388 C386 0.961 . S
H389 C386 0.960 . S
C390 N391 1.342 . S
C390 C394 1.401 . S
C390 C395 1.499 . S
N391 Co374 1.998 . S
N391 C390 1.342 . S
N391 N392 1.388 1_556 S
N392 Co375 1.993 . S
N392 N391 1.388 1_554 S
N392 C393 1.355 . S
C393 N392 1.355 . S
C393 C394 1.371 1_554 S
C393 C403 1.525 . S
C394 C390 1.401 . S
C394 C393 1.371 1_556 S
C395 C390 1.499 . S
C395 H396 0.959 . S
C395 H397 0.960 . S
C395 H398 0.961 . S
H396 C395 0.959 . S
H397 C395 0.960 . S
H398 C395 0.961 . S
O399 Co374 1.957 1_554 S
O399 C407 1.258 . S
O400 Co375 1.941 . S
O400 C407 1.266 . S
H401 C403 0.959 . S
H402 C403 0.961 . S
C403 C393 1.525 . S
C403 H401 0.959 . S
C403 H402 0.961 . S
C403 H404 0.960 . S
H404 C403 0.960 . S
H405 N385 0.862 . S
O406 Co374 1.950 . S
O406 C379 1.289 . S
C407 O399 1.258 . S
C407 O400 1.266 . S
Co408 O411 1.970 . S
Co408 N425 1.989 . S
Co408 O433 1.967 . S
Co408 O440 1.920 . S
Co409 O412 1.966 . S
Co409 N418 2.022 . S
Co409 N426 1.993 . S
Co409 O434 1.941 . S
C410 O411 1.258 . S
C410 O412 1.263 . S
O411 Co408 1.970 . S
O411 C410 1.258 . S
O412 Co409 1.966 . S
O412 C410 1.263 . S
C413 O414 1.235 . S
C413 O440 1.289 . S
O414 C413 1.235 . S
C415 C417 1.400 . S
C415 N418 1.351 . S
C415 C420 1.501 . S
C416 C417 1.387 . S
C416 N419 1.341 . S
C417 C415 1.400 . S
C417 C416 1.387 . S
N418 Co409 2.022 . S
N418 C415 1.351 . S
N418 N419 1.365 . S
N419 C416 1.341 . S
N419 N418 1.365 . S
N419 H439 0.862 . S
C420 C415 1.501 . S
C420 H421 0.961 . S
C420 H422 0.961 . S
C420 H423 0.960 . S
H421 C420 0.961 . S
H422 C420 0.961 . S
H423 C420 0.960 . S
C424 N425 1.342 . S
C424 C428 1.401 . S
C424 C429 1.499 . S
N425 Co408 1.989 . S
N425 C424 1.342 . S
N425 N426 1.388 . S
N426 Co409 1.993 . S
N426 N425 1.388 . S
N426 C427 1.346 . S
C427 N426 1.346 . S
C427 C428 1.396 . S
C427 C437 1.510 . S
C428 C424 1.401 . S
C428 C427 1.396 . S
C429 C424 1.499 . S
C429 H430 0.959 . S
C429 H431 0.960 . S
C429 H432 0.961 . S
H430 C429 0.959 . S
H431 C429 0.960 . S
H432 C429 0.961 . S
O433 Co408 1.967 . S
O433 C441 1.258 . S
O434 Co409 1.941 . S
O434 C441 1.266 . S
H435 C437 0.959 . S
H436 C437 0.961 . S
C437 C427 1.510 . S
C437 H435 0.959 . S
C437 H436 0.961 . S
C437 H438 0.960 . S
H438 C437 0.960 . S
H439 N419 0.862 . S
O440 Co408 1.920 . S
O440 C413 1.289 . S
C441 O433 1.258 . S
C441 O434 1.266 . S
Co442 O445 1.970 . S
Co442 N459 1.989 . S
Co442 O467 1.967 . S
Co442 O474 1.920 . S
Co443 O446 1.966 . S
Co443 N452 2.022 . S
Co443 N460 1.993 . S
Co443 O468 1.941 . S
C444 O445 1.258 . S
C444 O446 1.263 . S
O445 Co442 1.970 . S
O445 C444 1.258 . S
O446 Co443 1.966 . S
O446 C444 1.263 . S
C447 O448 1.235 . S
C447 O474 1.289 . S
O448 C447 1.235 . S
C449 C451 1.400 . S
C449 N452 1.351 . S
C449 C454 1.501 . S
C450 C451 1.387 . S
C450 N453 1.341 . S
C451 C449 1.400 . S
C451 C450 1.387 . S
N452 Co443 2.022 . S
N452 C449 1.351 . S
N452 N453 1.365 . S
N453 C450 1.341 . S
N453 N452 1.365 . S
N453 H473 0.862 . S
C454 C449 1.501 . S
C454 H455 0.961 . S
C454 H456 0.961 . S
C454 H457 0.960 . S
H455 C454 0.961 . S
H456 C454 0.961 . S
H457 C454 0.960 . S
C458 N459 1.342 . S
C458 C462 1.401 . S
C458 C463 1.499 . S
N459 Co442 1.989 . S
N459 C458 1.342 . S
N459 N460 1.388 . S
N460 Co443 1.993 . S
N460 N459 1.388 . S
N460 C461 1.346 . S
C461 N460 1.346 . S
C461 C462 1.396 . S
C461 C471 1.510 . S
C462 C458 1.401 . S
C462 C461 1.396 . S
C463 C458 1.499 . S
C463 H464 0.959 . S
C463 H465 0.960 . S
C463 H466 0.961 . S
H464 C463 0.959 . S
H465 C463 0.960 . S
H466 C463 0.961 . S
O467 Co442 1.967 . S
O467 C475 1.258 . S
O468 Co443 1.941 . S
O468 C475 1.266 . S
H469 C471 0.959 . S
H470 C471 0.961 . S
C471 C461 1.510 . S
C471 H469 0.959 . S
C471 H470 0.961 . S
C471 H472 0.960 . S
H472 C471 0.960 . S
H473 N453 0.862 . S
O474 Co442 1.920 . S
O474 C447 1.289 . S
C475 O467 1.258 . S
C475 O468 1.266 . S
Co476 O479 1.970 . S
Co476 N493 1.989 . S
Co476 O501 1.967 . S
Co476 O508 1.920 . S
Co477 O480 1.966 . S
Co477 N486 2.022 . S
Co477 N494 1.993 . S
Co477 O502 1.941 . S
C478 O479 1.258 . S
C478 O480 1.263 . S
O479 Co476 1.970 . S
O479 C478 1.258 . S
O480 Co477 1.966 . S
O480 C478 1.263 . S
C481 O482 1.235 . S
C481 O508 1.289 . S
O482 C481 1.235 . S
C483 C485 1.400 . S
C483 N486 1.351 . S
C483 C488 1.501 . S
C484 C485 1.387 . S
C484 N487 1.341 . S
C485 C483 1.400 . S
C485 C484 1.387 . S
N486 Co477 2.022 . S
N486 C483 1.351 . S
N486 N487 1.365 . S
N487 C484 1.341 . S
N487 N486 1.365 . S
N487 H507 0.862 . S
C488 C483 1.501 . S
C488 H489 0.961 . S
C488 H490 0.961 . S
C488 H491 0.960 . S
H489 C488 0.961 . S
H490 C488 0.961 . S
H491 C488 0.960 . S
C492 N493 1.342 . S
C492 C496 1.401 . S
C492 C497 1.499 . S
N493 Co476 1.989 . S
N493 C492 1.342 . S
N493 N494 1.388 . S
N494 Co477 1.993 . S
N494 N493 1.388 . S
N494 C495 1.346 . S
C495 N494 1.346 . S
C495 C496 1.396 . S
C495 C505 1.510 . S
C496 C492 1.401 . S
C496 C495 1.396 . S
C497 C492 1.499 . S
C497 H498 0.959 . S
C497 H499 0.960 . S
C497 H500 0.961 . S
H498 C497 0.959 . S
H499 C497 0.960 . S
H500 C497 0.961 . S
O501 Co476 1.967 . S
O501 C509 1.258 . S
O502 Co477 1.941 . S
O502 C509 1.266 . S
H503 C505 0.959 . S
H504 C505 0.961 . S
C505 C495 1.510 . S
C505 H503 0.959 . S
C505 H504 0.961 . S
C505 H506 0.960 . S
H506 C505 0.960 . S
H507 N487 0.862 . S
O508 Co476 1.920 . S
O508 C481 1.289 . S
C509 O501 1.258 . S
C509 O502 1.266 . S
Co510 O513 1.970 . S
Co510 N527 1.989 . S
Co510 O535 1.967 . S
Co510 O542 1.920 . S
Co511 O514 1.966 . S
Co511 N520 2.022 . S
Co511 N528 1.993 . S
Co511 O536 1.941 . S
C512 O513 1.258 . S
C512 O514 1.263 . S
O513 Co510 1.970 . S
O513 C512 1.258 . S
O514 Co511 1.966 . S
O514 C512 1.263 . S
C515 O516 1.235 . S
C515 O542 1.289 . S
O516 C515 1.235 . S
C517 C519 1.400 . S
C517 N520 1.351 . S
C517 C522 1.501 . S
C518 C519 1.387 . S
C518 N521 1.341 . S
C519 C517 1.400 . S
C519 C518 1.387 . S
N520 Co511 2.022 . S
N520 C517 1.351 . S
N520 N521 1.365 . S
N521 C518 1.341 . S
N521 N520 1.365 . S
N521 H541 0.862 . S
C522 C517 1.501 . S
C522 H523 0.961 . S
C522 H524 0.961 . S
C522 H525 0.960 . S
H523 C522 0.961 . S
H524 C522 0.961 . S
H525 C522 0.960 . S
C526 N527 1.342 . S
C526 C530 1.401 . S
C526 C531 1.499 . S
N527 Co510 1.989 . S
N527 C526 1.342 . S
N527 N528 1.388 . S
N528 Co511 1.993 . S
N528 N527 1.388 . S
N528 C529 1.346 . S
C529 N528 1.346 . S
C529 C530 1.396 . S
C529 C539 1.510 . S
C530 C526 1.401 . S
C530 C529 1.396 . S
C531 C526 1.499 . S
C531 H532 0.959 . S
C531 H533 0.960 . S
C531 H534 0.961 . S
H532 C531 0.959 . S
H533 C531 0.960 . S
H534 C531 0.961 . S
O535 Co510 1.967 . S
O535 C543 1.258 . S
O536 Co511 1.941 . S
O536 C543 1.266 . S
H537 C539 0.959 . S
H538 C539 0.961 . S
C539 C529 1.510 . S
C539 H537 0.959 . S
C539 H538 0.961 . S
C539 H540 0.960 . S
H540 C539 0.960 . S
H541 N521 0.862 . S
O542 Co510 1.920 . S
O542 C515 1.289 . S
C543 O535 1.258 . S
C543 O536 1.266 . S
Co544 O547 1.970 . S
Co544 N561 1.989 . S
Co544 O569 1.967 . S
Co544 O576 1.920 . S
Co545 O548 1.966 . S
Co545 N554 2.022 . S
Co545 N562 1.993 . S
Co545 O570 1.941 . S
C546 O547 1.258 . S
C546 O548 1.263 . S
O547 Co544 1.970 . S
O547 C546 1.258 . S
O548 Co545 1.966 . S
O548 C546 1.263 . S
C549 O550 1.235 . S
C549 O576 1.289 . S
O550 C549 1.235 . S
C551 C553 1.400 . S
C551 N554 1.351 . S
C551 C556 1.501 . S
C552 C553 1.387 . S
C552 N555 1.341 . S
C553 C551 1.400 . S
C553 C552 1.387 . S
N554 Co545 2.022 . S
N554 C551 1.351 . S
N554 N555 1.365 . S
N555 C552 1.341 . S
N555 N554 1.365 . S
N555 H575 0.862 . S
C556 C551 1.501 . S
C556 H557 0.961 . S
C556 H558 0.961 . S
C556 H559 0.960 . S
H557 C556 0.961 . S
H558 C556 0.961 . S
H559 C556 0.960 . S
C560 N561 1.342 . S
C560 C564 1.401 . S
C560 C565 1.499 . S
N561 Co544 1.989 . S
N561 C560 1.342 . S
N561 N562 1.388 . S
N562 Co545 1.993 . S
N562 N561 1.388 . S
N562 C563 1.346 . S
C563 N562 1.346 . S
C563 C564 1.396 . S
C563 C573 1.510 . S
C564 C560 1.401 . S
C564 C563 1.396 . S
C565 C560 1.499 . S
C565 H566 0.959 . S
C565 H567 0.960 . S
C565 H568 0.961 . S
H566 C565 0.959 . S
H567 C565 0.960 . S
H568 C565 0.961 . S
O569 Co544 1.967 . S
O569 C577 1.258 . S
O570 Co545 1.941 . S
O570 C577 1.266 . S
H571 C573 0.959 . S
H572 C573 0.961 . S
C573 C563 1.510 . S
C573 H571 0.959 . S
C573 H572 0.961 . S
C573 H574 0.960 . S
H574 C573 0.960 . S
H575 N555 0.862 . S
O576 Co544 1.920 . S
O576 C549 1.289 . S
C577 O569 1.258 . S
C577 O570 1.266 . S
Co578 O581 1.970 . S
Co578 N595 1.989 . S
Co578 O603 1.967 . S
Co578 O610 1.920 . S
Co579 O582 1.966 . S
Co579 N588 2.022 . S
Co579 N596 1.993 . S
Co579 O604 1.941 . S
C580 O581 1.258 . S
C580 O582 1.263 . S
O581 Co578 1.970 . S
O581 C580 1.258 . S
O582 Co579 1.966 . S
O582 C580 1.263 . S
C583 O584 1.235 . S
C583 O610 1.289 . S
O584 C583 1.235 . S
C585 C587 1.400 . S
C585 N588 1.351 . S
C585 C590 1.501 . S
C586 C587 1.387 . S
C586 N589 1.341 . S
C587 C585 1.400 . S
C587 C586 1.387 . S
N588 Co579 2.022 . S
N588 C585 1.351 . S
N588 N589 1.365 . S
N589 C586 1.341 . S
N589 N588 1.365 . S
N589 H609 0.862 . S
C590 C585 1.501 . S
C590 H591 0.961 . S
C590 H592 0.961 . S
C590 H593 0.960 . S
H591 C590 0.961 . S
H592 C590 0.961 . S
H593 C590 0.960 . S
C594 N595 1.342 . S
C594 C598 1.401 . S
C594 C599 1.499 . S
N595 Co578 1.989 . S
N595 C594 1.342 . S
N595 N596 1.388 . S
N596 Co579 1.993 . S
N596 N595 1.388 . S
N596 C597 1.346 . S
C597 N596 1.346 . S
C597 C598 1.396 . S
C597 C607 1.510 . S
C598 C594 1.401 . S
C598 C597 1.396 . S
C599 C594 1.499 . S
C599 H600 0.959 . S
C599 H601 0.960 . S
C599 H602 0.961 . S
H600 C599 0.959 . S
H601 C599 0.960 . S
H602 C599 0.961 . S
O603 Co578 1.967 . S
O603 C611 1.258 . S
O604 Co579 1.941 . S
O604 C611 1.266 . S
H605 C607 0.959 . S
H606 C607 0.961 . S
C607 C597 1.510 . S
C607 H605 0.959 . S
C607 H606 0.961 . S
C607 H608 0.960 . S
H608 C607 0.960 . S
H609 N589 0.862 . S
O610 Co578 1.920 . S
O610 C583 1.289 . S
C611 O603 1.258 . S
C611 O604 1.266 . S
Co612 O615 1.970 . S
Co612 N629 1.989 . S
Co612 O637 1.967 . S
Co612 O644 1.920 . S
Co613 O616 1.966 . S
Co613 N622 2.022 . S
Co613 N630 1.993 . S
Co613 O638 1.941 . S
C614 O615 1.258 . S
C614 O616 1.263 . S
O615 Co612 1.970 . S
O615 C614 1.258 . S
O616 Co613 1.966 . S
O616 C614 1.263 . S
C617 O618 1.235 . S
C617 O644 1.289 . S
O618 C617 1.235 . S
C619 C621 1.400 . S
C619 N622 1.351 . S
C619 C624 1.501 . S
C620 C621 1.387 . S
C620 N623 1.341 . S
C621 C619 1.400 . S
C621 C620 1.387 . S
N622 Co613 2.022 . S
N622 C619 1.351 . S
N622 N623 1.365 . S
N623 C620 1.341 . S
N623 N622 1.365 . S
N623 H643 0.862 . S
C624 C619 1.501 . S
C624 H625 0.961 . S
C624 H626 0.961 . S
C624 H627 0.960 . S
H625 C624 0.961 . S
H626 C624 0.961 . S
H627 C624 0.960 . S
C628 N629 1.342 . S
C628 C632 1.401 . S
C628 C633 1.499 . S
N629 Co612 1.989 . S
N629 C628 1.342 . S
N629 N630 1.388 . S
N630 Co613 1.993 . S
N630 N629 1.388 . S
N630 C631 1.346 . S
C631 N630 1.346 . S
C631 C632 1.396 . S
C631 C641 1.510 . S
C632 C628 1.401 . S
C632 C631 1.396 . S
C633 C628 1.499 . S
C633 H634 0.959 . S
C633 H635 0.960 . S
C633 H636 0.961 . S
H634 C633 0.959 . S
H635 C633 0.960 . S
H636 C633 0.961 . S
O637 Co612 1.967 . S
O637 C645 1.258 . S
O638 Co613 1.941 . S
O638 C645 1.266 . S
H639 C641 0.959 . S
H640 C641 0.961 . S
C641 C631 1.510 . S
C641 H639 0.959 . S
C641 H640 0.961 . S
C641 H642 0.960 . S
H642 C641 0.960 . S
H643 N623 0.862 . S
O644 Co612 1.920 . S
O644 C617 1.289 . S
C645 O637 1.258 . S
C645 O638 1.266 . S
Co646 O649 1.970 . S
Co646 N663 1.989 . S
Co646 O671 1.967 . S
Co646 O678 1.920 . S
Co647 O650 1.966 . S
Co647 N656 2.022 . S
Co647 N664 1.993 . S
Co647 O672 1.941 . S
C648 O649 1.258 . S
C648 O650 1.263 . S
O649 Co646 1.970 . S
O649 C648 1.258 . S
O650 Co647 1.966 . S
O650 C648 1.263 . S
C651 O652 1.235 . S
C651 O678 1.289 . S
O652 C651 1.235 . S
C653 C655 1.400 . S
C653 N656 1.351 . S
C653 C658 1.501 . S
C654 C655 1.387 . S
C654 N657 1.341 . S
C655 C653 1.400 . S
C655 C654 1.387 . S
N656 Co647 2.022 . S
N656 C653 1.351 . S
N656 N657 1.365 . S
N657 C654 1.341 . S
N657 N656 1.365 . S
N657 H677 0.862 . S
C658 C653 1.501 . S
C658 H659 0.961 . S
C658 H660 0.961 . S
C658 H661 0.960 . S
H659 C658 0.961 . S
H660 C658 0.961 . S
H661 C658 0.960 . S
C662 N663 1.342 . S
C662 C666 1.401 . S
C662 C667 1.499 . S
N663 Co646 1.989 . S
N663 C662 1.342 . S
N663 N664 1.388 . S
N664 Co647 1.993 . S
N664 N663 1.388 . S
N664 C665 1.346 . S
C665 N664 1.346 . S
C665 C666 1.396 . S
C665 C675 1.510 . S
C666 C662 1.401 . S
C666 C665 1.396 . S
C667 C662 1.499 . S
C667 H668 0.959 . S
C667 H669 0.960 . S
C667 H670 0.961 . S
H668 C667 0.959 . S
H669 C667 0.960 . S
H670 C667 0.961 . S
O671 Co646 1.967 . S
O671 C679 1.258 . S
O672 Co647 1.941 . S
O672 C679 1.266 . S
H673 C675 0.959 . S
H674 C675 0.961 . S
C675 C665 1.510 . S
C675 H673 0.959 . S
C675 H674 0.961 . S
C675 H676 0.960 . S
H676 C675 0.960 . S
H677 N657 0.862 . S
O678 Co646 1.920 . S
O678 C651 1.289 . S
C679 O671 1.258 . S
C679 O672 1.266 . S
Co680 O683 1.970 . S
Co680 N697 1.989 . S
Co680 O705 1.967 . S
Co680 O712 1.920 . S
Co681 O684 1.966 . S
Co681 N690 2.022 . S
Co681 N698 1.993 . S
Co681 O706 1.941 . S
C682 O683 1.258 . S
C682 O684 1.263 . S
O683 Co680 1.970 . S
O683 C682 1.258 . S
O684 Co681 1.966 . S
O684 C682 1.263 . S
C685 O686 1.235 . S
C685 O712 1.289 . S
O686 C685 1.235 . S
C687 C689 1.400 . S
C687 N690 1.351 . S
C687 C692 1.501 . S
C688 C689 1.387 . S
C688 N691 1.341 . S
C689 C687 1.400 . S
C689 C688 1.387 . S
N690 Co681 2.022 . S
N690 C687 1.351 . S
N690 N691 1.365 . S
N691 C688 1.341 . S
N691 N690 1.365 . S
N691 H711 0.862 . S
C692 C687 1.501 . S
C692 H693 0.961 . S
C692 H694 0.961 . S
C692 H695 0.960 . S
H693 C692 0.961 . S
H694 C692 0.961 . S
H695 C692 0.960 . S
C696 N697 1.342 . S
C696 C700 1.401 . S
C696 C701 1.499 . S
N697 Co680 1.989 . S
N697 C696 1.342 . S
N697 N698 1.388 . S
N698 Co681 1.993 . S
N698 N697 1.388 . S
N698 C699 1.346 . S
C699 N698 1.346 . S
C699 C700 1.396 . S
C699 C709 1.510 . S
C700 C696 1.401 . S
C700 C699 1.396 . S
C701 C696 1.499 . S
C701 H702 0.959 . S
C701 H703 0.960 . S
C701 H704 0.961 . S
H702 C701 0.959 . S
H703 C701 0.960 . S
H704 C701 0.961 . S
O705 Co680 1.967 . S
O705 C713 1.258 . S
O706 Co681 1.941 . S
O706 C713 1.266 . S
H707 C709 0.959 . S
H708 C709 0.961 . S
C709 C699 1.510 . S
C709 H707 0.959 . S
C709 H708 0.961 . S
C709 H710 0.960 . S
H710 C709 0.960 . S
H711 N691 0.862 . S
O712 Co680 1.920 . S
O712 C685 1.289 . S
C713 O705 1.258 . S
C713 O706 1.266 . S
Co714 O717 1.970 . S
Co714 N731 1.989 . S
Co714 O739 1.967 . S
Co714 O746 1.920 . S
Co715 O718 1.966 . S
Co715 N724 2.022 . S
Co715 N732 1.993 . S
Co715 O740 1.941 . S
C716 O717 1.258 . S
C716 O718 1.263 . S
O717 Co714 1.970 . S
O717 C716 1.258 . S
O718 Co715 1.966 . S
O718 C716 1.263 . S
C719 O720 1.235 . S
C719 O746 1.289 . S
O720 C719 1.235 . S
C721 C723 1.400 . S
C721 N724 1.351 . S
C721 C726 1.501 . S
C722 C723 1.387 . S
C722 N725 1.341 . S
C723 C721 1.400 . S
C723 C722 1.387 . S
N724 Co715 2.022 . S
N724 C721 1.351 . S
N724 N725 1.365 . S
N725 C722 1.341 . S
N725 N724 1.365 . S
N725 H745 0.862 . S
C726 C721 1.501 . S
C726 H727 0.961 . S
C726 H728 0.961 . S
C726 H729 0.960 . S
H727 C726 0.961 . S
H728 C726 0.961 . S
H729 C726 0.960 . S
C730 N731 1.342 . S
C730 C734 1.401 . S
C730 C735 1.499 . S
N731 Co714 1.989 . S
N731 C730 1.342 . S
N731 N732 1.388 . S
N732 Co715 1.993 . S
N732 N731 1.388 . S
N732 C733 1.346 . S
C733 N732 1.346 . S
C733 C734 1.396 . S
C733 C743 1.510 . S
C734 C730 1.401 . S
C734 C733 1.396 . S
C735 C730 1.499 . S
C735 H736 0.959 . S
C735 H737 0.960 . S
C735 H738 0.961 . S
H736 C735 0.959 . S
H737 C735 0.960 . S
H738 C735 0.961 . S
O739 Co714 1.967 . S
O739 C747 1.258 . S
O740 Co715 1.941 . S
O740 C747 1.266 . S
H741 C743 0.959 . S
H742 C743 0.961 . S
C743 C733 1.510 . S
C743 H741 0.959 . S
C743 H742 0.961 . S
C743 H744 0.960 . S
H744 C743 0.960 . S
H745 N725 0.862 . S
O746 Co714 1.920 . S
O746 C719 1.289 . S
C747 O739 1.258 . S
C747 O740 1.266 . S
Co748 O751 1.970 . S
Co748 N765 1.989 . S
Co748 O773 1.967 . S
Co748 O780 1.920 . S
Co749 O752 1.966 . S
Co749 N758 2.022 . S
Co749 N766 1.993 . S
Co749 O774 1.941 . S
C750 O751 1.258 . S
C750 O752 1.263 . S
O751 Co748 1.970 . S
O751 C750 1.258 . S
O752 Co749 1.966 . S
O752 C750 1.263 . S
C753 O754 1.235 . S
C753 O780 1.289 . S
O754 C753 1.235 . S
C755 C757 1.400 . S
C755 N758 1.351 . S
C755 C760 1.501 . S
C756 C757 1.387 . S
C756 N759 1.341 . S
C757 C755 1.400 . S
C757 C756 1.387 . S
N758 Co749 2.022 . S
N758 C755 1.351 . S
N758 N759 1.365 . S
N759 C756 1.341 . S
N759 N758 1.365 . S
N759 H779 0.862 . S
C760 C755 1.501 . S
C760 H761 0.961 . S
C760 H762 0.961 . S
C760 H763 0.960 . S
H761 C760 0.961 . S
H762 C760 0.961 . S
H763 C760 0.960 . S
C764 N765 1.342 . S
C764 C768 1.401 . S
C764 C769 1.499 . S
N765 Co748 1.989 . S
N765 C764 1.342 . S
N765 N766 1.388 . S
N766 Co749 1.993 . S
N766 N765 1.388 . S
N766 C767 1.346 . S
C767 N766 1.346 . S
C767 C768 1.396 . S
C767 C777 1.510 . S
C768 C764 1.401 . S
C768 C767 1.396 . S
C769 C764 1.499 . S
C769 H770 0.959 . S
C769 H771 0.960 . S
C769 H772 0.961 . S
H770 C769 0.959 . S
H771 C769 0.960 . S
H772 C769 0.961 . S
O773 Co748 1.967 . S
O773 C781 1.258 . S
O774 Co749 1.941 . S
O774 C781 1.266 . S
H775 C777 0.959 . S
H776 C777 0.961 . S
C777 C767 1.510 . S
C777 H775 0.959 . S
C777 H776 0.961 . S
C777 H778 0.960 . S
H778 C777 0.960 . S
H779 N759 0.862 . S
O780 Co748 1.920 . S
O780 C753 1.289 . S
C781 O773 1.258 . S
C781 O774 1.266 . S
Co782 O785 1.970 . S
Co782 N799 1.989 . S
Co782 O807 1.967 . S
Co782 O814 1.920 . S
Co783 O786 1.966 . S
Co783 N792 2.022 . S
Co783 N800 1.993 . S
Co783 O808 1.941 . S
C784 O785 1.258 . S
C784 O786 1.263 . S
O785 Co782 1.970 . S
O785 C784 1.258 . S
O786 Co783 1.966 . S
O786 C784 1.263 . S
C787 O788 1.235 . S
C787 O814 1.289 . S
O788 C787 1.235 . S
C789 C791 1.400 . S
C789 N792 1.351 . S
C789 C794 1.501 . S
C790 C791 1.387 . S
C790 N793 1.341 . S
C791 C789 1.400 . S
C791 C790 1.387 . S
N792 Co783 2.022 . S
N792 C789 1.351 . S
N792 N793 1.365 . S
N793 C790 1.341 . S
N793 N792 1.365 . S
N793 H813 0.862 . S
C794 C789 1.501 . S
C794 H795 0.961 . S
C794 H796 0.961 . S
C794 H797 0.960 . S
H795 C794 0.961 . S
H796 C794 0.961 . S
H797 C794 0.960 . S
C798 N799 1.342 . S
C798 C802 1.401 . S
C798 C803 1.499 . S
N799 Co782 1.989 . S
N799 C798 1.342 . S
N799 N800 1.388 . S
N800 Co783 1.993 . S
N800 N799 1.388 . S
N800 C801 1.346 . S
C801 N800 1.346 . S
C801 C802 1.396 . S
C801 C811 1.510 . S
C802 C798 1.401 . S
C802 C801 1.396 . S
C803 C798 1.499 . S
C803 H804 0.959 . S
C803 H805 0.960 . S
C803 H806 0.961 . S
H804 C803 0.959 . S
H805 C803 0.960 . S
H806 C803 0.961 . S
O807 Co782 1.967 . S
O807 C815 1.258 . S
O808 Co783 1.941 . S
O808 C815 1.266 . S
H809 C811 0.959 . S
H810 C811 0.961 . S
C811 C801 1.510 . S
C811 H809 0.959 . S
C811 H810 0.961 . S
C811 H812 0.960 . S
H812 C811 0.960 . S
H813 N793 0.862 . S
O814 Co782 1.920 . S
O814 C787 1.289 . S
C815 O807 1.258 . S
C815 O808 1.266 . S
H816 C824 0.929 . S
H817 C826 0.930 . S
H818 C828 0.930 . S
H819 C831 0.929 . S
H820 C834 0.930 . S
H821 C836 0.960 . S
H822 C836 0.960 . S
H823 C836 0.960 . S
C824 H816 0.929 . S
C824 C825 1.377 . S
C824 C826 1.384 . S
C825 C824 1.377 . S
C825 C831 1.390 . S
C826 H817 0.930 . S
C826 C824 1.384 . S
C826 C827 1.372 . S
C827 C826 1.372 . S
C827 C828 1.400 . S
C827 C832 1.490 . S
C828 H818 0.930 . S
C828 C827 1.400 . S
C828 C831 1.386 . S
H829 C845 0.930 . S
H830 C846 0.931 . S
C831 H819 0.929 . S
C831 C825 1.390 . S
C831 C828 1.386 . S
C832 C827 1.490 . S
C832 C834 1.395 . S
C832 C835 1.403 . S
H833 C839 0.930 . S
C834 H820 0.930 . S
C834 C832 1.395 . S
C834 C837 1.403 . S
C835 C832 1.403 . S
C835 C836 1.524 . S
C835 C839 1.400 . S
C836 H821 0.960 . S
C836 H822 0.960 . S
C836 H823 0.960 . S
C836 C835 1.524 . S
C837 C834 1.403 . S
C837 C838 1.392 . S
C837 C841 1.495 . S
C838 C837 1.392 . S
C838 C839 1.385 . S
C838 C840 1.478 . S
C839 H833 0.930 . S
C839 C835 1.400 . S
C839 C838 1.385 . S
C840 C838 1.478 . S
C840 C842 1.381 . S
C840 C846 1.383 . S
C841 C837 1.495 . S
C841 H847 0.959 . S
C841 H848 0.961 . S
C841 H849 0.960 . S
C842 C840 1.381 . S
C842 C843 1.394 . S
C842 H850 0.930 . S
C843 C842 1.394 . S
C843 C844 1.383 . S
C843 H851 0.929 . S
C844 C843 1.383 . S
C844 C845 1.377 . S
C845 H829 0.930 . S
C845 C844 1.377 . S
C845 C846 1.379 . S
C846 H830 0.931 . S
C846 C840 1.383 . S
C846 C845 1.379 . S
H847 C841 0.959 . S
H848 C841 0.961 . S
H849 C841 0.960 . S
H850 C842 0.930 . S
H851 C843 0.929 . S
H852 C860 0.929 . S
H853 C862 0.930 . S
H854 C864 0.930 . S
H855 C867 0.929 . S
H856 C870 0.930 . S
H857 C872 0.960 . S
H858 C872 0.960 . S
H859 C872 0.960 . S
C860 H852 0.929 . S
C860 C861 1.377 . S
C860 C862 1.384 . S
C861 C860 1.377 . S
C861 C867 1.390 . S
C862 H853 0.930 . S
C862 C860 1.384 . S
C862 C863 1.372 . S
C863 C862 1.372 . S
C863 C864 1.400 . S
C863 C868 1.490 . S
C864 H854 0.930 . S
C864 C863 1.400 . S
C864 C867 1.386 . S
H865 C881 0.930 . S
H866 C882 0.931 . S
C867 H855 0.929 . S
C867 C861 1.390 . S
C867 C864 1.386 . S
C868 C863 1.490 . S
C868 C870 1.395 . S
C868 C871 1.403 . S
H869 C875 0.930 . S
C870 H856 0.930 . S
C870 C868 1.395 . S
C870 C873 1.403 . S
C871 C868 1.403 . S
C871 C872 1.524 . S
C871 C875 1.400 . S
C872 H857 0.960 . S
C872 H858 0.960 . S
C872 H859 0.960 . S
C872 C871 1.524 . S
C873 C870 1.403 . S
C873 C874 1.392 . S
C873 C877 1.495 . S
C874 C873 1.392 . S
C874 C875 1.385 . S
C874 C876 1.478 . S
C875 H869 0.930 . S
C875 C871 1.400 . S
C875 C874 1.385 . S
C876 C874 1.478 . S
C876 C878 1.381 . S
C876 C882 1.383 . S
C877 C873 1.495 . S
C877 H883 0.959 . S
C877 H884 0.961 . S
C877 H885 0.960 . S
C878 C876 1.381 . S
C878 C879 1.394 . S
C878 H886 0.930 . S
C879 C878 1.394 . S
C879 C880 1.383 . S
C879 H887 0.929 . S
C880 C879 1.383 . S
C880 C881 1.377 . S
C881 H865 0.930 . S
C881 C880 1.377 . S
C881 C882 1.379 . S
C882 H866 0.931 . S
C882 C876 1.383 . S
C882 C881 1.379 . S
H883 C877 0.959 . S
H884 C877 0.961 . S
H885 C877 0.960 . S
H886 C878 0.930 . S
H887 C879 0.929 . S
H888 C896 0.929 . S
H889 C898 0.930 . S
H890 C900 0.930 . S
H891 C903 0.929 . S
H892 C906 0.930 . S
H893 C908 0.960 . S
H894 C908 0.960 . S
H895 C908 0.960 . S
C896 H888 0.929 . S
C896 C897 1.377 . S
C896 C898 1.384 . S
C897 C896 1.377 . S
C897 C903 1.390 . S
C898 H889 0.930 . S
C898 C896 1.384 . S
C898 C899 1.372 . S
C899 C898 1.372 . S
C899 C900 1.400 . S
C899 C904 1.490 . S
C900 H890 0.930 . S
C900 C899 1.400 . S
C900 C903 1.386 . S
H901 C917 0.930 . S
H902 C918 0.931 . S
C903 H891 0.929 . S
C903 C897 1.390 . S
C903 C900 1.386 . S
C904 C899 1.490 . S
C904 C906 1.395 . S
C904 C907 1.403 . S
H905 C911 0.930 . S
C906 H892 0.930 . S
C906 C904 1.395 . S
C906 C909 1.403 . S
C907 C904 1.403 . S
C907 C908 1.524 . S
C907 C911 1.400 . S
C908 H893 0.960 . S
C908 H894 0.960 . S
C908 H895 0.960 . S
C908 C907 1.524 . S
C909 C906 1.403 . S
C909 C910 1.392 . S
C909 C913 1.495 . S
C910 C909 1.392 . S
C910 C911 1.385 . S
C910 C912 1.478 . S
C911 H905 0.930 . S
C911 C907 1.400 . S
C911 C910 1.385 . S
C912 C910 1.478 . S
C912 C914 1.381 . S
C912 C918 1.383 . S
C913 C909 1.495 . S
C913 H919 0.959 . S
C913 H920 0.961 . S
C913 H921 0.960 . S
C914 C912 1.381 . S
C914 C915 1.394 . S
C914 H922 0.930 . S
C915 C914 1.394 . S
C915 C916 1.383 . S
C915 H923 0.929 . S
C916 C915 1.383 . S
C916 C917 1.377 . S
C917 H901 0.930 . S
C917 C916 1.377 . S
C917 C918 1.379 . S
C918 H902 0.931 . S
C918 C912 1.383 . S
C918 C917 1.379 . S
H919 C913 0.959 . S
H920 C913 0.961 . S
H921 C913 0.960 . S
H922 C914 0.930 . S
H923 C915 0.929 . S
H924 C932 0.929 . S
H925 C934 0.930 . S
H926 C936 0.930 . S
H927 C939 0.929 . S
H928 C942 0.930 . S
H929 C944 0.960 . S
H930 C944 0.960 . S
H931 C944 0.960 . S
C932 H924 0.929 . S
C932 C933 1.377 . S
C932 C934 1.384 . S
C933 C932 1.377 . S
C933 C939 1.390 . S
C934 H925 0.930 . S
C934 C932 1.384 . S
C934 C935 1.372 . S
C935 C934 1.372 . S
C935 C936 1.400 . S
C935 C940 1.490 . S
C936 H926 0.930 . S
C936 C935 1.400 . S
C936 C939 1.386 . S
H937 C953 0.930 . S
H938 C954 0.931 . S
C939 H927 0.929 . S
C939 C933 1.390 . S
C939 C936 1.386 . S
C940 C935 1.490 . S
C940 C942 1.395 . S
C940 C943 1.403 . S
H941 C947 0.930 . S
C942 H928 0.930 . S
C942 C940 1.395 . S
C942 C945 1.403 . S
C943 C940 1.403 . S
C943 C944 1.524 . S
C943 C947 1.400 . S
C944 H929 0.960 . S
C944 H930 0.960 . S
C944 H931 0.960 . S
C944 C943 1.524 . S
C945 C942 1.403 . S
C945 C946 1.392 . S
C945 C949 1.495 . S
C946 C945 1.392 . S
C946 C947 1.385 . S
C946 C948 1.478 . S
C947 H941 0.930 . S
C947 C943 1.400 . S
C947 C946 1.385 . S
C948 C946 1.478 . S
C948 C950 1.381 . S
C948 C954 1.383 . S
C949 C945 1.495 . S
C949 H955 0.959 . S
C949 H956 0.961 . S
C949 H957 0.960 . S
C950 C948 1.381 . S
C950 C951 1.394 . S
C950 H958 0.930 . S
C951 C950 1.394 . S
C951 C952 1.383 . S
C951 H959 0.929 . S
C952 C951 1.383 . S
C952 C953 1.377 . S
C953 H937 0.930 . S
C953 C952 1.377 . S
C953 C954 1.379 . S
C954 H938 0.931 . S
C954 C948 1.383 . S
C954 C953 1.379 . S
H955 C949 0.959 . S
H956 C949 0.961 . S
H957 C949 0.960 . S
H958 C950 0.930 . S
H959 C951 0.929 . S
H960 C968 0.929 . S
H961 C970 0.930 . S
H962 C972 0.930 . S
H963 C975 0.929 . S
H964 C978 0.930 . S
H965 C980 0.960 . S
H966 C980 0.960 . S
H967 C980 0.960 . S
C968 H960 0.929 . S
C968 C969 1.377 . S
C968 C970 1.384 . S
C969 C968 1.377 . S
C969 C975 1.390 . S
C970 H961 0.930 . S
C970 C968 1.384 . S
C970 C971 1.372 . S
C971 C970 1.372 . S
C971 C972 1.400 . S
C971 C976 1.490 . S
C972 H962 0.930 . S
C972 C971 1.400 . S
C972 C975 1.386 . S
H973 C989 0.930 . S
H974 C990 0.931 . S
C975 H963 0.929 . S
C975 C969 1.390 . S
C975 C972 1.386 . S
C976 C971 1.490 . S
C976 C978 1.395 . S
C976 C979 1.403 . S
H977 C983 0.930 . S
C978 H964 0.930 . S
C978 C976 1.395 . S
C978 C981 1.403 . S
C979 C976 1.403 . S
C979 C980 1.524 . S
C979 C983 1.400 . S
C980 H965 0.960 . S
C980 H966 0.960 . S
C980 H967 0.960 . S
C980 C979 1.524 . S
C981 C978 1.403 . S
C981 C982 1.392 . S
C981 C985 1.495 . S
C982 C981 1.392 . S
C982 C983 1.385 . S
C982 C984 1.478 . S
C983 H977 0.930 . S
C983 C979 1.400 . S
C983 C982 1.385 . S
C984 C982 1.478 . S
C984 C986 1.381 . S
C984 C990 1.383 . S
C985 C981 1.495 . S
C985 H991 0.959 . S
C985 H992 0.961 . S
C985 H993 0.960 . S
C986 C984 1.381 . S
C986 C987 1.394 . S
C986 H994 0.930 . S
C987 C986 1.394 . S
C987 C988 1.383 . S
C987 H995 0.929 . S
C988 C987 1.383 . S
C988 C989 1.377 . S
C989 H973 0.930 . S
C989 C988 1.377 . S
C989 C990 1.379 . S
C990 H974 0.931 . S
C990 C984 1.383 . S
C990 C989 1.379 . S
H991 C985 0.959 . S
H992 C985 0.961 . S
H993 C985 0.960 . S
H994 C986 0.930 . S
H995 C987 0.929 . S
H996 C1004 0.929 . S
H997 C1006 0.930 . S
H998 C1008 0.930 . S
H999 C1011 0.929 . S
H1000 C1014 0.930 . S
H1001 C1016 0.960 . S
H1002 C1016 0.960 . S
H1003 C1016 0.960 . S
C1004 H996 0.929 . S
C1004 C1005 1.377 . S
C1004 C1006 1.384 . S
C1005 C1004 1.377 . S
C1005 C1011 1.390 . S
C1006 H997 0.930 . S
C1006 C1004 1.384 . S
C1006 C1007 1.372 . S
C1007 C1006 1.372 . S
C1007 C1008 1.400 . S
C1007 C1012 1.490 . S
C1008 H998 0.930 . S
C1008 C1007 1.400 . S
C1008 C1011 1.386 . S
H1009 C1025 0.930 . S
H1010 C1026 0.931 . S
C1011 H999 0.929 . S
C1011 C1005 1.390 . S
C1011 C1008 1.386 . S
C1012 C1007 1.490 . S
C1012 C1014 1.395 . S
C1012 C1015 1.403 . S
H1013 C1019 0.930 . S
C1014 H1000 0.930 . S
C1014 C1012 1.395 . S
C1014 C1017 1.403 . S
C1015 C1012 1.403 . S
C1015 C1016 1.524 . S
C1015 C1019 1.400 . S
C1016 H1001 0.960 . S
C1016 H1002 0.960 . S
C1016 H1003 0.960 . S
C1016 C1015 1.524 . S
C1017 C1014 1.403 . S
C1017 C1018 1.392 . S
C1017 C1021 1.495 . S
C1018 C1017 1.392 . S
C1018 C1019 1.385 . S
C1018 C1020 1.478 . S
C1019 H1013 0.930 . S
C1019 C1015 1.400 . S
C1019 C1018 1.385 . S
C1020 C1018 1.478 . S
C1020 C1022 1.381 . S
C1020 C1026 1.383 . S
C1021 C1017 1.495 . S
C1021 H1027 0.959 . S
C1021 H1028 0.961 . S
C1021 H1029 0.960 . S
C1022 C1020 1.381 . S
C1022 C1023 1.394 . S
C1022 H1030 0.930 . S
C1023 C1022 1.394 . S
C1023 C1024 1.383 . S
C1023 H1031 0.929 . S
C1024 C1023 1.383 . S
C1024 C1025 1.377 . S
C1025 H1009 0.930 . S
C1025 C1024 1.377 . S
C1025 C1026 1.379 . S
C1026 H1010 0.931 . S
C1026 C1020 1.383 . S
C1026 C1025 1.379 . S
H1027 C1021 0.959 . S
H1028 C1021 0.961 . S
H1029 C1021 0.960 . S
H1030 C1022 0.930 . S
H1031 C1023 0.929 . S
H1032 C1040 0.929 . S
H1033 C1042 0.930 . S
H1034 C1044 0.930 . S
H1035 C1047 0.929 . S
H1036 C1050 0.930 . S
H1037 C1052 0.960 . S
H1038 C1052 0.960 . S
H1039 C1052 0.960 . S
C1040 H1032 0.929 . S
C1040 C1041 1.377 . S
C1040 C1042 1.384 . S
C1041 C1040 1.377 . S
C1041 C1047 1.390 . S
C1042 H1033 0.930 . S
C1042 C1040 1.384 . S
C1042 C1043 1.372 . S
C1043 C1042 1.372 . S
C1043 C1044 1.400 . S
C1043 C1048 1.490 . S
C1044 H1034 0.930 . S
C1044 C1043 1.400 . S
C1044 C1047 1.386 . S
H1045 C1061 0.930 . S
H1046 C1062 0.931 . S
C1047 H1035 0.929 . S
C1047 C1041 1.390 . S
C1047 C1044 1.386 . S
C1048 C1043 1.490 . S
C1048 C1050 1.395 . S
C1048 C1051 1.403 . S
H1049 C1055 0.930 . S
C1050 H1036 0.930 . S
C1050 C1048 1.395 . S
C1050 C1053 1.403 . S
C1051 C1048 1.403 . S
C1051 C1052 1.524 . S
C1051 C1055 1.400 . S
C1052 H1037 0.960 . S
C1052 H1038 0.960 . S
C1052 H1039 0.960 . S
C1052 C1051 1.524 . S
C1053 C1050 1.403 . S
C1053 C1054 1.392 . S
C1053 C1057 1.495 . S
C1054 C1053 1.392 . S
C1054 C1055 1.385 . S
C1054 C1056 1.478 . S
C1055 H1049 0.930 . S
C1055 C1051 1.400 . S
C1055 C1054 1.385 . S
C1056 C1054 1.478 . S
C1056 C1058 1.381 . S
C1056 C1062 1.383 . S
C1057 C1053 1.495 . S
C1057 H1063 0.959 . S
C1057 H1064 0.961 . S
C1057 H1065 0.960 . S
C1058 C1056 1.381 . S
C1058 C1059 1.394 . S
C1058 H1066 0.930 . S
C1059 C1058 1.394 . S
C1059 C1060 1.383 . S
C1059 H1067 0.929 . S
C1060 C1059 1.383 . S
C1060 C1061 1.377 . S
C1061 H1045 0.930 . S
C1061 C1060 1.377 . S
C1061 C1062 1.379 . S
C1062 H1046 0.931 . S
C1062 C1056 1.383 . S
C1062 C1061 1.379 . S
H1063 C1057 0.959 . S
H1064 C1057 0.961 . S
H1065 C1057 0.960 . S
H1066 C1058 0.930 . S
H1067 C1059 0.929 . S
H1068 C1076 0.929 . S
H1069 C1078 0.930 . S
H1070 C1080 0.930 . S
H1071 C1083 0.929 . S
H1072 C1086 0.930 . S
H1073 C1088 0.960 . S
H1074 C1088 0.960 . S
H1075 C1088 0.960 . S
C1076 H1068 0.929 . S
C1076 C1077 1.377 . S
C1076 C1078 1.384 . S
C1077 C1076 1.377 . S
C1077 C1083 1.390 . S
C1078 H1069 0.930 . S
C1078 C1076 1.384 . S
C1078 C1079 1.372 . S
C1079 C1078 1.372 . S
C1079 C1080 1.400 . S
C1079 C1084 1.490 . S
C1080 H1070 0.930 . S
C1080 C1079 1.400 . S
C1080 C1083 1.386 . S
H1081 C1097 0.930 . S
H1082 C1098 0.931 . S
C1083 H1071 0.929 . S
C1083 C1077 1.390 . S
C1083 C1080 1.386 . S
C1084 C1079 1.490 . S
C1084 C1086 1.395 . S
C1084 C1087 1.403 . S
H1085 C1091 0.930 . S
C1086 H1072 0.930 . S
C1086 C1084 1.395 . S
C1086 C1089 1.403 . S
C1087 C1084 1.403 . S
C1087 C1088 1.524 . S
C1087 C1091 1.400 . S
C1088 H1073 0.960 . S
C1088 H1074 0.960 . S
C1088 H1075 0.960 . S
C1088 C1087 1.524 . S
C1089 C1086 1.403 . S
C1089 C1090 1.392 . S
C1089 C1093 1.495 . S
C1090 C1089 1.392 . S
C1090 C1091 1.385 . S
C1090 C1092 1.478 . S
C1091 H1085 0.930 . S
C1091 C1087 1.400 . S
C1091 C1090 1.385 . S
C1092 C1090 1.478 . S
C1092 C1094 1.381 . S
C1092 C1098 1.383 . S
C1093 C1089 1.495 . S
C1093 H1099 0.959 . S
C1093 H1100 0.961 . S
C1093 H1101 0.960 . S
C1094 C1092 1.381 . S
C1094 C1095 1.394 . S
C1094 H1102 0.930 . S
C1095 C1094 1.394 . S
C1095 C1096 1.383 . S
C1095 H1103 0.929 . S
C1096 C1095 1.383 . S
C1096 C1097 1.377 . S
C1097 H1081 0.930 . S
C1097 C1096 1.377 . S
C1097 C1098 1.379 . S
C1098 H1082 0.931 . S
C1098 C1092 1.383 . S
C1098 C1097 1.379 . S
H1099 C1093 0.959 . S
H1100 C1093 0.961 . S
H1101 C1093 0.960 . S
H1102 C1094 0.930 . S
H1103 C1095 0.929 . S
H1104 C1112 0.929 . S
H1105 C1114 0.930 . S
H1106 C1116 0.930 . S
H1107 C1119 0.929 . S
H1108 C1122 0.930 . S
H1109 C1124 0.960 . S
H1110 C1124 0.960 . S
H1111 C1124 0.960 . S
C1112 H1104 0.929 . S
C1112 C1113 1.377 . S
C1112 C1114 1.384 . S
C1113 C1112 1.377 . S
C1113 C1119 1.390 . S
C1114 H1105 0.930 . S
C1114 C1112 1.384 . S
C1114 C1115 1.372 . S
C1115 C1114 1.372 . S
C1115 C1116 1.400 . S
C1115 C1120 1.490 . S
C1116 H1106 0.930 . S
C1116 C1115 1.400 . S
C1116 C1119 1.386 . S
H1117 C1133 0.930 . S
H1118 C1134 0.931 . S
C1119 H1107 0.929 . S
C1119 C1113 1.390 . S
C1119 C1116 1.386 . S
C1120 C1115 1.490 . S
C1120 C1122 1.395 . S
C1120 C1123 1.403 . S
H1121 C1127 0.930 . S
C1122 H1108 0.930 . S
C1122 C1120 1.395 . S
C1122 C1125 1.403 . S
C1123 C1120 1.403 . S
C1123 C1124 1.524 . S
C1123 C1127 1.400 . S
C1124 H1109 0.960 . S
C1124 H1110 0.960 . S
C1124 H1111 0.960 . S
C1124 C1123 1.524 . S
C1125 C1122 1.403 . S
C1125 C1126 1.392 . S
C1125 C1129 1.495 . S
C1126 C1125 1.392 . S
C1126 C1127 1.385 . S
C1126 C1128 1.478 . S
C1127 H1121 0.930 . S
C1127 C1123 1.400 . S
C1127 C1126 1.385 . S
C1128 C1126 1.478 . S
C1128 C1130 1.381 . S
C1128 C1134 1.383 . S
C1129 C1125 1.495 . S
C1129 H1135 0.959 . S
C1129 H1136 0.961 . S
C1129 H1137 0.960 . S
C1130 C1128 1.381 . S
C1130 C1131 1.394 . S
C1130 H1138 0.930 . S
C1131 C1130 1.394 . S
C1131 C1132 1.383 . S
C1131 H1139 0.929 . S
C1132 C1131 1.383 . S
C1132 C1133 1.377 . S
C1133 H1117 0.930 . S
C1133 C1132 1.377 . S
C1133 C1134 1.379 . S
C1134 H1118 0.931 . S
C1134 C1128 1.383 . S
C1134 C1133 1.379 . S
H1135 C1129 0.959 . S
H1136 C1129 0.961 . S
H1137 C1129 0.960 . S
H1138 C1130 0.930 . S
H1139 C1131 0.929 . S
H1140 C1148 0.929 . S
H1141 C1150 0.930 . S
H1142 C1152 0.930 . S
H1143 C1155 0.929 . S
H1144 C1158 0.930 . S
H1145 C1160 0.960 . S
H1146 C1160 0.960 . S
H1147 C1160 0.960 . S
C1148 H1140 0.929 . S
C1148 C1149 1.377 . S
C1148 C1150 1.384 . S
C1149 C1148 1.377 . S
C1149 C1155 1.390 . S
C1150 H1141 0.930 . S
C1150 C1148 1.384 . S
C1150 C1151 1.372 . S
C1151 C1150 1.372 . S
C1151 C1152 1.400 . S
C1151 C1156 1.490 . S
C1152 H1142 0.930 . S
C1152 C1151 1.400 . S
C1152 C1155 1.386 . S
H1153 C1169 0.930 . S
H1154 C1170 0.931 . S
C1155 H1143 0.929 . S
C1155 C1149 1.390 . S
C1155 C1152 1.386 . S
C1156 C1151 1.490 . S
C1156 C1158 1.395 . S
C1156 C1159 1.403 . S
H1157 C1163 0.930 . S
C1158 H1144 0.930 . S
C1158 C1156 1.395 . S
C1158 C1161 1.403 . S
C1159 C1156 1.403 . S
C1159 C1160 1.524 . S
C1159 C1163 1.400 . S
C1160 H1145 0.960 . S
C1160 H1146 0.960 . S
C1160 H1147 0.960 . S
C1160 C1159 1.524 . S
C1161 C1158 1.403 . S
C1161 C1162 1.392 . S
C1161 C1165 1.495 . S
C1162 C1161 1.392 . S
C1162 C1163 1.385 . S
C1162 C1164 1.478 . S
C1163 H1157 0.930 . S
C1163 C1159 1.400 . S
C1163 C1162 1.385 . S
C1164 C1162 1.478 . S
C1164 C1166 1.381 . S
C1164 C1170 1.383 . S
C1165 C1161 1.495 . S
C1165 H1171 0.959 . S
C1165 H1172 0.961 . S
C1165 H1173 0.960 . S
C1166 C1164 1.381 . S
C1166 C1167 1.394 . S
C1166 H1174 0.930 . S
C1167 C1166 1.394 . S
C1167 C1168 1.383 . S
C1167 H1175 0.929 . S
C1168 C1167 1.383 . S
C1168 C1169 1.377 . S
C1169 H1153 0.930 . S
C1169 C1168 1.377 . S
C1169 C1170 1.379 . S
C1170 H1154 0.931 . S
C1170 C1164 1.383 . S
C1170 C1169 1.379 . S
H1171 C1165 0.959 . S
H1172 C1165 0.961 . S
H1173 C1165 0.960 . S
H1174 C1166 0.930 . S
H1175 C1167 0.929 . S
H1176 C1184 0.929 . S
H1177 C1186 0.930 . S
H1178 C1188 0.930 . S
H1179 C1191 0.929 . S
H1180 C1194 0.930 . S
H1181 C1196 0.960 . S
H1182 C1196 0.960 . S
H1183 C1196 0.960 . S
C1184 H1176 0.929 . S
C1184 C1185 1.377 . S
C1184 C1186 1.384 . S
C1185 C1184 1.377 . S
C1185 C1191 1.390 . S
C1186 H1177 0.930 . S
C1186 C1184 1.384 . S
C1186 C1187 1.372 . S
C1187 C1186 1.372 . S
C1187 C1188 1.400 . S
C1187 C1192 1.490 . S
C1188 H1178 0.930 . S
C1188 C1187 1.400 . S
C1188 C1191 1.386 . S
H1189 C1205 0.930 . S
H1190 C1206 0.931 . S
C1191 H1179 0.929 . S
C1191 C1185 1.390 . S
C1191 C1188 1.386 . S
C1192 C1187 1.490 . S
C1192 C1194 1.395 . S
C1192 C1195 1.403 . S
H1193 C1199 0.930 . S
C1194 H1180 0.930 . S
C1194 C1192 1.395 . S
C1194 C1197 1.403 . S
C1195 C1192 1.403 . S
C1195 C1196 1.524 . S
C1195 C1199 1.400 . S
C1196 H1181 0.960 . S
C1196 H1182 0.960 . S
C1196 H1183 0.960 . S
C1196 C1195 1.524 . S
C1197 C1194 1.403 . S
C1197 C1198 1.392 . S
C1197 C1201 1.495 . S
C1198 C1197 1.392 . S
C1198 C1199 1.385 . S
C1198 C1200 1.478 . S
C1199 H1193 0.930 . S
C1199 C1195 1.400 . S
C1199 C1198 1.385 . S
C1200 C1198 1.478 . S
C1200 C1202 1.381 . S
C1200 C1206 1.383 . S
C1201 C1197 1.495 . S
C1201 H1207 0.959 . S
C1201 H1208 0.961 . S
C1201 H1209 0.960 . S
C1202 C1200 1.381 . S
C1202 C1203 1.394 . S
C1202 H1210 0.930 . S
C1203 C1202 1.394 . S
C1203 C1204 1.383 . S
C1203 H1211 0.929 . S
C1204 C1203 1.383 . S
C1204 C1205 1.377 . S
C1205 H1189 0.930 . S
C1205 C1204 1.377 . S
C1205 C1206 1.379 . S
C1206 H1190 0.931 . S
C1206 C1200 1.383 . S
C1206 C1205 1.379 . S
H1207 C1201 0.959 . S
H1208 C1201 0.961 . S
H1209 C1201 0.960 . S
H1210 C1202 0.930 . S
H1211 C1203 0.929 . S
H1212 C1220 0.929 . S
H1213 C1222 0.930 . S
H1214 C1224 0.930 . S
H1215 C1227 0.929 . S
H1216 C1230 0.930 . S
H1217 C1232 0.960 . S
H1218 C1232 0.960 . S
H1219 C1232 0.960 . S
C1220 H1212 0.929 . S
C1220 C1221 1.377 . S
C1220 C1222 1.384 . S
C1221 C1220 1.377 . S
C1221 C1227 1.390 . S
C1222 H1213 0.930 . S
C1222 C1220 1.384 . S
C1222 C1223 1.372 . S
C1223 C1222 1.372 . S
C1223 C1224 1.400 . S
C1223 C1228 1.490 . S
C1224 H1214 0.930 . S
C1224 C1223 1.400 . S
C1224 C1227 1.386 . S
H1225 C1241 0.930 . S
H1226 C1242 0.931 . S
C1227 H1215 0.929 . S
C1227 C1221 1.390 . S
C1227 C1224 1.386 . S
C1228 C1223 1.490 . S
C1228 C1230 1.395 . S
C1228 C1231 1.403 . S
H1229 C1235 0.930 . S
C1230 H1216 0.930 . S
C1230 C1228 1.395 . S
C1230 C1233 1.403 . S
C1231 C1228 1.403 . S
C1231 C1232 1.524 . S
C1231 C1235 1.400 . S
C1232 H1217 0.960 . S
C1232 H1218 0.960 . S
C1232 H1219 0.960 . S
C1232 C1231 1.524 . S
C1233 C1230 1.403 . S
C1233 C1234 1.392 . S
C1233 C1237 1.495 . S
C1234 C1233 1.392 . S
C1234 C1235 1.385 . S
C1234 C1236 1.478 . S
C1235 H1229 0.930 . S
C1235 C1231 1.400 . S
C1235 C1234 1.385 . S
C1236 C1234 1.478 . S
C1236 C1238 1.381 . S
C1236 C1242 1.383 . S
C1237 C1233 1.495 . S
C1237 H1243 0.959 . S
C1237 H1244 0.961 . S
C1237 H1245 0.960 . S
C1238 C1236 1.381 . S
C1238 C1239 1.394 . S
C1238 H1246 0.930 . S
C1239 C1238 1.394 . S
C1239 C1240 1.383 . S
C1239 H1247 0.929 . S
C1240 C1239 1.383 . S
C1240 C1241 1.377 . S
C1241 H1225 0.930 . S
C1241 C1240 1.377 . S
C1241 C1242 1.379 . S
C1242 H1226 0.931 . S
C1242 C1236 1.383 . S
C1242 C1241 1.379 . S
H1243 C1237 0.959 . S
H1244 C1237 0.961 . S
H1245 C1237 0.960 . S
H1246 C1238 0.930 . S
H1247 C1239 0.929 . S
H1248 C1256 0.929 . S
H1249 C1258 0.930 . S
H1250 C1260 0.930 . S
H1251 C1263 0.929 . S
H1252 C1266 0.930 . S
H1253 C1268 0.960 . S
H1254 C1268 0.960 . S
H1255 C1268 0.960 . S
C1256 H1248 0.929 . S
C1256 C1257 1.377 . S
C1256 C1258 1.384 . S
C1257 C1256 1.377 . S
C1257 C1263 1.390 . S
C1258 H1249 0.930 . S
C1258 C1256 1.384 . S
C1258 C1259 1.372 . S
C1259 C1258 1.372 . S
C1259 C1260 1.400 . S
C1259 C1264 1.490 . S
C1260 H1250 0.930 . S
C1260 C1259 1.400 . S
C1260 C1263 1.386 . S
H1261 C1277 0.930 . S
H1262 C1278 0.931 . S
C1263 H1251 0.929 . S
C1263 C1257 1.390 . S
C1263 C1260 1.386 . S
C1264 C1259 1.490 . S
C1264 C1266 1.395 . S
C1264 C1267 1.403 . S
H1265 C1271 0.930 . S
C1266 H1252 0.930 . S
C1266 C1264 1.395 . S
C1266 C1269 1.403 . S
C1267 C1264 1.403 . S
C1267 C1268 1.524 . S
C1267 C1271 1.400 . S
C1268 H1253 0.960 . S
C1268 H1254 0.960 . S
C1268 H1255 0.960 . S
C1268 C1267 1.524 . S
C1269 C1266 1.403 . S
C1269 C1270 1.392 . S
C1269 C1273 1.495 . S
C1270 C1269 1.392 . S
C1270 C1271 1.385 . S
C1270 C1272 1.478 . S
C1271 H1265 0.930 . S
C1271 C1267 1.400 . S
C1271 C1270 1.385 . S
C1272 C1270 1.478 . S
C1272 C1274 1.381 . S
C1272 C1278 1.383 . S
C1273 C1269 1.495 . S
C1273 H1279 0.959 . S
C1273 H1280 0.961 . S
C1273 H1281 0.960 . S
C1274 C1272 1.381 . S
C1274 C1275 1.394 . S
C1274 H1282 0.930 . S
C1275 C1274 1.394 . S
C1275 C1276 1.383 . S
C1275 H1283 0.929 . S
C1276 C1275 1.383 . S
C1276 C1277 1.377 . S
C1277 H1261 0.930 . S
C1277 C1276 1.377 . S
C1277 C1278 1.379 . S
C1278 H1262 0.931 . S
C1278 C1272 1.383 . S
C1278 C1277 1.379 . S
H1279 C1273 0.959 . S
H1280 C1273 0.961 . S
H1281 C1273 0.960 . S
H1282 C1274 0.930 . S
H1283 C1275 0.929 . S
H1284 C1292 0.929 . S
H1285 C1294 0.930 . S
H1286 C1296 0.930 . S
H1287 C1299 0.929 . S
H1288 C1302 0.930 . S
H1289 C1304 0.960 . S
H1290 C1304 0.960 . S
H1291 C1304 0.960 . S
C1292 H1284 0.929 . S
C1292 C1293 1.377 . S
C1292 C1294 1.384 . S
C1293 C1292 1.377 . S
C1293 C1299 1.390 . S
C1294 H1285 0.930 . S
C1294 C1292 1.384 . S
C1294 C1295 1.372 . S
C1295 C1294 1.372 . S
C1295 C1296 1.400 . S
C1295 C1300 1.490 . S
C1296 H1286 0.930 . S
C1296 C1295 1.400 . S
C1296 C1299 1.386 . S
H1297 C1313 0.930 . S
H1298 C1314 0.931 . S
C1299 H1287 0.929 . S
C1299 C1293 1.390 . S
C1299 C1296 1.386 . S
C1300 C1295 1.490 . S
C1300 C1302 1.395 . S
C1300 C1303 1.403 . S
H1301 C1307 0.930 . S
C1302 H1288 0.930 . S
C1302 C1300 1.395 . S
C1302 C1305 1.403 . S
C1303 C1300 1.403 . S
C1303 C1304 1.524 . S
C1303 C1307 1.400 . S
C1304 H1289 0.960 . S
C1304 H1290 0.960 . S
C1304 H1291 0.960 . S
C1304 C1303 1.524 . S
C1305 C1302 1.403 . S
C1305 C1306 1.392 . S
C1305 C1309 1.495 . S
C1306 C1305 1.392 . S
C1306 C1307 1.385 . S
C1306 C1308 1.478 . S
C1307 H1301 0.930 . S
C1307 C1303 1.400 . S
C1307 C1306 1.385 . S
C1308 C1306 1.478 . S
C1308 C1310 1.381 . S
C1308 C1314 1.383 . S
C1309 C1305 1.495 . S
C1309 H1315 0.959 . S
C1309 H1316 0.961 . S
C1309 H1317 0.960 . S
C1310 C1308 1.381 . S
C1310 C1311 1.394 . S
C1310 H1318 0.930 . S
C1311 C1310 1.394 . S
C1311 C1312 1.383 . S
C1311 H1319 0.929 . S
C1312 C1311 1.383 . S
C1312 C1313 1.377 . S
C1313 H1297 0.930 . S
C1313 C1312 1.377 . S
C1313 C1314 1.379 . S
C1314 H1298 0.931 . S
C1314 C1308 1.383 . S
C1314 C1313 1.379 . S
H1315 C1309 0.959 . S
H1316 C1309 0.961 . S
H1317 C1309 0.960 . S
H1318 C1310 0.930 . S
H1319 C1311 0.929 . S
H1320 C1328 0.929 . S
H1321 C1330 0.930 . S
H1322 C1332 0.930 . S
H1323 C1335 0.929 . S
H1324 C1338 0.930 . S
H1325 C1340 0.960 . S
H1326 C1340 0.960 . S
H1327 C1340 0.960 . S
C1328 H1320 0.929 . S
C1328 C1329 1.377 . S
C1328 C1330 1.384 . S
C1329 C1328 1.377 . S
C1329 C1335 1.390 . S
C1330 H1321 0.930 . S
C1330 C1328 1.384 . S
C1330 C1331 1.372 . S
C1331 C1330 1.372 . S
C1331 C1332 1.400 . S
C1331 C1336 1.490 . S
C1332 H1322 0.930 . S
C1332 C1331 1.400 . S
C1332 C1335 1.386 . S
H1333 C1349 0.930 . S
H1334 C1350 0.931 . S
C1335 H1323 0.929 . S
C1335 C1329 1.390 . S
C1335 C1332 1.386 . S
C1336 C1331 1.490 . S
C1336 C1338 1.395 . S
C1336 C1339 1.403 . S
H1337 C1343 0.930 . S
C1338 H1324 0.930 . S
C1338 C1336 1.395 . S
C1338 C1341 1.403 . S
C1339 C1336 1.403 . S
C1339 C1340 1.524 . S
C1339 C1343 1.400 . S
C1340 H1325 0.960 . S
C1340 H1326 0.960 . S
C1340 H1327 0.960 . S
C1340 C1339 1.524 . S
C1341 C1338 1.403 . S
C1341 C1342 1.392 . S
C1341 C1345 1.495 . S
C1342 C1341 1.392 . S
C1342 C1343 1.385 . S
C1342 C1344 1.478 . S
C1343 H1337 0.930 . S
C1343 C1339 1.400 . S
C1343 C1342 1.385 . S
C1344 C1342 1.478 . S
C1344 C1346 1.381 . S
C1344 C1350 1.383 . S
C1345 C1341 1.495 . S
C1345 H1351 0.959 . S
C1345 H1352 0.961 . S
C1345 H1353 0.960 . S
C1346 C1344 1.381 . S
C1346 C1347 1.394 . S
C1346 H1354 0.930 . S
C1347 C1346 1.394 . S
C1347 C1348 1.383 . S
C1347 H1355 0.929 . S
C1348 C1347 1.383 . S
C1348 C1349 1.377 . S
C1349 H1333 0.930 . S
C1349 C1348 1.377 . S
C1349 C1350 1.379 . S
C1350 H1334 0.931 . S
C1350 C1344 1.383 . S
C1350 C1349 1.379 . S
H1351 C1345 0.959 . S
H1352 C1345 0.961 . S
H1353 C1345 0.960 . S
H1354 C1346 0.930 . S
H1355 C1347 0.929 . S
H1356 C1364 0.929 . S
H1357 C1366 0.930 . S
H1358 C1368 0.930 . S
H1359 C1371 0.929 . S
H1360 C1374 0.930 . S
H1361 C1376 0.960 . S
H1362 C1376 0.960 . S
H1363 C1376 0.960 . S
C1364 H1356 0.929 . S
C1364 C1365 1.377 . S
C1364 C1366 1.384 . S
C1365 C1364 1.377 . S
C1365 C1371 1.390 . S
C1366 H1357 0.930 . S
C1366 C1364 1.384 . S
C1366 C1367 1.372 . S
C1367 C1366 1.372 . S
C1367 C1368 1.400 . S
C1367 C1372 1.490 . S
C1368 H1358 0.930 . S
C1368 C1367 1.400 . S
C1368 C1371 1.386 . S
H1369 C1385 0.930 . S
H1370 C1386 0.931 . S
C1371 H1359 0.929 . S
C1371 C1365 1.390 . S
C1371 C1368 1.386 . S
C1372 C1367 1.490 . S
C1372 C1374 1.395 . S
C1372 C1375 1.403 . S
H1373 C1379 0.930 . S
C1374 H1360 0.930 . S
C1374 C1372 1.395 . S
C1374 C1377 1.403 . S
C1375 C1372 1.403 . S
C1375 C1376 1.524 . S
C1375 C1379 1.400 . S
C1376 H1361 0.960 . S
C1376 H1362 0.960 . S
C1376 H1363 0.960 . S
C1376 C1375 1.524 . S
C1377 C1374 1.403 . S
C1377 C1378 1.392 . S
C1377 C1381 1.495 . S
C1378 C1377 1.392 . S
C1378 C1379 1.385 . S
C1378 C1380 1.478 . S
C1379 H1373 0.930 . S
C1379 C1375 1.400 . S
C1379 C1378 1.385 . S
C1380 C1378 1.478 . S
C1380 C1382 1.381 . S
C1380 C1386 1.383 . S
C1381 C1377 1.495 . S
C1381 H1387 0.959 . S
C1381 H1388 0.961 . S
C1381 H1389 0.960 . S
C1382 C1380 1.381 . S
C1382 C1383 1.394 . S
C1382 H1390 0.930 . S
C1383 C1382 1.394 . S
C1383 C1384 1.383 . S
C1383 H1391 0.929 . S
C1384 C1383 1.383 . S
C1384 C1385 1.377 . S
C1385 H1369 0.930 . S
C1385 C1384 1.377 . S
C1385 C1386 1.379 . S
C1386 H1370 0.931 . S
C1386 C1380 1.383 . S
C1386 C1385 1.379 . S
H1387 C1381 0.959 . S
H1388 C1381 0.961 . S
H1389 C1381 0.960 . S
H1390 C1382 0.930 . S
H1391 C1383 0.929 . S
H1392 C1400 0.929 . S
H1393 C1402 0.930 . S
H1394 C1404 0.930 . S
H1395 C1407 0.929 . S
H1396 C1410 0.930 . S
H1397 C1412 0.960 . S
H1398 C1412 0.960 . S
H1399 C1412 0.960 . S
C1400 H1392 0.929 . S
C1400 C1401 1.377 . S
C1400 C1402 1.384 . S
C1401 C1400 1.377 . S
C1401 C1407 1.390 . S
C1402 H1393 0.930 . S
C1402 C1400 1.384 . S
C1402 C1403 1.372 . S
C1403 C1402 1.372 . S
C1403 C1404 1.400 . S
C1403 C1408 1.490 . S
C1404 H1394 0.930 . S
C1404 C1403 1.400 . S
C1404 C1407 1.386 . S
H1405 C1421 0.930 . S
H1406 C1422 0.931 . S
C1407 H1395 0.929 . S
C1407 C1401 1.390 . S
C1407 C1404 1.386 . S
C1408 C1403 1.490 . S
C1408 C1410 1.395 . S
C1408 C1411 1.403 . S
H1409 C1415 0.930 . S
C1410 H1396 0.930 . S
C1410 C1408 1.395 . S
C1410 C1413 1.403 . S
C1411 C1408 1.403 . S
C1411 C1412 1.524 . S
C1411 C1415 1.400 . S
C1412 H1397 0.960 . S
C1412 H1398 0.960 . S
C1412 H1399 0.960 . S
C1412 C1411 1.524 . S
C1413 C1410 1.403 . S
C1413 C1414 1.392 . S
C1413 C1417 1.495 . S
C1414 C1413 1.392 . S
C1414 C1415 1.385 . S
C1414 C1416 1.478 . S
C1415 H1409 0.930 . S
C1415 C1411 1.400 . S
C1415 C1414 1.385 . S
C1416 C1414 1.478 . S
C1416 C1418 1.381 . S
C1416 C1422 1.383 . S
C1417 C1413 1.495 . S
C1417 H1423 0.959 . S
C1417 H1424 0.961 . S
C1417 H1425 0.960 . S
C1418 C1416 1.381 . S
C1418 C1419 1.394 . S
C1418 H1426 0.930 . S
C1419 C1418 1.394 . S
C1419 C1420 1.383 . S
C1419 H1427 0.929 . S
C1420 C1419 1.383 . S
C1420 C1421 1.377 . S
C1421 H1405 0.930 . S
C1421 C1420 1.377 . S
C1421 C1422 1.379 . S
C1422 H1406 0.931 . S
C1422 C1416 1.383 . S
C1422 C1421 1.379 . S
H1423 C1417 0.959 . S
H1424 C1417 0.961 . S
H1425 C1417 0.960 . S
H1426 C1418 0.930 . S
H1427 C1419 0.929 . S
H1428 C1436 0.929 . S
H1429 C1438 0.930 . S
H1430 C1440 0.930 . S
H1431 C1443 0.929 . S
H1432 C1446 0.930 . S
H1433 C1448 0.960 . S
H1434 C1448 0.960 . S
H1435 C1448 0.960 . S
C1436 H1428 0.929 . S
C1436 C1437 1.377 . S
C1436 C1438 1.384 . S
C1437 C1436 1.377 . S
C1437 C1443 1.390 . S
C1438 H1429 0.930 . S
C1438 C1436 1.384 . S
C1438 C1439 1.372 . S
C1439 C1438 1.372 . S
C1439 C1440 1.400 . S
C1439 C1444 1.490 . S
C1440 H1430 0.930 . S
C1440 C1439 1.400 . S
C1440 C1443 1.386 . S
H1441 C1457 0.930 . S
H1442 C1458 0.931 . S
C1443 H1431 0.929 . S
C1443 C1437 1.390 . S
C1443 C1440 1.386 . S
C1444 C1439 1.490 . S
C1444 C1446 1.395 . S
C1444 C1447 1.403 . S
H1445 C1451 0.930 . S
C1446 H1432 0.930 . S
C1446 C1444 1.395 . S
C1446 C1449 1.403 . S
C1447 C1444 1.403 . S
C1447 C1448 1.524 . S
C1447 C1451 1.400 . S
C1448 H1433 0.960 . S
C1448 H1434 0.960 . S
C1448 H1435 0.960 . S
C1448 C1447 1.524 . S
C1449 C1446 1.403 . S
C1449 C1450 1.392 . S
C1449 C1453 1.495 . S
C1450 C1449 1.392 . S
C1450 C1451 1.385 . S
C1450 C1452 1.478 . S
C1451 H1445 0.930 . S
C1451 C1447 1.400 . S
C1451 C1450 1.385 . S
C1452 C1450 1.478 . S
C1452 C1454 1.381 . S
C1452 C1458 1.383 . S
C1453 C1449 1.495 . S
C1453 H1459 0.959 . S
C1453 H1460 0.961 . S
C1453 H1461 0.960 . S
C1454 C1452 1.381 . S
C1454 C1455 1.394 . S
C1454 H1462 0.930 . S
C1455 C1454 1.394 . S
C1455 C1456 1.383 . S
C1455 H1463 0.929 . S
C1456 C1455 1.383 . S
C1456 C1457 1.377 . S
C1457 H1441 0.930 . S
C1457 C1456 1.377 . S
C1457 C1458 1.379 . S
C1458 H1442 0.931 . S
C1458 C1452 1.383 . S
C1458 C1457 1.379 . S
H1459 C1453 0.959 . S
H1460 C1453 0.961 . S
H1461 C1453 0.960 . S
H1462 C1454 0.930 . S
H1463 C1455 0.929 . S
H1464 C1472 0.929 . S
H1465 C1474 0.930 . S
H1466 C1476 0.930 . S
H1467 C1479 0.929 . S
H1468 C1482 0.930 . S
H1469 C1484 0.960 . S
H1470 C1484 0.960 . S
H1471 C1484 0.960 . S
C1472 H1464 0.929 . S
C1472 C1473 1.377 . S
C1472 C1474 1.384 . S
C1473 C1472 1.377 . S
C1473 C1479 1.390 . S
C1474 H1465 0.930 . S
C1474 C1472 1.384 . S
C1474 C1475 1.372 . S
C1475 C1474 1.372 . S
C1475 C1476 1.400 . S
C1475 C1480 1.490 . S
C1476 H1466 0.930 . S
C1476 C1475 1.400 . S
C1476 C1479 1.386 . S
H1477 C1493 0.930 . S
H1478 C1494 0.931 . S
C1479 H1467 0.929 . S
C1479 C1473 1.390 . S
C1479 C1476 1.386 . S
C1480 C1475 1.490 . S
C1480 C1482 1.395 . S
C1480 C1483 1.403 . S
H1481 C1487 0.930 . S
C1482 H1468 0.930 . S
C1482 C1480 1.395 . S
C1482 C1485 1.403 . S
C1483 C1480 1.403 . S
C1483 C1484 1.524 . S
C1483 C1487 1.400 . S
C1484 H1469 0.960 . S
C1484 H1470 0.960 . S
C1484 H1471 0.960 . S
C1484 C1483 1.524 . S
C1485 C1482 1.403 . S
C1485 C1486 1.392 . S
C1485 C1489 1.495 . S
C1486 C1485 1.392 . S
C1486 C1487 1.385 . S
C1486 C1488 1.478 . S
C1487 H1481 0.930 . S
C1487 C1483 1.400 . S
C1487 C1486 1.385 . S
C1488 C1486 1.478 . S
C1488 C1490 1.381 . S
C1488 C1494 1.383 . S
C1489 C1485 1.495 . S
C1489 H1495 0.959 . S
C1489 H1496 0.961 . S
C1489 H1497 0.960 . S
C1490 C1488 1.381 . S
C1490 C1491 1.394 . S
C1490 H1498 0.930 . S
C1491 C1490 1.394 . S
C1491 C1492 1.383 . S
C1491 H1499 0.929 . S
C1492 C1491 1.383 . S
C1492 C1493 1.377 . S
C1493 H1477 0.930 . S
C1493 C1492 1.377 . S
C1493 C1494 1.379 . S
C1494 H1478 0.931 . S
C1494 C1488 1.383 . S
C1494 C1493 1.379 . S
H1495 C1489 0.959 . S
H1496 C1489 0.961 . S
H1497 C1489 0.960 . S
H1498 C1490 0.930 . S
H1499 C1491 0.929 . S
H1500 C1508 0.929 . S
H1501 C1510 0.930 . S
H1502 C1512 0.930 . S
H1503 C1515 0.929 . S
H1504 C1518 0.930 . S
H1505 C1520 0.960 . S
H1506 C1520 0.960 . S
H1507 C1520 0.960 . S
C1508 H1500 0.929 . S
C1508 C1509 1.377 . S
C1508 C1510 1.384 . S
C1509 C1508 1.377 . S
C1509 C1515 1.390 . S
C1510 H1501 0.930 . S
C1510 C1508 1.384 . S
C1510 C1511 1.372 . S
C1511 C1510 1.372 . S
C1511 C1512 1.400 . S
C1511 C1516 1.490 . S
C1512 H1502 0.930 . S
C1512 C1511 1.400 . S
C1512 C1515 1.386 . S
H1513 C1529 0.930 . S
H1514 C1530 0.931 . S
C1515 H1503 0.929 . S
C1515 C1509 1.390 . S
C1515 C1512 1.386 . S
C1516 C1511 1.490 . S
C1516 C1518 1.395 . S
C1516 C1519 1.403 . S
H1517 C1523 0.930 . S
C1518 H1504 0.930 . S
C1518 C1516 1.395 . S
C1518 C1521 1.403 . S
C1519 C1516 1.403 . S
C1519 C1520 1.524 . S
C1519 C1523 1.400 . S
C1520 H1505 0.960 . S
C1520 H1506 0.960 . S
C1520 H1507 0.960 . S
C1520 C1519 1.524 . S
C1521 C1518 1.403 . S
C1521 C1522 1.392 . S
C1521 C1525 1.495 . S
C1522 C1521 1.392 . S
C1522 C1523 1.385 . S
C1522 C1524 1.478 . S
C1523 H1517 0.930 . S
C1523 C1519 1.400 . S
C1523 C1522 1.385 . S
C1524 C1522 1.478 . S
C1524 C1526 1.381 . S
C1524 C1530 1.383 . S
C1525 C1521 1.495 . S
C1525 H1531 0.959 . S
C1525 H1532 0.961 . S
C1525 H1533 0.960 . S
C1526 C1524 1.381 . S
C1526 C1527 1.394 . S
C1526 H1534 0.930 . S
C1527 C1526 1.394 . S
C1527 C1528 1.383 . S
C1527 H1535 0.929 . S
C1528 C1527 1.383 . S
C1528 C1529 1.377 . S
C1529 H1513 0.930 . S
C1529 C1528 1.377 . S
C1529 C1530 1.379 . S
C1530 H1514 0.931 . S
C1530 C1524 1.383 . S
C1530 C1529 1.379 . S
H1531 C1525 0.959 . S
H1532 C1525 0.961 . S
H1533 C1525 0.960 . S
H1534 C1526 0.930 . S
H1535 C1527 0.929 . S
H1536 C1544 0.929 . S
H1537 C1546 0.930 . S
H1538 C1548 0.930 . S
H1539 C1551 0.929 . S
H1540 C1554 0.930 . S
H1541 C1556 0.960 . S
H1542 C1556 0.960 . S
H1543 C1556 0.960 . S
C1544 H1536 0.929 . S
C1544 C1545 1.377 . S
C1544 C1546 1.384 . S
C1545 C1544 1.377 . S
C1545 C1551 1.390 . S
C1546 H1537 0.930 . S
C1546 C1544 1.384 . S
C1546 C1547 1.372 . S
C1547 C1546 1.372 . S
C1547 C1548 1.400 . S
C1547 C1552 1.490 . S
C1548 H1538 0.930 . S
C1548 C1547 1.400 . S
C1548 C1551 1.386 . S
H1549 C1565 0.930 . S
H1550 C1566 0.931 . S
C1551 H1539 0.929 . S
C1551 C1545 1.390 . S
C1551 C1548 1.386 . S
C1552 C1547 1.490 . S
C1552 C1554 1.395 . S
C1552 C1555 1.403 . S
H1553 C1559 0.930 . S
C1554 H1540 0.930 . S
C1554 C1552 1.395 . S
C1554 C1557 1.403 . S
C1555 C1552 1.403 . S
C1555 C1556 1.524 . S
C1555 C1559 1.400 . S
C1556 H1541 0.960 . S
C1556 H1542 0.960 . S
C1556 H1543 0.960 . S
C1556 C1555 1.524 . S
C1557 C1554 1.403 . S
C1557 C1558 1.392 . S
C1557 C1561 1.495 . S
C1558 C1557 1.392 . S
C1558 C1559 1.385 . S
C1558 C1560 1.478 . S
C1559 H1553 0.930 . S
C1559 C1555 1.400 . S
C1559 C1558 1.385 . S
C1560 C1558 1.478 . S
C1560 C1562 1.381 . S
C1560 C1566 1.383 . S
C1561 C1557 1.495 . S
C1561 H1567 0.959 . S
C1561 H1568 0.961 . S
C1561 H1569 0.960 . S
C1562 C1560 1.381 . S
C1562 C1563 1.394 . S
C1562 H1570 0.930 . S
C1563 C1562 1.394 . S
C1563 C1564 1.383 . S
C1563 H1571 0.929 . S
C1564 C1563 1.383 . S
C1564 C1565 1.377 . S
C1565 H1549 0.930 . S
C1565 C1564 1.377 . S
C1565 C1566 1.379 . S
C1566 H1550 0.931 . S
C1566 C1560 1.383 . S
C1566 C1565 1.379 . S
H1567 C1561 0.959 . S
H1568 C1561 0.961 . S
H1569 C1561 0.960 . S
H1570 C1562 0.930 . S
H1571 C1563 0.929 . S
H1572 C1580 0.929 . S
H1573 C1582 0.930 . S
H1574 C1584 0.930 . S
H1575 C1587 0.929 . S
H1576 C1590 0.930 . S
H1577 C1592 0.960 . S
H1578 C1592 0.960 . S
H1579 C1592 0.960 . S
C1580 H1572 0.929 . S
C1580 C1581 1.377 . S
C1580 C1582 1.384 . S
C1581 C1580 1.377 . S
C1581 C1587 1.390 . S
C1582 H1573 0.930 . S
C1582 C1580 1.384 . S
C1582 C1583 1.372 . S
C1583 C1582 1.372 . S
C1583 C1584 1.400 . S
C1583 C1588 1.490 . S
C1584 H1574 0.930 . S
C1584 C1583 1.400 . S
C1584 C1587 1.386 . S
H1585 C1601 0.930 . S
H1586 C1602 0.931 . S
C1587 H1575 0.929 . S
C1587 C1581 1.390 . S
C1587 C1584 1.386 . S
C1588 C1583 1.490 . S
C1588 C1590 1.395 . S
C1588 C1591 1.403 . S
H1589 C1595 0.930 . S
C1590 H1576 0.930 . S
C1590 C1588 1.395 . S
C1590 C1593 1.403 . S
C1591 C1588 1.403 . S
C1591 C1592 1.524 . S
C1591 C1595 1.400 . S
C1592 H1577 0.960 . S
C1592 H1578 0.960 . S
C1592 H1579 0.960 . S
C1592 C1591 1.524 . S
C1593 C1590 1.403 . S
C1593 C1594 1.392 . S
C1593 C1597 1.495 . S
C1594 C1593 1.392 . S
C1594 C1595 1.385 . S
C1594 C1596 1.478 . S
C1595 H1589 0.930 . S
C1595 C1591 1.400 . S
C1595 C1594 1.385 . S
C1596 C1594 1.478 . S
C1596 C1598 1.381 . S
C1596 C1602 1.383 . S
C1597 C1593 1.495 . S
C1597 H1603 0.959 . S
C1597 H1604 0.961 . S
C1597 H1605 0.960 . S
C1598 C1596 1.381 . S
C1598 C1599 1.394 . S
C1598 H1606 0.930 . S
C1599 C1598 1.394 . S
C1599 C1600 1.383 . S
C1599 H1607 0.929 . S
C1600 C1599 1.383 . S
C1600 C1601 1.377 . S
C1601 H1585 0.930 . S
C1601 C1600 1.377 . S
C1601 C1602 1.379 . S
C1602 H1586 0.931 . S
C1602 C1596 1.383 . S
C1602 C1601 1.379 . S
H1603 C1597 0.959 . S
H1604 C1597 0.961 . S
H1605 C1597 0.960 . S
H1606 C1598 0.930 . S
H1607 C1599 0.929 . S
H1608 C1616 0.929 . S
H1609 C1618 0.930 . S
H1610 C1620 0.930 . S
H1611 C1623 0.929 . S
H1612 C1626 0.930 . S
H1613 C1628 0.960 . S
H1614 C1628 0.960 . S
H1615 C1628 0.960 . S
C1616 H1608 0.929 . S
C1616 C1617 1.377 . S
C1616 C1618 1.384 . S
C1617 C1616 1.377 . S
C1617 C1623 1.390 . S
C1618 H1609 0.930 . S
C1618 C1616 1.384 . S
C1618 C1619 1.372 . S
C1619 C1618 1.372 . S
C1619 C1620 1.400 . S
C1619 C1624 1.490 . S
C1620 H1610 0.930 . S
C1620 C1619 1.400 . S
C1620 C1623 1.386 . S
H1621 C1637 0.930 . S
H1622 C1638 0.931 . S
C1623 H1611 0.929 . S
C1623 C1617 1.390 . S
C1623 C1620 1.386 . S
C1624 C1619 1.490 . S
C1624 C1626 1.395 . S
C1624 C1627 1.403 . S
H1625 C1631 0.930 . S
C1626 H1612 0.930 . S
C1626 C1624 1.395 . S
C1626 C1629 1.403 . S
C1627 C1624 1.403 . S
C1627 C1628 1.524 . S
C1627 C1631 1.400 . S
C1628 H1613 0.960 . S
C1628 H1614 0.960 . S
C1628 H1615 0.960 . S
C1628 C1627 1.524 . S
C1629 C1626 1.403 . S
C1629 C1630 1.392 . S
C1629 C1633 1.495 . S
C1630 C1629 1.392 . S
C1630 C1631 1.385 . S
C1630 C1632 1.478 . S
C1631 H1625 0.930 . S
C1631 C1627 1.400 . S
C1631 C1630 1.385 . S
C1632 C1630 1.478 . S
C1632 C1634 1.381 . S
C1632 C1638 1.383 . S
C1633 C1629 1.495 . S
C1633 H1639 0.959 . S
C1633 H1640 0.961 . S
C1633 H1641 0.960 . S
C1634 C1632 1.381 . S
C1634 C1635 1.394 . S
C1634 H1642 0.930 . S
C1635 C1634 1.394 . S
C1635 C1636 1.383 . S
C1635 H1643 0.929 . S
C1636 C1635 1.383 . S
C1636 C1637 1.377 . S
C1637 H1621 0.930 . S
C1637 C1636 1.377 . S
C1637 C1638 1.379 . S
C1638 H1622 0.931 . S
C1638 C1632 1.383 . S
C1638 C1637 1.379 . S
H1639 C1633 0.959 . S
H1640 C1633 0.961 . S
H1641 C1633 0.960 . S
H1642 C1634 0.930 . S
H1643 C1635 0.929 . S
H1644 C1652 0.929 . S
H1645 C1654 0.930 . S
H1646 C1656 0.930 . S
H1647 C1659 0.929 . S
H1648 C1662 0.930 . S
H1649 C1664 0.960 . S
H1650 C1664 0.960 . S
H1651 C1664 0.960 . S
C1652 H1644 0.929 . S
C1652 C1653 1.377 . S
C1652 C1654 1.384 . S
C1653 C1652 1.377 . S
C1653 C1659 1.390 . S
C1654 H1645 0.930 . S
C1654 C1652 1.384 . S
C1654 C1655 1.372 . S
C1655 C1654 1.372 . S
C1655 C1656 1.400 . S
C1655 C1660 1.490 . S
C1656 H1646 0.930 . S
C1656 C1655 1.400 . S
C1656 C1659 1.386 . S
H1657 C1673 0.930 . S
H1658 C1674 0.931 . S
C1659 H1647 0.929 . S
C1659 C1653 1.390 . S
C1659 C1656 1.386 . S
C1660 C1655 1.490 . S
C1660 C1662 1.395 . S
C1660 C1663 1.403 . S
H1661 C1667 0.930 . S
C1662 H1648 0.930 . S
C1662 C1660 1.395 . S
C1662 C1665 1.403 . S
C1663 C1660 1.403 . S
C1663 C1664 1.524 . S
C1663 C1667 1.400 . S
C1664 H1649 0.960 . S
C1664 H1650 0.960 . S
C1664 H1651 0.960 . S
C1664 C1663 1.524 . S
C1665 C1662 1.403 . S
C1665 C1666 1.392 . S
C1665 C1669 1.495 . S
C1666 C1665 1.392 . S
C1666 C1667 1.385 . S
C1666 C1668 1.478 . S
C1667 H1661 0.930 . S
C1667 C1663 1.400 . S
C1667 C1666 1.385 . S
C1668 C1666 1.478 . S
C1668 C1670 1.381 . S
C1668 C1674 1.383 . S
C1669 C1665 1.495 . S
C1669 H1675 0.959 . S
C1669 H1676 0.961 . S
C1669 H1677 0.960 . S
C1670 C1668 1.381 . S
C1670 C1671 1.394 . S
C1670 H1678 0.930 . S
C1671 C1670 1.394 . S
C1671 C1672 1.383 . S
C1671 H1679 0.929 . S
C1672 C1671 1.383 . S
C1672 C1673 1.377 . S
C1673 H1657 0.930 . S
C1673 C1672 1.377 . S
C1673 C1674 1.379 . S
C1674 H1658 0.931 . S
C1674 C1668 1.383 . S
C1674 C1673 1.379 . S
H1675 C1669 0.959 . S
H1676 C1669 0.961 . S
H1677 C1669 0.960 . S
H1678 C1670 0.930 . S
H1679 C1671 0.929 . S
H1680 C1688 0.929 . S
H1681 C1690 0.930 . S
H1682 C1692 0.930 . S
H1683 C1695 0.929 . S
H1684 C1698 0.930 . S
H1685 C1700 0.960 . S
H1686 C1700 0.960 . S
H1687 C1700 0.960 . S
C1688 H1680 0.929 . S
C1688 C1689 1.377 . S
C1688 C1690 1.384 . S
C1689 C1688 1.377 . S
C1689 C1695 1.390 . S
C1690 H1681 0.930 . S
C1690 C1688 1.384 . S
C1690 C1691 1.372 . S
C1691 C1690 1.372 . S
C1691 C1692 1.400 . S
C1691 C1696 1.490 . S
C1692 H1682 0.930 . S
C1692 C1691 1.400 . S
C1692 C1695 1.386 . S
H1693 C1709 0.930 . S
H1694 C1710 0.931 . S
C1695 H1683 0.929 . S
C1695 C1689 1.390 . S
C1695 C1692 1.386 . S
C1696 C1691 1.490 . S
C1696 C1698 1.395 . S
C1696 C1699 1.403 . S
H1697 C1703 0.930 . S
C1698 H1684 0.930 . S
C1698 C1696 1.395 . S
C1698 C1701 1.403 . S
C1699 C1696 1.403 . S
C1699 C1700 1.524 . S
C1699 C1703 1.400 . S
C1700 H1685 0.960 . S
C1700 H1686 0.960 . S
C1700 H1687 0.960 . S
C1700 C1699 1.524 . S
C1701 C1698 1.403 . S
C1701 C1702 1.392 . S
C1701 C1705 1.495 . S
C1702 C1701 1.392 . S
C1702 C1703 1.385 . S
C1702 C1704 1.478 . S
C1703 H1697 0.930 . S
C1703 C1699 1.400 . S
C1703 C1702 1.385 . S
C1704 C1702 1.478 . S
C1704 C1706 1.381 . S
C1704 C1710 1.383 . S
C1705 C1701 1.495 . S
C1705 H1711 0.959 . S
C1705 H1712 0.961 . S
C1705 H1713 0.960 . S
C1706 C1704 1.381 . S
C1706 C1707 1.394 . S
C1706 H1714 0.930 . S
C1707 C1706 1.394 . S
C1707 C1708 1.383 . S
C1707 H1715 0.929 . S
C1708 C1707 1.383 . S
C1708 C1709 1.377 . S
C1709 H1693 0.930 . S
C1709 C1708 1.377 . S
C1709 C1710 1.379 . S
C1710 H1694 0.931 . S
C1710 C1704 1.383 . S
C1710 C1709 1.379 . S
H1711 C1705 0.959 . S
H1712 C1705 0.961 . S
H1713 C1705 0.960 . S
H1714 C1706 0.930 . S
H1715 C1707 0.929 . S
H1716 C1724 0.929 . S
H1717 C1726 0.930 . S
H1718 C1728 0.930 . S
H1719 C1731 0.929 . S
H1720 C1734 0.930 . S
H1721 C1736 0.960 . S
H1722 C1736 0.960 . S
H1723 C1736 0.960 . S
C1724 H1716 0.929 . S
C1724 C1725 1.377 . S
C1724 C1726 1.384 . S
C1725 C1724 1.377 . S
C1725 C1731 1.390 . S
C1726 H1717 0.930 . S
C1726 C1724 1.384 . S
C1726 C1727 1.372 . S
C1727 C1726 1.372 . S
C1727 C1728 1.400 . S
C1727 C1732 1.490 . S
C1728 H1718 0.930 . S
C1728 C1727 1.400 . S
C1728 C1731 1.386 . S
H1729 C1745 0.930 . S
H1730 C1746 0.931 . S
C1731 H1719 0.929 . S
C1731 C1725 1.390 . S
C1731 C1728 1.386 . S
C1732 C1727 1.490 . S
C1732 C1734 1.395 . S
C1732 C1735 1.403 . S
H1733 C1739 0.930 . S
C1734 H1720 0.930 . S
C1734 C1732 1.395 . S
C1734 C1737 1.403 . S
C1735 C1732 1.403 . S
C1735 C1736 1.524 . S
C1735 C1739 1.400 . S
C1736 H1721 0.960 . S
C1736 H1722 0.960 . S
C1736 H1723 0.960 . S
C1736 C1735 1.524 . S
C1737 C1734 1.403 . S
C1737 C1738 1.392 . S
C1737 C1741 1.495 . S
C1738 C1737 1.392 . S
C1738 C1739 1.385 . S
C1738 C1740 1.478 . S
C1739 H1733 0.930 . S
C1739 C1735 1.400 . S
C1739 C1738 1.385 . S
C1740 C1738 1.478 . S
C1740 C1742 1.381 . S
C1740 C1746 1.383 . S
C1741 C1737 1.495 . S
C1741 H1747 0.959 . S
C1741 H1748 0.961 . S
C1741 H1749 0.960 . S
C1742 C1740 1.381 . S
C1742 C1743 1.394 . S
C1742 H1750 0.930 . S
C1743 C1742 1.394 . S
C1743 C1744 1.383 . S
C1743 H1751 0.929 . S
C1744 C1743 1.383 . S
C1744 C1745 1.377 . S
C1745 H1729 0.930 . S
C1745 C1744 1.377 . S
C1745 C1746 1.379 . S
C1746 H1730 0.931 . S
C1746 C1740 1.383 . S
C1746 C1745 1.379 . S
H1747 C1741 0.959 . S
H1748 C1741 0.961 . S
H1749 C1741 0.960 . S
H1750 C1742 0.930 . S
H1751 C1743 0.929 . S
H1752 C1760 0.929 . S
H1753 C1762 0.930 . S
H1754 C1764 0.930 . S
H1755 C1767 0.929 . S
H1756 C1770 0.930 . S
H1757 C1772 0.960 . S
H1758 C1772 0.960 . S
H1759 C1772 0.960 . S
C1760 H1752 0.929 . S
C1760 C1761 1.377 . S
C1760 C1762 1.384 . S
C1761 C1760 1.377 . S
C1761 C1767 1.390 . S
C1762 H1753 0.930 . S
C1762 C1760 1.384 . S
C1762 C1763 1.372 . S
C1763 C1762 1.372 . S
C1763 C1764 1.400 . S
C1763 C1768 1.490 . S
C1764 H1754 0.930 . S
C1764 C1763 1.400 . S
C1764 C1767 1.386 . S
H1765 C1781 0.930 . S
H1766 C1782 0.931 . S
C1767 H1755 0.929 . S
C1767 C1761 1.390 . S
C1767 C1764 1.386 . S
C1768 C1763 1.490 . S
C1768 C1770 1.395 . S
C1768 C1771 1.403 . S
H1769 C1775 0.930 . S
C1770 H1756 0.930 . S
C1770 C1768 1.395 . S
C1770 C1773 1.403 . S
C1771 C1768 1.403 . S
C1771 C1772 1.524 . S
C1771 C1775 1.400 . S
C1772 H1757 0.960 . S
C1772 H1758 0.960 . S
C1772 H1759 0.960 . S
C1772 C1771 1.524 . S
C1773 C1770 1.403 . S
C1773 C1774 1.392 . S
C1773 C1777 1.495 . S
C1774 C1773 1.392 . S
C1774 C1775 1.385 . S
C1774 C1776 1.478 . S
C1775 H1769 0.930 . S
C1775 C1771 1.400 . S
C1775 C1774 1.385 . S
C1776 C1774 1.478 . S
C1776 C1778 1.381 . S
C1776 C1782 1.383 . S
C1777 C1773 1.495 . S
C1777 H1783 0.959 . S
C1777 H1784 0.961 . S
C1777 H1785 0.960 . S
C1778 C1776 1.381 . S
C1778 C1779 1.394 . S
C1778 H1786 0.930 . S
C1779 C1778 1.394 . S
C1779 C1780 1.383 . S
C1779 H1787 0.929 . S
C1780 C1779 1.383 . S
C1780 C1781 1.377 . S
C1781 H1765 0.930 . S
C1781 C1780 1.377 . S
C1781 C1782 1.379 . S
C1782 H1766 0.931 . S
C1782 C1776 1.383 . S
C1782 C1781 1.379 . S
H1783 C1777 0.959 . S
H1784 C1777 0.961 . S
H1785 C1777 0.960 . S
H1786 C1778 0.930 . S
H1787 C1779 0.929 . S
H1788 C1796 0.929 . S
H1789 C1798 0.930 . S
H1790 C1800 0.930 . S
H1791 C1803 0.929 . S
H1792 C1806 0.930 . S
H1793 C1808 0.960 . S
H1794 C1808 0.960 . S
H1795 C1808 0.960 . S
C1796 H1788 0.929 . S
C1796 C1797 1.377 . S
C1796 C1798 1.384 . S
C1797 C1796 1.377 . S
C1797 C1803 1.390 . S
C1798 H1789 0.930 . S
C1798 C1796 1.384 . S
C1798 C1799 1.372 . S
C1799 C1798 1.372 . S
C1799 C1800 1.400 . S
C1799 C1804 1.490 . S
C1800 H1790 0.930 . S
C1800 C1799 1.400 . S
C1800 C1803 1.386 . S
H1801 C1817 0.930 . S
H1802 C1818 0.931 . S
C1803 H1791 0.929 . S
C1803 C1797 1.390 . S
C1803 C1800 1.386 . S
C1804 C1799 1.490 . S
C1804 C1806 1.395 . S
C1804 C1807 1.403 . S
H1805 C1811 0.930 . S
C1806 H1792 0.930 . S
C1806 C1804 1.395 . S
C1806 C1809 1.403 . S
C1807 C1804 1.403 . S
C1807 C1808 1.524 . S
C1807 C1811 1.400 . S
C1808 H1793 0.960 . S
C1808 H1794 0.960 . S
C1808 H1795 0.960 . S
C1808 C1807 1.524 . S
C1809 C1806 1.403 . S
C1809 C1810 1.392 . S
C1809 C1813 1.495 . S
C1810 C1809 1.392 . S
C1810 C1811 1.385 . S
C1810 C1812 1.478 . S
C1811 H1805 0.930 . S
C1811 C1807 1.400 . S
C1811 C1810 1.385 . S
C1812 C1810 1.478 . S
C1812 C1814 1.381 . S
C1812 C1818 1.383 . S
C1813 C1809 1.495 . S
C1813 H1819 0.959 . S
C1813 H1820 0.961 . S
C1813 H1821 0.960 . S
C1814 C1812 1.381 . S
C1814 C1815 1.394 . S
C1814 H1822 0.930 . S
C1815 C1814 1.394 . S
C1815 C1816 1.383 . S
C1815 H1823 0.929 . S
C1816 C1815 1.383 . S
C1816 C1817 1.377 . S
C1817 H1801 0.930 . S
C1817 C1816 1.377 . S
C1817 C1818 1.379 . S
C1818 H1802 0.931 . S
C1818 C1812 1.383 . S
C1818 C1817 1.379 . S
H1819 C1813 0.959 . S
H1820 C1813 0.961 . S
H1821 C1813 0.960 . S
H1822 C1814 0.930 . S
H1823 C1815 0.929 . S
H1824 C1832 0.929 . S
H1825 C1834 0.930 . S
H1826 C1836 0.930 . S
H1827 C1839 0.929 . S
H1828 C1842 0.930 . S
H1829 C1844 0.960 . S
H1830 C1844 0.960 . S
H1831 C1844 0.960 . S
C1832 H1824 0.929 . S
C1832 C1833 1.377 . S
C1832 C1834 1.384 . S
C1833 C1832 1.377 . S
C1833 C1839 1.390 . S
C1834 H1825 0.930 . S
C1834 C1832 1.384 . S
C1834 C1835 1.372 . S
C1835 C1834 1.372 . S
C1835 C1836 1.400 . S
C1835 C1840 1.490 . S
C1836 H1826 0.930 . S
C1836 C1835 1.400 . S
C1836 C1839 1.386 . S
H1837 C1853 0.930 . S
H1838 C1854 0.931 . S
C1839 H1827 0.929 . S
C1839 C1833 1.390 . S
C1839 C1836 1.386 . S
C1840 C1835 1.490 . S
C1840 C1842 1.395 . S
C1840 C1843 1.403 . S
H1841 C1847 0.930 . S
C1842 H1828 0.930 . S
C1842 C1840 1.395 . S
C1842 C1845 1.403 . S
C1843 C1840 1.403 . S
C1843 C1844 1.524 . S
C1843 C1847 1.400 . S
C1844 H1829 0.960 . S
C1844 H1830 0.960 . S
C1844 H1831 0.960 . S
C1844 C1843 1.524 . S
C1845 C1842 1.403 . S
C1845 C1846 1.392 . S
C1845 C1849 1.495 . S
C1846 C1845 1.392 . S
C1846 C1847 1.385 . S
C1846 C1848 1.478 . S
C1847 H1841 0.930 . S
C1847 C1843 1.400 . S
C1847 C1846 1.385 . S
C1848 C1846 1.478 . S
C1848 C1850 1.381 . S
C1848 C1854 1.383 . S
C1849 C1845 1.495 . S
C1849 H1855 0.959 . S
C1849 H1856 0.961 . S
C1849 H1857 0.960 . S
C1850 C1848 1.381 . S
C1850 C1851 1.394 . S
C1850 H1858 0.930 . S
C1851 C1850 1.394 . S
C1851 C1852 1.383 . S
C1851 H1859 0.929 . S
C1852 C1851 1.383 . S
C1852 C1853 1.377 . S
C1853 H1837 0.930 . S
C1853 C1852 1.377 . S
C1853 C1854 1.379 . S
C1854 H1838 0.931 . S
C1854 C1848 1.383 . S
C1854 C1853 1.379 . S
H1855 C1849 0.959 . S
H1856 C1849 0.961 . S
H1857 C1849 0.960 . S
H1858 C1850 0.930 . S
H1859 C1851 0.929 . S
H1860 C1868 0.929 . S
H1861 C1870 0.930 . S
H1862 C1872 0.930 . S
H1863 C1875 0.929 . S
H1864 C1878 0.930 . S
H1865 C1880 0.960 . S
H1866 C1880 0.960 . S
H1867 C1880 0.960 . S
C1868 H1860 0.929 . S
C1868 C1869 1.377 . S
C1868 C1870 1.384 . S
C1869 C1868 1.377 . S
C1869 C1875 1.390 . S
C1870 H1861 0.930 . S
C1870 C1868 1.384 . S
C1870 C1871 1.372 . S
C1871 C1870 1.372 . S
C1871 C1872 1.400 . S
C1871 C1876 1.490 . S
C1872 H1862 0.930 . S
C1872 C1871 1.400 . S
C1872 C1875 1.386 . S
H1873 C1889 0.930 . S
H1874 C1890 0.931 . S
C1875 H1863 0.929 . S
C1875 C1869 1.390 . S
C1875 C1872 1.386 . S
C1876 C1871 1.490 . S
C1876 C1878 1.395 . S
C1876 C1879 1.403 . S
H1877 C1883 0.930 . S
C1878 H1864 0.930 . S
C1878 C1876 1.395 . S
C1878 C1881 1.403 . S
C1879 C1876 1.403 . S
C1879 C1880 1.524 . S
C1879 C1883 1.400 . S
C1880 H1865 0.960 . S
C1880 H1866 0.960 . S
C1880 H1867 0.960 . S
C1880 C1879 1.524 . S
C1881 C1878 1.403 . S
C1881 C1882 1.392 . S
C1881 C1885 1.495 . S
C1882 C1881 1.392 . S
C1882 C1883 1.385 . S
C1882 C1884 1.478 . S
C1883 H1877 0.930 . S
C1883 C1879 1.400 . S
C1883 C1882 1.385 . S
C1884 C1882 1.478 . S
C1884 C1886 1.381 . S
C1884 C1890 1.383 . S
C1885 C1881 1.495 . S
C1885 H1891 0.959 . S
C1885 H1892 0.961 . S
C1885 H1893 0.960 . S
C1886 C1884 1.381 . S
C1886 C1887 1.394 . S
C1886 H1894 0.930 . S
C1887 C1886 1.394 . S
C1887 C1888 1.383 . S
C1887 H1895 0.929 . S
C1888 C1887 1.383 . S
C1888 C1889 1.377 . S
C1889 H1873 0.930 . S
C1889 C1888 1.377 . S
C1889 C1890 1.379 . S
C1890 H1874 0.931 . S
C1890 C1884 1.383 . S
C1890 C1889 1.379 . S
H1891 C1885 0.959 . S
H1892 C1885 0.961 . S
H1893 C1885 0.960 . S
H1894 C1886 0.930 . S
H1895 C1887 0.929 . S
H1896 C1904 0.929 . S
H1897 C1906 0.930 . S
H1898 C1908 0.930 . S
H1899 C1911 0.929 . S
H1900 C1914 0.930 . S
H1901 C1916 0.960 . S
H1902 C1916 0.960 . S
H1903 C1916 0.960 . S
C1904 H1896 0.929 . S
C1904 C1905 1.377 . S
C1904 C1906 1.384 . S
C1905 C1904 1.377 . S
C1905 C1911 1.390 . S
C1906 H1897 0.930 . S
C1906 C1904 1.384 . S
C1906 C1907 1.372 . S
C1907 C1906 1.372 . S
C1907 C1908 1.400 . S
C1907 C1912 1.490 . S
C1908 H1898 0.930 . S
C1908 C1907 1.400 . S
C1908 C1911 1.386 . S
H1909 C1925 0.930 . S
H1910 C1926 0.931 . S
C1911 H1899 0.929 . S
C1911 C1905 1.390 . S
C1911 C1908 1.386 . S
C1912 C1907 1.490 . S
C1912 C1914 1.395 . S
C1912 C1915 1.403 . S
H1913 C1919 0.930 . S
C1914 H1900 0.930 . S
C1914 C1912 1.395 . S
C1914 C1917 1.403 . S
C1915 C1912 1.403 . S
C1915 C1916 1.524 . S
C1915 C1919 1.400 . S
C1916 H1901 0.960 . S
C1916 H1902 0.960 . S
C1916 H1903 0.960 . S
C1916 C1915 1.524 . S
C1917 C1914 1.403 . S
C1917 C1918 1.392 . S
C1917 C1921 1.495 . S
C1918 C1917 1.392 . S
C1918 C1919 1.385 . S
C1918 C1920 1.478 . S
C1919 H1913 0.930 . S
C1919 C1915 1.400 . S
C1919 C1918 1.385 . S
C1920 C1918 1.478 . S
C1920 C1922 1.381 . S
C1920 C1926 1.383 . S
C1921 C1917 1.495 . S
C1921 H1927 0.959 . S
C1921 H1928 0.961 . S
C1921 H1929 0.960 . S
C1922 C1920 1.381 . S
C1922 C1923 1.394 . S
C1922 H1930 0.930 . S
C1923 C1922 1.394 . S
C1923 C1924 1.383 . S
C1923 H1931 0.929 . S
C1924 C1923 1.383 . S
C1924 C1925 1.377 . S
C1925 H1909 0.930 . S
C1925 C1924 1.377 . S
C1925 C1926 1.379 . S
C1926 H1910 0.931 . S
C1926 C1920 1.383 . S
C1926 C1925 1.379 . S
H1927 C1921 0.959 . S
H1928 C1921 0.961 . S
H1929 C1921 0.960 . S
H1930 C1922 0.930 . S
H1931 C1923 0.929 . S
H1932 C1940 0.929 . S
H1933 C1942 0.930 . S
H1934 C1944 0.930 . S
H1935 C1947 0.929 . S
H1936 C1950 0.930 . S
H1937 C1952 0.960 . S
H1938 C1952 0.960 . S
H1939 C1952 0.960 . S
C1940 H1932 0.929 . S
C1940 C1941 1.377 . S
C1940 C1942 1.384 . S
C1941 C1940 1.377 . S
C1941 C1947 1.390 . S
C1942 H1933 0.930 . S
C1942 C1940 1.384 . S
C1942 C1943 1.372 . S
C1943 C1942 1.372 . S
C1943 C1944 1.400 . S
C1943 C1948 1.490 . S
C1944 H1934 0.930 . S
C1944 C1943 1.400 . S
C1944 C1947 1.386 . S
H1945 C1961 0.930 . S
H1946 C1962 0.931 . S
C1947 H1935 0.929 . S
C1947 C1941 1.390 . S
C1947 C1944 1.386 . S
C1948 C1943 1.490 . S
C1948 C1950 1.395 . S
C1948 C1951 1.403 . S
H1949 C1955 0.930 . S
C1950 H1936 0.930 . S
C1950 C1948 1.395 . S
C1950 C1953 1.403 . S
C1951 C1948 1.403 . S
C1951 C1952 1.524 . S
C1951 C1955 1.400 . S
C1952 H1937 0.960 . S
C1952 H1938 0.960 . S
C1952 H1939 0.960 . S
C1952 C1951 1.524 . S
C1953 C1950 1.403 . S
C1953 C1954 1.392 . S
C1953 C1957 1.495 . S
C1954 C1953 1.392 . S
C1954 C1955 1.385 . S
C1954 C1956 1.478 . S
C1955 H1949 0.930 . S
C1955 C1951 1.400 . S
C1955 C1954 1.385 . S
C1956 C1954 1.478 . S
C1956 C1958 1.381 . S
C1956 C1962 1.383 . S
C1957 C1953 1.495 . S
C1957 H1963 0.959 . S
C1957 H1964 0.961 . S
C1957 H1965 0.960 . S
C1958 C1956 1.381 . S
C1958 C1959 1.394 . S
C1958 H1966 0.930 . S
C1959 C1958 1.394 . S
C1959 C1960 1.383 . S
C1959 H1967 0.929 . S
C1960 C1959 1.383 . S
C1960 C1961 1.377 . S
C1961 H1945 0.930 . S
C1961 C1960 1.377 . S
C1961 C1962 1.379 . S
C1962 H1946 0.931 . S
C1962 C1956 1.383 . S
C1962 C1961 1.379 . S
H1963 C1957 0.959 . S
H1964 C1957 0.961 . S
H1965 C1957 0.960 . S
H1966 C1958 0.930 . S
H1967 C1959 0.929 . S
H1968 C1976 0.929 . S
H1969 C1978 0.930 . S
H1970 C1980 0.930 . S
H1971 C1983 0.929 . S
H1972 C1986 0.930 . S
H1973 C1988 0.960 . S
H1974 C1988 0.960 . S
H1975 C1988 0.960 . S
C1976 H1968 0.929 . S
C1976 C1977 1.377 . S
C1976 C1978 1.384 . S
C1977 C1976 1.377 . S
C1977 C1983 1.390 . S
C1978 H1969 0.930 . S
C1978 C1976 1.384 . S
C1978 C1979 1.372 . S
C1979 C1978 1.372 . S
C1979 C1980 1.400 . S
C1979 C1984 1.490 . S
C1980 H1970 0.930 . S
C1980 C1979 1.400 . S
C1980 C1983 1.386 . S
H1981 C1997 0.930 . S
H1982 C1998 0.931 . S
C1983 H1971 0.929 . S
C1983 C1977 1.390 . S
C1983 C1980 1.386 . S
C1984 C1979 1.490 . S
C1984 C1986 1.395 . S
C1984 C1987 1.403 . S
H1985 C1991 0.930 . S
C1986 H1972 0.930 . S
C1986 C1984 1.395 . S
C1986 C1989 1.403 . S
C1987 C1984 1.403 . S
C1987 C1988 1.524 . S
C1987 C1991 1.400 . S
C1988 H1973 0.960 . S
C1988 H1974 0.960 . S
C1988 H1975 0.960 . S
C1988 C1987 1.524 . S
C1989 C1986 1.403 . S
C1989 C1990 1.392 . S
C1989 C1993 1.495 . S
C1990 C1989 1.392 . S
C1990 C1991 1.385 . S
C1990 C1992 1.478 . S
C1991 H1985 0.930 . S
C1991 C1987 1.400 . S
C1991 C1990 1.385 . S
C1992 C1990 1.478 . S
C1992 C1994 1.381 . S
C1992 C1998 1.383 . S
C1993 C1989 1.495 . S
C1993 H1999 0.959 . S
C1993 H2000 0.961 . S
C1993 H2001 0.960 . S
C1994 C1992 1.381 . S
C1994 C1995 1.394 . S
C1994 H2002 0.930 . S
C1995 C1994 1.394 . S
C1995 C1996 1.383 . S
C1995 H2003 0.929 . S
C1996 C1995 1.383 . S
C1996 C1997 1.377 . S
C1997 H1981 0.930 . S
C1997 C1996 1.377 . S
C1997 C1998 1.379 . S
C1998 H1982 0.931 . S
C1998 C1992 1.383 . S
C1998 C1997 1.379 . S
H1999 C1993 0.959 . S
H2000 C1993 0.961 . S
H2001 C1993 0.960 . S
H2002 C1994 0.930 . S
H2003 C1995 0.929 . S
H2004 C2012 0.929 . S
H2005 C2014 0.930 . S
H2006 C2016 0.930 . S
H2007 C2019 0.929 . S
H2008 C2022 0.930 . S
H2009 C2024 0.960 . S
H2010 C2024 0.960 . S
H2011 C2024 0.960 . S
C2012 H2004 0.929 . S
C2012 C2013 1.377 . S
C2012 C2014 1.384 . S
C2013 C2012 1.377 . S
C2013 C2019 1.390 . S
C2014 H2005 0.930 . S
C2014 C2012 1.384 . S
C2014 C2015 1.372 . S
C2015 C2014 1.372 . S
C2015 C2016 1.400 . S
C2015 C2020 1.490 . S
C2016 H2006 0.930 . S
C2016 C2015 1.400 . S
C2016 C2019 1.386 . S
H2017 C2033 0.930 . S
H2018 C2034 0.931 . S
C2019 H2007 0.929 . S
C2019 C2013 1.390 . S
C2019 C2016 1.386 . S
C2020 C2015 1.490 . S
C2020 C2022 1.395 . S
C2020 C2023 1.403 . S
H2021 C2027 0.930 . S
C2022 H2008 0.930 . S
C2022 C2020 1.395 . S
C2022 C2025 1.403 . S
C2023 C2020 1.403 . S
C2023 C2024 1.524 . S
C2023 C2027 1.400 . S
C2024 H2009 0.960 . S
C2024 H2010 0.960 . S
C2024 H2011 0.960 . S
C2024 C2023 1.524 . S
C2025 C2022 1.403 . S
C2025 C2026 1.392 . S
C2025 C2029 1.495 . S
C2026 C2025 1.392 . S
C2026 C2027 1.385 . S
C2026 C2028 1.478 . S
C2027 H2021 0.930 . S
C2027 C2023 1.400 . S
C2027 C2026 1.385 . S
C2028 C2026 1.478 . S
C2028 C2030 1.381 . S
C2028 C2034 1.383 . S
C2029 C2025 1.495 . S
C2029 H2035 0.959 . S
C2029 H2036 0.961 . S
C2029 H2037 0.960 . S
C2030 C2028 1.381 . S
C2030 C2031 1.394 . S
C2030 H2038 0.930 . S
C2031 C2030 1.394 . S
C2031 C2032 1.383 . S
C2031 H2039 0.929 . S
C2032 C2031 1.383 . S
C2032 C2033 1.377 . S
C2033 H2017 0.930 . S
C2033 C2032 1.377 . S
C2033 C2034 1.379 . S
C2034 H2018 0.931 . S
C2034 C2028 1.383 . S
C2034 C2033 1.379 . S
H2035 C2029 0.959 . S
H2036 C2029 0.961 . S
H2037 C2029 0.960 . S
H2038 C2030 0.930 . S
H2039 C2031 0.929 . S
H2040 C2048 0.929 . S
H2041 C2050 0.930 . S
H2042 C2052 0.930 . S
H2043 C2055 0.929 . S
H2044 C2058 0.930 . S
H2045 C2060 0.960 . S
H2046 C2060 0.960 . S
H2047 C2060 0.960 . S
C2048 H2040 0.929 . S
C2048 C2049 1.377 . S
C2048 C2050 1.384 . S
C2049 C2048 1.377 . S
C2049 C2055 1.390 . S
C2050 H2041 0.930 . S
C2050 C2048 1.384 . S
C2050 C2051 1.372 . S
C2051 C2050 1.372 . S
C2051 C2052 1.400 . S
C2051 C2056 1.490 . S
C2052 H2042 0.930 . S
C2052 C2051 1.400 . S
C2052 C2055 1.386 . S
H2053 C2069 0.930 . S
H2054 C2070 0.931 . S
C2055 H2043 0.929 . S
C2055 C2049 1.390 . S
C2055 C2052 1.386 . S
C2056 C2051 1.490 . S
C2056 C2058 1.395 . S
C2056 C2059 1.403 . S
H2057 C2063 0.930 . S
C2058 H2044 0.930 . S
C2058 C2056 1.395 . S
C2058 C2061 1.403 . S
C2059 C2056 1.403 . S
C2059 C2060 1.524 . S
C2059 C2063 1.400 . S
C2060 H2045 0.960 . S
C2060 H2046 0.960 . S
C2060 H2047 0.960 . S
C2060 C2059 1.524 . S
C2061 C2058 1.403 . S
C2061 C2062 1.392 . S
C2061 C2065 1.495 . S
C2062 C2061 1.392 . S
C2062 C2063 1.385 . S
C2062 C2064 1.478 . S
C2063 H2057 0.930 . S
C2063 C2059 1.400 . S
C2063 C2062 1.385 . S
C2064 C2062 1.478 . S
C2064 C2066 1.381 . S
C2064 C2070 1.383 . S
C2065 C2061 1.495 . S
C2065 H2071 0.959 . S
C2065 H2072 0.961 . S
C2065 H2073 0.960 . S
C2066 C2064 1.381 . S
C2066 C2067 1.394 . S
C2066 H2074 0.930 . S
C2067 C2066 1.394 . S
C2067 C2068 1.383 . S
C2067 H2075 0.929 . S
C2068 C2067 1.383 . S
C2068 C2069 1.377 . S
C2069 H2053 0.930 . S
C2069 C2068 1.377 . S
C2069 C2070 1.379 . S
C2070 H2054 0.931 . S
C2070 C2064 1.383 . S
C2070 C2069 1.379 . S
H2071 C2065 0.959 . S
H2072 C2065 0.961 . S
H2073 C2065 0.960 . S
H2074 C2066 0.930 . S
H2075 C2067 0.929 . S
H2076 C2084 0.929 . S
H2077 C2086 0.930 . S
H2078 C2088 0.930 . S
H2079 C2091 0.929 . S
H2080 C2094 0.930 . S
H2081 C2096 0.960 . S
H2082 C2096 0.960 . S
H2083 C2096 0.960 . S
C2084 H2076 0.929 . S
C2084 C2085 1.377 . S
C2084 C2086 1.384 . S
C2085 C2084 1.377 . S
C2085 C2091 1.390 . S
C2086 H2077 0.930 . S
C2086 C2084 1.384 . S
C2086 C2087 1.372 . S
C2087 C2086 1.372 . S
C2087 C2088 1.400 . S
C2087 C2092 1.490 . S
C2088 H2078 0.930 . S
C2088 C2087 1.400 . S
C2088 C2091 1.386 . S
H2089 C2105 0.930 . S
H2090 C2106 0.931 . S
C2091 H2079 0.929 . S
C2091 C2085 1.390 . S
C2091 C2088 1.386 . S
C2092 C2087 1.490 . S
C2092 C2094 1.395 . S
C2092 C2095 1.403 . S
H2093 C2099 0.930 . S
C2094 H2080 0.930 . S
C2094 C2092 1.395 . S
C2094 C2097 1.403 . S
C2095 C2092 1.403 . S
C2095 C2096 1.524 . S
C2095 C2099 1.400 . S
C2096 H2081 0.960 . S
C2096 H2082 0.960 . S
C2096 H2083 0.960 . S
C2096 C2095 1.524 . S
C2097 C2094 1.403 . S
C2097 C2098 1.392 . S
C2097 C2101 1.495 . S
C2098 C2097 1.392 . S
C2098 C2099 1.385 . S
C2098 C2100 1.478 . S
C2099 H2093 0.930 . S
C2099 C2095 1.400 . S
C2099 C2098 1.385 . S
C2100 C2098 1.478 . S
C2100 C2102 1.381 . S
C2100 C2106 1.383 . S
C2101 C2097 1.495 . S
C2101 H2107 0.959 . S
C2101 H2108 0.961 . S
C2101 H2109 0.960 . S
C2102 C2100 1.381 . S
C2102 C2103 1.394 . S
C2102 H2110 0.930 . S
C2103 C2102 1.394 . S
C2103 C2104 1.383 . S
C2103 H2111 0.929 . S
C2104 C2103 1.383 . S
C2104 C2105 1.377 . S
C2105 H2089 0.930 . S
C2105 C2104 1.377 . S
C2105 C2106 1.379 . S
C2106 H2090 0.931 . S
C2106 C2100 1.383 . S
C2106 C2105 1.379 . S
H2107 C2101 0.959 . S
H2108 C2101 0.961 . S
H2109 C2101 0.960 . S
H2110 C2102 0.930 . S
H2111 C2103 0.929 . S
H2112 C2120 0.929 . S
H2113 C2122 0.930 . S
H2114 C2124 0.930 . S
H2115 C2127 0.929 . S
H2116 C2130 0.930 . S
H2117 C2132 0.960 . S
H2118 C2132 0.960 . S
H2119 C2132 0.960 . S
C2120 H2112 0.929 . S
C2120 C2121 1.377 . S
C2120 C2122 1.384 . S
C2121 C2120 1.377 . S
C2121 C2127 1.390 . S
C2122 H2113 0.930 . S
C2122 C2120 1.384 . S
C2122 C2123 1.372 . S
C2123 C2122 1.372 . S
C2123 C2124 1.400 . S
C2123 C2128 1.490 . S
C2124 H2114 0.930 . S
C2124 C2123 1.400 . S
C2124 C2127 1.386 . S
H2125 C2141 0.930 . S
H2126 C2142 0.931 . S
C2127 H2115 0.929 . S
C2127 C2121 1.390 . S
C2127 C2124 1.386 . S
C2128 C2123 1.490 . S
C2128 C2130 1.395 . S
C2128 C2131 1.403 . S
H2129 C2135 0.930 . S
C2130 H2116 0.930 . S
C2130 C2128 1.395 . S
C2130 C2133 1.403 . S
C2131 C2128 1.403 . S
C2131 C2132 1.524 . S
C2131 C2135 1.400 . S
C2132 H2117 0.960 . S
C2132 H2118 0.960 . S
C2132 H2119 0.960 . S
C2132 C2131 1.524 . S
C2133 C2130 1.403 . S
C2133 C2134 1.392 . S
C2133 C2137 1.495 . S
C2134 C2133 1.392 . S
C2134 C2135 1.385 . S
C2134 C2136 1.478 . S
C2135 H2129 0.930 . S
C2135 C2131 1.400 . S
C2135 C2134 1.385 . S
C2136 C2134 1.478 . S
C2136 C2138 1.381 . S
C2136 C2142 1.383 . S
C2137 C2133 1.495 . S
C2137 H2143 0.959 . S
C2137 H2144 0.961 . S
C2137 H2145 0.960 . S
C2138 C2136 1.381 . S
C2138 C2139 1.394 . S
C2138 H2146 0.930 . S
C2139 C2138 1.394 . S
C2139 C2140 1.383 . S
C2139 H2147 0.929 . S
C2140 C2139 1.383 . S
C2140 C2141 1.377 . S
C2141 H2125 0.930 . S
C2141 C2140 1.377 . S
C2141 C2142 1.379 . S
C2142 H2126 0.931 . S
C2142 C2136 1.383 . S
C2142 C2141 1.379 . S
H2143 C2137 0.959 . S
H2144 C2137 0.961 . S
H2145 C2137 0.960 . S
H2146 C2138 0.930 . S
H2147 C2139 0.929 . S
H2148 C2156 0.929 . S
H2149 C2158 0.930 . S
H2150 C2160 0.930 . S
H2151 C2163 0.929 . S
H2152 C2166 0.930 . S
H2153 C2168 0.960 . S
H2154 C2168 0.960 . S
H2155 C2168 0.960 . S
C2156 H2148 0.929 . S
C2156 C2157 1.377 . S
C2156 C2158 1.384 . S
C2157 C2156 1.377 . S
C2157 C2163 1.390 . S
C2158 H2149 0.930 . S
C2158 C2156 1.384 . S
C2158 C2159 1.372 . S
C2159 C2158 1.372 . S
C2159 C2160 1.400 . S
C2159 C2164 1.490 . S
C2160 H2150 0.930 . S
C2160 C2159 1.400 . S
C2160 C2163 1.386 . S
H2161 C2177 0.930 . S
H2162 C2178 0.931 . S
C2163 H2151 0.929 . S
C2163 C2157 1.390 . S
C2163 C2160 1.386 . S
C2164 C2159 1.490 . S
C2164 C2166 1.395 . S
C2164 C2167 1.403 . S
H2165 C2171 0.930 . S
C2166 H2152 0.930 . S
C2166 C2164 1.395 . S
C2166 C2169 1.403 . S
C2167 C2164 1.403 . S
C2167 C2168 1.524 . S
C2167 C2171 1.400 . S
C2168 H2153 0.960 . S
C2168 H2154 0.960 . S
C2168 H2155 0.960 . S
C2168 C2167 1.524 . S
C2169 C2166 1.403 . S
C2169 C2170 1.392 . S
C2169 C2173 1.495 . S
C2170 C2169 1.392 . S
C2170 C2171 1.385 . S
C2170 C2172 1.478 . S
C2171 H2165 0.930 . S
C2171 C2167 1.400 . S
C2171 C2170 1.385 . S
C2172 C2170 1.478 . S
C2172 C2174 1.381 . S
C2172 C2178 1.383 . S
C2173 C2169 1.495 . S
C2173 H2179 0.959 . S
C2173 H2180 0.961 . S
C2173 H2181 0.960 . S
C2174 C2172 1.381 . S
C2174 C2175 1.394 . S
C2174 H2182 0.930 . S
C2175 C2174 1.394 . S
C2175 C2176 1.383 . S
C2175 H2183 0.929 . S
C2176 C2175 1.383 . S
C2176 C2177 1.377 . S
C2177 H2161 0.930 . S
C2177 C2176 1.377 . S
C2177 C2178 1.379 . S
C2178 H2162 0.931 . S
C2178 C2172 1.383 . S
C2178 C2177 1.379 . S
H2179 C2173 0.959 . S
H2180 C2173 0.961 . S
H2181 C2173 0.960 . S
H2182 C2174 0.930 . S
H2183 C2175 0.929 . S
H2184 C2192 0.929 . S
H2185 C2194 0.930 . S
H2186 C2196 0.930 . S
H2187 C2199 0.929 . S
H2188 C2202 0.930 . S
H2189 C2204 0.960 . S
H2190 C2204 0.960 . S
H2191 C2204 0.960 . S
C2192 H2184 0.929 . S
C2192 C2193 1.377 . S
C2192 C2194 1.384 . S
C2193 C2192 1.377 . S
C2193 C2199 1.390 . S
C2194 H2185 0.930 . S
C2194 C2192 1.384 . S
C2194 C2195 1.372 . S
C2195 C2194 1.372 . S
C2195 C2196 1.400 . S
C2195 C2200 1.490 . S
C2196 H2186 0.930 . S
C2196 C2195 1.400 . S
C2196 C2199 1.386 . S
H2197 C2213 0.930 . S
H2198 C2214 0.931 . S
C2199 H2187 0.929 . S
C2199 C2193 1.390 . S
C2199 C2196 1.386 . S
C2200 C2195 1.490 . S
C2200 C2202 1.395 . S
C2200 C2203 1.403 . S
H2201 C2207 0.930 . S
C2202 H2188 0.930 . S
C2202 C2200 1.395 . S
C2202 C2205 1.403 . S
C2203 C2200 1.403 . S
C2203 C2204 1.524 . S
C2203 C2207 1.400 . S
C2204 H2189 0.960 . S
C2204 H2190 0.960 . S
C2204 H2191 0.960 . S
C2204 C2203 1.524 . S
C2205 C2202 1.403 . S
C2205 C2206 1.392 . S
C2205 C2209 1.495 . S
C2206 C2205 1.392 . S
C2206 C2207 1.385 . S
C2206 C2208 1.478 . S
C2207 H2201 0.930 . S
C2207 C2203 1.400 . S
C2207 C2206 1.385 . S
C2208 C2206 1.478 . S
C2208 C2210 1.381 . S
C2208 C2214 1.383 . S
C2209 C2205 1.495 . S
C2209 H2215 0.959 . S
C2209 H2216 0.961 . S
C2209 H2217 0.960 . S
C2210 C2208 1.381 . S
C2210 C2211 1.394 . S
C2210 H2218 0.930 . S
C2211 C2210 1.394 . S
C2211 C2212 1.383 . S
C2211 H2219 0.929 . S
C2212 C2211 1.383 . S
C2212 C2213 1.377 . S
C2213 H2197 0.930 . S
C2213 C2212 1.377 . S
C2213 C2214 1.379 . S
C2214 H2198 0.931 . S
C2214 C2208 1.383 . S
C2214 C2213 1.379 . S
H2215 C2209 0.959 . S
H2216 C2209 0.961 . S
H2217 C2209 0.960 . S
H2218 C2210 0.930 . S
H2219 C2211 0.929 . S
H2220 C2228 0.929 . S
H2221 C2230 0.930 . S
H2222 C2232 0.930 . S
H2223 C2235 0.929 . S
H2224 C2238 0.930 . S
H2225 C2240 0.960 . S
H2226 C2240 0.960 . S
H2227 C2240 0.960 . S
C2228 H2220 0.929 . S
C2228 C2229 1.377 . S
C2228 C2230 1.384 . S
C2229 C2228 1.377 . S
C2229 C2235 1.390 . S
C2230 H2221 0.930 . S
C2230 C2228 1.384 . S
C2230 C2231 1.372 . S
C2231 C2230 1.372 . S
C2231 C2232 1.400 . S
C2231 C2236 1.490 . S
C2232 H2222 0.930 . S
C2232 C2231 1.400 . S
C2232 C2235 1.386 . S
H2233 C2249 0.930 . S
H2234 C2250 0.931 . S
C2235 H2223 0.929 . S
C2235 C2229 1.390 . S
C2235 C2232 1.386 . S
C2236 C2231 1.490 . S
C2236 C2238 1.395 . S
C2236 C2239 1.403 . S
H2237 C2243 0.930 . S
C2238 H2224 0.930 . S
C2238 C2236 1.395 . S
C2238 C2241 1.403 . S
C2239 C2236 1.403 . S
C2239 C2240 1.524 . S
C2239 C2243 1.400 . S
C2240 H2225 0.960 . S
C2240 H2226 0.960 . S
C2240 H2227 0.960 . S
C2240 C2239 1.524 . S
C2241 C2238 1.403 . S
C2241 C2242 1.392 . S
C2241 C2245 1.495 . S
C2242 C2241 1.392 . S
C2242 C2243 1.385 . S
C2242 C2244 1.478 . S
C2243 H2237 0.930 . S
C2243 C2239 1.400 . S
C2243 C2242 1.385 . S
C2244 C2242 1.478 . S
C2244 C2246 1.381 . S
C2244 C2250 1.383 . S
C2245 C2241 1.495 . S
C2245 H2251 0.959 . S
C2245 H2252 0.961 . S
C2245 H2253 0.960 . S
C2246 C2244 1.381 . S
C2246 C2247 1.394 . S
C2246 H2254 0.930 . S
C2247 C2246 1.394 . S
C2247 C2248 1.383 . S
C2247 H2255 0.929 . S
C2248 C2247 1.383 . S
C2248 C2249 1.377 . S
C2249 H2233 0.930 . S
C2249 C2248 1.377 . S
C2249 C2250 1.379 . S
C2250 H2234 0.931 . S
C2250 C2244 1.383 . S
C2250 C2249 1.379 . S
H2251 C2245 0.959 . S
H2252 C2245 0.961 . S
H2253 C2245 0.960 . S
H2254 C2246 0.930 . S
H2255 C2247 0.929 . S
H2256 C2264 0.929 . S
H2257 C2266 0.930 . S
H2258 C2268 0.930 . S
H2259 C2271 0.929 . S
H2260 C2274 0.930 . S
H2261 C2276 0.960 . S
H2262 C2276 0.960 . S
H2263 C2276 0.960 . S
C2264 H2256 0.929 . S
C2264 C2265 1.377 . S
C2264 C2266 1.384 . S
C2265 C2264 1.377 . S
C2265 C2271 1.390 . S
C2266 H2257 0.930 . S
C2266 C2264 1.384 . S
C2266 C2267 1.372 . S
C2267 C2266 1.372 . S
C2267 C2268 1.400 . S
C2267 C2272 1.490 . S
C2268 H2258 0.930 . S
C2268 C2267 1.400 . S
C2268 C2271 1.386 . S
H2269 C2285 0.930 . S
H2270 C2286 0.931 . S
C2271 H2259 0.929 . S
C2271 C2265 1.390 . S
C2271 C2268 1.386 . S
C2272 C2267 1.490 . S
C2272 C2274 1.395 . S
C2272 C2275 1.403 . S
H2273 C2279 0.930 . S
C2274 H2260 0.930 . S
C2274 C2272 1.395 . S
C2274 C2277 1.403 . S
C2275 C2272 1.403 . S
C2275 C2276 1.524 . S
C2275 C2279 1.400 . S
C2276 H2261 0.960 . S
C2276 H2262 0.960 . S
C2276 H2263 0.960 . S
C2276 C2275 1.524 . S
C2277 C2274 1.403 . S
C2277 C2278 1.392 . S
C2277 C2281 1.495 . S
C2278 C2277 1.392 . S
C2278 C2279 1.385 . S
C2278 C2280 1.478 . S
C2279 H2273 0.930 . S
C2279 C2275 1.400 . S
C2279 C2278 1.385 . S
C2280 C2278 1.478 . S
C2280 C2282 1.381 . S
C2280 C2286 1.383 . S
C2281 C2277 1.495 . S
C2281 H2287 0.959 . S
C2281 H2288 0.961 . S
C2281 H2289 0.960 . S
C2282 C2280 1.381 . S
C2282 C2283 1.394 . S
C2282 H2290 0.930 . S
C2283 C2282 1.394 . S
C2283 C2284 1.383 . S
C2283 H2291 0.929 . S
C2284 C2283 1.383 . S
C2284 C2285 1.377 . S
C2285 H2269 0.930 . S
C2285 C2284 1.377 . S
C2285 C2286 1.379 . S
C2286 H2270 0.931 . S
C2286 C2280 1.383 . S
C2286 C2285 1.379 . S
H2287 C2281 0.959 . S
H2288 C2281 0.961 . S
H2289 C2281 0.960 . S
H2290 C2282 0.930 . S
H2291 C2283 0.929 . S
H2292 C2300 0.929 . S
H2293 C2302 0.930 . S
H2294 C2304 0.930 . S
H2295 C2307 0.929 . S
H2296 C2310 0.930 . S
H2297 C2312 0.960 . S
H2298 C2312 0.960 . S
H2299 C2312 0.960 . S
C2300 H2292 0.929 . S
C2300 C2301 1.377 . S
C2300 C2302 1.384 . S
C2301 C2300 1.377 . S
C2301 C2307 1.390 . S
C2302 H2293 0.930 . S
C2302 C2300 1.384 . S
C2302 C2303 1.372 . S
C2303 C2302 1.372 . S
C2303 C2304 1.400 . S
C2303 C2308 1.490 . S
C2304 H2294 0.930 . S
C2304 C2303 1.400 . S
C2304 C2307 1.386 . S
H2305 C2321 0.930 . S
H2306 C2322 0.931 . S
C2307 H2295 0.929 . S
C2307 C2301 1.390 . S
C2307 C2304 1.386 . S
C2308 C2303 1.490 . S
C2308 C2310 1.395 . S
C2308 C2311 1.403 . S
H2309 C2315 0.930 . S
C2310 H2296 0.930 . S
C2310 C2308 1.395 . S
C2310 C2313 1.403 . S
C2311 C2308 1.403 . S
C2311 C2312 1.524 . S
C2311 C2315 1.400 . S
C2312 H2297 0.960 . S
C2312 H2298 0.960 . S
C2312 H2299 0.960 . S
C2312 C2311 1.524 . S
C2313 C2310 1.403 . S
C2313 C2314 1.392 . S
C2313 C2317 1.495 . S
C2314 C2313 1.392 . S
C2314 C2315 1.385 . S
C2314 C2316 1.478 . S
C2315 H2309 0.930 . S
C2315 C2311 1.400 . S
C2315 C2314 1.385 . S
C2316 C2314 1.478 . S
C2316 C2318 1.381 . S
C2316 C2322 1.383 . S
C2317 C2313 1.495 . S
C2317 H2323 0.959 . S
C2317 H2324 0.961 . S
C2317 H2325 0.960 . S
C2318 C2316 1.381 . S
C2318 C2319 1.394 . S
C2318 H2326 0.930 . S
C2319 C2318 1.394 . S
C2319 C2320 1.383 . S
C2319 H2327 0.929 . S
C2320 C2319 1.383 . S
C2320 C2321 1.377 . S
C2321 H2305 0.930 . S
C2321 C2320 1.377 . S
C2321 C2322 1.379 . S
C2322 H2306 0.931 . S
C2322 C2316 1.383 . S
C2322 C2321 1.379 . S
H2323 C2317 0.959 . S
H2324 C2317 0.961 . S
H2325 C2317 0.960 . S
H2326 C2318 0.930 . S
H2327 C2319 0.929 . S
H2328 C2336 0.929 . S
H2329 C2338 0.930 . S
H2330 C2340 0.930 . S
H2331 C2343 0.929 . S
H2332 C2346 0.930 . S
H2333 C2348 0.960 . S
H2334 C2348 0.960 . S
H2335 C2348 0.960 . S
C2336 H2328 0.929 . S
C2336 C2337 1.377 . S
C2336 C2338 1.384 . S
C2337 C2336 1.377 . S
C2337 C2343 1.390 . S
C2338 H2329 0.930 . S
C2338 C2336 1.384 . S
C2338 C2339 1.372 . S
C2339 C2338 1.372 . S
C2339 C2340 1.400 . S
C2339 C2344 1.490 . S
C2340 H2330 0.930 . S
C2340 C2339 1.400 . S
C2340 C2343 1.386 . S
H2341 C2357 0.930 . S
H2342 C2358 0.931 . S
C2343 H2331 0.929 . S
C2343 C2337 1.390 . S
C2343 C2340 1.386 . S
C2344 C2339 1.490 . S
C2344 C2346 1.395 . S
C2344 C2347 1.403 . S
H2345 C2351 0.930 . S
C2346 H2332 0.930 . S
C2346 C2344 1.395 . S
C2346 C2349 1.403 . S
C2347 C2344 1.403 . S
C2347 C2348 1.524 . S
C2347 C2351 1.400 . S
C2348 H2333 0.960 . S
C2348 H2334 0.960 . S
C2348 H2335 0.960 . S
C2348 C2347 1.524 . S
C2349 C2346 1.403 . S
C2349 C2350 1.392 . S
C2349 C2353 1.495 . S
C2350 C2349 1.392 . S
C2350 C2351 1.385 . S
C2350 C2352 1.478 . S
C2351 H2345 0.930 . S
C2351 C2347 1.400 . S
C2351 C2350 1.385 . S
C2352 C2350 1.478 . S
C2352 C2354 1.381 . S
C2352 C2358 1.383 . S
C2353 C2349 1.495 . S
C2353 H2359 0.959 . S
C2353 H2360 0.961 . S
C2353 H2361 0.960 . S
C2354 C2352 1.381 . S
C2354 C2355 1.394 . S
C2354 H2362 0.930 . S
C2355 C2354 1.394 . S
C2355 C2356 1.383 . S
C2355 H2363 0.929 . S
C2356 C2355 1.383 . S
C2356 C2357 1.377 . S
C2357 H2341 0.930 . S
C2357 C2356 1.377 . S
C2357 C2358 1.379 . S
C2358 H2342 0.931 . S
C2358 C2352 1.383 . S
C2358 C2357 1.379 . S
H2359 C2353 0.959 . S
H2360 C2353 0.961 . S
H2361 C2353 0.960 . S
H2362 C2354 0.930 . S
H2363 C2355 0.929 . S
H2364 C2372 0.929 . S
H2365 C2374 0.930 . S
H2366 C2376 0.930 . S
H2367 C2379 0.929 . S
H2368 C2382 0.930 . S
H2369 C2384 0.960 . S
H2370 C2384 0.960 . S
H2371 C2384 0.960 . S
C2372 H2364 0.929 . S
C2372 C2373 1.377 . S
C2372 C2374 1.384 . S
C2373 C2372 1.377 . S
C2373 C2379 1.390 . S
C2374 H2365 0.930 . S
C2374 C2372 1.384 . S
C2374 C2375 1.372 . S
C2375 C2374 1.372 . S
C2375 C2376 1.400 . S
C2375 C2380 1.490 . S
C2376 H2366 0.930 . S
C2376 C2375 1.400 . S
C2376 C2379 1.386 . S
H2377 C2393 0.930 . S
H2378 C2394 0.931 . S
C2379 H2367 0.929 . S
C2379 C2373 1.390 . S
C2379 C2376 1.386 . S
C2380 C2375 1.490 . S
C2380 C2382 1.395 . S
C2380 C2383 1.403 . S
H2381 C2387 0.930 . S
C2382 H2368 0.930 . S
C2382 C2380 1.395 . S
C2382 C2385 1.403 . S
C2383 C2380 1.403 . S
C2383 C2384 1.524 . S
C2383 C2387 1.400 . S
C2384 H2369 0.960 . S
C2384 H2370 0.960 . S
C2384 H2371 0.960 . S
C2384 C2383 1.524 . S
C2385 C2382 1.403 . S
C2385 C2386 1.392 . S
C2385 C2389 1.495 . S
C2386 C2385 1.392 . S
C2386 C2387 1.385 . S
C2386 C2388 1.478 . S
C2387 H2381 0.930 . S
C2387 C2383 1.400 . S
C2387 C2386 1.385 . S
C2388 C2386 1.478 . S
C2388 C2390 1.381 . S
C2388 C2394 1.383 . S
C2389 C2385 1.495 . S
C2389 H2395 0.959 . S
C2389 H2396 0.961 . S
C2389 H2397 0.960 . S
C2390 C2388 1.381 . S
C2390 C2391 1.394 . S
C2390 H2398 0.930 . S
C2391 C2390 1.394 . S
C2391 C2392 1.383 . S
C2391 H2399 0.929 . S
C2392 C2391 1.383 . S
C2392 C2393 1.377 . S
C2393 H2377 0.930 . S
C2393 C2392 1.377 . S
C2393 C2394 1.379 . S
C2394 H2378 0.931 . S
C2394 C2388 1.383 . S
C2394 C2393 1.379 . S
H2395 C2389 0.959 . S
H2396 C2389 0.961 . S
H2397 C2389 0.960 . S
H2398 C2390 0.930 . S
H2399 C2391 0.929 . S
H2400 C2408 0.929 . S
H2401 C2410 0.930 . S
H2402 C2412 0.930 . S
H2403 C2415 0.929 . S
H2404 C2418 0.930 . S
H2405 C2420 0.960 . S
H2406 C2420 0.960 . S
H2407 C2420 0.960 . S
C2408 H2400 0.929 . S
C2408 C2409 1.377 . S
C2408 C2410 1.384 . S
C2409 C2408 1.377 . S
C2409 C2415 1.390 . S
C2410 H2401 0.930 . S
C2410 C2408 1.384 . S
C2410 C2411 1.372 . S
C2411 C2410 1.372 . S
C2411 C2412 1.400 . S
C2411 C2416 1.490 . S
C2412 H2402 0.930 . S
C2412 C2411 1.400 . S
C2412 C2415 1.386 . S
H2413 C2429 0.930 . S
H2414 C2430 0.931 . S
C2415 H2403 0.929 . S
C2415 C2409 1.390 . S
C2415 C2412 1.386 . S
C2416 C2411 1.490 . S
C2416 C2418 1.395 . S
C2416 C2419 1.403 . S
H2417 C2423 0.930 . S
C2418 H2404 0.930 . S
C2418 C2416 1.395 . S
C2418 C2421 1.403 . S
C2419 C2416 1.403 . S
C2419 C2420 1.524 . S
C2419 C2423 1.400 . S
C2420 H2405 0.960 . S
C2420 H2406 0.960 . S
C2420 H2407 0.960 . S
C2420 C2419 1.524 . S
C2421 C2418 1.403 . S
C2421 C2422 1.392 . S
C2421 C2425 1.495 . S
C2422 C2421 1.392 . S
C2422 C2423 1.385 . S
C2422 C2424 1.478 . S
C2423 H2417 0.930 . S
C2423 C2419 1.400 . S
C2423 C2422 1.385 . S
C2424 C2422 1.478 . S
C2424 C2426 1.381 . S
C2424 C2430 1.383 . S
C2425 C2421 1.495 . S
C2425 H2431 0.959 . S
C2425 H2432 0.961 . S
C2425 H2433 0.960 . S
C2426 C2424 1.381 . S
C2426 C2427 1.394 . S
C2426 H2434 0.930 . S
C2427 C2426 1.394 . S
C2427 C2428 1.383 . S
C2427 H2435 0.929 . S
C2428 C2427 1.383 . S
C2428 C2429 1.377 . S
C2429 H2413 0.930 . S
C2429 C2428 1.377 . S
C2429 C2430 1.379 . S
C2430 H2414 0.931 . S
C2430 C2424 1.383 . S
C2430 C2429 1.379 . S
H2431 C2425 0.959 . S
H2432 C2425 0.961 . S
H2433 C2425 0.960 . S
H2434 C2426 0.930 . S
H2435 C2427 0.929 . S
H2436 C2444 0.929 . S
H2437 C2446 0.930 . S
H2438 C2448 0.930 . S
H2439 C2451 0.929 . S
H2440 C2454 0.930 . S
H2441 C2456 0.960 . S
H2442 C2456 0.960 . S
H2443 C2456 0.960 . S
C2444 H2436 0.929 . S
C2444 C2445 1.377 . S
C2444 C2446 1.384 . S
C2445 C2444 1.377 . S
C2445 C2451 1.390 . S
C2446 H2437 0.930 . S
C2446 C2444 1.384 . S
C2446 C2447 1.372 . S
C2447 C2446 1.372 . S
C2447 C2448 1.400 . S
C2447 C2452 1.490 . S
C2448 H2438 0.930 . S
C2448 C2447 1.400 . S
C2448 C2451 1.386 . S
H2449 C2465 0.930 . S
H2450 C2466 0.931 . S
C2451 H2439 0.929 . S
C2451 C2445 1.390 . S
C2451 C2448 1.386 . S
C2452 C2447 1.490 . S
C2452 C2454 1.395 . S
C2452 C2455 1.403 . S
H2453 C2459 0.930 . S
C2454 H2440 0.930 . S
C2454 C2452 1.395 . S
C2454 C2457 1.403 . S
C2455 C2452 1.403 . S
C2455 C2456 1.524 . S
C2455 C2459 1.400 . S
C2456 H2441 0.960 . S
C2456 H2442 0.960 . S
C2456 H2443 0.960 . S
C2456 C2455 1.524 . S
C2457 C2454 1.403 . S
C2457 C2458 1.392 . S
C2457 C2461 1.495 . S
C2458 C2457 1.392 . S
C2458 C2459 1.385 . S
C2458 C2460 1.478 . S
C2459 H2453 0.930 . S
C2459 C2455 1.400 . S
C2459 C2458 1.385 . S
C2460 C2458 1.478 . S
C2460 C2462 1.381 . S
C2460 C2466 1.383 . S
C2461 C2457 1.495 . S
C2461 H2467 0.959 . S
C2461 H2468 0.961 . S
C2461 H2469 0.960 . S
C2462 C2460 1.381 . S
C2462 C2463 1.394 . S
C2462 H2470 0.930 . S
C2463 C2462 1.394 . S
C2463 C2464 1.383 . S
C2463 H2471 0.929 . S
C2464 C2463 1.383 . S
C2464 C2465 1.377 . S
C2465 H2449 0.930 . S
C2465 C2464 1.377 . S
C2465 C2466 1.379 . S
C2466 H2450 0.931 . S
C2466 C2460 1.383 . S
C2466 C2465 1.379 . S
H2467 C2461 0.959 . S
H2468 C2461 0.961 . S
H2469 C2461 0.960 . S
H2470 C2462 0.930 . S
H2471 C2463 0.929 . S
H2472 C2480 0.929 . S
H2473 C2482 0.930 . S
H2474 C2484 0.930 . S
H2475 C2487 0.929 . S
H2476 C2490 0.930 . S
H2477 C2492 0.960 . S
H2478 C2492 0.960 . S
H2479 C2492 0.960 . S
C2480 H2472 0.929 . S
C2480 C2481 1.377 . S
C2480 C2482 1.384 . S
C2481 C2480 1.377 . S
C2481 C2487 1.390 . S
C2482 H2473 0.930 . S
C2482 C2480 1.384 . S
C2482 C2483 1.372 . S
C2483 C2482 1.372 . S
C2483 C2484 1.400 . S
C2483 C2488 1.490 . S
C2484 H2474 0.930 . S
C2484 C2483 1.400 . S
C2484 C2487 1.386 . S
H2485 C2501 0.930 . S
H2486 C2502 0.931 . S
C2487 H2475 0.929 . S
C2487 C2481 1.390 . S
C2487 C2484 1.386 . S
C2488 C2483 1.490 . S
C2488 C2490 1.395 . S
C2488 C2491 1.403 . S
H2489 C2495 0.930 . S
C2490 H2476 0.930 . S
C2490 C2488 1.395 . S
C2490 C2493 1.403 . S
C2491 C2488 1.403 . S
C2491 C2492 1.524 . S
C2491 C2495 1.400 . S
C2492 H2477 0.960 . S
C2492 H2478 0.960 . S
C2492 H2479 0.960 . S
C2492 C2491 1.524 . S
C2493 C2490 1.403 . S
C2493 C2494 1.392 . S
C2493 C2497 1.495 . S
C2494 C2493 1.392 . S
C2494 C2495 1.385 . S
C2494 C2496 1.478 . S
C2495 H2489 0.930 . S
C2495 C2491 1.400 . S
C2495 C2494 1.385 . S
C2496 C2494 1.478 . S
C2496 C2498 1.381 . S
C2496 C2502 1.383 . S
C2497 C2493 1.495 . S
C2497 H2503 0.959 . S
C2497 H2504 0.961 . S
C2497 H2505 0.960 . S
C2498 C2496 1.381 . S
C2498 C2499 1.394 . S
C2498 H2506 0.930 . S
C2499 C2498 1.394 . S
C2499 C2500 1.383 . S
C2499 H2507 0.929 . S
C2500 C2499 1.383 . S
C2500 C2501 1.377 . S
C2501 H2485 0.930 . S
C2501 C2500 1.377 . S
C2501 C2502 1.379 . S
C2502 H2486 0.931 . S
C2502 C2496 1.383 . S
C2502 C2501 1.379 . S
H2503 C2497 0.959 . S
H2504 C2497 0.961 . S
H2505 C2497 0.960 . S
H2506 C2498 0.930 . S
H2507 C2499 0.929 . S
H2508 C2516 0.929 . S
H2509 C2518 0.930 . S
H2510 C2520 0.930 . S
H2511 C2523 0.929 . S
H2512 C2526 0.930 . S
H2513 C2528 0.960 . S
H2514 C2528 0.960 . S
H2515 C2528 0.960 . S
C2516 H2508 0.929 . S
C2516 C2517 1.377 . S
C2516 C2518 1.384 . S
C2517 C2516 1.377 . S
C2517 C2523 1.390 . S
C2518 H2509 0.930 . S
C2518 C2516 1.384 . S
C2518 C2519 1.372 . S
C2519 C2518 1.372 . S
C2519 C2520 1.400 . S
C2519 C2524 1.490 . S
C2520 H2510 0.930 . S
C2520 C2519 1.400 . S
C2520 C2523 1.386 . S
H2521 C2537 0.930 . S
H2522 C2538 0.931 . S
C2523 H2511 0.929 . S
C2523 C2517 1.390 . S
C2523 C2520 1.386 . S
C2524 C2519 1.490 . S
C2524 C2526 1.395 . S
C2524 C2527 1.403 . S
H2525 C2531 0.930 . S
C2526 H2512 0.930 . S
C2526 C2524 1.395 . S
C2526 C2529 1.403 . S
C2527 C2524 1.403 . S
C2527 C2528 1.524 . S
C2527 C2531 1.400 . S
C2528 H2513 0.960 . S
C2528 H2514 0.960 . S
C2528 H2515 0.960 . S
C2528 C2527 1.524 . S
C2529 C2526 1.403 . S
C2529 C2530 1.392 . S
C2529 C2533 1.495 . S
C2530 C2529 1.392 . S
C2530 C2531 1.385 . S
C2530 C2532 1.478 . S
C2531 H2525 0.930 . S
C2531 C2527 1.400 . S
C2531 C2530 1.385 . S
C2532 C2530 1.478 . S
C2532 C2534 1.381 . S
C2532 C2538 1.383 . S
C2533 C2529 1.495 . S
C2533 H2539 0.959 . S
C2533 H2540 0.961 . S
C2533 H2541 0.960 . S
C2534 C2532 1.381 . S
C2534 C2535 1.394 . S
C2534 H2542 0.930 . S
C2535 C2534 1.394 . S
C2535 C2536 1.383 . S
C2535 H2543 0.929 . S
C2536 C2535 1.383 . S
C2536 C2537 1.377 . S
C2537 H2521 0.930 . S
C2537 C2536 1.377 . S
C2537 C2538 1.379 . S
C2538 H2522 0.931 . S
C2538 C2532 1.383 . S
C2538 C2537 1.379 . S
H2539 C2533 0.959 . S
H2540 C2533 0.961 . S
H2541 C2533 0.960 . S
H2542 C2534 0.930 . S
H2543 C2535 0.929 . S
H2544 C2552 0.929 . S
H2545 C2554 0.930 . S
H2546 C2556 0.930 . S
H2547 C2559 0.926 . S
H2548 C2562 0.930 . S
H2549 C2564 0.960 . S
H2550 C2564 0.960 . S
H2551 C2564 0.960 . S
C2552 H2544 0.929 . S
C2552 C2553 1.377 . S
C2552 C2554 1.384 . S
C2553 C2552 1.377 . S
C2553 C2559 1.393 1_455 S
C2554 H2545 0.930 . S
C2554 C2552 1.384 . S
C2554 C2555 1.372 . S
C2555 C2554 1.372 . S
C2555 C2556 1.400 1_455 S
C2555 C2560 1.490 . S
C2556 H2546 0.930 . S
C2556 C2555 1.400 1_655 S
C2556 C2559 1.385 . S
H2557 C2573 0.930 . S
H2558 C2574 0.931 . S
C2559 H2547 0.926 . S
C2559 C2553 1.393 1_655 S
C2559 C2556 1.385 . S
C2560 C2555 1.490 . S
C2560 C2562 1.395 . S
C2560 C2563 1.403 . S
H2561 C2567 0.930 . S
C2562 H2548 0.930 . S
C2562 C2560 1.395 . S
C2562 C2565 1.403 . S
C2563 C2560 1.403 . S
C2563 C2564 1.524 . S
C2563 C2567 1.400 . S
C2564 H2549 0.960 . S
C2564 H2550 0.960 . S
C2564 H2551 0.960 . S
C2564 C2563 1.524 . S
C2565 C2562 1.403 . S
C2565 C2566 1.392 . S
C2565 C2569 1.495 . S
C2566 C2565 1.392 . S
C2566 C2567 1.385 . S
C2566 C2568 1.478 . S
C2567 H2561 0.930 . S
C2567 C2563 1.400 . S
C2567 C2566 1.385 . S
C2568 C2566 1.478 . S
C2568 C2570 1.381 . S
C2568 C2574 1.383 1_455 S
C2569 C2565 1.495 . S
C2569 H2575 0.959 . S
C2569 H2576 0.961 1_455 S
C2569 H2577 0.960 . S
C2570 C2568 1.381 . S
C2570 C2571 1.394 . S
C2570 H2578 0.930 . S
C2571 C2570 1.394 . S
C2571 C2572 1.383 . S
C2571 H2579 0.929 . S
C2572 C2571 1.383 . S
C2572 C2573 1.377 1_455 S
C2573 H2557 0.930 . S
C2573 C2572 1.377 1_655 S
C2573 C2574 1.379 . S
C2574 H2558 0.931 . S
C2574 C2568 1.383 1_655 S
C2574 C2573 1.379 . S
H2575 C2569 0.959 . S
H2576 C2569 0.961 1_655 S
H2577 C2569 0.960 . S
H2578 C2570 0.930 . S
H2579 C2571 0.929 . S
H2580 C2588 0.929 . S
H2581 C2590 0.911 1_655 S
H2582 C2592 0.930 . S
H2583 C2595 0.929 . S
H2584 C2598 0.930 . S
H2585 C2600 0.960 . S
H2586 C2600 0.960 . S
H2587 C2600 0.960 . S
C2588 H2580 0.929 . S
C2588 C2589 1.377 . S
C2588 C2590 1.384 . S
C2589 C2588 1.377 . S
C2589 C2595 1.390 . S
C2590 H2581 0.911 1_455 S
C2590 C2588 1.384 . S
C2590 C2591 1.372 . S
C2591 C2590 1.372 . S
C2591 C2592 1.400 . S
C2591 C2596 1.490 . S
C2592 H2582 0.930 . S
C2592 C2591 1.400 . S
C2592 C2595 1.386 . S
H2593 C2609 0.930 . S
H2594 C2610 0.931 . S
C2595 H2583 0.929 . S
C2595 C2589 1.390 . S
C2595 C2592 1.386 . S
C2596 C2591 1.490 . S
C2596 C2598 1.395 1_455 S
C2596 C2599 1.403 . S
H2597 C2603 0.930 . S
C2598 H2584 0.930 . S
C2598 C2596 1.395 1_655 S
C2598 C2601 1.403 . S
C2599 C2596 1.403 . S
C2599 C2600 1.524 . S
C2599 C2603 1.400 . S
C2600 H2585 0.960 . S
C2600 H2586 0.960 . S
C2600 H2587 0.960 . S
C2600 C2599 1.524 . S
C2601 C2598 1.403 . S
C2601 C2602 1.392 1_655 S
C2601 C2605 1.495 . S
C2602 C2601 1.392 1_455 S
C2602 C2603 1.385 . S
C2602 C2604 1.478 . S
C2603 H2597 0.930 . S
C2603 C2599 1.400 . S
C2603 C2602 1.385 . S
C2604 C2602 1.478 . S
C2604 C2606 1.381 1_455 S
C2604 C2610 1.383 . S
C2605 C2601 1.495 . S
C2605 H2611 0.959 . S
C2605 H2612 0.961 . S
C2605 H2613 0.960 . S
C2606 C2604 1.381 1_655 S
C2606 C2607 1.394 . S
C2606 H2614 0.930 . S
C2607 C2606 1.394 . S
C2607 C2608 1.379 1_655 S
C2607 H2615 0.929 . S
C2608 C2607 1.379 1_455 S
C2608 C2609 1.382 . S
C2609 H2593 0.930 . S
C2609 C2608 1.382 . S
C2609 C2610 1.379 . S
C2610 H2594 0.931 . S
C2610 C2604 1.383 . S
C2610 C2609 1.379 . S
H2611 C2605 0.959 . S
H2612 C2605 0.961 . S
H2613 C2605 0.960 . S
H2614 C2606 0.930 . S
H2615 C2607 0.929 . S
H2616 C2624 0.929 . S
H2617 C2626 0.930 . S
H2618 C2628 0.930 1_565 S
H2619 C2631 0.916 1_565 S
H2620 C2634 0.930 1_565 S
H2621 C2636 0.960 . S
H2622 C2636 0.960 . S
H2623 C2636 0.960 . S
C2624 H2616 0.929 . S
C2624 C2625 1.377 . S
C2624 C2626 1.384 . S
C2625 C2624 1.377 . S
C2625 C2631 1.390 . S
C2626 H2617 0.930 . S
C2626 C2624 1.384 . S
C2626 C2627 1.372 . S
C2627 C2626 1.372 . S
C2627 C2628 1.400 . S
C2627 C2632 1.490 . S
C2628 H2618 0.930 1_545 S
C2628 C2627 1.400 . S
C2628 C2631 1.386 . S
H2629 C2645 0.930 . S
H2630 C2646 0.931 . S
C2631 H2619 0.916 1_545 S
C2631 C2625 1.390 . S
C2631 C2628 1.386 . S
C2632 C2627 1.490 . S
C2632 C2634 1.395 . S
C2632 C2635 1.403 . S
H2633 C2639 0.930 . S
C2634 H2620 0.930 1_545 S
C2634 C2632 1.395 . S
C2634 C2637 1.403 1_545 S
C2635 C2632 1.403 . S
C2635 C2636 1.524 . S
C2635 C2639 1.400 . S
C2636 H2621 0.960 . S
C2636 H2622 0.960 . S
C2636 H2623 0.960 . S
C2636 C2635 1.524 . S
C2637 C2634 1.403 1_565 S
C2637 C2638 1.392 1_565 S
C2637 C2641 1.495 . S
C2638 C2637 1.392 1_545 S
C2638 C2639 1.385 . S
C2638 C2640 1.478 . S
C2639 H2633 0.930 . S
C2639 C2635 1.400 . S
C2639 C2638 1.385 . S
C2640 C2638 1.478 . S
C2640 C2642 1.381 . S
C2640 C2646 1.383 1_545 S
C2641 C2637 1.495 . S
C2641 H2647 0.959 . S
C2641 H2648 0.961 . S
C2641 H2649 0.960 . S
C2642 C2640 1.381 . S
C2642 C2643 1.394 . S
C2642 H2650 0.930 . S
C2643 C2642 1.394 . S
C2643 C2644 1.419 . S
C2643 H2651 0.929 . S
C2644 C2643 1.419 . S
C2644 C2645 1.346 1_545 S
C2645 H2629 0.930 . S
C2645 C2644 1.346 1_565 S
C2645 C2646 1.379 . S
C2646 H2630 0.931 . S
C2646 C2640 1.383 1_565 S
C2646 C2645 1.379 . S
H2647 C2641 0.959 . S
H2648 C2641 0.961 . S
H2649 C2641 0.960 . S
H2650 C2642 0.930 . S
H2651 C2643 0.929 . S
H2652 C2660 0.929 . S
H2653 C2662 0.930 . S
H2654 C2664 0.950 . S
H2655 C2667 0.899 1_565 S
H2656 C2670 0.930 . S
H2657 C2672 0.960 . S
H2658 C2672 0.960 . S
H2659 C2672 0.960 . S
C2660 H2652 0.929 . S
C2660 C2661 1.377 . S
C2660 C2662 1.384 . S
C2661 C2660 1.377 . S
C2661 C2667 1.425 . S
C2662 H2653 0.930 . S
C2662 C2660 1.384 . S
C2662 C2663 1.372 . S
C2663 C2662 1.372 . S
C2663 C2664 1.383 1_545 S
C2663 C2668 1.490 . S
C2664 H2654 0.950 . S
C2664 C2663 1.383 1_565 S
C2664 C2667 1.383 1_565 S
H2665 C2681 0.930 . S
H2666 C2682 0.931 . S
C2667 H2655 0.899 1_545 S
C2667 C2661 1.425 . S
C2667 C2664 1.383 1_545 S
C2668 C2663 1.490 . S
C2668 C2670 1.395 . S
C2668 C2671 1.403 1_545 S
H2669 C2675 0.930 . S
C2670 H2656 0.930 . S
C2670 C2668 1.395 . S
C2670 C2673 1.403 . S
C2671 C2668 1.403 1_565 S
C2671 C2672 1.524 . S
C2671 C2675 1.400 . S
C2672 H2657 0.960 . S
C2672 H2658 0.960 . S
C2672 H2659 0.960 . S
C2672 C2671 1.524 . S
C2673 C2670 1.403 . S
C2673 C2674 1.392 . S
C2673 C2677 1.495 . S
C2674 C2673 1.392 . S
C2674 C2675 1.385 1_545 S
C2674 C2676 1.478 . S
C2675 H2669 0.930 . S
C2675 C2671 1.400 . S
C2675 C2674 1.385 1_565 S
C2676 C2674 1.478 . S
C2676 C2678 1.381 . S
C2676 C2682 1.383 1_545 S
C2677 C2673 1.495 . S
C2677 H2683 0.959 . S
C2677 H2684 0.961 . S
C2677 H2685 0.960 . S
C2678 C2676 1.381 . S
C2678 C2679 1.394 . S
C2678 H2686 0.930 . S
C2679 C2678 1.394 . S
C2679 C2680 1.383 . S
C2679 H2687 0.929 . S
C2680 C2679 1.383 . S
C2680 C2681 1.377 1_545 S
C2681 H2665 0.930 . S
C2681 C2680 1.377 1_565 S
C2681 C2682 1.379 . S
C2682 H2666 0.931 . S
C2682 C2676 1.383 1_565 S
C2682 C2681 1.379 . S
H2683 C2677 0.959 . S
H2684 C2677 0.961 . S
H2685 C2677 0.960 . S
H2686 C2678 0.930 . S
H2687 C2679 0.929 . S
H2688 C2696 0.970 . S
H2689 C2698 0.930 . S
H2690 C2700 0.930 . S
H2691 C2703 0.929 . S
H2692 C2706 0.930 . S
H2693 C2708 0.960 . S
H2694 C2708 0.960 . S
H2695 C2708 0.960 . S
C2696 H2688 0.970 . S
C2696 C2697 1.333 1_556 S
C2696 C2698 1.391 . S
C2697 C2696 1.333 1_554 S
C2697 C2703 1.390 . S
C2698 H2689 0.930 . S
C2698 C2696 1.391 . S
C2698 C2699 1.372 1_556 S
C2699 C2698 1.372 1_554 S
C2699 C2700 1.400 . S
C2699 C2704 1.490 . S
C2700 H2690 0.930 . S
C2700 C2699 1.400 . S
C2700 C2703 1.386 . S
H2701 C2717 0.930 . S
H2702 C2718 0.931 . S
C2703 H2691 0.929 . S
C2703 C2697 1.390 . S
C2703 C2700 1.386 . S
C2704 C2699 1.490 . S
C2704 C2706 1.395 1_554 S
C2704 C2707 1.403 . S
H2705 C2711 0.930 . S
C2706 H2692 0.930 . S
C2706 C2704 1.395 1_556 S
C2706 C2709 1.403 . S
C2707 C2704 1.403 . S
C2707 C2708 1.524 . S
C2707 C2711 1.400 . S
C2708 H2693 0.960 . S
C2708 H2694 0.960 . S
C2708 H2695 0.960 . S
C2708 C2707 1.524 . S
C2709 C2706 1.403 . S
C2709 C2710 1.392 1_556 S
C2709 C2713 1.495 . S
C2710 C2709 1.392 1_554 S
C2710 C2711 1.385 . S
C2710 C2712 1.478 . S
C2711 H2705 0.930 . S
C2711 C2707 1.400 . S
C2711 C2710 1.385 . S
C2712 C2710 1.478 . S
C2712 C2714 1.381 1_554 S
C2712 C2718 1.383 . S
C2713 C2709 1.495 . S
C2713 H2719 0.959 . S
C2713 H2720 0.961 . S
C2713 H2721 0.960 . S
C2714 C2712 1.381 1_556 S
C2714 C2715 1.394 . S
C2714 H2722 0.930 . S
C2715 C2714 1.394 . S
C2715 C2716 1.358 1_556 S
C2715 H2723 0.929 . S
C2716 C2715 1.358 1_554 S
C2716 C2717 1.403 . S
C2717 H2701 0.930 . S
C2717 C2716 1.403 . S
C2717 C2718 1.379 . S
C2718 H2702 0.931 . S
C2718 C2712 1.383 . S
C2718 C2717 1.379 . S
H2719 C2713 0.959 . S
H2720 C2713 0.961 . S
H2721 C2713 0.960 . S
H2722 C2714 0.930 . S
H2723 C2715 0.929 . S
H2724 C2732 0.929 . S
H2725 C2734 0.930 . S
H2726 C2736 0.930 1_556 S
H2727 C2739 0.929 1_556 S
H2728 C2742 0.930 . S
H2729 C2744 0.960 . S
H2730 C2744 0.960 . S
H2731 C2744 0.960 . S
C2732 H2724 0.929 . S
C2732 C2733 1.377 . S
C2732 C2734 1.384 . S
C2733 C2732 1.377 . S
C2733 C2739 1.390 . S
C2734 H2725 0.930 . S
C2734 C2732 1.384 . S
C2734 C2735 1.372 . S
C2735 C2734 1.372 . S
C2735 C2736 1.400 . S
C2735 C2740 1.490 . S
C2736 H2726 0.930 1_554 S
C2736 C2735 1.400 . S
C2736 C2739 1.386 . S
H2737 C2753 0.930 . S
H2738 C2754 0.931 . S
C2739 H2727 0.929 1_554 S
C2739 C2733 1.390 . S
C2739 C2736 1.386 . S
C2740 C2735 1.490 . S
C2740 C2742 1.395 . S
C2740 C2743 1.403 1_554 S
H2741 C2747 0.930 . S
C2742 H2728 0.930 . S
C2742 C2740 1.395 . S
C2742 C2745 1.403 . S
C2743 C2740 1.403 1_556 S
C2743 C2744 1.524 . S
C2743 C2747 1.400 . S
C2744 H2729 0.960 . S
C2744 H2730 0.960 . S
C2744 H2731 0.960 . S
C2744 C2743 1.524 . S
C2745 C2742 1.403 . S
C2745 C2746 1.392 . S
C2745 C2749 1.495 . S
C2746 C2745 1.392 . S
C2746 C2747 1.385 1_554 S
C2746 C2748 1.478 . S
C2747 H2741 0.930 . S
C2747 C2743 1.400 . S
C2747 C2746 1.385 1_556 S
C2748 C2746 1.478 . S
C2748 C2750 1.381 . S
C2748 C2754 1.383 1_554 S
C2749 C2745 1.495 . S
C2749 H2755 0.959 . S
C2749 H2756 0.961 . S
C2749 H2757 0.960 . S
C2750 C2748 1.381 . S
C2750 C2751 1.394 . S
C2750 H2758 0.930 . S
C2751 C2750 1.394 . S
C2751 C2752 1.383 . S
C2751 H2759 0.929 . S
C2752 C2751 1.383 . S
C2752 C2753 1.377 1_554 S
C2753 H2737 0.930 . S
C2753 C2752 1.377 1_556 S
C2753 C2754 1.379 . S
C2754 H2738 0.931 . S
C2754 C2748 1.383 1_556 S
C2754 C2753 1.379 . S
H2755 C2749 0.959 . S
H2756 C2749 0.961 . S
H2757 C2749 0.960 . S
H2758 C2750 0.930 . S
H2759 C2751 0.929 . S
H2760 C2768 0.929 . S
H2761 C2770 0.930 . S
H2762 C2772 0.930 . S
H2763 C2775 0.929 . S
H2764 C2778 0.930 . S
H2765 C2780 0.960 . S
H2766 C2780 0.960 . S
H2767 C2780 0.960 . S
C2768 H2760 0.929 . S
C2768 C2769 1.377 . S
C2768 C2770 1.384 . S
C2769 C2768 1.377 . S
C2769 C2775 1.390 . S
C2770 H2761 0.930 . S
C2770 C2768 1.384 . S
C2770 C2771 1.372 . S
C2771 C2770 1.372 . S
C2771 C2772 1.400 . S
C2771 C2776 1.490 . S
C2772 H2762 0.930 . S
C2772 C2771 1.400 . S
C2772 C2775 1.386 . S
H2773 C2789 0.930 . S
H2774 C2790 0.931 . S
C2775 H2763 0.929 . S
C2775 C2769 1.390 . S
C2775 C2772 1.386 . S
C2776 C2771 1.490 . S
C2776 C2778 1.395 . S
C2776 C2779 1.403 . S
H2777 C2783 0.930 . S
C2778 H2764 0.930 . S
C2778 C2776 1.395 . S
C2778 C2781 1.423 . S
C2779 C2776 1.403 . S
C2779 C2780 1.524 . S
C2779 C2783 1.400 1_545 S
C2780 H2765 0.960 . S
C2780 H2766 0.960 . S
C2780 H2767 0.960 . S
C2780 C2779 1.524 . S
C2781 C2778 1.423 . S
C2781 C2782 1.380 1_545 S
C2781 C2785 1.488 1_545 S
C2782 C2781 1.380 1_565 S
C2782 C2783 1.385 . S
C2782 C2784 1.478 . S
C2783 H2777 0.930 . S
C2783 C2779 1.400 1_565 S
C2783 C2782 1.385 . S
C2784 C2782 1.478 . S
C2784 C2786 1.381 . S
C2784 C2790 1.383 . S
C2785 C2781 1.488 1_565 S
C2785 H2791 0.959 1_565 S
C2785 H2792 0.961 . S
C2785 H2793 0.960 . S
C2786 C2784 1.381 . S
C2786 C2787 1.394 . S
C2786 H2794 0.930 . S
C2787 C2786 1.394 . S
C2787 C2788 1.383 . S
C2787 H2795 0.929 . S
C2788 C2787 1.383 . S
C2788 C2789 1.377 . S
C2789 H2773 0.930 . S
C2789 C2788 1.377 . S
C2789 C2790 1.379 . S
C2790 H2774 0.931 . S
C2790 C2784 1.383 . S
C2790 C2789 1.379 . S
H2791 C2785 0.959 1_545 S
H2792 C2785 0.961 . S
H2793 C2785 0.960 . S
H2794 C2786 0.930 . S
H2795 C2787 0.929 . S
H2796 C2804 0.929 . S
H2797 C2806 0.930 . S
H2798 C2808 0.930 . S
H2799 C2811 0.929 . S
H2800 C2814 0.930 . S
H2801 C2816 0.960 . S
H2802 C2816 0.960 . S
H2803 C2816 0.960 . S
C2804 H2796 0.929 . S
C2804 C2805 1.377 . S
C2804 C2806 1.384 . S
C2805 C2804 1.377 . S
C2805 C2811 1.390 . S
C2806 H2797 0.930 . S
C2806 C2804 1.384 . S
C2806 C2807 1.372 . S
C2807 C2806 1.372 . S
C2807 C2808 1.400 . S
C2807 C2812 1.490 . S
C2808 H2798 0.930 . S
C2808 C2807 1.400 . S
C2808 C2811 1.386 . S
H2809 C2825 0.930 . S
H2810 C2826 0.931 . S
C2811 H2799 0.929 . S
C2811 C2805 1.390 . S
C2811 C2808 1.386 . S
C2812 C2807 1.490 . S
C2812 C2814 1.395 . S
C2812 C2815 1.403 . S
H2813 C2819 0.930 . S
C2814 H2800 0.930 . S
C2814 C2812 1.395 . S
C2814 C2817 1.403 1_565 S
C2815 C2812 1.403 . S
C2815 C2816 1.524 . S
C2815 C2819 1.400 1_565 S
C2816 H2801 0.960 . S
C2816 H2802 0.960 . S
C2816 H2803 0.960 . S
C2816 C2815 1.524 . S
C2817 C2814 1.403 1_545 S
C2817 C2818 1.392 . S
C2817 C2821 1.495 . S
C2818 C2817 1.392 . S
C2818 C2819 1.385 . S
C2818 C2820 1.478 . S
C2819 H2813 0.930 . S
C2819 C2815 1.400 1_545 S
C2819 C2818 1.385 . S
C2820 C2818 1.478 . S
C2820 C2822 1.381 . S
C2820 C2826 1.383 . S
C2821 C2817 1.495 . S
C2821 H2827 0.959 . S
C2821 H2828 0.961 . S
C2821 H2829 0.960 . S
C2822 C2820 1.381 . S
C2822 C2823 1.394 . S
C2822 H2830 0.930 . S
C2823 C2822 1.394 . S
C2823 C2824 1.383 . S
C2823 H2831 0.929 . S
C2824 C2823 1.383 . S
C2824 C2825 1.377 . S
C2825 H2809 0.930 . S
C2825 C2824 1.377 . S
C2825 C2826 1.379 . S
C2826 H2810 0.931 . S
C2826 C2820 1.383 . S
C2826 C2825 1.379 . S
H2827 C2821 0.959 . S
H2828 C2821 0.961 . S
H2829 C2821 0.960 . S
H2830 C2822 0.930 . S
H2831 C2823 0.929 . S
H2832 C2840 0.929 . S
H2833 C2842 0.930 . S
H2834 C2844 0.930 . S
H2835 C2847 0.929 . S
H2836 C2850 0.930 . S
H2837 C2852 0.960 . S
H2838 C2852 0.960 . S
H2839 C2852 0.960 . S
C2840 H2832 0.929 . S
C2840 C2841 1.377 . S
C2840 C2842 1.384 . S
C2841 C2840 1.377 . S
C2841 C2847 1.390 . S
C2842 H2833 0.930 . S
C2842 C2840 1.384 . S
C2842 C2843 1.372 . S
C2843 C2842 1.372 . S
C2843 C2844 1.400 . S
C2843 C2848 1.490 . S
C2844 H2834 0.930 . S
C2844 C2843 1.400 . S
C2844 C2847 1.386 . S
H2845 C2861 0.930 . S
H2846 C2862 0.931 . S
C2847 H2835 0.929 . S
C2847 C2841 1.390 . S
C2847 C2844 1.386 . S
C2848 C2843 1.490 . S
C2848 C2850 1.395 . S
C2848 C2851 1.403 . S
H2849 C2855 0.930 . S
C2850 H2836 0.930 . S
C2850 C2848 1.395 . S
C2850 C2853 1.404 . S
C2851 C2848 1.403 . S
C2851 C2852 1.524 . S
C2851 C2855 1.400 1_554 S
C2852 H2837 0.960 . S
C2852 H2838 0.960 . S
C2852 H2839 0.960 . S
C2852 C2851 1.524 . S
C2853 C2850 1.404 . S
C2853 C2854 1.392 1_554 S
C2853 C2857 1.495 1_554 S
C2854 C2853 1.392 1_556 S
C2854 C2855 1.385 . S
C2854 C2856 1.478 . S
C2855 H2849 0.930 . S
C2855 C2851 1.400 1_556 S
C2855 C2854 1.385 . S
C2856 C2854 1.478 . S
C2856 C2858 1.381 . S
C2856 C2862 1.383 . S
C2857 C2853 1.495 1_556 S
C2857 H2863 0.959 1_556 S
C2857 H2864 0.961 . S
C2857 H2865 0.960 . S
C2858 C2856 1.381 . S
C2858 C2859 1.394 . S
C2858 H2866 0.930 . S
C2859 C2858 1.394 . S
C2859 C2860 1.383 . S
C2859 H2867 0.929 . S
C2860 C2859 1.383 . S
C2860 C2861 1.377 . S
C2861 H2845 0.930 . S
C2861 C2860 1.377 . S
C2861 C2862 1.379 . S
C2862 H2846 0.931 . S
C2862 C2856 1.383 . S
C2862 C2861 1.379 . S
H2863 C2857 0.959 1_554 S
H2864 C2857 0.961 . S
H2865 C2857 0.960 . S
H2866 C2858 0.930 . S
H2867 C2859 0.929 . S
H2868 C2876 0.929 . S
H2869 C2878 0.930 . S
H2870 C2880 0.930 . S
H2871 C2883 0.929 . S
H2872 C2886 0.930 . S
H2873 C2888 0.960 1_554 S
H2874 C2888 0.960 . S
H2875 C2888 0.960 . S
C2876 H2868 0.929 . S
C2876 C2877 1.377 . S
C2876 C2878 1.384 . S
C2877 C2876 1.377 . S
C2877 C2883 1.390 . S
C2878 H2869 0.930 . S
C2878 C2876 1.384 . S
C2878 C2879 1.372 . S
C2879 C2878 1.372 . S
C2879 C2880 1.400 . S
C2879 C2884 1.490 . S
C2880 H2870 0.930 . S
C2880 C2879 1.400 . S
C2880 C2883 1.386 . S
H2881 C2897 0.930 . S
H2882 C2898 0.931 . S
C2883 H2871 0.929 . S
C2883 C2877 1.390 . S
C2883 C2880 1.386 . S
C2884 C2879 1.490 . S
C2884 C2886 1.395 . S
C2884 C2887 1.376 1_556 S
H2885 C2891 0.930 . S
C2886 H2872 0.930 . S
C2886 C2884 1.395 . S
C2886 C2889 1.403 1_556 S
C2887 C2884 1.376 1_554 S
C2887 C2888 1.510 1_554 S
C2887 C2891 1.443 . S
C2888 H2873 0.960 1_556 S
C2888 H2874 0.960 . S
C2888 H2875 0.960 . S
C2888 C2887 1.510 1_556 S
C2889 C2886 1.403 1_554 S
C2889 C2890 1.392 . S
C2889 C2893 1.495 . S
C2890 C2889 1.392 . S
C2890 C2891 1.385 . S
C2890 C2892 1.478 . S
C2891 H2885 0.930 . S
C2891 C2887 1.443 . S
C2891 C2890 1.385 . S
C2892 C2890 1.478 . S
C2892 C2894 1.381 . S
C2892 C2898 1.383 . S
C2893 C2889 1.495 . S
C2893 H2899 0.959 . S
C2893 H2900 0.961 . S
C2893 H2901 0.960 . S
C2894 C2892 1.381 . S
C2894 C2895 1.394 . S
C2894 H2902 0.930 . S
C2895 C2894 1.394 . S
C2895 C2896 1.383 . S
C2895 H2903 0.929 . S
C2896 C2895 1.383 . S
C2896 C2897 1.377 . S
C2897 H2881 0.930 . S
C2897 C2896 1.377 . S
C2897 C2898 1.379 . S
C2898 H2882 0.931 . S
C2898 C2892 1.383 . S
C2898 C2897 1.379 . S
H2899 C2893 0.959 . S
H2900 C2893 0.961 . S
H2901 C2893 0.960 . S
H2902 C2894 0.930 . S
H2903 C2895 0.929 . S
H2904 C2912 0.929 . S
H2905 C2914 0.930 . S
H2906 C2916 0.930 . S
H2907 C2919 0.929 . S
H2908 C2922 0.960 . S
H2909 C2924 0.960 . S
H2910 C2924 0.960 . S
H2911 C2924 0.960 . S
C2912 H2904 0.929 . S
C2912 C2913 1.377 . S
C2912 C2914 1.384 . S
C2913 C2912 1.377 . S
C2913 C2919 1.390 . S
C2914 H2905 0.930 . S
C2914 C2912 1.384 . S
C2914 C2915 1.372 . S
C2915 C2914 1.372 . S
C2915 C2916 1.400 . S
C2915 C2920 1.490 . S
C2916 H2906 0.930 . S
C2916 C2915 1.400 . S
C2916 C2919 1.386 . S
H2917 C2933 0.930 . S
H2918 C2934 0.931 . S
C2919 H2907 0.929 . S
C2919 C2913 1.390 . S
C2919 C2916 1.386 . S
C2920 C2915 1.490 . S
C2920 C2922 1.426 . S
C2920 C2923 1.403 . S
H2921 C2927 0.930 . S
C2922 H2908 0.960 . S
C2922 C2920 1.426 . S
C2922 C2925 1.344 1_655 S
C2923 C2920 1.403 . S
C2923 C2924 1.524 . S
C2923 C2927 1.400 1_655 S
C2924 H2909 0.960 . S
C2924 H2910 0.960 . S
C2924 H2911 0.960 . S
C2924 C2923 1.524 . S
C2925 C2922 1.344 1_455 S
C2925 C2926 1.392 . S
C2925 C2929 1.495 . S
C2926 C2925 1.392 . S
C2926 C2927 1.385 . S
C2926 C2928 1.478 . S
C2927 H2921 0.930 . S
C2927 C2923 1.400 1_455 S
C2927 C2926 1.385 . S
C2928 C2926 1.478 . S
C2928 C2930 1.381 . S
C2928 C2934 1.383 . S
C2929 C2925 1.495 . S
C2929 H2935 0.959 . S
C2929 H2936 0.961 . S
C2929 H2937 0.960 . S
C2930 C2928 1.381 . S
C2930 C2931 1.394 . S
C2930 H2938 0.930 . S
C2931 C2930 1.394 . S
C2931 C2932 1.383 . S
C2931 H2939 0.929 . S
C2932 C2931 1.383 . S
C2932 C2933 1.377 . S
C2933 H2917 0.930 . S
C2933 C2932 1.377 . S
C2933 C2934 1.379 . S
C2934 H2918 0.931 . S
C2934 C2928 1.383 . S
C2934 C2933 1.379 . S
H2935 C2929 0.959 . S
H2936 C2929 0.961 . S
H2937 C2929 0.960 . S
H2938 C2930 0.930 . S
H2939 C2931 0.929 . S
H2940 C2948 0.929 . S
H2941 C2950 0.930 . S
H2942 C2952 0.930 . S
H2943 C2955 0.929 . S
H2944 C2958 0.930 . S
H2945 C2960 0.960 . S
H2946 C2960 0.960 . S
H2947 C2960 0.960 . S
C2948 H2940 0.929 . S
C2948 C2949 1.377 . S
C2948 C2950 1.384 . S
C2949 C2948 1.377 . S
C2949 C2955 1.390 . S
C2950 H2941 0.930 . S
C2950 C2948 1.384 . S
C2950 C2951 1.372 . S
C2951 C2950 1.372 . S
C2951 C2952 1.400 . S
C2951 C2956 1.490 . S
C2952 H2942 0.930 . S
C2952 C2951 1.400 . S
C2952 C2955 1.386 . S
H2953 C2969 0.930 . S
H2954 C2970 0.931 . S
C2955 H2943 0.929 . S
C2955 C2949 1.390 . S
C2955 C2952 1.386 . S
C2956 C2951 1.490 . S
C2956 C2958 1.395 . S
C2956 C2959 1.403 . S
H2957 C2963 0.930 . S
C2958 H2944 0.930 . S
C2958 C2956 1.395 . S
C2958 C2961 1.435 . S
C2959 C2956 1.403 . S
C2959 C2960 1.524 . S
C2959 C2963 1.400 1_455 S
C2960 H2945 0.960 . S
C2960 H2946 0.960 . S
C2960 H2947 0.960 . S
C2960 C2959 1.524 . S
C2961 C2958 1.435 . S
C2961 C2962 1.373 1_455 S
C2961 C2965 1.485 1_455 S
C2962 C2961 1.373 1_655 S
C2962 C2963 1.385 . S
C2962 C2964 1.478 . S
C2963 H2957 0.930 . S
C2963 C2959 1.400 1_655 S
C2963 C2962 1.385 . S
C2964 C2962 1.478 . S
C2964 C2966 1.381 . S
C2964 C2970 1.383 . S
C2965 C2961 1.485 1_655 S
C2965 H2971 0.959 1_655 S
C2965 H2972 0.961 . S
C2965 H2973 0.960 . S
C2966 C2964 1.381 . S
C2966 C2967 1.394 . S
C2966 H2974 0.930 . S
C2967 C2966 1.394 . S
C2967 C2968 1.383 . S
C2967 H2975 0.929 . S
C2968 C2967 1.383 . S
C2968 C2969 1.377 . S
C2969 H2953 0.930 . S
C2969 C2968 1.377 . S
C2969 C2970 1.379 . S
C2970 H2954 0.931 . S
C2970 C2964 1.383 . S
C2970 C2969 1.379 . S
H2971 C2965 0.959 1_455 S
H2972 C2965 0.961 . S
H2973 C2965 0.960 . S
H2974 C2966 0.930 . S
H2975 C2967 0.929 . S
C825 C9 0.561 . S
C844 C787 0.361 . S
C861 C43 0.565 . S
C880 C685 0.381 . S
C897 C77 0.591 . S
C916 C753 0.420 . S
C933 C111 0.562 . S
C952 C719 0.369 . S
C969 C481 0.397 . S
C988 C145 0.538 . S
C1005 C179 0.569 . S
C1024 C515 0.367 . S
C1041 C413 0.416 . S
C1060 C213 0.678 . S
C1077 C447 0.395 . S
C1096 C247 0.482 . S
C1113 C651 0.396 . S
C1132 C281 0.513 . S
C1149 C315 0.592 . S
C1168 C583 0.421 . S
C1185 C549 0.406 . S
C1204 C349 0.624 . S
C1221 C383 0.577 . S
C1240 C617 0.417 . S
C1257 C88 2.040 . S
C1276 C682 1.982 . S
C1293 C122 2.045 . S
C1312 C784 1.962 . S
C1329 C716 1.979 . S
C1348 C20 2.045 . S
C1365 C750 1.979 . S
C1384 C54 2.044 . S
C1401 C410 1.982 . S
C1420 C258 2.047 . S
C1437 C444 1.987 . S
C1456 C224 2.029 . S
C1473 C478 1.983 . S
C1492 C190 2.031 . S
C1509 C156 2.042 . S
C1528 C512 1.971 . S
C1545 C394 2.043 . S
C1564 C546 1.985 . S
C1581 C614 1.979 . S
C1600 C360 2.046 . S
C1617 C326 2.041 . S
C1636 C648 1.997 . S
C1653 C580 1.981 . S
C1672 C292 2.038 . S
C1689 C417 0.583 . S
C1708 C379 0.399 . S
C1725 C277 0.416 . S
C1744 C451 0.679 . S
C1761 C345 0.408 . S
C1780 C485 0.578 . S
C1797 C311 0.395 . S
C1816 C519 0.511 . S
C1833 C73 0.408 . S
C1852 C553 0.575 . S
C1869 C107 0.416 . S
C1888 C587 0.666 . S
C1905 C5 0.395 . S
C1924 C621 0.481 . S
C1941 C655 0.574 . S
C1960 C39 0.409 . S
C1977 C689 0.599 . S
C1996 C243 0.442 . S
C2013 C723 0.587 . S
C2032 C175 0.439 . S
C2049 C141 0.395 . S
C2068 C757 0.483 . S
C2085 C791 0.586 . S
C2104 C209 0.407 . S
C2121 C274 1.987 . S
C2140 C496 2.034 . S
C2157 C376 1.987 . S
C2176 C530 2.032 . S
C2193 C308 1.987 . S
C2212 C428 2.034 . S
C2229 C462 2.045 . S
C2248 C342 1.961 . S
C2265 C2 1.979 . S
C2284 C666 2.047 . S
C2301 C36 1.979 . S
C2320 C632 2.042 . S
C2337 C70 1.980 . S
C2356 C598 2.051 . S
C2373 C564 2.040 . S
C2392 C104 2.001 . S
C2409 C802 2.041 . S
C2428 C138 2.000 . S
C2445 C768 2.040 . S
C2464 C206 2.001 . S
C2481 C240 1.986 . S
C2500 C734 2.037 . S
C2517 C700 2.044 . S
C2536 C172 1.972 . S
C2553 C33 1.373 . S
C2572 C67 1.359 . S
C2589 C101 1.370 . S
C2608 C135 1.370 . S
C2625 C169 1.372 . S
C2644 C237 1.359 . S
C2661 C271 1.374 . S
C2680 C203 1.366 . S
C2697 C305 1.369 . S
C2716 C373 1.376 . S
C2733 C407 1.374 . S
C2752 C339 1.368 . S
C2769 C475 1.369 . S
C2788 C441 1.376 . S
C2805 C543 1.373 . S
C2824 C509 1.374 . S
C2841 C645 1.370 . S
C2860 C577 1.379 . S
C2877 C611 1.370 . S
C2896 C679 1.369 . S
C2913 C713 1.374 . S
C2932 C781 1.370 . S
C2949 C815 1.370 . S
C2968 C747 1.369 . S
