# Generated by pormake.
# Topology bcu-i, (5)-cn, num edge types: 1
# Building blocks:
#     Node 0, Type 0, BuildingBlock: BEQFEK_clean_sbu_0, # of connection points: 5
#     Node 1, Type 0, BuildingBlock: BEQFEK_clean_sbu_0, # of connection points: 5
#     Node 2, Type 0, BuildingBlock: BEQFEK_clean_sbu_0, # of connection points: 5
#     Node 3, Type 0, BuildingBlock: BEQFEK_clean_sbu_0, # of connection points: 5
#     Node 4, Type 0, BuildingBlock: BEQFEK_clean_sbu_0, # of connection points: 5
#     Node 5, Type 0, BuildingBlock: BEQFEK_clean_sbu_0, # of connection points: 5
#     Node 6, Type 0, BuildingBlock: BEQFEK_clean_sbu_0, # of connection points: 5
#     Node 7, Type 0, BuildingBlock: BEQFEK_clean_sbu_0, # of connection points: 5
#     Node 8, Type 0, BuildingBlock: BEQFEK_clean_sbu_0, # of connection points: 5
#     Node 9, Type 0, BuildingBlock: BEQFEK_clean_sbu_0, # of connection points: 5
#     Node 10, Type 0, BuildingBlock: BEQFEK_clean_sbu_0, # of connection points: 5
#     Node 11, Type 0, BuildingBlock: BEQFEK_clean_sbu_0, # of connection points: 5
#     Node 12, Type 0, BuildingBlock: BEQFEK_clean_sbu_0, # of connection points: 5
#     Node 13, Type 0, BuildingBlock: BEQFEK_clean_sbu_0, # of connection points: 5
#     Node 14, Type 0, BuildingBlock: BEQFEK_clean_sbu_0, # of connection points: 5
#     Node 15, Type 0, BuildingBlock: BEQFEK_clean_sbu_0, # of connection points: 5
#     Edge 16, Type (0, 0), BuildingBlock: TEMPAE_clean_linker_10, # of connection points: 2
#     Edge 17, Type (0, 0), BuildingBlock: TEMPAE_clean_linker_10, # of connection points: 2
#     Edge 18, Type (0, 0), BuildingBlock: TEMPAE_clean_linker_10, # of connection points: 2
#     Edge 19, Type (0, 0), BuildingBlock: TEMPAE_clean_linker_10, # of connection points: 2
#     Edge 20, Type (0, 0), BuildingBlock: TEMPAE_clean_linker_10, # of connection points: 2
#     Edge 21, Type (0, 0), BuildingBlock: TEMPAE_clean_linker_10, # of connection points: 2
#     Edge 22, Type (0, 0), BuildingBlock: TEMPAE_clean_linker_10, # of connection points: 2
#     Edge 23, Type (0, 0), BuildingBlock: TEMPAE_clean_linker_10, # of connection points: 2
#     Edge 24, Type (0, 0), BuildingBlock: TEMPAE_clean_linker_10, # of connection points: 2
#     Edge 25, Type (0, 0), BuildingBlock: TEMPAE_clean_linker_10, # of connection points: 2
#     Edge 26, Type (0, 0), BuildingBlock: TEMPAE_clean_linker_10, # of connection points: 2
#     Edge 27, Type (0, 0), BuildingBlock: TEMPAE_clean_linker_10, # of connection points: 2
#     Edge 28, Type (0, 0), BuildingBlock: TEMPAE_clean_linker_10, # of connection points: 2
#     Edge 29, Type (0, 0), BuildingBlock: TEMPAE_clean_linker_10, # of connection points: 2
#     Edge 30, Type (0, 0), BuildingBlock: TEMPAE_clean_linker_10, # of connection points: 2
#     Edge 31, Type (0, 0), BuildingBlock: TEMPAE_clean_linker_10, # of connection points: 2
#     Edge 32, Type (0, 0), BuildingBlock: TEMPAE_clean_linker_10, # of connection points: 2
#     Edge 33, Type (0, 0), BuildingBlock: TEMPAE_clean_linker_10, # of connection points: 2
#     Edge 34, Type (0, 0), BuildingBlock: TEMPAE_clean_linker_10, # of connection points: 2
#     Edge 35, Type (0, 0), BuildingBlock: TEMPAE_clean_linker_10, # of connection points: 2
#     Edge 36, Type (0, 0), BuildingBlock: TEMPAE_clean_linker_10, # of connection points: 2
#     Edge 37, Type (0, 0), BuildingBlock: TEMPAE_clean_linker_10, # of connection points: 2
#     Edge 38, Type (0, 0), BuildingBlock: TEMPAE_clean_linker_10, # of connection points: 2
#     Edge 39, Type (0, 0), BuildingBlock: TEMPAE_clean_linker_10, # of connection points: 2
#     Edge 40, Type (0, 0), BuildingBlock: TEMPAE_clean_linker_10, # of connection points: 2
#     Edge 41, Type (0, 0), BuildingBlock: TEMPAE_clean_linker_10, # of connection points: 2
#     Edge 42, Type (0, 0), BuildingBlock: TEMPAE_clean_linker_10, # of connection points: 2
#     Edge 43, Type (0, 0), BuildingBlock: TEMPAE_clean_linker_10, # of connection points: 2
#     Edge 44, Type (0, 0), BuildingBlock: TEMPAE_clean_linker_10, # of connection points: 2
#     Edge 45, Type (0, 0), BuildingBlock: TEMPAE_clean_linker_10, # of connection points: 2
#     Edge 46, Type (0, 0), BuildingBlock: TEMPAE_clean_linker_10, # of connection points: 2
#     Edge 47, Type (0, 0), BuildingBlock: TEMPAE_clean_linker_10, # of connection points: 2
#     Edge 48, Type (0, 0), BuildingBlock: TEMPAE_clean_linker_10, # of connection points: 2
#     Edge 49, Type (0, 0), BuildingBlock: TEMPAE_clean_linker_10, # of connection points: 2
#     Edge 50, Type (0, 0), BuildingBlock: TEMPAE_clean_linker_10, # of connection points: 2
#     Edge 51, Type (0, 0), BuildingBlock: TEMPAE_clean_linker_10, # of connection points: 2
#     Edge 52, Type (0, 0), BuildingBlock: TEMPAE_clean_linker_10, # of connection points: 2
#     Edge 53, Type (0, 0), BuildingBlock: TEMPAE_clean_linker_10, # of connection points: 2
#     Edge 54, Type (0, 0), BuildingBlock: TEMPAE_clean_linker_10, # of connection points: 2
#     Edge 55, Type (0, 0), BuildingBlock: TEMPAE_clean_linker_10, # of connection points: 2
# Relax obj value: 0.893
# Max RMSD: 0.187
# Mean RMSD: 0.187
data_MOF--net-bcu-i--node1-BEQFEK_clean_sbu_0--edge1-TEMPAE_clean_linker_10
_symmetry_space_group_name_H-M    P1
_symmetry_Int_Tables_number       1
_symmetry_cell_setting            triclinic
loop_
_symmetry_equiv_pos_as_xyz
'x, y, z'
_cell_length_a     48.49399
_cell_length_b     48.505886
_cell_length_c     35.724291
_cell_angle_alpha  89.987671
_cell_angle_beta   89.965322
_cell_angle_gamma 90.012648
loop_
_atom_site_label
_atom_site_type_symbol
_atom_site_fract_x
_atom_site_fract_y
_atom_site_fract_z
_atom_type_partial_charge
Co0 Co 0.21098 0.13962 0.30102 0.0
Co1 Co 0.2145 0.08628 0.25207 0.0
C2 C 0.17811 0.13476 0.23193 0.0
O3 O 0.18608 0.14841 0.26023 0.0
O4 O 0.18736 0.11065 0.22543 0.0
C5 C 0.18701 0.18356 0.34367 0.0
O6 O 0.16733 0.18216 0.31848 0.0
C7 C 0.19106 0.03507 0.22364 0.0
C8 C 0.22709 0.01479 0.19766 0.0
C9 C 0.19924 0.01135 0.20501 0.0
N10 N 0.21311 0.05156 0.22752 0.0
N11 N 0.23454 0.03949 0.21158 0.0
C12 C 0.16255 0.04261 0.23618 0.0
H13 H 0.15988 0.0653 0.23611 0.0
H14 H 0.15918 0.0353 0.2652 0.0
H15 H 0.14685 0.03288 0.21783 0.0
C16 C 0.19587 0.09901 0.35867 0.0
N17 N 0.20148 0.10536 0.32282 0.0
N18 N 0.20489 0.08249 0.30353 0.0
C19 C 0.20282 0.0608 0.3271 0.0
C20 C 0.19687 0.07064 0.36275 0.0
C21 C 0.19004 0.11982 0.38862 0.0
H22 H 0.20917 0.13138 0.3952 0.0
H23 H 0.1743 0.13455 0.37841 0.0
H24 H 0.18209 0.11003 0.41454 0.0
O25 O 0.24933 0.1385 0.28356 0.0
O26 O 0.25296 0.10014 0.24965 0.0
H27 H 0.22561 0.03168 0.29367 0.0
H28 H 0.22034 0.02136 0.34173 0.0
C29 C 0.21083 0.03186 0.31733 0.0
H30 H 0.19217 0.02005 0.30935 0.0
H31 H 0.25433 0.04792 0.21069 0.0
O32 O 0.20816 0.16835 0.34001 0.0
C33 C 0.26349 0.12166 0.26416 0.0
Co34 Co 0.86118 0.21499 0.29613 0.0
Co35 Co 0.91614 0.21694 0.25023 0.0
C36 C 0.87067 0.17861 0.22952 0.0
O37 O 0.85605 0.18807 0.25606 0.0
O38 O 0.89488 0.18772 0.22349 0.0
C39 C 0.8237 0.1848 0.33987 0.0
O40 O 0.83365 0.16468 0.31927 0.0
C41 C 0.968 0.19695 0.21879 0.0
C42 C 0.99008 0.23568 0.20605 0.0
C43 C 0.99249 0.20726 0.20451 0.0
N44 N 0.95187 0.21829 0.22843 0.0
N45 N 0.96504 0.24141 0.22037 0.0
C46 C 0.95925 0.16739 0.22148 0.0
H47 H 0.9494 0.16137 0.19468 0.0
H48 H 0.94387 0.16471 0.2442 0.0
H49 H 0.97706 0.15351 0.2261 0.0
C50 C 0.90026 0.20607 0.35799 0.0
N51 N 0.89495 0.20915 0.32128 0.0
N52 N 0.91827 0.20868 0.30242 0.0
C53 C 0.93924 0.20461 0.32671 0.0
C54 C 0.92838 0.20256 0.36272 0.0
C55 C 0.87934 0.21008 0.38842 0.0
H56 H 0.86408 0.22592 0.38007 0.0
H57 H 0.86858 0.19029 0.39367 0.0
H58 H 0.88912 0.21687 0.41493 0.0
O59 O 0.86034 0.25229 0.27631 0.0
O60 O 0.89971 0.25454 0.24435 0.0
H61 H 0.97518 0.222 0.3011 0.0
H62 H 0.98263 0.19904 0.33987 0.0
C63 C 0.96894 0.20274 0.31556 0.0
H64 H 0.97162 0.18542 0.29574 0.0
H65 H 0.95711 0.26108 0.22521 0.0
O66 O 0.83105 0.20939 0.33263 0.0
C67 C 0.87755 0.26556 0.25636 0.0
Co68 Co 0.78247 0.86113 0.29753 0.0
Co69 Co 0.78299 0.91687 0.25335 0.0
C70 C 0.81816 0.86941 0.23015 0.0
O71 O 0.80871 0.85486 0.25679 0.0
O72 O 0.81004 0.89408 0.2251 0.0
C73 C 0.80967 0.82067 0.34037 0.0
O74 O 0.83074 0.82925 0.32036 0.0
C75 C 0.8059 0.96783 0.22259 0.0
C76 C 0.76834 0.99178 0.20968 0.0
C77 C 0.79684 0.99273 0.20813 0.0
N78 N 0.78374 0.95282 0.23228 0.0
N79 N 0.76133 0.96713 0.22415 0.0
C80 C 0.83501 0.9577 0.22522 0.0
H81 H 0.84166 0.95038 0.19722 0.0
H82 H 0.83651 0.9403 0.24529 0.0
H83 H 0.8492 0.97446 0.23375 0.0
C84 C 0.79536 0.89856 0.3601 0.0
N85 N 0.79085 0.89405 0.32346 0.0
N86 N 0.79234 0.9176 0.30523 0.0
C87 C 0.79852 0.93784 0.32982 0.0
C88 C 0.80092 0.92627 0.36535 0.0
C89 C 0.79098 0.87747 0.39022 0.0
H90 H 0.77386 0.86346 0.38256 0.0
H91 H 0.81017 0.86535 0.3939 0.0
H92 H 0.78579 0.88726 0.41739 0.0
O93 O 0.74504 0.86299 0.27837 0.0
O94 O 0.74441 0.90305 0.248 0.0
H95 H 0.78341 0.97508 0.30499 0.0
H96 H 0.80675 0.98066 0.3439 0.0
C97 C 0.80222 0.9675 0.31933 0.0
H98 H 0.81972 0.96931 0.29959 0.0
H99 H 0.74126 0.96019 0.22889 0.0
O100 O 0.78584 0.83013 0.33304 0.0
C101 C 0.73242 0.88126 0.25947 0.0
Co102 Co 0.13351 0.7844 0.29413 0.0
Co103 Co 0.07919 0.78469 0.24715 0.0
C104 C 0.125 0.82398 0.2309 0.0
O105 O 0.13924 0.81358 0.25717 0.0
O106 O 0.10101 0.81488 0.22332 0.0
C107 C 0.17083 0.81084 0.34234 0.0
O108 O 0.16101 0.83262 0.32501 0.0
C109 C 0.02796 0.806 0.2155 0.0
C110 C 0.00557 0.76774 0.2012 0.0
C111 C 0.00349 0.7962 0.20056 0.0
N112 N 0.04376 0.78431 0.22465 0.0
N113 N 0.03043 0.76149 0.21564 0.0
C114 C 0.03702 0.83539 0.21927 0.0
H115 H 0.05164 0.83762 0.24296 0.0
H116 H 0.01929 0.84953 0.22299 0.0
H117 H 0.04792 0.8415 0.19325 0.0
C118 C 0.09375 0.79084 0.35594 0.0
N119 N 0.09949 0.78899 0.31919 0.0
N120 N 0.07644 0.7906 0.29989 0.0
C121 C 0.05524 0.79431 0.32395 0.0
C122 C 0.06565 0.79484 0.36029 0.0
C123 C 0.11421 0.78554 0.38656 0.0
H124 H 0.12941 0.76984 0.37757 0.0
H125 H 0.1251 0.805 0.39333 0.0
H126 H 0.10394 0.77796 0.41235 0.0
O127 O 0.13456 0.74847 0.27044 0.0
O128 O 0.09537 0.74739 0.23813 0.0
H129 H 0.01897 0.77909 0.29682 0.0
H130 H 0.01195 0.80152 0.3363 0.0
C131 C 0.02582 0.79775 0.31218 0.0
H132 H 0.02419 0.81557 0.29297 0.0
H133 H 0.03809 0.74165 0.21999 0.0
O134 O 0.16332 0.78708 0.33144 0.0
C135 C 0.1176 0.73606 0.24921 0.0
Co136 Co 0.22015 0.89385 0.65885 0.0
Co137 Co 0.21821 0.94389 0.71392 0.0
C138 C 0.18671 0.89107 0.72795 0.0
O139 O 0.19613 0.88009 0.69831 0.0
O140 O 0.19317 0.91563 0.73713 0.0
C141 C 0.20232 0.85019 0.61024 0.0
O142 O 0.18051 0.84949 0.63207 0.0
C143 C 0.1889 0.99121 0.7437 0.0
C144 C 0.22224 0.01637 0.76831 0.0
C145 C 0.19419 0.01637 0.76076 0.0
N146 N 0.21276 0.97737 0.74055 0.0
N147 N 0.23257 0.99227 0.75589 0.0
C148 C 0.16167 0.98009 0.73085 0.0
H149 H 0.16076 0.95753 0.73545 0.0
H150 H 0.15927 0.98376 0.7004 0.0
H151 H 0.14437 0.99014 0.74594 0.0
C152 C 0.20199 0.93559 0.60533 0.0
N153 N 0.20766 0.9278 0.64057 0.0
N154 N 0.20938 0.94969 0.66218 0.0
C155 C 0.20589 0.97239 0.6407 0.0
C156 C 0.20101 0.96407 0.60404 0.0
C157 C 0.19836 0.91603 0.57326 0.0
H158 H 0.18407 0.89932 0.58163 0.0
H159 H 0.18972 0.92647 0.54825 0.0
H160 H 0.21856 0.90675 0.56592 0.0
O161 O 0.25773 0.89836 0.67723 0.0
O162 O 0.25751 0.93238 0.71887 0.0
H163 H 0.2189 0.01425 0.63012 0.0
H164 H 0.19179 0.01049 0.66389 0.0
C165 C 0.21126 0.00128 0.65353 0.0
H166 H 0.22665 0.00143 0.67644 0.0
H167 H 0.25327 0.98645 0.75662 0.0
O168 O 0.2217 0.86694 0.61761 0.0
C169 C 0.27022 0.91384 0.70043 0.0
Co170 Co 0.09157 0.23328 0.66187 0.0
Co171 Co 0.04454 0.2294 0.72174 0.0
C172 C 0.0938 0.19249 0.72457 0.0
O173 O 0.1041 0.20417 0.69597 0.0
O174 O 0.07051 0.19982 0.73759 0.0
C175 C 0.12663 0.21117 0.60622 0.0
O176 O 0.12005 0.18805 0.6232 0.0
C177 C -0.0006 0.20245 0.76061 0.0
C178 C 0.97784 0.23706 0.78809 0.0
C179 C 0.97667 0.20871 0.7829 0.0
N180 N 0.01302 0.2259 0.75309 0.0
N181 N 0.00036 0.24649 0.77011 0.0
C182 C 0.00708 0.17525 0.74365 0.0
H183 H 0.02171 0.17816 0.72009 0.0
H184 H 0.9885 0.16426 0.73338 0.0
H185 H 0.01726 0.16229 0.76517 0.0
C186 C 0.04567 0.2227 0.61068 0.0
N187 N 0.05539 0.22665 0.64545 0.0
N188 N 0.03499 0.22498 0.66972 0.0
C189 C 0.01143 0.21965 0.65067 0.0
C190 C 0.01771 0.21749 0.61278 0.0
C191 C 0.06249 0.22558 0.57568 0.0
H192 H 0.07672 0.24335 0.57823 0.0
H193 H 0.07469 0.20652 0.57133 0.0
H194 H 0.04925 0.22892 0.55076 0.0
O195 O 0.09316 0.26877 0.68652 0.0
O196 O 0.06142 0.26644 0.73127 0.0
H197 H 0.98137 0.22956 0.69279 0.0
H198 H 0.96687 0.22009 0.64808 0.0
C199 C 0.98367 0.21581 0.66825 0.0
H200 H 0.9815 0.19412 0.67745 0.0
H201 H 0.00661 0.26702 0.76853 0.0
O202 O 0.11718 0.23375 0.61885 0.0
C203 C 0.08035 0.27949 0.71392 0.0
Co204 Co 0.77859 0.09002 0.65973 0.0
Co205 Co 0.78017 0.04395 0.72135 0.0
C206 C 0.81672 0.09366 0.72494 0.0
O207 O 0.80715 0.10287 0.69427 0.0
O208 O 0.80782 0.07139 0.73945 0.0
C209 C 0.79928 0.12672 0.60373 0.0
O210 O 0.82268 0.12346 0.62169 0.0
C211 C 0.80594 -0.00032 0.76405 0.0
C212 C 0.77077 0.97194 0.775 0.0
C213 C 0.79921 0.97384 0.77817 0.0
N214 N 0.78276 0.01189 0.75194 0.0
N215 N 0.76168 0.99557 0.75957 0.0
C216 C 0.83389 0.01276 0.76172 0.0
H217 H 0.83321 0.03326 0.7754 0.0
H218 H 0.83957 0.01607 0.73197 0.0
H219 H 0.84985 0.00018 0.77595 0.0
C220 C 0.79189 0.04367 0.6108 0.0
N221 N 0.78639 0.05396 0.64487 0.0
N222 N 0.78754 0.03413 0.67001 0.0
C223 C 0.7941 0.01034 0.65228 0.0
C224 C 0.79748 0.01586 0.61436 0.0
C225 C 0.78983 0.05982 0.57513 0.0
H226 H 0.77127 0.07313 0.57582 0.0
H227 H 0.80835 0.07307 0.57217 0.0
H228 H 0.78834 0.0462 0.55028 0.0
O229 O 0.74233 0.09127 0.6826 0.0
O230 O 0.74212 0.05919 0.72692 0.0
H231 H 0.77952 0.97844 0.68865 0.0
H232 H 0.80114 0.9662 0.65084 0.0
C233 C 0.79785 0.98311 0.67122 0.0
H234 H 0.81611 0.98419 0.6897 0.0
H235 H 0.74131 -0.00016 0.75215 0.0
O236 O 0.77778 0.11475 0.61588 0.0
C237 C 0.73003 0.07813 0.70845 0.0
Co238 Co 0.89859 0.76465 0.65793 0.0
Co239 Co 0.94664 0.76581 0.71664 0.0
C240 C 0.89568 0.80028 0.72585 0.0
O241 O 0.88548 0.79082 0.69571 0.0
O242 O 0.91933 0.79257 0.73727 0.0
C243 C 0.86113 0.78735 0.60494 0.0
O244 O 0.86562 0.81008 0.62399 0.0
C245 C 0.99161 0.79314 0.75546 0.0
C246 C 0.01888 0.75866 0.77137 0.0
C247 C 0.01703 0.78719 0.77135 0.0
N248 N 0.97936 0.76935 0.74582 0.0
N249 N 0.99546 0.74874 0.75616 0.0
C250 C 0.97878 0.8209 0.74954 0.0
H251 H 0.95963 0.82213 0.76636 0.0
H252 H 0.97284 0.82339 0.71974 0.0
H253 H 0.99251 0.83795 0.75841 0.0
C254 C 0.94333 0.77944 0.60659 0.0
N255 N 0.93402 0.77389 0.64122 0.0
N256 N 0.95474 0.77415 0.66503 0.0
C257 C 0.97811 0.78008 0.64589 0.0
C258 C 0.97144 0.78404 0.6084 0.0
C259 C 0.92612 0.77757 0.57183 0.0
H260 H 0.91273 0.75909 0.57315 0.0
H261 H 0.91294 0.79618 0.56969 0.0
H262 H 0.93897 0.77605 0.54622 0.0
O263 O 0.89939 0.72761 0.67815 0.0
O264 O 0.932 0.72729 0.72189 0.0
H265 H 0.00986 0.76428 0.68164 0.0
H266 H 0.02264 0.78341 0.64171 0.0
C267 C 0.00613 0.78222 0.6631 0.0
H268 H 0.0071 0.80121 0.68015 0.0
H269 H 0.99108 0.72801 0.75122 0.0
O270 O 0.87252 0.76512 0.61558 0.0
C271 C 0.91322 0.71512 0.70314 0.0
Co272 Co 0.70401 0.62787 0.81876 0.0
Co273 Co 0.70755 0.57456 0.76913 0.0
C274 C 0.66326 0.6172 0.75861 0.0
O275 O 0.67275 0.63179 0.78511 0.0
O276 O 0.67484 0.59484 0.74856 0.0
C277 C 0.67976 0.67013 0.86441 0.0
O278 O 0.65858 0.66687 0.84196 0.0
C279 C 0.68767 0.52128 0.74323 0.0
C280 C 0.72333 0.50498 0.71175 0.0
C281 C 0.69656 0.49858 0.72255 0.0
N282 N 0.70816 0.53986 0.7444 0.0
N283 N 0.72932 0.5302 0.72518 0.0
C284 C 0.66103 0.52505 0.76384 0.0
H285 H 0.66265 0.54223 0.78421 0.0
H286 H 0.65522 0.50583 0.77874 0.0
H287 H 0.64452 0.53029 0.74358 0.0
C288 C 0.70101 0.5867 0.87863 0.0
N289 N 0.70211 0.5931 0.84209 0.0
N290 N 0.70478 0.57038 0.82222 0.0
C291 C 0.7065 0.54875 0.84596 0.0
C292 C 0.70411 0.5585 0.88239 0.0
C293 C 0.69635 0.60725 0.90931 0.0
H294 H 0.71468 0.62082 0.91181 0.0
H295 H 0.67824 0.62014 0.90228 0.0
H296 H 0.69233 0.59719 0.93664 0.0
O297 O 0.73958 0.63153 0.79251 0.0
O298 O 0.74285 0.59325 0.75845 0.0
H299 H 0.72636 0.51988 0.80907 0.0
H300 H 0.72415 0.50879 0.85735 0.0
C301 C 0.71329 0.51986 0.83451 0.0
H302 H 0.69391 0.50861 0.8284 0.0
H303 H 0.74797 0.54061 0.72174 0.0
O304 O 0.70178 0.65668 0.85806 0.0
C305 C 0.75281 0.61593 0.77015 0.0
Co306 Co 0.36001 0.71351 0.82406 0.0
Co307 Co 0.41146 0.71337 0.77085 0.0
C308 C 0.36545 0.67309 0.76122 0.0
O309 O 0.35235 0.68373 0.78842 0.0
O310 O 0.38878 0.68249 0.75105 0.0
C311 C 0.32609 0.68662 0.8767 0.0
O312 O 0.33559 0.66497 0.85876 0.0
C313 C 0.46105 0.69195 0.73448 0.0
C314 C 0.47938 0.72964 0.71029 0.0
C315 C 0.48353 0.70142 0.71371 0.0
N316 N 0.44484 0.71355 0.74281 0.0
N317 N 0.45566 0.73595 0.72782 0.0
C318 C 0.45542 0.66338 0.74844 0.0
H319 H 0.43926 0.66365 0.77043 0.0
H320 H 0.47449 0.65398 0.75992 0.0
H321 H 0.44794 0.65046 0.72492 0.0
C322 C 0.40344 0.70683 0.88085 0.0
N323 N 0.39568 0.70942 0.84491 0.0
N324 N 0.41766 0.70839 0.82323 0.0
C325 C 0.44017 0.70467 0.84502 0.0
C326 C 0.43165 0.70303 0.88213 0.0
C327 C 0.38468 0.71054 0.91384 0.0
H328 H 0.369 0.72652 0.90779 0.0
H329 H 0.37431 0.6907 0.92009 0.0
H330 H 0.39633 0.71698 0.9391 0.0
O331 O 0.35698 0.74944 0.79996 0.0
O332 O 0.3939 0.75001 0.76292 0.0
H333 H 0.47252 0.71693 0.80747 0.0
H334 H 0.48451 0.70564 0.85286 0.0
C335 C 0.46904 0.7021 0.83059 0.0
H336 H 0.47217 0.68093 0.8198 0.0
H337 H 0.44712 0.75562 0.73011 0.0
O338 O 0.33253 0.7105 0.86491 0.0
C339 C 0.37249 0.76155 0.7764 0.0
Co340 Co 0.29156 0.35432 0.84849 0.0
Co341 Co 0.28832 0.40656 0.79689 0.0
C342 C 0.32861 0.36029 0.78325 0.0
O343 O 0.32031 0.34701 0.81176 0.0
O344 O 0.31773 0.38312 0.77362 0.0
C345 C 0.31481 0.31298 0.8969 0.0
O346 O 0.3367 0.31565 0.87552 0.0
C347 C 0.30895 0.45868 0.76629 0.0
C348 C 0.27145 0.47616 0.74039 0.0
C349 C 0.29906 0.48153 0.7471 0.0
N350 N 0.28803 0.44087 0.77109 0.0
N351 N 0.26575 0.45129 0.7552 0.0
C352 C 0.33799 0.45315 0.77844 0.0
H353 H 0.34219 0.4307 0.77843 0.0
H354 H 0.34103 0.46075 0.80739 0.0
H355 H 0.35287 0.46385 0.75981 0.0
C356 C 0.30139 0.39677 0.9056 0.0
N357 N 0.29756 0.38944 0.8697 0.0
N358 N 0.29475 0.41174 0.84901 0.0
C359 C 0.29545 0.43405 0.87163 0.0
C360 C 0.29984 0.42518 0.90812 0.0
C361 C 0.30698 0.37689 0.93678 0.0
H362 H 0.32406 0.36304 0.92849 0.0
H363 H 0.31311 0.38751 0.96297 0.0
H364 H 0.28831 0.36427 0.94212 0.0
O365 O 0.25434 0.35254 0.82623 0.0
O366 O 0.25146 0.39031 0.79114 0.0
H367 H 0.27363 0.46224 0.83576 0.0
H368 H 0.27856 0.47434 0.8831 0.0
C369 C 0.28813 0.46272 0.8597 0.0
H370 H 0.3071 0.47381 0.85118 0.0
H371 H 0.24652 0.44162 0.75499 0.0
O372 O 0.29316 0.32649 0.88892 0.0
C373 C 0.24082 0.36858 0.80481 0.0
Co374 Co 0.62286 0.27544 0.84443 0.0
Co375 Co 0.5751 0.27135 0.78565 0.0
C376 C 0.61819 0.31528 0.78099 0.0
O377 O 0.62984 0.30623 0.81033 0.0
O378 O 0.59703 0.3035 0.76733 0.0
C379 C 0.6522 0.30441 0.8996 0.0
O380 O 0.64032 0.32516 0.88234 0.0
C381 C 0.52647 0.29 0.74533 0.0
C382 C 0.51175 0.25194 0.71793 0.0
C383 C 0.50569 0.27975 0.72222 0.0
N384 N 0.54358 0.26925 0.75413 0.0
N385 N 0.53499 0.24664 0.73719 0.0
C386 C 0.52941 0.31837 0.76143 0.0
H387 H 0.54439 0.31838 0.78489 0.0
H388 H 0.50922 0.32612 0.77159 0.0
H389 H 0.53718 0.33255 0.73945 0.0
C390 C 0.57603 0.27921 0.89631 0.0
N391 N 0.58601 0.27668 0.8614 0.0
N392 N 0.56536 0.27584 0.83741 0.0
C393 C 0.54143 0.27799 0.85678 0.0
C394 C 0.54764 0.2808 0.89456 0.0
C395 C 0.59314 0.2783 0.93121 0.0
H396 H 0.61023 0.26335 0.92793 0.0
H397 H 0.60175 0.29907 0.93673 0.0
H398 H 0.5806 0.27207 0.95581 0.0
O399 O 0.63016 0.24003 0.82027 0.0
O400 O 0.59549 0.23613 0.77986 0.0
H401 H 0.51274 0.26395 0.8151 0.0
H402 H 0.49744 0.27118 0.86015 0.0
C403 C 0.51327 0.27784 0.83968 0.0
H404 H 0.50797 0.29903 0.83063 0.0
H405 H 0.54463 0.22749 0.73945 0.0
O406 O 0.64826 0.28014 0.88733 0.0
C407 C 0.61705 0.22655 0.79546 0.0
Co408 Co 0.72694 0.40219 0.19827 0.0
Co409 Co 0.72669 0.45587 0.24689 0.0
C410 C 0.69434 0.40497 0.26814 0.0
O411 O 0.70386 0.39174 0.24035 0.0
O412 O 0.70087 0.43008 0.27388 0.0
C413 C 0.70711 0.3549 0.15816 0.0
O414 O 0.68759 0.35487 0.18368 0.0
C415 C 0.69909 0.50619 0.27052 0.0
C416 C 0.73298 0.53082 0.29477 0.0
C417 C 0.7051 0.53167 0.28622 0.0
N418 N 0.72238 0.49125 0.26924 0.0
N419 N 0.74253 0.50592 0.28418 0.0
C420 C 0.67158 0.49566 0.25787 0.0
H421 H 0.67039 0.47301 0.26154 0.0
H422 H 0.66881 0.5001 0.22767 0.0
H423 H 0.65464 0.50573 0.27369 0.0
C424 C 0.70866 0.44021 0.14041 0.0
N425 N 0.71431 0.43489 0.17647 0.0
N426 N 0.71727 0.4582 0.19487 0.0
C427 C 0.71476 0.47928 0.17033 0.0
C428 C 0.7092 0.46844 0.13507 0.0
C429 C 0.70403 0.41852 0.11123 0.0
H430 H 0.68979 0.40263 0.12232 0.0
H431 H 0.69491 0.42733 0.08538 0.0
H432 H 0.72396 0.40854 0.10419 0.0
O433 O 0.76508 0.40784 0.21351 0.0
O434 O 0.76606 0.44403 0.25184 0.0
H435 H 0.73079 0.519 0.1539 0.0
H436 H 0.7031 0.51994 0.18715 0.0
C437 C 0.722 0.50862 0.1789 0.0
H438 H 0.73708 0.50964 0.20215 0.0
H439 H 0.7629 0.49921 0.28633 0.0
O440 O 0.72641 0.37254 0.1604 0.0
C441 C 0.77816 0.42461 0.23431 0.0
Co442 Co 0.59323 0.73778 0.17868 0.0
Co443 Co 0.54532 0.73338 0.23721 0.0
C444 C 0.59825 0.70326 0.24817 0.0
O445 O 0.60792 0.71405 0.21851 0.0
O446 O 0.57378 0.70843 0.2591 0.0
C447 C 0.63067 0.71365 0.12789 0.0
O448 O 0.6252 0.69184 0.14844 0.0
C449 C 0.50101 0.70665 0.27899 0.0
C450 C 0.47328 0.74152 0.29173 0.0
C451 C 0.47577 0.71317 0.29507 0.0
N452 N 0.51262 0.72997 0.26629 0.0
N453 N 0.49621 0.75084 0.27463 0.0
C454 C 0.51458 0.67896 0.27663 0.0
H455 H 0.53195 0.67851 0.29679 0.0
H456 H 0.52345 0.67583 0.24831 0.0
H457 H 0.5003 0.66193 0.28385 0.0
C458 C 0.55015 0.71807 0.12795 0.0
N459 N 0.55881 0.72495 0.1624 0.0
N460 N 0.53818 0.72288 0.18624 0.0
C461 C 0.51564 0.71406 0.16741 0.0
C462 C 0.52276 0.71033 0.13002 0.0
C463 C 0.56678 0.72203 0.09294 0.0
H464 H 0.5794 0.74099 0.09512 0.0
H465 H 0.58059 0.70404 0.08901 0.0
H466 H 0.55344 0.72395 0.06787 0.0
O467 O 0.58888 0.77556 0.19525 0.0
O468 O 0.55698 0.77308 0.23989 0.0
H469 H 0.48183 0.72739 0.20154 0.0
H470 H 0.47196 0.70471 0.16356 0.0
C471 C 0.48799 0.70915 0.1848 0.0
H472 H 0.48934 0.69117 0.20377 0.0
H473 H 0.50016 0.77129 0.26735 0.0
O474 O 0.61987 0.7366 0.13676 0.0
C475 C 0.57376 0.78695 0.21986 0.0
Co476 Co 0.27407 0.60517 0.19649 0.0
Co477 Co 0.27573 0.55657 0.25413 0.0
C478 C 0.30475 0.61091 0.26744 0.0
O479 O 0.29569 0.62102 0.23703 0.0
O480 O 0.29893 0.5863 0.27719 0.0
C481 C 0.29234 0.64789 0.14619 0.0
O482 O 0.31353 0.64967 0.16897 0.0
C483 C 0.30585 0.51064 0.28642 0.0
C484 C 0.27315 0.48638 0.31414 0.0
C485 C 0.30109 0.48633 0.30586 0.0
N486 N 0.28181 0.52408 0.28276 0.0
N487 N 0.26238 0.50973 0.2999 0.0
C488 C 0.33281 0.52141 0.27203 0.0
H489 H 0.33315 0.54424 0.27347 0.0
H490 H 0.33539 0.51551 0.24227 0.0
H491 H 0.35029 0.51285 0.28836 0.0
C492 C 0.29599 0.563 0.14664 0.0
N493 N 0.28916 0.57147 0.18119 0.0
N494 N 0.28674 0.54999 0.20345 0.0
C495 C 0.2907 0.52689 0.183 0.0
C496 C 0.29678 0.53451 0.14641 0.0
C497 C 0.3001 0.58182 0.11386 0.0
H498 H 0.3138 0.59906 0.12211 0.0
H499 H 0.30967 0.57091 0.08985 0.0
H500 H 0.27993 0.5904 0.10501 0.0
O501 O 0.23585 0.59842 0.21137 0.0
O502 O 0.23573 0.56589 0.25533 0.0
H503 H 0.27577 0.48561 0.17305 0.0
H504 H 0.30314 0.48831 0.20652 0.0
C505 C 0.28406 0.49835 0.19627 0.0
H506 H 0.26876 0.49901 0.21931 0.0
H507 H 0.24164 0.51541 0.3008 0.0
O508 O 0.2731 0.63096 0.15363 0.0
C509 C 0.22308 0.58276 0.2341 0.0
Co510 Co 0.39578 0.2676 0.21452 0.0
Co511 Co 0.44979 0.27648 0.26116 0.0
C512 C 0.39878 0.30922 0.27627 0.0
O513 O 0.3859 0.29625 0.25081 0.0
O514 O 0.4239 0.30384 0.28361 0.0
C515 C 0.35415 0.28685 0.16606 0.0
O516 O 0.36054 0.31031 0.18226 0.0
C517 C 0.49749 0.30725 0.28832 0.0
C518 C 0.52536 0.27414 0.30761 0.0
C519 C 0.52321 0.30248 0.30396 0.0
N520 N 0.48505 0.28284 0.28285 0.0
N521 N 0.50167 0.26313 0.2948 0.0
C522 C 0.48414 0.3345 0.28056 0.0
H523 H 0.4738 0.34171 0.30647 0.0
H524 H 0.46828 0.33236 0.25836 0.0
H525 H 0.49947 0.35033 0.2724 0.0
C526 C 0.43342 0.27862 0.1521 0.0
N527 N 0.4284 0.2767 0.189 0.0
N528 N 0.45131 0.28129 0.20777 0.0
C529 C 0.47162 0.28714 0.183 0.0
C530 C 0.46071 0.28595 0.14695 0.0
C531 C 0.41351 0.27012 0.12213 0.0
H532 H 0.40101 0.25235 0.13169 0.0
H533 H 0.39973 0.28768 0.11552 0.0
H534 H 0.42434 0.26395 0.09609 0.0
O535 O 0.40123 0.23228 0.23847 0.0
O536 O 0.43891 0.23745 0.27349 0.0
H537 H 0.509 0.27782 0.21228 0.0
H538 H 0.51418 0.2967 0.16904 0.0
C539 C 0.50061 0.29413 0.19375 0.0
H540 H 0.50065 0.31379 0.20948 0.0
H541 H 0.49704 0.24214 0.29364 0.0
O542 O 0.36548 0.26486 0.17773 0.0
C543 C 0.41917 0.22277 0.26092 0.0
C544 C 0.18753 0.97001 0.16661 0.0
C545 C 0.18361 0.98561 0.1992 0.0
C546 C 0.1758 0.94367 0.16302 0.0
C547 C 0.16048 0.93255 0.19318 0.0
C548 C 0.15547 0.94878 0.22544 0.0
C549 C 0.16711 0.97511 0.22803 0.0
C550 C 0.18117 0.92719 0.12795 0.0
C551 C 0.13953 0.93759 0.25848 0.0
C552 C 0.11771 0.86722 0.19363 0.0
C553 C 0.13552 0.84927 0.21269 0.0
C554 C 0.12627 0.89399 0.18401 0.0
C555 C 0.15311 0.90285 0.19395 0.0
C556 C 0.17188 0.88395 0.21006 0.0
C557 C 0.1629 0.85737 0.21902 0.0
C558 C 0.10593 0.91339 0.16595 0.0
C559 C 0.20075 0.89247 0.22102 0.0
H560 H 0.20036 0.97815 0.14432 0.0
H561 H 0.16473 0.98668 0.25374 0.0
H562 H 0.19716 0.9114 0.13368 0.0
H563 H 0.16224 0.91621 0.11887 0.0
H564 H 0.18854 0.94045 0.10463 0.0
H565 H 0.13542 0.95365 0.27995 0.0
H566 H 0.11955 0.92885 0.24917 0.0
H567 H 0.15143 0.92068 0.27179 0.0
H568 H 0.0966 0.86105 0.18831 0.0
H569 H 0.17696 0.84345 0.23312 0.0
H570 H 0.11608 0.92593 0.14392 0.0
H571 H 0.09776 0.9278 0.18738 0.0
H572 H 0.08826 0.90212 0.15339 0.0
H573 H 0.21119 0.90303 0.19741 0.0
H574 H 0.21357 0.87463 0.22978 0.0
H575 H 0.19972 0.90728 0.24466 0.0
C576 C 0.13695 0.12801 0.19057 0.0
C577 C 0.15451 0.14574 0.2104 0.0
C578 C 0.11053 0.13679 0.17963 0.0
C579 C 0.10165 0.16371 0.18913 0.0
C580 C 0.12051 0.18254 0.20521 0.0
C581 C 0.14679 0.17336 0.21539 0.0
C582 C 0.0913 0.11646 0.16123 0.0
C583 C 0.11202 0.21151 0.21565 0.0
C584 C 0.03333 0.19706 0.16438 0.0
C585 C 0.01835 0.19234 0.1973 0.0
C586 C 0.05987 0.18595 0.15978 0.0
C587 C 0.07184 0.17066 0.18937 0.0
C588 C 0.05625 0.16508 0.22209 0.0
C589 C 0.02968 0.17599 0.2256 0.0
C590 C 0.07557 0.19186 0.1242 0.0
C591 C 0.06832 0.14923 0.25463 0.0
H592 H 0.14288 0.1067 0.18621 0.0
H593 H 0.16052 0.18736 0.22996 0.0
H594 H 0.07701 0.10791 0.18256 0.0
H595 H 0.07863 0.1267 0.13942 0.0
H596 H 0.10276 0.09906 0.14833 0.0
H597 H 0.12996 0.22448 0.22366 0.0
H598 H 0.10112 0.22161 0.1921 0.0
H599 H 0.09755 0.21071 0.23972 0.0
H600 H 0.02453 0.20996 0.14267 0.0
H601 H 0.01838 0.1731 0.25151 0.0
H602 H 0.08775 0.17364 0.11529 0.0
H603 H 0.09021 0.20906 0.1291 0.0
H604 H 0.06153 0.19794 0.10106 0.0
H605 H 0.07678 0.12923 0.24493 0.0
H606 H 0.05285 0.14514 0.2769 0.0
H607 H 0.08559 0.16114 0.26704 0.0
C608 C 0.80931 0.03221 0.16685 0.0
C609 C 0.81306 0.01768 0.20032 0.0
C610 C 0.82125 0.05833 0.16178 0.0
C611 C 0.83636 0.07037 0.19147 0.0
C612 C 0.84119 0.0551 0.22466 0.0
C613 C 0.82951 0.02888 0.22861 0.0
C614 C 0.81624 0.07364 0.12565 0.0
C615 C 0.8568 0.0673 0.25731 0.0
C616 C 0.87868 0.13588 0.19148 0.0
C617 C 0.86043 0.15386 0.20975 0.0
C618 C 0.87035 0.10906 0.18176 0.0
C619 C 0.84337 0.10017 0.19093 0.0
C620 C 0.82414 0.1192 0.20576 0.0
C621 C 0.83287 0.14587 0.21466 0.0
C622 C 0.89111 0.0896 0.16471 0.0
C623 C 0.79511 0.11067 0.21592 0.0
H624 H 0.79638 0.02348 0.14511 0.0
H625 H 0.83171 0.01792 0.2549 0.0
H626 H 0.79945 0.08886 0.12978 0.0
H627 H 0.83494 0.08513 0.11684 0.0
H628 H 0.81002 0.05944 0.10277 0.0
H629 H 0.86061 0.05194 0.27979 0.0
H630 H 0.87691 0.07567 0.24787 0.0
H631 H 0.84481 0.08466 0.26936 0.0
H632 H 0.89994 0.14199 0.18719 0.0
H633 H 0.81847 0.15985 0.22806 0.0
H634 H 0.88131 0.07639 0.14313 0.0
H635 H 0.89942 0.07586 0.18681 0.0
H636 H 0.90865 0.10091 0.15184 0.0
H637 H 0.78521 0.09965 0.19231 0.0
H638 H 0.78201 0.12858 0.22363 0.0
H639 H 0.79574 0.0963 0.24009 0.0
C640 C 0.84959 0.83087 0.21348 0.0
C641 C 0.84197 0.85855 0.20892 0.0
C642 C 0.87579 0.82167 0.20295 0.0
C643 C 0.89467 0.84057 0.18703 0.0
C644 C 0.88593 0.86762 0.17809 0.0
C645 C 0.85959 0.87639 0.18931 0.0
C646 C 0.88417 0.79255 0.21277 0.0
C647 C 0.90522 0.88805 0.15996 0.0
C648 C 0.96665 0.82749 0.2226 0.0
C649 C 0.97779 0.81146 0.19382 0.0
C650 C 0.94014 0.83859 0.21957 0.0
C651 C 0.92442 0.83347 0.18686 0.0
C652 C 0.93619 0.81852 0.15681 0.0
C653 C 0.96269 0.80725 0.16092 0.0
C654 C 0.92827 0.85408 0.25255 0.0
C655 C 0.9203 0.81309 0.12126 0.0
H656 H 0.83583 0.81677 0.22787 0.0
H657 H 0.85371 0.89774 0.18518 0.0
H658 H 0.89497 0.78265 0.18896 0.0
H659 H 0.8987 0.79302 0.23676 0.0
H660 H 0.86619 0.77958 0.22064 0.0
H661 H 0.89383 0.90571 0.14759 0.0
H662 H 0.91968 0.8962 0.18131 0.0
H663 H 0.91769 0.878 0.13776 0.0
H664 H 0.97803 0.82995 0.24851 0.0
H665 H 0.97134 0.79457 0.13885 0.0
H666 H 0.91104 0.84206 0.26492 0.0
H667 H 0.91979 0.8742 0.24337 0.0
H668 H 0.94386 0.85789 0.27473 0.0
H669 H 0.90555 0.79597 0.126 0.0
H670 H 0.9342 0.80715 0.09788 0.0
H671 H 0.90823 0.83149 0.11281 0.0
C672 C 0.09459 0.1492 0.76295 0.0
C673 C 0.1085 0.16858 0.74071 0.0
C674 C 0.10733 0.12428 0.7731 0.0
C675 C 0.13455 0.11883 0.7608 0.0
C676 C 0.1493 0.1392 0.74071 0.0
C677 C 0.13608 0.16379 0.73087 0.0
C678 C 0.09106 0.1031 0.79477 0.0
C679 C 0.17846 0.13431 0.72731 0.0
C680 C 0.17875 0.05905 0.7938 0.0
C681 C 0.17593 0.04067 0.76376 0.0
C682 C 0.16407 0.08401 0.79454 0.0
C683 C 0.14651 0.09077 0.76426 0.0
C684 C 0.14285 0.0718 0.73458 0.0
C685 C 0.15778 0.04712 0.73456 0.0
C686 C 0.16846 0.10372 0.82667 0.0
C687 C 0.12449 0.07829 0.70157 0.0
H688 H 0.07329 0.15282 0.77077 0.0
H689 H 0.14711 0.17885 0.71416 0.0
H690 H 0.08509 0.08601 0.77578 0.0
H691 H 0.10376 0.09411 0.81752 0.0
H692 H 0.072 0.11199 0.80712 0.0
H693 H 0.18798 0.15326 0.71553 0.0
H694 H 0.19155 0.12676 0.75059 0.0
H695 H 0.17843 0.11819 0.70528 0.0
H696 H 0.19296 0.05419 0.81627 0.0
H697 H 0.15629 0.03366 0.7105 0.0
H698 H 0.14845 0.11193 0.8368 0.0
H699 H 0.18093 0.12152 0.81697 0.0
H700 H 0.17938 0.09379 0.85045 0.0
H701 H 0.10386 0.08509 0.71131 0.0
H702 H 0.12182 0.06029 0.68269 0.0
H703 H 0.13357 0.09547 0.68516 0.0
C704 C 0.84314 0.10975 0.78122 0.0
C705 C 0.83992 0.10851 0.74227 0.0
C706 C 0.86477 0.12509 0.7972 0.0
C707 C 0.88378 0.13879 0.77348 0.0
C708 C 0.88103 0.13669 0.73412 0.0
C709 C 0.85896 0.12189 0.71908 0.0
C710 C 0.86659 0.12748 0.83924 0.0
C711 C 0.90123 0.15038 0.70771 0.0
C712 C 0.92605 0.20221 0.79105 0.0
C713 C 0.95266 0.1909 0.79161 0.0
C714 C 0.90273 0.18515 0.78998 0.0
C715 C 0.90626 0.15621 0.78878 0.0
C716 C 0.9328 0.14477 0.79419 0.0
C717 C 0.95569 0.16237 0.79632 0.0
C718 C 0.87462 0.19815 0.78595 0.0
C719 C 0.93746 0.11402 0.79353 0.0
H720 H 0.8283 0.09945 0.79912 0.0
H721 H 0.85673 0.12057 0.68893 0.0
H722 H 0.88818 0.12521 0.84898 0.0
H723 H 0.85944 0.14825 0.84785 0.0
H724 H 0.85358 0.11185 0.85357 0.0
H725 H 0.89714 0.14516 0.67795 0.0
H726 H 0.90003 0.1731 0.71085 0.0
H727 H 0.92262 0.14405 0.7146 0.0
H728 H 0.92339 0.22432 0.78858 0.0
H729 H 0.97606 0.15358 0.79941 0.0
H730 H 0.85902 0.18665 0.80244 0.0
H731 H 0.86825 0.19747 0.75613 0.0
H732 H 0.87465 0.22003 0.79515 0.0
H733 H 0.9213 0.10307 0.8097 0.0
H734 H 0.958 0.10838 0.80497 0.0
H735 H 0.93631 0.10662 0.76417 0.0
C736 C 0.85442 0.83042 0.73306 0.0
C737 C 0.88057 0.82238 0.74579 0.0
C738 C 0.84163 0.85419 0.74683 0.0
C739 C 0.85528 0.87033 0.77413 0.0
C740 C 0.88053 0.8611 0.78949 0.0
C741 C 0.89292 0.83715 0.77513 0.0
C742 C 0.81453 0.86316 0.72988 0.0
C743 C 0.89542 0.87752 0.8191 0.0
C744 C 0.8393 0.94532 0.75818 0.0
C745 C 0.81751 0.94974 0.78325 0.0
C746 C 0.85336 0.92018 0.75725 0.0
C747 C 0.84512 0.89867 0.78158 0.0
C748 C 0.82431 0.9035 0.80859 0.0
C749 C 0.81055 0.929 0.8089 0.0
C750 C 0.87538 0.91589 0.72786 0.0
C751 C 0.81517 0.88117 0.83526 0.0
H752 H 0.84441 0.81888 0.71092 0.0
H753 H 0.91285 0.83081 0.7857 0.0
H754 H 0.79957 0.86866 0.75213 0.0
H755 H 0.81786 0.88181 0.71244 0.0
H756 H 0.80526 0.84688 0.71198 0.0
H757 H 0.91172 0.86518 0.8331 0.0
H758 H 0.90527 0.89577 0.80597 0.0
H759 H 0.88077 0.88517 0.84059 0.0
H760 H 0.84418 0.96069 0.73726 0.0
H761 H 0.79353 0.93227 0.82809 0.0
H762 H 0.86755 0.90165 0.70599 0.0
H763 H 0.89397 0.90632 0.74039 0.0
H764 H 0.88153 0.93552 0.71415 0.0
H765 H 0.80165 0.86642 0.82023 0.0
H766 H 0.80342 0.88975 0.85929 0.0
H767 H 0.83311 0.86945 0.84609 0.0
C768 C 0.05879 0.8027 0.80665 0.0
C769 C 0.04068 0.806 0.77644 0.0
C770 C 0.08344 0.81793 0.80861 0.0
C771 C 0.09028 0.83619 0.77909 0.0
C772 C 0.07147 0.8403 0.74931 0.0
C773 C 0.047 0.8251 0.74834 0.0
C774 C 0.10273 0.81331 0.84112 0.0
C775 C 0.07804 0.85928 0.71692 0.0
C776 C 0.14716 0.88926 0.77324 0.0
C777 C 0.16568 0.87562 0.74942 0.0
C778 C 0.12351 0.87571 0.78669 0.0
C779 C 0.11839 0.84811 0.77578 0.0
C780 C 0.1385 0.83353 0.75503 0.0
C781 C 0.16194 0.84745 0.74222 0.0
C782 C 0.10289 0.89166 0.80973 0.0
C783 C 0.13402 0.80401 0.74295 0.0
H784 H 0.05401 0.78771 0.82823 0.0
H785 H 0.03358 0.8271 0.7243 0.0
H786 H 0.11944 0.79905 0.83248 0.0
H787 H 0.11248 0.83293 0.85005 0.0
H788 H 0.09186 0.80403 0.86544 0.0
H789 H 0.06032 0.86171 0.6975 0.0
H790 H 0.08404 0.87995 0.72734 0.0
H791 H 0.09576 0.8509 0.70086 0.0
H792 H 0.15009 0.91095 0.77933 0.0
H793 H 0.17651 0.83658 0.72453 0.0
H794 H 0.09414 0.87856 0.83227 0.0
H795 H 0.08559 0.89832 0.79153 0.0
H796 H 0.11229 0.91031 0.82247 0.0
H797 H 0.12705 0.79124 0.76689 0.0
H798 H 0.153 0.79466 0.73104 0.0
H799 H 0.11761 0.8033 0.72131 0.0
C800 C 0.65441 0.46831 0.71856 0.0
C801 C 0.68318 0.47125 0.71785 0.0
C802 C 0.64219 0.4422 0.72173 0.0
C803 C 0.65915 0.41848 0.72261 0.0
C804 C 0.68789 0.42115 0.71696 0.0
C805 C 0.69961 0.44753 0.71497 0.0
C806 C 0.61142 0.44028 0.72763 0.0
C807 C 0.70661 0.39629 0.7164 0.0
C808 C 0.63973 0.36114 0.78904 0.0
C809 C 0.62822 0.34146 0.765 0.0
C810 C 0.64922 0.38642 0.77548 0.0
C811 C 0.64785 0.39197 0.73664 0.0
C812 C 0.63629 0.3722 0.71203 0.0
C813 C 0.6262 0.34719 0.72664 0.0
C814 C 0.66077 0.40719 0.8029 0.0
C815 C 0.63522 0.37714 0.67036 0.0
H816 H 0.64135 0.48633 0.71803 0.0
H817 H 0.72184 0.44948 0.71335 0.0
H818 H 0.60246 0.42329 0.71082 0.0
H819 H 0.6072 0.43567 0.75753 0.0
H820 H 0.60075 0.4598 0.72024 0.0
H821 H 0.7272 0.40128 0.70453 0.0
H822 H 0.70955 0.38866 0.74541 0.0
H823 H 0.69731 0.37933 0.69984 0.0
H824 H 0.64091 0.35696 0.81879 0.0
H825 H 0.61733 0.33192 0.70805 0.0
H826 H 0.64981 0.42716 0.80001 0.0
H827 H 0.68287 0.41097 0.79675 0.0
H828 H 0.65894 0.40018 0.83241 0.0
H829 H 0.62572 0.39743 0.66417 0.0
H830 H 0.62346 0.36083 0.65547 0.0
H831 H 0.65652 0.37764 0.659 0.0
C832 C 0.51038 0.65816 0.69894 0.0
C833 C 0.5095 0.68684 0.70388 0.0
C834 C 0.53564 0.64403 0.69875 0.0
C835 C 0.56047 0.65911 0.7022 0.0
C836 C 0.55976 0.68825 0.70136 0.0
C837 C 0.53427 0.70178 0.70252 0.0
C838 C 0.53554 0.61292 0.69878 0.0
C839 C 0.58585 0.70517 0.70343 0.0
C840 C 0.61586 0.63395 0.76768 0.0
C841 C 0.6364 0.62514 0.74295 0.0
C842 C 0.59057 0.64364 0.75453 0.0
C843 C 0.5859 0.64518 0.71547 0.0
C844 C 0.60625 0.63542 0.69021 0.0
C845 C 0.63133 0.62516 0.70437 0.0
C846 C 0.56925 0.6532 0.7826 0.0
C847 C 0.60225 0.63715 0.64841 0.0
H848 H 0.49147 0.6465 0.6969 0.0
H849 H 0.53394 0.72405 0.70501 0.0
H850 H 0.55253 0.60467 0.68127 0.0
H851 H 0.5388 0.60543 0.7278 0.0
H852 H 0.51564 0.60447 0.68847 0.0
H853 H 0.58223 0.72696 0.69522 0.0
H854 H 0.59379 0.7049 0.73257 0.0
H855 H 0.60204 0.69634 0.68506 0.0
H856 H 0.6197 0.63345 0.79759 0.0
H857 H 0.64735 0.61833 0.68532 0.0
H858 H 0.54907 0.64329 0.77686 0.0
H859 H 0.56636 0.67582 0.78015 0.0
H860 H 0.57529 0.64843 0.81189 0.0
H861 H 0.5807 0.63224 0.64042 0.0
H862 H 0.61641 0.62302 0.63326 0.0
H863 H 0.60661 0.65851 0.63902 0.0
C864 C 0.30678 0.52309 0.70732 0.0
C865 C 0.31287 0.50814 0.73986 0.0
C866 C 0.31665 0.55007 0.70244 0.0
C867 C 0.33247 0.56242 0.73117 0.0
C868 C 0.33961 0.54694 0.76336 0.0
C869 C 0.32966 0.52001 0.76733 0.0
C870 C 0.30889 0.56581 0.66755 0.0
C871 C 0.35622 0.55943 0.79486 0.0
C872 C 0.37245 0.62932 0.72519 0.0
C873 C 0.35492 0.64703 0.74518 0.0
C874 C 0.36456 0.60202 0.71758 0.0
C875 C 0.33866 0.59239 0.73036 0.0
C876 C 0.31998 0.61092 0.74748 0.0
C877 C 0.32831 0.63803 0.75456 0.0
C878 C 0.3848 0.58299 0.69858 0.0
C879 C 0.29206 0.60154 0.76134 0.0
H880 H 0.29368 0.51393 0.6861 0.0
H881 H 0.33367 0.50895 0.79308 0.0
H882 H 0.29274 0.58118 0.67445 0.0
H883 H 0.32691 0.57726 0.65637 0.0
H884 H 0.30079 0.55198 0.64534 0.0
H885 H 0.36199 0.54395 0.8164 0.0
H886 H 0.37534 0.56901 0.78382 0.0
H887 H 0.34403 0.57595 0.80859 0.0
H888 H 0.39299 0.63617 0.71761 0.0
H889 H 0.31447 0.65171 0.76949 0.0
H890 H 0.37421 0.56976 0.67773 0.0
H891 H 0.39425 0.56919 0.71977 0.0
H892 H 0.40157 0.59457 0.68435 0.0
H893 H 0.28105 0.58988 0.73924 0.0
H894 H 0.27891 0.6191 0.77029 0.0
H895 H 0.29481 0.58749 0.78559 0.0
C896 C 0.37479 0.33924 0.78593 0.0
C897 C 0.35357 0.35037 0.76417 0.0
C898 C 0.39902 0.32956 0.76949 0.0
C899 C 0.40184 0.33028 0.73004 0.0
C900 C 0.38051 0.34165 0.70774 0.0
C901 C 0.35663 0.35198 0.72523 0.0
C902 C 0.42152 0.31832 0.79455 0.0
C903 C 0.38232 0.34197 0.66559 0.0
C904 C 0.47692 0.32169 0.70821 0.0
C905 C 0.47919 0.293 0.7118 0.0
C906 C 0.45107 0.33459 0.70975 0.0
C907 C 0.42707 0.31821 0.71323 0.0
C908 C 0.42908 0.28924 0.70991 0.0
C909 C 0.4552 0.2769 0.70966 0.0
C910 C 0.44981 0.36562 0.71235 0.0
C911 C 0.40382 0.2711 0.71131 0.0
H912 H 0.37258 0.33847 0.81613 0.0
H913 H 0.34008 0.36055 0.70847 0.0
H914 H 0.42432 0.29597 0.78923 0.0
H915 H 0.44141 0.32869 0.78838 0.0
H916 H 0.41679 0.32116 0.82474 0.0
H917 H 0.3678 0.35713 0.65316 0.0
H918 H 0.40351 0.34676 0.65589 0.0
H919 H 0.3769 0.32122 0.65478 0.0
H920 H 0.49528 0.33427 0.70662 0.0
H921 H 0.45664 0.25461 0.71088 0.0
H922 H 0.44702 0.37164 0.74209 0.0
H923 H 0.43203 0.37386 0.69638 0.0
H924 H 0.46903 0.3754 0.70182 0.0
H925 H 0.39692 0.26893 0.7408 0.0
H926 H 0.40812 0.25018 0.70008 0.0
H927 H 0.38665 0.28042 0.69516 0.0
C928 C 0.60213 0.66139 0.28898 0.0
C929 C 0.61482 0.68162 0.26681 0.0
C930 C 0.61646 0.63739 0.29935 0.0
C931 C 0.64405 0.63373 0.28732 0.0
C932 C 0.65765 0.65524 0.26793 0.0
C933 C 0.64287 0.67891 0.25793 0.0
C934 C 0.60137 0.61505 0.32043 0.0
C935 C 0.68714 0.65231 0.25485 0.0
C936 C 0.6899 0.5746 0.31895 0.0
C937 C 0.68733 0.55637 0.2887 0.0
C938 C 0.67492 0.5994 0.31995 0.0
C939 C 0.65738 0.60619 0.28967 0.0
C940 C 0.65433 0.58754 0.25945 0.0
C941 C 0.66946 0.56296 0.25927 0.0
C942 C 0.67864 0.61874 0.35264 0.0
C943 C 0.63606 0.59411 0.22637 0.0
H944 H 0.58051 0.66336 0.29612 0.0
H945 H 0.65296 0.69465 0.24128 0.0
H946 H 0.59612 0.59806 0.30089 0.0
H947 H 0.61459 0.60627 0.34278 0.0
H948 H 0.58196 0.62278 0.33322 0.0
H949 H 0.69575 0.67214 0.24454 0.0
H950 H 0.70042 0.64455 0.2778 0.0
H951 H 0.68808 0.63706 0.23172 0.0
H952 H 0.7039 0.56962 0.34161 0.0
H953 H 0.66819 0.54957 0.23511 0.0
H954 H 0.65832 0.62572 0.36333 0.0
H955 H 0.69006 0.63735 0.34336 0.0
H956 H 0.69026 0.60899 0.37593 0.0
H957 H 0.61499 0.59949 0.23604 0.0
H958 H 0.63454 0.57661 0.20642 0.0
H959 H 0.64438 0.61225 0.21118 0.0
C960 C 0.44508 0.67448 0.27718 0.0
C961 C 0.45257 0.69451 0.30344 0.0
C962 C 0.42037 0.65986 0.28072 0.0
C963 C 0.40262 0.66549 0.31131 0.0
C964 C 0.41082 0.68458 0.33913 0.0
C965 C 0.43561 0.69924 0.33454 0.0
C966 C 0.41232 0.63992 0.25009 0.0
C967 C 0.39276 0.69079 0.37247 0.0
C968 C 0.32963 0.65482 0.27945 0.0
C969 C 0.32566 0.62692 0.28828 0.0
C970 C 0.3537 0.66861 0.29015 0.0
C971 C 0.37416 0.65422 0.31052 0.0
C972 C 0.36876 0.62716 0.32348 0.0
C973 C 0.34451 0.61371 0.31206 0.0
C974 C 0.35846 0.69758 0.27598 0.0
C975 C 0.3897 0.61151 0.34633 0.0
H976 H 0.45767 0.67146 0.25245 0.0
H977 H 0.44132 0.71498 0.35464 0.0
H978 H 0.40621 0.61979 0.26225 0.0
H979 H 0.39427 0.64815 0.2346 0.0
H980 H 0.42933 0.63639 0.2298 0.0
H981 H 0.4047 0.70042 0.39555 0.0
H982 H 0.37625 0.70533 0.36403 0.0
H983 H 0.3827 0.67179 0.38311 0.0
H984 H 0.31485 0.66536 0.26176 0.0
H985 H 0.34144 0.59224 0.31941 0.0
H986 H 0.3741 0.69716 0.25329 0.0
H987 H 0.36654 0.71095 0.29862 0.0
H988 H 0.3393 0.70701 0.26473 0.0
H989 H 0.40614 0.60362 0.32757 0.0
H990 H 0.38021 0.59367 0.361 0.0
H991 H 0.39959 0.62517 0.36732 0.0
C992 C 0.3367 0.45425 0.28075 0.0
C993 C 0.31966 0.46241 0.31041 0.0
C994 C 0.35145 0.42948 0.28227 0.0
C995 C 0.34899 0.41234 0.3142 0.0
C996 C 0.33286 0.42108 0.34502 0.0
C997 C 0.3181 0.44595 0.34258 0.0
C998 C 0.36817 0.4208 0.24856 0.0
C999 C 0.33 0.40353 0.37969 0.0
C1000 C 0.35679 0.33759 0.28743 0.0
C1001 C 0.38499 0.33317 0.29386 0.0
C1002 C 0.34433 0.36272 0.29652 0.0
C1003 C 0.3604 0.38395 0.31272 0.0
C1004 C 0.38824 0.3788 0.32237 0.0
C1005 C 0.40027 0.35341 0.31277 0.0
C1006 C 0.31452 0.36728 0.28586 0.0
C1007 C 0.40587 0.40078 0.34026 0.0
H1008 H 0.33727 0.46632 0.25529 0.0
H1009 H 0.30479 0.45219 0.36546 0.0
H1010 H 0.38924 0.41458 0.25716 0.0
H1011 H 0.35832 0.40267 0.23514 0.0
H1012 H 0.36988 0.4375 0.22739 0.0
H1013 H 0.32074 0.41519 0.40332 0.0
H1014 H 0.31661 0.38556 0.3735 0.0
H1015 H 0.35037 0.39542 0.38854 0.0
H1016 H 0.34469 0.32192 0.27336 0.0
H1017 H 0.42201 0.35011 0.3181 0.0
H1018 H 0.31342 0.38215 0.26228 0.0
H1019 H 0.30288 0.37628 0.30961 0.0
H1020 H 0.30419 0.34788 0.27712 0.0
H1021 H 0.41141 0.41648 0.31894 0.0
H1022 H 0.42522 0.39213 0.35203 0.0
H1023 H 0.39439 0.41146 0.36288 0.0
C1024 C 0.56124 0.32286 0.34196 0.0
C1025 C 0.5462 0.32202 0.30853 0.0
C1026 C 0.58536 0.3388 0.34477 0.0
C1027 C 0.59492 0.35341 0.31299 0.0
C1028 C 0.5792 0.35323 0.27955 0.0
C1029 C 0.55503 0.33751 0.27777 0.0
C1030 C 0.60129 0.33882 0.38103 0.0
C1031 C 0.58883 0.36814 0.24476 0.0
C1032 C 0.65131 0.40712 0.30686 0.0
C1033 C 0.67235 0.39153 0.29023 0.0
C1034 C 0.62654 0.39451 0.31812 0.0
C1035 C 0.62293 0.36584 0.31236 0.0
C1036 C 0.6453 0.34971 0.29944 0.0
C1037 C 0.66977 0.36276 0.28871 0.0
C1038 C 0.6034 0.41225 0.33284 0.0
C1039 C 0.64248 0.31905 0.29304 0.0
H1040 H 0.55444 0.3106 0.36561 0.0
H1041 H 0.54387 0.33609 0.25155 0.0
H1042 H 0.61943 0.32504 0.37838 0.0
H1043 H 0.60905 0.35979 0.38759 0.0
H1044 H 0.5885 0.33141 0.40481 0.0
H1045 H 0.57325 0.36752 0.22199 0.0
H1046 H 0.59349 0.39 0.25127 0.0
H1047 H 0.60812 0.35852 0.23432 0.0
H1048 H 0.65325 0.42937 0.30832 0.0
H1049 H 0.68621 0.35054 0.2765 0.0
H1050 H 0.59232 0.40169 0.35593 0.0
H1051 H 0.58832 0.41608 0.31008 0.0
H1052 H 0.61107 0.43248 0.34305 0.0
H1053 H 0.63288 0.30891 0.31762 0.0
H1054 H 0.66268 0.30907 0.28744 0.0
H1055 H 0.62883 0.31537 0.26861 0.0
C1056 C 0.20258 0.19786 0.40739 0.0
C1057 C 0.18158 0.19644 0.38044 0.0
C1058 C 0.19653 0.20411 0.44482 0.0
C1059 C 0.16882 0.20873 0.45549 0.0
C1060 C 0.14787 0.20941 0.42791 0.0
C1061 C 0.15456 0.20345 0.39061 0.0
C1062 C 0.21951 0.20377 0.47331 0.0
C1063 C 0.11804 0.21418 0.43823 0.0
C1064 C 0.14471 0.18533 0.55109 0.0
C1065 C 0.14069 0.21053 0.56951 0.0
C1066 C 0.1547 0.18449 0.51431 0.0
C1067 C 0.16114 0.20945 0.49568 0.0
C1068 C 0.15852 0.23486 0.51476 0.0
C1069 C 0.14813 0.23512 0.55143 0.0
C1070 C 0.15717 0.15693 0.49483 0.0
C1071 C 0.16573 0.2618 0.49599 0.0
H1072 H 0.22357 0.1927 0.39964 0.0
H1073 H 0.13822 0.20248 0.36995 0.0
H1074 H 0.21755 0.2214 0.49291 0.0
H1075 H 0.21821 0.18458 0.49011 0.0
H1076 H 0.24015 0.20458 0.45986 0.0
H1077 H 0.10473 0.21682 0.41318 0.0
H1078 H 0.11028 0.19632 0.45455 0.0
H1079 H 0.11598 0.23272 0.45618 0.0
H1080 H 0.13904 0.16624 0.56486 0.0
H1081 H 0.14524 0.25467 0.56561 0.0
H1082 H 0.17832 0.15415 0.48364 0.0
H1083 H 0.14278 0.15619 0.47069 0.0
H1084 H 0.1524 0.13938 0.51376 0.0
H1085 H 0.18644 0.26052 0.48286 0.0
H1086 H 0.16552 0.27937 0.51594 0.0
H1087 H 0.1507 0.26613 0.47335 0.0
C1088 C 0.80911 0.15095 0.38843 0.0
C1089 C 0.81088 0.17842 0.37643 0.0
C1090 C 0.80351 0.14459 0.42591 0.0
C1091 C 0.79923 0.16622 0.45185 0.0
C1092 C 0.79855 0.19387 0.43927 0.0
C1093 C 0.80444 0.19967 0.40162 0.0
C1094 C 0.8043 0.11479 0.43824 0.0
C1095 C 0.79359 0.21744 0.46601 0.0
C1096 C 0.77379 0.14307 0.54709 0.0
C1097 C 0.7987 0.14044 0.56678 0.0
C1098 C 0.7734 0.15283 0.51013 0.0
C1099 C 0.79852 0.15989 0.49246 0.0
C1100 C 0.82355 0.15862 0.5128 0.0
C1101 C 0.82332 0.14897 0.54979 0.0
C1102 C 0.74629 0.15436 0.48948 0.0
C1103 C 0.85081 0.16605 0.49491 0.0
H1104 H 0.81382 0.13438 0.36911 0.0
H1105 H 0.80554 0.22096 0.39251 0.0
H1106 H 0.82268 0.11133 0.45613 0.0
H1107 H 0.78585 0.10973 0.45525 0.0
H1108 H 0.8053 0.10035 0.41414 0.0
H1109 H 0.7892 0.23702 0.45103 0.0
H1110 H 0.77612 0.21276 0.48504 0.0
H1111 H 0.81218 0.22051 0.48363 0.0
H1112 H 0.75463 0.13672 0.56013 0.0
H1113 H 0.84263 0.14711 0.56485 0.0
H1114 H 0.74556 0.138 0.4678 0.0
H1115 H 0.74425 0.17446 0.47492 0.0
H1116 H 0.72837 0.15161 0.50851 0.0
H1117 H 0.85584 0.15081 0.47277 0.0
H1118 H 0.86793 0.16636 0.51554 0.0
H1119 H 0.84958 0.18658 0.48134 0.0
C1120 C 0.84109 0.814 0.55171 0.0
C1121 C 0.84761 0.7885 0.56789 0.0
C1122 C 0.8323 0.81572 0.51441 0.0
C1123 C 0.82977 0.7913 0.49295 0.0
C1124 C 0.83467 0.76538 0.50978 0.0
C1125 C 0.84364 0.76428 0.54707 0.0
C1126 C 0.82721 0.84381 0.49741 0.0
C1127 C 0.83177 0.7389 0.48791 0.0
C1128 C 0.7924 0.80145 0.40096 0.0
C1129 C 0.81453 0.80691 0.37672 0.0
C1130 C 0.79701 0.79463 0.4386 0.0
C1131 C 0.82437 0.79331 0.45217 0.0
C1132 C 0.84678 0.79663 0.42716 0.0
C1133 C 0.84158 0.80324 0.38965 0.0
C1134 C 0.77261 0.79078 0.46433 0.0
C1135 C 0.87629 0.79524 0.44057 0.0
H1136 H 0.84402 0.8328 0.56763 0.0
H1137 H 0.84845 0.74446 0.55947 0.0
H1138 H 0.84311 0.84812 0.47583 0.0
H1139 H 0.80685 0.84435 0.48328 0.0
H1140 H 0.82786 0.86053 0.51864 0.0
H1141 H 0.83283 0.72043 0.50625 0.0
H1142 H 0.81193 0.73857 0.47246 0.0
H1143 H 0.84855 0.73752 0.46688 0.0
H1144 H 0.77141 0.80404 0.39113 0.0
H1145 H 0.85881 0.80722 0.37108 0.0
H1146 H 0.77053 0.80912 0.48268 0.0
H1147 H 0.77565 0.77259 0.4827 0.0
H1148 H 0.75305 0.78814 0.44854 0.0
H1149 H 0.88056 0.81299 0.45931 0.0
H1150 H 0.89128 0.79577 0.41705 0.0
H1151 H 0.87979 0.77617 0.45703 0.0
C1152 C 0.19085 0.79057 0.40067 0.0
C1153 C 0.18388 0.81393 0.3795 0.0
C1154 C 0.19746 0.79288 0.43876 0.0
C1155 C 0.19693 0.81913 0.45593 0.0
C1156 C 0.19184 0.84296 0.43411 0.0
C1157 C 0.18555 0.84007 0.39606 0.0
C1158 C 0.2033 0.76709 0.46104 0.0
C1159 C 0.1912 0.87138 0.45144 0.0
C1160 C 0.17669 0.82861 0.55731 0.0
C1161 C 0.20182 0.83682 0.57314 0.0
C1162 C 0.17507 0.82127 0.51942 0.0
C1163 C 0.19926 0.82179 0.49716 0.0
C1164 C 0.22501 0.82788 0.51374 0.0
C1165 C 0.22596 0.83552 0.55155 0.0
C1166 C 0.14717 0.81495 0.50264 0.0
C1167 C 0.25128 0.82808 0.49106 0.0
H1168 H 0.18978 0.77029 0.38801 0.0
H1169 H 0.18035 0.85825 0.37988 0.0
H1170 H 0.22143 0.77011 0.47952 0.0
H1171 H 0.18537 0.76238 0.47925 0.0
H1172 H 0.20714 0.74901 0.44268 0.0
H1173 H 0.18881 0.8879 0.43015 0.0
H1174 H 0.17372 0.87276 0.47143 0.0
H1175 H 0.21039 0.87526 0.46746 0.0
H1176 H 0.15797 0.82957 0.57384 0.0
H1177 H 0.24549 0.84159 0.56379 0.0
H1178 H 0.14798 0.79559 0.48616 0.0
H1179 H 0.14118 0.83174 0.48317 0.0
H1180 H 0.13085 0.81291 0.52432 0.0
H1181 H 0.25254 0.80951 0.473 0.0
H1182 H 0.2699 0.8289 0.50913 0.0
H1183 H 0.25144 0.84637 0.47242 0.0
C1184 C 0.6985 0.68734 0.92533 0.0
C1185 C 0.67603 0.6838 0.90108 0.0
C1186 C 0.69451 0.69562 0.96258 0.0
C1187 C 0.66739 0.70003 0.97591 0.0
C1188 C 0.64479 0.69808 0.95097 0.0
C1189 C 0.64942 0.69021 0.91375 0.0
C1190 C 0.71916 0.69809 0.98815 0.0
C1191 C 0.61551 0.70245 0.96419 0.0
C1192 C 0.64896 0.68403 0.07652 0.0
C1193 C 0.64431 0.71045 0.09111 0.0
C1194 C 0.65763 0.68042 0.03942 0.0
C1195 C 0.66215 0.70383 0.01654 0.0
C1196 C 0.65927 0.73059 0.03181 0.0
C1197 C 0.65017 0.73359 0.0689 0.0
C1198 C 0.66037 0.6515 0.02411 0.0
C1199 C 0.6645 0.75601 0.00848 0.0
H1200 H 0.71916 0.68261 0.91564 0.0
H1201 H 0.63193 0.68757 0.89521 0.0
H1202 H 0.71782 0.71716 0.0052 0.0
H1203 H 0.71949 0.68037 0.00778 0.0
H1204 H 0.73888 0.69827 0.97232 0.0
H1205 H 0.60047 0.70215 0.94074 0.0
H1206 H 0.60982 0.68596 0.98433 0.0
H1207 H 0.61363 0.72242 0.97908 0.0
H1208 H 0.64453 0.66603 0.09349 0.0
H1209 H 0.64682 0.75409 0.08009 0.0
H1210 H 0.68082 0.64869 0.01074 0.0
H1211 H 0.6445 0.64804 0.00222 0.0
H1212 H 0.65781 0.63555 0.04616 0.0
H1213 H 0.68429 0.75411 0.9931 0.0
H1214 H 0.66508 0.77503 0.02578 0.0
H1215 H 0.64791 0.75825 0.98734 0.0
C1216 C 0.30656 0.70648 0.93579 0.0
C1217 C 0.31414 0.68332 0.91459 0.0
C1218 C 0.29985 0.70395 0.97388 0.0
C1219 C 0.30103 0.67772 0.99112 0.0
C1220 C 0.30724 0.65411 0.9694 0.0
C1221 C 0.31353 0.65719 0.93135 0.0
C1222 C 0.29282 0.7295 0.99603 0.0
C1223 C 0.30875 0.62574 0.98679 0.0
C1224 C 0.31879 0.66926 0.09368 0.0
C1225 C 0.29352 0.66042 0.10849 0.0
C1226 C 0.32124 0.67632 0.05574 0.0
C1227 C 0.29773 0.67488 0.03229 0.0
C1228 C 0.27178 0.66792 0.04771 0.0
C1229 C 0.27001 0.66057 0.08561 0.0
C1230 C 0.34935 0.68349 0.04026 0.0
C1231 C 0.24617 0.66669 0.02375 0.0
H1232 H 0.30689 0.72675 0.92302 0.0
H1233 H 0.31929 0.63917 0.9152 0.0
H1234 H 0.27407 0.72602 0.01321 0.0
H1235 H 0.30994 0.73435 0.01552 0.0
H1236 H 0.28934 0.74766 0.97767 0.0
H1237 H 0.31246 0.60935 0.96566 0.0
H1238 H 0.32572 0.62514 0.00762 0.0
H1239 H 0.28934 0.62098 0.00188 0.0
H1240 H 0.33705 0.66917 0.11117 0.0
H1241 H 0.25036 0.65397 0.09699 0.0
H1242 H 0.34837 0.70282 0.02372 0.0
H1243 H 0.35635 0.66689 0.02109 0.0
H1244 H 0.36502 0.68603 0.06267 0.0
H1245 H 0.24458 0.68532 0.00586 0.0
H1246 H 0.22712 0.6649 0.04086 0.0
H1247 H 0.24736 0.64856 0.00489 0.0
C1248 C 0.29377 0.29699 0.95694 0.0
C1249 C 0.31732 0.30073 0.93466 0.0
C1250 C 0.29608 0.29088 0.99519 0.0
C1251 C 0.32256 0.28884 0.01152 0.0
C1252 C 0.34638 0.29074 0.98867 0.0
C1253 C 0.34344 0.29645 0.9504 0.0
C1254 C 0.27022 0.28842 0.0185 0.0
C1255 C 0.37503 0.28879 0.0051 0.0
C1256 C 0.33492 0.31205 0.11113 0.0
C1257 C 0.34036 0.28694 0.12911 0.0
C1258 C 0.32777 0.31284 0.07316 0.0
C1259 C 0.32564 0.28786 0.05284 0.0
C1260 C 0.32891 0.26236 0.07152 0.0
C1261 C 0.33635 0.26219 0.10948 0.0
C1262 C 0.32436 0.3405 0.05422 0.0
C1263 C 0.32626 0.23533 0.05093 0.0
H1264 H 0.27349 0.30005 0.94486 0.0
H1265 H 0.36174 0.2993 0.9334 0.0
H1266 H 0.27164 0.27057 0.03783 0.0
H1267 H 0.26776 0.30721 0.03587 0.0
H1268 H 0.25151 0.28604 0.00087 0.0
H1269 H 0.39127 0.2882 0.98316 0.0
H1270 H 0.3789 0.30689 0.02337 0.0
H1271 H 0.37698 0.27008 0.02276 0.0
H1272 H 0.33783 0.33127 0.1261 0.0
H1273 H 0.34033 0.24267 0.12324 0.0
H1274 H 0.30466 0.34123 0.0385 0.0
H1275 H 0.34128 0.3436 0.03371 0.0
H1276 H 0.3247 0.35786 0.07449 0.0
H1277 H 0.30762 0.2353 0.03294 0.0
H1278 H 0.32515 0.21751 0.07042 0.0
H1279 H 0.34439 0.23246 0.03238 0.0
C1280 C 0.67631 0.28656 0.9567 0.0
C1281 C 0.66567 0.30884 0.93623 0.0
C1282 C 0.6862 0.29024 0.9933 0.0
C1283 C 0.68512 0.31674 0.00977 0.0
C1284 C 0.67539 0.33946 0.9887 0.0
C1285 C 0.66592 0.33525 0.95214 0.0
C1286 C 0.69688 0.26565 0.01476 0.0
C1287 C 0.67391 0.36809 0.00531 0.0
C1288 C 0.67758 0.32827 0.11387 0.0
C1289 C 0.70337 0.33955 0.12279 0.0
C1290 C 0.67186 0.31904 0.07751 0.0
C1291 C 0.69258 0.32082 0.04966 0.0
C1292 C 0.71935 0.32992 0.05934 0.0
C1293 C 0.7244 0.33934 0.0958 0.0
C1294 C 0.64301 0.30952 0.06823 0.0
C1295 C 0.74212 0.33162 0.03058 0.0
H1296 H 0.67628 0.26609 0.94453 0.0
H1297 H 0.65783 0.3526 0.93649 0.0
H1298 H 0.71716 0.27045 0.02757 0.0
H1299 H 0.68246 0.26063 0.03789 0.0
H1300 H 0.69913 0.24715 0.9967 0.0
H1301 H 0.66674 0.3837 0.98473 0.0
H1302 H 0.65953 0.36814 0.0295 0.0
H1303 H 0.69445 0.37445 0.01588 0.0
H1304 H 0.66124 0.32827 0.13459 0.0
H1305 H 0.74449 0.34776 0.10263 0.0
H1306 H 0.64358 0.28992 0.05225 0.0
H1307 H 0.63278 0.32514 0.05027 0.0
H1308 H 0.63023 0.30644 0.09371 0.0
H1309 H 0.74269 0.31268 0.01319 0.0
H1310 H 0.76265 0.33459 0.04377 0.0
H1311 H 0.73817 0.34928 0.01158 0.0
C1312 C 0.30182 0.15342 0.25093 0.0
C1313 C 0.2931 0.12698 0.26065 0.0
C1314 C 0.32957 0.16083 0.25366 0.0
C1315 C 0.34896 0.14144 0.26759 0.0
C1316 C 0.3404 0.11422 0.27597 0.0
C1317 C 0.31241 0.10721 0.27209 0.0
C1318 C 0.33775 0.18992 0.24311 0.0
C1319 C 0.36012 0.09298 0.29125 0.0
C1320 C 0.41511 0.17435 0.24355 0.0
C1321 C 0.41554 0.19404 0.27221 0.0
C1322 C 0.39612 0.15261 0.24457 0.0
C1323 C 0.37752 0.15102 0.27494 0.0
C1324 C 0.38243 0.16702 0.30743 0.0
C1325 C 0.40146 0.18877 0.30559 0.0
C1326 C 0.39251 0.13501 0.21014 0.0
C1327 C 0.36413 0.16462 0.34139 0.0
H1328 H 0.2867 0.16856 0.24212 0.0
H1329 H 0.30539 0.08683 0.28016 0.0
H1330 H 0.34492 0.20119 0.26831 0.0
H1331 H 0.35495 0.18958 0.22265 0.0
H1332 H 0.32039 0.20169 0.23059 0.0
H1333 H 0.35336 0.07178 0.28389 0.0
H1334 H 0.38145 0.09615 0.28088 0.0
H1335 H 0.36049 0.09457 0.32223 0.0
H1336 H 0.4264 0.17835 0.21788 0.0
H1337 H 0.40207 0.20389 0.32793 0.0
H1338 H 0.37669 0.14452 0.19176 0.0
H1339 H 0.3854 0.11398 0.21758 0.0
H1340 H 0.41205 0.13347 0.19402 0.0
H1341 H 0.34482 0.17636 0.33647 0.0
H1342 H 0.37433 0.17318 0.36669 0.0
H1343 H 0.35851 0.14279 0.34669 0.0
C1344 C 0.82316 0.41237 0.20784 0.0
C1345 C 0.80757 0.41896 0.23962 0.0
C1346 C 0.84465 0.39322 0.21013 0.0
C1347 C 0.85009 0.38052 0.24494 0.0
C1348 C 0.83851 0.39177 0.27802 0.0
C1349 C 0.81696 0.41095 0.27497 0.0
C1350 C 0.85756 0.38285 0.17439 0.0
C1351 C 0.84526 0.37996 0.31593 0.0
C1352 C 0.84437 0.30298 0.24419 0.0
C1353 C 0.87174 0.29475 0.2488 0.0
C1354 C 0.8374 0.33082 0.24188 0.0
C1355 C 0.8584 0.3511 0.24497 0.0
C1356 C 0.88631 0.34291 0.24842 0.0
C1357 C 0.8927 0.31464 0.25008 0.0
C1358 C 0.80733 0.33839 0.23708 0.0
C1359 C 0.90928 0.36368 0.25233 0.0
H1360 H 0.81613 0.41917 0.18052 0.0
H1361 H 0.80512 0.41645 0.29963 0.0
H1362 H 0.8793 0.37661 0.17895 0.0
H1363 H 0.84598 0.36451 0.16448 0.0
H1364 H 0.85682 0.39877 0.15204 0.0
H1365 H 0.84029 0.39479 0.33865 0.0
H1366 H 0.83289 0.36099 0.32048 0.0
H1367 H 0.86739 0.37431 0.31768 0.0
H1368 H 0.82824 0.2875 0.24298 0.0
H1369 H 0.9139 0.30819 0.25415 0.0
H1370 H 0.80465 0.35173 0.21213 0.0
H1371 H 0.80002 0.35007 0.26187 0.0
H1372 H 0.79391 0.31999 0.23367 0.0
H1373 H 0.9049 0.38297 0.23675 0.0
H1374 H 0.92921 0.35506 0.24239 0.0
H1375 H 0.91166 0.36905 0.28234 0.0
C1376 C 0.69402 0.84977 0.24534 0.0
C1377 C 0.7031 0.8767 0.25142 0.0
C1378 C 0.66607 0.84391 0.24111 0.0
C1379 C 0.64649 0.8656 0.24374 0.0
C1380 C 0.65556 0.89306 0.2492 0.0
C1381 C 0.68396 0.89834 0.25273 0.0
C1382 C 0.65766 0.81426 0.23435 0.0
C1383 C 0.63554 0.91669 0.25308 0.0
C1384 C 0.58737 0.83311 0.19803 0.0
C1385 C 0.57931 0.81612 0.22782 0.0
C1386 C 0.60614 0.85456 0.20393 0.0
C1387 C 0.61687 0.85849 0.2403 0.0
C1388 C 0.60364 0.84583 0.2712 0.0
C1389 C 0.58491 0.82432 0.26458 0.0
C1390 C 0.61847 0.86889 0.17041 0.0
C1391 C 0.61309 0.85126 0.31068 0.0
H1392 H 0.70894 0.83313 0.24412 0.0
H1393 H 0.69108 0.91918 0.25799 0.0
H1394 H 0.64473 0.80678 0.25787 0.0
H1395 H 0.64536 0.81264 0.20829 0.0
H1396 H 0.67569 0.80026 0.23173 0.0
H1397 H 0.6451 0.93644 0.24412 0.0
H1398 H 0.61641 0.91332 0.23671 0.0
H1399 H 0.62967 0.91876 0.28297 0.0
H1400 H 0.58213 0.82727 0.1696 0.0
H1401 H 0.57802 0.81163 0.28776 0.0
H1402 H 0.6373 0.85763 0.16147 0.0
H1403 H 0.62449 0.89036 0.17728 0.0
H1404 H 0.60382 0.86918 0.14651 0.0
H1405 H 0.63145 0.83836 0.31676 0.0
H1406 H 0.59674 0.84595 0.33125 0.0
H1407 H 0.619 0.8732 0.31429 0.0
C1408 C 0.10339 0.68692 0.24106 0.0
C1409 C 0.12378 0.70737 0.23939 0.0
C1410 C 0.11059 0.65886 0.23925 0.0
C1411 C 0.13872 0.65151 0.23548 0.0
C1412 C 0.15901 0.67239 0.23113 0.0
C1413 C 0.15123 0.7 0.23338 0.0
C1414 C 0.08826 0.63746 0.24367 0.0
C1415 C 0.18927 0.66577 0.22586 0.0
C1416 C 0.18239 0.59566 0.27177 0.0
C1417 C 0.19329 0.58708 0.23748 0.0
C1418 C 0.15956 0.61342 0.27245 0.0
C1419 C 0.14815 0.62251 0.23809 0.0
C1420 C 0.15518 0.60873 0.20461 0.0
C1421 C 0.17811 0.59124 0.2046 0.0
C1422 C 0.15122 0.62636 0.30909 0.0
C1423 C 0.14221 0.6165 0.16775 0.0
H1424 H 0.08211 0.69274 0.246 0.0
H1425 H 0.16686 0.71596 0.23175 0.0
H1426 H 0.09368 0.61772 0.22983 0.0
H1427 H 0.08509 0.63334 0.27392 0.0
H1428 H 0.0684 0.64502 0.23207 0.0
H1429 H 0.20203 0.68456 0.22177 0.0
H1430 H 0.19723 0.65465 0.25074 0.0
H1431 H 0.19215 0.65227 0.20112 0.0
H1432 H 0.19388 0.59193 0.29731 0.0
H1433 H 0.18625 0.58384 0.17814 0.0
H1434 H 0.1287 0.63035 0.30974 0.0
H1435 H 0.16203 0.6464 0.31232 0.0
H1436 H 0.15684 0.61302 0.33319 0.0
H1437 H 0.12014 0.62191 0.17136 0.0
H1438 H 0.144 0.59945 0.14713 0.0
H1439 H 0.15303 0.63478 0.15614 0.0
C1440 C 0.38557 0.80941 0.75732 0.0
C1441 C 0.36519 0.78963 0.76468 0.0
C1442 C 0.37831 0.83655 0.74765 0.0
C1443 C 0.35008 0.84358 0.74457 0.0
C1444 C 0.32952 0.82344 0.75182 0.0
C1445 C 0.33739 0.79687 0.76226 0.0
C1446 C 0.40082 0.85763 0.74196 0.0
C1447 C 0.29907 0.82969 0.74807 0.0
C1448 C 0.30843 0.9075 0.74617 0.0
C1449 C 0.29898 0.90665 0.70916 0.0
C1450 C 0.32984 0.88993 0.75757 0.0
C1451 C 0.34111 0.87112 0.73142 0.0
C1452 C 0.3354 0.87441 0.69289 0.0
C1453 C 0.31433 0.89238 0.68214 0.0
C1454 C 0.33721 0.88841 0.79849 0.0
C1455 C 0.34775 0.85553 0.66378 0.0
H1456 H 0.40714 0.80384 0.75999 0.0
H1457 H 0.32168 0.78149 0.76794 0.0
H1458 H 0.39565 0.87245 0.71939 0.0
H1459 H 0.40338 0.86959 0.7682 0.0
H1460 H 0.42086 0.84769 0.73528 0.0
H1461 H 0.28596 0.81129 0.7533 0.0
H1462 H 0.29304 0.84595 0.7683 0.0
H1463 H 0.29449 0.83745 0.71952 0.0
H1464 H 0.2971 0.91918 0.76699 0.0
H1465 H 0.30765 0.8926 0.65316 0.0
H1466 H 0.35932 0.88316 0.80214 0.0
H1467 H 0.32477 0.87201 0.8121 0.0
H1468 H 0.33281 0.90821 0.81293 0.0
H1469 H 0.36986 0.85158 0.66956 0.0
H1470 H 0.34573 0.86425 0.63515 0.0
H1471 H 0.33681 0.83543 0.66449 0.0
C1472 C 0.1924 0.38274 0.79149 0.0
C1473 C 0.21209 0.36181 0.79576 0.0
C1474 C 0.16502 0.37637 0.78215 0.0
C1475 C 0.15765 0.34854 0.77591 0.0
C1476 C 0.17748 0.32735 0.78097 0.0
C1477 C 0.20435 0.33427 0.79146 0.0
C1478 C 0.14407 0.39928 0.77912 0.0
C1479 C 0.17071 0.29737 0.77379 0.0
C1480 C 0.09075 0.31103 0.76726 0.0
C1481 C 0.09137 0.30559 0.72875 0.0
C1482 C 0.11009 0.32907 0.78321 0.0
C1483 C 0.13045 0.34115 0.76 0.0
C1484 C 0.12802 0.33927 0.72064 0.0
C1485 C 0.10817 0.32168 0.70545 0.0
C1486 C 0.111 0.33219 0.82517 0.0
C1487 C 0.14902 0.35212 0.6947 0.0
H1488 H 0.19837 0.40405 0.79576 0.0
H1489 H 0.21965 0.31816 0.79491 0.0
H1490 H 0.13241 0.39784 0.7525 0.0
H1491 H 0.1289 0.39727 0.80222 0.0
H1492 H 0.15377 0.41999 0.78089 0.0
H1493 H 0.18867 0.2836 0.77858 0.0
H1494 H 0.15368 0.29062 0.79239 0.0
H1495 H 0.16369 0.29465 0.74446 0.0
H1496 H 0.07729 0.29913 0.78534 0.0
H1497 H 0.10798 0.31819 0.67545 0.0
H1498 H 0.11811 0.35312 0.83319 0.0
H1499 H 0.12574 0.31703 0.83702 0.0
H1500 H 0.09044 0.32833 0.83788 0.0
H1501 H 0.15403 0.37346 0.70342 0.0
H1502 H 0.14168 0.35254 0.66524 0.0
H1503 H 0.16837 0.3399 0.69576 0.0
C1504 C 0.6095 0.17814 0.77387 0.0
C1505 C 0.62755 0.19937 0.78434 0.0
C1506 C 0.61972 0.1522 0.76325 0.0
C1507 C 0.64857 0.14794 0.76217 0.0
C1508 C 0.66677 0.16933 0.77322 0.0
C1509 C 0.65596 0.19463 0.78468 0.0
C1510 C 0.59977 0.12943 0.75347 0.0
C1511 C 0.69776 0.16595 0.77165 0.0
C1512 C 0.69304 0.08514 0.75634 0.0
C1513 C 0.70245 0.08801 0.71946 0.0
C1514 C 0.67183 0.10216 0.76984 0.0
C1515 C 0.66052 0.12253 0.74595 0.0
C1516 C 0.66707 0.12242 0.70739 0.0
C1517 C 0.68785 0.1049 0.69453 0.0
C1518 C 0.66408 0.10067 0.81066 0.0
C1519 C 0.65533 0.14357 0.68074 0.0
H1520 H 0.58744 0.18174 0.77442 0.0
H1521 H 0.66986 0.21109 0.79281 0.0
H1522 H 0.60518 0.1199 0.72623 0.0
H1523 H 0.60108 0.11299 0.77498 0.0
H1524 H 0.57813 0.13689 0.75216 0.0
H1525 H 0.70887 0.1848 0.78084 0.0
H1526 H 0.70426 0.14859 0.7898 0.0
H1527 H 0.70429 0.16104 0.74262 0.0
H1528 H 0.70382 0.0716 0.77552 0.0
H1529 H 0.69447 0.10644 0.6656 0.0
H1530 H 0.64187 0.10528 0.81471 0.0
H1531 H 0.67611 0.11622 0.82655 0.0
H1532 H 0.66868 0.08002 0.82259 0.0
H1533 H 0.63289 0.14631 0.68525 0.0
H1534 H 0.65887 0.1378 0.65103 0.0
H1535 H 0.66543 0.16376 0.68589 0.0
C1536 C 0.7877 0.65157 0.75534 0.0
C1537 C 0.78102 0.62374 0.75952 0.0
C1538 C 0.81468 0.65968 0.74706 0.0
C1539 C 0.83567 0.63941 0.74398 0.0
C1540 C 0.82909 0.6112 0.74859 0.0
C1541 C 0.80165 0.60365 0.75593 0.0
C1542 C 0.82059 0.69001 0.74136 0.0
C1543 C 0.85098 0.58912 0.74706 0.0
C1544 C 0.89037 0.67159 0.68581 0.0
C1545 C 0.90361 0.68736 0.71334 0.0
C1546 C 0.87033 0.65221 0.69566 0.0
C1547 C 0.86392 0.64843 0.73392 0.0
C1548 C 0.88102 0.66034 0.76169 0.0
C1549 C 0.90075 0.68004 0.75104 0.0
C1550 C 0.85308 0.63942 0.66507 0.0
C1551 C 0.87584 0.65534 0.80274 0.0
H1552 H 0.77169 0.66704 0.75819 0.0
H1553 H 0.79649 0.5821 0.76002 0.0
H1554 H 0.83548 0.69731 0.76272 0.0
H1555 H 0.83003 0.69342 0.71343 0.0
H1556 H 0.80169 0.70287 0.74338 0.0
H1557 H 0.8419 0.56827 0.74337 0.0
H1558 H 0.8659 0.59295 0.72409 0.0
H1559 H 0.86273 0.5893 0.77371 0.0
H1560 H 0.89323 0.67678 0.65652 0.0
H1561 H 0.91138 0.69186 0.77238 0.0
H1562 H 0.83348 0.65108 0.6624 0.0
H1563 H 0.84781 0.61774 0.67179 0.0
H1564 H 0.86383 0.63998 0.63761 0.0
H1565 H 0.85869 0.66874 0.81233 0.0
H1566 H 0.89437 0.66021 0.81979 0.0
H1567 H 0.86976 0.6336 0.80781 0.0
C1568 C 0.21388 0.06401 0.42779 0.0
C1569 C 0.19703 0.05516 0.39832 0.0
C1570 C 0.21391 0.05021 0.46219 0.0
C1571 C 0.19695 0.02674 0.46695 0.0
C1572 C 0.18009 0.0175 0.43708 0.0
C1573 C 0.18037 0.03187 0.40296 0.0
C1574 C 0.23232 0.06055 0.49326 0.0
C1575 C 0.16194 0.99239 0.44113 0.0
C1576 C 0.21875 0.97514 0.54059 0.0
C1577 C 0.20058 0.98119 0.56992 0.0
C1578 C 0.21761 0.98969 0.50682 0.0
C1579 C 0.19804 0.01108 0.50257 0.0
C1580 C 0.18007 0.01778 0.53253 0.0
C1581 C 0.18159 0.00269 0.56604 0.0
C1582 C 0.23724 0.98205 0.47565 0.0
C1583 C 0.15913 0.04064 0.529 0.0
H1584 H 0.22721 0.08172 0.42383 0.0
H1585 H 0.16741 0.0251 0.38002 0.0
H1586 H 0.21995 0.06456 0.51882 0.0
H1587 H 0.2478 0.04458 0.50046 0.0
H1588 H 0.24336 0.07979 0.48547 0.0
H1589 H 0.14957 0.98833 0.41555 0.0
H1590 H 0.1748 0.974 0.4471 0.0
H1591 H 0.14769 0.9951 0.46516 0.0
H1592 H 0.2338 0.95881 0.54402 0.0
H1593 H 0.16762 0.0073 0.58891 0.0
H1594 H 0.25018 7e-05 0.46812 0.0
H1595 H 0.22546 0.97614 0.45027 0.0
H1596 H 0.251 0.96466 0.48343 0.0
H1597 H 0.16966 0.06036 0.52237 0.0
H1598 H 0.14686 0.04341 0.555 0.0
H1599 H 0.14484 0.03613 0.50555 0.0
C1600 C 0.96435 0.2177 0.40833 0.0
C1601 C 0.94274 0.19988 0.399 0.0
C1602 C 0.97562 0.21763 0.44447 0.0
C1603 C 0.96434 0.19992 0.4721 0.0
C1604 C 0.94287 0.1815 0.46257 0.0
C1605 C 0.93259 0.18144 0.42592 0.0
C1606 C -0.00094 0.23705 0.45337 0.0
C1607 C 0.93008 0.16264 0.49138 0.0
C1608 C 0.00903 0.18824 0.55729 0.0
C1609 C 0.0001 0.20948 0.58094 0.0
C1610 C 0.99689 0.18415 0.5222 0.0
C1611 C 0.97476 0.20126 0.51109 0.0
C1612 C 0.96419 0.22127 0.53621 0.0
C1613 C 0.97732 0.22546 0.57076 0.0
C1614 C 0.00914 0.16298 0.49604 0.0
C1615 C 0.94006 0.23933 0.52569 0.0
H1616 H 0.97178 0.23238 0.38779 0.0
H1617 H 0.91586 0.16762 0.41859 0.0
H1618 H 0.99206 0.25275 0.47386 0.0
H1619 H 0.01637 0.22559 0.46639 0.0
H1620 H 0.00686 0.24785 0.42805 0.0
H1621 H 0.91392 0.14912 0.47918 0.0
H1622 H 0.94612 0.14947 0.5044 0.0
H1623 H 0.92072 0.17513 0.51409 0.0
H1624 H 0.02671 0.17591 0.56536 0.0
H1625 H 0.97076 0.24221 0.58876 0.0
H1626 H 0.01962 0.17367 0.47251 0.0
H1627 H 0.99278 0.14982 0.4838 0.0
H1628 H 0.02443 0.14954 0.5103 0.0
H1629 H 0.94647 0.25409 0.50362 0.0
H1630 H 0.93214 0.25123 0.54999 0.0
H1631 H 0.92303 0.22666 0.51409 0.0
C1632 C 0.82461 0.92809 0.42705 0.0
C1633 C 0.80587 0.9398 0.40174 0.0
C1634 C 0.82662 0.93783 0.46387 0.0
C1635 C 0.81007 0.96033 0.47514 0.0
C1636 C 0.79202 0.97304 0.44913 0.0
C1637 C 0.78983 0.96231 0.41284 0.0
C1638 C 0.84573 0.9235 0.49098 0.0
C1639 C 0.7744 -0.00256 0.45997 0.0
C1640 C 0.7881 0.97464 0.57479 0.0
C1641 C 0.80489 0.99717 0.58346 0.0
C1642 C 0.79107 0.96086 0.5405 0.0
C1643 C 0.81087 0.97039 0.5143 0.0
C1644 C 0.82919 0.99184 0.52425 0.0
C1645 C 0.82613 0.0048 0.559 0.0
C1646 C 0.77168 0.9375 0.53121 0.0
C1647 C 0.85037 0.00279 0.49704 0.0
H1648 H 0.83701 0.91063 0.41833 0.0
H1649 H 0.77486 0.9709 0.39358 0.0
H1650 H 0.86099 0.93837 0.50224 0.0
H1651 H 0.83376 0.91547 0.51511 0.0
H1652 H 0.85699 0.90608 0.47779 0.0
H1653 H 0.7629 0.00605 0.43576 0.0
H1654 H 0.75931 0.99116 0.48173 0.0
H1655 H 0.78742 0.01398 0.47214 0.0
H1656 H 0.77153 0.96895 0.59366 0.0
H1657 H 0.83913 0.02226 0.566 0.0
H1658 H 0.78313 0.92001 0.51857 0.0
H1659 H 0.75631 0.94462 0.51034 0.0
H1660 H 0.76045 0.92997 0.55633 0.0
H1661 H 0.86188 0.98567 0.48369 0.0
H1662 H 0.86533 0.01687 0.51078 0.0
H1663 H 0.83973 0.01434 0.47443 0.0
C1664 C 0.982 0.81221 0.55227 0.0
C1665 C 0.98944 0.79065 0.57632 0.0
C1666 C 0.99498 0.81553 0.51754 0.0
C1667 C 0.01631 0.79718 0.50713 0.0
C1668 C 0.02522 0.77658 0.53253 0.0
C1669 C 0.01137 0.77332 0.56676 0.0
C1670 C 0.98463 0.83749 0.49107 0.0
C1671 C 0.04837 0.75707 0.52273 0.0
C1672 C 0.02814 0.78098 0.40452 0.0
C1673 C 0.05094 0.7976 0.39635 0.0
C1674 C 0.0161 0.78137 0.44023 0.0
C1675 C 0.02777 0.79811 0.46862 0.0
C1676 C 0.0506 0.81518 0.46034 0.0
C1677 C 0.06161 0.81505 0.42408 0.0
C1678 C 0.99135 0.76331 0.44784 0.0
C1679 C 0.06399 0.83282 0.49005 0.0
H1680 H 0.96495 0.82555 0.55984 0.0
H1681 H 0.01678 0.75637 0.58512 0.0
H1682 H 0.00203 0.85 0.48025 0.0
H1683 H 0.97459 0.82755 0.46664 0.0
H1684 H 0.96947 0.85147 0.50461 0.0
H1685 H 0.05495 0.7445 0.54715 0.0
H1686 H 0.04156 0.74292 0.50017 0.0
H1687 H 0.06645 0.76869 0.51203 0.0
H1688 H 0.02027 0.76703 0.38337 0.0
H1689 H 0.07922 0.828 0.41765 0.0
H1690 H 0.97438 0.77574 0.46007 0.0
H1691 H 0.99684 0.74719 0.46858 0.0
H1692 H 0.98364 0.75304 0.4221 0.0
H1693 H 0.04859 0.84695 0.50265 0.0
H1694 H 0.08136 0.84527 0.4788 0.0
H1695 H 0.07196 0.81951 0.51288 0.0
C1696 C 0.72585 0.5527 0.94471 0.0
C1697 C 0.70712 0.54326 0.9178 0.0
C1698 C 0.72683 0.54083 0.98036 0.0
C1699 C 0.70889 0.51874 0.98897 0.0
C1700 C 0.69071 0.50835 0.9613 0.0
C1701 C 0.69004 0.52081 0.92585 0.0
C1702 C 0.7466 0.55235 0.00904 0.0
C1703 C 0.67157 0.48454 0.96945 0.0
C1704 C 0.72788 0.473 0.07067 0.0
C1705 C 0.71008 0.48266 0.09863 0.0
C1706 C 0.72757 0.48446 0.03476 0.0
C1707 C 0.70934 0.50644 0.02693 0.0
C1708 C 0.69193 0.51692 0.05547 0.0
C1709 C 0.69252 0.50483 0.09118 0.0
C1710 C 0.74653 0.47283 0.00513 0.0
C1711 C 0.67249 0.54061 0.04812 0.0
H1712 H 0.7393 0.56988 0.93806 0.0
H1713 H 0.67559 0.51363 0.90485 0.0
H1714 H 0.73493 0.56024 0.03352 0.0
H1715 H 0.76048 0.53585 0.01935 0.0
H1716 H 0.75941 0.56938 0.99759 0.0
H1717 H 0.65936 0.47838 0.94451 0.0
H1718 H 0.68356 0.46645 0.97927 0.0
H1719 H 0.65713 0.49027 0.99226 0.0
H1720 H 0.7419 0.4562 0.07684 0.0
H1721 H 0.67886 0.51226 0.11301 0.0
H1722 H 0.76043 0.48922 0.99447 0.0
H1723 H 0.73425 0.46528 0.98102 0.0
H1724 H 0.75933 0.45556 0.01583 0.0
H1725 H 0.68421 0.55881 0.03807 0.0
H1726 H 0.66066 0.54659 0.07349 0.0
H1727 H 0.65772 0.53489 0.02572 0.0
C1728 C 0.46931 0.71561 0.92652 0.0
C1729 C 0.44779 0.69796 0.9164 0.0
C1730 C 0.48133 0.7138 0.96213 0.0
C1731 C 0.47088 0.69448 0.98834 0.0
C1732 C 0.44978 0.67599 0.9777 0.0
C1733 C 0.43874 0.67773 0.9416 0.0
C1734 C 0.50431 0.73344 0.97229 0.0
C1735 C 0.43773 0.65551 0.00504 0.0
C1736 C 0.51563 0.68198 0.07323 0.0
C1737 C 0.5056 0.70205 0.09791 0.0
C1738 C 0.50382 0.67841 0.03782 0.0
C1739 C 0.48103 0.69488 0.02745 0.0
C1740 C 0.46936 0.71353 0.05358 0.0
C1741 C 0.48209 0.71719 0.08847 0.0
C1742 C 0.51704 0.65858 0.01062 0.0
C1743 C 0.44453 0.73086 0.04381 0.0
H1744 H 0.4758 0.73169 0.90738 0.0
H1745 H 0.42198 0.66415 0.93361 0.0
H1746 H 0.49689 0.74826 0.99369 0.0
H1747 H 0.5219 0.72199 0.98464 0.0
H1748 H 0.51184 0.74526 0.94767 0.0
H1749 H 0.42335 0.64084 0.99128 0.0
H1750 H 0.45432 0.64362 0.01902 0.0
H1751 H 0.42626 0.66674 0.02719 0.0
H1752 H 0.53389 0.67032 0.08074 0.0
H1753 H 0.47464 0.73302 0.10735 0.0
H1754 H 0.52734 0.67039 0.98797 0.0
H1755 H 0.50123 0.64529 0.99731 0.0
H1756 H 0.53266 0.64522 0.02435 0.0
H1757 H 0.45039 0.74646 0.02251 0.0
H1758 H 0.43605 0.74177 0.06862 0.0
H1759 H 0.42805 0.71784 0.03149 0.0
C1760 C 0.31519 0.49507 0.10921 0.0
C1761 C 0.29664 0.51695 0.11282 0.0
C1762 C 0.31625 0.47965 0.07599 0.0
C1763 C 0.29829 0.48647 0.04611 0.0
C1764 C 0.27909 0.50819 0.05015 0.0
C1765 C 0.27834 0.523 0.08366 0.0
C1766 C 0.33671 0.45634 0.07266 0.0
C1767 C 0.25952 0.51597 0.01899 0.0
C1768 C 0.31597 0.46464 0.94706 0.0
C1769 C 0.299 0.44157 0.94279 0.0
C1770 C 0.31621 0.47939 0.98084 0.0
C1771 C 0.29907 0.47066 0.01071 0.0
C1772 C 0.28167 0.44751 0.00622 0.0
C1773 C 0.28166 0.43339 0.97211 0.0
C1774 C 0.33474 0.50424 0.9846 0.0
C1775 C 0.26302 0.43769 0.03739 0.0
H1776 H 0.32919 0.49045 0.13203 0.0
H1777 H 0.26358 0.53961 0.08697 0.0
H1778 H 0.32579 0.43682 0.06619 0.0
H1779 H 0.35112 0.46046 0.04918 0.0
H1780 H 0.3489 0.45344 0.09869 0.0
H1781 H 0.24606 0.53362 0.02663 0.0
H1782 H 0.27135 0.52153 0.99348 0.0
H1783 H 0.24626 0.49812 0.01172 0.0
H1784 H 0.32933 0.47085 0.92421 0.0
H1785 H 0.26815 0.41579 0.96837 0.0
H1786 H 0.3491 0.50134 0.00845 0.0
H1787 H 0.32219 0.52283 0.99071 0.0
H1788 H 0.34702 0.50811 0.95886 0.0
H1789 H 0.27532 0.43341 0.06291 0.0
H1790 H 0.25149 0.41872 0.02971 0.0
H1791 H 0.24795 0.45405 0.04461 0.0
C1792 C 0.53542 0.30891 0.94978 0.0
C1793 C 0.5294 0.28639 0.92666 0.0
C1794 C 0.52329 0.31146 0.98514 0.0
C1795 C 0.50421 0.29128 0.99718 0.0
C1796 C 0.49643 0.26965 0.97268 0.0
C1797 C 0.50946 0.26723 0.93772 0.0
C1798 C 0.53241 0.33461 0.01056 0.0
C1799 C 0.47557 0.24817 0.98425 0.0
C1800 C 0.49804 0.27551 0.10083 0.0
C1801 C 0.4742 0.29014 0.11031 0.0
C1802 C 0.50851 0.27642 0.06423 0.0
C1803 C 0.49419 0.29156 0.0364 0.0
C1804 C 0.47032 0.30669 0.04605 0.0
C1805 C 0.46092 0.30619 0.08311 0.0
C1806 C 0.53444 0.26054 0.05509 0.0
C1807 C 0.45413 0.3225 0.01702 0.0
H1808 H 0.55095 0.32367 0.94103 0.0
H1809 H 0.50521 0.24956 0.92007 0.0
H1810 H 0.51429 0.34551 0.02238 0.0
H1811 H 0.54424 0.32597 0.03441 0.0
H1812 H 0.54564 0.34985 0.99581 0.0
H1813 H 0.46924 0.2349 0.96042 0.0
H1814 H 0.48452 0.23485 0.00637 0.0
H1815 H 0.45694 0.25814 0.99618 0.0
H1816 H 0.50791 0.26256 0.1216 0.0
H1817 H 0.44243 0.31749 0.09057 0.0
H1818 H 0.5497 0.27428 0.04134 0.0
H1819 H 0.5296 0.24372 0.03513 0.0
H1820 H 0.54408 0.25137 0.08041 0.0
H1821 H 0.46758 0.33784 0.00298 0.0
H1822 H 0.43612 0.3334 0.02928 0.0
H1823 H 0.4466 0.30814 0.99511 0.0
loop_
_geom_bond_atom_site_label_1
_geom_bond_atom_site_label_2
_geom_bond_distance
_geom_bond_site_symmetry_2
_ccdc_geom_bond_type
Co0 O3 1.970 . S
Co0 N17 1.989 . S
Co0 O25 1.967 . S
Co0 O32 1.920 . S
Co1 O4 1.966 . S
Co1 N10 2.022 . S
Co1 N18 1.993 . S
Co1 O26 1.941 . S
C2 O3 1.258 . S
C2 O4 1.263 . S
O3 Co0 1.970 . S
O3 C2 1.258 . S
O4 Co1 1.966 . S
O4 C2 1.263 . S
C5 O6 1.235 . S
C5 O32 1.289 . S
O6 C5 1.235 . S
C7 C9 1.400 1_545 S
C7 N10 1.351 . S
C7 C12 1.501 . S
C8 C9 1.387 . S
C8 N11 1.341 1_565 S
C9 C7 1.400 1_565 S
C9 C8 1.387 . S
N10 Co1 2.022 . S
N10 C7 1.351 . S
N10 N11 1.365 . S
N11 C8 1.341 1_545 S
N11 N10 1.365 . S
N11 H31 0.862 . S
C12 C7 1.501 . S
C12 H13 0.961 . S
C12 H14 0.961 . S
C12 H15 0.960 . S
H13 C12 0.961 . S
H14 C12 0.961 . S
H15 C12 0.960 . S
C16 N17 1.342 . S
C16 C20 1.401 . S
C16 C21 1.499 . S
N17 Co0 1.989 . S
N17 C16 1.342 . S
N17 N18 1.388 . S
N18 Co1 1.993 . S
N18 N17 1.388 . S
N18 C19 1.346 . S
C19 N18 1.346 . S
C19 C20 1.396 . S
C19 C29 1.510 . S
C20 C16 1.401 . S
C20 C19 1.396 . S
C21 C16 1.499 . S
C21 H22 0.959 . S
C21 H23 0.960 . S
C21 H24 0.961 . S
H22 C21 0.959 . S
H23 C21 0.960 . S
H24 C21 0.961 . S
O25 Co0 1.967 . S
O25 C33 1.258 . S
O26 Co1 1.941 . S
O26 C33 1.266 . S
H27 C29 0.959 . S
H28 C29 0.961 . S
C29 C19 1.510 . S
C29 H27 0.959 . S
C29 H28 0.961 . S
C29 H30 0.960 . S
H30 C29 0.960 . S
H31 N11 0.862 . S
O32 Co0 1.920 . S
O32 C5 1.289 . S
C33 O25 1.258 . S
C33 O26 1.266 . S
Co34 O37 1.970 . S
Co34 N51 1.989 . S
Co34 O59 1.967 . S
Co34 O66 1.920 . S
Co35 O38 1.966 . S
Co35 N44 2.022 . S
Co35 N52 1.993 . S
Co35 O60 1.941 . S
C36 O37 1.258 . S
C36 O38 1.263 . S
O37 Co34 1.970 . S
O37 C36 1.258 . S
O38 Co35 1.966 . S
O38 C36 1.263 . S
C39 O40 1.235 . S
C39 O66 1.289 . S
O40 C39 1.235 . S
C41 C43 1.400 1_655 S
C41 N44 1.351 . S
C41 C46 1.501 . S
C42 C43 1.387 . S
C42 N45 1.341 1_455 S
C43 C41 1.400 1_455 S
C43 C42 1.387 . S
N44 Co35 2.022 . S
N44 C41 1.351 . S
N44 N45 1.365 . S
N45 C42 1.341 1_655 S
N45 N44 1.365 . S
N45 H65 0.862 . S
C46 C41 1.501 . S
C46 H47 0.961 . S
C46 H48 0.961 . S
C46 H49 0.960 . S
H47 C46 0.961 . S
H48 C46 0.961 . S
H49 C46 0.960 . S
C50 N51 1.342 . S
C50 C54 1.401 . S
C50 C55 1.499 . S
N51 Co34 1.989 . S
N51 C50 1.342 . S
N51 N52 1.388 . S
N52 Co35 1.993 . S
N52 N51 1.388 . S
N52 C53 1.346 . S
C53 N52 1.346 . S
C53 C54 1.396 . S
C53 C63 1.510 . S
C54 C50 1.401 . S
C54 C53 1.396 . S
C55 C50 1.499 . S
C55 H56 0.959 . S
C55 H57 0.960 . S
C55 H58 0.961 . S
H56 C55 0.959 . S
H57 C55 0.960 . S
H58 C55 0.961 . S
O59 Co34 1.967 . S
O59 C67 1.258 . S
O60 Co35 1.941 . S
O60 C67 1.266 . S
H61 C63 0.959 . S
H62 C63 0.961 . S
C63 C53 1.510 . S
C63 H61 0.959 . S
C63 H62 0.961 . S
C63 H64 0.960 . S
H64 C63 0.960 . S
H65 N45 0.862 . S
O66 Co34 1.920 . S
O66 C39 1.289 . S
C67 O59 1.258 . S
C67 O60 1.266 . S
Co68 O71 1.970 . S
Co68 N85 1.989 . S
Co68 O93 1.967 . S
Co68 O100 1.920 . S
Co69 O72 1.966 . S
Co69 N78 2.022 . S
Co69 N86 1.993 . S
Co69 O94 1.941 . S
C70 O71 1.258 . S
C70 O72 1.263 . S
O71 Co68 1.970 . S
O71 C70 1.258 . S
O72 Co69 1.966 . S
O72 C70 1.263 . S
C73 O74 1.235 . S
C73 O100 1.289 . S
O74 C73 1.235 . S
C75 C77 1.400 1_565 S
C75 N78 1.351 . S
C75 C80 1.501 . S
C76 C77 1.387 . S
C76 N79 1.341 1_545 S
C77 C75 1.400 1_545 S
C77 C76 1.387 . S
N78 Co69 2.022 . S
N78 C75 1.351 . S
N78 N79 1.365 . S
N79 C76 1.341 1_565 S
N79 N78 1.365 . S
N79 H99 0.862 . S
C80 C75 1.501 . S
C80 H81 0.961 . S
C80 H82 0.961 . S
C80 H83 0.960 . S
H81 C80 0.961 . S
H82 C80 0.961 . S
H83 C80 0.960 . S
C84 N85 1.342 . S
C84 C88 1.401 . S
C84 C89 1.499 . S
N85 Co68 1.989 . S
N85 C84 1.342 . S
N85 N86 1.388 . S
N86 Co69 1.993 . S
N86 N85 1.388 . S
N86 C87 1.346 . S
C87 N86 1.346 . S
C87 C88 1.396 . S
C87 C97 1.510 . S
C88 C84 1.401 . S
C88 C87 1.396 . S
C89 C84 1.499 . S
C89 H90 0.959 . S
C89 H91 0.960 . S
C89 H92 0.961 . S
H90 C89 0.959 . S
H91 C89 0.960 . S
H92 C89 0.961 . S
O93 Co68 1.967 . S
O93 C101 1.258 . S
O94 Co69 1.941 . S
O94 C101 1.266 . S
H95 C97 0.959 . S
H96 C97 0.961 . S
C97 C87 1.510 . S
C97 H95 0.959 . S
C97 H96 0.961 . S
C97 H98 0.960 . S
H98 C97 0.960 . S
H99 N79 0.862 . S
O100 Co68 1.920 . S
O100 C73 1.289 . S
C101 O93 1.258 . S
C101 O94 1.266 . S
Co102 O105 1.970 . S
Co102 N119 1.989 . S
Co102 O127 1.967 . S
Co102 O134 1.920 . S
Co103 O106 1.966 . S
Co103 N112 2.022 . S
Co103 N120 1.993 . S
Co103 O128 1.941 . S
C104 O105 1.258 . S
C104 O106 1.263 . S
O105 Co102 1.970 . S
O105 C104 1.258 . S
O106 Co103 1.966 . S
O106 C104 1.263 . S
C107 O108 1.235 . S
C107 O134 1.289 . S
O108 C107 1.235 . S
C109 C111 1.400 1_455 S
C109 N112 1.351 . S
C109 C114 1.501 . S
C110 C111 1.387 . S
C110 N113 1.341 1_655 S
C111 C109 1.400 1_655 S
C111 C110 1.387 . S
N112 Co103 2.022 . S
N112 C109 1.351 . S
N112 N113 1.365 . S
N113 C110 1.341 1_455 S
N113 N112 1.365 . S
N113 H133 0.862 . S
C114 C109 1.501 . S
C114 H115 0.961 . S
C114 H116 0.961 . S
C114 H117 0.960 . S
H115 C114 0.961 . S
H116 C114 0.961 . S
H117 C114 0.960 . S
C118 N119 1.342 . S
C118 C122 1.401 . S
C118 C123 1.499 . S
N119 Co102 1.989 . S
N119 C118 1.342 . S
N119 N120 1.388 . S
N120 Co103 1.993 . S
N120 N119 1.388 . S
N120 C121 1.346 . S
C121 N120 1.346 . S
C121 C122 1.396 . S
C121 C131 1.510 . S
C122 C118 1.401 . S
C122 C121 1.396 . S
C123 C118 1.499 . S
C123 H124 0.959 . S
C123 H125 0.960 . S
C123 H126 0.961 . S
H124 C123 0.959 . S
H125 C123 0.960 . S
H126 C123 0.961 . S
O127 Co102 1.967 . S
O127 C135 1.258 . S
O128 Co103 1.941 . S
O128 C135 1.266 . S
H129 C131 0.959 . S
H130 C131 0.961 . S
C131 C121 1.510 . S
C131 H129 0.959 . S
C131 H130 0.961 . S
C131 H132 0.960 . S
H132 C131 0.960 . S
H133 N113 0.862 . S
O134 Co102 1.920 . S
O134 C107 1.289 . S
C135 O127 1.258 . S
C135 O128 1.266 . S
Co136 O139 1.970 . S
Co136 N153 1.989 . S
Co136 O161 1.967 . S
Co136 O168 1.920 . S
Co137 O140 1.966 . S
Co137 N146 2.022 . S
Co137 N154 1.993 . S
Co137 O162 1.941 . S
C138 O139 1.258 . S
C138 O140 1.263 . S
O139 Co136 1.970 . S
O139 C138 1.258 . S
O140 Co137 1.966 . S
O140 C138 1.263 . S
C141 O142 1.235 . S
C141 O168 1.289 . S
O142 C141 1.235 . S
C143 C145 1.400 1_565 S
C143 N146 1.351 . S
C143 C148 1.501 . S
C144 C145 1.387 . S
C144 N147 1.341 1_545 S
C145 C143 1.400 1_545 S
C145 C144 1.387 . S
N146 Co137 2.022 . S
N146 C143 1.351 . S
N146 N147 1.365 . S
N147 C144 1.341 1_565 S
N147 N146 1.365 . S
N147 H167 0.862 . S
C148 C143 1.501 . S
C148 H149 0.961 . S
C148 H150 0.961 . S
C148 H151 0.960 . S
H149 C148 0.961 . S
H150 C148 0.961 . S
H151 C148 0.960 . S
C152 N153 1.342 . S
C152 C156 1.401 . S
C152 C157 1.499 . S
N153 Co136 1.989 . S
N153 C152 1.342 . S
N153 N154 1.388 . S
N154 Co137 1.993 . S
N154 N153 1.388 . S
N154 C155 1.346 . S
C155 N154 1.346 . S
C155 C156 1.396 . S
C155 C165 1.510 . S
C156 C152 1.401 . S
C156 C155 1.396 . S
C157 C152 1.499 . S
C157 H158 0.959 . S
C157 H159 0.960 . S
C157 H160 0.961 . S
H158 C157 0.959 . S
H159 C157 0.960 . S
H160 C157 0.961 . S
O161 Co136 1.967 . S
O161 C169 1.258 . S
O162 Co137 1.941 . S
O162 C169 1.266 . S
H163 C165 0.959 . S
H164 C165 0.961 . S
C165 C155 1.510 . S
C165 H163 0.959 . S
C165 H164 0.961 . S
C165 H166 0.960 . S
H166 C165 0.960 . S
H167 N147 0.862 . S
O168 Co136 1.920 . S
O168 C141 1.289 . S
C169 O161 1.258 . S
C169 O162 1.266 . S
Co170 O173 1.970 . S
Co170 N187 1.989 . S
Co170 O195 1.967 . S
Co170 O202 1.920 . S
Co171 O174 1.966 . S
Co171 N180 2.022 . S
Co171 N188 1.993 . S
Co171 O196 1.941 . S
C172 O173 1.258 . S
C172 O174 1.263 . S
O173 Co170 1.970 . S
O173 C172 1.258 . S
O174 Co171 1.966 . S
O174 C172 1.263 . S
C175 O176 1.235 . S
C175 O202 1.289 . S
O176 C175 1.235 . S
C177 C179 1.400 1_455 S
C177 N180 1.351 . S
C177 C182 1.501 . S
C178 C179 1.387 . S
C178 N181 1.341 1_655 S
C179 C177 1.400 1_655 S
C179 C178 1.387 . S
N180 Co171 2.022 . S
N180 C177 1.351 . S
N180 N181 1.365 . S
N181 C178 1.341 1_455 S
N181 N180 1.365 . S
N181 H201 0.862 . S
C182 C177 1.501 . S
C182 H183 0.961 . S
C182 H184 0.961 . S
C182 H185 0.960 . S
H183 C182 0.961 . S
H184 C182 0.961 . S
H185 C182 0.960 . S
C186 N187 1.342 . S
C186 C190 1.401 . S
C186 C191 1.499 . S
N187 Co170 1.989 . S
N187 C186 1.342 . S
N187 N188 1.388 . S
N188 Co171 1.993 . S
N188 N187 1.388 . S
N188 C189 1.346 . S
C189 N188 1.346 . S
C189 C190 1.396 . S
C189 C199 1.510 . S
C190 C186 1.401 . S
C190 C189 1.396 . S
C191 C186 1.499 . S
C191 H192 0.959 . S
C191 H193 0.960 . S
C191 H194 0.961 . S
H192 C191 0.959 . S
H193 C191 0.960 . S
H194 C191 0.961 . S
O195 Co170 1.967 . S
O195 C203 1.258 . S
O196 Co171 1.941 . S
O196 C203 1.266 . S
H197 C199 0.959 . S
H198 C199 0.961 . S
C199 C189 1.510 . S
C199 H197 0.959 . S
C199 H198 0.961 . S
C199 H200 0.960 . S
H200 C199 0.960 . S
H201 N181 0.862 . S
O202 Co170 1.920 . S
O202 C175 1.289 . S
C203 O195 1.258 . S
C203 O196 1.266 . S
Co204 O207 1.970 . S
Co204 N221 1.989 . S
Co204 O229 1.967 . S
Co204 O236 1.920 . S
Co205 O208 1.966 . S
Co205 N214 2.022 . S
Co205 N222 1.993 . S
Co205 O230 1.941 . S
C206 O207 1.258 . S
C206 O208 1.263 . S
O207 Co204 1.970 . S
O207 C206 1.258 . S
O208 Co205 1.966 . S
O208 C206 1.263 . S
C209 O210 1.235 . S
C209 O236 1.289 . S
O210 C209 1.235 . S
C211 C213 1.400 1_545 S
C211 N214 1.351 . S
C211 C216 1.501 . S
C212 C213 1.387 . S
C212 N215 1.341 1_565 S
C213 C211 1.400 1_565 S
C213 C212 1.387 . S
N214 Co205 2.022 . S
N214 C211 1.351 . S
N214 N215 1.365 . S
N215 C212 1.341 1_545 S
N215 N214 1.365 . S
N215 H235 0.862 . S
C216 C211 1.501 . S
C216 H217 0.961 . S
C216 H218 0.961 . S
C216 H219 0.960 . S
H217 C216 0.961 . S
H218 C216 0.961 . S
H219 C216 0.960 . S
C220 N221 1.342 . S
C220 C224 1.401 . S
C220 C225 1.499 . S
N221 Co204 1.989 . S
N221 C220 1.342 . S
N221 N222 1.388 . S
N222 Co205 1.993 . S
N222 N221 1.388 . S
N222 C223 1.346 . S
C223 N222 1.346 . S
C223 C224 1.396 . S
C223 C233 1.510 . S
C224 C220 1.401 . S
C224 C223 1.396 . S
C225 C220 1.499 . S
C225 H226 0.959 . S
C225 H227 0.960 . S
C225 H228 0.961 . S
H226 C225 0.959 . S
H227 C225 0.960 . S
H228 C225 0.961 . S
O229 Co204 1.967 . S
O229 C237 1.258 . S
O230 Co205 1.941 . S
O230 C237 1.266 . S
H231 C233 0.959 . S
H232 C233 0.961 . S
C233 C223 1.510 . S
C233 H231 0.959 . S
C233 H232 0.961 . S
C233 H234 0.960 . S
H234 C233 0.960 . S
H235 N215 0.862 . S
O236 Co204 1.920 . S
O236 C209 1.289 . S
C237 O229 1.258 . S
C237 O230 1.266 . S
Co238 O241 1.970 . S
Co238 N255 1.989 . S
Co238 O263 1.967 . S
Co238 O270 1.920 . S
Co239 O242 1.966 . S
Co239 N248 2.022 . S
Co239 N256 1.993 . S
Co239 O264 1.941 . S
C240 O241 1.258 . S
C240 O242 1.263 . S
O241 Co238 1.970 . S
O241 C240 1.258 . S
O242 Co239 1.966 . S
O242 C240 1.263 . S
C243 O244 1.235 . S
C243 O270 1.289 . S
O244 C243 1.235 . S
C245 C247 1.400 1_655 S
C245 N248 1.351 . S
C245 C250 1.501 . S
C246 C247 1.387 . S
C246 N249 1.341 1_455 S
C247 C245 1.400 1_455 S
C247 C246 1.387 . S
N248 Co239 2.022 . S
N248 C245 1.351 . S
N248 N249 1.365 . S
N249 C246 1.341 1_655 S
N249 N248 1.365 . S
N249 H269 0.862 . S
C250 C245 1.501 . S
C250 H251 0.961 . S
C250 H252 0.961 . S
C250 H253 0.960 . S
H251 C250 0.961 . S
H252 C250 0.961 . S
H253 C250 0.960 . S
C254 N255 1.342 . S
C254 C258 1.401 . S
C254 C259 1.499 . S
N255 Co238 1.989 . S
N255 C254 1.342 . S
N255 N256 1.388 . S
N256 Co239 1.993 . S
N256 N255 1.388 . S
N256 C257 1.346 . S
C257 N256 1.346 . S
C257 C258 1.396 . S
C257 C267 1.510 . S
C258 C254 1.401 . S
C258 C257 1.396 . S
C259 C254 1.499 . S
C259 H260 0.959 . S
C259 H261 0.960 . S
C259 H262 0.961 . S
H260 C259 0.959 . S
H261 C259 0.960 . S
H262 C259 0.961 . S
O263 Co238 1.967 . S
O263 C271 1.258 . S
O264 Co239 1.941 . S
O264 C271 1.266 . S
H265 C267 0.959 . S
H266 C267 0.961 . S
C267 C257 1.510 . S
C267 H265 0.959 . S
C267 H266 0.961 . S
C267 H268 0.960 . S
H268 C267 0.960 . S
H269 N249 0.862 . S
O270 Co238 1.920 . S
O270 C243 1.289 . S
C271 O263 1.258 . S
C271 O264 1.266 . S
Co272 O275 1.970 . S
Co272 N289 1.989 . S
Co272 O297 1.967 . S
Co272 O304 1.920 . S
Co273 O276 1.966 . S
Co273 N282 2.022 . S
Co273 N290 1.993 . S
Co273 O298 1.941 . S
C274 O275 1.258 . S
C274 O276 1.263 . S
O275 Co272 1.970 . S
O275 C274 1.258 . S
O276 Co273 1.966 . S
O276 C274 1.263 . S
C277 O278 1.235 . S
C277 O304 1.289 . S
O278 C277 1.235 . S
C279 C281 1.400 . S
C279 N282 1.351 . S
C279 C284 1.501 . S
C280 C281 1.387 . S
C280 N283 1.341 . S
C281 C279 1.400 . S
C281 C280 1.387 . S
N282 Co273 2.022 . S
N282 C279 1.351 . S
N282 N283 1.365 . S
N283 C280 1.341 . S
N283 N282 1.365 . S
N283 H303 0.862 . S
C284 C279 1.501 . S
C284 H285 0.961 . S
C284 H286 0.961 . S
C284 H287 0.960 . S
H285 C284 0.961 . S
H286 C284 0.961 . S
H287 C284 0.960 . S
C288 N289 1.342 . S
C288 C292 1.401 . S
C288 C293 1.499 . S
N289 Co272 1.989 . S
N289 C288 1.342 . S
N289 N290 1.388 . S
N290 Co273 1.993 . S
N290 N289 1.388 . S
N290 C291 1.346 . S
C291 N290 1.346 . S
C291 C292 1.396 . S
C291 C301 1.510 . S
C292 C288 1.401 . S
C292 C291 1.396 . S
C293 C288 1.499 . S
C293 H294 0.959 . S
C293 H295 0.960 . S
C293 H296 0.961 . S
H294 C293 0.959 . S
H295 C293 0.960 . S
H296 C293 0.961 . S
O297 Co272 1.967 . S
O297 C305 1.258 . S
O298 Co273 1.941 . S
O298 C305 1.266 . S
H299 C301 0.959 . S
H300 C301 0.961 . S
C301 C291 1.510 . S
C301 H299 0.959 . S
C301 H300 0.961 . S
C301 H302 0.960 . S
H302 C301 0.960 . S
H303 N283 0.862 . S
O304 Co272 1.920 . S
O304 C277 1.289 . S
C305 O297 1.258 . S
C305 O298 1.266 . S
Co306 O309 1.970 . S
Co306 N323 1.989 . S
Co306 O331 1.967 . S
Co306 O338 1.920 . S
Co307 O310 1.966 . S
Co307 N316 2.022 . S
Co307 N324 1.993 . S
Co307 O332 1.941 . S
C308 O309 1.258 . S
C308 O310 1.263 . S
O309 Co306 1.970 . S
O309 C308 1.258 . S
O310 Co307 1.966 . S
O310 C308 1.263 . S
C311 O312 1.235 . S
C311 O338 1.289 . S
O312 C311 1.235 . S
C313 C315 1.400 . S
C313 N316 1.351 . S
C313 C318 1.501 . S
C314 C315 1.387 . S
C314 N317 1.341 . S
C315 C313 1.400 . S
C315 C314 1.387 . S
N316 Co307 2.022 . S
N316 C313 1.351 . S
N316 N317 1.365 . S
N317 C314 1.341 . S
N317 N316 1.365 . S
N317 H337 0.862 . S
C318 C313 1.501 . S
C318 H319 0.961 . S
C318 H320 0.961 . S
C318 H321 0.960 . S
H319 C318 0.961 . S
H320 C318 0.961 . S
H321 C318 0.960 . S
C322 N323 1.342 . S
C322 C326 1.401 . S
C322 C327 1.499 . S
N323 Co306 1.989 . S
N323 C322 1.342 . S
N323 N324 1.388 . S
N324 Co307 1.993 . S
N324 N323 1.388 . S
N324 C325 1.346 . S
C325 N324 1.346 . S
C325 C326 1.396 . S
C325 C335 1.510 . S
C326 C322 1.401 . S
C326 C325 1.396 . S
C327 C322 1.499 . S
C327 H328 0.959 . S
C327 H329 0.960 . S
C327 H330 0.961 . S
H328 C327 0.959 . S
H329 C327 0.960 . S
H330 C327 0.961 . S
O331 Co306 1.967 . S
O331 C339 1.258 . S
O332 Co307 1.941 . S
O332 C339 1.266 . S
H333 C335 0.959 . S
H334 C335 0.961 . S
C335 C325 1.510 . S
C335 H333 0.959 . S
C335 H334 0.961 . S
C335 H336 0.960 . S
H336 C335 0.960 . S
H337 N317 0.862 . S
O338 Co306 1.920 . S
O338 C311 1.289 . S
C339 O331 1.258 . S
C339 O332 1.266 . S
Co340 O343 1.970 . S
Co340 N357 1.989 . S
Co340 O365 1.967 . S
Co340 O372 1.920 . S
Co341 O344 1.966 . S
Co341 N350 2.022 . S
Co341 N358 1.993 . S
Co341 O366 1.941 . S
C342 O343 1.258 . S
C342 O344 1.263 . S
O343 Co340 1.970 . S
O343 C342 1.258 . S
O344 Co341 1.966 . S
O344 C342 1.263 . S
C345 O346 1.235 . S
C345 O372 1.289 . S
O346 C345 1.235 . S
C347 C349 1.400 . S
C347 N350 1.351 . S
C347 C352 1.501 . S
C348 C349 1.387 . S
C348 N351 1.341 . S
C349 C347 1.400 . S
C349 C348 1.387 . S
N350 Co341 2.022 . S
N350 C347 1.351 . S
N350 N351 1.365 . S
N351 C348 1.341 . S
N351 N350 1.365 . S
N351 H371 0.862 . S
C352 C347 1.501 . S
C352 H353 0.961 . S
C352 H354 0.961 . S
C352 H355 0.960 . S
H353 C352 0.961 . S
H354 C352 0.961 . S
H355 C352 0.960 . S
C356 N357 1.342 . S
C356 C360 1.401 . S
C356 C361 1.499 . S
N357 Co340 1.989 . S
N357 C356 1.342 . S
N357 N358 1.388 . S
N358 Co341 1.993 . S
N358 N357 1.388 . S
N358 C359 1.346 . S
C359 N358 1.346 . S
C359 C360 1.396 . S
C359 C369 1.510 . S
C360 C356 1.401 . S
C360 C359 1.396 . S
C361 C356 1.499 . S
C361 H362 0.959 . S
C361 H363 0.960 . S
C361 H364 0.961 . S
H362 C361 0.959 . S
H363 C361 0.960 . S
H364 C361 0.961 . S
O365 Co340 1.967 . S
O365 C373 1.258 . S
O366 Co341 1.941 . S
O366 C373 1.266 . S
H367 C369 0.959 . S
H368 C369 0.961 . S
C369 C359 1.510 . S
C369 H367 0.959 . S
C369 H368 0.961 . S
C369 H370 0.960 . S
H370 C369 0.960 . S
H371 N351 0.862 . S
O372 Co340 1.920 . S
O372 C345 1.289 . S
C373 O365 1.258 . S
C373 O366 1.266 . S
Co374 O377 1.970 . S
Co374 N391 1.989 . S
Co374 O399 1.967 . S
Co374 O406 1.920 . S
Co375 O378 1.966 . S
Co375 N384 2.022 . S
Co375 N392 1.993 . S
Co375 O400 1.941 . S
C376 O377 1.258 . S
C376 O378 1.263 . S
O377 Co374 1.970 . S
O377 C376 1.258 . S
O378 Co375 1.966 . S
O378 C376 1.263 . S
C379 O380 1.235 . S
C379 O406 1.289 . S
O380 C379 1.235 . S
C381 C383 1.400 . S
C381 N384 1.351 . S
C381 C386 1.501 . S
C382 C383 1.387 . S
C382 N385 1.341 . S
C383 C381 1.400 . S
C383 C382 1.387 . S
N384 Co375 2.022 . S
N384 C381 1.351 . S
N384 N385 1.365 . S
N385 C382 1.341 . S
N385 N384 1.365 . S
N385 H405 0.862 . S
C386 C381 1.501 . S
C386 H387 0.961 . S
C386 H388 0.961 . S
C386 H389 0.960 . S
H387 C386 0.961 . S
H388 C386 0.961 . S
H389 C386 0.960 . S
C390 N391 1.342 . S
C390 C394 1.401 . S
C390 C395 1.499 . S
N391 Co374 1.989 . S
N391 C390 1.342 . S
N391 N392 1.388 . S
N392 Co375 1.993 . S
N392 N391 1.388 . S
N392 C393 1.346 . S
C393 N392 1.346 . S
C393 C394 1.396 . S
C393 C403 1.510 . S
C394 C390 1.401 . S
C394 C393 1.396 . S
C395 C390 1.499 . S
C395 H396 0.959 . S
C395 H397 0.960 . S
C395 H398 0.961 . S
H396 C395 0.959 . S
H397 C395 0.960 . S
H398 C395 0.961 . S
O399 Co374 1.967 . S
O399 C407 1.258 . S
O400 Co375 1.941 . S
O400 C407 1.266 . S
H401 C403 0.959 . S
H402 C403 0.961 . S
C403 C393 1.510 . S
C403 H401 0.959 . S
C403 H402 0.961 . S
C403 H404 0.960 . S
H404 C403 0.960 . S
H405 N385 0.862 . S
O406 Co374 1.920 . S
O406 C379 1.289 . S
C407 O399 1.258 . S
C407 O400 1.266 . S
Co408 O411 1.970 . S
Co408 N425 1.989 . S
Co408 O433 1.967 . S
Co408 O440 1.920 . S
Co409 O412 1.966 . S
Co409 N418 2.022 . S
Co409 N426 1.993 . S
Co409 O434 1.941 . S
C410 O411 1.258 . S
C410 O412 1.263 . S
O411 Co408 1.970 . S
O411 C410 1.258 . S
O412 Co409 1.966 . S
O412 C410 1.263 . S
C413 O414 1.235 . S
C413 O440 1.289 . S
O414 C413 1.235 . S
C415 C417 1.400 . S
C415 N418 1.351 . S
C415 C420 1.501 . S
C416 C417 1.387 . S
C416 N419 1.341 . S
C417 C415 1.400 . S
C417 C416 1.387 . S
N418 Co409 2.022 . S
N418 C415 1.351 . S
N418 N419 1.365 . S
N419 C416 1.341 . S
N419 N418 1.365 . S
N419 H439 0.862 . S
C420 C415 1.501 . S
C420 H421 0.961 . S
C420 H422 0.961 . S
C420 H423 0.960 . S
H421 C420 0.961 . S
H422 C420 0.961 . S
H423 C420 0.960 . S
C424 N425 1.342 . S
C424 C428 1.401 . S
C424 C429 1.499 . S
N425 Co408 1.989 . S
N425 C424 1.342 . S
N425 N426 1.388 . S
N426 Co409 1.993 . S
N426 N425 1.388 . S
N426 C427 1.346 . S
C427 N426 1.346 . S
C427 C428 1.396 . S
C427 C437 1.510 . S
C428 C424 1.401 . S
C428 C427 1.396 . S
C429 C424 1.499 . S
C429 H430 0.959 . S
C429 H431 0.960 . S
C429 H432 0.961 . S
H430 C429 0.959 . S
H431 C429 0.960 . S
H432 C429 0.961 . S
O433 Co408 1.967 . S
O433 C441 1.258 . S
O434 Co409 1.941 . S
O434 C441 1.266 . S
H435 C437 0.959 . S
H436 C437 0.961 . S
C437 C427 1.510 . S
C437 H435 0.959 . S
C437 H436 0.961 . S
C437 H438 0.960 . S
H438 C437 0.960 . S
H439 N419 0.862 . S
O440 Co408 1.920 . S
O440 C413 1.289 . S
C441 O433 1.258 . S
C441 O434 1.266 . S
Co442 O445 1.970 . S
Co442 N459 1.989 . S
Co442 O467 1.967 . S
Co442 O474 1.920 . S
Co443 O446 1.966 . S
Co443 N452 2.022 . S
Co443 N460 1.993 . S
Co443 O468 1.941 . S
C444 O445 1.258 . S
C444 O446 1.263 . S
O445 Co442 1.970 . S
O445 C444 1.258 . S
O446 Co443 1.966 . S
O446 C444 1.263 . S
C447 O448 1.235 . S
C447 O474 1.289 . S
O448 C447 1.235 . S
C449 C451 1.400 . S
C449 N452 1.351 . S
C449 C454 1.501 . S
C450 C451 1.387 . S
C450 N453 1.341 . S
C451 C449 1.400 . S
C451 C450 1.387 . S
N452 Co443 2.022 . S
N452 C449 1.351 . S
N452 N453 1.365 . S
N453 C450 1.341 . S
N453 N452 1.365 . S
N453 H473 0.862 . S
C454 C449 1.501 . S
C454 H455 0.961 . S
C454 H456 0.961 . S
C454 H457 0.960 . S
H455 C454 0.961 . S
H456 C454 0.961 . S
H457 C454 0.960 . S
C458 N459 1.342 . S
C458 C462 1.401 . S
C458 C463 1.499 . S
N459 Co442 1.989 . S
N459 C458 1.342 . S
N459 N460 1.388 . S
N460 Co443 1.993 . S
N460 N459 1.388 . S
N460 C461 1.346 . S
C461 N460 1.346 . S
C461 C462 1.396 . S
C461 C471 1.510 . S
C462 C458 1.401 . S
C462 C461 1.396 . S
C463 C458 1.499 . S
C463 H464 0.959 . S
C463 H465 0.960 . S
C463 H466 0.961 . S
H464 C463 0.959 . S
H465 C463 0.960 . S
H466 C463 0.961 . S
O467 Co442 1.967 . S
O467 C475 1.258 . S
O468 Co443 1.941 . S
O468 C475 1.266 . S
H469 C471 0.959 . S
H470 C471 0.961 . S
C471 C461 1.510 . S
C471 H469 0.959 . S
C471 H470 0.961 . S
C471 H472 0.960 . S
H472 C471 0.960 . S
H473 N453 0.862 . S
O474 Co442 1.920 . S
O474 C447 1.289 . S
C475 O467 1.258 . S
C475 O468 1.266 . S
Co476 O479 1.970 . S
Co476 N493 1.989 . S
Co476 O501 1.967 . S
Co476 O508 1.920 . S
Co477 O480 1.966 . S
Co477 N486 2.022 . S
Co477 N494 1.993 . S
Co477 O502 1.941 . S
C478 O479 1.258 . S
C478 O480 1.263 . S
O479 Co476 1.970 . S
O479 C478 1.258 . S
O480 Co477 1.966 . S
O480 C478 1.263 . S
C481 O482 1.235 . S
C481 O508 1.289 . S
O482 C481 1.235 . S
C483 C485 1.400 . S
C483 N486 1.351 . S
C483 C488 1.501 . S
C484 C485 1.387 . S
C484 N487 1.341 . S
C485 C483 1.400 . S
C485 C484 1.387 . S
N486 Co477 2.022 . S
N486 C483 1.351 . S
N486 N487 1.365 . S
N487 C484 1.341 . S
N487 N486 1.365 . S
N487 H507 0.862 . S
C488 C483 1.501 . S
C488 H489 0.961 . S
C488 H490 0.961 . S
C488 H491 0.960 . S
H489 C488 0.961 . S
H490 C488 0.961 . S
H491 C488 0.960 . S
C492 N493 1.342 . S
C492 C496 1.401 . S
C492 C497 1.499 . S
N493 Co476 1.989 . S
N493 C492 1.342 . S
N493 N494 1.388 . S
N494 Co477 1.993 . S
N494 N493 1.388 . S
N494 C495 1.346 . S
C495 N494 1.346 . S
C495 C496 1.396 . S
C495 C505 1.510 . S
C496 C492 1.401 . S
C496 C495 1.396 . S
C497 C492 1.499 . S
C497 H498 0.959 . S
C497 H499 0.960 . S
C497 H500 0.961 . S
H498 C497 0.959 . S
H499 C497 0.960 . S
H500 C497 0.961 . S
O501 Co476 1.967 . S
O501 C509 1.258 . S
O502 Co477 1.941 . S
O502 C509 1.266 . S
H503 C505 0.959 . S
H504 C505 0.961 . S
C505 C495 1.510 . S
C505 H503 0.959 . S
C505 H504 0.961 . S
C505 H506 0.960 . S
H506 C505 0.960 . S
H507 N487 0.862 . S
O508 Co476 1.920 . S
O508 C481 1.289 . S
C509 O501 1.258 . S
C509 O502 1.266 . S
Co510 O513 1.970 . S
Co510 N527 1.989 . S
Co510 O535 1.967 . S
Co510 O542 1.920 . S
Co511 O514 1.966 . S
Co511 N520 2.022 . S
Co511 N528 1.993 . S
Co511 O536 1.941 . S
C512 O513 1.258 . S
C512 O514 1.263 . S
O513 Co510 1.970 . S
O513 C512 1.258 . S
O514 Co511 1.966 . S
O514 C512 1.263 . S
C515 O516 1.235 . S
C515 O542 1.289 . S
O516 C515 1.235 . S
C517 C519 1.400 . S
C517 N520 1.351 . S
C517 C522 1.501 . S
C518 C519 1.387 . S
C518 N521 1.341 . S
C519 C517 1.400 . S
C519 C518 1.387 . S
N520 Co511 2.022 . S
N520 C517 1.351 . S
N520 N521 1.365 . S
N521 C518 1.341 . S
N521 N520 1.365 . S
N521 H541 0.862 . S
C522 C517 1.501 . S
C522 H523 0.961 . S
C522 H524 0.961 . S
C522 H525 0.960 . S
H523 C522 0.961 . S
H524 C522 0.961 . S
H525 C522 0.960 . S
C526 N527 1.342 . S
C526 C530 1.401 . S
C526 C531 1.499 . S
N527 Co510 1.989 . S
N527 C526 1.342 . S
N527 N528 1.388 . S
N528 Co511 1.993 . S
N528 N527 1.388 . S
N528 C529 1.346 . S
C529 N528 1.346 . S
C529 C530 1.396 . S
C529 C539 1.510 . S
C530 C526 1.401 . S
C530 C529 1.396 . S
C531 C526 1.499 . S
C531 H532 0.959 . S
C531 H533 0.960 . S
C531 H534 0.961 . S
H532 C531 0.959 . S
H533 C531 0.960 . S
H534 C531 0.961 . S
O535 Co510 1.967 . S
O535 C543 1.258 . S
O536 Co511 1.941 . S
O536 C543 1.266 . S
H537 C539 0.959 . S
H538 C539 0.961 . S
C539 C529 1.510 . S
C539 H537 0.959 . S
C539 H538 0.961 . S
C539 H540 0.960 . S
H540 C539 0.960 . S
H541 N521 0.862 . S
O542 Co510 1.920 . S
O542 C515 1.289 . S
C543 O535 1.258 . S
C543 O536 1.266 . S
C544 C545 1.391 . S
C544 C546 1.394 . S
C544 H560 0.931 . S
C545 C544 1.391 . S
C545 C549 1.376 . S
C546 C544 1.394 . S
C546 C547 1.369 . S
C546 C550 1.531 . S
C547 C546 1.369 . S
C547 C548 1.410 . S
C547 C555 1.503 . S
C548 C547 1.410 . S
C548 C549 1.392 . S
C548 C551 1.511 . S
C549 C545 1.376 . S
C549 C548 1.392 . S
C549 H561 0.929 . S
C550 C546 1.531 . S
C550 H562 0.960 . S
C550 H563 0.962 . S
C550 H564 0.960 . S
C551 C548 1.511 . S
C551 H565 0.961 . S
C551 H566 0.961 . S
C551 H567 0.961 . S
C552 C553 1.370 . S
C552 C554 1.363 . S
C552 H568 0.931 . S
C553 C552 1.370 . S
C553 C557 1.408 . S
C554 C552 1.363 . S
C554 C555 1.370 . S
C554 C558 1.524 . S
C555 C547 1.503 . S
C555 C554 1.370 . S
C555 C556 1.403 . S
C556 C555 1.403 . S
C556 C557 1.404 . S
C556 C559 1.539 . S
C557 C553 1.408 . S
C557 C556 1.404 . S
C557 H569 0.930 . S
C558 C554 1.524 . S
C558 H570 0.956 . S
C558 H571 0.961 . S
C558 H572 0.961 . S
C559 C556 1.539 . S
C559 H573 0.958 . S
C559 H574 0.961 . S
C559 H575 0.960 . S
H560 C544 0.931 . S
H561 C549 0.929 . S
H562 C550 0.960 . S
H563 C550 0.962 . S
H564 C550 0.960 . S
H565 C551 0.961 . S
H566 C551 0.961 . S
H567 C551 0.961 . S
H568 C552 0.931 . S
H569 C557 0.930 . S
H570 C558 0.956 . S
H571 C558 0.961 . S
H572 C558 0.961 . S
H573 C559 0.958 . S
H574 C559 0.961 . S
H575 C559 0.960 . S
C576 C577 1.391 . S
C576 C578 1.394 . S
C576 H592 0.931 . S
C577 C576 1.391 . S
C577 C581 1.376 . S
C578 C576 1.394 . S
C578 C579 1.369 . S
C578 C582 1.531 . S
C579 C578 1.369 . S
C579 C580 1.410 . S
C579 C587 1.503 . S
C580 C579 1.410 . S
C580 C581 1.392 . S
C580 C583 1.511 . S
C581 C577 1.376 . S
C581 C580 1.392 . S
C581 H593 0.929 . S
C582 C578 1.531 . S
C582 H594 0.960 . S
C582 H595 0.962 . S
C582 H596 0.960 . S
C583 C580 1.511 . S
C583 H597 0.961 . S
C583 H598 0.961 . S
C583 H599 0.961 . S
C584 C585 1.370 . S
C584 C586 1.363 . S
C584 H600 0.931 . S
C585 C584 1.370 . S
C585 C589 1.408 . S
C586 C584 1.363 . S
C586 C587 1.370 . S
C586 C590 1.524 . S
C587 C579 1.503 . S
C587 C586 1.370 . S
C587 C588 1.403 . S
C588 C587 1.403 . S
C588 C589 1.404 . S
C588 C591 1.539 . S
C589 C585 1.408 . S
C589 C588 1.404 . S
C589 H601 0.930 . S
C590 C586 1.524 . S
C590 H602 0.956 . S
C590 H603 0.961 . S
C590 H604 0.961 . S
C591 C588 1.539 . S
C591 H605 0.958 . S
C591 H606 0.961 . S
C591 H607 0.960 . S
H592 C576 0.931 . S
H593 C581 0.929 . S
H594 C582 0.960 . S
H595 C582 0.962 . S
H596 C582 0.960 . S
H597 C583 0.961 . S
H598 C583 0.961 . S
H599 C583 0.961 . S
H600 C584 0.931 . S
H601 C589 0.930 . S
H602 C590 0.956 . S
H603 C590 0.961 . S
H604 C590 0.961 . S
H605 C591 0.958 . S
H606 C591 0.961 . S
H607 C591 0.960 . S
C608 C609 1.391 . S
C608 C610 1.394 . S
C608 H624 0.931 . S
C609 C608 1.391 . S
C609 C613 1.376 . S
C610 C608 1.394 . S
C610 C611 1.369 . S
C610 C614 1.531 . S
C611 C610 1.369 . S
C611 C612 1.410 . S
C611 C619 1.503 . S
C612 C611 1.410 . S
C612 C613 1.392 . S
C612 C615 1.511 . S
C613 C609 1.376 . S
C613 C612 1.392 . S
C613 H625 0.929 . S
C614 C610 1.531 . S
C614 H626 0.960 . S
C614 H627 0.962 . S
C614 H628 0.960 . S
C615 C612 1.511 . S
C615 H629 0.961 . S
C615 H630 0.961 . S
C615 H631 0.961 . S
C616 C617 1.370 . S
C616 C618 1.363 . S
C616 H632 0.931 . S
C617 C616 1.370 . S
C617 C621 1.408 . S
C618 C616 1.363 . S
C618 C619 1.370 . S
C618 C622 1.524 . S
C619 C611 1.503 . S
C619 C618 1.370 . S
C619 C620 1.403 . S
C620 C619 1.403 . S
C620 C621 1.404 . S
C620 C623 1.539 . S
C621 C617 1.408 . S
C621 C620 1.404 . S
C621 H633 0.930 . S
C622 C618 1.524 . S
C622 H634 0.956 . S
C622 H635 0.961 . S
C622 H636 0.961 . S
C623 C620 1.539 . S
C623 H637 0.958 . S
C623 H638 0.961 . S
C623 H639 0.960 . S
H624 C608 0.931 . S
H625 C613 0.929 . S
H626 C614 0.960 . S
H627 C614 0.962 . S
H628 C614 0.960 . S
H629 C615 0.961 . S
H630 C615 0.961 . S
H631 C615 0.961 . S
H632 C616 0.931 . S
H633 C621 0.930 . S
H634 C622 0.956 . S
H635 C622 0.961 . S
H636 C622 0.961 . S
H637 C623 0.958 . S
H638 C623 0.961 . S
H639 C623 0.960 . S
C640 C641 1.391 . S
C640 C642 1.394 . S
C640 H656 0.931 . S
C641 C640 1.391 . S
C641 C645 1.376 . S
C642 C640 1.394 . S
C642 C643 1.369 . S
C642 C646 1.531 . S
C643 C642 1.369 . S
C643 C644 1.410 . S
C643 C651 1.503 . S
C644 C643 1.410 . S
C644 C645 1.392 . S
C644 C647 1.511 . S
C645 C641 1.376 . S
C645 C644 1.392 . S
C645 H657 0.929 . S
C646 C642 1.531 . S
C646 H658 0.960 . S
C646 H659 0.962 . S
C646 H660 0.960 . S
C647 C644 1.511 . S
C647 H661 0.961 . S
C647 H662 0.961 . S
C647 H663 0.961 . S
C648 C649 1.370 . S
C648 C650 1.363 . S
C648 H664 0.931 . S
C649 C648 1.370 . S
C649 C653 1.408 . S
C650 C648 1.363 . S
C650 C651 1.370 . S
C650 C654 1.524 . S
C651 C643 1.503 . S
C651 C650 1.370 . S
C651 C652 1.403 . S
C652 C651 1.403 . S
C652 C653 1.404 . S
C652 C655 1.539 . S
C653 C649 1.408 . S
C653 C652 1.404 . S
C653 H665 0.930 . S
C654 C650 1.524 . S
C654 H666 0.956 . S
C654 H667 0.961 . S
C654 H668 0.961 . S
C655 C652 1.539 . S
C655 H669 0.958 . S
C655 H670 0.961 . S
C655 H671 0.960 . S
H656 C640 0.931 . S
H657 C645 0.929 . S
H658 C646 0.960 . S
H659 C646 0.962 . S
H660 C646 0.960 . S
H661 C647 0.961 . S
H662 C647 0.961 . S
H663 C647 0.961 . S
H664 C648 0.931 . S
H665 C653 0.930 . S
H666 C654 0.956 . S
H667 C654 0.961 . S
H668 C654 0.961 . S
H669 C655 0.958 . S
H670 C655 0.961 . S
H671 C655 0.960 . S
C672 C673 1.391 . S
C672 C674 1.394 . S
C672 H688 0.931 . S
C673 C672 1.391 . S
C673 C677 1.376 . S
C674 C672 1.394 . S
C674 C675 1.369 . S
C674 C678 1.531 . S
C675 C674 1.369 . S
C675 C676 1.410 . S
C675 C683 1.503 . S
C676 C675 1.410 . S
C676 C677 1.392 . S
C676 C679 1.511 . S
C677 C673 1.376 . S
C677 C676 1.392 . S
C677 H689 0.929 . S
C678 C674 1.531 . S
C678 H690 0.960 . S
C678 H691 0.962 . S
C678 H692 0.960 . S
C679 C676 1.511 . S
C679 H693 0.961 . S
C679 H694 0.961 . S
C679 H695 0.961 . S
C680 C681 1.370 . S
C680 C682 1.363 . S
C680 H696 0.931 . S
C681 C680 1.370 . S
C681 C685 1.408 . S
C682 C680 1.363 . S
C682 C683 1.370 . S
C682 C686 1.524 . S
C683 C675 1.503 . S
C683 C682 1.370 . S
C683 C684 1.403 . S
C684 C683 1.403 . S
C684 C685 1.404 . S
C684 C687 1.539 . S
C685 C681 1.408 . S
C685 C684 1.404 . S
C685 H697 0.930 . S
C686 C682 1.524 . S
C686 H698 0.956 . S
C686 H699 0.961 . S
C686 H700 0.961 . S
C687 C684 1.539 . S
C687 H701 0.958 . S
C687 H702 0.961 . S
C687 H703 0.960 . S
H688 C672 0.931 . S
H689 C677 0.929 . S
H690 C678 0.960 . S
H691 C678 0.962 . S
H692 C678 0.960 . S
H693 C679 0.961 . S
H694 C679 0.961 . S
H695 C679 0.961 . S
H696 C680 0.931 . S
H697 C685 0.930 . S
H698 C686 0.956 . S
H699 C686 0.961 . S
H700 C686 0.961 . S
H701 C687 0.958 . S
H702 C687 0.961 . S
H703 C687 0.960 . S
C704 C705 1.391 . S
C704 C706 1.394 . S
C704 H720 0.931 . S
C705 C704 1.391 . S
C705 C709 1.376 . S
C706 C704 1.394 . S
C706 C707 1.369 . S
C706 C710 1.531 . S
C707 C706 1.369 . S
C707 C708 1.410 . S
C707 C715 1.503 . S
C708 C707 1.410 . S
C708 C709 1.392 . S
C708 C711 1.511 . S
C709 C705 1.376 . S
C709 C708 1.392 . S
C709 H721 0.929 . S
C710 C706 1.531 . S
C710 H722 0.960 . S
C710 H723 0.962 . S
C710 H724 0.960 . S
C711 C708 1.511 . S
C711 H725 0.961 . S
C711 H726 0.961 . S
C711 H727 0.961 . S
C712 C713 1.370 . S
C712 C714 1.363 . S
C712 H728 0.931 . S
C713 C712 1.370 . S
C713 C717 1.408 . S
C714 C712 1.363 . S
C714 C715 1.370 . S
C714 C718 1.524 . S
C715 C707 1.503 . S
C715 C714 1.370 . S
C715 C716 1.403 . S
C716 C715 1.403 . S
C716 C717 1.404 . S
C716 C719 1.539 . S
C717 C713 1.408 . S
C717 C716 1.404 . S
C717 H729 0.930 . S
C718 C714 1.524 . S
C718 H730 0.956 . S
C718 H731 0.961 . S
C718 H732 0.961 . S
C719 C716 1.539 . S
C719 H733 0.958 . S
C719 H734 0.961 . S
C719 H735 0.960 . S
H720 C704 0.931 . S
H721 C709 0.929 . S
H722 C710 0.960 . S
H723 C710 0.962 . S
H724 C710 0.960 . S
H725 C711 0.961 . S
H726 C711 0.961 . S
H727 C711 0.961 . S
H728 C712 0.931 . S
H729 C717 0.930 . S
H730 C718 0.956 . S
H731 C718 0.961 . S
H732 C718 0.961 . S
H733 C719 0.958 . S
H734 C719 0.961 . S
H735 C719 0.960 . S
C736 C737 1.391 . S
C736 C738 1.394 . S
C736 H752 0.931 . S
C737 C736 1.391 . S
C737 C741 1.376 . S
C738 C736 1.394 . S
C738 C739 1.369 . S
C738 C742 1.531 . S
C739 C738 1.369 . S
C739 C740 1.410 . S
C739 C747 1.503 . S
C740 C739 1.410 . S
C740 C741 1.392 . S
C740 C743 1.511 . S
C741 C737 1.376 . S
C741 C740 1.392 . S
C741 H753 0.929 . S
C742 C738 1.531 . S
C742 H754 0.960 . S
C742 H755 0.962 . S
C742 H756 0.960 . S
C743 C740 1.511 . S
C743 H757 0.961 . S
C743 H758 0.961 . S
C743 H759 0.961 . S
C744 C745 1.370 . S
C744 C746 1.363 . S
C744 H760 0.931 . S
C745 C744 1.370 . S
C745 C749 1.408 . S
C746 C744 1.363 . S
C746 C747 1.370 . S
C746 C750 1.524 . S
C747 C739 1.503 . S
C747 C746 1.370 . S
C747 C748 1.403 . S
C748 C747 1.403 . S
C748 C749 1.404 . S
C748 C751 1.539 . S
C749 C745 1.408 . S
C749 C748 1.404 . S
C749 H761 0.930 . S
C750 C746 1.524 . S
C750 H762 0.956 . S
C750 H763 0.961 . S
C750 H764 0.961 . S
C751 C748 1.539 . S
C751 H765 0.958 . S
C751 H766 0.961 . S
C751 H767 0.960 . S
H752 C736 0.931 . S
H753 C741 0.929 . S
H754 C742 0.960 . S
H755 C742 0.962 . S
H756 C742 0.960 . S
H757 C743 0.961 . S
H758 C743 0.961 . S
H759 C743 0.961 . S
H760 C744 0.931 . S
H761 C749 0.930 . S
H762 C750 0.956 . S
H763 C750 0.961 . S
H764 C750 0.961 . S
H765 C751 0.958 . S
H766 C751 0.961 . S
H767 C751 0.960 . S
C768 C769 1.391 . S
C768 C770 1.394 . S
C768 H784 0.931 . S
C769 C768 1.391 . S
C769 C773 1.376 . S
C770 C768 1.394 . S
C770 C771 1.369 . S
C770 C774 1.531 . S
C771 C770 1.369 . S
C771 C772 1.410 . S
C771 C779 1.503 . S
C772 C771 1.410 . S
C772 C773 1.392 . S
C772 C775 1.511 . S
C773 C769 1.376 . S
C773 C772 1.392 . S
C773 H785 0.929 . S
C774 C770 1.531 . S
C774 H786 0.960 . S
C774 H787 0.962 . S
C774 H788 0.960 . S
C775 C772 1.511 . S
C775 H789 0.961 . S
C775 H790 0.961 . S
C775 H791 0.961 . S
C776 C777 1.370 . S
C776 C778 1.363 . S
C776 H792 0.931 . S
C777 C776 1.370 . S
C777 C781 1.408 . S
C778 C776 1.363 . S
C778 C779 1.370 . S
C778 C782 1.524 . S
C779 C771 1.503 . S
C779 C778 1.370 . S
C779 C780 1.403 . S
C780 C779 1.403 . S
C780 C781 1.404 . S
C780 C783 1.539 . S
C781 C777 1.408 . S
C781 C780 1.404 . S
C781 H793 0.930 . S
C782 C778 1.524 . S
C782 H794 0.956 . S
C782 H795 0.961 . S
C782 H796 0.961 . S
C783 C780 1.539 . S
C783 H797 0.958 . S
C783 H798 0.961 . S
C783 H799 0.960 . S
H784 C768 0.931 . S
H785 C773 0.929 . S
H786 C774 0.960 . S
H787 C774 0.962 . S
H788 C774 0.960 . S
H789 C775 0.961 . S
H790 C775 0.961 . S
H791 C775 0.961 . S
H792 C776 0.931 . S
H793 C781 0.930 . S
H794 C782 0.956 . S
H795 C782 0.961 . S
H796 C782 0.961 . S
H797 C783 0.958 . S
H798 C783 0.961 . S
H799 C783 0.960 . S
C800 C801 1.391 . S
C800 C802 1.394 . S
C800 H816 0.931 . S
C801 C800 1.391 . S
C801 C805 1.376 . S
C802 C800 1.394 . S
C802 C803 1.369 . S
C802 C806 1.531 . S
C803 C802 1.369 . S
C803 C804 1.410 . S
C803 C811 1.503 . S
C804 C803 1.410 . S
C804 C805 1.392 . S
C804 C807 1.511 . S
C805 C801 1.376 . S
C805 C804 1.392 . S
C805 H817 0.929 . S
C806 C802 1.531 . S
C806 H818 0.960 . S
C806 H819 0.962 . S
C806 H820 0.960 . S
C807 C804 1.511 . S
C807 H821 0.961 . S
C807 H822 0.961 . S
C807 H823 0.961 . S
C808 C809 1.370 . S
C808 C810 1.363 . S
C808 H824 0.931 . S
C809 C808 1.370 . S
C809 C813 1.408 . S
C810 C808 1.363 . S
C810 C811 1.370 . S
C810 C814 1.524 . S
C811 C803 1.503 . S
C811 C810 1.370 . S
C811 C812 1.403 . S
C812 C811 1.403 . S
C812 C813 1.404 . S
C812 C815 1.539 . S
C813 C809 1.408 . S
C813 C812 1.404 . S
C813 H825 0.930 . S
C814 C810 1.524 . S
C814 H826 0.956 . S
C814 H827 0.961 . S
C814 H828 0.961 . S
C815 C812 1.539 . S
C815 H829 0.958 . S
C815 H830 0.961 . S
C815 H831 0.960 . S
H816 C800 0.931 . S
H817 C805 0.929 . S
H818 C806 0.960 . S
H819 C806 0.962 . S
H820 C806 0.960 . S
H821 C807 0.961 . S
H822 C807 0.961 . S
H823 C807 0.961 . S
H824 C808 0.931 . S
H825 C813 0.930 . S
H826 C814 0.956 . S
H827 C814 0.961 . S
H828 C814 0.961 . S
H829 C815 0.958 . S
H830 C815 0.961 . S
H831 C815 0.960 . S
C832 C833 1.391 . S
C832 C834 1.394 . S
C832 H848 0.931 . S
C833 C832 1.391 . S
C833 C837 1.376 . S
C834 C832 1.394 . S
C834 C835 1.369 . S
C834 C838 1.531 . S
C835 C834 1.369 . S
C835 C836 1.410 . S
C835 C843 1.503 . S
C836 C835 1.410 . S
C836 C837 1.392 . S
C836 C839 1.511 . S
C837 C833 1.376 . S
C837 C836 1.392 . S
C837 H849 0.929 . S
C838 C834 1.531 . S
C838 H850 0.960 . S
C838 H851 0.962 . S
C838 H852 0.960 . S
C839 C836 1.511 . S
C839 H853 0.961 . S
C839 H854 0.961 . S
C839 H855 0.961 . S
C840 C841 1.370 . S
C840 C842 1.363 . S
C840 H856 0.931 . S
C841 C840 1.370 . S
C841 C845 1.408 . S
C842 C840 1.363 . S
C842 C843 1.370 . S
C842 C846 1.524 . S
C843 C835 1.503 . S
C843 C842 1.370 . S
C843 C844 1.403 . S
C844 C843 1.403 . S
C844 C845 1.404 . S
C844 C847 1.539 . S
C845 C841 1.408 . S
C845 C844 1.404 . S
C845 H857 0.930 . S
C846 C842 1.524 . S
C846 H858 0.956 . S
C846 H859 0.961 . S
C846 H860 0.961 . S
C847 C844 1.539 . S
C847 H861 0.958 . S
C847 H862 0.961 . S
C847 H863 0.960 . S
H848 C832 0.931 . S
H849 C837 0.929 . S
H850 C838 0.960 . S
H851 C838 0.962 . S
H852 C838 0.960 . S
H853 C839 0.961 . S
H854 C839 0.961 . S
H855 C839 0.961 . S
H856 C840 0.931 . S
H857 C845 0.930 . S
H858 C846 0.956 . S
H859 C846 0.961 . S
H860 C846 0.961 . S
H861 C847 0.958 . S
H862 C847 0.961 . S
H863 C847 0.960 . S
C864 C865 1.391 . S
C864 C866 1.394 . S
C864 H880 0.931 . S
C865 C864 1.391 . S
C865 C869 1.376 . S
C866 C864 1.394 . S
C866 C867 1.369 . S
C866 C870 1.531 . S
C867 C866 1.369 . S
C867 C868 1.410 . S
C867 C875 1.503 . S
C868 C867 1.410 . S
C868 C869 1.392 . S
C868 C871 1.511 . S
C869 C865 1.376 . S
C869 C868 1.392 . S
C869 H881 0.929 . S
C870 C866 1.531 . S
C870 H882 0.960 . S
C870 H883 0.962 . S
C870 H884 0.960 . S
C871 C868 1.511 . S
C871 H885 0.961 . S
C871 H886 0.961 . S
C871 H887 0.961 . S
C872 C873 1.370 . S
C872 C874 1.363 . S
C872 H888 0.931 . S
C873 C872 1.370 . S
C873 C877 1.408 . S
C874 C872 1.363 . S
C874 C875 1.370 . S
C874 C878 1.524 . S
C875 C867 1.503 . S
C875 C874 1.370 . S
C875 C876 1.403 . S
C876 C875 1.403 . S
C876 C877 1.404 . S
C876 C879 1.539 . S
C877 C873 1.408 . S
C877 C876 1.404 . S
C877 H889 0.930 . S
C878 C874 1.524 . S
C878 H890 0.956 . S
C878 H891 0.961 . S
C878 H892 0.961 . S
C879 C876 1.539 . S
C879 H893 0.958 . S
C879 H894 0.961 . S
C879 H895 0.960 . S
H880 C864 0.931 . S
H881 C869 0.929 . S
H882 C870 0.960 . S
H883 C870 0.962 . S
H884 C870 0.960 . S
H885 C871 0.961 . S
H886 C871 0.961 . S
H887 C871 0.961 . S
H888 C872 0.931 . S
H889 C877 0.930 . S
H890 C878 0.956 . S
H891 C878 0.961 . S
H892 C878 0.961 . S
H893 C879 0.958 . S
H894 C879 0.961 . S
H895 C879 0.960 . S
C896 C897 1.391 . S
C896 C898 1.394 . S
C896 H912 0.931 . S
C897 C896 1.391 . S
C897 C901 1.376 . S
C898 C896 1.394 . S
C898 C899 1.369 . S
C898 C902 1.531 . S
C899 C898 1.369 . S
C899 C900 1.410 . S
C899 C907 1.503 . S
C900 C899 1.410 . S
C900 C901 1.392 . S
C900 C903 1.511 . S
C901 C897 1.376 . S
C901 C900 1.392 . S
C901 H913 0.929 . S
C902 C898 1.531 . S
C902 H914 0.960 . S
C902 H915 0.962 . S
C902 H916 0.960 . S
C903 C900 1.511 . S
C903 H917 0.961 . S
C903 H918 0.961 . S
C903 H919 0.961 . S
C904 C905 1.370 . S
C904 C906 1.363 . S
C904 H920 0.931 . S
C905 C904 1.370 . S
C905 C909 1.408 . S
C906 C904 1.363 . S
C906 C907 1.370 . S
C906 C910 1.524 . S
C907 C899 1.503 . S
C907 C906 1.370 . S
C907 C908 1.403 . S
C908 C907 1.403 . S
C908 C909 1.404 . S
C908 C911 1.539 . S
C909 C905 1.408 . S
C909 C908 1.404 . S
C909 H921 0.930 . S
C910 C906 1.524 . S
C910 H922 0.956 . S
C910 H923 0.961 . S
C910 H924 0.961 . S
C911 C908 1.539 . S
C911 H925 0.958 . S
C911 H926 0.961 . S
C911 H927 0.960 . S
H912 C896 0.931 . S
H913 C901 0.929 . S
H914 C902 0.960 . S
H915 C902 0.962 . S
H916 C902 0.960 . S
H917 C903 0.961 . S
H918 C903 0.961 . S
H919 C903 0.961 . S
H920 C904 0.931 . S
H921 C909 0.930 . S
H922 C910 0.956 . S
H923 C910 0.961 . S
H924 C910 0.961 . S
H925 C911 0.958 . S
H926 C911 0.961 . S
H927 C911 0.960 . S
C928 C929 1.391 . S
C928 C930 1.394 . S
C928 H944 0.931 . S
C929 C928 1.391 . S
C929 C933 1.376 . S
C930 C928 1.394 . S
C930 C931 1.369 . S
C930 C934 1.531 . S
C931 C930 1.369 . S
C931 C932 1.410 . S
C931 C939 1.503 . S
C932 C931 1.410 . S
C932 C933 1.392 . S
C932 C935 1.511 . S
C933 C929 1.376 . S
C933 C932 1.392 . S
C933 H945 0.929 . S
C934 C930 1.531 . S
C934 H946 0.960 . S
C934 H947 0.962 . S
C934 H948 0.960 . S
C935 C932 1.511 . S
C935 H949 0.961 . S
C935 H950 0.961 . S
C935 H951 0.961 . S
C936 C937 1.370 . S
C936 C938 1.363 . S
C936 H952 0.931 . S
C937 C936 1.370 . S
C937 C941 1.408 . S
C938 C936 1.363 . S
C938 C939 1.370 . S
C938 C942 1.524 . S
C939 C931 1.503 . S
C939 C938 1.370 . S
C939 C940 1.403 . S
C940 C939 1.403 . S
C940 C941 1.404 . S
C940 C943 1.539 . S
C941 C937 1.408 . S
C941 C940 1.404 . S
C941 H953 0.930 . S
C942 C938 1.524 . S
C942 H954 0.956 . S
C942 H955 0.961 . S
C942 H956 0.961 . S
C943 C940 1.539 . S
C943 H957 0.958 . S
C943 H958 0.961 . S
C943 H959 0.960 . S
H944 C928 0.931 . S
H945 C933 0.929 . S
H946 C934 0.960 . S
H947 C934 0.962 . S
H948 C934 0.960 . S
H949 C935 0.961 . S
H950 C935 0.961 . S
H951 C935 0.961 . S
H952 C936 0.931 . S
H953 C941 0.930 . S
H954 C942 0.956 . S
H955 C942 0.961 . S
H956 C942 0.961 . S
H957 C943 0.958 . S
H958 C943 0.961 . S
H959 C943 0.960 . S
C960 C961 1.391 . S
C960 C962 1.394 . S
C960 H976 0.931 . S
C961 C960 1.391 . S
C961 C965 1.376 . S
C962 C960 1.394 . S
C962 C963 1.369 . S
C962 C966 1.531 . S
C963 C962 1.369 . S
C963 C964 1.410 . S
C963 C971 1.503 . S
C964 C963 1.410 . S
C964 C965 1.392 . S
C964 C967 1.511 . S
C965 C961 1.376 . S
C965 C964 1.392 . S
C965 H977 0.929 . S
C966 C962 1.531 . S
C966 H978 0.960 . S
C966 H979 0.962 . S
C966 H980 0.960 . S
C967 C964 1.511 . S
C967 H981 0.961 . S
C967 H982 0.961 . S
C967 H983 0.961 . S
C968 C969 1.370 . S
C968 C970 1.363 . S
C968 H984 0.931 . S
C969 C968 1.370 . S
C969 C973 1.408 . S
C970 C968 1.363 . S
C970 C971 1.370 . S
C970 C974 1.524 . S
C971 C963 1.503 . S
C971 C970 1.370 . S
C971 C972 1.403 . S
C972 C971 1.403 . S
C972 C973 1.404 . S
C972 C975 1.539 . S
C973 C969 1.408 . S
C973 C972 1.404 . S
C973 H985 0.930 . S
C974 C970 1.524 . S
C974 H986 0.956 . S
C974 H987 0.961 . S
C974 H988 0.961 . S
C975 C972 1.539 . S
C975 H989 0.958 . S
C975 H990 0.961 . S
C975 H991 0.960 . S
H976 C960 0.931 . S
H977 C965 0.929 . S
H978 C966 0.960 . S
H979 C966 0.962 . S
H980 C966 0.960 . S
H981 C967 0.961 . S
H982 C967 0.961 . S
H983 C967 0.961 . S
H984 C968 0.931 . S
H985 C973 0.930 . S
H986 C974 0.956 . S
H987 C974 0.961 . S
H988 C974 0.961 . S
H989 C975 0.958 . S
H990 C975 0.961 . S
H991 C975 0.960 . S
C992 C993 1.391 . S
C992 C994 1.394 . S
C992 H1008 0.931 . S
C993 C992 1.391 . S
C993 C997 1.376 . S
C994 C992 1.394 . S
C994 C995 1.369 . S
C994 C998 1.531 . S
C995 C994 1.369 . S
C995 C996 1.410 . S
C995 C1003 1.503 . S
C996 C995 1.410 . S
C996 C997 1.392 . S
C996 C999 1.511 . S
C997 C993 1.376 . S
C997 C996 1.392 . S
C997 H1009 0.929 . S
C998 C994 1.531 . S
C998 H1010 0.960 . S
C998 H1011 0.962 . S
C998 H1012 0.960 . S
C999 C996 1.511 . S
C999 H1013 0.961 . S
C999 H1014 0.961 . S
C999 H1015 0.961 . S
C1000 C1001 1.370 . S
C1000 C1002 1.363 . S
C1000 H1016 0.931 . S
C1001 C1000 1.370 . S
C1001 C1005 1.408 . S
C1002 C1000 1.363 . S
C1002 C1003 1.370 . S
C1002 C1006 1.524 . S
C1003 C995 1.503 . S
C1003 C1002 1.370 . S
C1003 C1004 1.403 . S
C1004 C1003 1.403 . S
C1004 C1005 1.404 . S
C1004 C1007 1.539 . S
C1005 C1001 1.408 . S
C1005 C1004 1.404 . S
C1005 H1017 0.930 . S
C1006 C1002 1.524 . S
C1006 H1018 0.956 . S
C1006 H1019 0.961 . S
C1006 H1020 0.961 . S
C1007 C1004 1.539 . S
C1007 H1021 0.958 . S
C1007 H1022 0.961 . S
C1007 H1023 0.960 . S
H1008 C992 0.931 . S
H1009 C997 0.929 . S
H1010 C998 0.960 . S
H1011 C998 0.962 . S
H1012 C998 0.960 . S
H1013 C999 0.961 . S
H1014 C999 0.961 . S
H1015 C999 0.961 . S
H1016 C1000 0.931 . S
H1017 C1005 0.930 . S
H1018 C1006 0.956 . S
H1019 C1006 0.961 . S
H1020 C1006 0.961 . S
H1021 C1007 0.958 . S
H1022 C1007 0.961 . S
H1023 C1007 0.960 . S
C1024 C1025 1.391 . S
C1024 C1026 1.394 . S
C1024 H1040 0.931 . S
C1025 C1024 1.391 . S
C1025 C1029 1.376 . S
C1026 C1024 1.394 . S
C1026 C1027 1.369 . S
C1026 C1030 1.531 . S
C1027 C1026 1.369 . S
C1027 C1028 1.410 . S
C1027 C1035 1.503 . S
C1028 C1027 1.410 . S
C1028 C1029 1.392 . S
C1028 C1031 1.511 . S
C1029 C1025 1.376 . S
C1029 C1028 1.392 . S
C1029 H1041 0.929 . S
C1030 C1026 1.531 . S
C1030 H1042 0.960 . S
C1030 H1043 0.962 . S
C1030 H1044 0.960 . S
C1031 C1028 1.511 . S
C1031 H1045 0.961 . S
C1031 H1046 0.961 . S
C1031 H1047 0.961 . S
C1032 C1033 1.370 . S
C1032 C1034 1.363 . S
C1032 H1048 0.931 . S
C1033 C1032 1.370 . S
C1033 C1037 1.408 . S
C1034 C1032 1.363 . S
C1034 C1035 1.370 . S
C1034 C1038 1.524 . S
C1035 C1027 1.503 . S
C1035 C1034 1.370 . S
C1035 C1036 1.403 . S
C1036 C1035 1.403 . S
C1036 C1037 1.404 . S
C1036 C1039 1.539 . S
C1037 C1033 1.408 . S
C1037 C1036 1.404 . S
C1037 H1049 0.930 . S
C1038 C1034 1.524 . S
C1038 H1050 0.956 . S
C1038 H1051 0.961 . S
C1038 H1052 0.961 . S
C1039 C1036 1.539 . S
C1039 H1053 0.958 . S
C1039 H1054 0.961 . S
C1039 H1055 0.960 . S
H1040 C1024 0.931 . S
H1041 C1029 0.929 . S
H1042 C1030 0.960 . S
H1043 C1030 0.962 . S
H1044 C1030 0.960 . S
H1045 C1031 0.961 . S
H1046 C1031 0.961 . S
H1047 C1031 0.961 . S
H1048 C1032 0.931 . S
H1049 C1037 0.930 . S
H1050 C1038 0.956 . S
H1051 C1038 0.961 . S
H1052 C1038 0.961 . S
H1053 C1039 0.958 . S
H1054 C1039 0.961 . S
H1055 C1039 0.960 . S
C1056 C1057 1.391 . S
C1056 C1058 1.394 . S
C1056 H1072 0.931 . S
C1057 C1056 1.391 . S
C1057 C1061 1.376 . S
C1058 C1056 1.394 . S
C1058 C1059 1.369 . S
C1058 C1062 1.531 . S
C1059 C1058 1.369 . S
C1059 C1060 1.410 . S
C1059 C1067 1.503 . S
C1060 C1059 1.410 . S
C1060 C1061 1.392 . S
C1060 C1063 1.511 . S
C1061 C1057 1.376 . S
C1061 C1060 1.392 . S
C1061 H1073 0.929 . S
C1062 C1058 1.531 . S
C1062 H1074 0.960 . S
C1062 H1075 0.962 . S
C1062 H1076 0.960 . S
C1063 C1060 1.511 . S
C1063 H1077 0.961 . S
C1063 H1078 0.961 . S
C1063 H1079 0.961 . S
C1064 C1065 1.370 . S
C1064 C1066 1.363 . S
C1064 H1080 0.931 . S
C1065 C1064 1.370 . S
C1065 C1069 1.408 . S
C1066 C1064 1.363 . S
C1066 C1067 1.370 . S
C1066 C1070 1.524 . S
C1067 C1059 1.503 . S
C1067 C1066 1.370 . S
C1067 C1068 1.403 . S
C1068 C1067 1.403 . S
C1068 C1069 1.404 . S
C1068 C1071 1.539 . S
C1069 C1065 1.408 . S
C1069 C1068 1.404 . S
C1069 H1081 0.930 . S
C1070 C1066 1.524 . S
C1070 H1082 0.956 . S
C1070 H1083 0.961 . S
C1070 H1084 0.961 . S
C1071 C1068 1.539 . S
C1071 H1085 0.958 . S
C1071 H1086 0.961 . S
C1071 H1087 0.960 . S
H1072 C1056 0.931 . S
H1073 C1061 0.929 . S
H1074 C1062 0.960 . S
H1075 C1062 0.962 . S
H1076 C1062 0.960 . S
H1077 C1063 0.961 . S
H1078 C1063 0.961 . S
H1079 C1063 0.961 . S
H1080 C1064 0.931 . S
H1081 C1069 0.930 . S
H1082 C1070 0.956 . S
H1083 C1070 0.961 . S
H1084 C1070 0.961 . S
H1085 C1071 0.958 . S
H1086 C1071 0.961 . S
H1087 C1071 0.960 . S
C1088 C1089 1.391 . S
C1088 C1090 1.394 . S
C1088 H1104 0.931 . S
C1089 C1088 1.391 . S
C1089 C1093 1.376 . S
C1090 C1088 1.394 . S
C1090 C1091 1.369 . S
C1090 C1094 1.531 . S
C1091 C1090 1.369 . S
C1091 C1092 1.410 . S
C1091 C1099 1.503 . S
C1092 C1091 1.410 . S
C1092 C1093 1.392 . S
C1092 C1095 1.511 . S
C1093 C1089 1.376 . S
C1093 C1092 1.392 . S
C1093 H1105 0.929 . S
C1094 C1090 1.531 . S
C1094 H1106 0.960 . S
C1094 H1107 0.962 . S
C1094 H1108 0.960 . S
C1095 C1092 1.511 . S
C1095 H1109 0.961 . S
C1095 H1110 0.961 . S
C1095 H1111 0.961 . S
C1096 C1097 1.370 . S
C1096 C1098 1.363 . S
C1096 H1112 0.931 . S
C1097 C1096 1.370 . S
C1097 C1101 1.408 . S
C1098 C1096 1.363 . S
C1098 C1099 1.370 . S
C1098 C1102 1.524 . S
C1099 C1091 1.503 . S
C1099 C1098 1.370 . S
C1099 C1100 1.403 . S
C1100 C1099 1.403 . S
C1100 C1101 1.404 . S
C1100 C1103 1.539 . S
C1101 C1097 1.408 . S
C1101 C1100 1.404 . S
C1101 H1113 0.930 . S
C1102 C1098 1.524 . S
C1102 H1114 0.956 . S
C1102 H1115 0.961 . S
C1102 H1116 0.961 . S
C1103 C1100 1.539 . S
C1103 H1117 0.958 . S
C1103 H1118 0.961 . S
C1103 H1119 0.960 . S
H1104 C1088 0.931 . S
H1105 C1093 0.929 . S
H1106 C1094 0.960 . S
H1107 C1094 0.962 . S
H1108 C1094 0.960 . S
H1109 C1095 0.961 . S
H1110 C1095 0.961 . S
H1111 C1095 0.961 . S
H1112 C1096 0.931 . S
H1113 C1101 0.930 . S
H1114 C1102 0.956 . S
H1115 C1102 0.961 . S
H1116 C1102 0.961 . S
H1117 C1103 0.958 . S
H1118 C1103 0.961 . S
H1119 C1103 0.960 . S
C1120 C1121 1.391 . S
C1120 C1122 1.394 . S
C1120 H1136 0.931 . S
C1121 C1120 1.391 . S
C1121 C1125 1.376 . S
C1122 C1120 1.394 . S
C1122 C1123 1.369 . S
C1122 C1126 1.531 . S
C1123 C1122 1.369 . S
C1123 C1124 1.410 . S
C1123 C1131 1.503 . S
C1124 C1123 1.410 . S
C1124 C1125 1.392 . S
C1124 C1127 1.511 . S
C1125 C1121 1.376 . S
C1125 C1124 1.392 . S
C1125 H1137 0.929 . S
C1126 C1122 1.531 . S
C1126 H1138 0.960 . S
C1126 H1139 0.962 . S
C1126 H1140 0.960 . S
C1127 C1124 1.511 . S
C1127 H1141 0.961 . S
C1127 H1142 0.961 . S
C1127 H1143 0.961 . S
C1128 C1129 1.370 . S
C1128 C1130 1.363 . S
C1128 H1144 0.931 . S
C1129 C1128 1.370 . S
C1129 C1133 1.408 . S
C1130 C1128 1.363 . S
C1130 C1131 1.370 . S
C1130 C1134 1.524 . S
C1131 C1123 1.503 . S
C1131 C1130 1.370 . S
C1131 C1132 1.403 . S
C1132 C1131 1.403 . S
C1132 C1133 1.404 . S
C1132 C1135 1.539 . S
C1133 C1129 1.408 . S
C1133 C1132 1.404 . S
C1133 H1145 0.930 . S
C1134 C1130 1.524 . S
C1134 H1146 0.956 . S
C1134 H1147 0.961 . S
C1134 H1148 0.961 . S
C1135 C1132 1.539 . S
C1135 H1149 0.958 . S
C1135 H1150 0.961 . S
C1135 H1151 0.960 . S
H1136 C1120 0.931 . S
H1137 C1125 0.929 . S
H1138 C1126 0.960 . S
H1139 C1126 0.962 . S
H1140 C1126 0.960 . S
H1141 C1127 0.961 . S
H1142 C1127 0.961 . S
H1143 C1127 0.961 . S
H1144 C1128 0.931 . S
H1145 C1133 0.930 . S
H1146 C1134 0.956 . S
H1147 C1134 0.961 . S
H1148 C1134 0.961 . S
H1149 C1135 0.958 . S
H1150 C1135 0.961 . S
H1151 C1135 0.960 . S
C1152 C1153 1.391 . S
C1152 C1154 1.394 . S
C1152 H1168 0.931 . S
C1153 C1152 1.391 . S
C1153 C1157 1.376 . S
C1154 C1152 1.394 . S
C1154 C1155 1.369 . S
C1154 C1158 1.531 . S
C1155 C1154 1.369 . S
C1155 C1156 1.410 . S
C1155 C1163 1.503 . S
C1156 C1155 1.410 . S
C1156 C1157 1.392 . S
C1156 C1159 1.511 . S
C1157 C1153 1.376 . S
C1157 C1156 1.392 . S
C1157 H1169 0.929 . S
C1158 C1154 1.531 . S
C1158 H1170 0.960 . S
C1158 H1171 0.962 . S
C1158 H1172 0.960 . S
C1159 C1156 1.511 . S
C1159 H1173 0.961 . S
C1159 H1174 0.961 . S
C1159 H1175 0.961 . S
C1160 C1161 1.370 . S
C1160 C1162 1.363 . S
C1160 H1176 0.931 . S
C1161 C1160 1.370 . S
C1161 C1165 1.408 . S
C1162 C1160 1.363 . S
C1162 C1163 1.370 . S
C1162 C1166 1.524 . S
C1163 C1155 1.503 . S
C1163 C1162 1.370 . S
C1163 C1164 1.403 . S
C1164 C1163 1.403 . S
C1164 C1165 1.404 . S
C1164 C1167 1.539 . S
C1165 C1161 1.408 . S
C1165 C1164 1.404 . S
C1165 H1177 0.930 . S
C1166 C1162 1.524 . S
C1166 H1178 0.956 . S
C1166 H1179 0.961 . S
C1166 H1180 0.961 . S
C1167 C1164 1.539 . S
C1167 H1181 0.958 . S
C1167 H1182 0.961 . S
C1167 H1183 0.960 . S
H1168 C1152 0.931 . S
H1169 C1157 0.929 . S
H1170 C1158 0.960 . S
H1171 C1158 0.962 . S
H1172 C1158 0.960 . S
H1173 C1159 0.961 . S
H1174 C1159 0.961 . S
H1175 C1159 0.961 . S
H1176 C1160 0.931 . S
H1177 C1165 0.930 . S
H1178 C1166 0.956 . S
H1179 C1166 0.961 . S
H1180 C1166 0.961 . S
H1181 C1167 0.958 . S
H1182 C1167 0.961 . S
H1183 C1167 0.960 . S
C1184 C1185 1.391 . S
C1184 C1186 1.394 . S
C1184 H1200 0.931 . S
C1185 C1184 1.391 . S
C1185 C1189 1.376 . S
C1186 C1184 1.394 . S
C1186 C1187 1.369 . S
C1186 C1190 1.531 . S
C1187 C1186 1.369 . S
C1187 C1188 1.410 . S
C1187 C1195 1.503 1_556 S
C1188 C1187 1.410 . S
C1188 C1189 1.392 . S
C1188 C1191 1.511 . S
C1189 C1185 1.376 . S
C1189 C1188 1.392 . S
C1189 H1201 0.929 . S
C1190 C1186 1.531 . S
C1190 H1202 0.960 1_556 S
C1190 H1203 0.962 1_556 S
C1190 H1204 0.960 . S
C1191 C1188 1.511 . S
C1191 H1205 0.961 . S
C1191 H1206 0.961 . S
C1191 H1207 0.961 . S
C1192 C1193 1.370 . S
C1192 C1194 1.363 . S
C1192 H1208 0.931 . S
C1193 C1192 1.370 . S
C1193 C1197 1.408 . S
C1194 C1192 1.363 . S
C1194 C1195 1.370 . S
C1194 C1198 1.524 . S
C1195 C1187 1.503 1_554 S
C1195 C1194 1.370 . S
C1195 C1196 1.403 . S
C1196 C1195 1.403 . S
C1196 C1197 1.404 . S
C1196 C1199 1.539 1_554 S
C1197 C1193 1.408 . S
C1197 C1196 1.404 . S
C1197 H1209 0.930 . S
C1198 C1194 1.524 . S
C1198 H1210 0.956 . S
C1198 H1211 0.961 . S
C1198 H1212 0.961 . S
C1199 C1196 1.539 1_556 S
C1199 H1213 0.958 . S
C1199 H1214 0.961 . S
C1199 H1215 0.960 . S
H1200 C1184 0.931 . S
H1201 C1189 0.929 . S
H1202 C1190 0.960 1_554 S
H1203 C1190 0.962 1_554 S
H1204 C1190 0.960 . S
H1205 C1191 0.961 . S
H1206 C1191 0.961 . S
H1207 C1191 0.961 . S
H1208 C1192 0.931 . S
H1209 C1197 0.930 . S
H1210 C1198 0.956 . S
H1211 C1198 0.961 . S
H1212 C1198 0.961 . S
H1213 C1199 0.958 . S
H1214 C1199 0.961 . S
H1215 C1199 0.960 . S
C1216 C1217 1.391 . S
C1216 C1218 1.394 . S
C1216 H1232 0.931 . S
C1217 C1216 1.391 . S
C1217 C1221 1.376 . S
C1218 C1216 1.394 . S
C1218 C1219 1.369 . S
C1218 C1222 1.531 . S
C1219 C1218 1.369 . S
C1219 C1220 1.410 . S
C1219 C1227 1.503 1_556 S
C1220 C1219 1.410 . S
C1220 C1221 1.392 . S
C1220 C1223 1.511 1_556 S
C1221 C1217 1.376 . S
C1221 C1220 1.392 . S
C1221 H1233 0.929 . S
C1222 C1218 1.531 . S
C1222 H1234 0.960 . S
C1222 H1235 0.962 . S
C1222 H1236 0.960 . S
C1223 C1220 1.511 1_554 S
C1223 H1237 0.961 . S
C1223 H1238 0.961 . S
C1223 H1239 0.961 . S
C1224 C1225 1.370 . S
C1224 C1226 1.363 . S
C1224 H1240 0.931 . S
C1225 C1224 1.370 . S
C1225 C1229 1.408 . S
C1226 C1224 1.363 . S
C1226 C1227 1.370 . S
C1226 C1230 1.524 . S
C1227 C1219 1.503 1_554 S
C1227 C1226 1.370 . S
C1227 C1228 1.403 . S
C1228 C1227 1.403 . S
C1228 C1229 1.404 . S
C1228 C1231 1.539 . S
C1229 C1225 1.408 . S
C1229 C1228 1.404 . S
C1229 H1241 0.930 . S
C1230 C1226 1.524 . S
C1230 H1242 0.956 . S
C1230 H1243 0.961 . S
C1230 H1244 0.961 . S
C1231 C1228 1.539 . S
C1231 H1245 0.958 1_554 S
C1231 H1246 0.961 . S
C1231 H1247 0.960 1_554 S
H1232 C1216 0.931 . S
H1233 C1221 0.929 . S
H1234 C1222 0.960 . S
H1235 C1222 0.962 . S
H1236 C1222 0.960 . S
H1237 C1223 0.961 . S
H1238 C1223 0.961 . S
H1239 C1223 0.961 . S
H1240 C1224 0.931 . S
H1241 C1229 0.930 . S
H1242 C1230 0.956 . S
H1243 C1230 0.961 . S
H1244 C1230 0.961 . S
H1245 C1231 0.958 1_556 S
H1246 C1231 0.961 . S
H1247 C1231 0.960 1_556 S
C1248 C1249 1.391 . S
C1248 C1250 1.394 . S
C1248 H1264 0.931 . S
C1249 C1248 1.391 . S
C1249 C1253 1.376 . S
C1250 C1248 1.394 . S
C1250 C1251 1.369 . S
C1250 C1254 1.531 . S
C1251 C1250 1.369 . S
C1251 C1252 1.410 . S
C1251 C1259 1.503 1_556 S
C1252 C1251 1.410 . S
C1252 C1253 1.392 . S
C1252 C1255 1.511 . S
C1253 C1249 1.376 . S
C1253 C1252 1.392 . S
C1253 H1265 0.929 . S
C1254 C1250 1.531 . S
C1254 H1266 0.960 1_556 S
C1254 H1267 0.962 . S
C1254 H1268 0.960 . S
C1255 C1252 1.511 . S
C1255 H1269 0.961 . S
C1255 H1270 0.961 . S
C1255 H1271 0.956 1_556 S
C1256 C1257 1.370 . S
C1256 C1258 1.363 . S
C1256 H1272 0.931 . S
C1257 C1256 1.370 . S
C1257 C1261 1.408 . S
C1258 C1256 1.363 . S
C1258 C1259 1.370 . S
C1258 C1262 1.524 1_554 S
C1259 C1251 1.503 1_554 S
C1259 C1258 1.370 . S
C1259 C1260 1.403 . S
C1260 C1259 1.403 . S
C1260 C1261 1.404 . S
C1260 C1263 1.539 . S
C1261 C1257 1.408 . S
C1261 C1260 1.404 . S
C1261 H1273 0.930 . S
C1262 C1258 1.524 1_556 S
C1262 H1274 0.956 . S
C1262 H1275 0.961 . S
C1262 H1276 0.961 . S
C1263 C1260 1.539 . S
C1263 H1277 0.958 . S
C1263 H1278 0.961 . S
C1263 H1279 0.960 . S
H1264 C1248 0.931 . S
H1265 C1253 0.929 . S
H1266 C1254 0.960 1_554 S
H1267 C1254 0.962 . S
H1268 C1254 0.960 . S
H1269 C1255 0.961 . S
H1270 C1255 0.961 . S
H1271 C1255 0.956 1_554 S
H1272 C1256 0.931 . S
H1273 C1261 0.930 . S
H1274 C1262 0.956 . S
H1275 C1262 0.961 . S
H1276 C1262 0.961 . S
H1277 C1263 0.958 . S
H1278 C1263 0.961 . S
H1279 C1263 0.960 . S
C1280 C1281 1.391 . S
C1280 C1282 1.394 . S
C1280 H1296 0.931 . S
C1281 C1280 1.391 . S
C1281 C1285 1.376 . S
C1282 C1280 1.394 . S
C1282 C1283 1.369 . S
C1282 C1286 1.531 1_556 S
C1283 C1282 1.369 . S
C1283 C1284 1.410 . S
C1283 C1291 1.503 1_556 S
C1284 C1283 1.410 . S
C1284 C1285 1.392 . S
C1284 C1287 1.511 . S
C1285 C1281 1.376 . S
C1285 C1284 1.392 . S
C1285 H1297 0.929 . S
C1286 C1282 1.531 1_554 S
C1286 H1298 0.960 . S
C1286 H1299 0.962 . S
C1286 H1300 0.960 . S
C1287 C1284 1.511 . S
C1287 H1301 0.961 . S
C1287 H1302 0.961 . S
C1287 H1303 0.961 . S
C1288 C1289 1.370 . S
C1288 C1290 1.363 . S
C1288 H1304 0.931 . S
C1289 C1288 1.370 . S
C1289 C1293 1.408 . S
C1290 C1288 1.363 . S
C1290 C1291 1.370 . S
C1290 C1294 1.540 . S
C1291 C1283 1.503 1_554 S
C1291 C1290 1.370 . S
C1291 C1292 1.403 . S
C1292 C1291 1.403 . S
C1292 C1293 1.404 . S
C1292 C1295 1.539 . S
C1293 C1289 1.408 . S
C1293 C1292 1.404 . S
C1293 H1305 0.930 . S
C1294 C1290 1.540 . S
C1294 H1306 0.957 . S
C1294 H1307 0.936 1_554 S
C1294 H1308 0.969 . S
C1295 C1292 1.539 . S
C1295 H1309 0.958 . S
C1295 H1310 0.961 . S
C1295 H1311 0.960 . S
H1296 C1280 0.931 . S
H1297 C1285 0.929 . S
H1298 C1286 0.960 . S
H1299 C1286 0.962 . S
H1300 C1286 0.960 . S
H1301 C1287 0.961 . S
H1302 C1287 0.961 . S
H1303 C1287 0.961 . S
H1304 C1288 0.931 . S
H1305 C1293 0.930 . S
H1306 C1294 0.957 . S
H1307 C1294 0.936 1_556 S
H1308 C1294 0.969 . S
H1309 C1295 0.958 . S
H1310 C1295 0.961 . S
H1311 C1295 0.960 . S
C1312 C1313 1.391 . S
C1312 C1314 1.394 . S
C1312 H1328 0.931 . S
C1313 C1312 1.391 . S
C1313 C1317 1.376 . S
C1314 C1312 1.394 . S
C1314 C1315 1.369 . S
C1314 C1318 1.531 . S
C1315 C1314 1.369 . S
C1315 C1316 1.410 . S
C1315 C1323 1.503 . S
C1316 C1315 1.410 . S
C1316 C1317 1.392 . S
C1316 C1319 1.511 . S
C1317 C1313 1.376 . S
C1317 C1316 1.392 . S
C1317 H1329 0.929 . S
C1318 C1314 1.531 . S
C1318 H1330 0.960 . S
C1318 H1331 0.962 . S
C1318 H1332 0.960 . S
C1319 C1316 1.511 . S
C1319 H1333 0.961 . S
C1319 H1334 0.961 . S
C1319 H1335 0.961 . S
C1320 C1321 1.370 . S
C1320 C1322 1.363 . S
C1320 H1336 0.931 . S
C1321 C1320 1.370 . S
C1321 C1325 1.408 . S
C1322 C1320 1.363 . S
C1322 C1323 1.370 . S
C1322 C1326 1.524 . S
C1323 C1315 1.503 . S
C1323 C1322 1.370 . S
C1323 C1324 1.403 . S
C1324 C1323 1.403 . S
C1324 C1325 1.404 . S
C1324 C1327 1.539 . S
C1325 C1321 1.408 . S
C1325 C1324 1.404 . S
C1325 H1337 0.930 . S
C1326 C1322 1.524 . S
C1326 H1338 0.956 . S
C1326 H1339 0.961 . S
C1326 H1340 0.961 . S
C1327 C1324 1.539 . S
C1327 H1341 0.958 . S
C1327 H1342 0.961 . S
C1327 H1343 0.960 . S
H1328 C1312 0.931 . S
H1329 C1317 0.929 . S
H1330 C1318 0.960 . S
H1331 C1318 0.962 . S
H1332 C1318 0.960 . S
H1333 C1319 0.961 . S
H1334 C1319 0.961 . S
H1335 C1319 0.961 . S
H1336 C1320 0.931 . S
H1337 C1325 0.930 . S
H1338 C1326 0.956 . S
H1339 C1326 0.961 . S
H1340 C1326 0.961 . S
H1341 C1327 0.958 . S
H1342 C1327 0.961 . S
H1343 C1327 0.960 . S
C1344 C1345 1.391 . S
C1344 C1346 1.394 . S
C1344 H1360 0.931 . S
C1345 C1344 1.391 . S
C1345 C1349 1.376 . S
C1346 C1344 1.394 . S
C1346 C1347 1.369 . S
C1346 C1350 1.531 . S
C1347 C1346 1.369 . S
C1347 C1348 1.410 . S
C1347 C1355 1.503 . S
C1348 C1347 1.410 . S
C1348 C1349 1.392 . S
C1348 C1351 1.511 . S
C1349 C1345 1.376 . S
C1349 C1348 1.392 . S
C1349 H1361 0.929 . S
C1350 C1346 1.531 . S
C1350 H1362 0.960 . S
C1350 H1363 0.962 . S
C1350 H1364 0.960 . S
C1351 C1348 1.511 . S
C1351 H1365 0.961 . S
C1351 H1366 0.961 . S
C1351 H1367 0.961 . S
C1352 C1353 1.370 . S
C1352 C1354 1.363 . S
C1352 H1368 0.931 . S
C1353 C1352 1.370 . S
C1353 C1357 1.408 . S
C1354 C1352 1.363 . S
C1354 C1355 1.370 . S
C1354 C1358 1.524 . S
C1355 C1347 1.503 . S
C1355 C1354 1.370 . S
C1355 C1356 1.403 . S
C1356 C1355 1.403 . S
C1356 C1357 1.404 . S
C1356 C1359 1.539 . S
C1357 C1353 1.408 . S
C1357 C1356 1.404 . S
C1357 H1369 0.930 . S
C1358 C1354 1.524 . S
C1358 H1370 0.956 . S
C1358 H1371 0.961 . S
C1358 H1372 0.961 . S
C1359 C1356 1.539 . S
C1359 H1373 0.958 . S
C1359 H1374 0.961 . S
C1359 H1375 0.960 . S
H1360 C1344 0.931 . S
H1361 C1349 0.929 . S
H1362 C1350 0.960 . S
H1363 C1350 0.962 . S
H1364 C1350 0.960 . S
H1365 C1351 0.961 . S
H1366 C1351 0.961 . S
H1367 C1351 0.961 . S
H1368 C1352 0.931 . S
H1369 C1357 0.930 . S
H1370 C1358 0.956 . S
H1371 C1358 0.961 . S
H1372 C1358 0.961 . S
H1373 C1359 0.958 . S
H1374 C1359 0.961 . S
H1375 C1359 0.960 . S
C1376 C1377 1.391 . S
C1376 C1378 1.394 . S
C1376 H1392 0.931 . S
C1377 C1376 1.391 . S
C1377 C1381 1.376 . S
C1378 C1376 1.394 . S
C1378 C1379 1.369 . S
C1378 C1382 1.531 . S
C1379 C1378 1.369 . S
C1379 C1380 1.410 . S
C1379 C1387 1.503 . S
C1380 C1379 1.410 . S
C1380 C1381 1.392 . S
C1380 C1383 1.511 . S
C1381 C1377 1.376 . S
C1381 C1380 1.392 . S
C1381 H1393 0.929 . S
C1382 C1378 1.531 . S
C1382 H1394 0.960 . S
C1382 H1395 0.962 . S
C1382 H1396 0.960 . S
C1383 C1380 1.511 . S
C1383 H1397 0.961 . S
C1383 H1398 0.961 . S
C1383 H1399 0.961 . S
C1384 C1385 1.370 . S
C1384 C1386 1.363 . S
C1384 H1400 0.931 . S
C1385 C1384 1.370 . S
C1385 C1389 1.408 . S
C1386 C1384 1.363 . S
C1386 C1387 1.370 . S
C1386 C1390 1.524 . S
C1387 C1379 1.503 . S
C1387 C1386 1.370 . S
C1387 C1388 1.403 . S
C1388 C1387 1.403 . S
C1388 C1389 1.404 . S
C1388 C1391 1.539 . S
C1389 C1385 1.408 . S
C1389 C1388 1.404 . S
C1389 H1401 0.930 . S
C1390 C1386 1.524 . S
C1390 H1402 0.956 . S
C1390 H1403 0.961 . S
C1390 H1404 0.961 . S
C1391 C1388 1.539 . S
C1391 H1405 0.958 . S
C1391 H1406 0.961 . S
C1391 H1407 0.960 . S
H1392 C1376 0.931 . S
H1393 C1381 0.929 . S
H1394 C1382 0.960 . S
H1395 C1382 0.962 . S
H1396 C1382 0.960 . S
H1397 C1383 0.961 . S
H1398 C1383 0.961 . S
H1399 C1383 0.961 . S
H1400 C1384 0.931 . S
H1401 C1389 0.930 . S
H1402 C1390 0.956 . S
H1403 C1390 0.961 . S
H1404 C1390 0.961 . S
H1405 C1391 0.958 . S
H1406 C1391 0.961 . S
H1407 C1391 0.960 . S
C1408 C1409 1.391 . S
C1408 C1410 1.394 . S
C1408 H1424 0.931 . S
C1409 C1408 1.391 . S
C1409 C1413 1.376 . S
C1410 C1408 1.394 . S
C1410 C1411 1.369 . S
C1410 C1414 1.531 . S
C1411 C1410 1.369 . S
C1411 C1412 1.410 . S
C1411 C1419 1.503 . S
C1412 C1411 1.410 . S
C1412 C1413 1.392 . S
C1412 C1415 1.511 . S
C1413 C1409 1.376 . S
C1413 C1412 1.392 . S
C1413 H1425 0.929 . S
C1414 C1410 1.531 . S
C1414 H1426 0.960 . S
C1414 H1427 0.962 . S
C1414 H1428 0.960 . S
C1415 C1412 1.511 . S
C1415 H1429 0.961 . S
C1415 H1430 0.961 . S
C1415 H1431 0.961 . S
C1416 C1417 1.370 . S
C1416 C1418 1.363 . S
C1416 H1432 0.931 . S
C1417 C1416 1.370 . S
C1417 C1421 1.408 . S
C1418 C1416 1.363 . S
C1418 C1419 1.370 . S
C1418 C1422 1.524 . S
C1419 C1411 1.503 . S
C1419 C1418 1.370 . S
C1419 C1420 1.403 . S
C1420 C1419 1.403 . S
C1420 C1421 1.404 . S
C1420 C1423 1.539 . S
C1421 C1417 1.408 . S
C1421 C1420 1.404 . S
C1421 H1433 0.930 . S
C1422 C1418 1.524 . S
C1422 H1434 0.956 . S
C1422 H1435 0.961 . S
C1422 H1436 0.961 . S
C1423 C1420 1.539 . S
C1423 H1437 0.958 . S
C1423 H1438 0.961 . S
C1423 H1439 0.960 . S
H1424 C1408 0.931 . S
H1425 C1413 0.929 . S
H1426 C1414 0.960 . S
H1427 C1414 0.962 . S
H1428 C1414 0.960 . S
H1429 C1415 0.961 . S
H1430 C1415 0.961 . S
H1431 C1415 0.961 . S
H1432 C1416 0.931 . S
H1433 C1421 0.930 . S
H1434 C1422 0.956 . S
H1435 C1422 0.961 . S
H1436 C1422 0.961 . S
H1437 C1423 0.958 . S
H1438 C1423 0.961 . S
H1439 C1423 0.960 . S
C1440 C1441 1.391 . S
C1440 C1442 1.394 . S
C1440 H1456 0.931 . S
C1441 C1440 1.391 . S
C1441 C1445 1.376 . S
C1442 C1440 1.394 . S
C1442 C1443 1.369 . S
C1442 C1446 1.531 . S
C1443 C1442 1.369 . S
C1443 C1444 1.410 . S
C1443 C1451 1.503 . S
C1444 C1443 1.410 . S
C1444 C1445 1.392 . S
C1444 C1447 1.511 . S
C1445 C1441 1.376 . S
C1445 C1444 1.392 . S
C1445 H1457 0.929 . S
C1446 C1442 1.531 . S
C1446 H1458 0.960 . S
C1446 H1459 0.962 . S
C1446 H1460 0.960 . S
C1447 C1444 1.511 . S
C1447 H1461 0.961 . S
C1447 H1462 0.961 . S
C1447 H1463 0.961 . S
C1448 C1449 1.370 . S
C1448 C1450 1.363 . S
C1448 H1464 0.931 . S
C1449 C1448 1.370 . S
C1449 C1453 1.408 . S
C1450 C1448 1.363 . S
C1450 C1451 1.370 . S
C1450 C1454 1.524 . S
C1451 C1443 1.503 . S
C1451 C1450 1.370 . S
C1451 C1452 1.403 . S
C1452 C1451 1.403 . S
C1452 C1453 1.404 . S
C1452 C1455 1.539 . S
C1453 C1449 1.408 . S
C1453 C1452 1.404 . S
C1453 H1465 0.930 . S
C1454 C1450 1.524 . S
C1454 H1466 0.956 . S
C1454 H1467 0.961 . S
C1454 H1468 0.961 . S
C1455 C1452 1.539 . S
C1455 H1469 0.958 . S
C1455 H1470 0.961 . S
C1455 H1471 0.960 . S
H1456 C1440 0.931 . S
H1457 C1445 0.929 . S
H1458 C1446 0.960 . S
H1459 C1446 0.962 . S
H1460 C1446 0.960 . S
H1461 C1447 0.961 . S
H1462 C1447 0.961 . S
H1463 C1447 0.961 . S
H1464 C1448 0.931 . S
H1465 C1453 0.930 . S
H1466 C1454 0.956 . S
H1467 C1454 0.961 . S
H1468 C1454 0.961 . S
H1469 C1455 0.958 . S
H1470 C1455 0.961 . S
H1471 C1455 0.960 . S
C1472 C1473 1.391 . S
C1472 C1474 1.394 . S
C1472 H1488 0.931 . S
C1473 C1472 1.391 . S
C1473 C1477 1.376 . S
C1474 C1472 1.394 . S
C1474 C1475 1.369 . S
C1474 C1478 1.531 . S
C1475 C1474 1.369 . S
C1475 C1476 1.410 . S
C1475 C1483 1.503 . S
C1476 C1475 1.410 . S
C1476 C1477 1.392 . S
C1476 C1479 1.511 . S
C1477 C1473 1.376 . S
C1477 C1476 1.392 . S
C1477 H1489 0.929 . S
C1478 C1474 1.531 . S
C1478 H1490 0.960 . S
C1478 H1491 0.962 . S
C1478 H1492 0.960 . S
C1479 C1476 1.511 . S
C1479 H1493 0.961 . S
C1479 H1494 0.961 . S
C1479 H1495 0.961 . S
C1480 C1481 1.370 . S
C1480 C1482 1.363 . S
C1480 H1496 0.931 . S
C1481 C1480 1.370 . S
C1481 C1485 1.408 . S
C1482 C1480 1.363 . S
C1482 C1483 1.370 . S
C1482 C1486 1.524 . S
C1483 C1475 1.503 . S
C1483 C1482 1.370 . S
C1483 C1484 1.403 . S
C1484 C1483 1.403 . S
C1484 C1485 1.404 . S
C1484 C1487 1.539 . S
C1485 C1481 1.408 . S
C1485 C1484 1.404 . S
C1485 H1497 0.930 . S
C1486 C1482 1.524 . S
C1486 H1498 0.956 . S
C1486 H1499 0.961 . S
C1486 H1500 0.961 . S
C1487 C1484 1.539 . S
C1487 H1501 0.958 . S
C1487 H1502 0.961 . S
C1487 H1503 0.960 . S
H1488 C1472 0.931 . S
H1489 C1477 0.929 . S
H1490 C1478 0.960 . S
H1491 C1478 0.962 . S
H1492 C1478 0.960 . S
H1493 C1479 0.961 . S
H1494 C1479 0.961 . S
H1495 C1479 0.961 . S
H1496 C1480 0.931 . S
H1497 C1485 0.930 . S
H1498 C1486 0.956 . S
H1499 C1486 0.961 . S
H1500 C1486 0.961 . S
H1501 C1487 0.958 . S
H1502 C1487 0.961 . S
H1503 C1487 0.960 . S
C1504 C1505 1.391 . S
C1504 C1506 1.394 . S
C1504 H1520 0.931 . S
C1505 C1504 1.391 . S
C1505 C1509 1.376 . S
C1506 C1504 1.394 . S
C1506 C1507 1.369 . S
C1506 C1510 1.531 . S
C1507 C1506 1.369 . S
C1507 C1508 1.410 . S
C1507 C1515 1.503 . S
C1508 C1507 1.410 . S
C1508 C1509 1.392 . S
C1508 C1511 1.511 . S
C1509 C1505 1.376 . S
C1509 C1508 1.392 . S
C1509 H1521 0.929 . S
C1510 C1506 1.531 . S
C1510 H1522 0.960 . S
C1510 H1523 0.962 . S
C1510 H1524 0.960 . S
C1511 C1508 1.511 . S
C1511 H1525 0.961 . S
C1511 H1526 0.961 . S
C1511 H1527 0.961 . S
C1512 C1513 1.370 . S
C1512 C1514 1.363 . S
C1512 H1528 0.931 . S
C1513 C1512 1.370 . S
C1513 C1517 1.408 . S
C1514 C1512 1.363 . S
C1514 C1515 1.370 . S
C1514 C1518 1.524 . S
C1515 C1507 1.503 . S
C1515 C1514 1.370 . S
C1515 C1516 1.403 . S
C1516 C1515 1.403 . S
C1516 C1517 1.404 . S
C1516 C1519 1.539 . S
C1517 C1513 1.408 . S
C1517 C1516 1.404 . S
C1517 H1529 0.930 . S
C1518 C1514 1.524 . S
C1518 H1530 0.956 . S
C1518 H1531 0.961 . S
C1518 H1532 0.961 . S
C1519 C1516 1.539 . S
C1519 H1533 0.958 . S
C1519 H1534 0.961 . S
C1519 H1535 0.960 . S
H1520 C1504 0.931 . S
H1521 C1509 0.929 . S
H1522 C1510 0.960 . S
H1523 C1510 0.962 . S
H1524 C1510 0.960 . S
H1525 C1511 0.961 . S
H1526 C1511 0.961 . S
H1527 C1511 0.961 . S
H1528 C1512 0.931 . S
H1529 C1517 0.930 . S
H1530 C1518 0.956 . S
H1531 C1518 0.961 . S
H1532 C1518 0.961 . S
H1533 C1519 0.958 . S
H1534 C1519 0.961 . S
H1535 C1519 0.960 . S
C1536 C1537 1.391 . S
C1536 C1538 1.394 . S
C1536 H1552 0.931 . S
C1537 C1536 1.391 . S
C1537 C1541 1.376 . S
C1538 C1536 1.394 . S
C1538 C1539 1.369 . S
C1538 C1542 1.531 . S
C1539 C1538 1.369 . S
C1539 C1540 1.410 . S
C1539 C1547 1.503 . S
C1540 C1539 1.410 . S
C1540 C1541 1.392 . S
C1540 C1543 1.511 . S
C1541 C1537 1.376 . S
C1541 C1540 1.392 . S
C1541 H1553 0.929 . S
C1542 C1538 1.531 . S
C1542 H1554 0.960 . S
C1542 H1555 0.962 . S
C1542 H1556 0.960 . S
C1543 C1540 1.511 . S
C1543 H1557 0.961 . S
C1543 H1558 0.961 . S
C1543 H1559 0.961 . S
C1544 C1545 1.370 . S
C1544 C1546 1.363 . S
C1544 H1560 0.931 . S
C1545 C1544 1.370 . S
C1545 C1549 1.408 . S
C1546 C1544 1.363 . S
C1546 C1547 1.370 . S
C1546 C1550 1.524 . S
C1547 C1539 1.503 . S
C1547 C1546 1.370 . S
C1547 C1548 1.403 . S
C1548 C1547 1.403 . S
C1548 C1549 1.404 . S
C1548 C1551 1.539 . S
C1549 C1545 1.408 . S
C1549 C1548 1.404 . S
C1549 H1561 0.930 . S
C1550 C1546 1.524 . S
C1550 H1562 0.956 . S
C1550 H1563 0.961 . S
C1550 H1564 0.961 . S
C1551 C1548 1.539 . S
C1551 H1565 0.958 . S
C1551 H1566 0.961 . S
C1551 H1567 0.960 . S
H1552 C1536 0.931 . S
H1553 C1541 0.929 . S
H1554 C1542 0.960 . S
H1555 C1542 0.962 . S
H1556 C1542 0.960 . S
H1557 C1543 0.961 . S
H1558 C1543 0.961 . S
H1559 C1543 0.961 . S
H1560 C1544 0.931 . S
H1561 C1549 0.930 . S
H1562 C1550 0.956 . S
H1563 C1550 0.961 . S
H1564 C1550 0.961 . S
H1565 C1551 0.958 . S
H1566 C1551 0.961 . S
H1567 C1551 0.960 . S
C1568 C1569 1.391 . S
C1568 C1570 1.394 . S
C1568 H1584 0.931 . S
C1569 C1568 1.391 . S
C1569 C1573 1.376 . S
C1570 C1568 1.394 . S
C1570 C1571 1.369 . S
C1570 C1574 1.531 . S
C1571 C1570 1.369 . S
C1571 C1572 1.410 . S
C1571 C1579 1.503 1_545 S
C1572 C1571 1.410 . S
C1572 C1573 1.392 . S
C1572 C1575 1.511 1_545 S
C1573 C1569 1.376 . S
C1573 C1572 1.392 . S
C1573 H1585 0.929 . S
C1574 C1570 1.531 . S
C1574 H1586 0.960 . S
C1574 H1587 0.962 . S
C1574 H1588 0.960 . S
C1575 C1572 1.511 1_565 S
C1575 H1589 0.961 . S
C1575 H1590 0.961 . S
C1575 H1591 0.961 1_565 S
C1576 C1577 1.370 . S
C1576 C1578 1.363 . S
C1576 H1592 0.931 . S
C1577 C1576 1.370 . S
C1577 C1581 1.408 . S
C1578 C1576 1.363 . S
C1578 C1579 1.370 . S
C1578 C1582 1.524 . S
C1579 C1571 1.503 1_565 S
C1579 C1578 1.370 . S
C1579 C1580 1.403 1_565 S
C1580 C1579 1.403 1_545 S
C1580 C1581 1.404 1_545 S
C1580 C1583 1.539 . S
C1581 C1577 1.408 . S
C1581 C1580 1.404 1_565 S
C1581 H1593 0.930 1_565 S
C1582 C1578 1.524 . S
C1582 H1594 0.956 . S
C1582 H1595 0.961 . S
C1582 H1596 0.961 . S
C1583 C1580 1.539 . S
C1583 H1597 0.958 . S
C1583 H1598 0.961 . S
C1583 H1599 0.960 . S
H1584 C1568 0.931 . S
H1585 C1573 0.929 . S
H1586 C1574 0.960 . S
H1587 C1574 0.962 . S
H1588 C1574 0.960 . S
H1589 C1575 0.961 . S
H1590 C1575 0.961 . S
H1591 C1575 0.961 1_545 S
H1592 C1576 0.931 . S
H1593 C1581 0.930 1_545 S
H1594 C1582 0.956 . S
H1595 C1582 0.961 . S
H1596 C1582 0.961 . S
H1597 C1583 0.958 . S
H1598 C1583 0.961 . S
H1599 C1583 0.960 . S
C1600 C1601 1.391 . S
C1600 C1602 1.394 1_655 S
C1600 H1616 0.931 . S
C1601 C1600 1.391 . S
C1601 C1605 1.376 . S
C1602 C1600 1.394 1_455 S
C1602 C1603 1.369 1_455 S
C1602 C1606 1.531 . S
C1603 C1602 1.369 1_655 S
C1603 C1604 1.410 . S
C1603 C1611 1.503 1_655 S
C1604 C1603 1.410 . S
C1604 C1605 1.392 . S
C1604 C1607 1.511 . S
C1605 C1601 1.376 . S
C1605 C1604 1.392 . S
C1605 H1617 0.929 . S
C1606 C1602 1.531 . S
C1606 H1618 0.960 . S
C1606 H1619 0.962 . S
C1606 H1620 0.960 . S
C1607 C1604 1.511 . S
C1607 H1621 0.961 . S
C1607 H1622 0.961 . S
C1607 H1623 0.961 . S
C1608 C1609 1.370 . S
C1608 C1610 1.363 . S
C1608 H1624 0.931 . S
C1609 C1608 1.370 . S
C1609 C1613 1.408 . S
C1610 C1608 1.363 . S
C1610 C1611 1.370 . S
C1610 C1614 1.524 . S
C1611 C1603 1.503 1_455 S
C1611 C1610 1.370 . S
C1611 C1612 1.406 . S
C1612 C1611 1.406 . S
C1612 C1613 1.413 . S
C1612 C1615 1.526 1_455 S
C1613 C1609 1.408 . S
C1613 C1612 1.413 . S
C1613 H1625 0.930 . S
C1614 C1610 1.524 . S
C1614 H1626 0.956 . S
C1614 H1627 0.961 . S
C1614 H1628 0.961 . S
C1615 C1612 1.526 1_655 S
C1615 H1629 0.958 . S
C1615 H1630 0.961 . S
C1615 H1631 0.960 . S
H1616 C1600 0.931 . S
H1617 C1605 0.929 . S
H1618 C1606 0.960 . S
H1619 C1606 0.962 . S
H1620 C1606 0.960 . S
H1621 C1607 0.961 . S
H1622 C1607 0.961 . S
H1623 C1607 0.961 . S
H1624 C1608 0.931 . S
H1625 C1613 0.930 . S
H1626 C1614 0.956 . S
H1627 C1614 0.961 . S
H1628 C1614 0.961 . S
H1629 C1615 0.958 . S
H1630 C1615 0.961 . S
H1631 C1615 0.960 . S
C1632 C1633 1.391 . S
C1632 C1634 1.394 . S
C1632 H1648 0.931 . S
C1633 C1632 1.391 . S
C1633 C1637 1.376 . S
C1634 C1632 1.394 . S
C1634 C1635 1.369 . S
C1634 C1638 1.531 . S
C1635 C1634 1.369 . S
C1635 C1636 1.410 . S
C1635 C1643 1.503 1_565 S
C1636 C1635 1.410 . S
C1636 C1637 1.392 . S
C1636 C1639 1.511 1_565 S
C1637 C1633 1.376 . S
C1637 C1636 1.392 . S
C1637 H1649 0.929 . S
C1638 C1634 1.531 . S
C1638 H1650 0.960 1_565 S
C1638 H1651 0.962 . S
C1638 H1652 0.960 . S
C1639 C1636 1.511 1_545 S
C1639 H1653 0.961 1_545 S
C1639 H1654 0.961 . S
C1639 H1655 0.961 . S
C1640 C1641 1.370 . S
C1640 C1642 1.363 1_545 S
C1640 H1656 0.931 1_545 S
C1641 C1640 1.370 . S
C1641 C1645 1.408 . S
C1642 C1640 1.363 1_565 S
C1642 C1643 1.370 1_565 S
C1642 C1646 1.524 . S
C1643 C1635 1.503 1_545 S
C1643 C1642 1.370 1_545 S
C1643 C1644 1.403 . S
C1644 C1643 1.403 . S
C1644 C1645 1.404 . S
C1644 C1647 1.539 . S
C1645 C1641 1.408 . S
C1645 C1644 1.404 . S
C1645 H1657 0.930 . S
C1646 C1642 1.524 . S
C1646 H1658 0.956 . S
C1646 H1659 0.961 . S
C1646 H1660 0.961 . S
C1647 C1644 1.539 . S
C1647 H1661 0.958 . S
C1647 H1662 0.961 . S
C1647 H1663 0.960 . S
H1648 C1632 0.931 . S
H1649 C1637 0.929 . S
H1650 C1638 0.960 1_545 S
H1651 C1638 0.962 . S
H1652 C1638 0.960 . S
H1653 C1639 0.961 1_565 S
H1654 C1639 0.961 . S
H1655 C1639 0.961 . S
H1656 C1640 0.931 1_565 S
H1657 C1645 0.930 . S
H1658 C1646 0.956 . S
H1659 C1646 0.961 . S
H1660 C1646 0.961 . S
H1661 C1647 0.958 . S
H1662 C1647 0.961 . S
H1663 C1647 0.960 . S
C1664 C1665 1.391 . S
C1664 C1666 1.394 . S
C1664 H1680 0.931 . S
C1665 C1664 1.391 . S
C1665 C1669 1.376 . S
C1666 C1664 1.394 . S
C1666 C1667 1.369 . S
C1666 C1670 1.531 . S
C1667 C1666 1.369 . S
C1667 C1668 1.410 1_655 S
C1667 C1675 1.503 1_655 S
C1668 C1667 1.410 1_455 S
C1668 C1669 1.392 1_455 S
C1668 C1671 1.511 . S
C1669 C1665 1.376 . S
C1669 C1668 1.392 1_655 S
C1669 H1681 0.929 1_655 S
C1670 C1666 1.531 . S
C1670 H1682 0.960 . S
C1670 H1683 0.962 . S
C1670 H1684 0.960 . S
C1671 C1668 1.511 . S
C1671 H1685 0.961 . S
C1671 H1686 0.961 . S
C1671 H1687 0.961 . S
C1672 C1673 1.370 . S
C1672 C1674 1.363 . S
C1672 H1688 0.931 . S
C1673 C1672 1.370 . S
C1673 C1677 1.408 . S
C1674 C1672 1.363 . S
C1674 C1675 1.370 . S
C1674 C1678 1.524 1_455 S
C1675 C1667 1.503 1_455 S
C1675 C1674 1.370 . S
C1675 C1676 1.403 . S
C1676 C1675 1.403 . S
C1676 C1677 1.404 . S
C1676 C1679 1.539 . S
C1677 C1673 1.408 . S
C1677 C1676 1.404 . S
C1677 H1689 0.930 . S
C1678 C1674 1.524 1_655 S
C1678 H1690 0.956 . S
C1678 H1691 0.961 1_655 S
C1678 H1692 0.961 . S
C1679 C1676 1.539 . S
C1679 H1693 0.958 . S
C1679 H1694 0.961 . S
C1679 H1695 0.960 . S
H1680 C1664 0.931 . S
H1681 C1669 0.929 1_455 S
H1682 C1670 0.960 . S
H1683 C1670 0.962 . S
H1684 C1670 0.960 . S
H1685 C1671 0.961 . S
H1686 C1671 0.961 . S
H1687 C1671 0.961 . S
H1688 C1672 0.931 . S
H1689 C1677 0.930 . S
H1690 C1678 0.956 . S
H1691 C1678 0.961 1_455 S
H1692 C1678 0.961 . S
H1693 C1679 0.958 . S
H1694 C1679 0.961 . S
H1695 C1679 0.960 . S
C1696 C1697 1.391 . S
C1696 C1698 1.394 . S
C1696 H1712 0.931 . S
C1697 C1696 1.391 . S
C1697 C1701 1.376 . S
C1698 C1696 1.394 . S
C1698 C1699 1.369 . S
C1698 C1702 1.531 1_556 S
C1699 C1698 1.369 . S
C1699 C1700 1.410 . S
C1699 C1707 1.503 1_556 S
C1700 C1699 1.410 . S
C1700 C1701 1.392 . S
C1700 C1703 1.511 . S
C1701 C1697 1.376 . S
C1701 C1700 1.392 . S
C1701 H1713 0.929 . S
C1702 C1698 1.531 1_554 S
C1702 H1714 0.960 . S
C1702 H1715 0.962 1_554 S
C1702 H1716 0.960 1_554 S
C1703 C1700 1.511 . S
C1703 H1717 0.961 . S
C1703 H1718 0.961 . S
C1703 H1719 0.961 . S
C1704 C1705 1.370 . S
C1704 C1706 1.363 . S
C1704 H1720 0.931 . S
C1705 C1704 1.370 . S
C1705 C1709 1.408 . S
C1706 C1704 1.363 . S
C1706 C1707 1.370 . S
C1706 C1710 1.524 1_554 S
C1707 C1699 1.503 1_554 S
C1707 C1706 1.370 . S
C1707 C1708 1.403 . S
C1708 C1707 1.403 . S
C1708 C1709 1.404 . S
C1708 C1711 1.539 . S
C1709 C1705 1.408 . S
C1709 C1708 1.404 . S
C1709 H1721 0.930 . S
C1710 C1706 1.524 1_556 S
C1710 H1722 0.956 . S
C1710 H1723 0.961 . S
C1710 H1724 0.961 . S
C1711 C1708 1.539 . S
C1711 H1725 0.958 . S
C1711 H1726 0.961 . S
C1711 H1727 0.960 . S
H1712 C1696 0.931 . S
H1713 C1701 0.929 . S
H1714 C1702 0.960 . S
H1715 C1702 0.962 1_556 S
H1716 C1702 0.960 1_556 S
H1717 C1703 0.961 . S
H1718 C1703 0.961 . S
H1719 C1703 0.961 . S
H1720 C1704 0.931 . S
H1721 C1709 0.930 . S
H1722 C1710 0.956 . S
H1723 C1710 0.961 . S
H1724 C1710 0.961 . S
H1725 C1711 0.958 . S
H1726 C1711 0.961 . S
H1727 C1711 0.960 . S
C1728 C1729 1.391 . S
C1728 C1730 1.394 . S
C1728 H1744 0.931 . S
C1729 C1728 1.391 . S
C1729 C1733 1.376 . S
C1730 C1728 1.394 . S
C1730 C1731 1.369 . S
C1730 C1734 1.531 . S
C1731 C1730 1.369 . S
C1731 C1732 1.410 . S
C1731 C1739 1.503 1_556 S
C1732 C1731 1.410 . S
C1732 C1733 1.392 . S
C1732 C1735 1.511 1_556 S
C1733 C1729 1.376 . S
C1733 C1732 1.392 . S
C1733 H1745 0.929 . S
C1734 C1730 1.531 . S
C1734 H1746 0.960 . S
C1734 H1747 0.962 . S
C1734 H1748 0.960 . S
C1735 C1732 1.511 1_554 S
C1735 H1749 0.961 . S
C1735 H1750 0.961 . S
C1735 H1751 0.961 . S
C1736 C1737 1.370 . S
C1736 C1738 1.363 . S
C1736 H1752 0.931 . S
C1737 C1736 1.370 . S
C1737 C1741 1.408 . S
C1738 C1736 1.363 . S
C1738 C1739 1.370 . S
C1738 C1742 1.524 . S
C1739 C1731 1.503 1_554 S
C1739 C1738 1.370 . S
C1739 C1740 1.403 . S
C1740 C1739 1.403 . S
C1740 C1741 1.404 . S
C1740 C1743 1.539 . S
C1741 C1737 1.408 . S
C1741 C1740 1.404 . S
C1741 H1753 0.930 . S
C1742 C1738 1.524 . S
C1742 H1754 0.956 1_554 S
C1742 H1755 0.961 1_554 S
C1742 H1756 0.961 . S
C1743 C1740 1.539 . S
C1743 H1757 0.958 . S
C1743 H1758 0.961 . S
C1743 H1759 0.960 . S
H1744 C1728 0.931 . S
H1745 C1733 0.929 . S
H1746 C1734 0.960 . S
H1747 C1734 0.962 . S
H1748 C1734 0.960 . S
H1749 C1735 0.961 . S
H1750 C1735 0.961 . S
H1751 C1735 0.961 . S
H1752 C1736 0.931 . S
H1753 C1741 0.930 . S
H1754 C1742 0.956 1_556 S
H1755 C1742 0.961 1_556 S
H1756 C1742 0.961 . S
H1757 C1743 0.958 . S
H1758 C1743 0.961 . S
H1759 C1743 0.960 . S
C1760 C1761 1.391 . S
C1760 C1762 1.394 . S
C1760 H1776 0.931 . S
C1761 C1760 1.391 . S
C1761 C1765 1.376 . S
C1762 C1760 1.394 . S
C1762 C1763 1.369 . S
C1762 C1766 1.531 . S
C1763 C1762 1.369 . S
C1763 C1764 1.410 . S
C1763 C1771 1.503 1_554 S
C1764 C1763 1.410 . S
C1764 C1765 1.392 . S
C1764 C1767 1.511 1_554 S
C1765 C1761 1.376 . S
C1765 C1764 1.392 . S
C1765 H1777 0.929 . S
C1766 C1762 1.531 . S
C1766 H1778 0.960 . S
C1766 H1779 0.962 . S
C1766 H1780 0.960 . S
C1767 C1764 1.511 1_556 S
C1767 H1781 0.961 . S
C1767 H1782 0.961 . S
C1767 H1783 0.961 . S
C1768 C1769 1.370 . S
C1768 C1770 1.363 . S
C1768 H1784 0.931 . S
C1769 C1768 1.370 . S
C1769 C1773 1.408 . S
C1770 C1768 1.363 . S
C1770 C1771 1.370 . S
C1770 C1774 1.524 . S
C1771 C1763 1.503 1_556 S
C1771 C1770 1.370 . S
C1771 C1772 1.403 . S
C1772 C1771 1.403 . S
C1772 C1773 1.404 . S
C1772 C1775 1.551 . S
C1773 C1769 1.408 . S
C1773 C1772 1.404 . S
C1773 H1785 0.930 . S
C1774 C1770 1.524 . S
C1774 H1786 0.956 . S
C1774 H1787 0.961 . S
C1774 H1788 0.961 . S
C1775 C1772 1.551 . S
C1775 H1789 0.947 1_556 S
C1775 H1790 0.973 . S
C1775 H1791 0.948 1_556 S
H1776 C1760 0.931 . S
H1777 C1765 0.929 . S
H1778 C1766 0.960 . S
H1779 C1766 0.962 . S
H1780 C1766 0.960 . S
H1781 C1767 0.961 . S
H1782 C1767 0.961 . S
H1783 C1767 0.961 . S
H1784 C1768 0.931 . S
H1785 C1773 0.930 . S
H1786 C1774 0.956 . S
H1787 C1774 0.961 . S
H1788 C1774 0.961 . S
H1789 C1775 0.947 1_554 S
H1790 C1775 0.973 . S
H1791 C1775 0.948 1_554 S
C1792 C1793 1.391 . S
C1792 C1794 1.394 . S
C1792 H1808 0.931 . S
C1793 C1792 1.391 . S
C1793 C1797 1.376 . S
C1794 C1792 1.394 . S
C1794 C1795 1.369 . S
C1794 C1798 1.531 1_556 S
C1795 C1794 1.369 . S
C1795 C1796 1.410 . S
C1795 C1803 1.503 1_556 S
C1796 C1795 1.410 . S
C1796 C1797 1.392 . S
C1796 C1799 1.511 . S
C1797 C1793 1.376 . S
C1797 C1796 1.392 . S
C1797 H1809 0.929 . S
C1798 C1794 1.531 1_554 S
C1798 H1810 0.960 . S
C1798 H1811 0.962 . S
C1798 H1812 0.960 . S
C1799 C1796 1.511 . S
C1799 H1813 0.961 . S
C1799 H1814 0.961 . S
C1799 H1815 0.961 . S
C1800 C1801 1.370 . S
C1800 C1802 1.363 . S
C1800 H1816 0.931 . S
C1801 C1800 1.370 . S
C1801 C1805 1.408 . S
C1802 C1800 1.363 . S
C1802 C1803 1.370 . S
C1802 C1806 1.524 . S
C1803 C1795 1.503 1_554 S
C1803 C1802 1.370 . S
C1803 C1804 1.403 . S
C1804 C1803 1.403 . S
C1804 C1805 1.404 . S
C1804 C1807 1.539 . S
C1805 C1801 1.408 . S
C1805 C1804 1.404 . S
C1805 H1817 0.930 . S
C1806 C1802 1.524 . S
C1806 H1818 0.956 . S
C1806 H1819 0.961 1_554 S
C1806 H1820 0.961 . S
C1807 C1804 1.539 . S
C1807 H1821 0.958 . S
C1807 H1822 0.961 . S
C1807 H1823 0.960 1_554 S
H1808 C1792 0.931 . S
H1809 C1797 0.929 . S
H1810 C1798 0.960 . S
H1811 C1798 0.962 . S
H1812 C1798 0.960 . S
H1813 C1799 0.961 . S
H1814 C1799 0.961 . S
H1815 C1799 0.961 . S
H1816 C1800 0.931 . S
H1817 C1805 0.930 . S
H1818 C1806 0.956 . S
H1819 C1806 0.961 1_556 S
H1820 C1806 0.961 . S
H1821 C1807 0.958 . S
H1822 C1807 0.961 . S
H1823 C1807 0.960 1_556 S
C545 C9 2.067 . S
C553 C104 2.107 . S
C577 C2 2.094 . S
C585 C43 2.072 . S
C609 C77 2.061 . S
C617 C36 2.105 . S
C641 C70 2.118 . S
C649 C111 2.088 . S
C673 C172 2.092 . S
C681 C145 2.071 . S
C705 C206 2.114 . S
C713 C179 2.084 . S
C737 C240 2.111 . S
C745 C213 2.085 . S
C769 C247 2.055 . S
C777 C138 2.105 . S
C801 C281 2.093 . S
C809 C376 2.115 . S
C833 C315 2.081 . S
C841 C274 2.110 . S
C865 C349 2.055 . S
C873 C308 2.104 . S
C897 C342 2.092 . S
C905 C383 2.073 . S
C929 C444 2.099 . S
C937 C417 2.074 . S
C961 C451 2.094 . S
C969 C478 2.115 . S
C993 C485 2.074 . S
C1001 C512 2.111 . S
C1025 C519 2.059 . S
C1033 C410 2.105 . S
C1057 C5 1.118 . S
C1065 C175 1.084 . S
C1089 C39 1.008 . S
C1097 C209 1.039 . S
C1121 C243 1.003 . S
C1129 C73 1.039 . S
C1153 C107 1.007 . S
C1161 C141 1.039 . S
C1185 C277 1.085 . S
C1193 C447 1.067 . S
C1217 C311 1.007 . S
C1225 C481 1.039 . S
C1249 C345 1.068 . S
C1257 C515 1.072 . S
C1281 C379 1.116 . S
C1289 C413 1.088 . S
C1313 C33 0.303 . S
C1321 C543 0.319 . S
C1345 C441 0.367 . S
C1353 C67 0.332 . S
C1377 C101 0.234 . S
C1385 C475 0.366 . S
C1409 C135 0.429 . S
C1417 C509 0.289 . S
C1441 C339 0.420 . S
C1449 C169 0.273 . S
C1473 C373 0.407 . S
C1481 C203 0.276 . S
C1505 C407 0.419 . S
C1513 C237 0.273 . S
C1537 C305 0.273 . S
C1545 C271 0.361 . S
C1569 C20 1.155 . S
C1577 C156 1.185 . S
C1601 C54 1.197 . S
C1609 C190 1.199 . S
C1633 C88 1.199 . S
C1641 C224 1.179 . S
C1665 C258 1.160 . S
C1673 C122 1.171 . S
C1697 C292 1.153 . S
C1705 C428 1.184 . S
C1729 C326 1.202 . S
C1737 C462 1.200 . S
C1761 C496 1.217 . S
C1769 C360 1.193 . S
C1793 C394 1.153 . S
C1801 C530 1.172 . S
