# Generated by pormake.
# Topology ukp, (4)-cn, num edge types: 1
# Building blocks:
#     Node 0, Type 0, BuildingBlock: KOZSID_clean_sbu_0, # of connection points: 4
#     Node 1, Type 0, BuildingBlock: KOZSID_clean_sbu_0, # of connection points: 4
#     Node 2, Type 0, BuildingBlock: KOZSID_clean_sbu_0, # of connection points: 4
#     Node 3, Type 0, BuildingBlock: KOZSID_clean_sbu_0, # of connection points: 4
#     Node 4, Type 0, BuildingBlock: KOZSID_clean_sbu_0, # of connection points: 4
#     Node 5, Type 0, BuildingBlock: KOZSID_clean_sbu_0, # of connection points: 4
#     Node 6, Type 0, BuildingBlock: KOZSID_clean_sbu_0, # of connection points: 4
#     Node 7, Type 0, BuildingBlock: KOZSID_clean_sbu_0, # of connection points: 4
#     Node 8, Type 0, BuildingBlock: KOZSID_clean_sbu_0, # of connection points: 4
#     Node 9, Type 0, BuildingBlock: KOZSID_clean_sbu_0, # of connection points: 4
#     Node 10, Type 0, BuildingBlock: KOZSID_clean_sbu_0, # of connection points: 4
#     Node 11, Type 0, BuildingBlock: KOZSID_clean_sbu_0, # of connection points: 4
#     Node 12, Type 0, BuildingBlock: KOZSID_clean_sbu_0, # of connection points: 4
#     Node 13, Type 0, BuildingBlock: KOZSID_clean_sbu_0, # of connection points: 4
#     Node 14, Type 0, BuildingBlock: KOZSID_clean_sbu_0, # of connection points: 4
#     Node 15, Type 0, BuildingBlock: KOZSID_clean_sbu_0, # of connection points: 4
#     Node 16, Type 0, BuildingBlock: KOZSID_clean_sbu_0, # of connection points: 4
#     Node 17, Type 0, BuildingBlock: KOZSID_clean_sbu_0, # of connection points: 4
#     Node 18, Type 0, BuildingBlock: KOZSID_clean_sbu_0, # of connection points: 4
#     Node 19, Type 0, BuildingBlock: KOZSID_clean_sbu_0, # of connection points: 4
#     Node 20, Type 0, BuildingBlock: KOZSID_clean_sbu_0, # of connection points: 4
#     Node 21, Type 0, BuildingBlock: KOZSID_clean_sbu_0, # of connection points: 4
#     Node 22, Type 0, BuildingBlock: KOZSID_clean_sbu_0, # of connection points: 4
#     Node 23, Type 0, BuildingBlock: KOZSID_clean_sbu_0, # of connection points: 4
#     Node 24, Type 0, BuildingBlock: KOZSID_clean_sbu_0, # of connection points: 4
#     Node 25, Type 0, BuildingBlock: KOZSID_clean_sbu_0, # of connection points: 4
#     Node 26, Type 0, BuildingBlock: KOZSID_clean_sbu_0, # of connection points: 4
#     Node 27, Type 0, BuildingBlock: KOZSID_clean_sbu_0, # of connection points: 4
#     Node 28, Type 0, BuildingBlock: KOZSID_clean_sbu_0, # of connection points: 4
#     Node 29, Type 0, BuildingBlock: KOZSID_clean_sbu_0, # of connection points: 4
#     Node 30, Type 0, BuildingBlock: KOZSID_clean_sbu_0, # of connection points: 4
#     Node 31, Type 0, BuildingBlock: KOZSID_clean_sbu_0, # of connection points: 4
#     Node 32, Type 0, BuildingBlock: KOZSID_clean_sbu_0, # of connection points: 4
#     Node 33, Type 0, BuildingBlock: KOZSID_clean_sbu_0, # of connection points: 4
#     Node 34, Type 0, BuildingBlock: KOZSID_clean_sbu_0, # of connection points: 4
#     Node 35, Type 0, BuildingBlock: KOZSID_clean_sbu_0, # of connection points: 4
#     Node 36, Type 0, BuildingBlock: KOZSID_clean_sbu_0, # of connection points: 4
#     Node 37, Type 0, BuildingBlock: KOZSID_clean_sbu_0, # of connection points: 4
#     Node 38, Type 0, BuildingBlock: KOZSID_clean_sbu_0, # of connection points: 4
#     Node 39, Type 0, BuildingBlock: KOZSID_clean_sbu_0, # of connection points: 4
#     Node 40, Type 0, BuildingBlock: KOZSID_clean_sbu_0, # of connection points: 4
#     Node 41, Type 0, BuildingBlock: KOZSID_clean_sbu_0, # of connection points: 4
#     Node 42, Type 0, BuildingBlock: KOZSID_clean_sbu_0, # of connection points: 4
#     Node 43, Type 0, BuildingBlock: KOZSID_clean_sbu_0, # of connection points: 4
#     Node 44, Type 0, BuildingBlock: KOZSID_clean_sbu_0, # of connection points: 4
#     Node 45, Type 0, BuildingBlock: KOZSID_clean_sbu_0, # of connection points: 4
#     Node 46, Type 0, BuildingBlock: KOZSID_clean_sbu_0, # of connection points: 4
#     Node 47, Type 0, BuildingBlock: KOZSID_clean_sbu_0, # of connection points: 4
#     Edge 48, Type (0, 0), BuildingBlock: EZIPEK_clean_linker_0, # of connection points: 2
#     Edge 49, Type (0, 0), BuildingBlock: EZIPEK_clean_linker_0, # of connection points: 2
#     Edge 50, Type (0, 0), BuildingBlock: EZIPEK_clean_linker_0, # of connection points: 2
#     Edge 51, Type (0, 0), BuildingBlock: EZIPEK_clean_linker_0, # of connection points: 2
#     Edge 52, Type (0, 0), BuildingBlock: EZIPEK_clean_linker_0, # of connection points: 2
#     Edge 53, Type (0, 0), BuildingBlock: EZIPEK_clean_linker_0, # of connection points: 2
#     Edge 54, Type (0, 0), BuildingBlock: EZIPEK_clean_linker_0, # of connection points: 2
#     Edge 55, Type (0, 0), BuildingBlock: EZIPEK_clean_linker_0, # of connection points: 2
#     Edge 56, Type (0, 0), BuildingBlock: EZIPEK_clean_linker_0, # of connection points: 2
#     Edge 57, Type (0, 0), BuildingBlock: EZIPEK_clean_linker_0, # of connection points: 2
#     Edge 58, Type (0, 0), BuildingBlock: EZIPEK_clean_linker_0, # of connection points: 2
#     Edge 59, Type (0, 0), BuildingBlock: EZIPEK_clean_linker_0, # of connection points: 2
#     Edge 60, Type (0, 0), BuildingBlock: EZIPEK_clean_linker_0, # of connection points: 2
#     Edge 61, Type (0, 0), BuildingBlock: EZIPEK_clean_linker_0, # of connection points: 2
#     Edge 62, Type (0, 0), BuildingBlock: EZIPEK_clean_linker_0, # of connection points: 2
#     Edge 63, Type (0, 0), BuildingBlock: EZIPEK_clean_linker_0, # of connection points: 2
#     Edge 64, Type (0, 0), BuildingBlock: EZIPEK_clean_linker_0, # of connection points: 2
#     Edge 65, Type (0, 0), BuildingBlock: EZIPEK_clean_linker_0, # of connection points: 2
#     Edge 66, Type (0, 0), BuildingBlock: EZIPEK_clean_linker_0, # of connection points: 2
#     Edge 67, Type (0, 0), BuildingBlock: EZIPEK_clean_linker_0, # of connection points: 2
#     Edge 68, Type (0, 0), BuildingBlock: EZIPEK_clean_linker_0, # of connection points: 2
#     Edge 69, Type (0, 0), BuildingBlock: EZIPEK_clean_linker_0, # of connection points: 2
#     Edge 70, Type (0, 0), BuildingBlock: EZIPEK_clean_linker_0, # of connection points: 2
#     Edge 71, Type (0, 0), BuildingBlock: EZIPEK_clean_linker_0, # of connection points: 2
#     Edge 72, Type (0, 0), BuildingBlock: EZIPEK_clean_linker_0, # of connection points: 2
#     Edge 73, Type (0, 0), BuildingBlock: EZIPEK_clean_linker_0, # of connection points: 2
#     Edge 74, Type (0, 0), BuildingBlock: EZIPEK_clean_linker_0, # of connection points: 2
#     Edge 75, Type (0, 0), BuildingBlock: EZIPEK_clean_linker_0, # of connection points: 2
#     Edge 76, Type (0, 0), BuildingBlock: EZIPEK_clean_linker_0, # of connection points: 2
#     Edge 77, Type (0, 0), BuildingBlock: EZIPEK_clean_linker_0, # of connection points: 2
#     Edge 78, Type (0, 0), BuildingBlock: EZIPEK_clean_linker_0, # of connection points: 2
#     Edge 79, Type (0, 0), BuildingBlock: EZIPEK_clean_linker_0, # of connection points: 2
#     Edge 80, Type (0, 0), BuildingBlock: EZIPEK_clean_linker_0, # of connection points: 2
#     Edge 81, Type (0, 0), BuildingBlock: EZIPEK_clean_linker_0, # of connection points: 2
#     Edge 82, Type (0, 0), BuildingBlock: EZIPEK_clean_linker_0, # of connection points: 2
#     Edge 83, Type (0, 0), BuildingBlock: EZIPEK_clean_linker_0, # of connection points: 2
#     Edge 84, Type (0, 0), BuildingBlock: EZIPEK_clean_linker_0, # of connection points: 2
#     Edge 85, Type (0, 0), BuildingBlock: EZIPEK_clean_linker_0, # of connection points: 2
#     Edge 86, Type (0, 0), BuildingBlock: EZIPEK_clean_linker_0, # of connection points: 2
#     Edge 87, Type (0, 0), BuildingBlock: EZIPEK_clean_linker_0, # of connection points: 2
#     Edge 88, Type (0, 0), BuildingBlock: EZIPEK_clean_linker_0, # of connection points: 2
#     Edge 89, Type (0, 0), BuildingBlock: EZIPEK_clean_linker_0, # of connection points: 2
#     Edge 90, Type (0, 0), BuildingBlock: EZIPEK_clean_linker_0, # of connection points: 2
#     Edge 91, Type (0, 0), BuildingBlock: EZIPEK_clean_linker_0, # of connection points: 2
#     Edge 92, Type (0, 0), BuildingBlock: EZIPEK_clean_linker_0, # of connection points: 2
#     Edge 93, Type (0, 0), BuildingBlock: EZIPEK_clean_linker_0, # of connection points: 2
#     Edge 94, Type (0, 0), BuildingBlock: EZIPEK_clean_linker_0, # of connection points: 2
#     Edge 95, Type (0, 0), BuildingBlock: EZIPEK_clean_linker_0, # of connection points: 2
#     Edge 96, Type (0, 0), BuildingBlock: EZIPEK_clean_linker_0, # of connection points: 2
#     Edge 97, Type (0, 0), BuildingBlock: EZIPEK_clean_linker_0, # of connection points: 2
#     Edge 98, Type (0, 0), BuildingBlock: EZIPEK_clean_linker_0, # of connection points: 2
#     Edge 99, Type (0, 0), BuildingBlock: EZIPEK_clean_linker_0, # of connection points: 2
#     Edge 100, Type (0, 0), BuildingBlock: EZIPEK_clean_linker_0, # of connection points: 2
#     Edge 101, Type (0, 0), BuildingBlock: EZIPEK_clean_linker_0, # of connection points: 2
#     Edge 102, Type (0, 0), BuildingBlock: EZIPEK_clean_linker_0, # of connection points: 2
#     Edge 103, Type (0, 0), BuildingBlock: EZIPEK_clean_linker_0, # of connection points: 2
#     Edge 104, Type (0, 0), BuildingBlock: EZIPEK_clean_linker_0, # of connection points: 2
#     Edge 105, Type (0, 0), BuildingBlock: EZIPEK_clean_linker_0, # of connection points: 2
#     Edge 106, Type (0, 0), BuildingBlock: EZIPEK_clean_linker_0, # of connection points: 2
#     Edge 107, Type (0, 0), BuildingBlock: EZIPEK_clean_linker_0, # of connection points: 2
#     Edge 108, Type (0, 0), BuildingBlock: EZIPEK_clean_linker_0, # of connection points: 2
#     Edge 109, Type (0, 0), BuildingBlock: EZIPEK_clean_linker_0, # of connection points: 2
#     Edge 110, Type (0, 0), BuildingBlock: EZIPEK_clean_linker_0, # of connection points: 2
#     Edge 111, Type (0, 0), BuildingBlock: EZIPEK_clean_linker_0, # of connection points: 2
#     Edge 112, Type (0, 0), BuildingBlock: EZIPEK_clean_linker_0, # of connection points: 2
#     Edge 113, Type (0, 0), BuildingBlock: EZIPEK_clean_linker_0, # of connection points: 2
#     Edge 114, Type (0, 0), BuildingBlock: EZIPEK_clean_linker_0, # of connection points: 2
#     Edge 115, Type (0, 0), BuildingBlock: EZIPEK_clean_linker_0, # of connection points: 2
#     Edge 116, Type (0, 0), BuildingBlock: EZIPEK_clean_linker_0, # of connection points: 2
#     Edge 117, Type (0, 0), BuildingBlock: EZIPEK_clean_linker_0, # of connection points: 2
#     Edge 118, Type (0, 0), BuildingBlock: EZIPEK_clean_linker_0, # of connection points: 2
#     Edge 119, Type (0, 0), BuildingBlock: EZIPEK_clean_linker_0, # of connection points: 2
#     Edge 120, Type (0, 0), BuildingBlock: EZIPEK_clean_linker_0, # of connection points: 2
#     Edge 121, Type (0, 0), BuildingBlock: EZIPEK_clean_linker_0, # of connection points: 2
#     Edge 122, Type (0, 0), BuildingBlock: EZIPEK_clean_linker_0, # of connection points: 2
#     Edge 123, Type (0, 0), BuildingBlock: EZIPEK_clean_linker_0, # of connection points: 2
#     Edge 124, Type (0, 0), BuildingBlock: EZIPEK_clean_linker_0, # of connection points: 2
#     Edge 125, Type (0, 0), BuildingBlock: EZIPEK_clean_linker_0, # of connection points: 2
#     Edge 126, Type (0, 0), BuildingBlock: EZIPEK_clean_linker_0, # of connection points: 2
#     Edge 127, Type (0, 0), BuildingBlock: EZIPEK_clean_linker_0, # of connection points: 2
#     Edge 128, Type (0, 0), BuildingBlock: EZIPEK_clean_linker_0, # of connection points: 2
#     Edge 129, Type (0, 0), BuildingBlock: EZIPEK_clean_linker_0, # of connection points: 2
#     Edge 130, Type (0, 0), BuildingBlock: EZIPEK_clean_linker_0, # of connection points: 2
#     Edge 131, Type (0, 0), BuildingBlock: EZIPEK_clean_linker_0, # of connection points: 2
#     Edge 132, Type (0, 0), BuildingBlock: EZIPEK_clean_linker_0, # of connection points: 2
#     Edge 133, Type (0, 0), BuildingBlock: EZIPEK_clean_linker_0, # of connection points: 2
#     Edge 134, Type (0, 0), BuildingBlock: EZIPEK_clean_linker_0, # of connection points: 2
#     Edge 135, Type (0, 0), BuildingBlock: EZIPEK_clean_linker_0, # of connection points: 2
#     Edge 136, Type (0, 0), BuildingBlock: EZIPEK_clean_linker_0, # of connection points: 2
#     Edge 137, Type (0, 0), BuildingBlock: EZIPEK_clean_linker_0, # of connection points: 2
#     Edge 138, Type (0, 0), BuildingBlock: EZIPEK_clean_linker_0, # of connection points: 2
#     Edge 139, Type (0, 0), BuildingBlock: EZIPEK_clean_linker_0, # of connection points: 2
#     Edge 140, Type (0, 0), BuildingBlock: EZIPEK_clean_linker_0, # of connection points: 2
#     Edge 141, Type (0, 0), BuildingBlock: EZIPEK_clean_linker_0, # of connection points: 2
#     Edge 142, Type (0, 0), BuildingBlock: EZIPEK_clean_linker_0, # of connection points: 2
#     Edge 143, Type (0, 0), BuildingBlock: EZIPEK_clean_linker_0, # of connection points: 2
# Relax obj value: 0.174
# Max RMSD: 0.270
# Mean RMSD: 0.231
data_MOF--net-ukp--node1-KOZSID_clean_sbu_0--edge1-EZIPEK_clean_linker_0
_symmetry_space_group_name_H-M    P1
_symmetry_Int_Tables_number       1
_symmetry_cell_setting            triclinic
loop_
_symmetry_equiv_pos_as_xyz
'x, y, z'
_cell_length_a     56.093117
_cell_length_b     61.899339
_cell_length_c     61.922709
_cell_angle_alpha  89.977994
_cell_angle_beta   89.966718
_cell_angle_gamma 90.056163
loop_
_atom_site_label
_atom_site_type_symbol
_atom_site_fract_x
_atom_site_fract_y
_atom_site_fract_z
_atom_type_partial_charge
C0 C 0.23109 0.29289 0.38686 0.0
C1 C 0.25459 0.29182 0.39384 0.0
C2 C 0.25609 0.30431 0.41204 0.0
C3 C 0.23358 0.31239 0.41513 0.0
N4 N 0.21797 0.3058 0.39998 0.0
Co5 Co 0.18369 0.31386 0.39881 0.0
N6 N 0.18899 0.33963 0.41728 0.0
C7 C 0.20786 0.34286 0.43029 0.0
C8 C 0.20672 0.36201 0.44142 0.0
C9 C 0.18572 0.37138 0.43512 0.0
C10 C 0.17519 0.35734 0.42046 0.0
N11 N 0.14939 0.32177 0.39874 0.0
C12 C 0.13864 0.34093 0.40351 0.0
C13 C 0.11417 0.33923 0.40091 0.0
C14 C 0.10964 0.31831 0.39439 0.0
C15 C 0.13153 0.3083 0.39337 0.0
N16 N 0.17915 0.28847 0.37976 0.0
C17 C 0.1581 0.27903 0.37552 0.0
C18 C 0.16034 0.26235 0.36095 0.0
C19 C 0.18428 0.26134 0.35585 0.0
C20 C 0.19546 0.27749 0.36756 0.0
N21 N 0.17714 0.29556 0.42481 0.0
C22 C 0.15824 0.26701 0.45678 0.0
C23 C 0.17383 0.25966 0.44056 0.0
C24 C 0.18331 0.27411 0.42507 0.0
C25 C 0.15362 0.28934 0.45727 0.0
C26 C 0.16301 0.30318 0.44124 0.0
N27 N 0.18868 0.33121 0.37212 0.0
C28 C 0.17346 0.33988 0.33655 0.0
C29 C 0.19607 0.3457 0.3293 0.0
C30 C 0.21456 0.34656 0.34471 0.0
C31 C 0.21037 0.33958 0.36618 0.0
C32 C 0.17036 0.3321 0.35744 0.0
H33 H 0.22502 0.33974 0.37748 0.0
H34 H 0.15318 0.32537 0.36072 0.0
H35 H 0.1948 0.26764 0.41268 0.0
H36 H 0.1578 0.31995 0.44161 0.0
C37 C 0.22771 0.32926 0.42915 0.0
C38 C 0.22172 0.28093 0.36823 0.0
C39 C 0.15117 0.36044 0.41155 0.0
C40 C 0.13669 0.28854 0.38291 0.0
H41 H 0.26921 0.28311 0.38651 0.0
H42 H 0.272 0.30796 0.42124 0.0
H43 H 0.21989 0.36868 0.45231 0.0
H44 H 0.17879 0.38663 0.44092 0.0
H45 H 0.10106 0.3518 0.40337 0.0
H46 H 0.09255 0.31161 0.38982 0.0
H47 H 0.14618 0.25256 0.35422 0.0
H48 H 0.1926 0.24997 0.34493 0.0
H49 H 0.17827 0.24267 0.43952 0.0
H50 H 0.14198 0.29598 0.46955 0.0
H51 H 0.15854 0.33941 0.32545 0.0
H52 H 0.23235 0.3514 0.33994 0.0
C53 C 0.04015 0.89018 0.64166 0.0
C54 C 0.05421 0.87288 0.63534 0.0
C55 C 0.05191 0.87112 0.61349 0.0
C56 C 0.0367 0.88741 0.60762 0.0
N57 N 0.02901 0.89952 0.62434 0.0
Co58 Co 0.00751 0.92547 0.62177 0.0
N59 N 1.00073 0.91996 0.59042 0.0
C60 C 0.00932 0.90334 0.57875 0.0
C61 C 0.99717 0.89988 0.55989 0.0
C62 C 0.98023 0.91569 0.5592 0.0
C63 C 0.98377 0.92864 0.57724 0.0
N64 N 0.98715 0.95197 0.61867 0.0
C65 C 0.97684 0.96123 0.60079 0.0
C66 C 0.9689 0.98193 0.6057 0.0
C67 C 0.97353 0.98545 0.62711 0.0
C68 C 0.98493 0.96722 0.6341 0.0
N69 N 0.01311 0.92957 0.6537 0.0
C70 C 1.00635 0.94708 0.66505 0.0
C71 C 0.01264 0.94611 0.68646 0.0
C72 C 0.02436 0.92682 0.68887 0.0
C73 C 0.02471 0.91706 0.66874 0.0
N74 N 0.03521 0.94474 0.61473 0.0
C75 C 0.05347 0.9871 0.61008 0.0
C76 C 0.05632 0.97562 0.62943 0.0
C77 C 0.0482 0.95414 0.63103 0.0
C78 C 0.04528 0.97545 0.59214 0.0
C79 C 0.03634 0.9544 0.59479 0.0
N80 N 0.9788 0.90805 0.62872 0.0
C81 C 0.93848 0.90883 0.64249 0.0
C82 C 0.93245 0.8905 0.63059 0.0
C83 C 0.95061 0.87996 0.61913 0.0
C84 C 0.97373 0.88889 0.61857 0.0
C85 C 0.96159 0.91713 0.64152 0.0
H86 H 0.98707 0.88066 0.60926 0.0
H87 H 0.96495 0.93161 0.65043 0.0
H88 H 0.05087 0.94607 0.64621 0.0
H89 H 0.0286 0.94701 0.58083 0.0
C90 C 0.02674 0.88978 0.58719 0.0
C91 C 0.03827 0.89698 0.66436 0.0
C92 C 0.97451 0.95098 0.57899 0.0
C93 C 0.99423 0.96402 0.65486 0.0
H94 H 0.06484 0.86244 0.64552 0.0
H95 H 0.05974 0.85891 0.60318 0.0
H96 H 0.99994 0.88709 0.54824 0.0
H97 H 0.96758 0.91806 0.54624 0.0
H98 H 0.96163 0.99392 0.59491 0.0
H99 H 0.97016 1.00009 0.63615 0.0
H100 H 0.00938 0.95812 0.6988 0.0
H101 H 0.03244 0.92091 0.7036 0.0
H102 H 0.06372 0.98347 0.64355 0.0
H103 H 0.04379 0.98325 0.57653 0.0
H104 H 0.92514 0.91712 0.65205 0.0
H105 H 0.94682 0.86529 0.61023 0.0
C106 C 0.28172 0.72582 0.8897 0.0
C107 C 0.25819 0.72557 0.89672 0.0
C108 C 0.25756 0.71325 0.9151 0.0
C109 C 0.28055 0.70639 0.91819 0.0
N110 N 0.2956 0.71362 0.90287 0.0
Co111 Co 0.32977 0.70585 0.90022 0.0
N112 N 0.32561 0.67977 0.91851 0.0
C113 C 0.30753 0.67635 0.93239 0.0
C114 C 0.3094 0.65709 0.94325 0.0
C115 C 0.33003 0.64786 0.93584 0.0
C116 C 0.33964 0.66209 0.92081 0.0
N117 N 0.36385 0.69779 0.89768 0.0
C118 C 0.37482 0.67851 0.90146 0.0
C119 C 0.39907 0.68019 0.89749 0.0
C120 C 0.40328 0.70124 0.89125 0.0
C121 C 0.38143 0.71133 0.89171 0.0
N122 N 0.33339 0.73192 0.88194 0.0
C123 C 0.35412 0.74197 0.87773 0.0
C124 C 0.35112 0.75935 0.86412 0.0
C125 C 0.32703 0.76015 0.85964 0.0
C126 C 0.31658 0.74314 0.87071 0.0
N127 N 0.33776 0.72351 0.92621 0.0
C128 C 0.35753 0.75162 0.95797 0.0
C129 C 0.34058 0.75894 0.94291 0.0
C130 C 0.33066 0.74467 0.92756 0.0
C131 C 0.36314 0.72947 0.95746 0.0
C132 C 0.35333 0.71585 0.94148 0.0
N133 N 0.32302 0.68908 0.87383 0.0
C134 C 0.33197 0.68407 0.83604 0.0
C135 C 0.31245 0.67032 0.83343 0.0
C136 C 0.29894 0.66513 0.85195 0.0
C137 C 0.30428 0.67502 0.87196 0.0
C138 C 0.33716 0.6928 0.85619 0.0
H139 H 0.29309 0.67166 0.88577 0.0
H140 H 0.35236 0.7033 0.85716 0.0
H141 H 0.31802 0.75109 0.9161 0.0
H142 H 0.35921 0.69928 0.94096 0.0
C143 C 0.28736 0.68959 0.93198 0.0
C144 C 0.2906 0.73863 0.87127 0.0
C145 C 0.36296 0.65906 0.91046 0.0
C146 C 0.37592 0.73192 0.88319 0.0
H147 H 0.24291 0.73319 0.88933 0.0
H148 H 0.24191 0.70873 0.92429 0.0
H149 H 0.29683 0.65018 0.95459 0.0
H150 H 0.33727 0.63253 0.94106 0.0
H151 H 0.4123 0.66759 0.89917 0.0
H152 H 0.42015 0.70811 0.88624 0.0
H153 H 0.36488 0.76959 0.85736 0.0
H154 H 0.31818 0.77179 0.84936 0.0
H155 H 0.33535 0.77578 0.94271 0.0
H156 H 0.37583 0.72287 0.96886 0.0
H157 H 0.34311 0.68837 0.82239 0.0
H158 H 0.28396 0.65416 0.85078 0.0
C159 C 0.47431 0.12759 0.14071 0.0
C160 C 0.45877 0.14379 0.13431 0.0
C161 C 0.45953 0.14447 0.11232 0.0
C162 C 0.47543 0.12873 0.10648 0.0
N163 N 0.4851 0.11804 0.12331 0.0
Co164 Co 0.50839 0.09338 0.12091 0.0
N165 N 0.51253 0.09746 0.08885 0.0
C166 C 0.49985 0.11113 0.0764 0.0
C167 C 0.50614 0.11074 0.05502 0.0
C168 C 0.52376 0.09563 0.05361 0.0
C169 C 0.52725 0.08761 0.07432 0.0
N170 N 0.53096 0.06842 0.11835 0.0
C171 C 0.5433 0.06042 0.10104 0.0
C172 C 0.55595 0.04205 0.1067 0.0
C173 C 0.55109 0.03811 0.12804 0.0
C174 C 0.53576 0.05423 0.13427 0.0
N175 N 0.50473 0.09037 0.15323 0.0
C176 C 0.51307 0.07363 0.16495 0.0
C177 C 0.50741 0.07499 0.18649 0.0
C178 C 0.49433 0.09357 0.18859 0.0
C179 C 0.49263 0.10261 0.16818 0.0
N180 N 0.48195 0.07205 0.11614 0.0
C181 C 0.46532 0.02905 0.11444 0.0
C182 C 0.46274 0.04137 0.13325 0.0
C183 C 0.47007 0.06313 0.13341 0.0
C184 C 0.47244 0.0398 0.09569 0.0
C185 C 0.48053 0.06118 0.09682 0.0
N186 N 0.53604 0.11291 0.12559 0.0
C187 C 0.57617 0.11569 0.13963 0.0
C188 C 0.58151 0.13268 0.12564 0.0
C189 C 0.56295 0.14083 0.11273 0.0
C190 C 0.54034 0.13071 0.11295 0.0
C191 C 0.55356 0.1063 0.13951 0.0
H192 H 0.52677 0.13678 0.10228 0.0
H193 H 0.55099 0.09283 0.15004 0.0
H194 H 0.4676 0.07191 0.14818 0.0
H195 H 0.48715 0.06783 0.08205 0.0
C196 C 0.4828 0.12462 0.08545 0.0
C197 C 0.47726 0.12153 0.16353 0.0
C198 C 0.54249 0.06886 0.07872 0.0
C199 C 0.52664 0.05734 0.15514 0.0
H200 H 0.44785 0.15398 0.1445 0.0
H201 H 0.44982 0.15534 0.10183 0.0
H202 H 0.49866 0.12019 0.04198 0.0
H203 H 0.53245 0.09057 0.03885 0.0
H204 H 0.56711 0.03227 0.09633 0.0
H205 H 0.55788 0.02499 0.13781 0.0
H206 H 0.51203 0.06369 0.19915 0.0
H207 H 0.48626 0.09947 0.20334 0.0
H208 H 0.45611 0.03405 0.14796 0.0
H209 H 0.47349 0.0312 0.08048 0.0
H210 H 0.58973 0.10918 0.15025 0.0
H211 H 0.56613 0.1544 0.10206 0.0
C212 C 0.23338 0.7281 0.1276 0.0
C213 C 0.25594 0.72944 0.11849 0.0
C214 C 0.25571 0.71644 0.10056 0.0
C215 C 0.2331 0.70793 0.09972 0.0
N216 N 0.21911 0.71474 0.116 0.0
Co217 Co 0.18511 0.70685 0.12017 0.0
N218 N 0.18831 0.68077 0.10171 0.0
C219 C 0.20573 0.67738 0.08714 0.0
C220 C 0.20334 0.65814 0.07635 0.0
C221 C 0.18306 0.64889 0.08453 0.0
C222 C 0.17415 0.66307 0.09992 0.0
N223 N 0.15119 0.69871 0.12413 0.0
C224 C 0.13997 0.67943 0.12068 0.0
C225 C 0.11597 0.68107 0.12575 0.0
C226 C 0.11216 0.70206 0.13237 0.0
C227 C 0.13399 0.71216 0.13103 0.0
N228 N 0.18254 0.73302 0.13859 0.0
C229 C 0.16201 0.74282 0.14403 0.0
C230 C 0.16567 0.75962 0.15821 0.0
C231 C 0.18994 0.7604 0.16171 0.0
C232 C 0.19993 0.74406 0.14938 0.0
N233 N 0.17589 0.72453 0.09447 0.0
C234 C 0.15557 0.75235 0.06266 0.0
C235 C 0.17289 0.75978 0.07733 0.0
C236 C 0.18303 0.74567 0.09272 0.0
C237 C 0.14968 0.73027 0.06371 0.0
C238 C 0.15976 0.71681 0.07971 0.0
N239 N 0.19297 0.68994 0.14637 0.0
C240 C 0.18569 0.68488 0.1845 0.0
C241 C 0.20348 0.66923 0.18598 0.0
C242 C 0.21522 0.66326 0.16669 0.0
C243 C 0.21014 0.67424 0.14713 0.0
C244 C 0.18032 0.69441 0.16476 0.0
H245 H 0.22009 0.67018 0.13276 0.0
H246 H 0.1659 0.70574 0.16468 0.0
H247 H 0.19601 0.75219 0.10382 0.0
H248 H 0.15375 0.70027 0.08058 0.0
C249 C 0.22573 0.69091 0.08644 0.0
C250 C 0.22595 0.74028 0.14681 0.0
C251 C 0.15124 0.65999 0.11105 0.0
C252 C 0.14 0.73266 0.1395 0.0
H253 H 0.27097 0.73878 0.12425 0.0
H254 H 0.27056 0.7129 0.08997 0.0
H255 H 0.21529 0.65132 0.06444 0.0
H256 H 0.17553 0.63359 0.07952 0.0
H257 H 0.10263 0.66849 0.12457 0.0
H258 H 0.09561 0.70887 0.13822 0.0
H259 H 0.15222 0.76941 0.16604 0.0
H260 H 0.19922 0.77168 0.17207 0.0
H261 H 0.17832 0.77658 0.07715 0.0
H262 H 0.13666 0.72358 0.05267 0.0
H263 H 0.17574 0.68978 0.19868 0.0
H264 H 0.22864 0.6507 0.16685 0.0
C265 C 0.4721 0.89427 0.37903 0.0
C266 C 0.45417 0.87996 0.38489 0.0
C267 C 0.45435 0.87882 0.40686 0.0
C268 C 0.47226 0.89245 0.41324 0.0
N269 N 0.48352 0.90248 0.39679 0.0
Co270 Co 0.5114 0.92281 0.40002 0.0
N271 N 0.50847 0.92365 0.43246 0.0
C272 C 0.49415 0.91085 0.4444 0.0
C273 C 0.49586 0.91431 0.46619 0.0
C274 C 0.51253 0.93021 0.4684 0.0
C275 C 0.52002 0.93564 0.44772 0.0
N276 N 0.53934 0.94263 0.40341 0.0
C277 C 0.54854 0.9528 0.42121 0.0
C278 C 0.56884 0.96442 0.41584 0.0
C279 C 0.57272 0.9612 0.3942 0.0
C280 C 0.55459 0.94789 0.38745 0.0
N281 N 0.51339 0.92202 0.36743 0.0
C282 C 0.53182 0.92991 0.35585 0.0
C283 C 0.52945 0.92657 0.33403 0.0
C284 C 0.50842 0.91549 0.33157 0.0
C285 C 0.49902 0.91258 0.35207 0.0
N286 N 0.49051 0.94878 0.39807 0.0
C287 C 0.47306 0.99145 0.40229 0.0
C288 C 0.48792 0.98576 0.38522 0.0
C289 C 0.49637 0.9646 0.38343 0.0
C290 C 0.46537 0.97494 0.41626 0.0
C291 C 0.47393 0.95364 0.41361 0.0
N292 N 0.53448 0.8981 0.40193 0.0
C293 C 0.56653 0.88158 0.38161 0.0
C294 C 0.58149 0.88163 0.39975 0.0
C295 C 0.57086 0.88641 0.41966 0.0
C296 C 0.5477 0.89498 0.42037 0.0
C297 C 0.54276 0.88845 0.38343 0.0
H298 H 0.54171 0.90026 0.43591 0.0
H299 H 0.53199 0.88745 0.36917 0.0
H300 H 0.5091 0.96188 0.37091 0.0
H301 H 0.46812 0.94153 0.42495 0.0
C302 C 0.47826 0.89679 0.43455 0.0
C303 C 0.47801 0.89855 0.35626 0.0
C304 C 0.53961 0.95085 0.44368 0.0
C305 C 0.55033 0.94121 0.36613 0.0
H306 H 0.44237 0.871 0.37435 0.0
H307 H 0.44274 0.8692 0.41702 0.0
H308 H 0.48608 0.90628 0.47896 0.0
H309 H 0.5188 0.93675 0.48358 0.0
H310 H 0.5799 0.97391 0.42656 0.0
H311 H 0.58698 0.96792 0.38452 0.0
H312 H 0.54165 0.93145 0.32138 0.0
H313 H 0.50123 0.90949 0.31651 0.0
H314 H 0.49424 0.99795 0.37403 0.0
H315 H 0.45359 0.97864 0.42962 0.0
H316 H 0.57328 0.87699 0.36588 0.0
H317 H 0.58112 0.88543 0.43445 0.0
C318 C 0.28445 0.29269 0.62978 0.0
C319 C 0.26155 0.29136 0.62141 0.0
C320 C 0.26115 0.30418 0.60337 0.0
C321 C 0.28373 0.31261 0.60174 0.0
N322 N 0.29832 0.30593 0.61764 0.0
Co323 Co 0.33249 0.31387 0.62066 0.0
N324 N 0.3285 0.33982 0.60216 0.0
C325 C 0.3105 0.34318 0.58819 0.0
C326 C 0.31247 0.36238 0.57725 0.0
C327 C 0.33308 0.37165 0.5847 0.0
C328 C 0.34259 0.35751 0.59982 0.0
N329 N 0.36666 0.32185 0.62301 0.0
C330 C 0.37776 0.34106 0.61905 0.0
C331 C 0.40198 0.33936 0.62308 0.0
C332 C 0.40604 0.31837 0.6296 0.0
C333 C 0.38413 0.30833 0.62922 0.0
N334 N 0.33575 0.28812 0.6395 0.0
C335 C 0.35646 0.27849 0.64458 0.0
C336 C 0.35328 0.26174 0.65894 0.0
C337 C 0.32909 0.26085 0.66297 0.0
C338 C 0.3187 0.27711 0.65081 0.0
N339 N 0.34059 0.29591 0.59487 0.0
C340 C 0.36011 0.26776 0.56301 0.0
C341 C 0.34351 0.26037 0.57837 0.0
C342 C 0.33375 0.27465 0.59382 0.0
C343 C 0.36561 0.28994 0.56335 0.0
C344 C 0.3559 0.30358 0.57936 0.0
N345 N 0.32578 0.33093 0.647 0.0
C346 C 0.33661 0.33749 0.68423 0.0
C347 C 0.31487 0.34753 0.68821 0.0
C348 C 0.29939 0.3509 0.67061 0.0
C349 C 0.30529 0.34257 0.64999 0.0
C350 C 0.34154 0.32918 0.66384 0.0
H351 H 0.29279 0.34447 0.63686 0.0
H352 H 0.35777 0.3202 0.66229 0.0
H353 H 0.32138 0.26817 0.60551 0.0
H354 H 0.36166 0.32021 0.57968 0.0
C355 C 0.29055 0.3296 0.58817 0.0
C356 C 0.29257 0.28063 0.64879 0.0
C357 C 0.36597 0.36054 0.61008 0.0
C358 C 0.37833 0.28821 0.63869 0.0
H359 H 0.2467 0.28214 0.62772 0.0
H360 H 0.24591 0.3077 0.59325 0.0
H361 H 0.30007 0.36915 0.56571 0.0
H362 H 0.34044 0.38691 0.57935 0.0
H363 H 0.41527 0.35193 0.62141 0.0
H364 H 0.4228 0.31158 0.63494 0.0
H365 H 0.36696 0.2519 0.66634 0.0
H366 H 0.3201 0.24949 0.67347 0.0
H367 H 0.33842 0.2435 0.57873 0.0
H368 H 0.37807 0.29657 0.55174 0.0
H369 H 0.34915 0.3348 0.69726 0.0
H370 H 0.28244 0.3589 0.67301 0.0
C371 C 0.04396 0.12566 0.8785 0.0
C372 C 0.0619 0.13965 0.88502 0.0
C373 C 0.06122 0.14025 0.90702 0.0
C374 C 0.04301 0.12664 0.91276 0.0
N375 N 0.03205 0.11714 0.89586 0.0
Co376 Co 1.0039 0.097 0.89806 0.0
N377 N 1.00608 0.09511 0.93048 0.0
C378 C 0.02079 0.10689 0.94302 0.0
C379 C 0.01927 0.10202 0.96457 0.0
C380 C 1.00229 0.08627 0.96596 0.0
C381 C 0.99422 0.08252 0.94511 0.0
N382 N 0.9754 0.07754 0.90041 0.0
C383 C 0.96524 0.06742 0.91781 0.0
C384 C 0.94486 0.05628 0.91176 0.0
C385 C 0.94198 0.05961 0.89003 0.0
C386 C 0.96058 0.07272 0.88398 0.0
N387 N 1.00284 0.09832 0.86548 0.0
C388 C 0.98487 0.09054 0.85329 0.0
C389 C 0.98788 0.09432 0.8316 0.0
C390 C 0.0089 0.10552 0.82987 0.0
C391 C 0.01763 0.10806 0.85064 0.0
N392 N 0.0246 0.07112 0.89616 0.0
C393 C 0.04305 0.02916 0.90219 0.0
C394 C 0.02565 0.03325 0.88662 0.0
C395 C 0.01711 0.0542 0.88359 0.0
C396 C 0.05287 0.04697 0.91316 0.0
C397 C 0.04334 0.06781 0.90995 0.0
N398 N 0.98126 0.12192 0.90002 0.0
C399 C 0.94983 0.13917 0.87958 0.0
C400 C 0.93431 0.13758 0.89722 0.0
C401 C 0.94414 0.13212 0.91722 0.0
C402 C 0.96764 0.12449 0.91829 0.0
C403 C 0.97354 0.13214 0.88163 0.0
H404 H 0.97366 0.11924 0.93381 0.0
H405 H 0.9847 0.13344 0.86761 0.0
H406 H 1.00316 0.05615 0.87201 0.0
H407 H 0.05027 0.08091 0.91952 0.0
C408 C 0.03683 0.12137 0.93387 0.0
C409 C 0.03852 0.12193 0.85555 0.0
C410 C 0.97361 0.06859 0.94043 0.0
C411 C 0.96574 0.0795 0.86287 0.0
H412 H 0.07408 0.14867 0.87488 0.0
H413 H 0.07281 0.14939 0.91761 0.0
H414 H 0.02942 0.10898 0.9777 0.0
H415 H 0.99613 0.07878 0.98074 0.0
H416 H 0.93316 0.04692 0.92205 0.0
H417 H 0.92795 0.05324 0.87986 0.0
H418 H 0.97604 0.08973 0.81859 0.0
H419 H 0.01652 0.11182 0.81509 0.0
H420 H 0.0179 0.02011 0.87744 0.0
H421 H 0.06679 0.04459 0.92502 0.0
H422 H 0.94338 0.1446 0.86402 0.0
H423 H 0.93311 0.1319 0.93158 0.0
C424 C 0.35858 0.25041 0.24556 0.0
C425 C 0.37376 0.26626 0.23752 0.0
C426 C 0.39528 0.26361 0.24773 0.0
C427 C 0.39226 0.24609 0.26105 0.0
N428 N 0.37024 0.23758 0.25982 0.0
Co429 Co 0.36072 0.2097 0.2728 0.0
N430 N 0.3857 0.21179 0.29532 0.0
C431 C 0.40538 0.22416 0.29403 0.0
C432 C 0.41986 0.22216 0.3118 0.0
C433 C 0.40865 0.20747 0.32498 0.0
C434 C 0.3879 0.20127 0.31445 0.0
N435 N 0.35193 0.18147 0.28567 0.0
C436 C 0.35691 0.17319 0.30555 0.0
C437 C 0.34679 0.15288 0.30783 0.0
C438 C 0.33525 0.14842 0.2887 0.0
C439 C 0.33895 0.16618 0.27574 0.0
N440 N 0.33537 0.20861 0.25048 0.0
C441 C 0.32245 0.19094 0.24557 0.0
C442 C 0.30191 0.1962 0.23471 0.0
C443 C 0.30213 0.21833 0.23261 0.0
C444 C 0.32341 0.22565 0.24143 0.0
N445 N 0.38375 0.19426 0.25304 0.0
C446 C 0.41506 0.17053 0.22493 0.0
C447 C 0.39965 0.1867 0.21706 0.0
C448 C 0.38432 0.19828 0.23122 0.0
C449 C 0.41441 0.16678 0.24734 0.0
C450 C 0.3988 0.17861 0.26094 0.0
N451 N 0.3371 0.2241 0.29216 0.0
C452 C 0.29702 0.22385 0.30706 0.0
C453 C 0.30055 0.24363 0.31733 0.0
C454 C 0.32313 0.25349 0.31493 0.0
C455 C 0.34117 0.24344 0.3023 0.0
C456 C 0.31522 0.21448 0.29481 0.0
H457 H 0.35824 0.25136 0.30054 0.0
H458 H 0.31113 0.19939 0.28721 0.0
H459 H 0.37272 0.21041 0.22439 0.0
H460 H 0.39879 0.17482 0.27794 0.0
C461 C 0.40808 0.23913 0.27716 0.0
C462 C 0.33309 0.2483 0.23986 0.0
C463 C 0.3722 0.18373 0.32194 0.0
C464 C 0.32599 0.17147 0.25699 0.0
H465 H 0.36962 0.27868 0.22581 0.0
H466 H 0.41095 0.27371 0.24615 0.0
H467 H 0.43637 0.23064 0.315 0.0
H468 H 0.41528 0.2016 0.3403 0.0
H469 H 0.34756 0.14248 0.32186 0.0
H470 H 0.32432 0.13444 0.28519 0.0
H471 H 0.28729 0.1855 0.23071 0.0
H472 H 0.28774 0.2278 0.22597 0.0
H473 H 0.39934 0.19033 0.19996 0.0
H474 H 0.4258 0.15454 0.25435 0.0
H475 H 0.28002 0.21561 0.30839 0.0
H476 H 0.32674 0.26885 0.32262 0.0
C477 C 0.03596 0.13757 0.54443 0.0
C478 C 0.01253 0.14484 0.54478 0.0
C479 C 0.0122 0.16306 0.55733 0.0
C480 C 0.03526 0.16584 0.56415 0.0
N481 N 0.05009 0.15049 0.55667 0.0
Co482 Co 0.08444 0.14784 0.56386 0.0
N483 N 0.08077 0.16586 0.59017 0.0
C484 C 0.06277 0.17971 0.59395 0.0
C485 C 0.06501 0.19049 0.6132 0.0
C486 C 0.08583 0.18306 0.62205 0.0
C487 C 0.09516 0.16811 0.60763 0.0
N488 N 0.11869 0.14536 0.57138 0.0
C489 C 0.13003 0.14897 0.59053 0.0
C490 C 0.15424 0.14504 0.58842 0.0
C491 C 0.15802 0.139 0.56724 0.0
C492 C 0.13597 0.13954 0.5575 0.0
N493 N 0.08745 0.12982 0.53756 0.0
C494 C 0.10798 0.12571 0.52717 0.0
C495 C 0.10461 0.11217 0.50978 0.0
C496 C 0.0805 0.10766 0.50933 0.0
C497 C 0.07038 0.11862 0.52655 0.0
N498 N 0.09207 0.17409 0.54629 0.0
C499 C 0.11153 0.20604 0.51805 0.0
C500 C 0.0942 0.19119 0.51096 0.0
C501 C 0.0845 0.17571 0.52528 0.0
C502 C 0.11771 0.20521 0.54005 0.0
C503 C 0.108 0.1892 0.55375 0.0
N504 N 0.0782 0.12114 0.58042 0.0
C505 C 0.08758 0.08329 0.58445 0.0
C506 C 0.06811 0.08008 0.59811 0.0
C507 C 0.05462 0.09841 0.60401 0.0
C508 C 0.05967 0.11876 0.59462 0.0
C509 C 0.09252 0.10372 0.57625 0.0
H510 H 0.04838 0.13239 0.59838 0.0
H511 H 0.10759 0.10505 0.56567 0.0
H512 H 0.07164 0.16435 0.519 0.0
H513 H 0.11427 0.18849 0.5702 0.0
C514 C 0.04239 0.17946 0.58095 0.0
C515 C 0.04443 0.11918 0.53143 0.0
C516 C 0.11856 0.15781 0.61028 0.0
C517 C 0.12998 0.13115 0.53693 0.0
H518 H 0.99717 0.13772 0.53699 0.0
H519 H 0.9967 0.17238 0.56195 0.0
H520 H 0.05262 0.20183 0.62032 0.0
H521 H 0.09339 0.18827 0.63725 0.0
H522 H 0.16773 0.14661 0.60081 0.0
H523 H 0.17474 0.13406 0.56006 0.0
H524 H 0.11817 0.10548 0.4993 0.0
H525 H 0.07142 0.09744 0.49779 0.0
H526 H 0.08853 0.19122 0.49425 0.0
H527 H 0.13072 0.21643 0.54649 0.0
H528 H 0.09873 0.06984 0.57963 0.0
H529 H 0.03967 0.0968 0.61497 0.0
C530 C 0.15214 0.76214 0.75107 0.0
C531 C 0.13847 0.74373 0.74791 0.0
C532 C 0.11758 0.74683 0.75901 0.0
C533 C 0.11964 0.76688 0.76832 0.0
N534 N 0.14051 0.77659 0.76377 0.0
Co535 Co 0.15055 0.80555 0.77419 0.0
N536 N 0.12725 0.80485 0.79832 0.0
C537 C 0.10788 0.79202 0.79933 0.0
C538 C 0.0946 0.79523 0.81767 0.0
C539 C 0.10624 0.81117 0.82885 0.0
C540 C 0.12606 0.81684 0.81665 0.0
N541 N 0.1603 0.83448 0.78478 0.0
C542 C 0.15665 0.84406 0.80435 0.0
C543 C 0.16687 0.86444 0.8047 0.0
C544 C 0.17701 0.86767 0.78466 0.0
C545 C 0.17248 0.84913 0.77311 0.0
N546 N 0.17382 0.80562 0.75008 0.0
C547 C 0.18467 0.82327 0.74213 0.0
C548 C 0.20073 0.8182 0.7261 0.0
C549 C 0.1998 0.79603 0.72394 0.0
C550 C 0.18321 0.78868 0.73881 0.0
N551 N 0.12616 0.81992 0.75498 0.0
C552 C 0.09602 0.84456 0.72659 0.0
C553 C 0.10946 0.82681 0.71916 0.0
C554 C 0.12417 0.81476 0.73347 0.0
C555 C 0.09762 0.84913 0.7488 0.0
C556 C 0.11259 0.8368 0.76255 0.0
N557 N 0.17558 0.79234 0.79283 0.0
C558 C 0.21665 0.79312 0.80525 0.0
C559 C 0.21335 0.77457 0.81773 0.0
C560 C 0.19045 0.76513 0.8177 0.0
C561 C 0.17179 0.77429 0.80522 0.0
C562 C 0.19785 0.80155 0.79297 0.0
H563 H 0.15442 0.76675 0.80545 0.0
H564 H 0.20161 0.81565 0.78344 0.0
H565 H 0.13444 0.80154 0.72692 0.0
H566 H 0.11361 0.84141 0.77932 0.0
C567 C 0.10486 0.77511 0.78456 0.0
C568 C 0.17551 0.76581 0.74099 0.0
C569 C 0.14207 0.83484 0.82212 0.0
C570 C 0.18282 0.84318 0.75316 0.0
H571 H 0.14314 0.72952 0.73865 0.0
H572 H 0.10316 0.73536 0.76093 0.0
H573 H 0.07876 0.78656 0.82267 0.0
H574 H 0.1006 0.81802 0.84409 0.0
H575 H 0.16683 0.87581 0.81798 0.0
H576 H 0.18725 0.88156 0.77948 0.0
H577 H 0.21261 0.82915 0.7177 0.0
H578 H 0.21011 0.78637 0.71277 0.0
H579 H 0.10887 0.82241 0.70225 0.0
H580 H 0.08765 0.86251 0.75551 0.0
H581 H 0.23387 0.80105 0.80484 0.0
H582 H 0.18699 0.75083 0.82727 0.0
C583 C 0.48183 0.88026 0.04287 0.0
C584 C 0.50503 0.87248 0.04249 0.0
C585 C 0.50529 0.85423 0.05506 0.0
C586 C 0.48237 0.85193 0.06252 0.0
N587 N 0.46773 0.86759 0.05542 0.0
Co588 Co 0.43364 0.87088 0.06323 0.0
N589 N 0.43739 0.85263 0.08935 0.0
C590 C 0.45515 0.83844 0.09279 0.0
C591 C 0.45301 0.82767 0.11208 0.0
C592 C 0.43253 0.83548 0.12129 0.0
C593 C 0.42329 0.85064 0.10705 0.0
N594 N 0.39963 0.87409 0.07131 0.0
C595 C 0.38859 0.87063 0.09063 0.0
C596 C 0.36446 0.87512 0.089 0.0
C597 C 0.36039 0.88137 0.06794 0.0
C598 C 0.38221 0.88041 0.0578 0.0
N599 N 0.43046 0.88911 0.03705 0.0
C600 C 0.40983 0.89369 0.02702 0.0
C601 C 0.41316 0.90723 1.00962 0.0
C602 C 0.43736 0.91125 1.00878 0.0
C603 C 0.44753 0.9 0.02577 0.0
N604 N 0.42507 0.84492 0.04573 0.0
C605 C 0.4051 0.81284 0.01809 0.0
C606 C 0.42217 0.82772 0.01055 0.0
C607 C 0.43217 0.84324 0.02459 0.0
C608 C 0.39938 0.81376 0.04019 0.0
C609 C 0.40928 0.82989 0.05357 0.0
N610 N 0.44099 0.89721 0.07991 0.0
C611 C 0.43299 0.93516 0.08498 0.0
C612 C 0.45201 0.93721 0.09936 0.0
C613 C 0.46474 0.91833 0.10477 0.0
C614 C 0.45927 0.89854 0.09449 0.0
C615 C 0.42751 0.9152 0.07594 0.0
H616 H 0.46992 0.88445 0.09806 0.0
H617 H 0.41257 0.91463 0.06514 0.0
H618 H 0.44495 0.85453 0.01803 0.0
H619 H 0.40334 0.83069 0.07012 0.0
C620 C 0.47529 0.83836 0.07944 0.0
C621 C 0.47346 0.89891 0.03023 0.0
C622 C 0.40022 0.86146 0.11008 0.0
C623 C 0.38792 0.88873 0.03716 0.0
H624 H 0.52022 0.87928 0.03413 0.0
H625 H 0.52066 0.84453 0.0592 0.0
H626 H 0.46528 0.81609 0.11899 0.0
H627 H 0.42514 0.83042 0.13662 0.0
H628 H 0.3512 0.87378 0.10163 0.0
H629 H 0.34366 0.88673 0.0611 0.0
H630 H 0.39956 0.91425 0.99942 0.0
H631 H 0.44646 0.92136 0.99712 0.0
H632 H 0.42746 0.82763 0.99373 0.0
H633 H 0.38657 0.80253 0.04695 0.0
H634 H 0.42239 0.94909 0.0805 0.0
H635 H 0.47926 0.91903 0.11627 0.0
C636 C 0.3633 0.76479 0.26782 0.0
C637 C 0.37694 0.74629 0.27052 0.0
C638 C 0.39811 0.74985 0.25998 0.0
C639 C 0.39623 0.7702 0.2513 0.0
N640 N 0.3752 0.77964 0.25574 0.0
Co641 Co 0.36489 0.80848 0.24532 0.0
N642 N 0.3887 0.80836 0.22163 0.0
C643 C 0.40844 0.79605 0.22097 0.0
C644 C 0.42193 0.79959 0.20279 0.0
C645 C 0.40996 0.81517 0.19138 0.0
C646 C 0.38975 0.82027 0.20327 0.0
N647 N 0.35459 0.83715 0.23461 0.0
C648 C 0.35799 0.84655 0.21494 0.0
C649 C 0.34706 0.8666 0.21424 0.0
C650 C 0.33669 0.86978 0.23419 0.0
C651 C 0.34179 0.85152 0.24601 0.0
N652 N 0.34125 0.80811 0.26912 0.0
C653 C 0.33011 0.8256 0.27707 0.0
C654 C 0.31405 0.82026 0.29304 0.0
C655 C 0.31531 0.79811 0.29515 0.0
C656 C 0.33203 0.79104 0.28029 0.0
N657 N 0.38871 0.8232 0.26491 0.0
C658 C 0.41908 0.84756 0.29346 0.0
C659 C 0.40548 0.82981 0.30077 0.0
C660 C 0.39068 0.81789 0.28639 0.0
C661 C 0.41737 0.85233 0.27128 0.0
C662 C 0.40223 0.84021 0.25749 0.0
N663 N 0.34068 0.79487 0.22609 0.0
C664 C 0.29966 0.79367 0.21356 0.0
C665 C 0.30473 0.77698 0.19904 0.0
C666 C 0.32849 0.76954 0.19825 0.0
C667 C 0.34608 0.7785 0.21203 0.0
C668 C 0.3177 0.80246 0.22658 0.0
H669 H 0.36403 0.77224 0.21127 0.0
H670 H 0.31283 0.81552 0.23712 0.0
H671 H 0.38045 0.80456 0.29282 0.0
H672 H 0.40116 0.84499 0.24076 0.0
C673 C 0.41135 0.77894 0.23554 0.0
C674 C 0.33979 0.76826 0.27789 0.0
C675 C 0.37293 0.83748 0.19739 0.0
C676 C 0.33149 0.84549 0.26595 0.0
H677 H 0.37214 0.73169 0.27909 0.0
H678 H 0.41257 0.73848 0.25792 0.0
H679 H 0.43803 0.79126 0.19797 0.0
H680 H 0.41555 0.82207 0.17613 0.0
H681 H 0.34676 0.87777 0.2008 0.0
H682 H 0.3259 0.88339 0.23912 0.0
H683 H 0.30193 0.83101 0.30137 0.0
H684 H 0.30504 0.78826 0.30622 0.0
H685 H 0.40612 0.82522 0.31763 0.0
H686 H 0.42744 0.86571 0.26463 0.0
H687 H 0.28173 0.80003 0.2148 0.0
H688 H 0.33335 0.75669 0.18724 0.0
C689 C 0.48294 0.14106 0.47713 0.0
C690 C 0.50555 0.15 0.47894 0.0
C691 C 0.50574 0.16812 0.46621 0.0
C692 C 0.48331 0.16923 0.45741 0.0
N693 N 0.46904 0.15293 0.46376 0.0
Co694 Co 0.43498 0.14947 0.45578 0.0
N695 N 0.43885 0.16815 0.42995 0.0
C696 C 0.45663 0.1824 0.42672 0.0
C697 C 0.45463 0.19338 0.40755 0.0
C698 C 0.4342 0.18567 0.39817 0.0
C699 C 0.42483 0.17037 0.41224 0.0
N700 N 0.40087 0.14679 0.44779 0.0
C701 C 0.38979 0.15079 0.42861 0.0
C702 C 0.36559 0.14656 0.43029 0.0
C703 C 0.36155 0.13985 0.45123 0.0
C704 C 0.38344 0.14034 0.46126 0.0
N705 N 0.4319 0.13044 0.48139 0.0
C706 C 0.41124 0.12492 0.49091 0.0
C707 C 0.41457 0.11003 0.50715 0.0
C708 C 0.43878 0.10612 0.50781 0.0
C709 C 0.44908 0.11896 0.492 0.0
N710 N 0.42654 0.1751 0.47385 0.0
C711 C 0.40684 0.20685 0.50204 0.0
C712 C 0.42342 0.19149 0.50942 0.0
C713 C 0.43325 0.1761 0.49513 0.0
C714 C 0.40141 0.20653 0.47987 0.0
C715 C 0.41119 0.19057 0.4662 0.0
N716 N 0.44197 0.12321 0.43863 0.0
C717 C 0.43136 0.08591 0.4318 0.0
C718 C 0.45276 0.08231 0.42108 0.0
C719 C 0.46825 0.09999 0.41806 0.0
C720 C 0.46238 0.12047 0.42681 0.0
C721 C 0.42641 0.10618 0.44044 0.0
H722 H 0.4748 0.1337 0.42499 0.0
H723 H 0.41028 0.10749 0.4496 0.0
H724 H 0.44562 0.16442 0.5016 0.0
H725 H 0.40551 0.19028 0.44957 0.0
C726 C 0.47643 0.18277 0.44044 0.0
C727 C 0.47522 0.12149 0.48853 0.0
C728 C 0.40156 0.15991 0.40919 0.0
C729 C 0.3893 0.13072 0.48128 0.0
H730 H 0.52039 0.14396 0.48833 0.0
H731 H 0.52075 0.17864 0.46301 0.0
H732 H 0.46687 0.20516 0.40088 0.0
H733 H 0.42685 0.19098 0.38292 0.0
H734 H 0.35231 0.1482 0.41773 0.0
H735 H 0.34482 0.13431 0.45797 0.0
H736 H 0.40095 0.10213 0.5167 0.0
H737 H 0.44783 0.09523 0.51874 0.0
H738 H 0.42845 0.1911 0.5263 0.0
H739 H 0.38896 0.21813 0.47324 0.0
H740 H 0.41894 0.07275 0.43449 0.0
H741 H 0.48508 0.09782 0.40979 0.0
C742 C 0.1523 0.25577 0.76869 0.0
C743 C 0.13791 0.27368 0.77202 0.0
C744 C 0.11727 0.27006 0.7607 0.0
C745 C 0.12018 0.25022 0.75113 0.0
N746 N 0.14137 0.24114 0.7557 0.0
Co747 Co 0.1522 0.21236 0.74551 0.0
N748 N 0.12898 0.21234 0.72134 0.0
C749 C 0.10919 0.22457 0.72029 0.0
C750 C 0.09611 0.22094 0.70191 0.0
C751 C 0.10838 0.20537 0.69076 0.0
C752 C 0.12835 0.20035 0.703 0.0
N753 N 0.16279 0.18364 0.73506 0.0
C754 C 0.15982 0.17412 0.71537 0.0
C755 C 0.17085 0.1541 0.71498 0.0
C756 C 0.18081 0.15107 0.73511 0.0
C757 C 0.1754 0.16936 0.74675 0.0
N758 N 0.17532 0.21296 0.76972 0.0
C759 C 0.18672 0.1956 0.77768 0.0
C760 C 0.20291 0.20116 0.79344 0.0
C761 C 0.20145 0.22331 0.79544 0.0
C762 C 0.18434 0.23018 0.78084 0.0
N763 N 0.12803 0.19765 0.76475 0.0
C764 C 0.09747 0.17334 0.79316 0.0
C765 C 0.10015 0.16793 0.77121 0.0
C766 C 0.11525 0.18015 0.75744 0.0
C767 C 0.11016 0.19168 0.80029 0.0
C768 C 0.12519 0.20348 0.78601 0.0
N769 N 0.17695 0.2259 0.72674 0.0
C770 C 0.21811 0.22596 0.71444 0.0
C771 C 0.21398 0.24336 0.70059 0.0
C772 C 0.19068 0.25196 0.70014 0.0
C773 C 0.17244 0.24299 0.71327 0.0
C774 C 0.19962 0.21755 0.72715 0.0
H775 H 0.15476 0.24988 0.71264 0.0
H776 H 0.20392 0.20412 0.73741 0.0
H777 H 0.11691 0.17505 0.74085 0.0
H778 H 0.13493 0.21713 0.79237 0.0
C779 C 0.10564 0.24149 0.73496 0.0
C780 C 0.17578 0.25284 0.77882 0.0
C781 C 0.14521 0.18304 0.69749 0.0
C782 C 0.18548 0.17563 0.76669 0.0
H783 H 0.14194 0.28785 0.78158 0.0
H784 H 0.10238 0.28103 0.75891 0.0
H785 H 0.08002 0.22914 0.69684 0.0
H786 H 0.1031 0.19836 0.6755 0.0
H787 H 0.17149 0.14287 0.70161 0.0
H788 H 0.19161 0.13754 0.74027 0.0
H789 H 0.21526 0.19057 0.80167 0.0
H790 H 0.21178 0.23325 0.80636 0.0
H791 H 0.09078 0.15408 0.76471 0.0
H792 H 0.10877 0.19673 0.81698 0.0
H793 H 0.23571 0.21885 0.71551 0.0
H794 H 0.18664 0.26556 0.68976 0.0
C795 C 0.03248 0.88012 0.9771 0.0
C796 C 0.00953 0.87184 0.97847 0.0
C797 C 0.00898 0.85379 0.96567 0.0
C798 C 0.03154 0.85206 0.95721 0.0
N799 N 0.04624 0.86791 0.96385 0.0
Co800 Co 0.08039 0.87081 0.95582 0.0
N801 N 0.07618 0.85239 0.92987 0.0
C802 C 0.05812 0.83845 0.92659 0.0
C803 C 0.05992 0.82755 0.90735 0.0
C804 C 0.08049 0.83501 0.89799 0.0
C805 C 0.09012 0.85011 0.9121 0.0
N806 N 0.11453 0.87304 0.94773 0.0
C807 C 0.12547 0.86921 0.92843 0.0
C808 C 0.14971 0.87324 0.93004 0.0
C809 C 0.15393 0.8796 0.95104 0.0
C810 C 0.1321 0.87914 0.9612 0.0
N811 N 0.08387 0.8896 0.98157 0.0
C812 C 0.10464 0.89454 0.99116 0.0
C813 C 0.10162 0.90885 1.00797 0.0
C814 C 0.07746 0.91298 1.00892 0.0
C815 C 0.06693 0.90095 0.99265 0.0
N816 N 0.08843 0.84494 0.97373 0.0
C817 C 0.10817 0.81306 1.0018 0.0
C818 C 0.09171 0.82849 1.00928 0.0
C819 C 0.08183 0.84392 0.99505 0.0
C820 C 0.11337 0.81334 0.97957 0.0
C821 C 0.10358 0.82937 0.96597 0.0
N822 N 0.07382 0.89722 0.93881 0.0
C823 C 0.08514 0.93431 0.93201 0.0
C824 C 0.06348 0.93843 0.92191 0.0
C825 C 0.04773 0.92097 0.9187 0.0
C826 C 0.05336 0.90034 0.92717 0.0
C827 C 0.08977 0.91394 0.9405 0.0
H828 H 0.0407 0.8873 0.92534 0.0
H829 H 0.10595 0.91232 0.94953 0.0
H830 H 0.06957 0.85565 1.0016 0.0
H831 H 0.10917 0.82965 0.9493 0.0
C832 C 0.03822 0.83846 0.94022 0.0
C833 C 0.04077 0.89908 0.98916 0.0
C834 C 0.11351 0.86039 0.90895 0.0
C835 C 0.12645 0.88858 0.98136 0.0
H836 H 0.99473 0.87822 0.9877 0.0
H837 H 0.99367 0.84373 0.96219 0.0
H838 H 0.04744 0.81604 0.90062 0.0
H839 H 0.08772 0.82971 0.88269 0.0
H840 H 0.16292 0.87169 0.91739 0.0
H841 H 0.17075 0.88492 0.95776 0.0
H842 H 0.11539 0.91614 0.01779 0.0
H843 H 0.06858 0.92348 0.02035 0.0
H844 H 0.08683 0.82892 0.0262 0.0
H845 H 0.12569 0.80168 0.97285 0.0
H846 H 0.09787 0.94724 0.9346 0.0
H847 H 0.03082 0.92348 0.91067 0.0
C848 C 0.22308 0.39049 0.14026 0.0
C849 C 0.21036 0.38461 0.12198 0.0
C850 C 0.21381 0.36297 0.1192 0.0
C851 C 0.22831 0.35677 0.13591 0.0
N852 N 0.23444 0.3731 0.14923 0.0
Co853 Co 0.25448 0.36994 0.17603 0.0
N854 N 0.26345 0.33934 0.16906 0.0
C855 C 0.25653 0.3283 0.15142 0.0
C856 C 0.27002 0.31027 0.14752 0.0
C857 C 0.28607 0.30945 0.16411 0.0
C858 C 0.28069 0.32651 0.17785 0.0
N859 N 0.27321 0.36612 0.20343 0.0
C860 C 0.28286 0.34782 0.21245 0.0
C861 C 0.28658 0.35082 0.23444 0.0
C862 C 0.28041 0.37166 0.23911 0.0
C863 C 0.27236 0.38017 0.22005 0.0
N864 N 0.24668 0.40121 0.18176 0.0
C865 C 0.25146 0.41165 0.2003 0.0
C866 C 0.24411 0.4328 0.20024 0.0
C867 C 0.23382 0.436 0.18041 0.0
C868 C 0.23531 0.41653 0.16945 0.0
N869 N 0.22634 0.36046 0.1933 0.0
C870 C 0.20857 0.35594 0.2356 0.0
C871 C 0.20184 0.37361 0.22272 0.0
C872 C 0.21064 0.37539 0.20143 0.0
C873 C 0.22038 0.3389 0.22533 0.0
C874 C 0.22797 0.34109 0.20393 0.0
N875 N 0.28357 0.37926 0.16057 0.0
C876 C 0.32333 0.3938 0.16421 0.0
C877 C 0.33052 0.38349 0.14527 0.0
C878 C 0.31329 0.37258 0.13306 0.0
C879 C 0.28982 0.37088 0.14087 0.0
C880 C 0.29985 0.39167 0.17143 0.0
H881 H 0.27721 0.36191 0.1314 0.0
H882 H 0.29541 0.39914 0.18652 0.0
H883 H 0.20642 0.3898 0.19249 0.0
H884 H 0.23772 0.32783 0.19729 0.0
C885 C 0.23933 0.33669 0.13757 0.0
C886 C 0.2235 0.41285 0.14835 0.0
C887 C 0.28814 0.32722 0.20082 0.0
C888 C 0.26246 0.40078 0.21741 0.0
H889 H 0.1999 0.39495 0.11156 0.0
H890 H 0.20727 0.35308 0.10606 0.0
H891 H 0.26868 0.29925 0.13401 0.0
H892 H 0.29924 0.29692 0.16645 0.0
H893 H 0.29247 0.33909 0.2462 0.0
H894 H 0.28073 0.37937 0.25479 0.0
H895 H 0.24568 0.44444 0.21321 0.0
H896 H 0.22539 0.45073 0.17491 0.0
H897 H 0.19127 0.38658 0.22947 0.0
H898 H 0.22481 0.3243 0.23411 0.0
H899 H 0.33607 0.40273 0.17387 0.0
H900 H 0.31814 0.36475 0.11805 0.0
C901 C 0.72515 0.12874 0.87995 0.0
C902 C 0.71149 0.13494 0.89757 0.0
C903 C 0.71397 0.15678 0.8995 0.0
C904 C 0.72886 0.16275 0.88298 0.0
N905 N 0.73625 0.14611 0.87061 0.0
Co906 Co 0.75688 0.14889 0.8441 0.0
N907 N 0.76339 0.18033 0.8493 0.0
C908 C 0.75554 0.19182 0.86635 0.0
C909 C 0.76783 0.21068 0.86953 0.0
C910 C 0.7841 0.21151 0.85314 0.0
C911 C 0.77999 0.19359 0.84015 0.0
N912 N 0.77602 0.15223 0.81688 0.0
C913 C 0.78509 0.17037 0.80709 0.0
C914 C 0.79092 0.16597 0.78572 0.0
C915 C 0.78628 0.14456 0.78223 0.0
C916 C 0.77729 0.13699 0.80135 0.0
N917 N 0.75191 0.11681 0.84032 0.0
C918 C 0.75901 0.10536 0.82297 0.0
C919 C 0.75313 0.08385 0.82419 0.0
C920 C 0.74139 0.08146 0.84347 0.0
C921 C 0.74053 0.10172 0.85295 0.0
N922 N 0.72842 0.15546 0.82571 0.0
C923 C 0.71121 0.16246 0.78338 0.0
C924 C 0.71092 0.14184 0.79275 0.0
C925 C 0.7178 0.13904 0.81434 0.0
C926 C 0.71586 0.17991 0.7973 0.0
C927 C 0.72481 0.17609 0.8182 0.0
N928 N 0.78626 0.14251 0.86071 0.0
C929 C 0.82704 0.12997 0.85925 0.0
C930 C 0.83264 0.14121 0.87808 0.0
C931 C 0.81418 0.15178 0.88907 0.0
C932 C 0.79107 0.15202 0.88023 0.0
C933 C 0.8039 0.13071 0.85097 0.0
H934 H 0.77748 0.16058 0.88892 0.0
H935 H 0.8008 0.1224 0.83608 0.0
H936 H 0.71622 0.12304 0.82087 0.0
H937 H 0.73024 0.18998 0.82737 0.0
C938 C 0.73867 0.18325 0.88043 0.0
C939 C 0.72674 0.1061 0.87289 0.0
C940 C 0.78854 0.19189 0.81756 0.0
C941 C 0.76952 0.11582 0.80529 0.0
H942 H 0.70099 0.1247 0.90808 0.0
H943 H 0.70638 0.16701 0.9119 0.0
H944 H 0.76565 0.22219 0.88254 0.0
H945 H 0.79674 0.22446 0.85054 0.0
H946 H 0.7972 0.17711 0.77354 0.0
H947 H 0.78856 0.13572 0.7673 0.0
H948 H 0.75635 0.07149 0.81218 0.0
H949 H 0.73347 0.06668 0.84948 0.0
H950 H 0.70607 0.12777 0.78332 0.0
H951 H 0.7147 0.19636 0.79143 0.0
H952 H 0.8407 0.12116 0.85057 0.0
H953 H 0.81772 0.16018 0.90407 0.0
C954 C 0.1128 0.50132 0.01418 0.0
C955 C 0.12699 0.49756 0.99622 0.0
C956 C 0.14787 0.50861 0.99953 0.0
C957 C 0.14529 0.51846 0.01927 0.0
N958 N 0.12409 0.51433 0.02856 0.0
Co959 Co 0.11375 0.52495 0.05734 0.0
N960 N 0.13756 0.54871 0.05696 0.0
C961 C 0.15721 0.54935 0.04449 0.0
C962 C 0.17075 0.56753 0.04782 0.0
C963 C 0.15895 0.579 0.06345 0.0
C964 C 0.13878 0.56712 0.06881 0.0
N965 N 0.10375 0.53579 0.08609 0.0
C966 C 0.10742 0.55544 0.09552 0.0
C967 C 0.09672 0.55612 0.11568 0.0
C968 C 0.08623 0.53622 0.11891 0.0
C969 C 0.09104 0.52441 0.10058 0.0
N970 N 0.09 0.50118 0.05713 0.0
C971 C 0.07856 0.49358 0.07464 0.0
C972 C 0.06197 0.47805 0.06936 0.0
C973 C 0.06322 0.4758 0.04723 0.0
C974 C 0.08062 0.49003 0.04009 0.0
N975 N 0.13751 0.50534 0.07196 0.0
C976 C 0.167 0.47639 0.09652 0.0
C977 C 0.15365 0.46928 0.0786 0.0
C978 C 0.13925 0.48385 0.0666 0.0
C979 C 0.16561 0.49857 0.10136 0.0
C980 C 0.15095 0.5126 0.08905 0.0
N981 N 0.08931 0.54406 0.04391 0.0
C982 C 0.0484 0.55695 0.04416 0.0
C983 C 0.05252 0.57037 0.02642 0.0
C984 C 0.0757 0.57035 0.01752 0.0
C985 C 0.09383 0.55713 0.02651 0.0
C986 C 0.06677 0.54416 0.05258 0.0
H987 H 0.11142 0.55737 0.01937 0.0
H988 H 0.06245 0.53421 0.06624 0.0
H989 H 0.12904 0.47754 0.05323 0.0
H990 H 0.15009 0.52935 0.09381 0.0
C991 C 0.16026 0.53447 0.02769 0.0
C992 C 0.08914 0.4916 0.01738 0.0
C993 C 0.12235 0.573 0.08634 0.0
C994 C 0.08033 0.50465 0.09453 0.0
H995 H 0.12267 0.48788 0.9822 0.0
H996 H 0.16272 0.51002 0.98844 0.0
H997 H 0.18685 0.57226 0.03941 0.0
H998 H 0.16468 0.59422 0.07028 0.0
H999 H 0.09663 0.56954 0.12688 0.0
H1000 H 0.07551 0.53132 0.1326 0.0
H1001 H 0.04955 0.4701 0.08013 0.0
H1002 H 0.05261 0.46494 0.03748 0.0
H1003 H 0.15408 0.4524 0.07402 0.0
H1004 H 0.17551 0.50502 0.11491 0.0
H1005 H 0.03088 0.55626 0.05151 0.0
H1006 H 0.07973 0.58039 1.00367 0.0
C1007 C 0.79515 0.8913 0.37428 0.0
C1008 C 0.81312 0.88466 0.38815 0.0
C1009 C 0.81224 0.86266 0.3888 0.0
C1010 C 0.79385 0.85704 0.37535 0.0
N1011 N 0.78296 0.87402 0.36593 0.0
Co1012 Co 0.7545 0.87205 0.34619 0.0
N1013 N 0.75624 0.8396 0.34442 0.0
C1014 C 0.77117 0.82696 0.35586 0.0
C1015 C 0.76935 0.80541 0.35104 0.0
C1016 C 0.75198 0.80415 0.33567 0.0
C1017 C 0.74399 0.82507 0.3321 0.0
N1018 N 0.72558 0.86992 0.32731 0.0
C1019 C 0.71474 0.85252 0.31783 0.0
C1020 C 0.69367 0.85856 0.30784 0.0
C1021 C 0.69107 0.88032 0.31121 0.0
C1022 C 0.71061 0.88641 0.3231 0.0
N1023 N 0.75404 0.90467 0.34717 0.0
C1024 C 0.73627 0.91707 0.33933 0.0
C1025 C 0.73984 0.93877 0.34268 0.0
C1026 C 0.76103 0.94028 0.35362 0.0
C1027 C 0.76928 0.91938 0.35649 0.0
N1028 N 0.77486 0.87365 0.32004 0.0
C1029 C 0.79389 0.86853 0.27821 0.0
C1030 C 0.77638 0.88391 0.28237 0.0
C1031 C 0.76738 0.88636 0.30323 0.0
C1032 C 0.80342 0.85709 0.29582 0.0
C1033 C 0.79367 0.85993 0.31664 0.0
N1034 N 0.73213 0.87045 0.37144 0.0
C1035 C 0.69916 0.89029 0.3869 0.0
C1036 C 0.68518 0.87153 0.38814 0.0
C1037 C 0.69687 0.85183 0.3846 0.0
C1038 C 0.72005 0.85163 0.37594 0.0
C1039 C 0.72295 0.88911 0.38003 0.0
H1040 H 0.72711 0.83608 0.37187 0.0
H1041 H 0.73298 0.90386 0.38032 0.0
H1042 H 0.75316 0.89767 0.30516 0.0
H1043 H 0.80051 0.85019 0.32962 0.0
C1044 C 0.78749 0.83597 0.37013 0.0
C1045 C 0.79017 0.91429 0.37026 0.0
C1046 C 0.72325 0.82991 0.31846 0.0
C1047 C 0.71649 0.9076 0.32917 0.0
H1048 H 0.82553 0.89471 0.397 0.0
H1049 H 0.82381 0.85199 0.39783 0.0
H1050 H 0.77954 0.79221 0.3578 0.0
H1051 H 0.74555 0.7894 0.3283 0.0
H1052 H 0.68138 0.84825 0.29915 0.0
H1053 H 0.67675 0.89051 0.30548 0.0
H1054 H 0.72819 0.95192 0.33811 0.0
H1055 H 0.76905 0.95501 0.35961 0.0
H1056 H 0.76878 0.89329 0.2693 0.0
H1057 H 0.81728 0.84519 0.29328 0.0
H1058 H 0.69164 0.90597 0.39059 0.0
H1059 H 0.68747 0.83669 0.38676 0.0
C1060 C 0.90189 0.01984 0.01359 0.0
C1061 C 0.88774 0.02343 0.99559 0.0
C1062 C 0.86679 0.0125 0.99905 0.0
C1063 C 0.86929 1.00288 0.01892 0.0
N1064 N 0.89049 1.00708 0.02815 0.0
Co1065 Co 0.90087 0.99665 0.05697 0.0
N1066 N 0.87727 0.97277 0.0567 0.0
C1067 C 0.85757 0.97202 0.04431 0.0
C1068 C 0.84416 0.95377 0.04776 0.0
C1069 C 0.8561 0.9424 0.06338 0.0
C1070 C 0.87621 0.95439 0.06861 0.0
N1071 N 0.91102 0.98599 0.08572 0.0
C1072 C 0.90759 0.96632 0.09518 0.0
C1073 C 0.91836 0.96576 0.1153 0.0
C1074 C 0.92864 0.98576 0.11846 0.0
C1075 C 0.92364 0.99751 0.10013 0.0
N1076 N 0.9244 0.02057 0.05659 0.0
C1077 C 0.93578 0.02835 0.07403 0.0
C1078 C 0.95247 0.04374 0.06857 0.0
C1079 C 0.95136 0.04568 0.0464 0.0
C1080 C 0.93395 0.03142 0.03941 0.0
N1081 N 0.87683 0.01611 0.07161 0.0
C1082 C 0.84636 0.04462 0.09593 0.0
C1083 C 0.84872 0.02258 0.10115 0.0
C1084 C 0.86375 1.00877 0.08893 0.0
C1085 C 0.85935 0.05179 0.07776 0.0
C1086 C 0.87434 0.03747 0.06596 0.0
N1087 N 0.9255 0.97763 0.04357 0.0
C1088 C 0.9665 0.96489 0.04386 0.0
C1089 C 0.96244 0.95126 0.02627 0.0
C1090 C 0.93924 0.95113 0.01743 0.0
C1091 C 0.92103 0.96435 0.02633 0.0
C1092 C 0.94807 0.97771 0.05218 0.0
H1093 H 0.90344 0.96395 0.01924 0.0
H1094 H 0.95235 0.98781 0.06572 0.0
H1095 H 0.86513 0.99212 0.09391 0.0
H1096 H 0.88431 0.04386 0.05246 0.0
C1097 C 0.85438 0.98685 0.02746 0.0
C1098 C 0.92566 0.0294 0.01666 0.0
C1099 C 0.89279 0.94865 0.08607 0.0
C1100 C 0.93414 0.01734 0.09398 0.0
H1101 H 0.89215 0.03288 0.98142 0.0
H1102 H 0.85199 0.01094 0.98795 0.0
H1103 H 0.82806 0.94894 0.03943 0.0
H1104 H 0.8505 0.92716 0.07028 0.0
H1105 H 0.91863 0.95235 0.12652 0.0
H1106 H 0.93935 0.99076 0.1321 0.0
H1107 H 0.96495 0.05173 0.07925 0.0
H1108 H 0.96215 0.05631 0.03652 0.0
H1109 H 0.83915 0.01603 0.11486 0.0
H1110 H 0.85823 0.06855 0.07286 0.0
H1111 H 0.98402 0.96572 0.05117 0.0
H1112 H 0.93524 0.94094 1.00369 0.0
C1113 C 0.29152 0.62801 0.64236 0.0
C1114 C 0.30693 0.63431 0.62598 0.0
C1115 C 0.30652 0.65633 0.62543 0.0
C1116 C 0.29093 0.66227 0.6414 0.0
N1117 N 0.28119 0.6455 0.65214 0.0
Co1118 Co 0.25796 0.64803 0.67683 0.0
N1119 N 0.25343 0.68001 0.67227 0.0
C1120 C 0.2666 0.69244 0.65892 0.0
C1121 C 0.2606 0.71387 0.65934 0.0
C1122 C 0.24265 0.71535 0.67411 0.0
C1123 C 0.23854 0.69459 0.68185 0.0
N1124 N 0.23513 0.65068 0.70153 0.0
C1125 C 0.22189 0.66779 0.70878 0.0
C1126 C 0.20872 0.66202 0.72685 0.0
C1127 C 0.21429 0.64094 0.73141 0.0
C1128 C 0.23043 0.63488 0.71588 0.0
N1129 N 0.26248 0.61587 0.68056 0.0
C1130 C 0.25491 0.60446 0.69781 0.0
C1131 C 0.26087 0.58297 0.69677 0.0
C1132 C 0.27329 0.5806 0.67782 0.0
C1133 C 0.27428 0.60081 0.66823 0.0
N1134 N 0.28425 0.65369 0.69807 0.0
C1135 C 0.30007 0.65572 0.74128 0.0
C1136 C 0.30356 0.63704 0.72888 0.0
C1137 C 0.29674 0.63681 0.70699 0.0
C1138 C 0.29253 0.6743 0.73049 0.0
C1139 C 0.28481 0.673 0.70904 0.0
N1140 N 0.23033 0.64236 0.65754 0.0
C1141 C 0.19147 0.6255 0.65534 0.0
C1142 C 0.18352 0.6412 0.641 0.0
C1143 C 0.20008 0.65644 0.63338 0.0
C1144 C 0.22357 0.6565 0.6416 0.0
C1145 C 0.21466 0.62633 0.66332 0.0
H1146 H 0.23568 0.66876 0.63592 0.0
H1147 H 0.21886 0.61472 0.67546 0.0
H1148 H 0.30001 0.62223 0.69806 0.0
H1149 H 0.27775 0.6876 0.70243 0.0
C1150 C 0.2837 0.68331 0.64553 0.0
C1151 C 0.2884 0.6052 0.64844 0.0
C1152 C 0.22246 0.69013 0.70009 0.0
C1153 C 0.24056 0.61428 0.71356 0.0
H1154 H 0.31753 0.62405 0.6156 0.0
H1155 H 0.31617 0.66677 0.61445 0.0
H1156 H 0.26848 0.72691 0.65012 0.0
H1157 H 0.23417 0.73021 0.67911 0.0
H1158 H 0.19676 0.67216 0.73607 0.0
H1159 H 0.2074 0.63122 0.74454 0.0
H1160 H 0.25653 0.57044 0.70833 0.0
H1161 H 0.28119 0.56579 0.67192 0.0
H1162 H 0.31059 0.62249 0.7362 0.0
H1163 H 0.29082 0.68945 0.73911 0.0
H1164 H 0.17931 0.6133 0.66143 0.0
H1165 H 0.19465 0.66871 0.62193 0.0
C1166 C 0.10973 0.52568 0.5004 0.0
C1167 C 0.12493 0.53389 0.51612 0.0
C1168 C 0.14644 0.52364 0.51355 0.0
C1169 C 0.1434 0.51012 0.4962 0.0
N1170 N 0.12137 0.51127 0.48772 0.0
Co1171 Co 0.11188 0.49804 0.45999 0.0
N1172 N 0.13682 0.47551 0.46229 0.0
C1173 C 0.15652 0.47694 0.47459 0.0
C1174 C 0.17097 0.45912 0.47279 0.0
C1175 C 0.1597 0.44575 0.45832 0.0
C1176 C 0.13895 0.45622 0.45204 0.0
N1177 N 0.10313 0.48487 0.43191 0.0
C1178 C 0.10795 0.46483 0.42394 0.0
C1179 C 0.09776 0.4623 0.40371 0.0
C1180 C 0.08635 0.48144 0.39899 0.0
C1181 C 0.09018 0.49466 0.41653 0.0
N1182 N 0.08656 0.52036 0.45868 0.0
C1183 C 0.07369 0.52512 0.44096 0.0
C1184 C 0.05315 0.53605 0.44611 0.0
C1185 C 0.05333 0.53836 0.46821 0.0
C1186 C 0.07458 0.5296 0.47563 0.0
N1187 N 0.13494 0.51768 0.44436 0.0
C1188 C 0.16615 0.54572 0.42033 0.0
C1189 C 0.15075 0.55366 0.43647 0.0
C1190 C 0.13547 0.53955 0.44819 0.0
C1191 C 0.16555 0.52327 0.41677 0.0
C1192 C 0.14999 0.5097 0.42875 0.0
N1193 N 0.08821 0.47881 0.47455 0.0
C1194 C 0.0481 0.46396 0.47434 0.0
C1195 C 0.05155 0.4538 0.49418 0.0
C1196 C 0.07409 0.45623 0.50405 0.0
C1197 C 0.09219 0.46878 0.49396 0.0
C1198 C 0.06635 0.47613 0.46492 0.0
H1199 H 0.10925 0.47058 0.50188 0.0
H1200 H 0.0623 0.48364 0.44979 0.0
H1201 H 0.12388 0.54645 0.46028 0.0
H1202 H 0.15 0.49266 0.42509 0.0
C1203 C 0.15923 0.49396 0.48937 0.0
C1204 C 0.08424 0.53139 0.49826 0.0
C1205 C 0.12314 0.44849 0.43473 0.0
C1206 C 0.07725 0.51349 0.42162 0.0
H1207 H 0.12081 0.54575 0.52839 0.0
H1208 H 0.16211 0.52534 0.52359 0.0
H1209 H 0.18746 0.45599 0.48128 0.0
H1210 H 0.16627 0.43032 0.45265 0.0
H1211 H 0.09836 0.4481 0.39355 0.0
H1212 H 0.07537 0.48478 0.38502 0.0
H1213 H 0.03855 0.53995 0.43537 0.0
H1214 H 0.03893 0.5451 0.47761 0.0
H1215 H 0.1504 0.57079 0.43996 0.0
H1216 H 0.17694 0.51619 0.40455 0.0
H1217 H 0.03113 0.46261 0.46609 0.0
H1218 H 0.07763 0.44861 0.51946 0.0
C1219 C 0.40511 0.49538 1.00166 0.0
C1220 C 0.38938 0.48675 0.01674 0.0
C1221 C 0.36788 0.49689 0.0137 0.0
C1222 C 0.37146 0.51072 0.99666 0.0
N1223 N 0.39378 0.50984 0.98881 0.0
Co1224 Co 0.40389 0.52294 0.96118 0.0
N1225 N 0.37873 0.54534 0.96284 0.0
C1226 C 0.35878 0.54389 0.97482 0.0
C1227 C 0.34419 0.56156 0.97256 0.0
C1228 C 0.35562 0.57484 0.9581 0.0
C1229 C 0.37658 0.56446 0.95227 0.0
N1230 N 0.41314 0.53586 0.93309 0.0
C1231 C 0.40809 0.55565 0.92464 0.0
C1232 C 0.41856 0.55793 0.90449 0.0
C1233 C 0.4304 0.53889 0.90031 0.0
C1234 C 0.42651 0.52597 0.91806 0.0
N1235 N 0.42944 0.5008 0.96062 0.0
C1236 C 0.44297 0.49614 0.94328 0.0
C1237 C 0.46375 0.48595 0.94908 0.0
C1238 C 0.46303 0.48401 0.97122 0.0
C1239 C 0.44121 0.49213 0.978 0.0
N1240 N 0.3813 0.50305 0.94528 0.0
C1241 C 0.35058 0.47481 0.92094 0.0
C1242 C 0.36598 0.46695 0.93714 0.0
C1243 C 0.38099 0.48117 0.94903 0.0
C1244 C 0.35098 0.49729 0.91748 0.0
C1245 C 0.36632 0.51093 0.92957 0.0
N1246 N 0.42717 0.54242 0.97601 0.0
C1247 C 0.46713 0.55768 0.97612 0.0
C1248 C 0.46352 0.56745 0.99611 0.0
C1249 C 0.44096 0.56468 1.0059 0.0
C1250 C 0.42301 0.55211 0.99557 0.0
C1251 C 0.44905 0.54546 0.9665 0.0
H1252 H 0.40595 0.55006 1.00342 0.0
H1253 H 0.4533 0.53819 0.9513 0.0
H1254 H 0.39253 0.47433 0.96119 0.0
H1255 H 0.36616 0.52798 0.92593 0.0
C1256 C 0.35573 0.52682 0.98951 0.0
C1257 C 0.43082 0.49024 1.00041 0.0
C1258 C 0.39247 0.57198 0.93489 0.0
C1259 C 0.43966 0.50742 0.9237 0.0
H1260 H 0.39315 0.47473 0.02895 0.0
H1261 H 0.35185 0.4949 0.02322 0.0
H1262 H 0.32743 0.56459 0.98067 0.0
H1263 H 0.34895 0.59009 0.95206 0.0
H1264 H 0.41785 0.57192 0.89402 0.0
H1265 H 0.44165 0.53544 0.88654 0.0
H1266 H 0.47883 0.4824 0.93876 0.0
H1267 H 0.47747 0.47802 0.98103 0.0
H1268 H 0.36648 0.44981 0.9406 0.0
H1269 H 0.33958 0.50433 0.90526 0.0
H1270 H 0.48407 0.5594 0.96789 0.0
H1271 H 0.43726 0.57208 0.02137 0.0
C1272 C 0.73014 0.7932 0.88912 0.0
C1273 C 0.7536 0.79347 0.89632 0.0
C1274 C 0.75402 0.80573 0.91473 0.0
C1275 C 0.731 0.81259 0.91765 0.0
N1276 N 0.71612 0.80538 0.9022 0.0
Co1277 Co 0.68203 0.81336 0.8992 0.0
N1278 N 0.68608 0.83943 0.9175 0.0
C1279 C 0.70399 0.84277 0.93155 0.0
C1280 C 0.70206 0.86202 0.94239 0.0
C1281 C 0.68157 0.87133 0.93478 0.0
C1282 C 0.6721 0.85717 0.91965 0.0
N1283 N 0.64802 0.82158 0.89634 0.0
C1284 C 0.6371 0.84092 0.89996 0.0
C1285 C 0.61291 0.83936 0.89572 0.0
C1286 C 0.60867 0.81833 0.88945 0.0
C1287 C 0.63045 0.80814 0.89017 0.0
N1288 N 0.67852 0.78733 0.88087 0.0
C1289 C 0.65779 0.7774 0.87645 0.0
C1290 C 0.66087 0.75986 0.86307 0.0
C1291 C 0.68503 0.75883 0.85896 0.0
C1292 C 0.69544 0.77587 0.86998 0.0
N1293 N 0.67361 0.79573 0.92517 0.0
C1294 C 0.65402 0.76793 0.95742 0.0
C1295 C 0.67085 0.76046 0.94231 0.0
C1296 C 0.68066 0.77456 0.92671 0.0
C1297 C 0.64831 0.79005 0.95659 0.0
C1298 C 0.65802 0.80351 0.94038 0.0
N1299 N 0.68931 0.83012 0.87288 0.0
C1300 C 0.68058 0.83595 0.83513 0.0
C1301 C 0.70091 0.84867 0.83266 0.0
C1302 C 0.71482 0.85295 0.8511 0.0
C1303 C 0.70879 0.84336 0.87109 0.0
C1304 C 0.67503 0.82708 0.8552 0.0
H1305 H 0.72014 0.84613 0.8849 0.0
H1306 H 0.65946 0.817 0.85607 0.0
H1307 H 0.69328 0.76803 0.91528 0.0
H1308 H 0.65213 0.82007 0.93971 0.0
C1309 C 0.72408 0.82942 0.93135 0.0
C1310 C 0.72146 0.78033 0.87065 0.0
C1311 C 0.64892 0.86033 0.90906 0.0
C1312 C 0.63598 0.78755 0.88167 0.0
H1313 H 0.76897 0.78589 0.88903 0.0
H1314 H 0.76958 0.81027 0.92402 0.0
H1315 H 0.7145 0.86886 0.95387 0.0
H1316 H 0.67432 0.88668 0.93995 0.0
H1317 H 0.59972 0.85202 0.89722 0.0
H1318 H 0.59184 0.81155 0.88423 0.0
H1319 H 0.64714 0.74965 0.85624 0.0
H1320 H 0.69395 0.74704 0.8489 0.0
H1321 H 0.67613 0.74363 0.9423 0.0
H1322 H 0.63569 0.79678 0.96799 0.0
H1323 H 0.66926 0.83241 0.8214 0.0
H1324 H 0.73064 0.86291 0.84986 0.0
C1325 C 0.54029 0.39126 0.14301 0.0
C1326 C 0.55391 0.37363 0.13679 0.0
C1327 C 0.55105 0.37144 0.11504 0.0
C1328 C 0.53595 0.3878 0.10914 0.0
N1329 N 0.52885 0.40035 0.12574 0.0
Co1330 Co 0.50763 0.42645 0.12311 0.0
N1331 N 0.5 0.42039 0.09201 0.0
C1332 C 0.50824 0.40354 0.08044 0.0
C1333 C 0.4957 0.39987 0.06182 0.0
C1334 C 0.47888 0.41579 0.06116 0.0
C1335 C 0.48287 0.42898 0.07896 0.0
N1336 N 0.48743 0.45304 0.11991 0.0
C1337 C 0.47652 0.46194 0.10212 0.0
C1338 C 0.46852 0.48266 0.10689 0.0
C1339 C 0.47384 0.4866 0.12809 0.0
C1340 C 0.48565 0.46859 0.13509 0.0
N1341 N 0.51417 0.43123 0.1548 0.0
C1342 C 0.50812 0.44913 0.16586 0.0
C1343 C 0.51497 0.44853 0.18714 0.0
C1344 C 0.52633 0.42909 0.18975 0.0
C1345 C 0.52588 0.41886 0.16986 0.0
N1346 N 0.53538 0.44522 0.1151 0.0
C1347 C 0.55346 0.48747 0.10981 0.0
C1348 C 0.55698 0.47607 0.12911 0.0
C1349 C 0.54901 0.4546 0.13097 0.0
C1350 C 0.5449 0.47571 0.09208 0.0
C1351 C 0.53597 0.45471 0.09507 0.0
N1352 N 0.47896 0.40952 0.13114 0.0
C1353 C 0.43938 0.41119 0.14642 0.0
C1354 C 0.43223 0.39334 0.13436 0.0
C1355 C 0.44945 0.38241 0.12213 0.0
C1356 C 0.47286 0.39061 0.12099 0.0
C1357 C 0.46268 0.41884 0.14473 0.0
H1358 H 0.48552 0.38215 0.11111 0.0
H1359 H 0.46682 0.43315 0.15361 0.0
H1360 H 0.5522 0.44654 0.14606 0.0
H1361 H 0.5278 0.44722 0.08138 0.0
C1362 C 0.52561 0.38992 0.08884 0.0
C1363 C 0.53901 0.39854 0.16559 0.0
C1364 C 0.47376 0.45138 0.0805 0.0
C1365 C 0.49572 0.46587 0.15563 0.0
H1366 H 0.56458 0.36324 0.14698 0.0
H1367 H 0.55844 0.35892 0.10484 0.0
H1368 H 0.49813 0.38688 0.05033 0.0
H1369 H 0.46602 0.41806 0.04836 0.0
H1370 H 0.46083 0.49442 0.0961 0.0
H1371 H 0.47068 0.5014 0.13695 0.0
H1372 H 0.51224 0.46085 0.19929 0.0
H1373 H 0.5347 0.42338 0.20442 0.0
H1374 H 0.56476 0.48399 0.14303 0.0
H1375 H 0.54297 0.48343 0.07647 0.0
H1376 H 0.42668 0.4198 0.15641 0.0
H1377 H 0.44465 0.36819 0.11293 0.0
C1378 C 0.78456 0.22895 0.39012 0.0
C1379 C 0.7617 0.23057 0.39854 0.0
C1380 C 0.76116 0.21791 0.41669 0.0
C1381 C 0.78363 0.20929 0.41833 0.0
N1382 N 0.79826 0.21568 0.40232 0.0
Co1383 Co 0.8323 0.2074 0.39922 0.0
N1384 N 0.82798 0.18166 0.41796 0.0
C1385 C 0.81 0.17861 0.43204 0.0
C1386 C 0.81169 0.15944 0.44308 0.0
C1387 C 0.83209 0.14987 0.43558 0.0
C1388 C 0.84176 0.16382 0.42033 0.0
N1389 N 0.86633 0.19905 0.3968 0.0
C1390 C 0.87712 0.17975 0.40088 0.0
C1391 C 0.90137 0.18117 0.39682 0.0
C1392 C 0.90575 0.20207 0.39013 0.0
C1393 C 0.88399 0.21234 0.39047 0.0
N1394 N 0.83591 0.23297 0.38019 0.0
C1395 C 0.85673 0.24237 0.375 0.0
C1396 C 0.85374 0.25911 0.3606 0.0
C1397 C 0.82955 0.26022 0.35667 0.0
C1398 C 0.81899 0.2441 0.36892 0.0
N1399 N 0.84076 0.22554 0.42485 0.0
C1400 C 0.8607 0.25395 0.45638 0.0
C1401 C 0.84394 0.26121 0.44112 0.0
C1402 C 0.83402 0.24683 0.42583 0.0
C1403 C 0.86618 0.23177 0.45609 0.0
C1404 C 0.85623 0.21799 0.44027 0.0
N1405 N 0.82527 0.19018 0.37297 0.0
C1406 C 0.83601 0.18312 0.33575 0.0
C1407 C 0.81418 0.17314 0.33186 0.0
C1408 C 0.79868 0.17009 0.34955 0.0
C1409 C 0.80466 0.17864 0.37009 0.0
C1410 C 0.84102 0.19166 0.35606 0.0
H1411 H 0.79214 0.17696 0.38325 0.0
H1412 H 0.85733 0.20055 0.35749 0.0
H1413 H 0.82158 0.25324 0.41419 0.0
H1414 H 0.86188 0.20134 0.44004 0.0
C1415 C 0.79024 0.19237 0.43204 0.0
C1416 C 0.79284 0.2408 0.37105 0.0
C1417 C 0.86503 0.16046 0.40997 0.0
C1418 C 0.87849 0.23247 0.38089 0.0
H1419 H 0.74695 0.23988 0.3922 0.0
H1420 H 0.7459 0.21464 0.4269 0.0
H1421 H 0.79922 0.15288 0.45471 0.0
H1422 H 0.83919 0.13453 0.44095 0.0
H1423 H 0.91447 0.16847 0.39857 0.0
H1424 H 0.92261 0.20864 0.38472 0.0
H1425 H 0.86754 0.26879 0.35313 0.0
H1426 H 0.82068 0.27165 0.34618 0.0
H1427 H 0.83885 0.27808 0.44072 0.0
H1428 H 0.87875 0.22522 0.46761 0.0
H1429 H 0.8486 0.18556 0.32269 0.0
H1430 H 0.78166 0.16215 0.34727 0.0
C1431 C 0.97405 0.63175 0.64001 0.0
C1432 C 0.96109 0.64984 0.63398 0.0
C1433 C 0.96461 0.65255 0.61234 0.0
C1434 C 0.97941 0.63601 0.60629 0.0
N1435 N 0.9857 0.62287 0.62271 0.0
Co1436 Co 1.00616 0.59628 0.61973 0.0
N1437 N 0.01481 0.60297 0.58899 0.0
C1438 C 0.00776 0.62053 0.57787 0.0
C1439 C 0.02108 0.62432 0.5597 0.0
C1440 C 0.03714 0.60775 0.55887 0.0
C1441 C 0.03195 0.59412 0.57608 0.0
N1442 N 0.02519 0.56901 0.61608 0.0
C1443 C 0.03458 0.55978 0.59777 0.0
C1444 C 0.03846 0.53784 0.60102 0.0
C1445 C 0.03271 0.53344 0.62202 0.0
C1446 C 0.02469 0.55258 0.63038 0.0
N1447 N 0.99878 0.5909 0.65116 0.0
C1448 C 1.00411 0.57261 0.66184 0.0
C1449 C 0.99692 0.57284 0.68305 0.0
C1450 C 0.98615 0.59249 0.68602 0.0
C1451 C 0.9872 0.6032 0.66639 0.0
N1452 N 0.97818 0.57851 0.61074 0.0
C1453 C 0.96046 0.53612 0.60625 0.0
C1454 C 0.95411 0.54885 0.62414 0.0
C1455 C 0.96286 0.57016 0.6259 0.0
C1456 C 0.97197 0.54654 0.58911 0.0
C1457 C 0.97956 0.56796 0.59131 0.0
N1458 N 0.03519 0.61225 0.62852 0.0
C1459 C 0.07541 0.60942 0.64221 0.0
C1460 C 0.08182 0.62874 0.63211 0.0
C1461 C 0.06395 0.64066 0.62174 0.0
C1462 C 0.04071 0.63221 0.62028 0.0
C1463 C 0.05209 0.60163 0.64043 0.0
H1464 H 0.02766 0.64151 0.61168 0.0
H1465 H 0.04822 0.58637 0.64787 0.0
H1466 H 0.95884 0.57897 0.64043 0.0
H1467 H 0.98899 0.57472 0.57791 0.0
C1468 C 0.99046 0.63432 0.58621 0.0
C1469 C 0.9746 0.62389 0.66246 0.0
C1470 C 0.03954 0.57119 0.57696 0.0
C1471 C 0.01511 0.55544 0.65108 0.0
H1472 H 0.95046 0.6602 0.64424 0.0
H1473 H 0.95789 0.66554 0.60235 0.0
H1474 H 0.01958 0.63773 0.54856 0.0
H1475 H 0.05021 0.60533 0.54625 0.0
H1476 H 0.04421 0.52595 0.58938 0.0
H1477 H 0.03325 0.51785 0.62994 0.0
H1478 H 0.99881 0.56004 0.69484 0.0
H1479 H 0.97763 0.598 0.7007 0.0
H1480 H 0.9438 0.54197 0.63724 0.0
H1481 H 0.97612 0.53788 0.57438 0.0
H1482 H 0.0886 0.60001 0.65085 0.0
H1483 H 0.06812 0.65599 0.6142 0.0
C1484 C 0.73228 0.22594 0.62943 0.0
C1485 C 0.75511 0.22685 0.6208 0.0
C1486 C 0.75511 0.21374 0.60299 0.0
C1487 C 0.73237 0.20562 0.60172 0.0
N1488 N 0.71805 0.21275 0.61764 0.0
Co1489 Co 0.68357 0.20605 0.62052 0.0
N1490 N 0.68682 0.17962 0.60261 0.0
C1491 C 0.70476 0.17553 0.58875 0.0
C1492 C 0.70221 0.15623 0.57811 0.0
C1493 C 0.68126 0.14767 0.58562 0.0
C1494 C 0.67214 0.16233 0.60046 0.0
N1495 N 0.64905 0.19927 0.62243 0.0
C1496 C 0.63728 0.18032 0.61874 0.0
C1497 C 0.61308 0.18296 0.62233 0.0
C1498 C 0.60977 0.20424 0.62829 0.0
C1499 C 0.63208 0.21355 0.62802 0.0
N1500 N 0.68121 0.23218 0.63885 0.0
C1501 C 0.66084 0.24251 0.64366 0.0
C1502 C 0.66451 0.25896 0.65826 0.0
C1503 C 0.68865 0.25886 0.66271 0.0
C1504 C 0.69859 0.24242 0.65048 0.0
N1505 N 0.67656 0.22382 0.59428 0.0
C1506 C 0.65737 0.25241 0.56253 0.0
C1507 C 0.67428 0.25944 0.57778 0.0
C1508 C 0.68386 0.24496 0.59314 0.0
C1509 C 0.65152 0.23029 0.56284 0.0
C1510 C 0.66107 0.21643 0.57878 0.0
N1511 N 0.68888 0.18946 0.64755 0.0
C1512 C 0.67603 0.18454 0.6846 0.0
C1513 C 0.6972 0.17425 0.68993 0.0
C1514 C 0.71381 0.17043 0.67323 0.0
C1515 C 0.70915 0.17798 0.65199 0.0
C1516 C 0.67232 0.192 0.66369 0.0
H1517 H 0.72242 0.17562 0.63955 0.0
H1518 H 0.65636 0.2011 0.6613 0.0
H1519 H 0.69638 0.25123 0.6048 0.0
H1520 H 0.65494 0.19991 0.57913 0.0
C1521 C 0.72508 0.18862 0.58842 0.0
C1522 C 0.7247 0.23799 0.64862 0.0
C1523 C 0.64852 0.16021 0.61049 0.0
C1524 C 0.63864 0.23355 0.63743 0.0
H1525 H 0.77021 0.23591 0.62685 0.0
H1526 H 0.77017 0.20986 0.59277 0.0
H1527 H 0.71441 0.14896 0.56669 0.0
H1528 H 0.67339 0.13258 0.58044 0.0
H1529 H 0.59931 0.17079 0.62078 0.0
H1530 H 0.59321 0.21168 0.63328 0.0
H1531 H 0.65113 0.26917 0.66561 0.0
H1532 H 0.69789 0.26974 0.67354 0.0
H1533 H 0.67969 0.27624 0.57816 0.0
H1534 H 0.63884 0.22389 0.55131 0.0
H1535 H 0.66281 0.18794 0.69691 0.0
H1536 H 0.73055 0.1625 0.67673 0.0
C1537 C 0.9705 0.39569 0.87991 0.0
C1538 C 0.95235 0.38189 0.8864 0.0
C1539 C 0.95326 0.38092 0.90838 0.0
C1540 C 0.97183 0.39412 0.91413 0.0
N1541 N 0.98281 0.40369 0.89726 0.0
Co1542 Co 0.01148 0.42321 0.89942 0.0
N1543 N 0.00953 0.42478 0.93184 0.0
C1544 C 0.99455 0.41324 0.94438 0.0
C1545 C 0.99624 0.418 0.96594 0.0
C1546 C 0.01356 0.43344 0.96731 0.0
C1547 C 0.02165 0.43711 0.94644 0.0
N1548 N 0.04056 0.44186 0.90173 0.0
C1549 C 0.05117 0.45143 0.91917 0.0
C1550 C 0.07234 0.46139 0.91329 0.0
C1551 C 0.07522 0.45789 0.89158 0.0
C1552 C 0.05574 0.44598 0.88536 0.0
N1553 N 0.01213 0.42241 0.86683 0.0
C1554 C 0.0301 0.43011 0.85454 0.0
C1555 C 0.02666 0.42682 0.83283 0.0
C1556 C 1.00533 0.4161 0.83118 0.0
C1557 C 0.99687 0.41328 0.85203 0.0
N1558 N 0.99145 0.44953 0.89796 0.0
C1559 C 0.97291 0.49149 0.90382 0.0
C1560 C 0.99081 0.48749 0.8887 0.0
C1561 C 0.99946 0.46656 0.88579 0.0
C1562 C 0.96285 0.47364 0.91458 0.0
C1563 C 0.97242 0.4528 0.91145 0.0
N1564 N 0.03359 0.39779 0.90094 0.0
C1565 C 0.06626 0.38205 0.88089 0.0
C1566 C 0.08049 0.38112 0.89948 0.0
C1567 C 0.06907 0.38488 0.91927 0.0
C1568 C 0.0459 0.39348 0.91965 0.0
C1569 C 0.0425 0.38899 0.88226 0.0
H1570 H 0.03908 0.39777 0.93524 0.0
H1571 H 0.03228 0.38866 0.86763 0.0
H1572 H 0.0138 0.46467 0.87457 0.0
H1573 H 0.96521 0.43965 0.92079 0.0
C1574 C 0.9782 0.39908 0.93525 0.0
C1575 C 0.97567 0.39983 0.85698 0.0
C1576 C 0.04236 0.45085 0.94167 0.0
C1577 C 0.04996 0.44003 0.86413 0.0
H1578 H 0.93984 0.37327 0.87627 0.0
H1579 H 0.94158 0.37185 0.91895 0.0
H1580 H 0.98595 0.41119 0.97908 0.0
H1581 H 0.01986 0.44081 0.98209 0.0
H1582 H 0.08451 0.47013 0.92366 0.0
H1583 H 0.08966 0.46362 0.88148 0.0
H1584 H 0.03847 0.43131 0.81975 0.0
H1585 H 0.99732 0.41024 0.8164 0.0
H1586 H 0.99883 0.50068 0.87976 0.0
H1587 H 0.94861 0.47597 0.92615 0.0
H1588 H 0.07361 0.37814 0.86519 0.0
H1589 H 0.07871 0.38301 0.93431 0.0
C1590 C 0.78379 0.79423 0.1314 0.0
C1591 C 0.76031 0.79449 0.12425 0.0
C1592 C 0.75987 0.80667 0.10578 0.0
C1593 C 0.78291 0.8135 0.10275 0.0
N1594 N 0.79781 0.80635 0.11821 0.0
Co1595 Co 0.8319 0.81441 0.12113 0.0
N1596 N 0.82787 0.84041 0.10271 0.0
C1597 C 0.80993 0.84367 0.08866 0.0
C1598 C 0.81185 0.86288 0.07772 0.0
C1599 C 0.83236 0.87225 0.08525 0.0
C1600 C 0.84186 0.85817 0.10044 0.0
N1601 N 0.86593 0.82273 0.12394 0.0
C1602 C 0.87686 0.84207 0.1202 0.0
C1603 C 0.90105 0.84055 0.12444 0.0
C1604 C 0.90528 0.81956 0.13082 0.0
C1605 C 0.88349 0.80934 0.13017 0.0
N1606 N 0.83541 0.78846 0.13958 0.0
C1607 C 0.85616 0.77858 0.14403 0.0
C1608 C 0.85309 0.76108 0.15749 0.0
C1609 C 0.82894 0.76002 0.16163 0.0
C1610 C 0.81851 0.77701 0.15055 0.0
N1611 N 0.84031 0.79669 0.09526 0.0
C1612 C 0.85985 0.7687 0.06323 0.0
C1613 C 0.8429 0.76134 0.0783 0.0
C1614 C 0.83312 0.77554 0.0938 0.0
C1615 C 0.86569 0.7908 0.06396 0.0
C1616 C 0.85598 0.80436 0.08005 0.0
N1617 N 0.82461 0.83124 0.14736 0.0
C1618 C 0.83306 0.83689 0.18516 0.0
C1619 C 0.81258 0.84938 0.18759 0.0
C1620 C 0.79881 0.85374 0.1691 0.0
C1621 C 0.80505 0.84434 0.1491 0.0
C1622 C 0.83884 0.82824 0.16507 0.0
H1623 H 0.79376 0.8471 0.13524 0.0
H1624 H 0.85449 0.81829 0.16422 0.0
H1625 H 0.82044 0.76909 0.10524 0.0
H1626 H 0.86195 0.82092 0.08066 0.0
C1627 C 0.78982 0.83029 0.08898 0.0
C1628 C 0.79249 0.78143 0.14993 0.0
C1629 C 0.86506 0.86143 0.11098 0.0
C1630 C 0.87795 0.78877 0.13875 0.0
H1631 H 0.74493 0.78698 0.13163 0.0
H1632 H 0.7443 0.81119 0.09651 0.0
H1633 H 0.79939 0.86965 0.06623 0.0
H1634 H 0.83961 0.88758 0.08 0.0
H1635 H 0.91425 0.85322 0.12286 0.0
H1636 H 0.92211 0.81282 0.13606 0.0
H1637 H 0.86684 0.75093 0.16435 0.0
H1638 H 0.82004 0.74826 0.17176 0.0
H1639 H 0.83751 0.74453 0.07837 0.0
H1640 H 0.87841 0.79744 0.05258 0.0
H1641 H 0.8443 0.83332 0.19893 0.0
H1642 H 0.78291 0.86358 0.1703 0.0
C1643 C 0.54293 0.62681 0.37915 0.0
C1644 C 0.56086 0.64084 0.38561 0.0
C1645 C 0.56033 0.64138 0.40762 0.0
C1646 C 0.5422 0.62771 0.41343 0.0
N1647 N 0.53116 0.61822 0.39656 0.0
Co1648 Co 0.50308 0.59799 0.3989 0.0
N1649 N 0.50567 0.59588 0.43126 0.0
C1650 C 0.52039 0.6077 0.44375 0.0
C1651 C 0.519 0.60277 0.4653 0.0
C1652 C 0.50211 0.58694 0.46673 0.0
C1653 C 0.49404 0.58314 0.44588 0.0
N1654 N 0.47461 0.57854 0.40138 0.0
C1655 C 0.46463 0.56835 0.41881 0.0
C1656 C 0.44401 0.55748 0.41297 0.0
C1657 C 0.44077 0.5611 0.39132 0.0
C1658 C 0.45947 0.57402 0.38511 0.0
N1659 N 0.50171 0.59951 0.36634 0.0
C1660 C 0.48364 0.59175 0.35426 0.0
C1661 C 0.48645 0.59562 0.33257 0.0
C1662 C 0.50745 0.60684 0.33072 0.0
C1663 C 0.51637 0.60932 0.35143 0.0
N1664 N 0.52383 0.57212 0.3967 0.0
C1665 C 0.54271 0.53019 0.40259 0.0
C1666 C 0.52481 0.53413 0.38744 0.0
C1667 C 0.51607 0.55507 0.38445 0.0
C1668 C 0.55274 0.54816 0.41318 0.0
C1669 C 0.54297 0.56895 0.41009 0.0
N1670 N 0.48028 0.62285 0.40125 0.0
C1671 C 0.44847 0.6406 0.3816 0.0
C1672 C 0.4334 0.63927 0.3996 0.0
C1673 C 0.44369 0.63339 0.41929 0.0
C1674 C 0.46708 0.62539 0.4198 0.0
C1675 C 0.47211 0.63314 0.38304 0.0
H1676 H 0.4733 0.6199 0.43517 0.0
H1677 H 0.48288 0.63432 0.36875 0.0
H1678 H 0.50177 0.55692 0.37317 0.0
H1679 H 0.55006 0.58213 0.41944 0.0
C1680 C 0.53624 0.62232 0.43456 0.0
C1681 C 0.53738 0.62312 0.35621 0.0
C1682 C 0.47349 0.56916 0.44127 0.0
C1683 C 0.46451 0.5808 0.36397 0.0
H1684 H 0.57296 0.64992 0.37544 0.0
H1685 H 0.57196 0.65051 0.41817 0.0
H1686 H 0.52912 0.60981 0.47841 0.0
H1687 H 0.49595 0.57947 0.48152 0.0
H1688 H 0.43242 0.5481 0.42335 0.0
H1689 H 0.42651 0.55493 0.38128 0.0
H1690 H 0.47448 0.5911 0.31963 0.0
H1691 H 0.51494 0.6132 0.3159 0.0
H1692 H 0.51687 0.52091 0.37852 0.0
H1693 H 0.56704 0.54594 0.4247 0.0
H1694 H 0.4417 0.64628 0.36624 0.0
H1695 H 0.43308 0.6333 0.43391 0.0
C1696 C 0.86048 0.75633 0.75161 0.0
C1697 C 0.87422 0.77462 0.74801 0.0
C1698 C 0.89531 0.77149 0.75879 0.0
C1699 C 0.89327 0.75153 0.76832 0.0
N1700 N 0.87224 0.74192 0.76422 0.0
Co1701 Co 0.8624 0.71293 0.77463 0.0
N1702 N 0.88611 0.71356 0.79839 0.0
C1703 C 0.90556 0.72629 0.79907 0.0
C1704 C 0.91917 0.723 0.81719 0.0
C1705 C 0.90764 0.70711 0.82856 0.0
C1706 C 0.88756 0.70157 0.81669 0.0
N1707 N 0.85284 0.68397 0.78528 0.0
C1708 C 0.85665 0.67447 0.80486 0.0
C1709 C 0.84634 0.65412 0.8054 0.0
C1710 C 0.83598 0.65087 0.78547 0.0
C1711 C 0.84047 0.66936 0.77378 0.0
N1712 N 0.83878 0.71293 0.75083 0.0
C1713 C 0.82772 0.69531 0.74306 0.0
C1714 C 0.81092 0.70052 0.72771 0.0
C1715 C 0.81162 0.72273 0.72581 0.0
C1716 C 0.82889 0.72997 0.74007 0.0
N1717 N 0.88654 0.69875 0.755 0.0
C1718 C 0.91663 0.6748 0.72593 0.0
C1719 C 0.9148 0.66949 0.74797 0.0
C1720 C 0.89994 0.68155 0.76208 0.0
C1721 C 0.90336 0.69287 0.71903 0.0
C1722 C 0.8886 0.7045 0.73363 0.0
N1723 N 0.83755 0.72596 0.79368 0.0
C1724 C 0.79629 0.72547 0.8057 0.0
C1725 C 0.79971 0.74365 0.81865 0.0
C1726 C 0.82283 0.75269 0.81917 0.0
C1727 C 0.8415 0.74358 0.80661 0.0
C1728 C 0.81515 0.71699 0.79353 0.0
H1729 H 0.85899 0.75092 0.8071 0.0
H1730 H 0.81129 0.70309 0.7838 0.0
H1731 H 0.89889 0.67651 0.77873 0.0
H1732 H 0.87838 0.71792 0.72744 0.0
C1733 C 0.90839 0.74322 0.78427 0.0
C1734 C 0.83676 0.75283 0.74219 0.0
C1735 C 0.87144 0.68373 0.82244 0.0
C1736 C 0.82978 0.67536 0.75401 0.0
H1737 H 0.86946 0.78874 0.73866 0.0
H1738 H 0.90988 0.78286 0.76031 0.0
H1739 H 0.93515 0.73158 0.82193 0.0
H1740 H 0.9135 0.70022 0.84371 0.0
H1741 H 0.84645 0.64282 0.81873 0.0
H1742 H 0.82556 0.63702 0.78046 0.0
H1743 H 0.79864 0.68965 0.71972 0.0
H1744 H 0.80066 0.73246 0.71523 0.0
H1745 H 0.9246 0.65582 0.75429 0.0
H1746 H 0.90406 0.69779 0.70226 0.0
H1747 H 0.77894 0.71783 0.80488 0.0
H1748 H 0.82638 0.76671 0.8291 0.0
C1749 C 0.53313 0.63776 0.04576 0.0
C1750 C 0.50955 0.64458 0.0464 0.0
C1751 C 0.50898 0.6628 0.05896 0.0
C1752 C 0.53207 0.66601 0.06552 0.0
N1753 N 0.54712 0.65093 0.05786 0.0
Co1754 Co 0.58155 0.64877 0.0648 0.0
N1755 N 0.57774 0.6665 0.09126 0.0
C1756 C 0.55957 0.68012 0.09522 0.0
C1757 C 0.56175 0.69071 0.11458 0.0
C1758 C 0.58268 0.68339 0.12331 0.0
C1759 C 0.59214 0.66867 0.10872 0.0
N1760 N 0.61587 0.64675 0.07208 0.0
C1761 C 0.62722 0.65017 0.09127 0.0
C1762 C 0.65147 0.64655 0.08901 0.0
C1763 C 0.65526 0.64092 0.06772 0.0
C1764 C 0.63317 0.64135 0.05805 0.0
N1765 N 0.5847 0.63102 0.03834 0.0
C1766 C 0.60522 0.62738 0.02775 0.0
C1767 C 0.60196 0.61395 0.01026 0.0
C1768 C 0.57795 0.609 1.00998 0.0
C1769 C 0.56777 0.6196 0.02739 0.0
N1770 N 0.58855 0.67523 0.0474 0.0
C1771 C 0.60758 0.70738 0.01919 0.0
C1772 C 0.59051 0.69231 0.01207 0.0
C1773 C 0.58096 0.67677 0.02639 0.0
C1774 C 0.61364 0.70671 0.04124 0.0
C1775 C 0.60418 0.69056 0.05491 0.0
N1776 N 0.57596 0.6219 0.08116 0.0
C1777 C 0.586 0.58417 0.08466 0.0
C1778 C 0.56675 0.5806 0.09845 0.0
C1779 C 0.55298 0.59864 0.10468 0.0
C1780 C 0.55761 0.61914 0.09547 0.0
C1781 C 0.59054 0.60474 0.07669 0.0
H1782 H 0.54611 0.63257 0.09944 0.0
H1783 H 0.60549 0.60638 0.06602 0.0
H1784 H 0.56827 0.66527 0.0201 0.0
H1785 H 0.61045 0.68991 0.07136 0.0
C1786 C 0.5391 0.67967 0.08234 0.0
C1787 C 0.54188 0.61956 0.03259 0.0
C1788 C 0.61565 0.65853 0.11119 0.0
C1789 C 0.6272 0.63309 0.03742 0.0
H1790 H 0.49423 0.63718 0.03882 0.0
H1791 H 0.49333 0.6718 0.06381 0.0
H1792 H 0.54922 0.70181 0.12187 0.0
H1793 H 0.59021 0.68849 0.13855 0.0
H1794 H 0.66498 0.64804 0.10139 0.0
H1795 H 0.67202 0.63625 0.06043 0.0
H1796 H 0.61556 0.6076 0.99961 0.0
H1797 H 0.56898 0.5987 0.99844 0.0
H1798 H 0.58493 0.69221 0.99533 0.0
H1799 H 0.62643 0.71811 0.04771 0.0
H1800 H 0.59731 0.57092 0.07959 0.0
H1801 H 0.53815 0.59669 0.11571 0.0
C1802 C 0.6525 0.26421 0.25177 0.0
C1803 C 0.63829 0.24618 0.24836 0.0
C1804 C 0.61752 0.24961 0.25955 0.0
C1805 C 0.62018 0.26948 0.26913 0.0
N1806 N 0.64132 0.27874 0.26467 0.0
Co1807 Co 0.65185 0.30761 0.27489 0.0
N1808 N 0.62856 0.30734 0.299 0.0
C1809 C 0.60889 0.29492 0.30001 0.0
C1810 C 0.59569 0.29841 0.31836 0.0
C1811 C 0.60775 0.31411 0.32952 0.0
C1812 C 0.62772 0.31934 0.31731 0.0
N1813 N 0.66212 0.33643 0.28531 0.0
C1814 C 0.65891 0.34596 0.30495 0.0
C1815 C 0.66964 0.36613 0.30532 0.0
C1816 C 0.67965 0.36925 0.28521 0.0
C1817 C 0.67455 0.35086 0.2736 0.0
N1818 N 0.67505 0.30724 0.25071 0.0
C1819 C 0.68628 0.3247 0.24274 0.0
C1820 C 0.7027 0.31926 0.22713 0.0
C1821 C 0.70156 0.29707 0.22525 0.0
C1822 C 0.6844 0.29007 0.23977 0.0
N1823 N 0.62763 0.32211 0.2557 0.0
C1824 C 0.59731 0.34655 0.22743 0.0
C1825 C 0.59964 0.35168 0.24945 0.0
C1826 C 0.61462 0.33938 0.26316 0.0
C1827 C 0.61017 0.32841 0.22012 0.0
C1828 C 0.62508 0.31651 0.23436 0.0
N1829 N 0.67669 0.29435 0.29364 0.0
C1830 C 0.71781 0.29485 0.3059 0.0
C1831 C 0.71392 0.27734 0.31965 0.0
C1832 C 0.69077 0.26839 0.32011 0.0
C1833 C 0.6724 0.27716 0.30704 0.0
C1834 C 0.69922 0.30304 0.29325 0.0
H1835 H 0.65482 0.27002 0.30765 0.0
H1836 H 0.70335 0.31655 0.28304 0.0
H1837 H 0.61608 0.3443 0.27982 0.0
H1838 H 0.63499 0.30302 0.22791 0.0
C1839 C 0.60549 0.27802 0.28529 0.0
C1840 C 0.67608 0.26732 0.24189 0.0
C1841 C 0.64431 0.33689 0.32278 0.0
C1842 C 0.68477 0.34469 0.25368 0.0
H1843 H 0.64254 0.23203 0.23885 0.0
H1844 H 0.60273 0.23849 0.26128 0.0
H1845 H 0.57965 0.29008 0.32338 0.0
H1846 H 0.60232 0.32109 0.34476 0.0
H1847 H 0.67004 0.37741 0.31867 0.0
H1848 H 0.69025 0.38292 0.28004 0.0
H1849 H 0.71501 0.32995 0.21894 0.0
H1850 H 0.71214 0.2872 0.21448 0.0
H1851 H 0.59015 0.36541 0.25603 0.0
H1852 H 0.60905 0.32364 0.20333 0.0
H1853 H 0.73531 0.3022 0.30484 0.0
H1854 H 0.68695 0.25468 0.33042 0.0
C1855 C 0.9812 0.38455 0.54306 0.0
C1856 C 1.00462 0.37735 0.54207 0.0
C1857 C 1.00583 0.3591 0.55453 0.0
C1858 C 0.98323 0.35622 0.56253 0.0
N1859 N 0.96784 0.37153 0.55591 0.0
Co1860 Co 0.93355 0.37306 0.5639 0.0
N1861 N 0.93849 0.35446 0.58965 0.0
C1862 C 0.9572 0.34128 0.59292 0.0
C1863 C 0.9558 0.33007 0.61201 0.0
C1864 C 0.93479 0.33648 0.6213 0.0
C1865 C 0.9245 0.35129 0.60727 0.0
N1866 N 0.8992 0.37349 0.57171 0.0
C1867 C 0.88825 0.36865 0.59077 0.0
C1868 C 0.86383 0.37151 0.58899 0.0
C1869 C 0.85952 0.37823 0.56811 0.0
C1870 C 0.88148 0.37912 0.55821 0.0
N1871 N 0.92938 0.39221 0.53853 0.0
C1872 C 0.90844 0.39673 0.52906 0.0
C1873 C 0.91095 0.41133 0.51242 0.0
C1874 C 0.93496 0.41616 0.51147 0.0
C1875 C 0.9459 0.40427 0.52762 0.0
N1876 N 0.92672 0.34713 0.54558 0.0
C1877 C 0.90768 0.31523 0.51707 0.0
C1878 C 0.92349 0.33132 0.50972 0.0
C1879 C 0.93301 0.34679 0.52416 0.0
C1880 C 0.90289 0.31485 0.53937 0.0
C1881 C 0.91236 0.33084 0.55319 0.0
N1882 N 0.93886 0.3997 0.5813 0.0
C1883 C 0.92409 0.4354 0.59013 0.0
C1884 C 0.94681 0.44246 0.59583 0.0
C1885 C 0.96512 0.42686 0.59655 0.0
C1886 C 0.96064 0.40543 0.58957 0.0
C1887 C 0.9207 0.41455 0.58232 0.0
H1888 H 0.97516 0.39401 0.58966 0.0
H1889 H 0.90344 0.41142 0.5757 0.0
H1890 H 0.94465 0.35909 0.5177 0.0
H1891 H 0.90704 0.33053 0.56992 0.0
C1892 C 0.97711 0.34225 0.57939 0.0
C1893 C 0.97212 0.40332 0.53114 0.0
C1894 C 0.90052 0.36031 0.61025 0.0
C1895 C 0.88689 0.38958 0.5385 0.0
H1896 H 0.01938 0.38457 0.53344 0.0
H1897 H 0.0216 0.34975 0.55823 0.0
H1898 H 0.96879 0.31902 0.61869 0.0
H1899 H 0.92767 0.33064 0.63647 0.0
H1900 H 0.85059 0.36906 0.60148 0.0
H1901 H 0.84252 0.38299 0.56137 0.0
H1902 H 0.89694 0.41826 0.50262 0.0
H1903 H 0.94349 0.42703 0.50016 0.0
H1904 H 0.92806 0.33225 0.49275 0.0
H1905 H 0.89107 0.30268 0.54599 0.0
H1906 H 0.90928 0.44663 0.58979 0.0
H1907 H 0.983 0.43145 0.60128 0.0
C1908 C 0.85861 0.26997 0.77409 0.0
C1909 C 0.87398 0.25449 0.78247 0.0
C1910 C 0.89574 0.25766 0.77276 0.0
C1911 C 0.89266 0.27513 0.75938 0.0
N1912 N 0.8704 0.28311 0.76016 0.0
Co1913 Co 0.86057 0.31079 0.74707 0.0
N1914 N 0.88603 0.30926 0.72498 0.0
C1915 C 0.90606 0.29745 0.72668 0.0
C1916 C 0.92079 0.29971 0.70908 0.0
C1917 C 0.90933 0.31395 0.6956 0.0
C1918 C 0.88819 0.31964 0.70577 0.0
N1919 N 0.85122 0.3387 0.73395 0.0
C1920 C 0.8561 0.34685 0.714 0.0
C1921 C 0.8454 0.36685 0.71142 0.0
C1922 C 0.8336 0.37124 0.73044 0.0
C1923 C 0.83771 0.35374 0.74364 0.0
N1924 N 0.83487 0.31139 0.7691 0.0
C1925 C 0.82159 0.32886 0.77393 0.0
C1926 C 0.80076 0.32318 0.78415 0.0
C1927 C 0.80116 0.30103 0.78589 0.0
C1928 C 0.82287 0.29407 0.77766 0.0
N1929 N 0.88291 0.32672 0.76709 0.0
C1930 C 0.91382 0.35066 0.79541 0.0
C1931 C 0.91253 0.35509 0.77315 0.0
C1932 C 0.89722 0.34308 0.75944 0.0
C1933 C 0.89919 0.33376 0.80303 0.0
C1934 C 0.88394 0.32217 0.7888 0.0
N1935 N 0.83781 0.29592 0.72733 0.0
C1936 C 0.79776 0.29453 0.71255 0.0
C1937 C 0.80298 0.27612 0.70045 0.0
C1938 C 0.82641 0.26784 0.70197 0.0
C1939 C 0.84346 0.27784 0.71566 0.0
C1940 C 0.81524 0.30426 0.72535 0.0
H1941 H 0.86114 0.27101 0.71684 0.0
H1942 H 0.81012 0.31863 0.73377 0.0
H1943 H 0.89689 0.34724 0.74252 0.0
H1944 H 0.87286 0.30953 0.79545 0.0
C1945 C 0.90875 0.28253 0.74362 0.0
C1946 C 0.83285 0.27152 0.77919 0.0
C1947 C 0.87188 0.33649 0.69785 0.0
C1948 C 0.82481 0.34832 0.7624 0.0
H1949 H 0.86983 0.24197 0.79409 0.0
H1950 H 0.91161 0.24792 0.77469 0.0
H1951 H 0.93757 0.29161 0.70615 0.0
H1952 H 0.91599 0.31982 0.68027 0.0
H1953 H 0.84598 0.3771 0.69727 0.0
H1954 H 0.82223 0.38497 0.73373 0.0
H1955 H 0.78578 0.33361 0.78771 0.0
H1956 H 0.78653 0.29133 0.79173 0.0
H1957 H 0.92334 0.36789 0.76632 0.0
H1958 H 0.89937 0.3296 0.82002 0.0
H1959 H 0.7801 0.3016 0.71197 0.0
H1960 H 0.8314 0.25364 0.69284 0.0
C1961 C 0.9819 0.64093 0.97717 0.0
C1962 C 1.00478 0.64938 0.97836 0.0
C1963 C 1.00509 0.66737 0.96545 0.0
C1964 C 0.98247 0.6689 0.95712 0.0
N1965 N 0.96796 0.65297 0.96394 0.0
Co1966 Co 0.93378 0.64978 0.95619 0.0
N1967 N 0.93764 0.66809 0.93011 0.0
C1968 C 0.95554 0.68216 0.92661 0.0
C1969 C 0.95352 0.69287 0.90728 0.0
C1970 C 0.933 0.68513 0.89809 0.0
C1971 C 0.92359 0.67008 0.91239 0.0
N1972 N 0.89961 0.64727 0.94836 0.0
C1973 C 0.88853 0.65086 0.9291 0.0
C1974 C 0.86432 0.64672 0.93089 0.0
C1975 C 0.86028 0.6405 0.95197 0.0
C1976 C 0.88217 0.64116 0.96199 0.0
N1977 N 0.93062 0.63111 0.98206 0.0
C1978 C 0.90996 0.62609 0.99183 0.0
C1979 C 0.91322 0.61187 1.00869 0.0
C1980 C 0.93742 0.6079 1.00949 0.0
C1981 C 0.94772 0.61993 0.99308 0.0
N1982 N 0.9257 0.67568 0.97402 0.0
C1983 C 0.90624 0.70768 1.00209 0.0
C1984 C 0.92287 0.69235 1.00947 0.0
C1985 C 0.9326 0.67686 0.99524 0.0
C1986 C 0.9007 0.70721 0.97993 0.0
C1987 C 0.91035 0.69112 0.96633 0.0
N1988 N 0.94045 0.62335 0.93928 0.0
C1989 C 0.92951 0.58611 0.93284 0.0
C1990 C 0.95118 0.58212 0.92266 0.0
C1991 C 0.96667 0.59971 0.91917 0.0
C1992 C 0.96086 0.62035 0.92751 0.0
C1993 C 0.92469 0.6065 0.94119 0.0
H1994 H 0.97335 0.63349 0.92549 0.0
H1995 H 0.90854 0.60804 0.9503 0.0
H1996 H 0.94501 0.66523 1.00172 0.0
H1997 H 0.90454 0.6907 0.94973 0.0
C1998 C 0.97554 0.68237 0.94011 0.0
C1999 C 0.97383 0.62198 0.98938 0.0
C2000 C 0.90034 0.65952 0.90946 0.0
C2001 C 0.88803 0.63187 0.98217 0.0
H2002 H 0.01969 0.64316 0.98753 0.0
H2003 H 0.02029 0.67753 0.96182 0.0
H2004 H 0.96586 0.70441 0.90036 0.0
H2005 H 0.92564 0.69022 0.88276 0.0
H2006 H 0.85104 0.64809 0.9183 0.0
H2007 H 0.84355 0.63512 0.95883 0.0
H2008 H 0.89958 0.60454 0.01866 0.0
H2009 H 0.94647 0.59751 0.0209 0.0
H2010 H 0.92801 0.69207 0.02633 0.0
H2011 H 0.88822 0.71878 0.97328 0.0
H2012 H 0.91696 0.57307 0.93562 0.0
H2013 H 0.98357 0.5973 0.91107 0.0
C2014 C 0.65255 0.75677 0.26918 0.0
C2015 C 0.63852 0.77491 0.27248 0.0
C2016 C 0.61774 0.77156 0.26129 0.0
C2017 C 0.62022 0.75162 0.25182 0.0
N2018 N 0.64124 0.74223 0.25635 0.0
Co2019 Co 0.65162 0.71335 0.24606 0.0
N2020 N 0.62837 0.71368 0.2219 0.0
C2021 C 0.60882 0.72623 0.22088 0.0
C2022 C 0.59557 0.72278 0.20257 0.0
C2023 C 0.60745 0.70697 0.19143 0.0
C2024 C 0.62736 0.70163 0.2036 0.0
N2025 N 0.66176 0.68451 0.23552 0.0
C2026 C 0.65838 0.67491 0.21592 0.0
C2027 C 0.66901 0.65471 0.21555 0.0
C2028 C 0.67911 0.65162 0.23562 0.0
C2029 C 0.67416 0.67006 0.2472 0.0
N2030 N 0.6748 0.71363 0.27024 0.0
C2031 C 0.68598 0.69613 0.27814 0.0
C2032 C 0.70233 0.7015 0.29382 0.0
C2033 C 0.70123 0.72367 0.29583 0.0
C2034 C 0.68417 0.73075 0.28129 0.0
N2035 N 0.62725 0.69881 0.26531 0.0
C2036 C 0.59652 0.67457 0.29376 0.0
C2037 C 0.60945 0.69279 0.30091 0.0
C2038 C 0.62455 0.70454 0.28662 0.0
C2039 C 0.59905 0.66929 0.27176 0.0
C2040 C 0.61421 0.68147 0.25798 0.0
N2041 N 0.67663 0.72674 0.22737 0.0
C2042 C 0.71795 0.7266 0.21549 0.0
C2043 C 0.71442 0.74468 0.2024 0.0
C2044 C 0.69125 0.75357 0.20187 0.0
C2045 C 0.67262 0.74434 0.21442 0.0
C2046 C 0.69913 0.71801 0.22768 0.0
H2047 H 0.65507 0.75151 0.21382 0.0
H2048 H 0.70306 0.70418 0.23751 0.0
H2049 H 0.63447 0.71806 0.29302 0.0
H2050 H 0.61573 0.67643 0.24136 0.0
C2051 C 0.60555 0.74314 0.23561 0.0
C2052 C 0.67603 0.75352 0.27919 0.0
C2053 C 0.64371 0.6839 0.19811 0.0
C2054 C 0.68441 0.6762 0.26712 0.0
H2055 H 0.64288 0.78908 0.28192 0.0
H2056 H 0.60308 0.78277 0.25947 0.0
H2057 H 0.5796 0.7312 0.19757 0.0
H2058 H 0.60191 0.69998 0.17623 0.0
H2059 H 0.66926 0.64338 0.20225 0.0
H2060 H 0.68963 0.63792 0.24079 0.0
H2061 H 0.71457 0.69075 0.302 0.0
H2062 H 0.71177 0.73349 0.30668 0.0
H2063 H 0.60821 0.69776 0.31763 0.0
H2064 H 0.58951 0.65555 0.26523 0.0
H2065 H 0.73537 0.7191 0.21637 0.0
H2066 H 0.68761 0.76753 0.19188 0.0
C2067 C 0.53472 0.38091 0.47723 0.0
C2068 C 0.51196 0.37221 0.47865 0.0
C2069 C 0.51183 0.35408 0.46596 0.0
C2070 C 0.53443 0.35271 0.45753 0.0
N2071 N 0.54877 0.36886 0.4641 0.0
Co2072 Co 0.58291 0.37225 0.45623 0.0
N2073 N 0.57919 0.35361 0.43037 0.0
C2074 C 0.5614 0.3394 0.42706 0.0
C2075 C 0.56354 0.32841 0.40791 0.0
C2076 C 0.58405 0.33609 0.39864 0.0
C2077 C 0.59334 0.35139 0.41272 0.0
N2078 N 0.61706 0.37495 0.44834 0.0
C2079 C 0.62825 0.37103 0.42919 0.0
C2080 C 0.65242 0.37533 0.43094 0.0
C2081 C 0.65634 0.38199 0.4519 0.0
C2082 C 0.63441 0.38142 0.46187 0.0
N2083 N 0.58584 0.39125 0.48188 0.0
C2084 C 0.60645 0.39668 0.49151 0.0
C2085 C 0.60305 0.4113 0.50798 0.0
C2086 C 0.57882 0.41513 0.50868 0.0
C2087 C 0.56862 0.40258 0.49263 0.0
N2088 N 0.5913 0.34655 0.47431 0.0
C2089 C 0.61087 0.31448 0.50235 0.0
C2090 C 0.59437 0.3299 0.50981 0.0
C2091 C 0.5846 0.34544 0.4956 0.0
C2092 C 0.6163 0.31496 0.48017 0.0
C2093 C 0.60661 0.33106 0.4666 0.0
N2094 N 0.57595 0.39848 0.439 0.0
C2095 C 0.58641 0.43581 0.43222 0.0
C2096 C 0.56477 0.43949 0.42188 0.0
C2097 C 0.54955 0.42167 0.4185 0.0
C2098 C 0.55559 0.40116 0.42709 0.0
C2099 C 0.59148 0.41553 0.44077 0.0
H2100 H 0.54327 0.38787 0.42518 0.0
H2101 H 0.60762 0.41422 0.44991 0.0
H2102 H 0.57227 0.35712 0.50213 0.0
H2103 H 0.61232 0.33143 0.44997 0.0
C2104 C 0.54144 0.33915 0.44062 0.0
C2105 C 0.54251 0.40021 0.48904 0.0
C2106 C 0.61661 0.36189 0.40972 0.0
C2107 C 0.62843 0.39096 0.4819 0.0
H2108 H 0.49701 0.37839 0.48781 0.0
H2109 H 0.49675 0.34372 0.46252 0.0
H2110 H 0.55131 0.31667 0.40118 0.0
H2111 H 0.59151 0.33077 0.38343 0.0
H2112 H 0.66577 0.37376 0.41842 0.0
H2113 H 0.67302 0.38756 0.45869 0.0
H2114 H 0.61662 0.41903 0.5177 0.0
H2115 H 0.5697 0.42578 0.5198 0.0
H2116 H 0.58932 0.3302 0.52669 0.0
H2117 H 0.62869 0.30336 0.47346 0.0
H2118 H 0.59877 0.449 0.43495 0.0
H2119 H 0.53267 0.42381 0.41032 0.0
C2120 C 0.72139 0.8913 0.64509 0.0
C2121 C 0.70419 0.88483 0.63036 0.0
C2122 C 0.70468 0.86281 0.62988 0.0
C2123 C 0.72208 0.85701 0.64427 0.0
N2124 N 0.73272 0.8739 0.65411 0.0
Co2125 Co 0.75979 0.87163 0.67534 0.0
N2126 N 0.75669 0.83933 0.67776 0.0
C2127 C 0.74238 0.82679 0.66559 0.0
C2128 C 0.74278 0.80539 0.67126 0.0
C2129 C 0.75865 0.8041 0.68791 0.0
C2130 C 0.76728 0.82485 0.69133 0.0
N2131 N 0.78723 0.86925 0.69591 0.0
C2132 C 0.79672 0.85183 0.70645 0.0
C2133 C 0.81703 0.85767 0.7178 0.0
C2134 C 0.82052 0.87929 0.71421 0.0
C2135 C 0.80236 0.88548 0.70071 0.0
N2136 N 0.76179 0.90413 0.67328 0.0
C2137 C 0.77987 0.91614 0.68112 0.0
C2138 C 0.77732 0.93783 0.67708 0.0
C2139 C 0.75648 0.93974 0.66566 0.0
C2140 C 0.7474 0.91906 0.66325 0.0
N2141 N 0.73793 0.87453 0.70035 0.0
C2142 C 0.71866 0.86929 0.74206 0.0
C2143 C 0.73567 0.88518 0.73786 0.0
C2144 C 0.74472 0.88775 0.717 0.0
C2145 C 0.70938 0.85771 0.72444 0.0
C2146 C 0.71925 0.86062 0.70366 0.0
N2147 N 0.7836 0.86862 0.6515 0.0
C2148 C 0.81436 0.88847 0.63252 0.0
C2149 C 0.8306 0.87158 0.63573 0.0
C2150 C 0.82163 0.85195 0.64338 0.0
C2151 C 0.79821 0.8508 0.65113 0.0
C2152 C 0.79068 0.8863 0.63976 0.0
H2153 H 0.79323 0.83587 0.65855 0.0
H2154 H 0.77897 0.89981 0.63746 0.0
H2155 H 0.75867 0.89938 0.71501 0.0
H2156 H 0.7128 0.8506 0.6907 0.0
C2157 C 0.72746 0.83589 0.65017 0.0
C2158 C 0.72664 0.91424 0.6492 0.0
C2159 C 0.7878 0.82935 0.70542 0.0
C2160 C 0.7982 0.90648 0.69309 0.0
H2161 H 0.69255 0.895 0.62083 0.0
H2162 H 0.69341 0.85225 0.62039 0.0
H2163 H 0.7326 0.7923 0.66422 0.0
H2164 H 0.76386 0.78941 0.69612 0.0
H2165 H 0.82832 0.84729 0.72745 0.0
H2166 H 0.83475 0.88926 0.72055 0.0
H2167 H 0.78924 0.95075 0.6818 0.0
H2168 H 0.7492 0.95457 0.65917 0.0
H2169 H 0.74295 0.8948 0.7509 0.0
H2170 H 0.6958 0.84552 0.72696 0.0
H2171 H 0.82023 0.90368 0.62568 0.0
H2172 H 0.8333 0.83815 0.6453 0.0
C2173 C 0.2247 0.6301 0.37658 0.0
C2174 C 0.20906 0.63651 0.39271 0.0
C2175 C 0.20954 0.65852 0.39314 0.0
C2176 C 0.22539 0.66438 0.37734 0.0
N2177 N 0.2353 0.64753 0.36685 0.0
Co2178 Co 0.25862 0.64994 0.3422 0.0
N2179 N 0.26255 0.68205 0.34607 0.0
C2180 C 0.2496 0.69453 0.3595 0.0
C2181 C 0.25585 0.71593 0.35908 0.0
C2182 C 0.27376 0.71731 0.34422 0.0
C2183 C 0.27744 0.69657 0.33637 0.0
N2184 N 0.28125 0.65252 0.31726 0.0
C2185 C 0.29365 0.66983 0.30928 0.0
C2186 C 0.3063 0.66418 0.29091 0.0
C2187 C 0.30147 0.64282 0.28701 0.0
C2188 C 0.28608 0.63658 0.30311 0.0
N2189 N 0.25515 0.61758 0.33937 0.0
C2190 C 0.26347 0.60586 0.32264 0.0
C2191 C 0.25795 0.58429 0.32411 0.0
C2192 C 0.24499 0.58216 0.34278 0.0
C2193 C 0.2432 0.60261 0.35175 0.0
N2194 N 0.23218 0.65441 0.32085 0.0
C2195 C 0.21511 0.65525 0.27797 0.0
C2196 C 0.21236 0.63678 0.29081 0.0
C2197 C 0.21996 0.63706 0.31248 0.0
C2198 C 0.22267 0.67417 0.28817 0.0
C2199 C 0.23098 0.67347 0.30949 0.0
N2200 N 0.28625 0.6455 0.36175 0.0
C2201 C 0.32641 0.63159 0.36466 0.0
C2202 C 0.33162 0.64562 0.38164 0.0
C2203 C 0.31299 0.65852 0.38968 0.0
C2204 C 0.29043 0.65823 0.37949 0.0
C2205 C 0.30384 0.63162 0.35522 0.0
H2206 H 0.27679 0.66891 0.38547 0.0
H2207 H 0.30136 0.62105 0.34178 0.0
H2208 H 0.21748 0.62251 0.32165 0.0
H2209 H 0.23804 0.68828 0.31567 0.0
C2210 C 0.23255 0.68544 0.37302 0.0
C2211 C 0.22787 0.60725 0.37071 0.0
C2212 C 0.29307 0.69212 0.31787 0.0
C2213 C 0.277 0.61569 0.30629 0.0
H2214 H 0.19824 0.62631 0.403 0.0
H2215 H 0.19969 0.66903 0.40389 0.0
H2216 H 0.24824 0.72899 0.36842 0.0
H2217 H 0.28254 0.73206 0.33922 0.0
H2218 H 0.31754 0.67454 0.28117 0.0
H2219 H 0.3083 0.63303 0.27392 0.0
H2220 H 0.26262 0.57161 0.31285 0.0
H2221 H 0.23704 0.56739 0.34878 0.0
H2222 H 0.2055 0.62196 0.28391 0.0
H2223 H 0.22397 0.68912 0.27914 0.0
H2224 H 0.34003 0.62099 0.35822 0.0
H2225 H 0.31607 0.66922 0.40322 0.0
C2226 C 0.61168 1.00115 0.51518 0.0
C2227 C 0.62517 0.99842 0.49658 0.0
C2228 C 0.64632 1.00908 0.49991 0.0
C2229 C 0.64458 0.01787 0.52021 0.0
N2230 N 0.62364 0.01341 0.52984 0.0
Co2231 Co 0.61344 0.02417 0.55859 0.0
N2232 N 0.63715 0.04797 0.55808 0.0
C2233 C 0.65683 0.04855 0.54567 0.0
C2234 C 0.67023 0.06685 0.54888 0.0
C2235 C 0.65826 0.07844 0.56434 0.0
C2236 C 0.63813 0.06654 0.5697 0.0
N2237 N 0.60321 0.03526 0.58714 0.0
C2238 C 0.60648 0.05511 0.59623 0.0
C2239 C 0.59556 0.05603 0.61629 0.0
C2240 C 0.58535 0.03606 0.6198 0.0
C2241 C 0.59051 0.02399 0.60172 0.0
N2242 N 0.58989 1.00029 0.55865 0.0
C2243 C 0.57887 0.99252 0.57631 0.0
C2244 C 0.56288 0.97639 0.5713 0.0
C2245 C 0.56404 0.97398 0.54918 0.0
C2246 C 0.58064 0.98884 0.5418 0.0
N2247 N 0.63731 1.00483 0.57341 0.0
C2248 C 0.66763 0.97648 0.59788 0.0
C2249 C 0.65411 0.96904 0.58017 0.0
C2250 C 0.63934 0.98333 0.56819 0.0
C2251 C 0.6659 0.99868 0.60255 0.0
C2252 C 0.65078 0.01239 0.59034 0.0
N2253 N 0.58921 0.04308 0.54482 0.0
C2254 C 0.54815 0.05528 0.5434 0.0
C2255 C 0.55318 0.06942 0.52636 0.0
C2256 C 0.5769 0.07019 0.51884 0.0
C2257 C 0.59455 0.05675 0.5281 0.0
C2258 C 0.56626 0.04262 0.55248 0.0
H2259 H 0.61248 0.05743 0.52179 0.0
H2260 H 0.56146 0.03234 0.56579 0.0
H2261 H 0.62915 0.97681 0.55491 0.0
H2262 H 0.64967 0.02915 0.595 0.0
C2263 C 0.65967 0.0338 0.5287 0.0
C2264 C 0.58825 0.99097 0.51894 0.0
C2265 C 0.6213 0.07264 0.58687 0.0
C2266 C 0.5803 1.00392 0.59602 0.0
H2267 H 0.62028 0.98978 0.48207 0.0
H2268 H 0.66067 0.01115 0.4884 0.0
H2269 H 0.68625 0.07164 0.54038 0.0
H2270 H 0.66378 0.09381 0.57097 0.0
H2271 H 0.59516 0.06964 0.62724 0.0
H2272 H 0.5746 0.03127 0.6335 0.0
H2273 H 0.55086 0.96815 0.58223 0.0
H2274 H 0.55378 0.96273 0.53956 0.0
H2275 H 0.6548 0.95215 0.57568 0.0
H2276 H 0.67593 1.0054 0.61589 0.0
H2277 H 0.53022 0.0541 0.54979 0.0
H2278 H 0.58169 0.08092 0.50573 0.0
C2279 C 0.29425 0.39037 0.87493 0.0
C2280 C 0.31221 0.38378 0.88884 0.0
C2281 C 0.31132 0.36179 0.88958 0.0
C2282 C 0.29295 0.35612 0.87614 0.0
N2283 N 0.28208 0.37306 0.86663 0.0
Co2284 Co 0.25358 0.371 0.84691 0.0
N2285 N 0.25531 0.33856 0.84535 0.0
C2286 C 0.27021 0.32595 0.85686 0.0
C2287 C 0.26839 0.30439 0.85212 0.0
C2288 C 0.25105 0.30307 0.83673 0.0
C2289 C 0.2431 0.32398 0.83305 0.0
N2290 N 0.22464 0.36881 0.8281 0.0
C2291 C 0.21391 0.35139 0.81857 0.0
C2292 C 0.19288 0.35739 0.80848 0.0
C2293 C 0.19022 0.37914 0.81184 0.0
C2294 C 0.20968 0.38528 0.82381 0.0
N2295 N 0.25319 0.40362 0.84768 0.0
C2296 C 0.23546 0.41601 0.83974 0.0
C2297 C 0.23905 0.43771 0.843 0.0
C2298 C 0.2602 0.43926 0.85398 0.0
C2299 C 0.26841 0.41837 0.85697 0.0
N2300 N 0.27386 0.37235 0.82068 0.0
C2301 C 0.29261 0.36633 0.77879 0.0
C2302 C 0.27482 0.38155 0.78271 0.0
C2303 C 0.26608 0.38454 0.8036 0.0
C2304 C 0.30245 0.35552 0.79668 0.0
C2305 C 0.29279 0.35873 0.81748 0.0
N2306 N 0.23122 0.36959 0.87219 0.0
C2307 C 0.19832 0.38956 0.88766 0.0
C2308 C 0.18425 0.37086 0.88881 0.0
C2309 C 0.19582 0.35112 0.88524 0.0
C2310 C 0.21903 0.35082 0.87667 0.0
C2311 C 0.2221 0.3883 0.88074 0.0
H2312 H 0.226 0.33524 0.8726 0.0
H2313 H 0.23217 0.40303 0.88094 0.0
H2314 H 0.25183 0.39586 0.8054 0.0
H2315 H 0.29985 0.34938 0.83066 0.0
C2316 C 0.28655 0.33503 0.87107 0.0
C2317 C 0.28923 0.41334 0.87086 0.0
C2318 C 0.22247 0.32882 0.81929 0.0
C2319 C 0.21562 0.4065 0.8297 0.0
H2320 H 0.3246 0.39386 0.89767 0.0
H2321 H 0.32288 0.35115 0.89868 0.0
H2322 H 0.27857 0.29121 0.85894 0.0
H2323 H 0.24465 0.28831 0.82938 0.0
H2324 H 0.18067 0.34705 0.79973 0.0
H2325 H 0.17593 0.38932 0.80599 0.0
H2326 H 0.2274 0.45085 0.83836 0.0
H2327 H 0.26821 0.45402 0.85994 0.0
H2328 H 0.26697 0.39054 0.76949 0.0
H2329 H 0.31662 0.34387 0.79442 0.0
H2330 H 0.19085 0.40524 0.89141 0.0
H2331 H 0.1863 0.33602 0.88729 0.0
C2332 C 0.40349 0.5192 0.51362 0.0
C2333 C 0.39 0.52218 0.49508 0.0
C2334 C 0.36889 0.51142 0.49829 0.0
C2335 C 0.37065 0.5024 0.5185 0.0
N2336 N 0.39155 0.50683 0.52818 0.0
Co2337 Co 0.40163 0.49615 0.55697 0.0
N2338 N 0.37809 0.47223 0.5563 0.0
C2339 C 0.3585 0.47157 0.54378 0.0
C2340 C 0.3451 0.45327 0.54697 0.0
C2341 C 0.35694 0.44177 0.56256 0.0
C2342 C 0.37701 0.45374 0.56802 0.0
N2343 N 0.4117 0.48516 0.58561 0.0
C2344 C 0.4083 0.46537 0.5948 0.0
C2345 C 0.41897 0.46457 0.61497 0.0
C2346 C 0.42912 0.48457 0.61844 0.0
C2347 C 0.42419 0.49653 0.60024 0.0
N2348 N 0.42498 0.5202 0.55715 0.0
C2349 C 0.43582 0.52804 0.57483 0.0
C2350 C 0.45174 0.54425 0.56986 0.0
C2351 C 0.45072 0.54664 0.54772 0.0
C2352 C 0.43426 0.53169 0.54031 0.0
N2353 N 0.37746 0.51532 0.57169 0.0
C2354 C 0.347 0.54343 0.59632 0.0
C2355 C 0.36034 0.55098 0.57854 0.0
C2356 C 0.37523 0.53681 0.56649 0.0
C2357 C 0.34893 0.52124 0.60097 0.0
C2358 C 0.36408 0.50764 0.58865 0.0
N2359 N 0.42622 0.47739 0.54337 0.0
C2360 C 0.46741 0.4654 0.54249 0.0
C2361 C 0.46285 0.45133 0.52531 0.0
C2362 C 0.43926 0.45046 0.51745 0.0
C2363 C 0.4213 0.46373 0.52654 0.0
C2364 C 0.44904 0.47795 0.55132 0.0
H2365 H 0.40348 0.46294 0.52 0.0
H2366 H 0.45354 0.48823 0.56471 0.0
H2367 H 0.38537 0.54343 0.55321 0.0
H2368 H 0.36531 0.49089 0.5933 0.0
C2369 C 0.35561 0.48638 0.52686 0.0
C2370 C 0.42685 0.52939 0.51743 0.0
C2371 C 0.39356 0.4478 0.58544 0.0
C2372 C 0.43432 0.51665 0.59456 0.0
H2373 H 0.39489 0.53112 0.48073 0.0
H2374 H 0.35453 0.50948 0.48678 0.0
H2375 H 0.32912 0.44845 0.53844 0.0
H2376 H 0.35134 0.42644 0.56925 0.0
H2377 H 0.4192 0.45104 0.62603 0.0
H2378 H 0.43965 0.48946 0.63224 0.0
H2379 H 0.46364 0.55257 0.58082 0.0
H2380 H 0.46099 0.55791 0.53812 0.0
H2381 H 0.35951 0.56788 0.57409 0.0
H2382 H 0.33907 0.51444 0.61439 0.0
H2383 H 0.4852 0.46664 0.54917 0.0
H2384 H 0.43482 0.43977 0.50421 0.0
C2385 C 0.793 0.12968 0.14438 0.0
C2386 C 0.81098 0.13629 0.13048 0.0
C2387 C 0.8105 0.15831 0.13019 0.0
C2388 C 0.79234 0.16396 0.14387 0.0
N2389 N 0.78123 0.14699 0.15313 0.0
Co2390 Co 0.75304 0.14908 0.17326 0.0
N2391 N 0.75552 0.18146 0.17555 0.0
C2392 C 0.77042 0.19407 0.16402 0.0
C2393 C 0.76908 0.21556 0.16919 0.0
C2394 C 0.75203 0.21683 0.18487 0.0
C2395 C 0.74376 0.19597 0.18829 0.0
N2396 N 0.72447 0.15132 0.19259 0.0
C2397 C 0.71434 0.16866 0.20276 0.0
C2398 C 0.69365 0.16264 0.21346 0.0
C2399 C 0.69057 0.14098 0.2098 0.0
C2400 C 0.7094 0.13493 0.19699 0.0
N2401 N 0.7518 0.11651 0.17157 0.0
C2402 C 0.7338 0.10428 0.17928 0.0
C2403 C 0.73669 0.08262 0.17528 0.0
C2404 C 0.75766 0.08094 0.16402 0.0
C2405 C 0.76649 0.10172 0.16164 0.0
N2406 N 0.77367 0.14684 0.19923 0.0
C2407 C 0.79209 0.15283 0.24131 0.0
C2408 C 0.77437 0.13752 0.23721 0.0
C2409 C 0.76586 0.13448 0.2162 0.0
C2410 C 0.80216 0.16356 0.22345 0.0
C2411 C 0.79266 0.16038 0.20257 0.0
N2412 N 0.73034 0.1515 0.14832 0.0
C2413 C 0.69826 0.13201 0.13075 0.0
C2414 C 0.68341 0.15015 0.13199 0.0
C2415 C 0.69394 0.16979 0.13771 0.0
C2416 C 0.71738 0.17015 0.14562 0.0
C2417 C 0.72193 0.13329 0.13817 0.0
H2418 H 0.72385 0.18553 0.15089 0.0
H2419 H 0.73251 0.1189 0.13703 0.0
H2420 H 0.75168 0.12309 0.21422 0.0
H2421 H 0.79983 0.1698 0.18947 0.0
C2422 C 0.78638 0.18504 0.14943 0.0
C2423 C 0.78742 0.10668 0.14783 0.0
C2424 C 0.72305 0.1912 0.20203 0.0
C2425 C 0.71459 0.11384 0.19018 0.0
H2426 H 0.82309 0.12622 0.12133 0.0
H2427 H 0.82218 0.16897 0.12121 0.0
H2428 H 0.77938 0.22874 0.16244 0.0
H2429 H 0.74597 0.23155 0.19253 0.0
H2430 H 0.6819 0.17292 0.22276 0.0
H2431 H 0.67632 0.13084 0.21584 0.0
H2432 H 0.72475 0.0696 0.17971 0.0
H2433 H 0.76518 0.0662 0.15756 0.0
H2434 H 0.76638 0.12851 0.25036 0.0
H2435 H 0.81632 0.17523 0.22579 0.0
H2436 H 0.6913 0.11667 0.12517 0.0
H2437 H 0.68352 0.18451 0.1377 0.0
C2438 C 0.61211 0.01785 1.00669 0.0
C2439 C 0.62548 0.02024 0.0254 0.0
C2440 C 0.64652 1.00947 0.02206 0.0
C2441 C 0.64482 1.00095 1.00165 0.0
N2442 N 0.62402 1.0057 0.99195 0.0
Co2443 Co 0.61391 0.99546 0.963 0.0
N2444 N 0.63732 0.97146 0.96336 0.0
C2445 C 0.65686 0.97052 0.97592 0.0
C2446 C 0.67017 0.95224 0.97247 0.0
C2447 C 0.65832 0.94104 0.95667 0.0
C2448 C 0.63835 0.95316 0.95136 0.0
N2449 N 0.60384 0.98492 0.93418 0.0
C2450 C 0.60713 0.96525 0.92473 0.0
C2451 C 0.59648 0.96477 0.90455 0.0
C2452 C 0.58646 0.98484 0.90133 0.0
C2453 C 0.59145 0.99653 0.91968 0.0
N2454 N 0.5907 0.01957 0.9631 0.0
C2455 C 0.57997 0.02771 0.94549 0.0
C2456 C 0.56422 0.04397 0.95063 0.0
C2457 C 0.56526 0.04608 0.97279 0.0
C2458 C 0.58154 0.03092 0.98005 0.0
N2459 N 0.63816 0.01481 0.9486 0.0
C2460 C 0.66844 0.04342 0.92432 0.0
C2461 C 0.65524 0.05061 0.94231 0.0
C2462 C 0.64045 0.0362 0.95418 0.0
C2463 C 0.6665 0.02132 0.91929 0.0
C2464 C 0.65146 1.00746 0.93145 0.0
N2465 N 0.58916 0.97661 0.97633 0.0
C2466 C 0.5479 0.96474 0.97685 0.0
C2467 C 0.55219 0.95071 0.9941 0.0
C2468 C 0.57563 0.94984 1.00228 0.0
C2469 C 0.59379 0.963 0.99328 0.0
C2470 C 0.56643 0.97724 0.96818 0.0
H2471 H 0.61155 0.96219 0.99998 0.0
H2472 H 0.56213 0.98754 0.95476 0.0
H2473 H 0.63039 0.04256 0.96763 0.0
H2474 H 0.65019 0.99078 0.92653 0.0
C2475 C 0.65978 0.98501 0.99307 0.0
C2476 C 0.58888 0.0283 1.00292 0.0
C2477 C 0.6218 0.94754 0.93385 0.0
C2478 C 0.58144 0.01661 0.92561 0.0
H2479 H 0.62059 0.02875 0.03999 0.0
H2480 H 0.66075 1.00712 0.03362 0.0
H2481 H 0.68609 0.94723 0.98096 0.0
H2482 H 0.66384 0.9258 0.94974 0.0
H2483 H 0.59618 0.95138 0.89331 0.0
H2484 H 0.57598 0.98996 0.88758 0.0
H2485 H 0.55245 0.05252 0.93975 0.0
H2486 H 0.55511 0.05732 0.98251 0.0
H2487 H 0.65609 0.06743 0.94706 0.0
H2488 H 0.67628 0.0148 0.9057 0.0
H2489 H 0.53021 0.96595 0.96996 0.0
H2490 H 0.5798 0.93921 0.01564 0.0
C2491 C 0.90647 0.99597 0.50043 0.0
C2492 C 0.89072 0.98721 0.51542 0.0
C2493 C 0.86927 0.99747 0.51252 0.0
C2494 C 0.87288 0.01148 0.49564 0.0
N2495 N 0.8952 0.01062 0.48776 0.0
Co2496 Co 0.90523 0.02382 0.46016 0.0
N2497 N 0.88013 0.04626 0.46199 0.0
C2498 C 0.86022 0.04479 0.47402 0.0
C2499 C 0.84567 0.0625 0.4719 0.0
C2500 C 0.85708 0.07584 0.45748 0.0
C2501 C 0.878 0.06544 0.45153 0.0
N2502 N 0.91438 0.03684 0.43209 0.0
C2503 C 0.90935 0.05669 0.42375 0.0
C2504 C 0.91973 0.05905 0.40357 0.0
C2505 C 0.93151 0.04 0.39926 0.0
C2506 C 0.92767 0.027 0.41697 0.0
N2507 N 0.93076 1.00166 0.45943 0.0
C2508 C 0.94426 0.9971 0.44204 0.0
C2509 C 0.96506 0.98689 0.44775 0.0
C2510 C 0.96437 0.98481 0.46987 0.0
C2511 C 0.94256 0.99288 0.47673 0.0
N2512 N 0.88257 1.004 0.44428 0.0
C2513 C 0.85173 0.97581 0.42004 0.0
C2514 C 0.86722 0.96792 0.43615 0.0
C2515 C 0.8823 0.98211 0.44798 0.0
C2516 C 0.85209 0.99829 0.41662 0.0
C2517 C 0.8675 0.01192 0.42866 0.0
N2518 N 0.92861 0.04322 0.47499 0.0
C2519 C 0.96855 0.05851 0.47495 0.0
C2520 C 0.96514 0.06807 0.49507 0.0
C2521 C 0.94268 0.06514 0.50502 0.0
C2522 C 0.92464 0.05269 0.49469 0.0
C2523 C 0.9504 0.04637 0.46535 0.0
H2524 H 0.90766 0.05053 0.50266 0.0
H2525 H 0.95455 0.03923 0.45006 0.0
H2526 H 0.89391 0.97524 0.46006 0.0
H2527 H 0.86732 0.02897 0.42507 0.0
C2528 C 0.85717 0.02764 0.48862 0.0
C2529 C 0.93217 0.99077 0.49912 0.0
C2530 C 0.89385 0.07303 0.43415 0.0
C2531 C 0.94086 1.00845 0.42251 0.0
H2532 H 0.89444 0.97502 0.52747 0.0
H2533 H 0.85322 0.9954 0.52201 0.0
H2534 H 0.82894 0.06553 0.48006 0.0
H2535 H 0.85045 0.09114 0.45155 0.0
H2536 H 0.91902 0.07309 0.39318 0.0
H2537 H 0.94272 0.0366 0.38545 0.0
H2538 H 0.98012 0.9834 0.43738 0.0
H2539 H 0.97883 0.97876 0.47963 0.0
H2540 H 0.86775 0.95077 0.43957 0.0
H2541 H 0.84062 1.00535 0.40446 0.0
H2542 H 0.98542 0.06033 0.4666 0.0
H2543 H 0.93914 0.07236 0.52061 0.0
C2544 C 0.14875 0.22159 0.49933 0.0
C2545 C 0.12354 0.22188 0.50247 0.0
C2546 C 0.12094 0.24986 0.47386 0.0
C2547 C 0.14629 0.25146 0.47267 0.0
N2548 N 0.18409 0.24142 0.48824 0.0
N2549 N 0.08639 0.24015 0.49546 0.0
C2550 C 0.1601 0.23803 0.48655 0.0
C2551 C 0.10987 0.23713 0.49048 0.0
N2552 N 0.16192 0.20505 0.50772 0.0
N2553 N 0.10724 0.25971 0.45852 0.0
H2554 H 0.07781 0.23176 0.50784 0.0
H2555 H 0.07615 0.25252 0.48884 0.0
H2556 H 0.11445 0.26839 0.44564 0.0
H2557 H 0.0889 0.25732 0.45726 0.0
H2558 H 0.17989 0.20277 0.50413 0.0
H2559 H 0.15439 0.1923 0.51637 0.0
H2560 H 0.19469 0.23368 0.49968 0.0
H2561 H 0.19296 0.25358 0.47978 0.0
C2562 C 0.05735 0.85192 0.7051 0.0
C2563 C 0.08079 0.85851 0.71127 0.0
C2564 C 0.07615 0.89077 0.68741 0.0
C2565 C 0.05236 0.88466 0.68198 0.0
N2566 N 0.01929 0.86076 0.68803 0.0
N2567 N 0.11121 0.88592 0.71023 0.0
C2568 C 0.04274 0.86559 0.69156 0.0
C2569 C 0.08971 0.87849 0.70299 0.0
N2570 N 0.04916 0.83227 0.71191 0.0
N2571 N 0.08619 0.90799 0.67699 0.0
H2572 H 0.12207 0.87709 0.72067 0.0
H2573 H 0.11768 0.90137 0.70709 0.0
H2574 H 0.07676 0.91764 0.66616 0.0
H2575 H 0.10419 0.91197 0.67795 0.0
H2576 H 0.03359 0.8251 0.70625 0.0
H2577 H 0.05878 0.82236 0.72238 0.0
H2578 H 0.01011 0.84853 0.69601 0.0
H2579 H 0.00835 0.87017 0.67816 0.0
C2580 C 0.36757 0.79662 1.00063 0.0
C2581 C 0.39288 0.79687 1.00288 0.0
C2582 C 0.39506 0.7693 0.97393 0.0
C2583 C 0.36974 0.76709 0.97368 0.0
N2584 N 0.33244 0.77584 0.991 0.0
N2585 N 0.43015 0.7793 0.99456 0.0
C2586 C 0.35617 0.77997 0.98826 0.0
C2587 C 0.40645 0.782 0.99034 0.0
N2588 N 0.35429 0.81288 1.00944 0.0
N2589 N 0.40837 0.76014 0.95789 0.0
H2590 H 0.43897 0.78757 1.00686 0.0
H2591 H 0.44038 0.7672 0.98743 0.0
H2592 H 0.40087 0.75163 0.94505 0.0
H2593 H 0.42657 0.76301 0.95606 0.0
H2594 H 0.33611 0.81468 1.0065 0.0
H2595 H 0.36182 0.82587 0.0177 0.0
H2596 H 0.32219 0.78325 1.00292 0.0
H2597 H 0.3236 0.76339 0.98296 0.0
C2598 C 0.45437 0.16553 0.20375 0.0
C2599 C 0.43149 0.15746 0.20989 0.0
C2600 C 0.43887 0.12538 0.18643 0.0
C2601 C 0.46215 0.133 0.18102 0.0
N2602 N 0.49318 0.15906 0.18697 0.0
N2603 N 0.40347 0.12802 0.20921 0.0
C2604 C 0.47015 0.15273 0.19046 0.0
C2605 C 0.42428 0.13685 0.20185 0.0
N2606 N 0.46086 0.18578 0.21031 0.0
N2607 N 0.43028 0.10747 0.17614 0.0
H2608 H 0.39196 0.13615 0.21965 0.0
H2609 H 0.39832 0.11215 0.20622 0.0
H2610 H 0.44051 0.09839 0.16542 0.0
H2611 H 0.41263 0.10235 0.17708 0.0
H2612 H 0.47586 0.19388 0.20464 0.0
H2613 H 0.45033 0.19516 0.22053 0.0
H2614 H 0.50128 0.17194 0.19488 0.0
H2615 H 0.50492 0.1503 0.17726 0.0
C2616 C 0.11809 0.77025 0.04678 0.0
C2617 C 0.14337 0.76766 0.04674 0.0
C2618 C 0.14566 0.79655 0.01906 0.0
C2619 C 0.12032 0.79719 0.01719 0.0
N2620 N 0.08283 0.78047 0.02649 0.0
N2621 N 0.18053 0.77545 0.02871 0.0
C2622 C 0.10668 0.78282 0.03028 0.0
C2623 C 0.15693 0.78 0.03167 0.0
N2624 N 0.10488 0.76157 0.06317 0.0
N2625 N 0.15913 0.81235 1.00963 0.0
H2626 H 0.18925 0.76306 0.03692 0.0
H2627 H 0.19072 0.78241 0.01647 0.0
H2628 H 0.15174 0.82525 1.00113 0.0
H2629 H 0.1774 0.81393 0.01225 0.0
H2630 H 0.08678 0.76475 0.06521 0.0
H2631 H 0.11242 0.75313 0.07604 0.0
H2632 H 0.07246 0.76869 0.03403 0.0
H2633 H 0.07396 0.78868 0.01419 0.0
C2634 C 0.47206 0.86602 0.33047 0.0
C2635 C 0.46413 0.88652 0.33823 0.0
C2636 C 0.42761 0.88225 0.3155 0.0
C2637 C 0.43481 0.86113 0.30882 0.0
N2638 N 0.46366 0.83251 0.31099 0.0
N2639 N 0.43329 0.91337 0.33928 0.0
C2640 C 0.45703 0.853 0.31661 0.0
C2641 C 0.44165 0.89441 0.33089 0.0
N2642 N 0.49429 0.85907 0.33619 0.0
N2643 N 0.40722 0.89083 0.30701 0.0
H2644 H 0.44338 0.92306 0.3496 0.0
H2645 H 0.41602 0.91904 0.33706 0.0
H2646 H 0.39575 0.88213 0.29702 0.0
H2647 H 0.40216 0.90689 0.30885 0.0
H2648 H 0.50264 0.8456 0.32962 0.0
H2649 H 0.50526 0.86769 0.34667 0.0
H2650 H 0.47793 0.82427 0.31783 0.0
H2651 H 0.45406 0.8231 0.30006 0.0
C2652 C 0.35834 0.23966 0.5325 0.0
C2653 C 0.37211 0.25233 0.54712 0.0
C2654 C 0.40861 0.23733 0.53017 0.0
C2655 C 0.39484 0.22273 0.51748 0.0
N2656 N 0.35608 0.20714 0.51071 0.0
N2657 N 0.41085 0.25906 0.56272 0.0
C2658 C 0.36954 0.22313 0.5198 0.0
C2659 C 0.3974 0.25 0.54671 0.0
N2660 N 0.3346 0.24388 0.53004 0.0
N2661 N 0.43236 0.2398 0.52596 0.0
H2662 H 0.40348 0.26763 0.57557 0.0
H2663 H 0.42903 0.25609 0.56448 0.0
H2664 H 0.44108 0.23148 0.51363 0.0
H2665 H 0.44278 0.25174 0.53316 0.0
H2666 H 0.32419 0.23669 0.5181 0.0
H2667 H 0.32589 0.25618 0.53839 0.0
H2668 H 0.33789 0.20538 0.51368 0.0
H2669 H 0.36344 0.1943 0.50211 0.0
C2670 C 0.05934 0.1677 0.81595 0.0
C2671 C 0.08177 0.15978 0.8085 0.0
C2672 C 0.07383 0.12573 0.82897 0.0
C2673 C 0.0525 0.13444 0.83794 0.0
N2674 N 0.0264 0.16503 0.84157 0.0
N2675 N 0.11158 0.13191 0.81033 0.0
C2676 C 0.04569 0.15579 0.83178 0.0
C2677 C 0.08922 0.13888 0.81561 0.0
N2678 N 0.0506 0.1864 0.80733 0.0
N2679 N 0.0793 0.10462 0.83306 0.0
H2680 H 0.12323 0.14089 0.80073 0.0
H2681 H 0.11938 0.11809 0.81678 0.0
H2682 H 0.06882 0.0948 0.84295 0.0
H2683 H 0.09302 0.09632 0.82537 0.0
H2684 H 0.03335 0.19199 0.81002 0.0
H2685 H 0.05996 0.19552 0.79596 0.0
H2686 H 0.022 0.18129 0.84003 0.0
H2687 H 0.01563 0.15673 0.8525 0.0
C2688 C 0.21992 0.44131 0.11803 0.0
C2689 C 0.20957 0.43067 0.1362 0.0
C2690 C 0.17217 0.45142 0.12954 0.0
C2691 C 0.18187 0.46074 0.11036 0.0
N2692 N 0.21462 0.46297 0.08539 0.0
N2693 N 0.17465 0.42393 0.15771 0.0
C2694 C 0.20569 0.45523 0.10441 0.0
C2695 C 0.18539 0.43541 0.14155 0.0
N2696 N 0.24366 0.43842 0.11402 0.0
N2697 N 0.15027 0.4581 0.13651 0.0
H2698 H 0.18375 0.41265 0.1671 0.0
H2699 H 0.15645 0.42443 0.16092 0.0
H2700 H 0.13975 0.46896 0.12786 0.0
H2701 H 0.14316 0.45411 0.15152 0.0
H2702 H 0.25323 0.44716 0.10257 0.0
H2703 H 0.25436 0.42831 0.12339 0.0
H2704 H 0.23062 0.45786 0.07861 0.0
H2705 H 0.20521 0.47364 0.07554 0.0
C2706 C 0.68868 0.0832 0.87876 0.0
C2707 C 0.71247 0.08845 0.885 0.0
C2708 C 0.70725 0.06483 0.91734 0.0
C2709 C 0.68379 0.05888 0.91063 0.0
N2710 N 0.6534 0.06052 0.88327 0.0
N2711 N 0.74544 0.08191 0.90881 0.0
C2712 C 0.67496 0.06752 0.8908 0.0
C2713 C 0.72198 0.07853 0.90391 0.0
N2714 N 0.6788 0.09389 0.86164 0.0
N2715 N 0.71536 0.05765 0.93687 0.0
H2716 H 0.75646 0.0919 0.89959 0.0
H2717 H 0.75454 0.07369 0.92092 0.0
H2718 H 0.70567 0.04702 0.94657 0.0
H2719 H 0.73095 0.06312 0.94413 0.0
H2720 H 0.66083 0.09306 0.8576 0.0
H2721 H 0.68837 0.10479 0.85214 0.0
H2722 H 0.64697 0.06394 0.86789 0.0
H2723 H 0.64243 0.05003 0.89195 0.0
C2724 C 0.82687 0.93941 0.37346 0.0
C2725 C 0.80487 0.9318 0.38219 0.0
C2726 C 0.81372 0.95253 0.41585 0.0
C2727 C 0.83537 0.96073 0.40685 0.0
N2728 N 0.86107 0.96375 0.37586 0.0
N2729 N 0.77607 0.93321 0.41088 0.0
C2730 C 0.8414 0.95469 0.38526 0.0
C2731 C 0.79799 0.93903 0.40317 0.0
N2732 N 0.83432 0.93141 0.35403 0.0
N2733 N 0.80835 0.95736 0.43684 0.0
H2734 H 0.76456 0.92305 0.40241 0.0
H2735 H 0.76848 0.93949 0.42485 0.0
H2736 H 0.81858 0.96789 0.44616 0.0
H2737 H 0.7946 0.95014 0.4455 0.0
H2738 H 0.85126 0.93392 0.34766 0.0
H2739 H 0.82387 0.92109 0.34465 0.0
H2740 H 0.86519 0.96232 0.35955 0.0
H2741 H 0.87273 0.9739 0.38417 0.0
C2742 C 0.83832 0.06713 0.13039 0.0
C2743 C 0.83071 0.05996 0.10956 0.0
C2744 C 0.79441 0.08291 0.11392 0.0
C2745 C 0.80141 0.08915 0.13519 0.0
N2746 N 0.82867 0.08456 0.16471 0.0
N2747 N 0.7993 0.05861 0.08318 0.0
C2748 C 0.82297 0.08039 0.14367 0.0
C2749 C 0.80812 0.06724 0.10185 0.0
N2750 N 0.86077 0.06197 0.13719 0.0
N2751 N 0.77488 0.09249 0.1049 0.0
H2752 H 0.80873 0.04743 0.07393 0.0
H2753 H 0.78198 0.06115 0.07773 0.0
H2754 H 0.76407 0.10327 0.11333 0.0
H2755 H 0.77025 0.0909 0.0887 0.0
H2756 H 0.86869 0.06847 0.15092 0.0
H2757 H 0.87236 0.05241 0.12813 0.0
H2758 H 0.84258 0.07703 0.17288 0.0
H2759 H 0.81821 0.09435 0.17462 0.0
C2760 C 0.32626 0.58204 0.64268 0.0
C2761 C 0.30259 0.58754 0.63629 0.0
C2762 C 0.30816 0.56475 0.60342 0.0
C2763 C 0.33151 0.55858 0.61022 0.0
N2764 N 0.36149 0.55939 0.638 0.0
N2765 N 0.26995 0.58176 0.61191 0.0
C2766 C 0.34007 0.56664 0.63039 0.0
C2767 C 0.29331 0.57815 0.61701 0.0
N2768 N 0.33596 0.59222 0.66017 0.0
N2769 N 0.30028 0.55808 0.58363 0.0
H2770 H 0.25885 0.59152 0.62128 0.0
H2771 H 0.26098 0.57393 0.59947 0.0
H2772 H 0.31005 0.54767 0.57378 0.0
H2773 H 0.28481 0.56376 0.57633 0.0
H2774 H 0.35388 0.59126 0.66438 0.0
H2775 H 0.3263 0.60286 0.66987 0.0
H2776 H 0.36768 0.56234 0.65355 0.0
H2777 H 0.37257 0.54916 0.62916 0.0
C2778 C 0.22105 0.58034 0.40204 0.0
C2779 C 0.21289 0.5897 0.38234 0.0
C2780 C 0.17514 0.56871 0.38649 0.0
C2781 C 0.18249 0.56074 0.40707 0.0
N2782 N 0.21202 0.56053 0.4352 0.0
N2783 N 0.18083 0.5944 0.35702 0.0
C2784 C 0.20539 0.567 0.41498 0.0
C2785 C 0.18959 0.58418 0.37489 0.0
N2786 N 0.24409 0.58395 0.40823 0.0
N2787 N 0.15432 0.56123 0.3778 0.0
H2788 H 0.19094 0.60516 0.34786 0.0
H2789 H 0.16316 0.59338 0.35203 0.0
H2790 H 0.14292 0.55074 0.38602 0.0
H2791 H 0.14907 0.56416 0.36196 0.0
H2792 H 0.2523 0.5761 0.42108 0.0
H2793 H 0.25573 0.5937 0.39938 0.0
H2794 H 0.22704 0.56628 0.4432 0.0
H2795 H 0.20159 0.55028 0.44468 0.0
C2796 C 0.34038 0.45376 0.88608 0.0
C2797 C 0.33429 0.45974 0.90768 0.0
C2798 C 0.29692 0.43805 0.90383 0.0
C2799 C 0.30386 0.43088 0.88284 0.0
N2800 N 0.3334 0.43058 0.85476 0.0
N2801 N 0.30716 0.45628 0.93758 0.0
C2802 C 0.32589 0.43852 0.87419 0.0
C2803 C 0.31261 0.45151 0.9166 0.0
N2804 N 0.36009 0.46283 0.87676 0.0
N2805 N 0.27498 0.43221 0.91146 0.0
H2806 H 0.31736 0.46679 0.94696 0.0
H2807 H 0.29339 0.44904 0.94619 0.0
H2808 H 0.26348 0.42209 0.90293 0.0
H2809 H 0.26734 0.43844 0.92544 0.0
H2810 H 0.36425 0.46146 0.86045 0.0
H2811 H 0.37174 0.47294 0.88514 0.0
H2812 H 0.35036 0.4331 0.84844 0.0
H2813 H 0.32297 0.42029 0.84532 0.0
C2814 C 0.64478 0.72355 1.00099 0.0
C2815 C 0.61951 0.72323 1.00359 0.0
C2816 C 0.61678 0.75035 0.97421 0.0
C2817 C 0.64208 0.75265 0.97356 0.0
N2818 N 0.67967 0.74431 0.99055 0.0
N2819 N 0.58204 0.74051 0.99546 0.0
C2820 C 0.65592 0.74005 0.98818 0.0
C2821 C 0.60569 0.73785 0.99098 0.0
N2822 N 0.65828 0.70748 1.00988 0.0
N2823 N 0.60318 0.75923 0.95821 0.0
H2824 H 0.57345 0.73238 1.008 0.0
H2825 H 0.57164 0.75246 0.98827 0.0
H2826 H 0.61045 0.76758 0.94515 0.0
H2827 H 0.58497 0.75627 0.95668 0.0
H2828 H 0.67642 0.70571 1.00672 0.0
H2829 H 0.65095 0.69459 0.01845 0.0
H2830 H 0.69012 0.73714 1.00246 0.0
H2831 H 0.68833 0.75667 0.9822 0.0
C2832 C 0.59258 0.3774 0.19982 0.0
C2833 C 0.58204 0.36041 0.21216 0.0
C2834 C 0.54305 0.36896 0.1948 0.0
C2835 C 0.5534 0.38647 0.18311 0.0
N2836 N 0.58751 0.40911 0.17677 0.0
N2837 N 0.54638 0.34195 0.2234 0.0
C2838 C 0.57804 0.39116 0.18636 0.0
C2839 C 0.55699 0.35683 0.21021 0.0
N2840 N 0.61675 0.38011 0.20058 0.0
N2841 N 0.51991 0.36344 0.19063 0.0
H2842 H 0.55599 0.33233 0.23414 0.0
H2843 H 0.52801 0.34006 0.2248 0.0
H2844 H 0.50904 0.37233 0.18024 0.0
H2845 H 0.51182 0.34944 0.19639 0.0
H2846 H 0.6262 0.39031 0.19031 0.0
H2847 H 0.62775 0.37105 0.21069 0.0
H2848 H 0.60448 0.41505 0.18002 0.0
H2849 H 0.57765 0.41915 0.16663 0.0
C2850 C 0.90943 0.28511 0.48845 0.0
C2851 C 0.89568 0.29936 0.50155 0.0
C2852 C 0.85914 0.28194 0.48705 0.0
C2853 C 0.8728 0.26952 0.47215 0.0
N2854 N 0.91132 0.26331 0.4559 0.0
N2855 N 0.8568 0.31418 0.50927 0.0
C2856 C 0.89807 0.27223 0.47212 0.0
C2857 C 0.87034 0.29853 0.49971 0.0
N2858 N 0.93334 0.28318 0.49209 0.0
N2859 N 0.8355 0.27741 0.48982 0.0
H2860 H 0.86414 0.32701 0.51792 0.0
H2861 H 0.83853 0.31571 0.50668 0.0
H2862 H 0.82679 0.26509 0.48146 0.0
H2863 H 0.82518 0.28434 0.50198 0.0
H2864 H 0.94386 0.27148 0.48465 0.0
H2865 H 0.94221 0.29175 0.50416 0.0
H2866 H 0.92939 0.26657 0.45376 0.0
H2867 H 0.90381 0.2545 0.44327 0.0
C2868 C 0.95694 0.66435 0.7085 0.0
C2869 C 0.93178 0.66122 0.71018 0.0
C2870 C 0.93534 0.63156 0.68303 0.0
C2871 C 0.96016 0.6358 0.68016 0.0
N2872 N 0.99409 0.6578 0.68892 0.0
N2873 N 0.89676 0.64269 0.69753 0.0
C2874 C 0.97078 0.65259 0.69268 0.0
C2875 C 0.92099 0.645 0.697 0.0
N2876 N 0.96778 0.6785 0.72232 0.0
N2877 N 0.92551 0.61426 0.6726 0.0
H2878 H 0.88589 0.65138 0.70807 0.0
H2879 H 0.88717 0.63321 0.68673 0.0
H2880 H 0.93521 0.6045 0.66207 0.0
H2881 H 0.90837 0.60852 0.67549 0.0
H2882 H 0.98617 0.67995 0.72393 0.0
H2883 H 0.9583 0.68794 0.7333 0.0
H2884 H 1.00248 0.67135 0.69534 0.0
H2885 H 1.00484 0.64916 0.67821 0.0
C2886 C 0.64811 0.29766 0.51981 0.0
C2887 C 0.62279 0.29836 0.51767 0.0
C2888 C 0.62015 0.27078 0.54666 0.0
C2889 C 0.64542 0.26815 0.54685 0.0
N2890 N 0.68287 0.27643 0.52954 0.0
N2891 N 0.58515 0.28156 0.52628 0.0
C2892 C 0.65921 0.28086 0.53225 0.0
C2893 C 0.60896 0.28375 0.53033 0.0
N2894 N 0.6617 0.31362 0.51081 0.0
N2895 N 0.60671 0.2617 0.56269 0.0
H2896 H 0.57643 0.29009 0.51411 0.0
H2897 H 0.57465 0.26964 0.53344 0.0
H2898 H 0.61408 0.25292 0.57541 0.0
H2899 H 0.58859 0.26486 0.56463 0.0
H2900 H 0.67993 0.31516 0.51366 0.0
H2901 H 0.65442 0.32665 0.50243 0.0
H2902 H 0.69326 0.28364 0.51759 0.0
H2903 H 0.69149 0.26392 0.53768 0.0
C2904 C 0.92304 0.38423 0.81871 0.0
C2905 C 0.93023 0.36368 0.81051 0.0
C2906 C 0.96768 0.36709 0.83199 0.0
C2907 C 0.96097 0.38806 0.8394 0.0
N2908 N 0.93358 0.41776 0.83725 0.0
N2909 N 0.96131 0.33719 0.80693 0.0
C2910 C 0.93902 0.39692 0.83192 0.0
C2911 C 0.95313 0.35564 0.8165 0.0
N2912 N 0.90048 0.39135 0.81443 0.0
N2913 N 0.98771 0.35773 0.84033 0.0
H2914 H 0.95114 0.32826 0.79601 0.0
H2915 H 0.97871 0.33158 0.80849 0.0
H2916 H 0.99909 0.36575 0.85097 0.0
H2917 H 0.9923 0.34164 0.83787 0.0
H2918 H 0.89287 0.40485 0.82169 0.0
H2919 H 0.88859 0.38282 0.80468 0.0
H2920 H 0.91928 0.42624 0.83075 0.0
H2921 H 0.94457 0.42724 0.84699 0.0
C2922 C 0.85795 0.74083 0.03249 0.0
C2923 C 0.87177 0.75331 0.04724 0.0
C2924 C 0.90818 0.73813 0.03027 0.0
C2925 C 0.89433 0.72365 0.01751 0.0
N2926 N 0.85543 0.70835 0.01069 0.0
N2927 N 0.91055 0.75958 0.06298 0.0
C2928 C 0.86902 0.72424 0.0198 0.0
C2929 C 0.89705 0.75077 0.04688 0.0
N2930 N 0.83428 0.74529 0.02992 0.0
N2931 N 0.93194 0.74051 0.02607 0.0
H2932 H 0.90322 0.76808 0.07591 0.0
H2933 H 0.92869 0.75645 0.06475 0.0
H2934 H 0.9406 0.73224 0.01368 0.0
H2935 H 0.94243 0.75235 0.03336 0.0
H2936 H 0.82387 0.73823 0.0179 0.0
H2937 H 0.82568 0.7577 0.03822 0.0
H2938 H 0.83722 0.70674 0.01363 0.0
H2939 H 0.86269 0.69543 1.00214 0.0
C2940 C 0.57276 0.62694 0.32962 0.0
C2941 C 0.55136 0.63562 0.33853 0.0
C2942 C 0.55829 0.66891 0.31654 0.0
C2943 C 0.58076 0.66101 0.30913 0.0
N2944 N 0.61053 0.63311 0.31098 0.0
N2945 N 0.52519 0.66616 0.34201 0.0
C2946 C 0.58817 0.6401 0.31626 0.0
C2947 C 0.54456 0.65696 0.33232 0.0
N2948 N 0.57824 0.60585 0.33375 0.0
N2949 N 0.54961 0.68765 0.30794 0.0
H2950 H 0.51434 0.65782 0.35286 0.0
H2951 H 0.52074 0.68241 0.34045 0.0
H2952 H 0.55904 0.6968 0.29666 0.0
H2953 H 0.53237 0.69325 0.31059 0.0
H2954 H 0.592 0.59755 0.32612 0.0
H2955 H 0.56774 0.59603 0.34362 0.0
H2956 H 0.61832 0.6193 0.31744 0.0
H2957 H 0.62217 0.64208 0.30136 0.0
C2958 C 0.68985 0.93894 0.64463 0.0
C2959 C 0.71253 0.93191 0.63692 0.0
C2960 C 0.70568 0.95365 0.60349 0.0
C2961 C 0.6833 0.96121 0.61149 0.0
N2962 N 0.65529 0.96261 0.6409 0.0
N2963 N 0.74307 0.93445 0.60981 0.0
C2964 C 0.67585 0.95431 0.63246 0.0
C2965 C 0.72067 0.93987 0.61656 0.0
N2966 N 0.68128 0.93029 0.66341 0.0
N2967 N 0.71247 0.9594 0.58307 0.0
H2968 H 0.75404 0.92399 0.61844 0.0
H2969 H 0.75154 0.94125 0.5965 0.0
H2970 H 0.70286 0.97027 0.57362 0.0
H2971 H 0.72689 0.95269 0.57492 0.0
H2972 H 0.66391 0.93232 0.66891 0.0
H2973 H 0.69131 0.91994 0.67312 0.0
H2974 H 0.65002 0.96059 0.65689 0.0
H2975 H 0.6439 0.97266 0.63218 0.0
C2976 C 0.19168 0.3366 0.26816 0.0
C2977 C 0.20377 0.35481 0.2596 0.0
C2978 C 0.20889 0.36851 0.29685 0.0
C2979 C 0.19996 0.34876 0.30534 0.0
N2980 N 0.18786 0.31186 0.29808 0.0
N2981 N 0.22775 0.38656 0.26667 0.0
C2982 C 0.19281 0.33219 0.29069 0.0
C2983 C 0.21341 0.3704 0.27418 0.0
N2984 N 0.17836 0.32377 0.25486 0.0
N2985 N 0.21217 0.38582 0.31019 0.0
H2986 H 0.23171 0.38862 0.2504 0.0
H2987 H 0.23742 0.39675 0.2768 0.0
H2988 H 0.20852 0.38532 0.32669 0.0
H2989 H 0.21625 0.40124 0.30451 0.0
H2990 H 0.16733 0.31147 0.26058 0.0
H2991 H 0.17624 0.32701 0.23843 0.0
H2992 H 0.18509 0.29876 0.28781 0.0
H2993 H 0.18894 0.30748 0.31428 0.0
C2994 C 0.93857 0.98919 0.54065 0.0
C2995 C 0.94481 0.98177 0.51949 0.0
C2996 C 0.97515 0.95982 0.53776 0.0
C2997 C 0.96478 0.96281 0.55866 0.0
N2998 N 0.92815 0.97482 0.57563 0.0
N2999 N 0.96153 0.95001 0.50236 0.0
C3000 C 0.94397 0.976 0.559 0.0
C3001 C 0.96123 0.9643 0.51902 0.0
N3002 N 0.92763 1.00859 0.5436 0.0
N3003 N 0.99793 0.95276 0.53535 0.0
H3004 H 0.9487 0.95038 0.49017 0.0
H3005 H 0.97272 0.93653 0.50245 0.0
H3006 H 0.00943 0.95107 0.54844 0.0
H3007 H 1.00557 0.95082 0.52008 0.0
H3008 H 0.92355 0.01438 0.559 0.0
H3009 H 0.92525 0.01956 0.53099 0.0
H3010 H 0.91221 0.98353 0.57552 0.0
H3011 H 0.9299 0.96352 0.58804 0.0
C3012 C 0.32541 0.65184 0.79901 0.0
C3013 C 0.30696 0.66207 0.81104 0.0
C3014 C 0.28212 0.66162 0.7783 0.0
C3015 C 0.30226 0.65585 0.76555 0.0
N3016 N 0.34431 0.6477 0.76407 0.0
N3017 N 0.26793 0.67877 0.81092 0.0
C3018 C 0.32422 0.65131 0.776 0.0
C3019 C 0.28521 0.6673 0.80044 0.0
N3020 N 0.34404 0.64247 0.80967 0.0
N3021 N 0.25986 0.66126 0.76935 0.0
H3022 H 0.26929 0.68364 0.82695 0.0
H3023 H 0.25312 0.6852 0.80307 0.0
H3024 H 0.2568 0.65646 0.75346 0.0
H3025 H 0.2443 0.66339 0.77831 0.0
H3026 H 0.35696 0.63319 0.80194 0.0
H3027 H 0.34502 0.64204 0.8265 0.0
H3028 H 0.36123 0.64655 0.77089 0.0
H3029 H 0.34443 0.64788 0.74724 0.0
C3030 C 0.555 0.03003 0.03063 0.0
C3031 C 0.57592 0.0394 0.02156 0.0
C3032 C 0.57579 0.06689 0.05064 0.0
C3033 C 0.55493 0.05758 0.05982 0.0
N3034 N 0.52553 0.02926 0.05964 0.0
N3035 N 0.60287 0.06959 0.02001 0.0
C3036 C 0.54471 0.0389 0.04999 0.0
C3037 C 0.58532 0.05866 0.03078 0.0
N3038 N 0.54449 0.01308 0.02018 0.0
N3039 N 0.58708 0.08317 0.06147 0.0
H3040 H 0.61 0.06419 1.00541 0.0
H3041 H 0.60894 0.08486 0.02441 0.0
H3042 H 0.58073 0.08932 0.07605 0.0
H3043 H 0.60371 0.08925 0.05714 0.0
H3044 H 0.52777 1.00692 0.02402 0.0
H3045 H 0.55187 1.00588 1.00651 0.0
H3046 H 0.51839 0.01447 0.055 0.0
H3047 H 0.51741 0.03552 0.07339 0.0
C3048 C 0.18943 0.65125 0.22034 0.0
C3049 C 0.2087 0.65982 0.20805 0.0
C3050 C 0.2335 0.65863 0.2409 0.0
C3051 C 0.21293 0.65462 0.25373 0.0
N3052 N 0.17059 0.64819 0.25552 0.0
N3053 N 0.24969 0.67183 0.20724 0.0
C3054 C 0.19072 0.6509 0.24339 0.0
C3055 C 0.23102 0.66324 0.21844 0.0
N3056 N 0.16989 0.64333 0.20983 0.0
N3057 N 0.25559 0.65751 0.25013 0.0
H3058 H 0.24946 0.6739 0.19062 0.0
H3059 H 0.26504 0.67778 0.2146 0.0
H3060 H 0.2581 0.6537 0.26636 0.0
H3061 H 0.27142 0.65813 0.24135 0.0
H3062 H 0.15609 0.63518 0.21761 0.0
H3063 H 0.16882 0.64292 0.19299 0.0
H3064 H 0.15352 0.64777 0.24892 0.0
H3065 H 0.17074 0.64812 0.27235 0.0
C3066 C 0.58392 0.96055 0.49102 0.0
C3067 C 0.57493 0.97989 0.50043 0.0
C3068 C 0.54144 0.97876 0.47438 0.0
C3069 C 0.55229 0.96132 0.46299 0.0
N3070 N 0.58444 0.93564 0.46061 0.0
N3071 N 0.54576 1.00835 0.49994 0.0
C3072 C 0.57376 0.95229 0.47137 0.0
C3073 C 0.55382 0.98919 0.4918 0.0
N3074 N 0.60168 0.94958 0.50139 0.0
N3075 N 0.51876 0.98482 0.46918 0.0
H3076 H 0.55399 0.01622 0.51282 0.0
H3077 H 0.53193 0.01716 0.49303 0.0
H3078 H 0.50908 0.97756 0.4568 0.0
H3079 H 0.50871 0.99559 0.47833 0.0
H3080 H 0.60756 0.9343 0.49683 0.0
H3081 H 0.6092 0.95496 0.51583 0.0
H3082 H 0.60149 0.93003 0.46412 0.0
H3083 H 0.57679 0.92817 0.44723 0.0
C3084 C 0.30109 0.33563 0.72532 0.0
C3085 C 0.30822 0.35261 0.71118 0.0
C3086 C 0.3092 0.37751 0.74224 0.0
C3087 C 0.29947 0.36114 0.75582 0.0
N3088 N 0.28196 0.32559 0.75891 0.0
N3089 N 0.31688 0.39032 0.70575 0.0
C3090 C 0.29431 0.34045 0.74699 0.0
C3091 C 0.3115 0.37377 0.71953 0.0
N3092 N 0.30141 0.3147 0.71831 0.0
N3093 N 0.31721 0.39632 0.75124 0.0
H3094 H 0.31955 0.38804 0.68923 0.0
H3095 H 0.31696 0.4065 0.71035 0.0
H3096 H 0.31648 0.39931 0.76781 0.0
H3097 H 0.32661 0.40805 0.7427 0.0
H3098 H 0.29912 0.3015 0.72855 0.0
H3099 H 0.30598 0.31028 0.70262 0.0
H3100 H 0.27525 0.31129 0.75246 0.0
H3101 H 0.27645 0.3283 0.77474 0.0
C3102 C 0.94893 0.02626 0.98117 0.0
C3103 C 0.93832 0.03965 0.99725 0.0
C3104 C 0.94605 0.07123 0.97352 0.0
C3105 C 0.95971 0.0582 0.95911 0.0
N3106 N 0.97496 0.0231 0.94992 0.0
N3107 N 0.92609 0.07528 1.00824 0.0
C3108 C 0.96122 0.03564 0.96311 0.0
C3109 C 0.93681 0.06229 0.99328 0.0
N3110 N 0.94642 1.00438 0.98262 0.0
N3111 N 0.94088 0.09197 0.9677 0.0
H3112 H 0.91728 0.06925 0.02179 0.0
H3113 H 0.92693 0.09207 1.00788 0.0
H3114 H 0.94643 0.09852 0.95306 0.0
H3115 H 0.92926 0.10198 0.97614 0.0
H3116 H 0.95012 0.99397 0.96984 0.0
H3117 H 0.93888 0.99672 0.99597 0.0
H3118 H 0.97916 1.00707 0.95331 0.0
H3119 H 0.98337 0.02912 0.93614 0.0
C3120 C 0.27243 0.24335 0.34972 0.0
C3121 C 0.28023 0.25344 0.33025 0.0
C3122 C 0.24773 0.28019 0.33425 0.0
C3123 C 0.23943 0.26964 0.35326 0.0
N3124 N 0.24124 0.23882 0.37677 0.0
N3125 N 0.27244 0.27916 0.30192 0.0
C3126 C 0.25095 0.2504 0.36016 0.0
C3127 C 0.26706 0.27125 0.32196 0.0
N3128 N 0.28616 0.22753 0.35877 0.0
N3129 N 0.23737 0.29914 0.32818 0.0
H3130 H 0.28647 0.27326 0.29258 0.0
H3131 H 0.262 0.29045 0.29383 0.0
H3132 H 0.2223 0.30507 0.33596 0.0
H3133 H 0.24415 0.30932 0.31628 0.0
H3134 H 0.28308 0.22103 0.37402 0.0
H3135 H 0.302 0.22216 0.35179 0.0
H3136 H 0.24716 0.22356 0.38136 0.0
H3137 H 0.2258 0.24369 0.38481 0.0
C3138 C 0.07874 0.02135 0.61423 0.0
C3139 C 0.05665 0.0114 0.60899 0.0
C3140 C 0.04058 0.04719 0.5988 0.0
C3141 C 0.06232 0.05725 0.605 0.0
N3142 N 0.09928 0.0543 0.62458 0.0
N3143 N 0.01466 0.01624 0.60224 0.0
C3144 C 0.08047 0.04439 0.61466 0.0
C3145 C 0.03704 0.02478 0.60308 0.0
N3146 N 0.09845 1.00889 0.61772 0.0
N3147 N 0.02354 0.05858 0.58791 0.0
H3148 H 0.01137 1.0001 0.60561 0.0
H3149 H 0.99928 0.0255 0.60051 0.0
H3150 H 0.02477 0.07501 0.58464 0.0
H3151 H 0.00888 0.05133 0.58056 0.0
H3152 H 0.11552 0.0153 0.61943 0.0
H3153 H 0.09814 0.99207 0.61678 0.0
H3154 H 0.11198 0.04596 0.63357 0.0
H3155 H 0.10065 0.07108 0.62574 0.0
C3156 C 0.23667 0.77225 0.85295 0.0
C3157 C 0.2339 0.76581 0.83105 0.0
C3158 C 0.27024 0.74331 0.83452 0.0
C3159 C 0.27297 0.74995 0.85637 0.0
N3160 N 0.26315 0.77595 0.8838 0.0
N3161 N 0.25164 0.74957 0.79956 0.0
C3162 C 0.25755 0.76613 0.86471 0.0
C3163 C 0.25185 0.75267 0.82139 0.0
N3164 N 0.21909 0.78392 0.86273 0.0
N3165 N 0.28498 0.72774 0.82642 0.0
H3166 H 0.23874 0.75637 0.78957 0.0
H3167 H 0.26525 0.74194 0.79106 0.0
H3168 H 0.29876 0.7209 0.83539 0.0
H3169 H 0.28294 0.72081 0.81124 0.0
H3170 H 0.21873 0.78714 0.87924 0.0
H3171 H 0.20381 0.78888 0.85459 0.0
H3172 H 0.25399 0.78925 0.88986 0.0
H3173 H 0.27847 0.77206 0.89253 0.0
C3174 C 0.44064 0.99462 0.11851 0.0
C3175 C 0.46285 1.00482 0.11438 0.0
C3176 C 0.47989 0.96968 0.10372 0.0
C3177 C 0.45768 0.9594 0.10808 0.0
N3178 N 0.41993 0.96113 0.12655 0.0
N3179 N 0.50532 1.00079 0.10992 0.0
C3180 C 0.43907 0.97162 0.1178 0.0
C3181 C 0.48303 0.99189 0.10922 0.0
N3182 N 0.42073 1.00682 0.12197 0.0
N3183 N 0.49764 0.95879 0.09327 0.0
H3184 H 0.50829 0.01682 0.11432 0.0
H3185 H 0.52092 0.9918 0.10843 0.0
H3186 H 0.49631 0.94271 0.08857 0.0
H3187 H 0.51308 0.96624 0.08764 0.0
H3188 H 0.40363 1.00028 0.12275 0.0
H3189 H 0.421 0.02366 0.12219 0.0
H3190 H 0.40677 0.96894 0.13549 0.0
H3191 H 0.41867 0.9443 0.12685 0.0
C3192 C 0.27748 0.74571 0.18804 0.0
C3193 C 0.28493 0.76748 0.18514 0.0
C3194 C 0.252 0.77238 0.15867 0.0
C3195 C 0.24514 0.75034 0.16115 0.0
N3196 N 0.25545 0.71504 0.17445 0.0
N3197 N 0.28182 0.80044 0.16468 0.0
C3198 C 0.25905 0.73682 0.17478 0.0
C3199 C 0.27273 0.78056 0.1697 0.0
N3200 N 0.28725 0.73356 0.2042 0.0
N3201 N 0.23899 0.78544 0.14535 0.0
H3202 H 0.29716 0.80665 0.17188 0.0
H3203 H 0.27555 0.81011 0.15218 0.0
H3204 H 0.22525 0.77967 0.1356 0.0
H3205 H 0.24091 0.80214 0.1447 0.0
H3206 H 0.28043 0.71862 0.20893 0.0
H3207 H 0.30102 0.73904 0.21405 0.0
H3208 H 0.2682 0.70429 0.18024 0.0
H3209 H 0.24108 0.70775 0.16665 0.0
C3210 C 0.48011 0.02571 0.42351 0.0
C3211 C 0.46794 0.01493 0.40657 0.0
C3212 C 0.44936 0.04964 0.39642 0.0
C3213 C 0.4592 0.05951 0.41515 0.0
N3214 N 0.47849 0.05458 0.44962 0.0
N3215 N 0.43904 0.01623 0.37786 0.0
C3216 C 0.47307 0.04689 0.42957 0.0
C3217 C 0.45204 0.02683 0.39321 0.0
N3218 N 0.49919 0.01614 0.43324 0.0
N3219 N 0.43765 0.06212 0.38165 0.0
H3220 H 0.44066 0.99966 0.37512 0.0
H3221 H 0.42543 0.02344 0.36901 0.0
H3222 H 0.43524 0.07871 0.38371 0.0
H3223 H 0.432 0.05644 0.36668 0.0
H3224 H 0.51002 0.0242 0.44431 0.0
H3225 H 0.50579 1.0012 0.4283 0.0
H3226 H 0.4867 0.04517 0.46143 0.0
H3227 H 0.4723 0.06942 0.45523 0.0
C3228 C 0.244 0.27326 0.69253 0.0
C3229 C 0.2344 0.25267 0.68737 0.0
C3230 C 0.26584 0.24866 0.65939 0.0
C3231 C 0.27388 0.27013 0.66333 0.0
N3232 N 0.26618 0.3044 0.68034 0.0
N3233 N 0.23451 0.2217 0.66384 0.0
C3234 C 0.26165 0.28282 0.67895 0.0
C3235 C 0.245 0.24056 0.67029 0.0
N3236 N 0.23708 0.28339 0.71106 0.0
N3237 N 0.27795 0.23607 0.64497 0.0
H3238 H 0.21935 0.21541 0.6713 0.0
H3239 H 0.23956 0.21314 0.65013 0.0
H3240 H 0.29227 0.2418 0.63588 0.0
H3241 H 0.27487 0.2196 0.643 0.0
H3242 H 0.24524 0.29735 0.7169 0.0
H3243 H 0.22496 0.2765 0.72176 0.0
H3244 H 0.2559 0.31502 0.68949 0.0
H3245 H 0.27923 0.31187 0.67106 0.0
C3246 C 0.06074 0.96954 0.89536 0.0
C3247 C 0.05723 0.96143 0.91658 0.0
C3248 C 0.04401 0.99755 0.92835 0.0
C3249 C 0.04942 1.00613 0.9076 0.0
N3250 N 0.06731 1.00098 0.87259 0.0
N3251 N 0.05061 0.96905 0.95441 0.0
C3252 C 0.05895 0.99226 0.89141 0.0
C3253 C 0.05039 0.97584 0.9334 0.0
N3254 N 0.06586 0.95553 0.87896 0.0
N3255 N 0.0318 1.00974 0.94305 0.0
H3256 H 0.05493 0.95335 0.959 0.0
H3257 H 0.04853 0.97946 0.96749 0.0
H3258 H 0.02649 0.0256 0.94017 0.0
H3259 H 0.02497 1.0035 0.95741 0.0
H3260 H 0.06608 0.96001 0.86275 0.0
H3261 H 0.06815 0.93899 0.88139 0.0
H3262 H 0.07659 0.99218 0.861 0.0
H3263 H 0.06703 0.01754 0.86947 0.0
C3264 C 0.29014 0.28561 0.20745 0.0
C3265 C 0.29859 0.30691 0.21209 0.0
C3266 C 0.32412 0.28939 0.23941 0.0
C3267 C 0.31987 0.26828 0.2308 0.0
N3268 N 0.30643 0.25105 0.19785 0.0
N3269 N 0.33193 0.32606 0.22805 0.0
C3270 C 0.30488 0.26751 0.21233 0.0
C3271 C 0.31806 0.30803 0.22685 0.0
N3272 N 0.26821 0.28221 0.19871 0.0
N3273 N 0.33376 0.29196 0.25943 0.0
H3274 H 0.32974 0.33911 0.21757 0.0
H3275 H 0.34705 0.32674 0.23784 0.0
H3276 H 0.3367 0.27895 0.26979 0.0
H3277 H 0.33616 0.3072 0.2663 0.0
H3278 H 0.26182 0.26664 0.19574 0.0
H3279 H 0.25595 0.29467 0.19667 0.0
H3280 H 0.29634 0.25093 0.18368 0.0
H3281 H 0.31966 0.23925 0.19893 0.0
C3282 C 0.81906 0.21143 0.79206 0.0
C3283 C 0.79857 0.21205 0.8057 0.0
C3284 C 0.80325 0.25156 0.80518 0.0
C3285 C 0.81967 0.25118 0.78767 0.0
N3286 N 0.83598 0.2276 0.75999 0.0
N3287 N 0.76609 0.23568 0.81645 0.0
C3288 C 0.82516 0.23011 0.77952 0.0
C3289 C 0.78879 0.23305 0.80919 0.0
N3290 N 0.83391 0.19405 0.7921 0.0
N3291 N 0.80347 0.26783 0.81992 0.0
H3292 H 0.75431 0.2227 0.81793 0.0
H3293 H 0.75883 0.25104 0.81882 0.0
H3294 H 0.81664 0.27975 0.81983 0.0
H3295 H 0.79227 0.26764 0.8334 0.0
H3296 H 0.84966 0.19384 0.7831 0.0
H3297 H 0.83176 0.18123 0.80286 0.0
H3298 H 0.83938 0.21234 0.75352 0.0
H3299 H 0.83889 0.24056 0.74953 0.0
C3300 C 1.00452 0.59167 0.98722 0.0
C3301 C 0.99256 0.60751 0.99984 0.0
C3302 C 0.02186 0.60093 0.02909 0.0
C3303 C 0.03216 0.5836 0.01711 0.0
N3304 N 0.02886 0.55944 0.98681 0.0
N3305 N 0.98902 0.62631 0.0337 0.0
C3306 C 0.02223 0.57816 0.99674 0.0
C3307 C 1.00092 0.61173 0.02114 0.0
N3308 N 0.99967 0.58998 0.96573 0.0
N3309 N 0.03272 0.60769 0.04764 0.0
H3310 H 0.97459 0.63528 0.02806 0.0
H3311 H 0.99238 0.62851 0.05008 0.0
H3312 H 0.04802 0.60037 0.05377 0.0
H3313 H 0.02784 0.62156 0.05605 0.0
H3314 H 0.00975 0.58065 0.95511 0.0
H3315 H 0.98655 0.59919 0.95832 0.0
H3316 H 0.02045 0.55342 0.97306 0.0
H3317 H 0.04098 0.54878 0.99371 0.0
C3318 C 0.70015 0.78851 0.27605 0.0
C3319 C 0.68869 0.77289 0.28948 0.0
C3320 C 0.69562 0.79694 0.32096 0.0
C3321 C 0.70934 0.81132 0.30795 0.0
N3322 N 0.72391 0.82143 0.27292 0.0
N3323 N 0.67493 0.76249 0.32481 0.0
C3324 C 0.71121 0.80731 0.28539 0.0
C3325 C 0.68631 0.77722 0.31199 0.0
N3326 N 0.70004 0.78549 0.25418 0.0
N3327 N 0.69061 0.80273 0.34178 0.0
H3328 H 0.66636 0.74885 0.3187 0.0
H3329 H 0.67489 0.76306 0.3416 0.0
H3330 H 0.69659 0.81717 0.34852 0.0
H3331 H 0.67898 0.79437 0.35185 0.0
H3332 H 0.70532 0.79704 0.24297 0.0
H3333 H 0.69358 0.77146 0.24697 0.0
H3334 H 0.7277 0.81908 0.25667 0.0
H3335 H 0.73138 0.83559 0.27904 0.0
C3336 C 0.01389 0.90963 0.02102 0.0
C3337 C 0.02221 0.91373 0.99967 0.0
C3338 C 0.99283 0.94333 0.99665 0.0
C3339 C 0.98284 0.93797 0.01704 0.0
N3340 N 0.98226 0.91402 0.04769 0.0
N3341 N 0.01518 0.93131 0.96557 0.0
C3342 C 0.99307 0.92062 0.02903 0.0
C3343 C 0.01037 0.92967 0.98708 0.0
N3344 N 0.02571 0.895 0.03359 0.0
N3345 N 0.98644 0.96215 0.98677 0.0
H3346 H 0.02818 0.92199 0.95812 0.0
H3347 H 1.00516 0.94073 0.95499 0.0
H3348 H 0.97458 0.97297 0.9938 0.0
H3349 H 0.99486 0.96807 0.97297 0.0
H3350 H 0.02239 0.89286 0.04999 0.0
H3351 H 0.04007 0.88594 0.02792 0.0
H3352 H 0.98704 0.90013 0.05612 0.0
H3353 H 0.96712 0.92153 0.05391 0.0
C3354 C 0.19174 0.72094 0.69983 0.0
C3355 C 0.20961 0.70905 0.71113 0.0
C3356 C 0.20411 0.7337 0.74226 0.0
C3357 C 0.18833 0.74694 0.73014 0.0
N3358 N 0.16857 0.75406 0.69642 0.0
N3359 N 0.23592 0.70721 0.74189 0.0
C3360 C 0.18262 0.74079 0.70861 0.0
C3361 C 0.21659 0.71628 0.73204 0.0
N3362 N 0.18313 0.71299 0.68079 0.0
N3363 N 0.2067 0.73728 0.76387 0.0
H3364 H 0.24578 0.69478 0.73495 0.0
H3365 H 0.24343 0.7133 0.75603 0.0
H3366 H 0.19868 0.75023 0.7718 0.0
H3367 H 0.21518 0.72638 0.77413 0.0
H3368 H 0.16835 0.7193 0.67285 0.0
H3369 H 0.18976 0.69898 0.67366 0.0
H3370 H 0.16577 0.75194 0.67994 0.0
H3371 H 0.16103 0.76821 0.70247 0.0
C3372 C 1.00175 0.41114 0.50084 0.0
C3373 C 0.99005 0.41817 0.51995 0.0
C3374 C 0.01782 0.44937 0.52162 0.0
C3375 C 0.03115 0.44094 0.50397 0.0
N3376 N 0.03723 0.41228 0.47827 0.0
N3377 N 0.98766 0.44346 0.54922 0.0
C3378 C 0.02336 0.42145 0.49393 0.0
C3379 C 0.99829 0.43722 0.53044 0.0
N3380 N 0.99206 0.39453 0.48925 0.0
N3381 N 0.02323 0.46943 0.52948 0.0
H3382 H 0.97243 0.43582 0.55499 0.0
H3383 H 0.99435 0.4554 0.55939 0.0
H3384 H 0.03741 0.47867 0.52367 0.0
H3385 H 0.01271 0.47763 0.54064 0.0
H3386 H 0.99814 0.38986 0.47407 0.0
H3387 H 0.9765 0.3866 0.49401 0.0
H3388 H 0.03414 0.397 0.47183 0.0
H3389 H 0.05315 0.41918 0.47298 0.0
C3390 C 0.49971 0.57133 0.02097 0.0
C3391 C 0.48362 0.58073 1.00584 0.0
C3392 C 0.50906 0.61346 1.00469 0.0
C3393 C 0.52385 0.60495 0.02126 0.0
N3394 N 0.5368 0.57407 0.04149 0.0
N3395 N 0.47184 0.6115 0.98466 0.0
C3396 C 0.52015 0.58334 0.02835 0.0
C3397 C 0.48816 0.60196 0.99797 0.0
N3398 N 0.495 0.55107 0.02871 0.0
N3399 N 0.51553 0.63238 0.99489 0.0
H3400 H 0.45646 0.60361 0.97949 0.0
H3401 H 0.47241 0.62768 0.98013 0.0
H3402 H 0.53085 0.64092 0.99923 0.0
H3403 H 0.50713 0.63864 0.98129 0.0
H3404 H 0.50453 0.54362 0.04102 0.0
H3405 H 0.48057 0.54183 0.02342 0.0
H3406 H 0.53721 0.55773 0.04536 0.0
H3407 H 0.55148 0.58253 0.04741 0.0
C3408 C 0.694 0.8728 0.80007 0.0
C3409 C 0.70744 0.85623 0.81034 0.0
C3410 C 0.72474 0.84631 0.77525 0.0
C3411 C 0.71281 0.86382 0.76513 0.0
N3412 N 0.68791 0.89532 0.76829 0.0
N3413 N 0.74017 0.83114 0.8084 0.0
C3414 C 0.698 0.87759 0.77771 0.0
C3415 C 0.72418 0.8442 0.79813 0.0
N3416 N 0.67718 0.88375 0.81168 0.0
N3417 N 0.7361 0.83115 0.763 0.0
H3418 H 0.74047 0.82909 0.82509 0.0
H3419 H 0.75456 0.82398 0.80052 0.0
H3420 H 0.73765 0.83218 0.74626 0.0
H3421 H 0.742 0.8165 0.76932 0.0
H3422 H 0.66478 0.89418 0.8048 0.0
H3423 H 0.67494 0.88164 0.82828 0.0
H3424 H 0.67918 0.90739 0.77691 0.0
H3425 H 0.68932 0.89854 0.7518 0.0
C3426 C 0.44299 0.4761 0.06044 0.0
C3427 C 0.46382 0.46294 0.0601 0.0
C3428 C 0.45987 0.46391 0.02046 0.0
C3429 C 0.44349 0.48141 0.02084 0.0
N3430 N 0.42635 0.50843 0.04475 0.0
N3431 N 0.49667 0.45245 0.03661 0.0
C3432 C 0.43736 0.48904 0.04196 0.0
C3433 C 0.47395 0.45964 0.03914 0.0
N3434 N 0.42734 0.4751 0.07722 0.0
N3435 N 0.46001 0.44945 1.00395 0.0
H3436 H 0.5083 0.45087 0.04961 0.0
H3437 H 0.50415 0.45031 0.02131 0.0
H3438 H 0.44712 0.44975 0.9918 0.0
H3439 H 0.47116 0.43594 1.00411 0.0
H3440 H 0.41137 0.48375 0.07713 0.0
H3441 H 0.42928 0.46398 0.08977 0.0
H3442 H 0.42237 0.5144 0.0601 0.0
H3443 H 0.42381 0.51925 0.03203 0.0
C3444 C 0.80096 0.18444 0.29431 0.0
C3445 C 0.80754 0.16767 0.30891 0.0
C3446 C 0.80788 0.14204 0.27837 0.0
C3447 C 0.79866 0.15827 0.26436 0.0
N3448 N 0.78204 0.19407 0.26054 0.0
N3449 N 0.81503 0.1299 0.31518 0.0
C3450 C 0.79403 0.17925 0.27276 0.0
C3451 C 0.81019 0.14625 0.30103 0.0
N3452 N 0.80194 0.20554 0.30077 0.0
N3453 N 0.81551 0.12289 0.26984 0.0
H3454 H 0.81778 0.13249 0.33164 0.0
H3455 H 0.81459 0.11363 0.31094 0.0
H3456 H 0.81486 0.11954 0.25334 0.0
H3457 H 0.82457 0.1112 0.27869 0.0
H3458 H 0.80009 0.21851 0.29018 0.0
H3459 H 0.80667 0.21026 0.31632 0.0
H3460 H 0.77573 0.20865 0.26669 0.0
H3461 H 0.77634 0.19109 0.24482 0.0
C3462 C 0.06941 0.54501 0.55786 0.0
C3463 C 0.04992 0.55973 0.55672 0.0
C3464 C 0.056 0.55908 0.51729 0.0
C3465 C 0.07102 0.54063 0.51817 0.0
N3466 N 0.08498 0.51223 0.5421 0.0
N3467 N 0.01938 0.57279 0.53205 0.0
C3468 C 0.07536 0.53224 0.53935 0.0
C3469 C 0.04135 0.56413 0.53542 0.0
N3470 N 0.08343 0.54404 0.57579 0.0
N3471 N 0.05746 0.5734 0.50067 0.0
H3472 H 1.00718 0.57493 0.54455 0.0
H3473 H 0.0129 0.57559 0.51649 0.0
H3474 H 0.07065 0.57223 0.48884 0.0
H3475 H 0.04734 0.58755 0.50044 0.0
H3476 H 0.09856 0.53426 0.57646 0.0
H3477 H 0.08136 0.5547 0.5887 0.0
H3478 H 0.08745 0.50553 0.55741 0.0
H3479 H 0.08783 0.50171 0.5292 0.0
C3480 C 0.71799 0.18345 0.72503 0.0
C3481 C 0.70214 0.16994 0.71343 0.0
C3482 C 0.68859 0.15487 0.74819 0.0
C3483 C 0.70756 0.16553 0.75927 0.0
N3484 N 0.74424 0.18613 0.75558 0.0
N3485 N 0.67424 0.14034 0.71415 0.0
C3486 C 0.72345 0.17867 0.74692 0.0
C3487 C 0.68813 0.15477 0.72509 0.0
N3488 N 0.7266 0.20186 0.71577 0.0
N3489 N 0.6701 0.14611 0.75957 0.0
H3490 H 0.67352 0.13988 0.69731 0.0
H3491 H 0.6653 0.12768 0.72174 0.0
H3492 H 0.66862 0.14755 0.7763 0.0
H3493 H 0.6549 0.13981 0.75223 0.0
H3494 H 0.73637 0.21331 0.72439 0.0
H3495 H 0.72119 0.20699 0.70052 0.0
H3496 H 0.75707 0.19421 0.74642 0.0
H3497 H 0.74988 0.18223 0.77106 0.0
C3498 C 0.06957 0.44885 0.97491 0.0
C3499 C 0.05596 0.46158 0.96022 0.0
C3500 C 0.06597 0.49395 0.98187 0.0
C3501 C 0.07672 0.4809 0.99815 0.0
N3502 N 0.0895 0.44561 1.00973 0.0
N3503 N 0.0403 0.49635 0.95033 0.0
C3504 C 0.07864 0.45822 0.99452 0.0
C3505 C 0.05407 0.48417 0.96385 0.0
N3506 N 0.07464 0.42793 0.96957 0.0
N3507 N 0.06795 0.51588 0.98314 0.0
H3508 H 0.03213 0.49003 0.93659 0.0
H3509 H 0.03581 0.51237 0.95341 0.0
H3510 H 0.07516 0.5238 0.99648 0.0
H3511 H 0.06413 0.52613 0.97026 0.0
H3512 H 0.08626 0.41811 0.97821 0.0
H3513 H 0.06878 0.42088 0.95523 0.0
H3514 H 0.08907 0.42881 1.0096 0.0
H3515 H 0.09803 0.45197 0.02326 0.0
C3516 C 0.81507 0.87732 0.24298 0.0
C3517 C 0.80002 0.8634 0.25517 0.0
C3518 C 0.78877 0.84448 0.22176 0.0
C3519 C 0.80578 0.85662 0.20992 0.0
N3520 N 0.83626 0.88403 0.2093 0.0
N3521 N 0.77633 0.83093 0.2566 0.0
C3522 C 0.81925 0.87293 0.22058 0.0
C3523 C 0.78799 0.84619 0.24467 0.0
N3524 N 0.82517 0.89485 0.2528 0.0
N3525 N 0.77277 0.83169 0.21115 0.0
H3526 H 0.77485 0.83162 0.27336 0.0
H3527 H 0.77019 0.81649 0.25 0.0
H3528 H 0.77268 0.82985 0.19443 0.0
H3529 H 0.75821 0.82451 0.21877 0.0
H3530 H 0.8341 0.90703 0.24448 0.0
H3531 H 0.82353 0.8978 0.26932 0.0
H3532 H 0.84868 0.89427 0.21647 0.0
H3533 H 0.83861 0.88226 0.19268 0.0
C3534 C 0.43232 0.56123 0.49129 0.0
C3535 C 0.43979 0.54056 0.4988 0.0
C3536 C 0.46613 0.53743 0.46687 0.0
C3537 C 0.46002 0.55862 0.46006 0.0
N3538 N 0.43796 0.5913 0.46636 0.0
N3539 N 0.46753 0.51116 0.49596 0.0
C3540 C 0.44325 0.57066 0.47249 0.0
C3541 C 0.45776 0.52933 0.48719 0.0
N3542 N 0.41435 0.57166 0.50195 0.0
N3543 N 0.47919 0.52459 0.45343 0.0
H3544 H 0.46166 0.50454 0.51052 0.0
H3545 H 0.48298 0.50406 0.4899 0.0
H3546 H 0.48523 0.52986 0.43838 0.0
H3547 H 0.4819 0.50818 0.45624 0.0
H3548 H 0.40592 0.58547 0.49621 0.0
H3549 H 0.40699 0.56584 0.5163 0.0
H3550 H 0.42831 0.60213 0.47577 0.0
H3551 H 0.44408 0.59791 0.45194 0.0
C3552 C 0.75454 0.75258 0.86493 0.0
C3553 C 0.73931 0.76868 0.85612 0.0
C3554 C 0.76174 0.76636 0.82168 0.0
C3555 C 0.77889 0.75253 0.8316 0.0
N3556 N 0.79212 0.73323 0.86311 0.0
N3557 N 0.72472 0.78694 0.82458 0.0
C3558 C 0.77529 0.74577 0.85332 0.0
C3559 C 0.74185 0.77441 0.83399 0.0
N3560 N 0.74856 0.74322 0.88418 0.0
N3561 N 0.765 0.77232 0.80063 0.0
H3562 H 0.71075 0.79385 0.83326 0.0
H3563 H 0.72334 0.78962 0.80806 0.0
H3564 H 0.77865 0.76609 0.79109 0.0
H3565 H 0.7548 0.78377 0.79257 0.0
H3566 H 0.75738 0.72993 0.89067 0.0
H3567 H 0.73321 0.74746 0.89272 0.0
H3568 H 0.79222 0.72977 0.87956 0.0
H3569 H 0.80708 0.72752 0.85497 0.0
C3570 C 0.5365 0.525 0.10297 0.0
C3571 C 0.55635 0.51177 0.10865 0.0
C3572 C 0.57978 0.54493 0.11448 0.0
C3573 C 0.56137 0.55766 0.10508 0.0
N3574 N 0.52258 0.55877 0.08802 0.0
N3575 N 0.5983 0.50963 0.11689 0.0
C3576 C 0.53975 0.54745 0.09885 0.0
C3577 C 0.57836 0.52189 0.11379 0.0
N3578 N 0.51423 0.51625 0.10215 0.0
N3579 N 0.59852 0.55494 0.12439 0.0
H3580 H 0.59824 0.49283 0.11564 0.0
H3581 H 0.61529 0.51623 0.11854 0.0
H3582 H 0.59967 0.57172 0.12574 0.0
H3583 H 0.61141 0.54664 0.13321 0.0
H3584 H 0.49873 0.52538 0.10063 0.0
H3585 H 0.51115 0.50004 0.10529 0.0
H3586 H 0.50781 0.55148 0.0809 0.0
H3587 H 0.52389 0.57512 0.08437 0.0
C3588 C 0.74489 0.28037 0.34989 0.0
C3589 C 0.7345 0.26825 0.33271 0.0
C3590 C 0.76237 0.23854 0.34063 0.0
C3591 C 0.77429 0.25123 0.35644 0.0
N3592 N 0.77791 0.28521 0.37503 0.0
N3593 N 0.7379 0.23799 0.3085 0.0
C3594 C 0.76591 0.27254 0.3606 0.0
C3595 C 0.74454 0.24795 0.32721 0.0
N3596 N 0.73404 0.29896 0.35658 0.0
N3597 N 0.76741 0.21709 0.33891 0.0
H3598 H 0.72575 0.24488 0.29786 0.0
H3599 H 0.74634 0.22427 0.30247 0.0
H3600 H 0.78073 0.20981 0.34797 0.0
H3601 H 0.75734 0.20639 0.32965 0.0
H3602 H 0.73898 0.30745 0.37037 0.0
H3603 H 0.71873 0.30505 0.34925 0.0
H3604 H 0.7745 0.30159 0.37721 0.0
H3605 H 0.79251 0.27967 0.38385 0.0
C3606 C 0.94298 0.50374 0.587 0.0
C3607 C 0.95553 0.51214 0.60502 0.0
C3608 C 0.96048 0.47477 0.6185 0.0
C3609 C 0.95102 0.46641 0.59891 0.0
N3610 N 0.93843 0.47396 0.56223 0.0
N3611 N 0.98022 0.50472 0.63619 0.0
C3612 C 0.94378 0.48121 0.5825 0.0
C3613 C 0.96537 0.4974 0.62034 0.0
N3614 N 0.92955 0.51721 0.57446 0.0
N3615 N 0.96394 0.46136 0.63573 0.0
H3616 H 0.98456 0.52094 0.63812 0.0
H3617 H 0.98995 0.49445 0.64618 0.0
H3618 H 0.95998 0.44491 0.6353 0.0
H3619 H 0.96845 0.46697 0.65106 0.0
H3620 H 0.91822 0.51162 0.56235 0.0
H3621 H 0.92766 0.53364 0.57777 0.0
H3622 H 0.93554 0.48433 0.54923 0.0
H3623 H 0.93931 0.45777 0.55775 0.0
C3624 C 0.7719 0.27843 0.67028 0.0
C3625 C 0.78359 0.26602 0.68657 0.0
C3626 C 0.75848 0.23496 0.67632 0.0
C3627 C 0.74407 0.24821 0.6627 0.0
N3628 N 0.73793 0.28308 0.64629 0.0
N3629 N 0.78447 0.23313 0.70749 0.0
C3630 C 0.75094 0.27019 0.65975 0.0
C3631 C 0.77591 0.24446 0.69021 0.0
N3632 N 0.78174 0.29761 0.66387 0.0
N3633 N 0.75648 0.21303 0.67531 0.0
H3634 H 0.79646 0.23961 0.7186 0.0
H3635 H 0.77793 0.21802 0.71196 0.0
H3636 H 0.74395 0.20529 0.66568 0.0
H3637 H 0.76845 0.20256 0.6828 0.0
H3638 H 0.77573 0.3065 0.65069 0.0
H3639 H 0.79755 0.30364 0.67037 0.0
H3640 H 0.73998 0.29978 0.64551 0.0
H3641 H 0.72413 0.27725 0.63665 0.0
C3642 C 0.95447 0.55083 0.89639 0.0
C3643 C 0.95773 0.55914 0.91756 0.0
C3644 C 0.97133 0.52326 0.9297 0.0
C3645 C 0.96621 0.51447 0.90899 0.0
N3646 N 0.94869 0.51916 0.87379 0.0
N3647 N 0.96437 0.55194 0.95547 0.0
C3648 C 0.95666 0.52811 0.89262 0.0
C3649 C 0.96469 0.54495 0.93453 0.0
N3650 N 0.94923 0.56466 0.87985 0.0
N3651 N 0.98352 0.51125 0.94457 0.0
H3652 H 0.95994 0.56766 0.9599 0.0
H3653 H 0.96651 0.54167 0.96865 0.0
H3654 H 0.9889 0.49538 0.94187 0.0
H3655 H 0.99022 0.51765 0.9589 0.0
H3656 H 0.94918 0.56008 0.86368 0.0
H3657 H 0.94661 0.58118 0.88215 0.0
H3658 H 0.9394 0.52775 0.86204 0.0
H3659 H 0.94934 0.50259 0.87077 0.0
C3660 C 0.73854 0.747 0.16753 0.0
C3661 C 0.73515 0.75363 0.18931 0.0
C3662 C 0.7723 0.77544 0.18674 0.0
C3663 C 0.77465 0.76979 0.16456 0.0
N3664 N 0.76507 0.74438 0.13655 0.0
N3665 N 0.74933 0.77332 0.22023 0.0
C3666 C 0.75927 0.75376 0.15583 0.0
C3667 C 0.75245 0.76739 0.19915 0.0
N3668 N 0.72151 0.73464 0.15776 0.0
N3669 N 0.78954 0.78794 0.19606 0.0
H3670 H 0.7355 0.76735 0.22975 0.0
H3671 H 0.75983 0.7845 0.22833 0.0
H3672 H 0.80346 0.79486 0.1873 0.0
H3673 H 0.79103 0.79065 0.21256 0.0
H3674 H 0.72128 0.73129 0.14129 0.0
H3675 H 0.7065 0.72905 0.16594 0.0
H3676 H 0.75613 0.73112 0.13012 0.0
H3677 H 0.78041 0.74856 0.12795 0.0
C3678 C 0.54474 0.49851 0.42878 0.0
C3679 C 0.54952 0.50718 0.40791 0.0
C3680 C 0.56101 0.47066 0.39541 0.0
C3681 C 0.55791 0.46242 0.41664 0.0
N3682 N 0.55095 0.46952 0.45449 0.0
N3683 N 0.56657 0.50222 0.37255 0.0
C3684 C 0.55101 0.47668 0.43359 0.0
C3685 C 0.55879 0.49339 0.39153 0.0
N3686 N 0.53325 0.51081 0.44387 0.0
N3687 N 0.56613 0.45676 0.37891 0.0
H3688 H 0.56598 0.51878 0.36945 0.0
H3689 H 0.57568 0.49356 0.36074 0.0
H3690 H 0.56875 0.44025 0.38129 0.0
H3691 H 0.56604 0.46124 0.36271 0.0
H3692 H 0.52683 0.50468 0.45841 0.0
H3693 H 0.52825 0.52679 0.44126 0.0
H3694 H 0.54912 0.4797 0.46777 0.0
H3695 H 0.55459 0.4536 0.45882 0.0
C3696 C 0.81423 0.79619 0.70166 0.0
C3697 C 0.80162 0.81047 0.7154 0.0
C3698 C 0.81267 0.78759 0.74663 0.0
C3699 C 0.82347 0.77213 0.73258 0.0
N3700 N 0.836 0.7623 0.69671 0.0
N3701 N 0.78902 0.82035 0.75108 0.0
C3702 C 0.82465 0.77663 0.71 0.0
C3703 C 0.80106 0.80638 0.73796 0.0
N3704 N 0.81646 0.80245 0.68066 0.0
N3705 N 0.81413 0.78451 0.76844 0.0
H3706 H 0.78135 0.83458 0.74537 0.0
H3707 H 0.78585 0.81772 0.7674 0.0
H3708 H 0.82097 0.77046 0.77527 0.0
H3709 H 0.80957 0.79605 0.77991 0.0
H3710 H 0.82613 0.7943 0.66885 0.0
H3711 H 0.82613 0.7943 0.66885 0.0
H3712 H 0.83583 0.76302 0.67996 0.0
H3713 H 0.84522 0.74888 0.70249 0.0
C3714 C 0.32642 0.72022 0.31604 0.0
C3715 C 0.30568 0.71098 0.3066 0.0
C3716 C 0.30671 0.73966 0.27852 0.0
C3717 C 0.32674 0.74945 0.2887 0.0
N3718 N 0.35246 0.75147 0.3197 0.0
N3719 N 0.27447 0.71323 0.28008 0.0
C3720 C 0.3356 0.74041 0.30825 0.0
C3721 C 0.29539 0.72112 0.28815 0.0
N3722 N 0.33778 0.7093 0.33219 0.0
N3723 N 0.29877 0.74789 0.25936 0.0
H3724 H 0.2665 0.69923 0.28597 0.0
H3725 H 0.26429 0.72096 0.26836 0.0
H3726 H 0.30626 0.76153 0.25216 0.0
H3727 H 0.28551 0.74079 0.25004 0.0
H3728 H 0.35431 0.71383 0.33835 0.0
H3729 H 0.33166 0.6945 0.33803 0.0
H3730 H 0.35799 0.74707 0.33513 0.0
H3731 H 0.35943 0.76624 0.31455 0.0
C3732 C 0.50903 0.09404 0.48537 0.0
C3733 C 0.4943 0.10719 0.49875 0.0
C3734 C 0.52094 0.09846 0.52949 0.0
C3735 C 0.53343 0.08305 0.51663 0.0
N3736 N 0.53633 0.06388 0.48281 0.0
N3737 N 0.48675 0.12226 0.53397 0.0
C3738 C 0.52662 0.08025 0.49471 0.0
C3739 C 0.50032 0.10932 0.521 0.0
N3740 N 0.5071 0.09541 0.46345 0.0
N3741 N 0.52969 0.10372 0.54941 0.0
H3742 H 0.47317 0.1321 0.52806 0.0
H3743 H 0.48809 0.12246 0.55073 0.0
H3744 H 0.54508 0.09679 0.5558 0.0
H3745 H 0.52316 0.11631 0.55882 0.0
H3746 H 0.51933 0.08848 0.45285 0.0
H3747 H 0.49423 0.10476 0.45585 0.0
H3748 H 0.53006 0.05951 0.46759 0.0
H3749 H 0.54923 0.05339 0.48882 0.0
C3750 C 0.2109 0.30646 0.78606 0.0
C3751 C 0.20877 0.31029 0.80859 0.0
C3752 C 0.18575 0.27613 0.81205 0.0
C3753 C 0.18797 0.27227 0.78943 0.0
N3754 N 0.19733 0.2869 0.75441 0.0
N3755 N 0.18968 0.3013 0.84217 0.0
C3756 C 0.199 0.28838 0.77634 0.0
C3757 C 0.1949 0.29578 0.82133 0.0
N3758 N 0.22493 0.3198 0.77389 0.0
N3759 N 0.17457 0.2611 0.82467 0.0
H3760 H 0.19564 0.31564 0.84915 0.0
H3761 H 0.1779 0.29281 0.85198 0.0
H3762 H 0.16598 0.24757 0.81834 0.0
H3763 H 0.17473 0.26138 0.84147 0.0
H3764 H 0.2296 0.31655 0.75794 0.0
H3765 H 0.23312 0.33357 0.78016 0.0
H3766 H 0.20134 0.29969 0.74409 0.0
H3767 H 0.19016 0.2735 0.74655 0.0
C3768 C 0.49471 0.42198 0.52867 0.0
C3769 C 0.483 0.43792 0.51585 0.0
C3770 C 0.51021 0.42907 0.48571 0.0
C3771 C 0.52346 0.41471 0.49909 0.0
N3772 N 0.52866 0.39799 0.53387 0.0
N3773 N 0.48194 0.45852 0.48281 0.0
C3774 C 0.51587 0.41147 0.52081 0.0
C3775 C 0.49141 0.44192 0.49455 0.0
N3776 N 0.48478 0.41602 0.54795 0.0
N3777 N 0.51491 0.42979 0.46412 0.0
H3778 H 0.46757 0.46772 0.48812 0.0
H3779 H 0.48943 0.46421 0.4685 0.0
H3780 H 0.52898 0.42135 0.45727 0.0
H3781 H 0.50408 0.43756 0.45289 0.0
H3782 H 0.4907 0.40306 0.5572 0.0
H3783 H 0.46912 0.42286 0.5539 0.0
H3784 H 0.52603 0.39676 0.55046 0.0
H3785 H 0.54305 0.38889 0.52834 0.0
C3786 C 0.69931 0.23185 0.24469 0.0
C3787 C 0.68851 0.24795 0.23145 0.0
C3788 C 0.69559 0.22429 0.19976 0.0
C3789 C 0.70934 0.20981 0.21261 0.0
N3790 N 0.72506 0.20039 0.24747 0.0
N3791 N 0.67557 0.259 0.19605 0.0
C3792 C 0.71126 0.21373 0.23514 0.0
C3793 C 0.68653 0.24402 0.20885 0.0
N3794 N 0.69732 0.23337 0.2666 0.0
N3795 N 0.69022 0.21857 0.17903 0.0
H3796 H 0.6669 0.27255 0.20223 0.0
H3797 H 0.67604 0.25868 0.17926 0.0
H3798 H 0.69575 0.20398 0.17234 0.0
H3799 H 0.67854 0.22706 0.16913 0.0
H3800 H 0.70121 0.22062 0.277 0.0
H3801 H 0.69005 0.24677 0.27435 0.0
H3802 H 0.72961 0.2037 0.26343 0.0
H3803 H 0.73316 0.18653 0.24132 0.0
C3804 C 0.50403 0.90625 1.00041 0.0
C3805 C 0.49162 0.91345 0.01913 0.0
C3806 C 0.51962 0.94418 0.02211 0.0
C3807 C 0.5319 0.93727 1.00321 0.0
N3808 N 0.53373 0.91334 0.97257 0.0
N3809 N 0.48401 0.94197 0.04445 0.0
C3810 C 0.52341 0.91878 0.99181 0.0
C3811 C 0.49838 0.93324 0.02894 0.0
N3812 N 0.49756 0.88708 0.99114 0.0
N3813 N 0.52861 0.96095 0.03392 0.0
H3814 H 0.46867 0.93425 0.05002 0.0
H3815 H 0.48591 0.9577 0.05013 0.0
H3816 H 0.54399 0.96931 0.02952 0.0
H3817 H 0.52195 0.96553 0.04891 0.0
H3818 H 0.50742 0.87931 0.97922 0.0
H3819 H 0.48265 0.87831 0.99614 0.0
H3820 H 0.52696 0.9017 0.96212 0.0
H3821 H 0.54856 0.92137 0.96636 0.0
C3822 C 0.0119 0.11329 0.50314 0.0
C3823 C 0.0262 0.10479 0.5201 0.0
C3824 C 1.00103 0.07186 0.52018 0.0
C3825 C 0.98532 0.08123 0.50478 0.0
N3826 N 0.97474 0.11186 0.48288 0.0
N3827 N 0.0357 0.07397 0.54256 0.0
C3828 C 0.99062 0.10219 0.49652 0.0
C3829 C 0.0212 0.08364 0.52788 0.0
N3830 N 0.01907 0.13181 0.49302 0.0
N3831 N 0.99688 0.05143 0.52764 0.0
H3832 H 0.05107 0.0811 0.54883 0.0
H3833 H 0.05107 0.0811 0.54883 0.0
H3834 H 0.98242 0.0421 0.5226 0.0
H3835 H 0.00799 0.04391 0.53887 0.0
H3836 H 0.011 0.13799 0.47922 0.0
H3837 H 0.03458 0.14006 0.49737 0.0
H3838 H 0.97593 0.1279 0.47794 0.0
H3839 H 0.95913 0.10427 0.47784 0.0
C3840 C 0.1412 0.42156 0.40786 0.0
C3841 C 0.1264 0.42565 0.4261 0.0
C3842 C 0.12509 0.38636 0.43347 0.0
C3843 C 0.13917 0.38224 0.41479 0.0
N3844 N 0.15644 0.39551 0.38183 0.0
N3845 N 0.10058 0.41166 0.45378 0.0
C3846 C 0.14573 0.39977 0.40119 0.0
C3847 C 0.11711 0.40789 0.43802 0.0
N3848 N 0.15212 0.43845 0.39764 0.0
N3849 N 0.1205 0.36991 0.4476 0.0
H3850 H 0.0946 0.42716 0.45761 0.0
H3851 H 0.09132 0.39943 0.46173 0.0
H3852 H 0.12578 0.35401 0.44477 0.0
H3853 H 0.11292 0.3722 0.46277 0.0
H3854 H 0.16525 0.43652 0.38592 0.0
H3855 H 0.14939 0.45452 0.40203 0.0
H3856 H 0.1597 0.40726 0.37016 0.0
H3857 H 0.16005 0.37981 0.37662 0.0
C3858 C 0.89706 0.87489 0.65007 0.0
C3859 C 0.90707 0.88281 0.6306 0.0
C3860 C 0.86757 0.88 0.6133 0.0
C3861 C 0.85708 0.87498 0.63359 0.0
N3862 N 0.86182 0.8718 0.67228 0.0
N3863 N 0.90126 0.89556 0.59415 0.0
C3864 C 0.87186 0.87342 0.65224 0.0
C3865 C 0.89219 0.88597 0.61226 0.0
N3866 N 0.91173 0.86854 0.6665 0.0
N3867 N 0.85418 0.87853 0.59494 0.0
H3868 H 0.91911 0.90004 0.59267 0.0
H3869 H 0.89073 0.90056 0.58124 0.0
H3870 H 0.83626 0.87402 0.59511 0.0
H3871 H 0.86134 0.87986 0.57947 0.0
H3872 H 0.90561 0.86059 0.68027 0.0
H3873 H 0.93028 0.86924 0.66537 0.0
H3874 H 0.87157 0.87295 0.68655 0.0
H3875 H 0.84348 0.87159 0.67481 0.0
C3876 C 0.36878 0.61969 0.90057 0.0
C3877 C 0.3755 0.63754 0.91364 0.0
C3878 C 0.39846 0.61262 0.9369 0.0
C3879 C 0.38897 0.59454 0.92566 0.0
N3880 N 0.36306 0.58083 0.89782 0.0
N3881 N 0.39517 0.65081 0.94557 0.0
C3882 C 0.3738 0.59808 0.90758 0.0
C3883 C 0.39021 0.63397 0.93202 0.0
N3884 N 0.35743 0.62347 0.88142 0.0
N3885 N 0.41546 0.60932 0.95232 0.0
H3886 H 0.38985 0.66663 0.9424 0.0
H3887 H 0.40316 0.64894 0.96062 0.0
H3888 H 0.42166 0.59395 0.95638 0.0
H3889 H 0.42486 0.62181 0.95967 0.0
H3890 H 0.35391 0.61149 0.87006 0.0
H3891 H 0.35347 0.63904 0.87601 0.0
H3892 H 0.34971 0.58232 0.88626 0.0
H3893 H 0.36631 0.56489 0.90239 0.0
C3894 C 0.64686 0.14239 0.10889 0.0
C3895 C 0.65679 0.14828 0.12916 0.0
C3896 C 0.61618 0.15058 0.14427 0.0
C3897 C 0.60665 0.14131 0.12519 0.0
N3898 N 0.61332 0.12705 0.08945 0.0
N3899 N 0.65071 0.15518 0.1672 0.0
C3900 C 0.62207 0.13707 0.10741 0.0
C3901 C 0.64136 0.15184 0.14709 0.0
N3902 N 0.66103 0.14235 0.09093 0.0
N3903 N 0.60103 0.15837 0.15969 0.0
H3904 H 0.66894 0.15569 0.17025 0.0
H3905 H 0.64044 0.15542 0.18122 0.0
H3906 H 0.58253 0.15792 0.15793 0.0
H3907 H 0.60674 0.16723 0.17302 0.0
H3908 H 0.65448 0.14036 0.07533 0.0
H3909 H 0.6791 0.14632 0.09145 0.0
H3910 H 0.6241 0.12106 0.07713 0.0
H3911 H 0.59531 0.12354 0.08741 0.0
C3912 C 0.14558 0.62055 0.12115 0.0
C3913 C 0.13846 0.63843 0.10828 0.0
C3914 C 0.11468 0.61343 0.08565 0.0
C3915 C 0.12474 0.59535 0.09647 0.0
N3916 N 0.15136 0.58169 0.12374 0.0
N3917 N 0.11726 0.65176 0.07721 0.0
C3918 C 0.14035 0.59893 0.11425 0.0
C3919 C 0.12295 0.63485 0.09043 0.0
N3920 N 0.15756 0.62433 0.13999 0.0
N3921 N 0.09725 0.61003 0.07063 0.0
H3922 H 0.12259 0.66759 0.08034 0.0
H3923 H 0.10855 0.64998 0.06249 0.0
H3924 H 0.09106 0.5946 0.06675 0.0
H3925 H 0.08749 0.62241 0.06348 0.0
H3926 H 0.16146 0.61235 0.15123 0.0
H3927 H 0.16168 0.63991 0.14529 0.0
H3928 H 0.16506 0.58317 0.13497 0.0
H3929 H 0.14786 0.56574 0.11933 0.0
C3930 C 0.64205 0.861 0.37923 0.0
C3931 C 0.65858 0.8727 0.39228 0.0
C3932 C 0.62464 0.89207 0.40815 0.0
C3933 C 0.60811 0.87794 0.39781 0.0
N3934 N 0.6031 0.84428 0.37849 0.0
N3935 N 0.66363 0.89438 0.42446 0.0
C3936 C 0.61741 0.8609 0.38491 0.0
C3937 C 0.64927 0.88664 0.40845 0.0
N3938 N 0.64925 0.85111 0.36063 0.0
N3939 N 0.61737 0.91141 0.41644 0.0
H3940 H 0.68133 0.88953 0.42621 0.0
H3941 H 0.65702 0.90343 0.43735 0.0
H3942 H 0.60018 0.91741 0.41435 0.0
H3943 H 0.62931 0.92267 0.42278 0.0
H3944 H 0.63727 0.84382 0.35001 0.0
H3945 H 0.66642 0.8526 0.35439 0.0
H3946 H 0.6097 0.83079 0.37035 0.0
H3947 H 0.58544 0.84278 0.38357 0.0
C3948 C 0.40111 0.40772 0.58428 0.0
C3949 C 0.39119 0.42546 0.59547 0.0
C3950 C 0.37127 0.3999 0.62033 0.0
C3951 C 0.37843 0.3822 0.60721 0.0
N3952 N 0.39896 0.36934 0.57555 0.0
N3953 N 0.36494 0.43869 0.62322 0.0
C3954 C 0.39344 0.38608 0.58903 0.0
C3955 C 0.37601 0.42163 0.61348 0.0
N3956 N 0.41773 0.41233 0.56891 0.0
N3957 N 0.35972 0.39584 0.63934 0.0
H3958 H 0.36804 0.45468 0.61871 0.0
H3959 H 0.35154 0.43699 0.63473 0.0
H3960 H 0.35597 0.38019 0.64463 0.0
H3961 H 0.3558 0.40772 0.6507 0.0
H3962 H 0.42742 0.40081 0.56034 0.0
H3963 H 0.42742 0.40081 0.56034 0.0
H3964 H 0.40716 0.37124 0.5606 0.0
H3965 H 0.39389 0.35344 0.57868 0.0
C3966 C 0.8973 0.1593 0.88776 0.0
C3967 C 0.90775 0.13946 0.89437 0.0
C3968 C 0.8678 0.12281 0.89525 0.0
C3969 C 0.85793 0.14165 0.88586 0.0
N3970 N 0.86355 0.17735 0.8711 0.0
N3971 N 0.90306 0.10122 0.90126 0.0
C3972 C 0.87273 0.15985 0.88167 0.0
C3973 C 0.89298 0.12095 0.89745 0.0
N3974 N 0.91073 0.17772 0.88784 0.0
N3975 N 0.85301 0.10671 0.90227 0.0
H3976 H 0.92136 0.0989 0.90256 0.0
H3977 H 0.89348 0.0868 0.90114 0.0
H3978 H 0.83449 0.10755 0.90084 0.0
H3979 H 0.85886 0.09357 0.91134 0.0
H3980 H 0.90366 0.19306 0.88528 0.0
H3981 H 0.92862 0.1779 0.89243 0.0
H3982 H 0.87397 0.19001 0.8653 0.0
H3983 H 0.84563 0.17853 0.86676 0.0
C3984 C 0.3741 0.18109 0.38393 0.0
C3985 C 0.38907 0.1629 0.38762 0.0
C3986 C 0.39109 0.15675 0.34821 0.0
C3987 C 0.37568 0.17464 0.34454 0.0
N3988 N 0.34875 0.2011 0.35907 0.0
N3989 N 0.40764 0.13083 0.37374 0.0
C3990 C 0.36591 0.18584 0.36252 0.0
C3991 C 0.39607 0.14985 0.36985 0.0
N3992 N 0.36883 0.19461 0.40071 0.0
N3993 N 0.40211 0.14709 0.33107 0.0
H3994 H 0.41158 0.1255 0.38934 0.0
H3995 H 0.41137 0.11948 0.36181 0.0
H3996 H 0.39893 0.15158 0.3151 0.0
H3997 H 0.41563 0.1357 0.33267 0.0
H3998 H 0.36057 0.20953 0.39878 0.0
H3999 H 0.37414 0.19155 0.41655 0.0
H4000 H 0.33918 0.20845 0.37144 0.0
H4001 H 0.34262 0.20505 0.34365 0.0
C4002 C 0.14599 0.17905 0.63566 0.0
C4003 C 0.13128 0.16068 0.63183 0.0
C4004 C 0.12879 0.15461 0.67127 0.0
C4005 C 0.14364 0.17288 0.67511 0.0
N4006 N 0.17047 0.19959 0.66087 0.0
N4007 N 0.11325 0.12829 0.64559 0.0
C4008 C 0.15367 0.18403 0.6572 0.0
C4009 C 0.12435 0.14754 0.64957 0.0
N4010 N 0.15139 0.19256 0.6189 0.0
N4011 N 0.11765 0.14482 0.68829 0.0
H4012 H 0.10972 0.12286 0.62995 0.0
H4013 H 0.10956 0.1169 0.65751 0.0
H4014 H 0.12047 0.14941 0.70428 0.0
H4015 H 0.10442 0.13315 0.68653 0.0
H4016 H 0.15946 0.20758 0.62087 0.0
H4017 H 0.14641 0.18935 0.603 0.0
H4018 H 0.1802 0.20706 0.64864 0.0
H4019 H 0.1762 0.20366 0.67638 0.0
C4020 C 0.11831 0.86987 0.86927 0.0
C4021 C 0.1259 0.85737 0.88727 0.0
C4022 C 0.15011 0.83508 0.86244 0.0
C4023 C 0.13958 0.84532 0.84427 0.0
N4024 N 0.11202 0.87171 0.83043 0.0
N4025 N 0.14727 0.82636 0.9006 0.0
C4026 C 0.12348 0.86275 0.84771 0.0
C4027 C 0.14163 0.83969 0.88378 0.0
N4028 N 0.10596 0.88854 0.87286 0.0
N4029 N 0.16828 0.82081 0.85924 0.0
H4030 H 0.14151 0.82909 0.91637 0.0
H4031 H 0.15618 0.81173 0.89869 0.0
H4032 H 0.17473 0.81706 0.84387 0.0
H4033 H 0.17841 0.81448 0.87182 0.0
H4034 H 0.10168 0.89951 0.86073 0.0
H4035 H 0.10187 0.89401 0.88838 0.0
H4036 H 0.09801 0.88263 0.83188 0.0
H4037 H 0.11551 0.86715 0.81453 0.0
C4038 C 0.37247 0.84086 0.13565 0.0
C4039 C 0.38771 0.85885 0.13172 0.0
C4040 C 0.39009 0.86534 0.17105 0.0
C4041 C 0.37478 0.8474 0.17499 0.0
N4042 N 0.34728 0.82115 0.16098 0.0
N4043 N 0.40656 0.89099 0.14515 0.0
C4044 C 0.36454 0.83628 0.15719 0.0
C4045 C 0.3949 0.87205 0.14931 0.0
N4046 N 0.36675 0.82735 0.119 0.0
N4047 N 0.40122 0.87515 0.18804 0.0
H4048 H 0.41038 0.89616 0.12947 0.0
H4049 H 0.41049 0.90243 0.15695 0.0
H4050 H 0.39801 0.87088 0.20407 0.0
H4051 H 0.41474 0.88655 0.18627 0.0
H4052 H 0.35822 0.81255 0.12108 0.0
H4053 H 0.3719 0.83029 0.10308 0.0
H4054 H 0.33742 0.81376 0.14881 0.0
H4055 H 0.34133 0.81743 0.17652 0.0
C4056 C 0.39718 0.37199 0.14864 0.0
C4057 C 0.40637 0.38745 0.1339 0.0
C4058 C 0.36556 0.39862 0.12445 0.0
C4059 C 0.35637 0.38326 0.1393 0.0
N4060 N 0.36273 0.35218 0.162 0.0
N4061 N 0.39981 0.41218 0.10447 0.0
C4062 C 0.37202 0.36889 0.15023 0.0
C4063 C 0.39064 0.39965 0.12068 0.0
N4064 N 0.41249 0.36096 0.16179 0.0
N4065 N 0.35039 0.41287 0.11469 0.0
H4066 H 0.41806 0.41337 0.10142 0.0
H4067 H 0.38941 0.41995 0.09293 0.0
H4068 H 0.33192 0.41218 0.11663 0.0
H4069 H 0.35604 0.42613 0.1057 0.0
H4070 H 0.40699 0.35141 0.17471 0.0
H4071 H 0.43099 0.36228 0.1605 0.0
H4072 H 0.37299 0.3399 0.16871 0.0
H4073 H 0.34443 0.34956 0.16359 0.0
C4074 C 0.87539 0.92255 0.11412 0.0
C4075 C 0.89072 0.92629 0.09615 0.0
C4076 C 0.89264 0.88684 0.0899 0.0
C4077 C 0.87751 0.8831 0.108 0.0
N4078 N 0.85885 0.89695 0.14004 0.0
N4079 N 0.91791 0.91187 0.06989 0.0
C4080 C 0.87046 0.90088 0.12103 0.0
C4081 C 0.90072 0.90831 0.08512 0.0
N4082 N 0.86432 0.93967 0.12376 0.0
N4083 N 0.89813 0.87005 0.07647 0.0
H4084 H 0.92396 0.92734 0.066 0.0
H4085 H 0.92763 0.89957 0.06256 0.0
H4086 H 0.89287 0.85419 0.07954 0.0
H4087 H 0.90657 0.87198 0.06162 0.0
H4088 H 0.85079 0.93803 0.13515 0.0
H4089 H 0.86756 0.95566 0.11931 0.0
H4090 H 0.85506 0.90888 0.15138 0.0
H4091 H 0.85492 0.88134 0.14536 0.0
C4092 C 0.14167 0.65128 0.65162 0.0
C4093 C 0.15738 0.64222 0.63602 0.0
C4094 C 0.12282 0.62912 0.61524 0.0
C4095 C 0.10738 0.63582 0.63219 0.0
N4096 N 0.10158 0.65317 0.66654 0.0
N4097 N 0.16345 0.62211 0.60327 0.0
C4098 C 0.11666 0.64715 0.65026 0.0
C4099 C 0.14806 0.6313 0.61772 0.0
N4100 N 0.15083 0.66381 0.6678 0.0
N4101 N 0.11326 0.62061 0.59679 0.0
H4102 H 0.18189 0.6241 0.60423 0.0
H4103 H 0.15821 0.6117 0.59097 0.0
H4104 H 0.09499 0.6183 0.59469 0.0
H4105 H 0.1231 0.61726 0.58295 0.0
H4106 H 0.14052 0.67278 0.6785 0.0
H4107 H 0.16907 0.66647 0.66965 0.0
H4108 H 0.10723 0.65915 0.68138 0.0
H4109 H 0.08313 0.65128 0.66559 0.0
C4110 C 0.63887 0.92138 0.90576 0.0
C4111 C 0.62367 0.92518 0.9238 0.0
C4112 C 0.62149 0.88576 0.93011 0.0
C4113 C 0.6365 0.88197 0.91196 0.0
N4114 N 0.65505 0.89571 0.87979 0.0
N4115 N 0.59657 0.9109 0.95025 0.0
C4116 C 0.64358 0.89969 0.89885 0.0
C4117 C 0.6136 0.90726 0.9349 0.0
N4118 N 0.65004 0.93845 0.89607 0.0
N4119 N 0.61596 0.869 0.94359 0.0
H4120 H 0.59069 0.9264 0.95418 0.0
H4121 H 0.58682 0.89865 0.95766 0.0
H4122 H 0.62108 0.85311 0.94051 0.0
H4123 H 0.60764 0.87096 0.95848 0.0
H4124 H 0.66349 0.93674 0.88461 0.0
H4125 H 0.64701 0.95445 0.90055 0.0
H4126 H 0.65885 0.90761 0.86842 0.0
H4127 H 0.65881 0.88007 0.87447 0.0
C4128 C 0.89204 0.13508 0.43146 0.0
C4129 C 0.87726 0.13879 0.41315 0.0
C4130 C 0.87513 0.09934 0.40707 0.0
C4131 C 0.8904 0.09566 0.42506 0.0
N4132 N 0.91714 0.11019 0.45165 0.0
N4133 N 0.85875 0.12488 0.38106 0.0
C4134 C 0.90011 0.11365 0.43629 0.0
C4135 C 0.87024 0.12099 0.40012 0.0
N4136 N 0.89725 0.15186 0.44499 0.0
N4137 N 0.86419 0.08218 0.39734 0.0
H4138 H 0.85486 0.14048 0.3757 0.0
H4139 H 0.85501 0.11294 0.36972 0.0
H4140 H 0.86735 0.0662 0.40185 0.0
H4141 H 0.85076 0.08376 0.38586 0.0
H4142 H 0.90531 0.14992 0.46 0.0
H4143 H 0.89205 0.16773 0.44187 0.0
H4144 H 0.92668 0.1226 0.459 0.0
H4145 H 0.9232 0.09477 0.45568 0.0
C4146 C 0.64238 0.12115 0.62147 0.0
C4147 C 0.63557 0.1387 0.60802 0.0
C4148 C 0.61311 0.11298 0.58512 0.0
C4149 C 0.6231 0.09522 0.59653 0.0
N4150 N 0.64902 0.08248 0.62479 0.0
N4151 N 0.61569 0.1511 0.57587 0.0
C4152 C 0.63794 0.09934 0.61473 0.0
C4153 C 0.62091 0.13458 0.58971 0.0
N4154 N 0.65339 0.12543 0.64067 0.0
N4155 N 0.59623 0.10909 0.56971 0.0
H4156 H 0.62082 0.16703 0.57874 0.0
H4157 H 0.60764 0.14885 0.56089 0.0
H4158 H 0.59038 0.09352 0.56596 0.0
H4159 H 0.58653 0.12123 0.56209 0.0
H4160 H 0.657 0.11368 0.65225 0.0
H4161 H 0.6569 0.14117 0.64587 0.0
H4162 H 0.66223 0.08442 0.63643 0.0
H4163 H 0.64619 0.06641 0.62045 0.0
C4164 C 0.12355 0.39093 0.90919 0.0
C4165 C 0.10712 0.37726 0.8981 0.0
C4166 C 0.1412 0.3608 0.8793 0.0
C4167 C 0.15763 0.3721 0.89279 0.0
N4168 N 0.16261 0.39291 0.92552 0.0
N4169 N 0.10217 0.34432 0.87761 0.0
C4170 C 0.14824 0.38558 0.90932 0.0
C4171 C 0.11651 0.36063 0.88474 0.0
N4172 N 0.11613 0.40978 0.91846 0.0
N4173 N 0.1486 0.35136 0.86053 0.0
H4174 H 0.08442 0.34278 0.88241 0.0
H4175 H 0.10878 0.33105 0.86912 0.0
H4176 H 0.16589 0.35285 0.85456 0.0
H4177 H 0.13674 0.34443 0.84957 0.0
H4178 H 0.128 0.42085 0.92522 0.0
H4179 H 0.09883 0.41569 0.91696 0.0
H4180 H 0.156 0.40148 0.93872 0.0
H4181 H 0.18037 0.38818 0.92703 0.0
C4182 C 0.37215 0.66389 0.38629 0.0
C4183 C 0.3567 0.64607 0.39039 0.0
C4184 C 0.39135 0.62412 0.40095 0.0
C4185 C 0.40681 0.64209 0.39755 0.0
N4186 N 0.41107 0.68036 0.39181 0.0
N4187 N 0.35099 0.61148 0.40731 0.0
C4188 C 0.39691 0.66239 0.39171 0.0
C4189 C 0.36618 0.62695 0.39962 0.0
N4190 N 0.36346 0.68191 0.37633 0.0
N4191 N 0.40067 0.60399 0.4042 0.0
H4192 H 0.33249 0.61324 0.40682 0.0
H4193 H 0.35666 0.59811 0.41613 0.0
H4194 H 0.41891 0.60093 0.40472 0.0
H4195 H 0.3904 0.58996 0.40434 0.0
H4196 H 0.37427 0.69427 0.37045 0.0
H4197 H 0.34547 0.68396 0.37278 0.0
H4198 H 0.40454 0.69598 0.38986 0.0
H4199 H 0.42912 0.67983 0.39583 0.0
C4200 C 0.89495 0.64926 0.87007 0.0
C4201 C 0.88777 0.66223 0.88786 0.0
C4202 C 0.8638 0.68446 0.8628 0.0
C4203 C 0.87388 0.67362 0.84476 0.0
N4204 N 0.9008 0.64653 0.83122 0.0
N4205 N 0.86699 0.69371 0.90082 0.0
C4206 C 0.88968 0.656 0.84841 0.0
C4207 C 0.87232 0.68007 0.88416 0.0
N4208 N 0.90703 0.6305 0.87395 0.0
N4209 N 0.84604 0.69912 0.85943 0.0
H4210 H 0.87268 0.69104 0.91662 0.0
H4211 H 0.85839 0.70847 0.89876 0.0
H4212 H 0.83957 0.70272 0.84404 0.0
H4213 H 0.83627 0.70603 0.87194 0.0
H4214 H 0.91099 0.61921 0.86202 0.0
H4215 H 0.91121 0.62531 0.88954 0.0
H4216 H 0.91461 0.63542 0.83277 0.0
H4217 H 0.89728 0.65086 0.81527 0.0
C4218 C 0.62148 0.64845 0.15058 0.0
C4219 C 0.62846 0.66141 0.13269 0.0
C4220 C 0.65164 0.6844 0.15773 0.0
C4221 C 0.64162 0.67357 0.17583 0.0
N4222 N 0.61518 0.64605 0.18939 0.0
N4223 N 0.64855 0.69324 0.1196 0.0
C4224 C 0.62631 0.65556 0.17222 0.0
C4225 C 0.64343 0.67962 0.13634 0.0
N4226 N 0.60997 0.62937 0.14681 0.0
N4227 N 0.66904 0.69944 0.16106 0.0
H4228 H 0.64309 0.6903 0.10378 0.0
H4229 H 0.65674 0.70821 0.12159 0.0
H4230 H 0.67526 0.70334 0.17646 0.0
H4231 H 0.67879 0.70637 0.14854 0.0
H4232 H 0.60619 0.61811 0.15883 0.0
H4233 H 0.60616 0.62391 0.13123 0.0
H4234 H 0.60169 0.6346 0.18782 0.0
H4235 H 0.61832 0.65067 0.20533 0.0
C4236 C 0.62701 0.36504 0.34871 0.0
C4237 C 0.64239 0.34712 0.34504 0.0
C4238 C 0.64441 0.34098 0.38447 0.0
C4239 C 0.6292 0.35901 0.38815 0.0
N4240 N 0.61044 0.39097 0.37422 0.0
N4241 N 0.66975 0.32104 0.35951 0.0
C4242 C 0.62211 0.372 0.37035 0.0
C4243 C 0.65249 0.3362 0.36303 0.0
N4244 N 0.61585 0.37457 0.33158 0.0
N4245 N 0.64991 0.32757 0.40128 0.0
H4246 H 0.67579 0.31714 0.34404 0.0
H4247 H 0.67951 0.31379 0.37182 0.0
H4248 H 0.64459 0.33061 0.41712 0.0
H4249 H 0.65841 0.31275 0.39938 0.0
H4250 H 0.60228 0.38591 0.3332 0.0
H4251 H 0.61905 0.37008 0.31562 0.0
H4252 H 0.6066 0.40227 0.36226 0.0
H4253 H 0.60654 0.39633 0.38982 0.0
C4254 C 0.89001 0.36362 0.67126 0.0
C4255 C 0.87521 0.34532 0.67513 0.0
C4256 C 0.87404 0.33832 0.63582 0.0
C4257 C 0.88829 0.35697 0.63192 0.0
N4258 N 0.90555 0.38981 0.64547 0.0
N4259 N 0.84924 0.31789 0.66088 0.0
C4260 C 0.89475 0.37043 0.64955 0.0
C4261 C 0.86592 0.3336 0.65727 0.0
N4262 N 0.90065 0.37379 0.6883 0.0
N4263 N 0.86943 0.32438 0.61923 0.0
H4264 H 0.84315 0.31397 0.67632 0.0
H4265 H 0.83996 0.31011 0.64857 0.0
H4266 H 0.87481 0.32734 0.60338 0.0
H4267 H 0.86169 0.30924 0.62137 0.0
H4268 H 0.91379 0.38555 0.68655 0.0
H4269 H 0.89762 0.36939 0.70432 0.0
H4270 H 0.90878 0.4014 0.65729 0.0
H4271 H 0.9093 0.39512 0.62983 0.0
loop_
_geom_bond_atom_site_label_1
_geom_bond_atom_site_label_2
_geom_bond_distance
_geom_bond_site_symmetry_2
_ccdc_geom_bond_type
C0 C1 1.443 . S
C0 N4 1.376 . S
C0 C38 1.389 . S
C1 C0 1.443 . S
C1 C2 1.340 . S
C1 H41 0.951 . S
C2 C1 1.340 . S
C2 C3 1.439 . S
C2 H42 0.950 . S
C3 C2 1.439 . S
C3 N4 1.374 . S
C3 C37 1.395 . S
N4 C0 1.376 . S
N4 C3 1.374 . S
N4 Co5 2.008 . S
Co5 N4 2.008 . S
Co5 N6 1.995 . S
Co5 N11 2.008 . S
Co5 N16 1.995 . S
Co5 N21 2.282 . S
Co5 N27 2.282 . S
N6 Co5 1.995 . S
N6 C7 1.376 . S
N6 C10 1.383 . S
C7 N6 1.376 . S
C7 C8 1.446 . S
C7 C37 1.391 . S
C8 C7 1.446 . S
C8 C9 1.339 . S
C8 H43 0.949 . S
C9 C8 1.339 . S
C9 C10 1.439 . S
C9 H44 0.950 . S
C10 N6 1.383 . S
C10 C9 1.439 . S
C10 C39 1.392 . S
N11 Co5 2.008 . S
N11 C12 1.376 . S
N11 C15 1.374 . S
C12 N11 1.376 . S
C12 C13 1.443 . S
C12 C39 1.389 . S
C13 C12 1.443 . S
C13 C14 1.340 . S
C13 H45 0.951 . S
C14 C13 1.340 . S
C14 C15 1.439 . S
C14 H46 0.950 . S
C15 N11 1.374 . S
C15 C14 1.439 . S
C15 C40 1.395 . S
N16 Co5 1.995 . S
N16 C17 1.376 . S
N16 C20 1.383 . S
C17 N16 1.376 . S
C17 C18 1.446 . S
C17 C40 1.391 . S
C18 C17 1.446 . S
C18 C19 1.339 . S
C18 H47 0.949 . S
C19 C18 1.339 . S
C19 C20 1.439 . S
C19 H48 0.950 . S
C20 N16 1.383 . S
C20 C19 1.439 . S
C20 C38 1.392 . S
N21 Co5 2.282 . S
N21 C24 1.332 . S
N21 C26 1.332 . S
C22 C23 1.386 . S
C22 C25 1.388 . S
C23 C22 1.386 . S
C23 C24 1.382 . S
C23 H49 0.950 . S
C24 N21 1.332 . S
C24 C23 1.382 . S
C24 H35 0.952 . S
C25 C22 1.388 . S
C25 C26 1.382 . S
C25 H50 0.950 . S
C26 N21 1.332 . S
C26 C25 1.382 . S
C26 H36 0.948 . S
N27 Co5 2.282 . S
N27 C31 1.332 . S
N27 C32 1.332 . S
C28 C29 1.388 . S
C28 C32 1.382 . S
C28 H51 0.950 . S
C29 C28 1.388 . S
C29 C30 1.386 . S
C30 C29 1.386 . S
C30 C31 1.382 . S
C30 H52 0.950 . S
C31 N27 1.332 . S
C31 C30 1.382 . S
C31 H33 0.952 . S
C32 N27 1.332 . S
C32 C28 1.382 . S
C32 H34 0.948 . S
H33 C31 0.952 . S
H34 C32 0.948 . S
H35 C24 0.952 . S
H36 C26 0.948 . S
C37 C3 1.395 . S
C37 C7 1.391 . S
C38 C0 1.389 . S
C38 C20 1.392 . S
C39 C10 1.392 . S
C39 C12 1.389 . S
C40 C15 1.395 . S
C40 C17 1.391 . S
H41 C1 0.951 . S
H42 C2 0.950 . S
H43 C8 0.949 . S
H44 C9 0.950 . S
H45 C13 0.951 . S
H46 C14 0.950 . S
H47 C18 0.949 . S
H48 C19 0.950 . S
H49 C23 0.950 . S
H50 C25 0.950 . S
H51 C28 0.950 . S
H52 C30 0.950 . S
C53 C54 1.443 . S
C53 N57 1.376 . S
C53 C91 1.389 . S
C54 C53 1.443 . S
C54 C55 1.340 . S
C54 H94 0.951 . S
C55 C54 1.340 . S
C55 C56 1.439 . S
C55 H95 0.950 . S
C56 C55 1.439 . S
C56 N57 1.374 . S
C56 C90 1.395 . S
N57 C53 1.376 . S
N57 C56 1.374 . S
N57 Co58 2.008 1_455 S
Co58 N57 2.008 1_655 S
Co58 N59 1.995 . S
Co58 N64 2.008 . S
Co58 N69 1.995 . S
Co58 N74 2.282 1_655 S
Co58 N80 2.282 . S
N59 Co58 1.995 . S
N59 C60 1.376 . S
N59 C63 1.383 . S
C60 N59 1.376 . S
C60 C61 1.446 . S
C60 C90 1.391 1_655 S
C61 C60 1.446 . S
C61 C62 1.339 . S
C61 H96 0.949 . S
C62 C61 1.339 . S
C62 C63 1.439 . S
C62 H97 0.950 . S
C63 N59 1.383 . S
C63 C62 1.439 . S
C63 C92 1.392 . S
N64 Co58 2.008 . S
N64 C65 1.376 . S
N64 C68 1.374 . S
C65 N64 1.376 . S
C65 C66 1.443 . S
C65 C92 1.389 . S
C66 C65 1.443 . S
C66 C67 1.340 . S
C66 H98 0.951 . S
C67 C66 1.340 . S
C67 C68 1.439 . S
C67 H99 0.950 . S
C68 N64 1.374 . S
C68 C67 1.439 . S
C68 C93 1.395 . S
N69 Co58 1.995 . S
N69 C70 1.376 . S
N69 C73 1.383 1_655 S
C70 N69 1.376 . S
C70 C71 1.446 . S
C70 C93 1.391 . S
C71 C70 1.446 . S
C71 C72 1.339 1_655 S
C71 H100 0.949 . S
C72 C71 1.339 1_455 S
C72 C73 1.439 . S
C72 H101 0.950 . S
C73 N69 1.383 1_455 S
C73 C72 1.439 . S
C73 C91 1.392 . S
N74 Co58 2.282 1_455 S
N74 C77 1.332 . S
N74 C79 1.332 . S
C75 C76 1.386 . S
C75 C78 1.388 . S
C76 C75 1.386 . S
C76 C77 1.382 . S
C76 H102 0.950 . S
C77 N74 1.332 . S
C77 C76 1.382 . S
C77 H88 0.952 . S
C78 C75 1.388 . S
C78 C79 1.382 . S
C78 H103 0.950 . S
C79 N74 1.332 . S
C79 C78 1.382 . S
C79 H89 0.948 . S
N80 Co58 2.282 . S
N80 C84 1.332 . S
N80 C85 1.332 . S
C81 C82 1.388 . S
C81 C85 1.382 . S
C81 H104 0.950 . S
C82 C81 1.388 . S
C82 C83 1.386 . S
C83 C82 1.386 . S
C83 C84 1.382 . S
C83 H105 0.950 . S
C84 N80 1.332 . S
C84 C83 1.382 . S
C84 H86 0.952 . S
C85 N80 1.332 . S
C85 C81 1.382 . S
C85 H87 0.948 . S
H86 C84 0.952 . S
H87 C85 0.948 . S
H88 C77 0.952 . S
H89 C79 0.948 . S
C90 C56 1.395 . S
C90 C60 1.391 1_455 S
C91 C53 1.389 . S
C91 C73 1.392 . S
C92 C63 1.392 . S
C92 C65 1.389 . S
C93 C68 1.395 . S
C93 C70 1.391 . S
H94 C54 0.951 . S
H95 C55 0.950 . S
H96 C61 0.949 . S
H97 C62 0.950 . S
H98 C66 0.951 . S
H99 C67 0.950 . S
H100 C71 0.949 . S
H101 C72 0.950 . S
H102 C76 0.950 . S
H103 C78 0.950 . S
H104 C81 0.950 . S
H105 C83 0.950 . S
C106 C107 1.443 . S
C106 N110 1.376 . S
C106 C144 1.389 . S
C107 C106 1.443 . S
C107 C108 1.340 . S
C107 H147 0.951 . S
C108 C107 1.340 . S
C108 C109 1.439 . S
C108 H148 0.950 . S
C109 C108 1.439 . S
C109 N110 1.374 . S
C109 C143 1.395 . S
N110 C106 1.376 . S
N110 C109 1.374 . S
N110 Co111 2.008 . S
Co111 N110 2.008 . S
Co111 N112 1.995 . S
Co111 N117 2.008 . S
Co111 N122 1.995 . S
Co111 N127 2.282 . S
Co111 N133 2.282 . S
N112 Co111 1.995 . S
N112 C113 1.376 . S
N112 C116 1.383 . S
C113 N112 1.376 . S
C113 C114 1.446 . S
C113 C143 1.391 . S
C114 C113 1.446 . S
C114 C115 1.339 . S
C114 H149 0.949 . S
C115 C114 1.339 . S
C115 C116 1.439 . S
C115 H150 0.950 . S
C116 N112 1.383 . S
C116 C115 1.439 . S
C116 C145 1.392 . S
N117 Co111 2.008 . S
N117 C118 1.376 . S
N117 C121 1.374 . S
C118 N117 1.376 . S
C118 C119 1.443 . S
C118 C145 1.389 . S
C119 C118 1.443 . S
C119 C120 1.340 . S
C119 H151 0.951 . S
C120 C119 1.340 . S
C120 C121 1.439 . S
C120 H152 0.950 . S
C121 N117 1.374 . S
C121 C120 1.439 . S
C121 C146 1.395 . S
N122 Co111 1.995 . S
N122 C123 1.376 . S
N122 C126 1.383 . S
C123 N122 1.376 . S
C123 C124 1.446 . S
C123 C146 1.391 . S
C124 C123 1.446 . S
C124 C125 1.339 . S
C124 H153 0.949 . S
C125 C124 1.339 . S
C125 C126 1.439 . S
C125 H154 0.950 . S
C126 N122 1.383 . S
C126 C125 1.439 . S
C126 C144 1.392 . S
N127 Co111 2.282 . S
N127 C130 1.332 . S
N127 C132 1.332 . S
C128 C129 1.386 . S
C128 C131 1.388 . S
C129 C128 1.386 . S
C129 C130 1.382 . S
C129 H155 0.950 . S
C130 N127 1.332 . S
C130 C129 1.382 . S
C130 H141 0.952 . S
C131 C128 1.388 . S
C131 C132 1.382 . S
C131 H156 0.950 . S
C132 N127 1.332 . S
C132 C131 1.382 . S
C132 H142 0.948 . S
N133 Co111 2.282 . S
N133 C137 1.332 . S
N133 C138 1.332 . S
C134 C135 1.388 . S
C134 C138 1.382 . S
C134 H157 0.950 . S
C135 C134 1.388 . S
C135 C136 1.386 . S
C136 C135 1.386 . S
C136 C137 1.382 . S
C136 H158 0.950 . S
C137 N133 1.332 . S
C137 C136 1.382 . S
C137 H139 0.952 . S
C138 N133 1.332 . S
C138 C134 1.382 . S
C138 H140 0.948 . S
H139 C137 0.952 . S
H140 C138 0.948 . S
H141 C130 0.952 . S
H142 C132 0.948 . S
C143 C109 1.395 . S
C143 C113 1.391 . S
C144 C106 1.389 . S
C144 C126 1.392 . S
C145 C116 1.392 . S
C145 C118 1.389 . S
C146 C121 1.395 . S
C146 C123 1.391 . S
H147 C107 0.951 . S
H148 C108 0.950 . S
H149 C114 0.949 . S
H150 C115 0.950 . S
H151 C119 0.951 . S
H152 C120 0.950 . S
H153 C124 0.949 . S
H154 C125 0.950 . S
H155 C129 0.950 . S
H156 C131 0.950 . S
H157 C134 0.950 . S
H158 C136 0.950 . S
C159 C160 1.443 . S
C159 N163 1.376 . S
C159 C197 1.389 . S
C160 C159 1.443 . S
C160 C161 1.340 . S
C160 H200 0.951 . S
C161 C160 1.340 . S
C161 C162 1.439 . S
C161 H201 0.950 . S
C162 C161 1.439 . S
C162 N163 1.374 . S
C162 C196 1.395 . S
N163 C159 1.376 . S
N163 C162 1.374 . S
N163 Co164 2.008 . S
Co164 N163 2.008 . S
Co164 N165 1.995 . S
Co164 N170 2.008 . S
Co164 N175 1.995 . S
Co164 N180 2.282 . S
Co164 N186 2.282 . S
N165 Co164 1.995 . S
N165 C166 1.376 . S
N165 C169 1.383 . S
C166 N165 1.376 . S
C166 C167 1.446 . S
C166 C196 1.391 . S
C167 C166 1.446 . S
C167 C168 1.339 . S
C167 H202 0.949 . S
C168 C167 1.339 . S
C168 C169 1.439 . S
C168 H203 0.950 . S
C169 N165 1.383 . S
C169 C168 1.439 . S
C169 C198 1.392 . S
N170 Co164 2.008 . S
N170 C171 1.376 . S
N170 C174 1.374 . S
C171 N170 1.376 . S
C171 C172 1.443 . S
C171 C198 1.389 . S
C172 C171 1.443 . S
C172 C173 1.340 . S
C172 H204 0.951 . S
C173 C172 1.340 . S
C173 C174 1.439 . S
C173 H205 0.950 . S
C174 N170 1.374 . S
C174 C173 1.439 . S
C174 C199 1.395 . S
N175 Co164 1.995 . S
N175 C176 1.376 . S
N175 C179 1.383 . S
C176 N175 1.376 . S
C176 C177 1.446 . S
C176 C199 1.391 . S
C177 C176 1.446 . S
C177 C178 1.339 . S
C177 H206 0.949 . S
C178 C177 1.339 . S
C178 C179 1.439 . S
C178 H207 0.950 . S
C179 N175 1.383 . S
C179 C178 1.439 . S
C179 C197 1.392 . S
N180 Co164 2.282 . S
N180 C183 1.332 . S
N180 C185 1.332 . S
C181 C182 1.386 . S
C181 C184 1.388 . S
C182 C181 1.386 . S
C182 C183 1.382 . S
C182 H208 0.950 . S
C183 N180 1.332 . S
C183 C182 1.382 . S
C183 H194 0.952 . S
C184 C181 1.388 . S
C184 C185 1.382 . S
C184 H209 0.950 . S
C185 N180 1.332 . S
C185 C184 1.382 . S
C185 H195 0.948 . S
N186 Co164 2.282 . S
N186 C190 1.332 . S
N186 C191 1.332 . S
C187 C188 1.388 . S
C187 C191 1.382 . S
C187 H210 0.950 . S
C188 C187 1.388 . S
C188 C189 1.386 . S
C189 C188 1.386 . S
C189 C190 1.382 . S
C189 H211 0.950 . S
C190 N186 1.332 . S
C190 C189 1.382 . S
C190 H192 0.952 . S
C191 N186 1.332 . S
C191 C187 1.382 . S
C191 H193 0.948 . S
H192 C190 0.952 . S
H193 C191 0.948 . S
H194 C183 0.952 . S
H195 C185 0.948 . S
C196 C162 1.395 . S
C196 C166 1.391 . S
C197 C159 1.389 . S
C197 C179 1.392 . S
C198 C169 1.392 . S
C198 C171 1.389 . S
C199 C174 1.395 . S
C199 C176 1.391 . S
H200 C160 0.951 . S
H201 C161 0.950 . S
H202 C167 0.949 . S
H203 C168 0.950 . S
H204 C172 0.951 . S
H205 C173 0.950 . S
H206 C177 0.949 . S
H207 C178 0.950 . S
H208 C182 0.950 . S
H209 C184 0.950 . S
H210 C187 0.950 . S
H211 C189 0.950 . S
C212 C213 1.443 . S
C212 N216 1.376 . S
C212 C250 1.389 . S
C213 C212 1.443 . S
C213 C214 1.340 . S
C213 H253 0.951 . S
C214 C213 1.340 . S
C214 C215 1.439 . S
C214 H254 0.950 . S
C215 C214 1.439 . S
C215 N216 1.374 . S
C215 C249 1.395 . S
N216 C212 1.376 . S
N216 C215 1.374 . S
N216 Co217 2.008 . S
Co217 N216 2.008 . S
Co217 N218 1.995 . S
Co217 N223 2.008 . S
Co217 N228 1.995 . S
Co217 N233 2.282 . S
Co217 N239 2.282 . S
N218 Co217 1.995 . S
N218 C219 1.376 . S
N218 C222 1.383 . S
C219 N218 1.376 . S
C219 C220 1.446 . S
C219 C249 1.391 . S
C220 C219 1.446 . S
C220 C221 1.339 . S
C220 H255 0.949 . S
C221 C220 1.339 . S
C221 C222 1.439 . S
C221 H256 0.950 . S
C222 N218 1.383 . S
C222 C221 1.439 . S
C222 C251 1.392 . S
N223 Co217 2.008 . S
N223 C224 1.376 . S
N223 C227 1.374 . S
C224 N223 1.376 . S
C224 C225 1.443 . S
C224 C251 1.389 . S
C225 C224 1.443 . S
C225 C226 1.340 . S
C225 H257 0.951 . S
C226 C225 1.340 . S
C226 C227 1.439 . S
C226 H258 0.950 . S
C227 N223 1.374 . S
C227 C226 1.439 . S
C227 C252 1.395 . S
N228 Co217 1.995 . S
N228 C229 1.376 . S
N228 C232 1.383 . S
C229 N228 1.376 . S
C229 C230 1.446 . S
C229 C252 1.391 . S
C230 C229 1.446 . S
C230 C231 1.339 . S
C230 H259 0.949 . S
C231 C230 1.339 . S
C231 C232 1.439 . S
C231 H260 0.950 . S
C232 N228 1.383 . S
C232 C231 1.439 . S
C232 C250 1.392 . S
N233 Co217 2.282 . S
N233 C236 1.332 . S
N233 C238 1.332 . S
C234 C235 1.386 . S
C234 C237 1.388 . S
C235 C234 1.386 . S
C235 C236 1.382 . S
C235 H261 0.950 . S
C236 N233 1.332 . S
C236 C235 1.382 . S
C236 H247 0.952 . S
C237 C234 1.388 . S
C237 C238 1.382 . S
C237 H262 0.950 . S
C238 N233 1.332 . S
C238 C237 1.382 . S
C238 H248 0.948 . S
N239 Co217 2.282 . S
N239 C243 1.332 . S
N239 C244 1.332 . S
C240 C241 1.388 . S
C240 C244 1.382 . S
C240 H263 0.950 . S
C241 C240 1.388 . S
C241 C242 1.386 . S
C242 C241 1.386 . S
C242 C243 1.382 . S
C242 H264 0.950 . S
C243 N239 1.332 . S
C243 C242 1.382 . S
C243 H245 0.952 . S
C244 N239 1.332 . S
C244 C240 1.382 . S
C244 H246 0.948 . S
H245 C243 0.952 . S
H246 C244 0.948 . S
H247 C236 0.952 . S
H248 C238 0.948 . S
C249 C215 1.395 . S
C249 C219 1.391 . S
C250 C212 1.389 . S
C250 C232 1.392 . S
C251 C222 1.392 . S
C251 C224 1.389 . S
C252 C227 1.395 . S
C252 C229 1.391 . S
H253 C213 0.951 . S
H254 C214 0.950 . S
H255 C220 0.949 . S
H256 C221 0.950 . S
H257 C225 0.951 . S
H258 C226 0.950 . S
H259 C230 0.949 . S
H260 C231 0.950 . S
H261 C235 0.950 . S
H262 C237 0.950 . S
H263 C240 0.950 . S
H264 C242 0.950 . S
C265 C266 1.443 . S
C265 N269 1.376 . S
C265 C303 1.389 . S
C266 C265 1.443 . S
C266 C267 1.340 . S
C266 H306 0.951 . S
C267 C266 1.340 . S
C267 C268 1.439 . S
C267 H307 0.950 . S
C268 C267 1.439 . S
C268 N269 1.374 . S
C268 C302 1.395 . S
N269 C265 1.376 . S
N269 C268 1.374 . S
N269 Co270 2.008 . S
Co270 N269 2.008 . S
Co270 N271 1.995 . S
Co270 N276 2.008 . S
Co270 N281 1.995 . S
Co270 N286 2.282 . S
Co270 N292 2.282 . S
N271 Co270 1.995 . S
N271 C272 1.376 . S
N271 C275 1.383 . S
C272 N271 1.376 . S
C272 C273 1.446 . S
C272 C302 1.391 . S
C273 C272 1.446 . S
C273 C274 1.339 . S
C273 H308 0.949 . S
C274 C273 1.339 . S
C274 C275 1.439 . S
C274 H309 0.950 . S
C275 N271 1.383 . S
C275 C274 1.439 . S
C275 C304 1.392 . S
N276 Co270 2.008 . S
N276 C277 1.376 . S
N276 C280 1.374 . S
C277 N276 1.376 . S
C277 C278 1.443 . S
C277 C304 1.389 . S
C278 C277 1.443 . S
C278 C279 1.340 . S
C278 H310 0.951 . S
C279 C278 1.340 . S
C279 C280 1.439 . S
C279 H311 0.950 . S
C280 N276 1.374 . S
C280 C279 1.439 . S
C280 C305 1.395 . S
N281 Co270 1.995 . S
N281 C282 1.376 . S
N281 C285 1.383 . S
C282 N281 1.376 . S
C282 C283 1.446 . S
C282 C305 1.391 . S
C283 C282 1.446 . S
C283 C284 1.339 . S
C283 H312 0.949 . S
C284 C283 1.339 . S
C284 C285 1.439 . S
C284 H313 0.950 . S
C285 N281 1.383 . S
C285 C284 1.439 . S
C285 C303 1.392 . S
N286 Co270 2.282 . S
N286 C289 1.332 . S
N286 C291 1.332 . S
C287 C288 1.386 . S
C287 C290 1.388 . S
C288 C287 1.386 . S
C288 C289 1.382 . S
C288 H314 0.950 . S
C289 N286 1.332 . S
C289 C288 1.382 . S
C289 H300 0.952 . S
C290 C287 1.388 . S
C290 C291 1.382 . S
C290 H315 0.950 . S
C291 N286 1.332 . S
C291 C290 1.382 . S
C291 H301 0.948 . S
N292 Co270 2.282 . S
N292 C296 1.332 . S
N292 C297 1.332 . S
C293 C294 1.388 . S
C293 C297 1.382 . S
C293 H316 0.950 . S
C294 C293 1.388 . S
C294 C295 1.386 . S
C295 C294 1.386 . S
C295 C296 1.382 . S
C295 H317 0.950 . S
C296 N292 1.332 . S
C296 C295 1.382 . S
C296 H298 0.952 . S
C297 N292 1.332 . S
C297 C293 1.382 . S
C297 H299 0.948 . S
H298 C296 0.952 . S
H299 C297 0.948 . S
H300 C289 0.952 . S
H301 C291 0.948 . S
C302 C268 1.395 . S
C302 C272 1.391 . S
C303 C265 1.389 . S
C303 C285 1.392 . S
C304 C275 1.392 . S
C304 C277 1.389 . S
C305 C280 1.395 . S
C305 C282 1.391 . S
H306 C266 0.951 . S
H307 C267 0.950 . S
H308 C273 0.949 . S
H309 C274 0.950 . S
H310 C278 0.951 . S
H311 C279 0.950 . S
H312 C283 0.949 . S
H313 C284 0.950 . S
H314 C288 0.950 . S
H315 C290 0.950 . S
H316 C293 0.950 . S
H317 C295 0.950 . S
C318 C319 1.443 . S
C318 N322 1.376 . S
C318 C356 1.389 . S
C319 C318 1.443 . S
C319 C320 1.340 . S
C319 H359 0.951 . S
C320 C319 1.340 . S
C320 C321 1.439 . S
C320 H360 0.950 . S
C321 C320 1.439 . S
C321 N322 1.374 . S
C321 C355 1.395 . S
N322 C318 1.376 . S
N322 C321 1.374 . S
N322 Co323 2.008 . S
Co323 N322 2.008 . S
Co323 N324 1.995 . S
Co323 N329 2.008 . S
Co323 N334 1.995 . S
Co323 N339 2.282 . S
Co323 N345 2.282 . S
N324 Co323 1.995 . S
N324 C325 1.376 . S
N324 C328 1.383 . S
C325 N324 1.376 . S
C325 C326 1.446 . S
C325 C355 1.391 . S
C326 C325 1.446 . S
C326 C327 1.339 . S
C326 H361 0.949 . S
C327 C326 1.339 . S
C327 C328 1.439 . S
C327 H362 0.950 . S
C328 N324 1.383 . S
C328 C327 1.439 . S
C328 C357 1.392 . S
N329 Co323 2.008 . S
N329 C330 1.376 . S
N329 C333 1.374 . S
C330 N329 1.376 . S
C330 C331 1.443 . S
C330 C357 1.389 . S
C331 C330 1.443 . S
C331 C332 1.340 . S
C331 H363 0.951 . S
C332 C331 1.340 . S
C332 C333 1.439 . S
C332 H364 0.950 . S
C333 N329 1.374 . S
C333 C332 1.439 . S
C333 C358 1.395 . S
N334 Co323 1.995 . S
N334 C335 1.376 . S
N334 C338 1.383 . S
C335 N334 1.376 . S
C335 C336 1.446 . S
C335 C358 1.391 . S
C336 C335 1.446 . S
C336 C337 1.339 . S
C336 H365 0.949 . S
C337 C336 1.339 . S
C337 C338 1.439 . S
C337 H366 0.950 . S
C338 N334 1.383 . S
C338 C337 1.439 . S
C338 C356 1.392 . S
N339 Co323 2.282 . S
N339 C342 1.332 . S
N339 C344 1.332 . S
C340 C341 1.386 . S
C340 C343 1.388 . S
C341 C340 1.386 . S
C341 C342 1.382 . S
C341 H367 0.950 . S
C342 N339 1.332 . S
C342 C341 1.382 . S
C342 H353 0.952 . S
C343 C340 1.388 . S
C343 C344 1.382 . S
C343 H368 0.950 . S
C344 N339 1.332 . S
C344 C343 1.382 . S
C344 H354 0.948 . S
N345 Co323 2.282 . S
N345 C349 1.332 . S
N345 C350 1.332 . S
C346 C347 1.388 . S
C346 C350 1.382 . S
C346 H369 0.950 . S
C347 C346 1.388 . S
C347 C348 1.386 . S
C348 C347 1.386 . S
C348 C349 1.382 . S
C348 H370 0.950 . S
C349 N345 1.332 . S
C349 C348 1.382 . S
C349 H351 0.952 . S
C350 N345 1.332 . S
C350 C346 1.382 . S
C350 H352 0.948 . S
H351 C349 0.952 . S
H352 C350 0.948 . S
H353 C342 0.952 . S
H354 C344 0.948 . S
C355 C321 1.395 . S
C355 C325 1.391 . S
C356 C318 1.389 . S
C356 C338 1.392 . S
C357 C328 1.392 . S
C357 C330 1.389 . S
C358 C333 1.395 . S
C358 C335 1.391 . S
H359 C319 0.951 . S
H360 C320 0.950 . S
H361 C326 0.949 . S
H362 C327 0.950 . S
H363 C331 0.951 . S
H364 C332 0.950 . S
H365 C336 0.949 . S
H366 C337 0.950 . S
H367 C341 0.950 . S
H368 C343 0.950 . S
H369 C346 0.950 . S
H370 C348 0.950 . S
C371 C372 1.443 . S
C371 N375 1.376 . S
C371 C409 1.389 . S
C372 C371 1.443 . S
C372 C373 1.340 . S
C372 H412 0.951 . S
C373 C372 1.340 . S
C373 C374 1.439 . S
C373 H413 0.950 . S
C374 C373 1.439 . S
C374 N375 1.374 . S
C374 C408 1.395 . S
N375 C371 1.376 . S
N375 C374 1.374 . S
N375 Co376 2.008 1_455 S
Co376 N375 2.008 1_655 S
Co376 N377 1.995 . S
Co376 N382 2.008 . S
Co376 N387 1.995 . S
Co376 N392 2.282 1_655 S
Co376 N398 2.282 . S
N377 Co376 1.995 . S
N377 C378 1.376 . S
N377 C381 1.383 . S
C378 N377 1.376 . S
C378 C379 1.446 . S
C378 C408 1.391 1_655 S
C379 C378 1.446 . S
C379 C380 1.339 . S
C379 H414 0.949 . S
C380 C379 1.339 . S
C380 C381 1.439 . S
C380 H415 0.950 . S
C381 N377 1.383 . S
C381 C380 1.439 . S
C381 C410 1.392 . S
N382 Co376 2.008 . S
N382 C383 1.376 . S
N382 C386 1.374 . S
C383 N382 1.376 . S
C383 C384 1.443 . S
C383 C410 1.389 . S
C384 C383 1.443 . S
C384 C385 1.340 . S
C384 H416 0.951 . S
C385 C384 1.340 . S
C385 C386 1.439 . S
C385 H417 0.950 . S
C386 N382 1.374 . S
C386 C385 1.439 . S
C386 C411 1.395 . S
N387 Co376 1.995 . S
N387 C388 1.376 . S
N387 C391 1.383 1_655 S
C388 N387 1.376 . S
C388 C389 1.446 . S
C388 C411 1.391 . S
C389 C388 1.446 . S
C389 C390 1.339 1_655 S
C389 H418 0.949 . S
C390 C389 1.339 1_455 S
C390 C391 1.439 . S
C390 H419 0.950 . S
C391 N387 1.383 1_455 S
C391 C390 1.439 . S
C391 C409 1.392 . S
N392 Co376 2.282 1_455 S
N392 C395 1.332 . S
N392 C397 1.332 . S
C393 C394 1.386 . S
C393 C396 1.388 . S
C394 C393 1.386 . S
C394 C395 1.382 . S
C394 H420 0.950 . S
C395 N392 1.332 . S
C395 C394 1.382 . S
C395 H406 0.952 . S
C396 C393 1.388 . S
C396 C397 1.382 . S
C396 H421 0.950 . S
C397 N392 1.332 . S
C397 C396 1.382 . S
C397 H407 0.948 . S
N398 Co376 2.282 . S
N398 C402 1.332 . S
N398 C403 1.332 . S
C399 C400 1.388 . S
C399 C403 1.382 . S
C399 H422 0.950 . S
C400 C399 1.388 . S
C400 C401 1.386 . S
C401 C400 1.386 . S
C401 C402 1.382 . S
C401 H423 0.950 . S
C402 N398 1.332 . S
C402 C401 1.382 . S
C402 H404 0.952 . S
C403 N398 1.332 . S
C403 C399 1.382 . S
C403 H405 0.948 . S
H404 C402 0.952 . S
H405 C403 0.948 . S
H406 C395 0.952 . S
H407 C397 0.948 . S
C408 C374 1.395 . S
C408 C378 1.391 1_455 S
C409 C371 1.389 . S
C409 C391 1.392 . S
C410 C381 1.392 . S
C410 C383 1.389 . S
C411 C386 1.395 . S
C411 C388 1.391 . S
H412 C372 0.951 . S
H413 C373 0.950 . S
H414 C379 0.949 . S
H415 C380 0.950 . S
H416 C384 0.951 . S
H417 C385 0.950 . S
H418 C389 0.949 . S
H419 C390 0.950 . S
H420 C394 0.950 . S
H421 C396 0.950 . S
H422 C399 0.950 . S
H423 C401 0.950 . S
C424 C425 1.443 . S
C424 N428 1.376 . S
C424 C462 1.389 . S
C425 C424 1.443 . S
C425 C426 1.340 . S
C425 H465 0.951 . S
C426 C425 1.340 . S
C426 C427 1.439 . S
C426 H466 0.950 . S
C427 C426 1.439 . S
C427 N428 1.374 . S
C427 C461 1.395 . S
N428 C424 1.376 . S
N428 C427 1.374 . S
N428 Co429 2.008 . S
Co429 N428 2.008 . S
Co429 N430 1.995 . S
Co429 N435 2.008 . S
Co429 N440 1.995 . S
Co429 N445 2.282 . S
Co429 N451 2.282 . S
N430 Co429 1.995 . S
N430 C431 1.376 . S
N430 C434 1.383 . S
C431 N430 1.376 . S
C431 C432 1.446 . S
C431 C461 1.391 . S
C432 C431 1.446 . S
C432 C433 1.339 . S
C432 H467 0.949 . S
C433 C432 1.339 . S
C433 C434 1.439 . S
C433 H468 0.950 . S
C434 N430 1.383 . S
C434 C433 1.439 . S
C434 C463 1.392 . S
N435 Co429 2.008 . S
N435 C436 1.376 . S
N435 C439 1.374 . S
C436 N435 1.376 . S
C436 C437 1.443 . S
C436 C463 1.389 . S
C437 C436 1.443 . S
C437 C438 1.340 . S
C437 H469 0.951 . S
C438 C437 1.340 . S
C438 C439 1.439 . S
C438 H470 0.950 . S
C439 N435 1.374 . S
C439 C438 1.439 . S
C439 C464 1.395 . S
N440 Co429 1.995 . S
N440 C441 1.376 . S
N440 C444 1.383 . S
C441 N440 1.376 . S
C441 C442 1.446 . S
C441 C464 1.391 . S
C442 C441 1.446 . S
C442 C443 1.339 . S
C442 H471 0.949 . S
C443 C442 1.339 . S
C443 C444 1.439 . S
C443 H472 0.950 . S
C444 N440 1.383 . S
C444 C443 1.439 . S
C444 C462 1.392 . S
N445 Co429 2.282 . S
N445 C448 1.332 . S
N445 C450 1.332 . S
C446 C447 1.386 . S
C446 C449 1.388 . S
C447 C446 1.386 . S
C447 C448 1.382 . S
C447 H473 0.950 . S
C448 N445 1.332 . S
C448 C447 1.382 . S
C448 H459 0.952 . S
C449 C446 1.388 . S
C449 C450 1.382 . S
C449 H474 0.950 . S
C450 N445 1.332 . S
C450 C449 1.382 . S
C450 H460 0.948 . S
N451 Co429 2.282 . S
N451 C455 1.332 . S
N451 C456 1.332 . S
C452 C453 1.388 . S
C452 C456 1.382 . S
C452 H475 0.950 . S
C453 C452 1.388 . S
C453 C454 1.386 . S
C454 C453 1.386 . S
C454 C455 1.382 . S
C454 H476 0.950 . S
C455 N451 1.332 . S
C455 C454 1.382 . S
C455 H457 0.952 . S
C456 N451 1.332 . S
C456 C452 1.382 . S
C456 H458 0.948 . S
H457 C455 0.952 . S
H458 C456 0.948 . S
H459 C448 0.952 . S
H460 C450 0.948 . S
C461 C427 1.395 . S
C461 C431 1.391 . S
C462 C424 1.389 . S
C462 C444 1.392 . S
C463 C434 1.392 . S
C463 C436 1.389 . S
C464 C439 1.395 . S
C464 C441 1.391 . S
H465 C425 0.951 . S
H466 C426 0.950 . S
H467 C432 0.949 . S
H468 C433 0.950 . S
H469 C437 0.951 . S
H470 C438 0.950 . S
H471 C442 0.949 . S
H472 C443 0.950 . S
H473 C447 0.950 . S
H474 C449 0.950 . S
H475 C452 0.950 . S
H476 C454 0.950 . S
C477 C478 1.443 1_455 S
C477 N481 1.376 . S
C477 C515 1.389 . S
C478 C477 1.443 1_655 S
C478 C479 1.340 . S
C478 H518 0.951 . S
C479 C478 1.340 . S
C479 C480 1.439 1_655 S
C479 H519 0.950 . S
C480 C479 1.439 1_455 S
C480 N481 1.374 . S
C480 C514 1.395 . S
N481 C477 1.376 . S
N481 C480 1.374 . S
N481 Co482 2.008 . S
Co482 N481 2.008 . S
Co482 N483 1.995 . S
Co482 N488 2.008 . S
Co482 N493 1.995 . S
Co482 N498 2.282 . S
Co482 N504 2.282 . S
N483 Co482 1.995 . S
N483 C484 1.376 . S
N483 C487 1.383 . S
C484 N483 1.376 . S
C484 C485 1.446 . S
C484 C514 1.391 . S
C485 C484 1.446 . S
C485 C486 1.339 . S
C485 H520 0.949 . S
C486 C485 1.339 . S
C486 C487 1.439 . S
C486 H521 0.950 . S
C487 N483 1.383 . S
C487 C486 1.439 . S
C487 C516 1.392 . S
N488 Co482 2.008 . S
N488 C489 1.376 . S
N488 C492 1.374 . S
C489 N488 1.376 . S
C489 C490 1.443 . S
C489 C516 1.389 . S
C490 C489 1.443 . S
C490 C491 1.340 . S
C490 H522 0.951 . S
C491 C490 1.340 . S
C491 C492 1.439 . S
C491 H523 0.950 . S
C492 N488 1.374 . S
C492 C491 1.439 . S
C492 C517 1.395 . S
N493 Co482 1.995 . S
N493 C494 1.376 . S
N493 C497 1.383 . S
C494 N493 1.376 . S
C494 C495 1.446 . S
C494 C517 1.391 . S
C495 C494 1.446 . S
C495 C496 1.339 . S
C495 H524 0.949 . S
C496 C495 1.339 . S
C496 C497 1.439 . S
C496 H525 0.950 . S
C497 N493 1.383 . S
C497 C496 1.439 . S
C497 C515 1.392 . S
N498 Co482 2.282 . S
N498 C501 1.332 . S
N498 C503 1.332 . S
C499 C500 1.386 . S
C499 C502 1.388 . S
C500 C499 1.386 . S
C500 C501 1.382 . S
C500 H526 0.950 . S
C501 N498 1.332 . S
C501 C500 1.382 . S
C501 H512 0.952 . S
C502 C499 1.388 . S
C502 C503 1.382 . S
C502 H527 0.950 . S
C503 N498 1.332 . S
C503 C502 1.382 . S
C503 H513 0.948 . S
N504 Co482 2.282 . S
N504 C508 1.332 . S
N504 C509 1.332 . S
C505 C506 1.388 . S
C505 C509 1.382 . S
C505 H528 0.950 . S
C506 C505 1.388 . S
C506 C507 1.386 . S
C507 C506 1.386 . S
C507 C508 1.382 . S
C507 H529 0.950 . S
C508 N504 1.332 . S
C508 C507 1.382 . S
C508 H510 0.952 . S
C509 N504 1.332 . S
C509 C505 1.382 . S
C509 H511 0.948 . S
H510 C508 0.952 . S
H511 C509 0.948 . S
H512 C501 0.952 . S
H513 C503 0.948 . S
C514 C480 1.395 . S
C514 C484 1.391 . S
C515 C477 1.389 . S
C515 C497 1.392 . S
C516 C487 1.392 . S
C516 C489 1.389 . S
C517 C492 1.395 . S
C517 C494 1.391 . S
H518 C478 0.951 . S
H519 C479 0.950 . S
H520 C485 0.949 . S
H521 C486 0.950 . S
H522 C490 0.951 . S
H523 C491 0.950 . S
H524 C495 0.949 . S
H525 C496 0.950 . S
H526 C500 0.950 . S
H527 C502 0.950 . S
H528 C505 0.950 . S
H529 C507 0.950 . S
C530 C531 1.443 . S
C530 N534 1.376 . S
C530 C568 1.389 . S
C531 C530 1.443 . S
C531 C532 1.340 . S
C531 H571 0.951 . S
C532 C531 1.340 . S
C532 C533 1.439 . S
C532 H572 0.950 . S
C533 C532 1.439 . S
C533 N534 1.374 . S
C533 C567 1.395 . S
N534 C530 1.376 . S
N534 C533 1.374 . S
N534 Co535 2.008 . S
Co535 N534 2.008 . S
Co535 N536 1.995 . S
Co535 N541 2.008 . S
Co535 N546 1.995 . S
Co535 N551 2.282 . S
Co535 N557 2.282 . S
N536 Co535 1.995 . S
N536 C537 1.376 . S
N536 C540 1.383 . S
C537 N536 1.376 . S
C537 C538 1.446 . S
C537 C567 1.391 . S
C538 C537 1.446 . S
C538 C539 1.339 . S
C538 H573 0.949 . S
C539 C538 1.339 . S
C539 C540 1.439 . S
C539 H574 0.950 . S
C540 N536 1.383 . S
C540 C539 1.439 . S
C540 C569 1.392 . S
N541 Co535 2.008 . S
N541 C542 1.376 . S
N541 C545 1.374 . S
C542 N541 1.376 . S
C542 C543 1.443 . S
C542 C569 1.389 . S
C543 C542 1.443 . S
C543 C544 1.340 . S
C543 H575 0.951 . S
C544 C543 1.340 . S
C544 C545 1.439 . S
C544 H576 0.950 . S
C545 N541 1.374 . S
C545 C544 1.439 . S
C545 C570 1.395 . S
N546 Co535 1.995 . S
N546 C547 1.376 . S
N546 C550 1.383 . S
C547 N546 1.376 . S
C547 C548 1.446 . S
C547 C570 1.391 . S
C548 C547 1.446 . S
C548 C549 1.339 . S
C548 H577 0.949 . S
C549 C548 1.339 . S
C549 C550 1.439 . S
C549 H578 0.950 . S
C550 N546 1.383 . S
C550 C549 1.439 . S
C550 C568 1.392 . S
N551 Co535 2.282 . S
N551 C554 1.332 . S
N551 C556 1.332 . S
C552 C553 1.386 . S
C552 C555 1.388 . S
C553 C552 1.386 . S
C553 C554 1.382 . S
C553 H579 0.950 . S
C554 N551 1.332 . S
C554 C553 1.382 . S
C554 H565 0.952 . S
C555 C552 1.388 . S
C555 C556 1.382 . S
C555 H580 0.950 . S
C556 N551 1.332 . S
C556 C555 1.382 . S
C556 H566 0.948 . S
N557 Co535 2.282 . S
N557 C561 1.332 . S
N557 C562 1.332 . S
C558 C559 1.388 . S
C558 C562 1.382 . S
C558 H581 0.950 . S
C559 C558 1.388 . S
C559 C560 1.386 . S
C560 C559 1.386 . S
C560 C561 1.382 . S
C560 H582 0.950 . S
C561 N557 1.332 . S
C561 C560 1.382 . S
C561 H563 0.952 . S
C562 N557 1.332 . S
C562 C558 1.382 . S
C562 H564 0.948 . S
H563 C561 0.952 . S
H564 C562 0.948 . S
H565 C554 0.952 . S
H566 C556 0.948 . S
C567 C533 1.395 . S
C567 C537 1.391 . S
C568 C530 1.389 . S
C568 C550 1.392 . S
C569 C540 1.392 . S
C569 C542 1.389 . S
C570 C545 1.395 . S
C570 C547 1.391 . S
H571 C531 0.951 . S
H572 C532 0.950 . S
H573 C538 0.949 . S
H574 C539 0.950 . S
H575 C543 0.951 . S
H576 C544 0.950 . S
H577 C548 0.949 . S
H578 C549 0.950 . S
H579 C553 0.950 . S
H580 C555 0.950 . S
H581 C558 0.950 . S
H582 C560 0.950 . S
C583 C584 1.443 . S
C583 N587 1.376 . S
C583 C621 1.389 . S
C584 C583 1.443 . S
C584 C585 1.340 . S
C584 H624 0.951 . S
C585 C584 1.340 . S
C585 C586 1.439 . S
C585 H625 0.950 . S
C586 C585 1.439 . S
C586 N587 1.374 . S
C586 C620 1.395 . S
N587 C583 1.376 . S
N587 C586 1.374 . S
N587 Co588 2.008 . S
Co588 N587 2.008 . S
Co588 N589 1.995 . S
Co588 N594 2.008 . S
Co588 N599 1.995 . S
Co588 N604 2.282 . S
Co588 N610 2.282 . S
N589 Co588 1.995 . S
N589 C590 1.376 . S
N589 C593 1.383 . S
C590 N589 1.376 . S
C590 C591 1.446 . S
C590 C620 1.391 . S
C591 C590 1.446 . S
C591 C592 1.339 . S
C591 H626 0.949 . S
C592 C591 1.339 . S
C592 C593 1.439 . S
C592 H627 0.950 . S
C593 N589 1.383 . S
C593 C592 1.439 . S
C593 C622 1.392 . S
N594 Co588 2.008 . S
N594 C595 1.376 . S
N594 C598 1.374 . S
C595 N594 1.376 . S
C595 C596 1.443 . S
C595 C622 1.389 . S
C596 C595 1.443 . S
C596 C597 1.340 . S
C596 H628 0.951 . S
C597 C596 1.340 . S
C597 C598 1.439 . S
C597 H629 0.950 . S
C598 N594 1.374 . S
C598 C597 1.439 . S
C598 C623 1.395 . S
N599 Co588 1.995 . S
N599 C600 1.376 . S
N599 C603 1.383 . S
C600 N599 1.376 . S
C600 C601 1.446 . S
C600 C623 1.391 . S
C601 C600 1.446 . S
C601 C602 1.339 . S
C601 H630 0.949 . S
C602 C601 1.339 . S
C602 C603 1.439 . S
C602 H631 0.950 1_554 S
C603 N599 1.383 . S
C603 C602 1.439 . S
C603 C621 1.392 . S
N604 Co588 2.282 . S
N604 C607 1.332 . S
N604 C609 1.332 . S
C605 C606 1.386 . S
C605 C608 1.388 . S
C606 C605 1.386 . S
C606 C607 1.382 . S
C606 H632 0.950 . S
C607 N604 1.332 . S
C607 C606 1.382 . S
C607 H618 0.952 . S
C608 C605 1.388 . S
C608 C609 1.382 . S
C608 H633 0.950 . S
C609 N604 1.332 . S
C609 C608 1.382 . S
C609 H619 0.948 . S
N610 Co588 2.282 . S
N610 C614 1.332 . S
N610 C615 1.332 . S
C611 C612 1.388 . S
C611 C615 1.382 . S
C611 H634 0.950 . S
C612 C611 1.388 . S
C612 C613 1.386 . S
C613 C612 1.386 . S
C613 C614 1.382 . S
C613 H635 0.950 . S
C614 N610 1.332 . S
C614 C613 1.382 . S
C614 H616 0.952 . S
C615 N610 1.332 . S
C615 C611 1.382 . S
C615 H617 0.948 . S
H616 C614 0.952 . S
H617 C615 0.948 . S
H618 C607 0.952 . S
H619 C609 0.948 . S
C620 C586 1.395 . S
C620 C590 1.391 . S
C621 C583 1.389 . S
C621 C603 1.392 . S
C622 C593 1.392 . S
C622 C595 1.389 . S
C623 C598 1.395 . S
C623 C600 1.391 . S
H624 C584 0.951 . S
H625 C585 0.950 . S
H626 C591 0.949 . S
H627 C592 0.950 . S
H628 C596 0.951 . S
H629 C597 0.950 . S
H630 C601 0.949 . S
H631 C602 0.950 1_556 S
H632 C606 0.950 . S
H633 C608 0.950 . S
H634 C611 0.950 . S
H635 C613 0.950 . S
C636 C637 1.443 . S
C636 N640 1.376 . S
C636 C674 1.389 . S
C637 C636 1.443 . S
C637 C638 1.340 . S
C637 H677 0.951 . S
C638 C637 1.340 . S
C638 C639 1.439 . S
C638 H678 0.950 . S
C639 C638 1.439 . S
C639 N640 1.374 . S
C639 C673 1.395 . S
N640 C636 1.376 . S
N640 C639 1.374 . S
N640 Co641 2.008 . S
Co641 N640 2.008 . S
Co641 N642 1.995 . S
Co641 N647 2.008 . S
Co641 N652 1.995 . S
Co641 N657 2.282 . S
Co641 N663 2.282 . S
N642 Co641 1.995 . S
N642 C643 1.376 . S
N642 C646 1.383 . S
C643 N642 1.376 . S
C643 C644 1.446 . S
C643 C673 1.391 . S
C644 C643 1.446 . S
C644 C645 1.339 . S
C644 H679 0.949 . S
C645 C644 1.339 . S
C645 C646 1.439 . S
C645 H680 0.950 . S
C646 N642 1.383 . S
C646 C645 1.439 . S
C646 C675 1.392 . S
N647 Co641 2.008 . S
N647 C648 1.376 . S
N647 C651 1.374 . S
C648 N647 1.376 . S
C648 C649 1.443 . S
C648 C675 1.389 . S
C649 C648 1.443 . S
C649 C650 1.340 . S
C649 H681 0.951 . S
C650 C649 1.340 . S
C650 C651 1.439 . S
C650 H682 0.950 . S
C651 N647 1.374 . S
C651 C650 1.439 . S
C651 C676 1.395 . S
N652 Co641 1.995 . S
N652 C653 1.376 . S
N652 C656 1.383 . S
C653 N652 1.376 . S
C653 C654 1.446 . S
C653 C676 1.391 . S
C654 C653 1.446 . S
C654 C655 1.339 . S
C654 H683 0.949 . S
C655 C654 1.339 . S
C655 C656 1.439 . S
C655 H684 0.950 . S
C656 N652 1.383 . S
C656 C655 1.439 . S
C656 C674 1.392 . S
N657 Co641 2.282 . S
N657 C660 1.332 . S
N657 C662 1.332 . S
C658 C659 1.386 . S
C658 C661 1.388 . S
C659 C658 1.386 . S
C659 C660 1.382 . S
C659 H685 0.950 . S
C660 N657 1.332 . S
C660 C659 1.382 . S
C660 H671 0.952 . S
C661 C658 1.388 . S
C661 C662 1.382 . S
C661 H686 0.950 . S
C662 N657 1.332 . S
C662 C661 1.382 . S
C662 H672 0.948 . S
N663 Co641 2.282 . S
N663 C667 1.332 . S
N663 C668 1.332 . S
C664 C665 1.388 . S
C664 C668 1.382 . S
C664 H687 0.950 . S
C665 C664 1.388 . S
C665 C666 1.386 . S
C666 C665 1.386 . S
C666 C667 1.382 . S
C666 H688 0.950 . S
C667 N663 1.332 . S
C667 C666 1.382 . S
C667 H669 0.952 . S
C668 N663 1.332 . S
C668 C664 1.382 . S
C668 H670 0.948 . S
H669 C667 0.952 . S
H670 C668 0.948 . S
H671 C660 0.952 . S
H672 C662 0.948 . S
C673 C639 1.395 . S
C673 C643 1.391 . S
C674 C636 1.389 . S
C674 C656 1.392 . S
C675 C646 1.392 . S
C675 C648 1.389 . S
C676 C651 1.395 . S
C676 C653 1.391 . S
H677 C637 0.951 . S
H678 C638 0.950 . S
H679 C644 0.949 . S
H680 C645 0.950 . S
H681 C649 0.951 . S
H682 C650 0.950 . S
H683 C654 0.949 . S
H684 C655 0.950 . S
H685 C659 0.950 . S
H686 C661 0.950 . S
H687 C664 0.950 . S
H688 C666 0.950 . S
C689 C690 1.443 . S
C689 N693 1.376 . S
C689 C727 1.389 . S
C690 C689 1.443 . S
C690 C691 1.340 . S
C690 H730 0.951 . S
C691 C690 1.340 . S
C691 C692 1.439 . S
C691 H731 0.950 . S
C692 C691 1.439 . S
C692 N693 1.374 . S
C692 C726 1.395 . S
N693 C689 1.376 . S
N693 C692 1.374 . S
N693 Co694 2.008 . S
Co694 N693 2.008 . S
Co694 N695 1.995 . S
Co694 N700 2.008 . S
Co694 N705 1.995 . S
Co694 N710 2.282 . S
Co694 N716 2.282 . S
N695 Co694 1.995 . S
N695 C696 1.376 . S
N695 C699 1.383 . S
C696 N695 1.376 . S
C696 C697 1.446 . S
C696 C726 1.391 . S
C697 C696 1.446 . S
C697 C698 1.339 . S
C697 H732 0.949 . S
C698 C697 1.339 . S
C698 C699 1.439 . S
C698 H733 0.950 . S
C699 N695 1.383 . S
C699 C698 1.439 . S
C699 C728 1.392 . S
N700 Co694 2.008 . S
N700 C701 1.376 . S
N700 C704 1.374 . S
C701 N700 1.376 . S
C701 C702 1.443 . S
C701 C728 1.389 . S
C702 C701 1.443 . S
C702 C703 1.340 . S
C702 H734 0.951 . S
C703 C702 1.340 . S
C703 C704 1.439 . S
C703 H735 0.950 . S
C704 N700 1.374 . S
C704 C703 1.439 . S
C704 C729 1.395 . S
N705 Co694 1.995 . S
N705 C706 1.376 . S
N705 C709 1.383 . S
C706 N705 1.376 . S
C706 C707 1.446 . S
C706 C729 1.391 . S
C707 C706 1.446 . S
C707 C708 1.339 . S
C707 H736 0.949 . S
C708 C707 1.339 . S
C708 C709 1.439 . S
C708 H737 0.950 . S
C709 N705 1.383 . S
C709 C708 1.439 . S
C709 C727 1.392 . S
N710 Co694 2.282 . S
N710 C713 1.332 . S
N710 C715 1.332 . S
C711 C712 1.386 . S
C711 C714 1.388 . S
C712 C711 1.386 . S
C712 C713 1.382 . S
C712 H738 0.950 . S
C713 N710 1.332 . S
C713 C712 1.382 . S
C713 H724 0.952 . S
C714 C711 1.388 . S
C714 C715 1.382 . S
C714 H739 0.950 . S
C715 N710 1.332 . S
C715 C714 1.382 . S
C715 H725 0.948 . S
N716 Co694 2.282 . S
N716 C720 1.332 . S
N716 C721 1.332 . S
C717 C718 1.388 . S
C717 C721 1.382 . S
C717 H740 0.950 . S
C718 C717 1.388 . S
C718 C719 1.386 . S
C719 C718 1.386 . S
C719 C720 1.382 . S
C719 H741 0.950 . S
C720 N716 1.332 . S
C720 C719 1.382 . S
C720 H722 0.952 . S
C721 N716 1.332 . S
C721 C717 1.382 . S
C721 H723 0.948 . S
H722 C720 0.952 . S
H723 C721 0.948 . S
H724 C713 0.952 . S
H725 C715 0.948 . S
C726 C692 1.395 . S
C726 C696 1.391 . S
C727 C689 1.389 . S
C727 C709 1.392 . S
C728 C699 1.392 . S
C728 C701 1.389 . S
C729 C704 1.395 . S
C729 C706 1.391 . S
H730 C690 0.951 . S
H731 C691 0.950 . S
H732 C697 0.949 . S
H733 C698 0.950 . S
H734 C702 0.951 . S
H735 C703 0.950 . S
H736 C707 0.949 . S
H737 C708 0.950 . S
H738 C712 0.950 . S
H739 C714 0.950 . S
H740 C717 0.950 . S
H741 C719 0.950 . S
C742 C743 1.443 . S
C742 N746 1.376 . S
C742 C780 1.389 . S
C743 C742 1.443 . S
C743 C744 1.340 . S
C743 H783 0.951 . S
C744 C743 1.340 . S
C744 C745 1.439 . S
C744 H784 0.950 . S
C745 C744 1.439 . S
C745 N746 1.374 . S
C745 C779 1.395 . S
N746 C742 1.376 . S
N746 C745 1.374 . S
N746 Co747 2.008 . S
Co747 N746 2.008 . S
Co747 N748 1.995 . S
Co747 N753 2.008 . S
Co747 N758 1.995 . S
Co747 N763 2.282 . S
Co747 N769 2.282 . S
N748 Co747 1.995 . S
N748 C749 1.376 . S
N748 C752 1.383 . S
C749 N748 1.376 . S
C749 C750 1.446 . S
C749 C779 1.391 . S
C750 C749 1.446 . S
C750 C751 1.339 . S
C750 H785 0.949 . S
C751 C750 1.339 . S
C751 C752 1.439 . S
C751 H786 0.950 . S
C752 N748 1.383 . S
C752 C751 1.439 . S
C752 C781 1.392 . S
N753 Co747 2.008 . S
N753 C754 1.376 . S
N753 C757 1.374 . S
C754 N753 1.376 . S
C754 C755 1.443 . S
C754 C781 1.389 . S
C755 C754 1.443 . S
C755 C756 1.340 . S
C755 H787 0.951 . S
C756 C755 1.340 . S
C756 C757 1.439 . S
C756 H788 0.950 . S
C757 N753 1.374 . S
C757 C756 1.439 . S
C757 C782 1.395 . S
N758 Co747 1.995 . S
N758 C759 1.376 . S
N758 C762 1.383 . S
C759 N758 1.376 . S
C759 C760 1.446 . S
C759 C782 1.391 . S
C760 C759 1.446 . S
C760 C761 1.339 . S
C760 H789 0.949 . S
C761 C760 1.339 . S
C761 C762 1.439 . S
C761 H790 0.950 . S
C762 N758 1.383 . S
C762 C761 1.439 . S
C762 C780 1.392 . S
N763 Co747 2.282 . S
N763 C766 1.332 . S
N763 C768 1.332 . S
C764 C765 1.386 . S
C764 C767 1.388 . S
C765 C764 1.386 . S
C765 C766 1.382 . S
C765 H791 0.950 . S
C766 N763 1.332 . S
C766 C765 1.382 . S
C766 H777 0.952 . S
C767 C764 1.388 . S
C767 C768 1.382 . S
C767 H792 0.950 . S
C768 N763 1.332 . S
C768 C767 1.382 . S
C768 H778 0.948 . S
N769 Co747 2.282 . S
N769 C773 1.332 . S
N769 C774 1.332 . S
C770 C771 1.388 . S
C770 C774 1.382 . S
C770 H793 0.950 . S
C771 C770 1.388 . S
C771 C772 1.386 . S
C772 C771 1.386 . S
C772 C773 1.382 . S
C772 H794 0.950 . S
C773 N769 1.332 . S
C773 C772 1.382 . S
C773 H775 0.952 . S
C774 N769 1.332 . S
C774 C770 1.382 . S
C774 H776 0.948 . S
H775 C773 0.952 . S
H776 C774 0.948 . S
H777 C766 0.952 . S
H778 C768 0.948 . S
C779 C745 1.395 . S
C779 C749 1.391 . S
C780 C742 1.389 . S
C780 C762 1.392 . S
C781 C752 1.392 . S
C781 C754 1.389 . S
C782 C757 1.395 . S
C782 C759 1.391 . S
H783 C743 0.951 . S
H784 C744 0.950 . S
H785 C750 0.949 . S
H786 C751 0.950 . S
H787 C755 0.951 . S
H788 C756 0.950 . S
H789 C760 0.949 . S
H790 C761 0.950 . S
H791 C765 0.950 . S
H792 C767 0.950 . S
H793 C770 0.950 . S
H794 C772 0.950 . S
C795 C796 1.443 1_455 S
C795 N799 1.376 . S
C795 C833 1.389 . S
C796 C795 1.443 1_655 S
C796 C797 1.340 . S
C796 H836 0.951 . S
C797 C796 1.340 . S
C797 C798 1.439 1_655 S
C797 H837 0.950 . S
C798 C797 1.439 1_455 S
C798 N799 1.374 . S
C798 C832 1.395 . S
N799 C795 1.376 . S
N799 C798 1.374 . S
N799 Co800 2.008 . S
Co800 N799 2.008 . S
Co800 N801 1.995 . S
Co800 N806 2.008 . S
Co800 N811 1.995 . S
Co800 N816 2.282 . S
Co800 N822 2.282 . S
N801 Co800 1.995 . S
N801 C802 1.376 . S
N801 C805 1.383 . S
C802 N801 1.376 . S
C802 C803 1.446 . S
C802 C832 1.391 . S
C803 C802 1.446 . S
C803 C804 1.339 . S
C803 H838 0.949 . S
C804 C803 1.339 . S
C804 C805 1.439 . S
C804 H839 0.950 . S
C805 N801 1.383 . S
C805 C804 1.439 . S
C805 C834 1.392 . S
N806 Co800 2.008 . S
N806 C807 1.376 . S
N806 C810 1.374 . S
C807 N806 1.376 . S
C807 C808 1.443 . S
C807 C834 1.389 . S
C808 C807 1.443 . S
C808 C809 1.340 . S
C808 H840 0.951 . S
C809 C808 1.340 . S
C809 C810 1.439 . S
C809 H841 0.950 . S
C810 N806 1.374 . S
C810 C809 1.439 . S
C810 C835 1.395 . S
N811 Co800 1.995 . S
N811 C812 1.376 . S
N811 C815 1.383 . S
C812 N811 1.376 . S
C812 C813 1.446 . S
C812 C835 1.391 . S
C813 C812 1.446 . S
C813 C814 1.339 . S
C813 H842 0.949 . S
C814 C813 1.339 . S
C814 C815 1.439 . S
C814 H843 0.950 1_556 S
C815 N811 1.383 . S
C815 C814 1.439 . S
C815 C833 1.392 . S
N816 Co800 2.282 . S
N816 C819 1.332 . S
N816 C821 1.332 . S
C817 C818 1.386 . S
C817 C820 1.388 . S
C818 C817 1.386 . S
C818 C819 1.382 . S
C818 H844 0.950 . S
C819 N816 1.332 . S
C819 C818 1.382 . S
C819 H830 0.952 . S
C820 C817 1.388 . S
C820 C821 1.382 . S
C820 H845 0.950 . S
C821 N816 1.332 . S
C821 C820 1.382 . S
C821 H831 0.948 . S
N822 Co800 2.282 . S
N822 C826 1.332 . S
N822 C827 1.332 . S
C823 C824 1.388 . S
C823 C827 1.382 . S
C823 H846 0.950 . S
C824 C823 1.388 . S
C824 C825 1.386 . S
C825 C824 1.386 . S
C825 C826 1.382 . S
C825 H847 0.950 . S
C826 N822 1.332 . S
C826 C825 1.382 . S
C826 H828 0.952 . S
C827 N822 1.332 . S
C827 C823 1.382 . S
C827 H829 0.948 . S
H828 C826 0.952 . S
H829 C827 0.948 . S
H830 C819 0.952 . S
H831 C821 0.948 . S
C832 C798 1.395 . S
C832 C802 1.391 . S
C833 C795 1.389 . S
C833 C815 1.392 . S
C834 C805 1.392 . S
C834 C807 1.389 . S
C835 C810 1.395 . S
C835 C812 1.391 . S
H836 C796 0.951 . S
H837 C797 0.950 . S
H838 C803 0.949 . S
H839 C804 0.950 . S
H840 C808 0.951 . S
H841 C809 0.950 . S
H842 C813 0.949 . S
H843 C814 0.950 1_554 S
H844 C818 0.950 . S
H845 C820 0.950 . S
H846 C823 0.950 . S
H847 C825 0.950 . S
C848 C849 1.443 . S
C848 N852 1.376 . S
C848 C886 1.389 . S
C849 C848 1.443 . S
C849 C850 1.340 . S
C849 H889 0.951 . S
C850 C849 1.340 . S
C850 C851 1.439 . S
C850 H890 0.950 . S
C851 C850 1.439 . S
C851 N852 1.374 . S
C851 C885 1.395 . S
N852 C848 1.376 . S
N852 C851 1.374 . S
N852 Co853 2.008 . S
Co853 N852 2.008 . S
Co853 N854 1.995 . S
Co853 N859 2.008 . S
Co853 N864 1.995 . S
Co853 N869 2.282 . S
Co853 N875 2.282 . S
N854 Co853 1.995 . S
N854 C855 1.376 . S
N854 C858 1.383 . S
C855 N854 1.376 . S
C855 C856 1.446 . S
C855 C885 1.391 . S
C856 C855 1.446 . S
C856 C857 1.339 . S
C856 H891 0.949 . S
C857 C856 1.339 . S
C857 C858 1.439 . S
C857 H892 0.950 . S
C858 N854 1.383 . S
C858 C857 1.439 . S
C858 C887 1.392 . S
N859 Co853 2.008 . S
N859 C860 1.376 . S
N859 C863 1.374 . S
C860 N859 1.376 . S
C860 C861 1.443 . S
C860 C887 1.389 . S
C861 C860 1.443 . S
C861 C862 1.340 . S
C861 H893 0.951 . S
C862 C861 1.340 . S
C862 C863 1.439 . S
C862 H894 0.950 . S
C863 N859 1.374 . S
C863 C862 1.439 . S
C863 C888 1.395 . S
N864 Co853 1.995 . S
N864 C865 1.376 . S
N864 C868 1.383 . S
C865 N864 1.376 . S
C865 C866 1.446 . S
C865 C888 1.391 . S
C866 C865 1.446 . S
C866 C867 1.339 . S
C866 H895 0.949 . S
C867 C866 1.339 . S
C867 C868 1.439 . S
C867 H896 0.950 . S
C868 N864 1.383 . S
C868 C867 1.439 . S
C868 C886 1.392 . S
N869 Co853 2.282 . S
N869 C872 1.332 . S
N869 C874 1.332 . S
C870 C871 1.386 . S
C870 C873 1.388 . S
C871 C870 1.386 . S
C871 C872 1.382 . S
C871 H897 0.950 . S
C872 N869 1.332 . S
C872 C871 1.382 . S
C872 H883 0.952 . S
C873 C870 1.388 . S
C873 C874 1.382 . S
C873 H898 0.950 . S
C874 N869 1.332 . S
C874 C873 1.382 . S
C874 H884 0.948 . S
N875 Co853 2.282 . S
N875 C879 1.332 . S
N875 C880 1.332 . S
C876 C877 1.388 . S
C876 C880 1.382 . S
C876 H899 0.950 . S
C877 C876 1.388 . S
C877 C878 1.386 . S
C878 C877 1.386 . S
C878 C879 1.382 . S
C878 H900 0.950 . S
C879 N875 1.332 . S
C879 C878 1.382 . S
C879 H881 0.952 . S
C880 N875 1.332 . S
C880 C876 1.382 . S
C880 H882 0.948 . S
H881 C879 0.952 . S
H882 C880 0.948 . S
H883 C872 0.952 . S
H884 C874 0.948 . S
C885 C851 1.395 . S
C885 C855 1.391 . S
C886 C848 1.389 . S
C886 C868 1.392 . S
C887 C858 1.392 . S
C887 C860 1.389 . S
C888 C863 1.395 . S
C888 C865 1.391 . S
H889 C849 0.951 . S
H890 C850 0.950 . S
H891 C856 0.949 . S
H892 C857 0.950 . S
H893 C861 0.951 . S
H894 C862 0.950 . S
H895 C866 0.949 . S
H896 C867 0.950 . S
H897 C871 0.950 . S
H898 C873 0.950 . S
H899 C876 0.950 . S
H900 C878 0.950 . S
C901 C902 1.443 . S
C901 N905 1.376 . S
C901 C939 1.389 . S
C902 C901 1.443 . S
C902 C903 1.340 . S
C902 H942 0.951 . S
C903 C902 1.340 . S
C903 C904 1.439 . S
C903 H943 0.950 . S
C904 C903 1.439 . S
C904 N905 1.374 . S
C904 C938 1.395 . S
N905 C901 1.376 . S
N905 C904 1.374 . S
N905 Co906 2.008 . S
Co906 N905 2.008 . S
Co906 N907 1.995 . S
Co906 N912 2.008 . S
Co906 N917 1.995 . S
Co906 N922 2.282 . S
Co906 N928 2.282 . S
N907 Co906 1.995 . S
N907 C908 1.376 . S
N907 C911 1.383 . S
C908 N907 1.376 . S
C908 C909 1.446 . S
C908 C938 1.391 . S
C909 C908 1.446 . S
C909 C910 1.339 . S
C909 H944 0.949 . S
C910 C909 1.339 . S
C910 C911 1.439 . S
C910 H945 0.950 . S
C911 N907 1.383 . S
C911 C910 1.439 . S
C911 C940 1.392 . S
N912 Co906 2.008 . S
N912 C913 1.376 . S
N912 C916 1.374 . S
C913 N912 1.376 . S
C913 C914 1.443 . S
C913 C940 1.389 . S
C914 C913 1.443 . S
C914 C915 1.340 . S
C914 H946 0.951 . S
C915 C914 1.340 . S
C915 C916 1.439 . S
C915 H947 0.950 . S
C916 N912 1.374 . S
C916 C915 1.439 . S
C916 C941 1.395 . S
N917 Co906 1.995 . S
N917 C918 1.376 . S
N917 C921 1.383 . S
C918 N917 1.376 . S
C918 C919 1.446 . S
C918 C941 1.391 . S
C919 C918 1.446 . S
C919 C920 1.339 . S
C919 H948 0.949 . S
C920 C919 1.339 . S
C920 C921 1.439 . S
C920 H949 0.950 . S
C921 N917 1.383 . S
C921 C920 1.439 . S
C921 C939 1.392 . S
N922 Co906 2.282 . S
N922 C925 1.332 . S
N922 C927 1.332 . S
C923 C924 1.386 . S
C923 C926 1.388 . S
C924 C923 1.386 . S
C924 C925 1.382 . S
C924 H950 0.950 . S
C925 N922 1.332 . S
C925 C924 1.382 . S
C925 H936 0.952 . S
C926 C923 1.388 . S
C926 C927 1.382 . S
C926 H951 0.950 . S
C927 N922 1.332 . S
C927 C926 1.382 . S
C927 H937 0.948 . S
N928 Co906 2.282 . S
N928 C932 1.332 . S
N928 C933 1.332 . S
C929 C930 1.388 . S
C929 C933 1.382 . S
C929 H952 0.950 . S
C930 C929 1.388 . S
C930 C931 1.386 . S
C931 C930 1.386 . S
C931 C932 1.382 . S
C931 H953 0.950 . S
C932 N928 1.332 . S
C932 C931 1.382 . S
C932 H934 0.952 . S
C933 N928 1.332 . S
C933 C929 1.382 . S
C933 H935 0.948 . S
H934 C932 0.952 . S
H935 C933 0.948 . S
H936 C925 0.952 . S
H937 C927 0.948 . S
C938 C904 1.395 . S
C938 C908 1.391 . S
C939 C901 1.389 . S
C939 C921 1.392 . S
C940 C911 1.392 . S
C940 C913 1.389 . S
C941 C916 1.395 . S
C941 C918 1.391 . S
H942 C902 0.951 . S
H943 C903 0.950 . S
H944 C909 0.949 . S
H945 C910 0.950 . S
H946 C914 0.951 . S
H947 C915 0.950 . S
H948 C919 0.949 . S
H949 C920 0.950 . S
H950 C924 0.950 . S
H951 C926 0.950 . S
H952 C929 0.950 . S
H953 C931 0.950 . S
C954 C955 1.443 1_554 S
C954 N958 1.376 . S
C954 C992 1.389 . S
C955 C954 1.443 1_556 S
C955 C956 1.340 . S
C955 H995 0.951 . S
C956 C955 1.340 . S
C956 C957 1.439 1_556 S
C956 H996 0.950 . S
C957 C956 1.439 1_554 S
C957 N958 1.374 . S
C957 C991 1.395 . S
N958 C954 1.376 . S
N958 C957 1.374 . S
N958 Co959 2.008 . S
Co959 N958 2.008 . S
Co959 N960 1.995 . S
Co959 N965 2.008 . S
Co959 N970 1.995 . S
Co959 N975 2.282 . S
Co959 N981 2.282 . S
N960 Co959 1.995 . S
N960 C961 1.376 . S
N960 C964 1.383 . S
C961 N960 1.376 . S
C961 C962 1.446 . S
C961 C991 1.391 . S
C962 C961 1.446 . S
C962 C963 1.339 . S
C962 H997 0.949 . S
C963 C962 1.339 . S
C963 C964 1.439 . S
C963 H998 0.950 . S
C964 N960 1.383 . S
C964 C963 1.439 . S
C964 C993 1.392 . S
N965 Co959 2.008 . S
N965 C966 1.376 . S
N965 C969 1.374 . S
C966 N965 1.376 . S
C966 C967 1.443 . S
C966 C993 1.389 . S
C967 C966 1.443 . S
C967 C968 1.340 . S
C967 H999 0.951 . S
C968 C967 1.340 . S
C968 C969 1.439 . S
C968 H1000 0.950 . S
C969 N965 1.374 . S
C969 C968 1.439 . S
C969 C994 1.395 . S
N970 Co959 1.995 . S
N970 C971 1.376 . S
N970 C974 1.383 . S
C971 N970 1.376 . S
C971 C972 1.446 . S
C971 C994 1.391 . S
C972 C971 1.446 . S
C972 C973 1.339 . S
C972 H1001 0.949 . S
C973 C972 1.339 . S
C973 C974 1.439 . S
C973 H1002 0.950 . S
C974 N970 1.383 . S
C974 C973 1.439 . S
C974 C992 1.392 . S
N975 Co959 2.282 . S
N975 C978 1.332 . S
N975 C980 1.332 . S
C976 C977 1.386 . S
C976 C979 1.388 . S
C977 C976 1.386 . S
C977 C978 1.382 . S
C977 H1003 0.950 . S
C978 N975 1.332 . S
C978 C977 1.382 . S
C978 H989 0.952 . S
C979 C976 1.388 . S
C979 C980 1.382 . S
C979 H1004 0.950 . S
C980 N975 1.332 . S
C980 C979 1.382 . S
C980 H990 0.948 . S
N981 Co959 2.282 . S
N981 C985 1.332 . S
N981 C986 1.332 . S
C982 C983 1.388 . S
C982 C986 1.382 . S
C982 H1005 0.950 . S
C983 C982 1.388 . S
C983 C984 1.383 1_554 S
C984 C983 1.383 1_556 S
C984 C985 1.373 1_556 S
C984 H1006 0.961 . S
C985 N981 1.332 . S
C985 C984 1.373 1_554 S
C985 H987 0.952 . S
C986 N981 1.332 . S
C986 C982 1.382 . S
C986 H988 0.948 . S
H987 C985 0.952 . S
H988 C986 0.948 . S
H989 C978 0.952 . S
H990 C980 0.948 . S
C991 C957 1.395 . S
C991 C961 1.391 . S
C992 C954 1.389 . S
C992 C974 1.392 . S
C993 C964 1.392 . S
C993 C966 1.389 . S
C994 C969 1.395 . S
C994 C971 1.391 . S
H995 C955 0.951 . S
H996 C956 0.950 . S
H997 C962 0.949 . S
H998 C963 0.950 . S
H999 C967 0.951 . S
H1000 C968 0.950 . S
H1001 C972 0.949 . S
H1002 C973 0.950 . S
H1003 C977 0.950 . S
H1004 C979 0.950 . S
H1005 C982 0.950 . S
H1006 C984 0.961 . S
C1007 C1008 1.443 . S
C1007 N1011 1.376 . S
C1007 C1045 1.389 . S
C1008 C1007 1.443 . S
C1008 C1009 1.340 . S
C1008 H1048 0.951 . S
C1009 C1008 1.340 . S
C1009 C1010 1.439 . S
C1009 H1049 0.950 . S
C1010 C1009 1.439 . S
C1010 N1011 1.374 . S
C1010 C1044 1.395 . S
N1011 C1007 1.376 . S
N1011 C1010 1.374 . S
N1011 Co1012 2.008 . S
Co1012 N1011 2.008 . S
Co1012 N1013 1.995 . S
Co1012 N1018 2.008 . S
Co1012 N1023 1.995 . S
Co1012 N1028 2.282 . S
Co1012 N1034 2.282 . S
N1013 Co1012 1.995 . S
N1013 C1014 1.376 . S
N1013 C1017 1.383 . S
C1014 N1013 1.376 . S
C1014 C1015 1.446 . S
C1014 C1044 1.391 . S
C1015 C1014 1.446 . S
C1015 C1016 1.339 . S
C1015 H1050 0.949 . S
C1016 C1015 1.339 . S
C1016 C1017 1.439 . S
C1016 H1051 0.950 . S
C1017 N1013 1.383 . S
C1017 C1016 1.439 . S
C1017 C1046 1.392 . S
N1018 Co1012 2.008 . S
N1018 C1019 1.376 . S
N1018 C1022 1.374 . S
C1019 N1018 1.376 . S
C1019 C1020 1.443 . S
C1019 C1046 1.389 . S
C1020 C1019 1.443 . S
C1020 C1021 1.340 . S
C1020 H1052 0.951 . S
C1021 C1020 1.340 . S
C1021 C1022 1.439 . S
C1021 H1053 0.950 . S
C1022 N1018 1.374 . S
C1022 C1021 1.439 . S
C1022 C1047 1.395 . S
N1023 Co1012 1.995 . S
N1023 C1024 1.376 . S
N1023 C1027 1.383 . S
C1024 N1023 1.376 . S
C1024 C1025 1.446 . S
C1024 C1047 1.391 . S
C1025 C1024 1.446 . S
C1025 C1026 1.339 . S
C1025 H1054 0.949 . S
C1026 C1025 1.339 . S
C1026 C1027 1.439 . S
C1026 H1055 0.950 . S
C1027 N1023 1.383 . S
C1027 C1026 1.439 . S
C1027 C1045 1.392 . S
N1028 Co1012 2.282 . S
N1028 C1031 1.332 . S
N1028 C1033 1.332 . S
C1029 C1030 1.386 . S
C1029 C1032 1.388 . S
C1030 C1029 1.386 . S
C1030 C1031 1.382 . S
C1030 H1056 0.950 . S
C1031 N1028 1.332 . S
C1031 C1030 1.382 . S
C1031 H1042 0.952 . S
C1032 C1029 1.388 . S
C1032 C1033 1.382 . S
C1032 H1057 0.950 . S
C1033 N1028 1.332 . S
C1033 C1032 1.382 . S
C1033 H1043 0.948 . S
N1034 Co1012 2.282 . S
N1034 C1038 1.332 . S
N1034 C1039 1.332 . S
C1035 C1036 1.388 . S
C1035 C1039 1.382 . S
C1035 H1058 0.950 . S
C1036 C1035 1.388 . S
C1036 C1037 1.386 . S
C1037 C1036 1.386 . S
C1037 C1038 1.382 . S
C1037 H1059 0.950 . S
C1038 N1034 1.332 . S
C1038 C1037 1.382 . S
C1038 H1040 0.952 . S
C1039 N1034 1.332 . S
C1039 C1035 1.382 . S
C1039 H1041 0.948 . S
H1040 C1038 0.952 . S
H1041 C1039 0.948 . S
H1042 C1031 0.952 . S
H1043 C1033 0.948 . S
C1044 C1010 1.395 . S
C1044 C1014 1.391 . S
C1045 C1007 1.389 . S
C1045 C1027 1.392 . S
C1046 C1017 1.392 . S
C1046 C1019 1.389 . S
C1047 C1022 1.395 . S
C1047 C1024 1.391 . S
H1048 C1008 0.951 . S
H1049 C1009 0.950 . S
H1050 C1015 0.949 . S
H1051 C1016 0.950 . S
H1052 C1020 0.951 . S
H1053 C1021 0.950 . S
H1054 C1025 0.949 . S
H1055 C1026 0.950 . S
H1056 C1030 0.950 . S
H1057 C1032 0.950 . S
H1058 C1035 0.950 . S
H1059 C1037 0.950 . S
C1060 C1061 1.443 1_554 S
C1060 N1064 1.376 1_545 S
C1060 C1098 1.389 . S
C1061 C1060 1.443 1_556 S
C1061 C1062 1.340 1_545 S
C1061 H1101 0.951 . S
C1062 C1061 1.340 1_565 S
C1062 C1063 1.439 1_556 S
C1062 H1102 0.950 . S
C1063 C1062 1.439 1_554 S
C1063 N1064 1.374 . S
C1063 C1097 1.395 . S
N1064 C1060 1.376 1_565 S
N1064 C1063 1.374 . S
N1064 Co1065 2.008 . S
Co1065 N1064 2.008 . S
Co1065 N1066 1.995 . S
Co1065 N1071 2.008 . S
Co1065 N1076 2.027 . S
Co1065 N1081 2.282 1_565 S
Co1065 N1087 2.282 . S
N1066 Co1065 1.995 . S
N1066 C1067 1.376 . S
N1066 C1070 1.383 . S
C1067 N1066 1.376 . S
C1067 C1068 1.446 . S
C1067 C1097 1.391 . S
C1068 C1067 1.446 . S
C1068 C1069 1.339 . S
C1068 H1103 0.949 . S
C1069 C1068 1.339 . S
C1069 C1070 1.439 . S
C1069 H1104 0.950 . S
C1070 N1066 1.383 . S
C1070 C1069 1.439 . S
C1070 C1099 1.392 . S
N1071 Co1065 2.008 . S
N1071 C1072 1.376 . S
N1071 C1075 1.374 . S
C1072 N1071 1.376 . S
C1072 C1073 1.443 . S
C1072 C1099 1.389 . S
C1073 C1072 1.443 . S
C1073 C1074 1.340 . S
C1073 H1105 0.951 . S
C1074 C1073 1.340 . S
C1074 C1075 1.439 . S
C1074 H1106 0.950 . S
C1075 N1071 1.374 . S
C1075 C1074 1.439 . S
C1075 C1100 1.395 . S
N1076 Co1065 2.027 . S
N1076 C1077 1.371 1_565 S
N1076 C1080 1.353 1_565 S
C1077 N1076 1.371 1_545 S
C1077 C1078 1.446 . S
C1077 C1100 1.391 1_545 S
C1078 C1077 1.446 . S
C1078 C1079 1.339 . S
C1078 H1107 0.949 . S
C1079 C1078 1.339 . S
C1079 C1080 1.439 . S
C1079 H1108 0.950 . S
C1080 N1076 1.353 1_545 S
C1080 C1079 1.439 . S
C1080 C1098 1.392 . S
N1081 Co1065 2.282 1_545 S
N1081 C1084 1.332 . S
N1081 C1086 1.334 . S
C1082 C1083 1.386 . S
C1082 C1085 1.388 . S
C1083 C1082 1.386 . S
C1083 C1084 1.382 . S
C1083 H1109 0.950 . S
C1084 N1081 1.332 . S
C1084 C1083 1.382 . S
C1084 H1095 0.952 . S
C1085 C1082 1.388 . S
C1085 C1086 1.396 . S
C1085 H1110 0.950 . S
C1086 N1081 1.334 . S
C1086 C1085 1.396 . S
C1086 H1096 0.933 1_545 S
N1087 Co1065 2.282 . S
N1087 C1091 1.332 . S
N1087 C1092 1.332 . S
C1088 C1089 1.388 . S
C1088 C1092 1.382 . S
C1088 H1111 0.950 . S
C1089 C1088 1.388 . S
C1089 C1090 1.383 1_554 S
C1090 C1089 1.383 1_556 S
C1090 C1091 1.373 1_556 S
C1090 H1112 0.961 . S
C1091 N1087 1.332 . S
C1091 C1090 1.373 1_554 S
C1091 H1093 0.952 . S
C1092 N1087 1.332 . S
C1092 C1088 1.382 . S
C1092 H1094 0.948 . S
H1093 C1091 0.952 . S
H1094 C1092 0.948 . S
H1095 C1084 0.952 . S
H1096 C1086 0.933 1_565 S
C1097 C1063 1.395 . S
C1097 C1067 1.391 . S
C1098 C1060 1.389 . S
C1098 C1080 1.392 . S
C1099 C1070 1.392 . S
C1099 C1072 1.389 . S
C1100 C1075 1.395 . S
C1100 C1077 1.391 1_565 S
H1101 C1061 0.951 . S
H1102 C1062 0.950 . S
H1103 C1068 0.949 . S
H1104 C1069 0.950 . S
H1105 C1073 0.951 . S
H1106 C1074 0.950 . S
H1107 C1078 0.949 . S
H1108 C1079 0.950 . S
H1109 C1083 0.950 . S
H1110 C1085 0.950 . S
H1111 C1088 0.950 . S
H1112 C1090 0.961 . S
C1113 C1114 1.443 . S
C1113 N1117 1.376 . S
C1113 C1151 1.389 . S
C1114 C1113 1.443 . S
C1114 C1115 1.340 . S
C1114 H1154 0.951 . S
C1115 C1114 1.340 . S
C1115 C1116 1.439 . S
C1115 H1155 0.950 . S
C1116 C1115 1.439 . S
C1116 N1117 1.374 . S
C1116 C1150 1.395 . S
N1117 C1113 1.376 . S
N1117 C1116 1.374 . S
N1117 Co1118 2.008 . S
Co1118 N1117 2.008 . S
Co1118 N1119 1.995 . S
Co1118 N1124 2.008 . S
Co1118 N1129 1.995 . S
Co1118 N1134 2.282 . S
Co1118 N1140 2.282 . S
N1119 Co1118 1.995 . S
N1119 C1120 1.376 . S
N1119 C1123 1.383 . S
C1120 N1119 1.376 . S
C1120 C1121 1.446 . S
C1120 C1150 1.391 . S
C1121 C1120 1.446 . S
C1121 C1122 1.339 . S
C1121 H1156 0.949 . S
C1122 C1121 1.339 . S
C1122 C1123 1.439 . S
C1122 H1157 0.950 . S
C1123 N1119 1.383 . S
C1123 C1122 1.439 . S
C1123 C1152 1.392 . S
N1124 Co1118 2.008 . S
N1124 C1125 1.376 . S
N1124 C1128 1.374 . S
C1125 N1124 1.376 . S
C1125 C1126 1.443 . S
C1125 C1152 1.389 . S
C1126 C1125 1.443 . S
C1126 C1127 1.340 . S
C1126 H1158 0.951 . S
C1127 C1126 1.340 . S
C1127 C1128 1.439 . S
C1127 H1159 0.950 . S
C1128 N1124 1.374 . S
C1128 C1127 1.439 . S
C1128 C1153 1.395 . S
N1129 Co1118 1.995 . S
N1129 C1130 1.376 . S
N1129 C1133 1.383 . S
C1130 N1129 1.376 . S
C1130 C1131 1.446 . S
C1130 C1153 1.391 . S
C1131 C1130 1.446 . S
C1131 C1132 1.339 . S
C1131 H1160 0.949 . S
C1132 C1131 1.339 . S
C1132 C1133 1.439 . S
C1132 H1161 0.950 . S
C1133 N1129 1.383 . S
C1133 C1132 1.439 . S
C1133 C1151 1.392 . S
N1134 Co1118 2.282 . S
N1134 C1137 1.332 . S
N1134 C1139 1.332 . S
C1135 C1136 1.386 . S
C1135 C1138 1.388 . S
C1136 C1135 1.386 . S
C1136 C1137 1.382 . S
C1136 H1162 0.950 . S
C1137 N1134 1.332 . S
C1137 C1136 1.382 . S
C1137 H1148 0.952 . S
C1138 C1135 1.388 . S
C1138 C1139 1.382 . S
C1138 H1163 0.950 . S
C1139 N1134 1.332 . S
C1139 C1138 1.382 . S
C1139 H1149 0.948 . S
N1140 Co1118 2.282 . S
N1140 C1144 1.332 . S
N1140 C1145 1.332 . S
C1141 C1142 1.388 . S
C1141 C1145 1.382 . S
C1141 H1164 0.950 . S
C1142 C1141 1.388 . S
C1142 C1143 1.386 . S
C1143 C1142 1.386 . S
C1143 C1144 1.382 . S
C1143 H1165 0.950 . S
C1144 N1140 1.332 . S
C1144 C1143 1.382 . S
C1144 H1146 0.952 . S
C1145 N1140 1.332 . S
C1145 C1141 1.382 . S
C1145 H1147 0.948 . S
H1146 C1144 0.952 . S
H1147 C1145 0.948 . S
H1148 C1137 0.952 . S
H1149 C1139 0.948 . S
C1150 C1116 1.395 . S
C1150 C1120 1.391 . S
C1151 C1113 1.389 . S
C1151 C1133 1.392 . S
C1152 C1123 1.392 . S
C1152 C1125 1.389 . S
C1153 C1128 1.395 . S
C1153 C1130 1.391 . S
H1154 C1114 0.951 . S
H1155 C1115 0.950 . S
H1156 C1121 0.949 . S
H1157 C1122 0.950 . S
H1158 C1126 0.951 . S
H1159 C1127 0.950 . S
H1160 C1131 0.949 . S
H1161 C1132 0.950 . S
H1162 C1136 0.950 . S
H1163 C1138 0.950 . S
H1164 C1141 0.950 . S
H1165 C1143 0.950 . S
C1166 C1167 1.443 . S
C1166 N1170 1.376 . S
C1166 C1204 1.389 . S
C1167 C1166 1.443 . S
C1167 C1168 1.340 . S
C1167 H1207 0.951 . S
C1168 C1167 1.340 . S
C1168 C1169 1.439 . S
C1168 H1208 0.950 . S
C1169 C1168 1.439 . S
C1169 N1170 1.374 . S
C1169 C1203 1.395 . S
N1170 C1166 1.376 . S
N1170 C1169 1.374 . S
N1170 Co1171 2.008 . S
Co1171 N1170 2.008 . S
Co1171 N1172 1.995 . S
Co1171 N1177 2.008 . S
Co1171 N1182 1.995 . S
Co1171 N1187 2.282 . S
Co1171 N1193 2.282 . S
N1172 Co1171 1.995 . S
N1172 C1173 1.376 . S
N1172 C1176 1.383 . S
C1173 N1172 1.376 . S
C1173 C1174 1.446 . S
C1173 C1203 1.391 . S
C1174 C1173 1.446 . S
C1174 C1175 1.339 . S
C1174 H1209 0.949 . S
C1175 C1174 1.339 . S
C1175 C1176 1.439 . S
C1175 H1210 0.950 . S
C1176 N1172 1.383 . S
C1176 C1175 1.439 . S
C1176 C1205 1.392 . S
N1177 Co1171 2.008 . S
N1177 C1178 1.376 . S
N1177 C1181 1.374 . S
C1178 N1177 1.376 . S
C1178 C1179 1.443 . S
C1178 C1205 1.389 . S
C1179 C1178 1.443 . S
C1179 C1180 1.340 . S
C1179 H1211 0.951 . S
C1180 C1179 1.340 . S
C1180 C1181 1.439 . S
C1180 H1212 0.950 . S
C1181 N1177 1.374 . S
C1181 C1180 1.439 . S
C1181 C1206 1.395 . S
N1182 Co1171 1.995 . S
N1182 C1183 1.376 . S
N1182 C1186 1.383 . S
C1183 N1182 1.376 . S
C1183 C1184 1.446 . S
C1183 C1206 1.391 . S
C1184 C1183 1.446 . S
C1184 C1185 1.339 . S
C1184 H1213 0.949 . S
C1185 C1184 1.339 . S
C1185 C1186 1.439 . S
C1185 H1214 0.950 . S
C1186 N1182 1.383 . S
C1186 C1185 1.439 . S
C1186 C1204 1.392 . S
N1187 Co1171 2.282 . S
N1187 C1190 1.332 . S
N1187 C1192 1.332 . S
C1188 C1189 1.386 . S
C1188 C1191 1.388 . S
C1189 C1188 1.386 . S
C1189 C1190 1.382 . S
C1189 H1215 0.950 . S
C1190 N1187 1.332 . S
C1190 C1189 1.382 . S
C1190 H1201 0.952 . S
C1191 C1188 1.388 . S
C1191 C1192 1.382 . S
C1191 H1216 0.950 . S
C1192 N1187 1.332 . S
C1192 C1191 1.382 . S
C1192 H1202 0.948 . S
N1193 Co1171 2.282 . S
N1193 C1197 1.332 . S
N1193 C1198 1.332 . S
C1194 C1195 1.388 . S
C1194 C1198 1.382 . S
C1194 H1217 0.950 . S
C1195 C1194 1.388 . S
C1195 C1196 1.386 . S
C1196 C1195 1.386 . S
C1196 C1197 1.382 . S
C1196 H1218 0.950 . S
C1197 N1193 1.332 . S
C1197 C1196 1.382 . S
C1197 H1199 0.952 . S
C1198 N1193 1.332 . S
C1198 C1194 1.382 . S
C1198 H1200 0.948 . S
H1199 C1197 0.952 . S
H1200 C1198 0.948 . S
H1201 C1190 0.952 . S
H1202 C1192 0.948 . S
C1203 C1169 1.395 . S
C1203 C1173 1.391 . S
C1204 C1166 1.389 . S
C1204 C1186 1.392 . S
C1205 C1176 1.392 . S
C1205 C1178 1.389 . S
C1206 C1181 1.395 . S
C1206 C1183 1.391 . S
H1207 C1167 0.951 . S
H1208 C1168 0.950 . S
H1209 C1174 0.949 . S
H1210 C1175 0.950 . S
H1211 C1179 0.951 . S
H1212 C1180 0.950 . S
H1213 C1184 0.949 . S
H1214 C1185 0.950 . S
H1215 C1189 0.950 . S
H1216 C1191 0.950 . S
H1217 C1194 0.950 . S
H1218 C1196 0.950 . S
C1219 C1220 1.443 1_556 S
C1219 N1223 1.376 . S
C1219 C1257 1.389 . S
C1220 C1219 1.443 1_554 S
C1220 C1221 1.340 . S
C1220 H1260 0.951 . S
C1221 C1220 1.340 . S
C1221 C1222 1.439 1_554 S
C1221 H1261 0.950 . S
C1222 C1221 1.439 1_556 S
C1222 N1223 1.374 . S
C1222 C1256 1.395 . S
N1223 C1219 1.376 . S
N1223 C1222 1.374 . S
N1223 Co1224 2.008 . S
Co1224 N1223 2.008 . S
Co1224 N1225 1.995 . S
Co1224 N1230 2.008 . S
Co1224 N1235 1.995 . S
Co1224 N1240 2.282 . S
Co1224 N1246 2.282 . S
N1225 Co1224 1.995 . S
N1225 C1226 1.376 . S
N1225 C1229 1.383 . S
C1226 N1225 1.376 . S
C1226 C1227 1.446 . S
C1226 C1256 1.391 . S
C1227 C1226 1.446 . S
C1227 C1228 1.339 . S
C1227 H1262 0.949 . S
C1228 C1227 1.339 . S
C1228 C1229 1.439 . S
C1228 H1263 0.950 . S
C1229 N1225 1.383 . S
C1229 C1228 1.439 . S
C1229 C1258 1.392 . S
N1230 Co1224 2.008 . S
N1230 C1231 1.376 . S
N1230 C1234 1.374 . S
C1231 N1230 1.376 . S
C1231 C1232 1.443 . S
C1231 C1258 1.389 . S
C1232 C1231 1.443 . S
C1232 C1233 1.340 . S
C1232 H1264 0.951 . S
C1233 C1232 1.340 . S
C1233 C1234 1.439 . S
C1233 H1265 0.950 . S
C1234 N1230 1.374 . S
C1234 C1233 1.439 . S
C1234 C1259 1.395 . S
N1235 Co1224 1.995 . S
N1235 C1236 1.376 . S
N1235 C1239 1.383 . S
C1236 N1235 1.376 . S
C1236 C1237 1.446 . S
C1236 C1259 1.391 . S
C1237 C1236 1.446 . S
C1237 C1238 1.339 . S
C1237 H1266 0.949 . S
C1238 C1237 1.339 . S
C1238 C1239 1.439 . S
C1238 H1267 0.950 . S
C1239 N1235 1.383 . S
C1239 C1238 1.439 . S
C1239 C1257 1.392 . S
N1240 Co1224 2.282 . S
N1240 C1243 1.332 . S
N1240 C1245 1.332 . S
C1241 C1242 1.386 . S
C1241 C1244 1.388 . S
C1242 C1241 1.386 . S
C1242 C1243 1.382 . S
C1242 H1268 0.950 . S
C1243 N1240 1.332 . S
C1243 C1242 1.382 . S
C1243 H1254 0.952 . S
C1244 C1241 1.388 . S
C1244 C1245 1.382 . S
C1244 H1269 0.950 . S
C1245 N1240 1.332 . S
C1245 C1244 1.382 . S
C1245 H1255 0.948 . S
N1246 Co1224 2.282 . S
N1246 C1250 1.332 . S
N1246 C1251 1.332 . S
C1247 C1248 1.388 . S
C1247 C1251 1.382 . S
C1247 H1270 0.950 . S
C1248 C1247 1.388 . S
C1248 C1249 1.383 1_556 S
C1249 C1248 1.383 1_554 S
C1249 C1250 1.373 1_554 S
C1249 H1271 0.961 . S
C1250 N1246 1.332 . S
C1250 C1249 1.373 1_556 S
C1250 H1252 0.952 . S
C1251 N1246 1.332 . S
C1251 C1247 1.382 . S
C1251 H1253 0.948 . S
H1252 C1250 0.952 . S
H1253 C1251 0.948 . S
H1254 C1243 0.952 . S
H1255 C1245 0.948 . S
C1256 C1222 1.395 . S
C1256 C1226 1.391 . S
C1257 C1219 1.389 . S
C1257 C1239 1.392 . S
C1258 C1229 1.392 . S
C1258 C1231 1.389 . S
C1259 C1234 1.395 . S
C1259 C1236 1.391 . S
H1260 C1220 0.951 . S
H1261 C1221 0.950 . S
H1262 C1227 0.949 . S
H1263 C1228 0.950 . S
H1264 C1232 0.951 . S
H1265 C1233 0.950 . S
H1266 C1237 0.949 . S
H1267 C1238 0.950 . S
H1268 C1242 0.950 . S
H1269 C1244 0.950 . S
H1270 C1247 0.950 . S
H1271 C1249 0.961 . S
C1272 C1273 1.443 . S
C1272 N1276 1.376 . S
C1272 C1310 1.389 . S
C1273 C1272 1.443 . S
C1273 C1274 1.340 . S
C1273 H1313 0.951 . S
C1274 C1273 1.340 . S
C1274 C1275 1.439 . S
C1274 H1314 0.950 . S
C1275 C1274 1.439 . S
C1275 N1276 1.374 . S
C1275 C1309 1.395 . S
N1276 C1272 1.376 . S
N1276 C1275 1.374 . S
N1276 Co1277 2.008 . S
Co1277 N1276 2.008 . S
Co1277 N1278 1.995 . S
Co1277 N1283 2.008 . S
Co1277 N1288 1.995 . S
Co1277 N1293 2.282 . S
Co1277 N1299 2.282 . S
N1278 Co1277 1.995 . S
N1278 C1279 1.376 . S
N1278 C1282 1.383 . S
C1279 N1278 1.376 . S
C1279 C1280 1.446 . S
C1279 C1309 1.391 . S
C1280 C1279 1.446 . S
C1280 C1281 1.339 . S
C1280 H1315 0.949 . S
C1281 C1280 1.339 . S
C1281 C1282 1.439 . S
C1281 H1316 0.950 . S
C1282 N1278 1.383 . S
C1282 C1281 1.439 . S
C1282 C1311 1.392 . S
N1283 Co1277 2.008 . S
N1283 C1284 1.376 . S
N1283 C1287 1.374 . S
C1284 N1283 1.376 . S
C1284 C1285 1.443 . S
C1284 C1311 1.389 . S
C1285 C1284 1.443 . S
C1285 C1286 1.340 . S
C1285 H1317 0.951 . S
C1286 C1285 1.340 . S
C1286 C1287 1.439 . S
C1286 H1318 0.950 . S
C1287 N1283 1.374 . S
C1287 C1286 1.439 . S
C1287 C1312 1.395 . S
N1288 Co1277 1.995 . S
N1288 C1289 1.376 . S
N1288 C1292 1.383 . S
C1289 N1288 1.376 . S
C1289 C1290 1.446 . S
C1289 C1312 1.391 . S
C1290 C1289 1.446 . S
C1290 C1291 1.339 . S
C1290 H1319 0.949 . S
C1291 C1290 1.339 . S
C1291 C1292 1.439 . S
C1291 H1320 0.950 . S
C1292 N1288 1.383 . S
C1292 C1291 1.439 . S
C1292 C1310 1.392 . S
N1293 Co1277 2.282 . S
N1293 C1296 1.332 . S
N1293 C1298 1.332 . S
C1294 C1295 1.386 . S
C1294 C1297 1.388 . S
C1295 C1294 1.386 . S
C1295 C1296 1.382 . S
C1295 H1321 0.950 . S
C1296 N1293 1.332 . S
C1296 C1295 1.382 . S
C1296 H1307 0.952 . S
C1297 C1294 1.388 . S
C1297 C1298 1.382 . S
C1297 H1322 0.950 . S
C1298 N1293 1.332 . S
C1298 C1297 1.382 . S
C1298 H1308 0.948 . S
N1299 Co1277 2.282 . S
N1299 C1303 1.332 . S
N1299 C1304 1.332 . S
C1300 C1301 1.388 . S
C1300 C1304 1.382 . S
C1300 H1323 0.950 . S
C1301 C1300 1.388 . S
C1301 C1302 1.386 . S
C1302 C1301 1.386 . S
C1302 C1303 1.382 . S
C1302 H1324 0.950 . S
C1303 N1299 1.332 . S
C1303 C1302 1.382 . S
C1303 H1305 0.952 . S
C1304 N1299 1.332 . S
C1304 C1300 1.382 . S
C1304 H1306 0.948 . S
H1305 C1303 0.952 . S
H1306 C1304 0.948 . S
H1307 C1296 0.952 . S
H1308 C1298 0.948 . S
C1309 C1275 1.395 . S
C1309 C1279 1.391 . S
C1310 C1272 1.389 . S
C1310 C1292 1.392 . S
C1311 C1282 1.392 . S
C1311 C1284 1.389 . S
C1312 C1287 1.395 . S
C1312 C1289 1.391 . S
H1313 C1273 0.951 . S
H1314 C1274 0.950 . S
H1315 C1280 0.949 . S
H1316 C1281 0.950 . S
H1317 C1285 0.951 . S
H1318 C1286 0.950 . S
H1319 C1290 0.949 . S
H1320 C1291 0.950 . S
H1321 C1295 0.950 . S
H1322 C1297 0.950 . S
H1323 C1300 0.950 . S
H1324 C1302 0.950 . S
C1325 C1326 1.443 . S
C1325 N1329 1.376 . S
C1325 C1363 1.389 . S
C1326 C1325 1.443 . S
C1326 C1327 1.340 . S
C1326 H1366 0.951 . S
C1327 C1326 1.340 . S
C1327 C1328 1.439 . S
C1327 H1367 0.950 . S
C1328 C1327 1.439 . S
C1328 N1329 1.374 . S
C1328 C1362 1.395 . S
N1329 C1325 1.376 . S
N1329 C1328 1.374 . S
N1329 Co1330 2.008 . S
Co1330 N1329 2.008 . S
Co1330 N1331 1.995 . S
Co1330 N1336 2.008 . S
Co1330 N1341 1.995 . S
Co1330 N1346 2.282 . S
Co1330 N1352 2.282 . S
N1331 Co1330 1.995 . S
N1331 C1332 1.376 . S
N1331 C1335 1.383 . S
C1332 N1331 1.376 . S
C1332 C1333 1.446 . S
C1332 C1362 1.391 . S
C1333 C1332 1.446 . S
C1333 C1334 1.339 . S
C1333 H1368 0.949 . S
C1334 C1333 1.339 . S
C1334 C1335 1.439 . S
C1334 H1369 0.950 . S
C1335 N1331 1.383 . S
C1335 C1334 1.439 . S
C1335 C1364 1.392 . S
N1336 Co1330 2.008 . S
N1336 C1337 1.376 . S
N1336 C1340 1.374 . S
C1337 N1336 1.376 . S
C1337 C1338 1.443 . S
C1337 C1364 1.389 . S
C1338 C1337 1.443 . S
C1338 C1339 1.340 . S
C1338 H1370 0.951 . S
C1339 C1338 1.340 . S
C1339 C1340 1.439 . S
C1339 H1371 0.950 . S
C1340 N1336 1.374 . S
C1340 C1339 1.439 . S
C1340 C1365 1.395 . S
N1341 Co1330 1.995 . S
N1341 C1342 1.376 . S
N1341 C1345 1.383 . S
C1342 N1341 1.376 . S
C1342 C1343 1.446 . S
C1342 C1365 1.391 . S
C1343 C1342 1.446 . S
C1343 C1344 1.339 . S
C1343 H1372 0.949 . S
C1344 C1343 1.339 . S
C1344 C1345 1.439 . S
C1344 H1373 0.950 . S
C1345 N1341 1.383 . S
C1345 C1344 1.439 . S
C1345 C1363 1.392 . S
N1346 Co1330 2.282 . S
N1346 C1349 1.332 . S
N1346 C1351 1.332 . S
C1347 C1348 1.386 . S
C1347 C1350 1.388 . S
C1348 C1347 1.386 . S
C1348 C1349 1.382 . S
C1348 H1374 0.950 . S
C1349 N1346 1.332 . S
C1349 C1348 1.382 . S
C1349 H1360 0.952 . S
C1350 C1347 1.388 . S
C1350 C1351 1.382 . S
C1350 H1375 0.950 . S
C1351 N1346 1.332 . S
C1351 C1350 1.382 . S
C1351 H1361 0.948 . S
N1352 Co1330 2.282 . S
N1352 C1356 1.332 . S
N1352 C1357 1.332 . S
C1353 C1354 1.388 . S
C1353 C1357 1.382 . S
C1353 H1376 0.950 . S
C1354 C1353 1.388 . S
C1354 C1355 1.386 . S
C1355 C1354 1.386 . S
C1355 C1356 1.382 . S
C1355 H1377 0.950 . S
C1356 N1352 1.332 . S
C1356 C1355 1.382 . S
C1356 H1358 0.952 . S
C1357 N1352 1.332 . S
C1357 C1353 1.382 . S
C1357 H1359 0.948 . S
H1358 C1356 0.952 . S
H1359 C1357 0.948 . S
H1360 C1349 0.952 . S
H1361 C1351 0.948 . S
C1362 C1328 1.395 . S
C1362 C1332 1.391 . S
C1363 C1325 1.389 . S
C1363 C1345 1.392 . S
C1364 C1335 1.392 . S
C1364 C1337 1.389 . S
C1365 C1340 1.395 . S
C1365 C1342 1.391 . S
H1366 C1326 0.951 . S
H1367 C1327 0.950 . S
H1368 C1333 0.949 . S
H1369 C1334 0.950 . S
H1370 C1338 0.951 . S
H1371 C1339 0.950 . S
H1372 C1343 0.949 . S
H1373 C1344 0.950 . S
H1374 C1348 0.950 . S
H1375 C1350 0.950 . S
H1376 C1353 0.950 . S
H1377 C1355 0.950 . S
C1378 C1379 1.443 . S
C1378 N1382 1.376 . S
C1378 C1416 1.389 . S
C1379 C1378 1.443 . S
C1379 C1380 1.340 . S
C1379 H1419 0.951 . S
C1380 C1379 1.340 . S
C1380 C1381 1.439 . S
C1380 H1420 0.950 . S
C1381 C1380 1.439 . S
C1381 N1382 1.374 . S
C1381 C1415 1.395 . S
N1382 C1378 1.376 . S
N1382 C1381 1.374 . S
N1382 Co1383 2.008 . S
Co1383 N1382 2.008 . S
Co1383 N1384 1.995 . S
Co1383 N1389 2.008 . S
Co1383 N1394 1.995 . S
Co1383 N1399 2.282 . S
Co1383 N1405 2.282 . S
N1384 Co1383 1.995 . S
N1384 C1385 1.376 . S
N1384 C1388 1.383 . S
C1385 N1384 1.376 . S
C1385 C1386 1.446 . S
C1385 C1415 1.391 . S
C1386 C1385 1.446 . S
C1386 C1387 1.339 . S
C1386 H1421 0.949 . S
C1387 C1386 1.339 . S
C1387 C1388 1.439 . S
C1387 H1422 0.950 . S
C1388 N1384 1.383 . S
C1388 C1387 1.439 . S
C1388 C1417 1.392 . S
N1389 Co1383 2.008 . S
N1389 C1390 1.376 . S
N1389 C1393 1.374 . S
C1390 N1389 1.376 . S
C1390 C1391 1.443 . S
C1390 C1417 1.389 . S
C1391 C1390 1.443 . S
C1391 C1392 1.340 . S
C1391 H1423 0.951 . S
C1392 C1391 1.340 . S
C1392 C1393 1.439 . S
C1392 H1424 0.950 . S
C1393 N1389 1.374 . S
C1393 C1392 1.439 . S
C1393 C1418 1.395 . S
N1394 Co1383 1.995 . S
N1394 C1395 1.376 . S
N1394 C1398 1.383 . S
C1395 N1394 1.376 . S
C1395 C1396 1.446 . S
C1395 C1418 1.391 . S
C1396 C1395 1.446 . S
C1396 C1397 1.339 . S
C1396 H1425 0.949 . S
C1397 C1396 1.339 . S
C1397 C1398 1.439 . S
C1397 H1426 0.950 . S
C1398 N1394 1.383 . S
C1398 C1397 1.439 . S
C1398 C1416 1.392 . S
N1399 Co1383 2.282 . S
N1399 C1402 1.332 . S
N1399 C1404 1.332 . S
C1400 C1401 1.386 . S
C1400 C1403 1.388 . S
C1401 C1400 1.386 . S
C1401 C1402 1.382 . S
C1401 H1427 0.950 . S
C1402 N1399 1.332 . S
C1402 C1401 1.382 . S
C1402 H1413 0.952 . S
C1403 C1400 1.388 . S
C1403 C1404 1.382 . S
C1403 H1428 0.950 . S
C1404 N1399 1.332 . S
C1404 C1403 1.382 . S
C1404 H1414 0.948 . S
N1405 Co1383 2.282 . S
N1405 C1409 1.332 . S
N1405 C1410 1.332 . S
C1406 C1407 1.388 . S
C1406 C1410 1.382 . S
C1406 H1429 0.950 . S
C1407 C1406 1.388 . S
C1407 C1408 1.386 . S
C1408 C1407 1.386 . S
C1408 C1409 1.382 . S
C1408 H1430 0.950 . S
C1409 N1405 1.332 . S
C1409 C1408 1.382 . S
C1409 H1411 0.952 . S
C1410 N1405 1.332 . S
C1410 C1406 1.382 . S
C1410 H1412 0.948 . S
H1411 C1409 0.952 . S
H1412 C1410 0.948 . S
H1413 C1402 0.952 . S
H1414 C1404 0.948 . S
C1415 C1381 1.395 . S
C1415 C1385 1.391 . S
C1416 C1378 1.389 . S
C1416 C1398 1.392 . S
C1417 C1388 1.392 . S
C1417 C1390 1.389 . S
C1418 C1393 1.395 . S
C1418 C1395 1.391 . S
H1419 C1379 0.951 . S
H1420 C1380 0.950 . S
H1421 C1386 0.949 . S
H1422 C1387 0.950 . S
H1423 C1391 0.951 . S
H1424 C1392 0.950 . S
H1425 C1396 0.949 . S
H1426 C1397 0.950 . S
H1427 C1401 0.950 . S
H1428 C1403 0.950 . S
H1429 C1406 0.950 . S
H1430 C1408 0.950 . S
C1431 C1432 1.443 . S
C1431 N1435 1.376 . S
C1431 C1469 1.389 . S
C1432 C1431 1.443 . S
C1432 C1433 1.340 . S
C1432 H1472 0.951 . S
C1433 C1432 1.340 . S
C1433 C1434 1.439 . S
C1433 H1473 0.950 . S
C1434 C1433 1.439 . S
C1434 N1435 1.374 . S
C1434 C1468 1.395 . S
N1435 C1431 1.376 . S
N1435 C1434 1.374 . S
N1435 Co1436 2.008 1_655 S
Co1436 N1435 2.008 1_455 S
Co1436 N1437 1.995 . S
Co1436 N1442 2.008 . S
Co1436 N1447 1.995 . S
Co1436 N1452 2.282 1_455 S
Co1436 N1458 2.282 . S
N1437 Co1436 1.995 . S
N1437 C1438 1.376 . S
N1437 C1441 1.383 . S
C1438 N1437 1.376 . S
C1438 C1439 1.446 . S
C1438 C1468 1.391 1_455 S
C1439 C1438 1.446 . S
C1439 C1440 1.339 . S
C1439 H1474 0.949 . S
C1440 C1439 1.339 . S
C1440 C1441 1.439 . S
C1440 H1475 0.950 . S
C1441 N1437 1.383 . S
C1441 C1440 1.439 . S
C1441 C1470 1.392 . S
N1442 Co1436 2.008 . S
N1442 C1443 1.376 . S
N1442 C1446 1.374 . S
C1443 N1442 1.376 . S
C1443 C1444 1.443 . S
C1443 C1470 1.389 . S
C1444 C1443 1.443 . S
C1444 C1445 1.340 . S
C1444 H1476 0.951 . S
C1445 C1444 1.340 . S
C1445 C1446 1.439 . S
C1445 H1477 0.950 . S
C1446 N1442 1.374 . S
C1446 C1445 1.439 . S
C1446 C1471 1.395 . S
N1447 Co1436 1.995 . S
N1447 C1448 1.376 . S
N1447 C1451 1.383 1_455 S
C1448 N1447 1.376 . S
C1448 C1449 1.446 . S
C1448 C1471 1.391 . S
C1449 C1448 1.446 . S
C1449 C1450 1.339 1_455 S
C1449 H1478 0.949 . S
C1450 C1449 1.339 1_655 S
C1450 C1451 1.439 . S
C1450 H1479 0.950 . S
C1451 N1447 1.383 1_655 S
C1451 C1450 1.439 . S
C1451 C1469 1.392 . S
N1452 Co1436 2.282 1_655 S
N1452 C1455 1.332 . S
N1452 C1457 1.332 . S
C1453 C1454 1.386 . S
C1453 C1456 1.388 . S
C1454 C1453 1.386 . S
C1454 C1455 1.382 . S
C1454 H1480 0.950 . S
C1455 N1452 1.332 . S
C1455 C1454 1.382 . S
C1455 H1466 0.952 . S
C1456 C1453 1.388 . S
C1456 C1457 1.382 . S
C1456 H1481 0.950 . S
C1457 N1452 1.332 . S
C1457 C1456 1.382 . S
C1457 H1467 0.948 . S
N1458 Co1436 2.282 . S
N1458 C1462 1.332 . S
N1458 C1463 1.332 . S
C1459 C1460 1.388 . S
C1459 C1463 1.382 . S
C1459 H1482 0.950 . S
C1460 C1459 1.388 . S
C1460 C1461 1.386 . S
C1461 C1460 1.386 . S
C1461 C1462 1.382 . S
C1461 H1483 0.950 . S
C1462 N1458 1.332 . S
C1462 C1461 1.382 . S
C1462 H1464 0.952 . S
C1463 N1458 1.332 . S
C1463 C1459 1.382 . S
C1463 H1465 0.948 . S
H1464 C1462 0.952 . S
H1465 C1463 0.948 . S
H1466 C1455 0.952 . S
H1467 C1457 0.948 . S
C1468 C1434 1.395 . S
C1468 C1438 1.391 1_655 S
C1469 C1431 1.389 . S
C1469 C1451 1.392 . S
C1470 C1441 1.392 . S
C1470 C1443 1.389 . S
C1471 C1446 1.395 . S
C1471 C1448 1.391 . S
H1472 C1432 0.951 . S
H1473 C1433 0.950 . S
H1474 C1439 0.949 . S
H1475 C1440 0.950 . S
H1476 C1444 0.951 . S
H1477 C1445 0.950 . S
H1478 C1449 0.949 . S
H1479 C1450 0.950 . S
H1480 C1454 0.950 . S
H1481 C1456 0.950 . S
H1482 C1459 0.950 . S
H1483 C1461 0.950 . S
C1484 C1485 1.443 . S
C1484 N1488 1.376 . S
C1484 C1522 1.389 . S
C1485 C1484 1.443 . S
C1485 C1486 1.340 . S
C1485 H1525 0.951 . S
C1486 C1485 1.340 . S
C1486 C1487 1.439 . S
C1486 H1526 0.950 . S
C1487 C1486 1.439 . S
C1487 N1488 1.374 . S
C1487 C1521 1.395 . S
N1488 C1484 1.376 . S
N1488 C1487 1.374 . S
N1488 Co1489 2.008 . S
Co1489 N1488 2.008 . S
Co1489 N1490 1.995 . S
Co1489 N1495 2.008 . S
Co1489 N1500 1.995 . S
Co1489 N1505 2.282 . S
Co1489 N1511 2.282 . S
N1490 Co1489 1.995 . S
N1490 C1491 1.376 . S
N1490 C1494 1.383 . S
C1491 N1490 1.376 . S
C1491 C1492 1.446 . S
C1491 C1521 1.391 . S
C1492 C1491 1.446 . S
C1492 C1493 1.339 . S
C1492 H1527 0.949 . S
C1493 C1492 1.339 . S
C1493 C1494 1.439 . S
C1493 H1528 0.950 . S
C1494 N1490 1.383 . S
C1494 C1493 1.439 . S
C1494 C1523 1.392 . S
N1495 Co1489 2.008 . S
N1495 C1496 1.376 . S
N1495 C1499 1.374 . S
C1496 N1495 1.376 . S
C1496 C1497 1.443 . S
C1496 C1523 1.389 . S
C1497 C1496 1.443 . S
C1497 C1498 1.340 . S
C1497 H1529 0.951 . S
C1498 C1497 1.340 . S
C1498 C1499 1.439 . S
C1498 H1530 0.950 . S
C1499 N1495 1.374 . S
C1499 C1498 1.439 . S
C1499 C1524 1.395 . S
N1500 Co1489 1.995 . S
N1500 C1501 1.376 . S
N1500 C1504 1.383 . S
C1501 N1500 1.376 . S
C1501 C1502 1.446 . S
C1501 C1524 1.391 . S
C1502 C1501 1.446 . S
C1502 C1503 1.339 . S
C1502 H1531 0.949 . S
C1503 C1502 1.339 . S
C1503 C1504 1.439 . S
C1503 H1532 0.950 . S
C1504 N1500 1.383 . S
C1504 C1503 1.439 . S
C1504 C1522 1.392 . S
N1505 Co1489 2.282 . S
N1505 C1508 1.332 . S
N1505 C1510 1.332 . S
C1506 C1507 1.386 . S
C1506 C1509 1.388 . S
C1507 C1506 1.386 . S
C1507 C1508 1.382 . S
C1507 H1533 0.950 . S
C1508 N1505 1.332 . S
C1508 C1507 1.382 . S
C1508 H1519 0.952 . S
C1509 C1506 1.388 . S
C1509 C1510 1.382 . S
C1509 H1534 0.950 . S
C1510 N1505 1.332 . S
C1510 C1509 1.382 . S
C1510 H1520 0.948 . S
N1511 Co1489 2.282 . S
N1511 C1515 1.332 . S
N1511 C1516 1.332 . S
C1512 C1513 1.388 . S
C1512 C1516 1.382 . S
C1512 H1535 0.950 . S
C1513 C1512 1.388 . S
C1513 C1514 1.386 . S
C1514 C1513 1.386 . S
C1514 C1515 1.382 . S
C1514 H1536 0.950 . S
C1515 N1511 1.332 . S
C1515 C1514 1.382 . S
C1515 H1517 0.952 . S
C1516 N1511 1.332 . S
C1516 C1512 1.382 . S
C1516 H1518 0.948 . S
H1517 C1515 0.952 . S
H1518 C1516 0.948 . S
H1519 C1508 0.952 . S
H1520 C1510 0.948 . S
C1521 C1487 1.395 . S
C1521 C1491 1.391 . S
C1522 C1484 1.389 . S
C1522 C1504 1.392 . S
C1523 C1494 1.392 . S
C1523 C1496 1.389 . S
C1524 C1499 1.395 . S
C1524 C1501 1.391 . S
H1525 C1485 0.951 . S
H1526 C1486 0.950 . S
H1527 C1492 0.949 . S
H1528 C1493 0.950 . S
H1529 C1497 0.951 . S
H1530 C1498 0.950 . S
H1531 C1502 0.949 . S
H1532 C1503 0.950 . S
H1533 C1507 0.950 . S
H1534 C1509 0.950 . S
H1535 C1512 0.950 . S
H1536 C1514 0.950 . S
C1537 C1538 1.443 . S
C1537 N1541 1.376 . S
C1537 C1575 1.389 . S
C1538 C1537 1.443 . S
C1538 C1539 1.340 . S
C1538 H1578 0.951 . S
C1539 C1538 1.340 . S
C1539 C1540 1.439 . S
C1539 H1579 0.950 . S
C1540 C1539 1.439 . S
C1540 N1541 1.374 . S
C1540 C1574 1.395 . S
N1541 C1537 1.376 . S
N1541 C1540 1.374 . S
N1541 Co1542 2.008 1_655 S
Co1542 N1541 2.008 1_455 S
Co1542 N1543 1.995 . S
Co1542 N1548 2.008 . S
Co1542 N1553 1.995 . S
Co1542 N1558 2.282 1_455 S
Co1542 N1564 2.282 . S
N1543 Co1542 1.995 . S
N1543 C1544 1.376 . S
N1543 C1547 1.383 . S
C1544 N1543 1.376 . S
C1544 C1545 1.446 . S
C1544 C1574 1.391 1_455 S
C1545 C1544 1.446 . S
C1545 C1546 1.339 . S
C1545 H1580 0.949 . S
C1546 C1545 1.339 . S
C1546 C1547 1.439 . S
C1546 H1581 0.950 . S
C1547 N1543 1.383 . S
C1547 C1546 1.439 . S
C1547 C1576 1.392 . S
N1548 Co1542 2.008 . S
N1548 C1549 1.376 . S
N1548 C1552 1.374 . S
C1549 N1548 1.376 . S
C1549 C1550 1.443 . S
C1549 C1576 1.389 . S
C1550 C1549 1.443 . S
C1550 C1551 1.340 . S
C1550 H1582 0.951 . S
C1551 C1550 1.340 . S
C1551 C1552 1.439 . S
C1551 H1583 0.950 . S
C1552 N1548 1.374 . S
C1552 C1551 1.439 . S
C1552 C1577 1.395 . S
N1553 Co1542 1.995 . S
N1553 C1554 1.376 . S
N1553 C1557 1.383 1_455 S
C1554 N1553 1.376 . S
C1554 C1555 1.446 . S
C1554 C1577 1.391 . S
C1555 C1554 1.446 . S
C1555 C1556 1.339 1_455 S
C1555 H1584 0.949 . S
C1556 C1555 1.339 1_655 S
C1556 C1557 1.439 . S
C1556 H1585 0.950 . S
C1557 N1553 1.383 1_655 S
C1557 C1556 1.439 . S
C1557 C1575 1.392 . S
N1558 Co1542 2.282 1_655 S
N1558 C1561 1.332 . S
N1558 C1563 1.332 . S
C1559 C1560 1.386 . S
C1559 C1562 1.388 . S
C1560 C1559 1.386 . S
C1560 C1561 1.382 . S
C1560 H1586 0.950 . S
C1561 N1558 1.332 . S
C1561 C1560 1.382 . S
C1561 H1572 0.952 . S
C1562 C1559 1.388 . S
C1562 C1563 1.382 . S
C1562 H1587 0.950 . S
C1563 N1558 1.332 . S
C1563 C1562 1.382 . S
C1563 H1573 0.948 . S
N1564 Co1542 2.282 . S
N1564 C1568 1.332 . S
N1564 C1569 1.332 . S
C1565 C1566 1.388 . S
C1565 C1569 1.382 . S
C1565 H1588 0.950 . S
C1566 C1565 1.388 . S
C1566 C1567 1.386 . S
C1567 C1566 1.386 . S
C1567 C1568 1.382 . S
C1567 H1589 0.950 . S
C1568 N1564 1.332 . S
C1568 C1567 1.382 . S
C1568 H1570 0.952 . S
C1569 N1564 1.332 . S
C1569 C1565 1.382 . S
C1569 H1571 0.948 . S
H1570 C1568 0.952 . S
H1571 C1569 0.948 . S
H1572 C1561 0.952 . S
H1573 C1563 0.948 . S
C1574 C1540 1.395 . S
C1574 C1544 1.391 1_655 S
C1575 C1537 1.389 . S
C1575 C1557 1.392 . S
C1576 C1547 1.392 . S
C1576 C1549 1.389 . S
C1577 C1552 1.395 . S
C1577 C1554 1.391 . S
H1578 C1538 0.951 . S
H1579 C1539 0.950 . S
H1580 C1545 0.949 . S
H1581 C1546 0.950 . S
H1582 C1550 0.951 . S
H1583 C1551 0.950 . S
H1584 C1555 0.949 . S
H1585 C1556 0.950 . S
H1586 C1560 0.950 . S
H1587 C1562 0.950 . S
H1588 C1565 0.950 . S
H1589 C1567 0.950 . S
C1590 C1591 1.443 . S
C1590 N1594 1.376 . S
C1590 C1628 1.389 . S
C1591 C1590 1.443 . S
C1591 C1592 1.340 . S
C1591 H1631 0.951 . S
C1592 C1591 1.340 . S
C1592 C1593 1.439 . S
C1592 H1632 0.950 . S
C1593 C1592 1.439 . S
C1593 N1594 1.374 . S
C1593 C1627 1.395 . S
N1594 C1590 1.376 . S
N1594 C1593 1.374 . S
N1594 Co1595 2.008 . S
Co1595 N1594 2.008 . S
Co1595 N1596 1.995 . S
Co1595 N1601 2.008 . S
Co1595 N1606 1.995 . S
Co1595 N1611 2.282 . S
Co1595 N1617 2.282 . S
N1596 Co1595 1.995 . S
N1596 C1597 1.376 . S
N1596 C1600 1.383 . S
C1597 N1596 1.376 . S
C1597 C1598 1.446 . S
C1597 C1627 1.391 . S
C1598 C1597 1.446 . S
C1598 C1599 1.339 . S
C1598 H1633 0.949 . S
C1599 C1598 1.339 . S
C1599 C1600 1.439 . S
C1599 H1634 0.950 . S
C1600 N1596 1.383 . S
C1600 C1599 1.439 . S
C1600 C1629 1.392 . S
N1601 Co1595 2.008 . S
N1601 C1602 1.376 . S
N1601 C1605 1.374 . S
C1602 N1601 1.376 . S
C1602 C1603 1.443 . S
C1602 C1629 1.389 . S
C1603 C1602 1.443 . S
C1603 C1604 1.340 . S
C1603 H1635 0.951 . S
C1604 C1603 1.340 . S
C1604 C1605 1.439 . S
C1604 H1636 0.950 . S
C1605 N1601 1.374 . S
C1605 C1604 1.439 . S
C1605 C1630 1.395 . S
N1606 Co1595 1.995 . S
N1606 C1607 1.376 . S
N1606 C1610 1.383 . S
C1607 N1606 1.376 . S
C1607 C1608 1.446 . S
C1607 C1630 1.391 . S
C1608 C1607 1.446 . S
C1608 C1609 1.339 . S
C1608 H1637 0.949 . S
C1609 C1608 1.339 . S
C1609 C1610 1.439 . S
C1609 H1638 0.950 . S
C1610 N1606 1.383 . S
C1610 C1609 1.439 . S
C1610 C1628 1.392 . S
N1611 Co1595 2.282 . S
N1611 C1614 1.332 . S
N1611 C1616 1.332 . S
C1612 C1613 1.386 . S
C1612 C1615 1.388 . S
C1613 C1612 1.386 . S
C1613 C1614 1.382 . S
C1613 H1639 0.950 . S
C1614 N1611 1.332 . S
C1614 C1613 1.382 . S
C1614 H1625 0.952 . S
C1615 C1612 1.388 . S
C1615 C1616 1.382 . S
C1615 H1640 0.950 . S
C1616 N1611 1.332 . S
C1616 C1615 1.382 . S
C1616 H1626 0.948 . S
N1617 Co1595 2.282 . S
N1617 C1621 1.332 . S
N1617 C1622 1.332 . S
C1618 C1619 1.388 . S
C1618 C1622 1.382 . S
C1618 H1641 0.950 . S
C1619 C1618 1.388 . S
C1619 C1620 1.386 . S
C1620 C1619 1.386 . S
C1620 C1621 1.382 . S
C1620 H1642 0.950 . S
C1621 N1617 1.332 . S
C1621 C1620 1.382 . S
C1621 H1623 0.952 . S
C1622 N1617 1.332 . S
C1622 C1618 1.382 . S
C1622 H1624 0.948 . S
H1623 C1621 0.952 . S
H1624 C1622 0.948 . S
H1625 C1614 0.952 . S
H1626 C1616 0.948 . S
C1627 C1593 1.395 . S
C1627 C1597 1.391 . S
C1628 C1590 1.389 . S
C1628 C1610 1.392 . S
C1629 C1600 1.392 . S
C1629 C1602 1.389 . S
C1630 C1605 1.395 . S
C1630 C1607 1.391 . S
H1631 C1591 0.951 . S
H1632 C1592 0.950 . S
H1633 C1598 0.949 . S
H1634 C1599 0.950 . S
H1635 C1603 0.951 . S
H1636 C1604 0.950 . S
H1637 C1608 0.949 . S
H1638 C1609 0.950 . S
H1639 C1613 0.950 . S
H1640 C1615 0.950 . S
H1641 C1618 0.950 . S
H1642 C1620 0.950 . S
C1643 C1644 1.443 . S
C1643 N1647 1.376 . S
C1643 C1681 1.389 . S
C1644 C1643 1.443 . S
C1644 C1645 1.340 . S
C1644 H1684 0.951 . S
C1645 C1644 1.340 . S
C1645 C1646 1.439 . S
C1645 H1685 0.950 . S
C1646 C1645 1.439 . S
C1646 N1647 1.374 . S
C1646 C1680 1.395 . S
N1647 C1643 1.376 . S
N1647 C1646 1.374 . S
N1647 Co1648 2.008 . S
Co1648 N1647 2.008 . S
Co1648 N1649 1.995 . S
Co1648 N1654 2.008 . S
Co1648 N1659 1.995 . S
Co1648 N1664 2.282 . S
Co1648 N1670 2.282 . S
N1649 Co1648 1.995 . S
N1649 C1650 1.376 . S
N1649 C1653 1.383 . S
C1650 N1649 1.376 . S
C1650 C1651 1.446 . S
C1650 C1680 1.391 . S
C1651 C1650 1.446 . S
C1651 C1652 1.339 . S
C1651 H1686 0.949 . S
C1652 C1651 1.339 . S
C1652 C1653 1.439 . S
C1652 H1687 0.950 . S
C1653 N1649 1.383 . S
C1653 C1652 1.439 . S
C1653 C1682 1.392 . S
N1654 Co1648 2.008 . S
N1654 C1655 1.376 . S
N1654 C1658 1.374 . S
C1655 N1654 1.376 . S
C1655 C1656 1.443 . S
C1655 C1682 1.389 . S
C1656 C1655 1.443 . S
C1656 C1657 1.340 . S
C1656 H1688 0.951 . S
C1657 C1656 1.340 . S
C1657 C1658 1.439 . S
C1657 H1689 0.950 . S
C1658 N1654 1.374 . S
C1658 C1657 1.439 . S
C1658 C1683 1.395 . S
N1659 Co1648 1.995 . S
N1659 C1660 1.376 . S
N1659 C1663 1.383 . S
C1660 N1659 1.376 . S
C1660 C1661 1.446 . S
C1660 C1683 1.391 . S
C1661 C1660 1.446 . S
C1661 C1662 1.339 . S
C1661 H1690 0.949 . S
C1662 C1661 1.339 . S
C1662 C1663 1.439 . S
C1662 H1691 0.950 . S
C1663 N1659 1.383 . S
C1663 C1662 1.439 . S
C1663 C1681 1.392 . S
N1664 Co1648 2.282 . S
N1664 C1667 1.332 . S
N1664 C1669 1.332 . S
C1665 C1666 1.386 . S
C1665 C1668 1.388 . S
C1666 C1665 1.386 . S
C1666 C1667 1.382 . S
C1666 H1692 0.950 . S
C1667 N1664 1.332 . S
C1667 C1666 1.382 . S
C1667 H1678 0.952 . S
C1668 C1665 1.388 . S
C1668 C1669 1.382 . S
C1668 H1693 0.950 . S
C1669 N1664 1.332 . S
C1669 C1668 1.382 . S
C1669 H1679 0.948 . S
N1670 Co1648 2.282 . S
N1670 C1674 1.332 . S
N1670 C1675 1.332 . S
C1671 C1672 1.388 . S
C1671 C1675 1.382 . S
C1671 H1694 0.950 . S
C1672 C1671 1.388 . S
C1672 C1673 1.386 . S
C1673 C1672 1.386 . S
C1673 C1674 1.382 . S
C1673 H1695 0.950 . S
C1674 N1670 1.332 . S
C1674 C1673 1.382 . S
C1674 H1676 0.952 . S
C1675 N1670 1.332 . S
C1675 C1671 1.382 . S
C1675 H1677 0.948 . S
H1676 C1674 0.952 . S
H1677 C1675 0.948 . S
H1678 C1667 0.952 . S
H1679 C1669 0.948 . S
C1680 C1646 1.395 . S
C1680 C1650 1.391 . S
C1681 C1643 1.389 . S
C1681 C1663 1.392 . S
C1682 C1653 1.392 . S
C1682 C1655 1.389 . S
C1683 C1658 1.395 . S
C1683 C1660 1.391 . S
H1684 C1644 0.951 . S
H1685 C1645 0.950 . S
H1686 C1651 0.949 . S
H1687 C1652 0.950 . S
H1688 C1656 0.951 . S
H1689 C1657 0.950 . S
H1690 C1661 0.949 . S
H1691 C1662 0.950 . S
H1692 C1666 0.950 . S
H1693 C1668 0.950 . S
H1694 C1671 0.950 . S
H1695 C1673 0.950 . S
C1696 C1697 1.443 . S
C1696 N1700 1.376 . S
C1696 C1734 1.389 . S
C1697 C1696 1.443 . S
C1697 C1698 1.340 . S
C1697 H1737 0.951 . S
C1698 C1697 1.340 . S
C1698 C1699 1.439 . S
C1698 H1738 0.950 . S
C1699 C1698 1.439 . S
C1699 N1700 1.374 . S
C1699 C1733 1.395 . S
N1700 C1696 1.376 . S
N1700 C1699 1.374 . S
N1700 Co1701 2.008 . S
Co1701 N1700 2.008 . S
Co1701 N1702 1.995 . S
Co1701 N1707 2.008 . S
Co1701 N1712 1.995 . S
Co1701 N1717 2.282 . S
Co1701 N1723 2.282 . S
N1702 Co1701 1.995 . S
N1702 C1703 1.376 . S
N1702 C1706 1.383 . S
C1703 N1702 1.376 . S
C1703 C1704 1.446 . S
C1703 C1733 1.391 . S
C1704 C1703 1.446 . S
C1704 C1705 1.339 . S
C1704 H1739 0.949 . S
C1705 C1704 1.339 . S
C1705 C1706 1.439 . S
C1705 H1740 0.950 . S
C1706 N1702 1.383 . S
C1706 C1705 1.439 . S
C1706 C1735 1.392 . S
N1707 Co1701 2.008 . S
N1707 C1708 1.376 . S
N1707 C1711 1.374 . S
C1708 N1707 1.376 . S
C1708 C1709 1.443 . S
C1708 C1735 1.389 . S
C1709 C1708 1.443 . S
C1709 C1710 1.340 . S
C1709 H1741 0.951 . S
C1710 C1709 1.340 . S
C1710 C1711 1.439 . S
C1710 H1742 0.950 . S
C1711 N1707 1.374 . S
C1711 C1710 1.439 . S
C1711 C1736 1.395 . S
N1712 Co1701 1.995 . S
N1712 C1713 1.376 . S
N1712 C1716 1.383 . S
C1713 N1712 1.376 . S
C1713 C1714 1.446 . S
C1713 C1736 1.391 . S
C1714 C1713 1.446 . S
C1714 C1715 1.339 . S
C1714 H1743 0.949 . S
C1715 C1714 1.339 . S
C1715 C1716 1.439 . S
C1715 H1744 0.950 . S
C1716 N1712 1.383 . S
C1716 C1715 1.439 . S
C1716 C1734 1.392 . S
N1717 Co1701 2.282 . S
N1717 C1720 1.332 . S
N1717 C1722 1.332 . S
C1718 C1719 1.386 . S
C1718 C1721 1.388 . S
C1719 C1718 1.386 . S
C1719 C1720 1.382 . S
C1719 H1745 0.950 . S
C1720 N1717 1.332 . S
C1720 C1719 1.382 . S
C1720 H1731 0.952 . S
C1721 C1718 1.388 . S
C1721 C1722 1.382 . S
C1721 H1746 0.950 . S
C1722 N1717 1.332 . S
C1722 C1721 1.382 . S
C1722 H1732 0.948 . S
N1723 Co1701 2.282 . S
N1723 C1727 1.332 . S
N1723 C1728 1.332 . S
C1724 C1725 1.388 . S
C1724 C1728 1.382 . S
C1724 H1747 0.950 . S
C1725 C1724 1.388 . S
C1725 C1726 1.386 . S
C1726 C1725 1.386 . S
C1726 C1727 1.382 . S
C1726 H1748 0.950 . S
C1727 N1723 1.332 . S
C1727 C1726 1.382 . S
C1727 H1729 0.952 . S
C1728 N1723 1.332 . S
C1728 C1724 1.382 . S
C1728 H1730 0.948 . S
H1729 C1727 0.952 . S
H1730 C1728 0.948 . S
H1731 C1720 0.952 . S
H1732 C1722 0.948 . S
C1733 C1699 1.395 . S
C1733 C1703 1.391 . S
C1734 C1696 1.389 . S
C1734 C1716 1.392 . S
C1735 C1706 1.392 . S
C1735 C1708 1.389 . S
C1736 C1711 1.395 . S
C1736 C1713 1.391 . S
H1737 C1697 0.951 . S
H1738 C1698 0.950 . S
H1739 C1704 0.949 . S
H1740 C1705 0.950 . S
H1741 C1709 0.951 . S
H1742 C1710 0.950 . S
H1743 C1714 0.949 . S
H1744 C1715 0.950 . S
H1745 C1719 0.950 . S
H1746 C1721 0.950 . S
H1747 C1724 0.950 . S
H1748 C1726 0.950 . S
C1749 C1750 1.443 . S
C1749 N1753 1.376 . S
C1749 C1787 1.389 . S
C1750 C1749 1.443 . S
C1750 C1751 1.340 . S
C1750 H1790 0.951 . S
C1751 C1750 1.340 . S
C1751 C1752 1.439 . S
C1751 H1791 0.950 . S
C1752 C1751 1.439 . S
C1752 N1753 1.374 . S
C1752 C1786 1.395 . S
N1753 C1749 1.376 . S
N1753 C1752 1.374 . S
N1753 Co1754 2.008 . S
Co1754 N1753 2.008 . S
Co1754 N1755 1.995 . S
Co1754 N1760 2.008 . S
Co1754 N1765 1.995 . S
Co1754 N1770 2.282 . S
Co1754 N1776 2.282 . S
N1755 Co1754 1.995 . S
N1755 C1756 1.376 . S
N1755 C1759 1.383 . S
C1756 N1755 1.376 . S
C1756 C1757 1.446 . S
C1756 C1786 1.391 . S
C1757 C1756 1.446 . S
C1757 C1758 1.339 . S
C1757 H1792 0.949 . S
C1758 C1757 1.339 . S
C1758 C1759 1.439 . S
C1758 H1793 0.950 . S
C1759 N1755 1.383 . S
C1759 C1758 1.439 . S
C1759 C1788 1.392 . S
N1760 Co1754 2.008 . S
N1760 C1761 1.376 . S
N1760 C1764 1.374 . S
C1761 N1760 1.376 . S
C1761 C1762 1.443 . S
C1761 C1788 1.389 . S
C1762 C1761 1.443 . S
C1762 C1763 1.340 . S
C1762 H1794 0.951 . S
C1763 C1762 1.340 . S
C1763 C1764 1.439 . S
C1763 H1795 0.950 . S
C1764 N1760 1.374 . S
C1764 C1763 1.439 . S
C1764 C1789 1.395 . S
N1765 Co1754 1.995 . S
N1765 C1766 1.376 . S
N1765 C1769 1.383 . S
C1766 N1765 1.376 . S
C1766 C1767 1.446 . S
C1766 C1789 1.391 . S
C1767 C1766 1.446 . S
C1767 C1768 1.339 . S
C1767 H1796 0.949 . S
C1768 C1767 1.339 . S
C1768 C1769 1.439 . S
C1768 H1797 0.950 1_554 S
C1769 N1765 1.383 . S
C1769 C1768 1.439 . S
C1769 C1787 1.392 . S
N1770 Co1754 2.282 . S
N1770 C1773 1.332 . S
N1770 C1775 1.332 . S
C1771 C1772 1.386 . S
C1771 C1774 1.388 . S
C1772 C1771 1.386 . S
C1772 C1773 1.382 . S
C1772 H1798 0.950 . S
C1773 N1770 1.332 . S
C1773 C1772 1.382 . S
C1773 H1784 0.952 . S
C1774 C1771 1.388 . S
C1774 C1775 1.382 . S
C1774 H1799 0.950 . S
C1775 N1770 1.332 . S
C1775 C1774 1.382 . S
C1775 H1785 0.948 . S
N1776 Co1754 2.282 . S
N1776 C1780 1.332 . S
N1776 C1781 1.332 . S
C1777 C1778 1.388 . S
C1777 C1781 1.382 . S
C1777 H1800 0.950 . S
C1778 C1777 1.388 . S
C1778 C1779 1.386 . S
C1779 C1778 1.386 . S
C1779 C1780 1.382 . S
C1779 H1801 0.950 . S
C1780 N1776 1.332 . S
C1780 C1779 1.382 . S
C1780 H1782 0.952 . S
C1781 N1776 1.332 . S
C1781 C1777 1.382 . S
C1781 H1783 0.948 . S
H1782 C1780 0.952 . S
H1783 C1781 0.948 . S
H1784 C1773 0.952 . S
H1785 C1775 0.948 . S
C1786 C1752 1.395 . S
C1786 C1756 1.391 . S
C1787 C1749 1.389 . S
C1787 C1769 1.392 . S
C1788 C1759 1.392 . S
C1788 C1761 1.389 . S
C1789 C1764 1.395 . S
C1789 C1766 1.391 . S
H1790 C1750 0.951 . S
H1791 C1751 0.950 . S
H1792 C1757 0.949 . S
H1793 C1758 0.950 . S
H1794 C1762 0.951 . S
H1795 C1763 0.950 . S
H1796 C1767 0.949 . S
H1797 C1768 0.950 1_556 S
H1798 C1772 0.950 . S
H1799 C1774 0.950 . S
H1800 C1777 0.950 . S
H1801 C1779 0.950 . S
C1802 C1803 1.443 . S
C1802 N1806 1.376 . S
C1802 C1840 1.389 . S
C1803 C1802 1.443 . S
C1803 C1804 1.340 . S
C1803 H1843 0.951 . S
C1804 C1803 1.340 . S
C1804 C1805 1.439 . S
C1804 H1844 0.950 . S
C1805 C1804 1.439 . S
C1805 N1806 1.374 . S
C1805 C1839 1.395 . S
N1806 C1802 1.376 . S
N1806 C1805 1.374 . S
N1806 Co1807 2.008 . S
Co1807 N1806 2.008 . S
Co1807 N1808 1.995 . S
Co1807 N1813 2.008 . S
Co1807 N1818 1.995 . S
Co1807 N1823 2.282 . S
Co1807 N1829 2.282 . S
N1808 Co1807 1.995 . S
N1808 C1809 1.376 . S
N1808 C1812 1.383 . S
C1809 N1808 1.376 . S
C1809 C1810 1.446 . S
C1809 C1839 1.391 . S
C1810 C1809 1.446 . S
C1810 C1811 1.339 . S
C1810 H1845 0.949 . S
C1811 C1810 1.339 . S
C1811 C1812 1.439 . S
C1811 H1846 0.950 . S
C1812 N1808 1.383 . S
C1812 C1811 1.439 . S
C1812 C1841 1.392 . S
N1813 Co1807 2.008 . S
N1813 C1814 1.376 . S
N1813 C1817 1.374 . S
C1814 N1813 1.376 . S
C1814 C1815 1.443 . S
C1814 C1841 1.389 . S
C1815 C1814 1.443 . S
C1815 C1816 1.340 . S
C1815 H1847 0.951 . S
C1816 C1815 1.340 . S
C1816 C1817 1.439 . S
C1816 H1848 0.950 . S
C1817 N1813 1.374 . S
C1817 C1816 1.439 . S
C1817 C1842 1.395 . S
N1818 Co1807 1.995 . S
N1818 C1819 1.376 . S
N1818 C1822 1.383 . S
C1819 N1818 1.376 . S
C1819 C1820 1.446 . S
C1819 C1842 1.391 . S
C1820 C1819 1.446 . S
C1820 C1821 1.339 . S
C1820 H1849 0.949 . S
C1821 C1820 1.339 . S
C1821 C1822 1.439 . S
C1821 H1850 0.950 . S
C1822 N1818 1.383 . S
C1822 C1821 1.439 . S
C1822 C1840 1.392 . S
N1823 Co1807 2.282 . S
N1823 C1826 1.332 . S
N1823 C1828 1.332 . S
C1824 C1825 1.386 . S
C1824 C1827 1.388 . S
C1825 C1824 1.386 . S
C1825 C1826 1.382 . S
C1825 H1851 0.950 . S
C1826 N1823 1.332 . S
C1826 C1825 1.382 . S
C1826 H1837 0.952 . S
C1827 C1824 1.388 . S
C1827 C1828 1.382 . S
C1827 H1852 0.950 . S
C1828 N1823 1.332 . S
C1828 C1827 1.382 . S
C1828 H1838 0.948 . S
N1829 Co1807 2.282 . S
N1829 C1833 1.332 . S
N1829 C1834 1.332 . S
C1830 C1831 1.388 . S
C1830 C1834 1.382 . S
C1830 H1853 0.950 . S
C1831 C1830 1.388 . S
C1831 C1832 1.386 . S
C1832 C1831 1.386 . S
C1832 C1833 1.382 . S
C1832 H1854 0.950 . S
C1833 N1829 1.332 . S
C1833 C1832 1.382 . S
C1833 H1835 0.952 . S
C1834 N1829 1.332 . S
C1834 C1830 1.382 . S
C1834 H1836 0.948 . S
H1835 C1833 0.952 . S
H1836 C1834 0.948 . S
H1837 C1826 0.952 . S
H1838 C1828 0.948 . S
C1839 C1805 1.395 . S
C1839 C1809 1.391 . S
C1840 C1802 1.389 . S
C1840 C1822 1.392 . S
C1841 C1812 1.392 . S
C1841 C1814 1.389 . S
C1842 C1817 1.395 . S
C1842 C1819 1.391 . S
H1843 C1803 0.951 . S
H1844 C1804 0.950 . S
H1845 C1810 0.949 . S
H1846 C1811 0.950 . S
H1847 C1815 0.951 . S
H1848 C1816 0.950 . S
H1849 C1820 0.949 . S
H1850 C1821 0.950 . S
H1851 C1825 0.950 . S
H1852 C1827 0.950 . S
H1853 C1830 0.950 . S
H1854 C1832 0.950 . S
C1855 C1856 1.443 1_655 S
C1855 N1859 1.376 . S
C1855 C1893 1.389 . S
C1856 C1855 1.443 1_455 S
C1856 C1857 1.340 . S
C1856 H1896 0.951 . S
C1857 C1856 1.340 . S
C1857 C1858 1.439 1_455 S
C1857 H1897 0.950 . S
C1858 C1857 1.439 1_655 S
C1858 N1859 1.374 . S
C1858 C1892 1.395 . S
N1859 C1855 1.376 . S
N1859 C1858 1.374 . S
N1859 Co1860 2.008 . S
Co1860 N1859 2.008 . S
Co1860 N1861 1.995 . S
Co1860 N1866 2.008 . S
Co1860 N1871 1.995 . S
Co1860 N1876 2.282 . S
Co1860 N1882 2.282 . S
N1861 Co1860 1.995 . S
N1861 C1862 1.376 . S
N1861 C1865 1.383 . S
C1862 N1861 1.376 . S
C1862 C1863 1.446 . S
C1862 C1892 1.391 . S
C1863 C1862 1.446 . S
C1863 C1864 1.339 . S
C1863 H1898 0.949 . S
C1864 C1863 1.339 . S
C1864 C1865 1.439 . S
C1864 H1899 0.950 . S
C1865 N1861 1.383 . S
C1865 C1864 1.439 . S
C1865 C1894 1.392 . S
N1866 Co1860 2.008 . S
N1866 C1867 1.376 . S
N1866 C1870 1.374 . S
C1867 N1866 1.376 . S
C1867 C1868 1.443 . S
C1867 C1894 1.389 . S
C1868 C1867 1.443 . S
C1868 C1869 1.340 . S
C1868 H1900 0.951 . S
C1869 C1868 1.340 . S
C1869 C1870 1.439 . S
C1869 H1901 0.950 . S
C1870 N1866 1.374 . S
C1870 C1869 1.439 . S
C1870 C1895 1.395 . S
N1871 Co1860 1.995 . S
N1871 C1872 1.376 . S
N1871 C1875 1.383 . S
C1872 N1871 1.376 . S
C1872 C1873 1.446 . S
C1872 C1895 1.391 . S
C1873 C1872 1.446 . S
C1873 C1874 1.339 . S
C1873 H1902 0.949 . S
C1874 C1873 1.339 . S
C1874 C1875 1.439 . S
C1874 H1903 0.950 . S
C1875 N1871 1.383 . S
C1875 C1874 1.439 . S
C1875 C1893 1.392 . S
N1876 Co1860 2.282 . S
N1876 C1879 1.332 . S
N1876 C1881 1.332 . S
C1877 C1878 1.386 . S
C1877 C1880 1.388 . S
C1878 C1877 1.386 . S
C1878 C1879 1.382 . S
C1878 H1904 0.950 . S
C1879 N1876 1.332 . S
C1879 C1878 1.382 . S
C1879 H1890 0.952 . S
C1880 C1877 1.388 . S
C1880 C1881 1.382 . S
C1880 H1905 0.950 . S
C1881 N1876 1.332 . S
C1881 C1880 1.382 . S
C1881 H1891 0.948 . S
N1882 Co1860 2.282 . S
N1882 C1886 1.332 . S
N1882 C1887 1.332 . S
C1883 C1884 1.388 . S
C1883 C1887 1.382 . S
C1883 H1906 0.950 . S
C1884 C1883 1.388 . S
C1884 C1885 1.386 . S
C1885 C1884 1.386 . S
C1885 C1886 1.382 . S
C1885 H1907 0.950 . S
C1886 N1882 1.332 . S
C1886 C1885 1.382 . S
C1886 H1888 0.952 . S
C1887 N1882 1.332 . S
C1887 C1883 1.382 . S
C1887 H1889 0.948 . S
H1888 C1886 0.952 . S
H1889 C1887 0.948 . S
H1890 C1879 0.952 . S
H1891 C1881 0.948 . S
C1892 C1858 1.395 . S
C1892 C1862 1.391 . S
C1893 C1855 1.389 . S
C1893 C1875 1.392 . S
C1894 C1865 1.392 . S
C1894 C1867 1.389 . S
C1895 C1870 1.395 . S
C1895 C1872 1.391 . S
H1896 C1856 0.951 . S
H1897 C1857 0.950 . S
H1898 C1863 0.949 . S
H1899 C1864 0.950 . S
H1900 C1868 0.951 . S
H1901 C1869 0.950 . S
H1902 C1873 0.949 . S
H1903 C1874 0.950 . S
H1904 C1878 0.950 . S
H1905 C1880 0.950 . S
H1906 C1883 0.950 . S
H1907 C1885 0.950 . S
C1908 C1909 1.443 . S
C1908 N1912 1.376 . S
C1908 C1946 1.389 . S
C1909 C1908 1.443 . S
C1909 C1910 1.340 . S
C1909 H1949 0.951 . S
C1910 C1909 1.340 . S
C1910 C1911 1.439 . S
C1910 H1950 0.950 . S
C1911 C1910 1.439 . S
C1911 N1912 1.374 . S
C1911 C1945 1.395 . S
N1912 C1908 1.376 . S
N1912 C1911 1.374 . S
N1912 Co1913 2.008 . S
Co1913 N1912 2.008 . S
Co1913 N1914 1.995 . S
Co1913 N1919 2.008 . S
Co1913 N1924 1.995 . S
Co1913 N1929 2.282 . S
Co1913 N1935 2.282 . S
N1914 Co1913 1.995 . S
N1914 C1915 1.376 . S
N1914 C1918 1.383 . S
C1915 N1914 1.376 . S
C1915 C1916 1.446 . S
C1915 C1945 1.391 . S
C1916 C1915 1.446 . S
C1916 C1917 1.339 . S
C1916 H1951 0.949 . S
C1917 C1916 1.339 . S
C1917 C1918 1.439 . S
C1917 H1952 0.950 . S
C1918 N1914 1.383 . S
C1918 C1917 1.439 . S
C1918 C1947 1.392 . S
N1919 Co1913 2.008 . S
N1919 C1920 1.376 . S
N1919 C1923 1.374 . S
C1920 N1919 1.376 . S
C1920 C1921 1.443 . S
C1920 C1947 1.389 . S
C1921 C1920 1.443 . S
C1921 C1922 1.340 . S
C1921 H1953 0.951 . S
C1922 C1921 1.340 . S
C1922 C1923 1.439 . S
C1922 H1954 0.950 . S
C1923 N1919 1.374 . S
C1923 C1922 1.439 . S
C1923 C1948 1.395 . S
N1924 Co1913 1.995 . S
N1924 C1925 1.376 . S
N1924 C1928 1.383 . S
C1925 N1924 1.376 . S
C1925 C1926 1.446 . S
C1925 C1948 1.391 . S
C1926 C1925 1.446 . S
C1926 C1927 1.339 . S
C1926 H1955 0.949 . S
C1927 C1926 1.339 . S
C1927 C1928 1.439 . S
C1927 H1956 0.950 . S
C1928 N1924 1.383 . S
C1928 C1927 1.439 . S
C1928 C1946 1.392 . S
N1929 Co1913 2.282 . S
N1929 C1932 1.332 . S
N1929 C1934 1.332 . S
C1930 C1931 1.386 . S
C1930 C1933 1.388 . S
C1931 C1930 1.386 . S
C1931 C1932 1.382 . S
C1931 H1957 0.950 . S
C1932 N1929 1.332 . S
C1932 C1931 1.382 . S
C1932 H1943 0.952 . S
C1933 C1930 1.388 . S
C1933 C1934 1.382 . S
C1933 H1958 0.950 . S
C1934 N1929 1.332 . S
C1934 C1933 1.382 . S
C1934 H1944 0.948 . S
N1935 Co1913 2.282 . S
N1935 C1939 1.332 . S
N1935 C1940 1.332 . S
C1936 C1937 1.388 . S
C1936 C1940 1.382 . S
C1936 H1959 0.950 . S
C1937 C1936 1.388 . S
C1937 C1938 1.386 . S
C1938 C1937 1.386 . S
C1938 C1939 1.382 . S
C1938 H1960 0.950 . S
C1939 N1935 1.332 . S
C1939 C1938 1.382 . S
C1939 H1941 0.952 . S
C1940 N1935 1.332 . S
C1940 C1936 1.382 . S
C1940 H1942 0.948 . S
H1941 C1939 0.952 . S
H1942 C1940 0.948 . S
H1943 C1932 0.952 . S
H1944 C1934 0.948 . S
C1945 C1911 1.395 . S
C1945 C1915 1.391 . S
C1946 C1908 1.389 . S
C1946 C1928 1.392 . S
C1947 C1918 1.392 . S
C1947 C1920 1.389 . S
C1948 C1923 1.395 . S
C1948 C1925 1.391 . S
H1949 C1909 0.951 . S
H1950 C1910 0.950 . S
H1951 C1916 0.949 . S
H1952 C1917 0.950 . S
H1953 C1921 0.951 . S
H1954 C1922 0.950 . S
H1955 C1926 0.949 . S
H1956 C1927 0.950 . S
H1957 C1931 0.950 . S
H1958 C1933 0.950 . S
H1959 C1936 0.950 . S
H1960 C1938 0.950 . S
C1961 C1962 1.443 1_655 S
C1961 N1965 1.376 . S
C1961 C1999 1.389 . S
C1962 C1961 1.443 1_455 S
C1962 C1963 1.340 . S
C1962 H2002 0.951 . S
C1963 C1962 1.340 . S
C1963 C1964 1.439 1_455 S
C1963 H2003 0.950 . S
C1964 C1963 1.439 1_655 S
C1964 N1965 1.374 . S
C1964 C1998 1.395 . S
N1965 C1961 1.376 . S
N1965 C1964 1.374 . S
N1965 Co1966 2.008 . S
Co1966 N1965 2.008 . S
Co1966 N1967 1.995 . S
Co1966 N1972 2.008 . S
Co1966 N1977 1.995 . S
Co1966 N1982 2.282 . S
Co1966 N1988 2.282 . S
N1967 Co1966 1.995 . S
N1967 C1968 1.376 . S
N1967 C1971 1.383 . S
C1968 N1967 1.376 . S
C1968 C1969 1.446 . S
C1968 C1998 1.391 . S
C1969 C1968 1.446 . S
C1969 C1970 1.339 . S
C1969 H2004 0.949 . S
C1970 C1969 1.339 . S
C1970 C1971 1.439 . S
C1970 H2005 0.950 . S
C1971 N1967 1.383 . S
C1971 C1970 1.439 . S
C1971 C2000 1.392 . S
N1972 Co1966 2.008 . S
N1972 C1973 1.376 . S
N1972 C1976 1.374 . S
C1973 N1972 1.376 . S
C1973 C1974 1.443 . S
C1973 C2000 1.389 . S
C1974 C1973 1.443 . S
C1974 C1975 1.340 . S
C1974 H2006 0.951 . S
C1975 C1974 1.340 . S
C1975 C1976 1.439 . S
C1975 H2007 0.950 . S
C1976 N1972 1.374 . S
C1976 C1975 1.439 . S
C1976 C2001 1.395 . S
N1977 Co1966 1.995 . S
N1977 C1978 1.376 . S
N1977 C1981 1.383 . S
C1978 N1977 1.376 . S
C1978 C1979 1.446 . S
C1978 C2001 1.391 . S
C1979 C1978 1.446 . S
C1979 C1980 1.339 . S
C1979 H2008 0.949 . S
C1980 C1979 1.339 . S
C1980 C1981 1.439 . S
C1980 H2009 0.950 1_556 S
C1981 N1977 1.383 . S
C1981 C1980 1.439 . S
C1981 C1999 1.392 . S
N1982 Co1966 2.282 . S
N1982 C1985 1.332 . S
N1982 C1987 1.332 . S
C1983 C1984 1.386 . S
C1983 C1986 1.388 . S
C1984 C1983 1.386 . S
C1984 C1985 1.382 . S
C1984 H2010 0.950 . S
C1985 N1982 1.332 . S
C1985 C1984 1.382 . S
C1985 H1996 0.952 . S
C1986 C1983 1.388 . S
C1986 C1987 1.382 . S
C1986 H2011 0.950 . S
C1987 N1982 1.332 . S
C1987 C1986 1.382 . S
C1987 H1997 0.948 . S
N1988 Co1966 2.282 . S
N1988 C1992 1.332 . S
N1988 C1993 1.332 . S
C1989 C1990 1.388 . S
C1989 C1993 1.382 . S
C1989 H2012 0.950 . S
C1990 C1989 1.388 . S
C1990 C1991 1.386 . S
C1991 C1990 1.386 . S
C1991 C1992 1.382 . S
C1991 H2013 0.950 . S
C1992 N1988 1.332 . S
C1992 C1991 1.382 . S
C1992 H1994 0.952 . S
C1993 N1988 1.332 . S
C1993 C1989 1.382 . S
C1993 H1995 0.948 . S
H1994 C1992 0.952 . S
H1995 C1993 0.948 . S
H1996 C1985 0.952 . S
H1997 C1987 0.948 . S
C1998 C1964 1.395 . S
C1998 C1968 1.391 . S
C1999 C1961 1.389 . S
C1999 C1981 1.392 . S
C2000 C1971 1.392 . S
C2000 C1973 1.389 . S
C2001 C1976 1.395 . S
C2001 C1978 1.391 . S
H2002 C1962 0.951 . S
H2003 C1963 0.950 . S
H2004 C1969 0.949 . S
H2005 C1970 0.950 . S
H2006 C1974 0.951 . S
H2007 C1975 0.950 . S
H2008 C1979 0.949 . S
H2009 C1980 0.950 1_554 S
H2010 C1984 0.950 . S
H2011 C1986 0.950 . S
H2012 C1989 0.950 . S
H2013 C1991 0.950 . S
C2014 C2015 1.443 . S
C2014 N2018 1.376 . S
C2014 C2052 1.389 . S
C2015 C2014 1.443 . S
C2015 C2016 1.340 . S
C2015 H2055 0.951 . S
C2016 C2015 1.340 . S
C2016 C2017 1.439 . S
C2016 H2056 0.950 . S
C2017 C2016 1.439 . S
C2017 N2018 1.374 . S
C2017 C2051 1.395 . S
N2018 C2014 1.376 . S
N2018 C2017 1.374 . S
N2018 Co2019 2.008 . S
Co2019 N2018 2.008 . S
Co2019 N2020 1.995 . S
Co2019 N2025 2.008 . S
Co2019 N2030 1.995 . S
Co2019 N2035 2.282 . S
Co2019 N2041 2.282 . S
N2020 Co2019 1.995 . S
N2020 C2021 1.376 . S
N2020 C2024 1.383 . S
C2021 N2020 1.376 . S
C2021 C2022 1.446 . S
C2021 C2051 1.391 . S
C2022 C2021 1.446 . S
C2022 C2023 1.339 . S
C2022 H2057 0.949 . S
C2023 C2022 1.339 . S
C2023 C2024 1.439 . S
C2023 H2058 0.950 . S
C2024 N2020 1.383 . S
C2024 C2023 1.439 . S
C2024 C2053 1.392 . S
N2025 Co2019 2.008 . S
N2025 C2026 1.376 . S
N2025 C2029 1.374 . S
C2026 N2025 1.376 . S
C2026 C2027 1.443 . S
C2026 C2053 1.389 . S
C2027 C2026 1.443 . S
C2027 C2028 1.340 . S
C2027 H2059 0.951 . S
C2028 C2027 1.340 . S
C2028 C2029 1.439 . S
C2028 H2060 0.950 . S
C2029 N2025 1.374 . S
C2029 C2028 1.439 . S
C2029 C2054 1.395 . S
N2030 Co2019 1.995 . S
N2030 C2031 1.376 . S
N2030 C2034 1.383 . S
C2031 N2030 1.376 . S
C2031 C2032 1.446 . S
C2031 C2054 1.391 . S
C2032 C2031 1.446 . S
C2032 C2033 1.339 . S
C2032 H2061 0.949 . S
C2033 C2032 1.339 . S
C2033 C2034 1.439 . S
C2033 H2062 0.950 . S
C2034 N2030 1.383 . S
C2034 C2033 1.439 . S
C2034 C2052 1.392 . S
N2035 Co2019 2.282 . S
N2035 C2038 1.332 . S
N2035 C2040 1.332 . S
C2036 C2037 1.386 . S
C2036 C2039 1.388 . S
C2037 C2036 1.386 . S
C2037 C2038 1.382 . S
C2037 H2063 0.950 . S
C2038 N2035 1.332 . S
C2038 C2037 1.382 . S
C2038 H2049 0.952 . S
C2039 C2036 1.388 . S
C2039 C2040 1.382 . S
C2039 H2064 0.950 . S
C2040 N2035 1.332 . S
C2040 C2039 1.382 . S
C2040 H2050 0.948 . S
N2041 Co2019 2.282 . S
N2041 C2045 1.332 . S
N2041 C2046 1.332 . S
C2042 C2043 1.388 . S
C2042 C2046 1.382 . S
C2042 H2065 0.950 . S
C2043 C2042 1.388 . S
C2043 C2044 1.386 . S
C2044 C2043 1.386 . S
C2044 C2045 1.382 . S
C2044 H2066 0.950 . S
C2045 N2041 1.332 . S
C2045 C2044 1.382 . S
C2045 H2047 0.952 . S
C2046 N2041 1.332 . S
C2046 C2042 1.382 . S
C2046 H2048 0.948 . S
H2047 C2045 0.952 . S
H2048 C2046 0.948 . S
H2049 C2038 0.952 . S
H2050 C2040 0.948 . S
C2051 C2017 1.395 . S
C2051 C2021 1.391 . S
C2052 C2014 1.389 . S
C2052 C2034 1.392 . S
C2053 C2024 1.392 . S
C2053 C2026 1.389 . S
C2054 C2029 1.395 . S
C2054 C2031 1.391 . S
H2055 C2015 0.951 . S
H2056 C2016 0.950 . S
H2057 C2022 0.949 . S
H2058 C2023 0.950 . S
H2059 C2027 0.951 . S
H2060 C2028 0.950 . S
H2061 C2032 0.949 . S
H2062 C2033 0.950 . S
H2063 C2037 0.950 . S
H2064 C2039 0.950 . S
H2065 C2042 0.950 . S
H2066 C2044 0.950 . S
C2067 C2068 1.443 . S
C2067 N2071 1.376 . S
C2067 C2105 1.389 . S
C2068 C2067 1.443 . S
C2068 C2069 1.340 . S
C2068 H2108 0.951 . S
C2069 C2068 1.340 . S
C2069 C2070 1.439 . S
C2069 H2109 0.950 . S
C2070 C2069 1.439 . S
C2070 N2071 1.374 . S
C2070 C2104 1.395 . S
N2071 C2067 1.376 . S
N2071 C2070 1.374 . S
N2071 Co2072 2.008 . S
Co2072 N2071 2.008 . S
Co2072 N2073 1.995 . S
Co2072 N2078 2.008 . S
Co2072 N2083 1.995 . S
Co2072 N2088 2.282 . S
Co2072 N2094 2.282 . S
N2073 Co2072 1.995 . S
N2073 C2074 1.376 . S
N2073 C2077 1.383 . S
C2074 N2073 1.376 . S
C2074 C2075 1.446 . S
C2074 C2104 1.391 . S
C2075 C2074 1.446 . S
C2075 C2076 1.339 . S
C2075 H2110 0.949 . S
C2076 C2075 1.339 . S
C2076 C2077 1.439 . S
C2076 H2111 0.950 . S
C2077 N2073 1.383 . S
C2077 C2076 1.439 . S
C2077 C2106 1.392 . S
N2078 Co2072 2.008 . S
N2078 C2079 1.376 . S
N2078 C2082 1.374 . S
C2079 N2078 1.376 . S
C2079 C2080 1.443 . S
C2079 C2106 1.389 . S
C2080 C2079 1.443 . S
C2080 C2081 1.340 . S
C2080 H2112 0.951 . S
C2081 C2080 1.340 . S
C2081 C2082 1.439 . S
C2081 H2113 0.950 . S
C2082 N2078 1.374 . S
C2082 C2081 1.439 . S
C2082 C2107 1.395 . S
N2083 Co2072 1.995 . S
N2083 C2084 1.376 . S
N2083 C2087 1.383 . S
C2084 N2083 1.376 . S
C2084 C2085 1.446 . S
C2084 C2107 1.391 . S
C2085 C2084 1.446 . S
C2085 C2086 1.339 . S
C2085 H2114 0.949 . S
C2086 C2085 1.339 . S
C2086 C2087 1.439 . S
C2086 H2115 0.950 . S
C2087 N2083 1.383 . S
C2087 C2086 1.439 . S
C2087 C2105 1.392 . S
N2088 Co2072 2.282 . S
N2088 C2091 1.332 . S
N2088 C2093 1.332 . S
C2089 C2090 1.386 . S
C2089 C2092 1.388 . S
C2090 C2089 1.386 . S
C2090 C2091 1.382 . S
C2090 H2116 0.950 . S
C2091 N2088 1.332 . S
C2091 C2090 1.382 . S
C2091 H2102 0.952 . S
C2092 C2089 1.388 . S
C2092 C2093 1.382 . S
C2092 H2117 0.950 . S
C2093 N2088 1.332 . S
C2093 C2092 1.382 . S
C2093 H2103 0.948 . S
N2094 Co2072 2.282 . S
N2094 C2098 1.332 . S
N2094 C2099 1.332 . S
C2095 C2096 1.388 . S
C2095 C2099 1.382 . S
C2095 H2118 0.950 . S
C2096 C2095 1.388 . S
C2096 C2097 1.386 . S
C2097 C2096 1.386 . S
C2097 C2098 1.382 . S
C2097 H2119 0.950 . S
C2098 N2094 1.332 . S
C2098 C2097 1.382 . S
C2098 H2100 0.952 . S
C2099 N2094 1.332 . S
C2099 C2095 1.382 . S
C2099 H2101 0.948 . S
H2100 C2098 0.952 . S
H2101 C2099 0.948 . S
H2102 C2091 0.952 . S
H2103 C2093 0.948 . S
C2104 C2070 1.395 . S
C2104 C2074 1.391 . S
C2105 C2067 1.389 . S
C2105 C2087 1.392 . S
C2106 C2077 1.392 . S
C2106 C2079 1.389 . S
C2107 C2082 1.395 . S
C2107 C2084 1.391 . S
H2108 C2068 0.951 . S
H2109 C2069 0.950 . S
H2110 C2075 0.949 . S
H2111 C2076 0.950 . S
H2112 C2080 0.951 . S
H2113 C2081 0.950 . S
H2114 C2085 0.949 . S
H2115 C2086 0.950 . S
H2116 C2090 0.950 . S
H2117 C2092 0.950 . S
H2118 C2095 0.950 . S
H2119 C2097 0.950 . S
C2120 C2121 1.443 . S
C2120 N2124 1.376 . S
C2120 C2158 1.389 . S
C2121 C2120 1.443 . S
C2121 C2122 1.340 . S
C2121 H2161 0.951 . S
C2122 C2121 1.340 . S
C2122 C2123 1.439 . S
C2122 H2162 0.950 . S
C2123 C2122 1.439 . S
C2123 N2124 1.374 . S
C2123 C2157 1.395 . S
N2124 C2120 1.376 . S
N2124 C2123 1.374 . S
N2124 Co2125 2.008 . S
Co2125 N2124 2.008 . S
Co2125 N2126 1.995 . S
Co2125 N2131 2.008 . S
Co2125 N2136 1.995 . S
Co2125 N2141 2.282 . S
Co2125 N2147 2.282 . S
N2126 Co2125 1.995 . S
N2126 C2127 1.376 . S
N2126 C2130 1.383 . S
C2127 N2126 1.376 . S
C2127 C2128 1.446 . S
C2127 C2157 1.391 . S
C2128 C2127 1.446 . S
C2128 C2129 1.339 . S
C2128 H2163 0.949 . S
C2129 C2128 1.339 . S
C2129 C2130 1.439 . S
C2129 H2164 0.950 . S
C2130 N2126 1.383 . S
C2130 C2129 1.439 . S
C2130 C2159 1.392 . S
N2131 Co2125 2.008 . S
N2131 C2132 1.376 . S
N2131 C2135 1.374 . S
C2132 N2131 1.376 . S
C2132 C2133 1.443 . S
C2132 C2159 1.389 . S
C2133 C2132 1.443 . S
C2133 C2134 1.340 . S
C2133 H2165 0.951 . S
C2134 C2133 1.340 . S
C2134 C2135 1.439 . S
C2134 H2166 0.950 . S
C2135 N2131 1.374 . S
C2135 C2134 1.439 . S
C2135 C2160 1.395 . S
N2136 Co2125 1.995 . S
N2136 C2137 1.376 . S
N2136 C2140 1.383 . S
C2137 N2136 1.376 . S
C2137 C2138 1.446 . S
C2137 C2160 1.391 . S
C2138 C2137 1.446 . S
C2138 C2139 1.339 . S
C2138 H2167 0.949 . S
C2139 C2138 1.339 . S
C2139 C2140 1.439 . S
C2139 H2168 0.950 . S
C2140 N2136 1.383 . S
C2140 C2139 1.439 . S
C2140 C2158 1.392 . S
N2141 Co2125 2.282 . S
N2141 C2144 1.332 . S
N2141 C2146 1.332 . S
C2142 C2143 1.386 . S
C2142 C2145 1.388 . S
C2143 C2142 1.386 . S
C2143 C2144 1.382 . S
C2143 H2169 0.950 . S
C2144 N2141 1.332 . S
C2144 C2143 1.382 . S
C2144 H2155 0.952 . S
C2145 C2142 1.388 . S
C2145 C2146 1.382 . S
C2145 H2170 0.950 . S
C2146 N2141 1.332 . S
C2146 C2145 1.382 . S
C2146 H2156 0.948 . S
N2147 Co2125 2.282 . S
N2147 C2151 1.332 . S
N2147 C2152 1.332 . S
C2148 C2149 1.388 . S
C2148 C2152 1.382 . S
C2148 H2171 0.950 . S
C2149 C2148 1.388 . S
C2149 C2150 1.386 . S
C2150 C2149 1.386 . S
C2150 C2151 1.382 . S
C2150 H2172 0.950 . S
C2151 N2147 1.332 . S
C2151 C2150 1.382 . S
C2151 H2153 0.952 . S
C2152 N2147 1.332 . S
C2152 C2148 1.382 . S
C2152 H2154 0.948 . S
H2153 C2151 0.952 . S
H2154 C2152 0.948 . S
H2155 C2144 0.952 . S
H2156 C2146 0.948 . S
C2157 C2123 1.395 . S
C2157 C2127 1.391 . S
C2158 C2120 1.389 . S
C2158 C2140 1.392 . S
C2159 C2130 1.392 . S
C2159 C2132 1.389 . S
C2160 C2135 1.395 . S
C2160 C2137 1.391 . S
H2161 C2121 0.951 . S
H2162 C2122 0.950 . S
H2163 C2128 0.949 . S
H2164 C2129 0.950 . S
H2165 C2133 0.951 . S
H2166 C2134 0.950 . S
H2167 C2138 0.949 . S
H2168 C2139 0.950 . S
H2169 C2143 0.950 . S
H2170 C2145 0.950 . S
H2171 C2148 0.950 . S
H2172 C2150 0.950 . S
C2173 C2174 1.443 . S
C2173 N2177 1.376 . S
C2173 C2211 1.389 . S
C2174 C2173 1.443 . S
C2174 C2175 1.340 . S
C2174 H2214 0.951 . S
C2175 C2174 1.340 . S
C2175 C2176 1.439 . S
C2175 H2215 0.950 . S
C2176 C2175 1.439 . S
C2176 N2177 1.374 . S
C2176 C2210 1.395 . S
N2177 C2173 1.376 . S
N2177 C2176 1.374 . S
N2177 Co2178 2.008 . S
Co2178 N2177 2.008 . S
Co2178 N2179 1.995 . S
Co2178 N2184 2.008 . S
Co2178 N2189 1.995 . S
Co2178 N2194 2.282 . S
Co2178 N2200 2.282 . S
N2179 Co2178 1.995 . S
N2179 C2180 1.376 . S
N2179 C2183 1.383 . S
C2180 N2179 1.376 . S
C2180 C2181 1.446 . S
C2180 C2210 1.391 . S
C2181 C2180 1.446 . S
C2181 C2182 1.339 . S
C2181 H2216 0.949 . S
C2182 C2181 1.339 . S
C2182 C2183 1.439 . S
C2182 H2217 0.950 . S
C2183 N2179 1.383 . S
C2183 C2182 1.439 . S
C2183 C2212 1.392 . S
N2184 Co2178 2.008 . S
N2184 C2185 1.376 . S
N2184 C2188 1.374 . S
C2185 N2184 1.376 . S
C2185 C2186 1.443 . S
C2185 C2212 1.389 . S
C2186 C2185 1.443 . S
C2186 C2187 1.340 . S
C2186 H2218 0.951 . S
C2187 C2186 1.340 . S
C2187 C2188 1.439 . S
C2187 H2219 0.950 . S
C2188 N2184 1.374 . S
C2188 C2187 1.439 . S
C2188 C2213 1.395 . S
N2189 Co2178 1.995 . S
N2189 C2190 1.376 . S
N2189 C2193 1.383 . S
C2190 N2189 1.376 . S
C2190 C2191 1.446 . S
C2190 C2213 1.391 . S
C2191 C2190 1.446 . S
C2191 C2192 1.339 . S
C2191 H2220 0.949 . S
C2192 C2191 1.339 . S
C2192 C2193 1.439 . S
C2192 H2221 0.950 . S
C2193 N2189 1.383 . S
C2193 C2192 1.439 . S
C2193 C2211 1.392 . S
N2194 Co2178 2.282 . S
N2194 C2197 1.332 . S
N2194 C2199 1.332 . S
C2195 C2196 1.386 . S
C2195 C2198 1.388 . S
C2196 C2195 1.386 . S
C2196 C2197 1.382 . S
C2196 H2222 0.950 . S
C2197 N2194 1.332 . S
C2197 C2196 1.382 . S
C2197 H2208 0.952 . S
C2198 C2195 1.388 . S
C2198 C2199 1.382 . S
C2198 H2223 0.950 . S
C2199 N2194 1.332 . S
C2199 C2198 1.382 . S
C2199 H2209 0.948 . S
N2200 Co2178 2.282 . S
N2200 C2204 1.332 . S
N2200 C2205 1.332 . S
C2201 C2202 1.388 . S
C2201 C2205 1.382 . S
C2201 H2224 0.950 . S
C2202 C2201 1.388 . S
C2202 C2203 1.386 . S
C2203 C2202 1.386 . S
C2203 C2204 1.382 . S
C2203 H2225 0.950 . S
C2204 N2200 1.332 . S
C2204 C2203 1.382 . S
C2204 H2206 0.952 . S
C2205 N2200 1.332 . S
C2205 C2201 1.382 . S
C2205 H2207 0.948 . S
H2206 C2204 0.952 . S
H2207 C2205 0.948 . S
H2208 C2197 0.952 . S
H2209 C2199 0.948 . S
C2210 C2176 1.395 . S
C2210 C2180 1.391 . S
C2211 C2173 1.389 . S
C2211 C2193 1.392 . S
C2212 C2183 1.392 . S
C2212 C2185 1.389 . S
C2213 C2188 1.395 . S
C2213 C2190 1.391 . S
H2214 C2174 0.951 . S
H2215 C2175 0.950 . S
H2216 C2181 0.949 . S
H2217 C2182 0.950 . S
H2218 C2186 0.951 . S
H2219 C2187 0.950 . S
H2220 C2191 0.949 . S
H2221 C2192 0.950 . S
H2222 C2196 0.950 . S
H2223 C2198 0.950 . S
H2224 C2201 0.950 . S
H2225 C2203 0.950 . S
C2226 C2227 1.443 . S
C2226 N2230 1.376 1_565 S
C2226 C2264 1.389 . S
C2227 C2226 1.443 . S
C2227 C2228 1.340 1_565 S
C2227 H2267 0.951 . S
C2228 C2227 1.340 1_545 S
C2228 C2229 1.439 . S
C2228 H2268 0.950 . S
C2229 C2228 1.439 . S
C2229 N2230 1.374 . S
C2229 C2263 1.395 . S
N2230 C2226 1.376 1_545 S
N2230 C2229 1.374 . S
N2230 Co2231 2.008 . S
Co2231 N2230 2.008 . S
Co2231 N2232 1.995 . S
Co2231 N2237 2.008 . S
Co2231 N2242 2.027 . S
Co2231 N2247 2.282 1_545 S
Co2231 N2253 2.282 . S
N2232 Co2231 1.995 . S
N2232 C2233 1.376 . S
N2232 C2236 1.383 . S
C2233 N2232 1.376 . S
C2233 C2234 1.446 . S
C2233 C2263 1.391 . S
C2234 C2233 1.446 . S
C2234 C2235 1.339 . S
C2234 H2269 0.949 . S
C2235 C2234 1.339 . S
C2235 C2236 1.439 . S
C2235 H2270 0.950 . S
C2236 N2232 1.383 . S
C2236 C2235 1.439 . S
C2236 C2265 1.392 . S
N2237 Co2231 2.008 . S
N2237 C2238 1.376 . S
N2237 C2241 1.374 . S
C2238 N2237 1.376 . S
C2238 C2239 1.443 . S
C2238 C2265 1.389 . S
C2239 C2238 1.443 . S
C2239 C2240 1.340 . S
C2239 H2271 0.951 . S
C2240 C2239 1.340 . S
C2240 C2241 1.439 . S
C2240 H2272 0.950 . S
C2241 N2237 1.374 . S
C2241 C2240 1.439 . S
C2241 C2266 1.395 . S
N2242 Co2231 2.027 . S
N2242 C2243 1.371 1_545 S
N2242 C2246 1.353 1_545 S
C2243 N2242 1.371 1_565 S
C2243 C2244 1.446 . S
C2243 C2266 1.391 1_565 S
C2244 C2243 1.446 . S
C2244 C2245 1.339 . S
C2244 H2273 0.949 . S
C2245 C2244 1.339 . S
C2245 C2246 1.439 . S
C2245 H2274 0.950 . S
C2246 N2242 1.353 1_565 S
C2246 C2245 1.439 . S
C2246 C2264 1.392 . S
N2247 Co2231 2.282 1_565 S
N2247 C2250 1.332 . S
N2247 C2252 1.334 . S
C2248 C2249 1.386 . S
C2248 C2251 1.388 . S
C2249 C2248 1.386 . S
C2249 C2250 1.382 . S
C2249 H2275 0.950 . S
C2250 N2247 1.332 . S
C2250 C2249 1.382 . S
C2250 H2261 0.952 . S
C2251 C2248 1.388 . S
C2251 C2252 1.396 . S
C2251 H2276 0.950 . S
C2252 N2247 1.334 . S
C2252 C2251 1.396 . S
C2252 H2262 0.933 1_565 S
N2253 Co2231 2.282 . S
N2253 C2257 1.332 . S
N2253 C2258 1.332 . S
C2254 C2255 1.388 . S
C2254 C2258 1.382 . S
C2254 H2277 0.950 . S
C2255 C2254 1.388 . S
C2255 C2256 1.386 . S
C2256 C2255 1.386 . S
C2256 C2257 1.382 . S
C2256 H2278 0.950 . S
C2257 N2253 1.332 . S
C2257 C2256 1.382 . S
C2257 H2259 0.952 . S
C2258 N2253 1.332 . S
C2258 C2254 1.382 . S
C2258 H2260 0.948 . S
H2259 C2257 0.952 . S
H2260 C2258 0.948 . S
H2261 C2250 0.952 . S
H2262 C2252 0.933 1_545 S
C2263 C2229 1.395 . S
C2263 C2233 1.391 . S
C2264 C2226 1.389 . S
C2264 C2246 1.392 . S
C2265 C2236 1.392 . S
C2265 C2238 1.389 . S
C2266 C2241 1.395 . S
C2266 C2243 1.391 1_545 S
H2267 C2227 0.951 . S
H2268 C2228 0.950 . S
H2269 C2234 0.949 . S
H2270 C2235 0.950 . S
H2271 C2239 0.951 . S
H2272 C2240 0.950 . S
H2273 C2244 0.949 . S
H2274 C2245 0.950 . S
H2275 C2249 0.950 . S
H2276 C2251 0.950 . S
H2277 C2254 0.950 . S
H2278 C2256 0.950 . S
C2279 C2280 1.443 . S
C2279 N2283 1.376 . S
C2279 C2317 1.389 . S
C2280 C2279 1.443 . S
C2280 C2281 1.340 . S
C2280 H2320 0.951 . S
C2281 C2280 1.340 . S
C2281 C2282 1.439 . S
C2281 H2321 0.950 . S
C2282 C2281 1.439 . S
C2282 N2283 1.374 . S
C2282 C2316 1.395 . S
N2283 C2279 1.376 . S
N2283 C2282 1.374 . S
N2283 Co2284 2.008 . S
Co2284 N2283 2.008 . S
Co2284 N2285 1.995 . S
Co2284 N2290 2.008 . S
Co2284 N2295 1.995 . S
Co2284 N2300 2.282 . S
Co2284 N2306 2.282 . S
N2285 Co2284 1.995 . S
N2285 C2286 1.376 . S
N2285 C2289 1.383 . S
C2286 N2285 1.376 . S
C2286 C2287 1.446 . S
C2286 C2316 1.391 . S
C2287 C2286 1.446 . S
C2287 C2288 1.339 . S
C2287 H2322 0.949 . S
C2288 C2287 1.339 . S
C2288 C2289 1.439 . S
C2288 H2323 0.950 . S
C2289 N2285 1.383 . S
C2289 C2288 1.439 . S
C2289 C2318 1.392 . S
N2290 Co2284 2.008 . S
N2290 C2291 1.376 . S
N2290 C2294 1.374 . S
C2291 N2290 1.376 . S
C2291 C2292 1.443 . S
C2291 C2318 1.389 . S
C2292 C2291 1.443 . S
C2292 C2293 1.340 . S
C2292 H2324 0.951 . S
C2293 C2292 1.340 . S
C2293 C2294 1.439 . S
C2293 H2325 0.950 . S
C2294 N2290 1.374 . S
C2294 C2293 1.439 . S
C2294 C2319 1.395 . S
N2295 Co2284 1.995 . S
N2295 C2296 1.376 . S
N2295 C2299 1.383 . S
C2296 N2295 1.376 . S
C2296 C2297 1.446 . S
C2296 C2319 1.391 . S
C2297 C2296 1.446 . S
C2297 C2298 1.339 . S
C2297 H2326 0.949 . S
C2298 C2297 1.339 . S
C2298 C2299 1.439 . S
C2298 H2327 0.950 . S
C2299 N2295 1.383 . S
C2299 C2298 1.439 . S
C2299 C2317 1.392 . S
N2300 Co2284 2.282 . S
N2300 C2303 1.332 . S
N2300 C2305 1.332 . S
C2301 C2302 1.386 . S
C2301 C2304 1.388 . S
C2302 C2301 1.386 . S
C2302 C2303 1.382 . S
C2302 H2328 0.950 . S
C2303 N2300 1.332 . S
C2303 C2302 1.382 . S
C2303 H2314 0.952 . S
C2304 C2301 1.388 . S
C2304 C2305 1.382 . S
C2304 H2329 0.950 . S
C2305 N2300 1.332 . S
C2305 C2304 1.382 . S
C2305 H2315 0.948 . S
N2306 Co2284 2.282 . S
N2306 C2310 1.332 . S
N2306 C2311 1.332 . S
C2307 C2308 1.388 . S
C2307 C2311 1.382 . S
C2307 H2330 0.950 . S
C2308 C2307 1.388 . S
C2308 C2309 1.386 . S
C2309 C2308 1.386 . S
C2309 C2310 1.382 . S
C2309 H2331 0.950 . S
C2310 N2306 1.332 . S
C2310 C2309 1.382 . S
C2310 H2312 0.952 . S
C2311 N2306 1.332 . S
C2311 C2307 1.382 . S
C2311 H2313 0.948 . S
H2312 C2310 0.952 . S
H2313 C2311 0.948 . S
H2314 C2303 0.952 . S
H2315 C2305 0.948 . S
C2316 C2282 1.395 . S
C2316 C2286 1.391 . S
C2317 C2279 1.389 . S
C2317 C2299 1.392 . S
C2318 C2289 1.392 . S
C2318 C2291 1.389 . S
C2319 C2294 1.395 . S
C2319 C2296 1.391 . S
H2320 C2280 0.951 . S
H2321 C2281 0.950 . S
H2322 C2287 0.949 . S
H2323 C2288 0.950 . S
H2324 C2292 0.951 . S
H2325 C2293 0.950 . S
H2326 C2297 0.949 . S
H2327 C2298 0.950 . S
H2328 C2302 0.950 . S
H2329 C2304 0.950 . S
H2330 C2307 0.950 . S
H2331 C2309 0.950 . S
C2332 C2333 1.443 . S
C2332 N2336 1.376 . S
C2332 C2370 1.389 . S
C2333 C2332 1.443 . S
C2333 C2334 1.340 . S
C2333 H2373 0.951 . S
C2334 C2333 1.340 . S
C2334 C2335 1.439 . S
C2334 H2374 0.950 . S
C2335 C2334 1.439 . S
C2335 N2336 1.374 . S
C2335 C2369 1.395 . S
N2336 C2332 1.376 . S
N2336 C2335 1.374 . S
N2336 Co2337 2.008 . S
Co2337 N2336 2.008 . S
Co2337 N2338 1.995 . S
Co2337 N2343 2.008 . S
Co2337 N2348 1.995 . S
Co2337 N2353 2.282 . S
Co2337 N2359 2.282 . S
N2338 Co2337 1.995 . S
N2338 C2339 1.376 . S
N2338 C2342 1.383 . S
C2339 N2338 1.376 . S
C2339 C2340 1.446 . S
C2339 C2369 1.391 . S
C2340 C2339 1.446 . S
C2340 C2341 1.339 . S
C2340 H2375 0.949 . S
C2341 C2340 1.339 . S
C2341 C2342 1.439 . S
C2341 H2376 0.950 . S
C2342 N2338 1.383 . S
C2342 C2341 1.439 . S
C2342 C2371 1.392 . S
N2343 Co2337 2.008 . S
N2343 C2344 1.376 . S
N2343 C2347 1.374 . S
C2344 N2343 1.376 . S
C2344 C2345 1.443 . S
C2344 C2371 1.389 . S
C2345 C2344 1.443 . S
C2345 C2346 1.340 . S
C2345 H2377 0.951 . S
C2346 C2345 1.340 . S
C2346 C2347 1.439 . S
C2346 H2378 0.950 . S
C2347 N2343 1.374 . S
C2347 C2346 1.439 . S
C2347 C2372 1.395 . S
N2348 Co2337 1.995 . S
N2348 C2349 1.376 . S
N2348 C2352 1.383 . S
C2349 N2348 1.376 . S
C2349 C2350 1.446 . S
C2349 C2372 1.391 . S
C2350 C2349 1.446 . S
C2350 C2351 1.339 . S
C2350 H2379 0.949 . S
C2351 C2350 1.339 . S
C2351 C2352 1.439 . S
C2351 H2380 0.950 . S
C2352 N2348 1.383 . S
C2352 C2351 1.439 . S
C2352 C2370 1.392 . S
N2353 Co2337 2.282 . S
N2353 C2356 1.332 . S
N2353 C2358 1.332 . S
C2354 C2355 1.386 . S
C2354 C2357 1.388 . S
C2355 C2354 1.386 . S
C2355 C2356 1.382 . S
C2355 H2381 0.950 . S
C2356 N2353 1.332 . S
C2356 C2355 1.382 . S
C2356 H2367 0.952 . S
C2357 C2354 1.388 . S
C2357 C2358 1.382 . S
C2357 H2382 0.950 . S
C2358 N2353 1.332 . S
C2358 C2357 1.382 . S
C2358 H2368 0.948 . S
N2359 Co2337 2.282 . S
N2359 C2363 1.332 . S
N2359 C2364 1.332 . S
C2360 C2361 1.388 . S
C2360 C2364 1.382 . S
C2360 H2383 0.950 . S
C2361 C2360 1.388 . S
C2361 C2362 1.386 . S
C2362 C2361 1.386 . S
C2362 C2363 1.382 . S
C2362 H2384 0.950 . S
C2363 N2359 1.332 . S
C2363 C2362 1.382 . S
C2363 H2365 0.952 . S
C2364 N2359 1.332 . S
C2364 C2360 1.382 . S
C2364 H2366 0.948 . S
H2365 C2363 0.952 . S
H2366 C2364 0.948 . S
H2367 C2356 0.952 . S
H2368 C2358 0.948 . S
C2369 C2335 1.395 . S
C2369 C2339 1.391 . S
C2370 C2332 1.389 . S
C2370 C2352 1.392 . S
C2371 C2342 1.392 . S
C2371 C2344 1.389 . S
C2372 C2347 1.395 . S
C2372 C2349 1.391 . S
H2373 C2333 0.951 . S
H2374 C2334 0.950 . S
H2375 C2340 0.949 . S
H2376 C2341 0.950 . S
H2377 C2345 0.951 . S
H2378 C2346 0.950 . S
H2379 C2350 0.949 . S
H2380 C2351 0.950 . S
H2381 C2355 0.950 . S
H2382 C2357 0.950 . S
H2383 C2360 0.950 . S
H2384 C2362 0.950 . S
C2385 C2386 1.443 . S
C2385 N2389 1.376 . S
C2385 C2423 1.389 . S
C2386 C2385 1.443 . S
C2386 C2387 1.340 . S
C2386 H2426 0.951 . S
C2387 C2386 1.340 . S
C2387 C2388 1.439 . S
C2387 H2427 0.950 . S
C2388 C2387 1.439 . S
C2388 N2389 1.374 . S
C2388 C2422 1.395 . S
N2389 C2385 1.376 . S
N2389 C2388 1.374 . S
N2389 Co2390 2.008 . S
Co2390 N2389 2.008 . S
Co2390 N2391 1.995 . S
Co2390 N2396 2.008 . S
Co2390 N2401 1.995 . S
Co2390 N2406 2.282 . S
Co2390 N2412 2.282 . S
N2391 Co2390 1.995 . S
N2391 C2392 1.376 . S
N2391 C2395 1.383 . S
C2392 N2391 1.376 . S
C2392 C2393 1.446 . S
C2392 C2422 1.391 . S
C2393 C2392 1.446 . S
C2393 C2394 1.339 . S
C2393 H2428 0.949 . S
C2394 C2393 1.339 . S
C2394 C2395 1.439 . S
C2394 H2429 0.950 . S
C2395 N2391 1.383 . S
C2395 C2394 1.439 . S
C2395 C2424 1.392 . S
N2396 Co2390 2.008 . S
N2396 C2397 1.376 . S
N2396 C2400 1.374 . S
C2397 N2396 1.376 . S
C2397 C2398 1.443 . S
C2397 C2424 1.389 . S
C2398 C2397 1.443 . S
C2398 C2399 1.340 . S
C2398 H2430 0.951 . S
C2399 C2398 1.340 . S
C2399 C2400 1.439 . S
C2399 H2431 0.950 . S
C2400 N2396 1.374 . S
C2400 C2399 1.439 . S
C2400 C2425 1.395 . S
N2401 Co2390 1.995 . S
N2401 C2402 1.376 . S
N2401 C2405 1.383 . S
C2402 N2401 1.376 . S
C2402 C2403 1.446 . S
C2402 C2425 1.391 . S
C2403 C2402 1.446 . S
C2403 C2404 1.339 . S
C2403 H2432 0.949 . S
C2404 C2403 1.339 . S
C2404 C2405 1.439 . S
C2404 H2433 0.950 . S
C2405 N2401 1.383 . S
C2405 C2404 1.439 . S
C2405 C2423 1.392 . S
N2406 Co2390 2.282 . S
N2406 C2409 1.332 . S
N2406 C2411 1.332 . S
C2407 C2408 1.386 . S
C2407 C2410 1.388 . S
C2408 C2407 1.386 . S
C2408 C2409 1.382 . S
C2408 H2434 0.950 . S
C2409 N2406 1.332 . S
C2409 C2408 1.382 . S
C2409 H2420 0.952 . S
C2410 C2407 1.388 . S
C2410 C2411 1.382 . S
C2410 H2435 0.950 . S
C2411 N2406 1.332 . S
C2411 C2410 1.382 . S
C2411 H2421 0.948 . S
N2412 Co2390 2.282 . S
N2412 C2416 1.332 . S
N2412 C2417 1.332 . S
C2413 C2414 1.388 . S
C2413 C2417 1.382 . S
C2413 H2436 0.950 . S
C2414 C2413 1.388 . S
C2414 C2415 1.386 . S
C2415 C2414 1.386 . S
C2415 C2416 1.382 . S
C2415 H2437 0.950 . S
C2416 N2412 1.332 . S
C2416 C2415 1.382 . S
C2416 H2418 0.952 . S
C2417 N2412 1.332 . S
C2417 C2413 1.382 . S
C2417 H2419 0.948 . S
H2418 C2416 0.952 . S
H2419 C2417 0.948 . S
H2420 C2409 0.952 . S
H2421 C2411 0.948 . S
C2422 C2388 1.395 . S
C2422 C2392 1.391 . S
C2423 C2385 1.389 . S
C2423 C2405 1.392 . S
C2424 C2395 1.392 . S
C2424 C2397 1.389 . S
C2425 C2400 1.395 . S
C2425 C2402 1.391 . S
H2426 C2386 0.951 . S
H2427 C2387 0.950 . S
H2428 C2393 0.949 . S
H2429 C2394 0.950 . S
H2430 C2398 0.951 . S
H2431 C2399 0.950 . S
H2432 C2403 0.949 . S
H2433 C2404 0.950 . S
H2434 C2408 0.950 . S
H2435 C2410 0.950 . S
H2436 C2413 0.950 . S
H2437 C2415 0.950 . S
C2438 C2439 1.443 1_556 S
C2438 N2442 1.376 1_545 S
C2438 C2476 1.389 . S
C2439 C2438 1.443 1_554 S
C2439 C2440 1.340 1_545 S
C2439 H2479 0.951 . S
C2440 C2439 1.340 1_565 S
C2440 C2441 1.439 1_554 S
C2440 H2480 0.950 . S
C2441 C2440 1.439 1_556 S
C2441 N2442 1.374 . S
C2441 C2475 1.395 . S
N2442 C2438 1.376 1_565 S
N2442 C2441 1.374 . S
N2442 Co2443 2.008 . S
Co2443 N2442 2.008 . S
Co2443 N2444 1.995 . S
Co2443 N2449 2.008 . S
Co2443 N2454 2.027 . S
Co2443 N2459 2.282 1_565 S
Co2443 N2465 2.282 . S
N2444 Co2443 1.995 . S
N2444 C2445 1.376 . S
N2444 C2448 1.383 . S
C2445 N2444 1.376 . S
C2445 C2446 1.446 . S
C2445 C2475 1.391 . S
C2446 C2445 1.446 . S
C2446 C2447 1.339 . S
C2446 H2481 0.949 . S
C2447 C2446 1.339 . S
C2447 C2448 1.439 . S
C2447 H2482 0.950 . S
C2448 N2444 1.383 . S
C2448 C2447 1.439 . S
C2448 C2477 1.392 . S
N2449 Co2443 2.008 . S
N2449 C2450 1.376 . S
N2449 C2453 1.374 . S
C2450 N2449 1.376 . S
C2450 C2451 1.443 . S
C2450 C2477 1.389 . S
C2451 C2450 1.443 . S
C2451 C2452 1.340 . S
C2451 H2483 0.951 . S
C2452 C2451 1.340 . S
C2452 C2453 1.439 . S
C2452 H2484 0.950 . S
C2453 N2449 1.374 . S
C2453 C2452 1.439 . S
C2453 C2478 1.395 . S
N2454 Co2443 2.027 . S
N2454 C2455 1.371 1_565 S
N2454 C2458 1.353 1_565 S
C2455 N2454 1.371 1_545 S
C2455 C2456 1.446 . S
C2455 C2478 1.391 1_545 S
C2456 C2455 1.446 . S
C2456 C2457 1.339 . S
C2456 H2485 0.949 . S
C2457 C2456 1.339 . S
C2457 C2458 1.439 . S
C2457 H2486 0.950 . S
C2458 N2454 1.353 1_545 S
C2458 C2457 1.439 . S
C2458 C2476 1.392 . S
N2459 Co2443 2.282 1_545 S
N2459 C2462 1.332 . S
N2459 C2464 1.334 . S
C2460 C2461 1.386 . S
C2460 C2463 1.388 . S
C2461 C2460 1.386 . S
C2461 C2462 1.382 . S
C2461 H2487 0.950 . S
C2462 N2459 1.332 . S
C2462 C2461 1.382 . S
C2462 H2473 0.952 . S
C2463 C2460 1.388 . S
C2463 C2464 1.396 . S
C2463 H2488 0.950 . S
C2464 N2459 1.334 . S
C2464 C2463 1.396 . S
C2464 H2474 0.933 1_545 S
N2465 Co2443 2.282 . S
N2465 C2469 1.332 . S
N2465 C2470 1.332 . S
C2466 C2467 1.388 . S
C2466 C2470 1.382 . S
C2466 H2489 0.950 . S
C2467 C2466 1.388 . S
C2467 C2468 1.383 1_556 S
C2468 C2467 1.383 1_554 S
C2468 C2469 1.373 1_554 S
C2468 H2490 0.961 . S
C2469 N2465 1.332 . S
C2469 C2468 1.373 1_556 S
C2469 H2471 0.952 . S
C2470 N2465 1.332 . S
C2470 C2466 1.382 . S
C2470 H2472 0.948 . S
H2471 C2469 0.952 . S
H2472 C2470 0.948 . S
H2473 C2462 0.952 . S
H2474 C2464 0.933 1_565 S
C2475 C2441 1.395 . S
C2475 C2445 1.391 . S
C2476 C2438 1.389 . S
C2476 C2458 1.392 . S
C2477 C2448 1.392 . S
C2477 C2450 1.389 . S
C2478 C2453 1.395 . S
C2478 C2455 1.391 1_565 S
H2479 C2439 0.951 . S
H2480 C2440 0.950 . S
H2481 C2446 0.949 . S
H2482 C2447 0.950 . S
H2483 C2451 0.951 . S
H2484 C2452 0.950 . S
H2485 C2456 0.949 . S
H2486 C2457 0.950 . S
H2487 C2461 0.950 . S
H2488 C2463 0.950 . S
H2489 C2466 0.950 . S
H2490 C2468 0.961 . S
C2491 C2492 1.443 . S
C2491 N2495 1.376 1_565 S
C2491 C2529 1.389 . S
C2492 C2491 1.443 . S
C2492 C2493 1.340 1_565 S
C2492 H2532 0.951 . S
C2493 C2492 1.340 1_545 S
C2493 C2494 1.439 . S
C2493 H2533 0.950 . S
C2494 C2493 1.439 . S
C2494 N2495 1.374 . S
C2494 C2528 1.395 . S
N2495 C2491 1.376 1_545 S
N2495 C2494 1.374 . S
N2495 Co2496 2.008 . S
Co2496 N2495 2.008 . S
Co2496 N2497 1.995 . S
Co2496 N2502 2.008 . S
Co2496 N2507 2.027 . S
Co2496 N2512 2.282 1_545 S
Co2496 N2518 2.282 . S
N2497 Co2496 1.995 . S
N2497 C2498 1.376 . S
N2497 C2501 1.383 . S
C2498 N2497 1.376 . S
C2498 C2499 1.446 . S
C2498 C2528 1.391 . S
C2499 C2498 1.446 . S
C2499 C2500 1.339 . S
C2499 H2534 0.949 . S
C2500 C2499 1.339 . S
C2500 C2501 1.439 . S
C2500 H2535 0.950 . S
C2501 N2497 1.383 . S
C2501 C2500 1.439 . S
C2501 C2530 1.392 . S
N2502 Co2496 2.008 . S
N2502 C2503 1.376 . S
N2502 C2506 1.374 . S
C2503 N2502 1.376 . S
C2503 C2504 1.443 . S
C2503 C2530 1.389 . S
C2504 C2503 1.443 . S
C2504 C2505 1.340 . S
C2504 H2536 0.951 . S
C2505 C2504 1.340 . S
C2505 C2506 1.439 . S
C2505 H2537 0.950 . S
C2506 N2502 1.374 . S
C2506 C2505 1.439 . S
C2506 C2531 1.395 . S
N2507 Co2496 2.027 . S
N2507 C2508 1.371 1_545 S
N2507 C2511 1.353 1_545 S
C2508 N2507 1.371 1_565 S
C2508 C2509 1.446 . S
C2508 C2531 1.391 1_565 S
C2509 C2508 1.446 . S
C2509 C2510 1.339 . S
C2509 H2538 0.949 . S
C2510 C2509 1.339 . S
C2510 C2511 1.439 . S
C2510 H2539 0.950 . S
C2511 N2507 1.353 1_565 S
C2511 C2510 1.439 . S
C2511 C2529 1.392 . S
N2512 Co2496 2.282 1_565 S
N2512 C2515 1.332 . S
N2512 C2517 1.334 . S
C2513 C2514 1.386 . S
C2513 C2516 1.388 . S
C2514 C2513 1.386 . S
C2514 C2515 1.382 . S
C2514 H2540 0.950 . S
C2515 N2512 1.332 . S
C2515 C2514 1.382 . S
C2515 H2526 0.952 . S
C2516 C2513 1.388 . S
C2516 C2517 1.396 . S
C2516 H2541 0.950 . S
C2517 N2512 1.334 . S
C2517 C2516 1.396 . S
C2517 H2527 0.933 1_565 S
N2518 Co2496 2.282 . S
N2518 C2522 1.332 . S
N2518 C2523 1.332 . S
C2519 C2520 1.388 . S
C2519 C2523 1.382 . S
C2519 H2542 0.950 . S
C2520 C2519 1.388 . S
C2520 C2521 1.386 . S
C2521 C2520 1.386 . S
C2521 C2522 1.382 . S
C2521 H2543 0.950 . S
C2522 N2518 1.332 . S
C2522 C2521 1.382 . S
C2522 H2524 0.952 . S
C2523 N2518 1.332 . S
C2523 C2519 1.382 . S
C2523 H2525 0.948 . S
H2524 C2522 0.952 . S
H2525 C2523 0.948 . S
H2526 C2515 0.952 . S
H2527 C2517 0.933 1_545 S
C2528 C2494 1.395 . S
C2528 C2498 1.391 . S
C2529 C2491 1.389 . S
C2529 C2511 1.392 . S
C2530 C2501 1.392 . S
C2530 C2503 1.389 . S
C2531 C2506 1.395 . S
C2531 C2508 1.391 1_545 S
H2532 C2492 0.951 . S
H2533 C2493 0.950 . S
H2534 C2499 0.949 . S
H2535 C2500 0.950 . S
H2536 C2504 0.951 . S
H2537 C2505 0.950 . S
H2538 C2509 0.949 . S
H2539 C2510 0.950 . S
H2540 C2514 0.950 . S
H2541 C2516 0.950 . S
H2542 C2519 0.950 . S
H2543 C2521 0.950 . S
C2544 C2545 1.363 . S
C2544 C2550 1.379 . S
C2544 N2552 1.356 . S
C2545 C2544 1.363 . S
C2545 C2551 1.363 . S
C2546 C2547 1.363 . S
C2546 C2551 1.379 . S
C2546 N2553 1.356 . S
C2547 C2546 1.363 . S
C2547 C2550 1.363 . S
N2548 C2550 1.356 . S
N2548 H2560 0.984 . S
N2548 H2561 0.985 . S
N2549 C2551 1.356 . S
N2549 H2554 0.984 . S
N2549 H2555 0.985 . S
C2550 C2544 1.379 . S
C2550 C2547 1.363 . S
C2550 N2548 1.356 . S
C2551 C2545 1.363 . S
C2551 C2546 1.379 . S
C2551 N2549 1.356 . S
N2552 C2544 1.356 . S
N2552 H2558 0.984 . S
N2552 H2559 0.984 . S
N2553 C2546 1.356 . S
N2553 H2556 0.984 . S
N2553 H2557 0.985 . S
H2554 N2549 0.984 . S
H2555 N2549 0.985 . S
H2556 N2553 0.984 . S
H2557 N2553 0.985 . S
H2558 N2552 0.984 . S
H2559 N2552 0.984 . S
H2560 N2548 0.984 . S
H2561 N2548 0.985 . S
C2562 C2563 1.363 . S
C2562 C2568 1.379 . S
C2562 N2570 1.356 . S
C2563 C2562 1.363 . S
C2563 C2569 1.363 . S
C2564 C2565 1.363 . S
C2564 C2569 1.379 . S
C2564 N2571 1.356 . S
C2565 C2564 1.363 . S
C2565 C2568 1.363 . S
N2566 C2568 1.356 . S
N2566 H2578 0.984 . S
N2566 H2579 0.985 . S
N2567 C2569 1.356 . S
N2567 H2572 0.984 . S
N2567 H2573 0.985 . S
C2568 C2562 1.379 . S
C2568 C2565 1.363 . S
C2568 N2566 1.356 . S
C2569 C2563 1.363 . S
C2569 C2564 1.379 . S
C2569 N2567 1.356 . S
N2570 C2562 1.356 . S
N2570 H2576 0.984 . S
N2570 H2577 0.984 . S
N2571 C2564 1.356 . S
N2571 H2574 0.984 . S
N2571 H2575 0.985 . S
H2572 N2567 0.984 . S
H2573 N2567 0.985 . S
H2574 N2571 0.984 . S
H2575 N2571 0.985 . S
H2576 N2570 0.984 . S
H2577 N2570 0.984 . S
H2578 N2566 0.984 . S
H2579 N2566 0.985 . S
C2580 C2581 1.363 . S
C2580 C2586 1.379 1_554 S
C2580 N2588 1.356 . S
C2581 C2580 1.363 . S
C2581 C2587 1.363 . S
C2582 C2583 1.363 . S
C2582 C2587 1.379 1_556 S
C2582 N2589 1.356 . S
C2583 C2582 1.363 . S
C2583 C2586 1.363 . S
N2584 C2586 1.356 . S
N2584 H2596 0.984 . S
N2584 H2597 0.985 . S
N2585 C2587 1.356 . S
N2585 H2590 0.984 . S
N2585 H2591 0.985 . S
C2586 C2580 1.379 1_556 S
C2586 C2583 1.363 . S
C2586 N2584 1.356 . S
C2587 C2581 1.363 . S
C2587 C2582 1.379 1_554 S
C2587 N2585 1.356 . S
N2588 C2580 1.356 . S
N2588 H2594 0.984 . S
N2588 H2595 0.984 . S
N2589 C2582 1.356 . S
N2589 H2592 0.984 . S
N2589 H2593 0.985 . S
H2590 N2585 0.984 . S
H2591 N2585 0.985 . S
H2592 N2589 0.984 . S
H2593 N2589 0.985 . S
H2594 N2588 0.984 . S
H2595 N2588 0.984 . S
H2596 N2584 0.984 . S
H2597 N2584 0.985 . S
C2598 C2599 1.363 . S
C2598 C2604 1.379 . S
C2598 N2606 1.356 . S
C2599 C2598 1.363 . S
C2599 C2605 1.363 . S
C2600 C2601 1.363 . S
C2600 C2605 1.379 . S
C2600 N2607 1.356 . S
C2601 C2600 1.363 . S
C2601 C2604 1.363 . S
N2602 C2604 1.356 . S
N2602 H2614 0.984 . S
N2602 H2615 0.985 . S
N2603 C2605 1.356 . S
N2603 H2608 0.984 . S
N2603 H2609 0.985 . S
C2604 C2598 1.379 . S
C2604 C2601 1.363 . S
C2604 N2602 1.356 . S
C2605 C2599 1.363 . S
C2605 C2600 1.379 . S
C2605 N2603 1.356 . S
N2606 C2598 1.356 . S
N2606 H2612 0.984 . S
N2606 H2613 0.984 . S
N2607 C2600 1.356 . S
N2607 H2610 0.984 . S
N2607 H2611 0.985 . S
H2608 N2603 0.984 . S
H2609 N2603 0.985 . S
H2610 N2607 0.984 . S
H2611 N2607 0.985 . S
H2612 N2606 0.984 . S
H2613 N2606 0.984 . S
H2614 N2602 0.984 . S
H2615 N2602 0.985 . S
C2616 C2617 1.363 . S
C2616 C2622 1.379 . S
C2616 N2624 1.356 . S
C2617 C2616 1.363 . S
C2617 C2623 1.363 1_554 S
C2618 C2619 1.363 . S
C2618 C2623 1.379 . S
C2618 N2625 1.356 . S
C2619 C2618 1.363 . S
C2619 C2622 1.363 1_556 S
N2620 C2622 1.356 . S
N2620 H2632 0.984 . S
N2620 H2633 0.985 . S
N2621 C2623 1.356 . S
N2621 H2626 0.984 1_556 S
N2621 H2627 0.985 . S
C2622 C2616 1.379 . S
C2622 C2619 1.363 1_554 S
C2622 N2620 1.356 . S
C2623 C2617 1.363 1_556 S
C2623 C2618 1.379 . S
C2623 N2621 1.356 . S
N2624 C2616 1.356 . S
N2624 H2630 0.984 . S
N2624 H2631 0.984 . S
N2625 C2618 1.356 . S
N2625 H2628 0.984 . S
N2625 H2629 0.985 . S
H2626 N2621 0.984 1_554 S
H2627 N2621 0.985 . S
H2628 N2625 0.984 . S
H2629 N2625 0.985 . S
H2630 N2624 0.984 . S
H2631 N2624 0.984 . S
H2632 N2620 0.984 . S
H2633 N2620 0.985 . S
C2634 C2635 1.363 . S
C2634 C2640 1.379 . S
C2634 N2642 1.356 . S
C2635 C2634 1.363 . S
C2635 C2641 1.363 . S
C2636 C2637 1.363 . S
C2636 C2641 1.379 . S
C2636 N2643 1.356 . S
C2637 C2636 1.363 . S
C2637 C2640 1.363 . S
N2638 C2640 1.356 . S
N2638 H2650 0.984 . S
N2638 H2651 0.985 . S
N2639 C2641 1.356 . S
N2639 H2644 0.984 . S
N2639 H2645 0.985 . S
C2640 C2634 1.379 . S
C2640 C2637 1.363 . S
C2640 N2638 1.356 . S
C2641 C2635 1.363 . S
C2641 C2636 1.379 . S
C2641 N2639 1.356 . S
N2642 C2634 1.356 . S
N2642 H2648 0.984 . S
N2642 H2649 0.984 . S
N2643 C2636 1.356 . S
N2643 H2646 0.984 . S
N2643 H2647 0.985 . S
H2644 N2639 0.984 . S
H2645 N2639 0.985 . S
H2646 N2643 0.984 . S
H2647 N2643 0.985 . S
H2648 N2642 0.984 . S
H2649 N2642 0.984 . S
H2650 N2638 0.984 . S
H2651 N2638 0.985 . S
C2652 C2653 1.363 . S
C2652 C2658 1.379 . S
C2652 N2660 1.356 . S
C2653 C2652 1.363 . S
C2653 C2659 1.363 . S
C2654 C2655 1.363 . S
C2654 C2659 1.379 . S
C2654 N2661 1.356 . S
C2655 C2654 1.363 . S
C2655 C2658 1.363 . S
N2656 C2658 1.356 . S
N2656 H2668 0.984 . S
N2656 H2669 0.985 . S
N2657 C2659 1.356 . S
N2657 H2662 0.984 . S
N2657 H2663 0.985 . S
C2658 C2652 1.379 . S
C2658 C2655 1.363 . S
C2658 N2656 1.356 . S
C2659 C2653 1.363 . S
C2659 C2654 1.379 . S
C2659 N2657 1.356 . S
N2660 C2652 1.356 . S
N2660 H2666 0.984 . S
N2660 H2667 0.984 . S
N2661 C2654 1.356 . S
N2661 H2664 0.984 . S
N2661 H2665 0.985 . S
H2662 N2657 0.984 . S
H2663 N2657 0.985 . S
H2664 N2661 0.984 . S
H2665 N2661 0.985 . S
H2666 N2660 0.984 . S
H2667 N2660 0.984 . S
H2668 N2656 0.984 . S
H2669 N2656 0.985 . S
C2670 C2671 1.363 . S
C2670 C2676 1.379 . S
C2670 N2678 1.356 . S
C2671 C2670 1.363 . S
C2671 C2677 1.363 . S
C2672 C2673 1.363 . S
C2672 C2677 1.379 . S
C2672 N2679 1.356 . S
C2673 C2672 1.363 . S
C2673 C2676 1.363 . S
N2674 C2676 1.356 . S
N2674 H2686 0.984 . S
N2674 H2687 0.985 . S
N2675 C2677 1.356 . S
N2675 H2680 0.984 . S
N2675 H2681 0.985 . S
C2676 C2670 1.379 . S
C2676 C2673 1.363 . S
C2676 N2674 1.356 . S
C2677 C2671 1.363 . S
C2677 C2672 1.379 . S
C2677 N2675 1.356 . S
N2678 C2670 1.356 . S
N2678 H2684 0.984 . S
N2678 H2685 0.984 . S
N2679 C2672 1.356 . S
N2679 H2682 0.984 . S
N2679 H2683 0.985 . S
H2680 N2675 0.984 . S
H2681 N2675 0.985 . S
H2682 N2679 0.984 . S
H2683 N2679 0.985 . S
H2684 N2678 0.984 . S
H2685 N2678 0.984 . S
H2686 N2674 0.984 . S
H2687 N2674 0.985 . S
C2688 C2689 1.363 . S
C2688 C2694 1.379 . S
C2688 N2696 1.356 . S
C2689 C2688 1.363 . S
C2689 C2695 1.363 . S
C2690 C2691 1.363 . S
C2690 C2695 1.379 . S
C2690 N2697 1.356 . S
C2691 C2690 1.363 . S
C2691 C2694 1.363 . S
N2692 C2694 1.356 . S
N2692 H2704 0.984 . S
N2692 H2705 0.985 . S
N2693 C2695 1.356 . S
N2693 H2698 0.984 . S
N2693 H2699 0.985 . S
C2694 C2688 1.379 . S
C2694 C2691 1.363 . S
C2694 N2692 1.356 . S
C2695 C2689 1.363 . S
C2695 C2690 1.379 . S
C2695 N2693 1.356 . S
N2696 C2688 1.356 . S
N2696 H2702 0.984 . S
N2696 H2703 0.984 . S
N2697 C2690 1.356 . S
N2697 H2700 0.984 . S
N2697 H2701 0.985 . S
H2698 N2693 0.984 . S
H2699 N2693 0.985 . S
H2700 N2697 0.984 . S
H2701 N2697 0.985 . S
H2702 N2696 0.984 . S
H2703 N2696 0.984 . S
H2704 N2692 0.984 . S
H2705 N2692 0.985 . S
C2706 C2707 1.363 . S
C2706 C2712 1.379 . S
C2706 N2714 1.356 . S
C2707 C2706 1.363 . S
C2707 C2713 1.363 . S
C2708 C2709 1.363 . S
C2708 C2713 1.379 . S
C2708 N2715 1.356 . S
C2709 C2708 1.363 . S
C2709 C2712 1.363 . S
N2710 C2712 1.356 . S
N2710 H2722 0.984 . S
N2710 H2723 0.985 . S
N2711 C2713 1.356 . S
N2711 H2716 0.984 . S
N2711 H2717 0.985 . S
C2712 C2706 1.379 . S
C2712 C2709 1.363 . S
C2712 N2710 1.356 . S
C2713 C2707 1.363 . S
C2713 C2708 1.379 . S
C2713 N2711 1.356 . S
N2714 C2706 1.356 . S
N2714 H2720 0.984 . S
N2714 H2721 0.984 . S
N2715 C2708 1.356 . S
N2715 H2718 0.984 . S
N2715 H2719 0.985 . S
H2716 N2711 0.984 . S
H2717 N2711 0.985 . S
H2718 N2715 0.984 . S
H2719 N2715 0.985 . S
H2720 N2714 0.984 . S
H2721 N2714 0.984 . S
H2722 N2710 0.984 . S
H2723 N2710 0.985 . S
C2724 C2725 1.363 . S
C2724 C2730 1.379 . S
C2724 N2732 1.356 . S
C2725 C2724 1.363 . S
C2725 C2731 1.363 . S
C2726 C2727 1.363 . S
C2726 C2731 1.379 . S
C2726 N2733 1.356 . S
C2727 C2726 1.363 . S
C2727 C2730 1.363 . S
N2728 C2730 1.356 . S
N2728 H2740 0.984 . S
N2728 H2741 0.985 . S
N2729 C2731 1.356 . S
N2729 H2734 0.984 . S
N2729 H2735 0.985 . S
C2730 C2724 1.379 . S
C2730 C2727 1.363 . S
C2730 N2728 1.356 . S
C2731 C2725 1.363 . S
C2731 C2726 1.379 . S
C2731 N2729 1.356 . S
N2732 C2724 1.356 . S
N2732 H2738 0.984 . S
N2732 H2739 0.984 . S
N2733 C2726 1.356 . S
N2733 H2736 0.984 . S
N2733 H2737 0.985 . S
H2734 N2729 0.984 . S
H2735 N2729 0.985 . S
H2736 N2733 0.984 . S
H2737 N2733 0.985 . S
H2738 N2732 0.984 . S
H2739 N2732 0.984 . S
H2740 N2728 0.984 . S
H2741 N2728 0.985 . S
C2742 C2743 1.363 . S
C2742 C2748 1.379 . S
C2742 N2750 1.356 . S
C2743 C2742 1.363 . S
C2743 C2749 1.363 . S
C2744 C2745 1.363 . S
C2744 C2749 1.379 . S
C2744 N2751 1.356 . S
C2745 C2744 1.363 . S
C2745 C2748 1.363 . S
N2746 C2748 1.356 . S
N2746 H2758 0.984 . S
N2746 H2759 0.985 . S
N2747 C2749 1.356 . S
N2747 H2752 0.984 . S
N2747 H2753 0.985 . S
C2748 C2742 1.379 . S
C2748 C2745 1.363 . S
C2748 N2746 1.356 . S
C2749 C2743 1.363 . S
C2749 C2744 1.379 . S
C2749 N2747 1.356 . S
N2750 C2742 1.356 . S
N2750 H2756 0.984 . S
N2750 H2757 0.984 . S
N2751 C2744 1.356 . S
N2751 H2754 0.984 . S
N2751 H2755 0.985 . S
H2752 N2747 0.984 . S
H2753 N2747 0.985 . S
H2754 N2751 0.984 . S
H2755 N2751 0.985 . S
H2756 N2750 0.984 . S
H2757 N2750 0.984 . S
H2758 N2746 0.984 . S
H2759 N2746 0.985 . S
C2760 C2761 1.363 . S
C2760 C2766 1.379 . S
C2760 N2768 1.356 . S
C2761 C2760 1.363 . S
C2761 C2767 1.363 . S
C2762 C2763 1.363 . S
C2762 C2767 1.379 . S
C2762 N2769 1.356 . S
C2763 C2762 1.363 . S
C2763 C2766 1.363 . S
N2764 C2766 1.356 . S
N2764 H2776 0.984 . S
N2764 H2777 0.985 . S
N2765 C2767 1.356 . S
N2765 H2770 0.984 . S
N2765 H2771 0.985 . S
C2766 C2760 1.379 . S
C2766 C2763 1.363 . S
C2766 N2764 1.356 . S
C2767 C2761 1.363 . S
C2767 C2762 1.379 . S
C2767 N2765 1.356 . S
N2768 C2760 1.356 . S
N2768 H2774 0.984 . S
N2768 H2775 0.984 . S
N2769 C2762 1.356 . S
N2769 H2772 0.984 . S
N2769 H2773 0.985 . S
H2770 N2765 0.984 . S
H2771 N2765 0.985 . S
H2772 N2769 0.984 . S
H2773 N2769 0.985 . S
H2774 N2768 0.984 . S
H2775 N2768 0.984 . S
H2776 N2764 0.984 . S
H2777 N2764 0.985 . S
C2778 C2779 1.363 . S
C2778 C2784 1.379 . S
C2778 N2786 1.356 . S
C2779 C2778 1.363 . S
C2779 C2785 1.363 . S
C2780 C2781 1.363 . S
C2780 C2785 1.379 . S
C2780 N2787 1.356 . S
C2781 C2780 1.363 . S
C2781 C2784 1.363 . S
N2782 C2784 1.356 . S
N2782 H2794 0.984 . S
N2782 H2795 0.985 . S
N2783 C2785 1.356 . S
N2783 H2788 0.984 . S
N2783 H2789 0.985 . S
C2784 C2778 1.379 . S
C2784 C2781 1.363 . S
C2784 N2782 1.356 . S
C2785 C2779 1.363 . S
C2785 C2780 1.379 . S
C2785 N2783 1.356 . S
N2786 C2778 1.356 . S
N2786 H2792 0.984 . S
N2786 H2793 0.984 . S
N2787 C2780 1.356 . S
N2787 H2790 0.984 . S
N2787 H2791 0.985 . S
H2788 N2783 0.984 . S
H2789 N2783 0.985 . S
H2790 N2787 0.984 . S
H2791 N2787 0.985 . S
H2792 N2786 0.984 . S
H2793 N2786 0.984 . S
H2794 N2782 0.984 . S
H2795 N2782 0.985 . S
C2796 C2797 1.363 . S
C2796 C2802 1.379 . S
C2796 N2804 1.356 . S
C2797 C2796 1.363 . S
C2797 C2803 1.363 . S
C2798 C2799 1.363 . S
C2798 C2803 1.379 . S
C2798 N2805 1.356 . S
C2799 C2798 1.363 . S
C2799 C2802 1.363 . S
N2800 C2802 1.356 . S
N2800 H2812 0.984 . S
N2800 H2813 0.985 . S
N2801 C2803 1.356 . S
N2801 H2806 0.984 . S
N2801 H2807 0.985 . S
C2802 C2796 1.379 . S
C2802 C2799 1.363 . S
C2802 N2800 1.356 . S
C2803 C2797 1.363 . S
C2803 C2798 1.379 . S
C2803 N2801 1.356 . S
N2804 C2796 1.356 . S
N2804 H2810 0.984 . S
N2804 H2811 0.984 . S
N2805 C2798 1.356 . S
N2805 H2808 0.984 . S
N2805 H2809 0.985 . S
H2806 N2801 0.984 . S
H2807 N2801 0.985 . S
H2808 N2805 0.984 . S
H2809 N2805 0.985 . S
H2810 N2804 0.984 . S
H2811 N2804 0.984 . S
H2812 N2800 0.984 . S
H2813 N2800 0.985 . S
C2814 C2815 1.363 . S
C2814 C2820 1.379 1_554 S
C2814 N2822 1.356 . S
C2815 C2814 1.363 . S
C2815 C2821 1.363 1_554 S
C2816 C2817 1.363 . S
C2816 C2821 1.379 . S
C2816 N2823 1.356 . S
C2817 C2816 1.363 . S
C2817 C2820 1.363 . S
N2818 C2820 1.356 . S
N2818 H2830 0.984 . S
N2818 H2831 0.985 . S
N2819 C2821 1.356 1_554 S
N2819 H2824 0.984 . S
N2819 H2825 0.984 . S
C2820 C2814 1.379 1_556 S
C2820 C2817 1.363 . S
C2820 N2818 1.356 . S
C2821 C2815 1.363 1_556 S
C2821 C2816 1.379 . S
C2821 N2819 1.356 1_556 S
N2822 C2814 1.356 . S
N2822 H2828 0.984 . S
N2822 H2829 0.984 . S
N2823 C2816 1.356 . S
N2823 H2826 0.984 . S
N2823 H2827 0.985 . S
H2824 N2819 0.984 . S
H2825 N2819 0.984 . S
H2826 N2823 0.984 . S
H2827 N2823 0.985 . S
H2828 N2822 0.984 . S
H2829 N2822 0.984 . S
H2830 N2818 0.984 . S
H2831 N2818 0.985 . S
C2832 C2833 1.363 . S
C2832 C2838 1.379 . S
C2832 N2840 1.356 . S
C2833 C2832 1.363 . S
C2833 C2839 1.363 . S
C2834 C2835 1.363 . S
C2834 C2839 1.379 . S
C2834 N2841 1.356 . S
C2835 C2834 1.363 . S
C2835 C2838 1.363 . S
N2836 C2838 1.356 . S
N2836 H2848 0.984 . S
N2836 H2849 0.985 . S
N2837 C2839 1.356 . S
N2837 H2842 0.984 . S
N2837 H2843 0.985 . S
C2838 C2832 1.379 . S
C2838 C2835 1.363 . S
C2838 N2836 1.356 . S
C2839 C2833 1.363 . S
C2839 C2834 1.379 . S
C2839 N2837 1.356 . S
N2840 C2832 1.356 . S
N2840 H2846 0.984 . S
N2840 H2847 0.984 . S
N2841 C2834 1.356 . S
N2841 H2844 0.984 . S
N2841 H2845 0.985 . S
H2842 N2837 0.984 . S
H2843 N2837 0.985 . S
H2844 N2841 0.984 . S
H2845 N2841 0.985 . S
H2846 N2840 0.984 . S
H2847 N2840 0.984 . S
H2848 N2836 0.984 . S
H2849 N2836 0.985 . S
C2850 C2851 1.363 . S
C2850 C2856 1.379 . S
C2850 N2858 1.356 . S
C2851 C2850 1.363 . S
C2851 C2857 1.363 . S
C2852 C2853 1.363 . S
C2852 C2857 1.379 . S
C2852 N2859 1.356 . S
C2853 C2852 1.363 . S
C2853 C2856 1.363 . S
N2854 C2856 1.356 . S
N2854 H2866 0.984 . S
N2854 H2867 0.985 . S
N2855 C2857 1.356 . S
N2855 H2860 0.984 . S
N2855 H2861 0.985 . S
C2856 C2850 1.379 . S
C2856 C2853 1.363 . S
C2856 N2854 1.356 . S
C2857 C2851 1.363 . S
C2857 C2852 1.379 . S
C2857 N2855 1.356 . S
N2858 C2850 1.356 . S
N2858 H2864 0.984 . S
N2858 H2865 0.984 . S
N2859 C2852 1.356 . S
N2859 H2862 0.984 . S
N2859 H2863 0.985 . S
H2860 N2855 0.984 . S
H2861 N2855 0.985 . S
H2862 N2859 0.984 . S
H2863 N2859 0.985 . S
H2864 N2858 0.984 . S
H2865 N2858 0.984 . S
H2866 N2854 0.984 . S
H2867 N2854 0.985 . S
C2868 C2869 1.363 . S
C2868 C2874 1.379 . S
C2868 N2876 1.356 . S
C2869 C2868 1.363 . S
C2869 C2875 1.363 . S
C2870 C2871 1.363 . S
C2870 C2875 1.379 . S
C2870 N2877 1.356 . S
C2871 C2870 1.363 . S
C2871 C2874 1.363 . S
N2872 C2874 1.356 . S
N2872 H2884 0.984 . S
N2872 H2885 0.985 . S
N2873 C2875 1.356 . S
N2873 H2878 0.984 . S
N2873 H2879 0.985 . S
C2874 C2868 1.379 . S
C2874 C2871 1.363 . S
C2874 N2872 1.356 . S
C2875 C2869 1.363 . S
C2875 C2870 1.379 . S
C2875 N2873 1.356 . S
N2876 C2868 1.356 . S
N2876 H2882 0.984 . S
N2876 H2883 0.984 . S
N2877 C2870 1.356 . S
N2877 H2880 0.984 . S
N2877 H2881 0.985 . S
H2878 N2873 0.984 . S
H2879 N2873 0.985 . S
H2880 N2877 0.984 . S
H2881 N2877 0.985 . S
H2882 N2876 0.984 . S
H2883 N2876 0.984 . S
H2884 N2872 0.984 . S
H2885 N2872 0.985 . S
C2886 C2887 1.363 . S
C2886 C2892 1.379 . S
C2886 N2894 1.356 . S
C2887 C2886 1.363 . S
C2887 C2893 1.363 . S
C2888 C2889 1.363 . S
C2888 C2893 1.379 . S
C2888 N2895 1.356 . S
C2889 C2888 1.363 . S
C2889 C2892 1.363 . S
N2890 C2892 1.356 . S
N2890 H2902 0.984 . S
N2890 H2903 0.985 . S
N2891 C2893 1.356 . S
N2891 H2896 0.984 . S
N2891 H2897 0.985 . S
C2892 C2886 1.379 . S
C2892 C2889 1.363 . S
C2892 N2890 1.356 . S
C2893 C2887 1.363 . S
C2893 C2888 1.379 . S
C2893 N2891 1.356 . S
N2894 C2886 1.356 . S
N2894 H2900 0.984 . S
N2894 H2901 0.984 . S
N2895 C2888 1.356 . S
N2895 H2898 0.984 . S
N2895 H2899 0.985 . S
H2896 N2891 0.984 . S
H2897 N2891 0.985 . S
H2898 N2895 0.984 . S
H2899 N2895 0.985 . S
H2900 N2894 0.984 . S
H2901 N2894 0.984 . S
H2902 N2890 0.984 . S
H2903 N2890 0.985 . S
C2904 C2905 1.363 . S
C2904 C2910 1.379 . S
C2904 N2912 1.356 . S
C2905 C2904 1.363 . S
C2905 C2911 1.363 . S
C2906 C2907 1.363 . S
C2906 C2911 1.379 . S
C2906 N2913 1.356 . S
C2907 C2906 1.363 . S
C2907 C2910 1.363 . S
N2908 C2910 1.356 . S
N2908 H2920 0.984 . S
N2908 H2921 0.985 . S
N2909 C2911 1.356 . S
N2909 H2914 0.984 . S
N2909 H2915 0.985 . S
C2910 C2904 1.379 . S
C2910 C2907 1.363 . S
C2910 N2908 1.356 . S
C2911 C2905 1.363 . S
C2911 C2906 1.379 . S
C2911 N2909 1.356 . S
N2912 C2904 1.356 . S
N2912 H2918 0.984 . S
N2912 H2919 0.984 . S
N2913 C2906 1.356 . S
N2913 H2916 0.984 . S
N2913 H2917 0.985 . S
H2914 N2909 0.984 . S
H2915 N2909 0.985 . S
H2916 N2913 0.984 . S
H2917 N2913 0.985 . S
H2918 N2912 0.984 . S
H2919 N2912 0.984 . S
H2920 N2908 0.984 . S
H2921 N2908 0.985 . S
C2922 C2923 1.363 . S
C2922 C2928 1.379 1_554 S
C2922 N2930 1.356 . S
C2923 C2922 1.363 . S
C2923 C2929 1.363 . S
C2924 C2925 1.363 1_554 S
C2924 C2929 1.379 . S
C2924 N2931 1.356 . S
C2925 C2924 1.363 1_556 S
C2925 C2928 1.363 . S
N2926 C2928 1.356 . S
N2926 H2938 0.984 . S
N2926 H2939 0.985 . S
N2927 C2929 1.356 . S
N2927 H2932 0.984 . S
N2927 H2933 0.985 . S
C2928 C2922 1.379 1_556 S
C2928 C2925 1.363 . S
C2928 N2926 1.356 . S
C2929 C2923 1.363 . S
C2929 C2924 1.379 . S
C2929 N2927 1.356 . S
N2930 C2922 1.356 . S
N2930 H2936 0.984 1_554 S
N2930 H2937 0.984 . S
N2931 C2924 1.356 . S
N2931 H2934 0.984 1_554 S
N2931 H2935 0.985 . S
H2932 N2927 0.984 . S
H2933 N2927 0.985 . S
H2934 N2931 0.984 1_556 S
H2935 N2931 0.985 . S
H2936 N2930 0.984 1_556 S
H2937 N2930 0.984 . S
H2938 N2926 0.984 . S
H2939 N2926 0.985 . S
C2940 C2941 1.363 . S
C2940 C2946 1.379 . S
C2940 N2948 1.356 . S
C2941 C2940 1.363 . S
C2941 C2947 1.363 . S
C2942 C2943 1.363 . S
C2942 C2947 1.379 . S
C2942 N2949 1.356 . S
C2943 C2942 1.363 . S
C2943 C2946 1.363 . S
N2944 C2946 1.356 . S
N2944 H2956 0.984 . S
N2944 H2957 0.985 . S
N2945 C2947 1.356 . S
N2945 H2950 0.984 . S
N2945 H2951 0.985 . S
C2946 C2940 1.379 . S
C2946 C2943 1.363 . S
C2946 N2944 1.356 . S
C2947 C2941 1.363 . S
C2947 C2942 1.379 . S
C2947 N2945 1.356 . S
N2948 C2940 1.356 . S
N2948 H2954 0.984 . S
N2948 H2955 0.984 . S
N2949 C2942 1.356 . S
N2949 H2952 0.984 . S
N2949 H2953 0.985 . S
H2950 N2945 0.984 . S
H2951 N2945 0.985 . S
H2952 N2949 0.984 . S
H2953 N2949 0.985 . S
H2954 N2948 0.984 . S
H2955 N2948 0.984 . S
H2956 N2944 0.984 . S
H2957 N2944 0.985 . S
C2958 C2959 1.363 . S
C2958 C2964 1.379 . S
C2958 N2966 1.356 . S
C2959 C2958 1.363 . S
C2959 C2965 1.363 . S
C2960 C2961 1.363 . S
C2960 C2965 1.379 . S
C2960 N2967 1.356 . S
C2961 C2960 1.363 . S
C2961 C2964 1.363 . S
N2962 C2964 1.356 . S
N2962 H2974 0.984 . S
N2962 H2975 0.985 . S
N2963 C2965 1.356 . S
N2963 H2968 0.984 . S
N2963 H2969 0.985 . S
C2964 C2958 1.379 . S
C2964 C2961 1.363 . S
C2964 N2962 1.356 . S
C2965 C2959 1.363 . S
C2965 C2960 1.379 . S
C2965 N2963 1.356 . S
N2966 C2958 1.356 . S
N2966 H2972 0.984 . S
N2966 H2973 0.984 . S
N2967 C2960 1.356 . S
N2967 H2970 0.984 . S
N2967 H2971 0.985 . S
H2968 N2963 0.984 . S
H2969 N2963 0.985 . S
H2970 N2967 0.984 . S
H2971 N2967 0.985 . S
H2972 N2966 0.984 . S
H2973 N2966 0.984 . S
H2974 N2962 0.984 . S
H2975 N2962 0.985 . S
C2976 C2977 1.363 . S
C2976 C2982 1.379 . S
C2976 N2984 1.356 . S
C2977 C2976 1.363 . S
C2977 C2983 1.363 . S
C2978 C2979 1.363 . S
C2978 C2983 1.379 . S
C2978 N2985 1.356 . S
C2979 C2978 1.363 . S
C2979 C2982 1.363 . S
N2980 C2982 1.356 . S
N2980 H2992 0.984 . S
N2980 H2993 0.985 . S
N2981 C2983 1.356 . S
N2981 H2986 0.984 . S
N2981 H2987 0.985 . S
C2982 C2976 1.379 . S
C2982 C2979 1.363 . S
C2982 N2980 1.356 . S
C2983 C2977 1.363 . S
C2983 C2978 1.379 . S
C2983 N2981 1.356 . S
N2984 C2976 1.356 . S
N2984 H2990 0.984 . S
N2984 H2991 0.984 . S
N2985 C2978 1.356 . S
N2985 H2988 0.984 . S
N2985 H2989 0.985 . S
H2986 N2981 0.984 . S
H2987 N2981 0.985 . S
H2988 N2985 0.984 . S
H2989 N2985 0.985 . S
H2990 N2984 0.984 . S
H2991 N2984 0.984 . S
H2992 N2980 0.984 . S
H2993 N2980 0.985 . S
C2994 C2995 1.363 . S
C2994 C3000 1.379 . S
C2994 N3002 1.356 . S
C2995 C2994 1.363 . S
C2995 C3001 1.363 . S
C2996 C2997 1.363 . S
C2996 C3001 1.379 . S
C2996 N3003 1.356 . S
C2997 C2996 1.363 . S
C2997 C3000 1.363 . S
N2998 C3000 1.356 . S
N2998 H3010 0.984 . S
N2998 H3011 0.985 . S
N2999 C3001 1.356 . S
N2999 H3004 0.984 . S
N2999 H3005 0.985 . S
C3000 C2994 1.379 . S
C3000 C2997 1.363 . S
C3000 N2998 1.356 . S
C3001 C2995 1.363 . S
C3001 C2996 1.379 . S
C3001 N2999 1.356 . S
N3002 C2994 1.356 . S
N3002 H3008 0.984 . S
N3002 H3009 0.984 . S
N3003 C2996 1.356 . S
N3003 H3006 0.984 . S
N3003 H3007 0.985 . S
H3004 N2999 0.984 . S
H3005 N2999 0.985 . S
H3006 N3003 0.984 . S
H3007 N3003 0.985 . S
H3008 N3002 0.984 . S
H3009 N3002 0.984 . S
H3010 N2998 0.984 . S
H3011 N2998 0.985 . S
C3012 C3013 1.363 . S
C3012 C3018 1.379 . S
C3012 N3020 1.356 . S
C3013 C3012 1.363 . S
C3013 C3019 1.363 . S
C3014 C3015 1.363 . S
C3014 C3019 1.379 . S
C3014 N3021 1.356 . S
C3015 C3014 1.363 . S
C3015 C3018 1.363 . S
N3016 C3018 1.356 . S
N3016 H3028 0.984 . S
N3016 H3029 0.985 . S
N3017 C3019 1.356 . S
N3017 H3022 0.984 . S
N3017 H3023 0.985 . S
C3018 C3012 1.379 . S
C3018 C3015 1.363 . S
C3018 N3016 1.356 . S
C3019 C3013 1.363 . S
C3019 C3014 1.379 . S
C3019 N3017 1.356 . S
N3020 C3012 1.356 . S
N3020 H3026 0.984 . S
N3020 H3027 0.984 . S
N3021 C3014 1.356 . S
N3021 H3024 0.984 . S
N3021 H3025 0.985 . S
H3022 N3017 0.984 . S
H3023 N3017 0.985 . S
H3024 N3021 0.984 . S
H3025 N3021 0.985 . S
H3026 N3020 0.984 . S
H3027 N3020 0.984 . S
H3028 N3016 0.984 . S
H3029 N3016 0.985 . S
C3030 C3031 1.363 . S
C3030 C3036 1.379 . S
C3030 N3038 1.356 1_554 S
C3031 C3030 1.363 . S
C3031 C3037 1.363 . S
C3032 C3033 1.363 . S
C3032 C3037 1.379 . S
C3032 N3039 1.356 . S
C3033 C3032 1.363 . S
C3033 C3036 1.363 . S
N3034 C3036 1.356 . S
N3034 H3046 0.984 . S
N3034 H3047 0.985 . S
N3035 C3037 1.356 . S
N3035 H3040 0.984 1_554 S
N3035 H3041 0.985 . S
C3036 C3030 1.379 . S
C3036 C3033 1.363 . S
C3036 N3034 1.356 . S
C3037 C3031 1.363 . S
C3037 C3032 1.379 . S
C3037 N3035 1.356 . S
N3038 C3030 1.356 1_556 S
N3038 H3044 0.984 1_545 S
N3038 H3045 0.984 . S
N3039 C3032 1.356 . S
N3039 H3042 0.984 . S
N3039 H3043 0.985 . S
H3040 N3035 0.984 1_556 S
H3041 N3035 0.985 . S
H3042 N3039 0.984 . S
H3043 N3039 0.985 . S
H3044 N3038 0.984 1_565 S
H3045 N3038 0.984 . S
H3046 N3034 0.984 . S
H3047 N3034 0.985 . S
C3048 C3049 1.363 . S
C3048 C3054 1.379 . S
C3048 N3056 1.356 . S
C3049 C3048 1.363 . S
C3049 C3055 1.363 . S
C3050 C3051 1.363 . S
C3050 C3055 1.379 . S
C3050 N3057 1.356 . S
C3051 C3050 1.363 . S
C3051 C3054 1.363 . S
N3052 C3054 1.356 . S
N3052 H3064 0.984 . S
N3052 H3065 0.985 . S
N3053 C3055 1.356 . S
N3053 H3058 0.984 . S
N3053 H3059 0.985 . S
C3054 C3048 1.379 . S
C3054 C3051 1.363 . S
C3054 N3052 1.356 . S
C3055 C3049 1.363 . S
C3055 C3050 1.379 . S
C3055 N3053 1.356 . S
N3056 C3048 1.356 . S
N3056 H3062 0.984 . S
N3056 H3063 0.984 . S
N3057 C3050 1.356 . S
N3057 H3060 0.984 . S
N3057 H3061 0.985 . S
H3058 N3053 0.984 . S
H3059 N3053 0.985 . S
H3060 N3057 0.984 . S
H3061 N3057 0.985 . S
H3062 N3056 0.984 . S
H3063 N3056 0.984 . S
H3064 N3052 0.984 . S
H3065 N3052 0.985 . S
C3066 C3067 1.363 . S
C3066 C3072 1.379 . S
C3066 N3074 1.356 . S
C3067 C3066 1.363 . S
C3067 C3073 1.363 . S
C3068 C3069 1.363 . S
C3068 C3073 1.379 . S
C3068 N3075 1.356 . S
C3069 C3068 1.363 . S
C3069 C3072 1.363 . S
N3070 C3072 1.356 . S
N3070 H3082 0.984 . S
N3070 H3083 0.985 . S
N3071 C3073 1.356 . S
N3071 H3076 0.984 . S
N3071 H3077 0.985 . S
C3072 C3066 1.379 . S
C3072 C3069 1.363 . S
C3072 N3070 1.356 . S
C3073 C3067 1.363 . S
C3073 C3068 1.379 . S
C3073 N3071 1.356 . S
N3074 C3066 1.356 . S
N3074 H3080 0.984 . S
N3074 H3081 0.984 . S
N3075 C3068 1.356 . S
N3075 H3078 0.984 . S
N3075 H3079 0.985 . S
H3076 N3071 0.984 . S
H3077 N3071 0.985 . S
H3078 N3075 0.984 . S
H3079 N3075 0.985 . S
H3080 N3074 0.984 . S
H3081 N3074 0.984 . S
H3082 N3070 0.984 . S
H3083 N3070 0.985 . S
C3084 C3085 1.363 . S
C3084 C3090 1.379 . S
C3084 N3092 1.356 . S
C3085 C3084 1.363 . S
C3085 C3091 1.363 . S
C3086 C3087 1.363 . S
C3086 C3091 1.379 . S
C3086 N3093 1.356 . S
C3087 C3086 1.363 . S
C3087 C3090 1.363 . S
N3088 C3090 1.356 . S
N3088 H3100 0.984 . S
N3088 H3101 0.985 . S
N3089 C3091 1.356 . S
N3089 H3094 0.984 . S
N3089 H3095 0.985 . S
C3090 C3084 1.379 . S
C3090 C3087 1.363 . S
C3090 N3088 1.356 . S
C3091 C3085 1.363 . S
C3091 C3086 1.379 . S
C3091 N3089 1.356 . S
N3092 C3084 1.356 . S
N3092 H3098 0.984 . S
N3092 H3099 0.984 . S
N3093 C3086 1.356 . S
N3093 H3096 0.984 . S
N3093 H3097 0.985 . S
H3094 N3089 0.984 . S
H3095 N3089 0.985 . S
H3096 N3093 0.984 . S
H3097 N3093 0.985 . S
H3098 N3092 0.984 . S
H3099 N3092 0.984 . S
H3100 N3088 0.984 . S
H3101 N3088 0.985 . S
C3102 C3103 1.363 . S
C3102 C3108 1.379 . S
C3102 N3110 1.356 1_545 S
C3103 C3102 1.363 . S
C3103 C3109 1.363 . S
C3104 C3105 1.363 . S
C3104 C3109 1.379 . S
C3104 N3111 1.356 . S
C3105 C3104 1.363 . S
C3105 C3108 1.363 . S
N3106 C3108 1.356 . S
N3106 H3118 0.984 1_545 S
N3106 H3119 0.985 . S
N3107 C3109 1.356 1_554 S
N3107 H3112 0.984 . S
N3107 H3113 0.985 . S
C3108 C3102 1.379 . S
C3108 C3105 1.363 . S
C3108 N3106 1.356 . S
C3109 C3103 1.363 . S
C3109 C3104 1.379 . S
C3109 N3107 1.356 1_556 S
N3110 C3102 1.356 1_565 S
N3110 H3116 0.984 . S
N3110 H3117 0.984 1_556 S
N3111 C3104 1.356 . S
N3111 H3114 0.984 . S
N3111 H3115 0.985 . S
H3112 N3107 0.984 . S
H3113 N3107 0.985 . S
H3114 N3111 0.984 . S
H3115 N3111 0.985 . S
H3116 N3110 0.984 . S
H3117 N3110 0.984 1_554 S
H3118 N3106 0.984 1_565 S
H3119 N3106 0.985 . S
C3120 C3121 1.363 . S
C3120 C3126 1.379 . S
C3120 N3128 1.356 . S
C3121 C3120 1.363 . S
C3121 C3127 1.363 . S
C3122 C3123 1.363 . S
C3122 C3127 1.379 . S
C3122 N3129 1.356 . S
C3123 C3122 1.363 . S
C3123 C3126 1.363 . S
N3124 C3126 1.356 . S
N3124 H3136 0.984 . S
N3124 H3137 0.985 . S
N3125 C3127 1.356 . S
N3125 H3130 0.984 . S
N3125 H3131 0.985 . S
C3126 C3120 1.379 . S
C3126 C3123 1.363 . S
C3126 N3124 1.356 . S
C3127 C3121 1.363 . S
C3127 C3122 1.379 . S
C3127 N3125 1.356 . S
N3128 C3120 1.356 . S
N3128 H3134 0.984 . S
N3128 H3135 0.984 . S
N3129 C3122 1.356 . S
N3129 H3132 0.984 . S
N3129 H3133 0.985 . S
H3130 N3125 0.984 . S
H3131 N3125 0.985 . S
H3132 N3129 0.984 . S
H3133 N3129 0.985 . S
H3134 N3128 0.984 . S
H3135 N3128 0.984 . S
H3136 N3124 0.984 . S
H3137 N3124 0.985 . S
C3138 C3139 1.363 . S
C3138 C3144 1.379 . S
C3138 N3146 1.356 1_545 S
C3139 C3138 1.363 . S
C3139 C3145 1.363 . S
C3140 C3141 1.363 . S
C3140 C3145 1.379 . S
C3140 N3147 1.356 . S
C3141 C3140 1.363 . S
C3141 C3144 1.363 . S
N3142 C3144 1.356 . S
N3142 H3154 0.984 . S
N3142 H3155 0.985 . S
N3143 C3145 1.356 . S
N3143 H3148 0.977 1_545 S
N3143 H3149 0.985 . S
C3144 C3138 1.379 . S
C3144 C3141 1.363 . S
C3144 N3142 1.356 . S
C3145 C3139 1.363 . S
C3145 C3140 1.379 . S
C3145 N3143 1.356 . S
N3146 C3138 1.356 1_565 S
N3146 H3152 0.984 . S
N3146 H3153 0.984 . S
N3147 C3140 1.356 . S
N3147 H3150 0.984 . S
N3147 H3151 0.985 . S
H3148 N3143 0.977 1_565 S
H3149 N3143 0.985 . S
H3150 N3147 0.984 . S
H3151 N3147 0.985 . S
H3152 N3146 0.984 . S
H3153 N3146 0.984 . S
H3154 N3142 0.984 . S
H3155 N3142 0.985 . S
C3156 C3157 1.363 . S
C3156 C3162 1.379 . S
C3156 N3164 1.356 . S
C3157 C3156 1.363 . S
C3157 C3163 1.363 . S
C3158 C3159 1.363 . S
C3158 C3163 1.379 . S
C3158 N3165 1.356 . S
C3159 C3158 1.363 . S
C3159 C3162 1.363 . S
N3160 C3162 1.356 . S
N3160 H3172 0.984 . S
N3160 H3173 0.985 . S
N3161 C3163 1.356 . S
N3161 H3166 0.984 . S
N3161 H3167 0.985 . S
C3162 C3156 1.379 . S
C3162 C3159 1.363 . S
C3162 N3160 1.356 . S
C3163 C3157 1.363 . S
C3163 C3158 1.379 . S
C3163 N3161 1.356 . S
N3164 C3156 1.356 . S
N3164 H3170 0.984 . S
N3164 H3171 0.984 . S
N3165 C3158 1.356 . S
N3165 H3168 0.984 . S
N3165 H3169 0.985 . S
H3166 N3161 0.984 . S
H3167 N3161 0.985 . S
H3168 N3165 0.984 . S
H3169 N3165 0.985 . S
H3170 N3164 0.984 . S
H3171 N3164 0.984 . S
H3172 N3160 0.984 . S
H3173 N3160 0.985 . S
C3174 C3175 1.363 . S
C3174 C3180 1.379 . S
C3174 N3182 1.356 . S
C3175 C3174 1.363 . S
C3175 C3181 1.363 . S
C3176 C3177 1.363 . S
C3176 C3181 1.379 . S
C3176 N3183 1.356 . S
C3177 C3176 1.363 . S
C3177 C3180 1.363 . S
N3178 C3180 1.356 . S
N3178 H3190 0.984 . S
N3178 H3191 0.985 . S
N3179 C3181 1.356 1_545 S
N3179 H3184 0.984 . S
N3179 H3185 0.985 . S
C3180 C3174 1.379 . S
C3180 C3177 1.363 . S
C3180 N3178 1.356 . S
C3181 C3175 1.363 . S
C3181 C3176 1.379 . S
C3181 N3179 1.356 1_565 S
N3182 C3174 1.356 . S
N3182 H3188 0.984 . S
N3182 H3189 0.984 . S
N3183 C3176 1.356 . S
N3183 H3186 0.984 . S
N3183 H3187 0.985 . S
H3184 N3179 0.984 . S
H3185 N3179 0.985 . S
H3186 N3183 0.984 . S
H3187 N3183 0.985 . S
H3188 N3182 0.984 . S
H3189 N3182 0.984 . S
H3190 N3178 0.984 . S
H3191 N3178 0.985 . S
C3192 C3193 1.363 . S
C3192 C3198 1.379 . S
C3192 N3200 1.356 . S
C3193 C3192 1.363 . S
C3193 C3199 1.363 . S
C3194 C3195 1.363 . S
C3194 C3199 1.379 . S
C3194 N3201 1.356 . S
C3195 C3194 1.363 . S
C3195 C3198 1.363 . S
N3196 C3198 1.356 . S
N3196 H3208 0.984 . S
N3196 H3209 0.985 . S
N3197 C3199 1.356 . S
N3197 H3202 0.984 . S
N3197 H3203 0.985 . S
C3198 C3192 1.379 . S
C3198 C3195 1.363 . S
C3198 N3196 1.356 . S
C3199 C3193 1.363 . S
C3199 C3194 1.379 . S
C3199 N3197 1.356 . S
N3200 C3192 1.356 . S
N3200 H3206 0.984 . S
N3200 H3207 0.984 . S
N3201 C3194 1.356 . S
N3201 H3204 0.984 . S
N3201 H3205 0.985 . S
H3202 N3197 0.984 . S
H3203 N3197 0.985 . S
H3204 N3201 0.984 . S
H3205 N3201 0.985 . S
H3206 N3200 0.984 . S
H3207 N3200 0.984 . S
H3208 N3196 0.984 . S
H3209 N3196 0.985 . S
C3210 C3211 1.363 . S
C3210 C3216 1.379 . S
C3210 N3218 1.356 . S
C3211 C3210 1.363 . S
C3211 C3217 1.363 . S
C3212 C3213 1.363 . S
C3212 C3217 1.379 . S
C3212 N3219 1.356 . S
C3213 C3212 1.363 . S
C3213 C3216 1.363 . S
N3214 C3216 1.356 . S
N3214 H3226 0.984 . S
N3214 H3227 0.985 . S
N3215 C3217 1.356 1_565 S
N3215 H3220 0.984 . S
N3215 H3221 0.985 . S
C3216 C3210 1.379 . S
C3216 C3213 1.363 . S
C3216 N3214 1.356 . S
C3217 C3211 1.363 . S
C3217 C3212 1.379 . S
C3217 N3215 1.356 1_545 S
N3218 C3210 1.356 . S
N3218 H3224 0.984 . S
N3218 H3225 0.984 . S
N3219 C3212 1.356 . S
N3219 H3222 0.984 . S
N3219 H3223 0.985 . S
H3220 N3215 0.984 . S
H3221 N3215 0.985 . S
H3222 N3219 0.984 . S
H3223 N3219 0.985 . S
H3224 N3218 0.984 . S
H3225 N3218 0.984 . S
H3226 N3214 0.984 . S
H3227 N3214 0.985 . S
C3228 C3229 1.363 . S
C3228 C3234 1.379 . S
C3228 N3236 1.356 . S
C3229 C3228 1.363 . S
C3229 C3235 1.363 . S
C3230 C3231 1.363 . S
C3230 C3235 1.379 . S
C3230 N3237 1.356 . S
C3231 C3230 1.363 . S
C3231 C3234 1.363 . S
N3232 C3234 1.356 . S
N3232 H3244 0.984 . S
N3232 H3245 0.985 . S
N3233 C3235 1.356 . S
N3233 H3238 0.984 . S
N3233 H3239 0.985 . S
C3234 C3228 1.379 . S
C3234 C3231 1.363 . S
C3234 N3232 1.356 . S
C3235 C3229 1.363 . S
C3235 C3230 1.379 . S
C3235 N3233 1.356 . S
N3236 C3228 1.356 . S
N3236 H3242 0.984 . S
N3236 H3243 0.984 . S
N3237 C3230 1.356 . S
N3237 H3240 0.984 . S
N3237 H3241 0.985 . S
H3238 N3233 0.984 . S
H3239 N3233 0.985 . S
H3240 N3237 0.984 . S
H3241 N3237 0.985 . S
H3242 N3236 0.984 . S
H3243 N3236 0.984 . S
H3244 N3232 0.984 . S
H3245 N3232 0.985 . S
C3246 C3247 1.363 . S
C3246 C3252 1.379 . S
C3246 N3254 1.356 . S
C3247 C3246 1.363 . S
C3247 C3253 1.363 . S
C3248 C3249 1.363 . S
C3248 C3253 1.379 . S
C3248 N3255 1.356 . S
C3249 C3248 1.363 . S
C3249 C3252 1.363 . S
N3250 C3252 1.356 1_545 S
N3250 H3262 0.984 . S
N3250 H3263 0.985 . S
N3251 C3253 1.356 . S
N3251 H3256 0.984 . S
N3251 H3257 0.985 . S
C3252 C3246 1.379 . S
C3252 C3249 1.363 . S
C3252 N3250 1.356 1_565 S
C3253 C3247 1.363 . S
C3253 C3248 1.379 . S
C3253 N3251 1.356 . S
N3254 C3246 1.356 . S
N3254 H3260 0.984 . S
N3254 H3261 0.984 . S
N3255 C3248 1.356 . S
N3255 H3258 0.984 . S
N3255 H3259 0.985 . S
H3256 N3251 0.984 . S
H3257 N3251 0.985 . S
H3258 N3255 0.984 . S
H3259 N3255 0.985 . S
H3260 N3254 0.984 . S
H3261 N3254 0.984 . S
H3262 N3250 0.984 . S
H3263 N3250 0.985 . S
C3264 C3265 1.363 . S
C3264 C3270 1.379 . S
C3264 N3272 1.356 . S
C3265 C3264 1.363 . S
C3265 C3271 1.363 . S
C3266 C3267 1.363 . S
C3266 C3271 1.379 . S
C3266 N3273 1.356 . S
C3267 C3266 1.363 . S
C3267 C3270 1.363 . S
N3268 C3270 1.356 . S
N3268 H3280 0.984 . S
N3268 H3281 0.985 . S
N3269 C3271 1.356 . S
N3269 H3274 0.984 . S
N3269 H3275 0.985 . S
C3270 C3264 1.379 . S
C3270 C3267 1.363 . S
C3270 N3268 1.356 . S
C3271 C3265 1.363 . S
C3271 C3266 1.379 . S
C3271 N3269 1.356 . S
N3272 C3264 1.356 . S
N3272 H3278 0.984 . S
N3272 H3279 0.984 . S
N3273 C3266 1.356 . S
N3273 H3276 0.984 . S
N3273 H3277 0.985 . S
H3274 N3269 0.984 . S
H3275 N3269 0.985 . S
H3276 N3273 0.984 . S
H3277 N3273 0.985 . S
H3278 N3272 0.984 . S
H3279 N3272 0.984 . S
H3280 N3268 0.984 . S
H3281 N3268 0.985 . S
C3282 C3283 1.363 . S
C3282 C3288 1.379 . S
C3282 N3290 1.356 . S
C3283 C3282 1.363 . S
C3283 C3289 1.363 . S
C3284 C3285 1.363 . S
C3284 C3289 1.379 . S
C3284 N3291 1.356 . S
C3285 C3284 1.363 . S
C3285 C3288 1.363 . S
N3286 C3288 1.356 . S
N3286 H3298 0.984 . S
N3286 H3299 0.985 . S
N3287 C3289 1.356 . S
N3287 H3292 0.984 . S
N3287 H3293 0.985 . S
C3288 C3282 1.379 . S
C3288 C3285 1.363 . S
C3288 N3286 1.356 . S
C3289 C3283 1.363 . S
C3289 C3284 1.379 . S
C3289 N3287 1.356 . S
N3290 C3282 1.356 . S
N3290 H3296 0.984 . S
N3290 H3297 0.984 . S
N3291 C3284 1.356 . S
N3291 H3294 0.984 . S
N3291 H3295 0.985 . S
H3292 N3287 0.984 . S
H3293 N3287 0.985 . S
H3294 N3291 0.984 . S
H3295 N3291 0.985 . S
H3296 N3290 0.984 . S
H3297 N3290 0.984 . S
H3298 N3286 0.984 . S
H3299 N3286 0.985 . S
C3300 C3301 1.363 . S
C3300 C3306 1.379 1_655 S
C3300 N3308 1.356 . S
C3301 C3300 1.363 . S
C3301 C3307 1.376 1_556 S
C3302 C3303 1.363 1_554 S
C3302 C3307 1.356 1_455 S
C3302 N3309 1.356 . S
C3303 C3302 1.363 1_556 S
C3303 C3306 1.363 . S
N3304 C3306 1.356 . S
N3304 H3316 0.984 . S
N3304 H3317 0.985 . S
N3305 C3307 1.372 . S
N3305 H3310 0.984 . S
N3305 H3311 0.985 . S
C3306 C3300 1.379 1_455 S
C3306 C3303 1.363 . S
C3306 N3304 1.356 . S
C3307 C3301 1.376 1_554 S
C3307 C3302 1.356 1_655 S
C3307 N3305 1.372 . S
N3308 C3300 1.356 . S
N3308 H3314 0.984 . S
N3308 H3315 0.984 . S
N3309 C3302 1.356 . S
N3309 H3312 0.984 . S
N3309 H3313 0.985 . S
H3310 N3305 0.984 . S
H3311 N3305 0.985 . S
H3312 N3309 0.984 . S
H3313 N3309 0.985 . S
H3314 N3308 0.984 . S
H3315 N3308 0.984 . S
H3316 N3304 0.984 . S
H3317 N3304 0.985 . S
C3318 C3319 1.363 . S
C3318 C3324 1.379 . S
C3318 N3326 1.356 . S
C3319 C3318 1.363 . S
C3319 C3325 1.363 . S
C3320 C3321 1.363 . S
C3320 C3325 1.379 . S
C3320 N3327 1.356 . S
C3321 C3320 1.363 . S
C3321 C3324 1.363 . S
N3322 C3324 1.356 . S
N3322 H3334 0.984 . S
N3322 H3335 0.985 . S
N3323 C3325 1.356 . S
N3323 H3328 0.984 . S
N3323 H3329 0.985 . S
C3324 C3318 1.379 . S
C3324 C3321 1.363 . S
C3324 N3322 1.356 . S
C3325 C3319 1.363 . S
C3325 C3320 1.379 . S
C3325 N3323 1.356 . S
N3326 C3318 1.356 . S
N3326 H3332 0.984 . S
N3326 H3333 0.984 . S
N3327 C3320 1.356 . S
N3327 H3330 0.984 . S
N3327 H3331 0.985 . S
H3328 N3323 0.984 . S
H3329 N3323 0.985 . S
H3330 N3327 0.984 . S
H3331 N3327 0.985 . S
H3332 N3326 0.984 . S
H3333 N3326 0.984 . S
H3334 N3322 0.984 . S
H3335 N3322 0.985 . S
C3336 C3337 1.363 1_655 S
C3336 C3342 1.379 1_556 S
C3336 N3344 1.342 1_656 S
C3337 C3336 1.363 1_455 S
C3337 C3343 1.363 . S
C3338 C3339 1.363 . S
C3338 C3343 1.379 1_655 S
C3338 N3345 1.356 . S
C3339 C3338 1.363 . S
C3339 C3342 1.363 1_556 S
N3340 C3342 1.356 . S
N3340 H3352 0.984 . S
N3340 H3353 0.985 . S
N3341 C3343 1.356 . S
N3341 H3346 0.984 . S
N3341 H3347 0.985 . S
C3342 C3336 1.379 1_554 S
C3342 C3339 1.363 1_554 S
C3342 N3340 1.356 . S
C3343 C3337 1.363 . S
C3343 C3338 1.379 1_455 S
C3343 N3341 1.356 . S
N3344 C3336 1.342 1_454 S
N3344 H3350 0.958 1_455 S
N3344 H3351 1.027 1_554 S
N3345 C3338 1.356 . S
N3345 H3348 0.984 . S
N3345 H3349 0.985 . S
H3346 N3341 0.984 . S
H3347 N3341 0.985 . S
H3348 N3345 0.984 . S
H3349 N3345 0.985 . S
H3350 N3344 0.958 1_655 S
H3351 N3344 1.027 1_556 S
H3352 N3340 0.984 . S
H3353 N3340 0.985 . S
C3354 C3355 1.363 . S
C3354 C3360 1.379 . S
C3354 N3362 1.356 . S
C3355 C3354 1.363 . S
C3355 C3361 1.363 . S
C3356 C3357 1.363 . S
C3356 C3361 1.379 . S
C3356 N3363 1.356 . S
C3357 C3356 1.363 . S
C3357 C3360 1.363 . S
N3358 C3360 1.356 . S
N3358 H3370 0.984 . S
N3358 H3371 0.985 . S
N3359 C3361 1.356 . S
N3359 H3364 0.984 . S
N3359 H3365 0.985 . S
C3360 C3354 1.379 . S
C3360 C3357 1.363 . S
C3360 N3358 1.356 . S
C3361 C3355 1.363 . S
C3361 C3356 1.379 . S
C3361 N3359 1.356 . S
N3362 C3354 1.356 . S
N3362 H3368 0.984 . S
N3362 H3369 0.984 . S
N3363 C3356 1.356 . S
N3363 H3366 0.984 . S
N3363 H3367 0.985 . S
H3364 N3359 0.984 . S
H3365 N3359 0.985 . S
H3366 N3363 0.984 . S
H3367 N3363 0.985 . S
H3368 N3362 0.984 . S
H3369 N3362 0.984 . S
H3370 N3358 0.984 . S
H3371 N3358 0.985 . S
C3372 C3373 1.363 1_455 S
C3372 C3378 1.379 . S
C3372 N3380 1.356 1_455 S
C3373 C3372 1.363 1_655 S
C3373 C3379 1.363 . S
C3374 C3375 1.363 . S
C3374 C3379 1.379 1_455 S
C3374 N3381 1.356 . S
C3375 C3374 1.363 . S
C3375 C3378 1.363 . S
N3376 C3378 1.356 . S
N3376 H3388 0.984 . S
N3376 H3389 0.985 . S
N3377 C3379 1.356 . S
N3377 H3382 0.984 . S
N3377 H3383 0.985 . S
C3378 C3372 1.379 . S
C3378 C3375 1.363 . S
C3378 N3376 1.356 . S
C3379 C3373 1.363 . S
C3379 C3374 1.379 1_655 S
C3379 N3377 1.356 . S
N3380 C3372 1.356 1_655 S
N3380 H3386 0.984 1_655 S
N3380 H3387 0.984 . S
N3381 C3374 1.356 . S
N3381 H3384 0.984 . S
N3381 H3385 0.985 . S
H3382 N3377 0.984 . S
H3383 N3377 0.985 . S
H3384 N3381 0.984 . S
H3385 N3381 0.985 . S
H3386 N3380 0.984 1_455 S
H3387 N3380 0.984 . S
H3388 N3376 0.984 . S
H3389 N3376 0.985 . S
C3390 C3391 1.363 . S
C3390 C3396 1.379 . S
C3390 N3398 1.356 . S
C3391 C3390 1.363 . S
C3391 C3397 1.363 1_554 S
C3392 C3393 1.363 1_556 S
C3392 C3397 1.379 . S
C3392 N3399 1.356 . S
C3393 C3392 1.363 1_554 S
C3393 C3396 1.363 . S
N3394 C3396 1.356 . S
N3394 H3406 0.984 . S
N3394 H3407 0.985 . S
N3395 C3397 1.356 . S
N3395 H3400 0.984 . S
N3395 H3401 0.985 . S
C3396 C3390 1.379 . S
C3396 C3393 1.363 . S
C3396 N3394 1.356 . S
C3397 C3391 1.363 1_556 S
C3397 C3392 1.379 . S
C3397 N3395 1.356 . S
N3398 C3390 1.356 . S
N3398 H3404 0.984 . S
N3398 H3405 0.984 . S
N3399 C3392 1.356 . S
N3399 H3402 0.984 . S
N3399 H3403 0.985 . S
H3400 N3395 0.984 . S
H3401 N3395 0.985 . S
H3402 N3399 0.984 . S
H3403 N3399 0.985 . S
H3404 N3398 0.984 . S
H3405 N3398 0.984 . S
H3406 N3394 0.984 . S
H3407 N3394 0.985 . S
C3408 C3409 1.363 . S
C3408 C3414 1.379 . S
C3408 N3416 1.356 . S
C3409 C3408 1.363 . S
C3409 C3415 1.363 . S
C3410 C3411 1.363 . S
C3410 C3415 1.379 . S
C3410 N3417 1.356 . S
C3411 C3410 1.363 . S
C3411 C3414 1.363 . S
N3412 C3414 1.356 . S
N3412 H3424 0.984 . S
N3412 H3425 0.985 . S
N3413 C3415 1.356 . S
N3413 H3418 0.984 . S
N3413 H3419 0.985 . S
C3414 C3408 1.379 . S
C3414 C3411 1.363 . S
C3414 N3412 1.356 . S
C3415 C3409 1.363 . S
C3415 C3410 1.379 . S
C3415 N3413 1.356 . S
N3416 C3408 1.356 . S
N3416 H3422 0.984 . S
N3416 H3423 0.984 . S
N3417 C3410 1.356 . S
N3417 H3420 0.984 . S
N3417 H3421 0.985 . S
H3418 N3413 0.984 . S
H3419 N3413 0.985 . S
H3420 N3417 0.984 . S
H3421 N3417 0.985 . S
H3422 N3416 0.984 . S
H3423 N3416 0.984 . S
H3424 N3412 0.984 . S
H3425 N3412 0.985 . S
C3426 C3427 1.363 . S
C3426 C3432 1.379 . S
C3426 N3434 1.356 . S
C3427 C3426 1.363 . S
C3427 C3433 1.363 . S
C3428 C3429 1.363 . S
C3428 C3433 1.379 . S
C3428 N3435 1.356 1_554 S
C3429 C3428 1.363 . S
C3429 C3432 1.363 . S
N3430 C3432 1.356 . S
N3430 H3442 0.984 . S
N3430 H3443 0.969 1_554 S
N3431 C3433 1.356 . S
N3431 H3436 0.984 . S
N3431 H3437 0.985 . S
C3432 C3426 1.379 . S
C3432 C3429 1.363 . S
C3432 N3430 1.356 . S
C3433 C3427 1.363 . S
C3433 C3428 1.379 . S
C3433 N3431 1.356 . S
N3434 C3426 1.356 . S
N3434 H3440 0.984 . S
N3434 H3441 0.984 . S
N3435 C3428 1.356 1_556 S
N3435 H3438 0.984 . S
N3435 H3439 0.985 . S
H3436 N3431 0.984 . S
H3437 N3431 0.985 . S
H3438 N3435 0.984 . S
H3439 N3435 0.985 . S
H3440 N3434 0.984 . S
H3441 N3434 0.984 . S
H3442 N3430 0.984 . S
H3443 N3430 0.969 1_556 S
C3444 C3445 1.363 . S
C3444 C3450 1.379 . S
C3444 N3452 1.356 . S
C3445 C3444 1.363 . S
C3445 C3451 1.363 . S
C3446 C3447 1.363 . S
C3446 C3451 1.379 . S
C3446 N3453 1.356 . S
C3447 C3446 1.363 . S
C3447 C3450 1.363 . S
N3448 C3450 1.356 . S
N3448 H3460 0.984 . S
N3448 H3461 0.985 . S
N3449 C3451 1.356 . S
N3449 H3454 0.984 . S
N3449 H3455 0.985 . S
C3450 C3444 1.379 . S
C3450 C3447 1.363 . S
C3450 N3448 1.356 . S
C3451 C3445 1.363 . S
C3451 C3446 1.379 . S
C3451 N3449 1.356 . S
N3452 C3444 1.356 . S
N3452 H3458 0.984 . S
N3452 H3459 0.984 . S
N3453 C3446 1.356 . S
N3453 H3456 0.984 . S
N3453 H3457 0.985 . S
H3454 N3449 0.984 . S
H3455 N3449 0.985 . S
H3456 N3453 0.984 . S
H3457 N3453 0.985 . S
H3458 N3452 0.984 . S
H3459 N3452 0.984 . S
H3460 N3448 0.984 . S
H3461 N3448 0.985 . S
C3462 C3463 1.363 . S
C3462 C3468 1.379 . S
C3462 N3470 1.356 . S
C3463 C3462 1.363 . S
C3463 C3469 1.363 . S
C3464 C3465 1.363 . S
C3464 C3469 1.379 . S
C3464 N3471 1.356 . S
C3465 C3464 1.363 . S
C3465 C3468 1.363 . S
N3466 C3468 1.356 . S
N3466 H3478 0.984 . S
N3466 H3479 0.985 . S
N3467 C3469 1.356 . S
N3467 H3472 0.984 . S
N3467 H3473 0.985 . S
C3468 C3462 1.379 . S
C3468 C3465 1.363 . S
C3468 N3466 1.356 . S
C3469 C3463 1.363 . S
C3469 C3464 1.379 . S
C3469 N3467 1.356 . S
N3470 C3462 1.356 . S
N3470 H3476 0.984 . S
N3470 H3477 0.984 . S
N3471 C3464 1.356 . S
N3471 H3474 0.984 . S
N3471 H3475 0.985 . S
H3472 N3467 0.984 . S
H3473 N3467 0.985 . S
H3474 N3471 0.984 . S
H3475 N3471 0.985 . S
H3476 N3470 0.984 . S
H3477 N3470 0.984 . S
H3478 N3466 0.984 . S
H3479 N3466 0.985 . S
C3480 C3481 1.363 . S
C3480 C3486 1.379 . S
C3480 N3488 1.356 . S
C3481 C3480 1.363 . S
C3481 C3487 1.363 . S
C3482 C3483 1.363 . S
C3482 C3487 1.379 . S
C3482 N3489 1.356 . S
C3483 C3482 1.363 . S
C3483 C3486 1.363 . S
N3484 C3486 1.356 . S
N3484 H3496 0.984 . S
N3484 H3497 0.985 . S
N3485 C3487 1.356 . S
N3485 H3490 0.984 . S
N3485 H3491 0.985 . S
C3486 C3480 1.379 . S
C3486 C3483 1.363 . S
C3486 N3484 1.356 . S
C3487 C3481 1.363 . S
C3487 C3482 1.379 . S
C3487 N3485 1.356 . S
N3488 C3480 1.356 . S
N3488 H3494 0.984 . S
N3488 H3495 0.984 . S
N3489 C3482 1.356 . S
N3489 H3492 0.984 . S
N3489 H3493 0.985 . S
H3490 N3485 0.984 . S
H3491 N3485 0.985 . S
H3492 N3489 0.984 . S
H3493 N3489 0.985 . S
H3494 N3488 0.984 . S
H3495 N3488 0.984 . S
H3496 N3484 0.984 . S
H3497 N3484 0.985 . S
C3498 C3499 1.363 . S
C3498 C3504 1.379 . S
C3498 N3506 1.356 . S
C3499 C3498 1.363 . S
C3499 C3505 1.363 . S
C3500 C3501 1.363 . S
C3500 C3505 1.379 . S
C3500 N3507 1.356 . S
C3501 C3500 1.363 . S
C3501 C3504 1.363 . S
N3502 C3504 1.356 1_554 S
N3502 H3514 0.984 . S
N3502 H3515 0.985 . S
N3503 C3505 1.356 . S
N3503 H3508 0.984 . S
N3503 H3509 0.985 . S
C3504 C3498 1.379 . S
C3504 C3501 1.363 . S
C3504 N3502 1.356 1_556 S
C3505 C3499 1.363 . S
C3505 C3500 1.379 . S
C3505 N3503 1.356 . S
N3506 C3498 1.356 . S
N3506 H3512 0.984 . S
N3506 H3513 0.984 . S
N3507 C3500 1.356 . S
N3507 H3510 0.984 1_556 S
N3507 H3511 0.985 . S
H3508 N3503 0.984 . S
H3509 N3503 0.985 . S
H3510 N3507 0.984 1_554 S
H3511 N3507 0.985 . S
H3512 N3506 0.984 . S
H3513 N3506 0.984 . S
H3514 N3502 0.984 . S
H3515 N3502 0.985 . S
C3516 C3517 1.363 . S
C3516 C3522 1.379 . S
C3516 N3524 1.356 . S
C3517 C3516 1.363 . S
C3517 C3523 1.363 . S
C3518 C3519 1.363 . S
C3518 C3523 1.379 . S
C3518 N3525 1.356 . S
C3519 C3518 1.363 . S
C3519 C3522 1.363 . S
N3520 C3522 1.356 . S
N3520 H3532 0.984 . S
N3520 H3533 0.985 . S
N3521 C3523 1.356 . S
N3521 H3526 0.984 . S
N3521 H3527 0.985 . S
C3522 C3516 1.379 . S
C3522 C3519 1.363 . S
C3522 N3520 1.356 . S
C3523 C3517 1.363 . S
C3523 C3518 1.379 . S
C3523 N3521 1.356 . S
N3524 C3516 1.356 . S
N3524 H3530 0.984 . S
N3524 H3531 0.984 . S
N3525 C3518 1.356 . S
N3525 H3528 0.984 . S
N3525 H3529 0.985 . S
H3526 N3521 0.984 . S
H3527 N3521 0.985 . S
H3528 N3525 0.984 . S
H3529 N3525 0.985 . S
H3530 N3524 0.984 . S
H3531 N3524 0.984 . S
H3532 N3520 0.984 . S
H3533 N3520 0.985 . S
C3534 C3535 1.363 . S
C3534 C3540 1.379 . S
C3534 N3542 1.356 . S
C3535 C3534 1.363 . S
C3535 C3541 1.363 . S
C3536 C3537 1.363 . S
C3536 C3541 1.379 . S
C3536 N3543 1.356 . S
C3537 C3536 1.363 . S
C3537 C3540 1.363 . S
N3538 C3540 1.356 . S
N3538 H3550 0.984 . S
N3538 H3551 0.985 . S
N3539 C3541 1.356 . S
N3539 H3544 0.984 . S
N3539 H3545 0.985 . S
C3540 C3534 1.379 . S
C3540 C3537 1.363 . S
C3540 N3538 1.356 . S
C3541 C3535 1.363 . S
C3541 C3536 1.379 . S
C3541 N3539 1.356 . S
N3542 C3534 1.356 . S
N3542 H3548 0.984 . S
N3542 H3549 0.984 . S
N3543 C3536 1.356 . S
N3543 H3546 0.984 . S
N3543 H3547 0.985 . S
H3544 N3539 0.984 . S
H3545 N3539 0.985 . S
H3546 N3543 0.984 . S
H3547 N3543 0.985 . S
H3548 N3542 0.984 . S
H3549 N3542 0.984 . S
H3550 N3538 0.984 . S
H3551 N3538 0.985 . S
C3552 C3553 1.363 . S
C3552 C3558 1.379 . S
C3552 N3560 1.356 . S
C3553 C3552 1.363 . S
C3553 C3559 1.363 . S
C3554 C3555 1.363 . S
C3554 C3559 1.379 . S
C3554 N3561 1.356 . S
C3555 C3554 1.363 . S
C3555 C3558 1.363 . S
N3556 C3558 1.356 . S
N3556 H3568 0.984 . S
N3556 H3569 0.985 . S
N3557 C3559 1.356 . S
N3557 H3562 0.984 . S
N3557 H3563 0.985 . S
C3558 C3552 1.379 . S
C3558 C3555 1.363 . S
C3558 N3556 1.356 . S
C3559 C3553 1.363 . S
C3559 C3554 1.379 . S
C3559 N3557 1.356 . S
N3560 C3552 1.356 . S
N3560 H3566 0.984 . S
N3560 H3567 0.984 . S
N3561 C3554 1.356 . S
N3561 H3564 0.984 . S
N3561 H3565 0.985 . S
H3562 N3557 0.984 . S
H3563 N3557 0.985 . S
H3564 N3561 0.984 . S
H3565 N3561 0.985 . S
H3566 N3560 0.984 . S
H3567 N3560 0.984 . S
H3568 N3556 0.984 . S
H3569 N3556 0.985 . S
C3570 C3571 1.363 . S
C3570 C3576 1.379 . S
C3570 N3578 1.356 . S
C3571 C3570 1.363 . S
C3571 C3577 1.363 . S
C3572 C3573 1.363 . S
C3572 C3577 1.379 . S
C3572 N3579 1.356 . S
C3573 C3572 1.363 . S
C3573 C3576 1.363 . S
N3574 C3576 1.356 . S
N3574 H3586 0.984 . S
N3574 H3587 0.985 . S
N3575 C3577 1.356 . S
N3575 H3580 0.984 . S
N3575 H3581 0.985 . S
C3576 C3570 1.379 . S
C3576 C3573 1.363 . S
C3576 N3574 1.356 . S
C3577 C3571 1.363 . S
C3577 C3572 1.379 . S
C3577 N3575 1.356 . S
N3578 C3570 1.356 . S
N3578 H3584 0.984 . S
N3578 H3585 0.984 . S
N3579 C3572 1.356 . S
N3579 H3582 0.984 . S
N3579 H3583 0.985 . S
H3580 N3575 0.984 . S
H3581 N3575 0.985 . S
H3582 N3579 0.984 . S
H3583 N3579 0.985 . S
H3584 N3578 0.984 . S
H3585 N3578 0.984 . S
H3586 N3574 0.984 . S
H3587 N3574 0.985 . S
C3588 C3589 1.363 . S
C3588 C3594 1.379 . S
C3588 N3596 1.356 . S
C3589 C3588 1.363 . S
C3589 C3595 1.363 . S
C3590 C3591 1.363 . S
C3590 C3595 1.379 . S
C3590 N3597 1.356 . S
C3591 C3590 1.363 . S
C3591 C3594 1.363 . S
N3592 C3594 1.356 . S
N3592 H3604 0.984 . S
N3592 H3605 0.985 . S
N3593 C3595 1.356 . S
N3593 H3598 0.984 . S
N3593 H3599 0.985 . S
C3594 C3588 1.379 . S
C3594 C3591 1.363 . S
C3594 N3592 1.356 . S
C3595 C3589 1.363 . S
C3595 C3590 1.379 . S
C3595 N3593 1.356 . S
N3596 C3588 1.356 . S
N3596 H3602 0.984 . S
N3596 H3603 0.984 . S
N3597 C3590 1.356 . S
N3597 H3600 0.984 . S
N3597 H3601 0.985 . S
H3598 N3593 0.984 . S
H3599 N3593 0.985 . S
H3600 N3597 0.984 . S
H3601 N3597 0.985 . S
H3602 N3596 0.984 . S
H3603 N3596 0.984 . S
H3604 N3592 0.984 . S
H3605 N3592 0.985 . S
C3606 C3607 1.363 . S
C3606 C3612 1.379 . S
C3606 N3614 1.356 . S
C3607 C3606 1.363 . S
C3607 C3613 1.363 . S
C3608 C3609 1.363 . S
C3608 C3613 1.379 . S
C3608 N3615 1.356 . S
C3609 C3608 1.363 . S
C3609 C3612 1.363 . S
N3610 C3612 1.356 . S
N3610 H3622 0.984 . S
N3610 H3623 0.985 . S
N3611 C3613 1.356 . S
N3611 H3616 0.984 . S
N3611 H3617 0.985 . S
C3612 C3606 1.379 . S
C3612 C3609 1.363 . S
C3612 N3610 1.356 . S
C3613 C3607 1.363 . S
C3613 C3608 1.379 . S
C3613 N3611 1.356 . S
N3614 C3606 1.356 . S
N3614 H3620 0.984 . S
N3614 H3621 0.984 . S
N3615 C3608 1.356 . S
N3615 H3618 0.984 . S
N3615 H3619 0.985 . S
H3616 N3611 0.984 . S
H3617 N3611 0.985 . S
H3618 N3615 0.984 . S
H3619 N3615 0.985 . S
H3620 N3614 0.984 . S
H3621 N3614 0.984 . S
H3622 N3610 0.984 . S
H3623 N3610 0.985 . S
C3624 C3625 1.363 . S
C3624 C3630 1.379 . S
C3624 N3632 1.356 . S
C3625 C3624 1.363 . S
C3625 C3631 1.363 . S
C3626 C3627 1.363 . S
C3626 C3631 1.379 . S
C3626 N3633 1.356 . S
C3627 C3626 1.363 . S
C3627 C3630 1.363 . S
N3628 C3630 1.356 . S
N3628 H3640 0.984 . S
N3628 H3641 0.985 . S
N3629 C3631 1.356 . S
N3629 H3634 0.984 . S
N3629 H3635 0.985 . S
C3630 C3624 1.379 . S
C3630 C3627 1.363 . S
C3630 N3628 1.356 . S
C3631 C3625 1.363 . S
C3631 C3626 1.379 . S
C3631 N3629 1.356 . S
N3632 C3624 1.356 . S
N3632 H3638 0.984 . S
N3632 H3639 0.984 . S
N3633 C3626 1.356 . S
N3633 H3636 0.984 . S
N3633 H3637 0.985 . S
H3634 N3629 0.984 . S
H3635 N3629 0.985 . S
H3636 N3633 0.984 . S
H3637 N3633 0.985 . S
H3638 N3632 0.984 . S
H3639 N3632 0.984 . S
H3640 N3628 0.984 . S
H3641 N3628 0.985 . S
C3642 C3643 1.363 . S
C3642 C3648 1.379 . S
C3642 N3650 1.356 . S
C3643 C3642 1.363 . S
C3643 C3649 1.363 . S
C3644 C3645 1.363 . S
C3644 C3649 1.379 . S
C3644 N3651 1.356 . S
C3645 C3644 1.363 . S
C3645 C3648 1.363 . S
N3646 C3648 1.356 . S
N3646 H3658 0.984 . S
N3646 H3659 0.985 . S
N3647 C3649 1.356 . S
N3647 H3652 0.984 . S
N3647 H3653 0.985 . S
C3648 C3642 1.379 . S
C3648 C3645 1.363 . S
C3648 N3646 1.356 . S
C3649 C3643 1.363 . S
C3649 C3644 1.379 . S
C3649 N3647 1.356 . S
N3650 C3642 1.356 . S
N3650 H3656 0.984 . S
N3650 H3657 0.984 . S
N3651 C3644 1.356 . S
N3651 H3654 0.984 . S
N3651 H3655 0.985 . S
H3652 N3647 0.984 . S
H3653 N3647 0.985 . S
H3654 N3651 0.984 . S
H3655 N3651 0.985 . S
H3656 N3650 0.984 . S
H3657 N3650 0.984 . S
H3658 N3646 0.984 . S
H3659 N3646 0.985 . S
C3660 C3661 1.363 . S
C3660 C3666 1.379 . S
C3660 N3668 1.356 . S
C3661 C3660 1.363 . S
C3661 C3667 1.363 . S
C3662 C3663 1.363 . S
C3662 C3667 1.379 . S
C3662 N3669 1.356 . S
C3663 C3662 1.363 . S
C3663 C3666 1.363 . S
N3664 C3666 1.356 . S
N3664 H3676 0.984 . S
N3664 H3677 0.985 . S
N3665 C3667 1.356 . S
N3665 H3670 0.984 . S
N3665 H3671 0.985 . S
C3666 C3660 1.379 . S
C3666 C3663 1.363 . S
C3666 N3664 1.356 . S
C3667 C3661 1.363 . S
C3667 C3662 1.379 . S
C3667 N3665 1.356 . S
N3668 C3660 1.356 . S
N3668 H3674 0.984 . S
N3668 H3675 0.984 . S
N3669 C3662 1.356 . S
N3669 H3672 0.984 . S
N3669 H3673 0.985 . S
H3670 N3665 0.984 . S
H3671 N3665 0.985 . S
H3672 N3669 0.984 . S
H3673 N3669 0.985 . S
H3674 N3668 0.984 . S
H3675 N3668 0.984 . S
H3676 N3664 0.984 . S
H3677 N3664 0.985 . S
C3678 C3679 1.363 . S
C3678 C3684 1.379 . S
C3678 N3686 1.356 . S
C3679 C3678 1.363 . S
C3679 C3685 1.363 . S
C3680 C3681 1.363 . S
C3680 C3685 1.379 . S
C3680 N3687 1.356 . S
C3681 C3680 1.363 . S
C3681 C3684 1.363 . S
N3682 C3684 1.356 . S
N3682 H3694 0.984 . S
N3682 H3695 0.985 . S
N3683 C3685 1.356 . S
N3683 H3688 0.984 . S
N3683 H3689 0.985 . S
C3684 C3678 1.379 . S
C3684 C3681 1.363 . S
C3684 N3682 1.356 . S
C3685 C3679 1.363 . S
C3685 C3680 1.379 . S
C3685 N3683 1.356 . S
N3686 C3678 1.356 . S
N3686 H3692 0.984 . S
N3686 H3693 0.984 . S
N3687 C3680 1.356 . S
N3687 H3690 0.984 . S
N3687 H3691 0.985 . S
H3688 N3683 0.984 . S
H3689 N3683 0.985 . S
H3690 N3687 0.984 . S
H3691 N3687 0.985 . S
H3692 N3686 0.984 . S
H3693 N3686 0.984 . S
H3694 N3682 0.984 . S
H3695 N3682 0.985 . S
C3696 C3697 1.363 . S
C3696 C3702 1.379 . S
C3696 N3704 1.356 . S
C3697 C3696 1.363 . S
C3697 C3703 1.363 . S
C3698 C3699 1.363 . S
C3698 C3703 1.379 . S
C3698 N3705 1.356 . S
C3699 C3698 1.363 . S
C3699 C3702 1.363 . S
N3700 C3702 1.356 . S
N3700 H3712 0.984 . S
N3700 H3713 0.985 . S
N3701 C3703 1.356 . S
N3701 H3706 0.984 . S
N3701 H3707 0.985 . S
C3702 C3696 1.379 . S
C3702 C3699 1.363 . S
C3702 N3700 1.356 . S
C3703 C3697 1.363 . S
C3703 C3698 1.379 . S
C3703 N3701 1.356 . S
N3704 C3696 1.356 . S
N3704 H3710 0.984 . S
N3704 H3711 0.984 . S
N3705 C3698 1.356 . S
N3705 H3708 0.984 . S
N3705 H3709 0.985 . S
H3706 N3701 0.984 . S
H3707 N3701 0.985 . S
H3708 N3705 0.984 . S
H3709 N3705 0.985 . S
H3710 N3704 0.984 . S
H3711 N3704 0.984 . S
H3712 N3700 0.984 . S
H3713 N3700 0.985 . S
C3714 C3715 1.363 . S
C3714 C3720 1.379 . S
C3714 N3722 1.356 . S
C3715 C3714 1.363 . S
C3715 C3721 1.363 . S
C3716 C3717 1.363 . S
C3716 C3721 1.379 . S
C3716 N3723 1.356 . S
C3717 C3716 1.363 . S
C3717 C3720 1.363 . S
N3718 C3720 1.356 . S
N3718 H3730 0.984 . S
N3718 H3731 0.985 . S
N3719 C3721 1.356 . S
N3719 H3724 0.984 . S
N3719 H3725 0.985 . S
C3720 C3714 1.379 . S
C3720 C3717 1.363 . S
C3720 N3718 1.356 . S
C3721 C3715 1.363 . S
C3721 C3716 1.379 . S
C3721 N3719 1.356 . S
N3722 C3714 1.356 . S
N3722 H3728 0.984 . S
N3722 H3729 0.984 . S
N3723 C3716 1.356 . S
N3723 H3726 0.984 . S
N3723 H3727 0.985 . S
H3724 N3719 0.984 . S
H3725 N3719 0.985 . S
H3726 N3723 0.984 . S
H3727 N3723 0.985 . S
H3728 N3722 0.984 . S
H3729 N3722 0.984 . S
H3730 N3718 0.984 . S
H3731 N3718 0.985 . S
C3732 C3733 1.363 . S
C3732 C3738 1.379 . S
C3732 N3740 1.356 . S
C3733 C3732 1.363 . S
C3733 C3739 1.363 . S
C3734 C3735 1.363 . S
C3734 C3739 1.379 . S
C3734 N3741 1.356 . S
C3735 C3734 1.363 . S
C3735 C3738 1.363 . S
N3736 C3738 1.356 . S
N3736 H3748 0.984 . S
N3736 H3749 0.985 . S
N3737 C3739 1.356 . S
N3737 H3742 0.984 . S
N3737 H3743 0.985 . S
C3738 C3732 1.379 . S
C3738 C3735 1.363 . S
C3738 N3736 1.356 . S
C3739 C3733 1.363 . S
C3739 C3734 1.379 . S
C3739 N3737 1.356 . S
N3740 C3732 1.356 . S
N3740 H3746 0.984 . S
N3740 H3747 0.984 . S
N3741 C3734 1.356 . S
N3741 H3744 0.984 . S
N3741 H3745 0.985 . S
H3742 N3737 0.984 . S
H3743 N3737 0.985 . S
H3744 N3741 0.984 . S
H3745 N3741 0.985 . S
H3746 N3740 0.984 . S
H3747 N3740 0.984 . S
H3748 N3736 0.984 . S
H3749 N3736 0.985 . S
C3750 C3751 1.363 . S
C3750 C3756 1.379 . S
C3750 N3758 1.356 . S
C3751 C3750 1.363 . S
C3751 C3757 1.363 . S
C3752 C3753 1.363 . S
C3752 C3757 1.379 . S
C3752 N3759 1.356 . S
C3753 C3752 1.363 . S
C3753 C3756 1.363 . S
N3754 C3756 1.356 . S
N3754 H3766 0.984 . S
N3754 H3767 0.985 . S
N3755 C3757 1.356 . S
N3755 H3760 0.984 . S
N3755 H3761 0.985 . S
C3756 C3750 1.379 . S
C3756 C3753 1.363 . S
C3756 N3754 1.356 . S
C3757 C3751 1.363 . S
C3757 C3752 1.379 . S
C3757 N3755 1.356 . S
N3758 C3750 1.356 . S
N3758 H3764 0.984 . S
N3758 H3765 0.984 . S
N3759 C3752 1.356 . S
N3759 H3762 0.984 . S
N3759 H3763 0.985 . S
H3760 N3755 0.984 . S
H3761 N3755 0.985 . S
H3762 N3759 0.984 . S
H3763 N3759 0.985 . S
H3764 N3758 0.984 . S
H3765 N3758 0.984 . S
H3766 N3754 0.984 . S
H3767 N3754 0.985 . S
C3768 C3769 1.363 . S
C3768 C3774 1.379 . S
C3768 N3776 1.356 . S
C3769 C3768 1.363 . S
C3769 C3775 1.363 . S
C3770 C3771 1.363 . S
C3770 C3775 1.379 . S
C3770 N3777 1.356 . S
C3771 C3770 1.363 . S
C3771 C3774 1.363 . S
N3772 C3774 1.356 . S
N3772 H3784 0.984 . S
N3772 H3785 0.985 . S
N3773 C3775 1.356 . S
N3773 H3778 0.984 . S
N3773 H3779 0.985 . S
C3774 C3768 1.379 . S
C3774 C3771 1.363 . S
C3774 N3772 1.356 . S
C3775 C3769 1.363 . S
C3775 C3770 1.379 . S
C3775 N3773 1.356 . S
N3776 C3768 1.356 . S
N3776 H3782 0.984 . S
N3776 H3783 0.984 . S
N3777 C3770 1.356 . S
N3777 H3780 0.984 . S
N3777 H3781 0.985 . S
H3778 N3773 0.984 . S
H3779 N3773 0.985 . S
H3780 N3777 0.984 . S
H3781 N3777 0.985 . S
H3782 N3776 0.984 . S
H3783 N3776 0.984 . S
H3784 N3772 0.984 . S
H3785 N3772 0.985 . S
C3786 C3787 1.363 . S
C3786 C3792 1.379 . S
C3786 N3794 1.356 . S
C3787 C3786 1.363 . S
C3787 C3793 1.363 . S
C3788 C3789 1.363 . S
C3788 C3793 1.379 . S
C3788 N3795 1.356 . S
C3789 C3788 1.363 . S
C3789 C3792 1.363 . S
N3790 C3792 1.356 . S
N3790 H3802 0.984 . S
N3790 H3803 0.985 . S
N3791 C3793 1.356 . S
N3791 H3796 0.984 . S
N3791 H3797 0.985 . S
C3792 C3786 1.379 . S
C3792 C3789 1.363 . S
C3792 N3790 1.356 . S
C3793 C3787 1.363 . S
C3793 C3788 1.379 . S
C3793 N3791 1.356 . S
N3794 C3786 1.356 . S
N3794 H3800 0.984 . S
N3794 H3801 0.984 . S
N3795 C3788 1.356 . S
N3795 H3798 0.984 . S
N3795 H3799 0.985 . S
H3796 N3791 0.984 . S
H3797 N3791 0.985 . S
H3798 N3795 0.984 . S
H3799 N3795 0.985 . S
H3800 N3794 0.984 . S
H3801 N3794 0.984 . S
H3802 N3790 0.984 . S
H3803 N3790 0.985 . S
C3804 C3805 1.363 1_556 S
C3804 C3810 1.379 . S
C3804 N3812 1.356 . S
C3805 C3804 1.363 1_554 S
C3805 C3811 1.363 . S
C3806 C3807 1.363 . S
C3806 C3811 1.379 . S
C3806 N3813 1.356 . S
C3807 C3806 1.363 . S
C3807 C3810 1.363 1_554 S
N3808 C3810 1.356 . S
N3808 H3820 0.984 . S
N3808 H3821 0.985 . S
N3809 C3811 1.356 . S
N3809 H3814 0.984 . S
N3809 H3815 0.985 . S
C3810 C3804 1.379 . S
C3810 C3807 1.363 1_556 S
C3810 N3808 1.356 . S
C3811 C3805 1.363 . S
C3811 C3806 1.379 . S
C3811 N3809 1.356 . S
N3812 C3804 1.356 . S
N3812 H3818 0.984 . S
N3812 H3819 0.984 . S
N3813 C3806 1.356 . S
N3813 H3816 0.984 . S
N3813 H3817 0.985 . S
H3814 N3809 0.984 . S
H3815 N3809 0.985 . S
H3816 N3813 0.984 . S
H3817 N3813 0.985 . S
H3818 N3812 0.984 . S
H3819 N3812 0.984 . S
H3820 N3808 0.984 . S
H3821 N3808 0.985 . S
C3822 C3823 1.363 1_655 S
C3822 C3828 1.379 . S
C3822 N3830 1.356 1_655 S
C3823 C3822 1.363 1_455 S
C3823 C3829 1.363 . S
C3824 C3825 1.363 . S
C3824 C3829 1.379 1_655 S
C3824 N3831 1.356 . S
C3825 C3824 1.363 . S
C3825 C3828 1.363 . S
N3826 C3828 1.356 . S
N3826 H3838 0.984 . S
N3826 H3839 0.985 . S
N3827 C3829 1.356 . S
N3827 H3832 0.984 . S
N3827 H3833 0.985 . S
C3828 C3822 1.379 . S
C3828 C3825 1.363 . S
C3828 N3826 1.356 . S
C3829 C3823 1.363 . S
C3829 C3824 1.379 1_455 S
C3829 N3827 1.356 . S
N3830 C3822 1.356 1_455 S
N3830 H3836 0.984 1_455 S
N3830 H3837 0.984 . S
N3831 C3824 1.356 . S
N3831 H3834 0.984 . S
N3831 H3835 0.985 . S
H3832 N3827 0.984 . S
H3833 N3827 0.985 . S
H3834 N3831 0.984 . S
H3835 N3831 0.985 . S
H3836 N3830 0.984 1_655 S
H3837 N3830 0.984 . S
H3838 N3826 0.984 . S
H3839 N3826 0.985 . S
C3840 C3841 1.363 . S
C3840 C3846 1.379 . S
C3840 N3848 1.356 . S
C3841 C3840 1.363 . S
C3841 C3847 1.363 . S
C3842 C3843 1.363 . S
C3842 C3847 1.379 . S
C3842 N3849 1.356 . S
C3843 C3842 1.363 . S
C3843 C3846 1.363 . S
N3844 C3846 1.356 . S
N3844 H3856 0.984 . S
N3844 H3857 0.985 . S
N3845 C3847 1.356 . S
N3845 H3850 0.984 . S
N3845 H3851 0.985 . S
C3846 C3840 1.379 . S
C3846 C3843 1.363 . S
C3846 N3844 1.356 . S
C3847 C3841 1.363 . S
C3847 C3842 1.379 . S
C3847 N3845 1.356 . S
N3848 C3840 1.356 . S
N3848 H3854 0.984 . S
N3848 H3855 0.984 . S
N3849 C3842 1.356 . S
N3849 H3852 0.984 . S
N3849 H3853 0.985 . S
H3850 N3845 0.984 . S
H3851 N3845 0.985 . S
H3852 N3849 0.984 . S
H3853 N3849 0.985 . S
H3854 N3848 0.984 . S
H3855 N3848 0.984 . S
H3856 N3844 0.984 . S
H3857 N3844 0.985 . S
C3858 C3859 1.363 . S
C3858 C3864 1.379 . S
C3858 N3866 1.356 . S
C3859 C3858 1.363 . S
C3859 C3865 1.363 . S
C3860 C3861 1.363 . S
C3860 C3865 1.379 . S
C3860 N3867 1.356 . S
C3861 C3860 1.363 . S
C3861 C3864 1.363 . S
N3862 C3864 1.356 . S
N3862 H3874 0.984 . S
N3862 H3875 0.985 . S
N3863 C3865 1.356 . S
N3863 H3868 0.984 . S
N3863 H3869 0.985 . S
C3864 C3858 1.379 . S
C3864 C3861 1.363 . S
C3864 N3862 1.356 . S
C3865 C3859 1.363 . S
C3865 C3860 1.379 . S
C3865 N3863 1.356 . S
N3866 C3858 1.356 . S
N3866 H3872 0.984 . S
N3866 H3873 0.984 . S
N3867 C3860 1.356 . S
N3867 H3870 0.984 . S
N3867 H3871 0.985 . S
H3868 N3863 0.984 . S
H3869 N3863 0.985 . S
H3870 N3867 0.984 . S
H3871 N3867 0.985 . S
H3872 N3866 0.984 . S
H3873 N3866 0.984 . S
H3874 N3862 0.984 . S
H3875 N3862 0.985 . S
C3876 C3877 1.363 . S
C3876 C3882 1.379 . S
C3876 N3884 1.356 . S
C3877 C3876 1.363 . S
C3877 C3883 1.363 . S
C3878 C3879 1.363 . S
C3878 C3883 1.379 . S
C3878 N3885 1.356 . S
C3879 C3878 1.363 . S
C3879 C3882 1.363 . S
N3880 C3882 1.356 . S
N3880 H3892 0.984 . S
N3880 H3893 0.985 . S
N3881 C3883 1.356 . S
N3881 H3886 0.984 . S
N3881 H3887 0.985 . S
C3882 C3876 1.379 . S
C3882 C3879 1.363 . S
C3882 N3880 1.356 . S
C3883 C3877 1.363 . S
C3883 C3878 1.379 . S
C3883 N3881 1.356 . S
N3884 C3876 1.356 . S
N3884 H3890 0.984 . S
N3884 H3891 0.984 . S
N3885 C3878 1.356 . S
N3885 H3888 0.984 . S
N3885 H3889 0.985 . S
H3886 N3881 0.984 . S
H3887 N3881 0.985 . S
H3888 N3885 0.984 . S
H3889 N3885 0.985 . S
H3890 N3884 0.984 . S
H3891 N3884 0.984 . S
H3892 N3880 0.984 . S
H3893 N3880 0.985 . S
C3894 C3895 1.363 . S
C3894 C3900 1.379 . S
C3894 N3902 1.356 . S
C3895 C3894 1.363 . S
C3895 C3901 1.363 . S
C3896 C3897 1.363 . S
C3896 C3901 1.379 . S
C3896 N3903 1.356 . S
C3897 C3896 1.363 . S
C3897 C3900 1.363 . S
N3898 C3900 1.356 . S
N3898 H3910 0.984 . S
N3898 H3911 0.985 . S
N3899 C3901 1.356 . S
N3899 H3904 0.984 . S
N3899 H3905 0.985 . S
C3900 C3894 1.379 . S
C3900 C3897 1.363 . S
C3900 N3898 1.356 . S
C3901 C3895 1.363 . S
C3901 C3896 1.379 . S
C3901 N3899 1.356 . S
N3902 C3894 1.356 . S
N3902 H3908 0.984 . S
N3902 H3909 0.984 . S
N3903 C3896 1.356 . S
N3903 H3906 0.984 . S
N3903 H3907 0.985 . S
H3904 N3899 0.984 . S
H3905 N3899 0.985 . S
H3906 N3903 0.984 . S
H3907 N3903 0.985 . S
H3908 N3902 0.984 . S
H3909 N3902 0.984 . S
H3910 N3898 0.984 . S
H3911 N3898 0.985 . S
C3912 C3913 1.363 . S
C3912 C3918 1.379 . S
C3912 N3920 1.356 . S
C3913 C3912 1.363 . S
C3913 C3919 1.363 . S
C3914 C3915 1.363 . S
C3914 C3919 1.379 . S
C3914 N3921 1.356 . S
C3915 C3914 1.363 . S
C3915 C3918 1.363 . S
N3916 C3918 1.356 . S
N3916 H3928 0.984 . S
N3916 H3929 0.985 . S
N3917 C3919 1.356 . S
N3917 H3922 0.984 . S
N3917 H3923 0.985 . S
C3918 C3912 1.379 . S
C3918 C3915 1.363 . S
C3918 N3916 1.356 . S
C3919 C3913 1.363 . S
C3919 C3914 1.379 . S
C3919 N3917 1.356 . S
N3920 C3912 1.356 . S
N3920 H3926 0.984 . S
N3920 H3927 0.984 . S
N3921 C3914 1.356 . S
N3921 H3924 0.984 . S
N3921 H3925 0.985 . S
H3922 N3917 0.984 . S
H3923 N3917 0.985 . S
H3924 N3921 0.984 . S
H3925 N3921 0.985 . S
H3926 N3920 0.984 . S
H3927 N3920 0.984 . S
H3928 N3916 0.984 . S
H3929 N3916 0.985 . S
C3930 C3931 1.363 . S
C3930 C3936 1.379 . S
C3930 N3938 1.356 . S
C3931 C3930 1.363 . S
C3931 C3937 1.363 . S
C3932 C3933 1.363 . S
C3932 C3937 1.379 . S
C3932 N3939 1.356 . S
C3933 C3932 1.363 . S
C3933 C3936 1.363 . S
N3934 C3936 1.356 . S
N3934 H3946 0.984 . S
N3934 H3947 0.985 . S
N3935 C3937 1.356 . S
N3935 H3940 0.984 . S
N3935 H3941 0.985 . S
C3936 C3930 1.379 . S
C3936 C3933 1.363 . S
C3936 N3934 1.356 . S
C3937 C3931 1.363 . S
C3937 C3932 1.379 . S
C3937 N3935 1.356 . S
N3938 C3930 1.356 . S
N3938 H3944 0.984 . S
N3938 H3945 0.984 . S
N3939 C3932 1.356 . S
N3939 H3942 0.984 . S
N3939 H3943 0.985 . S
H3940 N3935 0.984 . S
H3941 N3935 0.985 . S
H3942 N3939 0.984 . S
H3943 N3939 0.985 . S
H3944 N3938 0.984 . S
H3945 N3938 0.984 . S
H3946 N3934 0.984 . S
H3947 N3934 0.985 . S
C3948 C3949 1.363 . S
C3948 C3954 1.379 . S
C3948 N3956 1.356 . S
C3949 C3948 1.363 . S
C3949 C3955 1.363 . S
C3950 C3951 1.363 . S
C3950 C3955 1.379 . S
C3950 N3957 1.356 . S
C3951 C3950 1.363 . S
C3951 C3954 1.363 . S
N3952 C3954 1.356 . S
N3952 H3964 0.984 . S
N3952 H3965 0.985 . S
N3953 C3955 1.356 . S
N3953 H3958 0.984 . S
N3953 H3959 0.985 . S
C3954 C3948 1.379 . S
C3954 C3951 1.363 . S
C3954 N3952 1.356 . S
C3955 C3949 1.363 . S
C3955 C3950 1.379 . S
C3955 N3953 1.356 . S
N3956 C3948 1.356 . S
N3956 H3962 0.984 . S
N3956 H3963 0.984 . S
N3957 C3950 1.356 . S
N3957 H3960 0.984 . S
N3957 H3961 0.985 . S
H3958 N3953 0.984 . S
H3959 N3953 0.985 . S
H3960 N3957 0.984 . S
H3961 N3957 0.985 . S
H3962 N3956 0.984 . S
H3963 N3956 0.984 . S
H3964 N3952 0.984 . S
H3965 N3952 0.985 . S
C3966 C3967 1.363 . S
C3966 C3972 1.379 . S
C3966 N3974 1.356 . S
C3967 C3966 1.363 . S
C3967 C3973 1.363 . S
C3968 C3969 1.363 . S
C3968 C3973 1.379 . S
C3968 N3975 1.356 . S
C3969 C3968 1.363 . S
C3969 C3972 1.363 . S
N3970 C3972 1.356 . S
N3970 H3982 0.984 . S
N3970 H3983 0.985 . S
N3971 C3973 1.356 . S
N3971 H3976 0.984 . S
N3971 H3977 0.985 . S
C3972 C3966 1.379 . S
C3972 C3969 1.363 . S
C3972 N3970 1.356 . S
C3973 C3967 1.363 . S
C3973 C3968 1.379 . S
C3973 N3971 1.356 . S
N3974 C3966 1.356 . S
N3974 H3980 0.984 . S
N3974 H3981 0.984 . S
N3975 C3968 1.356 . S
N3975 H3978 0.984 . S
N3975 H3979 0.985 . S
H3976 N3971 0.984 . S
H3977 N3971 0.985 . S
H3978 N3975 0.984 . S
H3979 N3975 0.985 . S
H3980 N3974 0.984 . S
H3981 N3974 0.984 . S
H3982 N3970 0.984 . S
H3983 N3970 0.985 . S
C3984 C3985 1.363 . S
C3984 C3990 1.379 . S
C3984 N3992 1.356 . S
C3985 C3984 1.363 . S
C3985 C3991 1.363 . S
C3986 C3987 1.363 . S
C3986 C3991 1.379 . S
C3986 N3993 1.356 . S
C3987 C3986 1.363 . S
C3987 C3990 1.363 . S
N3988 C3990 1.356 . S
N3988 H4000 0.984 . S
N3988 H4001 0.985 . S
N3989 C3991 1.356 . S
N3989 H3994 0.984 . S
N3989 H3995 0.985 . S
C3990 C3984 1.379 . S
C3990 C3987 1.363 . S
C3990 N3988 1.356 . S
C3991 C3985 1.363 . S
C3991 C3986 1.379 . S
C3991 N3989 1.356 . S
N3992 C3984 1.356 . S
N3992 H3998 0.984 . S
N3992 H3999 0.984 . S
N3993 C3986 1.356 . S
N3993 H3996 0.984 . S
N3993 H3997 0.985 . S
H3994 N3989 0.984 . S
H3995 N3989 0.985 . S
H3996 N3993 0.984 . S
H3997 N3993 0.985 . S
H3998 N3992 0.984 . S
H3999 N3992 0.984 . S
H4000 N3988 0.984 . S
H4001 N3988 0.985 . S
C4002 C4003 1.363 . S
C4002 C4008 1.379 . S
C4002 N4010 1.356 . S
C4003 C4002 1.363 . S
C4003 C4009 1.363 . S
C4004 C4005 1.363 . S
C4004 C4009 1.379 . S
C4004 N4011 1.356 . S
C4005 C4004 1.363 . S
C4005 C4008 1.363 . S
N4006 C4008 1.356 . S
N4006 H4018 0.984 . S
N4006 H4019 0.985 . S
N4007 C4009 1.356 . S
N4007 H4012 0.984 . S
N4007 H4013 0.985 . S
C4008 C4002 1.379 . S
C4008 C4005 1.363 . S
C4008 N4006 1.356 . S
C4009 C4003 1.363 . S
C4009 C4004 1.379 . S
C4009 N4007 1.356 . S
N4010 C4002 1.356 . S
N4010 H4016 0.984 . S
N4010 H4017 0.984 . S
N4011 C4004 1.356 . S
N4011 H4014 0.984 . S
N4011 H4015 0.985 . S
H4012 N4007 0.984 . S
H4013 N4007 0.985 . S
H4014 N4011 0.984 . S
H4015 N4011 0.985 . S
H4016 N4010 0.984 . S
H4017 N4010 0.984 . S
H4018 N4006 0.984 . S
H4019 N4006 0.985 . S
C4020 C4021 1.363 . S
C4020 C4026 1.379 . S
C4020 N4028 1.356 . S
C4021 C4020 1.363 . S
C4021 C4027 1.363 . S
C4022 C4023 1.363 . S
C4022 C4027 1.379 . S
C4022 N4029 1.356 . S
C4023 C4022 1.363 . S
C4023 C4026 1.363 . S
N4024 C4026 1.356 . S
N4024 H4036 0.984 . S
N4024 H4037 0.985 . S
N4025 C4027 1.356 . S
N4025 H4030 0.984 . S
N4025 H4031 0.985 . S
C4026 C4020 1.379 . S
C4026 C4023 1.363 . S
C4026 N4024 1.356 . S
C4027 C4021 1.363 . S
C4027 C4022 1.379 . S
C4027 N4025 1.356 . S
N4028 C4020 1.356 . S
N4028 H4034 0.984 . S
N4028 H4035 0.984 . S
N4029 C4022 1.356 . S
N4029 H4032 0.984 . S
N4029 H4033 0.985 . S
H4030 N4025 0.984 . S
H4031 N4025 0.985 . S
H4032 N4029 0.984 . S
H4033 N4029 0.985 . S
H4034 N4028 0.984 . S
H4035 N4028 0.984 . S
H4036 N4024 0.984 . S
H4037 N4024 0.985 . S
C4038 C4039 1.363 . S
C4038 C4044 1.379 . S
C4038 N4046 1.356 . S
C4039 C4038 1.363 . S
C4039 C4045 1.363 . S
C4040 C4041 1.363 . S
C4040 C4045 1.379 . S
C4040 N4047 1.356 . S
C4041 C4040 1.363 . S
C4041 C4044 1.363 . S
N4042 C4044 1.356 . S
N4042 H4054 0.984 . S
N4042 H4055 0.985 . S
N4043 C4045 1.356 . S
N4043 H4048 0.984 . S
N4043 H4049 0.985 . S
C4044 C4038 1.379 . S
C4044 C4041 1.363 . S
C4044 N4042 1.356 . S
C4045 C4039 1.363 . S
C4045 C4040 1.379 . S
C4045 N4043 1.356 . S
N4046 C4038 1.356 . S
N4046 H4052 0.984 . S
N4046 H4053 0.984 . S
N4047 C4040 1.356 . S
N4047 H4050 0.984 . S
N4047 H4051 0.985 . S
H4048 N4043 0.984 . S
H4049 N4043 0.985 . S
H4050 N4047 0.984 . S
H4051 N4047 0.985 . S
H4052 N4046 0.984 . S
H4053 N4046 0.984 . S
H4054 N4042 0.984 . S
H4055 N4042 0.985 . S
C4056 C4057 1.363 . S
C4056 C4062 1.379 . S
C4056 N4064 1.356 . S
C4057 C4056 1.363 . S
C4057 C4063 1.363 . S
C4058 C4059 1.363 . S
C4058 C4063 1.379 . S
C4058 N4065 1.356 . S
C4059 C4058 1.363 . S
C4059 C4062 1.363 . S
N4060 C4062 1.356 . S
N4060 H4072 0.984 . S
N4060 H4073 0.985 . S
N4061 C4063 1.356 . S
N4061 H4066 0.984 . S
N4061 H4067 0.985 . S
C4062 C4056 1.379 . S
C4062 C4059 1.363 . S
C4062 N4060 1.356 . S
C4063 C4057 1.363 . S
C4063 C4058 1.379 . S
C4063 N4061 1.356 . S
N4064 C4056 1.356 . S
N4064 H4070 0.984 . S
N4064 H4071 0.984 . S
N4065 C4058 1.356 . S
N4065 H4068 0.984 . S
N4065 H4069 0.985 . S
H4066 N4061 0.984 . S
H4067 N4061 0.985 . S
H4068 N4065 0.984 . S
H4069 N4065 0.985 . S
H4070 N4064 0.984 . S
H4071 N4064 0.984 . S
H4072 N4060 0.984 . S
H4073 N4060 0.985 . S
C4074 C4075 1.363 . S
C4074 C4080 1.379 . S
C4074 N4082 1.356 . S
C4075 C4074 1.363 . S
C4075 C4081 1.363 . S
C4076 C4077 1.363 . S
C4076 C4081 1.379 . S
C4076 N4083 1.356 . S
C4077 C4076 1.363 . S
C4077 C4080 1.363 . S
N4078 C4080 1.356 . S
N4078 H4090 0.984 . S
N4078 H4091 0.985 . S
N4079 C4081 1.356 . S
N4079 H4084 0.984 . S
N4079 H4085 0.985 . S
C4080 C4074 1.379 . S
C4080 C4077 1.363 . S
C4080 N4078 1.356 . S
C4081 C4075 1.363 . S
C4081 C4076 1.379 . S
C4081 N4079 1.356 . S
N4082 C4074 1.356 . S
N4082 H4088 0.984 . S
N4082 H4089 0.984 . S
N4083 C4076 1.356 . S
N4083 H4086 0.984 . S
N4083 H4087 0.985 . S
H4084 N4079 0.984 . S
H4085 N4079 0.985 . S
H4086 N4083 0.984 . S
H4087 N4083 0.985 . S
H4088 N4082 0.984 . S
H4089 N4082 0.984 . S
H4090 N4078 0.984 . S
H4091 N4078 0.985 . S
C4092 C4093 1.363 . S
C4092 C4098 1.379 . S
C4092 N4100 1.356 . S
C4093 C4092 1.363 . S
C4093 C4099 1.363 . S
C4094 C4095 1.363 . S
C4094 C4099 1.379 . S
C4094 N4101 1.356 . S
C4095 C4094 1.363 . S
C4095 C4098 1.363 . S
N4096 C4098 1.356 . S
N4096 H4108 0.984 . S
N4096 H4109 0.985 . S
N4097 C4099 1.356 . S
N4097 H4102 0.984 . S
N4097 H4103 0.985 . S
C4098 C4092 1.379 . S
C4098 C4095 1.363 . S
C4098 N4096 1.356 . S
C4099 C4093 1.363 . S
C4099 C4094 1.379 . S
C4099 N4097 1.356 . S
N4100 C4092 1.356 . S
N4100 H4106 0.984 . S
N4100 H4107 0.984 . S
N4101 C4094 1.356 . S
N4101 H4104 0.984 . S
N4101 H4105 0.985 . S
H4102 N4097 0.984 . S
H4103 N4097 0.985 . S
H4104 N4101 0.984 . S
H4105 N4101 0.985 . S
H4106 N4100 0.984 . S
H4107 N4100 0.984 . S
H4108 N4096 0.984 . S
H4109 N4096 0.985 . S
C4110 C4111 1.363 . S
C4110 C4116 1.379 . S
C4110 N4118 1.356 . S
C4111 C4110 1.363 . S
C4111 C4117 1.363 . S
C4112 C4113 1.363 . S
C4112 C4117 1.379 . S
C4112 N4119 1.356 . S
C4113 C4112 1.363 . S
C4113 C4116 1.363 . S
N4114 C4116 1.356 . S
N4114 H4126 0.984 . S
N4114 H4127 0.985 . S
N4115 C4117 1.356 . S
N4115 H4120 0.984 . S
N4115 H4121 0.985 . S
C4116 C4110 1.379 . S
C4116 C4113 1.363 . S
C4116 N4114 1.356 . S
C4117 C4111 1.363 . S
C4117 C4112 1.379 . S
C4117 N4115 1.356 . S
N4118 C4110 1.356 . S
N4118 H4124 0.984 . S
N4118 H4125 0.984 . S
N4119 C4112 1.356 . S
N4119 H4122 0.984 . S
N4119 H4123 0.985 . S
H4120 N4115 0.984 . S
H4121 N4115 0.985 . S
H4122 N4119 0.984 . S
H4123 N4119 0.985 . S
H4124 N4118 0.984 . S
H4125 N4118 0.984 . S
H4126 N4114 0.984 . S
H4127 N4114 0.985 . S
C4128 C4129 1.363 . S
C4128 C4134 1.379 . S
C4128 N4136 1.356 . S
C4129 C4128 1.363 . S
C4129 C4135 1.363 . S
C4130 C4131 1.363 . S
C4130 C4135 1.379 . S
C4130 N4137 1.356 . S
C4131 C4130 1.363 . S
C4131 C4134 1.363 . S
N4132 C4134 1.356 . S
N4132 H4144 0.984 . S
N4132 H4145 0.985 . S
N4133 C4135 1.356 . S
N4133 H4138 0.984 . S
N4133 H4139 0.985 . S
C4134 C4128 1.379 . S
C4134 C4131 1.363 . S
C4134 N4132 1.356 . S
C4135 C4129 1.363 . S
C4135 C4130 1.379 . S
C4135 N4133 1.356 . S
N4136 C4128 1.356 . S
N4136 H4142 0.984 . S
N4136 H4143 0.984 . S
N4137 C4130 1.356 . S
N4137 H4140 0.984 . S
N4137 H4141 0.985 . S
H4138 N4133 0.984 . S
H4139 N4133 0.985 . S
H4140 N4137 0.984 . S
H4141 N4137 0.985 . S
H4142 N4136 0.984 . S
H4143 N4136 0.984 . S
H4144 N4132 0.984 . S
H4145 N4132 0.985 . S
C4146 C4147 1.363 . S
C4146 C4152 1.379 . S
C4146 N4154 1.356 . S
C4147 C4146 1.363 . S
C4147 C4153 1.363 . S
C4148 C4149 1.363 . S
C4148 C4153 1.379 . S
C4148 N4155 1.356 . S
C4149 C4148 1.363 . S
C4149 C4152 1.363 . S
N4150 C4152 1.356 . S
N4150 H4162 0.984 . S
N4150 H4163 0.985 . S
N4151 C4153 1.356 . S
N4151 H4156 0.984 . S
N4151 H4157 0.985 . S
C4152 C4146 1.379 . S
C4152 C4149 1.363 . S
C4152 N4150 1.356 . S
C4153 C4147 1.363 . S
C4153 C4148 1.379 . S
C4153 N4151 1.356 . S
N4154 C4146 1.356 . S
N4154 H4160 0.984 . S
N4154 H4161 0.984 . S
N4155 C4148 1.356 . S
N4155 H4158 0.984 . S
N4155 H4159 0.985 . S
H4156 N4151 0.984 . S
H4157 N4151 0.985 . S
H4158 N4155 0.984 . S
H4159 N4155 0.985 . S
H4160 N4154 0.984 . S
H4161 N4154 0.984 . S
H4162 N4150 0.984 . S
H4163 N4150 0.985 . S
C4164 C4165 1.363 . S
C4164 C4170 1.379 . S
C4164 N4172 1.356 . S
C4165 C4164 1.363 . S
C4165 C4171 1.363 . S
C4166 C4167 1.363 . S
C4166 C4171 1.379 . S
C4166 N4173 1.356 . S
C4167 C4166 1.363 . S
C4167 C4170 1.363 . S
N4168 C4170 1.356 . S
N4168 H4180 0.984 . S
N4168 H4181 0.985 . S
N4169 C4171 1.356 . S
N4169 H4174 0.984 . S
N4169 H4175 0.985 . S
C4170 C4164 1.379 . S
C4170 C4167 1.363 . S
C4170 N4168 1.356 . S
C4171 C4165 1.363 . S
C4171 C4166 1.379 . S
C4171 N4169 1.356 . S
N4172 C4164 1.356 . S
N4172 H4178 0.984 . S
N4172 H4179 0.984 . S
N4173 C4166 1.356 . S
N4173 H4176 0.984 . S
N4173 H4177 0.985 . S
H4174 N4169 0.984 . S
H4175 N4169 0.985 . S
H4176 N4173 0.984 . S
H4177 N4173 0.985 . S
H4178 N4172 0.984 . S
H4179 N4172 0.984 . S
H4180 N4168 0.984 . S
H4181 N4168 0.985 . S
C4182 C4183 1.363 . S
C4182 C4188 1.379 . S
C4182 N4190 1.356 . S
C4183 C4182 1.363 . S
C4183 C4189 1.363 . S
C4184 C4185 1.363 . S
C4184 C4189 1.379 . S
C4184 N4191 1.356 . S
C4185 C4184 1.363 . S
C4185 C4188 1.363 . S
N4186 C4188 1.356 . S
N4186 H4198 0.984 . S
N4186 H4199 0.985 . S
N4187 C4189 1.356 . S
N4187 H4192 0.984 . S
N4187 H4193 0.985 . S
C4188 C4182 1.379 . S
C4188 C4185 1.363 . S
C4188 N4186 1.356 . S
C4189 C4183 1.363 . S
C4189 C4184 1.379 . S
C4189 N4187 1.356 . S
N4190 C4182 1.356 . S
N4190 H4196 0.984 . S
N4190 H4197 0.984 . S
N4191 C4184 1.356 . S
N4191 H4194 0.984 . S
N4191 H4195 0.985 . S
H4192 N4187 0.984 . S
H4193 N4187 0.985 . S
H4194 N4191 0.984 . S
H4195 N4191 0.985 . S
H4196 N4190 0.984 . S
H4197 N4190 0.984 . S
H4198 N4186 0.984 . S
H4199 N4186 0.985 . S
C4200 C4201 1.363 . S
C4200 C4206 1.379 . S
C4200 N4208 1.356 . S
C4201 C4200 1.363 . S
C4201 C4207 1.363 . S
C4202 C4203 1.363 . S
C4202 C4207 1.379 . S
C4202 N4209 1.356 . S
C4203 C4202 1.363 . S
C4203 C4206 1.363 . S
N4204 C4206 1.356 . S
N4204 H4216 0.984 . S
N4204 H4217 0.985 . S
N4205 C4207 1.356 . S
N4205 H4210 0.984 . S
N4205 H4211 0.985 . S
C4206 C4200 1.379 . S
C4206 C4203 1.363 . S
C4206 N4204 1.356 . S
C4207 C4201 1.363 . S
C4207 C4202 1.379 . S
C4207 N4205 1.356 . S
N4208 C4200 1.356 . S
N4208 H4214 0.984 . S
N4208 H4215 0.984 . S
N4209 C4202 1.356 . S
N4209 H4212 0.984 . S
N4209 H4213 0.985 . S
H4210 N4205 0.984 . S
H4211 N4205 0.985 . S
H4212 N4209 0.984 . S
H4213 N4209 0.985 . S
H4214 N4208 0.984 . S
H4215 N4208 0.984 . S
H4216 N4204 0.984 . S
H4217 N4204 0.985 . S
C4218 C4219 1.363 . S
C4218 C4224 1.379 . S
C4218 N4226 1.356 . S
C4219 C4218 1.363 . S
C4219 C4225 1.363 . S
C4220 C4221 1.363 . S
C4220 C4225 1.379 . S
C4220 N4227 1.356 . S
C4221 C4220 1.363 . S
C4221 C4224 1.363 . S
N4222 C4224 1.356 . S
N4222 H4234 0.984 . S
N4222 H4235 0.985 . S
N4223 C4225 1.356 . S
N4223 H4228 0.984 . S
N4223 H4229 0.985 . S
C4224 C4218 1.379 . S
C4224 C4221 1.363 . S
C4224 N4222 1.356 . S
C4225 C4219 1.363 . S
C4225 C4220 1.379 . S
C4225 N4223 1.356 . S
N4226 C4218 1.356 . S
N4226 H4232 0.984 . S
N4226 H4233 0.984 . S
N4227 C4220 1.356 . S
N4227 H4230 0.984 . S
N4227 H4231 0.985 . S
H4228 N4223 0.984 . S
H4229 N4223 0.985 . S
H4230 N4227 0.984 . S
H4231 N4227 0.985 . S
H4232 N4226 0.984 . S
H4233 N4226 0.984 . S
H4234 N4222 0.984 . S
H4235 N4222 0.985 . S
C4236 C4237 1.363 . S
C4236 C4242 1.379 . S
C4236 N4244 1.356 . S
C4237 C4236 1.363 . S
C4237 C4243 1.363 . S
C4238 C4239 1.363 . S
C4238 C4243 1.379 . S
C4238 N4245 1.356 . S
C4239 C4238 1.363 . S
C4239 C4242 1.363 . S
N4240 C4242 1.356 . S
N4240 H4252 0.984 . S
N4240 H4253 0.985 . S
N4241 C4243 1.356 . S
N4241 H4246 0.984 . S
N4241 H4247 0.985 . S
C4242 C4236 1.379 . S
C4242 C4239 1.363 . S
C4242 N4240 1.356 . S
C4243 C4237 1.363 . S
C4243 C4238 1.379 . S
C4243 N4241 1.356 . S
N4244 C4236 1.356 . S
N4244 H4250 0.984 . S
N4244 H4251 0.984 . S
N4245 C4238 1.356 . S
N4245 H4248 0.984 . S
N4245 H4249 0.985 . S
H4246 N4241 0.984 . S
H4247 N4241 0.985 . S
H4248 N4245 0.984 . S
H4249 N4245 0.985 . S
H4250 N4244 0.984 . S
H4251 N4244 0.984 . S
H4252 N4240 0.984 . S
H4253 N4240 0.985 . S
C4254 C4255 1.363 . S
C4254 C4260 1.379 . S
C4254 N4262 1.356 . S
C4255 C4254 1.363 . S
C4255 C4261 1.363 . S
C4256 C4257 1.363 . S
C4256 C4261 1.379 . S
C4256 N4263 1.356 . S
C4257 C4256 1.363 . S
C4257 C4260 1.363 . S
N4258 C4260 1.356 . S
N4258 H4270 0.984 . S
N4258 H4271 0.985 . S
N4259 C4261 1.356 . S
N4259 H4264 0.984 . S
N4259 H4265 0.985 . S
C4260 C4254 1.379 . S
C4260 C4257 1.363 . S
C4260 N4258 1.356 . S
C4261 C4255 1.363 . S
C4261 C4256 1.379 . S
C4261 N4259 1.356 . S
N4262 C4254 1.356 . S
N4262 H4268 0.984 . S
N4262 H4269 0.984 . S
N4263 C4256 1.356 . S
N4263 H4266 0.984 . S
N4263 H4267 0.985 . S
H4264 N4259 0.984 . S
H4265 N4259 0.985 . S
H4266 N4263 0.984 . S
H4267 N4263 0.985 . S
H4268 N4262 0.984 . S
H4269 N4262 0.984 . S
H4270 N4258 0.984 . S
H4271 N4258 0.985 . S
C2545 C499 2.245 . S
C2547 C22 2.245 . S
C2563 C552 2.514 . S
C2565 C91 2.534 . S
C2581 C605 2.245 . S
C2583 C128 2.245 . S
C2599 C446 2.515 . S
C2601 C197 2.534 . S
C2617 C234 2.245 . S
C2619 C817 2.245 . S
C2635 C303 2.534 . S
C2637 C658 2.515 . S
C2653 C340 2.245 . S
C2655 C711 2.245 . S
C2671 C764 2.514 . S
C2673 C409 2.534 . S
C2689 C886 2.534 . S
C2691 C976 2.514 . S
C2707 C939 2.534 . S
C2709 C2460 2.514 . S
C2725 C1045 2.534 . S
C2727 C2513 2.514 . S
C2743 C1082 2.514 . S
C2745 C2423 2.534 . S
C2761 C1151 2.534 . S
C2763 C2354 2.514 . S
C2779 C2211 2.534 . S
C2781 C1188 2.514 . S
C2797 C1241 2.514 . S
C2799 C2317 2.534 . S
C2815 C1771 2.245 . S
C2817 C1294 2.245 . S
C2833 C1824 2.515 . S
C2835 C1363 2.534 . S
C2851 C1877 2.245 . S
C2853 C1400 2.245 . S
C2869 C1718 2.514 . S
C2871 C1469 2.534 . S
C2887 C2089 2.245 . S
C2889 C1506 2.245 . S
C2905 C1930 2.514 . S
C2907 C1575 2.534 . S
C2923 C1612 2.245 . S
C2925 C1983 2.245 . S
C2941 C1681 2.534 . S
C2943 C2036 2.515 . S
C2959 C2158 2.534 . S
C2961 C2248 2.514 . S
C2977 C870 1.661 . S
C2979 C29 1.725 . S
C2995 C2529 1.366 . S
C2997 C92 1.385 . S
C3013 C135 1.725 . S
C3015 C1135 1.661 . S
C3031 C2476 1.366 1_554 S
C3033 C198 1.385 . S
C3049 C241 1.725 . S
C3051 C2195 1.661 . S
C3067 C2264 1.366 . S
C3069 C304 1.385 . S
C3085 C347 1.725 . S
C3087 C2301 1.661 . S
C3103 C1098 1.366 1_556 S
C3105 C410 1.385 . S
C3121 C453 1.431 . S
C3123 C38 1.414 . S
C3139 C75 1.661 1_545 S
C3141 C506 1.725 . S
C3157 C559 1.431 . S
C3159 C144 1.414 . S
C3175 C181 1.661 1_565 S
C3177 C612 1.725 . S
C3193 C665 1.431 . S
C3195 C250 1.414 . S
C3211 C287 1.661 1_545 S
C3213 C718 1.725 . S
C3229 C771 1.431 . S
C3231 C356 1.414 . S
C3247 C824 1.725 . S
C3249 C393 1.661 1_565 S
C3265 C887 1.385 . S
C3267 C462 1.366 . S
C3283 C940 1.386 . S
C3285 C1946 1.366 . S
C3301 C1999 1.414 . S
C3303 C983 1.431 1_556 S
C3319 C2052 1.366 . S
C3321 C1046 1.385 . S
C3337 C833 1.414 . S
C3339 C1089 1.431 1_556 S
C3355 C1152 1.386 . S
C3357 C568 1.366 . S
C3373 C1893 1.414 . S
C3375 C1195 1.431 . S
C3391 C1248 1.431 1_554 S
C3393 C1787 1.414 . S
C3409 C1301 1.725 . S
C3411 C2142 1.661 . S
C3427 C1364 1.385 . S
C3429 C1257 1.366 1_554 S
C3445 C1407 1.725 . S
C3447 C2407 1.661 . S
C3463 C1470 1.385 . S
C3465 C1204 1.366 . S
C3481 C1513 1.725 . S
C3483 C923 1.661 . S
C3499 C1576 1.385 . S
C3501 C992 1.366 1_556 S
C3517 C1029 1.661 . S
C3519 C1619 1.725 . S
C3535 C2370 1.366 . S
C3537 C1682 1.385 . S
C3553 C1310 1.414 . S
C3555 C1725 1.431 . S
C3571 C1347 1.661 . S
C3573 C1778 1.725 . S
C3589 C1831 1.431 . S
C3591 C1416 1.414 . S
C3607 C1453 1.661 . S
C3609 C1884 1.725 . S
C3625 C1937 1.431 . S
C3627 C1522 1.414 . S
C3643 C1990 1.725 . S
C3645 C1559 1.661 . S
C3661 C2043 1.431 . S
C3663 C1628 1.414 . S
C3679 C1665 1.661 . S
C3681 C2096 1.725 . S
C3697 C2159 1.386 . S
C3699 C1734 1.366 . S
C3715 C2212 1.385 . S
C3717 C674 1.366 . S
C3733 C727 1.414 . S
C3735 C2255 1.431 . S
C3751 C2318 1.386 . S
C3753 C780 1.366 . S
C3769 C2361 1.431 . S
C3771 C2105 1.414 . S
C3787 C1840 1.366 . S
C3789 C2424 1.385 . S
C3805 C621 1.414 . S
C3807 C2467 1.431 1_554 S
C3823 C515 1.414 . S
C3825 C2520 1.431 . S
C3841 C1205 1.704 . S
C3843 C39 1.736 . S
C3859 C82 2.105 . S
C3861 C2149 2.105 . S
C3877 C145 1.736 . S
C3879 C1258 1.704 . S
C3895 C2414 2.105 . S
C3897 C188 2.105 . S
C3913 C251 1.736 . S
C3915 C993 1.704 . S
C3931 C1036 2.105 . S
C3933 C294 2.105 . S
C3949 C2371 1.704 . S
C3951 C357 1.736 . S
C3967 C400 2.105 . S
C3969 C930 2.105 . S
C3985 C728 1.736 . S
C3987 C463 1.704 . S
C4003 C516 1.736 . S
C4005 C781 1.704 . S
C4021 C834 1.736 . S
C4023 C569 1.704 . S
C4039 C622 1.736 . S
C4041 C675 1.704 . S
C4057 C1354 2.105 . S
C4059 C877 2.105 . S
C4075 C1099 1.704 . S
C4077 C1629 1.736 . S
C4093 C1142 2.105 . S
C4095 C1460 2.105 . S
C4111 C2477 1.704 . S
C4113 C1311 1.736 . S
C4129 C1417 1.736 . S
C4131 C2530 1.704 . S
C4147 C1523 1.736 . S
C4149 C2265 1.704 . S
C4165 C1566 2.105 . S
C4167 C2308 2.105 . S
C4183 C2202 2.105 . S
C4185 C1672 2.105 . S
C4201 C2000 1.736 . S
C4203 C1735 1.704 . S
C4219 C1788 1.736 . S
C4221 C2053 1.704 . S
C4237 C1841 1.704 . S
C4239 C2106 1.736 . S
C4255 C1947 1.704 . S
C4257 C1894 1.736 . S
