# Generated by pormake.
# Topology umv, (4)-cn, num edge types: 1
# Building blocks:
#     Node 0, Type 0, BuildingBlock: NAHDIM_clean_sbu_0, # of connection points: 4
#     Node 1, Type 0, BuildingBlock: NAHDIM_clean_sbu_0, # of connection points: 4
#     Node 2, Type 0, BuildingBlock: NAHDIM_clean_sbu_0, # of connection points: 4
#     Node 3, Type 0, BuildingBlock: NAHDIM_clean_sbu_0, # of connection points: 4
#     Node 4, Type 0, BuildingBlock: NAHDIM_clean_sbu_0, # of connection points: 4
#     Node 5, Type 0, BuildingBlock: NAHDIM_clean_sbu_0, # of connection points: 4
#     Node 6, Type 0, BuildingBlock: NAHDIM_clean_sbu_0, # of connection points: 4
#     Node 7, Type 0, BuildingBlock: NAHDIM_clean_sbu_0, # of connection points: 4
#     Node 8, Type 0, BuildingBlock: NAHDIM_clean_sbu_0, # of connection points: 4
#     Node 9, Type 0, BuildingBlock: NAHDIM_clean_sbu_0, # of connection points: 4
#     Node 10, Type 0, BuildingBlock: NAHDIM_clean_sbu_0, # of connection points: 4
#     Node 11, Type 0, BuildingBlock: NAHDIM_clean_sbu_0, # of connection points: 4
#     Node 12, Type 0, BuildingBlock: NAHDIM_clean_sbu_0, # of connection points: 4
#     Node 13, Type 0, BuildingBlock: NAHDIM_clean_sbu_0, # of connection points: 4
#     Node 14, Type 0, BuildingBlock: NAHDIM_clean_sbu_0, # of connection points: 4
#     Node 15, Type 0, BuildingBlock: NAHDIM_clean_sbu_0, # of connection points: 4
#     Node 16, Type 0, BuildingBlock: NAHDIM_clean_sbu_0, # of connection points: 4
#     Node 17, Type 0, BuildingBlock: NAHDIM_clean_sbu_0, # of connection points: 4
#     Node 18, Type 0, BuildingBlock: NAHDIM_clean_sbu_0, # of connection points: 4
#     Node 19, Type 0, BuildingBlock: NAHDIM_clean_sbu_0, # of connection points: 4
#     Node 20, Type 0, BuildingBlock: NAHDIM_clean_sbu_0, # of connection points: 4
#     Node 21, Type 0, BuildingBlock: NAHDIM_clean_sbu_0, # of connection points: 4
#     Node 22, Type 0, BuildingBlock: NAHDIM_clean_sbu_0, # of connection points: 4
#     Node 23, Type 0, BuildingBlock: NAHDIM_clean_sbu_0, # of connection points: 4
#     Node 24, Type 0, BuildingBlock: NAHDIM_clean_sbu_0, # of connection points: 4
#     Node 25, Type 0, BuildingBlock: NAHDIM_clean_sbu_0, # of connection points: 4
#     Node 26, Type 0, BuildingBlock: NAHDIM_clean_sbu_0, # of connection points: 4
#     Node 27, Type 0, BuildingBlock: NAHDIM_clean_sbu_0, # of connection points: 4
#     Node 28, Type 0, BuildingBlock: NAHDIM_clean_sbu_0, # of connection points: 4
#     Node 29, Type 0, BuildingBlock: NAHDIM_clean_sbu_0, # of connection points: 4
#     Node 30, Type 0, BuildingBlock: NAHDIM_clean_sbu_0, # of connection points: 4
#     Node 31, Type 0, BuildingBlock: NAHDIM_clean_sbu_0, # of connection points: 4
#     Edge 32, Type (0, 0), BuildingBlock: UVAHIK_clean_linker_0, # of connection points: 2
#     Edge 33, Type (0, 0), BuildingBlock: UVAHIK_clean_linker_0, # of connection points: 2
#     Edge 34, Type (0, 0), BuildingBlock: UVAHIK_clean_linker_0, # of connection points: 2
#     Edge 35, Type (0, 0), BuildingBlock: UVAHIK_clean_linker_0, # of connection points: 2
#     Edge 36, Type (0, 0), BuildingBlock: UVAHIK_clean_linker_0, # of connection points: 2
#     Edge 37, Type (0, 0), BuildingBlock: UVAHIK_clean_linker_0, # of connection points: 2
#     Edge 38, Type (0, 0), BuildingBlock: UVAHIK_clean_linker_0, # of connection points: 2
#     Edge 39, Type (0, 0), BuildingBlock: UVAHIK_clean_linker_0, # of connection points: 2
#     Edge 40, Type (0, 0), BuildingBlock: UVAHIK_clean_linker_0, # of connection points: 2
#     Edge 41, Type (0, 0), BuildingBlock: UVAHIK_clean_linker_0, # of connection points: 2
#     Edge 42, Type (0, 0), BuildingBlock: UVAHIK_clean_linker_0, # of connection points: 2
#     Edge 43, Type (0, 0), BuildingBlock: UVAHIK_clean_linker_0, # of connection points: 2
#     Edge 44, Type (0, 0), BuildingBlock: UVAHIK_clean_linker_0, # of connection points: 2
#     Edge 45, Type (0, 0), BuildingBlock: UVAHIK_clean_linker_0, # of connection points: 2
#     Edge 46, Type (0, 0), BuildingBlock: UVAHIK_clean_linker_0, # of connection points: 2
#     Edge 47, Type (0, 0), BuildingBlock: UVAHIK_clean_linker_0, # of connection points: 2
#     Edge 48, Type (0, 0), BuildingBlock: UVAHIK_clean_linker_0, # of connection points: 2
#     Edge 49, Type (0, 0), BuildingBlock: UVAHIK_clean_linker_0, # of connection points: 2
#     Edge 50, Type (0, 0), BuildingBlock: UVAHIK_clean_linker_0, # of connection points: 2
#     Edge 51, Type (0, 0), BuildingBlock: UVAHIK_clean_linker_0, # of connection points: 2
#     Edge 52, Type (0, 0), BuildingBlock: UVAHIK_clean_linker_0, # of connection points: 2
#     Edge 53, Type (0, 0), BuildingBlock: UVAHIK_clean_linker_0, # of connection points: 2
#     Edge 54, Type (0, 0), BuildingBlock: UVAHIK_clean_linker_0, # of connection points: 2
#     Edge 55, Type (0, 0), BuildingBlock: UVAHIK_clean_linker_0, # of connection points: 2
#     Edge 56, Type (0, 0), BuildingBlock: UVAHIK_clean_linker_0, # of connection points: 2
#     Edge 57, Type (0, 0), BuildingBlock: UVAHIK_clean_linker_0, # of connection points: 2
#     Edge 58, Type (0, 0), BuildingBlock: UVAHIK_clean_linker_0, # of connection points: 2
#     Edge 59, Type (0, 0), BuildingBlock: UVAHIK_clean_linker_0, # of connection points: 2
#     Edge 60, Type (0, 0), BuildingBlock: UVAHIK_clean_linker_0, # of connection points: 2
#     Edge 61, Type (0, 0), BuildingBlock: UVAHIK_clean_linker_0, # of connection points: 2
#     Edge 62, Type (0, 0), BuildingBlock: UVAHIK_clean_linker_0, # of connection points: 2
#     Edge 63, Type (0, 0), BuildingBlock: UVAHIK_clean_linker_0, # of connection points: 2
#     Edge 64, Type (0, 0), BuildingBlock: UVAHIK_clean_linker_0, # of connection points: 2
#     Edge 65, Type (0, 0), BuildingBlock: UVAHIK_clean_linker_0, # of connection points: 2
#     Edge 66, Type (0, 0), BuildingBlock: UVAHIK_clean_linker_0, # of connection points: 2
#     Edge 67, Type (0, 0), BuildingBlock: UVAHIK_clean_linker_0, # of connection points: 2
#     Edge 68, Type (0, 0), BuildingBlock: UVAHIK_clean_linker_0, # of connection points: 2
#     Edge 69, Type (0, 0), BuildingBlock: UVAHIK_clean_linker_0, # of connection points: 2
#     Edge 70, Type (0, 0), BuildingBlock: UVAHIK_clean_linker_0, # of connection points: 2
#     Edge 71, Type (0, 0), BuildingBlock: UVAHIK_clean_linker_0, # of connection points: 2
#     Edge 72, Type (0, 0), BuildingBlock: UVAHIK_clean_linker_0, # of connection points: 2
#     Edge 73, Type (0, 0), BuildingBlock: UVAHIK_clean_linker_0, # of connection points: 2
#     Edge 74, Type (0, 0), BuildingBlock: UVAHIK_clean_linker_0, # of connection points: 2
#     Edge 75, Type (0, 0), BuildingBlock: UVAHIK_clean_linker_0, # of connection points: 2
#     Edge 76, Type (0, 0), BuildingBlock: UVAHIK_clean_linker_0, # of connection points: 2
#     Edge 77, Type (0, 0), BuildingBlock: UVAHIK_clean_linker_0, # of connection points: 2
#     Edge 78, Type (0, 0), BuildingBlock: UVAHIK_clean_linker_0, # of connection points: 2
#     Edge 79, Type (0, 0), BuildingBlock: UVAHIK_clean_linker_0, # of connection points: 2
#     Edge 80, Type (0, 0), BuildingBlock: UVAHIK_clean_linker_0, # of connection points: 2
#     Edge 81, Type (0, 0), BuildingBlock: UVAHIK_clean_linker_0, # of connection points: 2
#     Edge 82, Type (0, 0), BuildingBlock: UVAHIK_clean_linker_0, # of connection points: 2
#     Edge 83, Type (0, 0), BuildingBlock: UVAHIK_clean_linker_0, # of connection points: 2
#     Edge 84, Type (0, 0), BuildingBlock: UVAHIK_clean_linker_0, # of connection points: 2
#     Edge 85, Type (0, 0), BuildingBlock: UVAHIK_clean_linker_0, # of connection points: 2
#     Edge 86, Type (0, 0), BuildingBlock: UVAHIK_clean_linker_0, # of connection points: 2
#     Edge 87, Type (0, 0), BuildingBlock: UVAHIK_clean_linker_0, # of connection points: 2
#     Edge 88, Type (0, 0), BuildingBlock: UVAHIK_clean_linker_0, # of connection points: 2
#     Edge 89, Type (0, 0), BuildingBlock: UVAHIK_clean_linker_0, # of connection points: 2
#     Edge 90, Type (0, 0), BuildingBlock: UVAHIK_clean_linker_0, # of connection points: 2
#     Edge 91, Type (0, 0), BuildingBlock: UVAHIK_clean_linker_0, # of connection points: 2
#     Edge 92, Type (0, 0), BuildingBlock: UVAHIK_clean_linker_0, # of connection points: 2
#     Edge 93, Type (0, 0), BuildingBlock: UVAHIK_clean_linker_0, # of connection points: 2
#     Edge 94, Type (0, 0), BuildingBlock: UVAHIK_clean_linker_0, # of connection points: 2
#     Edge 95, Type (0, 0), BuildingBlock: UVAHIK_clean_linker_0, # of connection points: 2
# Relax obj value: 0.142
# Max RMSD: 0.096
# Mean RMSD: 0.096
data_MOF--net-umv--node1-NAHDIM_clean_sbu_0--edge1-UVAHIK_clean_linker_0
_symmetry_space_group_name_H-M    P1
_symmetry_Int_Tables_number       1
_symmetry_cell_setting            triclinic
loop_
_symmetry_equiv_pos_as_xyz
'x, y, z'
_cell_length_a     123.37575
_cell_length_b     30.525128
_cell_length_c     100.71361
_cell_angle_alpha  90.003481
_cell_angle_beta   90.022915
_cell_angle_gamma 90.008784
loop_
_atom_site_label
_atom_site_type_symbol
_atom_site_fract_x
_atom_site_fract_y
_atom_site_fract_z
_atom_type_partial_charge
C0 C 0.02514 0.11596 0.29523 0.0
O1 O 0.02067 0.08448 0.30222 0.0
O2 O 0.03613 0.06057 0.32399 0.0
Zn3 Zn 0.04246 0.11363 0.31506 0.0
O4 O 0.0418 0.16651 0.32694 0.0
C5 C 0.06429 0.09372 0.32064 0.0
O6 O 0.06001 0.08943 0.3325 0.0
O7 O 0.03439 0.13055 0.29856 0.0
C8 C 0.04166 0.16738 0.33955 0.0
O9 O 0.04182 0.13047 0.34626 0.0
C10 C 0.02747 0.0612 0.33082 0.0
O11 O 0.02202 0.09799 0.33199 0.0
O12 O 0.05815 0.10296 0.31091 0.0
C13 C 0.21935 0.12858 0.28994 0.0
O14 O 0.22483 0.1408 0.30048 0.0
O15 O 0.20612 0.18986 0.3174 0.0
Zn16 Zn 0.20171 0.1342 0.30814 0.0
O17 O 0.20577 0.08197 0.31925 0.0
C18 C 0.17945 0.14839 0.31468 0.0
O19 O 0.18387 0.16708 0.32511 0.0
O20 O 0.20909 0.12628 0.29062 0.0
C21 C 0.20388 0.07944 0.33162 0.0
O22 O 0.19922 0.1125 0.3377 0.0
C23 C 0.21397 0.19178 0.32557 0.0
O24 O 0.21998 0.15688 0.32756 0.0
O25 O 0.18554 0.13295 0.30565 0.0
C26 C 0.02152 0.10553 0.94152 0.0
O27 O 0.01745 0.09757 0.92971 0.0
O28 O 0.0321 0.19646 0.91695 0.0
Zn29 Zn 0.03803 0.1419 0.92547 0.0
O30 O 0.0366 0.08951 0.9135 0.0
C31 C 0.05995 0.1603 0.91934 0.0
O32 O 0.05542 0.16958 0.90787 0.0
O33 O 0.03034 0.12681 0.94241 0.0
C34 C 0.0368 0.08907 0.90089 0.0
O35 O 0.03779 0.12605 0.89434 0.0
C36 C 0.02351 0.1973 0.90997 0.0
O37 O 0.01784 0.16123 0.90844 0.0
O38 O 0.05395 0.14913 0.92901 0.0
C39 C 0.21346 0.1087 0.9502 0.0
O40 O 0.21881 0.08502 0.94153 0.0
O41 O 0.20318 0.06025 0.92004 0.0
Zn42 Zn 0.19708 0.11276 0.92956 0.0
O43 O 0.1999 0.16799 0.91921 0.0
C44 C 0.17527 0.09715 0.92154 0.0
O45 O 0.18016 0.0884 0.91028 0.0
O46 O 0.20394 0.12166 0.94742 0.0
C47 C 0.19976 0.17117 0.90663 0.0
O48 O 0.1978 0.13625 0.8994 0.0
C49 C 0.21189 0.06202 0.9133 0.0
O50 O 0.21733 0.09897 0.91274 0.0
O51 O 0.18095 0.10701 0.93163 0.0
C52 C 0.96233 0.88698 0.70412 0.0
O53 O 0.96572 0.92113 0.69737 0.0
O54 O 0.95185 0.91988 0.67111 0.0
Zn55 Zn 0.94779 0.8663 0.68153 0.0
O56 O 0.95265 0.81231 0.67173 0.0
C57 C 0.92581 0.8509 0.67405 0.0
O58 O 0.93052 0.84145 0.66271 0.0
O59 O 0.95487 0.86292 0.6994 0.0
C60 C 0.95456 0.81036 0.65935 0.0
O61 O 0.95327 0.8455 0.65199 0.0
C62 C 0.96139 0.92689 0.66684 0.0
O63 O 0.9692 0.89936 0.66987 0.0
O64 O 0.93161 0.86344 0.68376 0.0
C65 C 0.77226 0.90653 0.69114 0.0
O66 O 0.76908 0.91532 0.67898 0.0
O67 O 0.78225 0.81906 0.66702 0.0
Zn68 Zn 0.7895 0.8685 0.67679 0.0
O69 O 0.79073 0.92235 0.66543 0.0
C70 C 0.81023 0.82786 0.67415 0.0
O71 O 0.80572 0.81282 0.66325 0.0
O72 O 0.78094 0.88491 0.69288 0.0
C73 C 0.79371 0.92249 0.65336 0.0
O74 O 0.79597 0.88527 0.64743 0.0
C75 C 0.77547 0.82461 0.65767 0.0
O76 O 0.77265 0.86451 0.65422 0.0
O77 O 0.80463 0.85146 0.68196 0.0
C78 C 0.97581 0.88011 0.0529 0.0
O79 O 0.97963 0.88738 0.06489 0.0
O80 O 0.96051 0.80796 0.07919 0.0
Zn81 Zn 0.95721 0.86084 0.0681 0.0
O82 O 0.95995 0.9153 0.0788 0.0
C83 C 0.935 0.8671 0.07338 0.0
O84 O 0.93915 0.8708 0.08534 0.0
O85 O 0.96623 0.8654 0.05165 0.0
C86 C 0.96317 0.91529 0.09079 0.0
O87 O 0.965 0.87785 0.09681 0.0
C88 C 0.96858 0.7823 0.07827 0.0
O89 O 0.97575 0.78824 0.0688 0.0
O90 O 0.94135 0.86106 0.06361 0.0
C91 C 0.78174 0.87616 0.03982 0.0
O92 O 0.77773 0.91019 0.0461 0.0
O93 O 0.79129 0.92759 0.06958 0.0
Zn94 Zn 0.79809 0.8752 0.06078 0.0
O95 O 0.79693 0.82219 0.07249 0.0
C96 C 0.81948 0.90235 0.06679 0.0
O97 O 0.81462 0.91308 0.07793 0.0
O98 O 0.79046 0.85877 0.04394 0.0
C99 C 0.79696 0.82158 0.0851 0.0
O100 O 0.79783 0.85851 0.09172 0.0
C101 C 0.78239 0.92535 0.07588 0.0
O102 O 0.7772 0.8878 0.07647 0.0
O103 O 0.81388 0.88615 0.05741 0.0
C104 C 0.02621 0.62455 0.7909 0.0
O105 O 0.02113 0.59685 0.79869 0.0
O106 O 0.03686 0.56529 0.81922 0.0
Zn107 Zn 0.04351 0.61802 0.81037 0.0
O108 O 0.04228 0.67111 0.82205 0.0
C109 C 0.06504 0.59308 0.81652 0.0
O110 O 0.06024 0.58242 0.8277 0.0
O111 O 0.03594 0.63499 0.79352 0.0
C112 C 0.04292 0.67265 0.83463 0.0
O113 O 0.04447 0.63641 0.8414 0.0
C114 C 0.0285 0.56793 0.82656 0.0
O115 O 0.02369 0.606 0.82807 0.0
O116 O 0.05935 0.60796 0.80702 0.0
C117 C 0.21983 0.63159 0.79499 0.0
O118 O 0.22473 0.66105 0.80236 0.0
O119 O 0.20825 0.69108 0.823 0.0
Zn120 Zn 0.20259 0.63546 0.81484 0.0
O121 O 0.20459 0.58449 0.82728 0.0
C122 C 0.18034 0.64724 0.82093 0.0
O123 O 0.18455 0.65369 0.83274 0.0
O124 O 0.21038 0.61879 0.79813 0.0
C125 C 0.20464 0.58536 0.83989 0.0
O126 O 0.20346 0.62285 0.84613 0.0
C127 C 0.21688 0.69211 0.8299 0.0
O128 O 0.2226 0.6561 0.83137 0.0
O129 O 0.18663 0.64041 0.81116 0.0
C130 C 0.02412 0.62697 0.44806 0.0
O131 O 0.01855 0.64384 0.4382 0.0
O132 O 0.0353 0.69123 0.42099 0.0
Zn133 Zn 0.04203 0.63935 0.43019 0.0
O134 O 0.04116 0.58545 0.41882 0.0
C135 C 0.06336 0.67272 0.42559 0.0
O136 O 0.0586 0.68892 0.41501 0.0
O137 O 0.03436 0.62435 0.4471 0.0
C138 C 0.04366 0.58357 0.4066 0.0
O139 O 0.04688 0.61922 0.40046 0.0
C140 C 0.02775 0.68777 0.41246 0.0
O141 O 0.02377 0.64889 0.40971 0.0
O142 O 0.05776 0.65101 0.43388 0.0
C143 C 0.21975 0.64628 0.44242 0.0
O144 O 0.22386 0.65 0.43044 0.0
O145 O 0.20384 0.57533 0.41671 0.0
Zn146 Zn 0.20102 0.63006 0.42711 0.0
O147 O 0.20459 0.68252 0.41591 0.0
C148 C 0.17896 0.64282 0.42163 0.0
O149 O 0.18324 0.64835 0.4098 0.0
O150 O 0.2099 0.63487 0.44368 0.0
C151 C 0.20948 0.68091 0.40482 0.0
O152 O 0.21257 0.64287 0.40006 0.0
C153 C 0.21125 0.54714 0.41858 0.0
O154 O 0.21799 0.55179 0.42857 0.0
O155 O 0.18514 0.63343 0.43132 0.0
C156 C 0.96235 0.37926 0.20633 0.0
O157 O 0.96703 0.41114 0.19972 0.0
O158 O 0.95288 0.42952 0.17562 0.0
Zn159 Zn 0.94726 0.374 0.18389 0.0
O160 O 0.95126 0.32225 0.17252 0.0
C161 C 0.92534 0.37709 0.175 0.0
O162 O 0.93025 0.38024 0.16347 0.0
O163 O 0.95381 0.3617 0.20173 0.0
C164 C 0.95238 0.32221 0.15998 0.0
O165 O 0.95088 0.3586 0.15327 0.0
C166 C 0.9622 0.43114 0.17026 0.0
O167 O 0.96848 0.3964 0.17065 0.0
O168 O 0.93101 0.37549 0.18551 0.0
C169 C 0.77094 0.38297 0.19035 0.0
O170 O 0.76705 0.38999 0.17839 0.0
O171 O 0.78213 0.29642 0.16572 0.0
Zn172 Zn 0.78817 0.34949 0.17495 0.0
O173 O 0.78744 0.40319 0.16344 0.0
C174 C 0.81001 0.32326 0.1705 0.0
O175 O 0.80577 0.31082 0.15914 0.0
O176 O 0.77998 0.36348 0.19156 0.0
C177 C 0.78911 0.40481 0.15101 0.0
O178 O 0.79128 0.3686 0.14449 0.0
C179 C 0.77425 0.29744 0.15758 0.0
O180 O 0.7694 0.33485 0.15511 0.0
O181 O 0.80387 0.33975 0.17931 0.0
C182 C 0.9705 0.36284 0.54532 0.0
O183 O 0.97639 0.34072 0.55385 0.0
O184 O 0.95751 0.30071 0.57321 0.0
Zn185 Zn 0.95388 0.36029 0.56588 0.0
O186 O 0.959 0.40797 0.5782 0.0
C187 C 0.93173 0.38011 0.57297 0.0
O188 O 0.93618 0.38983 0.58444 0.0
O189 O 0.96075 0.37216 0.54818 0.0
C190 C 0.95981 0.40479 0.59075 0.0
O191 O 0.95731 0.36766 0.59659 0.0
C192 C 0.96632 0.29193 0.57921 0.0
O193 O 0.97376 0.32244 0.58044 0.0
O194 O 0.93767 0.36589 0.56361 0.0
C195 C 0.77754 0.36714 0.54769 0.0
O196 O 0.77363 0.36599 0.55981 0.0
O197 O 0.78846 0.44433 0.57175 0.0
Zn198 Zn 0.79556 0.39347 0.56243 0.0
O199 O 0.79542 0.33881 0.57354 0.0
C200 C 0.81668 0.43046 0.56601 0.0
O201 O 0.81194 0.4482 0.57637 0.0
O202 O 0.78725 0.37963 0.54594 0.0
C203 C 0.79938 0.33568 0.58515 0.0
O204 O 0.80367 0.37036 0.59081 0.0
C205 C 0.78245 0.44032 0.58192 0.0
O206 O 0.78059 0.40125 0.58687 0.0
O207 O 0.8111 0.40689 0.55816 0.0
C208 C 0.52877 0.14261 0.79837 0.0
O209 O 0.52492 0.14737 0.81044 0.0
O210 O 0.53918 0.06409 0.82355 0.0
Zn211 Zn 0.5463 0.11371 0.81361 0.0
O212 O 0.54612 0.1692 0.82437 0.0
C213 C 0.56753 0.08021 0.81837 0.0
O214 O 0.56268 0.0645 0.82896 0.0
O215 O 0.53818 0.12653 0.79686 0.0
C216 C 0.54912 0.17179 0.83641 0.0
O217 O 0.55236 0.13635 0.84265 0.0
C218 C 0.53232 0.07049 0.83277 0.0
O219 O 0.52953 0.11068 0.8359 0.0
O220 O 0.56194 0.10059 0.80976 0.0
C221 C 0.72154 0.10925 0.80363 0.0
O222 O 0.72513 0.09852 0.81546 0.0
O223 O 0.70983 0.19665 0.82858 0.0
Zn224 Zn 0.7045 0.14208 0.81949 0.0
O225 O 0.7063 0.08889 0.8311 0.0
C226 C 0.68228 0.15082 0.8255 0.0
O227 O 0.68652 0.15416 0.83742 0.0
O228 O 0.71269 0.13036 0.80266 0.0
C229 C 0.70665 0.08758 0.8437 0.0
O230 O 0.70591 0.12407 0.85055 0.0
C231 C 0.71868 0.19815 0.83505 0.0
O232 O 0.72481 0.16307 0.83572 0.0
O233 O 0.68856 0.14712 0.81558 0.0
C234 C 0.52309 0.09989 0.44113 0.0
O235 O 0.52041 0.08916 0.42894 0.0
O236 O 0.53468 0.18952 0.41764 0.0
Zn237 Zn 0.54069 0.13694 0.42717 0.0
O238 O 0.54094 0.08355 0.41539 0.0
C239 C 0.56284 0.15469 0.42334 0.0
O240 O 0.55917 0.15919 0.41118 0.0
O241 O 0.53164 0.12219 0.44307 0.0
C242 C 0.54171 0.08289 0.40281 0.0
O243 O 0.54219 0.11989 0.39618 0.0
C244 C 0.52669 0.18715 0.40969 0.0
O245 O 0.52194 0.14926 0.40764 0.0
O246 O 0.55615 0.14734 0.43265 0.0
C247 C 0.7168 0.15782 0.44403 0.0
O248 O 0.72042 0.1572 0.43176 0.0
O249 O 0.70495 0.06578 0.42386 0.0
Zn250 Zn 0.69869 0.122 0.43096 0.0
O251 O 0.69939 0.16905 0.41703 0.0
C252 C 0.6771 0.08766 0.42981 0.0
O253 O 0.68142 0.06329 0.42045 0.0
O254 O 0.7074 0.14289 0.44645 0.0
C255 C 0.69472 0.16632 0.40582 0.0
O256 O 0.68907 0.13115 0.40292 0.0
C257 C 0.71143 0.06564 0.41406 0.0
O258 O 0.71431 0.10296 0.40861 0.0
O259 O 0.68309 0.11429 0.43616 0.0
C260 C 0.46982 0.85239 0.19337 0.0
O261 O 0.47352 0.85213 0.18114 0.0
O262 O 0.45802 0.9333 0.1704 0.0
Zn263 Zn 0.45147 0.88077 0.17944 0.0
O264 O 0.45157 0.82772 0.16761 0.0
C265 C 0.42993 0.91289 0.17636 0.0
O266 O 0.43425 0.92996 0.16562 0.0
O267 O 0.46018 0.86524 0.19547 0.0
C268 C 0.44811 0.82667 0.15573 0.0
O269 O 0.4444 0.86264 0.15021 0.0
C270 C 0.46434 0.93033 0.16048 0.0
O271 O 0.46694 0.89158 0.15581 0.0
O272 O 0.43594 0.89194 0.18438 0.0
C273 C 0.27538 0.86317 0.19536 0.0
O274 O 0.27013 0.84668 0.18519 0.0
O275 O 0.28758 0.79914 0.16877 0.0
Zn276 Zn 0.29389 0.8512 0.17838 0.0
O277 O 0.29324 0.90538 0.16699 0.0
C278 C 0.316 0.82953 0.17364 0.0
O279 O 0.31197 0.81884 0.16202 0.0
O280 O 0.28565 0.86565 0.19494 0.0
C281 C 0.29497 0.90706 0.15456 0.0
O282 O 0.29715 0.87093 0.14801 0.0
C283 C 0.28013 0.8035 0.16013 0.0
O284 O 0.27616 0.84259 0.15768 0.0
O285 O 0.30961 0.84192 0.18279 0.0
C286 C 0.46667 0.89617 0.54935 0.0
O287 O 0.47006 0.90173 0.5616 0.0
O288 O 0.45688 0.80801 0.5723 0.0
Zn289 Zn 0.44943 0.85893 0.5635 0.0
O290 O 0.44876 0.91192 0.57529 0.0
C291 C 0.42858 0.81978 0.56652 0.0
O292 O 0.43322 0.8039 0.57724 0.0
O293 O 0.45773 0.87664 0.54736 0.0
C294 C 0.44566 0.91286 0.58731 0.0
O295 O 0.44277 0.87636 0.59324 0.0
C296 C 0.46336 0.81171 0.58204 0.0
O297 O 0.46559 0.85068 0.58685 0.0
O298 O 0.43414 0.8433 0.55866 0.0
C299 C 0.27289 0.85727 0.5515 0.0
O300 O 0.26889 0.85184 0.56348 0.0
O301 O 0.28869 0.92921 0.57746 0.0
Zn302 Zn 0.29152 0.87479 0.56685 0.0
O303 O 0.28791 0.82189 0.57786 0.0
C304 C 0.31362 0.85984 0.57195 0.0
O305 O 0.30947 0.85328 0.5838 0.0
O306 O 0.28262 0.87034 0.55027 0.0
C307 C 0.28392 0.82329 0.58948 0.0
O308 O 0.2819 0.8614 0.595 0.0
C309 C 0.28068 0.95508 0.57632 0.0
O310 O 0.27344 0.94827 0.56698 0.0
O311 O 0.30737 0.87101 0.56251 0.0
C312 C 0.52974 0.6381 0.2967 0.0
O313 O 0.52573 0.63775 0.30878 0.0
O314 O 0.54081 0.56172 0.32088 0.0
Zn315 Zn 0.54771 0.61316 0.31159 0.0
O316 O 0.54696 0.66763 0.32275 0.0
C317 C 0.56903 0.57941 0.31583 0.0
O318 O 0.56415 0.5604 0.3259 0.0
O319 O 0.53954 0.62662 0.29498 0.0
C320 C 0.5511 0.67151 0.33424 0.0
O321 O 0.55605 0.63789 0.33968 0.0
C322 C 0.53478 0.56623 0.33102 0.0
O323 O 0.5328 0.6056 0.33568 0.0
O324 O 0.56344 0.60209 0.30777 0.0
C325 C 0.72391 0.6117 0.30041 0.0
O326 O 0.72812 0.60705 0.31231 0.0
O327 O 0.71225 0.6813 0.32751 0.0
Zn328 Zn 0.70617 0.63238 0.31638 0.0
O329 O 0.70744 0.57507 0.32596 0.0
C330 C 0.6843 0.63645 0.32331 0.0
O331 O 0.68891 0.62843 0.33483 0.0
O332 O 0.71424 0.62547 0.29936 0.0
C333 C 0.70312 0.54123 0.32089 0.0
O334 O 0.69816 0.54456 0.30939 0.0
C335 C 0.71487 0.67466 0.33955 0.0
O336 O 0.71384 0.63518 0.34457 0.0
O337 O 0.69028 0.6418 0.31318 0.0
C338 C 0.52226 0.6078 0.94313 0.0
O339 O 0.51814 0.60794 0.9311 0.0
O340 O 0.53345 0.69046 0.91983 0.0
Zn341 Zn 0.54022 0.63808 0.92866 0.0
O342 O 0.54027 0.58519 0.91677 0.0
C343 C 0.56166 0.6713 0.92528 0.0
O344 O 0.5572 0.68835 0.91462 0.0
O345 O 0.53189 0.62143 0.94485 0.0
C346 C 0.54358 0.58453 0.90483 0.0
O347 O 0.54691 0.62096 0.89921 0.0
C348 C 0.52705 0.68765 0.90997 0.0
O349 O 0.5244 0.64896 0.90528 0.0
O350 O 0.55575 0.65003 0.93336 0.0
C351 C 0.71419 0.61418 0.95591 0.0
O352 O 0.71817 0.57982 0.94977 0.0
O353 O 0.70482 0.56424 0.92555 0.0
Zn354 Zn 0.6986 0.61829 0.93404 0.0
O355 O 0.70105 0.67091 0.92238 0.0
C356 C 0.67679 0.60742 0.92618 0.0
O357 O 0.68166 0.60391 0.91463 0.0
O358 O 0.70579 0.63284 0.95131 0.0
C359 C 0.70202 0.67124 0.90982 0.0
O360 O 0.70149 0.63427 0.90318 0.0
C361 C 0.71404 0.56461 0.91991 0.0
O362 O 0.71982 0.60076 0.91999 0.0
O363 O 0.68252 0.61214 0.93656 0.0
C364 C 0.47187 0.35132 0.69149 0.0
O365 O 0.4751 0.34614 0.67916 0.0
O366 O 0.46056 0.43225 0.66747 0.0
Zn367 Zn 0.45366 0.38329 0.67785 0.0
O368 O 0.45246 0.32835 0.66698 0.0
C369 C 0.43278 0.42339 0.67586 0.0
O370 O 0.43708 0.4395 0.66497 0.0
O371 O 0.46268 0.3686 0.69369 0.0
C372 C 0.44846 0.32677 0.65537 0.0
O373 O 0.44509 0.36299 0.64967 0.0
C374 C 0.4667 0.42598 0.65751 0.0
O375 O 0.46894 0.38579 0.65375 0.0
O376 O 0.43856 0.39959 0.6834 0.0
C377 C 0.27992 0.36211 0.70521 0.0
O378 O 0.27488 0.33282 0.69793 0.0
O379 O 0.29089 0.31086 0.67496 0.0
Zn380 Zn 0.29553 0.36775 0.68331 0.0
O381 O 0.29073 0.41857 0.67199 0.0
C382 C 0.31766 0.38115 0.67547 0.0
O383 O 0.31306 0.38885 0.66396 0.0
O384 O 0.28882 0.37814 0.70115 0.0
C385 C 0.28965 0.4184 0.65944 0.0
O386 O 0.29179 0.38254 0.65272 0.0
C387 C 0.28174 0.30674 0.66927 0.0
O388 O 0.27491 0.33978 0.66936 0.0
O389 O 0.31179 0.37016 0.68528 0.0
C390 C 0.46789 0.37929 0.04806 0.0
O391 O 0.47236 0.37917 0.05989 0.0
O392 O 0.45657 0.30695 0.07378 0.0
Zn393 Zn 0.44974 0.35678 0.06364 0.0
O394 O 0.44992 0.41251 0.07432 0.0
C395 C 0.42816 0.32638 0.06816 0.0
O396 O 0.43251 0.31363 0.07941 0.0
O397 O 0.45798 0.3688 0.04693 0.0
C398 C 0.44725 0.41497 0.08648 0.0
O399 O 0.44438 0.37931 0.09287 0.0
C400 C 0.4635 0.31285 0.08296 0.0
O401 O 0.46659 0.3528 0.08596 0.0
O402 O 0.43416 0.34389 0.05939 0.0
C403 C 0.27314 0.35778 0.04569 0.0
O404 O 0.26833 0.37258 0.05641 0.0
O405 O 0.2857 0.42634 0.07047 0.0
Zn406 Zn 0.29189 0.37291 0.06148 0.0
O407 O 0.29119 0.32005 0.07337 0.0
C408 C 0.31372 0.40095 0.06529 0.0
O409 O 0.30939 0.41845 0.07596 0.0
O410 O 0.28343 0.35715 0.04523 0.0
C411 C 0.29447 0.31866 0.08533 0.0
O412 O 0.29835 0.35423 0.09092 0.0
C413 C 0.27921 0.42354 0.08024 0.0
O414 O 0.2761 0.38484 0.08447 0.0
O415 O 0.30761 0.38166 0.05698 0.0
C416 C 0.08297 0.09182 0.33013 0.0
C417 C 0.07618 0.09197 0.31894 0.0
C418 C 0.0942 0.09369 0.32868 0.0
C419 C 0.11535 0.12694 0.30468 0.0
H420 H 0.13427 0.07069 0.33029 0.0
C421 C 0.16252 0.12919 0.30218 0.0
C422 C 0.1676 0.14193 0.31408 0.0
C423 C 0.15137 0.12101 0.30188 0.0
C424 C 0.12906 0.08659 0.32308 0.0
H425 H 0.07585 0.09252 0.29741 0.0
H426 H 0.09551 0.09443 0.29485 0.0
H427 H 0.11482 0.0571 0.33114 0.0
H428 H 0.16498 0.15634 0.33493 0.0
H429 H 0.14557 0.14138 0.33441 0.0
H430 H 0.12974 0.15595 0.29657 0.0
C431 C 0.09214 0.09403 0.30477 0.0
C432 C 0.11792 0.079 0.32359 0.0
C433 C 0.08087 0.09264 0.30623 0.0
C434 C 0.16131 0.14669 0.32561 0.0
C435 C 0.15022 0.13784 0.32535 0.0
C436 C 0.12653 0.13403 0.30407 0.0
C437 C 0.09894 0.09519 0.31599 0.0
C438 C 0.11089 0.09982 0.31458 0.0
C439 C 0.14516 0.12469 0.31351 0.0
C440 C 0.13345 0.1146 0.31343 0.0
H441 H 0.07961 0.0916 0.34007 0.0
H442 H 0.09913 0.09534 0.33756 0.0
H443 H 0.11019 0.14398 0.29769 0.0
H444 H 0.16717 0.12532 0.29314 0.0
H445 H 0.14763 0.11085 0.29264 0.0
C446 C 0.15793 0.10446 0.93432 0.0
C447 C 0.16332 0.09954 0.92213 0.0
C448 C 0.14667 0.10949 0.93472 0.0
C449 C 0.12185 0.09581 0.91413 0.0
H450 H 0.10957 0.17951 0.93889 0.0
C451 C 0.07834 0.15997 0.90901 0.0
C452 C 0.07188 0.1578 0.92047 0.0
C453 C 0.08951 0.15324 0.9098 0.0
C454 C 0.1129 0.15582 0.932 0.0
H455 H 0.16113 0.09572 0.90079 0.0
H456 H 0.14161 0.10562 0.90143 0.0
H457 H 0.12905 0.16524 0.93919 0.0
H458 H 0.07211 0.14868 0.94184 0.0
H459 H 0.09172 0.13759 0.94321 0.0
H460 H 0.10573 0.08743 0.90671 0.0
C461 C 0.14599 0.10457 0.91074 0.0
C462 C 0.12404 0.14743 0.9322 0.0
C463 C 0.15721 0.0991 0.91036 0.0
C464 C 0.07687 0.15044 0.93282 0.0
C465 C 0.08809 0.14422 0.93363 0.0
C466 C 0.11076 0.1046 0.91383 0.0
C467 C 0.14058 0.1101 0.92291 0.0
C468 C 0.12866 0.11754 0.92319 0.0
C469 C 0.09446 0.1447 0.92208 0.0
C470 C 0.10619 0.1349 0.9227 0.0
H471 H 0.16242 0.10473 0.94357 0.0
H472 H 0.14276 0.11292 0.94428 0.0
H473 H 0.12508 0.07189 0.90724 0.0
H474 H 0.07476 0.16563 0.89934 0.0
H475 H 0.09427 0.15436 0.90077 0.0
C476 C 0.90871 0.85862 0.6873 0.0
C477 C 0.91397 0.84555 0.67557 0.0
C478 C 0.89752 0.85307 0.68869 0.0
C479 C 0.87443 0.78988 0.67556 0.0
H480 H 0.85711 0.88732 0.68817 0.0
C481 C 0.82845 0.80152 0.66683 0.0
C482 C 0.82196 0.82184 0.67649 0.0
C483 C 0.8397 0.8001 0.6683 0.0
C484 C 0.86183 0.85945 0.68488 0.0
H485 H 0.91163 0.81626 0.65614 0.0
H486 H 0.89214 0.8067 0.65858 0.0
H487 H 0.87679 0.8937 0.68774 0.0
H488 H 0.82213 0.8546 0.69561 0.0
H489 H 0.84176 0.85142 0.69828 0.0
H490 H 0.85949 0.75575 0.67256 0.0
C491 C 0.89667 0.82088 0.66673 0.0
C492 C 0.87311 0.8632 0.6846 0.0
C493 C 0.90783 0.82669 0.6653 0.0
C494 C 0.82692 0.839 0.68793 0.0
C495 C 0.83817 0.83742 0.68943 0.0
C496 C 0.86316 0.78604 0.6759 0.0
C497 C 0.8914 0.83403 0.67843 0.0
C498 C 0.87951 0.82874 0.67972 0.0
C499 C 0.84471 0.81876 0.67949 0.0
C500 C 0.85671 0.82106 0.68035 0.0
H501 H 0.91322 0.8732 0.6954 0.0
H502 H 0.89367 0.86327 0.69785 0.0
H503 H 0.87919 0.76252 0.67196 0.0
H504 H 0.8249 0.78801 0.65789 0.0
H505 H 0.84449 0.78592 0.66038 0.0
C506 C 0.91656 0.88509 0.08198 0.0
C507 C 0.92321 0.8723 0.07133 0.0
C508 C 0.90548 0.89159 0.08009 0.0
C509 C 0.88268 0.86111 0.05888 0.0
H510 H 0.86897 0.96243 0.07495 0.0
C511 C 0.83672 0.893 0.05391 0.0
C512 C 0.8314 0.90549 0.06566 0.0
C513 C 0.84804 0.89285 0.05326 0.0
C514 C 0.87266 0.93383 0.07047 0.0
H515 H 0.92341 0.85578 0.05038 0.0
H516 H 0.90395 0.86681 0.04713 0.0
H517 H 0.88858 0.95364 0.07643 0.0
H518 H 0.83378 0.92866 0.08582 0.0
H519 H 0.85345 0.92774 0.08476 0.0
H520 H 0.86674 0.84057 0.05326 0.0
C521 C 0.90737 0.87182 0.05692 0.0
C522 C 0.88388 0.92885 0.07131 0.0
C523 C 0.9185 0.86563 0.05878 0.0
C524 C 0.83762 0.91895 0.07661 0.0
C525 C 0.84891 0.91867 0.07597 0.0
C526 C 0.87143 0.86596 0.05811 0.0
C527 C 0.90077 0.8852 0.06755 0.0
C528 C 0.88898 0.89209 0.06571 0.0
C529 C 0.85426 0.90514 0.06435 0.0
C530 C 0.86628 0.90202 0.06409 0.0
H531 H 0.91992 0.89048 0.09178 0.0
H532 H 0.90057 0.90123 0.08851 0.0
H533 H 0.88639 0.83228 0.05456 0.0
H534 H 0.83215 0.88265 0.04528 0.0
H535 H 0.85191 0.88283 0.04411 0.0
C536 C 0.08329 0.58474 0.82694 0.0
C537 C 0.07699 0.59218 0.81554 0.0
C538 C 0.09456 0.5877 0.82639 0.0
C539 C 0.11654 0.63701 0.80643 0.0
H540 H 0.13463 0.56428 0.82893 0.0
C541 C 0.16374 0.64078 0.80666 0.0
C542 C 0.16848 0.64323 0.81934 0.0
C543 C 0.15259 0.63385 0.80529 0.0
C544 C 0.12966 0.58489 0.82263 0.0
H545 H 0.0776 0.60687 0.79449 0.0
H546 H 0.09734 0.61085 0.79342 0.0
H547 H 0.1152 0.55035 0.82778 0.0
H548 H 0.16521 0.64112 0.84051 0.0
H549 H 0.14581 0.62857 0.83808 0.0
H550 H 0.13113 0.67118 0.80122 0.0
C551 C 0.09354 0.6038 0.80288 0.0
C552 C 0.11853 0.57704 0.82199 0.0
C553 C 0.08223 0.60122 0.80346 0.0
C554 C 0.16182 0.63941 0.8306 0.0
C555 C 0.15073 0.63191 0.82922 0.0
C556 C 0.12772 0.64451 0.80695 0.0
C557 C 0.09983 0.59772 0.81438 0.0
C558 C 0.1118 0.60353 0.81408 0.0
C559 C 0.14603 0.62862 0.81657 0.0
C560 C 0.13433 0.61902 0.81525 0.0
H561 H 0.07951 0.57794 0.83642 0.0
H562 H 0.0991 0.58352 0.8355 0.0
H563 H 0.1116 0.65844 0.80037 0.0
H564 H 0.16867 0.64368 0.7978 0.0
H565 H 0.14914 0.63138 0.79542 0.0
C566 C 0.08038 0.65971 0.43861 0.0
C567 C 0.07524 0.67638 0.42722 0.0
C568 C 0.09168 0.66019 0.43964 0.0
C569 C 0.11649 0.70896 0.42481 0.0
H570 H 0.13025 0.60298 0.43774 0.0
C571 C 0.16077 0.66548 0.41325 0.0
C572 C 0.16719 0.64873 0.42359 0.0
C573 C 0.14966 0.67167 0.41502 0.0
C574 C 0.12653 0.63302 0.43428 0.0
H575 H 0.0779 0.70762 0.40815 0.0
H576 H 0.09755 0.70771 0.40984 0.0
H577 H 0.11057 0.60965 0.43856 0.0
H578 H 0.16699 0.62517 0.44392 0.0
H579 H 0.14748 0.63562 0.44696 0.0
H580 H 0.13246 0.73164 0.42013 0.0
C581 C 0.09289 0.69491 0.41808 0.0
C582 C 0.11525 0.63693 0.43478 0.0
C583 C 0.0816 0.69462 0.41707 0.0
C584 C 0.16225 0.63813 0.43576 0.0
C585 C 0.1511 0.64397 0.43749 0.0
C586 C 0.12774 0.70491 0.42423 0.0
C587 C 0.09807 0.67721 0.4293 0.0
C588 C 0.11009 0.67468 0.42985 0.0
C589 C 0.14471 0.66094 0.42714 0.0
C590 C 0.13286 0.66664 0.42877 0.0
H591 H 0.0757 0.64566 0.44664 0.0
H592 H 0.09541 0.64692 0.44851 0.0
H593 H 0.11279 0.73882 0.42118 0.0
H594 H 0.16432 0.674 0.40376 0.0
H595 H 0.14491 0.68422 0.40681 0.0
C596 C 0.90792 0.37298 0.18779 0.0
C597 C 0.91344 0.37175 0.17559 0.0
C598 C 0.89674 0.36567 0.18831 0.0
C599 C 0.87481 0.3116 0.17013 0.0
H600 H 0.85571 0.39095 0.18897 0.0
C601 C 0.82875 0.31199 0.16179 0.0
C602 C 0.82188 0.32217 0.17246 0.0
C603 C 0.83998 0.31465 0.16323 0.0
C604 C 0.86093 0.36796 0.18387 0.0
H605 H 0.91155 0.36235 0.15435 0.0
H606 H 0.89209 0.3493 0.15529 0.0
H607 H 0.87525 0.40305 0.18956 0.0
H608 H 0.82139 0.34143 0.19318 0.0
H609 H 0.84103 0.345 0.1958 0.0
H610 H 0.86059 0.27628 0.16448 0.0
C611 C 0.89642 0.35575 0.16445 0.0
C612 C 0.87212 0.37505 0.18418 0.0
C613 C 0.90755 0.36355 0.16391 0.0
C614 C 0.82648 0.33365 0.18474 0.0
C615 C 0.83773 0.33599 0.18622 0.0
C616 C 0.86365 0.30423 0.16994 0.0
C617 C 0.89092 0.35645 0.17665 0.0
C618 C 0.87914 0.34737 0.17712 0.0
C619 C 0.84462 0.32716 0.17541 0.0
C620 C 0.85655 0.33276 0.1766 0.0
H621 H 0.91225 0.37926 0.19696 0.0
H622 H 0.89269 0.36628 0.19784 0.0
H623 H 0.88008 0.28933 0.16479 0.0
H624 H 0.82547 0.30323 0.15217 0.0
H625 H 0.84501 0.30827 0.15463 0.0
C626 C 0.91495 0.37473 0.55896 0.0
C627 C 0.92001 0.38746 0.57087 0.0
C628 C 0.9039 0.38251 0.55698 0.0
C629 C 0.88135 0.45176 0.56854 0.0
H630 H 0.86306 0.35795 0.55544 0.0
C631 C 0.83496 0.45266 0.57436 0.0
C632 C 0.82857 0.43327 0.56442 0.0
C633 C 0.84625 0.45099 0.57365 0.0
C634 C 0.86807 0.38481 0.55887 0.0
H635 H 0.91742 0.41835 0.59002 0.0
H636 H 0.89818 0.43178 0.58656 0.0
H637 H 0.88257 0.34679 0.55704 0.0
H638 H 0.82902 0.39889 0.54557 0.0
H639 H 0.84875 0.39673 0.5442 0.0
H640 H 0.86686 0.48971 0.57047 0.0
C641 C 0.90277 0.41616 0.57872 0.0
C642 C 0.87925 0.37833 0.55982 0.0
C643 C 0.91378 0.40813 0.58074 0.0
C644 C 0.83372 0.41386 0.55345 0.0
C645 C 0.84502 0.41236 0.5527 0.0
C646 C 0.87018 0.45834 0.56752 0.0
C647 C 0.89772 0.40348 0.56682 0.0
C648 C 0.88598 0.41148 0.56487 0.0
C649 C 0.85142 0.43011 0.56293 0.0
C650 C 0.86338 0.42469 0.56288 0.0
H651 H 0.91953 0.35879 0.55116 0.0
H652 H 0.90022 0.37261 0.54769 0.0
H653 H 0.88637 0.47815 0.57227 0.0
H654 H 0.83125 0.46781 0.58296 0.0
H655 H 0.85091 0.46455 0.58178 0.0
C656 C 0.66381 0.14075 0.83509 0.0
C657 C 0.67041 0.14698 0.82389 0.0
C658 C 0.6527 0.13396 0.83367 0.0
C659 C 0.63201 0.09974 0.80907 0.0
H660 H 0.6123 0.1435 0.83596 0.0
C661 C 0.58478 0.09524 0.80603 0.0
C662 C 0.57949 0.08081 0.8176 0.0
C663 C 0.59602 0.10132 0.80596 0.0
C664 C 0.61773 0.13086 0.82843 0.0
H665 H 0.67049 0.15215 0.80242 0.0
H666 H 0.65097 0.1417 0.79995 0.0
H667 H 0.63147 0.16178 0.83726 0.0
H668 H 0.58188 0.05964 0.83797 0.0
H669 H 0.60144 0.07085 0.83785 0.0
H670 H 0.61806 0.06974 0.80011 0.0
C671 C 0.65444 0.14094 0.80982 0.0
C672 C 0.62872 0.1412 0.82918 0.0
C673 C 0.66561 0.14727 0.81124 0.0
C674 C 0.5857 0.07085 0.8289 0.0
C675 C 0.59689 0.07751 0.82888 0.0
C676 C 0.62095 0.08992 0.80822 0.0
C677 C 0.64786 0.13379 0.82103 0.0
C678 C 0.63604 0.12521 0.81963 0.0
C679 C 0.60211 0.09365 0.81751 0.0
C680 C 0.61376 0.10486 0.81802 0.0
H681 H 0.66726 0.13995 0.84498 0.0
H682 H 0.64796 0.12772 0.84252 0.0
H683 H 0.63741 0.08641 0.80163 0.0
H684 H 0.58022 0.10306 0.79716 0.0
H685 H 0.59988 0.11384 0.79708 0.0
C686 C 0.66063 0.10919 0.4428 0.0
C687 C 0.66524 0.08837 0.43172 0.0
C688 C 0.64938 0.11346 0.44388 0.0
C689 C 0.62335 0.07463 0.4289 0.0
H690 H 0.61237 0.18575 0.4419 0.0
C691 C 0.58164 0.14311 0.41504 0.0
C692 C 0.57462 0.15133 0.42574 0.0
C693 C 0.5926 0.13488 0.41727 0.0
C694 C 0.61535 0.15445 0.43838 0.0
H695 H 0.6617 0.05495 0.41322 0.0
H696 H 0.64222 0.06371 0.41482 0.0
H697 H 0.63177 0.17018 0.4432 0.0
H698 H 0.57365 0.15932 0.44711 0.0
H699 H 0.59305 0.1463 0.45094 0.0
H700 H 0.60696 0.06027 0.42339 0.0
C701 C 0.64718 0.07571 0.42291 0.0
C702 C 0.62644 0.1453 0.43918 0.0
C703 C 0.65839 0.07087 0.42193 0.0
C704 C 0.57888 0.15299 0.43868 0.0
C705 C 0.58993 0.14559 0.44089 0.0
C706 C 0.61233 0.08416 0.42787 0.0
C707 C 0.64251 0.09754 0.43382 0.0
C708 C 0.63061 0.10554 0.43423 0.0
C709 C 0.5968 0.13554 0.43021 0.0
C710 C 0.60828 0.12436 0.43242 0.0
H711 H 0.66571 0.12274 0.45055 0.0
H712 H 0.64608 0.12969 0.45255 0.0
H713 H 0.6262 0.04324 0.4253 0.0
H714 H 0.57861 0.14146 0.40495 0.0
H715 H 0.5978 0.12756 0.40889 0.0
C716 C 0.33454 0.83773 0.16412 0.0
C717 C 0.32783 0.83427 0.17534 0.0
C718 C 0.3455 0.8479 0.16554 0.0
C719 C 0.3687 0.84304 0.18724 0.0
H720 H 0.37872 0.94523 0.16791 0.0
C721 C 0.41333 0.89837 0.19 0.0
C722 C 0.41803 0.91218 0.17801 0.0
C723 C 0.40211 0.89298 0.19101 0.0
C724 C 0.37611 0.91633 0.17326 0.0
H725 H 0.32742 0.83666 0.19686 0.0
H726 H 0.34678 0.85311 0.19932 0.0
H727 H 0.35969 0.92425 0.1668 0.0
H728 H 0.41465 0.93228 0.15778 0.0
H729 H 0.39523 0.92152 0.15934 0.0
H730 H 0.38515 0.83356 0.19319 0.0
C731 C 0.34345 0.84856 0.18946 0.0
C732 C 0.3652 0.90451 0.17266 0.0
C733 C 0.33241 0.83919 0.18804 0.0
C734 C 0.41128 0.92187 0.16719 0.0
C735 C 0.40009 0.91589 0.16813 0.0
C736 C 0.37967 0.85437 0.18765 0.0
C737 C 0.35 0.85399 0.1782 0.0
C738 C 0.36144 0.86751 0.17951 0.0
C739 C 0.39536 0.90072 0.17998 0.0
C740 C 0.38355 0.89086 0.18052 0.0
H741 H 0.33125 0.83429 0.1542 0.0
H742 H 0.35045 0.85153 0.15672 0.0
H743 H 0.36595 0.81428 0.19256 0.0
H744 H 0.41834 0.89095 0.19855 0.0
H745 H 0.39875 0.88216 0.20038 0.0
C746 C 0.33011 0.86349 0.55742 0.0
C747 C 0.3253 0.85248 0.56963 0.0
C748 C 0.34116 0.85595 0.5553 0.0
C749 C 0.36414 0.79002 0.56734 0.0
H750 H 0.38194 0.88422 0.55354 0.0
C751 C 0.41033 0.79557 0.57438 0.0
C752 C 0.41678 0.81492 0.5645 0.0
C753 C 0.39905 0.79545 0.57323 0.0
C754 C 0.37708 0.85721 0.55715 0.0
H755 H 0.32828 0.82473 0.58913 0.0
H756 H 0.3475 0.81161 0.58541 0.0
H757 H 0.36235 0.89355 0.55481 0.0
H758 H 0.41649 0.84722 0.54531 0.0
H759 H 0.3968 0.84625 0.54319 0.0
H760 H 0.37883 0.75378 0.56981 0.0
C761 C 0.34273 0.82577 0.57746 0.0
C762 C 0.36585 0.86265 0.55791 0.0
C763 C 0.33174 0.83364 0.57962 0.0
C764 C 0.41174 0.83236 0.55315 0.0
C765 C 0.40045 0.83205 0.55197 0.0
C766 C 0.37535 0.78444 0.5665 0.0
C767 C 0.34756 0.83685 0.56529 0.0
C768 C 0.3593 0.82946 0.56327 0.0
C769 C 0.39397 0.81443 0.56214 0.0
C770 C 0.38197 0.81832 0.56165 0.0
H771 H 0.32536 0.87803 0.54952 0.0
H772 H 0.34468 0.86465 0.54581 0.0
H773 H 0.35925 0.76361 0.57131 0.0
H774 H 0.41395 0.7819 0.58326 0.0
H775 H 0.39432 0.78208 0.58133 0.0
C776 C 0.66603 0.62136 0.33289 0.0
C777 C 0.67237 0.63475 0.32204 0.0
C778 C 0.65485 0.61655 0.33157 0.0
C779 C 0.63342 0.60043 0.30636 0.0
H780 H 0.61454 0.6285 0.33594 0.0
C781 C 0.58629 0.59947 0.3042 0.0
C782 C 0.58099 0.58015 0.31509 0.0
C783 C 0.59754 0.60495 0.30429 0.0
C784 C 0.61974 0.62019 0.32764 0.0
H785 H 0.67192 0.65475 0.30139 0.0
H786 H 0.65228 0.64745 0.29917 0.0
H787 H 0.63385 0.64398 0.33757 0.0
H788 H 0.58339 0.54977 0.33435 0.0
H789 H 0.60299 0.55964 0.33451 0.0
H790 H 0.61915 0.57734 0.29639 0.0
C791 C 0.65601 0.63973 0.30862 0.0
C792 C 0.6308 0.629 0.32856 0.0
C793 C 0.66725 0.64424 0.30992 0.0
C794 C 0.58721 0.56488 0.32582 0.0
C795 C 0.59842 0.57077 0.32596 0.0
C796 C 0.62231 0.59204 0.30538 0.0
C797 C 0.64969 0.62543 0.31941 0.0
C798 C 0.63781 0.61868 0.31801 0.0
C799 C 0.60366 0.59163 0.31532 0.0
C800 C 0.6154 0.60131 0.31609 0.0
H801 H 0.66973 0.6135 0.34235 0.0
H802 H 0.65028 0.60475 0.34003 0.0
H803 H 0.6386 0.59156 0.29811 0.0
H804 H 0.58172 0.61147 0.29576 0.0
H805 H 0.60139 0.62119 0.29597 0.0
C806 C 0.65882 0.61622 0.91517 0.0
C807 C 0.66486 0.61027 0.92685 0.0
C808 C 0.64763 0.6222 0.91573 0.0
C809 C 0.62563 0.65456 0.9388 0.0
H810 H 0.60742 0.61038 0.91041 0.0
C811 C 0.57839 0.65598 0.9386 0.0
C812 C 0.57356 0.67074 0.92676 0.0
C813 C 0.58962 0.65036 0.93938 0.0
C814 C 0.61243 0.62313 0.91835 0.0
H815 H 0.66386 0.60461 0.94827 0.0
H816 H 0.64422 0.61357 0.94924 0.0
H817 H 0.62669 0.59339 0.91045 0.0
H818 H 0.57675 0.69277 0.90665 0.0
H819 H 0.59632 0.68235 0.90799 0.0
H820 H 0.61117 0.68334 0.94681 0.0
C821 C 0.64818 0.61481 0.93966 0.0
C822 C 0.62348 0.61354 0.91838 0.0
C823 C 0.65943 0.60933 0.9391 0.0
C824 C 0.58021 0.68134 0.91591 0.0
C825 C 0.5914 0.67513 0.91663 0.0
C826 C 0.61452 0.66362 0.93887 0.0
C827 C 0.64216 0.62179 0.92798 0.0
C828 C 0.63026 0.62966 0.92849 0.0
C829 C 0.59617 0.65882 0.92828 0.0
C830 C 0.60787 0.64849 0.92854 0.0
H831 H 0.66277 0.61749 0.90557 0.0
H832 H 0.64332 0.62831 0.90655 0.0
H833 H 0.63062 0.66803 0.94666 0.0
H834 H 0.57347 0.64766 0.94714 0.0
H835 H 0.59313 0.6377 0.94846 0.0
C836 C 0.3347 0.37648 0.68903 0.0
C837 C 0.32946 0.3877 0.6771 0.0
C838 C 0.34581 0.38388 0.69057 0.0
C839 C 0.36827 0.45047 0.67752 0.0
H840 H 0.38668 0.357 0.69057 0.0
C841 C 0.41428 0.44723 0.66877 0.0
C842 C 0.42103 0.42797 0.67837 0.0
C843 C 0.40304 0.44684 0.67034 0.0
C844 C 0.38165 0.38381 0.68716 0.0
H845 H 0.33177 0.41545 0.65746 0.0
H846 H 0.35111 0.42832 0.66018 0.0
H847 H 0.36709 0.34681 0.69006 0.0
H848 H 0.42131 0.39538 0.69752 0.0
H849 H 0.40168 0.39551 0.70038 0.0
H850 H 0.38279 0.4874 0.67451 0.0
C851 C 0.34662 0.41413 0.66836 0.0
C852 C 0.37043 0.37786 0.68683 0.0
C853 C 0.33555 0.4064 0.66677 0.0
C854 C 0.41633 0.41018 0.68988 0.0
C855 C 0.40508 0.41 0.69149 0.0
C856 C 0.37948 0.45655 0.67793 0.0
C857 C 0.35186 0.40305 0.68028 0.0
C858 C 0.36365 0.4108 0.68176 0.0
C859 C 0.39829 0.42745 0.68159 0.0
C860 C 0.38632 0.42296 0.68251 0.0
H861 H 0.33022 0.36205 0.69717 0.0
H862 H 0.34965 0.37517 0.69988 0.0
H863 H 0.36321 0.47669 0.67377 0.0
H864 H 0.41764 0.46116 0.65978 0.0
H865 H 0.39807 0.46011 0.66244 0.0
C866 C 0.33043 0.38521 0.05198 0.0
C867 C 0.3256 0.39721 0.0641 0.0
C868 C 0.34156 0.37688 0.05131 0.0
C869 C 0.3634 0.33496 0.07126 0.0
H870 H 0.38319 0.39452 0.04745 0.0
C871 C 0.40953 0.32276 0.07768 0.0
C872 C 0.41627 0.32643 0.06652 0.0
C873 C 0.39834 0.32809 0.07647 0.0
C874 C 0.37776 0.37682 0.05397 0.0
H875 H 0.32868 0.41093 0.08491 0.0
H876 H 0.34806 0.3954 0.08375 0.0
H877 H 0.36389 0.41214 0.04682 0.0
H878 H 0.41656 0.33631 0.04521 0.0
H879 H 0.39696 0.3437 0.04296 0.0
H880 H 0.37706 0.29875 0.07824 0.0
C881 C 0.34322 0.39276 0.0748 0.0
C882 C 0.36673 0.38724 0.05366 0.0
C883 C 0.33216 0.40191 0.07542 0.0
C884 C 0.41156 0.33362 0.05401 0.0
C885 C 0.40033 0.33824 0.05275 0.0
C886 C 0.37437 0.32392 0.07142 0.0
C887 C 0.34798 0.37958 0.06279 0.0
C888 C 0.35952 0.36696 0.06247 0.0
C889 C 0.39359 0.33647 0.06401 0.0
C890 C 0.38175 0.34531 0.06296 0.0
H891 H 0.32557 0.3814 0.0431 0.0
H892 H 0.34509 0.36675 0.04195 0.0
H893 H 0.35792 0.31844 0.07802 0.0
H894 H 0.41292 0.31762 0.08748 0.0
H895 H 0.39349 0.32726 0.08542 0.0
C896 C 0.02348 0.17459 0.27804 0.0
C897 C 0.01883 0.13927 0.28495 0.0
C898 C 0.01718 0.20056 0.26967 0.0
C899 C 0.99141 0.20462 0.25124 0.0
H900 H 0.99507 0.3304 0.25464 0.0
C901 C 0.9629 0.32396 0.22459 0.0
C902 C 0.96794 0.3583 0.21764 0.0
C903 C 0.96873 0.29917 0.23378 0.0
C904 C 0.99401 0.29537 0.25351 0.0
H905 H 0.00402 0.10226 0.28801 0.0
H906 H 0.993 0.14775 0.27337 0.0
H907 H 0.00626 0.28119 0.26791 0.0
H908 H 0.98286 0.39522 0.21545 0.0
H909 H 0.99306 0.35168 0.23142 0.0
H910 H 0.97922 0.21872 0.23677 0.0
C911 C 0.00154 0.15524 0.27443 0.0
C912 C 0.00043 0.26719 0.26107 0.0
C913 C 0.00785 0.12922 0.28282 0.0
C914 C 0.97874 0.36898 0.22064 0.0
C915 C 0.98459 0.34406 0.22982 0.0
C916 C 0.98499 0.23279 0.24366 0.0
C917 C 0.00609 0.19176 0.26801 0.0
C918 C -0.00077 0.22152 0.25997 0.0
C919 C 0.97972 0.30812 0.2362 0.0
C920 C 0.98624 0.27848 0.24469 0.0
H921 H 0.03194 0.18303 0.27938 0.0
H922 H 0.02095 0.22793 0.26463 0.0
H923 H 0.99039 0.16959 0.25007 0.0
H924 H 0.95455 0.31518 0.22261 0.0
H925 H 0.96469 0.27229 0.23876 0.0
C926 C 0.21921 0.08992 0.26805 0.0
C927 C 0.22507 0.10966 0.27841 0.0
C928 C 0.22455 0.06547 0.25835 0.0
C929 C 0.25141 0.04129 0.24387 0.0
H930 H 0.2388 0.92705 0.23699 0.0
C931 C 0.27502 0.90752 0.21623 0.0
C932 C 0.26939 0.88551 0.20609 0.0
C933 C 0.26947 0.93397 0.22524 0.0
C934 C 0.24236 0.95898 0.23871 0.0
H935 H 0.2412 0.12175 0.28622 0.0
H936 H 0.25051 0.07898 0.26932 0.0
H937 H 0.22932 0.97873 0.25132 0.0
H938 H 0.25345 0.87212 0.1979 0.0
H939 H 0.24377 0.91843 0.21362 0.0
H940 H 0.26448 0.02144 0.2313 0.0
C941 C 0.24178 0.0824 0.26868 0.0
C942 C 0.23692 0.98864 0.24687 0.0
C943 C 0.23644 0.1068 0.2784 0.0
C944 C 0.25803 0.8887 0.20558 0.0
C945 C 0.25248 0.91516 0.21461 0.0
C946 C 0.25685 0.01163 0.2357 0.0
C947 C 0.23587 0.06043 0.2588 0.0
C948 C 0.2414 0.03005 0.24956 0.0
C949 C 0.25817 0.93888 0.22432 0.0
C950 C 0.25241 0.97009 0.23309 0.0
H951 H 0.21044 0.09177 0.26772 0.0
H952 H 0.21981 0.04958 0.25068 0.0
H953 H 0.255 0.07313 0.24566 0.0
H954 H 0.28377 0.90551 0.21695 0.0
H955 H 0.27404 0.95116 0.2328 0.0
C956 C 0.02186 0.08754 0.96578 0.0
C957 C 0.01664 0.08508 0.9534 0.0
C958 C 0.01782 0.06431 0.97666 0.0
C959 C 0.00085 0.96854 0.98463 0.0
H960 H 0.00022 0.01883 0.01997 0.0
C961 C 0.97727 0.89248 0.02841 0.0
C962 C 0.98188 0.89537 0.04114 0.0
C963 C 0.9823 0.91253 0.01758 0.0
C964 C 0.0005 0.00409 0.01019 0.0
H965 H 0.00287 0.0578 0.94284 0.0
H966 H 0.99575 0.01792 0.96186 0.0
H967 H 0.00703 0.06229 0.00146 0.0
H968 H 0.99569 0.91929 0.05236 0.0
H969 H 0.0045 0.95388 0.03341 0.0
H970 H 0.9942 0.9105 0.99335 0.0
C971 C 0.00308 0.03702 0.96309 0.0
C972 C 0.00437 0.02903 -0.00041 0.0
C973 C 0.00711 0.06017 0.95223 0.0
C974 C 0.99189 0.91673 0.0427 0.0
C975 C 0.9969 0.93682 0.03187 0.0
C976 C 0.99696 0.94362 0.99523 0.0
C977 C 0.00849 0.03823 0.97537 0.0
C978 C 0.00452 0.01163 0.98668 0.0
C979 C 0.99202 0.93584 0.01927 0.0
C980 C 0.99669 0.96121 0.00811 0.0
H981 H 0.02923 0.10638 0.967 0.0
H982 H 0.0222 0.0657 0.98597 0.0
H983 H 0.00105 0.95392 0.97483 0.0
H984 H 0.96957 0.87621 0.02688 0.0
H985 H 0.97831 0.91141 0.008 0.0
C986 C 0.21332 0.15196 0.97127 0.0
C987 C 0.21905 0.12665 0.96197 0.0
C988 C 0.21884 0.1746 0.98123 0.0
C989 C 0.24548 0.18522 -0.00193 0.0
H990 H 0.23619 0.30542 0.00334 0.0
C991 C 0.27194 0.31148 0.02527 0.0
C992 C 0.26674 0.33601 0.03521 0.0
C993 C 0.2659 0.28629 0.01639 0.0
C994 C 0.23882 0.27182 0.00205 0.0
H995 H 0.23498 0.10324 0.95625 0.0
H996 H 0.24462 0.14326 0.97347 0.0
H997 H 0.2259 0.25771 0.98858 0.0
H998 H 0.25111 0.35505 0.04323 0.0
H999 H 0.24056 0.31129 0.02761 0.0
H1000 H 0.25854 0.1998 0.01135 0.0
C1001 C 0.23586 0.14534 0.97318 0.0
C1002 C 0.2329 0.24439 0.99366 0.0
C1003 C 0.23033 0.12247 0.96327 0.0
C1004 C 0.25536 0.33641 0.0357 0.0
C1005 C 0.24931 0.31146 0.02675 0.0
C1006 C 0.25144 0.21276 0.00638 0.0
C1007 C 0.2302 0.17257 0.98205 0.0
C1008 C 0.23618 0.20082 0.99154 0.0
C1009 C 0.25454 0.28544 0.0172 0.0
C1010 C 0.24819 0.25637 0.0084 0.0
H1011 H 0.2046 0.15548 0.97061 0.0
H1012 H 0.21423 0.19451 0.9881 0.0
H1013 H 0.24814 0.15168 -0.00321 0.0
H1014 H 0.2807 0.31055 0.0246 0.0
H1015 H 0.27012 0.26706 0.00897 0.0
C1016 C 0.96406 0.83751 0.72367 0.0
C1017 C 0.96844 0.87099 0.71575 0.0
C1018 C 0.97048 0.81598 0.733 0.0
C1019 C -0.00129 0.78598 0.73796 0.0
H1020 H 0.98838 0.74242 0.77183 0.0
C1021 C 0.02522 0.68398 0.77386 0.0
C1022 C 0.02013 0.64983 0.78085 0.0
C1023 C 0.01916 0.71236 0.76592 0.0
C1024 C 0.99133 0.75395 0.76233 0.0
H1025 H 0.98277 0.91032 0.71203 0.0
H1026 H 0.99401 0.87261 0.72843 0.0
H1027 H 0.97732 0.79404 0.75926 0.0
H1028 H 0.00478 0.61714 0.78438 0.0
H1029 H 0.99424 0.6662 0.77031 0.0
H1030 H 0.01263 0.74529 0.74089 0.0
C1031 C 0.98563 0.86277 0.72727 0.0
C1032 C 0.98503 0.78372 0.75518 0.0
C1033 C 0.97917 0.88458 0.71798 0.0
C1034 C 0.00894 0.64328 0.77919 0.0
C1035 C 0.00288 0.67165 0.77124 0.0
C1036 C 0.00501 0.75614 0.74509 0.0
C1037 C 0.98143 0.82737 0.73457 0.0
C1038 C 0.9886 0.79965 0.74286 0.0
C1039 C 0.00789 0.70712 0.76478 0.0
C1040 C 0.00132 0.7394 0.75728 0.0
H1041 H 0.95579 0.82649 0.72223 0.0
H1042 H 0.96702 0.78871 0.73842 0.0
H1043 H 0.00159 0.79709 0.72838 0.0
H1044 H 0.03383 0.68994 0.77491 0.0
H1045 H 0.02325 0.73945 0.76112 0.0
C1046 C 0.72269 0.09943 0.77896 0.0
C1047 C 0.72711 0.09273 0.79167 0.0
C1048 C 0.72747 0.08013 0.76783 0.0
C1049 C 0.74473 0.98693 0.75871 0.0
H1050 H 0.74826 0.04861 0.72534 0.0
C1051 C 0.77021 0.91843 0.71557 0.0
C1052 C 0.76632 0.92468 0.7026 0.0
C1053 C 0.76501 0.93815 0.72633 0.0
C1054 C 0.74719 0.03078 0.73454 0.0
H1055 H 0.74025 0.06209 0.8026 0.0
H1056 H 0.74862 0.02888 0.78318 0.0
H1057 H 0.74024 0.08643 0.7443 0.0
H1058 H 0.75374 0.95546 0.69076 0.0
H1059 H 0.7446 0.98944 0.70957 0.0
H1060 H 0.75167 0.93131 0.749 0.0
C1061 C 0.74136 0.04835 0.78186 0.0
C1062 C 0.74263 0.05247 0.74539 0.0
C1063 C 0.7366 0.06764 0.79296 0.0
C1064 C 0.75697 0.95017 0.70063 0.0
C1065 C 0.75177 0.96988 0.71139 0.0
C1066 C 0.74927 0.96524 0.74787 0.0
C1067 C 0.73674 0.05376 0.76921 0.0
C1068 C 0.74143 0.03083 0.75761 0.0
C1069 C 0.75581 0.96446 0.72433 0.0
C1070 C 0.75061 0.98701 0.73569 0.0
H1071 H 0.71538 0.11859 0.77765 0.0
H1072 H 0.72371 0.08469 0.75821 0.0
H1073 H 0.74371 0.96915 0.76793 0.0
H1074 H 0.7774 0.89903 0.71742 0.0
H1075 H 0.76838 0.93372 0.73617 0.0
C1076 C 0.73109 0.62299 0.96942 0.0
C1077 C 0.72042 0.63604 0.96654 0.0
C1078 C 0.73756 0.64817 0.97787 0.0
C1079 C 0.74023 0.76176 0.98939 0.0
H1080 H 0.76072 0.71264 0.01448 0.0
C1081 C 0.76456 0.86617 0.02692 0.0
C1082 C 0.77529 0.85339 0.02956 0.0
C1083 C 0.75796 0.84059 0.01874 0.0
C1084 C 0.75513 0.7268 0.00739 0.0
H1085 H 0.70794 0.68396 0.97098 0.0
H1086 H 0.71918 0.72737 0.98585 0.0
H1087 H 0.74864 0.66404 0.00221 0.0
H1088 H 0.78771 0.80527 0.02503 0.0
H1089 H 0.77623 0.76112 0.01063 0.0
H1090 H 0.74673 0.8245 0.99455 0.0
C1091 C 0.72262 0.69833 0.98133 0.0
C1092 C 0.74819 0.69897 0.0004 0.0
C1093 C 0.71616 0.67326 0.97288 0.0
C1094 C 0.77945 0.81583 0.0233 0.0
C1095 C 0.77285 0.79032 0.01512 0.0
C1096 C 0.74717 0.78958 0.99637 0.0
C1097 C 0.73348 0.68677 0.98361 0.0
C1098 C 0.74067 0.71616 0.99133 0.0
C1099 C 0.76197 0.80181 0.01303 0.0
C1100 C 0.7547 0.77239 0.00543 0.0
H1101 H 0.73461 0.59449 0.96468 0.0
H1102 H 0.74592 0.63849 0.9794 0.0
H1103 H 0.73466 0.77594 0.98227 0.0
H1104 H 0.76111 0.8949 0.0316 0.0
H1105 H 0.74958 0.8502 0.01735 0.0
C1106 C 0.237 0.61521 0.78272 0.0
C1107 C 0.22585 0.60794 0.78454 0.0
C1108 C 0.24298 0.58843 0.77419 0.0
C1109 C 0.24239 0.47784 0.75978 0.0
H1110 H 0.26497 0.52258 0.73672 0.0
C1111 C 0.26338 0.37472 0.71907 0.0
C1112 C 0.27442 0.38274 0.71663 0.0
C1113 C 0.25773 0.40003 0.72832 0.0
C1114 C 0.2588 0.50951 0.74326 0.0
H1115 H 0.21212 0.56856 0.77826 0.0
H1116 H 0.22254 0.52238 0.76325 0.0
H1117 H 0.25434 0.57342 0.75007 0.0
H1118 H 0.28837 0.42119 0.7227 0.0
H1119 H 0.27853 0.46474 0.73896 0.0
H1120 H 0.24683 0.41392 0.75292 0.0
C1121 C 0.22669 0.54809 0.76865 0.0
C1122 C 0.25269 0.53866 0.75086 0.0
C1123 C 0.22072 0.5748 0.77716 0.0
C1124 C 0.27984 0.41454 0.72424 0.0
C1125 C 0.27419 0.43972 0.73349 0.0
C1126 C 0.24851 0.44867 0.75218 0.0
C1127 C 0.23793 0.55395 0.76731 0.0
C1128 C 0.2444 0.52315 0.75916 0.0
C1129 C 0.26301 0.43368 0.73532 0.0
C1130 C 0.25677 0.46421 0.74382 0.0
H1131 H 0.2412 0.64044 0.78826 0.0
H1132 H 0.25164 0.59364 0.77339 0.0
H1133 H 0.23618 0.46483 0.76627 0.0
H1134 H 0.25898 0.35045 0.71338 0.0
H1135 H 0.2491 0.39467 0.72948 0.0
C1136 C 0.0071 0.60455 0.45972 0.0
C1137 C 0.01848 0.60469 0.45909 0.0
C1138 C 0.00173 0.57863 0.46906 0.0
C1139 C 0.00567 0.4785 0.48846 0.0
H1140 H 0.98058 0.51843 0.50821 0.0
C1141 C 0.98691 0.38139 0.53189 0.0
C1142 C 0.97562 0.38326 0.5336 0.0
C1143 C 0.99194 0.40623 0.52202 0.0
C1144 C 0.98747 0.50656 0.5026 0.0
H1145 H 0.03316 0.5795 0.46821 0.0
H1146 H 0.02377 0.53452 0.48454 0.0
H1147 H 0.98986 0.56879 0.49324 0.0
H1148 H 0.96067 0.41032 0.52573 0.0
H1149 H 0.96944 0.45299 0.50835 0.0
H1150 H 0.00328 0.41625 0.49776 0.0
C1151 C 0.01902 0.55392 0.47767 0.0
C1152 C 0.9928 0.53549 0.49409 0.0
C1153 C 0.02438 0.57996 0.46838 0.0
C1154 C 0.9694 0.40849 0.52475 0.0
C1155 C 0.97443 0.43321 0.51486 0.0
C1156 C 0.00031 0.44952 0.49693 0.0
C1157 C 0.00765 0.55228 0.47791 0.0
C1158 C 0.00199 0.5218 0.48699 0.0
C1159 C 0.98577 0.43328 0.51362 0.0
C1160 C 0.99118 0.46328 0.50413 0.0
H1161 H 0.00232 0.62331 0.45271 0.0
H1162 H 0.99296 0.5779 0.469 0.0
H1163 H 0.01262 0.46684 0.48292 0.0
H1164 H 0.99194 0.36225 0.53854 0.0
H1165 H 0.0007 0.40575 0.52137 0.0
C1166 C 0.23643 0.67899 0.45242 0.0
C1167 C 0.22596 0.66165 0.45406 0.0
C1168 C 0.24174 0.69905 0.46304 0.0
C1169 C 0.24162 0.71106 0.49951 0.0
H1170 H 0.25514 0.82311 0.49197 0.0
C1171 C 0.25636 0.82395 0.54135 0.0
C1172 C 0.26678 0.8418 0.5398 0.0
C1173 C 0.25116 0.80371 0.53069 0.0
C1174 C 0.25148 0.79171 0.49421 0.0
H1175 H 0.21308 0.64977 0.46827 0.0
H1176 H 0.22234 0.68493 0.48679 0.0
H1177 H 0.24703 0.78102 0.47394 0.0
H1178 H 0.27969 0.85439 0.52568 0.0
H1179 H 0.27062 0.81885 0.50708 0.0
H1180 H 0.24607 0.72173 0.51977 0.0
C1181 C 0.22645 0.6829 0.47731 0.0
C1182 C 0.24687 0.76753 0.48389 0.0
C1183 C 0.22113 0.66287 0.46669 0.0
C1184 C 0.27167 0.84092 0.5272 0.0
C1185 C 0.26646 0.82065 0.51653 0.0
C1186 C 0.24623 0.73522 0.50983 0.0
C1187 C 0.2367 0.70209 0.47551 0.0
C1188 C 0.24188 0.72697 0.48643 0.0
C1189 C 0.25626 0.80094 0.51825 0.0
C1190 C 0.25119 0.77585 0.50729 0.0
H1191 H 0.2404 0.67833 0.44283 0.0
H1192 H 0.24972 0.71282 0.46143 0.0
H1193 H 0.23795 0.67968 0.50175 0.0
H1194 H 0.25234 0.82437 0.55091 0.0
H1195 H 0.2432 0.78959 0.53224 0.0
C1196 C 0.7706 0.40136 0.21456 0.0
C1197 C 0.76559 0.4026 0.20203 0.0
C1198 C 0.76612 0.42409 0.22526 0.0
C1199 C 0.74815 0.51734 0.23244 0.0
H1200 H 0.74801 0.46966 0.26811 0.0
C1201 C 0.72475 0.59547 0.27608 0.0
C1202 C 0.72969 0.59472 0.28865 0.0
C1203 C 0.72959 0.5743 0.26532 0.0
C1204 C 0.74813 0.48363 0.25823 0.0
H1205 H 0.7517 0.42694 0.19105 0.0
H1206 H 0.74381 0.46595 0.20979 0.0
H1207 H 0.75506 0.42564 0.24986 0.0
H1208 H 0.74385 0.57316 0.29965 0.0
H1209 H 0.75233 0.53655 0.28083 0.0
H1210 H 0.74113 0.57521 0.24081 0.0
C1211 C 0.75132 0.44823 0.21126 0.0
C1212 C 0.75214 0.45839 0.24778 0.0
C1213 C 0.7558 0.42559 0.20055 0.0
C1214 C 0.7398 0.57412 0.29011 0.0
C1215 C 0.74463 0.55287 0.27936 0.0
C1216 C 0.74411 0.54255 0.24288 0.0
C1217 C 0.75654 0.44839 0.22366 0.0
C1218 C 0.75218 0.47493 0.23477 0.0
C1219 C 0.73946 0.55194 0.26694 0.0
C1220 C 0.74406 0.52593 0.25588 0.0
H1221 H 0.77816 0.38399 0.21601 0.0
H1222 H 0.77038 0.42383 0.23467 0.0
H1223 H 0.74825 0.53131 0.22255 0.0
H1224 H 0.71695 0.61109 0.27463 0.0
H1225 H 0.72538 0.57393 0.25588 0.0
C1226 C 0.76048 0.3348 0.53864 0.0
C1227 C 0.77102 0.35066 0.53646 0.0
C1228 C 0.75457 0.31619 0.52827 0.0
C1229 C 0.75836 0.26154 0.49617 0.0
H1230 H 0.72747 0.28154 0.49231 0.0
C1231 C 0.73358 0.19577 0.45183 0.0
C1232 C 0.7233 0.17833 0.45465 0.0
C1233 C 0.7395 0.21725 0.46168 0.0
C1234 C 0.73607 0.27532 0.49335 0.0
H1235 H 0.78351 0.36074 0.5216 0.0
H1236 H 0.77311 0.32859 0.50344 0.0
H1237 H 0.73754 0.32051 0.50949 0.0
H1238 H 0.71123 0.16896 0.47007 0.0
H1239 H 0.72163 0.20616 0.48731 0.0
H1240 H 0.75688 0.21621 0.48006 0.0
C1241 C 0.7695 0.32998 0.51323 0.0
C1242 C 0.74183 0.29767 0.50317 0.0
C1243 C 0.77542 0.34863 0.52361 0.0
C1244 C 0.71912 0.18216 0.46758 0.0
C1245 C 0.72504 0.20372 0.47742 0.0
C1246 C 0.7526 0.23922 0.48634 0.0
C1247 C 0.75907 0.31308 0.5155 0.0
C1248 C 0.75302 0.29085 0.50472 0.0
C1249 C 0.73525 0.22177 0.47454 0.0
C1250 C 0.74139 0.24571 0.48489 0.0
H1251 H 0.75686 0.33587 0.54843 0.0
H1252 H 0.74659 0.30305 0.53036 0.0
H1253 H 0.76694 0.25506 0.49726 0.0
H1254 H 0.73701 0.19341 0.44196 0.0
H1255 H 0.74731 0.23116 0.45915 0.0
C1256 C 0.48842 0.31342 0.70001 0.0
C1257 C 0.47839 0.33354 0.70253 0.0
C1258 C 0.4942 0.29349 0.71027 0.0
C1259 C 0.49661 0.28849 0.74676 0.0
H1260 H 0.5091 0.17404 0.73993 0.0
C1261 C 0.5125 0.17967 0.78888 0.0
C1262 C 0.52267 0.15999 0.78692 0.0
C1263 C 0.50712 0.1998 0.77835 0.0
C1264 C 0.50574 0.20615 0.74194 0.0
H1265 H 0.46668 0.34957 0.71785 0.0
H1266 H 0.47672 0.31441 0.73573 0.0
H1267 H 0.49996 0.21328 0.72203 0.0
H1268 H 0.535 0.14459 0.77229 0.0
H1269 H 0.52558 0.17996 0.75387 0.0
H1270 H 0.50232 0.28123 0.76668 0.0
C1271 C 0.48017 0.31441 0.72585 0.0
C1272 C 0.50054 0.22867 0.7317 0.0
C1273 C 0.47439 0.33439 0.71559 0.0
C1274 C 0.52717 0.15951 0.77411 0.0
C1275 C 0.52177 0.17963 0.76356 0.0
C1276 C 0.50179 0.26595 0.75699 0.0
C1277 C 0.49006 0.29327 0.72326 0.0
C1278 C 0.49588 0.27001 0.73402 0.0
C1279 C 0.51178 0.20062 0.76564 0.0
C1280 C 0.50636 0.22447 0.7547 0.0
H1281 H 0.49175 0.31243 0.69006 0.0
H1282 H 0.50189 0.27809 0.70802 0.0
H1283 H 0.49325 0.32057 0.7488 0.0
H1284 H 0.50877 0.18035 0.79861 0.0
H1285 H 0.49933 0.21503 0.78018 0.0
C1286 C 0.48227 0.93946 0.54053 0.0
C1287 C 0.47278 0.91521 0.53816 0.0
C1288 C 0.48771 0.95972 0.53006 0.0
C1289 C 0.491 0.9573 0.49378 0.0
H1290 H 0.50083 0.07706 0.49844 0.0
C1291 C 0.50725 0.05866 0.45012 0.0
C1292 C 0.51673 0.083 0.45242 0.0
C1293 C 0.50165 0.03968 0.46068 0.0
C1294 C 0.49822 0.04349 0.49704 0.0
H1295 H 0.46167 0.89247 0.52294 0.0
H1296 H 0.47117 0.928 0.50466 0.0
H1297 H 0.49177 0.0395 0.51672 0.0
H1298 H 0.52761 0.10764 0.46762 0.0
H1299 H 0.51787 0.07407 0.48607 0.0
H1300 H 0.49748 0.96114 0.47414 0.0
C1301 C 0.47443 0.93108 0.5146 0.0
C1302 C 0.49305 0.02199 0.5075 0.0
C1303 C 0.46897 0.91088 0.52508 0.0
C1304 C 0.52032 0.08908 0.46554 0.0
C1305 C 0.51472 0.07 0.47611 0.0
C1306 C 0.49618 0.97876 0.48334 0.0
C1307 C 0.4838 0.95604 0.51701 0.0
C1308 C 0.48938 0.97869 0.50596 0.0
C1309 C 0.50541 0.04458 0.47376 0.0
C1310 C 0.49983 0.0221 0.48485 0.0
H1311 H 0.48543 0.94331 0.55049 0.0
H1312 H 0.495 0.97823 0.53218 0.0
H1313 H 0.48839 0.92373 0.49238 0.0
H1314 H 0.50422 0.05365 0.44014 0.0
H1315 H 0.49438 0.02095 0.45859 0.0
C1316 C 0.47207 0.8297 0.21707 0.0
C1317 C 0.47642 0.83414 0.20425 0.0
C1318 C 0.47803 0.80917 0.22708 0.0
C1319 C 0.5002 0.7302 0.23169 0.0
H1320 H 0.50009 0.77335 0.2679 0.0
C1321 C 0.52789 0.66079 0.27292 0.0
C1322 C 0.52331 0.65601 0.28561 0.0
C1323 C 0.5221 0.68143 0.26279 0.0
C1324 C 0.50009 0.76064 0.25786 0.0
H1325 H 0.49057 0.82198 0.19198 0.0
H1326 H 0.501 0.78666 0.2095 0.0
H1327 H 0.49038 0.81372 0.25073 0.0
H1328 H 0.50891 0.66755 0.29749 0.0
H1329 H 0.49878 0.70312 0.27976 0.0
H1330 H 0.50992 0.67713 0.23884 0.0
C1331 C 0.49292 0.79832 0.21174 0.0
C1332 C 0.49455 0.78379 0.24803 0.0
C1333 C 0.48696 0.81882 0.20174 0.0
C1334 C 0.5127 0.67097 0.28784 0.0
C1335 C 0.50692 0.69161 0.27772 0.0
C1336 C 0.50575 0.70707 0.24152 0.0
C1337 C 0.48846 0.79274 0.22446 0.0
C1338 C 0.49453 0.76876 0.23485 0.0
C1339 C 0.51162 0.69767 0.26516 0.0
C1340 C 0.50572 0.722 0.25471 0.0
H1341 H 0.46397 0.84113 0.21931 0.0
H1342 H 0.47434 0.80501 0.23675 0.0
H1343 H 0.50018 0.71742 0.22166 0.0
H1344 H 0.53606 0.64962 0.2709 0.0
H1345 H 0.52595 0.68588 0.25322 0.0
C1346 C 0.46877 0.4026 0.02426 0.0
C1347 C 0.47393 0.39671 0.03658 0.0
C1348 C 0.47414 0.42375 0.01388 0.0
C1349 C 0.49579 0.50372 0.00835 0.0
H1350 H 0.49379 0.46642 0.97163 0.0
C1351 C 0.52122 0.58163 0.96661 0.0
C1352 C 0.51623 0.58762 0.9542 0.0
C1353 C 0.51588 0.55898 0.9767 0.0
C1354 C 0.4943 0.47755 0.98182 0.0
H1355 H 0.48895 0.40625 0.04744 0.0
H1356 H 0.49832 0.44275 0.02927 0.0
H1357 H 0.48512 0.42285 0.98895 0.0
H1358 H 0.50159 0.57601 0.94279 0.0
H1359 H 0.4922 0.53709 0.96051 0.0
H1360 H 0.5049 0.55851 0.00126 0.0
C1361 C 0.49007 0.43178 0.02774 0.0
C1362 C 0.48937 0.45253 0.99172 0.0
C1363 C 0.48471 0.41063 0.03811 0.0
C1364 C 0.50567 0.5717 0.95222 0.0
C1365 C 0.50032 0.54913 0.96233 0.0
C1366 C 0.50069 0.52877 -0.00155 0.0
C1367 C 0.48475 0.43938 0.01563 0.0
C1368 C 0.4901 0.46532 0.00509 0.0
C1369 C 0.50543 0.54198 0.97461 0.0
C1370 C 0.50002 0.51592 0.98509 0.0
H1371 H 0.46047 0.39219 0.02277 0.0
H1372 H 0.46982 0.42935 0.00467 0.0
H1373 H 0.4963 0.51483 0.01854 0.0
H1374 H 0.52937 0.5934 0.96844 0.0
H1375 H 0.52008 0.55364 0.98601 0.0
C1376 C 0.04078 0.50252 0.40652 0.0
C1377 C 0.04304 0.54126 0.3995 0.0
C1378 C 0.04039 0.46231 0.39995 0.0
C1379 C 0.04949 0.40726 0.36926 0.0
H1380 H 0.02804 0.3204 0.37928 0.0
C1381 C 0.04252 0.24917 0.33927 0.0
C1382 C 0.04151 0.21 0.34652 0.0
C1383 C 0.04256 0.28953 0.34576 0.0
C1384 C 0.03413 0.34421 0.37647 0.0
H1385 H 0.04651 0.56828 0.38005 0.0
H1386 H 0.04562 0.4981 0.36851 0.0
H1387 H 0.02818 0.39154 0.39031 0.0
H1388 H 0.03965 0.18254 0.36625 0.0
H1389 H 0.03969 0.25334 0.3776 0.0
H1390 H 0.05536 0.35997 0.35532 0.0
C1391 C 0.04436 0.49873 0.37915 0.0
C1392 C 0.03423 0.38494 0.38279 0.0
C1393 C 0.04481 0.53899 0.38575 0.0
C1394 C 0.04044 0.21212 0.36039 0.0
C1395 C 0.04041 0.25263 0.36688 0.0
C1396 C 0.04935 0.36664 0.3629 0.0
C1397 C 0.04219 0.45989 0.38619 0.0
C1398 C 0.04193 0.41691 0.37928 0.0
C1399 C 0.04153 0.2917 0.35962 0.0
C1400 C 0.04168 0.33469 0.36645 0.0
H1401 H 0.03943 0.50308 0.41714 0.0
H1402 H 0.03887 0.433 0.40572 0.0
H1403 H 0.05565 0.43081 0.36649 0.0
H1404 H 0.04334 0.24873 0.32857 0.0
H1405 H 0.0433 0.31914 0.3399 0.0
C1406 C 0.20842 0.76229 0.40275 0.0
C1407 C 0.21131 0.72165 0.39724 0.0
C1408 C 0.20963 0.80075 0.39544 0.0
C1409 C 0.21057 0.84021 0.36122 0.0
H1410 H 0.21952 0.94902 0.37784 0.0
C1411 C 0.21146 0.00343 0.33245 0.0
C1412 C 0.20672 0.03928 0.33902 0.0
C1413 C 0.21369 0.96474 0.33932 0.0
C1414 C 0.21697 0.9189 0.37308 0.0
H1415 H 0.21801 0.68959 0.37985 0.0
H1416 H 0.22013 0.75706 0.36705 0.0
H1417 H 0.22062 0.88061 0.39031 0.0
H1418 H 0.20085 0.06301 0.35801 0.0
H1419 H 0.20464 0.99537 0.36995 0.0
H1420 H 0.20667 0.87858 0.34411 0.0
C1421 C 0.21685 0.75896 0.37701 0.0
C1422 C 0.21761 0.87977 0.38021 0.0
C1423 C 0.21567 0.72039 0.38435 0.0
C1424 C 0.20449 0.03599 0.35266 0.0
C1425 C 0.20674 -0.00267 0.35953 0.0
C1426 C 0.20993 0.87935 0.35409 0.0
C1427 C 0.21375 0.79948 0.38245 0.0
C1428 C 0.21422 0.84015 0.37443 0.0
C1429 C 0.21126 0.96114 0.3529 0.0
C1430 C 0.21293 0.91921 0.36004 0.0
H1431 H 0.20505 0.76443 0.41266 0.0
H1432 H 0.20702 0.83137 0.39984 0.0
H1433 H 0.20778 0.81029 0.35656 0.0
H1434 H 0.21333 0.005 0.32196 0.0
H1435 H 0.21729 0.93758 0.33399 0.0
C1436 C 0.03606 0.00727 0.90098 0.0
C1437 C 0.03644 0.04672 0.89379 0.0
C1438 C 0.03622 0.96707 0.89441 0.0
C1439 C 0.04433 0.91668 0.86272 0.0
H1440 H 0.02705 0.81899 0.87533 0.0
C1441 C 0.04104 0.75411 0.83404 0.0
C1442 C 0.04187 0.71526 0.84147 0.0
C1443 C 0.0401 0.79454 0.84038 0.0
C1444 C 0.03199 0.84588 0.87178 0.0
H1445 H 0.03703 0.0749 0.87404 0.0
H1446 H 0.03714 0.00454 0.86252 0.0
H1447 H 0.02554 0.89013 0.88623 0.0
H1448 H 0.0423 0.68839 0.8614 0.0
H1449 H 0.04066 0.75929 0.8725 0.0
H1450 H 0.05075 0.87242 0.84825 0.0
C1451 C 0.0369 0.00479 0.87327 0.0
C1452 C 0.03113 0.88661 0.87801 0.0
C1453 C 0.03678 0.04509 0.87986 0.0
C1454 C 0.04168 0.71772 0.8554 0.0
C1455 C 0.04068 0.75825 0.86175 0.0
C1456 C 0.04515 0.87602 0.85647 0.0
C1457 C 0.03671 0.96532 0.88048 0.0
C1458 C 0.03732 0.92244 0.87358 0.0
C1459 C 0.03993 0.79706 0.85429 0.0
C1460 C 0.03902 0.84018 0.86096 0.0
H1461 H 0.03582 0.00732 0.91173 0.0
H1462 H 0.03621 0.93733 0.90027 0.0
H1463 H 0.04935 0.94337 0.85921 0.0
H1464 H 0.04114 0.75341 0.82329 0.0
H1465 H 0.0394 0.82384 0.83437 0.0
C1466 C 0.20626 0.50381 0.84061 0.0
C1467 C 0.20566 0.54397 0.8474 0.0
C1468 C 0.20677 0.46444 0.8476 0.0
C1469 C 0.19998 0.41635 0.88001 0.0
H1470 H 0.21742 0.31939 0.86721 0.0
C1471 C 0.2028 0.25207 0.90804 0.0
C1472 C 0.20162 0.21412 0.90026 0.0
C1473 C 0.20421 0.2929 0.90205 0.0
C1474 C 0.21247 0.34612 0.87085 0.0
H1475 H 0.20538 0.57434 0.86687 0.0
H1476 H 0.20641 0.50542 0.8791 0.0
H1477 H 0.21846 0.39027 0.85609 0.0
H1478 H 0.20118 0.18917 0.88009 0.0
H1479 H 0.20362 0.26059 0.86964 0.0
H1480 H 0.19394 0.37207 0.89472 0.0
C1481 C 0.20632 0.50446 0.86836 0.0
C1482 C 0.21306 0.38669 0.86449 0.0
C1483 C 0.20578 0.54393 0.86135 0.0
C1484 C 0.20206 0.21778 0.88637 0.0
C1485 C 0.20352 0.25863 0.88038 0.0
C1486 C 0.19943 0.37583 0.8864 0.0
C1487 C 0.20673 0.46425 0.86155 0.0
C1488 C 0.20672 0.4221 0.86889 0.0
C1489 C 0.20452 0.29664 0.88816 0.0
C1490 C 0.20557 0.34018 0.88179 0.0
H1491 H 0.20615 0.50263 0.82986 0.0
H1492 H 0.20691 0.43406 0.84205 0.0
H1493 H 0.19487 0.44274 0.88353 0.0
H1494 H 0.20253 0.25037 0.91878 0.0
H1495 H 0.20508 0.32158 0.9083 0.0
C1496 C 0.95936 0.76503 0.63948 0.0
C1497 C 0.95765 0.76819 0.65323 0.0
C1498 C 0.96168 0.72459 0.63364 0.0
C1499 C 0.95743 0.60738 0.63913 0.0
H1500 H 0.97765 0.5941 0.60994 0.0
C1501 C 0.9626 0.44199 0.61266 0.0
C1502 C 0.96239 0.44407 0.59873 0.0
C1503 C 0.96397 0.48007 0.62017 0.0
C1504 C 0.97195 0.59735 0.61806 0.0
H1505 H 0.95745 0.73166 0.67173 0.0
H1506 H 0.96153 0.66122 0.66154 0.0
H1507 H 0.97636 0.66428 0.62149 0.0
H1508 H 0.96393 0.48742 0.58174 0.0
H1509 H 0.96612 0.5537 0.59482 0.0
H1510 H 0.95275 0.54109 0.63549 0.0
C1511 C 0.96094 0.68991 0.65525 0.0
C1512 C 0.97122 0.63749 0.62466 0.0
C1513 C 0.95863 0.73031 0.66109 0.0
C1514 C 0.96403 0.48468 0.59246 0.0
C1515 C 0.96537 0.5227 0.59997 0.0
C1516 C 0.95814 0.56734 0.63252 0.0
C1517 C 0.96233 0.68651 0.64145 0.0
C1518 C 0.96383 0.64309 0.63513 0.0
C1519 C 0.96514 0.52097 0.61391 0.0
C1520 C 0.96528 0.56205 0.62177 0.0
H1521 H 0.95868 0.79361 0.63316 0.0
H1522 H 0.96261 0.72292 0.62296 0.0
H1523 H 0.95154 0.61085 0.64704 0.0
H1524 H 0.96145 0.41114 0.61778 0.0
H1525 H 0.96392 0.4776 0.6309 0.0
C1526 C 0.79474 0.00419 0.6532 0.0
C1527 C 0.79462 0.96443 0.64615 0.0
C1528 C 0.79561 0.04398 0.64647 0.0
C1529 C 0.78993 0.09611 0.6148 0.0
H1530 H 0.81094 0.18299 0.6261 0.0
C1531 C 0.79695 0.2545 0.58507 0.0
C1532 C 0.79909 0.29321 0.59214 0.0
C1533 C 0.79666 0.21419 0.59159 0.0
C1534 C 0.80491 0.1594 0.62293 0.0
H1535 H 0.79524 0.93514 0.62655 0.0
H1536 H 0.79656 0.00504 0.61475 0.0
H1537 H 0.80992 0.11283 0.63763 0.0
H1538 H 0.80251 0.32018 0.6116 0.0
H1539 H 0.80165 0.24998 0.6231 0.0
H1540 H 0.78466 0.14279 0.60039 0.0
C1541 C 0.79604 0.00517 0.62549 0.0
C1542 C 0.80438 0.11916 0.6295 0.0
C1543 C 0.79533 0.96526 0.63224 0.0
C1544 C 0.80091 0.29084 0.60588 0.0
C1545 C 0.80048 0.25053 0.61245 0.0
C1546 C 0.79035 0.13655 0.60835 0.0
C1547 C 0.79622 0.04484 0.63256 0.0
C1548 C 0.7969 0.08716 0.62547 0.0
C1549 C 0.79836 0.21167 0.60537 0.0
C1550 C 0.79787 0.1687 0.61231 0.0
H1551 H 0.79423 0.00461 0.66393 0.0
H1552 H 0.79564 0.07415 0.65213 0.0
H1553 H 0.78399 0.07214 0.61163 0.0
H1554 H 0.79561 0.25522 0.57444 0.0
H1555 H 0.79523 0.18495 0.58576 0.0
C1556 C 0.95767 0.24319 0.16036 0.0
C1557 C 0.95518 0.28109 0.15305 0.0
C1558 C 0.95994 0.20385 0.1539 0.0
C1559 C 0.96754 0.1568 0.12132 0.0
H1560 H 0.95423 0.05171 0.13557 0.0
C1561 C 0.96262 0.99711 0.0914 0.0
C1562 C 0.96417 0.95712 0.09805 0.0
C1563 C 0.96287 0.0366 0.09836 0.0
C1564 C 0.95815 0.08062 0.13158 0.0
H1565 H 0.95332 0.30764 0.1332 0.0
H1566 H 0.9571 0.23867 0.1219 0.0
H1567 H 0.95205 0.12102 0.14721 0.0
H1568 H 0.96753 0.92729 0.11717 0.0
H1569 H 0.96797 0.99644 0.12934 0.0
H1570 H 0.97342 0.11633 0.10552 0.0
C1571 C 0.95744 0.23955 0.13264 0.0
C1572 C 0.9569 0.12036 0.13825 0.0
C1573 C 0.95521 0.27901 0.13912 0.0
C1574 C 0.96626 0.95754 0.11177 0.0
C1575 C 0.96646 0.99708 0.11875 0.0
C1576 C 0.96876 0.11703 0.11463 0.0
C1577 C 0.95973 0.20144 0.13997 0.0
C1578 C 0.96151 0.15897 0.13314 0.0
C1579 C 0.96463 0.03695 0.11214 0.0
C1580 C 0.964 0.07861 0.11964 0.0
H1581 H 0.95781 0.24377 0.17112 0.0
H1582 H 0.96185 0.17526 0.15982 0.0
H1583 H 0.97133 0.18585 0.11725 0.0
H1584 H 0.96102 -0.00207 0.08082 0.0
H1585 H 0.96132 0.06675 0.09302 0.0
C1586 C 0.79069 0.45034 0.13038 0.0
C1587 C 0.78906 0.44763 0.14416 0.0
C1588 C 0.79104 0.49111 0.12407 0.0
C1589 C 0.79667 0.60717 0.13068 0.0
H1590 H 0.7819 0.62669 0.09722 0.0
C1591 C 0.79462 0.77792 0.10601 0.0
C1592 C 0.79586 0.77934 0.09215 0.0
C1593 C 0.79344 0.73778 0.11254 0.0
C1594 C 0.78617 0.62163 0.10649 0.0
H1595 H 0.78634 0.48558 0.1621 0.0
H1596 H 0.78696 0.5565 0.15108 0.0
H1597 H 0.78047 0.55558 0.10812 0.0
H1598 H 0.79697 0.73973 0.0743 0.0
H1599 H 0.79514 0.66998 0.08568 0.0
H1600 H 0.80251 0.6729 0.12899 0.0
C1601 C 0.78806 0.52716 0.14518 0.0
C1602 C 0.78533 0.58092 0.11273 0.0
C1603 C 0.78765 0.48648 0.15147 0.0
C1604 C 0.79596 0.73984 0.08498 0.0
C1605 C 0.79484 0.6998 0.0915 0.0
C1606 C 0.79755 0.64781 0.12441 0.0
C1607 C 0.78983 0.52993 0.13144 0.0
C1608 C 0.79059 0.57325 0.12487 0.0
C1609 C 0.79352 0.69826 0.10535 0.0
C1610 C 0.79234 0.65547 0.11221 0.0
H1611 H 0.7918 0.42103 0.12447 0.0
H1612 H 0.7925 0.49229 0.11347 0.0
H1613 H 0.80093 0.60199 0.13995 0.0
H1614 H 0.79446 0.8078 0.1118 0.0
H1615 H 0.79232 0.73775 0.1232 0.0
C1616 C 0.54753 0.25335 0.83611 0.0
C1617 C 0.5487 0.21432 0.84336 0.0
C1618 C 0.5471 0.29366 0.84262 0.0
C1619 C 0.55337 0.34676 0.87488 0.0
H1620 H 0.53424 0.43745 0.86149 0.0
C1621 C 0.54291 0.5028 0.90438 0.0
C1622 C 0.54394 0.54267 0.89751 0.0
C1623 C 0.54356 0.46305 0.89761 0.0
C1624 C 0.53968 0.41249 0.86526 0.0
H1625 H 0.55023 0.18679 0.86311 0.0
H1626 H 0.54913 0.257 0.87453 0.0
H1627 H 0.53512 0.36693 0.85015 0.0
H1628 H 0.54626 0.57219 0.87813 0.0
H1629 H 0.54722 0.50237 0.86623 0.0
H1630 H 0.55767 0.3922 0.89021 0.0
C1631 C 0.54883 0.25667 0.86379 0.0
C1632 C 0.54022 0.37214 0.85876 0.0
C1633 C 0.5494 0.21637 0.85725 0.0
C1634 C 0.54547 0.54198 0.88369 0.0
C1635 C 0.54597 0.50213 0.87688 0.0
C1636 C 0.55272 0.38689 0.88147 0.0
C1637 C 0.54769 0.29584 0.85655 0.0
C1638 C 0.54709 0.33877 0.86348 0.0
C1639 C 0.54511 0.46235 0.88381 0.0
C1640 C 0.54587 0.42009 0.87671 0.0
H1641 H 0.54705 0.25284 0.82537 0.0
H1642 H 0.54642 0.32314 0.8367 0.0
H1643 H 0.55891 0.3222 0.87866 0.0
H1644 H 0.54174 0.50224 0.91504 0.0
H1645 H 0.54277 0.43279 0.90315 0.0
C1646 C 0.70457 0.71458 0.88892 0.0
C1647 C 0.70354 0.71331 0.9028 0.0
C1648 C 0.70574 0.7546 0.88233 0.0
C1649 C 0.71322 0.87066 0.88772 0.0
H1650 H 0.69645 0.89015 0.8557 0.0
C1651 C 0.7071 0.04201 0.8644 0.0
C1652 C 0.70744 0.04479 0.85048 0.0
C1653 C 0.70735 0.00121 0.8707 0.0
C1654 C 0.70129 0.88503 0.86453 0.0
H1655 H 0.70304 0.75302 0.92068 0.0
H1656 H 0.70495 0.82264 0.90919 0.0
H1657 H 0.69563 0.81921 0.86672 0.0
H1658 H 0.70862 0.00699 0.83227 0.0
H1659 H 0.70913 0.93607 0.84326 0.0
H1660 H 0.71878 0.93675 0.88558 0.0
C1661 C 0.705 0.79275 0.9034 0.0
C1662 C 0.70084 0.84437 0.87084 0.0
C1663 C 0.70383 0.75281 0.90997 0.0
C1664 C 0.70826 0.00602 0.84301 0.0
C1665 C 0.7085 0.96533 0.8493 0.0
C1666 C 0.71367 0.91138 0.88141 0.0
C1667 C 0.70591 0.79413 0.8895 0.0
C1668 C 0.70675 0.83679 0.88253 0.0
C1669 C 0.70794 0.96244 0.86319 0.0
C1670 C 0.70768 0.91903 0.86978 0.0
H1671 H 0.70442 0.68471 0.88311 0.0
H1672 H 0.70656 0.75458 0.87162 0.0
H1673 H 0.718 0.86562 0.89661 0.0
H1674 H 0.70646 0.07127 0.87044 0.0
H1675 H 0.70681 -2e-05 0.88142 0.0
C1676 C 0.55254 0.71601 0.35506 0.0
C1677 C 0.55012 0.7134 0.34146 0.0
C1678 C 0.55146 0.7557 0.36184 0.0
C1679 C 0.53841 0.86499 0.35919 0.0
H1680 H 0.55939 0.89674 0.38621 0.0
C1681 C 0.54153 0.03855 0.38189 0.0
C1682 C 0.54236 0.04051 0.39579 0.0
C1683 C 0.54228 -0.00164 0.37531 0.0
C1684 C 0.55344 0.8881 0.37875 0.0
H1685 H 0.54481 0.75041 0.32424 0.0
H1686 H 0.54324 0.81973 0.33595 0.0
H1687 H 0.56119 0.82699 0.37461 0.0
H1688 H 0.54463 0.00196 0.4137 0.0
H1689 H 0.54604 0.93197 0.40217 0.0
H1690 H 0.53083 0.92671 0.36319 0.0
C1691 C 0.5457 0.791 0.34149 0.0
C1692 C 0.55443 0.8481 0.37214 0.0
C1693 C 0.54667 0.75128 0.33476 0.0
C1694 C 0.54395 0.00154 0.40298 0.0
C1695 C 0.54482 0.9615 0.39639 0.0
C1696 C 0.5375 0.90518 0.36571 0.0
C1697 C 0.54803 0.79369 0.35513 0.0
C1698 C 0.54693 0.83604 0.36228 0.0
C1699 C 0.544 0.95954 0.3825 0.0
C1700 C 0.54499 0.91706 0.37555 0.0
H1701 H 0.55515 0.68729 0.3605 0.0
H1702 H 0.55317 0.75642 0.37239 0.0
H1703 H 0.53237 0.85644 0.35183 0.0
H1704 H 0.54029 0.068 0.37609 0.0
H1705 H 0.54169 -0.00228 0.36458 0.0
C1706 C 0.70225 0.23901 0.39911 0.0
C1707 C 0.69594 0.20206 0.39604 0.0
C1708 C 0.70346 0.27283 0.38993 0.0
C1709 C 0.69054 0.32249 0.36075 0.0
H1710 H 0.71844 0.37955 0.35674 0.0
C1711 C 0.69754 0.46275 0.32324 0.0
C1712 C 0.70316 0.49932 0.32821 0.0
C1713 C 0.69713 0.42384 0.33052 0.0
C1714 C 0.71059 0.36407 0.3578 0.0
H1715 H 0.68597 0.17152 0.38089 0.0
H1716 H 0.68814 0.2307 0.36479 0.0
H1717 H 0.71676 0.31615 0.37132 0.0
H1718 H 0.71291 0.52351 0.34459 0.0
H1719 H 0.71213 0.45578 0.35729 0.0
H1720 H 0.68434 0.37082 0.34736 0.0
C1721 C 0.69207 0.23356 0.37437 0.0
C1722 C 0.70963 0.32782 0.36615 0.0
C1723 C 0.69087 0.19962 0.38357 0.0
C1724 C 0.70852 0.49592 0.34047 0.0
C1725 C 0.70814 0.45701 0.34772 0.0
C1726 C 0.69151 0.35875 0.35237 0.0
C1727 C 0.69839 0.2705 0.37746 0.0
C1728 C 0.69956 0.30704 0.36787 0.0
C1729 C 0.70236 0.42069 0.34288 0.0
C1730 C 0.70151 0.38028 0.35097 0.0
H1731 H 0.70625 0.24196 0.40865 0.0
H1732 H 0.70824 0.30118 0.3927 0.0
H1733 H 0.68265 0.30748 0.36198 0.0
H1734 H 0.69334 0.46431 0.31381 0.0
H1735 H 0.69271 0.39621 0.32649 0.0
C1736 C 0.4482 0.49675 0.08608 0.0
C1737 C 0.44754 0.45759 0.09338 0.0
C1738 C 0.4484 0.53713 0.09258 0.0
C1739 C 0.45556 0.58877 0.12398 0.0
H1740 H 0.43582 0.68093 0.1131 0.0
C1741 C 0.45003 0.74532 0.15494 0.0
C1742 C 0.44831 0.78509 0.14826 0.0
C1743 C 0.45011 0.70581 0.14799 0.0
C1744 C 0.44151 0.65586 0.11613 0.0
H1745 H 0.4467 0.42995 0.1132 0.0
H1746 H 0.44722 0.50068 0.12456 0.0
H1747 H 0.43574 0.61103 0.10137 0.0
H1748 H 0.44548 0.8148 0.12901 0.0
H1749 H 0.44595 0.7459 0.11678 0.0
H1750 H 0.46152 0.63354 0.13855 0.0
C1751 C 0.44754 0.49997 0.11381 0.0
C1752 C 0.44142 0.61579 0.10944 0.0
C1753 C 0.44718 0.45958 0.10731 0.0
C1754 C 0.44676 0.78461 0.13445 0.0
C1755 C 0.44696 0.74508 0.12745 0.0
C1756 C 0.45575 0.62899 0.13057 0.0
C1757 C 0.44811 0.53907 0.1065 0.0
C1758 C 0.44838 0.58182 0.11338 0.0
C1759 C 0.44861 0.70516 0.13415 0.0
C1760 C 0.44867 0.66293 0.12681 0.0
H1761 H 0.44847 0.49626 0.07533 0.0
H1762 H 0.44892 0.56685 0.08673 0.0
H1763 H 0.4611 0.56324 0.12708 0.0
H1764 H 0.45117 0.74457 0.16561 0.0
H1765 H 0.45118 0.67571 0.15352 0.0
C1766 C 0.2944 0.98887 0.15485 0.0
C1767 C 0.2945 0.94954 0.14759 0.0
C1768 C 0.29411 0.02913 0.1483 0.0
C1769 C 0.28612 0.0812 0.11719 0.0
H1770 H 0.30666 0.17155 0.12722 0.0
C1771 C 0.29185 0.23758 0.08611 0.0
C1772 C 0.29397 0.27708 0.09278 0.0
C1773 C 0.29162 0.19802 0.09303 0.0
C1774 C 0.30074 0.14699 0.12444 0.0
H1775 H 0.29425 0.9215 0.1278 0.0
H1776 H 0.29362 0.99208 0.11636 0.0
H1777 H 0.30673 0.1016 0.1389 0.0
H1778 H 0.2973 0.30626 0.11198 0.0
H1779 H 0.2966 0.23729 0.12416 0.0
H1780 H 0.27998 0.12659 0.1029 0.0
C1781 C 0.29378 0.99158 0.12711 0.0
C1782 C 0.30083 0.10689 0.13109 0.0
C1783 C 0.2942 0.95126 0.13366 0.0
C1784 C 0.29572 0.27629 0.10655 0.0
C1785 C 0.29538 0.23672 0.11351 0.0
C1786 C 0.28595 0.12147 0.11063 0.0
C1787 C 0.29379 0.03085 0.13438 0.0
C1788 C 0.29356 0.07356 0.12747 0.0
C1789 C 0.29339 0.19707 0.10682 0.0
C1790 C 0.29331 0.15476 0.11411 0.0
H1791 H 0.29464 0.98861 0.1656 0.0
H1792 H 0.29404 0.05896 0.15413 0.0
H1793 H 0.28034 0.05619 0.11434 0.0
H1794 H 0.29054 0.23706 0.07547 0.0
H1795 H 0.29026 0.16809 0.0875 0.0
C1796 C 0.44581 0.28279 0.63464 0.0
C1797 C 0.44773 0.28437 0.64838 0.0
C1798 C 0.44532 0.24255 0.62805 0.0
C1799 C 0.43986 0.12612 0.6331 0.0
H1800 H 0.45727 0.10927 0.60148 0.0
C1801 C 0.44481 0.95635 0.60839 0.0
C1802 C 0.44545 0.95503 0.59448 0.0
C1803 C 0.44491 0.9965 0.61508 0.0
C1804 C 0.45221 0.11355 0.61017 0.0
H1805 H 0.45045 0.24511 0.66604 0.0
H1806 H 0.44944 0.17488 0.65453 0.0
H1807 H 0.45746 0.17989 0.61273 0.0
H1808 H 0.44639 0.99463 0.57663 0.0
H1809 H 0.44619 0.0644 0.5882 0.0
H1810 H 0.43441 0.0602 0.63044 0.0
C1811 C 0.44836 0.20476 0.64888 0.0
C1812 C 0.45237 0.15399 0.61662 0.0
C1813 C 0.449 0.24496 0.65543 0.0
C1814 C 0.446 0.99455 0.58738 0.0
C1815 C 0.44596 0.03461 0.59403 0.0
C1816 C 0.43959 0.08579 0.62655 0.0
C1817 C 0.44658 0.20321 0.63512 0.0
C1818 C 0.44622 0.1606 0.62816 0.0
C1819 C 0.44552 0.03614 0.60797 0.0
C1820 C 0.44578 0.07897 0.615 0.0
H1821 H 0.44481 0.31263 0.62894 0.0
H1822 H 0.44388 0.24213 0.61744 0.0
H1823 H 0.43497 0.13057 0.64193 0.0
H1824 H 0.44443 0.92637 0.61413 0.0
H1825 H 0.44471 0.99638 0.62583 0.0
C1826 C 0.28363 0.49657 0.65975 0.0
C1827 C 0.28661 0.45916 0.65247 0.0
C1828 C 0.28142 0.53596 0.65328 0.0
C1829 C 0.27534 0.58431 0.62035 0.0
H1830 H 0.2885 0.68818 0.6356 0.0
C1831 C 0.28359 0.74156 0.59056 0.0
C1832 C 0.28205 0.78217 0.59686 0.0
C1833 C 0.28244 0.70259 0.59764 0.0
C1834 C 0.28461 0.65965 0.63133 0.0
H1835 H 0.28927 0.43339 0.63267 0.0
H1836 H 0.28559 0.5024 0.62138 0.0
H1837 H 0.28962 0.61882 0.64742 0.0
H1838 H 0.27779 0.81374 0.61543 0.0
H1839 H 0.27579 0.74543 0.62783 0.0
H1840 H 0.27061 0.62516 0.60405 0.0
C1841 C 0.28483 0.50113 0.63208 0.0
C1842 C 0.28524 0.61987 0.6381 0.0
C1843 C 0.287 0.46163 0.63856 0.0
C1844 C 0.27907 0.78297 0.61031 0.0
C1845 C 0.27796 0.74391 0.61743 0.0
C1846 C 0.27473 0.62412 0.61355 0.0
C1847 C 0.28216 0.53888 0.63939 0.0
C1848 C 0.28074 0.58163 0.63261 0.0
C1849 C 0.27976 0.70336 0.61119 0.0
C1850 C 0.27949 0.66205 0.61889 0.0
H1851 H 0.28315 0.49564 0.67049 0.0
H1852 H 0.2792 0.56426 0.65917 0.0
H1853 H 0.27164 0.55557 0.61596 0.0
H1854 H 0.28586 0.73979 0.58018 0.0
H1855 H 0.284 0.67188 0.5926 0.0
C1856 C 0.02857 0.76811 0.40778 0.0
C1857 C 0.0241 0.72678 0.40501 0.0
C1858 C 0.02591 0.80432 0.39998 0.0
C1859 C 0.0173 0.83072 0.36625 0.0
H1860 H 0.01592 0.94878 0.38037 0.0
C1861 C 0.0296 0.98183 0.33621 0.0
C1862 C 0.02404 0.0215 0.33809 0.0
C1863 C 0.02703 0.9451 0.34381 0.0
C1864 C 0.01609 0.91601 0.37626 0.0
H1865 H 0.01292 0.69144 0.39227 0.0
H1866 H 0.00824 0.75488 0.37866 0.0
H1867 H 0.01567 0.88648 0.39553 0.0
H1868 H 0.01113 0.05331 0.34909 0.0
H1869 H 0.00664 0.98889 0.36242 0.0
H1870 H 0.01793 0.86027 0.34699 0.0
C1871 C 0.01391 0.75907 0.38678 0.0
C1872 C 0.01607 0.88035 0.38494 0.0
C1873 C 0.01656 0.7228 0.39461 0.0
C1874 C 0.01559 0.02324 0.34744 0.0
C1875 C 0.01305 0.98644 0.3551 0.0
C1876 C 0.01733 0.86637 0.35756 0.0
C1877 C 0.01871 0.80004 0.38924 0.0
C1878 C 0.017 0.83739 0.38005 0.0
C1879 C 0.01885 0.94718 0.3535 0.0
C1880 C 0.01705 0.90942 0.3625 0.0
H1881 H 0.03439 0.77234 0.41574 0.0
H1882 H 0.02986 0.83527 0.40204 0.0
H1883 H 0.01809 0.79807 0.36215 0.0
H1884 H 0.03614 0.97933 0.32907 0.0
H1885 H 0.03177 0.91556 0.34246 0.0
C1886 C 0.20526 0.50693 0.39831 0.0
C1887 C 0.21233 0.51012 0.40921 0.0
C1888 C 0.20617 0.47244 0.38934 0.0
C1889 C 0.22494 0.38878 0.37669 0.0
H1890 H 0.19838 0.33502 0.36407 0.0
C1891 C 0.22321 0.23162 0.34414 0.0
C1892 C 0.21538 0.23098 0.33399 0.0
C1893 C 0.22365 0.26656 0.3531 0.0
C1894 C 0.20586 0.35003 0.36738 0.0
H1895 H 0.22598 0.4797 0.41918 0.0
H1896 H 0.2275 0.41882 0.40348 0.0
H1897 H 0.19749 0.39289 0.38062 0.0
H1898 H 0.20227 0.26757 0.32483 0.0
H1899 H 0.20312 0.32852 0.34037 0.0
H1900 H 0.23329 0.34545 0.36341 0.0
C1901 C 0.22131 0.44341 0.40187 0.0
C1902 C 0.20536 0.38313 0.37688 0.0
C1903 C 0.2204 0.47809 0.4109 0.0
C1904 C 0.20834 0.26687 0.3326 0.0
C1905 C 0.20878 0.30167 0.34155 0.0
C1906 C 0.22545 0.35545 0.36717 0.0
C1907 C 0.21416 0.44016 0.39104 0.0
C1908 C 0.21487 0.40327 0.38152 0.0
C1909 C 0.21626 0.30138 0.35207 0.0
C1910 C 0.2159 0.33616 0.36232 0.0
H1911 H 0.199 0.5312 0.39665 0.0
H1912 H 0.20067 0.47132 0.38097 0.0
H1913 H 0.2324 0.40394 0.38001 0.0
H1914 H 0.22876 0.2045 0.34545 0.0
H1915 H 0.22948 0.26542 0.36114 0.0
C1916 C 0.01664 0.53322 0.84379 0.0
C1917 C 0.02475 0.5292 0.83408 0.0
C1918 C 0.01382 0.4974 0.85172 0.0
C1919 C 0.01622 0.37676 0.85452 0.0
H1920 H 0.01603 0.39891 0.89245 0.0
C1921 C 0.01267 0.23631 0.89256 0.0
C1922 C 0.02066 0.23736 0.90251 0.0
C1923 C 0.01082 0.27303 0.88457 0.0
C1924 C 0.016 0.39226 0.88188 0.0
H1925 H 0.03595 0.484 0.82468 0.0
H1926 H 0.03107 0.42173 0.83852 0.0
H1927 H 0.01711 0.46031 0.877 0.0
H1928 H 0.0326 0.27836 0.9123 0.0
H1929 H 0.02939 0.34218 0.89839 0.0
H1930 H 0.01562 0.30861 0.85942 0.0
C1931 C 0.02683 0.45242 0.83997 0.0
C1932 C 0.01652 0.42741 0.87303 0.0
C1933 C 0.02969 0.48823 0.8321 0.0
C1934 C 0.02641 0.27643 0.9047 0.0
C1935 C 0.02451 0.31314 0.89678 0.0
C1936 C 0.01567 0.34161 0.86338 0.0
C1937 C 0.01901 0.45681 0.85002 0.0
C1938 C 0.01692 0.41996 0.85927 0.0
C1939 C 0.01685 0.31158 0.88647 0.0
C1940 C 0.01584 0.34896 0.87715 0.0
H1941 H 0.01266 0.56431 0.84553 0.0
H1942 H 0.00769 0.50161 0.85931 0.0
H1943 H 0.0164 0.37007 0.84396 0.0
H1944 H 0.00808 0.20673 0.89064 0.0
H1945 H 0.00479 0.27104 0.87677 0.0
C1946 C 0.21024 0.98303 0.90712 0.0
C1947 C 0.21549 0.02354 0.90559 0.0
C1948 C 0.21312 0.94736 0.89921 0.0
C1949 C 0.22414 0.9224 0.86659 0.0
H1950 H 0.2246 0.80345 0.88013 0.0
C1951 C 0.22783 0.73126 0.84715 0.0
C1952 C 0.21982 0.73231 0.83722 0.0
C1953 C 0.22974 0.76807 0.85506 0.0
C1954 C 0.22468 0.83649 0.8762 0.0
H1955 H 0.2281 0.05811 0.89483 0.0
H1956 H 0.23308 0.99566 0.88093 0.0
H1957 H 0.22365 0.86481 0.89561 0.0
H1958 H 0.20796 0.77339 0.82732 0.0
H1959 H 0.21129 0.83746 0.84111 0.0
H1960 H 0.22487 0.89401 0.84717 0.0
C1961 C 0.22671 0.99168 0.88824 0.0
C1962 C 0.22403 0.87156 0.88506 0.0
C1963 C 0.22389 0.02733 0.89623 0.0
C1964 C 0.21415 0.77148 0.83493 0.0
C1965 C 0.21612 0.80831 0.84277 0.0
C1966 C 0.22473 0.88731 0.85773 0.0
C1967 C 0.22127 0.95151 0.88955 0.0
C1968 C 0.22348 0.91479 0.88033 0.0
C1969 C 0.22376 0.8067 0.8531 0.0
C1970 C 0.22474 0.84398 0.86244 0.0
H1971 H 0.20375 0.97901 0.91426 0.0
H1972 H 0.20868 0.91697 0.90034 0.0
H1973 H 0.22366 0.95536 0.86266 0.0
H1974 H 0.23236 0.70159 0.84913 0.0
H1975 H 0.23574 0.76607 0.86289 0.0
C1976 C 0.97749 0.23832 0.59215 0.0
C1977 C 0.96764 0.24939 0.58601 0.0
C1978 C 0.97839 0.19978 0.59957 0.0
C1979 C 0.96428 0.09442 0.60677 0.0
H1980 H 0.97888 0.1038 0.64077 0.0
C1981 C 0.95461 0.98315 0.65094 0.0
C1982 C 0.96337 0.96309 0.65744 0.0
C1983 C 0.9564 0.01553 0.64144 0.0
C1984 C 0.97491 0.10058 0.63123 0.0
H1985 H 0.95109 0.22818 0.58251 0.0
H1986 H 0.95256 0.16193 0.59567 0.0
H1987 H 0.97982 0.16457 0.62506 0.0
H1988 H 0.98088 0.96185 0.65933 0.0
H1989 H 0.984 0.0197 0.64286 0.0
H1990 H 0.95892 0.03129 0.6133 0.0
C1991 C 0.95969 0.18231 0.59457 0.0
C1992 C 0.97547 0.13525 0.62219 0.0
C1993 C 0.95882 0.22055 0.58708 0.0
C1994 C 0.97398 0.97673 0.65445 0.0
C1995 C 0.97577 0.00976 0.64507 0.0
C1996 C 0.9636 0.0601 0.61587 0.0
C1997 C 0.96944 0.17171 0.60106 0.0
C1998 C 0.96996 0.13295 0.60996 0.0
C1999 C 0.96699 0.02897 0.63838 0.0
C2000 C 0.96872 0.06328 0.62827 0.0
H2001 H 0.98446 0.25975 0.59142 0.0
H2002 H 0.98607 0.19227 0.60426 0.0
H2003 H 0.96016 0.09109 0.59732 0.0
H2004 H 0.94634 0.97326 0.65299 0.0
H2005 H 0.9495 0.03029 0.63652 0.0
C2006 C 0.77551 0.47858 0.6021 0.0
C2007 C 0.77815 0.47966 0.58856 0.0
C2008 C 0.77239 0.51684 0.60868 0.0
C2009 C 0.77488 0.63722 0.60535 0.0
H2010 H 0.75692 0.63634 0.63694 0.0
C2011 C 0.76831 0.79228 0.63662 0.0
C2012 C 0.7719 0.78662 0.64975 0.0
C2013 C 0.76641 0.75591 0.62852 0.0
C2014 C 0.76187 0.63702 0.62806 0.0
H2015 H 0.77892 0.52073 0.57103 0.0
H2016 H 0.77301 0.58709 0.58232 0.0
H2017 H 0.75831 0.57025 0.62336 0.0
H2018 H 0.7756 0.73872 0.66499 0.0
H2019 H 0.77209 0.67521 0.6509 0.0
H2020 H 0.77843 0.70399 0.61012 0.0
C2021 C 0.77376 0.55722 0.58805 0.0
C2022 C 0.76276 0.59915 0.62033 0.0
C2023 C 0.77709 0.51915 0.58154 0.0
C2024 C 0.7729 0.74402 0.65488 0.0
C2025 C 0.77082 0.70771 0.64686 0.0
C2026 C 0.77384 0.67519 0.61294 0.0
C2027 C 0.77165 0.55686 0.60178 0.0
C2028 C 0.76951 0.59842 0.60907 0.0
C2029 C 0.76787 0.71336 0.63351 0.0
C2030 C 0.76755 0.67511 0.62453 0.0
H2031 H 0.77629 0.44857 0.60776 0.0
H2032 H 0.77102 0.51523 0.61928 0.0
H2033 H 0.78032 0.63792 0.59692 0.0
H2034 H 0.76748 0.82474 0.6324 0.0
H2035 H 0.76411 0.76099 0.61825 0.0
C2036 C 0.95897 0.50798 0.16268 0.0
C2037 C 0.96548 0.47024 0.16261 0.0
C2038 C 0.96152 0.54356 0.15457 0.0
C2039 C 0.97507 0.56919 0.12333 0.0
H2040 H 0.97035 0.68915 0.13459 0.0
C2041 C 0.9786 0.71725 0.0874 0.0
C2042 C 0.96999 0.74725 0.08825 0.0
C2043 C 0.97986 0.68458 0.09704 0.0
C2044 C 0.97169 0.65581 0.1313 0.0
H2045 H 0.98 0.4408 0.15433 0.0
H2046 H 0.98443 0.50315 0.14012 0.0
H2047 H 0.96951 0.63015 0.15088 0.0
H2048 H 0.95596 0.76655 0.09989 0.0
H2049 H 0.95809 0.70967 0.11649 0.0
H2050 H 0.97691 0.59477 0.10366 0.0
C2051 C 0.97732 0.50496 0.1464 0.0
C2052 C 0.97122 0.62208 0.14062 0.0
C2053 C 0.9748 0.46939 0.15458 0.0
C2054 C 0.9627 0.74402 0.09892 0.0
C2055 C 0.96397 0.71163 0.10853 0.0
C2056 C 0.97554 0.60298 0.11398 0.0
C2057 C 0.97062 0.54215 0.14618 0.0
C2058 C 0.97262 0.57832 0.13668 0.0
C2059 C 0.97256 0.68159 0.10772 0.0
C2060 C 0.97355 0.6465 0.11782 0.0
H2061 H 0.95175 0.5097 0.16876 0.0
H2062 H 0.95612 0.57154 0.15451 0.0
H2063 H 0.97609 0.53574 0.11997 0.0
H2064 H 0.98437 0.71896 0.07931 0.0
H2065 H 0.98658 0.66191 0.09619 0.0
C2066 C 0.77638 0.21745 0.153 0.0
C2067 C 0.77137 0.2576 0.15002 0.0
C2068 C 0.77454 0.18072 0.14507 0.0
C2069 C 0.7678 0.15273 0.1109 0.0
H2070 H 0.76741 0.03433 0.12486 0.0
C2071 C 0.78351 0.00476 0.08172 0.0
C2072 C 0.77828 0.96413 0.08308 0.0
C2073 C 0.78017 0.04077 0.0892 0.0
C2074 C 0.76732 0.06715 0.12078 0.0
H2075 H 0.7601 0.29018 0.13674 0.0
H2076 H 0.75691 0.22582 0.12286 0.0
H2077 H 0.76558 0.09628 0.14 0.0
H2078 H 0.7652 0.92977 0.09303 0.0
H2079 H 0.75939 0.99289 0.10616 0.0
H2080 H 0.7698 0.12364 0.09172 0.0
C2081 C 0.76232 0.22299 0.13128 0.0
C2082 C 0.76638 0.10262 0.12946 0.0
C2083 C 0.76412 0.25976 0.13926 0.0
C2084 C 0.76942 0.96062 0.09179 0.0
C2085 C 0.76611 0.99667 0.09934 0.0
C2086 C 0.76877 0.11727 0.10222 0.0
C2087 C 0.76768 0.18331 0.13396 0.0
C2088 C 0.76692 0.14579 0.12465 0.0
C2089 C 0.77155 0.03697 0.09824 0.0
C2090 C 0.76885 0.07416 0.10711 0.0
H2091 H 0.78198 0.21463 0.16124 0.0
H2092 H 0.77889 0.15081 0.14731 0.0
H2093 H 0.76832 0.18558 0.10689 0.0
H2094 H 0.79034 0.00861 0.07508 0.0
H2095 H 0.78463 0.07119 0.08826 0.0
C2096 C 0.52324 0.76786 0.90977 0.0
C2097 C 0.52364 0.72773 0.903 0.0
C2098 C 0.52117 0.80663 0.90287 0.0
C2099 C 0.5133 0.85095 0.86947 0.0
H2100 H 0.53115 0.94869 0.88077 0.0
C2101 C 0.52901 0.99029 0.83569 0.0
C2102 C 0.52821 0.03323 0.84061 0.0
C2103 C 0.52594 0.95477 0.84357 0.0
C2104 C 0.52599 0.92189 0.87761 0.0
H2105 H 0.52183 0.69618 0.88386 0.0
H2106 H 0.5188 0.7638 0.87169 0.0
H2107 H 0.53039 0.88304 0.89432 0.0
H2108 H 0.52328 0.07286 0.85744 0.0
H2109 H 0.51821 0.0105 0.87135 0.0
H2110 H 0.50959 0.88945 0.85222 0.0
C2111 C 0.51971 0.76561 0.88236 0.0
C2112 C 0.52549 0.88424 0.88541 0.0
C2113 C 0.52152 0.72674 0.88932 0.0
C2114 C 0.52398 0.04011 0.85339 0.0
C2115 C 0.52109 0.00454 0.86135 0.0
C2116 C 0.51399 0.8884 0.86153 0.0
C2117 C 0.51975 0.80622 0.889 0.0
C2118 C 0.51927 0.84793 0.88136 0.0
C2119 C 0.52219 0.96161 0.85657 0.0
C2120 C 0.52045 0.92389 0.86548 0.0
H2121 H 0.5247 0.76938 0.92037 0.0
H2122 H 0.52096 0.83704 0.9084 0.0
H2123 H 0.50825 0.8241 0.86615 0.0
H2124 H 0.5322 0.98407 0.82585 0.0
H2125 H 0.52694 0.92187 0.83973 0.0
C2126 C 0.7123 0.48568 0.91373 0.0
C2127 C 0.71774 0.52588 0.9124 0.0
C2128 C 0.71515 0.45002 0.9058 0.0
C2129 C 0.72608 0.42583 0.8732 0.0
H2130 H 0.7263 0.30618 0.88617 0.0
C2131 C 0.71559 0.27666 0.84095 0.0
C2132 C 0.72146 0.23771 0.84277 0.0
C2133 C 0.71754 0.31293 0.84904 0.0
C2134 C 0.72644 0.33943 0.88241 0.0
H2135 H 0.73066 0.55984 0.90203 0.0
H2136 H 0.73555 0.49742 0.88803 0.0
H2137 H 0.72558 0.36684 0.90196 0.0
H2138 H 0.73426 0.20669 0.85419 0.0
H2139 H 0.73758 0.27013 0.86843 0.0
H2140 H 0.72657 0.39838 0.85364 0.0
C2141 C 0.72909 0.49368 0.89523 0.0
C2142 C 0.72593 0.37408 0.89144 0.0
C2143 C 0.72632 0.52928 0.90327 0.0
C2144 C 0.72958 0.23624 0.85256 0.0
C2145 C 0.73146 0.27243 0.86074 0.0
C2146 C 0.72649 0.39117 0.86417 0.0
C2147 C 0.72342 0.45392 0.8963 0.0
C2148 C 0.72549 0.41756 0.88691 0.0
C2149 C 0.72534 0.31089 0.85918 0.0
C2150 C 0.72643 0.34763 0.86868 0.0
H2151 H 0.70569 0.48199 0.9207 0.0
H2152 H 0.71056 0.41992 0.90674 0.0
H2153 H 0.72568 0.45903 0.86943 0.0
H2154 H 0.7093 0.27887 0.83347 0.0
H2155 H 0.71261 0.34199 0.8477 0.0
C2156 C 0.5282 0.52964 0.35161 0.0
C2157 C 0.53063 0.52736 0.33803 0.0
C2158 C 0.52515 0.49205 0.35855 0.0
C2159 C 0.52709 0.3711 0.35609 0.0
H2160 H 0.50993 0.37654 0.38831 0.0
C2161 C 0.51909 0.22005 0.389 0.0
C2162 C 0.5237 0.22558 0.40165 0.0
C2163 C 0.51752 0.25616 0.38071 0.0
C2164 C 0.51465 0.37462 0.37925 0.0
H2165 H 0.53114 0.48484 0.32082 0.0
H2166 H 0.52529 0.41957 0.33274 0.0
H2167 H 0.51129 0.44112 0.37408 0.0
H2168 H 0.52967 0.27311 0.41588 0.0
H2169 H 0.52662 0.33644 0.40147 0.0
H2170 H 0.53032 0.30437 0.3613 0.0
C2171 C 0.52616 0.44987 0.33822 0.0
C2172 C 0.51553 0.41161 0.37116 0.0
C2173 C 0.52946 0.4873 0.33135 0.0
C2174 C 0.52615 0.26799 0.40615 0.0
C2175 C 0.52435 0.30415 0.39797 0.0
C2176 C 0.52601 0.33394 0.36403 0.0
C2177 C 0.52422 0.45148 0.35199 0.0
C2178 C 0.52203 0.41073 0.35966 0.0
C2179 C 0.52028 0.29836 0.38507 0.0
C2180 C 0.52001 0.33576 0.37583 0.0
H2181 H 0.52909 0.56012 0.35702 0.0
H2182 H 0.52394 0.49467 0.36917 0.0
H2183 H 0.53233 0.36911 0.34749 0.0
H2184 H 0.51718 0.18767 0.38528 0.0
H2185 H 0.51439 0.25108 0.37077 0.0
C2186 C 0.71376 0.98437 0.41515 0.0
C2187 C 0.71496 0.02381 0.40814 0.0
C2188 C 0.71626 0.94446 0.40912 0.0
C2189 C 0.7292 0.89494 0.37908 0.0
H2190 H 0.70833 0.80242 0.38558 0.0
C2191 C 0.71977 0.75355 0.34277 0.0
C2192 C 0.718 0.7117 0.34817 0.0
C2193 C 0.72164 0.7894 0.35108 0.0
C2194 C 0.71433 0.82765 0.38382 0.0
H2195 H 0.72003 0.05262 0.38947 0.0
H2196 H 0.72398 0.98312 0.37876 0.0
H2197 H 0.7074 0.86948 0.39848 0.0
H2198 H 0.71733 0.67424 0.36647 0.0
H2199 H 0.72045 0.73704 0.38095 0.0
H2200 H 0.73571 0.85345 0.36386 0.0
C2201 C 0.7214 0.98281 0.38903 0.0
C2202 C 0.71384 0.86612 0.39125 0.0
C2203 C 0.71905 0.02273 0.39514 0.0
C2204 C 0.7186 0.70609 0.362 0.0
C2205 C 0.72036 0.742 0.3703 0.0
C2206 C 0.7296 0.85657 0.37152 0.0
C2207 C 0.71985 0.9431 0.39586 0.0
C2208 C 0.72116 0.90056 0.38885 0.0
C2209 C 0.72168 0.78409 0.36493 0.0
C2210 C 0.72207 0.82286 0.37372 0.0
H2211 H 0.71075 0.98427 0.42526 0.0
H2212 H 0.71521 0.91462 0.41478 0.0
H2213 H 0.73509 0.92043 0.37713 0.0
H2214 H 0.71941 0.75886 0.33214 0.0
H2215 H 0.72255 0.82159 0.34669 0.0
C2216 C 0.47139 0.28214 0.1038 0.0
C2217 C 0.46728 0.27541 0.09094 0.0
C2218 C 0.47388 0.24646 0.11191 0.0
C2219 C 0.48001 0.12945 0.11258 0.0
H2220 H 0.4627 0.12677 0.14468 0.0
C2221 C 0.47032 0.9691 0.13998 0.0
C2222 C 0.46794 0.97027 0.15359 0.0
C2223 C 0.47257 0.00775 0.13311 0.0
C2224 C 0.46784 0.12718 0.13598 0.0
H2225 H 0.46317 0.22637 0.0762 0.0
H2226 H 0.46775 0.16395 0.09033 0.0
H2227 H 0.46291 0.1924 0.13108 0.0
H2228 H 0.46679 0.01199 0.17093 0.0
H2229 H 0.47127 0.07923 0.15913 0.0
H2230 H 0.48502 0.06438 0.11744 0.0
C2231 C 0.46895 0.19682 0.09413 0.0
C2232 C 0.4679 0.16484 0.12815 0.0
C2233 C 0.46626 0.23246 0.0861 0.0
C2234 C 0.46844 0.01035 0.16038 0.0
C2235 C 0.47094 0.04888 0.15358 0.0
C2236 C 0.48013 0.09198 0.12055 0.0
C2237 C 0.47253 0.20355 0.1072 0.0
C2238 C 0.47376 0.16588 0.11624 0.0
C2239 C 0.47272 0.04831 0.13977 0.0
C2240 C 0.47381 0.08993 0.13218 0.0
H2241 H 0.47225 0.31491 0.10779 0.0
H2242 H 0.47664 0.25231 0.12197 0.0
H2243 H 0.48465 0.12976 0.10345 0.0
H2244 H 0.46994 0.9386 0.1345 0.0
H2245 H 0.47371 0.00587 0.12247 0.0
C2246 C 0.27841 0.72277 0.15666 0.0
C2247 C 0.27672 0.76568 0.15207 0.0
C2248 C 0.27601 0.68701 0.14852 0.0
C2249 C 0.27695 0.65591 0.11458 0.0
H2250 H 0.25962 0.55521 0.12455 0.0
C2251 C 0.27586 0.50411 0.0811 0.0
C2252 C 0.27598 0.46331 0.08749 0.0
C2253 C 0.27367 0.54225 0.08826 0.0
C2254 C 0.26459 0.58283 0.12165 0.0
H2255 H 0.27094 0.80494 0.13556 0.0
H2256 H 0.2671 0.74222 0.12118 0.0
H2257 H 0.26007 0.61955 0.13897 0.0
H2258 H 0.2737 0.42999 0.10627 0.0
H2259 H 0.27048 0.49642 0.11894 0.0
H2260 H 0.28216 0.61889 0.09784 0.0
C2261 C 0.27012 0.73647 0.13113 0.0
C2262 C 0.26475 0.61971 0.12987 0.0
C2263 C 0.2723 0.7722 0.13936 0.0
C2264 C 0.27359 0.46108 0.10109 0.0
C2265 C 0.27166 0.49928 0.10832 0.0
C2266 C 0.27699 0.61878 0.10652 0.0
C2267 C 0.27209 0.69369 0.1356 0.0
C2268 C 0.27102 0.65629 0.12644 0.0
C2269 C 0.27184 0.5405 0.10205 0.0
C2270 C 0.27092 0.58145 0.11002 0.0
H2271 H 0.28177 0.71687 0.16644 0.0
H2272 H 0.27767 0.65422 0.15211 0.0
H2273 H 0.28195 0.68366 0.11185 0.0
H2274 H 0.27755 0.50659 0.07057 0.0
H2275 H 0.27359 0.57316 0.08299 0.0
C2276 C 0.4737 0.45764 0.6363 0.0
C2277 C 0.47037 0.46363 0.64951 0.0
C2278 C 0.47592 0.49379 0.62824 0.0
C2279 C 0.482 0.61156 0.62802 0.0
H2280 H 0.4636 0.6149 0.59683 0.0
C2281 C 0.47035 0.77271 0.60207 0.0
C2282 C 0.46759 0.77203 0.58856 0.0
C2283 C 0.47311 0.73396 0.60862 0.0
C2284 C 0.46904 0.61435 0.60527 0.0
H2285 H 0.46742 0.51183 0.66492 0.0
H2286 H 0.47145 0.57495 0.65087 0.0
H2287 H 0.46458 0.54847 0.60999 0.0
H2288 H 0.46632 0.73119 0.57104 0.0
H2289 H 0.47164 0.66392 0.58226 0.0
H2290 H 0.48647 0.67747 0.62335 0.0
C2291 C 0.47228 0.54234 0.64675 0.0
C2292 C 0.46955 0.57619 0.61284 0.0
C2293 C 0.4699 0.50626 0.65474 0.0
C2294 C 0.46825 0.73246 0.58152 0.0
C2295 C 0.47124 0.69388 0.58799 0.0
C2296 C 0.48164 0.6496 0.62031 0.0
C2297 C 0.47504 0.53645 0.63334 0.0
C2298 C 0.47582 0.5748 0.62445 0.0
C2299 C 0.47337 0.69384 0.60172 0.0
C2300 C 0.47493 0.65187 0.60901 0.0
H2301 H 0.47414 0.42515 0.632 0.0
H2302 H 0.47806 0.4885 0.61793 0.0
H2303 H 0.48695 0.61107 0.6369 0.0
H2304 H 0.46986 0.80281 0.60774 0.0
H2305 H 0.47454 0.7353 0.61922 0.0
C2306 C 0.28675 0.99572 0.5965 0.0
C2307 C 0.27927 0.9908 0.58608 0.0
C2308 C 0.2853 0.02814 0.60607 0.0
C2309 C 0.27227 0.13403 0.61202 0.0
H2310 H 0.2788 0.10703 0.64881 0.0
C2311 C 0.27013 0.26524 0.6532 0.0
C2312 C 0.27933 0.26701 0.66143 0.0
C2313 C 0.26844 0.22944 0.6448 0.0
C2314 C 0.27696 0.11506 0.63858 0.0
H2315 H 0.26443 0.01634 0.57748 0.0
H2316 H 0.26193 0.07334 0.59429 0.0
H2317 H 0.27902 0.04869 0.63227 0.0
H2318 H 0.29373 0.23183 0.6677 0.0
H2319 H 0.29081 0.16959 0.65305 0.0
H2320 H 0.27048 0.20063 0.61829 0.0
C2321 C 0.26892 0.05202 0.59497 0.0
C2322 C 0.2771 0.08172 0.62911 0.0
C2323 C 0.27035 0.01937 0.58537 0.0
C2324 C 0.28657 0.23151 0.66147 0.0
C2325 C 0.28486 0.19569 0.65313 0.0
C2326 C 0.27213 0.16743 0.6215 0.0
C2327 C 0.27635 0.05649 0.60547 0.0
C2328 C 0.27501 0.09102 0.61568 0.0
C2329 C 0.27588 0.1946 0.64454 0.0
C2330 C 0.27472 0.15843 0.63483 0.0
H2331 H 0.29372 0.97436 0.59734 0.0
H2332 H 0.29129 0.03131 0.61389 0.0
H2333 H 0.27071 0.14225 0.60173 0.0
H2334 H 0.26438 0.29204 0.65297 0.0
H2335 H 0.26139 0.22925 0.63839 0.0
loop_
_geom_bond_atom_site_label_1
_geom_bond_atom_site_label_2
_geom_bond_distance
_geom_bond_site_symmetry_2
_ccdc_geom_bond_type
C0 O1 1.160 . S
C0 O7 1.185 . S
O1 C0 1.160 . S
O2 Zn3 1.899 . S
O2 C10 1.284 . S
Zn3 O2 1.899 . S
Zn3 O4 2.032 . S
Zn3 O7 2.086 . S
Zn3 O12 1.977 . S
O4 Zn3 2.032 . S
O4 C8 1.278 . S
C5 O6 1.203 . S
C5 O12 1.267 . S
O6 C5 1.203 . S
O7 C0 1.185 . S
O7 Zn3 2.086 . S
C8 O4 1.278 . S
C8 O9 1.211 . S
O9 C8 1.211 . S
C10 O2 1.284 . S
C10 O11 1.273 . S
O11 C10 1.273 . S
O12 Zn3 1.977 . S
O12 C5 1.267 . S
C13 O14 1.160 . S
C13 O20 1.185 . S
O14 C13 1.160 . S
O15 Zn16 1.899 . S
O15 C23 1.284 . S
Zn16 O15 1.899 . S
Zn16 O17 2.032 . S
Zn16 O20 2.086 . S
Zn16 O25 1.977 . S
O17 Zn16 2.032 . S
O17 C21 1.278 . S
C18 O19 1.203 . S
C18 O25 1.267 . S
O19 C18 1.203 . S
O20 C13 1.185 . S
O20 Zn16 2.086 . S
C21 O17 1.278 . S
C21 O22 1.211 . S
O22 C21 1.211 . S
C23 O15 1.284 . S
C23 O24 1.273 . S
O24 C23 1.273 . S
O25 Zn16 1.977 . S
O25 C18 1.267 . S
C26 O27 1.160 . S
C26 O33 1.185 . S
O27 C26 1.160 . S
O28 Zn29 1.899 . S
O28 C36 1.284 . S
Zn29 O28 1.899 . S
Zn29 O30 2.032 . S
Zn29 O33 2.086 . S
Zn29 O38 1.977 . S
O30 Zn29 2.032 . S
O30 C34 1.278 . S
C31 O32 1.203 . S
C31 O38 1.267 . S
O32 C31 1.203 . S
O33 C26 1.185 . S
O33 Zn29 2.086 . S
C34 O30 1.278 . S
C34 O35 1.211 . S
O35 C34 1.211 . S
C36 O28 1.284 . S
C36 O37 1.273 . S
O37 C36 1.273 . S
O38 Zn29 1.977 . S
O38 C31 1.267 . S
C39 O40 1.160 . S
C39 O46 1.185 . S
O40 C39 1.160 . S
O41 Zn42 1.899 . S
O41 C49 1.284 . S
Zn42 O41 1.899 . S
Zn42 O43 2.032 . S
Zn42 O46 2.086 . S
Zn42 O51 1.977 . S
O43 Zn42 2.032 . S
O43 C47 1.278 . S
C44 O45 1.203 . S
C44 O51 1.267 . S
O45 C44 1.203 . S
O46 C39 1.185 . S
O46 Zn42 2.086 . S
C47 O43 1.278 . S
C47 O48 1.211 . S
O48 C47 1.211 . S
C49 O41 1.284 . S
C49 O50 1.273 . S
O50 C49 1.273 . S
O51 Zn42 1.977 . S
O51 C44 1.267 . S
C52 O53 1.160 . S
C52 O59 1.185 . S
O53 C52 1.160 . S
O54 Zn55 1.899 . S
O54 C62 1.284 . S
Zn55 O54 1.899 . S
Zn55 O56 2.032 . S
Zn55 O59 2.086 . S
Zn55 O64 1.977 . S
O56 Zn55 2.032 . S
O56 C60 1.278 . S
C57 O58 1.203 . S
C57 O64 1.267 . S
O58 C57 1.203 . S
O59 C52 1.185 . S
O59 Zn55 2.086 . S
C60 O56 1.278 . S
C60 O61 1.211 . S
O61 C60 1.211 . S
C62 O54 1.284 . S
C62 O63 1.273 . S
O63 C62 1.273 . S
O64 Zn55 1.977 . S
O64 C57 1.267 . S
C65 O66 1.160 . S
C65 O72 1.185 . S
O66 C65 1.160 . S
O67 Zn68 1.899 . S
O67 C75 1.284 . S
Zn68 O67 1.899 . S
Zn68 O69 2.032 . S
Zn68 O72 2.086 . S
Zn68 O77 1.977 . S
O69 Zn68 2.032 . S
O69 C73 1.278 . S
C70 O71 1.203 . S
C70 O77 1.267 . S
O71 C70 1.203 . S
O72 C65 1.185 . S
O72 Zn68 2.086 . S
C73 O69 1.278 . S
C73 O74 1.211 . S
O74 C73 1.211 . S
C75 O67 1.284 . S
C75 O76 1.273 . S
O76 C75 1.273 . S
O77 Zn68 1.977 . S
O77 C70 1.267 . S
C78 O79 1.160 . S
C78 O85 1.185 . S
O79 C78 1.160 . S
O80 Zn81 1.899 . S
O80 C88 1.284 . S
Zn81 O80 1.899 . S
Zn81 O82 2.032 . S
Zn81 O85 2.086 . S
Zn81 O90 1.977 . S
O82 Zn81 2.032 . S
O82 C86 1.278 . S
C83 O84 1.203 . S
C83 O90 1.267 . S
O84 C83 1.203 . S
O85 C78 1.185 . S
O85 Zn81 2.086 . S
C86 O82 1.278 . S
C86 O87 1.211 . S
O87 C86 1.211 . S
C88 O80 1.284 . S
C88 O89 1.273 . S
O89 C88 1.273 . S
O90 Zn81 1.977 . S
O90 C83 1.267 . S
C91 O92 1.160 . S
C91 O98 1.185 . S
O92 C91 1.160 . S
O93 Zn94 1.899 . S
O93 C101 1.284 . S
Zn94 O93 1.899 . S
Zn94 O95 2.032 . S
Zn94 O98 2.086 . S
Zn94 O103 1.977 . S
O95 Zn94 2.032 . S
O95 C99 1.278 . S
C96 O97 1.203 . S
C96 O103 1.267 . S
O97 C96 1.203 . S
O98 C91 1.185 . S
O98 Zn94 2.086 . S
C99 O95 1.278 . S
C99 O100 1.211 . S
O100 C99 1.211 . S
C101 O93 1.284 . S
C101 O102 1.273 . S
O102 C101 1.273 . S
O103 Zn94 1.977 . S
O103 C96 1.267 . S
C104 O105 1.160 . S
C104 O111 1.185 . S
O105 C104 1.160 . S
O106 Zn107 1.899 . S
O106 C114 1.284 . S
Zn107 O106 1.899 . S
Zn107 O108 2.032 . S
Zn107 O111 2.086 . S
Zn107 O116 1.977 . S
O108 Zn107 2.032 . S
O108 C112 1.278 . S
C109 O110 1.203 . S
C109 O116 1.267 . S
O110 C109 1.203 . S
O111 C104 1.185 . S
O111 Zn107 2.086 . S
C112 O108 1.278 . S
C112 O113 1.211 . S
O113 C112 1.211 . S
C114 O106 1.284 . S
C114 O115 1.273 . S
O115 C114 1.273 . S
O116 Zn107 1.977 . S
O116 C109 1.267 . S
C117 O118 1.160 . S
C117 O124 1.185 . S
O118 C117 1.160 . S
O119 Zn120 1.899 . S
O119 C127 1.284 . S
Zn120 O119 1.899 . S
Zn120 O121 2.032 . S
Zn120 O124 2.086 . S
Zn120 O129 1.977 . S
O121 Zn120 2.032 . S
O121 C125 1.278 . S
C122 O123 1.203 . S
C122 O129 1.267 . S
O123 C122 1.203 . S
O124 C117 1.185 . S
O124 Zn120 2.086 . S
C125 O121 1.278 . S
C125 O126 1.211 . S
O126 C125 1.211 . S
C127 O119 1.284 . S
C127 O128 1.273 . S
O128 C127 1.273 . S
O129 Zn120 1.977 . S
O129 C122 1.267 . S
C130 O131 1.160 . S
C130 O137 1.185 . S
O131 C130 1.160 . S
O132 Zn133 1.899 . S
O132 C140 1.284 . S
Zn133 O132 1.899 . S
Zn133 O134 2.032 . S
Zn133 O137 2.086 . S
Zn133 O142 1.977 . S
O134 Zn133 2.032 . S
O134 C138 1.278 . S
C135 O136 1.203 . S
C135 O142 1.267 . S
O136 C135 1.203 . S
O137 C130 1.185 . S
O137 Zn133 2.086 . S
C138 O134 1.278 . S
C138 O139 1.211 . S
O139 C138 1.211 . S
C140 O132 1.284 . S
C140 O141 1.273 . S
O141 C140 1.273 . S
O142 Zn133 1.977 . S
O142 C135 1.267 . S
C143 O144 1.160 . S
C143 O150 1.185 . S
O144 C143 1.160 . S
O145 Zn146 1.899 . S
O145 C153 1.284 . S
Zn146 O145 1.899 . S
Zn146 O147 2.032 . S
Zn146 O150 2.086 . S
Zn146 O155 1.977 . S
O147 Zn146 2.032 . S
O147 C151 1.278 . S
C148 O149 1.203 . S
C148 O155 1.267 . S
O149 C148 1.203 . S
O150 C143 1.185 . S
O150 Zn146 2.086 . S
C151 O147 1.278 . S
C151 O152 1.211 . S
O152 C151 1.211 . S
C153 O145 1.284 . S
C153 O154 1.273 . S
O154 C153 1.273 . S
O155 Zn146 1.977 . S
O155 C148 1.267 . S
C156 O157 1.160 . S
C156 O163 1.185 . S
O157 C156 1.160 . S
O158 Zn159 1.899 . S
O158 C166 1.284 . S
Zn159 O158 1.899 . S
Zn159 O160 2.032 . S
Zn159 O163 2.086 . S
Zn159 O168 1.977 . S
O160 Zn159 2.032 . S
O160 C164 1.278 . S
C161 O162 1.203 . S
C161 O168 1.267 . S
O162 C161 1.203 . S
O163 C156 1.185 . S
O163 Zn159 2.086 . S
C164 O160 1.278 . S
C164 O165 1.211 . S
O165 C164 1.211 . S
C166 O158 1.284 . S
C166 O167 1.273 . S
O167 C166 1.273 . S
O168 Zn159 1.977 . S
O168 C161 1.267 . S
C169 O170 1.160 . S
C169 O176 1.185 . S
O170 C169 1.160 . S
O171 Zn172 1.899 . S
O171 C179 1.284 . S
Zn172 O171 1.899 . S
Zn172 O173 2.032 . S
Zn172 O176 2.086 . S
Zn172 O181 1.977 . S
O173 Zn172 2.032 . S
O173 C177 1.278 . S
C174 O175 1.203 . S
C174 O181 1.267 . S
O175 C174 1.203 . S
O176 C169 1.185 . S
O176 Zn172 2.086 . S
C177 O173 1.278 . S
C177 O178 1.211 . S
O178 C177 1.211 . S
C179 O171 1.284 . S
C179 O180 1.273 . S
O180 C179 1.273 . S
O181 Zn172 1.977 . S
O181 C174 1.267 . S
C182 O183 1.160 . S
C182 O189 1.185 . S
O183 C182 1.160 . S
O184 Zn185 1.899 . S
O184 C192 1.284 . S
Zn185 O184 1.899 . S
Zn185 O186 2.032 . S
Zn185 O189 2.086 . S
Zn185 O194 1.977 . S
O186 Zn185 2.032 . S
O186 C190 1.278 . S
C187 O188 1.203 . S
C187 O194 1.267 . S
O188 C187 1.203 . S
O189 C182 1.185 . S
O189 Zn185 2.086 . S
C190 O186 1.278 . S
C190 O191 1.211 . S
O191 C190 1.211 . S
C192 O184 1.284 . S
C192 O193 1.273 . S
O193 C192 1.273 . S
O194 Zn185 1.977 . S
O194 C187 1.267 . S
C195 O196 1.160 . S
C195 O202 1.185 . S
O196 C195 1.160 . S
O197 Zn198 1.899 . S
O197 C205 1.284 . S
Zn198 O197 1.899 . S
Zn198 O199 2.032 . S
Zn198 O202 2.086 . S
Zn198 O207 1.977 . S
O199 Zn198 2.032 . S
O199 C203 1.278 . S
C200 O201 1.203 . S
C200 O207 1.267 . S
O201 C200 1.203 . S
O202 C195 1.185 . S
O202 Zn198 2.086 . S
C203 O199 1.278 . S
C203 O204 1.211 . S
O204 C203 1.211 . S
C205 O197 1.284 . S
C205 O206 1.273 . S
O206 C205 1.273 . S
O207 Zn198 1.977 . S
O207 C200 1.267 . S
C208 O209 1.160 . S
C208 O215 1.185 . S
O209 C208 1.160 . S
O210 Zn211 1.899 . S
O210 C218 1.284 . S
Zn211 O210 1.899 . S
Zn211 O212 2.032 . S
Zn211 O215 2.086 . S
Zn211 O220 1.977 . S
O212 Zn211 2.032 . S
O212 C216 1.278 . S
C213 O214 1.203 . S
C213 O220 1.267 . S
O214 C213 1.203 . S
O215 C208 1.185 . S
O215 Zn211 2.086 . S
C216 O212 1.278 . S
C216 O217 1.211 . S
O217 C216 1.211 . S
C218 O210 1.284 . S
C218 O219 1.273 . S
O219 C218 1.273 . S
O220 Zn211 1.977 . S
O220 C213 1.267 . S
C221 O222 1.160 . S
C221 O228 1.185 . S
O222 C221 1.160 . S
O223 Zn224 1.899 . S
O223 C231 1.284 . S
Zn224 O223 1.899 . S
Zn224 O225 2.032 . S
Zn224 O228 2.086 . S
Zn224 O233 1.977 . S
O225 Zn224 2.032 . S
O225 C229 1.278 . S
C226 O227 1.203 . S
C226 O233 1.267 . S
O227 C226 1.203 . S
O228 C221 1.185 . S
O228 Zn224 2.086 . S
C229 O225 1.278 . S
C229 O230 1.211 . S
O230 C229 1.211 . S
C231 O223 1.284 . S
C231 O232 1.273 . S
O232 C231 1.273 . S
O233 Zn224 1.977 . S
O233 C226 1.267 . S
C234 O235 1.160 . S
C234 O241 1.185 . S
O235 C234 1.160 . S
O236 Zn237 1.899 . S
O236 C244 1.284 . S
Zn237 O236 1.899 . S
Zn237 O238 2.032 . S
Zn237 O241 2.086 . S
Zn237 O246 1.977 . S
O238 Zn237 2.032 . S
O238 C242 1.278 . S
C239 O240 1.203 . S
C239 O246 1.267 . S
O240 C239 1.203 . S
O241 C234 1.185 . S
O241 Zn237 2.086 . S
C242 O238 1.278 . S
C242 O243 1.211 . S
O243 C242 1.211 . S
C244 O236 1.284 . S
C244 O245 1.273 . S
O245 C244 1.273 . S
O246 Zn237 1.977 . S
O246 C239 1.267 . S
C247 O248 1.160 . S
C247 O254 1.185 . S
O248 C247 1.160 . S
O249 Zn250 1.899 . S
O249 C257 1.284 . S
Zn250 O249 1.899 . S
Zn250 O251 2.032 . S
Zn250 O254 2.086 . S
Zn250 O259 1.977 . S
O251 Zn250 2.032 . S
O251 C255 1.278 . S
C252 O253 1.203 . S
C252 O259 1.267 . S
O253 C252 1.203 . S
O254 C247 1.185 . S
O254 Zn250 2.086 . S
C255 O251 1.278 . S
C255 O256 1.211 . S
O256 C255 1.211 . S
C257 O249 1.284 . S
C257 O258 1.273 . S
O258 C257 1.273 . S
O259 Zn250 1.977 . S
O259 C252 1.267 . S
C260 O261 1.160 . S
C260 O267 1.185 . S
O261 C260 1.160 . S
O262 Zn263 1.899 . S
O262 C270 1.284 . S
Zn263 O262 1.899 . S
Zn263 O264 2.032 . S
Zn263 O267 2.086 . S
Zn263 O272 1.977 . S
O264 Zn263 2.032 . S
O264 C268 1.278 . S
C265 O266 1.203 . S
C265 O272 1.267 . S
O266 C265 1.203 . S
O267 C260 1.185 . S
O267 Zn263 2.086 . S
C268 O264 1.278 . S
C268 O269 1.211 . S
O269 C268 1.211 . S
C270 O262 1.284 . S
C270 O271 1.273 . S
O271 C270 1.273 . S
O272 Zn263 1.977 . S
O272 C265 1.267 . S
C273 O274 1.160 . S
C273 O280 1.185 . S
O274 C273 1.160 . S
O275 Zn276 1.899 . S
O275 C283 1.284 . S
Zn276 O275 1.899 . S
Zn276 O277 2.032 . S
Zn276 O280 2.086 . S
Zn276 O285 1.977 . S
O277 Zn276 2.032 . S
O277 C281 1.278 . S
C278 O279 1.203 . S
C278 O285 1.267 . S
O279 C278 1.203 . S
O280 C273 1.185 . S
O280 Zn276 2.086 . S
C281 O277 1.278 . S
C281 O282 1.211 . S
O282 C281 1.211 . S
C283 O275 1.284 . S
C283 O284 1.273 . S
O284 C283 1.273 . S
O285 Zn276 1.977 . S
O285 C278 1.267 . S
C286 O287 1.160 . S
C286 O293 1.185 . S
O287 C286 1.160 . S
O288 Zn289 1.899 . S
O288 C296 1.284 . S
Zn289 O288 1.899 . S
Zn289 O290 2.032 . S
Zn289 O293 2.086 . S
Zn289 O298 1.977 . S
O290 Zn289 2.032 . S
O290 C294 1.278 . S
C291 O292 1.203 . S
C291 O298 1.267 . S
O292 C291 1.203 . S
O293 C286 1.185 . S
O293 Zn289 2.086 . S
C294 O290 1.278 . S
C294 O295 1.211 . S
O295 C294 1.211 . S
C296 O288 1.284 . S
C296 O297 1.273 . S
O297 C296 1.273 . S
O298 Zn289 1.977 . S
O298 C291 1.267 . S
C299 O300 1.160 . S
C299 O306 1.185 . S
O300 C299 1.160 . S
O301 Zn302 1.899 . S
O301 C309 1.284 . S
Zn302 O301 1.899 . S
Zn302 O303 2.032 . S
Zn302 O306 2.086 . S
Zn302 O311 1.977 . S
O303 Zn302 2.032 . S
O303 C307 1.278 . S
C304 O305 1.203 . S
C304 O311 1.267 . S
O305 C304 1.203 . S
O306 C299 1.185 . S
O306 Zn302 2.086 . S
C307 O303 1.278 . S
C307 O308 1.211 . S
O308 C307 1.211 . S
C309 O301 1.284 . S
C309 O310 1.273 . S
O310 C309 1.273 . S
O311 Zn302 1.977 . S
O311 C304 1.267 . S
C312 O313 1.160 . S
C312 O319 1.185 . S
O313 C312 1.160 . S
O314 Zn315 1.899 . S
O314 C322 1.284 . S
Zn315 O314 1.899 . S
Zn315 O316 2.032 . S
Zn315 O319 2.086 . S
Zn315 O324 1.977 . S
O316 Zn315 2.032 . S
O316 C320 1.278 . S
C317 O318 1.203 . S
C317 O324 1.267 . S
O318 C317 1.203 . S
O319 C312 1.185 . S
O319 Zn315 2.086 . S
C320 O316 1.278 . S
C320 O321 1.211 . S
O321 C320 1.211 . S
C322 O314 1.284 . S
C322 O323 1.273 . S
O323 C322 1.273 . S
O324 Zn315 1.977 . S
O324 C317 1.267 . S
C325 O326 1.160 . S
C325 O332 1.185 . S
O326 C325 1.160 . S
O327 Zn328 1.899 . S
O327 C335 1.284 . S
Zn328 O327 1.899 . S
Zn328 O329 2.032 . S
Zn328 O332 2.086 . S
Zn328 O337 1.977 . S
O329 Zn328 2.032 . S
O329 C333 1.278 . S
C330 O331 1.203 . S
C330 O337 1.267 . S
O331 C330 1.203 . S
O332 C325 1.185 . S
O332 Zn328 2.086 . S
C333 O329 1.278 . S
C333 O334 1.211 . S
O334 C333 1.211 . S
C335 O327 1.284 . S
C335 O336 1.273 . S
O336 C335 1.273 . S
O337 Zn328 1.977 . S
O337 C330 1.267 . S
C338 O339 1.160 . S
C338 O345 1.185 . S
O339 C338 1.160 . S
O340 Zn341 1.899 . S
O340 C348 1.284 . S
Zn341 O340 1.899 . S
Zn341 O342 2.032 . S
Zn341 O345 2.086 . S
Zn341 O350 1.977 . S
O342 Zn341 2.032 . S
O342 C346 1.278 . S
C343 O344 1.203 . S
C343 O350 1.267 . S
O344 C343 1.203 . S
O345 C338 1.185 . S
O345 Zn341 2.086 . S
C346 O342 1.278 . S
C346 O347 1.211 . S
O347 C346 1.211 . S
C348 O340 1.284 . S
C348 O349 1.273 . S
O349 C348 1.273 . S
O350 Zn341 1.977 . S
O350 C343 1.267 . S
C351 O352 1.160 . S
C351 O358 1.185 . S
O352 C351 1.160 . S
O353 Zn354 1.899 . S
O353 C361 1.284 . S
Zn354 O353 1.899 . S
Zn354 O355 2.032 . S
Zn354 O358 2.086 . S
Zn354 O363 1.977 . S
O355 Zn354 2.032 . S
O355 C359 1.278 . S
C356 O357 1.203 . S
C356 O363 1.267 . S
O357 C356 1.203 . S
O358 C351 1.185 . S
O358 Zn354 2.086 . S
C359 O355 1.278 . S
C359 O360 1.211 . S
O360 C359 1.211 . S
C361 O353 1.284 . S
C361 O362 1.273 . S
O362 C361 1.273 . S
O363 Zn354 1.977 . S
O363 C356 1.267 . S
C364 O365 1.160 . S
C364 O371 1.185 . S
O365 C364 1.160 . S
O366 Zn367 1.899 . S
O366 C374 1.284 . S
Zn367 O366 1.899 . S
Zn367 O368 2.032 . S
Zn367 O371 2.086 . S
Zn367 O376 1.977 . S
O368 Zn367 2.032 . S
O368 C372 1.278 . S
C369 O370 1.203 . S
C369 O376 1.267 . S
O370 C369 1.203 . S
O371 C364 1.185 . S
O371 Zn367 2.086 . S
C372 O368 1.278 . S
C372 O373 1.211 . S
O373 C372 1.211 . S
C374 O366 1.284 . S
C374 O375 1.273 . S
O375 C374 1.273 . S
O376 Zn367 1.977 . S
O376 C369 1.267 . S
C377 O378 1.160 . S
C377 O384 1.185 . S
O378 C377 1.160 . S
O379 Zn380 1.899 . S
O379 C387 1.284 . S
Zn380 O379 1.899 . S
Zn380 O381 2.032 . S
Zn380 O384 2.086 . S
Zn380 O389 1.977 . S
O381 Zn380 2.032 . S
O381 C385 1.278 . S
C382 O383 1.203 . S
C382 O389 1.267 . S
O383 C382 1.203 . S
O384 C377 1.185 . S
O384 Zn380 2.086 . S
C385 O381 1.278 . S
C385 O386 1.211 . S
O386 C385 1.211 . S
C387 O379 1.284 . S
C387 O388 1.273 . S
O388 C387 1.273 . S
O389 Zn380 1.977 . S
O389 C382 1.267 . S
C390 O391 1.160 . S
C390 O397 1.185 . S
O391 C390 1.160 . S
O392 Zn393 1.899 . S
O392 C400 1.284 . S
Zn393 O392 1.899 . S
Zn393 O394 2.032 . S
Zn393 O397 2.086 . S
Zn393 O402 1.977 . S
O394 Zn393 2.032 . S
O394 C398 1.278 . S
C395 O396 1.203 . S
C395 O402 1.267 . S
O396 C395 1.203 . S
O397 C390 1.185 . S
O397 Zn393 2.086 . S
C398 O394 1.278 . S
C398 O399 1.211 . S
O399 C398 1.211 . S
C400 O392 1.284 . S
C400 O401 1.273 . S
O401 C400 1.273 . S
O402 Zn393 1.977 . S
O402 C395 1.267 . S
C403 O404 1.160 . S
C403 O410 1.185 . S
O404 C403 1.160 . S
O405 Zn406 1.899 . S
O405 C413 1.284 . S
Zn406 O405 1.899 . S
Zn406 O407 2.032 . S
Zn406 O410 2.086 . S
Zn406 O415 1.977 . S
O407 Zn406 2.032 . S
O407 C411 1.278 . S
C408 O409 1.203 . S
C408 O415 1.267 . S
O409 C408 1.203 . S
O410 C403 1.185 . S
O410 Zn406 2.086 . S
C411 O407 1.278 . S
C411 O412 1.211 . S
O412 C411 1.211 . S
C413 O405 1.284 . S
C413 O414 1.273 . S
O414 C413 1.273 . S
O415 Zn406 1.977 . S
O415 C408 1.267 . S
C416 C417 1.349 . S
C416 C418 1.327 . S
C416 H441 0.950 . S
C417 C416 1.349 . S
C417 C433 1.349 . S
C418 C416 1.327 . S
C418 C437 1.429 . S
C418 H442 0.950 . S
C419 C436 1.574 . S
C419 C438 1.368 . S
C419 H443 0.949 . S
H420 C424 0.949 . S
C421 C422 1.349 . S
C421 C423 1.327 . S
C421 H444 0.950 . S
C422 C421 1.349 . S
C422 C434 1.349 . S
C423 C421 1.327 . S
C423 C439 1.429 . S
C423 H445 0.950 . S
C424 H420 0.949 . S
C424 C432 1.574 . S
C424 C440 1.368 . S
H425 C433 0.950 . S
H426 C431 0.950 . S
H427 C432 0.949 . S
H428 C434 0.950 . S
H429 C435 0.950 . S
H430 C436 0.949 . S
C431 H426 0.950 . S
C431 C433 1.327 . S
C431 C437 1.429 . S
C432 C424 1.574 . S
C432 H427 0.949 . S
C432 C438 1.368 . S
C433 C417 1.349 . S
C433 H425 0.950 . S
C433 C431 1.327 . S
C434 C422 1.349 . S
C434 H428 0.950 . S
C434 C435 1.327 . S
C435 H429 0.950 . S
C435 C434 1.327 . S
C435 C439 1.429 . S
C436 C419 1.574 . S
C436 H430 0.949 . S
C436 C440 1.368 . S
C437 C418 1.429 . S
C437 C431 1.429 . S
C437 C438 1.523 . S
C438 C419 1.368 . S
C438 C432 1.368 . S
C438 C437 1.523 . S
C439 C423 1.429 . S
C439 C435 1.429 . S
C439 C440 1.523 . S
C440 C424 1.368 . S
C440 C436 1.368 . S
C440 C439 1.523 . S
H441 C416 0.950 . S
H442 C418 0.950 . S
H443 C419 0.949 . S
H444 C421 0.950 . S
H445 C423 0.950 . S
C446 C447 1.349 . S
C446 C448 1.327 . S
C446 H471 0.950 . S
C447 C446 1.349 . S
C447 C463 1.349 . S
C448 C446 1.327 . S
C448 C467 1.429 . S
C448 H472 0.950 . S
C449 C466 1.574 . S
C449 C468 1.368 . S
C449 H473 0.949 . S
H450 C454 0.949 . S
C451 C452 1.349 . S
C451 C453 1.327 . S
C451 H474 0.950 . S
C452 C451 1.349 . S
C452 C464 1.349 . S
C453 C451 1.327 . S
C453 C469 1.429 . S
C453 H475 0.950 . S
C454 H450 0.949 . S
C454 C462 1.574 . S
C454 C470 1.368 . S
H455 C463 0.950 . S
H456 C461 0.950 . S
H457 C462 0.949 . S
H458 C464 0.950 . S
H459 C465 0.950 . S
H460 C466 0.949 . S
C461 H456 0.950 . S
C461 C463 1.327 . S
C461 C467 1.429 . S
C462 C454 1.574 . S
C462 H457 0.949 . S
C462 C468 1.368 . S
C463 C447 1.349 . S
C463 H455 0.950 . S
C463 C461 1.327 . S
C464 C452 1.349 . S
C464 H458 0.950 . S
C464 C465 1.327 . S
C465 H459 0.950 . S
C465 C464 1.327 . S
C465 C469 1.429 . S
C466 C449 1.574 . S
C466 H460 0.949 . S
C466 C470 1.368 . S
C467 C448 1.429 . S
C467 C461 1.429 . S
C467 C468 1.523 . S
C468 C449 1.368 . S
C468 C462 1.368 . S
C468 C467 1.523 . S
C469 C453 1.429 . S
C469 C465 1.429 . S
C469 C470 1.523 . S
C470 C454 1.368 . S
C470 C466 1.368 . S
C470 C469 1.523 . S
H471 C446 0.950 . S
H472 C448 0.950 . S
H473 C449 0.949 . S
H474 C451 0.950 . S
H475 C453 0.950 . S
C476 C477 1.349 . S
C476 C478 1.327 . S
C476 H501 0.950 . S
C477 C476 1.349 . S
C477 C493 1.349 . S
C478 C476 1.327 . S
C478 C497 1.429 . S
C478 H502 0.950 . S
C479 C496 1.574 . S
C479 C498 1.368 . S
C479 H503 0.949 . S
H480 C484 0.949 . S
C481 C482 1.349 . S
C481 C483 1.327 . S
C481 H504 0.950 . S
C482 C481 1.349 . S
C482 C494 1.349 . S
C483 C481 1.327 . S
C483 C499 1.429 . S
C483 H505 0.950 . S
C484 H480 0.949 . S
C484 C492 1.574 . S
C484 C500 1.368 . S
H485 C493 0.950 . S
H486 C491 0.950 . S
H487 C492 0.949 . S
H488 C494 0.950 . S
H489 C495 0.950 . S
H490 C496 0.949 . S
C491 H486 0.950 . S
C491 C493 1.327 . S
C491 C497 1.429 . S
C492 C484 1.574 . S
C492 H487 0.949 . S
C492 C498 1.368 . S
C493 C477 1.349 . S
C493 H485 0.950 . S
C493 C491 1.327 . S
C494 C482 1.349 . S
C494 H488 0.950 . S
C494 C495 1.327 . S
C495 H489 0.950 . S
C495 C494 1.327 . S
C495 C499 1.429 . S
C496 C479 1.574 . S
C496 H490 0.949 . S
C496 C500 1.368 . S
C497 C478 1.429 . S
C497 C491 1.429 . S
C497 C498 1.523 . S
C498 C479 1.368 . S
C498 C492 1.368 . S
C498 C497 1.523 . S
C499 C483 1.429 . S
C499 C495 1.429 . S
C499 C500 1.523 . S
C500 C484 1.368 . S
C500 C496 1.368 . S
C500 C499 1.523 . S
H501 C476 0.950 . S
H502 C478 0.950 . S
H503 C479 0.949 . S
H504 C481 0.950 . S
H505 C483 0.950 . S
C506 C507 1.349 . S
C506 C508 1.327 . S
C506 H531 0.950 . S
C507 C506 1.349 . S
C507 C523 1.349 . S
C508 C506 1.327 . S
C508 C527 1.429 . S
C508 H532 0.950 . S
C509 C526 1.574 . S
C509 C528 1.368 . S
C509 H533 0.949 . S
H510 C514 0.949 . S
C511 C512 1.349 . S
C511 C513 1.327 . S
C511 H534 0.950 . S
C512 C511 1.349 . S
C512 C524 1.349 . S
C513 C511 1.327 . S
C513 C529 1.429 . S
C513 H535 0.950 . S
C514 H510 0.949 . S
C514 C522 1.574 . S
C514 C530 1.368 . S
H515 C523 0.950 . S
H516 C521 0.950 . S
H517 C522 0.949 . S
H518 C524 0.950 . S
H519 C525 0.950 . S
H520 C526 0.949 . S
C521 H516 0.950 . S
C521 C523 1.327 . S
C521 C527 1.429 . S
C522 C514 1.574 . S
C522 H517 0.949 . S
C522 C528 1.368 . S
C523 C507 1.349 . S
C523 H515 0.950 . S
C523 C521 1.327 . S
C524 C512 1.349 . S
C524 H518 0.950 . S
C524 C525 1.327 . S
C525 H519 0.950 . S
C525 C524 1.327 . S
C525 C529 1.429 . S
C526 C509 1.574 . S
C526 H520 0.949 . S
C526 C530 1.368 . S
C527 C508 1.429 . S
C527 C521 1.429 . S
C527 C528 1.523 . S
C528 C509 1.368 . S
C528 C522 1.368 . S
C528 C527 1.523 . S
C529 C513 1.429 . S
C529 C525 1.429 . S
C529 C530 1.523 . S
C530 C514 1.368 . S
C530 C526 1.368 . S
C530 C529 1.523 . S
H531 C506 0.950 . S
H532 C508 0.950 . S
H533 C509 0.949 . S
H534 C511 0.950 . S
H535 C513 0.950 . S
C536 C537 1.349 . S
C536 C538 1.327 . S
C536 H561 0.950 . S
C537 C536 1.349 . S
C537 C553 1.349 . S
C538 C536 1.327 . S
C538 C557 1.429 . S
C538 H562 0.950 . S
C539 C556 1.574 . S
C539 C558 1.368 . S
C539 H563 0.949 . S
H540 C544 0.949 . S
C541 C542 1.349 . S
C541 C543 1.327 . S
C541 H564 0.950 . S
C542 C541 1.349 . S
C542 C554 1.349 . S
C543 C541 1.327 . S
C543 C559 1.429 . S
C543 H565 0.950 . S
C544 H540 0.949 . S
C544 C552 1.574 . S
C544 C560 1.368 . S
H545 C553 0.950 . S
H546 C551 0.950 . S
H547 C552 0.949 . S
H548 C554 0.950 . S
H549 C555 0.950 . S
H550 C556 0.949 . S
C551 H546 0.950 . S
C551 C553 1.327 . S
C551 C557 1.429 . S
C552 C544 1.574 . S
C552 H547 0.949 . S
C552 C558 1.368 . S
C553 C537 1.349 . S
C553 H545 0.950 . S
C553 C551 1.327 . S
C554 C542 1.349 . S
C554 H548 0.950 . S
C554 C555 1.327 . S
C555 H549 0.950 . S
C555 C554 1.327 . S
C555 C559 1.429 . S
C556 C539 1.574 . S
C556 H550 0.949 . S
C556 C560 1.368 . S
C557 C538 1.429 . S
C557 C551 1.429 . S
C557 C558 1.523 . S
C558 C539 1.368 . S
C558 C552 1.368 . S
C558 C557 1.523 . S
C559 C543 1.429 . S
C559 C555 1.429 . S
C559 C560 1.523 . S
C560 C544 1.368 . S
C560 C556 1.368 . S
C560 C559 1.523 . S
H561 C536 0.950 . S
H562 C538 0.950 . S
H563 C539 0.949 . S
H564 C541 0.950 . S
H565 C543 0.950 . S
C566 C567 1.349 . S
C566 C568 1.327 . S
C566 H591 0.950 . S
C567 C566 1.349 . S
C567 C583 1.349 . S
C568 C566 1.327 . S
C568 C587 1.429 . S
C568 H592 0.950 . S
C569 C586 1.574 . S
C569 C588 1.368 . S
C569 H593 0.949 . S
H570 C574 0.949 . S
C571 C572 1.349 . S
C571 C573 1.327 . S
C571 H594 0.950 . S
C572 C571 1.349 . S
C572 C584 1.349 . S
C573 C571 1.327 . S
C573 C589 1.429 . S
C573 H595 0.950 . S
C574 H570 0.949 . S
C574 C582 1.574 . S
C574 C590 1.368 . S
H575 C583 0.950 . S
H576 C581 0.950 . S
H577 C582 0.949 . S
H578 C584 0.950 . S
H579 C585 0.950 . S
H580 C586 0.949 . S
C581 H576 0.950 . S
C581 C583 1.327 . S
C581 C587 1.429 . S
C582 C574 1.574 . S
C582 H577 0.949 . S
C582 C588 1.368 . S
C583 C567 1.349 . S
C583 H575 0.950 . S
C583 C581 1.327 . S
C584 C572 1.349 . S
C584 H578 0.950 . S
C584 C585 1.327 . S
C585 H579 0.950 . S
C585 C584 1.327 . S
C585 C589 1.429 . S
C586 C569 1.574 . S
C586 H580 0.949 . S
C586 C590 1.368 . S
C587 C568 1.429 . S
C587 C581 1.429 . S
C587 C588 1.523 . S
C588 C569 1.368 . S
C588 C582 1.368 . S
C588 C587 1.523 . S
C589 C573 1.429 . S
C589 C585 1.429 . S
C589 C590 1.523 . S
C590 C574 1.368 . S
C590 C586 1.368 . S
C590 C589 1.523 . S
H591 C566 0.950 . S
H592 C568 0.950 . S
H593 C569 0.949 . S
H594 C571 0.950 . S
H595 C573 0.950 . S
C596 C597 1.349 . S
C596 C598 1.327 . S
C596 H621 0.950 . S
C597 C596 1.349 . S
C597 C613 1.349 . S
C598 C596 1.327 . S
C598 C617 1.429 . S
C598 H622 0.950 . S
C599 C616 1.574 . S
C599 C618 1.368 . S
C599 H623 0.949 . S
H600 C604 0.949 . S
C601 C602 1.349 . S
C601 C603 1.327 . S
C601 H624 0.950 . S
C602 C601 1.349 . S
C602 C614 1.349 . S
C603 C601 1.327 . S
C603 C619 1.429 . S
C603 H625 0.950 . S
C604 H600 0.949 . S
C604 C612 1.574 . S
C604 C620 1.368 . S
H605 C613 0.950 . S
H606 C611 0.950 . S
H607 C612 0.949 . S
H608 C614 0.950 . S
H609 C615 0.950 . S
H610 C616 0.949 . S
C611 H606 0.950 . S
C611 C613 1.327 . S
C611 C617 1.429 . S
C612 C604 1.574 . S
C612 H607 0.949 . S
C612 C618 1.368 . S
C613 C597 1.349 . S
C613 H605 0.950 . S
C613 C611 1.327 . S
C614 C602 1.349 . S
C614 H608 0.950 . S
C614 C615 1.327 . S
C615 H609 0.950 . S
C615 C614 1.327 . S
C615 C619 1.429 . S
C616 C599 1.574 . S
C616 H610 0.949 . S
C616 C620 1.368 . S
C617 C598 1.429 . S
C617 C611 1.429 . S
C617 C618 1.523 . S
C618 C599 1.368 . S
C618 C612 1.368 . S
C618 C617 1.523 . S
C619 C603 1.429 . S
C619 C615 1.429 . S
C619 C620 1.523 . S
C620 C604 1.368 . S
C620 C616 1.368 . S
C620 C619 1.523 . S
H621 C596 0.950 . S
H622 C598 0.950 . S
H623 C599 0.949 . S
H624 C601 0.950 . S
H625 C603 0.950 . S
C626 C627 1.349 . S
C626 C628 1.327 . S
C626 H651 0.950 . S
C627 C626 1.349 . S
C627 C643 1.349 . S
C628 C626 1.327 . S
C628 C647 1.429 . S
C628 H652 0.950 . S
C629 C646 1.574 . S
C629 C648 1.368 . S
C629 H653 0.949 . S
H630 C634 0.949 . S
C631 C632 1.349 . S
C631 C633 1.327 . S
C631 H654 0.950 . S
C632 C631 1.349 . S
C632 C644 1.349 . S
C633 C631 1.327 . S
C633 C649 1.429 . S
C633 H655 0.950 . S
C634 H630 0.949 . S
C634 C642 1.574 . S
C634 C650 1.368 . S
H635 C643 0.950 . S
H636 C641 0.950 . S
H637 C642 0.949 . S
H638 C644 0.950 . S
H639 C645 0.950 . S
H640 C646 0.949 . S
C641 H636 0.950 . S
C641 C643 1.327 . S
C641 C647 1.429 . S
C642 C634 1.574 . S
C642 H637 0.949 . S
C642 C648 1.368 . S
C643 C627 1.349 . S
C643 H635 0.950 . S
C643 C641 1.327 . S
C644 C632 1.349 . S
C644 H638 0.950 . S
C644 C645 1.327 . S
C645 H639 0.950 . S
C645 C644 1.327 . S
C645 C649 1.429 . S
C646 C629 1.574 . S
C646 H640 0.949 . S
C646 C650 1.368 . S
C647 C628 1.429 . S
C647 C641 1.429 . S
C647 C648 1.523 . S
C648 C629 1.368 . S
C648 C642 1.368 . S
C648 C647 1.523 . S
C649 C633 1.429 . S
C649 C645 1.429 . S
C649 C650 1.523 . S
C650 C634 1.368 . S
C650 C646 1.368 . S
C650 C649 1.523 . S
H651 C626 0.950 . S
H652 C628 0.950 . S
H653 C629 0.949 . S
H654 C631 0.950 . S
H655 C633 0.950 . S
C656 C657 1.349 . S
C656 C658 1.327 . S
C656 H681 0.950 . S
C657 C656 1.349 . S
C657 C673 1.349 . S
C658 C656 1.327 . S
C658 C677 1.429 . S
C658 H682 0.950 . S
C659 C676 1.574 . S
C659 C678 1.368 . S
C659 H683 0.949 . S
H660 C664 0.949 . S
C661 C662 1.349 . S
C661 C663 1.327 . S
C661 H684 0.950 . S
C662 C661 1.349 . S
C662 C674 1.349 . S
C663 C661 1.327 . S
C663 C679 1.429 . S
C663 H685 0.950 . S
C664 H660 0.949 . S
C664 C672 1.574 . S
C664 C680 1.368 . S
H665 C673 0.950 . S
H666 C671 0.950 . S
H667 C672 0.949 . S
H668 C674 0.950 . S
H669 C675 0.950 . S
H670 C676 0.949 . S
C671 H666 0.950 . S
C671 C673 1.327 . S
C671 C677 1.429 . S
C672 C664 1.574 . S
C672 H667 0.949 . S
C672 C678 1.368 . S
C673 C657 1.349 . S
C673 H665 0.950 . S
C673 C671 1.327 . S
C674 C662 1.349 . S
C674 H668 0.950 . S
C674 C675 1.327 . S
C675 H669 0.950 . S
C675 C674 1.327 . S
C675 C679 1.429 . S
C676 C659 1.574 . S
C676 H670 0.949 . S
C676 C680 1.368 . S
C677 C658 1.429 . S
C677 C671 1.429 . S
C677 C678 1.523 . S
C678 C659 1.368 . S
C678 C672 1.368 . S
C678 C677 1.523 . S
C679 C663 1.429 . S
C679 C675 1.429 . S
C679 C680 1.523 . S
C680 C664 1.368 . S
C680 C676 1.368 . S
C680 C679 1.523 . S
H681 C656 0.950 . S
H682 C658 0.950 . S
H683 C659 0.949 . S
H684 C661 0.950 . S
H685 C663 0.950 . S
C686 C687 1.349 . S
C686 C688 1.327 . S
C686 H711 0.950 . S
C687 C686 1.349 . S
C687 C703 1.349 . S
C688 C686 1.327 . S
C688 C707 1.429 . S
C688 H712 0.950 . S
C689 C706 1.574 . S
C689 C708 1.368 . S
C689 H713 0.949 . S
H690 C694 0.949 . S
C691 C692 1.349 . S
C691 C693 1.327 . S
C691 H714 0.950 . S
C692 C691 1.349 . S
C692 C704 1.349 . S
C693 C691 1.327 . S
C693 C709 1.429 . S
C693 H715 0.950 . S
C694 H690 0.949 . S
C694 C702 1.574 . S
C694 C710 1.368 . S
H695 C703 0.950 . S
H696 C701 0.950 . S
H697 C702 0.949 . S
H698 C704 0.950 . S
H699 C705 0.950 . S
H700 C706 0.949 . S
C701 H696 0.950 . S
C701 C703 1.327 . S
C701 C707 1.429 . S
C702 C694 1.574 . S
C702 H697 0.949 . S
C702 C708 1.368 . S
C703 C687 1.349 . S
C703 H695 0.950 . S
C703 C701 1.327 . S
C704 C692 1.349 . S
C704 H698 0.950 . S
C704 C705 1.327 . S
C705 H699 0.950 . S
C705 C704 1.327 . S
C705 C709 1.429 . S
C706 C689 1.574 . S
C706 H700 0.949 . S
C706 C710 1.368 . S
C707 C688 1.429 . S
C707 C701 1.429 . S
C707 C708 1.523 . S
C708 C689 1.368 . S
C708 C702 1.368 . S
C708 C707 1.523 . S
C709 C693 1.429 . S
C709 C705 1.429 . S
C709 C710 1.523 . S
C710 C694 1.368 . S
C710 C706 1.368 . S
C710 C709 1.523 . S
H711 C686 0.950 . S
H712 C688 0.950 . S
H713 C689 0.949 . S
H714 C691 0.950 . S
H715 C693 0.950 . S
C716 C717 1.349 . S
C716 C718 1.327 . S
C716 H741 0.950 . S
C717 C716 1.349 . S
C717 C733 1.349 . S
C718 C716 1.327 . S
C718 C737 1.429 . S
C718 H742 0.950 . S
C719 C736 1.574 . S
C719 C738 1.368 . S
C719 H743 0.949 . S
H720 C724 0.949 . S
C721 C722 1.349 . S
C721 C723 1.327 . S
C721 H744 0.950 . S
C722 C721 1.349 . S
C722 C734 1.349 . S
C723 C721 1.327 . S
C723 C739 1.429 . S
C723 H745 0.950 . S
C724 H720 0.949 . S
C724 C732 1.574 . S
C724 C740 1.368 . S
H725 C733 0.950 . S
H726 C731 0.950 . S
H727 C732 0.949 . S
H728 C734 0.950 . S
H729 C735 0.950 . S
H730 C736 0.949 . S
C731 H726 0.950 . S
C731 C733 1.327 . S
C731 C737 1.429 . S
C732 C724 1.574 . S
C732 H727 0.949 . S
C732 C738 1.368 . S
C733 C717 1.349 . S
C733 H725 0.950 . S
C733 C731 1.327 . S
C734 C722 1.349 . S
C734 H728 0.950 . S
C734 C735 1.327 . S
C735 H729 0.950 . S
C735 C734 1.327 . S
C735 C739 1.429 . S
C736 C719 1.574 . S
C736 H730 0.949 . S
C736 C740 1.368 . S
C737 C718 1.429 . S
C737 C731 1.429 . S
C737 C738 1.523 . S
C738 C719 1.368 . S
C738 C732 1.368 . S
C738 C737 1.523 . S
C739 C723 1.429 . S
C739 C735 1.429 . S
C739 C740 1.523 . S
C740 C724 1.368 . S
C740 C736 1.368 . S
C740 C739 1.523 . S
H741 C716 0.950 . S
H742 C718 0.950 . S
H743 C719 0.949 . S
H744 C721 0.950 . S
H745 C723 0.950 . S
C746 C747 1.349 . S
C746 C748 1.327 . S
C746 H771 0.950 . S
C747 C746 1.349 . S
C747 C763 1.349 . S
C748 C746 1.327 . S
C748 C767 1.429 . S
C748 H772 0.950 . S
C749 C766 1.574 . S
C749 C768 1.368 . S
C749 H773 0.949 . S
H750 C754 0.949 . S
C751 C752 1.349 . S
C751 C753 1.327 . S
C751 H774 0.950 . S
C752 C751 1.349 . S
C752 C764 1.349 . S
C753 C751 1.327 . S
C753 C769 1.429 . S
C753 H775 0.950 . S
C754 H750 0.949 . S
C754 C762 1.574 . S
C754 C770 1.368 . S
H755 C763 0.950 . S
H756 C761 0.950 . S
H757 C762 0.949 . S
H758 C764 0.950 . S
H759 C765 0.950 . S
H760 C766 0.949 . S
C761 H756 0.950 . S
C761 C763 1.327 . S
C761 C767 1.429 . S
C762 C754 1.574 . S
C762 H757 0.949 . S
C762 C768 1.368 . S
C763 C747 1.349 . S
C763 H755 0.950 . S
C763 C761 1.327 . S
C764 C752 1.349 . S
C764 H758 0.950 . S
C764 C765 1.327 . S
C765 H759 0.950 . S
C765 C764 1.327 . S
C765 C769 1.429 . S
C766 C749 1.574 . S
C766 H760 0.949 . S
C766 C770 1.368 . S
C767 C748 1.429 . S
C767 C761 1.429 . S
C767 C768 1.523 . S
C768 C749 1.368 . S
C768 C762 1.368 . S
C768 C767 1.523 . S
C769 C753 1.429 . S
C769 C765 1.429 . S
C769 C770 1.523 . S
C770 C754 1.368 . S
C770 C766 1.368 . S
C770 C769 1.523 . S
H771 C746 0.950 . S
H772 C748 0.950 . S
H773 C749 0.949 . S
H774 C751 0.950 . S
H775 C753 0.950 . S
C776 C777 1.349 . S
C776 C778 1.327 . S
C776 H801 0.950 . S
C777 C776 1.349 . S
C777 C793 1.349 . S
C778 C776 1.327 . S
C778 C797 1.429 . S
C778 H802 0.950 . S
C779 C796 1.574 . S
C779 C798 1.368 . S
C779 H803 0.949 . S
H780 C784 0.949 . S
C781 C782 1.349 . S
C781 C783 1.327 . S
C781 H804 0.950 . S
C782 C781 1.349 . S
C782 C794 1.349 . S
C783 C781 1.327 . S
C783 C799 1.429 . S
C783 H805 0.950 . S
C784 H780 0.949 . S
C784 C792 1.574 . S
C784 C800 1.368 . S
H785 C793 0.950 . S
H786 C791 0.950 . S
H787 C792 0.949 . S
H788 C794 0.950 . S
H789 C795 0.950 . S
H790 C796 0.949 . S
C791 H786 0.950 . S
C791 C793 1.327 . S
C791 C797 1.429 . S
C792 C784 1.574 . S
C792 H787 0.949 . S
C792 C798 1.368 . S
C793 C777 1.349 . S
C793 H785 0.950 . S
C793 C791 1.327 . S
C794 C782 1.349 . S
C794 H788 0.950 . S
C794 C795 1.327 . S
C795 H789 0.950 . S
C795 C794 1.327 . S
C795 C799 1.429 . S
C796 C779 1.574 . S
C796 H790 0.949 . S
C796 C800 1.368 . S
C797 C778 1.429 . S
C797 C791 1.429 . S
C797 C798 1.523 . S
C798 C779 1.368 . S
C798 C792 1.368 . S
C798 C797 1.523 . S
C799 C783 1.429 . S
C799 C795 1.429 . S
C799 C800 1.523 . S
C800 C784 1.368 . S
C800 C796 1.368 . S
C800 C799 1.523 . S
H801 C776 0.950 . S
H802 C778 0.950 . S
H803 C779 0.949 . S
H804 C781 0.950 . S
H805 C783 0.950 . S
C806 C807 1.349 . S
C806 C808 1.327 . S
C806 H831 0.950 . S
C807 C806 1.349 . S
C807 C823 1.349 . S
C808 C806 1.327 . S
C808 C827 1.429 . S
C808 H832 0.950 . S
C809 C826 1.574 . S
C809 C828 1.368 . S
C809 H833 0.949 . S
H810 C814 0.949 . S
C811 C812 1.349 . S
C811 C813 1.327 . S
C811 H834 0.950 . S
C812 C811 1.349 . S
C812 C824 1.349 . S
C813 C811 1.327 . S
C813 C829 1.429 . S
C813 H835 0.950 . S
C814 H810 0.949 . S
C814 C822 1.574 . S
C814 C830 1.368 . S
H815 C823 0.950 . S
H816 C821 0.950 . S
H817 C822 0.949 . S
H818 C824 0.950 . S
H819 C825 0.950 . S
H820 C826 0.949 . S
C821 H816 0.950 . S
C821 C823 1.327 . S
C821 C827 1.429 . S
C822 C814 1.574 . S
C822 H817 0.949 . S
C822 C828 1.368 . S
C823 C807 1.349 . S
C823 H815 0.950 . S
C823 C821 1.327 . S
C824 C812 1.349 . S
C824 H818 0.950 . S
C824 C825 1.327 . S
C825 H819 0.950 . S
C825 C824 1.327 . S
C825 C829 1.429 . S
C826 C809 1.574 . S
C826 H820 0.949 . S
C826 C830 1.368 . S
C827 C808 1.429 . S
C827 C821 1.429 . S
C827 C828 1.523 . S
C828 C809 1.368 . S
C828 C822 1.368 . S
C828 C827 1.523 . S
C829 C813 1.429 . S
C829 C825 1.429 . S
C829 C830 1.523 . S
C830 C814 1.368 . S
C830 C826 1.368 . S
C830 C829 1.523 . S
H831 C806 0.950 . S
H832 C808 0.950 . S
H833 C809 0.949 . S
H834 C811 0.950 . S
H835 C813 0.950 . S
C836 C837 1.349 . S
C836 C838 1.327 . S
C836 H861 0.950 . S
C837 C836 1.349 . S
C837 C853 1.349 . S
C838 C836 1.327 . S
C838 C857 1.429 . S
C838 H862 0.950 . S
C839 C856 1.574 . S
C839 C858 1.368 . S
C839 H863 0.949 . S
H840 C844 0.949 . S
C841 C842 1.349 . S
C841 C843 1.327 . S
C841 H864 0.950 . S
C842 C841 1.349 . S
C842 C854 1.349 . S
C843 C841 1.327 . S
C843 C859 1.429 . S
C843 H865 0.950 . S
C844 H840 0.949 . S
C844 C852 1.574 . S
C844 C860 1.368 . S
H845 C853 0.950 . S
H846 C851 0.950 . S
H847 C852 0.949 . S
H848 C854 0.950 . S
H849 C855 0.950 . S
H850 C856 0.949 . S
C851 H846 0.950 . S
C851 C853 1.327 . S
C851 C857 1.429 . S
C852 C844 1.574 . S
C852 H847 0.949 . S
C852 C858 1.368 . S
C853 C837 1.349 . S
C853 H845 0.950 . S
C853 C851 1.327 . S
C854 C842 1.349 . S
C854 H848 0.950 . S
C854 C855 1.327 . S
C855 H849 0.950 . S
C855 C854 1.327 . S
C855 C859 1.429 . S
C856 C839 1.574 . S
C856 H850 0.949 . S
C856 C860 1.368 . S
C857 C838 1.429 . S
C857 C851 1.429 . S
C857 C858 1.523 . S
C858 C839 1.368 . S
C858 C852 1.368 . S
C858 C857 1.523 . S
C859 C843 1.429 . S
C859 C855 1.429 . S
C859 C860 1.523 . S
C860 C844 1.368 . S
C860 C856 1.368 . S
C860 C859 1.523 . S
H861 C836 0.950 . S
H862 C838 0.950 . S
H863 C839 0.949 . S
H864 C841 0.950 . S
H865 C843 0.950 . S
C866 C867 1.349 . S
C866 C868 1.327 . S
C866 H891 0.950 . S
C867 C866 1.349 . S
C867 C883 1.349 . S
C868 C866 1.327 . S
C868 C887 1.429 . S
C868 H892 0.950 . S
C869 C886 1.574 . S
C869 C888 1.368 . S
C869 H893 0.949 . S
H870 C874 0.949 . S
C871 C872 1.349 . S
C871 C873 1.327 . S
C871 H894 0.950 . S
C872 C871 1.349 . S
C872 C884 1.349 . S
C873 C871 1.327 . S
C873 C889 1.429 . S
C873 H895 0.950 . S
C874 H870 0.949 . S
C874 C882 1.574 . S
C874 C890 1.368 . S
H875 C883 0.950 . S
H876 C881 0.950 . S
H877 C882 0.949 . S
H878 C884 0.950 . S
H879 C885 0.950 . S
H880 C886 0.949 . S
C881 H876 0.950 . S
C881 C883 1.327 . S
C881 C887 1.429 . S
C882 C874 1.574 . S
C882 H877 0.949 . S
C882 C888 1.368 . S
C883 C867 1.349 . S
C883 H875 0.950 . S
C883 C881 1.327 . S
C884 C872 1.349 . S
C884 H878 0.950 . S
C884 C885 1.327 . S
C885 H879 0.950 . S
C885 C884 1.327 . S
C885 C889 1.429 . S
C886 C869 1.574 . S
C886 H880 0.949 . S
C886 C890 1.368 . S
C887 C868 1.429 . S
C887 C881 1.429 . S
C887 C888 1.523 . S
C888 C869 1.368 . S
C888 C882 1.368 . S
C888 C887 1.523 . S
C889 C873 1.429 . S
C889 C885 1.429 . S
C889 C890 1.523 . S
C890 C874 1.368 . S
C890 C886 1.368 . S
C890 C889 1.523 . S
H891 C866 0.950 . S
H892 C868 0.950 . S
H893 C869 0.949 . S
H894 C871 0.950 . S
H895 C873 0.950 . S
C896 C897 1.349 . S
C896 C898 1.327 . S
C896 H921 0.950 . S
C897 C896 1.349 . S
C897 C913 1.349 . S
C898 C896 1.327 . S
C898 C917 1.429 . S
C898 H922 0.950 . S
C899 C916 1.574 . S
C899 C918 1.368 1_655 S
C899 H923 0.949 . S
H900 C904 0.949 . S
C901 C902 1.349 . S
C901 C903 1.327 . S
C901 H924 0.950 . S
C902 C901 1.349 . S
C902 C914 1.349 . S
C903 C901 1.327 . S
C903 C919 1.429 . S
C903 H925 0.950 . S
C904 H900 0.949 . S
C904 C912 1.574 . S
C904 C920 1.368 1_455 S
H905 C913 0.950 . S
H906 C911 0.950 . S
H907 C912 0.949 . S
H908 C914 0.950 . S
H909 C915 0.950 . S
H910 C916 0.949 . S
C911 H906 0.950 . S
C911 C913 1.327 . S
C911 C917 1.429 . S
C912 C904 1.574 . S
C912 H907 0.949 . S
C912 C918 1.368 . S
C913 C897 1.349 . S
C913 H905 0.950 . S
C913 C911 1.327 . S
C914 C902 1.349 . S
C914 H908 0.950 . S
C914 C915 1.327 . S
C915 H909 0.950 . S
C915 C914 1.327 . S
C915 C919 1.429 . S
C916 C899 1.574 . S
C916 H910 0.949 . S
C916 C920 1.368 . S
C917 C898 1.429 . S
C917 C911 1.429 . S
C917 C918 1.523 . S
C918 C899 1.368 1_455 S
C918 C912 1.368 . S
C918 C917 1.523 . S
C919 C903 1.429 . S
C919 C915 1.429 . S
C919 C920 1.523 . S
C920 C904 1.368 1_655 S
C920 C916 1.368 . S
C920 C919 1.523 . S
H921 C896 0.950 . S
H922 C898 0.950 . S
H923 C899 0.949 . S
H924 C901 0.950 . S
H925 C903 0.950 . S
C926 C927 1.349 . S
C926 C928 1.327 . S
C926 H951 0.950 . S
C927 C926 1.349 . S
C927 C943 1.349 . S
C928 C926 1.327 . S
C928 C947 1.429 . S
C928 H952 0.950 1_545 S
C929 C946 1.574 . S
C929 C948 1.368 . S
C929 H953 0.949 . S
H930 C934 0.949 . S
C931 C932 1.349 . S
C931 C933 1.327 . S
C931 H954 0.950 . S
C932 C931 1.349 . S
C932 C944 1.349 . S
C933 C931 1.327 . S
C933 C949 1.429 . S
C933 H955 0.950 1_565 S
C934 H930 0.949 . S
C934 C942 1.574 . S
C934 C950 1.368 . S
H935 C943 0.950 . S
H936 C941 0.950 . S
H937 C942 0.949 . S
H938 C944 0.950 . S
H939 C945 0.950 . S
H940 C946 0.949 . S
C941 H936 0.950 . S
C941 C943 1.327 . S
C941 C947 1.429 . S
C942 C934 1.574 . S
C942 H937 0.949 . S
C942 C948 1.368 1_565 S
C943 C927 1.349 . S
C943 H935 0.950 . S
C943 C941 1.327 . S
C944 C932 1.349 . S
C944 H938 0.950 . S
C944 C945 1.327 . S
C945 H939 0.950 . S
C945 C944 1.327 . S
C945 C949 1.429 . S
C946 C929 1.574 . S
C946 H940 0.949 . S
C946 C950 1.368 1_545 S
C947 C928 1.429 . S
C947 C941 1.429 . S
C947 C948 1.523 . S
C948 C929 1.368 . S
C948 C942 1.368 1_545 S
C948 C947 1.523 . S
C949 C933 1.429 . S
C949 C945 1.429 . S
C949 C950 1.523 . S
C950 C934 1.368 . S
C950 C946 1.368 1_565 S
C950 C949 1.523 . S
H951 C926 0.950 . S
H952 C928 0.950 1_565 S
H953 C929 0.949 . S
H954 C931 0.950 . S
H955 C933 0.950 1_545 S
C956 C957 1.349 . S
C956 C958 1.327 . S
C956 H981 0.950 . S
C957 C956 1.349 . S
C957 C973 1.349 . S
C958 C956 1.327 . S
C958 C977 1.429 . S
C958 H982 0.950 . S
C959 C976 1.571 1_456 S
C959 C978 1.368 1_565 S
C959 H983 0.949 . S
H960 C964 0.949 . S
C961 C962 1.349 . S
C961 C963 1.327 . S
C961 H984 0.950 . S
C962 C961 1.349 . S
C962 C974 1.349 . S
C963 C961 1.327 . S
C963 C979 1.429 . S
C963 H985 0.950 . S
C964 H960 0.949 . S
C964 C972 1.571 1_654 S
C964 C980 1.368 1_545 S
H965 C973 0.950 . S
H966 C971 0.950 1_565 S
H967 C972 0.949 . S
H968 C974 0.950 . S
H969 C975 0.950 1_545 S
H970 C976 0.949 . S
C971 H966 0.950 1_545 S
C971 C973 1.327 . S
C971 C977 1.429 . S
C972 C964 1.571 1_456 S
C972 H967 0.949 . S
C972 C978 1.371 . S
C973 C957 1.349 . S
C973 H965 0.950 . S
C973 C971 1.327 . S
C974 C962 1.349 . S
C974 H968 0.950 . S
C974 C975 1.327 . S
C975 H969 0.950 1_565 S
C975 C974 1.327 . S
C975 C979 1.429 . S
C976 C959 1.571 1_654 S
C976 H970 0.949 . S
C976 C980 1.371 . S
C977 C958 1.429 . S
C977 C971 1.429 . S
C977 C978 1.523 . S
C978 C959 1.368 1_545 S
C978 C972 1.371 . S
C978 C977 1.523 . S
C979 C963 1.429 . S
C979 C975 1.429 . S
C979 C980 1.523 . S
C980 C964 1.368 1_565 S
C980 C976 1.371 . S
C980 C979 1.523 . S
H981 C956 0.950 . S
H982 C958 0.950 . S
H983 C959 0.949 . S
H984 C961 0.950 . S
H985 C963 0.950 . S
C986 C987 1.349 . S
C986 C988 1.327 . S
C986 H1011 0.950 . S
C987 C986 1.349 . S
C987 C1003 1.349 . S
C988 C986 1.327 . S
C988 C1007 1.429 . S
C988 H1012 0.950 . S
C989 C1006 1.574 1_556 S
C989 C1008 1.368 . S
C989 H1013 0.949 . S
H990 C994 0.949 . S
C991 C992 1.349 . S
C991 C993 1.327 . S
C991 H1014 0.950 . S
C992 C991 1.349 . S
C992 C1004 1.349 . S
C993 C991 1.327 . S
C993 C1009 1.429 . S
C993 H1015 0.950 . S
C994 H990 0.949 . S
C994 C1002 1.574 1_554 S
C994 C1010 1.368 . S
H995 C1003 0.950 . S
H996 C1001 0.950 . S
H997 C1002 0.949 . S
H998 C1004 0.950 . S
H999 C1005 0.950 . S
H1000 C1006 0.949 . S
C1001 H996 0.950 . S
C1001 C1003 1.327 . S
C1001 C1007 1.429 . S
C1002 C994 1.574 1_556 S
C1002 H997 0.949 . S
C1002 C1008 1.368 . S
C1003 C987 1.349 . S
C1003 H995 0.950 . S
C1003 C1001 1.327 . S
C1004 C992 1.349 . S
C1004 H998 0.950 . S
C1004 C1005 1.327 . S
C1005 H999 0.950 . S
C1005 C1004 1.327 . S
C1005 C1009 1.429 . S
C1006 C989 1.574 1_554 S
C1006 H1000 0.949 . S
C1006 C1010 1.368 . S
C1007 C988 1.429 . S
C1007 C1001 1.429 . S
C1007 C1008 1.523 . S
C1008 C989 1.368 . S
C1008 C1002 1.368 . S
C1008 C1007 1.523 . S
C1009 C993 1.429 . S
C1009 C1005 1.429 . S
C1009 C1010 1.523 . S
C1010 C994 1.368 . S
C1010 C1006 1.368 . S
C1010 C1009 1.523 . S
H1011 C986 0.950 . S
H1012 C988 0.950 . S
H1013 C989 0.949 . S
H1014 C991 0.950 . S
H1015 C993 0.950 . S
C1016 C1017 1.349 . S
C1016 C1018 1.327 . S
C1016 H1041 0.950 . S
C1017 C1016 1.349 . S
C1017 C1033 1.349 . S
C1018 C1016 1.327 . S
C1018 C1037 1.429 . S
C1018 H1042 0.950 . S
C1019 C1036 1.574 . S
C1019 C1038 1.368 1_455 S
C1019 H1043 0.949 . S
H1020 C1024 0.949 . S
C1021 C1022 1.349 . S
C1021 C1023 1.327 . S
C1021 H1044 0.950 . S
C1022 C1021 1.349 . S
C1022 C1034 1.349 . S
C1023 C1021 1.327 . S
C1023 C1039 1.429 . S
C1023 H1045 0.950 . S
C1024 H1020 0.949 . S
C1024 C1032 1.574 . S
C1024 C1040 1.368 1_655 S
H1025 C1033 0.950 . S
H1026 C1031 0.950 . S
H1027 C1032 0.949 . S
H1028 C1034 0.950 . S
H1029 C1035 0.950 . S
H1030 C1036 0.949 . S
C1031 H1026 0.950 . S
C1031 C1033 1.327 . S
C1031 C1037 1.429 . S
C1032 C1024 1.574 . S
C1032 H1027 0.949 . S
C1032 C1038 1.368 . S
C1033 C1017 1.349 . S
C1033 H1025 0.950 . S
C1033 C1031 1.327 . S
C1034 C1022 1.349 . S
C1034 H1028 0.950 . S
C1034 C1035 1.327 . S
C1035 H1029 0.950 . S
C1035 C1034 1.327 . S
C1035 C1039 1.429 . S
C1036 C1019 1.574 . S
C1036 H1030 0.949 . S
C1036 C1040 1.368 . S
C1037 C1018 1.429 . S
C1037 C1031 1.429 . S
C1037 C1038 1.523 . S
C1038 C1019 1.368 1_655 S
C1038 C1032 1.368 . S
C1038 C1037 1.523 . S
C1039 C1023 1.429 . S
C1039 C1035 1.429 . S
C1039 C1040 1.523 . S
C1040 C1024 1.368 1_455 S
C1040 C1036 1.368 . S
C1040 C1039 1.523 . S
H1041 C1016 0.950 . S
H1042 C1018 0.950 . S
H1043 C1019 0.949 . S
H1044 C1021 0.950 . S
H1045 C1023 0.950 . S
C1046 C1047 1.349 . S
C1046 C1048 1.327 . S
C1046 H1071 0.950 . S
C1047 C1046 1.349 . S
C1047 C1063 1.349 . S
C1048 C1046 1.327 . S
C1048 C1067 1.429 . S
C1048 H1072 0.950 . S
C1049 C1066 1.574 . S
C1049 C1068 1.368 1_565 S
C1049 H1073 0.949 . S
H1050 C1054 0.949 . S
C1051 C1052 1.349 . S
C1051 C1053 1.327 . S
C1051 H1074 0.950 . S
C1052 C1051 1.349 . S
C1052 C1064 1.349 . S
C1053 C1051 1.327 . S
C1053 C1069 1.429 . S
C1053 H1075 0.950 . S
C1054 H1050 0.949 . S
C1054 C1062 1.574 . S
C1054 C1070 1.368 1_545 S
H1055 C1063 0.950 . S
H1056 C1061 0.950 1_565 S
H1057 C1062 0.949 . S
H1058 C1064 0.950 . S
H1059 C1065 0.950 1_545 S
H1060 C1066 0.949 . S
C1061 H1056 0.950 1_545 S
C1061 C1063 1.327 . S
C1061 C1067 1.429 . S
C1062 C1054 1.574 . S
C1062 H1057 0.949 . S
C1062 C1068 1.368 . S
C1063 C1047 1.349 . S
C1063 H1055 0.950 . S
C1063 C1061 1.327 . S
C1064 C1052 1.349 . S
C1064 H1058 0.950 . S
C1064 C1065 1.327 . S
C1065 H1059 0.950 1_565 S
C1065 C1064 1.327 . S
C1065 C1069 1.429 . S
C1066 C1049 1.574 . S
C1066 H1060 0.949 . S
C1066 C1070 1.368 . S
C1067 C1048 1.429 . S
C1067 C1061 1.429 . S
C1067 C1068 1.523 . S
C1068 C1049 1.368 1_545 S
C1068 C1062 1.368 . S
C1068 C1067 1.523 . S
C1069 C1053 1.429 . S
C1069 C1065 1.429 . S
C1069 C1070 1.523 . S
C1070 C1054 1.368 1_565 S
C1070 C1066 1.368 . S
C1070 C1069 1.523 . S
H1071 C1046 0.950 . S
H1072 C1048 0.950 . S
H1073 C1049 0.949 . S
H1074 C1051 0.950 . S
H1075 C1053 0.950 . S
C1076 C1077 1.349 . S
C1076 C1078 1.327 . S
C1076 H1101 0.950 . S
C1077 C1076 1.349 . S
C1077 C1093 1.349 . S
C1078 C1076 1.327 . S
C1078 C1097 1.429 . S
C1078 H1102 0.950 . S
C1079 C1096 1.574 1_556 S
C1079 C1098 1.368 . S
C1079 H1103 0.949 . S
H1080 C1084 0.949 . S
C1081 C1082 1.349 . S
C1081 C1083 1.327 . S
C1081 H1104 0.950 . S
C1082 C1081 1.349 . S
C1082 C1094 1.349 . S
C1083 C1081 1.327 . S
C1083 C1099 1.429 . S
C1083 H1105 0.950 . S
C1084 H1080 0.949 . S
C1084 C1092 1.574 1_554 S
C1084 C1100 1.368 . S
H1085 C1093 0.950 . S
H1086 C1091 0.950 . S
H1087 C1092 0.949 . S
H1088 C1094 0.950 . S
H1089 C1095 0.950 . S
H1090 C1096 0.949 . S
C1091 H1086 0.950 . S
C1091 C1093 1.327 . S
C1091 C1097 1.429 . S
C1092 C1084 1.574 1_556 S
C1092 H1087 0.949 . S
C1092 C1098 1.368 . S
C1093 C1077 1.349 . S
C1093 H1085 0.950 . S
C1093 C1091 1.327 . S
C1094 C1082 1.349 . S
C1094 H1088 0.950 . S
C1094 C1095 1.327 . S
C1095 H1089 0.950 . S
C1095 C1094 1.327 . S
C1095 C1099 1.429 . S
C1096 C1079 1.574 1_554 S
C1096 H1090 0.949 . S
C1096 C1100 1.368 . S
C1097 C1078 1.429 . S
C1097 C1091 1.429 . S
C1097 C1098 1.523 . S
C1098 C1079 1.368 . S
C1098 C1092 1.368 . S
C1098 C1097 1.523 . S
C1099 C1083 1.429 . S
C1099 C1095 1.429 . S
C1099 C1100 1.523 . S
C1100 C1084 1.368 . S
C1100 C1096 1.368 . S
C1100 C1099 1.523 . S
H1101 C1076 0.950 . S
H1102 C1078 0.950 . S
H1103 C1079 0.949 . S
H1104 C1081 0.950 . S
H1105 C1083 0.950 . S
C1106 C1107 1.349 . S
C1106 C1108 1.327 . S
C1106 H1131 0.950 . S
C1107 C1106 1.349 . S
C1107 C1123 1.349 . S
C1108 C1106 1.327 . S
C1108 C1127 1.429 . S
C1108 H1132 0.950 . S
C1109 C1126 1.574 . S
C1109 C1128 1.368 . S
C1109 H1133 0.949 . S
H1110 C1114 0.949 . S
C1111 C1112 1.349 . S
C1111 C1113 1.327 . S
C1111 H1134 0.950 . S
C1112 C1111 1.349 . S
C1112 C1124 1.349 . S
C1113 C1111 1.327 . S
C1113 C1129 1.429 . S
C1113 H1135 0.950 . S
C1114 H1110 0.949 . S
C1114 C1122 1.574 . S
C1114 C1130 1.368 . S
H1115 C1123 0.950 . S
H1116 C1121 0.950 . S
H1117 C1122 0.949 . S
H1118 C1124 0.950 . S
H1119 C1125 0.950 . S
H1120 C1126 0.949 . S
C1121 H1116 0.950 . S
C1121 C1123 1.327 . S
C1121 C1127 1.429 . S
C1122 C1114 1.574 . S
C1122 H1117 0.949 . S
C1122 C1128 1.368 . S
C1123 C1107 1.349 . S
C1123 H1115 0.950 . S
C1123 C1121 1.327 . S
C1124 C1112 1.349 . S
C1124 H1118 0.950 . S
C1124 C1125 1.327 . S
C1125 H1119 0.950 . S
C1125 C1124 1.327 . S
C1125 C1129 1.429 . S
C1126 C1109 1.574 . S
C1126 H1120 0.949 . S
C1126 C1130 1.368 . S
C1127 C1108 1.429 . S
C1127 C1121 1.429 . S
C1127 C1128 1.523 . S
C1128 C1109 1.368 . S
C1128 C1122 1.368 . S
C1128 C1127 1.523 . S
C1129 C1113 1.429 . S
C1129 C1125 1.429 . S
C1129 C1130 1.523 . S
C1130 C1114 1.368 . S
C1130 C1126 1.368 . S
C1130 C1129 1.523 . S
H1131 C1106 0.950 . S
H1132 C1108 0.950 . S
H1133 C1109 0.949 . S
H1134 C1111 0.950 . S
H1135 C1113 0.950 . S
C1136 C1137 1.349 . S
C1136 C1138 1.327 . S
C1136 H1161 0.950 . S
C1137 C1136 1.349 . S
C1137 C1153 1.349 . S
C1138 C1136 1.327 . S
C1138 C1157 1.429 . S
C1138 H1162 0.950 . S
C1139 C1156 1.574 . S
C1139 C1158 1.368 . S
C1139 H1163 0.949 . S
H1140 C1144 0.949 . S
C1141 C1142 1.349 . S
C1141 C1143 1.327 . S
C1141 H1164 0.950 . S
C1142 C1141 1.349 . S
C1142 C1154 1.349 . S
C1143 C1141 1.327 . S
C1143 C1159 1.429 . S
C1143 H1165 0.950 . S
C1144 H1140 0.949 . S
C1144 C1152 1.574 . S
C1144 C1160 1.368 . S
H1145 C1153 0.950 . S
H1146 C1151 0.950 . S
H1147 C1152 0.949 . S
H1148 C1154 0.950 . S
H1149 C1155 0.950 . S
H1150 C1156 0.949 . S
C1151 H1146 0.950 . S
C1151 C1153 1.327 . S
C1151 C1157 1.429 . S
C1152 C1144 1.574 . S
C1152 H1147 0.949 . S
C1152 C1158 1.368 1_655 S
C1153 C1137 1.349 . S
C1153 H1145 0.950 . S
C1153 C1151 1.327 . S
C1154 C1142 1.349 . S
C1154 H1148 0.950 . S
C1154 C1155 1.327 . S
C1155 H1149 0.950 . S
C1155 C1154 1.327 . S
C1155 C1159 1.429 . S
C1156 C1139 1.574 . S
C1156 H1150 0.949 . S
C1156 C1160 1.368 1_455 S
C1157 C1138 1.429 . S
C1157 C1151 1.429 . S
C1157 C1158 1.523 . S
C1158 C1139 1.368 . S
C1158 C1152 1.368 1_455 S
C1158 C1157 1.523 . S
C1159 C1143 1.429 . S
C1159 C1155 1.429 . S
C1159 C1160 1.523 . S
C1160 C1144 1.368 . S
C1160 C1156 1.368 1_655 S
C1160 C1159 1.523 . S
H1161 C1136 0.950 . S
H1162 C1138 0.950 . S
H1163 C1139 0.949 . S
H1164 C1141 0.950 . S
H1165 C1143 0.950 . S
C1166 C1167 1.349 . S
C1166 C1168 1.327 . S
C1166 H1191 0.950 . S
C1167 C1166 1.349 . S
C1167 C1183 1.349 . S
C1168 C1166 1.327 . S
C1168 C1187 1.429 . S
C1168 H1192 0.950 . S
C1169 C1186 1.574 . S
C1169 C1188 1.368 . S
C1169 H1193 0.949 . S
H1170 C1174 0.949 . S
C1171 C1172 1.349 . S
C1171 C1173 1.327 . S
C1171 H1194 0.950 . S
C1172 C1171 1.349 . S
C1172 C1184 1.349 . S
C1173 C1171 1.327 . S
C1173 C1189 1.429 . S
C1173 H1195 0.950 . S
C1174 H1170 0.949 . S
C1174 C1182 1.574 . S
C1174 C1190 1.368 . S
H1175 C1183 0.950 . S
H1176 C1181 0.950 . S
H1177 C1182 0.949 . S
H1178 C1184 0.950 . S
H1179 C1185 0.950 . S
H1180 C1186 0.949 . S
C1181 H1176 0.950 . S
C1181 C1183 1.327 . S
C1181 C1187 1.429 . S
C1182 C1174 1.574 . S
C1182 H1177 0.949 . S
C1182 C1188 1.368 . S
C1183 C1167 1.349 . S
C1183 H1175 0.950 . S
C1183 C1181 1.327 . S
C1184 C1172 1.349 . S
C1184 H1178 0.950 . S
C1184 C1185 1.327 . S
C1185 H1179 0.950 . S
C1185 C1184 1.327 . S
C1185 C1189 1.429 . S
C1186 C1169 1.574 . S
C1186 H1180 0.949 . S
C1186 C1190 1.368 . S
C1187 C1168 1.429 . S
C1187 C1181 1.429 . S
C1187 C1188 1.523 . S
C1188 C1169 1.368 . S
C1188 C1182 1.368 . S
C1188 C1187 1.523 . S
C1189 C1173 1.429 . S
C1189 C1185 1.429 . S
C1189 C1190 1.523 . S
C1190 C1174 1.368 . S
C1190 C1186 1.368 . S
C1190 C1189 1.523 . S
H1191 C1166 0.950 . S
H1192 C1168 0.950 . S
H1193 C1169 0.949 . S
H1194 C1171 0.950 . S
H1195 C1173 0.950 . S
C1196 C1197 1.349 . S
C1196 C1198 1.327 . S
C1196 H1221 0.950 . S
C1197 C1196 1.349 . S
C1197 C1213 1.349 . S
C1198 C1196 1.327 . S
C1198 C1217 1.429 . S
C1198 H1222 0.950 . S
C1199 C1216 1.574 . S
C1199 C1218 1.368 . S
C1199 H1223 0.949 . S
H1200 C1204 0.949 . S
C1201 C1202 1.349 . S
C1201 C1203 1.327 . S
C1201 H1224 0.950 . S
C1202 C1201 1.349 . S
C1202 C1214 1.349 . S
C1203 C1201 1.327 . S
C1203 C1219 1.429 . S
C1203 H1225 0.950 . S
C1204 H1200 0.949 . S
C1204 C1212 1.574 . S
C1204 C1220 1.368 . S
H1205 C1213 0.950 . S
H1206 C1211 0.950 . S
H1207 C1212 0.949 . S
H1208 C1214 0.950 . S
H1209 C1215 0.950 . S
H1210 C1216 0.949 . S
C1211 H1206 0.950 . S
C1211 C1213 1.327 . S
C1211 C1217 1.429 . S
C1212 C1204 1.574 . S
C1212 H1207 0.949 . S
C1212 C1218 1.368 . S
C1213 C1197 1.349 . S
C1213 H1205 0.950 . S
C1213 C1211 1.327 . S
C1214 C1202 1.349 . S
C1214 H1208 0.950 . S
C1214 C1215 1.327 . S
C1215 H1209 0.950 . S
C1215 C1214 1.327 . S
C1215 C1219 1.429 . S
C1216 C1199 1.574 . S
C1216 H1210 0.949 . S
C1216 C1220 1.368 . S
C1217 C1198 1.429 . S
C1217 C1211 1.429 . S
C1217 C1218 1.523 . S
C1218 C1199 1.368 . S
C1218 C1212 1.368 . S
C1218 C1217 1.523 . S
C1219 C1203 1.429 . S
C1219 C1215 1.429 . S
C1219 C1220 1.523 . S
C1220 C1204 1.368 . S
C1220 C1216 1.368 . S
C1220 C1219 1.523 . S
H1221 C1196 0.950 . S
H1222 C1198 0.950 . S
H1223 C1199 0.949 . S
H1224 C1201 0.950 . S
H1225 C1203 0.950 . S
C1226 C1227 1.349 . S
C1226 C1228 1.327 . S
C1226 H1251 0.950 . S
C1227 C1226 1.349 . S
C1227 C1243 1.349 . S
C1228 C1226 1.327 . S
C1228 C1247 1.429 . S
C1228 H1252 0.950 . S
C1229 C1246 1.574 . S
C1229 C1248 1.368 . S
C1229 H1253 0.949 . S
H1230 C1234 0.949 . S
C1231 C1232 1.349 . S
C1231 C1233 1.327 . S
C1231 H1254 0.950 . S
C1232 C1231 1.349 . S
C1232 C1244 1.349 . S
C1233 C1231 1.327 . S
C1233 C1249 1.429 . S
C1233 H1255 0.950 . S
C1234 H1230 0.949 . S
C1234 C1242 1.574 . S
C1234 C1250 1.368 . S
H1235 C1243 0.950 . S
H1236 C1241 0.950 . S
H1237 C1242 0.949 . S
H1238 C1244 0.950 . S
H1239 C1245 0.950 . S
H1240 C1246 0.949 . S
C1241 H1236 0.950 . S
C1241 C1243 1.327 . S
C1241 C1247 1.429 . S
C1242 C1234 1.574 . S
C1242 H1237 0.949 . S
C1242 C1248 1.368 . S
C1243 C1227 1.349 . S
C1243 H1235 0.950 . S
C1243 C1241 1.327 . S
C1244 C1232 1.349 . S
C1244 H1238 0.950 . S
C1244 C1245 1.327 . S
C1245 H1239 0.950 . S
C1245 C1244 1.327 . S
C1245 C1249 1.429 . S
C1246 C1229 1.574 . S
C1246 H1240 0.949 . S
C1246 C1250 1.368 . S
C1247 C1228 1.429 . S
C1247 C1241 1.429 . S
C1247 C1248 1.523 . S
C1248 C1229 1.368 . S
C1248 C1242 1.368 . S
C1248 C1247 1.523 . S
C1249 C1233 1.429 . S
C1249 C1245 1.429 . S
C1249 C1250 1.523 . S
C1250 C1234 1.368 . S
C1250 C1246 1.368 . S
C1250 C1249 1.523 . S
H1251 C1226 0.950 . S
H1252 C1228 0.950 . S
H1253 C1229 0.949 . S
H1254 C1231 0.950 . S
H1255 C1233 0.950 . S
C1256 C1257 1.349 . S
C1256 C1258 1.327 . S
C1256 H1281 0.950 . S
C1257 C1256 1.349 . S
C1257 C1273 1.349 . S
C1258 C1256 1.327 . S
C1258 C1277 1.429 . S
C1258 H1282 0.950 . S
C1259 C1276 1.574 . S
C1259 C1278 1.368 . S
C1259 H1283 0.949 . S
H1260 C1264 0.949 . S
C1261 C1262 1.349 . S
C1261 C1263 1.327 . S
C1261 H1284 0.950 . S
C1262 C1261 1.349 . S
C1262 C1274 1.349 . S
C1263 C1261 1.327 . S
C1263 C1279 1.429 . S
C1263 H1285 0.950 . S
C1264 H1260 0.949 . S
C1264 C1272 1.574 . S
C1264 C1280 1.368 . S
H1265 C1273 0.950 . S
H1266 C1271 0.950 . S
H1267 C1272 0.949 . S
H1268 C1274 0.950 . S
H1269 C1275 0.950 . S
H1270 C1276 0.949 . S
C1271 H1266 0.950 . S
C1271 C1273 1.327 . S
C1271 C1277 1.429 . S
C1272 C1264 1.574 . S
C1272 H1267 0.949 . S
C1272 C1278 1.368 . S
C1273 C1257 1.349 . S
C1273 H1265 0.950 . S
C1273 C1271 1.327 . S
C1274 C1262 1.349 . S
C1274 H1268 0.950 . S
C1274 C1275 1.327 . S
C1275 H1269 0.950 . S
C1275 C1274 1.327 . S
C1275 C1279 1.429 . S
C1276 C1259 1.574 . S
C1276 H1270 0.949 . S
C1276 C1280 1.368 . S
C1277 C1258 1.429 . S
C1277 C1271 1.429 . S
C1277 C1278 1.523 . S
C1278 C1259 1.368 . S
C1278 C1272 1.368 . S
C1278 C1277 1.523 . S
C1279 C1263 1.429 . S
C1279 C1275 1.429 . S
C1279 C1280 1.523 . S
C1280 C1264 1.368 . S
C1280 C1276 1.368 . S
C1280 C1279 1.523 . S
H1281 C1256 0.950 . S
H1282 C1258 0.950 . S
H1283 C1259 0.949 . S
H1284 C1261 0.950 . S
H1285 C1263 0.950 . S
C1286 C1287 1.349 . S
C1286 C1288 1.327 . S
C1286 H1311 0.950 . S
C1287 C1286 1.349 . S
C1287 C1303 1.349 . S
C1288 C1286 1.327 . S
C1288 C1307 1.429 . S
C1288 H1312 0.950 1_565 S
C1289 C1306 1.574 . S
C1289 C1308 1.368 . S
C1289 H1313 0.949 . S
H1290 C1294 0.949 . S
C1291 C1292 1.349 . S
C1291 C1293 1.327 . S
C1291 H1314 0.950 . S
C1292 C1291 1.349 . S
C1292 C1304 1.349 . S
C1293 C1291 1.327 . S
C1293 C1309 1.429 . S
C1293 H1315 0.950 1_545 S
C1294 H1290 0.949 . S
C1294 C1302 1.574 . S
C1294 C1310 1.368 . S
H1295 C1303 0.950 . S
H1296 C1301 0.950 . S
H1297 C1302 0.949 . S
H1298 C1304 0.950 . S
H1299 C1305 0.950 . S
H1300 C1306 0.949 . S
C1301 H1296 0.950 . S
C1301 C1303 1.327 . S
C1301 C1307 1.429 . S
C1302 C1294 1.574 . S
C1302 H1297 0.949 . S
C1302 C1308 1.368 1_545 S
C1303 C1287 1.349 . S
C1303 H1295 0.950 . S
C1303 C1301 1.327 . S
C1304 C1292 1.349 . S
C1304 H1298 0.950 . S
C1304 C1305 1.327 . S
C1305 H1299 0.950 . S
C1305 C1304 1.327 . S
C1305 C1309 1.429 . S
C1306 C1289 1.574 . S
C1306 H1300 0.949 . S
C1306 C1310 1.368 1_565 S
C1307 C1288 1.429 . S
C1307 C1301 1.429 . S
C1307 C1308 1.523 . S
C1308 C1289 1.368 . S
C1308 C1302 1.368 1_565 S
C1308 C1307 1.523 . S
C1309 C1293 1.429 . S
C1309 C1305 1.429 . S
C1309 C1310 1.523 . S
C1310 C1294 1.368 . S
C1310 C1306 1.368 1_545 S
C1310 C1309 1.523 . S
H1311 C1286 0.950 . S
H1312 C1288 0.950 1_545 S
H1313 C1289 0.949 . S
H1314 C1291 0.950 . S
H1315 C1293 0.950 1_565 S
C1316 C1317 1.349 . S
C1316 C1318 1.327 . S
C1316 H1341 0.950 . S
C1317 C1316 1.349 . S
C1317 C1333 1.349 . S
C1318 C1316 1.327 . S
C1318 C1337 1.429 . S
C1318 H1342 0.950 . S
C1319 C1336 1.574 . S
C1319 C1338 1.368 . S
C1319 H1343 0.949 . S
H1320 C1324 0.949 . S
C1321 C1322 1.349 . S
C1321 C1323 1.327 . S
C1321 H1344 0.950 . S
C1322 C1321 1.349 . S
C1322 C1334 1.349 . S
C1323 C1321 1.327 . S
C1323 C1339 1.429 . S
C1323 H1345 0.950 . S
C1324 H1320 0.949 . S
C1324 C1332 1.574 . S
C1324 C1340 1.368 . S
H1325 C1333 0.950 . S
H1326 C1331 0.950 . S
H1327 C1332 0.949 . S
H1328 C1334 0.950 . S
H1329 C1335 0.950 . S
H1330 C1336 0.949 . S
C1331 H1326 0.950 . S
C1331 C1333 1.327 . S
C1331 C1337 1.429 . S
C1332 C1324 1.574 . S
C1332 H1327 0.949 . S
C1332 C1338 1.368 . S
C1333 C1317 1.349 . S
C1333 H1325 0.950 . S
C1333 C1331 1.327 . S
C1334 C1322 1.349 . S
C1334 H1328 0.950 . S
C1334 C1335 1.327 . S
C1335 H1329 0.950 . S
C1335 C1334 1.327 . S
C1335 C1339 1.429 . S
C1336 C1319 1.574 . S
C1336 H1330 0.949 . S
C1336 C1340 1.368 . S
C1337 C1318 1.429 . S
C1337 C1331 1.429 . S
C1337 C1338 1.523 . S
C1338 C1319 1.368 . S
C1338 C1332 1.368 . S
C1338 C1337 1.523 . S
C1339 C1323 1.429 . S
C1339 C1335 1.429 . S
C1339 C1340 1.523 . S
C1340 C1324 1.368 . S
C1340 C1336 1.368 . S
C1340 C1339 1.523 . S
H1341 C1316 0.950 . S
H1342 C1318 0.950 . S
H1343 C1319 0.949 . S
H1344 C1321 0.950 . S
H1345 C1323 0.950 . S
C1346 C1347 1.349 . S
C1346 C1348 1.327 . S
C1346 H1371 0.950 . S
C1347 C1346 1.349 . S
C1347 C1363 1.349 . S
C1348 C1346 1.327 . S
C1348 C1367 1.429 . S
C1348 H1372 0.950 . S
C1349 C1366 1.574 . S
C1349 C1368 1.368 . S
C1349 H1373 0.949 . S
H1350 C1354 0.949 . S
C1351 C1352 1.349 . S
C1351 C1353 1.327 . S
C1351 H1374 0.950 . S
C1352 C1351 1.349 . S
C1352 C1364 1.349 . S
C1353 C1351 1.327 . S
C1353 C1369 1.429 . S
C1353 H1375 0.950 . S
C1354 H1350 0.949 . S
C1354 C1362 1.574 . S
C1354 C1370 1.368 . S
H1355 C1363 0.950 . S
H1356 C1361 0.950 . S
H1357 C1362 0.949 . S
H1358 C1364 0.950 . S
H1359 C1365 0.950 . S
H1360 C1366 0.949 . S
C1361 H1356 0.950 . S
C1361 C1363 1.327 . S
C1361 C1367 1.429 . S
C1362 C1354 1.574 . S
C1362 H1357 0.949 . S
C1362 C1368 1.368 1_556 S
C1363 C1347 1.349 . S
C1363 H1355 0.950 . S
C1363 C1361 1.327 . S
C1364 C1352 1.349 . S
C1364 H1358 0.950 . S
C1364 C1365 1.327 . S
C1365 H1359 0.950 . S
C1365 C1364 1.327 . S
C1365 C1369 1.429 . S
C1366 C1349 1.574 . S
C1366 H1360 0.949 . S
C1366 C1370 1.368 1_554 S
C1367 C1348 1.429 . S
C1367 C1361 1.429 . S
C1367 C1368 1.523 . S
C1368 C1349 1.368 . S
C1368 C1362 1.368 1_554 S
C1368 C1367 1.523 . S
C1369 C1353 1.429 . S
C1369 C1365 1.429 . S
C1369 C1370 1.523 . S
C1370 C1354 1.368 . S
C1370 C1366 1.368 1_556 S
C1370 C1369 1.523 . S
H1371 C1346 0.950 . S
H1372 C1348 0.950 . S
H1373 C1349 0.949 . S
H1374 C1351 0.950 . S
H1375 C1353 0.950 . S
C1376 C1377 1.349 . S
C1376 C1378 1.327 . S
C1376 H1401 0.950 . S
C1377 C1376 1.349 . S
C1377 C1393 1.349 . S
C1378 C1376 1.327 . S
C1378 C1397 1.429 . S
C1378 H1402 0.950 . S
C1379 C1396 1.574 . S
C1379 C1398 1.368 . S
C1379 H1403 0.949 . S
H1380 C1384 0.949 . S
C1381 C1382 1.349 . S
C1381 C1383 1.327 . S
C1381 H1404 0.950 . S
C1382 C1381 1.349 . S
C1382 C1394 1.349 . S
C1383 C1381 1.327 . S
C1383 C1399 1.429 . S
C1383 H1405 0.950 . S
C1384 H1380 0.949 . S
C1384 C1392 1.574 . S
C1384 C1400 1.368 . S
H1385 C1393 0.950 . S
H1386 C1391 0.950 . S
H1387 C1392 0.949 . S
H1388 C1394 0.950 . S
H1389 C1395 0.950 . S
H1390 C1396 0.949 . S
C1391 H1386 0.950 . S
C1391 C1393 1.327 . S
C1391 C1397 1.429 . S
C1392 C1384 1.574 . S
C1392 H1387 0.949 . S
C1392 C1398 1.368 . S
C1393 C1377 1.349 . S
C1393 H1385 0.950 . S
C1393 C1391 1.327 . S
C1394 C1382 1.349 . S
C1394 H1388 0.950 . S
C1394 C1395 1.327 . S
C1395 H1389 0.950 . S
C1395 C1394 1.327 . S
C1395 C1399 1.429 . S
C1396 C1379 1.574 . S
C1396 H1390 0.949 . S
C1396 C1400 1.368 . S
C1397 C1378 1.429 . S
C1397 C1391 1.429 . S
C1397 C1398 1.523 . S
C1398 C1379 1.368 . S
C1398 C1392 1.368 . S
C1398 C1397 1.523 . S
C1399 C1383 1.429 . S
C1399 C1395 1.429 . S
C1399 C1400 1.523 . S
C1400 C1384 1.368 . S
C1400 C1396 1.368 . S
C1400 C1399 1.523 . S
H1401 C1376 0.950 . S
H1402 C1378 0.950 . S
H1403 C1379 0.949 . S
H1404 C1381 0.950 . S
H1405 C1383 0.950 . S
C1406 C1407 1.349 . S
C1406 C1408 1.327 . S
C1406 H1431 0.950 . S
C1407 C1406 1.349 . S
C1407 C1423 1.349 . S
C1408 C1406 1.327 . S
C1408 C1427 1.429 . S
C1408 H1432 0.950 . S
C1409 C1426 1.574 . S
C1409 C1428 1.368 . S
C1409 H1433 0.949 . S
H1410 C1414 0.949 . S
C1411 C1412 1.349 1_565 S
C1411 C1413 1.327 . S
C1411 H1434 0.950 . S
C1412 C1411 1.349 1_545 S
C1412 C1424 1.349 . S
C1413 C1411 1.327 . S
C1413 C1429 1.429 . S
C1413 H1435 0.950 . S
C1414 H1410 0.949 . S
C1414 C1422 1.574 . S
C1414 C1430 1.368 . S
H1415 C1423 0.950 . S
H1416 C1421 0.950 . S
H1417 C1422 0.949 . S
H1418 C1424 0.950 . S
H1419 C1425 0.950 . S
H1420 C1426 0.949 . S
C1421 H1416 0.950 . S
C1421 C1423 1.327 . S
C1421 C1427 1.429 . S
C1422 C1414 1.574 . S
C1422 H1417 0.949 . S
C1422 C1428 1.368 . S
C1423 C1407 1.349 . S
C1423 H1415 0.950 . S
C1423 C1421 1.327 . S
C1424 C1412 1.349 . S
C1424 H1418 0.950 . S
C1424 C1425 1.327 1_545 S
C1425 H1419 0.950 . S
C1425 C1424 1.327 1_565 S
C1425 C1429 1.429 . S
C1426 C1409 1.574 . S
C1426 H1420 0.949 . S
C1426 C1430 1.368 . S
C1427 C1408 1.429 . S
C1427 C1421 1.429 . S
C1427 C1428 1.523 . S
C1428 C1409 1.368 . S
C1428 C1422 1.368 . S
C1428 C1427 1.523 . S
C1429 C1413 1.429 . S
C1429 C1425 1.429 . S
C1429 C1430 1.523 . S
C1430 C1414 1.368 . S
C1430 C1426 1.368 . S
C1430 C1429 1.523 . S
H1431 C1406 0.950 . S
H1432 C1408 0.950 . S
H1433 C1409 0.949 . S
H1434 C1411 0.950 . S
H1435 C1413 0.950 . S
C1436 C1437 1.349 1_565 S
C1436 C1438 1.327 . S
C1436 H1461 0.948 1_565 S
C1437 C1436 1.349 1_545 S
C1437 C1453 1.349 . S
C1438 C1436 1.327 . S
C1438 C1457 1.429 . S
C1438 H1462 0.950 . S
C1439 C1456 1.574 . S
C1439 C1458 1.368 . S
C1439 H1463 0.949 . S
H1440 C1444 0.949 . S
C1441 C1442 1.349 . S
C1441 C1443 1.327 . S
C1441 H1464 0.950 . S
C1442 C1441 1.349 . S
C1442 C1454 1.349 . S
C1443 C1441 1.327 . S
C1443 C1459 1.429 . S
C1443 H1465 0.950 . S
C1444 H1440 0.949 . S
C1444 C1452 1.574 . S
C1444 C1460 1.368 . S
H1445 C1453 0.950 . S
H1446 C1451 0.950 . S
H1447 C1452 0.949 . S
H1448 C1454 0.950 . S
H1449 C1455 0.950 . S
H1450 C1456 0.949 . S
C1451 H1446 0.950 . S
C1451 C1453 1.327 1_565 S
C1451 C1457 1.429 . S
C1452 C1444 1.574 . S
C1452 H1447 0.949 . S
C1452 C1458 1.368 . S
C1453 C1437 1.349 . S
C1453 H1445 0.950 . S
C1453 C1451 1.327 1_545 S
C1454 C1442 1.349 . S
C1454 H1448 0.950 . S
C1454 C1455 1.327 . S
C1455 H1449 0.950 . S
C1455 C1454 1.327 . S
C1455 C1459 1.429 . S
C1456 C1439 1.574 . S
C1456 H1450 0.949 . S
C1456 C1460 1.368 . S
C1457 C1438 1.429 . S
C1457 C1451 1.429 . S
C1457 C1458 1.523 . S
C1458 C1439 1.368 . S
C1458 C1452 1.368 . S
C1458 C1457 1.523 . S
C1459 C1443 1.429 . S
C1459 C1455 1.429 . S
C1459 C1460 1.523 . S
C1460 C1444 1.368 . S
C1460 C1456 1.368 . S
C1460 C1459 1.523 . S
H1461 C1436 0.948 1_545 S
H1462 C1438 0.950 . S
H1463 C1439 0.949 . S
H1464 C1441 0.950 . S
H1465 C1443 0.950 . S
C1466 C1467 1.349 . S
C1466 C1468 1.327 . S
C1466 H1491 0.950 . S
C1467 C1466 1.349 . S
C1467 C1483 1.349 . S
C1468 C1466 1.327 . S
C1468 C1487 1.429 . S
C1468 H1492 0.950 . S
C1469 C1486 1.574 . S
C1469 C1488 1.368 . S
C1469 H1493 0.949 . S
H1470 C1474 0.949 . S
C1471 C1472 1.349 . S
C1471 C1473 1.327 . S
C1471 H1494 0.950 . S
C1472 C1471 1.349 . S
C1472 C1484 1.349 . S
C1473 C1471 1.327 . S
C1473 C1489 1.429 . S
C1473 H1495 0.950 . S
C1474 H1470 0.949 . S
C1474 C1482 1.574 . S
C1474 C1490 1.368 . S
H1475 C1483 0.950 . S
H1476 C1481 0.950 . S
H1477 C1482 0.949 . S
H1478 C1484 0.950 . S
H1479 C1485 0.950 . S
H1480 C1486 0.949 . S
C1481 H1476 0.950 . S
C1481 C1483 1.327 . S
C1481 C1487 1.429 . S
C1482 C1474 1.574 . S
C1482 H1477 0.949 . S
C1482 C1488 1.368 . S
C1483 C1467 1.349 . S
C1483 H1475 0.950 . S
C1483 C1481 1.327 . S
C1484 C1472 1.349 . S
C1484 H1478 0.950 . S
C1484 C1485 1.327 . S
C1485 H1479 0.950 . S
C1485 C1484 1.327 . S
C1485 C1489 1.429 . S
C1486 C1469 1.574 . S
C1486 H1480 0.949 . S
C1486 C1490 1.368 . S
C1487 C1468 1.429 . S
C1487 C1481 1.429 . S
C1487 C1488 1.523 . S
C1488 C1469 1.368 . S
C1488 C1482 1.368 . S
C1488 C1487 1.523 . S
C1489 C1473 1.429 . S
C1489 C1485 1.429 . S
C1489 C1490 1.523 . S
C1490 C1474 1.368 . S
C1490 C1486 1.368 . S
C1490 C1489 1.523 . S
H1491 C1466 0.950 . S
H1492 C1468 0.950 . S
H1493 C1469 0.949 . S
H1494 C1471 0.950 . S
H1495 C1473 0.950 . S
C1496 C1497 1.349 . S
C1496 C1498 1.327 . S
C1496 H1521 0.950 . S
C1497 C1496 1.349 . S
C1497 C1513 1.349 . S
C1498 C1496 1.327 . S
C1498 C1517 1.429 . S
C1498 H1522 0.950 . S
C1499 C1516 1.574 . S
C1499 C1518 1.368 . S
C1499 H1523 0.949 . S
H1500 C1504 0.949 . S
C1501 C1502 1.349 . S
C1501 C1503 1.327 . S
C1501 H1524 0.950 . S
C1502 C1501 1.349 . S
C1502 C1514 1.349 . S
C1503 C1501 1.327 . S
C1503 C1519 1.429 . S
C1503 H1525 0.950 . S
C1504 H1500 0.949 . S
C1504 C1512 1.574 . S
C1504 C1520 1.368 . S
H1505 C1513 0.950 . S
H1506 C1511 0.950 . S
H1507 C1512 0.949 . S
H1508 C1514 0.950 . S
H1509 C1515 0.950 . S
H1510 C1516 0.949 . S
C1511 H1506 0.950 . S
C1511 C1513 1.327 . S
C1511 C1517 1.429 . S
C1512 C1504 1.574 . S
C1512 H1507 0.949 . S
C1512 C1518 1.368 . S
C1513 C1497 1.349 . S
C1513 H1505 0.950 . S
C1513 C1511 1.327 . S
C1514 C1502 1.349 . S
C1514 H1508 0.950 . S
C1514 C1515 1.327 . S
C1515 H1509 0.950 . S
C1515 C1514 1.327 . S
C1515 C1519 1.429 . S
C1516 C1499 1.574 . S
C1516 H1510 0.949 . S
C1516 C1520 1.368 . S
C1517 C1498 1.429 . S
C1517 C1511 1.429 . S
C1517 C1518 1.523 . S
C1518 C1499 1.368 . S
C1518 C1512 1.368 . S
C1518 C1517 1.523 . S
C1519 C1503 1.429 . S
C1519 C1515 1.429 . S
C1519 C1520 1.523 . S
C1520 C1504 1.368 . S
C1520 C1516 1.368 . S
C1520 C1519 1.523 . S
H1521 C1496 0.950 . S
H1522 C1498 0.950 . S
H1523 C1499 0.949 . S
H1524 C1501 0.950 . S
H1525 C1503 0.950 . S
C1526 C1527 1.349 1_545 S
C1526 C1528 1.327 . S
C1526 H1551 0.950 . S
C1527 C1526 1.349 1_565 S
C1527 C1543 1.349 . S
C1528 C1526 1.327 . S
C1528 C1547 1.429 . S
C1528 H1552 0.950 . S
C1529 C1546 1.574 . S
C1529 C1548 1.368 . S
C1529 H1553 0.949 . S
H1530 C1534 0.949 . S
C1531 C1532 1.349 . S
C1531 C1533 1.327 . S
C1531 H1554 0.950 . S
C1532 C1531 1.349 . S
C1532 C1544 1.349 . S
C1533 C1531 1.327 . S
C1533 C1549 1.429 . S
C1533 H1555 0.950 . S
C1534 H1530 0.949 . S
C1534 C1542 1.574 . S
C1534 C1550 1.368 . S
H1535 C1543 0.950 . S
H1536 C1541 0.950 . S
H1537 C1542 0.949 . S
H1538 C1544 0.950 . S
H1539 C1545 0.950 . S
H1540 C1546 0.949 . S
C1541 H1536 0.950 . S
C1541 C1543 1.327 1_545 S
C1541 C1547 1.429 . S
C1542 C1534 1.574 . S
C1542 H1537 0.949 . S
C1542 C1548 1.368 . S
C1543 C1527 1.349 . S
C1543 H1535 0.950 . S
C1543 C1541 1.327 1_565 S
C1544 C1532 1.349 . S
C1544 H1538 0.950 . S
C1544 C1545 1.327 . S
C1545 H1539 0.950 . S
C1545 C1544 1.327 . S
C1545 C1549 1.429 . S
C1546 C1529 1.574 . S
C1546 H1540 0.949 . S
C1546 C1550 1.368 . S
C1547 C1528 1.429 . S
C1547 C1541 1.429 . S
C1547 C1548 1.523 . S
C1548 C1529 1.368 . S
C1548 C1542 1.368 . S
C1548 C1547 1.523 . S
C1549 C1533 1.429 . S
C1549 C1545 1.429 . S
C1549 C1550 1.523 . S
C1550 C1534 1.368 . S
C1550 C1546 1.368 . S
C1550 C1549 1.523 . S
H1551 C1526 0.950 . S
H1552 C1528 0.950 . S
H1553 C1529 0.949 . S
H1554 C1531 0.950 . S
H1555 C1533 0.950 . S
C1556 C1557 1.349 . S
C1556 C1558 1.327 . S
C1556 H1581 0.950 . S
C1557 C1556 1.349 . S
C1557 C1573 1.349 . S
C1558 C1556 1.327 . S
C1558 C1577 1.429 . S
C1558 H1582 0.950 . S
C1559 C1576 1.574 . S
C1559 C1578 1.368 . S
C1559 H1583 0.949 . S
H1560 C1564 0.949 . S
C1561 C1562 1.349 1_545 S
C1561 C1563 1.327 . S
C1561 H1584 0.948 1_545 S
C1562 C1561 1.349 1_565 S
C1562 C1574 1.349 . S
C1563 C1561 1.327 . S
C1563 C1579 1.429 . S
C1563 H1585 0.950 . S
C1564 H1560 0.949 . S
C1564 C1572 1.574 . S
C1564 C1580 1.368 . S
H1565 C1573 0.950 . S
H1566 C1571 0.950 . S
H1567 C1572 0.949 . S
H1568 C1574 0.950 . S
H1569 C1575 0.950 . S
H1570 C1576 0.949 . S
C1571 H1566 0.950 . S
C1571 C1573 1.327 . S
C1571 C1577 1.429 . S
C1572 C1564 1.574 . S
C1572 H1567 0.949 . S
C1572 C1578 1.368 . S
C1573 C1557 1.349 . S
C1573 H1565 0.950 . S
C1573 C1571 1.327 . S
C1574 C1562 1.349 . S
C1574 H1568 0.950 . S
C1574 C1575 1.327 1_565 S
C1575 H1569 0.950 . S
C1575 C1574 1.327 1_545 S
C1575 C1579 1.429 . S
C1576 C1559 1.574 . S
C1576 H1570 0.949 . S
C1576 C1580 1.368 . S
C1577 C1558 1.429 . S
C1577 C1571 1.429 . S
C1577 C1578 1.523 . S
C1578 C1559 1.368 . S
C1578 C1572 1.368 . S
C1578 C1577 1.523 . S
C1579 C1563 1.429 . S
C1579 C1575 1.429 . S
C1579 C1580 1.523 . S
C1580 C1564 1.368 . S
C1580 C1576 1.368 . S
C1580 C1579 1.523 . S
H1581 C1556 0.950 . S
H1582 C1558 0.950 . S
H1583 C1559 0.949 . S
H1584 C1561 0.948 1_565 S
H1585 C1563 0.950 . S
C1586 C1587 1.349 . S
C1586 C1588 1.327 . S
C1586 H1611 0.950 . S
C1587 C1586 1.349 . S
C1587 C1603 1.349 . S
C1588 C1586 1.327 . S
C1588 C1607 1.429 . S
C1588 H1612 0.950 . S
C1589 C1606 1.574 . S
C1589 C1608 1.368 . S
C1589 H1613 0.949 . S
H1590 C1594 0.949 . S
C1591 C1592 1.349 . S
C1591 C1593 1.327 . S
C1591 H1614 0.950 . S
C1592 C1591 1.349 . S
C1592 C1604 1.349 . S
C1593 C1591 1.327 . S
C1593 C1609 1.429 . S
C1593 H1615 0.950 . S
C1594 H1590 0.949 . S
C1594 C1602 1.574 . S
C1594 C1610 1.368 . S
H1595 C1603 0.950 . S
H1596 C1601 0.950 . S
H1597 C1602 0.949 . S
H1598 C1604 0.950 . S
H1599 C1605 0.950 . S
H1600 C1606 0.949 . S
C1601 H1596 0.950 . S
C1601 C1603 1.327 . S
C1601 C1607 1.429 . S
C1602 C1594 1.574 . S
C1602 H1597 0.949 . S
C1602 C1608 1.368 . S
C1603 C1587 1.349 . S
C1603 H1595 0.950 . S
C1603 C1601 1.327 . S
C1604 C1592 1.349 . S
C1604 H1598 0.950 . S
C1604 C1605 1.327 . S
C1605 H1599 0.950 . S
C1605 C1604 1.327 . S
C1605 C1609 1.429 . S
C1606 C1589 1.574 . S
C1606 H1600 0.949 . S
C1606 C1610 1.368 . S
C1607 C1588 1.429 . S
C1607 C1601 1.429 . S
C1607 C1608 1.523 . S
C1608 C1589 1.368 . S
C1608 C1602 1.368 . S
C1608 C1607 1.523 . S
C1609 C1593 1.429 . S
C1609 C1605 1.429 . S
C1609 C1610 1.523 . S
C1610 C1594 1.368 . S
C1610 C1606 1.368 . S
C1610 C1609 1.523 . S
H1611 C1586 0.950 . S
H1612 C1588 0.950 . S
H1613 C1589 0.949 . S
H1614 C1591 0.950 . S
H1615 C1593 0.950 . S
C1616 C1617 1.349 . S
C1616 C1618 1.327 . S
C1616 H1641 0.950 . S
C1617 C1616 1.349 . S
C1617 C1633 1.349 . S
C1618 C1616 1.327 . S
C1618 C1637 1.429 . S
C1618 H1642 0.950 . S
C1619 C1636 1.574 . S
C1619 C1638 1.368 . S
C1619 H1643 0.949 . S
H1620 C1624 0.949 . S
C1621 C1622 1.349 . S
C1621 C1623 1.327 . S
C1621 H1644 0.950 . S
C1622 C1621 1.349 . S
C1622 C1634 1.349 . S
C1623 C1621 1.327 . S
C1623 C1639 1.429 . S
C1623 H1645 0.950 . S
C1624 H1620 0.949 . S
C1624 C1632 1.574 . S
C1624 C1640 1.368 . S
H1625 C1633 0.950 . S
H1626 C1631 0.950 . S
H1627 C1632 0.949 . S
H1628 C1634 0.950 . S
H1629 C1635 0.950 . S
H1630 C1636 0.949 . S
C1631 H1626 0.950 . S
C1631 C1633 1.327 . S
C1631 C1637 1.429 . S
C1632 C1624 1.574 . S
C1632 H1627 0.949 . S
C1632 C1638 1.368 . S
C1633 C1617 1.349 . S
C1633 H1625 0.950 . S
C1633 C1631 1.327 . S
C1634 C1622 1.349 . S
C1634 H1628 0.950 . S
C1634 C1635 1.327 . S
C1635 H1629 0.950 . S
C1635 C1634 1.327 . S
C1635 C1639 1.429 . S
C1636 C1619 1.574 . S
C1636 H1630 0.949 . S
C1636 C1640 1.368 . S
C1637 C1618 1.429 . S
C1637 C1631 1.429 . S
C1637 C1638 1.523 . S
C1638 C1619 1.368 . S
C1638 C1632 1.368 . S
C1638 C1637 1.523 . S
C1639 C1623 1.429 . S
C1639 C1635 1.429 . S
C1639 C1640 1.523 . S
C1640 C1624 1.368 . S
C1640 C1636 1.368 . S
C1640 C1639 1.523 . S
H1641 C1616 0.950 . S
H1642 C1618 0.950 . S
H1643 C1619 0.949 . S
H1644 C1621 0.950 . S
H1645 C1623 0.950 . S
C1646 C1647 1.349 . S
C1646 C1648 1.327 . S
C1646 H1671 0.950 . S
C1647 C1646 1.349 . S
C1647 C1663 1.349 . S
C1648 C1646 1.327 . S
C1648 C1667 1.429 . S
C1648 H1672 0.950 . S
C1649 C1666 1.574 . S
C1649 C1668 1.368 . S
C1649 H1673 0.949 . S
H1650 C1654 0.949 . S
C1651 C1652 1.349 . S
C1651 C1653 1.327 1_545 S
C1651 H1674 0.950 . S
C1652 C1651 1.349 . S
C1652 C1664 1.349 1_545 S
C1653 C1651 1.327 1_565 S
C1653 C1669 1.429 . S
C1653 H1675 0.950 . S
C1654 H1650 0.949 . S
C1654 C1662 1.574 . S
C1654 C1670 1.368 . S
H1655 C1663 0.950 . S
H1656 C1661 0.950 . S
H1657 C1662 0.949 . S
H1658 C1664 0.950 . S
H1659 C1665 0.950 . S
H1660 C1666 0.949 . S
C1661 H1656 0.950 . S
C1661 C1663 1.327 . S
C1661 C1667 1.429 . S
C1662 C1654 1.574 . S
C1662 H1657 0.949 . S
C1662 C1668 1.368 . S
C1663 C1647 1.349 . S
C1663 H1655 0.950 . S
C1663 C1661 1.327 . S
C1664 C1652 1.349 1_565 S
C1664 H1658 0.950 . S
C1664 C1665 1.327 . S
C1665 H1659 0.950 . S
C1665 C1664 1.327 . S
C1665 C1669 1.429 . S
C1666 C1649 1.574 . S
C1666 H1660 0.949 . S
C1666 C1670 1.368 . S
C1667 C1648 1.429 . S
C1667 C1661 1.429 . S
C1667 C1668 1.523 . S
C1668 C1649 1.368 . S
C1668 C1662 1.368 . S
C1668 C1667 1.523 . S
C1669 C1653 1.429 . S
C1669 C1665 1.429 . S
C1669 C1670 1.523 . S
C1670 C1654 1.368 . S
C1670 C1666 1.368 . S
C1670 C1669 1.523 . S
H1671 C1646 0.950 . S
H1672 C1648 0.950 . S
H1673 C1649 0.949 . S
H1674 C1651 0.950 . S
H1675 C1653 0.950 . S
C1676 C1677 1.349 . S
C1676 C1678 1.327 . S
C1676 H1701 0.950 . S
C1677 C1676 1.349 . S
C1677 C1693 1.349 . S
C1678 C1676 1.327 . S
C1678 C1697 1.429 . S
C1678 H1702 0.950 . S
C1679 C1696 1.574 . S
C1679 C1698 1.368 . S
C1679 H1703 0.949 . S
H1680 C1684 0.949 . S
C1681 C1682 1.349 . S
C1681 C1683 1.327 1_545 S
C1681 H1704 0.950 . S
C1682 C1681 1.349 . S
C1682 C1694 1.349 1_545 S
C1683 C1681 1.327 1_565 S
C1683 C1699 1.429 . S
C1683 H1705 0.950 . S
C1684 H1680 0.949 . S
C1684 C1692 1.574 . S
C1684 C1700 1.368 . S
H1685 C1693 0.950 . S
H1686 C1691 0.950 . S
H1687 C1692 0.949 . S
H1688 C1694 0.950 . S
H1689 C1695 0.950 . S
H1690 C1696 0.949 . S
C1691 H1686 0.950 . S
C1691 C1693 1.327 . S
C1691 C1697 1.429 . S
C1692 C1684 1.574 . S
C1692 H1687 0.949 . S
C1692 C1698 1.368 . S
C1693 C1677 1.349 . S
C1693 H1685 0.950 . S
C1693 C1691 1.327 . S
C1694 C1682 1.349 1_565 S
C1694 H1688 0.950 . S
C1694 C1695 1.327 . S
C1695 H1689 0.950 . S
C1695 C1694 1.327 . S
C1695 C1699 1.429 . S
C1696 C1679 1.574 . S
C1696 H1690 0.949 . S
C1696 C1700 1.368 . S
C1697 C1678 1.429 . S
C1697 C1691 1.429 . S
C1697 C1698 1.523 . S
C1698 C1679 1.368 . S
C1698 C1692 1.368 . S
C1698 C1697 1.523 . S
C1699 C1683 1.429 . S
C1699 C1695 1.429 . S
C1699 C1700 1.523 . S
C1700 C1684 1.368 . S
C1700 C1696 1.368 . S
C1700 C1699 1.523 . S
H1701 C1676 0.950 . S
H1702 C1678 0.950 . S
H1703 C1679 0.949 . S
H1704 C1681 0.950 . S
H1705 C1683 0.950 . S
C1706 C1707 1.349 . S
C1706 C1708 1.327 . S
C1706 H1731 0.950 . S
C1707 C1706 1.349 . S
C1707 C1723 1.349 . S
C1708 C1706 1.327 . S
C1708 C1727 1.429 . S
C1708 H1732 0.950 . S
C1709 C1726 1.574 . S
C1709 C1728 1.368 . S
C1709 H1733 0.949 . S
H1710 C1714 0.949 . S
C1711 C1712 1.349 . S
C1711 C1713 1.327 . S
C1711 H1734 0.950 . S
C1712 C1711 1.349 . S
C1712 C1724 1.349 . S
C1713 C1711 1.327 . S
C1713 C1729 1.429 . S
C1713 H1735 0.950 . S
C1714 H1710 0.949 . S
C1714 C1722 1.574 . S
C1714 C1730 1.368 . S
H1715 C1723 0.950 . S
H1716 C1721 0.950 . S
H1717 C1722 0.949 . S
H1718 C1724 0.950 . S
H1719 C1725 0.950 . S
H1720 C1726 0.949 . S
C1721 H1716 0.950 . S
C1721 C1723 1.327 . S
C1721 C1727 1.429 . S
C1722 C1714 1.574 . S
C1722 H1717 0.949 . S
C1722 C1728 1.368 . S
C1723 C1707 1.349 . S
C1723 H1715 0.950 . S
C1723 C1721 1.327 . S
C1724 C1712 1.349 . S
C1724 H1718 0.950 . S
C1724 C1725 1.327 . S
C1725 H1719 0.950 . S
C1725 C1724 1.327 . S
C1725 C1729 1.429 . S
C1726 C1709 1.574 . S
C1726 H1720 0.949 . S
C1726 C1730 1.368 . S
C1727 C1708 1.429 . S
C1727 C1721 1.429 . S
C1727 C1728 1.523 . S
C1728 C1709 1.368 . S
C1728 C1722 1.368 . S
C1728 C1727 1.523 . S
C1729 C1713 1.429 . S
C1729 C1725 1.429 . S
C1729 C1730 1.523 . S
C1730 C1714 1.368 . S
C1730 C1726 1.368 . S
C1730 C1729 1.523 . S
H1731 C1706 0.950 . S
H1732 C1708 0.950 . S
H1733 C1709 0.949 . S
H1734 C1711 0.950 . S
H1735 C1713 0.950 . S
C1736 C1737 1.349 . S
C1736 C1738 1.327 . S
C1736 H1761 0.950 . S
C1737 C1736 1.349 . S
C1737 C1753 1.349 . S
C1738 C1736 1.327 . S
C1738 C1757 1.429 . S
C1738 H1762 0.950 . S
C1739 C1756 1.574 . S
C1739 C1758 1.368 . S
C1739 H1763 0.949 . S
H1740 C1744 0.949 . S
C1741 C1742 1.349 . S
C1741 C1743 1.327 . S
C1741 H1764 0.950 . S
C1742 C1741 1.349 . S
C1742 C1754 1.349 . S
C1743 C1741 1.327 . S
C1743 C1759 1.429 . S
C1743 H1765 0.950 . S
C1744 H1740 0.949 . S
C1744 C1752 1.574 . S
C1744 C1760 1.368 . S
H1745 C1753 0.950 . S
H1746 C1751 0.950 . S
H1747 C1752 0.949 . S
H1748 C1754 0.950 . S
H1749 C1755 0.950 . S
H1750 C1756 0.949 . S
C1751 H1746 0.950 . S
C1751 C1753 1.327 . S
C1751 C1757 1.429 . S
C1752 C1744 1.574 . S
C1752 H1747 0.949 . S
C1752 C1758 1.368 . S
C1753 C1737 1.349 . S
C1753 H1745 0.950 . S
C1753 C1751 1.327 . S
C1754 C1742 1.349 . S
C1754 H1748 0.950 . S
C1754 C1755 1.327 . S
C1755 H1749 0.950 . S
C1755 C1754 1.327 . S
C1755 C1759 1.429 . S
C1756 C1739 1.574 . S
C1756 H1750 0.949 . S
C1756 C1760 1.368 . S
C1757 C1738 1.429 . S
C1757 C1751 1.429 . S
C1757 C1758 1.523 . S
C1758 C1739 1.368 . S
C1758 C1752 1.368 . S
C1758 C1757 1.523 . S
C1759 C1743 1.429 . S
C1759 C1755 1.429 . S
C1759 C1760 1.523 . S
C1760 C1744 1.368 . S
C1760 C1756 1.368 . S
C1760 C1759 1.523 . S
H1761 C1736 0.950 . S
H1762 C1738 0.950 . S
H1763 C1739 0.949 . S
H1764 C1741 0.950 . S
H1765 C1743 0.950 . S
C1766 C1767 1.349 1_545 S
C1766 C1768 1.327 . S
C1766 H1791 0.950 . S
C1767 C1766 1.349 1_565 S
C1767 C1783 1.349 . S
C1768 C1766 1.327 . S
C1768 C1787 1.429 . S
C1768 H1792 0.950 . S
C1769 C1786 1.574 . S
C1769 C1788 1.368 . S
C1769 H1793 0.949 . S
H1770 C1774 0.949 . S
C1771 C1772 1.349 . S
C1771 C1773 1.327 . S
C1771 H1794 0.950 . S
C1772 C1771 1.349 . S
C1772 C1784 1.349 . S
C1773 C1771 1.327 . S
C1773 C1789 1.429 . S
C1773 H1795 0.950 . S
C1774 H1770 0.949 . S
C1774 C1782 1.574 . S
C1774 C1790 1.368 . S
H1775 C1783 0.950 . S
H1776 C1781 0.950 . S
H1777 C1782 0.949 . S
H1778 C1784 0.950 . S
H1779 C1785 0.950 . S
H1780 C1786 0.949 . S
C1781 H1776 0.950 . S
C1781 C1783 1.327 1_545 S
C1781 C1787 1.429 . S
C1782 C1774 1.574 . S
C1782 H1777 0.949 . S
C1782 C1788 1.368 . S
C1783 C1767 1.349 . S
C1783 H1775 0.950 . S
C1783 C1781 1.327 1_565 S
C1784 C1772 1.349 . S
C1784 H1778 0.950 . S
C1784 C1785 1.327 . S
C1785 H1779 0.950 . S
C1785 C1784 1.327 . S
C1785 C1789 1.429 . S
C1786 C1769 1.574 . S
C1786 H1780 0.949 . S
C1786 C1790 1.368 . S
C1787 C1768 1.429 . S
C1787 C1781 1.429 . S
C1787 C1788 1.523 . S
C1788 C1769 1.368 . S
C1788 C1782 1.368 . S
C1788 C1787 1.523 . S
C1789 C1773 1.429 . S
C1789 C1785 1.429 . S
C1789 C1790 1.523 . S
C1790 C1774 1.368 . S
C1790 C1786 1.368 . S
C1790 C1789 1.523 . S
H1791 C1766 0.950 . S
H1792 C1768 0.950 . S
H1793 C1769 0.949 . S
H1794 C1771 0.950 . S
H1795 C1773 0.950 . S
C1796 C1797 1.349 . S
C1796 C1798 1.327 . S
C1796 H1821 0.950 . S
C1797 C1796 1.349 . S
C1797 C1813 1.349 . S
C1798 C1796 1.327 . S
C1798 C1817 1.429 . S
C1798 H1822 0.950 . S
C1799 C1816 1.574 . S
C1799 C1818 1.368 . S
C1799 H1823 0.949 . S
H1800 C1804 0.949 . S
C1801 C1802 1.349 . S
C1801 C1803 1.327 1_565 S
C1801 H1824 0.950 . S
C1802 C1801 1.349 . S
C1802 C1814 1.349 1_565 S
C1803 C1801 1.327 1_545 S
C1803 C1819 1.429 . S
C1803 H1825 0.950 . S
C1804 H1800 0.949 . S
C1804 C1812 1.574 . S
C1804 C1820 1.368 . S
H1805 C1813 0.950 . S
H1806 C1811 0.950 . S
H1807 C1812 0.949 . S
H1808 C1814 0.950 . S
H1809 C1815 0.950 . S
H1810 C1816 0.949 . S
C1811 H1806 0.950 . S
C1811 C1813 1.327 . S
C1811 C1817 1.429 . S
C1812 C1804 1.574 . S
C1812 H1807 0.949 . S
C1812 C1818 1.368 . S
C1813 C1797 1.349 . S
C1813 H1805 0.950 . S
C1813 C1811 1.327 . S
C1814 C1802 1.349 1_545 S
C1814 H1808 0.950 . S
C1814 C1815 1.327 . S
C1815 H1809 0.950 . S
C1815 C1814 1.327 . S
C1815 C1819 1.429 . S
C1816 C1799 1.574 . S
C1816 H1810 0.949 . S
C1816 C1820 1.368 . S
C1817 C1798 1.429 . S
C1817 C1811 1.429 . S
C1817 C1818 1.523 . S
C1818 C1799 1.368 . S
C1818 C1812 1.368 . S
C1818 C1817 1.523 . S
C1819 C1803 1.429 . S
C1819 C1815 1.429 . S
C1819 C1820 1.523 . S
C1820 C1804 1.368 . S
C1820 C1816 1.368 . S
C1820 C1819 1.523 . S
H1821 C1796 0.950 . S
H1822 C1798 0.950 . S
H1823 C1799 0.949 . S
H1824 C1801 0.950 . S
H1825 C1803 0.950 . S
C1826 C1827 1.349 . S
C1826 C1828 1.327 . S
C1826 H1851 0.950 . S
C1827 C1826 1.349 . S
C1827 C1843 1.349 . S
C1828 C1826 1.327 . S
C1828 C1847 1.429 . S
C1828 H1852 0.950 . S
C1829 C1846 1.574 . S
C1829 C1848 1.368 . S
C1829 H1853 0.949 . S
H1830 C1834 0.949 . S
C1831 C1832 1.349 . S
C1831 C1833 1.327 . S
C1831 H1854 0.950 . S
C1832 C1831 1.349 . S
C1832 C1844 1.349 . S
C1833 C1831 1.327 . S
C1833 C1849 1.429 . S
C1833 H1855 0.950 . S
C1834 H1830 0.949 . S
C1834 C1842 1.574 . S
C1834 C1850 1.368 . S
H1835 C1843 0.950 . S
H1836 C1841 0.950 . S
H1837 C1842 0.949 . S
H1838 C1844 0.950 . S
H1839 C1845 0.950 . S
H1840 C1846 0.949 . S
C1841 H1836 0.950 . S
C1841 C1843 1.327 . S
C1841 C1847 1.429 . S
C1842 C1834 1.574 . S
C1842 H1837 0.949 . S
C1842 C1848 1.368 . S
C1843 C1827 1.349 . S
C1843 H1835 0.950 . S
C1843 C1841 1.327 . S
C1844 C1832 1.349 . S
C1844 H1838 0.950 . S
C1844 C1845 1.327 . S
C1845 H1839 0.950 . S
C1845 C1844 1.327 . S
C1845 C1849 1.429 . S
C1846 C1829 1.574 . S
C1846 H1840 0.949 . S
C1846 C1850 1.368 . S
C1847 C1828 1.429 . S
C1847 C1841 1.429 . S
C1847 C1848 1.523 . S
C1848 C1829 1.368 . S
C1848 C1842 1.368 . S
C1848 C1847 1.523 . S
C1849 C1833 1.429 . S
C1849 C1845 1.429 . S
C1849 C1850 1.523 . S
C1850 C1834 1.368 . S
C1850 C1846 1.368 . S
C1850 C1849 1.523 . S
H1851 C1826 0.950 . S
H1852 C1828 0.950 . S
H1853 C1829 0.949 . S
H1854 C1831 0.950 . S
H1855 C1833 0.950 . S
C1856 C1857 1.349 . S
C1856 C1858 1.327 . S
C1856 H1881 0.950 . S
C1857 C1856 1.349 . S
C1857 C1873 1.349 . S
C1858 C1856 1.327 . S
C1858 C1877 1.429 . S
C1858 H1882 0.950 . S
C1859 C1876 1.574 . S
C1859 C1878 1.368 . S
C1859 H1883 0.949 . S
H1860 C1864 0.949 . S
C1861 C1862 1.349 1_565 S
C1861 C1863 1.327 . S
C1861 H1884 0.950 . S
C1862 C1861 1.349 1_545 S
C1862 C1874 1.349 . S
C1863 C1861 1.327 . S
C1863 C1879 1.429 . S
C1863 H1885 0.950 . S
C1864 H1860 0.949 . S
C1864 C1872 1.574 . S
C1864 C1880 1.368 . S
H1865 C1873 0.950 . S
H1866 C1871 0.950 . S
H1867 C1872 0.949 . S
H1868 C1874 0.950 . S
H1869 C1875 0.950 . S
H1870 C1876 0.949 . S
C1871 H1866 0.950 . S
C1871 C1873 1.327 . S
C1871 C1877 1.429 . S
C1872 C1864 1.574 . S
C1872 H1867 0.949 . S
C1872 C1878 1.368 . S
C1873 C1857 1.349 . S
C1873 H1865 0.950 . S
C1873 C1871 1.327 . S
C1874 C1862 1.349 . S
C1874 H1868 0.950 . S
C1874 C1875 1.327 1_545 S
C1875 H1869 0.950 . S
C1875 C1874 1.327 1_565 S
C1875 C1879 1.429 . S
C1876 C1859 1.574 . S
C1876 H1870 0.949 . S
C1876 C1880 1.368 . S
C1877 C1858 1.429 . S
C1877 C1871 1.429 . S
C1877 C1878 1.523 . S
C1878 C1859 1.368 . S
C1878 C1872 1.368 . S
C1878 C1877 1.523 . S
C1879 C1863 1.429 . S
C1879 C1875 1.429 . S
C1879 C1880 1.523 . S
C1880 C1864 1.368 . S
C1880 C1876 1.368 . S
C1880 C1879 1.523 . S
H1881 C1856 0.950 . S
H1882 C1858 0.950 . S
H1883 C1859 0.949 . S
H1884 C1861 0.950 . S
H1885 C1863 0.950 . S
C1886 C1887 1.349 . S
C1886 C1888 1.327 . S
C1886 H1911 0.950 . S
C1887 C1886 1.349 . S
C1887 C1903 1.349 . S
C1888 C1886 1.327 . S
C1888 C1907 1.429 . S
C1888 H1912 0.950 . S
C1889 C1906 1.574 . S
C1889 C1908 1.368 . S
C1889 H1913 0.949 . S
H1890 C1894 0.949 . S
C1891 C1892 1.349 . S
C1891 C1893 1.327 . S
C1891 H1914 0.950 . S
C1892 C1891 1.349 . S
C1892 C1904 1.349 . S
C1893 C1891 1.327 . S
C1893 C1909 1.429 . S
C1893 H1915 0.950 . S
C1894 H1890 0.949 . S
C1894 C1902 1.574 . S
C1894 C1910 1.368 . S
H1895 C1903 0.950 . S
H1896 C1901 0.950 . S
H1897 C1902 0.949 . S
H1898 C1904 0.950 . S
H1899 C1905 0.950 . S
H1900 C1906 0.949 . S
C1901 H1896 0.950 . S
C1901 C1903 1.327 . S
C1901 C1907 1.429 . S
C1902 C1894 1.574 . S
C1902 H1897 0.949 . S
C1902 C1908 1.368 . S
C1903 C1887 1.349 . S
C1903 H1895 0.950 . S
C1903 C1901 1.327 . S
C1904 C1892 1.349 . S
C1904 H1898 0.950 . S
C1904 C1905 1.327 . S
C1905 H1899 0.950 . S
C1905 C1904 1.327 . S
C1905 C1909 1.429 . S
C1906 C1889 1.574 . S
C1906 H1900 0.949 . S
C1906 C1910 1.368 . S
C1907 C1888 1.429 . S
C1907 C1901 1.429 . S
C1907 C1908 1.523 . S
C1908 C1889 1.368 . S
C1908 C1902 1.368 . S
C1908 C1907 1.523 . S
C1909 C1893 1.429 . S
C1909 C1905 1.429 . S
C1909 C1910 1.523 . S
C1910 C1894 1.368 . S
C1910 C1906 1.368 . S
C1910 C1909 1.523 . S
H1911 C1886 0.950 . S
H1912 C1888 0.950 . S
H1913 C1889 0.949 . S
H1914 C1891 0.950 . S
H1915 C1893 0.950 . S
C1916 C1917 1.349 . S
C1916 C1918 1.327 . S
C1916 H1941 0.950 . S
C1917 C1916 1.349 . S
C1917 C1933 1.349 . S
C1918 C1916 1.327 . S
C1918 C1937 1.429 . S
C1918 H1942 0.950 . S
C1919 C1936 1.574 . S
C1919 C1938 1.368 . S
C1919 H1943 0.949 . S
H1920 C1924 0.949 . S
C1921 C1922 1.349 . S
C1921 C1923 1.327 . S
C1921 H1944 0.950 . S
C1922 C1921 1.349 . S
C1922 C1934 1.349 . S
C1923 C1921 1.327 . S
C1923 C1939 1.429 . S
C1923 H1945 0.950 . S
C1924 H1920 0.949 . S
C1924 C1932 1.574 . S
C1924 C1940 1.368 . S
H1925 C1933 0.950 . S
H1926 C1931 0.950 . S
H1927 C1932 0.949 . S
H1928 C1934 0.950 . S
H1929 C1935 0.950 . S
H1930 C1936 0.949 . S
C1931 H1926 0.950 . S
C1931 C1933 1.327 . S
C1931 C1937 1.429 . S
C1932 C1924 1.574 . S
C1932 H1927 0.949 . S
C1932 C1938 1.368 . S
C1933 C1917 1.349 . S
C1933 H1925 0.950 . S
C1933 C1931 1.327 . S
C1934 C1922 1.349 . S
C1934 H1928 0.950 . S
C1934 C1935 1.327 . S
C1935 H1929 0.950 . S
C1935 C1934 1.327 . S
C1935 C1939 1.429 . S
C1936 C1919 1.574 . S
C1936 H1930 0.949 . S
C1936 C1940 1.368 . S
C1937 C1918 1.429 . S
C1937 C1931 1.429 . S
C1937 C1938 1.523 . S
C1938 C1919 1.368 . S
C1938 C1932 1.368 . S
C1938 C1937 1.523 . S
C1939 C1923 1.429 . S
C1939 C1935 1.429 . S
C1939 C1940 1.523 . S
C1940 C1924 1.368 . S
C1940 C1936 1.368 . S
C1940 C1939 1.523 . S
H1941 C1916 0.950 . S
H1942 C1918 0.950 . S
H1943 C1919 0.949 . S
H1944 C1921 0.950 . S
H1945 C1923 0.950 . S
C1946 C1947 1.349 . S
C1946 C1948 1.327 1_545 S
C1946 H1971 0.950 . S
C1947 C1946 1.349 . S
C1947 C1963 1.349 1_545 S
C1948 C1946 1.327 1_565 S
C1948 C1967 1.429 . S
C1948 H1972 0.950 . S
C1949 C1966 1.574 . S
C1949 C1968 1.368 . S
C1949 H1973 0.949 . S
H1950 C1954 0.949 . S
C1951 C1952 1.349 . S
C1951 C1953 1.327 . S
C1951 H1974 0.950 . S
C1952 C1951 1.349 . S
C1952 C1964 1.349 . S
C1953 C1951 1.327 . S
C1953 C1969 1.429 . S
C1953 H1975 0.950 . S
C1954 H1950 0.949 . S
C1954 C1962 1.574 . S
C1954 C1970 1.368 . S
H1955 C1963 0.950 1_545 S
H1956 C1961 0.950 . S
H1957 C1962 0.949 . S
H1958 C1964 0.950 . S
H1959 C1965 0.950 . S
H1960 C1966 0.949 . S
C1961 H1956 0.950 . S
C1961 C1963 1.327 . S
C1961 C1967 1.429 . S
C1962 C1954 1.574 . S
C1962 H1957 0.949 . S
C1962 C1968 1.368 . S
C1963 C1947 1.349 1_565 S
C1963 H1955 0.950 1_565 S
C1963 C1961 1.327 . S
C1964 C1952 1.349 . S
C1964 H1958 0.950 . S
C1964 C1965 1.327 . S
C1965 H1959 0.950 . S
C1965 C1964 1.327 . S
C1965 C1969 1.429 . S
C1966 C1949 1.574 . S
C1966 H1960 0.949 . S
C1966 C1970 1.368 . S
C1967 C1948 1.429 . S
C1967 C1961 1.429 . S
C1967 C1968 1.523 . S
C1968 C1949 1.368 . S
C1968 C1962 1.368 . S
C1968 C1967 1.523 . S
C1969 C1953 1.429 . S
C1969 C1965 1.429 . S
C1969 C1970 1.523 . S
C1970 C1954 1.368 . S
C1970 C1966 1.368 . S
C1970 C1969 1.523 . S
H1971 C1946 0.950 . S
H1972 C1948 0.950 . S
H1973 C1949 0.949 . S
H1974 C1951 0.950 . S
H1975 C1953 0.950 . S
C1976 C1977 1.349 . S
C1976 C1978 1.327 . S
C1976 H2001 0.950 . S
C1977 C1976 1.349 . S
C1977 C1993 1.349 . S
C1978 C1976 1.327 . S
C1978 C1997 1.429 . S
C1978 H2002 0.950 . S
C1979 C1996 1.574 . S
C1979 C1998 1.368 . S
C1979 H2003 0.949 . S
H1980 C1984 0.949 . S
C1981 C1982 1.349 . S
C1981 C1983 1.327 1_565 S
C1981 H2004 0.950 . S
C1982 C1981 1.349 . S
C1982 C1994 1.349 . S
C1983 C1981 1.327 1_545 S
C1983 C1999 1.429 . S
C1983 H2005 0.950 . S
C1984 H1980 0.949 . S
C1984 C1992 1.574 . S
C1984 C2000 1.368 . S
H1985 C1993 0.950 . S
H1986 C1991 0.950 . S
H1987 C1992 0.949 . S
H1988 C1994 0.950 . S
H1989 C1995 0.950 . S
H1990 C1996 0.949 . S
C1991 H1986 0.950 . S
C1991 C1993 1.327 . S
C1991 C1997 1.429 . S
C1992 C1984 1.574 . S
C1992 H1987 0.949 . S
C1992 C1998 1.368 . S
C1993 C1977 1.349 . S
C1993 H1985 0.950 . S
C1993 C1991 1.327 . S
C1994 C1982 1.349 . S
C1994 H1988 0.950 . S
C1994 C1995 1.327 1_565 S
C1995 H1989 0.950 . S
C1995 C1994 1.327 1_545 S
C1995 C1999 1.429 . S
C1996 C1979 1.574 . S
C1996 H1990 0.949 . S
C1996 C2000 1.368 . S
C1997 C1978 1.429 . S
C1997 C1991 1.429 . S
C1997 C1998 1.523 . S
C1998 C1979 1.368 . S
C1998 C1992 1.368 . S
C1998 C1997 1.523 . S
C1999 C1983 1.429 . S
C1999 C1995 1.429 . S
C1999 C2000 1.523 . S
C2000 C1984 1.368 . S
C2000 C1996 1.368 . S
C2000 C1999 1.523 . S
H2001 C1976 0.950 . S
H2002 C1978 0.950 . S
H2003 C1979 0.949 . S
H2004 C1981 0.950 . S
H2005 C1983 0.950 . S
C2006 C2007 1.349 . S
C2006 C2008 1.327 . S
C2006 H2031 0.950 . S
C2007 C2006 1.349 . S
C2007 C2023 1.349 . S
C2008 C2006 1.327 . S
C2008 C2027 1.429 . S
C2008 H2032 0.950 . S
C2009 C2026 1.574 . S
C2009 C2028 1.368 . S
C2009 H2033 0.949 . S
H2010 C2014 0.949 . S
C2011 C2012 1.349 . S
C2011 C2013 1.327 . S
C2011 H2034 0.950 . S
C2012 C2011 1.349 . S
C2012 C2024 1.349 . S
C2013 C2011 1.327 . S
C2013 C2029 1.429 . S
C2013 H2035 0.950 . S
C2014 H2010 0.949 . S
C2014 C2022 1.574 . S
C2014 C2030 1.368 . S
H2015 C2023 0.950 . S
H2016 C2021 0.950 . S
H2017 C2022 0.949 . S
H2018 C2024 0.950 . S
H2019 C2025 0.950 . S
H2020 C2026 0.949 . S
C2021 H2016 0.950 . S
C2021 C2023 1.327 . S
C2021 C2027 1.429 . S
C2022 C2014 1.574 . S
C2022 H2017 0.949 . S
C2022 C2028 1.368 . S
C2023 C2007 1.349 . S
C2023 H2015 0.950 . S
C2023 C2021 1.327 . S
C2024 C2012 1.349 . S
C2024 H2018 0.950 . S
C2024 C2025 1.327 . S
C2025 H2019 0.950 . S
C2025 C2024 1.327 . S
C2025 C2029 1.429 . S
C2026 C2009 1.574 . S
C2026 H2020 0.949 . S
C2026 C2030 1.368 . S
C2027 C2008 1.429 . S
C2027 C2021 1.429 . S
C2027 C2028 1.523 . S
C2028 C2009 1.368 . S
C2028 C2022 1.368 . S
C2028 C2027 1.523 . S
C2029 C2013 1.429 . S
C2029 C2025 1.429 . S
C2029 C2030 1.523 . S
C2030 C2014 1.368 . S
C2030 C2026 1.368 . S
C2030 C2029 1.523 . S
H2031 C2006 0.950 . S
H2032 C2008 0.950 . S
H2033 C2009 0.949 . S
H2034 C2011 0.950 . S
H2035 C2013 0.950 . S
C2036 C2037 1.349 . S
C2036 C2038 1.327 . S
C2036 H2061 0.950 . S
C2037 C2036 1.349 . S
C2037 C2053 1.349 . S
C2038 C2036 1.327 . S
C2038 C2057 1.429 . S
C2038 H2062 0.950 . S
C2039 C2056 1.574 . S
C2039 C2058 1.368 . S
C2039 H2063 0.949 . S
H2040 C2044 0.949 . S
C2041 C2042 1.349 . S
C2041 C2043 1.327 . S
C2041 H2064 0.950 . S
C2042 C2041 1.349 . S
C2042 C2054 1.349 . S
C2043 C2041 1.327 . S
C2043 C2059 1.429 . S
C2043 H2065 0.950 . S
C2044 H2040 0.949 . S
C2044 C2052 1.574 . S
C2044 C2060 1.368 . S
H2045 C2053 0.950 . S
H2046 C2051 0.950 . S
H2047 C2052 0.949 . S
H2048 C2054 0.950 . S
H2049 C2055 0.950 . S
H2050 C2056 0.949 . S
C2051 H2046 0.950 . S
C2051 C2053 1.327 . S
C2051 C2057 1.429 . S
C2052 C2044 1.574 . S
C2052 H2047 0.949 . S
C2052 C2058 1.368 . S
C2053 C2037 1.349 . S
C2053 H2045 0.950 . S
C2053 C2051 1.327 . S
C2054 C2042 1.349 . S
C2054 H2048 0.950 . S
C2054 C2055 1.327 . S
C2055 H2049 0.950 . S
C2055 C2054 1.327 . S
C2055 C2059 1.429 . S
C2056 C2039 1.574 . S
C2056 H2050 0.949 . S
C2056 C2060 1.368 . S
C2057 C2038 1.429 . S
C2057 C2051 1.429 . S
C2057 C2058 1.523 . S
C2058 C2039 1.368 . S
C2058 C2052 1.368 . S
C2058 C2057 1.523 . S
C2059 C2043 1.429 . S
C2059 C2055 1.429 . S
C2059 C2060 1.523 . S
C2060 C2044 1.368 . S
C2060 C2056 1.368 . S
C2060 C2059 1.523 . S
H2061 C2036 0.950 . S
H2062 C2038 0.950 . S
H2063 C2039 0.949 . S
H2064 C2041 0.950 . S
H2065 C2043 0.950 . S
C2066 C2067 1.349 . S
C2066 C2068 1.327 . S
C2066 H2091 0.950 . S
C2067 C2066 1.349 . S
C2067 C2083 1.349 . S
C2068 C2066 1.327 . S
C2068 C2087 1.429 . S
C2068 H2092 0.950 . S
C2069 C2086 1.574 . S
C2069 C2088 1.368 . S
C2069 H2093 0.949 . S
H2070 C2074 0.949 . S
C2071 C2072 1.349 1_545 S
C2071 C2073 1.327 . S
C2071 H2094 0.950 . S
C2072 C2071 1.349 1_565 S
C2072 C2084 1.349 . S
C2073 C2071 1.327 . S
C2073 C2089 1.429 . S
C2073 H2095 0.950 . S
C2074 H2070 0.949 . S
C2074 C2082 1.574 . S
C2074 C2090 1.368 . S
H2075 C2083 0.950 . S
H2076 C2081 0.950 . S
H2077 C2082 0.949 . S
H2078 C2084 0.950 . S
H2079 C2085 0.950 . S
H2080 C2086 0.949 . S
C2081 H2076 0.950 . S
C2081 C2083 1.327 . S
C2081 C2087 1.429 . S
C2082 C2074 1.574 . S
C2082 H2077 0.949 . S
C2082 C2088 1.368 . S
C2083 C2067 1.349 . S
C2083 H2075 0.950 . S
C2083 C2081 1.327 . S
C2084 C2072 1.349 . S
C2084 H2078 0.950 . S
C2084 C2085 1.327 1_565 S
C2085 H2079 0.950 . S
C2085 C2084 1.327 1_545 S
C2085 C2089 1.429 . S
C2086 C2069 1.574 . S
C2086 H2080 0.949 . S
C2086 C2090 1.368 . S
C2087 C2068 1.429 . S
C2087 C2081 1.429 . S
C2087 C2088 1.523 . S
C2088 C2069 1.368 . S
C2088 C2082 1.368 . S
C2088 C2087 1.523 . S
C2089 C2073 1.429 . S
C2089 C2085 1.429 . S
C2089 C2090 1.523 . S
C2090 C2074 1.368 . S
C2090 C2086 1.368 . S
C2090 C2089 1.523 . S
H2091 C2066 0.950 . S
H2092 C2068 0.950 . S
H2093 C2069 0.949 . S
H2094 C2071 0.950 . S
H2095 C2073 0.950 . S
C2096 C2097 1.349 . S
C2096 C2098 1.327 . S
C2096 H2121 0.950 . S
C2097 C2096 1.349 . S
C2097 C2113 1.349 . S
C2098 C2096 1.327 . S
C2098 C2117 1.429 . S
C2098 H2122 0.950 . S
C2099 C2116 1.574 . S
C2099 C2118 1.368 . S
C2099 H2123 0.949 . S
H2100 C2104 0.949 . S
C2101 C2102 1.349 1_565 S
C2101 C2103 1.327 . S
C2101 H2124 0.950 . S
C2102 C2101 1.349 1_545 S
C2102 C2114 1.349 . S
C2103 C2101 1.327 . S
C2103 C2119 1.429 . S
C2103 H2125 0.950 . S
C2104 H2100 0.949 . S
C2104 C2112 1.574 . S
C2104 C2120 1.368 . S
H2105 C2113 0.950 . S
H2106 C2111 0.950 . S
H2107 C2112 0.949 . S
H2108 C2114 0.950 . S
H2109 C2115 0.950 . S
H2110 C2116 0.949 . S
C2111 H2106 0.950 . S
C2111 C2113 1.327 . S
C2111 C2117 1.429 . S
C2112 C2104 1.574 . S
C2112 H2107 0.949 . S
C2112 C2118 1.368 . S
C2113 C2097 1.349 . S
C2113 H2105 0.950 . S
C2113 C2111 1.327 . S
C2114 C2102 1.349 . S
C2114 H2108 0.950 . S
C2114 C2115 1.327 1_545 S
C2115 H2109 0.950 . S
C2115 C2114 1.327 1_565 S
C2115 C2119 1.429 . S
C2116 C2099 1.574 . S
C2116 H2110 0.949 . S
C2116 C2120 1.368 . S
C2117 C2098 1.429 . S
C2117 C2111 1.429 . S
C2117 C2118 1.523 . S
C2118 C2099 1.368 . S
C2118 C2112 1.368 . S
C2118 C2117 1.523 . S
C2119 C2103 1.429 . S
C2119 C2115 1.429 . S
C2119 C2120 1.523 . S
C2120 C2104 1.368 . S
C2120 C2116 1.368 . S
C2120 C2119 1.523 . S
H2121 C2096 0.950 . S
H2122 C2098 0.950 . S
H2123 C2099 0.949 . S
H2124 C2101 0.950 . S
H2125 C2103 0.950 . S
C2126 C2127 1.349 . S
C2126 C2128 1.327 . S
C2126 H2151 0.950 . S
C2127 C2126 1.349 . S
C2127 C2143 1.349 . S
C2128 C2126 1.327 . S
C2128 C2147 1.429 . S
C2128 H2152 0.950 . S
C2129 C2146 1.574 . S
C2129 C2148 1.368 . S
C2129 H2153 0.949 . S
H2130 C2134 0.949 . S
C2131 C2132 1.349 . S
C2131 C2133 1.327 . S
C2131 H2154 0.950 . S
C2132 C2131 1.349 . S
C2132 C2144 1.349 . S
C2133 C2131 1.327 . S
C2133 C2149 1.429 . S
C2133 H2155 0.950 . S
C2134 H2130 0.949 . S
C2134 C2142 1.574 . S
C2134 C2150 1.368 . S
H2135 C2143 0.950 . S
H2136 C2141 0.950 . S
H2137 C2142 0.949 . S
H2138 C2144 0.950 . S
H2139 C2145 0.950 . S
H2140 C2146 0.949 . S
C2141 H2136 0.950 . S
C2141 C2143 1.327 . S
C2141 C2147 1.429 . S
C2142 C2134 1.574 . S
C2142 H2137 0.949 . S
C2142 C2148 1.368 . S
C2143 C2127 1.349 . S
C2143 H2135 0.950 . S
C2143 C2141 1.327 . S
C2144 C2132 1.349 . S
C2144 H2138 0.950 . S
C2144 C2145 1.327 . S
C2145 H2139 0.950 . S
C2145 C2144 1.327 . S
C2145 C2149 1.429 . S
C2146 C2129 1.574 . S
C2146 H2140 0.949 . S
C2146 C2150 1.368 . S
C2147 C2128 1.429 . S
C2147 C2141 1.429 . S
C2147 C2148 1.523 . S
C2148 C2129 1.368 . S
C2148 C2142 1.368 . S
C2148 C2147 1.523 . S
C2149 C2133 1.429 . S
C2149 C2145 1.429 . S
C2149 C2150 1.523 . S
C2150 C2134 1.368 . S
C2150 C2146 1.368 . S
C2150 C2149 1.523 . S
H2151 C2126 0.950 . S
H2152 C2128 0.950 . S
H2153 C2129 0.949 . S
H2154 C2131 0.950 . S
H2155 C2133 0.950 . S
C2156 C2157 1.349 . S
C2156 C2158 1.327 . S
C2156 H2181 0.950 . S
C2157 C2156 1.349 . S
C2157 C2173 1.349 . S
C2158 C2156 1.327 . S
C2158 C2177 1.429 . S
C2158 H2182 0.950 . S
C2159 C2176 1.574 . S
C2159 C2178 1.368 . S
C2159 H2183 0.949 . S
H2160 C2164 0.949 . S
C2161 C2162 1.349 . S
C2161 C2163 1.327 . S
C2161 H2184 0.950 . S
C2162 C2161 1.349 . S
C2162 C2174 1.349 . S
C2163 C2161 1.327 . S
C2163 C2179 1.429 . S
C2163 H2185 0.950 . S
C2164 H2160 0.949 . S
C2164 C2172 1.574 . S
C2164 C2180 1.368 . S
H2165 C2173 0.950 . S
H2166 C2171 0.950 . S
H2167 C2172 0.949 . S
H2168 C2174 0.950 . S
H2169 C2175 0.950 . S
H2170 C2176 0.949 . S
C2171 H2166 0.950 . S
C2171 C2173 1.327 . S
C2171 C2177 1.429 . S
C2172 C2164 1.574 . S
C2172 H2167 0.949 . S
C2172 C2178 1.368 . S
C2173 C2157 1.349 . S
C2173 H2165 0.950 . S
C2173 C2171 1.327 . S
C2174 C2162 1.349 . S
C2174 H2168 0.950 . S
C2174 C2175 1.327 . S
C2175 H2169 0.950 . S
C2175 C2174 1.327 . S
C2175 C2179 1.429 . S
C2176 C2159 1.574 . S
C2176 H2170 0.949 . S
C2176 C2180 1.368 . S
C2177 C2158 1.429 . S
C2177 C2171 1.429 . S
C2177 C2178 1.523 . S
C2178 C2159 1.368 . S
C2178 C2172 1.368 . S
C2178 C2177 1.523 . S
C2179 C2163 1.429 . S
C2179 C2175 1.429 . S
C2179 C2180 1.523 . S
C2180 C2164 1.368 . S
C2180 C2176 1.368 . S
C2180 C2179 1.523 . S
H2181 C2156 0.950 . S
H2182 C2158 0.950 . S
H2183 C2159 0.949 . S
H2184 C2161 0.950 . S
H2185 C2163 0.950 . S
C2186 C2187 1.349 1_565 S
C2186 C2188 1.327 . S
C2186 H2211 0.950 . S
C2187 C2186 1.349 1_545 S
C2187 C2203 1.349 . S
C2188 C2186 1.327 . S
C2188 C2207 1.429 . S
C2188 H2212 0.950 . S
C2189 C2206 1.574 . S
C2189 C2208 1.368 . S
C2189 H2213 0.949 . S
H2190 C2194 0.949 . S
C2191 C2192 1.349 . S
C2191 C2193 1.327 . S
C2191 H2214 0.950 . S
C2192 C2191 1.349 . S
C2192 C2204 1.349 . S
C2193 C2191 1.327 . S
C2193 C2209 1.429 . S
C2193 H2215 0.950 . S
C2194 H2190 0.949 . S
C2194 C2202 1.574 . S
C2194 C2210 1.368 . S
H2195 C2203 0.950 . S
H2196 C2201 0.950 . S
H2197 C2202 0.949 . S
H2198 C2204 0.950 . S
H2199 C2205 0.950 . S
H2200 C2206 0.949 . S
C2201 H2196 0.950 . S
C2201 C2203 1.327 1_565 S
C2201 C2207 1.429 . S
C2202 C2194 1.574 . S
C2202 H2197 0.949 . S
C2202 C2208 1.368 . S
C2203 C2187 1.349 . S
C2203 H2195 0.950 . S
C2203 C2201 1.327 1_545 S
C2204 C2192 1.349 . S
C2204 H2198 0.950 . S
C2204 C2205 1.327 . S
C2205 H2199 0.950 . S
C2205 C2204 1.327 . S
C2205 C2209 1.429 . S
C2206 C2189 1.574 . S
C2206 H2200 0.949 . S
C2206 C2210 1.368 . S
C2207 C2188 1.429 . S
C2207 C2201 1.429 . S
C2207 C2208 1.523 . S
C2208 C2189 1.368 . S
C2208 C2202 1.368 . S
C2208 C2207 1.523 . S
C2209 C2193 1.429 . S
C2209 C2205 1.429 . S
C2209 C2210 1.523 . S
C2210 C2194 1.368 . S
C2210 C2206 1.368 . S
C2210 C2209 1.523 . S
H2211 C2186 0.950 . S
H2212 C2188 0.950 . S
H2213 C2189 0.949 . S
H2214 C2191 0.950 . S
H2215 C2193 0.950 . S
C2216 C2217 1.349 . S
C2216 C2218 1.327 . S
C2216 H2241 0.950 . S
C2217 C2216 1.349 . S
C2217 C2233 1.349 . S
C2218 C2216 1.327 . S
C2218 C2237 1.429 . S
C2218 H2242 0.950 . S
C2219 C2236 1.574 . S
C2219 C2238 1.368 . S
C2219 H2243 0.949 . S
H2220 C2224 0.949 . S
C2221 C2222 1.349 . S
C2221 C2223 1.327 1_565 S
C2221 H2244 0.950 . S
C2222 C2221 1.349 . S
C2222 C2234 1.349 1_565 S
C2223 C2221 1.327 1_545 S
C2223 C2239 1.429 . S
C2223 H2245 0.950 . S
C2224 H2220 0.949 . S
C2224 C2232 1.574 . S
C2224 C2240 1.368 . S
H2225 C2233 0.950 . S
H2226 C2231 0.950 . S
H2227 C2232 0.949 . S
H2228 C2234 0.950 . S
H2229 C2235 0.950 . S
H2230 C2236 0.949 . S
C2231 H2226 0.950 . S
C2231 C2233 1.327 . S
C2231 C2237 1.429 . S
C2232 C2224 1.574 . S
C2232 H2227 0.949 . S
C2232 C2238 1.368 . S
C2233 C2217 1.349 . S
C2233 H2225 0.950 . S
C2233 C2231 1.327 . S
C2234 C2222 1.349 1_545 S
C2234 H2228 0.950 . S
C2234 C2235 1.327 . S
C2235 H2229 0.950 . S
C2235 C2234 1.327 . S
C2235 C2239 1.429 . S
C2236 C2219 1.574 . S
C2236 H2230 0.949 . S
C2236 C2240 1.368 . S
C2237 C2218 1.429 . S
C2237 C2231 1.429 . S
C2237 C2238 1.523 . S
C2238 C2219 1.368 . S
C2238 C2232 1.368 . S
C2238 C2237 1.523 . S
C2239 C2223 1.429 . S
C2239 C2235 1.429 . S
C2239 C2240 1.523 . S
C2240 C2224 1.368 . S
C2240 C2236 1.368 . S
C2240 C2239 1.523 . S
H2241 C2216 0.950 . S
H2242 C2218 0.950 . S
H2243 C2219 0.949 . S
H2244 C2221 0.950 . S
H2245 C2223 0.950 . S
C2246 C2247 1.349 . S
C2246 C2248 1.327 . S
C2246 H2271 0.950 . S
C2247 C2246 1.349 . S
C2247 C2263 1.349 . S
C2248 C2246 1.327 . S
C2248 C2267 1.429 . S
C2248 H2272 0.950 . S
C2249 C2266 1.574 . S
C2249 C2268 1.368 . S
C2249 H2273 0.949 . S
H2250 C2254 0.949 . S
C2251 C2252 1.349 . S
C2251 C2253 1.327 . S
C2251 H2274 0.950 . S
C2252 C2251 1.349 . S
C2252 C2264 1.349 . S
C2253 C2251 1.327 . S
C2253 C2269 1.429 . S
C2253 H2275 0.950 . S
C2254 H2250 0.949 . S
C2254 C2262 1.574 . S
C2254 C2270 1.368 . S
H2255 C2263 0.950 . S
H2256 C2261 0.950 . S
H2257 C2262 0.949 . S
H2258 C2264 0.950 . S
H2259 C2265 0.950 . S
H2260 C2266 0.949 . S
C2261 H2256 0.950 . S
C2261 C2263 1.327 . S
C2261 C2267 1.429 . S
C2262 C2254 1.574 . S
C2262 H2257 0.949 . S
C2262 C2268 1.368 . S
C2263 C2247 1.349 . S
C2263 H2255 0.950 . S
C2263 C2261 1.327 . S
C2264 C2252 1.349 . S
C2264 H2258 0.950 . S
C2264 C2265 1.327 . S
C2265 H2259 0.950 . S
C2265 C2264 1.327 . S
C2265 C2269 1.429 . S
C2266 C2249 1.574 . S
C2266 H2260 0.949 . S
C2266 C2270 1.368 . S
C2267 C2248 1.429 . S
C2267 C2261 1.429 . S
C2267 C2268 1.523 . S
C2268 C2249 1.368 . S
C2268 C2262 1.368 . S
C2268 C2267 1.523 . S
C2269 C2253 1.429 . S
C2269 C2265 1.429 . S
C2269 C2270 1.523 . S
C2270 C2254 1.368 . S
C2270 C2266 1.368 . S
C2270 C2269 1.523 . S
H2271 C2246 0.950 . S
H2272 C2248 0.950 . S
H2273 C2249 0.949 . S
H2274 C2251 0.950 . S
H2275 C2253 0.950 . S
C2276 C2277 1.349 . S
C2276 C2278 1.327 . S
C2276 H2301 0.950 . S
C2277 C2276 1.349 . S
C2277 C2293 1.349 . S
C2278 C2276 1.327 . S
C2278 C2297 1.429 . S
C2278 H2302 0.950 . S
C2279 C2296 1.574 . S
C2279 C2298 1.368 . S
C2279 H2303 0.949 . S
H2280 C2284 0.949 . S
C2281 C2282 1.349 . S
C2281 C2283 1.327 . S
C2281 H2304 0.950 . S
C2282 C2281 1.349 . S
C2282 C2294 1.349 . S
C2283 C2281 1.327 . S
C2283 C2299 1.429 . S
C2283 H2305 0.950 . S
C2284 H2280 0.949 . S
C2284 C2292 1.574 . S
C2284 C2300 1.368 . S
H2285 C2293 0.950 . S
H2286 C2291 0.950 . S
H2287 C2292 0.949 . S
H2288 C2294 0.950 . S
H2289 C2295 0.950 . S
H2290 C2296 0.949 . S
C2291 H2286 0.950 . S
C2291 C2293 1.327 . S
C2291 C2297 1.429 . S
C2292 C2284 1.574 . S
C2292 H2287 0.949 . S
C2292 C2298 1.368 . S
C2293 C2277 1.349 . S
C2293 H2285 0.950 . S
C2293 C2291 1.327 . S
C2294 C2282 1.349 . S
C2294 H2288 0.950 . S
C2294 C2295 1.327 . S
C2295 H2289 0.950 . S
C2295 C2294 1.327 . S
C2295 C2299 1.429 . S
C2296 C2279 1.574 . S
C2296 H2290 0.949 . S
C2296 C2300 1.368 . S
C2297 C2278 1.429 . S
C2297 C2291 1.429 . S
C2297 C2298 1.523 . S
C2298 C2279 1.368 . S
C2298 C2292 1.368 . S
C2298 C2297 1.523 . S
C2299 C2283 1.429 . S
C2299 C2295 1.429 . S
C2299 C2300 1.523 . S
C2300 C2284 1.368 . S
C2300 C2296 1.368 . S
C2300 C2299 1.523 . S
H2301 C2276 0.950 . S
H2302 C2278 0.950 . S
H2303 C2279 0.949 . S
H2304 C2281 0.950 . S
H2305 C2283 0.950 . S
C2306 C2307 1.349 1_545 S
C2306 C2308 1.327 . S
C2306 H2331 0.950 1_545 S
C2307 C2306 1.349 1_565 S
C2307 C2323 1.349 . S
C2308 C2306 1.327 . S
C2308 C2327 1.429 . S
C2308 H2332 0.950 . S
C2309 C2326 1.574 . S
C2309 C2328 1.368 . S
C2309 H2333 0.949 . S
H2310 C2314 0.949 . S
C2311 C2312 1.349 . S
C2311 C2313 1.327 . S
C2311 H2334 0.950 . S
C2312 C2311 1.349 . S
C2312 C2324 1.349 . S
C2313 C2311 1.327 . S
C2313 C2329 1.429 . S
C2313 H2335 0.950 . S
C2314 H2310 0.949 . S
C2314 C2322 1.574 . S
C2314 C2330 1.368 . S
H2315 C2323 0.950 . S
H2316 C2321 0.950 . S
H2317 C2322 0.949 . S
H2318 C2324 0.950 . S
H2319 C2325 0.950 . S
H2320 C2326 0.949 . S
C2321 H2316 0.950 . S
C2321 C2323 1.327 1_545 S
C2321 C2327 1.429 . S
C2322 C2314 1.574 . S
C2322 H2317 0.949 . S
C2322 C2328 1.368 . S
C2323 C2307 1.349 . S
C2323 H2315 0.950 . S
C2323 C2321 1.327 1_565 S
C2324 C2312 1.349 . S
C2324 H2318 0.950 . S
C2324 C2325 1.327 . S
C2325 H2319 0.950 . S
C2325 C2324 1.327 . S
C2325 C2329 1.429 . S
C2326 C2309 1.574 . S
C2326 H2320 0.949 . S
C2326 C2330 1.368 . S
C2327 C2308 1.429 . S
C2327 C2321 1.429 . S
C2327 C2328 1.523 . S
C2328 C2309 1.368 . S
C2328 C2322 1.368 . S
C2328 C2327 1.523 . S
C2329 C2313 1.429 . S
C2329 C2325 1.429 . S
C2329 C2330 1.523 . S
C2330 C2314 1.368 . S
C2330 C2326 1.368 . S
C2330 C2329 1.523 . S
H2331 C2306 0.950 1_565 S
H2332 C2308 0.950 . S
H2333 C2309 0.949 . S
H2334 C2311 0.950 . S
H2335 C2313 0.950 . S
C417 C5 1.401 . S
C422 C18 1.401 . S
C447 C44 1.401 . S
C452 C31 1.401 . S
C477 C57 1.401 . S
C482 C70 1.401 . S
C507 C83 1.401 . S
C512 C96 1.401 . S
C537 C109 1.401 . S
C542 C122 1.401 . S
C567 C135 1.401 . S
C572 C148 1.401 . S
C597 C161 1.401 . S
C602 C174 1.401 . S
C627 C187 1.401 . S
C632 C200 1.401 . S
C657 C226 1.401 . S
C662 C213 1.401 . S
C687 C252 1.401 . S
C692 C239 1.401 . S
C717 C278 1.401 . S
C722 C265 1.401 . S
C747 C304 1.401 . S
C752 C291 1.401 . S
C777 C330 1.401 . S
C782 C317 1.401 . S
C807 C356 1.401 . S
C812 C343 1.401 . S
C837 C382 1.401 . S
C842 C369 1.401 . S
C867 C408 1.401 . S
C872 C395 1.401 . S
C897 C0 1.270 . S
C902 C156 1.270 . S
C927 C13 1.270 . S
C932 C273 1.270 . S
C957 C26 1.270 . S
C962 C78 1.270 . S
C987 C39 1.270 . S
C992 C403 1.270 . S
C1017 C52 1.270 . S
C1022 C104 1.270 . S
C1047 C221 1.270 . S
C1052 C65 1.270 . S
C1077 C351 1.270 . S
C1082 C91 1.270 . S
C1107 C117 1.270 . S
C1112 C377 1.270 . S
C1137 C130 1.270 . S
C1142 C182 1.270 . S
C1167 C143 1.270 . S
C1172 C299 1.270 . S
C1197 C169 1.270 . S
C1202 C325 1.270 . S
C1227 C195 1.270 . S
C1232 C247 1.270 . S
C1257 C364 1.270 . S
C1262 C208 1.270 . S
C1287 C286 1.270 . S
C1292 C234 1.270 . S
C1317 C260 1.270 . S
C1322 C312 1.270 . S
C1347 C390 1.270 . S
C1352 C338 1.270 . S
C1377 C138 0.793 . S
C1382 C8 0.793 . S
C1407 C151 0.793 . S
C1412 C21 0.793 . S
C1437 C34 0.793 . S
C1442 C112 0.793 . S
C1467 C125 0.793 . S
C1472 C47 0.793 . S
C1497 C60 0.793 . S
C1502 C190 0.793 . S
C1527 C73 0.793 . S
C1532 C203 0.793 . S
C1557 C164 0.793 . S
C1562 C86 0.793 . S
C1587 C177 0.793 . S
C1592 C99 0.793 . S
C1617 C216 0.793 . S
C1622 C346 0.793 . S
C1647 C359 0.793 . S
C1652 C229 0.793 . S
C1677 C320 0.793 . S
C1682 C242 0.793 . S
C1707 C255 0.793 . S
C1712 C333 0.793 . S
C1737 C398 0.793 . S
C1742 C268 0.793 . S
C1767 C281 0.793 . S
C1772 C411 0.793 . S
C1797 C372 0.793 . S
C1802 C294 0.793 . S
C1827 C385 0.793 . S
C1832 C307 0.793 . S
C1857 C140 1.449 . S
C1862 C10 1.449 . S
C1887 C153 1.449 . S
C1892 C23 1.449 . S
C1917 C114 1.449 . S
C1922 C36 1.449 . S
C1947 C49 1.449 . S
C1952 C127 1.449 . S
C1977 C192 1.449 . S
C1982 C62 1.449 . S
C2007 C205 1.449 . S
C2012 C75 1.449 . S
C2037 C166 1.449 . S
C2042 C88 1.449 . S
C2067 C179 1.449 . S
C2072 C101 1.449 . S
C2097 C348 1.449 . S
C2102 C218 1.449 . S
C2127 C361 1.449 . S
C2132 C231 1.449 . S
C2157 C322 1.449 . S
C2162 C244 1.449 . S
C2187 C257 1.449 . S
C2192 C335 1.449 . S
C2217 C400 1.449 . S
C2222 C270 1.449 . S
C2247 C283 1.449 . S
C2252 C413 1.449 . S
C2277 C374 1.449 . S
C2282 C296 1.449 . S
C2307 C309 1.449 . S
C2312 C387 1.449 . S
