# Generated by pormake.
# Topology sml, (6)-cn, num edge types: 1
# Building blocks:
#     Node 0, Type 0, BuildingBlock: IZENUY_clean_sbu_0, # of connection points: 6
#     Node 1, Type 0, BuildingBlock: IZENUY_clean_sbu_0, # of connection points: 6
#     Node 2, Type 0, BuildingBlock: IZENUY_clean_sbu_0, # of connection points: 6
#     Node 3, Type 0, BuildingBlock: IZENUY_clean_sbu_0, # of connection points: 6
#     Node 4, Type 0, BuildingBlock: IZENUY_clean_sbu_0, # of connection points: 6
#     Node 5, Type 0, BuildingBlock: IZENUY_clean_sbu_0, # of connection points: 6
#     Edge 6, Type (0, 0), BuildingBlock: EZIPEK_clean_linker_0, # of connection points: 2
#     Edge 7, Type (0, 0), BuildingBlock: EZIPEK_clean_linker_0, # of connection points: 2
#     Edge 8, Type (0, 0), BuildingBlock: EZIPEK_clean_linker_0, # of connection points: 2
#     Edge 9, Type (0, 0), BuildingBlock: EZIPEK_clean_linker_0, # of connection points: 2
#     Edge 10, Type (0, 0), BuildingBlock: EZIPEK_clean_linker_0, # of connection points: 2
#     Edge 11, Type (0, 0), BuildingBlock: EZIPEK_clean_linker_0, # of connection points: 2
#     Edge 12, Type (0, 0), BuildingBlock: EZIPEK_clean_linker_0, # of connection points: 2
#     Edge 13, Type (0, 0), BuildingBlock: EZIPEK_clean_linker_0, # of connection points: 2
#     Edge 14, Type (0, 0), BuildingBlock: EZIPEK_clean_linker_0, # of connection points: 2
#     Edge 15, Type (0, 0), BuildingBlock: EZIPEK_clean_linker_0, # of connection points: 2
#     Edge 16, Type (0, 0), BuildingBlock: EZIPEK_clean_linker_0, # of connection points: 2
#     Edge 17, Type (0, 0), BuildingBlock: EZIPEK_clean_linker_0, # of connection points: 2
#     Edge 18, Type (0, 0), BuildingBlock: EZIPEK_clean_linker_0, # of connection points: 2
#     Edge 19, Type (0, 0), BuildingBlock: EZIPEK_clean_linker_0, # of connection points: 2
#     Edge 20, Type (0, 0), BuildingBlock: EZIPEK_clean_linker_0, # of connection points: 2
#     Edge 21, Type (0, 0), BuildingBlock: EZIPEK_clean_linker_0, # of connection points: 2
#     Edge 22, Type (0, 0), BuildingBlock: EZIPEK_clean_linker_0, # of connection points: 2
#     Edge 23, Type (0, 0), BuildingBlock: EZIPEK_clean_linker_0, # of connection points: 2
# Relax obj value: 0.327
# Max RMSD: 0.283
# Mean RMSD: 0.283
data_MOF--net-sml--node1-IZENUY_clean_sbu_0--edge1-EZIPEK_clean_linker_0
_symmetry_space_group_name_H-M    P1
_symmetry_Int_Tables_number       1
_symmetry_cell_setting            triclinic
loop_
_symmetry_equiv_pos_as_xyz
'x, y, z'
_cell_length_a     29.977156
_cell_length_b     30.118569
_cell_length_c     10.788088
_cell_angle_alpha  90.431274
_cell_angle_beta   90.051047
_cell_angle_gamma 119.83541
loop_
_atom_site_label
_atom_site_type_symbol
_atom_site_fract_x
_atom_site_fract_y
_atom_site_fract_z
_atom_type_partial_charge
Fe0 Fe 0.308 0.47737 0.14882 0.0
Fe1 Fe 0.21159 0.37505 0.08148 0.0
O2 O 0.24709 0.4426 0.0753 0.0
Fe3 Fe 0.22258 0.47539 0.98969 0.0
O4 O 0.2197 0.50813 0.12575 0.0
O5 O 0.29895 0.53383 0.18542 0.0
O6 O 0.28104 0.45286 0.29816 0.0
C7 C 0.24935 0.40723 0.32448 0.0
C8 C 0.33104 0.53488 0.94587 0.0
O9 O 0.2324 0.37257 0.24098 0.0
C10 C 0.20364 0.39669 0.83296 0.0
O11 O 0.32702 0.42755 0.12169 0.0
O12 O 0.26305 0.3708 0.00901 0.0
O13 O 0.28663 0.5305 0.9472 0.0
O14 O 0.33923 0.50401 0.00428 0.0
C15 C 0.1328 0.39422 0.10239 0.0
O16 O 0.18457 0.36616 0.923 0.0
O17 O 0.22567 0.44436 0.85066 0.0
C18 C 0.30965 0.39232 0.03907 0.0
O19 O 0.15723 0.37515 0.15183 0.0
O20 O 0.15336 0.42735 0.01707 0.0
C21 C 0.25952 0.53985 0.18387 0.0
Fe22 Fe 0.8375 0.28483 0.4117 0.0
Fe23 Fe 0.84475 0.19091 0.32571 0.0
O24 O 0.81012 0.22478 0.33445 0.0
Fe25 Fe 0.74734 0.19841 0.2709 0.0
O26 O 0.72031 0.19952 0.41958 0.0
O27 O 0.77593 0.27863 0.46363 0.0
O28 O 0.83828 0.25494 0.55298 0.0
C29 C 0.85755 0.22694 0.57418 0.0
C30 C 0.79489 0.30623 0.21842 0.0
O31 O 0.87259 0.20977 0.48494 0.0
C32 C 0.80105 0.18172 0.08501 0.0
O33 O 0.90506 0.30425 0.37449 0.0
O34 O 0.89912 0.24327 0.2523 0.0
O35 O 0.75571 0.26163 0.22646 0.0
O36 O 0.83618 0.31715 0.27386 0.0
C37 C 0.74671 0.11243 0.37717 0.0
O38 O 0.82274 0.16743 0.16475 0.0
O39 O 0.76994 0.19567 0.11923 0.0
C40 C 0.92376 0.28855 0.29088 0.0
O41 O 0.79399 0.13519 0.39965 0.0
O42 O 0.72762 0.13113 0.30347 0.0
C43 C 0.73211 0.23987 0.47975 0.0
Fe44 Fe 0.56867 0.73615 0.54638 0.0
Fe45 Fe 0.56976 0.82078 0.70649 0.0
O46 O 0.60326 0.797 0.61963 0.0
Fe47 Fe 0.67116 0.83297 0.61218 0.0
O48 O 0.67663 0.78194 0.68171 0.0
O49 O 0.61934 0.71796 0.5703 0.0
O50 O 0.54265 0.70522 0.6917 0.0
C51 C 0.51123 0.71292 0.75046 0.0
C52 C 0.63806 0.79493 0.36912 0.0
O53 O 0.51506 0.75685 0.7492 0.0
C54 C 0.65092 0.91108 0.59576 0.0
O55 O 0.51131 0.74414 0.51183 0.0
O56 O 0.53616 0.8229 0.57129 0.0
O57 O 0.67333 0.81288 0.45132 0.0
O58 O 0.59256 0.76283 0.39683 0.0
C59 C 0.64934 0.8401 0.86137 0.0
O60 O 0.61712 0.88997 0.67983 0.0
O61 O 0.67038 0.8871 0.54498 0.0
C62 C 0.50444 0.78288 0.51377 0.0
O63 O 0.60143 0.81817 0.84425 0.0
O64 O 0.68007 0.85928 0.77139 0.0
C65 C 0.65547 0.73564 0.65056 0.0
Fe66 Fe 0.84786 0.56166 0.88793 0.0
Fe67 Fe 0.75994 0.55943 0.0366 0.0
O68 O 0.82072 0.59435 0.96467 0.0
Fe69 Fe 0.85357 0.66175 0.96884 0.0
O70 O 0.90805 0.6651 0.04616 0.0
O71 O 0.91639 0.61068 0.92577 0.0
O72 O 0.84817 0.53055 0.02984 0.0
C73 C 0.80673 0.49721 0.07662 0.0
C74 C 0.86624 0.63786 0.72291 0.0
O75 O 0.76736 0.50284 0.07191 0.0
C76 C 0.7556 0.64261 0.92652 0.0
O77 O 0.78402 0.50615 0.8393 0.0
O78 O 0.72999 0.5319 0.88968 0.0
O79 O 0.88223 0.66954 0.81289 0.0
O80 O 0.84795 0.59073 0.74216 0.0
C81 C 0.81738 0.63158 0.21163 0.0
O82 O 0.74042 0.60907 0.01152 0.0
O83 O 0.80116 0.6625 0.89012 0.0
C84 C 0.73879 0.50011 0.83379 0.0
O85 O 0.7883 0.58483 0.18668 0.0
O86 O 0.83077 0.66498 0.12675 0.0
C87 C 0.93392 0.64508 0.0108 0.0
Fe88 Fe 0.29908 0.83267 0.27339 0.0
Fe89 Fe 0.20987 0.74931 0.42116 0.0
O90 O 0.2384 0.8089 0.34501 0.0
Fe91 Fe 0.20617 0.84468 0.34056 0.0
O92 O 0.25858 0.89813 0.41947 0.0
O93 O 0.32055 0.90109 0.30596 0.0
O94 O 0.32882 0.83267 0.41875 0.0
C95 C 0.31756 0.79205 0.47599 0.0
C96 C 0.24344 0.85097 0.09847 0.0
O97 O 0.27191 0.75463 0.46873 0.0
C98 C 0.12505 0.74809 0.29745 0.0
O99 O 0.28938 0.76877 0.2318 0.0
O100 O 0.20913 0.71632 0.27978 0.0
O101 O 0.22946 0.87057 0.18406 0.0
O102 O 0.27174 0.83223 0.12316 0.0
C103 C 0.19355 0.80967 0.5864 0.0
O104 O 0.14192 0.73213 0.38488 0.0
O105 O 0.15191 0.79343 0.26139 0.0
C106 C 0.2496 0.72483 0.22337 0.0
O107 O 0.21083 0.7797 0.56702 0.0
O108 O 0.17729 0.82485 0.4965 0.0
C109 C 0.30524 0.91973 0.39108 0.0
Fe110 Fe 0.48082 0.20279 0.77111 0.0
Fe111 Fe 0.38048 0.19859 0.69567 0.0
O112 O 0.44832 0.23026 0.69571 0.0
Fe113 Fe 0.48366 0.29074 0.62471 0.0
O114 O 0.51265 0.32009 0.77081 0.0
O115 O 0.53766 0.26569 0.81871 0.0
O116 O 0.45206 0.20372 0.91722 0.0
C117 C 0.40496 0.18601 0.93878 0.0
C118 C 0.54397 0.24165 0.57585 0.0
O119 O 0.37281 0.16988 0.85029 0.0
C120 C 0.40984 0.23486 0.4516 0.0
O121 O 0.43068 0.13486 0.73005 0.0
O122 O 0.37508 0.1438 0.6185 0.0
O123 O 0.53891 0.28121 0.58307 0.0
O124 O 0.51235 0.20179 0.63154 0.0
C125 C 0.40161 0.29649 0.74154 0.0
O126 O 0.37666 0.22125 0.53806 0.0
O127 O 0.45686 0.26352 0.47533 0.0
C128 C 0.39451 0.11725 0.64855 0.0
O129 O 0.3816 0.25114 0.77667 0.0
O130 O 0.43506 0.31164 0.65553 0.0
C131 C 0.54448 0.31099 0.82485 0.0
C132 C 0.41068 0.37992 0.83871 0.0
C133 C 0.38007 0.32772 0.80042 0.0
C134 C 0.31323 0.31818 0.94673 0.0
C135 C 0.34055 0.37112 0.9774 0.0
N136 N 0.414 0.45441 0.93781 0.0
N137 N 0.29385 0.25578 0.78392 0.0
C138 C 0.38907 0.40268 0.91946 0.0
C139 C 0.32863 0.29975 0.84375 0.0
N140 N 0.46042 0.40783 0.80053 0.0
N141 N 0.27195 0.2853 0.01629 0.0
H142 H 0.3024 0.24394 0.70043 0.0
H143 H 0.25506 0.23519 0.80731 0.0
H144 H 0.26278 0.29655 0.09983 0.0
H145 H 0.25012 0.24619 0.99814 0.0
H146 H 0.48606 0.44408 0.83542 0.0
H147 H 0.47701 0.39426 0.73719 0.0
H148 H 0.44491 0.4801 0.88432 0.0
H149 H 0.40262 0.47212 0.00342 0.0
C150 C 0.03651 0.34419 0.06399 0.0
C151 C 0.0785 0.37451 0.14357 0.0
C152 C 1.01936 0.34943 0.32133 0.0
C153 C 0.97678 0.32186 0.24083 0.0
N154 N 0.9448 0.30366 0.03067 0.0
N155 N 0.10787 0.41552 0.34136 0.0
C156 C 0.98542 0.32249 0.11066 0.0
C157 C 0.06903 0.38007 0.26995 0.0
N158 N 0.04521 0.33391 0.94569 0.0
N159 N 1.01368 0.3436 0.44694 0.0
H160 H 0.14474 0.43679 0.30653 0.0
H161 H 0.10167 0.42732 0.42731 0.0
H162 H 0.97882 0.31938 0.48968 0.0
H163 H 0.04476 0.35879 0.50838 0.0
H164 H 1.01645 0.30678 0.88825 0.0
H165 H 0.08193 0.34938 0.90818 0.0
H166 H 0.9495 0.30747 0.9353 0.0
H167 H 0.90707 0.28935 0.06005 0.0
C168 C 0.68726 0.01703 0.36205 0.0
C169 C 0.71423 0.06162 0.43594 0.0
C170 C 0.69457 1.00809 0.62267 0.0
C171 C 0.66686 0.96354 0.54823 0.0
N172 N 0.62456 0.9274 0.35517 0.0
N173 N 0.73158 0.10026 0.63975 0.0
C174 C 0.65947 0.96883 0.42061 0.0
C175 C 0.71409 0.05733 0.56751 0.0
N176 N 0.69076 0.01982 0.23567 0.0
N177 N 0.7046 1.00361 0.74398 0.0
H178 H 0.74604 0.13672 0.60251 0.0
H179 H 0.72744 0.09922 0.73571 0.0
H180 H 0.69091 0.96828 0.78673 0.0
H181 H 0.72936 0.03469 0.79943 0.0
H182 H 0.67662 0.98754 0.17845 0.0
H183 H 0.71144 0.0541 0.18804 0.0
H184 H 0.6105 0.93073 0.26978 0.0
H185 H 0.60534 0.8913 0.39445 0.0
C186 C 0.64718 0.65592 0.76184 0.0
C187 C 0.6779 0.7052 0.70771 0.0
C188 C 0.75095 0.71604 0.83344 0.0
C189 C 0.72382 0.6642 0.8718 0.0
N190 N 0.64442 0.58305 0.86479 0.0
N191 N 0.76378 0.77421 0.6673 0.0
C192 C 0.6713 0.63357 0.83435 0.0
C193 C 0.73132 0.73245 0.73551 0.0
N194 N 0.595 0.63089 0.74817 0.0
N195 N 0.79509 0.75038 0.89353 0.0
H196 H 0.75172 0.78454 0.58717 0.0
H197 H 0.80342 0.79474 0.68185 0.0
H198 H 0.80817 0.74092 0.9733 0.0
H199 H 0.81446 0.78942 0.87433 0.0
H200 H 0.57023 0.59901 0.79996 0.0
H201 H 0.57598 0.64327 0.68966 0.0
H202 H 0.60803 0.55782 0.82936 0.0
H203 H 0.65915 0.56536 0.92058 0.0
C204 C 0.04964 0.66267 0.20841 0.0
C205 C 0.07281 0.71632 0.23543 0.0
C206 C 1.01461 0.72146 0.08314 0.0
C207 C 0.98697 0.66765 0.06696 0.0
N208 N 0.97483 0.58565 0.12891 0.0
N209 N 0.05938 0.78914 0.23235 0.0
C210 C 1.00362 0.63776 0.13347 0.0
C211 C 0.04991 0.74339 0.18265 0.0
N212 N 0.07138 0.63524 0.25106 0.0
N213 N 1.00689 0.75203 0.00343 0.0
H214 H 0.08018 0.80392 0.31451 0.0
H215 H 0.04061 0.80839 0.20185 0.0
H216 H 0.98268 0.73731 0.92622 0.0
H217 H 0.02899 0.79187 0.00658 0.0
H218 H 0.05918 0.59775 0.22305 0.0
H219 H 0.1034 0.65019 0.30878 0.0
H220 H 0.98039 0.56179 0.18861 0.0
H221 H 0.94339 0.56626 0.06986 0.0
C222 C 0.35472 0.05774 0.45738 0.0
C223 C 0.37347 0.0652 0.58378 0.0
C224 C 0.35004 0.9738 0.58057 0.0
C225 C 0.33957 0.97055 0.45106 0.0
N226 N 0.34648 1.01442 0.26151 0.0
N227 N 0.38749 0.02614 0.7646 0.0
C228 C 0.34829 1.01469 0.38803 0.0
C229 C 0.3718 0.02226 0.64418 0.0
N230 N 0.33676 0.08714 0.40504 0.0
N231 N 0.33615 0.92988 0.64462 0.0
H232 H 0.3935 0.05608 0.82364 0.0
H233 H 0.39462 0.99916 0.80618 0.0
H234 H 0.31972 0.89402 0.6016 0.0
H235 H 0.33736 0.92826 0.74083 0.0
H236 H 0.32003 0.07958 0.31705 0.0
H237 H 0.32887 0.11258 0.4516 0.0
H238 H 0.35553 0.04698 0.21029 0.0
H239 H 0.34106 0.98314 0.20796 0.0
C240 C 0.21535 0.34991 0.65133 0.0
C241 C 0.19471 0.37937 0.70189 0.0
C242 C 0.20857 0.42465 0.5096 0.0
C243 C 0.22913 0.39548 0.45383 0.0
N244 N 0.24525 0.32449 0.46901 0.0
N245 N 0.15145 0.42653 0.66496 0.0
C246 C 0.22937 0.35541 0.52306 0.0
C247 C 0.18334 0.40933 0.62395 0.0
N248 N 0.22423 0.31911 0.72704 0.0
N249 N 0.21567 0.46908 0.45966 0.0
H250 H 0.13227 0.41476 0.74949 0.0
H251 H 0.14121 0.44885 0.61206 0.0
H252 H 0.22978 0.48139 0.37197 0.0
H253 H 0.20885 0.49504 0.50889 0.0
H254 H 0.24521 0.30178 0.70014 0.0
H255 H 0.21102 0.31162 0.81795 0.0
H256 H 0.24079 0.29131 0.5098 0.0
H257 H 0.26121 0.33071 0.38075 0.0
C258 C 0.82886 0.1556 0.88319 0.0
C259 C 0.8174 0.18978 0.95064 0.0
C260 C 0.8614 0.25334 0.79025 0.0
C261 C 0.86133 0.21661 0.70895 0.0
N262 N 0.84693 0.13079 0.68178 0.0
N263 N 0.80429 0.26349 0.9241 0.0
C264 C 0.8465 0.16719 0.75688 0.0
C265 C 0.82822 0.23653 0.89231 0.0
N266 N 0.82059 0.11122 0.9365 0.0
N267 N 0.88906 0.30416 0.76244 0.0
H268 H 0.77224 0.25007 0.98035 0.0
H269 H 0.81036 0.29577 0.87512 0.0
H270 H 0.91435 0.31729 0.68749 0.0
H271 H 0.89084 0.33257 0.82168 0.0
H272 H 0.83358 0.08788 0.8982 0.0
H273 H 0.80161 0.09825 0.02066 0.0
H274 H 0.82991 0.09232 0.70548 0.0
H275 H 0.86338 0.13889 0.59411 0.0
C276 C 0.68981 0.81385 0.17001 0.0
C277 C 0.64915 0.81379 0.23897 0.0
C278 C 0.63593 0.85975 0.07021 0.0
C279 C 0.66662 0.84894 0.99222 0.0
N280 N 0.72644 0.8185 0.96594 0.0
N281 N 0.57334 0.82435 0.22939 0.0
C282 C 0.69574 0.82789 0.04206 0.0
C283 C 0.61937 0.83346 0.18268 0.0
N284 N 0.72085 0.79818 0.22387 0.0
N285 N 0.61836 0.89116 0.02934 0.0
H286 H 0.55851 0.80716 0.31324 0.0
H287 H 0.5479 0.83175 0.17977 0.0
H288 H 0.63117 0.9111 0.94624 0.0
H289 H 0.59425 0.89992 0.08025 0.0
H290 H 0.75434 0.80284 0.18291 0.0
H291 H 0.7143 0.78209 0.31176 0.0
H292 H 0.74314 0.79685 0.99187 0.0
H293 H 0.73427 0.83177 0.87525 0.0
C294 C 0.88964 0.63236 0.50446 0.0
C295 C 0.87082 0.65437 0.5908 0.0
C296 C 0.82892 0.67483 0.42146 0.0
C297 C 0.84108 0.64566 0.33828 0.0
N298 N 0.884 0.5969 0.30002 0.0
N299 N 0.84138 0.71458 0.62486 0.0
C300 C 0.87259 0.62536 0.37924 0.0
C301 C 0.84632 0.68135 0.54739 0.0
N302 N 0.92528 0.61963 0.54293 0.0
N303 N 0.79764 0.69302 0.38262 0.0
H304 H 0.85629 0.72252 0.71446 0.0
H305 H 0.82886 0.73929 0.59524 0.0
H306 H 0.78492 0.68956 0.29117 0.0
H307 H 0.7816 0.70865 0.44193 0.0
H308 H 0.94494 0.60799 0.48354 0.0
H309 H 0.93922 0.62614 0.63391 0.0
H310 H 0.90029 0.57504 0.3276 0.0
H311 H 0.87459 0.5928 0.20658 0.0
C312 C 0.21648 0.87401 0.76319 0.0
C313 C 0.18947 0.82264 0.71876 0.0
C314 C 0.18669 0.79136 0.92893 0.0
C315 C 0.22041 0.84249 0.97103 0.0
N316 N 0.26609 0.93296 0.93079 0.0
N317 N 0.13114 0.73494 0.76498 0.0
C318 C 0.23399 0.88413 0.88945 0.0
C319 C 0.16887 0.78215 0.80418 0.0
N320 N 0.22403 0.91272 0.68569 0.0
N321 N 0.17379 0.75114 0.0063 0.0
H322 H 0.11704 0.72829 0.67413 0.0
H323 H 0.1101 0.70426 0.82373 0.0
H324 H 0.18498 0.75574 0.09866 0.0
H325 H 0.15454 0.71305 0.97755 0.0
H326 H 0.24118 0.95102 0.71212 0.0
H327 H 0.20791 0.90577 0.59732 0.0
H328 H 0.28219 0.96494 0.87412 0.0
H329 H 0.27891 0.94142 0.02238 0.0
C330 C 0.42073 0.18348 0.28158 0.0
C331 C 0.39598 0.21061 0.32505 0.0
C332 C 0.35807 0.2015 0.11723 0.0
C333 C 0.38923 0.18163 0.07173 0.0
N334 N 0.43193 0.13441 0.11721 0.0
N335 N 0.34129 0.24618 0.2837 0.0
C336 C 0.41495 0.16673 0.15651 0.0
C337 C 0.36353 0.21863 0.24353 0.0
N338 N 0.45124 0.1748 0.35948 0.0
N339 N 0.32185 0.20211 0.04209 0.0
H340 H 0.34411 0.25879 0.37519 0.0
H341 H 0.32291 0.25942 0.22506 0.0
H342 H 0.31566 0.18899 0.95086 0.0
H343 H 0.29326 0.20879 0.07575 0.0
H344 H 0.47797 0.16496 0.32809 0.0
H345 H 0.45089 0.17925 0.45484 0.0
H346 H 0.44715 0.11785 0.17553 0.0
H347 H 0.42521 0.11933 0.02725 0.0
C348 C 0.21378 0.58824 0.22726 0.0
C349 C 0.26152 0.5894 0.21902 0.0
C350 C 0.30311 0.68192 0.17735 0.0
C351 C 0.25441 0.67927 0.18528 0.0
N352 N 0.16371 0.62468 0.15233 0.0
N353 N 0.35363 0.64176 0.22815 0.0
C354 C 0.20982 0.63075 0.19009 0.0
C355 C 0.30702 0.63755 0.20513 0.0
N356 N 0.17242 0.54706 0.27745 0.0
N357 N 0.34459 0.72526 0.13396 0.0
H358 H 0.35678 0.61268 0.27153 0.0
H359 H 0.38836 0.67598 0.22339 0.0
H360 H 0.34113 0.75509 0.09577 0.0
H361 H 0.38033 0.72856 0.11775 0.0
H362 H 0.13735 0.54556 0.29299 0.0
H363 H 0.17651 0.5185 0.31992 0.0
H364 H 0.13084 0.58877 0.14325 0.0
H365 H 0.16057 0.65479 0.11454 0.0
C366 C 0.64211 0.19861 0.55422 0.0
C367 C 0.68884 0.2444 0.53758 0.0
C368 C 0.64137 0.2919 0.53575 0.0
C369 C 0.59377 0.24437 0.53699 0.0
N370 N 0.55236 0.1523 0.50471 0.0
N371 N 0.73495 0.33626 0.55551 0.0
C372 C 0.59525 0.19773 0.53379 0.0
C373 C 0.68914 0.29177 0.54288 0.0
N374 N 0.64266 0.15583 0.59289 0.0
N375 N 0.64109 0.33687 0.52334 0.0
H376 H 0.76804 0.33669 0.58684 0.0
H377 H 0.73998 0.37277 0.5464 0.0
H378 H 0.61037 0.33857 0.48346 0.0
H379 H 0.67246 0.37295 0.53991 0.0
H380 H 0.60945 0.12209 0.6166 0.0
H381 H 0.67692 0.15676 0.61631 0.0
H382 H 0.55315 0.11839 0.49073 0.0
H383 H 0.51762 0.14945 0.47925 0.0
C384 C 0.38224 0.58828 0.76652 0.0
C385 C 0.37622 0.58136 0.89601 0.0
C386 C 0.45565 0.66368 0.92923 0.0
C387 C 0.4645 0.6679 0.80012 0.0
N388 N 0.44267 0.62447 0.59952 0.0
N389 N 0.41761 0.60546 0.09858 0.0
C390 C 0.42978 0.62748 0.71944 0.0
C391 C 0.41577 0.61697 0.97719 0.0
N392 N 0.34322 0.55685 0.6878 0.0
N393 N 0.48601 0.70349 0.0071 0.0
H394 H 0.39084 0.57151 0.13957 0.0
H395 H 0.44886 0.62785 0.15651 0.0
H396 H 0.51764 0.73733 0.97703 0.0
H397 H 0.47734 0.70421 0.10043 0.0
H398 H 0.34373 0.56378 0.59313 0.0
H399 H 0.30868 0.52613 0.71812 0.0
H400 H 0.42115 0.59253 0.54299 0.0
H401 H 0.47661 0.65139 0.55818 0.0
C402 C 0.75468 0.36288 0.20803 0.0
C403 C 0.79115 0.34949 0.16302 0.0
C404 C 0.82916 0.42718 0.03809 0.0
C405 C 0.80089 0.44604 0.10553 0.0
N406 N 0.74362 0.43329 0.27628 0.0
N407 N 0.86874 0.37463 0.04511 0.0
C408 C 0.76529 0.4142 0.19612 0.0
C409 C 0.83028 0.38356 0.08184 0.0
N410 N 0.70992 0.32749 0.26175 0.0
N411 N 0.85221 0.44805 0.92775 0.0
H412 H 0.8696 0.34146 0.06654 0.0
H413 H 0.90136 0.4019 0.99881 0.0
H414 H 0.84833 0.47615 0.88193 0.0
H415 H 0.86906 0.43203 0.87208 0.0
H416 H 0.68062 0.33534 0.28314 0.0
H417 H 0.69898 0.28913 0.27128 0.0
H418 H 0.72072 0.41229 0.35028 0.0
H419 H 0.75348 0.47171 0.27882 0.0
C420 C 0.35926 0.73583 0.50499 0.0
C421 C 0.36191 0.78453 0.51305 0.0
C422 C 0.45393 0.82668 0.47649 0.0
C423 C 0.45392 0.77973 0.47949 0.0
N424 N 0.40402 0.68772 0.47667 0.0
N425 N 0.41609 0.87376 0.56323 0.0
C426 C 0.40568 0.73356 0.48766 0.0
C427 C 0.41077 0.82901 0.51787 0.0
N428 N 0.31288 0.69197 0.51493 0.0
N429 N 0.49479 0.86903 0.42861 0.0
H430 H 0.38535 0.87521 0.60401 0.0
H431 H 0.45184 0.90677 0.57461 0.0
H432 H 0.52366 0.86614 0.38251 0.0
H433 H 0.49554 0.9038 0.41833 0.0
H434 H 0.30618 0.65581 0.48945 0.0
H435 H 0.28124 0.69134 0.55644 0.0
H436 H 0.37272 0.6528 0.50165 0.0
H437 H 0.43303 0.68442 0.43225 0.0
C438 C 0.64458 0.44781 0.79879 0.0
C439 C 0.69197 0.44863 0.80544 0.0
C440 C 0.64343 0.35565 0.85206 0.0
C441 C 0.59664 0.35731 0.85232 0.0
N442 N 0.5612 0.41233 0.89078 0.0
N443 N 0.73486 0.39884 0.80194 0.0
C444 C 0.59991 0.40568 0.84545 0.0
C445 C 0.69116 0.40117 0.82243 0.0
N446 N 0.64184 0.48709 0.74443 0.0
N447 N 0.64281 0.31204 0.88862 0.0
H448 H 0.76688 0.42835 0.75915 0.0
H449 H 0.7376 0.36593 0.81045 0.0
H450 H 0.61046 0.28152 0.92788 0.0
H451 H 0.67528 0.3082 0.89633 0.0
H452 H 0.60677 0.48556 0.72819 0.0
H453 H 0.67376 0.51759 0.70297 0.0
H454 H 0.56456 0.44845 0.89756 0.0
H455 H 0.52955 0.38305 0.93607 0.0
loop_
_geom_bond_atom_site_label_1
_geom_bond_atom_site_label_2
_geom_bond_distance
_geom_bond_site_symmetry_2
_ccdc_geom_bond_type
Fe0 O2 1.918 1_554 S
Fe0 O5 1.997 . S
Fe0 O6 2.002 . S
Fe0 O11 1.976 . S
Fe0 O14 1.996 1_554 S
Fe1 O2 1.918 . S
Fe1 O9 1.997 1_556 S
Fe1 O12 1.996 . S
Fe1 O16 1.976 . S
Fe1 O19 2.002 1_556 S
O2 Fe0 1.918 1_556 S
O2 Fe1 1.918 . S
O2 Fe3 1.918 . S
Fe3 O2 1.918 . S
Fe3 O4 2.002 1_556 S
Fe3 O13 1.976 . S
Fe3 O17 1.996 . S
Fe3 O20 1.997 . S
O4 Fe3 2.002 1_554 S
O4 C21 1.295 . S
O5 Fe0 1.997 . S
O5 C21 1.235 . S
O6 Fe0 2.002 . S
O6 C7 1.295 . S
C7 O6 1.295 . S
C7 O9 1.235 . S
C8 O13 1.287 . S
C8 O14 1.255 . S
O9 Fe1 1.997 1_554 S
O9 C7 1.235 . S
C10 O16 1.287 . S
C10 O17 1.255 . S
O11 Fe0 1.976 . S
O11 C18 1.287 . S
O12 Fe1 1.996 . S
O12 C18 1.255 1_556 S
O13 Fe3 1.976 . S
O13 C8 1.287 . S
O14 Fe0 1.996 1_556 S
O14 C8 1.255 . S
C15 O19 1.295 1_556 S
C15 O20 1.236 . S
O16 Fe1 1.976 . S
O16 C10 1.287 . S
O17 Fe3 1.996 . S
O17 C10 1.255 . S
C18 O11 1.287 . S
C18 O12 1.255 1_554 S
O19 Fe1 2.002 1_554 S
O19 C15 1.295 1_554 S
O20 Fe3 1.997 . S
O20 C15 1.236 . S
C21 O4 1.295 . S
C21 O5 1.235 . S
Fe22 O24 1.918 . S
Fe22 O27 1.997 . S
Fe22 O28 2.002 . S
Fe22 O33 1.976 . S
Fe22 O36 1.996 . S
Fe23 O24 1.918 . S
Fe23 O31 1.997 . S
Fe23 O34 1.996 . S
Fe23 O38 1.976 . S
Fe23 O41 2.002 . S
O24 Fe22 1.918 . S
O24 Fe23 1.918 . S
O24 Fe25 1.918 . S
Fe25 O24 1.918 . S
Fe25 O26 2.002 . S
Fe25 O35 1.976 . S
Fe25 O39 1.996 . S
Fe25 O42 1.997 . S
O26 Fe25 2.002 . S
O26 C43 1.295 . S
O27 Fe22 1.997 . S
O27 C43 1.235 . S
O28 Fe22 2.002 . S
O28 C29 1.295 . S
C29 O28 1.295 . S
C29 O31 1.235 . S
C30 O35 1.287 . S
C30 O36 1.255 . S
O31 Fe23 1.997 . S
O31 C29 1.235 . S
C32 O38 1.287 . S
C32 O39 1.255 . S
O33 Fe22 1.976 . S
O33 C40 1.287 . S
O34 Fe23 1.996 . S
O34 C40 1.255 . S
O35 Fe25 1.976 . S
O35 C30 1.287 . S
O36 Fe22 1.996 . S
O36 C30 1.255 . S
C37 O41 1.295 . S
C37 O42 1.235 . S
O38 Fe23 1.976 . S
O38 C32 1.287 . S
O39 Fe25 1.996 . S
O39 C32 1.255 . S
C40 O33 1.287 . S
C40 O34 1.255 . S
O41 Fe23 2.002 . S
O41 C37 1.295 . S
O42 Fe25 1.997 . S
O42 C37 1.235 . S
C43 O26 1.295 . S
C43 O27 1.235 . S
Fe44 O46 1.918 . S
Fe44 O49 1.997 . S
Fe44 O50 2.002 . S
Fe44 O55 1.976 . S
Fe44 O58 1.996 . S
Fe45 O46 1.918 . S
Fe45 O53 1.997 . S
Fe45 O56 1.996 . S
Fe45 O60 1.976 . S
Fe45 O63 2.002 . S
O46 Fe44 1.918 . S
O46 Fe45 1.918 . S
O46 Fe47 1.918 . S
Fe47 O46 1.918 . S
Fe47 O48 2.002 . S
Fe47 O57 1.976 . S
Fe47 O61 1.996 . S
Fe47 O64 1.997 . S
O48 Fe47 2.002 . S
O48 C65 1.295 . S
O49 Fe44 1.997 . S
O49 C65 1.235 . S
O50 Fe44 2.002 . S
O50 C51 1.295 . S
C51 O50 1.295 . S
C51 O53 1.235 . S
C52 O57 1.287 . S
C52 O58 1.255 . S
O53 Fe45 1.997 . S
O53 C51 1.235 . S
C54 O60 1.287 . S
C54 O61 1.255 . S
O55 Fe44 1.976 . S
O55 C62 1.287 . S
O56 Fe45 1.996 . S
O56 C62 1.255 . S
O57 Fe47 1.976 . S
O57 C52 1.287 . S
O58 Fe44 1.996 . S
O58 C52 1.255 . S
C59 O63 1.295 . S
C59 O64 1.235 . S
O60 Fe45 1.976 . S
O60 C54 1.287 . S
O61 Fe47 1.996 . S
O61 C54 1.255 . S
C62 O55 1.287 . S
C62 O56 1.255 . S
O63 Fe45 2.002 . S
O63 C59 1.295 . S
O64 Fe47 1.997 . S
O64 C59 1.235 . S
C65 O48 1.295 . S
C65 O49 1.235 . S
Fe66 O68 1.918 . S
Fe66 O71 1.997 . S
Fe66 O72 2.002 1_556 S
Fe66 O77 1.976 . S
Fe66 O80 1.996 . S
Fe67 O68 1.918 1_554 S
Fe67 O75 1.997 . S
Fe67 O78 1.996 1_554 S
Fe67 O82 1.976 . S
Fe67 O85 2.002 . S
O68 Fe66 1.918 . S
O68 Fe67 1.918 1_556 S
O68 Fe69 1.918 . S
Fe69 O68 1.918 . S
Fe69 O70 2.002 1_556 S
Fe69 O79 1.976 . S
Fe69 O83 1.996 . S
Fe69 O86 1.997 1_556 S
O70 Fe69 2.002 1_554 S
O70 C87 1.295 1_554 S
O71 Fe66 1.997 . S
O71 C87 1.236 . S
O72 Fe66 2.002 1_554 S
O72 C73 1.295 . S
C73 O72 1.295 . S
C73 O75 1.235 . S
C74 O79 1.287 . S
C74 O80 1.255 . S
O75 Fe67 1.997 . S
O75 C73 1.235 . S
C76 O82 1.287 . S
C76 O83 1.255 1_554 S
O77 Fe66 1.976 . S
O77 C84 1.287 . S
O78 Fe67 1.996 1_556 S
O78 C84 1.255 . S
O79 Fe69 1.976 . S
O79 C74 1.287 . S
O80 Fe66 1.996 . S
O80 C74 1.255 . S
C81 O85 1.295 . S
C81 O86 1.235 . S
O82 Fe67 1.976 . S
O82 C76 1.287 . S
O83 Fe69 1.996 . S
O83 C76 1.255 1_556 S
C84 O77 1.287 . S
C84 O78 1.255 . S
O85 Fe67 2.002 . S
O85 C81 1.295 . S
O86 Fe69 1.997 1_554 S
O86 C81 1.235 . S
C87 O70 1.295 1_556 S
C87 O71 1.236 . S
Fe88 O90 1.918 . S
Fe88 O93 1.997 . S
Fe88 O94 2.002 . S
Fe88 O99 1.976 . S
Fe88 O102 1.996 . S
Fe89 O90 1.918 . S
Fe89 O97 1.997 . S
Fe89 O100 1.996 . S
Fe89 O104 1.976 . S
Fe89 O107 2.002 . S
O90 Fe88 1.918 . S
O90 Fe89 1.918 . S
O90 Fe91 1.918 . S
Fe91 O90 1.918 . S
Fe91 O92 2.002 . S
Fe91 O101 1.976 . S
Fe91 O105 1.996 . S
Fe91 O108 1.997 . S
O92 Fe91 2.002 . S
O92 C109 1.295 . S
O93 Fe88 1.997 . S
O93 C109 1.235 . S
O94 Fe88 2.002 . S
O94 C95 1.295 . S
C95 O94 1.295 . S
C95 O97 1.235 . S
C96 O101 1.287 . S
C96 O102 1.255 . S
O97 Fe89 1.997 . S
O97 C95 1.235 . S
C98 O104 1.287 . S
C98 O105 1.255 . S
O99 Fe88 1.976 . S
O99 C106 1.287 . S
O100 Fe89 1.996 . S
O100 C106 1.255 . S
O101 Fe91 1.976 . S
O101 C96 1.287 . S
O102 Fe88 1.996 . S
O102 C96 1.255 . S
C103 O107 1.295 . S
C103 O108 1.235 . S
O104 Fe89 1.976 . S
O104 C98 1.287 . S
O105 Fe91 1.996 . S
O105 C98 1.255 . S
C106 O99 1.287 . S
C106 O100 1.255 . S
O107 Fe89 2.002 . S
O107 C103 1.295 . S
O108 Fe91 1.997 . S
O108 C103 1.235 . S
C109 O92 1.295 . S
C109 O93 1.235 . S
Fe110 O112 1.918 . S
Fe110 O115 1.997 . S
Fe110 O116 2.002 . S
Fe110 O121 1.976 . S
Fe110 O124 1.996 . S
Fe111 O112 1.918 . S
Fe111 O119 1.997 . S
Fe111 O122 1.996 . S
Fe111 O126 1.976 . S
Fe111 O129 2.002 . S
O112 Fe110 1.918 . S
O112 Fe111 1.918 . S
O112 Fe113 1.918 . S
Fe113 O112 1.918 . S
Fe113 O114 2.002 . S
Fe113 O123 1.976 . S
Fe113 O127 1.996 . S
Fe113 O130 1.997 . S
O114 Fe113 2.002 . S
O114 C131 1.295 . S
O115 Fe110 1.997 . S
O115 C131 1.235 . S
O116 Fe110 2.002 . S
O116 C117 1.295 . S
C117 O116 1.295 . S
C117 O119 1.235 . S
C118 O123 1.287 . S
C118 O124 1.255 . S
O119 Fe111 1.997 . S
O119 C117 1.235 . S
C120 O126 1.287 . S
C120 O127 1.255 . S
O121 Fe110 1.976 . S
O121 C128 1.287 . S
O122 Fe111 1.996 . S
O122 C128 1.255 . S
O123 Fe113 1.976 . S
O123 C118 1.287 . S
O124 Fe110 1.996 . S
O124 C118 1.255 . S
C125 O129 1.295 . S
C125 O130 1.235 . S
O126 Fe111 1.976 . S
O126 C120 1.287 . S
O127 Fe113 1.996 . S
O127 C120 1.255 . S
C128 O121 1.287 . S
C128 O122 1.255 . S
O129 Fe111 2.002 . S
O129 C125 1.295 . S
O130 Fe113 1.997 . S
O130 C125 1.235 . S
C131 O114 1.295 . S
C131 O115 1.235 . S
C132 C133 1.363 . S
C132 C138 1.379 . S
C132 N140 1.356 . S
C133 C132 1.363 . S
C133 C139 1.363 . S
C134 C135 1.363 . S
C134 C139 1.379 . S
C134 N141 1.356 . S
C135 C134 1.363 . S
C135 C138 1.363 . S
N136 C138 1.356 . S
N136 H148 0.984 . S
N136 H149 0.985 . S
N137 C139 1.356 . S
N137 H142 0.984 . S
N137 H143 0.985 . S
C138 C132 1.379 . S
C138 C135 1.363 . S
C138 N136 1.356 . S
C139 C133 1.363 . S
C139 C134 1.379 . S
C139 N137 1.356 . S
N140 C132 1.356 . S
N140 H146 0.984 . S
N140 H147 0.984 . S
N141 C134 1.356 . S
N141 H144 0.984 1_556 S
N141 H145 0.985 . S
H142 N137 0.984 . S
H143 N137 0.985 . S
H144 N141 0.984 1_554 S
H145 N141 0.985 . S
H146 N140 0.984 . S
H147 N140 0.984 . S
H148 N136 0.984 . S
H149 N136 0.985 . S
C150 C151 1.363 1_655 S
C150 C156 1.379 . S
C150 N158 1.360 1_554 S
C151 C150 1.363 1_455 S
C151 C157 1.363 . S
C152 C153 1.363 1_455 S
C152 C157 1.379 . S
C152 N159 1.356 . S
C153 C152 1.363 1_655 S
C153 C156 1.363 . S
N154 C156 1.356 . S
N154 H166 0.984 . S
N154 H167 0.985 . S
N155 C157 1.356 . S
N155 H160 0.984 . S
N155 H161 0.985 . S
C156 C150 1.379 . S
C156 C153 1.363 . S
C156 N154 1.356 . S
C157 C151 1.363 . S
C157 C152 1.379 . S
C157 N155 1.356 . S
N158 C150 1.360 1_556 S
N158 H164 1.000 . S
N158 H165 0.965 1_655 S
N159 C152 1.356 . S
N159 H162 0.984 1_455 S
N159 H163 0.985 . S
H160 N155 0.984 . S
H161 N155 0.985 . S
H162 N159 0.984 1_655 S
H163 N159 0.985 . S
H164 N158 1.000 . S
H165 N158 0.965 1_455 S
H166 N154 0.984 . S
H167 N154 0.985 . S
C168 C169 1.362 . S
C168 C174 1.380 1_545 S
C168 N176 1.355 . S
C169 C168 1.362 . S
C169 C175 1.363 . S
C170 C171 1.363 1_545 S
C170 C175 1.379 . S
C170 N177 1.357 1_545 S
C171 C170 1.363 1_565 S
C171 C174 1.363 . S
N172 C174 1.356 . S
N172 H184 0.984 . S
N172 H185 0.985 . S
N173 C175 1.356 . S
N173 H178 0.984 . S
N173 H179 0.985 . S
C174 C168 1.380 1_565 S
C174 C171 1.363 . S
C174 N172 1.356 . S
C175 C169 1.363 . S
C175 C170 1.379 . S
C175 N173 1.356 . S
N176 C168 1.355 . S
N176 H182 0.984 1_545 S
N176 H183 0.984 . S
N177 C170 1.357 1_565 S
N177 H180 0.983 . S
N177 H181 0.985 1_565 S
H178 N173 0.984 . S
H179 N173 0.985 . S
H180 N177 0.983 . S
H181 N177 0.985 1_545 S
H182 N176 0.984 1_565 S
H183 N176 0.984 . S
H184 N172 0.984 . S
H185 N172 0.985 . S
C186 C187 1.363 . S
C186 C192 1.379 . S
C186 N194 1.356 . S
C187 C186 1.363 . S
C187 C193 1.363 . S
C188 C189 1.363 . S
C188 C193 1.379 . S
C188 N195 1.356 . S
C189 C188 1.363 . S
C189 C192 1.363 . S
N190 C192 1.356 1_554 S
N190 H202 0.984 . S
N190 H203 0.985 . S
N191 C193 1.356 . S
N191 H196 0.984 . S
N191 H197 0.985 . S
C192 C186 1.379 . S
C192 C189 1.363 . S
C192 N190 1.356 1_556 S
C193 C187 1.363 . S
C193 C188 1.379 . S
C193 N191 1.356 . S
N194 C186 1.356 . S
N194 H200 0.984 . S
N194 H201 0.984 . S
N195 C188 1.356 . S
N195 H198 0.984 . S
N195 H199 0.985 . S
H196 N191 0.984 . S
H197 N191 0.985 . S
H198 N195 0.984 . S
H199 N195 0.985 . S
H200 N194 0.984 . S
H201 N194 0.984 . S
H202 N190 0.984 . S
H203 N190 0.985 . S
C204 C205 1.363 1_655 S
C204 C210 1.379 . S
C204 N212 1.356 . S
C205 C204 1.363 1_455 S
C205 C211 1.363 . S
C206 C207 1.363 1_455 S
C206 C211 1.379 . S
C206 N213 1.359 1_554 S
C207 C206 1.363 1_655 S
C207 C210 1.363 . S
N208 C210 1.356 . S
N208 H220 0.984 . S
N208 H221 0.985 . S
N209 C211 1.356 . S
N209 H214 0.984 . S
N209 H215 0.985 . S
C210 C204 1.379 . S
C210 C207 1.363 . S
C210 N208 1.356 . S
C211 C205 1.363 . S
C211 C206 1.379 . S
C211 N209 1.356 . S
N212 C204 1.356 . S
N212 H218 0.984 . S
N212 H219 0.984 1_655 S
N213 C206 1.359 1_556 S
N213 H216 0.971 1_455 S
N213 H217 0.995 . S
H214 N209 0.984 . S
H215 N209 0.985 . S
H216 N213 0.971 1_655 S
H217 N213 0.995 . S
H218 N212 0.984 . S
H219 N212 0.984 1_455 S
H220 N208 0.984 . S
H221 N208 0.985 . S
C222 C223 1.363 . S
C222 C228 1.379 . S
C222 N230 1.356 . S
C223 C222 1.363 . S
C223 C229 1.363 1_545 S
C224 C225 1.363 . S
C224 C229 1.379 . S
C224 N231 1.356 . S
C225 C224 1.363 . S
C225 C228 1.363 1_565 S
N226 C228 1.356 . S
N226 H238 0.984 . S
N226 H239 0.985 1_545 S
N227 C229 1.356 . S
N227 H232 0.984 1_565 S
N227 H233 0.985 . S
C228 C222 1.379 . S
C228 C225 1.363 1_545 S
C228 N226 1.356 . S
C229 C223 1.363 1_565 S
C229 C224 1.379 . S
C229 N227 1.356 . S
N230 C222 1.356 . S
N230 H236 0.984 . S
N230 H237 0.984 . S
N231 C224 1.356 . S
N231 H234 0.984 . S
N231 H235 0.985 . S
H232 N227 0.984 1_545 S
H233 N227 0.985 . S
H234 N231 0.984 . S
H235 N231 0.985 . S
H236 N230 0.984 . S
H237 N230 0.984 . S
H238 N226 0.984 . S
H239 N226 0.985 1_565 S
C240 C241 1.363 . S
C240 C246 1.379 . S
C240 N248 1.356 . S
C241 C240 1.363 . S
C241 C247 1.363 . S
C242 C243 1.363 . S
C242 C247 1.379 . S
C242 N249 1.356 . S
C243 C242 1.363 . S
C243 C246 1.363 . S
N244 C246 1.356 . S
N244 H256 0.984 . S
N244 H257 0.985 . S
N245 C247 1.356 . S
N245 H250 0.984 . S
N245 H251 0.985 . S
C246 C240 1.379 . S
C246 C243 1.363 . S
C246 N244 1.356 . S
C247 C241 1.363 . S
C247 C242 1.379 . S
C247 N245 1.356 . S
N248 C240 1.356 . S
N248 H254 0.984 . S
N248 H255 0.984 . S
N249 C242 1.356 . S
N249 H252 0.984 . S
N249 H253 0.985 . S
H250 N245 0.984 . S
H251 N245 0.985 . S
H252 N249 0.984 . S
H253 N249 0.985 . S
H254 N248 0.984 . S
H255 N248 0.984 . S
H256 N244 0.984 . S
H257 N244 0.985 . S
C258 C259 1.363 . S
C258 C264 1.379 . S
C258 N266 1.356 . S
C259 C258 1.363 . S
C259 C265 1.363 . S
C260 C261 1.363 . S
C260 C265 1.379 . S
C260 N267 1.356 . S
C261 C260 1.363 . S
C261 C264 1.363 . S
N262 C264 1.356 . S
N262 H274 0.984 . S
N262 H275 0.985 . S
N263 C265 1.356 1_554 S
N263 H268 0.984 . S
N263 H269 0.985 . S
C264 C258 1.379 . S
C264 C261 1.363 . S
C264 N262 1.356 . S
C265 C259 1.363 . S
C265 C260 1.379 . S
C265 N263 1.356 1_556 S
N266 C258 1.356 . S
N266 H272 0.984 . S
N266 H273 0.984 1_556 S
N267 C260 1.356 . S
N267 H270 0.984 . S
N267 H271 0.985 . S
H268 N263 0.984 . S
H269 N263 0.985 . S
H270 N267 0.984 . S
H271 N267 0.985 . S
H272 N266 0.984 . S
H273 N266 0.984 1_554 S
H274 N262 0.984 . S
H275 N262 0.985 . S
C276 C277 1.363 . S
C276 C282 1.379 . S
C276 N284 1.356 . S
C277 C276 1.363 . S
C277 C283 1.363 . S
C278 C279 1.363 . S
C278 C283 1.379 . S
C278 N285 1.356 . S
C279 C278 1.363 . S
C279 C282 1.363 . S
N280 C282 1.356 1_556 S
N280 H292 0.984 . S
N280 H293 0.985 . S
N281 C283 1.356 . S
N281 H286 0.984 . S
N281 H287 0.985 . S
C282 C276 1.379 . S
C282 C279 1.363 . S
C282 N280 1.356 1_554 S
C283 C277 1.363 . S
C283 C278 1.379 . S
C283 N281 1.356 . S
N284 C276 1.356 . S
N284 H290 0.984 . S
N284 H291 0.984 . S
N285 C278 1.356 . S
N285 H288 0.984 1_554 S
N285 H289 0.985 . S
H286 N281 0.984 . S
H287 N281 0.985 . S
H288 N285 0.984 1_556 S
H289 N285 0.985 . S
H290 N284 0.984 . S
H291 N284 0.984 . S
H292 N280 0.984 . S
H293 N280 0.985 . S
C294 C295 1.363 . S
C294 C300 1.379 . S
C294 N302 1.356 . S
C295 C294 1.363 . S
C295 C301 1.363 . S
C296 C297 1.363 . S
C296 C301 1.379 . S
C296 N303 1.356 . S
C297 C296 1.363 . S
C297 C300 1.363 . S
N298 C300 1.356 . S
N298 H310 0.984 . S
N298 H311 0.985 . S
N299 C301 1.356 . S
N299 H304 0.984 . S
N299 H305 0.985 . S
C300 C294 1.379 . S
C300 C297 1.363 . S
C300 N298 1.356 . S
C301 C295 1.363 . S
C301 C296 1.379 . S
C301 N299 1.356 . S
N302 C294 1.356 . S
N302 H308 0.984 . S
N302 H309 0.984 . S
N303 C296 1.356 . S
N303 H306 0.984 . S
N303 H307 0.985 . S
H304 N299 0.984 . S
H305 N299 0.985 . S
H306 N303 0.984 . S
H307 N303 0.985 . S
H308 N302 0.984 . S
H309 N302 0.984 . S
H310 N298 0.984 . S
H311 N298 0.985 . S
C312 C313 1.363 . S
C312 C318 1.379 . S
C312 N320 1.356 . S
C313 C312 1.363 . S
C313 C319 1.363 . S
C314 C315 1.363 . S
C314 C319 1.379 . S
C314 N321 1.356 1_556 S
C315 C314 1.363 . S
C315 C318 1.363 . S
N316 C318 1.356 . S
N316 H328 0.984 . S
N316 H329 0.985 1_556 S
N317 C319 1.356 . S
N317 H322 0.984 . S
N317 H323 0.985 . S
C318 C312 1.379 . S
C318 C315 1.363 . S
C318 N316 1.356 . S
C319 C313 1.363 . S
C319 C314 1.379 . S
C319 N317 1.356 . S
N320 C312 1.356 . S
N320 H326 0.984 . S
N320 H327 0.984 . S
N321 C314 1.356 1_554 S
N321 H324 0.984 . S
N321 H325 0.985 . S
H322 N317 0.984 . S
H323 N317 0.985 . S
H324 N321 0.984 . S
H325 N321 0.985 . S
H326 N320 0.984 . S
H327 N320 0.984 . S
H328 N316 0.984 . S
H329 N316 0.985 1_554 S
C330 C331 1.363 . S
C330 C336 1.379 . S
C330 N338 1.356 . S
C331 C330 1.363 . S
C331 C337 1.363 . S
C332 C333 1.363 . S
C332 C337 1.379 . S
C332 N339 1.356 1_554 S
C333 C332 1.363 . S
C333 C336 1.363 . S
N334 C336 1.356 . S
N334 H346 0.984 . S
N334 H347 0.985 1_554 S
N335 C337 1.356 . S
N335 H340 0.984 . S
N335 H341 0.985 . S
C336 C330 1.379 . S
C336 C333 1.363 . S
C336 N334 1.356 . S
C337 C331 1.363 . S
C337 C332 1.379 . S
C337 N335 1.356 . S
N338 C330 1.356 . S
N338 H344 0.984 . S
N338 H345 0.984 . S
N339 C332 1.356 1_556 S
N339 H342 0.984 . S
N339 H343 0.985 . S
H340 N335 0.984 . S
H341 N335 0.985 . S
H342 N339 0.984 . S
H343 N339 0.985 . S
H344 N338 0.984 . S
H345 N338 0.984 . S
H346 N334 0.984 . S
H347 N334 0.985 1_556 S
C348 C349 1.363 . S
C348 C354 1.379 . S
C348 N356 1.356 . S
C349 C348 1.363 . S
C349 C355 1.363 . S
C350 C351 1.363 . S
C350 C355 1.379 . S
C350 N357 1.356 . S
C351 C350 1.363 . S
C351 C354 1.363 . S
N352 C354 1.356 . S
N352 H364 0.984 . S
N352 H365 0.985 . S
N353 C355 1.356 . S
N353 H358 0.984 . S
N353 H359 0.985 1_554 S
C354 C348 1.379 . S
C354 C351 1.363 . S
C354 N352 1.356 . S
C355 C349 1.363 . S
C355 C350 1.379 . S
C355 N353 1.356 . S
N356 C348 1.356 . S
N356 H362 0.984 . S
N356 H363 0.984 . S
N357 C350 1.356 . S
N357 H360 0.984 . S
N357 H361 0.985 1_554 S
H358 N353 0.984 . S
H359 N353 0.985 1_556 S
H360 N357 0.984 . S
H361 N357 0.985 1_556 S
H362 N356 0.984 . S
H363 N356 0.984 . S
H364 N352 0.984 . S
H365 N352 0.985 . S
C366 C367 1.363 . S
C366 C372 1.379 . S
C366 N374 1.356 . S
C367 C366 1.363 . S
C367 C373 1.363 . S
C368 C369 1.363 . S
C368 C373 1.379 . S
C368 N375 1.356 . S
C369 C368 1.363 . S
C369 C372 1.363 . S
N370 C372 1.356 . S
N370 H382 0.984 . S
N370 H383 0.985 . S
N371 C373 1.356 . S
N371 H376 0.984 . S
N371 H377 0.985 . S
C372 C366 1.379 . S
C372 C369 1.363 . S
C372 N370 1.356 . S
C373 C367 1.363 . S
C373 C368 1.379 . S
C373 N371 1.356 . S
N374 C366 1.356 . S
N374 H380 0.984 . S
N374 H381 0.984 . S
N375 C368 1.356 . S
N375 H378 0.984 . S
N375 H379 0.985 . S
H376 N371 0.984 . S
H377 N371 0.985 . S
H378 N375 0.984 . S
H379 N375 0.985 . S
H380 N374 0.984 . S
H381 N374 0.984 . S
H382 N370 0.984 . S
H383 N370 0.985 . S
C384 C385 1.363 . S
C384 C390 1.379 . S
C384 N392 1.356 . S
C385 C384 1.363 . S
C385 C391 1.363 . S
C386 C387 1.363 . S
C386 C391 1.379 . S
C386 N393 1.356 . S
C387 C386 1.363 . S
C387 C390 1.363 . S
N388 C390 1.356 . S
N388 H400 0.984 . S
N388 H401 0.985 . S
N389 C391 1.356 . S
N389 H394 0.984 . S
N389 H395 0.985 1_556 S
C390 C384 1.379 . S
C390 C387 1.363 . S
C390 N388 1.356 . S
C391 C385 1.363 . S
C391 C386 1.379 . S
C391 N389 1.356 . S
N392 C384 1.356 . S
N392 H398 0.984 . S
N392 H399 0.984 . S
N393 C386 1.356 . S
N393 H396 0.984 . S
N393 H397 0.985 1_556 S
H394 N389 0.984 . S
H395 N389 0.985 1_554 S
H396 N393 0.984 . S
H397 N393 0.985 1_554 S
H398 N392 0.984 . S
H399 N392 0.984 . S
H400 N388 0.984 . S
H401 N388 0.985 . S
C402 C403 1.363 . S
C402 C408 1.379 . S
C402 N410 1.356 . S
C403 C402 1.363 . S
C403 C409 1.363 . S
C404 C405 1.363 . S
C404 C409 1.379 . S
C404 N411 1.356 . S
C405 C404 1.363 . S
C405 C408 1.363 . S
N406 C408 1.356 . S
N406 H418 0.984 . S
N406 H419 0.985 . S
N407 C409 1.356 . S
N407 H412 0.984 . S
N407 H413 0.985 1_554 S
C408 C402 1.379 . S
C408 C405 1.363 . S
C408 N406 1.356 . S
C409 C403 1.363 . S
C409 C404 1.379 . S
C409 N407 1.356 . S
N410 C402 1.356 . S
N410 H416 0.984 . S
N410 H417 0.984 . S
N411 C404 1.356 . S
N411 H414 0.984 . S
N411 H415 0.985 1_554 S
H412 N407 0.984 . S
H413 N407 0.985 1_556 S
H414 N411 0.984 . S
H415 N411 0.985 1_556 S
H416 N410 0.984 . S
H417 N410 0.984 . S
H418 N406 0.984 . S
H419 N406 0.985 . S
C420 C421 1.363 . S
C420 C426 1.379 . S
C420 N428 1.356 . S
C421 C420 1.363 . S
C421 C427 1.363 . S
C422 C423 1.363 . S
C422 C427 1.379 . S
C422 N429 1.356 . S
C423 C422 1.363 . S
C423 C426 1.363 . S
N424 C426 1.356 . S
N424 H436 0.984 . S
N424 H437 0.985 . S
N425 C427 1.356 . S
N425 H430 0.984 . S
N425 H431 0.985 . S
C426 C420 1.379 . S
C426 C423 1.363 . S
C426 N424 1.356 . S
C427 C421 1.363 . S
C427 C422 1.379 . S
C427 N425 1.356 . S
N428 C420 1.356 . S
N428 H434 0.984 . S
N428 H435 0.984 . S
N429 C422 1.356 . S
N429 H432 0.984 . S
N429 H433 0.985 . S
H430 N425 0.984 . S
H431 N425 0.985 . S
H432 N429 0.984 . S
H433 N429 0.985 . S
H434 N428 0.984 . S
H435 N428 0.984 . S
H436 N424 0.984 . S
H437 N424 0.985 . S
C438 C439 1.363 . S
C438 C444 1.379 . S
C438 N446 1.356 . S
C439 C438 1.363 . S
C439 C445 1.363 . S
C440 C441 1.363 . S
C440 C445 1.379 . S
C440 N447 1.356 . S
C441 C440 1.363 . S
C441 C444 1.363 . S
N442 C444 1.356 . S
N442 H454 0.984 . S
N442 H455 0.985 . S
N443 C445 1.356 . S
N443 H448 0.984 . S
N443 H449 0.985 1_556 S
C444 C438 1.379 . S
C444 C441 1.363 . S
C444 N442 1.356 . S
C445 C439 1.363 . S
C445 C440 1.379 . S
C445 N443 1.356 . S
N446 C438 1.356 . S
N446 H452 0.984 . S
N446 H453 0.984 . S
N447 C440 1.356 . S
N447 H450 0.984 . S
N447 H451 0.985 1_556 S
H448 N443 0.984 . S
H449 N443 0.985 1_554 S
H450 N447 0.984 . S
H451 N447 0.985 1_554 S
H452 N446 0.984 . S
H453 N446 0.984 . S
H454 N442 0.984 . S
H455 N442 0.985 . S
C133 C125 1.790 . S
C135 C18 1.755 1_556 S
C151 C15 1.789 1_554 S
C153 C40 1.755 . S
C169 C37 1.790 . S
C171 C54 1.755 . S
C187 C65 1.790 . S
C189 C76 1.755 1_556 S
C205 C98 1.754 . S
C207 C87 1.789 1_554 S
C223 C128 1.755 . S
C225 C109 1.790 . S
C241 C10 1.205 . S
C243 C7 1.225 . S
C259 C32 1.205 1_556 S
C261 C29 1.225 . S
C277 C52 1.205 . S
C279 C59 1.225 1_554 S
C295 C74 1.205 . S
C297 C81 1.225 . S
C313 C103 1.225 . S
C315 C96 1.205 1_556 S
C331 C120 1.205 . S
C333 C117 1.225 1_554 S
C349 C21 1.333 . S
C351 C106 1.357 . S
C367 C43 1.333 . S
C369 C118 1.357 . S
C385 C8 1.357 . S
C387 C51 1.333 . S
C403 C30 1.357 . S
C405 C73 1.333 . S
C421 C95 1.333 . S
C423 C62 1.357 . S
C439 C84 1.357 . S
C441 C131 1.333 . S
