# Generated by pormake.
# Topology wjf, (4)-cn, num edge types: 1
# Building blocks:
#     Node 0, Type 0, BuildingBlock: QUQFOY_clean_sbu_3, # of connection points: 4
#     Node 1, Type 0, BuildingBlock: QUQFOY_clean_sbu_3, # of connection points: 4
#     Node 2, Type 0, BuildingBlock: QUQFOY_clean_sbu_3, # of connection points: 4
#     Node 3, Type 0, BuildingBlock: QUQFOY_clean_sbu_3, # of connection points: 4
#     Node 4, Type 0, BuildingBlock: QUQFOY_clean_sbu_3, # of connection points: 4
#     Node 5, Type 0, BuildingBlock: QUQFOY_clean_sbu_3, # of connection points: 4
#     Node 6, Type 0, BuildingBlock: QUQFOY_clean_sbu_3, # of connection points: 4
#     Node 7, Type 0, BuildingBlock: QUQFOY_clean_sbu_3, # of connection points: 4
#     Node 8, Type 0, BuildingBlock: QUQFOY_clean_sbu_3, # of connection points: 4
#     Node 9, Type 0, BuildingBlock: QUQFOY_clean_sbu_3, # of connection points: 4
#     Node 10, Type 0, BuildingBlock: QUQFOY_clean_sbu_3, # of connection points: 4
#     Node 11, Type 0, BuildingBlock: QUQFOY_clean_sbu_3, # of connection points: 4
#     Edge 12, Type (0, 0), BuildingBlock: XUDNAN_clean_linker_2, # of connection points: 2
#     Edge 13, Type (0, 0), BuildingBlock: XUDNAN_clean_linker_2, # of connection points: 2
#     Edge 14, Type (0, 0), BuildingBlock: XUDNAN_clean_linker_2, # of connection points: 2
#     Edge 15, Type (0, 0), BuildingBlock: XUDNAN_clean_linker_2, # of connection points: 2
#     Edge 16, Type (0, 0), BuildingBlock: XUDNAN_clean_linker_2, # of connection points: 2
#     Edge 17, Type (0, 0), BuildingBlock: XUDNAN_clean_linker_2, # of connection points: 2
#     Edge 18, Type (0, 0), BuildingBlock: XUDNAN_clean_linker_2, # of connection points: 2
#     Edge 19, Type (0, 0), BuildingBlock: XUDNAN_clean_linker_2, # of connection points: 2
#     Edge 20, Type (0, 0), BuildingBlock: XUDNAN_clean_linker_2, # of connection points: 2
#     Edge 21, Type (0, 0), BuildingBlock: XUDNAN_clean_linker_2, # of connection points: 2
#     Edge 22, Type (0, 0), BuildingBlock: XUDNAN_clean_linker_2, # of connection points: 2
#     Edge 23, Type (0, 0), BuildingBlock: XUDNAN_clean_linker_2, # of connection points: 2
#     Edge 24, Type (0, 0), BuildingBlock: XUDNAN_clean_linker_2, # of connection points: 2
#     Edge 25, Type (0, 0), BuildingBlock: XUDNAN_clean_linker_2, # of connection points: 2
#     Edge 26, Type (0, 0), BuildingBlock: XUDNAN_clean_linker_2, # of connection points: 2
#     Edge 27, Type (0, 0), BuildingBlock: XUDNAN_clean_linker_2, # of connection points: 2
#     Edge 28, Type (0, 0), BuildingBlock: XUDNAN_clean_linker_2, # of connection points: 2
#     Edge 29, Type (0, 0), BuildingBlock: XUDNAN_clean_linker_2, # of connection points: 2
#     Edge 30, Type (0, 0), BuildingBlock: XUDNAN_clean_linker_2, # of connection points: 2
#     Edge 31, Type (0, 0), BuildingBlock: XUDNAN_clean_linker_2, # of connection points: 2
#     Edge 32, Type (0, 0), BuildingBlock: XUDNAN_clean_linker_2, # of connection points: 2
#     Edge 33, Type (0, 0), BuildingBlock: XUDNAN_clean_linker_2, # of connection points: 2
#     Edge 34, Type (0, 0), BuildingBlock: XUDNAN_clean_linker_2, # of connection points: 2
#     Edge 35, Type (0, 0), BuildingBlock: XUDNAN_clean_linker_2, # of connection points: 2
# Relax obj value: 0.105
# Max RMSD: 0.136
# Mean RMSD: 0.136
data_MOF--net-wjf--node1-QUQFOY_clean_sbu_3--edge1-XUDNAN_clean_linker_2
_symmetry_space_group_name_H-M    P1
_symmetry_Int_Tables_number       1
_symmetry_cell_setting            triclinic
loop_
_symmetry_equiv_pos_as_xyz
'x, y, z'
_cell_length_a     52.252313
_cell_length_b     52.030082
_cell_length_c     28.233382
_cell_angle_alpha  89.852101
_cell_angle_beta   90.073617
_cell_angle_gamma 120.18723
loop_
_atom_site_label
_atom_site_type_symbol
_atom_site_fract_x
_atom_site_fract_y
_atom_site_fract_z
_atom_type_partial_charge
C0 C 0.3235 0.31549 0.1071 0.0
O1 O 0.34015 0.31221 0.07813 0.0
Cd2 Cd 0.36533 0.3489 0.01789 0.0
O3 O 0.31701 0.33576 0.10023 0.0
Cd4 Cd 0.32391 0.37331 0.03994 0.0
C5 C 0.39201 0.4137 0.08385 0.0
O6 O 0.33268 0.3549 0.96591 0.0
O7 O 0.35068 0.40249 0.97206 0.0
O8 O 0.27177 0.34569 0.02538 0.0
C9 C 0.34435 0.38026 0.94603 0.0
O10 O 0.39611 0.39507 0.06074 0.0
C11 C 0.26702 0.36729 0.02639 0.0
O12 O 0.36636 0.41105 0.08575 0.0
O13 O 0.2887 0.39249 0.03839 0.0
C14 C 0.95351 0.32335 0.53332 0.0
O15 O 0.97997 0.34294 0.52356 0.0
Cd16 Cd -0.00329 0.37235 0.45428 0.0
O17 O 0.93257 0.31764 0.50437 0.0
Cd18 Cd 0.93167 0.33658 0.42338 0.0
C19 C 0.95667 0.40808 0.45221 0.0
O20 O 0.97566 0.33853 0.39043 0.0
O21 O 0.96045 0.36526 0.35501 0.0
O22 O 0.90356 0.28965 0.38273 0.0
C23 C 0.97624 0.35308 0.35411 0.0
O24 O 0.98184 0.40989 0.45506 0.0
C25 C 0.88132 0.29216 0.37253 0.0
O26 O 0.93339 0.38313 0.44446 0.0
O27 O 0.88092 0.31466 0.38897 0.0
C28 C 0.65875 0.98021 0.81964 0.0
O29 O 0.67582 0.00523 0.80042 0.0
Cd30 Cd 0.67739 0.01709 0.71844 0.0
O31 O 0.64026 0.95807 0.79497 0.0
Cd32 Cd 0.62536 0.94721 0.71036 0.0
C33 C 0.60459 -0.00014 0.7076 0.0
O34 O 0.6754 0.97629 0.67805 0.0
O35 O 0.63922 0.95817 0.62802 0.0
O36 O 0.62446 0.90052 0.71903 0.0
C37 C 0.66687 0.97195 0.63535 0.0
O38 O 0.63221 0.01869 0.70777 0.0
C39 C 0.60003 0.8846 0.69786 0.0
O40 O 0.59522 0.972 0.71026 0.0
O41 O 0.58552 0.89726 0.68617 0.0
C42 C 0.67959 0.66908 0.16886 0.0
O43 O 0.66395 0.67931 0.15224 0.0
Cd44 Cd 0.62929 0.65639 0.08957 0.0
O45 O 0.67902 0.64667 0.14963 0.0
Cd46 Cd 0.65443 0.61494 0.07917 0.0
C47 C 0.58674 0.58384 0.12771 0.0
O48 O 0.64994 0.64744 0.02063 0.0
O49 O 0.61797 0.60024 0.01751 0.0
O50 O 0.69749 0.62484 0.03432 0.0
C51 C 0.62977 0.62558 -0.00216 0.0
O52 O 0.58939 0.60911 0.11903 0.0
C53 C 0.69418 0.59902 0.03644 0.0
O54 O 0.60804 0.57911 0.1193 0.0
O55 O 0.67294 0.57992 0.06176 0.0
C56 C 0.99426 0.69298 0.48313 0.0
O57 O 0.97388 0.6848 0.45244 0.0
Cd58 Cd 0.97379 0.66365 0.37825 0.0
O59 O 0.01812 0.69292 0.47361 0.0
Cd60 Cd 0.04059 0.68241 0.40379 0.0
C61 C 0.99003 0.61 0.41766 0.0
O62 O 0.01901 0.69677 0.34045 0.0
O63 O 0.03346 0.66582 0.32224 0.0
O64 O 0.08524 0.73052 0.40485 0.0
C65 C 0.02414 0.68288 0.3086 0.0
O66 O 0.97209 0.61723 0.39985 0.0
C67 C 0.10322 0.72094 0.40172 0.0
O68 O 0.01699 0.6296 0.42553 0.0
O69 O 0.09226 0.69293 0.40445 0.0
C70 C 0.3558 0.0093 0.78966 0.0
O71 O 0.34847 0.99058 0.75626 0.0
Cd72 Cd 0.36448 0.00219 0.67605 0.0
O73 O 0.37199 0.03716 0.78163 0.0
Cd74 Cd 0.39583 0.07069 0.7121 0.0
C75 C 0.43975 0.04026 0.69665 0.0
O76 O 0.35604 0.04179 0.65646 0.0
O77 O 0.39611 0.07804 0.62704 0.0
O78 O 0.38026 0.10405 0.74397 0.0
C79 C 0.36954 0.05772 0.6209 0.0
O80 O 0.41685 0.0174 0.68061 0.0
C81 C 0.40362 0.12783 0.73208 0.0
O82 O 0.43829 0.06254 0.71199 0.0
O83 O 0.42471 0.12508 0.7155 0.0
C84 C 0.68154 0.68139 0.49906 0.0
O85 O 0.68975 0.66921 0.52979 0.0
Cd86 Cd 0.65595 0.63915 0.5906 0.0
O87 O 0.65717 0.68108 0.50423 0.0
Cd88 Cd 0.61673 0.66522 0.56286 0.0
C89 C 0.59296 0.59637 0.52352 0.0
O90 O 0.63859 0.66475 0.63954 0.0
O91 O 0.59115 0.6363 0.63119 0.0
O92 O 0.62849 0.71558 0.57624 0.0
C93 C 0.61342 0.64816 0.65848 0.0
O94 O 0.61498 0.59914 0.54722 0.0
C95 C 0.60281 0.71161 0.56884 0.0
O96 O 0.5877 0.61777 0.52063 0.0
O97 O 0.58325 0.68598 0.55432 0.0
C98 C 0.96166 0.65591 0.81623 0.0
O99 O 0.98501 0.66719 0.84115 0.0
Cd100 Cd 0.98645 0.64898 0.9172 0.0
O101 O 0.93749 0.63403 0.8315 0.0
Cd102 Cd 0.91676 0.60178 0.9032 0.0
C103 C 0.96347 0.57551 0.88799 0.0
O104 O 0.9436 0.64359 0.95594 0.0
O105 O 0.92437 0.60013 -0.01215 0.0
O106 O 0.8744 0.60624 0.8801 0.0
C107 C 0.93758 0.62805 -0.00684 0.0
O108 O 0.98329 0.6016 0.9002 0.0
C109 C 0.85494 0.583 0.901 0.0
O110 O 0.93638 0.56856 0.88422 0.0
O111 O 0.86374 0.56688 0.9208 0.0
C112 C 0.34403 0.97299 0.13132 0.0
O113 O 0.35932 0.99808 0.15129 0.0
Cd114 Cd 0.37187 0.00775 0.23306 0.0
O115 O 0.33325 0.94891 0.15525 0.0
Cd116 Cd 0.33356 0.93554 0.2401 0.0
C117 C 0.40916 0.9697 0.24771 0.0
O118 O 0.32697 0.97522 0.27296 0.0
O119 O 0.33515 0.94855 0.32262 0.0
O120 O 0.28185 0.89665 0.24026 0.0
C121 C 0.32876 0.9687 0.31559 0.0
O122 O 0.40972 0.99444 0.2467 0.0
C123 C 0.28617 0.87634 0.25634 0.0
O124 O 0.38479 0.94517 0.24379 0.0
O125 O 0.31294 0.88273 0.26082 0.0
C126 C 0.33545 0.31347 0.43718 0.0
O127 O 0.32794 0.3321 0.44987 0.0
Cd128 Cd 0.3508 0.36634 0.51324 0.0
O129 O 0.35463 0.31067 0.46098 0.0
Cd130 Cd 0.38248 0.33263 0.53548 0.0
C131 C 0.42512 0.39942 0.48694 0.0
O132 O 0.35033 0.34272 0.58575 0.0
O133 O 0.39775 0.3706 0.59532 0.0
O134 O 0.36347 0.28694 0.57947 0.0
C135 C 0.37182 0.36146 0.61079 0.0
O136 O 0.40203 0.40155 0.49203 0.0
C137 C 0.38787 0.28773 0.58571 0.0
O138 O 0.42443 0.37506 0.49634 0.0
O139 O 0.41051 0.30876 0.56548 0.0
C140 C 0.9739 0.31781 0.86439 0.0
O141 O 0.95606 0.31321 0.89808 0.0
Cd142 Cd 0.97312 0.34368 0.96695 0.0
O143 O 0.00134 0.33695 0.86871 0.0
Cd144 Cd 0.03737 0.37135 0.92777 0.0
C145 C 0.00606 0.41331 0.91362 0.0
O146 O 0.01505 0.34254 -0.00118 0.0
O147 O 0.0439 0.38994 0.00795 0.0
O148 O 0.0661 0.3481 0.90961 0.0
C149 C 0.02995 0.36426 0.02635 0.0
O150 O 0.98518 0.39295 0.93806 0.0
C151 C 0.0914 0.37119 0.91365 0.0
O152 O 0.02846 0.41116 0.90168 0.0
O153 O 0.09195 0.39564 0.92014 0.0
C154 C 0.67502 0.0027 0.1646 0.0
O155 O 0.66993 0.98364 0.19688 0.0
Cd156 Cd 0.66838 0.99086 0.27996 0.0
O157 O 0.68082 0.02899 0.17489 0.0
Cd158 Cd 0.68586 0.05847 0.24746 0.0
C159 C 0.61358 0.00942 0.27468 0.0
O160 O 0.71081 0.03804 0.29349 0.0
O161 O 0.69915 0.06656 0.33121 0.0
O162 O 0.72706 0.10112 0.20926 0.0
C163 C 0.71206 0.05151 0.33139 0.0
O164 O 0.62242 0.99162 0.28703 0.0
C165 C 0.72132 0.1202 0.22649 0.0
O166 O 0.63162 0.03496 0.25741 0.0
O167 O 0.69715 0.1102 0.24915 0.0
H168 H 0.29029 0.31916 0.17825 0.0
H169 H 0.34002 0.27616 0.13971 0.0
H170 H 0.3375 0.25973 0.22233 0.0
H171 H 0.32728 0.35126 0.27398 0.0
H172 H 0.29717 0.34741 0.31027 0.0
H173 H 0.29418 0.34736 0.24708 0.0
H174 H 0.24576 0.29626 0.25009 0.0
H175 H 0.2484 0.29625 0.31379 0.0
H176 H 0.24536 0.26545 0.28012 0.0
H177 H 0.34143 0.25984 0.31001 0.0
H178 H 0.35038 0.27561 0.39361 0.0
H179 H 0.29772 0.31809 0.37568 0.0
C180 C 0.29949 0.30515 0.18672 0.0
C181 C 0.31539 0.29903 0.15255 0.0
C182 C 0.32758 0.28104 0.1652 0.0
C183 C 0.32617 0.2715 0.21212 0.0
C184 C 0.31205 0.27966 0.24575 0.0
C185 C 0.29837 0.29561 0.23338 0.0
C186 C 0.28903 0.30588 0.27673 0.0
C187 C 0.30276 0.33997 0.277 0.0
C188 C 0.25512 0.29 0.28039 0.0
C189 C 0.30189 0.29553 0.3153 0.0
C190 C 0.31427 0.27963 0.29695 0.0
C191 C 0.33102 0.27144 0.32501 0.0
C192 C 0.3361 0.2806 0.37249 0.0
C193 C 0.32474 0.29809 0.39121 0.0
C194 C 0.30638 0.30441 0.36264 0.0
H195 H 0.99363 0.32168 0.59215 0.0
H196 H 0.90025 0.29281 0.58042 0.0
H197 H 0.89319 0.27688 0.66435 0.0
H198 H 0.98627 0.26447 0.68416 0.0
H199 H 0.01986 0.29195 0.71262 0.0
H200 H 0.01576 0.29312 0.64934 0.0
H201 H 0.0272 0.3476 0.65586 0.0
H202 H 0.03117 0.34656 0.71875 0.0
H203 H 0.00503 0.35607 0.6946 0.0
H204 H 0.89866 0.27459 0.75219 0.0
H205 H 0.91604 0.28727 0.83468 0.0
H206 H 0.00605 0.31818 0.78838 0.0
C207 C 0.97146 0.3111 0.60674 0.0
C208 C 0.94749 0.30854 0.57995 0.0
C209 C 0.91888 0.29478 0.60031 0.0
C210 C 0.91468 0.28557 0.64789 0.0
C211 C 0.9392 0.28982 0.67408 0.0
C212 C 0.967 0.30193 0.65388 0.0
C213 C 0.9906 0.30851 0.69056 0.0
C214 C 0.0039 0.2883 0.68376 0.0
C215 C 0.01488 0.34163 0.6899 0.0
C216 C 0.97217 0.30042 0.73508 0.0
C217 C 0.94243 0.28876 0.72494 0.0
C218 C 0.92174 0.28296 0.76054 0.0
C219 C 0.93185 0.29029 0.80734 0.0
C220 C 0.96244 0.30379 0.81785 0.0
C221 C 0.98252 0.30768 0.78145 0.0
H222 H 0.68234 0.02492 0.88483 0.0
H223 H 0.63751 0.92883 0.87153 0.0
H224 H 0.63918 0.92432 0.95858 0.0
H225 H 0.73047 0.03222 0.98261 0.0
H226 H 0.72702 0.06146 0.0105 0.0
H227 H 0.72382 0.05713 0.94711 0.0
H228 H 0.67242 0.05329 0.95021 0.0
H229 H 0.67548 0.05765 0.01354 0.0
H230 H 0.64394 0.02574 -0.01214 0.0
H231 H 0.64533 0.93043 0.04682 0.0
H232 H 0.65248 0.94624 0.13034 0.0
H233 H 0.69161 0.03835 0.08553 0.0
C234 C 0.67314 0.00291 0.90012 0.0
C235 C 0.65999 0.97721 0.87146 0.0
C236 C 0.64772 0.94881 0.89289 0.0
C237 C 0.64867 0.94604 0.94221 0.0
C238 C 0.66176 0.97187 0.96941 0.0
C239 C 0.67358 -0.00026 0.94915 0.0
C240 C 0.68498 0.02391 -0.01366 0.0
C241 C 0.71857 0.04491 0.98133 0.0
C242 C 0.66819 0.04115 -0.01564 0.0
C243 C 0.67759 0.00527 0.03081 0.0
C244 C 0.66451 0.97535 0.02026 0.0
C245 C 0.65557 0.95379 0.05552 0.0
C246 C 0.6598 0.96303 0.10286 0.0
C247 C 0.67258 0.99356 0.1145 0.0
C248 C 0.68175 0.01488 0.07783 0.0
H249 H 0.67194 0.70458 0.23079 0.0
H250 H 0.72046 0.65799 0.21134 0.0
H251 H 0.73749 0.66872 0.29434 0.0
H252 H 0.72251 0.75999 0.32529 0.0
H253 H 0.69061 0.7563 0.35604 0.0
H254 H 0.69029 0.75366 0.29233 0.0
H255 H 0.64222 0.70228 0.29681 0.0
H256 H 0.64246 0.70469 0.36009 0.0
H257 H 0.6418 0.6732 0.33231 0.0
H258 H 0.73997 0.67445 0.38184 0.0
H259 H 0.72468 0.67103 0.46516 0.0
H260 H 0.67267 0.712 0.42851 0.0
C261 C 0.68725 0.69779 0.2433 0.0
C262 C 0.69508 0.68067 0.21449 0.0
C263 C 0.71437 0.67135 0.23267 0.0
C264 C 0.7243 0.67753 0.27973 0.0
C265 C 0.71484 0.69313 0.30803 0.0
C266 C 0.69684 0.7033 0.2903 0.0
C267 C 0.68505 0.71433 0.32946 0.0
C268 C 0.6979 0.74808 0.32554 0.0
C269 C 0.65089 0.6976 0.32967 0.0
C270 C 0.69729 0.70662 0.3723 0.0
C271 C 0.71541 0.69555 0.35924 0.0
C272 C 0.72642 0.68374 0.39252 0.0
C273 C 0.71759 0.68188 0.43989 0.0
C274 C 0.69738 0.69118 0.45329 0.0
C275 C 0.68835 0.70499 0.41939 0.0
H276 H 0.00937 0.68155 0.75772 0.0
H277 H 0.91663 0.65573 0.7665 0.0
H278 H 0.91851 0.67285 0.68409 0.0
H279 H 0.03405 0.74636 0.67505 0.0
H280 H 0.05819 0.73694 0.64357 0.0
H281 H 0.0514 0.72875 0.70592 0.0
H282 H 0.03406 0.67334 0.6895 0.0
H283 H 0.04097 0.68141 0.62743 0.0
H284 H 0.00482 0.65311 0.64722 0.0
H285 H 0.92875 0.68712 0.59936 0.0
H286 H 0.94409 0.69094 0.51616 0.0
H287 H 0.02966 0.70495 0.56131 0.0
C288 C 0.98971 0.68034 0.7427 0.0
C289 C 0.96296 0.66775 0.76839 0.0
C290 C 0.93736 0.6655 0.74725 0.0
C291 C 0.93833 0.67543 0.70075 0.0
C292 C 0.965 0.68736 0.67601 0.0
C293 C 0.99017 0.6896 0.69613 0.0
C294 C 0.01464 0.69881 0.65999 0.0
C295 C 0.04114 0.72955 0.67185 0.0
C296 C 0.02415 0.67526 0.65579 0.0
C297 C -0.00114 0.70007 0.61589 0.0
C298 C 0.9706 0.69437 0.62621 0.0
C299 C 0.95094 0.69199 0.59088 0.0
C300 C 0.9599 0.69418 0.54365 0.0
C301 C 0.98807 0.69809 0.53218 0.0
C302 C 0.00814 0.70225 0.56891 0.0
H303 H 0.36639 0.02019 0.0702 0.0
H304 H 0.31134 0.92397 0.07509 0.0
H305 H 0.30527 0.92315 -0.01188 0.0
H306 H 0.32646 0.03299 0.97568 0.0
H307 H 0.35986 0.06265 0.94982 0.0
H308 H 0.35804 0.05572 0.01263 0.0
H309 H 0.40464 0.05032 0.00703 0.0
H310 H 0.40662 0.05726 0.94431 0.0
H311 H 0.40487 0.02384 0.96622 0.0
H312 H 0.30765 0.9328 0.90032 0.0
H313 H 0.31908 0.9518 0.81843 0.0
H314 H 0.3727 0.04175 0.8719 0.0
C315 C 0.35276 0.9989 0.05322 0.0
C316 C 0.33927 0.97212 0.07954 0.0
C317 C 0.32185 0.94477 0.0557 0.0
C318 C 0.31821 0.9441 0.00636 0.0
C319 C 0.33203 0.97094 0.98155 0.0
C320 C 0.34894 0.99782 0.00422 0.0
C321 C 0.36268 0.0234 0.96938 0.0
C322 C 0.35105 0.04496 0.97736 0.0
C323 C 0.39671 0.03964 0.97189 0.0
C324 C 0.35133 0.00669 0.92334 0.0
C325 C 0.33348 0.97649 0.9311 0.0
C326 C 0.32139 0.95642 0.89384 0.0
C327 C 0.32806 0.96746 0.84743 0.0
C328 C 0.34678 0.99831 0.83867 0.0
C329 C 0.35814 0.01811 0.87731 0.0
H330 H 0.14628 0.41199 0.94942 0.0
H331 H 0.09627 0.3233 0.88977 0.0
H332 H 0.13614 0.31357 0.91199 0.0
H333 H 0.22103 0.42473 0.91495 0.0
H334 H 0.2379 0.44461 0.96884 0.0
H335 H 0.20687 0.44596 0.94366 0.0
H336 H 0.17894 0.42741 0.02334 0.0
H337 H 0.20955 0.42535 0.04846 0.0
H338 H 0.17304 0.39292 0.04834 0.0
H339 H 0.17718 0.31062 0.94906 0.0
H340 H 0.2219 0.31705 -0.01166 0.0
H341 H 0.24788 0.4084 0.02247 0.0
C342 C 0.1442 0.39091 0.93967 0.0
C343 C 0.11815 0.36841 0.91772 0.0
C344 C 0.116 0.34088 0.90644 0.0
C345 C 0.13849 0.33508 0.91909 0.0
C346 C 0.16318 0.35712 0.94264 0.0
C347 C 0.16663 0.38474 0.95195 0.0
C348 C 0.19514 0.40398 0.97916 0.0
C349 C 0.2165 0.43145 0.9499 0.0
C350 C 0.18877 0.41293 0.0277 0.0
C351 C 0.2067 0.38255 -0.01549 0.0
C352 C 0.18769 0.35564 0.96331 0.0
C353 C 0.19253 0.33173 0.96511 0.0
C354 C 0.21797 0.3356 -0.01207 0.0
C355 C 0.23856 0.36329 0.00844 0.0
C356 C 0.23262 0.387 0.0071 0.0
H357 H 0.82034 0.26337 0.37819 0.0
H358 H 0.8931 0.27426 0.29033 0.0
H359 H 0.85774 0.23783 0.2334 0.0
H360 H 0.78001 0.1868 0.36777 0.0
H361 H 0.74392 0.18338 0.36738 0.0
H362 H 0.77438 0.21462 0.39596 0.0
H363 H 0.76534 0.25044 0.34392 0.0
H364 H 0.73498 0.21912 0.31476 0.0
H365 H 0.7651 0.24732 0.28032 0.0
H366 H 0.81609 0.19645 0.19165 0.0
H367 H 0.77141 0.14874 0.17283 0.0
H368 H 0.72468 0.16234 0.28809 0.0
C369 C 0.8286 0.25858 0.34623 0.0
C370 C 0.85931 0.27175 0.33812 0.0
C371 C 0.86957 0.26438 0.29689 0.0
C372 C 0.84967 0.24396 0.26416 0.0
C373 C 0.81949 0.23085 0.27332 0.0
C374 C 0.8089 0.23759 0.31354 0.0
C375 C 0.77573 0.21704 0.31831 0.0
C376 C 0.76808 0.19942 0.3651 0.0
C377 C 0.75932 0.23453 0.31406 0.0
C378 C 0.76966 0.19701 0.2757 0.0
C379 C 0.79511 0.20596 0.24954 0.0
C380 C 0.79586 0.18948 0.21127 0.0
C381 C 0.77034 0.16241 0.20076 0.0
C382 C 0.74449 0.15195 0.22866 0.0
C383 C 0.74385 0.17012 0.26533 0.0
H384 H 0.63346 0.85813 0.70241 0.0
H385 H 0.54843 0.84349 0.65346 0.0
H386 H 0.53872 0.79653 0.61528 0.0
H387 H 0.652 0.8356 0.59824 0.0
H388 H 0.6706 0.81864 0.62722 0.0
H389 H 0.66907 0.84884 0.65531 0.0
H390 H 0.64495 0.81636 0.7299 0.0
H391 H 0.64692 0.78621 0.70242 0.0
H392 H 0.61192 0.78053 0.72361 0.0
H393 H 0.54002 0.75166 0.57907 0.0
H394 H 0.55198 0.71386 0.5501 0.0
H395 H 0.63753 0.76156 0.61947 0.0
C396 C 0.61242 0.84476 0.68472 0.0
C397 C 0.59154 0.85431 0.68143 0.0
C398 C 0.56461 0.83641 0.65691 0.0
C399 C 0.55898 0.80979 0.63496 0.0
C400 C 0.58059 0.80156 0.63763 0.0
C401 C 0.60672 0.81858 0.66215 0.0
C402 C 0.62731 0.80625 0.65763 0.0
C403 C 0.65646 0.82867 0.63314 0.0
C404 C 0.6331 0.79677 0.70627 0.0
C405 C 0.60889 0.77969 0.62643 0.0
C406 C 0.58187 0.777 0.61546 0.0
C407 C 0.56116 0.75366 0.58746 0.0
C408 C 0.56816 0.73238 0.57097 0.0
C409 C 0.5958 0.73493 0.58203 0.0
C410 C 0.61636 0.75912 0.60974 0.0
H411 H 0.72272 0.56785 0.05888 0.0
H412 H 0.70714 0.61446 0.94515 0.0
H413 H 0.74052 0.60688 0.8931 0.0
H414 H 0.79828 0.6009 0.03941 0.0
H415 H 0.80151 0.5688 0.05326 0.0
H416 H 0.77214 0.57263 0.07897 0.0
H417 H 0.73354 0.52127 0.04506 0.0
H418 H 0.7629 0.51738 0.01899 0.0
H419 H 0.73322 0.51441 0.98245 0.0
H420 H 0.7798 0.60089 0.85702 0.0
H421 H 0.82529 0.59933 0.84043 0.0
H422 H 0.81744 0.55702 0.97638 0.0
C423 C 0.72578 0.5756 0.02257 0.0
C424 C 0.71219 0.59143 0.00567 0.0
C425 C 0.71733 0.60219 0.95856 0.0
C426 C 0.73607 0.5978 0.92863 0.0
C427 C 0.74973 0.58272 0.94636 0.0
C428 C 0.74501 0.57184 -0.00775 0.0
C429 C 0.7655 0.55991 0.00399 0.0
C430 C 0.78554 0.57656 0.0464 0.0
C431 C 0.74772 0.52624 0.01316 0.0
C432 C 0.78314 0.5669 0.95827 0.0
C433 C 0.77314 0.57948 0.92525 0.0
C434 C 0.78748 0.59049 0.8821 0.0
C435 C 0.81331 0.58952 0.87295 0.0
C436 C 0.82455 0.57762 0.90674 0.0
C437 C 0.80876 0.56535 0.94933 0.0
H438 H 0.12733 0.77802 0.37101 0.0
H439 H 0.14899 0.70904 0.39816 0.0
H440 H 0.19872 0.74106 0.36309 0.0
H441 H 0.16022 0.79772 0.2588 0.0
H442 H 0.17305 0.83683 0.26495 0.0
H443 H 0.14066 0.80994 0.29667 0.0
H444 H 0.16434 0.83576 0.37628 0.0
H445 H 0.19656 0.86312 0.34471 0.0
H446 H 0.20049 0.84207 0.39207 0.0
H447 H 0.246 0.78104 0.32224 0.0
H448 H 0.28618 0.82514 0.28134 0.0
H449 H 0.23059 0.86502 0.2767 0.0
C450 C 0.14271 0.76982 0.3707 0.0
C451 C 0.13442 0.74117 0.38791 0.0
C452 C 0.15502 0.73107 0.38567 0.0
C453 C 0.18323 0.74905 0.36561 0.0
C454 C 0.19029 0.77686 0.34758 0.0
C455 C 0.17056 0.78715 0.35015 0.0
C456 C 0.18258 0.81703 0.32617 0.0
C457 C 0.16296 0.81525 0.28416 0.0
C458 C 0.18622 0.84091 0.36194 0.0
C459 C 0.21221 0.82207 0.30949 0.0
C460 C 0.21649 0.79886 0.32237 0.0
C461 C 0.24277 0.79924 0.31181 0.0
C462 C 0.26539 0.82427 0.28838 0.0
C463 C 0.26136 0.84831 0.27525 0.0
C464 C 0.2342 0.8468 0.28542 0.0
H465 H 0.4401 0.17656 0.67826 0.0
H466 H 0.36582 0.14208 0.77552 0.0
H467 H 0.35758 0.18334 0.75424 0.0
H468 H 0.46481 0.25842 0.69361 0.0
H469 H 0.47385 0.26565 0.63161 0.0
H470 H 0.47789 0.23728 0.66172 0.0
H471 H 0.44414 0.19897 0.59892 0.0
H472 H 0.43942 0.22691 0.5692 0.0
H473 H 0.40745 0.19304 0.58911 0.0
H474 H 0.35125 0.22144 0.71217 0.0
H475 H 0.35015 0.25777 0.65749 0.0
H476 H 0.42901 0.26908 0.58723 0.0
C477 C 0.42298 0.17848 0.69668 0.0
C478 C 0.40377 0.15628 0.72897 0.0
C479 C 0.38095 0.15898 0.75108 0.0
C480 C 0.37608 0.18233 0.73913 0.0
C481 C 0.39436 0.20291 0.70525 0.0
C482 C 0.41772 0.20162 0.68491 0.0
C483 C 0.43204 0.22472 0.64589 0.0
C484 C 0.46405 0.2479 0.65901 0.0
C485 C 0.43066 0.21002 0.59797 0.0
C486 C 0.41224 0.23826 0.6461 0.0
C487 C 0.39081 0.22543 0.68093 0.0
C488 C 0.36831 0.23215 0.68552 0.0
C489 C 0.36773 0.2526 0.65394 0.0
C490 C 0.38956 0.2663 0.61822 0.0
C491 C 0.41231 0.25926 0.61463 0.0
H492 H 0.33189 0.32819 0.67839 0.0
H493 H 0.40333 0.41718 0.64665 0.0
H494 H 0.40093 0.43288 0.72834 0.0
H495 H 0.29093 0.34849 0.76447 0.0
H496 H 0.28273 0.31729 0.80224 0.0
H497 H 0.28635 0.31463 0.73923 0.0
H498 H 0.32636 0.30002 0.75405 0.0
H499 H 0.32322 0.30305 0.81696 0.0
H500 H 0.35871 0.32432 0.78842 0.0
H501 H 0.39365 0.43773 0.81414 0.0
H502 H 0.38316 0.4312 0.89994 0.0
H503 H 0.31932 0.33785 0.87731 0.0
C504 C 0.34623 0.35121 0.68836 0.0
C505 C 0.36736 0.37175 0.6565 0.0
C506 C 0.38676 0.40137 0.67082 0.0
C507 C 0.38552 0.41044 0.71694 0.0
C508 C 0.36504 0.38942 0.74817 0.0
C509 C 0.34577 0.3604 0.73461 0.0
C510 C 0.32841 0.34137 0.7764 0.0
C511 C 0.29513 0.32977 0.77021 0.0
C512 C 0.33456 0.31569 0.78441 0.0
C513 C 0.34138 0.36409 0.81567 0.0
C514 C 0.36204 0.39178 0.79847 0.0
C515 C 0.37739 0.41623 0.82807 0.0
C516 C 0.37136 0.41228 0.87665 0.0
C517 C 0.3506 0.38399 0.89501 0.0
C518 C 0.33546 0.35965 0.86412 0.0
H519 H -0.00333 0.39513 0.28481 0.0
H520 H 0.99164 0.31254 0.32719 0.0
H521 H 0.01112 0.30935 0.24913 0.0
H522 H 0.97183 0.37582 0.17295 0.0
H523 H 0.99627 0.41107 0.14518 0.0
H524 H 0.98699 0.40974 0.20671 0.0
H525 H 0.04262 0.43728 0.22924 0.0
H526 H 0.05218 0.43912 0.1675 0.0
H527 H 0.06571 0.42274 0.20979 0.0
H528 H 0.02037 0.3097 0.16257 0.0
H529 H 0.02576 0.31733 0.07573 0.0
H530 H 0.02906 0.40178 0.09175 0.0
C531 C 0.00055 0.37689 0.27804 0.0
C532 C 0.99271 0.35406 0.31158 0.0
C533 C -0.00219 0.33036 0.30182 0.0
C534 C 0.00882 0.32835 0.25767 0.0
C535 C 0.01531 0.35068 0.22452 0.0
C536 C 0.01212 0.37492 0.23462 0.0
C537 C 0.01869 0.3948 0.19186 0.0
C538 C 0.99184 0.39801 0.1784 0.0
C539 C 0.04646 0.42529 0.2001 0.0
C540 C 0.02433 0.37702 0.15544 0.0
C541 C 0.02237 0.35168 0.17495 0.0
C542 C 0.02297 0.32992 0.14708 0.0
C543 C 0.02574 0.33427 0.09796 0.0
C544 C 0.02823 0.36029 0.07773 0.0
C545 C 0.02798 0.38208 0.10681 0.0
H546 H 0.66282 0.94879 0.54848 0.0
H547 H 0.71605 0.02706 0.63355 0.0
H548 H 0.74338 0.05454 0.5619 0.0
H549 H 0.72456 0.96465 0.45668 0.0
H550 H 0.69724 0.94969 0.41021 0.0
H551 H 0.68786 0.93429 0.46917 0.0
H552 H 0.64353 0.94351 0.47007 0.0
H553 H 0.65283 0.95909 0.41171 0.0
H554 H 0.65009 0.98055 0.45942 0.0
H555 H 0.75261 0.0765 0.48171 0.0
H556 H 0.74744 0.08967 0.39941 0.0
H557 H 0.69295 0.99642 0.36526 0.0
C558 C 0.68114 0.97133 0.55203 0.0
C559 C 0.68752 0.98599 0.59594 0.0
C560 C 0.71121 0.01551 0.59996 0.0
C561 C 0.72683 0.0312 0.55952 0.0
C562 C 0.71903 0.01659 0.51597 0.0
C563 C 0.69733 0.98695 0.51222 0.0
C564 C 0.69047 0.97738 0.46106 0.0
C565 C 0.70066 0.95519 0.44855 0.0
C566 C 0.6573 0.96442 0.44997 0.0
C567 C 0.70947 0.0069 0.43663 0.0
C568 C 0.7262 0.0292 0.46882 0.0
C569 C 0.74085 0.05915 0.45582 0.0
C570 C 0.73771 0.06648 0.40923 0.0
C571 C 0.72054 0.0439 0.37631 0.0
C572 C 0.70725 0.01384 0.3896 0.0
H573 H 0.65523 0.67553 0.72818 0.0
H574 H 0.56331 0.60815 0.70467 0.0
H575 H 0.55655 0.59848 0.79044 0.0
H576 H 0.66957 0.63745 0.81896 0.0
H577 H 0.69289 0.67026 0.85321 0.0
H578 H 0.69015 0.6731 0.79009 0.0
H579 H 0.67434 0.71254 0.80246 0.0
H580 H 0.67684 0.70964 0.86573 0.0
H581 H 0.64286 0.70377 0.83943 0.0
H582 H 0.56048 0.59311 0.87667 0.0
H583 H 0.57511 0.59248 0.95961 0.0
H584 H 0.66367 0.66485 0.92886 0.0
C585 C 0.63368 0.65885 0.74116 0.0
C586 C 0.60981 0.64255 0.70985 0.0
C587 C 0.58191 0.62091 0.72807 0.0
C588 C 0.57779 0.61532 0.77672 0.0
C589 C 0.60171 0.63178 0.80665 0.0
C590 C 0.62908 0.65315 0.78976 0.0
C591 C 0.65133 0.66689 0.82962 0.0
C592 C 0.67752 0.66159 0.82254 0.0
C593 C 0.66196 0.70019 0.83459 0.0
C594 C 0.63231 0.64933 0.87131 0.0
C595 C 0.60372 0.6293 0.85717 0.0
C596 C 0.58262 0.60901 0.88843 0.0
C597 C 0.59112 0.60878 0.93533 0.0
C598 C 0.62033 0.62888 0.9504 0.0
C599 C 0.641 0.6498 0.9183 0.0
H600 H 0.00604 0.63695 0.24712 0.0
H601 H 0.01741 0.72507 0.2619 0.0
H602 H -0.00304 0.72119 0.1813 0.0
H603 H 0.02306 0.64075 0.12248 0.0
H604 H 0.995 0.60264 0.11194 0.0
H605 H 0.01245 0.61354 0.16914 0.0
H606 H 0.96091 0.59232 0.20866 0.0
H607 H 0.94331 0.58157 0.15157 0.0
H608 H 0.93647 0.60532 0.1894 0.0
H609 H 0.97573 0.70747 0.09884 0.0
H610 H 0.95266 0.68384 0.02243 0.0
H611 H 0.95191 0.60344 0.06599 0.0
C612 C 0.00463 0.65561 0.23311 0.0
C613 C 0.01353 0.68145 0.26011 0.0
C614 C 0.01075 0.70516 0.2413 0.0
C615 C -0.00076 0.70316 0.19573 0.0
C616 C 0.9903 0.67714 0.17014 0.0
C617 C 0.99267 0.65372 0.18832 0.0
C618 C 0.98003 0.62756 0.15494 0.0
C619 C 0.00407 0.62074 0.13866 0.0
C620 C 0.95361 0.60008 0.1775 0.0
C621 C 0.97021 0.63992 0.11499 0.0
C622 C 0.97662 0.66865 0.12406 0.0
C623 C 0.9704 0.68491 0.09145 0.0
C624 C 0.95734 0.67138 0.0483 0.0
C625 C 0.9503 0.64184 0.03888 0.0
C626 C 0.95666 0.62593 0.07275 0.0
H627 H 0.3119 0.94966 0.4055 0.0
H628 H 0.34383 0.02711 0.31479 0.0
H629 H 0.3498 0.05818 0.38474 0.0
H630 H 0.27305 0.9736 0.49442 0.0
H631 H 0.28329 0.95775 0.54255 0.0
H632 H 0.27599 0.94096 0.48464 0.0
H633 H 0.32765 0.94536 0.48496 0.0
H634 H 0.33522 0.96232 0.54239 0.0
H635 H 0.36018 0.98127 0.49393 0.0
H636 H 0.36338 0.08177 0.46433 0.0
H637 H 0.37879 0.09551 0.54766 0.0
H638 H 0.33393 0.00232 0.58657 0.0
C639 C 0.31925 0.973 0.40036 0.0
C640 C 0.3275 0.98617 0.3552 0.0
C641 C 0.3372 0.01671 0.34932 0.0
C642 C 0.3406 0.03445 0.38877 0.0
C643 C 0.33332 0.02099 0.43331 0.0
C644 C 0.32213 0.99078 0.43915 0.0
C645 C 0.31863 0.98217 0.4909 0.0
C646 C 0.28578 0.96246 0.50389 0.0
C647 C 0.3365 0.96691 0.50375 0.0
C648 C 0.33163 0.01252 0.51334 0.0
C649 C 0.33969 0.03462 0.47959 0.0
C650 C 0.35619 0.06468 0.49125 0.0
C651 C 0.36501 0.07229 0.53845 0.0
C652 C 0.35698 0.04991 0.57317 0.0
C653 C 0.33942 0.01977 0.56072 0.0
H654 H 0.44914 0.42534 0.08385 0.0
H655 H 0.39408 0.46035 0.13342 0.0
H656 H 0.4388 0.50515 0.16306 0.0
H657 H 0.50597 0.45696 0.17972 0.0
H658 H 0.53541 0.46459 0.13877 0.0
H659 H 0.49883 0.43332 0.12899 0.0
H660 H 0.49811 0.45325 0.04503 0.0
H661 H 0.53458 0.4844 0.05449 0.0
H662 H 0.50468 0.49057 0.03846 0.0
H663 H 0.48974 0.54877 0.17665 0.0
H664 H 0.54219 0.58805 0.17057 0.0
H665 H 0.56388 0.52428 0.11239 0.0
C666 C 0.44627 0.44204 0.10195 0.0
C667 C 0.41799 0.43923 0.10643 0.0
C668 C 0.41543 0.46189 0.12977 0.0
C669 C 0.44072 0.48736 0.1469 0.0
C670 C 0.46832 0.48966 0.14083 0.0
C671 C 0.47117 0.46749 0.11909 0.0
C672 C 0.50339 0.47654 0.11226 0.0
C673 C 0.51136 0.45667 0.1417 0.0
C674 C 0.51059 0.47618 0.05944 0.0
C675 C 0.51835 0.50786 0.13163 0.0
C676 C 0.49776 0.51482 0.14877 0.0
C677 C 0.50606 0.54337 0.16423 0.0
C678 C 0.53593 0.56555 0.16058 0.0
C679 C 0.55717 0.55915 0.14142 0.0
C680 C 0.54833 0.52967 0.12833 0.0
H681 H 0.02265 0.58322 0.43911 0.0
H682 H 0.93248 0.56477 0.41997 0.0
H683 H 0.91385 0.51147 0.43351 0.0
H684 H 0.01351 0.52044 0.37783 0.0
H685 H 0.03704 0.51368 0.41637 0.0
H686 H 0.04321 0.55077 0.40971 0.0
H687 H 0.03881 0.55439 0.50059 0.0
H688 H 0.03259 0.51723 0.50751 0.0
H689 H 0.00617 0.52653 0.53083 0.0
H690 H 0.90504 0.45979 0.44356 0.0
H691 H 0.907 0.4134 0.44775 0.0
H692 H 0.00277 0.46537 0.46021 0.0
C693 C -0.00103 0.56805 0.43853 0.0
C694 C 0.97906 0.57826 0.4286 0.0
C695 C 0.94822 0.55755 0.42745 0.0
C696 C 0.93737 0.5272 0.43531 0.0
C697 C 0.95758 0.51782 0.44437 0.0
C698 C 0.98773 0.5376 0.44608 0.0
C699 C 0.00478 0.52147 0.45361 0.0
C700 C 0.02587 0.52691 0.41189 0.0
C701 C 0.02157 0.53044 0.50096 0.0
C702 C 0.97955 0.48956 0.45487 0.0
C703 C 0.95248 0.48793 0.44996 0.0
C704 C 0.92608 0.46076 0.44792 0.0
C705 C 0.92742 0.43452 0.45031 0.0
C706 C 0.95499 0.43566 0.45448 0.0
C707 C 0.98128 0.46364 0.45749 0.0
H708 H 0.54385 0.96837 0.69421 0.0
H709 H 0.61803 0.05743 0.71775 0.0
H710 H 0.58417 0.07728 0.71675 0.0
H711 H 0.50418 0.99048 0.61388 0.0
H712 H 0.46819 0.96352 0.63624 0.0
H713 H 0.49823 0.95596 0.63879 0.0
H714 H 0.4906 0.94722 0.72934 0.0
H715 H 0.46055 0.95476 0.72705 0.0
H716 H 0.49135 0.97579 0.76633 0.0
H717 H 0.54247 0.08769 0.71575 0.0
H718 H 0.49534 0.0879 0.71171 0.0
H719 H 0.44828 0.99267 0.68638 0.0
C720 C 0.55296 0.99203 0.69911 0.0
C721 C 0.58366 0.01126 0.70608 0.0
C722 C 0.59465 0.04215 0.71218 0.0
C723 C 0.57558 0.05372 0.71177 0.0
C724 C 0.54553 0.03423 0.70489 0.0
C725 C 0.53422 0.00408 0.6984 0.0
C726 C 0.50097 0.98813 0.69139 0.0
C727 C 0.4924 0.97368 0.64214 0.0
C728 C 0.48493 0.96512 0.73089 0.0
C729 C 0.49546 0.01402 0.6953 0.0
C730 C 0.52146 0.04039 0.70327 0.0
C731 C 0.52194 0.06722 0.70924 0.0
C732 C 0.49506 0.06711 0.70698 0.0
C733 C 0.46813 0.04038 0.69848 0.0
C734 C 0.46851 0.01356 0.69246 0.0
H735 H 0.53406 0.57258 0.50196 0.0
H736 H 0.60593 0.55361 0.49888 0.0
H737 H 0.57096 0.50194 0.47549 0.0
H738 H 0.48435 0.5084 0.55655 0.0
H739 H 0.45194 0.50283 0.525 0.0
H740 H 0.48314 0.53968 0.53148 0.0
H741 H 0.48599 0.54673 0.44035 0.0
H742 H 0.4546 0.50979 0.43358 0.0
H743 H 0.48874 0.52014 0.40308 0.0
H744 H 0.52772 0.45085 0.46597 0.0
H745 H 0.47939 0.4044 0.47118 0.0
H746 H 0.43545 0.45628 0.47985 0.0
C747 C 0.54255 0.55783 0.4946 0.0
C748 C 0.57271 0.56715 0.50192 0.0
C749 C 0.58289 0.54695 0.4934 0.0
C750 C 0.56322 0.51758 0.47983 0.0
C751 C 0.53341 0.5087 0.47466 0.0
C752 C 0.52311 0.52828 0.48138 0.0
C753 C 0.48962 0.51226 0.47927 0.0
C754 C 0.47652 0.51601 0.52584 0.0
C755 C 0.47912 0.52287 0.43651 0.0
C756 C 0.48273 0.48052 0.47269 0.0
C757 C 0.50828 0.47897 0.46919 0.0
C758 C 0.50751 0.45179 0.46758 0.0
C759 C 0.47995 0.4255 0.47067 0.0
C760 C 0.45357 0.42661 0.47562 0.0
C761 C 0.45511 0.45456 0.47527 0.0
H762 H 0.9323 0.51541 0.90602 0.0
H763 H 0.01618 0.58616 0.85244 0.0
H764 H 0.03479 0.5511 0.8465 0.0
H765 H 0.96292 0.48411 0.97982 0.0
H766 H 0.93441 0.44599 0.97073 0.0
H767 H 0.9259 0.47529 0.96425 0.0
H768 H 0.90665 0.45748 0.87911 0.0
H769 H 0.91491 0.42793 0.88547 0.0
H770 H 0.9303 0.45369 0.8367 0.0
H771 H 0.04589 0.50967 0.85255 0.0
H772 H 0.04889 0.46489 0.87179 0.0
H773 H 0.95853 0.42158 0.92427 0.0
C774 C 0.95425 0.52323 0.89178 0.0
C775 C 0.97271 0.55337 0.87919 0.0
C776 C 0.00165 0.56308 0.86209 0.0
C777 C 0.01239 0.54334 0.85844 0.0
C778 C 0.99399 0.51394 0.87232 0.0
C779 C 0.96551 0.50386 0.88861 0.0
C780 C 0.95132 0.47189 0.90528 0.0
C781 C 0.94317 0.46918 0.95815 0.0
C782 C 0.92419 0.45155 0.87481 0.0
C783 C 0.97647 0.46587 0.89676 0.0
C784 C 0.00072 0.49025 0.8771 0.0
C785 C 0.02694 0.49031 0.86756 0.0
C786 C 0.02846 0.46479 0.87867 0.0
C787 C 0.00401 0.4397 0.8996 0.0
C788 C 0.97765 0.44033 0.90828 0.0
H789 H 0.58491 0.04054 0.25401 0.0
H790 H 0.56924 0.95411 0.30046 0.0
H791 H 0.51555 0.93476 0.29888 0.0
H792 H 0.52456 0.03868 0.32205 0.0
H793 H 0.51556 0.05711 0.2764 0.0
H794 H 0.55301 0.06456 0.28254 0.0
H795 H 0.55268 0.05002 0.19473 0.0
H796 H 0.51517 0.0423 0.18842 0.0
H797 H 0.52423 0.01404 0.17436 0.0
H798 H 0.46342 0.92364 0.28773 0.0
H799 H 0.41635 0.92289 0.27371 0.0
H800 H 0.46564 0.0167 0.23711 0.0
C801 C 0.57022 0.01764 0.26431 0.0
C802 C 0.58143 0.99891 0.27727 0.0
C803 C 0.56134 0.96902 0.29044 0.0
C804 C 0.53071 0.95772 0.28956 0.0
C805 C 0.52041 0.97659 0.27586 0.0
C806 C 0.5395 0.006 0.264 0.0
C807 C 0.52253 0.02147 0.25046 0.0
C808 C 0.52932 0.04696 0.28493 0.0
C809 C 0.52905 0.0326 0.19893 0.0
C810 C 0.491 0.99606 0.25607 0.0
C811 C 0.49026 0.97033 0.27052 0.0
C812 C 0.46367 0.94371 0.27679 0.0
C813 C 0.43706 0.94347 0.26853 0.0
C814 C 0.43728 0.96973 0.25454 0.0
C815 C 0.46469 0.99629 0.24817 0.0
loop_
_geom_bond_atom_site_label_1
_geom_bond_atom_site_label_2
_geom_bond_distance
_geom_bond_site_symmetry_2
_ccdc_geom_bond_type
C0 O1 1.306 . S
C0 O3 1.160 . S
O1 C0 1.306 . S
O1 Cd2 2.228 . S
Cd2 O1 2.228 . S
Cd2 O6 2.273 . S
Cd2 O10 2.277 . S
O3 C0 1.160 . S
O3 Cd4 2.203 . S
Cd4 O3 2.203 . S
Cd4 O6 2.411 . S
Cd4 O7 2.333 1_554 S
Cd4 O8 2.352 . S
Cd4 O12 2.277 . S
Cd4 O13 2.356 . S
C5 O10 1.209 . S
C5 O12 1.226 . S
O6 Cd2 2.273 . S
O6 Cd4 2.411 . S
O6 C9 1.320 1_554 S
O7 Cd4 2.333 1_556 S
O7 C9 1.214 . S
O8 Cd4 2.352 . S
O8 C11 1.258 . S
C9 O6 1.320 1_556 S
C9 O7 1.214 . S
O10 Cd2 2.277 . S
O10 C5 1.209 . S
C11 O8 1.258 . S
C11 O13 1.282 . S
O12 Cd4 2.277 . S
O12 C5 1.226 . S
O13 Cd4 2.356 . S
O13 C11 1.282 . S
C14 O15 1.306 1_655 S
C14 O17 1.160 . S
O15 C14 1.306 1_455 S
O15 Cd16 2.228 . S
Cd16 O15 2.228 . S
Cd16 O20 2.273 1_455 S
Cd16 O24 2.277 1_455 S
O17 C14 1.160 . S
O17 Cd18 2.203 . S
Cd18 O17 2.203 . S
Cd18 O20 2.411 . S
Cd18 O21 2.333 . S
Cd18 O22 2.352 . S
Cd18 O26 2.277 . S
Cd18 O27 2.356 . S
C19 O24 1.209 . S
C19 O26 1.226 . S
O20 Cd16 2.273 1_655 S
O20 Cd18 2.411 . S
O20 C23 1.320 . S
O21 Cd18 2.333 . S
O21 C23 1.214 . S
O22 Cd18 2.352 . S
O22 C25 1.258 . S
C23 O20 1.320 . S
C23 O21 1.214 . S
O24 Cd16 2.277 1_655 S
O24 C19 1.209 . S
C25 O22 1.258 . S
C25 O27 1.282 . S
O26 Cd18 2.277 . S
O26 C19 1.226 . S
O27 Cd18 2.356 . S
O27 C25 1.282 . S
C28 O29 1.306 1_565 S
C28 O31 1.160 . S
O29 C28 1.306 1_545 S
O29 Cd30 2.228 . S
Cd30 O29 2.228 . S
Cd30 O34 2.273 1_545 S
Cd30 O38 2.277 1_545 S
O31 C28 1.160 . S
O31 Cd32 2.203 . S
Cd32 O31 2.203 . S
Cd32 O34 2.411 . S
Cd32 O35 2.333 . S
Cd32 O36 2.352 . S
Cd32 O40 2.277 . S
Cd32 O41 2.356 . S
C33 O38 1.209 . S
C33 O40 1.226 . S
O34 Cd30 2.273 1_565 S
O34 Cd32 2.411 . S
O34 C37 1.320 . S
O35 Cd32 2.333 . S
O35 C37 1.214 . S
O36 Cd32 2.352 . S
O36 C39 1.258 . S
C37 O34 1.320 . S
C37 O35 1.214 . S
O38 Cd30 2.277 1_565 S
O38 C33 1.209 . S
C39 O36 1.258 . S
C39 O41 1.282 . S
O40 Cd32 2.277 . S
O40 C33 1.226 . S
O41 Cd32 2.356 . S
O41 C39 1.282 . S
C42 O43 1.306 . S
C42 O45 1.160 . S
O43 C42 1.306 . S
O43 Cd44 2.228 . S
Cd44 O43 2.228 . S
Cd44 O48 2.273 . S
Cd44 O52 2.277 . S
O45 C42 1.160 . S
O45 Cd46 2.203 . S
Cd46 O45 2.203 . S
Cd46 O48 2.411 . S
Cd46 O49 2.333 1_554 S
Cd46 O50 2.352 . S
Cd46 O54 2.277 . S
Cd46 O55 2.356 . S
C47 O52 1.209 . S
C47 O54 1.226 . S
O48 Cd44 2.273 . S
O48 Cd46 2.411 . S
O48 C51 1.320 1_554 S
O49 Cd46 2.333 1_556 S
O49 C51 1.214 . S
O50 Cd46 2.352 . S
O50 C53 1.258 . S
C51 O48 1.320 1_556 S
C51 O49 1.214 . S
O52 Cd44 2.277 . S
O52 C47 1.209 . S
C53 O50 1.258 . S
C53 O55 1.282 . S
O54 Cd46 2.277 . S
O54 C47 1.226 . S
O55 Cd46 2.356 . S
O55 C53 1.282 . S
C56 O57 1.306 1_455 S
C56 O59 1.160 . S
O57 C56 1.306 1_655 S
O57 Cd58 2.228 . S
Cd58 O57 2.228 . S
Cd58 O62 2.273 1_655 S
Cd58 O66 2.277 1_655 S
O59 C56 1.160 . S
O59 Cd60 2.203 . S
Cd60 O59 2.203 . S
Cd60 O62 2.411 . S
Cd60 O63 2.333 . S
Cd60 O64 2.352 . S
Cd60 O68 2.277 . S
Cd60 O69 2.356 . S
C61 O66 1.209 . S
C61 O68 1.226 . S
O62 Cd58 2.273 1_455 S
O62 Cd60 2.411 . S
O62 C65 1.320 . S
O63 Cd60 2.333 . S
O63 C65 1.214 . S
O64 Cd60 2.352 . S
O64 C67 1.258 . S
C65 O62 1.320 . S
C65 O63 1.214 . S
O66 Cd58 2.277 1_455 S
O66 C61 1.209 . S
C67 O64 1.258 . S
C67 O69 1.282 . S
O68 Cd60 2.277 . S
O68 C61 1.226 . S
O69 Cd60 2.356 . S
O69 C67 1.282 . S
C70 O71 1.306 1_545 S
C70 O73 1.160 . S
O71 C70 1.306 1_565 S
O71 Cd72 2.228 . S
Cd72 O71 2.228 . S
Cd72 O76 2.273 1_565 S
Cd72 O80 2.277 1_565 S
O73 C70 1.160 . S
O73 Cd74 2.203 . S
Cd74 O73 2.203 . S
Cd74 O76 2.411 . S
Cd74 O77 2.333 . S
Cd74 O78 2.352 . S
Cd74 O82 2.277 . S
Cd74 O83 2.356 . S
C75 O80 1.209 . S
C75 O82 1.226 . S
O76 Cd72 2.273 1_545 S
O76 Cd74 2.411 . S
O76 C79 1.320 . S
O77 Cd74 2.333 . S
O77 C79 1.214 . S
O78 Cd74 2.352 . S
O78 C81 1.258 . S
C79 O76 1.320 . S
C79 O77 1.214 . S
O80 Cd72 2.277 1_545 S
O80 C75 1.209 . S
C81 O78 1.258 . S
C81 O83 1.282 . S
O82 Cd74 2.277 . S
O82 C75 1.226 . S
O83 Cd74 2.356 . S
O83 C81 1.282 . S
C84 O85 1.306 . S
C84 O87 1.160 . S
O85 C84 1.306 . S
O85 Cd86 2.228 . S
Cd86 O85 2.228 . S
Cd86 O90 2.273 . S
Cd86 O94 2.277 . S
O87 C84 1.160 . S
O87 Cd88 2.203 . S
Cd88 O87 2.203 . S
Cd88 O90 2.411 . S
Cd88 O91 2.333 . S
Cd88 O92 2.352 . S
Cd88 O96 2.277 . S
Cd88 O97 2.356 . S
C89 O94 1.209 . S
C89 O96 1.226 . S
O90 Cd86 2.273 . S
O90 Cd88 2.411 . S
O90 C93 1.320 . S
O91 Cd88 2.333 . S
O91 C93 1.214 . S
O92 Cd88 2.352 . S
O92 C95 1.258 . S
C93 O90 1.320 . S
C93 O91 1.214 . S
O94 Cd86 2.277 . S
O94 C89 1.209 . S
C95 O92 1.258 . S
C95 O97 1.282 . S
O96 Cd88 2.277 . S
O96 C89 1.226 . S
O97 Cd88 2.356 . S
O97 C95 1.282 . S
C98 O99 1.306 1_655 S
C98 O101 1.160 . S
O99 C98 1.306 1_455 S
O99 Cd100 2.228 . S
Cd100 O99 2.228 . S
Cd100 O104 2.273 1_455 S
Cd100 O108 2.277 1_455 S
O101 C98 1.160 . S
O101 Cd102 2.203 . S
Cd102 O101 2.203 . S
Cd102 O104 2.411 . S
Cd102 O105 2.333 1_556 S
Cd102 O106 2.352 . S
Cd102 O110 2.277 . S
Cd102 O111 2.356 . S
C103 O108 1.209 . S
C103 O110 1.226 . S
O104 Cd100 2.273 1_655 S
O104 Cd102 2.411 . S
O104 C107 1.320 1_556 S
O105 Cd102 2.333 1_554 S
O105 C107 1.214 . S
O106 Cd102 2.352 . S
O106 C109 1.258 . S
C107 O104 1.320 1_554 S
C107 O105 1.214 . S
O108 Cd100 2.277 1_655 S
O108 C103 1.209 . S
C109 O106 1.258 . S
C109 O111 1.282 . S
O110 Cd102 2.277 . S
O110 C103 1.226 . S
O111 Cd102 2.356 . S
O111 C109 1.282 . S
C112 O113 1.306 1_565 S
C112 O115 1.160 . S
O113 C112 1.306 1_545 S
O113 Cd114 2.228 . S
Cd114 O113 2.228 . S
Cd114 O118 2.273 1_545 S
Cd114 O122 2.277 1_545 S
O115 C112 1.160 . S
O115 Cd116 2.203 . S
Cd116 O115 2.203 . S
Cd116 O118 2.411 . S
Cd116 O119 2.333 . S
Cd116 O120 2.352 . S
Cd116 O124 2.277 . S
Cd116 O125 2.356 . S
C117 O122 1.209 . S
C117 O124 1.226 . S
O118 Cd114 2.273 1_565 S
O118 Cd116 2.411 . S
O118 C121 1.320 . S
O119 Cd116 2.333 . S
O119 C121 1.214 . S
O120 Cd116 2.352 . S
O120 C123 1.258 . S
C121 O118 1.320 . S
C121 O119 1.214 . S
O122 Cd114 2.277 1_565 S
O122 C117 1.209 . S
C123 O120 1.258 . S
C123 O125 1.282 . S
O124 Cd116 2.277 . S
O124 C117 1.226 . S
O125 Cd116 2.356 . S
O125 C123 1.282 . S
C126 O127 1.306 . S
C126 O129 1.160 . S
O127 C126 1.306 . S
O127 Cd128 2.228 . S
Cd128 O127 2.228 . S
Cd128 O132 2.273 . S
Cd128 O136 2.277 . S
O129 C126 1.160 . S
O129 Cd130 2.203 . S
Cd130 O129 2.203 . S
Cd130 O132 2.411 . S
Cd130 O133 2.333 . S
Cd130 O134 2.352 . S
Cd130 O138 2.277 . S
Cd130 O139 2.356 . S
C131 O136 1.209 . S
C131 O138 1.226 . S
O132 Cd128 2.273 . S
O132 Cd130 2.411 . S
O132 C135 1.320 . S
O133 Cd130 2.333 . S
O133 C135 1.214 . S
O134 Cd130 2.352 . S
O134 C137 1.258 . S
C135 O132 1.320 . S
C135 O133 1.214 . S
O136 Cd128 2.277 . S
O136 C131 1.209 . S
C137 O134 1.258 . S
C137 O139 1.282 . S
O138 Cd130 2.277 . S
O138 C131 1.226 . S
O139 Cd130 2.356 . S
O139 C137 1.282 . S
C140 O141 1.306 1_455 S
C140 O143 1.160 . S
O141 C140 1.306 1_655 S
O141 Cd142 2.228 . S
Cd142 O141 2.228 . S
Cd142 O146 2.273 1_655 S
Cd142 O150 2.277 1_655 S
O143 C140 1.160 . S
O143 Cd144 2.203 . S
Cd144 O143 2.203 . S
Cd144 O146 2.411 . S
Cd144 O147 2.333 1_556 S
Cd144 O148 2.352 . S
Cd144 O152 2.277 . S
Cd144 O153 2.356 . S
C145 O150 1.209 . S
C145 O152 1.226 . S
O146 Cd142 2.273 1_455 S
O146 Cd144 2.411 . S
O146 C149 1.320 1_556 S
O147 Cd144 2.333 1_554 S
O147 C149 1.214 . S
O148 Cd144 2.352 . S
O148 C151 1.258 . S
C149 O146 1.320 1_554 S
C149 O147 1.214 . S
O150 Cd142 2.277 1_455 S
O150 C145 1.209 . S
C151 O148 1.258 . S
C151 O153 1.282 . S
O152 Cd144 2.277 . S
O152 C145 1.226 . S
O153 Cd144 2.356 . S
O153 C151 1.282 . S
C154 O155 1.306 1_545 S
C154 O157 1.160 . S
O155 C154 1.306 1_565 S
O155 Cd156 2.228 . S
Cd156 O155 2.228 . S
Cd156 O160 2.273 1_565 S
Cd156 O164 2.277 1_565 S
O157 C154 1.160 . S
O157 Cd158 2.203 . S
Cd158 O157 2.203 . S
Cd158 O160 2.411 . S
Cd158 O161 2.333 . S
Cd158 O162 2.352 . S
Cd158 O166 2.277 . S
Cd158 O167 2.356 . S
C159 O164 1.209 . S
C159 O166 1.226 . S
O160 Cd156 2.273 1_545 S
O160 Cd158 2.411 . S
O160 C163 1.320 . S
O161 Cd158 2.333 . S
O161 C163 1.214 . S
O162 Cd158 2.352 . S
O162 C165 1.258 . S
C163 O160 1.320 . S
C163 O161 1.214 . S
O164 Cd156 2.277 1_545 S
O164 C159 1.209 . S
C165 O162 1.258 . S
C165 O167 1.282 . S
O166 Cd158 2.277 . S
O166 C159 1.226 . S
O167 Cd158 2.356 . S
O167 C165 1.282 . S
H168 C180 0.930 . S
H169 C182 0.930 . S
H170 C183 0.930 . S
H171 C187 0.959 . S
H172 C187 0.959 . S
H173 C187 0.961 . S
H174 C188 0.960 . S
H175 C188 0.961 . S
H176 C188 0.959 . S
H177 C191 0.929 . S
H178 C192 0.931 . S
H179 C194 0.930 . S
C180 H168 0.930 . S
C180 C181 1.399 . S
C180 C185 1.399 . S
C181 C180 1.399 . S
C181 C182 1.376 . S
C182 H169 0.930 . S
C182 C181 1.376 . S
C182 C183 1.388 . S
C183 H170 0.930 . S
C183 C182 1.388 . S
C183 C184 1.390 . S
C184 C183 1.390 . S
C184 C185 1.394 . S
C184 C190 1.465 . S
C185 C180 1.399 . S
C185 C184 1.394 . S
C185 C186 1.516 . S
C186 C185 1.516 . S
C186 C187 1.502 . S
C186 C188 1.561 . S
C186 C189 1.526 . S
C187 H171 0.959 . S
C187 H172 0.959 . S
C187 H173 0.961 . S
C187 C186 1.502 . S
C188 H174 0.960 . S
C188 H175 0.961 . S
C188 H176 0.959 . S
C188 C186 1.561 . S
C189 C186 1.526 . S
C189 C190 1.396 . S
C189 C194 1.390 . S
C190 C184 1.465 . S
C190 C189 1.396 . S
C190 C191 1.399 . S
C191 H177 0.929 . S
C191 C190 1.399 . S
C191 C192 1.385 . S
C192 H178 0.931 . S
C192 C191 1.385 . S
C192 C193 1.389 . S
C193 C192 1.389 . S
C193 C194 1.387 . S
C194 H179 0.930 . S
C194 C189 1.390 . S
C194 C193 1.387 . S
H195 C207 0.930 . S
H196 C209 0.930 . S
H197 C210 0.930 . S
H198 C214 0.959 . S
H199 C214 0.959 . S
H200 C214 0.961 . S
H201 C215 0.960 . S
H202 C215 0.961 . S
H203 C215 0.959 . S
H204 C218 0.929 . S
H205 C219 0.931 . S
H206 C221 0.930 . S
C207 H195 0.930 . S
C207 C208 1.399 1_455 S
C207 C212 1.399 . S
C208 C207 1.399 1_655 S
C208 C209 1.376 . S
C209 H196 0.930 . S
C209 C208 1.376 . S
C209 C210 1.388 . S
C210 H197 0.930 . S
C210 C209 1.388 . S
C210 C211 1.390 . S
C211 C210 1.390 . S
C211 C212 1.394 1_655 S
C211 C217 1.465 . S
C212 C207 1.399 . S
C212 C211 1.394 1_455 S
C212 C213 1.516 . S
C213 C212 1.516 . S
C213 C214 1.502 . S
C213 C215 1.561 . S
C213 C216 1.526 . S
C214 H198 0.959 . S
C214 H199 0.959 . S
C214 H200 0.961 . S
C214 C213 1.502 . S
C215 H201 0.960 . S
C215 H202 0.961 . S
C215 H203 0.959 . S
C215 C213 1.561 . S
C216 C213 1.526 . S
C216 C217 1.396 1_455 S
C216 C221 1.390 . S
C217 C211 1.465 . S
C217 C216 1.396 1_655 S
C217 C218 1.399 . S
C218 H204 0.929 . S
C218 C217 1.399 . S
C218 C219 1.385 . S
C219 H205 0.931 . S
C219 C218 1.385 . S
C219 C220 1.389 1_655 S
C220 C219 1.389 1_455 S
C220 C221 1.387 . S
C221 H206 0.930 . S
C221 C216 1.390 . S
C221 C220 1.387 . S
H222 C234 0.930 . S
H223 C236 0.930 . S
H224 C237 0.930 . S
H225 C241 0.962 . S
H226 C241 0.959 1_554 S
H227 C241 0.961 . S
H228 C242 0.960 . S
H229 C242 0.961 1_554 S
H230 C242 0.959 . S
H231 C245 0.929 . S
H232 C246 0.931 . S
H233 C248 0.930 . S
C234 H222 0.930 . S
C234 C235 1.399 1_545 S
C234 C239 1.399 . S
C235 C234 1.399 1_565 S
C235 C236 1.376 . S
C236 H223 0.930 . S
C236 C235 1.376 . S
C236 C237 1.388 . S
C237 H224 0.930 . S
C237 C236 1.388 . S
C237 C238 1.390 . S
C238 C237 1.390 . S
C238 C239 1.394 1_565 S
C238 C244 1.465 1_556 S
C239 C234 1.399 . S
C239 C238 1.394 1_545 S
C239 C240 1.516 . S
C240 C239 1.516 . S
C240 C241 1.502 . S
C240 C242 1.561 . S
C240 C243 1.526 1_556 S
C241 H225 0.962 . S
C241 H226 0.959 1_556 S
C241 H227 0.961 . S
C241 C240 1.502 . S
C242 H228 0.960 . S
C242 H229 0.961 1_556 S
C242 H230 0.959 . S
C242 C240 1.561 . S
C243 C240 1.526 1_554 S
C243 C244 1.396 1_545 S
C243 C248 1.390 . S
C244 C238 1.465 1_554 S
C244 C243 1.396 1_565 S
C244 C245 1.399 . S
C245 H231 0.929 . S
C245 C244 1.399 . S
C245 C246 1.385 . S
C246 H232 0.931 . S
C246 C245 1.385 . S
C246 C247 1.389 1_565 S
C247 C246 1.389 1_545 S
C247 C248 1.387 . S
C248 H233 0.930 . S
C248 C243 1.390 . S
C248 C247 1.387 . S
H249 C261 0.930 . S
H250 C263 0.930 . S
H251 C264 0.930 . S
H252 C268 0.959 . S
H253 C268 0.959 . S
H254 C268 0.961 . S
H255 C269 0.960 . S
H256 C269 0.961 . S
H257 C269 0.959 . S
H258 C272 0.929 . S
H259 C273 0.931 . S
H260 C275 0.930 . S
C261 H249 0.930 . S
C261 C262 1.399 . S
C261 C266 1.399 . S
C262 C261 1.399 . S
C262 C263 1.376 . S
C263 H250 0.930 . S
C263 C262 1.376 . S
C263 C264 1.388 . S
C264 H251 0.930 . S
C264 C263 1.388 . S
C264 C265 1.390 . S
C265 C264 1.390 . S
C265 C266 1.394 . S
C265 C271 1.465 . S
C266 C261 1.399 . S
C266 C265 1.394 . S
C266 C267 1.516 . S
C267 C266 1.516 . S
C267 C268 1.502 . S
C267 C269 1.561 . S
C267 C270 1.526 . S
C268 H252 0.959 . S
C268 H253 0.959 . S
C268 H254 0.961 . S
C268 C267 1.502 . S
C269 H255 0.960 . S
C269 H256 0.961 . S
C269 H257 0.959 . S
C269 C267 1.561 . S
C270 C267 1.526 . S
C270 C271 1.396 . S
C270 C275 1.390 . S
C271 C265 1.465 . S
C271 C270 1.396 . S
C271 C272 1.399 . S
C272 H258 0.929 . S
C272 C271 1.399 . S
C272 C273 1.385 . S
C273 H259 0.931 . S
C273 C272 1.385 . S
C273 C274 1.389 . S
C274 C273 1.389 . S
C274 C275 1.387 . S
C275 H260 0.930 . S
C275 C270 1.390 . S
C275 C274 1.387 . S
H276 C288 0.930 1_455 S
H277 C290 0.930 . S
H278 C291 0.930 . S
H279 C295 0.959 . S
H280 C295 0.959 1_455 S
H281 C295 0.961 . S
H282 C296 0.960 . S
H283 C296 0.961 . S
H284 C296 0.959 . S
H285 C299 0.929 . S
H286 C300 0.929 . S
H287 C302 0.930 . S
C288 H276 0.930 1_655 S
C288 C289 1.399 . S
C288 C293 1.399 1_655 S
C289 C288 1.399 . S
C289 C290 1.376 . S
C290 H277 0.930 . S
C290 C289 1.376 . S
C290 C291 1.388 . S
C291 H278 0.930 . S
C291 C290 1.388 . S
C291 C292 1.390 . S
C292 C291 1.390 . S
C292 C293 1.394 1_655 S
C292 C298 1.465 1_655 S
C293 C288 1.399 1_455 S
C293 C292 1.394 1_455 S
C293 C294 1.516 . S
C294 C293 1.516 . S
C294 C295 1.502 1_455 S
C294 C296 1.561 . S
C294 C297 1.526 . S
C295 H279 0.959 . S
C295 H280 0.959 1_655 S
C295 H281 0.961 . S
C295 C294 1.502 1_655 S
C296 H282 0.960 . S
C296 H283 0.961 . S
C296 H284 0.959 . S
C296 C294 1.561 . S
C297 C294 1.526 . S
C297 C298 1.396 . S
C297 C302 1.390 . S
C298 C292 1.465 1_455 S
C298 C297 1.396 . S
C298 C299 1.399 1_455 S
C299 H285 0.929 . S
C299 C298 1.399 1_655 S
C299 C300 1.385 1_655 S
C300 H286 0.929 . S
C300 C299 1.385 1_455 S
C300 C301 1.389 . S
C301 C300 1.389 . S
C301 C302 1.387 . S
C302 H287 0.930 . S
C302 C297 1.390 . S
C302 C301 1.387 . S
H303 C315 0.930 . S
H304 C317 0.930 . S
H305 C318 0.930 . S
H306 C322 0.959 . S
H307 C322 0.959 1_556 S
H308 C322 0.961 . S
H309 C323 0.960 . S
H310 C323 0.961 1_556 S
H311 C323 0.959 . S
H312 C326 0.929 . S
H313 C327 0.931 . S
H314 C329 0.930 . S
C315 H303 0.930 . S
C315 C316 1.399 1_545 S
C315 C320 1.399 . S
C316 C315 1.399 1_565 S
C316 C317 1.376 . S
C317 H304 0.930 . S
C317 C316 1.376 . S
C317 C318 1.388 . S
C318 H305 0.930 . S
C318 C317 1.388 . S
C318 C319 1.390 . S
C319 C318 1.390 . S
C319 C320 1.394 1_565 S
C319 C325 1.465 1_554 S
C320 C315 1.399 . S
C320 C319 1.394 1_545 S
C320 C321 1.516 . S
C321 C320 1.516 . S
C321 C322 1.502 . S
C321 C323 1.561 . S
C321 C324 1.526 1_554 S
C322 H306 0.959 . S
C322 H307 0.959 1_554 S
C322 H308 0.961 . S
C322 C321 1.502 . S
C323 H309 0.960 . S
C323 H310 0.961 1_554 S
C323 H311 0.959 . S
C323 C321 1.561 . S
C324 C321 1.526 1_556 S
C324 C325 1.396 1_545 S
C324 C329 1.390 . S
C325 C319 1.465 1_556 S
C325 C324 1.396 1_565 S
C325 C326 1.399 . S
C326 H312 0.929 . S
C326 C325 1.399 . S
C326 C327 1.385 . S
C327 H313 0.931 . S
C327 C326 1.385 . S
C327 C328 1.389 1_565 S
C328 C327 1.389 1_545 S
C328 C329 1.387 . S
C329 H314 0.930 . S
C329 C324 1.390 . S
C329 C328 1.387 . S
H330 C342 0.930 . S
H331 C344 0.930 . S
H332 C345 0.930 . S
H333 C349 0.959 . S
H334 C349 0.959 . S
H335 C349 0.961 . S
H336 C350 0.960 . S
H337 C350 0.961 . S
H338 C350 0.959 . S
H339 C353 0.929 . S
H340 C354 0.931 . S
H341 C356 0.930 . S
C342 H330 0.930 . S
C342 C343 1.399 . S
C342 C347 1.399 . S
C343 C342 1.399 . S
C343 C344 1.376 . S
C344 H331 0.930 . S
C344 C343 1.376 . S
C344 C345 1.388 1_556 S
C345 H332 0.930 . S
C345 C344 1.388 1_554 S
C345 C346 1.390 . S
C346 C345 1.390 . S
C346 C347 1.394 1_554 S
C346 C352 1.465 . S
C347 C342 1.399 . S
C347 C346 1.394 1_556 S
C347 C348 1.516 . S
C348 C347 1.516 . S
C348 C349 1.502 . S
C348 C350 1.561 1_556 S
C348 C351 1.526 1_556 S
C349 H333 0.959 . S
C349 H334 0.959 . S
C349 H335 0.961 . S
C349 C348 1.502 . S
C350 H336 0.960 . S
C350 H337 0.961 . S
C350 H338 0.959 . S
C350 C348 1.561 1_554 S
C351 C348 1.526 1_554 S
C351 C352 1.396 . S
C351 C356 1.390 . S
C352 C346 1.465 . S
C352 C351 1.396 . S
C352 C353 1.399 . S
C353 H339 0.929 . S
C353 C352 1.399 . S
C353 C354 1.385 . S
C354 H340 0.931 . S
C354 C353 1.385 . S
C354 C355 1.389 . S
C355 C354 1.389 . S
C355 C356 1.387 . S
C356 H341 0.930 . S
C356 C351 1.390 . S
C356 C355 1.387 . S
H357 C369 0.930 . S
H358 C371 0.930 . S
H359 C372 0.930 . S
H360 C376 0.959 . S
H361 C376 0.959 . S
H362 C376 0.961 . S
H363 C377 0.960 . S
H364 C377 0.961 . S
H365 C377 0.959 . S
H366 C380 0.929 . S
H367 C381 0.931 . S
H368 C383 0.930 . S
C369 H357 0.930 . S
C369 C370 1.399 . S
C369 C374 1.399 . S
C370 C369 1.399 . S
C370 C371 1.376 . S
C371 H358 0.930 . S
C371 C370 1.376 . S
C371 C372 1.388 . S
C372 H359 0.930 . S
C372 C371 1.388 . S
C372 C373 1.390 . S
C373 C372 1.390 . S
C373 C374 1.394 . S
C373 C379 1.465 . S
C374 C369 1.399 . S
C374 C373 1.394 . S
C374 C375 1.516 . S
C375 C374 1.516 . S
C375 C376 1.502 . S
C375 C377 1.561 . S
C375 C378 1.526 . S
C376 H360 0.959 . S
C376 H361 0.959 . S
C376 H362 0.961 . S
C376 C375 1.502 . S
C377 H363 0.960 . S
C377 H364 0.961 . S
C377 H365 0.959 . S
C377 C375 1.561 . S
C378 C375 1.526 . S
C378 C379 1.396 . S
C378 C383 1.390 . S
C379 C373 1.465 . S
C379 C378 1.396 . S
C379 C380 1.399 . S
C380 H366 0.929 . S
C380 C379 1.399 . S
C380 C381 1.385 . S
C381 H367 0.931 . S
C381 C380 1.385 . S
C381 C382 1.389 . S
C382 C381 1.389 . S
C382 C383 1.387 . S
C383 H368 0.930 . S
C383 C378 1.390 . S
C383 C382 1.387 . S
H384 C396 0.930 . S
H385 C398 0.930 . S
H386 C399 0.930 . S
H387 C403 0.959 . S
H388 C403 0.959 . S
H389 C403 0.961 . S
H390 C404 0.960 . S
H391 C404 0.961 . S
H392 C404 0.959 . S
H393 C407 0.929 . S
H394 C408 0.931 . S
H395 C410 0.930 . S
C396 H384 0.930 . S
C396 C397 1.399 . S
C396 C401 1.399 . S
C397 C396 1.399 . S
C397 C398 1.376 . S
C398 H385 0.930 . S
C398 C397 1.376 . S
C398 C399 1.388 . S
C399 H386 0.930 . S
C399 C398 1.388 . S
C399 C400 1.390 . S
C400 C399 1.390 . S
C400 C401 1.394 . S
C400 C406 1.465 . S
C401 C396 1.399 . S
C401 C400 1.394 . S
C401 C402 1.516 . S
C402 C401 1.516 . S
C402 C403 1.502 . S
C402 C404 1.561 . S
C402 C405 1.526 . S
C403 H387 0.959 . S
C403 H388 0.959 . S
C403 H389 0.961 . S
C403 C402 1.502 . S
C404 H390 0.960 . S
C404 H391 0.961 . S
C404 H392 0.959 . S
C404 C402 1.561 . S
C405 C402 1.526 . S
C405 C406 1.396 . S
C405 C410 1.390 . S
C406 C400 1.465 . S
C406 C405 1.396 . S
C406 C407 1.399 . S
C407 H393 0.929 . S
C407 C406 1.399 . S
C407 C408 1.385 . S
C408 H394 0.931 . S
C408 C407 1.385 . S
C408 C409 1.389 . S
C409 C408 1.389 . S
C409 C410 1.387 . S
C410 H395 0.930 . S
C410 C405 1.390 . S
C410 C409 1.387 . S
H411 C423 0.930 . S
H412 C425 0.930 . S
H413 C426 0.930 . S
H414 C430 0.959 . S
H415 C430 0.959 . S
H416 C430 0.961 . S
H417 C431 0.960 . S
H418 C431 0.961 . S
H419 C431 0.959 . S
H420 C434 0.929 . S
H421 C435 0.931 . S
H422 C437 0.930 . S
C423 H411 0.930 . S
C423 C424 1.399 . S
C423 C428 1.399 . S
C424 C423 1.399 . S
C424 C425 1.376 . S
C425 H412 0.930 . S
C425 C424 1.376 . S
C425 C426 1.388 1_554 S
C426 H413 0.930 . S
C426 C425 1.388 1_556 S
C426 C427 1.390 . S
C427 C426 1.390 . S
C427 C428 1.394 1_556 S
C427 C433 1.465 . S
C428 C423 1.399 . S
C428 C427 1.394 1_554 S
C428 C429 1.516 . S
C429 C428 1.516 . S
C429 C430 1.502 . S
C429 C431 1.561 1_554 S
C429 C432 1.526 1_554 S
C430 H414 0.959 . S
C430 H415 0.959 . S
C430 H416 0.961 . S
C430 C429 1.502 . S
C431 H417 0.960 . S
C431 H418 0.961 . S
C431 H419 0.959 . S
C431 C429 1.561 1_556 S
C432 C429 1.526 1_556 S
C432 C433 1.396 . S
C432 C437 1.390 . S
C433 C427 1.465 . S
C433 C432 1.396 . S
C433 C434 1.399 . S
C434 H420 0.929 . S
C434 C433 1.399 . S
C434 C435 1.385 . S
C435 H421 0.931 . S
C435 C434 1.385 . S
C435 C436 1.389 . S
C436 C435 1.389 . S
C436 C437 1.387 . S
C437 H422 0.930 . S
C437 C432 1.390 . S
C437 C436 1.387 . S
H438 C450 0.930 . S
H439 C452 0.930 . S
H440 C453 0.930 . S
H441 C457 0.959 . S
H442 C457 0.959 . S
H443 C457 0.961 . S
H444 C458 0.960 . S
H445 C458 0.961 . S
H446 C458 0.959 . S
H447 C461 0.929 . S
H448 C462 0.931 . S
H449 C464 0.930 . S
C450 H438 0.930 . S
C450 C451 1.399 . S
C450 C455 1.399 . S
C451 C450 1.399 . S
C451 C452 1.376 . S
C452 H439 0.930 . S
C452 C451 1.376 . S
C452 C453 1.388 . S
C453 H440 0.930 . S
C453 C452 1.388 . S
C453 C454 1.390 . S
C454 C453 1.390 . S
C454 C455 1.394 . S
C454 C460 1.465 . S
C455 C450 1.399 . S
C455 C454 1.394 . S
C455 C456 1.516 . S
C456 C455 1.516 . S
C456 C457 1.502 . S
C456 C458 1.561 . S
C456 C459 1.526 . S
C457 H441 0.959 . S
C457 H442 0.959 . S
C457 H443 0.961 . S
C457 C456 1.502 . S
C458 H444 0.960 . S
C458 H445 0.961 . S
C458 H446 0.959 . S
C458 C456 1.561 . S
C459 C456 1.526 . S
C459 C460 1.396 . S
C459 C464 1.390 . S
C460 C454 1.465 . S
C460 C459 1.396 . S
C460 C461 1.399 . S
C461 H447 0.929 . S
C461 C460 1.399 . S
C461 C462 1.385 . S
C462 H448 0.931 . S
C462 C461 1.385 . S
C462 C463 1.389 . S
C463 C462 1.389 . S
C463 C464 1.387 . S
C464 H449 0.930 . S
C464 C459 1.390 . S
C464 C463 1.387 . S
H465 C477 0.930 . S
H466 C479 0.930 . S
H467 C480 0.930 . S
H468 C484 0.959 . S
H469 C484 0.959 . S
H470 C484 0.961 . S
H471 C485 0.960 . S
H472 C485 0.961 . S
H473 C485 0.959 . S
H474 C488 0.929 . S
H475 C489 0.931 . S
H476 C491 0.930 . S
C477 H465 0.930 . S
C477 C478 1.399 . S
C477 C482 1.399 . S
C478 C477 1.399 . S
C478 C479 1.376 . S
C479 H466 0.930 . S
C479 C478 1.376 . S
C479 C480 1.388 . S
C480 H467 0.930 . S
C480 C479 1.388 . S
C480 C481 1.390 . S
C481 C480 1.390 . S
C481 C482 1.394 . S
C481 C487 1.465 . S
C482 C477 1.399 . S
C482 C481 1.394 . S
C482 C483 1.516 . S
C483 C482 1.516 . S
C483 C484 1.502 . S
C483 C485 1.561 . S
C483 C486 1.526 . S
C484 H468 0.959 . S
C484 H469 0.959 . S
C484 H470 0.961 . S
C484 C483 1.502 . S
C485 H471 0.960 . S
C485 H472 0.961 . S
C485 H473 0.959 . S
C485 C483 1.561 . S
C486 C483 1.526 . S
C486 C487 1.396 . S
C486 C491 1.390 . S
C487 C481 1.465 . S
C487 C486 1.396 . S
C487 C488 1.399 . S
C488 H474 0.929 . S
C488 C487 1.399 . S
C488 C489 1.385 . S
C489 H475 0.931 . S
C489 C488 1.385 . S
C489 C490 1.389 . S
C490 C489 1.389 . S
C490 C491 1.387 . S
C491 H476 0.930 . S
C491 C486 1.390 . S
C491 C490 1.387 . S
H492 C504 0.930 . S
H493 C506 0.930 . S
H494 C507 0.930 . S
H495 C511 0.959 . S
H496 C511 0.959 . S
H497 C511 0.961 . S
H498 C512 0.960 . S
H499 C512 0.961 . S
H500 C512 0.959 . S
H501 C515 0.929 . S
H502 C516 0.931 . S
H503 C518 0.930 . S
C504 H492 0.930 . S
C504 C505 1.399 . S
C504 C509 1.399 . S
C505 C504 1.399 . S
C505 C506 1.376 . S
C506 H493 0.930 . S
C506 C505 1.376 . S
C506 C507 1.388 . S
C507 H494 0.930 . S
C507 C506 1.388 . S
C507 C508 1.390 . S
C508 C507 1.390 . S
C508 C509 1.394 . S
C508 C514 1.465 . S
C509 C504 1.399 . S
C509 C508 1.394 . S
C509 C510 1.516 . S
C510 C509 1.516 . S
C510 C511 1.502 . S
C510 C512 1.561 . S
C510 C513 1.526 . S
C511 H495 0.959 . S
C511 H496 0.959 . S
C511 H497 0.961 . S
C511 C510 1.502 . S
C512 H498 0.960 . S
C512 H499 0.961 . S
C512 H500 0.959 . S
C512 C510 1.561 . S
C513 C510 1.526 . S
C513 C514 1.396 . S
C513 C518 1.390 . S
C514 C508 1.465 . S
C514 C513 1.396 . S
C514 C515 1.399 . S
C515 H501 0.929 . S
C515 C514 1.399 . S
C515 C516 1.385 . S
C516 H502 0.931 . S
C516 C515 1.385 . S
C516 C517 1.389 . S
C517 C516 1.389 . S
C517 C518 1.387 . S
C518 H503 0.930 . S
C518 C513 1.390 . S
C518 C517 1.387 . S
H519 C531 0.930 . S
H520 C533 0.930 . S
H521 C534 0.930 . S
H522 C538 0.959 . S
H523 C538 0.961 1_455 S
H524 C538 0.961 . S
H525 C539 0.960 . S
H526 C539 0.961 . S
H527 C539 0.959 . S
H528 C542 0.929 . S
H529 C543 0.931 . S
H530 C545 0.930 . S
C531 H519 0.930 . S
C531 C532 1.399 1_455 S
C531 C536 1.399 . S
C532 C531 1.399 1_655 S
C532 C533 1.376 . S
C533 H520 0.930 . S
C533 C532 1.376 . S
C533 C534 1.388 . S
C534 H521 0.930 . S
C534 C533 1.388 . S
C534 C535 1.390 . S
C535 C534 1.390 . S
C535 C536 1.394 1_655 S
C535 C541 1.464 1_655 S
C536 C531 1.399 . S
C536 C535 1.394 1_455 S
C536 C537 1.516 . S
C537 C536 1.516 . S
C537 C538 1.502 1_455 S
C537 C539 1.561 . S
C537 C540 1.526 . S
C538 H522 0.959 . S
C538 H523 0.961 1_655 S
C538 H524 0.961 . S
C538 C537 1.502 1_655 S
C539 H525 0.960 . S
C539 H526 0.961 . S
C539 H527 0.959 . S
C539 C537 1.561 . S
C540 C537 1.526 . S
C540 C541 1.391 . S
C540 C545 1.390 . S
C541 C535 1.464 1_455 S
C541 C540 1.391 . S
C541 C542 1.403 1_455 S
C542 H528 0.929 . S
C542 C541 1.403 1_655 S
C542 C543 1.385 . S
C543 H529 0.931 . S
C543 C542 1.385 . S
C543 C544 1.389 1_655 S
C544 C543 1.389 1_455 S
C544 C545 1.387 . S
C545 H530 0.930 . S
C545 C540 1.390 . S
C545 C544 1.387 . S
H546 C558 0.930 . S
H547 C560 0.930 . S
H548 C561 0.930 . S
H549 C565 0.959 . S
H550 C565 0.959 . S
H551 C565 0.961 . S
H552 C566 0.960 . S
H553 C566 0.961 . S
H554 C566 0.959 . S
H555 C569 0.929 . S
H556 C570 0.931 . S
H557 C572 0.930 . S
C558 H546 0.930 . S
C558 C559 1.399 . S
C558 C563 1.399 . S
C559 C558 1.399 . S
C559 C560 1.376 1_565 S
C560 H547 0.930 . S
C560 C559 1.376 1_545 S
C560 C561 1.388 . S
C561 H548 0.930 . S
C561 C560 1.388 . S
C561 C562 1.390 . S
C562 C561 1.390 . S
C562 C563 1.394 1_545 S
C562 C568 1.465 . S
C563 C558 1.399 . S
C563 C562 1.394 1_565 S
C563 C564 1.516 . S
C564 C563 1.516 . S
C564 C565 1.502 . S
C564 C566 1.561 . S
C564 C567 1.526 . S
C565 H549 0.959 . S
C565 H550 0.959 . S
C565 H551 0.961 . S
C565 C564 1.502 . S
C566 H552 0.960 . S
C566 H553 0.961 . S
C566 H554 0.959 . S
C566 C564 1.561 . S
C567 C564 1.526 . S
C567 C568 1.396 1_565 S
C567 C572 1.390 . S
C568 C562 1.465 . S
C568 C567 1.396 1_545 S
C568 C569 1.399 . S
C569 H555 0.929 . S
C569 C568 1.399 . S
C569 C570 1.385 . S
C570 H556 0.931 . S
C570 C569 1.385 . S
C570 C571 1.389 . S
C571 C570 1.389 . S
C571 C572 1.387 1_545 S
C572 H557 0.930 . S
C572 C567 1.390 . S
C572 C571 1.387 1_565 S
H573 C585 0.930 . S
H574 C587 0.930 . S
H575 C588 0.930 . S
H576 C592 0.959 . S
H577 C592 0.959 . S
H578 C592 0.961 . S
H579 C593 0.960 . S
H580 C593 0.961 . S
H581 C593 0.959 . S
H582 C596 0.929 . S
H583 C597 0.931 . S
H584 C599 0.930 . S
C585 H573 0.930 . S
C585 C586 1.399 . S
C585 C590 1.399 . S
C586 C585 1.399 . S
C586 C587 1.376 . S
C587 H574 0.930 . S
C587 C586 1.376 . S
C587 C588 1.388 . S
C588 H575 0.930 . S
C588 C587 1.388 . S
C588 C589 1.390 . S
C589 C588 1.390 . S
C589 C590 1.394 . S
C589 C595 1.465 . S
C590 C585 1.399 . S
C590 C589 1.394 . S
C590 C591 1.516 . S
C591 C590 1.516 . S
C591 C592 1.502 . S
C591 C593 1.561 . S
C591 C594 1.526 . S
C592 H576 0.959 . S
C592 H577 0.959 . S
C592 H578 0.961 . S
C592 C591 1.502 . S
C593 H579 0.960 . S
C593 H580 0.961 . S
C593 H581 0.959 . S
C593 C591 1.561 . S
C594 C591 1.526 . S
C594 C595 1.396 . S
C594 C599 1.390 . S
C595 C589 1.465 . S
C595 C594 1.396 . S
C595 C596 1.399 . S
C596 H582 0.929 . S
C596 C595 1.399 . S
C596 C597 1.385 . S
C597 H583 0.931 . S
C597 C596 1.385 . S
C597 C598 1.389 . S
C598 C597 1.389 . S
C598 C599 1.387 . S
C599 H584 0.930 . S
C599 C594 1.390 . S
C599 C598 1.387 . S
H600 C612 0.928 1_655 S
H601 C614 0.930 . S
H602 C615 0.930 . S
H603 C619 0.959 . S
H604 C619 0.959 . S
H605 C619 0.961 . S
H606 C620 0.960 . S
H607 C620 0.961 . S
H608 C620 0.959 . S
H609 C623 0.922 . S
H610 C624 0.937 1_455 S
H611 C626 0.930 . S
C612 H600 0.928 1_455 S
C612 C613 1.400 . S
C612 C617 1.399 1_455 S
C613 C612 1.400 . S
C613 C614 1.376 . S
C614 H601 0.930 . S
C614 C613 1.376 . S
C614 C615 1.388 . S
C615 H602 0.930 . S
C615 C614 1.388 . S
C615 C616 1.389 . S
C616 C615 1.389 . S
C616 C617 1.395 1_455 S
C616 C622 1.465 1_455 S
C617 C612 1.399 1_655 S
C617 C616 1.395 1_655 S
C617 C618 1.516 . S
C618 C617 1.516 . S
C618 C619 1.502 1_655 S
C618 C620 1.561 . S
C618 C621 1.526 . S
C619 H603 0.959 . S
C619 H604 0.959 . S
C619 H605 0.961 . S
C619 C618 1.502 1_455 S
C620 H606 0.960 . S
C620 H607 0.961 . S
C620 H608 0.959 . S
C620 C618 1.561 . S
C621 C618 1.526 . S
C621 C622 1.396 . S
C621 C626 1.390 . S
C622 C616 1.465 1_655 S
C622 C621 1.396 . S
C622 C623 1.405 1_655 S
C623 H609 0.922 . S
C623 C622 1.405 1_455 S
C623 C624 1.386 1_455 S
C624 H610 0.937 1_655 S
C624 C623 1.386 1_655 S
C624 C625 1.389 . S
C625 C624 1.389 . S
C625 C626 1.387 . S
C626 H611 0.930 . S
C626 C621 1.390 . S
C626 C625 1.387 . S
H627 C639 0.930 . S
H628 C641 0.930 . S
H629 C642 0.930 . S
H630 C646 0.959 . S
H631 C646 0.959 . S
H632 C646 0.961 . S
H633 C647 0.960 . S
H634 C647 0.961 . S
H635 C647 0.959 . S
H636 C650 0.929 . S
H637 C651 0.931 . S
H638 C653 0.930 . S
C639 H627 0.930 . S
C639 C640 1.399 . S
C639 C644 1.399 . S
C640 C639 1.399 . S
C640 C641 1.376 1_565 S
C641 H628 0.930 . S
C641 C640 1.376 1_545 S
C641 C642 1.388 . S
C642 H629 0.930 . S
C642 C641 1.388 . S
C642 C643 1.390 . S
C643 C642 1.390 . S
C643 C644 1.394 1_545 S
C643 C649 1.465 . S
C644 C639 1.399 . S
C644 C643 1.394 1_565 S
C644 C645 1.516 . S
C645 C644 1.516 . S
C645 C646 1.502 . S
C645 C647 1.561 . S
C645 C648 1.526 . S
C646 H630 0.959 . S
C646 H631 0.959 . S
C646 H632 0.961 . S
C646 C645 1.502 . S
C647 H633 0.960 . S
C647 H634 0.961 . S
C647 H635 0.959 . S
C647 C645 1.561 . S
C648 C645 1.526 . S
C648 C649 1.396 1_565 S
C648 C653 1.390 . S
C649 C643 1.465 . S
C649 C648 1.396 1_545 S
C649 C650 1.399 . S
C650 H636 0.929 . S
C650 C649 1.399 . S
C650 C651 1.385 . S
C651 H637 0.931 . S
C651 C650 1.385 . S
C651 C652 1.389 . S
C652 C651 1.389 . S
C652 C653 1.387 1_545 S
C653 H638 0.930 . S
C653 C648 1.390 . S
C653 C652 1.387 1_565 S
H654 C666 0.930 . S
H655 C668 0.930 . S
H656 C669 0.930 . S
H657 C673 0.959 1_554 S
H658 C673 0.959 . S
H659 C673 0.961 . S
H660 C674 0.960 . S
H661 C674 0.961 . S
H662 C674 0.959 . S
H663 C677 0.929 . S
H664 C678 0.931 . S
H665 C680 0.930 . S
C666 H654 0.930 . S
C666 C667 1.399 . S
C666 C671 1.399 . S
C667 C666 1.399 . S
C667 C668 1.376 . S
C668 H655 0.930 . S
C668 C667 1.376 . S
C668 C669 1.388 . S
C669 H656 0.930 . S
C669 C668 1.388 . S
C669 C670 1.390 . S
C670 C669 1.390 . S
C670 C671 1.394 . S
C670 C676 1.465 . S
C671 C666 1.399 . S
C671 C670 1.394 . S
C671 C672 1.516 . S
C672 C671 1.516 . S
C672 C673 1.502 1_554 S
C672 C674 1.561 1_554 S
C672 C675 1.526 . S
C673 H657 0.959 1_556 S
C673 H658 0.959 . S
C673 H659 0.961 . S
C673 C672 1.502 1_556 S
C674 H660 0.960 . S
C674 H661 0.961 . S
C674 H662 0.959 . S
C674 C672 1.561 1_556 S
C675 C672 1.526 . S
C675 C676 1.396 . S
C675 C680 1.390 . S
C676 C670 1.465 . S
C676 C675 1.396 . S
C676 C677 1.399 . S
C677 H663 0.929 . S
C677 C676 1.399 . S
C677 C678 1.385 . S
C678 H664 0.931 . S
C678 C677 1.385 . S
C678 C679 1.389 . S
C679 C678 1.389 . S
C679 C680 1.387 . S
C680 H665 0.930 . S
C680 C675 1.390 . S
C680 C679 1.387 . S
H681 C693 0.930 . S
H682 C695 0.930 . S
H683 C696 0.930 1_655 S
H684 C700 0.959 . S
H685 C700 0.959 . S
H686 C700 0.961 . S
H687 C701 0.960 . S
H688 C701 0.961 . S
H689 C701 0.959 . S
H690 C704 0.929 . S
H691 C705 0.931 . S
H692 C707 0.930 . S
C693 H681 0.930 . S
C693 C694 1.399 . S
C693 C698 1.399 . S
C694 C693 1.399 . S
C694 C695 1.376 . S
C695 H682 0.930 . S
C695 C694 1.376 . S
C695 C696 1.388 . S
C696 H683 0.930 1_455 S
C696 C695 1.388 . S
C696 C697 1.396 1_455 S
C697 C696 1.396 1_655 S
C697 C698 1.393 1_655 S
C697 C703 1.459 . S
C698 C693 1.399 . S
C698 C697 1.393 1_455 S
C698 C699 1.517 1_455 S
C699 C698 1.517 1_655 S
C699 C700 1.500 1_655 S
C699 C701 1.563 . S
C699 C702 1.525 . S
C700 H684 0.959 . S
C700 H685 0.959 . S
C700 H686 0.961 . S
C700 C699 1.500 1_455 S
C701 H687 0.960 . S
C701 H688 0.961 . S
C701 H689 0.959 . S
C701 C699 1.563 . S
C702 C699 1.525 . S
C702 C703 1.396 . S
C702 C707 1.390 . S
C703 C697 1.459 . S
C703 C702 1.396 . S
C703 C704 1.399 . S
C704 H690 0.929 . S
C704 C703 1.399 . S
C704 C705 1.385 . S
C705 H691 0.931 . S
C705 C704 1.385 . S
C705 C706 1.389 . S
C706 C705 1.389 . S
C706 C707 1.387 . S
C707 H692 0.930 . S
C707 C702 1.390 . S
C707 C706 1.387 . S
H708 C720 0.930 . S
H709 C722 0.930 . S
H710 C723 0.930 . S
H711 C727 0.959 . S
H712 C727 0.959 . S
H713 C727 0.961 . S
H714 C728 0.960 . S
H715 C728 0.961 . S
H716 C728 0.959 . S
H717 C731 0.929 . S
H718 C732 0.931 . S
H719 C734 0.930 . S
C720 H708 0.930 . S
C720 C721 1.399 . S
C720 C725 1.399 . S
C721 C720 1.399 . S
C721 C722 1.376 . S
C722 H709 0.930 . S
C722 C721 1.376 . S
C722 C723 1.388 1_565 S
C723 H710 0.930 . S
C723 C722 1.388 1_545 S
C723 C724 1.390 . S
C724 C723 1.390 . S
C724 C725 1.394 1_545 S
C724 C730 1.465 . S
C725 C720 1.399 . S
C725 C724 1.394 1_565 S
C725 C726 1.516 . S
C726 C725 1.516 . S
C726 C727 1.502 . S
C726 C728 1.561 1_565 S
C726 C729 1.526 1_565 S
C727 H711 0.959 . S
C727 H712 0.959 . S
C727 H713 0.961 . S
C727 C726 1.502 . S
C728 H714 0.960 . S
C728 H715 0.961 . S
C728 H716 0.959 . S
C728 C726 1.561 1_545 S
C729 C726 1.526 1_545 S
C729 C730 1.396 . S
C729 C734 1.390 . S
C730 C724 1.465 . S
C730 C729 1.396 . S
C730 C731 1.399 . S
C731 H717 0.929 . S
C731 C730 1.399 . S
C731 C732 1.385 . S
C732 H718 0.931 . S
C732 C731 1.385 . S
C732 C733 1.389 . S
C733 C732 1.389 . S
C733 C734 1.387 . S
C734 H719 0.930 . S
C734 C729 1.390 . S
C734 C733 1.387 . S
H735 C747 0.930 . S
H736 C749 0.930 . S
H737 C750 0.930 . S
H738 C754 0.959 . S
H739 C754 0.959 . S
H740 C754 0.961 . S
H741 C755 0.960 . S
H742 C755 0.961 . S
H743 C755 0.959 . S
H744 C758 0.929 . S
H745 C759 0.931 . S
H746 C761 0.930 . S
C747 H735 0.930 . S
C747 C748 1.399 . S
C747 C752 1.399 . S
C748 C747 1.399 . S
C748 C749 1.376 . S
C749 H736 0.930 . S
C749 C748 1.376 . S
C749 C750 1.388 . S
C750 H737 0.930 . S
C750 C749 1.388 . S
C750 C751 1.390 . S
C751 C750 1.390 . S
C751 C752 1.394 . S
C751 C757 1.465 . S
C752 C747 1.399 . S
C752 C751 1.394 . S
C752 C753 1.516 . S
C753 C752 1.516 . S
C753 C754 1.502 . S
C753 C755 1.561 . S
C753 C756 1.526 . S
C754 H738 0.959 . S
C754 H739 0.959 . S
C754 H740 0.961 . S
C754 C753 1.502 . S
C755 H741 0.960 . S
C755 H742 0.961 . S
C755 H743 0.959 . S
C755 C753 1.561 . S
C756 C753 1.526 . S
C756 C757 1.396 . S
C756 C761 1.390 . S
C757 C751 1.465 . S
C757 C756 1.396 . S
C757 C758 1.399 . S
C758 H744 0.929 . S
C758 C757 1.399 . S
C758 C759 1.385 . S
C759 H745 0.931 . S
C759 C758 1.385 . S
C759 C760 1.389 . S
C760 C759 1.389 . S
C760 C761 1.387 . S
C761 H746 0.930 . S
C761 C756 1.390 . S
C761 C760 1.387 . S
H762 C774 0.930 . S
H763 C776 0.930 . S
H764 C777 0.930 . S
H765 C781 0.959 . S
H766 C781 0.959 . S
H767 C781 0.961 . S
H768 C782 0.960 . S
H769 C782 0.961 . S
H770 C782 0.959 1_556 S
H771 C785 0.929 . S
H772 C786 0.931 . S
H773 C788 0.930 . S
C774 H762 0.930 . S
C774 C775 1.399 . S
C774 C779 1.399 . S
C775 C774 1.399 . S
C775 C776 1.376 . S
C776 H763 0.930 . S
C776 C775 1.376 . S
C776 C777 1.388 . S
C777 H764 0.930 . S
C777 C776 1.388 . S
C777 C778 1.390 . S
C778 C777 1.390 . S
C778 C779 1.394 . S
C778 C784 1.465 1_655 S
C779 C774 1.399 . S
C779 C778 1.394 . S
C779 C780 1.516 . S
C780 C779 1.516 . S
C780 C781 1.502 1_656 S
C780 C782 1.561 1_556 S
C780 C783 1.526 1_655 S
C781 H765 0.959 . S
C781 H766 0.959 . S
C781 H767 0.961 . S
C781 C780 1.502 1_454 S
C782 H768 0.960 . S
C782 H769 0.961 . S
C782 H770 0.959 1_554 S
C782 C780 1.561 1_554 S
C783 C780 1.526 1_455 S
C783 C784 1.396 . S
C783 C788 1.390 . S
C784 C778 1.465 1_455 S
C784 C783 1.396 . S
C784 C785 1.399 . S
C785 H771 0.929 . S
C785 C784 1.399 . S
C785 C786 1.385 . S
C786 H772 0.931 . S
C786 C785 1.385 . S
C786 C787 1.389 . S
C787 C786 1.389 . S
C787 C788 1.387 . S
C788 H773 0.930 . S
C788 C783 1.390 . S
C788 C787 1.387 . S
H789 C801 0.930 . S
H790 C803 0.930 . S
H791 C804 0.930 . S
H792 C808 0.959 . S
H793 C808 0.959 . S
H794 C808 0.961 . S
H795 C809 0.960 . S
H796 C809 0.961 . S
H797 C809 0.959 1_565 S
H798 C812 0.929 . S
H799 C813 0.931 . S
H800 C815 0.930 1_545 S
C801 H789 0.930 . S
C801 C802 1.399 . S
C801 C806 1.399 . S
C802 C801 1.399 . S
C802 C803 1.376 1_545 S
C803 H790 0.930 . S
C803 C802 1.376 1_565 S
C803 C804 1.388 . S
C804 H791 0.930 . S
C804 C803 1.388 . S
C804 C805 1.390 . S
C805 C804 1.390 . S
C805 C806 1.394 1_565 S
C805 C811 1.465 . S
C806 C801 1.399 . S
C806 C805 1.394 1_545 S
C806 C807 1.516 . S
C807 C806 1.516 . S
C807 C808 1.502 . S
C807 C809 1.561 . S
C807 C810 1.526 . S
C808 H792 0.959 . S
C808 H793 0.959 . S
C808 H794 0.961 . S
C808 C807 1.502 . S
C809 H795 0.960 . S
C809 H796 0.961 . S
C809 H797 0.959 1_545 S
C809 C807 1.561 . S
C810 C807 1.526 . S
C810 C811 1.396 1_545 S
C810 C815 1.390 1_545 S
C811 C805 1.465 . S
C811 C810 1.396 1_565 S
C811 C812 1.399 . S
C812 H798 0.929 . S
C812 C811 1.399 . S
C812 C813 1.385 . S
C813 H799 0.931 . S
C813 C812 1.385 . S
C813 C814 1.389 . S
C814 C813 1.389 . S
C814 C815 1.387 . S
C815 H800 0.930 1_565 S
C815 C810 1.390 1_565 S
C815 C814 1.387 . S
C181 C0 1.487 . S
C193 C126 1.483 . S
C208 C14 1.501 . S
C220 C140 1.507 . S
C235 C28 1.480 . S
C247 C154 1.484 . S
C262 C42 1.478 . S
C274 C84 1.482 . S
C289 C98 1.477 . S
C301 C56 1.477 . S
C316 C112 1.484 . S
C328 C70 1.490 . S
C343 C151 1.527 . S
C355 C11 1.552 . S
C370 C25 1.547 . S
C382 C165 1.534 . S
C397 C39 1.557 . S
C409 C95 1.521 . S
C424 C53 1.528 . S
C436 C109 1.552 . S
C451 C67 1.515 . S
C463 C123 1.550 . S
C478 C81 1.551 . S
C490 C137 1.529 . S
C505 C135 0.685 . S
C517 C9 0.721 . S
C532 C23 0.787 . S
C544 C149 0.779 . S
C559 C37 0.789 . S
C571 C163 0.659 . S
C586 C93 0.689 . S
C598 C51 0.715 . S
C613 C65 0.792 . S
C625 C107 0.773 . S
C640 C121 0.773 . S
C652 C79 0.660 . S
C667 C5 1.509 . S
C679 C47 1.501 . S
C694 C61 1.494 . S
C706 C19 1.501 . S
C721 C33 1.494 . S
C733 C75 1.502 . S
C748 C89 1.494 . S
C760 C131 1.502 . S
C775 C103 1.508 . S
C787 C145 1.503 . S
C802 C159 1.492 . S
C814 C117 1.508 . S
