# Generated by pormake.
# Topology vbn, (6)-cn, num edge types: 1
# Building blocks:
#     Node 0, Type 0, BuildingBlock: VOLQOD_clean_sbu_1, # of connection points: 6
#     Node 1, Type 0, BuildingBlock: VOLQOD_clean_sbu_1, # of connection points: 6
#     Node 2, Type 0, BuildingBlock: VOLQOD_clean_sbu_1, # of connection points: 6
#     Node 3, Type 0, BuildingBlock: VOLQOD_clean_sbu_1, # of connection points: 6
#     Node 4, Type 0, BuildingBlock: VOLQOD_clean_sbu_1, # of connection points: 6
#     Node 5, Type 0, BuildingBlock: VOLQOD_clean_sbu_1, # of connection points: 6
#     Node 6, Type 0, BuildingBlock: VOLQOD_clean_sbu_1, # of connection points: 6
#     Node 7, Type 0, BuildingBlock: VOLQOD_clean_sbu_1, # of connection points: 6
#     Edge 8, Type (0, 0), BuildingBlock: AJUNOK_clean_linker_0, # of connection points: 2
#     Edge 9, Type (0, 0), BuildingBlock: AJUNOK_clean_linker_0, # of connection points: 2
#     Edge 10, Type (0, 0), BuildingBlock: AJUNOK_clean_linker_0, # of connection points: 2
#     Edge 11, Type (0, 0), BuildingBlock: AJUNOK_clean_linker_0, # of connection points: 2
#     Edge 12, Type (0, 0), BuildingBlock: AJUNOK_clean_linker_0, # of connection points: 2
#     Edge 13, Type (0, 0), BuildingBlock: AJUNOK_clean_linker_0, # of connection points: 2
#     Edge 14, Type (0, 0), BuildingBlock: AJUNOK_clean_linker_0, # of connection points: 2
#     Edge 15, Type (0, 0), BuildingBlock: AJUNOK_clean_linker_0, # of connection points: 2
#     Edge 16, Type (0, 0), BuildingBlock: AJUNOK_clean_linker_0, # of connection points: 2
#     Edge 17, Type (0, 0), BuildingBlock: AJUNOK_clean_linker_0, # of connection points: 2
#     Edge 18, Type (0, 0), BuildingBlock: AJUNOK_clean_linker_0, # of connection points: 2
#     Edge 19, Type (0, 0), BuildingBlock: AJUNOK_clean_linker_0, # of connection points: 2
#     Edge 20, Type (0, 0), BuildingBlock: AJUNOK_clean_linker_0, # of connection points: 2
#     Edge 21, Type (0, 0), BuildingBlock: AJUNOK_clean_linker_0, # of connection points: 2
#     Edge 22, Type (0, 0), BuildingBlock: AJUNOK_clean_linker_0, # of connection points: 2
#     Edge 23, Type (0, 0), BuildingBlock: AJUNOK_clean_linker_0, # of connection points: 2
#     Edge 24, Type (0, 0), BuildingBlock: AJUNOK_clean_linker_0, # of connection points: 2
#     Edge 25, Type (0, 0), BuildingBlock: AJUNOK_clean_linker_0, # of connection points: 2
#     Edge 26, Type (0, 0), BuildingBlock: AJUNOK_clean_linker_0, # of connection points: 2
#     Edge 27, Type (0, 0), BuildingBlock: AJUNOK_clean_linker_0, # of connection points: 2
#     Edge 28, Type (0, 0), BuildingBlock: AJUNOK_clean_linker_0, # of connection points: 2
#     Edge 29, Type (0, 0), BuildingBlock: AJUNOK_clean_linker_0, # of connection points: 2
#     Edge 30, Type (0, 0), BuildingBlock: AJUNOK_clean_linker_0, # of connection points: 2
#     Edge 31, Type (0, 0), BuildingBlock: AJUNOK_clean_linker_0, # of connection points: 2
# Relax obj value: 0.303
# Max RMSD: 0.245
# Mean RMSD: 0.245
data_MOF--net-vbn--node1-VOLQOD_clean_sbu_1--edge1-AJUNOK_clean_linker_0
_symmetry_space_group_name_H-M    P1
_symmetry_Int_Tables_number       1
_symmetry_cell_setting            triclinic
loop_
_symmetry_equiv_pos_as_xyz
'x, y, z'
_cell_length_a     20.949519
_cell_length_b     22.117085
_cell_length_c     37.848823
_cell_angle_alpha  89.869875
_cell_angle_beta   89.959865
_cell_angle_gamma 89.972393
loop_
_atom_site_label
_atom_site_type_symbol
_atom_site_fract_x
_atom_site_fract_y
_atom_site_fract_z
_atom_type_partial_charge
O0 O 0.39549 0.38384 0.4613 0.0
Zn1 Zn 0.36572 0.30234 0.44605 0.0
O2 O 0.36798 0.29798 0.3955 0.0
Zn3 Zn 0.28463 0.28979 0.37536 0.0
Zn4 Zn 0.40963 0.3684 0.37868 0.0
Zn5 Zn 0.42266 0.23431 0.38115 0.0
O6 O 0.28047 0.20524 0.35148 0.0
O7 O 0.36897 0.1619 0.37262 0.0
O8 O 0.27577 0.29083 0.46532 0.0
O9 O 0.22069 0.28839 0.41527 0.0
O10 O 0.26124 0.36878 0.3482 0.0
O11 O 0.34354 0.42587 0.36463 0.0
O12 O 0.4579 0.35333 0.33419 0.0
O13 O 0.43479 0.24917 0.46689 0.0
O14 O 0.46067 0.25352 0.3336 0.0
O15 O 0.49004 0.22335 0.41903 0.0
C16 C 0.44147 0.41464 0.44864 0.0
C17 C 0.31539 0.15815 0.35674 0.0
C18 C 0.28875 0.4205 0.35069 0.0
C19 C 0.2225 0.28892 0.44892 0.0
C20 C 0.47115 0.3041 0.31861 0.0
C21 C 0.48585 0.22922 0.45254 0.0
O22 O 0.46039 0.40719 0.41695 0.0
O23 O 0.09051 0.14067 0.96059 0.0
Zn24 Zn 0.11874 0.22188 0.9449 0.0
O25 O 0.12067 0.22346 0.89439 0.0
Zn26 Zn 0.20591 0.23325 0.87644 0.0
Zn27 Zn 0.08119 0.15165 0.87735 0.0
Zn28 Zn 0.06619 0.28612 0.87834 0.0
O29 O 0.21062 0.31826 0.85271 0.0
O30 O 0.11889 0.35946 0.87071 0.0
O31 O 0.2063 0.23493 0.96625 0.0
O32 O 0.26669 0.23497 0.91799 0.0
O33 O 0.23251 0.15514 0.84936 0.0
O34 O 0.14927 0.09676 0.8629 0.0
O35 O 0.03337 0.16555 0.83248 0.0
O36 O 0.04712 0.27406 0.96371 0.0
O37 O 0.03255 0.26535 0.83028 0.0
O38 O -0.00464 0.29677 0.9142 0.0
C39 C 0.04879 0.10541 0.94766 0.0
C40 C 0.17387 0.3645 0.85655 0.0
C41 C 0.20478 0.10335 0.85002 0.0
C42 C 0.26116 0.23566 0.95156 0.0
C43 C 0.02231 0.21439 0.81585 0.0
C44 C -0.00319 0.29226 0.94784 0.0
O45 O 0.03189 0.10924 0.91538 0.0
O46 O 0.89176 0.13517 0.52247 0.0
Zn47 Zn 0.86498 0.21718 0.53774 0.0
O48 O 0.8676 0.2202 0.5882 0.0
Zn49 Zn 0.78416 0.2284 0.60848 0.0
Zn50 Zn 0.90952 0.14925 0.60461 0.0
Zn51 Zn 0.92214 0.28383 0.60252 0.0
O52 O 0.78005 0.31278 0.63258 0.0
O53 O 0.86846 0.3562 0.6114 0.0
O54 O 0.77536 0.23039 0.51856 0.0
O55 O 0.72018 0.23044 0.56865 0.0
O56 O 0.76043 0.14923 0.63543 0.0
O57 O 0.84334 0.09251 0.61947 0.0
O58 O 0.95909 0.16402 0.64879 0.0
O59 O 0.93536 0.26882 0.51688 0.0
O60 O 0.95996 0.26387 0.6498 0.0
O61 O 0.98977 0.29544 0.56481 0.0
C62 C 0.93609 0.10161 0.53443 0.0
C63 C 0.81492 0.35989 0.62737 0.0
C64 C 0.78833 0.09764 0.6332 0.0
C65 C 0.72207 0.23137 0.53499 0.0
C66 C 0.9713 0.2133 0.66459 0.0
C67 C 0.98601 0.28936 0.53131 0.0
O68 O 0.95753 0.10842 0.56569 0.0
O69 O 0.59051 0.3873 0.02337 0.0
Zn70 Zn 0.61858 0.30494 0.03776 0.0
O71 O 0.62084 0.30044 0.08827 0.0
Zn72 Zn 0.70607 0.29051 0.106 0.0
Zn73 Zn 0.58125 0.37126 0.10624 0.0
Zn74 Zn 0.56647 0.23731 0.10387 0.0
O75 O 0.71062 0.20536 0.12961 0.0
O76 O 0.61944 0.16407 0.11093 0.0
O77 O 0.70608 0.29207 0.0161 0.0
O78 O 0.76657 0.28902 0.06427 0.0
O79 O 0.7327 0.36857 0.13315 0.0
O80 O 0.64895 0.4267 0.12024 0.0
O81 O 0.5349 0.35604 0.15138 0.0
O82 O 0.54659 0.25364 0.01857 0.0
O83 O 0.53265 0.25625 0.15231 0.0
O84 O 0.49588 0.22728 0.06787 0.0
C85 C 0.54752 0.42046 0.03707 0.0
C86 C 0.67411 0.15907 0.12543 0.0
C87 C 0.70471 0.42027 0.13276 0.0
C88 C 0.76096 0.28983 0.0307 0.0
C89 C 0.52336 0.30679 0.16745 0.0
C90 C 0.49687 0.23368 0.03432 0.0
O91 O 0.53018 0.4134 0.06908 0.0
O92 O 0.60091 0.62819 0.52596 0.0
Zn93 Zn 0.62494 0.71184 0.5387 0.0
O94 O 0.62583 0.71768 0.58909 0.0
Zn95 Zn 0.71115 0.7277 0.60704 0.0
Zn96 Zn 0.58474 0.64752 0.60804 0.0
Zn97 Zn 0.57242 0.78262 0.60277 0.0
O98 O 0.71572 0.81247 0.63077 0.0
O99 O 0.62631 0.85504 0.61038 0.0
O100 O 0.71226 0.7263 0.51723 0.0
O101 O 0.77228 0.72981 0.56554 0.0
O102 O 0.73779 0.64969 0.63434 0.0
O103 O 0.65208 0.59286 0.62414 0.0
O104 O 0.53511 0.66551 0.65219 0.0
O105 O 0.5516 0.7601 0.51802 0.0
O106 O 0.53553 0.76535 0.65032 0.0
O107 O 0.50301 0.79378 0.56629 0.0
C108 C 0.55864 0.59371 0.53919 0.0
C109 C 0.68008 0.85922 0.62594 0.0
C110 C 0.70868 0.59863 0.63553 0.0
C111 C 0.76697 0.7291 0.53197 0.0
C112 C 0.5235 0.71631 0.66654 0.0
C113 C 0.50317 0.78394 0.53308 0.0
O114 O 0.5373 0.60207 0.57038 0.0
O115 O 0.89374 0.88664 0.02262 0.0
Zn116 Zn 0.86492 0.80435 0.03723 0.0
O117 O 0.86508 0.79974 0.08794 0.0
Zn118 Zn 0.78097 0.79079 0.10729 0.0
Zn119 Zn 0.90553 0.87028 0.10556 0.0
Zn120 Zn 0.91896 0.7358 0.10296 0.0
O121 O 0.77568 0.70583 0.13083 0.0
O122 O 0.86536 0.66313 0.11097 0.0
O123 O 0.77548 0.79257 0.01701 0.0
O124 O 0.71902 0.79024 0.06666 0.0
O125 O 0.75548 0.86892 0.13449 0.0
O126 O 0.83869 0.92639 0.12008 0.0
O127 O 0.95414 0.85457 0.14977 0.0
O128 O 0.93599 0.75238 0.01711 0.0
O129 O 0.95607 0.75476 0.15065 0.0
O130 O 0.98743 0.72481 0.06595 0.0
C131 C 0.9363 0.9203 0.0363 0.0
C132 C 0.81106 0.65895 0.12605 0.0
C133 C 0.78314 0.92067 0.133 0.0
C134 C 0.72174 0.7911 0.03304 0.0
C135 C 0.96694 0.80527 0.16549 0.0
C136 C 0.98577 0.73153 0.03244 0.0
O137 O 0.95483 0.91272 0.06803 0.0
O138 O 0.09596 0.88729 0.45872 0.0
Zn139 Zn 0.12396 0.8046 0.44473 0.0
O140 O 0.12562 0.79931 0.39419 0.0
Zn141 Zn 0.21078 0.78972 0.3761 0.0
Zn142 Zn 0.08599 0.87008 0.3761 0.0
Zn143 Zn 0.07123 0.73582 0.37901 0.0
O144 O 0.21542 0.70516 0.35222 0.0
O145 O 0.12473 0.6631 0.37123 0.0
O146 O 0.21186 0.79132 0.46598 0.0
O147 O 0.27168 0.78713 0.41754 0.0
O148 O 0.23747 0.86805 0.34907 0.0
O149 O 0.15333 0.92575 0.36165 0.0
O150 O 0.03861 0.85469 0.33158 0.0
O151 O 0.05212 0.75343 0.46451 0.0
O152 O 0.0352 0.75496 0.33101 0.0
O153 O 0.00178 0.72452 0.41569 0.0
C154 C 0.05259 0.91995 0.44491 0.0
C155 C 0.17924 0.65864 0.35645 0.0
C156 C 0.20922 0.91961 0.34925 0.0
C157 C 0.2665 0.78811 0.45112 0.0
C158 C 0.02561 0.80558 0.31589 0.0
C159 C 0.00287 0.73178 0.44916 0.0
O160 O 0.03504 0.91216 0.41305 0.0
O161 O 0.39158 0.63817 0.95956 0.0
Zn162 Zn 0.36504 0.72036 0.94509 0.0
O163 O 0.36517 0.72384 0.89471 0.0
Zn164 Zn 0.28034 0.73308 0.87604 0.0
Zn165 Zn 0.4065 0.65318 0.87697 0.0
Zn166 Zn 0.41899 0.78811 0.88046 0.0
O167 O 0.27571 0.81789 0.85223 0.0
O168 O 0.36503 0.86065 0.87253 0.0
O169 O 0.27688 0.73296 0.96566 0.0
O170 O 0.21791 0.73454 0.91692 0.0
O171 O 0.2549 0.65467 0.84903 0.0
O172 O 0.33924 0.5976 0.86207 0.0
O173 O 0.4554 0.66976 0.83231 0.0
O174 O 0.43598 0.77154 0.96551 0.0
O175 O 0.45511 0.76965 0.83292 0.0
O176 O 0.4885 0.79915 0.91705 0.0
C177 C 0.43382 0.60315 0.94688 0.0
C178 C 0.311 0.86477 0.85715 0.0
C179 C 0.28314 0.60312 0.84983 0.0
C180 C 0.22248 0.73429 0.95052 0.0
C181 C 0.46652 0.72012 0.8172 0.0
C182 C 0.48591 0.79266 0.95055 0.0
O183 O 0.45439 0.60969 0.91536 0.0
C184 C 0.305 0.98632 0.35277 0.0
C185 C 0.24289 0.97647 0.34028 0.0
C186 C 0.32933 0.04522 0.35593 0.0
C187 C 0.29244 0.09658 0.34681 0.0
H188 H 0.33294 0.94893 0.36297 0.0
H189 H 0.37617 0.0504 0.36762 0.0
S190 S 0.13167 0.09321 0.30572 0.0
N191 N 0.14877 0.02151 0.31342 0.0
N192 N 0.19418 0.13203 0.31946 0.0
C193 C 0.23268 0.08662 0.33098 0.0
C194 C 0.20808 0.02664 0.32767 0.0
C195 C 0.26073 0.43539 0.83709 0.0
C196 C 0.19685 0.4264 0.84711 0.0
C197 C 0.28644 0.4937 0.83433 0.0
C198 C 0.24956 0.54569 0.84156 0.0
H199 H 0.29231 0.39716 0.83325 0.0
H200 H 0.33698 0.49785 0.82871 0.0
S201 S 0.07672 0.54791 0.86225 0.0
N202 N 0.09454 0.47542 0.85895 0.0
N203 N 0.14383 0.58467 0.85443 0.0
C204 C 0.18424 0.53779 0.84822 0.0
C205 C 0.15775 0.47827 0.85095 0.0
C206 C 0.80442 0.53171 0.63176 0.0
C207 C 0.74229 0.54154 0.64432 0.0
C208 C 0.82879 0.47282 0.62843 0.0
C209 C 0.79195 0.42142 0.63746 0.0
H210 H 0.83239 0.56913 0.62163 0.0
H211 H 0.87564 0.46771 0.61669 0.0
S212 S 0.63122 0.42449 0.6787 0.0
N213 N 0.64824 0.49625 0.67117 0.0
N214 N 0.69375 0.38579 0.66479 0.0
C215 C 0.73219 0.43129 0.65336 0.0
C216 C 0.70754 0.49126 0.65685 0.0
C217 C 0.76043 0.0882 0.14564 0.0
C218 C 0.69687 0.09717 0.13504 0.0
C219 C 0.78604 0.02988 0.1487 0.0
C220 C 0.74934 0.97793 0.14124 0.0
H221 H 0.79188 0.12641 0.14969 0.0
H222 H 0.83643 0.02565 0.1547 0.0
S223 S 0.57729 0.97565 0.11885 0.0
N224 N 0.59495 0.04816 0.12228 0.0
N225 N 0.64414 0.93891 0.12739 0.0
C226 C 0.68427 0.98581 0.13398 0.0
C227 C 0.65787 0.04531 0.13092 0.0
C228 C 0.79279 0.98798 0.64807 0.0
C229 C 0.75536 0.03999 0.64172 0.0
C230 C 0.76725 0.92964 0.6452 0.0
C231 C 0.70305 0.92075 0.63588 0.0
H232 H 0.84354 0.99221 0.65301 0.0
H233 H 0.79915 0.89143 0.64822 0.0
S234 S 0.58165 0.0421 0.62359 0.0
N235 N 0.64892 0.07894 0.63072 0.0
N236 N 0.59997 0.96959 0.62601 0.0
C237 C 0.66351 0.97252 0.63308 0.0
C238 C 0.68981 0.03205 0.63595 0.0
C239 C 0.82481 0.54598 0.12624 0.0
C240 C 0.78798 0.59718 0.13564 0.0
C241 C 0.80047 0.48702 0.12924 0.0
C242 C 0.73843 0.47696 0.14183 0.0
H243 H 0.87161 0.55136 0.11448 0.0
H244 H 0.82835 0.44981 0.11884 0.0
S245 S 0.62738 0.59308 0.17704 0.0
N246 N 0.68984 0.63214 0.16331 0.0
N247 N 0.64441 0.52152 0.16902 0.0
C248 C 0.70366 0.52691 0.15466 0.0
C249 C 0.72825 0.58694 0.15151 0.0
C250 C 0.29279 0.52995 0.33535 0.0
C251 C 0.25558 0.47793 0.34195 0.0
C252 C 0.26688 0.58821 0.33778 0.0
C253 C 0.20254 0.59701 0.34691 0.0
H254 H 0.3436 0.52582 0.33052 0.0
H255 H 0.2986 0.62648 0.33455 0.0
S256 S 0.08183 0.47535 0.36 0.0
N257 N 0.14935 0.4387 0.35314 0.0
N258 N 0.09971 0.54789 0.35708 0.0
C259 C 0.16328 0.54513 0.35004 0.0
C260 C 0.18996 0.48567 0.3476 0.0
C261 C 0.30059 0.03668 0.8536 0.0
C262 C 0.23865 0.04675 0.8409 0.0
C263 C 0.32489 0.97771 0.85672 0.0
C264 C 0.2881 0.92652 0.84735 0.0
H265 H 0.32837 0.0739 0.86402 0.0
H266 H 0.37157 0.97232 0.86859 0.0
S267 S 0.12791 0.93066 0.80559 0.0
N268 N 0.14488 1.00223 0.81357 0.0
N269 N 0.19023 0.89157 0.81949 0.0
C270 C 0.22854 0.93677 0.83131 0.0
C271 C 0.204 0.99681 0.82804 0.0
C272 C 0.44424 0.47683 0.50344 0.0
C273 C 0.47339 0.45917 0.47155 0.0
C274 C 0.47288 0.51924 0.52565 0.0
C275 C 0.53174 0.54559 0.5168 0.0
H276 H 0.39837 0.45846 0.51118 0.0
H277 H 0.44792 0.53235 0.54951 0.0
S278 S 0.63077 0.51066 0.43787 0.0
N279 N 0.56638 0.46849 0.43332 0.0
N280 N 0.62047 0.5481 0.47509 0.0
C281 C 0.56239 0.52707 0.48547 0.0
C282 C 0.53312 0.48396 0.46282 0.0
C283 C 0.96073 0.96514 0.97746 0.0
C284 C 0.96492 0.96839 0.01451 0.0
C285 C 0.98763 0.00985 0.95601 0.0
C286 C 0.01968 0.05943 0.97084 0.0
H287 H 0.93711 0.92738 0.96481 0.0
H288 H 0.98387 1.00503 0.92761 0.0
S289 S 0.03967 0.09138 0.06659 0.0
N290 N 0.00085 0.02654 0.06523 0.0
N291 N 0.05132 0.11089 0.02498 0.0
C292 C 0.02333 0.06379 0.00792 0.0
C293 C -0.00398 0.01816 0.02975 0.0
C294 C 0.01923 0.02402 0.52187 0.0
C295 C 0.96403 0.0551 0.51116 0.0
C296 C 0.04755 0.98075 0.50013 0.0
C297 C 0.02182 0.96679 0.46679 0.0
H298 H 0.04124 0.03334 0.54716 0.0
H299 H 0.09019 0.95828 0.50963 0.0
S300 S 0.87636 0.03394 0.42667 0.0
N301 N 0.8836 0.06803 0.46518 0.0
N302 N 0.93707 0.9866 0.42432 0.0
C303 C 0.96639 0.99727 0.45574 0.0
C304 C 0.93742 0.04139 0.47792 0.0
C305 C 0.51691 0.52565 0.95999 0.0
C306 C 0.46064 0.55564 0.96993 0.0
C307 C 0.54462 0.48225 0.982 0.0
C308 C 0.51713 0.46711 0.01482 0.0
H309 H 0.54037 0.53622 0.93522 0.0
H310 H 0.58831 0.46078 0.97322 0.0
S311 S 0.3675 0.53006 0.05233 0.0
N312 N 0.37668 0.56547 0.01426 0.0
N313 N 0.4291 0.48391 0.05563 0.0
C314 C 0.46037 0.49617 0.02494 0.0
C315 C 0.43201 0.54036 0.00249 0.0
C316 C 0.49429 0.25372 0.2237 0.0
C317 C 0.50779 0.30802 0.20574 0.0
C318 C 0.48523 0.25254 0.26036 0.0
C319 C 0.48926 0.30564 0.2807 0.0
H320 H 0.49086 0.21147 0.2094 0.0
H321 H 0.47366 0.20966 0.27266 0.0
S322 S 0.52665 0.45952 0.24692 0.0
N323 N 0.52678 0.41632 0.21146 0.0
N324 N 0.50991 0.41397 0.28023 0.0
C325 C 0.50363 0.36023 0.26319 0.0
C326 C 0.51265 0.36149 0.2258 0.0
C327 C -0.00176 0.26631 0.75862 0.0
C328 C 0.00648 0.21209 0.77763 0.0
C329 C 0.98971 0.26627 0.72196 0.0
C330 C 0.98888 0.21199 0.70259 0.0
H331 H -0.00115 0.30949 0.77206 0.0
H332 H 0.98259 0.30935 0.70888 0.0
S333 S 0.00999 0.05732 0.73945 0.0
N334 N 0.01437 0.10231 0.77407 0.0
N335 N -0.00166 0.10229 0.70522 0.0
C336 C -0.00238 0.15732 0.72117 0.0
C337 C 0.00618 0.15734 0.75861 0.0
C338 C 0.49479 0.6662 0.76122 0.0
C339 C 0.48401 0.72096 0.77916 0.0
C340 C 0.50505 0.66496 0.72466 0.0
C341 C 0.50494 0.71842 0.70439 0.0
H342 H 0.49492 0.62363 0.77543 0.0
H343 H 0.51414 0.62161 0.71238 0.0
S344 S 0.47728 0.87391 0.73824 0.0
N345 N 0.4729 0.83029 0.77356 0.0
N346 N 0.49181 0.82785 0.70498 0.0
C347 C 0.49368 0.77356 0.7219 0.0
C348 C 0.48354 0.77488 0.75919 0.0
C349 C 0.98792 0.75251 0.22289 0.0
C350 C 0.98579 0.80666 0.20328 0.0
C351 C -0.00136 0.75278 0.2594 0.0
C352 C 0.00774 0.8072 0.27794 0.0
H353 H 0.9803 0.70935 0.21011 0.0
H354 H 0.00032 0.70973 0.27308 0.0
S355 S 0.00799 0.96175 0.23895 0.0
N356 N -0.00521 0.91644 0.20519 0.0
N357 N 0.01455 0.91701 0.27368 0.0
C358 C 0.00593 0.86181 0.25865 0.0
C359 C -0.00472 0.8615 0.22142 0.0
C360 C 0.6048 0.21788 0.45827 0.0
C361 C 0.54453 0.2229 0.47462 0.0
C362 C 0.66162 0.22119 0.47785 0.0
C363 C 0.66092 0.22947 0.51474 0.0
H364 H 0.60847 0.21311 0.42987 0.0
H365 H 0.70648 0.21747 0.46378 0.0
S366 S 0.51567 0.24184 0.57089 0.0
N367 N 0.48785 0.23398 0.5304 0.0
N368 N 0.59409 0.2403 0.56707 0.0
C369 C 0.60091 0.23299 0.53161 0.0
C370 C 0.54304 0.2296 0.51165 0.0
C371 C 0.93662 0.28409 0.00497 0.0
C372 C 0.93658 0.29839 0.96865 0.0
C373 C 0.87982 0.28103 0.02448 0.0
C374 C 0.82004 0.29195 0.00869 0.0
H375 H 0.98083 0.27361 0.01848 0.0
H376 H 0.88301 0.26925 0.05222 0.0
S377 S 0.79316 0.3352 0.91493 0.0
N378 N 0.8712 0.32646 0.91802 0.0
N379 N 0.7646 0.32072 0.95471 0.0
C380 C 0.81918 0.30773 0.97258 0.0
C381 C 0.87725 0.31109 0.95265 0.0
C382 C 0.10501 0.30044 0.52577 0.0
C383 C 0.04478 0.29636 0.50934 0.0
C384 C 0.16188 0.29768 0.50616 0.0
C385 C 0.16126 0.29093 0.46916 0.0
H386 H 0.10859 0.3039 0.55424 0.0
H387 H 0.20671 0.30041 0.5203 0.0
S388 S 0.01605 0.28234 0.41281 0.0
N389 N 0.98817 0.28835 0.45343 0.0
N390 N 0.09447 0.28316 0.41665 0.0
C391 C 0.10127 0.28862 0.45223 0.0
C392 C 0.04335 0.29141 0.47224 0.0
C393 C 0.43688 0.23997 0.97709 0.0
C394 C 0.43661 0.22735 0.0136 0.0
C395 C 0.38014 0.2429 0.95755 0.0
C396 C 0.32021 0.23356 0.97354 0.0
H397 H 0.48127 0.24911 0.9634 0.0
H398 H 0.38351 0.25334 0.92963 0.0
S399 S 0.29261 0.19498 0.06794 0.0
N400 N 0.37077 0.2025 0.06468 0.0
N401 N 0.26432 0.208 0.02795 0.0
C402 C 0.3191 0.21939 0.00986 0.0
C403 C 0.3771 0.21612 0.02982 0.0
C404 C 0.44199 0.7755 0.47631 0.0
C405 C 0.44308 0.79156 0.51231 0.0
C406 C 0.38488 0.77428 0.45703 0.0
C407 C 0.32592 0.78877 0.47281 0.0
H408 H 0.4855 0.76237 0.46287 0.0
H409 H 0.3871 0.76102 0.42952 0.0
S410 S 0.3023 0.83789 0.56571 0.0
N411 N 0.37975 0.82527 0.56256 0.0
N412 N 0.27262 0.82283 0.52633 0.0
C413 C 0.32627 0.80634 0.50857 0.0
C414 C 0.38465 0.80793 0.52824 0.0
C415 C 0.04653 0.74185 0.97553 0.0
C416 C 0.04579 0.72497 0.01147 0.0
C417 C 0.10366 0.74494 0.95628 0.0
C418 C 0.16291 0.73163 0.97204 0.0
H419 H 0.00275 0.75442 0.96219 0.0
H420 H 0.10126 0.75884 0.92885 0.0
S421 S 0.18751 0.67997 0.06453 0.0
N422 N 0.10979 0.69102 0.06145 0.0
N423 N 0.21689 0.69702 0.02529 0.0
C424 C 0.1629 0.71294 0.00766 0.0
C425 C 0.10455 0.70942 0.02728 0.0
C426 C 0.94227 0.74054 0.50614 0.0
C427 C 0.94296 0.7243 0.47015 0.0
C428 C 0.88535 0.74224 0.52562 0.0
C429 C 0.8262 0.72801 0.51008 0.0
H430 H 0.98593 0.75357 0.5194 0.0
H431 H 0.88787 0.75568 0.55309 0.0
S432 S 0.80156 0.67793 0.41744 0.0
N433 N 0.87907 0.69034 0.42025 0.0
N434 N 0.77229 0.69357 0.45687 0.0
C435 C 0.82615 0.71009 0.47437 0.0
C436 C 0.88434 0.70808 0.45448 0.0
C437 C 0.66199 0.79362 0.97528 0.0
C438 C 0.66092 0.79401 0.01249 0.0
C439 C 0.60539 0.79657 0.95545 0.0
C440 C 0.54511 0.79985 0.97192 0.0
H441 H 0.70688 0.79021 0.96121 0.0
H442 H 0.60898 0.79404 0.92694 0.0
S443 S 0.51554 0.80824 0.06852 0.0
N444 N 0.59379 0.80236 0.06496 0.0
N445 N 0.48811 0.80754 0.02768 0.0
C446 C 0.54336 0.80242 0.00905 0.0
C447 C 0.60092 0.79953 0.02928 0.0
loop_
_geom_bond_atom_site_label_1
_geom_bond_atom_site_label_2
_geom_bond_distance
_geom_bond_site_symmetry_2
_ccdc_geom_bond_type
O0 Zn1 1.953 . S
O0 C16 1.225 . S
Zn1 O0 1.953 . S
Zn1 O2 1.949 . S
Zn1 O8 1.919 . S
Zn1 O13 1.924 . S
O2 Zn1 1.949 . S
O2 Zn3 1.923 . S
O2 Zn4 1.950 . S
O2 Zn5 1.945 . S
Zn3 O2 1.923 . S
Zn3 O6 1.933 . S
Zn3 O9 1.941 . S
Zn3 O10 1.965 . S
Zn4 O2 1.950 . S
Zn4 O11 1.938 . S
Zn4 O12 1.906 . S
Zn4 O22 1.953 . S
Zn5 O2 1.945 . S
Zn5 O7 1.932 . S
Zn5 O14 1.977 . S
Zn5 O15 1.910 . S
O6 Zn3 1.933 . S
O6 C17 1.226 . S
O7 Zn5 1.932 . S
O7 C17 1.307 . S
O8 Zn1 1.919 . S
O8 C19 1.253 . S
O9 Zn3 1.941 . S
O9 C19 1.283 . S
O10 Zn3 1.965 . S
O10 C18 1.303 . S
O11 Zn4 1.938 . S
O11 C18 1.247 . S
O12 Zn4 1.906 . S
O12 C20 1.304 . S
O13 Zn1 1.924 . S
O13 C21 1.311 . S
O14 Zn5 1.977 . S
O14 C20 1.272 . S
O15 Zn5 1.910 . S
O15 C21 1.231 . S
C16 O0 1.225 . S
C16 O22 1.298 . S
C17 O6 1.226 . S
C17 O7 1.307 . S
C18 O10 1.303 . S
C18 O11 1.247 . S
C19 O8 1.253 . S
C19 O9 1.283 . S
C20 O12 1.304 . S
C20 O14 1.272 . S
C21 O13 1.311 . S
C21 O15 1.231 . S
O22 Zn4 1.953 . S
O22 C16 1.298 . S
O23 Zn24 1.953 . S
O23 C39 1.225 . S
Zn24 O23 1.953 . S
Zn24 O25 1.949 . S
Zn24 O31 1.919 . S
Zn24 O36 1.924 . S
O25 Zn24 1.949 . S
O25 Zn26 1.923 . S
O25 Zn27 1.950 . S
O25 Zn28 1.945 . S
Zn26 O25 1.923 . S
Zn26 O29 1.933 . S
Zn26 O32 1.941 . S
Zn26 O33 1.965 . S
Zn27 O25 1.950 . S
Zn27 O34 1.938 . S
Zn27 O35 1.906 . S
Zn27 O45 1.953 . S
Zn28 O25 1.945 . S
Zn28 O30 1.932 . S
Zn28 O37 1.977 . S
Zn28 O38 1.910 . S
O29 Zn26 1.933 . S
O29 C40 1.226 . S
O30 Zn28 1.932 . S
O30 C40 1.307 . S
O31 Zn24 1.919 . S
O31 C42 1.253 . S
O32 Zn26 1.941 . S
O32 C42 1.283 . S
O33 Zn26 1.965 . S
O33 C41 1.303 . S
O34 Zn27 1.938 . S
O34 C41 1.247 . S
O35 Zn27 1.906 . S
O35 C43 1.304 . S
O36 Zn24 1.924 . S
O36 C44 1.311 1_455 S
O37 Zn28 1.977 . S
O37 C43 1.272 . S
O38 Zn28 1.910 . S
O38 C44 1.231 1_455 S
C39 O23 1.225 . S
C39 O45 1.298 . S
C40 O29 1.226 . S
C40 O30 1.307 . S
C41 O33 1.303 . S
C41 O34 1.247 . S
C42 O31 1.253 . S
C42 O32 1.283 . S
C43 O35 1.304 . S
C43 O37 1.272 . S
C44 O36 1.311 1_655 S
C44 O38 1.231 1_655 S
O45 Zn27 1.953 . S
O45 C39 1.298 . S
O46 Zn47 1.953 . S
O46 C62 1.225 . S
Zn47 O46 1.953 . S
Zn47 O48 1.949 . S
Zn47 O54 1.919 . S
Zn47 O59 1.924 . S
O48 Zn47 1.949 . S
O48 Zn49 1.923 . S
O48 Zn50 1.950 . S
O48 Zn51 1.945 . S
Zn49 O48 1.923 . S
Zn49 O52 1.933 . S
Zn49 O55 1.941 . S
Zn49 O56 1.965 . S
Zn50 O48 1.950 . S
Zn50 O57 1.938 . S
Zn50 O58 1.906 . S
Zn50 O68 1.953 . S
Zn51 O48 1.945 . S
Zn51 O53 1.932 . S
Zn51 O60 1.977 . S
Zn51 O61 1.910 . S
O52 Zn49 1.933 . S
O52 C63 1.226 . S
O53 Zn51 1.932 . S
O53 C63 1.307 . S
O54 Zn47 1.919 . S
O54 C65 1.253 . S
O55 Zn49 1.941 . S
O55 C65 1.283 . S
O56 Zn49 1.965 . S
O56 C64 1.303 . S
O57 Zn50 1.938 . S
O57 C64 1.247 . S
O58 Zn50 1.906 . S
O58 C66 1.304 . S
O59 Zn47 1.924 . S
O59 C67 1.311 1_655 S
O60 Zn51 1.977 . S
O60 C66 1.272 . S
O61 Zn51 1.910 . S
O61 C67 1.231 1_655 S
C62 O46 1.225 . S
C62 O68 1.298 . S
C63 O52 1.226 . S
C63 O53 1.307 . S
C64 O56 1.303 . S
C64 O57 1.247 . S
C65 O54 1.253 . S
C65 O55 1.283 . S
C66 O58 1.304 . S
C66 O60 1.272 . S
C67 O59 1.311 1_455 S
C67 O61 1.231 1_455 S
O68 Zn50 1.953 . S
O68 C62 1.298 . S
O69 Zn70 1.953 . S
O69 C85 1.225 . S
Zn70 O69 1.953 . S
Zn70 O71 1.949 . S
Zn70 O77 1.919 . S
Zn70 O82 1.924 . S
O71 Zn70 1.949 . S
O71 Zn72 1.923 . S
O71 Zn73 1.950 . S
O71 Zn74 1.945 . S
Zn72 O71 1.923 . S
Zn72 O75 1.933 . S
Zn72 O78 1.941 . S
Zn72 O79 1.965 . S
Zn73 O71 1.950 . S
Zn73 O80 1.938 . S
Zn73 O81 1.906 . S
Zn73 O91 1.953 . S
Zn74 O71 1.945 . S
Zn74 O76 1.932 . S
Zn74 O83 1.977 . S
Zn74 O84 1.910 . S
O75 Zn72 1.933 . S
O75 C86 1.226 . S
O76 Zn74 1.932 . S
O76 C86 1.307 . S
O77 Zn70 1.919 . S
O77 C88 1.253 . S
O78 Zn72 1.941 . S
O78 C88 1.283 . S
O79 Zn72 1.965 . S
O79 C87 1.303 . S
O80 Zn73 1.938 . S
O80 C87 1.247 . S
O81 Zn73 1.906 . S
O81 C89 1.304 . S
O82 Zn70 1.924 . S
O82 C90 1.311 . S
O83 Zn74 1.977 . S
O83 C89 1.272 . S
O84 Zn74 1.910 . S
O84 C90 1.231 . S
C85 O69 1.225 . S
C85 O91 1.298 . S
C86 O75 1.226 . S
C86 O76 1.307 . S
C87 O79 1.303 . S
C87 O80 1.247 . S
C88 O77 1.253 . S
C88 O78 1.283 . S
C89 O81 1.304 . S
C89 O83 1.272 . S
C90 O82 1.311 . S
C90 O84 1.231 . S
O91 Zn73 1.953 . S
O91 C85 1.298 . S
O92 Zn93 1.953 . S
O92 C108 1.225 . S
Zn93 O92 1.953 . S
Zn93 O94 1.949 . S
Zn93 O100 1.919 . S
Zn93 O105 1.924 . S
O94 Zn93 1.949 . S
O94 Zn95 1.923 . S
O94 Zn96 1.950 . S
O94 Zn97 1.945 . S
Zn95 O94 1.923 . S
Zn95 O98 1.933 . S
Zn95 O101 1.941 . S
Zn95 O102 1.965 . S
Zn96 O94 1.950 . S
Zn96 O103 1.938 . S
Zn96 O104 1.906 . S
Zn96 O114 1.953 . S
Zn97 O94 1.945 . S
Zn97 O99 1.932 . S
Zn97 O106 1.977 . S
Zn97 O107 1.910 . S
O98 Zn95 1.933 . S
O98 C109 1.226 . S
O99 Zn97 1.932 . S
O99 C109 1.307 . S
O100 Zn93 1.919 . S
O100 C111 1.253 . S
O101 Zn95 1.941 . S
O101 C111 1.283 . S
O102 Zn95 1.965 . S
O102 C110 1.303 . S
O103 Zn96 1.938 . S
O103 C110 1.247 . S
O104 Zn96 1.906 . S
O104 C112 1.304 . S
O105 Zn93 1.924 . S
O105 C113 1.311 . S
O106 Zn97 1.977 . S
O106 C112 1.272 . S
O107 Zn97 1.910 . S
O107 C113 1.231 . S
C108 O92 1.225 . S
C108 O114 1.298 . S
C109 O98 1.226 . S
C109 O99 1.307 . S
C110 O102 1.303 . S
C110 O103 1.247 . S
C111 O100 1.253 . S
C111 O101 1.283 . S
C112 O104 1.304 . S
C112 O106 1.272 . S
C113 O105 1.311 . S
C113 O107 1.231 . S
O114 Zn96 1.953 . S
O114 C108 1.298 . S
O115 Zn116 1.953 . S
O115 C131 1.225 . S
Zn116 O115 1.953 . S
Zn116 O117 1.949 . S
Zn116 O123 1.919 . S
Zn116 O128 1.924 . S
O117 Zn116 1.949 . S
O117 Zn118 1.923 . S
O117 Zn119 1.950 . S
O117 Zn120 1.945 . S
Zn118 O117 1.923 . S
Zn118 O121 1.933 . S
Zn118 O124 1.941 . S
Zn118 O125 1.965 . S
Zn119 O117 1.950 . S
Zn119 O126 1.938 . S
Zn119 O127 1.906 . S
Zn119 O137 1.953 . S
Zn120 O117 1.945 . S
Zn120 O122 1.932 . S
Zn120 O129 1.977 . S
Zn120 O130 1.910 . S
O121 Zn118 1.933 . S
O121 C132 1.226 . S
O122 Zn120 1.932 . S
O122 C132 1.307 . S
O123 Zn116 1.919 . S
O123 C134 1.253 . S
O124 Zn118 1.941 . S
O124 C134 1.283 . S
O125 Zn118 1.965 . S
O125 C133 1.303 . S
O126 Zn119 1.938 . S
O126 C133 1.247 . S
O127 Zn119 1.906 . S
O127 C135 1.304 . S
O128 Zn116 1.924 . S
O128 C136 1.311 1_655 S
O129 Zn120 1.977 . S
O129 C135 1.272 . S
O130 Zn120 1.910 . S
O130 C136 1.231 1_655 S
C131 O115 1.225 . S
C131 O137 1.298 . S
C132 O121 1.226 . S
C132 O122 1.307 . S
C133 O125 1.303 . S
C133 O126 1.247 . S
C134 O123 1.253 . S
C134 O124 1.283 . S
C135 O127 1.304 . S
C135 O129 1.272 . S
C136 O128 1.311 1_455 S
C136 O130 1.231 1_455 S
O137 Zn119 1.953 . S
O137 C131 1.298 . S
O138 Zn139 1.953 . S
O138 C154 1.225 . S
Zn139 O138 1.953 . S
Zn139 O140 1.949 . S
Zn139 O146 1.919 . S
Zn139 O151 1.924 . S
O140 Zn139 1.949 . S
O140 Zn141 1.923 . S
O140 Zn142 1.950 . S
O140 Zn143 1.945 . S
Zn141 O140 1.923 . S
Zn141 O144 1.933 . S
Zn141 O147 1.941 . S
Zn141 O148 1.965 . S
Zn142 O140 1.950 . S
Zn142 O149 1.938 . S
Zn142 O150 1.906 . S
Zn142 O160 1.953 . S
Zn143 O140 1.945 . S
Zn143 O145 1.932 . S
Zn143 O152 1.977 . S
Zn143 O153 1.910 . S
O144 Zn141 1.933 . S
O144 C155 1.226 . S
O145 Zn143 1.932 . S
O145 C155 1.307 . S
O146 Zn139 1.919 . S
O146 C157 1.253 . S
O147 Zn141 1.941 . S
O147 C157 1.283 . S
O148 Zn141 1.965 . S
O148 C156 1.303 . S
O149 Zn142 1.938 . S
O149 C156 1.247 . S
O150 Zn142 1.906 . S
O150 C158 1.304 . S
O151 Zn139 1.924 . S
O151 C159 1.311 1_455 S
O152 Zn143 1.977 . S
O152 C158 1.272 . S
O153 Zn143 1.910 . S
O153 C159 1.231 1_455 S
C154 O138 1.225 . S
C154 O160 1.298 . S
C155 O144 1.226 . S
C155 O145 1.307 . S
C156 O148 1.303 . S
C156 O149 1.247 . S
C157 O146 1.253 . S
C157 O147 1.283 . S
C158 O150 1.304 . S
C158 O152 1.272 . S
C159 O151 1.311 1_655 S
C159 O153 1.231 1_655 S
O160 Zn142 1.953 . S
O160 C154 1.298 . S
O161 Zn162 1.953 . S
O161 C177 1.225 . S
Zn162 O161 1.953 . S
Zn162 O163 1.949 . S
Zn162 O169 1.919 . S
Zn162 O174 1.924 . S
O163 Zn162 1.949 . S
O163 Zn164 1.923 . S
O163 Zn165 1.950 . S
O163 Zn166 1.945 . S
Zn164 O163 1.923 . S
Zn164 O167 1.933 . S
Zn164 O170 1.941 . S
Zn164 O171 1.965 . S
Zn165 O163 1.950 . S
Zn165 O172 1.938 . S
Zn165 O173 1.906 . S
Zn165 O183 1.953 . S
Zn166 O163 1.945 . S
Zn166 O168 1.932 . S
Zn166 O175 1.977 . S
Zn166 O176 1.910 . S
O167 Zn164 1.933 . S
O167 C178 1.226 . S
O168 Zn166 1.932 . S
O168 C178 1.307 . S
O169 Zn162 1.919 . S
O169 C180 1.253 . S
O170 Zn164 1.941 . S
O170 C180 1.283 . S
O171 Zn164 1.965 . S
O171 C179 1.303 . S
O172 Zn165 1.938 . S
O172 C179 1.247 . S
O173 Zn165 1.906 . S
O173 C181 1.304 . S
O174 Zn162 1.924 . S
O174 C182 1.311 . S
O175 Zn166 1.977 . S
O175 C181 1.272 . S
O176 Zn166 1.910 . S
O176 C182 1.231 . S
C177 O161 1.225 . S
C177 O183 1.298 . S
C178 O167 1.226 . S
C178 O168 1.307 . S
C179 O171 1.303 . S
C179 O172 1.247 . S
C180 O169 1.253 . S
C180 O170 1.283 . S
C181 O173 1.304 . S
C181 O175 1.272 . S
C182 O174 1.311 . S
C182 O176 1.231 . S
O183 Zn165 1.953 . S
O183 C177 1.298 . S
C184 C185 1.369 1_545 S
C184 C186 1.419 . S
C184 H188 0.930 1_545 S
C185 C184 1.369 1_565 S
C185 C194 1.429 1_565 S
C186 C184 1.419 . S
C186 C187 1.363 . S
C186 H189 0.929 . S
C187 C186 1.363 . S
C187 C193 1.428 . S
H188 C184 0.930 1_565 S
H189 C186 0.929 . S
S190 N191 1.613 . S
S190 N192 1.610 . S
N191 S190 1.613 . S
N191 C194 1.350 . S
N192 S190 1.610 . S
N192 C193 1.351 . S
C193 C187 1.428 . S
C193 N192 1.351 . S
C193 C194 1.434 . S
C194 C185 1.429 1_545 S
C194 N191 1.350 . S
C194 C193 1.434 . S
C195 C196 1.369 . S
C195 C197 1.419 . S
C195 H199 0.930 . S
C196 C195 1.369 . S
C196 C205 1.429 . S
C197 C195 1.419 . S
C197 C198 1.363 . S
C197 H200 0.929 . S
C198 C197 1.363 . S
C198 C204 1.428 . S
H199 C195 0.930 . S
H200 C197 0.929 . S
S201 N202 1.613 . S
S201 N203 1.610 . S
N202 S201 1.613 . S
N202 C205 1.350 . S
N203 S201 1.610 . S
N203 C204 1.351 . S
C204 C198 1.428 . S
C204 N203 1.351 . S
C204 C205 1.434 . S
C205 C196 1.429 . S
C205 N202 1.350 . S
C205 C204 1.434 . S
C206 C207 1.369 . S
C206 C208 1.419 . S
C206 H210 0.930 . S
C207 C206 1.369 . S
C207 C216 1.429 . S
C208 C206 1.419 . S
C208 C209 1.363 . S
C208 H211 0.929 . S
C209 C208 1.363 . S
C209 C215 1.428 . S
H210 C206 0.930 . S
H211 C208 0.929 . S
S212 N213 1.613 . S
S212 N214 1.610 . S
N213 S212 1.613 . S
N213 C216 1.350 . S
N214 S212 1.610 . S
N214 C215 1.351 . S
C215 C209 1.428 . S
C215 N214 1.351 . S
C215 C216 1.434 . S
C216 C207 1.429 . S
C216 N213 1.350 . S
C216 C215 1.434 . S
C217 C218 1.369 . S
C217 C219 1.419 . S
C217 H221 0.930 . S
C218 C217 1.369 . S
C218 C227 1.429 . S
C219 C217 1.419 . S
C219 C220 1.363 1_545 S
C219 H222 0.929 . S
C220 C219 1.363 1_565 S
C220 C226 1.428 1_565 S
H221 C217 0.930 . S
H222 C219 0.929 . S
S223 N224 1.613 . S
S223 N225 1.610 1_545 S
N224 S223 1.613 . S
N224 C227 1.350 . S
N225 S223 1.610 1_565 S
N225 C226 1.351 1_565 S
C226 C220 1.428 1_545 S
C226 N225 1.351 1_545 S
C226 C227 1.434 . S
C227 C218 1.429 . S
C227 N224 1.350 . S
C227 C226 1.434 . S
C228 C229 1.369 1_565 S
C228 C230 1.419 . S
C228 H232 0.930 1_565 S
C229 C228 1.369 1_545 S
C229 C238 1.429 1_545 S
C230 C228 1.419 . S
C230 C231 1.363 . S
C230 H233 0.929 . S
C231 C230 1.363 . S
C231 C237 1.428 . S
H232 C228 0.930 1_545 S
H233 C230 0.929 . S
S234 N235 1.613 . S
S234 N236 1.610 . S
N235 S234 1.613 . S
N235 C238 1.350 . S
N236 S234 1.610 . S
N236 C237 1.351 . S
C237 C231 1.428 . S
C237 N236 1.351 . S
C237 C238 1.434 . S
C238 C229 1.429 1_565 S
C238 N235 1.350 . S
C238 C237 1.434 . S
C239 C240 1.369 . S
C239 C241 1.419 . S
C239 H243 0.930 . S
C240 C239 1.369 . S
C240 C249 1.429 . S
C241 C239 1.419 . S
C241 C242 1.363 . S
C241 H244 0.929 . S
C242 C241 1.363 . S
C242 C248 1.428 . S
H243 C239 0.930 . S
H244 C241 0.929 . S
S245 N246 1.613 . S
S245 N247 1.610 . S
N246 S245 1.613 . S
N246 C249 1.350 . S
N247 S245 1.610 . S
N247 C248 1.351 . S
C248 C242 1.428 . S
C248 N247 1.351 . S
C248 C249 1.434 . S
C249 C240 1.429 . S
C249 N246 1.350 . S
C249 C248 1.434 . S
C250 C251 1.369 . S
C250 C252 1.419 . S
C250 H254 0.930 . S
C251 C250 1.369 . S
C251 C260 1.429 . S
C252 C250 1.419 . S
C252 C253 1.363 . S
C252 H255 0.929 . S
C253 C252 1.363 . S
C253 C259 1.428 . S
H254 C250 0.930 . S
H255 C252 0.929 . S
S256 N257 1.613 . S
S256 N258 1.610 . S
N257 S256 1.613 . S
N257 C260 1.350 . S
N258 S256 1.610 . S
N258 C259 1.351 . S
C259 C253 1.428 . S
C259 N258 1.351 . S
C259 C260 1.434 . S
C260 C251 1.429 . S
C260 N257 1.350 . S
C260 C259 1.434 . S
C261 C262 1.369 1_565 S
C261 C263 1.419 . S
C261 H265 0.930 1_565 S
C262 C261 1.369 1_545 S
C262 C271 1.429 1_545 S
C263 C261 1.419 . S
C263 C264 1.363 . S
C263 H266 0.929 . S
C264 C263 1.363 . S
C264 C270 1.428 . S
H265 C261 0.930 1_545 S
H266 C263 0.929 . S
S267 N268 1.613 . S
S267 N269 1.610 . S
N268 S267 1.613 . S
N268 C271 1.350 . S
N269 S267 1.610 . S
N269 C270 1.351 . S
C270 C264 1.428 . S
C270 N269 1.351 . S
C270 C271 1.434 . S
C271 C262 1.429 1_565 S
C271 N268 1.350 . S
C271 C270 1.434 . S
C272 C273 1.369 . S
C272 C274 1.419 . S
C272 H276 0.930 . S
C273 C272 1.369 . S
C273 C282 1.429 . S
C274 C272 1.419 . S
C274 C275 1.363 . S
C274 H277 0.929 . S
C275 C274 1.363 . S
C275 C281 1.428 . S
H276 C272 0.930 . S
H277 C274 0.929 . S
S278 N279 1.613 . S
S278 N280 1.610 . S
N279 S278 1.613 . S
N279 C282 1.350 . S
N280 S278 1.610 . S
N280 C281 1.351 . S
C281 C275 1.428 . S
C281 N280 1.351 . S
C281 C282 1.434 . S
C282 C273 1.429 . S
C282 N279 1.350 . S
C282 C281 1.434 . S
C283 C284 1.368 1_455 S
C283 C285 1.419 1_554 S
C283 H287 0.930 . S
C284 C283 1.368 1_655 S
C284 C293 1.429 1_565 S
C285 C283 1.419 1_556 S
C285 C286 1.363 1_565 S
C285 H288 0.929 . S
C286 C285 1.363 1_545 S
C286 C292 1.428 1_455 S
H287 C283 0.930 . S
H288 C285 0.929 . S
S289 N290 1.613 . S
S289 N291 1.610 1_554 S
N290 S289 1.613 . S
N290 C293 1.350 . S
N291 S289 1.610 1_556 S
N291 C292 1.351 . S
C292 C286 1.428 1_655 S
C292 N291 1.351 . S
C292 C293 1.434 1_556 S
C293 C284 1.429 1_545 S
C293 N290 1.350 . S
C293 C292 1.434 1_554 S
C294 C295 1.369 1_455 S
C294 C296 1.419 . S
C294 H298 0.930 . S
C295 C294 1.369 1_655 S
C295 C304 1.429 1_545 S
C296 C294 1.419 . S
C296 C297 1.363 1_545 S
C296 H299 0.929 . S
C297 C296 1.363 1_565 S
C297 C303 1.428 1_455 S
H298 C294 0.930 . S
H299 C296 0.929 . S
S300 N301 1.613 . S
S300 N302 1.610 . S
N301 S300 1.613 . S
N301 C304 1.350 . S
N302 S300 1.610 . S
N302 C303 1.351 . S
C303 C297 1.428 1_655 S
C303 N302 1.351 . S
C303 C304 1.434 . S
C304 C295 1.429 1_565 S
C304 N301 1.350 . S
C304 C303 1.434 . S
C305 C306 1.369 . S
C305 C307 1.419 1_556 S
C305 H309 0.930 . S
C306 C305 1.369 . S
C306 C315 1.429 . S
C307 C305 1.419 1_554 S
C307 C308 1.363 . S
C307 H310 0.929 . S
C308 C307 1.363 . S
C308 C314 1.428 . S
H309 C305 0.930 . S
H310 C307 0.929 . S
S311 N312 1.613 1_554 S
S311 N313 1.610 . S
N312 S311 1.613 1_556 S
N312 C315 1.350 . S
N313 S311 1.610 . S
N313 C314 1.351 . S
C314 C308 1.428 . S
C314 N313 1.351 . S
C314 C315 1.434 1_554 S
C315 C306 1.429 . S
C315 N312 1.350 . S
C315 C314 1.434 1_556 S
C316 C317 1.369 . S
C316 C318 1.419 . S
C316 H320 0.930 . S
C317 C316 1.369 . S
C317 C326 1.429 . S
C318 C316 1.419 . S
C318 C319 1.363 . S
C318 H321 0.929 . S
C319 C318 1.363 . S
C319 C325 1.428 . S
H320 C316 0.930 . S
H321 C318 0.929 . S
S322 N323 1.613 . S
S322 N324 1.610 . S
N323 S322 1.613 . S
N323 C326 1.350 . S
N324 S322 1.610 . S
N324 C325 1.351 . S
C325 C319 1.428 . S
C325 N324 1.351 . S
C325 C326 1.434 . S
C326 C317 1.429 . S
C326 N323 1.350 . S
C326 C325 1.434 . S
C327 C328 1.369 . S
C327 C329 1.419 . S
C327 H331 0.930 . S
C328 C327 1.369 . S
C328 C337 1.429 1_455 S
C329 C327 1.419 . S
C329 C330 1.363 1_455 S
C329 H332 0.929 . S
C330 C329 1.363 1_655 S
C330 C336 1.428 . S
H331 C327 0.930 . S
H332 C329 0.929 . S
S333 N334 1.613 . S
S333 N335 1.610 . S
N334 S333 1.613 . S
N334 C337 1.350 . S
N335 S333 1.610 . S
N335 C336 1.351 . S
C336 C330 1.428 . S
C336 N335 1.351 . S
C336 C337 1.434 . S
C337 C328 1.429 1_655 S
C337 N334 1.350 . S
C337 C336 1.434 . S
C338 C339 1.369 . S
C338 C340 1.419 . S
C338 H342 0.930 . S
C339 C338 1.369 . S
C339 C348 1.429 . S
C340 C338 1.419 . S
C340 C341 1.363 . S
C340 H343 0.929 . S
C341 C340 1.363 . S
C341 C347 1.428 . S
H342 C338 0.930 . S
H343 C340 0.929 . S
S344 N345 1.613 . S
S344 N346 1.610 . S
N345 S344 1.613 . S
N345 C348 1.350 . S
N346 S344 1.610 . S
N346 C347 1.351 . S
C347 C341 1.428 . S
C347 N346 1.351 . S
C347 C348 1.434 . S
C348 C339 1.429 . S
C348 N345 1.350 . S
C348 C347 1.434 . S
C349 C350 1.369 . S
C349 C351 1.419 1_655 S
C349 H353 0.930 . S
C350 C349 1.369 . S
C350 C359 1.429 . S
C351 C349 1.419 1_455 S
C351 C352 1.363 . S
C351 H354 0.929 . S
C352 C351 1.363 . S
C352 C358 1.430 . S
H353 C349 0.930 . S
H354 C351 0.929 . S
S355 N356 1.613 . S
S355 N357 1.610 1_655 S
N356 S355 1.613 . S
N356 C359 1.350 . S
N357 S355 1.610 1_455 S
N357 C358 1.351 . S
C358 C352 1.430 . S
C358 N357 1.351 . S
C358 C359 1.432 1_455 S
C359 C350 1.429 . S
C359 N356 1.350 . S
C359 C358 1.432 1_655 S
C360 C361 1.369 . S
C360 C362 1.419 . S
C360 H364 0.930 . S
C361 C360 1.369 . S
C361 C370 1.429 . S
C362 C360 1.419 . S
C362 C363 1.363 . S
C362 H365 0.929 . S
C363 C362 1.363 . S
C363 C369 1.428 . S
H364 C360 0.930 . S
H365 C362 0.929 . S
S366 N367 1.613 . S
S366 N368 1.610 . S
N367 S366 1.613 . S
N367 C370 1.350 . S
N368 S366 1.610 . S
N368 C369 1.351 . S
C369 C363 1.428 . S
C369 N368 1.351 . S
C369 C370 1.434 . S
C370 C361 1.429 . S
C370 N367 1.350 . S
C370 C369 1.434 . S
C371 C372 1.369 1_554 S
C371 C373 1.419 . S
C371 H375 0.930 . S
C372 C371 1.369 1_556 S
C372 C381 1.429 . S
C373 C371 1.419 . S
C373 C374 1.377 . S
C373 H376 0.929 . S
C374 C373 1.377 . S
C374 C380 1.403 1_554 S
H375 C371 0.930 . S
H376 C373 0.929 . S
S377 N378 1.613 . S
S377 N379 1.610 . S
N378 S377 1.613 . S
N378 C381 1.350 . S
N379 S377 1.610 . S
N379 C380 1.351 . S
C380 C374 1.403 1_556 S
C380 N379 1.351 . S
C380 C381 1.434 . S
C381 C372 1.429 . S
C381 N378 1.350 . S
C381 C380 1.434 . S
C382 C383 1.369 . S
C382 C384 1.419 . S
C382 H386 0.930 . S
C383 C382 1.369 . S
C383 C392 1.429 . S
C384 C382 1.419 . S
C384 C385 1.363 . S
C384 H387 0.929 . S
C385 C384 1.363 . S
C385 C391 1.428 . S
H386 C382 0.930 . S
H387 C384 0.929 . S
S388 N389 1.613 . S
S388 N390 1.610 . S
N389 S388 1.613 . S
N389 C392 1.350 . S
N390 S388 1.610 . S
N390 C391 1.351 . S
C391 C385 1.428 . S
C391 N390 1.351 . S
C391 C392 1.434 . S
C392 C383 1.429 . S
C392 N389 1.350 . S
C392 C391 1.434 . S
C393 C394 1.369 1_556 S
C393 C395 1.419 . S
C393 H397 0.930 . S
C394 C393 1.369 1_554 S
C394 C403 1.429 . S
C395 C393 1.419 . S
C395 C396 1.378 . S
C395 H398 0.929 . S
C396 C395 1.378 . S
C396 C402 1.401 1_556 S
H397 C393 0.930 . S
H398 C395 0.929 . S
S399 N400 1.613 . S
S399 N401 1.610 . S
N400 S399 1.613 . S
N400 C403 1.350 . S
N401 S399 1.610 . S
N401 C402 1.351 . S
C402 C396 1.401 1_554 S
C402 N401 1.351 . S
C402 C403 1.434 . S
C403 C394 1.429 . S
C403 N400 1.350 . S
C403 C402 1.434 . S
C404 C405 1.369 . S
C404 C406 1.419 . S
C404 H408 0.930 . S
C405 C404 1.369 . S
C405 C414 1.429 . S
C406 C404 1.419 . S
C406 C407 1.363 . S
C406 H409 0.929 . S
C407 C406 1.363 . S
C407 C413 1.428 . S
H408 C404 0.930 . S
H409 C406 0.929 . S
S410 N411 1.613 . S
S410 N412 1.610 . S
N411 S410 1.613 . S
N411 C414 1.350 . S
N412 S410 1.610 . S
N412 C413 1.351 . S
C413 C407 1.428 . S
C413 N412 1.351 . S
C413 C414 1.434 . S
C414 C405 1.429 . S
C414 N411 1.350 . S
C414 C413 1.434 . S
C415 C416 1.369 . S
C415 C417 1.419 1_554 S
C415 H419 0.930 . S
C416 C415 1.369 . S
C416 C425 1.429 . S
C417 C415 1.419 1_556 S
C417 C418 1.363 . S
C417 H420 0.929 . S
C418 C417 1.363 . S
C418 C424 1.428 1_556 S
H419 C415 0.930 . S
H420 C417 0.929 . S
S421 N422 1.613 . S
S421 N423 1.610 . S
N422 S421 1.613 . S
N422 C425 1.350 . S
N423 S421 1.610 . S
N423 C424 1.351 . S
C424 C418 1.428 1_554 S
C424 N423 1.351 . S
C424 C425 1.434 . S
C425 C416 1.429 . S
C425 N422 1.350 . S
C425 C424 1.434 . S
C426 C427 1.369 . S
C426 C428 1.419 . S
C426 H430 0.930 . S
C427 C426 1.369 . S
C427 C436 1.429 . S
C428 C426 1.419 . S
C428 C429 1.363 . S
C428 H431 0.929 . S
C429 C428 1.363 . S
C429 C435 1.428 . S
H430 C426 0.930 . S
H431 C428 0.929 . S
S432 N433 1.613 . S
S432 N434 1.610 . S
N433 S432 1.613 . S
N433 C436 1.350 . S
N434 S432 1.610 . S
N434 C435 1.351 . S
C435 C429 1.428 . S
C435 N434 1.351 . S
C435 C436 1.434 . S
C436 C427 1.429 . S
C436 N433 1.350 . S
C436 C435 1.434 . S
C437 C438 1.369 1_556 S
C437 C439 1.419 . S
C437 H441 0.930 . S
C438 C437 1.369 1_554 S
C438 C447 1.429 . S
C439 C437 1.419 . S
C439 C440 1.363 . S
C439 H442 0.929 . S
C440 C439 1.363 . S
C440 C446 1.428 . S
H441 C437 0.930 . S
H442 C439 0.929 . S
S443 N444 1.613 . S
S443 N445 1.610 . S
N444 S443 1.613 . S
N444 C447 1.350 . S
N445 S443 1.610 . S
N445 C446 1.351 1_554 S
C446 C440 1.428 . S
C446 N445 1.351 1_556 S
C446 C447 1.434 1_556 S
C447 C438 1.429 . S
C447 N444 1.350 . S
C447 C446 1.434 1_554 S
C185 C156 1.669 . S
C187 C17 1.661 . S
C196 C40 1.654 . S
C198 C179 1.674 . S
C207 C110 1.671 . S
C209 C63 1.661 . S
C218 C86 1.655 . S
C220 C133 1.675 . S
C229 C64 1.675 . S
C231 C109 1.655 . S
C240 C132 1.658 . S
C242 C87 1.671 . S
C251 C18 1.671 . S
C253 C155 1.661 . S
C262 C41 1.672 . S
C264 C178 1.657 . S
C273 C16 1.086 . S
C275 C108 1.075 . S
C284 C131 1.084 . S
C286 C39 1.076 . S
C295 C62 1.084 . S
C297 C154 1.077 . S
C306 C177 1.073 . S
C308 C85 1.085 . S
C317 C89 1.402 . S
C319 C20 1.403 . S
C328 C43 1.402 . S
C330 C66 1.402 . S
C339 C181 1.403 . S
C341 C112 1.403 . S
C350 C135 1.402 . S
C352 C158 1.402 . S
C361 C21 1.700 . S
C363 C65 1.632 . S
C372 C44 1.702 . S
C374 C88 1.645 . S
C383 C67 1.701 . S
C385 C19 1.630 . S
C394 C90 1.702 . S
C396 C42 1.644 . S
C405 C113 1.703 . S
C407 C157 1.627 . S
C416 C136 1.700 . S
C418 C180 1.632 . S
C427 C159 1.702 . S
C429 C111 1.630 . S
C438 C134 1.625 . S
C440 C182 1.702 . S
