# Generated by pormake.
# Topology wje, (4)-cn, num edge types: 1
# Building blocks:
#     Node 0, Type 0, BuildingBlock: NAHDIM_clean_sbu_0, # of connection points: 4
#     Node 1, Type 0, BuildingBlock: NAHDIM_clean_sbu_0, # of connection points: 4
#     Node 2, Type 0, BuildingBlock: NAHDIM_clean_sbu_0, # of connection points: 4
#     Node 3, Type 0, BuildingBlock: NAHDIM_clean_sbu_0, # of connection points: 4
#     Node 4, Type 0, BuildingBlock: NAHDIM_clean_sbu_0, # of connection points: 4
#     Node 5, Type 0, BuildingBlock: NAHDIM_clean_sbu_0, # of connection points: 4
#     Node 6, Type 0, BuildingBlock: NAHDIM_clean_sbu_0, # of connection points: 4
#     Node 7, Type 0, BuildingBlock: NAHDIM_clean_sbu_0, # of connection points: 4
#     Node 8, Type 0, BuildingBlock: NAHDIM_clean_sbu_0, # of connection points: 4
#     Node 9, Type 0, BuildingBlock: NAHDIM_clean_sbu_0, # of connection points: 4
#     Node 10, Type 0, BuildingBlock: NAHDIM_clean_sbu_0, # of connection points: 4
#     Node 11, Type 0, BuildingBlock: NAHDIM_clean_sbu_0, # of connection points: 4
#     Edge 12, Type (0, 0), BuildingBlock: CIFDUS_clean_linker_0, # of connection points: 2
#     Edge 13, Type (0, 0), BuildingBlock: CIFDUS_clean_linker_0, # of connection points: 2
#     Edge 14, Type (0, 0), BuildingBlock: CIFDUS_clean_linker_0, # of connection points: 2
#     Edge 15, Type (0, 0), BuildingBlock: CIFDUS_clean_linker_0, # of connection points: 2
#     Edge 16, Type (0, 0), BuildingBlock: CIFDUS_clean_linker_0, # of connection points: 2
#     Edge 17, Type (0, 0), BuildingBlock: CIFDUS_clean_linker_0, # of connection points: 2
#     Edge 18, Type (0, 0), BuildingBlock: CIFDUS_clean_linker_0, # of connection points: 2
#     Edge 19, Type (0, 0), BuildingBlock: CIFDUS_clean_linker_0, # of connection points: 2
#     Edge 20, Type (0, 0), BuildingBlock: CIFDUS_clean_linker_0, # of connection points: 2
#     Edge 21, Type (0, 0), BuildingBlock: CIFDUS_clean_linker_0, # of connection points: 2
#     Edge 22, Type (0, 0), BuildingBlock: CIFDUS_clean_linker_0, # of connection points: 2
#     Edge 23, Type (0, 0), BuildingBlock: CIFDUS_clean_linker_0, # of connection points: 2
#     Edge 24, Type (0, 0), BuildingBlock: CIFDUS_clean_linker_0, # of connection points: 2
#     Edge 25, Type (0, 0), BuildingBlock: CIFDUS_clean_linker_0, # of connection points: 2
#     Edge 26, Type (0, 0), BuildingBlock: CIFDUS_clean_linker_0, # of connection points: 2
#     Edge 27, Type (0, 0), BuildingBlock: CIFDUS_clean_linker_0, # of connection points: 2
#     Edge 28, Type (0, 0), BuildingBlock: CIFDUS_clean_linker_0, # of connection points: 2
#     Edge 29, Type (0, 0), BuildingBlock: CIFDUS_clean_linker_0, # of connection points: 2
#     Edge 30, Type (0, 0), BuildingBlock: CIFDUS_clean_linker_0, # of connection points: 2
#     Edge 31, Type (0, 0), BuildingBlock: CIFDUS_clean_linker_0, # of connection points: 2
#     Edge 32, Type (0, 0), BuildingBlock: CIFDUS_clean_linker_0, # of connection points: 2
#     Edge 33, Type (0, 0), BuildingBlock: CIFDUS_clean_linker_0, # of connection points: 2
#     Edge 34, Type (0, 0), BuildingBlock: CIFDUS_clean_linker_0, # of connection points: 2
#     Edge 35, Type (0, 0), BuildingBlock: CIFDUS_clean_linker_0, # of connection points: 2
# Relax obj value: 0.165
# Max RMSD: 0.138
# Mean RMSD: 0.138
data_MOF--net-wje--node1-NAHDIM_clean_sbu_0--edge1-CIFDUS_clean_linker_0
_symmetry_space_group_name_H-M    P1
_symmetry_Int_Tables_number       1
_symmetry_cell_setting            triclinic
loop_
_symmetry_equiv_pos_as_xyz
'x, y, z'
_cell_length_a     36.139951
_cell_length_b     36.259767
_cell_length_c     31.855203
_cell_angle_alpha  89.951912
_cell_angle_beta   90.154008
_cell_angle_gamma 119.85765
loop_
_atom_site_label
_atom_site_type_symbol
_atom_site_fract_x
_atom_site_fract_y
_atom_site_fract_z
_atom_type_partial_charge
C0 C 0.29484 0.06449 0.22956 0.0
O1 O 0.25951 0.03565 0.24754 0.0
O2 O 0.28312 0.959 0.26036 0.0
Zn3 Zn 0.33143 0.0184 0.27061 0.0
O4 O 0.38823 0.02142 0.26518 0.0
C5 C 0.29146 0.01318 0.35089 0.0
O6 O 0.25584 0.99411 0.32914 0.0
O7 O 0.32884 0.06272 0.23451 0.0
C8 C 0.39805 -0.00015 0.24093 0.0
O9 O 0.36968 0.97325 0.21406 0.0
C10 C 0.28092 0.93191 0.28713 0.0
O11 O 0.3124 0.94331 0.31404 0.0
O12 O 0.32698 0.02925 0.33174 0.0
C13 C 0.26667 0.32605 0.57939 0.0
O14 O 0.303 0.33619 0.56098 0.0
O15 O 0.31444 0.26979 0.6539 0.0
Zn16 Zn 0.3108 0.32314 0.65485 0.0
O17 O 0.3674 0.37479 0.64176 0.0
C18 C 0.26596 0.29696 0.73218 0.0
O19 O 0.23806 0.26587 0.70841 0.0
O20 O 0.263 0.31901 0.61868 0.0
C21 C 0.39611 0.37563 0.61815 0.0
O22 O 0.38879 0.34098 0.59817 0.0
C23 C 0.31481 0.24704 0.62386 0.0
O24 O 0.31304 0.25798 0.5849 0.0
O25 O 0.29878 0.32743 0.71532 0.0
C26 C 0.93351 0.23374 0.9006 0.0
O27 O 0.96217 0.22961 0.92234 0.0
O28 O 0.03514 0.33311 0.93219 0.0
Zn29 Zn 0.97399 0.31888 0.93672 0.0
O30 O 0.96768 0.36934 0.92212 0.0
C31 C 0.97791 0.28929 0.01912 0.0
O32 O 0.00135 0.2763 -0.00033 0.0
O33 O 0.93368 0.26885 0.90157 0.0
C34 C 0.93311 0.36788 0.93272 0.0
O35 O 0.90336 0.33348 0.95125 0.0
C36 C 0.05962 0.36055 0.95894 0.0
O37 O 0.0451 0.38172 0.98021 0.0
O38 O 0.95991 0.30583 -0.00193 0.0
C39 C 0.68519 0.94379 0.23931 0.0
O40 O 0.69588 0.97818 0.21707 0.0
O41 O 0.73935 0.04579 0.30115 0.0
Zn42 Zn 0.68139 0.99357 0.3094 0.0
O43 O 0.63266 0.00244 0.29112 0.0
C44 C 0.69485 0.0048 0.39988 0.0
O45 O 0.71969 0.04491 0.39009 0.0
O46 O 0.67796 0.94385 0.27829 0.0
C47 C 0.61677 0.01758 0.31678 0.0
O48 O 0.63316 0.02841 0.35463 0.0
C49 C 0.74577 0.08312 0.30775 0.0
O50 O 0.71316 0.0885 0.3158 0.0
O51 O 0.67517 0.97781 0.37094 0.0
C52 C 0.76219 0.65948 0.57647 0.0
O53 O 0.74129 0.67761 0.56135 0.0
O54 O 0.70387 0.69645 0.64303 0.0
Zn55 Zn 0.7055 0.6419 0.64685 0.0
O56 O 0.64755 0.59222 0.63317 0.0
C57 C 0.74718 0.66905 0.72615 0.0
O58 O 0.77834 0.69764 0.70304 0.0
O59 O 0.75238 0.64225 0.61252 0.0
C60 C 0.61753 0.58838 0.65681 0.0
O61 O 0.62641 0.61642 0.68685 0.0
C62 C 0.67376 0.69986 0.62632 0.0
O63 O 0.64527 0.66851 0.60322 0.0
O64 O 0.71488 0.63884 0.70825 0.0
C65 C 0.03156 0.73733 0.84206 0.0
O66 O -0.00394 0.71026 0.82287 0.0
O67 O 0.93447 0.68497 0.91656 0.0
Zn68 Zn 0.99007 0.68499 0.91472 0.0
O69 O 0.98168 0.62909 0.894 0.0
C70 C -0.00502 0.70445 0.00262 0.0
O71 O 0.97157 0.72109 0.99098 0.0
O72 O 0.03534 0.73312 0.88118 0.0
C73 C 0.95371 0.59584 0.91258 0.0
O74 O 0.92996 0.59961 0.94153 0.0
C75 C 0.90056 0.66303 0.89548 0.0
O76 O 0.90043 0.63908 0.86449 0.0
O77 O 0.00902 0.68935 0.97492 0.0
C78 C 0.932 0.66489 0.41261 0.0
O79 O 0.95174 0.64539 0.42724 0.0
O80 O 0.0381 0.71894 0.3391 0.0
Zn81 Zn 0.9783 0.66953 0.33713 0.0
O82 O 0.97557 0.61359 0.34971 0.0
C83 C 0.98634 0.6681 0.25003 0.0
O84 O 0.01922 0.66493 0.26291 0.0
O85 O 0.93897 0.67855 0.37507 0.0
C86 C 0.00823 0.60911 0.35248 0.0
O87 O 0.04636 0.64248 0.34802 0.0
C88 C 0.06535 0.73335 0.36861 0.0
O89 O 0.05528 0.71534 0.40579 0.0
O90 O 0.96096 0.66876 0.27717 0.0
C91 C 0.25277 0.9141 0.74429 0.0
O92 O 0.29004 0.93551 0.76295 0.0
O93 O 0.32038 0.02129 0.68531 0.0
Zn94 Zn 0.30339 0.96046 0.67402 0.0
O95 O 0.35104 0.94816 0.68519 0.0
C96 C 0.32788 0.98243 0.59229 0.0
O97 O 0.36336 0.00411 0.61388 0.0
O98 O 0.25011 0.91953 0.70521 0.0
C99 C 0.38124 0.96696 0.71153 0.0
O100 O 0.38222 -0.00324 0.73573 0.0
C101 C 0.30205 0.03485 0.70967 0.0
O102 O 0.27238 0.0084 0.73545 0.0
O103 O 0.29397 0.95679 0.61172 0.0
C104 C 0.33896 0.27069 0.09866 0.0
O105 O 0.37377 0.29775 0.07862 0.0
O106 O 0.25766 0.32802 0.06269 0.0
Zn107 Zn 0.31192 0.32558 0.06423 0.0
O108 O 0.36145 0.38135 0.08313 0.0
C109 C 0.28992 0.29501 0.98088 0.0
O110 O 0.25273 0.27156 -0.00104 0.0
O111 O 0.30683 0.27612 0.09768 0.0
C112 C 0.36625 0.41428 0.06412 0.0
O113 O 0.33796 0.41003 0.03571 0.0
C114 C 0.24785 0.35263 0.08183 0.0
O115 O 0.27317 0.37806 0.11131 0.0
O116 O 0.32202 0.31902 0.00353 0.0
C117 C 0.09682 0.32774 0.41911 0.0
O118 O 0.06304 0.32345 0.43886 0.0
O119 O -0.00517 0.28355 0.36031 0.0
Zn120 Zn 0.05176 0.33533 0.34831 0.0
O121 O 0.05286 0.39068 0.36127 0.0
C122 C 0.02513 0.3229 0.2644 0.0
O123 O 0.99072 0.31665 0.28426 0.0
O124 O 0.09916 0.33295 0.37954 0.0
C125 C 0.0205 0.39569 0.35835 0.0
O126 O 0.98334 0.36314 0.34814 0.0
C127 C 0.9661 0.2777 0.38664 0.0
O128 O 0.97363 0.30709 0.4148 0.0
O129 O 0.0587 0.33269 0.28557 0.0
C130 C 0.73355 0.06029 0.76976 0.0
O131 O 0.70697 0.06581 0.74591 0.0
O132 O 0.68533 0.92278 0.74322 0.0
Zn133 Zn 0.68324 0.97732 0.73745 0.0
O134 O 0.62618 0.97156 0.75278 0.0
C135 C 0.68891 0.97013 0.64723 0.0
O136 O 0.67462 0.92997 0.65618 0.0
O137 O 0.7294 0.02344 0.77226 0.0
C138 C 0.59681 0.95823 0.72518 0.0
O139 O 0.60339 0.94611 0.68847 0.0
C140 C 0.65328 0.88634 0.73595 0.0
O141 O 0.61578 0.88295 0.72982 0.0
O142 O 0.6955 -0.00372 0.67678 0.0
C143 C 0.66412 0.75117 0.09979 0.0
O144 O 0.65163 0.71656 0.12225 0.0
O145 O 0.70527 0.68299 0.0401 0.0
Zn146 Zn 0.65698 0.69501 0.03297 0.0
O147 O 0.60154 0.64575 0.05247 0.0
C148 C 0.68987 0.7201 0.95171 0.0
O149 O 0.72438 0.74343 0.97413 0.0
O150 O 0.66907 0.7497 0.0605 0.0
C151 C 0.56748 0.64598 0.04306 0.0
O152 O 0.57035 0.67909 0.02322 0.0
C153 C 0.70301 0.6548 0.01478 0.0
O154 O 0.66704 0.63123 0.9945 0.0
O155 O 0.6542 0.69967 0.97039 0.0
H156 H 0.36238 0.12863 0.18898 0.0
H157 H 0.22892 0.07976 0.21577 0.0
H158 H 0.23074 0.13917 0.17779 0.0
H159 H 0.27046 0.20555 0.13768 0.0
H160 H 0.40385 0.25391 0.11084 0.0
H161 H 0.40171 0.19418 0.14821 0.0
C162 C 0.33362 0.13085 0.18647 0.0
C163 C 0.2956 0.09975 0.2053 0.0
C164 C 0.33488 0.16512 0.16466 0.0
C165 C 0.25865 0.1032 0.20161 0.0
C166 C 0.25966 0.13723 0.17993 0.0
C167 C 0.29908 0.20307 0.14004 0.0
C168 C 0.33728 0.23429 0.12154 0.0
C169 C 0.29764 0.16848 0.16149 0.0
C170 C 0.374 0.23041 0.12476 0.0
C171 C 0.37284 0.19622 0.14614 0.0
H172 H 0.26302 0.33711 0.49514 0.0
H173 H 0.18904 0.3097 0.60881 0.0
H174 H 0.13004 0.3073 0.56921 0.0
H175 H 0.09972 0.314 0.50265 0.0
H176 H 0.17331 0.34109 0.38879 0.0
H177 H 0.23206 0.34249 0.42818 0.0
C178 C 0.23399 0.33055 0.51127 0.0
C179 C 0.23061 0.32372 0.55494 0.0
C180 C 0.20006 0.32918 0.4883 0.0
C181 C 0.19262 0.31513 0.57525 0.0
C182 C 0.15881 0.31377 0.55263 0.0
C183 C 0.12856 0.32016 0.48638 0.0
C184 C 0.13207 0.32754 0.44282 0.0
C185 C 0.16224 0.32091 0.50919 0.0
C186 C 0.16969 0.33531 0.42229 0.0
C187 C 0.20336 0.33616 0.4448 0.0
H188 H 0.79841 0.06157 0.81478 0.0
H189 H 0.74721 0.14115 0.77502 0.0
H190 H 0.80499 0.20181 0.81118 0.0
H191 H 0.86959 0.23221 0.85431 0.0
H192 H 0.92137 0.15318 0.89415 0.0
H193 H 0.86388 0.09242 0.85746 0.0
C194 C 0.79982 0.09216 0.8141 0.0
C195 C 0.76842 0.09673 0.7923 0.0
C196 C 0.8333 0.12705 0.83482 0.0
C197 C 0.7709 0.13667 0.79156 0.0
C198 C 0.80396 0.17143 0.81222 0.0
C199 C 0.86846 0.20176 0.85492 0.0
C200 C 0.89976 0.19729 0.87701 0.0
C201 C 0.8353 0.16697 0.83392 0.0
C202 C 0.89772 0.15755 0.87738 0.0
C203 C 0.8648 0.12274 0.85648 0.0
H204 H 0.65547 0.76442 0.18225 0.0
H205 H 0.68866 0.82766 0.06201 0.0
H206 H 0.69868 0.89295 0.09455 0.0
H207 H 0.69693 0.93183 0.157 0.0
H208 H 0.66345 0.86812 0.27705 0.0
H209 H 0.65474 0.80343 0.24464 0.0
C210 C 0.66499 0.79248 0.16313 0.0
C211 C 0.67121 0.79105 0.11975 0.0
C212 C 0.67061 0.8299 0.18198 0.0
C213 C 0.6836 0.8278 0.09549 0.0
C214 C 0.68933 0.86519 0.11406 0.0
C215 C 0.6878 0.90384 0.1761 0.0
C216 C 0.68078 0.90491 0.21938 0.0
C217 C 0.68274 0.86656 0.15726 0.0
C218 C 0.66902 0.86828 0.24364 0.0
C219 C 0.664 0.83118 0.22515 0.0
H220 H 0.90704 0.63587 0.49218 0.0
H221 H 0.88604 0.70356 0.39185 0.0
H222 H 0.83232 0.70848 0.4339 0.0
H223 H 0.79013 0.69225 0.4985 0.0
H224 H 0.81084 0.62413 0.59861 0.0
H225 H 0.86582 0.6208 0.55725 0.0
C226 C 0.89086 0.65185 0.47952 0.0
C227 C 0.90056 0.66922 0.43885 0.0
C228 C 0.85981 0.65442 0.50379 0.0
C229 C 0.87921 0.68983 0.42302 0.0
C230 C 0.84842 0.69264 0.44704 0.0
C231 C 0.80671 0.67675 0.51135 0.0
C232 C 0.79622 0.65838 0.55158 0.0
C233 C 0.83827 0.67483 0.48735 0.0
C234 C 0.81814 0.63848 0.56771 0.0
C235 C 0.84963 0.63654 0.54407 0.0
H236 H 0.17185 0.86306 0.71511 0.0
H237 H 0.248 0.89798 0.82826 0.0
H238 H 0.18594 0.84775 0.86854 0.0
H239 H 0.11078 0.79265 0.87153 0.0
H240 H 0.0344 0.75643 0.75855 0.0
H241 H 0.09583 0.80867 0.71844 0.0
C242 C 0.17486 0.85977 0.7486 0.0
C243 C 0.21461 0.88418 0.76856 0.0
C244 C 0.13902 0.83062 0.77165 0.0
C245 C 0.21788 0.87953 0.81201 0.0
C246 C 0.18237 0.85081 0.83513 0.0
C247 C 0.10741 0.79628 0.83817 0.0
C248 C 0.06802 0.77055 0.8181 0.0
C249 C 0.14289 0.82602 0.81525 0.0
C250 C 0.06435 0.77573 0.77482 0.0
C251 C 0.09948 0.80557 0.75183 0.0
H252 H 0.45795 0.0438 0.30016 0.0
H253 H 0.43198 0.96048 0.19393 0.0
H254 H 0.49891 0.96061 0.20644 0.0
H255 H 0.56299 0.98155 0.25003 0.0
H256 H 0.58625 0.06253 0.35775 0.0
H257 H 0.52217 0.06621 0.34199 0.0
C258 C 0.46696 0.02588 0.27944 0.0
C259 C 0.43986 0.00207 0.2462 0.0
C260 C 0.50496 0.02553 0.28721 0.0
C261 C 0.45217 0.97902 0.21981 0.0
C262 C 0.49041 0.97903 0.22698 0.0
C263 C 0.5542 0.00029 0.2698 0.0
C264 C 0.5793 0.0216 0.30511 0.0
C265 C 0.5168 0.00174 0.26095 0.0
C266 C 0.56738 0.04559 0.33055 0.0
C267 C 0.53074 0.04776 0.32156 0.0
H268 H 0.5891 0.51996 0.60439 0.0
H269 H 0.54648 0.57752 0.69693 0.0
H270 H 0.4739 0.51815 0.69097 0.0
H271 H 0.4232 0.44859 0.66228 0.0
H272 H 0.4652 0.38925 0.57118 0.0
H273 H 0.53721 0.45083 0.57355 0.0
C274 C 0.56387 0.51961 0.62306 0.0
C275 C 0.57332 0.55303 0.65125 0.0
C276 C 0.52209 0.48506 0.61981 0.0
C277 C 0.54024 0.5521 0.67519 0.0
C278 C 0.49864 0.51816 0.67179 0.0
C279 C 0.44795 0.44916 0.64264 0.0
C280 C 0.4388 0.41423 0.61674 0.0
C281 C 0.48932 0.48427 0.6446 0.0
C282 C 0.47136 0.41564 0.59152 0.0
C283 C 0.5126 0.45081 0.59291 0.0
H284 H 0.89474 0.51895 0.94311 0.0
H285 H 0.00903 0.58021 0.86797 0.0
H286 H 0.01138 0.51409 0.86547 0.0
H287 H 0.98425 0.44062 0.88954 0.0
H288 H 0.86983 0.37965 0.9646 0.0
H289 H 0.86425 0.4439 0.96203 0.0
C290 C 0.91993 0.51776 0.92581 0.0
C291 C 0.95191 0.55459 0.90619 0.0
C292 C 0.92129 0.47977 0.92476 0.0
C293 C 0.98407 0.55236 0.8835 0.0
C294 C 0.98556 0.5146 0.88221 0.0
C295 C 0.95791 0.44128 0.90506 0.0
C296 C 0.92781 0.40554 0.92764 0.0
C297 C 0.95488 0.47839 0.90353 0.0
C298 C 0.8936 0.40676 0.94717 0.0
C299 C 0.89039 0.44353 0.9458 0.0
H300 H 0.07079 0.58901 0.36365 0.0
H301 H 0.93408 0.53275 0.35264 0.0
H302 H 0.92583 0.46182 0.35578 0.0
H303 H 0.95751 0.41583 0.35778 0.0
H304 H 0.09417 0.47178 0.3687 0.0
H305 H 0.10222 0.54276 0.36981 0.0
C306 C 0.03915 0.56125 0.36217 0.0
C307 C 0.00316 0.56625 0.35756 0.0
C308 C 0.03459 0.52049 0.36389 0.0
C309 C 0.96238 0.52989 0.35605 0.0
C310 C 0.9576 0.48927 0.35778 0.0
C311 C 0.98908 0.4435 0.36068 0.0
C312 C 0.02519 0.43845 0.3628 0.0
C313 C 0.99351 0.4842 0.3611 0.0
C314 C 0.0658 0.4747 0.36689 0.0
C315 C 0.07047 0.51534 0.36742 0.0
H316 H 0.52433 0.91965 0.67919 0.0
H317 H 0.58045 0.00044 0.78728 0.0
H318 H 0.51758 0.00884 0.79399 0.0
H319 H 0.44866 -0.0031 0.76602 0.0
H320 H 0.39334 0.91547 0.65797 0.0
H321 H 0.45387 0.90365 0.65456 0.0
C322 C 0.52273 0.93887 0.70443 0.0
C323 C 0.55716 0.95969 0.73244 0.0
C324 C 0.4867 0.94367 0.70798 0.0
C325 C 0.55435 0.98406 0.76528 0.0
C326 C 0.5185 0.98904 0.76901 0.0
C327 C 0.44973 0.97635 0.74192 0.0
C328 C 0.41663 0.95746 0.71209 0.0
C329 C 0.48479 0.96959 0.74005 0.0
C330 C 0.41837 0.9306 0.68128 0.0
C331 C 0.45305 0.92382 0.67921 0.0
H332 H 0.38021 0.49096 0.03704 0.0
H333 H 0.43988 0.43118 0.10477 0.0
H334 H 0.50701 0.49876 0.10701 0.0
H335 H 0.55018 0.57325 0.08437 0.0
H336 H 0.48994 0.63252 0.01653 0.0
H337 H 0.42156 0.56675 0.02004 0.0
C338 C 0.40778 0.49277 0.05264 0.0
C339 C 0.40519 0.456 0.07024 0.0
C340 C 0.44626 0.53158 0.05359 0.0
C341 C 0.44105 0.459 0.09084 0.0
C342 C 0.47951 0.4976 0.09199 0.0
C343 C 0.52201 0.57192 0.07072 0.0
C344 C 0.52534 0.60764 0.04976 0.0
C345 C 0.48272 0.53386 0.07263 0.0
C346 C 0.48842 0.60547 0.03263 0.0
C347 C 0.44926 0.56781 0.03451 0.0
H348 H 0.09408 0.77629 0.29528 0.0
H349 H 0.13409 0.77073 0.42189 0.0
H350 H 0.20546 0.82977 0.40652 0.0
H351 H 0.25552 0.8842 0.35788 0.0
H352 H 0.21444 0.8913 0.23224 0.0
H353 H 0.1443 0.82974 0.24642 0.0
C354 C 0.11835 0.78787 0.31961 0.0
C355 C 0.10865 0.76915 0.35978 0.0
C356 C 0.15912 0.82184 0.31063 0.0
C357 C 0.1406 0.78462 0.39079 0.0
C358 C 0.18144 0.8183 0.38198 0.0
C359 C 0.23145 0.87191 0.33335 0.0
C360 C 0.24022 0.89209 0.29392 0.0
C361 C 0.19097 0.83723 0.34207 0.0
C362 C 0.20847 0.87622 0.26276 0.0
C363 C 0.16836 0.84116 0.27091 0.0
H364 H 0.29942 0.2068 0.69884 0.0
H365 H 0.33445 0.20003 0.57078 0.0
H366 H 0.3374 0.13566 0.58747 0.0
H367 H 0.32742 0.08019 0.63765 0.0
H368 H 0.28741 0.08414 0.7643 0.0
H369 H 0.28966 0.15145 0.74908 0.0
C370 C 0.30793 0.1914 0.67457 0.0
C371 C 0.31676 0.20818 0.63358 0.0
C372 C 0.30887 0.15415 0.68422 0.0
C373 C 0.32734 0.18763 0.60247 0.0
C374 C 0.32917 0.15095 0.61205 0.0
C375 C 0.31982 0.0961 0.66215 0.0
C376 C 0.30761 0.07749 0.70221 0.0
C377 C 0.31976 0.13384 0.65274 0.0
C378 C 0.29703 0.09799 0.73333 0.0
C379 C 0.29817 0.13632 0.72458 0.0
H380 H 0.20804 0.32528 0.00688 0.0
H381 H 0.20811 0.39151 0.11948 0.0
H382 H 0.15144 0.40215 0.08999 0.0
H383 H 0.10192 0.39215 0.03242 0.0
H384 H 0.10236 0.32586 0.92003 0.0
H385 H 0.15983 0.31656 0.94909 0.0
C386 C 0.19554 0.34182 0.02521 0.0
C387 C 0.21205 0.35731 0.06552 0.0
C388 C 0.16366 0.34841 0.00782 0.0
C389 C 0.19584 0.37917 0.08848 0.0
C390 C 0.16361 0.3854 0.07155 0.0
C391 C 0.11502 0.37627 0.01394 0.0
C392 C 0.09806 0.35996 0.97394 0.0
C393 C 0.14747 0.37035 0.03116 0.0
C394 C 0.11499 0.33888 0.95077 0.0
C395 C 0.14764 0.33332 0.96747 0.0
H396 H 0.94179 0.21097 0.33362 0.0
H397 H 0.89189 0.26457 0.42293 0.0
H398 H 0.81913 0.21036 0.40439 0.0
H399 H 0.76978 0.14887 0.3616 0.0
H400 H 0.8198 0.0938 0.27436 0.0
H401 H 0.89269 0.14818 0.29275 0.0
C402 C 0.91505 0.21067 0.34934 0.0
C403 C 0.92233 0.24189 0.37959 0.0
C404 C 0.87339 0.17964 0.33836 0.0
C405 C 0.88726 0.24083 0.39971 0.0
C406 C 0.84563 0.21005 0.38887 0.0
C407 C 0.79666 0.14914 0.34622 0.0
C408 C 0.78955 0.11786 0.31617 0.0
C409 C 0.83834 0.17967 0.35786 0.0
C410 C 0.82459 0.11784 0.29729 0.0
C411 C 0.86618 0.14874 0.30796 0.0
H412 H 0.71914 0.76156 0.68395 0.0
H413 H 0.60995 0.71474 0.60135 0.0
H414 H 0.59214 0.76617 0.63061 0.0
H415 H 0.60717 0.82391 0.67994 0.0
H416 H 0.71748 0.87231 0.76089 0.0
H417 H 0.73472 0.81993 0.73259 0.0
C418 C 0.69167 0.76282 0.67197 0.0
C419 C 0.66599 0.73433 0.64036 0.0
C420 C 0.68136 0.79217 0.68921 0.0
C421 C 0.63039 0.73637 0.62549 0.0
C422 C 0.61999 0.76557 0.64242 0.0
C423 C 0.63458 0.82254 0.6919 0.0
C424 C 0.66072 0.85151 0.72287 0.0
C425 C 0.64499 0.7933 0.67457 0.0
C426 C 0.69671 0.85005 0.73731 0.0
C427 C 0.70672 0.82035 0.72094 0.0
H428 H 0.71549 0.62719 0.93997 0.0
H429 H 0.77965 0.68838 0.05529 0.0
H430 H 0.84682 0.69777 0.02747 0.0
H431 H 0.887 0.6893 0.97049 0.0
H432 H 0.82346 0.62861 0.85478 0.0
H433 H 0.7561 0.61911 0.88249 0.0
C434 C 0.744 0.64197 0.95932 0.0
C435 C 0.74252 0.65655 -7e-05 0.0
C436 C 0.78257 0.64799 0.94281 0.0
C437 C 0.77995 0.67658 0.02414 0.0
C438 C 0.81834 0.68216 0.00815 0.0
C439 C 0.85857 0.67422 0.9511 0.0
C440 C 0.86031 0.65972 0.91055 0.0
C441 C 0.82003 0.66827 0.96745 0.0
C442 C 0.82297 0.63998 0.88609 0.0
C443 C 0.78446 0.63439 0.90199 0.0
H444 H 0.35928 0.03967 0.40319 0.0
H445 H 0.22155 0.9736 0.402 0.0
H446 H 0.2204 0.95718 0.47658 0.0
H447 H 0.25873 0.95961 0.54166 0.0
H448 H 0.39647 0.0253 0.54148 0.0
H449 H 0.39724 0.04327 0.46772 0.0
C450 C 0.32894 0.02207 0.41925 0.0
C451 C 0.29058 0.00797 0.39699 0.0
C452 C 0.32848 0.01211 0.4618 0.0
C453 C 0.25161 0.98505 0.41839 0.0
C454 C 0.2509 0.97537 0.46099 0.0
C455 C 0.28886 0.9776 0.52536 0.0
C456 C 0.32746 0.99089 0.54699 0.0
C457 C 0.28915 0.98824 0.48288 0.0
C458 C 0.36628 0.01461 0.52558 0.0
C459 C 0.3668 0.02504 0.48341 0.0
H460 H 0.22599 0.25354 0.92416 0.0
H461 H 0.36059 0.34457 0.93367 0.0
H462 H 0.36433 0.35476 0.85777 0.0
H463 H 0.32942 0.33847 0.78894 0.0
H464 H 0.19536 0.24616 0.77885 0.0
H465 H 0.19127 0.2363 0.85501 0.0
C466 C 0.25624 0.27537 0.90964 0.0
C467 C 0.29296 0.29821 0.93461 0.0
C468 C 0.25815 0.28126 0.86599 0.0
C469 C 0.33185 0.32646 0.91523 0.0
C470 C 0.334 0.33249 0.87183 0.0
C471 C 0.29918 0.3165 0.80342 0.0
C472 C 0.26265 0.29333 0.77836 0.0
C473 C 0.2973 0.31033 0.84699 0.0
C474 C 0.22389 0.26448 0.79752 0.0
C475 C 0.22158 0.25872 0.841 0.0
H476 H 0.96069 0.31033 0.21253 0.0
H477 H 0.08582 0.3226 0.21293 0.0
H478 H 0.08106 0.31089 0.13692 0.0
H479 H 0.04126 0.29756 0.07057 0.0
H480 H 0.91767 0.2887 0.0705 0.0
H481 H 0.92165 0.29813 0.14672 0.0
C482 C 0.98698 0.31039 0.19611 0.0
C483 C 0.02352 0.31719 0.21838 0.0
C484 C 0.98407 0.30385 0.15266 0.0
C485 C 0.05737 0.31748 0.1965 0.0
C486 C 0.05458 0.31063 0.15311 0.0
C487 C 0.01496 0.2971 0.08738 0.0
C488 C 0.97891 0.29187 0.06523 0.0
C489 C 0.018 0.30364 0.13094 0.0
C490 C 0.94554 0.29241 0.08708 0.0
C491 C 0.94789 0.29791 0.13053 0.0
H492 H 0.72337 0.05559 0.4686 0.0
H493 H 0.65544 0.92375 0.4306 0.0
H494 H 0.6486 0.90165 0.50391 0.0
H495 H 0.66178 0.9197 0.57844 0.0
H496 H 0.72792 0.05141 0.61683 0.0
H497 H 0.73572 0.07367 0.5434 0.0
C498 C 0.70709 0.022 0.47632 0.0
C499 C 0.69002 0.99135 0.4442 0.0
C500 C 0.70303 0.00953 0.51848 0.0
C501 C 0.6688 0.94798 0.45474 0.0
C502 C 0.66494 0.93531 0.49663 0.0
C503 C 0.67808 0.95331 0.5708 0.0
C504 C 0.69442 0.98388 0.603 0.0
C505 C 0.68198 0.96581 0.52869 0.0
C506 C 0.71508 0.02727 0.59258 0.0
C507 C 0.71954 0.04 0.55064 0.0
H508 H 0.76269 0.73896 0.90996 0.0
H509 H 0.62567 0.67508 0.89574 0.0
H510 H 0.6315 0.65036 0.82616 0.0
H511 H 0.6752 0.64728 0.76945 0.0
H512 H 0.81227 0.71328 0.78174 0.0
H513 H 0.80665 0.73591 0.85282 0.0
C514 C 0.73411 0.72012 0.89145 0.0
C515 C 0.6938 0.70924 0.90788 0.0
C516 C 0.73765 0.70572 0.8516 0.0
C517 C 0.65709 0.68418 0.88371 0.0
C518 C 0.66036 0.66979 0.84406 0.0
C519 C 0.70385 0.66607 0.7879 0.0
C520 C 0.74411 0.67828 0.77066 0.0
C521 C 0.70042 0.68016 0.82784 0.0
C522 C 0.78096 0.70336 0.79456 0.0
C523 C 0.77775 0.71652 0.83497 0.0
H524 H 0.03382 0.66587 0.18531 0.0
H525 H 0.92812 0.68554 0.21367 0.0
H526 H 0.92291 0.70043 0.13978 0.0
H527 H 0.94849 0.70809 0.06736 0.0
H528 H 0.05276 0.68637 0.03862 0.0
H529 H 0.05871 0.67249 0.11274 0.0
C530 C 0.00953 0.67328 0.17537 0.0
C531 C 0.98143 0.67462 0.205 0.0
C532 C 0.00671 0.6818 0.13289 0.0
C533 C 0.95009 0.68417 0.19151 0.0
C534 C 0.94719 0.69287 0.14929 0.0
C535 C 0.9728 0.70072 0.07735 0.0
C536 C 0.00038 0.69858 0.04763 0.0
C537 C 0.97548 0.69198 0.11978 0.0
C538 C 0.03124 0.68832 0.06096 0.0
C539 C 0.03458 0.68028 0.10327 0.0
loop_
_geom_bond_atom_site_label_1
_geom_bond_atom_site_label_2
_geom_bond_distance
_geom_bond_site_symmetry_2
_ccdc_geom_bond_type
C0 O1 1.160 . S
C0 O7 1.185 . S
O1 C0 1.160 . S
O2 Zn3 1.899 1_565 S
O2 C10 1.284 . S
Zn3 O2 1.899 1_545 S
Zn3 O4 2.032 . S
Zn3 O7 2.086 . S
Zn3 O12 1.977 . S
O4 Zn3 2.032 . S
O4 C8 1.278 1_545 S
C5 O6 1.203 1_545 S
C5 O12 1.267 . S
O6 C5 1.203 1_565 S
O7 C0 1.185 . S
O7 Zn3 2.086 . S
C8 O4 1.278 1_565 S
C8 O9 1.211 . S
O9 C8 1.211 . S
C10 O2 1.284 . S
C10 O11 1.273 . S
O11 C10 1.273 . S
O12 Zn3 1.977 . S
O12 C5 1.267 . S
C13 O14 1.160 . S
C13 O20 1.185 . S
O14 C13 1.160 . S
O15 Zn16 1.899 . S
O15 C23 1.284 . S
Zn16 O15 1.899 . S
Zn16 O17 2.032 . S
Zn16 O20 2.086 . S
Zn16 O25 1.977 . S
O17 Zn16 2.032 . S
O17 C21 1.278 . S
C18 O19 1.203 . S
C18 O25 1.267 . S
O19 C18 1.203 . S
O20 C13 1.185 . S
O20 Zn16 2.086 . S
C21 O17 1.278 . S
C21 O22 1.211 . S
O22 C21 1.211 . S
C23 O15 1.284 . S
C23 O24 1.273 . S
O24 C23 1.273 . S
O25 Zn16 1.977 . S
O25 C18 1.267 . S
C26 O27 1.160 . S
C26 O33 1.185 . S
O27 C26 1.160 . S
O28 Zn29 1.899 1_455 S
O28 C36 1.284 . S
Zn29 O28 1.899 1_655 S
Zn29 O30 2.032 . S
Zn29 O33 2.086 . S
Zn29 O38 1.977 1_556 S
O30 Zn29 2.032 . S
O30 C34 1.278 1_655 S
C31 O32 1.203 1_655 S
C31 O38 1.267 . S
O32 C31 1.203 1_455 S
O33 C26 1.185 . S
O33 Zn29 2.086 . S
C34 O30 1.278 1_455 S
C34 O35 1.211 . S
O35 C34 1.211 . S
C36 O28 1.284 . S
C36 O37 1.273 . S
O37 C36 1.273 . S
O38 Zn29 1.977 1_554 S
O38 C31 1.267 . S
C39 O40 1.160 . S
C39 O46 1.185 . S
O40 C39 1.160 . S
O41 Zn42 1.899 1_545 S
O41 C49 1.284 . S
Zn42 O41 1.899 1_565 S
Zn42 O43 2.032 . S
Zn42 O46 2.086 . S
Zn42 O51 1.977 . S
O43 Zn42 2.032 . S
O43 C47 1.278 1_565 S
C44 O45 1.203 1_565 S
C44 O51 1.267 . S
O45 C44 1.203 1_545 S
O46 C39 1.185 . S
O46 Zn42 2.086 . S
C47 O43 1.278 1_545 S
C47 O48 1.211 . S
O48 C47 1.211 . S
C49 O41 1.284 . S
C49 O50 1.273 . S
O50 C49 1.273 . S
O51 Zn42 1.977 . S
O51 C44 1.267 . S
C52 O53 1.160 . S
C52 O59 1.185 . S
O53 C52 1.160 . S
O54 Zn55 1.899 . S
O54 C62 1.284 . S
Zn55 O54 1.899 . S
Zn55 O56 2.032 . S
Zn55 O59 2.086 . S
Zn55 O64 1.977 . S
O56 Zn55 2.032 . S
O56 C60 1.278 . S
C57 O58 1.203 . S
C57 O64 1.267 . S
O58 C57 1.203 . S
O59 C52 1.185 . S
O59 Zn55 2.086 . S
C60 O56 1.278 . S
C60 O61 1.211 . S
O61 C60 1.211 . S
C62 O54 1.284 . S
C62 O63 1.273 . S
O63 C62 1.273 . S
O64 Zn55 1.977 . S
O64 C57 1.267 . S
C65 O66 1.160 . S
C65 O72 1.185 . S
O66 C65 1.160 . S
O67 Zn68 1.899 1_655 S
O67 C75 1.284 . S
Zn68 O67 1.899 1_455 S
Zn68 O69 2.032 . S
Zn68 O72 2.086 . S
Zn68 O77 1.977 1_556 S
O69 Zn68 2.032 . S
O69 C73 1.278 1_455 S
C70 O71 1.203 1_455 S
C70 O77 1.267 . S
O71 C70 1.203 1_655 S
O72 C65 1.185 . S
O72 Zn68 2.086 . S
C73 O69 1.278 1_655 S
C73 O74 1.211 . S
O74 C73 1.211 . S
C75 O67 1.284 . S
C75 O76 1.273 . S
O76 C75 1.273 . S
O77 Zn68 1.977 1_554 S
O77 C70 1.267 . S
C78 O79 1.160 . S
C78 O85 1.185 . S
O79 C78 1.160 . S
O80 Zn81 1.899 1_455 S
O80 C88 1.284 . S
Zn81 O80 1.899 1_655 S
Zn81 O82 2.032 . S
Zn81 O85 2.086 . S
Zn81 O90 1.977 . S
O82 Zn81 2.032 . S
O82 C86 1.278 1_655 S
C83 O84 1.203 1_655 S
C83 O90 1.267 . S
O84 C83 1.203 1_455 S
O85 C78 1.185 . S
O85 Zn81 2.086 . S
C86 O82 1.278 1_455 S
C86 O87 1.211 . S
O87 C86 1.211 . S
C88 O80 1.284 . S
C88 O89 1.273 . S
O89 C88 1.273 . S
O90 Zn81 1.977 . S
O90 C83 1.267 . S
C91 O92 1.160 . S
C91 O98 1.185 . S
O92 C91 1.160 . S
O93 Zn94 1.899 1_545 S
O93 C101 1.284 . S
Zn94 O93 1.899 1_565 S
Zn94 O95 2.032 . S
Zn94 O98 2.086 . S
Zn94 O103 1.977 . S
O95 Zn94 2.032 . S
O95 C99 1.278 1_565 S
C96 O97 1.203 1_565 S
C96 O103 1.267 . S
O97 C96 1.203 1_545 S
O98 C91 1.185 . S
O98 Zn94 2.086 . S
C99 O95 1.278 1_545 S
C99 O100 1.211 . S
O100 C99 1.211 . S
C101 O93 1.284 . S
C101 O102 1.273 . S
O102 C101 1.273 . S
O103 Zn94 1.977 . S
O103 C96 1.267 . S
C104 O105 1.160 . S
C104 O111 1.185 . S
O105 C104 1.160 . S
O106 Zn107 1.899 . S
O106 C114 1.284 . S
Zn107 O106 1.899 . S
Zn107 O108 2.032 . S
Zn107 O111 2.086 . S
Zn107 O116 1.977 1_554 S
O108 Zn107 2.032 . S
O108 C112 1.278 . S
C109 O110 1.203 . S
C109 O116 1.267 . S
O110 C109 1.203 . S
O111 C104 1.185 . S
O111 Zn107 2.086 . S
C112 O108 1.278 . S
C112 O113 1.211 . S
O113 C112 1.211 . S
C114 O106 1.284 . S
C114 O115 1.273 . S
O115 C114 1.273 . S
O116 Zn107 1.977 1_556 S
O116 C109 1.267 . S
C117 O118 1.160 . S
C117 O124 1.185 . S
O118 C117 1.160 . S
O119 Zn120 1.899 1_655 S
O119 C127 1.284 . S
Zn120 O119 1.899 1_455 S
Zn120 O121 2.032 . S
Zn120 O124 2.086 . S
Zn120 O129 1.977 . S
O121 Zn120 2.032 . S
O121 C125 1.278 1_455 S
C122 O123 1.203 1_455 S
C122 O129 1.267 . S
O123 C122 1.203 1_655 S
O124 C117 1.185 . S
O124 Zn120 2.086 . S
C125 O121 1.278 1_655 S
C125 O126 1.211 . S
O126 C125 1.211 . S
C127 O119 1.284 . S
C127 O128 1.273 . S
O128 C127 1.273 . S
O129 Zn120 1.977 . S
O129 C122 1.267 . S
C130 O131 1.160 . S
C130 O137 1.185 . S
O131 C130 1.160 . S
O132 Zn133 1.899 1_565 S
O132 C140 1.284 . S
Zn133 O132 1.899 1_545 S
Zn133 O134 2.032 . S
Zn133 O137 2.086 . S
Zn133 O142 1.977 . S
O134 Zn133 2.032 . S
O134 C138 1.278 1_545 S
C135 O136 1.203 1_545 S
C135 O142 1.267 . S
O136 C135 1.203 1_565 S
O137 C130 1.185 . S
O137 Zn133 2.086 . S
C138 O134 1.278 1_565 S
C138 O139 1.211 . S
O139 C138 1.211 . S
C140 O132 1.284 . S
C140 O141 1.273 . S
O141 C140 1.273 . S
O142 Zn133 1.977 . S
O142 C135 1.267 . S
C143 O144 1.160 . S
C143 O150 1.185 . S
O144 C143 1.160 . S
O145 Zn146 1.899 . S
O145 C153 1.284 . S
Zn146 O145 1.899 . S
Zn146 O147 2.032 . S
Zn146 O150 2.086 . S
Zn146 O155 1.977 1_554 S
O147 Zn146 2.032 . S
O147 C151 1.278 . S
C148 O149 1.203 . S
C148 O155 1.267 . S
O149 C148 1.203 . S
O150 C143 1.185 . S
O150 Zn146 2.086 . S
C151 O147 1.278 . S
C151 O152 1.211 . S
O152 C151 1.211 . S
C153 O145 1.284 . S
C153 O154 1.273 . S
O154 C153 1.273 . S
O155 Zn146 1.977 1_556 S
O155 C148 1.267 . S
H156 C162 0.930 . S
H157 C165 0.930 . S
H158 C166 0.930 . S
H159 C167 0.930 . S
H160 C170 0.930 . S
H161 C171 0.930 . S
C162 H156 0.930 . S
C162 C163 1.355 . S
C162 C164 1.415 . S
C163 C162 1.355 . S
C163 C165 1.419 . S
C164 C162 1.415 . S
C164 C169 1.425 . S
C164 C171 1.409 . S
C165 H157 0.930 . S
C165 C163 1.419 . S
C165 C166 1.362 . S
C166 H158 0.930 . S
C166 C165 1.362 . S
C166 C169 1.409 . S
C167 H159 0.930 . S
C167 C168 1.355 . S
C167 C169 1.415 . S
C168 C167 1.355 . S
C168 C170 1.419 . S
C169 C164 1.425 . S
C169 C166 1.409 . S
C169 C167 1.415 . S
C170 H160 0.930 . S
C170 C168 1.419 . S
C170 C171 1.362 . S
C171 H161 0.930 . S
C171 C164 1.409 . S
C171 C170 1.362 . S
H172 C178 0.930 . S
H173 C181 0.930 . S
H174 C182 0.930 . S
H175 C183 0.930 . S
H176 C186 0.930 . S
H177 C187 0.930 . S
C178 H172 0.930 . S
C178 C179 1.355 . S
C178 C180 1.415 . S
C179 C178 1.355 . S
C179 C181 1.419 . S
C180 C178 1.415 . S
C180 C185 1.425 . S
C180 C187 1.409 . S
C181 H173 0.930 . S
C181 C179 1.419 . S
C181 C182 1.362 . S
C182 H174 0.930 . S
C182 C181 1.362 . S
C182 C185 1.409 . S
C183 H175 0.930 . S
C183 C184 1.355 . S
C183 C185 1.415 . S
C184 C183 1.355 . S
C184 C186 1.419 . S
C185 C180 1.425 . S
C185 C182 1.409 . S
C185 C183 1.415 . S
C186 H176 0.930 . S
C186 C184 1.419 . S
C186 C187 1.362 . S
C187 H177 0.930 . S
C187 C180 1.409 . S
C187 C186 1.362 . S
H188 C194 0.930 . S
H189 C197 0.930 . S
H190 C198 0.930 . S
H191 C199 0.930 . S
H192 C202 0.930 . S
H193 C203 0.930 . S
C194 H188 0.930 . S
C194 C195 1.355 . S
C194 C196 1.415 . S
C195 C194 1.355 . S
C195 C197 1.419 . S
C196 C194 1.415 . S
C196 C201 1.425 . S
C196 C203 1.409 . S
C197 H189 0.930 . S
C197 C195 1.419 . S
C197 C198 1.362 . S
C198 H190 0.930 . S
C198 C197 1.362 . S
C198 C201 1.409 . S
C199 H191 0.930 . S
C199 C200 1.355 . S
C199 C201 1.415 . S
C200 C199 1.355 . S
C200 C202 1.419 . S
C201 C196 1.425 . S
C201 C198 1.409 . S
C201 C199 1.415 . S
C202 H192 0.930 . S
C202 C200 1.419 . S
C202 C203 1.362 . S
C203 H193 0.930 . S
C203 C196 1.409 . S
C203 C202 1.362 . S
H204 C210 0.930 . S
H205 C213 0.930 . S
H206 C214 0.930 . S
H207 C215 0.930 . S
H208 C218 0.930 . S
H209 C219 0.930 . S
C210 H204 0.930 . S
C210 C211 1.355 . S
C210 C212 1.415 . S
C211 C210 1.355 . S
C211 C213 1.419 . S
C212 C210 1.415 . S
C212 C217 1.425 . S
C212 C219 1.409 . S
C213 H205 0.930 . S
C213 C211 1.419 . S
C213 C214 1.362 . S
C214 H206 0.930 . S
C214 C213 1.362 . S
C214 C217 1.409 . S
C215 H207 0.930 . S
C215 C216 1.355 . S
C215 C217 1.415 . S
C216 C215 1.355 . S
C216 C218 1.419 . S
C217 C212 1.425 . S
C217 C214 1.409 . S
C217 C215 1.415 . S
C218 H208 0.930 . S
C218 C216 1.419 . S
C218 C219 1.362 . S
C219 H209 0.930 . S
C219 C212 1.409 . S
C219 C218 1.362 . S
H220 C226 0.930 . S
H221 C229 0.930 . S
H222 C230 0.930 . S
H223 C231 0.930 . S
H224 C234 0.930 . S
H225 C235 0.930 . S
C226 H220 0.930 . S
C226 C227 1.355 . S
C226 C228 1.415 . S
C227 C226 1.355 . S
C227 C229 1.419 . S
C228 C226 1.415 . S
C228 C233 1.425 . S
C228 C235 1.409 . S
C229 H221 0.930 . S
C229 C227 1.419 . S
C229 C230 1.362 . S
C230 H222 0.930 . S
C230 C229 1.362 . S
C230 C233 1.409 . S
C231 H223 0.930 . S
C231 C232 1.355 . S
C231 C233 1.415 . S
C232 C231 1.355 . S
C232 C234 1.419 . S
C233 C228 1.425 . S
C233 C230 1.409 . S
C233 C231 1.415 . S
C234 H224 0.930 . S
C234 C232 1.419 . S
C234 C235 1.362 . S
C235 H225 0.930 . S
C235 C228 1.409 . S
C235 C234 1.362 . S
H236 C242 0.930 . S
H237 C245 0.930 . S
H238 C246 0.930 . S
H239 C247 0.930 . S
H240 C250 0.930 . S
H241 C251 0.930 . S
C242 H236 0.930 . S
C242 C243 1.355 . S
C242 C244 1.415 . S
C243 C242 1.355 . S
C243 C245 1.419 . S
C244 C242 1.415 . S
C244 C249 1.425 . S
C244 C251 1.409 . S
C245 H237 0.930 . S
C245 C243 1.419 . S
C245 C246 1.362 . S
C246 H238 0.930 . S
C246 C245 1.362 . S
C246 C249 1.409 . S
C247 H239 0.930 . S
C247 C248 1.355 . S
C247 C249 1.415 . S
C248 C247 1.355 . S
C248 C250 1.419 . S
C249 C244 1.425 . S
C249 C246 1.409 . S
C249 C247 1.415 . S
C250 H240 0.930 . S
C250 C248 1.419 . S
C250 C251 1.362 . S
C251 H241 0.930 . S
C251 C244 1.409 . S
C251 C250 1.362 . S
H252 C258 0.930 . S
H253 C261 0.930 . S
H254 C262 0.930 . S
H255 C263 0.930 . S
H256 C266 0.930 . S
H257 C267 0.930 . S
C258 H252 0.930 . S
C258 C259 1.355 1_545 S
C258 C260 1.415 . S
C259 C258 1.355 1_565 S
C259 C261 1.419 . S
C260 C258 1.415 . S
C260 C265 1.425 1_545 S
C260 C267 1.409 . S
C261 H253 0.930 . S
C261 C259 1.419 . S
C261 C262 1.362 . S
C262 H254 0.930 . S
C262 C261 1.362 . S
C262 C265 1.409 . S
C263 H255 0.930 . S
C263 C264 1.355 1_565 S
C263 C265 1.415 . S
C264 C263 1.355 1_545 S
C264 C266 1.419 . S
C265 C260 1.425 1_565 S
C265 C262 1.409 . S
C265 C263 1.415 . S
C266 H256 0.930 . S
C266 C264 1.419 . S
C266 C267 1.362 . S
C267 H257 0.930 . S
C267 C260 1.409 . S
C267 C266 1.362 . S
H268 C274 0.930 . S
H269 C277 0.930 . S
H270 C278 0.930 . S
H271 C279 0.930 . S
H272 C282 0.930 . S
H273 C283 0.930 . S
C274 H268 0.930 . S
C274 C275 1.355 . S
C274 C276 1.415 . S
C275 C274 1.355 . S
C275 C277 1.419 . S
C276 C274 1.415 . S
C276 C281 1.425 . S
C276 C283 1.409 . S
C277 H269 0.930 . S
C277 C275 1.419 . S
C277 C278 1.362 . S
C278 H270 0.930 . S
C278 C277 1.362 . S
C278 C281 1.409 . S
C279 H271 0.930 . S
C279 C280 1.355 . S
C279 C281 1.415 . S
C280 C279 1.355 . S
C280 C282 1.419 . S
C281 C276 1.425 . S
C281 C278 1.409 . S
C281 C279 1.415 . S
C282 H272 0.930 . S
C282 C280 1.419 . S
C282 C283 1.362 . S
C283 H273 0.930 . S
C283 C276 1.409 . S
C283 C282 1.362 . S
H284 C290 0.930 . S
H285 C293 0.930 . S
H286 C294 0.930 . S
H287 C295 0.930 . S
H288 C298 0.930 . S
H289 C299 0.930 1_554 S
C290 H284 0.930 . S
C290 C291 1.355 . S
C290 C292 1.415 . S
C291 C290 1.355 . S
C291 C293 1.409 1_655 S
C292 C290 1.415 . S
C292 C297 1.425 1_655 S
C292 C299 1.409 . S
C293 H285 0.930 . S
C293 C291 1.409 1_455 S
C293 C294 1.362 . S
C294 H286 0.930 . S
C294 C293 1.362 . S
C294 C297 1.409 . S
C295 H287 0.930 . S
C295 C296 1.355 . S
C295 C297 1.415 . S
C296 C295 1.355 . S
C296 C298 1.409 1_455 S
C297 C292 1.425 1_455 S
C297 C294 1.409 . S
C297 C295 1.415 . S
C298 H288 0.930 . S
C298 C296 1.409 1_655 S
C298 C299 1.362 . S
C299 H289 0.930 1_556 S
C299 C292 1.409 . S
C299 C298 1.362 . S
H300 C306 0.930 . S
H301 C309 0.930 . S
H302 C310 0.930 . S
H303 C311 0.930 . S
H304 C314 0.930 . S
H305 C315 0.930 . S
C306 H300 0.930 . S
C306 C307 1.355 1_455 S
C306 C308 1.415 . S
C307 C306 1.355 1_655 S
C307 C309 1.419 . S
C308 C306 1.415 . S
C308 C313 1.425 1_455 S
C308 C315 1.409 . S
C309 H301 0.930 . S
C309 C307 1.419 . S
C309 C310 1.362 . S
C310 H302 0.930 . S
C310 C309 1.362 . S
C310 C313 1.409 . S
C311 H303 0.930 . S
C311 C312 1.355 1_655 S
C311 C313 1.415 . S
C312 C311 1.355 1_455 S
C312 C314 1.419 . S
C313 C308 1.425 1_655 S
C313 C310 1.409 . S
C313 C311 1.415 . S
C314 H304 0.930 . S
C314 C312 1.419 . S
C314 C315 1.362 . S
C315 H305 0.930 . S
C315 C308 1.409 . S
C315 C314 1.362 . S
H316 C322 0.930 . S
H317 C325 0.930 . S
H318 C326 0.930 . S
H319 C327 0.930 . S
H320 C330 0.930 . S
H321 C331 0.930 . S
C322 H316 0.930 . S
C322 C323 1.354 1_565 S
C322 C324 1.415 . S
C323 C322 1.354 1_545 S
C323 C325 1.421 . S
C324 C322 1.415 . S
C324 C329 1.425 1_565 S
C324 C331 1.409 . S
C325 H317 0.930 . S
C325 C323 1.421 . S
C325 C326 1.362 . S
C326 H318 0.930 . S
C326 C325 1.362 . S
C326 C329 1.409 . S
C327 H319 0.930 . S
C327 C328 1.354 1_545 S
C327 C329 1.415 . S
C328 C327 1.354 1_565 S
C328 C330 1.421 . S
C329 C324 1.425 1_545 S
C329 C326 1.409 . S
C329 C327 1.415 . S
C330 H320 0.930 . S
C330 C328 1.421 . S
C330 C331 1.362 . S
C331 H321 0.930 . S
C331 C324 1.409 . S
C331 C330 1.362 . S
H332 C338 0.930 . S
H333 C341 0.930 . S
H334 C342 0.930 . S
H335 C343 0.930 . S
H336 C346 0.930 1_556 S
H337 C347 0.930 1_556 S
C338 H332 0.930 . S
C338 C339 1.355 . S
C338 C340 1.415 . S
C339 C338 1.355 . S
C339 C341 1.419 . S
C340 C338 1.415 . S
C340 C345 1.425 . S
C340 C347 1.409 . S
C341 H333 0.930 . S
C341 C339 1.419 . S
C341 C342 1.362 . S
C342 H334 0.930 . S
C342 C341 1.362 . S
C342 C345 1.409 . S
C343 H335 0.930 . S
C343 C344 1.355 . S
C343 C345 1.415 . S
C344 C343 1.355 . S
C344 C346 1.419 . S
C345 C340 1.425 . S
C345 C342 1.409 . S
C345 C343 1.415 . S
C346 H336 0.930 1_554 S
C346 C344 1.419 . S
C346 C347 1.362 . S
C347 H337 0.930 1_554 S
C347 C340 1.409 . S
C347 C346 1.362 . S
H348 C354 0.930 . S
H349 C357 0.930 . S
H350 C358 0.930 . S
H351 C359 0.930 . S
H352 C362 0.930 . S
H353 C363 0.930 . S
C354 H348 0.930 . S
C354 C355 1.355 . S
C354 C356 1.415 . S
C355 C354 1.355 . S
C355 C357 1.419 . S
C356 C354 1.415 . S
C356 C361 1.425 . S
C356 C363 1.409 . S
C357 H349 0.930 . S
C357 C355 1.419 . S
C357 C358 1.362 . S
C358 H350 0.930 . S
C358 C357 1.362 . S
C358 C361 1.409 . S
C359 H351 0.930 . S
C359 C360 1.355 . S
C359 C361 1.415 . S
C360 C359 1.355 . S
C360 C362 1.419 . S
C361 C356 1.425 . S
C361 C358 1.409 . S
C361 C359 1.415 . S
C362 H352 0.930 . S
C362 C360 1.419 . S
C362 C363 1.362 . S
C363 H353 0.930 . S
C363 C356 1.409 . S
C363 C362 1.362 . S
H364 C370 0.930 . S
H365 C373 0.930 . S
H366 C374 0.930 . S
H367 C375 0.930 . S
H368 C378 0.930 . S
H369 C379 0.930 . S
C370 H364 0.930 . S
C370 C371 1.355 . S
C370 C372 1.415 . S
C371 C370 1.355 . S
C371 C373 1.419 . S
C372 C370 1.415 . S
C372 C377 1.425 . S
C372 C379 1.409 . S
C373 H365 0.930 . S
C373 C371 1.419 . S
C373 C374 1.362 . S
C374 H366 0.930 . S
C374 C373 1.362 . S
C374 C377 1.409 . S
C375 H367 0.930 . S
C375 C376 1.355 . S
C375 C377 1.415 . S
C376 C375 1.355 . S
C376 C378 1.419 . S
C377 C372 1.425 . S
C377 C374 1.409 . S
C377 C375 1.415 . S
C378 H368 0.930 . S
C378 C376 1.419 . S
C378 C379 1.362 . S
C379 H369 0.930 . S
C379 C372 1.409 . S
C379 C378 1.362 . S
H380 C386 0.930 . S
H381 C389 0.930 . S
H382 C390 0.930 . S
H383 C391 0.930 . S
H384 C394 0.930 . S
H385 C395 0.930 . S
C386 H380 0.930 . S
C386 C387 1.355 . S
C386 C388 1.415 . S
C387 C386 1.355 . S
C387 C389 1.419 . S
C388 C386 1.415 . S
C388 C393 1.425 1_554 S
C388 C395 1.409 . S
C389 H381 0.930 . S
C389 C387 1.419 . S
C389 C390 1.362 1_554 S
C390 H382 0.930 . S
C390 C389 1.362 1_556 S
C390 C393 1.409 . S
C391 H383 0.930 . S
C391 C392 1.355 . S
C391 C393 1.415 . S
C392 C391 1.355 . S
C392 C394 1.419 . S
C393 C388 1.425 1_556 S
C393 C390 1.409 . S
C393 C391 1.415 . S
C394 H384 0.930 . S
C394 C392 1.419 . S
C394 C395 1.362 1_556 S
C395 H385 0.930 . S
C395 C388 1.409 . S
C395 C394 1.362 1_554 S
H396 C402 0.930 . S
H397 C405 0.930 . S
H398 C406 0.930 . S
H399 C407 0.930 . S
H400 C410 0.930 . S
H401 C411 0.930 . S
C402 H396 0.930 . S
C402 C403 1.355 . S
C402 C404 1.415 . S
C403 C402 1.355 . S
C403 C405 1.419 . S
C404 C402 1.415 . S
C404 C409 1.425 . S
C404 C411 1.409 . S
C405 H397 0.930 . S
C405 C403 1.419 . S
C405 C406 1.362 . S
C406 H398 0.930 . S
C406 C405 1.362 . S
C406 C409 1.409 . S
C407 H399 0.930 . S
C407 C408 1.355 . S
C407 C409 1.415 . S
C408 C407 1.355 . S
C408 C410 1.419 . S
C409 C404 1.425 . S
C409 C406 1.409 . S
C409 C407 1.415 . S
C410 H400 0.930 . S
C410 C408 1.419 . S
C410 C411 1.362 . S
C411 H401 0.930 . S
C411 C404 1.409 . S
C411 C410 1.362 . S
H412 C418 0.930 . S
H413 C421 0.930 . S
H414 C422 0.930 . S
H415 C423 0.930 . S
H416 C426 0.930 . S
H417 C427 0.930 . S
C418 H412 0.930 . S
C418 C419 1.355 . S
C418 C420 1.415 . S
C419 C418 1.355 . S
C419 C421 1.419 . S
C420 C418 1.415 . S
C420 C425 1.425 . S
C420 C427 1.409 . S
C421 H413 0.930 . S
C421 C419 1.419 . S
C421 C422 1.362 . S
C422 H414 0.930 . S
C422 C421 1.362 . S
C422 C425 1.409 . S
C423 H415 0.930 . S
C423 C424 1.355 . S
C423 C425 1.415 . S
C424 C423 1.355 . S
C424 C426 1.419 . S
C425 C420 1.425 . S
C425 C422 1.409 . S
C425 C423 1.415 . S
C426 H416 0.930 . S
C426 C424 1.419 . S
C426 C427 1.362 . S
C427 H417 0.930 . S
C427 C420 1.409 . S
C427 C426 1.362 . S
H428 C434 0.930 . S
H429 C437 0.930 . S
H430 C438 0.930 . S
H431 C439 0.930 . S
H432 C442 0.930 . S
H433 C443 0.930 . S
C434 H428 0.930 . S
C434 C435 1.355 . S
C434 C436 1.415 . S
C435 C434 1.355 . S
C435 C437 1.419 . S
C436 C434 1.415 . S
C436 C441 1.425 1_554 S
C436 C443 1.409 1_554 S
C437 H429 0.930 . S
C437 C435 1.419 . S
C437 C438 1.362 . S
C438 H430 0.930 . S
C438 C437 1.362 . S
C438 C441 1.409 1_554 S
C439 H431 0.930 . S
C439 C440 1.355 . S
C439 C441 1.415 . S
C440 C439 1.355 . S
C440 C442 1.419 . S
C441 C436 1.425 1_556 S
C441 C438 1.409 1_556 S
C441 C439 1.415 . S
C442 H432 0.930 . S
C442 C440 1.419 . S
C442 C443 1.362 . S
C443 H433 0.930 . S
C443 C436 1.409 1_556 S
C443 C442 1.362 . S
H444 C450 0.930 . S
H445 C453 0.930 . S
H446 C454 0.930 . S
H447 C455 0.930 . S
H448 C458 0.930 . S
H449 C459 0.930 . S
C450 H444 0.930 . S
C450 C451 1.355 . S
C450 C452 1.415 . S
C451 C450 1.355 . S
C451 C453 1.419 1_545 S
C452 C450 1.415 . S
C452 C457 1.425 1_545 S
C452 C459 1.409 . S
C453 H445 0.930 . S
C453 C451 1.419 1_565 S
C453 C454 1.362 . S
C454 H446 0.930 . S
C454 C453 1.362 . S
C454 C457 1.409 . S
C455 H447 0.930 . S
C455 C456 1.355 . S
C455 C457 1.415 . S
C456 C455 1.355 . S
C456 C458 1.419 1_565 S
C457 C452 1.425 1_565 S
C457 C454 1.409 . S
C457 C455 1.415 . S
C458 H448 0.930 . S
C458 C456 1.419 1_545 S
C458 C459 1.362 . S
C459 H449 0.930 . S
C459 C452 1.409 . S
C459 C458 1.362 . S
H460 C466 0.930 . S
H461 C469 0.930 . S
H462 C470 0.930 . S
H463 C471 0.930 . S
H464 C474 0.930 . S
H465 C475 0.930 . S
C466 H460 0.930 . S
C466 C467 1.355 . S
C466 C468 1.415 . S
C467 C466 1.355 . S
C467 C469 1.419 . S
C468 C466 1.415 . S
C468 C473 1.425 . S
C468 C475 1.409 . S
C469 H461 0.930 . S
C469 C467 1.419 . S
C469 C470 1.362 . S
C470 H462 0.930 . S
C470 C469 1.362 . S
C470 C473 1.409 . S
C471 H463 0.930 . S
C471 C472 1.355 . S
C471 C473 1.415 . S
C472 C471 1.355 . S
C472 C474 1.419 . S
C473 C468 1.425 . S
C473 C470 1.409 . S
C473 C471 1.415 . S
C474 H464 0.930 . S
C474 C472 1.419 . S
C474 C475 1.362 . S
C475 H465 0.930 . S
C475 C468 1.409 . S
C475 C474 1.362 . S
H476 C482 0.930 . S
H477 C485 0.930 . S
H478 C486 0.930 . S
H479 C487 0.930 . S
H480 C490 0.930 . S
H481 C491 0.930 . S
C482 H476 0.930 . S
C482 C483 1.355 1_655 S
C482 C484 1.415 . S
C483 C482 1.355 1_455 S
C483 C485 1.419 . S
C484 C482 1.415 . S
C484 C489 1.425 1_655 S
C484 C491 1.409 . S
C485 H477 0.930 . S
C485 C483 1.419 . S
C485 C486 1.362 . S
C486 H478 0.930 . S
C486 C485 1.362 . S
C486 C489 1.409 . S
C487 H479 0.930 . S
C487 C488 1.355 1_455 S
C487 C489 1.415 . S
C488 C487 1.355 1_655 S
C488 C490 1.419 . S
C489 C484 1.425 1_455 S
C489 C486 1.409 . S
C489 C487 1.415 . S
C490 H480 0.930 . S
C490 C488 1.419 . S
C490 C491 1.362 . S
C491 H481 0.930 . S
C491 C484 1.409 . S
C491 C490 1.362 . S
H492 C498 0.930 . S
H493 C501 0.930 . S
H494 C502 0.930 . S
H495 C503 0.930 . S
H496 C506 0.930 . S
H497 C507 0.930 . S
C498 H492 0.930 . S
C498 C499 1.355 1_545 S
C498 C500 1.415 . S
C499 C498 1.355 1_565 S
C499 C501 1.419 . S
C500 C498 1.415 . S
C500 C505 1.425 1_545 S
C500 C507 1.409 . S
C501 H493 0.930 . S
C501 C499 1.419 . S
C501 C502 1.362 . S
C502 H494 0.930 . S
C502 C501 1.362 . S
C502 C505 1.409 . S
C503 H495 0.930 . S
C503 C504 1.355 1_565 S
C503 C505 1.415 . S
C504 C503 1.355 1_545 S
C504 C506 1.419 . S
C505 C500 1.425 1_565 S
C505 C502 1.409 . S
C505 C503 1.415 . S
C506 H496 0.930 . S
C506 C504 1.419 . S
C506 C507 1.362 . S
C507 H497 0.930 . S
C507 C500 1.409 . S
C507 C506 1.362 . S
H508 C514 0.930 . S
H509 C517 0.930 . S
H510 C518 0.930 . S
H511 C519 0.930 . S
H512 C522 0.930 . S
H513 C523 0.930 . S
C514 H508 0.930 . S
C514 C515 1.355 . S
C514 C516 1.415 . S
C515 C514 1.355 . S
C515 C517 1.419 . S
C516 C514 1.415 . S
C516 C521 1.425 . S
C516 C523 1.409 . S
C517 H509 0.930 . S
C517 C515 1.419 . S
C517 C518 1.362 . S
C518 H510 0.930 . S
C518 C517 1.362 . S
C518 C521 1.409 . S
C519 H511 0.930 . S
C519 C520 1.355 . S
C519 C521 1.415 . S
C520 C519 1.355 . S
C520 C522 1.419 . S
C521 C516 1.425 . S
C521 C518 1.409 . S
C521 C519 1.415 . S
C522 H512 0.930 . S
C522 C520 1.419 . S
C522 C523 1.362 . S
C523 H513 0.930 . S
C523 C516 1.409 . S
C523 C522 1.362 . S
H524 C530 0.930 . S
H525 C533 0.930 . S
H526 C534 0.930 . S
H527 C535 0.930 . S
H528 C538 0.930 . S
H529 C539 0.930 . S
C530 H524 0.930 . S
C530 C531 1.355 1_455 S
C530 C532 1.415 . S
C531 C530 1.355 1_655 S
C531 C533 1.419 . S
C532 C530 1.415 . S
C532 C537 1.425 1_455 S
C532 C539 1.409 . S
C533 H525 0.930 . S
C533 C531 1.419 . S
C533 C534 1.362 . S
C534 H526 0.930 . S
C534 C533 1.362 . S
C534 C537 1.409 . S
C535 H527 0.930 . S
C535 C536 1.355 1_655 S
C535 C537 1.415 . S
C536 C535 1.355 1_455 S
C536 C538 1.419 . S
C537 C532 1.425 1_655 S
C537 C534 1.409 . S
C537 C535 1.415 . S
C538 H528 0.930 . S
C538 C536 1.419 . S
C538 C539 1.362 . S
C539 H529 0.930 . S
C539 C532 1.409 . S
C539 C538 1.362 . S
C163 C0 1.661 . S
C168 C104 1.703 . S
C179 C13 1.689 . S
C184 C117 1.684 . S
C195 C130 1.699 . S
C200 C26 1.661 . S
C211 C143 1.700 . S
C216 C39 1.671 . S
C227 C78 1.701 . S
C232 C52 1.669 . S
C243 C91 1.685 . S
C248 C65 1.670 . S
C259 C8 1.355 . S
C264 C47 1.363 . S
C275 C60 1.346 . S
C280 C21 1.371 . S
C291 C73 1.378 . S
C296 C34 1.331 . S
C307 C86 1.338 1_655 S
C312 C125 1.353 1_455 S
C323 C138 1.342 1_545 S
C328 C99 1.346 1_565 S
C339 C112 1.396 . S
C344 C151 1.308 . S
C355 C88 1.060 . S
C360 C10 1.087 . S
C371 C23 1.146 . S
C376 C101 1.115 . S
C387 C114 1.057 . S
C392 C36 1.078 . S
C403 C127 1.057 . S
C408 C49 1.061 . S
C419 C62 1.055 . S
C424 C140 1.070 . S
C435 C153 1.140 . S
C440 C75 1.107 . S
C451 C5 0.985 . S
C456 C96 0.974 . S
C467 C109 1.010 . S
C472 C18 1.023 . S
C483 C122 1.086 . S
C488 C31 1.082 . S
C499 C44 1.079 . S
C504 C135 1.084 . S
C515 C148 1.040 . S
C520 C57 1.052 . S
C531 C83 1.082 . S
C536 C70 1.075 . S
