# Generated by pormake.
# Topology uli, (4)-cn, num edge types: 1
# Building blocks:
#     Node 0, Type 0, BuildingBlock: CEKHIL_clean_sbu_0, # of connection points: 4
#     Node 1, Type 0, BuildingBlock: CEKHIL_clean_sbu_0, # of connection points: 4
#     Node 2, Type 0, BuildingBlock: CEKHIL_clean_sbu_0, # of connection points: 4
#     Node 3, Type 0, BuildingBlock: CEKHIL_clean_sbu_0, # of connection points: 4
#     Node 4, Type 0, BuildingBlock: CEKHIL_clean_sbu_0, # of connection points: 4
#     Node 5, Type 0, BuildingBlock: CEKHIL_clean_sbu_0, # of connection points: 4
#     Node 6, Type 0, BuildingBlock: CEKHIL_clean_sbu_0, # of connection points: 4
#     Node 7, Type 0, BuildingBlock: CEKHIL_clean_sbu_0, # of connection points: 4
#     Node 8, Type 0, BuildingBlock: CEKHIL_clean_sbu_0, # of connection points: 4
#     Node 9, Type 0, BuildingBlock: CEKHIL_clean_sbu_0, # of connection points: 4
#     Node 10, Type 0, BuildingBlock: CEKHIL_clean_sbu_0, # of connection points: 4
#     Node 11, Type 0, BuildingBlock: CEKHIL_clean_sbu_0, # of connection points: 4
#     Node 12, Type 0, BuildingBlock: CEKHIL_clean_sbu_0, # of connection points: 4
#     Node 13, Type 0, BuildingBlock: CEKHIL_clean_sbu_0, # of connection points: 4
#     Node 14, Type 0, BuildingBlock: CEKHIL_clean_sbu_0, # of connection points: 4
#     Node 15, Type 0, BuildingBlock: CEKHIL_clean_sbu_0, # of connection points: 4
#     Node 16, Type 0, BuildingBlock: CEKHIL_clean_sbu_0, # of connection points: 4
#     Node 17, Type 0, BuildingBlock: CEKHIL_clean_sbu_0, # of connection points: 4
#     Node 18, Type 0, BuildingBlock: CEKHIL_clean_sbu_0, # of connection points: 4
#     Node 19, Type 0, BuildingBlock: CEKHIL_clean_sbu_0, # of connection points: 4
#     Node 20, Type 0, BuildingBlock: CEKHIL_clean_sbu_0, # of connection points: 4
#     Node 21, Type 0, BuildingBlock: CEKHIL_clean_sbu_0, # of connection points: 4
#     Node 22, Type 0, BuildingBlock: CEKHIL_clean_sbu_0, # of connection points: 4
#     Node 23, Type 0, BuildingBlock: CEKHIL_clean_sbu_0, # of connection points: 4
#     Node 24, Type 0, BuildingBlock: CEKHIL_clean_sbu_0, # of connection points: 4
#     Node 25, Type 0, BuildingBlock: CEKHIL_clean_sbu_0, # of connection points: 4
#     Node 26, Type 0, BuildingBlock: CEKHIL_clean_sbu_0, # of connection points: 4
#     Node 27, Type 0, BuildingBlock: CEKHIL_clean_sbu_0, # of connection points: 4
#     Node 28, Type 0, BuildingBlock: CEKHIL_clean_sbu_0, # of connection points: 4
#     Node 29, Type 0, BuildingBlock: CEKHIL_clean_sbu_0, # of connection points: 4
#     Node 30, Type 0, BuildingBlock: CEKHIL_clean_sbu_0, # of connection points: 4
#     Node 31, Type 0, BuildingBlock: CEKHIL_clean_sbu_0, # of connection points: 4
#     Node 32, Type 0, BuildingBlock: CEKHIL_clean_sbu_0, # of connection points: 4
#     Node 33, Type 0, BuildingBlock: CEKHIL_clean_sbu_0, # of connection points: 4
#     Node 34, Type 0, BuildingBlock: CEKHIL_clean_sbu_0, # of connection points: 4
#     Node 35, Type 0, BuildingBlock: CEKHIL_clean_sbu_0, # of connection points: 4
#     Node 36, Type 0, BuildingBlock: CEKHIL_clean_sbu_0, # of connection points: 4
#     Node 37, Type 0, BuildingBlock: CEKHIL_clean_sbu_0, # of connection points: 4
#     Node 38, Type 0, BuildingBlock: CEKHIL_clean_sbu_0, # of connection points: 4
#     Node 39, Type 0, BuildingBlock: CEKHIL_clean_sbu_0, # of connection points: 4
#     Node 40, Type 0, BuildingBlock: CEKHIL_clean_sbu_0, # of connection points: 4
#     Node 41, Type 0, BuildingBlock: CEKHIL_clean_sbu_0, # of connection points: 4
#     Node 42, Type 0, BuildingBlock: CEKHIL_clean_sbu_0, # of connection points: 4
#     Node 43, Type 0, BuildingBlock: CEKHIL_clean_sbu_0, # of connection points: 4
#     Node 44, Type 0, BuildingBlock: CEKHIL_clean_sbu_0, # of connection points: 4
#     Node 45, Type 0, BuildingBlock: CEKHIL_clean_sbu_0, # of connection points: 4
#     Node 46, Type 0, BuildingBlock: CEKHIL_clean_sbu_0, # of connection points: 4
#     Node 47, Type 0, BuildingBlock: CEKHIL_clean_sbu_0, # of connection points: 4
#     Edge 48, Type (0, 0), BuildingBlock: XUDNAN_clean_linker_2, # of connection points: 2
#     Edge 49, Type (0, 0), BuildingBlock: XUDNAN_clean_linker_2, # of connection points: 2
#     Edge 50, Type (0, 0), BuildingBlock: XUDNAN_clean_linker_2, # of connection points: 2
#     Edge 51, Type (0, 0), BuildingBlock: XUDNAN_clean_linker_2, # of connection points: 2
#     Edge 52, Type (0, 0), BuildingBlock: XUDNAN_clean_linker_2, # of connection points: 2
#     Edge 53, Type (0, 0), BuildingBlock: XUDNAN_clean_linker_2, # of connection points: 2
#     Edge 54, Type (0, 0), BuildingBlock: XUDNAN_clean_linker_2, # of connection points: 2
#     Edge 55, Type (0, 0), BuildingBlock: XUDNAN_clean_linker_2, # of connection points: 2
#     Edge 56, Type (0, 0), BuildingBlock: XUDNAN_clean_linker_2, # of connection points: 2
#     Edge 57, Type (0, 0), BuildingBlock: XUDNAN_clean_linker_2, # of connection points: 2
#     Edge 58, Type (0, 0), BuildingBlock: XUDNAN_clean_linker_2, # of connection points: 2
#     Edge 59, Type (0, 0), BuildingBlock: XUDNAN_clean_linker_2, # of connection points: 2
#     Edge 60, Type (0, 0), BuildingBlock: XUDNAN_clean_linker_2, # of connection points: 2
#     Edge 61, Type (0, 0), BuildingBlock: XUDNAN_clean_linker_2, # of connection points: 2
#     Edge 62, Type (0, 0), BuildingBlock: XUDNAN_clean_linker_2, # of connection points: 2
#     Edge 63, Type (0, 0), BuildingBlock: XUDNAN_clean_linker_2, # of connection points: 2
#     Edge 64, Type (0, 0), BuildingBlock: XUDNAN_clean_linker_2, # of connection points: 2
#     Edge 65, Type (0, 0), BuildingBlock: XUDNAN_clean_linker_2, # of connection points: 2
#     Edge 66, Type (0, 0), BuildingBlock: XUDNAN_clean_linker_2, # of connection points: 2
#     Edge 67, Type (0, 0), BuildingBlock: XUDNAN_clean_linker_2, # of connection points: 2
#     Edge 68, Type (0, 0), BuildingBlock: XUDNAN_clean_linker_2, # of connection points: 2
#     Edge 69, Type (0, 0), BuildingBlock: XUDNAN_clean_linker_2, # of connection points: 2
#     Edge 70, Type (0, 0), BuildingBlock: XUDNAN_clean_linker_2, # of connection points: 2
#     Edge 71, Type (0, 0), BuildingBlock: XUDNAN_clean_linker_2, # of connection points: 2
#     Edge 72, Type (0, 0), BuildingBlock: XUDNAN_clean_linker_2, # of connection points: 2
#     Edge 73, Type (0, 0), BuildingBlock: XUDNAN_clean_linker_2, # of connection points: 2
#     Edge 74, Type (0, 0), BuildingBlock: XUDNAN_clean_linker_2, # of connection points: 2
#     Edge 75, Type (0, 0), BuildingBlock: XUDNAN_clean_linker_2, # of connection points: 2
#     Edge 76, Type (0, 0), BuildingBlock: XUDNAN_clean_linker_2, # of connection points: 2
#     Edge 77, Type (0, 0), BuildingBlock: XUDNAN_clean_linker_2, # of connection points: 2
#     Edge 78, Type (0, 0), BuildingBlock: XUDNAN_clean_linker_2, # of connection points: 2
#     Edge 79, Type (0, 0), BuildingBlock: XUDNAN_clean_linker_2, # of connection points: 2
#     Edge 80, Type (0, 0), BuildingBlock: XUDNAN_clean_linker_2, # of connection points: 2
#     Edge 81, Type (0, 0), BuildingBlock: XUDNAN_clean_linker_2, # of connection points: 2
#     Edge 82, Type (0, 0), BuildingBlock: XUDNAN_clean_linker_2, # of connection points: 2
#     Edge 83, Type (0, 0), BuildingBlock: XUDNAN_clean_linker_2, # of connection points: 2
#     Edge 84, Type (0, 0), BuildingBlock: XUDNAN_clean_linker_2, # of connection points: 2
#     Edge 85, Type (0, 0), BuildingBlock: XUDNAN_clean_linker_2, # of connection points: 2
#     Edge 86, Type (0, 0), BuildingBlock: XUDNAN_clean_linker_2, # of connection points: 2
#     Edge 87, Type (0, 0), BuildingBlock: XUDNAN_clean_linker_2, # of connection points: 2
#     Edge 88, Type (0, 0), BuildingBlock: XUDNAN_clean_linker_2, # of connection points: 2
#     Edge 89, Type (0, 0), BuildingBlock: XUDNAN_clean_linker_2, # of connection points: 2
#     Edge 90, Type (0, 0), BuildingBlock: XUDNAN_clean_linker_2, # of connection points: 2
#     Edge 91, Type (0, 0), BuildingBlock: XUDNAN_clean_linker_2, # of connection points: 2
#     Edge 92, Type (0, 0), BuildingBlock: XUDNAN_clean_linker_2, # of connection points: 2
#     Edge 93, Type (0, 0), BuildingBlock: XUDNAN_clean_linker_2, # of connection points: 2
#     Edge 94, Type (0, 0), BuildingBlock: XUDNAN_clean_linker_2, # of connection points: 2
#     Edge 95, Type (0, 0), BuildingBlock: XUDNAN_clean_linker_2, # of connection points: 2
#     Edge 96, Type (0, 0), BuildingBlock: XUDNAN_clean_linker_2, # of connection points: 2
#     Edge 97, Type (0, 0), BuildingBlock: XUDNAN_clean_linker_2, # of connection points: 2
#     Edge 98, Type (0, 0), BuildingBlock: XUDNAN_clean_linker_2, # of connection points: 2
#     Edge 99, Type (0, 0), BuildingBlock: XUDNAN_clean_linker_2, # of connection points: 2
#     Edge 100, Type (0, 0), BuildingBlock: XUDNAN_clean_linker_2, # of connection points: 2
#     Edge 101, Type (0, 0), BuildingBlock: XUDNAN_clean_linker_2, # of connection points: 2
#     Edge 102, Type (0, 0), BuildingBlock: XUDNAN_clean_linker_2, # of connection points: 2
#     Edge 103, Type (0, 0), BuildingBlock: XUDNAN_clean_linker_2, # of connection points: 2
#     Edge 104, Type (0, 0), BuildingBlock: XUDNAN_clean_linker_2, # of connection points: 2
#     Edge 105, Type (0, 0), BuildingBlock: XUDNAN_clean_linker_2, # of connection points: 2
#     Edge 106, Type (0, 0), BuildingBlock: XUDNAN_clean_linker_2, # of connection points: 2
#     Edge 107, Type (0, 0), BuildingBlock: XUDNAN_clean_linker_2, # of connection points: 2
#     Edge 108, Type (0, 0), BuildingBlock: XUDNAN_clean_linker_2, # of connection points: 2
#     Edge 109, Type (0, 0), BuildingBlock: XUDNAN_clean_linker_2, # of connection points: 2
#     Edge 110, Type (0, 0), BuildingBlock: XUDNAN_clean_linker_2, # of connection points: 2
#     Edge 111, Type (0, 0), BuildingBlock: XUDNAN_clean_linker_2, # of connection points: 2
#     Edge 112, Type (0, 0), BuildingBlock: XUDNAN_clean_linker_2, # of connection points: 2
#     Edge 113, Type (0, 0), BuildingBlock: XUDNAN_clean_linker_2, # of connection points: 2
#     Edge 114, Type (0, 0), BuildingBlock: XUDNAN_clean_linker_2, # of connection points: 2
#     Edge 115, Type (0, 0), BuildingBlock: XUDNAN_clean_linker_2, # of connection points: 2
#     Edge 116, Type (0, 0), BuildingBlock: XUDNAN_clean_linker_2, # of connection points: 2
#     Edge 117, Type (0, 0), BuildingBlock: XUDNAN_clean_linker_2, # of connection points: 2
#     Edge 118, Type (0, 0), BuildingBlock: XUDNAN_clean_linker_2, # of connection points: 2
#     Edge 119, Type (0, 0), BuildingBlock: XUDNAN_clean_linker_2, # of connection points: 2
#     Edge 120, Type (0, 0), BuildingBlock: XUDNAN_clean_linker_2, # of connection points: 2
#     Edge 121, Type (0, 0), BuildingBlock: XUDNAN_clean_linker_2, # of connection points: 2
#     Edge 122, Type (0, 0), BuildingBlock: XUDNAN_clean_linker_2, # of connection points: 2
#     Edge 123, Type (0, 0), BuildingBlock: XUDNAN_clean_linker_2, # of connection points: 2
#     Edge 124, Type (0, 0), BuildingBlock: XUDNAN_clean_linker_2, # of connection points: 2
#     Edge 125, Type (0, 0), BuildingBlock: XUDNAN_clean_linker_2, # of connection points: 2
#     Edge 126, Type (0, 0), BuildingBlock: XUDNAN_clean_linker_2, # of connection points: 2
#     Edge 127, Type (0, 0), BuildingBlock: XUDNAN_clean_linker_2, # of connection points: 2
#     Edge 128, Type (0, 0), BuildingBlock: XUDNAN_clean_linker_2, # of connection points: 2
#     Edge 129, Type (0, 0), BuildingBlock: XUDNAN_clean_linker_2, # of connection points: 2
#     Edge 130, Type (0, 0), BuildingBlock: XUDNAN_clean_linker_2, # of connection points: 2
#     Edge 131, Type (0, 0), BuildingBlock: XUDNAN_clean_linker_2, # of connection points: 2
#     Edge 132, Type (0, 0), BuildingBlock: XUDNAN_clean_linker_2, # of connection points: 2
#     Edge 133, Type (0, 0), BuildingBlock: XUDNAN_clean_linker_2, # of connection points: 2
#     Edge 134, Type (0, 0), BuildingBlock: XUDNAN_clean_linker_2, # of connection points: 2
#     Edge 135, Type (0, 0), BuildingBlock: XUDNAN_clean_linker_2, # of connection points: 2
#     Edge 136, Type (0, 0), BuildingBlock: XUDNAN_clean_linker_2, # of connection points: 2
#     Edge 137, Type (0, 0), BuildingBlock: XUDNAN_clean_linker_2, # of connection points: 2
#     Edge 138, Type (0, 0), BuildingBlock: XUDNAN_clean_linker_2, # of connection points: 2
#     Edge 139, Type (0, 0), BuildingBlock: XUDNAN_clean_linker_2, # of connection points: 2
#     Edge 140, Type (0, 0), BuildingBlock: XUDNAN_clean_linker_2, # of connection points: 2
#     Edge 141, Type (0, 0), BuildingBlock: XUDNAN_clean_linker_2, # of connection points: 2
#     Edge 142, Type (0, 0), BuildingBlock: XUDNAN_clean_linker_2, # of connection points: 2
#     Edge 143, Type (0, 0), BuildingBlock: XUDNAN_clean_linker_2, # of connection points: 2
# Relax obj value: 0.463
# Max RMSD: 0.155
# Mean RMSD: 0.155
data_MOF--net-uli--node1-CEKHIL_clean_sbu_0--edge1-XUDNAN_clean_linker_2
_symmetry_space_group_name_H-M    P1
_symmetry_Int_Tables_number       1
_symmetry_cell_setting            triclinic
loop_
_symmetry_equiv_pos_as_xyz
'x, y, z'
_cell_length_a     66.790367
_cell_length_b     66.782745
_cell_length_c     66.793761
_cell_angle_alpha  90.0058
_cell_angle_beta   89.99216
_cell_angle_gamma 90.020538
loop_
_atom_site_label
_atom_site_type_symbol
_atom_site_fract_x
_atom_site_fract_y
_atom_site_fract_z
_atom_type_partial_charge
Co0 Co 0.10039 0.25655 0.25544 0.0
O1 O 0.07453 0.2535 0.26794 0.0
O2 O 0.07963 0.26371 0.23676 0.0
C3 C 0.11388 0.22726 0.26496 0.0
O4 O 0.1244 0.26081 0.23723 0.0
Co5 Co 0.13898 0.25982 0.28129 0.0
O6 O 0.153 0.2602 0.25504 0.0
C7 C 0.11443 0.29573 0.27465 0.0
C8 C 0.06706 0.25926 0.25093 0.0
C9 C 0.14363 0.26168 0.23848 0.0
O10 O 0.10234 0.28534 0.26389 0.0
O11 O 0.12908 0.28809 0.28435 0.0
O12 O 0.10138 0.22806 0.25012 0.0
O13 O 0.11564 0.24357 0.27533 0.0
Co14 Co 0.72383 0.1047 0.26204 0.0
O15 O 0.72301 0.08169 0.27954 0.0
O16 O 0.71556 0.08138 0.24715 0.0
C17 C 0.75378 0.11728 0.27148 0.0
O18 O 0.72355 0.12478 0.2393 0.0
Co19 Co 0.72329 0.14781 0.27995 0.0
O20 O 0.72499 0.15621 0.25143 0.0
C21 C 0.68545 0.12592 0.27559 0.0
C22 C 0.71745 0.07162 0.26386 0.0
C23 C 0.72396 0.14388 0.23687 0.0
O24 O 0.6948 0.11134 0.26718 0.0
O25 O 0.69429 0.14091 0.2836 0.0
O26 O 0.75281 0.10213 0.25932 0.0
O27 O 0.73698 0.12227 0.27973 0.0
Co28 Co 0.89803 0.75988 0.26133 0.0
O29 O 0.92146 0.76406 0.27745 0.0
O30 O 0.92171 0.75738 0.24489 0.0
C31 C 0.87991 0.78613 0.27224 0.0
O32 O 0.8768 0.75536 0.24002 0.0
Co33 Co 0.858 0.74921 0.28291 0.0
O34 O 0.84717 0.74971 0.2552 0.0
C35 C 0.88713 0.71741 0.27497 0.0
C36 C 0.93168 0.76137 0.26114 0.0
C37 C 0.85788 0.75163 0.2395 0.0
O38 O 0.89849 0.7301 0.26601 0.0
O39 O 0.87136 0.72238 0.28465 0.0
O40 O 0.89406 0.78868 0.25916 0.0
O41 O 0.87935 0.76859 0.28045 0.0
Co42 Co 0.26304 0.8804 0.26931 0.0
O43 O 0.25905 0.90225 0.28767 0.0
O44 O 0.26111 0.90518 0.25463 0.0
C45 C 0.24045 0.85892 0.28216 0.0
O46 O 0.2661 0.86148 0.24577 0.0
Co47 Co 0.27945 0.83944 0.28442 0.0
O48 O 0.27481 0.83067 0.25629 0.0
C49 C 0.30729 0.87274 0.2778 0.0
C50 C 0.25847 0.91367 0.27194 0.0
C51 C 0.27013 0.84294 0.24241 0.0
O52 O 0.29307 0.8833 0.27027 0.0
O53 O 0.30438 0.85603 0.28671 0.0
O54 O 0.23467 0.87354 0.27071 0.0
O55 O 0.25897 0.85963 0.28771 0.0
Co56 Co 0.10889 0.73119 0.7219 0.0
O57 O 0.08605 0.73787 0.70563 0.0
O58 O 0.08505 0.73178 0.73827 0.0
C59 C 0.12996 0.75475 0.71012 0.0
O60 O 0.12916 0.72472 0.74368 0.0
Co61 Co 0.14858 0.71611 0.70272 0.0
O62 O 0.15936 0.71781 0.73047 0.0
C63 C 0.11483 0.68811 0.70793 0.0
C64 C 0.07556 0.7365 0.72195 0.0
C65 C 0.14789 0.72046 0.74552 0.0
O66 O 0.10484 0.70169 0.71723 0.0
O67 O 0.13149 0.69164 0.69909 0.0
O68 O 0.11654 0.75938 0.72344 0.0
O69 O 0.1285 0.73696 0.7027 0.0
Co70 Co 0.24802 0.09236 0.7602 0.0
O71 O 0.24572 0.06752 0.74583 0.0
O72 O 0.2528 0.07032 0.77815 0.0
C73 C 0.22002 0.10714 0.74878 0.0
O74 O 0.25092 0.1152 0.78016 0.0
Co75 Co 0.25417 0.13218 0.73687 0.0
O76 O 0.25212 0.14465 0.76382 0.0
C77 C 0.28837 0.10525 0.74272 0.0
C78 C 0.24946 0.05881 0.76281 0.0
C79 C 0.25188 0.13447 0.77997 0.0
O80 O 0.27755 0.09408 0.75409 0.0
O81 O 0.2812 0.11987 0.73262 0.0
O82 O 0.21904 0.09386 0.76293 0.0
O83 O 0.2373 0.10888 0.74019 0.0
Co84 Co 0.89157 0.26851 0.71819 0.0
O85 O 0.91222 0.26495 0.69853 0.0
O86 O 0.91692 0.27696 0.72913 0.0
C87 C 0.87698 0.23831 0.71472 0.0
O88 O 0.87407 0.2734 0.74262 0.0
Co89 Co 0.84676 0.26845 0.70529 0.0
O90 O 0.84218 0.2658 0.7346 0.0
C91 C 0.87088 0.30513 0.70031 0.0
C92 C 0.92456 0.27134 0.71212 0.0
C93 C 0.85564 0.27036 0.74735 0.0
O94 O 0.88592 0.29658 0.70878 0.0
O95 O 0.85465 0.2959 0.69592 0.0
O96 O 0.89321 0.24026 0.72523 0.0
O97 O 0.87175 0.25397 0.7046 0.0
Co98 Co 0.74363 0.89654 0.75451 0.0
O99 O 0.74414 0.92219 0.7413 0.0
O100 O 0.74082 0.91741 0.77405 0.0
C101 C 0.77038 0.88244 0.73975 0.0
O102 O 0.74309 0.87293 0.77356 0.0
Co103 Co 0.73481 0.85778 0.73035 0.0
O104 O 0.73861 0.84419 0.75658 0.0
C105 C 0.70188 0.88499 0.74002 0.0
C106 C 0.7424 0.92979 0.75914 0.0
C107 C 0.7414 0.85376 0.77286 0.0
O108 O 0.71369 0.89487 0.75154 0.0
O109 O 0.70787 0.87103 0.72835 0.0
O110 O 0.77263 0.89532 0.75411 0.0
O111 O 0.75234 0.88081 0.73278 0.0
Co112 Co 0.24782 0.09299 0.26152 0.0
O113 O 0.26224 0.06801 0.2617 0.0
O114 O 0.22921 0.07108 0.26394 0.0
C115 C 0.26354 0.10799 0.23578 0.0
O116 O 0.22777 0.11591 0.26123 0.0
Co117 Co 0.26998 0.13264 0.27186 0.0
O118 O 0.24361 0.14526 0.26629 0.0
C119 C 0.25632 0.10656 0.3045 0.0
C120 C 0.24485 0.0595 0.2636 0.0
C121 C 0.22776 0.13512 0.26304 0.0
O122 O 0.24862 0.09467 0.29153 0.0
O123 O 0.26716 0.12163 0.29969 0.0
O124 O 0.24988 0.09452 0.23254 0.0
O125 O 0.26935 0.10963 0.2542 0.0
Co126 Co 0.88728 0.25314 0.25971 0.0
O127 O 0.90961 0.27047 0.25471 0.0
O128 O 0.91153 0.23738 0.25706 0.0
C129 C 0.86583 0.26691 0.23766 0.0
O130 O 0.86687 0.23077 0.26395 0.0
Co131 Co 0.84873 0.27225 0.27785 0.0
O132 O 0.83773 0.24491 0.27352 0.0
C133 C 0.88256 0.26328 0.30415 0.0
C134 C 0.92049 0.25443 0.25398 0.0
C135 C 0.84818 0.22963 0.26873 0.0
O136 O 0.89151 0.25448 0.28956 0.0
O137 O 0.86666 0.27372 0.30189 0.0
O138 O 0.87948 0.25448 0.23156 0.0
O139 O 0.86762 0.2727 0.25602 0.0
Co140 Co 0.72172 0.89138 0.26697 0.0
O141 O 0.70165 0.91202 0.26792 0.0
O142 O 0.73432 0.91737 0.2696 0.0
C143 C 0.70971 0.874 0.24057 0.0
O144 O 0.74662 0.87383 0.26596 0.0
Co145 Co 0.70884 0.84723 0.27561 0.0
O146 O 0.73739 0.84155 0.26961 0.0
C147 C 0.71637 0.87455 0.30931 0.0
C148 C 0.71629 0.92475 0.26925 0.0
C149 C 0.75072 0.85499 0.26701 0.0
O150 O 0.72159 0.8884 0.297 0.0
O151 O 0.70881 0.85784 0.3037 0.0
O152 O 0.71985 0.89036 0.23787 0.0
O153 O 0.70465 0.87043 0.25892 0.0
Co154 Co 0.10881 0.73498 0.25341 0.0
O155 O 0.08121 0.72814 0.24871 0.0
O156 O 0.09215 0.75791 0.25863 0.0
C157 C 0.12237 0.72149 0.2257 0.0
O158 O 0.13585 0.74773 0.2592 0.0
Co159 Co 0.14005 0.7012 0.26046 0.0
O160 O 0.15941 0.72374 0.26173 0.0
C161 C 0.11518 0.71469 0.29418 0.0
C162 C 0.07713 0.74643 0.25395 0.0
C163 C 0.15408 0.74207 0.2619 0.0
O164 O 0.1066 0.72734 0.28249 0.0
O165 O 0.12789 0.70177 0.28794 0.0
O166 O 0.11337 0.73872 0.22488 0.0
O167 O 0.12007 0.71175 0.24229 0.0
Co168 Co 0.26043 0.88215 0.73846 0.0
O169 O 0.2713 0.90714 0.74735 0.0
O170 O 0.23916 0.90169 0.74058 0.0
C171 C 0.27579 0.86222 0.76088 0.0
O172 O 0.24418 0.85792 0.72951 0.0
Co173 Co 0.29054 0.85126 0.72051 0.0
O174 O 0.266 0.83462 0.71854 0.0
C175 C 0.27408 0.88269 0.69461 0.0
C176 C 0.25312 0.91387 0.74662 0.0
C177 C 0.24822 0.84056 0.72211 0.0
O178 O 0.26401 0.88957 0.70948 0.0
O179 O 0.28706 0.8687 0.69629 0.0
O180 O 0.25995 0.87231 0.76581 0.0
O181 O 0.28353 0.86694 0.74375 0.0
Co182 Co 0.10093 0.25416 0.73864 0.0
O183 O 0.07837 0.27163 0.7347 0.0
O184 O 0.07809 0.2386 0.73059 0.0
C185 C 0.11214 0.26643 0.76794 0.0
O186 O 0.12077 0.23141 0.74201 0.0
Co187 Co 0.14394 0.27189 0.73785 0.0
O188 O 0.15194 0.24405 0.74465 0.0
C189 C 0.12343 0.26434 0.69986 0.0
C190 C 0.06855 0.25554 0.7299 0.0
C191 C 0.13975 0.22934 0.74457 0.0
O192 O 0.10883 0.25647 0.7096 0.0
O193 O 0.13809 0.27322 0.70842 0.0
O194 O 0.09681 0.25445 0.76752 0.0
O195 O 0.11793 0.27301 0.75066 0.0
Co196 Co 0.74293 0.10912 0.75072 0.0
O197 O 0.72829 0.08471 0.75502 0.0
O198 O 0.76145 0.08719 0.75291 0.0
C199 C 0.72773 0.12893 0.77332 0.0
O200 O 0.76306 0.13148 0.74669 0.0
Co201 Co 0.7205 0.14631 0.73377 0.0
O202 O 0.74711 0.15944 0.73663 0.0
C203 C 0.73139 0.11359 0.70677 0.0
C204 C 0.74569 0.07606 0.75546 0.0
C205 C 0.76302 0.15002 0.74145 0.0
O206 O 0.74171 0.10546 0.72081 0.0
O207 O 0.71961 0.12842 0.70965 0.0
O208 O 0.74121 0.11612 0.77898 0.0
O209 O 0.72158 0.12682 0.75509 0.0
Co210 Co 0.89683 0.7425 0.74609 0.0
O211 O 0.92194 0.72814 0.74507 0.0
O212 O 0.91798 0.76039 0.73822 0.0
C213 C 0.88569 0.73068 0.7757 0.0
O214 O 0.87428 0.76279 0.74609 0.0
Co215 Co 0.85578 0.72082 0.74538 0.0
O216 O 0.84411 0.74808 0.74817 0.0
C217 C 0.8771 0.72792 0.70737 0.0
C218 C 0.92987 0.74507 0.73961 0.0
C219 C 0.85509 0.76366 0.7471 0.0
O220 O 0.89125 0.73679 0.71699 0.0
O221 O 0.86245 0.71917 0.71612 0.0
O222 O 0.89874 0.74509 0.77511 0.0
O223 O 0.88156 0.7224 0.7587 0.0
Co224 Co 0.26811 0.25398 0.11518 0.0
O225 O 0.2665 0.2699 0.0911 0.0
O226 O 0.27039 0.2369 0.09215 0.0
C227 C 0.2414 0.26717 0.13079 0.0
O228 O 0.26954 0.23226 0.13646 0.0
Co229 Co 0.2763 0.27279 0.15686 0.0
O230 O 0.27213 0.24525 0.16738 0.0
C231 C 0.30967 0.26721 0.12839 0.0
C232 C 0.26774 0.25299 0.08156 0.0
C233 C 0.27054 0.23032 0.1556 0.0
O234 O 0.29801 0.25756 0.11649 0.0
O235 O 0.3034 0.27613 0.14419 0.0
O236 O 0.23919 0.25372 0.11699 0.0
O237 O 0.25942 0.27388 0.13329 0.0
Co238 Co 0.25148 0.73119 0.88542 0.0
O239 O 0.24459 0.72213 0.91201 0.0
O240 O 0.25371 0.75303 0.9041 0.0
C241 C 0.22576 0.71752 0.86855 0.0
O242 O 0.25932 0.7462 0.86006 0.0
Co243 Co 0.26351 0.70004 0.85291 0.0
O244 O 0.26794 0.72411 0.83605 0.0
C245 C 0.294 0.71465 0.88109 0.0
C246 C 0.24828 0.74033 0.91782 0.0
C247 C 0.26581 0.74199 0.84238 0.0
O248 O 0.28052 0.72507 0.88996 0.0
O249 O 0.29009 0.70242 0.86686 0.0
O250 O 0.22341 0.73396 0.87862 0.0
O251 O 0.24262 0.70832 0.8713 0.0
Co252 Co 0.2446 0.25786 0.90406 0.0
O253 O 0.26023 0.25876 0.92824 0.0
O254 O 0.22727 0.26281 0.92658 0.0
C255 C 0.25742 0.2295 0.89105 0.0
O256 O 0.22364 0.25759 0.88196 0.0
Co257 Co 0.26668 0.26252 0.86317 0.0
O258 O 0.23921 0.25962 0.85207 0.0
C259 C 0.25913 0.298 0.8878 0.0
C260 C 0.24336 0.26153 0.93748 0.0
C261 C 0.22336 0.25847 0.86269 0.0
O262 O 0.24822 0.28747 0.89964 0.0
O263 O 0.26991 0.29042 0.8739 0.0
O264 O 0.24397 0.22874 0.90503 0.0
O265 O 0.26469 0.24711 0.88753 0.0
Co266 Co 0.76182 0.26235 0.89386 0.0
O267 O 0.76878 0.27185 0.92009 0.0
O268 O 0.75859 0.24102 0.91305 0.0
C269 C 0.78829 0.27443 0.87701 0.0
O270 O 0.75368 0.24728 0.86868 0.0
Co271 Co 0.75218 0.29352 0.86063 0.0
O272 O 0.74811 0.26934 0.84376 0.0
C273 C 0.72091 0.2826 0.8895 0.0
C274 C 0.76449 0.25396 0.92637 0.0
C275 C 0.7487 0.25149 0.85054 0.0
O276 O 0.73301 0.27014 0.89778 0.0
O277 O 0.72625 0.29485 0.87577 0.0
O278 O 0.78977 0.25793 0.88716 0.0
O279 O 0.77198 0.2845 0.87974 0.0
Co280 Co 0.74178 0.72943 0.90017 0.0
O281 O 0.72162 0.73207 0.92032 0.0
O282 O 0.75305 0.72324 0.92621 0.0
C283 C 0.73543 0.75848 0.88434 0.0
O284 O 0.76656 0.72605 0.88256 0.0
Co285 Co 0.72776 0.72592 0.85574 0.0
O286 O 0.75666 0.73109 0.85062 0.0
C287 C 0.7252 0.69085 0.88224 0.0
C288 C 0.73536 0.72751 0.93323 0.0
C289 C 0.77028 0.72868 0.86379 0.0
O290 O 0.73483 0.70041 0.89588 0.0
O291 O 0.719 0.69902 0.86604 0.0
O292 O 0.74618 0.75828 0.90052 0.0
O293 O 0.72688 0.7417 0.87988 0.0
Co294 Co 0.73721 0.73615 0.11309 0.0
O295 O 0.74105 0.72111 0.08876 0.0
O296 O 0.72775 0.75152 0.09071 0.0
C297 C 0.76739 0.73089 0.12682 0.0
O298 O 0.73157 0.75658 0.13498 0.0
Co299 Co 0.73672 0.71484 0.15434 0.0
O300 O 0.73401 0.74239 0.16542 0.0
C301 C 0.70106 0.71285 0.1289 0.0
C302 C 0.73314 0.7364 0.07971 0.0
C303 C 0.73108 0.75758 0.15424 0.0
O304 O 0.70958 0.72488 0.11657 0.0
O305 O 0.71005 0.70536 0.14407 0.0
O306 O 0.76513 0.74424 0.11286 0.0
O307 O 0.75209 0.71942 0.13008 0.0
Co308 Co 0.25482 0.74328 0.09733 0.0
O309 O 0.26806 0.75058 0.07291 0.0
O310 O 0.23663 0.74003 0.07491 0.0
C311 C 0.26457 0.76991 0.11562 0.0
O312 O 0.23632 0.73518 0.12024 0.0
Co313 Co 0.28163 0.73381 0.13454 0.0
O314 O 0.25533 0.72944 0.14765 0.0
C315 C 0.27381 0.70217 0.10486 0.0
C316 C 0.25134 0.74656 0.06392 0.0
C317 C 0.23844 0.7301 0.13874 0.0
O318 O 0.26303 0.71439 0.0946 0.0
O319 O 0.28408 0.70759 0.12012 0.0
O320 O 0.24974 0.77138 0.10316 0.0
O321 O 0.27466 0.75344 0.11454 0.0
Co322 Co 0.74223 0.24973 0.10295 0.0
O323 O 0.73426 0.24577 0.07566 0.0
O324 O 0.76532 0.25235 0.08566 0.0
C325 C 0.72628 0.22305 0.11597 0.0
O326 O 0.75575 0.25415 0.12995 0.0
Co327 Co 0.70888 0.25971 0.13411 0.0
O328 O 0.73184 0.26039 0.15296 0.0
C329 C 0.72585 0.29208 0.10964 0.0
C330 C 0.75295 0.24838 0.07115 0.0
C331 C 0.75015 0.25834 0.14795 0.0
O332 O 0.73761 0.27942 0.10119 0.0
O333 O 0.71193 0.287 0.1218 0.0
O334 O 0.74331 0.22095 0.1069 0.0
O335 O 0.71817 0.2406 0.11448 0.0
Co336 Co 0.59676 0.76717 0.74814 0.0
O337 O 0.571 0.7616 0.75973 0.0
O338 O 0.57588 0.77506 0.72976 0.0
C339 C 0.61177 0.73793 0.7555 0.0
O340 O 0.62115 0.77455 0.7313 0.0
Co341 Co 0.63353 0.76998 0.77678 0.0
O342 O 0.64817 0.77593 0.75158 0.0
C343 C 0.6071 0.80478 0.77246 0.0
C344 C 0.56341 0.76891 0.74342 0.0
C345 C 0.63993 0.77774 0.73444 0.0
O346 O 0.59678 0.79513 0.7594 0.0
O347 O 0.62105 0.79661 0.78276 0.0
O348 O 0.59977 0.73922 0.74026 0.0
O349 O 0.61191 0.7533 0.76726 0.0
Co350 Co 0.23905 0.60442 0.74673 0.0
O351 O 0.24147 0.5798 0.76152 0.0
O352 O 0.23841 0.5822 0.72846 0.0
C353 C 0.26433 0.62124 0.76119 0.0
O354 O 0.23668 0.62683 0.7263 0.0
Co355 Co 0.22693 0.64373 0.76839 0.0
O356 O 0.22998 0.65615 0.74148 0.0
C357 C 0.19622 0.61354 0.75966 0.0
C358 C 0.24071 0.57101 0.74419 0.0
C359 C 0.23339 0.64582 0.72579 0.0
O360 O 0.20909 0.60367 0.74934 0.0
O361 O 0.20084 0.62879 0.77033 0.0
O362 O 0.26785 0.60807 0.74736 0.0
O363 O 0.24606 0.62191 0.7677 0.0
Co364 Co 0.39651 0.23237 0.7644 0.0
O365 O 0.4172 0.23091 0.78431 0.0
O366 O 0.42193 0.22774 0.75152 0.0
C367 C 0.38096 0.26021 0.77523 0.0
O368 O 0.37866 0.2333 0.73973 0.0
Co369 Co 0.35242 0.22665 0.7787 0.0
O370 O 0.34652 0.23072 0.74982 0.0
C371 C 0.37881 0.19193 0.77589 0.0
C372 C 0.42945 0.22817 0.76948 0.0
C373 C 0.35973 0.23252 0.73612 0.0
O374 O 0.39173 0.20262 0.76648 0.0
O375 O 0.36333 0.19926 0.78443 0.0
O376 O 0.39728 0.26154 0.76477 0.0
O377 O 0.37651 0.24238 0.78131 0.0
Co378 Co 0.74212 0.40898 0.72291 0.0
O379 O 0.7418 0.43454 0.73586 0.0
O380 O 0.74541 0.42972 0.7031 0.0
C381 C 0.71571 0.39514 0.73856 0.0
O382 O 0.74252 0.38484 0.70451 0.0
Co383 Co 0.75149 0.37135 0.74871 0.0
O384 O 0.74706 0.35697 0.72299 0.0
C385 C 0.78442 0.39708 0.736 0.0
C386 C 0.74436 0.44207 0.71813 0.0
C387 C 0.74437 0.36574 0.70623 0.0
O388 O 0.77211 0.40715 0.72521 0.0
O389 O 0.77889 0.38366 0.74847 0.0
O390 O 0.71294 0.40757 0.72385 0.0
O391 O 0.73389 0.39407 0.74512 0.0
Co392 Co 0.59278 0.25583 0.24767 0.0
O393 O 0.56587 0.26371 0.24168 0.0
O394 O 0.57546 0.24942 0.27012 0.0
C395 C 0.60808 0.28408 0.23762 0.0
O396 O 0.61953 0.24648 0.25894 0.0
Co397 Co 0.62271 0.25118 0.2122 0.0
O398 O 0.6422 0.24568 0.23388 0.0
C399 C 0.59874 0.21646 0.22555 0.0
C400 C 0.56121 0.25715 0.25932 0.0
C401 C 0.63735 0.24337 0.2522 0.0
O402 O 0.58832 0.22804 0.23686 0.0
O403 O 0.61235 0.223 0.21373 0.0
O404 O 0.59961 0.28309 0.25506 0.0
O405 O 0.60452 0.26919 0.22573 0.0
Co406 Co 0.77003 0.60506 0.23367 0.0
O407 O 0.77113 0.58011 0.21907 0.0
O408 O 0.77857 0.58377 0.25122 0.0
C409 C 0.73984 0.6161 0.22335 0.0
O410 O 0.76958 0.62789 0.25385 0.0
Co411 Co 0.77042 0.64542 0.21027 0.0
O412 O 0.76495 0.6569 0.23711 0.0
C413 C 0.80859 0.62543 0.21888 0.0
C414 C 0.77664 0.57198 0.23585 0.0
C415 C 0.76668 0.64693 0.25326 0.0
O416 O 0.79896 0.61129 0.22772 0.0
O417 O 0.79988 0.63968 0.20949 0.0
O418 O 0.74128 0.60218 0.23684 0.0
O419 O 0.75641 0.62027 0.21412 0.0
Co420 Co 0.39717 0.75131 0.23614 0.0
O421 O 0.42461 0.74892 0.22781 0.0
O422 O 0.41459 0.75488 0.25895 0.0
C423 C 0.38516 0.72379 0.22075 0.0
O424 O 0.37023 0.75463 0.25019 0.0
Co425 Co 0.36473 0.75915 0.2035 0.0
O426 O 0.34636 0.75955 0.22682 0.0
C427 C 0.38862 0.79295 0.21872 0.0
C428 C 0.42921 0.75191 0.24645 0.0
C429 C 0.35196 0.75806 0.24501 0.0
O430 O 0.39755 0.78097 0.23084 0.0
O431 O 0.3762 0.78691 0.20541 0.0
O432 O 0.39461 0.72237 0.23764 0.0
O433 O 0.38567 0.74128 0.2124 0.0
Co434 Co 0.241 0.38683 0.22795 0.0
O435 O 0.24435 0.41201 0.21385 0.0
O436 O 0.24093 0.40853 0.2467 0.0
C437 C 0.26481 0.36822 0.21294 0.0
O438 O 0.23775 0.36443 0.24808 0.0
Co439 Co 0.22685 0.34793 0.20666 0.0
O440 O 0.22942 0.33526 0.23355 0.0
C441 C 0.19705 0.37817 0.21836 0.0
C442 C 0.24284 0.42036 0.2314 0.0
C443 C 0.2334 0.3457 0.24902 0.0
O444 O 0.21096 0.38885 0.22629 0.0
O445 O 0.2006 0.36241 0.20803 0.0
O446 O 0.26965 0.38123 0.22661 0.0
O447 O 0.24653 0.36928 0.20667 0.0
Co448 Co 0.75807 0.61752 0.74956 0.0
O449 O 0.77533 0.5954 0.74306 0.0
O450 O 0.74209 0.59421 0.7444 0.0
C451 C 0.77243 0.64075 0.72996 0.0
O452 O 0.73534 0.63711 0.75439 0.0
Co453 Co 0.77441 0.65532 0.77113 0.0
O454 O 0.74728 0.66646 0.76579 0.0
C455 C 0.76685 0.61875 0.79436 0.0
C456 C 0.75893 0.58515 0.74086 0.0
C457 C 0.73291 0.65548 0.75965 0.0
O458 O 0.75862 0.61067 0.77895 0.0
O459 O 0.77617 0.63549 0.79362 0.0
O460 O 0.76036 0.62754 0.72233 0.0
O461 O 0.77757 0.63768 0.74837 0.0
Co462 Co 0.38372 0.7689 0.7588 0.0
O463 O 0.40543 0.78748 0.75598 0.0
O464 O 0.40904 0.7548 0.76043 0.0
C465 C 0.3656 0.78002 0.73273 0.0
O466 O 0.36441 0.74535 0.76143 0.0
Co467 Co 0.34146 0.78581 0.7694 0.0
O468 O 0.33326 0.75746 0.76609 0.0
C469 C 0.37086 0.7792 0.80159 0.0
C470 C 0.41729 0.77216 0.75718 0.0
C471 C 0.34538 0.74291 0.76375 0.0
O472 O 0.38334 0.7721 0.78877 0.0
O473 O 0.35417 0.78721 0.7966 0.0
O474 O 0.38068 0.76815 0.72991 0.0
O475 O 0.36352 0.78681 0.75075 0.0
Co476 Co 0.24665 0.39173 0.75075 0.0
O477 O 0.23255 0.4166 0.74708 0.0
O478 O 0.2645 0.41369 0.75594 0.0
C479 C 0.23686 0.37661 0.72225 0.0
O480 O 0.26638 0.36916 0.75552 0.0
Co481 Co 0.22354 0.35174 0.75593 0.0
O482 O 0.25063 0.33945 0.75707 0.0
C483 C 0.22739 0.37914 0.79028 0.0
C484 C 0.24946 0.42516 0.75144 0.0
C485 C 0.26654 0.35001 0.75753 0.0
O486 O 0.2387 0.3907 0.77982 0.0
O487 O 0.21827 0.36398 0.78288 0.0
O488 O 0.25137 0.38949 0.72212 0.0
O489 O 0.2272 0.375 0.73898 0.0
Co490 Co 0.60776 0.24142 0.76753 0.0
O491 O 0.58735 0.22194 0.77321 0.0
O492 O 0.58282 0.25491 0.77275 0.0
C493 C 0.62072 0.22713 0.73985 0.0
O494 O 0.62509 0.26583 0.76196 0.0
Co495 Co 0.65248 0.22843 0.77042 0.0
O496 O 0.65752 0.2565 0.76197 0.0
C497 C 0.62979 0.23591 0.80725 0.0
C498 C 0.57532 0.23709 0.77505 0.0
C499 C 0.64387 0.26972 0.76006 0.0
O500 O 0.61521 0.24291 0.79681 0.0
O501 O 0.64497 0.22718 0.79946 0.0
O502 O 0.60432 0.23748 0.73881 0.0
O503 O 0.62697 0.22338 0.75779 0.0
Co504 Co 0.76503 0.3918 0.24023 0.0
O505 O 0.78563 0.41186 0.24203 0.0
O506 O 0.75367 0.41816 0.23587 0.0
C507 C 0.77346 0.37425 0.26795 0.0
O508 O 0.73967 0.37499 0.23801 0.0
Co509 Co 0.77676 0.3469 0.2343 0.0
O510 O 0.74809 0.34243 0.24102 0.0
C511 C 0.7758 0.37406 0.19945 0.0
C512 C 0.7717 0.42499 0.23876 0.0
C513 C 0.73507 0.35634 0.23983 0.0
O514 O 0.76923 0.38846 0.21047 0.0
O515 O 0.78153 0.35717 0.20651 0.0
O516 O 0.76313 0.39066 0.26949 0.0
O517 O 0.78042 0.3706 0.2503 0.0
Co518 Co 0.60816 0.7502 0.25044 0.0
O519 O 0.58349 0.76471 0.25333 0.0
O520 O 0.58639 0.7316 0.2545 0.0
C521 C 0.62721 0.7684 0.27146 0.0
O522 O 0.63114 0.73026 0.24804 0.0
Co523 Co 0.64493 0.77185 0.23153 0.0
O524 O 0.65866 0.74587 0.23629 0.0
C525 C 0.6129 0.75662 0.20544 0.0
C526 C 0.57498 0.74735 0.25538 0.0
C527 C 0.64962 0.73018 0.24241 0.0
O528 O 0.60431 0.7485 0.22062 0.0
O529 O 0.62783 0.76855 0.20704 0.0
O530 O 0.61506 0.75488 0.27837 0.0
O531 O 0.62521 0.77243 0.25264 0.0
Co532 Co 0.24291 0.60127 0.22881 0.0
O533 O 0.22509 0.57913 0.23289 0.0
O534 O 0.25685 0.57628 0.22372 0.0
C535 C 0.23537 0.61814 0.25713 0.0
O536 O 0.2657 0.62091 0.22393 0.0
Co537 Co 0.22456 0.64381 0.22292 0.0
O538 O 0.25311 0.65218 0.22223 0.0
C539 C 0.22656 0.61622 0.18874 0.0
C540 C 0.24012 0.56759 0.22864 0.0
C541 C 0.26781 0.63998 0.22182 0.0
O542 O 0.2358 0.60331 0.1996 0.0
O543 O 0.21886 0.63231 0.19573 0.0
O544 O 0.24761 0.60306 0.25752 0.0
O545 O 0.22612 0.62077 0.24032 0.0
Co546 Co 0.38639 0.23578 0.24988 0.0
O547 O 0.41161 0.22626 0.2602 0.0
O548 O 0.40467 0.25788 0.25289 0.0
C549 C 0.36537 0.21986 0.27084 0.0
O550 O 0.36219 0.25115 0.23935 0.0
Co551 Co 0.35735 0.20522 0.22999 0.0
O552 O 0.33998 0.22916 0.22661 0.0
C553 C 0.3914 0.22024 0.20695 0.0
C554 C 0.41754 0.24478 0.25936 0.0
C555 C 0.34538 0.24701 0.23079 0.0
O556 O 0.39577 0.23207 0.22149 0.0
O557 O 0.37813 0.20648 0.20836 0.0
O558 O 0.37474 0.23592 0.27656 0.0
O559 O 0.37162 0.21222 0.25417 0.0
Co560 Co 0.75165 0.7716 0.60582 0.0
O561 O 0.74996 0.77975 0.57832 0.0
O562 O 0.75258 0.74825 0.58884 0.0
C563 C 0.72626 0.78975 0.61859 0.0
O564 O 0.75366 0.75784 0.63282 0.0
Co565 Co 0.76353 0.80371 0.63758 0.0
O566 O 0.76001 0.78104 0.65649 0.0
C567 C 0.79511 0.78327 0.61481 0.0
C568 C 0.75094 0.76082 0.57407 0.0
C569 C 0.75703 0.76296 0.6511 0.0
O570 O 0.78175 0.77306 0.60546 0.0
O571 O 0.79093 0.79759 0.62685 0.0
O572 O 0.72276 0.77334 0.6088 0.0
O573 O 0.74443 0.79639 0.61714 0.0
Co574 Co 0.75541 0.22247 0.3819 0.0
O575 O 0.7497 0.20357 0.4028 0.0
O576 O 0.75567 0.23593 0.40747 0.0
C577 C 0.73095 0.21335 0.36068 0.0
O578 O 0.7608 0.24649 0.36381 0.0
Co579 Co 0.76906 0.20702 0.34025 0.0
O580 O 0.76617 0.23556 0.33237 0.0
C581 C 0.79813 0.20846 0.37318 0.0
C582 C 0.75118 0.21855 0.41507 0.0
C583 C 0.76386 0.24968 0.34502 0.0
O584 O 0.78511 0.2174 0.3842 0.0
O585 O 0.79389 0.20106 0.35601 0.0
O586 O 0.72698 0.22486 0.37584 0.0
O587 O 0.74865 0.20558 0.3606 0.0
Co588 Co 0.76078 0.75129 0.39577 0.0
O589 O 0.7722 0.74469 0.42137 0.0
O590 O 0.74144 0.75639 0.41651 0.0
C591 C 0.76847 0.72388 0.37812 0.0
O592 O 0.744 0.75946 0.3716 0.0
Co593 Co 0.78978 0.75839 0.36007 0.0
O594 O 0.7646 0.76281 0.34502 0.0
C595 C 0.78073 0.79171 0.38714 0.0
C596 C 0.75506 0.75002 0.42886 0.0
C597 C 0.74726 0.76346 0.35299 0.0
O598 O 0.77032 0.77971 0.39796 0.0
O599 O 0.79104 0.78593 0.37208 0.0
O600 O 0.75397 0.72365 0.39102 0.0
O601 O 0.78059 0.73902 0.37963 0.0
Co602 Co 0.24127 0.76112 0.38271 0.0
O603 O 0.24496 0.77919 0.40473 0.0
O604 O 0.24224 0.74621 0.4076 0.0
C605 C 0.26464 0.77393 0.36202 0.0
O606 O 0.2381 0.73811 0.36297 0.0
Co607 Co 0.22569 0.77873 0.34235 0.0
O608 O 0.2298 0.75081 0.33279 0.0
C609 C 0.19722 0.77097 0.3747 0.0
C610 C 0.24475 0.76353 0.41619 0.0
C611 C 0.23406 0.73608 0.3442 0.0
O612 O 0.21121 0.76266 0.385 0.0
O613 O 0.20046 0.78066 0.3585 0.0
O614 O 0.26988 0.76202 0.37648 0.0
O615 O 0.24627 0.77993 0.36261 0.0
Co616 Co 0.22491 0.23799 0.38423 0.0
O617 O 0.21561 0.24237 0.4113 0.0
O618 O 0.24555 0.23073 0.40274 0.0
C619 C 0.21507 0.26677 0.37018 0.0
O620 O 0.24036 0.23211 0.35871 0.0
Co621 Co 0.19521 0.23306 0.34895 0.0
O622 O 0.21964 0.2295 0.3323 0.0
C623 C 0.20253 0.19887 0.3753 0.0
C624 C 0.23307 0.23567 0.41679 0.0
C625 C 0.23711 0.22917 0.33996 0.0
O626 O 0.21525 0.20963 0.38483 0.0
O627 O 0.19149 0.20581 0.36127 0.0
O628 O 0.23099 0.26609 0.38131 0.0
O629 O 0.20391 0.25085 0.3704 0.0
Co630 Co 0.25466 0.23562 0.59586 0.0
O631 O 0.25686 0.21756 0.57367 0.0
O632 O 0.24864 0.24967 0.57127 0.0
C633 C 0.28335 0.22709 0.61155 0.0
O634 O 0.25151 0.25861 0.61551 0.0
Co635 Co 0.25051 0.21801 0.63894 0.0
O636 O 0.25482 0.24643 0.64683 0.0
C637 C 0.21506 0.22036 0.61296 0.0
C638 C 0.25218 0.23268 0.56241 0.0
C639 C 0.25286 0.26096 0.63459 0.0
O640 O 0.22536 0.22945 0.59948 0.0
O641 O 0.22272 0.21275 0.62879 0.0
O642 O 0.28374 0.23922 0.59635 0.0
O643 O 0.2663 0.21856 0.61479 0.0
Co644 Co 0.74298 0.23071 0.59389 0.0
O645 O 0.75674 0.23086 0.5687 0.0
O646 O 0.72587 0.21948 0.57345 0.0
C647 C 0.7504 0.26217 0.60321 0.0
O648 O 0.72388 0.22908 0.61764 0.0
Co649 Co 0.76782 0.23463 0.63307 0.0
O650 O 0.741 0.23622 0.6458 0.0
C651 C 0.76531 0.1955 0.61316 0.0
C652 C 0.7406 0.22308 0.5612 0.0
C653 C 0.72472 0.23219 0.63668 0.0
O654 O 0.75321 0.20309 0.60027 0.0
O655 O 0.77425 0.20601 0.62647 0.0
O656 O 0.73607 0.25879 0.59052 0.0
O657 O 0.76143 0.24685 0.60759 0.0
Co658 Co 0.23566 0.76373 0.59629 0.0
O659 O 0.22302 0.76157 0.57032 0.0
O660 O 0.25444 0.7709 0.5757 0.0
C661 C 0.22544 0.73446 0.60945 0.0
O662 O 0.25428 0.76693 0.62011 0.0
Co663 Co 0.21096 0.76684 0.63556 0.0
O664 O 0.23738 0.76532 0.64917 0.0
C665 C 0.21771 0.80315 0.6114 0.0
C666 C 0.24018 0.7672 0.56302 0.0
C667 C 0.25368 0.76679 0.63937 0.0
O668 O 0.2279 0.79272 0.59884 0.0
O669 O 0.20844 0.79536 0.62628 0.0
O670 O 0.24014 0.73504 0.59674 0.0
O671 O 0.21559 0.75104 0.6116 0.0
H672 H 0.95173 0.23404 0.27129 0.0
H673 H 0.93742 0.27888 0.22661 0.0
H674 H 0.97343 0.28372 0.21973 0.0
H675 H 0.99311 0.26055 0.29146 0.0
H676 H 0.00801 0.23864 0.29655 0.0
H677 H 0.98111 0.23688 0.29643 0.0
H678 H 0.98288 0.20868 0.26983 0.0
H679 H 0.00981 0.21027 0.26996 0.0
H680 H 0.99626 0.21299 0.24679 0.0
H681 H 0.01076 0.28417 0.21805 0.0
H682 H 0.04732 0.28191 0.22333 0.0
H683 H 0.03768 0.23901 0.27116 0.0
C684 C 0.95627 0.24455 0.2598 0.0
C685 C 0.94194 0.2559 0.24923 0.0
C686 C 0.94828 0.26998 0.23473 0.0
C687 C 0.96865 0.27279 0.2307 0.0
C688 C 0.98249 0.26164 0.24157 0.0
C689 C 0.97663 0.24792 0.25595 0.0
C690 C 0.99464 0.23913 0.2666 0.0
C691 C 0.99418 0.24411 0.28909 0.0
C692 C 0.99597 0.21642 0.26308 0.0
C693 C 0.01145 0.25014 0.25604 0.0
C694 C 0.00411 0.26279 0.24142 0.0
C695 C 0.01672 0.27435 0.22947 0.0
C696 C 0.03743 0.27298 0.23257 0.0
C697 C 0.04525 0.26043 0.24774 0.0
C698 C 0.03206 0.24889 0.2596 0.0
H699 H 0.74353 0.95541 0.274 0.0
H700 H 0.6803 0.94348 0.26471 0.0
H701 H 0.6737 0.97975 0.26305 0.0
H702 H 0.73692 -0.00049 0.30535 0.0
H703 H 0.75811 0.01248 0.29479 0.0
H704 H 0.75787 0.98552 0.29566 0.0
H705 H 0.76385 0.9842 0.25736 0.0
H706 H 0.76403 0.01115 0.25635 0.0
H707 H 0.74692 0.99719 0.24085 0.0
H708 H 0.67422 0.01713 0.2598 0.0
H709 H 0.68163 0.05349 0.25809 0.0
H710 H 0.7439 0.04153 0.27168 0.0
C711 C 0.72828 0.96044 0.27178 0.0
C712 C 0.71244 0.94659 0.26944 0.0
C713 C 0.69269 0.95378 0.26654 0.0
C714 C 0.68878 0.97437 0.26554 0.0
C715 C 0.70473 0.98763 0.26765 0.0
C716 C 0.72406 0.981 0.27092 0.0
C717 C 0.7385 -0.00155 0.27258 0.0
C718 C 0.74843 -0.00098 0.29333 0.0
C719 C 0.75425 0.99769 0.25578 0.0
C720 C 0.72426 0.01589 0.26971 0.0
C721 C 0.70488 0.00928 0.26664 0.0
C722 C 0.68927 0.02251 0.26246 0.0
C723 C 0.69358 0.04305 0.26146 0.0
C724 C 0.7132 0.05008 0.26501 0.0
C725 C 0.7287 0.03639 0.26927 0.0
H726 H 0.04408 0.73088 0.23544 0.0
H727 H 0.06319 0.77749 0.27647 0.0
H728 H 0.02791 0.78735 0.28166 0.0
H729 H 0.00301 0.7599 0.21282 0.0
H730 H 0.9871 0.73824 0.21029 0.0
H731 H 0.01392 0.73549 0.20915 0.0
H732 H 0.01243 0.7094 0.23783 0.0
H733 H 0.98566 0.71215 0.23915 0.0
H734 H 0.00069 0.71607 0.26121 0.0
H735 H 0.99067 0.78955 0.28521 0.0
H736 H 0.95381 0.78645 0.28417 0.0
H737 H 0.95883 0.74035 0.23873 0.0
C738 C 0.04082 0.74331 0.24533 0.0
C739 C 0.05628 0.75342 0.25561 0.0
C740 C 0.05153 0.76964 0.26839 0.0
C741 C 0.03155 0.7753 0.27146 0.0
C742 C 0.01661 0.76483 0.26133 0.0
C743 C 0.021 0.74942 0.24825 0.0
C744 C 0.00212 0.74053 0.23933 0.0
C745 C 0.00151 0.74374 0.21655 0.0
C746 C 0.00012 0.71822 0.24471 0.0
C747 C 0.9864 0.75302 0.24984 0.0
C748 C 0.9951 0.76685 0.26257 0.0
C749 C 0.98368 0.77906 0.27502 0.0
C750 C 0.9628 0.77713 0.27441 0.0
C751 C 0.95361 0.76335 0.26121 0.0
C752 C 0.96555 0.75128 0.24865 0.0
H753 H 0.27343 0.94432 0.24922 0.0
H754 H 0.23334 0.93127 0.29859 0.0
H755 H 0.22426 0.96712 0.30075 0.0
H756 H 0.29203 0.99053 0.27026 0.0
H757 H 0.29433 0.00283 0.24635 0.0
H758 H 0.29674 0.97603 0.24798 0.0
H759 H 0.26858 0.97189 0.22161 0.0
H760 H 0.26598 -0.00131 0.22 0.0
H761 H 0.24455 0.9834 0.22595 0.0
H762 H 0.21822 0.00399 0.29623 0.0
H763 H 0.21951 0.04032 0.28896 0.0
H764 H 0.26633 0.02995 0.2452 0.0
C765 C 0.26271 0.94908 0.26042 0.0
C766 C 0.2539 0.93515 0.27363 0.0
C767 C 0.24022 0.94182 0.28836 0.0
C768 C 0.2349 0.96208 0.28961 0.0
C769 C 0.24375 0.97548 0.27629 0.0
C770 C 0.25768 0.96934 0.26226 0.0
C771 C 0.26593 0.98698 0.25063 0.0
C772 C 0.2886 0.98922 0.25402 0.0
C773 C 0.26096 0.98512 0.22822 0.0
C774 C 0.25439 0.00397 0.26025 0.0
C775 C 0.24136 0.99695 0.27472 0.0
C776 C 0.22851 0.0097 0.28509 0.0
C777 C 0.22926 0.03024 0.28081 0.0
C778 C 0.24309 0.03778 0.26665 0.0
C779 C 0.25576 0.02448 0.25623 0.0
H780 H 0.96109 0.72278 0.7543 0.0
H781 H 0.94689 0.77138 0.71364 0.0
H782 H 0.98261 0.77413 0.70439 0.0
H783 H 0.00739 0.74445 0.77219 0.0
H784 H 0.02003 0.72071 0.77436 0.0
H785 H 0.99325 0.722 0.77722 0.0
H786 H 0.98891 0.69551 0.74921 0.0
H787 H 0.01568 0.69416 0.74625 0.0
H788 H 4e-05 0.69986 0.72501 0.0
H789 H 0.01943 0.7704 0.69824 0.0
H790 H 0.0557 0.76295 0.6983 0.0
H791 H 0.04665 0.71901 0.74525 0.0
C792 C 0.96555 0.73394 0.74341 0.0
C793 C 0.95129 0.74679 0.73454 0.0
C794 C 0.95763 0.76142 0.72059 0.0
C795 C 0.97785 0.76304 0.7152 0.0
C796 C 0.99156 0.75015 0.72418 0.0
C797 C 0.98576 0.73608 0.73822 0.0
C798 C 0.00367 0.72467 0.74623 0.0
C799 C 0.00623 0.72818 0.76884 0.0
C800 C 0.00197 0.70222 0.74138 0.0
C801 C 0.0204 0.73443 0.7344 0.0
C802 C 0.01302 0.74887 0.72155 0.0
C803 C 0.02543 0.75929 0.7084 0.0
C804 C 0.04595 0.75492 0.70849 0.0
C805 C 0.05388 0.74059 0.72191 0.0
C806 C 0.04094 0.73027 0.73506 0.0
H807 H 0.24438 0.03133 0.73284 0.0
H808 H 0.25392 0.03659 0.79692 0.0
H809 H 0.25285 -0.00025 0.80003 0.0
H810 H 0.21041 0.98898 0.73441 0.0
H811 H 0.22073 0.97753 0.71225 0.0
H812 H 0.2214 0.00435 0.71512 0.0
H813 H 0.25989 0.00416 0.71014 0.0
H814 H 0.2593 0.97739 0.70706 0.0
H815 H 0.27518 0.98845 0.72587 0.0
H816 H 0.25271 0.96256 0.79592 0.0
H817 H 0.25445 0.92729 0.78461 0.0
H818 H 0.24402 0.94614 0.72347 0.0
C819 C 0.24615 0.02475 0.74755 0.0
C820 C 0.2492 0.0368 0.76466 0.0
C821 C 0.25159 0.02763 0.78362 0.0
C822 C 0.2509 0.00673 0.78554 0.0
C823 C 0.24778 0.99529 0.76838 0.0
C824 C 0.2455 0.00395 0.74973 0.0
C825 C 0.24322 0.98824 0.73354 0.0
C826 C 0.22271 0.98988 0.72323 0.0
C827 C 0.26042 0.98964 0.71826 0.0
C828 C 0.24471 0.96936 0.74597 0.0
C829 C 0.24728 0.97379 0.76605 0.0
C830 C 0.25038 0.95889 0.78031 0.0
C831 C 0.25128 0.93897 0.77381 0.0
C832 C 0.24884 0.93423 0.75335 0.0
C833 C 0.24525 0.94951 0.73929 0.0
H834 H 0.03899 0.27952 0.74462 0.0
H835 H 0.05123 0.23364 0.70038 0.0
H836 H 0.01618 0.23566 0.68853 0.0
H837 H 0.99117 0.26036 0.75792 0.0
H838 H 0.98009 0.28458 0.76227 0.0
H839 H 0.00659 0.28114 0.76566 0.0
H840 H 0.01351 0.31005 0.7407 0.0
H841 H 0.98698 0.31345 0.7371 0.0
H842 H 0.003 0.30894 0.71586 0.0
H843 H 0.98009 0.24247 0.68175 0.0
H844 H 0.94394 0.24959 0.68367 0.0
H845 H 0.95432 0.28891 0.73438 0.0
C846 C 0.03426 0.27011 0.73229 0.0
C847 C 0.04767 0.25659 0.72318 0.0
C848 C 0.04104 0.24409 0.70745 0.0
C849 C 0.02127 0.24526 0.70055 0.0
C850 C 0.00834 0.25876 0.70982 0.0
C851 C 0.01444 0.2707 0.72559 0.0
C852 C 0.99706 0.2824 0.73427 0.0
C853 C 0.99352 0.27678 0.75633 0.0
C854 C 0.00034 0.30506 0.73182 0.0
C855 C 0.98021 0.27504 0.72101 0.0
C856 C 0.98717 0.26179 0.70671 0.0
C857 C 0.97444 0.25281 0.69287 0.0
C858 C 0.95395 0.25703 0.69404 0.0
C859 C 0.94637 0.26977 0.70919 0.0
C860 C 0.95974 0.27915 0.72262 0.0
H861 H 0.7315 0.04573 0.73235 0.0
H862 H 0.76392 0.05848 0.78706 0.0
H863 H 0.76551 0.02217 0.79464 0.0
H864 H 0.7027 0.00398 0.74969 0.0
H865 H 0.70522 0.98979 0.72687 0.0
H866 H 0.70598 0.01674 0.72612 0.0
H867 H 0.74048 0.01549 0.70838 0.0
H868 H 0.73975 0.98853 0.70894 0.0
H869 H 0.76071 0.00168 0.71971 0.0
H870 H 0.7617 0.98492 0.79706 0.0
H871 H 0.75727 0.94853 0.79199 0.0
H872 H 0.73049 0.95978 0.73391 0.0
C873 C 0.73891 0.04075 0.74589 0.0
C874 C 0.74745 0.0546 0.7593 0.0
C875 C 0.75731 0.04786 0.77673 0.0
C876 C 0.75819 0.02737 0.78115 0.0
C877 C 0.7495 0.01397 0.7677 0.0
C878 C 0.74043 0.02033 0.75022 0.0
C879 C 0.73329 0.00278 0.73777 0.0
C880 C 0.71044 0.00337 0.73496 0.0
C881 C 0.74421 0.00208 0.7175 0.0
C882 C 0.73952 0.98557 0.75112 0.0
C883 C 0.74854 0.99239 0.76846 0.0
C884 C 0.75486 0.97937 0.78346 0.0
C885 C 0.75219 0.95878 0.7805 0.0
C886 C 0.74366 0.95149 0.76254 0.0
C887 C 0.73721 0.96504 0.7477 0.0
H888 H 0.28368 0.27345 0.04955 0.0
H889 H 0.23881 0.22962 0.06628 0.0
H890 H 0.22606 0.22921 0.03156 0.0
H891 H 0.25493 0.30081 0.01328 0.0
H892 H 0.27524 0.30377 0.99576 0.0
H893 H 0.28041 0.30155 0.02214 0.0
H894 H 0.30386 0.2714 0.01532 0.0
H895 H 0.299 0.27374 0.9889 0.0
H896 H 0.29452 0.25024 0.00139 0.0
H897 H 0.2167 0.2353 0.99596 0.0
H898 H 0.21568 0.24186 0.95954 0.0
H899 H 0.26922 0.27826 0.96453 0.0
C900 C 0.27126 0.26373 0.04575 0.0
C901 C 0.2621 0.2516 0.0604 0.0
C902 C 0.24602 0.23889 0.05508 0.0
C903 C 0.23858 0.23871 0.03551 0.0
C904 C 0.24772 0.251 0.02138 0.0
C905 C 0.26408 0.26283 0.02604 0.0
C906 C 0.27204 0.27337 0.00758 0.0
C907 C 0.27056 0.29623 0.00984 0.0
C908 C 0.29363 0.26678 0.00303 0.0
C909 C 0.25752 0.26568 0.99191 0.0
C910 C 0.2433 0.25324 0.00034 0.0
C911 C 0.22786 0.24485 0.9891 0.0
C912 C 0.22729 0.24878 0.96852 0.0
C913 C 0.24237 0.2605 0.95941 0.0
C914 C 0.25756 0.26921 0.97125 0.0
H915 H 0.23354 0.71834 0.94936 0.0
H916 H 0.26128 0.77525 0.93454 0.0
H917 H 0.26239 0.78402 0.97038 0.0
H918 H 0.20305 0.73751 0.99163 0.0
H919 H 0.20638 0.715 0.00614 0.0
H920 H 0.20626 0.71377 0.97917 0.0
H921 H 0.24094 0.69643 0.97977 0.0
H922 H 0.24121 0.69765 0.00668 0.0
H923 H 0.26151 0.7084 0.99252 0.0
H924 H 0.26439 0.78489 0.00747 0.0
H925 H 0.265 0.77886 0.04393 0.0
H926 H 0.23393 0.72251 0.03536 0.0
C927 C 0.23957 0.73277 0.95365 0.0
C928 C 0.24735 0.74612 0.93916 0.0
C929 C 0.25518 0.76482 0.94536 0.0
C930 C 0.25587 0.76994 0.96569 0.0
C931 C 0.24839 0.75633 0.97961 0.0
C932 C 0.24014 0.73824 0.9739 0.0
C933 C 0.23382 0.72605 0.99202 0.0
C934 C 0.21102 0.7229 0.99225 0.0
C935 C 0.24505 0.70595 0.99279 0.0
C936 C 0.24039 0.73987 0.0088 0.0
C937 C 0.24875 0.75725 0.00123 0.0
C938 C 0.2575 0.77157 0.0136 0.0
C939 C 0.25785 0.76798 0.03424 0.0
C940 C 0.24926 0.7504 0.04233 0.0
C941 C 0.24014 0.7363 0.0295 0.0
H942 H 0.76645 0.2799 0.95785 0.0
H943 H 0.765 0.2166 0.94323 0.0
H944 H 0.76599 0.20833 0.97932 0.0
H945 H 0.79877 0.2767 0.00216 0.0
H946 H 0.78477 0.29548 0.01557 0.0
H947 H 0.78616 0.29637 0.98864 0.0
H948 H 0.74741 0.29629 0.9865 0.0
H949 H 0.74591 0.2955 0.01337 0.0
H950 H 0.73353 0.27658 -0.00136 0.0
H951 H 0.76433 0.20705 0.01672 0.0
H952 H 0.7585 0.21288 0.05287 0.0
H953 H 0.76077 0.27693 0.04315 0.0
C954 C 0.76671 0.26428 0.96223 0.0
C955 C 0.76583 0.24885 0.9478 0.0
C956 C 0.76572 0.22863 0.95409 0.0
C957 C 0.76639 0.2238 0.97452 0.0
C958 C 0.76709 0.2394 0.98839 0.0
C959 C 0.76715 0.25924 0.98252 0.0
C960 C 0.76617 0.27318 0.00038 0.0
C961 C 0.7851 0.2862 0.00176 0.0
C962 C 0.74712 0.28614 -0.00032 0.0
C963 C 0.76529 0.25809 0.01725 0.0
C964 C 0.76605 0.23868 0.01001 0.0
C965 C 0.76407 0.22215 0.02259 0.0
C966 C 0.76083 0.22557 0.04303 0.0
C967 C 0.75971 0.24529 0.05057 0.0
C968 C 0.76222 0.26174 0.03765 0.0
H969 H 0.75756 0.71282 0.96491 0.0
H970 H 0.7036 0.74605 0.95035 0.0
H971 H 0.69706 0.75135 0.98616 0.0
H972 H 0.73656 0.68811 0.00934 0.0
H973 H 0.75974 0.68931 0.02311 0.0
H974 H 0.76013 0.68765 0.99619 0.0
H975 H 0.7817 0.71987 0.99454 0.0
H976 H 0.78127 0.72169 0.02144 0.0
H977 H 0.77277 0.74242 0.0064 0.0
H978 H 0.69771 0.75573 0.02297 0.0
H979 H 0.70364 0.75566 0.05948 0.0
H980 H 0.75552 0.71752 0.051 0.0
C981 C 0.7443 0.72104 0.96932 0.0
C982 C 0.73112 0.72905 0.95485 0.0
C983 C 0.71387 0.73969 0.96116 0.0
C984 C 0.71004 0.74285 0.98148 0.0
C985 C 0.7234 0.73502 0.99536 0.0
C986 C 0.74 0.72404 0.98965 0.0
C987 C 0.75179 0.71717 0.00779 0.0
C988 C 0.75206 0.69419 0.00919 0.0
C989 C 0.77314 0.72581 0.00752 0.0
C990 C 0.73938 0.72632 0.02446 0.0
C991 C 0.72318 0.7367 0.01688 0.0
C992 C 0.71016 0.7474 0.02916 0.0
C993 C 0.71369 0.74737 0.04981 0.0
C994 C 0.72989 0.73645 0.05794 0.0
C995 C 0.74284 0.72573 0.04512 0.0
H996 H 0.53419 0.7468 0.76163 0.0
H997 H 0.54348 0.79619 0.72048 0.0
H998 H 0.50694 0.80212 0.71945 0.0
H999 H 0.48789 0.72873 0.7379 0.0
H1000 H 0.4768 0.72156 0.76143 0.0
H1001 H 0.5036 0.7209 0.7584 0.0
H1002 H 0.50757 0.74403 0.7893 0.0
H1003 H 0.48079 0.74495 0.79229 0.0
H1004 H 0.49486 0.76785 0.78976 0.0
H1005 H 0.4701 0.80471 0.72556 0.0
H1006 H 0.43451 0.80114 0.73464 0.0
H1007 H 0.44854 0.74831 0.76976 0.0
C1008 C 0.52848 0.75873 0.75225 0.0
C1009 C 0.54157 0.77113 0.74118 0.0
C1010 C 0.53364 0.7865 0.72897 0.0
C1011 C 0.51295 0.79002 0.72838 0.0
C1012 C 0.50046 0.77776 0.73977 0.0
C1013 C 0.50785 0.76216 0.75114 0.0
C1014 C 0.49113 0.75105 0.76178 0.0
C1015 C 0.48978 0.72927 0.75443 0.0
C1016 C 0.49375 0.75204 0.78464 0.0
C1017 C 0.47321 0.76317 0.75499 0.0
C1018 C 0.479 0.77861 0.74246 0.0
C1019 C 0.46535 0.79251 0.73511 0.0
C1020 C 0.4452 0.79043 0.74048 0.0
C1021 C 0.43882 0.77441 0.75283 0.0
C1022 C 0.45302 0.76058 0.76014 0.0
H1023 H 0.2256 0.45465 0.76672 0.0
H1024 H 0.27887 0.44412 0.73118 0.0
H1025 H 0.28177 0.48048 0.7246 0.0
H1026 H 0.20494 0.49476 0.73848 0.0
H1027 H 0.19687 0.50908 0.75988 0.0
H1028 H 0.19865 0.48222 0.76154 0.0
H1029 H 0.22239 0.48543 0.79206 0.0
H1030 H 0.2205 0.5123 0.79064 0.0
H1031 H 0.24473 0.50044 0.78997 0.0
H1032 H 0.27696 0.51724 0.7194 0.0
H1033 H 0.26855 0.55331 0.72089 0.0
H1034 H 0.22114 0.54064 0.76335 0.0
C1035 C 0.23791 0.46013 0.75769 0.0
C1036 C 0.25199 0.44683 0.74931 0.0
C1037 C 0.26805 0.45427 0.73774 0.0
C1038 C 0.26972 0.4748 0.73383 0.0
C1039 C 0.25548 0.4876 0.74209 0.0
C1040 C 0.2402 0.48066 0.75422 0.0
C1041 C 0.22755 0.49776 0.76211 0.0
C1042 C 0.20571 0.49583 0.75507 0.0
C1043 C 0.22888 0.49906 0.78506 0.0
C1044 C 0.2379 0.51533 0.7522 0.0
C1045 C 0.25372 0.50907 0.74041 0.0
C1046 C 0.26484 0.52239 0.72883 0.0
C1047 C 0.2599 0.54275 0.72966 0.0
C1048 C 0.24437 0.5495 0.74232 0.0
C1049 C 0.23322 0.53569 0.75372 0.0
H1050 H 0.45955 0.24627 0.74884 0.0
H1051 H 0.44757 0.20649 0.79868 0.0
H1052 H 0.48392 0.20434 0.80576 0.0
H1053 H 0.50619 0.22455 0.73238 0.0
H1054 H 0.51765 0.24839 0.72703 0.0
H1055 H 0.4909 0.24559 0.72516 0.0
H1056 H 0.48613 0.27508 0.74994 0.0
H1057 H 0.51287 0.27788 0.752 0.0
H1058 H 0.49796 0.2741 0.77418 0.0
H1059 H 0.52163 0.20535 0.80617 0.0
H1060 H 0.55792 0.21202 0.80198 0.0
H1061 H 0.54474 0.25445 0.75472 0.0
C1062 C 0.46469 0.23692 0.76105 0.0
C1063 C 0.45102 0.22624 0.77304 0.0
C1064 C 0.45801 0.2146 0.78928 0.0
C1065 C 0.47855 0.2133 0.79338 0.0
C1066 C 0.49173 0.22417 0.78139 0.0
C1067 C 0.48507 0.23598 0.76574 0.0
C1068 C 0.5022 0.24711 0.75593 0.0
C1069 C 0.50436 0.24104 0.73382 0.0
C1070 C 0.49963 0.26989 0.75815 0.0
C1071 C 0.51956 0.23953 0.76833 0.0
C1072 C 0.51325 0.22607 0.78275 0.0
C1073 C 0.52673 0.2161 0.79517 0.0
C1074 C 0.54723 0.21995 0.79272 0.0
C1075 C 0.55385 0.234 0.77836 0.0
C1076 C 0.53987 0.24403 0.76616 0.0
H1077 H 0.72476 0.47148 0.73794 0.0
H1078 H 0.7707 0.46097 0.69335 0.0
H1079 H 0.779 0.49717 0.69339 0.0
H1080 H 0.70859 0.52062 0.71744 0.0
H1081 H 0.7036 0.53049 0.74206 0.0
H1082 H 0.70059 0.50411 0.73724 0.0
H1083 H 0.72485 0.49618 0.76647 0.0
H1084 H 0.72821 0.52249 0.77118 0.0
H1085 H 0.74966 0.50683 0.76636 0.0
H1086 H 0.78529 0.5334 0.70224 0.0
H1087 H 0.78552 0.56825 0.71497 0.0
H1088 H 0.73329 0.55534 0.75128 0.0
C1089 C 0.73627 0.47693 0.7279 0.0
C1090 C 0.74716 0.46367 0.71566 0.0
C1091 C 0.76213 0.4711 0.70267 0.0
C1092 C 0.76698 0.49154 0.70269 0.0
C1093 C 0.75631 0.50423 0.7154 0.0
C1094 C 0.74089 0.49729 0.72734 0.0
C1095 C 0.73179 0.51391 0.73971 0.0
C1096 C 0.70984 0.5175 0.73375 0.0
C1097 C 0.73376 0.50959 0.76226 0.0
C1098 C 0.74497 0.53118 0.73342 0.0
C1099 C 0.75914 0.52529 0.71952 0.0
C1100 C 0.77399 0.5383 0.71276 0.0
C1101 C 0.77411 0.55795 0.72017 0.0
C1102 C 0.7593 0.56434 0.73389 0.0
C1103 C 0.74456 0.55082 0.74053 0.0
H1104 H 0.44953 0.21997 0.26607 0.0
H1105 H 0.43244 0.28261 0.26373 0.0
H1106 H 0.46763 0.29239 0.26926 0.0
H1107 H 0.49085 0.22549 0.3037 0.0
H1108 H 0.50625 0.20728 0.29107 0.0
H1109 H 0.47935 0.20509 0.29028 0.0
H1110 H 0.48046 0.20465 0.2515 0.0
H1111 H 0.50727 0.20679 0.25218 0.0
H1112 H 0.49269 0.22484 0.2384 0.0
H1113 H 0.50456 0.29546 0.26976 0.0
H1114 H 0.54102 0.29158 0.26482 0.0
H1115 H 0.53477 0.22712 0.26766 0.0
C1116 C 0.45312 0.23573 0.26726 0.0
C1117 C 0.43825 0.25055 0.26459 0.0
C1118 C 0.44359 0.27102 0.26579 0.0
C1119 C 0.46352 0.27671 0.26904 0.0
C1120 C 0.47792 0.26176 0.27118 0.0
C1121 C 0.47299 0.24167 0.27042 0.0
C1122 C 0.49158 0.22864 0.27103 0.0
C1123 C 0.49203 0.21587 0.29016 0.0
C1124 C 0.49308 0.21547 0.25215 0.0
C1125 C 0.50776 0.24455 0.2714 0.0
C1126 C 0.4995 0.26356 0.2718 0.0
C1127 C 0.51124 0.2807 0.27001 0.0
C1128 C 0.53189 0.27838 0.26723 0.0
C1129 C 0.54055 0.25911 0.26647 0.0
C1130 C 0.52846 0.242 0.26903 0.0
H1131 H 0.75084 0.45599 0.22121 0.0
H1132 H 0.80274 0.44287 0.25799 0.0
H1133 H 0.81 0.47899 0.26077 0.0
H1134 H 0.77421 0.4971 0.19378 0.0
H1135 H 0.75151 0.51162 0.19248 0.0
H1136 H 0.75024 0.48469 0.19346 0.0
H1137 H 0.72722 0.48684 0.22461 0.0
H1138 H 0.72844 0.51376 0.22374 0.0
H1139 H 0.73549 0.50068 0.24626 0.0
H1140 H 0.81009 0.51651 0.26186 0.0
H1141 H 0.80501 0.55306 0.25815 0.0
H1142 H 0.75519 0.54202 0.21804 0.0
C1143 C 0.76374 0.46077 0.22979 0.0
C1144 C 0.77618 0.44666 0.23948 0.0
C1145 C 0.79305 0.45343 0.25041 0.0
C1146 C 0.79727 0.47391 0.25213 0.0
C1147 C 0.78469 0.48746 0.2425 0.0
C1148 C 0.76846 0.4812 0.23127 0.0
C1149 C 0.75764 0.49891 0.22207 0.0
C1150 C 0.75846 0.49802 0.19908 0.0
C1151 C 0.73591 0.50011 0.22963 0.0
C1152 C 0.77015 0.51607 0.23013 0.0
C1153 C 0.78554 0.50912 0.24208 0.0
C1154 C 0.79831 0.52214 0.25226 0.0
C1155 C 0.7953 0.54282 0.25013 0.0
C1156 C 0.77995 0.55023 0.23759 0.0
C1157 C 0.76732 0.53668 0.22737 0.0
H1158 H 0.54653 0.76811 0.23528 0.0
H1159 H 0.55462 0.72286 0.28104 0.0
H1160 H 0.5178 0.72121 0.28591 0.0
H1161 H 0.50356 0.79348 0.25638 0.0
H1162 H 0.49152 0.79691 0.23248 0.0
H1163 H 0.51843 0.7958 0.23397 0.0
H1164 H 0.51885 0.76673 0.20824 0.0
H1165 H 0.49199 0.76787 0.20654 0.0
H1166 H 0.50409 0.74462 0.21298 0.0
H1167 H 0.47998 0.72552 0.28621 0.0
H1168 H 0.44415 0.73089 0.27798 0.0
H1169 H 0.46122 0.77019 0.22929 0.0
C1170 C 0.54049 0.758 0.24644 0.0
C1171 C 0.55321 0.7458 0.25802 0.0
C1172 C 0.54495 0.73235 0.27212 0.0
C1173 C 0.52414 0.73144 0.27506 0.0
C1174 C 0.51193 0.74377 0.26343 0.0
C1175 C 0.5198 0.75647 0.24909 0.0
C1176 C 0.50348 0.76677 0.23725 0.0
C1177 C 0.5043 0.78959 0.2402 0.0
C1178 C 0.50467 0.76115 0.21493 0.0
C1179 C 0.48515 0.75786 0.24709 0.0
C1180 C 0.49029 0.74503 0.26252 0.0
C1181 C 0.4758 0.73541 0.27409 0.0
C1182 C 0.45555 0.73862 0.26942 0.0
C1183 C 0.45015 0.75087 0.25303 0.0
C1184 C 0.4651 0.76071 0.24187 0.0
H1185 H 0.2594 0.53733 0.20786 0.0
H1186 H 0.21694 0.54868 0.25573 0.0
H1187 H 0.21411 0.51245 0.26196 0.0
H1188 H 0.23352 0.49334 0.18898 0.0
H1189 H 0.25614 0.48013 0.18248 0.0
H1190 H 0.25574 0.5071 0.1822 0.0
H1191 H 0.28588 0.50784 0.20658 0.0
H1192 H 0.28632 0.48087 0.207 0.0
H1193 H 0.28424 0.49469 0.23009 0.0
H1194 H 0.21686 0.47575 0.26434 0.0
H1195 H 0.22176 0.43947 0.26006 0.0
H1196 H 0.25983 0.45051 0.20856 0.0
C1197 C 0.24957 0.5321 0.21965 0.0
C1198 C 0.23846 0.54574 0.23142 0.0
C1199 C 0.22553 0.53844 0.24653 0.0
C1200 C 0.22389 0.51791 0.25025 0.0
C1201 C 0.235 0.50482 0.23848 0.0
C1202 C 0.24733 0.51148 0.22325 0.0
C1203 C 0.25671 0.49392 0.21222 0.0
C1204 C 0.25013 0.49361 0.19016 0.0
C1205 C 0.27965 0.49436 0.21409 0.0
C1206 C 0.2478 0.47646 0.22377 0.0
C1207 C 0.2356 0.48323 0.23905 0.0
C1208 C 0.22622 0.47021 0.25233 0.0
C1209 C 0.22918 0.44965 0.24983 0.0
C1210 C 0.2411 0.44224 0.23396 0.0
C1211 C 0.25052 0.45582 0.22072 0.0
H1212 H 0.77851 0.76515 0.54456 0.0
H1213 H 0.71914 0.74234 0.55713 0.0
H1214 H 0.71401 0.73558 0.52098 0.0
H1215 H 0.76774 0.78975 0.50008 0.0
H1216 H 0.79058 0.78315 0.48731 0.0
H1217 H 0.79019 0.78469 0.5142 0.0
H1218 H 0.80321 0.74823 0.51681 0.0
H1219 H 0.8039 0.74665 0.48988 0.0
H1220 H 0.78995 0.72844 0.50411 0.0
H1221 H 0.7138 0.73607 0.48333 0.0
H1222 H 0.72026 0.73894 0.44692 0.0
H1223 H 0.78101 0.75824 0.45918 0.0
C1224 C 0.76466 0.75828 0.53963 0.0
C1225 C 0.74921 0.75407 0.55333 0.0
C1226 C 0.73115 0.74537 0.54665 0.0
C1227 C 0.72811 0.74158 0.52623 0.0
C1228 C 0.7435 0.74626 0.51291 0.0
C1229 C 0.76162 0.75396 0.51938 0.0
C1230 C 0.7756 0.75791 0.502 0.0
C1231 C 0.78135 0.7802 0.50084 0.0
C1232 C 0.79427 0.7445 0.50328 0.0
C1233 C 0.7623 0.75188 0.48469 0.0
C1234 C 0.74378 0.74537 0.49128 0.0
C1235 C 0.72839 0.74068 0.47799 0.0
C1236 C 0.73212 0.74249 0.45741 0.0
C1237 C 0.75116 0.74856 0.45044 0.0
C1238 C 0.76644 0.75318 0.46423 0.0
H1239 H 0.76559 0.24106 0.44611 0.0
H1240 H 0.72782 0.19002 0.43241 0.0
H1241 H 0.72027 0.18587 0.4684 0.0
H1242 H 0.78686 0.21983 0.4909 0.0
H1243 H 0.78796 0.24344 0.50393 0.0
H1244 H 0.7897 0.24281 0.47703 0.0
H1245 H 0.75974 0.26736 0.47448 0.0
H1246 H 0.75787 0.26802 0.50137 0.0
H1247 H 0.73641 0.26111 0.48654 0.0
H1248 H 0.71572 0.1883 0.50585 0.0
H1249 H 0.71737 0.19504 0.54233 0.0
H1250 H 0.76022 0.24262 0.53145 0.0
C1251 C 0.75569 0.22907 0.45072 0.0
C1252 C 0.74716 0.21594 0.43658 0.0
C1253 C 0.73451 0.20022 0.4431 0.0
C1254 C 0.73007 0.1978 0.46347 0.0
C1255 C 0.73869 0.21103 0.47709 0.0
C1256 C 0.75146 0.22617 0.47102 0.0
C1257 C 0.75945 0.2378 0.48873 0.0
C1258 C 0.78235 0.23584 0.49023 0.0
C1259 C 0.75297 0.25988 0.48771 0.0
C1260 C 0.74908 0.22691 0.50567 0.0
C1261 C 0.73695 0.21169 0.49867 0.0
C1262 C 0.72532 0.20005 0.51155 0.0
C1263 C 0.72629 0.20399 0.53217 0.0
C1264 C 0.73906 0.21916 0.53959 0.0
C1265 C 0.75055 0.23072 0.52615 0.0
H1266 H 0.22648 0.7424 0.44647 0.0
H1267 H 0.26898 0.7901 0.43477 0.0
H1268 H 0.27303 0.79554 0.47111 0.0
H1269 H 0.20199 0.76757 0.48691 0.0
H1270 H 0.19759 0.74522 0.50139 0.0
H1271 H 0.19923 0.74374 0.47451 0.0
H1272 H 0.22748 0.71733 0.47751 0.0
H1273 H 0.22585 0.71865 0.5044 0.0
H1274 H 0.24947 0.72303 0.4921 0.0
H1275 H 0.27278 0.7957 0.50839 0.0
H1276 H 0.26644 0.79222 0.54466 0.0
H1277 H 0.2218 0.7466 0.53254 0.0
C1278 C 0.23684 0.75375 0.45165 0.0
C1279 C 0.24764 0.76569 0.43794 0.0
C1280 C 0.26067 0.78077 0.44512 0.0
C1281 C 0.26309 0.78394 0.4657 0.0
C1282 C 0.25208 0.77213 0.47888 0.0
C1283 C 0.23906 0.75747 0.47221 0.0
C1284 C 0.22808 0.74782 0.4896 0.0
C1285 C 0.20538 0.75131 0.488 0.0
C1286 C 0.23302 0.72538 0.49098 0.0
C1287 C 0.23701 0.75934 0.50702 0.0
C1288 C 0.25103 0.77308 0.50047 0.0
C1289 C 0.26175 0.78509 0.51372 0.0
C1290 C 0.25807 0.783 0.53426 0.0
C1291 C 0.24353 0.7693 0.5413 0.0
C1292 C 0.2328 0.7574 0.52749 0.0
H1293 H 0.23071 0.25489 0.53513 0.0
H1294 H 0.27252 0.20542 0.54034 0.0
H1295 H 0.27239 0.20134 0.50367 0.0
H1296 H 0.20131 0.23252 0.49556 0.0
H1297 H 0.19665 0.25588 0.48288 0.0
H1298 H 0.20054 0.25558 0.50957 0.0
H1299 H 0.22942 0.28121 0.50572 0.0
H1300 H 0.22563 0.28157 0.47902 0.0
H1301 H 0.24995 0.27566 0.48909 0.0
H1302 H 0.26887 0.20323 0.46683 0.0
H1303 H 0.25987 0.20907 0.43153 0.0
H1304 H 0.2183 0.2556 0.44971 0.0
C1305 C 0.23988 0.24329 0.52847 0.0
C1306 C 0.25173 0.23053 0.54047 0.0
C1307 C 0.26333 0.21532 0.53137 0.0
C1308 C 0.26341 0.21292 0.51057 0.0
C1309 C 0.25157 0.22568 0.49913 0.0
C1310 C 0.23981 0.2404 0.50769 0.0
C1311 C 0.22787 0.2515 0.49188 0.0
C1312 C 0.20525 0.24869 0.49517 0.0
C1313 C 0.23357 0.27381 0.4914 0.0
C1314 C 0.23489 0.24077 0.47315 0.0
C1315 C 0.24874 0.2261 0.47773 0.0
C1316 C 0.25794 0.21456 0.46302 0.0
C1317 C 0.25278 0.21804 0.44303 0.0
C1318 C 0.23835 0.2327 0.43798 0.0
C1319 C 0.22924 0.24416 0.45323 0.0
H1320 H 0.21967 0.17342 0.27587 0.0
H1321 H 0.19191 0.12094 0.24919 0.0
H1322 H 0.15928 0.13819 0.24946 0.0
H1323 H 0.17767 0.18617 0.30854 0.0
H1324 H 0.18139 0.21274 0.30554 0.0
H1325 H 0.20236 0.19587 0.30375 0.0
H1326 H 0.21064 0.21047 0.2686 0.0
H1327 H 0.18951 0.22708 0.27043 0.0
H1328 H 0.19163 0.21028 0.24942 0.0
H1329 H 0.13023 0.16122 0.25112 0.0
H1330 H 0.10635 0.18928 0.25318 0.0
H1331 H 0.15225 0.22651 0.28019 0.0
C1332 C 0.20675 0.16556 0.27 0.0
C1333 C 0.20837 0.14581 0.26243 0.0
C1334 C 0.19105 0.13603 0.25508 0.0
C1335 C 0.17244 0.14568 0.25522 0.0
C1336 C 0.17134 0.16501 0.26297 0.0
C1337 C 0.18799 0.17488 0.27024 0.0
C1338 C 0.18267 0.19575 0.27751 0.0
C1339 C 0.18623 0.19775 0.30018 0.0
C1340 C 0.1943 0.21184 0.26578 0.0
C1341 C 0.1605 0.19622 0.27264 0.0
C1342 C 0.15431 0.17825 0.26441 0.0
C1343 C 0.13481 0.17529 0.25772 0.0
C1344 C 0.12137 0.1913 0.25899 0.0
C1345 C 0.12743 0.20997 0.26697 0.0
C1346 C 0.14712 0.2123 0.27433 0.0
H1347 H 0.81151 0.22048 0.28467 0.0
H1348 H 0.86193 0.19386 0.25342 0.0
H1349 H 0.84422 0.1613 0.25297 0.0
H1350 H 0.8 0.17676 0.31535 0.0
H1351 H 0.7734 0.18117 0.31418 0.0
H1352 H 0.79066 0.20192 0.31274 0.0
H1353 H 0.7745 0.21306 0.27933 0.0
H1354 H 0.75733 0.19235 0.28059 0.0
H1355 H 0.77303 0.19549 0.25887 0.0
H1356 H 0.81974 0.13229 0.25384 0.0
H1357 H 0.79087 0.10926 0.25619 0.0
H1358 H 0.75715 0.15488 0.28785 0.0
C1359 C 0.81893 0.20784 0.27775 0.0
C1360 C 0.83811 0.20981 0.26894 0.0
C1361 C 0.84727 0.19276 0.26025 0.0
C1362 C 0.83733 0.1742 0.25994 0.0
C1363 C 0.81835 0.17289 0.26859 0.0
C1364 C 0.80932 0.18925 0.27742 0.0
C1365 C 0.78873 0.18408 0.28538 0.0
C1366 C 0.78816 0.18609 0.30828 0.0
C1367 C 0.77245 0.19701 0.27544 0.0
C1368 C 0.78721 0.16239 0.27901 0.0
C1369 C 0.80451 0.15614 0.2695 0.0
C1370 C 0.80623 0.13697 0.26146 0.0
C1371 C 0.78975 0.12399 0.26287 0.0
C1372 C 0.77177 0.13023 0.27226 0.0
C1373 C 0.77071 0.14957 0.28075 0.0
H1374 H 0.84119 0.77918 0.2842 0.0
H1375 H 0.88107 0.82566 0.26254 0.0
H1376 H 0.85246 0.84894 0.25986 0.0
H1377 H 0.80245 0.78976 0.2505 0.0
H1378 H 0.78235 0.78435 0.26768 0.0
H1379 H 0.80618 0.7721 0.27056 0.0
H1380 H 0.80879 0.785 0.30708 0.0
H1381 H 0.7848 0.79703 0.30443 0.0
H1382 H 0.80632 0.81142 0.31206 0.0
H1383 H 0.81921 0.86648 0.25756 0.0
H1384 H 0.78377 0.8771 0.25629 0.0
H1385 H 0.76569 0.81827 0.27742 0.0
C1386 C 0.844 0.79436 0.27934 0.0
C1387 C 0.86336 0.80068 0.27371 0.0
C1388 C 0.86634 0.82059 0.26704 0.0
C1389 C 0.85019 0.83389 0.26544 0.0
C1390 C 0.83116 0.82698 0.2704 0.0
C1391 C 0.82799 0.8077 0.27728 0.0
C1392 C 0.8059 0.80352 0.28016 0.0
C1393 C 0.79881 0.78643 0.26641 0.0
C1394 C 0.80118 0.79899 0.30225 0.0
C1395 C 0.79717 0.82343 0.27376 0.0
C1396 C 0.81196 0.83682 0.26833 0.0
C1397 C 0.80748 0.85615 0.26184 0.0
C1398 C 0.78731 0.86203 0.2611 0.0
C1399 C 0.77191 0.84853 0.26664 0.0
C1400 C 0.77704 0.82895 0.27291 0.0
H1401 H 0.20361 0.8509 0.2658 0.0
H1402 H 0.25055 0.825 0.30246 0.0
H1403 H 0.23331 0.79223 0.30124 0.0
H1404 H 0.16212 0.82204 0.28817 0.0
H1405 H 0.14921 0.81963 0.26459 0.0
H1406 H 0.16461 0.84127 0.26938 0.0
H1407 H 0.1848 0.83386 0.23707 0.0
H1408 H 0.1697 0.81204 0.23234 0.0
H1409 H 0.19653 0.80975 0.23401 0.0
H1410 H 0.21304 0.76191 0.29355 0.0
H1411 H 0.18856 0.73642 0.283 0.0
H1412 H 0.15385 0.78218 0.25261 0.0
C1413 C 0.21006 0.83845 0.27393 0.0
C1414 C 0.22852 0.84041 0.2841 0.0
C1415 C 0.23652 0.82375 0.29445 0.0
C1416 C 0.22687 0.80512 0.29388 0.0
C1417 C 0.20908 0.80352 0.28316 0.0
C1418 C 0.20052 0.81979 0.27368 0.0
C1419 C 0.18144 0.81388 0.2629 0.0
C1420 C 0.16327 0.82486 0.2718 0.0
C1421 C 0.18324 0.8176 0.24024 0.0
C1422 C 0.18081 0.7917 0.26758 0.0
C1423 C 0.19697 0.78604 0.27918 0.0
C1424 C 0.20017 0.7662 0.28469 0.0
C1425 C 0.18627 0.75179 0.27847 0.0
C1426 C 0.16929 0.75731 0.26701 0.0
C1427 C 0.1666 0.77755 0.26149 0.0
H1428 H 0.14015 0.7898 0.72901 0.0
H1429 H 0.16055 0.7475 0.68408 0.0
H1430 H 0.19239 0.76602 0.68111 0.0
H1431 H 0.16395 0.83463 0.7067 0.0
H1432 H 0.17015 0.845 0.73083 0.0
H1433 H 0.14826 0.82945 0.72806 0.0
H1434 H 0.16143 0.80613 0.75619 0.0
H1435 H 0.18342 0.82147 0.75887 0.0
H1436 H 0.18594 0.79508 0.75381 0.0
H1437 H 0.22273 0.78734 0.68488 0.0
H1438 H 0.24949 0.81084 0.69424 0.0
H1439 H 0.2096 0.83967 0.73672 0.0
C1440 C 0.15115 0.78469 0.71825 0.0
C1441 C 0.1479 0.76723 0.70675 0.0
C1442 C 0.16275 0.76084 0.69303 0.0
C1443 C 0.18086 0.77128 0.69121 0.0
C1444 C 0.18377 0.78818 0.70308 0.0
C1445 C 0.16929 0.79498 0.7162 0.0
C1446 C 0.17662 0.813 0.72791 0.0
C1447 C 0.16399 0.83162 0.72308 0.0
C1448 C 0.17687 0.80865 0.75053 0.0
C1449 C 0.19764 0.81498 0.71964 0.0
C1450 C 0.20138 0.80055 0.70527 0.0
C1451 C 0.21995 0.79877 0.69603 0.0
C1452 C 0.23512 0.81206 0.70164 0.0
C1453 C 0.23171 0.82694 0.71642 0.0
C1454 C 0.21262 0.82852 0.72534 0.0
H1455 H 0.22352 0.14546 0.73473 0.0
H1456 H 0.18058 0.1028 0.75826 0.0
H1457 H 0.15465 0.12925 0.75868 0.0
H1458 H 0.20858 0.18472 0.76643 0.0
H1459 H 0.21285 0.20428 0.74833 0.0
H1460 H 0.22722 0.18151 0.74718 0.0
H1461 H 0.21595 0.1758 0.71048 0.0
H1462 H 0.20178 0.19873 0.71136 0.0
H1463 H 0.18962 0.17561 0.70454 0.0
H1464 H 0.13389 0.16084 0.75773 0.0
H1465 H 0.12012 0.1952 0.75623 0.0
H1466 H 0.17795 0.21733 0.7364 0.0
C1467 C 0.20861 0.14154 0.73962 0.0
C1468 C 0.20399 0.12207 0.74633 0.0
C1469 C 0.18433 0.11765 0.75293 0.0
C1470 C 0.16955 0.13256 0.75325 0.0
C1471 C 0.17482 0.15183 0.74721 0.0
C1472 C 0.1939 0.15635 0.74059 0.0
C1473 C 0.19627 0.1785 0.73658 0.0
C1474 C 0.21216 0.18779 0.75046 0.0
C1475 C 0.20119 0.18238 0.71442 0.0
C1476 C 0.17548 0.18574 0.74185 0.0
C1477 C 0.16325 0.17013 0.74777 0.0
C1478 C 0.14332 0.17319 0.75314 0.0
C1479 C 0.13565 0.19273 0.75226 0.0
C1480 C 0.148 0.20892 0.74634 0.0
C1481 C 0.16819 0.2053 0.74122 0.0
H1482 H 0.83744 0.2354 0.70408 0.0
H1483 H 0.88543 0.20317 0.73374 0.0
H1484 H 0.86155 0.17662 0.74341 0.0
H1485 H 0.8011 0.22596 0.74148 0.0
H1486 H 0.78051 0.22367 0.72418 0.0
H1487 H 0.80168 0.23916 0.71795 0.0
H1488 H 0.8064 0.21943 0.68513 0.0
H1489 H 0.78565 0.20324 0.69104 0.0
H1490 H 0.80999 0.19273 0.68595 0.0
H1491 H 0.83215 0.15451 0.75123 0.0
H1492 H 0.79946 0.13793 0.75598 0.0
H1493 H 0.7706 0.18564 0.7225 0.0
C1494 C 0.84302 0.22265 0.71235 0.0
C1495 C 0.8633 0.22132 0.71815 0.0
C1496 C 0.86995 0.20444 0.72911 0.0
C1497 C 0.8565 0.18932 0.73471 0.0
C1498 C 0.83646 0.19143 0.72933 0.0
C1499 C 0.82975 0.20765 0.71838 0.0
C1500 C 0.8073 0.2069 0.71542 0.0
C1501 C 0.79705 0.22499 0.72535 0.0
C1502 C 0.80201 0.20548 0.69306 0.0
C1503 C 0.80246 0.18766 0.72636 0.0
C1504 C 0.81947 0.17895 0.73425 0.0
C1505 C 0.81871 0.16115 0.74508 0.0
C1506 C 0.80007 0.15188 0.74774 0.0
C1507 C 0.78243 0.16051 0.7397 0.0
C1508 C 0.78374 0.17872 0.729 0.0
H1509 H 0.8153 0.77251 0.7406 0.0
H1510 H 0.87333 0.80006 0.75101 0.0
H1511 H 0.85822 0.83341 0.74695 0.0
H1512 H 0.79859 0.80705 0.7028 0.0
H1513 H 0.77299 0.80718 0.71137 0.0
H1514 H 0.78844 0.78541 0.71534 0.0
H1515 H 0.7811 0.78696 0.75344 0.0
H1516 H 0.7656 0.80864 0.74947 0.0
H1517 H 0.78614 0.8098 0.76691 0.0
H1518 H 0.83696 0.86364 0.74327 0.0
H1519 H 0.81023 0.88908 0.74165 0.0
H1520 H 0.76645 0.84239 0.73066 0.0
C1521 C 0.82481 0.78555 0.74215 0.0
C1522 C 0.84553 0.78363 0.74608 0.0
C1523 C 0.85745 0.8011 0.74792 0.0
C1524 C 0.84903 0.82014 0.74558 0.0
C1525 C 0.82869 0.82149 0.74129 0.0
C1526 C 0.81668 0.80472 0.73971 0.0
C1527 C 0.79516 0.81046 0.73529 0.0
C1528 C 0.78839 0.80204 0.71498 0.0
C1529 C 0.78119 0.80356 0.75229 0.0
C1530 C 0.797 0.83308 0.7347 0.0
C1531 C 0.81648 0.83907 0.7383 0.0
C1532 C 0.8217 0.85917 0.74017 0.0
C1533 C 0.80646 0.8735 0.73912 0.0
C1534 C 0.78633 0.8677 0.73596 0.0
C1535 C 0.7817 0.84729 0.73293 0.0
H1536 H 0.27727 0.14656 0.241 0.0
H1537 H 0.25931 0.10366 0.19564 0.0
H1538 H 0.26141 0.13002 0.16989 0.0
H1539 H 0.24811 0.18567 0.22359 0.0
H1540 H 0.26572 0.20545 0.22884 0.0
H1541 H 0.26621 0.18279 0.2434 0.0
H1542 H 0.30366 0.17692 0.23424 0.0
H1543 H 0.30322 0.20021 0.2206 0.0
H1544 H 0.31113 0.17749 0.20835 0.0
H1545 H 0.2622 0.16117 0.14975 0.0
H1546 H 0.26232 0.19535 0.13599 0.0
H1547 H 0.27833 0.21881 0.19455 0.0
C1548 C 0.27431 0.1426 0.22559 0.0
C1549 C 0.26822 0.12303 0.22027 0.0
C1550 C 0.26408 0.11854 0.19999 0.0
C1551 C 0.26524 0.13341 0.18527 0.0
C1552 C 0.27049 0.15272 0.19108 0.0
C1553 C 0.27511 0.15739 0.21071 0.0
C1554 C 0.27871 0.1797 0.21317 0.0
C1555 C 0.2638 0.18894 0.22813 0.0
C1556 C 0.30047 0.18383 0.21946 0.0
C1557 C 0.27479 0.18685 0.19197 0.0
C1558 C 0.27038 0.17097 0.17946 0.0
C1559 C 0.26581 0.17373 0.15932 0.0
C1560 C 0.26587 0.19324 0.15167 0.0
C1561 C 0.2703 0.20983 0.16414 0.0
C1562 C 0.27482 0.20649 0.1846 0.0
H1563 H 0.79031 0.24879 0.14718 0.0
H1564 H 0.7446 0.27691 0.18395 0.0
H1565 H 0.76986 0.28451 0.20964 0.0
H1566 H 0.8162 0.2254 0.18754 0.0
H1567 H 0.84071 0.22902 0.17683 0.0
H1568 H 0.8192 0.22683 0.16075 0.0
H1569 H 0.82805 0.26091 0.14439 0.0
H1570 H 0.8495 0.26334 0.16058 0.0
H1571 H 0.8308 0.2828 0.15994 0.0
H1572 H 0.79978 0.28864 0.23169 0.0
H1573 H 0.83197 0.28652 0.24971 0.0
H1574 H 0.85805 0.25489 0.19928 0.0
C1575 C 0.78563 0.25661 0.16059 0.0
C1576 C 0.76546 0.26223 0.16349 0.0
C1577 C 0.75994 0.27232 0.18136 0.0
C1578 C 0.7742 0.27685 0.19603 0.0
C1579 C 0.79393 0.27114 0.19269 0.0
C1580 C 0.79965 0.26109 0.17552 0.0
C1581 C 0.82166 0.25573 0.17614 0.0
C1582 C 0.82461 0.23289 0.17527 0.0
C1583 C 0.83318 0.26633 0.15926 0.0
C1584 C 0.82731 0.26408 0.19646 0.0
C1585 C 0.81115 0.27316 0.20563 0.0
C1586 C 0.81257 0.28161 0.22465 0.0
C1587 C 0.83092 0.28036 0.23476 0.0
C1588 C 0.84747 0.27051 0.22592 0.0
C1589 C 0.84567 0.26258 0.20639 0.0
H1590 H 0.70673 0.83296 0.24412 0.0
H1591 H 0.71075 0.88102 0.20061 0.0
H1592 H 0.71425 0.85618 0.1735 0.0
H1593 H 0.74456 0.8041 0.22322 0.0
H1594 H 0.7333 0.78008 0.22822 0.0
H1595 H 0.72759 0.80115 0.24401 0.0
H1596 H 0.68972 0.79662 0.23715 0.0
H1597 H 0.69523 0.7752 0.22171 0.0
H1598 H 0.68078 0.79568 0.21172 0.0
H1599 H 0.72039 0.82668 0.15161 0.0
H1600 H 0.72857 0.79425 0.13606 0.0
H1601 H 0.72263 0.76515 0.19396 0.0
C1602 C 0.70782 0.83824 0.22886 0.0
C1603 C 0.70834 0.85893 0.22443 0.0
C1604 C 0.7102 0.86523 0.20429 0.0
C1605 C 0.7122 0.85124 0.1888 0.0
C1606 C 0.71245 0.83097 0.19371 0.0
C1607 C 0.71024 0.82443 0.21323 0.0
C1608 C 0.71292 0.8019 0.21462 0.0
C1609 C 0.73065 0.7965 0.22832 0.0
C1610 C 0.6935 0.79175 0.22171 0.0
C1611 C 0.71737 0.79694 0.19291 0.0
C1612 C 0.71674 0.8139 0.1811 0.0
C1613 C 0.72077 0.81324 0.16065 0.0
C1614 C 0.72547 0.79473 0.15197 0.0
C1615 C 0.72631 0.77709 0.16374 0.0
C1616 C 0.72218 0.77832 0.18452 0.0
H1617 H 0.13293 0.7422 0.192 0.0
H1618 H 0.14788 0.68944 0.22685 0.0
H1619 H 0.1777 0.68402 0.20571 0.0
H1620 H 0.15141 0.72292 0.1427 0.0
H1621 H 0.16073 0.74722 0.13555 0.0
H1622 H 0.13906 0.74523 0.15153 0.0
H1623 H 0.15659 0.76764 0.17792 0.0
H1624 H 0.17836 0.76953 0.16219 0.0
H1625 H 0.18077 0.76039 0.18747 0.0
H1626 H 0.20822 0.68734 0.18454 0.0
H1627 H 0.23643 0.69781 0.16307 0.0
H1628 H 0.20131 0.74765 0.14079 0.0
C1629 C 0.14214 0.72917 0.19482 0.0
C1630 C 0.13808 0.71621 0.21105 0.0
C1631 C 0.15066 0.69951 0.21445 0.0
C1632 C 0.16763 0.69631 0.20251 0.0
C1633 C 0.1716 0.70977 0.18707 0.0
C1634 C 0.15906 0.7257 0.18297 0.0
C1635 C 0.16751 0.73883 0.16649 0.0
C1636 C 0.15386 0.73852 0.14797 0.0
C1637 C 0.17102 0.76036 0.17398 0.0
C1638 C 0.18711 0.7282 0.16242 0.0
C1639 C 0.18911 0.71141 0.17442 0.0
C1640 C 0.20665 0.70017 0.17476 0.0
C1641 C 0.22261 0.7063 0.16264 0.0
C1642 C 0.22087 0.7234 0.15022 0.0
C1643 C 0.20279 0.73428 0.14985 0.0
H1644 H 0.26301 0.85213 0.79801 0.0
H1645 H 0.30027 0.83112 0.74913 0.0
H1646 H 0.30424 0.79853 0.76635 0.0
H1647 H 0.28937 0.82455 0.83895 0.0
H1648 H 0.26613 0.81985 0.85183 0.0
H1649 H 0.26912 0.84231 0.83716 0.0
H1650 H 0.23728 0.83302 0.81692 0.0
H1651 H 0.23441 0.81042 0.83124 0.0
H1652 H 0.23611 0.80916 0.80433 0.0
H1653 H 0.30058 0.76711 0.78714 0.0
H1654 H 0.29109 0.7399 0.81022 0.0
H1655 H 0.25518 0.78161 0.84472 0.0
C1656 C 0.27245 0.84087 0.79115 0.0
C1657 C 0.28138 0.84414 0.77227 0.0
C1658 C 0.29345 0.82899 0.76368 0.0
C1659 C 0.29575 0.81043 0.77334 0.0
C1660 C 0.28607 0.80747 0.79164 0.0
C1661 C 0.27489 0.8224 0.80057 0.0
C1662 C 0.26469 0.81508 0.81943 0.0
C1663 C 0.27282 0.82611 0.83794 0.0
C1664 C 0.24177 0.81703 0.81787 0.0
C1665 C 0.27117 0.79343 0.81934 0.0
C1666 C 0.28371 0.78937 0.80337 0.0
C1667 C 0.2909 0.77016 0.79974 0.0
C1668 C 0.28511 0.75474 0.81273 0.0
C1669 C 0.27196 0.75852 0.82898 0.0
C1670 C 0.26518 0.77821 0.83242 0.0
H1671 H 0.15115 0.27898 0.77026 0.0
H1672 H 0.10216 0.25605 0.80623 0.0
H1673 H 0.1249 0.25322 0.83528 0.0
H1674 H 0.18674 0.2454 0.78824 0.0
H1675 H 0.20738 0.2628 0.78773 0.0
H1676 H 0.18676 0.2659 0.77069 0.0
H1677 H 0.1813 0.30202 0.78355 0.0
H1678 H 0.20186 0.29926 0.80079 0.0
H1679 H 0.17746 0.30636 0.8099 0.0
H1680 H 0.15375 0.25052 0.85969 0.0
H1681 H 0.18624 0.24829 0.87736 0.0
H1682 H 0.21631 0.27103 0.82439 0.0
C1683 C 0.14506 0.27378 0.78433 0.0
C1684 C 0.12485 0.26781 0.786 0.0
C1685 C 0.11758 0.26081 0.80465 0.0
C1686 C 0.13039 0.25912 0.82123 0.0
C1687 C 0.15043 0.26439 0.81884 0.0
C1688 C 0.15771 0.27163 0.80086 0.0
C1689 C 0.18014 0.27469 0.80165 0.0
C1690 C 0.19088 0.2614 0.78616 0.0
C1691 C 0.18551 0.2969 0.79881 0.0
C1692 C 0.18439 0.26781 0.82279 0.0
C1693 C 0.16708 0.26214 0.83258 0.0
C1694 C 0.1674 0.25501 0.8522 0.0
C1695 C 0.18591 0.25374 0.8621 0.0
C1696 C 0.20384 0.25933 0.85224 0.0
C1697 C 0.20293 0.26644 0.83232 0.0
H1698 H 0.74518 0.13984 0.80869 0.0
H1699 H 0.70439 0.16099 0.76274 0.0
H1700 H 0.7044 0.19455 0.77829 0.0
H1701 H 0.7246 0.16998 0.85031 0.0
H1702 H 0.74906 0.17427 0.86087 0.0
H1703 H 0.74406 0.15152 0.84726 0.0
H1704 H 0.77413 0.15916 0.82388 0.0
H1705 H 0.77899 0.18209 0.83717 0.0
H1706 H 0.77488 0.1826 0.81051 0.0
H1707 H 0.71196 0.22658 0.79657 0.0
H1708 H 0.72387 0.2541 0.81818 0.0
H1709 H 0.75909 0.2118 0.8527 0.0
C1710 C 0.73582 0.15137 0.80218 0.0
C1711 C 0.72477 0.1478 0.7845 0.0
C1712 C 0.71294 0.16337 0.7763 0.0
C1713 C 0.71289 0.18249 0.78501 0.0
C1714 C 0.72457 0.18569 0.802 0.0
C1715 C 0.73558 0.17049 0.81069 0.0
C1716 C 0.74764 0.17806 0.82834 0.0
C1717 C 0.74093 0.16785 0.84785 0.0
C1718 C 0.77024 0.17531 0.82475 0.0
C1719 C 0.74191 0.19996 0.82809 0.0
C1720 C 0.72866 0.20408 0.81273 0.0
C1721 C 0.72211 0.22348 0.80881 0.0
C1722 C 0.72911 0.23902 0.82105 0.0
C1723 C 0.74235 0.23505 0.83716 0.0
C1724 C 0.74879 0.21524 0.84066 0.0
H1725 H 0.78849 0.75488 0.83867 0.0
H1726 H 0.79814 0.69987 0.87163 0.0
H1727 H 0.83063 0.69518 0.85423 0.0
H1728 H 0.80749 0.73973 0.79306 0.0
H1729 H 0.81953 0.76308 0.78687 0.0
H1730 H 0.7981 0.76294 0.80317 0.0
H1731 H 0.81848 0.7814 0.83054 0.0
H1732 H 0.83994 0.78177 0.81419 0.0
H1733 H 0.84199 0.77107 0.83888 0.0
H1734 H 0.85909 0.69398 0.82889 0.0
H1735 H 0.88357 0.69884 0.80126 0.0
H1736 H 0.85731 0.75664 0.78828 0.0
C1737 C 0.79776 0.74216 0.84259 0.0
C1738 C 0.79104 0.72777 0.85651 0.0
C1739 C 0.8033 0.71116 0.86119 0.0
C1740 C 0.82167 0.70836 0.85131 0.0
C1741 C 0.82769 0.7226 0.83724 0.0
C1742 C 0.81632 0.73946 0.8333 0.0
C1743 C 0.82584 0.75234 0.81726 0.0
C1744 C 0.81191 0.75464 0.79902 0.0
C1745 C 0.83193 0.77286 0.82573 0.0
C1746 C 0.84399 0.73977 0.81226 0.0
C1747 C 0.84475 0.72256 0.82377 0.0
C1748 C 0.85899 0.70766 0.82022 0.0
C1749 C 0.87277 0.71048 0.80454 0.0
C1750 C 0.87238 0.7282 0.79301 0.0
C1751 C 0.85805 0.7431 0.79714 0.0
H1752 H 0.18445 0.26668 0.23473 0.0
H1753 H 0.12927 0.26499 0.20025 0.0
H1754 H 0.14848 0.27078 0.16937 0.0
H1755 H 0.20954 0.30551 0.20426 0.0
H1756 H 0.23377 0.29383 0.20642 0.0
H1757 H 0.21572 0.29125 0.22631 0.0
H1758 H 0.2183 0.25265 0.22413 0.0
H1759 H 0.2365 0.25504 0.20441 0.0
H1760 H 0.21415 0.24043 0.20041 0.0
H1761 H 0.17332 0.27286 0.14214 0.0
H1762 H 0.20274 0.27087 0.11992 0.0
H1763 H 0.24208 0.27311 0.17149 0.0
C1764 C 0.17636 0.26769 0.22072 0.0
C1765 C 0.1553 0.26528 0.21996 0.0
C1766 C 0.14536 0.2667 0.20128 0.0
C1767 C 0.15613 0.27013 0.18364 0.0
C1768 C 0.17682 0.27232 0.18491 0.0
C1769 C 0.18688 0.27123 0.20293 0.0
C1770 C 0.20934 0.27295 0.1999 0.0
C1771 C 0.21758 0.29203 0.20981 0.0
C1772 C 0.2202 0.25415 0.20766 0.0
C1773 C 0.21032 0.27439 0.17726 0.0
C1774 C 0.19133 0.2742 0.16899 0.0
C1775 C 0.18826 0.27346 0.1484 0.0
C1776 C 0.20502 0.27233 0.13591 0.0
C1777 C 0.22456 0.27215 0.14403 0.0
C1778 C 0.22728 0.27377 0.16493 0.0
H1779 H 0.23252 0.70654 0.8294 0.0
H1780 H 0.18575 0.71797 0.87289 0.0
H1781 H 0.16038 0.71655 0.84613 0.0
H1782 H 0.21401 0.73831 0.7934 0.0
H1783 H 0.2206 0.72329 0.77196 0.0
H1784 H 0.23464 0.72101 0.79482 0.0
H1785 H 0.22721 0.68262 0.79563 0.0
H1786 H 0.21363 0.68527 0.77246 0.0
H1787 H 0.20167 0.67414 0.79394 0.0
H1788 H 0.14085 0.71877 0.81501 0.0
H1789 H 0.12764 0.72318 0.78097 0.0
H1790 H 0.18691 0.71178 0.75656 0.0
C1791 C 0.21686 0.70788 0.83331 0.0
C1792 C 0.21095 0.71195 0.85321 0.0
C1793 C 0.19044 0.71449 0.85775 0.0
C1794 C 0.17596 0.71375 0.84265 0.0
C1795 C 0.18225 0.71061 0.82304 0.0
C1796 C 0.20217 0.70752 0.81825 0.0
C1797 C 0.20503 0.70678 0.79568 0.0
C1798 C 0.21942 0.72333 0.78855 0.0
C1799 C 0.21231 0.68597 0.78904 0.0
C1800 C 0.18375 0.71065 0.78866 0.0
C1801 C 0.17088 0.7125 0.80474 0.0
C1802 C 0.1507 0.71706 0.80225 0.0
C1803 C 0.14336 0.71966 0.78281 0.0
C1804 C 0.15617 0.71784 0.76598 0.0
C1805 C 0.17666 0.7132 0.76905 0.0
H1806 H 0.26621 0.22965 0.85089 0.0
H1807 H 0.25438 0.19033 0.90118 0.0
H1808 H 0.25377 0.16125 0.87833 0.0
H1809 H 0.23208 0.20656 0.81884 0.0
H1810 H 0.24663 0.20973 0.79633 0.0
H1811 H 0.24948 0.22709 0.81675 0.0
H1812 H 0.28759 0.21997 0.81797 0.0
H1813 H 0.28496 0.20279 0.79733 0.0
H1814 H 0.2963 0.19453 0.82039 0.0
H1815 H 0.25158 0.13699 0.84994 0.0
H1816 H 0.24824 0.11899 0.81785 0.0
H1817 H 0.25932 0.17454 0.78581 0.0
C1818 C 0.26406 0.21487 0.85714 0.0
C1819 C 0.26057 0.21215 0.8778 0.0
C1820 C 0.25727 0.19264 0.88538 0.0
C1821 C 0.25687 0.17606 0.87254 0.0
C1822 C 0.25959 0.17931 0.85213 0.0
C1823 C 0.26315 0.19821 0.84444 0.0
C1824 C 0.26365 0.19787 0.82177 0.0
C1825 C 0.24697 0.21109 0.81291 0.0
C1826 C 0.28436 0.20416 0.81391 0.0
C1827 C 0.25966 0.17587 0.81794 0.0
C1828 C 0.25755 0.16541 0.83565 0.0
C1829 C 0.25336 0.14497 0.83595 0.0
C1830 C 0.25142 0.13489 0.81763 0.0
C1831 C 0.2535 0.1453 0.79926 0.0
C1832 C 0.25763 0.16609 0.79954 0.0
H1833 H 0.79165 0.24945 0.84551 0.0
H1834 H 0.81265 0.30627 0.86869 0.0
H1835 H 0.83411 0.31054 0.83855 0.0
H1836 H 0.83652 0.23291 0.82131 0.0
H1837 H 0.82369 0.22281 0.79982 0.0
H1838 H 0.81126 0.22367 0.82374 0.0
H1839 H 0.782 0.24367 0.80813 0.0
H1840 H 0.7942 0.24277 0.7841 0.0
H1841 H 0.78719 0.26655 0.79478 0.0
H1842 H 0.8541 0.30754 0.80635 0.0
H1843 H 0.86722 0.3004 0.77238 0.0
H1844 H 0.82968 0.24753 0.76897 0.0
C1845 C 0.80082 0.26276 0.84421 0.0
C1846 C 0.80084 0.27748 0.85931 0.0
C1847 C 0.81268 0.29485 0.85717 0.0
C1848 C 0.82489 0.29732 0.8402 0.0
C1849 C 0.82457 0.28246 0.82549 0.0
C1850 C 0.81249 0.26573 0.82716 0.0
C1851 C 0.81358 0.25272 0.80865 0.0
C1852 C 0.82175 0.23179 0.81369 0.0
C1853 C 0.79303 0.25136 0.7983 0.0
C1854 C 0.82836 0.26462 0.79631 0.0
C1855 C 0.83484 0.28151 0.80642 0.0
C1856 C 0.84901 0.29447 0.79823 0.0
C1857 C 0.85646 0.29025 0.77904 0.0
C1858 C 0.84935 0.2735 0.7682 0.0
C1859 C 0.83522 0.2605 0.77699 0.0
H1860 H 0.73293 0.8139 0.77876 0.0
H1861 H 0.75128 0.86797 0.81001 0.0
H1862 H 0.75104 0.8495 0.84194 0.0
H1863 H 0.6992 0.79609 0.81596 0.0
H1864 H 0.70564 0.77007 0.81266 0.0
H1865 H 0.70798 0.78724 0.79201 0.0
H1866 H 0.74534 0.77746 0.7878 0.0
H1867 H 0.74303 0.76012 0.80832 0.0
H1868 H 0.76198 0.77932 0.80896 0.0
H1869 H 0.7492 0.82533 0.87034 0.0
H1870 H 0.74568 0.79676 0.89355 0.0
H1871 H 0.72669 0.75902 0.84417 0.0
C1872 C 0.73702 0.82187 0.79228 0.0
C1873 C 0.74212 0.84242 0.79185 0.0
C1874 C 0.74728 0.85225 0.80993 0.0
C1875 C 0.7472 0.8419 0.82816 0.0
C1876 C 0.74185 0.82176 0.82807 0.0
C1877 C 0.73687 0.81181 0.81063 0.0
C1878 C 0.73149 0.79016 0.81472 0.0
C1879 C 0.70979 0.78564 0.80847 0.0
C1880 C 0.74634 0.77593 0.80434 0.0
C1881 C 0.73394 0.78961 0.83725 0.0
C1882 C 0.74015 0.80794 0.84459 0.0
C1883 C 0.74423 0.81093 0.86481 0.0
C1884 C 0.74216 0.79465 0.87786 0.0
C1885 C 0.73583 0.77575 0.87066 0.0
C1886 C 0.73138 0.77333 0.85014 0.0
H1887 H 0.76946 0.71962 0.1662 0.0
H1888 H 0.80451 0.74463 0.11759 0.0
H1889 H 0.83274 0.75027 0.14082 0.0
H1890 H 0.78377 0.75525 0.20133 0.0
H1891 H 0.78433 0.73843 0.22243 0.0
H1892 H 0.7681 0.73326 0.20156 0.0
H1893 H 0.78413 0.69839 0.19761 0.0
H1894 H 0.80087 0.70318 0.21822 0.0
H1895 H 0.81077 0.69618 0.19411 0.0
H1896 H 0.85595 0.75579 0.16966 0.0
H1897 H 0.87243 0.7613 0.20231 0.0
H1898 H 0.82131 0.7345 0.23234 0.0
C1899 C 0.78326 0.72576 0.16035 0.0
C1900 C 0.78496 0.7315 0.1401 0.0
C1901 C 0.80304 0.74001 0.13307 0.0
C1902 C 0.81913 0.74324 0.14613 0.0
C1903 C 0.81679 0.73802 0.16617 0.0
C1904 C 0.79931 0.72947 0.17328 0.0
C1905 C 0.79987 0.72712 0.19582 0.0
C1906 C 0.78302 0.73924 0.20586 0.0
C1907 C 0.79886 0.7049 0.20179 0.0
C1908 C 0.82025 0.73601 0.20026 0.0
C1909 C 0.82988 0.74194 0.18295 0.0
C1910 C 0.84865 0.75107 0.18333 0.0
C1911 C 0.85785 0.75421 0.20194 0.0
C1912 C 0.84813 0.74848 0.21989 0.0
C1913 C 0.8291 0.73921 0.21892 0.0
H1914 H 0.2825 0.76482 0.15242 0.0
H1915 H 0.25204 0.80845 0.11516 0.0
H1916 H 0.25249 0.83263 0.14302 0.0
H1917 H 0.25574 0.77476 0.19599 0.0
H1918 H 0.2764 0.77178 0.21311 0.0
H1919 H 0.27645 0.75869 0.18956 0.0
H1920 H 0.31073 0.77446 0.18066 0.0
H1921 H 0.31086 0.78756 0.20425 0.0
H1922 H 0.3136 0.80131 0.18121 0.0
H1923 H 0.25348 0.85093 0.1751 0.0
H1924 H 0.25498 0.86264 0.20997 0.0
H1925 H 0.28392 0.807 0.22735 0.0
C1926 C 0.27642 0.77964 0.15 0.0
C1927 C 0.26737 0.78487 0.1316 0.0
C1928 C 0.25911 0.80421 0.12912 0.0
C1929 C 0.25933 0.81805 0.14483 0.0
C1930 C 0.26783 0.8123 0.16296 0.0
C1931 C 0.27632 0.79361 0.16567 0.0
C1932 C 0.28305 0.79079 0.1872 0.0
C1933 C 0.27225 0.77295 0.19703 0.0
C1934 C 0.30592 0.78839 0.18839 0.0
C1935 C 0.27639 0.81055 0.1962 0.0
C1936 C 0.26796 0.82281 0.18184 0.0
C1937 C 0.26021 0.84157 0.18648 0.0
C1938 C 0.2611 0.84807 0.20637 0.0
C1939 C 0.2695 0.83575 0.22146 0.0
C1940 C 0.27732 0.81675 0.21621 0.0
H1941 H 0.71419 0.18219 0.22557 0.0
H1942 H 0.72939 0.12362 0.2017 0.0
H1943 H 0.72612 0.13682 0.1674 0.0
H1944 H 0.67777 0.19585 0.18577 0.0
H1945 H 0.6855 0.22169 0.18619 0.0
H1946 H 0.68696 0.20681 0.20867 0.0
H1947 H 0.72479 0.21584 0.2116 0.0
H1948 H 0.72319 0.2304 0.18902 0.0
H1949 H 0.74125 0.21046 0.19089 0.0
H1950 H 0.7255 0.15696 0.13629 0.0
H1951 H 0.72828 0.1831 0.11033 0.0
H1952 H 0.71087 0.22813 0.15365 0.0
C1953 C 0.71674 0.1721 0.21313 0.0
C1954 C 0.72216 0.15188 0.21632 0.0
C1955 C 0.72523 0.13916 0.19964 0.0
C1956 C 0.72328 0.14648 0.18009 0.0
C1957 C 0.71794 0.16647 0.17748 0.0
C1958 C 0.71463 0.17911 0.19351 0.0
C1959 C 0.71029 0.20027 0.18656 0.0
C1960 C 0.68885 0.20652 0.19214 0.0
C1961 C 0.7258 0.2151 0.19502 0.0
C1962 C 0.71252 0.19771 0.16413 0.0
C1963 C 0.71673 0.17802 0.15924 0.0
C1964 C 0.72172 0.17232 0.13982 0.0
C1965 C 0.72322 0.18723 0.12518 0.0
C1966 C 0.71952 0.20751 0.12999 0.0
C1967 C 0.71331 0.21269 0.1495 0.0
H1968 H 0.71976 0.6915 0.77486 0.0
H1969 H 0.69989 0.63915 0.74169 0.0
H1970 H 0.66609 0.65367 0.73911 0.0
H1971 H 0.67351 0.6989 0.80286 0.0
H1972 H 0.675 0.72582 0.80163 0.0
H1973 H 0.69757 0.71107 0.80155 0.0
H1974 H 0.70866 0.728 0.76845 0.0
H1975 H 0.68617 0.74284 0.76849 0.0
H1976 H 0.69212 0.72747 0.74712 0.0
H1977 H 0.63523 0.6747 0.73799 0.0
H1978 H 0.60905 0.70081 0.73902 0.0
H1979 H 0.64828 0.73869 0.77433 0.0
C1980 C 0.70829 0.68302 0.76713 0.0
C1981 C 0.71253 0.66415 0.75848 0.0
C1982 C 0.69705 0.65358 0.74851 0.0
C1983 C 0.67777 0.6617 0.74697 0.0
C1984 C 0.67413 0.6803 0.75563 0.0
C1985 C 0.68891 0.69082 0.76559 0.0
C1986 C 0.68112 0.71074 0.77318 0.0
C1987 C 0.68184 0.71167 0.79617 0.0
C1988 C 0.6927 0.72829 0.76374 0.0
C1989 C 0.65975 0.70988 0.76563 0.0
C1990 C 0.65605 0.6922 0.75553 0.0
C1991 C 0.63783 0.68849 0.7461 0.0
C1992 C 0.62307 0.70338 0.74676 0.0
C1993 C 0.62658 0.72164 0.75693 0.0
C1994 C 0.64503 0.72474 0.76677 0.0
H1995 H 0.25848 0.66102 0.76946 0.0
H1996 H 0.30446 0.61582 0.76213 0.0
H1997 H 0.33055 0.64197 0.76402 0.0
H1998 H 0.28101 0.69528 0.73711 0.0
H1999 H 0.27378 0.71741 0.75073 0.0
H2000 H 0.25867 0.69514 0.75228 0.0
H2001 H 0.26229 0.69379 0.79139 0.0
H2002 H 0.27506 0.71731 0.78893 0.0
H2003 H 0.28682 0.69689 0.80219 0.0
H2004 H 0.35137 0.6731 0.76362 0.0
H2005 H 0.36565 0.70715 0.7617 0.0
H2006 H 0.30583 0.73217 0.76736 0.0
C2007 C 0.27405 0.6566 0.76887 0.0
C2008 C 0.27955 0.63643 0.76595 0.0
C2009 C 0.30004 0.63123 0.7646 0.0
C2010 C 0.31493 0.64596 0.76562 0.0
C2011 C 0.30903 0.66584 0.76772 0.0
C2012 C 0.28909 0.67119 0.76936 0.0
C2013 C 0.28665 0.69372 0.76947 0.0
C2014 C 0.2743 0.70079 0.75132 0.0
C2015 C 0.27719 0.70084 0.7892 0.0
C2016 C 0.30835 0.70016 0.76775 0.0
C2017 C 0.32101 0.68385 0.76681 0.0
C2018 C 0.34165 0.68602 0.76452 0.0
C2019 C 0.34961 0.70543 0.76335 0.0
C2020 C 0.33695 0.72239 0.7644 0.0
C2021 C 0.31602 0.71959 0.76659 0.0
H2022 H 0.34009 0.2584 0.7794 0.0
H2023 H 0.38951 0.29979 0.77127 0.0
H2024 H 0.36549 0.3276 0.76718 0.0
H2025 H 0.31017 0.27935 0.74133 0.0
H2026 H 0.28668 0.27524 0.75395 0.0
H2027 H 0.30759 0.25894 0.7588 0.0
H2028 H 0.3051 0.26656 0.79678 0.0
H2029 H 0.28401 0.28271 0.79209 0.0
H2030 H 0.30558 0.2922 0.80524 0.0
H2031 H 0.33633 0.35037 0.76186 0.0
H2032 H 0.30389 0.3669 0.75608 0.0
H2033 H 0.27339 0.31021 0.76574 0.0
C2034 C 0.34588 0.27335 0.7772 0.0
C2035 C 0.36666 0.277 0.77581 0.0
C2036 C 0.37362 0.29674 0.77251 0.0
C2037 C 0.36011 0.3126 0.77014 0.0
C2038 C 0.3397 0.30839 0.77089 0.0
C2039 C 0.33258 0.28927 0.77435 0.0
C2040 C 0.30996 0.28852 0.7729 0.0
C2041 C 0.30321 0.27469 0.75573 0.0
C2042 C 0.30062 0.28213 0.79295 0.0
C2043 C 0.30549 0.31024 0.76821 0.0
C2044 C 0.32285 0.32144 0.76718 0.0
C2045 C 0.3226 0.3418 0.76274 0.0
C2046 C 0.30408 0.35104 0.75944 0.0
C2047 C 0.28603 0.3399 0.7605 0.0
C2048 C 0.28686 0.31919 0.76484 0.0
H2049 H 0.68065 0.28586 0.76729 0.0
H2050 H 0.62145 0.30086 0.74507 0.0
H2051 H 0.63259 0.33579 0.73943 0.0
H2052 H 0.6894 0.33248 0.79343 0.0
H2053 H 0.71567 0.33294 0.78727 0.0
H2054 H 0.70283 0.30935 0.78982 0.0
H2055 H 0.71405 0.29914 0.75404 0.0
H2056 H 0.72706 0.3226 0.75148 0.0
H2057 H 0.70848 0.31546 0.73327 0.0
H2058 H 0.65131 0.36845 0.73396 0.0
H2059 H 0.67572 0.39603 0.72972 0.0
H2060 H 0.72143 0.35969 0.75812 0.0
C2061 C 0.66998 0.29644 0.76121 0.0
C2062 C 0.65021 0.29062 0.75647 0.0
C2063 C 0.63668 0.30501 0.74878 0.0
C2064 C 0.64286 0.32487 0.74557 0.0
C2065 C 0.66249 0.33008 0.75045 0.0
C2066 C 0.67578 0.31627 0.75823 0.0
C2067 C 0.6961 0.32546 0.76205 0.0
C2068 C 0.70129 0.32503 0.78448 0.0
C2069 C 0.71237 0.31505 0.74946 0.0
C2070 C 0.69233 0.34657 0.75488 0.0
C2071 C 0.6729 0.34898 0.74818 0.0
C2072 C 0.66647 0.36682 0.73945 0.0
C2073 C 0.68041 0.38239 0.73713 0.0
C2074 C 0.70043 0.38004 0.74369 0.0
C2075 C 0.70622 0.36208 0.75315 0.0
H2076 H 0.71606 0.3275 0.26158 0.0
H2077 H 0.70688 0.37107 0.21435 0.0
H2078 H 0.6729 0.35744 0.20839 0.0
H2079 H 0.69114 0.28685 0.23938 0.0
H2080 H 0.67978 0.27788 0.26216 0.0
H2081 H 0.70304 0.29147 0.26317 0.0
H2082 H 0.68731 0.31712 0.2877 0.0
H2083 H 0.66413 0.30335 0.28694 0.0
H2084 H 0.66439 0.32966 0.28089 0.0
H2085 H 0.64155 0.33609 0.20499 0.0
H2086 H 0.61295 0.31244 0.20842 0.0
H2087 H 0.64143 0.28581 0.26023 0.0
C2088 C 0.70671 0.33436 0.25023 0.0
C2089 C 0.71393 0.35031 0.23842 0.0
C2090 C 0.70142 0.35897 0.22368 0.0
C2091 C 0.68221 0.35123 0.2201 0.0
C2092 C 0.67566 0.33516 0.2317 0.0
C2093 C 0.68735 0.32718 0.24684 0.0
C2094 C 0.6767 0.31022 0.25744 0.0
C2095 C 0.68837 0.29044 0.2554 0.0
C2096 C 0.6729 0.31541 0.27955 0.0
C2097 C 0.6574 0.30964 0.24563 0.0
C2098 C 0.65715 0.32389 0.23063 0.0
C2099 C 0.64139 0.32515 0.21693 0.0
C2100 C 0.62533 0.31167 0.21888 0.0
C2101 C 0.62511 0.29758 0.23463 0.0
C2102 C 0.64127 0.29662 0.24815 0.0
H2103 H 0.7367 0.65487 0.20895 0.0
H2104 H 0.7033 0.60794 0.23905 0.0
H2105 H 0.6762 0.63185 0.24632 0.0
H2106 H 0.72611 0.69215 0.24398 0.0
H2107 H 0.72387 0.71241 0.22629 0.0
H2108 H 0.73948 0.69122 0.22054 0.0
H2109 H 0.71985 0.68516 0.18764 0.0
H2110 H 0.70444 0.70661 0.19308 0.0
H2111 H 0.69299 0.68261 0.18845 0.0
H2112 H 0.65426 0.66118 0.25331 0.0
H2113 H 0.63765 0.6939 0.2575 0.0
H2114 H 0.68588 0.72237 0.22436 0.0
C2115 C 0.72351 0.64952 0.21666 0.0
C2116 C 0.72219 0.62953 0.22353 0.0
C2117 C 0.70466 0.62318 0.23365 0.0
C2118 C 0.68919 0.63666 0.23792 0.0
C2119 C 0.69144 0.6565 0.23197 0.0
C2120 C 0.70802 0.66292 0.22135 0.0
C2121 C 0.70725 0.68538 0.21793 0.0
C2122 C 0.72524 0.6959 0.22778 0.0
C2123 C 0.70605 0.69021 0.19544 0.0
C2124 C 0.68783 0.69051 0.22855 0.0
C2125 C 0.67891 0.6736 0.23641 0.0
C2126 C 0.661 0.67454 0.24709 0.0
C2127 C 0.65172 0.69322 0.24948 0.0
C2128 C 0.66042 0.71078 0.24135 0.0
C2129 C 0.67885 0.70931 0.23091 0.0
H2130 H 0.27767 0.67787 0.20931 0.0
H2131 H 0.30385 0.62085 0.22643 0.0
H2132 H 0.33761 0.63521 0.22208 0.0
H2133 H 0.3169 0.69167 0.17198 0.0
H2134 H 0.31577 0.71779 0.17875 0.0
H2135 H 0.2937 0.70235 0.18066 0.0
H2136 H 0.28992 0.7122 0.21803 0.0
H2137 H 0.31182 0.72772 0.21614 0.0
H2138 H 0.31066 0.70834 0.23487 0.0
H2139 H 0.36782 0.65677 0.22119 0.0
H2140 H 0.39248 0.68416 0.22383 0.0
H2141 H 0.34737 0.72678 0.205 0.0
C2142 C 0.29049 0.66829 0.21192 0.0
C2143 C 0.28809 0.64823 0.21835 0.0
C2144 C 0.30528 0.63624 0.22151 0.0
C2145 C 0.32452 0.64423 0.21897 0.0
C2146 C 0.32633 0.66413 0.2129 0.0
C2147 C 0.30979 0.67597 0.20926 0.0
C2148 C 0.31582 0.6973 0.20433 0.0
C2149 C 0.31022 0.70259 0.18264 0.0
C2150 C 0.30651 0.71226 0.21924 0.0
C2151 C 0.33832 0.69586 0.20689 0.0
C2152 C 0.34407 0.6765 0.21155 0.0
C2153 C 0.36364 0.67186 0.21702 0.0
C2154 C 0.37753 0.68749 0.21847 0.0
C2155 C 0.37185 0.70745 0.21432 0.0
C2156 C 0.35222 0.71157 0.20772 0.0
H2157 H 0.34637 0.28651 0.24282 0.0
H2158 H 0.31415 0.24509 0.20435 0.0
H2159 H 0.29232 0.27257 0.19309 0.0
H2160 H 0.30345 0.31366 0.25869 0.0
H2161 H 0.31599 0.33755 0.25933 0.0
H2162 H 0.33002 0.3149 0.26326 0.0
H2163 H 0.35387 0.32475 0.23425 0.0
H2164 H 0.33974 0.34735 0.23005 0.0
H2165 H 0.34365 0.32991 0.20982 0.0
H2166 H 0.27313 0.30407 0.18679 0.0
H2167 H 0.25628 0.3369 0.18802 0.0
H2168 H 0.30026 0.35784 0.23107 0.0
C2169 C 0.33481 0.28323 0.23193 0.0
C2170 C 0.33204 0.26361 0.22449 0.0
C2171 C 0.31656 0.25995 0.2104 0.0
C2172 C 0.30415 0.2755 0.20375 0.0
C2173 C 0.30729 0.29464 0.21136 0.0
C2174 C 0.32211 0.29855 0.22527 0.0
C2175 C 0.32147 0.32021 0.23201 0.0
C2176 C 0.31749 0.32166 0.25466 0.0
C2177 C 0.34083 0.33121 0.22618 0.0
C2178 C 0.30377 0.32776 0.21997 0.0
C2179 C 0.296 0.31282 0.20795 0.0
C2180 C 0.27916 0.31593 0.19604 0.0
C2181 C 0.2697 0.33466 0.19683 0.0
C2182 C 0.27695 0.34997 0.20961 0.0
C2183 C 0.29448 0.34654 0.22097 0.0
H2184 H 0.76187 0.65107 0.69189 0.0
H2185 H 0.78892 0.67474 0.74604 0.0
H2186 H 0.78784 0.70877 0.73167 0.0
H2187 H 0.78791 0.68575 0.65712 0.0
H2188 H 0.76643 0.68742 0.64089 0.0
H2189 H 0.77106 0.66479 0.65482 0.0
H2190 H 0.73545 0.66712 0.67013 0.0
H2191 H 0.7308 0.68995 0.65659 0.0
H2192 H 0.7282 0.68945 0.68345 0.0
H2193 H 0.78035 0.74045 0.71292 0.0
H2194 H 0.77127 0.76721 0.68923 0.0
H2195 H 0.75003 0.72262 0.64694 0.0
C2196 C 0.76796 0.66334 0.70057 0.0
C2197 C 0.77529 0.66032 0.72015 0.0
C2198 C 0.78314 0.67674 0.73104 0.0
C2199 C 0.78255 0.69612 0.72302 0.0
C2200 C 0.77441 0.6987 0.704 0.0
C2201 C 0.76769 0.68271 0.69272 0.0
C2202 C 0.7593 0.68955 0.67283 0.0
C2203 C 0.77193 0.6814 0.65539 0.0
C2204 C 0.73713 0.68367 0.67064 0.0
C2205 C 0.76172 0.71194 0.67496 0.0
C2206 C 0.77048 0.71691 0.69303 0.0
C2207 C 0.77371 0.73672 0.69862 0.0
C2208 C 0.76834 0.75183 0.68512 0.0
C2209 C 0.75996 0.74705 0.6662 0.0
C2210 C 0.7564 0.72681 0.66125 0.0
H2211 H 0.3247 0.77713 0.73533 0.0
H2212 H 0.37353 0.78792 0.69399 0.0
H2213 H 0.3498 0.78678 0.66563 0.0
H2214 H 0.30183 0.74009 0.70455 0.0
H2215 H 0.27653 0.74648 0.71141 0.0
H2216 H 0.2967 0.75083 0.72877 0.0
H2217 H 0.28714 0.78837 0.73133 0.0
H2218 H 0.2666 0.78383 0.71448 0.0
H2219 H 0.28493 0.80288 0.70869 0.0
H2220 H 0.32172 0.78216 0.64193 0.0
H2221 H 0.29047 0.77536 0.62372 0.0
H2222 H 0.25981 0.7651 0.68025 0.0
C2223 C 0.33028 0.77966 0.72038 0.0
C2224 C 0.35083 0.7829 0.71675 0.0
C2225 C 0.35773 0.78571 0.69695 0.0
C2226 C 0.34441 0.78497 0.6808 0.0
C2227 C 0.32435 0.78092 0.68476 0.0
C2228 C 0.31728 0.77821 0.70402 0.0
C2229 C 0.29536 0.77232 0.70395 0.0
C2230 C 0.29244 0.75118 0.71269 0.0
C2231 C 0.28273 0.78779 0.7153 0.0
C2232 C 0.29112 0.77269 0.68164 0.0
C2233 C 0.30813 0.77757 0.67091 0.0
C2234 C 0.30824 0.77842 0.65011 0.0
C2235 C 0.2904 0.77444 0.63991 0.0
C2236 C 0.27263 0.7697 0.6505 0.0
C2237 C 0.2731 0.76873 0.67169 0.0
H2238 H 0.26159 0.34494 0.71808 0.0
H2239 H 0.21052 0.37424 0.69104 0.0
H2240 H 0.21074 0.34899 0.66363 0.0
H2241 H 0.28686 0.32974 0.67385 0.0
H2242 H 0.29439 0.30577 0.68372 0.0
H2243 H 0.29078 0.32666 0.70039 0.0
H2244 H 0.26535 0.30616 0.72123 0.0
H2245 H 0.26911 0.28507 0.70489 0.0
H2246 H 0.24423 0.29472 0.7089 0.0
H2247 H 0.21781 0.321 0.63875 0.0
H2248 H 0.22719 0.28969 0.62126 0.0
H2249 H 0.27109 0.27706 0.66738 0.0
C2250 C 0.25021 0.34581 0.70665 0.0
C2251 C 0.23584 0.36121 0.70668 0.0
C2252 C 0.2215 0.36232 0.69119 0.0
C2253 C 0.22163 0.34816 0.6756 0.0
C2254 C 0.23604 0.33301 0.67605 0.0
C2255 C 0.24979 0.33155 0.69144 0.0
C2256 C 0.26296 0.31327 0.68925 0.0
C2257 C 0.28505 0.31923 0.68664 0.0
C2258 C 0.26023 0.29896 0.70712 0.0
C2259 C 0.25447 0.30455 0.67018 0.0
C2260 C 0.23929 0.31639 0.66251 0.0
C2261 C 0.22957 0.31157 0.64469 0.0
C2262 C 0.2351 0.29388 0.63479 0.0
C2263 C 0.24978 0.28105 0.64308 0.0
C2264 C 0.25976 0.28663 0.66081 0.0
H2265 H 0.72171 0.23183 0.67759 0.0
H2266 H 0.68592 0.22809 0.6234 0.0
H2267 H 0.6554 0.22431 0.64402 0.0
H2268 H 0.69452 0.19527 0.70604 0.0
H2269 H 0.69686 0.20876 0.72931 0.0
H2270 H 0.71584 0.21128 0.71032 0.0
H2271 H 0.71109 0.24985 0.71037 0.0
H2272 H 0.69226 0.24743 0.7295 0.0
H2273 H 0.68646 0.26014 0.70644 0.0
H2274 H 0.62864 0.22289 0.67071 0.0
H2275 H 0.60786 0.22333 0.70139 0.0
H2276 H 0.66165 0.22515 0.73768 0.0
C2277 C 0.70749 0.23023 0.66997 0.0
C2278 C 0.70624 0.2303 0.64882 0.0
C2279 C 0.68728 0.22809 0.63956 0.0
C2280 C 0.66987 0.2259 0.65114 0.0
C2281 C 0.67171 0.22576 0.67194 0.0
C2282 C 0.69005 0.22782 0.68125 0.0
C2283 C 0.68801 0.22739 0.70383 0.0
C2284 C 0.69949 0.20961 0.7129 0.0
C2285 C 0.69486 0.24738 0.71307 0.0
C2286 C 0.66561 0.22466 0.70578 0.0
C2287 C 0.65644 0.22399 0.68724 0.0
C2288 C 0.63569 0.2231 0.6853 0.0
C2289 C 0.62402 0.22331 0.70277 0.0
C2290 C 0.63316 0.22405 0.72188 0.0
C2291 C 0.65423 0.22425 0.72334 0.0
H2292 H 0.78587 0.3353 0.26498 0.0
H2293 H 0.7599 0.37796 0.30652 0.0
H2294 H 0.75617 0.351 0.33168 0.0
H2295 H 0.75237 0.29619 0.27626 0.0
H2296 H 0.77064 0.27655 0.27328 0.0
H2297 H 0.77331 0.2996 0.25959 0.0
H2298 H 0.80888 0.30459 0.27447 0.0
H2299 H 0.8063 0.28134 0.28788 0.0
H2300 H 0.81226 0.30403 0.30123 0.0
H2301 H 0.75381 0.3188 0.35165 0.0
H2302 H 0.75233 0.28409 0.36448 0.0
H2303 H 0.7781 0.26264 0.30877 0.0
C2304 C 0.77966 0.3391 0.27944 0.0
C2305 C 0.77323 0.35878 0.28381 0.0
C2306 C 0.76501 0.36301 0.30289 0.0
C2307 C 0.76283 0.34779 0.31726 0.0
C2308 C 0.76882 0.32843 0.31223 0.0
C2309 C 0.77704 0.32407 0.29376 0.0
C2310 C 0.78097 0.30186 0.29145 0.0
C2311 C 0.76858 0.29304 0.27413 0.0
C2312 C 0.80344 0.29771 0.2886 0.0
C2313 C 0.77362 0.29436 0.31153 0.0
C2314 C 0.76683 0.3099 0.32339 0.0
C2315 C 0.75915 0.30653 0.34251 0.0
C2316 C 0.75837 0.28676 0.34968 0.0
C2317 C 0.76504 0.2706 0.33765 0.0
C2318 C 0.77279 0.2746 0.31835 0.0
H2319 H 0.63698 0.75754 0.3096 0.0
H2320 H 0.65787 0.79271 0.25913 0.0
H2321 H 0.69009 0.79831 0.27644 0.0
H2322 H 0.66359 0.78678 0.34951 0.0
H2323 H 0.6688 0.76439 0.36364 0.0
H2324 H 0.64638 0.76599 0.34869 0.0
H2325 H 0.65661 0.7334 0.33018 0.0
H2326 H 0.67914 0.73188 0.34483 0.0
H2327 H 0.68062 0.73218 0.31789 0.0
H2328 H 0.72142 0.79559 0.29671 0.0
H2329 H 0.74907 0.7866 0.31944 0.0
H2330 H 0.70758 0.75377 0.35717 0.0
C2331 C 0.6481 0.76691 0.30243 0.0
C2332 C 0.64496 0.7747 0.28303 0.0
C2333 C 0.65997 0.78664 0.27401 0.0
C2334 C 0.6783 0.78991 0.28374 0.0
C2335 C 0.68119 0.78136 0.30256 0.0
C2336 C 0.6664 0.77035 0.31195 0.0
C2337 C 0.67384 0.76137 0.3314 0.0
C2338 C 0.66247 0.77016 0.34937 0.0
C2339 C 0.67247 0.73835 0.33103 0.0
C2340 C 0.69536 0.76838 0.33111 0.0
C2341 C 0.69925 0.78003 0.31443 0.0
C2342 C 0.71845 0.78682 0.31001 0.0
C2343 C 0.73408 0.78147 0.32292 0.0
C2344 C 0.73041 0.76954 0.34009 0.0
C2345 C 0.71073 0.76318 0.34435 0.0
H2346 H 0.21664 0.72397 0.30904 0.0
H2347 H 0.25195 0.70232 0.35915 0.0
H2348 H 0.25367 0.66892 0.34335 0.0
H2349 H 0.18863 0.67641 0.30102 0.0
H2350 H 0.18832 0.68006 0.27428 0.0
H2351 H 0.18839 0.70134 0.29086 0.0
H2352 H 0.22017 0.7147 0.2724 0.0
H2353 H 0.22017 0.69307 0.25636 0.0
H2354 H 0.24208 0.69901 0.27096 0.0
H2355 H 0.25391 0.63893 0.32104 0.0
H2356 H 0.25251 0.61406 0.29383 0.0
H2357 H 0.21664 0.65492 0.25823 0.0
C2358 C 0.22463 0.71218 0.31677 0.0
C2359 C 0.23427 0.71579 0.3353 0.0
C2360 C 0.24442 0.6999 0.34499 0.0
C2361 C 0.24545 0.68088 0.33615 0.0
C2362 C 0.23601 0.67792 0.31777 0.0
C2363 C 0.22563 0.69306 0.30827 0.0
C2364 C 0.21734 0.68611 0.2883 0.0
C2365 C 0.19431 0.68598 0.28863 0.0
C2366 C 0.22543 0.69899 0.27099 0.0
C2367 C 0.22558 0.66498 0.28759 0.0
C2368 C 0.23601 0.66049 0.30491 0.0
C2369 C 0.24561 0.64218 0.30751 0.0
C2370 C 0.24475 0.62817 0.29194 0.0
C2371 C 0.23444 0.63253 0.27393 0.0
C2372 C 0.22449 0.65109 0.27188 0.0
H2373 H 0.27631 0.23851 0.34662 0.0
H2374 H 0.23693 0.20953 0.30383 0.0
H2375 H 0.26621 0.20061 0.28299 0.0
H2376 H 0.30837 0.26036 0.31032 0.0
H2377 H 0.33063 0.25748 0.32531 0.0
H2378 H 0.30664 0.26011 0.33726 0.0
H2379 H 0.31266 0.22686 0.3564 0.0
H2380 H 0.33657 0.22396 0.34426 0.0
H2381 H 0.31811 0.20435 0.34254 0.0
H2382 H 0.30015 0.195 0.26689 0.0
H2383 H 0.33497 0.19724 0.2545 0.0
H2384 H 0.35136 0.23151 0.3072 0.0
C2385 C 0.27384 0.23015 0.33295 0.0
C2386 C 0.25438 0.22453 0.32694 0.0
C2387 C 0.25173 0.21395 0.30874 0.0
C2388 C 0.26827 0.20869 0.29688 0.0
C2389 C 0.28731 0.21429 0.30339 0.0
C2390 C 0.29009 0.22505 0.32085 0.0
C2391 C 0.31182 0.2306 0.32383 0.0
C2392 C 0.31451 0.25349 0.32419 0.0
C2393 C 0.32029 0.22085 0.34289 0.0
C2394 C 0.32087 0.22145 0.30521 0.0
C2395 C 0.3066 0.21178 0.29377 0.0
C2396 C 0.31146 0.20254 0.2757 0.0
C2397 C 0.33129 0.20385 0.26882 0.0
C2398 C 0.34583 0.21471 0.27981 0.0
C2399 C 0.34058 0.2231 0.29848 0.0
H2400 H 0.68904 0.7749 0.62635 0.0
H2401 H 0.73287 0.81764 0.64813 0.0
H2402 H 0.71323 0.82176 0.67919 0.0
H2403 H 0.64391 0.79893 0.65 0.0
H2404 H 0.63293 0.77486 0.65536 0.0
H2405 H 0.64857 0.77801 0.63358 0.0
H2406 H 0.67101 0.74881 0.6457 0.0
H2407 H 0.65575 0.74577 0.66766 0.0
H2408 H 0.68227 0.75006 0.6702 0.0
H2409 H 0.69237 0.81657 0.70987 0.0
H2410 H 0.66992 0.80505 0.73687 0.0
H2411 H 0.63881 0.76652 0.69486 0.0
C2412 C 0.69418 0.78565 0.63734 0.0
C2413 C 0.71254 0.79591 0.63484 0.0
C2414 C 0.71886 0.80965 0.64969 0.0
C2415 C 0.70779 0.81207 0.6674 0.0
C2416 C 0.69028 0.80092 0.66981 0.0
C2417 C 0.68328 0.78829 0.65501 0.0
C2418 C 0.66498 0.77676 0.66192 0.0
C2419 C 0.6465 0.78249 0.64948 0.0
C2420 C 0.66874 0.75401 0.66134 0.0
C2421 C 0.66321 0.78429 0.68322 0.0
C2422 C 0.67791 0.79828 0.68743 0.0
C2423 C 0.68054 0.80598 0.70662 0.0
C2424 C 0.66783 0.79922 0.72188 0.0
C2425 C 0.6526 0.785 0.71786 0.0
C2426 C 0.6501 0.77768 0.69821 0.0
H2427 H 0.69506 0.23228 0.35584 0.0
H2428 H 0.73786 0.19428 0.32503 0.0
H2429 H 0.71798 0.19714 0.29398 0.0
H2430 H 0.65026 0.21355 0.33073 0.0
H2431 H 0.63873 0.23793 0.32983 0.0
H2432 H 0.65574 0.23181 0.34985 0.0
H2433 H 0.6773 0.2629 0.34094 0.0
H2434 H 0.66046 0.269 0.32081 0.0
H2435 H 0.68676 0.26569 0.31581 0.0
H2436 H 0.6949 0.20637 0.26578 0.0
H2437 H 0.66895 0.21936 0.2429 0.0
H2438 H 0.6408 0.25066 0.29241 0.0
C2439 C 0.70008 0.22427 0.34266 0.0
C2440 C 0.71797 0.21302 0.34283 0.0
C2441 C 0.72416 0.20293 0.32524 0.0
C2442 C 0.71299 0.2045 0.30753 0.0
C2443 C 0.69566 0.21611 0.30777 0.0
C2444 C 0.68912 0.22565 0.32492 0.0
C2445 C 0.67032 0.2377 0.32107 0.0
C2446 C 0.65272 0.22977 0.33361 0.0
C2447 C 0.67394 0.26015 0.32489 0.0
C2448 C 0.66732 0.23352 0.29904 0.0
C2449 C 0.68217 0.22113 0.29162 0.0
C2450 C 0.6831 0.21591 0.27146 0.0
C2451 C 0.66838 0.22346 0.25859 0.0
C2452 C 0.65287 0.23593 0.26597 0.0
C2453 C 0.65234 0.24095 0.28646 0.0
H2454 H 0.79523 0.66055 0.27927 0.0
H2455 H 0.73127 0.65821 0.26845 0.0
H2456 H 0.72529 0.67819 0.29905 0.0
H2457 H 0.79339 0.65728 0.33326 0.0
H2458 H 0.81346 0.67488 0.33731 0.0
H2459 H 0.81283 0.66011 0.31474 0.0
H2460 H 0.81434 0.69248 0.29346 0.0
H2461 H 0.81489 0.70738 0.31595 0.0
H2462 H 0.79586 0.71177 0.29732 0.0
H2463 H 0.726 0.69717 0.33033 0.0
H2464 H 0.73289 0.71554 0.36127 0.0
H2465 H 0.79684 0.70786 0.35212 0.0
C2466 C 0.78002 0.66414 0.28361 0.0
C2467 C 0.76359 0.65771 0.27199 0.0
C2468 C 0.74389 0.66288 0.27754 0.0
C2469 C 0.74041 0.67423 0.29477 0.0
C2470 C 0.75686 0.68043 0.306 0.0
C2471 C 0.77629 0.67572 0.30071 0.0
C2472 C 0.79117 0.68474 0.31538 0.0
C2473 C 0.80343 0.66827 0.32579 0.0
C2474 C 0.80487 0.7 0.3049 0.0
C2475 C 0.77699 0.69496 0.32991 0.0
C2476 C 0.75731 0.69216 0.32407 0.0
C2477 C 0.74131 0.69949 0.33509 0.0
C2478 C 0.74544 0.70981 0.35273 0.0
C2479 C 0.76542 0.71293 0.35919 0.0
C2480 C 0.78146 0.70567 0.34748 0.0
H2481 H 0.30082 0.7562 0.35347 0.0
H2482 H 0.25625 0.79689 0.32947 0.0
H2483 H 0.27406 0.79717 0.29702 0.0
H2484 H 0.34392 0.77865 0.32695 0.0
H2485 H 0.35582 0.75474 0.32302 0.0
H2486 H 0.34024 0.75864 0.3447 0.0
H2487 H 0.31879 0.72791 0.33463 0.0
H2488 H 0.33409 0.72409 0.31276 0.0
H2489 H 0.3074 0.72713 0.31016 0.0
H2490 H 0.29433 0.79067 0.26669 0.0
H2491 H 0.31859 0.78095 0.24079 0.0
H2492 H 0.35145 0.74579 0.28453 0.0
C2493 C 0.29503 0.7655 0.34152 0.0
C2494 C 0.27704 0.77641 0.34388 0.0
C2495 C 0.26989 0.78829 0.32787 0.0
C2496 C 0.27988 0.78856 0.30944 0.0
C2497 C 0.29716 0.77713 0.30738 0.0
C2498 C 0.30495 0.76611 0.32304 0.0
C2499 C 0.32367 0.75494 0.31665 0.0
C2500 C 0.342 0.76218 0.32853 0.0
C2501 C 0.32081 0.73217 0.31867 0.0
C2502 C 0.32496 0.76118 0.29486 0.0
C2503 C 0.3094 0.77387 0.28986 0.0
C2504 C 0.30673 0.78095 0.27047 0.0
C2505 C 0.32052 0.77517 0.25582 0.0
C2506 C 0.33694 0.76259 0.26063 0.0
C2507 C 0.33914 0.75551 0.28045 0.0
H2508 H 0.20155 0.26427 0.33122 0.0
H2509 H 0.22578 0.30525 0.3754 0.0
H2510 H 0.23127 0.33048 0.3491 0.0
H2511 H 0.23682 0.27394 0.2951 0.0
H2512 H 0.22054 0.27261 0.2736 0.0
H2513 H 0.2144 0.25892 0.29598 0.0
H2514 H 0.17986 0.27633 0.29784 0.0
H2515 H 0.18563 0.28971 0.27513 0.0
H2516 H 0.17848 0.30329 0.29733 0.0
H2517 H 0.2388 0.34906 0.31841 0.0
H2518 H 0.24489 0.36207 0.28459 0.0
H2519 H 0.21694 0.30903 0.25919 0.0
C2520 C 0.20732 0.27881 0.33541 0.0
C2521 C 0.21315 0.28293 0.35533 0.0
C2522 C 0.22109 0.30194 0.36022 0.0
C2523 C 0.22432 0.31632 0.34539 0.0
C2524 C 0.21957 0.31142 0.32571 0.0
C2525 C 0.21095 0.29329 0.32062 0.0
C2526 C 0.20906 0.29128 0.29803 0.0
C2527 C 0.22092 0.27311 0.29023 0.0
C2528 C 0.18694 0.2901 0.29172 0.0
C2529 C 0.21853 0.31085 0.29136 0.0
C2530 C 0.2243 0.32222 0.30764 0.0
C2531 C 0.23405 0.3405 0.3055 0.0
C2532 C 0.23755 0.34769 0.28618 0.0
C2533 C 0.23137 0.33663 0.26915 0.0
C2534 C 0.22191 0.31783 0.27185 0.0
H2535 H 0.32518 0.21645 0.72181 0.0
H2536 H 0.37847 0.24856 0.70309 0.0
H2537 H 0.36589 0.24876 0.66814 0.0
H2538 H 0.32122 0.18507 0.67795 0.0
H2539 H 0.29424 0.18574 0.67781 0.0
H2540 H 0.30766 0.18796 0.7011 0.0
H2541 H 0.28961 0.22153 0.70864 0.0
H2542 H 0.27597 0.21933 0.68552 0.0
H2543 H 0.29059 0.24146 0.69046 0.0
H2544 H 0.34581 0.24747 0.63568 0.0
H2545 H 0.32068 0.244 0.60864 0.0
H2546 H 0.28222 0.21056 0.64892 0.0
C2547 C 0.33423 0.22358 0.7104 0.0
C2548 C 0.35271 0.23267 0.71515 0.0
C2549 C 0.36425 0.24153 0.69972 0.0
C2550 C 0.35723 0.2417 0.67988 0.0
C2551 C 0.33886 0.23262 0.67574 0.0
C2552 C 0.32764 0.22359 0.6906 0.0
C2553 C 0.30837 0.21497 0.68247 0.0
C2554 C 0.30785 0.19208 0.68498 0.0
C2555 C 0.29006 0.22492 0.69236 0.0
C2556 C 0.31023 0.22087 0.66072 0.0
C2557 C 0.32786 0.23109 0.65707 0.0
C2558 C 0.3321 0.23923 0.63831 0.0
C2559 C 0.31777 0.23717 0.62305 0.0
C2560 C 0.29952 0.22696 0.62665 0.0
C2561 C 0.29604 0.21832 0.6456 0.0
H2562 H 0.76613 0.26864 0.64056 0.0
H2563 H 0.73536 0.29813 0.59157 0.0
H2564 H 0.73208 0.32875 0.61206 0.0
H2565 H 0.73454 0.28707 0.67798 0.0
H2566 H 0.75379 0.28986 0.69668 0.0
H2567 H 0.75641 0.27129 0.67733 0.0
H2568 H 0.79056 0.28647 0.66716 0.0
H2569 H 0.78824 0.30527 0.68637 0.0
H2570 H 0.79216 0.31262 0.6607 0.0
H2571 H 0.73018 0.35526 0.63855 0.0
H2572 H 0.72951 0.37577 0.66934 0.0
H2573 H 0.75952 0.32796 0.70161 0.0
C2574 C 0.75911 0.28167 0.63399 0.0
C2575 C 0.75112 0.28112 0.61445 0.0
C2576 C 0.74168 0.29835 0.6065 0.0
C2577 C 0.73974 0.31577 0.61801 0.0
C2578 C 0.74717 0.31562 0.63749 0.0
C2579 C 0.75667 0.29902 0.64543 0.0
C2580 C 0.76175 0.30213 0.66729 0.0
C2581 C 0.75098 0.28667 0.68059 0.0
C2582 C 0.78453 0.30159 0.67057 0.0
C2583 C 0.75344 0.32297 0.67042 0.0
C2584 C 0.74532 0.33058 0.65301 0.0
C2585 C 0.73657 0.34951 0.65227 0.0
C2586 C 0.73623 0.36102 0.66983 0.0
C2587 C 0.74433 0.35342 0.68788 0.0
C2588 C 0.75301 0.33412 0.68809 0.0
H2589 H 0.22033 0.68404 0.71722 0.0
H2590 H 0.24457 0.63035 0.68955 0.0
H2591 H 0.24227 0.64644 0.65646 0.0
H2592 H 0.18511 0.69586 0.67782 0.0
H2593 H 0.18884 0.72253 0.67952 0.0
H2594 H 0.19209 0.70705 0.70137 0.0
H2595 H 0.2281 0.72064 0.70619 0.0
H2596 H 0.22475 0.73654 0.6847 0.0
H2597 H 0.24558 0.71943 0.68566 0.0
H2598 H 0.23923 0.66862 0.62678 0.0
H2599 H 0.23621 0.69606 0.60224 0.0
H2600 H 0.21182 0.73468 0.64843 0.0
C2601 C 0.2252 0.67565 0.70422 0.0
C2602 C 0.23267 0.65589 0.70604 0.0
C2603 C 0.23878 0.64546 0.6886 0.0
C2604 C 0.23748 0.65445 0.6697 0.0
C2605 C 0.22988 0.67382 0.66844 0.0
C2606 C 0.22386 0.68434 0.68519 0.0
C2607 C 0.21658 0.70514 0.67962 0.0
C2608 C 0.19433 0.70779 0.6849 0.0
C2609 C 0.22953 0.72139 0.68963 0.0
C2610 C 0.21974 0.70469 0.65714 0.0
C2611 C 0.22743 0.68646 0.65106 0.0
C2612 C 0.23297 0.68287 0.63129 0.0
C2613 C 0.23116 0.69851 0.61746 0.0
C2614 C 0.22369 0.71743 0.6234 0.0
C2615 C 0.21734 0.72033 0.64337 0.0
H2616 H 0.16245 0.36396 0.20197 0.0
H2617 H 0.18561 0.39615 0.25324 0.0
H2618 H 0.15687 0.38519 0.27318 0.0
H2619 H 0.1048 0.36771 0.21844 0.0
H2620 H 0.10108 0.34289 0.20849 0.0
H2621 H 0.11795 0.36001 0.19616 0.0
H2622 H 0.14614 0.3335 0.19854 0.0
H2623 H 0.12967 0.31657 0.211 0.0
H2624 H 0.15293 0.32361 0.22274 0.0
H2625 H 0.13728 0.35932 0.2902 0.0
H2626 H 0.12437 0.32625 0.30055 0.0
H2627 H 0.1092 0.31308 0.23901 0.0
C2628 C 0.16067 0.36978 0.21699 0.0
C2629 C 0.1764 0.38057 0.22609 0.0
C2630 C 0.17378 0.38787 0.24583 0.0
C2631 C 0.15743 0.38162 0.25739 0.0
C2632 C 0.14342 0.36876 0.24877 0.0
C2633 C 0.14431 0.3637 0.22865 0.0
C2634 C 0.12972 0.347 0.2238 0.0
C2635 C 0.11235 0.35488 0.21097 0.0
C2636 C 0.14026 0.32915 0.21347 0.0
C2637 C 0.12258 0.34169 0.24467 0.0
C2638 C 0.13031 0.35464 0.2589 0.0
C2639 C 0.13011 0.34975 0.27927 0.0
C2640 C 0.12276 0.33091 0.2851 0.0
C2641 C 0.11524 0.31744 0.27064 0.0
C2642 C 0.11398 0.32353 0.25046 0.0
H2643 H 0.67203 0.13038 0.23846 0.0
H2644 H 0.65294 0.13167 0.30024 0.0
H2645 H 0.6207 0.14683 0.28992 0.0
H2646 H 0.65999 0.1771 0.23061 0.0
H2647 H 0.6527 0.17495 0.20471 0.0
H2648 H 0.66981 0.15722 0.2152 0.0
H2649 H 0.64637 0.12815 0.20461 0.0
H2650 H 0.6291 0.14597 0.19397 0.0
H2651 H 0.62053 0.12821 0.2124 0.0
H2652 H 0.59453 0.16807 0.27429 0.0
H2653 H 0.58108 0.19791 0.25768 0.0
H2654 H 0.61917 0.18648 0.20634 0.0
C2655 C 0.66044 0.13265 0.24958 0.0
C2656 C 0.6644 0.12902 0.26999 0.0
C2657 C 0.64972 0.13361 0.28447 0.0
C2658 C 0.6314 0.14221 0.27867 0.0
C2659 C 0.62829 0.14659 0.25841 0.0
C2660 C 0.6426 0.1421 0.2441 0.0
C2661 C 0.63847 0.15289 0.22456 0.0
C2662 C 0.65628 0.16633 0.21846 0.0
C2663 C 0.6333 0.1379 0.2079 0.0
C2664 C 0.6203 0.16513 0.23041 0.0
C2665 C 0.61407 0.16054 0.24964 0.0
C2666 C 0.59908 0.17153 0.25913 0.0
C2667 C 0.59142 0.18852 0.24945 0.0
C2668 C 0.59928 0.1948 0.23073 0.0
C2669 C 0.61276 0.18204 0.22055 0.0
H2670 H 0.83585 0.65059 0.20129 0.0
H2671 H 0.82905 0.60779 0.2496 0.0
H2672 H 0.85782 0.62264 0.26684 0.0
H2673 H 0.89482 0.6563 0.20773 0.0
H2674 H 0.89256 0.68241 0.20128 0.0
H2675 H 0.8766 0.66413 0.18942 0.0
H2676 H 0.84564 0.68441 0.20052 0.0
H2677 H 0.86117 0.70245 0.21268 0.0
H2678 H 0.84194 0.68977 0.22675 0.0
H2679 H 0.87576 0.64963 0.28438 0.0
H2680 H 0.88616 0.68277 0.29728 0.0
H2681 H 0.88653 0.70603 0.23691 0.0
C2682 C 0.84122 0.64357 0.21488 0.0
C2683 C 0.83 0.62821 0.22415 0.0
C2684 C 0.83732 0.61954 0.24208 0.0
C2685 C 0.85373 0.62794 0.25209 0.0
C2686 C 0.86323 0.64446 0.24359 0.0
C2687 C 0.85785 0.65162 0.22488 0.0
C2688 C 0.8684 0.6712 0.22033 0.0
C2689 C 0.88403 0.66833 0.20371 0.0
C2690 C 0.85339 0.68791 0.2148 0.0
C2691 C 0.87847 0.67511 0.24029 0.0
C2692 C 0.87562 0.65937 0.25347 0.0
C2693 C 0.87923 0.66157 0.27399 0.0
C2694 C 0.88516 0.68041 0.28126 0.0
C2695 C 0.88798 0.69657 0.26795 0.0
C2696 C 0.8856 0.69351 0.24719 0.0
H2697 H 0.36701 0.82295 0.20115 0.0
H2698 H 0.40991 0.81166 0.24848 0.0
H2699 H 0.39921 0.84233 0.26551 0.0
H2700 H 0.36624 0.88239 0.20774 0.0
H2701 H 0.3398 0.88199 0.20236 0.0
H2702 H 0.35643 0.8649 0.18967 0.0
H2703 H 0.33453 0.83512 0.20145 0.0
H2704 H 0.3181 0.8519 0.21414 0.0
H2705 H 0.32985 0.83185 0.22785 0.0
H2706 H 0.37503 0.86256 0.28373 0.0
H2707 H 0.34279 0.87291 0.29843 0.0
H2708 H 0.31674 0.87581 0.23934 0.0
C2709 C 0.37499 0.8276 0.21446 0.0
C2710 C 0.38897 0.81465 0.22364 0.0
C2711 C 0.39902 0.82118 0.24115 0.0
C2712 C 0.39302 0.83871 0.25098 0.0
C2713 C 0.37739 0.84991 0.24284 0.0
C2714 C 0.36903 0.84506 0.22448 0.0
C2715 C 0.35005 0.85696 0.22079 0.0
C2716 C 0.35334 0.87249 0.20415 0.0
C2717 C 0.33212 0.84313 0.21582 0.0
C2718 C 0.34764 0.86713 0.24094 0.0
C2719 C 0.36386 0.86336 0.25332 0.0
C2720 C 0.36276 0.86666 0.27398 0.0
C2721 C 0.34441 0.87264 0.28229 0.0
C2722 C 0.3276 0.87579 0.26989 0.0
C2723 C 0.32975 0.87448 0.24894 0.0
H2724 H 0.12761 0.65504 0.68786 0.0
H2725 H 0.09332 0.67352 0.73952 0.0
H2726 H 0.10324 0.64309 0.75716 0.0
H2727 H 0.12554 0.59491 0.70225 0.0
H2728 H 0.15053 0.59292 0.69227 0.0
H2729 H 0.13231 0.60867 0.68004 0.0
H2730 H 0.15692 0.63841 0.68241 0.0
H2731 H 0.17487 0.6231 0.69473 0.0
H2732 H 0.16643 0.64584 0.70661 0.0
H2733 H 0.12964 0.62518 0.77388 0.0
H2734 H 0.16396 0.61743 0.78481 0.0
H2735 H 0.18085 0.60553 0.72354 0.0
C2736 C 0.12109 0.65181 0.70233 0.0
C2737 C 0.11038 0.66687 0.71257 0.0
C2738 C 0.10181 0.66234 0.73139 0.0
C2739 C 0.10747 0.64496 0.74163 0.0
C2740 C 0.12104 0.63194 0.73252 0.0
C2741 C 0.12684 0.63448 0.71272 0.0
C2742 C 0.14456 0.62117 0.70772 0.0
C2743 C 0.13783 0.60335 0.69481 0.0
C2744 C 0.16167 0.63286 0.69733 0.0
C2745 C 0.15029 0.61417 0.72854 0.0
C2746 C 0.13601 0.61972 0.74256 0.0
C2747 C 0.1404 0.61973 0.76305 0.0
C2748 C 0.15999 0.61537 0.76922 0.0
C2749 C 0.17484 0.61059 0.75498 0.0
C2750 C 0.16947 0.60845 0.73469 0.0
H2751 H 0.37515 0.1753 0.73998 0.0
H2752 H 0.37813 0.1612 0.80295 0.0
H2753 H 0.36476 0.12745 0.7961 0.0
H2754 H 0.33024 0.16274 0.73523 0.0
H2755 H 0.33042 0.15247 0.71026 0.0
H2756 H 0.34924 0.16999 0.71745 0.0
H2757 H 0.37691 0.14456 0.70795 0.0
H2758 H 0.35793 0.1268 0.70056 0.0
H2759 H 0.37669 0.11978 0.71864 0.0
H2760 H 0.34216 0.10112 0.78513 0.0
H2761 H 0.30945 0.08899 0.77378 0.0
H2762 H 0.31669 0.12141 0.71809 0.0
C2763 C 0.37429 0.16445 0.75199 0.0
C2764 C 0.37827 0.17036 0.77182 0.0
C2765 C 0.37576 0.15656 0.78759 0.0
C2766 C 0.36819 0.13735 0.78375 0.0
C2767 C 0.36271 0.13241 0.76414 0.0
C2768 C 0.36569 0.14568 0.74843 0.0
C2769 C 0.3534 0.13983 0.73026 0.0
C2770 C 0.34004 0.15727 0.72294 0.0
C2771 C 0.36705 0.13228 0.71335 0.0
C2772 C 0.34122 0.12278 0.73896 0.0
C2773 C 0.34783 0.11779 0.75797 0.0
C2774 C 0.33715 0.10457 0.77011 0.0
C2775 C 0.31849 0.09767 0.76348 0.0
C2776 C 0.3104 0.10456 0.74514 0.0
C2777 C 0.32262 0.1159 0.73213 0.0
H2778 H 0.79587 0.38876 0.69892 0.0
H2779 H 0.81887 0.39984 0.75832 0.0
H2780 H 0.85172 0.38621 0.74812 0.0
H2781 H 0.80955 0.34339 0.69851 0.0
H2782 H 0.81561 0.34056 0.67236 0.0
H2783 H 0.79848 0.35959 0.67997 0.0
H2784 H 0.82052 0.38654 0.66283 0.0
H2785 H 0.83781 0.36732 0.65503 0.0
H2786 H 0.84668 0.38855 0.66914 0.0
H2787 H 0.8776 0.36361 0.73548 0.0
H2788 H 0.89016 0.33052 0.72571 0.0
H2789 H 0.84848 0.32919 0.67609 0.0
C2790 C 0.80835 0.38957 0.70926 0.0
C2791 C 0.80526 0.396 0.7291 0.0
C2792 C 0.82128 0.3956 0.74285 0.0
C2793 C 0.83997 0.3879 0.73709 0.0
C2794 C 0.84216 0.38013 0.71775 0.0
C2795 C 0.8266 0.38081 0.70403 0.0
C2796 C 0.83006 0.3664 0.68683 0.0
C2797 C 0.8124 0.35163 0.68433 0.0
C2798 C 0.83402 0.37789 0.6673 0.0
C2799 C 0.84888 0.35602 0.69401 0.0
C2800 C 0.85639 0.3651 0.71109 0.0
C2801 C 0.87213 0.35667 0.7219 0.0
C2802 C 0.87926 0.3378 0.71616 0.0
C2803 C 0.87012 0.32725 0.7002 0.0
C2804 C 0.8558 0.33709 0.6882 0.0
H2805 H 0.68472 0.88291 0.77602 0.0
H2806 H 0.67111 0.88668 0.71294 0.0
H2807 H 0.63598 0.87761 0.71994 0.0
H2808 H 0.66658 0.83981 0.78131 0.0
H2809 H 0.65659 0.84177 0.80633 0.0
H2810 H 0.67631 0.85806 0.7987 0.0
H2811 H 0.65457 0.88884 0.80791 0.0
H2812 H 0.63455 0.87239 0.81556 0.0
H2813 H 0.62996 0.89162 0.7972 0.0
H2814 H 0.60674 0.85915 0.73138 0.0
H2815 H 0.5912 0.82801 0.7427 0.0
H2816 H 0.62453 0.8314 0.7982 0.0
C2817 C 0.6739 0.88311 0.76395 0.0
C2818 C 0.68027 0.88607 0.74407 0.0
C2819 C 0.66626 0.885 0.72832 0.0
C2820 C 0.64625 0.87994 0.73226 0.0
C2821 C 0.64064 0.87551 0.75196 0.0
C2822 C 0.65421 0.87698 0.7676 0.0
C2823 C 0.64686 0.8658 0.78595 0.0
C2824 C 0.66249 0.85045 0.79345 0.0
C2825 C 0.64114 0.88055 0.80264 0.0
C2826 C 0.62839 0.85575 0.77743 0.0
C2827 C 0.62419 0.86281 0.75838 0.0
C2828 C 0.60968 0.85378 0.74638 0.0
C2829 C 0.60082 0.83599 0.75303 0.0
C2830 C 0.60717 0.82696 0.77115 0.0
C2831 C 0.61953 0.83799 0.78428 0.0
H2832 H 0.23618 0.17943 0.3854 0.0
H2833 H 0.17499 0.16927 0.36673 0.0
H2834 H 0.18351 0.13436 0.35829 0.0
H2835 H 0.25436 0.16472 0.34507 0.0
H2836 H 0.27721 0.15329 0.35384 0.0
H2837 H 0.26535 0.17205 0.36864 0.0
H2838 H 0.26357 0.14766 0.39872 0.0
H2839 H 0.27569 0.12862 0.38386 0.0
H2840 H 0.25203 0.12343 0.39578 0.0
H2841 H 0.19964 0.10569 0.34251 0.0
H2842 H 0.22012 0.09151 0.31568 0.0
H2843 H 0.27215 0.12261 0.33862 0.0
C2844 C 0.22428 0.16947 0.38071 0.0
C2845 C 0.20486 0.17693 0.377 0.0
C2846 C 0.18988 0.16375 0.37002 0.0
C2847 C 0.19465 0.14383 0.36527 0.0
C2848 C 0.21454 0.13748 0.36714 0.0
C2849 C 0.22919 0.15009 0.37467 0.0
C2850 C 0.25002 0.14279 0.3693 0.0
C2851 C 0.26239 0.15916 0.35855 0.0
C2852 C 0.26097 0.13516 0.38803 0.0
C2853 C 0.24478 0.12559 0.35551 0.0
C2854 C 0.22439 0.12172 0.35583 0.0
C2855 C 0.21563 0.10835 0.34243 0.0
C2856 C 0.2275 0.10027 0.32717 0.0
C2857 C 0.2477 0.10634 0.3249 0.0
C2858 C 0.25677 0.11775 0.34017 0.0
H2859 H 0.88785 0.225 0.31379 0.0
H2860 H 0.88216 0.28392 0.33969 0.0
H2861 H 0.87065 0.26898 0.37128 0.0
H2862 H 0.84487 0.21309 0.32195 0.0
H2863 H 0.84702 0.18678 0.32766 0.0
H2864 H 0.86608 0.1987 0.31338 0.0
H2865 H 0.89292 0.18752 0.33896 0.0
H2866 H 0.87372 0.17517 0.35341 0.0
H2867 H 0.8899 0.19331 0.36514 0.0
H2868 H 0.84772 0.25133 0.39281 0.0
H2869 H 0.81482 0.23617 0.39832 0.0
H2870 H 0.82984 0.18832 0.35732 0.0
C2871 C 0.88561 0.23452 0.32672 0.0
C2872 C 0.8861 0.25551 0.3245 0.0
C2873 C 0.88226 0.26777 0.34126 0.0
C2874 C 0.87561 0.25929 0.35928 0.0
C2875 C 0.87238 0.2386 0.36012 0.0
C2876 C 0.87751 0.22626 0.34419 0.0
C2877 C 0.86686 0.20621 0.34558 0.0
C2878 C 0.85553 0.20097 0.32603 0.0
C2879 C 0.88174 0.18957 0.35111 0.0
C2880 C 0.85273 0.21035 0.36284 0.0
C2881 C 0.85728 0.22839 0.37206 0.0
C2882 C 0.84434 0.237 0.38604 0.0
C2883 C 0.82555 0.2282 0.38913 0.0
C2884 C 0.81965 0.21129 0.37782 0.0
C2885 C 0.83409 0.20128 0.36608 0.0
H2886 H 0.70214 0.85537 0.34245 0.0
H2887 H 0.74989 0.89405 0.32184 0.0
H2888 H 0.77104 0.88292 0.34968 0.0
H2889 H 0.71791 0.85728 0.40018 0.0
H2890 H 0.71049 0.83142 0.40241 0.0
H2891 H 0.69663 0.84812 0.38633 0.0
H2892 H 0.7019 0.82359 0.35678 0.0
H2893 H 0.71596 0.80709 0.37239 0.0
H2894 H 0.72704 0.81669 0.34974 0.0
H2895 H 0.79051 0.8576 0.36791 0.0
H2896 H 0.80388 0.82503 0.37924 0.0
H2897 H 0.74376 0.80555 0.3934 0.0
C2898 C 0.71654 0.86247 0.34468 0.0
C2899 C 0.72438 0.8754 0.32995 0.0
C2900 C 0.74342 0.88422 0.33302 0.0
C2901 C 0.75566 0.8779 0.34883 0.0
C2902 C 0.74834 0.86337 0.36193 0.0
C2903 C 0.7288 0.85648 0.36064 0.0
C2904 C 0.72555 0.83863 0.37425 0.0
C2905 C 0.71184 0.84421 0.39184 0.0
C2906 C 0.71716 0.82046 0.36259 0.0
C2907 C 0.7468 0.83506 0.38137 0.0
C2908 C 0.75976 0.84965 0.37438 0.0
C2909 C 0.78051 0.8467 0.37453 0.0
C2910 C 0.78807 0.82816 0.38102 0.0
C2911 C 0.77492 0.81303 0.38777 0.0
C2912 C 0.75424 0.8172 0.38922 0.0
H2913 H 0.18708 0.73262 0.377 0.0
H2914 H 0.16202 0.79215 0.37483 0.0
H2915 H 0.12948 0.77808 0.36451 0.0
H2916 H 0.17383 0.72207 0.33331 0.0
H2917 H 0.16863 0.69571 0.33593 0.0
H2918 H 0.18522 0.70764 0.35309 0.0
H2919 H 0.16337 0.6959 0.38292 0.0
H2920 H 0.14658 0.68365 0.36566 0.0
H2921 H 0.137 0.7016 0.38339 0.0
H2922 H 0.10477 0.76041 0.34437 0.0
H2923 H 0.09377 0.744 0.31348 0.0
H2924 H 0.13596 0.69585 0.32401 0.0
C2925 C 0.17423 0.74243 0.37581 0.0
C2926 C 0.17674 0.76333 0.37733 0.0
C2927 C 0.16013 0.77604 0.37438 0.0
C2928 C 0.1416 0.76808 0.36846 0.0
C2929 C 0.14011 0.74746 0.36501 0.0
C2930 C 0.15612 0.73475 0.36863 0.0
C2931 C 0.15335 0.71478 0.35813 0.0
C2932 C 0.17128 0.70982 0.3443 0.0
C2933 C 0.14986 0.69799 0.37344 0.0
C2934 C 0.13444 0.71899 0.34633 0.0
C2935 C 0.12634 0.73737 0.35151 0.0
C2936 C 0.11074 0.74585 0.34052 0.0
C2937 C 0.10454 0.73634 0.32288 0.0
C2938 C 0.11437 0.71883 0.31603 0.0
C2939 C 0.12817 0.7092 0.32887 0.0
H2940 H 0.19881 0.83119 0.63451 0.0
H2941 H 0.24538 0.82447 0.58989 0.0
H2942 H 0.26095 0.85558 0.60137 0.0
H2943 H 0.20239 0.89133 0.63707 0.0
H2944 H 0.19748 0.88973 0.66356 0.0
H2945 H 0.18525 0.87272 0.6465 0.0
H2946 H 0.1986 0.84279 0.66714 0.0
H2947 H 0.21104 0.85938 0.68395 0.0
H2948 H 0.22522 0.84039 0.67101 0.0
H2949 H 0.27889 0.8754 0.62617 0.0
H2950 H 0.29383 0.88502 0.65851 0.0
H2951 H 0.23512 0.88419 0.68574 0.0
C2952 C 0.21155 0.83699 0.62636 0.0
C2953 C 0.22105 0.82515 0.61165 0.0
C2954 C 0.23779 0.83312 0.60131 0.0
C2955 C 0.24681 0.85092 0.60776 0.0
C2956 C 0.23853 0.86101 0.62405 0.0
C2957 C 0.22065 0.85487 0.63264 0.0
C2958 C 0.21678 0.86591 0.65209 0.0
C2959 C 0.19945 0.88081 0.64965 0.0
C2960 C 0.21271 0.85125 0.66955 0.0
C2961 C 0.23654 0.87685 0.65455 0.0
C2962 C 0.24871 0.87435 0.63794 0.0
C2963 C 0.26924 0.87849 0.63881 0.0
C2964 C 0.27769 0.88403 0.65725 0.0
C2965 C 0.26555 0.88583 0.67446 0.0
C2966 C 0.24459 0.88376 0.67258 0.0
H2967 H 0.19897 0.25656 0.61483 0.0
H2968 H 0.18395 0.19369 0.6165 0.0
H2969 H 0.15054 0.20203 0.63008 0.0
H2970 H 0.18636 0.26407 0.66027 0.0
H2971 H 0.17697 0.28933 0.65831 0.0
H2972 H 0.1945 0.28028 0.64028 0.0
H2973 H 0.17004 0.28885 0.61156 0.0
H2974 H 0.15223 0.29811 0.62963 0.0
H2975 H 0.14489 0.27904 0.61199 0.0
H2976 H 0.12353 0.21566 0.65108 0.0
H2977 H 0.10928 0.23092 0.68133 0.0
H2978 H 0.14437 0.28449 0.67101 0.0
C2979 C 0.188 0.24476 0.61674 0.0
C2980 C 0.19352 0.2246 0.61386 0.0
C2981 C 0.17958 0.20925 0.6179 0.0
C2982 C 0.1606 0.21393 0.62562 0.0
C2983 C 0.15606 0.23397 0.62975 0.0
C2984 C 0.16953 0.24918 0.6255 0.0
C2985 C 0.16408 0.26835 0.6364 0.0
C2986 C 0.18149 0.2759 0.64961 0.0
C2987 C 0.1574 0.28454 0.6215 0.0
C2988 C 0.1466 0.26111 0.64885 0.0
C2989 C 0.1414 0.24166 0.64384 0.0
C2990 C 0.1272 0.231 0.65481 0.0
C2991 C 0.11911 0.23986 0.67202 0.0
C2992 C 0.12582 0.2589 0.67853 0.0
C2993 C 0.13885 0.27003 0.66619 0.0
H2994 H 0.7687 0.11819 0.69408 0.0
H2995 H 0.70871 0.10593 0.67344 0.0
H2996 H 0.71846 0.11565 0.6392 0.0
H2997 H 0.76975 0.1614 0.6769 0.0
H2998 H 0.79563 0.16347 0.66947 0.0
H2999 H 0.78869 0.14584 0.68826 0.0
H3000 H 0.80452 0.11716 0.66755 0.0
H3001 H 0.81178 0.13503 0.64864 0.0
H3002 H 0.79713 0.1134 0.64187 0.0
H3003 H 0.73013 0.13634 0.61165 0.0
H3004 H 0.73909 0.16861 0.59676 0.0
H3005 H 0.79029 0.17279 0.63638 0.0
C3006 C 0.75816 0.11615 0.68192 0.0
C3007 C 0.73821 0.11071 0.68607 0.0
C3008 C 0.72423 0.10942 0.67031 0.0
C3009 C 0.72973 0.11497 0.65081 0.0
C3010 C 0.74908 0.12232 0.64749 0.0
C3011 C 0.76316 0.12289 0.66274 0.0
C3012 C 0.78034 0.13686 0.65758 0.0
C3013 C 0.78372 0.15282 0.67401 0.0
C3014 C 0.79958 0.12489 0.65367 0.0
C3015 C 0.7725 0.14596 0.63835 0.0
C3016 C 0.75527 0.1363 0.63202 0.0
C3017 C 0.74381 0.14371 0.61622 0.0
C3018 C 0.74907 0.16219 0.60782 0.0
C3019 C 0.76524 0.17343 0.6157 0.0
C3020 C 0.7779 0.16447 0.63007 0.0
H3021 H 0.80205 0.74474 0.62258 0.0
H3022 H 0.83198 0.80169 0.61532 0.0
H3023 H 0.86256 0.78748 0.6306 0.0
H3024 H 0.81429 0.74064 0.66913 0.0
H3025 H 0.81694 0.71381 0.6705 0.0
H3026 H 0.80133 0.72466 0.65166 0.0
H3027 H 0.8214 0.70659 0.62395 0.0
H3028 H 0.83717 0.6954 0.64279 0.0
H3029 H 0.8482 0.70958 0.62264 0.0
H3030 H 0.8861 0.77047 0.65357 0.0
H3031 H 0.89782 0.75537 0.68496 0.0
H3032 H 0.85088 0.71065 0.68095 0.0
C3033 C 0.81554 0.75375 0.62294 0.0
C3034 C 0.81501 0.77404 0.61705 0.0
C3035 C 0.83238 0.78592 0.6191 0.0
C3036 C 0.84979 0.77791 0.62779 0.0
C3037 C 0.84939 0.75816 0.63476 0.0
C3038 C 0.83257 0.74624 0.63249 0.0
C3039 C 0.83359 0.72781 0.64572 0.0
C3040 C 0.8155 0.72671 0.6601 0.0
C3041 C 0.8352 0.70871 0.63301 0.0
C3042 C 0.85294 0.73186 0.65681 0.0
C3043 C 0.86231 0.74889 0.6496 0.0
C3044 C 0.87911 0.75691 0.65905 0.0
C3045 C 0.88572 0.74814 0.67694 0.0
C3046 C 0.87517 0.73186 0.68557 0.0
C3047 C 0.85937 0.72295 0.67467 0.0
H3048 H 0.33927 0.28903 0.14595 0.0
H3049 H 0.32921 0.23797 0.10739 0.0
H3050 H 0.3623 0.22482 0.11603 0.0
H3051 H 0.4 0.28667 0.14228 0.0
H3052 H 0.40091 0.29428 0.16816 0.0
H3053 H 0.3822 0.30466 0.15167 0.0
H3054 H 0.35445 0.29347 0.17632 0.0
H3055 H 0.37281 0.28319 0.19263 0.0
H3056 H 0.3529 0.26744 0.18341 0.0
H3057 H 0.38513 0.20997 0.13967 0.0
H3058 H 0.3953 0.19763 0.17276 0.0
H3059 H 0.39611 0.25833 0.19515 0.0
C3060 C 0.34467 0.27572 0.13844 0.0
C3061 C 0.33158 0.26436 0.12637 0.0
C3062 C 0.33892 0.24699 0.11674 0.0
C3063 C 0.35784 0.23938 0.12158 0.0
C3064 C 0.36949 0.24959 0.13563 0.0
C3065 C 0.36356 0.26796 0.14328 0.0
C3066 C 0.3763 0.27386 0.16111 0.0
C3067 C 0.39072 0.29087 0.15545 0.0
C3068 C 0.36334 0.27977 0.17941 0.0
C3069 C 0.38771 0.2545 0.16445 0.0
C3070 C 0.38433 0.24099 0.14904 0.0
C3071 C 0.38869 0.22062 0.15135 0.0
C3072 C 0.39458 0.21364 0.17025 0.0
C3073 C 0.39638 0.22706 0.18649 0.0
C3074 C 0.39517 0.24783 0.18284 0.0
H3075 H 0.35202 0.79478 0.83433 0.0
H3076 H 0.39358 0.74849 0.81618 0.0
H3077 H 0.38469 0.7288 0.84577 0.0
H3078 H 0.35541 0.78242 0.89328 0.0
H3079 H 0.32913 0.78827 0.89521 0.0
H3080 H 0.34494 0.8024 0.87846 0.0
H3081 H 0.32081 0.79425 0.84926 0.0
H3082 H 0.30522 0.77995 0.86553 0.0
H3083 H 0.3155 0.76843 0.8434 0.0
H3084 H 0.36104 0.70878 0.86512 0.0
H3085 H 0.32917 0.69362 0.87601 0.0
H3086 H 0.30507 0.75273 0.88693 0.0
C3087 C 0.36019 0.78113 0.83739 0.0
C3088 C 0.37316 0.77306 0.82279 0.0
C3089 C 0.38354 0.75507 0.82709 0.0
C3090 C 0.37853 0.74367 0.84396 0.0
C3091 C 0.3637 0.75081 0.85681 0.0
C3092 C 0.35537 0.76966 0.85431 0.0
C3093 C 0.33731 0.77241 0.86776 0.0
C3094 C 0.34199 0.78725 0.88469 0.0
C3095 C 0.31865 0.7791 0.85577 0.0
C3096 C 0.3351 0.75133 0.87591 0.0
C3097 C 0.35074 0.73915 0.86986 0.0
C3098 C 0.34928 0.71826 0.87097 0.0
C3099 C 0.33111 0.70968 0.87721 0.0
C3100 C 0.31482 0.72199 0.88271 0.0
C3101 C 0.31754 0.74295 0.88355 0.0
H3102 H 0.22292 0.31272 0.88079 0.0
H3103 H 0.28492 0.32994 0.88687 0.0
H3104 H 0.27754 0.36239 0.8708 0.0
H3105 H 0.22115 0.32227 0.83464 0.0
H3106 H 0.19574 0.33112 0.83246 0.0
H3107 H 0.20242 0.31504 0.85271 0.0
H3108 H 0.18957 0.34131 0.87816 0.0
H3109 H 0.18262 0.35755 0.85773 0.0
H3110 H 0.19888 0.36663 0.87725 0.0
H3111 H 0.26671 0.38705 0.84611 0.0
H3112 H 0.25657 0.39739 0.8124 0.0
H3113 H 0.20235 0.36218 0.81783 0.0
C3114 C 0.23452 0.32403 0.87999 0.0
C3115 C 0.25427 0.31933 0.88567 0.0
C3116 C 0.26957 0.33367 0.88322 0.0
C3117 C 0.26542 0.35214 0.87409 0.0
C3118 C 0.24603 0.35575 0.86702 0.0
C3119 C 0.23077 0.34196 0.86986 0.0
C3120 C 0.21324 0.34607 0.85603 0.0
C3121 C 0.20789 0.32754 0.84321 0.0
C3122 C 0.195 0.35333 0.86801 0.0
C3123 C 0.22186 0.36289 0.84349 0.0
C3124 C 0.24017 0.36916 0.85095 0.0
C3125 C 0.25222 0.38258 0.84041 0.0
C3126 C 0.24627 0.38844 0.82117 0.0
C3127 C 0.22875 0.38034 0.81239 0.0
C3128 C 0.21574 0.36865 0.82428 0.0
H3129 H 0.64986 0.21638 0.83683 0.0
H3130 H 0.61501 0.26965 0.82482 0.0
H3131 H 0.62872 0.28551 0.85506 0.0
H3132 H 0.65103 0.22317 0.89594 0.0
H3133 H 0.67626 0.21358 0.89604 0.0
H3134 H 0.65812 0.20374 0.8786 0.0
H3135 H 0.68218 0.21185 0.84926 0.0
H3136 H 0.70016 0.22175 0.86636 0.0
H3137 H 0.69107 0.23717 0.84616 0.0
H3138 H 0.65537 0.2997 0.87598 0.0
H3139 H 0.68913 0.30877 0.88791 0.0
H3140 H 0.70474 0.24602 0.89101 0.0
C3141 C 0.64424 0.23091 0.84133 0.0
C3142 C 0.63147 0.24179 0.82852 0.0
C3143 C 0.62461 0.26091 0.83453 0.0
C3144 C 0.63239 0.27008 0.85174 0.0
C3145 C 0.64649 0.25969 0.86313 0.0
C3146 C 0.65176 0.24013 0.8586 0.0
C3147 C 0.66961 0.23342 0.87086 0.0
C3148 C 0.66337 0.21754 0.88628 0.0
C3149 C 0.68674 0.22564 0.85736 0.0
C3150 C 0.67505 0.25293 0.88109 0.0
C3151 C 0.66129 0.26785 0.87684 0.0
C3152 C 0.6657 0.28802 0.88037 0.0
C3153 C 0.68493 0.29312 0.88722 0.0
C3154 C 0.69933 0.27807 0.89086 0.0
C3155 C 0.69371 0.25776 0.88919 0.0
H3156 H 0.78725 0.62307 0.82927 0.0
H3157 H 0.73202 0.60024 0.80455 0.0
H3158 H 0.71513 0.60611 0.83647 0.0
H3159 H 0.77093 0.60991 0.88785 0.0
H3160 H 0.78432 0.63213 0.89528 0.0
H3161 H 0.79434 0.61612 0.87596 0.0
H3162 H 0.79657 0.64657 0.85222 0.0
H3163 H 0.78662 0.66235 0.8712 0.0
H3164 H 0.77431 0.66108 0.84718 0.0
H3165 H 0.70176 0.63041 0.85932 0.0
H3166 H 0.69559 0.66398 0.87313 0.0
H3167 H 0.75805 0.66928 0.88869 0.0
C3168 C 0.772 0.61798 0.83126 0.0
C3169 C 0.76084 0.61171 0.81447 0.0
C3170 C 0.74091 0.60513 0.8172 0.0
C3171 C 0.73112 0.60849 0.83542 0.0
C3172 C 0.74168 0.61771 0.85094 0.0
C3173 C 0.76212 0.62123 0.84952 0.0
C3174 C 0.76917 0.63475 0.86637 0.0
C3175 C 0.78034 0.62249 0.88231 0.0
C3176 C 0.78237 0.65221 0.85873 0.0
C3177 C 0.74916 0.64182 0.87442 0.0
C3178 C 0.73346 0.63103 0.86609 0.0
C3179 C 0.71379 0.63823 0.86684 0.0
C3180 C 0.71032 0.65738 0.87471 0.0
C3181 C 0.72634 0.66885 0.88228 0.0
C3182 C 0.74554 0.66027 0.88367 0.0
H3183 H 0.67651 0.74273 0.11849 0.0
H3184 H 0.67651 0.68208 0.14099 0.0
H3185 H 0.64145 0.68607 0.15167 0.0
H3186 H 0.66258 0.76164 0.15808 0.0
H3187 H 0.64698 0.78184 0.1492 0.0
H3188 H 0.66578 0.77176 0.13323 0.0
H3189 H 0.63907 0.76424 0.10619 0.0
H3190 H 0.61997 0.77446 0.12233 0.0
H3191 H 0.61733 0.74951 0.1124 0.0
H3192 H 0.61281 0.69895 0.16966 0.0
H3193 H 0.60007 0.71871 0.19769 0.0
H3194 H 0.62019 0.77308 0.16886 0.0
C3195 C 0.6686 0.72991 0.12447 0.0
C3196 C 0.67899 0.712 0.12861 0.0
C3197 C 0.66865 0.69578 0.13734 0.0
C3198 C 0.64865 0.69797 0.14337 0.0
C3199 C 0.63936 0.71662 0.14103 0.0
C3200 C 0.64913 0.73241 0.13172 0.0
C3201 C 0.6393 0.75228 0.13668 0.0
C3202 C 0.65456 0.76771 0.14482 0.0
C3203 C 0.62826 0.7606 0.11831 0.0
C3204 C 0.62453 0.74557 0.15252 0.0
C3205 C 0.62348 0.72485 0.15343 0.0
C3206 C 0.61323 0.71513 0.16882 0.0
C3207 C 0.6059 0.72658 0.18476 0.0
C3208 C 0.60966 0.74742 0.18556 0.0
C3209 C 0.61721 0.75716 0.16842 0.0
H3210 H 0.26302 0.61511 0.17321 0.0
H3211 H 0.20072 0.62101 0.15703 0.0
H3212 H 0.2106 0.63368 0.12373 0.0
H3213 H 0.27322 0.65986 0.16149 0.0
H3214 H 0.29857 0.6567 0.15273 0.0
H3215 H 0.28816 0.63893 0.16973 0.0
H3216 H 0.29583 0.61019 0.14483 0.0
H3217 H 0.30644 0.62807 0.12757 0.0
H3218 H 0.28669 0.61154 0.11947 0.0
H3219 H 0.22588 0.65405 0.09738 0.0
H3220 H 0.24201 0.68481 0.08572 0.0
H3221 H 0.29453 0.67081 0.1211 0.0
C3222 C 0.25157 0.61771 0.16202 0.0
C3223 C 0.23117 0.61632 0.16722 0.0
C3224 C 0.21641 0.62125 0.15295 0.0
C3225 C 0.22199 0.62847 0.134 0.0
C3226 C 0.24234 0.63127 0.12983 0.0
C3227 C 0.25696 0.62614 0.14364 0.0
C3228 C 0.27678 0.63614 0.13885 0.0
C3229 C 0.28458 0.64865 0.15673 0.0
C3230 C 0.29235 0.62055 0.13228 0.0
C3231 C 0.27061 0.64921 0.12138 0.0
C3232 C 0.25112 0.64514 0.11554 0.0
C3233 C 0.24122 0.6571 0.10159 0.0
C3234 C 0.25063 0.67463 0.09494 0.0
C3235 C 0.26942 0.68047 0.1029 0.0
C3236 C 0.28019 0.66668 0.11478 0.0
H3237 H 0.79576 0.354 0.17016 0.0
H3238 H 0.74583 0.394 0.18028 0.0
H3239 H 0.73057 0.38302 0.14869 0.0
H3240 H 0.79255 0.35494 0.11073 0.0
H3241 H 0.79931 0.32882 0.11047 0.0
H3242 H 0.80998 0.34536 0.12897 0.0
H3243 H 0.79751 0.32165 0.15704 0.0
H3244 H 0.78671 0.3053 0.13887 0.0
H3245 H 0.77122 0.31556 0.15844 0.0
H3246 H 0.71484 0.35847 0.12619 0.0
H3247 H 0.70309 0.32639 0.11202 0.0
H3248 H 0.76392 0.3042 0.11228 0.0
C3249 C 0.7823 0.36137 0.16497 0.0
C3250 C 0.77198 0.37476 0.17765 0.0
C3251 C 0.75417 0.3839 0.17071 0.0
C3252 C 0.7453 0.37763 0.15275 0.0
C3253 C 0.75476 0.36274 0.14156 0.0
C3254 C 0.77337 0.35531 0.14699 0.0
C3255 C 0.77881 0.33708 0.13463 0.0
C3256 C 0.79619 0.34185 0.12035 0.0
C3257 C 0.78381 0.31886 0.14804 0.0
C3258 C 0.75949 0.33405 0.12314 0.0
C3259 C 0.74588 0.3492 0.12701 0.0
C3260 C 0.72562 0.34709 0.12209 0.0
C3261 C 0.719 0.32882 0.114 0.0
C3262 C 0.73269 0.31308 0.11051 0.0
C3263 C 0.75329 0.31634 0.11391 0.0
loop_
_geom_bond_atom_site_label_1
_geom_bond_atom_site_label_2
_geom_bond_distance
_geom_bond_site_symmetry_2
_ccdc_geom_bond_type
Co0 O1 2.216 . S
Co0 O2 2.091 . S
Co0 O4 2.004 . S
Co0 O10 2.021 . S
Co0 O12 2.137 . S
Co0 O13 2.244 . S
O1 Co0 2.216 . S
O1 C8 1.247 . S
O2 Co0 2.091 . S
O2 C8 1.261 . S
C3 O12 1.247 . S
C3 O13 1.272 . S
O4 Co0 2.004 . S
O4 C9 1.259 . S
Co5 O6 2.061 . S
Co5 O11 2.052 . S
Co5 O13 2.135 . S
O6 Co5 2.061 . S
O6 C9 1.235 . S
C7 O10 1.238 . S
C7 O11 1.241 . S
C8 O1 1.247 . S
C8 O2 1.261 . S
C9 O4 1.259 . S
C9 O6 1.235 . S
O10 Co0 2.021 . S
O10 C7 1.238 . S
O11 Co5 2.052 . S
O11 C7 1.241 . S
O12 Co0 2.137 . S
O12 C3 1.247 . S
O13 Co0 2.244 . S
O13 C3 1.272 . S
O13 Co5 2.135 . S
Co14 O15 2.216 . S
Co14 O16 2.091 . S
Co14 O18 2.004 . S
Co14 O24 2.021 . S
Co14 O26 2.137 . S
Co14 O27 2.244 . S
O15 Co14 2.216 . S
O15 C22 1.247 . S
O16 Co14 2.091 . S
O16 C22 1.261 . S
C17 O26 1.247 . S
C17 O27 1.272 . S
O18 Co14 2.004 . S
O18 C23 1.259 . S
Co19 O20 2.061 . S
Co19 O25 2.052 . S
Co19 O27 2.135 . S
O20 Co19 2.061 . S
O20 C23 1.235 . S
C21 O24 1.238 . S
C21 O25 1.241 . S
C22 O15 1.247 . S
C22 O16 1.261 . S
C23 O18 1.259 . S
C23 O20 1.235 . S
O24 Co14 2.021 . S
O24 C21 1.238 . S
O25 Co19 2.052 . S
O25 C21 1.241 . S
O26 Co14 2.137 . S
O26 C17 1.247 . S
O27 Co14 2.244 . S
O27 C17 1.272 . S
O27 Co19 2.135 . S
Co28 O29 2.216 . S
Co28 O30 2.091 . S
Co28 O32 2.004 . S
Co28 O38 2.021 . S
Co28 O40 2.137 . S
Co28 O41 2.244 . S
O29 Co28 2.216 . S
O29 C36 1.247 . S
O30 Co28 2.091 . S
O30 C36 1.261 . S
C31 O40 1.247 . S
C31 O41 1.272 . S
O32 Co28 2.004 . S
O32 C37 1.259 . S
Co33 O34 2.061 . S
Co33 O39 2.052 . S
Co33 O41 2.135 . S
O34 Co33 2.061 . S
O34 C37 1.235 . S
C35 O38 1.238 . S
C35 O39 1.241 . S
C36 O29 1.247 . S
C36 O30 1.261 . S
C37 O32 1.259 . S
C37 O34 1.235 . S
O38 Co28 2.021 . S
O38 C35 1.238 . S
O39 Co33 2.052 . S
O39 C35 1.241 . S
O40 Co28 2.137 . S
O40 C31 1.247 . S
O41 Co28 2.244 . S
O41 C31 1.272 . S
O41 Co33 2.135 . S
Co42 O43 2.216 . S
Co42 O44 2.091 . S
Co42 O46 2.004 . S
Co42 O52 2.021 . S
Co42 O54 2.137 . S
Co42 O55 2.244 . S
O43 Co42 2.216 . S
O43 C50 1.247 . S
O44 Co42 2.091 . S
O44 C50 1.261 . S
C45 O54 1.247 . S
C45 O55 1.272 . S
O46 Co42 2.004 . S
O46 C51 1.259 . S
Co47 O48 2.061 . S
Co47 O53 2.052 . S
Co47 O55 2.135 . S
O48 Co47 2.061 . S
O48 C51 1.235 . S
C49 O52 1.238 . S
C49 O53 1.241 . S
C50 O43 1.247 . S
C50 O44 1.261 . S
C51 O46 1.259 . S
C51 O48 1.235 . S
O52 Co42 2.021 . S
O52 C49 1.238 . S
O53 Co47 2.052 . S
O53 C49 1.241 . S
O54 Co42 2.137 . S
O54 C45 1.247 . S
O55 Co42 2.244 . S
O55 C45 1.272 . S
O55 Co47 2.135 . S
Co56 O57 2.216 . S
Co56 O58 2.091 . S
Co56 O60 2.004 . S
Co56 O66 2.021 . S
Co56 O68 2.137 . S
Co56 O69 2.244 . S
O57 Co56 2.216 . S
O57 C64 1.247 . S
O58 Co56 2.091 . S
O58 C64 1.261 . S
C59 O68 1.247 . S
C59 O69 1.272 . S
O60 Co56 2.004 . S
O60 C65 1.259 . S
Co61 O62 2.061 . S
Co61 O67 2.052 . S
Co61 O69 2.135 . S
O62 Co61 2.061 . S
O62 C65 1.235 . S
C63 O66 1.238 . S
C63 O67 1.241 . S
C64 O57 1.247 . S
C64 O58 1.261 . S
C65 O60 1.259 . S
C65 O62 1.235 . S
O66 Co56 2.021 . S
O66 C63 1.238 . S
O67 Co61 2.052 . S
O67 C63 1.241 . S
O68 Co56 2.137 . S
O68 C59 1.247 . S
O69 Co56 2.244 . S
O69 C59 1.272 . S
O69 Co61 2.135 . S
Co70 O71 2.216 . S
Co70 O72 2.091 . S
Co70 O74 2.004 . S
Co70 O80 2.021 . S
Co70 O82 2.137 . S
Co70 O83 2.244 . S
O71 Co70 2.216 . S
O71 C78 1.247 . S
O72 Co70 2.091 . S
O72 C78 1.261 . S
C73 O82 1.247 . S
C73 O83 1.272 . S
O74 Co70 2.004 . S
O74 C79 1.259 . S
Co75 O76 2.061 . S
Co75 O81 2.052 . S
Co75 O83 2.135 . S
O76 Co75 2.061 . S
O76 C79 1.235 . S
C77 O80 1.238 . S
C77 O81 1.241 . S
C78 O71 1.247 . S
C78 O72 1.261 . S
C79 O74 1.259 . S
C79 O76 1.235 . S
O80 Co70 2.021 . S
O80 C77 1.238 . S
O81 Co75 2.052 . S
O81 C77 1.241 . S
O82 Co70 2.137 . S
O82 C73 1.247 . S
O83 Co70 2.244 . S
O83 C73 1.272 . S
O83 Co75 2.135 . S
Co84 O85 2.216 . S
Co84 O86 2.091 . S
Co84 O88 2.004 . S
Co84 O94 2.021 . S
Co84 O96 2.137 . S
Co84 O97 2.244 . S
O85 Co84 2.216 . S
O85 C92 1.247 . S
O86 Co84 2.091 . S
O86 C92 1.261 . S
C87 O96 1.247 . S
C87 O97 1.272 . S
O88 Co84 2.004 . S
O88 C93 1.259 . S
Co89 O90 2.061 . S
Co89 O95 2.052 . S
Co89 O97 2.135 . S
O90 Co89 2.061 . S
O90 C93 1.235 . S
C91 O94 1.238 . S
C91 O95 1.241 . S
C92 O85 1.247 . S
C92 O86 1.261 . S
C93 O88 1.259 . S
C93 O90 1.235 . S
O94 Co84 2.021 . S
O94 C91 1.238 . S
O95 Co89 2.052 . S
O95 C91 1.241 . S
O96 Co84 2.137 . S
O96 C87 1.247 . S
O97 Co84 2.244 . S
O97 C87 1.272 . S
O97 Co89 2.135 . S
Co98 O99 2.216 . S
Co98 O100 2.091 . S
Co98 O102 2.004 . S
Co98 O108 2.021 . S
Co98 O110 2.137 . S
Co98 O111 2.244 . S
O99 Co98 2.216 . S
O99 C106 1.247 . S
O100 Co98 2.091 . S
O100 C106 1.261 . S
C101 O110 1.247 . S
C101 O111 1.272 . S
O102 Co98 2.004 . S
O102 C107 1.259 . S
Co103 O104 2.061 . S
Co103 O109 2.052 . S
Co103 O111 2.135 . S
O104 Co103 2.061 . S
O104 C107 1.235 . S
C105 O108 1.238 . S
C105 O109 1.241 . S
C106 O99 1.247 . S
C106 O100 1.261 . S
C107 O102 1.259 . S
C107 O104 1.235 . S
O108 Co98 2.021 . S
O108 C105 1.238 . S
O109 Co103 2.052 . S
O109 C105 1.241 . S
O110 Co98 2.137 . S
O110 C101 1.247 . S
O111 Co98 2.244 . S
O111 C101 1.272 . S
O111 Co103 2.135 . S
Co112 O113 2.216 . S
Co112 O114 2.091 . S
Co112 O116 2.004 . S
Co112 O122 2.021 . S
Co112 O124 2.137 . S
Co112 O125 2.244 . S
O113 Co112 2.216 . S
O113 C120 1.247 . S
O114 Co112 2.091 . S
O114 C120 1.261 . S
C115 O124 1.247 . S
C115 O125 1.272 . S
O116 Co112 2.004 . S
O116 C121 1.259 . S
Co117 O118 2.061 . S
Co117 O123 2.052 . S
Co117 O125 2.135 . S
O118 Co117 2.061 . S
O118 C121 1.235 . S
C119 O122 1.238 . S
C119 O123 1.241 . S
C120 O113 1.247 . S
C120 O114 1.261 . S
C121 O116 1.259 . S
C121 O118 1.235 . S
O122 Co112 2.021 . S
O122 C119 1.238 . S
O123 Co117 2.052 . S
O123 C119 1.241 . S
O124 Co112 2.137 . S
O124 C115 1.247 . S
O125 Co112 2.244 . S
O125 C115 1.272 . S
O125 Co117 2.135 . S
Co126 O127 2.216 . S
Co126 O128 2.091 . S
Co126 O130 2.004 . S
Co126 O136 2.021 . S
Co126 O138 2.137 . S
Co126 O139 2.244 . S
O127 Co126 2.216 . S
O127 C134 1.247 . S
O128 Co126 2.091 . S
O128 C134 1.261 . S
C129 O138 1.247 . S
C129 O139 1.272 . S
O130 Co126 2.004 . S
O130 C135 1.259 . S
Co131 O132 2.061 . S
Co131 O137 2.052 . S
Co131 O139 2.135 . S
O132 Co131 2.061 . S
O132 C135 1.235 . S
C133 O136 1.238 . S
C133 O137 1.241 . S
C134 O127 1.247 . S
C134 O128 1.261 . S
C135 O130 1.259 . S
C135 O132 1.235 . S
O136 Co126 2.021 . S
O136 C133 1.238 . S
O137 Co131 2.052 . S
O137 C133 1.241 . S
O138 Co126 2.137 . S
O138 C129 1.247 . S
O139 Co126 2.244 . S
O139 C129 1.272 . S
O139 Co131 2.135 . S
Co140 O141 2.216 . S
Co140 O142 2.091 . S
Co140 O144 2.004 . S
Co140 O150 2.021 . S
Co140 O152 2.137 . S
Co140 O153 2.244 . S
O141 Co140 2.216 . S
O141 C148 1.247 . S
O142 Co140 2.091 . S
O142 C148 1.261 . S
C143 O152 1.247 . S
C143 O153 1.272 . S
O144 Co140 2.004 . S
O144 C149 1.259 . S
Co145 O146 2.061 . S
Co145 O151 2.052 . S
Co145 O153 2.135 . S
O146 Co145 2.061 . S
O146 C149 1.235 . S
C147 O150 1.238 . S
C147 O151 1.241 . S
C148 O141 1.247 . S
C148 O142 1.261 . S
C149 O144 1.259 . S
C149 O146 1.235 . S
O150 Co140 2.021 . S
O150 C147 1.238 . S
O151 Co145 2.052 . S
O151 C147 1.241 . S
O152 Co140 2.137 . S
O152 C143 1.247 . S
O153 Co140 2.244 . S
O153 C143 1.272 . S
O153 Co145 2.135 . S
Co154 O155 2.216 . S
Co154 O156 2.091 . S
Co154 O158 2.004 . S
Co154 O164 2.021 . S
Co154 O166 2.137 . S
Co154 O167 2.244 . S
O155 Co154 2.216 . S
O155 C162 1.247 . S
O156 Co154 2.091 . S
O156 C162 1.261 . S
C157 O166 1.247 . S
C157 O167 1.272 . S
O158 Co154 2.004 . S
O158 C163 1.259 . S
Co159 O160 2.061 . S
Co159 O165 2.052 . S
Co159 O167 2.135 . S
O160 Co159 2.061 . S
O160 C163 1.235 . S
C161 O164 1.238 . S
C161 O165 1.241 . S
C162 O155 1.247 . S
C162 O156 1.261 . S
C163 O158 1.259 . S
C163 O160 1.235 . S
O164 Co154 2.021 . S
O164 C161 1.238 . S
O165 Co159 2.052 . S
O165 C161 1.241 . S
O166 Co154 2.137 . S
O166 C157 1.247 . S
O167 Co154 2.244 . S
O167 C157 1.272 . S
O167 Co159 2.135 . S
Co168 O169 2.216 . S
Co168 O170 2.091 . S
Co168 O172 2.004 . S
Co168 O178 2.021 . S
Co168 O180 2.137 . S
Co168 O181 2.244 . S
O169 Co168 2.216 . S
O169 C176 1.247 . S
O170 Co168 2.091 . S
O170 C176 1.261 . S
C171 O180 1.247 . S
C171 O181 1.272 . S
O172 Co168 2.004 . S
O172 C177 1.259 . S
Co173 O174 2.061 . S
Co173 O179 2.052 . S
Co173 O181 2.135 . S
O174 Co173 2.061 . S
O174 C177 1.235 . S
C175 O178 1.238 . S
C175 O179 1.241 . S
C176 O169 1.247 . S
C176 O170 1.261 . S
C177 O172 1.259 . S
C177 O174 1.235 . S
O178 Co168 2.021 . S
O178 C175 1.238 . S
O179 Co173 2.052 . S
O179 C175 1.241 . S
O180 Co168 2.137 . S
O180 C171 1.247 . S
O181 Co168 2.244 . S
O181 C171 1.272 . S
O181 Co173 2.135 . S
Co182 O183 2.216 . S
Co182 O184 2.091 . S
Co182 O186 2.004 . S
Co182 O192 2.021 . S
Co182 O194 2.137 . S
Co182 O195 2.244 . S
O183 Co182 2.216 . S
O183 C190 1.247 . S
O184 Co182 2.091 . S
O184 C190 1.261 . S
C185 O194 1.247 . S
C185 O195 1.272 . S
O186 Co182 2.004 . S
O186 C191 1.259 . S
Co187 O188 2.061 . S
Co187 O193 2.052 . S
Co187 O195 2.135 . S
O188 Co187 2.061 . S
O188 C191 1.235 . S
C189 O192 1.238 . S
C189 O193 1.241 . S
C190 O183 1.247 . S
C190 O184 1.261 . S
C191 O186 1.259 . S
C191 O188 1.235 . S
O192 Co182 2.021 . S
O192 C189 1.238 . S
O193 Co187 2.052 . S
O193 C189 1.241 . S
O194 Co182 2.137 . S
O194 C185 1.247 . S
O195 Co182 2.244 . S
O195 C185 1.272 . S
O195 Co187 2.135 . S
Co196 O197 2.216 . S
Co196 O198 2.091 . S
Co196 O200 2.004 . S
Co196 O206 2.021 . S
Co196 O208 2.137 . S
Co196 O209 2.244 . S
O197 Co196 2.216 . S
O197 C204 1.247 . S
O198 Co196 2.091 . S
O198 C204 1.261 . S
C199 O208 1.247 . S
C199 O209 1.272 . S
O200 Co196 2.004 . S
O200 C205 1.259 . S
Co201 O202 2.061 . S
Co201 O207 2.052 . S
Co201 O209 2.135 . S
O202 Co201 2.061 . S
O202 C205 1.235 . S
C203 O206 1.238 . S
C203 O207 1.241 . S
C204 O197 1.247 . S
C204 O198 1.261 . S
C205 O200 1.259 . S
C205 O202 1.235 . S
O206 Co196 2.021 . S
O206 C203 1.238 . S
O207 Co201 2.052 . S
O207 C203 1.241 . S
O208 Co196 2.137 . S
O208 C199 1.247 . S
O209 Co196 2.244 . S
O209 C199 1.272 . S
O209 Co201 2.135 . S
Co210 O211 2.216 . S
Co210 O212 2.091 . S
Co210 O214 2.004 . S
Co210 O220 2.021 . S
Co210 O222 2.137 . S
Co210 O223 2.244 . S
O211 Co210 2.216 . S
O211 C218 1.247 . S
O212 Co210 2.091 . S
O212 C218 1.261 . S
C213 O222 1.247 . S
C213 O223 1.272 . S
O214 Co210 2.004 . S
O214 C219 1.259 . S
Co215 O216 2.061 . S
Co215 O221 2.052 . S
Co215 O223 2.135 . S
O216 Co215 2.061 . S
O216 C219 1.235 . S
C217 O220 1.238 . S
C217 O221 1.241 . S
C218 O211 1.247 . S
C218 O212 1.261 . S
C219 O214 1.259 . S
C219 O216 1.235 . S
O220 Co210 2.021 . S
O220 C217 1.238 . S
O221 Co215 2.052 . S
O221 C217 1.241 . S
O222 Co210 2.137 . S
O222 C213 1.247 . S
O223 Co210 2.244 . S
O223 C213 1.272 . S
O223 Co215 2.135 . S
Co224 O225 2.216 . S
Co224 O226 2.091 . S
Co224 O228 2.004 . S
Co224 O234 2.021 . S
Co224 O236 2.137 . S
Co224 O237 2.244 . S
O225 Co224 2.216 . S
O225 C232 1.247 . S
O226 Co224 2.091 . S
O226 C232 1.261 . S
C227 O236 1.247 . S
C227 O237 1.272 . S
O228 Co224 2.004 . S
O228 C233 1.259 . S
Co229 O230 2.061 . S
Co229 O235 2.052 . S
Co229 O237 2.135 . S
O230 Co229 2.061 . S
O230 C233 1.235 . S
C231 O234 1.238 . S
C231 O235 1.241 . S
C232 O225 1.247 . S
C232 O226 1.261 . S
C233 O228 1.259 . S
C233 O230 1.235 . S
O234 Co224 2.021 . S
O234 C231 1.238 . S
O235 Co229 2.052 . S
O235 C231 1.241 . S
O236 Co224 2.137 . S
O236 C227 1.247 . S
O237 Co224 2.244 . S
O237 C227 1.272 . S
O237 Co229 2.135 . S
Co238 O239 2.216 . S
Co238 O240 2.091 . S
Co238 O242 2.004 . S
Co238 O248 2.021 . S
Co238 O250 2.137 . S
Co238 O251 2.244 . S
O239 Co238 2.216 . S
O239 C246 1.247 . S
O240 Co238 2.091 . S
O240 C246 1.261 . S
C241 O250 1.247 . S
C241 O251 1.272 . S
O242 Co238 2.004 . S
O242 C247 1.259 . S
Co243 O244 2.061 . S
Co243 O249 2.052 . S
Co243 O251 2.135 . S
O244 Co243 2.061 . S
O244 C247 1.235 . S
C245 O248 1.238 . S
C245 O249 1.241 . S
C246 O239 1.247 . S
C246 O240 1.261 . S
C247 O242 1.259 . S
C247 O244 1.235 . S
O248 Co238 2.021 . S
O248 C245 1.238 . S
O249 Co243 2.052 . S
O249 C245 1.241 . S
O250 Co238 2.137 . S
O250 C241 1.247 . S
O251 Co238 2.244 . S
O251 C241 1.272 . S
O251 Co243 2.135 . S
Co252 O253 2.216 . S
Co252 O254 2.091 . S
Co252 O256 2.004 . S
Co252 O262 2.021 . S
Co252 O264 2.137 . S
Co252 O265 2.244 . S
O253 Co252 2.216 . S
O253 C260 1.247 . S
O254 Co252 2.091 . S
O254 C260 1.261 . S
C255 O264 1.247 . S
C255 O265 1.272 . S
O256 Co252 2.004 . S
O256 C261 1.259 . S
Co257 O258 2.061 . S
Co257 O263 2.052 . S
Co257 O265 2.135 . S
O258 Co257 2.061 . S
O258 C261 1.235 . S
C259 O262 1.238 . S
C259 O263 1.241 . S
C260 O253 1.247 . S
C260 O254 1.261 . S
C261 O256 1.259 . S
C261 O258 1.235 . S
O262 Co252 2.021 . S
O262 C259 1.238 . S
O263 Co257 2.052 . S
O263 C259 1.241 . S
O264 Co252 2.137 . S
O264 C255 1.247 . S
O265 Co252 2.244 . S
O265 C255 1.272 . S
O265 Co257 2.135 . S
Co266 O267 2.216 . S
Co266 O268 2.091 . S
Co266 O270 2.004 . S
Co266 O276 2.021 . S
Co266 O278 2.137 . S
Co266 O279 2.244 . S
O267 Co266 2.216 . S
O267 C274 1.247 . S
O268 Co266 2.091 . S
O268 C274 1.261 . S
C269 O278 1.247 . S
C269 O279 1.272 . S
O270 Co266 2.004 . S
O270 C275 1.259 . S
Co271 O272 2.061 . S
Co271 O277 2.052 . S
Co271 O279 2.135 . S
O272 Co271 2.061 . S
O272 C275 1.235 . S
C273 O276 1.238 . S
C273 O277 1.241 . S
C274 O267 1.247 . S
C274 O268 1.261 . S
C275 O270 1.259 . S
C275 O272 1.235 . S
O276 Co266 2.021 . S
O276 C273 1.238 . S
O277 Co271 2.052 . S
O277 C273 1.241 . S
O278 Co266 2.137 . S
O278 C269 1.247 . S
O279 Co266 2.244 . S
O279 C269 1.272 . S
O279 Co271 2.135 . S
Co280 O281 2.216 . S
Co280 O282 2.091 . S
Co280 O284 2.004 . S
Co280 O290 2.021 . S
Co280 O292 2.137 . S
Co280 O293 2.244 . S
O281 Co280 2.216 . S
O281 C288 1.247 . S
O282 Co280 2.091 . S
O282 C288 1.261 . S
C283 O292 1.247 . S
C283 O293 1.272 . S
O284 Co280 2.004 . S
O284 C289 1.259 . S
Co285 O286 2.061 . S
Co285 O291 2.052 . S
Co285 O293 2.135 . S
O286 Co285 2.061 . S
O286 C289 1.235 . S
C287 O290 1.238 . S
C287 O291 1.241 . S
C288 O281 1.247 . S
C288 O282 1.261 . S
C289 O284 1.259 . S
C289 O286 1.235 . S
O290 Co280 2.021 . S
O290 C287 1.238 . S
O291 Co285 2.052 . S
O291 C287 1.241 . S
O292 Co280 2.137 . S
O292 C283 1.247 . S
O293 Co280 2.244 . S
O293 C283 1.272 . S
O293 Co285 2.135 . S
Co294 O295 2.216 . S
Co294 O296 2.091 . S
Co294 O298 2.004 . S
Co294 O304 2.021 . S
Co294 O306 2.137 . S
Co294 O307 2.244 . S
O295 Co294 2.216 . S
O295 C302 1.247 . S
O296 Co294 2.091 . S
O296 C302 1.261 . S
C297 O306 1.247 . S
C297 O307 1.272 . S
O298 Co294 2.004 . S
O298 C303 1.259 . S
Co299 O300 2.061 . S
Co299 O305 2.052 . S
Co299 O307 2.135 . S
O300 Co299 2.061 . S
O300 C303 1.235 . S
C301 O304 1.238 . S
C301 O305 1.241 . S
C302 O295 1.247 . S
C302 O296 1.261 . S
C303 O298 1.259 . S
C303 O300 1.235 . S
O304 Co294 2.021 . S
O304 C301 1.238 . S
O305 Co299 2.052 . S
O305 C301 1.241 . S
O306 Co294 2.137 . S
O306 C297 1.247 . S
O307 Co294 2.244 . S
O307 C297 1.272 . S
O307 Co299 2.135 . S
Co308 O309 2.216 . S
Co308 O310 2.091 . S
Co308 O312 2.004 . S
Co308 O318 2.021 . S
Co308 O320 2.137 . S
Co308 O321 2.244 . S
O309 Co308 2.216 . S
O309 C316 1.247 . S
O310 Co308 2.091 . S
O310 C316 1.261 . S
C311 O320 1.247 . S
C311 O321 1.272 . S
O312 Co308 2.004 . S
O312 C317 1.259 . S
Co313 O314 2.061 . S
Co313 O319 2.052 . S
Co313 O321 2.135 . S
O314 Co313 2.061 . S
O314 C317 1.235 . S
C315 O318 1.238 . S
C315 O319 1.241 . S
C316 O309 1.247 . S
C316 O310 1.261 . S
C317 O312 1.259 . S
C317 O314 1.235 . S
O318 Co308 2.021 . S
O318 C315 1.238 . S
O319 Co313 2.052 . S
O319 C315 1.241 . S
O320 Co308 2.137 . S
O320 C311 1.247 . S
O321 Co308 2.244 . S
O321 C311 1.272 . S
O321 Co313 2.135 . S
Co322 O323 2.216 . S
Co322 O324 2.091 . S
Co322 O326 2.004 . S
Co322 O332 2.021 . S
Co322 O334 2.137 . S
Co322 O335 2.244 . S
O323 Co322 2.216 . S
O323 C330 1.247 . S
O324 Co322 2.091 . S
O324 C330 1.261 . S
C325 O334 1.247 . S
C325 O335 1.272 . S
O326 Co322 2.004 . S
O326 C331 1.259 . S
Co327 O328 2.061 . S
Co327 O333 2.052 . S
Co327 O335 2.135 . S
O328 Co327 2.061 . S
O328 C331 1.235 . S
C329 O332 1.238 . S
C329 O333 1.241 . S
C330 O323 1.247 . S
C330 O324 1.261 . S
C331 O326 1.259 . S
C331 O328 1.235 . S
O332 Co322 2.021 . S
O332 C329 1.238 . S
O333 Co327 2.052 . S
O333 C329 1.241 . S
O334 Co322 2.137 . S
O334 C325 1.247 . S
O335 Co322 2.244 . S
O335 C325 1.272 . S
O335 Co327 2.135 . S
Co336 O337 2.216 . S
Co336 O338 2.091 . S
Co336 O340 2.004 . S
Co336 O346 2.021 . S
Co336 O348 2.137 . S
Co336 O349 2.244 . S
O337 Co336 2.216 . S
O337 C344 1.247 . S
O338 Co336 2.091 . S
O338 C344 1.261 . S
C339 O348 1.247 . S
C339 O349 1.272 . S
O340 Co336 2.004 . S
O340 C345 1.259 . S
Co341 O342 2.061 . S
Co341 O347 2.052 . S
Co341 O349 2.135 . S
O342 Co341 2.061 . S
O342 C345 1.235 . S
C343 O346 1.238 . S
C343 O347 1.241 . S
C344 O337 1.247 . S
C344 O338 1.261 . S
C345 O340 1.259 . S
C345 O342 1.235 . S
O346 Co336 2.021 . S
O346 C343 1.238 . S
O347 Co341 2.052 . S
O347 C343 1.241 . S
O348 Co336 2.137 . S
O348 C339 1.247 . S
O349 Co336 2.244 . S
O349 C339 1.272 . S
O349 Co341 2.135 . S
Co350 O351 2.216 . S
Co350 O352 2.091 . S
Co350 O354 2.004 . S
Co350 O360 2.021 . S
Co350 O362 2.137 . S
Co350 O363 2.244 . S
O351 Co350 2.216 . S
O351 C358 1.247 . S
O352 Co350 2.091 . S
O352 C358 1.261 . S
C353 O362 1.247 . S
C353 O363 1.272 . S
O354 Co350 2.004 . S
O354 C359 1.259 . S
Co355 O356 2.061 . S
Co355 O361 2.052 . S
Co355 O363 2.135 . S
O356 Co355 2.061 . S
O356 C359 1.235 . S
C357 O360 1.238 . S
C357 O361 1.241 . S
C358 O351 1.247 . S
C358 O352 1.261 . S
C359 O354 1.259 . S
C359 O356 1.235 . S
O360 Co350 2.021 . S
O360 C357 1.238 . S
O361 Co355 2.052 . S
O361 C357 1.241 . S
O362 Co350 2.137 . S
O362 C353 1.247 . S
O363 Co350 2.244 . S
O363 C353 1.272 . S
O363 Co355 2.135 . S
Co364 O365 2.216 . S
Co364 O366 2.091 . S
Co364 O368 2.004 . S
Co364 O374 2.021 . S
Co364 O376 2.137 . S
Co364 O377 2.244 . S
O365 Co364 2.216 . S
O365 C372 1.247 . S
O366 Co364 2.091 . S
O366 C372 1.261 . S
C367 O376 1.247 . S
C367 O377 1.272 . S
O368 Co364 2.004 . S
O368 C373 1.259 . S
Co369 O370 2.061 . S
Co369 O375 2.052 . S
Co369 O377 2.135 . S
O370 Co369 2.061 . S
O370 C373 1.235 . S
C371 O374 1.238 . S
C371 O375 1.241 . S
C372 O365 1.247 . S
C372 O366 1.261 . S
C373 O368 1.259 . S
C373 O370 1.235 . S
O374 Co364 2.021 . S
O374 C371 1.238 . S
O375 Co369 2.052 . S
O375 C371 1.241 . S
O376 Co364 2.137 . S
O376 C367 1.247 . S
O377 Co364 2.244 . S
O377 C367 1.272 . S
O377 Co369 2.135 . S
Co378 O379 2.216 . S
Co378 O380 2.091 . S
Co378 O382 2.004 . S
Co378 O388 2.021 . S
Co378 O390 2.137 . S
Co378 O391 2.244 . S
O379 Co378 2.216 . S
O379 C386 1.247 . S
O380 Co378 2.091 . S
O380 C386 1.261 . S
C381 O390 1.247 . S
C381 O391 1.272 . S
O382 Co378 2.004 . S
O382 C387 1.259 . S
Co383 O384 2.061 . S
Co383 O389 2.052 . S
Co383 O391 2.135 . S
O384 Co383 2.061 . S
O384 C387 1.235 . S
C385 O388 1.238 . S
C385 O389 1.241 . S
C386 O379 1.247 . S
C386 O380 1.261 . S
C387 O382 1.259 . S
C387 O384 1.235 . S
O388 Co378 2.021 . S
O388 C385 1.238 . S
O389 Co383 2.052 . S
O389 C385 1.241 . S
O390 Co378 2.137 . S
O390 C381 1.247 . S
O391 Co378 2.244 . S
O391 C381 1.272 . S
O391 Co383 2.135 . S
Co392 O393 2.216 . S
Co392 O394 2.091 . S
Co392 O396 2.004 . S
Co392 O402 2.021 . S
Co392 O404 2.137 . S
Co392 O405 2.244 . S
O393 Co392 2.216 . S
O393 C400 1.247 . S
O394 Co392 2.091 . S
O394 C400 1.261 . S
C395 O404 1.247 . S
C395 O405 1.272 . S
O396 Co392 2.004 . S
O396 C401 1.259 . S
Co397 O398 2.061 . S
Co397 O403 2.052 . S
Co397 O405 2.135 . S
O398 Co397 2.061 . S
O398 C401 1.235 . S
C399 O402 1.238 . S
C399 O403 1.241 . S
C400 O393 1.247 . S
C400 O394 1.261 . S
C401 O396 1.259 . S
C401 O398 1.235 . S
O402 Co392 2.021 . S
O402 C399 1.238 . S
O403 Co397 2.052 . S
O403 C399 1.241 . S
O404 Co392 2.137 . S
O404 C395 1.247 . S
O405 Co392 2.244 . S
O405 C395 1.272 . S
O405 Co397 2.135 . S
Co406 O407 2.216 . S
Co406 O408 2.091 . S
Co406 O410 2.004 . S
Co406 O416 2.021 . S
Co406 O418 2.137 . S
Co406 O419 2.244 . S
O407 Co406 2.216 . S
O407 C414 1.247 . S
O408 Co406 2.091 . S
O408 C414 1.261 . S
C409 O418 1.247 . S
C409 O419 1.272 . S
O410 Co406 2.004 . S
O410 C415 1.259 . S
Co411 O412 2.061 . S
Co411 O417 2.052 . S
Co411 O419 2.135 . S
O412 Co411 2.061 . S
O412 C415 1.235 . S
C413 O416 1.238 . S
C413 O417 1.241 . S
C414 O407 1.247 . S
C414 O408 1.261 . S
C415 O410 1.259 . S
C415 O412 1.235 . S
O416 Co406 2.021 . S
O416 C413 1.238 . S
O417 Co411 2.052 . S
O417 C413 1.241 . S
O418 Co406 2.137 . S
O418 C409 1.247 . S
O419 Co406 2.244 . S
O419 C409 1.272 . S
O419 Co411 2.135 . S
Co420 O421 2.216 . S
Co420 O422 2.091 . S
Co420 O424 2.004 . S
Co420 O430 2.021 . S
Co420 O432 2.137 . S
Co420 O433 2.244 . S
O421 Co420 2.216 . S
O421 C428 1.247 . S
O422 Co420 2.091 . S
O422 C428 1.261 . S
C423 O432 1.247 . S
C423 O433 1.272 . S
O424 Co420 2.004 . S
O424 C429 1.259 . S
Co425 O426 2.061 . S
Co425 O431 2.052 . S
Co425 O433 2.135 . S
O426 Co425 2.061 . S
O426 C429 1.235 . S
C427 O430 1.238 . S
C427 O431 1.241 . S
C428 O421 1.247 . S
C428 O422 1.261 . S
C429 O424 1.259 . S
C429 O426 1.235 . S
O430 Co420 2.021 . S
O430 C427 1.238 . S
O431 Co425 2.052 . S
O431 C427 1.241 . S
O432 Co420 2.137 . S
O432 C423 1.247 . S
O433 Co420 2.244 . S
O433 C423 1.272 . S
O433 Co425 2.135 . S
Co434 O435 2.216 . S
Co434 O436 2.091 . S
Co434 O438 2.004 . S
Co434 O444 2.021 . S
Co434 O446 2.137 . S
Co434 O447 2.244 . S
O435 Co434 2.216 . S
O435 C442 1.247 . S
O436 Co434 2.091 . S
O436 C442 1.261 . S
C437 O446 1.247 . S
C437 O447 1.272 . S
O438 Co434 2.004 . S
O438 C443 1.259 . S
Co439 O440 2.061 . S
Co439 O445 2.052 . S
Co439 O447 2.135 . S
O440 Co439 2.061 . S
O440 C443 1.235 . S
C441 O444 1.238 . S
C441 O445 1.241 . S
C442 O435 1.247 . S
C442 O436 1.261 . S
C443 O438 1.259 . S
C443 O440 1.235 . S
O444 Co434 2.021 . S
O444 C441 1.238 . S
O445 Co439 2.052 . S
O445 C441 1.241 . S
O446 Co434 2.137 . S
O446 C437 1.247 . S
O447 Co434 2.244 . S
O447 C437 1.272 . S
O447 Co439 2.135 . S
Co448 O449 2.216 . S
Co448 O450 2.091 . S
Co448 O452 2.004 . S
Co448 O458 2.021 . S
Co448 O460 2.137 . S
Co448 O461 2.244 . S
O449 Co448 2.216 . S
O449 C456 1.247 . S
O450 Co448 2.091 . S
O450 C456 1.261 . S
C451 O460 1.247 . S
C451 O461 1.272 . S
O452 Co448 2.004 . S
O452 C457 1.259 . S
Co453 O454 2.061 . S
Co453 O459 2.052 . S
Co453 O461 2.135 . S
O454 Co453 2.061 . S
O454 C457 1.235 . S
C455 O458 1.238 . S
C455 O459 1.241 . S
C456 O449 1.247 . S
C456 O450 1.261 . S
C457 O452 1.259 . S
C457 O454 1.235 . S
O458 Co448 2.021 . S
O458 C455 1.238 . S
O459 Co453 2.052 . S
O459 C455 1.241 . S
O460 Co448 2.137 . S
O460 C451 1.247 . S
O461 Co448 2.244 . S
O461 C451 1.272 . S
O461 Co453 2.135 . S
Co462 O463 2.216 . S
Co462 O464 2.091 . S
Co462 O466 2.004 . S
Co462 O472 2.021 . S
Co462 O474 2.137 . S
Co462 O475 2.244 . S
O463 Co462 2.216 . S
O463 C470 1.247 . S
O464 Co462 2.091 . S
O464 C470 1.261 . S
C465 O474 1.247 . S
C465 O475 1.272 . S
O466 Co462 2.004 . S
O466 C471 1.259 . S
Co467 O468 2.061 . S
Co467 O473 2.052 . S
Co467 O475 2.135 . S
O468 Co467 2.061 . S
O468 C471 1.235 . S
C469 O472 1.238 . S
C469 O473 1.241 . S
C470 O463 1.247 . S
C470 O464 1.261 . S
C471 O466 1.259 . S
C471 O468 1.235 . S
O472 Co462 2.021 . S
O472 C469 1.238 . S
O473 Co467 2.052 . S
O473 C469 1.241 . S
O474 Co462 2.137 . S
O474 C465 1.247 . S
O475 Co462 2.244 . S
O475 C465 1.272 . S
O475 Co467 2.135 . S
Co476 O477 2.216 . S
Co476 O478 2.091 . S
Co476 O480 2.004 . S
Co476 O486 2.021 . S
Co476 O488 2.137 . S
Co476 O489 2.244 . S
O477 Co476 2.216 . S
O477 C484 1.247 . S
O478 Co476 2.091 . S
O478 C484 1.261 . S
C479 O488 1.247 . S
C479 O489 1.272 . S
O480 Co476 2.004 . S
O480 C485 1.259 . S
Co481 O482 2.061 . S
Co481 O487 2.052 . S
Co481 O489 2.135 . S
O482 Co481 2.061 . S
O482 C485 1.235 . S
C483 O486 1.238 . S
C483 O487 1.241 . S
C484 O477 1.247 . S
C484 O478 1.261 . S
C485 O480 1.259 . S
C485 O482 1.235 . S
O486 Co476 2.021 . S
O486 C483 1.238 . S
O487 Co481 2.052 . S
O487 C483 1.241 . S
O488 Co476 2.137 . S
O488 C479 1.247 . S
O489 Co476 2.244 . S
O489 C479 1.272 . S
O489 Co481 2.135 . S
Co490 O491 2.216 . S
Co490 O492 2.091 . S
Co490 O494 2.004 . S
Co490 O500 2.021 . S
Co490 O502 2.137 . S
Co490 O503 2.244 . S
O491 Co490 2.216 . S
O491 C498 1.247 . S
O492 Co490 2.091 . S
O492 C498 1.261 . S
C493 O502 1.247 . S
C493 O503 1.272 . S
O494 Co490 2.004 . S
O494 C499 1.259 . S
Co495 O496 2.061 . S
Co495 O501 2.052 . S
Co495 O503 2.135 . S
O496 Co495 2.061 . S
O496 C499 1.235 . S
C497 O500 1.238 . S
C497 O501 1.241 . S
C498 O491 1.247 . S
C498 O492 1.261 . S
C499 O494 1.259 . S
C499 O496 1.235 . S
O500 Co490 2.021 . S
O500 C497 1.238 . S
O501 Co495 2.052 . S
O501 C497 1.241 . S
O502 Co490 2.137 . S
O502 C493 1.247 . S
O503 Co490 2.244 . S
O503 C493 1.272 . S
O503 Co495 2.135 . S
Co504 O505 2.216 . S
Co504 O506 2.091 . S
Co504 O508 2.004 . S
Co504 O514 2.021 . S
Co504 O516 2.137 . S
Co504 O517 2.244 . S
O505 Co504 2.216 . S
O505 C512 1.247 . S
O506 Co504 2.091 . S
O506 C512 1.261 . S
C507 O516 1.247 . S
C507 O517 1.272 . S
O508 Co504 2.004 . S
O508 C513 1.259 . S
Co509 O510 2.061 . S
Co509 O515 2.052 . S
Co509 O517 2.135 . S
O510 Co509 2.061 . S
O510 C513 1.235 . S
C511 O514 1.238 . S
C511 O515 1.241 . S
C512 O505 1.247 . S
C512 O506 1.261 . S
C513 O508 1.259 . S
C513 O510 1.235 . S
O514 Co504 2.021 . S
O514 C511 1.238 . S
O515 Co509 2.052 . S
O515 C511 1.241 . S
O516 Co504 2.137 . S
O516 C507 1.247 . S
O517 Co504 2.244 . S
O517 C507 1.272 . S
O517 Co509 2.135 . S
Co518 O519 2.216 . S
Co518 O520 2.091 . S
Co518 O522 2.004 . S
Co518 O528 2.021 . S
Co518 O530 2.137 . S
Co518 O531 2.244 . S
O519 Co518 2.216 . S
O519 C526 1.247 . S
O520 Co518 2.091 . S
O520 C526 1.261 . S
C521 O530 1.247 . S
C521 O531 1.272 . S
O522 Co518 2.004 . S
O522 C527 1.259 . S
Co523 O524 2.061 . S
Co523 O529 2.052 . S
Co523 O531 2.135 . S
O524 Co523 2.061 . S
O524 C527 1.235 . S
C525 O528 1.238 . S
C525 O529 1.241 . S
C526 O519 1.247 . S
C526 O520 1.261 . S
C527 O522 1.259 . S
C527 O524 1.235 . S
O528 Co518 2.021 . S
O528 C525 1.238 . S
O529 Co523 2.052 . S
O529 C525 1.241 . S
O530 Co518 2.137 . S
O530 C521 1.247 . S
O531 Co518 2.244 . S
O531 C521 1.272 . S
O531 Co523 2.135 . S
Co532 O533 2.216 . S
Co532 O534 2.091 . S
Co532 O536 2.004 . S
Co532 O542 2.021 . S
Co532 O544 2.137 . S
Co532 O545 2.244 . S
O533 Co532 2.216 . S
O533 C540 1.247 . S
O534 Co532 2.091 . S
O534 C540 1.261 . S
C535 O544 1.247 . S
C535 O545 1.272 . S
O536 Co532 2.004 . S
O536 C541 1.259 . S
Co537 O538 2.061 . S
Co537 O543 2.052 . S
Co537 O545 2.135 . S
O538 Co537 2.061 . S
O538 C541 1.235 . S
C539 O542 1.238 . S
C539 O543 1.241 . S
C540 O533 1.247 . S
C540 O534 1.261 . S
C541 O536 1.259 . S
C541 O538 1.235 . S
O542 Co532 2.021 . S
O542 C539 1.238 . S
O543 Co537 2.052 . S
O543 C539 1.241 . S
O544 Co532 2.137 . S
O544 C535 1.247 . S
O545 Co532 2.244 . S
O545 C535 1.272 . S
O545 Co537 2.135 . S
Co546 O547 2.216 . S
Co546 O548 2.091 . S
Co546 O550 2.004 . S
Co546 O556 2.021 . S
Co546 O558 2.137 . S
Co546 O559 2.244 . S
O547 Co546 2.216 . S
O547 C554 1.247 . S
O548 Co546 2.091 . S
O548 C554 1.261 . S
C549 O558 1.247 . S
C549 O559 1.272 . S
O550 Co546 2.004 . S
O550 C555 1.259 . S
Co551 O552 2.061 . S
Co551 O557 2.052 . S
Co551 O559 2.135 . S
O552 Co551 2.061 . S
O552 C555 1.235 . S
C553 O556 1.238 . S
C553 O557 1.241 . S
C554 O547 1.247 . S
C554 O548 1.261 . S
C555 O550 1.259 . S
C555 O552 1.235 . S
O556 Co546 2.021 . S
O556 C553 1.238 . S
O557 Co551 2.052 . S
O557 C553 1.241 . S
O558 Co546 2.137 . S
O558 C549 1.247 . S
O559 Co546 2.244 . S
O559 C549 1.272 . S
O559 Co551 2.135 . S
Co560 O561 2.216 . S
Co560 O562 2.091 . S
Co560 O564 2.004 . S
Co560 O570 2.021 . S
Co560 O572 2.137 . S
Co560 O573 2.244 . S
O561 Co560 2.216 . S
O561 C568 1.247 . S
O562 Co560 2.091 . S
O562 C568 1.261 . S
C563 O572 1.247 . S
C563 O573 1.272 . S
O564 Co560 2.004 . S
O564 C569 1.259 . S
Co565 O566 2.061 . S
Co565 O571 2.052 . S
Co565 O573 2.135 . S
O566 Co565 2.061 . S
O566 C569 1.235 . S
C567 O570 1.238 . S
C567 O571 1.241 . S
C568 O561 1.247 . S
C568 O562 1.261 . S
C569 O564 1.259 . S
C569 O566 1.235 . S
O570 Co560 2.021 . S
O570 C567 1.238 . S
O571 Co565 2.052 . S
O571 C567 1.241 . S
O572 Co560 2.137 . S
O572 C563 1.247 . S
O573 Co560 2.244 . S
O573 C563 1.272 . S
O573 Co565 2.135 . S
Co574 O575 2.216 . S
Co574 O576 2.091 . S
Co574 O578 2.004 . S
Co574 O584 2.021 . S
Co574 O586 2.137 . S
Co574 O587 2.244 . S
O575 Co574 2.216 . S
O575 C582 1.247 . S
O576 Co574 2.091 . S
O576 C582 1.261 . S
C577 O586 1.247 . S
C577 O587 1.272 . S
O578 Co574 2.004 . S
O578 C583 1.259 . S
Co579 O580 2.061 . S
Co579 O585 2.052 . S
Co579 O587 2.135 . S
O580 Co579 2.061 . S
O580 C583 1.235 . S
C581 O584 1.238 . S
C581 O585 1.241 . S
C582 O575 1.247 . S
C582 O576 1.261 . S
C583 O578 1.259 . S
C583 O580 1.235 . S
O584 Co574 2.021 . S
O584 C581 1.238 . S
O585 Co579 2.052 . S
O585 C581 1.241 . S
O586 Co574 2.137 . S
O586 C577 1.247 . S
O587 Co574 2.244 . S
O587 C577 1.272 . S
O587 Co579 2.135 . S
Co588 O589 2.216 . S
Co588 O590 2.091 . S
Co588 O592 2.004 . S
Co588 O598 2.021 . S
Co588 O600 2.137 . S
Co588 O601 2.244 . S
O589 Co588 2.216 . S
O589 C596 1.247 . S
O590 Co588 2.091 . S
O590 C596 1.261 . S
C591 O600 1.247 . S
C591 O601 1.272 . S
O592 Co588 2.004 . S
O592 C597 1.259 . S
Co593 O594 2.061 . S
Co593 O599 2.052 . S
Co593 O601 2.135 . S
O594 Co593 2.061 . S
O594 C597 1.235 . S
C595 O598 1.238 . S
C595 O599 1.241 . S
C596 O589 1.247 . S
C596 O590 1.261 . S
C597 O592 1.259 . S
C597 O594 1.235 . S
O598 Co588 2.021 . S
O598 C595 1.238 . S
O599 Co593 2.052 . S
O599 C595 1.241 . S
O600 Co588 2.137 . S
O600 C591 1.247 . S
O601 Co588 2.244 . S
O601 C591 1.272 . S
O601 Co593 2.135 . S
Co602 O603 2.216 . S
Co602 O604 2.091 . S
Co602 O606 2.004 . S
Co602 O612 2.021 . S
Co602 O614 2.137 . S
Co602 O615 2.244 . S
O603 Co602 2.216 . S
O603 C610 1.247 . S
O604 Co602 2.091 . S
O604 C610 1.261 . S
C605 O614 1.247 . S
C605 O615 1.272 . S
O606 Co602 2.004 . S
O606 C611 1.259 . S
Co607 O608 2.061 . S
Co607 O613 2.052 . S
Co607 O615 2.135 . S
O608 Co607 2.061 . S
O608 C611 1.235 . S
C609 O612 1.238 . S
C609 O613 1.241 . S
C610 O603 1.247 . S
C610 O604 1.261 . S
C611 O606 1.259 . S
C611 O608 1.235 . S
O612 Co602 2.021 . S
O612 C609 1.238 . S
O613 Co607 2.052 . S
O613 C609 1.241 . S
O614 Co602 2.137 . S
O614 C605 1.247 . S
O615 Co602 2.244 . S
O615 C605 1.272 . S
O615 Co607 2.135 . S
Co616 O617 2.216 . S
Co616 O618 2.091 . S
Co616 O620 2.004 . S
Co616 O626 2.021 . S
Co616 O628 2.137 . S
Co616 O629 2.244 . S
O617 Co616 2.216 . S
O617 C624 1.247 . S
O618 Co616 2.091 . S
O618 C624 1.261 . S
C619 O628 1.247 . S
C619 O629 1.272 . S
O620 Co616 2.004 . S
O620 C625 1.259 . S
Co621 O622 2.061 . S
Co621 O627 2.052 . S
Co621 O629 2.135 . S
O622 Co621 2.061 . S
O622 C625 1.235 . S
C623 O626 1.238 . S
C623 O627 1.241 . S
C624 O617 1.247 . S
C624 O618 1.261 . S
C625 O620 1.259 . S
C625 O622 1.235 . S
O626 Co616 2.021 . S
O626 C623 1.238 . S
O627 Co621 2.052 . S
O627 C623 1.241 . S
O628 Co616 2.137 . S
O628 C619 1.247 . S
O629 Co616 2.244 . S
O629 C619 1.272 . S
O629 Co621 2.135 . S
Co630 O631 2.216 . S
Co630 O632 2.091 . S
Co630 O634 2.004 . S
Co630 O640 2.021 . S
Co630 O642 2.137 . S
Co630 O643 2.244 . S
O631 Co630 2.216 . S
O631 C638 1.247 . S
O632 Co630 2.091 . S
O632 C638 1.261 . S
C633 O642 1.247 . S
C633 O643 1.272 . S
O634 Co630 2.004 . S
O634 C639 1.259 . S
Co635 O636 2.061 . S
Co635 O641 2.052 . S
Co635 O643 2.135 . S
O636 Co635 2.061 . S
O636 C639 1.235 . S
C637 O640 1.238 . S
C637 O641 1.241 . S
C638 O631 1.247 . S
C638 O632 1.261 . S
C639 O634 1.259 . S
C639 O636 1.235 . S
O640 Co630 2.021 . S
O640 C637 1.238 . S
O641 Co635 2.052 . S
O641 C637 1.241 . S
O642 Co630 2.137 . S
O642 C633 1.247 . S
O643 Co630 2.244 . S
O643 C633 1.272 . S
O643 Co635 2.135 . S
Co644 O645 2.216 . S
Co644 O646 2.091 . S
Co644 O648 2.004 . S
Co644 O654 2.021 . S
Co644 O656 2.137 . S
Co644 O657 2.244 . S
O645 Co644 2.216 . S
O645 C652 1.247 . S
O646 Co644 2.091 . S
O646 C652 1.261 . S
C647 O656 1.247 . S
C647 O657 1.272 . S
O648 Co644 2.004 . S
O648 C653 1.259 . S
Co649 O650 2.061 . S
Co649 O655 2.052 . S
Co649 O657 2.135 . S
O650 Co649 2.061 . S
O650 C653 1.235 . S
C651 O654 1.238 . S
C651 O655 1.241 . S
C652 O645 1.247 . S
C652 O646 1.261 . S
C653 O648 1.259 . S
C653 O650 1.235 . S
O654 Co644 2.021 . S
O654 C651 1.238 . S
O655 Co649 2.052 . S
O655 C651 1.241 . S
O656 Co644 2.137 . S
O656 C647 1.247 . S
O657 Co644 2.244 . S
O657 C647 1.272 . S
O657 Co649 2.135 . S
Co658 O659 2.216 . S
Co658 O660 2.091 . S
Co658 O662 2.004 . S
Co658 O668 2.021 . S
Co658 O670 2.137 . S
Co658 O671 2.244 . S
O659 Co658 2.216 . S
O659 C666 1.247 . S
O660 Co658 2.091 . S
O660 C666 1.261 . S
C661 O670 1.247 . S
C661 O671 1.272 . S
O662 Co658 2.004 . S
O662 C667 1.259 . S
Co663 O664 2.061 . S
Co663 O669 2.052 . S
Co663 O671 2.135 . S
O664 Co663 2.061 . S
O664 C667 1.235 . S
C665 O668 1.238 . S
C665 O669 1.241 . S
C666 O659 1.247 . S
C666 O660 1.261 . S
C667 O662 1.259 . S
C667 O664 1.235 . S
O668 Co658 2.021 . S
O668 C665 1.238 . S
O669 Co663 2.052 . S
O669 C665 1.241 . S
O670 Co658 2.137 . S
O670 C661 1.247 . S
O671 Co658 2.244 . S
O671 C661 1.272 . S
O671 Co663 2.135 . S
H672 C684 0.930 . S
H673 C686 0.930 . S
H674 C687 0.930 . S
H675 C691 0.959 . S
H676 C691 0.959 . S
H677 C691 0.961 . S
H678 C692 0.960 . S
H679 C692 0.961 . S
H680 C692 0.959 . S
H681 C695 0.898 1_655 S
H682 C696 0.931 . S
H683 C698 0.930 . S
C684 H672 0.930 . S
C684 C685 1.399 . S
C684 C689 1.399 . S
C685 C684 1.399 . S
C685 C686 1.376 . S
C686 H673 0.930 . S
C686 C685 1.376 . S
C686 C687 1.388 . S
C687 H674 0.930 . S
C687 C686 1.388 . S
C687 C688 1.390 . S
C688 C687 1.390 . S
C688 C689 1.394 . S
C688 C694 1.465 1_655 S
C689 C684 1.399 . S
C689 C688 1.394 . S
C689 C690 1.516 1_655 S
C690 C689 1.516 1_455 S
C690 C691 1.502 . S
C690 C692 1.561 . S
C690 C693 1.526 . S
C691 H675 0.959 . S
C691 H676 0.959 . S
C691 H677 0.961 . S
C691 C690 1.502 . S
C692 H678 0.960 . S
C692 H679 0.961 . S
C692 H680 0.959 . S
C692 C690 1.561 . S
C693 C690 1.526 . S
C693 C694 1.396 . S
C693 C698 1.390 . S
C694 C688 1.465 1_455 S
C694 C693 1.396 . S
C694 C695 1.401 . S
C695 H681 0.898 1_455 S
C695 C694 1.401 . S
C695 C696 1.416 . S
C696 H682 0.931 . S
C696 C695 1.416 . S
C696 C697 1.389 . S
C697 C696 1.389 . S
C697 C698 1.387 . S
C698 H683 0.930 . S
C698 C693 1.390 . S
C698 C697 1.387 . S
H699 C711 0.930 . S
H700 C713 0.930 . S
H701 C714 0.930 1_545 S
H702 C718 0.959 . S
H703 C718 0.959 . S
H704 C718 0.961 . S
H705 C719 0.960 . S
H706 C719 0.961 . S
H707 C719 0.959 . S
H708 C722 0.929 . S
H709 C723 0.931 . S
H710 C725 0.930 . S
C711 H699 0.930 . S
C711 C712 1.399 . S
C711 C716 1.399 . S
C712 C711 1.399 . S
C712 C713 1.376 . S
C713 H700 0.930 . S
C713 C712 1.376 . S
C713 C714 1.388 . S
C714 H701 0.930 1_565 S
C714 C713 1.388 . S
C714 C715 1.390 . S
C715 C714 1.390 . S
C715 C716 1.394 . S
C715 C721 1.465 1_565 S
C716 C711 1.399 . S
C716 C715 1.394 . S
C716 C717 1.516 . S
C717 C716 1.516 . S
C717 C718 1.502 . S
C717 C719 1.561 . S
C717 C720 1.526 1_565 S
C718 H702 0.959 . S
C718 H703 0.959 . S
C718 H704 0.961 . S
C718 C717 1.502 . S
C719 H705 0.960 . S
C719 H706 0.961 . S
C719 H707 0.959 . S
C719 C717 1.561 . S
C720 C717 1.526 1_545 S
C720 C721 1.396 . S
C720 C725 1.390 . S
C721 C715 1.465 1_545 S
C721 C720 1.396 . S
C721 C722 1.399 . S
C722 H708 0.929 . S
C722 C721 1.399 . S
C722 C723 1.385 . S
C723 H709 0.931 . S
C723 C722 1.385 . S
C723 C724 1.389 . S
C724 C723 1.389 . S
C724 C725 1.387 . S
C725 H710 0.930 . S
C725 C720 1.390 . S
C725 C724 1.387 . S
H726 C738 0.930 . S
H727 C740 0.930 . S
H728 C741 0.930 . S
H729 C745 0.959 . S
H730 C745 0.959 . S
H731 C745 0.933 1_455 S
H732 C746 0.960 . S
H733 C746 0.961 . S
H734 C746 0.959 . S
H735 C749 0.929 . S
H736 C750 0.931 . S
H737 C752 0.930 . S
C738 H726 0.930 . S
C738 C739 1.399 . S
C738 C743 1.399 . S
C739 C738 1.399 . S
C739 C740 1.376 . S
C740 H727 0.930 . S
C740 C739 1.376 . S
C740 C741 1.388 . S
C741 H728 0.930 . S
C741 C740 1.388 . S
C741 C742 1.390 . S
C742 C741 1.390 . S
C742 C743 1.394 . S
C742 C748 1.465 1_455 S
C743 C738 1.399 . S
C743 C742 1.394 . S
C743 C744 1.516 . S
C744 C743 1.516 . S
C744 C745 1.502 1_455 S
C744 C746 1.561 . S
C744 C747 1.526 1_455 S
C745 H729 0.959 . S
C745 H730 0.959 . S
C745 H731 0.933 1_655 S
C745 C744 1.502 1_655 S
C746 H732 0.960 . S
C746 H733 0.961 . S
C746 H734 0.959 . S
C746 C744 1.561 . S
C747 C744 1.526 1_655 S
C747 C748 1.396 . S
C747 C752 1.390 . S
C748 C742 1.465 1_655 S
C748 C747 1.396 . S
C748 C749 1.399 . S
C749 H735 0.929 . S
C749 C748 1.399 . S
C749 C750 1.385 . S
C750 H736 0.931 . S
C750 C749 1.385 . S
C750 C751 1.389 . S
C751 C750 1.389 . S
C751 C752 1.387 . S
C752 H737 0.930 . S
C752 C747 1.390 . S
C752 C751 1.387 . S
H753 C765 0.930 . S
H754 C767 0.930 . S
H755 C768 0.930 . S
H756 C772 0.959 . S
H757 C772 0.959 . S
H758 C772 0.961 . S
H759 C773 0.960 . S
H760 C773 0.961 . S
H761 C773 0.959 . S
H762 C776 0.944 . S
H763 C777 0.931 . S
H764 C779 0.930 . S
C765 H753 0.930 . S
C765 C766 1.399 . S
C765 C770 1.399 . S
C766 C765 1.399 . S
C766 C767 1.376 . S
C767 H754 0.930 . S
C767 C766 1.376 . S
C767 C768 1.388 . S
C768 H755 0.930 . S
C768 C767 1.388 . S
C768 C769 1.390 . S
C769 C768 1.390 . S
C769 C770 1.394 . S
C769 C775 1.446 1_565 S
C770 C765 1.399 . S
C770 C769 1.394 . S
C770 C771 1.516 1_565 S
C771 C770 1.516 1_545 S
C771 C772 1.502 . S
C771 C773 1.561 . S
C771 C774 1.526 . S
C772 H756 0.959 . S
C772 H757 0.959 . S
C772 H758 0.961 . S
C772 C771 1.502 . S
C773 H759 0.960 . S
C773 H760 0.961 . S
C773 H761 0.959 . S
C773 C771 1.561 . S
C774 C771 1.526 . S
C774 C775 1.419 . S
C774 C779 1.390 . S
C775 C769 1.446 1_545 S
C775 C774 1.419 . S
C775 C776 1.398 1_545 S
C776 H762 0.944 . S
C776 C775 1.398 1_565 S
C776 C777 1.371 1_565 S
C777 H763 0.931 . S
C777 C776 1.371 1_545 S
C777 C778 1.389 . S
C778 C777 1.389 . S
C778 C779 1.387 . S
C779 H764 0.930 . S
C779 C774 1.390 . S
C779 C778 1.387 . S
H780 C792 0.930 . S
H781 C794 0.930 . S
H782 C795 0.930 . S
H783 C799 0.959 . S
H784 C799 0.959 1_455 S
H785 C799 0.961 . S
H786 C800 0.960 . S
H787 C800 0.961 . S
H788 C800 0.959 . S
H789 C803 0.929 . S
H790 C804 0.931 . S
H791 C806 0.930 . S
C792 H780 0.930 . S
C792 C793 1.399 . S
C792 C797 1.399 . S
C793 C792 1.399 . S
C793 C794 1.376 . S
C794 H781 0.930 . S
C794 C793 1.376 . S
C794 C795 1.388 . S
C795 H782 0.930 . S
C795 C794 1.388 . S
C795 C796 1.390 . S
C796 C795 1.390 . S
C796 C797 1.394 . S
C796 C802 1.465 1_655 S
C797 C792 1.399 . S
C797 C796 1.394 . S
C797 C798 1.516 1_655 S
C798 C797 1.516 1_455 S
C798 C799 1.502 1_455 S
C798 C800 1.561 . S
C798 C801 1.526 . S
C799 H783 0.959 . S
C799 H784 0.959 1_655 S
C799 H785 0.961 . S
C799 C798 1.502 1_655 S
C800 H786 0.960 . S
C800 H787 0.961 . S
C800 H788 0.959 . S
C800 C798 1.561 . S
C801 C798 1.526 . S
C801 C802 1.396 . S
C801 C806 1.390 . S
C802 C796 1.465 1_455 S
C802 C801 1.396 . S
C802 C803 1.399 . S
C803 H789 0.929 . S
C803 C802 1.399 . S
C803 C804 1.385 . S
C804 H790 0.931 . S
C804 C803 1.385 . S
C804 C805 1.389 . S
C805 C804 1.389 . S
C805 C806 1.387 . S
C806 H791 0.930 . S
C806 C801 1.390 . S
C806 C805 1.387 . S
H807 C819 0.930 . S
H808 C821 0.930 . S
H809 C822 0.920 1_565 S
H810 C826 0.959 . S
H811 C826 0.959 . S
H812 C826 0.961 . S
H813 C827 0.960 . S
H814 C827 0.961 . S
H815 C827 0.959 . S
H816 C830 0.929 . S
H817 C831 0.931 . S
H818 C833 0.930 . S
C819 H807 0.930 . S
C819 C820 1.399 . S
C819 C824 1.399 . S
C820 C819 1.399 . S
C820 C821 1.376 . S
C821 H808 0.930 . S
C821 C820 1.376 . S
C821 C822 1.399 . S
C822 H809 0.920 1_545 S
C822 C821 1.399 . S
C822 C823 1.390 . S
C823 C822 1.390 . S
C823 C824 1.426 . S
C823 C829 1.439 1_545 S
C824 C819 1.399 . S
C824 C823 1.426 . S
C824 C825 1.516 . S
C825 C824 1.516 . S
C825 C826 1.502 . S
C825 C827 1.561 . S
C825 C828 1.526 1_545 S
C826 H810 0.959 . S
C826 H811 0.959 . S
C826 H812 0.961 . S
C826 C825 1.502 . S
C827 H813 0.960 . S
C827 H814 0.961 . S
C827 H815 0.959 . S
C827 C825 1.561 . S
C828 C825 1.526 1_565 S
C828 C829 1.396 . S
C828 C833 1.390 . S
C829 C823 1.439 1_565 S
C829 C828 1.396 . S
C829 C830 1.399 . S
C830 H816 0.929 . S
C830 C829 1.399 . S
C830 C831 1.385 . S
C831 H817 0.931 . S
C831 C830 1.385 . S
C831 C832 1.389 . S
C832 C831 1.389 . S
C832 C833 1.387 . S
C833 H818 0.930 . S
C833 C828 1.390 . S
C833 C832 1.387 . S
H834 C846 0.930 . S
H835 C848 0.930 . S
H836 C849 0.930 . S
H837 C853 1.000 . S
H838 C853 0.979 . S
H839 C853 0.922 1_455 S
H840 C854 0.960 . S
H841 C854 0.961 . S
H842 C854 0.959 . S
H843 C857 0.929 . S
H844 C858 0.931 . S
H845 C860 0.930 . S
C846 H834 0.930 . S
C846 C847 1.399 . S
C846 C851 1.399 . S
C847 C846 1.399 . S
C847 C848 1.376 . S
C848 H835 0.930 . S
C848 C847 1.376 . S
C848 C849 1.388 . S
C849 H836 0.930 . S
C849 C848 1.388 . S
C849 C850 1.390 . S
C850 C849 1.390 . S
C850 C851 1.394 . S
C850 C856 1.465 1_455 S
C851 C846 1.399 . S
C851 C850 1.394 . S
C851 C852 1.516 . S
C852 C851 1.516 . S
C852 C853 1.484 1_455 S
C852 C854 1.561 . S
C852 C855 1.526 1_455 S
C853 H837 1.000 . S
C853 H838 0.979 . S
C853 H839 0.922 1_655 S
C853 C852 1.484 1_655 S
C854 H840 0.960 . S
C854 H841 0.961 . S
C854 H842 0.959 . S
C854 C852 1.561 . S
C855 C852 1.526 1_655 S
C855 C856 1.396 . S
C855 C860 1.390 . S
C856 C850 1.465 1_655 S
C856 C855 1.396 . S
C856 C857 1.399 . S
C857 H843 0.929 . S
C857 C856 1.399 . S
C857 C858 1.385 . S
C858 H844 0.931 . S
C858 C857 1.385 . S
C858 C859 1.389 . S
C859 C858 1.389 . S
C859 C860 1.387 . S
C860 H845 0.930 . S
C860 C855 1.390 . S
C860 C859 1.387 . S
H861 C873 0.930 . S
H862 C875 0.930 . S
H863 C876 0.930 . S
H864 C880 0.959 . S
H865 C880 0.959 . S
H866 C880 0.961 . S
H867 C881 0.960 . S
H868 C881 0.961 . S
H869 C881 0.959 . S
H870 C884 0.929 1_545 S
H871 C885 0.931 . S
H872 C887 0.930 . S
C873 H861 0.930 . S
C873 C874 1.399 . S
C873 C878 1.399 . S
C874 C873 1.399 . S
C874 C875 1.376 . S
C875 H862 0.930 . S
C875 C874 1.376 . S
C875 C876 1.388 . S
C876 H863 0.930 . S
C876 C875 1.388 . S
C876 C877 1.390 . S
C877 C876 1.390 . S
C877 C878 1.394 . S
C877 C883 1.465 1_545 S
C878 C873 1.399 . S
C878 C877 1.394 . S
C878 C879 1.516 1_545 S
C879 C878 1.516 1_565 S
C879 C880 1.502 . S
C879 C881 1.561 . S
C879 C882 1.526 . S
C880 H864 0.959 . S
C880 H865 0.959 . S
C880 H866 0.961 . S
C880 C879 1.502 . S
C881 H867 0.960 . S
C881 H868 0.961 . S
C881 H869 0.959 . S
C881 C879 1.561 . S
C882 C879 1.526 . S
C882 C883 1.396 . S
C882 C887 1.390 . S
C883 C877 1.465 1_565 S
C883 C882 1.396 . S
C883 C884 1.399 . S
C884 H870 0.929 1_565 S
C884 C883 1.399 . S
C884 C885 1.385 . S
C885 H871 0.931 . S
C885 C884 1.385 . S
C885 C886 1.389 . S
C886 C885 1.389 . S
C886 C887 1.387 . S
C887 H872 0.930 . S
C887 C882 1.390 . S
C887 C886 1.387 . S
H888 C900 0.930 . S
H889 C902 0.930 . S
H890 C903 0.930 1_556 S
H891 C907 0.959 . S
H892 C907 0.959 . S
H893 C907 0.961 . S
H894 C908 0.960 1_554 S
H895 C908 0.961 . S
H896 C908 0.959 . S
H897 C911 0.929 . S
H898 C912 0.931 . S
H899 C914 0.930 . S
C900 H888 0.930 . S
C900 C901 1.399 . S
C900 C905 1.399 . S
C901 C900 1.399 . S
C901 C902 1.376 . S
C902 H889 0.930 . S
C902 C901 1.376 . S
C902 C903 1.388 . S
C903 H890 0.930 1_554 S
C903 C902 1.388 . S
C903 C904 1.390 . S
C904 C903 1.390 . S
C904 C905 1.394 . S
C904 C910 1.465 1_554 S
C905 C900 1.399 . S
C905 C904 1.394 . S
C905 C906 1.516 . S
C906 C905 1.516 . S
C906 C907 1.502 . S
C906 C908 1.561 1_554 S
C906 C909 1.526 1_554 S
C907 H891 0.959 . S
C907 H892 0.959 . S
C907 H893 0.961 . S
C907 C906 1.502 . S
C908 H894 0.960 1_556 S
C908 H895 0.961 . S
C908 H896 0.959 . S
C908 C906 1.561 1_556 S
C909 C906 1.526 1_556 S
C909 C910 1.396 . S
C909 C914 1.390 . S
C910 C904 1.465 1_556 S
C910 C909 1.396 . S
C910 C911 1.399 . S
C911 H897 0.929 . S
C911 C910 1.399 . S
C911 C912 1.385 . S
C912 H898 0.931 . S
C912 C911 1.385 . S
C912 C913 1.389 . S
C913 C912 1.389 . S
C913 C914 1.387 . S
C914 H899 0.930 . S
C914 C909 1.390 . S
C914 C913 1.387 . S
H915 C927 0.930 . S
H916 C929 0.930 . S
H917 C930 0.934 . S
H918 C934 0.959 . S
H919 C934 0.959 . S
H920 C934 0.961 . S
H921 C935 0.960 . S
H922 C935 0.961 . S
H923 C935 0.959 . S
H924 C938 0.929 . S
H925 C939 0.931 . S
H926 C941 0.930 . S
C927 H915 0.930 . S
C927 C928 1.399 . S
C927 C932 1.399 . S
C928 C927 1.399 . S
C928 C929 1.376 . S
C929 H916 0.930 . S
C929 C928 1.376 . S
C929 C930 1.384 1_556 S
C930 H917 0.934 . S
C930 C929 1.384 1_554 S
C930 C931 1.389 1_554 S
C931 C930 1.389 1_556 S
C931 C932 1.421 . S
C931 C937 1.443 1_556 S
C932 C927 1.399 . S
C932 C931 1.421 . S
C932 C933 1.516 . S
C933 C932 1.516 . S
C933 C934 1.502 . S
C933 C935 1.561 . S
C933 C936 1.526 1_556 S
C934 H918 0.959 . S
C934 H919 0.959 . S
C934 H920 0.961 . S
C934 C933 1.502 . S
C935 H921 0.960 . S
C935 H922 0.961 . S
C935 H923 0.959 . S
C935 C933 1.561 . S
C936 C933 1.526 1_554 S
C936 C937 1.396 . S
C936 C941 1.390 . S
C937 C931 1.443 1_554 S
C937 C936 1.396 . S
C937 C938 1.399 . S
C938 H924 0.929 . S
C938 C937 1.399 . S
C938 C939 1.385 . S
C939 H925 0.931 . S
C939 C938 1.385 . S
C939 C940 1.389 . S
C940 C939 1.389 . S
C940 C941 1.387 . S
C941 H926 0.930 . S
C941 C936 1.390 . S
C941 C940 1.387 . S
H942 C954 0.930 . S
H943 C956 0.930 . S
H944 C957 0.930 1_554 S
H945 C961 0.959 . S
H946 C961 0.959 . S
H947 C961 0.961 . S
H948 C962 0.960 . S
H949 C962 0.961 . S
H950 C962 0.959 1_554 S
H951 C965 0.929 . S
H952 C966 0.931 . S
H953 C968 0.930 . S
C954 H942 0.930 . S
C954 C955 1.399 . S
C954 C959 1.399 . S
C955 C954 1.399 . S
C955 C956 1.376 . S
C956 H943 0.930 . S
C956 C955 1.376 . S
C956 C957 1.388 . S
C957 H944 0.930 1_556 S
C957 C956 1.388 . S
C957 C958 1.390 . S
C958 C957 1.390 . S
C958 C959 1.394 . S
C958 C964 1.465 1_556 S
C959 C954 1.399 . S
C959 C958 1.394 . S
C959 C960 1.516 . S
C960 C959 1.516 . S
C960 C961 1.502 . S
C960 C962 1.561 . S
C960 C963 1.526 1_556 S
C961 H945 0.959 . S
C961 H946 0.959 . S
C961 H947 0.961 . S
C961 C960 1.502 . S
C962 H948 0.960 . S
C962 H949 0.961 . S
C962 H950 0.959 1_556 S
C962 C960 1.561 . S
C963 C960 1.526 1_554 S
C963 C964 1.396 . S
C963 C968 1.390 . S
C964 C958 1.465 1_554 S
C964 C963 1.396 . S
C964 C965 1.399 . S
C965 H951 0.929 . S
C965 C964 1.399 . S
C965 C966 1.385 . S
C966 H952 0.931 . S
C966 C965 1.385 . S
C966 C967 1.389 . S
C967 C966 1.389 . S
C967 C968 1.387 . S
C968 H953 0.930 . S
C968 C963 1.390 . S
C968 C967 1.387 . S
H969 C981 0.930 . S
H970 C983 0.930 . S
H971 C984 0.930 . S
H972 C988 0.959 . S
H973 C988 0.959 . S
H974 C988 0.961 1_556 S
H975 C989 0.960 . S
H976 C989 0.961 . S
H977 C989 0.959 . S
H978 C992 0.929 . S
H979 C993 0.931 . S
H980 C995 0.930 . S
C981 H969 0.930 . S
C981 C982 1.399 . S
C981 C986 1.399 . S
C982 C981 1.399 . S
C982 C983 1.376 . S
C983 H970 0.930 . S
C983 C982 1.376 . S
C983 C984 1.388 . S
C984 H971 0.930 . S
C984 C983 1.388 . S
C984 C985 1.390 . S
C985 C984 1.390 . S
C985 C986 1.394 . S
C985 C991 1.465 1_556 S
C986 C981 1.399 . S
C986 C985 1.394 . S
C986 C987 1.516 . S
C987 C986 1.516 . S
C987 C988 1.502 1_556 S
C987 C989 1.561 . S
C987 C990 1.526 1_556 S
C988 H972 0.959 . S
C988 H973 0.959 . S
C988 H974 0.961 1_554 S
C988 C987 1.502 1_554 S
C989 H975 0.960 . S
C989 H976 0.961 . S
C989 H977 0.959 . S
C989 C987 1.561 . S
C990 C987 1.526 1_554 S
C990 C991 1.396 . S
C990 C995 1.390 . S
C991 C985 1.465 1_554 S
C991 C990 1.396 . S
C991 C992 1.399 . S
C992 H978 0.929 . S
C992 C991 1.399 . S
C992 C993 1.385 . S
C993 H979 0.931 . S
C993 C992 1.385 . S
C993 C994 1.389 . S
C994 C993 1.389 . S
C994 C995 1.387 . S
C995 H980 0.930 . S
C995 C990 1.390 . S
C995 C994 1.387 . S
H996 C1008 0.930 . S
H997 C1010 0.930 . S
H998 C1011 0.930 . S
H999 C1015 0.959 . S
H1000 C1015 0.959 . S
H1001 C1015 0.961 . S
H1002 C1016 0.960 . S
H1003 C1016 0.961 . S
H1004 C1016 0.959 . S
H1005 C1019 0.929 . S
H1006 C1020 0.931 . S
H1007 C1022 0.930 . S
C1008 H996 0.930 . S
C1008 C1009 1.399 . S
C1008 C1013 1.399 . S
C1009 C1008 1.399 . S
C1009 C1010 1.376 . S
C1010 H997 0.930 . S
C1010 C1009 1.376 . S
C1010 C1011 1.388 . S
C1011 H998 0.930 . S
C1011 C1010 1.388 . S
C1011 C1012 1.390 . S
C1012 C1011 1.390 . S
C1012 C1013 1.394 . S
C1012 C1018 1.465 . S
C1013 C1008 1.399 . S
C1013 C1012 1.394 . S
C1013 C1014 1.516 . S
C1014 C1013 1.516 . S
C1014 C1015 1.502 . S
C1014 C1016 1.561 . S
C1014 C1017 1.526 . S
C1015 H999 0.959 . S
C1015 H1000 0.959 . S
C1015 H1001 0.961 . S
C1015 C1014 1.502 . S
C1016 H1002 0.960 . S
C1016 H1003 0.961 . S
C1016 H1004 0.959 . S
C1016 C1014 1.561 . S
C1017 C1014 1.526 . S
C1017 C1018 1.396 . S
C1017 C1022 1.390 . S
C1018 C1012 1.465 . S
C1018 C1017 1.396 . S
C1018 C1019 1.399 . S
C1019 H1005 0.929 . S
C1019 C1018 1.399 . S
C1019 C1020 1.385 . S
C1020 H1006 0.931 . S
C1020 C1019 1.385 . S
C1020 C1021 1.389 . S
C1021 C1020 1.389 . S
C1021 C1022 1.387 . S
C1022 H1007 0.930 . S
C1022 C1017 1.390 . S
C1022 C1021 1.387 . S
H1023 C1035 0.930 . S
H1024 C1037 0.930 . S
H1025 C1038 0.930 . S
H1026 C1042 0.959 . S
H1027 C1042 0.959 . S
H1028 C1042 0.961 . S
H1029 C1043 0.960 . S
H1030 C1043 0.961 . S
H1031 C1043 0.959 . S
H1032 C1046 0.929 . S
H1033 C1047 0.931 . S
H1034 C1049 0.930 . S
C1035 H1023 0.930 . S
C1035 C1036 1.399 . S
C1035 C1040 1.399 . S
C1036 C1035 1.399 . S
C1036 C1037 1.376 . S
C1037 H1024 0.930 . S
C1037 C1036 1.376 . S
C1037 C1038 1.388 . S
C1038 H1025 0.930 . S
C1038 C1037 1.388 . S
C1038 C1039 1.390 . S
C1039 C1038 1.390 . S
C1039 C1040 1.394 . S
C1039 C1045 1.465 . S
C1040 C1035 1.399 . S
C1040 C1039 1.394 . S
C1040 C1041 1.516 . S
C1041 C1040 1.516 . S
C1041 C1042 1.502 . S
C1041 C1043 1.561 . S
C1041 C1044 1.526 . S
C1042 H1026 0.959 . S
C1042 H1027 0.959 . S
C1042 H1028 0.961 . S
C1042 C1041 1.502 . S
C1043 H1029 0.960 . S
C1043 H1030 0.961 . S
C1043 H1031 0.959 . S
C1043 C1041 1.561 . S
C1044 C1041 1.526 . S
C1044 C1045 1.396 . S
C1044 C1049 1.390 . S
C1045 C1039 1.465 . S
C1045 C1044 1.396 . S
C1045 C1046 1.399 . S
C1046 H1032 0.929 . S
C1046 C1045 1.399 . S
C1046 C1047 1.385 . S
C1047 H1033 0.931 . S
C1047 C1046 1.385 . S
C1047 C1048 1.389 . S
C1048 C1047 1.389 . S
C1048 C1049 1.387 . S
C1049 H1034 0.930 . S
C1049 C1044 1.390 . S
C1049 C1048 1.387 . S
H1050 C1062 0.930 . S
H1051 C1064 0.930 . S
H1052 C1065 0.930 . S
H1053 C1069 0.959 . S
H1054 C1069 0.959 . S
H1055 C1069 0.961 . S
H1056 C1070 0.960 . S
H1057 C1070 0.961 . S
H1058 C1070 0.959 . S
H1059 C1073 0.929 . S
H1060 C1074 0.931 . S
H1061 C1076 0.930 . S
C1062 H1050 0.930 . S
C1062 C1063 1.399 . S
C1062 C1067 1.399 . S
C1063 C1062 1.399 . S
C1063 C1064 1.376 . S
C1064 H1051 0.930 . S
C1064 C1063 1.376 . S
C1064 C1065 1.388 . S
C1065 H1052 0.930 . S
C1065 C1064 1.388 . S
C1065 C1066 1.390 . S
C1066 C1065 1.390 . S
C1066 C1067 1.394 . S
C1066 C1072 1.465 . S
C1067 C1062 1.399 . S
C1067 C1066 1.394 . S
C1067 C1068 1.516 . S
C1068 C1067 1.516 . S
C1068 C1069 1.502 . S
C1068 C1070 1.561 . S
C1068 C1071 1.526 . S
C1069 H1053 0.959 . S
C1069 H1054 0.959 . S
C1069 H1055 0.961 . S
C1069 C1068 1.502 . S
C1070 H1056 0.960 . S
C1070 H1057 0.961 . S
C1070 H1058 0.959 . S
C1070 C1068 1.561 . S
C1071 C1068 1.526 . S
C1071 C1072 1.396 . S
C1071 C1076 1.390 . S
C1072 C1066 1.465 . S
C1072 C1071 1.396 . S
C1072 C1073 1.399 . S
C1073 H1059 0.929 . S
C1073 C1072 1.399 . S
C1073 C1074 1.385 . S
C1074 H1060 0.931 . S
C1074 C1073 1.385 . S
C1074 C1075 1.389 . S
C1075 C1074 1.389 . S
C1075 C1076 1.387 . S
C1076 H1061 0.930 . S
C1076 C1071 1.390 . S
C1076 C1075 1.387 . S
H1077 C1089 0.930 . S
H1078 C1091 0.930 . S
H1079 C1092 0.930 . S
H1080 C1096 0.959 . S
H1081 C1096 0.959 . S
H1082 C1096 0.961 . S
H1083 C1097 0.960 . S
H1084 C1097 0.961 . S
H1085 C1097 0.959 . S
H1086 C1100 0.929 . S
H1087 C1101 0.931 . S
H1088 C1103 0.930 . S
C1089 H1077 0.930 . S
C1089 C1090 1.399 . S
C1089 C1094 1.399 . S
C1090 C1089 1.399 . S
C1090 C1091 1.376 . S
C1091 H1078 0.930 . S
C1091 C1090 1.376 . S
C1091 C1092 1.388 . S
C1092 H1079 0.930 . S
C1092 C1091 1.388 . S
C1092 C1093 1.390 . S
C1093 C1092 1.390 . S
C1093 C1094 1.394 . S
C1093 C1099 1.465 . S
C1094 C1089 1.399 . S
C1094 C1093 1.394 . S
C1094 C1095 1.516 . S
C1095 C1094 1.516 . S
C1095 C1096 1.502 . S
C1095 C1097 1.561 . S
C1095 C1098 1.526 . S
C1096 H1080 0.959 . S
C1096 H1081 0.959 . S
C1096 H1082 0.961 . S
C1096 C1095 1.502 . S
C1097 H1083 0.960 . S
C1097 H1084 0.961 . S
C1097 H1085 0.959 . S
C1097 C1095 1.561 . S
C1098 C1095 1.526 . S
C1098 C1099 1.396 . S
C1098 C1103 1.390 . S
C1099 C1093 1.465 . S
C1099 C1098 1.396 . S
C1099 C1100 1.399 . S
C1100 H1086 0.929 . S
C1100 C1099 1.399 . S
C1100 C1101 1.385 . S
C1101 H1087 0.931 . S
C1101 C1100 1.385 . S
C1101 C1102 1.389 . S
C1102 C1101 1.389 . S
C1102 C1103 1.387 . S
C1103 H1088 0.930 . S
C1103 C1098 1.390 . S
C1103 C1102 1.387 . S
H1104 C1116 0.930 . S
H1105 C1118 0.930 . S
H1106 C1119 0.930 . S
H1107 C1123 0.959 . S
H1108 C1123 0.959 . S
H1109 C1123 0.961 . S
H1110 C1124 0.960 . S
H1111 C1124 0.961 . S
H1112 C1124 0.959 . S
H1113 C1127 0.929 . S
H1114 C1128 0.931 . S
H1115 C1130 0.930 . S
C1116 H1104 0.930 . S
C1116 C1117 1.399 . S
C1116 C1121 1.399 . S
C1117 C1116 1.399 . S
C1117 C1118 1.376 . S
C1118 H1105 0.930 . S
C1118 C1117 1.376 . S
C1118 C1119 1.388 . S
C1119 H1106 0.930 . S
C1119 C1118 1.388 . S
C1119 C1120 1.390 . S
C1120 C1119 1.390 . S
C1120 C1121 1.394 . S
C1120 C1126 1.465 . S
C1121 C1116 1.399 . S
C1121 C1120 1.394 . S
C1121 C1122 1.516 . S
C1122 C1121 1.516 . S
C1122 C1123 1.502 . S
C1122 C1124 1.561 . S
C1122 C1125 1.526 . S
C1123 H1107 0.959 . S
C1123 H1108 0.959 . S
C1123 H1109 0.961 . S
C1123 C1122 1.502 . S
C1124 H1110 0.960 . S
C1124 H1111 0.961 . S
C1124 H1112 0.959 . S
C1124 C1122 1.561 . S
C1125 C1122 1.526 . S
C1125 C1126 1.396 . S
C1125 C1130 1.390 . S
C1126 C1120 1.465 . S
C1126 C1125 1.396 . S
C1126 C1127 1.399 . S
C1127 H1113 0.929 . S
C1127 C1126 1.399 . S
C1127 C1128 1.385 . S
C1128 H1114 0.931 . S
C1128 C1127 1.385 . S
C1128 C1129 1.389 . S
C1129 C1128 1.389 . S
C1129 C1130 1.387 . S
C1130 H1115 0.930 . S
C1130 C1125 1.390 . S
C1130 C1129 1.387 . S
H1131 C1143 0.930 . S
H1132 C1145 0.930 . S
H1133 C1146 0.930 . S
H1134 C1150 0.959 . S
H1135 C1150 0.959 . S
H1136 C1150 0.961 . S
H1137 C1151 0.960 . S
H1138 C1151 0.961 . S
H1139 C1151 0.959 . S
H1140 C1154 0.929 . S
H1141 C1155 0.931 . S
H1142 C1157 0.930 . S
C1143 H1131 0.930 . S
C1143 C1144 1.399 . S
C1143 C1148 1.399 . S
C1144 C1143 1.399 . S
C1144 C1145 1.376 . S
C1145 H1132 0.930 . S
C1145 C1144 1.376 . S
C1145 C1146 1.388 . S
C1146 H1133 0.930 . S
C1146 C1145 1.388 . S
C1146 C1147 1.390 . S
C1147 C1146 1.390 . S
C1147 C1148 1.394 . S
C1147 C1153 1.465 . S
C1148 C1143 1.399 . S
C1148 C1147 1.394 . S
C1148 C1149 1.516 . S
C1149 C1148 1.516 . S
C1149 C1150 1.502 . S
C1149 C1151 1.561 . S
C1149 C1152 1.526 . S
C1150 H1134 0.959 . S
C1150 H1135 0.959 . S
C1150 H1136 0.961 . S
C1150 C1149 1.502 . S
C1151 H1137 0.960 . S
C1151 H1138 0.961 . S
C1151 H1139 0.959 . S
C1151 C1149 1.561 . S
C1152 C1149 1.526 . S
C1152 C1153 1.396 . S
C1152 C1157 1.390 . S
C1153 C1147 1.465 . S
C1153 C1152 1.396 . S
C1153 C1154 1.399 . S
C1154 H1140 0.929 . S
C1154 C1153 1.399 . S
C1154 C1155 1.385 . S
C1155 H1141 0.931 . S
C1155 C1154 1.385 . S
C1155 C1156 1.389 . S
C1156 C1155 1.389 . S
C1156 C1157 1.387 . S
C1157 H1142 0.930 . S
C1157 C1152 1.390 . S
C1157 C1156 1.387 . S
H1158 C1170 0.930 . S
H1159 C1172 0.930 . S
H1160 C1173 0.930 . S
H1161 C1177 0.959 . S
H1162 C1177 0.959 . S
H1163 C1177 0.961 . S
H1164 C1178 0.960 . S
H1165 C1178 0.961 . S
H1166 C1178 0.959 . S
H1167 C1181 0.929 . S
H1168 C1182 0.931 . S
H1169 C1184 0.930 . S
C1170 H1158 0.930 . S
C1170 C1171 1.399 . S
C1170 C1175 1.399 . S
C1171 C1170 1.399 . S
C1171 C1172 1.376 . S
C1172 H1159 0.930 . S
C1172 C1171 1.376 . S
C1172 C1173 1.388 . S
C1173 H1160 0.930 . S
C1173 C1172 1.388 . S
C1173 C1174 1.390 . S
C1174 C1173 1.390 . S
C1174 C1175 1.394 . S
C1174 C1180 1.465 . S
C1175 C1170 1.399 . S
C1175 C1174 1.394 . S
C1175 C1176 1.516 . S
C1176 C1175 1.516 . S
C1176 C1177 1.502 . S
C1176 C1178 1.561 . S
C1176 C1179 1.526 . S
C1177 H1161 0.959 . S
C1177 H1162 0.959 . S
C1177 H1163 0.961 . S
C1177 C1176 1.502 . S
C1178 H1164 0.960 . S
C1178 H1165 0.961 . S
C1178 H1166 0.959 . S
C1178 C1176 1.561 . S
C1179 C1176 1.526 . S
C1179 C1180 1.396 . S
C1179 C1184 1.390 . S
C1180 C1174 1.465 . S
C1180 C1179 1.396 . S
C1180 C1181 1.399 . S
C1181 H1167 0.929 . S
C1181 C1180 1.399 . S
C1181 C1182 1.385 . S
C1182 H1168 0.931 . S
C1182 C1181 1.385 . S
C1182 C1183 1.389 . S
C1183 C1182 1.389 . S
C1183 C1184 1.387 . S
C1184 H1169 0.930 . S
C1184 C1179 1.390 . S
C1184 C1183 1.387 . S
H1185 C1197 0.930 . S
H1186 C1199 0.930 . S
H1187 C1200 0.930 . S
H1188 C1204 0.959 . S
H1189 C1204 0.959 . S
H1190 C1204 0.961 . S
H1191 C1205 0.960 . S
H1192 C1205 0.961 . S
H1193 C1205 0.959 . S
H1194 C1208 0.929 . S
H1195 C1209 0.931 . S
H1196 C1211 0.930 . S
C1197 H1185 0.930 . S
C1197 C1198 1.399 . S
C1197 C1202 1.399 . S
C1198 C1197 1.399 . S
C1198 C1199 1.376 . S
C1199 H1186 0.930 . S
C1199 C1198 1.376 . S
C1199 C1200 1.388 . S
C1200 H1187 0.930 . S
C1200 C1199 1.388 . S
C1200 C1201 1.390 . S
C1201 C1200 1.390 . S
C1201 C1202 1.394 . S
C1201 C1207 1.465 . S
C1202 C1197 1.399 . S
C1202 C1201 1.394 . S
C1202 C1203 1.516 . S
C1203 C1202 1.516 . S
C1203 C1204 1.502 . S
C1203 C1205 1.561 . S
C1203 C1206 1.526 . S
C1204 H1188 0.959 . S
C1204 H1189 0.959 . S
C1204 H1190 0.961 . S
C1204 C1203 1.502 . S
C1205 H1191 0.960 . S
C1205 H1192 0.961 . S
C1205 H1193 0.959 . S
C1205 C1203 1.561 . S
C1206 C1203 1.526 . S
C1206 C1207 1.396 . S
C1206 C1211 1.390 . S
C1207 C1201 1.465 . S
C1207 C1206 1.396 . S
C1207 C1208 1.399 . S
C1208 H1194 0.929 . S
C1208 C1207 1.399 . S
C1208 C1209 1.385 . S
C1209 H1195 0.931 . S
C1209 C1208 1.385 . S
C1209 C1210 1.389 . S
C1210 C1209 1.389 . S
C1210 C1211 1.387 . S
C1211 H1196 0.930 . S
C1211 C1206 1.390 . S
C1211 C1210 1.387 . S
H1212 C1224 0.930 . S
H1213 C1226 0.930 . S
H1214 C1227 0.930 . S
H1215 C1231 0.959 . S
H1216 C1231 0.959 . S
H1217 C1231 0.961 . S
H1218 C1232 0.960 . S
H1219 C1232 0.961 . S
H1220 C1232 0.959 . S
H1221 C1235 0.929 . S
H1222 C1236 0.931 . S
H1223 C1238 0.930 . S
C1224 H1212 0.930 . S
C1224 C1225 1.399 . S
C1224 C1229 1.399 . S
C1225 C1224 1.399 . S
C1225 C1226 1.376 . S
C1226 H1213 0.930 . S
C1226 C1225 1.376 . S
C1226 C1227 1.388 . S
C1227 H1214 0.930 . S
C1227 C1226 1.388 . S
C1227 C1228 1.390 . S
C1228 C1227 1.390 . S
C1228 C1229 1.394 . S
C1228 C1234 1.465 . S
C1229 C1224 1.399 . S
C1229 C1228 1.394 . S
C1229 C1230 1.516 . S
C1230 C1229 1.516 . S
C1230 C1231 1.502 . S
C1230 C1232 1.561 . S
C1230 C1233 1.526 . S
C1231 H1215 0.959 . S
C1231 H1216 0.959 . S
C1231 H1217 0.961 . S
C1231 C1230 1.502 . S
C1232 H1218 0.960 . S
C1232 H1219 0.961 . S
C1232 H1220 0.959 . S
C1232 C1230 1.561 . S
C1233 C1230 1.526 . S
C1233 C1234 1.396 . S
C1233 C1238 1.390 . S
C1234 C1228 1.465 . S
C1234 C1233 1.396 . S
C1234 C1235 1.399 . S
C1235 H1221 0.929 . S
C1235 C1234 1.399 . S
C1235 C1236 1.385 . S
C1236 H1222 0.931 . S
C1236 C1235 1.385 . S
C1236 C1237 1.389 . S
C1237 C1236 1.389 . S
C1237 C1238 1.387 . S
C1238 H1223 0.930 . S
C1238 C1233 1.390 . S
C1238 C1237 1.387 . S
H1239 C1251 0.930 . S
H1240 C1253 0.930 . S
H1241 C1254 0.930 . S
H1242 C1258 0.959 . S
H1243 C1258 0.959 . S
H1244 C1258 0.961 . S
H1245 C1259 0.960 . S
H1246 C1259 0.961 . S
H1247 C1259 0.959 . S
H1248 C1262 0.929 . S
H1249 C1263 0.931 . S
H1250 C1265 0.930 . S
C1251 H1239 0.930 . S
C1251 C1252 1.399 . S
C1251 C1256 1.399 . S
C1252 C1251 1.399 . S
C1252 C1253 1.376 . S
C1253 H1240 0.930 . S
C1253 C1252 1.376 . S
C1253 C1254 1.388 . S
C1254 H1241 0.930 . S
C1254 C1253 1.388 . S
C1254 C1255 1.390 . S
C1255 C1254 1.390 . S
C1255 C1256 1.394 . S
C1255 C1261 1.465 . S
C1256 C1251 1.399 . S
C1256 C1255 1.394 . S
C1256 C1257 1.516 . S
C1257 C1256 1.516 . S
C1257 C1258 1.502 . S
C1257 C1259 1.561 . S
C1257 C1260 1.526 . S
C1258 H1242 0.959 . S
C1258 H1243 0.959 . S
C1258 H1244 0.961 . S
C1258 C1257 1.502 . S
C1259 H1245 0.960 . S
C1259 H1246 0.961 . S
C1259 H1247 0.959 . S
C1259 C1257 1.561 . S
C1260 C1257 1.526 . S
C1260 C1261 1.396 . S
C1260 C1265 1.390 . S
C1261 C1255 1.465 . S
C1261 C1260 1.396 . S
C1261 C1262 1.399 . S
C1262 H1248 0.929 . S
C1262 C1261 1.399 . S
C1262 C1263 1.385 . S
C1263 H1249 0.931 . S
C1263 C1262 1.385 . S
C1263 C1264 1.389 . S
C1264 C1263 1.389 . S
C1264 C1265 1.387 . S
C1265 H1250 0.930 . S
C1265 C1260 1.390 . S
C1265 C1264 1.387 . S
H1266 C1278 0.930 . S
H1267 C1280 0.930 . S
H1268 C1281 0.930 . S
H1269 C1285 0.959 . S
H1270 C1285 0.959 . S
H1271 C1285 0.961 . S
H1272 C1286 0.960 . S
H1273 C1286 0.961 . S
H1274 C1286 0.959 . S
H1275 C1289 0.929 . S
H1276 C1290 0.931 . S
H1277 C1292 0.930 . S
C1278 H1266 0.930 . S
C1278 C1279 1.399 . S
C1278 C1283 1.399 . S
C1279 C1278 1.399 . S
C1279 C1280 1.376 . S
C1280 H1267 0.930 . S
C1280 C1279 1.376 . S
C1280 C1281 1.388 . S
C1281 H1268 0.930 . S
C1281 C1280 1.388 . S
C1281 C1282 1.390 . S
C1282 C1281 1.390 . S
C1282 C1283 1.394 . S
C1282 C1288 1.465 . S
C1283 C1278 1.399 . S
C1283 C1282 1.394 . S
C1283 C1284 1.516 . S
C1284 C1283 1.516 . S
C1284 C1285 1.502 . S
C1284 C1286 1.561 . S
C1284 C1287 1.526 . S
C1285 H1269 0.959 . S
C1285 H1270 0.959 . S
C1285 H1271 0.961 . S
C1285 C1284 1.502 . S
C1286 H1272 0.960 . S
C1286 H1273 0.961 . S
C1286 H1274 0.959 . S
C1286 C1284 1.561 . S
C1287 C1284 1.526 . S
C1287 C1288 1.396 . S
C1287 C1292 1.390 . S
C1288 C1282 1.465 . S
C1288 C1287 1.396 . S
C1288 C1289 1.399 . S
C1289 H1275 0.929 . S
C1289 C1288 1.399 . S
C1289 C1290 1.385 . S
C1290 H1276 0.931 . S
C1290 C1289 1.385 . S
C1290 C1291 1.389 . S
C1291 C1290 1.389 . S
C1291 C1292 1.387 . S
C1292 H1277 0.930 . S
C1292 C1287 1.390 . S
C1292 C1291 1.387 . S
H1293 C1305 0.930 . S
H1294 C1307 0.930 . S
H1295 C1308 0.930 . S
H1296 C1312 0.959 . S
H1297 C1312 0.959 . S
H1298 C1312 0.961 . S
H1299 C1313 0.960 . S
H1300 C1313 0.961 . S
H1301 C1313 0.959 . S
H1302 C1316 0.929 . S
H1303 C1317 0.931 . S
H1304 C1319 0.930 . S
C1305 H1293 0.930 . S
C1305 C1306 1.399 . S
C1305 C1310 1.399 . S
C1306 C1305 1.399 . S
C1306 C1307 1.376 . S
C1307 H1294 0.930 . S
C1307 C1306 1.376 . S
C1307 C1308 1.388 . S
C1308 H1295 0.930 . S
C1308 C1307 1.388 . S
C1308 C1309 1.390 . S
C1309 C1308 1.390 . S
C1309 C1310 1.394 . S
C1309 C1315 1.465 . S
C1310 C1305 1.399 . S
C1310 C1309 1.394 . S
C1310 C1311 1.516 . S
C1311 C1310 1.516 . S
C1311 C1312 1.502 . S
C1311 C1313 1.561 . S
C1311 C1314 1.526 . S
C1312 H1296 0.959 . S
C1312 H1297 0.959 . S
C1312 H1298 0.961 . S
C1312 C1311 1.502 . S
C1313 H1299 0.960 . S
C1313 H1300 0.961 . S
C1313 H1301 0.959 . S
C1313 C1311 1.561 . S
C1314 C1311 1.526 . S
C1314 C1315 1.396 . S
C1314 C1319 1.390 . S
C1315 C1309 1.465 . S
C1315 C1314 1.396 . S
C1315 C1316 1.399 . S
C1316 H1302 0.929 . S
C1316 C1315 1.399 . S
C1316 C1317 1.385 . S
C1317 H1303 0.931 . S
C1317 C1316 1.385 . S
C1317 C1318 1.389 . S
C1318 C1317 1.389 . S
C1318 C1319 1.387 . S
C1319 H1304 0.930 . S
C1319 C1314 1.390 . S
C1319 C1318 1.387 . S
H1320 C1332 0.930 . S
H1321 C1334 0.930 . S
H1322 C1335 0.930 . S
H1323 C1339 0.959 . S
H1324 C1339 0.959 . S
H1325 C1339 0.961 . S
H1326 C1340 0.960 . S
H1327 C1340 0.961 . S
H1328 C1340 0.959 . S
H1329 C1343 0.929 . S
H1330 C1344 0.931 . S
H1331 C1346 0.930 . S
C1332 H1320 0.930 . S
C1332 C1333 1.399 . S
C1332 C1337 1.399 . S
C1333 C1332 1.399 . S
C1333 C1334 1.376 . S
C1334 H1321 0.930 . S
C1334 C1333 1.376 . S
C1334 C1335 1.388 . S
C1335 H1322 0.930 . S
C1335 C1334 1.388 . S
C1335 C1336 1.390 . S
C1336 C1335 1.390 . S
C1336 C1337 1.394 . S
C1336 C1342 1.465 . S
C1337 C1332 1.399 . S
C1337 C1336 1.394 . S
C1337 C1338 1.516 . S
C1338 C1337 1.516 . S
C1338 C1339 1.502 . S
C1338 C1340 1.561 . S
C1338 C1341 1.526 . S
C1339 H1323 0.959 . S
C1339 H1324 0.959 . S
C1339 H1325 0.961 . S
C1339 C1338 1.502 . S
C1340 H1326 0.960 . S
C1340 H1327 0.961 . S
C1340 H1328 0.959 . S
C1340 C1338 1.561 . S
C1341 C1338 1.526 . S
C1341 C1342 1.396 . S
C1341 C1346 1.390 . S
C1342 C1336 1.465 . S
C1342 C1341 1.396 . S
C1342 C1343 1.399 . S
C1343 H1329 0.929 . S
C1343 C1342 1.399 . S
C1343 C1344 1.385 . S
C1344 H1330 0.931 . S
C1344 C1343 1.385 . S
C1344 C1345 1.389 . S
C1345 C1344 1.389 . S
C1345 C1346 1.387 . S
C1346 H1331 0.930 . S
C1346 C1341 1.390 . S
C1346 C1345 1.387 . S
H1347 C1359 0.930 . S
H1348 C1361 0.930 . S
H1349 C1362 0.930 . S
H1350 C1366 0.959 . S
H1351 C1366 0.959 . S
H1352 C1366 0.961 . S
H1353 C1367 0.960 . S
H1354 C1367 0.961 . S
H1355 C1367 0.959 . S
H1356 C1370 0.929 . S
H1357 C1371 0.931 . S
H1358 C1373 0.930 . S
C1359 H1347 0.930 . S
C1359 C1360 1.399 . S
C1359 C1364 1.399 . S
C1360 C1359 1.399 . S
C1360 C1361 1.376 . S
C1361 H1348 0.930 . S
C1361 C1360 1.376 . S
C1361 C1362 1.388 . S
C1362 H1349 0.930 . S
C1362 C1361 1.388 . S
C1362 C1363 1.390 . S
C1363 C1362 1.390 . S
C1363 C1364 1.394 . S
C1363 C1369 1.465 . S
C1364 C1359 1.399 . S
C1364 C1363 1.394 . S
C1364 C1365 1.516 . S
C1365 C1364 1.516 . S
C1365 C1366 1.502 . S
C1365 C1367 1.561 . S
C1365 C1368 1.526 . S
C1366 H1350 0.959 . S
C1366 H1351 0.959 . S
C1366 H1352 0.961 . S
C1366 C1365 1.502 . S
C1367 H1353 0.960 . S
C1367 H1354 0.961 . S
C1367 H1355 0.959 . S
C1367 C1365 1.561 . S
C1368 C1365 1.526 . S
C1368 C1369 1.396 . S
C1368 C1373 1.390 . S
C1369 C1363 1.465 . S
C1369 C1368 1.396 . S
C1369 C1370 1.399 . S
C1370 H1356 0.929 . S
C1370 C1369 1.399 . S
C1370 C1371 1.385 . S
C1371 H1357 0.931 . S
C1371 C1370 1.385 . S
C1371 C1372 1.389 . S
C1372 C1371 1.389 . S
C1372 C1373 1.387 . S
C1373 H1358 0.930 . S
C1373 C1368 1.390 . S
C1373 C1372 1.387 . S
H1374 C1386 0.930 . S
H1375 C1388 0.930 . S
H1376 C1389 0.930 . S
H1377 C1393 0.959 . S
H1378 C1393 0.959 . S
H1379 C1393 0.961 . S
H1380 C1394 0.960 . S
H1381 C1394 0.961 . S
H1382 C1394 0.959 . S
H1383 C1397 0.929 . S
H1384 C1398 0.931 . S
H1385 C1400 0.930 . S
C1386 H1374 0.930 . S
C1386 C1387 1.399 . S
C1386 C1391 1.399 . S
C1387 C1386 1.399 . S
C1387 C1388 1.376 . S
C1388 H1375 0.930 . S
C1388 C1387 1.376 . S
C1388 C1389 1.388 . S
C1389 H1376 0.930 . S
C1389 C1388 1.388 . S
C1389 C1390 1.390 . S
C1390 C1389 1.390 . S
C1390 C1391 1.394 . S
C1390 C1396 1.465 . S
C1391 C1386 1.399 . S
C1391 C1390 1.394 . S
C1391 C1392 1.516 . S
C1392 C1391 1.516 . S
C1392 C1393 1.502 . S
C1392 C1394 1.561 . S
C1392 C1395 1.526 . S
C1393 H1377 0.959 . S
C1393 H1378 0.959 . S
C1393 H1379 0.961 . S
C1393 C1392 1.502 . S
C1394 H1380 0.960 . S
C1394 H1381 0.961 . S
C1394 H1382 0.959 . S
C1394 C1392 1.561 . S
C1395 C1392 1.526 . S
C1395 C1396 1.396 . S
C1395 C1400 1.390 . S
C1396 C1390 1.465 . S
C1396 C1395 1.396 . S
C1396 C1397 1.399 . S
C1397 H1383 0.929 . S
C1397 C1396 1.399 . S
C1397 C1398 1.385 . S
C1398 H1384 0.931 . S
C1398 C1397 1.385 . S
C1398 C1399 1.389 . S
C1399 C1398 1.389 . S
C1399 C1400 1.387 . S
C1400 H1385 0.930 . S
C1400 C1395 1.390 . S
C1400 C1399 1.387 . S
H1401 C1413 0.930 . S
H1402 C1415 0.930 . S
H1403 C1416 0.930 . S
H1404 C1420 0.959 . S
H1405 C1420 0.959 . S
H1406 C1420 0.961 . S
H1407 C1421 0.960 . S
H1408 C1421 0.961 . S
H1409 C1421 0.959 . S
H1410 C1424 0.929 . S
H1411 C1425 0.931 . S
H1412 C1427 0.930 . S
C1413 H1401 0.930 . S
C1413 C1414 1.399 . S
C1413 C1418 1.399 . S
C1414 C1413 1.399 . S
C1414 C1415 1.376 . S
C1415 H1402 0.930 . S
C1415 C1414 1.376 . S
C1415 C1416 1.388 . S
C1416 H1403 0.930 . S
C1416 C1415 1.388 . S
C1416 C1417 1.390 . S
C1417 C1416 1.390 . S
C1417 C1418 1.394 . S
C1417 C1423 1.465 . S
C1418 C1413 1.399 . S
C1418 C1417 1.394 . S
C1418 C1419 1.516 . S
C1419 C1418 1.516 . S
C1419 C1420 1.502 . S
C1419 C1421 1.561 . S
C1419 C1422 1.526 . S
C1420 H1404 0.959 . S
C1420 H1405 0.959 . S
C1420 H1406 0.961 . S
C1420 C1419 1.502 . S
C1421 H1407 0.960 . S
C1421 H1408 0.961 . S
C1421 H1409 0.959 . S
C1421 C1419 1.561 . S
C1422 C1419 1.526 . S
C1422 C1423 1.396 . S
C1422 C1427 1.390 . S
C1423 C1417 1.465 . S
C1423 C1422 1.396 . S
C1423 C1424 1.399 . S
C1424 H1410 0.929 . S
C1424 C1423 1.399 . S
C1424 C1425 1.385 . S
C1425 H1411 0.931 . S
C1425 C1424 1.385 . S
C1425 C1426 1.389 . S
C1426 C1425 1.389 . S
C1426 C1427 1.387 . S
C1427 H1412 0.930 . S
C1427 C1422 1.390 . S
C1427 C1426 1.387 . S
H1428 C1440 0.930 . S
H1429 C1442 0.930 . S
H1430 C1443 0.930 . S
H1431 C1447 0.959 . S
H1432 C1447 0.959 . S
H1433 C1447 0.961 . S
H1434 C1448 0.960 . S
H1435 C1448 0.961 . S
H1436 C1448 0.959 . S
H1437 C1451 0.929 . S
H1438 C1452 0.931 . S
H1439 C1454 0.930 . S
C1440 H1428 0.930 . S
C1440 C1441 1.399 . S
C1440 C1445 1.399 . S
C1441 C1440 1.399 . S
C1441 C1442 1.376 . S
C1442 H1429 0.930 . S
C1442 C1441 1.376 . S
C1442 C1443 1.388 . S
C1443 H1430 0.930 . S
C1443 C1442 1.388 . S
C1443 C1444 1.390 . S
C1444 C1443 1.390 . S
C1444 C1445 1.394 . S
C1444 C1450 1.465 . S
C1445 C1440 1.399 . S
C1445 C1444 1.394 . S
C1445 C1446 1.516 . S
C1446 C1445 1.516 . S
C1446 C1447 1.502 . S
C1446 C1448 1.561 . S
C1446 C1449 1.526 . S
C1447 H1431 0.959 . S
C1447 H1432 0.959 . S
C1447 H1433 0.961 . S
C1447 C1446 1.502 . S
C1448 H1434 0.960 . S
C1448 H1435 0.961 . S
C1448 H1436 0.959 . S
C1448 C1446 1.561 . S
C1449 C1446 1.526 . S
C1449 C1450 1.396 . S
C1449 C1454 1.390 . S
C1450 C1444 1.465 . S
C1450 C1449 1.396 . S
C1450 C1451 1.399 . S
C1451 H1437 0.929 . S
C1451 C1450 1.399 . S
C1451 C1452 1.385 . S
C1452 H1438 0.931 . S
C1452 C1451 1.385 . S
C1452 C1453 1.389 . S
C1453 C1452 1.389 . S
C1453 C1454 1.387 . S
C1454 H1439 0.930 . S
C1454 C1449 1.390 . S
C1454 C1453 1.387 . S
H1455 C1467 0.930 . S
H1456 C1469 0.930 . S
H1457 C1470 0.930 . S
H1458 C1474 0.959 . S
H1459 C1474 0.959 . S
H1460 C1474 0.961 . S
H1461 C1475 0.960 . S
H1462 C1475 0.961 . S
H1463 C1475 0.959 . S
H1464 C1478 0.929 . S
H1465 C1479 0.931 . S
H1466 C1481 0.930 . S
C1467 H1455 0.930 . S
C1467 C1468 1.399 . S
C1467 C1472 1.399 . S
C1468 C1467 1.399 . S
C1468 C1469 1.376 . S
C1469 H1456 0.930 . S
C1469 C1468 1.376 . S
C1469 C1470 1.388 . S
C1470 H1457 0.930 . S
C1470 C1469 1.388 . S
C1470 C1471 1.390 . S
C1471 C1470 1.390 . S
C1471 C1472 1.394 . S
C1471 C1477 1.465 . S
C1472 C1467 1.399 . S
C1472 C1471 1.394 . S
C1472 C1473 1.516 . S
C1473 C1472 1.516 . S
C1473 C1474 1.502 . S
C1473 C1475 1.561 . S
C1473 C1476 1.526 . S
C1474 H1458 0.959 . S
C1474 H1459 0.959 . S
C1474 H1460 0.961 . S
C1474 C1473 1.502 . S
C1475 H1461 0.960 . S
C1475 H1462 0.961 . S
C1475 H1463 0.959 . S
C1475 C1473 1.561 . S
C1476 C1473 1.526 . S
C1476 C1477 1.396 . S
C1476 C1481 1.390 . S
C1477 C1471 1.465 . S
C1477 C1476 1.396 . S
C1477 C1478 1.399 . S
C1478 H1464 0.929 . S
C1478 C1477 1.399 . S
C1478 C1479 1.385 . S
C1479 H1465 0.931 . S
C1479 C1478 1.385 . S
C1479 C1480 1.389 . S
C1480 C1479 1.389 . S
C1480 C1481 1.387 . S
C1481 H1466 0.930 . S
C1481 C1476 1.390 . S
C1481 C1480 1.387 . S
H1482 C1494 0.930 . S
H1483 C1496 0.930 . S
H1484 C1497 0.930 . S
H1485 C1501 0.959 . S
H1486 C1501 0.959 . S
H1487 C1501 0.961 . S
H1488 C1502 0.960 . S
H1489 C1502 0.961 . S
H1490 C1502 0.959 . S
H1491 C1505 0.929 . S
H1492 C1506 0.931 . S
H1493 C1508 0.930 . S
C1494 H1482 0.930 . S
C1494 C1495 1.399 . S
C1494 C1499 1.399 . S
C1495 C1494 1.399 . S
C1495 C1496 1.376 . S
C1496 H1483 0.930 . S
C1496 C1495 1.376 . S
C1496 C1497 1.388 . S
C1497 H1484 0.930 . S
C1497 C1496 1.388 . S
C1497 C1498 1.390 . S
C1498 C1497 1.390 . S
C1498 C1499 1.394 . S
C1498 C1504 1.465 . S
C1499 C1494 1.399 . S
C1499 C1498 1.394 . S
C1499 C1500 1.516 . S
C1500 C1499 1.516 . S
C1500 C1501 1.502 . S
C1500 C1502 1.561 . S
C1500 C1503 1.526 . S
C1501 H1485 0.959 . S
C1501 H1486 0.959 . S
C1501 H1487 0.961 . S
C1501 C1500 1.502 . S
C1502 H1488 0.960 . S
C1502 H1489 0.961 . S
C1502 H1490 0.959 . S
C1502 C1500 1.561 . S
C1503 C1500 1.526 . S
C1503 C1504 1.396 . S
C1503 C1508 1.390 . S
C1504 C1498 1.465 . S
C1504 C1503 1.396 . S
C1504 C1505 1.399 . S
C1505 H1491 0.929 . S
C1505 C1504 1.399 . S
C1505 C1506 1.385 . S
C1506 H1492 0.931 . S
C1506 C1505 1.385 . S
C1506 C1507 1.389 . S
C1507 C1506 1.389 . S
C1507 C1508 1.387 . S
C1508 H1493 0.930 . S
C1508 C1503 1.390 . S
C1508 C1507 1.387 . S
H1509 C1521 0.930 . S
H1510 C1523 0.930 . S
H1511 C1524 0.930 . S
H1512 C1528 0.959 . S
H1513 C1528 0.959 . S
H1514 C1528 0.961 . S
H1515 C1529 0.960 . S
H1516 C1529 0.961 . S
H1517 C1529 0.959 . S
H1518 C1532 0.929 . S
H1519 C1533 0.931 . S
H1520 C1535 0.930 . S
C1521 H1509 0.930 . S
C1521 C1522 1.399 . S
C1521 C1526 1.399 . S
C1522 C1521 1.399 . S
C1522 C1523 1.376 . S
C1523 H1510 0.930 . S
C1523 C1522 1.376 . S
C1523 C1524 1.388 . S
C1524 H1511 0.930 . S
C1524 C1523 1.388 . S
C1524 C1525 1.390 . S
C1525 C1524 1.390 . S
C1525 C1526 1.394 . S
C1525 C1531 1.465 . S
C1526 C1521 1.399 . S
C1526 C1525 1.394 . S
C1526 C1527 1.516 . S
C1527 C1526 1.516 . S
C1527 C1528 1.502 . S
C1527 C1529 1.561 . S
C1527 C1530 1.526 . S
C1528 H1512 0.959 . S
C1528 H1513 0.959 . S
C1528 H1514 0.961 . S
C1528 C1527 1.502 . S
C1529 H1515 0.960 . S
C1529 H1516 0.961 . S
C1529 H1517 0.959 . S
C1529 C1527 1.561 . S
C1530 C1527 1.526 . S
C1530 C1531 1.396 . S
C1530 C1535 1.390 . S
C1531 C1525 1.465 . S
C1531 C1530 1.396 . S
C1531 C1532 1.399 . S
C1532 H1518 0.929 . S
C1532 C1531 1.399 . S
C1532 C1533 1.385 . S
C1533 H1519 0.931 . S
C1533 C1532 1.385 . S
C1533 C1534 1.389 . S
C1534 C1533 1.389 . S
C1534 C1535 1.387 . S
C1535 H1520 0.930 . S
C1535 C1530 1.390 . S
C1535 C1534 1.387 . S
H1536 C1548 0.930 . S
H1537 C1550 0.930 . S
H1538 C1551 0.930 . S
H1539 C1555 0.959 . S
H1540 C1555 0.959 . S
H1541 C1555 0.961 . S
H1542 C1556 0.960 . S
H1543 C1556 0.961 . S
H1544 C1556 0.959 . S
H1545 C1559 0.929 . S
H1546 C1560 0.931 . S
H1547 C1562 0.930 . S
C1548 H1536 0.930 . S
C1548 C1549 1.399 . S
C1548 C1553 1.399 . S
C1549 C1548 1.399 . S
C1549 C1550 1.376 . S
C1550 H1537 0.930 . S
C1550 C1549 1.376 . S
C1550 C1551 1.388 . S
C1551 H1538 0.930 . S
C1551 C1550 1.388 . S
C1551 C1552 1.390 . S
C1552 C1551 1.390 . S
C1552 C1553 1.394 . S
C1552 C1558 1.465 . S
C1553 C1548 1.399 . S
C1553 C1552 1.394 . S
C1553 C1554 1.516 . S
C1554 C1553 1.516 . S
C1554 C1555 1.502 . S
C1554 C1556 1.561 . S
C1554 C1557 1.526 . S
C1555 H1539 0.959 . S
C1555 H1540 0.959 . S
C1555 H1541 0.961 . S
C1555 C1554 1.502 . S
C1556 H1542 0.960 . S
C1556 H1543 0.961 . S
C1556 H1544 0.959 . S
C1556 C1554 1.561 . S
C1557 C1554 1.526 . S
C1557 C1558 1.396 . S
C1557 C1562 1.390 . S
C1558 C1552 1.465 . S
C1558 C1557 1.396 . S
C1558 C1559 1.399 . S
C1559 H1545 0.929 . S
C1559 C1558 1.399 . S
C1559 C1560 1.385 . S
C1560 H1546 0.931 . S
C1560 C1559 1.385 . S
C1560 C1561 1.389 . S
C1561 C1560 1.389 . S
C1561 C1562 1.387 . S
C1562 H1547 0.930 . S
C1562 C1557 1.390 . S
C1562 C1561 1.387 . S
H1563 C1575 0.930 . S
H1564 C1577 0.930 . S
H1565 C1578 0.930 . S
H1566 C1582 0.959 . S
H1567 C1582 0.959 . S
H1568 C1582 0.961 . S
H1569 C1583 0.960 . S
H1570 C1583 0.961 . S
H1571 C1583 0.959 . S
H1572 C1586 0.929 . S
H1573 C1587 0.931 . S
H1574 C1589 0.930 . S
C1575 H1563 0.930 . S
C1575 C1576 1.399 . S
C1575 C1580 1.399 . S
C1576 C1575 1.399 . S
C1576 C1577 1.376 . S
C1577 H1564 0.930 . S
C1577 C1576 1.376 . S
C1577 C1578 1.388 . S
C1578 H1565 0.930 . S
C1578 C1577 1.388 . S
C1578 C1579 1.390 . S
C1579 C1578 1.390 . S
C1579 C1580 1.394 . S
C1579 C1585 1.465 . S
C1580 C1575 1.399 . S
C1580 C1579 1.394 . S
C1580 C1581 1.516 . S
C1581 C1580 1.516 . S
C1581 C1582 1.502 . S
C1581 C1583 1.561 . S
C1581 C1584 1.526 . S
C1582 H1566 0.959 . S
C1582 H1567 0.959 . S
C1582 H1568 0.961 . S
C1582 C1581 1.502 . S
C1583 H1569 0.960 . S
C1583 H1570 0.961 . S
C1583 H1571 0.959 . S
C1583 C1581 1.561 . S
C1584 C1581 1.526 . S
C1584 C1585 1.396 . S
C1584 C1589 1.390 . S
C1585 C1579 1.465 . S
C1585 C1584 1.396 . S
C1585 C1586 1.399 . S
C1586 H1572 0.929 . S
C1586 C1585 1.399 . S
C1586 C1587 1.385 . S
C1587 H1573 0.931 . S
C1587 C1586 1.385 . S
C1587 C1588 1.389 . S
C1588 C1587 1.389 . S
C1588 C1589 1.387 . S
C1589 H1574 0.930 . S
C1589 C1584 1.390 . S
C1589 C1588 1.387 . S
H1590 C1602 0.930 . S
H1591 C1604 0.930 . S
H1592 C1605 0.930 . S
H1593 C1609 0.959 . S
H1594 C1609 0.959 . S
H1595 C1609 0.961 . S
H1596 C1610 0.960 . S
H1597 C1610 0.961 . S
H1598 C1610 0.959 . S
H1599 C1613 0.929 . S
H1600 C1614 0.931 . S
H1601 C1616 0.930 . S
C1602 H1590 0.930 . S
C1602 C1603 1.399 . S
C1602 C1607 1.399 . S
C1603 C1602 1.399 . S
C1603 C1604 1.376 . S
C1604 H1591 0.930 . S
C1604 C1603 1.376 . S
C1604 C1605 1.388 . S
C1605 H1592 0.930 . S
C1605 C1604 1.388 . S
C1605 C1606 1.390 . S
C1606 C1605 1.390 . S
C1606 C1607 1.394 . S
C1606 C1612 1.465 . S
C1607 C1602 1.399 . S
C1607 C1606 1.394 . S
C1607 C1608 1.516 . S
C1608 C1607 1.516 . S
C1608 C1609 1.502 . S
C1608 C1610 1.561 . S
C1608 C1611 1.526 . S
C1609 H1593 0.959 . S
C1609 H1594 0.959 . S
C1609 H1595 0.961 . S
C1609 C1608 1.502 . S
C1610 H1596 0.960 . S
C1610 H1597 0.961 . S
C1610 H1598 0.959 . S
C1610 C1608 1.561 . S
C1611 C1608 1.526 . S
C1611 C1612 1.396 . S
C1611 C1616 1.390 . S
C1612 C1606 1.465 . S
C1612 C1611 1.396 . S
C1612 C1613 1.399 . S
C1613 H1599 0.929 . S
C1613 C1612 1.399 . S
C1613 C1614 1.385 . S
C1614 H1600 0.931 . S
C1614 C1613 1.385 . S
C1614 C1615 1.389 . S
C1615 C1614 1.389 . S
C1615 C1616 1.387 . S
C1616 H1601 0.930 . S
C1616 C1611 1.390 . S
C1616 C1615 1.387 . S
H1617 C1629 0.930 . S
H1618 C1631 0.930 . S
H1619 C1632 0.930 . S
H1620 C1636 0.959 . S
H1621 C1636 0.959 . S
H1622 C1636 0.961 . S
H1623 C1637 0.960 . S
H1624 C1637 0.961 . S
H1625 C1637 0.959 . S
H1626 C1640 0.929 . S
H1627 C1641 0.931 . S
H1628 C1643 0.930 . S
C1629 H1617 0.930 . S
C1629 C1630 1.399 . S
C1629 C1634 1.399 . S
C1630 C1629 1.399 . S
C1630 C1631 1.376 . S
C1631 H1618 0.930 . S
C1631 C1630 1.376 . S
C1631 C1632 1.388 . S
C1632 H1619 0.930 . S
C1632 C1631 1.388 . S
C1632 C1633 1.390 . S
C1633 C1632 1.390 . S
C1633 C1634 1.394 . S
C1633 C1639 1.465 . S
C1634 C1629 1.399 . S
C1634 C1633 1.394 . S
C1634 C1635 1.516 . S
C1635 C1634 1.516 . S
C1635 C1636 1.502 . S
C1635 C1637 1.561 . S
C1635 C1638 1.526 . S
C1636 H1620 0.959 . S
C1636 H1621 0.959 . S
C1636 H1622 0.961 . S
C1636 C1635 1.502 . S
C1637 H1623 0.960 . S
C1637 H1624 0.961 . S
C1637 H1625 0.959 . S
C1637 C1635 1.561 . S
C1638 C1635 1.526 . S
C1638 C1639 1.396 . S
C1638 C1643 1.390 . S
C1639 C1633 1.465 . S
C1639 C1638 1.396 . S
C1639 C1640 1.399 . S
C1640 H1626 0.929 . S
C1640 C1639 1.399 . S
C1640 C1641 1.385 . S
C1641 H1627 0.931 . S
C1641 C1640 1.385 . S
C1641 C1642 1.389 . S
C1642 C1641 1.389 . S
C1642 C1643 1.387 . S
C1643 H1628 0.930 . S
C1643 C1638 1.390 . S
C1643 C1642 1.387 . S
H1644 C1656 0.930 . S
H1645 C1658 0.930 . S
H1646 C1659 0.930 . S
H1647 C1663 0.959 . S
H1648 C1663 0.959 . S
H1649 C1663 0.961 . S
H1650 C1664 0.960 . S
H1651 C1664 0.961 . S
H1652 C1664 0.959 . S
H1653 C1667 0.929 . S
H1654 C1668 0.931 . S
H1655 C1670 0.930 . S
C1656 H1644 0.930 . S
C1656 C1657 1.399 . S
C1656 C1661 1.399 . S
C1657 C1656 1.399 . S
C1657 C1658 1.376 . S
C1658 H1645 0.930 . S
C1658 C1657 1.376 . S
C1658 C1659 1.388 . S
C1659 H1646 0.930 . S
C1659 C1658 1.388 . S
C1659 C1660 1.390 . S
C1660 C1659 1.390 . S
C1660 C1661 1.394 . S
C1660 C1666 1.465 . S
C1661 C1656 1.399 . S
C1661 C1660 1.394 . S
C1661 C1662 1.516 . S
C1662 C1661 1.516 . S
C1662 C1663 1.502 . S
C1662 C1664 1.561 . S
C1662 C1665 1.526 . S
C1663 H1647 0.959 . S
C1663 H1648 0.959 . S
C1663 H1649 0.961 . S
C1663 C1662 1.502 . S
C1664 H1650 0.960 . S
C1664 H1651 0.961 . S
C1664 H1652 0.959 . S
C1664 C1662 1.561 . S
C1665 C1662 1.526 . S
C1665 C1666 1.396 . S
C1665 C1670 1.390 . S
C1666 C1660 1.465 . S
C1666 C1665 1.396 . S
C1666 C1667 1.399 . S
C1667 H1653 0.929 . S
C1667 C1666 1.399 . S
C1667 C1668 1.385 . S
C1668 H1654 0.931 . S
C1668 C1667 1.385 . S
C1668 C1669 1.389 . S
C1669 C1668 1.389 . S
C1669 C1670 1.387 . S
C1670 H1655 0.930 . S
C1670 C1665 1.390 . S
C1670 C1669 1.387 . S
H1671 C1683 0.930 . S
H1672 C1685 0.930 . S
H1673 C1686 0.930 . S
H1674 C1690 0.959 . S
H1675 C1690 0.959 . S
H1676 C1690 0.961 . S
H1677 C1691 0.960 . S
H1678 C1691 0.961 . S
H1679 C1691 0.959 . S
H1680 C1694 0.929 . S
H1681 C1695 0.931 . S
H1682 C1697 0.930 . S
C1683 H1671 0.930 . S
C1683 C1684 1.399 . S
C1683 C1688 1.399 . S
C1684 C1683 1.399 . S
C1684 C1685 1.376 . S
C1685 H1672 0.930 . S
C1685 C1684 1.376 . S
C1685 C1686 1.388 . S
C1686 H1673 0.930 . S
C1686 C1685 1.388 . S
C1686 C1687 1.390 . S
C1687 C1686 1.390 . S
C1687 C1688 1.394 . S
C1687 C1693 1.465 . S
C1688 C1683 1.399 . S
C1688 C1687 1.394 . S
C1688 C1689 1.516 . S
C1689 C1688 1.516 . S
C1689 C1690 1.502 . S
C1689 C1691 1.561 . S
C1689 C1692 1.526 . S
C1690 H1674 0.959 . S
C1690 H1675 0.959 . S
C1690 H1676 0.961 . S
C1690 C1689 1.502 . S
C1691 H1677 0.960 . S
C1691 H1678 0.961 . S
C1691 H1679 0.959 . S
C1691 C1689 1.561 . S
C1692 C1689 1.526 . S
C1692 C1693 1.396 . S
C1692 C1697 1.390 . S
C1693 C1687 1.465 . S
C1693 C1692 1.396 . S
C1693 C1694 1.399 . S
C1694 H1680 0.929 . S
C1694 C1693 1.399 . S
C1694 C1695 1.385 . S
C1695 H1681 0.931 . S
C1695 C1694 1.385 . S
C1695 C1696 1.389 . S
C1696 C1695 1.389 . S
C1696 C1697 1.387 . S
C1697 H1682 0.930 . S
C1697 C1692 1.390 . S
C1697 C1696 1.387 . S
H1698 C1710 0.930 . S
H1699 C1712 0.930 . S
H1700 C1713 0.930 . S
H1701 C1717 0.959 . S
H1702 C1717 0.959 . S
H1703 C1717 0.961 . S
H1704 C1718 0.960 . S
H1705 C1718 0.961 . S
H1706 C1718 0.959 . S
H1707 C1721 0.929 . S
H1708 C1722 0.931 . S
H1709 C1724 0.930 . S
C1710 H1698 0.930 . S
C1710 C1711 1.399 . S
C1710 C1715 1.399 . S
C1711 C1710 1.399 . S
C1711 C1712 1.376 . S
C1712 H1699 0.930 . S
C1712 C1711 1.376 . S
C1712 C1713 1.388 . S
C1713 H1700 0.930 . S
C1713 C1712 1.388 . S
C1713 C1714 1.390 . S
C1714 C1713 1.390 . S
C1714 C1715 1.394 . S
C1714 C1720 1.465 . S
C1715 C1710 1.399 . S
C1715 C1714 1.394 . S
C1715 C1716 1.516 . S
C1716 C1715 1.516 . S
C1716 C1717 1.502 . S
C1716 C1718 1.561 . S
C1716 C1719 1.526 . S
C1717 H1701 0.959 . S
C1717 H1702 0.959 . S
C1717 H1703 0.961 . S
C1717 C1716 1.502 . S
C1718 H1704 0.960 . S
C1718 H1705 0.961 . S
C1718 H1706 0.959 . S
C1718 C1716 1.561 . S
C1719 C1716 1.526 . S
C1719 C1720 1.396 . S
C1719 C1724 1.390 . S
C1720 C1714 1.465 . S
C1720 C1719 1.396 . S
C1720 C1721 1.399 . S
C1721 H1707 0.929 . S
C1721 C1720 1.399 . S
C1721 C1722 1.385 . S
C1722 H1708 0.931 . S
C1722 C1721 1.385 . S
C1722 C1723 1.389 . S
C1723 C1722 1.389 . S
C1723 C1724 1.387 . S
C1724 H1709 0.930 . S
C1724 C1719 1.390 . S
C1724 C1723 1.387 . S
H1725 C1737 0.930 . S
H1726 C1739 0.930 . S
H1727 C1740 0.930 . S
H1728 C1744 0.959 . S
H1729 C1744 0.959 . S
H1730 C1744 0.961 . S
H1731 C1745 0.960 . S
H1732 C1745 0.961 . S
H1733 C1745 0.959 . S
H1734 C1748 0.929 . S
H1735 C1749 0.931 . S
H1736 C1751 0.930 . S
C1737 H1725 0.930 . S
C1737 C1738 1.399 . S
C1737 C1742 1.399 . S
C1738 C1737 1.399 . S
C1738 C1739 1.376 . S
C1739 H1726 0.930 . S
C1739 C1738 1.376 . S
C1739 C1740 1.388 . S
C1740 H1727 0.930 . S
C1740 C1739 1.388 . S
C1740 C1741 1.390 . S
C1741 C1740 1.390 . S
C1741 C1742 1.394 . S
C1741 C1747 1.465 . S
C1742 C1737 1.399 . S
C1742 C1741 1.394 . S
C1742 C1743 1.516 . S
C1743 C1742 1.516 . S
C1743 C1744 1.502 . S
C1743 C1745 1.561 . S
C1743 C1746 1.526 . S
C1744 H1728 0.959 . S
C1744 H1729 0.959 . S
C1744 H1730 0.961 . S
C1744 C1743 1.502 . S
C1745 H1731 0.960 . S
C1745 H1732 0.961 . S
C1745 H1733 0.959 . S
C1745 C1743 1.561 . S
C1746 C1743 1.526 . S
C1746 C1747 1.396 . S
C1746 C1751 1.390 . S
C1747 C1741 1.465 . S
C1747 C1746 1.396 . S
C1747 C1748 1.399 . S
C1748 H1734 0.929 . S
C1748 C1747 1.399 . S
C1748 C1749 1.385 . S
C1749 H1735 0.931 . S
C1749 C1748 1.385 . S
C1749 C1750 1.389 . S
C1750 C1749 1.389 . S
C1750 C1751 1.387 . S
C1751 H1736 0.930 . S
C1751 C1746 1.390 . S
C1751 C1750 1.387 . S
H1752 C1764 0.930 . S
H1753 C1766 0.930 . S
H1754 C1767 0.930 . S
H1755 C1771 0.959 . S
H1756 C1771 0.959 . S
H1757 C1771 0.961 . S
H1758 C1772 0.960 . S
H1759 C1772 0.961 . S
H1760 C1772 0.959 . S
H1761 C1775 0.929 . S
H1762 C1776 0.931 . S
H1763 C1778 0.930 . S
C1764 H1752 0.930 . S
C1764 C1765 1.399 . S
C1764 C1769 1.399 . S
C1765 C1764 1.399 . S
C1765 C1766 1.376 . S
C1766 H1753 0.930 . S
C1766 C1765 1.376 . S
C1766 C1767 1.388 . S
C1767 H1754 0.930 . S
C1767 C1766 1.388 . S
C1767 C1768 1.390 . S
C1768 C1767 1.390 . S
C1768 C1769 1.394 . S
C1768 C1774 1.465 . S
C1769 C1764 1.399 . S
C1769 C1768 1.394 . S
C1769 C1770 1.516 . S
C1770 C1769 1.516 . S
C1770 C1771 1.502 . S
C1770 C1772 1.561 . S
C1770 C1773 1.526 . S
C1771 H1755 0.959 . S
C1771 H1756 0.959 . S
C1771 H1757 0.961 . S
C1771 C1770 1.502 . S
C1772 H1758 0.960 . S
C1772 H1759 0.961 . S
C1772 H1760 0.959 . S
C1772 C1770 1.561 . S
C1773 C1770 1.526 . S
C1773 C1774 1.396 . S
C1773 C1778 1.390 . S
C1774 C1768 1.465 . S
C1774 C1773 1.396 . S
C1774 C1775 1.399 . S
C1775 H1761 0.929 . S
C1775 C1774 1.399 . S
C1775 C1776 1.385 . S
C1776 H1762 0.931 . S
C1776 C1775 1.385 . S
C1776 C1777 1.389 . S
C1777 C1776 1.389 . S
C1777 C1778 1.387 . S
C1778 H1763 0.930 . S
C1778 C1773 1.390 . S
C1778 C1777 1.387 . S
H1779 C1791 0.930 . S
H1780 C1793 0.930 . S
H1781 C1794 0.930 . S
H1782 C1798 0.959 . S
H1783 C1798 0.959 . S
H1784 C1798 0.961 . S
H1785 C1799 0.960 . S
H1786 C1799 0.961 . S
H1787 C1799 0.959 . S
H1788 C1802 0.929 . S
H1789 C1803 0.931 . S
H1790 C1805 0.930 . S
C1791 H1779 0.930 . S
C1791 C1792 1.399 . S
C1791 C1796 1.399 . S
C1792 C1791 1.399 . S
C1792 C1793 1.376 . S
C1793 H1780 0.930 . S
C1793 C1792 1.376 . S
C1793 C1794 1.388 . S
C1794 H1781 0.930 . S
C1794 C1793 1.388 . S
C1794 C1795 1.390 . S
C1795 C1794 1.390 . S
C1795 C1796 1.394 . S
C1795 C1801 1.465 . S
C1796 C1791 1.399 . S
C1796 C1795 1.394 . S
C1796 C1797 1.516 . S
C1797 C1796 1.516 . S
C1797 C1798 1.502 . S
C1797 C1799 1.561 . S
C1797 C1800 1.526 . S
C1798 H1782 0.959 . S
C1798 H1783 0.959 . S
C1798 H1784 0.961 . S
C1798 C1797 1.502 . S
C1799 H1785 0.960 . S
C1799 H1786 0.961 . S
C1799 H1787 0.959 . S
C1799 C1797 1.561 . S
C1800 C1797 1.526 . S
C1800 C1801 1.396 . S
C1800 C1805 1.390 . S
C1801 C1795 1.465 . S
C1801 C1800 1.396 . S
C1801 C1802 1.399 . S
C1802 H1788 0.929 . S
C1802 C1801 1.399 . S
C1802 C1803 1.385 . S
C1803 H1789 0.931 . S
C1803 C1802 1.385 . S
C1803 C1804 1.389 . S
C1804 C1803 1.389 . S
C1804 C1805 1.387 . S
C1805 H1790 0.930 . S
C1805 C1800 1.390 . S
C1805 C1804 1.387 . S
H1806 C1818 0.930 . S
H1807 C1820 0.930 . S
H1808 C1821 0.930 . S
H1809 C1825 0.959 . S
H1810 C1825 0.959 . S
H1811 C1825 0.961 . S
H1812 C1826 0.960 . S
H1813 C1826 0.961 . S
H1814 C1826 0.959 . S
H1815 C1829 0.929 . S
H1816 C1830 0.931 . S
H1817 C1832 0.930 . S
C1818 H1806 0.930 . S
C1818 C1819 1.399 . S
C1818 C1823 1.399 . S
C1819 C1818 1.399 . S
C1819 C1820 1.376 . S
C1820 H1807 0.930 . S
C1820 C1819 1.376 . S
C1820 C1821 1.388 . S
C1821 H1808 0.930 . S
C1821 C1820 1.388 . S
C1821 C1822 1.390 . S
C1822 C1821 1.390 . S
C1822 C1823 1.394 . S
C1822 C1828 1.465 . S
C1823 C1818 1.399 . S
C1823 C1822 1.394 . S
C1823 C1824 1.516 . S
C1824 C1823 1.516 . S
C1824 C1825 1.502 . S
C1824 C1826 1.561 . S
C1824 C1827 1.526 . S
C1825 H1809 0.959 . S
C1825 H1810 0.959 . S
C1825 H1811 0.961 . S
C1825 C1824 1.502 . S
C1826 H1812 0.960 . S
C1826 H1813 0.961 . S
C1826 H1814 0.959 . S
C1826 C1824 1.561 . S
C1827 C1824 1.526 . S
C1827 C1828 1.396 . S
C1827 C1832 1.390 . S
C1828 C1822 1.465 . S
C1828 C1827 1.396 . S
C1828 C1829 1.399 . S
C1829 H1815 0.929 . S
C1829 C1828 1.399 . S
C1829 C1830 1.385 . S
C1830 H1816 0.931 . S
C1830 C1829 1.385 . S
C1830 C1831 1.389 . S
C1831 C1830 1.389 . S
C1831 C1832 1.387 . S
C1832 H1817 0.930 . S
C1832 C1827 1.390 . S
C1832 C1831 1.387 . S
H1833 C1845 0.930 . S
H1834 C1847 0.930 . S
H1835 C1848 0.930 . S
H1836 C1852 0.959 . S
H1837 C1852 0.959 . S
H1838 C1852 0.961 . S
H1839 C1853 0.960 . S
H1840 C1853 0.961 . S
H1841 C1853 0.959 . S
H1842 C1856 0.929 . S
H1843 C1857 0.931 . S
H1844 C1859 0.930 . S
C1845 H1833 0.930 . S
C1845 C1846 1.399 . S
C1845 C1850 1.399 . S
C1846 C1845 1.399 . S
C1846 C1847 1.376 . S
C1847 H1834 0.930 . S
C1847 C1846 1.376 . S
C1847 C1848 1.388 . S
C1848 H1835 0.930 . S
C1848 C1847 1.388 . S
C1848 C1849 1.390 . S
C1849 C1848 1.390 . S
C1849 C1850 1.394 . S
C1849 C1855 1.465 . S
C1850 C1845 1.399 . S
C1850 C1849 1.394 . S
C1850 C1851 1.516 . S
C1851 C1850 1.516 . S
C1851 C1852 1.502 . S
C1851 C1853 1.561 . S
C1851 C1854 1.526 . S
C1852 H1836 0.959 . S
C1852 H1837 0.959 . S
C1852 H1838 0.961 . S
C1852 C1851 1.502 . S
C1853 H1839 0.960 . S
C1853 H1840 0.961 . S
C1853 H1841 0.959 . S
C1853 C1851 1.561 . S
C1854 C1851 1.526 . S
C1854 C1855 1.396 . S
C1854 C1859 1.390 . S
C1855 C1849 1.465 . S
C1855 C1854 1.396 . S
C1855 C1856 1.399 . S
C1856 H1842 0.929 . S
C1856 C1855 1.399 . S
C1856 C1857 1.385 . S
C1857 H1843 0.931 . S
C1857 C1856 1.385 . S
C1857 C1858 1.389 . S
C1858 C1857 1.389 . S
C1858 C1859 1.387 . S
C1859 H1844 0.930 . S
C1859 C1854 1.390 . S
C1859 C1858 1.387 . S
H1860 C1872 0.930 . S
H1861 C1874 0.930 . S
H1862 C1875 0.930 . S
H1863 C1879 0.959 . S
H1864 C1879 0.959 . S
H1865 C1879 0.961 . S
H1866 C1880 0.960 . S
H1867 C1880 0.961 . S
H1868 C1880 0.959 . S
H1869 C1883 0.929 . S
H1870 C1884 0.931 . S
H1871 C1886 0.930 . S
C1872 H1860 0.930 . S
C1872 C1873 1.399 . S
C1872 C1877 1.399 . S
C1873 C1872 1.399 . S
C1873 C1874 1.376 . S
C1874 H1861 0.930 . S
C1874 C1873 1.376 . S
C1874 C1875 1.388 . S
C1875 H1862 0.930 . S
C1875 C1874 1.388 . S
C1875 C1876 1.390 . S
C1876 C1875 1.390 . S
C1876 C1877 1.394 . S
C1876 C1882 1.465 . S
C1877 C1872 1.399 . S
C1877 C1876 1.394 . S
C1877 C1878 1.516 . S
C1878 C1877 1.516 . S
C1878 C1879 1.502 . S
C1878 C1880 1.561 . S
C1878 C1881 1.526 . S
C1879 H1863 0.959 . S
C1879 H1864 0.959 . S
C1879 H1865 0.961 . S
C1879 C1878 1.502 . S
C1880 H1866 0.960 . S
C1880 H1867 0.961 . S
C1880 H1868 0.959 . S
C1880 C1878 1.561 . S
C1881 C1878 1.526 . S
C1881 C1882 1.396 . S
C1881 C1886 1.390 . S
C1882 C1876 1.465 . S
C1882 C1881 1.396 . S
C1882 C1883 1.399 . S
C1883 H1869 0.929 . S
C1883 C1882 1.399 . S
C1883 C1884 1.385 . S
C1884 H1870 0.931 . S
C1884 C1883 1.385 . S
C1884 C1885 1.389 . S
C1885 C1884 1.389 . S
C1885 C1886 1.387 . S
C1886 H1871 0.930 . S
C1886 C1881 1.390 . S
C1886 C1885 1.387 . S
H1887 C1899 0.930 . S
H1888 C1901 0.930 . S
H1889 C1902 0.930 . S
H1890 C1906 0.959 . S
H1891 C1906 0.959 . S
H1892 C1906 0.961 . S
H1893 C1907 0.960 . S
H1894 C1907 0.961 . S
H1895 C1907 0.959 . S
H1896 C1910 0.929 . S
H1897 C1911 0.931 . S
H1898 C1913 0.930 . S
C1899 H1887 0.930 . S
C1899 C1900 1.399 . S
C1899 C1904 1.399 . S
C1900 C1899 1.399 . S
C1900 C1901 1.376 . S
C1901 H1888 0.930 . S
C1901 C1900 1.376 . S
C1901 C1902 1.388 . S
C1902 H1889 0.930 . S
C1902 C1901 1.388 . S
C1902 C1903 1.390 . S
C1903 C1902 1.390 . S
C1903 C1904 1.394 . S
C1903 C1909 1.465 . S
C1904 C1899 1.399 . S
C1904 C1903 1.394 . S
C1904 C1905 1.516 . S
C1905 C1904 1.516 . S
C1905 C1906 1.502 . S
C1905 C1907 1.561 . S
C1905 C1908 1.526 . S
C1906 H1890 0.959 . S
C1906 H1891 0.959 . S
C1906 H1892 0.961 . S
C1906 C1905 1.502 . S
C1907 H1893 0.960 . S
C1907 H1894 0.961 . S
C1907 H1895 0.959 . S
C1907 C1905 1.561 . S
C1908 C1905 1.526 . S
C1908 C1909 1.396 . S
C1908 C1913 1.390 . S
C1909 C1903 1.465 . S
C1909 C1908 1.396 . S
C1909 C1910 1.399 . S
C1910 H1896 0.929 . S
C1910 C1909 1.399 . S
C1910 C1911 1.385 . S
C1911 H1897 0.931 . S
C1911 C1910 1.385 . S
C1911 C1912 1.389 . S
C1912 C1911 1.389 . S
C1912 C1913 1.387 . S
C1913 H1898 0.930 . S
C1913 C1908 1.390 . S
C1913 C1912 1.387 . S
H1914 C1926 0.930 . S
H1915 C1928 0.930 . S
H1916 C1929 0.930 . S
H1917 C1933 0.959 . S
H1918 C1933 0.959 . S
H1919 C1933 0.961 . S
H1920 C1934 0.960 . S
H1921 C1934 0.961 . S
H1922 C1934 0.959 . S
H1923 C1937 0.929 . S
H1924 C1938 0.931 . S
H1925 C1940 0.930 . S
C1926 H1914 0.930 . S
C1926 C1927 1.399 . S
C1926 C1931 1.399 . S
C1927 C1926 1.399 . S
C1927 C1928 1.376 . S
C1928 H1915 0.930 . S
C1928 C1927 1.376 . S
C1928 C1929 1.388 . S
C1929 H1916 0.930 . S
C1929 C1928 1.388 . S
C1929 C1930 1.390 . S
C1930 C1929 1.390 . S
C1930 C1931 1.394 . S
C1930 C1936 1.465 . S
C1931 C1926 1.399 . S
C1931 C1930 1.394 . S
C1931 C1932 1.516 . S
C1932 C1931 1.516 . S
C1932 C1933 1.502 . S
C1932 C1934 1.561 . S
C1932 C1935 1.526 . S
C1933 H1917 0.959 . S
C1933 H1918 0.959 . S
C1933 H1919 0.961 . S
C1933 C1932 1.502 . S
C1934 H1920 0.960 . S
C1934 H1921 0.961 . S
C1934 H1922 0.959 . S
C1934 C1932 1.561 . S
C1935 C1932 1.526 . S
C1935 C1936 1.396 . S
C1935 C1940 1.390 . S
C1936 C1930 1.465 . S
C1936 C1935 1.396 . S
C1936 C1937 1.399 . S
C1937 H1923 0.929 . S
C1937 C1936 1.399 . S
C1937 C1938 1.385 . S
C1938 H1924 0.931 . S
C1938 C1937 1.385 . S
C1938 C1939 1.389 . S
C1939 C1938 1.389 . S
C1939 C1940 1.387 . S
C1940 H1925 0.930 . S
C1940 C1935 1.390 . S
C1940 C1939 1.387 . S
H1941 C1953 0.930 . S
H1942 C1955 0.930 . S
H1943 C1956 0.930 . S
H1944 C1960 0.959 . S
H1945 C1960 0.959 . S
H1946 C1960 0.961 . S
H1947 C1961 0.960 . S
H1948 C1961 0.961 . S
H1949 C1961 0.959 . S
H1950 C1964 0.929 . S
H1951 C1965 0.931 . S
H1952 C1967 0.930 . S
C1953 H1941 0.930 . S
C1953 C1954 1.399 . S
C1953 C1958 1.399 . S
C1954 C1953 1.399 . S
C1954 C1955 1.376 . S
C1955 H1942 0.930 . S
C1955 C1954 1.376 . S
C1955 C1956 1.388 . S
C1956 H1943 0.930 . S
C1956 C1955 1.388 . S
C1956 C1957 1.390 . S
C1957 C1956 1.390 . S
C1957 C1958 1.394 . S
C1957 C1963 1.465 . S
C1958 C1953 1.399 . S
C1958 C1957 1.394 . S
C1958 C1959 1.516 . S
C1959 C1958 1.516 . S
C1959 C1960 1.502 . S
C1959 C1961 1.561 . S
C1959 C1962 1.526 . S
C1960 H1944 0.959 . S
C1960 H1945 0.959 . S
C1960 H1946 0.961 . S
C1960 C1959 1.502 . S
C1961 H1947 0.960 . S
C1961 H1948 0.961 . S
C1961 H1949 0.959 . S
C1961 C1959 1.561 . S
C1962 C1959 1.526 . S
C1962 C1963 1.396 . S
C1962 C1967 1.390 . S
C1963 C1957 1.465 . S
C1963 C1962 1.396 . S
C1963 C1964 1.399 . S
C1964 H1950 0.929 . S
C1964 C1963 1.399 . S
C1964 C1965 1.385 . S
C1965 H1951 0.931 . S
C1965 C1964 1.385 . S
C1965 C1966 1.389 . S
C1966 C1965 1.389 . S
C1966 C1967 1.387 . S
C1967 H1952 0.930 . S
C1967 C1962 1.390 . S
C1967 C1966 1.387 . S
H1968 C1980 0.930 . S
H1969 C1982 0.930 . S
H1970 C1983 0.930 . S
H1971 C1987 0.959 . S
H1972 C1987 0.959 . S
H1973 C1987 0.961 . S
H1974 C1988 0.960 . S
H1975 C1988 0.961 . S
H1976 C1988 0.959 . S
H1977 C1991 0.929 . S
H1978 C1992 0.931 . S
H1979 C1994 0.930 . S
C1980 H1968 0.930 . S
C1980 C1981 1.399 . S
C1980 C1985 1.399 . S
C1981 C1980 1.399 . S
C1981 C1982 1.376 . S
C1982 H1969 0.930 . S
C1982 C1981 1.376 . S
C1982 C1983 1.388 . S
C1983 H1970 0.930 . S
C1983 C1982 1.388 . S
C1983 C1984 1.390 . S
C1984 C1983 1.390 . S
C1984 C1985 1.394 . S
C1984 C1990 1.465 . S
C1985 C1980 1.399 . S
C1985 C1984 1.394 . S
C1985 C1986 1.516 . S
C1986 C1985 1.516 . S
C1986 C1987 1.502 . S
C1986 C1988 1.561 . S
C1986 C1989 1.526 . S
C1987 H1971 0.959 . S
C1987 H1972 0.959 . S
C1987 H1973 0.961 . S
C1987 C1986 1.502 . S
C1988 H1974 0.960 . S
C1988 H1975 0.961 . S
C1988 H1976 0.959 . S
C1988 C1986 1.561 . S
C1989 C1986 1.526 . S
C1989 C1990 1.396 . S
C1989 C1994 1.390 . S
C1990 C1984 1.465 . S
C1990 C1989 1.396 . S
C1990 C1991 1.399 . S
C1991 H1977 0.929 . S
C1991 C1990 1.399 . S
C1991 C1992 1.385 . S
C1992 H1978 0.931 . S
C1992 C1991 1.385 . S
C1992 C1993 1.389 . S
C1993 C1992 1.389 . S
C1993 C1994 1.387 . S
C1994 H1979 0.930 . S
C1994 C1989 1.390 . S
C1994 C1993 1.387 . S
H1995 C2007 0.930 . S
H1996 C2009 0.930 . S
H1997 C2010 0.930 . S
H1998 C2014 0.959 . S
H1999 C2014 0.959 . S
H2000 C2014 0.961 . S
H2001 C2015 0.960 . S
H2002 C2015 0.961 . S
H2003 C2015 0.959 . S
H2004 C2018 0.929 . S
H2005 C2019 0.931 . S
H2006 C2021 0.930 . S
C2007 H1995 0.930 . S
C2007 C2008 1.399 . S
C2007 C2012 1.399 . S
C2008 C2007 1.399 . S
C2008 C2009 1.376 . S
C2009 H1996 0.930 . S
C2009 C2008 1.376 . S
C2009 C2010 1.388 . S
C2010 H1997 0.930 . S
C2010 C2009 1.388 . S
C2010 C2011 1.390 . S
C2011 C2010 1.390 . S
C2011 C2012 1.394 . S
C2011 C2017 1.465 . S
C2012 C2007 1.399 . S
C2012 C2011 1.394 . S
C2012 C2013 1.516 . S
C2013 C2012 1.516 . S
C2013 C2014 1.502 . S
C2013 C2015 1.561 . S
C2013 C2016 1.526 . S
C2014 H1998 0.959 . S
C2014 H1999 0.959 . S
C2014 H2000 0.961 . S
C2014 C2013 1.502 . S
C2015 H2001 0.960 . S
C2015 H2002 0.961 . S
C2015 H2003 0.959 . S
C2015 C2013 1.561 . S
C2016 C2013 1.526 . S
C2016 C2017 1.396 . S
C2016 C2021 1.390 . S
C2017 C2011 1.465 . S
C2017 C2016 1.396 . S
C2017 C2018 1.399 . S
C2018 H2004 0.929 . S
C2018 C2017 1.399 . S
C2018 C2019 1.385 . S
C2019 H2005 0.931 . S
C2019 C2018 1.385 . S
C2019 C2020 1.389 . S
C2020 C2019 1.389 . S
C2020 C2021 1.387 . S
C2021 H2006 0.930 . S
C2021 C2016 1.390 . S
C2021 C2020 1.387 . S
H2022 C2034 0.930 . S
H2023 C2036 0.930 . S
H2024 C2037 0.930 . S
H2025 C2041 0.959 . S
H2026 C2041 0.959 . S
H2027 C2041 0.961 . S
H2028 C2042 0.960 . S
H2029 C2042 0.961 . S
H2030 C2042 0.959 . S
H2031 C2045 0.929 . S
H2032 C2046 0.931 . S
H2033 C2048 0.930 . S
C2034 H2022 0.930 . S
C2034 C2035 1.399 . S
C2034 C2039 1.399 . S
C2035 C2034 1.399 . S
C2035 C2036 1.376 . S
C2036 H2023 0.930 . S
C2036 C2035 1.376 . S
C2036 C2037 1.388 . S
C2037 H2024 0.930 . S
C2037 C2036 1.388 . S
C2037 C2038 1.390 . S
C2038 C2037 1.390 . S
C2038 C2039 1.394 . S
C2038 C2044 1.465 . S
C2039 C2034 1.399 . S
C2039 C2038 1.394 . S
C2039 C2040 1.516 . S
C2040 C2039 1.516 . S
C2040 C2041 1.502 . S
C2040 C2042 1.561 . S
C2040 C2043 1.526 . S
C2041 H2025 0.959 . S
C2041 H2026 0.959 . S
C2041 H2027 0.961 . S
C2041 C2040 1.502 . S
C2042 H2028 0.960 . S
C2042 H2029 0.961 . S
C2042 H2030 0.959 . S
C2042 C2040 1.561 . S
C2043 C2040 1.526 . S
C2043 C2044 1.396 . S
C2043 C2048 1.390 . S
C2044 C2038 1.465 . S
C2044 C2043 1.396 . S
C2044 C2045 1.399 . S
C2045 H2031 0.929 . S
C2045 C2044 1.399 . S
C2045 C2046 1.385 . S
C2046 H2032 0.931 . S
C2046 C2045 1.385 . S
C2046 C2047 1.389 . S
C2047 C2046 1.389 . S
C2047 C2048 1.387 . S
C2048 H2033 0.930 . S
C2048 C2043 1.390 . S
C2048 C2047 1.387 . S
H2049 C2061 0.930 . S
H2050 C2063 0.930 . S
H2051 C2064 0.930 . S
H2052 C2068 0.959 . S
H2053 C2068 0.959 . S
H2054 C2068 0.961 . S
H2055 C2069 0.960 . S
H2056 C2069 0.961 . S
H2057 C2069 0.959 . S
H2058 C2072 0.929 . S
H2059 C2073 0.931 . S
H2060 C2075 0.930 . S
C2061 H2049 0.930 . S
C2061 C2062 1.399 . S
C2061 C2066 1.399 . S
C2062 C2061 1.399 . S
C2062 C2063 1.376 . S
C2063 H2050 0.930 . S
C2063 C2062 1.376 . S
C2063 C2064 1.388 . S
C2064 H2051 0.930 . S
C2064 C2063 1.388 . S
C2064 C2065 1.390 . S
C2065 C2064 1.390 . S
C2065 C2066 1.394 . S
C2065 C2071 1.465 . S
C2066 C2061 1.399 . S
C2066 C2065 1.394 . S
C2066 C2067 1.516 . S
C2067 C2066 1.516 . S
C2067 C2068 1.502 . S
C2067 C2069 1.561 . S
C2067 C2070 1.526 . S
C2068 H2052 0.959 . S
C2068 H2053 0.959 . S
C2068 H2054 0.961 . S
C2068 C2067 1.502 . S
C2069 H2055 0.960 . S
C2069 H2056 0.961 . S
C2069 H2057 0.959 . S
C2069 C2067 1.561 . S
C2070 C2067 1.526 . S
C2070 C2071 1.396 . S
C2070 C2075 1.390 . S
C2071 C2065 1.465 . S
C2071 C2070 1.396 . S
C2071 C2072 1.399 . S
C2072 H2058 0.929 . S
C2072 C2071 1.399 . S
C2072 C2073 1.385 . S
C2073 H2059 0.931 . S
C2073 C2072 1.385 . S
C2073 C2074 1.389 . S
C2074 C2073 1.389 . S
C2074 C2075 1.387 . S
C2075 H2060 0.930 . S
C2075 C2070 1.390 . S
C2075 C2074 1.387 . S
H2076 C2088 0.930 . S
H2077 C2090 0.930 . S
H2078 C2091 0.930 . S
H2079 C2095 0.959 . S
H2080 C2095 0.959 . S
H2081 C2095 0.961 . S
H2082 C2096 0.960 . S
H2083 C2096 0.961 . S
H2084 C2096 0.959 . S
H2085 C2099 0.929 . S
H2086 C2100 0.931 . S
H2087 C2102 0.930 . S
C2088 H2076 0.930 . S
C2088 C2089 1.399 . S
C2088 C2093 1.399 . S
C2089 C2088 1.399 . S
C2089 C2090 1.376 . S
C2090 H2077 0.930 . S
C2090 C2089 1.376 . S
C2090 C2091 1.388 . S
C2091 H2078 0.930 . S
C2091 C2090 1.388 . S
C2091 C2092 1.390 . S
C2092 C2091 1.390 . S
C2092 C2093 1.394 . S
C2092 C2098 1.465 . S
C2093 C2088 1.399 . S
C2093 C2092 1.394 . S
C2093 C2094 1.516 . S
C2094 C2093 1.516 . S
C2094 C2095 1.502 . S
C2094 C2096 1.561 . S
C2094 C2097 1.526 . S
C2095 H2079 0.959 . S
C2095 H2080 0.959 . S
C2095 H2081 0.961 . S
C2095 C2094 1.502 . S
C2096 H2082 0.960 . S
C2096 H2083 0.961 . S
C2096 H2084 0.959 . S
C2096 C2094 1.561 . S
C2097 C2094 1.526 . S
C2097 C2098 1.396 . S
C2097 C2102 1.390 . S
C2098 C2092 1.465 . S
C2098 C2097 1.396 . S
C2098 C2099 1.399 . S
C2099 H2085 0.929 . S
C2099 C2098 1.399 . S
C2099 C2100 1.385 . S
C2100 H2086 0.931 . S
C2100 C2099 1.385 . S
C2100 C2101 1.389 . S
C2101 C2100 1.389 . S
C2101 C2102 1.387 . S
C2102 H2087 0.930 . S
C2102 C2097 1.390 . S
C2102 C2101 1.387 . S
H2103 C2115 0.930 . S
H2104 C2117 0.930 . S
H2105 C2118 0.930 . S
H2106 C2122 0.959 . S
H2107 C2122 0.959 . S
H2108 C2122 0.961 . S
H2109 C2123 0.960 . S
H2110 C2123 0.961 . S
H2111 C2123 0.959 . S
H2112 C2126 0.929 . S
H2113 C2127 0.931 . S
H2114 C2129 0.930 . S
C2115 H2103 0.930 . S
C2115 C2116 1.399 . S
C2115 C2120 1.399 . S
C2116 C2115 1.399 . S
C2116 C2117 1.376 . S
C2117 H2104 0.930 . S
C2117 C2116 1.376 . S
C2117 C2118 1.388 . S
C2118 H2105 0.930 . S
C2118 C2117 1.388 . S
C2118 C2119 1.390 . S
C2119 C2118 1.390 . S
C2119 C2120 1.394 . S
C2119 C2125 1.465 . S
C2120 C2115 1.399 . S
C2120 C2119 1.394 . S
C2120 C2121 1.516 . S
C2121 C2120 1.516 . S
C2121 C2122 1.502 . S
C2121 C2123 1.561 . S
C2121 C2124 1.526 . S
C2122 H2106 0.959 . S
C2122 H2107 0.959 . S
C2122 H2108 0.961 . S
C2122 C2121 1.502 . S
C2123 H2109 0.960 . S
C2123 H2110 0.961 . S
C2123 H2111 0.959 . S
C2123 C2121 1.561 . S
C2124 C2121 1.526 . S
C2124 C2125 1.396 . S
C2124 C2129 1.390 . S
C2125 C2119 1.465 . S
C2125 C2124 1.396 . S
C2125 C2126 1.399 . S
C2126 H2112 0.929 . S
C2126 C2125 1.399 . S
C2126 C2127 1.385 . S
C2127 H2113 0.931 . S
C2127 C2126 1.385 . S
C2127 C2128 1.389 . S
C2128 C2127 1.389 . S
C2128 C2129 1.387 . S
C2129 H2114 0.930 . S
C2129 C2124 1.390 . S
C2129 C2128 1.387 . S
H2130 C2142 0.930 . S
H2131 C2144 0.930 . S
H2132 C2145 0.930 . S
H2133 C2149 0.959 . S
H2134 C2149 0.959 . S
H2135 C2149 0.961 . S
H2136 C2150 0.960 . S
H2137 C2150 0.961 . S
H2138 C2150 0.959 . S
H2139 C2153 0.929 . S
H2140 C2154 0.931 . S
H2141 C2156 0.930 . S
C2142 H2130 0.930 . S
C2142 C2143 1.399 . S
C2142 C2147 1.399 . S
C2143 C2142 1.399 . S
C2143 C2144 1.376 . S
C2144 H2131 0.930 . S
C2144 C2143 1.376 . S
C2144 C2145 1.388 . S
C2145 H2132 0.930 . S
C2145 C2144 1.388 . S
C2145 C2146 1.390 . S
C2146 C2145 1.390 . S
C2146 C2147 1.394 . S
C2146 C2152 1.465 . S
C2147 C2142 1.399 . S
C2147 C2146 1.394 . S
C2147 C2148 1.516 . S
C2148 C2147 1.516 . S
C2148 C2149 1.502 . S
C2148 C2150 1.561 . S
C2148 C2151 1.526 . S
C2149 H2133 0.959 . S
C2149 H2134 0.959 . S
C2149 H2135 0.961 . S
C2149 C2148 1.502 . S
C2150 H2136 0.960 . S
C2150 H2137 0.961 . S
C2150 H2138 0.959 . S
C2150 C2148 1.561 . S
C2151 C2148 1.526 . S
C2151 C2152 1.396 . S
C2151 C2156 1.390 . S
C2152 C2146 1.465 . S
C2152 C2151 1.396 . S
C2152 C2153 1.399 . S
C2153 H2139 0.929 . S
C2153 C2152 1.399 . S
C2153 C2154 1.385 . S
C2154 H2140 0.931 . S
C2154 C2153 1.385 . S
C2154 C2155 1.389 . S
C2155 C2154 1.389 . S
C2155 C2156 1.387 . S
C2156 H2141 0.930 . S
C2156 C2151 1.390 . S
C2156 C2155 1.387 . S
H2157 C2169 0.930 . S
H2158 C2171 0.930 . S
H2159 C2172 0.930 . S
H2160 C2176 0.959 . S
H2161 C2176 0.959 . S
H2162 C2176 0.961 . S
H2163 C2177 0.960 . S
H2164 C2177 0.961 . S
H2165 C2177 0.959 . S
H2166 C2180 0.929 . S
H2167 C2181 0.931 . S
H2168 C2183 0.930 . S
C2169 H2157 0.930 . S
C2169 C2170 1.399 . S
C2169 C2174 1.399 . S
C2170 C2169 1.399 . S
C2170 C2171 1.376 . S
C2171 H2158 0.930 . S
C2171 C2170 1.376 . S
C2171 C2172 1.388 . S
C2172 H2159 0.930 . S
C2172 C2171 1.388 . S
C2172 C2173 1.390 . S
C2173 C2172 1.390 . S
C2173 C2174 1.394 . S
C2173 C2179 1.465 . S
C2174 C2169 1.399 . S
C2174 C2173 1.394 . S
C2174 C2175 1.516 . S
C2175 C2174 1.516 . S
C2175 C2176 1.502 . S
C2175 C2177 1.561 . S
C2175 C2178 1.526 . S
C2176 H2160 0.959 . S
C2176 H2161 0.959 . S
C2176 H2162 0.961 . S
C2176 C2175 1.502 . S
C2177 H2163 0.960 . S
C2177 H2164 0.961 . S
C2177 H2165 0.959 . S
C2177 C2175 1.561 . S
C2178 C2175 1.526 . S
C2178 C2179 1.396 . S
C2178 C2183 1.390 . S
C2179 C2173 1.465 . S
C2179 C2178 1.396 . S
C2179 C2180 1.399 . S
C2180 H2166 0.929 . S
C2180 C2179 1.399 . S
C2180 C2181 1.385 . S
C2181 H2167 0.931 . S
C2181 C2180 1.385 . S
C2181 C2182 1.389 . S
C2182 C2181 1.389 . S
C2182 C2183 1.387 . S
C2183 H2168 0.930 . S
C2183 C2178 1.390 . S
C2183 C2182 1.387 . S
H2184 C2196 0.930 . S
H2185 C2198 0.930 . S
H2186 C2199 0.930 . S
H2187 C2203 0.959 . S
H2188 C2203 0.959 . S
H2189 C2203 0.961 . S
H2190 C2204 0.960 . S
H2191 C2204 0.961 . S
H2192 C2204 0.959 . S
H2193 C2207 0.929 . S
H2194 C2208 0.931 . S
H2195 C2210 0.930 . S
C2196 H2184 0.930 . S
C2196 C2197 1.399 . S
C2196 C2201 1.399 . S
C2197 C2196 1.399 . S
C2197 C2198 1.376 . S
C2198 H2185 0.930 . S
C2198 C2197 1.376 . S
C2198 C2199 1.388 . S
C2199 H2186 0.930 . S
C2199 C2198 1.388 . S
C2199 C2200 1.390 . S
C2200 C2199 1.390 . S
C2200 C2201 1.394 . S
C2200 C2206 1.465 . S
C2201 C2196 1.399 . S
C2201 C2200 1.394 . S
C2201 C2202 1.516 . S
C2202 C2201 1.516 . S
C2202 C2203 1.502 . S
C2202 C2204 1.561 . S
C2202 C2205 1.526 . S
C2203 H2187 0.959 . S
C2203 H2188 0.959 . S
C2203 H2189 0.961 . S
C2203 C2202 1.502 . S
C2204 H2190 0.960 . S
C2204 H2191 0.961 . S
C2204 H2192 0.959 . S
C2204 C2202 1.561 . S
C2205 C2202 1.526 . S
C2205 C2206 1.396 . S
C2205 C2210 1.390 . S
C2206 C2200 1.465 . S
C2206 C2205 1.396 . S
C2206 C2207 1.399 . S
C2207 H2193 0.929 . S
C2207 C2206 1.399 . S
C2207 C2208 1.385 . S
C2208 H2194 0.931 . S
C2208 C2207 1.385 . S
C2208 C2209 1.389 . S
C2209 C2208 1.389 . S
C2209 C2210 1.387 . S
C2210 H2195 0.930 . S
C2210 C2205 1.390 . S
C2210 C2209 1.387 . S
H2211 C2223 0.930 . S
H2212 C2225 0.930 . S
H2213 C2226 0.930 . S
H2214 C2230 0.959 . S
H2215 C2230 0.959 . S
H2216 C2230 0.961 . S
H2217 C2231 0.960 . S
H2218 C2231 0.961 . S
H2219 C2231 0.959 . S
H2220 C2234 0.929 . S
H2221 C2235 0.931 . S
H2222 C2237 0.930 . S
C2223 H2211 0.930 . S
C2223 C2224 1.399 . S
C2223 C2228 1.399 . S
C2224 C2223 1.399 . S
C2224 C2225 1.376 . S
C2225 H2212 0.930 . S
C2225 C2224 1.376 . S
C2225 C2226 1.388 . S
C2226 H2213 0.930 . S
C2226 C2225 1.388 . S
C2226 C2227 1.390 . S
C2227 C2226 1.390 . S
C2227 C2228 1.394 . S
C2227 C2233 1.465 . S
C2228 C2223 1.399 . S
C2228 C2227 1.394 . S
C2228 C2229 1.516 . S
C2229 C2228 1.516 . S
C2229 C2230 1.502 . S
C2229 C2231 1.561 . S
C2229 C2232 1.526 . S
C2230 H2214 0.959 . S
C2230 H2215 0.959 . S
C2230 H2216 0.961 . S
C2230 C2229 1.502 . S
C2231 H2217 0.960 . S
C2231 H2218 0.961 . S
C2231 H2219 0.959 . S
C2231 C2229 1.561 . S
C2232 C2229 1.526 . S
C2232 C2233 1.396 . S
C2232 C2237 1.390 . S
C2233 C2227 1.465 . S
C2233 C2232 1.396 . S
C2233 C2234 1.399 . S
C2234 H2220 0.929 . S
C2234 C2233 1.399 . S
C2234 C2235 1.385 . S
C2235 H2221 0.931 . S
C2235 C2234 1.385 . S
C2235 C2236 1.389 . S
C2236 C2235 1.389 . S
C2236 C2237 1.387 . S
C2237 H2222 0.930 . S
C2237 C2232 1.390 . S
C2237 C2236 1.387 . S
H2238 C2250 0.930 . S
H2239 C2252 0.930 . S
H2240 C2253 0.930 . S
H2241 C2257 0.959 . S
H2242 C2257 0.959 . S
H2243 C2257 0.961 . S
H2244 C2258 0.960 . S
H2245 C2258 0.961 . S
H2246 C2258 0.959 . S
H2247 C2261 0.929 . S
H2248 C2262 0.931 . S
H2249 C2264 0.930 . S
C2250 H2238 0.930 . S
C2250 C2251 1.399 . S
C2250 C2255 1.399 . S
C2251 C2250 1.399 . S
C2251 C2252 1.376 . S
C2252 H2239 0.930 . S
C2252 C2251 1.376 . S
C2252 C2253 1.388 . S
C2253 H2240 0.930 . S
C2253 C2252 1.388 . S
C2253 C2254 1.390 . S
C2254 C2253 1.390 . S
C2254 C2255 1.394 . S
C2254 C2260 1.465 . S
C2255 C2250 1.399 . S
C2255 C2254 1.394 . S
C2255 C2256 1.516 . S
C2256 C2255 1.516 . S
C2256 C2257 1.502 . S
C2256 C2258 1.561 . S
C2256 C2259 1.526 . S
C2257 H2241 0.959 . S
C2257 H2242 0.959 . S
C2257 H2243 0.961 . S
C2257 C2256 1.502 . S
C2258 H2244 0.960 . S
C2258 H2245 0.961 . S
C2258 H2246 0.959 . S
C2258 C2256 1.561 . S
C2259 C2256 1.526 . S
C2259 C2260 1.396 . S
C2259 C2264 1.390 . S
C2260 C2254 1.465 . S
C2260 C2259 1.396 . S
C2260 C2261 1.399 . S
C2261 H2247 0.929 . S
C2261 C2260 1.399 . S
C2261 C2262 1.385 . S
C2262 H2248 0.931 . S
C2262 C2261 1.385 . S
C2262 C2263 1.389 . S
C2263 C2262 1.389 . S
C2263 C2264 1.387 . S
C2264 H2249 0.930 . S
C2264 C2259 1.390 . S
C2264 C2263 1.387 . S
H2265 C2277 0.930 . S
H2266 C2279 0.930 . S
H2267 C2280 0.930 . S
H2268 C2284 0.959 . S
H2269 C2284 0.959 . S
H2270 C2284 0.961 . S
H2271 C2285 0.960 . S
H2272 C2285 0.961 . S
H2273 C2285 0.959 . S
H2274 C2288 0.929 . S
H2275 C2289 0.931 . S
H2276 C2291 0.930 . S
C2277 H2265 0.930 . S
C2277 C2278 1.399 . S
C2277 C2282 1.399 . S
C2278 C2277 1.399 . S
C2278 C2279 1.376 . S
C2279 H2266 0.930 . S
C2279 C2278 1.376 . S
C2279 C2280 1.388 . S
C2280 H2267 0.930 . S
C2280 C2279 1.388 . S
C2280 C2281 1.390 . S
C2281 C2280 1.390 . S
C2281 C2282 1.394 . S
C2281 C2287 1.465 . S
C2282 C2277 1.399 . S
C2282 C2281 1.394 . S
C2282 C2283 1.516 . S
C2283 C2282 1.516 . S
C2283 C2284 1.502 . S
C2283 C2285 1.561 . S
C2283 C2286 1.526 . S
C2284 H2268 0.959 . S
C2284 H2269 0.959 . S
C2284 H2270 0.961 . S
C2284 C2283 1.502 . S
C2285 H2271 0.960 . S
C2285 H2272 0.961 . S
C2285 H2273 0.959 . S
C2285 C2283 1.561 . S
C2286 C2283 1.526 . S
C2286 C2287 1.396 . S
C2286 C2291 1.390 . S
C2287 C2281 1.465 . S
C2287 C2286 1.396 . S
C2287 C2288 1.399 . S
C2288 H2274 0.929 . S
C2288 C2287 1.399 . S
C2288 C2289 1.385 . S
C2289 H2275 0.931 . S
C2289 C2288 1.385 . S
C2289 C2290 1.389 . S
C2290 C2289 1.389 . S
C2290 C2291 1.387 . S
C2291 H2276 0.930 . S
C2291 C2286 1.390 . S
C2291 C2290 1.387 . S
H2292 C2304 0.930 . S
H2293 C2306 0.930 . S
H2294 C2307 0.930 . S
H2295 C2311 0.959 . S
H2296 C2311 0.959 . S
H2297 C2311 0.961 . S
H2298 C2312 0.960 . S
H2299 C2312 0.961 . S
H2300 C2312 0.959 . S
H2301 C2315 0.929 . S
H2302 C2316 0.931 . S
H2303 C2318 0.930 . S
C2304 H2292 0.930 . S
C2304 C2305 1.399 . S
C2304 C2309 1.399 . S
C2305 C2304 1.399 . S
C2305 C2306 1.376 . S
C2306 H2293 0.930 . S
C2306 C2305 1.376 . S
C2306 C2307 1.388 . S
C2307 H2294 0.930 . S
C2307 C2306 1.388 . S
C2307 C2308 1.390 . S
C2308 C2307 1.390 . S
C2308 C2309 1.394 . S
C2308 C2314 1.465 . S
C2309 C2304 1.399 . S
C2309 C2308 1.394 . S
C2309 C2310 1.516 . S
C2310 C2309 1.516 . S
C2310 C2311 1.502 . S
C2310 C2312 1.561 . S
C2310 C2313 1.526 . S
C2311 H2295 0.959 . S
C2311 H2296 0.959 . S
C2311 H2297 0.961 . S
C2311 C2310 1.502 . S
C2312 H2298 0.960 . S
C2312 H2299 0.961 . S
C2312 H2300 0.959 . S
C2312 C2310 1.561 . S
C2313 C2310 1.526 . S
C2313 C2314 1.396 . S
C2313 C2318 1.390 . S
C2314 C2308 1.465 . S
C2314 C2313 1.396 . S
C2314 C2315 1.399 . S
C2315 H2301 0.929 . S
C2315 C2314 1.399 . S
C2315 C2316 1.385 . S
C2316 H2302 0.931 . S
C2316 C2315 1.385 . S
C2316 C2317 1.389 . S
C2317 C2316 1.389 . S
C2317 C2318 1.387 . S
C2318 H2303 0.930 . S
C2318 C2313 1.390 . S
C2318 C2317 1.387 . S
H2319 C2331 0.930 . S
H2320 C2333 0.930 . S
H2321 C2334 0.930 . S
H2322 C2338 0.959 . S
H2323 C2338 0.959 . S
H2324 C2338 0.961 . S
H2325 C2339 0.960 . S
H2326 C2339 0.961 . S
H2327 C2339 0.959 . S
H2328 C2342 0.929 . S
H2329 C2343 0.931 . S
H2330 C2345 0.930 . S
C2331 H2319 0.930 . S
C2331 C2332 1.399 . S
C2331 C2336 1.399 . S
C2332 C2331 1.399 . S
C2332 C2333 1.376 . S
C2333 H2320 0.930 . S
C2333 C2332 1.376 . S
C2333 C2334 1.388 . S
C2334 H2321 0.930 . S
C2334 C2333 1.388 . S
C2334 C2335 1.390 . S
C2335 C2334 1.390 . S
C2335 C2336 1.394 . S
C2335 C2341 1.465 . S
C2336 C2331 1.399 . S
C2336 C2335 1.394 . S
C2336 C2337 1.516 . S
C2337 C2336 1.516 . S
C2337 C2338 1.502 . S
C2337 C2339 1.561 . S
C2337 C2340 1.526 . S
C2338 H2322 0.959 . S
C2338 H2323 0.959 . S
C2338 H2324 0.961 . S
C2338 C2337 1.502 . S
C2339 H2325 0.960 . S
C2339 H2326 0.961 . S
C2339 H2327 0.959 . S
C2339 C2337 1.561 . S
C2340 C2337 1.526 . S
C2340 C2341 1.396 . S
C2340 C2345 1.390 . S
C2341 C2335 1.465 . S
C2341 C2340 1.396 . S
C2341 C2342 1.399 . S
C2342 H2328 0.929 . S
C2342 C2341 1.399 . S
C2342 C2343 1.385 . S
C2343 H2329 0.931 . S
C2343 C2342 1.385 . S
C2343 C2344 1.389 . S
C2344 C2343 1.389 . S
C2344 C2345 1.387 . S
C2345 H2330 0.930 . S
C2345 C2340 1.390 . S
C2345 C2344 1.387 . S
H2346 C2358 0.930 . S
H2347 C2360 0.930 . S
H2348 C2361 0.930 . S
H2349 C2365 0.959 . S
H2350 C2365 0.959 . S
H2351 C2365 0.961 . S
H2352 C2366 0.960 . S
H2353 C2366 0.961 . S
H2354 C2366 0.959 . S
H2355 C2369 0.929 . S
H2356 C2370 0.931 . S
H2357 C2372 0.930 . S
C2358 H2346 0.930 . S
C2358 C2359 1.399 . S
C2358 C2363 1.399 . S
C2359 C2358 1.399 . S
C2359 C2360 1.376 . S
C2360 H2347 0.930 . S
C2360 C2359 1.376 . S
C2360 C2361 1.388 . S
C2361 H2348 0.930 . S
C2361 C2360 1.388 . S
C2361 C2362 1.390 . S
C2362 C2361 1.390 . S
C2362 C2363 1.394 . S
C2362 C2368 1.465 . S
C2363 C2358 1.399 . S
C2363 C2362 1.394 . S
C2363 C2364 1.516 . S
C2364 C2363 1.516 . S
C2364 C2365 1.502 . S
C2364 C2366 1.561 . S
C2364 C2367 1.526 . S
C2365 H2349 0.959 . S
C2365 H2350 0.959 . S
C2365 H2351 0.961 . S
C2365 C2364 1.502 . S
C2366 H2352 0.960 . S
C2366 H2353 0.961 . S
C2366 H2354 0.959 . S
C2366 C2364 1.561 . S
C2367 C2364 1.526 . S
C2367 C2368 1.396 . S
C2367 C2372 1.390 . S
C2368 C2362 1.465 . S
C2368 C2367 1.396 . S
C2368 C2369 1.399 . S
C2369 H2355 0.929 . S
C2369 C2368 1.399 . S
C2369 C2370 1.385 . S
C2370 H2356 0.931 . S
C2370 C2369 1.385 . S
C2370 C2371 1.389 . S
C2371 C2370 1.389 . S
C2371 C2372 1.387 . S
C2372 H2357 0.930 . S
C2372 C2367 1.390 . S
C2372 C2371 1.387 . S
H2373 C2385 0.930 . S
H2374 C2387 0.930 . S
H2375 C2388 0.930 . S
H2376 C2392 0.959 . S
H2377 C2392 0.959 . S
H2378 C2392 0.961 . S
H2379 C2393 0.960 . S
H2380 C2393 0.961 . S
H2381 C2393 0.959 . S
H2382 C2396 0.929 . S
H2383 C2397 0.931 . S
H2384 C2399 0.930 . S
C2385 H2373 0.930 . S
C2385 C2386 1.399 . S
C2385 C2390 1.399 . S
C2386 C2385 1.399 . S
C2386 C2387 1.376 . S
C2387 H2374 0.930 . S
C2387 C2386 1.376 . S
C2387 C2388 1.388 . S
C2388 H2375 0.930 . S
C2388 C2387 1.388 . S
C2388 C2389 1.390 . S
C2389 C2388 1.390 . S
C2389 C2390 1.394 . S
C2389 C2395 1.465 . S
C2390 C2385 1.399 . S
C2390 C2389 1.394 . S
C2390 C2391 1.516 . S
C2391 C2390 1.516 . S
C2391 C2392 1.502 . S
C2391 C2393 1.561 . S
C2391 C2394 1.526 . S
C2392 H2376 0.959 . S
C2392 H2377 0.959 . S
C2392 H2378 0.961 . S
C2392 C2391 1.502 . S
C2393 H2379 0.960 . S
C2393 H2380 0.961 . S
C2393 H2381 0.959 . S
C2393 C2391 1.561 . S
C2394 C2391 1.526 . S
C2394 C2395 1.396 . S
C2394 C2399 1.390 . S
C2395 C2389 1.465 . S
C2395 C2394 1.396 . S
C2395 C2396 1.399 . S
C2396 H2382 0.929 . S
C2396 C2395 1.399 . S
C2396 C2397 1.385 . S
C2397 H2383 0.931 . S
C2397 C2396 1.385 . S
C2397 C2398 1.389 . S
C2398 C2397 1.389 . S
C2398 C2399 1.387 . S
C2399 H2384 0.930 . S
C2399 C2394 1.390 . S
C2399 C2398 1.387 . S
H2400 C2412 0.930 . S
H2401 C2414 0.930 . S
H2402 C2415 0.930 . S
H2403 C2419 0.959 . S
H2404 C2419 0.959 . S
H2405 C2419 0.961 . S
H2406 C2420 0.960 . S
H2407 C2420 0.961 . S
H2408 C2420 0.959 . S
H2409 C2423 0.929 . S
H2410 C2424 0.931 . S
H2411 C2426 0.930 . S
C2412 H2400 0.930 . S
C2412 C2413 1.399 . S
C2412 C2417 1.399 . S
C2413 C2412 1.399 . S
C2413 C2414 1.376 . S
C2414 H2401 0.930 . S
C2414 C2413 1.376 . S
C2414 C2415 1.388 . S
C2415 H2402 0.930 . S
C2415 C2414 1.388 . S
C2415 C2416 1.390 . S
C2416 C2415 1.390 . S
C2416 C2417 1.394 . S
C2416 C2422 1.465 . S
C2417 C2412 1.399 . S
C2417 C2416 1.394 . S
C2417 C2418 1.516 . S
C2418 C2417 1.516 . S
C2418 C2419 1.502 . S
C2418 C2420 1.561 . S
C2418 C2421 1.526 . S
C2419 H2403 0.959 . S
C2419 H2404 0.959 . S
C2419 H2405 0.961 . S
C2419 C2418 1.502 . S
C2420 H2406 0.960 . S
C2420 H2407 0.961 . S
C2420 H2408 0.959 . S
C2420 C2418 1.561 . S
C2421 C2418 1.526 . S
C2421 C2422 1.396 . S
C2421 C2426 1.390 . S
C2422 C2416 1.465 . S
C2422 C2421 1.396 . S
C2422 C2423 1.399 . S
C2423 H2409 0.929 . S
C2423 C2422 1.399 . S
C2423 C2424 1.385 . S
C2424 H2410 0.931 . S
C2424 C2423 1.385 . S
C2424 C2425 1.389 . S
C2425 C2424 1.389 . S
C2425 C2426 1.387 . S
C2426 H2411 0.930 . S
C2426 C2421 1.390 . S
C2426 C2425 1.387 . S
H2427 C2439 0.930 . S
H2428 C2441 0.930 . S
H2429 C2442 0.930 . S
H2430 C2446 0.959 . S
H2431 C2446 0.959 . S
H2432 C2446 0.961 . S
H2433 C2447 0.960 . S
H2434 C2447 0.961 . S
H2435 C2447 0.959 . S
H2436 C2450 0.929 . S
H2437 C2451 0.931 . S
H2438 C2453 0.930 . S
C2439 H2427 0.930 . S
C2439 C2440 1.399 . S
C2439 C2444 1.399 . S
C2440 C2439 1.399 . S
C2440 C2441 1.376 . S
C2441 H2428 0.930 . S
C2441 C2440 1.376 . S
C2441 C2442 1.388 . S
C2442 H2429 0.930 . S
C2442 C2441 1.388 . S
C2442 C2443 1.390 . S
C2443 C2442 1.390 . S
C2443 C2444 1.394 . S
C2443 C2449 1.465 . S
C2444 C2439 1.399 . S
C2444 C2443 1.394 . S
C2444 C2445 1.516 . S
C2445 C2444 1.516 . S
C2445 C2446 1.502 . S
C2445 C2447 1.561 . S
C2445 C2448 1.526 . S
C2446 H2430 0.959 . S
C2446 H2431 0.959 . S
C2446 H2432 0.961 . S
C2446 C2445 1.502 . S
C2447 H2433 0.960 . S
C2447 H2434 0.961 . S
C2447 H2435 0.959 . S
C2447 C2445 1.561 . S
C2448 C2445 1.526 . S
C2448 C2449 1.396 . S
C2448 C2453 1.390 . S
C2449 C2443 1.465 . S
C2449 C2448 1.396 . S
C2449 C2450 1.399 . S
C2450 H2436 0.929 . S
C2450 C2449 1.399 . S
C2450 C2451 1.385 . S
C2451 H2437 0.931 . S
C2451 C2450 1.385 . S
C2451 C2452 1.389 . S
C2452 C2451 1.389 . S
C2452 C2453 1.387 . S
C2453 H2438 0.930 . S
C2453 C2448 1.390 . S
C2453 C2452 1.387 . S
H2454 C2466 0.930 . S
H2455 C2468 0.930 . S
H2456 C2469 0.930 . S
H2457 C2473 0.959 . S
H2458 C2473 0.959 . S
H2459 C2473 0.961 . S
H2460 C2474 0.960 . S
H2461 C2474 0.961 . S
H2462 C2474 0.959 . S
H2463 C2477 0.929 . S
H2464 C2478 0.931 . S
H2465 C2480 0.930 . S
C2466 H2454 0.930 . S
C2466 C2467 1.399 . S
C2466 C2471 1.399 . S
C2467 C2466 1.399 . S
C2467 C2468 1.376 . S
C2468 H2455 0.930 . S
C2468 C2467 1.376 . S
C2468 C2469 1.388 . S
C2469 H2456 0.930 . S
C2469 C2468 1.388 . S
C2469 C2470 1.390 . S
C2470 C2469 1.390 . S
C2470 C2471 1.394 . S
C2470 C2476 1.465 . S
C2471 C2466 1.399 . S
C2471 C2470 1.394 . S
C2471 C2472 1.516 . S
C2472 C2471 1.516 . S
C2472 C2473 1.502 . S
C2472 C2474 1.561 . S
C2472 C2475 1.526 . S
C2473 H2457 0.959 . S
C2473 H2458 0.959 . S
C2473 H2459 0.961 . S
C2473 C2472 1.502 . S
C2474 H2460 0.960 . S
C2474 H2461 0.961 . S
C2474 H2462 0.959 . S
C2474 C2472 1.561 . S
C2475 C2472 1.526 . S
C2475 C2476 1.396 . S
C2475 C2480 1.390 . S
C2476 C2470 1.465 . S
C2476 C2475 1.396 . S
C2476 C2477 1.399 . S
C2477 H2463 0.929 . S
C2477 C2476 1.399 . S
C2477 C2478 1.385 . S
C2478 H2464 0.931 . S
C2478 C2477 1.385 . S
C2478 C2479 1.389 . S
C2479 C2478 1.389 . S
C2479 C2480 1.387 . S
C2480 H2465 0.930 . S
C2480 C2475 1.390 . S
C2480 C2479 1.387 . S
H2481 C2493 0.930 . S
H2482 C2495 0.930 . S
H2483 C2496 0.930 . S
H2484 C2500 0.959 . S
H2485 C2500 0.959 . S
H2486 C2500 0.961 . S
H2487 C2501 0.960 . S
H2488 C2501 0.961 . S
H2489 C2501 0.959 . S
H2490 C2504 0.929 . S
H2491 C2505 0.931 . S
H2492 C2507 0.930 . S
C2493 H2481 0.930 . S
C2493 C2494 1.399 . S
C2493 C2498 1.399 . S
C2494 C2493 1.399 . S
C2494 C2495 1.376 . S
C2495 H2482 0.930 . S
C2495 C2494 1.376 . S
C2495 C2496 1.388 . S
C2496 H2483 0.930 . S
C2496 C2495 1.388 . S
C2496 C2497 1.390 . S
C2497 C2496 1.390 . S
C2497 C2498 1.394 . S
C2497 C2503 1.465 . S
C2498 C2493 1.399 . S
C2498 C2497 1.394 . S
C2498 C2499 1.516 . S
C2499 C2498 1.516 . S
C2499 C2500 1.502 . S
C2499 C2501 1.561 . S
C2499 C2502 1.526 . S
C2500 H2484 0.959 . S
C2500 H2485 0.959 . S
C2500 H2486 0.961 . S
C2500 C2499 1.502 . S
C2501 H2487 0.960 . S
C2501 H2488 0.961 . S
C2501 H2489 0.959 . S
C2501 C2499 1.561 . S
C2502 C2499 1.526 . S
C2502 C2503 1.396 . S
C2502 C2507 1.390 . S
C2503 C2497 1.465 . S
C2503 C2502 1.396 . S
C2503 C2504 1.399 . S
C2504 H2490 0.929 . S
C2504 C2503 1.399 . S
C2504 C2505 1.385 . S
C2505 H2491 0.931 . S
C2505 C2504 1.385 . S
C2505 C2506 1.389 . S
C2506 C2505 1.389 . S
C2506 C2507 1.387 . S
C2507 H2492 0.930 . S
C2507 C2502 1.390 . S
C2507 C2506 1.387 . S
H2508 C2520 0.930 . S
H2509 C2522 0.930 . S
H2510 C2523 0.930 . S
H2511 C2527 0.959 . S
H2512 C2527 0.959 . S
H2513 C2527 0.961 . S
H2514 C2528 0.960 . S
H2515 C2528 0.961 . S
H2516 C2528 0.959 . S
H2517 C2531 0.929 . S
H2518 C2532 0.931 . S
H2519 C2534 0.930 . S
C2520 H2508 0.930 . S
C2520 C2521 1.399 . S
C2520 C2525 1.399 . S
C2521 C2520 1.399 . S
C2521 C2522 1.376 . S
C2522 H2509 0.930 . S
C2522 C2521 1.376 . S
C2522 C2523 1.388 . S
C2523 H2510 0.930 . S
C2523 C2522 1.388 . S
C2523 C2524 1.390 . S
C2524 C2523 1.390 . S
C2524 C2525 1.394 . S
C2524 C2530 1.465 . S
C2525 C2520 1.399 . S
C2525 C2524 1.394 . S
C2525 C2526 1.516 . S
C2526 C2525 1.516 . S
C2526 C2527 1.502 . S
C2526 C2528 1.561 . S
C2526 C2529 1.526 . S
C2527 H2511 0.959 . S
C2527 H2512 0.959 . S
C2527 H2513 0.961 . S
C2527 C2526 1.502 . S
C2528 H2514 0.960 . S
C2528 H2515 0.961 . S
C2528 H2516 0.959 . S
C2528 C2526 1.561 . S
C2529 C2526 1.526 . S
C2529 C2530 1.396 . S
C2529 C2534 1.390 . S
C2530 C2524 1.465 . S
C2530 C2529 1.396 . S
C2530 C2531 1.399 . S
C2531 H2517 0.929 . S
C2531 C2530 1.399 . S
C2531 C2532 1.385 . S
C2532 H2518 0.931 . S
C2532 C2531 1.385 . S
C2532 C2533 1.389 . S
C2533 C2532 1.389 . S
C2533 C2534 1.387 . S
C2534 H2519 0.930 . S
C2534 C2529 1.390 . S
C2534 C2533 1.387 . S
H2535 C2547 0.930 . S
H2536 C2549 0.930 . S
H2537 C2550 0.930 . S
H2538 C2554 0.959 . S
H2539 C2554 0.959 . S
H2540 C2554 0.961 . S
H2541 C2555 0.960 . S
H2542 C2555 0.961 . S
H2543 C2555 0.959 . S
H2544 C2558 0.929 . S
H2545 C2559 0.931 . S
H2546 C2561 0.930 . S
C2547 H2535 0.930 . S
C2547 C2548 1.399 . S
C2547 C2552 1.399 . S
C2548 C2547 1.399 . S
C2548 C2549 1.376 . S
C2549 H2536 0.930 . S
C2549 C2548 1.376 . S
C2549 C2550 1.388 . S
C2550 H2537 0.930 . S
C2550 C2549 1.388 . S
C2550 C2551 1.390 . S
C2551 C2550 1.390 . S
C2551 C2552 1.394 . S
C2551 C2557 1.465 . S
C2552 C2547 1.399 . S
C2552 C2551 1.394 . S
C2552 C2553 1.516 . S
C2553 C2552 1.516 . S
C2553 C2554 1.502 . S
C2553 C2555 1.561 . S
C2553 C2556 1.526 . S
C2554 H2538 0.959 . S
C2554 H2539 0.959 . S
C2554 H2540 0.961 . S
C2554 C2553 1.502 . S
C2555 H2541 0.960 . S
C2555 H2542 0.961 . S
C2555 H2543 0.959 . S
C2555 C2553 1.561 . S
C2556 C2553 1.526 . S
C2556 C2557 1.396 . S
C2556 C2561 1.390 . S
C2557 C2551 1.465 . S
C2557 C2556 1.396 . S
C2557 C2558 1.399 . S
C2558 H2544 0.929 . S
C2558 C2557 1.399 . S
C2558 C2559 1.385 . S
C2559 H2545 0.931 . S
C2559 C2558 1.385 . S
C2559 C2560 1.389 . S
C2560 C2559 1.389 . S
C2560 C2561 1.387 . S
C2561 H2546 0.930 . S
C2561 C2556 1.390 . S
C2561 C2560 1.387 . S
H2562 C2574 0.930 . S
H2563 C2576 0.930 . S
H2564 C2577 0.930 . S
H2565 C2581 0.959 . S
H2566 C2581 0.959 . S
H2567 C2581 0.961 . S
H2568 C2582 0.960 . S
H2569 C2582 0.961 . S
H2570 C2582 0.959 . S
H2571 C2585 0.929 . S
H2572 C2586 0.931 . S
H2573 C2588 0.930 . S
C2574 H2562 0.930 . S
C2574 C2575 1.399 . S
C2574 C2579 1.399 . S
C2575 C2574 1.399 . S
C2575 C2576 1.376 . S
C2576 H2563 0.930 . S
C2576 C2575 1.376 . S
C2576 C2577 1.388 . S
C2577 H2564 0.930 . S
C2577 C2576 1.388 . S
C2577 C2578 1.390 . S
C2578 C2577 1.390 . S
C2578 C2579 1.394 . S
C2578 C2584 1.465 . S
C2579 C2574 1.399 . S
C2579 C2578 1.394 . S
C2579 C2580 1.516 . S
C2580 C2579 1.516 . S
C2580 C2581 1.502 . S
C2580 C2582 1.561 . S
C2580 C2583 1.526 . S
C2581 H2565 0.959 . S
C2581 H2566 0.959 . S
C2581 H2567 0.961 . S
C2581 C2580 1.502 . S
C2582 H2568 0.960 . S
C2582 H2569 0.961 . S
C2582 H2570 0.959 . S
C2582 C2580 1.561 . S
C2583 C2580 1.526 . S
C2583 C2584 1.396 . S
C2583 C2588 1.390 . S
C2584 C2578 1.465 . S
C2584 C2583 1.396 . S
C2584 C2585 1.399 . S
C2585 H2571 0.929 . S
C2585 C2584 1.399 . S
C2585 C2586 1.385 . S
C2586 H2572 0.931 . S
C2586 C2585 1.385 . S
C2586 C2587 1.389 . S
C2587 C2586 1.389 . S
C2587 C2588 1.387 . S
C2588 H2573 0.930 . S
C2588 C2583 1.390 . S
C2588 C2587 1.387 . S
H2589 C2601 0.930 . S
H2590 C2603 0.930 . S
H2591 C2604 0.930 . S
H2592 C2608 0.959 . S
H2593 C2608 0.959 . S
H2594 C2608 0.961 . S
H2595 C2609 0.960 . S
H2596 C2609 0.961 . S
H2597 C2609 0.959 . S
H2598 C2612 0.929 . S
H2599 C2613 0.931 . S
H2600 C2615 0.930 . S
C2601 H2589 0.930 . S
C2601 C2602 1.399 . S
C2601 C2606 1.399 . S
C2602 C2601 1.399 . S
C2602 C2603 1.376 . S
C2603 H2590 0.930 . S
C2603 C2602 1.376 . S
C2603 C2604 1.388 . S
C2604 H2591 0.930 . S
C2604 C2603 1.388 . S
C2604 C2605 1.390 . S
C2605 C2604 1.390 . S
C2605 C2606 1.394 . S
C2605 C2611 1.465 . S
C2606 C2601 1.399 . S
C2606 C2605 1.394 . S
C2606 C2607 1.516 . S
C2607 C2606 1.516 . S
C2607 C2608 1.502 . S
C2607 C2609 1.561 . S
C2607 C2610 1.526 . S
C2608 H2592 0.959 . S
C2608 H2593 0.959 . S
C2608 H2594 0.961 . S
C2608 C2607 1.502 . S
C2609 H2595 0.960 . S
C2609 H2596 0.961 . S
C2609 H2597 0.959 . S
C2609 C2607 1.561 . S
C2610 C2607 1.526 . S
C2610 C2611 1.396 . S
C2610 C2615 1.390 . S
C2611 C2605 1.465 . S
C2611 C2610 1.396 . S
C2611 C2612 1.399 . S
C2612 H2598 0.929 . S
C2612 C2611 1.399 . S
C2612 C2613 1.385 . S
C2613 H2599 0.931 . S
C2613 C2612 1.385 . S
C2613 C2614 1.389 . S
C2614 C2613 1.389 . S
C2614 C2615 1.387 . S
C2615 H2600 0.930 . S
C2615 C2610 1.390 . S
C2615 C2614 1.387 . S
H2616 C2628 0.930 . S
H2617 C2630 0.930 . S
H2618 C2631 0.930 . S
H2619 C2635 0.959 . S
H2620 C2635 0.959 . S
H2621 C2635 0.961 . S
H2622 C2636 0.960 . S
H2623 C2636 0.961 . S
H2624 C2636 0.959 . S
H2625 C2639 0.929 . S
H2626 C2640 0.931 . S
H2627 C2642 0.930 . S
C2628 H2616 0.930 . S
C2628 C2629 1.399 . S
C2628 C2633 1.399 . S
C2629 C2628 1.399 . S
C2629 C2630 1.376 . S
C2630 H2617 0.930 . S
C2630 C2629 1.376 . S
C2630 C2631 1.388 . S
C2631 H2618 0.930 . S
C2631 C2630 1.388 . S
C2631 C2632 1.390 . S
C2632 C2631 1.390 . S
C2632 C2633 1.394 . S
C2632 C2638 1.465 . S
C2633 C2628 1.399 . S
C2633 C2632 1.394 . S
C2633 C2634 1.516 . S
C2634 C2633 1.516 . S
C2634 C2635 1.502 . S
C2634 C2636 1.561 . S
C2634 C2637 1.526 . S
C2635 H2619 0.959 . S
C2635 H2620 0.959 . S
C2635 H2621 0.961 . S
C2635 C2634 1.502 . S
C2636 H2622 0.960 . S
C2636 H2623 0.961 . S
C2636 H2624 0.959 . S
C2636 C2634 1.561 . S
C2637 C2634 1.526 . S
C2637 C2638 1.396 . S
C2637 C2642 1.390 . S
C2638 C2632 1.465 . S
C2638 C2637 1.396 . S
C2638 C2639 1.399 . S
C2639 H2625 0.929 . S
C2639 C2638 1.399 . S
C2639 C2640 1.385 . S
C2640 H2626 0.931 . S
C2640 C2639 1.385 . S
C2640 C2641 1.389 . S
C2641 C2640 1.389 . S
C2641 C2642 1.387 . S
C2642 H2627 0.930 . S
C2642 C2637 1.390 . S
C2642 C2641 1.387 . S
H2643 C2655 0.930 . S
H2644 C2657 0.930 . S
H2645 C2658 0.930 . S
H2646 C2662 0.959 . S
H2647 C2662 0.959 . S
H2648 C2662 0.961 . S
H2649 C2663 0.960 . S
H2650 C2663 0.961 . S
H2651 C2663 0.959 . S
H2652 C2666 0.929 . S
H2653 C2667 0.931 . S
H2654 C2669 0.930 . S
C2655 H2643 0.930 . S
C2655 C2656 1.399 . S
C2655 C2660 1.399 . S
C2656 C2655 1.399 . S
C2656 C2657 1.376 . S
C2657 H2644 0.930 . S
C2657 C2656 1.376 . S
C2657 C2658 1.388 . S
C2658 H2645 0.930 . S
C2658 C2657 1.388 . S
C2658 C2659 1.390 . S
C2659 C2658 1.390 . S
C2659 C2660 1.394 . S
C2659 C2665 1.465 . S
C2660 C2655 1.399 . S
C2660 C2659 1.394 . S
C2660 C2661 1.516 . S
C2661 C2660 1.516 . S
C2661 C2662 1.502 . S
C2661 C2663 1.561 . S
C2661 C2664 1.526 . S
C2662 H2646 0.959 . S
C2662 H2647 0.959 . S
C2662 H2648 0.961 . S
C2662 C2661 1.502 . S
C2663 H2649 0.960 . S
C2663 H2650 0.961 . S
C2663 H2651 0.959 . S
C2663 C2661 1.561 . S
C2664 C2661 1.526 . S
C2664 C2665 1.396 . S
C2664 C2669 1.390 . S
C2665 C2659 1.465 . S
C2665 C2664 1.396 . S
C2665 C2666 1.399 . S
C2666 H2652 0.929 . S
C2666 C2665 1.399 . S
C2666 C2667 1.385 . S
C2667 H2653 0.931 . S
C2667 C2666 1.385 . S
C2667 C2668 1.389 . S
C2668 C2667 1.389 . S
C2668 C2669 1.387 . S
C2669 H2654 0.930 . S
C2669 C2664 1.390 . S
C2669 C2668 1.387 . S
H2670 C2682 0.930 . S
H2671 C2684 0.930 . S
H2672 C2685 0.930 . S
H2673 C2689 0.959 . S
H2674 C2689 0.959 . S
H2675 C2689 0.961 . S
H2676 C2690 0.960 . S
H2677 C2690 0.961 . S
H2678 C2690 0.959 . S
H2679 C2693 0.929 . S
H2680 C2694 0.931 . S
H2681 C2696 0.930 . S
C2682 H2670 0.930 . S
C2682 C2683 1.399 . S
C2682 C2687 1.399 . S
C2683 C2682 1.399 . S
C2683 C2684 1.376 . S
C2684 H2671 0.930 . S
C2684 C2683 1.376 . S
C2684 C2685 1.388 . S
C2685 H2672 0.930 . S
C2685 C2684 1.388 . S
C2685 C2686 1.390 . S
C2686 C2685 1.390 . S
C2686 C2687 1.394 . S
C2686 C2692 1.465 . S
C2687 C2682 1.399 . S
C2687 C2686 1.394 . S
C2687 C2688 1.516 . S
C2688 C2687 1.516 . S
C2688 C2689 1.502 . S
C2688 C2690 1.561 . S
C2688 C2691 1.526 . S
C2689 H2673 0.959 . S
C2689 H2674 0.959 . S
C2689 H2675 0.961 . S
C2689 C2688 1.502 . S
C2690 H2676 0.960 . S
C2690 H2677 0.961 . S
C2690 H2678 0.959 . S
C2690 C2688 1.561 . S
C2691 C2688 1.526 . S
C2691 C2692 1.396 . S
C2691 C2696 1.390 . S
C2692 C2686 1.465 . S
C2692 C2691 1.396 . S
C2692 C2693 1.399 . S
C2693 H2679 0.929 . S
C2693 C2692 1.399 . S
C2693 C2694 1.385 . S
C2694 H2680 0.931 . S
C2694 C2693 1.385 . S
C2694 C2695 1.389 . S
C2695 C2694 1.389 . S
C2695 C2696 1.387 . S
C2696 H2681 0.930 . S
C2696 C2691 1.390 . S
C2696 C2695 1.387 . S
H2697 C2709 0.930 . S
H2698 C2711 0.930 . S
H2699 C2712 0.930 . S
H2700 C2716 0.959 . S
H2701 C2716 0.959 . S
H2702 C2716 0.961 . S
H2703 C2717 0.960 . S
H2704 C2717 0.961 . S
H2705 C2717 0.959 . S
H2706 C2720 0.929 . S
H2707 C2721 0.931 . S
H2708 C2723 0.930 . S
C2709 H2697 0.930 . S
C2709 C2710 1.399 . S
C2709 C2714 1.399 . S
C2710 C2709 1.399 . S
C2710 C2711 1.376 . S
C2711 H2698 0.930 . S
C2711 C2710 1.376 . S
C2711 C2712 1.388 . S
C2712 H2699 0.930 . S
C2712 C2711 1.388 . S
C2712 C2713 1.390 . S
C2713 C2712 1.390 . S
C2713 C2714 1.394 . S
C2713 C2719 1.465 . S
C2714 C2709 1.399 . S
C2714 C2713 1.394 . S
C2714 C2715 1.516 . S
C2715 C2714 1.516 . S
C2715 C2716 1.502 . S
C2715 C2717 1.561 . S
C2715 C2718 1.526 . S
C2716 H2700 0.959 . S
C2716 H2701 0.959 . S
C2716 H2702 0.961 . S
C2716 C2715 1.502 . S
C2717 H2703 0.960 . S
C2717 H2704 0.961 . S
C2717 H2705 0.959 . S
C2717 C2715 1.561 . S
C2718 C2715 1.526 . S
C2718 C2719 1.396 . S
C2718 C2723 1.390 . S
C2719 C2713 1.465 . S
C2719 C2718 1.396 . S
C2719 C2720 1.399 . S
C2720 H2706 0.929 . S
C2720 C2719 1.399 . S
C2720 C2721 1.385 . S
C2721 H2707 0.931 . S
C2721 C2720 1.385 . S
C2721 C2722 1.389 . S
C2722 C2721 1.389 . S
C2722 C2723 1.387 . S
C2723 H2708 0.930 . S
C2723 C2718 1.390 . S
C2723 C2722 1.387 . S
H2724 C2736 0.930 . S
H2725 C2738 0.930 . S
H2726 C2739 0.930 . S
H2727 C2743 0.959 . S
H2728 C2743 0.959 . S
H2729 C2743 0.961 . S
H2730 C2744 0.960 . S
H2731 C2744 0.961 . S
H2732 C2744 0.959 . S
H2733 C2747 0.929 . S
H2734 C2748 0.931 . S
H2735 C2750 0.930 . S
C2736 H2724 0.930 . S
C2736 C2737 1.399 . S
C2736 C2741 1.399 . S
C2737 C2736 1.399 . S
C2737 C2738 1.376 . S
C2738 H2725 0.930 . S
C2738 C2737 1.376 . S
C2738 C2739 1.388 . S
C2739 H2726 0.930 . S
C2739 C2738 1.388 . S
C2739 C2740 1.390 . S
C2740 C2739 1.390 . S
C2740 C2741 1.394 . S
C2740 C2746 1.465 . S
C2741 C2736 1.399 . S
C2741 C2740 1.394 . S
C2741 C2742 1.516 . S
C2742 C2741 1.516 . S
C2742 C2743 1.502 . S
C2742 C2744 1.561 . S
C2742 C2745 1.526 . S
C2743 H2727 0.959 . S
C2743 H2728 0.959 . S
C2743 H2729 0.961 . S
C2743 C2742 1.502 . S
C2744 H2730 0.960 . S
C2744 H2731 0.961 . S
C2744 H2732 0.959 . S
C2744 C2742 1.561 . S
C2745 C2742 1.526 . S
C2745 C2746 1.396 . S
C2745 C2750 1.390 . S
C2746 C2740 1.465 . S
C2746 C2745 1.396 . S
C2746 C2747 1.399 . S
C2747 H2733 0.929 . S
C2747 C2746 1.399 . S
C2747 C2748 1.385 . S
C2748 H2734 0.931 . S
C2748 C2747 1.385 . S
C2748 C2749 1.389 . S
C2749 C2748 1.389 . S
C2749 C2750 1.387 . S
C2750 H2735 0.930 . S
C2750 C2745 1.390 . S
C2750 C2749 1.387 . S
H2751 C2763 0.930 . S
H2752 C2765 0.930 . S
H2753 C2766 0.930 . S
H2754 C2770 0.959 . S
H2755 C2770 0.959 . S
H2756 C2770 0.961 . S
H2757 C2771 0.960 . S
H2758 C2771 0.961 . S
H2759 C2771 0.959 . S
H2760 C2774 0.929 . S
H2761 C2775 0.931 . S
H2762 C2777 0.930 . S
C2763 H2751 0.930 . S
C2763 C2764 1.399 . S
C2763 C2768 1.399 . S
C2764 C2763 1.399 . S
C2764 C2765 1.376 . S
C2765 H2752 0.930 . S
C2765 C2764 1.376 . S
C2765 C2766 1.388 . S
C2766 H2753 0.930 . S
C2766 C2765 1.388 . S
C2766 C2767 1.390 . S
C2767 C2766 1.390 . S
C2767 C2768 1.394 . S
C2767 C2773 1.465 . S
C2768 C2763 1.399 . S
C2768 C2767 1.394 . S
C2768 C2769 1.516 . S
C2769 C2768 1.516 . S
C2769 C2770 1.502 . S
C2769 C2771 1.561 . S
C2769 C2772 1.526 . S
C2770 H2754 0.959 . S
C2770 H2755 0.959 . S
C2770 H2756 0.961 . S
C2770 C2769 1.502 . S
C2771 H2757 0.960 . S
C2771 H2758 0.961 . S
C2771 H2759 0.959 . S
C2771 C2769 1.561 . S
C2772 C2769 1.526 . S
C2772 C2773 1.396 . S
C2772 C2777 1.390 . S
C2773 C2767 1.465 . S
C2773 C2772 1.396 . S
C2773 C2774 1.399 . S
C2774 H2760 0.929 . S
C2774 C2773 1.399 . S
C2774 C2775 1.385 . S
C2775 H2761 0.931 . S
C2775 C2774 1.385 . S
C2775 C2776 1.389 . S
C2776 C2775 1.389 . S
C2776 C2777 1.387 . S
C2777 H2762 0.930 . S
C2777 C2772 1.390 . S
C2777 C2776 1.387 . S
H2778 C2790 0.930 . S
H2779 C2792 0.930 . S
H2780 C2793 0.930 . S
H2781 C2797 0.959 . S
H2782 C2797 0.959 . S
H2783 C2797 0.961 . S
H2784 C2798 0.960 . S
H2785 C2798 0.961 . S
H2786 C2798 0.959 . S
H2787 C2801 0.929 . S
H2788 C2802 0.931 . S
H2789 C2804 0.930 . S
C2790 H2778 0.930 . S
C2790 C2791 1.399 . S
C2790 C2795 1.399 . S
C2791 C2790 1.399 . S
C2791 C2792 1.376 . S
C2792 H2779 0.930 . S
C2792 C2791 1.376 . S
C2792 C2793 1.388 . S
C2793 H2780 0.930 . S
C2793 C2792 1.388 . S
C2793 C2794 1.390 . S
C2794 C2793 1.390 . S
C2794 C2795 1.394 . S
C2794 C2800 1.465 . S
C2795 C2790 1.399 . S
C2795 C2794 1.394 . S
C2795 C2796 1.516 . S
C2796 C2795 1.516 . S
C2796 C2797 1.502 . S
C2796 C2798 1.561 . S
C2796 C2799 1.526 . S
C2797 H2781 0.959 . S
C2797 H2782 0.959 . S
C2797 H2783 0.961 . S
C2797 C2796 1.502 . S
C2798 H2784 0.960 . S
C2798 H2785 0.961 . S
C2798 H2786 0.959 . S
C2798 C2796 1.561 . S
C2799 C2796 1.526 . S
C2799 C2800 1.396 . S
C2799 C2804 1.390 . S
C2800 C2794 1.465 . S
C2800 C2799 1.396 . S
C2800 C2801 1.399 . S
C2801 H2787 0.929 . S
C2801 C2800 1.399 . S
C2801 C2802 1.385 . S
C2802 H2788 0.931 . S
C2802 C2801 1.385 . S
C2802 C2803 1.389 . S
C2803 C2802 1.389 . S
C2803 C2804 1.387 . S
C2804 H2789 0.930 . S
C2804 C2799 1.390 . S
C2804 C2803 1.387 . S
H2805 C2817 0.930 . S
H2806 C2819 0.930 . S
H2807 C2820 0.930 . S
H2808 C2824 0.959 . S
H2809 C2824 0.959 . S
H2810 C2824 0.961 . S
H2811 C2825 0.960 . S
H2812 C2825 0.961 . S
H2813 C2825 0.959 . S
H2814 C2828 0.929 . S
H2815 C2829 0.931 . S
H2816 C2831 0.930 . S
C2817 H2805 0.930 . S
C2817 C2818 1.399 . S
C2817 C2822 1.399 . S
C2818 C2817 1.399 . S
C2818 C2819 1.376 . S
C2819 H2806 0.930 . S
C2819 C2818 1.376 . S
C2819 C2820 1.388 . S
C2820 H2807 0.930 . S
C2820 C2819 1.388 . S
C2820 C2821 1.390 . S
C2821 C2820 1.390 . S
C2821 C2822 1.394 . S
C2821 C2827 1.465 . S
C2822 C2817 1.399 . S
C2822 C2821 1.394 . S
C2822 C2823 1.516 . S
C2823 C2822 1.516 . S
C2823 C2824 1.502 . S
C2823 C2825 1.561 . S
C2823 C2826 1.526 . S
C2824 H2808 0.959 . S
C2824 H2809 0.959 . S
C2824 H2810 0.961 . S
C2824 C2823 1.502 . S
C2825 H2811 0.960 . S
C2825 H2812 0.961 . S
C2825 H2813 0.959 . S
C2825 C2823 1.561 . S
C2826 C2823 1.526 . S
C2826 C2827 1.396 . S
C2826 C2831 1.390 . S
C2827 C2821 1.465 . S
C2827 C2826 1.396 . S
C2827 C2828 1.399 . S
C2828 H2814 0.929 . S
C2828 C2827 1.399 . S
C2828 C2829 1.385 . S
C2829 H2815 0.931 . S
C2829 C2828 1.385 . S
C2829 C2830 1.389 . S
C2830 C2829 1.389 . S
C2830 C2831 1.387 . S
C2831 H2816 0.930 . S
C2831 C2826 1.390 . S
C2831 C2830 1.387 . S
H2832 C2844 0.930 . S
H2833 C2846 0.930 . S
H2834 C2847 0.930 . S
H2835 C2851 0.959 . S
H2836 C2851 0.959 . S
H2837 C2851 0.961 . S
H2838 C2852 0.960 . S
H2839 C2852 0.961 . S
H2840 C2852 0.959 . S
H2841 C2855 0.929 . S
H2842 C2856 0.931 . S
H2843 C2858 0.930 . S
C2844 H2832 0.930 . S
C2844 C2845 1.399 . S
C2844 C2849 1.399 . S
C2845 C2844 1.399 . S
C2845 C2846 1.376 . S
C2846 H2833 0.930 . S
C2846 C2845 1.376 . S
C2846 C2847 1.388 . S
C2847 H2834 0.930 . S
C2847 C2846 1.388 . S
C2847 C2848 1.390 . S
C2848 C2847 1.390 . S
C2848 C2849 1.394 . S
C2848 C2854 1.465 . S
C2849 C2844 1.399 . S
C2849 C2848 1.394 . S
C2849 C2850 1.516 . S
C2850 C2849 1.516 . S
C2850 C2851 1.502 . S
C2850 C2852 1.561 . S
C2850 C2853 1.526 . S
C2851 H2835 0.959 . S
C2851 H2836 0.959 . S
C2851 H2837 0.961 . S
C2851 C2850 1.502 . S
C2852 H2838 0.960 . S
C2852 H2839 0.961 . S
C2852 H2840 0.959 . S
C2852 C2850 1.561 . S
C2853 C2850 1.526 . S
C2853 C2854 1.396 . S
C2853 C2858 1.390 . S
C2854 C2848 1.465 . S
C2854 C2853 1.396 . S
C2854 C2855 1.399 . S
C2855 H2841 0.929 . S
C2855 C2854 1.399 . S
C2855 C2856 1.385 . S
C2856 H2842 0.931 . S
C2856 C2855 1.385 . S
C2856 C2857 1.389 . S
C2857 C2856 1.389 . S
C2857 C2858 1.387 . S
C2858 H2843 0.930 . S
C2858 C2853 1.390 . S
C2858 C2857 1.387 . S
H2859 C2871 0.930 . S
H2860 C2873 0.930 . S
H2861 C2874 0.930 . S
H2862 C2878 0.959 . S
H2863 C2878 0.959 . S
H2864 C2878 0.961 . S
H2865 C2879 0.960 . S
H2866 C2879 0.961 . S
H2867 C2879 0.959 . S
H2868 C2882 0.929 . S
H2869 C2883 0.931 . S
H2870 C2885 0.930 . S
C2871 H2859 0.930 . S
C2871 C2872 1.399 . S
C2871 C2876 1.399 . S
C2872 C2871 1.399 . S
C2872 C2873 1.376 . S
C2873 H2860 0.930 . S
C2873 C2872 1.376 . S
C2873 C2874 1.388 . S
C2874 H2861 0.930 . S
C2874 C2873 1.388 . S
C2874 C2875 1.390 . S
C2875 C2874 1.390 . S
C2875 C2876 1.394 . S
C2875 C2881 1.465 . S
C2876 C2871 1.399 . S
C2876 C2875 1.394 . S
C2876 C2877 1.516 . S
C2877 C2876 1.516 . S
C2877 C2878 1.502 . S
C2877 C2879 1.561 . S
C2877 C2880 1.526 . S
C2878 H2862 0.959 . S
C2878 H2863 0.959 . S
C2878 H2864 0.961 . S
C2878 C2877 1.502 . S
C2879 H2865 0.960 . S
C2879 H2866 0.961 . S
C2879 H2867 0.959 . S
C2879 C2877 1.561 . S
C2880 C2877 1.526 . S
C2880 C2881 1.396 . S
C2880 C2885 1.390 . S
C2881 C2875 1.465 . S
C2881 C2880 1.396 . S
C2881 C2882 1.399 . S
C2882 H2868 0.929 . S
C2882 C2881 1.399 . S
C2882 C2883 1.385 . S
C2883 H2869 0.931 . S
C2883 C2882 1.385 . S
C2883 C2884 1.389 . S
C2884 C2883 1.389 . S
C2884 C2885 1.387 . S
C2885 H2870 0.930 . S
C2885 C2880 1.390 . S
C2885 C2884 1.387 . S
H2886 C2898 0.930 . S
H2887 C2900 0.930 . S
H2888 C2901 0.930 . S
H2889 C2905 0.959 . S
H2890 C2905 0.959 . S
H2891 C2905 0.961 . S
H2892 C2906 0.960 . S
H2893 C2906 0.961 . S
H2894 C2906 0.959 . S
H2895 C2909 0.929 . S
H2896 C2910 0.931 . S
H2897 C2912 0.930 . S
C2898 H2886 0.930 . S
C2898 C2899 1.399 . S
C2898 C2903 1.399 . S
C2899 C2898 1.399 . S
C2899 C2900 1.376 . S
C2900 H2887 0.930 . S
C2900 C2899 1.376 . S
C2900 C2901 1.388 . S
C2901 H2888 0.930 . S
C2901 C2900 1.388 . S
C2901 C2902 1.390 . S
C2902 C2901 1.390 . S
C2902 C2903 1.394 . S
C2902 C2908 1.465 . S
C2903 C2898 1.399 . S
C2903 C2902 1.394 . S
C2903 C2904 1.516 . S
C2904 C2903 1.516 . S
C2904 C2905 1.502 . S
C2904 C2906 1.561 . S
C2904 C2907 1.526 . S
C2905 H2889 0.959 . S
C2905 H2890 0.959 . S
C2905 H2891 0.961 . S
C2905 C2904 1.502 . S
C2906 H2892 0.960 . S
C2906 H2893 0.961 . S
C2906 H2894 0.959 . S
C2906 C2904 1.561 . S
C2907 C2904 1.526 . S
C2907 C2908 1.396 . S
C2907 C2912 1.390 . S
C2908 C2902 1.465 . S
C2908 C2907 1.396 . S
C2908 C2909 1.399 . S
C2909 H2895 0.929 . S
C2909 C2908 1.399 . S
C2909 C2910 1.385 . S
C2910 H2896 0.931 . S
C2910 C2909 1.385 . S
C2910 C2911 1.389 . S
C2911 C2910 1.389 . S
C2911 C2912 1.387 . S
C2912 H2897 0.930 . S
C2912 C2907 1.390 . S
C2912 C2911 1.387 . S
H2913 C2925 0.930 . S
H2914 C2927 0.930 . S
H2915 C2928 0.930 . S
H2916 C2932 0.959 . S
H2917 C2932 0.959 . S
H2918 C2932 0.961 . S
H2919 C2933 0.960 . S
H2920 C2933 0.961 . S
H2921 C2933 0.959 . S
H2922 C2936 0.929 . S
H2923 C2937 0.931 . S
H2924 C2939 0.930 . S
C2925 H2913 0.930 . S
C2925 C2926 1.399 . S
C2925 C2930 1.399 . S
C2926 C2925 1.399 . S
C2926 C2927 1.376 . S
C2927 H2914 0.930 . S
C2927 C2926 1.376 . S
C2927 C2928 1.388 . S
C2928 H2915 0.930 . S
C2928 C2927 1.388 . S
C2928 C2929 1.390 . S
C2929 C2928 1.390 . S
C2929 C2930 1.394 . S
C2929 C2935 1.465 . S
C2930 C2925 1.399 . S
C2930 C2929 1.394 . S
C2930 C2931 1.516 . S
C2931 C2930 1.516 . S
C2931 C2932 1.502 . S
C2931 C2933 1.561 . S
C2931 C2934 1.526 . S
C2932 H2916 0.959 . S
C2932 H2917 0.959 . S
C2932 H2918 0.961 . S
C2932 C2931 1.502 . S
C2933 H2919 0.960 . S
C2933 H2920 0.961 . S
C2933 H2921 0.959 . S
C2933 C2931 1.561 . S
C2934 C2931 1.526 . S
C2934 C2935 1.396 . S
C2934 C2939 1.390 . S
C2935 C2929 1.465 . S
C2935 C2934 1.396 . S
C2935 C2936 1.399 . S
C2936 H2922 0.929 . S
C2936 C2935 1.399 . S
C2936 C2937 1.385 . S
C2937 H2923 0.931 . S
C2937 C2936 1.385 . S
C2937 C2938 1.389 . S
C2938 C2937 1.389 . S
C2938 C2939 1.387 . S
C2939 H2924 0.930 . S
C2939 C2934 1.390 . S
C2939 C2938 1.387 . S
H2940 C2952 0.930 . S
H2941 C2954 0.930 . S
H2942 C2955 0.930 . S
H2943 C2959 0.959 . S
H2944 C2959 0.959 . S
H2945 C2959 0.961 . S
H2946 C2960 0.960 . S
H2947 C2960 0.961 . S
H2948 C2960 0.959 . S
H2949 C2963 0.929 . S
H2950 C2964 0.931 . S
H2951 C2966 0.930 . S
C2952 H2940 0.930 . S
C2952 C2953 1.399 . S
C2952 C2957 1.399 . S
C2953 C2952 1.399 . S
C2953 C2954 1.376 . S
C2954 H2941 0.930 . S
C2954 C2953 1.376 . S
C2954 C2955 1.388 . S
C2955 H2942 0.930 . S
C2955 C2954 1.388 . S
C2955 C2956 1.390 . S
C2956 C2955 1.390 . S
C2956 C2957 1.394 . S
C2956 C2962 1.465 . S
C2957 C2952 1.399 . S
C2957 C2956 1.394 . S
C2957 C2958 1.516 . S
C2958 C2957 1.516 . S
C2958 C2959 1.502 . S
C2958 C2960 1.561 . S
C2958 C2961 1.526 . S
C2959 H2943 0.959 . S
C2959 H2944 0.959 . S
C2959 H2945 0.961 . S
C2959 C2958 1.502 . S
C2960 H2946 0.960 . S
C2960 H2947 0.961 . S
C2960 H2948 0.959 . S
C2960 C2958 1.561 . S
C2961 C2958 1.526 . S
C2961 C2962 1.396 . S
C2961 C2966 1.390 . S
C2962 C2956 1.465 . S
C2962 C2961 1.396 . S
C2962 C2963 1.399 . S
C2963 H2949 0.929 . S
C2963 C2962 1.399 . S
C2963 C2964 1.385 . S
C2964 H2950 0.931 . S
C2964 C2963 1.385 . S
C2964 C2965 1.389 . S
C2965 C2964 1.389 . S
C2965 C2966 1.387 . S
C2966 H2951 0.930 . S
C2966 C2961 1.390 . S
C2966 C2965 1.387 . S
H2967 C2979 0.930 . S
H2968 C2981 0.930 . S
H2969 C2982 0.930 . S
H2970 C2986 0.959 . S
H2971 C2986 0.959 . S
H2972 C2986 0.961 . S
H2973 C2987 0.960 . S
H2974 C2987 0.961 . S
H2975 C2987 0.959 . S
H2976 C2990 0.929 . S
H2977 C2991 0.931 . S
H2978 C2993 0.930 . S
C2979 H2967 0.930 . S
C2979 C2980 1.399 . S
C2979 C2984 1.399 . S
C2980 C2979 1.399 . S
C2980 C2981 1.376 . S
C2981 H2968 0.930 . S
C2981 C2980 1.376 . S
C2981 C2982 1.388 . S
C2982 H2969 0.930 . S
C2982 C2981 1.388 . S
C2982 C2983 1.390 . S
C2983 C2982 1.390 . S
C2983 C2984 1.394 . S
C2983 C2989 1.465 . S
C2984 C2979 1.399 . S
C2984 C2983 1.394 . S
C2984 C2985 1.516 . S
C2985 C2984 1.516 . S
C2985 C2986 1.502 . S
C2985 C2987 1.561 . S
C2985 C2988 1.526 . S
C2986 H2970 0.959 . S
C2986 H2971 0.959 . S
C2986 H2972 0.961 . S
C2986 C2985 1.502 . S
C2987 H2973 0.960 . S
C2987 H2974 0.961 . S
C2987 H2975 0.959 . S
C2987 C2985 1.561 . S
C2988 C2985 1.526 . S
C2988 C2989 1.396 . S
C2988 C2993 1.390 . S
C2989 C2983 1.465 . S
C2989 C2988 1.396 . S
C2989 C2990 1.399 . S
C2990 H2976 0.929 . S
C2990 C2989 1.399 . S
C2990 C2991 1.385 . S
C2991 H2977 0.931 . S
C2991 C2990 1.385 . S
C2991 C2992 1.389 . S
C2992 C2991 1.389 . S
C2992 C2993 1.387 . S
C2993 H2978 0.930 . S
C2993 C2988 1.390 . S
C2993 C2992 1.387 . S
H2994 C3006 0.930 . S
H2995 C3008 0.930 . S
H2996 C3009 0.930 . S
H2997 C3013 0.959 . S
H2998 C3013 0.959 . S
H2999 C3013 0.961 . S
H3000 C3014 0.960 . S
H3001 C3014 0.961 . S
H3002 C3014 0.959 . S
H3003 C3017 0.929 . S
H3004 C3018 0.931 . S
H3005 C3020 0.930 . S
C3006 H2994 0.930 . S
C3006 C3007 1.399 . S
C3006 C3011 1.399 . S
C3007 C3006 1.399 . S
C3007 C3008 1.376 . S
C3008 H2995 0.930 . S
C3008 C3007 1.376 . S
C3008 C3009 1.388 . S
C3009 H2996 0.930 . S
C3009 C3008 1.388 . S
C3009 C3010 1.390 . S
C3010 C3009 1.390 . S
C3010 C3011 1.394 . S
C3010 C3016 1.465 . S
C3011 C3006 1.399 . S
C3011 C3010 1.394 . S
C3011 C3012 1.516 . S
C3012 C3011 1.516 . S
C3012 C3013 1.502 . S
C3012 C3014 1.561 . S
C3012 C3015 1.526 . S
C3013 H2997 0.959 . S
C3013 H2998 0.959 . S
C3013 H2999 0.961 . S
C3013 C3012 1.502 . S
C3014 H3000 0.960 . S
C3014 H3001 0.961 . S
C3014 H3002 0.959 . S
C3014 C3012 1.561 . S
C3015 C3012 1.526 . S
C3015 C3016 1.396 . S
C3015 C3020 1.390 . S
C3016 C3010 1.465 . S
C3016 C3015 1.396 . S
C3016 C3017 1.399 . S
C3017 H3003 0.929 . S
C3017 C3016 1.399 . S
C3017 C3018 1.385 . S
C3018 H3004 0.931 . S
C3018 C3017 1.385 . S
C3018 C3019 1.389 . S
C3019 C3018 1.389 . S
C3019 C3020 1.387 . S
C3020 H3005 0.930 . S
C3020 C3015 1.390 . S
C3020 C3019 1.387 . S
H3021 C3033 0.930 . S
H3022 C3035 0.930 . S
H3023 C3036 0.930 . S
H3024 C3040 0.959 . S
H3025 C3040 0.959 . S
H3026 C3040 0.961 . S
H3027 C3041 0.960 . S
H3028 C3041 0.961 . S
H3029 C3041 0.959 . S
H3030 C3044 0.929 . S
H3031 C3045 0.931 . S
H3032 C3047 0.930 . S
C3033 H3021 0.930 . S
C3033 C3034 1.399 . S
C3033 C3038 1.399 . S
C3034 C3033 1.399 . S
C3034 C3035 1.376 . S
C3035 H3022 0.930 . S
C3035 C3034 1.376 . S
C3035 C3036 1.388 . S
C3036 H3023 0.930 . S
C3036 C3035 1.388 . S
C3036 C3037 1.390 . S
C3037 C3036 1.390 . S
C3037 C3038 1.394 . S
C3037 C3043 1.465 . S
C3038 C3033 1.399 . S
C3038 C3037 1.394 . S
C3038 C3039 1.516 . S
C3039 C3038 1.516 . S
C3039 C3040 1.502 . S
C3039 C3041 1.561 . S
C3039 C3042 1.526 . S
C3040 H3024 0.959 . S
C3040 H3025 0.959 . S
C3040 H3026 0.961 . S
C3040 C3039 1.502 . S
C3041 H3027 0.960 . S
C3041 H3028 0.961 . S
C3041 H3029 0.959 . S
C3041 C3039 1.561 . S
C3042 C3039 1.526 . S
C3042 C3043 1.396 . S
C3042 C3047 1.390 . S
C3043 C3037 1.465 . S
C3043 C3042 1.396 . S
C3043 C3044 1.399 . S
C3044 H3030 0.929 . S
C3044 C3043 1.399 . S
C3044 C3045 1.385 . S
C3045 H3031 0.931 . S
C3045 C3044 1.385 . S
C3045 C3046 1.389 . S
C3046 C3045 1.389 . S
C3046 C3047 1.387 . S
C3047 H3032 0.930 . S
C3047 C3042 1.390 . S
C3047 C3046 1.387 . S
H3048 C3060 0.930 . S
H3049 C3062 0.930 . S
H3050 C3063 0.930 . S
H3051 C3067 0.959 . S
H3052 C3067 0.959 . S
H3053 C3067 0.961 . S
H3054 C3068 0.960 . S
H3055 C3068 0.961 . S
H3056 C3068 0.959 . S
H3057 C3071 0.929 . S
H3058 C3072 0.931 . S
H3059 C3074 0.930 . S
C3060 H3048 0.930 . S
C3060 C3061 1.399 . S
C3060 C3065 1.399 . S
C3061 C3060 1.399 . S
C3061 C3062 1.376 . S
C3062 H3049 0.930 . S
C3062 C3061 1.376 . S
C3062 C3063 1.388 . S
C3063 H3050 0.930 . S
C3063 C3062 1.388 . S
C3063 C3064 1.390 . S
C3064 C3063 1.390 . S
C3064 C3065 1.394 . S
C3064 C3070 1.465 . S
C3065 C3060 1.399 . S
C3065 C3064 1.394 . S
C3065 C3066 1.516 . S
C3066 C3065 1.516 . S
C3066 C3067 1.502 . S
C3066 C3068 1.561 . S
C3066 C3069 1.526 . S
C3067 H3051 0.959 . S
C3067 H3052 0.959 . S
C3067 H3053 0.961 . S
C3067 C3066 1.502 . S
C3068 H3054 0.960 . S
C3068 H3055 0.961 . S
C3068 H3056 0.959 . S
C3068 C3066 1.561 . S
C3069 C3066 1.526 . S
C3069 C3070 1.396 . S
C3069 C3074 1.390 . S
C3070 C3064 1.465 . S
C3070 C3069 1.396 . S
C3070 C3071 1.399 . S
C3071 H3057 0.929 . S
C3071 C3070 1.399 . S
C3071 C3072 1.385 . S
C3072 H3058 0.931 . S
C3072 C3071 1.385 . S
C3072 C3073 1.389 . S
C3073 C3072 1.389 . S
C3073 C3074 1.387 . S
C3074 H3059 0.930 . S
C3074 C3069 1.390 . S
C3074 C3073 1.387 . S
H3075 C3087 0.930 . S
H3076 C3089 0.930 . S
H3077 C3090 0.930 . S
H3078 C3094 0.959 . S
H3079 C3094 0.959 . S
H3080 C3094 0.961 . S
H3081 C3095 0.960 . S
H3082 C3095 0.961 . S
H3083 C3095 0.959 . S
H3084 C3098 0.929 . S
H3085 C3099 0.931 . S
H3086 C3101 0.930 . S
C3087 H3075 0.930 . S
C3087 C3088 1.399 . S
C3087 C3092 1.399 . S
C3088 C3087 1.399 . S
C3088 C3089 1.376 . S
C3089 H3076 0.930 . S
C3089 C3088 1.376 . S
C3089 C3090 1.388 . S
C3090 H3077 0.930 . S
C3090 C3089 1.388 . S
C3090 C3091 1.390 . S
C3091 C3090 1.390 . S
C3091 C3092 1.394 . S
C3091 C3097 1.465 . S
C3092 C3087 1.399 . S
C3092 C3091 1.394 . S
C3092 C3093 1.516 . S
C3093 C3092 1.516 . S
C3093 C3094 1.502 . S
C3093 C3095 1.561 . S
C3093 C3096 1.526 . S
C3094 H3078 0.959 . S
C3094 H3079 0.959 . S
C3094 H3080 0.961 . S
C3094 C3093 1.502 . S
C3095 H3081 0.960 . S
C3095 H3082 0.961 . S
C3095 H3083 0.959 . S
C3095 C3093 1.561 . S
C3096 C3093 1.526 . S
C3096 C3097 1.396 . S
C3096 C3101 1.390 . S
C3097 C3091 1.465 . S
C3097 C3096 1.396 . S
C3097 C3098 1.399 . S
C3098 H3084 0.929 . S
C3098 C3097 1.399 . S
C3098 C3099 1.385 . S
C3099 H3085 0.931 . S
C3099 C3098 1.385 . S
C3099 C3100 1.389 . S
C3100 C3099 1.389 . S
C3100 C3101 1.387 . S
C3101 H3086 0.930 . S
C3101 C3096 1.390 . S
C3101 C3100 1.387 . S
H3102 C3114 0.930 . S
H3103 C3116 0.930 . S
H3104 C3117 0.930 . S
H3105 C3121 0.959 . S
H3106 C3121 0.959 . S
H3107 C3121 0.961 . S
H3108 C3122 0.960 . S
H3109 C3122 0.961 . S
H3110 C3122 0.959 . S
H3111 C3125 0.929 . S
H3112 C3126 0.931 . S
H3113 C3128 0.930 . S
C3114 H3102 0.930 . S
C3114 C3115 1.399 . S
C3114 C3119 1.399 . S
C3115 C3114 1.399 . S
C3115 C3116 1.376 . S
C3116 H3103 0.930 . S
C3116 C3115 1.376 . S
C3116 C3117 1.388 . S
C3117 H3104 0.930 . S
C3117 C3116 1.388 . S
C3117 C3118 1.390 . S
C3118 C3117 1.390 . S
C3118 C3119 1.394 . S
C3118 C3124 1.465 . S
C3119 C3114 1.399 . S
C3119 C3118 1.394 . S
C3119 C3120 1.516 . S
C3120 C3119 1.516 . S
C3120 C3121 1.502 . S
C3120 C3122 1.561 . S
C3120 C3123 1.526 . S
C3121 H3105 0.959 . S
C3121 H3106 0.959 . S
C3121 H3107 0.961 . S
C3121 C3120 1.502 . S
C3122 H3108 0.960 . S
C3122 H3109 0.961 . S
C3122 H3110 0.959 . S
C3122 C3120 1.561 . S
C3123 C3120 1.526 . S
C3123 C3124 1.396 . S
C3123 C3128 1.390 . S
C3124 C3118 1.465 . S
C3124 C3123 1.396 . S
C3124 C3125 1.399 . S
C3125 H3111 0.929 . S
C3125 C3124 1.399 . S
C3125 C3126 1.385 . S
C3126 H3112 0.931 . S
C3126 C3125 1.385 . S
C3126 C3127 1.389 . S
C3127 C3126 1.389 . S
C3127 C3128 1.387 . S
C3128 H3113 0.930 . S
C3128 C3123 1.390 . S
C3128 C3127 1.387 . S
H3129 C3141 0.930 . S
H3130 C3143 0.930 . S
H3131 C3144 0.930 . S
H3132 C3148 0.959 . S
H3133 C3148 0.959 . S
H3134 C3148 0.961 . S
H3135 C3149 0.960 . S
H3136 C3149 0.961 . S
H3137 C3149 0.959 . S
H3138 C3152 0.929 . S
H3139 C3153 0.931 . S
H3140 C3155 0.930 . S
C3141 H3129 0.930 . S
C3141 C3142 1.399 . S
C3141 C3146 1.399 . S
C3142 C3141 1.399 . S
C3142 C3143 1.376 . S
C3143 H3130 0.930 . S
C3143 C3142 1.376 . S
C3143 C3144 1.388 . S
C3144 H3131 0.930 . S
C3144 C3143 1.388 . S
C3144 C3145 1.390 . S
C3145 C3144 1.390 . S
C3145 C3146 1.394 . S
C3145 C3151 1.465 . S
C3146 C3141 1.399 . S
C3146 C3145 1.394 . S
C3146 C3147 1.516 . S
C3147 C3146 1.516 . S
C3147 C3148 1.502 . S
C3147 C3149 1.561 . S
C3147 C3150 1.526 . S
C3148 H3132 0.959 . S
C3148 H3133 0.959 . S
C3148 H3134 0.961 . S
C3148 C3147 1.502 . S
C3149 H3135 0.960 . S
C3149 H3136 0.961 . S
C3149 H3137 0.959 . S
C3149 C3147 1.561 . S
C3150 C3147 1.526 . S
C3150 C3151 1.396 . S
C3150 C3155 1.390 . S
C3151 C3145 1.465 . S
C3151 C3150 1.396 . S
C3151 C3152 1.399 . S
C3152 H3138 0.929 . S
C3152 C3151 1.399 . S
C3152 C3153 1.385 . S
C3153 H3139 0.931 . S
C3153 C3152 1.385 . S
C3153 C3154 1.389 . S
C3154 C3153 1.389 . S
C3154 C3155 1.387 . S
C3155 H3140 0.930 . S
C3155 C3150 1.390 . S
C3155 C3154 1.387 . S
H3156 C3168 0.930 . S
H3157 C3170 0.930 . S
H3158 C3171 0.930 . S
H3159 C3175 0.959 . S
H3160 C3175 0.959 . S
H3161 C3175 0.961 . S
H3162 C3176 0.960 . S
H3163 C3176 0.961 . S
H3164 C3176 0.959 . S
H3165 C3179 0.929 . S
H3166 C3180 0.931 . S
H3167 C3182 0.930 . S
C3168 H3156 0.930 . S
C3168 C3169 1.399 . S
C3168 C3173 1.399 . S
C3169 C3168 1.399 . S
C3169 C3170 1.376 . S
C3170 H3157 0.930 . S
C3170 C3169 1.376 . S
C3170 C3171 1.388 . S
C3171 H3158 0.930 . S
C3171 C3170 1.388 . S
C3171 C3172 1.390 . S
C3172 C3171 1.390 . S
C3172 C3173 1.394 . S
C3172 C3178 1.465 . S
C3173 C3168 1.399 . S
C3173 C3172 1.394 . S
C3173 C3174 1.516 . S
C3174 C3173 1.516 . S
C3174 C3175 1.502 . S
C3174 C3176 1.561 . S
C3174 C3177 1.526 . S
C3175 H3159 0.959 . S
C3175 H3160 0.959 . S
C3175 H3161 0.961 . S
C3175 C3174 1.502 . S
C3176 H3162 0.960 . S
C3176 H3163 0.961 . S
C3176 H3164 0.959 . S
C3176 C3174 1.561 . S
C3177 C3174 1.526 . S
C3177 C3178 1.396 . S
C3177 C3182 1.390 . S
C3178 C3172 1.465 . S
C3178 C3177 1.396 . S
C3178 C3179 1.399 . S
C3179 H3165 0.929 . S
C3179 C3178 1.399 . S
C3179 C3180 1.385 . S
C3180 H3166 0.931 . S
C3180 C3179 1.385 . S
C3180 C3181 1.389 . S
C3181 C3180 1.389 . S
C3181 C3182 1.387 . S
C3182 H3167 0.930 . S
C3182 C3177 1.390 . S
C3182 C3181 1.387 . S
H3183 C3195 0.930 . S
H3184 C3197 0.930 . S
H3185 C3198 0.930 . S
H3186 C3202 0.959 . S
H3187 C3202 0.959 . S
H3188 C3202 0.961 . S
H3189 C3203 0.960 . S
H3190 C3203 0.961 . S
H3191 C3203 0.959 . S
H3192 C3206 0.929 . S
H3193 C3207 0.931 . S
H3194 C3209 0.930 . S
C3195 H3183 0.930 . S
C3195 C3196 1.399 . S
C3195 C3200 1.399 . S
C3196 C3195 1.399 . S
C3196 C3197 1.376 . S
C3197 H3184 0.930 . S
C3197 C3196 1.376 . S
C3197 C3198 1.388 . S
C3198 H3185 0.930 . S
C3198 C3197 1.388 . S
C3198 C3199 1.390 . S
C3199 C3198 1.390 . S
C3199 C3200 1.394 . S
C3199 C3205 1.465 . S
C3200 C3195 1.399 . S
C3200 C3199 1.394 . S
C3200 C3201 1.516 . S
C3201 C3200 1.516 . S
C3201 C3202 1.502 . S
C3201 C3203 1.561 . S
C3201 C3204 1.526 . S
C3202 H3186 0.959 . S
C3202 H3187 0.959 . S
C3202 H3188 0.961 . S
C3202 C3201 1.502 . S
C3203 H3189 0.960 . S
C3203 H3190 0.961 . S
C3203 H3191 0.959 . S
C3203 C3201 1.561 . S
C3204 C3201 1.526 . S
C3204 C3205 1.396 . S
C3204 C3209 1.390 . S
C3205 C3199 1.465 . S
C3205 C3204 1.396 . S
C3205 C3206 1.399 . S
C3206 H3192 0.929 . S
C3206 C3205 1.399 . S
C3206 C3207 1.385 . S
C3207 H3193 0.931 . S
C3207 C3206 1.385 . S
C3207 C3208 1.389 . S
C3208 C3207 1.389 . S
C3208 C3209 1.387 . S
C3209 H3194 0.930 . S
C3209 C3204 1.390 . S
C3209 C3208 1.387 . S
H3210 C3222 0.930 . S
H3211 C3224 0.930 . S
H3212 C3225 0.930 . S
H3213 C3229 0.959 . S
H3214 C3229 0.959 . S
H3215 C3229 0.961 . S
H3216 C3230 0.960 . S
H3217 C3230 0.961 . S
H3218 C3230 0.959 . S
H3219 C3233 0.929 . S
H3220 C3234 0.931 . S
H3221 C3236 0.930 . S
C3222 H3210 0.930 . S
C3222 C3223 1.399 . S
C3222 C3227 1.399 . S
C3223 C3222 1.399 . S
C3223 C3224 1.376 . S
C3224 H3211 0.930 . S
C3224 C3223 1.376 . S
C3224 C3225 1.388 . S
C3225 H3212 0.930 . S
C3225 C3224 1.388 . S
C3225 C3226 1.390 . S
C3226 C3225 1.390 . S
C3226 C3227 1.394 . S
C3226 C3232 1.465 . S
C3227 C3222 1.399 . S
C3227 C3226 1.394 . S
C3227 C3228 1.516 . S
C3228 C3227 1.516 . S
C3228 C3229 1.502 . S
C3228 C3230 1.561 . S
C3228 C3231 1.526 . S
C3229 H3213 0.959 . S
C3229 H3214 0.959 . S
C3229 H3215 0.961 . S
C3229 C3228 1.502 . S
C3230 H3216 0.960 . S
C3230 H3217 0.961 . S
C3230 H3218 0.959 . S
C3230 C3228 1.561 . S
C3231 C3228 1.526 . S
C3231 C3232 1.396 . S
C3231 C3236 1.390 . S
C3232 C3226 1.465 . S
C3232 C3231 1.396 . S
C3232 C3233 1.399 . S
C3233 H3219 0.929 . S
C3233 C3232 1.399 . S
C3233 C3234 1.385 . S
C3234 H3220 0.931 . S
C3234 C3233 1.385 . S
C3234 C3235 1.389 . S
C3235 C3234 1.389 . S
C3235 C3236 1.387 . S
C3236 H3221 0.930 . S
C3236 C3231 1.390 . S
C3236 C3235 1.387 . S
H3237 C3249 0.930 . S
H3238 C3251 0.930 . S
H3239 C3252 0.930 . S
H3240 C3256 0.959 . S
H3241 C3256 0.959 . S
H3242 C3256 0.961 . S
H3243 C3257 0.960 . S
H3244 C3257 0.961 . S
H3245 C3257 0.959 . S
H3246 C3260 0.929 . S
H3247 C3261 0.931 . S
H3248 C3263 0.930 . S
C3249 H3237 0.930 . S
C3249 C3250 1.399 . S
C3249 C3254 1.399 . S
C3250 C3249 1.399 . S
C3250 C3251 1.376 . S
C3251 H3238 0.930 . S
C3251 C3250 1.376 . S
C3251 C3252 1.388 . S
C3252 H3239 0.930 . S
C3252 C3251 1.388 . S
C3252 C3253 1.390 . S
C3253 C3252 1.390 . S
C3253 C3254 1.394 . S
C3253 C3259 1.465 . S
C3254 C3249 1.399 . S
C3254 C3253 1.394 . S
C3254 C3255 1.516 . S
C3255 C3254 1.516 . S
C3255 C3256 1.502 . S
C3255 C3257 1.561 . S
C3255 C3258 1.526 . S
C3256 H3240 0.959 . S
C3256 H3241 0.959 . S
C3256 H3242 0.961 . S
C3256 C3255 1.502 . S
C3257 H3243 0.960 . S
C3257 H3244 0.961 . S
C3257 H3245 0.959 . S
C3257 C3255 1.561 . S
C3258 C3255 1.526 . S
C3258 C3259 1.396 . S
C3258 C3263 1.390 . S
C3259 C3253 1.465 . S
C3259 C3258 1.396 . S
C3259 C3260 1.399 . S
C3260 H3246 0.929 . S
C3260 C3259 1.399 . S
C3260 C3261 1.385 . S
C3261 H3247 0.931 . S
C3261 C3260 1.385 . S
C3261 C3262 1.389 . S
C3262 C3261 1.389 . S
C3262 C3263 1.387 . S
C3263 H3248 0.930 . S
C3263 C3258 1.390 . S
C3263 C3262 1.387 . S
C685 C134 1.543 . S
C697 C8 1.616 . S
C712 C148 1.614 . S
C724 C22 1.566 . S
C739 C162 1.580 . S
C751 C36 1.601 . S
C766 C50 1.538 . S
C778 C120 1.628 . S
C793 C218 1.583 . S
C805 C64 1.572 . S
C820 C78 1.627 . S
C832 C176 1.539 . S
C847 C190 1.592 . S
C859 C92 1.590 . S
C874 C204 1.554 . S
C886 C106 1.602 . S
C901 C232 1.612 . S
C913 C260 1.546 . S
C928 C246 1.628 . S
C940 C316 1.539 . S
C955 C274 1.622 . S
C967 C330 1.540 . S
C982 C288 1.588 . S
C994 C302 1.594 . S
C1009 C344 1.575 . S
C1021 C470 1.606 . S
C1036 C484 1.549 . S
C1048 C358 1.608 . S
C1063 C372 1.598 . S
C1075 C498 1.583 . S
C1090 C386 1.613 . S
C1102 C456 1.567 . S
C1117 C554 1.608 . S
C1129 C400 1.549 . S
C1144 C512 1.589 . S
C1156 C414 1.593 . S
C1171 C526 1.604 . S
C1183 C428 1.553 . S
C1198 C540 1.606 . S
C1210 C442 1.575 . S
C1225 C568 1.539 . S
C1237 C596 1.621 . S
C1252 C582 1.544 . S
C1264 C652 1.627 . S
C1279 C610 1.545 . S
C1291 C666 1.612 . S
C1306 C638 1.538 . S
C1318 C624 1.627 . S
C1333 C121 1.195 . S
C1345 C3 1.246 . S
C1360 C135 1.037 . S
C1372 C17 1.243 . S
C1387 C31 1.249 . S
C1399 C149 1.113 . S
C1414 C45 1.239 . S
C1426 C163 1.108 . S
C1441 C59 1.240 . S
C1453 C177 1.152 . S
C1468 C73 1.246 . S
C1480 C191 1.057 . S
C1495 C87 1.249 . S
C1507 C205 1.121 . S
C1522 C219 1.190 . S
C1534 C101 1.247 . S
C1549 C115 1.245 . S
C1561 C233 1.194 . S
C1576 C331 1.190 . S
C1588 C129 1.244 . S
C1603 C143 1.241 . S
C1615 C303 1.043 . S
C1630 C157 1.239 . S
C1642 C317 1.113 . S
C1657 C171 1.239 . S
C1669 C247 1.110 . S
C1684 C185 1.249 . S
C1696 C261 1.156 . S
C1711 C199 1.243 . S
C1723 C275 1.184 . S
C1738 C289 1.190 . S
C1750 C213 1.243 . S
C1765 C9 1.052 . S
C1777 C227 1.246 . S
C1792 C241 1.248 . S
C1804 C65 1.182 . S
C1819 C255 1.243 . S
C1831 C79 1.040 . S
C1846 C269 1.240 . S
C1858 C93 1.159 . S
C1873 C107 1.078 . S
C1885 C283 1.247 . S
C1900 C297 1.247 . S
C1912 C37 1.078 . S
C1927 C311 1.244 . S
C1939 C51 1.041 . S
C1954 C23 1.096 . S
C1966 C325 1.248 . S
C1981 C457 1.038 . S
C1993 C339 1.244 . S
C2008 C353 1.245 . S
C2020 C471 1.047 . S
C2035 C367 1.249 . S
C2047 C485 1.139 . S
C2062 C499 1.151 . S
C2074 C381 1.249 . S
C2089 C513 1.191 . S
C2101 C395 1.244 . S
C2116 C409 1.245 . S
C2128 C527 1.046 . S
C2143 C541 1.037 . S
C2155 C423 1.243 . S
C2170 C555 1.191 . S
C2182 C437 1.247 . S
C2197 C451 1.243 . S
C2209 C569 1.040 . S
C2224 C465 1.249 . S
C2236 C667 1.121 . S
C2251 C479 1.240 . S
C2263 C639 1.059 . S
C2278 C653 1.175 . S
C2290 C493 1.242 . S
C2305 C507 1.241 . S
C2317 C583 1.041 . S
C2332 C521 1.239 . S
C2344 C597 1.076 . S
C2359 C611 1.044 . S
C2371 C535 1.245 . S
C2386 C625 1.187 . S
C2398 C549 1.243 . S
C2413 C563 1.243 . S
C2425 C345 1.189 . S
C2440 C577 1.239 . S
C2452 C401 1.127 . S
C2467 C415 1.044 . S
C2479 C591 1.241 . S
C2494 C605 1.243 . S
C2506 C429 1.039 . S
C2521 C619 1.246 . S
C2533 C443 1.193 . S
C2548 C373 1.047 . S
C2560 C633 1.241 . S
C2575 C647 1.246 . S
C2587 C387 1.193 . S
C2602 C359 1.077 . S
C2614 C661 1.247 . S
C2629 C441 1.332 . S
C2641 C7 1.344 . S
C2656 C21 1.407 . S
C2668 C399 1.408 . S
C2683 C413 1.285 . S
C2695 C35 1.288 . S
C2710 C427 1.288 . S
C2722 C49 1.295 . S
C2737 C63 1.324 . S
C2749 C357 1.336 . S
C2764 C371 1.398 . S
C2776 C77 1.389 . S
C2791 C385 1.393 . S
C2803 C91 1.383 . S
C2818 C105 1.401 . S
C2830 C343 1.393 . S
C2845 C623 1.293 . S
C2857 C119 1.289 . S
C2872 C133 1.366 . S
C2884 C581 1.354 . S
C2899 C147 1.296 . S
C2911 C595 1.305 . S
C2926 C609 1.312 . S
C2938 C161 1.304 . S
C2953 C665 1.397 . S
C2965 C175 1.403 . S
C2980 C637 1.400 . S
C2992 C189 1.392 . S
C3007 C203 1.408 . S
C3019 C651 1.409 . S
C3034 C567 1.405 . S
C3046 C217 1.407 . S
C3061 C231 1.302 . S
C3073 C553 1.312 . S
C3088 C469 1.297 . S
C3100 C245 1.306 . S
C3115 C259 1.389 . S
C3127 C483 1.379 . S
C3142 C497 1.286 . S
C3154 C273 1.290 . S
C3169 C455 1.311 . S
C3181 C287 1.322 . S
C3196 C301 1.410 . S
C3208 C525 1.407 . S
C3223 C539 1.310 . S
C3235 C315 1.302 . S
C3250 C511 1.391 . S
C3262 C329 1.398 . S
