# Generated by pormake.
# Topology pcl, (4)-cn, num edge types: 1
# Building blocks:
#     Node 0, Type 0, BuildingBlock: KUFVIS_clean_sbu_0, # of connection points: 4
#     Node 1, Type 0, BuildingBlock: KUFVIS_clean_sbu_0, # of connection points: 4
#     Node 2, Type 0, BuildingBlock: KUFVIS_clean_sbu_0, # of connection points: 4
#     Node 3, Type 0, BuildingBlock: KUFVIS_clean_sbu_0, # of connection points: 4
#     Node 4, Type 0, BuildingBlock: KUFVIS_clean_sbu_0, # of connection points: 4
#     Node 5, Type 0, BuildingBlock: KUFVIS_clean_sbu_0, # of connection points: 4
#     Node 6, Type 0, BuildingBlock: KUFVIS_clean_sbu_0, # of connection points: 4
#     Node 7, Type 0, BuildingBlock: KUFVIS_clean_sbu_0, # of connection points: 4
#     Node 8, Type 0, BuildingBlock: KUFVIS_clean_sbu_0, # of connection points: 4
#     Node 9, Type 0, BuildingBlock: KUFVIS_clean_sbu_0, # of connection points: 4
#     Node 10, Type 0, BuildingBlock: KUFVIS_clean_sbu_0, # of connection points: 4
#     Node 11, Type 0, BuildingBlock: KUFVIS_clean_sbu_0, # of connection points: 4
#     Node 12, Type 0, BuildingBlock: KUFVIS_clean_sbu_0, # of connection points: 4
#     Node 13, Type 0, BuildingBlock: KUFVIS_clean_sbu_0, # of connection points: 4
#     Node 14, Type 0, BuildingBlock: KUFVIS_clean_sbu_0, # of connection points: 4
#     Node 15, Type 0, BuildingBlock: KUFVIS_clean_sbu_0, # of connection points: 4
#     Edge 16, Type (0, 0), BuildingBlock: AJUNOK_clean_linker_0, # of connection points: 2
#     Edge 17, Type (0, 0), BuildingBlock: AJUNOK_clean_linker_0, # of connection points: 2
#     Edge 18, Type (0, 0), BuildingBlock: AJUNOK_clean_linker_0, # of connection points: 2
#     Edge 19, Type (0, 0), BuildingBlock: AJUNOK_clean_linker_0, # of connection points: 2
#     Edge 20, Type (0, 0), BuildingBlock: AJUNOK_clean_linker_0, # of connection points: 2
#     Edge 21, Type (0, 0), BuildingBlock: AJUNOK_clean_linker_0, # of connection points: 2
#     Edge 22, Type (0, 0), BuildingBlock: AJUNOK_clean_linker_0, # of connection points: 2
#     Edge 23, Type (0, 0), BuildingBlock: AJUNOK_clean_linker_0, # of connection points: 2
#     Edge 24, Type (0, 0), BuildingBlock: AJUNOK_clean_linker_0, # of connection points: 2
#     Edge 25, Type (0, 0), BuildingBlock: AJUNOK_clean_linker_0, # of connection points: 2
#     Edge 26, Type (0, 0), BuildingBlock: AJUNOK_clean_linker_0, # of connection points: 2
#     Edge 27, Type (0, 0), BuildingBlock: AJUNOK_clean_linker_0, # of connection points: 2
#     Edge 28, Type (0, 0), BuildingBlock: AJUNOK_clean_linker_0, # of connection points: 2
#     Edge 29, Type (0, 0), BuildingBlock: AJUNOK_clean_linker_0, # of connection points: 2
#     Edge 30, Type (0, 0), BuildingBlock: AJUNOK_clean_linker_0, # of connection points: 2
#     Edge 31, Type (0, 0), BuildingBlock: AJUNOK_clean_linker_0, # of connection points: 2
#     Edge 32, Type (0, 0), BuildingBlock: AJUNOK_clean_linker_0, # of connection points: 2
#     Edge 33, Type (0, 0), BuildingBlock: AJUNOK_clean_linker_0, # of connection points: 2
#     Edge 34, Type (0, 0), BuildingBlock: AJUNOK_clean_linker_0, # of connection points: 2
#     Edge 35, Type (0, 0), BuildingBlock: AJUNOK_clean_linker_0, # of connection points: 2
#     Edge 36, Type (0, 0), BuildingBlock: AJUNOK_clean_linker_0, # of connection points: 2
#     Edge 37, Type (0, 0), BuildingBlock: AJUNOK_clean_linker_0, # of connection points: 2
#     Edge 38, Type (0, 0), BuildingBlock: AJUNOK_clean_linker_0, # of connection points: 2
#     Edge 39, Type (0, 0), BuildingBlock: AJUNOK_clean_linker_0, # of connection points: 2
#     Edge 40, Type (0, 0), BuildingBlock: AJUNOK_clean_linker_0, # of connection points: 2
#     Edge 41, Type (0, 0), BuildingBlock: AJUNOK_clean_linker_0, # of connection points: 2
#     Edge 42, Type (0, 0), BuildingBlock: AJUNOK_clean_linker_0, # of connection points: 2
#     Edge 43, Type (0, 0), BuildingBlock: AJUNOK_clean_linker_0, # of connection points: 2
#     Edge 44, Type (0, 0), BuildingBlock: AJUNOK_clean_linker_0, # of connection points: 2
#     Edge 45, Type (0, 0), BuildingBlock: AJUNOK_clean_linker_0, # of connection points: 2
#     Edge 46, Type (0, 0), BuildingBlock: AJUNOK_clean_linker_0, # of connection points: 2
#     Edge 47, Type (0, 0), BuildingBlock: AJUNOK_clean_linker_0, # of connection points: 2
# Relax obj value: 0.078
# Max RMSD: 0.060
# Mean RMSD: 0.059
data_MOF--net-pcl--node1-KUFVIS_clean_sbu_0--edge1-AJUNOK_clean_linker_0
_symmetry_space_group_name_H-M    P1
_symmetry_Int_Tables_number       1
_symmetry_cell_setting            triclinic
loop_
_symmetry_equiv_pos_as_xyz
'x, y, z'
_cell_length_a     37.942387
_cell_length_b     31.102259
_cell_length_c     30.808025
_cell_angle_alpha  90.205464
_cell_angle_beta   89.900805
_cell_angle_gamma 90.217858
loop_
_atom_site_label
_atom_site_type_symbol
_atom_site_fract_x
_atom_site_fract_y
_atom_site_fract_z
_atom_type_partial_charge
Mn0 Mn 0.18651 0.34946 0.08085 0.0
Mn1 Mn 0.26763 0.38204 0.11111 0.0
C2 C 0.20495 0.3322 0.15122 0.0
C3 C 0.12486 0.35785 0.07693 0.0
C4 C 0.25492 0.30748 0.04938 0.0
O5 O 0.19488 0.40002 0.04045 0.0
O6 O 0.24935 0.41784 0.06263 0.0
C7 C 0.257 0.47159 0.14122 0.0
N8 N 0.27023 0.4315 0.14764 0.0
C9 C 0.30673 0.45651 0.20644 0.0
C10 C 0.29338 0.49807 0.20061 0.0
C11 C 0.26833 0.50559 0.16794 0.0
C12 C 0.29474 0.42403 0.17854 0.0
H13 H 0.23827 0.47763 0.11562 0.0
C14 C 0.22205 0.42421 0.03921 0.0
O15 O 0.14139 0.33247 0.05042 0.0
O16 O 0.14402 0.37858 0.10471 0.0
N17 N 0.28968 0.35234 0.15765 0.0
C18 C 0.29516 0.30948 0.16298 0.0
C19 C 0.31676 0.29551 0.1971 0.0
C20 C 0.3327 0.3258 0.22492 0.0
C21 C 0.32644 0.36981 0.21879 0.0
C22 C 0.30467 0.38174 0.18433 0.0
H23 H 0.28331 0.28634 0.14115 0.0
O24 O 0.18475 0.30747 0.12805 0.0
O25 O 0.21841 0.36552 0.13036 0.0
O26 O 0.22157 0.3107 0.04676 0.0
O27 O 0.27301 0.33205 0.07345 0.0
C28 C 0.33998 0.40221 0.24628 0.0
C29 C 0.33027 0.44556 0.23998 0.0
H30 H 0.3017 0.5243 0.22148 0.0
H31 H 0.25788 0.53757 0.16329 0.0
H32 H 0.32133 0.26152 0.20176 0.0
H33 H 0.34925 0.31488 0.25125 0.0
H34 H 0.35715 0.39404 0.27303 0.0
H35 H 0.34011 0.47 0.26203 0.0
Mn36 Mn 0.86591 0.67332 0.58618 0.0
Mn37 Mn 0.7867 0.63903 0.62186 0.0
C38 C 0.84693 0.69365 0.65642 0.0
C39 C 0.9275 0.6654 0.58108 0.0
C40 C 0.79589 0.7084 0.55314 0.0
O41 O 0.85676 0.62035 0.54785 0.0
O42 O 0.8056 0.59845 0.57777 0.0
C43 C 0.7974 0.55407 0.6607 0.0
N44 N 0.78882 0.59626 0.66601 0.0
C45 C 0.76048 0.58125 0.73434 0.0
C46 C 0.76941 0.53783 0.72966 0.0
C47 C 0.78718 0.52411 0.69216 0.0
C48 C 0.77027 0.60956 0.7011 0.0
H49 H 0.81042 0.54283 0.63166 0.0
C50 C 0.83159 0.59311 0.55177 0.0
O51 O 0.91042 0.6895 0.55407 0.0
O52 O 0.9088 0.645 0.60955 0.0
N53 N 0.7653 0.67484 0.66493 0.0
C54 C 0.75206 0.71524 0.66009 0.0
C55 C 0.73014 0.73256 0.69243 0.0
C56 C 0.72159 0.70795 0.72911 0.0
C57 C 0.73548 0.66645 0.73341 0.0
C58 C 0.75765 0.65109 0.70041 0.0
H59 H 0.75782 0.734 0.63156 0.0
O60 O 0.86808 0.71728 0.6334 0.0
O61 O 0.8349 0.65984 0.6358 0.0
O62 O 0.82944 0.70996 0.55288 0.0
O63 O 0.77892 0.68228 0.57696 0.0
C64 C 0.72733 0.63934 0.76855 0.0
C65 C 0.73976 0.59671 0.76897 0.0
H66 H 0.76154 0.51446 0.75384 0.0
H67 H 0.79254 0.49032 0.68711 0.0
H68 H 0.71951 0.76458 0.68883 0.0
H69 H 0.7043 0.72119 0.75373 0.0
H70 H 0.71055 0.6505 0.79471 0.0
H71 H 0.73207 0.57558 0.79524 0.0
Mn72 Mn 0.18359 0.66967 0.92345 0.0
Mn73 Mn 0.26227 0.64124 0.88099 0.0
C74 C 0.19782 0.69059 0.85298 0.0
C75 C 0.12296 0.65665 0.93303 0.0
C76 C 0.25382 0.70721 0.9537 0.0
O77 O 0.19778 0.61766 0.95959 0.0
O78 O 0.24746 0.59706 0.92443 0.0
C79 C 0.25522 0.55713 0.83737 0.0
N80 N 0.26091 0.6003 0.83472 0.0
C81 C 0.27922 0.59411 0.76008 0.0
C82 C 0.27311 0.5497 0.76192 0.0
C83 C 0.26183 0.53107 0.80104 0.0
C84 C 0.2741 0.61812 0.79809 0.0
H85 H 0.24674 0.54245 0.86732 0.0
C86 C 0.22276 0.59089 0.95243 0.0
O87 O 0.14018 0.68185 0.95922 0.0
O88 O 0.14116 0.63804 0.90287 0.0
N89 N 0.27714 0.68165 0.83788 0.0
C90 C 0.28257 0.7248 0.84194 0.0
C91 C 0.29343 0.74862 0.80562 0.0
C92 C 0.29869 0.72781 0.76559 0.0
C93 C 0.29282 0.68339 0.7622 0.0
C94 C 0.28175 0.66143 0.79942 0.0
H95 H 0.27837 0.74099 0.87257 0.0
O96 O 0.17616 0.71283 0.87671 0.0
O97 O 0.2126 0.65814 0.87253 0.0
O98 O 0.22024 0.70884 0.95465 0.0
O99 O 0.27033 0.68271 0.92778 0.0
C100 C 0.29723 0.66009 0.72325 0.0
C101 C 0.29077 0.61538 0.72232 0.0
H102 H 0.27753 0.52951 0.73372 0.0
H103 H 0.25842 0.49661 0.80332 0.0
H104 H 0.29772 0.78292 0.80846 0.0
H105 H 0.30709 0.74627 0.73766 0.0
H106 H 0.30578 0.67618 0.69392 0.0
H107 H 0.2947 0.59769 0.69235 0.0
Mn108 Mn 0.86446 0.34945 0.42361 0.0
Mn109 Mn 0.78382 0.38298 0.39384 0.0
C110 C 0.84558 0.33213 0.35324 0.0
C111 C 0.92608 0.35671 0.42748 0.0
C112 C 0.79562 0.30824 0.45503 0.0
O113 O 0.85729 0.40067 0.46401 0.0
O114 O 0.80302 0.4189 0.44209 0.0
C115 C 0.79513 0.47242 0.36413 0.0
N116 N 0.78165 0.43232 0.35745 0.0
C117 C 0.74497 0.45744 0.29918 0.0
C118 C 0.7586 0.499 0.30528 0.0
C119 C 0.7838 0.50648 0.33788 0.0
C120 C 0.75687 0.42494 0.32674 0.0
H121 H 0.81399 0.47848 0.38966 0.0
C122 C 0.83061 0.42542 0.46511 0.0
O123 O 0.90915 0.33177 0.454 0.0
O124 O 0.90734 0.3776 0.39966 0.0
N125 N 0.76111 0.35331 0.3474 0.0
C126 C 0.75515 0.31047 0.3419 0.0
C127 C 0.73317 0.29656 0.30794 0.0
C128 C 0.7174 0.3269 0.28041 0.0
C129 C 0.72422 0.37086 0.28664 0.0
C130 C 0.74635 0.38272 0.32093 0.0
H131 H 0.76693 0.28729 0.36346 0.0
O132 O 0.86535 0.30716 0.37631 0.0
O133 O 0.83272 0.36576 0.37421 0.0
O134 O 0.82898 0.31121 0.45768 0.0
O135 O 0.77784 0.33314 0.43133 0.0
C136 C 0.71088 0.40329 0.25942 0.0
C137 C 0.7211 0.44658 0.26583 0.0
H138 H 0.7503 0.52527 0.28475 0.0
H139 H 0.7944 0.53847 0.34282 0.0
H140 H 0.7282 0.26259 0.30317 0.0
H141 H 0.70055 0.31603 0.2542 0.0
H142 H 0.69344 0.39517 0.2328 0.0
H143 H 0.71133 0.47104 0.24404 0.0
Mn144 Mn 0.89537 0.66893 0.91091 0.0
Mn145 Mn 0.92243 0.5849 0.84984 0.0
C146 C 0.89612 0.6763 0.83509 0.0
C147 C 0.85144 0.70489 0.95164 0.0
C148 C 0.97181 0.63997 0.9048 0.0
O149 O 0.89343 0.61716 0.952 0.0
O150 O 0.90119 0.56355 0.90382 0.0
C151 C 0.85601 0.53991 0.82988 0.0
N152 N 0.88562 0.56042 0.81583 0.0
C153 C 0.87839 0.5323 0.74373 0.0
C154 C 0.84962 0.50801 0.75844 0.0
C155 C 0.83758 0.51294 0.80124 0.0
C156 C 0.89609 0.55803 0.774 0.0
H157 H 0.84733 0.5429 0.8631 0.0
C158 C 0.89362 0.57728 0.94171 0.0
O159 O 0.8848 0.70885 0.95966 0.0
O160 O 0.84312 0.67993 0.91927 0.0
N161 N 0.94433 0.59912 0.79594 0.0
C162 C 0.97697 0.61652 0.78937 0.0
C163 C 0.99162 0.61612 0.74751 0.0
C164 C 0.97355 0.59588 0.71339 0.0
C165 C 0.9409 0.57624 0.72127 0.0
C166 C 0.92701 0.57883 0.76335 0.0
H167 H 0.9917 0.63072 0.81573 0.0
O168 O 0.89587 0.70965 0.86062 0.0
O169 O 0.89568 0.63932 0.85486 0.0
O170 O 0.94962 0.66921 0.91436 0.0
O171 O 0.96329 0.60648 0.8832 0.0
C172 C 0.92244 0.55242 0.68957 0.0
C173 C 0.89139 0.53005 0.70092 0.0
H174 H 0.83713 0.48464 0.73749 0.0
H175 H 0.81491 0.49492 0.8125 0.0
H176 H 1.01707 0.63061 0.74165 0.0
H177 H 0.98557 0.59433 0.68166 0.0
H178 H 0.93254 0.54985 0.65677 0.0
H179 H 0.87807 0.5106 0.67671 0.0
Mn180 Mn 0.1538 0.34734 0.40767 0.0
Mn181 Mn 0.12617 0.42842 0.34348 0.0
C182 C 0.15681 0.34034 0.33249 0.0
C183 C 0.19768 0.31297 0.4489 0.0
C184 C 0.0764 0.37146 0.39529 0.0
O185 O 0.15336 0.3996 0.44806 0.0
O186 O 0.13976 0.45215 0.40063 0.0
C187 C 0.18911 0.48362 0.33263 0.0
N188 N 0.16383 0.45779 0.31491 0.0
C189 C 0.17922 0.48045 0.24272 0.0
C190 C 0.20532 0.50744 0.2602 0.0
C191 C 0.21048 0.50874 0.30533 0.0
C192 C 0.15878 0.45614 0.27153 0.0
H193 H 0.19259 0.48553 0.36736 0.0
C194 C 0.1484 0.43917 0.43852 0.0
O195 O 0.16432 0.30779 0.45659 0.0
O196 O 0.20582 0.33873 0.41732 0.0
N197 N 0.11265 0.40912 0.28706 0.0
C198 C 0.0859 0.38204 0.27572 0.0
C199 C 0.07844 0.37529 0.23164 0.0
C200 C 0.09811 0.39713 0.19993 0.0
C201 C 0.12528 0.42523 0.21242 0.0
C202 C 0.13204 0.4298 0.25677 0.0
H203 H 0.07036 0.36584 0.30013 0.0
O204 O 0.15578 0.30644 0.35701 0.0
O205 O 0.15541 0.37709 0.3527 0.0
O206 O 0.09935 0.3452 0.40952 0.0
O207 O 0.08422 0.40274 0.37054 0.0
C208 C 0.14553 0.44942 0.18279 0.0
C209 C 0.17237 0.47711 0.19793 0.0
H210 H 0.22154 0.52728 0.23935 0.0
H211 H 0.23058 0.52945 0.31905 0.0
H212 H 0.05733 0.35376 0.22211 0.0
H213 H 0.09201 0.39211 0.16619 0.0
H214 H 0.14035 0.44772 0.14836 0.0
H215 H 0.18738 0.49593 0.17486 0.0
Mn216 Mn 0.89661 0.34865 0.09695 0.0
Mn217 Mn 0.92491 0.42866 0.16318 0.0
C218 C 0.89406 0.34036 0.17213 0.0
C219 C 0.85265 0.31446 0.05472 0.0
C220 C 0.97432 0.37321 0.10927 0.0
O221 O 0.89603 0.40197 0.05836 0.0
O222 O 0.91069 0.45329 0.10708 0.0
C223 C 0.86246 0.48369 0.17602 0.0
N224 N 0.88755 0.45734 0.19285 0.0
C225 C 0.87327 0.47947 0.26566 0.0
C226 C 0.84735 0.50689 0.24908 0.0
C227 C 0.8417 0.50871 0.20409 0.0
C228 C 0.89305 0.45519 0.23611 0.0
H229 H 0.85875 0.48624 0.14137 0.0
C230 C 0.90073 0.44137 0.06925 0.0
O231 O 0.88602 0.31004 0.04686 0.0
O232 O 0.84449 0.33915 0.0873 0.0
N233 N 0.9388 0.40847 0.21894 0.0
C234 C 0.96567 0.38149 0.22934 0.0
C235 C 0.97377 0.37458 0.27316 0.0
C236 C 0.95468 0.39623 0.30558 0.0
C237 C 0.92736 0.42417 0.29406 0.0
C238 C 0.91985 0.42878 0.24993 0.0
H239 H 0.98085 0.36561 0.20437 0.0
O240 O 0.89509 0.30687 0.14679 0.0
O241 O 0.89543 0.37738 0.15276 0.0
O242 O 0.95114 0.34731 0.09433 0.0
O243 O 0.96672 0.40385 0.13505 0.0
C244 C 0.9078 0.44837 0.32439 0.0
C245 C 0.88084 0.47603 0.31022 0.0
H246 H 0.8318 0.52692 0.27049 0.0
H247 H 0.8218 0.52986 0.19106 0.0
H248 H 0.99501 0.35318 0.28194 0.0
H249 H 0.96141 0.39125 0.33911 0.0
H250 H 0.91372 0.44688 0.35863 0.0
H251 H 0.86643 0.49491 0.33384 0.0
Mn252 Mn 0.15747 0.66806 0.59469 0.0
Mn253 Mn 0.12567 0.59224 0.66324 0.0
C254 C 0.16136 0.67875 0.66955 0.0
C255 C 0.20201 0.69957 0.55162 0.0
C256 C 0.07867 0.65024 0.60991 0.0
O257 O 0.15544 0.61391 0.55687 0.0
O258 O 0.13711 0.56576 0.60661 0.0
C259 C 0.18489 0.53198 0.67434 0.0
N260 N 0.16089 0.55944 0.69192 0.0
C261 C 0.17089 0.53163 0.76356 0.0
C262 C 0.1944 0.5016 0.74589 0.0
C263 C 0.20204 0.5024 0.70126 0.0
C264 C 0.15394 0.55949 0.73497 0.0
H265 H 0.19011 0.53183 0.63988 0.0
C266 C 0.14769 0.5755 0.56845 0.0
O267 O 0.16876 0.70491 0.5439 0.0
O268 O 0.20977 0.67487 0.58414 0.0
N269 N 0.11387 0.61355 0.71943 0.0
C270 C 0.09136 0.64568 0.73071 0.0
C271 C 0.08421 0.65317 0.7748 0.0
C272 C 0.09948 0.62676 0.80645 0.0
C273 C 0.12256 0.59381 0.79395 0.0
C274 C 0.12952 0.58885 0.74968 0.0
H275 H 0.07906 0.66529 0.7062 0.0
O276 O 0.16105 0.71113 0.64301 0.0
O277 O 0.15829 0.64082 0.6517 0.0
O278 O 0.10294 0.67284 0.59251 0.0
O279 O 0.08517 0.62061 0.6369 0.0
C280 C 0.13929 0.566 0.82347 0.0
C281 C 0.1632 0.53467 0.80824 0.0
H282 H 0.20682 0.47783 0.76626 0.0
H283 H 0.22059 0.47974 0.68755 0.0
H284 H 0.06651 0.67874 0.78434 0.0
H285 H 0.09347 0.63245 0.84016 0.0
H286 H 0.13392 0.56818 0.85789 0.0
H287 H 0.17584 0.51345 0.83121 0.0
Mn288 Mn 0.68311 0.8532 0.07753 0.0
Mn289 Mn 0.76099 0.88313 0.12109 0.0
C290 C 0.6964 0.83395 0.14849 0.0
C291 C 0.62223 0.86472 0.06862 0.0
C292 C 0.7541 0.81152 0.05377 0.0
O293 O 0.69722 0.90439 0.0399 0.0
O294 O 0.74871 0.92252 0.07213 0.0
C295 C 0.75049 0.97124 0.15475 0.0
N296 N 0.75801 0.92912 0.16218 0.0
C297 C 0.77575 0.94476 0.23557 0.0
C298 C 0.76851 0.9883 0.22852 0.0
C299 C 0.75598 1.0016 0.18785 0.0
C300 C 0.77136 0.91628 0.20071 0.0
H301 H 0.74113 0.98184 0.12352 0.0
C302 C 0.72413 0.92903 0.04423 0.0
O303 O 0.63933 0.83917 0.04269 0.0
O304 O 0.64064 0.88465 0.09764 0.0
N305 N 0.77411 0.84823 0.16948 0.0
C306 C 0.77743 0.8047 0.17168 0.0
C307 C 0.7876 0.78563 0.21093 0.0
C308 C 0.79388 0.81148 0.24762 0.0
C309 C 0.78931 0.8561 0.24489 0.0
C310 C 0.77908 0.87323 0.2049 0.0
H311 H 0.77151 0.78467 0.14395 0.0
O312 O 0.67539 0.81087 0.12472 0.0
O313 O 0.71117 0.86661 0.12891 0.0
O314 O 0.72075 0.81369 0.04799 0.0
O315 O 0.77016 0.83618 0.08013 0.0
C316 C 0.79357 0.88412 0.28057 0.0
C317 C 0.78714 0.9285 0.27578 0.0
H318 H 0.77227 0.01178 0.25416 0.0
H319 H 0.7505 0.03521 0.18205 0.0
H320 H 0.79032 0.75108 0.21299 0.0
H321 H 0.80154 0.79664 0.27791 0.0
H322 H 0.80156 0.87183 0.31188 0.0
H323 H 0.79055 0.94976 0.3034 0.0
Mn324 Mn 0.36584 0.16781 0.57557 0.0
Mn325 Mn 0.28792 0.13823 0.6194 0.0
C326 C 0.35248 0.18799 0.6464 0.0
C327 C 0.42662 0.15761 0.56617 0.0
C328 C 0.29498 0.20761 0.55043 0.0
O329 O 0.35195 0.11578 0.53864 0.0
O330 O 0.30091 0.09714 0.57186 0.0
C331 C 0.29752 0.05147 0.656 0.0
N332 N 0.29095 0.09409 0.66214 0.0
C333 C 0.27472 0.08212 0.73674 0.0
C334 C 0.28135 0.03817 0.73114 0.0
C335 C 0.29233 0.02274 0.69042 0.0
C336 C 0.27858 0.10889 0.7006 0.0
H337 H 0.30575 0.03925 0.62478 0.0
C338 C 0.32547 0.09057 0.54378 0.0
O339 O 0.40899 0.18208 0.54 0.0
O340 O 0.40871 0.13751 0.59554 0.0
N341 N 0.27437 0.17516 0.66635 0.0
C342 C 0.26882 0.21841 0.66613 0.0
C343 C 0.2589 0.23929 0.70472 0.0
C344 C 0.25466 0.21548 0.74306 0.0
C345 C 0.26062 0.17102 0.7425 0.0
C346 C 0.27071 0.15205 0.70314 0.0
H347 H 0.27227 0.2369 0.6368 0.0
O348 O 0.37323 0.21103 0.62228 0.0
O349 O 0.33775 0.15509 0.62703 0.0
O350 O 0.3284 0.20628 0.54583 0.0
O351 O 0.27869 0.18329 0.57676 0.0
C352 C 0.25735 0.14485 0.77955 0.0
C353 C 0.26405 0.10034 0.77656 0.0
H354 H 0.2779 0.01593 0.75781 0.0
H355 H 0.29678 0.98872 0.68553 0.0
H356 H 0.25454 0.27365 0.70494 0.0
H357 H 0.24701 0.23169 0.77277 0.0
H358 H 0.24957 0.15859 0.81045 0.0
H359 H 0.26111 0.08045 0.80515 0.0
Mn360 Mn 0.68469 0.17141 0.92189 0.0
Mn361 Mn 0.76284 0.14169 0.87912 0.0
C362 C 0.69871 0.19076 0.85107 0.0
C363 C 0.62366 0.16232 0.93051 0.0
C364 C 0.75575 0.21135 0.94819 0.0
O365 O 0.69777 0.11934 0.95886 0.0
O366 O 0.74947 0.10129 0.9269 0.0
C367 C 0.75251 0.0545 0.84298 0.0
N368 N 0.75965 0.09697 0.83666 0.0
C369 C 0.77546 0.08408 0.76203 0.0
C370 C 0.7682 0.04027 0.76778 0.0
C371 C 0.75714 0.02537 0.8086 0.0
C372 C 0.77204 0.11127 0.79809 0.0
H373 H 0.74418 0.04269 0.87426 0.0
C374 C 0.72454 0.0946 0.95447 0.0
O375 O 0.64158 0.18654 0.95693 0.0
O376 O 0.64135 0.14157 0.90135 0.0
N377 N 0.77677 0.17796 0.83197 0.0
C378 C 0.78271 0.22118 0.83197 0.0
C379 C 0.79283 0.24155 0.79327 0.0
C380 C 0.79682 0.21726 0.75505 0.0
C381 C 0.79044 0.17283 0.75584 0.0
C382 C 0.78023 0.15438 0.79531 0.0
H383 H 0.77944 0.24003 0.86121 0.0
O384 O 0.67825 0.21437 0.87498 0.0
O385 O 0.71309 0.15814 0.87084 0.0
O386 O 0.72231 0.20966 0.95244 0.0
O387 O 0.77219 0.18737 0.92161 0.0
C388 C 0.79341 0.14621 0.7189 0.0
C389 C 0.78623 0.10179 0.7221 0.0
H390 H 0.77122 0.01773 0.74115 0.0
H391 H 0.75224 0.99146 0.81363 0.0
H392 H 0.7975 0.27589 0.79288 0.0
H393 H 0.80459 0.23308 0.72525 0.0
H394 H 0.80126 0.15956 0.68792 0.0
H395 H 0.78887 0.08157 0.69357 0.0
Mn396 Mn 0.36734 0.84826 0.42053 0.0
Mn397 Mn 0.28806 0.87598 0.38015 0.0
C398 C 0.35227 0.82816 0.35021 0.0
C399 C 0.42854 0.8566 0.42706 0.0
C400 C 0.29727 0.80653 0.44812 0.0
O401 O 0.35479 0.90086 0.45724 0.0
O402 O 0.3014 0.91608 0.42848 0.0
C403 C 0.29571 0.9641 0.34597 0.0
N404 N 0.28953 0.92151 0.33875 0.0
C405 C 0.27031 0.93545 0.2657 0.0
C406 C 0.27623 0.97941 0.27254 0.0
C407 C 0.2888 0.9938 0.31295 0.0
C408 C 0.27611 0.90757 0.30049 0.0
H409 H 0.30494 0.97556 0.37707 0.0
C410 C 0.32706 0.92416 0.45457 0.0
O411 O 0.41076 0.83422 0.45509 0.0
O412 O 0.41061 0.87672 0.39782 0.0
N413 N 0.27403 0.84009 0.33258 0.0
C414 C 0.26918 0.79667 0.33161 0.0
C415 C 0.25827 0.77676 0.2929 0.0
C416 C 0.25229 0.8017 0.25572 0.0
C417 C 0.2576 0.84632 0.2575 0.0
C418 C 0.26885 0.86427 0.29686 0.0
H419 H 0.27391 0.77737 0.36005 0.0
O420 O 0.3729 0.80461 0.37376 0.0
O421 O 0.33796 0.86081 0.37027 0.0
O422 O 0.33054 0.81024 0.45275 0.0
O423 O 0.28017 0.82937 0.42148 0.0
C424 C 0.25243 0.87364 0.2217 0.0
C425 C 0.25842 0.91826 0.22594 0.0
H426 H 0.27116 1.00243 0.24703 0.0
H427 H 0.29308 0.02776 0.31868 0.0
H428 H 0.25443 0.74227 0.29172 0.0
H429 H 0.2438 0.78624 0.22594 0.0
H430 H 0.24367 0.86071 0.19084 0.0
H431 H 0.25397 0.93904 0.19836 0.0
Mn432 Mn 0.39559 0.17118 0.90353 0.0
Mn433 Mn 0.4284 0.0925 0.83914 0.0
C434 C 0.39292 0.17897 0.82862 0.0
C435 C 0.35023 0.20238 0.94534 0.0
C436 C 0.47413 0.15198 0.8936 0.0
O437 O 0.39753 0.1187 0.94266 0.0
O438 O 0.41336 0.06693 0.89502 0.0
C439 C 0.36978 0.03202 0.82316 0.0
N440 N 0.39424 0.06016 0.80754 0.0
C441 C 0.38593 0.03447 0.73453 0.0
C442 C 0.36156 1.00424 0.75007 0.0
C443 C 0.35297 1.00351 0.79442 0.0
C444 C 0.40249 0.06126 0.76484 0.0
H445 H 0.364 0.0304 0.85744 0.0
C446 C 0.40344 0.0794 0.93278 0.0
O447 O 0.38332 0.20919 0.95323 0.0
O448 O 0.34308 0.17689 0.91299 0.0
N449 N 0.44353 0.11361 0.78405 0.0
C450 C 0.46796 0.14445 0.77486 0.0
C451 C 0.47712 0.15231 0.73142 0.0
C452 C 0.46155 0.1278 0.69814 0.0
C453 C 0.43669 0.09593 0.70852 0.0
C454 C 0.42802 0.09033 0.75226 0.0
H455 H 0.48031 0.16285 0.8005 0.0
O456 O 0.39242 0.21235 0.85416 0.0
O457 O 0.39592 0.14174 0.84769 0.0
O458 O 0.44993 0.17722 0.90664 0.0
O459 O 0.46802 0.12001 0.86904 0.0
C460 C 0.42013 0.06947 0.67733 0.0
C461 C 0.39497 0.03853 0.69035 0.0
H462 H 0.34943 0.98123 0.72829 0.0
H463 H 0.33398 0.98042 0.80654 0.0
H464 H 0.49636 0.17688 0.72362 0.0
H465 H 0.46881 0.13391 0.66482 0.0
H466 H 0.42677 0.07225 0.64333 0.0
H467 H 0.38259 0.0182 0.6661 0.0
Mn468 Mn 0.65706 0.84758 0.40762 0.0
Mn469 Mn 0.62349 0.9258 0.34338 0.0
C470 C 0.6606 0.84068 0.33242 0.0
C471 C 0.70128 0.81506 0.44949 0.0
C472 C 0.5783 0.86334 0.39467 0.0
O473 O 0.65386 0.8992 0.44825 0.0
O474 O 0.63631 0.95056 0.40108 0.0
C475 C 0.68218 0.98734 0.33166 0.0
N476 N 0.65785 0.96016 0.31426 0.0
C477 C 0.66774 0.9887 0.24276 0.0
C478 C 0.69178 0.01827 0.26036 0.0
C479 C 0.69959 0.017 0.30486 0.0
C480 C 0.65061 0.96066 0.27131 0.0
H481 H 0.68754 0.98694 0.3658 0.0
C482 C 0.64664 0.9381 0.43862 0.0
O483 O 0.66801 0.80867 0.45622 0.0
O484 O 0.70941 0.84155 0.4184 0.0
N485 N 0.61057 0.90612 0.28669 0.0
C486 C 0.58749 0.87451 0.2751 0.0
C487 C 0.57941 0.86827 0.23105 0.0
C488 C 0.59486 0.89492 0.19952 0.0
C489 C 0.61864 0.9272 0.21227 0.0
C490 C 0.62599 0.93144 0.25656 0.0
H491 H 0.57554 0.85416 0.29931 0.0
O492 O 0.6612 0.80713 0.35744 0.0
O493 O 0.65709 0.87772 0.35199 0.0
O494 O 0.60315 0.84075 0.40991 0.0
O495 O 0.58342 0.8953 0.36993 0.0
C496 C 0.63565 0.95506 0.18287 0.0
C497 C 0.65991 0.98609 0.19815 0.0
H498 H 0.70456 0.04196 0.24002 0.0
H499 H 0.71854 0.03929 0.31858 0.0
H500 H 0.56114 0.8432 0.22143 0.0
H501 H 0.58844 0.89009 0.16568 0.0
H502 H 0.63035 0.95299 0.14849 0.0
H503 H 0.67273 1.00738 0.17523 0.0
Mn504 Mn 0.39411 0.85359 0.09256 0.0
Mn505 Mn 0.42341 0.93323 0.15875 0.0
C506 C 0.39219 0.84455 0.16781 0.0
C507 C 0.35037 0.81685 0.05266 0.0
C508 C 0.47227 0.87713 0.10525 0.0
O509 O 0.39325 0.90628 0.05308 0.0
O510 O 0.41069 0.95649 0.10144 0.0
C511 C 0.3602 0.98764 0.16815 0.0
N512 N 0.38632 0.96403 0.18651 0.0
C513 C 0.37413 0.9936 0.25714 0.0
C514 C 0.34843 0.02001 0.23854 0.0
C515 C 0.34082 0.01626 0.19407 0.0
C516 C 0.39299 0.96631 0.22952 0.0
H517 H 0.3548 0.98535 0.13383 0.0
C518 C 0.40011 0.94525 0.0637 0.0
O519 O 0.38363 0.81375 0.04365 0.0
O520 O 0.34195 0.84311 0.08385 0.0
N521 N 0.43667 0.91579 0.21573 0.0
C522 C 0.4631 0.88897 0.22794 0.0
C523 C 0.4724 0.88658 0.27194 0.0
C524 C 0.45478 0.91226 0.30268 0.0
C525 C 0.42756 0.93944 0.28931 0.0
C526 C 0.41935 0.94025 0.24511 0.0
H527 H 0.47734 0.87024 0.20413 0.0
O528 O 0.3935 0.81173 0.14169 0.0
O529 O 0.39304 0.88218 0.14926 0.0
O530 O 0.44869 0.85272 0.08882 0.0
O531 O 0.46514 0.90652 0.13261 0.0
C532 C 0.40868 0.96633 0.31793 0.0
C533 C 0.38217 0.99366 0.30179 0.0
H534 H 0.33413 0.04307 0.2581 0.0
H535 H 0.32051 0.03594 0.1797 0.0
H536 H 0.49363 0.86575 0.28192 0.0
H537 H 0.46263 0.9115 0.33638 0.0
H538 H 0.41452 0.96649 0.35234 0.0
H539 H 0.36807 0.01449 0.32402 0.0
Mn540 Mn 0.65469 0.16566 0.59463 0.0
Mn541 Mn 0.62037 0.09003 0.66172 0.0
C542 C 0.65664 0.17614 0.66946 0.0
C543 C 0.70033 0.19727 0.55339 0.0
C544 C 0.57548 0.14781 0.60587 0.0
O545 O 0.65355 0.11173 0.55687 0.0
O546 O 0.63261 0.06336 0.60521 0.0
C547 C 0.67857 0.02885 0.67485 0.0
N548 N 0.65491 0.05724 0.69164 0.0
C549 C 0.66541 0.03216 0.76423 0.0
C550 C 0.68905 1.00176 0.74753 0.0
C551 C 0.69615 1.0006 0.70278 0.0
C552 C 0.64817 0.05885 0.73472 0.0
H553 H 0.68316 0.02689 0.6403 0.0
C554 C 0.6443 0.0736 0.56759 0.0
O555 O 0.66729 0.20248 0.54437 0.0
O556 O 0.7073 0.17261 0.58623 0.0
N557 N 0.60749 0.1118 0.71752 0.0
C558 C 0.58359 0.14275 0.72787 0.0
C559 C 0.57562 0.15064 0.7717 0.0
C560 C 0.5918 0.12605 0.80419 0.0
C561 C 0.61611 0.0941 0.79264 0.0
C562 C 0.6235 0.08834 0.74853 0.0
H563 H 0.57069 0.16111 0.70281 0.0
O564 O 0.65691 0.20859 0.64298 0.0
O565 O 0.65377 0.13824 0.65147 0.0
O566 O 0.60038 0.1703 0.58978 0.0
O567 O 0.58073 0.11856 0.63369 0.0
C568 C 0.63329 0.06768 0.82303 0.0
C569 C 0.65776 0.03655 0.8088 0.0
H570 H 0.70181 0.97897 0.76872 0.0
H571 H 0.71457 0.97739 0.68978 0.0
H572 H 0.55676 0.17524 0.78042 0.0
H573 H 0.58533 0.13203 0.8378 0.0
H574 H 0.62767 0.0707 0.85734 0.0
H575 H 0.67067 0.0163 0.83244 0.0
C576 C 0.06374 0.32576 0.07703 0.0
C577 C 0.08592 0.3622 0.07753 0.0
C578 C 0.0273 0.32933 0.08578 0.0
C579 C 1.01196 0.36944 0.09557 0.0
H580 H 0.07488 0.29412 0.07201 0.0
H581 H 1.0114 0.30035 0.08672 0.0
S582 S 0.05814 0.47514 0.09407 0.0
N583 N 0.08934 0.43982 0.08337 0.0
N584 N 1.02157 0.44684 0.10004 0.0
C585 C 0.03374 0.40627 0.0934 0.0
C586 C 0.07049 0.40258 0.08421 0.0
C587 C 0.98167 0.62338 0.59548 0.0
C588 C 0.96654 0.66198 0.58158 0.0
C589 C 1.0179 0.6201 0.60299 0.0
C590 C 0.04091 0.6554 0.59732 0.0
H591 H 0.9652 0.59552 0.60159 0.0
H592 H 0.0278 0.58948 0.61425 0.0
S593 S 1.01481 0.76322 0.55788 0.0
N594 N 0.97741 0.73584 0.55955 0.0
N595 N 0.04589 0.72975 0.57391 0.0
C596 C 0.02642 0.69377 0.58122 0.0
C597 C 0.98918 0.69705 0.57332 0.0
C598 C 0.03259 0.60924 0.91226 0.0
C599 C 1.00964 0.64446 0.91794 0.0
C600 C 0.06885 0.61282 0.92017 0.0
C601 C 0.08401 0.65176 0.934 0.0
H602 H 1.02273 0.57865 0.90044 0.0
H603 H 0.08539 0.5852 0.9137 0.0
S604 S 0.03602 0.75286 0.95756 0.0
N605 N 1.00496 0.71905 0.94149 0.0
N606 N 0.0733 0.72562 0.95596 0.0
C607 C 0.06143 0.68663 0.94224 0.0
C608 C 1.02428 0.68306 0.93418 0.0
C609 C 1.02301 0.32733 0.41706 0.0
C610 C 0.03884 0.36759 0.409 0.0
C611 C 0.98658 0.32388 0.42585 0.0
C612 C 0.96498 0.3606 0.42709 0.0
H613 H 0.0385 0.29823 0.4147 0.0
H614 H 0.97498 0.29222 0.42946 0.0
S615 S 0.99424 0.4737 0.4155 0.0
N616 N 0.03039 0.44522 0.40813 0.0
N617 N 0.96257 0.43838 0.42474 0.0
C618 C 0.98092 0.401 0.42217 0.0
C619 C 1.01765 0.40459 0.41299 0.0
C620 C 0.52498 0.83484 0.0776 0.0
C621 C 0.50971 0.87416 0.09042 0.0
C622 C 0.56123 0.83213 0.06727 0.0
C623 C 0.58324 0.86873 0.06904 0.0
H624 H 0.50924 0.80572 0.0774 0.0
H625 H 0.57244 0.8009 0.06022 0.0
S626 S 0.55524 0.98029 0.09312 0.0
N627 N 0.51903 0.9513 0.09888 0.0
N628 N 0.58634 0.94592 0.07926 0.0
C629 C 0.56775 0.90847 0.07878 0.0
C630 C 0.53125 0.91126 0.08954 0.0
C631 C 0.51717 0.11463 0.58941 0.0
C632 C 0.53873 0.1517 0.58948 0.0
C633 C 0.48151 0.11645 0.57822 0.0
C634 C 0.46562 0.1554 0.5667 0.0
H635 H 0.52772 0.08382 0.59916 0.0
H636 H 0.46586 0.08734 0.5805 0.0
S637 S 0.51051 0.26119 0.55799 0.0
N638 N 0.54197 0.22809 0.57367 0.0
N639 N 0.47442 0.23163 0.55313 0.0
C640 C 0.48709 0.19234 0.56398 0.0
C641 C 0.52375 0.19047 0.57529 0.0
C642 C 0.56739 0.12161 0.92507 0.0
C643 C 0.58466 0.16129 0.92967 0.0
C644 C 0.5314 0.11942 0.91516 0.0
C645 C 0.5111 0.15685 0.90907 0.0
H646 H 0.58214 0.09194 0.92745 0.0
H647 H 0.51958 0.0879 0.91106 0.0
S648 S 0.54411 0.26885 0.91722 0.0
N649 N 0.57902 0.23904 0.92778 0.0
N650 N 0.51112 0.23492 0.90906 0.0
C651 C 0.52777 0.19685 0.91509 0.0
C652 C 0.56462 0.19906 0.92536 0.0
C653 C 0.48117 0.84028 0.38228 0.0
C654 C 0.46723 0.85298 0.42264 0.0
C655 C 0.51755 0.84103 0.37432 0.0
C656 C 0.5414 0.85375 0.40669 0.0
H657 H 0.46366 0.83092 0.35612 0.0
H658 H 0.52696 0.83277 0.34221 0.0
S659 S 0.51868 0.88631 0.51914 0.0
N660 N 0.48015 0.87577 0.49636 0.0
N661 N 0.54884 0.87691 0.48151 0.0
C662 C 0.52802 0.86406 0.44804 0.0
C663 C 0.49081 0.86354 0.45609 0.0
C664 C 0.16858 0.30515 0.21468 0.0
C665 C 0.1957 0.33287 0.19912 0.0
C666 C 0.15578 0.30747 0.25759 0.0
C667 C 0.16993 0.33703 0.28727 0.0
H668 H 0.15613 0.28199 0.19329 0.0
H669 H 0.13437 0.28648 0.26734 0.0
S670 S 0.24486 0.41024 0.26815 0.0
N671 N 0.2363 0.38921 0.22005 0.0
N672 N 0.21643 0.38814 0.30166 0.0
C673 C 0.19847 0.36217 0.27382 0.0
C674 C 0.21013 0.36161 0.22962 0.0
C675 C 0.89251 0.67758 0.71175 0.0
C676 C 0.85752 0.68977 0.70282 0.0
C677 C 0.90534 0.67546 0.75425 0.0
C678 C 0.88314 0.68129 0.78996 0.0
H679 H 0.91084 0.67139 0.68563 0.0
H680 H 0.93307 0.67088 0.75884 0.0
S681 S 0.79488 0.73105 0.78539 0.0
N682 N 0.80543 0.72293 0.73392 0.0
N683 N 0.82756 0.71114 0.81416 0.0
C684 C 0.84914 0.69717 0.78188 0.0
C685 C 0.83673 0.70269 0.73829 0.0
C686 C 0.19841 0.65375 0.7806 0.0
C687 C 0.19313 0.69141 0.80491 0.0
C688 C 0.19118 0.65182 0.73618 0.0
C689 C 0.17264 0.68468 0.71542 0.0
H690 H 0.2063 0.62449 0.79624 0.0
H691 H 0.1989 0.62342 0.7184 0.0
S692 S 0.15108 0.79081 0.76366 0.0
N693 N 0.17047 0.76448 0.80345 0.0
N694 N 0.1505 0.75765 0.72166 0.0
C695 C 0.16675 0.72286 0.73892 0.0
C696 C 0.17753 0.72649 0.78343 0.0
C697 C 0.89468 0.30711 0.24674 0.0
C698 C 0.88066 0.33655 0.2172 0.0
C699 C 0.88186 0.30489 0.28967 0.0
C700 C 0.85488 0.33261 0.30535 0.0
H701 H 0.91606 0.28623 0.23692 0.0
H702 H 0.89423 0.28186 0.31098 0.0
S703 S 0.80616 0.40984 0.23676 0.0
N704 N 0.83444 0.38765 0.20313 0.0
N705 N 0.81457 0.38882 0.28471 0.0
C706 C 0.84056 0.3612 0.27498 0.0
C707 C 0.85222 0.36167 0.2308 0.0
C708 C 0.68953 0.87057 0.26605 0.0
C709 C 0.67126 0.83682 0.28614 0.0
C710 C 0.69693 0.8697 0.22156 0.0
C711 C 0.69171 0.83247 0.19651 0.0
H712 H 0.69723 0.8986 0.28453 0.0
H713 H 0.7052 0.89921 0.2065 0.0
S714 S 0.65052 0.73126 0.23576 0.0
N715 N 0.64964 0.76357 0.2784 0.0
N716 N 0.66966 0.75887 0.1965 0.0
C717 C 0.67635 0.79664 0.21727 0.0
C718 C 0.66557 0.7991 0.26181 0.0
C719 C 0.36268 0.14985 0.76274 0.0
C720 C 0.38159 0.18325 0.78268 0.0
C721 C 0.35406 0.15131 0.71866 0.0
C722 C 0.35849 0.18891 0.6942 0.0
H723 H 0.35517 0.12174 0.78101 0.0
H724 H 0.34541 0.12197 0.70342 0.0
S725 S 0.40111 0.28942 0.73356 0.0
N726 N 0.40318 0.25652 0.77543 0.0
N727 N 0.38074 0.26242 0.69468 0.0
C728 C 0.37458 0.22439 0.71495 0.0
C729 C 0.3867 0.22126 0.75886 0.0
C730 C 0.69644 0.15209 0.77956 0.0
C731 C 0.6923 0.19035 0.80328 0.0
C732 C 0.68739 0.14926 0.73565 0.0
C733 C 0.66845 0.182 0.71515 0.0
H734 H 0.7051 0.12322 0.79532 0.0
H735 H 0.69448 0.12054 0.71801 0.0
S736 S 0.64947 0.28939 0.76221 0.0
N737 N 0.6701 0.26365 0.80143 0.0
N738 N 0.64707 0.25532 0.72107 0.0
C739 C 0.66363 0.22067 0.73819 0.0
C740 C 0.67609 0.22512 0.78193 0.0
C741 C 0.36132 0.87008 0.23483 0.0
C742 C 0.38134 0.83846 0.21383 0.0
C743 C 0.3527 0.8668 0.27885 0.0
C744 C 0.35858 0.8289 0.30235 0.0
H745 H 0.35276 0.89813 0.21739 0.0
H746 H 0.34284 0.8951 0.2948 0.0
S747 S 0.40505 0.73247 0.26008 0.0
N748 N 0.40575 0.76655 0.2191 0.0
N749 N 0.38372 0.75704 0.29976 0.0
C750 C 0.37605 0.79513 0.28057 0.0
C751 C 0.38797 0.80023 0.23667 0.0
C752 C 0.33214 0.23868 0.01387 0.0
C753 C 0.32271 0.22371 0.97241 0.0
C754 C 0.30906 0.26339 0.03897 0.0
C755 C 0.27529 0.27487 0.02391 0.0
H756 H 0.35808 0.23211 0.02688 0.0
H757 H 0.31844 0.27475 0.07017 0.0
S758 S 0.23649 0.24118 0.91859 0.0
N759 N 0.27626 0.21964 0.91822 0.0
N760 N 0.23275 0.26684 0.96546 0.0
C761 C 0.26463 0.2583 0.98335 0.0
C762 C 0.28835 0.23264 0.95762 0.0
C763 C 0.73777 0.74121 0.53553 0.0
C764 C 0.77414 0.73843 0.52646 0.0
C765 C 0.7153 0.76695 0.51116 0.0
C766 C 0.72768 0.79137 0.47598 0.0
H767 H 0.72602 0.72295 0.56173 0.0
H768 H 0.68763 0.76702 0.5199 0.0
S769 S 0.82064 0.7973 0.43855 0.0
N770 N 0.8218 0.7638 0.48006 0.0
N771 N 0.77909 0.81228 0.43362 0.0
C772 C 0.76408 0.79001 0.46671 0.0
C773 C 0.78734 0.76359 0.49201 0.0
C774 C 0.28957 0.80191 0.02129 0.0
C775 C 0.32419 0.7884 0.03064 0.0
C776 C 0.26597 0.7752 0.9978 0.0
C777 C 0.27617 0.73397 0.98339 0.0
H778 H 0.28108 0.83377 0.03086 0.0
H779 H 0.24015 0.78746 0.98963 0.0
S780 S 0.36182 0.68095 0.00668 0.0
N781 N 0.36584 0.72942 0.02799 0.0
N782 N 0.32195 0.67931 0.9855 0.0
C783 C 0.31003 0.71943 0.99516 0.0
C784 C 0.3339 0.74659 0.01829 0.0
C785 C 0.71842 0.23708 0.48703 0.0
C786 C 0.72785 0.22026 0.52762 0.0
C787 C 0.74133 0.26353 0.46352 0.0
C788 C 0.77502 0.27487 0.47926 0.0
H789 H 0.69258 0.23067 0.47351 0.0
H790 H 0.7319 0.27616 0.43296 0.0
S791 S 0.81384 0.23694 0.58271 0.0
N792 N 0.77421 0.21467 0.58174 0.0
N793 N 0.81749 0.26484 0.53733 0.0
C794 C 0.78569 0.25661 0.5189 0.0
C795 C 0.76209 0.22929 0.54309 0.0
C796 C 0.7671 0.76336 0.98827 0.0
C797 C 0.77668 0.77991 0.02935 0.0
C798 C 0.79074 0.73789 0.96351 0.0
C799 C 0.82481 0.72804 0.97891 0.0
H800 H 0.74177 0.77143 0.97444 0.0
H801 H 0.78271 0.72711 0.93154 0.0
S802 S 0.86116 0.75812 0.08671 0.0
N803 N 0.82191 0.78055 0.0855 0.0
N804 N 0.86525 0.73318 0.0397 0.0
C805 C 0.83385 0.74251 0.02071 0.0
C806 C 0.81012 0.76822 0.04568 0.0
C807 C 0.23718 0.24386 0.5375 0.0
C808 C 0.27265 0.23803 0.52485 0.0
C809 C 0.21383 0.26876 0.5132 0.0
C810 C 0.22457 0.28954 0.47498 0.0
H811 H 0.22687 0.2285 0.56638 0.0
H812 H 0.18685 0.27125 0.52446 0.0
S813 S 0.31483 0.2872 0.42809 0.0
N814 N 0.31768 0.25691 0.47189 0.0
N815 N 0.27365 0.30421 0.42622 0.0
C816 C 0.26021 0.28547 0.46242 0.0
C817 C 0.28421 0.25971 0.48731 0.0
C818 C 0.83673 0.27223 0.98843 0.0
C819 C 0.82583 0.29161 0.02747 0.0
C820 C 0.81348 0.24798 0.96286 0.0
C821 C 0.77794 0.24143 0.97494 0.0
H822 H 0.86377 0.27531 0.9775 0.0
H823 H 0.82391 0.23363 0.93347 0.0
S824 S 0.73531 0.28695 0.07341 0.0
N825 N 0.77648 0.30422 0.07634 0.0
N826 N 0.73268 0.25816 0.02833 0.0
C827 C 0.76622 0.26177 0.0133 0.0
C828 C 0.79012 0.28685 0.03949 0.0
C829 C 0.21875 0.7394 0.48463 0.0
C830 C 0.22902 0.72227 0.52477 0.0
C831 C 0.24161 0.76484 0.4599 0.0
C832 C 0.27606 0.77493 0.47401 0.0
H833 H 0.19239 0.7338 0.4723 0.0
H834 H 0.23164 0.77747 0.42961 0.0
S835 S 0.31691 0.73602 0.57594 0.0
N836 N 0.27676 0.71526 0.57684 0.0
N837 N 0.31989 0.76362 0.53032 0.0
C838 C 0.28735 0.75659 0.51337 0.0
C839 C 0.26384 0.73024 0.53872 0.0
C840 C 0.25317 0.52562 0.98171 0.0
C841 C 0.2218 0.54863 0.97495 0.0
C842 C 0.25286 0.48484 1.00111 0.0
C843 C 0.22109 0.46479 0.01372 0.0
H844 H 0.27832 0.53945 0.97243 0.0
H845 H 0.27784 0.46902 0.00659 0.0
S846 S 0.13135 0.51042 1.00115 0.0
N847 N 0.15784 0.54765 0.98113 0.0
N848 N 0.15723 0.47099 0.01714 0.0
C849 C 0.1894 0.48701 0.00619 0.0
C850 C 0.18977 0.52889 0.98705 0.0
C851 C 0.80104 0.52903 0.51976 0.0
C852 C 0.83274 0.55132 0.52794 0.0
C853 C 0.80082 0.48792 0.50095 0.0
C854 C 0.83232 0.46667 0.48996 0.0
H855 H 0.77594 0.54352 0.52788 0.0
H856 H 0.77556 0.47276 0.49475 0.0
S857 S 0.92275 0.51035 0.50558 0.0
N858 N 0.89671 0.54867 0.52421 0.0
N859 N 0.89639 0.47128 0.4889 0.0
C860 C 0.86436 0.48832 0.49838 0.0
C861 C 0.86454 0.53063 0.51715 0.0
C862 C 0.90265 0.51911 0.04835 0.0
C863 C 0.8948 0.47602 0.03709 0.0
C864 C 0.89974 0.55242 0.01817 0.0
C865 C 0.88899 0.54401 0.97546 0.0
H866 H 0.91221 0.5273 0.08045 0.0
H867 H 0.90781 0.58451 0.0278 0.0
S868 S 0.85997 0.4383 0.93105 0.0
N869 N 0.87185 0.42789 0.9814 0.0
N870 N 0.86651 0.49035 0.92466 0.0
C871 C 0.87888 0.50162 0.96449 0.0
C872 C 0.88179 0.46769 0.99524 0.0
C873 C 0.15476 0.51615 0.46091 0.0
C874 C 0.15138 0.47256 0.47279 0.0
C875 C 0.15443 0.54905 0.492 0.0
C876 C 0.15039 0.53986 0.53635 0.0
H877 H 0.15718 0.5252 0.42712 0.0
H878 H 0.15651 0.58199 0.48094 0.0
S879 S 0.14254 0.43066 0.58488 0.0
N880 N 0.14555 0.42181 0.53219 0.0
N881 N 0.14459 0.48333 0.59078 0.0
C882 C 0.14799 0.49621 0.54885 0.0
C883 C 0.14864 0.46269 0.51709 0.0
C884 C 0.69356 0.03192 0.98914 0.0
C885 C 0.72529 0.05341 0.9791 0.0
C886 C 0.69351 0.99106 0.00856 0.0
C887 C 0.72517 0.97014 0.01943 0.0
H888 H 0.66848 0.04637 0.98112 0.0
H889 H 0.66835 0.97618 0.01598 0.0
S890 S 0.81545 0.01266 1.00048 0.0
N891 N 0.78928 0.05046 0.98147 0.0
N892 N 0.78917 0.97433 0.01876 0.0
C893 C 0.75708 0.99141 0.00985 0.0
C894 C 0.75714 0.03274 0.98948 0.0
C895 C 0.35726 0.98809 0.48816 0.0
C896 C 0.32585 0.96542 0.47933 0.0
C897 C 0.35677 0.02911 0.50748 0.0
C898 C 0.32487 0.04902 0.51946 0.0
H899 H 0.3825 0.97449 0.47919 0.0
H900 H 0.38172 0.04495 0.51386 0.0
S901 S 0.23525 1.00314 0.50405 0.0
N902 N 0.26188 0.96609 0.48418 0.0
N903 N 0.261 0.04257 0.52121 0.0
C904 C 0.29328 0.02654 0.51117 0.0
C905 C 0.29376 0.98502 0.49093 0.0
C906 C 0.39789 0.96969 0.98635 0.0
C907 C 0.39737 0.97981 0.03081 0.0
C908 C 0.39911 1.00212 0.95494 0.0
C909 C 0.39951 0.04602 0.96671 0.0
H910 H 0.39854 0.93649 0.97563 0.0
H911 H 0.40027 0.99252 0.92114 0.0
S912 S 0.3954 0.08984 0.07886 0.0
N913 N 0.39521 0.03721 0.08498 0.0
N914 N 0.39717 0.09779 0.02602 0.0
C915 C 0.39749 0.05661 0.01101 0.0
C916 C 0.39654 0.02364 0.043 0.0
C917 C 0.62232 1.0042 0.53686 0.0
C918 C 0.64641 0.03878 0.53501 0.0
C919 C 0.62332 0.97084 0.50624 0.0
C920 C 0.6486 0.97081 0.47302 0.0
H921 H 0.602 1.00335 0.5616 0.0
H922 H 0.60367 0.94552 0.50789 0.0
S923 S 0.72039 0.05043 0.45717 0.0
N924 N 0.6979 0.06901 0.49912 0.0
N925 N 0.70034 1.00551 0.4424 0.0
C926 C 0.67367 1.0041 0.47176 0.0
C927 C 0.67242 0.03836 0.50257 0.0
loop_
_geom_bond_atom_site_label_1
_geom_bond_atom_site_label_2
_geom_bond_distance
_geom_bond_site_symmetry_2
_ccdc_geom_bond_type
Mn0 O5 2.095 . S
Mn0 O15 2.162 . S
Mn0 O16 2.297 . S
Mn0 O24 2.385 . S
Mn0 O25 2.209 . S
Mn0 O26 2.094 . S
Mn1 O6 2.121 . S
Mn1 N8 2.257 . S
Mn1 N17 2.282 . S
Mn1 O25 2.215 . S
Mn1 O27 2.117 . S
C2 O24 1.234 . S
C2 O25 1.283 . S
C3 O15 1.281 . S
C3 O16 1.236 . S
C4 O26 1.240 . S
C4 O27 1.264 . S
O5 Mn0 2.095 . S
O5 C14 1.250 . S
O6 Mn1 2.121 . S
O6 C14 1.258 . S
C7 N8 1.326 . S
C7 C11 1.460 . S
C7 H13 0.929 . S
N8 Mn1 2.257 . S
N8 C7 1.326 . S
N8 C12 1.362 . S
C9 C10 1.258 . S
C9 C12 1.431 . S
C9 C29 1.449 . S
C10 C9 1.258 . S
C10 C11 1.477 . S
C10 H30 0.931 . S
C11 C7 1.460 . S
C11 C10 1.477 . S
C11 H31 0.930 . S
C12 N8 1.362 . S
C12 C9 1.431 . S
C12 C22 1.476 . S
H13 C7 0.929 . S
C14 O5 1.250 . S
C14 O6 1.258 . S
O15 Mn0 2.162 . S
O15 C3 1.281 . S
O16 Mn0 2.297 . S
O16 C3 1.236 . S
N17 Mn1 2.282 . S
N17 C18 1.328 . S
N17 C22 1.318 . S
C18 N17 1.328 . S
C18 C19 1.457 . S
C18 H23 0.929 . S
C19 C18 1.457 . S
C19 C20 1.291 . S
C19 H32 0.931 . S
C20 C19 1.291 . S
C20 C21 1.373 . S
C20 H33 0.929 . S
C21 C20 1.373 . S
C21 C22 1.396 . S
C21 C28 1.403 . S
C22 C12 1.476 . S
C22 N17 1.318 . S
C22 C21 1.396 . S
H23 C18 0.929 . S
O24 Mn0 2.385 . S
O24 C2 1.234 . S
O25 Mn0 2.209 . S
O25 Mn1 2.215 . S
O25 C2 1.283 . S
O26 Mn0 2.094 . S
O26 C4 1.240 . S
O27 Mn1 2.117 . S
O27 C4 1.264 . S
C28 C21 1.403 . S
C28 C29 1.399 . S
C28 H34 0.929 . S
C29 C9 1.449 . S
C29 C28 1.399 . S
C29 H35 0.930 . S
H30 C10 0.931 . S
H31 C11 0.930 . S
H32 C19 0.931 . S
H33 C20 0.929 . S
H34 C28 0.929 . S
H35 C29 0.930 . S
Mn36 O41 2.095 . S
Mn36 O51 2.162 . S
Mn36 O52 2.297 . S
Mn36 O60 2.385 . S
Mn36 O61 2.209 . S
Mn36 O62 2.094 . S
Mn37 O42 2.121 . S
Mn37 N44 2.257 . S
Mn37 N53 2.282 . S
Mn37 O61 2.215 . S
Mn37 O63 2.117 . S
C38 O60 1.234 . S
C38 O61 1.283 . S
C39 O51 1.281 . S
C39 O52 1.236 . S
C40 O62 1.240 . S
C40 O63 1.264 . S
O41 Mn36 2.095 . S
O41 C50 1.250 . S
O42 Mn37 2.121 . S
O42 C50 1.258 . S
C43 N44 1.326 . S
C43 C47 1.460 . S
C43 H49 0.929 . S
N44 Mn37 2.257 . S
N44 C43 1.326 . S
N44 C48 1.362 . S
C45 C46 1.258 . S
C45 C48 1.431 . S
C45 C65 1.449 . S
C46 C45 1.258 . S
C46 C47 1.477 . S
C46 H66 0.931 . S
C47 C43 1.460 . S
C47 C46 1.477 . S
C47 H67 0.930 . S
C48 N44 1.362 . S
C48 C45 1.431 . S
C48 C58 1.476 . S
H49 C43 0.929 . S
C50 O41 1.250 . S
C50 O42 1.258 . S
O51 Mn36 2.162 . S
O51 C39 1.281 . S
O52 Mn36 2.297 . S
O52 C39 1.236 . S
N53 Mn37 2.282 . S
N53 C54 1.328 . S
N53 C58 1.318 . S
C54 N53 1.328 . S
C54 C55 1.457 . S
C54 H59 0.929 . S
C55 C54 1.457 . S
C55 C56 1.291 . S
C55 H68 0.931 . S
C56 C55 1.291 . S
C56 C57 1.373 . S
C56 H69 0.929 . S
C57 C56 1.373 . S
C57 C58 1.396 . S
C57 C64 1.403 . S
C58 C48 1.476 . S
C58 N53 1.318 . S
C58 C57 1.396 . S
H59 C54 0.929 . S
O60 Mn36 2.385 . S
O60 C38 1.234 . S
O61 Mn36 2.209 . S
O61 Mn37 2.215 . S
O61 C38 1.283 . S
O62 Mn36 2.094 . S
O62 C40 1.240 . S
O63 Mn37 2.117 . S
O63 C40 1.264 . S
C64 C57 1.403 . S
C64 C65 1.399 . S
C64 H70 0.929 . S
C65 C45 1.449 . S
C65 C64 1.399 . S
C65 H71 0.930 . S
H66 C46 0.931 . S
H67 C47 0.930 . S
H68 C55 0.931 . S
H69 C56 0.929 . S
H70 C64 0.929 . S
H71 C65 0.930 . S
Mn72 O77 2.095 . S
Mn72 O87 2.162 . S
Mn72 O88 2.297 . S
Mn72 O96 2.385 . S
Mn72 O97 2.209 . S
Mn72 O98 2.094 . S
Mn73 O78 2.121 . S
Mn73 N80 2.257 . S
Mn73 N89 2.282 . S
Mn73 O97 2.215 . S
Mn73 O99 2.117 . S
C74 O96 1.234 . S
C74 O97 1.283 . S
C75 O87 1.281 . S
C75 O88 1.236 . S
C76 O98 1.240 . S
C76 O99 1.264 . S
O77 Mn72 2.095 . S
O77 C86 1.250 . S
O78 Mn73 2.121 . S
O78 C86 1.258 . S
C79 N80 1.326 . S
C79 C83 1.460 . S
C79 H85 0.929 . S
N80 Mn73 2.257 . S
N80 C79 1.326 . S
N80 C84 1.362 . S
C81 C82 1.258 . S
C81 C84 1.431 . S
C81 C101 1.449 . S
C82 C81 1.258 . S
C82 C83 1.477 . S
C82 H102 0.931 . S
C83 C79 1.460 . S
C83 C82 1.477 . S
C83 H103 0.930 . S
C84 N80 1.362 . S
C84 C81 1.431 . S
C84 C94 1.476 . S
H85 C79 0.929 . S
C86 O77 1.250 . S
C86 O78 1.258 . S
O87 Mn72 2.162 . S
O87 C75 1.281 . S
O88 Mn72 2.297 . S
O88 C75 1.236 . S
N89 Mn73 2.282 . S
N89 C90 1.328 . S
N89 C94 1.318 . S
C90 N89 1.328 . S
C90 C91 1.457 . S
C90 H95 0.929 . S
C91 C90 1.457 . S
C91 C92 1.291 . S
C91 H104 0.931 . S
C92 C91 1.291 . S
C92 C93 1.373 . S
C92 H105 0.929 . S
C93 C92 1.373 . S
C93 C94 1.396 . S
C93 C100 1.403 . S
C94 C84 1.476 . S
C94 N89 1.318 . S
C94 C93 1.396 . S
H95 C90 0.929 . S
O96 Mn72 2.385 . S
O96 C74 1.234 . S
O97 Mn72 2.209 . S
O97 Mn73 2.215 . S
O97 C74 1.283 . S
O98 Mn72 2.094 . S
O98 C76 1.240 . S
O99 Mn73 2.117 . S
O99 C76 1.264 . S
C100 C93 1.403 . S
C100 C101 1.399 . S
C100 H106 0.929 . S
C101 C81 1.449 . S
C101 C100 1.399 . S
C101 H107 0.930 . S
H102 C82 0.931 . S
H103 C83 0.930 . S
H104 C91 0.931 . S
H105 C92 0.929 . S
H106 C100 0.929 . S
H107 C101 0.930 . S
Mn108 O113 2.095 . S
Mn108 O123 2.162 . S
Mn108 O124 2.297 . S
Mn108 O132 2.385 . S
Mn108 O133 2.209 . S
Mn108 O134 2.094 . S
Mn109 O114 2.121 . S
Mn109 N116 2.257 . S
Mn109 N125 2.282 . S
Mn109 O133 2.215 . S
Mn109 O135 2.117 . S
C110 O132 1.234 . S
C110 O133 1.283 . S
C111 O123 1.281 . S
C111 O124 1.236 . S
C112 O134 1.240 . S
C112 O135 1.264 . S
O113 Mn108 2.095 . S
O113 C122 1.250 . S
O114 Mn109 2.121 . S
O114 C122 1.258 . S
C115 N116 1.326 . S
C115 C119 1.460 . S
C115 H121 0.929 . S
N116 Mn109 2.257 . S
N116 C115 1.326 . S
N116 C120 1.362 . S
C117 C118 1.258 . S
C117 C120 1.431 . S
C117 C137 1.449 . S
C118 C117 1.258 . S
C118 C119 1.477 . S
C118 H138 0.931 . S
C119 C115 1.460 . S
C119 C118 1.477 . S
C119 H139 0.930 . S
C120 N116 1.362 . S
C120 C117 1.431 . S
C120 C130 1.476 . S
H121 C115 0.929 . S
C122 O113 1.250 . S
C122 O114 1.258 . S
O123 Mn108 2.162 . S
O123 C111 1.281 . S
O124 Mn108 2.297 . S
O124 C111 1.236 . S
N125 Mn109 2.282 . S
N125 C126 1.328 . S
N125 C130 1.318 . S
C126 N125 1.328 . S
C126 C127 1.457 . S
C126 H131 0.929 . S
C127 C126 1.457 . S
C127 C128 1.291 . S
C127 H140 0.931 . S
C128 C127 1.291 . S
C128 C129 1.373 . S
C128 H141 0.929 . S
C129 C128 1.373 . S
C129 C130 1.396 . S
C129 C136 1.403 . S
C130 C120 1.476 . S
C130 N125 1.318 . S
C130 C129 1.396 . S
H131 C126 0.929 . S
O132 Mn108 2.385 . S
O132 C110 1.234 . S
O133 Mn108 2.209 . S
O133 Mn109 2.215 . S
O133 C110 1.283 . S
O134 Mn108 2.094 . S
O134 C112 1.240 . S
O135 Mn109 2.117 . S
O135 C112 1.264 . S
C136 C129 1.403 . S
C136 C137 1.399 . S
C136 H142 0.929 . S
C137 C117 1.449 . S
C137 C136 1.399 . S
C137 H143 0.930 . S
H138 C118 0.931 . S
H139 C119 0.930 . S
H140 C127 0.931 . S
H141 C128 0.929 . S
H142 C136 0.929 . S
H143 C137 0.930 . S
Mn144 O149 2.095 . S
Mn144 O159 2.162 . S
Mn144 O160 2.297 . S
Mn144 O168 2.385 . S
Mn144 O169 2.209 . S
Mn144 O170 2.094 . S
Mn145 O150 2.121 . S
Mn145 N152 2.257 . S
Mn145 N161 2.282 . S
Mn145 O169 2.215 . S
Mn145 O171 2.117 . S
C146 O168 1.234 . S
C146 O169 1.283 . S
C147 O159 1.281 . S
C147 O160 1.236 . S
C148 O170 1.240 . S
C148 O171 1.264 . S
O149 Mn144 2.095 . S
O149 C158 1.250 . S
O150 Mn145 2.121 . S
O150 C158 1.258 . S
C151 N152 1.326 . S
C151 C155 1.460 . S
C151 H157 0.929 . S
N152 Mn145 2.257 . S
N152 C151 1.326 . S
N152 C156 1.362 . S
C153 C154 1.258 . S
C153 C156 1.431 . S
C153 C173 1.449 . S
C154 C153 1.258 . S
C154 C155 1.477 . S
C154 H174 0.931 . S
C155 C151 1.460 . S
C155 C154 1.477 . S
C155 H175 0.930 . S
C156 N152 1.362 . S
C156 C153 1.431 . S
C156 C166 1.476 . S
H157 C151 0.929 . S
C158 O149 1.250 . S
C158 O150 1.258 . S
O159 Mn144 2.162 . S
O159 C147 1.281 . S
O160 Mn144 2.297 . S
O160 C147 1.236 . S
N161 Mn145 2.282 . S
N161 C162 1.328 . S
N161 C166 1.318 . S
C162 N161 1.328 . S
C162 C163 1.457 . S
C162 H167 0.929 . S
C163 C162 1.457 . S
C163 C164 1.291 . S
C163 H176 0.931 . S
C164 C163 1.291 . S
C164 C165 1.373 . S
C164 H177 0.929 . S
C165 C164 1.373 . S
C165 C166 1.396 . S
C165 C172 1.403 . S
C166 C156 1.476 . S
C166 N161 1.318 . S
C166 C165 1.396 . S
H167 C162 0.929 . S
O168 Mn144 2.385 . S
O168 C146 1.234 . S
O169 Mn144 2.209 . S
O169 Mn145 2.215 . S
O169 C146 1.283 . S
O170 Mn144 2.094 . S
O170 C148 1.240 . S
O171 Mn145 2.117 . S
O171 C148 1.264 . S
C172 C165 1.403 . S
C172 C173 1.399 . S
C172 H178 0.929 . S
C173 C153 1.449 . S
C173 C172 1.399 . S
C173 H179 0.930 . S
H174 C154 0.931 . S
H175 C155 0.930 . S
H176 C163 0.931 . S
H177 C164 0.929 . S
H178 C172 0.929 . S
H179 C173 0.930 . S
Mn180 O185 2.095 . S
Mn180 O195 2.162 . S
Mn180 O196 2.297 . S
Mn180 O204 2.385 . S
Mn180 O205 2.209 . S
Mn180 O206 2.094 . S
Mn181 O186 2.121 . S
Mn181 N188 2.257 . S
Mn181 N197 2.282 . S
Mn181 O205 2.215 . S
Mn181 O207 2.117 . S
C182 O204 1.234 . S
C182 O205 1.283 . S
C183 O195 1.281 . S
C183 O196 1.236 . S
C184 O206 1.240 . S
C184 O207 1.264 . S
O185 Mn180 2.095 . S
O185 C194 1.250 . S
O186 Mn181 2.121 . S
O186 C194 1.258 . S
C187 N188 1.326 . S
C187 C191 1.460 . S
C187 H193 0.929 . S
N188 Mn181 2.257 . S
N188 C187 1.326 . S
N188 C192 1.362 . S
C189 C190 1.258 . S
C189 C192 1.431 . S
C189 C209 1.449 . S
C190 C189 1.258 . S
C190 C191 1.477 . S
C190 H210 0.931 . S
C191 C187 1.460 . S
C191 C190 1.477 . S
C191 H211 0.930 . S
C192 N188 1.362 . S
C192 C189 1.431 . S
C192 C202 1.476 . S
H193 C187 0.929 . S
C194 O185 1.250 . S
C194 O186 1.258 . S
O195 Mn180 2.162 . S
O195 C183 1.281 . S
O196 Mn180 2.297 . S
O196 C183 1.236 . S
N197 Mn181 2.282 . S
N197 C198 1.328 . S
N197 C202 1.318 . S
C198 N197 1.328 . S
C198 C199 1.457 . S
C198 H203 0.929 . S
C199 C198 1.457 . S
C199 C200 1.291 . S
C199 H212 0.931 . S
C200 C199 1.291 . S
C200 C201 1.373 . S
C200 H213 0.929 . S
C201 C200 1.373 . S
C201 C202 1.396 . S
C201 C208 1.403 . S
C202 C192 1.476 . S
C202 N197 1.318 . S
C202 C201 1.396 . S
H203 C198 0.929 . S
O204 Mn180 2.385 . S
O204 C182 1.234 . S
O205 Mn180 2.209 . S
O205 Mn181 2.215 . S
O205 C182 1.283 . S
O206 Mn180 2.094 . S
O206 C184 1.240 . S
O207 Mn181 2.117 . S
O207 C184 1.264 . S
C208 C201 1.403 . S
C208 C209 1.399 . S
C208 H214 0.929 . S
C209 C189 1.449 . S
C209 C208 1.399 . S
C209 H215 0.930 . S
H210 C190 0.931 . S
H211 C191 0.930 . S
H212 C199 0.931 . S
H213 C200 0.929 . S
H214 C208 0.929 . S
H215 C209 0.930 . S
Mn216 O221 2.095 . S
Mn216 O231 2.162 . S
Mn216 O232 2.297 . S
Mn216 O240 2.385 . S
Mn216 O241 2.209 . S
Mn216 O242 2.094 . S
Mn217 O222 2.121 . S
Mn217 N224 2.257 . S
Mn217 N233 2.282 . S
Mn217 O241 2.215 . S
Mn217 O243 2.117 . S
C218 O240 1.234 . S
C218 O241 1.283 . S
C219 O231 1.281 . S
C219 O232 1.236 . S
C220 O242 1.240 . S
C220 O243 1.264 . S
O221 Mn216 2.095 . S
O221 C230 1.250 . S
O222 Mn217 2.121 . S
O222 C230 1.258 . S
C223 N224 1.326 . S
C223 C227 1.460 . S
C223 H229 0.929 . S
N224 Mn217 2.257 . S
N224 C223 1.326 . S
N224 C228 1.362 . S
C225 C226 1.258 . S
C225 C228 1.431 . S
C225 C245 1.449 . S
C226 C225 1.258 . S
C226 C227 1.477 . S
C226 H246 0.931 . S
C227 C223 1.460 . S
C227 C226 1.477 . S
C227 H247 0.930 . S
C228 N224 1.362 . S
C228 C225 1.431 . S
C228 C238 1.476 . S
H229 C223 0.929 . S
C230 O221 1.250 . S
C230 O222 1.258 . S
O231 Mn216 2.162 . S
O231 C219 1.281 . S
O232 Mn216 2.297 . S
O232 C219 1.236 . S
N233 Mn217 2.282 . S
N233 C234 1.328 . S
N233 C238 1.318 . S
C234 N233 1.328 . S
C234 C235 1.457 . S
C234 H239 0.929 . S
C235 C234 1.457 . S
C235 C236 1.291 . S
C235 H248 0.931 . S
C236 C235 1.291 . S
C236 C237 1.373 . S
C236 H249 0.929 . S
C237 C236 1.373 . S
C237 C238 1.396 . S
C237 C244 1.403 . S
C238 C228 1.476 . S
C238 N233 1.318 . S
C238 C237 1.396 . S
H239 C234 0.929 . S
O240 Mn216 2.385 . S
O240 C218 1.234 . S
O241 Mn216 2.209 . S
O241 Mn217 2.215 . S
O241 C218 1.283 . S
O242 Mn216 2.094 . S
O242 C220 1.240 . S
O243 Mn217 2.117 . S
O243 C220 1.264 . S
C244 C237 1.403 . S
C244 C245 1.399 . S
C244 H250 0.929 . S
C245 C225 1.449 . S
C245 C244 1.399 . S
C245 H251 0.930 . S
H246 C226 0.931 . S
H247 C227 0.930 . S
H248 C235 0.931 . S
H249 C236 0.929 . S
H250 C244 0.929 . S
H251 C245 0.930 . S
Mn252 O257 2.095 . S
Mn252 O267 2.162 . S
Mn252 O268 2.297 . S
Mn252 O276 2.385 . S
Mn252 O277 2.209 . S
Mn252 O278 2.094 . S
Mn253 O258 2.121 . S
Mn253 N260 2.257 . S
Mn253 N269 2.282 . S
Mn253 O277 2.215 . S
Mn253 O279 2.117 . S
C254 O276 1.234 . S
C254 O277 1.283 . S
C255 O267 1.281 . S
C255 O268 1.236 . S
C256 O278 1.240 . S
C256 O279 1.264 . S
O257 Mn252 2.095 . S
O257 C266 1.250 . S
O258 Mn253 2.121 . S
O258 C266 1.258 . S
C259 N260 1.326 . S
C259 C263 1.460 . S
C259 H265 0.929 . S
N260 Mn253 2.257 . S
N260 C259 1.326 . S
N260 C264 1.362 . S
C261 C262 1.258 . S
C261 C264 1.431 . S
C261 C281 1.449 . S
C262 C261 1.258 . S
C262 C263 1.477 . S
C262 H282 0.931 . S
C263 C259 1.460 . S
C263 C262 1.477 . S
C263 H283 0.930 . S
C264 N260 1.362 . S
C264 C261 1.431 . S
C264 C274 1.476 . S
H265 C259 0.929 . S
C266 O257 1.250 . S
C266 O258 1.258 . S
O267 Mn252 2.162 . S
O267 C255 1.281 . S
O268 Mn252 2.297 . S
O268 C255 1.236 . S
N269 Mn253 2.282 . S
N269 C270 1.328 . S
N269 C274 1.318 . S
C270 N269 1.328 . S
C270 C271 1.457 . S
C270 H275 0.929 . S
C271 C270 1.457 . S
C271 C272 1.291 . S
C271 H284 0.931 . S
C272 C271 1.291 . S
C272 C273 1.373 . S
C272 H285 0.929 . S
C273 C272 1.373 . S
C273 C274 1.396 . S
C273 C280 1.403 . S
C274 C264 1.476 . S
C274 N269 1.318 . S
C274 C273 1.396 . S
H275 C270 0.929 . S
O276 Mn252 2.385 . S
O276 C254 1.234 . S
O277 Mn252 2.209 . S
O277 Mn253 2.215 . S
O277 C254 1.283 . S
O278 Mn252 2.094 . S
O278 C256 1.240 . S
O279 Mn253 2.117 . S
O279 C256 1.264 . S
C280 C273 1.403 . S
C280 C281 1.399 . S
C280 H286 0.929 . S
C281 C261 1.449 . S
C281 C280 1.399 . S
C281 H287 0.930 . S
H282 C262 0.931 . S
H283 C263 0.930 . S
H284 C271 0.931 . S
H285 C272 0.929 . S
H286 C280 0.929 . S
H287 C281 0.930 . S
Mn288 O293 2.095 . S
Mn288 O303 2.162 . S
Mn288 O304 2.297 . S
Mn288 O312 2.385 . S
Mn288 O313 2.209 . S
Mn288 O314 2.094 . S
Mn289 O294 2.121 . S
Mn289 N296 2.257 . S
Mn289 N305 2.282 . S
Mn289 O313 2.215 . S
Mn289 O315 2.117 . S
C290 O312 1.234 . S
C290 O313 1.283 . S
C291 O303 1.281 . S
C291 O304 1.236 . S
C292 O314 1.240 . S
C292 O315 1.264 . S
O293 Mn288 2.095 . S
O293 C302 1.250 . S
O294 Mn289 2.121 . S
O294 C302 1.258 . S
C295 N296 1.326 . S
C295 C299 1.460 . S
C295 H301 0.929 . S
N296 Mn289 2.257 . S
N296 C295 1.326 . S
N296 C300 1.362 . S
C297 C298 1.258 . S
C297 C300 1.431 . S
C297 C317 1.449 . S
C298 C297 1.258 . S
C298 C299 1.477 . S
C298 H318 0.931 . S
C299 C295 1.460 . S
C299 C298 1.477 . S
C299 H319 0.930 1_565 S
C300 N296 1.362 . S
C300 C297 1.431 . S
C300 C310 1.476 . S
H301 C295 0.929 . S
C302 O293 1.250 . S
C302 O294 1.258 . S
O303 Mn288 2.162 . S
O303 C291 1.281 . S
O304 Mn288 2.297 . S
O304 C291 1.236 . S
N305 Mn289 2.282 . S
N305 C306 1.328 . S
N305 C310 1.318 . S
C306 N305 1.328 . S
C306 C307 1.457 . S
C306 H311 0.929 . S
C307 C306 1.457 . S
C307 C308 1.291 . S
C307 H320 0.931 . S
C308 C307 1.291 . S
C308 C309 1.373 . S
C308 H321 0.929 . S
C309 C308 1.373 . S
C309 C310 1.396 . S
C309 C316 1.403 . S
C310 C300 1.476 . S
C310 N305 1.318 . S
C310 C309 1.396 . S
H311 C306 0.929 . S
O312 Mn288 2.385 . S
O312 C290 1.234 . S
O313 Mn288 2.209 . S
O313 Mn289 2.215 . S
O313 C290 1.283 . S
O314 Mn288 2.094 . S
O314 C292 1.240 . S
O315 Mn289 2.117 . S
O315 C292 1.264 . S
C316 C309 1.403 . S
C316 C317 1.399 . S
C316 H322 0.929 . S
C317 C297 1.449 . S
C317 C316 1.399 . S
C317 H323 0.930 . S
H318 C298 0.931 . S
H319 C299 0.930 1_545 S
H320 C307 0.931 . S
H321 C308 0.929 . S
H322 C316 0.929 . S
H323 C317 0.930 . S
Mn324 O329 2.095 . S
Mn324 O339 2.162 . S
Mn324 O340 2.297 . S
Mn324 O348 2.385 . S
Mn324 O349 2.209 . S
Mn324 O350 2.094 . S
Mn325 O330 2.121 . S
Mn325 N332 2.257 . S
Mn325 N341 2.282 . S
Mn325 O349 2.215 . S
Mn325 O351 2.117 . S
C326 O348 1.234 . S
C326 O349 1.283 . S
C327 O339 1.281 . S
C327 O340 1.236 . S
C328 O350 1.240 . S
C328 O351 1.264 . S
O329 Mn324 2.095 . S
O329 C338 1.250 . S
O330 Mn325 2.121 . S
O330 C338 1.258 . S
C331 N332 1.326 . S
C331 C335 1.460 . S
C331 H337 0.929 . S
N332 Mn325 2.257 . S
N332 C331 1.326 . S
N332 C336 1.362 . S
C333 C334 1.258 . S
C333 C336 1.431 . S
C333 C353 1.449 . S
C334 C333 1.258 . S
C334 C335 1.477 . S
C334 H354 0.931 . S
C335 C331 1.460 . S
C335 C334 1.477 . S
C335 H355 0.930 1_545 S
C336 N332 1.362 . S
C336 C333 1.431 . S
C336 C346 1.476 . S
H337 C331 0.929 . S
C338 O329 1.250 . S
C338 O330 1.258 . S
O339 Mn324 2.162 . S
O339 C327 1.281 . S
O340 Mn324 2.297 . S
O340 C327 1.236 . S
N341 Mn325 2.282 . S
N341 C342 1.328 . S
N341 C346 1.318 . S
C342 N341 1.328 . S
C342 C343 1.457 . S
C342 H347 0.929 . S
C343 C342 1.457 . S
C343 C344 1.291 . S
C343 H356 0.931 . S
C344 C343 1.291 . S
C344 C345 1.373 . S
C344 H357 0.929 . S
C345 C344 1.373 . S
C345 C346 1.396 . S
C345 C352 1.403 . S
C346 C336 1.476 . S
C346 N341 1.318 . S
C346 C345 1.396 . S
H347 C342 0.929 . S
O348 Mn324 2.385 . S
O348 C326 1.234 . S
O349 Mn324 2.209 . S
O349 Mn325 2.215 . S
O349 C326 1.283 . S
O350 Mn324 2.094 . S
O350 C328 1.240 . S
O351 Mn325 2.117 . S
O351 C328 1.264 . S
C352 C345 1.403 . S
C352 C353 1.399 . S
C352 H358 0.929 . S
C353 C333 1.449 . S
C353 C352 1.399 . S
C353 H359 0.930 . S
H354 C334 0.931 . S
H355 C335 0.930 1_565 S
H356 C343 0.931 . S
H357 C344 0.929 . S
H358 C352 0.929 . S
H359 C353 0.930 . S
Mn360 O365 2.095 . S
Mn360 O375 2.162 . S
Mn360 O376 2.297 . S
Mn360 O384 2.385 . S
Mn360 O385 2.209 . S
Mn360 O386 2.094 . S
Mn361 O366 2.121 . S
Mn361 N368 2.257 . S
Mn361 N377 2.282 . S
Mn361 O385 2.215 . S
Mn361 O387 2.117 . S
C362 O384 1.234 . S
C362 O385 1.283 . S
C363 O375 1.281 . S
C363 O376 1.236 . S
C364 O386 1.240 . S
C364 O387 1.264 . S
O365 Mn360 2.095 . S
O365 C374 1.250 . S
O366 Mn361 2.121 . S
O366 C374 1.258 . S
C367 N368 1.326 . S
C367 C371 1.460 . S
C367 H373 0.929 . S
N368 Mn361 2.257 . S
N368 C367 1.326 . S
N368 C372 1.362 . S
C369 C370 1.258 . S
C369 C372 1.431 . S
C369 C389 1.449 . S
C370 C369 1.258 . S
C370 C371 1.477 . S
C370 H390 0.931 . S
C371 C367 1.460 . S
C371 C370 1.477 . S
C371 H391 0.930 1_545 S
C372 N368 1.362 . S
C372 C369 1.431 . S
C372 C382 1.476 . S
H373 C367 0.929 . S
C374 O365 1.250 . S
C374 O366 1.258 . S
O375 Mn360 2.162 . S
O375 C363 1.281 . S
O376 Mn360 2.297 . S
O376 C363 1.236 . S
N377 Mn361 2.282 . S
N377 C378 1.328 . S
N377 C382 1.318 . S
C378 N377 1.328 . S
C378 C379 1.457 . S
C378 H383 0.929 . S
C379 C378 1.457 . S
C379 C380 1.291 . S
C379 H392 0.931 . S
C380 C379 1.291 . S
C380 C381 1.373 . S
C380 H393 0.929 . S
C381 C380 1.373 . S
C381 C382 1.396 . S
C381 C388 1.403 . S
C382 C372 1.476 . S
C382 N377 1.318 . S
C382 C381 1.396 . S
H383 C378 0.929 . S
O384 Mn360 2.385 . S
O384 C362 1.234 . S
O385 Mn360 2.209 . S
O385 Mn361 2.215 . S
O385 C362 1.283 . S
O386 Mn360 2.094 . S
O386 C364 1.240 . S
O387 Mn361 2.117 . S
O387 C364 1.264 . S
C388 C381 1.403 . S
C388 C389 1.399 . S
C388 H394 0.929 . S
C389 C369 1.449 . S
C389 C388 1.399 . S
C389 H395 0.930 . S
H390 C370 0.931 . S
H391 C371 0.930 1_565 S
H392 C379 0.931 . S
H393 C380 0.929 . S
H394 C388 0.929 . S
H395 C389 0.930 . S
Mn396 O401 2.095 . S
Mn396 O411 2.162 . S
Mn396 O412 2.297 . S
Mn396 O420 2.385 . S
Mn396 O421 2.209 . S
Mn396 O422 2.094 . S
Mn397 O402 2.121 . S
Mn397 N404 2.257 . S
Mn397 N413 2.282 . S
Mn397 O421 2.215 . S
Mn397 O423 2.117 . S
C398 O420 1.234 . S
C398 O421 1.283 . S
C399 O411 1.281 . S
C399 O412 1.236 . S
C400 O422 1.240 . S
C400 O423 1.264 . S
O401 Mn396 2.095 . S
O401 C410 1.250 . S
O402 Mn397 2.121 . S
O402 C410 1.258 . S
C403 N404 1.326 . S
C403 C407 1.460 . S
C403 H409 0.929 . S
N404 Mn397 2.257 . S
N404 C403 1.326 . S
N404 C408 1.362 . S
C405 C406 1.258 . S
C405 C408 1.431 . S
C405 C425 1.449 . S
C406 C405 1.258 . S
C406 C407 1.477 . S
C406 H426 0.931 . S
C407 C403 1.460 . S
C407 C406 1.477 . S
C407 H427 0.930 1_565 S
C408 N404 1.362 . S
C408 C405 1.431 . S
C408 C418 1.476 . S
H409 C403 0.929 . S
C410 O401 1.250 . S
C410 O402 1.258 . S
O411 Mn396 2.162 . S
O411 C399 1.281 . S
O412 Mn396 2.297 . S
O412 C399 1.236 . S
N413 Mn397 2.282 . S
N413 C414 1.328 . S
N413 C418 1.318 . S
C414 N413 1.328 . S
C414 C415 1.457 . S
C414 H419 0.929 . S
C415 C414 1.457 . S
C415 C416 1.291 . S
C415 H428 0.931 . S
C416 C415 1.291 . S
C416 C417 1.373 . S
C416 H429 0.929 . S
C417 C416 1.373 . S
C417 C418 1.396 . S
C417 C424 1.403 . S
C418 C408 1.476 . S
C418 N413 1.318 . S
C418 C417 1.396 . S
H419 C414 0.929 . S
O420 Mn396 2.385 . S
O420 C398 1.234 . S
O421 Mn396 2.209 . S
O421 Mn397 2.215 . S
O421 C398 1.283 . S
O422 Mn396 2.094 . S
O422 C400 1.240 . S
O423 Mn397 2.117 . S
O423 C400 1.264 . S
C424 C417 1.403 . S
C424 C425 1.399 . S
C424 H430 0.929 . S
C425 C405 1.449 . S
C425 C424 1.399 . S
C425 H431 0.930 . S
H426 C406 0.931 . S
H427 C407 0.930 1_545 S
H428 C415 0.931 . S
H429 C416 0.929 . S
H430 C424 0.929 . S
H431 C425 0.930 . S
Mn432 O437 2.095 . S
Mn432 O447 2.162 . S
Mn432 O448 2.297 . S
Mn432 O456 2.385 . S
Mn432 O457 2.209 . S
Mn432 O458 2.094 . S
Mn433 O438 2.121 . S
Mn433 N440 2.257 . S
Mn433 N449 2.282 . S
Mn433 O457 2.215 . S
Mn433 O459 2.117 . S
C434 O456 1.234 . S
C434 O457 1.283 . S
C435 O447 1.281 . S
C435 O448 1.236 . S
C436 O458 1.240 . S
C436 O459 1.264 . S
O437 Mn432 2.095 . S
O437 C446 1.250 . S
O438 Mn433 2.121 . S
O438 C446 1.258 . S
C439 N440 1.326 . S
C439 C443 1.460 1_545 S
C439 H445 0.929 . S
N440 Mn433 2.257 . S
N440 C439 1.326 . S
N440 C444 1.362 . S
C441 C442 1.258 1_545 S
C441 C444 1.431 . S
C441 C461 1.449 . S
C442 C441 1.258 1_565 S
C442 C443 1.477 . S
C442 H462 0.931 . S
C443 C439 1.460 1_565 S
C443 C442 1.477 . S
C443 H463 0.930 . S
C444 N440 1.362 . S
C444 C441 1.431 . S
C444 C454 1.476 . S
H445 C439 0.929 . S
C446 O437 1.250 . S
C446 O438 1.258 . S
O447 Mn432 2.162 . S
O447 C435 1.281 . S
O448 Mn432 2.297 . S
O448 C435 1.236 . S
N449 Mn433 2.282 . S
N449 C450 1.328 . S
N449 C454 1.318 . S
C450 N449 1.328 . S
C450 C451 1.457 . S
C450 H455 0.929 . S
C451 C450 1.457 . S
C451 C452 1.291 . S
C451 H464 0.931 . S
C452 C451 1.291 . S
C452 C453 1.373 . S
C452 H465 0.929 . S
C453 C452 1.373 . S
C453 C454 1.396 . S
C453 C460 1.403 . S
C454 C444 1.476 . S
C454 N449 1.318 . S
C454 C453 1.396 . S
H455 C450 0.929 . S
O456 Mn432 2.385 . S
O456 C434 1.234 . S
O457 Mn432 2.209 . S
O457 Mn433 2.215 . S
O457 C434 1.283 . S
O458 Mn432 2.094 . S
O458 C436 1.240 . S
O459 Mn433 2.117 . S
O459 C436 1.264 . S
C460 C453 1.403 . S
C460 C461 1.399 . S
C460 H466 0.929 . S
C461 C441 1.449 . S
C461 C460 1.399 . S
C461 H467 0.930 . S
H462 C442 0.931 . S
H463 C443 0.930 . S
H464 C451 0.931 . S
H465 C452 0.929 . S
H466 C460 0.929 . S
H467 C461 0.930 . S
Mn468 O473 2.095 . S
Mn468 O483 2.162 . S
Mn468 O484 2.297 . S
Mn468 O492 2.385 . S
Mn468 O493 2.209 . S
Mn468 O494 2.094 . S
Mn469 O474 2.121 . S
Mn469 N476 2.257 . S
Mn469 N485 2.282 . S
Mn469 O493 2.215 . S
Mn469 O495 2.117 . S
C470 O492 1.234 . S
C470 O493 1.283 . S
C471 O483 1.281 . S
C471 O484 1.236 . S
C472 O494 1.240 . S
C472 O495 1.264 . S
O473 Mn468 2.095 . S
O473 C482 1.250 . S
O474 Mn469 2.121 . S
O474 C482 1.258 . S
C475 N476 1.326 . S
C475 C479 1.460 1_565 S
C475 H481 0.929 . S
N476 Mn469 2.257 . S
N476 C475 1.326 . S
N476 C480 1.362 . S
C477 C478 1.258 1_565 S
C477 C480 1.431 . S
C477 C497 1.449 . S
C478 C477 1.258 1_545 S
C478 C479 1.477 . S
C478 H498 0.931 . S
C479 C475 1.460 1_545 S
C479 C478 1.477 . S
C479 H499 0.930 . S
C480 N476 1.362 . S
C480 C477 1.431 . S
C480 C490 1.476 . S
H481 C475 0.929 . S
C482 O473 1.250 . S
C482 O474 1.258 . S
O483 Mn468 2.162 . S
O483 C471 1.281 . S
O484 Mn468 2.297 . S
O484 C471 1.236 . S
N485 Mn469 2.282 . S
N485 C486 1.328 . S
N485 C490 1.318 . S
C486 N485 1.328 . S
C486 C487 1.457 . S
C486 H491 0.929 . S
C487 C486 1.457 . S
C487 C488 1.291 . S
C487 H500 0.931 . S
C488 C487 1.291 . S
C488 C489 1.373 . S
C488 H501 0.929 . S
C489 C488 1.373 . S
C489 C490 1.396 . S
C489 C496 1.403 . S
C490 C480 1.476 . S
C490 N485 1.318 . S
C490 C489 1.396 . S
H491 C486 0.929 . S
O492 Mn468 2.385 . S
O492 C470 1.234 . S
O493 Mn468 2.209 . S
O493 Mn469 2.215 . S
O493 C470 1.283 . S
O494 Mn468 2.094 . S
O494 C472 1.240 . S
O495 Mn469 2.117 . S
O495 C472 1.264 . S
C496 C489 1.403 . S
C496 C497 1.399 . S
C496 H502 0.929 . S
C497 C477 1.449 . S
C497 C496 1.399 . S
C497 H503 0.930 . S
H498 C478 0.931 . S
H499 C479 0.930 . S
H500 C487 0.931 . S
H501 C488 0.929 . S
H502 C496 0.929 . S
H503 C497 0.930 . S
Mn504 O509 2.095 . S
Mn504 O519 2.162 . S
Mn504 O520 2.297 . S
Mn504 O528 2.385 . S
Mn504 O529 2.209 . S
Mn504 O530 2.094 . S
Mn505 O510 2.121 . S
Mn505 N512 2.257 . S
Mn505 N521 2.282 . S
Mn505 O529 2.215 . S
Mn505 O531 2.117 . S
C506 O528 1.234 . S
C506 O529 1.283 . S
C507 O519 1.281 . S
C507 O520 1.236 . S
C508 O530 1.240 . S
C508 O531 1.264 . S
O509 Mn504 2.095 . S
O509 C518 1.250 . S
O510 Mn505 2.121 . S
O510 C518 1.258 . S
C511 N512 1.326 . S
C511 C515 1.460 1_565 S
C511 H517 0.929 . S
N512 Mn505 2.257 . S
N512 C511 1.326 . S
N512 C516 1.362 . S
C513 C514 1.258 1_565 S
C513 C516 1.431 . S
C513 C533 1.449 . S
C514 C513 1.258 1_545 S
C514 C515 1.477 . S
C514 H534 0.931 . S
C515 C511 1.460 1_545 S
C515 C514 1.477 . S
C515 H535 0.930 . S
C516 N512 1.362 . S
C516 C513 1.431 . S
C516 C526 1.476 . S
H517 C511 0.929 . S
C518 O509 1.250 . S
C518 O510 1.258 . S
O519 Mn504 2.162 . S
O519 C507 1.281 . S
O520 Mn504 2.297 . S
O520 C507 1.236 . S
N521 Mn505 2.282 . S
N521 C522 1.328 . S
N521 C526 1.318 . S
C522 N521 1.328 . S
C522 C523 1.457 . S
C522 H527 0.929 . S
C523 C522 1.457 . S
C523 C524 1.291 . S
C523 H536 0.931 . S
C524 C523 1.291 . S
C524 C525 1.373 . S
C524 H537 0.929 . S
C525 C524 1.373 . S
C525 C526 1.396 . S
C525 C532 1.403 . S
C526 C516 1.476 . S
C526 N521 1.318 . S
C526 C525 1.396 . S
H527 C522 0.929 . S
O528 Mn504 2.385 . S
O528 C506 1.234 . S
O529 Mn504 2.209 . S
O529 Mn505 2.215 . S
O529 C506 1.283 . S
O530 Mn504 2.094 . S
O530 C508 1.240 . S
O531 Mn505 2.117 . S
O531 C508 1.264 . S
C532 C525 1.403 . S
C532 C533 1.399 . S
C532 H538 0.929 . S
C533 C513 1.449 . S
C533 C532 1.399 . S
C533 H539 0.930 . S
H534 C514 0.931 . S
H535 C515 0.930 . S
H536 C523 0.931 . S
H537 C524 0.929 . S
H538 C532 0.929 . S
H539 C533 0.930 . S
Mn540 O545 2.095 . S
Mn540 O555 2.162 . S
Mn540 O556 2.297 . S
Mn540 O564 2.385 . S
Mn540 O565 2.209 . S
Mn540 O566 2.094 . S
Mn541 O546 2.121 . S
Mn541 N548 2.257 . S
Mn541 N557 2.282 . S
Mn541 O565 2.215 . S
Mn541 O567 2.117 . S
C542 O564 1.234 . S
C542 O565 1.283 . S
C543 O555 1.281 . S
C543 O556 1.236 . S
C544 O566 1.240 . S
C544 O567 1.264 . S
O545 Mn540 2.095 . S
O545 C554 1.250 . S
O546 Mn541 2.121 . S
O546 C554 1.258 . S
C547 N548 1.326 . S
C547 C551 1.460 1_545 S
C547 H553 0.929 . S
N548 Mn541 2.257 . S
N548 C547 1.326 . S
N548 C552 1.362 . S
C549 C550 1.258 1_545 S
C549 C552 1.431 . S
C549 C569 1.449 . S
C550 C549 1.258 1_565 S
C550 C551 1.477 . S
C550 H570 0.931 . S
C551 C547 1.460 1_565 S
C551 C550 1.477 . S
C551 H571 0.930 . S
C552 N548 1.362 . S
C552 C549 1.431 . S
C552 C562 1.476 . S
H553 C547 0.929 . S
C554 O545 1.250 . S
C554 O546 1.258 . S
O555 Mn540 2.162 . S
O555 C543 1.281 . S
O556 Mn540 2.297 . S
O556 C543 1.236 . S
N557 Mn541 2.282 . S
N557 C558 1.328 . S
N557 C562 1.318 . S
C558 N557 1.328 . S
C558 C559 1.457 . S
C558 H563 0.929 . S
C559 C558 1.457 . S
C559 C560 1.291 . S
C559 H572 0.931 . S
C560 C559 1.291 . S
C560 C561 1.373 . S
C560 H573 0.929 . S
C561 C560 1.373 . S
C561 C562 1.396 . S
C561 C568 1.403 . S
C562 C552 1.476 . S
C562 N557 1.318 . S
C562 C561 1.396 . S
H563 C558 0.929 . S
O564 Mn540 2.385 . S
O564 C542 1.234 . S
O565 Mn540 2.209 . S
O565 Mn541 2.215 . S
O565 C542 1.283 . S
O566 Mn540 2.094 . S
O566 C544 1.240 . S
O567 Mn541 2.117 . S
O567 C544 1.264 . S
C568 C561 1.403 . S
C568 C569 1.399 . S
C568 H574 0.929 . S
C569 C549 1.449 . S
C569 C568 1.399 . S
C569 H575 0.930 . S
H570 C550 0.931 . S
H571 C551 0.930 . S
H572 C559 0.931 . S
H573 C560 0.929 . S
H574 C568 0.929 . S
H575 C569 0.930 . S
C576 C577 1.369 . S
C576 C578 1.419 1_455 S
C576 H580 0.930 . S
C577 C576 1.369 . S
C577 C586 1.429 . S
C578 C576 1.419 1_655 S
C578 C579 1.363 . S
C578 H581 0.929 . S
C579 C578 1.363 . S
C579 C585 1.428 . S
H580 C576 0.930 . S
H581 C578 0.929 . S
S582 N583 1.613 . S
S582 N584 1.610 1_455 S
N583 S582 1.613 . S
N583 C586 1.350 . S
N584 S582 1.610 1_655 S
N584 C585 1.351 . S
C585 C579 1.428 . S
C585 N584 1.351 . S
C585 C586 1.434 1_655 S
C586 C577 1.429 . S
C586 N583 1.350 . S
C586 C585 1.434 1_455 S
C587 C588 1.369 . S
C587 C589 1.419 1_655 S
C587 H591 0.930 . S
C588 C587 1.369 . S
C588 C597 1.429 . S
C589 C587 1.419 1_455 S
C589 C590 1.363 . S
C589 H592 0.929 . S
C590 C589 1.363 . S
C590 C596 1.428 . S
H591 C587 0.930 . S
H592 C589 0.929 . S
S593 N594 1.613 . S
S593 N595 1.610 1_655 S
N594 S593 1.613 . S
N594 C597 1.350 . S
N595 S593 1.610 1_455 S
N595 C596 1.351 . S
C596 C590 1.428 . S
C596 N595 1.351 . S
C596 C597 1.434 1_455 S
C597 C588 1.429 . S
C597 N594 1.350 . S
C597 C596 1.434 1_655 S
C598 C599 1.369 . S
C598 C600 1.419 1_655 S
C598 H602 0.930 . S
C599 C598 1.369 . S
C599 C608 1.429 . S
C600 C598 1.419 1_455 S
C600 C601 1.363 . S
C600 H603 0.929 . S
C601 C600 1.363 . S
C601 C607 1.428 . S
H602 C598 0.930 . S
H603 C600 0.929 . S
S604 N605 1.613 1_455 S
S604 N606 1.610 . S
N605 S604 1.613 1_655 S
N605 C608 1.350 . S
N606 S604 1.610 . S
N606 C607 1.351 . S
C607 C601 1.428 . S
C607 N606 1.351 . S
C607 C608 1.434 1_455 S
C608 C599 1.429 . S
C608 N605 1.350 . S
C608 C607 1.434 1_655 S
C609 C610 1.369 . S
C609 C611 1.419 1_455 S
C609 H613 0.930 . S
C610 C609 1.369 . S
C610 C619 1.429 . S
C611 C609 1.419 1_655 S
C611 C612 1.363 . S
C611 H614 0.929 . S
C612 C611 1.363 . S
C612 C618 1.428 . S
H613 C609 0.930 . S
H614 C611 0.929 . S
S615 N616 1.613 1_655 S
S615 N617 1.610 . S
N616 S615 1.613 1_455 S
N616 C619 1.350 . S
N617 S615 1.610 . S
N617 C618 1.351 . S
C618 C612 1.428 . S
C618 N617 1.351 . S
C618 C619 1.434 1_655 S
C619 C610 1.429 . S
C619 N616 1.350 . S
C619 C618 1.434 1_455 S
C620 C621 1.369 . S
C620 C622 1.419 . S
C620 H624 0.930 . S
C621 C620 1.369 . S
C621 C630 1.429 . S
C622 C620 1.419 . S
C622 C623 1.363 . S
C622 H625 0.929 . S
C623 C622 1.363 . S
C623 C629 1.428 . S
H624 C620 0.930 . S
H625 C622 0.929 . S
S626 N627 1.613 . S
S626 N628 1.610 . S
N627 S626 1.613 . S
N627 C630 1.350 . S
N628 S626 1.610 . S
N628 C629 1.351 . S
C629 C623 1.428 . S
C629 N628 1.351 . S
C629 C630 1.434 . S
C630 C621 1.429 . S
C630 N627 1.350 . S
C630 C629 1.434 . S
C631 C632 1.369 . S
C631 C633 1.419 . S
C631 H635 0.930 . S
C632 C631 1.369 . S
C632 C641 1.429 . S
C633 C631 1.419 . S
C633 C634 1.363 . S
C633 H636 0.929 . S
C634 C633 1.363 . S
C634 C640 1.428 . S
H635 C631 0.930 . S
H636 C633 0.929 . S
S637 N638 1.613 . S
S637 N639 1.610 . S
N638 S637 1.613 . S
N638 C641 1.350 . S
N639 S637 1.610 . S
N639 C640 1.351 . S
C640 C634 1.428 . S
C640 N639 1.351 . S
C640 C641 1.434 . S
C641 C632 1.429 . S
C641 N638 1.350 . S
C641 C640 1.434 . S
C642 C643 1.369 . S
C642 C644 1.419 . S
C642 H646 0.930 . S
C643 C642 1.369 . S
C643 C652 1.429 . S
C644 C642 1.419 . S
C644 C645 1.363 . S
C644 H647 0.929 . S
C645 C644 1.363 . S
C645 C651 1.428 . S
H646 C642 0.930 . S
H647 C644 0.929 . S
S648 N649 1.613 . S
S648 N650 1.610 . S
N649 S648 1.613 . S
N649 C652 1.350 . S
N650 S648 1.610 . S
N650 C651 1.351 . S
C651 C645 1.428 . S
C651 N650 1.351 . S
C651 C652 1.434 . S
C652 C643 1.429 . S
C652 N649 1.350 . S
C652 C651 1.434 . S
C653 C654 1.369 . S
C653 C655 1.419 . S
C653 H657 0.930 . S
C654 C653 1.369 . S
C654 C663 1.429 . S
C655 C653 1.419 . S
C655 C656 1.363 . S
C655 H658 0.929 . S
C656 C655 1.363 . S
C656 C662 1.428 . S
H657 C653 0.930 . S
H658 C655 0.929 . S
S659 N660 1.613 . S
S659 N661 1.610 . S
N660 S659 1.613 . S
N660 C663 1.350 . S
N661 S659 1.610 . S
N661 C662 1.351 . S
C662 C656 1.428 . S
C662 N661 1.351 . S
C662 C663 1.434 . S
C663 C654 1.429 . S
C663 N660 1.350 . S
C663 C662 1.434 . S
C664 C665 1.369 . S
C664 C666 1.419 . S
C664 H668 0.930 . S
C665 C664 1.369 . S
C665 C674 1.429 . S
C666 C664 1.419 . S
C666 C667 1.363 . S
C666 H669 0.929 . S
C667 C666 1.363 . S
C667 C673 1.428 . S
H668 C664 0.930 . S
H669 C666 0.929 . S
S670 N671 1.613 . S
S670 N672 1.610 . S
N671 S670 1.613 . S
N671 C674 1.350 . S
N672 S670 1.610 . S
N672 C673 1.351 . S
C673 C667 1.428 . S
C673 N672 1.351 . S
C673 C674 1.434 . S
C674 C665 1.429 . S
C674 N671 1.350 . S
C674 C673 1.434 . S
C675 C676 1.369 . S
C675 C677 1.419 . S
C675 H679 0.930 . S
C676 C675 1.369 . S
C676 C685 1.429 . S
C677 C675 1.419 . S
C677 C678 1.363 . S
C677 H680 0.929 . S
C678 C677 1.363 . S
C678 C684 1.428 . S
H679 C675 0.930 . S
H680 C677 0.929 . S
S681 N682 1.613 . S
S681 N683 1.610 . S
N682 S681 1.613 . S
N682 C685 1.350 . S
N683 S681 1.610 . S
N683 C684 1.351 . S
C684 C678 1.428 . S
C684 N683 1.351 . S
C684 C685 1.434 . S
C685 C676 1.429 . S
C685 N682 1.350 . S
C685 C684 1.434 . S
C686 C687 1.369 . S
C686 C688 1.419 . S
C686 H690 0.930 . S
C687 C686 1.369 . S
C687 C696 1.429 . S
C688 C686 1.419 . S
C688 C689 1.363 . S
C688 H691 0.929 . S
C689 C688 1.363 . S
C689 C695 1.428 . S
H690 C686 0.930 . S
H691 C688 0.929 . S
S692 N693 1.613 . S
S692 N694 1.610 . S
N693 S692 1.613 . S
N693 C696 1.350 . S
N694 S692 1.610 . S
N694 C695 1.351 . S
C695 C689 1.428 . S
C695 N694 1.351 . S
C695 C696 1.434 . S
C696 C687 1.429 . S
C696 N693 1.350 . S
C696 C695 1.434 . S
C697 C698 1.369 . S
C697 C699 1.419 . S
C697 H701 0.930 . S
C698 C697 1.369 . S
C698 C707 1.429 . S
C699 C697 1.419 . S
C699 C700 1.363 . S
C699 H702 0.929 . S
C700 C699 1.363 . S
C700 C706 1.428 . S
H701 C697 0.930 . S
H702 C699 0.929 . S
S703 N704 1.613 . S
S703 N705 1.610 . S
N704 S703 1.613 . S
N704 C707 1.350 . S
N705 S703 1.610 . S
N705 C706 1.351 . S
C706 C700 1.428 . S
C706 N705 1.351 . S
C706 C707 1.434 . S
C707 C698 1.429 . S
C707 N704 1.350 . S
C707 C706 1.434 . S
C708 C709 1.369 . S
C708 C710 1.419 . S
C708 H712 0.930 . S
C709 C708 1.369 . S
C709 C718 1.429 . S
C710 C708 1.419 . S
C710 C711 1.363 . S
C710 H713 0.929 . S
C711 C710 1.363 . S
C711 C717 1.428 . S
H712 C708 0.930 . S
H713 C710 0.929 . S
S714 N715 1.613 . S
S714 N716 1.610 . S
N715 S714 1.613 . S
N715 C718 1.350 . S
N716 S714 1.610 . S
N716 C717 1.351 . S
C717 C711 1.428 . S
C717 N716 1.351 . S
C717 C718 1.434 . S
C718 C709 1.429 . S
C718 N715 1.350 . S
C718 C717 1.434 . S
C719 C720 1.369 . S
C719 C721 1.419 . S
C719 H723 0.930 . S
C720 C719 1.369 . S
C720 C729 1.429 . S
C721 C719 1.419 . S
C721 C722 1.363 . S
C721 H724 0.929 . S
C722 C721 1.363 . S
C722 C728 1.428 . S
H723 C719 0.930 . S
H724 C721 0.929 . S
S725 N726 1.613 . S
S725 N727 1.610 . S
N726 S725 1.613 . S
N726 C729 1.350 . S
N727 S725 1.610 . S
N727 C728 1.351 . S
C728 C722 1.428 . S
C728 N727 1.351 . S
C728 C729 1.434 . S
C729 C720 1.429 . S
C729 N726 1.350 . S
C729 C728 1.434 . S
C730 C731 1.369 . S
C730 C732 1.419 . S
C730 H734 0.930 . S
C731 C730 1.369 . S
C731 C740 1.429 . S
C732 C730 1.419 . S
C732 C733 1.363 . S
C732 H735 0.929 . S
C733 C732 1.363 . S
C733 C739 1.428 . S
H734 C730 0.930 . S
H735 C732 0.929 . S
S736 N737 1.613 . S
S736 N738 1.610 . S
N737 S736 1.613 . S
N737 C740 1.350 . S
N738 S736 1.610 . S
N738 C739 1.351 . S
C739 C733 1.428 . S
C739 N738 1.351 . S
C739 C740 1.434 . S
C740 C731 1.429 . S
C740 N737 1.350 . S
C740 C739 1.434 . S
C741 C742 1.369 . S
C741 C743 1.419 . S
C741 H745 0.930 . S
C742 C741 1.369 . S
C742 C751 1.429 . S
C743 C741 1.419 . S
C743 C744 1.363 . S
C743 H746 0.929 . S
C744 C743 1.363 . S
C744 C750 1.428 . S
H745 C741 0.930 . S
H746 C743 0.929 . S
S747 N748 1.613 . S
S747 N749 1.610 . S
N748 S747 1.613 . S
N748 C751 1.350 . S
N749 S747 1.610 . S
N749 C750 1.351 . S
C750 C744 1.428 . S
C750 N749 1.351 . S
C750 C751 1.434 . S
C751 C742 1.429 . S
C751 N748 1.350 . S
C751 C750 1.434 . S
C752 C753 1.369 . S
C752 C754 1.419 . S
C752 H756 0.930 . S
C753 C752 1.369 . S
C753 C762 1.429 1_556 S
C754 C752 1.419 . S
C754 C755 1.363 1_556 S
C754 H757 0.929 . S
C755 C754 1.363 1_554 S
C755 C761 1.428 . S
H756 C752 0.930 . S
H757 C754 0.929 . S
S758 N759 1.613 . S
S758 N760 1.610 . S
N759 S758 1.613 . S
N759 C762 1.350 . S
N760 S758 1.610 . S
N760 C761 1.351 . S
C761 C755 1.428 . S
C761 N760 1.351 . S
C761 C762 1.434 . S
C762 C753 1.429 1_554 S
C762 N759 1.350 . S
C762 C761 1.434 . S
C763 C764 1.369 . S
C763 C765 1.419 . S
C763 H767 0.930 . S
C764 C763 1.369 . S
C764 C773 1.429 . S
C765 C763 1.419 . S
C765 C766 1.363 . S
C765 H768 0.929 . S
C766 C765 1.363 . S
C766 C772 1.428 . S
H767 C763 0.930 . S
H768 C765 0.929 . S
S769 N770 1.613 . S
S769 N771 1.610 . S
N770 S769 1.613 . S
N770 C773 1.350 . S
N771 S769 1.610 . S
N771 C772 1.351 . S
C772 C766 1.428 . S
C772 N771 1.351 . S
C772 C773 1.434 . S
C773 C764 1.429 . S
C773 N770 1.350 . S
C773 C772 1.434 . S
C774 C775 1.369 . S
C774 C776 1.419 1_554 S
C774 H778 0.930 . S
C775 C774 1.369 . S
C775 C784 1.429 . S
C776 C774 1.419 1_556 S
C776 C777 1.363 . S
C776 H779 0.929 . S
C777 C776 1.363 . S
C777 C783 1.428 . S
H778 C774 0.930 . S
H779 C776 0.929 . S
S780 N781 1.613 1_556 S
S780 N782 1.610 . S
N781 S780 1.613 1_554 S
N781 C784 1.350 . S
N782 S780 1.610 . S
N782 C783 1.351 . S
C783 C777 1.428 . S
C783 N782 1.351 . S
C783 C784 1.434 1_556 S
C784 C775 1.429 . S
C784 N781 1.350 . S
C784 C783 1.434 1_554 S
C785 C786 1.369 . S
C785 C787 1.419 . S
C785 H789 0.930 . S
C786 C785 1.369 . S
C786 C795 1.429 . S
C787 C785 1.419 . S
C787 C788 1.363 . S
C787 H790 0.929 . S
C788 C787 1.363 . S
C788 C794 1.428 . S
H789 C785 0.930 . S
H790 C787 0.929 . S
S791 N792 1.613 . S
S791 N793 1.610 . S
N792 S791 1.613 . S
N792 C795 1.350 . S
N793 S791 1.610 . S
N793 C794 1.351 . S
C794 C788 1.428 . S
C794 N793 1.351 . S
C794 C795 1.434 . S
C795 C786 1.429 . S
C795 N792 1.350 . S
C795 C794 1.434 . S
C796 C797 1.369 1_556 S
C796 C798 1.419 . S
C796 H800 0.930 . S
C797 C796 1.369 1_554 S
C797 C806 1.429 . S
C798 C796 1.419 . S
C798 C799 1.363 . S
C798 H801 0.929 . S
C799 C798 1.363 . S
C799 C805 1.428 1_556 S
H800 C796 0.930 . S
H801 C798 0.929 . S
S802 N803 1.613 . S
S802 N804 1.610 . S
N803 S802 1.613 . S
N803 C806 1.350 . S
N804 S802 1.610 . S
N804 C805 1.351 . S
C805 C799 1.428 1_554 S
C805 N804 1.351 . S
C805 C806 1.434 . S
C806 C797 1.429 . S
C806 N803 1.350 . S
C806 C805 1.434 . S
C807 C808 1.369 . S
C807 C809 1.419 . S
C807 H811 0.930 . S
C808 C807 1.369 . S
C808 C817 1.429 . S
C809 C807 1.419 . S
C809 C810 1.363 . S
C809 H812 0.929 . S
C810 C809 1.363 . S
C810 C816 1.428 . S
H811 C807 0.930 . S
H812 C809 0.929 . S
S813 N814 1.613 . S
S813 N815 1.610 . S
N814 S813 1.613 . S
N814 C817 1.350 . S
N815 S813 1.610 . S
N815 C816 1.351 . S
C816 C810 1.428 . S
C816 N815 1.351 . S
C816 C817 1.434 . S
C817 C808 1.429 . S
C817 N814 1.350 . S
C817 C816 1.434 . S
C818 C819 1.369 . S
C818 C820 1.419 1_554 S
C818 H822 0.930 . S
C819 C818 1.369 . S
C819 C828 1.429 . S
C820 C818 1.419 1_556 S
C820 C821 1.363 . S
C820 H823 0.929 . S
C821 C820 1.363 . S
C821 C827 1.428 . S
H822 C818 0.930 . S
H823 C820 0.929 . S
S824 N825 1.613 1_556 S
S824 N826 1.610 . S
N825 S824 1.613 1_554 S
N825 C828 1.350 . S
N826 S824 1.610 . S
N826 C827 1.351 . S
C827 C821 1.428 . S
C827 N826 1.351 . S
C827 C828 1.434 1_556 S
C828 C819 1.429 . S
C828 N825 1.350 . S
C828 C827 1.434 1_554 S
C829 C830 1.369 . S
C829 C831 1.419 . S
C829 H833 0.930 . S
C830 C829 1.369 . S
C830 C839 1.429 . S
C831 C829 1.419 . S
C831 C832 1.363 . S
C831 H834 0.929 . S
C832 C831 1.363 . S
C832 C838 1.428 . S
H833 C829 0.930 . S
H834 C831 0.929 . S
S835 N836 1.613 . S
S835 N837 1.610 . S
N836 S835 1.613 . S
N836 C839 1.350 . S
N837 S835 1.610 . S
N837 C838 1.351 . S
C838 C832 1.428 . S
C838 N837 1.351 . S
C838 C839 1.434 . S
C839 C830 1.429 . S
C839 N836 1.350 . S
C839 C838 1.434 . S
C840 C841 1.369 1_554 S
C840 C842 1.419 . S
C840 H844 0.930 . S
C841 C840 1.369 1_556 S
C841 C850 1.429 . S
C842 C840 1.419 . S
C842 C843 1.363 . S
C842 H845 0.929 . S
C843 C842 1.363 . S
C843 C849 1.428 1_554 S
H844 C840 0.930 . S
H845 C842 0.929 . S
S846 N847 1.613 . S
S846 N848 1.610 . S
N847 S846 1.613 . S
N847 C850 1.350 . S
N848 S846 1.610 . S
N848 C849 1.351 . S
C849 C843 1.428 1_556 S
C849 N848 1.351 . S
C849 C850 1.434 . S
C850 C841 1.429 . S
C850 N847 1.350 . S
C850 C849 1.434 . S
C851 C852 1.369 . S
C851 C853 1.419 . S
C851 H855 0.930 . S
C852 C851 1.369 . S
C852 C861 1.429 . S
C853 C851 1.419 . S
C853 C854 1.363 . S
C853 H856 0.929 . S
C854 C853 1.363 . S
C854 C860 1.428 . S
H855 C851 0.930 . S
H856 C853 0.929 . S
S857 N858 1.613 . S
S857 N859 1.610 . S
N858 S857 1.613 . S
N858 C861 1.350 . S
N859 S857 1.610 . S
N859 C860 1.351 . S
C860 C854 1.428 . S
C860 N859 1.351 . S
C860 C861 1.434 . S
C861 C852 1.429 . S
C861 N858 1.350 . S
C861 C860 1.434 . S
C862 C863 1.369 . S
C862 C864 1.419 1_554 S
C862 H866 0.930 . S
C863 C862 1.369 . S
C863 C872 1.429 . S
C864 C862 1.419 1_556 S
C864 C865 1.363 . S
C864 H867 0.929 . S
C865 C864 1.363 . S
C865 C871 1.428 . S
H866 C862 0.930 . S
H867 C864 0.929 . S
S868 N869 1.619 . S
S868 N870 1.605 1_554 S
N869 S868 1.619 . S
N869 C872 1.350 . S
N870 S868 1.605 1_556 S
N870 C871 1.351 . S
C871 C865 1.428 . S
C871 N870 1.351 . S
C871 C872 1.434 1_556 S
C872 C863 1.429 . S
C872 N869 1.350 . S
C872 C871 1.434 1_554 S
C873 C874 1.369 . S
C873 C875 1.419 . S
C873 H877 0.930 . S
C874 C873 1.369 . S
C874 C883 1.429 . S
C875 C873 1.419 . S
C875 C876 1.363 . S
C875 H878 0.929 . S
C876 C875 1.363 . S
C876 C882 1.428 . S
H877 C873 0.930 . S
H878 C875 0.929 . S
S879 N880 1.613 . S
S879 N881 1.610 . S
N880 S879 1.613 . S
N880 C883 1.350 . S
N881 S879 1.610 . S
N881 C882 1.351 . S
C882 C876 1.428 . S
C882 N881 1.351 . S
C882 C883 1.434 . S
C883 C874 1.429 . S
C883 N880 1.350 . S
C883 C882 1.434 . S
C884 C885 1.369 1_554 S
C884 C886 1.419 1_545 S
C884 H888 0.930 . S
C885 C884 1.369 1_556 S
C885 C894 1.429 . S
C886 C884 1.419 1_565 S
C886 C887 1.363 . S
C886 H889 0.929 . S
C887 C886 1.363 . S
C887 C893 1.428 1_554 S
H888 C884 0.930 . S
H889 C886 0.929 . S
S890 N891 1.613 1_565 S
S890 N892 1.610 . S
N891 S890 1.613 1_545 S
N891 C894 1.350 . S
N892 S890 1.610 . S
N892 C893 1.351 . S
C893 C887 1.428 1_556 S
C893 N892 1.351 . S
C893 C894 1.434 1_565 S
C894 C885 1.429 . S
C894 N891 1.350 . S
C894 C893 1.434 1_545 S
C895 C896 1.369 . S
C895 C897 1.419 1_565 S
C895 H899 0.930 . S
C896 C895 1.369 . S
C896 C905 1.429 . S
C897 C895 1.419 1_545 S
C897 C898 1.363 . S
C897 H900 0.929 . S
C898 C897 1.363 . S
C898 C904 1.428 . S
H899 C895 0.930 . S
H900 C897 0.929 . S
S901 N902 1.613 . S
S901 N903 1.610 1_565 S
N902 S901 1.613 . S
N902 C905 1.350 . S
N903 S901 1.610 1_545 S
N903 C904 1.351 . S
C904 C898 1.428 . S
C904 N903 1.351 . S
C904 C905 1.434 1_545 S
C905 C896 1.429 . S
C905 N902 1.350 . S
C905 C904 1.434 1_565 S
C906 C907 1.369 1_556 S
C906 C908 1.419 1_565 S
C906 H910 0.930 . S
C907 C906 1.369 1_554 S
C907 C916 1.429 . S
C908 C906 1.419 1_545 S
C908 C909 1.363 . S
C908 H911 0.929 . S
C909 C908 1.363 . S
C909 C915 1.428 1_556 S
H910 C906 0.930 . S
H911 C908 0.929 . S
S912 N913 1.613 1_545 S
S912 N914 1.610 . S
N913 S912 1.613 1_565 S
N913 C916 1.350 . S
N914 S912 1.610 . S
N914 C915 1.351 . S
C915 C909 1.428 1_554 S
C915 N914 1.351 . S
C915 C916 1.434 1_545 S
C916 C907 1.429 . S
C916 N913 1.350 . S
C916 C915 1.434 1_565 S
C917 C918 1.369 . S
C917 C919 1.419 1_545 S
C917 H921 0.930 . S
C918 C917 1.369 . S
C918 C927 1.429 . S
C919 C917 1.419 1_565 S
C919 C920 1.363 . S
C919 H922 0.929 . S
C920 C919 1.363 . S
C920 C926 1.428 . S
H921 C917 0.930 . S
H922 C919 0.929 . S
S923 N924 1.613 . S
S923 N925 1.610 1_545 S
N924 S923 1.613 . S
N924 C927 1.350 . S
N925 S923 1.610 1_565 S
N925 C926 1.351 . S
C926 C920 1.428 . S
C926 N925 1.351 . S
C926 C927 1.434 1_565 S
C927 C918 1.429 . S
C927 N924 1.350 . S
C927 C926 1.434 1_545 S
C577 C3 1.460 . S
C579 C220 1.443 . S
C588 C39 1.462 . S
C590 C256 1.447 . S
C599 C148 1.443 . S
C601 C75 1.461 . S
C610 C184 1.443 . S
C612 C111 1.460 . S
C621 C508 1.444 . S
C623 C291 1.460 . S
C632 C544 1.447 . S
C634 C327 1.462 . S
C643 C363 1.462 . S
C645 C436 1.445 . S
C654 C399 1.460 . S
C656 C472 1.445 . S
C665 C2 1.466 . S
C667 C182 1.468 . S
C676 C38 1.465 . S
C678 C146 1.468 . S
C687 C74 1.463 . S
C689 C254 1.466 . S
C698 C218 1.467 . S
C700 C110 1.464 . S
C709 C470 1.466 . S
C711 C290 1.463 . S
C720 C434 1.466 . S
C722 C326 1.463 . S
C731 C362 1.463 . S
C733 C542 1.467 . S
C742 C506 1.465 . S
C744 C398 1.462 . S
C753 C435 1.379 . S
C755 C4 1.385 . S
C764 C40 1.386 . S
C766 C471 1.381 . S
C775 C507 1.379 . S
C777 C76 1.383 . S
C786 C543 1.379 . S
C788 C112 1.386 . S
C797 C292 1.384 . S
C799 C147 1.379 . S
C808 C328 1.386 . S
C810 C183 1.380 . S
C819 C219 1.380 . S
C821 C364 1.386 . S
C830 C255 1.379 . S
C832 C400 1.386 . S
C841 C86 1.442 . S
C843 C14 1.443 . S
C852 C50 1.439 . S
C854 C122 1.442 . S
C863 C230 1.416 . S
C865 C158 1.413 . S
C874 C194 1.416 . S
C876 C266 1.412 . S
C885 C374 1.438 . S
C887 C302 1.441 . S
C896 C410 1.437 . S
C898 C338 1.438 . S
C907 C518 1.405 . S
C909 C446 1.411 . S
C918 C554 1.416 . S
C920 C482 1.410 . S
