# Generated by pormake.
# Topology soi, (5)-cn, num edge types: 1
# Building blocks:
#     Node 0, Type 0, BuildingBlock: XOMCOT_clean_sbu_0, # of connection points: 5
#     Node 1, Type 0, BuildingBlock: XOMCOT_clean_sbu_0, # of connection points: 5
#     Node 2, Type 0, BuildingBlock: XOMCOT_clean_sbu_0, # of connection points: 5
#     Node 3, Type 0, BuildingBlock: XOMCOT_clean_sbu_0, # of connection points: 5
#     Node 4, Type 0, BuildingBlock: XOMCOT_clean_sbu_0, # of connection points: 5
#     Node 5, Type 0, BuildingBlock: XOMCOT_clean_sbu_0, # of connection points: 5
#     Node 6, Type 0, BuildingBlock: XOMCOT_clean_sbu_0, # of connection points: 5
#     Node 7, Type 0, BuildingBlock: XOMCOT_clean_sbu_0, # of connection points: 5
#     Node 8, Type 0, BuildingBlock: XOMCOT_clean_sbu_0, # of connection points: 5
#     Node 9, Type 0, BuildingBlock: XOMCOT_clean_sbu_0, # of connection points: 5
#     Node 10, Type 0, BuildingBlock: XOMCOT_clean_sbu_0, # of connection points: 5
#     Node 11, Type 0, BuildingBlock: XOMCOT_clean_sbu_0, # of connection points: 5
#     Node 12, Type 0, BuildingBlock: XOMCOT_clean_sbu_0, # of connection points: 5
#     Node 13, Type 0, BuildingBlock: XOMCOT_clean_sbu_0, # of connection points: 5
#     Node 14, Type 0, BuildingBlock: XOMCOT_clean_sbu_0, # of connection points: 5
#     Node 15, Type 0, BuildingBlock: XOMCOT_clean_sbu_0, # of connection points: 5
#     Edge 16, Type (0, 0), BuildingBlock: EZIPEK_clean_linker_0, # of connection points: 2
#     Edge 17, Type (0, 0), BuildingBlock: EZIPEK_clean_linker_0, # of connection points: 2
#     Edge 18, Type (0, 0), BuildingBlock: EZIPEK_clean_linker_0, # of connection points: 2
#     Edge 19, Type (0, 0), BuildingBlock: EZIPEK_clean_linker_0, # of connection points: 2
#     Edge 20, Type (0, 0), BuildingBlock: EZIPEK_clean_linker_0, # of connection points: 2
#     Edge 21, Type (0, 0), BuildingBlock: EZIPEK_clean_linker_0, # of connection points: 2
#     Edge 22, Type (0, 0), BuildingBlock: EZIPEK_clean_linker_0, # of connection points: 2
#     Edge 23, Type (0, 0), BuildingBlock: EZIPEK_clean_linker_0, # of connection points: 2
#     Edge 24, Type (0, 0), BuildingBlock: EZIPEK_clean_linker_0, # of connection points: 2
#     Edge 25, Type (0, 0), BuildingBlock: EZIPEK_clean_linker_0, # of connection points: 2
#     Edge 26, Type (0, 0), BuildingBlock: EZIPEK_clean_linker_0, # of connection points: 2
#     Edge 27, Type (0, 0), BuildingBlock: EZIPEK_clean_linker_0, # of connection points: 2
#     Edge 28, Type (0, 0), BuildingBlock: EZIPEK_clean_linker_0, # of connection points: 2
#     Edge 29, Type (0, 0), BuildingBlock: EZIPEK_clean_linker_0, # of connection points: 2
#     Edge 30, Type (0, 0), BuildingBlock: EZIPEK_clean_linker_0, # of connection points: 2
#     Edge 31, Type (0, 0), BuildingBlock: EZIPEK_clean_linker_0, # of connection points: 2
#     Edge 32, Type (0, 0), BuildingBlock: EZIPEK_clean_linker_0, # of connection points: 2
#     Edge 33, Type (0, 0), BuildingBlock: EZIPEK_clean_linker_0, # of connection points: 2
#     Edge 34, Type (0, 0), BuildingBlock: EZIPEK_clean_linker_0, # of connection points: 2
#     Edge 35, Type (0, 0), BuildingBlock: EZIPEK_clean_linker_0, # of connection points: 2
#     Edge 36, Type (0, 0), BuildingBlock: EZIPEK_clean_linker_0, # of connection points: 2
#     Edge 37, Type (0, 0), BuildingBlock: EZIPEK_clean_linker_0, # of connection points: 2
#     Edge 38, Type (0, 0), BuildingBlock: EZIPEK_clean_linker_0, # of connection points: 2
#     Edge 39, Type (0, 0), BuildingBlock: EZIPEK_clean_linker_0, # of connection points: 2
#     Edge 40, Type (0, 0), BuildingBlock: EZIPEK_clean_linker_0, # of connection points: 2
#     Edge 41, Type (0, 0), BuildingBlock: EZIPEK_clean_linker_0, # of connection points: 2
#     Edge 42, Type (0, 0), BuildingBlock: EZIPEK_clean_linker_0, # of connection points: 2
#     Edge 43, Type (0, 0), BuildingBlock: EZIPEK_clean_linker_0, # of connection points: 2
#     Edge 44, Type (0, 0), BuildingBlock: EZIPEK_clean_linker_0, # of connection points: 2
#     Edge 45, Type (0, 0), BuildingBlock: EZIPEK_clean_linker_0, # of connection points: 2
#     Edge 46, Type (0, 0), BuildingBlock: EZIPEK_clean_linker_0, # of connection points: 2
#     Edge 47, Type (0, 0), BuildingBlock: EZIPEK_clean_linker_0, # of connection points: 2
#     Edge 48, Type (0, 0), BuildingBlock: EZIPEK_clean_linker_0, # of connection points: 2
#     Edge 49, Type (0, 0), BuildingBlock: EZIPEK_clean_linker_0, # of connection points: 2
#     Edge 50, Type (0, 0), BuildingBlock: EZIPEK_clean_linker_0, # of connection points: 2
#     Edge 51, Type (0, 0), BuildingBlock: EZIPEK_clean_linker_0, # of connection points: 2
#     Edge 52, Type (0, 0), BuildingBlock: EZIPEK_clean_linker_0, # of connection points: 2
#     Edge 53, Type (0, 0), BuildingBlock: EZIPEK_clean_linker_0, # of connection points: 2
#     Edge 54, Type (0, 0), BuildingBlock: EZIPEK_clean_linker_0, # of connection points: 2
#     Edge 55, Type (0, 0), BuildingBlock: EZIPEK_clean_linker_0, # of connection points: 2
# Relax obj value: 0.105
# Max RMSD: 0.162
# Mean RMSD: 0.162
data_MOF--net-soi--node1-XOMCOT_clean_sbu_0--edge1-EZIPEK_clean_linker_0
_symmetry_space_group_name_H-M    P1
_symmetry_Int_Tables_number       1
_symmetry_cell_setting            triclinic
loop_
_symmetry_equiv_pos_as_xyz
'x, y, z'
_cell_length_a     37.560233
_cell_length_b     19.251959
_cell_length_c     51.445829
_cell_angle_alpha  89.800353
_cell_angle_beta   89.284287
_cell_angle_gamma 90.209322
loop_
_atom_site_label
_atom_site_type_symbol
_atom_site_fract_x
_atom_site_fract_y
_atom_site_fract_z
_atom_type_partial_charge
Co0 Co 0.30815 0.06781 0.14991 0.0
C1 C 0.31892 0.04002 0.20696 0.0
C2 C 0.26905 0.08816 0.19861 0.0
C3 C 0.26968 0.07319 0.22472 0.0
N4 N 0.30025 0.06939 0.18743 0.0
N5 N 0.30086 0.04234 0.22986 0.0
H6 H 0.34382 0.01303 0.20446 0.0
H7 H 0.24632 0.10737 0.18814 0.0
C8 C 0.28137 0.21331 0.15931 0.0
O9 O 0.30472 0.22104 0.1779 0.0
N10 N 0.3141 0.06581 0.11249 0.0
C11 C 0.34402 0.05494 0.09831 0.0
C12 C 0.3355 0.05646 0.07225 0.0
C13 C 0.28786 0.07306 0.09503 0.0
N14 N 0.30016 0.06695 0.0704 0.0
C15 C 0.38249 0.07949 0.16282 0.0
C16 C 0.39427 0.2076 0.13981 0.0
C17 C 0.42309 0.17243 0.15053 0.0
C18 C 0.41699 0.10751 0.16215 0.0
C19 C 0.36044 0.17729 0.14055 0.0
N20 N 0.35438 0.11487 0.15262 0.0
H21 H 0.3789 0.02762 0.17032 0.0
H22 H 0.33965 0.20294 0.13027 0.0
H23 H 0.37011 0.04595 0.10629 0.0
H24 H 0.26021 0.08157 0.10023 0.0
O25 O 0.32375 0.9717 0.15202 0.0
O26 O 0.26793 0.00631 0.1471 0.0
O27 O 0.2805 0.15721 0.14615 0.0
C28 C 0.29027 0.95548 0.14955 0.0
H29 H 0.24799 0.07979 0.23854 0.0
H30 H 0.35358 0.04899 0.05596 0.0
H31 H 0.39816 0.25703 0.13003 0.0
H32 H 0.43888 0.07796 0.17001 0.0
Co33 Co 0.67875 0.39951 0.14487 0.0
C34 C 0.69271 0.43283 0.2007 0.0
C35 C 0.64862 0.3629 0.19732 0.0
C36 C 0.65222 0.37946 0.22308 0.0
N37 N 0.67388 0.39651 0.18296 0.0
N38 N 0.67973 0.42361 0.22505 0.0
H39 H 0.7148 0.46705 0.19612 0.0
H40 H 0.62824 0.32892 0.18993 0.0
C41 C 0.69976 0.25112 0.15714 0.0
O42 O 0.67153 0.24162 0.17197 0.0
N43 N 0.68324 0.40249 0.1074 0.0
C44 C 0.65792 0.42201 0.09055 0.0
C45 C 0.67215 0.42105 0.06574 0.0
C46 C 0.71254 0.38998 0.09273 0.0
N47 N 0.70651 0.40184 0.06727 0.0
C48 C 0.60268 0.39619 0.14967 0.0
C49 C 0.59269 0.26412 0.12996 0.0
C50 C 0.56347 0.29949 0.14065 0.0
C51 C 0.56849 0.36723 0.14979 0.0
C52 C 0.62637 0.29546 0.12989 0.0
N53 N 0.6314 0.35876 0.14121 0.0
H54 H 0.60646 0.44737 0.15775 0.0
H55 H 0.64843 0.26819 0.12115 0.0
H56 H 0.63122 0.43759 0.09597 0.0
H57 H 0.73808 0.37548 0.10057 0.0
O58 O 0.66644 0.49783 0.14492 0.0
O59 O 0.7211 0.4556 0.14752 0.0
O60 O 0.70457 0.30786 0.14474 0.0
C61 C 0.70053 0.50959 0.14678 0.0
H62 H 0.63538 0.36213 0.23907 0.0
H63 H 0.65884 0.43598 0.04804 0.0
H64 H 0.58954 0.21242 0.12206 0.0
H65 H 0.54635 0.39652 0.15773 0.0
Co66 Co 0.33824 0.8781 0.40557 0.0
C67 C 0.32843 0.92908 0.35058 0.0
C68 C 0.3553 0.83114 0.35267 0.0
C69 C 0.35243 0.84945 0.32693 0.0
N70 N 0.34062 0.88123 0.36766 0.0
N71 N 0.33568 0.91091 0.32574 0.0
H72 H 0.31402 0.97549 0.35581 0.0
H73 H 0.36727 0.78409 0.35995 0.0
C74 C 0.30629 0.73652 0.41809 0.0
O75 O 0.31498 0.73949 0.44264 0.0
N76 N 0.33634 0.87517 0.44337 0.0
C77 C 0.36394 0.88459 0.45959 0.0
C78 C 0.3512 0.88662 0.48483 0.0
C79 C 0.30712 0.8734 0.45898 0.0
N80 N 0.31559 0.8794 0.48426 0.0
C81 C 0.41265 0.88295 0.39474 0.0
C82 C 0.42874 0.75067 0.41202 0.0
C83 C 0.45534 0.79099 0.40015 0.0
C84 C 0.44738 0.85827 0.39182 0.0
C85 C 0.39449 0.77748 0.41473 0.0
N86 N 0.38655 0.84218 0.40557 0.0
H87 H 0.40632 0.93412 0.38747 0.0
H88 H 0.37468 0.74567 0.42405 0.0
H89 H 0.39137 0.89187 0.45354 0.0
H90 H 0.28021 0.86821 0.452 0.0
O91 O 0.34844 0.97648 0.40801 0.0
O92 O 0.29464 0.92954 0.40527 0.0
O93 O 0.31598 0.78333 0.40185 0.0
C94 C 0.31411 -0.0147 0.40696 0.0
H95 H 0.36146 0.81968 0.31031 0.0
H96 H 0.36665 0.89464 0.5022 0.0
H97 H 0.43441 0.69874 0.41898 0.0
H98 H 0.46761 0.8907 0.3827 0.0
Co99 Co 0.70972 0.57877 0.39928 0.0
C100 C 0.70327 0.54031 0.34382 0.0
C101 C 0.74296 0.61935 0.3494 0.0
C102 C 0.74185 0.60381 0.32331 0.0
N103 N 0.71863 0.57988 0.36218 0.0
N104 N 0.71711 0.554 0.32 0.0
H105 H 0.68264 0.50217 0.34774 0.0
H106 H 0.76068 0.6563 0.35836 0.0
C107 C 0.72071 0.72512 0.41639 0.0
O108 O 0.69253 0.72031 0.43162 0.0
N109 N 0.70241 0.57772 0.43713 0.0
C110 C 0.6726 0.58364 0.45212 0.0
C111 C 0.68186 0.58289 0.47796 0.0
C112 C 0.72921 0.57366 0.45441 0.0
N113 N 0.71737 0.57669 0.47916 0.0
C114 C 0.63335 0.57201 0.39871 0.0
C115 C 0.62341 0.70341 0.37823 0.0
C116 C 0.59408 0.66624 0.38792 0.0
C117 C 0.59891 0.59861 0.39719 0.0
C118 C 0.65734 0.67498 0.38043 0.0
N119 N 0.6621 0.61296 0.39284 0.0
H120 H 0.63709 0.5205 0.40661 0.0
H121 H 0.67989 0.70359 0.37273 0.0
H122 H 0.6459 0.59134 0.44549 0.0
H123 H 0.75708 0.5698 0.44912 0.0
O124 O 0.70009 0.4803 0.39817 0.0
O125 O 0.7533 0.52884 0.4038 0.0
O126 O 0.73024 0.67492 0.40182 0.0
C127 C 0.734 0.47288 0.40222 0.0
H128 H 0.75825 0.62631 0.30799 0.0
H129 H 0.6641 0.58819 0.49456 0.0
H130 H 0.62022 0.75487 0.37001 0.0
H131 H 0.57648 0.56792 0.40412 0.0
Co132 Co 0.70242 0.89999 0.90378 0.0
C133 C 0.68204 0.92913 0.84862 0.0
C134 C 0.73524 0.89067 0.85203 0.0
C135 C 0.72969 0.90755 0.82648 0.0
N136 N 0.7053 0.90303 0.86601 0.0
N137 N 0.69639 0.93191 0.82448 0.0
H138 H 0.6562 0.94988 0.85332 0.0
H139 H 0.76025 0.87495 0.86007 0.0
C140 C 0.72395 0.75588 0.88837 0.0
O141 O 0.70231 0.75833 0.86854 0.0
N142 N 0.7003 0.89835 0.94119 0.0
C143 C 0.67294 0.91888 0.95653 0.0
C144 C 0.68394 0.91839 0.98196 0.0
C145 C 0.72751 0.88573 0.95732 0.0
N146 N 0.7181 0.89749 0.98226 0.0
C147 C 0.6265 0.9015 0.89679 0.0
C148 C 0.6149 0.76621 0.91308 0.0
C149 C 0.58614 0.8055 0.90448 0.0
C150 C 0.59191 0.87461 0.89694 0.0
C151 C 0.64872 0.79585 0.91331 0.0
N152 N 0.65469 0.86081 0.90342 0.0
H153 H 0.63046 0.95555 0.89194 0.0
H154 H 0.66982 0.76707 0.92228 0.0
H155 H 0.64742 0.93638 0.94962 0.0
H156 H 0.75412 0.87214 0.95087 0.0
O157 O 0.69146 -0.00161 0.90422 0.0
O158 O 0.74559 0.95223 0.90524 0.0
O159 O 0.72568 0.80596 0.90445 0.0
C160 C 0.72581 0.00732 0.90574 0.0
H161 H 0.74914 0.90575 0.81078 0.0
H162 H 0.66876 0.93531 0.99879 0.0
H163 H 0.61107 0.71361 0.92017 0.0
H164 H 0.5699 0.90729 0.89125 0.0
Co165 Co 0.3303 0.58582 0.89744 0.0
C166 C 0.33075 0.53563 0.84214 0.0
C167 C 0.34371 0.64362 0.84425 0.0
C168 C 0.34445 0.62438 0.81858 0.0
N169 N 0.33446 0.58852 0.85931 0.0
N170 N 0.33622 0.55666 0.81735 0.0
H171 H 0.32482 0.48249 0.84738 0.0
H172 H 0.35044 0.69441 0.85095 0.0
C173 C 0.31564 0.74315 0.89406 0.0
O174 O 0.34846 0.76131 0.88823 0.0
N175 N 0.32588 0.58234 0.93509 0.0
C176 C 0.35034 0.55848 0.95188 0.0
C177 C 0.33551 0.55682 0.97649 0.0
C178 C 0.2964 0.59453 0.94967 0.0
N179 N 0.30174 0.57951 0.97498 0.0
C180 C 0.40474 0.59482 0.88549 0.0
C181 C 0.4198 0.70176 0.9195 0.0
C182 C 0.44683 0.67642 0.90323 0.0
C183 C 0.4394 0.62092 0.8866 0.0
C184 C 0.38586 0.67285 0.91826 0.0
N185 N 0.37817 0.62299 0.90035 0.0
H186 H 0.39906 0.55231 0.87249 0.0
H187 H 0.36532 0.69224 0.93113 0.0
H188 H 0.37666 0.54065 0.94642 0.0
H189 H 0.27114 0.61067 0.94179 0.0
O190 O 0.34124 0.48763 0.89751 0.0
O191 O 0.28706 0.53284 0.89556 0.0
O192 O 0.30654 0.67989 0.8979 0.0
C193 C 0.30682 0.47781 0.89746 0.0
H194 H 0.3503 0.65753 0.80201 0.0
H195 H 0.34791 0.53751 0.99395 0.0
H196 H 0.42488 0.74375 0.93294 0.0
H197 H 0.46003 0.59912 0.87423 0.0
Co198 Co 0.69012 0.06346 0.64576 0.0
C199 C 0.67109 0.04428 0.70284 0.0
C200 C 0.72518 0.07471 0.6954 0.0
C201 C 0.72149 0.06065 0.72135 0.0
N202 N 0.69371 0.06516 0.68354 0.0
N203 N 0.6877 0.04083 0.72599 0.0
H204 H 0.64398 0.02772 0.70025 0.0
H205 H 0.74997 0.08582 0.68555 0.0
C206 C 0.71489 0.20734 0.6582 0.0
O207 O 0.69284 0.20891 0.6782 0.0
N208 N 0.68898 0.06119 0.60836 0.0
C209 C 0.66244 0.04181 0.5925 0.0
C210 C 0.67554 0.04118 0.56724 0.0
C211 C 0.71759 0.07187 0.59282 0.0
N212 N 0.71014 0.05997 0.56774 0.0
C213 C 0.61473 0.07107 0.65621 0.0
C214 C 0.60479 0.20154 0.63497 0.0
C215 C 0.57603 0.16786 0.64715 0.0
C216 C 0.58097 0.10129 0.6574 0.0
C217 C 0.63814 0.16949 0.63438 0.0
N218 N 0.64332 0.10695 0.64637 0.0
H219 H 0.61773 0.01824 0.66284 0.0
H220 H 0.65961 0.19434 0.62374 0.0
H221 H 0.63596 0.0269 0.59891 0.0
H222 H 0.74374 0.08562 0.59983 0.0
O223 O 0.67603 0.96654 0.64715 0.0
O224 O 0.73171 0.00603 0.64458 0.0
O225 O 0.71573 0.15522 0.64303 0.0
C226 C 0.71 0.9535 0.64551 0.0
H227 H 0.74251 0.06092 0.73558 0.0
H228 H 0.66124 0.02611 0.55 0.0
H229 H 0.60141 0.25185 0.62585 0.0
H230 H 0.55883 0.07265 0.66591 0.0
Co231 Co 0.31983 0.38376 0.64326 0.0
C232 C 0.33034 0.41906 0.69898 0.0
C233 C 0.28625 0.34957 0.69335 0.0
C234 C 0.28759 0.36624 0.71928 0.0
N235 N 0.31295 0.38272 0.68061 0.0
N236 N 0.31508 0.41016 0.72271 0.0
H237 H 0.35264 0.45335 0.69498 0.0
H238 H 0.26606 0.31806 0.68427 0.0
C239 C 0.304 0.23708 0.62692 0.0
O240 O 0.32964 0.23951 0.60937 0.0
N241 N 0.32504 0.38383 0.60532 0.0
C242 C 0.35445 0.38385 0.5898 0.0
C243 C 0.34428 0.38322 0.56416 0.0
C244 C 0.29749 0.38267 0.5886 0.0
N245 N 0.30854 0.38287 0.56356 0.0
C246 C 0.39643 0.38936 0.64308 0.0
C247 C 0.40688 0.2553 0.66074 0.0
C248 C 0.43629 0.29461 0.65243 0.0
C249 C 0.43107 0.36329 0.64444 0.0
C250 C 0.37277 0.28365 0.6591 0.0
N251 N 0.3677 0.34758 0.64821 0.0
H252 H 0.39262 0.44203 0.63639 0.0
H253 H 0.35047 0.25407 0.6666 0.0
H254 H 0.38166 0.38349 0.59594 0.0
H255 H 0.26979 0.38294 0.59456 0.0
O256 O 0.33013 0.48272 0.64409 0.0
O257 O 0.27643 0.43616 0.64009 0.0
O258 O 0.29781 0.28839 0.64188 0.0
C259 C 0.29594 0.49171 0.64209 0.0
H260 H 0.26867 0.35064 0.73426 0.0
H261 H 0.36169 0.3834 0.54723 0.0
H262 H 0.41025 0.20299 0.6681 0.0
H263 H 0.45344 0.39568 0.63861 0.0
Co264 Co 0.82031 0.56686 0.64702 0.0
C265 C 0.83707 0.5337 0.70229 0.0
C266 C 0.78551 0.57975 0.6973 0.0
C267 C 0.78908 0.56233 0.72297 0.0
N268 N 0.81542 0.56176 0.68432 0.0
N269 N 0.82128 0.53315 0.7261 0.0
H270 H 0.86298 0.51186 0.69796 0.0
H271 H 0.7621 0.60171 0.68847 0.0
C272 C 0.79657 0.71235 0.63414 0.0
O273 O 0.82055 0.71804 0.61543 0.0
N274 N 0.82371 0.57184 0.60933 0.0
C275 C 0.85204 0.56034 0.59344 0.0
C276 C 0.84104 0.56228 0.56801 0.0
C277 C 0.79587 0.5796 0.59324 0.0
N278 N 0.80584 0.57445 0.56808 0.0
C279 C 0.89697 0.56512 0.64668 0.0
C280 C 0.90701 0.70348 0.6587 0.0
C281 C 0.93651 0.66305 0.6522 0.0
C282 C 0.93153 0.59256 0.64683 0.0
C283 C 0.87307 0.67403 0.65822 0.0
N284 N 0.86801 0.60678 0.65067 0.0
H285 H 0.89348 0.5108 0.64222 0.0
H286 H 0.85126 0.70617 0.66387 0.0
H287 H 0.87868 0.54858 0.59942 0.0
H288 H 0.76867 0.58687 0.59982 0.0
O289 O 0.83168 0.46868 0.64534 0.0
O290 O 0.77766 0.51294 0.64442 0.0
O291 O 0.79511 0.65838 0.6484 0.0
C292 C 0.79746 0.45793 0.64426 0.0
H293 H 0.76918 0.56879 0.73817 0.0
H294 H 0.85728 0.55326 0.55083 0.0
H295 H 0.91016 0.75773 0.66376 0.0
H296 H 0.95402 0.55951 0.64228 0.0
Co297 Co 0.19202 0.88564 0.64765 0.0
C298 C 0.19558 0.93264 0.70318 0.0
C299 C 0.17672 0.82799 0.70031 0.0
C300 C 0.17643 0.84625 0.72609 0.0
N301 N 0.18915 0.88161 0.68571 0.0
N302 N 0.18825 0.91186 0.72777 0.0
H303 H 0.20437 -0.01547 0.69826 0.0
H304 H 0.16672 0.77972 0.69302 0.0
C305 C 0.2037 0.72696 0.64984 0.0
O306 O 0.17069 0.71012 0.65562 0.0
N307 N 0.19525 0.8902 0.6101 0.0
C308 C 0.17142 0.91868 0.59385 0.0
C309 C 0.18566 0.91907 0.56904 0.0
C310 C 0.22378 0.87428 0.59512 0.0
N311 N 0.21847 0.89132 0.57002 0.0
C312 C 0.11773 0.87985 0.66176 0.0
C313 C 0.09934 0.77598 0.62732 0.0
C314 C 0.07413 0.79889 0.64552 0.0
C315 C 0.08314 0.85283 0.66241 0.0
C316 C 0.13356 0.80434 0.62736 0.0
N317 N 0.14301 0.85261 0.64546 0.0
H318 H 0.1246 0.92127 0.67494 0.0
H319 H 0.15301 0.78485 0.61363 0.0
H320 H 0.14598 0.93993 0.5998 0.0
H321 H 0.24837 0.85337 0.60254 0.0
O322 O 0.18416 -0.01457 0.64817 0.0
O323 O 0.2367 0.93363 0.64889 0.0
O324 O 0.21366 0.78982 0.64651 0.0
C325 C 0.21887 -0.00889 0.64744 0.0
H326 H 0.16759 0.81447 0.74234 0.0
H327 H 0.17354 0.94036 0.55179 0.0
H328 H 0.0929 0.73521 0.61368 0.0
H329 H 0.06384 0.87272 0.67629 0.0
Co330 Co 0.82638 0.39371 0.90502 0.0
C331 C 0.8405 0.42459 0.84907 0.0
C332 C 0.79492 0.35846 0.85536 0.0
C333 C 0.79738 0.37382 0.82933 0.0
N334 N 0.82182 0.39026 0.86772 0.0
N335 N 0.82578 0.4156 0.82544 0.0
H336 H 0.86312 0.45792 0.8528 0.0
H337 H 0.77391 0.32875 0.86476 0.0
C338 C 0.81074 0.24929 0.92351 0.0
O339 O 0.83608 0.25415 0.94076 0.0
N340 N 0.82869 0.3971 0.94286 0.0
C341 C 0.85595 0.40807 0.95937 0.0
C342 C 0.84284 0.40881 0.98454 0.0
C343 C 0.79957 0.39184 0.95841 0.0
N344 N 0.80751 0.39836 0.9837 0.0
C345 C 0.90327 0.39565 0.90744 0.0
C346 C 0.9125 0.26485 0.88641 0.0
C347 C 0.94205 0.30053 0.89582 0.0
C348 C 0.93754 0.36761 0.90572 0.0
C349 C 0.87885 0.29459 0.88885 0.0
N350 N 0.87422 0.35656 0.90124 0.0
H351 H 0.89999 0.44835 0.91419 0.0
H352 H 0.85644 0.26816 0.88044 0.0
H353 H 0.88345 0.41607 0.95422 0.0
H354 H 0.77285 0.38452 0.9513 0.0
O355 O 0.83659 0.49213 0.9035 0.0
O356 O 0.78291 0.4454 0.90636 0.0
O357 O 0.80464 0.29845 0.90753 0.0
C358 C 0.80227 0.50132 0.90452 0.0
H359 H 0.7789 0.35799 0.81447 0.0
H360 H 0.85789 0.41751 1.00205 0.0
H361 H 0.91539 0.21422 0.87752 0.0
H362 H 0.96021 0.3977 0.91211 0.0
Co363 Co 0.19871 0.08499 0.9026 0.0
C364 C 0.18867 0.04813 0.84641 0.0
C365 C 0.22961 0.12429 0.85196 0.0
C366 C 0.22912 0.10721 0.82608 0.0
N367 N 0.20416 0.08761 0.86487 0.0
N368 N 0.20355 0.05927 0.82271 0.0
H369 H 0.16824 0.00976 0.85015 0.0
H370 H 0.24891 0.15827 0.8608 0.0
C371 C 0.22871 0.2257 0.91977 0.0
O372 O 0.21794 0.21929 0.94396 0.0
N373 N 0.19454 0.0823 0.94036 0.0
C374 C 0.16475 0.07442 0.95509 0.0
C375 C 0.17413 0.07168 0.98096 0.0
C376 C 0.2216 0.08246 0.95745 0.0
N377 N 0.20983 0.07662 0.98223 0.0
C378 C 0.12442 0.08259 0.88951 0.0
C379 C 0.10799 0.21322 0.90818 0.0
C380 C 0.08136 0.17377 0.89664 0.0
C381 C 0.08956 0.10739 0.88741 0.0
C382 C 0.14223 0.18633 0.91005 0.0
N383 N 0.15059 0.12262 0.90011 0.0
H384 H 0.13011 0.03056 0.88308 0.0
H385 H 0.16131 0.21653 0.92032 0.0
H386 H 0.13807 0.06978 0.94765 0.0
H387 H 0.24942 0.08651 0.95189 0.0
O388 O 0.18808 -0.01408 0.9018 0.0
O389 O 0.24206 0.03205 0.90435 0.0
O390 O 0.22112 0.1805 0.90265 0.0
C391 C 0.22236 0.97658 0.90285 0.0
H392 H 0.24748 0.12535 0.81112 0.0
H393 H 0.15633 0.06525 0.99751 0.0
H394 H 0.10214 0.26396 0.91619 0.0
H395 H 0.06917 0.07494 0.87895 0.0
Co396 Co 0.21014 0.37949 0.39385 0.0
C397 C 0.20024 0.41878 0.33807 0.0
C398 C 0.23829 0.33726 0.34168 0.0
C399 C 0.23623 0.35504 0.31587 0.0
N400 N 0.21484 0.37531 0.3558 0.0
N401 N 0.21258 0.40667 0.31373 0.0
H402 H 0.18209 0.46045 0.3428 0.0
H403 H 0.2572 0.30109 0.34924 0.0
C404 C 0.23147 0.23027 0.3877 0.0
O405 O 0.20638 0.22097 0.37047 0.0
N406 N 0.20676 0.38559 0.43134 0.0
C407 C 0.17873 0.40713 0.44582 0.0
C408 C 0.18866 0.40903 0.47155 0.0
C409 C 0.2333 0.37477 0.4483 0.0
N410 N 0.22285 0.3886 0.47289 0.0
C411 C 0.13675 0.3585 0.37889 0.0
C412 C 0.125 0.2445 0.41084 0.0
C413 C 0.0972 0.26859 0.39546 0.0
C414 C 0.10315 0.32675 0.3795 0.0
C415 C 0.15777 0.27863 0.41007 0.0
N416 N 0.1639 0.33316 0.39351 0.0
H417 H 0.1405 0.40454 0.36725 0.0
H418 H 0.17829 0.26157 0.42313 0.0
H419 H 0.15322 0.42214 0.43812 0.0
H420 H 0.25996 0.35915 0.4427 0.0
O421 O 0.19523 0.4754 0.39148 0.0
O422 O 0.2511 0.43842 0.39464 0.0
O423 O 0.23603 0.28917 0.39833 0.0
C424 C 0.229 0.4901 0.39361 0.0
H425 H 0.25207 0.33415 0.30003 0.0
H426 H 0.17244 0.42556 0.48791 0.0
H427 H 0.12109 0.20069 0.42385 0.0
H428 H 0.08188 0.34782 0.36786 0.0
Co429 Co 0.8345 0.07724 0.40747 0.0
C430 C 0.8463 0.02908 0.3531 0.0
C431 C 0.81206 0.118 0.35529 0.0
C432 C 0.81262 0.0947 0.33013 0.0
N433 N 0.83318 0.07709 0.3698 0.0
N434 N 0.83376 0.03857 0.32885 0.0
H435 H 0.86286 -0.01414 0.3587 0.0
H436 H 0.7955 0.15958 0.36254 0.0
C437 C 0.80956 0.22082 0.42383 0.0
O438 O 0.8201 0.21295 0.44784 0.0
N439 N 0.83454 0.07577 0.4452 0.0
C440 C 0.86217 0.06765 0.46147 0.0
C441 C 0.84911 0.06373 0.4867 0.0
C442 C 0.80518 0.07485 0.46064 0.0
N443 N 0.81338 0.06861 0.48588 0.0
C444 C 0.90967 0.05998 0.39803 0.0
C445 C 0.92986 0.19342 0.41106 0.0
C446 C 0.95584 0.14722 0.40225 0.0
C447 C 0.94565 0.07921 0.39609 0.0
C448 C 0.8946 0.17168 0.41334 0.0
N449 N 0.88443 0.10637 0.40617 0.0
H450 H 0.90218 0.00758 0.39308 0.0
H451 H 0.8761 0.2079 0.42132 0.0
H452 H 0.88978 0.06336 0.45554 0.0
H453 H 0.77823 0.07882 0.45362 0.0
O454 O 0.84014 0.9773 0.40778 0.0
O455 O 0.78864 0.03347 0.40821 0.0
O456 O 0.81628 0.17556 0.40644 0.0
C457 C 0.80545 0.9747 0.40842 0.0
H458 H 0.79751 0.11556 0.31412 0.0
H459 H 0.86444 0.05692 0.50419 0.0
H460 H 0.93691 0.24596 0.41655 0.0
H461 H 0.96525 0.04167 0.38965 0.0
Co462 Co 0.17812 0.56742 0.13899 0.0
C463 C 0.19195 0.53662 0.19521 0.0
C464 C 0.14869 0.6076 0.19121 0.0
C465 C 0.15193 0.5917 0.21708 0.0
N466 N 0.17362 0.57284 0.17713 0.0
N467 N 0.17881 0.54659 0.21946 0.0
H468 H 0.21363 0.5016 0.19091 0.0
H469 H 0.1288 0.64212 0.18358 0.0
C470 C 0.20331 0.71342 0.15058 0.0
O471 O 0.17612 0.7244 0.16619 0.0
N472 N 0.18225 0.56203 0.10143 0.0
C473 C 0.15588 0.54616 0.08489 0.0
C474 C 0.16923 0.54796 0.05983 0.0
C475 C 0.21146 0.57249 0.08626 0.0
N476 N 0.20414 0.56397 0.06078 0.0
C477 C 0.10234 0.57635 0.14376 0.0
C478 C 0.09543 0.70938 0.12399 0.0
C479 C 0.06557 0.67613 0.13492 0.0
C480 C 0.06895 0.60799 0.14408 0.0
C481 C 0.12829 0.67549 0.12382 0.0
N482 N 0.13186 0.61171 0.13517 0.0
H483 H 0.10489 0.52491 0.15195 0.0
H484 H 0.15085 0.70114 0.11501 0.0
H485 H 0.1288 0.53375 0.09063 0.0
H486 H 0.2375 0.58543 0.09366 0.0
O487 O 0.16299 0.4706 0.14023 0.0
O488 O 0.21889 0.50797 0.14199 0.0
O489 O 0.20619 0.65696 0.13786 0.0
C490 C 0.19672 0.45608 0.1421 0.0
H491 H 0.13504 0.60966 0.23287 0.0
H492 H 0.1547 0.53712 0.04225 0.0
H493 H 0.09344 0.76145 0.11611 0.0
H494 H 0.04621 0.58049 0.15227 0.0
Co495 Co 0.8114 0.90252 0.1521 0.0
C496 C 0.82989 0.90885 0.2085 0.0
C497 C 0.77423 0.892 0.20203 0.0
C498 C 0.77902 0.90442 0.22803 0.0
N499 N 0.80601 0.89564 0.18962 0.0
N500 N 0.81391 0.91613 0.23198 0.0
H501 H 0.85792 0.91765 0.20527 0.0
H502 H 0.74894 0.88529 0.19251 0.0
C503 C 0.78465 0.75737 0.16203 0.0
O504 O 0.80645 0.752 0.18171 0.0
N505 N 0.8162 0.91001 0.11481 0.0
C506 C 0.84569 0.92772 0.10103 0.0
C507 C 0.83772 0.92708 0.07497 0.0
C508 C 0.79061 0.89968 0.0971 0.0
N509 N 0.80311 0.90996 0.0727 0.0
C510 C 0.88718 0.89855 0.15995 0.0
C511 C 0.89819 0.76706 0.14013 0.0
C512 C 0.92753 0.80605 0.148 0.0
C513 C 0.92189 0.87273 0.15793 0.0
C514 C 0.86409 0.79509 0.14221 0.0
N515 N 0.85852 0.85923 0.15282 0.0
H516 H 0.88347 0.95119 0.16659 0.0
H517 H 0.84268 0.76585 0.13408 0.0
H518 H 0.87114 0.94095 0.10927 0.0
H519 H 0.76338 0.88566 0.10194 0.0
O520 O 0.82452 0.00032 0.15552 0.0
O521 O 0.76959 0.95999 0.15105 0.0
O522 O 0.78496 0.81188 0.14784 0.0
C523 C 0.79054 0.01293 0.15388 0.0
H524 H 0.75826 0.90839 0.24274 0.0
H525 H 0.85559 0.93963 0.05895 0.0
H526 H 0.90175 0.71606 0.13166 0.0
H527 H 0.94416 0.90492 0.16362 0.0
C528 C 0.27493 0.84161 0.17103 0.0
C529 C 0.27732 0.88286 0.14828 0.0
C530 C 0.23862 0.80211 0.12509 0.0
C531 C 0.23208 0.76614 0.14882 0.0
N532 N 0.2462 0.74522 0.19378 0.0
N533 N 0.27326 0.88959 0.10194 0.0
C534 C 0.25134 0.78344 0.17157 0.0
C535 C 0.26267 0.85912 0.12475 0.0
N536 N 0.29597 0.85714 0.19169 0.0
N537 N 0.22038 0.78444 0.10324 0.0
H538 H 0.29239 0.9289 0.10134 0.0
H539 H 0.26643 0.87101 0.08372 0.0
H540 H 0.20429 0.74059 0.10212 0.0
H541 H 0.21992 0.81462 0.08643 0.0
H542 H 0.29814 0.82627 0.20821 0.0
H543 H 0.31374 0.89878 0.19143 0.0
H544 H 0.25591 0.75904 0.21189 0.0
H545 H 0.23124 0.69945 0.19425 0.0
C546 C 0.71078 0.62135 0.17088 0.0
C547 C 0.71629 0.58045 0.14834 0.0
C548 C 0.76017 0.66554 0.132 0.0
C549 C 0.7592 0.69981 0.15645 0.0
N550 N 0.73344 0.71022 0.19958 0.0
N551 N 0.74721 0.56152 0.10771 0.0
C552 C 0.73435 0.67778 0.17598 0.0
C553 C 0.74112 0.60229 0.12895 0.0
N554 N 0.68289 0.60672 0.18734 0.0
N555 N 0.77888 0.69316 0.11146 0.0
H556 H 0.73156 0.51851 0.10355 0.0
H557 H 0.76873 0.56822 0.09497 0.0
H558 H 0.79384 0.73842 0.11241 0.0
H559 H 0.77695 0.67456 0.09255 0.0
H560 H 0.6752 0.6386 0.2027 0.0
H561 H 0.66519 0.56593 0.18428 0.0
H562 H 0.71977 0.69068 0.21576 0.0
H563 H 0.74779 0.75522 0.20352 0.0
C564 C 0.26296 0.06202 0.4178 0.0
C565 C 0.29701 0.05469 0.40594 0.0
C566 C 0.29152 0.17285 0.38886 0.0
C567 C 0.25458 0.17183 0.3952 0.0
N568 N 0.20417 0.10979 0.41387 0.0
N569 N 0.3419 0.1029 0.37641 0.0
C570 C 0.23992 0.11463 0.40904 0.0
C571 C 0.31117 0.11022 0.39063 0.0
N572 N 0.2532 0.02069 0.43827 0.0
N573 N 0.30814 0.23296 0.38131 0.0
H574 H 0.35728 0.0582 0.3761 0.0
H575 H 0.35039 0.13963 0.36272 0.0
H576 H 0.29542 0.28079 0.38077 0.0
H577 H 0.33565 0.23665 0.37871 0.0
H578 H 0.22969 0.0276 0.44892 0.0
H579 H 0.271 -0.01348 0.44676 0.0
H580 H 0.19226 0.06536 0.42178 0.0
H581 H 0.18607 0.1471 0.40792 0.0
C582 C 0.80115 0.32836 0.39691 0.0
C583 C 0.78877 0.28272 0.41681 0.0
C584 C 0.73851 0.35964 0.42613 0.0
C585 C 0.75033 0.40413 0.40571 0.0
N586 N 0.78716 0.4228 0.36763 0.0
N587 N 0.74114 0.24516 0.4456 0.0
C588 C 0.77994 0.38598 0.38986 0.0
C589 C 0.75605 0.29541 0.43001 0.0
N590 N 0.83383 0.31866 0.38552 0.0
N591 N 0.71173 0.37992 0.44263 0.0
H592 H 0.75287 0.19689 0.44866 0.0
H593 H 0.71552 0.24845 0.45346 0.0
H594 H 0.69814 0.42668 0.44076 0.0
H595 H 0.70478 0.35292 0.45953 0.0
H596 H 0.84598 0.35502 0.37325 0.0
H597 H 0.85023 0.27689 0.38982 0.0
H598 H 0.80597 0.40756 0.35376 0.0
H599 H 0.77189 0.465 0.36176 0.0
C600 C 0.73432 0.12013 0.92982 0.0
C601 C 0.74301 0.07587 0.90861 0.0
C602 C 0.79946 0.1366 0.90211 0.0
C603 C 0.78958 0.18508 0.92133 0.0
N604 N 0.74682 0.22729 0.9527 0.0
N605 N 0.77839 0.05612 0.86996 0.0
C606 C 0.75662 0.17834 0.93489 0.0
C607 C 0.77389 0.08875 0.89328 0.0
N608 N 0.70608 0.10496 0.94588 0.0
N609 N 0.8338 0.1339 0.89323 0.0
H610 H 0.75887 0.02381 0.86227 0.0
H611 H 0.7992 0.06783 0.85706 0.0
H612 H 0.85392 0.16332 0.90164 0.0
H613 H 0.84299 0.09605 0.88039 0.0
H614 H 0.70118 0.13037 0.96339 0.0
H615 H 0.68864 0.06384 0.94279 0.0
H616 H 0.72137 0.23069 0.96084 0.0
H617 H 0.7641 0.26629 0.95866 0.0
C618 C 0.25979 0.39101 0.88563 0.0
C619 C 0.29007 0.40817 0.90074 0.0
C620 C 0.28347 0.29765 0.92429 0.0
C621 C 0.25038 0.28659 0.91212 0.0
N622 N 0.20488 0.32583 0.88283 0.0
N623 N 0.3276 0.38064 0.93752 0.0
C624 C 0.23806 0.33371 0.89305 0.0
C625 C 0.30139 0.36198 0.92071 0.0
N626 N 0.25209 0.42827 0.86375 0.0
N627 N 0.29832 0.2459 0.93883 0.0
H628 H 0.34187 0.4267 0.93624 0.0
H629 H 0.3331 0.35285 0.95441 0.0
H630 H 0.28617 0.19764 0.94174 0.0
H631 H 0.32425 0.24818 0.94574 0.0
H632 H 0.23312 0.4127 0.85035 0.0
H633 H 0.2667 0.47124 0.8575 0.0
H634 H 0.19262 0.36368 0.87156 0.0
H635 H 0.18825 0.28401 0.88719 0.0
C636 C 0.74359 0.85807 0.66638 0.0
C637 C 0.72437 0.8825 0.64481 0.0
C638 C 0.74736 0.78828 0.61779 0.0
C639 C 0.76986 0.7679 0.63853 0.0
N640 N 0.78767 0.77981 0.6835 0.0
N641 N 0.69821 0.85986 0.60337 0.0
C642 C 0.76695 0.8008 0.66329 0.0
C643 C 0.72325 0.84417 0.6215 0.0
N644 N 0.73804 0.88825 0.69009 0.0
N645 N 0.74952 0.75511 0.59437 0.0
H646 H 0.68008 0.90022 0.60578 0.0
H647 H 0.6932 0.82977 0.58705 0.0
H648 H 0.76419 0.71006 0.59149 0.0
H649 H 0.73784 0.77333 0.57744 0.0
H650 H 0.74817 0.8699 0.70752 0.0
H651 H 0.72024 0.92896 0.6927 0.0
H652 H 0.79116 0.80806 0.70047 0.0
H653 H 0.80232 0.73432 0.68351 0.0
C654 C 0.25375 0.65682 0.66768 0.0
C655 C 0.23049 0.6717 0.64687 0.0
C656 C 0.2584 0.58098 0.62048 0.0
C657 C 0.27903 0.56131 0.64213 0.0
N658 N 0.30479 0.59264 0.68315 0.0
N659 N 0.20973 0.64942 0.60353 0.0
C660 C 0.27936 0.60303 0.66481 0.0
C661 C 0.23274 0.63454 0.62317 0.0
N662 N 0.25009 0.69191 0.69064 0.0
N663 N 0.26521 0.55103 0.59694 0.0
H664 H 0.19167 0.69033 0.6044 0.0
H665 H 0.20709 0.61944 0.58688 0.0
H666 H 0.28626 0.51669 0.59432 0.0
H667 H 0.25326 0.56555 0.57963 0.0
H668 H 0.2629 0.67823 0.70771 0.0
H669 H 0.23238 0.73289 0.69318 0.0
H670 H 0.30867 0.62482 0.69907 0.0
H671 H 0.32458 0.55547 0.68121 0.0
C672 C 0.79507 0.32807 0.65587 0.0
C673 C 0.78032 0.38786 0.64365 0.0
C674 C 0.72258 0.32898 0.64166 0.0
C675 C 0.73771 0.26818 0.65217 0.0
N676 N 0.7915 0.20322 0.66003 0.0
N677 N 0.73454 0.42863 0.61461 0.0
C678 C 0.77499 0.26536 0.65621 0.0
C679 C 0.74545 0.38319 0.63329 0.0
N680 N 0.82696 0.33044 0.66832 0.0
N681 N 0.68656 0.33585 0.63969 0.0
H682 H 0.75175 0.46477 0.60604 0.0
H683 H 0.71023 0.42374 0.60521 0.0
H684 H 0.66865 0.29805 0.64617 0.0
H685 H 0.67459 0.38222 0.63404 0.0
H686 H 0.8359 0.28976 0.67994 0.0
H687 H 0.84326 0.37388 0.66934 0.0
H688 H 0.8191 0.19832 0.66087 0.0
H689 H 0.77813 0.15603 0.65892 0.0
C690 C 0.29581 0.11855 0.64595 0.0
C691 C 0.28249 0.17323 0.63055 0.0
C692 C 0.2267 0.10873 0.62511 0.0
C693 C 0.23829 0.05821 0.6435 0.0
N694 N 0.28099 0.02766 0.67655 0.0
N695 N 0.2332 0.22594 0.60843 0.0
C696 C 0.272 0.06689 0.65545 0.0
C697 C 0.2472 0.17025 0.62121 0.0
N698 N 0.33132 0.11479 0.6511 0.0
N699 N 0.19772 0.09677 0.60995 0.0
H700 H 0.24801 0.27026 0.60388 0.0
H701 H 0.2063 0.22986 0.60395 0.0
H702 H 0.18207 0.05236 0.6111 0.0
H703 H 0.19116 0.12825 0.59422 0.0
H704 H 0.34281 0.07244 0.66043 0.0
H705 H 0.34982 0.14971 0.64327 0.0
H706 H 0.30387 0.03678 0.6873 0.0
H707 H 0.26379 -0.00833 0.68521 0.0
C708 C 0.80101 0.62878 0.88979 0.0
C709 C 0.78496 0.57094 0.90292 0.0
C710 C 0.7282 0.63282 0.90383 0.0
C711 C 0.74499 0.69263 0.89337 0.0
N712 N 0.80033 0.75348 0.88477 0.0
N713 N 0.73712 0.53526 0.93219 0.0
C714 C 0.78237 0.69275 0.88915 0.0
C715 C 0.74965 0.578 0.9129 0.0
N716 N 0.83273 0.62328 0.87666 0.0
N717 N 0.69198 0.62774 0.90527 0.0
H718 H 0.75345 0.50035 0.94186 0.0
H719 H 0.7123 0.54206 0.94111 0.0
H720 H 0.67515 0.66571 0.89797 0.0
H721 H 0.67896 0.58226 0.91113 0.0
H722 H 0.84283 0.6631 0.86489 0.0
H723 H 0.84708 0.5777 0.87458 0.0
H724 H 0.82805 0.75636 0.88388 0.0
H725 H 0.78794 0.80161 0.88524 0.0
C726 C 0.23676 0.86156 0.88133 0.0
C727 C 0.23923 0.90674 0.90301 0.0
C728 C 0.28999 0.84142 0.91949 0.0
C729 C 0.28854 0.79769 0.89745 0.0
N730 N 0.25762 0.75711 0.85954 0.0
N731 N 0.25828 0.92249 0.94686 0.0
C732 C 0.26079 0.80464 0.8791 0.0
C733 C 0.26303 0.89154 0.9233 0.0
N734 N 0.21226 0.87424 0.86256 0.0
N735 N 0.31723 0.83561 0.93673 0.0
H736 H 0.23617 0.95334 0.95057 0.0
H737 H 0.27283 0.9102 0.96334 0.0
H738 H 0.33661 0.79722 0.93551 0.0
H739 H 0.32199 0.87172 0.95132 0.0
H740 H 0.21193 0.84979 0.84457 0.0
H741 H 0.19203 0.91029 0.86495 0.0
H742 H 0.23608 0.75458 0.84707 0.0
H743 H 0.27582 0.71714 0.85648 0.0
C744 C 0.2727 0.58068 0.38049 0.0
C745 C 0.24277 0.56172 0.396 0.0
C746 C 0.25001 0.66778 0.42146 0.0
C747 C 0.28363 0.67884 0.40924 0.0
N748 N 0.32891 0.64207 0.37854 0.0
N749 N 0.20356 0.58568 0.43259 0.0
C750 C 0.29536 0.63493 0.38885 0.0
C751 C 0.23117 0.60529 0.41663 0.0
N752 N 0.27924 0.54676 0.35768 0.0
N753 N 0.23559 0.71782 0.43713 0.0
H754 H 0.18773 0.54235 0.42931 0.0
H755 H 0.19763 0.61043 0.45009 0.0
H756 H 0.24822 0.76505 0.44069 0.0
H757 H 0.20961 0.7156 0.44441 0.0
H758 H 0.2987 0.56235 0.34426 0.0
H759 H 0.26254 0.50744 0.35102 0.0
H760 H 0.34007 0.60674 0.36552 0.0
H761 H 0.34693 0.67956 0.38475 0.0
C762 C 0.79479 0.85578 0.42781 0.0
C763 C 0.78524 0.90866 0.40986 0.0
C764 C 0.73007 0.84626 0.40038 0.0
C765 C 0.74179 0.78974 0.41562 0.0
N766 N 0.78761 0.73584 0.44114 0.0
N767 N 0.7479 0.94512 0.37434 0.0
C768 C 0.77499 0.79283 0.42838 0.0
C769 C 0.75402 0.90136 0.39478 0.0
N770 N 0.82114 0.86684 0.44543 0.0
N771 N 0.69591 0.84816 0.39161 0.0
H772 H 0.76565 -0.01587 0.36857 0.0
H773 H 0.72733 0.9375 0.36123 0.0
H774 H 0.6772 0.80986 0.39616 0.0
H775 H 0.68514 0.89139 0.38239 0.0
H776 H 0.8264 0.83271 0.46065 0.0
H777 H 0.83531 0.91321 0.4468 0.0
H778 H 0.81343 0.73257 0.4482 0.0
H779 H 0.77308 0.68993 0.4431 0.0
C780 C 0.23258 0.29482 0.17408 0.0
C781 C 0.25522 0.26952 0.15376 0.0
C782 C 0.23019 0.35595 0.12377 0.0
C783 C 0.21037 0.38437 0.1446 0.0
N784 N 0.18267 0.36819 0.18643 0.0
N785 N 0.27584 0.27692 0.10901 0.0
C786 C 0.2085 0.3499 0.16884 0.0
C787 C 0.25352 0.29935 0.12837 0.0
N788 N 0.23476 0.26783 0.19863 0.0
N789 N 0.22516 0.38144 0.09927 0.0
H790 H 0.29137 0.23272 0.1104 0.0
H791 H 0.2804 0.304 0.09174 0.0
H792 H 0.20722 0.42135 0.09555 0.0
H793 H 0.23561 0.35902 0.08248 0.0
H794 H 0.22281 0.29025 0.2149 0.0
H795 H 0.25018 0.22495 0.20326 0.0
H796 H 0.1774 0.34134 0.20364 0.0
H797 H 0.1638 0.40618 0.18243 0.0
C798 C 0.7398 0.16966 0.1319 0.0
C799 C 0.72766 0.19679 0.1561 0.0
C800 C 0.76343 0.11087 0.17929 0.0
C801 C 0.77529 0.08369 0.15515 0.0
N802 N 0.78384 0.09987 0.10924 0.0
N803 N 0.73662 0.20741 0.20231 0.0
C804 C 0.76645 0.11746 0.13169 0.0
C805 C 0.74215 0.1717 0.17969 0.0
N806 N 0.72446 0.19031 0.10922 0.0
N807 N 0.77165 0.07738 0.20182 0.0
H808 H 0.72222 0.25358 0.2032 0.0
H809 H 0.74928 0.19535 0.21964 0.0
H810 H 0.78888 0.03533 0.20214 0.0
H811 H 0.76015 0.08909 0.2198 0.0
H812 H 0.72938 0.16616 0.09145 0.0
H813 H 0.70456 0.22765 0.10833 0.0
H814 H 0.78135 0.12777 0.09198 0.0
H815 H 0.80375 0.06222 0.10878 0.0
C816 C 0.26639 0.13489 0.03826 0.0
C817 C 0.27915 0.06992 0.04713 0.0
C818 C 0.24295 0.00958 1.01489 0.0
C819 C 0.23147 0.07443 1.00516 0.0
N820 N 0.23082 0.19879 1.00699 0.0
N821 N 0.28547 0.94683 0.041 0.0
C822 C 0.24286 0.13725 1.01673 0.0
C823 C 0.26915 0.00761 0.03456 0.0
N824 N 0.27715 0.19395 0.05056 0.0
N825 N 0.22766 0.95 1.00592 0.0
H826 H 0.3049 0.94388 0.05519 0.0
H827 H 0.28204 0.90063 0.03085 0.0
H828 H 0.20794 0.95031 0.99185 0.0
H829 H 0.23217 0.90107 1.01389 0.0
H830 H 0.26723 0.24329 0.04682 0.0
H831 H 0.2964 0.19321 0.06497 0.0
H832 H 0.23977 0.24748 1.01274 0.0
H833 H 0.21144 0.20089 0.99271 0.0
C834 C 0.77361 0.33666 1.01808 0.0
C835 C 0.78267 0.39942 1.00517 0.0
C836 C 0.74308 0.46445 0.03431 0.0
C837 C 0.73231 0.40107 0.04628 0.0
N838 N 0.73296 0.27641 0.04766 0.0
N839 N 0.77412 0.52156 0.99839 0.0
C840 C 0.74656 0.33693 0.0377 0.0
C841 C 0.76683 0.46297 1.01259 0.0
N842 N 0.79125 0.27719 1.01155 0.0
N843 N 0.73145 0.52607 0.04432 0.0
H844 H 0.79242 0.52221 0.98299 0.0
H845 H 0.76059 0.56827 1.00073 0.0
H846 H 0.71363 0.52899 0.05991 0.0
H847 H 0.74121 0.57438 0.03844 0.0
H848 H 0.78845 0.23044 1.02161 0.0
H849 H 0.81056 0.27586 0.99682 0.0
H850 H 0.73985 0.22731 0.04088 0.0
H851 H 0.71251 0.27557 0.06153 0.0
C852 C 0.28214 0.94731 0.51692 0.0
C853 C 0.29137 0.88217 0.50613 0.0
C854 C 0.25158 0.823 0.53727 0.0
C855 C 0.24394 0.8878 0.54895 0.0
N856 N 0.25599 0.00981 0.55333 0.0
N857 N 0.28964 0.7576 0.50775 0.0
C858 C 0.26038 0.94959 0.5397 0.0
C859 C 0.27738 0.81975 0.51681 0.0
N860 N 0.29357 0.00682 0.50488 0.0
N861 N 0.23336 0.76518 0.54538 0.0
H862 H 0.30886 0.75438 0.49303 0.0
H863 H 0.28297 0.70977 0.51602 0.0
H864 H 0.21448 0.76651 0.5604 0.0
H865 H 0.2351 0.71714 0.53623 0.0
H866 H 0.28496 0.05625 0.51014 0.0
H867 H 0.30977 0.00634 0.48828 0.0
H868 H 0.26977 0.0556 0.5491 0.0
H869 H 0.24065 0.01238 0.57032 0.0
C870 C 0.76721 0.5124 0.53746 0.0
C871 C 0.78305 0.57518 0.54585 0.0
C872 C 0.75357 0.63962 0.5111 0.0
C873 C 0.73877 0.57647 0.50213 0.0
N874 N 0.73203 0.4528 0.50492 0.0
N875 N 0.79494 0.69681 0.5402 0.0
C876 C 0.74567 0.51277 0.51491 0.0
C877 C 0.77716 0.63848 0.53253 0.0
N878 N 0.77284 0.45284 0.55132 0.0
N879 N 0.74439 0.70044 0.49921 0.0
H880 H 0.81197 0.69693 0.55605 0.0
H881 H 0.79436 0.74407 0.53034 0.0
H882 H 0.72746 0.70203 0.48331 0.0
H883 H 0.75181 0.74945 0.50571 0.0
H884 H 0.75996 0.40589 0.54792 0.0
H885 H 0.78982 0.451 0.56718 0.0
H886 H 0.73815 0.40324 0.51158 0.0
H887 H 0.71518 0.45275 0.489 0.0
C888 C 0.7564 0.96394 1.01164 0.0
C889 C 0.74135 0.89972 1.00416 0.0
C890 C 0.77128 0.841 0.03996 0.0
C891 C 0.78316 0.90633 0.04906 0.0
N892 N 0.78477 0.03091 0.04538 0.0
N893 N 0.73177 0.77787 1.01127 0.0
C894 C 0.77526 0.96814 0.03529 0.0
C895 C 0.74813 0.83826 1.01834 0.0
N896 N 0.7532 0.02033 0.99567 0.0
N897 N 0.78334 0.78182 0.05152 0.0
H898 H 0.71535 0.77476 0.99511 0.0
H899 H 0.73272 0.73221 1.02215 0.0
H900 H 0.8012 0.78299 0.06686 0.0
H901 H 0.77817 0.73202 0.04465 0.0
H902 H 0.76632 0.06737 0.99859 0.0
H903 H 0.73962 0.01804 0.97819 0.0
H904 H 0.77642 0.0784 0.03792 0.0
H905 H 0.79919 0.0354 0.06242 0.0
C906 C 0.24265 0.63378 0.03109 0.0
C907 C 0.2285 0.56839 0.03886 0.0
C908 C 0.25895 0.51279 1.00192 0.0
C909 C 0.27554 0.57688 0.99564 0.0
N910 N 0.28607 0.69728 1.00462 0.0
N911 N 0.22551 0.4444 0.03354 0.0
C912 C 0.26813 0.63721 1.01035 0.0
C913 C 0.23719 0.50752 0.02467 0.0
N914 N 0.23051 0.69259 0.04296 0.0
N915 N 0.26356 0.45748 0.98567 0.0
H916 H 0.2091 0.43903 0.04985 0.0
H917 H 0.23396 0.39714 0.02591 0.0
H918 H 0.27943 0.46027 0.96893 0.0
H919 H 0.24965 0.4108 0.98753 0.0
H920 H 0.23733 0.74268 0.037 0.0
H921 H 0.21118 0.69125 0.05766 0.0
H922 H 0.28472 0.74187 1.01598 0.0
H923 H 0.30409 0.70108 0.98908 0.0
C924 C 0.75053 -0.00098 0.53728 0.0
C925 C 0.73537 0.06173 0.54648 0.0
C926 C 0.77507 0.12895 0.51775 0.0
C927 C 0.78839 0.06616 0.50728 0.0
N928 N 0.787 0.94179 0.50453 0.0
N929 N 0.72977 0.18566 0.5443 0.0
C930 C 0.77559 0.00118 0.51637 0.0
C931 C 0.74673 0.12664 0.53634 0.0
N932 N 0.74182 0.93787 0.5493 0.0
N933 N 0.79033 0.19042 0.51025 0.0
H934 H 0.70901 0.18479 0.55795 0.0
H935 H 0.73442 0.23457 0.53622 0.0
H936 H 0.81164 0.19268 0.49713 0.0
H937 H 0.78395 0.23829 0.51839 0.0
H938 H 0.75446 0.89087 0.54548 0.0
H939 H 0.72337 0.93524 0.56451 0.0
H940 H 0.77606 0.89288 0.50818 0.0
H941 H 0.80628 0.94227 0.48981 0.0
C942 C 0.26887 0.32317 0.53279 0.0
C943 C 0.2867 0.38439 0.54073 0.0
C944 C 0.26379 0.44725 0.50289 0.0
C945 C 0.24454 0.38707 0.49574 0.0
N946 N 0.22569 0.26988 0.50405 0.0
N947 N 0.29913 0.50616 0.53543 0.0
C948 C 0.24622 0.32553 0.51081 0.0
C949 C 0.28367 0.4469 0.52627 0.0
N950 N 0.27477 0.2625 0.54589 0.0
N951 N 0.2634 0.50409 0.4869 0.0
H952 H 0.31438 0.50687 0.5522 0.0
H953 H 0.29525 0.55527 0.52746 0.0
H954 H 0.24836 0.50587 0.47001 0.0
H955 H 0.27932 0.54785 0.4894 0.0
H956 H 0.26509 0.21431 0.54014 0.0
H957 H 0.29148 0.25967 0.56188 0.0
H958 H 0.2229 0.22506 0.51526 0.0
H959 H 0.20974 0.27014 0.48759 0.0
C960 C 0.33708 0.03788 0.26969 0.0
C961 C 0.31004 0.00902 0.25403 0.0
C962 C 0.297 0.92149 0.28766 0.0
C963 C 0.32584 0.94684 0.30232 0.0
N964 N 0.37556 0.02417 0.30705 0.0
N965 N 0.26702 0.91883 0.24619 0.0
C966 C 0.34647 0.00394 0.29329 0.0
C967 C 0.29066 0.94958 0.26255 0.0
N968 N 0.35284 0.09893 0.26224 0.0
N969 N 0.27524 0.87156 0.29821 0.0
H970 H 0.26197 0.93795 0.22764 0.0
H971 H 0.2546 0.8714 0.25002 0.0
H972 H 0.27938 0.85052 0.31663 0.0
H973 H 0.25164 0.85503 0.28978 0.0
H974 H 0.37042 0.12667 0.27379 0.0
H975 H 0.34638 0.12447 0.24504 0.0
H976 H 0.39393 0.06106 0.30049 0.0
H977 H 0.38251 0.00067 0.32456 0.0
C978 C 0.72013 0.43465 0.26215 0.0
C979 C 0.69035 0.45887 0.24829 0.0
C980 C 0.67745 0.5442 0.28239 0.0
C981 C 0.70796 0.52156 0.29583 0.0
N982 N 0.76067 0.45161 0.29803 0.0
N983 N 0.64281 0.54039 0.2428 0.0
C984 C 0.73006 0.46862 0.28549 0.0
C985 C 0.66955 0.51479 0.25778 0.0
N986 N 0.73799 0.37757 0.25328 0.0
N987 N 0.65602 0.59341 0.29346 0.0
H988 H 0.63645 0.51918 0.22482 0.0
H989 H 0.6284 0.58496 0.24719 0.0
H990 H 0.66214 0.61763 0.31095 0.0
H991 H 0.63145 0.60802 0.28614 0.0
H992 H 0.75793 0.35246 0.26352 0.0
H993 H 0.73133 0.3526 0.23605 0.0
H994 H 0.77989 0.41815 0.29055 0.0
H995 H 0.76786 0.4743 0.31555 0.0
C996 C 0.68301 0.03441 0.7974 0.0
C997 C 0.68171 0.96166 0.80133 0.0
C998 C 0.67072 0.94303 0.75511 0.0
C999 C 0.67508 0.01545 0.75082 0.0
N1000 N 0.67402 0.13103 0.76763 0.0
N1001 N 0.66472 0.84881 0.78657 0.0
C1002 C 0.67688 0.0614 0.77213 0.0
C1003 C 0.67197 0.91678 0.78095 0.0
N1004 N 0.69271 0.07685 0.81732 0.0
N1005 N 0.66796 0.89918 0.73445 0.0
H1006 H 0.6659 0.82938 0.80552 0.0
H1007 H 0.65479 0.81359 0.77315 0.0
H1008 H 0.66509 0.91679 0.71546 0.0
H1009 H 0.66943 0.84535 0.73596 0.0
H1010 H 0.69796 0.12967 0.81508 0.0
H1011 H 0.69734 0.05832 0.83603 0.0
H1012 H 0.67271 0.16806 0.7823 0.0
H1013 H 0.66974 0.15071 0.74898 0.0
C1014 C 0.35117 0.43219 0.76176 0.0
C1015 C 0.32177 0.44913 0.746 0.0
C1016 C 0.3002 0.53106 0.77889 0.0
C1017 C 0.33077 0.51766 0.79388 0.0
N1018 N 0.3875 0.46263 0.7989 0.0
N1019 N 0.27166 0.52227 0.737 0.0
C1020 C 0.3569 0.47001 0.78513 0.0
C1021 C 0.29722 0.50086 0.75387 0.0
N1022 N 0.37287 0.37864 0.75459 0.0
N1023 N 0.27356 0.57111 0.78909 0.0
H1024 H 0.26914 0.50145 0.71843 0.0
H1025 H 0.25508 0.56458 0.74042 0.0
H1026 H 0.27492 0.593 0.80757 0.0
H1027 H 0.24897 0.57773 0.7803 0.0
H1028 H 0.3929 0.35887 0.76627 0.0
H1029 H 0.3693 0.35102 0.7374 0.0
H1030 H 0.40925 0.43371 0.79251 0.0
H1031 H 0.39195 0.48941 0.81617 0.0
C1032 C 0.84238 0.4056 0.77931 0.0
C1033 C 0.83482 0.44829 0.80099 0.0
C1034 C 0.83405 0.54957 0.77223 0.0
C1035 C 0.83363 0.50516 0.7504 0.0
N1036 N 0.83422 0.38873 0.73321 0.0
N1037 N 0.81857 0.56082 0.81772 0.0
C1038 C 0.83776 0.4325 0.75382 0.0
C1039 C 0.8301 0.52072 0.79751 0.0
N1040 N 0.85309 0.33882 0.78331 0.0
N1041 N 0.83699 0.61955 0.7685 0.0
H1042 H 0.81274 0.5405 0.83605 0.0
H1043 H 0.81141 0.61275 0.81561 0.0
H1044 H 0.83997 0.64119 0.74995 0.0
H1045 H 0.84007 0.65462 0.7837 0.0
H1046 H 0.86169 0.30635 0.76836 0.0
H1047 H 0.85661 0.31865 0.80197 0.0
H1048 H 0.83317 0.33486 0.7351 0.0
H1049 H 0.82938 0.40629 0.71447 0.0
C1050 C 0.22356 0.96832 0.79235 0.0
C1051 C 0.19834 0.01967 0.79938 0.0
C1052 C 0.1656 -0.00172 0.75924 0.0
C1053 C 0.19228 0.95067 0.7514 0.0
N1054 N 0.24851 0.89535 0.75831 0.0
N1055 N 0.14735 0.08897 0.78938 0.0
C1056 C 0.2218 0.93701 0.76742 0.0
C1057 C 0.16977 0.03602 0.78279 0.0
N1058 N 0.24864 0.94868 0.8099 0.0
N1059 N 0.13595 0.00566 0.7444 0.0
H1060 H 0.14967 0.11623 0.80678 0.0
H1061 H 0.12788 0.10849 0.77717 0.0
H1062 H 0.13266 0.97906 0.72696 0.0
H1063 H 0.1138 0.03453 0.75 0.0
H1064 H 0.2658 0.90695 0.80716 0.0
H1065 H 0.25036 0.97085 0.82831 0.0
H1066 H 0.27249 0.88795 0.76784 0.0
H1067 H 0.24771 0.87199 0.74006 0.0
C1068 C 0.22847 0.49133 0.27913 0.0
C1069 C 0.20387 0.44309 0.29016 0.0
C1070 C 0.16463 0.4581 0.25286 0.0
C1071 C 0.18802 0.50984 0.24282 0.0
N1072 N 0.2396 0.58238 0.24715 0.0
N1073 N 0.14771 0.38323 0.28914 0.0
C1074 C 0.21936 0.5281 0.25613 0.0
C1075 C 0.17159 0.42747 0.27748 0.0
N1076 N 0.26073 0.501 0.29052 0.0
N1077 N 0.13647 0.43686 0.23828 0.0
H1078 H 0.15299 0.35742 0.30651 0.0
H1079 H 0.12202 0.37478 0.28247 0.0
H1080 H 0.131 0.45814 0.22012 0.0
H1081 H 0.12012 0.3949 0.2431 0.0
H1082 H 0.2814 0.52999 0.28222 0.0
H1083 H 0.26776 0.47614 0.30769 0.0
H1084 H 0.2609 0.60356 0.25721 0.0
H1085 H 0.23347 0.6096 0.23024 0.0
C1086 C 0.82387 0.93032 0.30371 0.0
C1087 C 0.8392 -0.00258 0.3058 0.0
C1088 C 0.84555 0.00522 0.2585 0.0
C1089 C 0.82899 0.93888 0.25624 0.0
N1090 N 0.81355 0.83003 0.27628 0.0
N1091 N 0.87508 0.0875 0.28679 0.0
C1092 C 0.82208 0.89861 0.27885 0.0
C1093 C 0.85382 0.0306 0.2836 0.0
N1094 N 0.80894 0.89887 0.32503 0.0
N1095 N 0.85091 0.04651 0.23717 0.0
H1096 H 0.88124 0.10637 0.30521 0.0
H1097 H 0.88929 0.11107 0.27162 0.0
H1098 H 0.84561 0.03116 0.2183 0.0
H1099 H 0.85853 0.09846 0.23835 0.0
H1100 H 0.7935 0.85392 0.32407 0.0
H1101 H 0.81033 0.91973 0.3436 0.0
H1102 H 0.81087 0.79602 0.29198 0.0
H1103 H 0.81277 0.80594 0.25814 0.0
C1104 C 0.51367 0.24919 0.16819 0.0
C1105 C 0.52792 0.26499 0.14313 0.0
C1106 C 0.47602 0.20971 0.12322 0.0
C1107 C 0.45977 0.20214 0.14817 0.0
N1108 N 0.46084 0.22517 0.19423 0.0
N1109 N 0.5199 0.27065 0.09671 0.0
C1110 C 0.478 0.22467 0.17065 0.0
C1111 C 0.50835 0.248 0.12058 0.0
N1112 N 0.53461 0.25533 0.18962 0.0
N1113 N 0.46119 0.17837 0.10213 0.0
H1114 H 0.54315 0.29969 0.094 0.0
H1115 H 0.50477 0.26618 0.07996 0.0
H1116 H 0.43797 0.14857 0.10335 0.0
H1117 H 0.47373 0.17617 0.08398 0.0
H1118 H 0.52684 0.23774 0.20801 0.0
H1119 H 0.56108 0.27175 0.18863 0.0
H1120 H 0.47148 0.24812 0.21073 0.0
H1121 H 0.43462 0.20823 0.19684 0.0
C1122 C 0.51638 0.76688 0.41684 0.0
C1123 C 0.49151 0.76208 0.39641 0.0
C1124 C 0.53352 0.6929 0.37047 0.0
C1125 C 0.55891 0.70019 0.39045 0.0
N1126 N 0.5771 0.75052 0.43111 0.0
N1127 N 0.47683 0.72875 0.3527 0.0
C1128 C 0.55108 0.73915 0.4132 0.0
C1129 C 0.50024 0.72752 0.37286 0.0
N1130 N 0.5064 0.79635 0.43997 0.0
N1131 N 0.54103 0.65149 0.34957 0.0
H1132 H 0.45177 0.75172 0.35404 0.0
H1133 H 0.48288 0.71111 0.33407 0.0
H1134 H 0.56561 0.62733 0.34684 0.0
H1135 H 0.52246 0.63751 0.33568 0.0
H1136 H 0.52156 0.7941 0.45673 0.0
H1137 H 0.48172 0.81987 0.44297 0.0
H1138 H 0.57455 0.78502 0.44654 0.0
H1139 H 0.60245 0.72879 0.42973 0.0
C1140 C 0.53181 0.76696 0.88031 0.0
C1141 C 0.54996 0.77443 0.90417 0.0
C1142 C 0.50273 0.70911 0.92657 0.0
C1143 C 0.48265 0.70906 0.90341 0.0
N1144 N 0.47477 0.75278 0.85974 0.0
N1145 N 0.54855 0.767 0.95106 0.0
C1146 C 0.4962 0.74227 0.88066 0.0
C1147 C 0.5342 0.74974 0.92766 0.0
N1148 N 0.54888 0.78076 0.85723 0.0
N1149 N 0.4925 0.66856 0.94723 0.0
H1150 H 0.57089 0.79895 0.95272 0.0
H1151 H 0.53611 0.75568 0.9688 0.0
H1152 H 0.4702 0.63613 0.94688 0.0
H1153 H 0.50815 0.66177 0.96362 0.0
H1154 H 0.53785 0.76932 0.83925 0.0
H1155 H 0.57535 0.79709 0.856 0.0
H1156 H 0.48247 0.78285 0.84373 0.0
H1157 H 0.44809 0.73768 0.85946 0.0
C1158 C 0.48275 0.22587 0.62843 0.0
C1159 C 0.47231 0.26292 0.65109 0.0
C1160 C 0.53093 0.24247 0.6702 0.0
C1161 C 0.5404 0.20121 0.64837 0.0
N1162 N 0.52462 0.14648 0.60805 0.0
N1163 N 0.48412 0.30064 0.69473 0.0
C1164 C 0.51609 0.19096 0.62783 0.0
C1165 C 0.49579 0.26969 0.67232 0.0
N1166 N 0.46109 0.22559 0.60724 0.0
N1167 N 0.55585 0.25677 0.68861 0.0
H1168 H 0.45887 0.32256 0.69669 0.0
H1169 H 0.49834 0.30061 0.71196 0.0
H1170 H 0.58152 0.23625 0.68804 0.0
H1171 H 0.55208 0.29257 0.70349 0.0
H1172 H 0.46874 0.20648 0.58912 0.0
H1173 H 0.4361 0.24905 0.60714 0.0
H1174 H 0.50664 0.13026 0.59407 0.0
H1175 H 0.54921 0.12172 0.60651 0.0
C1176 C 0.99715 0.68657 0.67047 0.0
C1177 C 0.9723 0.69576 0.65023 0.0
C1178 C 0.01286 0.77771 0.62823 0.0
C1179 C 0.03878 0.76439 0.64739 0.0
N1180 N 0.05837 0.69768 0.68432 0.0
N1181 N 0.95841 0.74008 0.60764 0.0
C1182 C 0.03171 0.71642 0.66787 0.0
C1183 C 0.98071 0.73853 0.62845 0.0
N1184 N 0.98735 0.65112 0.69251 0.0
N1185 N 0.01854 0.82927 0.61029 0.0
H1186 H 0.93462 0.712 0.60707 0.0
H1187 H 0.96485 0.7643 0.59007 0.0
H1188 H 0.04184 0.85893 0.60952 0.0
H1189 H 0.99911 0.84664 0.59758 0.0
H1190 H 1.00281 0.64936 0.70916 0.0
H1191 H 0.96242 0.62774 0.69495 0.0
H1192 H 0.05599 0.65736 0.69778 0.0
H1193 H 0.084 0.7186 0.68316 0.0
C1194 C 0.02135 0.19279 0.91719 0.0
C1195 C 0.04464 0.20166 0.89549 0.0
C1196 C 1.0013 0.27774 0.87439 0.0
C1197 C 0.97749 0.26676 0.89565 0.0
N1198 N 0.96208 0.20751 0.93564 0.0
N1199 N 0.05588 0.24385 0.85202 0.0
C1200 C 0.98672 0.22231 0.91658 0.0
C1201 C 0.0343 0.24158 0.87363 0.0
N1202 N 0.03283 0.15779 0.9387 0.0
N1203 N 0.99259 0.32394 0.85525 0.0
H1204 H 0.08051 0.21908 0.85104 0.0
H1205 H 0.04853 0.26594 0.83441 0.0
H1206 H 0.96817 0.34951 0.85476 0.0
H1207 H 0.01017 0.3404 0.84069 0.0
H1208 H 0.01907 0.15664 0.95637 0.0
H1209 H 0.05739 0.13277 0.93944 0.0
H1210 H 0.96546 0.16932 0.94975 0.0
H1211 H 0.93699 0.23048 0.93652 0.0
C1212 C 0.04234 0.23415 0.42105 0.0
C1213 C 0.06153 0.23462 0.39709 0.0
C1214 C 0.01127 0.1769 0.37599 0.0
C1215 C 0.99359 0.17093 0.40048 0.0
N1216 N 0.99674 0.1776 0.44721 0.0
N1217 N 0.06761 0.19195 0.35319 0.0
C1218 C 0.01059 0.19442 0.42331 0.0
C1219 C 0.04701 0.20158 0.37496 0.0
N1220 N 0.05343 0.27422 0.44131 0.0
N1221 N 0.99355 0.16223 0.35362 0.0
H1222 H 0.0941 0.20815 0.35185 0.0
H1223 H 0.05949 0.16201 0.33749 0.0
H1224 H 0.96719 0.14516 0.35341 0.0
H1225 H 1.00401 0.17292 0.33518 0.0
H1226 H 0.03839 0.28094 0.45826 0.0
H1227 H 0.07576 0.30649 0.44017 0.0
H1228 H 0.00988 0.18792 0.46451 0.0
H1229 H 0.974 0.14683 0.44962 0.0
C1230 C 0.98393 0.75777 0.16678 0.0
C1231 C 0.9641 0.77763 0.14469 0.0
C1232 C 0.01032 0.72911 0.11597 0.0
C1233 C 0.03118 0.71347 0.13802 0.0
N1234 N 0.0416 0.72724 0.18391 0.0
N1235 N 0.96174 0.79635 0.09835 0.0
C1236 C 0.0191 0.73215 0.1633 0.0
C1237 C 0.97833 0.76755 0.11927 0.0
N1238 N 0.96869 0.76062 0.19103 0.0
N1239 N 0.02032 0.70497 0.09202 0.0
H1240 H 0.93854 0.82572 0.10007 0.0
H1241 H 0.97273 0.79678 0.07967 0.0
H1242 H 0.04349 0.6764 0.08884 0.0
H1243 H 1.00419 0.70817 0.07574 0.0
H1244 H 0.98041 0.73947 0.20748 0.0
H1245 H 0.94294 0.77882 0.19443 0.0
H1246 H 0.03554 0.74685 0.20228 0.0
H1247 H 0.06774 0.7096 0.18211 0.0
loop_
_geom_bond_atom_site_label_1
_geom_bond_atom_site_label_2
_geom_bond_distance
_geom_bond_site_symmetry_2
_ccdc_geom_bond_type
Co0 N4 2.148 . S
Co0 N10 2.128 . S
Co0 N20 2.194 . S
Co0 O25 2.351 . S
Co0 O26 2.155 . S
Co0 O27 2.096 . S
C1 N4 1.301 . S
C1 N5 1.328 . S
C1 H6 0.930 . S
C2 C3 1.333 . S
C2 N4 1.317 . S
C2 H7 0.930 . S
C3 C2 1.333 . S
C3 N5 1.350 . S
C3 H29 0.931 . S
N4 Co0 2.148 . S
N4 C1 1.301 . S
N4 C2 1.317 . S
N5 C1 1.328 . S
N5 C3 1.350 . S
H6 C1 0.930 . S
H7 C2 0.930 . S
C8 O9 1.224 . S
C8 O27 1.247 . S
O9 C8 1.224 . S
N10 Co0 2.128 . S
N10 C11 1.355 . S
N10 C13 1.311 . S
C11 N10 1.355 . S
C11 C12 1.363 . S
C11 H23 0.929 . S
C12 C11 1.363 . S
C12 N14 1.375 . S
C12 H30 0.931 . S
C13 N10 1.311 . S
C13 N14 1.347 . S
C13 H24 0.929 . S
N14 C12 1.375 . S
N14 C13 1.347 . S
C15 C18 1.365 . S
C15 N20 1.328 . S
C15 H21 0.929 . S
C16 C17 1.362 . S
C16 C19 1.378 . S
C16 H31 0.929 . S
C17 C16 1.362 . S
C17 C18 1.366 . S
C18 C15 1.365 . S
C18 C17 1.366 . S
C18 H32 0.930 . S
C19 C16 1.378 . S
C19 N20 1.315 . S
C19 H22 0.930 . S
N20 Co0 2.194 . S
N20 C15 1.328 . S
N20 C19 1.315 . S
H21 C15 0.929 . S
H22 C19 0.930 . S
H23 C11 0.929 . S
H24 C13 0.929 . S
O25 Co0 2.351 . S
O25 C28 1.244 . S
O26 Co0 2.155 . S
O26 C28 1.240 . S
O27 Co0 2.096 . S
O27 C8 1.247 . S
C28 O25 1.244 . S
C28 O26 1.240 . S
H29 C3 0.931 . S
H30 C12 0.931 . S
H31 C16 0.929 . S
H32 C18 0.930 . S
Co33 N37 2.148 . S
Co33 N43 2.128 . S
Co33 N53 2.194 . S
Co33 O58 2.351 . S
Co33 O59 2.155 . S
Co33 O60 2.096 . S
C34 N37 1.301 . S
C34 N38 1.328 . S
C34 H39 0.930 . S
C35 C36 1.333 . S
C35 N37 1.317 . S
C35 H40 0.930 . S
C36 C35 1.333 . S
C36 N38 1.350 . S
C36 H62 0.931 . S
N37 Co33 2.148 . S
N37 C34 1.301 . S
N37 C35 1.317 . S
N38 C34 1.328 . S
N38 C36 1.350 . S
H39 C34 0.930 . S
H40 C35 0.930 . S
C41 O42 1.224 . S
C41 O60 1.247 . S
O42 C41 1.224 . S
N43 Co33 2.128 . S
N43 C44 1.355 . S
N43 C46 1.311 . S
C44 N43 1.355 . S
C44 C45 1.363 . S
C44 H56 0.929 . S
C45 C44 1.363 . S
C45 N47 1.375 . S
C45 H63 0.931 . S
C46 N43 1.311 . S
C46 N47 1.347 . S
C46 H57 0.929 . S
N47 C45 1.375 . S
N47 C46 1.347 . S
C48 C51 1.365 . S
C48 N53 1.328 . S
C48 H54 0.929 . S
C49 C50 1.362 . S
C49 C52 1.378 . S
C49 H64 0.929 . S
C50 C49 1.362 . S
C50 C51 1.366 . S
C51 C48 1.365 . S
C51 C50 1.366 . S
C51 H65 0.930 . S
C52 C49 1.378 . S
C52 N53 1.315 . S
C52 H55 0.930 . S
N53 Co33 2.194 . S
N53 C48 1.328 . S
N53 C52 1.315 . S
H54 C48 0.929 . S
H55 C52 0.930 . S
H56 C44 0.929 . S
H57 C46 0.929 . S
O58 Co33 2.351 . S
O58 C61 1.244 . S
O59 Co33 2.155 . S
O59 C61 1.240 . S
O60 Co33 2.096 . S
O60 C41 1.247 . S
C61 O58 1.244 . S
C61 O59 1.240 . S
H62 C36 0.931 . S
H63 C45 0.931 . S
H64 C49 0.929 . S
H65 C51 0.930 . S
Co66 N70 2.148 . S
Co66 N76 2.128 . S
Co66 N86 2.194 . S
Co66 O91 2.351 . S
Co66 O92 2.155 . S
Co66 O93 2.096 . S
C67 N70 1.301 . S
C67 N71 1.328 . S
C67 H72 0.930 . S
C68 C69 1.333 . S
C68 N70 1.317 . S
C68 H73 0.930 . S
C69 C68 1.333 . S
C69 N71 1.350 . S
C69 H95 0.931 . S
N70 Co66 2.148 . S
N70 C67 1.301 . S
N70 C68 1.317 . S
N71 C67 1.328 . S
N71 C69 1.350 . S
H72 C67 0.930 . S
H73 C68 0.930 . S
C74 O75 1.224 . S
C74 O93 1.247 . S
O75 C74 1.224 . S
N76 Co66 2.128 . S
N76 C77 1.355 . S
N76 C79 1.311 . S
C77 N76 1.355 . S
C77 C78 1.363 . S
C77 H89 0.929 . S
C78 C77 1.363 . S
C78 N80 1.375 . S
C78 H96 0.931 . S
C79 N76 1.311 . S
C79 N80 1.347 . S
C79 H90 0.929 . S
N80 C78 1.375 . S
N80 C79 1.347 . S
C81 C84 1.365 . S
C81 N86 1.328 . S
C81 H87 0.929 . S
C82 C83 1.362 . S
C82 C85 1.378 . S
C82 H97 0.929 . S
C83 C82 1.362 . S
C83 C84 1.366 . S
C84 C81 1.365 . S
C84 C83 1.366 . S
C84 H98 0.930 . S
C85 C82 1.378 . S
C85 N86 1.315 . S
C85 H88 0.930 . S
N86 Co66 2.194 . S
N86 C81 1.328 . S
N86 C85 1.315 . S
H87 C81 0.929 . S
H88 C85 0.930 . S
H89 C77 0.929 . S
H90 C79 0.929 . S
O91 Co66 2.351 . S
O91 C94 1.244 . S
O92 Co66 2.155 . S
O92 C94 1.240 . S
O93 Co66 2.096 . S
O93 C74 1.247 . S
C94 O91 1.244 . S
C94 O92 1.240 . S
H95 C69 0.931 . S
H96 C78 0.931 . S
H97 C82 0.929 . S
H98 C84 0.930 . S
Co99 N103 2.148 . S
Co99 N109 2.128 . S
Co99 N119 2.194 . S
Co99 O124 2.351 . S
Co99 O125 2.155 . S
Co99 O126 2.096 . S
C100 N103 1.301 . S
C100 N104 1.328 . S
C100 H105 0.930 . S
C101 C102 1.333 . S
C101 N103 1.317 . S
C101 H106 0.930 . S
C102 C101 1.333 . S
C102 N104 1.350 . S
C102 H128 0.931 . S
N103 Co99 2.148 . S
N103 C100 1.301 . S
N103 C101 1.317 . S
N104 C100 1.328 . S
N104 C102 1.350 . S
H105 C100 0.930 . S
H106 C101 0.930 . S
C107 O108 1.224 . S
C107 O126 1.247 . S
O108 C107 1.224 . S
N109 Co99 2.128 . S
N109 C110 1.355 . S
N109 C112 1.311 . S
C110 N109 1.355 . S
C110 C111 1.363 . S
C110 H122 0.929 . S
C111 C110 1.363 . S
C111 N113 1.375 . S
C111 H129 0.931 . S
C112 N109 1.311 . S
C112 N113 1.347 . S
C112 H123 0.929 . S
N113 C111 1.375 . S
N113 C112 1.347 . S
C114 C117 1.365 . S
C114 N119 1.328 . S
C114 H120 0.929 . S
C115 C116 1.362 . S
C115 C118 1.378 . S
C115 H130 0.929 . S
C116 C115 1.362 . S
C116 C117 1.366 . S
C117 C114 1.365 . S
C117 C116 1.366 . S
C117 H131 0.930 . S
C118 C115 1.378 . S
C118 N119 1.315 . S
C118 H121 0.930 . S
N119 Co99 2.194 . S
N119 C114 1.328 . S
N119 C118 1.315 . S
H120 C114 0.929 . S
H121 C118 0.930 . S
H122 C110 0.929 . S
H123 C112 0.929 . S
O124 Co99 2.351 . S
O124 C127 1.244 . S
O125 Co99 2.155 . S
O125 C127 1.240 . S
O126 Co99 2.096 . S
O126 C107 1.247 . S
C127 O124 1.244 . S
C127 O125 1.240 . S
H128 C102 0.931 . S
H129 C111 0.931 . S
H130 C115 0.929 . S
H131 C117 0.930 . S
Co132 N136 2.148 . S
Co132 N142 2.128 . S
Co132 N152 2.194 . S
Co132 O157 2.351 . S
Co132 O158 2.155 . S
Co132 O159 2.096 . S
C133 N136 1.301 . S
C133 N137 1.328 . S
C133 H138 0.930 . S
C134 C135 1.333 . S
C134 N136 1.317 . S
C134 H139 0.930 . S
C135 C134 1.333 . S
C135 N137 1.350 . S
C135 H161 0.931 . S
N136 Co132 2.148 . S
N136 C133 1.301 . S
N136 C134 1.317 . S
N137 C133 1.328 . S
N137 C135 1.350 . S
H138 C133 0.930 . S
H139 C134 0.930 . S
C140 O141 1.224 . S
C140 O159 1.247 . S
O141 C140 1.224 . S
N142 Co132 2.128 . S
N142 C143 1.355 . S
N142 C145 1.311 . S
C143 N142 1.355 . S
C143 C144 1.363 . S
C143 H155 0.929 . S
C144 C143 1.363 . S
C144 N146 1.375 . S
C144 H162 0.931 . S
C145 N142 1.311 . S
C145 N146 1.347 . S
C145 H156 0.929 . S
N146 C144 1.375 . S
N146 C145 1.347 . S
C147 C150 1.365 . S
C147 N152 1.328 . S
C147 H153 0.929 . S
C148 C149 1.362 . S
C148 C151 1.378 . S
C148 H163 0.929 . S
C149 C148 1.362 . S
C149 C150 1.366 . S
C150 C147 1.365 . S
C150 C149 1.366 . S
C150 H164 0.930 . S
C151 C148 1.378 . S
C151 N152 1.315 . S
C151 H154 0.930 . S
N152 Co132 2.194 . S
N152 C147 1.328 . S
N152 C151 1.315 . S
H153 C147 0.929 . S
H154 C151 0.930 . S
H155 C143 0.929 . S
H156 C145 0.929 . S
O157 Co132 2.351 . S
O157 C160 1.244 . S
O158 Co132 2.155 . S
O158 C160 1.240 . S
O159 Co132 2.096 . S
O159 C140 1.247 . S
C160 O157 1.244 . S
C160 O158 1.240 . S
H161 C135 0.931 . S
H162 C144 0.931 . S
H163 C148 0.929 . S
H164 C150 0.930 . S
Co165 N169 2.148 . S
Co165 N175 2.128 . S
Co165 N185 2.194 . S
Co165 O190 2.351 . S
Co165 O191 2.155 . S
Co165 O192 2.096 . S
C166 N169 1.301 . S
C166 N170 1.328 . S
C166 H171 0.930 . S
C167 C168 1.333 . S
C167 N169 1.317 . S
C167 H172 0.930 . S
C168 C167 1.333 . S
C168 N170 1.350 . S
C168 H194 0.931 . S
N169 Co165 2.148 . S
N169 C166 1.301 . S
N169 C167 1.317 . S
N170 C166 1.328 . S
N170 C168 1.350 . S
H171 C166 0.930 . S
H172 C167 0.930 . S
C173 O174 1.224 . S
C173 O192 1.247 . S
O174 C173 1.224 . S
N175 Co165 2.128 . S
N175 C176 1.355 . S
N175 C178 1.311 . S
C176 N175 1.355 . S
C176 C177 1.363 . S
C176 H188 0.929 . S
C177 C176 1.363 . S
C177 N179 1.375 . S
C177 H195 0.931 . S
C178 N175 1.311 . S
C178 N179 1.347 . S
C178 H189 0.929 . S
N179 C177 1.375 . S
N179 C178 1.347 . S
C180 C183 1.365 . S
C180 N185 1.328 . S
C180 H186 0.929 . S
C181 C182 1.362 . S
C181 C184 1.378 . S
C181 H196 0.929 . S
C182 C181 1.362 . S
C182 C183 1.366 . S
C183 C180 1.365 . S
C183 C182 1.366 . S
C183 H197 0.930 . S
C184 C181 1.378 . S
C184 N185 1.315 . S
C184 H187 0.930 . S
N185 Co165 2.194 . S
N185 C180 1.328 . S
N185 C184 1.315 . S
H186 C180 0.929 . S
H187 C184 0.930 . S
H188 C176 0.929 . S
H189 C178 0.929 . S
O190 Co165 2.351 . S
O190 C193 1.244 . S
O191 Co165 2.155 . S
O191 C193 1.240 . S
O192 Co165 2.096 . S
O192 C173 1.247 . S
C193 O190 1.244 . S
C193 O191 1.240 . S
H194 C168 0.931 . S
H195 C177 0.931 . S
H196 C181 0.929 . S
H197 C183 0.930 . S
Co198 N202 2.148 . S
Co198 N208 2.128 . S
Co198 N218 2.194 . S
Co198 O223 2.351 . S
Co198 O224 2.155 . S
Co198 O225 2.096 . S
C199 N202 1.301 . S
C199 N203 1.328 . S
C199 H204 0.930 . S
C200 C201 1.333 . S
C200 N202 1.317 . S
C200 H205 0.930 . S
C201 C200 1.333 . S
C201 N203 1.350 . S
C201 H227 0.931 . S
N202 Co198 2.148 . S
N202 C199 1.301 . S
N202 C200 1.317 . S
N203 C199 1.328 . S
N203 C201 1.350 . S
H204 C199 0.930 . S
H205 C200 0.930 . S
C206 O207 1.224 . S
C206 O225 1.247 . S
O207 C206 1.224 . S
N208 Co198 2.128 . S
N208 C209 1.355 . S
N208 C211 1.311 . S
C209 N208 1.355 . S
C209 C210 1.363 . S
C209 H221 0.929 . S
C210 C209 1.363 . S
C210 N212 1.375 . S
C210 H228 0.931 . S
C211 N208 1.311 . S
C211 N212 1.347 . S
C211 H222 0.929 . S
N212 C210 1.375 . S
N212 C211 1.347 . S
C213 C216 1.365 . S
C213 N218 1.328 . S
C213 H219 0.929 . S
C214 C215 1.362 . S
C214 C217 1.378 . S
C214 H229 0.929 . S
C215 C214 1.362 . S
C215 C216 1.366 . S
C216 C213 1.365 . S
C216 C215 1.366 . S
C216 H230 0.930 . S
C217 C214 1.378 . S
C217 N218 1.315 . S
C217 H220 0.930 . S
N218 Co198 2.194 . S
N218 C213 1.328 . S
N218 C217 1.315 . S
H219 C213 0.929 . S
H220 C217 0.930 . S
H221 C209 0.929 . S
H222 C211 0.929 . S
O223 Co198 2.351 . S
O223 C226 1.244 . S
O224 Co198 2.155 . S
O224 C226 1.240 . S
O225 Co198 2.096 . S
O225 C206 1.247 . S
C226 O223 1.244 . S
C226 O224 1.240 . S
H227 C201 0.931 . S
H228 C210 0.931 . S
H229 C214 0.929 . S
H230 C216 0.930 . S
Co231 N235 2.148 . S
Co231 N241 2.128 . S
Co231 N251 2.194 . S
Co231 O256 2.351 . S
Co231 O257 2.155 . S
Co231 O258 2.096 . S
C232 N235 1.301 . S
C232 N236 1.328 . S
C232 H237 0.930 . S
C233 C234 1.333 . S
C233 N235 1.317 . S
C233 H238 0.930 . S
C234 C233 1.333 . S
C234 N236 1.350 . S
C234 H260 0.931 . S
N235 Co231 2.148 . S
N235 C232 1.301 . S
N235 C233 1.317 . S
N236 C232 1.328 . S
N236 C234 1.350 . S
H237 C232 0.930 . S
H238 C233 0.930 . S
C239 O240 1.224 . S
C239 O258 1.247 . S
O240 C239 1.224 . S
N241 Co231 2.128 . S
N241 C242 1.355 . S
N241 C244 1.311 . S
C242 N241 1.355 . S
C242 C243 1.363 . S
C242 H254 0.929 . S
C243 C242 1.363 . S
C243 N245 1.375 . S
C243 H261 0.931 . S
C244 N241 1.311 . S
C244 N245 1.347 . S
C244 H255 0.929 . S
N245 C243 1.375 . S
N245 C244 1.347 . S
C246 C249 1.365 . S
C246 N251 1.328 . S
C246 H252 0.929 . S
C247 C248 1.362 . S
C247 C250 1.378 . S
C247 H262 0.929 . S
C248 C247 1.362 . S
C248 C249 1.366 . S
C249 C246 1.365 . S
C249 C248 1.366 . S
C249 H263 0.930 . S
C250 C247 1.378 . S
C250 N251 1.315 . S
C250 H253 0.930 . S
N251 Co231 2.194 . S
N251 C246 1.328 . S
N251 C250 1.315 . S
H252 C246 0.929 . S
H253 C250 0.930 . S
H254 C242 0.929 . S
H255 C244 0.929 . S
O256 Co231 2.351 . S
O256 C259 1.244 . S
O257 Co231 2.155 . S
O257 C259 1.240 . S
O258 Co231 2.096 . S
O258 C239 1.247 . S
C259 O256 1.244 . S
C259 O257 1.240 . S
H260 C234 0.931 . S
H261 C243 0.931 . S
H262 C247 0.929 . S
H263 C249 0.930 . S
Co264 N268 2.148 . S
Co264 N274 2.128 . S
Co264 N284 2.194 . S
Co264 O289 2.351 . S
Co264 O290 2.155 . S
Co264 O291 2.096 . S
C265 N268 1.301 . S
C265 N269 1.328 . S
C265 H270 0.930 . S
C266 C267 1.333 . S
C266 N268 1.317 . S
C266 H271 0.930 . S
C267 C266 1.333 . S
C267 N269 1.350 . S
C267 H293 0.931 . S
N268 Co264 2.148 . S
N268 C265 1.301 . S
N268 C266 1.317 . S
N269 C265 1.328 . S
N269 C267 1.350 . S
H270 C265 0.930 . S
H271 C266 0.930 . S
C272 O273 1.224 . S
C272 O291 1.247 . S
O273 C272 1.224 . S
N274 Co264 2.128 . S
N274 C275 1.355 . S
N274 C277 1.311 . S
C275 N274 1.355 . S
C275 C276 1.363 . S
C275 H287 0.929 . S
C276 C275 1.363 . S
C276 N278 1.375 . S
C276 H294 0.931 . S
C277 N274 1.311 . S
C277 N278 1.347 . S
C277 H288 0.929 . S
N278 C276 1.375 . S
N278 C277 1.347 . S
C279 C282 1.365 . S
C279 N284 1.328 . S
C279 H285 0.929 . S
C280 C281 1.362 . S
C280 C283 1.378 . S
C280 H295 0.929 . S
C281 C280 1.362 . S
C281 C282 1.366 . S
C282 C279 1.365 . S
C282 C281 1.366 . S
C282 H296 0.930 . S
C283 C280 1.378 . S
C283 N284 1.315 . S
C283 H286 0.930 . S
N284 Co264 2.194 . S
N284 C279 1.328 . S
N284 C283 1.315 . S
H285 C279 0.929 . S
H286 C283 0.930 . S
H287 C275 0.929 . S
H288 C277 0.929 . S
O289 Co264 2.351 . S
O289 C292 1.244 . S
O290 Co264 2.155 . S
O290 C292 1.240 . S
O291 Co264 2.096 . S
O291 C272 1.247 . S
C292 O289 1.244 . S
C292 O290 1.240 . S
H293 C267 0.931 . S
H294 C276 0.931 . S
H295 C280 0.929 . S
H296 C282 0.930 . S
Co297 N301 2.148 . S
Co297 N307 2.128 . S
Co297 N317 2.194 . S
Co297 O322 2.351 . S
Co297 O323 2.155 . S
Co297 O324 2.096 . S
C298 N301 1.301 . S
C298 N302 1.328 . S
C298 H303 0.930 . S
C299 C300 1.333 . S
C299 N301 1.317 . S
C299 H304 0.930 . S
C300 C299 1.333 . S
C300 N302 1.350 . S
C300 H326 0.931 . S
N301 Co297 2.148 . S
N301 C298 1.301 . S
N301 C299 1.317 . S
N302 C298 1.328 . S
N302 C300 1.350 . S
H303 C298 0.930 . S
H304 C299 0.930 . S
C305 O306 1.224 . S
C305 O324 1.247 . S
O306 C305 1.224 . S
N307 Co297 2.128 . S
N307 C308 1.355 . S
N307 C310 1.311 . S
C308 N307 1.355 . S
C308 C309 1.363 . S
C308 H320 0.929 . S
C309 C308 1.363 . S
C309 N311 1.375 . S
C309 H327 0.931 . S
C310 N307 1.311 . S
C310 N311 1.347 . S
C310 H321 0.929 . S
N311 C309 1.375 . S
N311 C310 1.347 . S
C312 C315 1.365 . S
C312 N317 1.328 . S
C312 H318 0.929 . S
C313 C314 1.362 . S
C313 C316 1.378 . S
C313 H328 0.929 . S
C314 C313 1.362 . S
C314 C315 1.366 . S
C315 C312 1.365 . S
C315 C314 1.366 . S
C315 H329 0.930 . S
C316 C313 1.378 . S
C316 N317 1.315 . S
C316 H319 0.930 . S
N317 Co297 2.194 . S
N317 C312 1.328 . S
N317 C316 1.315 . S
H318 C312 0.929 . S
H319 C316 0.930 . S
H320 C308 0.929 . S
H321 C310 0.929 . S
O322 Co297 2.351 . S
O322 C325 1.244 . S
O323 Co297 2.155 . S
O323 C325 1.240 . S
O324 Co297 2.096 . S
O324 C305 1.247 . S
C325 O322 1.244 . S
C325 O323 1.240 . S
H326 C300 0.931 . S
H327 C309 0.931 . S
H328 C313 0.929 . S
H329 C315 0.930 . S
Co330 N334 2.148 . S
Co330 N340 2.128 . S
Co330 N350 2.194 . S
Co330 O355 2.351 . S
Co330 O356 2.155 . S
Co330 O357 2.096 . S
C331 N334 1.301 . S
C331 N335 1.328 . S
C331 H336 0.930 . S
C332 C333 1.333 . S
C332 N334 1.317 . S
C332 H337 0.930 . S
C333 C332 1.333 . S
C333 N335 1.350 . S
C333 H359 0.931 . S
N334 Co330 2.148 . S
N334 C331 1.301 . S
N334 C332 1.317 . S
N335 C331 1.328 . S
N335 C333 1.350 . S
H336 C331 0.930 . S
H337 C332 0.930 . S
C338 O339 1.224 . S
C338 O357 1.247 . S
O339 C338 1.224 . S
N340 Co330 2.128 . S
N340 C341 1.355 . S
N340 C343 1.311 . S
C341 N340 1.355 . S
C341 C342 1.363 . S
C341 H353 0.929 . S
C342 C341 1.363 . S
C342 N344 1.375 . S
C342 H360 0.931 . S
C343 N340 1.311 . S
C343 N344 1.347 . S
C343 H354 0.929 . S
N344 C342 1.375 . S
N344 C343 1.347 . S
C345 C348 1.365 . S
C345 N350 1.328 . S
C345 H351 0.929 . S
C346 C347 1.362 . S
C346 C349 1.378 . S
C346 H361 0.929 . S
C347 C346 1.362 . S
C347 C348 1.366 . S
C348 C345 1.365 . S
C348 C347 1.366 . S
C348 H362 0.930 . S
C349 C346 1.378 . S
C349 N350 1.315 . S
C349 H352 0.930 . S
N350 Co330 2.194 . S
N350 C345 1.328 . S
N350 C349 1.315 . S
H351 C345 0.929 . S
H352 C349 0.930 . S
H353 C341 0.929 . S
H354 C343 0.929 . S
O355 Co330 2.351 . S
O355 C358 1.244 . S
O356 Co330 2.155 . S
O356 C358 1.240 . S
O357 Co330 2.096 . S
O357 C338 1.247 . S
C358 O355 1.244 . S
C358 O356 1.240 . S
H359 C333 0.931 . S
H360 C342 0.931 . S
H361 C346 0.929 . S
H362 C348 0.930 . S
Co363 N367 2.148 . S
Co363 N373 2.128 . S
Co363 N383 2.194 . S
Co363 O388 2.351 . S
Co363 O389 2.155 . S
Co363 O390 2.096 . S
C364 N367 1.301 . S
C364 N368 1.328 . S
C364 H369 0.930 . S
C365 C366 1.333 . S
C365 N367 1.317 . S
C365 H370 0.930 . S
C366 C365 1.333 . S
C366 N368 1.350 . S
C366 H392 0.931 . S
N367 Co363 2.148 . S
N367 C364 1.301 . S
N367 C365 1.317 . S
N368 C364 1.328 . S
N368 C366 1.350 . S
H369 C364 0.930 . S
H370 C365 0.930 . S
C371 O372 1.224 . S
C371 O390 1.247 . S
O372 C371 1.224 . S
N373 Co363 2.128 . S
N373 C374 1.355 . S
N373 C376 1.311 . S
C374 N373 1.355 . S
C374 C375 1.363 . S
C374 H386 0.929 . S
C375 C374 1.363 . S
C375 N377 1.375 . S
C375 H393 0.931 . S
C376 N373 1.311 . S
C376 N377 1.347 . S
C376 H387 0.929 . S
N377 C375 1.375 . S
N377 C376 1.347 . S
C378 C381 1.365 . S
C378 N383 1.328 . S
C378 H384 0.929 . S
C379 C380 1.362 . S
C379 C382 1.378 . S
C379 H394 0.929 . S
C380 C379 1.362 . S
C380 C381 1.366 . S
C381 C378 1.365 . S
C381 C380 1.366 . S
C381 H395 0.930 . S
C382 C379 1.378 . S
C382 N383 1.315 . S
C382 H385 0.930 . S
N383 Co363 2.194 . S
N383 C378 1.328 . S
N383 C382 1.315 . S
H384 C378 0.929 . S
H385 C382 0.930 . S
H386 C374 0.929 . S
H387 C376 0.929 . S
O388 Co363 2.351 . S
O388 C391 1.244 . S
O389 Co363 2.155 . S
O389 C391 1.240 . S
O390 Co363 2.096 . S
O390 C371 1.247 . S
C391 O388 1.244 . S
C391 O389 1.240 . S
H392 C366 0.931 . S
H393 C375 0.931 . S
H394 C379 0.929 . S
H395 C381 0.930 . S
Co396 N400 2.148 . S
Co396 N406 2.128 . S
Co396 N416 2.194 . S
Co396 O421 2.351 . S
Co396 O422 2.155 . S
Co396 O423 2.096 . S
C397 N400 1.301 . S
C397 N401 1.328 . S
C397 H402 0.930 . S
C398 C399 1.333 . S
C398 N400 1.317 . S
C398 H403 0.930 . S
C399 C398 1.333 . S
C399 N401 1.350 . S
C399 H425 0.931 . S
N400 Co396 2.148 . S
N400 C397 1.301 . S
N400 C398 1.317 . S
N401 C397 1.328 . S
N401 C399 1.350 . S
H402 C397 0.930 . S
H403 C398 0.930 . S
C404 O405 1.224 . S
C404 O423 1.247 . S
O405 C404 1.224 . S
N406 Co396 2.128 . S
N406 C407 1.355 . S
N406 C409 1.311 . S
C407 N406 1.355 . S
C407 C408 1.363 . S
C407 H419 0.929 . S
C408 C407 1.363 . S
C408 N410 1.375 . S
C408 H426 0.931 . S
C409 N406 1.311 . S
C409 N410 1.347 . S
C409 H420 0.929 . S
N410 C408 1.375 . S
N410 C409 1.347 . S
C411 C414 1.365 . S
C411 N416 1.328 . S
C411 H417 0.929 . S
C412 C413 1.362 . S
C412 C415 1.378 . S
C412 H427 0.929 . S
C413 C412 1.362 . S
C413 C414 1.366 . S
C414 C411 1.365 . S
C414 C413 1.366 . S
C414 H428 0.930 . S
C415 C412 1.378 . S
C415 N416 1.315 . S
C415 H418 0.930 . S
N416 Co396 2.194 . S
N416 C411 1.328 . S
N416 C415 1.315 . S
H417 C411 0.929 . S
H418 C415 0.930 . S
H419 C407 0.929 . S
H420 C409 0.929 . S
O421 Co396 2.351 . S
O421 C424 1.244 . S
O422 Co396 2.155 . S
O422 C424 1.240 . S
O423 Co396 2.096 . S
O423 C404 1.247 . S
C424 O421 1.244 . S
C424 O422 1.240 . S
H425 C399 0.931 . S
H426 C408 0.931 . S
H427 C412 0.929 . S
H428 C414 0.930 . S
Co429 N433 2.148 . S
Co429 N439 2.128 . S
Co429 N449 2.194 . S
Co429 O454 2.351 . S
Co429 O455 2.155 . S
Co429 O456 2.096 . S
C430 N433 1.301 . S
C430 N434 1.328 . S
C430 H435 0.930 . S
C431 C432 1.333 . S
C431 N433 1.317 . S
C431 H436 0.930 . S
C432 C431 1.333 . S
C432 N434 1.350 . S
C432 H458 0.931 . S
N433 Co429 2.148 . S
N433 C430 1.301 . S
N433 C431 1.317 . S
N434 C430 1.328 . S
N434 C432 1.350 . S
H435 C430 0.930 . S
H436 C431 0.930 . S
C437 O438 1.224 . S
C437 O456 1.247 . S
O438 C437 1.224 . S
N439 Co429 2.128 . S
N439 C440 1.355 . S
N439 C442 1.311 . S
C440 N439 1.355 . S
C440 C441 1.363 . S
C440 H452 0.929 . S
C441 C440 1.363 . S
C441 N443 1.375 . S
C441 H459 0.931 . S
C442 N439 1.311 . S
C442 N443 1.347 . S
C442 H453 0.929 . S
N443 C441 1.375 . S
N443 C442 1.347 . S
C444 C447 1.365 . S
C444 N449 1.328 . S
C444 H450 0.929 . S
C445 C446 1.362 . S
C445 C448 1.378 . S
C445 H460 0.929 . S
C446 C445 1.362 . S
C446 C447 1.366 . S
C447 C444 1.365 . S
C447 C446 1.366 . S
C447 H461 0.930 . S
C448 C445 1.378 . S
C448 N449 1.315 . S
C448 H451 0.930 . S
N449 Co429 2.194 . S
N449 C444 1.328 . S
N449 C448 1.315 . S
H450 C444 0.929 . S
H451 C448 0.930 . S
H452 C440 0.929 . S
H453 C442 0.929 . S
O454 Co429 2.351 . S
O454 C457 1.244 . S
O455 Co429 2.155 . S
O455 C457 1.240 . S
O456 Co429 2.096 . S
O456 C437 1.247 . S
C457 O454 1.244 . S
C457 O455 1.240 . S
H458 C432 0.931 . S
H459 C441 0.931 . S
H460 C445 0.929 . S
H461 C447 0.930 . S
Co462 N466 2.148 . S
Co462 N472 2.128 . S
Co462 N482 2.194 . S
Co462 O487 2.351 . S
Co462 O488 2.155 . S
Co462 O489 2.096 . S
C463 N466 1.301 . S
C463 N467 1.328 . S
C463 H468 0.930 . S
C464 C465 1.333 . S
C464 N466 1.317 . S
C464 H469 0.930 . S
C465 C464 1.333 . S
C465 N467 1.350 . S
C465 H491 0.931 . S
N466 Co462 2.148 . S
N466 C463 1.301 . S
N466 C464 1.317 . S
N467 C463 1.328 . S
N467 C465 1.350 . S
H468 C463 0.930 . S
H469 C464 0.930 . S
C470 O471 1.224 . S
C470 O489 1.247 . S
O471 C470 1.224 . S
N472 Co462 2.128 . S
N472 C473 1.355 . S
N472 C475 1.311 . S
C473 N472 1.355 . S
C473 C474 1.363 . S
C473 H485 0.929 . S
C474 C473 1.363 . S
C474 N476 1.375 . S
C474 H492 0.931 . S
C475 N472 1.311 . S
C475 N476 1.347 . S
C475 H486 0.929 . S
N476 C474 1.375 . S
N476 C475 1.347 . S
C477 C480 1.365 . S
C477 N482 1.328 . S
C477 H483 0.929 . S
C478 C479 1.362 . S
C478 C481 1.378 . S
C478 H493 0.929 . S
C479 C478 1.362 . S
C479 C480 1.366 . S
C480 C477 1.365 . S
C480 C479 1.366 . S
C480 H494 0.930 . S
C481 C478 1.378 . S
C481 N482 1.315 . S
C481 H484 0.930 . S
N482 Co462 2.194 . S
N482 C477 1.328 . S
N482 C481 1.315 . S
H483 C477 0.929 . S
H484 C481 0.930 . S
H485 C473 0.929 . S
H486 C475 0.929 . S
O487 Co462 2.351 . S
O487 C490 1.244 . S
O488 Co462 2.155 . S
O488 C490 1.240 . S
O489 Co462 2.096 . S
O489 C470 1.247 . S
C490 O487 1.244 . S
C490 O488 1.240 . S
H491 C465 0.931 . S
H492 C474 0.931 . S
H493 C478 0.929 . S
H494 C480 0.930 . S
Co495 N499 2.148 . S
Co495 N505 2.128 . S
Co495 N515 2.194 . S
Co495 O520 2.351 . S
Co495 O521 2.155 . S
Co495 O522 2.096 . S
C496 N499 1.301 . S
C496 N500 1.328 . S
C496 H501 0.930 . S
C497 C498 1.333 . S
C497 N499 1.317 . S
C497 H502 0.930 . S
C498 C497 1.333 . S
C498 N500 1.350 . S
C498 H524 0.931 . S
N499 Co495 2.148 . S
N499 C496 1.301 . S
N499 C497 1.317 . S
N500 C496 1.328 . S
N500 C498 1.350 . S
H501 C496 0.930 . S
H502 C497 0.930 . S
C503 O504 1.224 . S
C503 O522 1.247 . S
O504 C503 1.224 . S
N505 Co495 2.128 . S
N505 C506 1.355 . S
N505 C508 1.311 . S
C506 N505 1.355 . S
C506 C507 1.363 . S
C506 H518 0.929 . S
C507 C506 1.363 . S
C507 N509 1.375 . S
C507 H525 0.931 . S
C508 N505 1.311 . S
C508 N509 1.347 . S
C508 H519 0.929 . S
N509 C507 1.375 . S
N509 C508 1.347 . S
C510 C513 1.365 . S
C510 N515 1.328 . S
C510 H516 0.929 . S
C511 C512 1.362 . S
C511 C514 1.378 . S
C511 H526 0.929 . S
C512 C511 1.362 . S
C512 C513 1.366 . S
C513 C510 1.365 . S
C513 C512 1.366 . S
C513 H527 0.930 . S
C514 C511 1.378 . S
C514 N515 1.315 . S
C514 H517 0.930 . S
N515 Co495 2.194 . S
N515 C510 1.328 . S
N515 C514 1.315 . S
H516 C510 0.929 . S
H517 C514 0.930 . S
H518 C506 0.929 . S
H519 C508 0.929 . S
O520 Co495 2.351 . S
O520 C523 1.244 . S
O521 Co495 2.155 . S
O521 C523 1.240 . S
O522 Co495 2.096 . S
O522 C503 1.247 . S
C523 O520 1.244 . S
C523 O521 1.240 . S
H524 C498 0.931 . S
H525 C507 0.931 . S
H526 C511 0.929 . S
H527 C513 0.930 . S
C528 C529 1.363 . S
C528 C534 1.379 . S
C528 N536 1.356 . S
C529 C528 1.363 . S
C529 C535 1.363 . S
C530 C531 1.363 . S
C530 C535 1.379 . S
C530 N537 1.356 . S
C531 C530 1.363 . S
C531 C534 1.363 . S
N532 C534 1.356 . S
N532 H544 0.984 . S
N532 H545 0.985 . S
N533 C535 1.356 1_545 S
N533 H538 0.984 . S
N533 H539 0.985 . S
C534 C528 1.379 . S
C534 C531 1.363 . S
C534 N532 1.356 . S
C535 C529 1.363 . S
C535 C530 1.379 . S
C535 N533 1.356 1_565 S
N536 C528 1.356 . S
N536 H542 0.984 . S
N536 H543 0.984 1_565 S
N537 C530 1.356 . S
N537 H540 0.984 . S
N537 H541 0.985 . S
H538 N533 0.984 . S
H539 N533 0.985 . S
H540 N537 0.984 . S
H541 N537 0.985 . S
H542 N536 0.984 . S
H543 N536 0.984 1_545 S
H544 N532 0.984 . S
H545 N532 0.985 . S
C546 C547 1.363 . S
C546 C552 1.379 . S
C546 N554 1.356 . S
C547 C546 1.363 . S
C547 C553 1.363 . S
C548 C549 1.363 . S
C548 C553 1.379 . S
C548 N555 1.356 . S
C549 C548 1.363 . S
C549 C552 1.363 . S
N550 C552 1.356 . S
N550 H562 0.984 . S
N550 H563 0.985 . S
N551 C553 1.356 . S
N551 H556 0.984 . S
N551 H557 0.985 . S
C552 C546 1.379 . S
C552 C549 1.363 . S
C552 N550 1.356 . S
C553 C547 1.363 . S
C553 C548 1.379 . S
C553 N551 1.356 . S
N554 C546 1.356 . S
N554 H560 0.984 . S
N554 H561 0.984 . S
N555 C548 1.356 . S
N555 H558 0.984 . S
N555 H559 0.985 . S
H556 N551 0.984 . S
H557 N551 0.985 . S
H558 N555 0.984 . S
H559 N555 0.985 . S
H560 N554 0.984 . S
H561 N554 0.984 . S
H562 N550 0.984 . S
H563 N550 0.985 . S
C564 C565 1.363 . S
C564 C570 1.379 . S
C564 N572 1.356 1_545 S
C565 C564 1.363 . S
C565 C571 1.363 . S
C566 C567 1.363 . S
C566 C571 1.379 . S
C566 N573 1.356 . S
C567 C566 1.363 . S
C567 C570 1.363 . S
N568 C570 1.356 . S
N568 H580 0.984 . S
N568 H581 0.985 . S
N569 C571 1.356 . S
N569 H574 0.984 1_545 S
N569 H575 0.985 . S
C570 C564 1.379 . S
C570 C567 1.363 . S
C570 N568 1.356 . S
C571 C565 1.363 . S
C571 C566 1.379 . S
C571 N569 1.356 . S
N572 C564 1.356 1_565 S
N572 H578 0.984 . S
N572 H579 0.984 . S
N573 C566 1.356 . S
N573 H576 0.984 . S
N573 H577 0.985 . S
H574 N569 0.984 1_565 S
H575 N569 0.985 . S
H576 N573 0.984 . S
H577 N573 0.985 . S
H578 N572 0.984 . S
H579 N572 0.984 . S
H580 N568 0.984 . S
H581 N568 0.985 . S
C582 C583 1.363 . S
C582 C588 1.379 . S
C582 N590 1.356 . S
C583 C582 1.363 . S
C583 C589 1.363 . S
C584 C585 1.363 . S
C584 C589 1.379 . S
C584 N591 1.356 . S
C585 C584 1.363 . S
C585 C588 1.363 . S
N586 C588 1.356 . S
N586 H598 0.984 . S
N586 H599 0.985 . S
N587 C589 1.356 . S
N587 H592 0.984 . S
N587 H593 0.985 . S
C588 C582 1.379 . S
C588 C585 1.363 . S
C588 N586 1.356 . S
C589 C583 1.363 . S
C589 C584 1.379 . S
C589 N587 1.356 . S
N590 C582 1.356 . S
N590 H596 0.984 . S
N590 H597 0.984 . S
N591 C584 1.356 . S
N591 H594 0.984 . S
N591 H595 0.985 . S
H592 N587 0.984 . S
H593 N587 0.985 . S
H594 N591 0.984 . S
H595 N591 0.985 . S
H596 N590 0.984 . S
H597 N590 0.984 . S
H598 N586 0.984 . S
H599 N586 0.985 . S
C600 C601 1.363 . S
C600 C606 1.379 . S
C600 N608 1.356 . S
C601 C600 1.363 . S
C601 C607 1.363 . S
C602 C603 1.363 . S
C602 C607 1.379 . S
C602 N609 1.356 . S
C603 C602 1.363 . S
C603 C606 1.363 . S
N604 C606 1.356 . S
N604 H616 0.984 . S
N604 H617 0.985 . S
N605 C607 1.356 1_565 S
N605 H610 0.984 . S
N605 H611 0.985 . S
C606 C600 1.379 . S
C606 C603 1.363 . S
C606 N604 1.356 . S
C607 C601 1.363 . S
C607 C602 1.379 . S
C607 N605 1.356 1_545 S
N608 C600 1.356 . S
N608 H614 0.984 . S
N608 H615 0.984 1_545 S
N609 C602 1.356 . S
N609 H612 0.984 . S
N609 H613 0.985 . S
H610 N605 0.984 . S
H611 N605 0.985 . S
H612 N609 0.984 . S
H613 N609 0.985 . S
H614 N608 0.984 . S
H615 N608 0.984 1_565 S
H616 N604 0.984 . S
H617 N604 0.985 . S
C618 C619 1.363 . S
C618 C624 1.379 . S
C618 N626 1.356 . S
C619 C618 1.363 . S
C619 C625 1.363 . S
C620 C621 1.363 . S
C620 C625 1.379 . S
C620 N627 1.356 . S
C621 C620 1.363 . S
C621 C624 1.363 . S
N622 C624 1.356 . S
N622 H634 0.984 . S
N622 H635 0.985 . S
N623 C625 1.356 . S
N623 H628 0.984 . S
N623 H629 0.985 . S
C624 C618 1.379 . S
C624 C621 1.363 . S
C624 N622 1.356 . S
C625 C619 1.363 . S
C625 C620 1.379 . S
C625 N623 1.356 . S
N626 C618 1.356 . S
N626 H632 0.984 . S
N626 H633 0.984 . S
N627 C620 1.356 . S
N627 H630 0.984 . S
N627 H631 0.985 . S
H628 N623 0.984 . S
H629 N623 0.985 . S
H630 N627 0.984 . S
H631 N627 0.985 . S
H632 N626 0.984 . S
H633 N626 0.984 . S
H634 N622 0.984 . S
H635 N622 0.985 . S
C636 C637 1.363 . S
C636 C642 1.379 . S
C636 N644 1.356 1_565 S
C637 C636 1.363 . S
C637 C643 1.363 . S
C638 C639 1.363 . S
C638 C643 1.379 . S
C638 N645 1.356 . S
C639 C638 1.363 . S
C639 C642 1.363 . S
N640 C642 1.356 . S
N640 H652 0.984 . S
N640 H653 0.985 . S
N641 C643 1.356 . S
N641 H646 0.984 1_565 S
N641 H647 0.985 . S
C642 C636 1.379 . S
C642 C639 1.363 . S
C642 N640 1.356 . S
C643 C637 1.363 . S
C643 C638 1.379 . S
C643 N641 1.356 . S
N644 C636 1.356 1_545 S
N644 H650 0.984 . S
N644 H651 0.984 . S
N645 C638 1.356 . S
N645 H648 0.984 . S
N645 H649 0.985 . S
H646 N641 0.984 1_545 S
H647 N641 0.985 . S
H648 N645 0.984 . S
H649 N645 0.985 . S
H650 N644 0.984 . S
H651 N644 0.984 . S
H652 N640 0.984 . S
H653 N640 0.985 . S
C654 C655 1.363 . S
C654 C660 1.379 . S
C654 N662 1.356 . S
C655 C654 1.363 . S
C655 C661 1.363 . S
C656 C657 1.363 . S
C656 C661 1.379 . S
C656 N663 1.356 . S
C657 C656 1.363 . S
C657 C660 1.363 . S
N658 C660 1.356 . S
N658 H670 0.984 . S
N658 H671 0.985 . S
N659 C661 1.356 . S
N659 H664 0.984 . S
N659 H665 0.985 . S
C660 C654 1.379 . S
C660 C657 1.363 . S
C660 N658 1.356 . S
C661 C655 1.363 . S
C661 C656 1.379 . S
C661 N659 1.356 . S
N662 C654 1.356 . S
N662 H668 0.984 . S
N662 H669 0.984 . S
N663 C656 1.356 . S
N663 H666 0.984 . S
N663 H667 0.985 . S
H664 N659 0.984 . S
H665 N659 0.985 . S
H666 N663 0.984 . S
H667 N663 0.985 . S
H668 N662 0.984 . S
H669 N662 0.984 . S
H670 N658 0.984 . S
H671 N658 0.985 . S
C672 C673 1.363 . S
C672 C678 1.379 . S
C672 N680 1.356 . S
C673 C672 1.363 . S
C673 C679 1.363 . S
C674 C675 1.363 . S
C674 C679 1.379 . S
C674 N681 1.356 . S
C675 C674 1.363 . S
C675 C678 1.363 . S
N676 C678 1.356 . S
N676 H688 0.984 . S
N676 H689 0.985 . S
N677 C679 1.356 . S
N677 H682 0.984 . S
N677 H683 0.985 . S
C678 C672 1.379 . S
C678 C675 1.363 . S
C678 N676 1.356 . S
C679 C673 1.363 . S
C679 C674 1.379 . S
C679 N677 1.356 . S
N680 C672 1.356 . S
N680 H686 0.984 . S
N680 H687 0.984 . S
N681 C674 1.356 . S
N681 H684 0.984 . S
N681 H685 0.985 . S
H682 N677 0.984 . S
H683 N677 0.985 . S
H684 N681 0.984 . S
H685 N681 0.985 . S
H686 N680 0.984 . S
H687 N680 0.984 . S
H688 N676 0.984 . S
H689 N676 0.985 . S
C690 C691 1.363 . S
C690 C696 1.379 . S
C690 N698 1.356 . S
C691 C690 1.363 . S
C691 C697 1.363 . S
C692 C693 1.363 . S
C692 C697 1.379 . S
C692 N699 1.356 . S
C693 C692 1.363 . S
C693 C696 1.363 . S
N694 C696 1.356 1_565 S
N694 H706 0.984 . S
N694 H707 0.985 . S
N695 C697 1.356 . S
N695 H700 0.984 . S
N695 H701 0.985 . S
C696 C690 1.379 . S
C696 C693 1.363 . S
C696 N694 1.356 1_545 S
C697 C691 1.363 . S
C697 C692 1.379 . S
C697 N695 1.356 . S
N698 C690 1.356 . S
N698 H704 0.984 . S
N698 H705 0.984 . S
N699 C692 1.356 . S
N699 H702 0.984 1_545 S
N699 H703 0.985 . S
H700 N695 0.984 . S
H701 N695 0.985 . S
H702 N699 0.984 1_565 S
H703 N699 0.985 . S
H704 N698 0.984 . S
H705 N698 0.984 . S
H706 N694 0.984 . S
H707 N694 0.985 . S
C708 C709 1.363 . S
C708 C714 1.379 . S
C708 N716 1.356 . S
C709 C708 1.363 . S
C709 C715 1.363 . S
C710 C711 1.363 . S
C710 C715 1.379 . S
C710 N717 1.356 . S
C711 C710 1.363 . S
C711 C714 1.363 . S
N712 C714 1.356 . S
N712 H724 0.984 . S
N712 H725 0.985 . S
N713 C715 1.356 . S
N713 H718 0.984 . S
N713 H719 0.985 . S
C714 C708 1.379 . S
C714 C711 1.363 . S
C714 N712 1.356 . S
C715 C709 1.363 . S
C715 C710 1.379 . S
C715 N713 1.356 . S
N716 C708 1.356 . S
N716 H722 0.984 . S
N716 H723 0.984 . S
N717 C710 1.356 . S
N717 H720 0.984 . S
N717 H721 0.985 . S
H718 N713 0.984 . S
H719 N713 0.985 . S
H720 N717 0.984 . S
H721 N717 0.985 . S
H722 N716 0.984 . S
H723 N716 0.984 . S
H724 N712 0.984 . S
H725 N712 0.985 . S
C726 C727 1.363 . S
C726 C732 1.379 . S
C726 N734 1.356 . S
C727 C726 1.363 . S
C727 C733 1.363 . S
C728 C729 1.363 . S
C728 C733 1.379 . S
C728 N735 1.356 . S
C729 C728 1.363 . S
C729 C732 1.363 . S
N730 C732 1.356 . S
N730 H742 0.984 . S
N730 H743 0.985 . S
N731 C733 1.356 1_545 S
N731 H736 0.984 . S
N731 H737 0.985 . S
C732 C726 1.379 . S
C732 C729 1.363 . S
C732 N730 1.356 . S
C733 C727 1.363 . S
C733 C728 1.379 . S
C733 N731 1.356 1_565 S
N734 C726 1.356 . S
N734 H740 0.984 . S
N734 H741 0.984 1_565 S
N735 C728 1.356 . S
N735 H738 0.984 . S
N735 H739 0.985 . S
H736 N731 0.984 . S
H737 N731 0.985 . S
H738 N735 0.984 . S
H739 N735 0.985 . S
H740 N734 0.984 . S
H741 N734 0.984 1_545 S
H742 N730 0.984 . S
H743 N730 0.985 . S
C744 C745 1.363 . S
C744 C750 1.379 . S
C744 N752 1.356 . S
C745 C744 1.363 . S
C745 C751 1.363 . S
C746 C747 1.363 . S
C746 C751 1.379 . S
C746 N753 1.356 . S
C747 C746 1.363 . S
C747 C750 1.363 . S
N748 C750 1.356 . S
N748 H760 0.984 . S
N748 H761 0.985 . S
N749 C751 1.356 . S
N749 H754 0.984 . S
N749 H755 0.985 . S
C750 C744 1.379 . S
C750 C747 1.363 . S
C750 N748 1.356 . S
C751 C745 1.363 . S
C751 C746 1.379 . S
C751 N749 1.356 . S
N752 C744 1.356 . S
N752 H758 0.984 . S
N752 H759 0.984 . S
N753 C746 1.356 . S
N753 H756 0.984 . S
N753 H757 0.985 . S
H754 N749 0.984 . S
H755 N749 0.985 . S
H756 N753 0.984 . S
H757 N753 0.985 . S
H758 N752 0.984 . S
H759 N752 0.984 . S
H760 N748 0.984 . S
H761 N748 0.985 . S
C762 C763 1.363 . S
C762 C768 1.379 . S
C762 N770 1.356 . S
C763 C762 1.363 . S
C763 C769 1.363 . S
C764 C765 1.363 . S
C764 C769 1.379 . S
C764 N771 1.356 . S
C765 C764 1.363 . S
C765 C768 1.363 . S
N766 C768 1.356 . S
N766 H778 0.984 . S
N766 H779 0.985 . S
N767 C769 1.356 1_545 S
N767 H772 0.984 . S
N767 H773 0.985 . S
C768 C762 1.379 . S
C768 C765 1.363 . S
C768 N766 1.356 . S
C769 C763 1.363 . S
C769 C764 1.379 . S
C769 N767 1.356 1_565 S
N770 C762 1.356 . S
N770 H776 0.984 . S
N770 H777 0.984 1_565 S
N771 C764 1.356 . S
N771 H774 0.984 . S
N771 H775 0.985 . S
H772 N767 0.984 . S
H773 N767 0.985 . S
H774 N771 0.984 . S
H775 N771 0.985 . S
H776 N770 0.984 . S
H777 N770 0.984 1_545 S
H778 N766 0.984 . S
H779 N766 0.985 . S
C780 C781 1.363 . S
C780 C786 1.379 . S
C780 N788 1.356 . S
C781 C780 1.363 . S
C781 C787 1.363 . S
C782 C783 1.363 . S
C782 C787 1.379 . S
C782 N789 1.356 . S
C783 C782 1.363 . S
C783 C786 1.363 . S
N784 C786 1.356 . S
N784 H796 0.984 . S
N784 H797 0.985 . S
N785 C787 1.356 . S
N785 H790 0.984 . S
N785 H791 0.985 . S
C786 C780 1.379 . S
C786 C783 1.363 . S
C786 N784 1.356 . S
C787 C781 1.363 . S
C787 C782 1.379 . S
C787 N785 1.356 . S
N788 C780 1.356 . S
N788 H794 0.984 . S
N788 H795 0.984 . S
N789 C782 1.356 . S
N789 H792 0.984 . S
N789 H793 0.985 . S
H790 N785 0.984 . S
H791 N785 0.985 . S
H792 N789 0.984 . S
H793 N789 0.985 . S
H794 N788 0.984 . S
H795 N788 0.984 . S
H796 N784 0.984 . S
H797 N784 0.985 . S
C798 C799 1.363 . S
C798 C804 1.379 . S
C798 N806 1.356 . S
C799 C798 1.363 . S
C799 C805 1.363 . S
C800 C801 1.363 . S
C800 C805 1.379 . S
C800 N807 1.356 . S
C801 C800 1.363 . S
C801 C804 1.363 . S
N802 C804 1.356 1_565 S
N802 H814 0.984 . S
N802 H815 0.985 . S
N803 C805 1.356 . S
N803 H808 0.984 . S
N803 H809 0.985 . S
C804 C798 1.379 . S
C804 C801 1.363 . S
C804 N802 1.356 1_545 S
C805 C799 1.363 . S
C805 C800 1.379 . S
C805 N803 1.356 . S
N806 C798 1.356 . S
N806 H812 0.984 . S
N806 H813 0.984 . S
N807 C800 1.356 . S
N807 H810 0.984 1_545 S
N807 H811 0.985 . S
H808 N803 0.984 . S
H809 N803 0.985 . S
H810 N807 0.984 1_565 S
H811 N807 0.985 . S
H812 N806 0.984 . S
H813 N806 0.984 . S
H814 N802 0.984 . S
H815 N802 0.985 . S
C816 C817 1.363 . S
C816 C822 1.379 1_554 S
C816 N824 1.356 . S
C817 C816 1.363 . S
C817 C823 1.363 . S
C818 C819 1.363 . S
C818 C823 1.379 1_556 S
C818 N825 1.356 . S
C819 C818 1.363 . S
C819 C822 1.363 . S
N820 C822 1.356 . S
N820 H832 0.984 . S
N820 H833 0.985 . S
N821 C823 1.356 . S
N821 H826 0.984 . S
N821 H827 0.985 . S
C822 C816 1.379 1_556 S
C822 C819 1.363 . S
C822 N820 1.356 . S
C823 C817 1.363 . S
C823 C818 1.379 1_554 S
C823 N821 1.356 . S
N824 C816 1.356 . S
N824 H830 0.984 . S
N824 H831 0.984 . S
N825 C818 1.356 . S
N825 H828 0.984 . S
N825 H829 0.985 . S
H826 N821 0.984 . S
H827 N821 0.985 . S
H828 N825 0.984 . S
H829 N825 0.985 . S
H830 N824 0.984 . S
H831 N824 0.984 . S
H832 N820 0.984 . S
H833 N820 0.985 . S
C834 C835 1.363 . S
C834 C840 1.379 1_556 S
C834 N842 1.356 . S
C835 C834 1.363 . S
C835 C841 1.363 . S
C836 C837 1.363 . S
C836 C841 1.379 1_554 S
C836 N843 1.356 . S
C837 C836 1.363 . S
C837 C840 1.363 . S
N838 C840 1.356 . S
N838 H850 0.984 . S
N838 H851 0.985 . S
N839 C841 1.356 . S
N839 H844 0.984 . S
N839 H845 0.985 . S
C840 C834 1.379 1_554 S
C840 C837 1.363 . S
C840 N838 1.356 . S
C841 C835 1.363 . S
C841 C836 1.379 1_556 S
C841 N839 1.356 . S
N842 C834 1.356 . S
N842 H848 0.984 . S
N842 H849 0.984 . S
N843 C836 1.356 . S
N843 H846 0.984 . S
N843 H847 0.985 . S
H844 N839 0.984 . S
H845 N839 0.985 . S
H846 N843 0.984 . S
H847 N843 0.985 . S
H848 N842 0.984 . S
H849 N842 0.984 . S
H850 N838 0.984 . S
H851 N838 0.985 . S
C852 C853 1.363 . S
C852 C858 1.379 . S
C852 N860 1.356 . S
C853 C852 1.363 . S
C853 C859 1.363 . S
C854 C855 1.363 . S
C854 C859 1.379 . S
C854 N861 1.356 . S
C855 C854 1.363 . S
C855 C858 1.363 . S
N856 C858 1.356 . S
N856 H868 0.984 . S
N856 H869 0.985 . S
N857 C859 1.356 . S
N857 H862 0.984 . S
N857 H863 0.985 . S
C858 C852 1.379 . S
C858 C855 1.363 . S
C858 N856 1.356 . S
C859 C853 1.363 . S
C859 C854 1.379 . S
C859 N857 1.356 . S
N860 C852 1.356 . S
N860 H866 0.984 . S
N860 H867 0.984 . S
N861 C854 1.356 . S
N861 H864 0.984 . S
N861 H865 0.985 . S
H862 N857 0.984 . S
H863 N857 0.985 . S
H864 N861 0.984 . S
H865 N861 0.985 . S
H866 N860 0.984 . S
H867 N860 0.984 . S
H868 N856 0.984 . S
H869 N856 0.985 . S
C870 C871 1.363 . S
C870 C876 1.379 . S
C870 N878 1.356 . S
C871 C870 1.363 . S
C871 C877 1.363 . S
C872 C873 1.363 . S
C872 C877 1.379 . S
C872 N879 1.356 . S
C873 C872 1.363 . S
C873 C876 1.363 . S
N874 C876 1.356 . S
N874 H886 0.984 . S
N874 H887 0.985 . S
N875 C877 1.356 . S
N875 H880 0.984 . S
N875 H881 0.985 . S
C876 C870 1.379 . S
C876 C873 1.363 . S
C876 N874 1.356 . S
C877 C871 1.363 . S
C877 C872 1.379 . S
C877 N875 1.356 . S
N878 C870 1.356 . S
N878 H884 0.984 . S
N878 H885 0.984 . S
N879 C872 1.356 . S
N879 H882 0.984 . S
N879 H883 0.985 . S
H880 N875 0.984 . S
H881 N875 0.985 . S
H882 N879 0.984 . S
H883 N879 0.985 . S
H884 N878 0.984 . S
H885 N878 0.984 . S
H886 N874 0.984 . S
H887 N874 0.985 . S
C888 C889 1.363 . S
C888 C894 1.379 1_556 S
C888 N896 1.356 . S
C889 C888 1.363 . S
C889 C895 1.363 . S
C890 C891 1.363 . S
C890 C895 1.379 1_554 S
C890 N897 1.356 . S
C891 C890 1.363 . S
C891 C894 1.363 . S
N892 C894 1.356 . S
N892 H904 0.984 . S
N892 H905 0.985 . S
N893 C895 1.356 . S
N893 H898 0.984 . S
N893 H899 0.985 . S
C894 C888 1.379 1_554 S
C894 C891 1.363 . S
C894 N892 1.356 . S
C895 C889 1.363 . S
C895 C890 1.379 1_556 S
C895 N893 1.356 . S
N896 C888 1.356 . S
N896 H902 0.984 . S
N896 H903 0.984 . S
N897 C890 1.356 . S
N897 H900 0.984 . S
N897 H901 0.985 . S
H898 N893 0.984 . S
H899 N893 0.985 . S
H900 N897 0.984 . S
H901 N897 0.985 . S
H902 N896 0.984 . S
H903 N896 0.984 . S
H904 N892 0.984 . S
H905 N892 0.985 . S
C906 C907 1.363 . S
C906 C912 1.379 1_554 S
C906 N914 1.356 . S
C907 C906 1.363 . S
C907 C913 1.363 . S
C908 C909 1.363 . S
C908 C913 1.379 1_556 S
C908 N915 1.356 . S
C909 C908 1.363 . S
C909 C912 1.363 . S
N910 C912 1.356 . S
N910 H922 0.984 . S
N910 H923 0.985 . S
N911 C913 1.356 . S
N911 H916 0.984 . S
N911 H917 0.985 . S
C912 C906 1.379 1_556 S
C912 C909 1.363 . S
C912 N910 1.356 . S
C913 C907 1.363 . S
C913 C908 1.379 1_554 S
C913 N911 1.356 . S
N914 C906 1.356 . S
N914 H920 0.984 . S
N914 H921 0.984 . S
N915 C908 1.356 . S
N915 H918 0.984 . S
N915 H919 0.985 . S
H916 N911 0.984 . S
H917 N911 0.985 . S
H918 N915 0.984 . S
H919 N915 0.985 . S
H920 N914 0.984 . S
H921 N914 0.984 . S
H922 N910 0.984 . S
H923 N910 0.985 . S
C924 C925 1.363 . S
C924 C930 1.379 . S
C924 N932 1.356 . S
C925 C924 1.363 . S
C925 C931 1.363 . S
C926 C927 1.363 . S
C926 C931 1.379 . S
C926 N933 1.356 . S
C927 C926 1.363 . S
C927 C930 1.363 . S
N928 C930 1.356 . S
N928 H940 0.984 . S
N928 H941 0.985 . S
N929 C931 1.356 . S
N929 H934 0.984 . S
N929 H935 0.985 . S
C930 C924 1.379 . S
C930 C927 1.363 . S
C930 N928 1.356 . S
C931 C925 1.363 . S
C931 C926 1.379 . S
C931 N929 1.356 . S
N932 C924 1.356 . S
N932 H938 0.984 . S
N932 H939 0.984 . S
N933 C926 1.356 . S
N933 H936 0.984 . S
N933 H937 0.985 . S
H934 N929 0.984 . S
H935 N929 0.985 . S
H936 N933 0.984 . S
H937 N933 0.985 . S
H938 N932 0.984 . S
H939 N932 0.984 . S
H940 N928 0.984 . S
H941 N928 0.985 . S
C942 C943 1.363 . S
C942 C948 1.379 . S
C942 N950 1.356 . S
C943 C942 1.363 . S
C943 C949 1.363 . S
C944 C945 1.363 . S
C944 C949 1.379 . S
C944 N951 1.356 . S
C945 C944 1.363 . S
C945 C948 1.363 . S
N946 C948 1.356 . S
N946 H958 0.984 . S
N946 H959 0.985 . S
N947 C949 1.356 . S
N947 H952 0.984 . S
N947 H953 0.985 . S
C948 C942 1.379 . S
C948 C945 1.363 . S
C948 N946 1.356 . S
C949 C943 1.363 . S
C949 C944 1.379 . S
C949 N947 1.356 . S
N950 C942 1.356 . S
N950 H956 0.984 . S
N950 H957 0.984 . S
N951 C944 1.356 . S
N951 H954 0.984 . S
N951 H955 0.985 . S
H952 N947 0.984 . S
H953 N947 0.985 . S
H954 N951 0.984 . S
H955 N951 0.985 . S
H956 N950 0.984 . S
H957 N950 0.984 . S
H958 N946 0.984 . S
H959 N946 0.985 . S
C960 C961 1.363 . S
C960 C966 1.379 . S
C960 N968 1.356 . S
C961 C960 1.363 . S
C961 C967 1.363 1_545 S
C962 C963 1.363 . S
C962 C967 1.379 . S
C962 N969 1.356 . S
C963 C962 1.363 . S
C963 C966 1.363 1_565 S
N964 C966 1.356 1_565 S
N964 H976 0.984 1_565 S
N964 H977 0.985 . S
N965 C967 1.356 1_545 S
N965 H970 0.984 . S
N965 H971 0.985 1_545 S
C966 C960 1.379 . S
C966 C963 1.363 1_545 S
C966 N964 1.356 1_545 S
C967 C961 1.363 1_565 S
C967 C962 1.379 . S
C967 N965 1.356 1_565 S
N968 C960 1.356 . S
N968 H974 0.984 . S
N968 H975 0.984 . S
N969 C962 1.356 . S
N969 H972 0.984 . S
N969 H973 0.985 . S
H970 N965 0.984 . S
H971 N965 0.985 1_565 S
H972 N969 0.984 . S
H973 N969 0.985 . S
H974 N968 0.984 . S
H975 N968 0.984 . S
H976 N964 0.984 1_545 S
H977 N964 0.985 . S
C978 C979 1.363 . S
C978 C984 1.379 . S
C978 N986 1.356 . S
C979 C978 1.363 . S
C979 C985 1.363 . S
C980 C981 1.363 . S
C980 C985 1.379 . S
C980 N987 1.356 . S
C981 C980 1.363 . S
C981 C984 1.363 . S
N982 C984 1.356 . S
N982 H994 0.984 . S
N982 H995 0.985 . S
N983 C985 1.356 . S
N983 H988 0.984 . S
N983 H989 0.985 . S
C984 C978 1.379 . S
C984 C981 1.363 . S
C984 N982 1.356 . S
C985 C979 1.363 . S
C985 C980 1.379 . S
C985 N983 1.356 . S
N986 C978 1.356 . S
N986 H992 0.984 . S
N986 H993 0.984 . S
N987 C980 1.356 . S
N987 H990 0.984 . S
N987 H991 0.985 . S
H988 N983 0.984 . S
H989 N983 0.985 . S
H990 N987 0.984 . S
H991 N987 0.985 . S
H992 N986 0.984 . S
H993 N986 0.984 . S
H994 N982 0.984 . S
H995 N982 0.985 . S
C996 C997 1.363 1_545 S
C996 C1002 1.379 . S
C996 N1004 1.356 . S
C997 C996 1.363 1_565 S
C997 C1003 1.363 . S
C998 C999 1.363 1_565 S
C998 C1003 1.379 . S
C998 N1005 1.356 . S
C999 C998 1.363 1_545 S
C999 C1002 1.363 . S
N1000 C1002 1.356 . S
N1000 H1012 0.984 . S
N1000 H1013 0.985 . S
N1001 C1003 1.356 . S
N1001 H1006 0.984 . S
N1001 H1007 0.985 . S
C1002 C996 1.379 . S
C1002 C999 1.363 . S
C1002 N1000 1.356 . S
C1003 C997 1.363 . S
C1003 C998 1.379 . S
C1003 N1001 1.356 . S
N1004 C996 1.356 . S
N1004 H1010 0.984 . S
N1004 H1011 0.984 1_545 S
N1005 C998 1.356 . S
N1005 H1008 0.984 1_565 S
N1005 H1009 0.985 . S
H1006 N1001 0.984 . S
H1007 N1001 0.985 . S
H1008 N1005 0.984 1_545 S
H1009 N1005 0.985 . S
H1010 N1004 0.984 . S
H1011 N1004 0.984 1_565 S
H1012 N1000 0.984 . S
H1013 N1000 0.985 . S
C1014 C1015 1.363 . S
C1014 C1020 1.379 . S
C1014 N1022 1.356 . S
C1015 C1014 1.363 . S
C1015 C1021 1.363 . S
C1016 C1017 1.363 . S
C1016 C1021 1.379 . S
C1016 N1023 1.356 . S
C1017 C1016 1.363 . S
C1017 C1020 1.363 . S
N1018 C1020 1.356 . S
N1018 H1030 0.984 . S
N1018 H1031 0.985 . S
N1019 C1021 1.356 . S
N1019 H1024 0.984 . S
N1019 H1025 0.985 . S
C1020 C1014 1.379 . S
C1020 C1017 1.363 . S
C1020 N1018 1.356 . S
C1021 C1015 1.363 . S
C1021 C1016 1.379 . S
C1021 N1019 1.356 . S
N1022 C1014 1.356 . S
N1022 H1028 0.984 . S
N1022 H1029 0.984 . S
N1023 C1016 1.356 . S
N1023 H1026 0.984 . S
N1023 H1027 0.985 . S
H1024 N1019 0.984 . S
H1025 N1019 0.985 . S
H1026 N1023 0.984 . S
H1027 N1023 0.985 . S
H1028 N1022 0.984 . S
H1029 N1022 0.984 . S
H1030 N1018 0.984 . S
H1031 N1018 0.985 . S
C1032 C1033 1.363 . S
C1032 C1038 1.379 . S
C1032 N1040 1.356 . S
C1033 C1032 1.363 . S
C1033 C1039 1.363 . S
C1034 C1035 1.363 . S
C1034 C1039 1.379 . S
C1034 N1041 1.356 . S
C1035 C1034 1.363 . S
C1035 C1038 1.363 . S
N1036 C1038 1.356 . S
N1036 H1048 0.984 . S
N1036 H1049 0.985 . S
N1037 C1039 1.356 . S
N1037 H1042 0.984 . S
N1037 H1043 0.985 . S
C1038 C1032 1.379 . S
C1038 C1035 1.363 . S
C1038 N1036 1.356 . S
C1039 C1033 1.363 . S
C1039 C1034 1.379 . S
C1039 N1037 1.356 . S
N1040 C1032 1.356 . S
N1040 H1046 0.984 . S
N1040 H1047 0.984 . S
N1041 C1034 1.356 . S
N1041 H1044 0.984 . S
N1041 H1045 0.985 . S
H1042 N1037 0.984 . S
H1043 N1037 0.985 . S
H1044 N1041 0.984 . S
H1045 N1041 0.985 . S
H1046 N1040 0.984 . S
H1047 N1040 0.984 . S
H1048 N1036 0.984 . S
H1049 N1036 0.985 . S
C1050 C1051 1.363 1_565 S
C1050 C1056 1.379 . S
C1050 N1058 1.356 1_565 S
C1051 C1050 1.363 1_545 S
C1051 C1057 1.363 . S
C1052 C1053 1.363 1_545 S
C1052 C1057 1.379 . S
C1052 N1059 1.356 1_545 S
C1053 C1052 1.363 1_565 S
C1053 C1056 1.363 . S
N1054 C1056 1.356 . S
N1054 H1066 0.984 . S
N1054 H1067 0.985 . S
N1055 C1057 1.356 . S
N1055 H1060 0.984 . S
N1055 H1061 0.985 . S
C1056 C1050 1.379 . S
C1056 C1053 1.363 . S
C1056 N1054 1.356 . S
C1057 C1051 1.363 . S
C1057 C1052 1.379 . S
C1057 N1055 1.356 . S
N1058 C1050 1.356 1_545 S
N1058 H1064 0.984 1_545 S
N1058 H1065 0.984 . S
N1059 C1052 1.356 1_565 S
N1059 H1062 0.984 . S
N1059 H1063 0.985 1_565 S
H1060 N1055 0.984 . S
H1061 N1055 0.985 . S
H1062 N1059 0.984 . S
H1063 N1059 0.985 1_545 S
H1064 N1058 0.984 1_565 S
H1065 N1058 0.984 . S
H1066 N1054 0.984 . S
H1067 N1054 0.985 . S
C1068 C1069 1.363 . S
C1068 C1074 1.379 . S
C1068 N1076 1.356 . S
C1069 C1068 1.363 . S
C1069 C1075 1.363 . S
C1070 C1071 1.363 . S
C1070 C1075 1.379 . S
C1070 N1077 1.356 . S
C1071 C1070 1.363 . S
C1071 C1074 1.363 . S
N1072 C1074 1.356 . S
N1072 H1084 0.984 . S
N1072 H1085 0.985 . S
N1073 C1075 1.356 . S
N1073 H1078 0.984 . S
N1073 H1079 0.985 . S
C1074 C1068 1.379 . S
C1074 C1071 1.363 . S
C1074 N1072 1.356 . S
C1075 C1069 1.363 . S
C1075 C1070 1.379 . S
C1075 N1073 1.356 . S
N1076 C1068 1.356 . S
N1076 H1082 0.984 . S
N1076 H1083 0.984 . S
N1077 C1070 1.356 . S
N1077 H1080 0.984 . S
N1077 H1081 0.985 . S
H1078 N1073 0.984 . S
H1079 N1073 0.985 . S
H1080 N1077 0.984 . S
H1081 N1077 0.985 . S
H1082 N1076 0.984 . S
H1083 N1076 0.984 . S
H1084 N1072 0.984 . S
H1085 N1072 0.985 . S
C1086 C1087 1.363 1_565 S
C1086 C1092 1.379 . S
C1086 N1094 1.356 . S
C1087 C1086 1.363 1_545 S
C1087 C1093 1.363 . S
C1088 C1089 1.363 1_545 S
C1088 C1093 1.379 . S
C1088 N1095 1.356 . S
C1089 C1088 1.363 1_565 S
C1089 C1092 1.363 . S
N1090 C1092 1.356 . S
N1090 H1102 0.984 . S
N1090 H1103 0.985 . S
N1091 C1093 1.356 . S
N1091 H1096 0.984 . S
N1091 H1097 0.985 . S
C1092 C1086 1.379 . S
C1092 C1089 1.363 . S
C1092 N1090 1.356 . S
C1093 C1087 1.363 . S
C1093 C1088 1.379 . S
C1093 N1091 1.356 . S
N1094 C1086 1.356 . S
N1094 H1100 0.984 . S
N1094 H1101 0.984 1_565 S
N1095 C1088 1.356 . S
N1095 H1098 0.984 1_545 S
N1095 H1099 0.985 . S
H1096 N1091 0.984 . S
H1097 N1091 0.985 . S
H1098 N1095 0.984 1_565 S
H1099 N1095 0.985 . S
H1100 N1094 0.984 . S
H1101 N1094 0.984 1_545 S
H1102 N1090 0.984 . S
H1103 N1090 0.985 . S
C1104 C1105 1.363 . S
C1104 C1110 1.379 . S
C1104 N1112 1.356 . S
C1105 C1104 1.363 . S
C1105 C1111 1.363 . S
C1106 C1107 1.363 . S
C1106 C1111 1.379 . S
C1106 N1113 1.356 . S
C1107 C1106 1.363 . S
C1107 C1110 1.363 . S
N1108 C1110 1.356 . S
N1108 H1120 0.984 . S
N1108 H1121 0.985 . S
N1109 C1111 1.356 . S
N1109 H1114 0.984 . S
N1109 H1115 0.985 . S
C1110 C1104 1.379 . S
C1110 C1107 1.363 . S
C1110 N1108 1.356 . S
C1111 C1105 1.363 . S
C1111 C1106 1.379 . S
C1111 N1109 1.356 . S
N1112 C1104 1.356 . S
N1112 H1118 0.984 . S
N1112 H1119 0.984 . S
N1113 C1106 1.356 . S
N1113 H1116 0.984 . S
N1113 H1117 0.985 . S
H1114 N1109 0.984 . S
H1115 N1109 0.985 . S
H1116 N1113 0.984 . S
H1117 N1113 0.985 . S
H1118 N1112 0.984 . S
H1119 N1112 0.984 . S
H1120 N1108 0.984 . S
H1121 N1108 0.985 . S
C1122 C1123 1.363 . S
C1122 C1128 1.379 . S
C1122 N1130 1.356 . S
C1123 C1122 1.363 . S
C1123 C1129 1.363 . S
C1124 C1125 1.363 . S
C1124 C1129 1.379 . S
C1124 N1131 1.356 . S
C1125 C1124 1.363 . S
C1125 C1128 1.363 . S
N1126 C1128 1.356 . S
N1126 H1138 0.984 . S
N1126 H1139 0.985 . S
N1127 C1129 1.356 . S
N1127 H1132 0.984 . S
N1127 H1133 0.985 . S
C1128 C1122 1.379 . S
C1128 C1125 1.363 . S
C1128 N1126 1.356 . S
C1129 C1123 1.363 . S
C1129 C1124 1.379 . S
C1129 N1127 1.356 . S
N1130 C1122 1.356 . S
N1130 H1136 0.984 . S
N1130 H1137 0.984 . S
N1131 C1124 1.356 . S
N1131 H1134 0.984 . S
N1131 H1135 0.985 . S
H1132 N1127 0.984 . S
H1133 N1127 0.985 . S
H1134 N1131 0.984 . S
H1135 N1131 0.985 . S
H1136 N1130 0.984 . S
H1137 N1130 0.984 . S
H1138 N1126 0.984 . S
H1139 N1126 0.985 . S
C1140 C1141 1.363 . S
C1140 C1146 1.379 . S
C1140 N1148 1.356 . S
C1141 C1140 1.363 . S
C1141 C1147 1.363 . S
C1142 C1143 1.363 . S
C1142 C1147 1.379 . S
C1142 N1149 1.356 . S
C1143 C1142 1.363 . S
C1143 C1146 1.363 . S
N1144 C1146 1.356 . S
N1144 H1156 0.984 . S
N1144 H1157 0.985 . S
N1145 C1147 1.356 . S
N1145 H1150 0.984 . S
N1145 H1151 0.985 . S
C1146 C1140 1.379 . S
C1146 C1143 1.363 . S
C1146 N1144 1.356 . S
C1147 C1141 1.363 . S
C1147 C1142 1.379 . S
C1147 N1145 1.356 . S
N1148 C1140 1.356 . S
N1148 H1154 0.984 . S
N1148 H1155 0.984 . S
N1149 C1142 1.356 . S
N1149 H1152 0.984 . S
N1149 H1153 0.985 . S
H1150 N1145 0.984 . S
H1151 N1145 0.985 . S
H1152 N1149 0.984 . S
H1153 N1149 0.985 . S
H1154 N1148 0.984 . S
H1155 N1148 0.984 . S
H1156 N1144 0.984 . S
H1157 N1144 0.985 . S
C1158 C1159 1.363 . S
C1158 C1164 1.379 . S
C1158 N1166 1.356 . S
C1159 C1158 1.363 . S
C1159 C1165 1.363 . S
C1160 C1161 1.363 . S
C1160 C1165 1.379 . S
C1160 N1167 1.356 . S
C1161 C1160 1.363 . S
C1161 C1164 1.363 . S
N1162 C1164 1.356 . S
N1162 H1174 0.984 . S
N1162 H1175 0.985 . S
N1163 C1165 1.356 . S
N1163 H1168 0.984 . S
N1163 H1169 0.985 . S
C1164 C1158 1.379 . S
C1164 C1161 1.363 . S
C1164 N1162 1.356 . S
C1165 C1159 1.363 . S
C1165 C1160 1.379 . S
C1165 N1163 1.356 . S
N1166 C1158 1.356 . S
N1166 H1172 0.984 . S
N1166 H1173 0.984 . S
N1167 C1160 1.356 . S
N1167 H1170 0.984 . S
N1167 H1171 0.985 . S
H1168 N1163 0.984 . S
H1169 N1163 0.985 . S
H1170 N1167 0.984 . S
H1171 N1167 0.985 . S
H1172 N1166 0.984 . S
H1173 N1166 0.984 . S
H1174 N1162 0.984 . S
H1175 N1162 0.985 . S
C1176 C1177 1.363 . S
C1176 C1182 1.379 1_655 S
C1176 N1184 1.356 . S
C1177 C1176 1.363 . S
C1177 C1183 1.363 . S
C1178 C1179 1.363 . S
C1178 C1183 1.379 1_455 S
C1178 N1185 1.356 . S
C1179 C1178 1.363 . S
C1179 C1182 1.363 . S
N1180 C1182 1.356 . S
N1180 H1192 0.984 . S
N1180 H1193 0.985 . S
N1181 C1183 1.356 . S
N1181 H1186 0.984 . S
N1181 H1187 0.985 . S
C1182 C1176 1.379 1_455 S
C1182 C1179 1.363 . S
C1182 N1180 1.356 . S
C1183 C1177 1.363 . S
C1183 C1178 1.379 1_655 S
C1183 N1181 1.356 . S
N1184 C1176 1.356 . S
N1184 H1190 0.984 . S
N1184 H1191 0.984 . S
N1185 C1178 1.356 . S
N1185 H1188 0.984 . S
N1185 H1189 0.985 . S
H1186 N1181 0.984 . S
H1187 N1181 0.985 . S
H1188 N1185 0.984 . S
H1189 N1185 0.985 . S
H1190 N1184 0.984 . S
H1191 N1184 0.984 . S
H1192 N1180 0.984 . S
H1193 N1180 0.985 . S
C1194 C1195 1.363 . S
C1194 C1200 1.379 1_455 S
C1194 N1202 1.356 . S
C1195 C1194 1.363 . S
C1195 C1201 1.363 . S
C1196 C1197 1.363 . S
C1196 C1201 1.379 1_655 S
C1196 N1203 1.356 . S
C1197 C1196 1.363 . S
C1197 C1200 1.363 . S
N1198 C1200 1.356 . S
N1198 H1210 0.984 . S
N1198 H1211 0.985 . S
N1199 C1201 1.356 . S
N1199 H1204 0.984 . S
N1199 H1205 0.985 . S
C1200 C1194 1.379 1_655 S
C1200 C1197 1.363 . S
C1200 N1198 1.356 . S
C1201 C1195 1.363 . S
C1201 C1196 1.379 1_455 S
C1201 N1199 1.356 . S
N1202 C1194 1.356 . S
N1202 H1208 0.984 . S
N1202 H1209 0.984 . S
N1203 C1196 1.356 . S
N1203 H1206 0.984 . S
N1203 H1207 0.985 . S
H1204 N1199 0.984 . S
H1205 N1199 0.985 . S
H1206 N1203 0.984 . S
H1207 N1203 0.985 . S
H1208 N1202 0.984 . S
H1209 N1202 0.984 . S
H1210 N1198 0.984 . S
H1211 N1198 0.985 . S
C1212 C1213 1.363 . S
C1212 C1218 1.379 1_455 S
C1212 N1220 1.356 . S
C1213 C1212 1.363 . S
C1213 C1219 1.363 . S
C1214 C1215 1.363 . S
C1214 C1219 1.379 1_655 S
C1214 N1221 1.356 . S
C1215 C1214 1.363 . S
C1215 C1218 1.363 . S
N1216 C1218 1.356 . S
N1216 H1228 0.984 . S
N1216 H1229 0.985 . S
N1217 C1219 1.356 . S
N1217 H1222 0.984 . S
N1217 H1223 0.985 . S
C1218 C1212 1.379 1_655 S
C1218 C1215 1.363 . S
C1218 N1216 1.356 . S
C1219 C1213 1.363 . S
C1219 C1214 1.379 1_455 S
C1219 N1217 1.356 . S
N1220 C1212 1.356 . S
N1220 H1226 0.984 . S
N1220 H1227 0.984 . S
N1221 C1214 1.356 . S
N1221 H1224 0.984 . S
N1221 H1225 0.985 . S
H1222 N1217 0.984 . S
H1223 N1217 0.985 . S
H1224 N1221 0.984 . S
H1225 N1221 0.985 . S
H1226 N1220 0.984 . S
H1227 N1220 0.984 . S
H1228 N1216 0.984 . S
H1229 N1216 0.985 . S
C1230 C1231 1.363 . S
C1230 C1236 1.379 1_655 S
C1230 N1238 1.356 . S
C1231 C1230 1.363 . S
C1231 C1237 1.363 . S
C1232 C1233 1.363 . S
C1232 C1237 1.379 1_455 S
C1232 N1239 1.356 . S
C1233 C1232 1.363 . S
C1233 C1236 1.363 . S
N1234 C1236 1.356 . S
N1234 H1246 0.984 . S
N1234 H1247 0.985 . S
N1235 C1237 1.356 . S
N1235 H1240 0.984 . S
N1235 H1241 0.985 . S
C1236 C1230 1.379 1_455 S
C1236 C1233 1.363 . S
C1236 N1234 1.356 . S
C1237 C1231 1.363 . S
C1237 C1232 1.379 1_655 S
C1237 N1235 1.356 . S
N1238 C1230 1.356 . S
N1238 H1244 0.984 . S
N1238 H1245 0.984 . S
N1239 C1232 1.356 . S
N1239 H1242 0.984 . S
N1239 H1243 0.985 . S
H1240 N1235 0.984 . S
H1241 N1235 0.985 . S
H1242 N1239 0.984 . S
H1243 N1239 0.985 . S
H1244 N1238 0.984 . S
H1245 N1238 0.984 . S
H1246 N1234 0.984 . S
H1247 N1234 0.985 . S
C529 C28 0.956 1_565 S
C531 C470 0.951 . S
C547 C61 0.956 . S
C549 C503 0.951 . S
C565 C94 0.956 1_545 S
C567 C404 0.951 . S
C583 C437 0.951 . S
C585 C127 0.956 . S
C601 C160 0.956 1_545 S
C603 C338 0.951 . S
C619 C193 0.956 . S
C621 C371 0.951 . S
C637 C226 0.956 1_565 S
C639 C272 0.951 . S
C655 C305 0.951 . S
C657 C259 0.956 . S
C673 C292 0.956 . S
C675 C206 0.951 . S
C691 C239 0.951 . S
C693 C325 0.956 1_545 S
C709 C358 0.956 . S
C711 C140 0.951 . S
C727 C391 0.956 1_565 S
C729 C173 0.951 . S
C745 C424 0.956 . S
C747 C74 0.951 . S
C763 C457 0.956 1_565 S
C765 C107 0.951 . S
C781 C8 0.951 . S
C783 C490 0.956 . S
C799 C41 0.951 . S
C801 C523 0.956 1_545 S
C817 N14 1.791 . S
C819 N377 1.791 . S
C835 N344 1.791 . S
C837 N47 1.791 . S
C853 N80 1.791 . S
C855 N311 1.791 . S
C871 N278 1.791 . S
C873 N113 1.791 . S
C889 N146 1.791 . S
C891 N509 1.791 . S
C907 N476 1.791 . S
C909 N179 1.791 . S
C925 N212 1.791 . S
C927 N443 1.791 . S
C943 N245 1.791 . S
C945 N410 1.791 . S
C961 N5 1.881 . S
C963 N71 1.881 . S
C979 N38 1.881 . S
C981 N104 1.881 . S
C997 N137 1.881 . S
C999 N203 1.881 . S
C1015 N236 1.881 . S
C1017 N170 1.881 . S
C1033 N335 1.881 . S
C1035 N269 1.881 . S
C1051 N368 1.881 . S
C1053 N302 1.881 . S
C1069 N401 1.881 . S
C1071 N467 1.881 . S
C1087 N434 1.881 . S
C1089 N500 1.881 . S
C1105 C50 1.586 . S
C1107 C17 1.586 . S
C1123 C83 1.586 . S
C1125 C116 1.586 . S
C1141 C149 1.586 . S
C1143 C182 1.586 . S
C1159 C248 1.586 . S
C1161 C215 1.586 . S
C1177 C281 1.586 . S
C1179 C314 1.586 . S
C1195 C380 1.586 . S
C1197 C347 1.586 . S
C1213 C413 1.586 . S
C1215 C446 1.586 . S
C1231 C512 1.586 . S
C1233 C479 1.586 . S
