# Generated by pormake.
# Topology tzs, (4)-cn, num edge types: 1
# Building blocks:
#     Node 0, Type 0, BuildingBlock: ICAMEG_clean_sbu_1, # of connection points: 4
#     Node 1, Type 0, BuildingBlock: ICAMEG_clean_sbu_1, # of connection points: 4
#     Node 2, Type 0, BuildingBlock: ICAMEG_clean_sbu_1, # of connection points: 4
#     Node 3, Type 0, BuildingBlock: ICAMEG_clean_sbu_1, # of connection points: 4
#     Node 4, Type 0, BuildingBlock: ICAMEG_clean_sbu_1, # of connection points: 4
#     Node 5, Type 0, BuildingBlock: ICAMEG_clean_sbu_1, # of connection points: 4
#     Node 6, Type 0, BuildingBlock: ICAMEG_clean_sbu_1, # of connection points: 4
#     Node 7, Type 0, BuildingBlock: ICAMEG_clean_sbu_1, # of connection points: 4
#     Node 8, Type 0, BuildingBlock: ICAMEG_clean_sbu_1, # of connection points: 4
#     Node 9, Type 0, BuildingBlock: ICAMEG_clean_sbu_1, # of connection points: 4
#     Node 10, Type 0, BuildingBlock: ICAMEG_clean_sbu_1, # of connection points: 4
#     Node 11, Type 0, BuildingBlock: ICAMEG_clean_sbu_1, # of connection points: 4
#     Node 12, Type 0, BuildingBlock: ICAMEG_clean_sbu_1, # of connection points: 4
#     Node 13, Type 0, BuildingBlock: ICAMEG_clean_sbu_1, # of connection points: 4
#     Node 14, Type 0, BuildingBlock: ICAMEG_clean_sbu_1, # of connection points: 4
#     Node 15, Type 0, BuildingBlock: ICAMEG_clean_sbu_1, # of connection points: 4
#     Edge 16, Type (0, 0), BuildingBlock: EZIPEK_clean_linker_0, # of connection points: 2
#     Edge 17, Type (0, 0), BuildingBlock: EZIPEK_clean_linker_0, # of connection points: 2
#     Edge 18, Type (0, 0), BuildingBlock: EZIPEK_clean_linker_0, # of connection points: 2
#     Edge 19, Type (0, 0), BuildingBlock: EZIPEK_clean_linker_0, # of connection points: 2
#     Edge 20, Type (0, 0), BuildingBlock: EZIPEK_clean_linker_0, # of connection points: 2
#     Edge 21, Type (0, 0), BuildingBlock: EZIPEK_clean_linker_0, # of connection points: 2
#     Edge 22, Type (0, 0), BuildingBlock: EZIPEK_clean_linker_0, # of connection points: 2
#     Edge 23, Type (0, 0), BuildingBlock: EZIPEK_clean_linker_0, # of connection points: 2
#     Edge 24, Type (0, 0), BuildingBlock: EZIPEK_clean_linker_0, # of connection points: 2
#     Edge 25, Type (0, 0), BuildingBlock: EZIPEK_clean_linker_0, # of connection points: 2
#     Edge 26, Type (0, 0), BuildingBlock: EZIPEK_clean_linker_0, # of connection points: 2
#     Edge 27, Type (0, 0), BuildingBlock: EZIPEK_clean_linker_0, # of connection points: 2
#     Edge 28, Type (0, 0), BuildingBlock: EZIPEK_clean_linker_0, # of connection points: 2
#     Edge 29, Type (0, 0), BuildingBlock: EZIPEK_clean_linker_0, # of connection points: 2
#     Edge 30, Type (0, 0), BuildingBlock: EZIPEK_clean_linker_0, # of connection points: 2
#     Edge 31, Type (0, 0), BuildingBlock: EZIPEK_clean_linker_0, # of connection points: 2
#     Edge 32, Type (0, 0), BuildingBlock: EZIPEK_clean_linker_0, # of connection points: 2
#     Edge 33, Type (0, 0), BuildingBlock: EZIPEK_clean_linker_0, # of connection points: 2
#     Edge 34, Type (0, 0), BuildingBlock: EZIPEK_clean_linker_0, # of connection points: 2
#     Edge 35, Type (0, 0), BuildingBlock: EZIPEK_clean_linker_0, # of connection points: 2
#     Edge 36, Type (0, 0), BuildingBlock: EZIPEK_clean_linker_0, # of connection points: 2
#     Edge 37, Type (0, 0), BuildingBlock: EZIPEK_clean_linker_0, # of connection points: 2
#     Edge 38, Type (0, 0), BuildingBlock: EZIPEK_clean_linker_0, # of connection points: 2
#     Edge 39, Type (0, 0), BuildingBlock: EZIPEK_clean_linker_0, # of connection points: 2
#     Edge 40, Type (0, 0), BuildingBlock: EZIPEK_clean_linker_0, # of connection points: 2
#     Edge 41, Type (0, 0), BuildingBlock: EZIPEK_clean_linker_0, # of connection points: 2
#     Edge 42, Type (0, 0), BuildingBlock: EZIPEK_clean_linker_0, # of connection points: 2
#     Edge 43, Type (0, 0), BuildingBlock: EZIPEK_clean_linker_0, # of connection points: 2
#     Edge 44, Type (0, 0), BuildingBlock: EZIPEK_clean_linker_0, # of connection points: 2
#     Edge 45, Type (0, 0), BuildingBlock: EZIPEK_clean_linker_0, # of connection points: 2
#     Edge 46, Type (0, 0), BuildingBlock: EZIPEK_clean_linker_0, # of connection points: 2
#     Edge 47, Type (0, 0), BuildingBlock: EZIPEK_clean_linker_0, # of connection points: 2
# Relax obj value: 0.141
# Max RMSD: 0.170
# Mean RMSD: 0.170
data_MOF--net-tzs--node1-ICAMEG_clean_sbu_1--edge1-EZIPEK_clean_linker_0
_symmetry_space_group_name_H-M    P1
_symmetry_Int_Tables_number       1
_symmetry_cell_setting            triclinic
loop_
_symmetry_equiv_pos_as_xyz
'x, y, z'
_cell_length_a     36.933006
_cell_length_b     36.927755
_cell_length_c     33.355434
_cell_angle_alpha  89.971395
_cell_angle_beta   90.041289
_cell_angle_gamma 90.668335
loop_
_atom_site_label
_atom_site_type_symbol
_atom_site_fract_x
_atom_site_fract_y
_atom_site_fract_z
_atom_type_partial_charge
Co0 Co 0.12861 0.40412 0.17169 0.0
Co1 Co 0.15619 0.35825 0.25513 0.0
O2 O 0.16204 0.36945 0.19727 0.0
C3 C 0.15914 0.36011 0.10201 0.0
O4 O 0.18104 0.34261 0.12593 0.0
C5 C 0.23844 0.36286 0.24687 0.0
O6 O 0.23813 0.39074 0.22264 0.0
O7 O 0.16305 0.41131 0.26675 0.0
O8 O 0.12144 0.42883 0.22359 0.0
H9 H 0.10291 0.38129 0.39096 0.0
H10 H 0.2082 0.39735 0.15325 0.0
O11 O 0.1353 0.38144 0.11636 0.0
H12 H 0.18637 0.52832 0.16067 0.0
H13 H 0.07814 0.48441 0.06261 0.0
H14 H 0.05947 0.43657 0.199 0.0
H15 H 0.13661 0.48501 0.17145 0.0
H16 H 0.12177 0.44256 0.09222 0.0
O17 O 0.20937 0.34989 0.26148 0.0
H18 H 0.11008 0.38951 0.3181 0.0
H19 H 0.19227 0.30984 0.31608 0.0
H20 H 0.01539 0.47887 0.17069 0.0
H21 H 0.25881 0.43979 0.14338 0.0
H22 H 0.02483 0.50348 0.10207 0.0
H23 H 0.24819 0.50598 0.14653 0.0
O24 O 0.08747 0.37066 0.18582 0.0
H25 H 0.18654 0.24603 0.17783 0.0
H26 H 0.11789 0.293 0.29258 0.0
H27 H 0.11384 0.22835 0.27631 0.0
H28 H 0.14822 0.20424 0.21841 0.0
H29 H 0.18974 0.31056 0.19516 0.0
H30 H 0.18658 0.3016 0.38897 0.0
H31 H 0.14138 0.33712 0.42694 0.0
O32 O 0.10106 0.36292 0.25063 0.0
C33 C 0.1451 0.43634 0.24989 0.0
C34 C 0.1225 0.36542 0.37469 0.0
C35 C 0.16955 0.32082 0.3736 0.0
N36 N 0.15102 0.34974 0.31247 0.0
C37 C 0.12648 0.36974 0.33333 0.0
C38 C 0.17279 0.32583 0.33225 0.0
C39 C 0.14416 0.34072 0.39488 0.0
C40 C 0.20288 0.42584 0.15456 0.0
N41 N 0.16861 0.43814 0.16105 0.0
C42 C 0.23189 0.44992 0.14889 0.0
C43 C 0.22594 0.48703 0.15064 0.0
C44 C 0.19125 0.49955 0.15831 0.0
C45 C 0.16294 0.47467 0.16382 0.0
C46 C 0.07384 0.47397 0.09258 0.0
C47 C 0.06394 0.447 0.16917 0.0
C48 C 0.09846 0.44994 0.10947 0.0
N49 N 0.09367 0.437 0.14756 0.0
C50 C 0.03871 0.47096 0.15325 0.0
C51 C 0.04389 0.48464 0.11474 0.0
C52 C 0.07779 0.3628 0.2218 0.0
C53 C 0.17064 0.2563 0.2025 0.0
C54 C 0.1318 0.28339 0.26637 0.0
C55 C 0.12989 0.24641 0.2577 0.0
C56 C 0.14927 0.23287 0.22534 0.0
N57 N 0.15177 0.30659 0.24303 0.0
C58 C 0.17182 0.2931 0.21207 0.0
Co59 Co 0.5979 0.12142 0.15546 0.0
Co60 Co 0.63234 0.15015 0.2447 0.0
O61 O 0.636 0.14802 0.18543 0.0
C62 C 0.65813 0.12825 0.09371 0.0
O63 O 0.68272 0.1422 0.11776 0.0
C64 C 0.67311 0.21958 0.22036 0.0
O65 O 0.67282 0.20968 0.18264 0.0
O66 O 0.58368 0.17343 0.23854 0.0
O67 O 0.562 0.13072 0.19837 0.0
H68 H 0.56225 0.14279 0.37347 0.0
H69 H 0.63447 0.18912 0.12495 0.0
O70 O 0.63062 0.11181 0.10841 0.0
H71 H 0.50437 0.20924 0.10537 0.0
H72 H 0.52675 0.08295 0.03291 0.0
H73 H 0.54361 0.06523 0.17778 0.0
H74 H 0.52568 0.15237 0.13475 0.0
H75 H 0.5735 0.1175 0.06958 0.0
O76 O 0.65698 0.20009 0.24685 0.0
H77 H 0.57222 0.13395 0.30103 0.0
H78 H 0.68009 0.17301 0.31329 0.0
H79 H 0.49513 0.03144 0.14304 0.0
H80 H 0.61456 0.24605 0.0949 0.0
H81 H 0.48665 0.03992 0.06973 0.0
H82 H 0.54889 0.25662 0.0848 0.0
O83 O 0.61387 0.076 0.18463 0.0
H84 H 0.76129 0.12254 0.20578 0.0
H85 H 0.66183 0.09346 0.29911 0.0
H86 H 0.72001 0.06247 0.30628 0.0
H87 H 0.77041 0.07698 0.25951 0.0
H88 H 0.70292 0.15302 0.19983 0.0
H89 H 0.67166 0.18078 0.38581 0.0
H90 H 0.61215 0.16554 0.41647 0.0
O91 O 0.60939 0.09994 0.24627 0.0
C92 C 0.55714 0.15866 0.21992 0.0
C93 C 0.58833 0.14884 0.36049 0.0
C94 C 0.64964 0.17058 0.36743 0.0
N95 N 0.62677 0.15318 0.30265 0.0
C96 C 0.59415 0.1442 0.31944 0.0
C97 C 0.65427 0.16627 0.32618 0.0
C98 C 0.61632 0.16195 0.38461 0.0
C99 C 0.60615 0.19271 0.11971 0.0
N100 N 0.58175 0.16625 0.12999 0.0
C101 C 0.59486 0.22539 0.10303 0.0
C102 C 0.55806 0.23135 0.09749 0.0
C103 C 0.5331 0.20477 0.10892 0.0
C104 C 0.54546 0.1724 0.12535 0.0
C105 C 0.53017 0.07892 0.06483 0.0
C106 C 0.53974 0.06943 0.14633 0.0
C107 C 0.55687 0.09821 0.08578 0.0
N108 N 0.56114 0.09367 0.12626 0.0
C109 C 0.51245 0.04999 0.12655 0.0
C110 C 0.50769 0.0548 0.08548 0.0
C111 C 0.61353 0.0726 0.22312 0.0
C112 C 0.73975 0.11641 0.22679 0.0
C113 C 0.68378 0.10073 0.27915 0.0
C114 C 0.71666 0.0828 0.28322 0.0
C115 C 0.74485 0.09083 0.25689 0.0
N116 N 0.67917 0.1266 0.25021 0.0
C117 C 0.70651 0.13388 0.22372 0.0
Co118 Co 0.87275 0.60751 0.17147 0.0
Co119 Co 0.8476 0.65243 0.25666 0.0
O120 O 0.84666 0.64732 0.19753 0.0
C121 C 0.85532 0.65612 0.10367 0.0
O122 O 0.82903 0.6698 0.1251 0.0
C123 C 0.76538 0.66166 0.26132 0.0
O124 O 0.75901 0.62681 0.26441 0.0
O125 O 0.82825 0.60155 0.26267 0.0
O126 O 0.86573 0.57592 0.21893 0.0
H127 H 0.87208 0.61064 0.39747 0.0
H128 H 0.79456 0.60591 0.1962 0.0
O129 O 0.87941 0.63667 0.12062 0.0
H130 H 0.79738 0.54449 0.06537 0.0
H131 H 0.97707 0.55609 0.09446 0.0
H132 H 0.86616 0.52629 0.17032 0.0
H133 H 0.85287 0.5714 0.09372 0.0
H134 H 0.93967 0.60468 0.12298 0.0
O135 O 0.79751 0.67351 0.25521 0.0
H136 H 0.87349 0.60688 0.32379 0.0
H137 H 0.81971 0.70752 0.31467 0.0
H138 H 0.90326 0.47705 0.14339 0.0
H139 H 0.73848 0.57987 0.16871 0.0
H140 H 0.95879 0.49171 0.10463 0.0
H141 H 0.73956 0.54837 0.10297 0.0
O142 O 0.91887 0.62684 0.19611 0.0
H143 H 0.85434 0.77669 0.19529 0.0
H144 H 0.90425 0.69642 0.29921 0.0
H145 H 0.9265 0.75944 0.29425 0.0
H146 H 0.90156 0.80007 0.24195 0.0
H147 H 0.83249 0.71365 0.20174 0.0
H148 H 0.81731 0.71221 0.38826 0.0
H149 H 0.84377 0.66365 0.43025 0.0
O150 O 0.89939 0.63456 0.25947 0.0
C151 C 0.84243 0.57364 0.24682 0.0
C152 C 0.86059 0.63207 0.37952 0.0
C153 C 0.82978 0.68901 0.37434 0.0
N154 N 0.84702 0.65698 0.31478 0.0
C155 C 0.86146 0.63012 0.33772 0.0
C156 C 0.83112 0.68611 0.33263 0.0
C157 C 0.84465 0.66178 0.39788 0.0
C158 C 0.79575 0.59175 0.1681 0.0
N159 N 0.82782 0.58837 0.14809 0.0
C160 C 0.76364 0.57728 0.1524 0.0
C161 C 0.76424 0.55967 0.11552 0.0
C162 C 0.79669 0.55734 0.09451 0.0
C163 C 0.8282 0.57238 0.11104 0.0
C164 C 0.95272 0.54935 0.11102 0.0
C165 C 0.89054 0.53307 0.15392 0.0
C166 C 0.93131 0.57676 0.12698 0.0
N167 N 0.90047 0.56849 0.14778 0.0
C168 C 0.91134 0.50499 0.13854 0.0
C169 C 0.94256 0.51325 0.11684 0.0
C170 C 0.92493 0.63147 0.23366 0.0
C171 C 0.86535 0.7593 0.21829 0.0
C172 C 0.89298 0.71399 0.27661 0.0
C173 C 0.90575 0.74967 0.2739 0.0
C174 C 0.89182 0.77241 0.24449 0.0
N175 N 0.8667 0.70143 0.2511 0.0
C176 C 0.85308 0.72354 0.22207 0.0
Co177 Co 0.38649 0.89355 0.15853 0.0
Co178 Co 0.34366 0.86997 0.24714 0.0
O179 O 0.34753 0.86901 0.18862 0.0
C180 C 0.32726 0.88138 0.09745 0.0
O181 O 0.30466 0.86475 0.12175 0.0
C182 C 0.33583 0.79009 0.26606 0.0
O183 O 0.36522 0.79168 0.28822 0.0
O184 O 0.39536 0.85401 0.25212 0.0
O185 O 0.42106 0.88599 0.20254 0.0
H186 H 0.38748 0.90092 0.38561 0.0
H187 H 0.35023 0.82114 0.14086 0.0
O188 O 0.35301 0.90101 0.11142 0.0
H189 H 0.47893 0.80384 0.11017 0.0
H190 H 0.448 0.93738 0.03125 0.0
H191 H 0.45843 0.93162 0.17778 0.0
H192 H 0.45813 0.86181 0.13612 0.0
H193 H 0.40266 0.9045 0.07016 0.0
O194 O 0.32594 0.81778 0.246 0.0
H195 H 0.38993 0.89962 0.31176 0.0
H196 H 0.29036 0.84112 0.30762 0.0
H197 H 0.50431 0.9642 0.13971 0.0
H198 H 0.37001 0.76286 0.11499 0.0
H199 H 0.49947 0.96795 0.06566 0.0
H200 H 0.43483 0.75366 0.09891 0.0
O201 O 0.37192 0.94122 0.18422 0.0
H202 H 0.21773 0.86313 0.1904 0.0
H203 H 0.29721 0.92415 0.28882 0.0
H204 H 0.23289 0.94096 0.28466 0.0
H205 H 0.19271 0.91052 0.23499 0.0
H206 H 0.282 0.84663 0.19619 0.0
H207 H 0.28677 0.84178 0.38141 0.0
H208 H 0.33556 0.87186 0.42095 0.0
O209 O 0.3588 0.92329 0.24775 0.0
C210 C 0.42306 0.86604 0.23331 0.0
C211 C 0.36602 0.88776 0.36874 0.0
C212 C 0.30951 0.85458 0.36638 0.0
N213 N 0.34036 0.87039 0.30534 0.0
C214 C 0.36728 0.88696 0.3269 0.0
C215 C 0.31175 0.85421 0.32458 0.0
C216 C 0.33689 0.87145 0.38854 0.0
C217 C 0.37811 0.81858 0.13247 0.0
N218 N 0.40204 0.84689 0.13662 0.0
C219 C 0.38936 0.78489 0.11844 0.0
C220 C 0.42571 0.77967 0.1096 0.0
C221 C 0.45038 0.80785 0.11571 0.0
C222 C 0.43813 0.84114 0.12978 0.0
C223 C 0.4497 0.93721 0.06365 0.0
C224 C 0.45415 0.9344 0.1462 0.0
C225 C 0.42331 0.9192 0.08637 0.0
N226 N 0.42474 0.91888 0.12753 0.0
C227 C 0.48118 0.95238 0.12442 0.0
C228 C 0.47863 0.95422 0.0829 0.0
C229 C 0.36506 0.9482 0.22146 0.0
C230 C 0.23499 0.87675 0.21201 0.0
C231 C 0.27988 0.9107 0.26719 0.0
C232 C 0.24347 0.92034 0.26498 0.0
C233 C 0.22096 0.90328 0.23709 0.0
N234 N 0.29351 0.88473 0.24242 0.0
C235 C 0.27149 0.86769 0.21524 0.0
Co236 Co 0.12293 0.61126 0.36482 0.0
Co237 Co 0.14489 0.66701 0.28564 0.0
O238 O 0.14791 0.6541 0.34293 0.0
C239 C 0.14346 0.6514 0.43841 0.0
O240 O 0.17308 0.66058 0.41892 0.0
C241 C 0.22364 0.67769 0.26505 0.0
O242 O 0.22104 0.65047 0.23985 0.0
O243 O 0.16049 0.61686 0.26963 0.0
O244 O 0.1279 0.58487 0.31406 0.0
H245 H 0.11088 0.6475 0.14117 0.0
H246 H 0.19899 0.61333 0.33369 0.0
O247 O 0.11771 0.63582 0.41893 0.0
H248 H 0.20578 0.54512 0.46025 0.0
H249 H 0.02577 0.54842 0.44438 0.0
H250 H 0.13183 0.53063 0.35741 0.0
H251 H 0.14771 0.56881 0.43674 0.0
H252 H 0.05666 0.60071 0.41292 0.0
O253 O 0.19691 0.68533 0.28778 0.0
H254 H 0.1147 0.63183 0.21286 0.0
H255 H 0.17018 0.73069 0.23705 0.0
H256 H 0.09906 0.47739 0.38407 0.0
H257 H 0.2574 0.58963 0.35578 0.0
H258 H 0.04604 0.48605 0.42877 0.0
H259 H 0.2613 0.55519 0.41957 0.0
O260 O 0.07546 0.63046 0.34434 0.0
H261 H 0.15069 0.78139 0.36709 0.0
H262 H 0.087 0.71703 0.25789 0.0
H263 H 0.0675 0.77826 0.27715 0.0
H264 H 0.09944 0.81086 0.33214 0.0
H265 H 0.16937 0.72019 0.34676 0.0
H266 H 0.16691 0.74758 0.16567 0.0
H267 H 0.13708 0.70584 0.11713 0.0
O268 O 0.09233 0.65044 0.2831 0.0
C269 C 0.14669 0.58712 0.28245 0.0
C270 C 0.12393 0.66594 0.16202 0.0
C271 C 0.15533 0.7221 0.17576 0.0
N272 N 0.14256 0.68022 0.22921 0.0
C273 C 0.12616 0.65716 0.20267 0.0
C274 C 0.15716 0.71234 0.21616 0.0
C275 C 0.13862 0.69867 0.14855 0.0
C276 C 0.19992 0.59784 0.36099 0.0
N277 N 0.16926 0.59178 0.38309 0.0
C278 C 0.23336 0.5847 0.37359 0.0
C279 C 0.23554 0.56545 0.40939 0.0
C280 C 0.20443 0.55976 0.43217 0.0
C281 C 0.17146 0.57322 0.41856 0.0
C282 C 0.04855 0.54418 0.42466 0.0
C283 C 0.10819 0.53469 0.37589 0.0
C284 C 0.06664 0.57376 0.40757 0.0
N285 N 0.09701 0.56894 0.3851 0.0
C286 C 0.0899 0.50438 0.39115 0.0
C287 C 0.06015 0.50925 0.41615 0.0
C288 C 0.06805 0.63983 0.30816 0.0
C289 C 0.13655 0.76746 0.34309 0.0
C290 C 0.10102 0.73105 0.28186 0.0
C291 C 0.08989 0.76573 0.2926 0.0
C292 C 0.1078 0.78399 0.32347 0.0
N293 N 0.12926 0.71502 0.3012 0.0
C294 C 0.14697 0.73278 0.33147 0.0
Co295 Co 0.40528 0.15261 0.3405 0.0
Co296 Co 0.33605 0.17117 0.27374 0.0
O297 O 0.359 0.17548 0.32692 0.0
C298 C 0.36142 0.14542 0.41862 0.0
O299 O 0.32946 0.14661 0.40146 0.0
C300 C 0.3376 0.25162 0.28478 0.0
O301 O 0.37132 0.25033 0.29699 0.0
O302 O 0.38195 0.18761 0.24661 0.0
O303 O 0.42435 0.16266 0.28593 0.0
H304 H 0.32452 0.12758 0.1313 0.0
H305 H 0.37596 0.21402 0.38781 0.0
O306 O 0.38998 0.14419 0.39746 0.0
H307 H 0.49927 0.25226 0.34863 0.0
H308 H 0.50669 0.11875 0.43404 0.0
H309 H 0.45531 0.1025 0.29906 0.0
H310 H 0.47498 0.1927 0.32802 0.0
H311 H 0.45403 0.15403 0.41258 0.0
O312 O 0.32009 0.22282 0.27614 0.0
H313 H 0.35254 0.13199 0.19814 0.0
H314 H 0.26838 0.20072 0.23749 0.0
H315 H 0.50861 0.0676 0.31871 0.0
H316 H 0.39916 0.27379 0.40897 0.0
H317 H 0.53407 0.07454 0.38716 0.0
H318 H 0.46127 0.29332 0.38939 0.0
O319 O 0.38599 0.10364 0.32186 0.0
H320 H 0.23728 0.18044 0.37643 0.0
H321 H 0.2823 0.11131 0.26063 0.0
H322 H 0.22557 0.09201 0.2937 0.0
H323 H 0.20268 0.12672 0.35203 0.0
H324 H 0.29402 0.19864 0.34257 0.0
H325 H 0.23953 0.1972 0.17109 0.0
H326 H 0.26759 0.16046 0.11733 0.0
O327 O 0.35074 0.11891 0.2695 0.0
C328 C 0.41485 0.18075 0.25522 0.0
C329 C 0.3122 0.14397 0.15434 0.0
C330 C 0.26453 0.18305 0.17666 0.0
N331 N 0.31286 0.16737 0.2215 0.0
C332 C 0.32813 0.14674 0.19222 0.0
C333 C 0.28123 0.18516 0.21418 0.0
C334 C 0.28025 0.16238 0.14654 0.0
C335 C 0.40311 0.22209 0.37943 0.0
N336 N 0.42419 0.1996 0.35709 0.0
C337 C 0.41606 0.25608 0.39139 0.0
C338 C 0.45088 0.26704 0.38035 0.0
C339 C 0.47222 0.24402 0.35751 0.0
C340 C 0.4583 0.21029 0.34593 0.0
C341 C 0.49551 0.11494 0.40431 0.0
C342 C 0.46645 0.10626 0.32847 0.0
C343 C 0.46557 0.13482 0.39193 0.0
N344 N 0.45076 0.12966 0.35469 0.0
C345 C 0.49665 0.08625 0.3396 0.0
C346 C 0.51084 0.09015 0.37804 0.0
C347 C 0.36737 0.09538 0.29046 0.0
C348 C 0.24697 0.16509 0.35105 0.0
C349 C 0.27259 0.12646 0.28609 0.0
C350 C 0.2404 0.11545 0.30464 0.0
C351 C 0.22757 0.13494 0.33735 0.0
N352 N 0.2915 0.15598 0.29978 0.0
C353 C 0.27905 0.17529 0.33174 0.0
Co354 Co 0.8824 0.42219 0.34115 0.0
Co355 Co 0.85087 0.35304 0.26785 0.0
O356 O 0.85036 0.37855 0.32286 0.0
C357 C 0.90411 0.38464 0.41671 0.0
O358 O 0.93763 0.38431 0.40369 0.0
C359 C 0.76998 0.34159 0.25853 0.0
O360 O 0.76575 0.37447 0.24461 0.0
O361 O 0.83219 0.39884 0.24209 0.0
O362 O 0.84672 0.4013 0.30376 0.0
H363 H 0.87654 0.34746 0.12021 0.0
H364 H 0.81167 0.40205 0.37908 0.0
O365 O 0.87867 0.39314 0.39264 0.0
H366 H 0.81134 0.5353 0.37044 0.0
H367 H 0.92344 0.51084 0.44727 0.0
H368 H 0.95204 0.45542 0.31692 0.0
H369 H 0.86433 0.50099 0.34825 0.0
H370 H 0.88585 0.46088 0.42076 0.0
O371 O 0.79993 0.33278 0.27499 0.0
H372 H 0.87569 0.37551 0.18732 0.0
H373 H 0.82662 0.2808 0.23618 0.0
H374 H 0.99116 0.50434 0.34316 0.0
H375 H 0.75836 0.43533 0.40229 0.0
H376 H 0.9752 0.53411 0.40734 0.0
H377 H 0.75774 0.50245 0.39783 0.0
O378 O 0.92476 0.39381 0.31707 0.0
H379 H 0.85434 0.25881 0.37606 0.0
H380 H 0.91121 0.30174 0.25075 0.0
H381 H 0.93592 0.24837 0.28526 0.0
H382 H 0.90737 0.2265 0.34833 0.0
H383 H 0.83073 0.31233 0.3407 0.0
H384 H 0.82636 0.25194 0.16958 0.0
H385 H 0.85162 0.28524 0.11102 0.0
O386 O 0.90259 0.36948 0.25942 0.0
C387 C 0.83576 0.41928 0.27183 0.0
C388 C 0.86561 0.3326 0.14552 0.0
C389 C 0.83741 0.27902 0.17321 0.0
N390 N 0.85157 0.32973 0.2157 0.0
C391 C 0.86525 0.3483 0.18361 0.0
C392 C 0.8376 0.29555 0.21086 0.0
C393 C 0.85159 0.29771 0.14038 0.0
C394 C 0.81192 0.43125 0.37718 0.0
N395 N 0.84127 0.44943 0.36178 0.0
C396 C 0.78151 0.44997 0.39035 0.0
C397 C 0.78116 0.48761 0.38781 0.0
C398 C 0.81117 0.50604 0.37244 0.0
C399 C 0.84106 0.48641 0.35954 0.0
C400 C 0.9301 0.49858 0.41878 0.0
C401 C 0.94595 0.467 0.34578 0.0
C402 C 0.909 0.47014 0.40363 0.0
N403 N 0.9163 0.45554 0.36687 0.0
C404 C 0.96808 0.49494 0.36034 0.0
C405 C 0.95946 0.51135 0.39661 0.0
C406 C 0.92912 0.37915 0.28205 0.0
C407 C 0.8669 0.26795 0.34848 0.0
C408 C 0.8986 0.29236 0.27815 0.0
C409 C 0.91271 0.26212 0.29755 0.0
C410 C 0.89668 0.24987 0.33294 0.0
N411 N 0.86929 0.30986 0.29352 0.0
C412 C 0.85355 0.29812 0.32828 0.0
Co413 Co 0.59715 0.87844 0.36154 0.0
Co414 Co 0.65139 0.86104 0.27943 0.0
O415 O 0.64009 0.85532 0.33737 0.0
C416 C 0.64813 0.87917 0.43702 0.0
O417 O 0.67985 0.87421 0.42029 0.0
C418 C 0.67306 0.78349 0.29955 0.0
O419 O 0.66451 0.78807 0.33733 0.0
O420 O 0.6006 0.84616 0.26424 0.0
O421 O 0.57055 0.87609 0.31108 0.0
H422 H 0.62368 0.91031 0.14243 0.0
H423 H 0.62809 0.81373 0.40104 0.0
O424 O 0.61964 0.88179 0.41592 0.0
H425 H 0.50243 0.77914 0.36726 0.0
H426 H 0.50394 0.89897 0.46964 0.0
H427 H 0.54274 0.93184 0.3331 0.0
H428 H 0.52566 0.84032 0.35183 0.0
H429 H 0.55809 0.87161 0.44014 0.0
O430 O 0.66726 0.8086 0.27392 0.0
H431 H 0.61486 0.90149 0.21481 0.0
H432 H 0.7065 0.8338 0.21966 0.0
H433 H 0.48818 0.95946 0.36128 0.0
H434 H 0.6058 0.75236 0.41745 0.0
H435 H 0.46847 0.94328 0.43025 0.0
H436 H 0.54256 0.73463 0.40039 0.0
O437 O 0.6166 0.92757 0.3447 0.0
H438 H 0.76598 0.85919 0.36227 0.0
H439 H 0.70667 0.91228 0.24419 0.0
H440 H 0.76965 0.92883 0.25942 0.0
H441 H 0.79991 0.90239 0.31892 0.0
H442 H 0.70355 0.84242 0.34551 0.0
H443 H 0.716 0.84099 0.14731 0.0
H444 H 0.67456 0.87987 0.10801 0.0
O445 O 0.63784 0.9139 0.28314 0.0
C446 C 0.57152 0.85905 0.27846 0.0
C447 C 0.64206 0.89343 0.15922 0.0
C448 C 0.69373 0.85445 0.16193 0.0
N449 N 0.66036 0.86734 0.22206 0.0
C450 C 0.63731 0.88849 0.2004 0.0
C451 C 0.68808 0.85016 0.20307 0.0
C452 C 0.67053 0.87629 0.13991 0.0
C453 C 0.60046 0.8064 0.39387 0.0
N454 N 0.5783 0.83072 0.37556 0.0
C455 C 0.58801 0.77153 0.40311 0.0
C456 C 0.55255 0.76158 0.39348 0.0
C457 C 0.53003 0.78653 0.37489 0.0
C458 C 0.54342 0.82116 0.36613 0.0
C459 C 0.51251 0.90662 0.43976 0.0
C460 C 0.53468 0.92475 0.36313 0.0
C461 C 0.54347 0.89148 0.42294 0.0
N462 N 0.55454 0.90087 0.38512 0.0
C463 C 0.5036 0.94047 0.37896 0.0
C464 C 0.49255 0.93138 0.41762 0.0
C465 C 0.62837 0.93702 0.3098 0.0
C466 C 0.75322 0.87067 0.33603 0.0
C467 C 0.71961 0.89963 0.26951 0.0
C468 C 0.75535 0.90956 0.27826 0.0
C469 C 0.77226 0.89486 0.31171 0.0
N470 N 0.70112 0.87528 0.29299 0.0
C471 C 0.71755 0.86127 0.32627 0.0
Co472 Co 0.90274 0.64004 0.85312 0.0
Co473 Co 0.84401 0.65478 0.77366 0.0
O474 O 0.85921 0.66345 0.83017 0.0
C475 C 0.85638 0.65505 0.92799 0.0
O476 O 0.83132 0.6719 0.90757 0.0
C477 C 0.82259 0.73422 0.78843 0.0
O478 O 0.83234 0.73341 0.82618 0.0
O479 O 0.89381 0.66888 0.75414 0.0
O480 O 0.92591 0.64001 0.80068 0.0
H481 H 0.86072 0.60117 0.63625 0.0
H482 H 0.87579 0.71325 0.87851 0.0
O483 O 0.8824 0.63935 0.90999 0.0
H484 H 1.00512 0.73122 0.84867 0.0
H485 H 0.9995 0.61597 0.95696 0.0
H486 H 0.95457 0.58524 0.8221 0.0
H487 H 0.97711 0.67091 0.84291 0.0
H488 H 0.9453 0.64512 0.93009 0.0
O489 O 0.8273 0.70672 0.7658 0.0
H490 H 0.87571 0.61269 0.70689 0.0
H491 H 0.78335 0.67848 0.71921 0.0
H492 H 0.00943 0.55608 0.84744 0.0
H493 H 0.90245 0.77416 0.8836 0.0
H494 H 0.03217 0.57105 0.91556 0.0
H495 H 0.96782 0.78358 0.86912 0.0
O496 O 0.88154 0.59062 0.83985 0.0
H497 H 0.73627 0.65962 0.86652 0.0
H498 H 0.78687 0.60139 0.74659 0.0
H499 H 0.72637 0.58344 0.77002 0.0
H500 H 0.70054 0.61242 0.83057 0.0
H501 H 0.79613 0.67757 0.84145 0.0
H502 H 0.76761 0.66866 0.64853 0.0
H503 H 0.80626 0.62938 0.6064 0.0
O504 O 0.85891 0.60227 0.77854 0.0
C505 C 0.92346 0.65622 0.76751 0.0
C506 C 0.84358 0.61827 0.65427 0.0
C507 C 0.79145 0.65621 0.66112 0.0
N508 N 0.83051 0.64614 0.71772 0.0
C509 C 0.85192 0.62474 0.6945 0.0
C510 C 0.8007 0.66201 0.70123 0.0
C511 C 0.81308 0.63414 0.63753 0.0
C512 C 0.90404 0.71676 0.8721 0.0
N513 N 0.92479 0.68777 0.86202 0.0
C514 C 0.91914 0.75151 0.87516 0.0
C515 C 0.95578 0.75678 0.86705 0.0
C516 C 0.97674 0.72742 0.85579 0.0
C517 C 0.96068 0.69308 0.8531 0.0
C518 C 0.98965 0.6089 0.92737 0.0
C519 C 0.96411 0.59217 0.85167 0.0
C520 C 0.95854 0.62509 0.9121 0.0
N521 N 0.9458 0.6165 0.87472 0.0
C522 C 0.99532 0.57545 0.86591 0.0
C523 C 0.00805 0.58382 0.9041 0.0
C524 C 0.87018 0.57993 0.80519 0.0
C525 C 0.7472 0.64674 0.84009 0.0
C526 C 0.77597 0.61472 0.7726 0.0
C527 C 0.74157 0.60417 0.78589 0.0
C528 C 0.72714 0.62034 0.81989 0.0
N529 N 0.79559 0.64084 0.7923 0.0
C530 C 0.78147 0.65662 0.82584 0.0
Co531 Co 0.37944 0.89551 0.84869 0.0
Co532 Co 0.36199 0.83175 0.77633 0.0
O533 O 0.35255 0.85149 0.83069 0.0
C534 C 0.35026 0.86186 0.9261 0.0
O535 O 0.33091 0.83799 0.90612 0.0
C536 C 0.28344 0.80837 0.79382 0.0
O537 O 0.28571 0.81781 0.8316 0.0
O538 O 0.34834 0.88002 0.7534 0.0
O539 O 0.38554 0.91102 0.79279 0.0
H540 H 0.42143 0.8395 0.64084 0.0
H541 H 0.29992 0.87842 0.8621 0.0
O542 O 0.37319 0.88235 0.9079 0.0
H543 H 0.30536 0.00874 0.8327 0.0
H544 H 0.41548 0.99935 0.94047 0.0
H545 H 0.44153 0.93733 0.81331 0.0
H546 H 0.36061 0.973 0.83228 0.0
H547 H 0.38001 0.946 0.92042 0.0
O548 O 0.30978 0.81443 0.76971 0.0
H549 H 0.40913 0.85769 0.71016 0.0
H550 H 0.33394 0.77099 0.72294 0.0
H551 H 0.4769 0.99126 0.83187 0.0
H552 H 0.24398 0.91293 0.8612 0.0
H553 H 0.46423 0.02278 0.89594 0.0
H554 H 0.24623 0.97893 0.84723 0.0
O555 O 0.42577 0.86801 0.84293 0.0
H556 H 0.35898 0.73266 0.88107 0.0
H557 H 0.40986 0.76948 0.75085 0.0
H558 H 0.42542 0.71067 0.77886 0.0
H559 H 0.40014 0.69156 0.84455 0.0
H560 H 0.34328 0.7909 0.85187 0.0
H561 H 0.34455 0.7523 0.65355 0.0
H562 H 0.38897 0.78639 0.61183 0.0
O563 O 0.41519 0.84672 0.78109 0.0
C564 C 0.36323 0.90973 0.76411 0.0
C565 C 0.40213 0.82427 0.65873 0.0
C566 C 0.35895 0.77547 0.66581 0.0
N567 N 0.37106 0.81534 0.72143 0.0
C568 C 0.39517 0.83439 0.69829 0.0
C569 C 0.35275 0.78641 0.70527 0.0
C570 C 0.38388 0.79455 0.64245 0.0
C571 C 0.30179 0.90686 0.85634 0.0
N572 N 0.33459 0.92354 0.85015 0.0
C573 C 0.26967 0.92645 0.85577 0.0
C574 C 0.27092 0.96345 0.84792 0.0
C575 C 0.30408 0.98021 0.84007 0.0
C576 C 0.3356 0.95969 0.8407 0.0
C577 C 0.42133 0.98581 0.91248 0.0
C578 C 0.43525 0.95072 0.84111 0.0
C579 C 0.40137 0.95515 0.90101 0.0
N580 N 0.40816 0.93792 0.86553 0.0
C581 C 0.4557 0.98135 0.85155 0.0
C582 C 0.44863 0.99898 0.88749 0.0
C583 C 0.43739 0.8564 0.80897 0.0
C584 C 0.37009 0.74057 0.8523 0.0
C585 C 0.39787 0.76181 0.77906 0.0
C586 C 0.4072 0.72819 0.79498 0.0
C587 C 0.39312 0.71752 0.83184 0.0
N588 N 0.37487 0.78443 0.79894 0.0
C589 C 0.36134 0.77397 0.83542 0.0
Co590 Co 0.12357 0.35323 0.85681 0.0
Co591 Co 0.18307 0.34383 0.77692 0.0
O592 O 0.16818 0.33445 0.83292 0.0
C593 C 0.17522 0.3495 0.92868 0.0
O594 O 0.20236 0.33624 0.90828 0.0
C595 C 0.18722 0.2613 0.77198 0.0
O596 O 0.15253 0.2565 0.77899 0.0
O597 O 0.13368 0.32947 0.7555 0.0
O598 O 0.09826 0.34759 0.80585 0.0
H599 H 0.17164 0.39562 0.63772 0.0
H600 H 0.16168 0.28672 0.88546 0.0
O601 O 0.14627 0.35944 0.91133 0.0
H602 H 0.03446 0.24932 0.86719 0.0
H603 H 0.02978 0.36856 0.96544 0.0
H604 H 0.06415 0.4002 0.82706 0.0
H605 H 0.05394 0.31173 0.85209 0.0
H606 H 0.08604 0.34534 0.93623 0.0
O607 O 0.20141 0.29291 0.77207 0.0
H608 H 0.15342 0.38501 0.70764 0.0
H609 H 0.24597 0.32031 0.72696 0.0
H610 H 0.00713 0.42309 0.85474 0.0
H611 H 0.14332 0.22435 0.90157 0.0
H612 H 0.98972 0.4076 0.92464 0.0
H613 H 0.07918 0.20511 0.89254 0.0
O614 O 0.13818 0.40418 0.84052 0.0
H615 H 0.29329 0.33274 0.86454 0.0
H616 H 0.23686 0.40176 0.75508 0.0
H617 H 0.2976 0.41958 0.77902 0.0
H618 H 0.32631 0.38494 0.83419 0.0
H619 H 0.23253 0.31617 0.83971 0.0
H620 H 0.26493 0.32962 0.65701 0.0
H621 H 0.22783 0.36772 0.61183 0.0
O622 O 0.16679 0.39579 0.78149 0.0
C623 C 0.10266 0.33646 0.77044 0.0
C624 C 0.18808 0.37899 0.65711 0.0
C625 C 0.24035 0.3419 0.6679 0.0
N626 N 0.19836 0.35215 0.72169 0.0
C627 C 0.17785 0.37299 0.69688 0.0
C628 C 0.22926 0.33652 0.7075 0.0
C629 C 0.21957 0.3633 0.64258 0.0
C630 C 0.13358 0.27926 0.88286 0.0
N631 N 0.10868 0.30384 0.87022 0.0
C632 C 0.12338 0.24355 0.89141 0.0
C633 C 0.08745 0.23273 0.88618 0.0
C634 C 0.06235 0.25753 0.87205 0.0
C635 C 0.07355 0.29302 0.86387 0.0
C636 C 0.03724 0.37578 0.93508 0.0
C637 C 0.05682 0.39309 0.85734 0.0
C638 C 0.06938 0.36306 0.91844 0.0
N639 N 0.07903 0.37196 0.88002 0.0
C640 C 0.02445 0.40626 0.87294 0.0
C641 C 0.01471 0.39758 0.91213 0.0
C642 C 0.15185 0.41641 0.8076 0.0
C643 C 0.28104 0.3482 0.84064 0.0
C644 C 0.24894 0.38678 0.77936 0.0
C645 C 0.28346 0.3969 0.79267 0.0
C646 C 0.29955 0.37745 0.82359 0.0
N647 N 0.23076 0.35827 0.79644 0.0
C648 C 0.24655 0.33895 0.82652 0.0
Co649 Co 0.65517 0.10186 0.84617 0.0
Co650 Co 0.66426 0.16595 0.76996 0.0
O651 O 0.67135 0.14944 0.82593 0.0
C652 C 0.64243 0.15033 0.92049 0.0
O653 O 0.64105 0.1813 0.90126 0.0
C654 C 0.74636 0.17754 0.76795 0.0
O655 O 0.75307 0.14314 0.77375 0.0
O656 O 0.68327 0.11896 0.74701 0.0
O657 O 0.66625 0.07987 0.79482 0.0
H658 H 0.61548 0.16 0.62862 0.0
H659 H 0.71151 0.14502 0.88902 0.0
O660 O 0.64489 0.12071 0.90137 0.0
H661 H 0.76894 0.02856 0.85786 0.0
H662 H 0.6437 1.00228 0.94946 0.0
H663 H 0.61963 0.03645 0.80934 0.0
H664 H 0.70583 0.03971 0.83802 0.0
H665 H 0.66172 0.0623 0.92461 0.0
O666 O 0.714 0.18913 0.76903 0.0
H667 H 0.62344 0.13943 0.69795 0.0
H668 H 0.68825 0.232 0.72407 0.0
H669 H 0.60304 0.97555 0.83266 0.0
H670 H 0.77455 0.13481 0.90986 0.0
H671 H 0.61413 0.95817 0.90339 0.0
H672 H 0.80375 0.07623 0.89427 0.0
O673 O 0.6038 0.1113 0.82627 0.0
H674 H 0.66296 0.27251 0.86375 0.0
H675 H 0.60335 0.21468 0.74765 0.0
H676 H 0.58025 0.27254 0.77327 0.0
H677 H 0.61008 0.30188 0.83179 0.0
H678 H 0.6851 0.21466 0.8371 0.0
H679 H 0.68129 0.25349 0.65492 0.0
H680 H 0.64468 0.2175 0.60645 0.0
O681 O 0.6137 0.14472 0.77032 0.0
C682 C 0.67893 0.08677 0.76062 0.0
C683 C 0.63195 0.17569 0.64927 0.0
C684 C 0.66887 0.2281 0.66401 0.0
N685 N 0.65749 0.18333 0.7151 0.0
C686 C 0.63682 0.16386 0.68867 0.0
C687 C 0.67309 0.21542 0.70318 0.0
C688 C 0.64827 0.20797 0.63687 0.0
C689 C 0.72375 0.11926 0.88266 0.0
N690 N 0.70461 0.09277 0.86307 0.0
C691 C 0.75958 0.11371 0.89431 0.0
C692 C 0.77596 0.08086 0.88549 0.0
C693 C 0.75645 0.05411 0.8651 0.0
C694 C 0.72065 0.06059 0.85398 0.0
C695 C 0.63793 0.00976 0.91875 0.0
C696 C 0.6246 0.02952 0.84022 0.0
C697 C 0.6475 0.04414 0.90454 0.0
N698 N 0.64017 0.05408 0.86582 0.0
C699 C 0.61507 0.99477 0.85325 0.0
C700 C 0.62149 0.98499 0.89289 0.0
C701 C 0.59279 0.12602 0.79328 0.0
C702 C 0.64969 0.26001 0.83824 0.0
C703 C 0.61654 0.22723 0.77309 0.0
C704 C 0.60332 0.26004 0.78747 0.0
C705 C 0.62005 0.27648 0.8203 0.0
N706 N 0.64554 0.21114 0.7909 0.0
C707 C 0.66215 0.22722 0.823 0.0
Co708 Co 0.92331 0.39429 0.65883 0.0
Co709 Co 0.87914 0.36804 0.74371 0.0
O710 O 0.88187 0.36828 0.68406 0.0
C711 C 0.86969 0.3897 0.58806 0.0
O712 O 0.84284 0.37438 0.60777 0.0
C713 C 0.84251 0.29596 0.71933 0.0
O714 O 0.84694 0.30237 0.68095 0.0
O715 O 0.9279 0.34432 0.74544 0.0
O716 O 0.95354 0.38605 0.70687 0.0
H717 H 0.93263 0.38807 0.88065 0.0
H718 H 0.88905 0.32754 0.62363 0.0
O719 O 0.89668 0.40319 0.60701 0.0
H720 H 0.01988 0.30395 0.62403 0.0
H721 H 0.00846 0.43043 0.54678 0.0
H722 H 0.97966 0.44522 0.68983 0.0
H723 H 0.99666 0.36138 0.65009 0.0
H724 H 0.9557 0.39926 0.57613 0.0
O725 O 0.85473 0.31832 0.74546 0.0
H726 H 0.9317 0.38873 0.80692 0.0
H727 H 0.82476 0.34612 0.80661 0.0
H728 H 0.03468 0.47396 0.66262 0.0
H729 H 0.91108 0.26995 0.59708 0.0
H730 H 0.04894 0.46761 0.59022 0.0
H731 H 0.97705 0.25769 0.59705 0.0
O732 O 0.90479 0.44065 0.68375 0.0
H733 H 0.7561 0.3929 0.68489 0.0
H734 H 0.84327 0.4265 0.79076 0.0
H735 H 0.78461 0.45716 0.78755 0.0
H736 H 0.74046 0.44049 0.73431 0.0
H737 H 0.81471 0.3624 0.68963 0.0
H738 H 0.82449 0.34425 0.8803 0.0
H739 H 0.87871 0.36559 0.91799 0.0
O740 O 0.90178 0.41831 0.74618 0.0
C741 C 0.95597 0.35846 0.72929 0.0
C742 C 0.90881 0.37872 0.86463 0.0
C743 C 0.8482 0.35405 0.86443 0.0
N744 N 0.87822 0.3675 0.80216 0.0
C745 C 0.90813 0.37915 0.82277 0.0
C746 C 0.84856 0.35489 0.82256 0.0
C747 C 0.87859 0.36607 0.88554 0.0
C748 C 0.91772 0.32309 0.62296 0.0
N749 N 0.94137 0.34883 0.63698 0.0
C750 C 0.9301 0.2901 0.60818 0.0
C751 C 0.96708 0.2832 0.60824 0.0
C752 C 0.99111 0.30917 0.62326 0.0
C753 C 0.97771 0.34184 0.63776 0.0
C754 C 1.0023 0.43386 0.57826 0.0
C755 C 0.98578 0.4418 0.6586 0.0
C756 C 0.97195 0.41676 0.59502 0.0
N757 N 0.96397 0.42075 0.63487 0.0
C758 C 0.01698 0.45831 0.6432 0.0
C759 C 0.02505 0.4546 0.60265 0.0
C760 C 0.90053 0.44504 0.72177 0.0
C761 C 0.77492 0.40011 0.70854 0.0
C762 C 0.82396 0.41829 0.76807 0.0
C763 C 0.79083 0.43605 0.76622 0.0
C764 C 0.76615 0.42679 0.73626 0.0
N765 N 0.83211 0.39143 0.74139 0.0
C766 C 0.80826 0.38282 0.71144 0.0
Co767 Co 0.62396 0.93011 0.67322 0.0
Co768 Co 0.65326 0.87244 0.75677 0.0
O769 O 0.65546 0.89002 0.69817 0.0
C770 C 0.60612 0.88057 0.60504 0.0
O771 O 0.57281 0.87735 0.61832 0.0
C772 C 0.73195 0.85266 0.73673 0.0
O773 O 0.73782 0.88099 0.71382 0.0
O774 O 0.67837 0.91908 0.77375 0.0
O775 O 0.66052 0.9149 0.71327 0.0
H776 H 0.62639 0.89064 0.90277 0.0
H777 H 0.69662 0.90949 0.64168 0.0
O778 O 0.63015 0.89567 0.62694 0.0
H779 H 0.69139 0.04198 0.62544 0.0
H780 H 0.5781 0.99689 0.55132 0.0
H781 H 0.55545 0.96533 0.69273 0.0
H782 H 0.63914 0.008 0.65234 0.0
H783 H 0.61921 0.95619 0.58749 0.0
O784 O 0.70111 0.84694 0.75278 0.0
H785 H 0.62952 0.90789 0.83134 0.0
H786 H 0.67329 0.8053 0.80225 0.0
H787 H 0.51433 0.00686 0.65808 0.0
H788 H 0.74929 0.94243 0.61433 0.0
H789 H 0.52538 0.02295 0.58678 0.0
H790 H 0.7471 0.00921 0.60627 0.0
O791 O 0.5819 0.9024 0.69998 0.0
H792 H 0.62983 0.76855 0.66283 0.0
H793 H 0.5923 0.82628 0.7891 0.0
H794 H 0.56166 0.77019 0.76699 0.0
H795 H 0.58039 0.74083 0.70343 0.0
H796 H 0.65984 0.82458 0.68633 0.0
H797 H 0.67126 0.7873 0.87335 0.0
H798 H 0.64742 0.83 0.92414 0.0
O799 O 0.60398 0.89483 0.76245 0.0
C800 C 0.67416 0.93613 0.7416 0.0
C801 C 0.63674 0.87179 0.88088 0.0
C802 C 0.662 0.8138 0.8644 0.0
N803 N 0.6513 0.85759 0.81259 0.0
C804 C 0.63844 0.88134 0.8404 0.0
C805 C 0.66327 0.82426 0.82417 0.0
C806 C 0.64859 0.83776 0.89287 0.0
C807 C 0.69517 0.93852 0.63821 0.0
N808 N 0.66466 0.95672 0.64923 0.0
C809 C 0.72521 0.95705 0.62268 0.0
C810 C 0.72398 0.9945 0.61816 0.0
C811 C 0.69275 0.01288 0.6289 0.0
C812 C 0.66324 0.99346 0.64431 0.0
C813 C 0.57282 0.98999 0.58232 0.0
C814 C 0.56044 0.97201 0.66171 0.0
C815 C 0.5958 0.9666 0.60287 0.0
N816 N 0.58967 0.95821 0.64225 0.0
C817 C 0.537 0.99555 0.64219 0.0
C818 C 0.54327 1.00459 0.60222 0.0
C819 C 0.57754 0.89437 0.73748 0.0
C820 C 0.62175 0.78075 0.69088 0.0
C821 C 0.60125 0.8133 0.76187 0.0
C822 C 0.58358 0.78163 0.74936 0.0
C823 C 0.594 0.76525 0.71364 0.0
N824 N 0.62898 0.82798 0.73979 0.0
C825 C 0.63889 0.81235 0.70446 0.0
Co826 Co 0.11146 0.60806 0.66645 0.0
Co827 Co 0.14771 0.63146 0.75619 0.0
O828 O 0.15026 0.632 0.69725 0.0
C829 C 0.17117 0.61819 0.60556 0.0
O830 O 0.19585 0.63083 0.63033 0.0
C831 C 0.16618 0.7117 0.74579 0.0
O832 O 0.13649 0.71789 0.72545 0.0
O833 O 0.09887 0.65524 0.75343 0.0
O834 O 0.07643 0.61537 0.71014 0.0
H835 H 0.08601 0.61152 0.88881 0.0
H836 H 0.14962 0.67782 0.64397 0.0
O837 O 0.14417 0.60013 0.61914 0.0
H838 H 0.0203 0.70037 0.62111 0.0
H839 H 0.03769 0.57868 0.54282 0.0
H840 H 0.0509 0.55773 0.68769 0.0
H841 H 0.04008 0.64183 0.64749 0.0
H842 H 0.08826 0.60659 0.58019 0.0
O843 O 0.17351 0.67988 0.75806 0.0
H844 H 0.09149 0.6099 0.81525 0.0
H845 H 0.19717 0.6558 0.82229 0.0
H846 H 0.99827 0.53202 0.6523 0.0
H847 H 0.13105 0.73635 0.61701 0.0
H848 H 0.99198 0.54134 0.57894 0.0
H849 H 0.06589 0.74816 0.60514 0.0
O850 O 0.12643 0.56093 0.69211 0.0
H851 H 0.27658 0.61022 0.71412 0.0
H852 H 0.17884 0.57193 0.80587 0.0
H853 H 0.2383 0.54272 0.81032 0.0
H854 H 0.28775 0.56182 0.76424 0.0
H855 H 0.21669 0.63875 0.711 0.0
H856 H 0.19275 0.65829 0.89594 0.0
H857 H 0.13693 0.63586 0.92974 0.0
O858 O 0.1246 0.58121 0.75573 0.0
C859 C 0.07217 0.64147 0.73421 0.0
C860 C 0.11053 0.62122 0.87446 0.0
C861 C 0.17039 0.64756 0.87845 0.0
N862 N 0.14462 0.63243 0.81437 0.0
C863 C 0.1138 0.62024 0.83277 0.0
C864 C 0.17266 0.64621 0.83668 0.0
C865 C 0.13908 0.63494 0.8974 0.0
C866 C 0.12146 0.68166 0.63735 0.0
N867 N 0.0965 0.65477 0.64439 0.0
C868 C 0.11097 0.71539 0.62271 0.0
C869 C 0.07442 0.72207 0.61623 0.0
C870 C 0.04888 0.69524 0.62502 0.0
C871 C 0.06041 0.66182 0.63953 0.0
C872 C 0.0407 0.57359 0.57458 0.0
C873 C 0.04845 0.56214 0.65601 0.0
C874 C 0.06974 0.58878 0.59584 0.0
N875 N 0.07333 0.58314 0.63622 0.0
C876 C 0.01857 0.54737 0.63597 0.0
C877 C 0.01492 0.55282 0.59489 0.0
C878 C 0.12727 0.5553 0.73024 0.0
C879 C 0.25538 0.60188 0.73465 0.0
C880 C 0.20031 0.58084 0.78607 0.0
C881 C 0.23393 0.56406 0.78866 0.0
C882 C 0.26163 0.57473 0.76274 0.0
N883 N 0.19454 0.60793 0.75888 0.0
C884 C 0.22146 0.61816 0.73311 0.0
Co885 Co 0.39711 0.09699 0.64972 0.0
Co886 Co 0.37782 0.13432 0.74171 0.0
O887 O 0.37513 0.13585 0.68237 0.0
C888 C 0.39195 0.15998 0.58988 0.0
O889 O 0.38133 0.1845 0.61564 0.0
C890 C 0.3038 0.16765 0.72369 0.0
O891 O 0.30956 0.16604 0.68499 0.0
O892 O 0.35628 0.08418 0.74153 0.0
O893 O 0.39081 0.06177 0.69325 0.0
H894 H 0.4083 0.07291 0.87186 0.0
H895 H 0.33148 0.13696 0.62126 0.0
O896 O 0.40428 0.12988 0.60221 0.0
H897 H 0.29767 0.00796 0.61407 0.0
H898 H 0.42 0.02961 0.52057 0.0
H899 H 0.43917 0.02869 0.66633 0.0
H900 H 0.35816 0.0265 0.63745 0.0
H901 H 0.39592 0.07812 0.56219 0.0
O902 O 0.32717 0.15511 0.74831 0.0
H903 H 0.40498 0.07934 0.7986 0.0
H904 H 0.35625 0.18194 0.81091 0.0
H905 H 0.46105 0.97824 0.62607 0.0
H906 H 0.27099 0.11971 0.59722 0.0
H907 H 0.4528 0.97883 0.55234 0.0
H908 H 0.25351 0.05465 0.59348 0.0
O909 O 0.44629 0.11045 0.6734 0.0
H910 H 0.39259 0.26355 0.69465 0.0
H911 H 0.4365 0.17108 0.78883 0.0
H912 H 0.46217 0.23277 0.7916 0.0
H913 H 0.44034 0.27958 0.7442 0.0
H914 H 0.36673 0.20205 0.69387 0.0
H915 H 0.35833 0.17663 0.8843 0.0
H916 H 0.38479 0.12183 0.91542 0.0
O917 O 0.42901 0.11519 0.73825 0.0
C918 C 0.36878 0.05761 0.72183 0.0
C919 C 0.3968 0.09699 0.85872 0.0
C920 C 0.36866 0.1551 0.86569 0.0
N921 N 0.38053 0.13107 0.80007 0.0
C922 C 0.39498 0.10083 0.81711 0.0
C923 C 0.36727 0.15789 0.82395 0.0
C924 C 0.38355 0.12439 0.88312 0.0
C925 C 0.32475 0.10874 0.61892 0.0
N926 N 0.34921 0.08304 0.62963 0.0
C927 C 0.29012 0.09904 0.60559 0.0
C928 C 0.2803 0.06257 0.6036 0.0
C929 C 0.30507 0.03639 0.61508 0.0
C930 C 0.33946 0.04716 0.62817 0.0
C931 C 0.42509 0.02971 0.55253 0.0
C932 C 0.43603 0.03015 0.63448 0.0
C933 C 0.41231 0.05786 0.57642 0.0
N934 N 0.4185 0.05851 0.61698 0.0
C935 C 0.44824 1.00102 0.61167 0.0
C936 C 0.44329 1.00116 0.57035 0.0
C937 C 0.45363 0.11297 0.71123 0.0
C938 C 0.40207 0.24351 0.71578 0.0
C939 C 0.42601 0.19142 0.76877 0.0
C940 C 0.44097 0.22631 0.77027 0.0
C941 C 0.42883 0.2525 0.74358 0.0
N942 N 0.39888 0.18301 0.74227 0.0
C943 C 0.38747 0.20845 0.71546 0.0
C944 C 0.30632 0.30879 0.30562 0.0
C945 C 0.32055 0.28666 0.27488 0.0
C946 C 0.28724 0.32082 0.22395 0.0
C947 C 0.27205 0.34238 0.25476 0.0
N948 N 0.2731 0.36306 0.32309 0.0
N949 N 0.33302 0.27745 0.20485 0.0
C950 C 0.28379 0.33841 0.29506 0.0
C951 C 0.31385 0.2948 0.23401 0.0
N952 N 0.31277 0.30026 0.34484 0.0
N953 N 0.2744 0.32327 0.18559 0.0
H954 H 0.35274 0.25831 0.21143 0.0
H955 H 0.33194 0.28441 0.17463 0.0
H956 H 0.25542 0.34232 0.17666 0.0
H957 H 0.28081 0.30494 0.16305 0.0
H958 H 0.29984 0.31254 0.36888 0.0
H959 H 0.33 0.27941 0.35335 0.0
H960 H 0.28275 0.36366 0.35241 0.0
H961 H 0.2568 0.38503 0.31585 0.0
C962 C 0.72163 0.3114 0.21414 0.0
C963 C 0.74169 0.31265 0.2508 0.0
C964 C 0.71954 0.25117 0.26537 0.0
C965 C 0.69516 0.25235 0.23239 0.0
N966 N 0.66712 0.28925 0.18155 0.0
N967 N 0.74987 0.28634 0.3166 0.0
C968 C 0.69417 0.28436 0.20889 0.0
C969 C 0.73735 0.28347 0.27822 0.0
N970 N 0.73043 0.33354 0.18272 0.0
N971 N 0.72861 0.21892 0.28223 0.0
H972 H 0.76078 0.31036 0.32809 0.0
H973 H 0.74516 0.26629 0.33807 0.0
H974 H 0.72049 0.19429 0.26987 0.0
H975 H 0.74831 0.21672 0.30449 0.0
H976 H 0.71814 0.33113 0.15468 0.0
H977 H 0.75306 0.35057 0.1824 0.0
H978 H 0.66385 0.31352 0.16604 0.0
H979 H 0.6458 0.27077 0.17785 0.0
C980 C 0.73963 0.72221 0.24554 0.0
C981 C 0.73602 0.68907 0.26659 0.0
C982 C 0.68402 0.71547 0.30206 0.0
C983 C 0.69363 0.75043 0.28734 0.0
N984 N 0.74133 0.78617 0.25644 0.0
N985 N 0.70685 0.65706 0.32186 0.0
C986 C 0.72422 0.75369 0.26185 0.0
C987 C 0.70852 0.68614 0.29661 0.0
N988 N 0.75804 0.72394 0.21015 0.0
N989 N 0.65157 0.70996 0.3208 0.0
H990 H 0.72499 0.63578 0.32118 0.0
H991 H 0.68945 0.65599 0.34643 0.0
H992 H 0.63248 0.73034 0.32402 0.0
H993 H 0.64217 0.68429 0.32905 0.0
H994 H 0.75978 0.7477 0.19325 0.0
H995 H 0.76746 0.70078 0.19577 0.0
H996 H 0.76532 0.7888 0.24011 0.0
H997 H 0.73443 0.80906 0.27275 0.0
C998 C 0.29787 0.74223 0.30269 0.0
C999 C 0.3117 0.75703 0.2662 0.0
C1000 C 0.26901 0.71838 0.22831 0.0
C1001 C 0.25631 0.70236 0.26469 0.0
N1002 N 0.26598 0.69246 0.33525 0.0
N1003 N 0.31729 0.75146 0.19458 0.0
C1004 C 0.27306 0.71229 0.30147 0.0
C1005 C 0.29938 0.74261 0.22914 0.0
N1006 N 0.30661 0.75784 0.3386 0.0
N1007 N 0.25099 0.71242 0.19309 0.0
H1008 H 0.34023 0.76821 0.19426 0.0
H1009 H 0.31191 0.73912 0.1671 0.0
H1010 H 0.22856 0.69533 0.19038 0.0
H1011 H 0.25637 0.72702 0.16699 0.0
H1012 H 0.29364 0.75112 0.36536 0.0
H1013 H 0.32462 0.77951 0.34154 0.0
H1014 H 0.28007 0.69601 0.36206 0.0
H1015 H 0.24875 0.66987 0.33531 0.0
C1016 C 0.75084 0.78839 0.73312 0.0
C1017 C 0.76014 0.82449 0.74287 0.0
C1018 C 0.81491 0.80201 0.77659 0.0
C1019 C 0.8016 0.7658 0.77278 0.0
N1020 N 0.74987 0.7274 0.75764 0.0
N1021 N 0.80019 0.86608 0.77729 0.0
C1022 C 0.76772 0.75969 0.75361 0.0
C1023 C 0.79219 0.83156 0.76533 0.0
N1024 N 0.72606 0.78146 0.70373 0.0
N1025 N 0.84935 0.8082 0.79008 0.0
H1026 H 0.7846 0.88821 0.76896 0.0
H1027 H 0.82088 0.87234 0.79744 0.0
H1028 H 0.86676 0.78733 0.79796 0.0
H1029 H 0.86163 0.83374 0.79002 0.0
H1030 H 0.71987 0.75533 0.6938 0.0
H1031 H 0.71587 0.80215 0.68587 0.0
H1032 H 0.72362 0.72301 0.747 0.0
H1033 H 0.75951 0.70668 0.77563 0.0
C1034 C 0.18652 0.7726 0.77498 0.0
C1035 C 0.19395 0.74082 0.75247 0.0
C1036 C 0.2586 0.75164 0.76155 0.0
C1037 C 0.25205 0.78555 0.77999 0.0
N1038 N 0.20884 0.83122 0.79818 0.0
N1039 N 0.23712 0.70927 0.7119 0.0
C1040 C 0.21564 0.79702 0.78487 0.0
C1041 C 0.23003 0.73336 0.74174 0.0
N1042 N 0.15223 0.77875 0.78838 0.0
N1043 N 0.29119 0.73513 0.76566 0.0
H1044 H 0.21642 0.69808 0.69435 0.0
H1045 H 0.26328 0.70449 0.70154 0.0
H1046 H 0.31193 0.74596 0.7832 0.0
H1047 H 0.29588 0.70895 0.7553 0.0
H1048 H 0.14602 0.79934 0.80848 0.0
H1049 H 0.1304 0.76168 0.7816 0.0
H1050 H 0.18298 0.84217 0.7988 0.0
H1051 H 0.22943 0.84972 0.8053 0.0
C1052 C 0.24449 0.22955 0.78726 0.0
C1053 C 0.21201 0.23023 0.76498 0.0
C1054 C 0.23651 0.18224 0.72189 0.0
C1055 C 0.2715 0.18779 0.73906 0.0
N1056 N 0.30898 0.22641 0.78102 0.0
N1057 N 0.17782 0.20849 0.70798 0.0
C1058 C 0.27558 0.21376 0.77023 0.0
C1059 C 0.20793 0.20661 0.73159 0.0
N1060 N 0.24574 0.24437 0.82467 0.0
N1061 N 0.23028 0.15344 0.69707 0.0
H1062 H 0.1563 0.22559 0.71423 0.0
H1063 H 0.17538 0.19484 0.68076 0.0
H1064 H 0.25007 0.13442 0.69048 0.0
H1065 H 0.2046 0.1464 0.68649 0.0
H1066 H 0.26849 0.24268 0.84312 0.0
H1067 H 0.22253 0.25418 0.83863 0.0
H1068 H 0.31275 0.24743 0.80154 0.0
H1069 H 0.33226 0.21962 0.76543 0.0
C1070 C 0.80079 0.20002 0.72703 0.0
C1071 C 0.77599 0.20454 0.7593 0.0
C1072 C 0.79216 0.2689 0.76181 0.0
C1073 C 0.81993 0.26406 0.73289 0.0
N1074 N 0.85563 0.22204 0.69455 0.0
N1075 N 0.75819 0.24102 0.81557 0.0
C1076 C 0.82582 0.22867 0.71747 0.0
C1077 C 0.7751 0.23825 0.77938 0.0
N1078 N 0.79938 0.16949 0.70399 0.0
N1079 N 0.77965 0.30261 0.7703 0.0
H1080 H 0.74768 0.21838 0.83048 0.0
H1081 H 0.75887 0.26468 0.83264 0.0
H1082 H 0.78844 0.32551 0.75486 0.0
H1083 H 0.75737 0.307 0.78878 0.0
H1084 H 0.81414 0.16673 0.67757 0.0
H1085 H 0.78125 0.1482 0.70919 0.0
H1086 H 0.86295 0.19608 0.68568 0.0
H1087 H 0.87499 0.24191 0.68785 0.0
C1088 C 0.17334 0.32008 0.99706 0.0
C1089 C 0.17638 0.35196 0.97326 0.0
C1090 C 0.1724 0.38886 0.03415 0.0
C1091 C 0.16442 0.35735 0.05744 0.0
N1092 N 0.1524 0.29309 0.05943 0.0
N1093 N 0.17508 0.41704 0.96864 0.0
C1094 C 0.16381 0.32292 0.03845 0.0
C1095 C 0.17465 0.3864 0.9917 0.0
N1096 N 0.17958 0.28701 0.98024 0.0
N1097 N 0.18022 0.42095 0.05253 0.0
H1098 H 0.17981 0.41677 0.9378 0.0
H1099 H 0.1687 0.44254 0.97979 0.0
H1100 H 0.17976 0.42394 0.08331 0.0
H1101 H 0.1905 0.44362 0.03761 0.0
H1102 H 0.18132 0.26318 0.99679 0.0
H1103 H 0.18655 0.28374 0.95026 0.0
H1104 H 0.14753 0.26794 0.04626 0.0
H1105 H 0.14444 0.29418 0.08939 0.0
C1106 C 0.66936 0.17077 0.98778 0.0
C1107 C 0.64545 0.14797 0.96542 0.0
C1108 C 0.64105 0.10796 0.02404 0.0
C1109 C 0.65889 0.13397 0.04878 0.0
N1110 N 0.68358 0.1955 0.05283 0.0
N1111 N 0.60083 0.0996 0.96771 0.0
C1112 C 0.67131 0.16694 0.03042 0.0
C1113 C 0.62888 0.11808 0.9853 0.0
N1114 N 0.69183 0.19485 0.96874 0.0
N1115 N 0.63665 0.07304 0.03681 0.0
H1116 H 0.58956 0.10745 0.9404 0.0
H1117 H 0.58626 0.07928 0.98254 0.0
H1118 H 0.6479 0.06362 0.06349 0.0
H1119 H 0.62599 0.05266 0.01848 0.0
H1120 H 0.71221 0.20919 0.98374 0.0
H1121 H 0.69311 0.19763 0.93773 0.0
H1122 H 0.6887 0.22096 0.04039 0.0
H1123 H 0.68557 0.19548 0.08383 0.0
C1124 C 0.82591 0.64107 0.99421 0.0
C1125 C 0.85575 0.6561 0.97305 0.0
C1126 C 0.88525 0.67128 0.03757 0.0
C1127 C 0.85435 0.65846 0.05872 0.0
N1128 N 0.79192 0.63699 0.05592 0.0
N1129 N 0.90999 0.69318 0.97506 0.0
C1130 C 0.8236 0.64538 0.0367 0.0
C1131 C 0.88447 0.67311 0.99488 0.0
N1132 N 0.80055 0.62089 0.97398 0.0
N1133 N 0.91546 0.68222 0.0582 0.0
H1134 H 0.91015 0.69575 0.94418 0.0
H1135 H 0.92895 0.70988 0.98924 0.0
H1136 H 0.91613 0.68521 0.08927 0.0
H1137 H 0.9405 0.68664 0.04458 0.0
H1138 H 0.78065 0.60533 0.98817 0.0
H1139 H 0.80138 0.61684 0.94305 0.0
H1140 H 0.76761 0.63227 0.04086 0.0
H1141 H 0.78878 0.63685 0.08685 0.0
C1142 C 0.33091 0.8405 0.03643 0.0
C1143 C 0.32578 0.87568 0.05295 0.0
C1144 C 0.33075 0.90098 0.98497 0.0
C1145 C 0.34276 0.86702 0.97 0.0
N1146 N 0.35914 0.80531 0.98395 0.0
N1147 N 0.32212 0.94011 0.04233 0.0
C1148 C 0.34406 0.83698 0.99644 0.0
C1149 C 0.32631 0.90611 0.02699 0.0
N1150 N 0.32248 0.81024 0.05818 0.0
N1151 N 0.32099 0.92771 0.95907 0.0
H1152 H 0.31491 0.94486 0.07209 0.0
H1153 H 0.32734 0.96357 0.02583 0.0
H1154 H 0.32215 0.92458 0.92826 0.0
H1155 H 0.30834 0.95145 0.96799 0.0
H1156 H 0.32287 0.78422 0.04613 0.0
H1157 H 0.31082 0.81105 0.08648 0.0
H1158 H 0.36449 0.78386 1.0033 0.0
H1159 H 0.36973 0.80184 0.95524 0.0
C1160 C 0.17782 0.66346 0.54667 0.0
C1161 C 0.17054 0.62765 0.56157 0.0
C1162 C 0.13388 0.61585 0.50211 0.0
C1163 C 0.14589 0.6482 0.48349 0.0
N1164 N 0.17972 0.70411 0.48921 0.0
N1165 N 0.15218 0.5666 0.54442 0.0
C1166 C 0.16829 0.67229 0.5061 0.0
C1167 C 0.15255 0.60274 0.53591 0.0
N1168 N 0.19207 0.68971 0.57104 0.0
N1169 N 0.10278 0.59909 0.49006 0.0
H1170 H 0.16695 0.55582 0.56822 0.0
H1171 H 0.14064 0.54749 0.52506 0.0
H1172 H 0.08392 0.61285 0.47283 0.0
H1173 H 0.09305 0.57527 0.50319 0.0
H1174 H 0.19254 0.71706 0.56339 0.0
H1175 H 0.202 0.68512 0.59965 0.0
H1176 H 0.20016 0.72035 0.50146 0.0
H1177 H 0.16916 0.71377 0.46228 0.0
C1178 C 0.40895 0.14415 0.51944 0.0
C1179 C 0.38513 0.16289 0.54538 0.0
C1180 C 0.34657 0.17475 0.48636 0.0
C1181 C 0.36657 0.14948 0.46317 0.0
N1182 N 0.4118 0.10261 0.46391 0.0
N1183 N 0.32581 0.19046 0.55257 0.0
C1184 C 0.3963 0.13194 0.48161 0.0
C1185 C 0.35237 0.17677 0.52872 0.0
N1186 N 0.4439 0.13808 0.53073 0.0
N1187 N 0.32344 0.19831 0.46833 0.0
H1188 H 0.32757 0.19274 0.58351 0.0
H1189 H 0.30022 0.19674 0.54151 0.0
H1190 H 0.31984 0.1999 0.43744 0.0
H1191 H 0.31108 0.2193 0.4839 0.0
H1192 H 0.46287 0.12663 0.51151 0.0
H1193 H 0.45479 0.14845 0.55731 0.0
H1194 H 0.43206 0.08766 0.47777 0.0
H1195 H 0.40151 0.09075 0.43784 0.0
C1196 C 0.87069 0.35788 0.4769 0.0
C1197 C 0.89599 0.38341 0.46096 0.0
C1198 C 0.89245 0.41725 0.52405 0.0
C1199 C 0.87252 0.38886 0.54279 0.0
N1200 N 0.84887 0.32732 0.53649 0.0
N1201 N 0.93946 0.43124 0.47665 0.0
C1202 C 0.86293 0.35785 0.51908 0.0
C1203 C 0.90961 0.4111 0.4867 0.0
N1204 N 0.85471 0.33295 0.45214 0.0
N1205 N 0.89458 0.45065 0.54154 0.0
H1206 H 0.95435 0.42738 0.45062 0.0
H1207 H 0.95164 0.44945 0.49656 0.0
H1208 H 0.88035 0.45701 0.56758 0.0
H1209 H 0.90671 0.4729 0.52743 0.0
H1210 H 0.83308 0.31649 0.46113 0.0
H1211 H 0.86163 0.33029 0.42197 0.0
H1212 H 0.84551 0.303 0.52101 0.0
H1213 H 0.84365 0.3247 0.56693 0.0
C1214 C 0.59856 0.89883 0.53263 0.0
C1215 C 0.61494 0.87586 0.56145 0.0
C1216 C 0.65561 0.85368 0.50821 0.0
C1217 C 0.64252 0.88073 0.48156 0.0
N1218 N 0.6095 0.93634 0.47456 0.0
N1219 N 0.66244 0.83389 0.57731 0.0
C1220 C 0.61656 0.90558 0.49586 0.0
C1221 C 0.64477 0.85428 0.54948 0.0
N1222 N 0.56566 0.9141 0.53952 0.0
N1223 N 0.67648 0.82622 0.4941 0.0
H1224 H 0.65359 0.83141 0.6069 0.0
H1225 H 0.68683 0.82103 0.57142 0.0
H1226 H 0.68447 0.82411 0.4643 0.0
H1227 H 0.68336 0.80381 0.51138 0.0
H1228 H 0.55177 0.92847 0.51755 0.0
H1229 H 0.55046 0.90983 0.56531 0.0
H1230 H 0.59292 0.95681 0.48537 0.0
H1231 H 0.62351 0.9432 0.44841 0.0
C1232 C 0.11813 0.53317 0.25405 0.0
C1233 C 0.15083 0.55206 0.26165 0.0
C1234 C 0.18259 0.49391 0.26201 0.0
C1235 C 0.1485 0.47524 0.26148 0.0
N1236 N 0.08365 0.47917 0.26907 0.0
N1237 N 0.21484 0.55055 0.27452 0.0
C1238 C 0.11621 0.49558 0.26109 0.0
C1239 C 0.18339 0.53247 0.26581 0.0
N1240 N 0.08849 0.55156 0.24133 0.0
N1241 N 0.21403 0.4754 0.25721 0.0
H1242 H 0.21666 0.57874 0.27432 0.0
H1243 H 0.23848 0.53761 0.28329 0.0
H1244 H 0.21501 0.44738 0.25548 0.0
H1245 H 0.23898 0.48811 0.25234 0.0
H1246 H 0.06479 0.53852 0.23181 0.0
H1247 H 0.08917 0.57951 0.23685 0.0
H1248 H 0.05963 0.49351 0.27189 0.0
H1249 H 0.08153 0.45197 0.27742 0.0
C1250 C 0.4903 0.14639 0.21399 0.0
C1251 C 0.51865 0.17107 0.22463 0.0
C1252 C 0.47103 0.21526 0.2387 0.0
C1253 C 0.44449 0.18932 0.22681 0.0
N1254 N 0.43227 0.13978 0.18266 0.0
N1255 N 0.53393 0.23481 0.23388 0.0
C1256 C 0.45598 0.15938 0.20522 0.0
C1257 C 0.50866 0.20761 0.23289 0.0
N1258 N 0.49334 0.11014 0.21804 0.0
N1259 N 0.4601 0.24642 0.25651 0.0
H1260 H 0.56108 0.23098 0.22699 0.0
H1261 H 0.5271 0.26194 0.2372 0.0
H1262 H 0.43267 0.25251 0.25897 0.0
H1263 H 0.47795 0.265 0.26962 0.0
H1264 H 0.51448 0.09836 0.23373 0.0
H1265 H 0.51448 0.09836 0.23373 0.0
H1266 H 0.44001 0.11609 0.16801 0.0
H1267 H 0.40665 0.14978 0.17621 0.0
C1268 C 0.86934 0.51751 0.27134 0.0
C1269 C 0.83736 0.53676 0.26387 0.0
C1270 C 0.80302 0.4794 0.26915 0.0
C1271 C 0.83598 0.45988 0.2688 0.0
N1272 N 0.9006 0.46238 0.26092 0.0
N1273 N 0.77299 0.53532 0.25175 0.0
C1274 C 0.86911 0.47958 0.26764 0.0
C1275 C 0.80378 0.51762 0.26206 0.0
N1276 N 0.90019 0.53558 0.28247 0.0
N1277 N 0.77119 0.46178 0.27731 0.0
H1278 H 0.77263 0.56312 0.24704 0.0
H1279 H 0.7486 0.52205 0.24542 0.0
H1280 H 0.76996 0.43418 0.28375 0.0
H1281 H 0.74685 0.4752 0.28165 0.0
H1282 H 0.92356 0.52241 0.29164 0.0
H1283 H 0.90108 0.56356 0.28637 0.0
H1284 H 0.92494 0.47569 0.25427 0.0
H1285 H 0.90058 0.43485 0.25772 0.0
C1286 C 0.51622 0.82568 0.25259 0.0
C1287 C 0.53652 0.85842 0.25675 0.0
C1288 C 0.48052 0.89281 0.25663 0.0
C1289 C 0.46019 0.86099 0.24881 0.0
N1290 N 0.45924 0.79742 0.23236 0.0
N1291 N 0.5368 0.92414 0.25314 0.0
C1292 C 0.47816 0.82736 0.24476 0.0
C1293 C 0.51837 0.89202 0.25482 0.0
N1294 N 0.53276 0.79319 0.25801 0.0
N1295 N 0.4636 0.9244 0.26579 0.0
H1296 H 0.56493 0.92624 0.25103 0.0
H1297 H 0.56493 0.92624 0.25103 0.0
H1298 H 0.43563 0.92581 0.26964 0.0
H1299 H 0.47788 0.94831 0.27208 0.0
H1300 H 0.51858 0.76871 0.26009 0.0
H1301 H 0.5606 0.79105 0.26252 0.0
H1302 H 0.4716 0.77319 0.22465 0.0
H1303 H 0.43133 0.79763 0.22748 0.0
C1304 C 0.90539 0.52056 0.79938 0.0
C1305 C 0.87392 0.54078 0.79135 0.0
C1306 C 0.85971 0.49868 0.73535 0.0
C1307 C 0.89378 0.48174 0.74026 0.0
N1308 N 0.95246 0.48372 0.77132 0.0
N1309 N 0.81394 0.53694 0.7652 0.0
C1310 C 0.91743 0.49463 0.77088 0.0
C1311 C 0.84912 0.52665 0.76258 0.0
N1312 N 0.9218 0.52304 0.83587 0.0
N1313 N 0.83744 0.48818 0.70467 0.0
H1314 H 0.80529 0.5524 0.78946 0.0
H1315 H 0.79303 0.52628 0.74774 0.0
H1316 H 0.84375 0.46722 0.68507 0.0
H1317 H 0.81396 0.50184 0.6969 0.0
H1318 H 0.94318 0.50651 0.84435 0.0
H1319 H 0.91068 0.53763 0.85946 0.0
H1320 H 0.97191 0.49439 0.79084 0.0
H1321 H 0.96274 0.46803 0.74825 0.0
C1322 C 0.52033 0.85493 0.7403 0.0
C1323 C 0.5406 0.88525 0.75463 0.0
C1324 C 0.5002 0.88756 0.8139 0.0
C1325 C 0.47713 0.86074 0.79689 0.0
N1326 N 0.47685 0.80748 0.75636 0.0
N1327 N 0.54433 0.93488 0.80155 0.0
C1328 C 0.49025 0.84143 0.76308 0.0
C1329 C 0.52905 0.90261 0.79058 0.0
N1330 N 0.52984 0.83856 0.7052 0.0
N1331 N 0.49703 0.89642 0.85345 0.0
H1332 H 0.56368 0.94797 0.78407 0.0
H1333 H 0.53462 0.95063 0.82504 0.0
H1334 H 0.47997 0.88241 0.87301 0.0
H1335 H 0.51517 0.91369 0.86816 0.0
H1336 H 0.51346 0.81957 0.69063 0.0
H1337 H 0.55319 0.84522 0.68927 0.0
H1338 H 0.4863 0.78998 0.73438 0.0
H1339 H 0.46038 0.79503 0.7777 0.0
C1340 C 0.11434 0.47397 0.79924 0.0
C1341 C 0.14785 0.45592 0.79571 0.0
C1342 C 0.16786 0.50245 0.74679 0.0
C1343 C 0.13283 0.51792 0.74717 0.0
N1344 N 0.07045 0.51172 0.7664 0.0
N1345 N 0.21067 0.46379 0.7811 0.0
C1346 C 0.10552 0.50184 0.77152 0.0
C1347 C 0.1758 0.47302 0.77318 0.0
N1348 N 0.09237 0.46727 0.83123 0.0
N1349 N 0.19348 0.51553 0.72089 0.0
H1350 H 0.21667 0.4463 0.80472 0.0
H1351 H 0.2332 0.47673 0.76868 0.0
H1352 H 0.18894 0.53743 0.70188 0.0
H1353 H 0.21827 0.50309 0.71616 0.0
H1354 H 0.06864 0.48147 0.83661 0.0
H1355 H 0.10095 0.45225 0.85577 0.0
H1356 H 0.04873 0.49886 0.78065 0.0
H1357 H 0.06314 0.52928 0.74357 0.0
C1358 C 0.50991 0.08426 0.74112 0.0
C1359 C 0.49214 0.11555 0.72662 0.0
C1360 C 0.53566 0.1532 0.76479 0.0
C1361 C 0.55396 0.12194 0.77859 0.0
N1362 N 0.54883 0.05811 0.79157 0.0
N1363 N 0.49421 0.17985 0.71682 0.0
C1364 C 0.53852 0.08745 0.76986 0.0
C1365 C 0.50683 0.15006 0.73632 0.0
N1366 N 0.50072 0.05142 0.72559 0.0
N1367 N 0.54365 0.18568 0.78223 0.0
H1368 H 0.47366 0.17815 0.69537 0.0
H1369 H 0.50628 0.2054 0.71921 0.0
H1370 H 0.56183 0.18763 0.80614 0.0
H1371 H 0.52936 0.20929 0.77658 0.0
H1372 H 0.51474 0.02768 0.7315 0.0
H1373 H 0.48168 0.04925 0.70287 0.0
H1374 H 0.53718 0.03243 0.7886 0.0
H1375 H 0.56441 0.06106 0.81726 0.0
C1376 C 0.71451 0.0328 0.74079 0.0
C1377 C 0.68282 0.05366 0.73607 0.0
C1378 C 0.64624 0.99827 0.7343 0.0
C1379 C 0.67751 0.9767 0.73865 0.0
N1380 N 0.74271 0.97366 0.73904 0.0
N1381 N 0.62074 0.05572 0.71577 0.0
C1382 C 0.71215 0.99407 0.73946 0.0
C1383 C 0.6497 0.03594 0.72783 0.0
N1384 N 0.7464 0.05022 0.74903 0.0
N1385 N 0.61282 0.98331 0.73855 0.0
H1386 H 0.62274 0.08356 0.71221 0.0
H1387 H 0.59646 0.04425 0.70571 0.0
H1388 H 0.60937 0.95586 0.74199 0.0
H1389 H 0.5894 0.99842 0.74226 0.0
H1390 H 0.76981 0.03713 0.75819 0.0
H1391 H 0.74861 0.07836 0.74773 0.0
H1392 H 0.76865 0.98453 0.73555 0.0
H1393 H 0.74191 0.94548 0.73972 0.0
C1394 C 0.97963 0.68712 0.74204 0.0
C1395 C 0.95744 0.65549 0.74425 0.0
C1396 C 0.01106 0.61844 0.75006 0.0
C1397 C 0.03387 0.64905 0.7446 0.0
N1398 N 0.03922 0.71238 0.72741 0.0
N1399 N 0.95408 0.58997 0.73986 0.0
C1400 C 0.01803 0.68353 0.7382 0.0
C1401 C 0.97392 0.62111 0.74305 0.0
N1402 N 0.96427 0.72037 0.74571 0.0
N1403 N 0.02479 0.58634 0.76283 0.0
H1404 H 0.92613 0.58936 0.73557 0.0
H1405 H 0.92613 0.58936 0.73557 0.0
H1406 H 0.05155 0.58405 0.77221 0.0
H1407 H 0.00868 0.56324 0.76719 0.0
H1408 H 0.97935 0.74418 0.74927 0.0
H1409 H 0.93627 0.72364 0.747 0.0
H1410 H 0.02869 0.73715 0.7184 0.0
H1411 H 0.06723 0.71062 0.72483 0.0
C1412 C 0.39592 0.99931 0.73929 0.0
C1413 C 0.36395 0.01972 0.73514 0.0
C1414 C 0.32814 0.96339 0.73957 0.0
C1415 C 0.36083 0.9435 0.74063 0.0
N1416 N 0.42477 0.94245 0.7268 0.0
N1417 N 0.29946 0.02061 0.72367 0.0
C1418 C 0.39422 0.96163 0.73471 0.0
C1419 C 0.32983 1.00164 0.73293 0.0
N1420 N 0.42796 0.01583 0.749 0.0
N1421 N 0.2959 0.94622 0.7468 0.0
H1422 H 0.2998 0.04861 0.71955 0.0
H1423 H 0.27455 0.00824 0.71763 0.0
H1424 H 0.29381 0.91822 0.75037 0.0
H1425 H 0.27172 0.95993 0.75109 0.0
H1426 H 0.45104 1.00139 0.75672 0.0
H1427 H 0.43041 0.04365 0.75324 0.0
H1428 H 0.44941 0.95474 0.71927 0.0
H1429 H 0.42427 0.91437 0.72416 0.0
C1430 C 0.04606 0.30868 0.74135 0.0
C1431 C 0.0694 0.33926 0.74591 0.0
C1432 C 0.01709 0.37837 0.74998 0.0
C1433 C 0.99336 0.34898 0.74184 0.0
N1434 N 0.98615 0.28627 0.72267 0.0
N1435 N 0.07546 0.40465 0.74394 0.0
C1436 C 0.00802 0.31397 0.73545 0.0
C1437 C 0.05436 0.37429 0.74523 0.0
N1438 N 0.06006 0.27479 0.7442 0.0
N1439 N 1.00405 0.41061 0.76316 0.0
H1440 H 0.10345 0.40414 0.74043 0.0
H1441 H 0.10345 0.40414 0.74043 0.0
H1442 H 0.97708 0.41345 0.7714 0.0
H1443 H 0.02076 0.43294 0.7693 0.0
H1444 H 0.04411 0.25139 0.74581 0.0
H1445 H 0.08788 0.27062 0.7465 0.0
H1446 H 0.99604 0.26126 0.71364 0.0
H1447 H 0.95834 0.28917 0.71858 0.0
C1448 C 0.39659 0.04518 0.25023 0.0
C1449 C 0.36737 0.05719 0.2742 0.0
C1450 C 0.33351 1.00249 0.25293 0.0
C1451 C 0.36528 0.98721 0.23625 0.0
N1452 N 0.42925 0.99422 0.22435 0.0
N1453 N 0.30839 0.04411 0.30165 0.0
C1454 C 0.39744 0.00867 0.23648 0.0
C1455 C 0.33594 0.03478 0.27665 0.0
N1456 N 0.42252 0.06915 0.23796 0.0
N1457 N 0.30061 0.98801 0.24324 0.0
H1458 H 0.30986 0.06697 0.31999 0.0
H1459 H 0.28598 0.02733 0.30681 0.0
H1460 H 0.2981 0.96731 0.22209 0.0
H1461 H 0.27621 0.99959 0.25184 0.0
H1462 H 0.44195 0.06243 0.21669 0.0
H1463 H 0.42148 0.09656 0.24499 0.0
H1464 H 0.45423 0.00734 0.22767 0.0
H1465 H 0.43053 0.96769 0.21478 0.0
C1466 C 0.97587 0.38331 0.22487 0.0
C1467 C 0.9668 0.37312 0.2653 0.0
C1468 C 0.02699 0.3451 0.27051 0.0
C1469 C 0.03755 0.35964 0.23275 0.0
N1470 N 0.01376 0.37262 0.16706 0.0
N1471 N 0.98461 0.34205 0.32586 0.0
C1472 C 0.00977 0.37324 0.20779 0.0
C1473 C 0.9928 0.35368 0.288 0.0
N1474 N 0.95285 0.40366 0.20242 0.0
N1475 N 0.04722 0.31805 0.28618 0.0
H1476 H 0.95862 0.34255 0.33789 0.0
H1477 H 1.00404 0.33283 0.34595 0.0
H1478 H 0.06591 0.30536 0.26791 0.0
H1479 H 0.04115 0.30395 0.3124 0.0
H1480 H 0.96094 0.41709 0.17636 0.0
H1481 H 0.92648 0.40919 0.21034 0.0
H1482 H 0.99318 0.37934 0.14712 0.0
H1483 H 0.03489 0.35941 0.15284 0.0
C1484 C 0.59703 0.99722 0.29936 0.0
C1485 C 0.62847 0.9762 0.29629 0.0
C1486 C 0.65148 0.01852 0.24417 0.0
C1487 C 0.6175 0.03622 0.24346 0.0
N1488 N 0.55517 0.03456 0.264 0.0
N1489 N 0.6912 0.97709 0.27957 0.0
C1490 C 0.58968 0.02351 0.26956 0.0
C1491 C 0.65731 0.98954 0.27206 0.0
N1492 N 0.57568 0.99471 0.33252 0.0
N1493 N 0.67799 0.02902 0.21797 0.0
H1494 H 0.69592 0.95971 0.30367 0.0
H1495 H 0.71461 0.98707 0.26595 0.0
H1496 H 0.67499 0.05059 0.19812 0.0
H1497 H 0.70205 0.01507 0.21408 0.0
H1498 H 0.55354 0.01145 0.3373 0.0
H1499 H 0.58359 0.98024 0.35778 0.0
H1500 H 0.53308 0.02257 0.27852 0.0
H1501 H 0.54878 0.05122 0.24027 0.0
C1502 C 0.01097 0.66891 0.28247 0.0
C1503 C 0.02974 0.63695 0.29276 0.0
C1504 C 0.98147 0.60067 0.25972 0.0
C1505 C 0.96319 0.63293 0.24916 0.0
N1506 N 0.96693 0.6972 0.23904 0.0
N1507 N 0.02958 0.57192 0.29773 0.0
C1508 C 0.97973 0.66692 0.2574 0.0
C1509 C 0.01405 0.60262 0.28315 0.0
N1510 N 0.02153 0.70104 0.2992 0.0
N1511 N 0.96888 0.56838 0.245 0.0
H1512 H 0.05335 0.57231 0.31453 0.0
H1513 H 0.01793 0.54625 0.29543 0.0
H1514 H 0.94608 0.56655 0.22659 0.0
H1515 H 0.98244 0.54398 0.24786 0.0
H1516 H 0.0071 0.72493 0.29588 0.0
H1517 H 0.04227 0.70258 0.32041 0.0
H1518 H 0.97997 0.72234 0.24054 0.0
H1519 H 0.94538 0.6962 0.21878 0.0
loop_
_geom_bond_atom_site_label_1
_geom_bond_atom_site_label_2
_geom_bond_distance
_geom_bond_site_symmetry_2
_ccdc_geom_bond_type
Co0 O2 2.143 . S
Co0 O8 2.074 . S
Co0 O11 2.093 . S
Co0 O24 2.097 . S
Co0 N41 2.151 . S
Co0 N49 2.214 . S
Co1 O2 2.160 . S
Co1 O7 2.058 . S
Co1 O17 2.057 . S
Co1 O32 2.037 . S
Co1 N36 2.145 . S
Co1 N57 2.257 . S
O2 Co0 2.143 . S
O2 Co1 2.160 . S
C3 O4 1.278 . S
C3 O11 1.224 . S
O4 C3 1.278 . S
C5 O6 1.245 . S
C5 O17 1.232 . S
O6 C5 1.245 . S
O7 Co1 2.058 . S
O7 C33 1.269 . S
O8 Co0 2.074 . S
O8 C33 1.257 . S
H9 C34 0.930 . S
H10 C40 0.930 . S
O11 Co0 2.093 . S
O11 C3 1.224 . S
H12 C44 0.929 . S
H13 C46 0.930 . S
H14 C47 0.930 . S
H15 C45 0.929 . S
H16 C48 0.928 . S
O17 Co1 2.057 . S
O17 C5 1.232 . S
H18 C37 0.929 . S
H19 C38 0.929 . S
H20 C50 0.931 . S
H21 C42 0.929 . S
H22 C51 0.930 . S
H23 C43 0.931 . S
O24 Co0 2.097 . S
O24 C52 1.214 . S
H25 C53 0.929 . S
H26 C54 0.929 . S
H27 C55 0.930 . S
H28 C56 0.929 . S
H29 C58 0.930 . S
H30 C35 0.930 . S
H31 C39 0.930 . S
O32 Co1 2.037 . S
O32 C52 1.234 . S
C33 O7 1.269 . S
C33 O8 1.257 . S
C34 H9 0.930 . S
C34 C37 1.388 . S
C34 C39 1.418 . S
C35 H30 0.930 . S
C35 C38 1.404 . S
C35 C39 1.353 . S
N36 Co1 2.145 . S
N36 C37 1.397 . S
N36 C38 1.334 . S
C37 H18 0.929 . S
C37 C34 1.388 . S
C37 N36 1.397 . S
C38 H19 0.929 . S
C38 C35 1.404 . S
C38 N36 1.334 . S
C39 H31 0.930 . S
C39 C34 1.418 . S
C39 C35 1.353 . S
C40 H10 0.930 . S
C40 N41 1.330 . S
C40 C42 1.446 . S
N41 Co0 2.151 . S
N41 C40 1.330 . S
N41 C45 1.418 . S
C42 H21 0.929 . S
C42 C40 1.446 . S
C42 C43 1.332 . S
C43 H23 0.931 . S
C43 C42 1.332 . S
C43 C44 1.267 . S
C44 H12 0.929 . S
C44 C43 1.267 . S
C44 C45 1.251 . S
C45 H15 0.929 . S
C45 N41 1.418 . S
C45 C44 1.251 . S
C46 H13 0.930 . S
C46 C48 1.406 . S
C46 C51 1.261 . S
C47 H14 0.930 . S
C47 N49 1.325 . S
C47 C50 1.357 . S
C48 H16 0.928 . S
C48 C46 1.406 . S
C48 N49 1.261 . S
N49 Co0 2.214 . S
N49 C47 1.325 . S
N49 C48 1.261 . S
C50 H20 0.931 . S
C50 C47 1.357 . S
C50 C51 1.312 . S
C51 H22 0.930 . S
C51 C46 1.261 . S
C51 C50 1.312 . S
C52 O24 1.214 . S
C52 O32 1.234 . S
C53 H25 0.929 . S
C53 C56 1.391 . S
C53 C58 1.391 . S
C54 H26 0.929 . S
C54 C55 1.390 . S
C54 N57 1.391 . S
C55 H27 0.930 . S
C55 C54 1.390 . S
C55 C56 1.392 . S
C56 H28 0.929 . S
C56 C53 1.391 . S
C56 C55 1.392 . S
N57 Co1 2.257 . S
N57 C54 1.391 . S
N57 C58 1.388 . S
C58 H29 0.930 . S
C58 C53 1.391 . S
C58 N57 1.388 . S
Co59 O61 2.143 . S
Co59 O67 2.074 . S
Co59 O70 2.093 . S
Co59 O83 2.097 . S
Co59 N100 2.151 . S
Co59 N108 2.214 . S
Co60 O61 2.160 . S
Co60 O66 2.058 . S
Co60 O76 2.057 . S
Co60 O91 2.037 . S
Co60 N95 2.145 . S
Co60 N116 2.257 . S
O61 Co59 2.143 . S
O61 Co60 2.160 . S
C62 O63 1.278 . S
C62 O70 1.224 . S
O63 C62 1.278 . S
C64 O65 1.245 . S
C64 O76 1.232 . S
O65 C64 1.245 . S
O66 Co60 2.058 . S
O66 C92 1.269 . S
O67 Co59 2.074 . S
O67 C92 1.257 . S
H68 C93 0.930 . S
H69 C99 0.930 . S
O70 Co59 2.093 . S
O70 C62 1.224 . S
H71 C103 0.929 . S
H72 C105 0.930 . S
H73 C106 0.930 . S
H74 C104 0.929 . S
H75 C107 0.928 . S
O76 Co60 2.057 . S
O76 C64 1.232 . S
H77 C96 0.929 . S
H78 C97 0.929 . S
H79 C109 0.931 . S
H80 C101 0.929 . S
H81 C110 0.930 . S
H82 C102 0.931 . S
O83 Co59 2.097 . S
O83 C111 1.214 . S
H84 C112 0.929 . S
H85 C113 0.929 . S
H86 C114 0.930 . S
H87 C115 0.929 . S
H88 C117 0.930 . S
H89 C94 0.930 . S
H90 C98 0.930 . S
O91 Co60 2.037 . S
O91 C111 1.234 . S
C92 O66 1.269 . S
C92 O67 1.257 . S
C93 H68 0.930 . S
C93 C96 1.388 . S
C93 C98 1.418 . S
C94 H89 0.930 . S
C94 C97 1.404 . S
C94 C98 1.353 . S
N95 Co60 2.145 . S
N95 C96 1.397 . S
N95 C97 1.334 . S
C96 H77 0.929 . S
C96 C93 1.388 . S
C96 N95 1.397 . S
C97 H78 0.929 . S
C97 C94 1.404 . S
C97 N95 1.334 . S
C98 H90 0.930 . S
C98 C93 1.418 . S
C98 C94 1.353 . S
C99 H69 0.930 . S
C99 N100 1.330 . S
C99 C101 1.446 . S
N100 Co59 2.151 . S
N100 C99 1.330 . S
N100 C104 1.418 . S
C101 H80 0.929 . S
C101 C99 1.446 . S
C101 C102 1.332 . S
C102 H82 0.931 . S
C102 C101 1.332 . S
C102 C103 1.267 . S
C103 H71 0.929 . S
C103 C102 1.267 . S
C103 C104 1.251 . S
C104 H74 0.929 . S
C104 N100 1.418 . S
C104 C103 1.251 . S
C105 H72 0.930 . S
C105 C107 1.406 . S
C105 C110 1.261 . S
C106 H73 0.930 . S
C106 N108 1.325 . S
C106 C109 1.357 . S
C107 H75 0.928 . S
C107 C105 1.406 . S
C107 N108 1.261 . S
N108 Co59 2.214 . S
N108 C106 1.325 . S
N108 C107 1.261 . S
C109 H79 0.931 . S
C109 C106 1.357 . S
C109 C110 1.312 . S
C110 H81 0.930 . S
C110 C105 1.261 . S
C110 C109 1.312 . S
C111 O83 1.214 . S
C111 O91 1.234 . S
C112 H84 0.929 . S
C112 C115 1.391 . S
C112 C117 1.391 . S
C113 H85 0.929 . S
C113 C114 1.390 . S
C113 N116 1.391 . S
C114 H86 0.930 . S
C114 C113 1.390 . S
C114 C115 1.392 . S
C115 H87 0.929 . S
C115 C112 1.391 . S
C115 C114 1.392 . S
N116 Co60 2.257 . S
N116 C113 1.391 . S
N116 C117 1.388 . S
C117 H88 0.930 . S
C117 C112 1.391 . S
C117 N116 1.388 . S
Co118 O120 2.143 . S
Co118 O126 2.074 . S
Co118 O129 2.093 . S
Co118 O142 2.097 . S
Co118 N159 2.151 . S
Co118 N167 2.214 . S
Co119 O120 2.160 . S
Co119 O125 2.058 . S
Co119 O135 2.057 . S
Co119 O150 2.037 . S
Co119 N154 2.145 . S
Co119 N175 2.257 . S
O120 Co118 2.143 . S
O120 Co119 2.160 . S
C121 O122 1.278 . S
C121 O129 1.224 . S
O122 C121 1.278 . S
C123 O124 1.245 . S
C123 O135 1.232 . S
O124 C123 1.245 . S
O125 Co119 2.058 . S
O125 C151 1.269 . S
O126 Co118 2.074 . S
O126 C151 1.257 . S
H127 C152 0.930 . S
H128 C158 0.930 . S
O129 Co118 2.093 . S
O129 C121 1.224 . S
H130 C162 0.929 . S
H131 C164 0.930 . S
H132 C165 0.930 . S
H133 C163 0.929 . S
H134 C166 0.928 . S
O135 Co119 2.057 . S
O135 C123 1.232 . S
H136 C155 0.929 . S
H137 C156 0.929 . S
H138 C168 0.931 . S
H139 C160 0.929 . S
H140 C169 0.930 . S
H141 C161 0.931 . S
O142 Co118 2.097 . S
O142 C170 1.214 . S
H143 C171 0.929 . S
H144 C172 0.929 . S
H145 C173 0.930 . S
H146 C174 0.929 . S
H147 C176 0.930 . S
H148 C153 0.930 . S
H149 C157 0.930 . S
O150 Co119 2.037 . S
O150 C170 1.234 . S
C151 O125 1.269 . S
C151 O126 1.257 . S
C152 H127 0.930 . S
C152 C155 1.388 . S
C152 C157 1.418 . S
C153 H148 0.930 . S
C153 C156 1.404 . S
C153 C157 1.353 . S
N154 Co119 2.145 . S
N154 C155 1.397 . S
N154 C156 1.334 . S
C155 H136 0.929 . S
C155 C152 1.388 . S
C155 N154 1.397 . S
C156 H137 0.929 . S
C156 C153 1.404 . S
C156 N154 1.334 . S
C157 H149 0.930 . S
C157 C152 1.418 . S
C157 C153 1.353 . S
C158 H128 0.930 . S
C158 N159 1.330 . S
C158 C160 1.446 . S
N159 Co118 2.151 . S
N159 C158 1.330 . S
N159 C163 1.418 . S
C160 H139 0.929 . S
C160 C158 1.446 . S
C160 C161 1.332 . S
C161 H141 0.931 . S
C161 C160 1.332 . S
C161 C162 1.267 . S
C162 H130 0.929 . S
C162 C161 1.267 . S
C162 C163 1.251 . S
C163 H133 0.929 . S
C163 N159 1.418 . S
C163 C162 1.251 . S
C164 H131 0.930 . S
C164 C166 1.406 . S
C164 C169 1.261 . S
C165 H132 0.930 . S
C165 N167 1.325 . S
C165 C168 1.357 . S
C166 H134 0.928 . S
C166 C164 1.406 . S
C166 N167 1.261 . S
N167 Co118 2.214 . S
N167 C165 1.325 . S
N167 C166 1.261 . S
C168 H138 0.931 . S
C168 C165 1.357 . S
C168 C169 1.312 . S
C169 H140 0.930 . S
C169 C164 1.261 . S
C169 C168 1.312 . S
C170 O142 1.214 . S
C170 O150 1.234 . S
C171 H143 0.929 . S
C171 C174 1.391 . S
C171 C176 1.391 . S
C172 H144 0.929 . S
C172 C173 1.390 . S
C172 N175 1.391 . S
C173 H145 0.930 . S
C173 C172 1.390 . S
C173 C174 1.392 . S
C174 H146 0.929 . S
C174 C171 1.391 . S
C174 C173 1.392 . S
N175 Co119 2.257 . S
N175 C172 1.391 . S
N175 C176 1.388 . S
C176 H147 0.930 . S
C176 C171 1.391 . S
C176 N175 1.388 . S
Co177 O179 2.143 . S
Co177 O185 2.074 . S
Co177 O188 2.093 . S
Co177 O201 2.097 . S
Co177 N218 2.151 . S
Co177 N226 2.214 . S
Co178 O179 2.160 . S
Co178 O184 2.058 . S
Co178 O194 2.057 . S
Co178 O209 2.037 . S
Co178 N213 2.145 . S
Co178 N234 2.257 . S
O179 Co177 2.143 . S
O179 Co178 2.160 . S
C180 O181 1.278 . S
C180 O188 1.224 . S
O181 C180 1.278 . S
C182 O183 1.245 . S
C182 O194 1.232 . S
O183 C182 1.245 . S
O184 Co178 2.058 . S
O184 C210 1.269 . S
O185 Co177 2.074 . S
O185 C210 1.257 . S
H186 C211 0.930 . S
H187 C217 0.930 . S
O188 Co177 2.093 . S
O188 C180 1.224 . S
H189 C221 0.929 . S
H190 C223 0.930 . S
H191 C224 0.930 . S
H192 C222 0.929 . S
H193 C225 0.928 . S
O194 Co178 2.057 . S
O194 C182 1.232 . S
H195 C214 0.929 . S
H196 C215 0.929 . S
H197 C227 0.931 . S
H198 C219 0.929 . S
H199 C228 0.930 . S
H200 C220 0.931 . S
O201 Co177 2.097 . S
O201 C229 1.214 . S
H202 C230 0.929 . S
H203 C231 0.929 . S
H204 C232 0.930 . S
H205 C233 0.929 . S
H206 C235 0.930 . S
H207 C212 0.930 . S
H208 C216 0.930 . S
O209 Co178 2.037 . S
O209 C229 1.234 . S
C210 O184 1.269 . S
C210 O185 1.257 . S
C211 H186 0.930 . S
C211 C214 1.388 . S
C211 C216 1.418 . S
C212 H207 0.930 . S
C212 C215 1.404 . S
C212 C216 1.353 . S
N213 Co178 2.145 . S
N213 C214 1.397 . S
N213 C215 1.334 . S
C214 H195 0.929 . S
C214 C211 1.388 . S
C214 N213 1.397 . S
C215 H196 0.929 . S
C215 C212 1.404 . S
C215 N213 1.334 . S
C216 H208 0.930 . S
C216 C211 1.418 . S
C216 C212 1.353 . S
C217 H187 0.930 . S
C217 N218 1.330 . S
C217 C219 1.446 . S
N218 Co177 2.151 . S
N218 C217 1.330 . S
N218 C222 1.418 . S
C219 H198 0.929 . S
C219 C217 1.446 . S
C219 C220 1.332 . S
C220 H200 0.931 . S
C220 C219 1.332 . S
C220 C221 1.267 . S
C221 H189 0.929 . S
C221 C220 1.267 . S
C221 C222 1.251 . S
C222 H192 0.929 . S
C222 N218 1.418 . S
C222 C221 1.251 . S
C223 H190 0.930 . S
C223 C225 1.406 . S
C223 C228 1.261 . S
C224 H191 0.930 . S
C224 N226 1.325 . S
C224 C227 1.357 . S
C225 H193 0.928 . S
C225 C223 1.406 . S
C225 N226 1.261 . S
N226 Co177 2.214 . S
N226 C224 1.325 . S
N226 C225 1.261 . S
C227 H197 0.931 . S
C227 C224 1.357 . S
C227 C228 1.312 . S
C228 H199 0.930 . S
C228 C223 1.261 . S
C228 C227 1.312 . S
C229 O201 1.214 . S
C229 O209 1.234 . S
C230 H202 0.929 . S
C230 C233 1.391 . S
C230 C235 1.391 . S
C231 H203 0.929 . S
C231 C232 1.390 . S
C231 N234 1.391 . S
C232 H204 0.930 . S
C232 C231 1.390 . S
C232 C233 1.392 . S
C233 H205 0.929 . S
C233 C230 1.391 . S
C233 C232 1.392 . S
N234 Co178 2.257 . S
N234 C231 1.391 . S
N234 C235 1.388 . S
C235 H206 0.930 . S
C235 C230 1.391 . S
C235 N234 1.388 . S
Co236 O238 2.143 . S
Co236 O244 2.074 . S
Co236 O247 2.093 . S
Co236 O260 2.097 . S
Co236 N277 2.151 . S
Co236 N285 2.214 . S
Co237 O238 2.160 . S
Co237 O243 2.058 . S
Co237 O253 2.057 . S
Co237 O268 2.037 . S
Co237 N272 2.145 . S
Co237 N293 2.257 . S
O238 Co236 2.143 . S
O238 Co237 2.160 . S
C239 O240 1.278 . S
C239 O247 1.224 . S
O240 C239 1.278 . S
C241 O242 1.245 . S
C241 O253 1.232 . S
O242 C241 1.245 . S
O243 Co237 2.058 . S
O243 C269 1.269 . S
O244 Co236 2.074 . S
O244 C269 1.257 . S
H245 C270 0.930 . S
H246 C276 0.930 . S
O247 Co236 2.093 . S
O247 C239 1.224 . S
H248 C280 0.929 . S
H249 C282 0.930 . S
H250 C283 0.930 . S
H251 C281 0.929 . S
H252 C284 0.928 . S
O253 Co237 2.057 . S
O253 C241 1.232 . S
H254 C273 0.929 . S
H255 C274 0.929 . S
H256 C286 0.931 . S
H257 C278 0.929 . S
H258 C287 0.930 . S
H259 C279 0.931 . S
O260 Co236 2.097 . S
O260 C288 1.214 . S
H261 C289 0.929 . S
H262 C290 0.929 . S
H263 C291 0.930 . S
H264 C292 0.929 . S
H265 C294 0.930 . S
H266 C271 0.930 . S
H267 C275 0.930 . S
O268 Co237 2.037 . S
O268 C288 1.234 . S
C269 O243 1.269 . S
C269 O244 1.257 . S
C270 H245 0.930 . S
C270 C273 1.388 . S
C270 C275 1.418 . S
C271 H266 0.930 . S
C271 C274 1.404 . S
C271 C275 1.353 . S
N272 Co237 2.145 . S
N272 C273 1.397 . S
N272 C274 1.334 . S
C273 H254 0.929 . S
C273 C270 1.388 . S
C273 N272 1.397 . S
C274 H255 0.929 . S
C274 C271 1.404 . S
C274 N272 1.334 . S
C275 H267 0.930 . S
C275 C270 1.418 . S
C275 C271 1.353 . S
C276 H246 0.930 . S
C276 N277 1.330 . S
C276 C278 1.446 . S
N277 Co236 2.151 . S
N277 C276 1.330 . S
N277 C281 1.418 . S
C278 H257 0.929 . S
C278 C276 1.446 . S
C278 C279 1.332 . S
C279 H259 0.931 . S
C279 C278 1.332 . S
C279 C280 1.267 . S
C280 H248 0.929 . S
C280 C279 1.267 . S
C280 C281 1.251 . S
C281 H251 0.929 . S
C281 N277 1.418 . S
C281 C280 1.251 . S
C282 H249 0.930 . S
C282 C284 1.406 . S
C282 C287 1.261 . S
C283 H250 0.930 . S
C283 N285 1.325 . S
C283 C286 1.357 . S
C284 H252 0.928 . S
C284 C282 1.406 . S
C284 N285 1.261 . S
N285 Co236 2.214 . S
N285 C283 1.325 . S
N285 C284 1.261 . S
C286 H256 0.931 . S
C286 C283 1.357 . S
C286 C287 1.312 . S
C287 H258 0.930 . S
C287 C282 1.261 . S
C287 C286 1.312 . S
C288 O260 1.214 . S
C288 O268 1.234 . S
C289 H261 0.929 . S
C289 C292 1.391 . S
C289 C294 1.391 . S
C290 H262 0.929 . S
C290 C291 1.390 . S
C290 N293 1.391 . S
C291 H263 0.930 . S
C291 C290 1.390 . S
C291 C292 1.392 . S
C292 H264 0.929 . S
C292 C289 1.391 . S
C292 C291 1.392 . S
N293 Co237 2.257 . S
N293 C290 1.391 . S
N293 C294 1.388 . S
C294 H265 0.930 . S
C294 C289 1.391 . S
C294 N293 1.388 . S
Co295 O297 2.143 . S
Co295 O303 2.074 . S
Co295 O306 2.093 . S
Co295 O319 2.097 . S
Co295 N336 2.151 . S
Co295 N344 2.214 . S
Co296 O297 2.160 . S
Co296 O302 2.058 . S
Co296 O312 2.057 . S
Co296 O327 2.037 . S
Co296 N331 2.145 . S
Co296 N352 2.257 . S
O297 Co295 2.143 . S
O297 Co296 2.160 . S
C298 O299 1.278 . S
C298 O306 1.224 . S
O299 C298 1.278 . S
C300 O301 1.245 . S
C300 O312 1.232 . S
O301 C300 1.245 . S
O302 Co296 2.058 . S
O302 C328 1.269 . S
O303 Co295 2.074 . S
O303 C328 1.257 . S
H304 C329 0.930 . S
H305 C335 0.930 . S
O306 Co295 2.093 . S
O306 C298 1.224 . S
H307 C339 0.929 . S
H308 C341 0.930 . S
H309 C342 0.930 . S
H310 C340 0.929 . S
H311 C343 0.928 . S
O312 Co296 2.057 . S
O312 C300 1.232 . S
H313 C332 0.929 . S
H314 C333 0.929 . S
H315 C345 0.931 . S
H316 C337 0.929 . S
H317 C346 0.930 . S
H318 C338 0.931 . S
O319 Co295 2.097 . S
O319 C347 1.214 . S
H320 C348 0.929 . S
H321 C349 0.929 . S
H322 C350 0.930 . S
H323 C351 0.929 . S
H324 C353 0.930 . S
H325 C330 0.930 . S
H326 C334 0.930 . S
O327 Co296 2.037 . S
O327 C347 1.234 . S
C328 O302 1.269 . S
C328 O303 1.257 . S
C329 H304 0.930 . S
C329 C332 1.388 . S
C329 C334 1.418 . S
C330 H325 0.930 . S
C330 C333 1.404 . S
C330 C334 1.353 . S
N331 Co296 2.145 . S
N331 C332 1.397 . S
N331 C333 1.334 . S
C332 H313 0.929 . S
C332 C329 1.388 . S
C332 N331 1.397 . S
C333 H314 0.929 . S
C333 C330 1.404 . S
C333 N331 1.334 . S
C334 H326 0.930 . S
C334 C329 1.418 . S
C334 C330 1.353 . S
C335 H305 0.930 . S
C335 N336 1.330 . S
C335 C337 1.446 . S
N336 Co295 2.151 . S
N336 C335 1.330 . S
N336 C340 1.418 . S
C337 H316 0.929 . S
C337 C335 1.446 . S
C337 C338 1.332 . S
C338 H318 0.931 . S
C338 C337 1.332 . S
C338 C339 1.267 . S
C339 H307 0.929 . S
C339 C338 1.267 . S
C339 C340 1.251 . S
C340 H310 0.929 . S
C340 N336 1.418 . S
C340 C339 1.251 . S
C341 H308 0.930 . S
C341 C343 1.406 . S
C341 C346 1.261 . S
C342 H309 0.930 . S
C342 N344 1.325 . S
C342 C345 1.357 . S
C343 H311 0.928 . S
C343 C341 1.406 . S
C343 N344 1.261 . S
N344 Co295 2.214 . S
N344 C342 1.325 . S
N344 C343 1.261 . S
C345 H315 0.931 . S
C345 C342 1.357 . S
C345 C346 1.312 . S
C346 H317 0.930 . S
C346 C341 1.261 . S
C346 C345 1.312 . S
C347 O319 1.214 . S
C347 O327 1.234 . S
C348 H320 0.929 . S
C348 C351 1.391 . S
C348 C353 1.391 . S
C349 H321 0.929 . S
C349 C350 1.390 . S
C349 N352 1.391 . S
C350 H322 0.930 . S
C350 C349 1.390 . S
C350 C351 1.392 . S
C351 H323 0.929 . S
C351 C348 1.391 . S
C351 C350 1.392 . S
N352 Co296 2.257 . S
N352 C349 1.391 . S
N352 C353 1.388 . S
C353 H324 0.930 . S
C353 C348 1.391 . S
C353 N352 1.388 . S
Co354 O356 2.143 . S
Co354 O362 2.074 . S
Co354 O365 2.093 . S
Co354 O378 2.097 . S
Co354 N395 2.151 . S
Co354 N403 2.214 . S
Co355 O356 2.160 . S
Co355 O361 2.058 . S
Co355 O371 2.057 . S
Co355 O386 2.037 . S
Co355 N390 2.145 . S
Co355 N411 2.257 . S
O356 Co354 2.143 . S
O356 Co355 2.160 . S
C357 O358 1.278 . S
C357 O365 1.224 . S
O358 C357 1.278 . S
C359 O360 1.245 . S
C359 O371 1.232 . S
O360 C359 1.245 . S
O361 Co355 2.058 . S
O361 C387 1.269 . S
O362 Co354 2.074 . S
O362 C387 1.257 . S
H363 C388 0.930 . S
H364 C394 0.930 . S
O365 Co354 2.093 . S
O365 C357 1.224 . S
H366 C398 0.929 . S
H367 C400 0.930 . S
H368 C401 0.930 . S
H369 C399 0.929 . S
H370 C402 0.928 . S
O371 Co355 2.057 . S
O371 C359 1.232 . S
H372 C391 0.929 . S
H373 C392 0.929 . S
H374 C404 0.931 . S
H375 C396 0.929 . S
H376 C405 0.930 . S
H377 C397 0.931 . S
O378 Co354 2.097 . S
O378 C406 1.214 . S
H379 C407 0.929 . S
H380 C408 0.929 . S
H381 C409 0.930 . S
H382 C410 0.929 . S
H383 C412 0.930 . S
H384 C389 0.930 . S
H385 C393 0.930 . S
O386 Co355 2.037 . S
O386 C406 1.234 . S
C387 O361 1.269 . S
C387 O362 1.257 . S
C388 H363 0.930 . S
C388 C391 1.388 . S
C388 C393 1.418 . S
C389 H384 0.930 . S
C389 C392 1.404 . S
C389 C393 1.353 . S
N390 Co355 2.145 . S
N390 C391 1.397 . S
N390 C392 1.334 . S
C391 H372 0.929 . S
C391 C388 1.388 . S
C391 N390 1.397 . S
C392 H373 0.929 . S
C392 C389 1.404 . S
C392 N390 1.334 . S
C393 H385 0.930 . S
C393 C388 1.418 . S
C393 C389 1.353 . S
C394 H364 0.930 . S
C394 N395 1.330 . S
C394 C396 1.446 . S
N395 Co354 2.151 . S
N395 C394 1.330 . S
N395 C399 1.418 . S
C396 H375 0.929 . S
C396 C394 1.446 . S
C396 C397 1.332 . S
C397 H377 0.931 . S
C397 C396 1.332 . S
C397 C398 1.267 . S
C398 H366 0.929 . S
C398 C397 1.267 . S
C398 C399 1.251 . S
C399 H369 0.929 . S
C399 N395 1.418 . S
C399 C398 1.251 . S
C400 H367 0.930 . S
C400 C402 1.406 . S
C400 C405 1.261 . S
C401 H368 0.930 . S
C401 N403 1.325 . S
C401 C404 1.357 . S
C402 H370 0.928 . S
C402 C400 1.406 . S
C402 N403 1.261 . S
N403 Co354 2.214 . S
N403 C401 1.325 . S
N403 C402 1.261 . S
C404 H374 0.931 . S
C404 C401 1.357 . S
C404 C405 1.312 . S
C405 H376 0.930 . S
C405 C400 1.261 . S
C405 C404 1.312 . S
C406 O378 1.214 . S
C406 O386 1.234 . S
C407 H379 0.929 . S
C407 C410 1.391 . S
C407 C412 1.391 . S
C408 H380 0.929 . S
C408 C409 1.390 . S
C408 N411 1.391 . S
C409 H381 0.930 . S
C409 C408 1.390 . S
C409 C410 1.392 . S
C410 H382 0.929 . S
C410 C407 1.391 . S
C410 C409 1.392 . S
N411 Co355 2.257 . S
N411 C408 1.391 . S
N411 C412 1.388 . S
C412 H383 0.930 . S
C412 C407 1.391 . S
C412 N411 1.388 . S
Co413 O415 2.143 . S
Co413 O421 2.074 . S
Co413 O424 2.093 . S
Co413 O437 2.097 . S
Co413 N454 2.151 . S
Co413 N462 2.214 . S
Co414 O415 2.160 . S
Co414 O420 2.058 . S
Co414 O430 2.057 . S
Co414 O445 2.037 . S
Co414 N449 2.145 . S
Co414 N470 2.257 . S
O415 Co413 2.143 . S
O415 Co414 2.160 . S
C416 O417 1.278 . S
C416 O424 1.224 . S
O417 C416 1.278 . S
C418 O419 1.245 . S
C418 O430 1.232 . S
O419 C418 1.245 . S
O420 Co414 2.058 . S
O420 C446 1.269 . S
O421 Co413 2.074 . S
O421 C446 1.257 . S
H422 C447 0.930 . S
H423 C453 0.930 . S
O424 Co413 2.093 . S
O424 C416 1.224 . S
H425 C457 0.929 . S
H426 C459 0.930 . S
H427 C460 0.930 . S
H428 C458 0.929 . S
H429 C461 0.928 . S
O430 Co414 2.057 . S
O430 C418 1.232 . S
H431 C450 0.929 . S
H432 C451 0.929 . S
H433 C463 0.931 . S
H434 C455 0.929 . S
H435 C464 0.930 . S
H436 C456 0.931 . S
O437 Co413 2.097 . S
O437 C465 1.214 . S
H438 C466 0.929 . S
H439 C467 0.929 . S
H440 C468 0.930 . S
H441 C469 0.929 . S
H442 C471 0.930 . S
H443 C448 0.930 . S
H444 C452 0.930 . S
O445 Co414 2.037 . S
O445 C465 1.234 . S
C446 O420 1.269 . S
C446 O421 1.257 . S
C447 H422 0.930 . S
C447 C450 1.388 . S
C447 C452 1.418 . S
C448 H443 0.930 . S
C448 C451 1.404 . S
C448 C452 1.353 . S
N449 Co414 2.145 . S
N449 C450 1.397 . S
N449 C451 1.334 . S
C450 H431 0.929 . S
C450 C447 1.388 . S
C450 N449 1.397 . S
C451 H432 0.929 . S
C451 C448 1.404 . S
C451 N449 1.334 . S
C452 H444 0.930 . S
C452 C447 1.418 . S
C452 C448 1.353 . S
C453 H423 0.930 . S
C453 N454 1.330 . S
C453 C455 1.446 . S
N454 Co413 2.151 . S
N454 C453 1.330 . S
N454 C458 1.418 . S
C455 H434 0.929 . S
C455 C453 1.446 . S
C455 C456 1.332 . S
C456 H436 0.931 . S
C456 C455 1.332 . S
C456 C457 1.267 . S
C457 H425 0.929 . S
C457 C456 1.267 . S
C457 C458 1.251 . S
C458 H428 0.929 . S
C458 N454 1.418 . S
C458 C457 1.251 . S
C459 H426 0.930 . S
C459 C461 1.406 . S
C459 C464 1.261 . S
C460 H427 0.930 . S
C460 N462 1.325 . S
C460 C463 1.357 . S
C461 H429 0.928 . S
C461 C459 1.406 . S
C461 N462 1.261 . S
N462 Co413 2.214 . S
N462 C460 1.325 . S
N462 C461 1.261 . S
C463 H433 0.931 . S
C463 C460 1.357 . S
C463 C464 1.312 . S
C464 H435 0.930 . S
C464 C459 1.261 . S
C464 C463 1.312 . S
C465 O437 1.214 . S
C465 O445 1.234 . S
C466 H438 0.929 . S
C466 C469 1.391 . S
C466 C471 1.391 . S
C467 H439 0.929 . S
C467 C468 1.390 . S
C467 N470 1.391 . S
C468 H440 0.930 . S
C468 C467 1.390 . S
C468 C469 1.392 . S
C469 H441 0.929 . S
C469 C466 1.391 . S
C469 C468 1.392 . S
N470 Co414 2.257 . S
N470 C467 1.391 . S
N470 C471 1.388 . S
C471 H442 0.930 . S
C471 C466 1.391 . S
C471 N470 1.388 . S
Co472 O474 2.143 . S
Co472 O480 2.074 . S
Co472 O483 2.093 . S
Co472 O496 2.097 . S
Co472 N513 2.151 . S
Co472 N521 2.214 . S
Co473 O474 2.160 . S
Co473 O479 2.058 . S
Co473 O489 2.057 . S
Co473 O504 2.037 . S
Co473 N508 2.145 . S
Co473 N529 2.257 . S
O474 Co472 2.143 . S
O474 Co473 2.160 . S
C475 O476 1.278 . S
C475 O483 1.224 . S
O476 C475 1.278 . S
C477 O478 1.245 . S
C477 O489 1.232 . S
O478 C477 1.245 . S
O479 Co473 2.058 . S
O479 C505 1.269 . S
O480 Co472 2.074 . S
O480 C505 1.257 . S
H481 C506 0.930 . S
H482 C512 0.930 . S
O483 Co472 2.093 . S
O483 C475 1.224 . S
H484 C516 0.929 1_455 S
H485 C518 0.930 . S
H486 C519 0.930 . S
H487 C517 0.929 . S
H488 C520 0.928 . S
O489 Co473 2.057 . S
O489 C477 1.232 . S
H490 C509 0.929 . S
H491 C510 0.929 . S
H492 C522 0.931 . S
H493 C514 0.929 . S
H494 C523 0.930 . S
H495 C515 0.931 . S
O496 Co472 2.097 . S
O496 C524 1.214 . S
H497 C525 0.929 . S
H498 C526 0.929 . S
H499 C527 0.930 . S
H500 C528 0.929 . S
H501 C530 0.930 . S
H502 C507 0.930 . S
H503 C511 0.930 . S
O504 Co473 2.037 . S
O504 C524 1.234 . S
C505 O479 1.269 . S
C505 O480 1.257 . S
C506 H481 0.930 . S
C506 C509 1.388 . S
C506 C511 1.418 . S
C507 H502 0.930 . S
C507 C510 1.404 . S
C507 C511 1.353 . S
N508 Co473 2.145 . S
N508 C509 1.397 . S
N508 C510 1.334 . S
C509 H490 0.929 . S
C509 C506 1.388 . S
C509 N508 1.397 . S
C510 H491 0.929 . S
C510 C507 1.404 . S
C510 N508 1.334 . S
C511 H503 0.930 . S
C511 C506 1.418 . S
C511 C507 1.353 . S
C512 H482 0.930 . S
C512 N513 1.330 . S
C512 C514 1.446 . S
N513 Co472 2.151 . S
N513 C512 1.330 . S
N513 C517 1.418 . S
C514 H493 0.929 . S
C514 C512 1.446 . S
C514 C515 1.332 . S
C515 H495 0.931 . S
C515 C514 1.332 . S
C515 C516 1.267 . S
C516 H484 0.929 1_655 S
C516 C515 1.267 . S
C516 C517 1.251 . S
C517 H487 0.929 . S
C517 N513 1.418 . S
C517 C516 1.251 . S
C518 H485 0.930 . S
C518 C520 1.406 1_455 S
C518 C523 1.261 . S
C519 H486 0.930 . S
C519 N521 1.325 . S
C519 C522 1.357 1_655 S
C520 H488 0.928 . S
C520 C518 1.406 1_655 S
C520 N521 1.261 . S
N521 Co472 2.214 . S
N521 C519 1.325 . S
N521 C520 1.261 . S
C522 H492 0.931 . S
C522 C519 1.357 1_455 S
C522 C523 1.312 . S
C523 H494 0.930 . S
C523 C518 1.261 . S
C523 C522 1.312 . S
C524 O496 1.214 . S
C524 O504 1.234 . S
C525 H497 0.929 . S
C525 C528 1.391 . S
C525 C530 1.391 . S
C526 H498 0.929 . S
C526 C527 1.390 . S
C526 N529 1.391 . S
C527 H499 0.930 . S
C527 C526 1.390 . S
C527 C528 1.392 . S
C528 H500 0.929 . S
C528 C525 1.391 . S
C528 C527 1.392 . S
N529 Co473 2.257 . S
N529 C526 1.391 . S
N529 C530 1.388 . S
C530 H501 0.930 . S
C530 C525 1.391 . S
C530 N529 1.388 . S
Co531 O533 2.143 . S
Co531 O539 2.074 . S
Co531 O542 2.093 . S
Co531 O555 2.097 . S
Co531 N572 2.151 . S
Co531 N580 2.214 . S
Co532 O533 2.160 . S
Co532 O538 2.058 . S
Co532 O548 2.057 . S
Co532 O563 2.037 . S
Co532 N567 2.145 . S
Co532 N588 2.257 . S
O533 Co531 2.143 . S
O533 Co532 2.160 . S
C534 O535 1.278 . S
C534 O542 1.224 . S
O535 C534 1.278 . S
C536 O537 1.245 . S
C536 O548 1.232 . S
O537 C536 1.245 . S
O538 Co532 2.058 . S
O538 C564 1.269 . S
O539 Co531 2.074 . S
O539 C564 1.257 . S
H540 C565 0.930 . S
H541 C571 0.930 . S
O542 Co531 2.093 . S
O542 C534 1.224 . S
H543 C575 0.929 1_545 S
H544 C577 0.930 . S
H545 C578 0.930 . S
H546 C576 0.929 . S
H547 C579 0.928 . S
O548 Co532 2.057 . S
O548 C536 1.232 . S
H549 C568 0.929 . S
H550 C569 0.929 . S
H551 C581 0.931 . S
H552 C573 0.929 . S
H553 C582 0.930 . S
H554 C574 0.931 . S
O555 Co531 2.097 . S
O555 C583 1.214 . S
H556 C584 0.929 . S
H557 C585 0.929 . S
H558 C586 0.930 . S
H559 C587 0.929 . S
H560 C589 0.930 . S
H561 C566 0.930 . S
H562 C570 0.930 . S
O563 Co532 2.037 . S
O563 C583 1.234 . S
C564 O538 1.269 . S
C564 O539 1.257 . S
C565 H540 0.930 . S
C565 C568 1.388 . S
C565 C570 1.418 . S
C566 H561 0.930 . S
C566 C569 1.404 . S
C566 C570 1.353 . S
N567 Co532 2.145 . S
N567 C568 1.397 . S
N567 C569 1.334 . S
C568 H549 0.929 . S
C568 C565 1.388 . S
C568 N567 1.397 . S
C569 H550 0.929 . S
C569 C566 1.404 . S
C569 N567 1.334 . S
C570 H562 0.930 . S
C570 C565 1.418 . S
C570 C566 1.353 . S
C571 H541 0.930 . S
C571 N572 1.330 . S
C571 C573 1.446 . S
N572 Co531 2.151 . S
N572 C571 1.330 . S
N572 C576 1.418 . S
C573 H552 0.929 . S
C573 C571 1.446 . S
C573 C574 1.332 . S
C574 H554 0.931 . S
C574 C573 1.332 . S
C574 C575 1.267 . S
C575 H543 0.929 1_565 S
C575 C574 1.267 . S
C575 C576 1.251 . S
C576 H546 0.929 . S
C576 N572 1.418 . S
C576 C575 1.251 . S
C577 H544 0.930 . S
C577 C579 1.406 1_545 S
C577 C582 1.261 . S
C578 H545 0.930 . S
C578 N580 1.325 . S
C578 C581 1.357 1_565 S
C579 H547 0.928 . S
C579 C577 1.406 1_565 S
C579 N580 1.261 . S
N580 Co531 2.214 . S
N580 C578 1.325 . S
N580 C579 1.261 . S
C581 H551 0.931 . S
C581 C578 1.357 1_545 S
C581 C582 1.312 . S
C582 H553 0.930 . S
C582 C577 1.261 . S
C582 C581 1.312 . S
C583 O555 1.214 . S
C583 O563 1.234 . S
C584 H556 0.929 . S
C584 C587 1.391 . S
C584 C589 1.391 . S
C585 H557 0.929 . S
C585 C586 1.390 . S
C585 N588 1.391 . S
C586 H558 0.930 . S
C586 C585 1.390 . S
C586 C587 1.392 . S
C587 H559 0.929 . S
C587 C584 1.391 . S
C587 C586 1.392 . S
N588 Co532 2.257 . S
N588 C585 1.391 . S
N588 C589 1.388 . S
C589 H560 0.930 . S
C589 C584 1.391 . S
C589 N588 1.388 . S
Co590 O592 2.143 . S
Co590 O598 2.074 . S
Co590 O601 2.093 . S
Co590 O614 2.097 . S
Co590 N631 2.151 . S
Co590 N639 2.214 . S
Co591 O592 2.160 . S
Co591 O597 2.058 . S
Co591 O607 2.057 . S
Co591 O622 2.037 . S
Co591 N626 2.145 . S
Co591 N647 2.257 . S
O592 Co590 2.143 . S
O592 Co591 2.160 . S
C593 O594 1.278 . S
C593 O601 1.224 . S
O594 C593 1.278 . S
C595 O596 1.245 . S
C595 O607 1.232 . S
O596 C595 1.245 . S
O597 Co591 2.058 . S
O597 C623 1.269 . S
O598 Co590 2.074 . S
O598 C623 1.257 . S
H599 C624 0.930 . S
H600 C630 0.930 . S
O601 Co590 2.093 . S
O601 C593 1.224 . S
H602 C634 0.929 1_655 S
H603 C636 0.930 . S
H604 C637 0.930 . S
H605 C635 0.929 . S
H606 C638 0.928 . S
O607 Co591 2.057 . S
O607 C595 1.232 . S
H608 C627 0.929 . S
H609 C628 0.929 . S
H610 C640 0.931 . S
H611 C632 0.929 . S
H612 C641 0.930 . S
H613 C633 0.931 . S
O614 Co590 2.097 . S
O614 C642 1.214 . S
H615 C643 0.929 . S
H616 C644 0.929 . S
H617 C645 0.930 . S
H618 C646 0.929 . S
H619 C648 0.930 . S
H620 C625 0.930 . S
H621 C629 0.930 . S
O622 Co591 2.037 . S
O622 C642 1.234 . S
C623 O597 1.269 . S
C623 O598 1.257 . S
C624 H599 0.930 . S
C624 C627 1.388 . S
C624 C629 1.418 . S
C625 H620 0.930 . S
C625 C628 1.404 . S
C625 C629 1.353 . S
N626 Co591 2.145 . S
N626 C627 1.397 . S
N626 C628 1.334 . S
C627 H608 0.929 . S
C627 C624 1.388 . S
C627 N626 1.397 . S
C628 H609 0.929 . S
C628 C625 1.404 . S
C628 N626 1.334 . S
C629 H621 0.930 . S
C629 C624 1.418 . S
C629 C625 1.353 . S
C630 H600 0.930 . S
C630 N631 1.330 . S
C630 C632 1.446 . S
N631 Co590 2.151 . S
N631 C630 1.330 . S
N631 C635 1.418 . S
C632 H611 0.929 . S
C632 C630 1.446 . S
C632 C633 1.332 . S
C633 H613 0.931 . S
C633 C632 1.332 . S
C633 C634 1.267 . S
C634 H602 0.929 1_455 S
C634 C633 1.267 . S
C634 C635 1.251 . S
C635 H605 0.929 . S
C635 N631 1.418 . S
C635 C634 1.251 . S
C636 H603 0.930 . S
C636 C638 1.406 1_655 S
C636 C641 1.261 . S
C637 H604 0.930 . S
C637 N639 1.325 . S
C637 C640 1.357 1_455 S
C638 H606 0.928 . S
C638 C636 1.406 1_455 S
C638 N639 1.261 . S
N639 Co590 2.214 . S
N639 C637 1.325 . S
N639 C638 1.261 . S
C640 H610 0.931 . S
C640 C637 1.357 1_655 S
C640 C641 1.312 . S
C641 H612 0.930 . S
C641 C636 1.261 . S
C641 C640 1.312 . S
C642 O614 1.214 . S
C642 O622 1.234 . S
C643 H615 0.929 . S
C643 C646 1.391 . S
C643 C648 1.391 . S
C644 H616 0.929 . S
C644 C645 1.390 . S
C644 N647 1.391 . S
C645 H617 0.930 . S
C645 C644 1.390 . S
C645 C646 1.392 . S
C646 H618 0.929 . S
C646 C643 1.391 . S
C646 C645 1.392 . S
N647 Co591 2.257 . S
N647 C644 1.391 . S
N647 C648 1.388 . S
C648 H619 0.930 . S
C648 C643 1.391 . S
C648 N647 1.388 . S
Co649 O651 2.143 . S
Co649 O657 2.074 . S
Co649 O660 2.093 . S
Co649 O673 2.097 . S
Co649 N690 2.151 . S
Co649 N698 2.214 . S
Co650 O651 2.160 . S
Co650 O656 2.058 . S
Co650 O666 2.057 . S
Co650 O681 2.037 . S
Co650 N685 2.145 . S
Co650 N706 2.257 . S
O651 Co649 2.143 . S
O651 Co650 2.160 . S
C652 O653 1.278 . S
C652 O660 1.224 . S
O653 C652 1.278 . S
C654 O655 1.245 . S
C654 O666 1.232 . S
O655 C654 1.245 . S
O656 Co650 2.058 . S
O656 C682 1.269 . S
O657 Co649 2.074 . S
O657 C682 1.257 . S
H658 C683 0.930 . S
H659 C689 0.930 . S
O660 Co649 2.093 . S
O660 C652 1.224 . S
H661 C693 0.929 1_565 S
H662 C695 0.930 . S
H663 C696 0.930 . S
H664 C694 0.929 . S
H665 C697 0.928 . S
O666 Co650 2.057 . S
O666 C654 1.232 . S
H667 C686 0.929 . S
H668 C687 0.929 . S
H669 C699 0.931 . S
H670 C691 0.929 . S
H671 C700 0.930 . S
H672 C692 0.931 . S
O673 Co649 2.097 . S
O673 C701 1.214 . S
H674 C702 0.929 . S
H675 C703 0.929 . S
H676 C704 0.930 . S
H677 C705 0.929 . S
H678 C707 0.930 . S
H679 C684 0.930 . S
H680 C688 0.930 . S
O681 Co650 2.037 . S
O681 C701 1.234 . S
C682 O656 1.269 . S
C682 O657 1.257 . S
C683 H658 0.930 . S
C683 C686 1.388 . S
C683 C688 1.418 . S
C684 H679 0.930 . S
C684 C687 1.404 . S
C684 C688 1.353 . S
N685 Co650 2.145 . S
N685 C686 1.397 . S
N685 C687 1.334 . S
C686 H667 0.929 . S
C686 C683 1.388 . S
C686 N685 1.397 . S
C687 H668 0.929 . S
C687 C684 1.404 . S
C687 N685 1.334 . S
C688 H680 0.930 . S
C688 C683 1.418 . S
C688 C684 1.353 . S
C689 H659 0.930 . S
C689 N690 1.330 . S
C689 C691 1.446 . S
N690 Co649 2.151 . S
N690 C689 1.330 . S
N690 C694 1.418 . S
C691 H670 0.929 . S
C691 C689 1.446 . S
C691 C692 1.332 . S
C692 H672 0.931 . S
C692 C691 1.332 . S
C692 C693 1.267 . S
C693 H661 0.929 1_545 S
C693 C692 1.267 . S
C693 C694 1.251 . S
C694 H664 0.929 . S
C694 N690 1.418 . S
C694 C693 1.251 . S
C695 H662 0.930 . S
C695 C697 1.406 1_565 S
C695 C700 1.261 . S
C696 H663 0.930 . S
C696 N698 1.325 . S
C696 C699 1.357 1_545 S
C697 H665 0.928 . S
C697 C695 1.406 1_545 S
C697 N698 1.261 . S
N698 Co649 2.214 . S
N698 C696 1.325 . S
N698 C697 1.261 . S
C699 H669 0.931 . S
C699 C696 1.357 1_565 S
C699 C700 1.312 . S
C700 H671 0.930 . S
C700 C695 1.261 . S
C700 C699 1.312 . S
C701 O673 1.214 . S
C701 O681 1.234 . S
C702 H674 0.929 . S
C702 C705 1.391 . S
C702 C707 1.391 . S
C703 H675 0.929 . S
C703 C704 1.390 . S
C703 N706 1.391 . S
C704 H676 0.930 . S
C704 C703 1.390 . S
C704 C705 1.392 . S
C705 H677 0.929 . S
C705 C702 1.391 . S
C705 C704 1.392 . S
N706 Co650 2.257 . S
N706 C703 1.391 . S
N706 C707 1.388 . S
C707 H678 0.930 . S
C707 C702 1.391 . S
C707 N706 1.388 . S
Co708 O710 2.143 . S
Co708 O716 2.074 . S
Co708 O719 2.093 . S
Co708 O732 2.097 . S
Co708 N749 2.151 . S
Co708 N757 2.214 . S
Co709 O710 2.160 . S
Co709 O715 2.058 . S
Co709 O725 2.057 . S
Co709 O740 2.037 . S
Co709 N744 2.145 . S
Co709 N765 2.257 . S
O710 Co708 2.143 . S
O710 Co709 2.160 . S
C711 O712 1.278 . S
C711 O719 1.224 . S
O712 C711 1.278 . S
C713 O714 1.245 . S
C713 O725 1.232 . S
O714 C713 1.245 . S
O715 Co709 2.058 . S
O715 C741 1.269 . S
O716 Co708 2.074 . S
O716 C741 1.257 . S
H717 C742 0.930 . S
H718 C748 0.930 . S
O719 Co708 2.093 . S
O719 C711 1.224 . S
H720 C752 0.929 1_455 S
H721 C754 0.930 . S
H722 C755 0.930 . S
H723 C753 0.929 . S
H724 C756 0.928 . S
O725 Co709 2.057 . S
O725 C713 1.232 . S
H726 C745 0.929 . S
H727 C746 0.929 . S
H728 C758 0.931 . S
H729 C750 0.929 . S
H730 C759 0.930 . S
H731 C751 0.931 . S
O732 Co708 2.097 . S
O732 C760 1.214 . S
H733 C761 0.929 . S
H734 C762 0.929 . S
H735 C763 0.930 . S
H736 C764 0.929 . S
H737 C766 0.930 . S
H738 C743 0.930 . S
H739 C747 0.930 . S
O740 Co709 2.037 . S
O740 C760 1.234 . S
C741 O715 1.269 . S
C741 O716 1.257 . S
C742 H717 0.930 . S
C742 C745 1.388 . S
C742 C747 1.418 . S
C743 H738 0.930 . S
C743 C746 1.404 . S
C743 C747 1.353 . S
N744 Co709 2.145 . S
N744 C745 1.397 . S
N744 C746 1.334 . S
C745 H726 0.929 . S
C745 C742 1.388 . S
C745 N744 1.397 . S
C746 H727 0.929 . S
C746 C743 1.404 . S
C746 N744 1.334 . S
C747 H739 0.930 . S
C747 C742 1.418 . S
C747 C743 1.353 . S
C748 H718 0.930 . S
C748 N749 1.330 . S
C748 C750 1.446 . S
N749 Co708 2.151 . S
N749 C748 1.330 . S
N749 C753 1.418 . S
C750 H729 0.929 . S
C750 C748 1.446 . S
C750 C751 1.332 . S
C751 H731 0.931 . S
C751 C750 1.332 . S
C751 C752 1.267 . S
C752 H720 0.929 1_655 S
C752 C751 1.267 . S
C752 C753 1.251 . S
C753 H723 0.929 . S
C753 N749 1.418 . S
C753 C752 1.251 . S
C754 H721 0.930 . S
C754 C756 1.406 1_455 S
C754 C759 1.261 . S
C755 H722 0.930 . S
C755 N757 1.325 . S
C755 C758 1.357 1_655 S
C756 H724 0.928 . S
C756 C754 1.406 1_655 S
C756 N757 1.261 . S
N757 Co708 2.214 . S
N757 C755 1.325 . S
N757 C756 1.261 . S
C758 H728 0.931 . S
C758 C755 1.357 1_455 S
C758 C759 1.312 . S
C759 H730 0.930 . S
C759 C754 1.261 . S
C759 C758 1.312 . S
C760 O732 1.214 . S
C760 O740 1.234 . S
C761 H733 0.929 . S
C761 C764 1.391 . S
C761 C766 1.391 . S
C762 H734 0.929 . S
C762 C763 1.390 . S
C762 N765 1.391 . S
C763 H735 0.930 . S
C763 C762 1.390 . S
C763 C764 1.392 . S
C764 H736 0.929 . S
C764 C761 1.391 . S
C764 C763 1.392 . S
N765 Co709 2.257 . S
N765 C762 1.391 . S
N765 C766 1.388 . S
C766 H737 0.930 . S
C766 C761 1.391 . S
C766 N765 1.388 . S
Co767 O769 2.143 . S
Co767 O775 2.074 . S
Co767 O778 2.093 . S
Co767 O791 2.097 . S
Co767 N808 2.151 . S
Co767 N816 2.214 . S
Co768 O769 2.160 . S
Co768 O774 2.058 . S
Co768 O784 2.057 . S
Co768 O799 2.037 . S
Co768 N803 2.145 . S
Co768 N824 2.257 . S
O769 Co767 2.143 . S
O769 Co768 2.160 . S
C770 O771 1.278 . S
C770 O778 1.224 . S
O771 C770 1.278 . S
C772 O773 1.245 . S
C772 O784 1.232 . S
O773 C772 1.245 . S
O774 Co768 2.058 . S
O774 C800 1.269 . S
O775 Co767 2.074 . S
O775 C800 1.257 . S
H776 C801 0.930 . S
H777 C807 0.930 . S
O778 Co767 2.093 . S
O778 C770 1.224 . S
H779 C811 0.929 1_545 S
H780 C813 0.930 . S
H781 C814 0.930 . S
H782 C812 0.929 . S
H783 C815 0.928 . S
O784 Co768 2.057 . S
O784 C772 1.232 . S
H785 C804 0.929 . S
H786 C805 0.929 . S
H787 C817 0.931 . S
H788 C809 0.929 . S
H789 C818 0.930 . S
H790 C810 0.931 . S
O791 Co767 2.097 . S
O791 C819 1.214 . S
H792 C820 0.929 . S
H793 C821 0.929 . S
H794 C822 0.930 . S
H795 C823 0.929 . S
H796 C825 0.930 . S
H797 C802 0.930 . S
H798 C806 0.930 . S
O799 Co768 2.037 . S
O799 C819 1.234 . S
C800 O774 1.269 . S
C800 O775 1.257 . S
C801 H776 0.930 . S
C801 C804 1.388 . S
C801 C806 1.418 . S
C802 H797 0.930 . S
C802 C805 1.404 . S
C802 C806 1.353 . S
N803 Co768 2.145 . S
N803 C804 1.397 . S
N803 C805 1.334 . S
C804 H785 0.929 . S
C804 C801 1.388 . S
C804 N803 1.397 . S
C805 H786 0.929 . S
C805 C802 1.404 . S
C805 N803 1.334 . S
C806 H798 0.930 . S
C806 C801 1.418 . S
C806 C802 1.353 . S
C807 H777 0.930 . S
C807 N808 1.330 . S
C807 C809 1.446 . S
N808 Co767 2.151 . S
N808 C807 1.330 . S
N808 C812 1.418 . S
C809 H788 0.929 . S
C809 C807 1.446 . S
C809 C810 1.332 . S
C810 H790 0.931 . S
C810 C809 1.332 . S
C810 C811 1.267 . S
C811 H779 0.929 1_565 S
C811 C810 1.267 . S
C811 C812 1.251 . S
C812 H782 0.929 . S
C812 N808 1.418 . S
C812 C811 1.251 . S
C813 H780 0.930 . S
C813 C815 1.406 1_545 S
C813 C818 1.261 . S
C814 H781 0.930 . S
C814 N816 1.325 . S
C814 C817 1.357 1_565 S
C815 H783 0.928 . S
C815 C813 1.406 1_565 S
C815 N816 1.261 . S
N816 Co767 2.214 . S
N816 C814 1.325 . S
N816 C815 1.261 . S
C817 H787 0.931 . S
C817 C814 1.357 1_545 S
C817 C818 1.312 . S
C818 H789 0.930 . S
C818 C813 1.261 . S
C818 C817 1.312 . S
C819 O791 1.214 . S
C819 O799 1.234 . S
C820 H792 0.929 . S
C820 C823 1.391 . S
C820 C825 1.391 . S
C821 H793 0.929 . S
C821 C822 1.390 . S
C821 N824 1.391 . S
C822 H794 0.930 . S
C822 C821 1.390 . S
C822 C823 1.392 . S
C823 H795 0.929 . S
C823 C820 1.391 . S
C823 C822 1.392 . S
N824 Co768 2.257 . S
N824 C821 1.391 . S
N824 C825 1.388 . S
C825 H796 0.930 . S
C825 C820 1.391 . S
C825 N824 1.388 . S
Co826 O828 2.143 . S
Co826 O834 2.074 . S
Co826 O837 2.093 . S
Co826 O850 2.097 . S
Co826 N867 2.151 . S
Co826 N875 2.214 . S
Co827 O828 2.160 . S
Co827 O833 2.058 . S
Co827 O843 2.057 . S
Co827 O858 2.037 . S
Co827 N862 2.145 . S
Co827 N883 2.257 . S
O828 Co826 2.143 . S
O828 Co827 2.160 . S
C829 O830 1.278 . S
C829 O837 1.224 . S
O830 C829 1.278 . S
C831 O832 1.245 . S
C831 O843 1.232 . S
O832 C831 1.245 . S
O833 Co827 2.058 . S
O833 C859 1.269 . S
O834 Co826 2.074 . S
O834 C859 1.257 . S
H835 C860 0.930 . S
H836 C866 0.930 . S
O837 Co826 2.093 . S
O837 C829 1.224 . S
H838 C870 0.929 1_655 S
H839 C872 0.930 . S
H840 C873 0.930 . S
H841 C871 0.929 . S
H842 C874 0.928 . S
O843 Co827 2.057 . S
O843 C831 1.232 . S
H844 C863 0.929 . S
H845 C864 0.929 . S
H846 C876 0.931 . S
H847 C868 0.929 . S
H848 C877 0.930 . S
H849 C869 0.931 . S
O850 Co826 2.097 . S
O850 C878 1.214 . S
H851 C879 0.929 . S
H852 C880 0.929 . S
H853 C881 0.930 . S
H854 C882 0.929 . S
H855 C884 0.930 . S
H856 C861 0.930 . S
H857 C865 0.930 . S
O858 Co827 2.037 . S
O858 C878 1.234 . S
C859 O833 1.269 . S
C859 O834 1.257 . S
C860 H835 0.930 . S
C860 C863 1.388 . S
C860 C865 1.418 . S
C861 H856 0.930 . S
C861 C864 1.404 . S
C861 C865 1.353 . S
N862 Co827 2.145 . S
N862 C863 1.397 . S
N862 C864 1.334 . S
C863 H844 0.929 . S
C863 C860 1.388 . S
C863 N862 1.397 . S
C864 H845 0.929 . S
C864 C861 1.404 . S
C864 N862 1.334 . S
C865 H857 0.930 . S
C865 C860 1.418 . S
C865 C861 1.353 . S
C866 H836 0.930 . S
C866 N867 1.330 . S
C866 C868 1.446 . S
N867 Co826 2.151 . S
N867 C866 1.330 . S
N867 C871 1.418 . S
C868 H847 0.929 . S
C868 C866 1.446 . S
C868 C869 1.332 . S
C869 H849 0.931 . S
C869 C868 1.332 . S
C869 C870 1.267 . S
C870 H838 0.929 1_455 S
C870 C869 1.267 . S
C870 C871 1.251 . S
C871 H841 0.929 . S
C871 N867 1.418 . S
C871 C870 1.251 . S
C872 H839 0.930 . S
C872 C874 1.406 1_655 S
C872 C877 1.261 . S
C873 H840 0.930 . S
C873 N875 1.325 . S
C873 C876 1.357 1_455 S
C874 H842 0.928 . S
C874 C872 1.406 1_455 S
C874 N875 1.261 . S
N875 Co826 2.214 . S
N875 C873 1.325 . S
N875 C874 1.261 . S
C876 H846 0.931 . S
C876 C873 1.357 1_655 S
C876 C877 1.312 . S
C877 H848 0.930 . S
C877 C872 1.261 . S
C877 C876 1.312 . S
C878 O850 1.214 . S
C878 O858 1.234 . S
C879 H851 0.929 . S
C879 C882 1.391 . S
C879 C884 1.391 . S
C880 H852 0.929 . S
C880 C881 1.390 . S
C880 N883 1.391 . S
C881 H853 0.930 . S
C881 C880 1.390 . S
C881 C882 1.392 . S
C882 H854 0.929 . S
C882 C879 1.391 . S
C882 C881 1.392 . S
N883 Co827 2.257 . S
N883 C880 1.391 . S
N883 C884 1.388 . S
C884 H855 0.930 . S
C884 C879 1.391 . S
C884 N883 1.388 . S
Co885 O887 2.143 . S
Co885 O893 2.074 . S
Co885 O896 2.093 . S
Co885 O909 2.097 . S
Co885 N926 2.151 . S
Co885 N934 2.214 . S
Co886 O887 2.160 . S
Co886 O892 2.058 . S
Co886 O902 2.057 . S
Co886 O917 2.037 . S
Co886 N921 2.145 . S
Co886 N942 2.257 . S
O887 Co885 2.143 . S
O887 Co886 2.160 . S
C888 O889 1.278 . S
C888 O896 1.224 . S
O889 C888 1.278 . S
C890 O891 1.245 . S
C890 O902 1.232 . S
O891 C890 1.245 . S
O892 Co886 2.058 . S
O892 C918 1.269 . S
O893 Co885 2.074 . S
O893 C918 1.257 . S
H894 C919 0.930 . S
H895 C925 0.930 . S
O896 Co885 2.093 . S
O896 C888 1.224 . S
H897 C929 0.929 1_565 S
H898 C931 0.930 . S
H899 C932 0.930 . S
H900 C930 0.929 . S
H901 C933 0.928 . S
O902 Co886 2.057 . S
O902 C890 1.232 . S
H903 C922 0.929 . S
H904 C923 0.929 . S
H905 C935 0.931 . S
H906 C927 0.929 . S
H907 C936 0.930 . S
H908 C928 0.931 . S
O909 Co885 2.097 . S
O909 C937 1.214 . S
H910 C938 0.929 . S
H911 C939 0.929 . S
H912 C940 0.930 . S
H913 C941 0.929 . S
H914 C943 0.930 . S
H915 C920 0.930 . S
H916 C924 0.930 . S
O917 Co886 2.037 . S
O917 C937 1.234 . S
C918 O892 1.269 . S
C918 O893 1.257 . S
C919 H894 0.930 . S
C919 C922 1.388 . S
C919 C924 1.418 . S
C920 H915 0.930 . S
C920 C923 1.404 . S
C920 C924 1.353 . S
N921 Co886 2.145 . S
N921 C922 1.397 . S
N921 C923 1.334 . S
C922 H903 0.929 . S
C922 C919 1.388 . S
C922 N921 1.397 . S
C923 H904 0.929 . S
C923 C920 1.404 . S
C923 N921 1.334 . S
C924 H916 0.930 . S
C924 C919 1.418 . S
C924 C920 1.353 . S
C925 H895 0.930 . S
C925 N926 1.330 . S
C925 C927 1.446 . S
N926 Co885 2.151 . S
N926 C925 1.330 . S
N926 C930 1.418 . S
C927 H906 0.929 . S
C927 C925 1.446 . S
C927 C928 1.332 . S
C928 H908 0.931 . S
C928 C927 1.332 . S
C928 C929 1.267 . S
C929 H897 0.929 1_545 S
C929 C928 1.267 . S
C929 C930 1.251 . S
C930 H900 0.929 . S
C930 N926 1.418 . S
C930 C929 1.251 . S
C931 H898 0.930 . S
C931 C933 1.406 1_565 S
C931 C936 1.261 . S
C932 H899 0.930 . S
C932 N934 1.325 . S
C932 C935 1.357 1_545 S
C933 H901 0.928 . S
C933 C931 1.406 1_545 S
C933 N934 1.261 . S
N934 Co885 2.214 . S
N934 C932 1.325 . S
N934 C933 1.261 . S
C935 H905 0.931 . S
C935 C932 1.357 1_565 S
C935 C936 1.312 . S
C936 H907 0.930 . S
C936 C931 1.261 . S
C936 C935 1.312 . S
C937 O909 1.214 . S
C937 O917 1.234 . S
C938 H910 0.929 . S
C938 C941 1.391 . S
C938 C943 1.391 . S
C939 H911 0.929 . S
C939 C940 1.390 . S
C939 N942 1.391 . S
C940 H912 0.930 . S
C940 C939 1.390 . S
C940 C941 1.392 . S
C941 H913 0.929 . S
C941 C938 1.391 . S
C941 C940 1.392 . S
N942 Co886 2.257 . S
N942 C939 1.391 . S
N942 C943 1.388 . S
C943 H914 0.930 . S
C943 C938 1.391 . S
C943 N942 1.388 . S
C944 C945 1.363 . S
C944 C950 1.379 . S
C944 N952 1.356 . S
C945 C944 1.363 . S
C945 C951 1.363 . S
C946 C947 1.363 . S
C946 C951 1.379 . S
C946 N953 1.356 . S
C947 C946 1.363 . S
C947 C950 1.363 . S
N948 C950 1.356 . S
N948 H960 0.984 . S
N948 H961 0.985 . S
N949 C951 1.356 . S
N949 H954 0.984 . S
N949 H955 0.985 . S
C950 C944 1.379 . S
C950 C947 1.363 . S
C950 N948 1.356 . S
C951 C945 1.363 . S
C951 C946 1.379 . S
C951 N949 1.356 . S
N952 C944 1.356 . S
N952 H958 0.984 . S
N952 H959 0.984 . S
N953 C946 1.356 . S
N953 H956 0.984 . S
N953 H957 0.985 . S
H954 N949 0.984 . S
H955 N949 0.985 . S
H956 N953 0.984 . S
H957 N953 0.985 . S
H958 N952 0.984 . S
H959 N952 0.984 . S
H960 N948 0.984 . S
H961 N948 0.985 . S
C962 C963 1.363 . S
C962 C968 1.379 . S
C962 N970 1.356 . S
C963 C962 1.363 . S
C963 C969 1.363 . S
C964 C965 1.363 . S
C964 C969 1.379 . S
C964 N971 1.356 . S
C965 C964 1.363 . S
C965 C968 1.363 . S
N966 C968 1.356 . S
N966 H978 0.984 . S
N966 H979 0.985 . S
N967 C969 1.356 . S
N967 H972 0.984 . S
N967 H973 0.985 . S
C968 C962 1.379 . S
C968 C965 1.363 . S
C968 N966 1.356 . S
C969 C963 1.363 . S
C969 C964 1.379 . S
C969 N967 1.356 . S
N970 C962 1.356 . S
N970 H976 0.984 . S
N970 H977 0.984 . S
N971 C964 1.356 . S
N971 H974 0.984 . S
N971 H975 0.985 . S
H972 N967 0.984 . S
H973 N967 0.985 . S
H974 N971 0.984 . S
H975 N971 0.985 . S
H976 N970 0.984 . S
H977 N970 0.984 . S
H978 N966 0.984 . S
H979 N966 0.985 . S
C980 C981 1.363 . S
C980 C986 1.379 . S
C980 N988 1.356 . S
C981 C980 1.363 . S
C981 C987 1.363 . S
C982 C983 1.363 . S
C982 C987 1.379 . S
C982 N989 1.356 . S
C983 C982 1.363 . S
C983 C986 1.363 . S
N984 C986 1.356 . S
N984 H996 0.984 . S
N984 H997 0.985 . S
N985 C987 1.356 . S
N985 H990 0.984 . S
N985 H991 0.985 . S
C986 C980 1.379 . S
C986 C983 1.363 . S
C986 N984 1.356 . S
C987 C981 1.363 . S
C987 C982 1.379 . S
C987 N985 1.356 . S
N988 C980 1.356 . S
N988 H994 0.984 . S
N988 H995 0.984 . S
N989 C982 1.356 . S
N989 H992 0.984 . S
N989 H993 0.985 . S
H990 N985 0.984 . S
H991 N985 0.985 . S
H992 N989 0.984 . S
H993 N989 0.985 . S
H994 N988 0.984 . S
H995 N988 0.984 . S
H996 N984 0.984 . S
H997 N984 0.985 . S
C998 C999 1.363 . S
C998 C1004 1.379 . S
C998 N1006 1.356 . S
C999 C998 1.363 . S
C999 C1005 1.363 . S
C1000 C1001 1.363 . S
C1000 C1005 1.379 . S
C1000 N1007 1.356 . S
C1001 C1000 1.363 . S
C1001 C1004 1.363 . S
N1002 C1004 1.356 . S
N1002 H1014 0.984 . S
N1002 H1015 0.985 . S
N1003 C1005 1.356 . S
N1003 H1008 0.984 . S
N1003 H1009 0.985 . S
C1004 C998 1.379 . S
C1004 C1001 1.363 . S
C1004 N1002 1.356 . S
C1005 C999 1.363 . S
C1005 C1000 1.379 . S
C1005 N1003 1.356 . S
N1006 C998 1.356 . S
N1006 H1012 0.984 . S
N1006 H1013 0.984 . S
N1007 C1000 1.356 . S
N1007 H1010 0.984 . S
N1007 H1011 0.985 . S
H1008 N1003 0.984 . S
H1009 N1003 0.985 . S
H1010 N1007 0.984 . S
H1011 N1007 0.985 . S
H1012 N1006 0.984 . S
H1013 N1006 0.984 . S
H1014 N1002 0.984 . S
H1015 N1002 0.985 . S
C1016 C1017 1.363 . S
C1016 C1022 1.379 . S
C1016 N1024 1.356 . S
C1017 C1016 1.363 . S
C1017 C1023 1.363 . S
C1018 C1019 1.363 . S
C1018 C1023 1.379 . S
C1018 N1025 1.356 . S
C1019 C1018 1.363 . S
C1019 C1022 1.363 . S
N1020 C1022 1.356 . S
N1020 H1032 0.984 . S
N1020 H1033 0.985 . S
N1021 C1023 1.356 . S
N1021 H1026 0.984 . S
N1021 H1027 0.985 . S
C1022 C1016 1.379 . S
C1022 C1019 1.363 . S
C1022 N1020 1.356 . S
C1023 C1017 1.363 . S
C1023 C1018 1.379 . S
C1023 N1021 1.356 . S
N1024 C1016 1.356 . S
N1024 H1030 0.984 . S
N1024 H1031 0.984 . S
N1025 C1018 1.356 . S
N1025 H1028 0.984 . S
N1025 H1029 0.985 . S
H1026 N1021 0.984 . S
H1027 N1021 0.985 . S
H1028 N1025 0.984 . S
H1029 N1025 0.985 . S
H1030 N1024 0.984 . S
H1031 N1024 0.984 . S
H1032 N1020 0.984 . S
H1033 N1020 0.985 . S
C1034 C1035 1.363 . S
C1034 C1040 1.379 . S
C1034 N1042 1.356 . S
C1035 C1034 1.363 . S
C1035 C1041 1.363 . S
C1036 C1037 1.363 . S
C1036 C1041 1.379 . S
C1036 N1043 1.356 . S
C1037 C1036 1.363 . S
C1037 C1040 1.363 . S
N1038 C1040 1.356 . S
N1038 H1050 0.984 . S
N1038 H1051 0.985 . S
N1039 C1041 1.356 . S
N1039 H1044 0.984 . S
N1039 H1045 0.985 . S
C1040 C1034 1.379 . S
C1040 C1037 1.363 . S
C1040 N1038 1.356 . S
C1041 C1035 1.363 . S
C1041 C1036 1.379 . S
C1041 N1039 1.356 . S
N1042 C1034 1.356 . S
N1042 H1048 0.984 . S
N1042 H1049 0.984 . S
N1043 C1036 1.356 . S
N1043 H1046 0.984 . S
N1043 H1047 0.985 . S
H1044 N1039 0.984 . S
H1045 N1039 0.985 . S
H1046 N1043 0.984 . S
H1047 N1043 0.985 . S
H1048 N1042 0.984 . S
H1049 N1042 0.984 . S
H1050 N1038 0.984 . S
H1051 N1038 0.985 . S
C1052 C1053 1.363 . S
C1052 C1058 1.379 . S
C1052 N1060 1.356 . S
C1053 C1052 1.363 . S
C1053 C1059 1.363 . S
C1054 C1055 1.363 . S
C1054 C1059 1.379 . S
C1054 N1061 1.356 . S
C1055 C1054 1.363 . S
C1055 C1058 1.363 . S
N1056 C1058 1.356 . S
N1056 H1068 0.984 . S
N1056 H1069 0.985 . S
N1057 C1059 1.356 . S
N1057 H1062 0.984 . S
N1057 H1063 0.985 . S
C1058 C1052 1.379 . S
C1058 C1055 1.363 . S
C1058 N1056 1.356 . S
C1059 C1053 1.363 . S
C1059 C1054 1.379 . S
C1059 N1057 1.356 . S
N1060 C1052 1.356 . S
N1060 H1066 0.984 . S
N1060 H1067 0.984 . S
N1061 C1054 1.356 . S
N1061 H1064 0.984 . S
N1061 H1065 0.985 . S
H1062 N1057 0.984 . S
H1063 N1057 0.985 . S
H1064 N1061 0.984 . S
H1065 N1061 0.985 . S
H1066 N1060 0.984 . S
H1067 N1060 0.984 . S
H1068 N1056 0.984 . S
H1069 N1056 0.985 . S
C1070 C1071 1.363 . S
C1070 C1076 1.379 . S
C1070 N1078 1.356 . S
C1071 C1070 1.363 . S
C1071 C1077 1.363 . S
C1072 C1073 1.363 . S
C1072 C1077 1.379 . S
C1072 N1079 1.356 . S
C1073 C1072 1.363 . S
C1073 C1076 1.363 . S
N1074 C1076 1.356 . S
N1074 H1086 0.984 . S
N1074 H1087 0.985 . S
N1075 C1077 1.356 . S
N1075 H1080 0.984 . S
N1075 H1081 0.985 . S
C1076 C1070 1.379 . S
C1076 C1073 1.363 . S
C1076 N1074 1.356 . S
C1077 C1071 1.363 . S
C1077 C1072 1.379 . S
C1077 N1075 1.356 . S
N1078 C1070 1.356 . S
N1078 H1084 0.984 . S
N1078 H1085 0.984 . S
N1079 C1072 1.356 . S
N1079 H1082 0.984 . S
N1079 H1083 0.985 . S
H1080 N1075 0.984 . S
H1081 N1075 0.985 . S
H1082 N1079 0.984 . S
H1083 N1079 0.985 . S
H1084 N1078 0.984 . S
H1085 N1078 0.984 . S
H1086 N1074 0.984 . S
H1087 N1074 0.985 . S
C1088 C1089 1.363 . S
C1088 C1094 1.379 1_556 S
C1088 N1096 1.356 . S
C1089 C1088 1.363 . S
C1089 C1095 1.363 . S
C1090 C1091 1.363 . S
C1090 C1095 1.379 1_554 S
C1090 N1097 1.356 . S
C1091 C1090 1.363 . S
C1091 C1094 1.363 . S
N1092 C1094 1.356 . S
N1092 H1104 0.984 . S
N1092 H1105 0.985 . S
N1093 C1095 1.356 . S
N1093 H1098 0.984 . S
N1093 H1099 0.985 . S
C1094 C1088 1.379 1_554 S
C1094 C1091 1.363 . S
C1094 N1092 1.356 . S
C1095 C1089 1.363 . S
C1095 C1090 1.379 1_556 S
C1095 N1093 1.356 . S
N1096 C1088 1.356 . S
N1096 H1102 0.984 . S
N1096 H1103 0.984 . S
N1097 C1090 1.356 . S
N1097 H1100 0.984 . S
N1097 H1101 0.985 . S
H1098 N1093 0.984 . S
H1099 N1093 0.985 . S
H1100 N1097 0.984 . S
H1101 N1097 0.985 . S
H1102 N1096 0.984 . S
H1103 N1096 0.984 . S
H1104 N1092 0.984 . S
H1105 N1092 0.985 . S
C1106 C1107 1.363 . S
C1106 C1112 1.379 1_556 S
C1106 N1114 1.356 . S
C1107 C1106 1.363 . S
C1107 C1113 1.363 . S
C1108 C1109 1.363 . S
C1108 C1113 1.379 1_554 S
C1108 N1115 1.356 . S
C1109 C1108 1.363 . S
C1109 C1112 1.363 . S
N1110 C1112 1.356 . S
N1110 H1122 0.984 . S
N1110 H1123 0.985 . S
N1111 C1113 1.356 . S
N1111 H1116 0.984 . S
N1111 H1117 0.985 . S
C1112 C1106 1.379 1_554 S
C1112 C1109 1.363 . S
C1112 N1110 1.356 . S
C1113 C1107 1.363 . S
C1113 C1108 1.379 1_556 S
C1113 N1111 1.356 . S
N1114 C1106 1.356 . S
N1114 H1120 0.984 . S
N1114 H1121 0.984 . S
N1115 C1108 1.356 . S
N1115 H1118 0.984 . S
N1115 H1119 0.985 . S
H1116 N1111 0.984 . S
H1117 N1111 0.985 . S
H1118 N1115 0.984 . S
H1119 N1115 0.985 . S
H1120 N1114 0.984 . S
H1121 N1114 0.984 . S
H1122 N1110 0.984 . S
H1123 N1110 0.985 . S
C1124 C1125 1.363 . S
C1124 C1130 1.379 1_556 S
C1124 N1132 1.356 . S
C1125 C1124 1.363 . S
C1125 C1131 1.363 . S
C1126 C1127 1.363 . S
C1126 C1131 1.379 1_554 S
C1126 N1133 1.356 . S
C1127 C1126 1.363 . S
C1127 C1130 1.363 . S
N1128 C1130 1.356 . S
N1128 H1140 0.984 . S
N1128 H1141 0.985 . S
N1129 C1131 1.356 . S
N1129 H1134 0.984 . S
N1129 H1135 0.985 . S
C1130 C1124 1.379 1_554 S
C1130 C1127 1.363 . S
C1130 N1128 1.356 . S
C1131 C1125 1.363 . S
C1131 C1126 1.379 1_556 S
C1131 N1129 1.356 . S
N1132 C1124 1.356 . S
N1132 H1138 0.984 . S
N1132 H1139 0.984 . S
N1133 C1126 1.356 . S
N1133 H1136 0.984 . S
N1133 H1137 0.985 . S
H1134 N1129 0.984 . S
H1135 N1129 0.985 . S
H1136 N1133 0.984 . S
H1137 N1133 0.985 . S
H1138 N1132 0.984 . S
H1139 N1132 0.984 . S
H1140 N1128 0.984 . S
H1141 N1128 0.985 . S
C1142 C1143 1.363 . S
C1142 C1148 1.379 1_554 S
C1142 N1150 1.356 . S
C1143 C1142 1.363 . S
C1143 C1149 1.363 . S
C1144 C1145 1.363 . S
C1144 C1149 1.379 1_556 S
C1144 N1151 1.356 . S
C1145 C1144 1.363 . S
C1145 C1148 1.363 . S
N1146 C1148 1.356 . S
N1146 H1158 0.984 . S
N1146 H1159 0.985 . S
N1147 C1149 1.356 . S
N1147 H1152 0.984 . S
N1147 H1153 0.985 . S
C1148 C1142 1.379 1_556 S
C1148 C1145 1.363 . S
C1148 N1146 1.356 . S
C1149 C1143 1.363 . S
C1149 C1144 1.379 1_554 S
C1149 N1147 1.356 . S
N1150 C1142 1.356 . S
N1150 H1156 0.984 . S
N1150 H1157 0.984 . S
N1151 C1144 1.356 . S
N1151 H1154 0.984 . S
N1151 H1155 0.985 . S
H1152 N1147 0.984 . S
H1153 N1147 0.985 . S
H1154 N1151 0.984 . S
H1155 N1151 0.985 . S
H1156 N1150 0.984 . S
H1157 N1150 0.984 . S
H1158 N1146 0.984 . S
H1159 N1146 0.985 . S
C1160 C1161 1.363 . S
C1160 C1166 1.379 . S
C1160 N1168 1.356 . S
C1161 C1160 1.363 . S
C1161 C1167 1.363 . S
C1162 C1163 1.363 . S
C1162 C1167 1.379 . S
C1162 N1169 1.356 . S
C1163 C1162 1.363 . S
C1163 C1166 1.363 . S
N1164 C1166 1.356 . S
N1164 H1176 0.984 . S
N1164 H1177 0.985 . S
N1165 C1167 1.356 . S
N1165 H1170 0.984 . S
N1165 H1171 0.985 . S
C1166 C1160 1.379 . S
C1166 C1163 1.363 . S
C1166 N1164 1.356 . S
C1167 C1161 1.363 . S
C1167 C1162 1.379 . S
C1167 N1165 1.356 . S
N1168 C1160 1.356 . S
N1168 H1174 0.984 . S
N1168 H1175 0.984 . S
N1169 C1162 1.356 . S
N1169 H1172 0.984 . S
N1169 H1173 0.985 . S
H1170 N1165 0.984 . S
H1171 N1165 0.985 . S
H1172 N1169 0.984 . S
H1173 N1169 0.985 . S
H1174 N1168 0.984 . S
H1175 N1168 0.984 . S
H1176 N1164 0.984 . S
H1177 N1164 0.985 . S
C1178 C1179 1.363 . S
C1178 C1184 1.379 . S
C1178 N1186 1.356 . S
C1179 C1178 1.363 . S
C1179 C1185 1.363 . S
C1180 C1181 1.363 . S
C1180 C1185 1.379 . S
C1180 N1187 1.356 . S
C1181 C1180 1.363 . S
C1181 C1184 1.363 . S
N1182 C1184 1.356 . S
N1182 H1194 0.984 . S
N1182 H1195 0.985 . S
N1183 C1185 1.356 . S
N1183 H1188 0.984 . S
N1183 H1189 0.985 . S
C1184 C1178 1.379 . S
C1184 C1181 1.363 . S
C1184 N1182 1.356 . S
C1185 C1179 1.363 . S
C1185 C1180 1.379 . S
C1185 N1183 1.356 . S
N1186 C1178 1.356 . S
N1186 H1192 0.984 . S
N1186 H1193 0.984 . S
N1187 C1180 1.356 . S
N1187 H1190 0.984 . S
N1187 H1191 0.985 . S
H1188 N1183 0.984 . S
H1189 N1183 0.985 . S
H1190 N1187 0.984 . S
H1191 N1187 0.985 . S
H1192 N1186 0.984 . S
H1193 N1186 0.984 . S
H1194 N1182 0.984 . S
H1195 N1182 0.985 . S
C1196 C1197 1.363 . S
C1196 C1202 1.379 . S
C1196 N1204 1.356 . S
C1197 C1196 1.363 . S
C1197 C1203 1.363 . S
C1198 C1199 1.363 . S
C1198 C1203 1.379 . S
C1198 N1205 1.356 . S
C1199 C1198 1.363 . S
C1199 C1202 1.363 . S
N1200 C1202 1.356 . S
N1200 H1212 0.984 . S
N1200 H1213 0.985 . S
N1201 C1203 1.356 . S
N1201 H1206 0.984 . S
N1201 H1207 0.985 . S
C1202 C1196 1.379 . S
C1202 C1199 1.363 . S
C1202 N1200 1.356 . S
C1203 C1197 1.363 . S
C1203 C1198 1.379 . S
C1203 N1201 1.356 . S
N1204 C1196 1.356 . S
N1204 H1210 0.984 . S
N1204 H1211 0.984 . S
N1205 C1198 1.356 . S
N1205 H1208 0.984 . S
N1205 H1209 0.985 . S
H1206 N1201 0.984 . S
H1207 N1201 0.985 . S
H1208 N1205 0.984 . S
H1209 N1205 0.985 . S
H1210 N1204 0.984 . S
H1211 N1204 0.984 . S
H1212 N1200 0.984 . S
H1213 N1200 0.985 . S
C1214 C1215 1.363 . S
C1214 C1220 1.379 . S
C1214 N1222 1.356 . S
C1215 C1214 1.363 . S
C1215 C1221 1.363 . S
C1216 C1217 1.363 . S
C1216 C1221 1.379 . S
C1216 N1223 1.356 . S
C1217 C1216 1.363 . S
C1217 C1220 1.363 . S
N1218 C1220 1.356 . S
N1218 H1230 0.984 . S
N1218 H1231 0.985 . S
N1219 C1221 1.356 . S
N1219 H1224 0.984 . S
N1219 H1225 0.985 . S
C1220 C1214 1.379 . S
C1220 C1217 1.363 . S
C1220 N1218 1.356 . S
C1221 C1215 1.363 . S
C1221 C1216 1.379 . S
C1221 N1219 1.356 . S
N1222 C1214 1.356 . S
N1222 H1228 0.984 . S
N1222 H1229 0.984 . S
N1223 C1216 1.356 . S
N1223 H1226 0.984 . S
N1223 H1227 0.985 . S
H1224 N1219 0.984 . S
H1225 N1219 0.985 . S
H1226 N1223 0.984 . S
H1227 N1223 0.985 . S
H1228 N1222 0.984 . S
H1229 N1222 0.984 . S
H1230 N1218 0.984 . S
H1231 N1218 0.985 . S
C1232 C1233 1.363 . S
C1232 C1238 1.379 . S
C1232 N1240 1.356 . S
C1233 C1232 1.363 . S
C1233 C1239 1.363 . S
C1234 C1235 1.363 . S
C1234 C1239 1.379 . S
C1234 N1241 1.356 . S
C1235 C1234 1.363 . S
C1235 C1238 1.363 . S
N1236 C1238 1.356 . S
N1236 H1248 0.984 . S
N1236 H1249 0.985 . S
N1237 C1239 1.356 . S
N1237 H1242 0.984 . S
N1237 H1243 0.985 . S
C1238 C1232 1.379 . S
C1238 C1235 1.363 . S
C1238 N1236 1.356 . S
C1239 C1233 1.363 . S
C1239 C1234 1.379 . S
C1239 N1237 1.356 . S
N1240 C1232 1.356 . S
N1240 H1246 0.984 . S
N1240 H1247 0.984 . S
N1241 C1234 1.356 . S
N1241 H1244 0.984 . S
N1241 H1245 0.985 . S
H1242 N1237 0.984 . S
H1243 N1237 0.985 . S
H1244 N1241 0.984 . S
H1245 N1241 0.985 . S
H1246 N1240 0.984 . S
H1247 N1240 0.984 . S
H1248 N1236 0.984 . S
H1249 N1236 0.985 . S
C1250 C1251 1.363 . S
C1250 C1256 1.379 . S
C1250 N1258 1.356 . S
C1251 C1250 1.363 . S
C1251 C1257 1.363 . S
C1252 C1253 1.363 . S
C1252 C1257 1.379 . S
C1252 N1259 1.356 . S
C1253 C1252 1.363 . S
C1253 C1256 1.363 . S
N1254 C1256 1.356 . S
N1254 H1266 0.984 . S
N1254 H1267 0.985 . S
N1255 C1257 1.356 . S
N1255 H1260 0.984 . S
N1255 H1261 0.985 . S
C1256 C1250 1.379 . S
C1256 C1253 1.363 . S
C1256 N1254 1.356 . S
C1257 C1251 1.363 . S
C1257 C1252 1.379 . S
C1257 N1255 1.356 . S
N1258 C1250 1.356 . S
N1258 H1264 0.984 . S
N1258 H1265 0.984 . S
N1259 C1252 1.356 . S
N1259 H1262 0.984 . S
N1259 H1263 0.985 . S
H1260 N1255 0.984 . S
H1261 N1255 0.985 . S
H1262 N1259 0.984 . S
H1263 N1259 0.985 . S
H1264 N1258 0.984 . S
H1265 N1258 0.984 . S
H1266 N1254 0.984 . S
H1267 N1254 0.985 . S
C1268 C1269 1.363 . S
C1268 C1274 1.379 . S
C1268 N1276 1.356 . S
C1269 C1268 1.363 . S
C1269 C1275 1.363 . S
C1270 C1271 1.363 . S
C1270 C1275 1.379 . S
C1270 N1277 1.356 . S
C1271 C1270 1.363 . S
C1271 C1274 1.363 . S
N1272 C1274 1.356 . S
N1272 H1284 0.984 . S
N1272 H1285 0.985 . S
N1273 C1275 1.356 . S
N1273 H1278 0.984 . S
N1273 H1279 0.985 . S
C1274 C1268 1.379 . S
C1274 C1271 1.363 . S
C1274 N1272 1.356 . S
C1275 C1269 1.363 . S
C1275 C1270 1.379 . S
C1275 N1273 1.356 . S
N1276 C1268 1.356 . S
N1276 H1282 0.984 . S
N1276 H1283 0.984 . S
N1277 C1270 1.356 . S
N1277 H1280 0.984 . S
N1277 H1281 0.985 . S
H1278 N1273 0.984 . S
H1279 N1273 0.985 . S
H1280 N1277 0.984 . S
H1281 N1277 0.985 . S
H1282 N1276 0.984 . S
H1283 N1276 0.984 . S
H1284 N1272 0.984 . S
H1285 N1272 0.985 . S
C1286 C1287 1.363 . S
C1286 C1292 1.379 . S
C1286 N1294 1.356 . S
C1287 C1286 1.363 . S
C1287 C1293 1.363 . S
C1288 C1289 1.363 . S
C1288 C1293 1.379 . S
C1288 N1295 1.356 . S
C1289 C1288 1.363 . S
C1289 C1292 1.363 . S
N1290 C1292 1.356 . S
N1290 H1302 0.984 . S
N1290 H1303 0.985 . S
N1291 C1293 1.356 . S
N1291 H1296 0.984 . S
N1291 H1297 0.985 . S
C1292 C1286 1.379 . S
C1292 C1289 1.363 . S
C1292 N1290 1.356 . S
C1293 C1287 1.363 . S
C1293 C1288 1.379 . S
C1293 N1291 1.356 . S
N1294 C1286 1.356 . S
N1294 H1300 0.984 . S
N1294 H1301 0.984 . S
N1295 C1288 1.356 . S
N1295 H1298 0.984 . S
N1295 H1299 0.985 . S
H1296 N1291 0.984 . S
H1297 N1291 0.985 . S
H1298 N1295 0.984 . S
H1299 N1295 0.985 . S
H1300 N1294 0.984 . S
H1301 N1294 0.984 . S
H1302 N1290 0.984 . S
H1303 N1290 0.985 . S
C1304 C1305 1.363 . S
C1304 C1310 1.379 . S
C1304 N1312 1.356 . S
C1305 C1304 1.363 . S
C1305 C1311 1.363 . S
C1306 C1307 1.363 . S
C1306 C1311 1.379 . S
C1306 N1313 1.356 . S
C1307 C1306 1.363 . S
C1307 C1310 1.363 . S
N1308 C1310 1.356 . S
N1308 H1320 0.984 . S
N1308 H1321 0.985 . S
N1309 C1311 1.356 . S
N1309 H1314 0.984 . S
N1309 H1315 0.985 . S
C1310 C1304 1.379 . S
C1310 C1307 1.363 . S
C1310 N1308 1.356 . S
C1311 C1305 1.363 . S
C1311 C1306 1.379 . S
C1311 N1309 1.356 . S
N1312 C1304 1.356 . S
N1312 H1318 0.984 . S
N1312 H1319 0.984 . S
N1313 C1306 1.356 . S
N1313 H1316 0.984 . S
N1313 H1317 0.985 . S
H1314 N1309 0.984 . S
H1315 N1309 0.985 . S
H1316 N1313 0.984 . S
H1317 N1313 0.985 . S
H1318 N1312 0.984 . S
H1319 N1312 0.984 . S
H1320 N1308 0.984 . S
H1321 N1308 0.985 . S
C1322 C1323 1.363 . S
C1322 C1328 1.379 . S
C1322 N1330 1.356 . S
C1323 C1322 1.363 . S
C1323 C1329 1.363 . S
C1324 C1325 1.363 . S
C1324 C1329 1.379 . S
C1324 N1331 1.356 . S
C1325 C1324 1.363 . S
C1325 C1328 1.363 . S
N1326 C1328 1.356 . S
N1326 H1338 0.984 . S
N1326 H1339 0.985 . S
N1327 C1329 1.356 . S
N1327 H1332 0.984 . S
N1327 H1333 0.985 . S
C1328 C1322 1.379 . S
C1328 C1325 1.363 . S
C1328 N1326 1.356 . S
C1329 C1323 1.363 . S
C1329 C1324 1.379 . S
C1329 N1327 1.356 . S
N1330 C1322 1.356 . S
N1330 H1336 0.984 . S
N1330 H1337 0.984 . S
N1331 C1324 1.356 . S
N1331 H1334 0.984 . S
N1331 H1335 0.985 . S
H1332 N1327 0.984 . S
H1333 N1327 0.985 . S
H1334 N1331 0.984 . S
H1335 N1331 0.985 . S
H1336 N1330 0.984 . S
H1337 N1330 0.984 . S
H1338 N1326 0.984 . S
H1339 N1326 0.985 . S
C1340 C1341 1.363 . S
C1340 C1346 1.379 . S
C1340 N1348 1.356 . S
C1341 C1340 1.363 . S
C1341 C1347 1.363 . S
C1342 C1343 1.363 . S
C1342 C1347 1.379 . S
C1342 N1349 1.356 . S
C1343 C1342 1.363 . S
C1343 C1346 1.363 . S
N1344 C1346 1.356 . S
N1344 H1356 0.984 . S
N1344 H1357 0.985 . S
N1345 C1347 1.356 . S
N1345 H1350 0.984 . S
N1345 H1351 0.985 . S
C1346 C1340 1.379 . S
C1346 C1343 1.363 . S
C1346 N1344 1.356 . S
C1347 C1341 1.363 . S
C1347 C1342 1.379 . S
C1347 N1345 1.356 . S
N1348 C1340 1.356 . S
N1348 H1354 0.984 . S
N1348 H1355 0.984 . S
N1349 C1342 1.356 . S
N1349 H1352 0.984 . S
N1349 H1353 0.985 . S
H1350 N1345 0.984 . S
H1351 N1345 0.985 . S
H1352 N1349 0.984 . S
H1353 N1349 0.985 . S
H1354 N1348 0.984 . S
H1355 N1348 0.984 . S
H1356 N1344 0.984 . S
H1357 N1344 0.985 . S
C1358 C1359 1.363 . S
C1358 C1364 1.379 . S
C1358 N1366 1.356 . S
C1359 C1358 1.363 . S
C1359 C1365 1.363 . S
C1360 C1361 1.363 . S
C1360 C1365 1.379 . S
C1360 N1367 1.356 . S
C1361 C1360 1.363 . S
C1361 C1364 1.363 . S
N1362 C1364 1.356 . S
N1362 H1374 0.984 . S
N1362 H1375 0.985 . S
N1363 C1365 1.356 . S
N1363 H1368 0.984 . S
N1363 H1369 0.985 . S
C1364 C1358 1.379 . S
C1364 C1361 1.363 . S
C1364 N1362 1.356 . S
C1365 C1359 1.363 . S
C1365 C1360 1.379 . S
C1365 N1363 1.356 . S
N1366 C1358 1.356 . S
N1366 H1372 0.984 . S
N1366 H1373 0.984 . S
N1367 C1360 1.356 . S
N1367 H1370 0.984 . S
N1367 H1371 0.985 . S
H1368 N1363 0.984 . S
H1369 N1363 0.985 . S
H1370 N1367 0.984 . S
H1371 N1367 0.985 . S
H1372 N1366 0.984 . S
H1373 N1366 0.984 . S
H1374 N1362 0.984 . S
H1375 N1362 0.985 . S
C1376 C1377 1.363 . S
C1376 C1382 1.379 1_545 S
C1376 N1384 1.356 . S
C1377 C1376 1.363 . S
C1377 C1383 1.363 . S
C1378 C1379 1.363 . S
C1378 C1383 1.379 1_565 S
C1378 N1385 1.356 . S
C1379 C1378 1.363 . S
C1379 C1382 1.363 . S
N1380 C1382 1.356 . S
N1380 H1392 0.984 . S
N1380 H1393 0.985 . S
N1381 C1383 1.356 . S
N1381 H1386 0.984 . S
N1381 H1387 0.985 . S
C1382 C1376 1.379 1_565 S
C1382 C1379 1.363 . S
C1382 N1380 1.356 . S
C1383 C1377 1.363 . S
C1383 C1378 1.379 1_545 S
C1383 N1381 1.356 . S
N1384 C1376 1.356 . S
N1384 H1390 0.984 . S
N1384 H1391 0.984 . S
N1385 C1378 1.356 . S
N1385 H1388 0.984 . S
N1385 H1389 0.985 . S
H1386 N1381 0.984 . S
H1387 N1381 0.985 . S
H1388 N1385 0.984 . S
H1389 N1385 0.985 . S
H1390 N1384 0.984 . S
H1391 N1384 0.984 . S
H1392 N1380 0.984 . S
H1393 N1380 0.985 . S
C1394 C1395 1.363 . S
C1394 C1400 1.379 1_655 S
C1394 N1402 1.356 . S
C1395 C1394 1.363 . S
C1395 C1401 1.363 . S
C1396 C1397 1.363 . S
C1396 C1401 1.379 1_455 S
C1396 N1403 1.356 . S
C1397 C1396 1.363 . S
C1397 C1400 1.363 . S
N1398 C1400 1.356 . S
N1398 H1410 0.984 . S
N1398 H1411 0.985 . S
N1399 C1401 1.356 . S
N1399 H1404 0.984 . S
N1399 H1405 0.985 . S
C1400 C1394 1.379 1_455 S
C1400 C1397 1.363 . S
C1400 N1398 1.356 . S
C1401 C1395 1.363 . S
C1401 C1396 1.379 1_655 S
C1401 N1399 1.356 . S
N1402 C1394 1.356 . S
N1402 H1408 0.984 . S
N1402 H1409 0.984 . S
N1403 C1396 1.356 . S
N1403 H1406 0.984 . S
N1403 H1407 0.985 . S
H1404 N1399 0.984 . S
H1405 N1399 0.985 . S
H1406 N1403 0.984 . S
H1407 N1403 0.985 . S
H1408 N1402 0.984 . S
H1409 N1402 0.984 . S
H1410 N1398 0.984 . S
H1411 N1398 0.985 . S
C1412 C1413 1.363 . S
C1412 C1418 1.379 1_545 S
C1412 N1420 1.356 . S
C1413 C1412 1.363 . S
C1413 C1419 1.363 . S
C1414 C1415 1.363 . S
C1414 C1419 1.379 1_565 S
C1414 N1421 1.356 . S
C1415 C1414 1.363 . S
C1415 C1418 1.363 . S
N1416 C1418 1.356 . S
N1416 H1428 0.984 . S
N1416 H1429 0.985 . S
N1417 C1419 1.356 . S
N1417 H1422 0.984 . S
N1417 H1423 0.985 . S
C1418 C1412 1.379 1_565 S
C1418 C1415 1.363 . S
C1418 N1416 1.356 . S
C1419 C1413 1.363 . S
C1419 C1414 1.379 1_545 S
C1419 N1417 1.356 . S
N1420 C1412 1.356 . S
N1420 H1426 0.984 . S
N1420 H1427 0.984 . S
N1421 C1414 1.356 . S
N1421 H1424 0.984 . S
N1421 H1425 0.985 . S
H1422 N1417 0.984 . S
H1423 N1417 0.985 . S
H1424 N1421 0.984 . S
H1425 N1421 0.985 . S
H1426 N1420 0.984 . S
H1427 N1420 0.984 . S
H1428 N1416 0.984 . S
H1429 N1416 0.985 . S
C1430 C1431 1.363 . S
C1430 C1436 1.379 1_455 S
C1430 N1438 1.356 . S
C1431 C1430 1.363 . S
C1431 C1437 1.363 . S
C1432 C1433 1.363 . S
C1432 C1437 1.379 1_655 S
C1432 N1439 1.356 . S
C1433 C1432 1.363 . S
C1433 C1436 1.363 . S
N1434 C1436 1.356 . S
N1434 H1446 0.984 . S
N1434 H1447 0.985 . S
N1435 C1437 1.356 . S
N1435 H1440 0.984 . S
N1435 H1441 0.985 . S
C1436 C1430 1.379 1_655 S
C1436 C1433 1.363 . S
C1436 N1434 1.356 . S
C1437 C1431 1.363 . S
C1437 C1432 1.379 1_455 S
C1437 N1435 1.356 . S
N1438 C1430 1.356 . S
N1438 H1444 0.984 . S
N1438 H1445 0.984 . S
N1439 C1432 1.356 . S
N1439 H1442 0.984 . S
N1439 H1443 0.985 . S
H1440 N1435 0.984 . S
H1441 N1435 0.985 . S
H1442 N1439 0.984 . S
H1443 N1439 0.985 . S
H1444 N1438 0.984 . S
H1445 N1438 0.984 . S
H1446 N1434 0.984 . S
H1447 N1434 0.985 . S
C1448 C1449 1.363 . S
C1448 C1454 1.379 1_545 S
C1448 N1456 1.356 . S
C1449 C1448 1.363 . S
C1449 C1455 1.363 . S
C1450 C1451 1.363 . S
C1450 C1455 1.379 1_565 S
C1450 N1457 1.356 . S
C1451 C1450 1.363 . S
C1451 C1454 1.363 . S
N1452 C1454 1.356 . S
N1452 H1464 0.984 . S
N1452 H1465 0.985 . S
N1453 C1455 1.356 . S
N1453 H1458 0.984 . S
N1453 H1459 0.985 . S
C1454 C1448 1.379 1_565 S
C1454 C1451 1.363 . S
C1454 N1452 1.356 . S
C1455 C1449 1.363 . S
C1455 C1450 1.379 1_545 S
C1455 N1453 1.356 . S
N1456 C1448 1.356 . S
N1456 H1462 0.984 . S
N1456 H1463 0.984 . S
N1457 C1450 1.356 . S
N1457 H1460 0.984 . S
N1457 H1461 0.985 . S
H1458 N1453 0.984 . S
H1459 N1453 0.985 . S
H1460 N1457 0.984 . S
H1461 N1457 0.985 . S
H1462 N1456 0.984 . S
H1463 N1456 0.984 . S
H1464 N1452 0.984 . S
H1465 N1452 0.985 . S
C1466 C1467 1.363 . S
C1466 C1472 1.379 1_655 S
C1466 N1474 1.356 . S
C1467 C1466 1.363 . S
C1467 C1473 1.363 . S
C1468 C1469 1.363 . S
C1468 C1473 1.379 1_455 S
C1468 N1475 1.356 . S
C1469 C1468 1.363 . S
C1469 C1472 1.363 . S
N1470 C1472 1.356 . S
N1470 H1482 0.984 . S
N1470 H1483 0.985 . S
N1471 C1473 1.356 . S
N1471 H1476 0.984 . S
N1471 H1477 0.985 . S
C1472 C1466 1.379 1_455 S
C1472 C1469 1.363 . S
C1472 N1470 1.356 . S
C1473 C1467 1.363 . S
C1473 C1468 1.379 1_655 S
C1473 N1471 1.356 . S
N1474 C1466 1.356 . S
N1474 H1480 0.984 . S
N1474 H1481 0.984 . S
N1475 C1468 1.356 . S
N1475 H1478 0.984 . S
N1475 H1479 0.985 . S
H1476 N1471 0.984 . S
H1477 N1471 0.985 . S
H1478 N1475 0.984 . S
H1479 N1475 0.985 . S
H1480 N1474 0.984 . S
H1481 N1474 0.984 . S
H1482 N1470 0.984 . S
H1483 N1470 0.985 . S
C1484 C1485 1.363 . S
C1484 C1490 1.379 1_565 S
C1484 N1492 1.356 . S
C1485 C1484 1.363 . S
C1485 C1491 1.363 . S
C1486 C1487 1.363 . S
C1486 C1491 1.379 1_545 S
C1486 N1493 1.356 . S
C1487 C1486 1.363 . S
C1487 C1490 1.363 . S
N1488 C1490 1.356 . S
N1488 H1500 0.984 . S
N1488 H1501 0.985 . S
N1489 C1491 1.356 . S
N1489 H1494 0.984 . S
N1489 H1495 0.985 . S
C1490 C1484 1.379 1_545 S
C1490 C1487 1.363 . S
C1490 N1488 1.356 . S
C1491 C1485 1.363 . S
C1491 C1486 1.379 1_565 S
C1491 N1489 1.356 . S
N1492 C1484 1.356 . S
N1492 H1498 0.984 . S
N1492 H1499 0.984 . S
N1493 C1486 1.356 . S
N1493 H1496 0.984 . S
N1493 H1497 0.985 . S
H1494 N1489 0.984 . S
H1495 N1489 0.985 . S
H1496 N1493 0.984 . S
H1497 N1493 0.985 . S
H1498 N1492 0.984 . S
H1499 N1492 0.984 . S
H1500 N1488 0.984 . S
H1501 N1488 0.985 . S
C1502 C1503 1.363 . S
C1502 C1508 1.379 1_455 S
C1502 N1510 1.356 . S
C1503 C1502 1.363 . S
C1503 C1509 1.363 . S
C1504 C1505 1.363 . S
C1504 C1509 1.379 1_655 S
C1504 N1511 1.356 . S
C1505 C1504 1.363 . S
C1505 C1508 1.363 . S
N1506 C1508 1.356 . S
N1506 H1518 0.984 . S
N1506 H1519 0.985 . S
N1507 C1509 1.356 . S
N1507 H1512 0.984 . S
N1507 H1513 0.985 . S
C1508 C1502 1.379 1_655 S
C1508 C1505 1.363 . S
C1508 N1506 1.356 . S
C1509 C1503 1.363 . S
C1509 C1504 1.379 1_455 S
C1509 N1507 1.356 . S
N1510 C1502 1.356 . S
N1510 H1516 0.984 . S
N1510 H1517 0.984 . S
N1511 C1504 1.356 . S
N1511 H1514 0.984 . S
N1511 H1515 0.985 . S
H1512 N1507 0.984 . S
H1513 N1507 0.985 . S
H1514 N1511 0.984 . S
H1515 N1511 0.985 . S
H1516 N1510 0.984 . S
H1517 N1510 0.984 . S
H1518 N1506 0.984 . S
H1519 N1506 0.985 . S
C945 C300 1.641 . S
C947 C5 1.641 . S
C963 C359 1.641 . S
C965 C64 1.641 . S
C981 C123 1.641 . S
C983 C418 1.641 . S
C999 C182 1.641 . S
C1001 C241 1.641 . S
C1017 C772 1.641 . S
C1019 C477 1.641 . S
C1035 C831 1.641 . S
C1037 C536 1.641 . S
C1053 C595 1.641 . S
C1055 C890 1.641 . S
C1071 C654 1.641 . S
C1073 C713 1.641 . S
C1089 C593 1.564 . S
C1091 C3 1.564 . S
C1107 C652 1.564 . S
C1109 C62 1.564 . S
C1125 C475 1.564 . S
C1127 C121 1.564 . S
C1143 C180 1.564 . S
C1145 C534 1.564 . S
C1161 C829 1.564 . S
C1163 C239 1.564 . S
C1179 C888 1.564 . S
C1181 C298 1.564 . S
C1197 C357 1.564 . S
C1199 C711 1.564 . S
C1215 C770 1.564 . S
C1217 C416 1.564 . S
C1233 C269 0.954 . S
C1235 C33 0.954 . S
C1251 C92 0.954 . S
C1253 C328 0.954 . S
C1269 C151 0.954 . S
C1271 C387 0.954 . S
C1287 C446 0.954 . S
C1289 C210 0.954 . S
C1305 C524 2.113 . S
C1307 C760 2.113 . S
C1323 C819 2.113 . S
C1325 C583 2.113 . S
C1341 C642 2.113 . S
C1343 C878 2.113 . S
C1359 C937 2.113 . S
C1361 C701 2.113 . S
C1377 C682 0.954 . S
C1379 C800 0.954 . S
C1395 C505 0.954 . S
C1397 C859 0.954 . S
C1413 C918 0.954 . S
C1415 C564 0.954 . S
C1431 C623 0.954 . S
C1433 C741 0.954 . S
C1449 C347 2.113 . S
C1451 C229 2.113 . S
C1467 C406 2.113 . S
C1469 C52 2.113 . S
C1485 C465 2.113 . S
C1487 C111 2.113 . S
C1503 C288 2.113 . S
C1505 C170 2.113 . S
