# Generated by pormake.
# Topology unn, (4)-cn, num edge types: 1
# Building blocks:
#     Node 0, Type 0, BuildingBlock: QUQFOY_clean_sbu_1, # of connection points: 4
#     Node 1, Type 0, BuildingBlock: QUQFOY_clean_sbu_1, # of connection points: 4
#     Node 2, Type 0, BuildingBlock: QUQFOY_clean_sbu_1, # of connection points: 4
#     Node 3, Type 0, BuildingBlock: QUQFOY_clean_sbu_1, # of connection points: 4
#     Node 4, Type 0, BuildingBlock: QUQFOY_clean_sbu_1, # of connection points: 4
#     Node 5, Type 0, BuildingBlock: QUQFOY_clean_sbu_1, # of connection points: 4
#     Node 6, Type 0, BuildingBlock: QUQFOY_clean_sbu_1, # of connection points: 4
#     Node 7, Type 0, BuildingBlock: QUQFOY_clean_sbu_1, # of connection points: 4
#     Node 8, Type 0, BuildingBlock: QUQFOY_clean_sbu_1, # of connection points: 4
#     Node 9, Type 0, BuildingBlock: QUQFOY_clean_sbu_1, # of connection points: 4
#     Node 10, Type 0, BuildingBlock: QUQFOY_clean_sbu_1, # of connection points: 4
#     Node 11, Type 0, BuildingBlock: QUQFOY_clean_sbu_1, # of connection points: 4
#     Node 12, Type 0, BuildingBlock: QUQFOY_clean_sbu_1, # of connection points: 4
#     Node 13, Type 0, BuildingBlock: QUQFOY_clean_sbu_1, # of connection points: 4
#     Node 14, Type 0, BuildingBlock: QUQFOY_clean_sbu_1, # of connection points: 4
#     Node 15, Type 0, BuildingBlock: QUQFOY_clean_sbu_1, # of connection points: 4
#     Node 16, Type 0, BuildingBlock: QUQFOY_clean_sbu_1, # of connection points: 4
#     Node 17, Type 0, BuildingBlock: QUQFOY_clean_sbu_1, # of connection points: 4
#     Edge 18, Type (0, 0), BuildingBlock: EZIPEK_clean_linker_0, # of connection points: 2
#     Edge 19, Type (0, 0), BuildingBlock: EZIPEK_clean_linker_0, # of connection points: 2
#     Edge 20, Type (0, 0), BuildingBlock: EZIPEK_clean_linker_0, # of connection points: 2
#     Edge 21, Type (0, 0), BuildingBlock: EZIPEK_clean_linker_0, # of connection points: 2
#     Edge 22, Type (0, 0), BuildingBlock: EZIPEK_clean_linker_0, # of connection points: 2
#     Edge 23, Type (0, 0), BuildingBlock: EZIPEK_clean_linker_0, # of connection points: 2
#     Edge 24, Type (0, 0), BuildingBlock: EZIPEK_clean_linker_0, # of connection points: 2
#     Edge 25, Type (0, 0), BuildingBlock: EZIPEK_clean_linker_0, # of connection points: 2
#     Edge 26, Type (0, 0), BuildingBlock: EZIPEK_clean_linker_0, # of connection points: 2
#     Edge 27, Type (0, 0), BuildingBlock: EZIPEK_clean_linker_0, # of connection points: 2
#     Edge 28, Type (0, 0), BuildingBlock: EZIPEK_clean_linker_0, # of connection points: 2
#     Edge 29, Type (0, 0), BuildingBlock: EZIPEK_clean_linker_0, # of connection points: 2
#     Edge 30, Type (0, 0), BuildingBlock: EZIPEK_clean_linker_0, # of connection points: 2
#     Edge 31, Type (0, 0), BuildingBlock: EZIPEK_clean_linker_0, # of connection points: 2
#     Edge 32, Type (0, 0), BuildingBlock: EZIPEK_clean_linker_0, # of connection points: 2
#     Edge 33, Type (0, 0), BuildingBlock: EZIPEK_clean_linker_0, # of connection points: 2
#     Edge 34, Type (0, 0), BuildingBlock: EZIPEK_clean_linker_0, # of connection points: 2
#     Edge 35, Type (0, 0), BuildingBlock: EZIPEK_clean_linker_0, # of connection points: 2
#     Edge 36, Type (0, 0), BuildingBlock: EZIPEK_clean_linker_0, # of connection points: 2
#     Edge 37, Type (0, 0), BuildingBlock: EZIPEK_clean_linker_0, # of connection points: 2
#     Edge 38, Type (0, 0), BuildingBlock: EZIPEK_clean_linker_0, # of connection points: 2
#     Edge 39, Type (0, 0), BuildingBlock: EZIPEK_clean_linker_0, # of connection points: 2
#     Edge 40, Type (0, 0), BuildingBlock: EZIPEK_clean_linker_0, # of connection points: 2
#     Edge 41, Type (0, 0), BuildingBlock: EZIPEK_clean_linker_0, # of connection points: 2
#     Edge 42, Type (0, 0), BuildingBlock: EZIPEK_clean_linker_0, # of connection points: 2
#     Edge 43, Type (0, 0), BuildingBlock: EZIPEK_clean_linker_0, # of connection points: 2
#     Edge 44, Type (0, 0), BuildingBlock: EZIPEK_clean_linker_0, # of connection points: 2
#     Edge 45, Type (0, 0), BuildingBlock: EZIPEK_clean_linker_0, # of connection points: 2
#     Edge 46, Type (0, 0), BuildingBlock: EZIPEK_clean_linker_0, # of connection points: 2
#     Edge 47, Type (0, 0), BuildingBlock: EZIPEK_clean_linker_0, # of connection points: 2
#     Edge 48, Type (0, 0), BuildingBlock: EZIPEK_clean_linker_0, # of connection points: 2
#     Edge 49, Type (0, 0), BuildingBlock: EZIPEK_clean_linker_0, # of connection points: 2
#     Edge 50, Type (0, 0), BuildingBlock: EZIPEK_clean_linker_0, # of connection points: 2
#     Edge 51, Type (0, 0), BuildingBlock: EZIPEK_clean_linker_0, # of connection points: 2
#     Edge 52, Type (0, 0), BuildingBlock: EZIPEK_clean_linker_0, # of connection points: 2
#     Edge 53, Type (0, 0), BuildingBlock: EZIPEK_clean_linker_0, # of connection points: 2
# Relax obj value: 0.142
# Max RMSD: 0.250
# Mean RMSD: 0.196
data_MOF--net-unn--node1-QUQFOY_clean_sbu_1--edge1-EZIPEK_clean_linker_0
_symmetry_space_group_name_H-M    P1
_symmetry_Int_Tables_number       1
_symmetry_cell_setting            triclinic
loop_
_symmetry_equiv_pos_as_xyz
'x, y, z'
_cell_length_a     33.411172
_cell_length_b     34.415641
_cell_length_c     29.687294
_cell_angle_alpha  90.603951
_cell_angle_beta   87.660423
_cell_angle_gamma 121.69622
loop_
_atom_site_label
_atom_site_type_symbol
_atom_site_fract_x
_atom_site_fract_y
_atom_site_fract_z
_atom_type_partial_charge
O0 O 0.09504 0.73279 0.26439 0.0
Cd1 Cd 1.03728 0.67095 0.25011 0.0
Cd2 Cd 1.00055 0.71911 0.24253 0.0
O3 O 0.05074 0.75789 0.29197 0.0
O4 O 0.04407 0.62602 0.28557 0.0
O5 O 0.99398 0.64746 0.30409 0.0
C6 C 1.01431 0.62594 0.31495 0.0
C7 C 0.91829 0.68164 0.23811 0.0
C8 C 0.09028 0.76008 0.28993 0.0
C9 C 1.01903 0.68612 0.15891 0.0
O10 O 1.02639 0.72256 0.17762 0.0
O11 O 1.01628 0.65487 0.18382 0.0
O12 O 0.94469 0.72558 0.23354 0.0
O13 O 0.9376 0.66024 0.25253 0.0
O14 O 0.48379 0.28104 0.1997 0.0
Cd15 Cd 0.45312 0.31909 0.20584 0.0
Cd16 Cd 0.39733 0.26026 0.26143 0.0
O17 O 0.41214 0.22231 0.212 0.0
O18 O 0.45101 0.3447 0.14581 0.0
O19 O 0.38953 0.28377 0.17848 0.0
C20 C 0.40777 0.31114 0.14437 0.0
C21 C 0.33576 0.27137 0.28632 0.0
C22 C 0.45437 0.23861 0.19571 0.0
C23 C 0.46554 0.33968 0.30229 0.0
O24 O 0.44965 0.29714 0.30435 0.0
O25 O 0.46556 0.35754 0.26481 0.0
O26 O 0.33576 0.2353 0.29853 0.0
O27 O 0.36642 0.29728 0.25555 0.0
O28 O 0.8437 0.17929 0.23342 0.0
Cd29 Cd 0.79632 0.11057 0.23942 0.0
Cd30 Cd 0.8525 0.11355 0.29632 0.0
O31 O 0.90056 0.1687 0.25232 0.0
O32 O 0.76363 0.08608 0.18187 0.0
O33 O 0.82152 0.07802 0.20379 0.0
C34 C 0.79331 0.07344 0.17282 0.0
C35 C 0.83591 0.04171 0.32237 0.0
C36 C 0.88734 0.19389 0.23474 0.0
C37 C 0.76919 0.10444 0.3342 0.0
O38 O 0.81341 0.12949 0.33732 0.0
O39 O 0.75217 0.08597 0.2968 0.0
O40 O 0.87143 0.07919 0.33692 0.0
O41 O 0.81477 0.04487 0.28831 0.0
O42 O 0.10028 0.33095 0.76513 0.0
Cd43 Cd 0.05573 0.34919 0.74316 0.0
Cd44 Cd 0.99507 0.26349 0.74933 0.0
O45 O 1.04069 0.27414 0.8033 0.0
O46 O 0.0772 0.40948 0.77064 0.0
O47 O 1.01481 0.34363 0.79533 0.0
C48 C 0.04671 0.38577 0.80279 0.0
C49 C 0.91309 0.23103 0.74651 0.0
C50 C 0.08503 0.3033 0.7984 0.0
C51 C 1.03639 0.30506 0.65808 0.0
O52 O 1.02175 0.2702 0.68351 0.0
O53 O 0.04484 0.34257 0.67517 0.0
O54 O 0.93086 0.20559 0.74863 0.0
O55 O 0.94098 0.27434 0.75263 0.0
O56 O 0.85759 0.65243 0.72803 0.0
Cd57 Cd 0.81794 0.682 0.72879 0.0
Cd58 Cd 0.88203 0.74074 0.77682 0.0
O59 O 0.92155 0.72037 0.73514 0.0
O60 O 0.78339 0.671 0.67147 0.0
O61 O 0.84792 0.7367 0.68688 0.0
C62 C 0.81539 0.71224 0.65935 0.0
C63 C 0.87505 0.80524 0.7909 0.0
C64 C 0.90211 0.67822 0.72397 0.0
C65 C 0.79722 0.6769 0.82588 0.0
O66 O 0.84128 0.69382 0.82622 0.0
O67 O 0.77856 0.67487 0.78863 0.0
O68 O 0.90728 0.80121 0.80925 0.0
O69 O 0.85298 0.77723 0.75906 0.0
O70 O 0.32561 1.00883 0.76665 0.0
Cd71 Cd 0.38968 0.05719 0.7412 0.0
Cd72 Cd 0.35454 0.10667 0.74505 0.0
O73 O 0.31966 0.0621 0.80239 0.0
O74 O 0.43357 0.04124 0.76694 0.0
O75 O 0.42796 0.09942 0.78972 0.0
C76 C 0.44442 0.07337 0.79591 0.0
C77 C 0.40536 0.18633 0.73185 0.0
C78 C 0.30766 1.02016 0.79856 0.0
C79 C 0.35728 0.06809 0.65706 0.0
O80 O 0.33147 0.07572 0.68365 0.0
O81 O 0.392 0.0672 0.6721 0.0
O82 O 0.36046 0.16826 0.73882 0.0
O83 O 0.42203 0.16058 0.73902 0.0
O84 O 0.75588 0.11208 0.63016 0.0
Cd85 Cd 0.71033 0.04868 0.6074 0.0
Cd86 Cd 0.65547 0.07947 0.60232 0.0
O87 O 0.69718 0.11794 0.65788 0.0
O88 O 0.7326 1.01149 0.63417 0.0
O89 O 0.6659 1.00658 0.65552 0.0
C90 C 0.69693 0.99592 0.66247 0.0
C91 C 0.57427 0.0335 0.59064 0.0
C92 C 0.74076 0.13042 0.65739 0.0
C93 C 0.70202 0.07115 0.51785 0.0
O94 O 0.68838 0.09487 0.53883 0.0
O95 O 0.70695 0.04227 0.53922 0.0
O96 O 0.59496 0.07749 0.59222 0.0
O97 O 0.59788 1.01545 0.60264 0.0
O98 O 1.03672 0.64601 0.60469 0.0
Cd99 Cd 0.09835 0.65511 0.58057 0.0
Cd100 Cd 0.05552 0.56953 0.58063 0.0
O101 O 1.02204 0.58241 0.63764 0.0
O102 O 0.14855 0.70962 0.61298 0.0
O103 O 0.12588 0.63864 0.62989 0.0
C104 C 0.14966 0.68121 0.6405 0.0
C105 C 0.10405 0.539 0.56457 0.0
C106 C 1.01451 0.61531 0.63465 0.0
C107 C 0.06115 0.6122 0.49516 0.0
O108 O 1.03312 0.57912 0.52117 0.0
O109 O 0.09862 0.6461 0.51053 0.0
O110 O 0.05925 0.51248 0.57343 0.0
O111 O 0.12212 0.58222 0.57053 0.0
O112 O 0.44708 0.3355 0.59813 0.0
Cd113 Cd 0.43021 0.37985 0.57406 0.0
Cd114 Cd 0.51833 0.43917 0.57292 0.0
O115 O 0.50792 0.39436 0.62907 0.0
O116 O 0.4409 0.4231 0.62294 0.0
O117 O 0.37001 0.36563 0.60549 0.0
C118 C 0.39677 0.39643 0.63385 0.0
C119 C 0.54606 0.51834 0.56447 0.0
C120 C 0.47785 0.35109 0.62787 0.0
C121 C 0.47694 0.39798 0.48612 0.0
O122 O 0.5131 0.41208 0.50944 0.0
O123 O 0.43848 0.39017 0.50511 0.0
O124 O 0.57496 0.50453 0.56941 0.0
O125 O 0.50166 0.48816 0.56913 0.0
O126 O 0.76087 0.65563 0.12114 0.0
Cd127 Cd 0.71063 0.66525 0.09704 0.0
Cd128 Cd 0.66625 0.57978 0.08559 0.0
O129 O 0.70629 0.58561 0.14264 0.0
O130 O 0.71721 0.7192 0.12953 0.0
O131 O 0.65971 0.64815 0.14339 0.0
C132 C 0.68103 0.69052 0.15454 0.0
C133 C 0.58598 0.54737 0.07063 0.0
C134 C 0.74805 0.62066 0.14545 0.0
C135 C 0.71068 0.63564 0.00566 0.0
O136 O 0.70459 0.60031 0.02547 0.0
O137 O 0.70547 0.66471 0.02783 0.0
O138 O 0.6041 0.52218 0.07266 0.0
O139 O 0.6115 0.58932 0.08294 0.0
O140 O 0.52272 0.98544 0.03869 0.0
Cd141 Cd 0.4748 1.00558 0.04596 0.0
Cd142 Cd 0.53784 0.06997 0.08939 0.0
O143 O 0.58065 0.05732 0.04377 0.0
O144 O 0.43564 0.98874 0.99086 0.0
O145 O 0.49597 0.05839 0.00328 0.0
C146 C 0.46426 0.03022 0.97662 0.0
C147 C 0.51878 0.12671 0.10512 0.0
C148 C 0.56609 1.01589 0.03286 0.0
C149 C 0.46613 1.00469 0.14599 0.0
O150 O 0.5103 1.02309 0.14106 0.0
O151 O 0.4428 0.99963 0.11096 0.0
O152 O 0.55857 0.13241 0.11642 0.0
O153 O 0.49313 0.09253 0.07966 0.0
O154 O 1.03387 0.3548 0.10488 0.0
Cd155 Cd 0.09551 0.40947 0.08276 0.0
Cd156 Cd 0.05119 0.45127 0.08102 0.0
O157 O 1.0142 0.4017 0.13492 0.0
O158 O 0.14655 0.40943 0.11587 0.0
O159 O 0.12033 0.45514 0.13158 0.0
C160 C 0.14594 0.43918 0.14257 0.0
C161 C 0.0949 0.53176 0.07186 0.0
C162 C 1.00873 0.36184 0.13278 0.0
C163 C 0.06721 0.42002 0.99425 0.0
O164 O 1.0374 0.42481 0.01762 0.0
O165 O 0.10087 0.42041 0.01356 0.0
O166 O 0.04954 0.50946 0.07788 0.0
O167 O 0.11574 0.50946 0.07661 0.0
O168 O 0.43146 0.43801 0.94048 0.0
Cd169 Cd 0.37919 0.37725 0.91772 0.0
Cd170 Cd 0.33344 0.4179 0.91143 0.0
O171 O 0.37797 0.45214 0.96714 0.0
O172 O 0.38747 0.33061 0.94706 0.0
O173 O 0.3295 0.34165 0.96544 0.0
C174 C 0.35213 0.32174 0.97394 0.0
C175 C 0.25092 0.37609 0.90307 0.0
C176 C 0.41982 0.45948 0.96741 0.0
C177 C 0.37086 0.40068 0.82669 0.0
O178 O 0.36426 0.42978 0.84695 0.0
O179 O 0.37226 0.37034 0.84941 0.0
O180 O 0.27439 0.42022 0.90466 0.0
O181 O 0.27302 0.35572 0.912 0.0
O182 O 0.83514 0.95615 0.88572 0.0
Cd183 Cd 0.80548 0.9943 0.89459 0.0
Cd184 Cd 0.74192 0.93145 0.94512 0.0
O185 O 0.76423 0.89586 0.90011 0.0
O186 O 0.80805 1.02646 0.83712 0.0
O187 O 0.74589 0.9607 0.86118 0.0
C188 C 0.76605 0.99219 0.83076 0.0
C189 C 0.67947 0.94452 0.95948 0.0
C190 C 0.80673 0.91323 0.88392 0.0
C191 C 0.80336 1.00554 0.9953 0.0
O192 O 0.78534 0.96266 0.99601 0.0
O193 O 0.81086 1.02607 0.9574 0.0
O194 O 0.67552 0.90669 0.97228 0.0
O195 O 0.71532 0.97159 0.93372 0.0
O196 O 0.15355 0.82249 0.89078 0.0
Cd197 Cd 0.12463 0.75268 0.88899 0.0
Cd198 Cd 0.17732 0.77212 0.95531 0.0
O199 O 0.2192 0.83106 0.91356 0.0
O200 O 0.10629 0.73114 0.82568 0.0
O201 O 0.16698 0.73447 0.85732 0.0
C202 C 0.14241 0.72676 0.82217 0.0
C203 C 0.17934 0.71048 0.98433 0.0
C204 C 0.19782 0.8477 0.89411 0.0
C205 C 0.08114 0.73037 0.97967 0.0
O206 O 0.11965 0.76675 0.98808 0.0
O207 O 0.07572 0.7131 0.94055 0.0
O208 O 0.20492 0.75078 0.0012 0.0
O209 O 0.16075 0.70759 0.94606 0.0
O210 O 0.4289 0.99604 0.45074 0.0
Cd211 Cd 0.37833 1.00121 0.42031 0.0
Cd212 Cd 0.33915 0.9145 0.41001 0.0
O213 O 0.37689 0.9246 0.47013 0.0
O214 O 0.37749 0.05201 0.4519 0.0
O215 O 0.32176 0.97935 0.46095 0.0
C216 C 0.33996 1.0211 0.47383 0.0
C217 C 0.25933 0.86564 0.39312 0.0
C218 C 0.41649 0.96161 0.47576 0.0
C219 C 0.38587 0.97422 0.3293 0.0
O220 O 0.37801 0.93823 0.34938 0.0
O221 O 0.38115 1.00388 0.35075 0.0
O222 O 0.28652 0.84985 0.39804 0.0
O223 O 0.27557 0.90775 0.4036 0.0
O224 O 0.18016 0.3128 0.37727 0.0
Cd225 Cd 0.14154 0.34363 0.3822 0.0
Cd226 Cd 0.19844 0.38962 0.44235 0.0
O227 O 0.2422 0.37811 0.39593 0.0
O228 O 0.11811 0.34559 0.32166 0.0
O229 O 0.17708 0.40626 0.35362 0.0
C230 C 0.15136 0.38817 0.31924 0.0
C231 C 0.19267 0.4501 0.473 0.0
C232 C 0.22465 0.33886 0.37729 0.0
C233 C 0.1079 0.32201 0.4759 0.0
O234 O 0.15059 0.33414 0.47999 0.0
O235 O 0.09493 0.3274 0.43792 0.0
O236 O 0.22347 0.44152 0.4872 0.0
O237 O 0.17113 0.42969 0.437 0.0
O238 O 0.66612 0.68688 0.4489 0.0
Cd239 Cd 0.73049 0.73812 0.42581 0.0
Cd240 Cd 0.68687 0.78047 0.42289 0.0
O241 O 0.64498 0.73311 0.47701 0.0
O242 O 0.7715 0.7217 0.4568 0.0
O243 O 0.76843 0.78318 0.47285 0.0
C244 C 0.78029 0.75455 0.48416 0.0
C245 C 0.7358 0.86073 0.41017 0.0
C246 C 0.63942 0.69322 0.47533 0.0
C247 C 0.70175 0.74417 0.33766 0.0
O248 O 0.67261 0.7499 0.36101 0.0
O249 O 0.73632 0.74562 0.35614 0.0
O250 O 0.69034 0.84055 0.41176 0.0
O251 O 0.7532 0.83679 0.42221 0.0
C252 C 1.00731 0.71343 0.08546 0.0
C253 C 1.01548 0.68246 0.10842 0.0
C254 C 1.04131 0.6654 0.03617 0.0
C255 C 0.04684 0.70613 0.01787 0.0
N256 N 1.02913 0.76541 0.02205 0.0
N257 N 1.01967 0.61471 0.10139 0.0
C258 C 1.02723 0.7286 0.04137 0.0
C259 C 1.02564 0.65347 0.08238 0.0
N260 N 0.97871 0.72655 0.10528 0.0
N261 N 0.0517 0.63888 0.00962 0.0
H262 H 0.99988 0.60048 0.1312 0.0
H263 H 1.03073 0.59429 0.08651 0.0
H264 H 0.06262 0.64638 0.97585 0.0
H265 H 0.04779 0.60824 0.01978 0.0
H266 H 0.96858 0.74652 0.08902 0.0
H267 H 0.96035 0.71241 0.13592 0.0
H268 H 1.02076 0.78674 0.03964 0.0
H269 H 1.04087 0.77545 0.98864 0.0
C270 C 0.36987 0.27537 0.02483 0.0
C271 C 0.34562 0.29831 0.01823 0.0
C272 C 0.34908 0.31622 0.0984 0.0
C273 C 0.38094 0.30128 0.10301 0.0
N274 N 0.40684 0.25112 0.07738 0.0
N275 N 0.28975 0.3148 0.05264 0.0
C276 C 0.3865 0.27561 0.06828 0.0
C277 C 0.32771 0.31036 0.05639 0.0
N278 N 0.37686 0.25382 0.98927 0.0
N279 N 0.34081 0.33758 0.13333 0.0
H280 H 0.27073 0.30575 0.02335 0.0
H281 H 0.27344 0.32112 0.07992 0.0
H282 H 0.35498 0.34117 0.16489 0.0
H283 H 0.32211 0.35383 0.13024 0.0
H284 H 0.39819 0.24017 0.98961 0.0
H285 H 0.36017 0.24928 0.95897 0.0
H286 H 0.41087 0.23033 0.05436 0.0
H287 H 0.41651 0.24881 0.10971 0.0
C288 C 0.79279 0.07834 0.08791 0.0
C289 C 0.79763 0.05762 0.12688 0.0
C290 C 0.82088 1.01474 0.07739 0.0
C291 C 0.80701 1.02857 0.03913 0.0
N292 N 0.76702 0.06535 0.01186 0.0
N293 N 0.80625 0.99744 0.15713 0.0
C294 C 0.78959 0.05827 0.04522 0.0
C295 C 0.80907 1.02346 0.12128 0.0
N296 N 0.79304 0.11812 0.09074 0.0
N297 N 0.84586 0.99375 0.07194 0.0
H298 H 0.79393 0.99983 0.18924 0.0
H299 H 0.81054 0.96966 0.15366 0.0
H300 H 0.85709 0.98876 0.04028 0.0
H301 H 0.85997 0.98632 0.09884 0.0
H302 H 0.79373 0.13599 0.06226 0.0
H303 H 0.79866 0.13639 0.12039 0.0
H304 H 0.74969 0.08297 0.01735 0.0
H305 H 0.76034 0.04952 0.98075 0.0
C306 C 0.69691 0.04056 0.4393 0.0
C307 C 0.71356 0.07846 0.46874 0.0
C308 C 0.74837 0.13051 0.40382 0.0
C309 C 0.7398 0.09352 0.37612 0.0
N310 N 0.70814 1.01247 0.3679 0.0
N311 N 0.7637 0.16017 0.4791 0.0
C312 C 0.71388 0.04813 0.39361 0.0
C313 C 0.74108 0.12373 0.45104 0.0
N314 N 0.66463 0.99735 0.45457 0.0
N315 N 0.76448 0.17243 0.3848 0.0
H316 H 0.76325 0.15696 0.514 0.0
H317 H 0.78766 0.19326 0.46741 0.0
H318 H 0.76974 0.178 0.34997 0.0
H319 H 0.7676 0.1999 0.40299 0.0
H320 H 0.64719 0.96956 0.43329 0.0
H321 H 0.65187 0.98956 0.48786 0.0
H322 H 0.69531 0.97984 0.38096 0.0
H323 H 0.71919 1.01568 0.33416 0.0
C324 C 1.02708 0.63981 0.43952 0.0
C325 C 0.04626 0.61263 0.44883 0.0
C326 C 1.02837 0.58098 0.37247 0.0
C327 C 1.01191 0.61041 0.36261 0.0
N328 N 0.97203 0.64641 0.39493 0.0
N329 N 0.05237 0.54762 0.4291 0.0
C330 C 1.0041 0.63353 0.39852 0.0
C331 C 1.04293 0.58008 0.41679 0.0
N332 N 1.02982 0.67102 0.47009 0.0
N333 N 1.02917 0.55333 0.33956 0.0
H334 H 0.06274 0.54573 0.46119 0.0
H335 H 0.04663 0.52042 0.40887 0.0
H336 H 1.01185 0.54797 0.30955 0.0
H337 H 0.04675 0.53591 0.34185 0.0
H338 H 1.02066 0.69485 0.46282 0.0
H339 H 0.04432 0.6754 0.50155 0.0
H340 H 0.96294 0.66094 0.42126 0.0
H341 H 0.94879 0.63556 0.36874 0.0
C342 C 0.5001 0.3638 0.42231 0.0
C343 C 0.47923 0.38883 0.43726 0.0
C344 C 0.45412 0.38796 0.36048 0.0
C345 C 0.4775 0.36526 0.34527 0.0
N346 N 0.53481 0.34505 0.3592 0.0
N347 N 0.44815 0.43563 0.41757 0.0
C348 C 0.50474 0.35799 0.37544 0.0
C349 C 0.46001 0.40443 0.40539 0.0
N350 N 0.51222 0.34243 0.45259 0.0
N351 N 0.42376 0.39129 0.33362 0.0
H352 H 0.45262 0.44921 0.44981 0.0
H353 H 0.43855 0.45156 0.39443 0.0
H354 H 0.4176 0.37985 0.30063 0.0
H355 H 0.40144 0.40209 0.34553 0.0
H356 H 0.52327 0.32022 0.44293 0.0
H357 H 0.5061 0.34231 0.48729 0.0
H358 H 0.55855 0.34304 0.37928 0.0
H359 H 0.53952 0.34135 0.32478 0.0
C360 C 1.01316 0.38845 0.87874 0.0
C361 C 0.0534 0.40244 0.84997 0.0
C362 C 0.10302 0.43676 0.91495 0.0
C363 C 0.06256 0.41473 0.94453 0.0
N364 N 0.97864 0.35952 0.95293 0.0
N365 N 0.1371 0.4291 0.84529 0.0
C366 C 1.01731 0.388 0.92607 0.0
C367 C 0.09869 0.42412 0.869 0.0
N368 N 0.97087 0.37534 0.86096 0.0
N369 N 0.14558 0.47009 0.93005 0.0
H370 H 0.13616 0.41659 0.8131 0.0
H371 H 0.16912 0.44047 0.86019 0.0
H372 H 0.15042 0.48206 0.96295 0.0
H373 H 0.1748 0.48949 0.9083 0.0
H374 H 0.94126 0.36819 0.88084 0.0
H375 H 0.96707 0.37674 0.82639 0.0
H376 H 0.94587 0.33672 0.94 0.0
H377 H 0.98033 0.35423 0.98711 0.0
C378 C 0.77282 0.68772 0.94929 0.0
C379 C 0.73012 0.64603 0.95869 0.0
C380 C 0.72994 0.62297 0.87992 0.0
C381 C 0.77043 0.66661 0.86997 0.0
N382 N 0.82072 0.74471 0.89314 0.0
N383 N 0.66339 0.5766 0.93171 0.0
C384 C 0.78887 0.7002 0.90408 0.0
C385 C 0.70718 0.61434 0.9236 0.0
N386 N 0.79973 0.71451 0.98349 0.0
N387 N 0.71454 0.5892 0.84864 0.0
H388 H 0.64587 0.56906 0.96324 0.0
H389 H 0.64288 0.55488 0.90641 0.0
H390 H 0.73038 0.59422 0.81649 0.0
H391 H 0.68841 0.55536 0.8557 0.0
H392 H 0.83357 0.74288 0.97795 0.0
H393 H 0.79089 0.70578 0.01752 0.0
H394 H 0.83171 0.77133 0.91598 0.0
H395 H 0.83128 0.75532 0.86003 0.0
C396 C 0.47456 1.02413 0.89266 0.0
C397 C 0.46411 0.04469 0.92949 0.0
C398 C 0.4635 0.09896 0.8768 0.0
C399 C 0.46533 0.07327 0.83994 0.0
N400 N 0.49678 1.02829 0.81301 0.0
N401 N 0.44596 0.10025 0.95663 0.0
C402 C 0.47785 0.04053 0.84788 0.0
C403 C 0.4585 0.08216 0.92161 0.0
N404 N 0.48088 0.98862 0.90031 0.0
N405 N 0.47017 0.14106 0.86915 0.0
H406 H 0.44122 0.08849 0.98982 0.0
H407 H 0.4361 0.12403 0.95222 0.0
H408 H 0.48041 0.15677 0.8374 0.0
H409 H 0.4727 0.16303 0.8948 0.0
H410 H 0.48257 0.96846 0.87485 0.0
H411 H 0.48222 0.97759 0.93245 0.0
H412 H 0.51024 1.00729 0.81651 0.0
H413 H 0.50481 0.04427 0.78142 0.0
C414 C 0.35225 0.08994 0.5777 0.0
C415 C 0.34359 0.05573 0.60979 0.0
C416 C 0.30475 0.9975 0.55241 0.0
C417 C 0.32596 0.03203 0.51857 0.0
N418 N 0.35698 0.11052 0.49855 0.0
N419 N 0.30838 0.97587 0.62871 0.0
C420 C 0.34539 0.07825 0.5312 0.0
C421 C 0.31854 1.00909 0.59753 0.0
N422 N 0.36632 0.13304 0.59183 0.0
N423 N 0.27 0.95432 0.54181 0.0
H424 H 0.31608 0.98274 0.66263 0.0
H425 H 0.29503 0.94188 0.62018 0.0
H426 H 0.25525 0.94659 0.51021 0.0
H427 H 0.25125 0.92836 0.56576 0.0
H428 H 0.37074 0.15911 0.57082 0.0
H429 H 0.37028 0.14196 0.62572 0.0
H430 H 0.3764 0.14555 0.50392 0.0
H431 H 0.34641 0.10154 0.46549 0.0
C432 C 0.07201 0.28154 0.59485 0.0
C433 C 0.04695 0.3028 0.60918 0.0
C434 C 0.05375 0.33103 0.53191 0.0
C435 C 0.07687 0.30783 0.51751 0.0
N436 N 0.09232 0.24845 0.53245 0.0
N437 N 1.00174 0.3356 0.58796 0.0
C438 C 0.08021 0.27851 0.54811 0.0
C439 C 1.0337 0.32346 0.57657 0.0
N440 N 0.09173 0.26772 0.6254 0.0
N441 N 0.05396 0.36304 0.50487 0.0
H442 H 0.98563 0.32988 0.62002 0.0
H443 H 0.98761 0.34678 0.56434 0.0
H444 H 0.06839 0.37081 0.47215 0.0
H445 H 1.04316 0.38492 0.51651 0.0
H446 H 0.11393 0.25602 0.61587 0.0
H447 H 0.09101 0.273 0.65994 0.0
H448 H 0.09161 0.22366 0.55294 0.0
H449 H 0.09784 0.24517 0.49809 0.0
C450 C 0.77186 0.75656 0.56953 0.0
C451 C 0.79691 0.75459 0.53016 0.0
C452 C 0.84026 0.73194 0.57736 0.0
C453 C 0.81357 0.73185 0.6158 0.0
N454 N 0.76687 0.75871 0.65138 0.0
N455 N 0.86387 0.75364 0.49862 0.0
C456 C 0.78377 0.74922 0.61276 0.0
C457 C 0.83393 0.7463 0.53477 0.0
N458 N 0.73432 0.76187 0.56605 0.0
N459 N 0.87117 0.71773 0.58159 0.0
H460 H 0.86108 0.76592 0.46765 0.0
H461 H 0.89395 0.7519 0.50028 0.0
H462 H 0.87974 0.71129 0.61285 0.0
H463 H 0.88727 0.71114 0.55435 0.0
H464 H 0.71294 0.75987 0.5935 0.0
H465 H 0.72136 0.7646 0.53587 0.0
H466 H 0.74966 0.77664 0.65183 0.0
H467 H 0.77435 0.75286 0.68352 0.0
C468 C 0.34743 0.35726 0.75402 0.0
C469 C 0.37277 0.39971 0.7765 0.0
C470 C 0.39765 0.43884 0.7029 0.0
C471 C 0.38057 0.39639 0.68122 0.0
N472 N 0.34762 0.31458 0.68958 0.0
N473 N 0.42922 0.48113 0.77111 0.0
C474 C 0.35707 0.35525 0.70742 0.0
C475 C 0.3995 0.44075 0.75066 0.0
N476 N 0.31375 0.31866 0.77667 0.0
N477 N 0.41234 0.47741 0.67777 0.0
H478 H 0.43449 0.48387 0.80563 0.0
H479 H 0.45268 0.51099 0.75315 0.0
H480 H 0.41032 0.47676 0.64274 0.0
H481 H 0.4215 0.5087 0.69202 0.0
H482 H 0.29133 0.28826 0.7603 0.0
H483 H 0.30415 0.31809 0.81058 0.0
H484 H 0.33576 0.28536 0.70933 0.0
H485 H 0.35669 0.31056 0.65674 0.0
C486 C 0.73037 0.96085 0.70959 0.0
C487 C 0.69861 0.97608 0.70635 0.0
C488 C 0.70546 0.99475 0.78639 0.0
C489 C 0.74245 0.98615 0.78807 0.0
N490 N 0.78693 0.95558 0.7542 0.0
N491 N 0.63809 0.98236 0.74622 0.0
C492 C 0.75355 0.9669 0.75062 0.0
C493 C 0.68038 0.98518 0.74623 0.0
N494 N 0.73675 0.93945 0.67348 0.0
N495 N 0.69561 1.01383 0.82244 0.0
H496 H 0.61646 0.96981 0.71875 0.0
H497 H 0.62151 0.98585 0.77509 0.0
H498 H 0.71318 1.02112 0.85253 0.0
H499 H 0.67265 1.02564 0.82128 0.0
H500 H 0.75796 0.92566 0.67291 0.0
H501 H 0.71709 0.93224 0.64472 0.0
H502 H 0.79934 0.94437 0.72759 0.0
H503 H 0.8036 0.95855 0.78412 0.0
C504 C 0.14058 0.67036 0.76601 0.0
C505 C 0.15689 0.7161 0.77791 0.0
C506 C 0.18974 0.74154 0.70068 0.0
C507 C 0.16726 0.69511 0.68754 0.0
N508 N 0.14774 0.62047 0.71249 0.0
N509 N 0.21158 0.79584 0.76202 0.0
C510 C 0.1511 0.66096 0.72178 0.0
C511 C 0.18626 0.75206 0.74686 0.0
N512 N 0.11395 0.63578 0.79637 0.0
N513 N 0.21478 0.7752 0.66909 0.0
H514 H 0.21168 0.80358 0.79609 0.0
H515 H 0.2355 0.82385 0.74211 0.0
H516 H 0.22391 0.76828 0.63729 0.0
H517 H 0.22717 0.80957 0.67438 0.0
H518 H 0.09663 0.60141 0.78777 0.0
H519 H 0.10701 0.64167 0.82951 0.0
H520 H 0.13884 0.59535 0.73688 0.0
H521 H 0.16058 0.61506 0.68196 0.0
C522 C 0.66642 0.68404 0.27922 0.0
C523 C 0.69162 0.731 0.29005 0.0
C524 C 0.69289 0.75116 0.21071 0.0
C525 C 0.67132 0.70427 0.19974 0.0
N526 N 0.61414 0.62801 0.22661 0.0
N527 N 0.71496 0.80792 0.26938 0.0
C528 C 0.65072 0.67106 0.23489 0.0
C529 C 0.70055 0.76432 0.25677 0.0
N530 N 0.65723 0.65173 0.31113 0.0
N531 N 0.70516 0.78271 0.17711 0.0
H532 H 0.71943 0.81801 0.30292 0.0
H533 H 0.71886 0.83317 0.24744 0.0
H534 H 0.69331 0.77321 0.1445 0.0
H535 H 0.72657 0.81781 0.18142 0.0
H536 H 0.64336 0.61746 0.30341 0.0
H537 H 0.66665 0.6596 0.34457 0.0
H538 H 0.59599 0.60331 0.25183 0.0
H539 H 0.59722 0.61952 0.1961 0.0
C540 C 0.4697 1.02892 0.22757 0.0
C541 C 0.44431 0.99729 0.19277 0.0
C542 C 0.37669 0.95708 0.24646 0.0
C543 C 0.40511 0.98355 0.28213 0.0
N544 N 0.48187 0.04006 0.30751 0.0
N545 N 0.37521 0.92552 0.17299 0.0
C546 C 0.45261 1.01798 0.27297 0.0
C547 C 0.39807 0.95976 0.2032 0.0
N548 N 0.50827 0.07101 0.21747 0.0
N549 N 0.32904 0.93078 0.2534 0.0
H550 H 0.39049 0.92448 0.14205 0.0
H551 H 0.34312 0.89567 0.18086 0.0
H552 H 0.31242 0.93022 0.28413 0.0
H553 H 0.30616 0.91396 0.22745 0.0
H554 H 0.52478 0.09639 0.24144 0.0
H555 H 0.5198 0.08312 0.18477 0.0
H556 H 0.51815 0.06193 0.30242 0.0
H557 H 0.47072 0.03347 0.34141 0.0
C558 C 0.13584 0.43583 0.26768 0.0
C559 C 0.16138 0.4148 0.27694 0.0
C560 C 0.19549 0.43124 0.19967 0.0
C561 C 0.16473 0.44626 0.18898 0.0
N562 N 0.12964 0.4878 0.21829 0.0
N563 N 0.22878 0.40893 0.25814 0.0
C564 C 0.14244 0.45665 0.22475 0.0
C565 C 0.19572 0.41789 0.24492 0.0
N566 N 0.10485 0.43531 0.29948 0.0
N567 N 0.22421 0.42987 0.16649 0.0
H568 H 0.23099 0.40158 0.29161 0.0
H569 H 0.2565 0.41283 0.23732 0.0
H570 H 0.22885 0.44508 0.13491 0.0
H571 H 0.24327 0.41407 0.17009 0.0
H572 H 0.08146 0.44568 0.29269 0.0
H573 H 0.10076 0.42202 0.33194 0.0
H574 H 0.11554 0.49845 0.24401 0.0
H575 H 0.13979 0.50796 0.18912 0.0
C576 C 0.16994 0.82384 0.38936 0.0
C577 C 0.21477 0.83924 0.36801 0.0
C578 C 0.17701 0.81466 0.2952 0.0
C579 C 0.13169 0.79287 0.31703 0.0
N580 N 0.08544 0.77102 0.38729 0.0
N581 N 0.25908 0.84051 0.30086 0.0
C582 C 0.12809 0.79628 0.3648 0.0
C583 C 0.21769 0.8319 0.32109 0.0
N584 N 0.16719 0.83482 0.43323 0.0
N585 N 0.18144 0.82034 0.24939 0.0
H586 H 0.29063 0.85496 0.31734 0.0
H587 H 0.26123 0.83016 0.26819 0.0
H588 H 0.15262 0.81028 0.22944 0.0
H589 H 0.21386 0.83973 0.23202 0.0
H590 H 0.13607 0.82884 0.44922 0.0
H591 H 0.19675 0.85279 0.45268 0.0
H592 H 0.08157 0.76837 0.42231 0.0
H593 H 0.05423 0.7496 0.37123 0.0
C594 C 0.31322 0.29993 0.35618 0.0
C595 C 0.30558 0.28631 0.31022 0.0
C596 C 0.24589 0.30786 0.30807 0.0
C597 C 0.25465 0.32322 0.35363 0.0
N598 N 0.29936 0.33696 0.42003 0.0
N599 N 0.26945 0.28283 0.24062 0.0
C600 C 0.28924 0.32024 0.37728 0.0
C601 C 0.27331 0.29194 0.28576 0.0
N602 N 0.34354 0.29337 0.37988 0.0
N603 N 0.21069 0.30772 0.28595 0.0
H604 H 0.28574 0.26767 0.22382 0.0
H605 H 0.25234 0.29254 0.21906 0.0
H606 H 0.19227 0.32247 0.2985 0.0
H607 H 0.19782 0.29094 0.25573 0.0
H608 H 0.34685 0.29707 0.41458 0.0
H609 H 0.3646 0.28224 0.36527 0.0
H610 H 0.32832 0.34206 0.43703 0.0
H611 H 0.28002 0.34804 0.43832 0.0
C612 C 0.81547 0.95942 0.32679 0.0
C613 C 0.81569 0.99688 0.34747 0.0
C614 C 0.76569 0.94587 0.41094 0.0
C615 C 0.76673 0.90866 0.39094 0.0
N616 N 0.80209 0.88339 0.33426 0.0
N617 N 0.79773 1.02765 0.41336 0.0
C618 C 0.7947 0.91655 0.35037 0.0
C619 C 0.79309 0.99067 0.39094 0.0
N620 N 0.83427 0.96442 0.28392 0.0
N621 N 0.73785 0.93831 0.4489 0.0
H622 H 0.81466 0.06038 0.39929 0.0
H623 H 0.78713 1.02662 0.44701 0.0
H624 H 0.72037 0.90723 0.46646 0.0
H625 H 0.73013 0.96197 0.46184 0.0
H626 H 0.82958 0.93714 0.26437 0.0
H627 H 0.85215 0.99568 0.26665 0.0
H628 H 0.82652 0.889 0.30829 0.0
H629 H 0.7866 0.85096 0.34867 0.0
C630 C 0.91709 0.23918 0.16258 0.0
C631 C 0.92089 0.23748 0.20988 0.0
C632 C 0.98062 0.32002 0.20831 0.0
C633 C 0.9736 0.32211 0.16165 0.0
N634 N 0.92814 0.28538 0.09672 0.0
N635 N 0.95155 0.27729 0.27917 0.0
C636 C 0.93954 0.28211 0.13964 0.0
C637 C 0.95136 0.27825 0.2332 0.0
N638 N 0.89362 0.19943 0.13915 0.0
N639 N 1.01655 0.35724 0.22841 0.0
H640 H 0.93167 0.2472 0.29812 0.0
H641 H 0.96893 0.30656 0.29859 0.0
H642 H 1.03765 0.38854 0.21172 0.0
H643 H 1.02723 0.35626 0.26061 0.0
H644 H 0.89365 0.19819 0.10408 0.0
H645 H 0.8782 0.16735 0.15459 0.0
H646 H 0.90039 0.25832 0.08029 0.0
H647 H 0.9434 0.31646 0.07925 0.0
C648 C 0.81523 0.6105 0.16117 0.0
C649 C 0.78302 0.62301 0.17693 0.0
C650 C 0.83536 0.66678 0.23842 0.0
C651 C 0.86905 0.65641 0.22124 0.0
N652 N 0.88736 0.61139 0.17084 0.0
N653 N 0.7567 0.65473 0.23471 0.0
C654 C 0.85751 0.62557 0.18445 0.0
C655 C 0.79131 0.64836 0.21716 0.0
N656 N 0.80664 0.58659 0.12197 0.0
N657 N 0.84604 0.69493 0.27466 0.0
H658 H 0.72427 0.64105 0.21982 0.0
H659 H 0.75827 0.6704 0.26527 0.0
H660 H 0.87629 0.70617 0.29275 0.0
H661 H 0.82587 0.70811 0.28646 0.0
H662 H 0.83117 0.58167 0.10438 0.0
H663 H 0.77496 0.57303 0.10571 0.0
H664 H 0.87848 0.58486 0.14846 0.0
H665 H 0.92046 0.62409 0.18349 0.0
C666 C 0.50165 0.22702 0.13239 0.0
C667 C 0.46955 0.20945 0.17093 0.0
C668 C 0.46296 0.13548 0.1591 0.0
C669 C 0.50032 0.15493 0.12555 0.0
N670 N 0.55924 0.22183 0.08416 0.0
N671 N 0.43055 0.14923 0.22728 0.0
C672 C 0.52112 0.20162 0.1137 0.0
C673 C 0.4531 0.16425 0.18596 0.0
N674 N 0.51177 0.26666 0.1117 0.0
N675 N 0.43606 0.08934 0.1653 0.0
H676 H 0.42561 0.16988 0.24983 0.0
H677 H 0.42212 0.1181 0.24146 0.0
H678 H 0.44068 0.06689 0.14554 0.0
H679 H 0.40589 0.07336 0.18649 0.0
H680 H 0.53088 0.27823 0.08109 0.0
H681 H 0.49684 0.28547 0.12183 0.0
H682 H 0.57937 0.25698 0.0783 0.0
H683 H 0.57269 0.2038 0.0679 0.0
C684 C 0.81024 0.207 0.67312 0.0
C685 C 0.77506 0.16338 0.68977 0.0
C686 C 0.82573 0.17158 0.75174 0.0
C687 C 0.86393 0.21165 0.73083 0.0
N688 N 0.8931 0.26518 0.6677 0.0
N689 N 0.74741 0.10648 0.74929 0.0
C690 C 0.85609 0.22952 0.69108 0.0
C691 C 0.78196 0.14678 0.73044 0.0
N692 N 0.79972 0.22638 0.6393 0.0
N693 N 0.83126 0.15609 0.79175 0.0
H694 H 0.71404 0.08653 0.73622 0.0
H695 H 0.71404 0.08653 0.73622 0.0
H696 H 0.86209 0.17393 0.8095 0.0
H697 H 0.80431 0.1263 0.80767 0.0
H698 H 0.82193 0.25997 0.62809 0.0
H699 H 0.76638 0.20998 0.62579 0.0
H700 H 0.89041 0.27594 0.63594 0.0
H701 H 0.92769 0.28176 0.67767 0.0
C702 C 0.9981 0.64905 0.70346 0.0
C703 C 0.9811 0.62042 0.66531 0.0
C704 C 0.91391 0.63088 0.66474 0.0
C705 C 0.92983 0.65855 0.70404 0.0
N706 N 0.98107 0.68391 0.76692 0.0
N707 N 0.91755 0.57498 0.61685 0.0
C708 C 0.97025 0.66475 0.72522 0.0
C709 C 0.93704 0.60818 0.64866 0.0
N710 N 1.04169 0.66242 0.71803 0.0
N711 N 0.87867 0.62856 0.6407 0.0
H712 H 0.93407 0.55812 0.60454 0.0
H713 H 0.88333 0.561 0.60629 0.0
H714 H 0.86149 0.64559 0.64959 0.0
H715 H 0.86952 0.61341 0.60921 0.0
H716 H 0.05903 0.68796 0.74163 0.0
H717 H 0.06134 0.64919 0.70456 0.0
H718 H 1.00734 0.68531 0.78588 0.0
H719 H 0.9609 0.6945 0.78456 0.0
C720 C 0.4354 0.27132 0.73075 0.0
C721 C 0.43552 0.2335 0.71095 0.0
C722 C 0.48289 0.28302 0.6459 0.0
C723 C 0.475 0.31745 0.66167 0.0
N724 N 0.44917 0.3479 0.72129 0.0
N725 N 0.46002 0.20369 0.64839 0.0
C726 C 0.45349 0.3129 0.70519 0.0
C727 C 0.46046 0.23976 0.66869 0.0
N728 N 0.41836 0.26736 0.7742 0.0
N729 N 0.51219 0.29208 0.60878 0.0
H730 H 0.44462 0.17136 0.66294 0.0
H731 H 0.47189 0.20455 0.61524 0.0
H732 H 0.5289 0.32357 0.59187 0.0
H733 H 0.52375 0.27072 0.59758 0.0
H734 H 0.41934 0.29385 0.79229 0.0
H735 H 0.40618 0.23787 0.79368 0.0
H736 H 0.43084 0.34634 0.75104 0.0
H737 H 0.46354 0.37895 0.70402 0.0
C738 C 0.23143 0.94777 0.81279 0.0
C739 C 0.27389 0.98294 0.83035 0.0
C740 C 0.26117 0.93282 0.89504 0.0
C741 C 0.22359 0.89491 0.87296 0.0
N742 N 0.17887 0.86669 0.80496 0.0
N743 N 0.33189 1.00837 0.88687 0.0
C744 C 0.20982 0.90255 0.83051 0.0
C745 C 0.28936 0.97546 0.87137 0.0
N746 N 0.21224 0.95759 0.77823 0.0
N747 N 0.26897 0.92888 0.93909 0.0
H748 H 0.35228 0.04048 0.87145 0.0
H749 H 0.34794 1.00283 0.91334 0.0
H750 H 0.24775 0.89931 0.95834 0.0
H751 H 0.29319 0.95647 0.95787 0.0
H752 H 0.17891 0.93452 0.76662 0.0
H753 H 0.22769 0.99052 0.76467 0.0
H754 H 0.17202 0.87058 0.77193 0.0
H755 H 0.16401 0.83258 0.81397 0.0
C756 C 0.16129 0.31076 0.81302 0.0
C757 C 0.12048 0.30868 0.83125 0.0
C758 C 0.1621 0.34215 0.9017 0.0
C759 C 0.20483 0.35086 0.88008 0.0
N760 N 0.24588 0.3517 0.81096 0.0
N761 N 0.08151 0.32317 0.89347 0.0
C762 C 0.2045 0.33686 0.8348 0.0
C763 C 0.12039 0.32391 0.87614 0.0
N764 N 0.15877 0.28801 0.77421 0.0
N765 N 0.16155 0.35149 0.94646 0.0
H766 H 0.05042 0.30946 0.8763 0.0
H767 H 0.08059 0.33799 0.92391 0.0
H768 H 0.19169 0.36558 0.96531 0.0
H769 H 0.131 0.34244 0.96558 0.0
H770 H 0.18644 0.28491 0.76132 0.0
H771 H 0.12727 0.26817 0.7578 0.0
H772 H 0.24779 0.34737 0.7763 0.0
H773 H 0.27846 0.3727 0.82474 0.0
C774 C 0.88879 0.8746 0.83588 0.0
C775 C 0.85774 0.83464 0.8117 0.0
C776 C 0.79471 0.85052 0.82942 0.0
C777 C 0.82337 0.88488 0.86023 0.0
N778 N 0.89596 0.92145 0.90003 0.0
N779 N 0.77503 0.77781 0.79953 0.0
C780 C 0.86998 0.89462 0.86555 0.0
C781 C 0.80897 0.82065 0.81212 0.0
N782 N 0.93636 0.8947 0.82962 0.0
N783 N 0.75453 0.84684 0.81513 0.0
H784 H 0.78117 0.75183 0.79215 0.0
H785 H 0.7392 0.76599 0.80301 0.0
H786 H 0.74393 0.86944 0.82454 0.0
H787 H 0.73501 0.82469 0.78956 0.0
H788 H 0.96027 0.92588 0.84392 0.0
H789 H 0.95164 0.88342 0.80573 0.0
H790 H 0.92852 0.92629 0.90738 0.0
H791 H 0.88265 0.93416 0.92447 0.0
C792 C 0.55903 0.56793 0.49683 0.0
C793 C 0.56258 0.56445 0.54405 0.0
C794 C 0.60289 0.64856 0.54917 0.0
C795 C 0.602 0.65178 0.50154 0.0
N796 N 0.56521 0.61495 0.43323 0.0
N797 N 0.57937 0.5999 0.61662 0.0
C798 C 0.57515 0.61136 0.47664 0.0
C799 C 0.58174 0.60442 0.57075 0.0
N800 N 0.54279 0.53002 0.47065 0.0
N801 N 0.62471 0.68775 0.57339 0.0
H802 H 0.56443 0.56817 0.63275 0.0
H803 H 0.58964 0.62675 0.63887 0.0
H804 H 0.63598 0.71947 0.55882 0.0
H805 H 0.63142 0.68913 0.60745 0.0
H806 H 0.54451 0.53107 0.43556 0.0
H807 H 0.53078 0.4976 0.48382 0.0
H808 H 0.54231 0.58709 0.414 0.0
H809 H 0.57623 0.64652 0.41819 0.0
C810 C 0.48728 1.0035 0.58234 0.0
C811 C 0.52924 1.00608 0.5662 0.0
C812 C 0.48816 0.96297 0.49887 0.0
C813 C 0.44917 0.96678 0.51149 0.0
N814 N 0.41072 0.99086 0.56492 0.0
N815 N 0.57135 0.99401 0.50498 0.0
C816 C 0.44823 0.98659 0.55352 0.0
C817 C 0.52988 0.98657 0.52373 0.0
N818 N 0.48476 1.01687 0.62531 0.0
N819 N 0.48552 0.93731 0.46238 0.0
H820 H 0.60313 1.01228 0.52092 0.0
H821 H 0.5751 0.98601 0.47176 0.0
H822 H 0.45543 0.92007 0.44347 0.0
H823 H 0.51097 0.92943 0.45376 0.0
H824 H 0.45406 1.01234 0.64083 0.0
H825 H 0.51278 0.02925 0.64682 0.0
H826 H 0.40991 1.00978 0.59214 0.0
H827 H 0.38086 0.97673 0.54566 0.0
C828 C 0.15429 0.46191 0.54338 0.0
C829 C 0.17739 0.47773 0.50005 0.0
C830 C 0.15637 0.5366 0.50086 0.0
C831 C 0.13301 0.52071 0.54416 0.0
N832 N 0.11927 0.47543 0.61068 0.0
N833 N 0.20955 0.5361 0.44256 0.0
C834 C 0.13491 0.48548 0.56659 0.0
C835 C 0.18112 0.51691 0.4804 0.0
N836 N 0.14881 0.42298 0.56158 0.0
N837 N 0.1531 0.56903 0.47799 0.0
H838 H 0.22816 0.52262 0.42706 0.0
H839 H 0.21832 0.5675 0.42897 0.0
H840 H 0.13714 0.5858 0.49156 0.0
H841 H 0.16337 0.57732 0.44415 0.0
H842 H 0.12819 0.40681 0.59053 0.0
H843 H 0.16218 0.40458 0.54619 0.0
H844 H 0.12376 0.45355 0.63083 0.0
H845 H 0.10554 0.49237 0.62862 0.0
C846 C 0.45761 0.46622 0.04103 0.0
C847 C 0.45445 0.48787 0.00203 0.0
C848 C 0.53551 0.55188 0.01135 0.0
C849 C 0.53913 0.5298 0.05014 0.0
N850 N 0.49969 0.47208 0.1082 0.0
N851 N 0.48486 0.55578 0.95714 0.0
C852 C 0.49883 0.48885 0.06696 0.0
C853 C 0.4916 0.53241 0.98986 0.0
N854 N 0.42193 0.42293 0.05206 0.0
N855 N 0.5747 0.58947 0.99274 0.0
H856 H 0.45304 0.54181 0.94101 0.0
H857 H 0.50863 0.59008 0.94927 0.0
H858 H 0.6078 0.60478 0.00625 0.0
H859 H 0.57546 0.60351 0.96159 0.0
H860 H 0.42487 0.40263 0.07577 0.0
H861 H 0.39014 0.40675 0.03573 0.0
H862 H 0.4702 0.44479 0.12447 0.0
H863 H 0.52904 0.48827 0.12815 0.0
C864 C 0.62383 0.97256 0.9495 0.0
C865 C 0.64843 0.96058 0.97874 0.0
C866 C 0.62083 0.98717 0.04365 0.0
C867 C 0.59872 1.00167 0.01407 0.0
N868 N 0.58531 1.01506 0.9384 0.0
N869 N 0.67809 0.96515 0.05278 0.0
C870 C 0.60211 0.99639 0.9668 0.0
C871 C 0.64891 0.9701 0.02564 0.0
N872 N 0.61982 0.95962 0.90542 0.0
N873 N 0.61414 0.98874 0.08922 0.0
H874 H 0.69927 0.95286 0.04143 0.0
H875 H 0.68455 0.97699 0.08571 0.0
H876 H 0.59574 1.00291 0.10368 0.0
H877 H 0.62419 0.97343 0.1126 0.0
H878 H 0.59867 0.96319 0.88312 0.0
H879 H 0.63464 0.94163 0.89199 0.0
H880 H 0.59043 1.01643 0.90349 0.0
H881 H 0.56965 0.03289 0.9501 0.0
C882 C 0.14758 0.66054 0.05596 0.0
C883 C 0.1658 0.66755 0.01026 0.0
C884 C 0.13699 0.58556 0.00569 0.0
C885 C 0.12131 0.57908 0.05182 0.0
N886 N 0.12093 0.61219 0.12333 0.0
N887 N 0.18863 0.63845 0.94668 0.0
C888 C 0.12987 0.61726 0.07778 0.0
C889 C 0.16387 0.63052 0.98681 0.0
N890 N 0.14329 0.69351 0.07763 0.0
N891 N 0.12414 0.54856 0.979 0.0
H892 H 0.20992 0.67114 0.93268 0.0
H893 H 0.19221 0.6136 0.92997 0.0
H894 H 0.10372 0.51509 0.99107 0.0
H895 H 0.12991 0.55091 0.94411 0.0
H896 H 0.12581 0.68827 0.10891 0.0
H897 H 0.15252 0.72457 0.06297 0.0
H898 H 0.13104 0.63957 0.14496 0.0
H899 H 0.10703 0.58082 0.13993 0.0
loop_
_geom_bond_atom_site_label_1
_geom_bond_atom_site_label_2
_geom_bond_distance
_geom_bond_site_symmetry_2
_ccdc_geom_bond_type
O0 Cd1 2.223 . S
O0 C8 1.315 . S
Cd1 O0 2.223 . S
Cd1 O4 2.297 . S
Cd1 O5 2.439 1_455 S
Cd1 O11 2.240 . S
Cd2 O3 2.240 . S
Cd2 O10 2.223 . S
Cd2 O12 2.297 1_455 S
Cd2 O13 2.439 1_455 S
O3 Cd2 2.240 . S
O3 C8 1.279 . S
O4 Cd1 2.297 . S
O4 C6 1.247 1_455 S
O5 Cd1 2.439 1_655 S
O5 C6 1.208 . S
C6 O4 1.247 1_655 S
C6 O5 1.208 . S
C7 O12 1.247 . S
C7 O13 1.208 . S
C8 O0 1.315 . S
C8 O3 1.279 . S
C9 O10 1.315 . S
C9 O11 1.279 . S
O10 Cd2 2.223 . S
O10 C9 1.315 . S
O11 Cd1 2.240 . S
O11 C9 1.279 . S
O12 Cd2 2.297 1_655 S
O12 C7 1.247 . S
O13 Cd2 2.439 1_655 S
O13 C7 1.208 . S
O14 Cd15 2.223 . S
O14 C22 1.315 . S
Cd15 O14 2.223 . S
Cd15 O18 2.297 . S
Cd15 O19 2.439 . S
Cd15 O25 2.240 . S
Cd16 O17 2.240 . S
Cd16 O24 2.223 . S
Cd16 O26 2.297 . S
Cd16 O27 2.439 . S
O17 Cd16 2.240 . S
O17 C22 1.279 . S
O18 Cd15 2.297 . S
O18 C20 1.247 . S
O19 Cd15 2.439 . S
O19 C20 1.208 . S
C20 O18 1.247 . S
C20 O19 1.208 . S
C21 O26 1.247 . S
C21 O27 1.208 . S
C22 O14 1.315 . S
C22 O17 1.279 . S
C23 O24 1.315 . S
C23 O25 1.279 . S
O24 Cd16 2.223 . S
O24 C23 1.315 . S
O25 Cd15 2.240 . S
O25 C23 1.279 . S
O26 Cd16 2.297 . S
O26 C21 1.247 . S
O27 Cd16 2.439 . S
O27 C21 1.208 . S
O28 Cd29 2.223 . S
O28 C36 1.315 . S
Cd29 O28 2.223 . S
Cd29 O32 2.297 . S
Cd29 O33 2.439 1_545 S
Cd29 O39 2.240 . S
Cd30 O31 2.240 . S
Cd30 O38 2.223 . S
Cd30 O40 2.297 1_545 S
Cd30 O41 2.439 1_545 S
O31 Cd30 2.240 . S
O31 C36 1.279 . S
O32 Cd29 2.297 . S
O32 C34 1.247 . S
O33 Cd29 2.439 1_565 S
O33 C34 1.208 1_565 S
C34 O32 1.247 . S
C34 O33 1.208 1_545 S
C35 O40 1.247 . S
C35 O41 1.208 . S
C36 O28 1.315 . S
C36 O31 1.279 . S
C37 O38 1.315 . S
C37 O39 1.279 . S
O38 Cd30 2.223 . S
O38 C37 1.315 . S
O39 Cd29 2.240 . S
O39 C37 1.279 . S
O40 Cd30 2.297 1_565 S
O40 C35 1.247 . S
O41 Cd30 2.439 1_565 S
O41 C35 1.208 . S
O42 Cd43 2.223 . S
O42 C50 1.315 . S
Cd43 O42 2.223 . S
Cd43 O46 2.297 . S
Cd43 O47 2.439 1_455 S
Cd43 O53 2.240 . S
Cd44 O45 2.240 . S
Cd44 O52 2.223 . S
Cd44 O54 2.297 1_455 S
Cd44 O55 2.439 1_455 S
O45 Cd44 2.240 . S
O45 C50 1.279 . S
O46 Cd43 2.297 . S
O46 C48 1.247 1_455 S
O47 Cd43 2.439 1_655 S
O47 C48 1.208 . S
C48 O46 1.247 1_655 S
C48 O47 1.208 . S
C49 O54 1.247 . S
C49 O55 1.208 . S
C50 O42 1.315 . S
C50 O45 1.279 . S
C51 O52 1.315 . S
C51 O53 1.279 . S
O52 Cd44 2.223 . S
O52 C51 1.315 . S
O53 Cd43 2.240 . S
O53 C51 1.279 . S
O54 Cd44 2.297 1_655 S
O54 C49 1.247 . S
O55 Cd44 2.439 1_655 S
O55 C49 1.208 . S
O56 Cd57 2.223 . S
O56 C64 1.315 . S
Cd57 O56 2.223 . S
Cd57 O60 2.297 . S
Cd57 O61 2.439 . S
Cd57 O67 2.240 . S
Cd58 O59 2.240 . S
Cd58 O66 2.223 . S
Cd58 O68 2.297 . S
Cd58 O69 2.439 . S
O59 Cd58 2.240 . S
O59 C64 1.279 . S
O60 Cd57 2.297 . S
O60 C62 1.247 . S
O61 Cd57 2.439 . S
O61 C62 1.208 . S
C62 O60 1.247 . S
C62 O61 1.208 . S
C63 O68 1.247 . S
C63 O69 1.208 . S
C64 O56 1.315 . S
C64 O59 1.279 . S
C65 O66 1.315 . S
C65 O67 1.279 . S
O66 Cd58 2.223 . S
O66 C65 1.315 . S
O67 Cd57 2.240 . S
O67 C65 1.279 . S
O68 Cd58 2.297 . S
O68 C63 1.247 . S
O69 Cd58 2.439 . S
O69 C63 1.208 . S
O70 Cd71 2.223 . S
O70 C78 1.315 . S
Cd71 O70 2.223 . S
Cd71 O74 2.297 . S
Cd71 O75 2.439 1_565 S
Cd71 O81 2.240 1_565 S
Cd72 O73 2.240 1_545 S
Cd72 O80 2.223 1_545 S
Cd72 O82 2.297 . S
Cd72 O83 2.439 . S
O73 Cd72 2.240 1_565 S
O73 C78 1.279 . S
O74 Cd71 2.297 . S
O74 C76 1.247 1_565 S
O75 Cd71 2.439 1_545 S
O75 C76 1.208 . S
C76 O74 1.247 1_545 S
C76 O75 1.208 . S
C77 O82 1.247 . S
C77 O83 1.208 . S
C78 O70 1.315 . S
C78 O73 1.279 . S
C79 O80 1.315 . S
C79 O81 1.279 1_565 S
O80 Cd72 2.223 1_565 S
O80 C79 1.315 . S
O81 Cd71 2.240 1_545 S
O81 C79 1.279 1_545 S
O82 Cd72 2.297 . S
O82 C77 1.247 . S
O83 Cd72 2.439 . S
O83 C77 1.208 . S
O84 Cd85 2.223 . S
O84 C92 1.315 . S
Cd85 O84 2.223 . S
Cd85 O88 2.297 . S
Cd85 O89 2.439 . S
Cd85 O95 2.240 . S
Cd86 O87 2.240 . S
Cd86 O94 2.223 . S
Cd86 O96 2.297 . S
Cd86 O97 2.439 . S
O87 Cd86 2.240 . S
O87 C92 1.279 . S
O88 Cd85 2.297 . S
O88 C90 1.247 . S
O89 Cd85 2.439 . S
O89 C90 1.208 . S
C90 O88 1.247 . S
C90 O89 1.208 . S
C91 O96 1.247 . S
C91 O97 1.208 . S
C92 O84 1.315 . S
C92 O87 1.279 . S
C93 O94 1.315 . S
C93 O95 1.279 . S
O94 Cd86 2.223 . S
O94 C93 1.315 . S
O95 Cd85 2.240 . S
O95 C93 1.279 . S
O96 Cd86 2.297 . S
O96 C91 1.247 . S
O97 Cd86 2.439 . S
O97 C91 1.208 . S
O98 Cd99 2.223 . S
O98 C106 1.315 . S
Cd99 O98 2.223 . S
Cd99 O102 2.297 1_655 S
Cd99 O103 2.439 . S
Cd99 O109 2.240 . S
Cd100 O101 2.240 . S
Cd100 O108 2.223 . S
Cd100 O110 2.297 . S
Cd100 O111 2.439 . S
O101 Cd100 2.240 . S
O101 C106 1.279 . S
O102 Cd99 2.297 1_455 S
O102 C104 1.247 . S
O103 Cd99 2.439 . S
O103 C104 1.208 1_655 S
C104 O102 1.247 . S
C104 O103 1.208 1_455 S
C105 O110 1.247 . S
C105 O111 1.208 . S
C106 O98 1.315 . S
C106 O101 1.279 . S
C107 O108 1.315 . S
C107 O109 1.279 . S
O108 Cd100 2.223 . S
O108 C107 1.315 . S
O109 Cd99 2.240 . S
O109 C107 1.279 . S
O110 Cd100 2.297 . S
O110 C105 1.247 . S
O111 Cd100 2.439 . S
O111 C105 1.208 . S
O112 Cd113 2.223 . S
O112 C120 1.315 . S
Cd113 O112 2.223 . S
Cd113 O116 2.297 . S
Cd113 O117 2.439 . S
Cd113 O123 2.240 . S
Cd114 O115 2.240 . S
Cd114 O122 2.223 . S
Cd114 O124 2.297 . S
Cd114 O125 2.439 . S
O115 Cd114 2.240 . S
O115 C120 1.279 . S
O116 Cd113 2.297 . S
O116 C118 1.247 . S
O117 Cd113 2.439 . S
O117 C118 1.208 . S
C118 O116 1.247 . S
C118 O117 1.208 . S
C119 O124 1.247 . S
C119 O125 1.208 . S
C120 O112 1.315 . S
C120 O115 1.279 . S
C121 O122 1.315 . S
C121 O123 1.279 . S
O122 Cd114 2.223 . S
O122 C121 1.315 . S
O123 Cd113 2.240 . S
O123 C121 1.279 . S
O124 Cd114 2.297 . S
O124 C119 1.247 . S
O125 Cd114 2.439 . S
O125 C119 1.208 . S
O126 Cd127 2.223 . S
O126 C134 1.315 . S
Cd127 O126 2.223 . S
Cd127 O130 2.297 . S
Cd127 O131 2.439 . S
Cd127 O137 2.240 . S
Cd128 O129 2.240 . S
Cd128 O136 2.223 1_554 S
Cd128 O138 2.297 1_554 S
Cd128 O139 2.439 . S
O129 Cd128 2.240 . S
O129 C134 1.279 . S
O130 Cd127 2.297 . S
O130 C132 1.247 . S
O131 Cd127 2.439 . S
O131 C132 1.208 . S
C132 O130 1.247 . S
C132 O131 1.208 . S
C133 O138 1.247 1_554 S
C133 O139 1.208 . S
C134 O126 1.315 . S
C134 O129 1.279 . S
C135 O136 1.315 . S
C135 O137 1.279 1_556 S
O136 Cd128 2.223 1_556 S
O136 C135 1.315 . S
O137 Cd127 2.240 . S
O137 C135 1.279 1_554 S
O138 Cd128 2.297 1_556 S
O138 C133 1.247 1_556 S
O139 Cd128 2.439 . S
O139 C133 1.208 . S
O140 Cd141 2.223 . S
O140 C148 1.315 . S
Cd141 O140 2.223 . S
Cd141 O144 2.297 . S
Cd141 O145 2.439 . S
Cd141 O151 2.240 . S
Cd142 O143 2.240 . S
Cd142 O150 2.223 . S
Cd142 O152 2.297 . S
Cd142 O153 2.439 . S
O143 Cd142 2.240 . S
O143 C148 1.279 . S
O144 Cd141 2.297 . S
O144 C146 1.247 . S
O145 Cd141 2.439 . S
O145 C146 1.208 . S
C146 O144 1.247 . S
C146 O145 1.208 . S
C147 O152 1.247 . S
C147 O153 1.208 . S
C148 O140 1.315 . S
C148 O143 1.279 . S
C149 O150 1.315 . S
C149 O151 1.279 . S
O150 Cd142 2.223 . S
O150 C149 1.315 . S
O151 Cd141 2.240 . S
O151 C149 1.279 . S
O152 Cd142 2.297 . S
O152 C147 1.247 . S
O153 Cd142 2.439 . S
O153 C147 1.208 . S
O154 Cd155 2.223 1_655 S
O154 C162 1.315 . S
Cd155 O154 2.223 1_455 S
Cd155 O158 2.297 . S
Cd155 O159 2.439 . S
Cd155 O165 2.240 1_455 S
Cd156 O157 2.240 . S
Cd156 O164 2.223 . S
Cd156 O166 2.297 . S
Cd156 O167 2.439 . S
O157 Cd156 2.240 . S
O157 C162 1.279 . S
O158 Cd155 2.297 . S
O158 C160 1.247 . S
O159 Cd155 2.439 . S
O159 C160 1.208 . S
C160 O158 1.247 . S
C160 O159 1.208 . S
C161 O166 1.247 . S
C161 O167 1.208 . S
C162 O154 1.315 . S
C162 O157 1.279 . S
C163 O164 1.315 . S
C163 O165 1.279 . S
O164 Cd156 2.223 . S
O164 C163 1.315 . S
O165 Cd155 2.240 1_655 S
O165 C163 1.279 . S
O166 Cd156 2.297 . S
O166 C161 1.247 . S
O167 Cd156 2.439 . S
O167 C161 1.208 . S
O168 Cd169 2.223 . S
O168 C176 1.315 . S
Cd169 O168 2.223 . S
Cd169 O172 2.297 1_556 S
Cd169 O173 2.439 . S
Cd169 O179 2.240 . S
Cd170 O171 2.240 . S
Cd170 O178 2.223 . S
Cd170 O180 2.297 . S
Cd170 O181 2.439 . S
O171 Cd170 2.240 . S
O171 C176 1.279 . S
O172 Cd169 2.297 1_554 S
O172 C174 1.247 . S
O173 Cd169 2.439 . S
O173 C174 1.208 1_556 S
C174 O172 1.247 . S
C174 O173 1.208 1_554 S
C175 O180 1.247 . S
C175 O181 1.208 . S
C176 O168 1.315 . S
C176 O171 1.279 . S
C177 O178 1.315 . S
C177 O179 1.279 . S
O178 Cd170 2.223 . S
O178 C177 1.315 . S
O179 Cd169 2.240 . S
O179 C177 1.279 . S
O180 Cd170 2.297 . S
O180 C175 1.247 . S
O181 Cd170 2.439 . S
O181 C175 1.208 . S
O182 Cd183 2.223 . S
O182 C190 1.315 . S
Cd183 O182 2.223 . S
Cd183 O186 2.297 . S
Cd183 O187 2.439 . S
Cd183 O193 2.240 . S
Cd184 O185 2.240 . S
Cd184 O192 2.223 1_556 S
Cd184 O194 2.297 1_556 S
Cd184 O195 2.439 . S
O185 Cd184 2.240 . S
O185 C190 1.279 . S
O186 Cd183 2.297 . S
O186 C188 1.247 . S
O187 Cd183 2.439 . S
O187 C188 1.208 . S
C188 O186 1.247 . S
C188 O187 1.208 . S
C189 O194 1.247 1_556 S
C189 O195 1.208 . S
C190 O182 1.315 . S
C190 O185 1.279 . S
C191 O192 1.315 1_556 S
C191 O193 1.279 . S
O192 Cd184 2.223 1_554 S
O192 C191 1.315 1_554 S
O193 Cd183 2.240 . S
O193 C191 1.279 . S
O194 Cd184 2.297 1_554 S
O194 C189 1.247 1_554 S
O195 Cd184 2.439 . S
O195 C189 1.208 . S
O196 Cd197 2.223 . S
O196 C204 1.315 . S
Cd197 O196 2.223 . S
Cd197 O200 2.297 . S
Cd197 O201 2.439 . S
Cd197 O207 2.240 . S
Cd198 O199 2.240 . S
Cd198 O206 2.223 1_556 S
Cd198 O208 2.297 1_556 S
Cd198 O209 2.439 . S
O199 Cd198 2.240 . S
O199 C204 1.279 . S
O200 Cd197 2.297 . S
O200 C202 1.247 . S
O201 Cd197 2.439 . S
O201 C202 1.208 . S
C202 O200 1.247 . S
C202 O201 1.208 . S
C203 O208 1.247 1_556 S
C203 O209 1.208 . S
C204 O196 1.315 . S
C204 O199 1.279 . S
C205 O206 1.315 . S
C205 O207 1.279 1_554 S
O206 Cd198 2.223 1_554 S
O206 C205 1.315 . S
O207 Cd197 2.240 . S
O207 C205 1.279 1_556 S
O208 Cd198 2.297 1_554 S
O208 C203 1.247 1_554 S
O209 Cd198 2.439 . S
O209 C203 1.208 . S
O210 Cd211 2.223 . S
O210 C218 1.315 . S
Cd211 O210 2.223 . S
Cd211 O214 2.297 . S
Cd211 O215 2.439 . S
Cd211 O221 2.240 . S
Cd212 O213 2.240 . S
Cd212 O220 2.223 . S
Cd212 O222 2.297 . S
Cd212 O223 2.439 . S
O213 Cd212 2.240 . S
O213 C218 1.279 . S
O214 Cd211 2.297 . S
O214 C216 1.247 . S
O215 Cd211 2.439 . S
O215 C216 1.208 . S
C216 O214 1.247 . S
C216 O215 1.208 . S
C217 O222 1.247 . S
C217 O223 1.208 . S
C218 O210 1.315 . S
C218 O213 1.279 . S
C219 O220 1.315 . S
C219 O221 1.279 . S
O220 Cd212 2.223 . S
O220 C219 1.315 . S
O221 Cd211 2.240 . S
O221 C219 1.279 . S
O222 Cd212 2.297 . S
O222 C217 1.247 . S
O223 Cd212 2.439 . S
O223 C217 1.208 . S
O224 Cd225 2.223 . S
O224 C232 1.315 . S
Cd225 O224 2.223 . S
Cd225 O228 2.297 . S
Cd225 O229 2.439 . S
Cd225 O235 2.240 . S
Cd226 O227 2.240 . S
Cd226 O234 2.223 . S
Cd226 O236 2.297 . S
Cd226 O237 2.439 . S
O227 Cd226 2.240 . S
O227 C232 1.279 . S
O228 Cd225 2.297 . S
O228 C230 1.247 . S
O229 Cd225 2.439 . S
O229 C230 1.208 . S
C230 O228 1.247 . S
C230 O229 1.208 . S
C231 O236 1.247 . S
C231 O237 1.208 . S
C232 O224 1.315 . S
C232 O227 1.279 . S
C233 O234 1.315 . S
C233 O235 1.279 . S
O234 Cd226 2.223 . S
O234 C233 1.315 . S
O235 Cd225 2.240 . S
O235 C233 1.279 . S
O236 Cd226 2.297 . S
O236 C231 1.247 . S
O237 Cd226 2.439 . S
O237 C231 1.208 . S
O238 Cd239 2.223 . S
O238 C246 1.315 . S
Cd239 O238 2.223 . S
Cd239 O242 2.297 . S
Cd239 O243 2.439 . S
Cd239 O249 2.240 . S
Cd240 O241 2.240 . S
Cd240 O248 2.223 . S
Cd240 O250 2.297 . S
Cd240 O251 2.439 . S
O241 Cd240 2.240 . S
O241 C246 1.279 . S
O242 Cd239 2.297 . S
O242 C244 1.247 . S
O243 Cd239 2.439 . S
O243 C244 1.208 . S
C244 O242 1.247 . S
C244 O243 1.208 . S
C245 O250 1.247 . S
C245 O251 1.208 . S
C246 O238 1.315 . S
C246 O241 1.279 . S
C247 O248 1.315 . S
C247 O249 1.279 . S
O248 Cd240 2.223 . S
O248 C247 1.315 . S
O249 Cd239 2.240 . S
O249 C247 1.279 . S
O250 Cd240 2.297 . S
O250 C245 1.247 . S
O251 Cd240 2.439 . S
O251 C245 1.208 . S
C252 C253 1.363 . S
C252 C258 1.379 . S
C252 N260 1.356 . S
C253 C252 1.363 . S
C253 C259 1.363 . S
C254 C255 1.363 . S
C254 C259 1.379 . S
C254 N261 1.356 . S
C255 C254 1.363 . S
C255 C258 1.363 . S
N256 C258 1.356 . S
N256 H268 0.985 . S
N256 H269 0.985 1_554 S
N257 C259 1.356 . S
N257 H262 0.984 . S
N257 H263 0.985 . S
C258 C252 1.379 . S
C258 C255 1.363 . S
C258 N256 1.356 . S
C259 C253 1.363 . S
C259 C254 1.379 . S
C259 N257 1.356 . S
N260 C252 1.356 . S
N260 H266 0.984 . S
N260 H267 0.984 . S
N261 C254 1.356 . S
N261 H264 0.984 . S
N261 H265 0.985 . S
H262 N257 0.984 . S
H263 N257 0.985 . S
H264 N261 0.984 . S
H265 N261 0.985 . S
H266 N260 0.984 . S
H267 N260 0.984 . S
H268 N256 0.985 . S
H269 N256 0.985 1_556 S
C270 C271 1.363 . S
C270 C276 1.379 . S
C270 N278 1.356 . S
C271 C270 1.363 . S
C271 C277 1.363 . S
C272 C273 1.363 . S
C272 C277 1.379 . S
C272 N279 1.356 . S
C273 C272 1.363 . S
C273 C276 1.363 . S
N274 C276 1.356 . S
N274 H286 0.984 . S
N274 H287 0.985 . S
N275 C277 1.356 . S
N275 H280 0.984 . S
N275 H281 0.985 . S
C276 C270 1.379 . S
C276 C273 1.363 . S
C276 N274 1.356 . S
C277 C271 1.363 . S
C277 C272 1.379 . S
C277 N275 1.356 . S
N278 C270 1.356 . S
N278 H284 0.984 . S
N278 H285 0.984 . S
N279 C272 1.356 . S
N279 H282 0.984 . S
N279 H283 0.985 . S
H280 N275 0.984 . S
H281 N275 0.985 . S
H282 N279 0.984 . S
H283 N279 0.985 . S
H284 N278 0.984 . S
H285 N278 0.984 . S
H286 N274 0.984 . S
H287 N274 0.985 . S
C288 C289 1.363 1_545 S
C288 C294 1.379 1_545 S
C288 N296 1.356 . S
C289 C288 1.363 1_565 S
C289 C295 1.363 . S
C290 C291 1.363 . S
C290 C295 1.379 . S
C290 N297 1.356 . S
C291 C290 1.363 . S
C291 C294 1.363 . S
N292 C294 1.356 1_545 S
N292 H304 0.984 . S
N292 H305 0.985 1_544 S
N293 C295 1.356 . S
N293 H298 0.984 . S
N293 H299 0.985 . S
C294 C288 1.379 1_565 S
C294 C291 1.363 . S
C294 N292 1.356 1_565 S
C295 C289 1.363 . S
C295 C290 1.379 . S
C295 N293 1.356 . S
N296 C288 1.356 . S
N296 H302 0.984 . S
N296 H303 0.984 . S
N297 C290 1.356 . S
N297 H300 0.984 1_554 S
N297 H301 0.985 . S
H298 N293 0.984 . S
H299 N293 0.985 . S
H300 N297 0.984 1_556 S
H301 N297 0.985 . S
H302 N296 0.984 . S
H303 N296 0.984 . S
H304 N292 0.984 . S
H305 N292 0.985 1_566 S
C306 C307 1.363 . S
C306 C312 1.379 . S
C306 N314 1.356 . S
C307 C306 1.363 . S
C307 C313 1.363 . S
C308 C309 1.363 . S
C308 C313 1.379 . S
C308 N315 1.356 . S
C309 C308 1.363 . S
C309 C312 1.363 . S
N310 C312 1.356 1_565 S
N310 H322 0.984 . S
N310 H323 0.985 . S
N311 C313 1.356 . S
N311 H316 0.984 . S
N311 H317 0.985 . S
C312 C306 1.379 . S
C312 C309 1.363 . S
C312 N310 1.356 1_545 S
C313 C307 1.363 . S
C313 C308 1.379 . S
C313 N311 1.356 . S
N314 C306 1.356 . S
N314 H320 0.984 1_545 S
N314 H321 0.984 . S
N315 C308 1.356 . S
N315 H318 0.984 . S
N315 H319 0.985 . S
H316 N311 0.984 . S
H317 N311 0.985 . S
H318 N315 0.984 . S
H319 N315 0.985 . S
H320 N314 0.984 1_565 S
H321 N314 0.984 . S
H322 N310 0.984 . S
H323 N310 0.985 . S
C324 C325 1.363 . S
C324 C330 1.379 . S
C324 N332 1.356 . S
C325 C324 1.363 . S
C325 C331 1.363 . S
C326 C327 1.363 . S
C326 C331 1.379 . S
C326 N333 1.356 1_655 S
C327 C326 1.363 . S
C327 C330 1.363 . S
N328 C330 1.356 . S
N328 H340 0.984 . S
N328 H341 0.985 . S
N329 C331 1.356 . S
N329 H334 0.984 . S
N329 H335 0.985 . S
C330 C324 1.379 . S
C330 C327 1.363 . S
C330 N328 1.356 . S
C331 C325 1.363 . S
C331 C326 1.379 . S
C331 N329 1.356 . S
N332 C324 1.356 . S
N332 H338 0.984 . S
N332 H339 0.984 . S
N333 C326 1.356 1_455 S
N333 H336 0.984 . S
N333 H337 0.985 . S
H334 N329 0.984 . S
H335 N329 0.985 . S
H336 N333 0.984 . S
H337 N333 0.985 . S
H338 N332 0.984 . S
H339 N332 0.984 . S
H340 N328 0.984 . S
H341 N328 0.985 . S
C342 C343 1.363 . S
C342 C348 1.379 . S
C342 N350 1.356 . S
C343 C342 1.363 . S
C343 C349 1.363 . S
C344 C345 1.363 . S
C344 C349 1.379 . S
C344 N351 1.356 . S
C345 C344 1.363 . S
C345 C348 1.363 . S
N346 C348 1.356 . S
N346 H358 0.984 . S
N346 H359 0.985 . S
N347 C349 1.356 . S
N347 H352 0.984 . S
N347 H353 0.985 . S
C348 C342 1.379 . S
C348 C345 1.363 . S
C348 N346 1.356 . S
C349 C343 1.363 . S
C349 C344 1.379 . S
C349 N347 1.356 . S
N350 C342 1.356 . S
N350 H356 0.984 . S
N350 H357 0.984 . S
N351 C344 1.356 . S
N351 H354 0.984 . S
N351 H355 0.985 . S
H352 N347 0.984 . S
H353 N347 0.985 . S
H354 N351 0.984 . S
H355 N351 0.985 . S
H356 N350 0.984 . S
H357 N350 0.984 . S
H358 N346 0.984 . S
H359 N346 0.985 . S
C360 C361 1.363 . S
C360 C366 1.379 . S
C360 N368 1.356 . S
C361 C360 1.363 . S
C361 C367 1.363 1_655 S
C362 C363 1.363 1_455 S
C362 C367 1.379 . S
C362 N369 1.356 . S
C363 C362 1.363 1_655 S
C363 C366 1.363 . S
N364 C366 1.356 . S
N364 H376 0.984 . S
N364 H377 0.985 1_556 S
N365 C367 1.356 . S
N365 H370 0.984 . S
N365 H371 0.985 . S
C366 C360 1.379 . S
C366 C363 1.363 . S
C366 N364 1.356 . S
C367 C361 1.363 1_455 S
C367 C362 1.379 . S
C367 N365 1.356 . S
N368 C360 1.356 . S
N368 H374 0.984 . S
N368 H375 0.984 . S
N369 C362 1.356 . S
N369 H372 0.984 1_556 S
N369 H373 0.985 . S
H370 N365 0.984 . S
H371 N365 0.985 . S
H372 N369 0.984 1_554 S
H373 N369 0.985 . S
H374 N368 0.984 . S
H375 N368 0.984 . S
H376 N364 0.984 . S
H377 N364 0.985 1_554 S
C378 C379 1.363 . S
C378 C384 1.379 . S
C378 N386 1.356 . S
C379 C378 1.363 . S
C379 C385 1.363 . S
C380 C381 1.363 . S
C380 C385 1.379 . S
C380 N387 1.356 . S
C381 C380 1.363 . S
C381 C384 1.363 . S
N382 C384 1.356 . S
N382 H394 0.984 . S
N382 H395 0.985 . S
N383 C385 1.356 . S
N383 H388 0.984 . S
N383 H389 0.985 . S
C384 C378 1.379 . S
C384 C381 1.363 . S
C384 N382 1.356 . S
C385 C379 1.363 . S
C385 C380 1.379 . S
C385 N383 1.356 . S
N386 C378 1.356 . S
N386 H392 0.984 . S
N386 H393 0.984 1_556 S
N387 C380 1.356 . S
N387 H390 0.984 . S
N387 H391 0.985 . S
H388 N383 0.984 . S
H389 N383 0.985 . S
H390 N387 0.984 . S
H391 N387 0.985 . S
H392 N386 0.984 . S
H393 N386 0.984 1_554 S
H394 N382 0.984 . S
H395 N382 0.985 . S
C396 C397 1.363 . S
C396 C402 1.379 . S
C396 N404 1.356 . S
C397 C396 1.363 . S
C397 C403 1.363 . S
C398 C399 1.363 . S
C398 C403 1.379 . S
C398 N405 1.356 . S
C399 C398 1.363 . S
C399 C402 1.363 . S
N400 C402 1.356 1_565 S
N400 H412 0.984 . S
N400 H413 0.985 . S
N401 C403 1.356 . S
N401 H406 0.984 1_556 S
N401 H407 0.985 . S
C402 C396 1.379 . S
C402 C399 1.363 . S
C402 N400 1.356 1_545 S
C403 C397 1.363 . S
C403 C398 1.379 . S
C403 N401 1.356 . S
N404 C396 1.356 . S
N404 H410 0.984 1_545 S
N404 H411 0.984 1_556 S
N405 C398 1.356 . S
N405 H408 0.984 . S
N405 H409 0.985 . S
H406 N401 0.984 1_554 S
H407 N401 0.985 . S
H408 N405 0.984 . S
H409 N405 0.985 . S
H410 N404 0.984 1_565 S
H411 N404 0.984 1_554 S
H412 N400 0.984 . S
H413 N400 0.985 . S
C414 C415 1.363 . S
C414 C420 1.379 . S
C414 N422 1.356 1_565 S
C415 C414 1.363 . S
C415 C421 1.363 . S
C416 C417 1.363 . S
C416 C421 1.379 . S
C416 N423 1.356 . S
C417 C416 1.363 . S
C417 C420 1.363 . S
N418 C420 1.356 . S
N418 H430 0.984 1_565 S
N418 H431 0.985 . S
N419 C421 1.356 . S
N419 H424 0.984 . S
N419 H425 0.985 . S
C420 C414 1.379 . S
C420 C417 1.363 . S
C420 N418 1.356 . S
C421 C415 1.363 . S
C421 C416 1.379 . S
C421 N419 1.356 . S
N422 C414 1.356 1_545 S
N422 H428 0.984 . S
N422 H429 0.984 . S
N423 C416 1.356 . S
N423 H426 0.984 . S
N423 H427 0.985 . S
H424 N419 0.984 . S
H425 N419 0.985 . S
H426 N423 0.984 . S
H427 N423 0.985 . S
H428 N422 0.984 . S
H429 N422 0.984 . S
H430 N418 0.984 1_545 S
H431 N418 0.985 . S
C432 C433 1.363 . S
C432 C438 1.379 . S
C432 N440 1.356 . S
C433 C432 1.363 . S
C433 C439 1.363 . S
C434 C435 1.363 . S
C434 C439 1.379 . S
C434 N441 1.356 . S
C435 C434 1.363 . S
C435 C438 1.363 . S
N436 C438 1.356 . S
N436 H448 0.984 . S
N436 H449 0.985 . S
N437 C439 1.356 . S
N437 H442 0.984 . S
N437 H443 0.985 1_455 S
C438 C432 1.379 . S
C438 C435 1.363 . S
C438 N436 1.356 . S
C439 C433 1.363 . S
C439 C434 1.379 . S
C439 N437 1.356 . S
N440 C432 1.356 . S
N440 H446 0.984 . S
N440 H447 0.984 . S
N441 C434 1.356 . S
N441 H444 0.984 . S
N441 H445 0.985 . S
H442 N437 0.984 . S
H443 N437 0.985 1_655 S
H444 N441 0.984 . S
H445 N441 0.985 . S
H446 N440 0.984 . S
H447 N440 0.984 . S
H448 N436 0.984 . S
H449 N436 0.985 . S
C450 C451 1.363 . S
C450 C456 1.379 . S
C450 N458 1.356 . S
C451 C450 1.363 . S
C451 C457 1.363 . S
C452 C453 1.363 . S
C452 C457 1.379 . S
C452 N459 1.356 . S
C453 C452 1.363 . S
C453 C456 1.363 . S
N454 C456 1.356 . S
N454 H466 0.984 . S
N454 H467 0.985 . S
N455 C457 1.356 . S
N455 H460 0.984 . S
N455 H461 0.985 . S
C456 C450 1.379 . S
C456 C453 1.363 . S
C456 N454 1.356 . S
C457 C451 1.363 . S
C457 C452 1.379 . S
C457 N455 1.356 . S
N458 C450 1.356 . S
N458 H464 0.984 . S
N458 H465 0.984 . S
N459 C452 1.356 . S
N459 H462 0.984 . S
N459 H463 0.985 . S
H460 N455 0.984 . S
H461 N455 0.985 . S
H462 N459 0.984 . S
H463 N459 0.985 . S
H464 N458 0.984 . S
H465 N458 0.984 . S
H466 N454 0.984 . S
H467 N454 0.985 . S
C468 C469 1.363 . S
C468 C474 1.379 . S
C468 N476 1.356 . S
C469 C468 1.363 . S
C469 C475 1.363 . S
C470 C471 1.363 . S
C470 C475 1.379 . S
C470 N477 1.356 . S
C471 C470 1.363 . S
C471 C474 1.363 . S
N472 C474 1.356 . S
N472 H484 0.984 . S
N472 H485 0.985 . S
N473 C475 1.356 . S
N473 H478 0.984 . S
N473 H479 0.985 . S
C474 C468 1.379 . S
C474 C471 1.363 . S
C474 N472 1.356 . S
C475 C469 1.363 . S
C475 C470 1.379 . S
C475 N473 1.356 . S
N476 C468 1.356 . S
N476 H482 0.984 . S
N476 H483 0.984 . S
N477 C470 1.356 . S
N477 H480 0.984 . S
N477 H481 0.985 . S
H478 N473 0.984 . S
H479 N473 0.985 . S
H480 N477 0.984 . S
H481 N477 0.985 . S
H482 N476 0.984 . S
H483 N476 0.984 . S
H484 N472 0.984 . S
H485 N472 0.985 . S
C486 C487 1.363 1_565 S
C486 C492 1.379 . S
C486 N494 1.356 . S
C487 C486 1.363 1_545 S
C487 C493 1.363 . S
C488 C489 1.363 1_545 S
C488 C493 1.379 . S
C488 N495 1.356 . S
C489 C488 1.363 1_565 S
C489 C492 1.363 . S
N490 C492 1.356 . S
N490 H502 0.984 . S
N490 H503 0.985 . S
N491 C493 1.356 . S
N491 H496 0.984 . S
N491 H497 0.985 . S
C492 C486 1.379 . S
C492 C489 1.363 . S
C492 N490 1.356 . S
C493 C487 1.363 . S
C493 C488 1.379 . S
C493 N491 1.356 . S
N494 C486 1.356 . S
N494 H500 0.984 . S
N494 H501 0.984 . S
N495 C488 1.356 . S
N495 H498 0.984 . S
N495 H499 0.985 . S
H496 N491 0.984 . S
H497 N491 0.985 . S
H498 N495 0.984 . S
H499 N495 0.985 . S
H500 N494 0.984 . S
H501 N494 0.984 . S
H502 N490 0.984 . S
H503 N490 0.985 . S
C504 C505 1.363 . S
C504 C510 1.379 . S
C504 N512 1.356 . S
C505 C504 1.363 . S
C505 C511 1.363 . S
C506 C507 1.363 . S
C506 C511 1.379 . S
C506 N513 1.356 . S
C507 C506 1.363 . S
C507 C510 1.363 . S
N508 C510 1.356 1_655 S
N508 H520 0.984 . S
N508 H521 0.985 . S
N509 C511 1.356 . S
N509 H514 0.984 . S
N509 H515 0.985 . S
C510 C504 1.379 . S
C510 C507 1.363 . S
C510 N508 1.356 1_455 S
C511 C505 1.363 . S
C511 C506 1.379 . S
C511 N509 1.356 . S
N512 C504 1.356 . S
N512 H518 0.984 . S
N512 H519 0.984 . S
N513 C506 1.356 . S
N513 H516 0.984 . S
N513 H517 0.985 . S
H514 N509 0.984 . S
H515 N509 0.985 . S
H516 N513 0.984 . S
H517 N513 0.985 . S
H518 N512 0.984 . S
H519 N512 0.984 . S
H520 N508 0.984 . S
H521 N508 0.985 . S
C522 C523 1.363 . S
C522 C528 1.379 . S
C522 N530 1.356 . S
C523 C522 1.363 . S
C523 C529 1.363 . S
C524 C525 1.363 . S
C524 C529 1.379 . S
C524 N531 1.356 . S
C525 C524 1.363 . S
C525 C528 1.363 . S
N526 C528 1.356 . S
N526 H538 0.984 . S
N526 H539 0.985 . S
N527 C529 1.356 . S
N527 H532 0.984 . S
N527 H533 0.985 . S
C528 C522 1.379 . S
C528 C525 1.363 . S
C528 N526 1.356 . S
C529 C523 1.363 . S
C529 C524 1.379 . S
C529 N527 1.356 . S
N530 C522 1.356 . S
N530 H536 0.984 . S
N530 H537 0.984 . S
N531 C524 1.356 . S
N531 H534 0.984 . S
N531 H535 0.985 . S
H532 N527 0.984 . S
H533 N527 0.985 . S
H534 N531 0.984 . S
H535 N531 0.985 . S
H536 N530 0.984 . S
H537 N530 0.984 . S
H538 N526 0.984 . S
H539 N526 0.985 . S
C540 C541 1.363 . S
C540 C546 1.379 . S
C540 N548 1.356 . S
C541 C540 1.363 . S
C541 C547 1.363 1_545 S
C542 C543 1.363 . S
C542 C547 1.379 . S
C542 N549 1.356 . S
C543 C542 1.363 . S
C543 C546 1.363 1_565 S
N544 C546 1.358 . S
N544 H556 0.986 . S
N544 H557 0.981 1_545 S
N545 C547 1.356 . S
N545 H550 0.984 1_565 S
N545 H551 0.985 . S
C546 C540 1.379 . S
C546 C543 1.363 1_545 S
C546 N544 1.358 . S
C547 C541 1.363 1_565 S
C547 C542 1.379 . S
C547 N545 1.356 . S
N548 C540 1.356 . S
N548 H554 0.984 . S
N548 H555 0.984 . S
N549 C542 1.356 . S
N549 H552 0.984 . S
N549 H553 0.985 . S
H550 N545 0.984 1_545 S
H551 N545 0.985 . S
H552 N549 0.984 . S
H553 N549 0.985 . S
H554 N548 0.984 . S
H555 N548 0.984 . S
H556 N544 0.986 . S
H557 N544 0.981 1_565 S
C558 C559 1.363 . S
C558 C564 1.379 . S
C558 N566 1.356 . S
C559 C558 1.363 . S
C559 C565 1.363 . S
C560 C561 1.363 . S
C560 C565 1.379 . S
C560 N567 1.356 . S
C561 C560 1.363 . S
C561 C564 1.363 . S
N562 C564 1.356 1_655 S
N562 H574 0.984 . S
N562 H575 0.985 . S
N563 C565 1.356 . S
N563 H568 0.984 . S
N563 H569 0.985 . S
C564 C558 1.379 . S
C564 C561 1.363 . S
C564 N562 1.356 1_455 S
C565 C559 1.363 . S
C565 C560 1.379 . S
C565 N563 1.356 . S
N566 C558 1.356 . S
N566 H572 0.984 1_455 S
N566 H573 0.984 . S
N567 C560 1.356 . S
N567 H570 0.984 . S
N567 H571 0.985 . S
H568 N563 0.984 . S
H569 N563 0.985 . S
H570 N567 0.984 . S
H571 N567 0.985 . S
H572 N566 0.984 1_655 S
H573 N566 0.984 . S
H574 N562 0.984 . S
H575 N562 0.985 . S
C576 C577 1.363 . S
C576 C582 1.379 . S
C576 N584 1.356 . S
C577 C576 1.363 . S
C577 C583 1.363 . S
C578 C579 1.363 . S
C578 C583 1.379 . S
C578 N585 1.356 . S
C579 C578 1.363 . S
C579 C582 1.363 . S
N580 C582 1.356 . S
N580 H592 0.984 . S
N580 H593 0.985 . S
N581 C583 1.356 . S
N581 H586 0.984 . S
N581 H587 0.985 . S
C582 C576 1.379 . S
C582 C579 1.363 . S
C582 N580 1.356 . S
C583 C577 1.363 . S
C583 C578 1.379 . S
C583 N581 1.356 . S
N584 C576 1.356 . S
N584 H590 0.984 . S
N584 H591 0.984 . S
N585 C578 1.356 . S
N585 H588 0.984 . S
N585 H589 0.985 . S
H586 N581 0.984 . S
H587 N581 0.985 . S
H588 N585 0.984 . S
H589 N585 0.985 . S
H590 N584 0.984 . S
H591 N584 0.984 . S
H592 N580 0.984 . S
H593 N580 0.985 . S
C594 C595 1.363 . S
C594 C600 1.379 . S
C594 N602 1.356 . S
C595 C594 1.363 . S
C595 C601 1.363 . S
C596 C597 1.363 . S
C596 C601 1.379 . S
C596 N603 1.356 . S
C597 C596 1.363 . S
C597 C600 1.363 . S
N598 C600 1.356 . S
N598 H610 0.984 . S
N598 H611 0.985 . S
N599 C601 1.356 . S
N599 H604 0.984 . S
N599 H605 0.985 . S
C600 C594 1.379 . S
C600 C597 1.363 . S
C600 N598 1.356 . S
C601 C595 1.363 . S
C601 C596 1.379 . S
C601 N599 1.356 . S
N602 C594 1.356 . S
N602 H608 0.984 . S
N602 H609 0.984 . S
N603 C596 1.356 . S
N603 H606 0.984 . S
N603 H607 0.985 . S
H604 N599 0.984 . S
H605 N599 0.985 . S
H606 N603 0.984 . S
H607 N603 0.985 . S
H608 N602 0.984 . S
H609 N602 0.984 . S
H610 N598 0.984 . S
H611 N598 0.985 . S
C612 C613 1.363 . S
C612 C618 1.379 . S
C612 N620 1.356 . S
C613 C612 1.363 . S
C613 C619 1.363 . S
C614 C615 1.363 . S
C614 C619 1.379 . S
C614 N621 1.356 . S
C615 C614 1.363 . S
C615 C618 1.363 . S
N616 C618 1.356 . S
N616 H628 0.984 . S
N616 H629 0.985 . S
N617 C619 1.356 . S
N617 H622 0.984 . S
N617 H623 0.985 . S
C618 C612 1.379 . S
C618 C615 1.363 . S
C618 N616 1.356 . S
C619 C613 1.363 . S
C619 C614 1.379 . S
C619 N617 1.356 . S
N620 C612 1.356 . S
N620 H626 0.984 . S
N620 H627 0.984 . S
N621 C614 1.356 . S
N621 H624 0.984 . S
N621 H625 0.985 . S
H622 N617 0.984 . S
H623 N617 0.985 . S
H624 N621 0.984 . S
H625 N621 0.985 . S
H626 N620 0.984 . S
H627 N620 0.984 . S
H628 N616 0.984 . S
H629 N616 0.985 . S
C630 C631 1.363 . S
C630 C636 1.379 . S
C630 N638 1.356 . S
C631 C630 1.363 . S
C631 C637 1.363 . S
C632 C633 1.363 . S
C632 C637 1.379 . S
C632 N639 1.356 . S
C633 C632 1.363 . S
C633 C636 1.363 . S
N634 C636 1.356 . S
N634 H646 0.984 . S
N634 H647 0.985 . S
N635 C637 1.356 . S
N635 H640 0.984 . S
N635 H641 0.985 . S
C636 C630 1.379 . S
C636 C633 1.363 . S
C636 N634 1.356 . S
C637 C631 1.363 . S
C637 C632 1.379 . S
C637 N635 1.356 . S
N638 C630 1.356 . S
N638 H644 0.984 . S
N638 H645 0.984 . S
N639 C632 1.356 . S
N639 H642 0.984 . S
N639 H643 0.985 . S
H640 N635 0.984 . S
H641 N635 0.985 . S
H642 N639 0.984 . S
H643 N639 0.985 . S
H644 N638 0.984 . S
H645 N638 0.984 . S
H646 N634 0.984 . S
H647 N634 0.985 . S
C648 C649 1.363 . S
C648 C654 1.379 . S
C648 N656 1.356 . S
C649 C648 1.363 . S
C649 C655 1.363 . S
C650 C651 1.363 . S
C650 C655 1.379 . S
C650 N657 1.356 . S
C651 C650 1.363 . S
C651 C654 1.363 . S
N652 C654 1.356 . S
N652 H664 0.984 . S
N652 H665 0.985 . S
N653 C655 1.356 . S
N653 H658 0.984 . S
N653 H659 0.985 . S
C654 C648 1.379 . S
C654 C651 1.363 . S
C654 N652 1.356 . S
C655 C649 1.363 . S
C655 C650 1.379 . S
C655 N653 1.356 . S
N656 C648 1.356 . S
N656 H662 0.984 . S
N656 H663 0.984 . S
N657 C650 1.356 . S
N657 H660 0.984 . S
N657 H661 0.985 . S
H658 N653 0.984 . S
H659 N653 0.985 . S
H660 N657 0.984 . S
H661 N657 0.985 . S
H662 N656 0.984 . S
H663 N656 0.984 . S
H664 N652 0.984 . S
H665 N652 0.985 . S
C666 C667 1.363 . S
C666 C672 1.379 . S
C666 N674 1.356 . S
C667 C666 1.363 . S
C667 C673 1.363 . S
C668 C669 1.363 . S
C668 C673 1.379 . S
C668 N675 1.356 . S
C669 C668 1.363 . S
C669 C672 1.363 . S
N670 C672 1.356 . S
N670 H682 0.984 . S
N670 H683 0.985 . S
N671 C673 1.356 . S
N671 H676 0.984 . S
N671 H677 0.985 . S
C672 C666 1.379 . S
C672 C669 1.363 . S
C672 N670 1.356 . S
C673 C667 1.363 . S
C673 C668 1.379 . S
C673 N671 1.356 . S
N674 C666 1.356 . S
N674 H680 0.984 . S
N674 H681 0.984 . S
N675 C668 1.356 . S
N675 H678 0.984 . S
N675 H679 0.985 . S
H676 N671 0.984 . S
H677 N671 0.985 . S
H678 N675 0.984 . S
H679 N675 0.985 . S
H680 N674 0.984 . S
H681 N674 0.984 . S
H682 N670 0.984 . S
H683 N670 0.985 . S
C684 C685 1.363 . S
C684 C690 1.379 . S
C684 N692 1.356 . S
C685 C684 1.363 . S
C685 C691 1.363 . S
C686 C687 1.363 . S
C686 C691 1.379 . S
C686 N693 1.356 . S
C687 C686 1.363 . S
C687 C690 1.363 . S
N688 C690 1.356 . S
N688 H700 0.984 . S
N688 H701 0.985 . S
N689 C691 1.356 . S
N689 H694 0.984 . S
N689 H695 0.985 . S
C690 C684 1.379 . S
C690 C687 1.363 . S
C690 N688 1.356 . S
C691 C685 1.363 . S
C691 C686 1.379 . S
C691 N689 1.356 . S
N692 C684 1.356 . S
N692 H698 0.984 . S
N692 H699 0.984 . S
N693 C686 1.356 . S
N693 H696 0.984 . S
N693 H697 0.985 . S
H694 N689 0.984 . S
H695 N689 0.985 . S
H696 N693 0.984 . S
H697 N693 0.985 . S
H698 N692 0.984 . S
H699 N692 0.984 . S
H700 N688 0.984 . S
H701 N688 0.985 . S
C702 C703 1.363 . S
C702 C708 1.379 . S
C702 N710 1.356 . S
C703 C702 1.363 . S
C703 C709 1.363 . S
C704 C705 1.363 . S
C704 C709 1.379 . S
C704 N711 1.356 . S
C705 C704 1.363 . S
C705 C708 1.363 . S
N706 C708 1.356 . S
N706 H718 0.984 . S
N706 H719 0.985 . S
N707 C709 1.356 . S
N707 H712 0.984 . S
N707 H713 0.985 . S
C708 C702 1.379 . S
C708 C705 1.363 . S
C708 N706 1.356 . S
C709 C703 1.363 . S
C709 C704 1.379 . S
C709 N707 1.356 . S
N710 C702 1.356 . S
N710 H716 0.984 . S
N710 H717 0.984 . S
N711 C704 1.356 . S
N711 H714 0.984 . S
N711 H715 0.985 . S
H712 N707 0.984 . S
H713 N707 0.985 . S
H714 N711 0.984 . S
H715 N711 0.985 . S
H716 N710 0.984 . S
H717 N710 0.984 . S
H718 N706 0.984 . S
H719 N706 0.985 . S
C720 C721 1.363 . S
C720 C726 1.379 . S
C720 N728 1.356 . S
C721 C720 1.363 . S
C721 C727 1.363 . S
C722 C723 1.363 . S
C722 C727 1.379 . S
C722 N729 1.356 . S
C723 C722 1.363 . S
C723 C726 1.363 . S
N724 C726 1.356 . S
N724 H736 0.984 . S
N724 H737 0.985 . S
N725 C727 1.356 . S
N725 H730 0.984 . S
N725 H731 0.985 . S
C726 C720 1.379 . S
C726 C723 1.363 . S
C726 N724 1.356 . S
C727 C721 1.363 . S
C727 C722 1.379 . S
C727 N725 1.356 . S
N728 C720 1.356 . S
N728 H734 0.984 . S
N728 H735 0.984 . S
N729 C722 1.356 . S
N729 H732 0.984 . S
N729 H733 0.985 . S
H730 N725 0.984 . S
H731 N725 0.985 . S
H732 N729 0.984 . S
H733 N729 0.985 . S
H734 N728 0.984 . S
H735 N728 0.984 . S
H736 N724 0.984 . S
H737 N724 0.985 . S
C738 C739 1.363 . S
C738 C744 1.379 . S
C738 N746 1.356 . S
C739 C738 1.363 . S
C739 C745 1.363 . S
C740 C741 1.363 . S
C740 C745 1.379 . S
C740 N747 1.356 . S
C741 C740 1.363 . S
C741 C744 1.363 . S
N742 C744 1.356 . S
N742 H754 0.984 . S
N742 H755 0.985 . S
N743 C745 1.356 . S
N743 H748 0.984 . S
N743 H749 0.985 . S
C744 C738 1.379 . S
C744 C741 1.363 . S
C744 N742 1.356 . S
C745 C739 1.363 . S
C745 C740 1.379 . S
C745 N743 1.356 . S
N746 C738 1.356 . S
N746 H752 0.984 . S
N746 H753 0.984 . S
N747 C740 1.356 . S
N747 H750 0.984 . S
N747 H751 0.985 . S
H748 N743 0.984 . S
H749 N743 0.985 . S
H750 N747 0.984 . S
H751 N747 0.985 . S
H752 N746 0.984 . S
H753 N746 0.984 . S
H754 N742 0.984 . S
H755 N742 0.985 . S
C756 C757 1.363 . S
C756 C762 1.379 . S
C756 N764 1.356 . S
C757 C756 1.363 . S
C757 C763 1.363 . S
C758 C759 1.363 . S
C758 C763 1.379 . S
C758 N765 1.356 . S
C759 C758 1.363 . S
C759 C762 1.363 . S
N760 C762 1.356 . S
N760 H772 0.984 . S
N760 H773 0.985 . S
N761 C763 1.356 . S
N761 H766 0.984 . S
N761 H767 0.985 . S
C762 C756 1.379 . S
C762 C759 1.363 . S
C762 N760 1.356 . S
C763 C757 1.363 . S
C763 C758 1.379 . S
C763 N761 1.356 . S
N764 C756 1.356 . S
N764 H770 0.984 . S
N764 H771 0.984 . S
N765 C758 1.356 . S
N765 H768 0.984 . S
N765 H769 0.985 . S
H766 N761 0.984 . S
H767 N761 0.985 . S
H768 N765 0.984 . S
H769 N765 0.985 . S
H770 N764 0.984 . S
H771 N764 0.984 . S
H772 N760 0.984 . S
H773 N760 0.985 . S
C774 C775 1.363 . S
C774 C780 1.379 . S
C774 N782 1.356 . S
C775 C774 1.363 . S
C775 C781 1.363 . S
C776 C777 1.363 . S
C776 C781 1.379 . S
C776 N783 1.356 . S
C777 C776 1.363 . S
C777 C780 1.363 . S
N778 C780 1.356 . S
N778 H790 0.984 . S
N778 H791 0.985 . S
N779 C781 1.356 . S
N779 H784 0.984 . S
N779 H785 0.985 . S
C780 C774 1.379 . S
C780 C777 1.363 . S
C780 N778 1.356 . S
C781 C775 1.363 . S
C781 C776 1.379 . S
C781 N779 1.356 . S
N782 C774 1.356 . S
N782 H788 0.984 . S
N782 H789 0.984 . S
N783 C776 1.356 . S
N783 H786 0.984 . S
N783 H787 0.985 . S
H784 N779 0.984 . S
H785 N779 0.985 . S
H786 N783 0.984 . S
H787 N783 0.985 . S
H788 N782 0.984 . S
H789 N782 0.984 . S
H790 N778 0.984 . S
H791 N778 0.985 . S
C792 C793 1.363 . S
C792 C798 1.379 . S
C792 N800 1.356 . S
C793 C792 1.363 . S
C793 C799 1.363 . S
C794 C795 1.363 . S
C794 C799 1.379 . S
C794 N801 1.356 . S
C795 C794 1.363 . S
C795 C798 1.363 . S
N796 C798 1.356 . S
N796 H808 0.984 . S
N796 H809 0.985 . S
N797 C799 1.356 . S
N797 H802 0.984 . S
N797 H803 0.985 . S
C798 C792 1.379 . S
C798 C795 1.363 . S
C798 N796 1.356 . S
C799 C793 1.363 . S
C799 C794 1.379 . S
C799 N797 1.356 . S
N800 C792 1.356 . S
N800 H806 0.984 . S
N800 H807 0.984 . S
N801 C794 1.356 . S
N801 H804 0.984 . S
N801 H805 0.985 . S
H802 N797 0.984 . S
H803 N797 0.985 . S
H804 N801 0.984 . S
H805 N801 0.985 . S
H806 N800 0.984 . S
H807 N800 0.984 . S
H808 N796 0.984 . S
H809 N796 0.985 . S
C810 C811 1.363 1_565 S
C810 C816 1.379 . S
C810 N818 1.356 1_565 S
C811 C810 1.363 1_545 S
C811 C817 1.363 . S
C812 C813 1.363 . S
C812 C817 1.379 1_565 S
C812 N819 1.356 . S
C813 C812 1.363 . S
C813 C816 1.363 . S
N814 C816 1.356 . S
N814 H826 0.984 . S
N814 H827 0.985 . S
N815 C817 1.356 . S
N815 H820 0.984 . S
N815 H821 0.985 . S
C816 C810 1.379 . S
C816 C813 1.363 . S
C816 N814 1.356 . S
C817 C811 1.363 . S
C817 C812 1.379 1_545 S
C817 N815 1.356 . S
N818 C810 1.356 1_545 S
N818 H824 0.984 1_545 S
N818 H825 0.984 . S
N819 C812 1.356 . S
N819 H822 0.984 . S
N819 H823 0.985 . S
H820 N815 0.984 . S
H821 N815 0.985 . S
H822 N819 0.984 . S
H823 N819 0.985 . S
H824 N818 0.984 1_565 S
H825 N818 0.984 . S
H826 N814 0.984 . S
H827 N814 0.985 . S
C828 C829 1.363 . S
C828 C834 1.379 1_455 S
C828 N836 1.356 . S
C829 C828 1.363 . S
C829 C835 1.363 . S
C830 C831 1.363 1_455 S
C830 C835 1.379 . S
C830 N837 1.356 . S
C831 C830 1.363 1_655 S
C831 C834 1.363 . S
N832 C834 1.356 . S
N832 H844 0.984 . S
N832 H845 0.985 . S
N833 C835 1.356 . S
N833 H838 0.984 . S
N833 H839 0.985 . S
C834 C828 1.379 1_655 S
C834 C831 1.363 . S
C834 N832 1.356 . S
C835 C829 1.363 . S
C835 C830 1.379 . S
C835 N833 1.356 . S
N836 C828 1.356 . S
N836 H842 0.984 . S
N836 H843 0.984 . S
N837 C830 1.356 . S
N837 H840 0.984 1_455 S
N837 H841 0.985 . S
H838 N833 0.984 . S
H839 N833 0.985 . S
H840 N837 0.984 1_655 S
H841 N837 0.985 . S
H842 N836 0.984 . S
H843 N836 0.984 . S
H844 N832 0.984 . S
H845 N832 0.985 . S
C846 C847 1.363 . S
C846 C852 1.379 . S
C846 N854 1.356 . S
C847 C846 1.363 . S
C847 C853 1.363 . S
C848 C849 1.363 . S
C848 C853 1.379 . S
C848 N855 1.356 . S
C849 C848 1.363 . S
C849 C852 1.363 . S
N850 C852 1.356 1_554 S
N850 H862 0.984 . S
N850 H863 0.985 . S
N851 C853 1.356 . S
N851 H856 0.984 . S
N851 H857 0.985 . S
C852 C846 1.379 . S
C852 C849 1.363 . S
C852 N850 1.356 1_556 S
C853 C847 1.363 . S
C853 C848 1.379 . S
C853 N851 1.356 . S
N854 C846 1.356 . S
N854 H860 0.984 . S
N854 H861 0.984 . S
N855 C848 1.356 . S
N855 H858 0.984 . S
N855 H859 0.985 . S
H856 N851 0.984 . S
H857 N851 0.985 . S
H858 N855 0.984 . S
H859 N855 0.985 . S
H860 N854 0.984 . S
H861 N854 0.984 . S
H862 N850 0.984 . S
H863 N850 0.985 . S
C864 C865 1.363 1_546 S
C864 C870 1.379 1_556 S
C864 N872 1.356 . S
C865 C864 1.363 1_564 S
C865 C871 1.363 . S
C866 C867 1.363 . S
C866 C871 1.379 1_545 S
C866 N873 1.356 . S
C867 C866 1.363 . S
C867 C870 1.363 . S
N868 C870 1.356 . S
N868 H880 0.984 1_554 S
N868 H881 0.985 . S
N869 C871 1.356 . S
N869 H874 0.984 . S
N869 H875 0.985 . S
C870 C864 1.379 1_554 S
C870 C867 1.363 . S
C870 N868 1.356 . S
C871 C865 1.363 . S
C871 C866 1.379 1_565 S
C871 N869 1.356 . S
N872 C864 1.356 . S
N872 H878 0.983 . S
N872 H879 0.987 1_545 S
N873 C866 1.356 . S
N873 H876 0.984 . S
N873 H877 0.985 . S
H874 N869 0.984 . S
H875 N869 0.985 . S
H876 N873 0.984 . S
H877 N873 0.985 . S
H878 N872 0.983 . S
H879 N872 0.987 1_565 S
H880 N868 0.984 1_556 S
H881 N868 0.985 . S
C882 C883 1.375 . S
C882 C888 1.379 . S
C882 N890 1.356 . S
C883 C882 1.375 . S
C883 C889 1.354 1_554 S
C884 C885 1.363 1_556 S
C884 C889 1.379 . S
C884 N891 1.356 1_455 S
C885 C884 1.363 1_554 S
C885 C888 1.363 . S
N886 C888 1.356 . S
N886 H898 0.984 . S
N886 H899 0.997 . S
N887 C889 1.356 . S
N887 H892 0.984 . S
N887 H893 0.985 . S
C888 C882 1.379 . S
C888 C885 1.363 . S
C888 N886 1.356 . S
C889 C883 1.354 1_556 S
C889 C884 1.379 . S
C889 N887 1.356 . S
N890 C882 1.356 . S
N890 H896 0.984 . S
N890 H897 0.984 . S
N891 C884 1.356 1_655 S
N891 H894 0.984 . S
N891 H895 0.985 . S
H892 N887 0.984 . S
H893 N887 0.985 . S
H894 N891 0.984 . S
H895 N891 0.985 . S
H896 N890 0.984 . S
H897 N890 0.984 . S
H898 N886 0.984 . S
H899 N886 0.997 . S
C253 C9 1.506 . S
C255 C205 1.504 . S
C271 C174 1.297 . S
C273 C20 1.299 . S
C289 C34 1.159 1_565 S
C291 C191 1.192 1_554 S
C307 C93 1.632 . S
C309 C37 1.633 . S
C325 C107 1.525 . S
C327 C6 1.528 . S
C343 C121 1.511 . S
C345 C23 1.511 . S
C361 C48 1.417 . S
C363 C163 1.436 1_556 S
C379 C135 1.566 . S
C381 C65 1.566 . S
C397 C146 1.197 1_556 S
C399 C76 1.207 . S
C415 C79 1.501 . S
C417 C216 1.482 . S
C433 C51 1.294 . S
C435 C233 1.302 . S
C451 C244 1.133 . S
C453 C62 1.105 . S
C469 C177 1.252 . S
C471 C118 1.229 . S
C487 C90 1.200 . S
C489 C188 1.204 . S
C505 C202 0.871 . S
C507 C104 0.881 . S
C523 C247 1.262 . S
C525 C132 1.256 . S
C541 C149 1.391 . S
C543 C219 1.395 . S
C559 C230 1.062 . S
C561 C160 1.069 . S
C577 C217 2.132 . S
C579 C8 1.771 . S
C595 C21 1.904 . S
C597 C232 1.639 . S
C613 C35 1.852 . S
C615 C245 1.861 . S
C631 C36 1.625 . S
C633 C162 1.622 . S
C649 C134 1.783 . S
C651 C7 2.099 . S
C667 C22 1.663 . S
C669 C147 1.967 . S
C685 C92 1.654 . S
C687 C49 1.989 . S
C703 C106 1.700 . S
C705 C64 1.677 . S
C721 C77 1.973 . S
C723 C120 1.669 . S
C739 C78 1.702 . S
C741 C204 1.721 . S
C757 C50 1.561 . S
C759 C175 1.829 . S
C775 C63 1.993 . S
C777 C190 1.748 . S
C793 C119 1.893 . S
C795 C246 1.626 . S
C811 C91 2.030 . S
C813 C218 1.709 . S
C829 C231 1.949 . S
C831 C105 1.958 . S
C847 C176 1.665 . S
C849 C133 1.908 1_556 S
C865 C189 1.916 1_554 S
C867 C148 1.629 . S
C883 C203 1.930 1_554 S
C885 C161 1.933 1_455 S
