# Generated by pormake.
# Topology whp, (6)-cn, num edge types: 1
# Building blocks:
#     Node 0, Type 0, BuildingBlock: IZENUY_clean_sbu_0, # of connection points: 6
#     Node 1, Type 0, BuildingBlock: IZENUY_clean_sbu_0, # of connection points: 6
#     Node 2, Type 0, BuildingBlock: IZENUY_clean_sbu_0, # of connection points: 6
#     Node 3, Type 0, BuildingBlock: IZENUY_clean_sbu_0, # of connection points: 6
#     Node 4, Type 0, BuildingBlock: IZENUY_clean_sbu_0, # of connection points: 6
#     Node 5, Type 0, BuildingBlock: IZENUY_clean_sbu_0, # of connection points: 6
#     Node 6, Type 0, BuildingBlock: IZENUY_clean_sbu_0, # of connection points: 6
#     Node 7, Type 0, BuildingBlock: IZENUY_clean_sbu_0, # of connection points: 6
#     Node 8, Type 0, BuildingBlock: IZENUY_clean_sbu_0, # of connection points: 6
#     Node 9, Type 0, BuildingBlock: IZENUY_clean_sbu_0, # of connection points: 6
#     Node 10, Type 0, BuildingBlock: IZENUY_clean_sbu_0, # of connection points: 6
#     Node 11, Type 0, BuildingBlock: IZENUY_clean_sbu_0, # of connection points: 6
#     Node 12, Type 0, BuildingBlock: IZENUY_clean_sbu_0, # of connection points: 6
#     Node 13, Type 0, BuildingBlock: IZENUY_clean_sbu_0, # of connection points: 6
#     Node 14, Type 0, BuildingBlock: IZENUY_clean_sbu_0, # of connection points: 6
#     Node 15, Type 0, BuildingBlock: IZENUY_clean_sbu_0, # of connection points: 6
#     Edge 16, Type (0, 0), BuildingBlock: UVAHIK_clean_linker_0, # of connection points: 2
#     Edge 17, Type (0, 0), BuildingBlock: UVAHIK_clean_linker_0, # of connection points: 2
#     Edge 18, Type (0, 0), BuildingBlock: UVAHIK_clean_linker_0, # of connection points: 2
#     Edge 19, Type (0, 0), BuildingBlock: UVAHIK_clean_linker_0, # of connection points: 2
#     Edge 20, Type (0, 0), BuildingBlock: UVAHIK_clean_linker_0, # of connection points: 2
#     Edge 21, Type (0, 0), BuildingBlock: UVAHIK_clean_linker_0, # of connection points: 2
#     Edge 22, Type (0, 0), BuildingBlock: UVAHIK_clean_linker_0, # of connection points: 2
#     Edge 23, Type (0, 0), BuildingBlock: UVAHIK_clean_linker_0, # of connection points: 2
#     Edge 24, Type (0, 0), BuildingBlock: UVAHIK_clean_linker_0, # of connection points: 2
#     Edge 25, Type (0, 0), BuildingBlock: UVAHIK_clean_linker_0, # of connection points: 2
#     Edge 26, Type (0, 0), BuildingBlock: UVAHIK_clean_linker_0, # of connection points: 2
#     Edge 27, Type (0, 0), BuildingBlock: UVAHIK_clean_linker_0, # of connection points: 2
#     Edge 28, Type (0, 0), BuildingBlock: UVAHIK_clean_linker_0, # of connection points: 2
#     Edge 29, Type (0, 0), BuildingBlock: UVAHIK_clean_linker_0, # of connection points: 2
#     Edge 30, Type (0, 0), BuildingBlock: UVAHIK_clean_linker_0, # of connection points: 2
#     Edge 31, Type (0, 0), BuildingBlock: UVAHIK_clean_linker_0, # of connection points: 2
#     Edge 32, Type (0, 0), BuildingBlock: UVAHIK_clean_linker_0, # of connection points: 2
#     Edge 33, Type (0, 0), BuildingBlock: UVAHIK_clean_linker_0, # of connection points: 2
#     Edge 34, Type (0, 0), BuildingBlock: UVAHIK_clean_linker_0, # of connection points: 2
#     Edge 35, Type (0, 0), BuildingBlock: UVAHIK_clean_linker_0, # of connection points: 2
#     Edge 36, Type (0, 0), BuildingBlock: UVAHIK_clean_linker_0, # of connection points: 2
#     Edge 37, Type (0, 0), BuildingBlock: UVAHIK_clean_linker_0, # of connection points: 2
#     Edge 38, Type (0, 0), BuildingBlock: UVAHIK_clean_linker_0, # of connection points: 2
#     Edge 39, Type (0, 0), BuildingBlock: UVAHIK_clean_linker_0, # of connection points: 2
#     Edge 40, Type (0, 0), BuildingBlock: UVAHIK_clean_linker_0, # of connection points: 2
#     Edge 41, Type (0, 0), BuildingBlock: UVAHIK_clean_linker_0, # of connection points: 2
#     Edge 42, Type (0, 0), BuildingBlock: UVAHIK_clean_linker_0, # of connection points: 2
#     Edge 43, Type (0, 0), BuildingBlock: UVAHIK_clean_linker_0, # of connection points: 2
#     Edge 44, Type (0, 0), BuildingBlock: UVAHIK_clean_linker_0, # of connection points: 2
#     Edge 45, Type (0, 0), BuildingBlock: UVAHIK_clean_linker_0, # of connection points: 2
#     Edge 46, Type (0, 0), BuildingBlock: UVAHIK_clean_linker_0, # of connection points: 2
#     Edge 47, Type (0, 0), BuildingBlock: UVAHIK_clean_linker_0, # of connection points: 2
#     Edge 48, Type (0, 0), BuildingBlock: UVAHIK_clean_linker_0, # of connection points: 2
#     Edge 49, Type (0, 0), BuildingBlock: UVAHIK_clean_linker_0, # of connection points: 2
#     Edge 50, Type (0, 0), BuildingBlock: UVAHIK_clean_linker_0, # of connection points: 2
#     Edge 51, Type (0, 0), BuildingBlock: UVAHIK_clean_linker_0, # of connection points: 2
#     Edge 52, Type (0, 0), BuildingBlock: UVAHIK_clean_linker_0, # of connection points: 2
#     Edge 53, Type (0, 0), BuildingBlock: UVAHIK_clean_linker_0, # of connection points: 2
#     Edge 54, Type (0, 0), BuildingBlock: UVAHIK_clean_linker_0, # of connection points: 2
#     Edge 55, Type (0, 0), BuildingBlock: UVAHIK_clean_linker_0, # of connection points: 2
#     Edge 56, Type (0, 0), BuildingBlock: UVAHIK_clean_linker_0, # of connection points: 2
#     Edge 57, Type (0, 0), BuildingBlock: UVAHIK_clean_linker_0, # of connection points: 2
#     Edge 58, Type (0, 0), BuildingBlock: UVAHIK_clean_linker_0, # of connection points: 2
#     Edge 59, Type (0, 0), BuildingBlock: UVAHIK_clean_linker_0, # of connection points: 2
#     Edge 60, Type (0, 0), BuildingBlock: UVAHIK_clean_linker_0, # of connection points: 2
#     Edge 61, Type (0, 0), BuildingBlock: UVAHIK_clean_linker_0, # of connection points: 2
#     Edge 62, Type (0, 0), BuildingBlock: UVAHIK_clean_linker_0, # of connection points: 2
#     Edge 63, Type (0, 0), BuildingBlock: UVAHIK_clean_linker_0, # of connection points: 2
# Relax obj value: 0.321
# Max RMSD: 0.246
# Mean RMSD: 0.246
data_MOF--net-whp--node1-IZENUY_clean_sbu_0--edge1-UVAHIK_clean_linker_0
_symmetry_space_group_name_H-M    P1
_symmetry_Int_Tables_number       1
_symmetry_cell_setting            triclinic
loop_
_symmetry_equiv_pos_as_xyz
'x, y, z'
_cell_length_a     61.010655
_cell_length_b     61.021017
_cell_length_c     36.949355
_cell_angle_alpha  89.995854
_cell_angle_beta   90.021784
_cell_angle_gamma 89.970559
loop_
_atom_site_label
_atom_site_type_symbol
_atom_site_fract_x
_atom_site_fract_y
_atom_site_fract_z
_atom_type_partial_charge
Fe0 Fe 0.33611 0.53365 0.30593 0.0
Fe1 Fe 0.30782 0.56095 0.35712 0.0
O2 O 0.31104 0.53764 0.32921 0.0
Fe3 Fe 0.28917 0.51864 0.32517 0.0
O4 O 0.28805 0.52206 0.27683 0.0
O5 O 0.32346 0.52111 0.26549 0.0
O6 O 0.33399 0.55991 0.28273 0.0
C7 C 0.33326 0.57789 0.29943 0.0
C8 C 0.32718 0.49156 0.32803 0.0
O9 O 0.32681 0.57846 0.33189 0.0
C10 C 0.28497 0.52856 0.39668 0.0
O11 O 0.35311 0.54522 0.34274 0.0
O12 O 0.3295 0.55159 0.38666 0.0
O13 O 0.30696 0.49418 0.32123 0.0
O14 O 0.34032 0.50743 0.32729 0.0
C15 C 0.26871 0.56057 0.32179 0.0
O16 O 0.28821 0.54836 0.38835 0.0
O17 O 0.28844 0.51366 0.37377 0.0
C18 C 0.34884 0.54778 0.37618 0.0
O19 O 0.28602 0.57116 0.3286 0.0
O20 O 0.26766 0.54002 0.32764 0.0
C21 C 0.3037 0.52014 0.25487 0.0
Fe22 Fe 0.99081 0.28587 0.81186 0.0
Fe23 Fe 0.97392 0.33257 0.79528 0.0
O24 O 0.97024 0.30641 0.81519 0.0
Fe25 Fe 0.94583 0.30063 0.83921 0.0
O26 O 0.9388 0.27934 0.80739 0.0
O27 O 0.9709 0.26288 0.8103 0.0
O28 O 0.98963 0.28611 0.76322 0.0
C29 C 0.99115 0.3027 0.74309 0.0
C30 C 0.9779 0.27899 0.88121 0.0
O31 O 0.98862 0.322 0.75526 0.0
C32 C 0.95539 0.34157 0.86435 0.0
O33 O 0.01424 0.30502 0.81206 0.0
O34 O 0.99888 0.33719 0.82031 0.0
O35 O 0.95833 0.28084 0.87044 0.0
O36 O 0.99356 0.28426 0.86081 0.0
C37 C 0.9303 0.32741 0.78194 0.0
O38 O 0.9599 0.34738 0.83216 0.0
O39 O 0.95184 0.32172 0.87202 0.0
C40 C 0.01547 0.32498 0.82125 0.0
O41 O 0.94903 0.33042 0.76861 0.0
O42 O 0.92825 0.31919 0.81312 0.0
C43 C 0.95068 0.26276 0.80175 0.0
Fe44 Fe 0.21608 0.98834 0.31936 0.0
Fe45 Fe 0.16933 0.9726 0.30062 0.0
O46 O 0.19441 0.9692 0.32413 0.0
Fe47 Fe 0.19775 0.94635 0.35311 0.0
O48 O 0.21953 0.93579 0.32513 0.0
O49 O 0.2377 0.96707 0.32204 0.0
O50 O 0.21715 0.98444 0.27113 0.0
C51 C 0.20149 0.98566 0.24907 0.0
C52 C 0.22083 0.97924 0.39096 0.0
O53 O 0.18176 0.98468 0.25972 0.0
C54 C 0.15665 0.95931 0.37133 0.0
O55 O 0.19806 0.01261 0.31501 0.0
O56 O 0.16481 0.99904 0.32095 0.0
O57 O 0.21754 0.95935 0.38352 0.0
O58 O 0.21693 0.99388 0.36785 0.0
C59 C 0.17225 0.92836 0.29621 0.0
O60 O 0.15254 0.96135 0.33776 0.0
O61 O 0.17602 0.95615 0.3823 0.0
C62 C 0.17781 0.01503 0.32169 0.0
O63 O 0.17178 0.94602 0.27857 0.0
O64 O 0.17873 0.92834 0.3287 0.0
C65 C 0.23673 0.94637 0.31758 0.0
Fe66 Fe 0.50971 0.21437 0.81195 0.0
Fe67 Fe 0.5238 0.16784 0.79114 0.0
O68 O 0.52901 0.19271 0.81425 0.0
Fe69 Fe 0.55341 0.19582 0.83953 0.0
O70 O 0.55625 0.22526 0.8305 0.0
O71 O 0.52983 0.23278 0.79186 0.0
O72 O 0.50071 0.20792 0.76565 0.0
C73 C 0.51063 0.1977 0.74067 0.0
C74 C 0.5244 0.21605 0.88476 0.0
O75 O 0.52334 0.18198 0.74799 0.0
C76 C 0.54041 0.15215 0.85451 0.0
O77 O 0.4884 0.19729 0.83207 0.0
O78 O 0.49391 0.16946 0.79544 0.0
O79 O 0.53819 0.20084 0.88079 0.0
O80 O 0.51536 0.22488 0.85757 0.0
C81 C 0.5697 0.17336 0.78183 0.0
O82 O 0.52417 0.15223 0.83327 0.0
O83 O 0.55487 0.167 0.85306 0.0
C84 C 0.48224 0.17932 0.81852 0.0
O85 O 0.55267 0.16153 0.78239 0.0
O86 O 0.57051 0.19083 0.80006 0.0
C87 C 0.54811 0.23733 0.80608 0.0
Fe88 Fe 0.80627 0.44887 0.14123 0.0
Fe89 Fe 0.78649 0.48967 0.17651 0.0
O90 O 0.80893 0.47157 0.17048 0.0
Fe91 Fe 0.83403 0.47613 0.19349 0.0
O92 O 0.8329 0.44961 0.21573 0.0
O93 O 0.82525 0.43116 0.1664 0.0
O94 O 0.78431 0.43755 0.16825 0.0
C95 C 0.76669 0.44753 0.17517 0.0
C96 C 0.84723 0.46263 0.12313 0.0
O97 O 0.7654 0.46819 0.17147 0.0
C98 C 0.82325 0.51792 0.17369 0.0
O99 O 0.78705 0.4623 0.11027 0.0
O100 O 0.78557 0.49648 0.12879 0.0
O101 O 0.85139 0.46534 0.15652 0.0
O102 O 0.82794 0.45898 0.1126 0.0
C103 C 0.80148 0.48609 0.24587 0.0
O104 O 0.80358 0.51438 0.18307 0.0
O105 O 0.83708 0.50266 0.17253 0.0
C106 C 0.78361 0.4824 0.10409 0.0
O107 O 0.78579 0.48388 0.2241 0.0
O108 O 0.82107 0.48781 0.23457 0.0
C109 C 0.83226 0.43173 0.19864 0.0
Fe110 Fe 0.05387 0.80508 0.65379 0.0
Fe111 Fe 0.01093 0.78775 0.68561 0.0
O112 O 0.03047 0.80912 0.68114 0.0
Fe113 Fe 0.02671 0.83465 0.70319 0.0
O114 O 0.05247 0.8323 0.7274 0.0
O115 O 0.07173 0.82361 0.67949 0.0
O116 O 0.06332 0.78321 0.68259 0.0
C117 C 0.05245 0.76605 0.68898 0.0
C118 C 0.04199 0.84621 0.63346 0.0
O119 O 0.03177 0.76558 0.68415 0.0
C120 C 0.9848 0.8262 0.67991 0.0
O121 O 0.04097 0.78563 0.62276 0.0
O122 O 0.00619 0.78662 0.63704 0.0
O123 O 0.03935 0.85089 0.66663 0.0
O124 O 0.04531 0.82673 0.62351 0.0
C125 C 0.01242 0.80333 0.75509 0.0
O126 O 0.9869 0.80617 0.68846 0.0
O127 O 1.00094 0.83903 0.68045 0.0
C128 C 0.02113 0.78263 0.6145 0.0
O129 O 0.01409 0.78723 0.734 0.0
O130 O 0.01341 0.82288 0.74353 0.0
C131 C 0.07072 0.83039 0.71179 0.0
Fe132 Fe 0.69978 0.06111 0.14773 0.0
Fe133 Fe 0.71583 0.01721 0.17778 0.0
O134 O 0.6947 0.03702 0.17295 0.0
Fe135 Fe 0.6686 0.03276 0.19268 0.0
O136 O 0.67003 0.05796 0.21854 0.0
O137 O 0.6808 0.07854 0.17334 0.0
O138 O 0.72101 0.06936 0.17904 0.0
C139 C 0.73786 0.05802 0.18545 0.0
C140 C 0.65896 0.05033 0.12318 0.0
O141 O 0.73826 0.03768 0.17798 0.0
C142 C 0.6777 0.99129 0.16864 0.0
O143 O 0.71981 0.04846 0.11703 0.0
O144 O 0.71761 0.01334 0.12906 0.0
O145 O 0.65337 0.04608 0.15554 0.0
O146 O 0.67875 0.05401 0.11522 0.0
C147 C 0.69875 0.01777 0.24624 0.0
O148 O 0.69733 0.99331 0.17921 0.0
O149 O 0.6649 0.00743 0.16811 0.0
C150 C 0.72231 0.02869 0.1076 0.0
O151 O 0.71541 0.01972 0.22634 0.0
O152 O 0.67948 0.01879 0.23328 0.0
C153 C 0.67259 0.07661 0.2046 0.0
Fe154 Fe 0.49097 0.71058 0.68357 0.0
Fe155 Fe 0.47942 0.66368 0.70694 0.0
O156 O 0.47268 0.68798 0.68298 0.0
Fe157 Fe 0.44777 0.6895 0.65861 0.0
O158 O 0.44329 0.71878 0.66725 0.0
O159 O 0.47043 0.72858 0.70308 0.0
O160 O 0.50048 0.70535 0.72984 0.0
C161 C 0.49101 0.69534 0.7555 0.0
C162 C 0.47518 0.71048 0.61142 0.0
O163 O 0.47957 0.67848 0.74953 0.0
C164 C 0.46324 0.64654 0.64436 0.0
O165 O 0.51292 0.69418 0.66385 0.0
O166 O 0.50913 0.6667 0.70173 0.0
O167 O 0.46199 0.69489 0.61643 0.0
O168 O 0.48437 0.71997 0.63778 0.0
C169 C 0.43339 0.66693 0.71749 0.0
O170 O 0.47952 0.64763 0.66538 0.0
O171 O 0.44786 0.66046 0.64588 0.0
C172 C 0.52 0.6767 0.67781 0.0
O173 O 0.45095 0.65589 0.71675 0.0
O174 O 0.43162 0.68415 0.69889 0.0
C175 C 0.4515 0.73176 0.69032 0.0
Fe176 Fe 0.71618 0.48686 0.6756 0.0
Fe177 Fe 0.66946 0.47175 0.69513 0.0
O178 O 0.6941 0.46822 0.67044 0.0
Fe179 Fe 0.69661 0.4459 0.64032 0.0
O180 O 0.71919 0.43474 0.66623 0.0
O181 O 0.73762 0.46574 0.66942 0.0
O182 O 0.71795 0.4811 0.72322 0.0
C183 C 0.70262 0.48282 0.74578 0.0
C184 C 0.71836 0.47999 0.60299 0.0
O185 O 0.68279 0.48351 0.73558 0.0
C186 C 0.65512 0.45936 0.62511 0.0
O187 O 0.6985 0.51118 0.68294 0.0
O188 O 0.66513 0.49832 0.67518 0.0
O189 O 0.71517 0.45983 0.60888 0.0
O190 O 0.7162 0.49387 0.62793 0.0
C191 C 0.67215 0.42743 0.69835 0.0
O192 O 0.65173 0.46094 0.6589 0.0
O193 O 0.67418 0.45608 0.61305 0.0
C194 C 0.67841 0.51408 0.6753 0.0
O195 O 0.67191 0.44496 0.71645 0.0
O196 O 0.67832 0.42759 0.66565 0.0
C197 C 0.7367 0.44502 0.67288 0.0
Fe198 Fe 0.01115 0.71424 0.18562 0.0
Fe199 Fe 0.02615 0.66775 0.20502 0.0
O200 O 0.03046 0.69266 0.18127 0.0
Fe201 Fe 0.05393 0.69591 0.15362 0.0
O202 O 0.05746 0.72516 0.16366 0.0
O203 O 0.03182 0.7327 0.20379 0.0
O204 O 0.00393 0.70762 0.23266 0.0
C205 C 0.01476 0.69748 0.25667 0.0
C206 C 0.02345 0.71677 0.11161 0.0
O207 O 0.02743 0.68195 0.24814 0.0
C208 C 0.03936 0.65271 0.13887 0.0
O209 O 0.98922 0.69707 0.1676 0.0
O210 O 0.99614 0.66944 0.20392 0.0
O211 O 0.03751 0.70174 0.11403 0.0
O212 O 0.01492 0.72502 0.13967 0.0
C213 C 0.07229 0.6728 0.20929 0.0
O214 O 0.02483 0.65214 0.16321 0.0
O215 O 0.05411 0.66733 0.13852 0.0
C216 C 0.98353 0.67923 0.18209 0.0
O217 O 0.05519 0.66116 0.21055 0.0
O218 O 0.07256 0.69023 0.19096 0.0
C219 C 0.04981 0.73721 0.18856 0.0
Fe220 Fe 0.78468 0.01124 0.67864 0.0
Fe221 Fe 0.8322 0.02621 0.69321 0.0
O222 O 0.80606 0.03077 0.67382 0.0
Fe223 Fe 0.80116 0.05505 0.64898 0.0
O224 O 0.78055 0.06352 0.68101 0.0
O225 O 0.76263 0.03221 0.68001 0.0
O226 O 0.7855 0.01326 0.72723 0.0
C227 C 0.80223 0.01136 0.74699 0.0
C228 C 0.77765 0.02342 0.60889 0.0
O229 O 0.82146 0.01242 0.73395 0.0
C230 C 0.84147 0.04377 0.62346 0.0
O231 O 0.80286 0.98698 0.67898 0.0
O232 O 0.8355 1.00086 0.66882 0.0
O233 O 0.7805 0.04303 0.61879 0.0
O234 O 0.78237 0.00781 0.62981 0.0
C235 C 0.82909 0.07009 0.7051 0.0
O236 O 0.84727 0.03928 0.65568 0.0
O237 O 0.82166 0.04764 0.61591 0.0
C238 C 0.82263 0.98477 0.66914 0.0
O239 O 0.83125 0.05143 0.71912 0.0
O240 O 0.82075 0.0721 0.67397 0.0
C241 C 0.76356 0.05252 0.6878 0.0
Fe242 Fe 0.47781 0.8365 0.20591 0.0
Fe243 Fe 0.45119 0.80986 0.15051 0.0
O244 O 0.47381 0.81224 0.1802 0.0
Fe245 Fe 0.4927 0.79032 0.18436 0.0
O246 O 0.49911 0.79586 0.23195 0.0
O247 O 0.47554 0.82127 0.24791 0.0
O248 O 0.44863 0.84293 0.21045 0.0
C249 C 0.4316 0.83133 0.20684 0.0
C250 C 0.52053 0.82526 0.18361 0.0
O251 O 0.43159 0.81469 0.1866 0.0
C252 C 0.48256 0.78981 0.10973 0.0
O253 O 0.48001 0.85326 0.16534 0.0
O254 O 0.45139 0.83878 0.13762 0.0
O255 O 0.51502 0.80761 0.16824 0.0
O256 O 0.50785 0.83454 0.206 0.0
C257 C 0.4538 0.76802 0.18391 0.0
O258 O 0.4689 0.80517 0.11199 0.0
O259 O 0.48956 0.78033 0.13784 0.0
C260 C 0.46607 0.85335 0.14004 0.0
O261 O 0.44724 0.78031 0.15839 0.0
O262 O 0.47142 0.77202 0.20056 0.0
C263 C 0.48725 0.80491 0.25574 0.0
Fe264 Fe 0.16773 0.5291 0.80581 0.0
Fe265 Fe 0.19671 0.5561 0.85629 0.0
O266 O 0.19291 0.53262 0.82905 0.0
Fe267 Fe 0.21427 0.51297 0.82571 0.0
O268 O 0.2155 0.51585 0.77726 0.0
O269 O 0.18008 0.5159 0.76571 0.0
O270 O 0.17048 0.555 0.78194 0.0
C271 C 0.17171 0.57314 0.79806 0.0
C272 C 0.17555 0.48703 0.82937 0.0
O273 O 0.17822 0.57389 0.83049 0.0
C274 C 0.21879 0.52363 0.89685 0.0
O275 O 0.15105 0.54157 0.84221 0.0
O276 O 0.17481 0.54756 0.8861 0.0
O277 O 0.19583 0.48898 0.8225 0.0
O278 O 0.16283 0.50324 0.82789 0.0
C279 C 0.23589 0.55431 0.82144 0.0
O280 O 0.21597 0.54338 0.88783 0.0
O281 O 0.21491 0.50852 0.87451 0.0
C282 C 0.15542 0.54418 0.87558 0.0
O283 O 0.21881 0.56542 0.8276 0.0
O284 O 0.23634 0.53377 0.82761 0.0
C285 C 0.19984 0.51448 0.75518 0.0
Fe286 Fe 0.95018 0.2023 0.34471 0.0
Fe287 Fe 0.99383 0.21727 0.31202 0.0
O288 O 0.97353 0.19671 0.31784 0.0
Fe289 Fe 0.9765 0.17059 0.29748 0.0
O290 O 0.95076 0.17297 0.27328 0.0
O291 O 0.93162 0.1839 0.32005 0.0
O292 O 0.94172 0.22387 0.31447 0.0
C293 C 0.95325 0.24047 0.30738 0.0
C294 C 0.96021 0.16112 0.36791 0.0
O295 O 0.97388 0.24023 0.31257 0.0
C296 C 0.01882 0.17817 0.31931 0.0
O297 O 0.96394 0.22186 0.37477 0.0
O298 O 0.99868 0.21905 0.36051 0.0
O299 O 0.96361 0.15562 0.33524 0.0
O300 O 0.95753 0.18097 0.37641 0.0
C301 C 0.9914 0.20035 0.24347 0.0
O302 O 0.01724 0.19805 0.30973 0.0
O303 O 0.00223 0.16596 0.32023 0.0
C304 C 0.98394 0.22404 0.3829 0.0
O305 O 0.9905 0.21697 0.26362 0.0
O306 O 0.98988 0.1811 0.25623 0.0
C307 C 0.93254 0.17579 0.28859 0.0
Fe308 Fe 0.33668 0.9699 0.80147 0.0
Fe309 Fe 0.30609 0.94163 0.8476 0.0
O310 O 0.31081 0.96571 0.82218 0.0
Fe311 Fe 0.28963 0.98555 0.81827 0.0
O312 O 0.2895 0.98329 0.7697 0.0
O313 O 0.32531 0.98397 0.76129 0.0
O314 O 0.33488 0.94469 0.77567 0.0
C315 C 0.33258 0.92606 0.78984 0.0
C316 C 0.32795 0.01133 0.8265 0.0
O317 O 0.32478 0.92418 0.82139 0.0
C318 C 0.28394 0.97389 0.88871 0.0
O319 O 0.35237 0.9565 0.83806 0.0
O320 O 0.32743 0.94898 0.87935 0.0
O321 O 0.30814 0.00946 0.81672 0.0
O322 O 0.34075 0.99519 0.82595 0.0
C323 C 0.26752 0.94469 0.81127 0.0
O324 O 0.2865 0.95418 0.87903 0.0
O325 O 0.28821 0.98927 0.86705 0.0
C326 C 0.34706 0.9528 0.87071 0.0
O327 O 0.28444 0.93331 0.81712 0.0
O328 O 0.26727 0.96506 0.8185 0.0
C329 C 0.30585 0.98529 0.74916 0.0
Fe330 Fe 0.5121 0.29051 0.31538 0.0
Fe331 Fe 0.52874 0.33652 0.29426 0.0
O332 O 0.53165 0.31185 0.31905 0.0
Fe333 Fe 0.55439 0.30849 0.34804 0.0
O334 O 0.56434 0.28592 0.32102 0.0
O335 O 0.53274 0.26837 0.32035 0.0
O336 O 0.51676 0.28824 0.26759 0.0
C337 C 0.51638 0.30339 0.24453 0.0
C338 C 0.52065 0.28743 0.38715 0.0
O339 O 0.51646 0.32337 0.25405 0.0
C340 C 0.54189 0.35006 0.36424 0.0
O341 O 0.48827 0.30892 0.30906 0.0
O342 O 0.50245 0.34191 0.3145 0.0
O343 O 0.54069 0.28982 0.37955 0.0
O344 O 0.5062 0.29115 0.36362 0.0
C345 C 0.57294 0.33203 0.28954 0.0
O346 O 0.54041 0.35383 0.3305 0.0
O347 O 0.5451 0.33091 0.37602 0.0
C348 C 0.48621 0.32924 0.31558 0.0
O349 O 0.55516 0.3331 0.27229 0.0
O350 O 0.5729 0.32645 0.32249 0.0
C351 C 0.55336 0.26877 0.31493 0.0
C352 C 0.3888 0.55165 0.39172 0.0
C353 C 0.36688 0.54931 0.40287 0.0
C354 C 0.40542 0.55521 0.41722 0.0
C355 C 0.41729 0.55348 0.51617 0.0
H356 H 0.45258 0.60498 0.4968 0.0
C357 C 0.43984 0.61632 0.62247 0.0
C358 C 0.46001 0.62726 0.6212 0.0
C359 C 0.43468 0.60048 0.59673 0.0
C360 C 0.44335 0.5902 0.50238 0.0
H361 H 0.34543 0.5476 0.44961 0.0
H362 H 0.37417 0.55394 0.49375 0.0
H363 H 0.43139 0.58843 0.44802 0.0
H364 H 0.49105 0.62988 0.59325 0.0
H365 H 0.48174 0.60232 0.547 0.0
H366 H 0.42809 0.55623 0.57113 0.0
C367 C 0.37866 0.55291 0.46545 0.0
C368 C 0.43116 0.58072 0.47441 0.0
C369 C 0.3621 0.54952 0.44005 0.0
C370 C 0.47546 0.62143 0.59478 0.0
C371 C 0.4701 0.60581 0.56837 0.0
C372 C 0.42939 0.56301 0.54412 0.0
C373 C 0.40045 0.55623 0.45435 0.0
C374 C 0.41719 0.56289 0.48143 0.0
C375 C 0.44944 0.59556 0.5687 0.0
C376 C 0.44173 0.58206 0.53785 0.0
H377 H 0.39304 0.55148 0.36326 0.0
H378 H 0.42207 0.55757 0.40786 0.0
H379 H 0.40707 0.53944 0.52223 0.0
H380 H 0.42768 0.62065 0.64264 0.0
H381 H 0.41853 0.59313 0.59744 0.0
C382 C 0.86033 0.45766 0.05975 0.0
C383 C 0.86523 0.45953 0.09678 0.0
C384 C 0.87631 0.45094 0.03521 0.0
C385 C 0.92561 0.41691 0.03411 0.0
H386 H 0.92239 0.42985 0.93152 0.0
C387 C 0.94375 0.35232 0.92677 0.0
C388 C 0.95185 0.35841 0.89263 0.0
C389 C 0.939 0.36816 0.95279 0.0
C390 C 0.92395 0.42626 0.9601 0.0
H391 H 0.89127 0.45766 0.13663 0.0
H392 H 0.9194 0.44619 0.09349 0.0
H393 H 0.90425 0.4539 0.97458 0.0
H394 H 0.96238 0.38591 0.85975 0.0
H395 H 0.95435 0.41364 0.90553 0.0
H396 H 0.94523 0.38923 0.01964 0.0
C397 C 0.90301 0.44947 0.08363 0.0
C398 C 0.9133 0.43994 0.98481 0.0
C399 C 0.88693 0.45618 0.10831 0.0
C400 C 0.95591 0.38069 0.88564 0.0
C401 C 0.95126 0.39659 0.91185 0.0
C402 C 0.93646 0.40338 0.00944 0.0
C403 C 0.89767 0.44604 0.04699 0.0
C404 C 0.91314 0.43485 0.02194 0.0
C405 C 0.9424 0.39053 0.94555 0.0
C406 C 0.93491 0.40731 0.97202 0.0
H407 H 0.84382 0.46035 0.04986 0.0
H408 H 0.87144 0.44829 0.00737 0.0
H409 H 0.92586 0.4124 0.06245 0.0
H410 H 0.94046 0.33531 0.93317 0.0
H411 H 0.93182 0.36285 0.97811 0.0
C412 C 0.05708 0.88265 0.61609 0.0
C413 C 0.04522 0.8638 0.60683 0.0
C414 C 0.06323 0.89763 0.58936 0.0
C415 C 0.07248 0.8985 0.4903 0.0
H416 H 0.08878 0.95878 0.50969 0.0
C417 C 0.11768 0.9495 0.38436 0.0
C418 C 0.13841 0.95604 0.397 0.0
C419 C 0.10149 0.94287 0.40869 0.0
C420 C 0.08408 0.94203 0.50388 0.0
H421 H 0.02871 0.84663 0.56345 0.0
H422 H 0.03815 0.8734 0.51709 0.0
H423 H 0.06765 0.93834 0.55464 0.0
H424 H 0.15782 0.96256 0.44498 0.0
H425 H 0.12935 0.95122 0.48754 0.0
H426 H 0.08896 0.90224 0.43965 0.0
C427 C 0.04376 0.87621 0.5445 0.0
C428 C 0.07214 0.93023 0.52966 0.0
C429 C 0.03816 0.86095 0.57104 0.0
C430 C 0.14206 0.95741 0.43448 0.0
C431 C 0.12574 0.9511 0.45883 0.0
C432 C 0.08397 0.91041 0.46435 0.0
C433 C 0.05718 0.89427 0.55296 0.0
C434 C 0.06675 0.90807 0.52366 0.0
C435 C 0.10561 0.94305 0.44607 0.0
C436 C 0.09039 0.93206 0.47129 0.0
H437 H 0.06279 0.88512 0.64356 0.0
H438 H 0.07377 0.91111 0.59706 0.0
H439 H 0.06917 0.8814 0.48475 0.0
H440 H 0.11435 0.9483 0.35562 0.0
H441 H 0.08605 0.93678 0.39828 0.0
C442 C 0.53071 0.12574 0.9039 0.0
C443 C 0.54524 0.13287 0.87694 0.0
C444 C 0.53764 0.11032 0.92968 0.0
C445 C 0.5822 0.07056 0.95096 0.0
H446 H 0.57689 0.09247 0.04904 0.0
C447 C 0.64793 0.05622 0.05865 0.0
C448 C 0.64191 0.05346 0.09507 0.0
C449 C 0.6321 0.06058 0.03232 0.0
C450 C 0.57816 0.08578 0.02198 0.0
H451 H 0.57761 0.12874 0.85398 0.0
H452 H 0.58953 0.10172 0.89811 0.0
H453 H 0.55502 0.10889 0.0009 0.0
H454 H 0.61434 0.05238 0.13215 0.0
H455 H 0.58667 0.06014 0.08602 0.0
H456 H 0.60614 0.04818 0.9717 0.0
C457 C 0.57289 0.10783 0.89973 0.0
C458 C 0.56556 0.09516 0.99438 0.0
C459 C 0.56613 0.1234 0.87455 0.0
C460 C 0.61956 0.05451 0.10436 0.0
C461 C 0.6037 0.05902 0.07798 0.0
C462 C 0.59478 0.06119 0.97851 0.0
C463 C 0.55902 0.1016 0.92828 0.0
C464 C 0.56813 0.08825 0.95834 0.0
C465 C 0.60984 0.06235 0.04173 0.0
C466 C 0.59355 0.06929 0.01406 0.0
H467 H 0.51459 0.13304 0.90633 0.0
H468 H 0.5266 0.10578 0.95136 0.0
H469 H 0.58427 0.06466 0.92352 0.0
H470 H 0.66496 0.05541 0.05048 0.0
H471 H 0.63745 0.06337 0.00476 0.0
C472 C 0.55635 0.38683 0.38116 0.0
C473 C 0.54382 0.36833 0.3899 0.0
C474 C 0.56149 0.40223 0.40783 0.0
C475 C 0.56717 0.40385 0.50729 0.0
H476 H 0.58667 0.46314 0.48767 0.0
C477 C 0.61551 0.45162 0.61324 0.0
C478 C 0.63637 0.45725 0.6001 0.0
C479 C 0.59867 0.44622 0.58923 0.0
C480 C 0.58103 0.44669 0.49359 0.0
H481 H 0.52494 0.35233 0.43182 0.0
H482 H 0.53269 0.37984 0.47788 0.0
H483 H 0.56553 0.44334 0.44194 0.0
H484 H 0.65544 0.46357 0.55167 0.0
H485 H 0.62598 0.45424 0.50978 0.0
H486 H 0.58295 0.40709 0.5586 0.0
C487 C 0.53955 0.38204 0.45111 0.0
C488 C 0.56908 0.43527 0.46736 0.0
C489 C 0.53494 0.36636 0.42472 0.0
C490 C 0.63959 0.45904 0.56256 0.0
C491 C 0.62268 0.45391 0.53858 0.0
C492 C 0.57873 0.41538 0.53361 0.0
C493 C 0.55376 0.39963 0.44352 0.0
C494 C 0.56269 0.41339 0.47338 0.0
C495 C 0.60233 0.44669 0.55172 0.0
C496 C 0.58641 0.43661 0.52657 0.0
H497 H 0.56343 0.3886 0.35443 0.0
H498 H 0.57265 0.41534 0.40086 0.0
H499 H 0.56301 0.38695 0.51292 0.0
H500 H 0.6125 0.4502 0.64204 0.0
H501 H 0.58308 0.44078 0.59997 0.0
C502 C 0.13989 0.53927 0.93735 0.0
C503 C 0.13753 0.54708 0.90188 0.0
C504 C 0.12417 0.54416 0.9636 0.0
C505 C 0.06943 0.57178 0.97733 0.0
H506 H 0.09446 0.58473 0.07139 0.0
C507 C 0.04275 0.63994 0.0756 0.0
C508 C 0.04124 0.63484 0.11252 0.0
C509 C 0.04898 0.62394 0.05066 0.0
C510 C 0.08711 0.58077 0.0455 0.0
H511 H 0.11675 0.56552 0.86549 0.0
H512 H 0.09001 0.57534 0.91152 0.0
H513 H 0.11672 0.56664 0.02608 0.0
H514 H 0.04428 0.60915 0.15257 0.0
H515 H 0.05612 0.58113 0.10885 0.0
H516 H 0.0404 0.58801 0.99645 0.0
C517 C 0.1034 0.56467 0.91917 0.0
C518 C 0.09984 0.57027 0.01937 0.0
C519 C 0.11882 0.55919 0.89268 0.0
C520 C 0.04506 0.61327 0.12408 0.0
C521 C 0.05187 0.59736 0.0992 0.0
C522 C 0.05687 0.58279 0.00329 0.0
C523 C 0.10609 0.55765 0.95528 0.0
C524 C 0.0914 0.56605 0.98454 0.0
C525 C 0.05439 0.60275 0.06244 0.0
C526 C 0.06578 0.58773 0.03732 0.0
H527 H 0.15411 0.52964 0.9449 0.0
H528 H 0.12656 0.5378 0.99066 0.0
H529 H 0.06207 0.56836 0.95129 0.0
H530 H 0.04006 0.65657 0.06629 0.0
H531 H 0.05108 0.62855 0.02256 0.0
C532 C 0.95571 0.12171 0.386 0.0
C533 C 0.95586 0.14404 0.39544 0.0
C534 C 0.949 0.10588 0.41102 0.0
C535 C 0.93537 0.09742 0.50852 0.0
H536 H 0.89212 0.057 0.47048 0.0
C537 C 0.8808 0.04687 0.60406 0.0
C538 C 0.85835 0.04791 0.59552 0.0
C539 C 0.89656 0.05331 0.57873 0.0
C540 C 0.90422 0.06811 0.48154 0.0
H541 H 0.95036 0.16706 0.4393 0.0
H542 H 0.9383 0.13968 0.48242 0.0
H543 H 0.91374 0.07909 0.42895 0.0
H544 H 0.83498 0.05526 0.55288 0.0
H545 H 0.86228 0.06684 0.50926 0.0
H546 H 0.92474 0.0876 0.56116 0.0
C547 C 0.94357 0.13426 0.45591 0.0
C548 C 0.91684 0.0806 0.4577 0.0
C549 C 0.95031 0.15004 0.431 0.0
C550 C 0.85211 0.05439 0.5605 0.0
C551 C 0.86782 0.06084 0.53528 0.0
C552 C 0.92266 0.08503 0.53237 0.0
C553 C 0.94232 0.11205 0.44599 0.0
C554 C 0.93202 0.09596 0.47095 0.0
C555 C 0.89021 0.06088 0.54434 0.0
C556 C 0.90639 0.0708 0.51916 0.0
H557 H 0.9601 0.1165 0.35893 0.0
H558 H 0.94853 0.08887 0.40269 0.0
H559 H 0.94722 0.10881 0.51959 0.0
H560 H 0.88619 0.04176 0.63069 0.0
H561 H 0.9137 0.05285 0.58638 0.0
C562 C 0.35991 0.9569 0.93429 0.0
C563 C 0.36415 0.95036 0.89859 0.0
C564 C 0.37526 0.953 0.96158 0.0
C565 C 0.4325 0.93225 0.97861 0.0
H566 H 0.40667 0.91434 0.06978 0.0
C567 C 0.46705 0.86818 0.07789 0.0
C568 C 0.46457 0.87194 0.11509 0.0
C569 C 0.45977 0.88369 0.05283 0.0
C570 C 0.41422 0.91973 0.04478 0.0
H571 H 0.38789 0.9352 0.863 0.0
H572 H 0.41417 0.9271 0.91081 0.0
H573 H 0.38352 0.92973 0.02306 0.0
H574 H 0.45352 0.89493 0.15572 0.0
H575 H 0.44027 0.92205 0.11174 0.0
H576 H 0.463 0.92031 1e-05 0.0
C577 C 0.39943 0.936 0.91785 0.0
C578 C 0.40093 0.92866 0.01783 0.0
C579 C 0.38429 0.94047 0.89036 0.0
C580 C 0.45594 0.89196 0.12709 0.0
C581 C 0.44826 0.90733 0.102 0.0
C582 C 0.44574 0.92286 0.00543 0.0
C583 C 0.39495 0.94183 0.95404 0.0
C584 C 0.40976 0.93469 0.98404 0.0
C585 C 0.44939 0.90294 0.06467 0.0
C586 C 0.43662 0.9162 0.03852 0.0
H587 H 0.3446 0.96489 0.94116 0.0
H588 H 0.37142 0.95841 0.98875 0.0
H589 H 0.44006 0.93711 0.95337 0.0
H590 H 0.47334 0.85263 0.06821 0.0
H591 H 0.4606 0.87977 0.02427 0.0
C592 C 0.35576 0.46728 0.35451 0.0
C593 C 0.33648 0.46943 0.33402 0.0
C594 C 0.36648 0.44716 0.35704 0.0
C595 C 0.37623 0.39733 0.30567 0.0
H596 H 0.40674 0.38022 0.39333 0.0
C597 C 0.44515 0.33103 0.30729 0.0
C598 C 0.46451 0.33909 0.32308 0.0
C599 C 0.42526 0.34235 0.31177 0.0
C600 C 0.39821 0.38466 0.36867 0.0
H601 H 0.31293 0.45198 0.30093 0.0
H602 H 0.33204 0.41655 0.30491 0.0
H603 H 0.37872 0.4087 0.39591 0.0
H604 H 0.47802 0.36454 0.3574 0.0
H605 H 0.44363 0.3839 0.36559 0.0
H606 H 0.39658 0.37396 0.27818 0.0
C607 C 0.3387 0.43056 0.31915 0.0
C608 C 0.38217 0.40098 0.37014 0.0
C609 C 0.3277 0.45076 0.31708 0.0
C610 C 0.46341 0.35799 0.34471 0.0
C611 C 0.44363 0.369 0.34966 0.0
C612 C 0.39233 0.38094 0.3042 0.0
C613 C 0.35838 0.42864 0.33883 0.0
C614 C 0.37165 0.40816 0.33844 0.0
C615 C 0.42438 0.36159 0.3328 0.0
C616 C 0.40412 0.3751 0.33546 0.0
H617 H 0.3629 0.48135 0.36796 0.0
H618 H 0.38174 0.44638 0.372 0.0
H619 H 0.36849 0.40256 0.28074 0.0
H620 H 0.44556 0.31654 0.29037 0.0
H621 H 0.41066 0.33625 0.29849 0.0
C622 C 0.03734 0.3545 0.8507 0.0
C623 C 0.03686 0.33517 0.83005 0.0
C624 C 0.05692 0.36583 0.85602 0.0
C625 C 0.10912 0.37672 0.81202 0.0
H626 H 0.12102 0.40758 0.90164 0.0
C627 C 0.17435 0.44596 0.82165 0.0
C628 C 0.16568 0.4653 0.83661 0.0
C629 C 0.16296 0.42606 0.82502 0.0
C630 C 0.11802 0.399 0.87646 0.0
H631 H 0.05673 0.31217 0.7997 0.0
H632 H 0.09118 0.3323 0.80865 0.0
H633 H 0.09281 0.37928 0.90015 0.0
H634 H 0.13904 0.47873 0.8685 0.0
H635 H 0.11948 0.44433 0.87464 0.0
H636 H 0.13365 0.39723 0.78794 0.0
C637 C 0.07628 0.33856 0.82077 0.0
C638 C 0.10186 0.38279 0.87561 0.0
C639 C 0.05662 0.32698 0.81585 0.0
C640 C 0.14609 0.46414 0.85649 0.0
C641 C 0.13495 0.44434 0.86027 0.0
C642 C 0.12532 0.39299 0.81286 0.0
C643 C 0.07656 0.35827 0.84056 0.0
C644 C 0.09662 0.37206 0.84307 0.0
C645 C 0.14296 0.42513 0.84401 0.0
C646 C 0.12933 0.4049 0.84478 0.0
H647 H 0.02241 0.36119 0.86213 0.0
H648 H 0.05645 0.38108 0.87099 0.0
H649 H 0.10541 0.36884 0.78648 0.0
H650 H 0.18937 0.4464 0.80607 0.0
H651 H 0.16958 0.4115 0.8123 0.0
C652 C 0.14921 0.03877 0.3493 0.0
C653 C 0.16834 0.03701 0.32836 0.0
C654 C 0.13843 0.05878 0.3529 0.0
C655 C 0.12807 0.10939 0.30413 0.0
H656 H 0.09862 0.12511 0.39345 0.0
C657 C 0.05972 0.17589 0.30999 0.0
C658 C 0.04047 0.16804 0.32644 0.0
C659 C 0.0795 0.16432 0.31361 0.0
C660 C 0.10682 0.12104 0.36833 0.0
H661 H 0.19158 0.05505 0.29555 0.0
H662 H 0.17234 0.09034 0.30138 0.0
H663 H 0.12661 0.09655 0.39389 0.0
H664 H 0.02713 0.14265 0.36107 0.0
H665 H 0.06138 0.12279 0.36767 0.0
H666 H 0.10745 0.13321 0.2783 0.0
C667 C 0.16585 0.07608 0.31514 0.0
C668 C 0.12285 0.1047 0.36858 0.0
C669 C 0.17691 0.05597 0.31199 0.0
C670 C 0.04164 0.14908 0.34792 0.0
C671 C 0.06135 0.13777 0.35194 0.0
C672 C 0.11197 0.1258 0.30387 0.0
C673 C 0.14633 0.07761 0.33534 0.0
C674 C 0.13303 0.09806 0.33626 0.0
C675 C 0.08045 0.14497 0.33432 0.0
C676 C 0.10055 0.13116 0.33574 0.0
H677 H 0.14225 0.02447 0.36236 0.0
H678 H 0.12331 0.05927 0.36823 0.0
H679 H 0.13552 0.10458 0.27875 0.0
H680 H 0.05928 0.19042 0.29316 0.0
H681 H 0.09397 0.1703 0.29981 0.0
C682 C 0.35137 0.03535 0.86462 0.0
C683 C 0.33731 0.033 0.83487 0.0
C684 C 0.36286 0.05487 0.87009 0.0
C685 C 0.37001 0.11236 0.83413 0.0
H686 H 0.42888 0.10405 0.87131 0.0
C687 C 0.44658 0.16393 0.79862 0.0
C688 C 0.46058 0.17008 0.82702 0.0
C689 C 0.42799 0.15124 0.80544 0.0
C690 C 0.41236 0.10673 0.86148 0.0
H691 H 0.3237 0.04917 0.7879 0.0
H692 H 0.3447 0.08282 0.79588 0.0
H693 H 0.40336 0.07363 0.8718 0.0
H694 H 0.46603 0.16841 0.8848 0.0
H695 H 0.43374 0.14537 0.89672 0.0
H696 H 0.38012 0.14517 0.82112 0.0
C697 C 0.34634 0.07009 0.81608 0.0
C698 C 0.39756 0.08927 0.86187 0.0
C699 C 0.33431 0.05074 0.81128 0.0
C700 C 0.45525 0.16411 0.86261 0.0
C701 C 0.43691 0.15088 0.86935 0.0
C702 C 0.38506 0.1297 0.83297 0.0
C703 C 0.36122 0.07227 0.84513 0.0
C704 C 0.3762 0.09167 0.84775 0.0
C705 C 0.42341 0.14395 0.84066 0.0
C706 C 0.40644 0.12693 0.84628 0.0
H707 H 0.35378 0.02189 0.88334 0.0
H708 H 0.37346 0.05602 0.8935 0.0
H709 H 0.35366 0.11515 0.82374 0.0
H710 H 0.45054 0.16822 0.77092 0.0
H711 H 0.41801 0.14593 0.78283 0.0
C712 C 0.95011 0.6612 0.20635 0.0
C713 C 0.96128 0.67036 0.17677 0.0
C714 C 0.93044 0.64995 0.20127 0.0
C715 C 0.90531 0.6141 0.13746 0.0
H716 H 0.85354 0.61938 0.19766 0.0
C717 C 0.84043 0.54625 0.13489 0.0
C718 C 0.83131 0.54036 0.16829 0.0
C719 C 0.85189 0.56594 0.13114 0.0
C720 C 0.86792 0.61751 0.18079 0.0
H721 H 0.96045 0.67558 0.11885 0.0
H722 H 0.92619 0.65501 0.10966 0.0
H723 H 0.88194 0.64753 0.20035 0.0
H724 H 0.82647 0.55029 0.22383 0.0
H725 H 0.84735 0.58419 0.21816 0.0
H726 H 0.89256 0.58341 0.1199 0.0
C727 C 0.93254 0.65699 0.13684 0.0
C728 C 0.88407 0.63379 0.18211 0.0
C729 C 0.95202 0.66878 0.14208 0.0
C730 C 0.83309 0.55476 0.19765 0.0
C731 C 0.84505 0.57424 0.19422 0.0
C732 C 0.88943 0.59762 0.13665 0.0
C733 C 0.92179 0.64717 0.16638 0.0
C734 C 0.90309 0.63202 0.16092 0.0
C735 C 0.85516 0.57984 0.16113 0.0
C736 C 0.87066 0.59881 0.15885 0.0
H737 H 0.95693 0.66223 0.23339 0.0
H738 H 0.92263 0.64237 0.22444 0.0
H739 H 0.91999 0.61217 0.12126 0.0
H740 H 0.83926 0.53525 0.11193 0.0
H741 H 0.8588 0.56985 0.10495 0.0
C742 C 0.9437 0.82716 0.68703 0.0
C743 C 0.96299 0.83563 0.67165 0.0
C744 C 0.92362 0.83803 0.68212 0.0
C745 C 0.89592 0.87992 0.62523 0.0
H746 H 0.86551 0.89656 0.71316 0.0
C747 C 0.85088 0.96117 0.6401 0.0
C748 C 0.83202 0.96285 0.66173 0.0
C749 C 0.862 0.94131 0.63683 0.0
C750 C 0.87342 0.89168 0.6882 0.0
H751 H 0.97622 0.86133 0.63754 0.0
H752 H 0.94145 0.87996 0.62863 0.0
H753 H 0.89432 0.86877 0.71558 0.0
H754 H 0.80949 0.94475 0.69576 0.0
H755 H 0.82919 0.90977 0.69031 0.0
H756 H 0.87577 0.90347 0.59809 0.0
C757 C 0.94167 0.86506 0.64456 0.0
C758 C 0.88995 0.87574 0.6896 0.0
C759 C 0.96166 0.85447 0.64992 0.0
C760 C 0.82393 0.94391 0.67878 0.0
C761 C 0.83528 0.92396 0.67587 0.0
C762 C 0.87941 0.89577 0.62381 0.0
C763 C 0.92247 0.85725 0.66111 0.0
C764 C 0.90198 0.87036 0.65838 0.0
C765 C 0.85468 0.92257 0.65535 0.0
C766 C 0.86859 0.9025 0.65552 0.0
H767 H 0.94427 0.8127 0.70401 0.0
H768 H 0.90907 0.83162 0.69514 0.0
H769 H 0.90462 0.87582 0.6006 0.0
H770 H 0.85748 0.97546 0.62652 0.0
H771 H 0.87701 0.94096 0.6212 0.0
C772 C 0.55391 0.84438 0.20597 0.0
C773 C 0.54224 0.83508 0.17704 0.0
C774 C 0.57281 0.85669 0.19956 0.0
C775 C 0.5925 0.89609 0.13889 0.0
H776 H 0.64985 0.88845 0.1823 0.0
C777 C 0.655 0.96605 0.13143 0.0
C778 C 0.66832 0.96945 0.16181 0.0
C779 C 0.64329 0.94652 0.12744 0.0
C780 C 0.63388 0.89104 0.17028 0.0
H781 H 0.54129 0.83081 0.11889 0.0
H782 H 0.57403 0.85332 0.1075 0.0
H783 H 0.62256 0.85931 0.18725 0.0
H784 H 0.68037 0.95517 0.21152 0.0
H785 H 0.65895 0.92166 0.20609 0.0
H786 H 0.60258 0.92831 0.1246 0.0
C787 C 0.5688 0.85052 0.13513 0.0
C788 C 0.61838 0.87418 0.17279 0.0
C789 C 0.55019 0.83763 0.14163 0.0
C790 C 0.67037 0.95275 0.18761 0.0
C791 C 0.65809 0.93346 0.18428 0.0
C792 C 0.60772 0.91315 0.13718 0.0
C793 C 0.58003 0.8604 0.16405 0.0
C794 C 0.59751 0.87669 0.15742 0.0
C795 C 0.64392 0.93025 0.15453 0.0
C796 C 0.62859 0.91107 0.15329 0.0
H797 H 0.54804 0.84267 0.23349 0.0
H798 H 0.58109 0.86435 0.22223 0.0
H799 H 0.57635 0.89851 0.12736 0.0
H800 H 0.6533 0.97873 0.11107 0.0
H801 H 0.63328 0.94454 0.10349 0.0
C802 C 0.54481 0.65343 0.64111 0.0
C803 C 0.54204 0.66854 0.66927 0.0
C804 C 0.56446 0.64179 0.63771 0.0
C805 C 0.61019 0.6224 0.69494 0.0
H806 H 0.63123 0.599 0.60382 0.0
C807 C 0.67671 0.55455 0.68847 0.0
C808 C 0.66941 0.53623 0.66886 0.0
C809 C 0.6656 0.57464 0.68558 0.0
C810 C 0.62565 0.60554 0.62947 0.0
H811 H 0.55746 0.684 0.71531 0.0
H812 H 0.59221 0.66429 0.70879 0.0
H813 H 0.60357 0.62793 0.60375 0.0
H814 H 0.64578 0.52481 0.62932 0.0
H815 H 0.62684 0.55974 0.62373 0.0
H816 H 0.63195 0.5996 0.72058 0.0
C817 C 0.57921 0.66111 0.68955 0.0
C818 C 0.6097 0.62203 0.62947 0.0
C819 C 0.55946 0.67261 0.69306 0.0
C820 C 0.6517 0.53866 0.64487 0.0
C821 C 0.64094 0.55872 0.64148 0.0
C822 C 0.62629 0.60605 0.69491 0.0
C823 C 0.58174 0.64503 0.66251 0.0
C824 C 0.60121 0.63018 0.66223 0.0
C825 C 0.64739 0.5768 0.66242 0.0
C826 C 0.63366 0.59694 0.66221 0.0
H827 H 0.53133 0.64973 0.623 0.0
H828 H 0.56556 0.62934 0.61692 0.0
H829 H 0.60393 0.628 0.72075 0.0
H830 H 0.69025 0.55306 0.70728 0.0
H831 H 0.67094 0.58834 0.702 0.0
C832 C 0.23458 0.49756 0.94331 0.0
C833 C 0.22961 0.51902 0.93203 0.0
C834 C 0.24555 0.49392 0.97619 0.0
C835 C 0.28058 0.52234 0.04351 0.0
H836 H 0.25766 0.48025 0.11227 0.0
C837 C 0.31471 0.5159 0.18941 0.0
C838 C 0.29844 0.51566 0.21635 0.0
C839 C 0.30914 0.51251 0.153 0.0
C840 C 0.26433 0.49201 0.09328 0.0
H841 H 0.23206 0.55341 0.94691 0.0
H842 H 0.25088 0.54703 0.00354 0.0
H843 H 0.24247 0.48175 0.05111 0.0
H844 H 0.26361 0.51105 0.22607 0.0
H845 H 0.25404 0.50539 0.16315 0.0
H846 H 0.30166 0.53337 0.08604 0.0
C847 C 0.24669 0.53302 0.98692 0.0
C848 C 0.25576 0.49271 0.05815 0.0
C849 C 0.23568 0.53664 0.95446 0.0
C850 C 0.27662 0.51142 0.20614 0.0
C851 C 0.27111 0.50793 0.16998 0.0
C852 C 0.28917 0.52161 0.07855 0.0
C853 C 0.25191 0.51168 0.99812 0.0
C854 C 0.26331 0.50838 0.03327 0.0
C855 C 0.28723 0.50863 0.14288 0.0
C856 C 0.28067 0.5069 0.1042 0.0
H857 H 0.23012 0.48363 0.9267 0.0
H858 H 0.24932 0.47726 0.98421 0.0
H859 H 0.28697 0.53438 0.02473 0.0
H860 H 0.33167 0.51907 0.19634 0.0
H861 H 0.32196 0.51305 0.13275 0.0
C862 C 0.01133 0.28245 0.69514 0.0
C863 C 0.99662 0.29914 0.70471 0.0
C864 C 0.01465 0.27699 0.65888 0.0
C865 C 1.00128 0.29407 0.56374 0.0
H866 H 0.0075 0.23172 0.54581 0.0
C867 C 0.97485 0.24992 0.43284 0.0
C868 C 0.98967 0.23503 0.41722 0.0
C869 C 0.97952 0.25981 0.46599 0.0
C870 C 0.00612 0.24921 0.55041 0.0
H871 H 0.97429 0.32371 0.68415 0.0
H872 H 0.97909 0.31351 0.62077 0.0
H873 H 0.0083 0.24531 0.60758 0.0
H874 H 0.02112 0.219 0.42374 0.0
H875 H 0.02895 0.23579 0.48283 0.0
H876 H 0.99756 0.29745 0.50624 0.0
C877 C 0.98872 0.30503 0.64099 0.0
C878 C 0.00667 0.2571 0.58586 0.0
C879 C 0.98585 0.31087 0.67734 0.0
C880 C 0.00945 0.23045 0.43519 0.0
C881 C 0.0139 0.23999 0.46889 0.0
C882 C 1.00029 0.28607 0.52829 0.0
C883 C 0.00282 0.28765 0.6313 0.0
C884 C 0.00401 0.27963 0.59315 0.0
C885 C 0.9989 0.25469 0.48459 0.0
C886 C 0.00246 0.26354 0.5214 0.0
H887 H 0.02005 0.27334 0.71582 0.0
H888 H 0.02618 0.26404 0.65263 0.0
H889 H 0.99962 0.31153 0.56803 0.0
H890 H 0.95955 0.2539 0.41947 0.0
H891 H 0.9676 0.27091 0.47769 0.0
C892 C 0.26869 0.99998 0.93529 0.0
C893 C 0.27329 0.97845 0.92399 0.0
C894 C 0.25814 0.00382 0.96839 0.0
C895 C 0.22413 0.9761 0.03803 0.0
H896 H 0.24726 0.02031 0.10292 0.0
C897 C 0.22849 0.99278 0.19959 0.0
C898 C 0.20669 0.98891 0.21022 0.0
C899 C 0.23397 0.99481 0.16313 0.0
C900 C 0.24056 0.00794 0.08505 0.0
H901 H 0.27056 0.94412 0.93893 0.0
H902 H 0.25252 0.95084 0.9963 0.0
H903 H 0.26199 0.01714 0.04176 0.0
H904 H 0.17346 0.9846 0.19063 0.0
H905 H 0.18312 0.98813 0.12654 0.0
H906 H 0.20342 0.96622 0.08182 0.0
C907 C 0.25665 0.96476 0.97943 0.0
C908 C 0.24886 0.00627 0.04989 0.0
C909 C 0.2672 0.96093 0.94658 0.0
C910 C 0.1904 0.98756 0.18338 0.0
C911 C 0.19594 0.9895 0.14669 0.0
C912 C 0.21582 0.97779 0.07316 0.0
C913 C 0.2519 0.98621 0.99072 0.0
C914 C 0.24116 0.98993 0.02631 0.0
C915 C 0.21785 0.99299 0.13618 0.0
C916 C 0.22435 0.99334 0.0974 0.0
H917 H 0.27315 0.01385 0.91854 0.0
H918 H 0.25466 0.02055 0.97632 0.0
H919 H 0.21759 0.96358 0.0203 0.0
H920 H 0.24151 0.99393 0.21944 0.0
H921 H 0.25104 0.99711 0.15604 0.0
C922 C 0.49398 0.27924 0.43728 0.0
C923 C 0.51479 0.27662 0.42155 0.0
C924 C 0.48908 0.26907 0.47033 0.0
C925 C 0.50512 0.22313 0.52835 0.0
H926 H 0.48896 0.25978 0.60975 0.0
C927 C 0.52074 0.19664 0.67507 0.0
C928 C 0.50657 0.20383 0.70254 0.0
C929 C 0.51791 0.20382 0.63948 0.0
C930 C 0.49297 0.24915 0.58725 0.0
H931 H 0.54652 0.26086 0.42745 0.0
H932 H 0.53779 0.24292 0.48436 0.0
H933 H 0.49007 0.27545 0.54903 0.0
H934 H 0.47774 0.22349 0.71396 0.0
H935 H 0.47243 0.23551 0.65171 0.0
H936 H 0.50823 0.19685 0.56624 0.0
C937 C 0.52535 0.2529 0.47142 0.0
C938 C 0.49363 0.25818 0.5525 0.0
C939 C 0.53038 0.26334 0.439 0.0
C940 C 0.48907 0.21779 0.69344 0.0
C941 C 0.48609 0.22478 0.65777 0.0
C942 C 0.50419 0.21402 0.56297 0.0
C943 C 0.50474 0.25573 0.48752 0.0
C944 C 0.50034 0.2454 0.52296 0.0
C945 C 0.50068 0.21816 0.63042 0.0
C946 C 0.49878 0.22707 0.59304 0.0
H947 H 0.4817 0.28941 0.42438 0.0
H948 H 0.47308 0.27151 0.48237 0.0
H949 H 0.51012 0.2129 0.50586 0.0
H950 H 0.53448 0.18602 0.68124 0.0
H951 H 0.52973 0.19867 0.61934 0.0
C952 C 0.80989 0.49913 0.30927 0.0
C953 C 0.79603 0.48831 0.28468 0.0
C954 C 0.80309 0.50262 0.34513 0.0
C955 C 0.75198 0.50457 0.39953 0.0
H956 H 0.7893 0.49299 0.4823 0.0
C957 C 0.72048 0.47521 0.5364 0.0
C958 C 0.72707 0.48663 0.56749 0.0
C959 C 0.72966 0.48014 0.50286 0.0
C960 C 0.77886 0.49668 0.45937 0.0
H961 H 0.76486 0.47151 0.27889 0.0
H962 H 0.75339 0.4771 0.3408 0.0
H963 H 0.80494 0.49218 0.42111 0.0
H964 H 0.74836 0.51217 0.58814 0.0
H965 H 0.76508 0.52035 0.52903 0.0
H966 H 0.72568 0.50768 0.43751 0.0
C967 C 0.7691 0.48365 0.33244 0.0
C968 C 0.78777 0.49623 0.42443 0.0
C969 C 0.77577 0.4803 0.29693 0.0
C970 C 0.7429 0.50327 0.56443 0.0
C971 C 0.75253 0.50785 0.53084 0.0
C972 C 0.74309 0.50474 0.43424 0.0
C973 C 0.78238 0.49528 0.3568 0.0
C974 C 0.77421 0.49938 0.39407 0.0
C975 C 0.74595 0.49626 0.49986 0.0
C976 C 0.75629 0.50015 0.46432 0.0
H977 H 0.82561 0.50545 0.30054 0.0
H978 H 0.81374 0.51154 0.36338 0.0
H979 H 0.74122 0.50768 0.37677 0.0
H980 H 0.70828 0.46235 0.53807 0.0
H981 H 0.72445 0.47091 0.47932 0.0
C982 C 0.99905 0.77912 0.80465 0.0
C983 C 0.00881 0.79893 0.7939 0.0
C984 C 0.99759 0.77362 0.84119 0.0
C985 C 0.0272 0.78069 0.92456 0.0
H986 H 0.97636 0.75331 0.96857 0.0
C987 C 0.0334 0.72286 0.04671 0.0
C988 C 0.01921 0.72692 0.07592 0.0
C989 C 0.03061 0.73384 0.0139 0.0
C990 C 0.99061 0.7611 0.95672 0.0
H991 H 0.02411 0.82884 0.81291 0.0
H992 H 0.02201 0.8189 0.87719 0.0
H993 H 0.97319 0.77006 0.9085 0.0
H994 H 0.9905 0.74514 0.09316 0.0
H995 H 0.98535 0.76397 0.03526 0.0
H996 H 0.04483 0.77102 0.97211 0.0
C997 C 0.01533 0.80779 0.85716 0.0
C998 C 0.98882 0.7706 0.92241 0.0
C999 C 0.01643 0.8135 0.8205 0.0
C1000 C 0.00174 0.74171 0.0712 0.0
C1001 C 0.99876 0.75246 0.03812 0.0
C1002 C 0.02907 0.77092 0.9586 0.0
C1003 C 0.00617 0.78764 0.86773 0.0
C1004 C 0.00719 0.78019 0.90582 0.0
C1005 C 0.01339 0.74887 0.0094 0.0
C1006 C 0.01088 0.76072 0.97471 0.0
H1007 H 0.99294 0.76761 0.78474 0.0
H1008 H 0.99065 0.7579 0.84856 0.0
H1009 H 0.04166 0.78778 0.91223 0.0
H1010 H 0.04703 0.71159 0.04941 0.0
H1011 H 0.04192 0.73055 0.99197 0.0
C1012 C 0.72104 0.00254 0.29701 0.0
C1013 C 0.70217 0.0137 0.28525 0.0
C1014 C 0.72572 1.00062 0.33387 0.0
C1015 C 0.72035 0.0309 0.41621 0.0
H1016 H 0.73723 0.97726 0.46513 0.0
C1017 C 0.74902 0.03356 0.56399 0.0
C1018 C 0.76581 0.01926 0.57475 0.0
C1019 C 0.73853 0.03083 0.53074 0.0
C1020 C 0.73287 0.99245 0.45183 0.0
H1021 H 0.67311 0.03113 0.30278 0.0
H1022 H 0.68174 0.0284 0.36757 0.0
H1023 H 0.7236 0.97577 0.40296 0.0
H1024 H 0.78464 0.99065 0.55967 0.0
H1025 H 0.76725 0.98648 0.50044 0.0
H1026 H 0.73083 0.04791 0.46346 0.0
C1027 C 0.69266 0.02087 0.34808 0.0
C1028 C 0.72485 0.99152 0.41634 0.0
C1029 C 0.6877 0.02235 0.31114 0.0
C1030 C 0.77165 0.00184 0.55196 0.0
C1031 C 0.76154 0.99942 0.51811 0.0
C1032 C 0.72878 0.03191 0.45131 0.0
C1033 C 0.71187 0.01023 0.3597 0.0
C1034 C 0.71859 0.01076 0.39821 0.0
C1035 C 0.74501 0.0141 0.50678 0.0
C1036 C 0.73525 0.01272 0.4697 0.0
H1037 H 0.73244 0.99565 0.27762 0.0
H1038 H 0.74071 0.9925 0.34212 0.0
H1039 H 0.71601 0.04602 0.40256 0.0
H1040 H 0.74395 0.04694 0.58139 0.0
H1041 H 0.72544 0.04204 0.52381 0.0
C1042 C 0.49244 0.75813 0.07028 0.0
C1043 C 0.48755 0.78051 0.07386 0.0
C1044 C 0.49486 0.74876 0.03605 0.0
C1045 C 0.48059 0.75939 0.93986 0.0
H1046 H 0.51858 0.70947 0.92253 0.0
C1047 C 0.4993 0.72589 0.79794 0.0
C1048 C 0.49349 0.70383 0.79266 0.0
C1049 C 0.5 0.73476 0.83266 0.0
C1050 C 0.50787 0.72335 0.92719 0.0
H1051 H 0.48257 0.81092 0.04479 0.0
H1052 H 0.48795 0.7949 0.98507 0.0
H1053 H 0.51832 0.72689 0.9821 0.0
H1054 H 0.48453 0.67357 0.81964 0.0
H1055 H 0.48642 0.6891 0.88087 0.0
H1056 H 0.4708 0.75619 0.88446 0.0
C1057 C 0.48899 0.7843 0.0085 0.0
C1058 C 0.5076 0.7333 0.96128 0.0
C1059 C 0.4861 0.79356 0.04271 0.0
C1060 C 0.48905 0.69062 0.82294 0.0
C1061 C 0.49019 0.69943 0.85786 0.0
C1062 C 0.48121 0.74972 0.9057 0.0
C1063 C 0.49288 0.76166 0.00465 0.0
C1064 C 0.49388 0.75142 0.96811 0.0
C1065 C 0.49531 0.72166 0.86282 0.0
C1066 C 0.49477 0.73161 0.89916 0.0
H1067 H 0.49346 0.74764 0.09388 0.0
H1068 H 0.4975 0.73125 0.03431 0.0
H1069 H 0.46937 0.77289 0.94418 0.0
H1070 H 0.50264 0.73654 0.77514 0.0
H1071 H 0.50405 0.75193 0.83597 0.0
C1072 C 0.72954 0.47977 0.796 0.0
C1073 C 0.70854 0.48591 0.78422 0.0
C1074 C 0.73617 0.48378 0.8314 0.0
C1075 C 0.71621 0.49503 0.92345 0.0
H1076 H 0.77745 0.50985 0.93794 0.0
C1077 C 0.75892 0.50487 0.0645 0.0
C1078 C 0.77522 0.48874 0.06828 0.0
C1079 C 0.74969 0.50909 0.03048 0.0
C1080 C 0.76026 0.506 0.93423 0.0
H1081 H 0.67775 0.50062 0.80061 0.0
H1082 H 0.68953 0.50795 0.86294 0.0
H1083 H 0.76249 0.50876 0.87678 0.0
H1084 H 0.79533 0.46509 0.03982 0.0
H1085 H 0.77981 0.47304 0.98035 0.0
H1086 H 0.7143 0.49205 0.98128 0.0
C1087 C 0.70079 0.49989 0.8446 0.0
C1088 C 0.75171 0.50516 0.89929 0.0
C1089 C 0.69404 0.49569 0.80899 0.0
C1090 C 0.78273 0.47754 0.03754 0.0
C1091 C 0.77394 0.48214 0.0036 0.0
C1092 C 0.72474 0.49618 0.95858 0.0
C1093 C 0.72208 0.49425 0.85599 0.0
C1094 C 0.72984 0.49877 0.89337 0.0
C1095 C 0.75714 0.49768 -0.00013 0.0
C1096 C 0.74701 0.50091 0.96403 0.0
H1097 H 0.741 0.47187 0.77777 0.0
H1098 H 0.75241 0.47854 0.8395 0.0
H1099 H 0.69933 0.49001 0.91984 0.0
H1100 H 0.7528 0.51359 0.08794 0.0
H1101 H 0.73671 0.52112 0.02806 0.0
C1102 C 0.02628 0.69625 0.32172 0.0
C1103 C 0.0113 0.70308 0.29516 0.0
C1104 C 0.02366 0.70278 0.35771 0.0
C1105 C 0.99693 0.74584 0.41278 0.0
H1106 H 0.01596 0.70895 0.49226 0.0
C1107 C 0.99543 0.77367 0.56336 0.0
C1108 C 0.01604 0.77155 0.57999 0.0
C1109 C 0.99139 0.76365 0.52989 0.0
C1110 C 0.01046 0.71936 0.4703 0.0
H1111 H 0.98133 0.72139 0.28574 0.0
H1112 H 0.97643 0.73224 0.34857 0.0
H1113 H 0.01512 0.69409 0.43097 0.0
H1114 H 0.04828 0.75672 0.57534 0.0
H1115 H 0.0411 0.73909 0.5176 0.0
H1116 H 0.99247 0.77114 0.45235 0.0
C1117 C 0.99054 0.72235 0.34154 0.0
C1118 C 0.01013 0.71093 0.43518 0.0
C1119 C 0.9933 0.71603 0.30552 0.0
C1120 C 0.03227 0.7588 0.5631 0.0
C1121 C 0.02812 0.74853 0.53018 0.0
C1122 C 0.99704 0.75418 0.448 0.0
C1123 C 0.00585 0.71608 0.36802 0.0
C1124 C 0.00391 0.72424 0.40583 0.0
C1125 C 0.00775 0.75099 0.51308 0.0
C1126 C 0.00434 0.74119 0.4769 0.0
H1127 H 0.04039 0.68638 0.31454 0.0
H1128 H 0.03599 0.69793 0.37721 0.0
H1129 H 0.9923 0.75667 0.39086 0.0
H1130 H 0.98266 0.78343 0.57581 0.0
H1131 H 0.97555 0.76577 0.51713 0.0
C1132 C 0.72828 0.00556 0.05239 0.0
C1133 C 0.73378 0.0239 0.07337 0.0
C1134 C 0.73842 0.00206 0.01887 0.0
C1135 C 0.77091 0.03221 0.94892 0.0
H1136 H 0.77763 0.97418 0.90763 0.0
C1137 C 0.8133 0.01754 0.81142 0.0
C1138 C 0.79897 0.00801 0.78618 0.0
C1139 C 0.80821 0.01722 0.84836 0.0
C1140 C 0.77595 0.99045 0.91905 0.0
H1141 H 0.75502 0.05224 0.07706 0.0
H1142 H 0.77358 0.04556 0.02004 0.0
H1143 H 0.76348 0.97815 0.96917 0.0
H1144 H 0.76889 0.98951 0.77977 0.0
H1145 H 0.76042 0.98835 0.8444 0.0
H1146 H 0.7838 0.04436 0.89889 0.0
C1147 C 0.76072 0.03439 0.02814 0.0
C1148 C 0.76763 0.99279 0.95415 0.0
C1149 C 0.75019 0.03817 0.06105 0.0
C1150 C 0.78019 0.99704 0.79867 0.0
C1151 C 0.77539 0.99627 0.8356 0.0
C1152 C 0.77965 0.02981 0.91425 0.0
C1153 C 0.75468 0.01657 0.00608 0.0
C1154 C 0.7647 0.01375 0.96945 0.0
C1155 C 0.78902 0.00689 0.86065 0.0
C1156 C 0.78198 0.00896 0.89882 0.0
H1157 H 0.71561 0.99436 0.06133 0.0
H1158 H 0.73303 0.98833 0.00263 0.0
H1159 H 0.76844 0.04866 0.95906 0.0
H1160 H 0.8278 0.02624 0.80245 0.0
H1161 H 0.81895 0.02552 0.86726 0.0
C1162 C 0.49187 0.77367 0.29831 0.0
C1163 C 0.48729 0.796 0.29282 0.0
C1164 C 0.49078 0.7646 0.3329 0.0
C1165 C 0.49762 0.77575 0.42715 0.0
H1166 H 0.45713 0.72789 0.44442 0.0
C1167 C 0.48282 0.74205 0.57055 0.0
C1168 C 0.47775 0.71976 0.5748 0.0
C1169 C 0.48425 0.75131 0.53613 0.0
C1170 C 0.46885 0.74094 0.44003 0.0
H1171 H 0.47829 0.82644 0.31915 0.0
H1172 H 0.47723 0.8106 0.38026 0.0
H1173 H 0.45942 0.74432 0.38439 0.0
H1174 H 0.47076 0.6895 0.54648 0.0
H1175 H 0.47437 0.70533 0.48615 0.0
H1176 H 0.5079 0.77193 0.482 0.0
C1177 C 0.48137 0.8002 0.35751 0.0
C1178 C 0.46996 0.75045 0.40571 0.0
C1179 C 0.48194 0.8092 0.32269 0.0
C1180 C 0.47455 0.70678 0.54392 0.0
C1181 C 0.47645 0.71594 0.50937 0.0
C1182 C 0.49688 0.76594 0.46129 0.0
C1183 C 0.48555 0.77779 0.36272 0.0
C1184 C 0.48426 0.76798 0.39911 0.0
C1185 C 0.48112 0.73841 0.505 0.0
C1186 C 0.48237 0.74847 0.4683 0.0
H1187 H 0.49579 0.76305 0.27571 0.0
H1188 H 0.49411 0.74729 0.33641 0.0
H1189 H 0.50895 0.78911 0.42242 0.0
H1190 H 0.4851 0.75254 0.59391 0.0
H1191 H 0.48736 0.76873 0.53409 0.0
C1192 C 0.18915 0.51342 0.68923 0.0
C1193 C 0.20508 0.51082 0.71641 0.0
C1194 C 0.19492 0.51161 0.6526 0.0
C1195 C 0.2392 0.49199 0.59093 0.0
H1196 H 0.21916 0.53888 0.52839 0.0
C1197 C 0.26865 0.502 0.44172 0.0
C1198 C 0.27434 0.52354 0.43188 0.0
C1199 C 0.25791 0.49787 0.4746 0.0
C1200 C 0.22488 0.52564 0.54548 0.0
H1201 H 0.23941 0.50345 0.72628 0.0
H1202 H 0.24935 0.50047 0.66298 0.0
H1203 H 0.20425 0.53562 0.58932 0.0
H1204 H 0.27346 0.55753 0.44936 0.0
H1205 H 0.25506 0.5503 0.50621 0.0
H1206 H 0.26057 0.48264 0.54755 0.0
C1207 C 0.23239 0.50372 0.66974 0.0
C1208 C 0.21613 0.52361 0.58028 0.0
C1209 C 0.22668 0.50564 0.70615 0.0
C1210 C 0.26924 0.54074 0.4558 0.0
C1211 C 0.25848 0.53663 0.48839 0.0
C1212 C 0.24793 0.494 0.55605 0.0
C1213 C 0.21669 0.50699 0.64245 0.0
C1214 C 0.2236 0.50712 0.60379 0.0
C1215 C 0.25254 0.5152 0.49815 0.0
C1216 C 0.24131 0.51123 0.5333 0.0
H1217 H 0.17237 0.51741 0.69618 0.0
H1218 H 0.1824 0.51407 0.63221 0.0
H1219 H 0.24509 0.4789 0.60819 0.0
H1220 H 0.27234 0.48838 0.42394 0.0
H1221 H 0.25353 0.48117 0.48136 0.0
C1222 C 0.98487 0.18951 0.179 0.0
C1223 C 0.99453 0.20374 0.20426 0.0
C1224 C 0.98541 0.19453 0.14204 0.0
C1225 C 0.01335 0.22623 0.07185 0.0
H1226 H 0.95574 0.23363 0.02939 0.0
C1227 C 1.00015 0.27339 0.93752 0.0
C1228 C 0.98221 0.26766 0.91574 0.0
C1229 C 0.00315 0.2634 0.9713 0.0
C1230 C 0.97203 0.23119 0.04026 0.0
H1231 H 0.01339 0.2336 0.21071 0.0
H1232 H 0.01489 0.24195 0.14609 0.0
H1233 H 0.95914 0.21862 0.09 0.0
H1234 H 0.95411 0.24616 0.91096 0.0
H1235 H 0.95994 0.22792 0.96852 0.0
H1236 H 0.02639 0.23843 0.02205 0.0
C1237 C 0.00671 0.22712 0.15488 0.0
C1238 C 0.97391 0.22265 0.07516 0.0
C1239 C 0.00574 0.22239 0.19181 0.0
C1240 C 0.96787 0.25118 0.92756 0.0
C1241 C 0.97116 0.24082 0.96077 0.0
C1242 C 0.01153 0.23437 0.03655 0.0
C1243 C 0.99609 0.21354 0.12977 0.0
C1244 C 0.99454 0.22037 0.09144 0.0
C1245 C 0.98854 0.24709 0.98357 0.0
C1246 C 0.9908 0.23726 0.02041 0.0
H1247 H 0.97602 0.17511 0.18793 0.0
H1248 H 0.97711 0.18382 0.12309 0.0
H1249 H 0.02945 0.22458 0.08391 0.0
H1250 H 0.0114 0.28612 0.92899 0.0
H1251 H 0.01656 0.26895 0.98813 0.0
C1252 C 0.22653 1.00101 0.44785 0.0
C1253 C 0.23329 0.98446 0.42403 0.0
C1254 C 0.23725 0.00385 0.48114 0.0
C1255 C 0.27382 0.97293 0.5444 0.0
H1256 H 0.27576 0.02833 0.59559 0.0
C1257 C 0.31608 0.9819 0.68358 0.0
C1258 C 0.30179 0.98978 0.71039 0.0
C1259 C 0.3105 0.98376 0.6469 0.0
C1260 C 0.27542 0.01279 0.58143 0.0
H1261 H 0.25731 0.95897 0.41471 0.0
H1262 H 0.2768 0.96471 0.47122 0.0
H1263 H 0.26097 0.027 0.53412 0.0
H1264 H 0.27119 0.00695 0.71988 0.0
H1265 H 0.2618 0.01067 0.65597 0.0
H1266 H 0.2885 0.95886 0.59166 0.0
C1267 C 0.26262 0.97482 0.46561 0.0
C1268 C 0.26677 0.01195 0.54632 0.0
C1269 C 0.25159 0.97163 0.43298 0.0
C1270 C 0.28247 1.00061 0.6998 0.0
C1271 C 0.27714 0.00287 0.66323 0.0
C1272 C 0.28282 0.97388 0.57912 0.0
C1273 C 0.25523 0.99049 0.49078 0.0
C1274 C 0.26558 0.99193 0.52743 0.0
C1275 C 0.29081 0.99399 0.63645 0.0
C1276 C 0.28345 0.99373 0.59818 0.0
H1277 H 0.21237 0.01103 0.44148 0.0
H1278 H 0.23087 0.01596 0.49977 0.0
H1279 H 0.27274 0.95707 0.53144 0.0
H1280 H 0.33102 0.97341 0.69099 0.0
H1281 H 0.32134 0.97682 0.6267 0.0
C1282 C 0.51068 0.2462 0.92492 0.0
C1283 C 0.5213 0.22586 0.92102 0.0
C1284 C 0.50955 0.25644 0.9587 0.0
C1285 C 0.53739 0.25656 0.04755 0.0
H1286 H 0.48552 0.2874 0.08071 0.0
C1287 C 0.52244 0.27576 0.19618 0.0
C1288 C 0.51617 0.29715 0.20587 0.0
C1289 C 0.52309 0.26941 0.16007 0.0
C1290 C 0.5002 0.27912 0.07148 0.0
H1291 H 0.53814 0.19987 0.94989 0.0
H1292 H 0.5357 0.21745 0.00885 0.0
H1293 H 0.48587 0.27082 0.02034 0.0
H1294 H 0.50547 0.32862 0.18512 0.0
H1295 H 0.5062 0.31719 0.12124 0.0
H1296 H 0.55142 0.26422 0.09906 0.0
C1297 C 0.5288 0.22581 0.98563 0.0
C1298 C 0.50042 0.2696 0.03701 0.0
C1299 C 0.53005 0.21563 0.95186 0.0
C1300 C 0.51035 0.31204 0.17845 0.0
C1301 C 0.51071 0.30552 0.14204 0.0
C1302 C 0.53709 0.2659 0.08195 0.0
C1303 C 0.51891 0.24653 0.98934 0.0
C1304 C 0.51889 0.25783 0.02496 0.0
C1305 C 0.51732 0.28418 0.13264 0.0
C1306 C 0.51836 0.27689 0.09452 0.0
H1307 H 0.50379 0.25456 0.90168 0.0
H1308 H 0.50193 0.27244 0.96055 0.0
H1309 H 0.5521 0.24817 0.03876 0.0
H1310 H 0.52718 0.26387 0.21652 0.0
H1311 H 0.52799 0.25279 0.15359 0.0
C1312 C 0.2282 0.56266 0.31019 0.0
C1313 C 0.24889 0.57276 0.31015 0.0
C1314 C 0.20952 0.57435 0.29975 0.0
C1315 C 0.1886 0.6311 0.28629 0.0
H1316 H 0.14286 0.60115 0.23285 0.0
C1317 C 0.11311 0.67446 0.22018 0.0
C1318 C 0.09286 0.66378 0.22475 0.0
C1319 C 0.13261 0.66445 0.23168 0.0
C1320 C 0.15543 0.6097 0.24799 0.0
H1321 H 0.2662 0.603 0.29843 0.0
H1322 H 0.23375 0.62318 0.27942 0.0
H1323 H 0.17596 0.58135 0.2497 0.0
H1324 H 0.07726 0.63463 0.2466 0.0
H1325 H 0.11106 0.61737 0.26633 0.0
H1326 H 0.16798 0.65959 0.28391 0.0
C1327 C 0.23183 0.60639 0.28837 0.0
C1328 C 0.17439 0.59833 0.25779 0.0
C1329 C 0.25048 0.59476 0.29908 0.0
C1330 C 0.09252 0.6433 0.24228 0.0
C1331 C 0.11192 0.6333 0.25345 0.0
C1332 C 0.16966 0.64255 0.27618 0.0
C1333 C 0.21108 0.59638 0.28866 0.0
C1334 C 0.19115 0.60878 0.27739 0.0
C1335 C 0.13221 0.64353 0.24768 0.0
C1336 C 0.15278 0.63188 0.25728 0.0
H1337 H 0.22637 0.54578 0.31872 0.0
H1338 H 0.19379 0.56617 0.30091 0.0
H1339 H 0.20102 0.63963 0.30175 0.0
H1340 H 0.11397 0.69025 0.20686 0.0
H1341 H 0.14805 0.67271 0.22689 0.0
C1342 C 0.83403 0.11058 0.71076 0.0
C1343 C 0.83982 0.08932 0.72185 0.0
C1344 C 0.8458 0.12874 0.72305 0.0
C1345 C 0.9003 0.14448 0.75343 0.0
H1346 H 0.8717 0.19813 0.78385 0.0
C1347 C 0.94874 0.22163 0.79963 0.0
C1348 C 0.93975 0.24216 0.79079 0.0
C1349 C 0.93698 0.20236 0.7927 0.0
C1350 C 0.87998 0.18339 0.77494 0.0
H1351 H 0.86214 0.07049 0.7554 0.0
H1352 H 0.88291 0.10233 0.77656 0.0
H1353 H 0.84973 0.16575 0.77093 0.0
H1354 H 0.91201 0.25853 0.76598 0.0
H1355 H 0.89196 0.22509 0.75272 0.0
H1356 H 0.9305 0.16225 0.75624 0.0
C1357 C 0.86922 0.10485 0.75834 0.0
C1358 C 0.86736 0.1648 0.76779 0.0
C1359 C 0.85722 0.08667 0.74645 0.0
C1360 C 0.91925 0.24297 0.77353 0.0
C1361 C 0.90766 0.22377 0.76623 0.0
C1362 C 0.91294 0.16317 0.7602 0.0
C1363 C 0.86379 0.12603 0.74636 0.0
C1364 C 0.87735 0.14522 0.75663 0.0
C1365 C 0.91611 0.20322 0.77644 0.0
C1366 C 0.90291 0.18297 0.77062 0.0
H1367 H 0.82069 0.11316 0.69188 0.0
H1368 H 0.84132 0.14485 0.71321 0.0
H1369 H 0.90841 0.12965 0.74447 0.0
H1370 H 0.96445 0.2205 0.81317 0.0
H1371 H 0.94396 0.18687 0.80116 0.0
C1372 C 0.27411 0.94455 0.28946 0.0
C1373 C 0.25658 0.93403 0.30689 0.0
C1374 C 0.29268 0.93266 0.27902 0.0
C1375 C 0.31242 0.87547 0.26389 0.0
H1376 H 0.36946 0.90315 0.26896 0.0
C1377 C 0.4112 0.85386 0.25196 0.0
C1378 C 0.41081 0.8396 0.22214 0.0
C1379 C 0.39202 0.86403 0.26387 0.0
C1380 C 0.35372 0.89499 0.26785 0.0
H1381 H 0.24492 0.90286 0.32756 0.0
H1382 H 0.27748 0.88239 0.3107 0.0
H1383 H 0.33716 0.92359 0.28693 0.0
H1384 H 0.38991 0.82427 0.18205 0.0
H1385 H 0.35649 0.84253 0.20203 0.0
H1386 H 0.32913 0.84656 0.24628 0.0
C1387 C 0.27673 0.89964 0.30396 0.0
C1388 C 0.33508 0.90691 0.27757 0.0
C1389 C 0.25807 0.91144 0.31389 0.0
C1390 C 0.39068 0.83507 0.20528 0.0
C1391 C 0.37151 0.84554 0.21683 0.0
C1392 C 0.33111 0.86345 0.25461 0.0
C1393 C 0.29427 0.91004 0.28624 0.0
C1394 C 0.31415 0.89734 0.27566 0.0
C1395 C 0.37201 0.8605 0.24586 0.0
C1396 C 0.35203 0.87305 0.25643 0.0
H1397 H 0.27334 0.9619 0.28339 0.0
H1398 H 0.30565 0.94119 0.26486 0.0
H1399 H 0.29659 0.8676 0.26151 0.0
H1400 H 0.42646 0.85747 0.26574 0.0
H1401 H 0.39298 0.87491 0.28696 0.0
C1402 C 0.57323 0.26812 0.82218 0.0
C1403 C 0.55952 0.25796 0.79666 0.0
C1404 C 0.58475 0.28717 0.81338 0.0
C1405 C 0.58844 0.33163 0.74374 0.0
H1406 H 0.64601 0.34009 0.78617 0.0
C1407 C 0.65236 0.39221 0.68764 0.0
C1408 C 0.66072 0.40771 0.71226 0.0
C1409 C 0.63986 0.37453 0.6997 0.0
C1410 C 0.62988 0.338 0.77441 0.0
H1411 H 0.54709 0.25975 0.74188 0.0
H1412 H 0.56796 0.29243 0.72573 0.0
H1413 H 0.62445 0.30798 0.80268 0.0
H1414 H 0.66297 0.41637 0.76903 0.0
H1415 H 0.6416 0.38472 0.79032 0.0
H1416 H 0.5946 0.36122 0.7141 0.0
C1417 C 0.56934 0.28618 0.75305 0.0
C1418 C 0.61739 0.31965 0.78395 0.0
C1419 C 0.55742 0.26734 0.76216 0.0
C1420 C 0.65678 0.40471 0.74944 0.0
C1421 C 0.64459 0.38665 0.7616 0.0
C1422 C 0.60112 0.34972 0.73369 0.0
C1423 C 0.58327 0.29634 0.77852 0.0
C1424 C 0.59647 0.31615 0.76871 0.0
C1425 C 0.63573 0.37163 0.73671 0.0
C1426 C 0.62196 0.35303 0.74886 0.0
H1427 H 0.57497 0.26143 0.84919 0.0
H1428 H 0.59475 0.2947 0.83413 0.0
H1429 H 0.57229 0.3299 0.73196 0.0
H1430 H 0.65492 0.39405 0.65879 0.0
H1431 H 0.63337 0.36307 0.68003 0.0
C1432 C 0.7275 0.4453 0.19566 0.0
C1433 C 0.74682 0.43471 0.1845 0.0
C1434 C 0.70879 0.43316 0.20443 0.0
C1435 C 0.69116 0.37724 0.23085 0.0
H1436 H 0.63337 0.39941 0.20699 0.0
C1437 C 0.59366 0.34967 0.23828 0.0
C1438 C 0.59339 0.34089 0.27347 0.0
C1439 C 0.6126 0.35972 0.22472 0.0
C1440 C 0.64938 0.39281 0.21345 0.0
H1441 H 0.76151 0.40299 0.17355 0.0
H1442 H 0.72886 0.38192 0.18814 0.0
H1443 H 0.66575 0.41978 0.18813 0.0
H1444 H 0.61308 0.33527 0.32155 0.0
H1445 H 0.64574 0.35297 0.29826 0.0
H1446 H 0.67485 0.35009 0.25557 0.0
C1447 C 0.72823 0.39959 0.19078 0.0
C1448 C 0.66797 0.40468 0.20309 0.0
C1449 C 0.74696 0.4117 0.18223 0.0
C1450 C 0.61266 0.34183 0.29432 0.0
C1451 C 0.6315 0.35189 0.28084 0.0
C1452 C 0.6726 0.36534 0.24105 0.0
C1453 C 0.70891 0.41013 0.2021 0.0
C1454 C 0.6891 0.39716 0.21197 0.0
C1455 C 0.63167 0.3612 0.24605 0.0
C1456 C 0.65145 0.37309 0.23287 0.0
H1457 H 0.72686 0.46298 0.19794 0.0
H1458 H 0.69434 0.44183 0.21363 0.0
H1459 H 0.70713 0.37102 0.23848 0.0
H1460 H 0.57915 0.34915 0.22142 0.0
H1461 H 0.61226 0.36643 0.1976 0.0
C1462 C 0.05384 0.72684 0.71029 0.0
C1463 C 0.06465 0.74571 0.69777 0.0
C1464 C 0.06575 0.70781 0.71852 0.0
C1465 C 0.12242 0.6896 0.7401 0.0
H1466 H 0.09904 0.63158 0.72196 0.0
C1467 C 0.15095 0.59246 0.74833 0.0
C1468 C 0.16173 0.59307 0.78197 0.0
C1469 C 0.13979 0.61097 0.73537 0.0
C1470 C 0.10594 0.64766 0.72676 0.0
H1471 H 0.0964 0.75913 0.68312 0.0
H1472 H 0.11685 0.72609 0.69639 0.0
H1473 H 0.07786 0.6638 0.70428 0.0
H1474 H 0.16965 0.61386 0.82786 0.0
H1475 H 0.15008 0.64565 0.80577 0.0
H1476 H 0.15069 0.67363 0.76165 0.0
C1477 C 0.09932 0.72602 0.70096 0.0
C1478 C 0.09363 0.66616 0.71713 0.0
C1479 C 0.08752 0.74501 0.69315 0.0
C1480 C 0.16159 0.61274 0.8018 0.0
C1481 C 0.15042 0.6311 0.78899 0.0
C1482 C 0.13475 0.67118 0.74944 0.0
C1483 C 0.08868 0.70722 0.71412 0.0
C1484 C 0.10168 0.68738 0.72387 0.0
C1485 C 0.1392 0.63045 0.75578 0.0
C1486 C 0.1266 0.64996 0.7433 0.0
H1487 H 0.03625 0.72685 0.71417 0.0
H1488 H 0.05702 0.69372 0.72898 0.0
H1489 H 0.12908 0.70562 0.7462 0.0
H1490 H 0.15075 0.57759 0.73234 0.0
H1491 H 0.13157 0.60999 0.70945 0.0
C1492 C 0.75681 0.09003 0.21383 0.0
C1493 C 0.75811 0.06939 0.19708 0.0
C1494 C 0.77583 0.10141 0.22329 0.0
C1495 C 0.83332 0.10798 0.1989 0.0
H1496 H 0.83928 0.13359 0.2944 0.0
C1497 C 0.91394 0.14857 0.24801 0.0
C1498 C 0.91251 0.16592 0.27291 0.0
C1499 C 0.8951 0.13725 0.23719 0.0
C1500 C 0.83778 0.12693 0.26735 0.0
H1501 H 0.78041 0.04444 0.17726 0.0
H1502 H 0.81374 0.06459 0.19332 0.0
H1503 H 0.80662 0.11253 0.27954 0.0
H1504 H 0.89009 0.18588 0.30425 0.0
H1505 H 0.85719 0.16687 0.28425 0.0
H1506 H 0.86415 0.12282 0.18622 0.0
C1507 C 0.79793 0.07185 0.1992 0.0
C1508 C 0.8191 0.11471 0.25899 0.0
C1509 C 0.77887 0.06027 0.19026 0.0
C1510 C 0.89175 0.17242 0.28532 0.0
C1511 C 0.87289 0.16135 0.27409 0.0
C1512 C 0.85191 0.12049 0.20707 0.0
C1513 C 0.79658 0.09256 0.21572 0.0
C1514 C 0.81668 0.1051 0.22472 0.0
C1515 C 0.87433 0.14322 0.25063 0.0
C1516 C 0.8544 0.13016 0.24144 0.0
H1517 H 0.74105 0.09746 0.21953 0.0
H1518 H 0.77431 0.11739 0.23581 0.0
H1519 H 0.83174 0.10096 0.17211 0.0
H1520 H 0.92972 0.14305 0.23813 0.0
H1521 H 0.89697 0.12329 0.21939 0.0
C1522 C 0.36212 0.9089 0.75226 0.0
C1523 C 0.34284 0.90669 0.77278 0.0
C1524 C 0.37362 0.89033 0.74068 0.0
C1525 C 0.37041 0.8341 0.71471 0.0
H1526 H 0.42636 0.82446 0.76193 0.0
C1527 C 0.41627 0.75196 0.69902 0.0
C1528 C 0.43927 0.75186 0.7 0.0
C1529 C 0.40455 0.77103 0.70712 0.0
C1530 C 0.41103 0.82698 0.74781 0.0
H1531 H 0.31991 0.88342 0.79574 0.0
H1532 H 0.33959 0.85091 0.77402 0.0
H1533 H 0.40569 0.85781 0.7744 0.0
H1534 H 0.46809 0.77166 0.70989 0.0
H1535 H 0.44782 0.80524 0.72216 0.0
H1536 H 0.37583 0.80391 0.68691 0.0
C1537 C 0.34592 0.86703 0.76756 0.0
C1538 C 0.39915 0.84607 0.75523 0.0
C1539 C 0.33472 0.88558 0.77995 0.0
C1540 C 0.45034 0.77122 0.70925 0.0
C1541 C 0.43864 0.79047 0.7165 0.0
C1542 C 0.38251 0.81524 0.70657 0.0
C1543 C 0.3657 0.86927 0.74859 0.0
C1544 C 0.37868 0.84966 0.73901 0.0
C1545 C 0.41552 0.79069 0.71556 0.0
C1546 C 0.40291 0.81123 0.72332 0.0
H1547 H 0.36889 0.92496 0.74664 0.0
H1548 H 0.38887 0.89237 0.72605 0.0
H1549 H 0.35467 0.83663 0.7018 0.0
H1550 H 0.4073 0.73719 0.69235 0.0
H1551 H 0.38683 0.77019 0.70702 0.0
C1552 C 0.91255 0.35509 0.74104 0.0
C1553 C 0.91072 0.33689 0.76415 0.0
C1554 C 0.89377 0.3659 0.72852 0.0
C1555 C 0.83464 0.37248 0.75153 0.0
H1556 H 0.83225 0.40266 0.65927 0.0
C1557 C 0.75517 0.41076 0.6945 0.0
C1558 C 0.75677 0.43246 0.68195 0.0
C1559 C 0.774 0.39883 0.70327 0.0
C1560 C 0.83277 0.39439 0.6852 0.0
H1561 H 0.88782 0.31487 0.79029 0.0
H1562 H 0.85514 0.33296 0.76717 0.0
H1563 H 0.86475 0.38131 0.67513 0.0
H1564 H 0.77946 0.45855 0.66841 0.0
H1565 H 0.81244 0.43748 0.68319 0.0
H1566 H 0.80243 0.38521 0.76109 0.0
C1567 C 0.871 0.33956 0.75985 0.0
C1568 C 0.85142 0.3822 0.6944 0.0
C1569 C 0.88975 0.32902 0.77285 0.0
C1570 C 0.77767 0.44189 0.67809 0.0
C1571 C 0.79654 0.42981 0.68632 0.0
C1572 C 0.81592 0.38438 0.74208 0.0
C1573 C 0.8727 0.35854 0.73836 0.0
C1574 C 0.85265 0.37109 0.72777 0.0
C1575 C 0.79488 0.4082 0.69918 0.0
C1576 C 0.8148 0.39551 0.7089 0.0
H1577 H 0.9285 0.36163 0.73405 0.0
H1578 H 0.89584 0.38054 0.71236 0.0
H1579 H 0.83508 0.3647 0.77785 0.0
H1580 H 0.73932 0.40303 0.6979 0.0
H1581 H 0.77225 0.38216 0.71294 0.0
C1582 C 0.15245 0.89314 0.30666 0.0
C1583 C 0.1608 0.9087 0.28216 0.0
C1584 C 0.14017 0.87535 0.29442 0.0
C1585 C 0.13112 0.83856 0.2199 0.0
H1586 H 0.0733 0.83003 0.26115 0.0
C1587 C 0.07538 0.76769 0.17239 0.0
C1588 C 0.06152 0.75769 0.19786 0.0
C1589 C 0.08683 0.78682 0.18103 0.0
C1590 C 0.08952 0.83187 0.24972 0.0
H1591 H 0.16326 0.9174 0.22544 0.0
H1592 H 0.14227 0.88556 0.20383 0.0
H1593 H 0.09507 0.86171 0.27898 0.0
H1594 H 0.04891 0.7598 0.25251 0.0
H1595 H 0.06963 0.79258 0.26835 0.0
H1596 H 0.12628 0.80828 0.19203 0.0
C1597 C 0.14509 0.88752 0.23259 0.0
C1598 C 0.10189 0.85018 0.25973 0.0
C1599 C 0.15704 0.9057 0.24493 0.0
C1600 C 0.05933 0.76725 0.23222 0.0
C1601 C 0.07115 0.78617 0.24116 0.0
C1602 C 0.11894 0.81999 0.21039 0.0
C1603 C 0.13628 0.87241 0.25735 0.0
C1604 C 0.12281 0.85364 0.24502 0.0
C1605 C 0.0851 0.79625 0.21568 0.0
C1606 C 0.09796 0.81631 0.22526 0.0
H1607 H 0.15488 0.895 0.33555 0.0
H1608 H 0.13369 0.86383 0.314 0.0
H1609 H 0.14732 0.84077 0.20849 0.0
H1610 H 0.07722 0.76085 0.1455 0.0
H1611 H 0.09691 0.79426 0.1603 0.0
C1612 C 0.74566 0.08582 0.71379 0.0
C1613 C 0.74371 0.0645 0.69968 0.0
C1614 C 0.72705 0.0981 0.72223 0.0
C1615 C 0.66906 0.10372 0.69839 0.0
H1616 H 0.66551 0.13813 0.78643 0.0
C1617 C 0.58896 0.14411 0.74682 0.0
C1618 C 0.58995 0.16406 0.76581 0.0
C1619 C 0.60809 0.13331 0.73634 0.0
C1620 C 0.66639 0.12894 0.7614 0.0
H1621 H 0.72065 0.03915 0.68423 0.0
H1622 H 0.68801 0.06071 0.69897 0.0
H1623 H 0.69782 0.11563 0.77502 0.0
H1624 H 0.61192 0.18895 0.78677 0.0
H1625 H 0.64543 0.17027 0.76773 0.0
H1626 H 0.63775 0.11709 0.68456 0.0
C1627 C 0.70402 0.06791 0.70323 0.0
C1628 C 0.68485 0.11594 0.75499 0.0
C1629 C 0.7227 0.05551 0.69508 0.0
C1630 C 0.61056 0.17357 0.77232 0.0
C1631 C 0.62977 0.16274 0.76172 0.0
C1632 C 0.65066 0.11683 0.70467 0.0
C1633 C 0.70603 0.08943 0.71653 0.0
C1634 C 0.68632 0.10307 0.72354 0.0
C1635 C 0.62875 0.14222 0.74436 0.0
C1636 C 0.64901 0.12948 0.73639 0.0
H1637 H 0.76162 0.09321 0.71782 0.0
H1638 H 0.72913 0.11466 0.73222 0.0
H1639 H 0.66991 0.0943 0.67358 0.0
H1640 H 0.57338 0.13631 0.7412 0.0
H1641 H 0.60662 0.11747 0.72335 0.0
C1642 C 0.4278 0.73794 0.16686 0.0
C1643 C 0.44122 0.74805 0.19293 0.0
C1644 C 0.41556 0.7193 0.17569 0.0
C1645 C 0.38746 0.69349 0.24967 0.0
H1646 H 0.3946 0.63809 0.19963 0.0
C1647 C 0.35052 0.61462 0.30722 0.0
C1648 C 0.3437 0.59773 0.28395 0.0
C1649 C 0.36137 0.63298 0.29379 0.0
C1650 C 0.39202 0.65351 0.21346 0.0
H1651 H 0.45228 0.74666 0.24866 0.0
H1652 H 0.43024 0.71448 0.26436 0.0
H1653 H 0.4157 0.67007 0.18024 0.0
H1654 H 0.34263 0.5871 0.22805 0.0
H1655 H 0.36084 0.61978 0.20413 0.0
H1656 H 0.36334 0.67758 0.2821 0.0
C1657 C 0.42952 0.72085 0.23701 0.0
C1658 C 0.40425 0.67176 0.20247 0.0
C1659 C 0.44216 0.73916 0.22798 0.0
C1660 C 0.34773 0.59983 0.24667 0.0
C1661 C 0.35832 0.61851 0.23305 0.0
C1662 C 0.3749 0.67546 0.26016 0.0
C1663 C 0.41612 0.71078 0.21095 0.0
C1664 C 0.40236 0.69176 0.22096 0.0
C1665 C 0.36538 0.63532 0.25651 0.0
C1666 C 0.37733 0.65503 0.2428 0.0
H1667 H 0.42683 0.74438 0.13958 0.0
H1668 H 0.40527 0.71182 0.15521 0.0
H1669 H 0.38548 0.70888 0.26395 0.0
H1670 H 0.348 0.61344 0.33618 0.0
H1671 H 0.36703 0.64512 0.313 0.0
C1672 C 0.41458 0.63613 0.74974 0.0
C1673 C 0.41359 0.65721 0.73438 0.0
C1674 C 0.39554 0.62561 0.76141 0.0
C1675 C 0.3378 0.63419 0.78723 0.0
H1676 H 0.33086 0.574 0.75548 0.0
C1677 C 0.25557 0.58819 0.80108 0.0
C1678 C 0.25626 0.56595 0.811 0.0
C1679 C 0.27479 0.59945 0.79234 0.0
C1680 C 0.33263 0.59069 0.76504 0.0
H1681 H 0.39183 0.68416 0.721 0.0
H1682 H 0.35855 0.66575 0.74161 0.0
H1683 H 0.36441 0.59377 0.74112 0.0
H1684 H 0.27776 0.53807 0.81927 0.0
H1685 H 0.31133 0.55779 0.80467 0.0
H1686 H 0.30609 0.63109 0.81139 0.0
C1687 C 0.37413 0.6574 0.7445 0.0
C1688 C 0.35187 0.60203 0.75676 0.0
C1689 C 0.3932 0.66792 0.73261 0.0
C1690 C 0.27662 0.55517 0.81162 0.0
C1691 C 0.29588 0.56647 0.80308 0.0
C1692 C 0.31859 0.6228 0.79573 0.0
C1693 C 0.37505 0.63593 0.75824 0.0
C1694 C 0.35467 0.62391 0.76773 0.0
C1695 C 0.29522 0.58879 0.79346 0.0
C1696 C 0.31573 0.6009 0.78467 0.0
H1697 H 0.43 0.62741 0.75175 0.0
H1698 H 0.39682 0.60922 0.77247 0.0
H1699 H 0.33958 0.65097 0.79635 0.0
H1700 H 0.24015 0.59697 0.80002 0.0
H1701 H 0.27359 0.61648 0.78439 0.0
C1702 C 0.84744 0.39393 0.19104 0.0
C1703 C 0.84354 0.41215 0.21348 0.0
C1704 C 0.86003 0.37633 0.20326 0.0
C1705 C 0.87932 0.34775 0.28405 0.0
H1706 H 0.92436 0.32541 0.21967 0.0
C1707 C 0.91904 0.2628 0.30137 0.0
C1708 C 0.94193 0.26115 0.2976 0.0
C1709 C 0.90816 0.2823 0.2932 0.0
C1710 C 0.912 0.33159 0.23807 0.0
H1711 H 0.84918 0.42568 0.26698 0.0
H1712 H 0.87092 0.39455 0.28858 0.0
H1713 H 0.90277 0.3574 0.20183 0.0
H1714 H 0.97131 0.27873 0.28189 0.0
H1715 H 0.95211 0.31286 0.26691 0.0
H1716 H 0.88828 0.32167 0.31999 0.0
C1717 C 0.86432 0.39413 0.26137 0.0
C1718 C 0.89952 0.34976 0.22774 0.0
C1719 C 0.85189 0.41194 0.24899 0.0
C1720 C 0.95368 0.27948 0.28512 0.0
C1721 C 0.9427 0.29897 0.27648 0.0
C1722 C 0.89163 0.32941 0.2942 0.0
C1723 C 0.86885 0.37635 0.23834 0.0
C1724 C 0.88288 0.35787 0.25043 0.0
C1725 C 0.91984 0.30059 0.28065 0.0
C1726 C 0.90794 0.32101 0.27113 0.0
H1727 H 0.84127 0.39346 0.16357 0.0
H1728 H 0.86293 0.36267 0.18514 0.0
H1729 H 0.86657 0.35362 0.30202 0.0
H1730 H 0.90943 0.24906 0.31096 0.0
H1731 H 0.89051 0.28295 0.29619 0.0
C1732 C 0.08909 0.85668 0.75426 0.0
C1733 C 0.09063 0.83982 0.72845 0.0
C1734 C 0.10795 0.86755 0.76619 0.0
C1735 C 0.16765 0.86308 0.77446 0.0
H1736 H 0.16777 0.9263 0.76373 0.0
C1737 C 0.24772 0.91252 0.78498 0.0
C1738 C 0.24699 0.93338 0.80102 0.0
C1739 C 0.22839 0.90121 0.77713 0.0
C1740 C 0.16798 0.90871 0.76755 0.0
H1741 H 0.11314 0.82037 0.69636 0.0
H1742 H 0.14609 0.83898 0.71793 0.0
H1743 H 0.13439 0.90571 0.75126 0.0
H1744 H 0.2254 0.95879 0.82127 0.0
H1745 H 0.19169 0.93882 0.80874 0.0
H1746 H 0.201 0.86592 0.79141 0.0
C1747 C 0.1303 0.84393 0.72859 0.0
C1748 C 0.14882 0.89693 0.7603 0.0
C1749 C 0.11145 0.83334 0.71618 0.0
C1750 C 0.2265 0.94281 0.80864 0.0
C1751 C 0.20714 0.93135 0.8013 0.0
C1752 C 0.18671 0.87487 0.78225 0.0
C1753 C 0.1287 0.86145 0.75308 0.0
C1754 C 0.14855 0.87399 0.76332 0.0
C1755 C 0.20782 0.91032 0.78565 0.0
C1756 C 0.18724 0.89784 0.77848 0.0
H1757 H 0.07327 0.8621 0.76409 0.0
H1758 H 0.10632 0.88091 0.78529 0.0
H1759 H 0.1678 0.84541 0.77727 0.0
H1760 H 0.26327 0.90491 0.77847 0.0
H1761 H 0.22963 0.88533 0.76425 0.0
C1762 C 0.66918 0.11718 0.21158 0.0
C1763 C 0.66249 0.09605 0.22176 0.0
C1764 C 0.65798 0.13564 0.22415 0.0
C1765 C 0.61618 0.15455 0.29123 0.0
H1766 H 0.60921 0.20186 0.22206 0.0
C1767 C 0.5559 0.22774 0.31012 0.0
C1768 C 0.56521 0.24854 0.30461 0.0
C1769 C 0.56762 0.20875 0.30114 0.0
C1770 C 0.61111 0.18882 0.24171 0.0
H1771 H 0.63921 0.07771 0.2541 0.0
H1772 H 0.6192 0.10984 0.27517 0.0
H1773 H 0.63036 0.16961 0.20542 0.0
H1774 H 0.5939 0.26576 0.28475 0.0
H1775 H 0.61407 0.2327 0.2685 0.0
H1776 H 0.59626 0.17379 0.32705 0.0
C1777 C 0.63339 0.11227 0.25807 0.0
C1778 C 0.62339 0.17036 0.23233 0.0
C1779 C 0.64484 0.0938 0.24591 0.0
C1780 C 0.5863 0.24998 0.28948 0.0
C1781 C 0.59782 0.23107 0.28 0.0
C1782 C 0.60362 0.17294 0.30042 0.0
C1783 C 0.63954 0.13343 0.24675 0.0
C1784 C 0.6263 0.15303 0.25705 0.0
C1785 C 0.58866 0.21027 0.28588 0.0
C1786 C 0.60114 0.19032 0.27583 0.0
H1787 H 0.68289 0.11945 0.19332 0.0
H1788 H 0.66364 0.15165 0.21568 0.0
H1789 H 0.61823 0.1417 0.31115 0.0
H1790 H 0.5397 0.22611 0.32181 0.0
H1791 H 0.56014 0.1929 0.30572 0.0
loop_
_geom_bond_atom_site_label_1
_geom_bond_atom_site_label_2
_geom_bond_distance
_geom_bond_site_symmetry_2
_ccdc_geom_bond_type
Fe0 O2 1.918 . S
Fe0 O5 1.997 . S
Fe0 O6 2.002 . S
Fe0 O11 1.976 . S
Fe0 O14 1.996 . S
Fe1 O2 1.918 . S
Fe1 O9 1.997 . S
Fe1 O12 1.996 . S
Fe1 O16 1.976 . S
Fe1 O19 2.002 . S
O2 Fe0 1.918 . S
O2 Fe1 1.918 . S
O2 Fe3 1.918 . S
Fe3 O2 1.918 . S
Fe3 O4 2.002 . S
Fe3 O13 1.976 . S
Fe3 O17 1.996 . S
Fe3 O20 1.997 . S
O4 Fe3 2.002 . S
O4 C21 1.295 . S
O5 Fe0 1.997 . S
O5 C21 1.235 . S
O6 Fe0 2.002 . S
O6 C7 1.295 . S
C7 O6 1.295 . S
C7 O9 1.235 . S
C8 O13 1.287 . S
C8 O14 1.255 . S
O9 Fe1 1.997 . S
O9 C7 1.235 . S
C10 O16 1.287 . S
C10 O17 1.255 . S
O11 Fe0 1.976 . S
O11 C18 1.287 . S
O12 Fe1 1.996 . S
O12 C18 1.255 . S
O13 Fe3 1.976 . S
O13 C8 1.287 . S
O14 Fe0 1.996 . S
O14 C8 1.255 . S
C15 O19 1.295 . S
C15 O20 1.235 . S
O16 Fe1 1.976 . S
O16 C10 1.287 . S
O17 Fe3 1.996 . S
O17 C10 1.255 . S
C18 O11 1.287 . S
C18 O12 1.255 . S
O19 Fe1 2.002 . S
O19 C15 1.295 . S
O20 Fe3 1.997 . S
O20 C15 1.235 . S
C21 O4 1.295 . S
C21 O5 1.235 . S
Fe22 O24 1.918 . S
Fe22 O27 1.997 . S
Fe22 O28 2.002 . S
Fe22 O33 1.976 1_655 S
Fe22 O36 1.996 . S
Fe23 O24 1.918 . S
Fe23 O31 1.997 . S
Fe23 O34 1.996 1_655 S
Fe23 O38 1.976 . S
Fe23 O41 2.002 . S
O24 Fe22 1.918 . S
O24 Fe23 1.918 . S
O24 Fe25 1.918 . S
Fe25 O24 1.918 . S
Fe25 O26 2.002 . S
Fe25 O35 1.976 . S
Fe25 O39 1.996 . S
Fe25 O42 1.997 . S
O26 Fe25 2.002 . S
O26 C43 1.295 . S
O27 Fe22 1.997 . S
O27 C43 1.235 . S
O28 Fe22 2.002 . S
O28 C29 1.295 . S
C29 O28 1.295 . S
C29 O31 1.235 . S
C30 O35 1.287 . S
C30 O36 1.255 . S
O31 Fe23 1.997 . S
O31 C29 1.235 . S
C32 O38 1.287 . S
C32 O39 1.255 . S
O33 Fe22 1.976 1_455 S
O33 C40 1.287 . S
O34 Fe23 1.996 1_455 S
O34 C40 1.255 . S
O35 Fe25 1.976 . S
O35 C30 1.287 . S
O36 Fe22 1.996 . S
O36 C30 1.255 . S
C37 O41 1.295 . S
C37 O42 1.235 . S
O38 Fe23 1.976 . S
O38 C32 1.287 . S
O39 Fe25 1.996 . S
O39 C32 1.255 . S
C40 O33 1.287 . S
C40 O34 1.255 . S
O41 Fe23 2.002 . S
O41 C37 1.295 . S
O42 Fe25 1.997 . S
O42 C37 1.235 . S
C43 O26 1.295 . S
C43 O27 1.235 . S
Fe44 O46 1.918 . S
Fe44 O49 1.997 . S
Fe44 O50 2.002 . S
Fe44 O55 1.976 1_565 S
Fe44 O58 1.996 . S
Fe45 O46 1.918 . S
Fe45 O53 1.997 . S
Fe45 O56 1.996 1_565 S
Fe45 O60 1.976 . S
Fe45 O63 2.002 . S
O46 Fe44 1.918 . S
O46 Fe45 1.918 . S
O46 Fe47 1.918 . S
Fe47 O46 1.918 . S
Fe47 O48 2.002 . S
Fe47 O57 1.976 . S
Fe47 O61 1.996 . S
Fe47 O64 1.997 . S
O48 Fe47 2.002 . S
O48 C65 1.295 . S
O49 Fe44 1.997 . S
O49 C65 1.235 . S
O50 Fe44 2.002 . S
O50 C51 1.295 . S
C51 O50 1.295 . S
C51 O53 1.235 . S
C52 O57 1.287 . S
C52 O58 1.255 . S
O53 Fe45 1.997 . S
O53 C51 1.235 . S
C54 O60 1.287 . S
C54 O61 1.255 . S
O55 Fe44 1.976 1_545 S
O55 C62 1.287 . S
O56 Fe45 1.996 1_545 S
O56 C62 1.255 . S
O57 Fe47 1.976 . S
O57 C52 1.287 . S
O58 Fe44 1.996 . S
O58 C52 1.255 . S
C59 O63 1.295 . S
C59 O64 1.235 . S
O60 Fe45 1.976 . S
O60 C54 1.287 . S
O61 Fe47 1.996 . S
O61 C54 1.255 . S
C62 O55 1.287 . S
C62 O56 1.255 . S
O63 Fe45 2.002 . S
O63 C59 1.295 . S
O64 Fe47 1.997 . S
O64 C59 1.235 . S
C65 O48 1.295 . S
C65 O49 1.235 . S
Fe66 O68 1.918 . S
Fe66 O71 1.997 . S
Fe66 O72 2.002 . S
Fe66 O77 1.976 . S
Fe66 O80 1.996 . S
Fe67 O68 1.918 . S
Fe67 O75 1.997 . S
Fe67 O78 1.996 . S
Fe67 O82 1.976 . S
Fe67 O85 2.002 . S
O68 Fe66 1.918 . S
O68 Fe67 1.918 . S
O68 Fe69 1.918 . S
Fe69 O68 1.918 . S
Fe69 O70 2.002 . S
Fe69 O79 1.976 . S
Fe69 O83 1.996 . S
Fe69 O86 1.997 . S
O70 Fe69 2.002 . S
O70 C87 1.295 . S
O71 Fe66 1.997 . S
O71 C87 1.235 . S
O72 Fe66 2.002 . S
O72 C73 1.295 . S
C73 O72 1.295 . S
C73 O75 1.235 . S
C74 O79 1.287 . S
C74 O80 1.255 . S
O75 Fe67 1.997 . S
O75 C73 1.235 . S
C76 O82 1.287 . S
C76 O83 1.255 . S
O77 Fe66 1.976 . S
O77 C84 1.287 . S
O78 Fe67 1.996 . S
O78 C84 1.255 . S
O79 Fe69 1.976 . S
O79 C74 1.287 . S
O80 Fe66 1.996 . S
O80 C74 1.255 . S
C81 O85 1.295 . S
C81 O86 1.235 . S
O82 Fe67 1.976 . S
O82 C76 1.287 . S
O83 Fe69 1.996 . S
O83 C76 1.255 . S
C84 O77 1.287 . S
C84 O78 1.255 . S
O85 Fe67 2.002 . S
O85 C81 1.295 . S
O86 Fe69 1.997 . S
O86 C81 1.235 . S
C87 O70 1.295 . S
C87 O71 1.235 . S
Fe88 O90 1.918 . S
Fe88 O93 1.997 . S
Fe88 O94 2.002 . S
Fe88 O99 1.976 . S
Fe88 O102 1.996 . S
Fe89 O90 1.918 . S
Fe89 O97 1.997 . S
Fe89 O100 1.996 . S
Fe89 O104 1.976 . S
Fe89 O107 2.002 . S
O90 Fe88 1.918 . S
O90 Fe89 1.918 . S
O90 Fe91 1.918 . S
Fe91 O90 1.918 . S
Fe91 O92 2.002 . S
Fe91 O101 1.976 . S
Fe91 O105 1.996 . S
Fe91 O108 1.997 . S
O92 Fe91 2.002 . S
O92 C109 1.295 . S
O93 Fe88 1.997 . S
O93 C109 1.235 . S
O94 Fe88 2.002 . S
O94 C95 1.295 . S
C95 O94 1.295 . S
C95 O97 1.235 . S
C96 O101 1.287 . S
C96 O102 1.255 . S
O97 Fe89 1.997 . S
O97 C95 1.235 . S
C98 O104 1.287 . S
C98 O105 1.255 . S
O99 Fe88 1.976 . S
O99 C106 1.287 . S
O100 Fe89 1.996 . S
O100 C106 1.255 . S
O101 Fe91 1.976 . S
O101 C96 1.287 . S
O102 Fe88 1.996 . S
O102 C96 1.255 . S
C103 O107 1.295 . S
C103 O108 1.235 . S
O104 Fe89 1.976 . S
O104 C98 1.287 . S
O105 Fe91 1.996 . S
O105 C98 1.255 . S
C106 O99 1.287 . S
C106 O100 1.255 . S
O107 Fe89 2.002 . S
O107 C103 1.295 . S
O108 Fe91 1.997 . S
O108 C103 1.235 . S
C109 O92 1.295 . S
C109 O93 1.235 . S
Fe110 O112 1.918 . S
Fe110 O115 1.997 . S
Fe110 O116 2.002 . S
Fe110 O121 1.976 . S
Fe110 O124 1.996 . S
Fe111 O112 1.918 . S
Fe111 O119 1.997 . S
Fe111 O122 1.996 . S
Fe111 O126 1.976 1_455 S
Fe111 O129 2.002 . S
O112 Fe110 1.918 . S
O112 Fe111 1.918 . S
O112 Fe113 1.918 . S
Fe113 O112 1.918 . S
Fe113 O114 2.002 . S
Fe113 O123 1.976 . S
Fe113 O127 1.996 1_455 S
Fe113 O130 1.997 . S
O114 Fe113 2.002 . S
O114 C131 1.295 . S
O115 Fe110 1.997 . S
O115 C131 1.235 . S
O116 Fe110 2.002 . S
O116 C117 1.295 . S
C117 O116 1.295 . S
C117 O119 1.235 . S
C118 O123 1.287 . S
C118 O124 1.255 . S
O119 Fe111 1.997 . S
O119 C117 1.235 . S
C120 O126 1.287 . S
C120 O127 1.255 . S
O121 Fe110 1.976 . S
O121 C128 1.287 . S
O122 Fe111 1.996 . S
O122 C128 1.255 . S
O123 Fe113 1.976 . S
O123 C118 1.287 . S
O124 Fe110 1.996 . S
O124 C118 1.255 . S
C125 O129 1.295 . S
C125 O130 1.235 . S
O126 Fe111 1.976 1_655 S
O126 C120 1.287 . S
O127 Fe113 1.996 1_655 S
O127 C120 1.255 . S
C128 O121 1.287 . S
C128 O122 1.255 . S
O129 Fe111 2.002 . S
O129 C125 1.295 . S
O130 Fe113 1.997 . S
O130 C125 1.235 . S
C131 O114 1.295 . S
C131 O115 1.235 . S
Fe132 O134 1.918 . S
Fe132 O137 1.997 . S
Fe132 O138 2.002 . S
Fe132 O143 1.976 . S
Fe132 O146 1.996 . S
Fe133 O134 1.918 . S
Fe133 O141 1.997 . S
Fe133 O144 1.996 . S
Fe133 O148 1.976 1_545 S
Fe133 O151 2.002 . S
O134 Fe132 1.918 . S
O134 Fe133 1.918 . S
O134 Fe135 1.918 . S
Fe135 O134 1.918 . S
Fe135 O136 2.002 . S
Fe135 O145 1.976 . S
Fe135 O149 1.996 1_545 S
Fe135 O152 1.997 . S
O136 Fe135 2.002 . S
O136 C153 1.295 . S
O137 Fe132 1.997 . S
O137 C153 1.235 . S
O138 Fe132 2.002 . S
O138 C139 1.295 . S
C139 O138 1.295 . S
C139 O141 1.235 . S
C140 O145 1.287 . S
C140 O146 1.255 . S
O141 Fe133 1.997 . S
O141 C139 1.235 . S
C142 O148 1.287 . S
C142 O149 1.255 . S
O143 Fe132 1.976 . S
O143 C150 1.287 . S
O144 Fe133 1.996 . S
O144 C150 1.255 . S
O145 Fe135 1.976 . S
O145 C140 1.287 . S
O146 Fe132 1.996 . S
O146 C140 1.255 . S
C147 O151 1.295 . S
C147 O152 1.235 . S
O148 Fe133 1.976 1_565 S
O148 C142 1.287 . S
O149 Fe135 1.996 1_565 S
O149 C142 1.255 . S
C150 O143 1.287 . S
C150 O144 1.255 . S
O151 Fe133 2.002 . S
O151 C147 1.295 . S
O152 Fe135 1.997 . S
O152 C147 1.235 . S
C153 O136 1.295 . S
C153 O137 1.235 . S
Fe154 O156 1.918 . S
Fe154 O159 1.997 . S
Fe154 O160 2.002 . S
Fe154 O165 1.976 . S
Fe154 O168 1.996 . S
Fe155 O156 1.918 . S
Fe155 O163 1.997 . S
Fe155 O166 1.996 . S
Fe155 O170 1.976 . S
Fe155 O173 2.002 . S
O156 Fe154 1.918 . S
O156 Fe155 1.918 . S
O156 Fe157 1.918 . S
Fe157 O156 1.918 . S
Fe157 O158 2.002 . S
Fe157 O167 1.976 . S
Fe157 O171 1.996 . S
Fe157 O174 1.997 . S
O158 Fe157 2.002 . S
O158 C175 1.295 . S
O159 Fe154 1.997 . S
O159 C175 1.235 . S
O160 Fe154 2.002 . S
O160 C161 1.295 . S
C161 O160 1.295 . S
C161 O163 1.235 . S
C162 O167 1.287 . S
C162 O168 1.255 . S
O163 Fe155 1.997 . S
O163 C161 1.235 . S
C164 O170 1.287 . S
C164 O171 1.255 . S
O165 Fe154 1.976 . S
O165 C172 1.287 . S
O166 Fe155 1.996 . S
O166 C172 1.255 . S
O167 Fe157 1.976 . S
O167 C162 1.287 . S
O168 Fe154 1.996 . S
O168 C162 1.255 . S
C169 O173 1.295 . S
C169 O174 1.235 . S
O170 Fe155 1.976 . S
O170 C164 1.287 . S
O171 Fe157 1.996 . S
O171 C164 1.255 . S
C172 O165 1.287 . S
C172 O166 1.255 . S
O173 Fe155 2.002 . S
O173 C169 1.295 . S
O174 Fe157 1.997 . S
O174 C169 1.235 . S
C175 O158 1.295 . S
C175 O159 1.235 . S
Fe176 O178 1.918 . S
Fe176 O181 1.997 . S
Fe176 O182 2.002 . S
Fe176 O187 1.976 . S
Fe176 O190 1.996 . S
Fe177 O178 1.918 . S
Fe177 O185 1.997 . S
Fe177 O188 1.996 . S
Fe177 O192 1.976 . S
Fe177 O195 2.002 . S
O178 Fe176 1.918 . S
O178 Fe177 1.918 . S
O178 Fe179 1.918 . S
Fe179 O178 1.918 . S
Fe179 O180 2.002 . S
Fe179 O189 1.976 . S
Fe179 O193 1.996 . S
Fe179 O196 1.997 . S
O180 Fe179 2.002 . S
O180 C197 1.295 . S
O181 Fe176 1.997 . S
O181 C197 1.235 . S
O182 Fe176 2.002 . S
O182 C183 1.295 . S
C183 O182 1.295 . S
C183 O185 1.235 . S
C184 O189 1.287 . S
C184 O190 1.255 . S
O185 Fe177 1.997 . S
O185 C183 1.235 . S
C186 O192 1.287 . S
C186 O193 1.255 . S
O187 Fe176 1.976 . S
O187 C194 1.287 . S
O188 Fe177 1.996 . S
O188 C194 1.255 . S
O189 Fe179 1.976 . S
O189 C184 1.287 . S
O190 Fe176 1.996 . S
O190 C184 1.255 . S
C191 O195 1.295 . S
C191 O196 1.235 . S
O192 Fe177 1.976 . S
O192 C186 1.287 . S
O193 Fe179 1.996 . S
O193 C186 1.255 . S
C194 O187 1.287 . S
C194 O188 1.255 . S
O195 Fe177 2.002 . S
O195 C191 1.295 . S
O196 Fe179 1.997 . S
O196 C191 1.235 . S
C197 O180 1.295 . S
C197 O181 1.235 . S
Fe198 O200 1.918 . S
Fe198 O203 1.997 . S
Fe198 O204 2.002 . S
Fe198 O209 1.976 1_455 S
Fe198 O212 1.996 . S
Fe199 O200 1.918 . S
Fe199 O207 1.997 . S
Fe199 O210 1.996 1_455 S
Fe199 O214 1.976 . S
Fe199 O217 2.002 . S
O200 Fe198 1.918 . S
O200 Fe199 1.918 . S
O200 Fe201 1.918 . S
Fe201 O200 1.918 . S
Fe201 O202 2.002 . S
Fe201 O211 1.976 . S
Fe201 O215 1.996 . S
Fe201 O218 1.997 . S
O202 Fe201 2.002 . S
O202 C219 1.295 . S
O203 Fe198 1.997 . S
O203 C219 1.235 . S
O204 Fe198 2.002 . S
O204 C205 1.295 . S
C205 O204 1.295 . S
C205 O207 1.235 . S
C206 O211 1.287 . S
C206 O212 1.255 . S
O207 Fe199 1.997 . S
O207 C205 1.235 . S
C208 O214 1.287 . S
C208 O215 1.255 . S
O209 Fe198 1.976 1_655 S
O209 C216 1.287 . S
O210 Fe199 1.996 1_655 S
O210 C216 1.255 . S
O211 Fe201 1.976 . S
O211 C206 1.287 . S
O212 Fe198 1.996 . S
O212 C206 1.255 . S
C213 O217 1.295 . S
C213 O218 1.235 . S
O214 Fe199 1.976 . S
O214 C208 1.287 . S
O215 Fe201 1.996 . S
O215 C208 1.255 . S
C216 O209 1.287 . S
C216 O210 1.255 . S
O217 Fe199 2.002 . S
O217 C213 1.295 . S
O218 Fe201 1.997 . S
O218 C213 1.235 . S
C219 O202 1.295 . S
C219 O203 1.235 . S
Fe220 O222 1.918 . S
Fe220 O225 1.997 . S
Fe220 O226 2.002 . S
Fe220 O231 1.976 1_545 S
Fe220 O234 1.996 . S
Fe221 O222 1.918 . S
Fe221 O229 1.997 . S
Fe221 O232 1.996 1_545 S
Fe221 O236 1.976 . S
Fe221 O239 2.002 . S
O222 Fe220 1.918 . S
O222 Fe221 1.918 . S
O222 Fe223 1.918 . S
Fe223 O222 1.918 . S
Fe223 O224 2.002 . S
Fe223 O233 1.976 . S
Fe223 O237 1.996 . S
Fe223 O240 1.997 . S
O224 Fe223 2.002 . S
O224 C241 1.295 . S
O225 Fe220 1.997 . S
O225 C241 1.235 . S
O226 Fe220 2.002 . S
O226 C227 1.295 . S
C227 O226 1.295 . S
C227 O229 1.235 . S
C228 O233 1.287 . S
C228 O234 1.255 . S
O229 Fe221 1.997 . S
O229 C227 1.235 . S
C230 O236 1.287 . S
C230 O237 1.255 . S
O231 Fe220 1.976 1_565 S
O231 C238 1.287 . S
O232 Fe221 1.996 1_565 S
O232 C238 1.255 . S
O233 Fe223 1.976 . S
O233 C228 1.287 . S
O234 Fe220 1.996 . S
O234 C228 1.255 . S
C235 O239 1.295 . S
C235 O240 1.235 . S
O236 Fe221 1.976 . S
O236 C230 1.287 . S
O237 Fe223 1.996 . S
O237 C230 1.255 . S
C238 O231 1.287 . S
C238 O232 1.255 . S
O239 Fe221 2.002 . S
O239 C235 1.295 . S
O240 Fe223 1.997 . S
O240 C235 1.235 . S
C241 O224 1.295 . S
C241 O225 1.235 . S
Fe242 O244 1.918 . S
Fe242 O247 1.997 . S
Fe242 O248 2.002 . S
Fe242 O253 1.976 . S
Fe242 O256 1.996 . S
Fe243 O244 1.918 . S
Fe243 O251 1.997 . S
Fe243 O254 1.996 . S
Fe243 O258 1.976 . S
Fe243 O261 2.002 . S
O244 Fe242 1.918 . S
O244 Fe243 1.918 . S
O244 Fe245 1.918 . S
Fe245 O244 1.918 . S
Fe245 O246 2.002 . S
Fe245 O255 1.976 . S
Fe245 O259 1.996 . S
Fe245 O262 1.997 . S
O246 Fe245 2.002 . S
O246 C263 1.295 . S
O247 Fe242 1.997 . S
O247 C263 1.235 . S
O248 Fe242 2.002 . S
O248 C249 1.295 . S
C249 O248 1.295 . S
C249 O251 1.235 . S
C250 O255 1.287 . S
C250 O256 1.255 . S
O251 Fe243 1.997 . S
O251 C249 1.235 . S
C252 O258 1.287 . S
C252 O259 1.255 . S
O253 Fe242 1.976 . S
O253 C260 1.287 . S
O254 Fe243 1.996 . S
O254 C260 1.255 . S
O255 Fe245 1.976 . S
O255 C250 1.287 . S
O256 Fe242 1.996 . S
O256 C250 1.255 . S
C257 O261 1.295 . S
C257 O262 1.235 . S
O258 Fe243 1.976 . S
O258 C252 1.287 . S
O259 Fe245 1.996 . S
O259 C252 1.255 . S
C260 O253 1.287 . S
C260 O254 1.255 . S
O261 Fe243 2.002 . S
O261 C257 1.295 . S
O262 Fe245 1.997 . S
O262 C257 1.235 . S
C263 O246 1.295 . S
C263 O247 1.235 . S
Fe264 O266 1.918 . S
Fe264 O269 1.997 . S
Fe264 O270 2.002 . S
Fe264 O275 1.976 . S
Fe264 O278 1.996 . S
Fe265 O266 1.918 . S
Fe265 O273 1.997 . S
Fe265 O276 1.996 . S
Fe265 O280 1.976 . S
Fe265 O283 2.002 . S
O266 Fe264 1.918 . S
O266 Fe265 1.918 . S
O266 Fe267 1.918 . S
Fe267 O266 1.918 . S
Fe267 O268 2.002 . S
Fe267 O277 1.976 . S
Fe267 O281 1.996 . S
Fe267 O284 1.997 . S
O268 Fe267 2.002 . S
O268 C285 1.295 . S
O269 Fe264 1.997 . S
O269 C285 1.235 . S
O270 Fe264 2.002 . S
O270 C271 1.295 . S
C271 O270 1.295 . S
C271 O273 1.235 . S
C272 O277 1.287 . S
C272 O278 1.255 . S
O273 Fe265 1.997 . S
O273 C271 1.235 . S
C274 O280 1.287 . S
C274 O281 1.255 . S
O275 Fe264 1.976 . S
O275 C282 1.287 . S
O276 Fe265 1.996 . S
O276 C282 1.255 . S
O277 Fe267 1.976 . S
O277 C272 1.287 . S
O278 Fe264 1.996 . S
O278 C272 1.255 . S
C279 O283 1.295 . S
C279 O284 1.235 . S
O280 Fe265 1.976 . S
O280 C274 1.287 . S
O281 Fe267 1.996 . S
O281 C274 1.255 . S
C282 O275 1.287 . S
C282 O276 1.255 . S
O283 Fe265 2.002 . S
O283 C279 1.295 . S
O284 Fe267 1.997 . S
O284 C279 1.235 . S
C285 O268 1.295 . S
C285 O269 1.235 . S
Fe286 O288 1.918 . S
Fe286 O291 1.997 . S
Fe286 O292 2.002 . S
Fe286 O297 1.976 . S
Fe286 O300 1.996 . S
Fe287 O288 1.918 . S
Fe287 O295 1.997 . S
Fe287 O298 1.996 . S
Fe287 O302 1.976 1_655 S
Fe287 O305 2.002 . S
O288 Fe286 1.918 . S
O288 Fe287 1.918 . S
O288 Fe289 1.918 . S
Fe289 O288 1.918 . S
Fe289 O290 2.002 . S
Fe289 O299 1.976 . S
Fe289 O303 1.996 1_655 S
Fe289 O306 1.997 . S
O290 Fe289 2.002 . S
O290 C307 1.295 . S
O291 Fe286 1.997 . S
O291 C307 1.235 . S
O292 Fe286 2.002 . S
O292 C293 1.295 . S
C293 O292 1.295 . S
C293 O295 1.235 . S
C294 O299 1.287 . S
C294 O300 1.255 . S
O295 Fe287 1.997 . S
O295 C293 1.235 . S
C296 O302 1.287 . S
C296 O303 1.255 . S
O297 Fe286 1.976 . S
O297 C304 1.287 . S
O298 Fe287 1.996 . S
O298 C304 1.255 . S
O299 Fe289 1.976 . S
O299 C294 1.287 . S
O300 Fe286 1.996 . S
O300 C294 1.255 . S
C301 O305 1.295 . S
C301 O306 1.235 . S
O302 Fe287 1.976 1_455 S
O302 C296 1.287 . S
O303 Fe289 1.996 1_455 S
O303 C296 1.255 . S
C304 O297 1.287 . S
C304 O298 1.255 . S
O305 Fe287 2.002 . S
O305 C301 1.295 . S
O306 Fe289 1.997 . S
O306 C301 1.235 . S
C307 O290 1.295 . S
C307 O291 1.235 . S
Fe308 O310 1.918 . S
Fe308 O313 1.997 . S
Fe308 O314 2.002 . S
Fe308 O319 1.976 . S
Fe308 O322 1.996 1_565 S
Fe309 O310 1.918 . S
Fe309 O317 1.997 . S
Fe309 O320 1.996 . S
Fe309 O324 1.976 . S
Fe309 O327 2.002 . S
O310 Fe308 1.918 . S
O310 Fe309 1.918 . S
O310 Fe311 1.918 . S
Fe311 O310 1.918 . S
Fe311 O312 2.002 . S
Fe311 O321 1.976 1_565 S
Fe311 O325 1.996 . S
Fe311 O328 1.997 . S
O312 Fe311 2.002 . S
O312 C329 1.295 . S
O313 Fe308 1.997 . S
O313 C329 1.235 . S
O314 Fe308 2.002 . S
O314 C315 1.295 . S
C315 O314 1.295 . S
C315 O317 1.235 . S
C316 O321 1.287 . S
C316 O322 1.255 . S
O317 Fe309 1.997 . S
O317 C315 1.235 . S
C318 O324 1.287 . S
C318 O325 1.255 . S
O319 Fe308 1.976 . S
O319 C326 1.287 . S
O320 Fe309 1.996 . S
O320 C326 1.255 . S
O321 Fe311 1.976 1_545 S
O321 C316 1.287 . S
O322 Fe308 1.996 1_545 S
O322 C316 1.255 . S
C323 O327 1.295 . S
C323 O328 1.235 . S
O324 Fe309 1.976 . S
O324 C318 1.287 . S
O325 Fe311 1.996 . S
O325 C318 1.255 . S
C326 O319 1.287 . S
C326 O320 1.255 . S
O327 Fe309 2.002 . S
O327 C323 1.295 . S
O328 Fe311 1.997 . S
O328 C323 1.235 . S
C329 O312 1.295 . S
C329 O313 1.235 . S
Fe330 O332 1.918 . S
Fe330 O335 1.997 . S
Fe330 O336 2.002 . S
Fe330 O341 1.976 . S
Fe330 O344 1.996 . S
Fe331 O332 1.918 . S
Fe331 O339 1.997 . S
Fe331 O342 1.996 . S
Fe331 O346 1.976 . S
Fe331 O349 2.002 . S
O332 Fe330 1.918 . S
O332 Fe331 1.918 . S
O332 Fe333 1.918 . S
Fe333 O332 1.918 . S
Fe333 O334 2.002 . S
Fe333 O343 1.976 . S
Fe333 O347 1.996 . S
Fe333 O350 1.997 . S
O334 Fe333 2.002 . S
O334 C351 1.295 . S
O335 Fe330 1.997 . S
O335 C351 1.235 . S
O336 Fe330 2.002 . S
O336 C337 1.295 . S
C337 O336 1.295 . S
C337 O339 1.235 . S
C338 O343 1.287 . S
C338 O344 1.255 . S
O339 Fe331 1.997 . S
O339 C337 1.235 . S
C340 O346 1.287 . S
C340 O347 1.255 . S
O341 Fe330 1.976 . S
O341 C348 1.287 . S
O342 Fe331 1.996 . S
O342 C348 1.255 . S
O343 Fe333 1.976 . S
O343 C338 1.287 . S
O344 Fe330 1.996 . S
O344 C338 1.255 . S
C345 O349 1.295 . S
C345 O350 1.235 . S
O346 Fe331 1.976 . S
O346 C340 1.287 . S
O347 Fe333 1.996 . S
O347 C340 1.255 . S
C348 O341 1.287 . S
C348 O342 1.255 . S
O349 Fe331 2.002 . S
O349 C345 1.295 . S
O350 Fe333 1.997 . S
O350 C345 1.235 . S
C351 O334 1.295 . S
C351 O335 1.235 . S
C352 C353 1.349 . S
C352 C354 1.327 . S
C352 H377 0.950 . S
C353 C352 1.349 . S
C353 C369 1.349 . S
C354 C352 1.327 . S
C354 C373 1.429 . S
C354 H378 0.950 . S
C355 C372 1.574 . S
C355 C374 1.368 . S
C355 H379 0.949 . S
H356 C360 0.949 . S
C357 C358 1.349 . S
C357 C359 1.327 . S
C357 H380 0.950 . S
C358 C357 1.349 . S
C358 C370 1.349 . S
C359 C357 1.327 . S
C359 C375 1.429 . S
C359 H381 0.950 . S
C360 H356 0.949 . S
C360 C368 1.574 . S
C360 C376 1.368 . S
H361 C369 0.950 . S
H362 C367 0.950 . S
H363 C368 0.949 . S
H364 C370 0.950 . S
H365 C371 0.950 . S
H366 C372 0.949 . S
C367 H362 0.950 . S
C367 C369 1.327 . S
C367 C373 1.429 . S
C368 C360 1.574 . S
C368 H363 0.949 . S
C368 C374 1.368 . S
C369 C353 1.349 . S
C369 H361 0.950 . S
C369 C367 1.327 . S
C370 C358 1.349 . S
C370 H364 0.950 . S
C370 C371 1.327 . S
C371 H365 0.950 . S
C371 C370 1.327 . S
C371 C375 1.429 . S
C372 C355 1.574 . S
C372 H366 0.949 . S
C372 C376 1.368 . S
C373 C354 1.429 . S
C373 C367 1.429 . S
C373 C374 1.523 . S
C374 C355 1.368 . S
C374 C368 1.368 . S
C374 C373 1.523 . S
C375 C359 1.429 . S
C375 C371 1.429 . S
C375 C376 1.523 . S
C376 C360 1.368 . S
C376 C372 1.368 . S
C376 C375 1.523 . S
H377 C352 0.950 . S
H378 C354 0.950 . S
H379 C355 0.949 . S
H380 C357 0.950 . S
H381 C359 0.950 . S
C382 C383 1.349 . S
C382 C384 1.327 . S
C382 H407 0.950 . S
C383 C382 1.349 . S
C383 C399 1.349 . S
C384 C382 1.327 . S
C384 C403 1.429 . S
C384 H408 0.950 . S
C385 C402 1.574 1_554 S
C385 C404 1.368 . S
C385 H409 0.949 . S
H386 C390 0.949 . S
C387 C388 1.349 . S
C387 C389 1.327 . S
C387 H410 0.950 . S
C388 C387 1.349 . S
C388 C400 1.349 . S
C389 C387 1.327 . S
C389 C405 1.429 . S
C389 H411 0.950 . S
C390 H386 0.949 . S
C390 C398 1.574 1_556 S
C390 C406 1.368 . S
H391 C399 0.950 . S
H392 C397 0.950 . S
H393 C398 0.949 . S
H394 C400 0.950 . S
H395 C401 0.950 . S
H396 C402 0.949 . S
C397 H392 0.950 . S
C397 C399 1.327 . S
C397 C403 1.429 . S
C398 C390 1.574 1_554 S
C398 H393 0.949 . S
C398 C404 1.368 . S
C399 C383 1.349 . S
C399 H391 0.950 . S
C399 C397 1.327 . S
C400 C388 1.349 . S
C400 H394 0.950 . S
C400 C401 1.327 . S
C401 H395 0.950 . S
C401 C400 1.327 . S
C401 C405 1.429 . S
C402 C385 1.574 1_556 S
C402 H396 0.949 . S
C402 C406 1.368 . S
C403 C384 1.429 . S
C403 C397 1.429 . S
C403 C404 1.523 . S
C404 C385 1.368 . S
C404 C398 1.368 . S
C404 C403 1.523 . S
C405 C389 1.429 . S
C405 C401 1.429 . S
C405 C406 1.523 . S
C406 C390 1.368 . S
C406 C402 1.368 . S
C406 C405 1.523 . S
H407 C382 0.950 . S
H408 C384 0.950 . S
H409 C385 0.949 . S
H410 C387 0.950 . S
H411 C389 0.950 . S
C412 C413 1.349 . S
C412 C414 1.327 . S
C412 H437 0.950 . S
C413 C412 1.349 . S
C413 C429 1.349 . S
C414 C412 1.327 . S
C414 C433 1.429 . S
C414 H438 0.950 . S
C415 C432 1.574 . S
C415 C434 1.368 . S
C415 H439 0.949 . S
H416 C420 0.949 . S
C417 C418 1.349 . S
C417 C419 1.327 . S
C417 H440 0.950 . S
C418 C417 1.349 . S
C418 C430 1.349 . S
C419 C417 1.327 . S
C419 C435 1.429 . S
C419 H441 0.950 . S
C420 H416 0.949 . S
C420 C428 1.574 . S
C420 C436 1.368 . S
H421 C429 0.950 . S
H422 C427 0.950 . S
H423 C428 0.949 . S
H424 C430 0.950 . S
H425 C431 0.950 . S
H426 C432 0.949 . S
C427 H422 0.950 . S
C427 C429 1.327 . S
C427 C433 1.429 . S
C428 C420 1.574 . S
C428 H423 0.949 . S
C428 C434 1.368 . S
C429 C413 1.349 . S
C429 H421 0.950 . S
C429 C427 1.327 . S
C430 C418 1.349 . S
C430 H424 0.950 . S
C430 C431 1.327 . S
C431 H425 0.950 . S
C431 C430 1.327 . S
C431 C435 1.429 . S
C432 C415 1.574 . S
C432 H426 0.949 . S
C432 C436 1.368 . S
C433 C414 1.429 . S
C433 C427 1.429 . S
C433 C434 1.523 . S
C434 C415 1.368 . S
C434 C428 1.368 . S
C434 C433 1.523 . S
C435 C419 1.429 . S
C435 C431 1.429 . S
C435 C436 1.523 . S
C436 C420 1.368 . S
C436 C432 1.368 . S
C436 C435 1.523 . S
H437 C412 0.950 . S
H438 C414 0.950 . S
H439 C415 0.949 . S
H440 C417 0.950 . S
H441 C419 0.950 . S
C442 C443 1.349 . S
C442 C444 1.327 . S
C442 H467 0.950 . S
C443 C442 1.349 . S
C443 C459 1.349 . S
C444 C442 1.327 . S
C444 C463 1.429 . S
C444 H468 0.950 . S
C445 C462 1.574 . S
C445 C464 1.368 . S
C445 H469 0.949 . S
H446 C450 0.949 . S
C447 C448 1.349 . S
C447 C449 1.327 . S
C447 H470 0.950 . S
C448 C447 1.349 . S
C448 C460 1.349 . S
C449 C447 1.327 . S
C449 C465 1.429 . S
C449 H471 0.950 . S
C450 H446 0.949 . S
C450 C458 1.574 . S
C450 C466 1.368 . S
H451 C459 0.950 . S
H452 C457 0.950 . S
H453 C458 0.949 . S
H454 C460 0.950 . S
H455 C461 0.950 . S
H456 C462 0.949 . S
C457 H452 0.950 . S
C457 C459 1.327 . S
C457 C463 1.429 . S
C458 C450 1.574 . S
C458 H453 0.949 . S
C458 C464 1.368 1_554 S
C459 C443 1.349 . S
C459 H451 0.950 . S
C459 C457 1.327 . S
C460 C448 1.349 . S
C460 H454 0.950 . S
C460 C461 1.327 . S
C461 H455 0.950 . S
C461 C460 1.327 . S
C461 C465 1.429 . S
C462 C445 1.574 . S
C462 H456 0.949 . S
C462 C466 1.368 1_556 S
C463 C444 1.429 . S
C463 C457 1.429 . S
C463 C464 1.523 . S
C464 C445 1.368 . S
C464 C458 1.368 1_556 S
C464 C463 1.523 . S
C465 C449 1.429 . S
C465 C461 1.429 . S
C465 C466 1.523 . S
C466 C450 1.368 . S
C466 C462 1.368 1_554 S
C466 C465 1.523 . S
H467 C442 0.950 . S
H468 C444 0.950 . S
H469 C445 0.949 . S
H470 C447 0.950 . S
H471 C449 0.950 . S
C472 C473 1.349 . S
C472 C474 1.327 . S
C472 H497 0.950 . S
C473 C472 1.349 . S
C473 C489 1.349 . S
C474 C472 1.327 . S
C474 C493 1.429 . S
C474 H498 0.950 . S
C475 C492 1.574 . S
C475 C494 1.368 . S
C475 H499 0.949 . S
H476 C480 0.949 . S
C477 C478 1.349 . S
C477 C479 1.327 . S
C477 H500 0.950 . S
C478 C477 1.349 . S
C478 C490 1.349 . S
C479 C477 1.327 . S
C479 C495 1.429 . S
C479 H501 0.950 . S
C480 H476 0.949 . S
C480 C488 1.574 . S
C480 C496 1.368 . S
H481 C489 0.950 . S
H482 C487 0.950 . S
H483 C488 0.949 . S
H484 C490 0.950 . S
H485 C491 0.950 . S
H486 C492 0.949 . S
C487 H482 0.950 . S
C487 C489 1.327 . S
C487 C493 1.429 . S
C488 C480 1.574 . S
C488 H483 0.949 . S
C488 C494 1.368 . S
C489 C473 1.349 . S
C489 H481 0.950 . S
C489 C487 1.327 . S
C490 C478 1.349 . S
C490 H484 0.950 . S
C490 C491 1.327 . S
C491 H485 0.950 . S
C491 C490 1.327 . S
C491 C495 1.429 . S
C492 C475 1.574 . S
C492 H486 0.949 . S
C492 C496 1.368 . S
C493 C474 1.429 . S
C493 C487 1.429 . S
C493 C494 1.523 . S
C494 C475 1.368 . S
C494 C488 1.368 . S
C494 C493 1.523 . S
C495 C479 1.429 . S
C495 C491 1.429 . S
C495 C496 1.523 . S
C496 C480 1.368 . S
C496 C492 1.368 . S
C496 C495 1.523 . S
H497 C472 0.950 . S
H498 C474 0.950 . S
H499 C475 0.949 . S
H500 C477 0.950 . S
H501 C479 0.950 . S
C502 C503 1.349 . S
C502 C504 1.327 . S
C502 H527 0.950 . S
C503 C502 1.349 . S
C503 C519 1.349 . S
C504 C502 1.327 . S
C504 C523 1.429 . S
C504 H528 0.950 . S
C505 C522 1.574 . S
C505 C524 1.368 . S
C505 H529 0.949 . S
H506 C510 0.949 . S
C507 C508 1.349 . S
C507 C509 1.327 . S
C507 H530 0.950 . S
C508 C507 1.349 . S
C508 C520 1.349 . S
C509 C507 1.327 . S
C509 C525 1.429 . S
C509 H531 0.950 . S
C510 H506 0.949 . S
C510 C518 1.574 . S
C510 C526 1.368 . S
H511 C519 0.950 . S
H512 C517 0.950 . S
H513 C518 0.949 . S
H514 C520 0.950 . S
H515 C521 0.950 . S
H516 C522 0.949 . S
C517 H512 0.950 . S
C517 C519 1.327 . S
C517 C523 1.429 . S
C518 C510 1.574 . S
C518 H513 0.949 . S
C518 C524 1.368 1_554 S
C519 C503 1.349 . S
C519 H511 0.950 . S
C519 C517 1.327 . S
C520 C508 1.349 . S
C520 H514 0.950 . S
C520 C521 1.327 . S
C521 H515 0.950 . S
C521 C520 1.327 . S
C521 C525 1.429 . S
C522 C505 1.574 . S
C522 H516 0.949 . S
C522 C526 1.368 1_556 S
C523 C504 1.429 . S
C523 C517 1.429 . S
C523 C524 1.523 . S
C524 C505 1.368 . S
C524 C518 1.368 1_556 S
C524 C523 1.523 . S
C525 C509 1.429 . S
C525 C521 1.429 . S
C525 C526 1.523 . S
C526 C510 1.368 . S
C526 C522 1.368 1_554 S
C526 C525 1.523 . S
H527 C502 0.950 . S
H528 C504 0.950 . S
H529 C505 0.949 . S
H530 C507 0.950 . S
H531 C509 0.950 . S
C532 C533 1.349 . S
C532 C534 1.327 . S
C532 H557 0.950 . S
C533 C532 1.349 . S
C533 C549 1.349 . S
C534 C532 1.327 . S
C534 C553 1.429 . S
C534 H558 0.950 . S
C535 C552 1.574 . S
C535 C554 1.368 . S
C535 H559 0.949 . S
H536 C540 0.949 . S
C537 C538 1.349 . S
C537 C539 1.327 . S
C537 H560 0.950 . S
C538 C537 1.349 . S
C538 C550 1.349 . S
C539 C537 1.327 . S
C539 C555 1.429 . S
C539 H561 0.950 . S
C540 H536 0.949 . S
C540 C548 1.574 . S
C540 C556 1.368 . S
H541 C549 0.950 . S
H542 C547 0.950 . S
H543 C548 0.949 . S
H544 C550 0.950 . S
H545 C551 0.950 . S
H546 C552 0.949 . S
C547 H542 0.950 . S
C547 C549 1.327 . S
C547 C553 1.429 . S
C548 C540 1.574 . S
C548 H543 0.949 . S
C548 C554 1.368 . S
C549 C533 1.349 . S
C549 H541 0.950 . S
C549 C547 1.327 . S
C550 C538 1.349 . S
C550 H544 0.950 . S
C550 C551 1.327 . S
C551 H545 0.950 . S
C551 C550 1.327 . S
C551 C555 1.429 . S
C552 C535 1.574 . S
C552 H546 0.949 . S
C552 C556 1.368 . S
C553 C534 1.429 . S
C553 C547 1.429 . S
C553 C554 1.523 . S
C554 C535 1.368 . S
C554 C548 1.368 . S
C554 C553 1.523 . S
C555 C539 1.429 . S
C555 C551 1.429 . S
C555 C556 1.523 . S
C556 C540 1.368 . S
C556 C552 1.368 . S
C556 C555 1.523 . S
H557 C532 0.950 . S
H558 C534 0.950 . S
H559 C535 0.949 . S
H560 C537 0.950 . S
H561 C539 0.950 . S
C562 C563 1.349 . S
C562 C564 1.327 . S
C562 H587 0.950 . S
C563 C562 1.349 . S
C563 C579 1.349 . S
C564 C562 1.327 . S
C564 C583 1.429 . S
C564 H588 0.950 . S
C565 C582 1.574 . S
C565 C584 1.368 . S
C565 H589 0.949 . S
H566 C570 0.949 . S
C567 C568 1.349 . S
C567 C569 1.327 . S
C567 H590 0.950 . S
C568 C567 1.349 . S
C568 C580 1.349 . S
C569 C567 1.327 . S
C569 C585 1.429 . S
C569 H591 0.950 . S
C570 H566 0.949 . S
C570 C578 1.574 . S
C570 C586 1.368 . S
H571 C579 0.950 . S
H572 C577 0.950 . S
H573 C578 0.949 . S
H574 C580 0.950 . S
H575 C581 0.950 . S
H576 C582 0.949 . S
C577 H572 0.950 . S
C577 C579 1.327 . S
C577 C583 1.429 . S
C578 C570 1.574 . S
C578 H573 0.949 . S
C578 C584 1.368 1_554 S
C579 C563 1.349 . S
C579 H571 0.950 . S
C579 C577 1.327 . S
C580 C568 1.349 . S
C580 H574 0.950 . S
C580 C581 1.327 . S
C581 H575 0.950 . S
C581 C580 1.327 . S
C581 C585 1.429 . S
C582 C565 1.574 . S
C582 H576 0.949 . S
C582 C586 1.368 1_556 S
C583 C564 1.429 . S
C583 C577 1.429 . S
C583 C584 1.523 . S
C584 C565 1.368 . S
C584 C578 1.368 1_556 S
C584 C583 1.523 . S
C585 C569 1.429 . S
C585 C581 1.429 . S
C585 C586 1.523 . S
C586 C570 1.368 . S
C586 C582 1.368 1_554 S
C586 C585 1.523 . S
H587 C562 0.950 . S
H588 C564 0.950 . S
H589 C565 0.949 . S
H590 C567 0.950 . S
H591 C569 0.950 . S
C592 C593 1.349 . S
C592 C594 1.327 . S
C592 H617 0.950 . S
C593 C592 1.349 . S
C593 C609 1.349 . S
C594 C592 1.327 . S
C594 C613 1.429 . S
C594 H618 0.950 . S
C595 C612 1.574 . S
C595 C614 1.368 . S
C595 H619 0.949 . S
H596 C600 0.949 . S
C597 C598 1.349 . S
C597 C599 1.327 . S
C597 H620 0.950 . S
C598 C597 1.349 . S
C598 C610 1.349 . S
C599 C597 1.327 . S
C599 C615 1.429 . S
C599 H621 0.950 . S
C600 H596 0.949 . S
C600 C608 1.574 . S
C600 C616 1.368 . S
H601 C609 0.950 . S
H602 C607 0.950 . S
H603 C608 0.949 . S
H604 C610 0.950 . S
H605 C611 0.950 . S
H606 C612 0.949 . S
C607 H602 0.950 . S
C607 C609 1.327 . S
C607 C613 1.429 . S
C608 C600 1.574 . S
C608 H603 0.949 . S
C608 C614 1.368 . S
C609 C593 1.349 . S
C609 H601 0.950 . S
C609 C607 1.327 . S
C610 C598 1.349 . S
C610 H604 0.950 . S
C610 C611 1.327 . S
C611 H605 0.950 . S
C611 C610 1.327 . S
C611 C615 1.429 . S
C612 C595 1.574 . S
C612 H606 0.949 . S
C612 C616 1.368 . S
C613 C594 1.429 . S
C613 C607 1.429 . S
C613 C614 1.523 . S
C614 C595 1.368 . S
C614 C608 1.368 . S
C614 C613 1.523 . S
C615 C599 1.429 . S
C615 C611 1.429 . S
C615 C616 1.523 . S
C616 C600 1.368 . S
C616 C612 1.368 . S
C616 C615 1.523 . S
H617 C592 0.950 . S
H618 C594 0.950 . S
H619 C595 0.949 . S
H620 C597 0.950 . S
H621 C599 0.950 . S
C622 C623 1.349 . S
C622 C624 1.327 . S
C622 H647 0.950 . S
C623 C622 1.349 . S
C623 C639 1.349 . S
C624 C622 1.327 . S
C624 C643 1.429 . S
C624 H648 0.950 . S
C625 C642 1.574 . S
C625 C644 1.368 . S
C625 H649 0.949 . S
H626 C630 0.949 . S
C627 C628 1.349 . S
C627 C629 1.327 . S
C627 H650 0.950 . S
C628 C627 1.349 . S
C628 C640 1.349 . S
C629 C627 1.327 . S
C629 C645 1.429 . S
C629 H651 0.950 . S
C630 H626 0.949 . S
C630 C638 1.574 . S
C630 C646 1.368 . S
H631 C639 0.950 . S
H632 C637 0.950 . S
H633 C638 0.949 . S
H634 C640 0.950 . S
H635 C641 0.950 . S
H636 C642 0.949 . S
C637 H632 0.950 . S
C637 C639 1.327 . S
C637 C643 1.429 . S
C638 C630 1.574 . S
C638 H633 0.949 . S
C638 C644 1.368 . S
C639 C623 1.349 . S
C639 H631 0.950 . S
C639 C637 1.327 . S
C640 C628 1.349 . S
C640 H634 0.950 . S
C640 C641 1.327 . S
C641 H635 0.950 . S
C641 C640 1.327 . S
C641 C645 1.429 . S
C642 C625 1.574 . S
C642 H636 0.949 . S
C642 C646 1.368 . S
C643 C624 1.429 . S
C643 C637 1.429 . S
C643 C644 1.523 . S
C644 C625 1.368 . S
C644 C638 1.368 . S
C644 C643 1.523 . S
C645 C629 1.429 . S
C645 C641 1.429 . S
C645 C646 1.523 . S
C646 C630 1.368 . S
C646 C642 1.368 . S
C646 C645 1.523 . S
H647 C622 0.950 . S
H648 C624 0.950 . S
H649 C625 0.949 . S
H650 C627 0.950 . S
H651 C629 0.950 . S
C652 C653 1.349 . S
C652 C654 1.327 . S
C652 H677 0.950 . S
C653 C652 1.349 . S
C653 C669 1.349 . S
C654 C652 1.327 . S
C654 C673 1.429 . S
C654 H678 0.950 . S
C655 C672 1.574 . S
C655 C674 1.368 . S
C655 H679 0.949 . S
H656 C660 0.949 . S
C657 C658 1.349 . S
C657 C659 1.327 . S
C657 H680 0.950 . S
C658 C657 1.349 . S
C658 C670 1.349 . S
C659 C657 1.327 . S
C659 C675 1.429 . S
C659 H681 0.950 . S
C660 H656 0.949 . S
C660 C668 1.574 . S
C660 C676 1.368 . S
H661 C669 0.950 . S
H662 C667 0.950 . S
H663 C668 0.949 . S
H664 C670 0.950 . S
H665 C671 0.950 . S
H666 C672 0.949 . S
C667 H662 0.950 . S
C667 C669 1.327 . S
C667 C673 1.429 . S
C668 C660 1.574 . S
C668 H663 0.949 . S
C668 C674 1.368 . S
C669 C653 1.349 . S
C669 H661 0.950 . S
C669 C667 1.327 . S
C670 C658 1.349 . S
C670 H664 0.950 . S
C670 C671 1.327 . S
C671 H665 0.950 . S
C671 C670 1.327 . S
C671 C675 1.429 . S
C672 C655 1.574 . S
C672 H666 0.949 . S
C672 C676 1.368 . S
C673 C654 1.429 . S
C673 C667 1.429 . S
C673 C674 1.523 . S
C674 C655 1.368 . S
C674 C668 1.368 . S
C674 C673 1.523 . S
C675 C659 1.429 . S
C675 C671 1.429 . S
C675 C676 1.523 . S
C676 C660 1.368 . S
C676 C672 1.368 . S
C676 C675 1.523 . S
H677 C652 0.950 . S
H678 C654 0.950 . S
H679 C655 0.949 . S
H680 C657 0.950 . S
H681 C659 0.950 . S
C682 C683 1.349 . S
C682 C684 1.327 . S
C682 H707 0.950 . S
C683 C682 1.349 . S
C683 C699 1.349 . S
C684 C682 1.327 . S
C684 C703 1.429 . S
C684 H708 0.950 . S
C685 C702 1.574 . S
C685 C704 1.368 . S
C685 H709 0.949 . S
H686 C690 0.949 . S
C687 C688 1.349 . S
C687 C689 1.327 . S
C687 H710 0.950 . S
C688 C687 1.349 . S
C688 C700 1.349 . S
C689 C687 1.327 . S
C689 C705 1.429 . S
C689 H711 0.950 . S
C690 H686 0.949 . S
C690 C698 1.574 . S
C690 C706 1.368 . S
H691 C699 0.950 . S
H692 C697 0.950 . S
H693 C698 0.949 . S
H694 C700 0.950 . S
H695 C701 0.950 . S
H696 C702 0.949 . S
C697 H692 0.950 . S
C697 C699 1.327 . S
C697 C703 1.429 . S
C698 C690 1.574 . S
C698 H693 0.949 . S
C698 C704 1.368 . S
C699 C683 1.349 . S
C699 H691 0.950 . S
C699 C697 1.327 . S
C700 C688 1.349 . S
C700 H694 0.950 . S
C700 C701 1.327 . S
C701 H695 0.950 . S
C701 C700 1.327 . S
C701 C705 1.429 . S
C702 C685 1.574 . S
C702 H696 0.949 . S
C702 C706 1.368 . S
C703 C684 1.429 . S
C703 C697 1.429 . S
C703 C704 1.523 . S
C704 C685 1.368 . S
C704 C698 1.368 . S
C704 C703 1.523 . S
C705 C689 1.429 . S
C705 C701 1.429 . S
C705 C706 1.523 . S
C706 C690 1.368 . S
C706 C702 1.368 . S
C706 C705 1.523 . S
H707 C682 0.950 . S
H708 C684 0.950 . S
H709 C685 0.949 . S
H710 C687 0.950 . S
H711 C689 0.950 . S
C712 C713 1.349 . S
C712 C714 1.327 . S
C712 H737 0.950 . S
C713 C712 1.349 . S
C713 C729 1.349 . S
C714 C712 1.327 . S
C714 C733 1.429 . S
C714 H738 0.950 . S
C715 C732 1.574 . S
C715 C734 1.368 . S
C715 H739 0.949 . S
H716 C720 0.949 . S
C717 C718 1.349 . S
C717 C719 1.327 . S
C717 H740 0.950 . S
C718 C717 1.349 . S
C718 C730 1.349 . S
C719 C717 1.327 . S
C719 C735 1.429 . S
C719 H741 0.950 . S
C720 H716 0.949 . S
C720 C728 1.574 . S
C720 C736 1.368 . S
H721 C729 0.950 . S
H722 C727 0.950 . S
H723 C728 0.949 . S
H724 C730 0.950 . S
H725 C731 0.950 . S
H726 C732 0.949 . S
C727 H722 0.950 . S
C727 C729 1.327 . S
C727 C733 1.429 . S
C728 C720 1.574 . S
C728 H723 0.949 . S
C728 C734 1.368 . S
C729 C713 1.349 . S
C729 H721 0.950 . S
C729 C727 1.327 . S
C730 C718 1.349 . S
C730 H724 0.950 . S
C730 C731 1.327 . S
C731 H725 0.950 . S
C731 C730 1.327 . S
C731 C735 1.429 . S
C732 C715 1.574 . S
C732 H726 0.949 . S
C732 C736 1.368 . S
C733 C714 1.429 . S
C733 C727 1.429 . S
C733 C734 1.523 . S
C734 C715 1.368 . S
C734 C728 1.368 . S
C734 C733 1.523 . S
C735 C719 1.429 . S
C735 C731 1.429 . S
C735 C736 1.523 . S
C736 C720 1.368 . S
C736 C732 1.368 . S
C736 C735 1.523 . S
H737 C712 0.950 . S
H738 C714 0.950 . S
H739 C715 0.949 . S
H740 C717 0.950 . S
H741 C719 0.950 . S
C742 C743 1.349 . S
C742 C744 1.327 . S
C742 H767 0.950 . S
C743 C742 1.349 . S
C743 C759 1.349 . S
C744 C742 1.327 . S
C744 C763 1.429 . S
C744 H768 0.950 . S
C745 C762 1.574 . S
C745 C764 1.368 . S
C745 H769 0.949 . S
H746 C750 0.949 . S
C747 C748 1.349 . S
C747 C749 1.327 . S
C747 H770 0.950 . S
C748 C747 1.349 . S
C748 C760 1.349 . S
C749 C747 1.327 . S
C749 C765 1.429 . S
C749 H771 0.950 . S
C750 H746 0.949 . S
C750 C758 1.574 . S
C750 C766 1.368 . S
H751 C759 0.950 . S
H752 C757 0.950 . S
H753 C758 0.949 . S
H754 C760 0.950 . S
H755 C761 0.950 . S
H756 C762 0.949 . S
C757 H752 0.950 . S
C757 C759 1.327 . S
C757 C763 1.429 . S
C758 C750 1.574 . S
C758 H753 0.949 . S
C758 C764 1.368 . S
C759 C743 1.349 . S
C759 H751 0.950 . S
C759 C757 1.327 . S
C760 C748 1.349 . S
C760 H754 0.950 . S
C760 C761 1.327 . S
C761 H755 0.950 . S
C761 C760 1.327 . S
C761 C765 1.429 . S
C762 C745 1.574 . S
C762 H756 0.949 . S
C762 C766 1.368 . S
C763 C744 1.429 . S
C763 C757 1.429 . S
C763 C764 1.523 . S
C764 C745 1.368 . S
C764 C758 1.368 . S
C764 C763 1.523 . S
C765 C749 1.429 . S
C765 C761 1.429 . S
C765 C766 1.523 . S
C766 C750 1.368 . S
C766 C762 1.368 . S
C766 C765 1.523 . S
H767 C742 0.950 . S
H768 C744 0.950 . S
H769 C745 0.949 . S
H770 C747 0.950 . S
H771 C749 0.950 . S
C772 C773 1.349 . S
C772 C774 1.327 . S
C772 H797 0.950 . S
C773 C772 1.349 . S
C773 C789 1.349 . S
C774 C772 1.327 . S
C774 C793 1.429 . S
C774 H798 0.950 . S
C775 C792 1.574 . S
C775 C794 1.368 . S
C775 H799 0.949 . S
H776 C780 0.949 . S
C777 C778 1.349 . S
C777 C779 1.327 . S
C777 H800 0.950 . S
C778 C777 1.349 . S
C778 C790 1.349 . S
C779 C777 1.327 . S
C779 C795 1.429 . S
C779 H801 0.950 . S
C780 H776 0.949 . S
C780 C788 1.574 . S
C780 C796 1.368 . S
H781 C789 0.950 . S
H782 C787 0.950 . S
H783 C788 0.949 . S
H784 C790 0.950 . S
H785 C791 0.950 . S
H786 C792 0.949 . S
C787 H782 0.950 . S
C787 C789 1.327 . S
C787 C793 1.429 . S
C788 C780 1.574 . S
C788 H783 0.949 . S
C788 C794 1.368 . S
C789 C773 1.349 . S
C789 H781 0.950 . S
C789 C787 1.327 . S
C790 C778 1.349 . S
C790 H784 0.950 . S
C790 C791 1.327 . S
C791 H785 0.950 . S
C791 C790 1.327 . S
C791 C795 1.429 . S
C792 C775 1.574 . S
C792 H786 0.949 . S
C792 C796 1.368 . S
C793 C774 1.429 . S
C793 C787 1.429 . S
C793 C794 1.523 . S
C794 C775 1.368 . S
C794 C788 1.368 . S
C794 C793 1.523 . S
C795 C779 1.429 . S
C795 C791 1.429 . S
C795 C796 1.523 . S
C796 C780 1.368 . S
C796 C792 1.368 . S
C796 C795 1.523 . S
H797 C772 0.950 . S
H798 C774 0.950 . S
H799 C775 0.949 . S
H800 C777 0.950 . S
H801 C779 0.950 . S
C802 C803 1.349 . S
C802 C804 1.327 . S
C802 H827 0.950 . S
C803 C802 1.349 . S
C803 C819 1.349 . S
C804 C802 1.327 . S
C804 C823 1.429 . S
C804 H828 0.950 . S
C805 C822 1.574 . S
C805 C824 1.368 . S
C805 H829 0.949 . S
H806 C810 0.949 . S
C807 C808 1.349 . S
C807 C809 1.327 . S
C807 H830 0.950 . S
C808 C807 1.349 . S
C808 C820 1.349 . S
C809 C807 1.327 . S
C809 C825 1.429 . S
C809 H831 0.950 . S
C810 H806 0.949 . S
C810 C818 1.574 . S
C810 C826 1.368 . S
H811 C819 0.950 . S
H812 C817 0.950 . S
H813 C818 0.949 . S
H814 C820 0.950 . S
H815 C821 0.950 . S
H816 C822 0.949 . S
C817 H812 0.950 . S
C817 C819 1.327 . S
C817 C823 1.429 . S
C818 C810 1.574 . S
C818 H813 0.949 . S
C818 C824 1.368 . S
C819 C803 1.349 . S
C819 H811 0.950 . S
C819 C817 1.327 . S
C820 C808 1.349 . S
C820 H814 0.950 . S
C820 C821 1.327 . S
C821 H815 0.950 . S
C821 C820 1.327 . S
C821 C825 1.429 . S
C822 C805 1.574 . S
C822 H816 0.949 . S
C822 C826 1.368 . S
C823 C804 1.429 . S
C823 C817 1.429 . S
C823 C824 1.523 . S
C824 C805 1.368 . S
C824 C818 1.368 . S
C824 C823 1.523 . S
C825 C809 1.429 . S
C825 C821 1.429 . S
C825 C826 1.523 . S
C826 C810 1.368 . S
C826 C822 1.368 . S
C826 C825 1.523 . S
H827 C802 0.950 . S
H828 C804 0.950 . S
H829 C805 0.949 . S
H830 C807 0.950 . S
H831 C809 0.950 . S
C832 C833 1.349 . S
C832 C834 1.327 . S
C832 H857 0.950 . S
C833 C832 1.349 . S
C833 C849 1.349 . S
C834 C832 1.327 . S
C834 C853 1.435 . S
C834 H858 0.950 . S
C835 C852 1.574 . S
C835 C854 1.368 . S
C835 H859 0.949 . S
H836 C840 0.949 . S
C837 C838 1.349 . S
C837 C839 1.327 . S
C837 H860 0.950 . S
C838 C837 1.349 . S
C838 C850 1.349 . S
C839 C837 1.327 . S
C839 C855 1.429 . S
C839 H861 0.950 . S
C840 H836 0.949 . S
C840 C848 1.574 . S
C840 C856 1.368 . S
H841 C849 0.950 . S
H842 C847 0.950 1_554 S
H843 C848 0.949 . S
H844 C850 0.950 . S
H845 C851 0.950 . S
H846 C852 0.949 . S
C847 H842 0.950 1_556 S
C847 C849 1.327 . S
C847 C853 1.431 . S
C848 C840 1.574 . S
C848 H843 0.949 . S
C848 C854 1.368 . S
C849 C833 1.349 . S
C849 H841 0.950 . S
C849 C847 1.327 . S
C850 C838 1.349 . S
C850 H844 0.950 . S
C850 C851 1.327 . S
C851 H845 0.950 . S
C851 C850 1.327 . S
C851 C855 1.429 . S
C852 C835 1.574 . S
C852 H846 0.949 . S
C852 C856 1.368 . S
C853 C834 1.435 . S
C853 C847 1.431 . S
C853 C854 1.515 1_556 S
C854 C835 1.368 . S
C854 C848 1.368 . S
C854 C853 1.515 1_554 S
C855 C839 1.429 . S
C855 C851 1.429 . S
C855 C856 1.523 . S
C856 C840 1.368 . S
C856 C852 1.368 . S
C856 C855 1.523 . S
H857 C832 0.950 . S
H858 C834 0.950 . S
H859 C835 0.949 . S
H860 C837 0.950 . S
H861 C839 0.950 . S
C862 C863 1.349 . S
C862 C864 1.327 . S
C862 H887 0.950 . S
C863 C862 1.349 . S
C863 C879 1.349 . S
C864 C862 1.327 . S
C864 C883 1.429 . S
C864 H888 0.950 . S
C865 C882 1.574 . S
C865 C884 1.368 . S
C865 H889 0.949 . S
H866 C870 0.949 . S
C867 C868 1.349 . S
C867 C869 1.327 . S
C867 H890 0.950 . S
C868 C867 1.349 . S
C868 C880 1.349 . S
C869 C867 1.327 . S
C869 C885 1.429 . S
C869 H891 0.950 . S
C870 H866 0.949 . S
C870 C878 1.574 . S
C870 C886 1.368 . S
H871 C879 0.950 . S
H872 C877 0.950 . S
H873 C878 0.949 . S
H874 C880 0.950 . S
H875 C881 0.950 . S
H876 C882 0.949 . S
C877 H872 0.950 . S
C877 C879 1.327 . S
C877 C883 1.429 . S
C878 C870 1.574 . S
C878 H873 0.949 . S
C878 C884 1.368 . S
C879 C863 1.349 . S
C879 H871 0.950 . S
C879 C877 1.327 . S
C880 C868 1.349 . S
C880 H874 0.950 . S
C880 C881 1.327 . S
C881 H875 0.950 . S
C881 C880 1.327 . S
C881 C885 1.429 . S
C882 C865 1.574 . S
C882 H876 0.949 . S
C882 C886 1.368 . S
C883 C864 1.429 . S
C883 C877 1.429 . S
C883 C884 1.523 . S
C884 C865 1.368 . S
C884 C878 1.368 . S
C884 C883 1.523 . S
C885 C869 1.429 . S
C885 C881 1.429 . S
C885 C886 1.523 . S
C886 C870 1.368 . S
C886 C882 1.368 . S
C886 C885 1.523 . S
H887 C862 0.950 . S
H888 C864 0.950 . S
H889 C865 0.949 . S
H890 C867 0.950 . S
H891 C869 0.950 . S
C892 C893 1.315 1_545 S
C892 C894 1.330 . S
C892 H917 0.983 . S
C893 C892 1.315 1_565 S
C893 C909 1.349 . S
C894 C892 1.330 . S
C894 C913 1.435 1_545 S
C894 H918 0.950 . S
C895 C912 1.574 . S
C895 C914 1.368 . S
C895 H919 0.949 . S
H896 C900 0.949 . S
C897 C898 1.349 . S
C897 C899 1.327 . S
C897 H920 0.950 . S
C898 C897 1.349 . S
C898 C910 1.349 1_565 S
C899 C897 1.327 . S
C899 C915 1.429 . S
C899 H921 0.950 . S
C900 H896 0.949 . S
C900 C908 1.574 . S
C900 C916 1.368 1_545 S
H901 C909 0.950 . S
H902 C907 0.950 1_554 S
H903 C908 0.949 . S
H904 C910 0.950 . S
H905 C911 0.950 . S
H906 C912 0.949 . S
C907 H902 0.950 1_556 S
C907 C909 1.327 . S
C907 C913 1.431 . S
C908 C900 1.574 . S
C908 H903 0.949 . S
C908 C914 1.368 1_545 S
C909 C893 1.349 . S
C909 H901 0.950 . S
C909 C907 1.327 . S
C910 C898 1.349 1_545 S
C910 H904 0.950 . S
C910 C911 1.327 . S
C911 H905 0.950 . S
C911 C910 1.327 . S
C911 C915 1.429 1_545 S
C912 C895 1.574 . S
C912 H906 0.949 . S
C912 C916 1.368 . S
C913 C894 1.435 1_565 S
C913 C907 1.431 . S
C913 C914 1.515 1_556 S
C914 C895 1.368 . S
C914 C908 1.368 1_565 S
C914 C913 1.515 1_554 S
C915 C899 1.429 . S
C915 C911 1.429 1_565 S
C915 C916 1.523 . S
C916 C900 1.368 1_565 S
C916 C912 1.368 . S
C916 C915 1.523 . S
H917 C892 0.983 . S
H918 C894 0.950 . S
H919 C895 0.949 . S
H920 C897 0.950 . S
H921 C899 0.950 . S
C922 C923 1.349 . S
C922 C924 1.327 . S
C922 H947 0.950 . S
C923 C922 1.349 . S
C923 C939 1.349 . S
C924 C922 1.327 . S
C924 C943 1.429 . S
C924 H948 0.950 . S
C925 C942 1.574 . S
C925 C944 1.368 . S
C925 H949 0.949 . S
H926 C930 0.949 . S
C927 C928 1.349 . S
C927 C929 1.327 . S
C927 H950 0.950 . S
C928 C927 1.349 . S
C928 C940 1.349 . S
C929 C927 1.327 . S
C929 C945 1.429 . S
C929 H951 0.950 . S
C930 H926 0.949 . S
C930 C938 1.574 . S
C930 C946 1.368 . S
H931 C939 0.950 . S
H932 C937 0.950 . S
H933 C938 0.949 . S
H934 C940 0.950 . S
H935 C941 0.950 . S
H936 C942 0.949 . S
C937 H932 0.950 . S
C937 C939 1.327 . S
C937 C943 1.429 . S
C938 C930 1.574 . S
C938 H933 0.949 . S
C938 C944 1.368 . S
C939 C923 1.349 . S
C939 H931 0.950 . S
C939 C937 1.327 . S
C940 C928 1.349 . S
C940 H934 0.950 . S
C940 C941 1.327 . S
C941 H935 0.950 . S
C941 C940 1.327 . S
C941 C945 1.429 . S
C942 C925 1.574 . S
C942 H936 0.949 . S
C942 C946 1.368 . S
C943 C924 1.429 . S
C943 C937 1.429 . S
C943 C944 1.523 . S
C944 C925 1.368 . S
C944 C938 1.368 . S
C944 C943 1.523 . S
C945 C929 1.429 . S
C945 C941 1.429 . S
C945 C946 1.523 . S
C946 C930 1.368 . S
C946 C942 1.368 . S
C946 C945 1.523 . S
H947 C922 0.950 . S
H948 C924 0.950 . S
H949 C925 0.949 . S
H950 C927 0.950 . S
H951 C929 0.950 . S
C952 C953 1.349 . S
C952 C954 1.327 . S
C952 H977 0.950 . S
C953 C952 1.349 . S
C953 C969 1.349 . S
C954 C952 1.327 . S
C954 C973 1.429 . S
C954 H978 0.950 . S
C955 C972 1.574 . S
C955 C974 1.368 . S
C955 H979 0.949 . S
H956 C960 0.949 . S
C957 C958 1.349 . S
C957 C959 1.327 . S
C957 H980 0.950 . S
C958 C957 1.349 . S
C958 C970 1.349 . S
C959 C957 1.327 . S
C959 C975 1.429 . S
C959 H981 0.950 . S
C960 H956 0.949 . S
C960 C968 1.574 . S
C960 C976 1.368 . S
H961 C969 0.950 . S
H962 C967 0.950 . S
H963 C968 0.949 . S
H964 C970 0.950 . S
H965 C971 0.950 . S
H966 C972 0.949 . S
C967 H962 0.950 . S
C967 C969 1.327 . S
C967 C973 1.429 . S
C968 C960 1.574 . S
C968 H963 0.949 . S
C968 C974 1.368 . S
C969 C953 1.349 . S
C969 H961 0.950 . S
C969 C967 1.327 . S
C970 C958 1.349 . S
C970 H964 0.950 . S
C970 C971 1.327 . S
C971 H965 0.950 . S
C971 C970 1.327 . S
C971 C975 1.429 . S
C972 C955 1.574 . S
C972 H966 0.949 . S
C972 C976 1.368 . S
C973 C954 1.429 . S
C973 C967 1.429 . S
C973 C974 1.523 . S
C974 C955 1.368 . S
C974 C968 1.368 . S
C974 C973 1.523 . S
C975 C959 1.429 . S
C975 C971 1.429 . S
C975 C976 1.523 . S
C976 C960 1.368 . S
C976 C972 1.368 . S
C976 C975 1.523 . S
H977 C952 0.950 . S
H978 C954 0.950 . S
H979 C955 0.949 . S
H980 C957 0.950 . S
H981 C959 0.950 . S
C982 C983 1.352 1_655 S
C982 C984 1.327 1_655 S
C982 H1007 0.946 . S
C983 C982 1.352 1_455 S
C983 C999 1.349 . S
C984 C982 1.327 1_455 S
C984 C1003 1.427 . S
C984 H1008 0.951 1_455 S
C985 C1002 1.574 . S
C985 C1004 1.368 . S
C985 H1009 0.949 . S
H986 C990 0.933 1_655 S
C987 C988 1.349 . S
C987 C989 1.327 . S
C987 H1010 0.950 . S
C988 C987 1.349 . S
C988 C1000 1.349 . S
C989 C987 1.327 . S
C989 C1005 1.431 . S
C989 H1011 0.950 1_554 S
C990 H986 0.933 1_455 S
C990 C998 1.573 . S
C990 C1006 1.387 . S
H991 C999 0.950 . S
H992 C997 0.950 . S
H993 C998 0.946 1_655 S
H994 C1000 0.950 1_655 S
H995 C1001 0.950 1_655 S
H996 C1002 0.949 . S
C997 H992 0.950 . S
C997 C999 1.327 . S
C997 C1003 1.429 . S
C998 C990 1.573 . S
C998 H993 0.946 1_455 S
C998 C1004 1.371 . S
C999 C983 1.349 . S
C999 H991 0.950 . S
C999 C997 1.327 . S
C1000 C988 1.349 . S
C1000 H994 0.950 1_455 S
C1000 C1001 1.327 . S
C1001 H995 0.950 1_455 S
C1001 C1000 1.327 . S
C1001 C1005 1.435 . S
C1002 C985 1.574 . S
C1002 H996 0.949 . S
C1002 C1006 1.368 . S
C1003 C984 1.427 . S
C1003 C997 1.429 . S
C1003 C1004 1.523 . S
C1004 C985 1.368 . S
C1004 C998 1.371 . S
C1004 C1003 1.523 . S
C1005 C989 1.431 . S
C1005 C1001 1.435 . S
C1005 C1006 1.515 1_554 S
C1006 C990 1.387 . S
C1006 C1002 1.368 . S
C1006 C1005 1.515 1_556 S
H1007 C982 0.946 . S
H1008 C984 0.951 1_655 S
H1009 C985 0.949 . S
H1010 C987 0.950 . S
H1011 C989 0.950 1_556 S
C1012 C1013 1.349 1_565 S
C1012 C1014 1.327 . S
C1012 H1037 0.950 . S
C1013 C1012 1.349 1_545 S
C1013 C1029 1.349 . S
C1014 C1012 1.327 . S
C1014 C1033 1.429 1_565 S
C1014 H1038 0.950 . S
C1015 C1032 1.574 . S
C1015 C1034 1.368 . S
C1015 H1039 0.949 . S
H1016 C1020 0.949 . S
C1017 C1018 1.349 . S
C1017 C1019 1.327 . S
C1017 H1040 0.950 . S
C1018 C1017 1.349 . S
C1018 C1030 1.310 1_545 S
C1019 C1017 1.327 . S
C1019 C1035 1.429 . S
C1019 H1041 0.950 . S
C1020 H1016 0.949 . S
C1020 C1028 1.574 . S
C1020 C1036 1.368 1_565 S
H1021 C1029 0.950 . S
H1022 C1027 0.950 . S
H1023 C1028 0.949 . S
H1024 C1030 0.989 . S
H1025 C1031 0.950 . S
H1026 C1032 0.949 . S
C1027 H1022 0.950 . S
C1027 C1029 1.327 . S
C1027 C1033 1.429 . S
C1028 C1020 1.574 . S
C1028 H1023 0.949 . S
C1028 C1034 1.368 1_565 S
C1029 C1013 1.349 . S
C1029 H1021 0.950 . S
C1029 C1027 1.327 . S
C1030 C1018 1.310 1_565 S
C1030 H1024 0.989 . S
C1030 C1031 1.330 . S
C1031 H1025 0.950 . S
C1031 C1030 1.330 . S
C1031 C1035 1.429 1_565 S
C1032 C1015 1.574 . S
C1032 H1026 0.949 . S
C1032 C1036 1.368 . S
C1033 C1014 1.429 1_545 S
C1033 C1027 1.429 . S
C1033 C1034 1.523 . S
C1034 C1015 1.368 . S
C1034 C1028 1.368 1_545 S
C1034 C1033 1.523 . S
C1035 C1019 1.429 . S
C1035 C1031 1.429 1_545 S
C1035 C1036 1.523 . S
C1036 C1020 1.368 1_545 S
C1036 C1032 1.368 . S
C1036 C1035 1.523 . S
H1037 C1012 0.950 . S
H1038 C1014 0.950 . S
H1039 C1015 0.949 . S
H1040 C1017 0.950 . S
H1041 C1019 0.950 . S
C1042 C1043 1.349 . S
C1042 C1044 1.327 . S
C1042 H1067 0.950 . S
C1043 C1042 1.349 . S
C1043 C1059 1.349 . S
C1044 C1042 1.327 . S
C1044 C1063 1.435 . S
C1044 H1068 0.950 . S
C1045 C1062 1.574 . S
C1045 C1064 1.368 . S
C1045 H1069 0.949 . S
H1046 C1050 0.949 . S
C1047 C1048 1.349 . S
C1047 C1049 1.327 . S
C1047 H1070 0.950 . S
C1048 C1047 1.349 . S
C1048 C1060 1.349 . S
C1049 C1047 1.327 . S
C1049 C1065 1.429 . S
C1049 H1071 0.950 . S
C1050 H1046 0.949 . S
C1050 C1058 1.574 . S
C1050 C1066 1.368 . S
H1051 C1059 0.950 . S
H1052 C1057 0.950 1_556 S
H1053 C1058 0.949 . S
H1054 C1060 0.950 . S
H1055 C1061 0.950 . S
H1056 C1062 0.949 . S
C1057 H1052 0.950 1_554 S
C1057 C1059 1.327 . S
C1057 C1063 1.431 . S
C1058 C1050 1.574 . S
C1058 H1053 0.949 . S
C1058 C1064 1.368 . S
C1059 C1043 1.349 . S
C1059 H1051 0.950 . S
C1059 C1057 1.327 . S
C1060 C1048 1.349 . S
C1060 H1054 0.950 . S
C1060 C1061 1.327 . S
C1061 H1055 0.950 . S
C1061 C1060 1.327 . S
C1061 C1065 1.429 . S
C1062 C1045 1.574 . S
C1062 H1056 0.949 . S
C1062 C1066 1.368 . S
C1063 C1044 1.435 . S
C1063 C1057 1.431 . S
C1063 C1064 1.515 1_554 S
C1064 C1045 1.368 . S
C1064 C1058 1.368 . S
C1064 C1063 1.515 1_556 S
C1065 C1049 1.429 . S
C1065 C1061 1.429 . S
C1065 C1066 1.523 . S
C1066 C1050 1.368 . S
C1066 C1062 1.368 . S
C1066 C1065 1.523 . S
H1067 C1042 0.950 . S
H1068 C1044 0.950 . S
H1069 C1045 0.949 . S
H1070 C1047 0.950 . S
H1071 C1049 0.950 . S
C1072 C1073 1.349 . S
C1072 C1074 1.327 . S
C1072 H1097 0.950 . S
C1073 C1072 1.349 . S
C1073 C1089 1.349 . S
C1074 C1072 1.327 . S
C1074 C1093 1.429 . S
C1074 H1098 0.950 . S
C1075 C1092 1.574 . S
C1075 C1094 1.368 . S
C1075 H1099 0.949 . S
H1076 C1080 0.949 . S
C1077 C1078 1.349 . S
C1077 C1079 1.327 . S
C1077 H1100 0.950 . S
C1078 C1077 1.349 . S
C1078 C1090 1.349 . S
C1079 C1077 1.327 . S
C1079 C1095 1.435 . S
C1079 H1101 0.950 . S
C1080 H1076 0.949 . S
C1080 C1088 1.574 . S
C1080 C1096 1.368 . S
H1081 C1089 0.950 . S
H1082 C1087 0.950 . S
H1083 C1088 0.949 . S
H1084 C1090 0.950 . S
H1085 C1091 0.950 1_556 S
H1086 C1092 0.949 . S
C1087 H1082 0.950 . S
C1087 C1089 1.327 . S
C1087 C1093 1.429 . S
C1088 C1080 1.574 . S
C1088 H1083 0.949 . S
C1088 C1094 1.368 . S
C1089 C1073 1.349 . S
C1089 H1081 0.950 . S
C1089 C1087 1.327 . S
C1090 C1078 1.349 . S
C1090 H1084 0.950 . S
C1090 C1091 1.327 . S
C1091 H1085 0.950 1_554 S
C1091 C1090 1.327 . S
C1091 C1095 1.431 . S
C1092 C1075 1.574 . S
C1092 H1086 0.949 . S
C1092 C1096 1.368 . S
C1093 C1074 1.429 . S
C1093 C1087 1.429 . S
C1093 C1094 1.523 . S
C1094 C1075 1.368 . S
C1094 C1088 1.368 . S
C1094 C1093 1.523 . S
C1095 C1079 1.435 . S
C1095 C1091 1.431 . S
C1095 C1096 1.515 1_554 S
C1096 C1080 1.368 . S
C1096 C1092 1.368 . S
C1096 C1095 1.515 1_556 S
H1097 C1072 0.950 . S
H1098 C1074 0.950 . S
H1099 C1075 0.949 . S
H1100 C1077 0.950 . S
H1101 C1079 0.950 . S
C1102 C1103 1.349 . S
C1102 C1104 1.327 . S
C1102 H1127 0.950 . S
C1103 C1102 1.349 . S
C1103 C1119 1.349 . S
C1104 C1102 1.327 . S
C1104 C1123 1.429 . S
C1104 H1128 0.950 . S
C1105 C1122 1.574 . S
C1105 C1124 1.368 . S
C1105 H1129 0.949 1_455 S
H1106 C1110 0.949 . S
C1107 C1108 1.349 . S
C1107 C1109 1.327 . S
C1107 H1130 0.938 1_455 S
C1108 C1107 1.349 . S
C1108 C1120 1.349 . S
C1109 C1107 1.327 . S
C1109 C1125 1.429 . S
C1109 H1131 0.950 1_455 S
C1110 H1106 0.949 . S
C1110 C1118 1.574 . S
C1110 C1126 1.368 . S
H1111 C1119 0.950 1_655 S
H1112 C1117 0.950 1_655 S
H1113 C1118 0.949 . S
H1114 C1120 0.950 . S
H1115 C1121 0.950 . S
H1116 C1122 0.949 1_655 S
C1117 H1112 0.950 1_455 S
C1117 C1119 1.327 . S
C1117 C1123 1.429 . S
C1118 C1110 1.574 . S
C1118 H1113 0.949 . S
C1118 C1124 1.368 . S
C1119 C1103 1.349 . S
C1119 H1111 0.950 1_455 S
C1119 C1117 1.327 . S
C1120 C1108 1.349 . S
C1120 H1114 0.950 . S
C1120 C1121 1.327 . S
C1121 H1115 0.950 . S
C1121 C1120 1.327 . S
C1121 C1125 1.429 . S
C1122 C1105 1.574 . S
C1122 H1116 0.949 1_455 S
C1122 C1126 1.368 . S
C1123 C1104 1.429 . S
C1123 C1117 1.429 . S
C1123 C1124 1.523 . S
C1124 C1105 1.368 . S
C1124 C1118 1.368 . S
C1124 C1123 1.523 . S
C1125 C1109 1.429 . S
C1125 C1121 1.429 . S
C1125 C1126 1.523 . S
C1126 C1110 1.368 . S
C1126 C1122 1.368 . S
C1126 C1125 1.523 . S
H1127 C1102 0.950 . S
H1128 C1104 0.950 . S
H1129 C1105 0.949 1_655 S
H1130 C1107 0.938 1_655 S
H1131 C1109 0.950 1_655 S
C1132 C1133 1.349 1_565 S
C1132 C1134 1.327 . S
C1132 H1157 0.950 . S
C1133 C1132 1.349 1_545 S
C1133 C1149 1.349 . S
C1134 C1132 1.327 . S
C1134 C1153 1.431 1_565 S
C1134 H1158 0.950 1_554 S
C1135 C1152 1.574 . S
C1135 C1154 1.368 . S
C1135 H1159 0.949 . S
H1136 C1140 0.949 . S
C1137 C1138 1.349 . S
C1137 C1139 1.327 . S
C1137 H1160 0.950 . S
C1138 C1137 1.349 . S
C1138 C1150 1.349 1_545 S
C1139 C1137 1.327 . S
C1139 C1155 1.429 . S
C1139 H1161 0.950 . S
C1140 H1136 0.949 . S
C1140 C1148 1.574 . S
C1140 C1156 1.368 1_565 S
H1141 C1149 0.950 . S
H1142 C1147 0.950 . S
H1143 C1148 0.949 . S
H1144 C1150 0.950 . S
H1145 C1151 0.950 . S
H1146 C1152 0.949 . S
C1147 H1142 0.950 . S
C1147 C1149 1.327 . S
C1147 C1153 1.434 . S
C1148 C1140 1.574 . S
C1148 H1143 0.949 . S
C1148 C1154 1.368 1_565 S
C1149 C1133 1.349 . S
C1149 H1141 0.950 . S
C1149 C1147 1.327 . S
C1150 C1138 1.349 1_565 S
C1150 H1144 0.950 . S
C1150 C1151 1.327 . S
C1151 H1145 0.950 . S
C1151 C1150 1.327 . S
C1151 C1155 1.429 1_565 S
C1152 C1135 1.574 . S
C1152 H1146 0.949 . S
C1152 C1156 1.368 . S
C1153 C1134 1.431 1_545 S
C1153 C1147 1.434 . S
C1153 C1154 1.515 1_554 S
C1154 C1135 1.368 . S
C1154 C1148 1.368 1_545 S
C1154 C1153 1.515 1_556 S
C1155 C1139 1.429 . S
C1155 C1151 1.429 1_545 S
C1155 C1156 1.523 . S
C1156 C1140 1.368 1_545 S
C1156 C1152 1.368 . S
C1156 C1155 1.523 . S
H1157 C1132 0.950 . S
H1158 C1134 0.950 1_556 S
H1159 C1135 0.949 . S
H1160 C1137 0.950 . S
H1161 C1139 0.950 . S
C1162 C1163 1.349 . S
C1162 C1164 1.327 . S
C1162 H1187 0.950 . S
C1163 C1162 1.349 . S
C1163 C1179 1.349 . S
C1164 C1162 1.327 . S
C1164 C1183 1.429 . S
C1164 H1188 0.950 . S
C1165 C1182 1.574 . S
C1165 C1184 1.368 . S
C1165 H1189 0.949 . S
H1166 C1170 0.949 . S
C1167 C1168 1.349 . S
C1167 C1169 1.327 . S
C1167 H1190 0.950 . S
C1168 C1167 1.349 . S
C1168 C1180 1.349 . S
C1169 C1167 1.327 . S
C1169 C1185 1.429 . S
C1169 H1191 0.950 . S
C1170 H1166 0.949 . S
C1170 C1178 1.574 . S
C1170 C1186 1.368 . S
H1171 C1179 0.950 . S
H1172 C1177 0.950 . S
H1173 C1178 0.949 . S
H1174 C1180 0.950 . S
H1175 C1181 0.950 . S
H1176 C1182 0.949 . S
C1177 H1172 0.950 . S
C1177 C1179 1.327 . S
C1177 C1183 1.429 . S
C1178 C1170 1.574 . S
C1178 H1173 0.949 . S
C1178 C1184 1.368 . S
C1179 C1163 1.349 . S
C1179 H1171 0.950 . S
C1179 C1177 1.327 . S
C1180 C1168 1.349 . S
C1180 H1174 0.950 . S
C1180 C1181 1.327 . S
C1181 H1175 0.950 . S
C1181 C1180 1.327 . S
C1181 C1185 1.429 . S
C1182 C1165 1.574 . S
C1182 H1176 0.949 . S
C1182 C1186 1.368 . S
C1183 C1164 1.429 . S
C1183 C1177 1.429 . S
C1183 C1184 1.523 . S
C1184 C1165 1.368 . S
C1184 C1178 1.368 . S
C1184 C1183 1.523 . S
C1185 C1169 1.429 . S
C1185 C1181 1.429 . S
C1185 C1186 1.523 . S
C1186 C1170 1.368 . S
C1186 C1182 1.368 . S
C1186 C1185 1.523 . S
H1187 C1162 0.950 . S
H1188 C1164 0.950 . S
H1189 C1165 0.949 . S
H1190 C1167 0.950 . S
H1191 C1169 0.950 . S
C1192 C1193 1.349 . S
C1192 C1194 1.327 . S
C1192 H1217 0.950 . S
C1193 C1192 1.349 . S
C1193 C1209 1.349 . S
C1194 C1192 1.327 . S
C1194 C1213 1.429 . S
C1194 H1218 0.950 . S
C1195 C1212 1.574 . S
C1195 C1214 1.368 . S
C1195 H1219 0.949 . S
H1196 C1200 0.949 . S
C1197 C1198 1.349 . S
C1197 C1199 1.327 . S
C1197 H1220 0.950 . S
C1198 C1197 1.349 . S
C1198 C1210 1.349 . S
C1199 C1197 1.327 . S
C1199 C1215 1.429 . S
C1199 H1221 0.950 . S
C1200 H1196 0.949 . S
C1200 C1208 1.574 . S
C1200 C1216 1.368 . S
H1201 C1209 0.950 . S
H1202 C1207 0.950 . S
H1203 C1208 0.949 . S
H1204 C1210 0.950 . S
H1205 C1211 0.950 . S
H1206 C1212 0.949 . S
C1207 H1202 0.950 . S
C1207 C1209 1.327 . S
C1207 C1213 1.429 . S
C1208 C1200 1.574 . S
C1208 H1203 0.949 . S
C1208 C1214 1.368 . S
C1209 C1193 1.349 . S
C1209 H1201 0.950 . S
C1209 C1207 1.327 . S
C1210 C1198 1.349 . S
C1210 H1204 0.950 . S
C1210 C1211 1.327 . S
C1211 H1205 0.950 . S
C1211 C1210 1.327 . S
C1211 C1215 1.429 . S
C1212 C1195 1.574 . S
C1212 H1206 0.949 . S
C1212 C1216 1.368 . S
C1213 C1194 1.429 . S
C1213 C1207 1.429 . S
C1213 C1214 1.523 . S
C1214 C1195 1.368 . S
C1214 C1208 1.368 . S
C1214 C1213 1.523 . S
C1215 C1199 1.429 . S
C1215 C1211 1.429 . S
C1215 C1216 1.523 . S
C1216 C1200 1.368 . S
C1216 C1212 1.368 . S
C1216 C1215 1.523 . S
H1217 C1192 0.950 . S
H1218 C1194 0.950 . S
H1219 C1195 0.949 . S
H1220 C1197 0.950 . S
H1221 C1199 0.950 . S
C1222 C1223 1.349 . S
C1222 C1224 1.327 . S
C1222 H1247 0.950 . S
C1223 C1222 1.349 . S
C1223 C1239 1.349 1_655 S
C1224 C1222 1.327 . S
C1224 C1243 1.429 . S
C1224 H1248 0.950 . S
C1225 C1242 1.574 . S
C1225 C1244 1.368 1_455 S
C1225 H1249 0.949 . S
H1226 C1230 0.949 . S
C1227 C1228 1.349 1_455 S
C1227 C1229 1.327 . S
C1227 H1250 0.950 . S
C1228 C1227 1.349 1_655 S
C1228 C1240 1.349 . S
C1229 C1227 1.327 . S
C1229 C1245 1.432 1_455 S
C1229 H1251 0.944 1_556 S
C1230 H1226 0.949 . S
C1230 C1238 1.574 . S
C1230 C1246 1.368 . S
H1231 C1239 0.950 . S
H1232 C1237 0.950 . S
H1233 C1238 0.949 . S
H1234 C1240 0.950 . S
H1235 C1241 0.950 . S
H1236 C1242 0.949 . S
C1237 H1232 0.950 . S
C1237 C1239 1.327 . S
C1237 C1243 1.429 1_455 S
C1238 C1230 1.574 . S
C1238 H1233 0.949 . S
C1238 C1244 1.368 . S
C1239 C1223 1.349 1_455 S
C1239 H1231 0.950 . S
C1239 C1237 1.327 . S
C1240 C1228 1.349 . S
C1240 H1234 0.950 . S
C1240 C1241 1.327 . S
C1241 H1235 0.950 . S
C1241 C1240 1.327 . S
C1241 C1245 1.434 . S
C1242 C1225 1.574 . S
C1242 H1236 0.949 . S
C1242 C1246 1.368 1_455 S
C1243 C1224 1.429 . S
C1243 C1237 1.429 1_655 S
C1243 C1244 1.523 . S
C1244 C1225 1.368 1_655 S
C1244 C1238 1.368 . S
C1244 C1243 1.523 . S
C1245 C1229 1.432 1_655 S
C1245 C1241 1.434 . S
C1245 C1246 1.515 1_556 S
C1246 C1230 1.368 . S
C1246 C1242 1.368 1_655 S
C1246 C1245 1.515 1_554 S
H1247 C1222 0.950 . S
H1248 C1224 0.950 . S
H1249 C1225 0.949 . S
H1250 C1227 0.950 . S
H1251 C1229 0.944 1_554 S
C1252 C1253 1.316 1_545 S
C1252 C1254 1.330 . S
C1252 H1277 0.982 . S
C1253 C1252 1.316 1_565 S
C1253 C1269 1.349 . S
C1254 C1252 1.330 . S
C1254 C1273 1.429 1_545 S
C1254 H1278 0.950 . S
C1255 C1272 1.574 . S
C1255 C1274 1.368 . S
C1255 H1279 0.949 . S
H1256 C1260 0.949 . S
C1257 C1258 1.349 . S
C1257 C1259 1.327 . S
C1257 H1280 0.950 . S
C1258 C1257 1.349 . S
C1258 C1270 1.349 1_565 S
C1259 C1257 1.327 . S
C1259 C1275 1.429 . S
C1259 H1281 0.950 . S
C1260 H1256 0.949 . S
C1260 C1268 1.574 . S
C1260 C1276 1.368 1_545 S
H1261 C1269 0.950 . S
H1262 C1267 0.950 . S
H1263 C1268 0.949 . S
H1264 C1270 0.950 . S
H1265 C1271 0.950 . S
H1266 C1272 0.949 . S
C1267 H1262 0.950 . S
C1267 C1269 1.327 . S
C1267 C1273 1.429 . S
C1268 C1260 1.574 . S
C1268 H1263 0.949 . S
C1268 C1274 1.368 1_545 S
C1269 C1253 1.349 . S
C1269 H1261 0.950 . S
C1269 C1267 1.327 . S
C1270 C1258 1.349 1_545 S
C1270 H1264 0.950 . S
C1270 C1271 1.327 . S
C1271 H1265 0.950 . S
C1271 C1270 1.327 . S
C1271 C1275 1.429 1_545 S
C1272 C1255 1.574 . S
C1272 H1266 0.949 . S
C1272 C1276 1.368 . S
C1273 C1254 1.429 1_565 S
C1273 C1267 1.429 . S
C1273 C1274 1.523 . S
C1274 C1255 1.368 . S
C1274 C1268 1.368 1_565 S
C1274 C1273 1.523 . S
C1275 C1259 1.429 . S
C1275 C1271 1.429 1_565 S
C1275 C1276 1.523 . S
C1276 C1260 1.368 1_565 S
C1276 C1272 1.368 . S
C1276 C1275 1.523 . S
H1277 C1252 0.982 . S
H1278 C1254 0.950 . S
H1279 C1255 0.949 . S
H1280 C1257 0.950 . S
H1281 C1259 0.950 . S
C1282 C1283 1.349 . S
C1282 C1284 1.327 . S
C1282 H1307 0.950 . S
C1283 C1282 1.349 . S
C1283 C1299 1.349 . S
C1284 C1282 1.327 . S
C1284 C1303 1.435 . S
C1284 H1308 0.950 . S
C1285 C1302 1.574 . S
C1285 C1304 1.368 . S
C1285 H1309 0.949 . S
H1286 C1290 0.949 . S
C1287 C1288 1.349 . S
C1287 C1289 1.327 . S
C1287 H1310 0.950 . S
C1288 C1287 1.349 . S
C1288 C1300 1.349 . S
C1289 C1287 1.327 . S
C1289 C1305 1.429 . S
C1289 H1311 0.950 . S
C1290 H1286 0.949 . S
C1290 C1298 1.574 . S
C1290 C1306 1.368 . S
H1291 C1299 0.950 . S
H1292 C1297 0.950 1_554 S
H1293 C1298 0.949 . S
H1294 C1300 0.950 . S
H1295 C1301 0.950 . S
H1296 C1302 0.949 . S
C1297 H1292 0.950 1_556 S
C1297 C1299 1.327 . S
C1297 C1303 1.432 . S
C1298 C1290 1.574 . S
C1298 H1293 0.949 . S
C1298 C1304 1.368 . S
C1299 C1283 1.349 . S
C1299 H1291 0.950 . S
C1299 C1297 1.327 . S
C1300 C1288 1.349 . S
C1300 H1294 0.950 . S
C1300 C1301 1.327 . S
C1301 H1295 0.950 . S
C1301 C1300 1.327 . S
C1301 C1305 1.429 . S
C1302 C1285 1.574 . S
C1302 H1296 0.949 . S
C1302 C1306 1.368 . S
C1303 C1284 1.435 . S
C1303 C1297 1.432 . S
C1303 C1304 1.515 1_556 S
C1304 C1285 1.368 . S
C1304 C1298 1.368 . S
C1304 C1303 1.515 1_554 S
C1305 C1289 1.429 . S
C1305 C1301 1.429 . S
C1305 C1306 1.523 . S
C1306 C1290 1.368 . S
C1306 C1302 1.368 . S
C1306 C1305 1.523 . S
H1307 C1282 0.950 . S
H1308 C1284 0.950 . S
H1309 C1285 0.949 . S
H1310 C1287 0.950 . S
H1311 C1289 0.950 . S
C1312 C1313 1.349 . S
C1312 C1314 1.327 . S
C1312 H1337 0.950 . S
C1313 C1312 1.349 . S
C1313 C1329 1.349 . S
C1314 C1312 1.327 . S
C1314 C1333 1.429 . S
C1314 H1338 0.950 . S
C1315 C1332 1.574 . S
C1315 C1334 1.368 . S
C1315 H1339 0.949 . S
H1316 C1320 0.949 . S
C1317 C1318 1.349 . S
C1317 C1319 1.327 . S
C1317 H1340 0.950 . S
C1318 C1317 1.349 . S
C1318 C1330 1.349 . S
C1319 C1317 1.327 . S
C1319 C1335 1.429 . S
C1319 H1341 0.950 . S
C1320 H1316 0.949 . S
C1320 C1328 1.574 . S
C1320 C1336 1.368 . S
H1321 C1329 0.950 . S
H1322 C1327 0.950 . S
H1323 C1328 0.949 . S
H1324 C1330 0.950 . S
H1325 C1331 0.950 . S
H1326 C1332 0.949 . S
C1327 H1322 0.950 . S
C1327 C1329 1.327 . S
C1327 C1333 1.429 . S
C1328 C1320 1.574 . S
C1328 H1323 0.949 . S
C1328 C1334 1.368 . S
C1329 C1313 1.349 . S
C1329 H1321 0.950 . S
C1329 C1327 1.327 . S
C1330 C1318 1.349 . S
C1330 H1324 0.950 . S
C1330 C1331 1.327 . S
C1331 H1325 0.950 . S
C1331 C1330 1.327 . S
C1331 C1335 1.429 . S
C1332 C1315 1.574 . S
C1332 H1326 0.949 . S
C1332 C1336 1.368 . S
C1333 C1314 1.429 . S
C1333 C1327 1.429 . S
C1333 C1334 1.523 . S
C1334 C1315 1.368 . S
C1334 C1328 1.368 . S
C1334 C1333 1.523 . S
C1335 C1319 1.429 . S
C1335 C1331 1.429 . S
C1335 C1336 1.523 . S
C1336 C1320 1.368 . S
C1336 C1332 1.368 . S
C1336 C1335 1.523 . S
H1337 C1312 0.950 . S
H1338 C1314 0.950 . S
H1339 C1315 0.949 . S
H1340 C1317 0.950 . S
H1341 C1319 0.950 . S
C1342 C1343 1.349 . S
C1342 C1344 1.327 . S
C1342 H1367 0.950 . S
C1343 C1342 1.349 . S
C1343 C1359 1.349 . S
C1344 C1342 1.327 . S
C1344 C1363 1.429 . S
C1344 H1368 0.950 . S
C1345 C1362 1.574 . S
C1345 C1364 1.368 . S
C1345 H1369 0.949 . S
H1346 C1350 0.949 . S
C1347 C1348 1.349 . S
C1347 C1349 1.327 . S
C1347 H1370 0.950 . S
C1348 C1347 1.349 . S
C1348 C1360 1.349 . S
C1349 C1347 1.327 . S
C1349 C1365 1.429 . S
C1349 H1371 0.950 . S
C1350 H1346 0.949 . S
C1350 C1358 1.574 . S
C1350 C1366 1.368 . S
H1351 C1359 0.950 . S
H1352 C1357 0.950 . S
H1353 C1358 0.949 . S
H1354 C1360 0.950 . S
H1355 C1361 0.950 . S
H1356 C1362 0.949 . S
C1357 H1352 0.950 . S
C1357 C1359 1.327 . S
C1357 C1363 1.429 . S
C1358 C1350 1.574 . S
C1358 H1353 0.949 . S
C1358 C1364 1.368 . S
C1359 C1343 1.349 . S
C1359 H1351 0.950 . S
C1359 C1357 1.327 . S
C1360 C1348 1.349 . S
C1360 H1354 0.950 . S
C1360 C1361 1.327 . S
C1361 H1355 0.950 . S
C1361 C1360 1.327 . S
C1361 C1365 1.429 . S
C1362 C1345 1.574 . S
C1362 H1356 0.949 . S
C1362 C1366 1.368 . S
C1363 C1344 1.429 . S
C1363 C1357 1.429 . S
C1363 C1364 1.523 . S
C1364 C1345 1.368 . S
C1364 C1358 1.368 . S
C1364 C1363 1.523 . S
C1365 C1349 1.429 . S
C1365 C1361 1.429 . S
C1365 C1366 1.523 . S
C1366 C1350 1.368 . S
C1366 C1362 1.368 . S
C1366 C1365 1.523 . S
H1367 C1342 0.950 . S
H1368 C1344 0.950 . S
H1369 C1345 0.949 . S
H1370 C1347 0.950 . S
H1371 C1349 0.950 . S
C1372 C1373 1.349 . S
C1372 C1374 1.327 . S
C1372 H1397 0.950 . S
C1373 C1372 1.349 . S
C1373 C1389 1.349 . S
C1374 C1372 1.327 . S
C1374 C1393 1.429 . S
C1374 H1398 0.950 . S
C1375 C1392 1.574 . S
C1375 C1394 1.368 . S
C1375 H1399 0.949 . S
H1376 C1380 0.949 . S
C1377 C1378 1.349 . S
C1377 C1379 1.327 . S
C1377 H1400 0.950 . S
C1378 C1377 1.349 . S
C1378 C1390 1.349 . S
C1379 C1377 1.327 . S
C1379 C1395 1.429 . S
C1379 H1401 0.950 . S
C1380 H1376 0.949 . S
C1380 C1388 1.574 . S
C1380 C1396 1.368 . S
H1381 C1389 0.950 . S
H1382 C1387 0.950 . S
H1383 C1388 0.949 . S
H1384 C1390 0.950 . S
H1385 C1391 0.950 . S
H1386 C1392 0.949 . S
C1387 H1382 0.950 . S
C1387 C1389 1.327 . S
C1387 C1393 1.429 . S
C1388 C1380 1.574 . S
C1388 H1383 0.949 . S
C1388 C1394 1.368 . S
C1389 C1373 1.349 . S
C1389 H1381 0.950 . S
C1389 C1387 1.327 . S
C1390 C1378 1.349 . S
C1390 H1384 0.950 . S
C1390 C1391 1.327 . S
C1391 H1385 0.950 . S
C1391 C1390 1.327 . S
C1391 C1395 1.429 . S
C1392 C1375 1.574 . S
C1392 H1386 0.949 . S
C1392 C1396 1.368 . S
C1393 C1374 1.429 . S
C1393 C1387 1.429 . S
C1393 C1394 1.523 . S
C1394 C1375 1.368 . S
C1394 C1388 1.368 . S
C1394 C1393 1.523 . S
C1395 C1379 1.429 . S
C1395 C1391 1.429 . S
C1395 C1396 1.523 . S
C1396 C1380 1.368 . S
C1396 C1392 1.368 . S
C1396 C1395 1.523 . S
H1397 C1372 0.950 . S
H1398 C1374 0.950 . S
H1399 C1375 0.949 . S
H1400 C1377 0.950 . S
H1401 C1379 0.950 . S
C1402 C1403 1.349 . S
C1402 C1404 1.327 . S
C1402 H1427 0.950 . S
C1403 C1402 1.349 . S
C1403 C1419 1.349 . S
C1404 C1402 1.327 . S
C1404 C1423 1.429 . S
C1404 H1428 0.950 . S
C1405 C1422 1.574 . S
C1405 C1424 1.368 . S
C1405 H1429 0.949 . S
H1406 C1410 0.949 . S
C1407 C1408 1.349 . S
C1407 C1409 1.327 . S
C1407 H1430 0.950 . S
C1408 C1407 1.349 . S
C1408 C1420 1.349 . S
C1409 C1407 1.327 . S
C1409 C1425 1.429 . S
C1409 H1431 0.950 . S
C1410 H1406 0.949 . S
C1410 C1418 1.574 . S
C1410 C1426 1.368 . S
H1411 C1419 0.950 . S
H1412 C1417 0.950 . S
H1413 C1418 0.949 . S
H1414 C1420 0.950 . S
H1415 C1421 0.950 . S
H1416 C1422 0.949 . S
C1417 H1412 0.950 . S
C1417 C1419 1.327 . S
C1417 C1423 1.429 . S
C1418 C1410 1.574 . S
C1418 H1413 0.949 . S
C1418 C1424 1.368 . S
C1419 C1403 1.349 . S
C1419 H1411 0.950 . S
C1419 C1417 1.327 . S
C1420 C1408 1.349 . S
C1420 H1414 0.950 . S
C1420 C1421 1.327 . S
C1421 H1415 0.950 . S
C1421 C1420 1.327 . S
C1421 C1425 1.429 . S
C1422 C1405 1.574 . S
C1422 H1416 0.949 . S
C1422 C1426 1.368 . S
C1423 C1404 1.429 . S
C1423 C1417 1.429 . S
C1423 C1424 1.523 . S
C1424 C1405 1.368 . S
C1424 C1418 1.368 . S
C1424 C1423 1.523 . S
C1425 C1409 1.429 . S
C1425 C1421 1.429 . S
C1425 C1426 1.523 . S
C1426 C1410 1.368 . S
C1426 C1422 1.368 . S
C1426 C1425 1.523 . S
H1427 C1402 0.950 . S
H1428 C1404 0.950 . S
H1429 C1405 0.949 . S
H1430 C1407 0.950 . S
H1431 C1409 0.950 . S
C1432 C1433 1.349 . S
C1432 C1434 1.327 . S
C1432 H1457 0.950 . S
C1433 C1432 1.349 . S
C1433 C1449 1.349 . S
C1434 C1432 1.327 . S
C1434 C1453 1.429 . S
C1434 H1458 0.950 . S
C1435 C1452 1.574 . S
C1435 C1454 1.368 . S
C1435 H1459 0.949 . S
H1436 C1440 0.949 . S
C1437 C1438 1.349 . S
C1437 C1439 1.327 . S
C1437 H1460 0.950 . S
C1438 C1437 1.349 . S
C1438 C1450 1.349 . S
C1439 C1437 1.327 . S
C1439 C1455 1.429 . S
C1439 H1461 0.950 . S
C1440 H1436 0.949 . S
C1440 C1448 1.574 . S
C1440 C1456 1.368 . S
H1441 C1449 0.950 . S
H1442 C1447 0.950 . S
H1443 C1448 0.949 . S
H1444 C1450 0.950 . S
H1445 C1451 0.950 . S
H1446 C1452 0.949 . S
C1447 H1442 0.950 . S
C1447 C1449 1.327 . S
C1447 C1453 1.429 . S
C1448 C1440 1.574 . S
C1448 H1443 0.949 . S
C1448 C1454 1.368 . S
C1449 C1433 1.349 . S
C1449 H1441 0.950 . S
C1449 C1447 1.327 . S
C1450 C1438 1.349 . S
C1450 H1444 0.950 . S
C1450 C1451 1.327 . S
C1451 H1445 0.950 . S
C1451 C1450 1.327 . S
C1451 C1455 1.429 . S
C1452 C1435 1.574 . S
C1452 H1446 0.949 . S
C1452 C1456 1.368 . S
C1453 C1434 1.429 . S
C1453 C1447 1.429 . S
C1453 C1454 1.523 . S
C1454 C1435 1.368 . S
C1454 C1448 1.368 . S
C1454 C1453 1.523 . S
C1455 C1439 1.429 . S
C1455 C1451 1.429 . S
C1455 C1456 1.523 . S
C1456 C1440 1.368 . S
C1456 C1452 1.368 . S
C1456 C1455 1.523 . S
H1457 C1432 0.950 . S
H1458 C1434 0.950 . S
H1459 C1435 0.949 . S
H1460 C1437 0.950 . S
H1461 C1439 0.950 . S
C1462 C1463 1.349 . S
C1462 C1464 1.327 . S
C1462 H1487 0.950 . S
C1463 C1462 1.349 . S
C1463 C1479 1.349 . S
C1464 C1462 1.327 . S
C1464 C1483 1.429 . S
C1464 H1488 0.950 . S
C1465 C1482 1.574 . S
C1465 C1484 1.368 . S
C1465 H1489 0.949 . S
H1466 C1470 0.949 . S
C1467 C1468 1.349 . S
C1467 C1469 1.327 . S
C1467 H1490 0.950 . S
C1468 C1467 1.349 . S
C1468 C1480 1.349 . S
C1469 C1467 1.327 . S
C1469 C1485 1.429 . S
C1469 H1491 0.950 . S
C1470 H1466 0.949 . S
C1470 C1478 1.574 . S
C1470 C1486 1.368 . S
H1471 C1479 0.950 . S
H1472 C1477 0.950 . S
H1473 C1478 0.949 . S
H1474 C1480 0.950 . S
H1475 C1481 0.950 . S
H1476 C1482 0.949 . S
C1477 H1472 0.950 . S
C1477 C1479 1.327 . S
C1477 C1483 1.429 . S
C1478 C1470 1.574 . S
C1478 H1473 0.949 . S
C1478 C1484 1.368 . S
C1479 C1463 1.349 . S
C1479 H1471 0.950 . S
C1479 C1477 1.327 . S
C1480 C1468 1.349 . S
C1480 H1474 0.950 . S
C1480 C1481 1.327 . S
C1481 H1475 0.950 . S
C1481 C1480 1.327 . S
C1481 C1485 1.429 . S
C1482 C1465 1.574 . S
C1482 H1476 0.949 . S
C1482 C1486 1.368 . S
C1483 C1464 1.429 . S
C1483 C1477 1.429 . S
C1483 C1484 1.523 . S
C1484 C1465 1.368 . S
C1484 C1478 1.368 . S
C1484 C1483 1.523 . S
C1485 C1469 1.429 . S
C1485 C1481 1.429 . S
C1485 C1486 1.523 . S
C1486 C1470 1.368 . S
C1486 C1482 1.368 . S
C1486 C1485 1.523 . S
H1487 C1462 0.950 . S
H1488 C1464 0.950 . S
H1489 C1465 0.949 . S
H1490 C1467 0.950 . S
H1491 C1469 0.950 . S
C1492 C1493 1.349 . S
C1492 C1494 1.327 . S
C1492 H1517 0.950 . S
C1493 C1492 1.349 . S
C1493 C1509 1.349 . S
C1494 C1492 1.327 . S
C1494 C1513 1.429 . S
C1494 H1518 0.950 . S
C1495 C1512 1.574 . S
C1495 C1514 1.368 . S
C1495 H1519 0.949 . S
H1496 C1500 0.949 . S
C1497 C1498 1.349 . S
C1497 C1499 1.327 . S
C1497 H1520 0.950 . S
C1498 C1497 1.349 . S
C1498 C1510 1.349 . S
C1499 C1497 1.327 . S
C1499 C1515 1.429 . S
C1499 H1521 0.950 . S
C1500 H1496 0.949 . S
C1500 C1508 1.574 . S
C1500 C1516 1.368 . S
H1501 C1509 0.950 . S
H1502 C1507 0.950 . S
H1503 C1508 0.949 . S
H1504 C1510 0.950 . S
H1505 C1511 0.950 . S
H1506 C1512 0.949 . S
C1507 H1502 0.950 . S
C1507 C1509 1.327 . S
C1507 C1513 1.429 . S
C1508 C1500 1.574 . S
C1508 H1503 0.949 . S
C1508 C1514 1.368 . S
C1509 C1493 1.349 . S
C1509 H1501 0.950 . S
C1509 C1507 1.327 . S
C1510 C1498 1.349 . S
C1510 H1504 0.950 . S
C1510 C1511 1.327 . S
C1511 H1505 0.950 . S
C1511 C1510 1.327 . S
C1511 C1515 1.429 . S
C1512 C1495 1.574 . S
C1512 H1506 0.949 . S
C1512 C1516 1.368 . S
C1513 C1494 1.429 . S
C1513 C1507 1.429 . S
C1513 C1514 1.523 . S
C1514 C1495 1.368 . S
C1514 C1508 1.368 . S
C1514 C1513 1.523 . S
C1515 C1499 1.429 . S
C1515 C1511 1.429 . S
C1515 C1516 1.523 . S
C1516 C1500 1.368 . S
C1516 C1512 1.368 . S
C1516 C1515 1.523 . S
H1517 C1492 0.950 . S
H1518 C1494 0.950 . S
H1519 C1495 0.949 . S
H1520 C1497 0.950 . S
H1521 C1499 0.950 . S
C1522 C1523 1.349 . S
C1522 C1524 1.327 . S
C1522 H1547 0.950 . S
C1523 C1522 1.349 . S
C1523 C1539 1.349 . S
C1524 C1522 1.327 . S
C1524 C1543 1.429 . S
C1524 H1548 0.950 . S
C1525 C1542 1.574 . S
C1525 C1544 1.368 . S
C1525 H1549 0.949 . S
H1526 C1530 0.949 . S
C1527 C1528 1.349 . S
C1527 C1529 1.327 . S
C1527 H1550 0.950 . S
C1528 C1527 1.349 . S
C1528 C1540 1.349 . S
C1529 C1527 1.327 . S
C1529 C1545 1.429 . S
C1529 H1551 0.950 . S
C1530 H1526 0.949 . S
C1530 C1538 1.574 . S
C1530 C1546 1.368 . S
H1531 C1539 0.950 . S
H1532 C1537 0.950 . S
H1533 C1538 0.949 . S
H1534 C1540 0.950 . S
H1535 C1541 0.950 . S
H1536 C1542 0.949 . S
C1537 H1532 0.950 . S
C1537 C1539 1.327 . S
C1537 C1543 1.429 . S
C1538 C1530 1.574 . S
C1538 H1533 0.949 . S
C1538 C1544 1.368 . S
C1539 C1523 1.349 . S
C1539 H1531 0.950 . S
C1539 C1537 1.327 . S
C1540 C1528 1.349 . S
C1540 H1534 0.950 . S
C1540 C1541 1.327 . S
C1541 H1535 0.950 . S
C1541 C1540 1.327 . S
C1541 C1545 1.429 . S
C1542 C1525 1.574 . S
C1542 H1536 0.949 . S
C1542 C1546 1.368 . S
C1543 C1524 1.429 . S
C1543 C1537 1.429 . S
C1543 C1544 1.523 . S
C1544 C1525 1.368 . S
C1544 C1538 1.368 . S
C1544 C1543 1.523 . S
C1545 C1529 1.429 . S
C1545 C1541 1.429 . S
C1545 C1546 1.523 . S
C1546 C1530 1.368 . S
C1546 C1542 1.368 . S
C1546 C1545 1.523 . S
H1547 C1522 0.950 . S
H1548 C1524 0.950 . S
H1549 C1525 0.949 . S
H1550 C1527 0.950 . S
H1551 C1529 0.950 . S
C1552 C1553 1.349 . S
C1552 C1554 1.327 . S
C1552 H1577 0.950 . S
C1553 C1552 1.349 . S
C1553 C1569 1.349 . S
C1554 C1552 1.327 . S
C1554 C1573 1.429 . S
C1554 H1578 0.950 . S
C1555 C1572 1.574 . S
C1555 C1574 1.368 . S
C1555 H1579 0.949 . S
H1556 C1560 0.949 . S
C1557 C1558 1.349 . S
C1557 C1559 1.327 . S
C1557 H1580 0.950 . S
C1558 C1557 1.349 . S
C1558 C1570 1.349 . S
C1559 C1557 1.327 . S
C1559 C1575 1.429 . S
C1559 H1581 0.950 . S
C1560 H1556 0.949 . S
C1560 C1568 1.574 . S
C1560 C1576 1.368 . S
H1561 C1569 0.950 . S
H1562 C1567 0.950 . S
H1563 C1568 0.949 . S
H1564 C1570 0.950 . S
H1565 C1571 0.950 . S
H1566 C1572 0.949 . S
C1567 H1562 0.950 . S
C1567 C1569 1.327 . S
C1567 C1573 1.429 . S
C1568 C1560 1.574 . S
C1568 H1563 0.949 . S
C1568 C1574 1.368 . S
C1569 C1553 1.349 . S
C1569 H1561 0.950 . S
C1569 C1567 1.327 . S
C1570 C1558 1.349 . S
C1570 H1564 0.950 . S
C1570 C1571 1.327 . S
C1571 H1565 0.950 . S
C1571 C1570 1.327 . S
C1571 C1575 1.429 . S
C1572 C1555 1.574 . S
C1572 H1566 0.949 . S
C1572 C1576 1.368 . S
C1573 C1554 1.429 . S
C1573 C1567 1.429 . S
C1573 C1574 1.523 . S
C1574 C1555 1.368 . S
C1574 C1568 1.368 . S
C1574 C1573 1.523 . S
C1575 C1559 1.429 . S
C1575 C1571 1.429 . S
C1575 C1576 1.523 . S
C1576 C1560 1.368 . S
C1576 C1572 1.368 . S
C1576 C1575 1.523 . S
H1577 C1552 0.950 . S
H1578 C1554 0.950 . S
H1579 C1555 0.949 . S
H1580 C1557 0.950 . S
H1581 C1559 0.950 . S
C1582 C1583 1.349 . S
C1582 C1584 1.327 . S
C1582 H1607 0.950 . S
C1583 C1582 1.349 . S
C1583 C1599 1.349 . S
C1584 C1582 1.327 . S
C1584 C1603 1.429 . S
C1584 H1608 0.950 . S
C1585 C1602 1.574 . S
C1585 C1604 1.368 . S
C1585 H1609 0.949 . S
H1586 C1590 0.949 . S
C1587 C1588 1.349 . S
C1587 C1589 1.327 . S
C1587 H1610 0.950 . S
C1588 C1587 1.349 . S
C1588 C1600 1.349 . S
C1589 C1587 1.327 . S
C1589 C1605 1.429 . S
C1589 H1611 0.950 . S
C1590 H1586 0.949 . S
C1590 C1598 1.574 . S
C1590 C1606 1.368 . S
H1591 C1599 0.950 . S
H1592 C1597 0.950 . S
H1593 C1598 0.949 . S
H1594 C1600 0.950 . S
H1595 C1601 0.950 . S
H1596 C1602 0.949 . S
C1597 H1592 0.950 . S
C1597 C1599 1.327 . S
C1597 C1603 1.429 . S
C1598 C1590 1.574 . S
C1598 H1593 0.949 . S
C1598 C1604 1.368 . S
C1599 C1583 1.349 . S
C1599 H1591 0.950 . S
C1599 C1597 1.327 . S
C1600 C1588 1.349 . S
C1600 H1594 0.950 . S
C1600 C1601 1.327 . S
C1601 H1595 0.950 . S
C1601 C1600 1.327 . S
C1601 C1605 1.429 . S
C1602 C1585 1.574 . S
C1602 H1596 0.949 . S
C1602 C1606 1.368 . S
C1603 C1584 1.429 . S
C1603 C1597 1.429 . S
C1603 C1604 1.523 . S
C1604 C1585 1.368 . S
C1604 C1598 1.368 . S
C1604 C1603 1.523 . S
C1605 C1589 1.429 . S
C1605 C1601 1.429 . S
C1605 C1606 1.523 . S
C1606 C1590 1.368 . S
C1606 C1602 1.368 . S
C1606 C1605 1.523 . S
H1607 C1582 0.950 . S
H1608 C1584 0.950 . S
H1609 C1585 0.949 . S
H1610 C1587 0.950 . S
H1611 C1589 0.950 . S
C1612 C1613 1.349 . S
C1612 C1614 1.327 . S
C1612 H1637 0.950 . S
C1613 C1612 1.349 . S
C1613 C1629 1.349 . S
C1614 C1612 1.327 . S
C1614 C1633 1.429 . S
C1614 H1638 0.950 . S
C1615 C1632 1.574 . S
C1615 C1634 1.368 . S
C1615 H1639 0.949 . S
H1616 C1620 0.949 . S
C1617 C1618 1.349 . S
C1617 C1619 1.327 . S
C1617 H1640 0.950 . S
C1618 C1617 1.349 . S
C1618 C1630 1.349 . S
C1619 C1617 1.327 . S
C1619 C1635 1.429 . S
C1619 H1641 0.950 . S
C1620 H1616 0.949 . S
C1620 C1628 1.574 . S
C1620 C1636 1.368 . S
H1621 C1629 0.950 . S
H1622 C1627 0.950 . S
H1623 C1628 0.949 . S
H1624 C1630 0.950 . S
H1625 C1631 0.950 . S
H1626 C1632 0.949 . S
C1627 H1622 0.950 . S
C1627 C1629 1.327 . S
C1627 C1633 1.429 . S
C1628 C1620 1.574 . S
C1628 H1623 0.949 . S
C1628 C1634 1.368 . S
C1629 C1613 1.349 . S
C1629 H1621 0.950 . S
C1629 C1627 1.327 . S
C1630 C1618 1.349 . S
C1630 H1624 0.950 . S
C1630 C1631 1.327 . S
C1631 H1625 0.950 . S
C1631 C1630 1.327 . S
C1631 C1635 1.429 . S
C1632 C1615 1.574 . S
C1632 H1626 0.949 . S
C1632 C1636 1.368 . S
C1633 C1614 1.429 . S
C1633 C1627 1.429 . S
C1633 C1634 1.523 . S
C1634 C1615 1.368 . S
C1634 C1628 1.368 . S
C1634 C1633 1.523 . S
C1635 C1619 1.429 . S
C1635 C1631 1.429 . S
C1635 C1636 1.523 . S
C1636 C1620 1.368 . S
C1636 C1632 1.368 . S
C1636 C1635 1.523 . S
H1637 C1612 0.950 . S
H1638 C1614 0.950 . S
H1639 C1615 0.949 . S
H1640 C1617 0.950 . S
H1641 C1619 0.950 . S
C1642 C1643 1.349 . S
C1642 C1644 1.327 . S
C1642 H1667 0.950 . S
C1643 C1642 1.349 . S
C1643 C1659 1.349 . S
C1644 C1642 1.327 . S
C1644 C1663 1.429 . S
C1644 H1668 0.950 . S
C1645 C1662 1.574 . S
C1645 C1664 1.368 . S
C1645 H1669 0.949 . S
H1646 C1650 0.949 . S
C1647 C1648 1.349 . S
C1647 C1649 1.327 . S
C1647 H1670 0.950 . S
C1648 C1647 1.349 . S
C1648 C1660 1.349 . S
C1649 C1647 1.327 . S
C1649 C1665 1.429 . S
C1649 H1671 0.950 . S
C1650 H1646 0.949 . S
C1650 C1658 1.574 . S
C1650 C1666 1.368 . S
H1651 C1659 0.950 . S
H1652 C1657 0.950 . S
H1653 C1658 0.949 . S
H1654 C1660 0.950 . S
H1655 C1661 0.950 . S
H1656 C1662 0.949 . S
C1657 H1652 0.950 . S
C1657 C1659 1.327 . S
C1657 C1663 1.429 . S
C1658 C1650 1.574 . S
C1658 H1653 0.949 . S
C1658 C1664 1.368 . S
C1659 C1643 1.349 . S
C1659 H1651 0.950 . S
C1659 C1657 1.327 . S
C1660 C1648 1.349 . S
C1660 H1654 0.950 . S
C1660 C1661 1.327 . S
C1661 H1655 0.950 . S
C1661 C1660 1.327 . S
C1661 C1665 1.429 . S
C1662 C1645 1.574 . S
C1662 H1656 0.949 . S
C1662 C1666 1.368 . S
C1663 C1644 1.429 . S
C1663 C1657 1.429 . S
C1663 C1664 1.523 . S
C1664 C1645 1.368 . S
C1664 C1658 1.368 . S
C1664 C1663 1.523 . S
C1665 C1649 1.429 . S
C1665 C1661 1.429 . S
C1665 C1666 1.523 . S
C1666 C1650 1.368 . S
C1666 C1662 1.368 . S
C1666 C1665 1.523 . S
H1667 C1642 0.950 . S
H1668 C1644 0.950 . S
H1669 C1645 0.949 . S
H1670 C1647 0.950 . S
H1671 C1649 0.950 . S
C1672 C1673 1.349 . S
C1672 C1674 1.327 . S
C1672 H1697 0.950 . S
C1673 C1672 1.349 . S
C1673 C1689 1.349 . S
C1674 C1672 1.327 . S
C1674 C1693 1.429 . S
C1674 H1698 0.950 . S
C1675 C1692 1.574 . S
C1675 C1694 1.368 . S
C1675 H1699 0.949 . S
H1676 C1680 0.949 . S
C1677 C1678 1.349 . S
C1677 C1679 1.327 . S
C1677 H1700 0.950 . S
C1678 C1677 1.349 . S
C1678 C1690 1.349 . S
C1679 C1677 1.327 . S
C1679 C1695 1.429 . S
C1679 H1701 0.950 . S
C1680 H1676 0.949 . S
C1680 C1688 1.574 . S
C1680 C1696 1.368 . S
H1681 C1689 0.950 . S
H1682 C1687 0.950 . S
H1683 C1688 0.949 . S
H1684 C1690 0.950 . S
H1685 C1691 0.950 . S
H1686 C1692 0.949 . S
C1687 H1682 0.950 . S
C1687 C1689 1.327 . S
C1687 C1693 1.429 . S
C1688 C1680 1.574 . S
C1688 H1683 0.949 . S
C1688 C1694 1.368 . S
C1689 C1673 1.349 . S
C1689 H1681 0.950 . S
C1689 C1687 1.327 . S
C1690 C1678 1.349 . S
C1690 H1684 0.950 . S
C1690 C1691 1.327 . S
C1691 H1685 0.950 . S
C1691 C1690 1.327 . S
C1691 C1695 1.429 . S
C1692 C1675 1.574 . S
C1692 H1686 0.949 . S
C1692 C1696 1.368 . S
C1693 C1674 1.429 . S
C1693 C1687 1.429 . S
C1693 C1694 1.523 . S
C1694 C1675 1.368 . S
C1694 C1688 1.368 . S
C1694 C1693 1.523 . S
C1695 C1679 1.429 . S
C1695 C1691 1.429 . S
C1695 C1696 1.523 . S
C1696 C1680 1.368 . S
C1696 C1692 1.368 . S
C1696 C1695 1.523 . S
H1697 C1672 0.950 . S
H1698 C1674 0.950 . S
H1699 C1675 0.949 . S
H1700 C1677 0.950 . S
H1701 C1679 0.950 . S
C1702 C1703 1.349 . S
C1702 C1704 1.327 . S
C1702 H1727 0.950 . S
C1703 C1702 1.349 . S
C1703 C1719 1.349 . S
C1704 C1702 1.327 . S
C1704 C1723 1.429 . S
C1704 H1728 0.950 . S
C1705 C1722 1.574 . S
C1705 C1724 1.368 . S
C1705 H1729 0.949 . S
H1706 C1710 0.949 . S
C1707 C1708 1.349 . S
C1707 C1709 1.327 . S
C1707 H1730 0.950 . S
C1708 C1707 1.349 . S
C1708 C1720 1.349 . S
C1709 C1707 1.327 . S
C1709 C1725 1.429 . S
C1709 H1731 0.950 . S
C1710 H1706 0.949 . S
C1710 C1718 1.574 . S
C1710 C1726 1.368 . S
H1711 C1719 0.950 . S
H1712 C1717 0.950 . S
H1713 C1718 0.949 . S
H1714 C1720 0.950 . S
H1715 C1721 0.950 . S
H1716 C1722 0.949 . S
C1717 H1712 0.950 . S
C1717 C1719 1.327 . S
C1717 C1723 1.429 . S
C1718 C1710 1.574 . S
C1718 H1713 0.949 . S
C1718 C1724 1.368 . S
C1719 C1703 1.349 . S
C1719 H1711 0.950 . S
C1719 C1717 1.327 . S
C1720 C1708 1.349 . S
C1720 H1714 0.950 . S
C1720 C1721 1.327 . S
C1721 H1715 0.950 . S
C1721 C1720 1.327 . S
C1721 C1725 1.429 . S
C1722 C1705 1.574 . S
C1722 H1716 0.949 . S
C1722 C1726 1.368 . S
C1723 C1704 1.429 . S
C1723 C1717 1.429 . S
C1723 C1724 1.523 . S
C1724 C1705 1.368 . S
C1724 C1718 1.368 . S
C1724 C1723 1.523 . S
C1725 C1709 1.429 . S
C1725 C1721 1.429 . S
C1725 C1726 1.523 . S
C1726 C1710 1.368 . S
C1726 C1722 1.368 . S
C1726 C1725 1.523 . S
H1727 C1702 0.950 . S
H1728 C1704 0.950 . S
H1729 C1705 0.949 . S
H1730 C1707 0.950 . S
H1731 C1709 0.950 . S
C1732 C1733 1.349 . S
C1732 C1734 1.327 . S
C1732 H1757 0.950 . S
C1733 C1732 1.349 . S
C1733 C1749 1.349 . S
C1734 C1732 1.327 . S
C1734 C1753 1.429 . S
C1734 H1758 0.950 . S
C1735 C1752 1.574 . S
C1735 C1754 1.368 . S
C1735 H1759 0.949 . S
H1736 C1740 0.949 . S
C1737 C1738 1.349 . S
C1737 C1739 1.327 . S
C1737 H1760 0.950 . S
C1738 C1737 1.349 . S
C1738 C1750 1.349 . S
C1739 C1737 1.327 . S
C1739 C1755 1.429 . S
C1739 H1761 0.950 . S
C1740 H1736 0.949 . S
C1740 C1748 1.574 . S
C1740 C1756 1.368 . S
H1741 C1749 0.950 . S
H1742 C1747 0.950 . S
H1743 C1748 0.949 . S
H1744 C1750 0.950 . S
H1745 C1751 0.950 . S
H1746 C1752 0.949 . S
C1747 H1742 0.950 . S
C1747 C1749 1.327 . S
C1747 C1753 1.429 . S
C1748 C1740 1.574 . S
C1748 H1743 0.949 . S
C1748 C1754 1.368 . S
C1749 C1733 1.349 . S
C1749 H1741 0.950 . S
C1749 C1747 1.327 . S
C1750 C1738 1.349 . S
C1750 H1744 0.950 . S
C1750 C1751 1.327 . S
C1751 H1745 0.950 . S
C1751 C1750 1.327 . S
C1751 C1755 1.429 . S
C1752 C1735 1.574 . S
C1752 H1746 0.949 . S
C1752 C1756 1.368 . S
C1753 C1734 1.429 . S
C1753 C1747 1.429 . S
C1753 C1754 1.523 . S
C1754 C1735 1.368 . S
C1754 C1748 1.368 . S
C1754 C1753 1.523 . S
C1755 C1739 1.429 . S
C1755 C1751 1.429 . S
C1755 C1756 1.523 . S
C1756 C1740 1.368 . S
C1756 C1752 1.368 . S
C1756 C1755 1.523 . S
H1757 C1732 0.950 . S
H1758 C1734 0.950 . S
H1759 C1735 0.949 . S
H1760 C1737 0.950 . S
H1761 C1739 0.950 . S
C1762 C1763 1.349 . S
C1762 C1764 1.327 . S
C1762 H1787 0.950 . S
C1763 C1762 1.349 . S
C1763 C1779 1.349 . S
C1764 C1762 1.327 . S
C1764 C1783 1.429 . S
C1764 H1788 0.950 . S
C1765 C1782 1.574 . S
C1765 C1784 1.368 . S
C1765 H1789 0.949 . S
H1766 C1770 0.949 . S
C1767 C1768 1.349 . S
C1767 C1769 1.327 . S
C1767 H1790 0.950 . S
C1768 C1767 1.349 . S
C1768 C1780 1.349 . S
C1769 C1767 1.327 . S
C1769 C1785 1.429 . S
C1769 H1791 0.950 . S
C1770 H1766 0.949 . S
C1770 C1778 1.574 . S
C1770 C1786 1.368 . S
H1771 C1779 0.950 . S
H1772 C1777 0.950 . S
H1773 C1778 0.949 . S
H1774 C1780 0.950 . S
H1775 C1781 0.950 . S
H1776 C1782 0.949 . S
C1777 H1772 0.950 . S
C1777 C1779 1.327 . S
C1777 C1783 1.429 . S
C1778 C1770 1.574 . S
C1778 H1773 0.949 . S
C1778 C1784 1.368 . S
C1779 C1763 1.349 . S
C1779 H1771 0.950 . S
C1779 C1777 1.327 . S
C1780 C1768 1.349 . S
C1780 H1774 0.950 . S
C1780 C1781 1.327 . S
C1781 H1775 0.950 . S
C1781 C1780 1.327 . S
C1781 C1785 1.429 . S
C1782 C1765 1.574 . S
C1782 H1776 0.949 . S
C1782 C1786 1.368 . S
C1783 C1764 1.429 . S
C1783 C1777 1.429 . S
C1783 C1784 1.523 . S
C1784 C1765 1.368 . S
C1784 C1778 1.368 . S
C1784 C1783 1.523 . S
C1785 C1769 1.429 . S
C1785 C1781 1.429 . S
C1785 C1786 1.523 . S
C1786 C1770 1.368 . S
C1786 C1782 1.368 . S
C1786 C1785 1.523 . S
H1787 C1762 0.950 . S
H1788 C1764 0.950 . S
H1789 C1765 0.949 . S
H1790 C1767 0.950 . S
H1791 C1769 0.950 . S
C353 C18 0.832 . S
C358 C164 0.832 . S
C383 C96 0.831 . S
C388 C32 0.831 . S
C413 C118 0.831 . S
C418 C54 0.831 . S
C443 C76 0.831 . S
C448 C140 0.831 . S
C473 C340 0.832 . S
C478 C186 0.832 . S
C503 C282 0.831 . S
C508 C208 0.831 . S
C533 C294 0.831 . S
C538 C230 0.831 . S
C563 C326 0.831 . S
C568 C260 0.831 . S
C593 C8 1.114 . S
C598 C348 1.114 . S
C623 C40 1.114 . S
C628 C272 1.114 . S
C653 C62 1.115 . S
C658 C296 1.115 . S
C683 C316 1.114 . S
C688 C84 1.114 . S
C713 C216 1.114 . S
C718 C98 1.114 . S
C743 C120 1.115 . S
C748 C238 1.115 . S
C773 C250 1.114 . S
C778 C142 1.114 . S
C803 C172 1.114 . S
C808 C194 1.114 . S
C833 C274 1.312 . S
C838 C21 1.308 . S
C863 C29 1.308 . S
C868 C304 1.312 . S
C893 C318 1.312 . S
C898 C51 1.308 . S
C923 C338 1.312 . S
C928 C73 1.308 . S
C953 C103 1.308 . S
C958 C184 1.312 . S
C983 C125 1.308 . S
C988 C206 1.312 . S
C1013 C147 1.308 . S
C1018 C228 1.312 . S
C1043 C252 1.312 . S
C1048 C161 1.308 . S
C1073 C183 1.308 . S
C1078 C106 1.312 . S
C1103 C205 1.308 . S
C1108 C128 1.312 . S
C1133 C150 1.312 . S
C1138 C227 1.308 . S
C1163 C263 1.308 . S
C1168 C162 1.312 . S
C1193 C285 1.308 . S
C1198 C10 1.312 . S
C1223 C301 1.308 . S
C1228 C30 1.312 . S
C1253 C52 1.312 . S
C1258 C329 1.308 . S
C1283 C74 1.312 . S
C1288 C337 1.308 . S
C1313 C15 1.508 . S
C1318 C213 1.463 . S
C1343 C235 1.462 . S
C1348 C43 1.508 . S
C1373 C65 1.508 . S
C1378 C249 1.462 . S
C1403 C87 1.508 . S
C1408 C191 1.462 . S
C1433 C95 1.508 . S
C1438 C345 1.462 . S
C1463 C117 1.508 . S
C1468 C271 1.462 . S
C1493 C139 1.508 . S
C1498 C307 1.462 . S
C1523 C315 1.463 . S
C1528 C175 1.508 . S
C1553 C37 1.463 . S
C1558 C197 1.508 . S
C1583 C59 1.462 . S
C1588 C219 1.508 . S
C1613 C241 1.508 . S
C1618 C81 1.462 . S
C1643 C257 1.508 . S
C1648 C7 1.462 . S
C1673 C169 1.462 . S
C1678 C279 1.508 . S
C1703 C109 1.462 . S
C1708 C293 1.508 . S
C1733 C131 1.462 . S
C1738 C323 1.508 . S
C1763 C153 1.463 . S
C1768 C351 1.508 . S
