# Generated by pormake.
# Topology vcn, (7)-cn, num edge types: 1
# Building blocks:
#     Node 0, Type 0, BuildingBlock: HICVOG_clean_sbu_0, # of connection points: 7
#     Node 1, Type 0, BuildingBlock: HICVOG_clean_sbu_0, # of connection points: 7
#     Node 2, Type 0, BuildingBlock: HICVOG_clean_sbu_0, # of connection points: 7
#     Node 3, Type 0, BuildingBlock: HICVOG_clean_sbu_0, # of connection points: 7
#     Node 4, Type 0, BuildingBlock: HICVOG_clean_sbu_0, # of connection points: 7
#     Node 5, Type 0, BuildingBlock: HICVOG_clean_sbu_0, # of connection points: 7
#     Node 6, Type 0, BuildingBlock: HICVOG_clean_sbu_0, # of connection points: 7
#     Node 7, Type 0, BuildingBlock: HICVOG_clean_sbu_0, # of connection points: 7
#     Edge 8, Type (0, 0), BuildingBlock: XUDNAN_clean_linker_2, # of connection points: 2
#     Edge 9, Type (0, 0), BuildingBlock: XUDNAN_clean_linker_2, # of connection points: 2
#     Edge 10, Type (0, 0), BuildingBlock: XUDNAN_clean_linker_2, # of connection points: 2
#     Edge 11, Type (0, 0), BuildingBlock: XUDNAN_clean_linker_2, # of connection points: 2
#     Edge 12, Type (0, 0), BuildingBlock: XUDNAN_clean_linker_2, # of connection points: 2
#     Edge 13, Type (0, 0), BuildingBlock: XUDNAN_clean_linker_2, # of connection points: 2
#     Edge 14, Type (0, 0), BuildingBlock: XUDNAN_clean_linker_2, # of connection points: 2
#     Edge 15, Type (0, 0), BuildingBlock: XUDNAN_clean_linker_2, # of connection points: 2
#     Edge 16, Type (0, 0), BuildingBlock: XUDNAN_clean_linker_2, # of connection points: 2
#     Edge 17, Type (0, 0), BuildingBlock: XUDNAN_clean_linker_2, # of connection points: 2
#     Edge 18, Type (0, 0), BuildingBlock: XUDNAN_clean_linker_2, # of connection points: 2
#     Edge 19, Type (0, 0), BuildingBlock: XUDNAN_clean_linker_2, # of connection points: 2
#     Edge 20, Type (0, 0), BuildingBlock: XUDNAN_clean_linker_2, # of connection points: 2
#     Edge 21, Type (0, 0), BuildingBlock: XUDNAN_clean_linker_2, # of connection points: 2
#     Edge 22, Type (0, 0), BuildingBlock: XUDNAN_clean_linker_2, # of connection points: 2
#     Edge 23, Type (0, 0), BuildingBlock: XUDNAN_clean_linker_2, # of connection points: 2
#     Edge 24, Type (0, 0), BuildingBlock: XUDNAN_clean_linker_2, # of connection points: 2
#     Edge 25, Type (0, 0), BuildingBlock: XUDNAN_clean_linker_2, # of connection points: 2
#     Edge 26, Type (0, 0), BuildingBlock: XUDNAN_clean_linker_2, # of connection points: 2
#     Edge 27, Type (0, 0), BuildingBlock: XUDNAN_clean_linker_2, # of connection points: 2
#     Edge 28, Type (0, 0), BuildingBlock: XUDNAN_clean_linker_2, # of connection points: 2
#     Edge 29, Type (0, 0), BuildingBlock: XUDNAN_clean_linker_2, # of connection points: 2
#     Edge 30, Type (0, 0), BuildingBlock: XUDNAN_clean_linker_2, # of connection points: 2
#     Edge 31, Type (0, 0), BuildingBlock: XUDNAN_clean_linker_2, # of connection points: 2
#     Edge 32, Type (0, 0), BuildingBlock: XUDNAN_clean_linker_2, # of connection points: 2
#     Edge 33, Type (0, 0), BuildingBlock: XUDNAN_clean_linker_2, # of connection points: 2
#     Edge 34, Type (0, 0), BuildingBlock: XUDNAN_clean_linker_2, # of connection points: 2
#     Edge 35, Type (0, 0), BuildingBlock: XUDNAN_clean_linker_2, # of connection points: 2
# Relax obj value: 0.238
# Max RMSD: 0.224
# Mean RMSD: 0.224
data_MOF--net-vcn--node1-HICVOG_clean_sbu_0--edge1-XUDNAN_clean_linker_2
_symmetry_space_group_name_H-M    P1
_symmetry_Int_Tables_number       1
_symmetry_cell_setting            triclinic
loop_
_symmetry_equiv_pos_as_xyz
'x, y, z'
_cell_length_a     40.530981
_cell_length_b     62.896206
_cell_length_c     14.370547
_cell_angle_alpha  89.930048
_cell_angle_beta   89.79178
_cell_angle_gamma 90.048043
loop_
_atom_site_label
_atom_site_type_symbol
_atom_site_fract_x
_atom_site_fract_y
_atom_site_fract_z
_atom_type_partial_charge
Zn0 Zn 0.11556 0.38524 0.14249 0.0
C1 C 0.05929 0.33694 0.05199 0.0
N2 N 0.05992 0.34744 0.97075 0.0
C3 C 0.07393 0.36613 0.99278 0.0
N4 N 0.08221 0.36698 0.08407 0.0
N5 N 0.0718 0.34886 0.12147 0.0
C6 C 0.08133 0.31417 0.34591 0.0
O7 O 0.10448 0.3288 0.3455 0.0
O8 O 0.11333 0.41417 0.08061 0.0
Zn9 Zn 0.05136 0.3474 0.24339 0.0
N10 N 0.15837 0.37171 0.12008 0.0
C11 C 0.18718 0.3429 0.0495 0.0
C12 C 0.15814 0.35399 0.06574 0.0
C13 C 0.18695 0.37867 0.15997 0.0
N14 N 0.21543 0.34966 0.08968 0.0
C15 C 0.21643 0.36722 0.14492 0.0
O16 O 0.07216 0.36738 0.33429 0.0
C17 C 0.09281 0.38219 0.34894 0.0
O18 O 0.11062 0.38988 0.2837 0.0
H19 H 0.13559 0.34833 0.03494 0.0
H20 H 0.18642 0.39244 0.20499 0.0
C21 C 0.97677 0.34889 0.24833 0.0
C22 C 0.94752 0.36098 0.2388 0.0
C23 C 0.97942 0.39062 0.18909 0.0
C24 C 0.0081 0.37886 0.19974 0.0
N25 N 1.0065 0.35835 0.22935 0.0
N26 N 0.95001 0.3815 0.20942 0.0
H27 H 0.97596 0.33263 0.27296 0.0
C28 C 0.12618 0.43104 0.11332 0.0
O29 O 0.14323 0.42999 0.19076 0.0
O30 O 0.05454 0.31789 0.30242 0.0
H31 H 0.03179 0.38614 0.18584 0.0
H32 H 0.18724 0.32884 1.00618 0.0
H33 H 0.98048 0.40698 0.16598 0.0
Zn34 Zn 0.54411 0.62421 0.64168 0.0
C35 C 0.60842 0.66779 0.54714 0.0
N36 N 0.60469 0.65792 0.46529 0.0
C37 C 0.58734 0.64041 0.48812 0.0
N38 N 0.57992 0.63981 0.58005 0.0
N39 N 0.59401 0.65687 0.61677 0.0
C40 C 0.58537 0.69869 0.79903 0.0
O41 O 0.55834 0.69061 0.76327 0.0
O42 O 0.53805 0.59469 0.58817 0.0
Zn43 Zn 0.61264 0.65865 0.73949 0.0
N44 N 0.50382 0.64046 0.6231 0.0
C45 C 0.47802 0.67167 0.56437 0.0
C46 C 0.50599 0.65919 0.57597 0.0
C47 C 0.47451 0.63371 0.65946 0.0
N48 N 0.44891 0.66504 0.60099 0.0
C49 C 0.44608 0.64636 0.64841 0.0
O50 O 0.58935 0.6406 0.83363 0.0
C51 C 0.56681 0.62691 0.84771 0.0
O52 O 0.54876 0.61997 0.78208 0.0
H53 H 0.52925 0.66447 0.54755 0.0
H54 H 0.47373 0.619 0.69851 0.0
C55 C 0.6863 0.65725 0.74756 0.0
C56 C 0.71601 0.64551 0.7443 0.0
C57 C 0.68553 0.61447 0.70568 0.0
C58 C 0.65634 0.62598 0.70997 0.0
N59 N 0.65708 0.647 0.73144 0.0
N60 N 0.71447 0.62441 0.72356 0.0
H61 H 0.68633 0.67397 0.76521 0.0
C62 C 0.56161 0.58205 0.56902 0.0
O63 O 0.59219 0.58868 0.57761 0.0
O64 O 0.6123 0.68842 0.79179 0.0
H65 H 0.63298 0.61818 0.69744 0.0
H66 H 0.47944 0.6866 0.52713 0.0
H67 H 0.68522 0.59769 0.68924 0.0
Zn68 Zn 0.05713 0.66001 0.79885 0.0
C69 C 0.07782 0.63824 0.0515 0.0
N70 N 0.05981 0.65542 0.07482 0.0
C71 C 0.05653 0.6657 0.99381 0.0
N72 N 0.07174 0.65535 0.92416 0.0
N73 N 0.08609 0.63826 0.95993 0.0
C74 C 0.10208 0.58016 0.91214 0.0
O75 O 0.08072 0.5883 0.85353 0.0
O76 O 0.06391 0.69077 0.76263 0.0
Zn77 Zn 0.12218 0.62278 0.89929 0.0
N78 N 0.01191 0.64916 0.79356 0.0
C79 C 0.98495 0.61555 0.79296 0.0
C80 C 0.01358 0.62758 0.79236 0.0
C81 C 0.98208 0.65941 0.79577 0.0
N82 N 0.95545 0.62553 0.79593 0.0
C83 C 0.95273 0.64711 0.79768 0.0
O84 O 0.11945 0.62013 0.7574 0.0
C85 C 0.10324 0.62844 0.69094 0.0
O86 O 0.08152 0.64264 0.70477 0.0
H87 H 0.03729 0.61974 0.79229 0.0
H88 H 0.98126 0.67659 0.79861 0.0
C89 C 0.19248 0.63166 0.8892 0.0
C90 C 0.22092 0.64411 0.90434 0.0
C91 C 0.18869 0.66843 0.99247 0.0
C92 C 0.16065 0.65629 0.97607 0.0
N93 N 0.16298 0.63807 0.92549 0.0
N94 N 0.21796 0.66216 0.95597 0.0
H95 H 0.19336 0.61751 0.84656 0.0
C96 C 0.0571 0.69814 0.6825 0.0
O97 O 0.04105 0.68617 0.62304 0.0
O98 O 0.12363 0.59239 0.94775 0.0
H99 H 0.13718 0.66149 1.00343 0.0
H100 H 0.98609 0.59836 0.79211 0.0
H101 H 0.18716 0.68291 0.03284 0.0
Zn102 Zn 0.60702 0.35023 0.2715 0.0
C103 C 0.5811 0.36529 0.53071 0.0
N104 N 0.59468 0.34624 0.54903 0.0
C105 C 0.59954 0.33781 0.46448 0.0
N106 N 0.58969 0.3513 0.3971 0.0
N107 N 0.57717 0.3684 0.43812 0.0
C108 C 0.56026 0.42906 0.42352 0.0
O109 O 0.58653 0.42422 0.37412 0.0
O110 O 0.60865 0.3206 0.21615 0.0
Zn111 Zn 0.54175 0.38542 0.38213 0.0
N112 N 0.65043 0.36363 0.2747 0.0
C113 C 0.67623 0.39748 0.2854 0.0
C114 C 0.64794 0.38513 0.27906 0.0
C115 C 0.68054 0.35378 0.27653 0.0
N116 N 0.70607 0.38784 0.28762 0.0
C117 C 0.7095 0.3663 0.28349 0.0
O118 O 0.54416 0.38988 0.24096 0.0
C119 C 0.55881 0.38152 0.17156 0.0
O120 O 0.58044 0.3671 0.18077 0.0
H121 H 0.62392 0.39259 0.27849 0.0
H122 H 0.68175 0.33661 0.27473 0.0
C123 C 0.47087 0.37777 0.37488 0.0
C124 C 0.44191 0.36582 0.39095 0.0
C125 C 0.47355 0.34013 0.47258 0.0
C126 C 0.50206 0.35172 0.45496 0.0
N127 N 0.50037 0.37039 0.40716 0.0
N128 N 0.44436 0.34734 0.43987 0.0
H129 H 0.47029 0.39234 0.3348 0.0
C130 C 0.58175 0.31313 0.18425 0.0
O131 O 0.55437 0.32405 0.19455 0.0
O132 O 0.5387 0.41476 0.43921 0.0
H133 H 0.52533 0.34556 0.47847 0.0
H134 H 0.67454 0.41462 0.28911 0.0
H135 H 0.47465 0.3253 0.5107 0.0
Zn136 Zn 0.61223 0.8841 0.1623 0.0
C137 C 0.55348 0.83816 0.06949 0.0
N138 N 0.55427 0.84882 0.98866 0.0
C139 C 0.56829 0.8675 1.0116 0.0
N140 N 0.57637 0.8682 0.10303 0.0
N141 N 0.56575 0.85004 0.13922 0.0
C142 C 0.58531 0.81354 0.34209 0.0
O143 O 0.60736 0.82862 0.32984 0.0
O144 O 0.61788 0.91352 0.1072 0.0
Zn145 Zn 0.54851 0.84672 0.26404 0.0
N146 N 0.6525 0.8678 0.14094 0.0
C147 C 0.6779 0.83743 0.07278 0.0
C148 C 0.65017 0.8499 0.08823 0.0
C149 C 0.68188 0.87376 0.17894 0.0
N150 N 0.70704 0.84328 0.11075 0.0
C151 C 0.71013 0.86113 0.16356 0.0
O152 O 0.56944 0.86638 0.35588 0.0
C153 C 0.59028 0.88113 0.36932 0.0
O154 O 0.60774 0.88872 0.30323 0.0
H155 H 0.62702 0.84524 0.05786 0.0
H156 H 0.68286 0.88784 0.22197 0.0
C157 C 0.47408 0.845 0.27331 0.0
C158 C 0.44372 0.85607 0.27198 0.0
C159 C 0.47244 0.88826 0.2409 0.0
C160 C 0.50223 0.87742 0.24305 0.0
N161 N 0.50272 0.85616 0.25997 0.0
N162 N 0.44408 0.87741 0.25596 0.0
H163 H 0.47494 0.82809 0.28699 0.0
C164 C 0.59419 0.92612 0.08937 0.0
O165 O 0.56368 0.91953 0.10096 0.0
O166 O 0.55574 0.81694 0.31592 0.0
H167 H 0.52512 0.88595 0.23223 0.0
H168 H 0.67631 0.82316 0.0311 0.0
H169 H 0.47183 0.9052 0.22811 0.0
Zn170 Zn 0.03645 0.12051 0.63406 0.0
C171 C 0.09617 0.16608 0.539 0.0
N172 N 0.09213 0.15631 0.45691 0.0
C173 C 0.07768 0.13783 0.48048 0.0
N174 N 0.07195 0.13652 0.57309 0.0
N175 N 0.08469 0.15404 0.60967 0.0
C176 C 0.0818 0.19627 0.78732 0.0
O177 O 0.0552 0.19007 0.74293 0.0
O178 O 0.03085 0.0911 0.57832 0.0
Zn179 Zn 0.10523 0.15495 0.73053 0.0
N180 N 0.99594 0.13666 0.61531 0.0
C181 C 0.97024 0.16778 0.55522 0.0
C182 C 0.99819 0.15537 0.56809 0.0
C183 C 0.9665 0.12989 0.65092 0.0
N184 N 0.94105 0.16115 0.59105 0.0
C185 C 0.93809 0.14253 0.63887 0.0
O186 O 0.08183 0.13703 0.82505 0.0
C187 C 0.05937 0.12331 0.83977 0.0
O188 O 0.04125 0.11623 0.77451 0.0
H189 H 0.02147 0.16076 0.54048 0.0
H190 H 0.96559 0.11521 0.69012 0.0
C191 C 0.17878 0.15112 0.73359 0.0
C192 C 0.20745 0.13845 0.72598 0.0
C193 C 0.17417 0.10893 0.68318 0.0
C194 C 0.14603 0.12134 0.69188 0.0
N195 N 0.14865 0.14206 0.71724 0.0
N196 N 0.20402 0.11769 0.70098 0.0
H197 H 0.18028 0.1676 0.75473 0.0
C198 C 0.0541 0.07752 0.57647 0.0
O199 O 0.08347 0.08312 0.60603 0.0
O200 O 0.10723 0.18442 0.78647 0.0
H201 H 0.12197 0.11447 0.6798 0.0
H202 H 0.97175 0.18268 0.51772 0.0
H203 H 0.17234 0.09238 0.66347 0.0
Zn204 Zn 0.5479 0.15657 0.7721 0.0
C205 C 0.57295 0.14183 0.03193 0.0
N206 N 0.55914 0.16085 0.04984 0.0
C207 C 0.55446 0.16924 0.96513 0.0
N208 N 0.56462 0.15574 0.89803 0.0
N209 N 0.57716 0.13871 0.93938 0.0
C210 C 0.59491 0.07836 0.92862 0.0
O211 O 0.5683 0.08302 0.88086 0.0
O212 O 0.54525 0.18619 0.71675 0.0
Zn213 Zn 0.61287 0.1219 0.88331 0.0
N214 N 0.50537 0.1421 0.77416 0.0
C215 C 0.48199 0.10751 0.78409 0.0
C216 C 0.50938 0.12071 0.77932 0.0
C217 C 0.47459 0.15103 0.77381 0.0
N218 N 0.45148 0.11624 0.78395 0.0
C219 C 0.44651 0.13764 0.77908 0.0
O220 O 0.61094 0.11715 0.7422 0.0
C221 C 0.59699 0.12581 0.67255 0.0
O222 O 0.57546 0.14029 0.68154 0.0
H223 H 0.53391 0.11398 0.78041 0.0
H224 H 0.47219 0.16815 0.77141 0.0
C225 C 0.68322 0.13039 0.87196 0.0
C226 C 0.712 0.14256 0.88646 0.0
C227 C 0.68034 0.1677 0.97162 0.0
C228 C 0.65199 0.15587 0.95564 0.0
N229 N 0.65381 0.13736 0.90686 0.0
N230 N 0.70947 0.16088 0.93641 0.0
H231 H 0.68383 0.11596 0.83107 0.0
C232 C 0.57212 0.19388 0.68501 0.0
O233 O 0.59966 0.18317 0.69555 0.0
O234 O 0.61652 0.09272 0.9418 0.0
H235 H 0.62874 0.16173 0.9811 0.0
H236 H 0.48489 0.09044 0.78832 0.0
H237 H 0.67915 0.18241 1.01046 0.0
Zn238 Zn 0.10414 0.8463 0.2741 0.0
C239 C 0.08173 0.86763 0.52553 0.0
N240 N 0.10028 0.85089 0.55036 0.0
C241 C 0.10345 0.83992 0.47104 0.0
N242 N 0.08789 0.84966 0.40006 0.0
N243 N 0.0734 0.8669 0.43433 0.0
C244 C 0.05354 0.9242 0.43614 0.0
O245 O 0.08376 0.91807 0.41655 0.0
O246 O 0.09874 0.81617 0.22522 0.0
Zn247 Zn 0.03677 0.88149 0.37335 0.0
N248 N 0.14938 0.85687 0.276 0.0
C249 C 0.17816 0.88974 0.28706 0.0
C250 C 0.1489 0.87846 0.27901 0.0
C251 C 0.17847 0.84588 0.28092 0.0
N252 N 0.20696 0.87898 0.29289 0.0
C253 C 0.20835 0.85735 0.29029 0.0
O254 O 0.04087 0.88561 0.23262 0.0
C255 C 0.0588 0.87859 0.16653 0.0
O256 O 0.08117 0.8648 0.18019 0.0
H257 H 0.12565 0.88687 0.27686 0.0
H258 H 0.17826 0.82867 0.28054 0.0
C259 C 0.96725 0.8713 0.36742 0.0
C260 C 0.93944 0.85819 0.38144 0.0
C261 C 0.97394 0.83216 0.45116 0.0
C262 C 1.00129 0.8451 0.43664 0.0
N263 N 0.99751 0.86441 0.39527 0.0
N264 N 0.94385 0.83893 0.42306 0.0
H265 H 0.96521 0.88651 0.33271 0.0
C266 C 0.06905 0.81153 0.20449 0.0
O267 O 0.0458 0.8255 0.22246 0.0
O268 O 0.02994 0.91103 0.42661 0.0
H269 H 0.02532 0.83967 0.45817 0.0
H270 H 0.17801 0.90692 0.28983 0.0
H271 H 0.97659 0.81676 0.48394 0.0
H272 H 0.39371 0.3388 0.33688 0.0
H273 H 0.41551 0.40612 0.3603 0.0
H274 H 0.35915 0.41451 0.30419 0.0
H275 H 0.34633 0.34203 0.1284 0.0
H276 H 0.31812 0.32141 0.16442 0.0
H277 H 0.35994 0.32131 0.20608 0.0
H278 H 0.33837 0.32067 0.37623 0.0
H279 H 0.29647 0.32095 0.33511 0.0
H280 H 0.31034 0.34109 0.41507 0.0
H281 H 0.29827 0.41486 0.2474 0.0
H282 H 0.24232 0.40711 0.18595 0.0
H283 H 0.26311 0.33957 0.20249 0.0
C284 C 0.38677 0.35536 0.33054 0.0
C285 C 0.40911 0.37178 0.35302 0.0
C286 C 0.39901 0.39323 0.34247 0.0
C287 C 0.36693 0.39813 0.31136 0.0
C288 C 0.34541 0.38142 0.29082 0.0
C289 C 0.35523 0.36047 0.29943 0.0
C290 C 0.32821 0.34524 0.27183 0.0
C291 C 0.33878 0.33171 0.18768 0.0
C292 C 0.31773 0.33117 0.3545 0.0
C293 C 0.30141 0.36079 0.24619 0.0
C294 C 0.31142 0.38162 0.25795 0.0
C295 C 0.2903 0.39857 0.23807 0.0
C296 C 0.25847 0.39404 0.20389 0.0
C297 C 0.24831 0.37272 0.18945 0.0
C298 C 0.27013 0.35605 0.2121 0.0
H299 H 0.26827 0.67224 0.85196 0.0
H300 H 0.24804 0.60452 0.86448 0.0
H301 H 0.30384 0.59724 0.80134 0.0
H302 H 0.31422 0.67157 0.63831 0.0
H303 H 0.34253 0.69191 0.6759 0.0
H304 H 0.30102 0.69139 0.72092 0.0
H305 H 0.3238 0.69033 0.88927 0.0
H306 H 0.36538 0.69074 0.84477 0.0
H307 H 0.35237 0.66969 0.92186 0.0
H308 H 0.36359 0.59781 0.73955 0.0
H309 H 0.41927 0.6062 0.67819 0.0
H310 H 0.39857 0.67355 0.70838 0.0
C311 C 0.27545 0.65583 0.84161 0.0
C312 C 0.25363 0.63899 0.86295 0.0
C313 C 0.26405 0.61776 0.84744 0.0
C314 C 0.29583 0.61346 0.81224 0.0
C315 C 0.31677 0.63054 0.79262 0.0
C316 C 0.30677 0.6513 0.80632 0.0
C317 C 0.33346 0.66696 0.77946 0.0
C318 C 0.32213 0.68129 0.69885 0.0
C319 C 0.34439 0.6802 0.86388 0.0
C320 C 0.36026 0.65183 0.74867 0.0
C321 C 0.35042 0.63087 0.75699 0.0
C322 C 0.37148 0.61418 0.73292 0.0
C323 C 0.4032 0.61911 0.6988 0.0
C324 C 0.41347 0.64057 0.68883 0.0
C325 C 0.39153 0.65699 0.71456 0.0
H326 H 0.76257 0.6283 0.85456 0.0
H327 H 0.74449 0.68238 0.67543 0.0
H328 H 0.80367 0.69255 0.68687 0.0
H329 H 0.82714 0.65383 1.00369 0.0
H330 H 0.84969 0.62921 1.01155 0.0
H331 H 0.80539 0.62882 1.00101 0.0
H332 H 0.81048 0.60456 0.85594 0.0
H333 H 0.85462 0.60496 0.86563 0.0
H334 H 0.83534 0.61319 0.75865 0.0
H335 H 0.86783 0.6928 0.69931 0.0
H336 H 0.9272 0.68349 0.71348 0.0
H337 H 0.90074 0.62994 0.88856 0.0
C338 C 0.77084 0.64269 0.82013 0.0
C339 C 0.74896 0.65468 0.76493 0.0
C340 C 0.76075 0.67321 0.7196 0.0
C341 C 0.79437 0.67901 0.72547 0.0
C342 C 0.81564 0.66633 0.77828 0.0
C343 C 0.80396 0.64874 0.82611 0.0
C344 C 0.83162 0.63652 0.87178 0.0
C345 C 0.82826 0.63714 0.97833 0.0
C346 C 0.83309 0.61346 0.83579 0.0
C347 C 0.86102 0.64933 0.83916 0.0
C348 C 0.85165 0.66665 0.78623 0.0
C349 C 0.87526 0.67954 0.74242 0.0
C350 C 0.90901 0.67423 0.7512 0.0
C351 C 0.91872 0.65606 0.80268 0.0
C352 C 0.89425 0.64402 0.84915 0.0
H353 H 0.90148 0.38117 0.3412 0.0
H354 H 0.91721 0.3238 0.18117 0.0
H355 H 0.85716 0.31582 0.19069 0.0
H356 H 0.83278 0.36052 0.49183 0.0
H357 H 0.81236 0.38596 0.48935 0.0
H358 H 0.85673 0.38461 0.48306 0.0
H359 H 0.85561 0.40652 0.3302 0.0
H360 H 0.81138 0.40772 0.33525 0.0
H361 H 0.83151 0.39707 0.23344 0.0
H362 H 0.79305 0.31781 0.1981 0.0
H363 H 0.73434 0.3287 0.20691 0.0
H364 H 0.76285 0.38447 0.36481 0.0
C365 C 0.89245 0.36651 0.31093 0.0
C366 C 0.91397 0.35295 0.26151 0.0
C367 C 0.90123 0.33415 0.22114 0.0
C368 C 0.8671 0.3296 0.22579 0.0
C369 C 0.84627 0.34386 0.27223 0.0
C370 C 0.8588 0.36176 0.3155 0.0
C371 C 0.83162 0.37566 0.35424 0.0
C372 C 0.83349 0.37674 0.46096 0.0
C373 C 0.8326 0.39805 0.31063 0.0
C374 C 0.80161 0.36336 0.32301 0.0
C375 C 0.81023 0.34492 0.27674 0.0
C376 C 0.78617 0.332 0.23599 0.0
C377 C 0.75274 0.33827 0.24168 0.0
C378 C 0.74368 0.35743 0.28715 0.0
C379 C 0.76867 0.36971 0.32969 0.0
H380 H 0.75802 0.83285 0.20825 0.0
H381 H 0.73725 0.90056 0.2072 0.0
H382 H 0.79375 0.90763 0.26428 0.0
H383 H 0.80795 0.83203 0.41472 0.0
H384 H 0.83563 0.81221 0.36875 0.0
H385 H 0.79328 0.81283 0.33147 0.0
H386 H 0.81261 0.81543 0.15959 0.0
H387 H 0.85501 0.81495 0.19633 0.0
H388 H 0.84023 0.83654 0.12523 0.0
H389 H 0.85445 0.90692 0.31651 0.0
H390 H 0.91146 0.8984 0.36508 0.0
H391 H 0.89081 0.83121 0.32782 0.0
C392 C 0.76516 0.84922 0.22024 0.0
C393 C 0.74299 0.8661 0.20371 0.0
C394 C 0.75346 0.88726 0.22084 0.0
C395 C 0.78566 0.89146 0.25258 0.0
C396 C 0.80696 0.87434 0.26698 0.0
C397 C 0.79692 0.85364 0.25179 0.0
C398 C 0.82424 0.83795 0.27118 0.0
C399 C 0.8147 0.82287 0.35131 0.0
C400 C 0.83356 0.82549 0.18282 0.0
C401 C 0.85144 0.85299 0.29946 0.0
C402 C 0.84124 0.87394 0.2965 0.0
C403 C 0.86262 0.89055 0.31898 0.0
C404 C 0.89509 0.88556 0.34575 0.0
C405 C 0.9058 0.86411 0.34982 0.0
C406 C 0.88347 0.84776 0.3261 0.0
H407 H 0.89075 0.17002 0.69589 0.0
H408 H 0.91085 0.1025 0.67063 0.0
H409 H 0.85472 0.09456 0.73023 0.0
H410 H 0.8436 0.16716 0.90697 0.0
H411 H 0.81565 0.18791 0.87172 0.0
H412 H 0.85743 0.18779 0.82879 0.0
H413 H 0.83571 0.18849 0.65925 0.0
H414 H 0.79387 0.18849 0.70164 0.0
H415 H 0.80729 0.16824 0.62139 0.0
H416 H 0.7944 0.09457 0.78968 0.0
H417 H 0.73839 0.10253 0.8501 0.0
H418 H 0.75995 0.17003 0.83292 0.0
C419 C 0.8835 0.15351 0.70277 0.0
C420 C 0.90535 0.13691 0.67885 0.0
C421 C 0.89481 0.11554 0.6898 0.0
C422 C 0.86284 0.11087 0.72292 0.0
C423 C 0.84185 0.12775 0.74498 0.0
C424 C 0.85201 0.14862 0.73577 0.0
C425 C 0.82526 0.16402 0.76412 0.0
C426 C 0.83614 0.17751 0.84788 0.0
C427 C 0.81493 0.17813 0.68168 0.0
C428 C 0.79824 0.14863 0.79066 0.0
C429 C 0.80797 0.12775 0.77898 0.0
C430 C 0.78662 0.11089 0.79898 0.0
C431 C 0.75473 0.11557 0.8326 0.0
C432 C 0.74465 0.13694 0.84611 0.0
C433 C 0.76685 0.15352 0.82417 0.0
H434 H 0.25478 0.11742 0.82025 0.0
H435 H 0.23703 0.17636 0.6727 0.0
H436 H 0.2967 0.18523 0.68401 0.0
H437 H 0.3207 0.13768 0.9764 0.0
H438 H 0.34271 0.11283 0.97018 0.0
H439 H 0.29837 0.11313 0.96119 0.0
H440 H 0.30235 0.09308 0.80403 0.0
H441 H 0.34657 0.09287 0.81203 0.0
H442 H 0.32695 0.10417 0.71108 0.0
H443 H 0.36084 0.18456 0.69388 0.0
H444 H 0.42006 0.1752 0.70582 0.0
H445 H 0.39327 0.11714 0.85116 0.0
C446 C 0.26327 0.13248 0.79236 0.0
C447 C 0.24128 0.14627 0.74617 0.0
C448 C 0.25337 0.16573 0.7098 0.0
C449 C 0.28726 0.17081 0.71555 0.0
C450 C 0.30852 0.15641 0.75919 0.0
C451 C 0.29666 0.1378 0.79828 0.0
C452 C 0.32423 0.12417 0.83603 0.0
C453 C 0.32133 0.12182 0.94226 0.0
C454 C 0.32506 0.1023 0.78788 0.0
C455 C 0.35377 0.13754 0.80931 0.0
C456 C 0.34452 0.1562 0.76579 0.0
C457 C 0.36819 0.17017 0.72959 0.0
C458 C 0.40191 0.16476 0.73709 0.0
C459 C 0.41166 0.14544 0.78007 0.0
C460 C 0.38697 0.13205 0.81795 0.0
H461 H 0.39677 0.86999 0.38957 0.0
H462 H 0.41639 0.821 0.18581 0.0
H463 H 0.35694 0.8112 0.18668 0.0
H464 H 0.32742 0.84187 0.51696 0.0
H465 H 0.30596 0.86669 0.53294 0.0
H466 H 0.35043 0.8662 0.5304 0.0
H467 H 0.35024 0.89421 0.39795 0.0
H468 H 0.30599 0.89464 0.39931 0.0
H469 H 0.32768 0.88876 0.29271 0.0
H470 H 0.29302 0.81183 0.18976 0.0
H471 H 0.23401 0.82246 0.1963 0.0
H472 H 0.25819 0.87079 0.39938 0.0
C473 C 0.38875 0.85659 0.34806 0.0
C474 C 0.41114 0.84601 0.2888 0.0
C475 C 0.39972 0.82894 0.23346 0.0
C476 C 0.36595 0.82339 0.23325 0.0
C477 C 0.34414 0.83486 0.28984 0.0
C478 C 0.35542 0.85088 0.34752 0.0
C479 C 0.32726 0.86256 0.39397 0.0
C480 C 0.3278 0.85911 0.49986 0.0
C481 C 0.32784 0.88643 0.36943 0.0
C482 C 0.29815 0.85142 0.35022 0.0
C483 C 0.30805 0.83522 0.2915 0.0
C484 C 0.2851 0.82416 0.23731 0.0
C485 C 0.25156 0.83021 0.24169 0.0
C486 C 0.24145 0.84735 0.29894 0.0
C487 C 0.26508 0.8575 0.35557 0.0
H488 H 0.13605 0.55766 0.04709 0.0
H489 H 0.0677 0.55 0.81744 0.0
H490 H 0.06777 0.51127 0.8417 0.0
H491 H 0.18382 0.51021 1.00441 0.0
H492 H 0.18875 0.50379 0.12584 0.0
H493 H 0.18391 0.53108 0.09031 0.0
H494 H 0.13393 0.53508 0.20181 0.0
H495 H 0.13872 0.50783 0.23801 0.0
H496 H 0.09976 0.51685 0.19258 0.0
H497 H 0.07564 0.47339 0.88782 0.0
H498 H 0.08824 0.43876 0.95985 0.0
H499 H 0.15023 0.47045 0.16315 0.0
C500 C 0.12115 0.54782 1.00193 0.0
C501 C 0.10195 0.55692 0.93013 0.0
C502 C 0.08258 0.54347 0.87302 0.0
C503 C 0.08251 0.5214 0.88598 0.0
C504 C 0.10176 0.51292 0.95684 0.0
C505 C 0.12053 0.52566 1.01447 0.0
C506 C 0.13831 0.51237 0.08687 0.0
C507 C 0.17593 0.51449 0.07618 0.0
C508 C 0.127 0.51839 0.18567 0.0
C509 C 0.12663 0.49024 0.06056 0.0
C510 C 0.10574 0.49095 0.98494 0.0
C511 C 0.09188 0.47261 0.94732 0.0
C512 C 0.09924 0.45299 0.98873 0.0
C513 C 0.12014 0.45183 0.06745 0.0
C514 C 0.13414 0.47076 0.10319 0.0
H515 H 0.60403 0.46252 0.4198 0.0
H516 H 0.50344 0.44595 0.49572 0.0
H517 H 0.49258 0.48339 0.53682 0.0
H518 H 0.61632 0.50075 0.60498 0.0
H519 H 0.64088 0.51838 0.53398 0.0
H520 H 0.64067 0.49026 0.5104 0.0
H521 H 0.62305 0.49786 0.34043 0.0
H522 H 0.62291 0.52599 0.36373 0.0
H523 H 0.58641 0.5133 0.3188 0.0
H524 H 0.49186 0.52289 0.56329 0.0
H525 H 0.50283 0.56104 0.58813 0.0
H526 H 0.60451 0.55187 0.50096 0.0
C527 C 0.57975 0.46673 0.44544 0.0
C528 C 0.55454 0.45127 0.45415 0.0
C529 C 0.52317 0.45746 0.48851 0.0
C530 C 0.5167 0.47873 0.51167 0.0
C531 C 0.54193 0.49361 0.50094 0.0
C532 C 0.57295 0.48787 0.46978 0.0
C533 C 0.5959 0.50692 0.46641 0.0
C534 C 0.62517 0.50389 0.53292 0.0
C535 C 0.60776 0.51127 0.36639 0.0
C536 C 0.57289 0.52429 0.50026 0.0
C537 C 0.54179 0.51629 0.51889 0.0
C538 C 0.51617 0.5293 0.54949 0.0
C539 C 0.52263 0.551 0.56298 0.0
C540 C 0.55457 0.55947 0.54686 0.0
C541 C 0.57989 0.54588 0.51433 0.0
H542 H 0.55102 0.04498 0.93175 0.0
H543 H 0.65223 0.06171 0.99756 0.0
H544 H 0.66328 0.02446 0.0416 0.0
H545 H 0.54004 0.00772 0.1218 0.0
H546 H 0.51486 0.98978 0.05477 0.0
H547 H 0.51499 0.01778 0.02817 0.0
H548 H 0.53124 0.0093 0.85765 0.0
H549 H 0.53144 0.98129 0.88392 0.0
H550 H 0.56763 0.99367 0.83465 0.0
H551 H 0.66405 0.98512 0.07212 0.0
H552 H 0.65313 0.94711 0.10174 0.0
H553 H 0.55083 0.95606 0.02217 0.0
C554 C 0.57548 0.04084 0.95575 0.0
C555 C 0.60081 0.05629 0.96081 0.0
C556 C 0.63241 0.0502 0.99316 0.0
C557 C 0.63898 0.02905 0.01798 0.0
C558 C 0.61361 0.01417 1.0109 0.0
C559 C 0.58238 0.01982 0.98172 0.0
C560 C 0.55934 1.0008 0.98228 0.0
C561 C 0.53061 0.00423 0.05086 0.0
C562 C 0.54667 0.99599 0.88376 0.0
C563 C 0.58253 0.98357 1.01605 0.0
C564 C 0.6138 0.99159 0.03124 0.0
C565 C 0.6396 0.97869 0.06104 0.0
C566 C 0.63317 0.95708 0.07728 0.0
C567 C 0.60109 0.94859 0.06468 0.0
C568 C 0.57557 0.96207 0.03292 0.0
H569 H 0.09831 0.95551 0.47961 0.0
H570 H 0.99337 0.94392 0.44723 0.0
H571 H 0.98222 0.98191 0.4767 0.0
H572 H 0.09028 0.99401 0.66675 0.0
H573 H 0.12423 0.01005 0.62582 0.0
H574 H 0.12378 0.98189 0.60333 0.0
H575 H 0.13015 0.98932 0.42676 0.0
H576 H 0.13031 0.01751 0.44861 0.0
H577 H 0.10073 0.00628 0.36921 0.0
H578 H 0.98267 0.02157 0.50289 0.0
H579 H 0.99427 0.05932 0.53689 0.0
H580 H 0.09878 0.04492 0.55639 0.0
C581 C 0.07296 0.96092 0.47921 0.0
C582 C 0.04672 0.9467 0.46075 0.0
C583 C 0.0139 0.95445 0.46133 0.0
C584 C 0.00731 0.97605 0.47766 0.0
C585 C 0.03377 0.98969 0.49411 0.0
C586 C 0.06591 0.98239 0.49615 0.0
C587 C 0.08984 1.00032 0.51659 0.0
C588 C 0.1081 0.99633 0.6086 0.0
C589 C 0.11419 0.00354 0.43544 0.0
C590 C 0.06617 0.01888 0.52486 0.0
C591 C 0.03396 0.01243 0.51118 0.0
C592 C 0.00779 0.02678 0.51427 0.0
C593 C 0.01466 0.04822 0.53329 0.0
C594 C 0.04743 0.05514 0.5496 0.0
C595 C 0.07345 0.04019 0.54449 0.0
H596 H 0.02233 0.31175 0.93971 0.0
H597 H 0.09681 0.30972 0.15476 0.0
H598 H 0.10722 0.27196 0.11961 0.0
H599 H 0.99337 0.25462 0.96199 0.0
H600 H 0.98862 0.25246 0.83768 0.0
H601 H 0.98192 0.27763 0.89455 0.0
H602 H 0.0248 0.29495 0.78377 0.0
H603 H 0.0324 0.26979 0.72843 0.0
H604 H 0.06612 0.2844 0.77893 0.0
H605 H 0.11758 0.23706 0.0393 0.0
H606 H 0.12122 0.20579 0.93577 0.0
H607 H 0.04019 0.23042 0.7714 0.0
C608 C 0.0396 0.30301 0.98248 0.0
C609 C 0.05787 0.31346 0.05248 0.0
C610 C 0.08134 0.3018 0.10434 0.0
C611 C 0.08786 0.2804 0.08346 0.0
C612 C 0.0707 0.27092 1.01044 0.0
C613 C 0.0465 0.28171 0.96202 0.0
C614 C 0.03387 0.26864 0.88092 0.0
C615 C 0.99727 0.263 0.89464 0.0
C616 C 0.03965 0.28014 0.78756 0.0
C617 C 0.05553 0.24913 0.88922 0.0
C618 C 0.0766 0.25074 0.96435 0.0
C619 C 0.10068 0.23543 0.98162 0.0
C620 C 0.10279 0.21783 0.92183 0.0
C621 C 0.08084 0.21561 0.84596 0.0
C622 C 0.05698 0.23153 0.82966 0.0
H623 H 0.5618 0.69789 0.56093 0.0
H624 H 0.66684 0.68883 0.52498 0.0
H625 H 0.67297 0.72691 0.48292 0.0
H626 H 0.55157 0.72734 0.36514 0.0
H627 H 0.52017 0.74492 0.40964 0.0
H628 H 0.52485 0.71878 0.45856 0.0
H629 H 0.53221 0.7348 0.62241 0.0
H630 H 0.52728 0.76118 0.57536 0.0
H631 H 0.56354 0.75464 0.64186 0.0
H632 H 0.66623 0.76438 0.42508 0.0
H633 H 0.64799 0.79841 0.35745 0.0
H634 H 0.54614 0.78211 0.41899 0.0
C635 C 0.58628 0.70426 0.54896 0.0
C636 C 0.61412 0.69082 0.54967 0.0
C637 C 0.64554 0.69919 0.52796 0.0
C638 C 0.64911 0.72072 0.50346 0.0
C639 C 0.62087 0.73342 0.49955 0.0
C640 C 0.59005 0.72551 0.52223 0.0
C641 C 0.56312 0.74149 0.50071 0.0
C642 C 0.53849 0.73259 0.42927 0.0
C643 C 0.5455 0.74845 0.59043 0.0
C644 C 0.58343 0.75945 0.45975 0.0
C645 C 0.61672 0.75461 0.46133 0.0
C646 C 0.64028 0.76842 0.4246 0.0
C647 C 0.62962 0.7877 0.38603 0.0
C648 C 0.59562 0.79294 0.38294 0.0
C649 C 0.57228 0.77855 0.42025 0.0
H650 H 0.11044 0.78171 0.12515 0.0
H651 H 0.00743 0.79471 0.18571 0.0
H652 H 0.99181 0.76031 0.1168 0.0
H653 H 0.09581 0.75405 0.90098 0.0
H654 H 0.12842 0.73517 0.9213 0.0
H655 H 0.13128 0.76162 0.96875 0.0
H656 H 0.13894 0.74574 0.13422 0.0
H657 H 0.13624 0.71935 0.08676 0.0
H658 H 0.10865 0.72734 0.17897 0.0
H659 H 0.9879 0.72276 0.05882 0.0
H660 H 0.99678 0.68495 0.01659 0.0
H661 H 0.10112 0.69723 0.98132 0.0
C662 C 0.08458 0.77741 0.12294 0.0
C663 C 0.06019 0.79095 0.16082 0.0
C664 C 0.0266 0.7847 0.15675 0.0
C665 C 0.01742 0.76518 0.11747 0.0
C666 C 0.04201 0.75219 0.0807 0.0
C667 C 0.0749 0.75809 0.08243 0.0
C668 C 0.09658 0.74074 0.04216 0.0
C669 C 0.11405 0.74836 0.953 0.0
C670 C 0.12156 0.73282 0.11486 0.0
C671 C 0.07089 0.72393 0.02051 0.0
C672 C 0.03949 0.73088 0.04272 0.0
C673 C 0.01221 0.71732 0.03857 0.0
C674 C 0.01734 0.69595 1.01398 0.0
C675 C 0.04933 0.68857 0.99235 0.0
C676 C 0.07621 0.70285 0.9933 0.0
H677 H 0.61874 0.22499 0.69479 0.0
H678 H 0.52691 0.20832 0.55963 0.0
H679 H 0.52998 0.24137 0.46584 0.0
H680 H 0.59925 0.27969 0.71853 0.0
H681 H 0.64115 0.28861 0.70237 0.0
H682 H 0.63317 0.26261 0.74952 0.0
H683 H 0.66925 0.24612 0.61869 0.0
H684 H 0.67663 0.27211 0.56988 0.0
H685 H 0.65932 0.25137 0.49866 0.0
H686 H 0.54141 0.27697 0.39413 0.0
H687 H 0.55476 0.31474 0.36961 0.0
H688 H 0.63868 0.30902 0.55291 0.0
C689 C 0.59947 0.22827 0.64475 0.0
C690 C 0.57272 0.21415 0.63347 0.0
C691 C 0.54752 0.21906 0.56916 0.0
C692 C 0.54929 0.23764 0.515 0.0
C693 C 0.5762 0.25121 0.52713 0.0
C694 C 0.60048 0.24697 0.59184 0.0
C695 C 0.62469 0.26525 0.59916 0.0
C696 C 0.62454 0.27459 0.69821 0.0
C697 C 0.65954 0.25829 0.56983 0.0
C698 C 0.61007 0.2806 0.52918 0.0
C699 C 0.58255 0.27197 0.48681 0.0
C700 C 0.56338 0.28369 0.425 0.0
C701 C 0.57163 0.30506 0.40949 0.0
C702 C 0.5989 0.31448 0.45482 0.0
C703 C 0.61871 0.30192 0.51385 0.0
H704 H 0.53727 0.72951 0.79918 0.0
H705 H 0.62951 0.71169 0.93028 0.0
H706 H 0.62553 0.74294 0.03324 0.0
H707 H 0.55373 0.78418 0.79179 0.0
H708 H 0.51221 0.79291 0.81595 0.0
H709 H 0.51901 0.76777 0.76012 0.0
H710 H 0.48599 0.74821 0.88696 0.0
H711 H 0.47804 0.77321 0.94405 0.0
H712 H 0.49681 0.75168 1.00756 0.0
H713 H 0.61355 0.77679 0.11573 0.0
H714 H 0.59933 0.8137 0.154 0.0
H715 H 0.5152 0.81064 0.96978 0.0
C716 C 0.55651 0.73214 0.84995 0.0
C717 C 0.58364 0.71811 0.85697 0.0
C718 C 0.60855 0.72224 0.92343 0.0
C719 C 0.60631 0.73982 0.98297 0.0
C720 C 0.57912 0.75323 0.97495 0.0
C721 C 0.55491 0.74983 0.90914 0.0
C722 C 0.52995 0.7678 0.90921 0.0
C723 C 0.52871 0.77883 0.81362 0.0
C724 C 0.49566 0.75974 0.93872 0.0
C725 C 0.54459 0.78218 0.98303 0.0
C726 C 0.57238 0.77312 0.02198 0.0
C727 C 0.5914 0.78384 0.08737 0.0
C728 C 0.5827 0.80473 0.11044 0.0
C729 C 0.55523 0.81472 0.06847 0.0
C730 C 0.53554 0.80308 1.00556 0.0
H731 H 0.04141 0.27863 0.35243 0.0
H732 H 0.13505 0.30338 0.45018 0.0
H733 H 0.14664 0.26922 0.52749 0.0
H734 H 0.02328 0.24565 0.56089 0.0
H735 H 1.00533 0.22466 0.49239 0.0
H736 H 1.00275 0.25184 0.45311 0.0
H737 H 0.03022 0.24128 0.29635 0.0
H738 H 0.03266 0.21414 0.33507 0.0
H739 H 0.06947 0.22782 0.29745 0.0
H740 H 0.15035 0.23093 0.58357 0.0
H741 H 0.14593 0.19175 0.60588 0.0
H742 H 0.05024 0.1926 0.4731 0.0
C743 C 0.06411 0.27698 0.39124 0.0
C744 C 0.08723 0.29376 0.39519 0.0
C745 C 0.11686 0.29081 0.44596 0.0
C746 C 0.12365 0.27146 0.49072 0.0
C747 C 0.1005 0.25516 0.48489 0.0
C748 C 0.07127 0.25776 0.43656 0.0
C749 C 0.0515 0.23736 0.43551 0.0
C750 C 0.01877 0.24005 0.48865 0.0
C751 C 0.04564 0.2297 0.33516 0.0
C752 C 0.0747 0.22272 0.48746 0.0
C753 C 0.10262 0.23328 0.51709 0.0
C754 C 0.12834 0.22257 0.56193 0.0
C755 C 0.12569 0.20041 0.57465 0.0
C756 C 0.09761 0.18943 0.54231 0.0
C757 C 0.0717 0.20081 0.49992 0.0
H758 H 0.53485 0.28213 0.19415 0.0
H759 H 0.62703 0.29868 0.05852 0.0
H760 H 0.62404 0.26565 0.96496 0.0
H761 H 0.55417 0.22743 0.21835 0.0
H762 H 0.5123 0.21851 0.20243 0.0
H763 H 0.52019 0.24452 0.2492 0.0
H764 H 0.48442 0.26101 0.11825 0.0
H765 H 0.47712 0.235 0.06984 0.0
H766 H 0.49461 0.25573 0.99826 0.0
H767 H 0.61275 0.23007 0.89386 0.0
H768 H 0.59949 0.1923 0.87 0.0
H769 H 0.51511 0.19806 0.05327 0.0
C770 C 0.5542 0.27883 0.144 0.0
C771 C 0.58104 0.29291 0.13256 0.0
C772 C 0.60634 0.28797 0.06816 0.0
C773 C 0.60462 0.26941 1.01413 0.0
C774 C 0.57765 0.25587 0.02647 0.0
C775 C 0.55325 0.26014 0.09123 0.0
C776 C 0.529 0.24185 0.09886 0.0
C777 C 0.52893 0.23253 0.19804 0.0
C778 C 0.49423 0.24882 0.06954 0.0
C779 C 0.54377 0.22648 0.02904 0.0
C780 C 0.57139 0.2351 0.98647 0.0
C781 C 0.5907 0.22336 0.92484 0.0
C782 C 0.5825 0.20199 0.90968 0.0
C783 C 0.55512 0.19257 0.95516 0.0
C784 C 0.53517 0.20516 1.01405 0.0
H785 H 0.03645 0.72419 0.54018 0.0
H786 H 0.1105 0.71845 0.75608 0.0
H787 H 0.13714 0.75135 0.70009 0.0
H788 H 0.08989 0.74796 0.35873 0.0
H789 H 0.05781 0.76556 0.31977 0.0
H790 H 0.0472 0.74016 0.36901 0.0
H791 H 0.00958 0.75908 0.49051 0.0
H792 H 0.02011 0.78426 0.43906 0.0
H793 H 0.02676 0.77992 0.5616 0.0
H794 H 0.1544 0.78544 0.62649 0.0
H795 H 0.15418 0.82194 0.56347 0.0
H796 H 0.06751 0.80701 0.40104 0.0
C797 C 0.05845 0.72979 0.57503 0.0
C798 C 0.07159 0.71864 0.65192 0.0
C799 C 0.1 0.7267 0.69698 0.0
C800 C 0.11557 0.74524 0.66491 0.0
C801 C 0.10234 0.75569 0.58801 0.0
C802 C 0.07398 0.74854 0.54497 0.0
C803 C 0.06273 0.76406 0.4707 0.0
C804 C 0.06455 0.7538 0.37384 0.0
C805 C 0.02774 0.77232 0.49181 0.0
C806 C 0.08851 0.78143 0.48105 0.0
C807 C 0.11177 0.77588 0.54696 0.0
C808 C 0.13663 0.78986 0.57389 0.0
C809 C 0.13654 0.8105 0.53704 0.0
C810 C 0.1115 0.81708 0.47509 0.0
C811 C 0.088 0.80209 0.44398 0.0
H812 H 0.03224 0.37962 0.86338 0.0
H813 H 0.13417 0.38465 0.94747 0.0
H814 H 0.14923 0.39705 0.78955 0.0
H815 H 0.04678 0.35498 0.66829 0.0
H816 H 0.01473 0.3668 0.59871 0.0
H817 H 0.01019 0.36563 0.72265 0.0
H818 H 1.00231 0.40645 0.7305 0.0
H819 H 1.00606 0.4078 0.60555 0.0
H820 H 0.03257 0.42376 0.67786 0.0
H821 H 0.15449 0.40044 0.61203 0.0
H822 H 0.14907 0.39483 0.44163 0.0
H823 H 0.04387 0.38563 0.47623 0.0
C824 C 0.05742 0.38458 0.84997 0.0
C825 C 0.08192 0.38151 0.91804 0.0
C826 C 0.11485 0.3873 0.89733 0.0
C827 C 0.12361 0.39427 0.80718 0.0
C828 C 0.09906 0.39549 0.73911 0.0
C829 C 0.06641 0.39115 0.76053 0.0
C830 C 0.04539 0.38989 0.67391 0.0
C831 C 0.02832 0.36804 0.66547 0.0
C832 C 0.02009 0.40806 0.67184 0.0
C833 C 0.07147 0.39287 0.59968 0.0
C834 C 0.10218 0.39669 0.63788 0.0
C835 C 0.1304 0.39797 0.58169 0.0
C836 C 0.12714 0.39478 0.48495 0.0
C837 C 0.09603 0.38987 0.44599 0.0
C838 C 0.06792 0.38953 0.50413 0.0
H839 H 0.62598 0.62263 0.36088 0.0
H840 H 0.52381 0.62804 0.4438 0.0
H841 H 0.50651 0.61685 0.28624 0.0
H842 H 0.61863 0.64818 0.16683 0.0
H843 H 0.64751 0.6333 0.09695 0.0
H844 H 0.65193 0.63378 0.22086 0.0
H845 H 0.64944 0.59267 0.22792 0.0
H846 H 0.64582 0.59192 0.10291 0.0
H847 H 0.61545 0.5788 0.1748 0.0
H848 H 0.50112 0.61395 0.10976 0.0
H849 H 0.50824 0.61953 0.93976 0.0
H850 H 0.61427 0.61851 0.974 0.0
C851 C 0.59999 0.62014 0.34727 0.0
C852 C 0.57623 0.62578 0.41456 0.0
C853 C 0.54239 0.62326 0.394 0.0
C854 C 0.53242 0.61702 0.30417 0.0
C855 C 0.55666 0.61323 0.23654 0.0
C856 C 0.58989 0.61433 0.25809 0.0
C857 C 0.61126 0.61357 0.1716 0.0
C858 C 0.63359 0.63338 0.16367 0.0
C859 C 0.63169 0.59301 0.16916 0.0
C860 C 0.58501 0.61343 0.0973 0.0
C861 C 0.55364 0.61249 0.13542 0.0
C862 C 0.52559 0.61416 0.07944 0.0
C863 C 0.52981 0.61733 0.98298 0.0
C864 C 0.56181 0.61939 0.94428 0.0
C865 C 0.58955 0.61683 1.00201 0.0
H866 H 0.03962 0.62158 0.18295 0.0
H867 H 0.14116 0.62408 0.09145 0.0
H868 H 0.15944 0.61398 0.2493 0.0
H869 H 0.05006 0.64865 0.37087 0.0
H870 H 0.02123 0.635 0.44582 0.0
H871 H 0.01553 0.6344 0.32236 0.0
H872 H 0.01604 0.59323 0.32278 0.0
H873 H 0.02082 0.59357 0.44749 0.0
H874 H 0.04986 0.57922 0.37605 0.0
H875 H 0.16643 0.61287 0.42628 0.0
H876 H 0.16101 0.61988 0.59595 0.0
H877 H 0.05472 0.62038 0.56869 0.0
C878 C 0.06562 0.6187 0.19488 0.0
C879 C 0.08896 0.62351 0.12507 0.0
C880 C 0.12282 0.62026 0.14334 0.0
C881 C 0.13338 0.61458 0.23339 0.0
C882 C 0.10966 0.61194 0.3035 0.0
C883 C 0.0763 0.61345 0.28418 0.0
C884 C 0.05573 0.61389 0.37221 0.0
C885 C 0.03444 0.63419 0.37807 0.0
C886 C 0.03436 0.59378 0.3801 0.0
C887 C 0.08266 0.61393 0.44444 0.0
C888 C 0.11363 0.6121 0.40442 0.0
C889 C 0.14224 0.61378 0.45818 0.0
C890 C 0.13901 0.61779 0.55435 0.0
C891 C 0.10745 0.62066 0.59468 0.0
C892 C 0.07912 0.61815 0.53927 0.0
H893 H 0.53904 0.34889 0.65509 0.0
H894 H 0.59019 0.40693 0.58265 0.0
H895 H 0.57772 0.42147 0.73924 0.0
H896 H 0.47724 0.37184 0.83084 0.0
H897 H 0.48235 0.3487 0.90349 0.0
H898 H 0.48519 0.34629 0.77866 0.0
H899 H 0.5428 0.32894 0.79622 0.0
H900 H 0.54051 0.33161 0.92018 0.0
H901 H 0.57477 0.34307 0.85745 0.0
H902 H 0.57118 0.42581 0.91441 0.0
H903 H 0.57246 0.41926 0.08484 0.0
H904 H 0.52957 0.35709 0.0424 0.0
C905 C 0.54589 0.36516 0.67056 0.0
C906 C 0.56457 0.37712 0.60615 0.0
C907 C 0.57463 0.39792 0.62972 0.0
C908 C 0.56789 0.40616 0.71901 0.0
C909 C 0.55116 0.39332 0.78343 0.0
C910 C 0.53999 0.37327 0.7594 0.0
C911 C 0.52838 0.36086 0.84374 0.0
C912 C 0.49107 0.35669 0.83889 0.0
C913 C 0.54779 0.33992 0.855 0.0
C914 C 0.53649 0.37649 0.92009 0.0
C915 C 0.54864 0.39541 0.88432 0.0
C916 C 0.56084 0.41131 0.9428 0.0
C917 C 0.56141 0.40753 0.03944 0.0
C918 C 0.55041 0.38788 0.07597 0.0
C919 C 0.53717 0.37247 1.01579 0.0
H920 H 0.52823 0.88277 0.88199 0.0
H921 H 0.63031 0.88298 0.96722 0.0
H922 H 0.64698 0.89461 0.8093 0.0
H923 H 0.54021 0.85722 0.68857 0.0
H924 H 0.50978 0.87034 0.61768 0.0
H925 H 0.50482 0.86973 0.74156 0.0
H926 H 0.50164 0.91083 0.74718 0.0
H927 H 0.50581 0.91167 0.62224 0.0
H928 H 0.5339 0.92651 0.69428 0.0
H929 H 0.65294 0.89759 0.63237 0.0
H930 H 0.64737 0.89166 0.46224 0.0
H931 H 0.5414 0.88712 0.49475 0.0
C932 C 0.5539 0.8866 0.86878 0.0
C933 C 0.57789 0.88249 0.93715 0.0
C934 C 0.61143 0.88664 0.91681 0.0
C935 C 0.62108 0.89312 0.82672 0.0
C936 C 0.59683 0.89543 0.75833 0.0
C937 C 0.56374 0.89263 0.77933 0.0
C938 C 0.54282 0.89212 0.69234 0.0
C939 C 0.52331 0.87111 0.68466 0.0
C940 C 0.51968 0.91144 0.6888 0.0
C941 C 0.56933 0.89366 0.61849 0.0
C942 C 0.60029 0.89624 0.65716 0.0
C943 C 0.62872 0.89609 0.60162 0.0
C944 C 0.62539 0.89273 0.50505 0.0
C945 C 0.59395 0.88903 0.46574 0.0
C946 C 0.5657 0.8901 0.5231 0.0
H947 H 0.11763 0.12092 0.35452 0.0
H948 H 0.01504 0.12387 0.43564 0.0
H949 H 0.99875 0.11226 0.27783 0.0
H950 H 0.10896 0.14632 0.16028 0.0
H951 H 0.1389 0.13224 0.0908 0.0
H952 H 0.14307 0.13283 0.21478 0.0
H953 H 0.14324 0.0917 0.22187 0.0
H954 H 0.13992 0.09085 0.09681 0.0
H955 H 0.11028 0.07692 0.16819 0.0
H956 H 0.99389 0.10913 0.10127 0.0
H957 H 1.00103 0.11471 0.93127 0.0
H958 H 0.10699 0.11632 0.96736 0.0
C959 C 0.09184 0.11775 0.34052 0.0
C960 C 0.06763 0.12276 0.40747 0.0
C961 C 0.034 0.11949 0.38622 0.0
C962 C 0.02459 0.11303 0.29622 0.0
C963 C 0.04917 0.10984 0.229 0.0
C964 C 0.08227 0.11174 0.25111 0.0
C965 C 0.10384 0.11155 0.16494 0.0
C966 C 0.12487 0.13194 0.15733 0.0
C967 C 0.1256 0.09156 0.16283 0.0
C968 C 0.07777 0.1107 0.09022 0.0
C969 C 0.0464 0.10901 0.12783 0.0
C970 C 0.0184 0.10994 0.07135 0.0
C971 C 0.02263 0.11311 0.9749 0.0
C972 C 0.05457 0.1159 0.93664 0.0
C973 C 0.08232 0.11409 0.99495 0.0
H974 H 0.61464 0.15866 0.15529 0.0
H975 H 0.56449 0.10019 0.08553 0.0
H976 H 0.57774 0.08574 0.24168 0.0
H977 H 0.67749 0.13627 0.32792 0.0
H978 H 0.67212 0.15933 0.40079 0.0
H979 H 0.66872 0.16176 0.27612 0.0
H980 H 0.61078 0.17853 0.29658 0.0
H981 H 0.61367 0.17586 0.42042 0.0
H982 H 0.57941 0.16408 0.35964 0.0
H983 H 0.58518 0.08136 0.41659 0.0
H984 H 0.58433 0.08786 0.58702 0.0
H985 H 0.62557 0.15045 0.54214 0.0
C986 C 0.60815 0.14234 0.17117 0.0
C987 C 0.58962 0.1302 0.10755 0.0
C988 C 0.58 0.10933 0.13184 0.0
C989 C 0.58718 0.10113 0.2209 0.0
C990 C 0.60386 0.1141 0.28446 0.0
C991 C 0.61449 0.13426 0.25981 0.0
C992 C 0.62615 0.14674 0.34349 0.0
C993 C 0.66334 0.15128 0.33667 0.0
C994 C 0.6063 0.1675 0.3557 0.0
C995 C 0.61872 0.13101 0.4203 0.0
C996 C 0.60686 0.112 0.38522 0.0
C997 C 0.59529 0.09595 0.4444 0.0
C998 C 0.59499 0.09969 0.54105 0.0
C999 C 0.6056 0.11945 0.57695 0.0
C1000 C 0.61828 0.135 0.51601 0.0
H1001 H 0.11869 0.88692 0.65196 0.0
H1002 H 0.01727 0.87789 0.56982 0.0
H1003 H 0.99887 0.88792 0.72819 0.0
H1004 H 0.11273 0.8598 0.84285 0.0
H1005 H 0.14041 0.87505 0.91456 0.0
H1006 H 0.14512 0.87552 0.7906 0.0
H1007 H 0.13982 0.91653 0.78845 0.0
H1008 H 0.13598 0.91637 0.91352 0.0
H1009 H 0.10484 0.92903 0.84348 0.0
H1010 H 0.99294 0.8903 0.90504 0.0
H1011 H 1.00012 0.88449 0.07473 0.0
H1012 H 0.10606 0.88834 0.03997 0.0
C1013 C 0.09251 0.88846 0.66587 0.0
C1014 C 0.06937 0.88217 0.59826 0.0
C1015 C 0.03535 0.88332 0.61952 0.0
C1016 C 0.02476 0.88882 0.70997 0.0
C1017 C 0.04856 0.89315 0.77781 0.0
C1018 C 0.08185 0.89333 0.75588 0.0
C1019 C 0.10302 0.89417 0.84243 0.0
C1020 C 0.12666 0.875 0.84785 0.0
C1021 C 0.12203 0.91529 0.84726 0.0
C1022 C 0.0767 0.89306 0.91699 0.0
C1023 C 0.04536 0.89324 0.87909 0.0
C1024 C 0.01736 0.89063 0.93517 0.0
C1025 C 0.02162 0.88733 0.03145 0.0
C1026 C 0.05364 0.88605 0.06997 0.0
C1027 C 0.08131 0.88944 1.01212 0.0
loop_
_geom_bond_atom_site_label_1
_geom_bond_atom_site_label_2
_geom_bond_distance
_geom_bond_site_symmetry_2
_ccdc_geom_bond_type
Zn0 N4 2.020 . S
Zn0 O8 2.019 . S
Zn0 N10 2.119 . S
Zn0 O18 1.975 . S
C1 N2 1.334 1_554 S
C1 N5 1.336 . S
N2 C1 1.334 1_556 S
N2 C3 1.334 . S
C3 N2 1.334 . S
C3 N4 1.336 1_556 S
N4 Zn0 2.020 . S
N4 C3 1.336 1_554 S
N4 N5 1.354 . S
N5 C1 1.336 . S
N5 N4 1.354 . S
N5 Zn9 2.020 . S
C6 O7 1.244 . S
C6 O30 1.257 . S
O7 C6 1.244 . S
O8 Zn0 2.019 . S
O8 C28 1.257 . S
Zn9 N5 2.020 . S
Zn9 O16 1.975 . S
Zn9 N25 2.119 . S
Zn9 O30 2.019 . S
N10 Zn0 2.119 . S
N10 C12 1.334 . S
N10 C13 1.328 . S
C11 C12 1.391 . S
C11 N14 1.329 . S
C11 H32 0.930 . S
C12 N10 1.334 . S
C12 C11 1.391 . S
C12 H19 0.930 . S
C13 N10 1.328 . S
C13 C15 1.392 . S
C13 H20 0.930 . S
N14 C11 1.329 . S
N14 C15 1.331 . S
C15 C13 1.392 . S
C15 N14 1.331 . S
O16 Zn9 1.975 . S
O16 C17 1.252 . S
C17 O16 1.252 . S
C17 O18 1.252 . S
O18 Zn0 1.975 . S
O18 C17 1.252 . S
H19 C12 0.930 . S
H20 C13 0.930 . S
C21 C22 1.392 . S
C21 N25 1.328 1_655 S
C21 H27 0.930 1_655 S
C22 C21 1.392 . S
C22 N26 1.331 . S
C23 C24 1.391 1_655 S
C23 N26 1.329 . S
C23 H33 0.930 . S
C24 C23 1.391 1_455 S
C24 N25 1.334 . S
C24 H31 0.930 . S
N25 Zn9 2.119 . S
N25 C21 1.328 1_455 S
N25 C24 1.334 . S
N26 C22 1.331 . S
N26 C23 1.329 . S
H27 C21 0.930 1_455 S
C28 O8 1.257 . S
C28 O29 1.244 . S
O29 C28 1.244 . S
O30 C6 1.257 . S
O30 Zn9 2.019 . S
H31 C24 0.930 . S
H32 C11 0.930 . S
H33 C23 0.930 . S
Zn34 N38 2.020 . S
Zn34 O42 2.019 . S
Zn34 N44 2.119 . S
Zn34 O52 1.975 . S
C35 N36 1.334 . S
C35 N39 1.336 . S
N36 C35 1.334 . S
N36 C37 1.334 . S
C37 N36 1.334 . S
C37 N38 1.336 . S
N38 Zn34 2.020 . S
N38 C37 1.336 . S
N38 N39 1.354 . S
N39 C35 1.336 . S
N39 N38 1.354 . S
N39 Zn43 2.020 . S
C40 O41 1.244 . S
C40 O64 1.257 . S
O41 C40 1.244 . S
O42 Zn34 2.019 . S
O42 C62 1.257 . S
Zn43 N39 2.020 . S
Zn43 O50 1.975 . S
Zn43 N59 2.119 . S
Zn43 O64 2.019 . S
N44 Zn34 2.119 . S
N44 C46 1.334 . S
N44 C47 1.328 . S
C45 C46 1.391 . S
C45 N48 1.329 . S
C45 H66 0.930 . S
C46 N44 1.334 . S
C46 C45 1.391 . S
C46 H53 0.930 . S
C47 N44 1.328 . S
C47 C49 1.392 . S
C47 H54 0.930 . S
N48 C45 1.329 . S
N48 C49 1.331 . S
C49 C47 1.392 . S
C49 N48 1.331 . S
O50 Zn43 1.975 . S
O50 C51 1.252 . S
C51 O50 1.252 . S
C51 O52 1.252 . S
O52 Zn34 1.975 . S
O52 C51 1.252 . S
H53 C46 0.930 . S
H54 C47 0.930 . S
C55 C56 1.392 . S
C55 N59 1.328 . S
C55 H61 0.930 . S
C56 C55 1.392 . S
C56 N60 1.331 . S
C57 C58 1.391 . S
C57 N60 1.329 . S
C57 H67 0.930 . S
C58 C57 1.391 . S
C58 N59 1.334 . S
C58 H65 0.930 . S
N59 Zn43 2.119 . S
N59 C55 1.328 . S
N59 C58 1.334 . S
N60 C56 1.331 . S
N60 C57 1.329 . S
H61 C55 0.930 . S
C62 O42 1.257 . S
C62 O63 1.244 . S
O63 C62 1.244 . S
O64 C40 1.257 . S
O64 Zn43 2.019 . S
H65 C58 0.930 . S
H66 C45 0.930 . S
H67 C57 0.930 . S
Zn68 N72 2.020 . S
Zn68 O76 2.019 . S
Zn68 N78 2.119 . S
Zn68 O86 1.975 . S
C69 N70 1.334 . S
C69 N73 1.336 1_554 S
N70 C69 1.334 . S
N70 C71 1.334 1_554 S
C71 N70 1.334 1_556 S
C71 N72 1.336 . S
N72 Zn68 2.020 . S
N72 C71 1.336 . S
N72 N73 1.354 . S
N73 C69 1.336 1_556 S
N73 N72 1.354 . S
N73 Zn77 2.020 . S
C74 O75 1.244 . S
C74 O98 1.257 . S
O75 C74 1.244 . S
O76 Zn68 2.019 . S
O76 C96 1.257 . S
Zn77 N73 2.020 . S
Zn77 O84 1.975 . S
Zn77 N93 2.119 . S
Zn77 O98 2.019 . S
N78 Zn68 2.119 . S
N78 C80 1.334 . S
N78 C81 1.328 1_455 S
C79 C80 1.391 1_655 S
C79 N82 1.329 . S
C79 H100 0.930 . S
C80 N78 1.334 . S
C80 C79 1.391 1_455 S
C80 H87 0.930 . S
C81 N78 1.328 1_655 S
C81 C83 1.392 . S
C81 H88 0.930 1_655 S
N82 C79 1.329 . S
N82 C83 1.331 . S
C83 C81 1.392 . S
C83 N82 1.331 . S
O84 Zn77 1.975 . S
O84 C85 1.252 . S
C85 O84 1.252 . S
C85 O86 1.252 . S
O86 Zn68 1.975 . S
O86 C85 1.252 . S
H87 C80 0.930 . S
H88 C81 0.930 1_455 S
C89 C90 1.392 . S
C89 N93 1.328 . S
C89 H95 0.930 . S
C90 C89 1.392 . S
C90 N94 1.331 . S
C91 C92 1.391 . S
C91 N94 1.329 . S
C91 H101 0.930 . S
C92 C91 1.391 . S
C92 N93 1.334 . S
C92 H99 0.930 . S
N93 Zn77 2.119 . S
N93 C89 1.328 . S
N93 C92 1.334 . S
N94 C90 1.331 . S
N94 C91 1.329 . S
H95 C89 0.930 . S
C96 O76 1.257 . S
C96 O97 1.244 . S
O97 C96 1.244 . S
O98 C74 1.257 . S
O98 Zn77 2.019 . S
H99 C92 0.930 . S
H100 C79 0.930 . S
H101 C91 0.930 . S
Zn102 N106 2.020 . S
Zn102 O110 2.019 . S
Zn102 N112 2.119 . S
Zn102 O120 1.975 . S
C103 N104 1.334 . S
C103 N107 1.336 . S
N104 C103 1.334 . S
N104 C105 1.334 . S
C105 N104 1.334 . S
C105 N106 1.336 . S
N106 Zn102 2.020 . S
N106 C105 1.336 . S
N106 N107 1.354 . S
N107 C103 1.336 . S
N107 N106 1.354 . S
N107 Zn111 2.020 . S
C108 O109 1.244 . S
C108 O132 1.257 . S
O109 C108 1.244 . S
O110 Zn102 2.019 . S
O110 C130 1.257 . S
Zn111 N107 2.020 . S
Zn111 O118 1.975 . S
Zn111 N127 2.119 . S
Zn111 O132 2.019 . S
N112 Zn102 2.119 . S
N112 C114 1.334 . S
N112 C115 1.328 . S
C113 C114 1.391 . S
C113 N116 1.329 . S
C113 H134 0.930 . S
C114 N112 1.334 . S
C114 C113 1.391 . S
C114 H121 0.930 . S
C115 N112 1.328 . S
C115 C117 1.392 . S
C115 H122 0.930 . S
N116 C113 1.329 . S
N116 C117 1.331 . S
C117 C115 1.392 . S
C117 N116 1.331 . S
O118 Zn111 1.975 . S
O118 C119 1.252 . S
C119 O118 1.252 . S
C119 O120 1.252 . S
O120 Zn102 1.975 . S
O120 C119 1.252 . S
H121 C114 0.930 . S
H122 C115 0.930 . S
C123 C124 1.392 . S
C123 N127 1.328 . S
C123 H129 0.930 . S
C124 C123 1.392 . S
C124 N128 1.331 . S
C125 C126 1.391 . S
C125 N128 1.329 . S
C125 H135 0.930 . S
C126 C125 1.391 . S
C126 N127 1.334 . S
C126 H133 0.930 . S
N127 Zn111 2.119 . S
N127 C123 1.328 . S
N127 C126 1.334 . S
N128 C124 1.331 . S
N128 C125 1.329 . S
H129 C123 0.930 . S
C130 O110 1.257 . S
C130 O131 1.244 . S
O131 C130 1.244 . S
O132 C108 1.257 . S
O132 Zn111 2.019 . S
H133 C126 0.930 . S
H134 C113 0.930 . S
H135 C125 0.930 . S
Zn136 N140 2.020 . S
Zn136 O144 2.019 . S
Zn136 N146 2.119 . S
Zn136 O154 1.975 . S
C137 N138 1.334 1_554 S
C137 N141 1.336 . S
N138 C137 1.334 1_556 S
N138 C139 1.334 . S
C139 N138 1.334 . S
C139 N140 1.336 1_556 S
N140 Zn136 2.020 . S
N140 C139 1.336 1_554 S
N140 N141 1.354 . S
N141 C137 1.336 . S
N141 N140 1.354 . S
N141 Zn145 2.020 . S
C142 O143 1.244 . S
C142 O166 1.257 . S
O143 C142 1.244 . S
O144 Zn136 2.019 . S
O144 C164 1.257 . S
Zn145 N141 2.020 . S
Zn145 O152 1.975 . S
Zn145 N161 2.119 . S
Zn145 O166 2.019 . S
N146 Zn136 2.119 . S
N146 C148 1.334 . S
N146 C149 1.328 . S
C147 C148 1.391 . S
C147 N150 1.329 . S
C147 H168 0.930 . S
C148 N146 1.334 . S
C148 C147 1.391 . S
C148 H155 0.930 . S
C149 N146 1.328 . S
C149 C151 1.392 . S
C149 H156 0.930 . S
N150 C147 1.329 . S
N150 C151 1.331 . S
C151 C149 1.392 . S
C151 N150 1.331 . S
O152 Zn145 1.975 . S
O152 C153 1.252 . S
C153 O152 1.252 . S
C153 O154 1.252 . S
O154 Zn136 1.975 . S
O154 C153 1.252 . S
H155 C148 0.930 . S
H156 C149 0.930 . S
C157 C158 1.392 . S
C157 N161 1.328 . S
C157 H163 0.930 . S
C158 C157 1.392 . S
C158 N162 1.331 . S
C159 C160 1.391 . S
C159 N162 1.329 . S
C159 H169 0.930 . S
C160 C159 1.391 . S
C160 N161 1.334 . S
C160 H167 0.930 . S
N161 Zn145 2.119 . S
N161 C157 1.328 . S
N161 C160 1.334 . S
N162 C158 1.331 . S
N162 C159 1.329 . S
H163 C157 0.930 . S
C164 O144 1.257 . S
C164 O165 1.244 . S
O165 C164 1.244 . S
O166 C142 1.257 . S
O166 Zn145 2.019 . S
H167 C160 0.930 . S
H168 C147 0.930 . S
H169 C159 0.930 . S
Zn170 N174 2.020 . S
Zn170 O178 2.027 . S
Zn170 N180 2.119 1_455 S
Zn170 O188 1.975 . S
C171 N172 1.334 . S
C171 N175 1.336 . S
N172 C171 1.334 . S
N172 C173 1.334 . S
C173 N172 1.334 . S
C173 N174 1.336 . S
N174 Zn170 2.020 . S
N174 C173 1.336 . S
N174 N175 1.354 . S
N175 C171 1.336 . S
N175 N174 1.354 . S
N175 Zn179 2.020 . S
C176 O177 1.244 . S
C176 O200 1.257 . S
O177 C176 1.244 . S
O178 Zn170 2.027 . S
O178 C198 1.275 . S
Zn179 N175 2.020 . S
Zn179 O186 1.975 . S
Zn179 N195 2.119 . S
Zn179 O200 2.019 . S
N180 Zn170 2.119 1_655 S
N180 C182 1.334 . S
N180 C183 1.328 . S
C181 C182 1.391 . S
C181 N184 1.329 . S
C181 H202 0.930 . S
C182 N180 1.334 . S
C182 C181 1.391 . S
C182 H189 0.930 . S
C183 N180 1.328 . S
C183 C185 1.392 . S
C183 H190 0.930 . S
N184 C181 1.329 . S
N184 C185 1.331 . S
C185 C183 1.392 . S
C185 N184 1.331 . S
O186 Zn179 1.975 . S
O186 C187 1.252 . S
C187 O186 1.252 . S
C187 O188 1.252 . S
O188 Zn170 1.975 . S
O188 C187 1.252 . S
H189 C182 0.930 . S
H190 C183 0.930 . S
C191 C192 1.392 . S
C191 N195 1.328 . S
C191 H197 0.930 . S
C192 C191 1.392 . S
C192 N196 1.331 . S
C193 C194 1.391 . S
C193 N196 1.329 . S
C193 H203 0.930 . S
C194 C193 1.391 . S
C194 N195 1.334 . S
C194 H201 0.930 . S
N195 Zn179 2.119 . S
N195 C191 1.328 . S
N195 C194 1.334 . S
N196 C192 1.331 . S
N196 C193 1.329 . S
H197 C191 0.930 . S
C198 O178 1.275 . S
C198 O199 1.244 . S
O199 C198 1.244 . S
O200 C176 1.257 . S
O200 Zn179 2.019 . S
H201 C194 0.930 . S
H202 C181 0.930 . S
H203 C193 0.930 . S
Zn204 N208 2.020 . S
Zn204 O212 2.019 . S
Zn204 N214 2.119 . S
Zn204 O222 1.975 . S
C205 N206 1.334 . S
C205 N209 1.336 1_554 S
N206 C205 1.334 . S
N206 C207 1.334 1_554 S
C207 N206 1.334 1_556 S
C207 N208 1.336 . S
N208 Zn204 2.020 . S
N208 C207 1.336 . S
N208 N209 1.354 . S
N209 C205 1.336 1_556 S
N209 N208 1.354 . S
N209 Zn213 2.020 . S
C210 O211 1.244 . S
C210 O234 1.257 . S
O211 C210 1.244 . S
O212 Zn204 2.019 . S
O212 C232 1.257 . S
Zn213 N209 2.020 . S
Zn213 O220 1.975 . S
Zn213 N229 2.119 . S
Zn213 O234 2.019 . S
N214 Zn204 2.119 . S
N214 C216 1.334 . S
N214 C217 1.328 . S
C215 C216 1.391 . S
C215 N218 1.329 . S
C215 H236 0.930 . S
C216 N214 1.334 . S
C216 C215 1.391 . S
C216 H223 0.930 . S
C217 N214 1.328 . S
C217 C219 1.392 . S
C217 H224 0.930 . S
N218 C215 1.329 . S
N218 C219 1.331 . S
C219 C217 1.392 . S
C219 N218 1.331 . S
O220 Zn213 1.975 . S
O220 C221 1.252 . S
C221 O220 1.252 . S
C221 O222 1.252 . S
O222 Zn204 1.975 . S
O222 C221 1.252 . S
H223 C216 0.930 . S
H224 C217 0.930 . S
C225 C226 1.392 . S
C225 N229 1.328 . S
C225 H231 0.930 . S
C226 C225 1.392 . S
C226 N230 1.331 . S
C227 C228 1.391 . S
C227 N230 1.329 . S
C227 H237 0.930 . S
C228 C227 1.391 . S
C228 N229 1.334 . S
C228 H235 0.930 . S
N229 Zn213 2.119 . S
N229 C225 1.328 . S
N229 C228 1.334 . S
N230 C226 1.331 . S
N230 C227 1.329 . S
H231 C225 0.930 . S
C232 O212 1.257 . S
C232 O233 1.244 . S
O233 C232 1.244 . S
O234 C210 1.257 . S
O234 Zn213 2.019 . S
H235 C228 0.930 . S
H236 C215 0.930 . S
H237 C227 0.930 . S
Zn238 N242 2.020 . S
Zn238 O246 2.019 . S
Zn238 N248 2.119 . S
Zn238 O256 1.975 . S
C239 N240 1.334 . S
C239 N243 1.336 . S
N240 C239 1.334 . S
N240 C241 1.334 . S
C241 N240 1.334 . S
C241 N242 1.336 . S
N242 Zn238 2.020 . S
N242 C241 1.336 . S
N242 N243 1.354 . S
N243 C239 1.336 . S
N243 N242 1.354 . S
N243 Zn247 2.020 . S
C244 O245 1.244 . S
C244 O268 1.275 . S
O245 C244 1.244 . S
O246 Zn238 2.019 . S
O246 C266 1.257 . S
Zn247 N243 2.020 . S
Zn247 O254 1.975 . S
Zn247 N263 2.119 1_455 S
Zn247 O268 2.027 . S
N248 Zn238 2.119 . S
N248 C250 1.334 . S
N248 C251 1.328 . S
C249 C250 1.391 . S
C249 N252 1.329 . S
C249 H270 0.930 . S
C250 N248 1.334 . S
C250 C249 1.391 . S
C250 H257 0.930 . S
C251 N248 1.328 . S
C251 C253 1.392 . S
C251 H258 0.930 . S
N252 C249 1.329 . S
N252 C253 1.331 . S
C253 C251 1.392 . S
C253 N252 1.331 . S
O254 Zn247 1.975 . S
O254 C255 1.252 . S
C255 O254 1.252 . S
C255 O256 1.252 . S
O256 Zn238 1.975 . S
O256 C255 1.252 . S
H257 C250 0.930 . S
H258 C251 0.930 . S
C259 C260 1.392 . S
C259 N263 1.328 . S
C259 H265 0.930 . S
C260 C259 1.392 . S
C260 N264 1.331 . S
C261 C262 1.391 . S
C261 N264 1.329 . S
C261 H271 0.930 . S
C262 C261 1.391 . S
C262 N263 1.334 . S
C262 H269 0.930 . S
N263 Zn247 2.119 1_655 S
N263 C259 1.328 . S
N263 C262 1.334 . S
N264 C260 1.331 . S
N264 C261 1.329 . S
H265 C259 0.930 . S
C266 O246 1.257 . S
C266 O267 1.244 . S
O267 C266 1.244 . S
O268 C244 1.275 . S
O268 Zn247 2.027 . S
H269 C262 0.930 . S
H270 C249 0.930 . S
H271 C261 0.930 . S
H272 C284 0.930 . S
H273 C286 0.930 . S
H274 C287 0.930 . S
H275 C291 0.959 . S
H276 C291 0.959 . S
H277 C291 0.961 . S
H278 C292 0.960 . S
H279 C292 0.961 . S
H280 C292 0.959 . S
H281 C295 0.929 . S
H282 C296 0.931 . S
H283 C298 0.930 . S
C284 H272 0.930 . S
C284 C285 1.399 . S
C284 C289 1.399 . S
C285 C284 1.399 . S
C285 C286 1.376 . S
C286 H273 0.930 . S
C286 C285 1.376 . S
C286 C287 1.388 . S
C287 H274 0.930 . S
C287 C286 1.388 . S
C287 C288 1.390 . S
C288 C287 1.390 . S
C288 C289 1.394 . S
C288 C294 1.465 . S
C289 C284 1.399 . S
C289 C288 1.394 . S
C289 C290 1.516 . S
C290 C289 1.516 . S
C290 C291 1.502 . S
C290 C292 1.561 . S
C290 C293 1.526 . S
C291 H275 0.959 . S
C291 H276 0.959 . S
C291 H277 0.961 . S
C291 C290 1.502 . S
C292 H278 0.960 . S
C292 H279 0.961 . S
C292 H280 0.959 . S
C292 C290 1.561 . S
C293 C290 1.526 . S
C293 C294 1.396 . S
C293 C298 1.390 . S
C294 C288 1.465 . S
C294 C293 1.396 . S
C294 C295 1.399 . S
C295 H281 0.929 . S
C295 C294 1.399 . S
C295 C296 1.385 . S
C296 H282 0.931 . S
C296 C295 1.385 . S
C296 C297 1.389 . S
C297 C296 1.389 . S
C297 C298 1.387 . S
C298 H283 0.930 . S
C298 C293 1.390 . S
C298 C297 1.387 . S
H299 C311 0.930 . S
H300 C313 0.930 . S
H301 C314 0.930 . S
H302 C318 0.959 . S
H303 C318 0.959 . S
H304 C318 0.961 . S
H305 C319 0.960 . S
H306 C319 0.961 . S
H307 C319 0.959 . S
H308 C322 0.929 . S
H309 C323 0.931 . S
H310 C325 0.930 . S
C311 H299 0.930 . S
C311 C312 1.399 . S
C311 C316 1.399 . S
C312 C311 1.399 . S
C312 C313 1.376 . S
C313 H300 0.930 . S
C313 C312 1.376 . S
C313 C314 1.388 . S
C314 H301 0.930 . S
C314 C313 1.388 . S
C314 C315 1.390 . S
C315 C314 1.390 . S
C315 C316 1.394 . S
C315 C321 1.465 . S
C316 C311 1.399 . S
C316 C315 1.394 . S
C316 C317 1.516 . S
C317 C316 1.516 . S
C317 C318 1.502 . S
C317 C319 1.561 . S
C317 C320 1.526 . S
C318 H302 0.959 . S
C318 H303 0.959 . S
C318 H304 0.961 . S
C318 C317 1.502 . S
C319 H305 0.960 . S
C319 H306 0.961 . S
C319 H307 0.959 . S
C319 C317 1.561 . S
C320 C317 1.526 . S
C320 C321 1.396 . S
C320 C325 1.390 . S
C321 C315 1.465 . S
C321 C320 1.396 . S
C321 C322 1.399 . S
C322 H308 0.929 . S
C322 C321 1.399 . S
C322 C323 1.385 . S
C323 H309 0.931 . S
C323 C322 1.385 . S
C323 C324 1.389 . S
C324 C323 1.389 . S
C324 C325 1.387 . S
C325 H310 0.930 . S
C325 C320 1.390 . S
C325 C324 1.387 . S
H326 C338 0.930 . S
H327 C340 0.930 . S
H328 C341 0.930 . S
H329 C345 0.959 . S
H330 C345 0.959 . S
H331 C345 0.961 . S
H332 C346 0.960 . S
H333 C346 0.961 . S
H334 C346 0.959 . S
H335 C349 0.929 . S
H336 C350 0.931 . S
H337 C352 0.930 . S
C338 H326 0.930 . S
C338 C339 1.399 . S
C338 C343 1.399 . S
C339 C338 1.399 . S
C339 C340 1.376 . S
C340 H327 0.930 . S
C340 C339 1.376 . S
C340 C341 1.388 . S
C341 H328 0.930 . S
C341 C340 1.388 . S
C341 C342 1.390 . S
C342 C341 1.390 . S
C342 C343 1.394 . S
C342 C348 1.465 . S
C343 C338 1.399 . S
C343 C342 1.394 . S
C343 C344 1.516 . S
C344 C343 1.516 . S
C344 C345 1.502 . S
C344 C346 1.561 . S
C344 C347 1.526 . S
C345 H329 0.959 . S
C345 H330 0.959 . S
C345 H331 0.961 . S
C345 C344 1.502 . S
C346 H332 0.960 . S
C346 H333 0.961 . S
C346 H334 0.959 . S
C346 C344 1.561 . S
C347 C344 1.526 . S
C347 C348 1.396 . S
C347 C352 1.390 . S
C348 C342 1.465 . S
C348 C347 1.396 . S
C348 C349 1.399 . S
C349 H335 0.929 . S
C349 C348 1.399 . S
C349 C350 1.385 . S
C350 H336 0.931 . S
C350 C349 1.385 . S
C350 C351 1.389 . S
C351 C350 1.389 . S
C351 C352 1.387 . S
C352 H337 0.930 . S
C352 C347 1.390 . S
C352 C351 1.387 . S
H353 C365 0.930 . S
H354 C367 0.930 . S
H355 C368 0.930 . S
H356 C372 0.959 . S
H357 C372 0.959 . S
H358 C372 0.961 . S
H359 C373 0.960 . S
H360 C373 0.961 . S
H361 C373 0.959 . S
H362 C376 0.929 . S
H363 C377 0.931 . S
H364 C379 0.930 . S
C365 H353 0.930 . S
C365 C366 1.399 . S
C365 C370 1.399 . S
C366 C365 1.399 . S
C366 C367 1.376 . S
C367 H354 0.930 . S
C367 C366 1.376 . S
C367 C368 1.388 . S
C368 H355 0.930 . S
C368 C367 1.388 . S
C368 C369 1.390 . S
C369 C368 1.390 . S
C369 C370 1.394 . S
C369 C375 1.465 . S
C370 C365 1.399 . S
C370 C369 1.394 . S
C370 C371 1.516 . S
C371 C370 1.516 . S
C371 C372 1.502 . S
C371 C373 1.561 . S
C371 C374 1.526 . S
C372 H356 0.959 . S
C372 H357 0.959 . S
C372 H358 0.961 . S
C372 C371 1.502 . S
C373 H359 0.960 . S
C373 H360 0.961 . S
C373 H361 0.959 . S
C373 C371 1.561 . S
C374 C371 1.526 . S
C374 C375 1.396 . S
C374 C379 1.390 . S
C375 C369 1.465 . S
C375 C374 1.396 . S
C375 C376 1.399 . S
C376 H362 0.929 . S
C376 C375 1.399 . S
C376 C377 1.385 . S
C377 H363 0.931 . S
C377 C376 1.385 . S
C377 C378 1.389 . S
C378 C377 1.389 . S
C378 C379 1.387 . S
C379 H364 0.930 . S
C379 C374 1.390 . S
C379 C378 1.387 . S
H380 C392 0.930 . S
H381 C394 0.930 . S
H382 C395 0.930 . S
H383 C399 0.959 . S
H384 C399 0.959 . S
H385 C399 0.961 . S
H386 C400 0.960 . S
H387 C400 0.961 . S
H388 C400 0.959 . S
H389 C403 0.929 . S
H390 C404 0.931 . S
H391 C406 0.930 . S
C392 H380 0.930 . S
C392 C393 1.399 . S
C392 C397 1.399 . S
C393 C392 1.399 . S
C393 C394 1.376 . S
C394 H381 0.930 . S
C394 C393 1.376 . S
C394 C395 1.388 . S
C395 H382 0.930 . S
C395 C394 1.388 . S
C395 C396 1.390 . S
C396 C395 1.390 . S
C396 C397 1.394 . S
C396 C402 1.465 . S
C397 C392 1.399 . S
C397 C396 1.394 . S
C397 C398 1.516 . S
C398 C397 1.516 . S
C398 C399 1.502 . S
C398 C400 1.561 . S
C398 C401 1.526 . S
C399 H383 0.959 . S
C399 H384 0.959 . S
C399 H385 0.961 . S
C399 C398 1.502 . S
C400 H386 0.960 . S
C400 H387 0.961 . S
C400 H388 0.959 . S
C400 C398 1.561 . S
C401 C398 1.526 . S
C401 C402 1.396 . S
C401 C406 1.390 . S
C402 C396 1.465 . S
C402 C401 1.396 . S
C402 C403 1.399 . S
C403 H389 0.929 . S
C403 C402 1.399 . S
C403 C404 1.385 . S
C404 H390 0.931 . S
C404 C403 1.385 . S
C404 C405 1.389 . S
C405 C404 1.389 . S
C405 C406 1.387 . S
C406 H391 0.930 . S
C406 C401 1.390 . S
C406 C405 1.387 . S
H407 C419 0.930 . S
H408 C421 0.930 . S
H409 C422 0.930 . S
H410 C426 0.959 . S
H411 C426 0.959 . S
H412 C426 0.961 . S
H413 C427 0.960 . S
H414 C427 0.961 . S
H415 C427 0.959 . S
H416 C430 0.929 . S
H417 C431 0.931 . S
H418 C433 0.930 . S
C419 H407 0.930 . S
C419 C420 1.399 . S
C419 C424 1.399 . S
C420 C419 1.399 . S
C420 C421 1.376 . S
C421 H408 0.930 . S
C421 C420 1.376 . S
C421 C422 1.388 . S
C422 H409 0.930 . S
C422 C421 1.388 . S
C422 C423 1.390 . S
C423 C422 1.390 . S
C423 C424 1.394 . S
C423 C429 1.465 . S
C424 C419 1.399 . S
C424 C423 1.394 . S
C424 C425 1.516 . S
C425 C424 1.516 . S
C425 C426 1.502 . S
C425 C427 1.561 . S
C425 C428 1.526 . S
C426 H410 0.959 . S
C426 H411 0.959 . S
C426 H412 0.961 . S
C426 C425 1.502 . S
C427 H413 0.960 . S
C427 H414 0.961 . S
C427 H415 0.959 . S
C427 C425 1.561 . S
C428 C425 1.526 . S
C428 C429 1.396 . S
C428 C433 1.390 . S
C429 C423 1.465 . S
C429 C428 1.396 . S
C429 C430 1.399 . S
C430 H416 0.929 . S
C430 C429 1.399 . S
C430 C431 1.385 . S
C431 H417 0.931 . S
C431 C430 1.385 . S
C431 C432 1.389 . S
C432 C431 1.389 . S
C432 C433 1.387 . S
C433 H418 0.930 . S
C433 C428 1.390 . S
C433 C432 1.387 . S
H434 C446 0.930 . S
H435 C448 0.930 . S
H436 C449 0.930 . S
H437 C453 0.959 . S
H438 C453 0.959 . S
H439 C453 0.961 . S
H440 C454 0.960 . S
H441 C454 0.961 . S
H442 C454 0.959 . S
H443 C457 0.929 . S
H444 C458 0.931 . S
H445 C460 0.930 . S
C446 H434 0.930 . S
C446 C447 1.399 . S
C446 C451 1.399 . S
C447 C446 1.399 . S
C447 C448 1.376 . S
C448 H435 0.930 . S
C448 C447 1.376 . S
C448 C449 1.388 . S
C449 H436 0.930 . S
C449 C448 1.388 . S
C449 C450 1.390 . S
C450 C449 1.390 . S
C450 C451 1.394 . S
C450 C456 1.465 . S
C451 C446 1.399 . S
C451 C450 1.394 . S
C451 C452 1.516 . S
C452 C451 1.516 . S
C452 C453 1.502 . S
C452 C454 1.561 . S
C452 C455 1.526 . S
C453 H437 0.959 . S
C453 H438 0.959 . S
C453 H439 0.961 . S
C453 C452 1.502 . S
C454 H440 0.960 . S
C454 H441 0.961 . S
C454 H442 0.959 . S
C454 C452 1.561 . S
C455 C452 1.526 . S
C455 C456 1.396 . S
C455 C460 1.390 . S
C456 C450 1.465 . S
C456 C455 1.396 . S
C456 C457 1.399 . S
C457 H443 0.929 . S
C457 C456 1.399 . S
C457 C458 1.385 . S
C458 H444 0.931 . S
C458 C457 1.385 . S
C458 C459 1.389 . S
C459 C458 1.389 . S
C459 C460 1.387 . S
C460 H445 0.930 . S
C460 C455 1.390 . S
C460 C459 1.387 . S
H461 C473 0.930 . S
H462 C475 0.930 . S
H463 C476 0.930 . S
H464 C480 0.959 . S
H465 C480 0.959 . S
H466 C480 0.961 . S
H467 C481 0.960 . S
H468 C481 0.961 . S
H469 C481 0.959 . S
H470 C484 0.929 . S
H471 C485 0.931 . S
H472 C487 0.930 . S
C473 H461 0.930 . S
C473 C474 1.399 . S
C473 C478 1.399 . S
C474 C473 1.399 . S
C474 C475 1.376 . S
C475 H462 0.930 . S
C475 C474 1.376 . S
C475 C476 1.388 . S
C476 H463 0.930 . S
C476 C475 1.388 . S
C476 C477 1.390 . S
C477 C476 1.390 . S
C477 C478 1.394 . S
C477 C483 1.465 . S
C478 C473 1.399 . S
C478 C477 1.394 . S
C478 C479 1.516 . S
C479 C478 1.516 . S
C479 C480 1.502 . S
C479 C481 1.561 . S
C479 C482 1.526 . S
C480 H464 0.959 . S
C480 H465 0.959 . S
C480 H466 0.961 . S
C480 C479 1.502 . S
C481 H467 0.960 . S
C481 H468 0.961 . S
C481 H469 0.959 . S
C481 C479 1.561 . S
C482 C479 1.526 . S
C482 C483 1.396 . S
C482 C487 1.390 . S
C483 C477 1.465 . S
C483 C482 1.396 . S
C483 C484 1.399 . S
C484 H470 0.929 . S
C484 C483 1.399 . S
C484 C485 1.385 . S
C485 H471 0.931 . S
C485 C484 1.385 . S
C485 C486 1.389 . S
C486 C485 1.389 . S
C486 C487 1.387 . S
C487 H472 0.930 . S
C487 C482 1.390 . S
C487 C486 1.387 . S
H488 C500 0.930 . S
H489 C502 0.930 . S
H490 C503 0.930 . S
H491 C507 0.959 . S
H492 C507 0.959 . S
H493 C507 0.961 . S
H494 C508 0.960 . S
H495 C508 0.961 . S
H496 C508 0.959 . S
H497 C511 0.929 . S
H498 C512 0.931 . S
H499 C514 0.930 . S
C500 H488 0.930 . S
C500 C501 1.399 1_554 S
C500 C505 1.399 . S
C501 C500 1.399 1_556 S
C501 C502 1.376 . S
C502 H489 0.930 . S
C502 C501 1.376 . S
C502 C503 1.388 . S
C503 H490 0.930 . S
C503 C502 1.388 . S
C503 C504 1.390 . S
C504 C503 1.390 . S
C504 C505 1.394 1_556 S
C504 C510 1.465 . S
C505 C500 1.399 . S
C505 C504 1.394 1_554 S
C505 C506 1.516 . S
C506 C505 1.516 . S
C506 C507 1.502 . S
C506 C508 1.561 . S
C506 C509 1.526 . S
C507 H491 0.959 . S
C507 H492 0.959 . S
C507 H493 0.961 . S
C507 C506 1.502 . S
C508 H494 0.960 . S
C508 H495 0.961 . S
C508 H496 0.959 . S
C508 C506 1.561 . S
C509 C506 1.526 . S
C509 C510 1.396 1_554 S
C509 C514 1.390 . S
C510 C504 1.465 . S
C510 C509 1.396 1_556 S
C510 C511 1.399 . S
C511 H497 0.929 . S
C511 C510 1.399 . S
C511 C512 1.385 . S
C512 H498 0.931 . S
C512 C511 1.385 . S
C512 C513 1.389 1_556 S
C513 C512 1.389 1_554 S
C513 C514 1.387 . S
C514 H499 0.930 . S
C514 C509 1.390 . S
C514 C513 1.387 . S
H515 C527 0.930 . S
H516 C529 0.930 . S
H517 C530 0.930 . S
H518 C534 0.959 . S
H519 C534 0.959 . S
H520 C534 0.961 . S
H521 C535 0.960 . S
H522 C535 0.961 . S
H523 C535 0.959 . S
H524 C538 0.929 . S
H525 C539 0.931 . S
H526 C541 0.930 . S
C527 H515 0.930 . S
C527 C528 1.399 . S
C527 C532 1.399 . S
C528 C527 1.399 . S
C528 C529 1.376 . S
C529 H516 0.930 . S
C529 C528 1.376 . S
C529 C530 1.388 . S
C530 H517 0.930 . S
C530 C529 1.388 . S
C530 C531 1.390 . S
C531 C530 1.390 . S
C531 C532 1.394 . S
C531 C537 1.465 . S
C532 C527 1.399 . S
C532 C531 1.394 . S
C532 C533 1.516 . S
C533 C532 1.516 . S
C533 C534 1.502 . S
C533 C535 1.561 . S
C533 C536 1.526 . S
C534 H518 0.959 . S
C534 H519 0.959 . S
C534 H520 0.961 . S
C534 C533 1.502 . S
C535 H521 0.960 . S
C535 H522 0.961 . S
C535 H523 0.959 . S
C535 C533 1.561 . S
C536 C533 1.526 . S
C536 C537 1.396 . S
C536 C541 1.390 . S
C537 C531 1.465 . S
C537 C536 1.396 . S
C537 C538 1.399 . S
C538 H524 0.929 . S
C538 C537 1.399 . S
C538 C539 1.385 . S
C539 H525 0.931 . S
C539 C538 1.385 . S
C539 C540 1.389 . S
C540 C539 1.389 . S
C540 C541 1.387 . S
C541 H526 0.930 . S
C541 C536 1.390 . S
C541 C540 1.387 . S
H542 C554 0.930 . S
H543 C556 0.930 . S
H544 C557 0.930 . S
H545 C561 0.959 . S
H546 C561 0.959 . S
H547 C561 0.961 1_545 S
H548 C562 0.960 . S
H549 C562 0.961 . S
H550 C562 0.959 . S
H551 C565 0.929 . S
H552 C566 0.931 . S
H553 C568 0.930 . S
C554 H542 0.930 . S
C554 C555 1.399 . S
C554 C559 1.399 . S
C555 C554 1.399 . S
C555 C556 1.376 1_556 S
C556 H543 0.930 . S
C556 C555 1.376 1_554 S
C556 C557 1.388 . S
C557 H544 0.930 . S
C557 C556 1.388 . S
C557 C558 1.390 . S
C558 C557 1.390 . S
C558 C559 1.394 1_554 S
C558 C564 1.465 1_545 S
C559 C554 1.399 . S
C559 C558 1.394 1_556 S
C559 C560 1.516 1_545 S
C560 C559 1.516 1_565 S
C560 C561 1.502 . S
C560 C562 1.561 . S
C560 C563 1.526 . S
C561 H545 0.959 . S
C561 H546 0.959 . S
C561 H547 0.961 1_565 S
C561 C560 1.502 . S
C562 H548 0.960 . S
C562 H549 0.961 . S
C562 H550 0.959 . S
C562 C560 1.561 . S
C563 C560 1.526 . S
C563 C564 1.396 1_556 S
C563 C568 1.390 . S
C564 C558 1.465 1_565 S
C564 C563 1.396 1_554 S
C564 C565 1.399 . S
C565 H551 0.929 . S
C565 C564 1.399 . S
C565 C566 1.385 . S
C566 H552 0.931 . S
C566 C565 1.385 . S
C566 C567 1.389 . S
C567 C566 1.389 . S
C567 C568 1.387 1_554 S
C568 H553 0.930 . S
C568 C563 1.390 . S
C568 C567 1.387 1_556 S
H569 C581 0.930 . S
H570 C583 0.930 . S
H571 C584 0.930 . S
H572 C588 0.959 . S
H573 C588 0.959 . S
H574 C588 0.961 . S
H575 C589 0.960 . S
H576 C589 0.961 . S
H577 C589 0.959 . S
H578 C592 0.929 . S
H579 C593 0.931 . S
H580 C595 0.930 . S
C581 H569 0.930 . S
C581 C582 1.399 . S
C581 C586 1.399 . S
C582 C581 1.399 . S
C582 C583 1.376 . S
C583 H570 0.930 . S
C583 C582 1.376 . S
C583 C584 1.388 . S
C584 H571 0.930 . S
C584 C583 1.388 . S
C584 C585 1.390 . S
C585 C584 1.390 . S
C585 C586 1.394 . S
C585 C591 1.465 1_565 S
C586 C581 1.399 . S
C586 C585 1.394 . S
C586 C587 1.516 . S
C587 C586 1.516 . S
C587 C588 1.502 1_455 S
C587 C589 1.561 . S
C587 C590 1.526 1_565 S
C588 H572 0.959 . S
C588 H573 0.959 . S
C588 H574 0.961 . S
C588 C587 1.502 1_655 S
C589 H575 0.960 . S
C589 H576 0.961 . S
C589 H577 0.959 . S
C589 C587 1.561 . S
C590 C587 1.526 1_545 S
C590 C591 1.396 . S
C590 C595 1.390 . S
C591 C585 1.465 1_545 S
C591 C590 1.396 . S
C591 C592 1.399 . S
C592 H578 0.929 . S
C592 C591 1.399 . S
C592 C593 1.385 . S
C593 H579 0.931 . S
C593 C592 1.385 . S
C593 C594 1.389 . S
C594 C593 1.389 . S
C594 C595 1.387 . S
C595 H580 0.930 . S
C595 C590 1.390 . S
C595 C594 1.387 . S
H596 C608 0.930 . S
H597 C610 0.930 . S
H598 C611 0.930 . S
H599 C615 0.959 . S
H600 C615 0.959 . S
H601 C615 0.961 . S
H602 C616 0.960 . S
H603 C616 0.961 . S
H604 C616 0.959 . S
H605 C619 0.929 1_554 S
H606 C620 0.931 . S
H607 C622 0.930 . S
C608 H596 0.930 . S
C608 C609 1.399 1_556 S
C608 C613 1.399 . S
C609 C608 1.399 1_554 S
C609 C610 1.376 . S
C610 H597 0.930 . S
C610 C609 1.376 . S
C610 C611 1.388 . S
C611 H598 0.930 . S
C611 C610 1.388 . S
C611 C612 1.390 1_554 S
C612 C611 1.390 1_556 S
C612 C613 1.394 . S
C612 C618 1.465 . S
C613 C608 1.399 . S
C613 C612 1.394 . S
C613 C614 1.516 . S
C614 C613 1.516 . S
C614 C615 1.502 . S
C614 C616 1.561 . S
C614 C617 1.526 . S
C615 H599 0.959 . S
C615 H600 0.959 . S
C615 H601 0.961 . S
C615 C614 1.502 . S
C616 H602 0.960 . S
C616 H603 0.961 . S
C616 H604 0.959 . S
C616 C614 1.561 . S
C617 C614 1.526 . S
C617 C618 1.396 . S
C617 C622 1.390 . S
C618 C612 1.465 . S
C618 C617 1.396 . S
C618 C619 1.399 . S
C619 H605 0.929 1_556 S
C619 C618 1.399 . S
C619 C620 1.385 . S
C620 H606 0.931 . S
C620 C619 1.385 . S
C620 C621 1.389 . S
C621 C620 1.389 . S
C621 C622 1.387 . S
C622 H607 0.930 . S
C622 C617 1.390 . S
C622 C621 1.387 . S
H623 C635 0.930 . S
H624 C637 0.930 . S
H625 C638 0.930 . S
H626 C642 0.959 . S
H627 C642 0.959 . S
H628 C642 0.961 . S
H629 C643 0.960 . S
H630 C643 0.961 . S
H631 C643 0.959 . S
H632 C646 0.929 . S
H633 C647 0.931 . S
H634 C649 0.930 . S
C635 H623 0.930 . S
C635 C636 1.399 . S
C635 C640 1.399 . S
C636 C635 1.399 . S
C636 C637 1.376 . S
C637 H624 0.930 . S
C637 C636 1.376 . S
C637 C638 1.388 . S
C638 H625 0.930 . S
C638 C637 1.388 . S
C638 C639 1.390 . S
C639 C638 1.390 . S
C639 C640 1.394 . S
C639 C645 1.465 . S
C640 C635 1.399 . S
C640 C639 1.394 . S
C640 C641 1.516 . S
C641 C640 1.516 . S
C641 C642 1.502 . S
C641 C643 1.561 . S
C641 C644 1.526 . S
C642 H626 0.959 . S
C642 H627 0.959 . S
C642 H628 0.961 . S
C642 C641 1.502 . S
C643 H629 0.960 . S
C643 H630 0.961 . S
C643 H631 0.959 . S
C643 C641 1.561 . S
C644 C641 1.526 . S
C644 C645 1.396 . S
C644 C649 1.390 . S
C645 C639 1.465 . S
C645 C644 1.396 . S
C645 C646 1.399 . S
C646 H632 0.929 . S
C646 C645 1.399 . S
C646 C647 1.385 . S
C647 H633 0.931 . S
C647 C646 1.385 . S
C647 C648 1.389 . S
C648 C647 1.389 . S
C648 C649 1.387 . S
C649 H634 0.930 . S
C649 C644 1.390 . S
C649 C648 1.387 . S
H650 C662 0.930 . S
H651 C664 0.930 . S
H652 C665 0.930 1_556 S
H653 C669 0.959 . S
H654 C669 0.959 . S
H655 C669 0.961 . S
H656 C670 0.960 . S
H657 C670 0.961 . S
H658 C670 0.959 . S
H659 C673 0.929 . S
H660 C674 0.931 . S
H661 C676 0.930 . S
C662 H650 0.930 . S
C662 C663 1.399 . S
C662 C667 1.399 . S
C663 C662 1.399 . S
C663 C664 1.376 . S
C664 H651 0.930 . S
C664 C663 1.376 . S
C664 C665 1.388 . S
C665 H652 0.930 1_554 S
C665 C664 1.388 . S
C665 C666 1.390 . S
C666 C665 1.390 . S
C666 C667 1.394 . S
C666 C672 1.465 . S
C667 C662 1.399 . S
C667 C666 1.394 . S
C667 C668 1.516 . S
C668 C667 1.516 . S
C668 C669 1.502 . S
C668 C670 1.561 . S
C668 C671 1.526 . S
C669 H653 0.959 . S
C669 H654 0.959 . S
C669 H655 0.961 . S
C669 C668 1.502 . S
C670 H656 0.960 . S
C670 H657 0.961 . S
C670 H658 0.959 . S
C670 C668 1.561 . S
C671 C668 1.526 . S
C671 C672 1.396 . S
C671 C676 1.390 . S
C672 C666 1.465 . S
C672 C671 1.396 . S
C672 C673 1.399 1_554 S
C673 H659 0.929 . S
C673 C672 1.399 1_556 S
C673 C674 1.385 . S
C674 H660 0.931 . S
C674 C673 1.385 . S
C674 C675 1.389 . S
C675 C674 1.389 . S
C675 C676 1.387 1_556 S
C676 H661 0.930 . S
C676 C671 1.390 . S
C676 C675 1.387 1_554 S
H677 C689 0.930 . S
H678 C691 0.930 . S
H679 C692 0.930 . S
H680 C696 0.959 . S
H681 C696 0.959 . S
H682 C696 0.961 . S
H683 C697 0.960 . S
H684 C697 0.961 . S
H685 C697 0.959 . S
H686 C700 0.929 . S
H687 C701 0.931 . S
H688 C703 0.930 . S
C689 H677 0.930 . S
C689 C690 1.399 . S
C689 C694 1.399 . S
C690 C689 1.399 . S
C690 C691 1.376 . S
C691 H678 0.930 . S
C691 C690 1.376 . S
C691 C692 1.388 . S
C692 H679 0.930 . S
C692 C691 1.388 . S
C692 C693 1.390 . S
C693 C692 1.390 . S
C693 C694 1.394 . S
C693 C699 1.465 . S
C694 C689 1.399 . S
C694 C693 1.394 . S
C694 C695 1.516 . S
C695 C694 1.516 . S
C695 C696 1.502 . S
C695 C697 1.561 . S
C695 C698 1.526 . S
C696 H680 0.959 . S
C696 H681 0.959 . S
C696 H682 0.961 . S
C696 C695 1.502 . S
C697 H683 0.960 . S
C697 H684 0.961 . S
C697 H685 0.959 . S
C697 C695 1.561 . S
C698 C695 1.526 . S
C698 C699 1.396 . S
C698 C703 1.390 . S
C699 C693 1.465 . S
C699 C698 1.396 . S
C699 C700 1.399 . S
C700 H686 0.929 . S
C700 C699 1.399 . S
C700 C701 1.385 . S
C701 H687 0.931 . S
C701 C700 1.385 . S
C701 C702 1.389 . S
C702 C701 1.389 . S
C702 C703 1.387 . S
C703 H688 0.930 . S
C703 C698 1.390 . S
C703 C702 1.387 . S
H704 C716 0.930 . S
H705 C718 0.930 . S
H706 C719 0.930 . S
H707 C723 0.959 . S
H708 C723 0.959 . S
H709 C723 0.961 . S
H710 C724 0.960 . S
H711 C724 0.961 . S
H712 C724 0.959 1_554 S
H713 C727 0.929 . S
H714 C728 0.931 . S
H715 C730 0.930 . S
C716 H704 0.930 . S
C716 C717 1.399 . S
C716 C721 1.399 . S
C717 C716 1.399 . S
C717 C718 1.376 . S
C718 H705 0.930 . S
C718 C717 1.376 . S
C718 C719 1.388 . S
C719 H706 0.930 . S
C719 C718 1.388 . S
C719 C720 1.390 . S
C720 C719 1.390 . S
C720 C721 1.394 . S
C720 C726 1.465 . S
C721 C716 1.399 . S
C721 C720 1.394 . S
C721 C722 1.516 . S
C722 C721 1.516 . S
C722 C723 1.502 . S
C722 C724 1.561 . S
C722 C725 1.526 . S
C723 H707 0.959 . S
C723 H708 0.959 . S
C723 H709 0.961 . S
C723 C722 1.502 . S
C724 H710 0.960 . S
C724 H711 0.961 . S
C724 H712 0.959 1_556 S
C724 C722 1.561 . S
C725 C722 1.526 . S
C725 C726 1.396 . S
C725 C730 1.390 . S
C726 C720 1.465 . S
C726 C725 1.396 . S
C726 C727 1.399 . S
C727 H713 0.929 . S
C727 C726 1.399 . S
C727 C728 1.385 1_556 S
C728 H714 0.931 . S
C728 C727 1.385 1_554 S
C728 C729 1.389 . S
C729 C728 1.389 . S
C729 C730 1.387 1_554 S
C730 H715 0.930 . S
C730 C725 1.390 . S
C730 C729 1.387 1_556 S
H731 C743 0.930 . S
H732 C745 0.930 . S
H733 C746 0.930 . S
H734 C750 0.959 . S
H735 C750 0.959 . S
H736 C750 0.961 . S
H737 C751 0.960 . S
H738 C751 0.961 . S
H739 C751 0.959 . S
H740 C754 0.929 . S
H741 C755 0.931 . S
H742 C757 0.930 . S
C743 H731 0.930 . S
C743 C744 1.399 . S
C743 C748 1.399 . S
C744 C743 1.399 . S
C744 C745 1.376 . S
C745 H732 0.930 . S
C745 C744 1.376 . S
C745 C746 1.388 . S
C746 H733 0.930 . S
C746 C745 1.388 . S
C746 C747 1.390 . S
C747 C746 1.390 . S
C747 C748 1.394 . S
C747 C753 1.465 . S
C748 C743 1.399 . S
C748 C747 1.394 . S
C748 C749 1.516 . S
C749 C748 1.516 . S
C749 C750 1.502 . S
C749 C751 1.561 . S
C749 C752 1.526 . S
C750 H734 0.959 . S
C750 H735 0.959 . S
C750 H736 0.961 . S
C750 C749 1.502 . S
C751 H737 0.960 . S
C751 H738 0.961 . S
C751 H739 0.959 . S
C751 C749 1.561 . S
C752 C749 1.526 . S
C752 C753 1.396 . S
C752 C757 1.390 . S
C753 C747 1.465 . S
C753 C752 1.396 . S
C753 C754 1.399 . S
C754 H740 0.929 . S
C754 C753 1.399 . S
C754 C755 1.385 . S
C755 H741 0.931 . S
C755 C754 1.385 . S
C755 C756 1.389 . S
C756 C755 1.389 . S
C756 C757 1.387 . S
C757 H742 0.930 . S
C757 C752 1.390 . S
C757 C756 1.387 . S
H758 C770 0.930 . S
H759 C772 0.930 . S
H760 C773 0.930 . S
H761 C777 0.959 1_554 S
H762 C777 0.959 . S
H763 C777 0.961 . S
H764 C778 0.960 . S
H765 C778 0.961 . S
H766 C778 0.959 . S
H767 C781 0.929 . S
H768 C782 0.931 . S
H769 C784 0.930 . S
C770 H758 0.930 . S
C770 C771 1.399 . S
C770 C775 1.399 . S
C771 C770 1.399 . S
C771 C772 1.376 . S
C772 H759 0.930 . S
C772 C771 1.376 . S
C772 C773 1.388 . S
C773 H760 0.930 . S
C773 C772 1.388 . S
C773 C774 1.390 . S
C774 C773 1.390 . S
C774 C775 1.394 . S
C774 C780 1.465 . S
C775 C770 1.399 . S
C775 C774 1.394 . S
C775 C776 1.516 1_554 S
C776 C775 1.516 1_556 S
C776 C777 1.502 . S
C776 C778 1.561 . S
C776 C779 1.526 1_556 S
C777 H761 0.959 1_556 S
C777 H762 0.959 . S
C777 H763 0.961 . S
C777 C776 1.502 . S
C778 H764 0.960 . S
C778 H765 0.961 . S
C778 H766 0.959 . S
C778 C776 1.561 . S
C779 C776 1.526 1_554 S
C779 C780 1.396 . S
C779 C784 1.390 1_554 S
C780 C774 1.465 . S
C780 C779 1.396 . S
C780 C781 1.399 . S
C781 H767 0.929 . S
C781 C780 1.399 . S
C781 C782 1.385 . S
C782 H768 0.931 . S
C782 C781 1.385 . S
C782 C783 1.389 . S
C783 C782 1.389 . S
C783 C784 1.387 1_554 S
C784 H769 0.930 . S
C784 C779 1.390 1_556 S
C784 C783 1.387 1_556 S
H785 C797 0.930 . S
H786 C799 0.930 . S
H787 C800 0.930 . S
H788 C804 0.959 . S
H789 C804 0.959 . S
H790 C804 0.961 . S
H791 C805 0.960 . S
H792 C805 0.961 . S
H793 C805 0.959 . S
H794 C808 0.929 . S
H795 C809 0.931 . S
H796 C811 0.930 . S
C797 H785 0.930 . S
C797 C798 1.399 . S
C797 C802 1.399 . S
C798 C797 1.399 . S
C798 C799 1.376 . S
C799 H786 0.930 . S
C799 C798 1.376 . S
C799 C800 1.388 . S
C800 H787 0.930 . S
C800 C799 1.388 . S
C800 C801 1.390 . S
C801 C800 1.390 . S
C801 C802 1.394 . S
C801 C807 1.465 . S
C802 C797 1.399 . S
C802 C801 1.394 . S
C802 C803 1.516 . S
C803 C802 1.516 . S
C803 C804 1.502 . S
C803 C805 1.561 . S
C803 C806 1.526 . S
C804 H788 0.959 . S
C804 H789 0.959 . S
C804 H790 0.961 . S
C804 C803 1.502 . S
C805 H791 0.960 . S
C805 H792 0.961 . S
C805 H793 0.959 . S
C805 C803 1.561 . S
C806 C803 1.526 . S
C806 C807 1.396 . S
C806 C811 1.390 . S
C807 C801 1.465 . S
C807 C806 1.396 . S
C807 C808 1.399 . S
C808 H794 0.929 . S
C808 C807 1.399 . S
C808 C809 1.385 . S
C809 H795 0.931 . S
C809 C808 1.385 . S
C809 C810 1.389 . S
C810 C809 1.389 . S
C810 C811 1.387 . S
C811 H796 0.930 . S
C811 C806 1.390 . S
C811 C810 1.387 . S
H812 C824 0.930 . S
H813 C826 0.930 . S
H814 C827 0.930 . S
H815 C831 0.959 . S
H816 C831 0.959 . S
H817 C831 0.961 . S
H818 C832 0.960 . S
H819 C832 0.961 . S
H820 C832 0.959 . S
H821 C835 0.929 . S
H822 C836 0.931 . S
H823 C838 0.930 . S
C824 H812 0.930 . S
C824 C825 1.399 . S
C824 C829 1.399 . S
C825 C824 1.399 . S
C825 C826 1.376 . S
C826 H813 0.930 . S
C826 C825 1.376 . S
C826 C827 1.388 . S
C827 H814 0.930 . S
C827 C826 1.388 . S
C827 C828 1.390 . S
C828 C827 1.390 . S
C828 C829 1.394 . S
C828 C834 1.465 . S
C829 C824 1.399 . S
C829 C828 1.394 . S
C829 C830 1.516 . S
C830 C829 1.516 . S
C830 C831 1.502 . S
C830 C832 1.561 . S
C830 C833 1.526 . S
C831 H815 0.959 . S
C831 H816 0.959 . S
C831 H817 0.961 . S
C831 C830 1.502 . S
C832 H818 0.960 . S
C832 H819 0.961 . S
C832 H820 0.959 . S
C832 C830 1.561 . S
C833 C830 1.526 . S
C833 C834 1.396 . S
C833 C838 1.390 . S
C834 C828 1.465 . S
C834 C833 1.396 . S
C834 C835 1.399 . S
C835 H821 0.929 . S
C835 C834 1.399 . S
C835 C836 1.385 . S
C836 H822 0.931 . S
C836 C835 1.385 . S
C836 C837 1.389 . S
C837 C836 1.389 . S
C837 C838 1.387 . S
C838 H823 0.930 . S
C838 C833 1.390 . S
C838 C837 1.387 . S
H839 C851 0.930 . S
H840 C853 0.930 . S
H841 C854 0.930 . S
H842 C858 0.959 . S
H843 C858 0.959 . S
H844 C858 0.961 . S
H845 C859 0.960 . S
H846 C859 0.961 . S
H847 C859 0.959 . S
H848 C862 0.929 . S
H849 C863 0.931 . S
H850 C865 0.930 . S
C851 H839 0.930 . S
C851 C852 1.399 . S
C851 C856 1.399 . S
C852 C851 1.399 . S
C852 C853 1.376 . S
C853 H840 0.930 . S
C853 C852 1.376 . S
C853 C854 1.388 . S
C854 H841 0.930 . S
C854 C853 1.388 . S
C854 C855 1.390 . S
C855 C854 1.390 . S
C855 C856 1.394 . S
C855 C861 1.465 . S
C856 C851 1.399 . S
C856 C855 1.394 . S
C856 C857 1.516 . S
C857 C856 1.516 . S
C857 C858 1.502 . S
C857 C859 1.561 . S
C857 C860 1.526 . S
C858 H842 0.959 . S
C858 H843 0.959 . S
C858 H844 0.961 . S
C858 C857 1.502 . S
C859 H845 0.960 . S
C859 H846 0.961 . S
C859 H847 0.959 . S
C859 C857 1.561 . S
C860 C857 1.526 . S
C860 C861 1.396 . S
C860 C865 1.390 1_554 S
C861 C855 1.465 . S
C861 C860 1.396 . S
C861 C862 1.399 . S
C862 H848 0.929 . S
C862 C861 1.399 . S
C862 C863 1.385 1_554 S
C863 H849 0.931 . S
C863 C862 1.385 1_556 S
C863 C864 1.389 . S
C864 C863 1.389 . S
C864 C865 1.387 . S
C865 H850 0.930 . S
C865 C860 1.390 1_556 S
C865 C864 1.387 . S
H866 C878 0.930 . S
H867 C880 0.930 . S
H868 C881 0.930 . S
H869 C885 0.959 . S
H870 C885 0.959 . S
H871 C885 0.961 . S
H872 C886 0.960 . S
H873 C886 0.961 . S
H874 C886 0.959 . S
H875 C889 0.929 . S
H876 C890 0.931 . S
H877 C892 0.930 . S
C878 H866 0.930 . S
C878 C879 1.399 . S
C878 C883 1.399 . S
C879 C878 1.399 . S
C879 C880 1.376 . S
C880 H867 0.930 . S
C880 C879 1.376 . S
C880 C881 1.388 . S
C881 H868 0.930 . S
C881 C880 1.388 . S
C881 C882 1.390 . S
C882 C881 1.390 . S
C882 C883 1.394 . S
C882 C888 1.465 . S
C883 C878 1.399 . S
C883 C882 1.394 . S
C883 C884 1.516 . S
C884 C883 1.516 . S
C884 C885 1.502 . S
C884 C886 1.561 . S
C884 C887 1.526 . S
C885 H869 0.959 . S
C885 H870 0.959 . S
C885 H871 0.961 . S
C885 C884 1.502 . S
C886 H872 0.960 . S
C886 H873 0.961 . S
C886 H874 0.959 . S
C886 C884 1.561 . S
C887 C884 1.526 . S
C887 C888 1.396 . S
C887 C892 1.390 . S
C888 C882 1.465 . S
C888 C887 1.396 . S
C888 C889 1.399 . S
C889 H875 0.929 . S
C889 C888 1.399 . S
C889 C890 1.385 . S
C890 H876 0.931 . S
C890 C889 1.385 . S
C890 C891 1.389 . S
C891 C890 1.389 . S
C891 C892 1.387 . S
C892 H877 0.930 . S
C892 C887 1.390 . S
C892 C891 1.387 . S
H893 C905 0.930 . S
H894 C907 0.930 . S
H895 C908 0.930 . S
H896 C912 0.959 . S
H897 C912 0.959 . S
H898 C912 0.961 . S
H899 C913 0.960 . S
H900 C913 0.961 . S
H901 C913 0.959 . S
H902 C916 0.929 . S
H903 C917 0.931 . S
H904 C919 0.930 . S
C905 H893 0.930 . S
C905 C906 1.399 . S
C905 C910 1.399 . S
C906 C905 1.399 . S
C906 C907 1.376 . S
C907 H894 0.930 . S
C907 C906 1.376 . S
C907 C908 1.388 . S
C908 H895 0.930 . S
C908 C907 1.388 . S
C908 C909 1.390 . S
C909 C908 1.390 . S
C909 C910 1.394 . S
C909 C915 1.465 . S
C910 C905 1.399 . S
C910 C909 1.394 . S
C910 C911 1.516 . S
C911 C910 1.516 . S
C911 C912 1.502 . S
C911 C913 1.561 . S
C911 C914 1.526 . S
C912 H896 0.959 . S
C912 H897 0.959 . S
C912 H898 0.961 . S
C912 C911 1.502 . S
C913 H899 0.960 . S
C913 H900 0.961 . S
C913 H901 0.959 . S
C913 C911 1.561 . S
C914 C911 1.526 . S
C914 C915 1.396 . S
C914 C919 1.390 1_556 S
C915 C909 1.465 . S
C915 C914 1.396 . S
C915 C916 1.399 . S
C916 H902 0.929 . S
C916 C915 1.399 . S
C916 C917 1.385 1_556 S
C917 H903 0.931 . S
C917 C916 1.385 1_554 S
C917 C918 1.389 . S
C918 C917 1.389 . S
C918 C919 1.387 . S
C919 H904 0.930 . S
C919 C914 1.390 1_554 S
C919 C918 1.387 . S
H920 C932 0.930 . S
H921 C934 0.930 . S
H922 C935 0.930 . S
H923 C939 0.959 . S
H924 C939 0.959 . S
H925 C939 0.961 . S
H926 C940 0.960 . S
H927 C940 0.961 . S
H928 C940 0.959 . S
H929 C943 0.929 . S
H930 C944 0.931 . S
H931 C946 0.930 . S
C932 H920 0.930 . S
C932 C933 1.399 . S
C932 C937 1.399 . S
C933 C932 1.399 . S
C933 C934 1.376 . S
C934 H921 0.930 . S
C934 C933 1.376 . S
C934 C935 1.388 . S
C935 H922 0.930 . S
C935 C934 1.388 . S
C935 C936 1.390 . S
C936 C935 1.390 . S
C936 C937 1.394 . S
C936 C942 1.465 . S
C937 C932 1.399 . S
C937 C936 1.394 . S
C937 C938 1.516 . S
C938 C937 1.516 . S
C938 C939 1.502 . S
C938 C940 1.561 . S
C938 C941 1.526 . S
C939 H923 0.959 . S
C939 H924 0.959 . S
C939 H925 0.961 . S
C939 C938 1.502 . S
C940 H926 0.960 . S
C940 H927 0.961 . S
C940 H928 0.959 . S
C940 C938 1.561 . S
C941 C938 1.526 . S
C941 C942 1.396 . S
C941 C946 1.390 . S
C942 C936 1.465 . S
C942 C941 1.396 . S
C942 C943 1.399 . S
C943 H929 0.929 . S
C943 C942 1.399 . S
C943 C944 1.385 . S
C944 H930 0.931 . S
C944 C943 1.385 . S
C944 C945 1.389 . S
C945 C944 1.389 . S
C945 C946 1.387 . S
C946 H931 0.930 . S
C946 C941 1.390 . S
C946 C945 1.387 . S
H947 C959 0.930 . S
H948 C961 0.930 . S
H949 C962 0.930 . S
H950 C966 0.959 . S
H951 C966 0.959 . S
H952 C966 0.961 . S
H953 C967 0.960 . S
H954 C967 0.961 . S
H955 C967 0.941 1_655 S
H956 C970 0.929 . S
H957 C971 0.931 . S
H958 C973 0.930 . S
C959 H947 0.930 . S
C959 C960 1.399 . S
C959 C964 1.399 . S
C960 C959 1.399 . S
C960 C961 1.376 . S
C961 H948 0.930 . S
C961 C960 1.376 . S
C961 C962 1.388 . S
C962 H949 0.930 . S
C962 C961 1.388 . S
C962 C963 1.390 . S
C963 C962 1.390 . S
C963 C964 1.394 . S
C963 C969 1.465 . S
C964 C959 1.399 . S
C964 C963 1.394 . S
C964 C965 1.516 . S
C965 C964 1.516 . S
C965 C966 1.502 . S
C965 C967 1.561 . S
C965 C968 1.526 . S
C966 H950 0.959 . S
C966 H951 0.959 . S
C966 H952 0.961 . S
C966 C965 1.502 . S
C967 H953 0.960 . S
C967 H954 0.961 . S
C967 H955 0.941 1_455 S
C967 C965 1.561 . S
C968 C965 1.526 . S
C968 C969 1.396 . S
C968 C973 1.390 1_554 S
C969 C963 1.465 . S
C969 C968 1.396 . S
C969 C970 1.399 . S
C970 H956 0.929 . S
C970 C969 1.399 . S
C970 C971 1.385 1_554 S
C971 H957 0.931 . S
C971 C970 1.385 1_556 S
C971 C972 1.389 . S
C972 C971 1.389 . S
C972 C973 1.387 . S
C973 H958 0.930 . S
C973 C968 1.390 1_556 S
C973 C972 1.387 . S
H974 C986 0.930 . S
H975 C988 0.930 . S
H976 C989 0.930 . S
H977 C993 0.959 . S
H978 C993 0.959 . S
H979 C993 0.961 . S
H980 C994 0.960 . S
H981 C994 0.961 . S
H982 C994 0.959 . S
H983 C997 0.929 . S
H984 C998 0.931 . S
H985 C1000 0.930 . S
C986 H974 0.930 . S
C986 C987 1.399 . S
C986 C991 1.399 . S
C987 C986 1.399 . S
C987 C988 1.376 . S
C988 H975 0.930 . S
C988 C987 1.376 . S
C988 C989 1.388 . S
C989 H976 0.930 . S
C989 C988 1.388 . S
C989 C990 1.390 . S
C990 C989 1.390 . S
C990 C991 1.394 . S
C990 C996 1.465 . S
C991 C986 1.399 . S
C991 C990 1.394 . S
C991 C992 1.516 . S
C992 C991 1.516 . S
C992 C993 1.502 . S
C992 C994 1.561 . S
C992 C995 1.526 . S
C993 H977 0.959 . S
C993 H978 0.959 . S
C993 H979 0.961 . S
C993 C992 1.502 . S
C994 H980 0.960 . S
C994 H981 0.961 . S
C994 H982 0.959 . S
C994 C992 1.561 . S
C995 C992 1.526 . S
C995 C996 1.396 . S
C995 C1000 1.390 . S
C996 C990 1.465 . S
C996 C995 1.396 . S
C996 C997 1.399 . S
C997 H983 0.929 . S
C997 C996 1.399 . S
C997 C998 1.385 . S
C998 H984 0.931 . S
C998 C997 1.385 . S
C998 C999 1.389 . S
C999 C998 1.389 . S
C999 C1000 1.387 . S
C1000 H985 0.930 . S
C1000 C995 1.390 . S
C1000 C999 1.387 . S
H1001 C1013 0.930 . S
H1002 C1015 0.930 . S
H1003 C1016 0.930 . S
H1004 C1020 0.959 . S
H1005 C1020 0.959 . S
H1006 C1020 0.961 . S
H1007 C1021 0.960 . S
H1008 C1021 0.961 . S
H1009 C1021 0.959 1_655 S
H1010 C1024 0.929 . S
H1011 C1025 0.931 . S
H1012 C1027 0.930 . S
C1013 H1001 0.930 . S
C1013 C1014 1.399 . S
C1013 C1018 1.399 . S
C1014 C1013 1.399 . S
C1014 C1015 1.376 . S
C1015 H1002 0.930 . S
C1015 C1014 1.376 . S
C1015 C1016 1.388 . S
C1016 H1003 0.930 . S
C1016 C1015 1.388 . S
C1016 C1017 1.390 . S
C1017 C1016 1.390 . S
C1017 C1018 1.394 . S
C1017 C1023 1.465 . S
C1018 C1013 1.399 . S
C1018 C1017 1.394 . S
C1018 C1019 1.516 . S
C1019 C1018 1.516 . S
C1019 C1020 1.502 . S
C1019 C1021 1.561 . S
C1019 C1022 1.526 . S
C1020 H1004 0.959 . S
C1020 H1005 0.959 . S
C1020 H1006 0.961 . S
C1020 C1019 1.502 . S
C1021 H1007 0.960 . S
C1021 H1008 0.961 . S
C1021 H1009 0.959 1_455 S
C1021 C1019 1.561 . S
C1022 C1019 1.526 . S
C1022 C1023 1.396 . S
C1022 C1027 1.390 1_556 S
C1023 C1017 1.465 . S
C1023 C1022 1.396 . S
C1023 C1024 1.399 . S
C1024 H1010 0.929 . S
C1024 C1023 1.399 . S
C1024 C1025 1.385 1_556 S
C1025 H1011 0.931 . S
C1025 C1024 1.385 1_554 S
C1025 C1026 1.389 . S
C1026 C1025 1.389 . S
C1026 C1027 1.387 . S
C1027 H1012 0.930 . S
C1027 C1022 1.390 1_554 S
C1027 C1026 1.387 . S
C285 C124 0.885 . S
C297 C15 0.837 . S
C312 C90 0.881 . S
C324 C49 0.856 . S
C339 C56 2.598 . S
C351 C83 2.616 . S
C366 C22 2.591 . S
C378 C117 2.614 . S
C393 C151 0.673 . S
C405 C260 0.747 . S
C420 C185 0.850 . S
C432 C226 0.746 . S
C447 C192 2.568 . S
C459 C219 2.569 . S
C474 C158 2.601 . S
C486 C253 2.616 . S
C501 C74 1.485 . S
C513 C28 1.484 . S
C528 C108 1.492 . S
C540 C62 1.494 . S
C555 C210 1.493 . S
C567 C164 1.494 . S
C582 C244 1.487 . S
C594 C198 1.485 . S
C609 C1 1.160 . S
C621 C176 1.246 . S
C636 C35 1.206 . S
C648 C142 1.230 . S
C663 C266 1.239 . S
C675 C71 1.223 . S
C690 C232 1.237 . S
C702 C105 1.122 . S
C717 C40 1.245 . S
C729 C137 1.144 . S
C744 C6 1.239 . S
C756 C171 1.223 . S
C771 C130 1.238 . S
C783 C207 1.120 1_554 S
C798 C96 1.234 . S
C810 C241 1.137 . S
C825 C3 1.495 . S
C837 C17 1.619 . S
C852 C37 1.491 . S
C864 C51 1.618 . S
C879 C69 1.504 . S
C891 C85 1.621 . S
C906 C103 1.491 . S
C918 C119 1.671 . S
C933 C139 1.479 . S
C945 C153 1.617 . S
C960 C173 1.495 . S
C972 C187 1.619 . S
C987 C205 1.490 . S
C999 C221 1.671 . S
C1014 C239 1.492 . S
C1026 C255 1.618 . S
