# Generated by pormake.
# Topology snk, (6)-cn, num edge types: 1
# Building blocks:
#     Node 0, Type 0, BuildingBlock: PAMTUU_clean_sbu_0, # of connection points: 6
#     Node 1, Type 0, BuildingBlock: PAMTUU_clean_sbu_0, # of connection points: 6
#     Node 2, Type 0, BuildingBlock: PAMTUU_clean_sbu_0, # of connection points: 6
#     Node 3, Type 0, BuildingBlock: PAMTUU_clean_sbu_0, # of connection points: 6
#     Node 4, Type 0, BuildingBlock: PAMTUU_clean_sbu_0, # of connection points: 6
#     Node 5, Type 0, BuildingBlock: PAMTUU_clean_sbu_0, # of connection points: 6
#     Node 6, Type 0, BuildingBlock: PAMTUU_clean_sbu_0, # of connection points: 6
#     Node 7, Type 0, BuildingBlock: PAMTUU_clean_sbu_0, # of connection points: 6
#     Edge 8, Type (0, 0), BuildingBlock: MIFKUJ_clean_linker_0, # of connection points: 2
#     Edge 9, Type (0, 0), BuildingBlock: MIFKUJ_clean_linker_0, # of connection points: 2
#     Edge 10, Type (0, 0), BuildingBlock: MIFKUJ_clean_linker_0, # of connection points: 2
#     Edge 11, Type (0, 0), BuildingBlock: MIFKUJ_clean_linker_0, # of connection points: 2
#     Edge 12, Type (0, 0), BuildingBlock: MIFKUJ_clean_linker_0, # of connection points: 2
#     Edge 13, Type (0, 0), BuildingBlock: MIFKUJ_clean_linker_0, # of connection points: 2
#     Edge 14, Type (0, 0), BuildingBlock: MIFKUJ_clean_linker_0, # of connection points: 2
#     Edge 15, Type (0, 0), BuildingBlock: MIFKUJ_clean_linker_0, # of connection points: 2
#     Edge 16, Type (0, 0), BuildingBlock: MIFKUJ_clean_linker_0, # of connection points: 2
#     Edge 17, Type (0, 0), BuildingBlock: MIFKUJ_clean_linker_0, # of connection points: 2
#     Edge 18, Type (0, 0), BuildingBlock: MIFKUJ_clean_linker_0, # of connection points: 2
#     Edge 19, Type (0, 0), BuildingBlock: MIFKUJ_clean_linker_0, # of connection points: 2
#     Edge 20, Type (0, 0), BuildingBlock: MIFKUJ_clean_linker_0, # of connection points: 2
#     Edge 21, Type (0, 0), BuildingBlock: MIFKUJ_clean_linker_0, # of connection points: 2
#     Edge 22, Type (0, 0), BuildingBlock: MIFKUJ_clean_linker_0, # of connection points: 2
#     Edge 23, Type (0, 0), BuildingBlock: MIFKUJ_clean_linker_0, # of connection points: 2
#     Edge 24, Type (0, 0), BuildingBlock: MIFKUJ_clean_linker_0, # of connection points: 2
#     Edge 25, Type (0, 0), BuildingBlock: MIFKUJ_clean_linker_0, # of connection points: 2
#     Edge 26, Type (0, 0), BuildingBlock: MIFKUJ_clean_linker_0, # of connection points: 2
#     Edge 27, Type (0, 0), BuildingBlock: MIFKUJ_clean_linker_0, # of connection points: 2
#     Edge 28, Type (0, 0), BuildingBlock: MIFKUJ_clean_linker_0, # of connection points: 2
#     Edge 29, Type (0, 0), BuildingBlock: MIFKUJ_clean_linker_0, # of connection points: 2
#     Edge 30, Type (0, 0), BuildingBlock: MIFKUJ_clean_linker_0, # of connection points: 2
#     Edge 31, Type (0, 0), BuildingBlock: MIFKUJ_clean_linker_0, # of connection points: 2
# Relax obj value: 0.065
# Max RMSD: 0.111
# Mean RMSD: 0.111
data_MOF--net-snk--node1-PAMTUU_clean_sbu_0--edge1-MIFKUJ_clean_linker_0
_symmetry_space_group_name_H-M    P1
_symmetry_Int_Tables_number       1
_symmetry_cell_setting            triclinic
loop_
_symmetry_equiv_pos_as_xyz
'x, y, z'
_cell_length_a     51.08915
_cell_length_b     51.279706
_cell_length_c     30.15152
_cell_angle_alpha  90.069161
_cell_angle_beta   90.033196
_cell_angle_gamma 89.786764
loop_
_atom_site_label
_atom_site_type_symbol
_atom_site_fract_x
_atom_site_fract_y
_atom_site_fract_z
_atom_type_partial_charge
Tb0 Tb 0.00394 0.00742 0.55313 0.0
Tb1 Tb -0.0033 0.97797 0.45517 0.0
C2 C 0.96851 0.03003 0.47684 0.0
C3 C 0.00878 0.02227 0.67563 0.0
C4 C 0.00776 0.0106 0.76718 0.0
C5 C 0.00821 0.03661 0.7524 0.0
C6 C 0.0087 0.04234 0.70715 0.0
C7 C 0.00874 -0.00378 0.68992 0.0
C8 C 0.00832 0.99042 0.73541 0.0
C9 C 0.00779 0.02924 0.6283 0.0
O10 O 0.98307 0.97161 0.56562 0.0
O11 O 0.9637 0.96739 0.4973 0.0
O12 O 0.01535 0.95016 0.49931 0.0
O13 O 0.03546 0.9792 0.54615 0.0
O14 O 0.97233 0.96778 0.40183 0.0
O15 O 0.01251 0.9546 0.4044 0.0
O16 O 0.03202 0.00137 0.45048 0.0
O17 O 0.02447 0.03161 0.50593 0.0
O18 O 0.97036 0.02453 0.51926 0.0
O19 O 0.98205 0.01731 0.44684 0.0
C20 C 0.9647 0.9621 0.53997 0.0
O21 O 0.02778 0.02259 0.6039 0.0
O22 O 0.98572 0.02484 0.60811 0.0
C23 C 0.0335 0.95589 0.52848 0.0
C24 C 0.99411 0.96123 0.33339 0.0
C25 C -0.00087 0.97071 0.24143 0.0
C26 C -0.00171 0.94507 0.25792 0.0
C27 C -0.00421 0.94041 0.30338 0.0
C28 C 0.99513 0.9869 0.31737 0.0
C29 C -0.00246 0.99161 0.27173 0.0
C30 C 0.99107 0.95552 0.38098 0.0
C31 C 0.03709 0.02364 0.4704 0.0
H32 H 0.00825 0.0526 0.77589 0.0
H33 H 0.00875 0.06256 0.69672 0.0
H34 H 0.00867 0.98044 0.66597 0.0
H35 H 0.00782 0.97019 0.74568 0.0
H36 H -0.00093 0.92853 0.23558 0.0
H37 H 0.99498 0.92047 0.31513 0.0
H38 H 0.994 0.00325 0.3401 0.0
H39 H -0.00161 0.01158 0.26021 0.0
Tb40 Tb 0.2242 0.74411 0.82662 0.0
Tb41 Tb 0.25582 0.74524 0.72954 0.0
C42 C 0.20627 0.71094 0.74421 0.0
C43 C 0.20744 0.7458 0.94845 0.0
C44 C 0.21823 0.74988 0.04029 0.0
C45 C 0.193 0.74341 0.02512 0.0
C46 C 0.1877 0.74142 0.97975 0.0
C47 C 0.2327 0.75221 0.96309 0.0
C48 C 0.23806 0.75422 1.00864 0.0
C49 C 0.20111 0.74321 0.90094 0.0
O50 O 0.26162 0.72537 0.83778 0.0
O51 O 0.27025 0.71167 0.76662 0.0
O52 O 0.28152 0.76351 0.77753 0.0
O53 O 0.25026 0.77754 0.82705 0.0
O54 O 0.27006 0.72508 0.67389 0.0
O55 O 0.27567 0.7666 0.68033 0.0
O56 O 0.22981 0.77884 0.7325 0.0
O57 O 0.1983 0.76306 0.77956 0.0
O58 O 0.21036 0.7113 0.78728 0.0
O59 O 0.21851 0.72678 0.71716 0.0
C60 C 0.27404 0.71017 0.80972 0.0
O61 O 0.20356 0.76407 0.87662 0.0
O62 O 0.2103 0.72258 0.88092 0.0
C63 C 0.27399 0.77866 0.81033 0.0
C64 C 0.27203 0.74955 0.60736 0.0
C65 C 0.26206 0.75276 0.51504 0.0
C66 C 0.28704 0.75832 0.53231 0.0
C67 C 0.29194 0.75668 0.57787 0.0
C68 C 0.24683 0.74469 0.59069 0.0
C69 C 0.24189 0.74627 0.54494 0.0
C70 C 0.27848 0.74625 0.6548 0.0
C71 C 0.20587 0.77917 0.74836 0.0
H72 H 0.17736 0.73945 0.04835 0.0
H73 H 0.16813 0.73629 0.96909 0.0
H74 H 0.24823 0.75565 0.93935 0.0
H75 H 0.25764 0.75943 0.01903 0.0
H76 H 0.30291 0.76391 0.51057 0.0
H77 H 0.31148 0.76065 0.59006 0.0
H78 H 0.23113 0.73919 0.6129 0.0
H79 H 0.22246 0.74171 0.53293 0.0
Tb80 Tb 0.49591 0.97023 0.08799 0.0
Tb81 Tb 0.49512 0.00069 0.99006 0.0
C82 C 0.52617 0.94978 1.00488 0.0
C83 C 0.49676 0.95306 0.20952 0.0
C84 C 0.49532 0.96353 0.30156 0.0
C85 C 0.50443 0.93936 0.28553 0.0
C86 C 0.50513 0.93422 0.24003 0.0
C87 C 0.48762 0.97726 0.22508 0.0
C88 C 0.48682 0.98242 0.27077 0.0
C89 C 0.49792 0.94691 0.16184 0.0
O90 O 0.51483 0.00725 0.09841 0.0
O91 O 0.5294 0.01364 0.02727 0.0
O92 O 0.476 0.0274 0.03516 0.0
O93 O 0.46492 -0.0007 0.09228 0.0
O94 O 0.51718 0.01268 0.93517 0.0
O95 O 0.47577 0.02103 0.93888 0.0
O96 O 0.45984 0.97727 0.99312 0.0
O97 O 0.473 0.94614 0.04343 0.0
O98 O 0.52801 0.95559 0.04719 0.0
O99 O 0.50942 0.96163 0.97895 0.0
C100 C 0.53042 0.01865 0.07002 0.0
O101 O 0.47647 0.95032 0.13905 0.0
O102 O 0.51843 0.95528 0.14053 0.0
C103 C 0.46264 0.02162 0.07103 0.0
C104 C 0.49381 0.01422 0.86741 0.0
C105 C 0.49056 0.00199 0.7761 0.0
C106 C 0.48268 0.02663 0.79194 0.0
C107 C 0.48433 0.03265 0.83707 0.0
C108 C 0.50123 0.98938 0.85206 0.0
C109 C 0.49968 0.98334 0.80676 0.0
C110 C 0.49675 0.02184 0.91434 0.0
C111 C 0.45726 0.95428 1.01181 0.0
H112 H 0.51073 0.92423 0.30821 0.0
H113 H 0.51219 0.91542 0.22862 0.0
H114 H 0.48118 0.99211 0.20194 0.0
H115 H 0.47992 0.0013 0.28195 0.0
H116 H 0.4759 0.04156 0.76927 0.0
H117 H 0.4786 0.05194 0.84822 0.0
H118 H 0.50851 0.97477 0.87494 0.0
H119 H 0.50562 0.9641 0.79575 0.0
Tb120 Tb 0.26183 0.24955 0.30913 0.0
Tb121 Tb 0.23148 0.24733 0.2108 0.0
C122 C 0.27973 0.28261 0.22672 0.0
C123 C 0.27831 0.25042 0.4311 0.0
C124 C 0.26785 0.24639 0.52288 0.0
C125 C 0.29328 0.25173 0.50753 0.0
C126 C 0.29842 0.25371 0.46215 0.0
C127 C 0.25285 0.24507 0.44594 0.0
C128 C 0.24765 0.24311 0.49149 0.0
C129 C 0.28444 0.253 0.38364 0.0
O130 O 0.22288 0.26493 0.31901 0.0
O131 O 0.21655 0.28041 0.24859 0.0
O132 O 0.20694 0.2256 0.25626 0.0
O133 O 0.23693 0.21537 0.31101 0.0
O134 O 0.2165 0.26831 0.15671 0.0
O135 O 0.21214 0.22653 0.1603 0.0
O136 O 0.25944 0.21536 0.21087 0.0
O137 O 0.2883 0.22925 0.26486 0.0
O138 O 0.27451 0.28265 0.26941 0.0
O139 O 0.2687 0.26603 0.19945 0.0
C140 C 0.21096 0.28047 0.29108 0.0
O141 O 0.28364 0.23173 0.35997 0.0
O142 O 0.2737 0.27265 0.36302 0.0
C143 C 0.21449 0.21167 0.29059 0.0
C144 C 0.21479 0.24534 0.08881 0.0
C145 C 0.22489 0.24393 0.99666 0.0
C146 C 0.19952 0.23954 1.01314 0.0
C147 C 0.19456 0.24027 0.0587 0.0
C148 C 0.24029 0.24924 0.07286 0.0
C149 C 0.24531 0.24852 0.02713 0.0
C150 C 0.2085 0.24736 0.13635 0.0
C151 C 0.28207 0.21393 0.23156 0.0
H152 H 0.30921 0.25482 0.53064 0.0
H153 H 0.31816 0.25799 0.45128 0.0
H154 H 0.23707 0.24245 0.42234 0.0
H155 H 0.22791 0.23874 0.50211 0.0
H156 H 0.18344 0.23547 0.99081 0.0
H157 H 0.17478 0.23712 0.07043 0.0
H158 H 0.25619 0.25321 0.09566 0.0
H159 H 0.26503 0.25217 1.01561 0.0
Tb160 Tb 0.72525 0.24294 0.32987 0.0
Tb161 Tb 0.75595 0.24377 0.23221 0.0
C162 C 0.70957 0.20553 0.25196 0.0
C163 C 0.70782 0.24252 0.45149 0.0
C164 C 0.71833 0.24214 0.54356 0.0
C165 C 0.69304 0.24769 0.52757 0.0
C166 C 0.68788 0.24788 0.48205 0.0
C167 C 0.73312 0.23682 0.46701 0.0
C168 C 0.73831 0.23655 0.51271 0.0
C169 C 0.7017 0.24347 0.40379 0.0
O170 O 0.75403 0.21161 0.33158 0.0
O171 O 0.78302 0.22529 0.27783 0.0
O172 O 0.7689 0.27736 0.27046 0.0
O173 O 0.76193 0.26271 0.34144 0.0
O174 O 0.77675 0.22506 0.18083 0.0
O175 O 0.76813 0.26629 0.17809 0.0
O176 O 0.71683 0.2587 0.22155 0.0
O177 O 0.71054 0.27562 0.29098 0.0
O178 O 0.70112 0.22078 0.28404 0.0
O179 O 0.73274 0.20848 0.23381 0.0
C180 C 0.77703 0.21057 0.31201 0.0
O181 O 0.70914 0.26434 0.38274 0.0
O182 O 0.70625 0.22239 0.3808 0.0
C183 C 0.77361 0.2783 0.3133 0.0
C184 C 0.77061 0.24374 0.10972 0.0
C185 C 0.75906 0.24102 1.01806 0.0
C186 C 0.78421 0.23476 0.03399 0.0
C187 C 0.78989 0.23612 0.07929 0.0
C188 C 0.74535 0.24976 0.09426 0.0
C189 C 0.73965 0.24847 0.04881 0.0
C190 C 0.77771 0.24621 0.15695 0.0
C191 C 0.70495 0.27488 0.24853 0.0
H192 H 0.6771 0.25166 0.55029 0.0
H193 H 0.66823 0.25227 0.47067 0.0
H194 H 0.74881 0.23274 0.44382 0.0
H195 H 0.75805 0.2324 0.52387 0.0
H196 H 0.79976 0.22938 1.01133 0.0
H197 H 0.80953 0.23155 0.09053 0.0
H198 H 0.73014 0.25567 0.11723 0.0
H199 H 0.72001 0.25319 0.03781 0.0
Tb200 Tb 0.76123 0.74787 0.80474 0.0
Tb201 Tb 0.72955 0.74853 0.70691 0.0
C202 C 0.77883 0.78354 0.72616 0.0
C203 C 0.777 0.74928 0.9267 0.0
C204 C 0.76491 0.75183 1.0182 0.0
C205 C 0.79108 0.75151 1.00358 0.0
C206 C 0.79702 0.75027 0.95838 0.0
C207 C 0.7508 0.74958 0.94079 0.0
C208 C 0.74479 0.7508 0.98619 0.0
C209 C 0.78405 0.7475 0.87938 0.0
O210 O 0.73362 0.78008 0.80594 0.0
O211 O 0.70324 0.76619 0.75483 0.0
O212 O 0.71552 0.71483 0.74348 0.0
O213 O 0.72533 0.72674 0.81549 0.0
O214 O 0.7095 0.76933 0.65704 0.0
O215 O 0.71524 0.72771 0.65216 0.0
O216 O 0.76717 0.73027 0.69503 0.0
O217 O 0.77594 0.71546 0.76551 0.0
O218 O 0.78644 0.76807 0.75843 0.0
O219 O 0.75535 0.78213 0.70843 0.0
C220 C 0.71001 0.78081 0.78871 0.0
O221 O 0.77641 0.72662 0.85848 0.0
O222 O 0.78049 0.76841 0.85557 0.0
C223 C 0.71313 0.712 0.78661 0.0
C224 C 0.71234 0.75102 0.58486 0.0
C225 C 0.722 0.75242 0.4925 0.0
C226 C 0.69628 0.75353 0.50909 0.0
C227 C 0.69154 0.75283 0.55474 0.0
C228 C 0.73813 0.75038 0.56878 0.0
C229 C 0.74292 0.75114 0.52296 0.0
C230 C 0.70643 0.7486 0.63253 0.0
C231 C 0.77969 0.71472 0.72241 0.0
H232 H 0.80708 0.75178 0.02714 0.0
H233 H 0.81735 0.74989 0.94814 0.0
H234 H 0.73505 0.74883 0.91675 0.0
H235 H 0.72443 0.75122 0.99615 0.0
H236 H 0.67973 0.75498 0.48676 0.0
H237 H 0.67151 0.75337 0.56653 0.0
H238 H 0.75446 0.74889 0.59158 0.0
H239 H 0.76295 0.75006 0.51136 0.0
Tb240 Tb 0.50045 0.51356 0.06517 0.0
Tb241 Tb 0.49952 0.48195 0.96795 0.0
C242 C 0.46587 0.53188 0.98422 0.0
C243 C 0.50348 0.52971 0.18717 0.0
C244 C 0.50535 0.51866 0.27913 0.0
C245 C 0.50819 0.54435 0.26345 0.0
C246 C 0.50723 0.54977 0.21804 0.0
C247 C 0.50121 0.50391 0.20229 0.0
C248 C 0.50218 0.49842 0.24789 0.0
C249 C 0.50109 0.5364 0.13975 0.0
O250 O 0.4807 0.47706 0.07722 0.0
O251 O 0.46615 0.46843 1.0065 0.0
O252 O 0.51805 0.45585 1.015 0.0
O253 O 0.53324 0.48645 0.06444 0.0
O254 O 0.47807 0.46843 0.91314 0.0
O255 O 0.51959 0.46125 0.91809 0.0
O256 O 0.53369 0.50705 0.9687 0.0
O257 O 0.51981 0.53862 1.0176 0.0
O258 O 0.46722 0.52827 0.02735 0.0
O259 O 0.48127 0.51947 0.95645 0.0
C260 C 0.46487 0.46509 0.04971 0.0
O261 O 0.52178 0.53286 0.11514 0.0
O262 O 0.47987 0.52865 0.11976 0.0
C263 C 0.53376 0.46285 0.04734 0.0
C264 C 0.50167 0.46531 0.84593 0.0
C265 C 0.50581 0.47596 0.75406 0.0
C266 C 0.50239 0.45028 0.76945 0.0
C267 C 0.50036 0.44506 0.81482 0.0
C268 C 0.50516 0.49101 0.83109 0.0
C269 C 0.50717 0.4963 0.78553 0.0
C270 C 0.49876 0.45906 0.8934 0.0
C271 C 0.53524 0.53068 0.98544 0.0
H272 H 0.51121 0.56036 0.28632 0.0
H273 H 0.50914 0.56979 0.20703 0.0
H274 H 0.49829 0.48811 0.17892 0.0
H275 H 0.49979 0.47844 0.25868 0.0
H276 H 0.50074 0.43418 0.74637 0.0
H277 H 0.49752 0.42512 0.82562 0.0
H278 H 0.5062 0.50694 0.85467 0.0
H279 H 0.50996 0.51627 0.77501 0.0
Tb280 Tb -0.00434 0.47637 0.5693 0.0
Tb281 Tb 0.99467 0.50788 0.4716 0.0
C282 C 0.03372 0.46222 0.4914 0.0
C283 C -0.00173 0.45935 0.69079 0.0
C284 C 0.00059 0.47014 0.78281 0.0
C285 C 0.00426 0.4446 0.76675 0.0
C286 C 0.0031 0.4393 0.72127 0.0
C287 C 0.99478 0.48494 0.70637 0.0
C288 C -0.00413 0.49028 0.752 0.0
C289 C -0.0035 0.45292 0.6432 0.0
O290 O 0.02492 0.50684 0.57312 0.0
O291 O 0.01083 0.53543 0.51879 0.0
O292 O 0.95975 0.51908 0.5082 0.0
O293 O 0.97287 0.51135 0.58007 0.0
O294 O 0.0139 0.52858 0.42099 0.0
O295 O 0.97254 0.52072 0.41711 0.0
O296 O 0.97986 0.46898 0.4596 0.0
O297 O 0.96419 0.46021 0.52938 0.0
O298 O 0.01834 0.45324 0.52274 0.0
O299 O 0.03076 0.48566 0.47467 0.0
C300 C 0.02473 0.52998 0.55433 0.0
O301 O 0.97515 0.46011 0.62283 0.0
O302 O 0.01726 0.45739 0.61928 0.0
C303 C 0.95727 0.52255 0.55118 0.0
C304 C 0.9953 0.52407 0.34932 0.0
C305 C -0.00268 0.5131 0.25739 0.0
C306 C 0.99315 0.5387 0.27276 0.0
C307 C 0.99215 0.54409 0.31819 0.0
C308 C -0.00017 0.49849 0.33445 0.0
C309 C 0.00092 0.49306 0.28882 0.0
C310 C 0.99281 0.53038 0.39684 0.0
C311 C 0.96447 0.45596 0.48638 0.0
H312 H 0.00752 0.42854 0.78941 0.0
H313 H 0.00574 0.41941 0.7099 0.0
H314 H 0.99111 0.50073 0.68329 0.0
H315 H 0.99323 0.51021 0.76311 0.0
H316 H 0.99077 0.55468 0.24963 0.0
H317 H 0.98867 0.56396 0.32904 0.0
H318 H 0.00221 0.48275 0.35806 0.0
H319 H 0.00398 0.4731 0.27818 0.0
H320 H 0.06713 0.05905 0.51379 0.0
H321 H 0.09848 0.08945 0.48165 0.0
H322 H 0.08233 0.05858 0.35122 0.0
H323 H 0.05183 0.0272 0.38365 0.0
H324 H 0.13183 0.06866 0.35702 0.0
H325 H 0.05406 0.11548 0.39047 0.0
H326 H 0.01736 0.12991 0.43741 0.0
H327 H 0.0709 0.16926 0.52433 0.0
H328 H 0.1081 0.15426 0.47867 0.0
H329 H 0.177 0.18481 0.2454 0.0
H330 H 0.14739 0.15151 0.27485 0.0
H331 H 0.18142 0.16092 0.40475 0.0
H332 H 0.21151 0.19376 0.37545 0.0
H333 H 0.12206 0.16232 0.39571 0.0
H334 H 0.20001 0.11188 0.35883 0.0
H335 H 0.23465 0.09695 0.30775 0.0
H336 H 0.17651 0.06634 0.21914 0.0
H337 H 0.14149 0.08146 0.26943 0.0
C338 C 0.0704 0.05867 0.4783 0.0
C339 C 0.05693 0.04099 0.45111 0.0
C340 C 0.08824 0.07609 0.45993 0.0
C341 C 0.0923 0.07673 0.41387 0.0
C342 C 0.07945 0.05851 0.38681 0.0
C343 C 0.062 0.04065 0.40533 0.0
C344 C 0.10933 0.09695 0.394 0.0
C345 C 0.12944 0.08915 0.36511 0.0
C346 C 0.10627 0.12375 0.40448 0.0
C347 C 0.08391 0.13352 0.43134 0.0
C348 C 0.05805 0.12708 0.41974 0.0
C349 C 0.03714 0.13535 0.44615 0.0
C350 C 0.04177 0.15052 0.48384 0.0
C351 C 0.06735 0.15748 0.49514 0.0
C352 C 0.08836 0.14905 0.46904 0.0
C353 C 0.17815 0.17976 0.28022 0.0
C354 C 0.19657 0.19176 0.30815 0.0
C355 C 0.16131 0.16076 0.2969 0.0
C356 C 0.16237 0.15386 0.34183 0.0
C357 C 0.18043 0.16606 0.36995 0.0
C358 C 0.19764 0.18467 0.35313 0.0
C359 C 0.1446 0.13386 0.3596 0.0
C360 C 0.1243 0.14179 0.3878 0.0
C361 C 0.14709 0.10733 0.34767 0.0
C362 C 0.16814 0.09806 0.31763 0.0
C363 C 0.19461 0.10219 0.32825 0.0
C364 C 0.21431 0.09365 0.29948 0.0
C365 C 0.20779 0.08077 0.26015 0.0
C366 C 0.18154 0.07635 0.24958 0.0
C367 C 0.16176 0.08489 0.27821 0.0
H368 H 0.22307 0.07417 0.23793 0.0
H369 H 0.02555 0.15691 0.50427 0.0
H370 H 0.02258 0.90423 0.53757 0.0
H371 H 0.05069 0.87072 0.57122 0.0
H372 H 0.11199 0.92744 0.58833 0.0
H373 H 0.08376 0.9612 0.55609 0.0
H374 H 0.12565 0.87197 0.55164 0.0
H375 H 0.08331 0.92135 0.67179 0.0
H376 H 0.0438 0.93944 0.7075 0.0
H377 H 0.01132 0.86258 0.71747 0.0
H378 H 0.05043 0.84409 0.68078 0.0
H379 H 0.21552 0.82455 0.70499 0.0
H380 H 0.18413 0.85195 0.66547 0.0
H381 H 0.12154 0.80032 0.70371 0.0
H382 H 0.15282 0.77337 0.74497 0.0
H383 H 0.10502 0.84854 0.70751 0.0
H384 H 0.14931 0.79746 0.59912 0.0
H385 H 0.18773 0.77809 0.56197 0.0
H386 H 0.21458 0.8544 0.52587 0.0
H387 H 0.17654 0.87428 0.56343 0.0
C388 C 0.04219 0.90941 0.54795 0.0
C389 C 0.05108 0.93522 0.54447 0.0
C390 C 0.05814 0.89032 0.56708 0.0
C391 C 0.08331 0.89675 0.58196 0.0
C392 C 0.09263 0.92222 0.57671 0.0
C393 C 0.07648 0.94143 0.55862 0.0
C394 C 0.09923 0.87757 0.60636 0.0
C395 C 0.12132 0.86683 0.58575 0.0
C396 C 0.09288 0.87043 0.65025 0.0
C397 C 0.06964 0.88139 0.67316 0.0
C398 C 0.06763 0.90834 0.68123 0.0
C399 C 0.04531 0.91866 0.70163 0.0
C400 C 0.02498 0.90218 0.71453 0.0
C401 C 0.02701 0.87532 0.70722 0.0
C402 C 0.04925 0.86491 0.68664 0.0
C403 C 0.19504 0.81916 0.70526 0.0
C404 C 0.1866 0.79678 0.72775 0.0
C405 C 0.17714 0.83473 0.68247 0.0
C406 C 0.1506 0.82778 0.68065 0.0
C407 C 0.14195 0.80594 0.70444 0.0
C408 C 0.15982 0.79059 0.728 0.0
C409 C 0.1321 0.8432 0.65328 0.0
C410 C 0.10936 0.85323 0.67322 0.0
C411 C 0.13765 0.84931 0.60841 0.0
C412 C 0.16013 0.83739 0.5844 0.0
C413 C 0.16345 0.81013 0.58339 0.0
C414 C 0.18517 0.79905 0.56228 0.0
C415 C 0.20363 0.81501 0.54171 0.0
C416 C 0.20028 0.84207 0.54188 0.0
C417 C 0.17862 0.85325 0.56303 0.0
H418 H 0.22054 0.80644 0.52566 0.0
H419 H 0.00771 0.9102 0.73032 0.0
H420 H 0.32644 0.7821 0.7933 0.0
H421 H 0.35817 0.81082 0.82895 0.0
H422 H 0.29649 0.84513 0.9077 0.0
H423 H 0.26473 0.81612 0.87302 0.0
H424 H 0.36348 0.86162 0.83109 0.0
H425 H 0.32055 0.86164 1.01013 0.0
H426 H 0.29624 0.83235 0.06002 0.0
H427 H 0.32455 0.76581 0.98776 0.0
H428 H 0.34945 0.79464 0.93796 0.0
H429 H 0.41761 0.96526 0.95375 0.0
H430 H 0.38677 0.93462 0.92063 0.0
H431 H 0.42182 0.87167 0.99497 0.0
H432 H 0.45232 0.90224 0.02906 0.0
H433 H 0.37079 0.86688 0.99497 0.0
H434 H 0.43668 0.88193 0.88602 0.0
H435 H 0.46502 0.90815 0.83735 0.0
H436 H 0.3974 0.9379 0.76928 0.0
H437 H 0.36859 0.91229 0.8182 0.0
C438 C 0.31959 0.79579 0.81814 0.0
C439 C 0.29306 0.79675 0.83044 0.0
C440 C 0.33776 0.8122 0.83844 0.0
C441 C 0.32974 0.82987 0.87135 0.0
C442 C 0.30318 0.83129 0.88298 0.0
C443 C 0.28503 0.81477 0.86294 0.0
C444 C 0.34914 0.84691 0.89341 0.0
C445 C 0.36509 0.86278 0.86692 0.0
C446 C 0.35158 0.84797 0.94016 0.0
C447 C 0.33666 0.83038 0.96997 0.0
C448 C 0.32167 0.84076 1.00495 0.0
C449 C 0.30779 0.82423 0.03325 0.0
C450 C 0.3088 0.79724 0.02701 0.0
C451 C 0.32372 0.78673 0.99248 0.0
C452 C 0.3377 0.80316 0.96417 0.0
C453 C 0.41867 0.94492 0.96327 0.0
C454 C 0.43751 0.93615 0.99387 0.0
C455 C 0.4011 0.92743 0.94417 0.0
C456 C 0.4023 0.90081 0.9548 0.0
C457 C 0.4206 0.89213 0.98624 0.0
C458 C 0.43803 0.90964 1.00566 0.0
C459 C 0.38473 0.88194 0.93268 0.0
C460 C 0.36914 0.86573 0.95915 0.0
C461 C 0.38313 0.88006 0.8859 0.0
C462 C 0.40043 0.89536 0.85613 0.0
C463 C 0.42782 0.89423 0.86094 0.0
C464 C 0.44398 0.90898 0.83328 0.0
C465 C 0.43301 0.92474 0.80032 0.0
C466 C 0.40586 0.92573 0.79489 0.0
C467 C 0.38961 0.9111 0.82259 0.0
H468 H 0.44556 0.93615 0.77894 0.0
H469 H 0.29809 0.78449 0.04904 0.0
H470 H 0.45559 0.03477 0.15748 0.0
H471 H 0.42684 0.06889 0.18696 0.0
H472 H 0.40004 0.0861 0.05416 0.0
H473 H 0.43025 0.05334 0.0246 0.0
H474 H 0.40536 0.12873 0.09383 0.0
H475 H 0.36373 0.04823 0.13523 0.0
H476 H 0.36124 0.00466 0.16951 0.0
H477 H 0.37876 0.03783 0.2969 0.0
H478 H 0.38164 0.08157 0.26327 0.0
H479 H 0.28432 0.18988 0.15086 0.0
H480 H 0.31678 0.15794 0.12562 0.0
H481 H 0.3559 0.16237 0.25218 0.0
H482 H 0.32373 0.19456 0.27762 0.0
H483 H 0.34521 0.11012 0.21892 0.0
H484 H 0.3837 0.19175 0.17397 0.0
H485 H 0.38328 0.23462 0.13701 0.0
H486 H 0.36779 0.19767 1.0119 0.0
H487 H 0.36772 0.15458 0.04825 0.0
C488 C 0.44347 0.04588 0.13478 0.0
C489 C 0.44484 0.04147 0.08894 0.0
C490 C 0.42697 0.06526 0.15157 0.0
C491 C 0.41078 0.07973 0.1229 0.0
C492 C 0.4123 0.07524 0.07699 0.0
C493 C 0.42943 0.05648 0.06012 0.0
C494 C 0.39233 0.09962 0.14047 0.0
C495 C 0.39201 0.12446 0.12082 0.0
C496 C 0.37519 0.09436 0.1763 0.0
C497 C 0.37313 0.06812 0.19667 0.0
C498 C 0.36717 0.0462 0.17051 0.0
C499 C 0.36568 0.02148 0.18983 0.0
C500 C 0.36991 0.01847 0.23533 0.0
C501 C 0.37553 0.04019 0.26165 0.0
C502 C 0.37705 0.06495 0.2425 0.0
C503 C 0.29981 0.18404 0.17333 0.0
C504 C 0.30155 0.19471 0.21617 0.0
C505 C 0.31834 0.1659 0.15882 0.0
C506 C 0.33867 0.158 0.18708 0.0
C507 C 0.3403 0.16834 0.23 0.0
C508 C 0.32201 0.18677 0.24433 0.0
C509 C 0.35816 0.13876 0.17179 0.0
C510 C 0.35866 0.11418 0.19196 0.0
C511 C 0.37506 0.14408 0.13592 0.0
C512 C 0.37548 0.16995 0.11392 0.0
C513 C 0.38001 0.19277 0.13864 0.0
C514 C 0.37989 0.21711 0.11779 0.0
C515 C 0.37545 0.21887 0.07216 0.0
C516 C 0.37121 0.19628 0.04726 0.0
C517 C 0.37127 0.17189 0.06796 0.0
H518 H 0.37536 0.23773 0.05608 0.0
H519 H 0.36878 -0.00069 0.25021 0.0
H520 H 0.9645 0.94165 0.62357 0.0
H521 H 0.93259 0.9118 0.65559 0.0
H522 H 0.88875 0.91256 0.53331 0.0
H523 H 0.92054 0.94257 0.50085 0.0
H524 H 0.85757 0.91815 0.60893 0.0
H525 H 0.92769 0.86308 0.556 0.0
H526 H 0.9738 0.84908 0.55067 0.0
H527 H 0.97518 0.83346 0.6905 0.0
H528 H 0.92933 0.84815 0.69696 0.0
H529 H 0.77538 0.81028 0.64807 0.0
H530 H 0.80692 0.84094 0.61735 0.0
H531 H 0.85608 0.83094 0.73259 0.0
H532 H 0.82495 0.79962 0.76298 0.0
H533 H 0.88496 0.83048 0.66126 0.0
H534 H 0.81766 0.8862 0.71753 0.0
H535 H 0.77267 0.90264 0.72792 0.0
H536 H 0.76677 0.91862 0.5885 0.0
H537 H 0.81164 0.90193 0.57717 0.0
C538 C 0.94804 0.93556 0.60343 0.0
C539 C 0.9451 0.94442 0.55955 0.0
C540 C 0.92989 0.91844 0.62179 0.0
C541 C 0.9085 0.90985 0.59664 0.0
C542 C 0.9052 0.91898 0.55316 0.0
C543 C 0.92343 0.93603 0.53465 0.0
C544 C 0.88966 0.89112 0.61562 0.0
C545 C 0.86342 0.89883 0.61985 0.0
C546 C 0.89763 0.8663 0.63111 0.0
C547 C 0.92511 0.85702 0.62704 0.0
C548 C 0.93789 0.85693 0.58571 0.0
C549 C 0.96401 0.84889 0.58249 0.0
C550 C 0.97748 0.84056 0.62028 0.0
C551 C 0.9648 0.8401 0.66131 0.0
C552 C 0.93875 0.8483 0.66477 0.0
C553 C 0.79283 0.81469 0.66702 0.0
C554 C 0.79761 0.80262 0.70808 0.0
C555 C 0.81082 0.83229 0.64946 0.0
C556 C 0.8337 0.83854 0.67296 0.0
C557 C 0.83856 0.82643 0.71389 0.0
C558 C 0.82071 0.80859 0.73126 0.0
C559 C 0.85271 0.85743 0.65455 0.0
C560 C 0.87902 0.84978 0.65039 0.0
C561 C 0.84491 0.88249 0.63977 0.0
C562 C 0.81792 0.89257 0.64644 0.0
C563 C 0.8067 0.89303 0.68903 0.0
C564 C 0.78123 0.90242 0.6951 0.0
C565 C 0.76685 0.9116 0.65888 0.0
C566 C 0.77793 0.91146 0.61652 0.0
C567 C 0.80339 0.90206 0.61026 0.0
H568 H 0.74713 0.91888 0.66365 0.0
H569 H -0.0023 0.83436 0.61774 0.0
H570 H 0.96931 0.05737 0.39925 0.0
H571 H 0.93776 0.09032 0.37427 0.0
H572 H 0.89455 0.08164 0.49615 0.0
H573 H 0.92623 0.04903 0.52178 0.0
H574 H 0.86433 0.07719 0.41575 0.0
H575 H 0.92646 0.13374 0.48625 0.0
H576 H 0.96916 0.15406 0.5018 0.0
H577 H 0.97461 0.17922 0.36638 0.0
H578 H 0.93214 0.15866 0.34979 0.0
H579 H 0.77445 0.18114 0.38749 0.0
H580 H 0.80776 0.15164 0.41689 0.0
H581 H 0.85826 0.16964 0.30653 0.0
H582 H 0.82526 0.19956 0.2772 0.0
H583 H 0.88504 0.16956 0.38239 0.0
H584 H 0.82463 0.11255 0.31 0.0
H585 H 0.78137 0.0939 0.29287 0.0
H586 H 0.77307 0.06936 0.42822 0.0
H587 H 0.81614 0.08821 0.44633 0.0
C588 C 0.95317 0.0626 0.42082 0.0
C589 C 0.95015 0.05059 0.46239 0.0
C590 C 0.93529 0.08148 0.40661 0.0
C591 C 0.91396 0.08837 0.43349 0.0
C592 C 0.91097 0.07656 0.47508 0.0
C593 C 0.92909 0.05801 0.48965 0.0
C594 C 0.894 0.1069 0.41716 0.0
C595 C 0.8687 0.0975 0.40903 0.0
C596 C 0.90009 0.1331 0.40722 0.0
C597 C 0.92621 0.14442 0.41667 0.0
C598 C 0.93693 0.14326 0.45961 0.0
C599 C 0.96104 0.15493 0.46866 0.0
C600 C 0.97453 0.16799 0.43512 0.0
C601 C 0.9641 0.16915 0.39234 0.0
C602 C 0.94002 0.15748 0.3831 0.0
C603 C 0.7926 0.17881 0.36935 0.0
C604 C 0.79713 0.19262 0.32984 0.0
C605 C 0.8116 0.16188 0.38618 0.0
C606 C 0.83534 0.15822 0.36359 0.0
C607 C 0.84005 0.17218 0.32444 0.0
C608 C 0.82112 0.18921 0.30768 0.0
C609 C 0.85532 0.13988 0.38088 0.0
C610 C 0.88063 0.14926 0.3891 0.0
C611 C 0.84935 0.11356 0.39044 0.0
C612 C 0.8235 0.10204 0.37962 0.0
C613 C 0.8135 0.10336 0.3362 0.0
C614 C 0.78902 0.09272 0.3263 0.0
C615 C 0.77444 0.08052 0.35946 0.0
C616 C 0.78436 0.07885 0.40258 0.0
C617 C 0.80882 0.0895 0.41267 0.0
H618 H 0.75549 0.07231 0.35173 0.0
H619 H 0.99306 0.17725 0.44227 0.0
H620 H 0.66145 0.19085 0.28296 0.0
H621 H 0.63212 0.15819 0.2512 0.0
H622 H 0.6885 0.14189 0.14833 0.0
H623 H 0.7179 0.17452 0.17954 0.0
H624 H 0.6387 0.14844 0.11576 0.0
H625 H 0.68149 0.10007 0.23179 0.0
H626 H 0.69618 0.09162 0.30837 0.0
H627 H 0.61637 0.09158 0.35296 0.0
H628 H 0.60121 0.10045 0.27673 0.0
H629 H 0.57584 0.03509 0.03108 0.0
H630 H 0.60751 0.06618 0.06116 0.0
H631 H 0.5586 0.07734 0.17643 0.0
H632 H 0.52757 0.04562 0.14746 0.0
H633 H 0.60633 0.07278 0.20185 0.0
H634 H 0.56299 0.12293 0.08853 0.0
H635 H 0.54725 0.13265 1.01297 0.0
H636 H 0.62625 0.13095 0.96447 0.0
H637 H 0.64243 0.12088 0.03967 0.0
C638 C 0.66767 0.18026 0.25368 0.0
C639 C 0.69204 0.18527 0.23385 0.0
C640 C 0.65092 0.16157 0.23567 0.0
C641 C 0.65827 0.14755 0.19763 0.0
C642 C 0.68252 0.15252 0.17773 0.0
C643 C 0.69932 0.17111 0.19577 0.0
C644 C 0.64045 0.12801 0.17805 0.0
C645 C 0.63185 0.13168 0.1343 0.0
C646 C 0.63113 0.10656 0.20273 0.0
C647 C 0.64023 0.10117 0.2486 0.0
C648 C 0.66708 0.09849 0.25798 0.0
C649 C 0.67549 0.09359 0.30132 0.0
C650 C 0.65723 0.09114 0.33553 0.0
C651 C 0.6305 0.09353 0.32644 0.0
C652 C 0.62199 0.09847 0.28317 0.0
C653 C 0.57187 0.04427 0.06276 0.0
C654 C 0.54931 0.03791 0.08698 0.0
C655 C 0.5899 0.0621 0.07984 0.0
C656 C 0.5853 0.07435 0.12087 0.0
C657 C 0.56264 0.0681 0.14482 0.0
C658 C 0.5449 0.04997 0.12818 0.0
C659 C 0.60422 0.0933 0.13954 0.0
C660 C 0.61312 0.08951 0.18315 0.0
C661 C 0.6136 0.1148 0.11486 0.0
C662 C 0.60389 0.12088 0.06964 0.0
C663 C 0.57698 0.12443 0.06169 0.0
C664 C 0.56799 0.13004 1.01894 0.0
C665 C 0.58573 0.13234 0.98392 0.0
C666 C 0.61252 0.12911 0.99161 0.0
C667 C 0.62162 0.12347 0.03429 0.0
H668 H 0.57873 0.13669 0.95085 0.0
H669 H 0.66377 0.08733 0.36905 0.0
H670 H 0.71567 0.81051 0.86327 0.0
H671 H 0.68274 0.83763 0.89937 0.0
H672 H 0.62657 0.81706 0.79848 0.0
H673 H 0.65956 0.78991 0.76162 0.0
H674 H 0.62591 0.86957 0.81808 0.0
H675 H 0.6204 0.7889 0.89807 0.0
H676 H 0.63749 0.75098 0.939 0.0
H677 H 0.6707 0.80185 0.0372 0.0
H678 H 0.65353 0.84015 0.99683 0.0
H679 H 0.51708 0.9211 0.93082 0.0
H680 H 0.54668 0.89018 0.89498 0.0
H681 H 0.60407 0.90323 0.99771 0.0
H682 H 0.57397 0.93348 0.03484 0.0
H683 H 0.60285 0.85336 0.97558 0.0
H684 H 0.60713 0.9345 0.89504 0.0
H685 H 0.58762 0.97177 0.85512 0.0
H686 H 0.55631 0.91976 0.757 0.0
H687 H 0.57536 0.88211 0.79669 0.0
C688 C 0.69638 0.81178 0.84851 0.0
C689 C 0.69023 0.79797 0.80956 0.0
C690 C 0.67754 0.8272 0.86937 0.0
C691 C 0.65218 0.82905 0.85186 0.0
C692 C 0.64606 0.81577 0.81253 0.0
C693 C 0.66491 0.80025 0.79161 0.0
C694 C 0.63212 0.84488 0.8749 0.0
C695 C 0.62056 0.86584 0.8523 0.0
C696 C 0.62558 0.84024 0.91976 0.0
C697 C 0.63589 0.81735 0.94426 0.0
C698 C 0.63148 0.79199 0.92826 0.0
C699 C 0.64115 0.77043 0.95142 0.0
C700 C 0.65536 0.77398 0.99059 0.0
C701 C 0.65973 0.79912 1.00683 0.0
C702 C 0.64993 0.82076 0.98393 0.0
C703 C 0.53596 0.91725 0.94592 0.0
C704 C 0.54343 0.92987 0.9853 0.0
C705 C 0.55287 0.89966 0.92533 0.0
C706 C 0.57782 0.89493 0.94308 0.0
C707 C 0.58494 0.90676 0.98334 0.0
C708 C 0.56779 0.92403 1.00446 0.0
C709 C 0.59675 0.87825 0.91896 0.0
C710 C 0.60815 0.85712 0.94134 0.0
C711 C 0.60312 0.88278 0.87388 0.0
C712 C 0.59252 0.90547 0.84902 0.0
C713 C 0.59604 0.931 0.865 0.0
C714 C 0.58505 0.95219 0.84244 0.0
C715 C 0.57069 0.94812 0.80361 0.0
C716 C 0.56743 0.92287 0.7871 0.0
C717 C 0.57835 0.9016 0.80958 0.0
H718 H 0.56214 0.96455 0.78629 0.0
H719 H 0.66289 0.75726 1.00846 0.0
H720 H 0.53859 0.58324 0.99969 0.0
H721 H 0.56857 0.61392 0.96451 0.0
H722 H 0.60508 0.5505 0.89321 0.0
H723 H 0.57479 0.51981 0.92729 0.0
H724 H 0.61976 0.61925 0.96545 0.0
H725 H 0.62412 0.57097 0.79152 0.0
H726 H 0.59617 0.54406 0.74304 0.0
H727 H 0.52743 0.5748 0.80646 0.0
H728 H 0.55493 0.60224 0.85478 0.0
H729 H 0.72406 0.67639 0.85008 0.0
H730 H 0.69442 0.64381 0.8812 0.0
H731 H 0.63275 0.67112 0.79461 0.0
H732 H 0.66317 0.70224 0.76104 0.0
H733 H 0.62838 0.62219 0.80162 0.0
H734 H 0.64277 0.6909 0.90772 0.0
H735 H 0.67071 0.71894 0.9543 0.0
H736 H 0.69665 0.6522 0.02799 0.0
H737 H 0.66998 0.6235 0.98051 0.0
C738 C 0.55304 0.5758 0.97661 0.0
C739 C 0.55419 0.54911 0.96605 0.0
C740 C 0.57018 0.59336 0.95659 0.0
C741 C 0.5888 0.58455 0.92577 0.0
C742 C 0.5905 0.5578 0.9162 0.0
C743 C 0.57323 0.54027 0.93586 0.0
C744 C 0.60634 0.60333 0.90341 0.0
C745 C 0.62162 0.61999 0.92963 0.0
C746 C 0.60844 0.60448 0.85665 0.0
C747 C 0.59164 0.58848 0.82706 0.0
C748 C 0.60304 0.5721 0.79496 0.0
C749 C 0.58727 0.55674 0.76753 0.0
C750 C 0.56005 0.55767 0.77175 0.0
C751 C 0.54853 0.57404 0.8033 0.0
C752 C 0.5642 0.5895 0.83074 0.0
C753 C 0.70422 0.67513 0.83751 0.0
C754 C 0.69565 0.69177 0.80359 0.0
C755 C 0.68727 0.65668 0.85542 0.0
C756 C 0.66108 0.6555 0.84124 0.0
C757 C 0.6528 0.67171 0.80631 0.0
C758 C 0.67008 0.68951 0.78725 0.0
C759 C 0.64211 0.63804 0.86365 0.0
C760 C 0.62651 0.62161 0.83745 0.0
C761 C 0.63931 0.63753 0.91047 0.0
C762 C 0.65448 0.65499 0.94026 0.0
C763 C 0.65449 0.68216 0.93374 0.0
C764 C 0.67013 0.69818 0.96026 0.0
C765 C 0.68527 0.6874 0.99421 0.0
C766 C 0.68489 0.66053 1.00168 0.0
C767 C 0.66961 0.64435 0.97484 0.0
H768 H 0.69733 0.69987 1.01467 0.0
H769 H 0.5479 0.54576 0.75047 0.0
H770 H 0.67474 0.2677 0.17537 0.0
H771 H 0.64374 0.29848 0.14258 0.0
H772 H 0.66069 0.35397 0.24643 0.0
H773 H 0.69073 0.3226 0.28068 0.0
H774 H 0.61105 0.35593 0.22793 0.0
H775 H 0.68978 0.35676 0.14052 0.0
H776 H 0.72528 0.33629 0.09716 0.0
H777 H 0.66924 0.30782 1.0028 0.0
H778 H 0.63334 0.32782 0.04597 0.0
H779 H 0.56741 0.46931 0.11698 0.0
H780 H 0.59582 0.43654 0.15071 0.0
H781 H 0.56939 0.37945 0.05571 0.0
H782 H 0.54101 0.41217 0.0213 0.0
H783 H 0.6231 0.37805 0.06901 0.0
H784 H 0.54443 0.37903 0.15743 0.0
H785 H 0.50993 0.40084 0.20116 0.0
H786 H 0.56753 0.42796 0.29399 0.0
H787 H 0.60245 0.40659 0.25044 0.0
C788 C 0.67171 0.28641 0.19133 0.0
C789 C 0.68529 0.29294 0.23026 0.0
C790 C 0.65408 0.30402 0.17249 0.0
C791 C 0.65039 0.32881 0.19139 0.0
C792 C 0.66332 0.33501 0.23114 0.0
C793 C 0.68051 0.31713 0.25061 0.0
C794 C 0.63377 0.34854 0.16895 0.0
C795 C 0.6139 0.36097 0.19334 0.0
C796 C 0.63722 0.35486 0.12356 0.0
C797 C 0.65886 0.34362 0.09668 0.0
C798 C 0.68502 0.34608 0.11059 0.0
C799 C 0.70521 0.33454 0.08607 0.0
C800 C 0.69951 0.3207 0.04732 0.0
C801 C 0.67362 0.31852 0.03286 0.0
C802 C 0.65334 0.32998 0.05731 0.0
C803 C 0.56769 0.44984 0.10302 0.0
C804 C 0.55182 0.44333 0.06654 0.0
C805 C 0.58389 0.43113 0.12246 0.0
C806 C 0.58443 0.40555 0.10598 0.0
C807 C 0.56917 0.39911 0.06892 0.0
C808 C 0.55292 0.41782 0.04942 0.0
C809 C 0.60055 0.38539 0.12806 0.0
C810 C 0.62029 0.37293 0.10358 0.0
C811 C 0.59717 0.37925 0.17343 0.0
C812 C 0.57609 0.39137 0.20048 0.0
C813 C 0.54976 0.38973 0.18707 0.0
C814 C 0.53013 0.40202 0.21183 0.0
C815 C 0.53654 0.41584 0.25027 0.0
C816 C 0.56259 0.41726 0.26418 0.0
C817 C 0.58231 0.40503 0.23951 0.0
H818 H 0.52133 0.42542 0.26931 0.0
H819 H 0.71516 0.31171 0.02848 0.0
H820 H 0.92953 0.42531 0.53073 0.0
H821 H 0.89906 0.3938 0.49917 0.0
H822 H 0.92879 0.40992 0.36819 0.0
H823 H 0.95921 0.44172 0.39933 0.0
H824 H 0.87572 0.41083 0.37079 0.0
H825 H 0.94437 0.35395 0.41966 0.0
H826 H 0.97592 0.33527 0.47297 0.0
H827 H 0.91267 0.31053 0.55637 0.0
H828 H 0.88074 0.32947 0.50403 0.0
H829 H 0.80792 0.30752 0.26496 0.0
H830 H 0.8418 0.33666 0.29293 0.0
H831 H 0.81797 0.32021 0.42727 0.0
H832 H 0.78443 0.29051 0.39965 0.0
H833 H 0.86969 0.31884 0.42043 0.0
H834 H 0.80136 0.37786 0.37502 0.0
H835 H 0.76935 0.39704 0.32309 0.0
H836 H 0.83157 0.41812 0.23457 0.0
H837 H 0.86393 0.39874 0.28573 0.0
C838 C 0.92973 0.42209 0.49522 0.0
C839 C 0.94676 0.4361 0.46754 0.0
C840 C 0.91237 0.40398 0.47728 0.0
C841 C 0.91184 0.39941 0.43141 0.0
C842 C 0.92894 0.41318 0.4037 0.0
C843 C 0.94632 0.43131 0.4216 0.0
C844 C 0.89266 0.38103 0.41225 0.0
C845 C 0.87465 0.39058 0.38107 0.0
C846 C 0.89095 0.35484 0.42658 0.0
C847 C 0.91015 0.34334 0.45806 0.0
C848 C 0.93719 0.34472 0.44954 0.0
C849 C 0.95514 0.33405 0.47954 0.0
C850 C 0.9463 0.32176 0.51801 0.0
C851 C 0.91949 0.32008 0.52655 0.0
C852 C 0.90145 0.33076 0.49672 0.0
C853 C 0.80976 0.3102 0.30046 0.0
C854 C 0.7934 0.29678 0.33008 0.0
C855 C 0.82912 0.32691 0.31638 0.0
C856 C 0.83221 0.33082 0.36216 0.0
C857 C 0.81592 0.31745 0.3918 0.0
C858 C 0.79669 0.30056 0.37594 0.0
C859 C 0.85259 0.34869 0.37924 0.0
C860 C 0.87083 0.33904 0.41 0.0
C861 C 0.85446 0.37485 0.3647 0.0
C862 C 0.83504 0.38662 0.334 0.0
C863 C 0.8082 0.38641 0.34433 0.0
C864 C 0.78999 0.39735 0.31506 0.0
C865 C 0.79842 0.40873 0.2755 0.0
C866 C 0.82507 0.40926 0.26519 0.0
C867 C 0.84335 0.39833 0.29432 0.0
H868 H 0.78429 0.41718 0.25288 0.0
H869 H 0.96023 0.31351 0.54118 0.0
H870 H 0.79632 0.71011 0.63652 0.0
H871 H 0.82689 0.67797 0.60638 0.0
H872 H 0.83628 0.6442 0.73646 0.0
H873 H 0.80615 0.67654 0.76713 0.0
H874 H 0.88257 0.64827 0.69427 0.0
H875 H 0.79605 0.61632 0.65982 0.0
H876 H 0.75159 0.61961 0.62836 0.0
H877 H 0.78395 0.63239 0.49881 0.0
H878 H 0.82863 0.6295 0.52964 0.0
H879 H 0.93932 0.52794 0.63594 0.0
H880 H 0.90819 0.56032 0.66363 0.0
H881 H 0.89916 0.5912 0.53139 0.0
H882 H 0.92967 0.55841 0.50317 0.0
H883 H 0.8533 0.58964 0.57305 0.0
H884 H 0.94026 0.61808 0.60693 0.0
H885 H 0.98445 0.61265 0.6385 0.0
H886 H 0.95186 0.60738 0.7693 0.0
H887 H 0.90733 0.61149 0.73841 0.0
C888 C 0.80492 0.6959 0.65878 0.0
C889 C 0.79866 0.69577 0.70419 0.0
C890 C 0.82235 0.67752 0.64147 0.0
C891 C 0.83355 0.65853 0.66913 0.0
C892 C 0.8278 0.65871 0.71458 0.0
C893 C 0.8105 0.67715 0.73199 0.0
C894 C 0.85082 0.63806 0.65062 0.0
C895 C 0.87613 0.63525 0.66809 0.0
C896 C 0.84251 0.62154 0.61577 0.0
C897 C 0.81567 0.62293 0.59711 0.0
C898 C 0.79368 0.61999 0.62468 0.0
C899 C 0.76845 0.62176 0.60695 0.0
C900 C 0.76495 0.62627 0.56163 0.0
C901 C 0.78669 0.62893 0.53392 0.0
C902 C 0.81197 0.62719 0.55149 0.0
C903 C 0.93056 0.5415 0.61269 0.0
C904 C 0.93711 0.5408 0.56745 0.0
C905 C 0.91284 0.56001 0.62858 0.0
C906 C 0.90181 0.57845 0.59966 0.0
C907 C 0.90756 0.57718 0.55424 0.0
C908 C 0.92503 0.55847 0.53822 0.0
C909 C 0.885 0.59965 0.61697 0.0
C910 C 0.85981 0.60267 0.59916 0.0
C911 C 0.89348 0.6164 0.65146 0.0
C912 C 0.92037 0.61487 0.67025 0.0
C913 C 0.94246 0.61559 0.64241 0.0
C914 C 0.96759 0.61274 0.66017 0.0
C915 C 0.97097 0.60982 0.70586 0.0
C916 C 0.94921 0.60965 0.7339 0.0
C917 C 0.924 0.61214 0.71626 0.0
H918 H 0.99046 0.60766 0.71952 0.0
H919 H 0.7454 0.62766 0.54798 0.0
H920 H 0.30717 0.31973 0.27239 0.0
H921 H 0.33856 0.35093 0.24256 0.0
H922 H 0.32641 0.32001 0.11105 0.0
H923 H 0.29528 0.28849 0.14056 0.0
H924 H 0.37778 0.32707 0.12834 0.0
H925 H 0.29841 0.37724 0.14205 0.0
H926 H 0.25999 0.39478 0.18175 0.0
H927 H 0.31051 0.43394 0.27393 0.0
H928 H 0.34926 0.41633 0.23513 0.0
H929 H 0.4345 0.43008 1.00458 0.0
H930 H 0.403 0.39932 0.0357 0.0
H931 H 0.41958 0.42801 0.16723 0.0
H932 H 0.45113 0.45879 0.13658 0.0
H933 H 0.36627 0.42233 0.15081 0.0
H934 H 0.44541 0.37271 0.13768 0.0
H935 H 0.48416 0.35481 0.09946 0.0
H936 H 0.43442 0.31439 1.0076 0.0
H937 H 0.39534 0.33242 0.04486 0.0
C938 C 0.31113 0.31956 0.23711 0.0
C939 C 0.29862 0.30167 0.20884 0.0
C940 C 0.32902 0.33746 0.22011 0.0
C941 C 0.33458 0.33795 0.17454 0.0
C942 C 0.32236 0.31996 0.14632 0.0
C943 C 0.30449 0.30202 0.16327 0.0
C944 C 0.35324 0.35715 0.15624 0.0
C945 C 0.37508 0.34792 0.1327 0.0
C946 C 0.35001 0.3843 0.16297 0.0
C947 C 0.32674 0.39526 0.18593 0.0
C948 C 0.30133 0.38946 0.17096 0.0
C949 C 0.27949 0.39943 0.19328 0.0
C950 C 0.28281 0.4154 0.23042 0.0
C951 C 0.30798 0.42153 0.2452 0.0
C952 C 0.32988 0.41158 0.22302 0.0
C953 C 0.43141 0.42992 0.04011 0.0
C954 C 0.44539 0.44682 0.06811 0.0
C955 C 0.41347 0.41228 0.05782 0.0
C956 C 0.40914 0.41133 0.10375 0.0
C957 C 0.42269 0.42848 0.1317 0.0
C958 C 0.44078 0.44596 0.11409 0.0
C959 C 0.39066 0.39223 0.12268 0.0
C960 C 0.36891 0.40148 0.14639 0.0
C961 C 0.39399 0.3651 0.1162 0.0
C962 C 0.41745 0.35416 0.09376 0.0
C963 C 0.44273 0.36021 0.10907 0.0
C964 C 0.46476 0.35 0.08763 0.0
C965 C 0.46176 0.33353 0.05104 0.0
C966 C 0.43672 0.32719 0.0359 0.0
C967 C 0.41462 0.33739 0.05718 0.0
H968 H 0.47883 0.32564 0.03449 0.0
H969 H 0.26587 0.42306 0.24771 0.0
H970 H 0.43496 0.56619 0.0303 0.0
H971 H 0.40264 0.59661 1.00022 0.0
H972 H 0.42021 0.56997 0.86771 0.0
H973 H 0.45299 0.53996 0.89733 0.0
H974 H 0.41601 0.62147 0.86941 0.0
H975 H 0.36495 0.54965 0.92339 0.0
H976 H 0.34991 0.51779 0.97894 0.0
H977 H 0.32317 0.58017 0.06276 0.0
H978 H 0.33838 0.61243 1.00796 0.0
H979 H 0.30385 0.67501 0.76318 0.0
H980 H 0.33652 0.6447 0.7927 0.0
H981 H 0.32131 0.67287 0.92511 0.0
H982 H 0.28842 0.70294 0.89614 0.0
H983 H 0.32421 0.62049 0.92304 0.0
H984 H 0.37525 0.69226 0.86884 0.0
H985 H 0.3902 0.72406 0.81314 0.0
H986 H 0.41683 0.6616 0.72941 0.0
H987 H 0.40168 0.62939 0.78435 0.0
C988 C 0.43197 0.56679 0.99475 0.0
C989 C 0.44648 0.55055 0.96624 0.0
C990 C 0.41341 0.58413 0.97763 0.0
C991 C 0.40875 0.58528 0.93177 0.0
C992 C 0.42347 0.56937 0.9032 0.0
C993 C 0.44216 0.55218 0.92025 0.0
C994 C 0.38852 0.60306 0.91349 0.0
C995 C 0.39585 0.62102 0.88071 0.0
C996 C 0.36235 0.60283 0.9289 0.0
C997 C 0.35302 0.58345 0.96175 0.0
C998 C 0.35603 0.55658 0.95381 0.0
C999 C 0.34745 0.53844 0.98514 0.0
C1000 C 0.33565 0.54695 0.0244 0.0
C1001 C 0.33234 0.57361 0.03236 0.0
C1002 C 0.34091 0.59182 1.00116 0.0
C1003 C 0.30742 0.67475 0.79859 0.0
C1004 C 0.29356 0.69146 0.82726 0.0
C1005 C 0.32617 0.65748 0.81537 0.0
C1006 C 0.33152 0.65675 0.86103 0.0
C1007 C 0.31748 0.67314 0.88976 0.0
C1008 C 0.29872 0.69037 0.87307 0.0
C1009 C 0.35171 0.63887 0.87901 0.0
C1010 C 0.34436 0.6209 0.91173 0.0
C1011 C 0.37784 0.63907 0.86349 0.0
C1012 C 0.38709 0.65841 0.83052 0.0
C1013 C 0.38411 0.6853 0.8384 0.0
C1014 C 0.39265 0.7034 0.80699 0.0
C1015 C 0.40439 0.69485 0.76771 0.0
C1016 C 0.40769 0.66819 0.75982 0.0
C1017 C 0.39915 0.65 0.7911 0.0
H1018 H 0.41099 0.7089 0.74343 0.0
H1019 H 0.32903 0.53288 0.04862 0.0
H1020 H 0.1752 0.6766 0.78927 0.0
H1021 H 0.14208 0.64751 0.7584 0.0
H1022 H 0.1594 0.6755 0.62682 0.0
H1023 H 0.19229 0.7049 0.6573 0.0
H1024 H 0.10702 0.6722 0.64113 0.0
H1025 H 0.18299 0.61736 0.66154 0.0
H1026 H 0.21912 0.5976 0.70431 0.0
H1027 H 0.16379 0.56296 0.79352 0.0
H1028 H 0.12733 0.58281 0.7516 0.0
H1029 H 0.04742 0.57173 0.5138 0.0
H1030 H 0.07581 0.60444 0.54784 0.0
H1031 H 0.06444 0.56845 0.67579 0.0
H1032 H 0.0372 0.53502 0.64146 0.0
H1033 H 0.11296 0.57672 0.66529 0.0
H1034 H 0.0365 0.63096 0.64467 0.0
H1035 H 0.00041 0.65205 0.60338 0.0
H1036 H 0.05575 0.68786 0.51575 0.0
H1037 H 0.09217 0.6671 0.55641 0.0
C1038 C 0.17202 0.67656 0.75375 0.0
C1039 C 0.1865 0.69298 0.72574 0.0
C1040 C 0.1531 0.6599 0.73618 0.0
C1041 C 0.14848 0.65922 0.69031 0.0
C1042 C 0.16268 0.67577 0.66233 0.0
C1043 C 0.18157 0.69246 0.67983 0.0
C1044 C 0.12903 0.64105 0.67133 0.0
C1045 C 0.10837 0.65128 0.64601 0.0
C1046 C 0.13055 0.61387 0.67866 0.0
C1047 C 0.15245 0.60177 0.70369 0.0
C1048 C 0.17854 0.60568 0.69046 0.0
C1049 C 0.19907 0.59444 0.71452 0.0
C1050 C 0.19375 0.57909 0.75168 0.0
C1051 C 0.16788 0.57488 0.76477 0.0
C1052 C 0.14728 0.5861 0.74086 0.0
C1053 C 0.05086 0.57098 0.54923 0.0
C1054 C 0.04037 0.55077 0.57497 0.0
C1055 C 0.0669 0.5898 0.56875 0.0
C1056 C 0.07206 0.58913 0.61455 0.0
C1057 C 0.06086 0.56934 0.6404 0.0
C1058 C 0.04534 0.55023 0.62076 0.0
C1059 C 0.09063 0.60778 0.63508 0.0
C1060 C 0.1113 0.59764 0.66062 0.0
C1061 C 0.08899 0.63505 0.62808 0.0
C1062 C 0.06705 0.64729 0.60336 0.0
C1063 C 0.04096 0.64317 0.61639 0.0
C1064 C 0.02045 0.65509 0.59317 0.0
C1065 C 0.02578 0.67112 0.55688 0.0
C1066 C 0.05164 0.6754 0.54382 0.0
C1067 C 0.07222 0.66363 0.56701 0.0
H1068 H 0.00987 0.68031 0.53896 0.0
H1069 H 0.20968 0.57041 0.77026 0.0
H1070 H 0.19414 0.32589 0.25325 0.0
H1071 H 0.16321 0.35757 0.28467 0.0
H1072 H 0.15225 0.30804 0.39858 0.0
H1073 H 0.18339 0.27649 0.36791 0.0
H1074 H 0.10441 0.33041 0.35789 0.0
H1075 H 0.19076 0.3542 0.41335 0.0
H1076 H 0.23724 0.36539 0.40281 0.0
H1077 H 0.21514 0.43111 0.32279 0.0
H1078 H 0.16849 0.42007 0.3324 0.0
H1079 H 0.04576 0.41224 0.51572 0.0
H1080 H 0.07589 0.38226 0.47875 0.0
H1081 H 0.09607 0.44221 0.38464 0.0
H1082 H 0.06629 0.47249 0.4217 0.0
H1083 H 0.13867 0.41564 0.40987 0.0
H1084 H 0.05405 0.39585 0.35535 0.0
H1085 H 0.00701 0.38555 0.35847 0.0
H1086 H 0.02418 0.31416 0.42701 0.0
H1087 H 0.07137 0.32425 0.42498 0.0
C1088 C 0.18496 0.32167 0.2848 0.0
C1089 C 0.19124 0.29885 0.30832 0.0
C1090 C 0.16739 0.33976 0.30265 0.0
C1091 C 0.15563 0.33504 0.34387 0.0
C1092 C 0.16118 0.31189 0.36668 0.0
C1093 C 0.17905 0.29402 0.34924 0.0
C1094 C 0.13843 0.35476 0.36434 0.0
C1095 C 0.11185 0.34895 0.36973 0.0
C1096 C 0.14817 0.37919 0.37819 0.0
C1097 C 0.17617 0.38615 0.37321 0.0
C1098 C 0.19582 0.37093 0.39326 0.0
C1099 C 0.22219 0.37726 0.3875 0.0
C1100 C 0.22914 0.3989 0.36203 0.0
C1101 C 0.20972 0.41433 0.34245 0.0
C1102 C 0.18332 0.40806 0.34809 0.0
C1103 C 0.05675 0.41915 0.48739 0.0
C1104 C 0.05348 0.44471 0.47148 0.0
C1105 C 0.07387 0.40196 0.4662 0.0
C1106 C 0.08785 0.40994 0.42856 0.0
C1107 C 0.08537 0.43568 0.41356 0.0
C1108 C 0.0683 0.45293 0.43478 0.0
C1109 C 0.10458 0.39118 0.40431 0.0
C1110 C 0.13109 0.39716 0.39802 0.0
C1111 C 0.09463 0.3671 0.38881 0.0
C1112 C 0.06626 0.36093 0.39035 0.0
C1113 C 0.0478 0.37807 0.37146 0.0
C1114 C 0.02111 0.37225 0.37297 0.0
C1115 C 0.01262 0.34922 0.39292 0.0
C1116 C 0.0308 0.33199 0.41154 0.0
C1117 C 0.05753 0.33774 0.4102 0.0
H1118 H 0.99197 0.34468 0.39378 0.0
H1119 H 0.24957 0.40376 0.35754 0.0
H1120 H 0.9774 0.03479 0.82961 0.0
H1121 H 0.97672 0.02735 0.90953 0.0
H1122 H 0.0341 0.96605 0.89474 0.0
H1123 H 0.03478 0.97335 0.81436 0.0
H1124 H -0.00316 0.9522 0.95292 0.0
H1125 H 0.05156 0.02693 0.93206 0.0
H1126 H 0.06293 0.07061 0.90409 0.0
H1127 H -0.00117 0.10403 0.9769 0.0
H1128 H 0.98685 0.06047 1.00483 0.0
H1129 H 0.03013 0.94502 0.1813 0.0
H1130 H 0.03205 0.95125 0.10103 0.0
H1131 H 0.97498 0.01318 0.11082 0.0
H1132 H 0.97299 0.00706 0.19125 0.0
H1133 H 0.01329 0.02633 0.05503 0.0
H1134 H 0.95807 0.95166 0.07484 0.0
H1135 H 0.94647 0.90801 0.10269 0.0
H1136 H 0.01134 0.87454 0.03192 0.0
H1137 H 0.02355 0.91807 1.00412 0.0
C1138 C 0.99 0.0198 0.84333 0.0
C1139 C 0.0064 0.00488 0.8156 0.0
C1140 C 0.98958 0.01555 0.88909 0.0
C1141 C 0.00575 -0.00351 0.90838 0.0
C1142 C 0.02154 0.98096 0.88068 0.0
C1143 C 0.02187 0.98511 0.83473 0.0
C1144 C 0.00626 0.99301 0.95744 0.0
C1145 C 0.00083 0.96833 0.97522 0.0
C1146 C 0.0109 0.01415 0.9867 0.0
C1147 C 0.01818 0.0404 0.97022 0.0
C1148 C 0.03978 0.04357 0.94186 0.0
C1149 C 0.04635 0.06831 0.92605 0.0
C1150 C 0.03157 0.09007 0.93863 0.0
C1151 C 0.01024 0.08715 0.96715 0.0
C1152 C 0.00357 0.06244 0.98302 0.0
C1153 C 0.01788 0.95989 0.16638 0.0
C1154 C 0.00126 0.97541 0.19276 0.0
C1155 C 0.019 0.96343 0.12042 0.0
C1156 C 0.00335 0.98241 0.09967 0.0
C1157 C 0.98722 -0.00162 0.12601 0.0
C1158 C 0.98616 -0.00509 0.17204 0.0
C1159 C 0.00374 0.98556 0.05054 0.0
C1160 C 0.00936 0.01019 0.03274 0.0
C1161 C -0.00074 0.96437 0.02129 0.0
C1162 C 0.99187 0.93816 0.03776 0.0
C1163 C 0.96998 0.93502 0.06548 0.0
C1164 C 0.96328 0.9103 0.08122 0.0
C1165 C 0.9782 0.88853 0.06918 0.0
C1166 C -0.00018 0.89143 0.04127 0.0
C1167 C 0.00662 0.91611 0.02548 0.0
H1168 H 0.97298 0.8694 0.0814 0.0
H1169 H 0.03669 0.10921 0.92634 0.0
H1170 H 0.21869 0.77045 0.46949 0.0
H1171 H 0.21165 0.77104 0.38927 0.0
H1172 H 0.28767 0.73617 0.36909 0.0
H1173 H 0.2949 0.73561 0.4491 0.0
H1174 H 0.28029 0.77398 0.3105 0.0
H1175 H 0.23061 0.70042 0.36045 0.0
H1176 H 0.1979 0.67737 0.40582 0.0
H1177 H 0.13715 0.72694 0.35445 0.0
H1178 H 0.16957 0.75053 0.3092 0.0
H1179 H 0.26184 0.73328 0.08598 0.0
H1180 H 0.26955 0.73483 0.16604 0.0
H1181 H 0.19454 0.77204 0.18499 0.0
H1182 H 0.18676 0.77073 0.10509 0.0
H1183 H 0.20146 0.73345 0.24394 0.0
H1184 H 0.2516 0.80648 0.19269 0.0
H1185 H 0.28435 0.82796 0.14526 0.0
H1186 H 0.34453 0.77817 0.1979 0.0
H1187 H 0.31204 0.75613 0.24524 0.0
C1188 C 0.23389 0.76279 0.44808 0.0
C1189 C 0.25744 0.7531 0.46602 0.0
C1190 C 0.22983 0.76314 0.40208 0.0
C1191 C 0.24904 0.75346 0.37292 0.0
C1192 C 0.27258 0.74389 0.39073 0.0
C1193 C 0.27671 0.74365 0.43663 0.0
C1194 C 0.24462 0.7531 0.32393 0.0
C1195 C 0.26318 0.76485 0.29598 0.0
C1196 C 0.2221 0.74161 0.30473 0.0
C1197 C 0.20256 0.72741 0.33179 0.0
C1198 C 0.2103 0.70654 0.35909 0.0
C1199 C 0.19181 0.69335 0.38474 0.0
C1200 C 0.16548 0.70074 0.38312 0.0
C1201 C 0.15756 0.72127 0.35573 0.0
C1202 C 0.17598 0.73454 0.33005 0.0
C1203 C 0.24711 0.74211 0.10707 0.0
C1204 C 0.22363 0.75181 0.08891 0.0
C1205 C 0.25152 0.74292 0.15294 0.0
C1206 C 0.23268 0.75367 0.18169 0.0
C1207 C 0.20933 0.76352 0.16362 0.0
C1208 C 0.20489 0.76269 0.11784 0.0
C1209 C 0.23706 0.75436 0.23061 0.0
C1210 C 0.21851 0.74265 0.25852 0.0
C1211 C 0.25962 0.7658 0.24971 0.0
C1212 C 0.27933 0.7795 0.22223 0.0
C1213 C 0.27179 0.80003 0.194 0.0
C1214 C 0.29031 0.8123 0.16712 0.0
C1215 C 0.31649 0.80437 0.16844 0.0
C1216 C 0.32423 0.78426 0.19686 0.0
C1217 C 0.30578 0.77189 0.22377 0.0
H1218 H 0.33078 0.81385 0.1475 0.0
H1219 H 0.15119 0.6905 0.403 0.0
H1220 H 0.45237 0.01486 0.71599 0.0
H1221 H 0.4529 0.00829 0.63569 0.0
H1222 H 0.52769 0.96947 0.64594 0.0
H1223 H 0.5276 0.97656 0.72625 0.0
H1224 H 0.52734 0.00511 0.57937 0.0
H1225 H 0.47226 0.93523 0.62783 0.0
H1226 H 0.4351 0.91583 0.66798 0.0
H1227 H 0.38125 0.96102 0.58993 0.0
H1228 H 0.41812 0.9811 0.54987 0.0
H1229 H 0.53252 0.95088 0.36337 0.0
H1230 H 0.53085 0.95753 0.4435 0.0
H1231 H 0.45556 -0.00492 0.43042 0.0
H1232 H 0.45678 0.98783 0.35007 0.0
H1233 H 0.45566 0.96064 0.49834 0.0
H1234 H 0.51019 0.03074 0.45031 0.0
H1235 H 0.54707 0.05129 0.41111 0.0
H1236 H 0.60158 0.00649 0.48851 0.0
H1237 H 0.56499 0.98538 0.52777 0.0
C1238 C 0.46896 0.00495 0.70119 0.0
C1239 C 0.48998 -0.00371 0.72762 0.0
C1240 C 0.46914 0.00103 0.65527 0.0
C1241 C 0.49027 0.98825 0.63473 0.0
C1242 C 0.51117 0.97937 0.66103 0.0
C1243 C 0.51098 0.98322 0.70701 0.0
C1244 C 0.4908 0.98467 0.58574 0.0
C1245 C 0.51186 -0.00495 0.56172 0.0
C1246 C 0.47022 0.9722 0.56253 0.0
C1247 C 0.44798 0.95986 0.58612 0.0
C1248 C 0.45251 0.94119 0.61944 0.0
C1249 C 0.43149 0.93005 0.64217 0.0
C1250 C 0.40584 0.93723 0.63157 0.0
C1251 C 0.40114 0.95551 0.59814 0.0
C1252 C 0.42209 0.96677 0.5754 0.0
C1253 C 0.51552 0.96045 0.37749 0.0
C1254 C 0.49475 0.96877 0.35021 0.0
C1255 C 0.5147 0.96445 0.42334 0.0
C1256 C 0.49318 0.97701 0.44305 0.0
C1257 C 0.4724 0.98539 0.41598 0.0
C1258 C 0.47323 0.98143 0.37 0.0
C1259 C 0.49228 0.98098 0.49197 0.0
C1260 C 0.47114 0.9707 0.51598 0.0
C1261 C 0.51276 0.9936 0.51519 0.0
C1262 C 0.53482 0.00629 0.49169 0.0
C1263 C 0.53003 0.0251 0.45872 0.0
C1264 C 0.55089 0.03689 0.43654 0.0
C1265 C 0.57665 0.03015 0.44723 0.0
C1266 C 0.58161 0.01166 0.48022 0.0
C1267 C 0.56082 -0.0002 0.50248 0.0
H1268 H 0.59277 0.0393 0.43002 0.0
H1269 H 0.38959 0.92859 0.64922 0.0
H1270 H 0.26668 0.22319 0.9511 0.0
H1271 H 0.274 0.22311 0.87087 0.0
H1272 H 0.20144 0.26485 0.85156 0.0
H1273 H 0.19406 0.26512 0.93157 0.0
H1274 H 0.20557 0.22583 0.79328 0.0
H1275 H 0.26068 0.29555 0.84321 0.0
H1276 H 0.2952 0.31602 0.88845 0.0
H1277 H 0.35193 0.26231 0.83582 0.0
H1278 H 0.31765 0.24128 0.7907 0.0
H1279 H 0.22569 0.26558 0.56923 0.0
H1280 H 0.21823 0.26409 0.64934 0.0
H1281 H 0.29074 0.22198 0.6667 0.0
H1282 H 0.29825 0.22324 0.58672 0.0
H1283 H 0.28679 0.26068 0.72597 0.0
H1284 H 0.23154 0.19132 0.67519 0.0
H1285 H 0.1969 0.17114 0.62983 0.0
H1286 H 0.1403 0.22448 0.68391 0.0
H1287 H 0.1747 0.24523 0.72916 0.0
C1288 C 0.25241 0.23258 0.92983 0.0
C1289 C 0.22975 0.24412 0.94788 0.0
C1290 C 0.25659 0.23248 0.88391 0.0
C1291 C 0.23835 0.24413 0.85509 0.0
C1292 C 0.21574 0.25563 0.87303 0.0
C1293 C 0.21152 0.2557 0.91885 0.0
C1294 C 0.24265 0.24421 0.80623 0.0
C1295 C 0.2232 0.23375 0.77855 0.0
C1296 C 0.26588 0.25401 0.78693 0.0
C1297 C 0.28654 0.26667 0.81393 0.0
C1298 C 0.28047 0.28797 0.84155 0.0
C1299 C 0.30001 0.2997 0.86713 0.0
C1300 C 0.32573 0.29043 0.86511 0.0
C1301 C 0.33199 0.26945 0.83741 0.0
C1302 C 0.31252 0.25763 0.8118 0.0
C1303 C 0.23987 0.25568 0.59 0.0
C1304 C 0.26259 0.24456 0.57144 0.0
C1305 C 0.23561 0.25489 0.63586 0.0
C1306 C 0.25385 0.24279 0.66413 0.0
C1307 C 0.27644 0.23153 0.64566 0.0
C1308 C 0.28073 0.23233 0.59987 0.0
C1309 C 0.24971 0.24231 0.71302 0.0
C1310 C 0.26919 0.25271 0.74071 0.0
C1311 C 0.22649 0.23249 0.7323 0.0
C1312 C 0.20575 0.21999 0.70524 0.0
C1313 C 0.21175 0.19888 0.67715 0.0
C1314 C 0.19215 0.18732 0.6515 0.0
C1315 C 0.16643 0.19657 0.6539 0.0
C1316 C 0.16024 0.21736 0.68204 0.0
C1317 C 0.17978 0.22902 0.70772 0.0
H1318 H 0.15129 0.18759 0.63402 0.0
H1319 H 0.34082 0.29954 0.88492 0.0
H1320 H 0.77562 0.20474 0.95723 0.0
H1321 H 0.76871 0.20482 0.87707 0.0
H1322 H 0.72275 0.27522 0.88835 0.0
H1323 H 0.72978 0.27543 0.96866 0.0
H1324 H 0.70027 0.24075 0.83181 0.0
H1325 H 0.78571 0.27747 0.85251 0.0
H1326 H 0.83101 0.27881 0.88067 0.0
H1327 H 0.8493 0.20867 0.80901 0.0
H1328 H 0.80398 0.2067 0.7809 0.0
H1329 H 0.70056 0.27702 0.60553 0.0
H1330 H 0.70736 0.27619 0.68568 0.0
H1331 H 0.75488 0.20693 0.67233 0.0
H1332 H 0.74814 0.20764 0.59187 0.0
H1333 H 0.77657 0.2403 0.73001 0.0
H1334 H 0.69139 0.20356 0.70889 0.0
H1335 H 0.64607 0.2019 0.68087 0.0
H1336 H 0.62721 0.27157 0.75343 0.0
H1337 H 0.67254 0.27386 0.7814 0.0
C1338 C 0.76417 0.22036 0.94271 0.0
C1339 C 0.75347 0.24022 0.96949 0.0
C1340 C 0.76019 0.22034 0.89681 0.0
C1341 C 0.74554 0.24024 0.87652 0.0
C1342 C 0.73417 0.25968 0.90323 0.0
C1343 C 0.73813 0.25971 0.9492 0.0
C1344 C 0.74232 0.2409 0.82744 0.0
C1345 C 0.71695 0.241 0.80957 0.0
C1346 C 0.76408 0.24058 0.7983 0.0
C1347 C 0.79138 0.2418 0.81495 0.0
C1348 C 0.79934 0.26222 0.84302 0.0
C1349 C 0.82503 0.26311 0.85894 0.0
C1350 C 0.843 0.2438 0.84673 0.0
C1351 C 0.83534 0.22359 0.81848 0.0
C1352 C 0.80967 0.22259 0.80252 0.0
C1353 C 0.71234 0.26149 0.61961 0.0
C1354 C 0.7236 0.24224 0.59222 0.0
C1355 C 0.71622 0.26106 0.66551 0.0
C1356 C 0.73127 0.24124 0.68524 0.0
C1357 C 0.74313 0.22238 0.65793 0.0
C1358 C 0.73932 0.22285 0.6119 0.0
C1359 C 0.7345 0.2402 0.73433 0.0
C1360 C 0.75987 0.24002 0.75223 0.0
C1361 C 0.71274 0.2404 0.7635 0.0
C1362 C 0.68543 0.23901 0.7469 0.0
C1363 C 0.67763 0.21864 0.7186 0.0
C1364 C 0.65194 0.21757 0.70277 0.0
C1365 C 0.63379 0.23666 0.71527 0.0
C1366 C 0.64129 0.25682 0.74373 0.0
C1367 C 0.66698 0.258 0.75961 0.0
H1368 H 0.6139 0.2358 0.70298 0.0
H1369 H 0.86288 0.24452 0.85908 0.0
H1370 H 0.6947 0.72591 0.42863 0.0
H1371 H 0.7015 0.72632 0.34848 0.0
H1372 H 0.76707 0.77814 0.3651 0.0
H1373 H 0.75995 0.77836 0.4455 0.0
H1374 H 0.73548 0.79386 0.29755 0.0
H1375 H 0.77657 0.7138 0.34256 0.0
H1376 H 0.77907 0.67101 0.37959 0.0
H1377 H 0.71626 0.64274 0.29819 0.0
H1378 H 0.71313 0.6855 0.2611 0.0
H1379 H 0.78971 0.78057 0.08236 0.0
H1380 H 0.78173 0.78062 0.16211 0.0
H1381 H 0.71814 0.72654 0.14408 0.0
H1382 H 0.72668 0.72565 0.06418 0.0
H1383 H 0.74811 0.71195 0.21233 0.0
H1384 H 0.70688 0.79136 0.16689 0.0
H1385 H 0.70372 0.83406 0.12974 0.0
H1386 H 0.76572 0.86354 0.21168 0.0
H1387 H 0.76952 0.82087 0.2489 0.0
C1388 C 0.71048 0.73756 0.4153 0.0
C1389 C 0.72674 0.75217 0.44363 0.0
C1390 C 0.71449 0.73758 0.36941 0.0
C1391 C 0.73495 0.75207 0.35067 0.0
C1392 C 0.75119 0.76675 0.37877 0.0
C1393 C 0.74723 0.76669 0.42478 0.0
C1394 C 0.73916 0.7521 0.30174 0.0
C1395 C 0.73862 0.77598 0.279 0.0
C1396 C 0.74251 0.72872 0.27725 0.0
C1397 C 0.74445 0.70294 0.29935 0.0
C1398 C 0.76315 0.69853 0.33279 0.0
C1399 C 0.76471 0.67427 0.35375 0.0
C1400 C 0.74779 0.65419 0.34133 0.0
C1401 C 0.72933 0.65831 0.30782 0.0
C1402 C 0.72767 0.68255 0.28679 0.0
C1403 C 0.7741 0.76855 0.09527 0.0
C1404 C 0.7589 0.75302 0.06666 0.0
C1405 C 0.76937 0.76882 0.14096 0.0
C1406 C 0.74916 0.75378 0.15924 0.0
C1407 C 0.73382 0.73837 0.13082 0.0
C1408 C 0.73857 0.73806 0.08503 0.0
C1409 C 0.74449 0.75373 0.20809 0.0
C1410 C 0.74494 0.72984 0.23083 0.0
C1411 C 0.74096 0.7771 0.23256 0.0
C1412 C 0.73864 0.80283 0.2104 0.0
C1413 C 0.71998 0.80688 0.17676 0.0
C1414 C 0.71805 0.83109 0.15573 0.0
C1415 C 0.73455 0.85148 0.16827 0.0
C1416 C 0.75297 0.84772 0.20196 0.0
C1417 C 0.755 0.82353 0.22307 0.0
H1418 H 0.73303 0.87021 0.15195 0.0
H1419 H 0.74902 0.63542 0.3576 0.0
H1420 H 0.48446 0.51696 0.70738 0.0
H1421 H 0.48531 0.52418 0.62723 0.0
H1422 H 0.53076 0.45387 0.6099 0.0
H1423 H 0.53089 0.44707 0.69005 0.0
H1424 H 0.54882 0.49081 0.55702 0.0
H1425 H 0.46411 0.45563 0.58935 0.0
H1426 H 0.4214 0.45323 0.62718 0.0
H1427 H 0.40098 0.52909 0.57761 0.0
H1428 H 0.44373 0.53209 0.53995 0.0
H1429 H 0.52783 0.47747 0.32405 0.0
H1430 H 0.52813 0.46965 0.40418 0.0
H1431 H 0.48348 0.54017 0.42482 0.0
H1432 H 0.48232 0.54761 0.34494 0.0
H1433 H 0.46509 0.50229 0.47583 0.0
H1434 H 0.55029 0.53739 0.44397 0.0
H1435 H 0.59293 0.5393 0.40583 0.0
H1436 H 0.61227 0.46289 0.45416 0.0
H1437 H 0.56958 0.46039 0.49214 0.0
C1438 C 0.49497 0.50321 0.68665 0.0
C1439 C 0.50741 0.48128 0.70537 0.0
C1440 C 0.49519 0.50722 0.64067 0.0
C1441 C 0.50769 0.48932 0.61225 0.0
C1442 C 0.52081 0.46788 0.63096 0.0
C1443 C 0.52066 0.46389 0.67688 0.0
C1444 C 0.50684 0.49269 0.56308 0.0
C1445 C 0.53047 0.49299 0.53925 0.0
C1446 C 0.48298 0.49597 0.53971 0.0
C1447 C 0.45723 0.49419 0.5622 0.0
C1448 C 0.45059 0.47188 0.58679 0.0
C1449 C 0.42636 0.4704 0.60816 0.0
C1450 C 0.40852 0.49103 0.6049 0.0
C1451 C 0.41484 0.51315 0.58016 0.0
C1452 C 0.43906 0.51474 0.55877 0.0
C1453 C 0.51786 0.49119 0.34558 0.0
C1454 C 0.50526 0.51332 0.32788 0.0
C1455 C 0.51826 0.48682 0.3915 0.0
C1456 C 0.50616 0.50453 0.42077 0.0
C1457 C 0.49309 0.52628 0.40309 0.0
C1458 C 0.49267 0.53065 0.3573 0.0
C1459 C 0.50706 0.50055 0.46981 0.0
C1460 C 0.48344 0.5001 0.49361 0.0
C1461 C 0.53092 0.49707 0.49311 0.0
C1462 C 0.55664 0.4986 0.47052 0.0
C1463 C 0.56356 0.52092 0.4462 0.0
C1464 C 0.58775 0.52212 0.42465 0.0
C1465 C 0.60527 0.5012 0.42747 0.0
C1466 C 0.59867 0.47906 0.45196 0.0
C1467 C 0.57449 0.47775 0.47353 0.0
H1468 H 0.62399 0.50217 0.41077 0.0
H1469 H 0.38977 0.48984 0.62146 0.0
H1470 H 0.03427 0.44983 0.84483 0.0
H1471 H 0.03414 0.45687 0.92499 0.0
H1472 H 0.96861 0.50954 0.91168 0.0
H1473 H 0.96859 0.50254 0.83135 0.0
H1474 H 0.00377 0.52871 0.96872 0.0
H1475 H 0.9606 0.44653 0.94871 0.0
H1476 H 0.95588 0.40141 0.92157 0.0
H1477 H 0.02408 0.37837 0.99526 0.0
H1478 H 0.02941 0.42346 0.02236 0.0
H1479 H 0.96471 0.53288 0.19356 0.0
H1480 H 0.96612 0.52542 0.11364 0.0
H1481 H 0.03169 0.47317 0.13062 0.0
H1482 H 0.03038 0.48056 0.21094 0.0
H1483 H -0.00255 0.45367 0.07186 0.0
H1484 H 0.04027 0.53577 0.09269 0.0
H1485 H 0.04482 0.58085 0.12006 0.0
H1486 H 0.97723 0.60405 0.0449 0.0
H1487 H 0.97206 0.55899 1.01755 0.0
C1488 C 0.01971 0.4628 0.85892 0.0
C1489 C 0.00131 0.47546 0.83153 0.0
C1490 C 0.01967 0.46682 0.90485 0.0
C1491 C 0.0011 0.48343 0.92462 0.0
C1492 C 0.98312 0.4966 0.89729 0.0
C1493 C 0.98319 0.49265 0.85129 0.0
C1494 C 0.00038 0.48698 0.97373 0.0
C1495 C 0.00204 0.51231 0.99122 0.0
C1496 C -0.00122 0.46558 1.00331 0.0
C1497 C -0.00445 0.43843 0.9872 0.0
C1498 C 0.97471 0.43189 0.95885 0.0
C1499 C 0.9719 0.40631 0.94352 0.0
C1500 C 0.98971 0.38705 0.95659 0.0
C1501 C 0.01032 0.39332 0.98511 0.0
C1502 C 0.01323 0.41888 1.0005 0.0
C1503 C 0.97958 0.51993 0.18035 0.0
C1504 C -0.00238 0.50755 0.20875 0.0
C1505 C 0.98035 0.51566 0.13455 0.0
C1506 C -0.00069 0.49908 0.11586 0.0
C1507 C 0.01692 0.48612 0.14418 0.0
C1508 C 0.01611 0.49032 0.19013 0.0
C1509 C 0.00075 0.4954 0.06682 0.0
C1510 C -0.00077 0.47006 0.04935 0.0
C1511 C 0.00248 0.51679 0.03724 0.0
C1512 C 0.00565 0.54395 0.05339 0.0
C1513 C 0.02627 0.55044 0.08224 0.0
C1514 C 0.02897 0.576 0.09772 0.0
C1515 C 0.01129 0.59529 0.08431 0.0
C1516 C 0.9909 0.58908 0.0553 0.0
C1517 C 0.98809 0.56354 0.03976 0.0
H1518 H 0.01342 0.61506 0.09634 0.0
H1519 H 0.98751 0.36726 0.94469 0.0
loop_
_geom_bond_atom_site_label_1
_geom_bond_atom_site_label_2
_geom_bond_distance
_geom_bond_site_symmetry_2
_ccdc_geom_bond_type
Tb0 C9 2.764 1_455 S
Tb0 O10 2.325 1_445 S
Tb0 O13 2.303 1_545 S
Tb0 O17 2.322 . S
Tb0 O18 2.349 1_455 S
Tb0 O21 2.409 1_545 S
Tb0 O22 2.399 1_455 S
Tb1 O11 2.322 . S
Tb1 O12 2.349 1_655 S
Tb1 O14 2.405 1_565 S
Tb1 O15 2.399 1_655 S
Tb1 O16 2.325 1_665 S
Tb1 O19 2.303 1_565 S
Tb1 C30 2.764 1_655 S
C2 O18 1.261 . S
C2 O19 1.257 . S
C3 C6 1.358 . S
C3 C7 1.332 1_545 S
C3 C9 1.504 . S
C4 C5 1.373 . S
C4 C8 1.308 1_545 S
C5 C4 1.373 . S
C5 C6 1.429 . S
C5 H32 0.932 . S
C6 C3 1.358 . S
C6 C5 1.429 . S
C6 H33 0.930 . S
C7 C3 1.332 1_565 S
C7 C8 1.394 . S
C7 H34 0.932 1_655 S
C8 C4 1.308 1_565 S
C8 C7 1.394 . S
C8 H35 0.929 . S
C9 Tb0 2.764 1_655 S
C9 C3 1.504 . S
C9 O21 1.230 1_645 S
C9 O22 1.263 . S
O10 Tb0 2.325 1_665 S
O10 C20 1.236 . S
O11 Tb1 2.322 . S
O11 C20 1.257 . S
O12 Tb1 2.349 1_455 S
O12 C23 1.261 . S
O13 Tb0 2.303 1_565 S
O13 C23 1.257 . S
O14 Tb1 2.405 1_545 S
O14 C30 1.224 1_645 S
O15 Tb1 2.399 1_455 S
O15 C30 1.263 . S
O16 Tb1 2.325 1_445 S
O16 C31 1.236 . S
O17 Tb0 2.322 . S
O17 C31 1.257 . S
O18 Tb0 2.349 1_655 S
O18 C2 1.261 . S
O19 Tb1 2.303 1_545 S
O19 C2 1.257 . S
C20 O10 1.236 . S
C20 O11 1.257 . S
O21 Tb0 2.409 1_565 S
O21 C9 1.230 1_465 S
O22 Tb0 2.399 1_655 S
O22 C9 1.263 . S
C23 O12 1.261 . S
C23 O13 1.257 . S
C24 C27 1.358 . S
C24 C28 1.332 1_565 S
C24 C30 1.504 . S
C25 C26 1.373 . S
C25 C29 1.308 1_565 S
C26 C25 1.373 . S
C26 C27 1.429 . S
C26 H36 0.932 . S
C27 C24 1.358 . S
C27 C26 1.429 . S
C27 H37 0.930 . S
C28 C24 1.332 1_545 S
C28 C29 1.394 . S
C28 H38 0.916 1_455 S
C29 C25 1.308 1_545 S
C29 C28 1.394 . S
C29 H39 0.929 . S
C30 Tb1 2.764 1_455 S
C30 O14 1.224 1_465 S
C30 O15 1.263 . S
C30 C24 1.504 . S
C31 O16 1.236 . S
C31 O17 1.257 . S
H32 C5 0.932 . S
H33 C6 0.930 . S
H34 C7 0.932 1_455 S
H35 C8 0.929 . S
H36 C26 0.932 . S
H37 C27 0.930 . S
H38 C28 0.916 1_655 S
H39 C29 0.929 . S
Tb40 C49 2.764 . S
Tb40 O50 2.325 . S
Tb40 O53 2.303 . S
Tb40 O57 2.322 . S
Tb40 O58 2.349 . S
Tb40 O61 2.415 . S
Tb40 O62 2.399 . S
Tb41 O51 2.322 . S
Tb41 O52 2.349 . S
Tb41 O54 2.415 . S
Tb41 O55 2.399 . S
Tb41 O56 2.325 . S
Tb41 O59 2.303 . S
Tb41 C70 2.764 . S
C42 O58 1.261 . S
C42 O59 1.257 . S
C43 C46 1.358 . S
C43 C47 1.332 . S
C43 C49 1.504 . S
C44 C45 1.373 . S
C44 C48 1.308 . S
C45 C44 1.373 . S
C45 C46 1.429 1_554 S
C45 H72 0.932 . S
C46 C43 1.358 . S
C46 C45 1.429 1_556 S
C46 H73 0.930 . S
C47 C43 1.332 . S
C47 C48 1.394 1_556 S
C47 H74 0.932 . S
C48 C44 1.308 . S
C48 C47 1.394 1_554 S
C48 H75 0.929 . S
C49 Tb40 2.764 . S
C49 C43 1.504 . S
C49 O61 1.239 . S
C49 O62 1.263 . S
O50 Tb40 2.325 . S
O50 C60 1.236 . S
O51 Tb41 2.322 . S
O51 C60 1.257 . S
O52 Tb41 2.349 . S
O52 C63 1.261 . S
O53 Tb40 2.303 . S
O53 C63 1.257 . S
O54 Tb41 2.415 . S
O54 C70 1.239 . S
O55 Tb41 2.399 . S
O55 C70 1.263 . S
O56 Tb41 2.325 . S
O56 C71 1.236 . S
O57 Tb40 2.322 . S
O57 C71 1.257 . S
O58 Tb40 2.349 . S
O58 C42 1.261 . S
O59 Tb41 2.303 . S
O59 C42 1.257 . S
C60 O50 1.236 . S
C60 O51 1.257 . S
O61 Tb40 2.415 . S
O61 C49 1.239 . S
O62 Tb40 2.399 . S
O62 C49 1.263 . S
C63 O52 1.261 . S
C63 O53 1.257 . S
C64 C67 1.358 . S
C64 C68 1.332 . S
C64 C70 1.504 . S
C65 C66 1.373 . S
C65 C69 1.308 . S
C66 C65 1.373 . S
C66 C67 1.429 . S
C66 H76 0.932 . S
C67 C64 1.358 . S
C67 C66 1.429 . S
C67 H77 0.930 . S
C68 C64 1.332 . S
C68 C69 1.394 . S
C68 H78 0.932 . S
C69 C65 1.308 . S
C69 C68 1.394 . S
C69 H79 0.929 . S
C70 Tb41 2.764 . S
C70 O54 1.239 . S
C70 O55 1.263 . S
C70 C64 1.504 . S
C71 O56 1.236 . S
C71 O57 1.257 . S
H72 C45 0.932 . S
H73 C46 0.930 . S
H74 C47 0.932 . S
H75 C48 0.929 . S
H76 C66 0.932 . S
H77 C67 0.930 . S
H78 C68 0.932 . S
H79 C69 0.929 . S
Tb80 C89 2.764 . S
Tb80 O90 2.325 1_565 S
Tb80 O93 2.303 1_565 S
Tb80 O97 2.308 1_554 S
Tb80 O98 2.349 . S
Tb80 O101 2.405 1_565 S
Tb80 O102 2.399 . S
Tb81 O91 2.304 1_556 S
Tb81 O92 2.349 . S
Tb81 O94 2.409 1_545 S
Tb81 O95 2.399 . S
Tb81 O96 2.325 1_545 S
Tb81 O99 2.303 1_545 S
Tb81 C110 2.764 . S
C82 O98 1.261 1_556 S
C82 O99 1.257 . S
C83 C86 1.358 . S
C83 C87 1.332 1_565 S
C83 C89 1.504 . S
C84 C85 1.373 . S
C84 C88 1.308 1_565 S
C85 C84 1.373 . S
C85 C86 1.429 . S
C85 H112 0.932 . S
C86 C83 1.358 . S
C86 C85 1.429 . S
C86 H113 0.930 . S
C87 C83 1.332 1_545 S
C87 C88 1.394 . S
C87 H114 0.932 . S
C88 C84 1.308 1_545 S
C88 C87 1.394 . S
C88 H115 0.929 . S
C89 Tb80 2.764 . S
C89 C83 1.504 . S
C89 O101 1.224 1_565 S
C89 O102 1.263 . S
O90 Tb80 2.325 1_545 S
O90 C100 1.236 . S
O91 Tb81 2.304 1_554 S
O91 C100 1.280 . S
O92 Tb81 2.349 . S
O92 C103 1.261 1_556 S
O93 Tb80 2.303 1_545 S
O93 C103 1.257 . S
O94 Tb81 2.409 1_565 S
O94 C110 1.230 1_565 S
O95 Tb81 2.399 . S
O95 C110 1.263 . S
O96 Tb81 2.325 1_565 S
O96 C111 1.236 . S
O97 Tb80 2.308 1_556 S
O97 C111 1.274 . S
O98 Tb80 2.349 . S
O98 C82 1.261 1_554 S
O99 Tb81 2.303 1_565 S
O99 C82 1.257 . S
C100 O90 1.236 . S
C100 O91 1.280 . S
O101 Tb80 2.405 1_545 S
O101 C89 1.224 1_545 S
O102 Tb80 2.399 . S
O102 C89 1.263 . S
C103 O92 1.261 1_554 S
C103 O93 1.257 . S
C104 C107 1.358 . S
C104 C108 1.332 1_545 S
C104 C110 1.504 . S
C105 C106 1.373 . S
C105 C109 1.308 1_545 S
C106 C105 1.373 . S
C106 C107 1.429 . S
C106 H116 0.932 . S
C107 C104 1.358 . S
C107 C106 1.429 . S
C107 H117 0.930 . S
C108 C104 1.332 1_565 S
C108 C109 1.394 . S
C108 H118 0.932 . S
C109 C105 1.308 1_565 S
C109 C108 1.394 . S
C109 H119 0.929 . S
C110 Tb81 2.764 . S
C110 O94 1.230 1_545 S
C110 O95 1.263 . S
C110 C104 1.504 . S
C111 O96 1.236 . S
C111 O97 1.274 . S
H112 C85 0.932 . S
H113 C86 0.930 . S
H114 C87 0.932 . S
H115 C88 0.929 . S
H116 C106 0.932 . S
H117 C107 0.930 . S
H118 C108 0.932 . S
H119 C109 0.929 . S
Tb120 C129 2.764 . S
Tb120 O130 2.325 . S
Tb120 O133 2.303 . S
Tb120 O137 2.322 . S
Tb120 O138 2.349 . S
Tb120 O141 2.415 . S
Tb120 O142 2.399 . S
Tb121 O131 2.322 . S
Tb121 O132 2.349 . S
Tb121 O134 2.415 . S
Tb121 O135 2.399 . S
Tb121 O136 2.325 . S
Tb121 O139 2.303 . S
Tb121 C150 2.764 . S
C122 O138 1.261 . S
C122 O139 1.257 . S
C123 C126 1.358 . S
C123 C127 1.332 . S
C123 C129 1.504 . S
C124 C125 1.373 . S
C124 C128 1.308 . S
C125 C124 1.373 . S
C125 C126 1.429 . S
C125 H152 0.932 . S
C126 C123 1.358 . S
C126 C125 1.429 . S
C126 H153 0.930 . S
C127 C123 1.332 . S
C127 C128 1.394 . S
C127 H154 0.932 . S
C128 C124 1.308 . S
C128 C127 1.394 . S
C128 H155 0.929 . S
C129 Tb120 2.764 . S
C129 C123 1.504 . S
C129 O141 1.239 . S
C129 O142 1.263 . S
O130 Tb120 2.325 . S
O130 C140 1.236 . S
O131 Tb121 2.322 . S
O131 C140 1.257 . S
O132 Tb121 2.349 . S
O132 C143 1.261 . S
O133 Tb120 2.303 . S
O133 C143 1.257 . S
O134 Tb121 2.415 . S
O134 C150 1.239 . S
O135 Tb121 2.399 . S
O135 C150 1.263 . S
O136 Tb121 2.325 . S
O136 C151 1.236 . S
O137 Tb120 2.322 . S
O137 C151 1.257 . S
O138 Tb120 2.349 . S
O138 C122 1.261 . S
O139 Tb121 2.303 . S
O139 C122 1.257 . S
C140 O130 1.236 . S
C140 O131 1.257 . S
O141 Tb120 2.415 . S
O141 C129 1.239 . S
O142 Tb120 2.399 . S
O142 C129 1.263 . S
C143 O132 1.261 . S
C143 O133 1.257 . S
C144 C147 1.358 . S
C144 C148 1.332 . S
C144 C150 1.504 . S
C145 C146 1.373 . S
C145 C149 1.308 . S
C146 C145 1.373 . S
C146 C147 1.429 1_556 S
C146 H156 0.932 . S
C147 C144 1.358 . S
C147 C146 1.429 1_554 S
C147 H157 0.930 . S
C148 C144 1.332 . S
C148 C149 1.394 1_554 S
C148 H158 0.932 . S
C149 C145 1.308 . S
C149 C148 1.394 1_556 S
C149 H159 0.929 . S
C150 Tb121 2.764 . S
C150 O134 1.239 . S
C150 O135 1.263 . S
C150 C144 1.504 . S
C151 O136 1.236 . S
C151 O137 1.257 . S
H152 C125 0.932 . S
H153 C126 0.930 . S
H154 C127 0.932 . S
H155 C128 0.929 . S
H156 C146 0.932 . S
H157 C147 0.930 . S
H158 C148 0.932 . S
H159 C149 0.929 . S
Tb160 C169 2.764 . S
Tb160 O170 2.325 . S
Tb160 O173 2.303 . S
Tb160 O177 2.322 . S
Tb160 O178 2.349 . S
Tb160 O181 2.415 . S
Tb160 O182 2.399 . S
Tb161 O171 2.322 . S
Tb161 O172 2.349 . S
Tb161 O174 2.415 . S
Tb161 O175 2.399 . S
Tb161 O176 2.325 . S
Tb161 O179 2.303 . S
Tb161 C190 2.764 . S
C162 O178 1.261 . S
C162 O179 1.257 . S
C163 C166 1.358 . S
C163 C167 1.332 . S
C163 C169 1.504 . S
C164 C165 1.373 . S
C164 C168 1.308 . S
C165 C164 1.373 . S
C165 C166 1.429 . S
C165 H192 0.932 . S
C166 C163 1.358 . S
C166 C165 1.429 . S
C166 H193 0.930 . S
C167 C163 1.332 . S
C167 C168 1.394 . S
C167 H194 0.932 . S
C168 C164 1.308 . S
C168 C167 1.394 . S
C168 H195 0.929 . S
C169 Tb160 2.764 . S
C169 C163 1.504 . S
C169 O181 1.239 . S
C169 O182 1.263 . S
O170 Tb160 2.325 . S
O170 C180 1.236 . S
O171 Tb161 2.322 . S
O171 C180 1.257 . S
O172 Tb161 2.349 . S
O172 C183 1.261 . S
O173 Tb160 2.303 . S
O173 C183 1.257 . S
O174 Tb161 2.415 . S
O174 C190 1.239 . S
O175 Tb161 2.399 . S
O175 C190 1.263 . S
O176 Tb161 2.325 . S
O176 C191 1.236 . S
O177 Tb160 2.322 . S
O177 C191 1.257 . S
O178 Tb160 2.349 . S
O178 C162 1.261 . S
O179 Tb161 2.303 . S
O179 C162 1.257 . S
C180 O170 1.236 . S
C180 O171 1.257 . S
O181 Tb160 2.415 . S
O181 C169 1.239 . S
O182 Tb160 2.399 . S
O182 C169 1.263 . S
C183 O172 1.261 . S
C183 O173 1.257 . S
C184 C187 1.358 . S
C184 C188 1.332 . S
C184 C190 1.504 . S
C185 C186 1.373 . S
C185 C189 1.308 . S
C186 C185 1.373 . S
C186 C187 1.429 1_556 S
C186 H196 0.932 . S
C187 C184 1.358 . S
C187 C186 1.429 1_554 S
C187 H197 0.930 . S
C188 C184 1.332 . S
C188 C189 1.394 1_554 S
C188 H198 0.932 . S
C189 C185 1.308 . S
C189 C188 1.394 1_556 S
C189 H199 0.929 . S
C190 Tb161 2.764 . S
C190 O174 1.239 . S
C190 O175 1.263 . S
C190 C184 1.504 . S
C191 O176 1.236 . S
C191 O177 1.257 . S
H192 C165 0.932 . S
H193 C166 0.930 . S
H194 C167 0.932 . S
H195 C168 0.929 . S
H196 C186 0.932 . S
H197 C187 0.930 . S
H198 C188 0.932 . S
H199 C189 0.929 . S
Tb200 C209 2.764 . S
Tb200 O210 2.325 . S
Tb200 O213 2.303 . S
Tb200 O217 2.322 . S
Tb200 O218 2.349 . S
Tb200 O221 2.415 . S
Tb200 O222 2.399 . S
Tb201 O211 2.322 . S
Tb201 O212 2.349 . S
Tb201 O214 2.415 . S
Tb201 O215 2.399 . S
Tb201 O216 2.325 . S
Tb201 O219 2.303 . S
Tb201 C230 2.764 . S
C202 O218 1.261 . S
C202 O219 1.257 . S
C203 C206 1.358 . S
C203 C207 1.332 . S
C203 C209 1.504 . S
C204 C205 1.373 . S
C204 C208 1.308 . S
C205 C204 1.373 . S
C205 C206 1.429 1_554 S
C205 H232 0.932 . S
C206 C203 1.358 . S
C206 C205 1.429 1_556 S
C206 H233 0.930 . S
C207 C203 1.332 . S
C207 C208 1.394 1_556 S
C207 H234 0.932 . S
C208 C204 1.308 . S
C208 C207 1.394 1_554 S
C208 H235 0.929 . S
C209 Tb200 2.764 . S
C209 C203 1.504 . S
C209 O221 1.239 . S
C209 O222 1.263 . S
O210 Tb200 2.325 . S
O210 C220 1.236 . S
O211 Tb201 2.322 . S
O211 C220 1.257 . S
O212 Tb201 2.349 . S
O212 C223 1.261 . S
O213 Tb200 2.303 . S
O213 C223 1.257 . S
O214 Tb201 2.415 . S
O214 C230 1.239 . S
O215 Tb201 2.399 . S
O215 C230 1.263 . S
O216 Tb201 2.325 . S
O216 C231 1.236 . S
O217 Tb200 2.322 . S
O217 C231 1.257 . S
O218 Tb200 2.349 . S
O218 C202 1.261 . S
O219 Tb201 2.303 . S
O219 C202 1.257 . S
C220 O210 1.236 . S
C220 O211 1.257 . S
O221 Tb200 2.415 . S
O221 C209 1.239 . S
O222 Tb200 2.399 . S
O222 C209 1.263 . S
C223 O212 1.261 . S
C223 O213 1.257 . S
C224 C227 1.358 . S
C224 C228 1.332 . S
C224 C230 1.504 . S
C225 C226 1.373 . S
C225 C229 1.308 . S
C226 C225 1.373 . S
C226 C227 1.429 . S
C226 H236 0.932 . S
C227 C224 1.358 . S
C227 C226 1.429 . S
C227 H237 0.930 . S
C228 C224 1.332 . S
C228 C229 1.394 . S
C228 H238 0.932 . S
C229 C225 1.308 . S
C229 C228 1.394 . S
C229 H239 0.929 . S
C230 Tb201 2.764 . S
C230 O214 1.239 . S
C230 O215 1.263 . S
C230 C224 1.504 . S
C231 O216 1.236 . S
C231 O217 1.257 . S
H232 C205 0.932 . S
H233 C206 0.930 . S
H234 C207 0.932 . S
H235 C208 0.929 . S
H236 C226 0.932 . S
H237 C227 0.930 . S
H238 C228 0.932 . S
H239 C229 0.929 . S
Tb240 C249 2.764 . S
Tb240 O250 2.325 . S
Tb240 O253 2.303 . S
Tb240 O257 2.308 1_554 S
Tb240 O258 2.349 . S
Tb240 O261 2.415 . S
Tb240 O262 2.399 . S
Tb241 O251 2.304 1_556 S
Tb241 O252 2.349 . S
Tb241 O254 2.415 . S
Tb241 O255 2.399 . S
Tb241 O256 2.325 . S
Tb241 O259 2.303 . S
Tb241 C270 2.764 . S
C242 O258 1.261 1_556 S
C242 O259 1.257 . S
C243 C246 1.358 . S
C243 C247 1.332 . S
C243 C249 1.504 . S
C244 C245 1.373 . S
C244 C248 1.308 . S
C245 C244 1.373 . S
C245 C246 1.429 . S
C245 H272 0.932 . S
C246 C243 1.358 . S
C246 C245 1.429 . S
C246 H273 0.930 . S
C247 C243 1.332 . S
C247 C248 1.394 . S
C247 H274 0.932 . S
C248 C244 1.308 . S
C248 C247 1.394 . S
C248 H275 0.929 . S
C249 Tb240 2.764 . S
C249 C243 1.504 . S
C249 O261 1.239 . S
C249 O262 1.263 . S
O250 Tb240 2.325 . S
O250 C260 1.236 . S
O251 Tb241 2.304 1_554 S
O251 C260 1.280 . S
O252 Tb241 2.349 . S
O252 C263 1.261 1_556 S
O253 Tb240 2.303 . S
O253 C263 1.257 . S
O254 Tb241 2.415 . S
O254 C270 1.239 . S
O255 Tb241 2.399 . S
O255 C270 1.263 . S
O256 Tb241 2.325 . S
O256 C271 1.236 . S
O257 Tb240 2.308 1_556 S
O257 C271 1.274 . S
O258 Tb240 2.349 . S
O258 C242 1.261 1_554 S
O259 Tb241 2.303 . S
O259 C242 1.257 . S
C260 O250 1.236 . S
C260 O251 1.280 . S
O261 Tb240 2.415 . S
O261 C249 1.239 . S
O262 Tb240 2.399 . S
O262 C249 1.263 . S
C263 O252 1.261 1_554 S
C263 O253 1.257 . S
C264 C267 1.358 . S
C264 C268 1.332 . S
C264 C270 1.504 . S
C265 C266 1.373 . S
C265 C269 1.308 . S
C266 C265 1.373 . S
C266 C267 1.429 . S
C266 H276 0.932 . S
C267 C264 1.358 . S
C267 C266 1.429 . S
C267 H277 0.930 . S
C268 C264 1.332 . S
C268 C269 1.394 . S
C268 H278 0.932 . S
C269 C265 1.308 . S
C269 C268 1.394 . S
C269 H279 0.929 . S
C270 Tb241 2.764 . S
C270 O254 1.239 . S
C270 O255 1.263 . S
C270 C264 1.504 . S
C271 O256 1.236 . S
C271 O257 1.274 . S
H272 C245 0.932 . S
H273 C246 0.930 . S
H274 C247 0.932 . S
H275 C248 0.929 . S
H276 C266 0.932 . S
H277 C267 0.930 . S
H278 C268 0.932 . S
H279 C269 0.929 . S
Tb280 C289 2.764 1_655 S
Tb280 O290 2.325 1_655 S
Tb280 O293 2.303 . S
Tb280 O297 2.322 . S
Tb280 O298 2.349 1_655 S
Tb280 O301 2.415 . S
Tb280 O302 2.399 1_655 S
Tb281 O291 2.322 . S
Tb281 O292 2.349 1_455 S
Tb281 O294 2.415 . S
Tb281 O295 2.399 1_455 S
Tb281 O296 2.325 1_455 S
Tb281 O299 2.303 . S
Tb281 C310 2.764 1_455 S
C282 O298 1.261 . S
C282 O299 1.257 . S
C283 C286 1.358 . S
C283 C287 1.332 . S
C283 C289 1.504 . S
C284 C285 1.373 . S
C284 C288 1.308 . S
C285 C284 1.373 . S
C285 C286 1.429 . S
C285 H312 0.932 . S
C286 C283 1.358 . S
C286 C285 1.429 . S
C286 H313 0.930 . S
C287 C283 1.332 . S
C287 C288 1.394 . S
C287 H314 0.916 1_455 S
C288 C284 1.308 . S
C288 C287 1.394 . S
C288 H315 0.929 . S
C289 Tb280 2.764 1_455 S
C289 C283 1.504 . S
C289 O301 1.239 1_455 S
C289 O302 1.263 . S
O290 Tb280 2.325 1_455 S
O290 C300 1.236 . S
O291 Tb281 2.322 . S
O291 C300 1.257 . S
O292 Tb281 2.349 1_655 S
O292 C303 1.261 . S
O293 Tb280 2.303 . S
O293 C303 1.257 . S
O294 Tb281 2.415 . S
O294 C310 1.239 1_455 S
O295 Tb281 2.399 1_655 S
O295 C310 1.263 . S
O296 Tb281 2.325 1_655 S
O296 C311 1.236 . S
O297 Tb280 2.322 . S
O297 C311 1.257 . S
O298 Tb280 2.349 1_455 S
O298 C282 1.261 . S
O299 Tb281 2.303 . S
O299 C282 1.257 . S
C300 O290 1.236 . S
C300 O291 1.257 . S
O301 Tb280 2.415 . S
O301 C289 1.239 1_655 S
O302 Tb280 2.399 1_455 S
O302 C289 1.263 . S
C303 O292 1.261 . S
C303 O293 1.257 . S
C304 C307 1.358 . S
C304 C308 1.332 . S
C304 C310 1.504 . S
C305 C306 1.373 . S
C305 C309 1.308 . S
C306 C305 1.373 . S
C306 C307 1.429 . S
C306 H316 0.932 . S
C307 C304 1.358 . S
C307 C306 1.429 . S
C307 H317 0.930 . S
C308 C304 1.332 . S
C308 C309 1.394 . S
C308 H318 0.932 1_655 S
C309 C305 1.308 . S
C309 C308 1.394 . S
C309 H319 0.929 . S
C310 Tb281 2.764 1_655 S
C310 O294 1.239 1_655 S
C310 O295 1.263 . S
C310 C304 1.504 . S
C311 O296 1.236 . S
C311 O297 1.257 . S
H312 C285 0.932 . S
H313 C286 0.930 . S
H314 C287 0.916 1_655 S
H315 C288 0.929 . S
H316 C306 0.932 . S
H317 C307 0.930 . S
H318 C308 0.932 1_455 S
H319 C309 0.929 . S
H320 C338 0.951 . S
H321 C340 0.951 . S
H322 C342 0.950 . S
H323 C343 0.950 . S
H324 C345 0.950 . S
H325 C348 0.950 . S
H326 C349 0.950 . S
H327 C351 0.950 . S
H328 C352 0.950 . S
H329 C353 0.951 . S
H330 C355 0.951 . S
H331 C357 0.950 . S
H332 C358 0.950 . S
H333 C360 0.950 . S
H334 C363 0.950 . S
H335 C364 0.950 . S
H336 C366 0.950 . S
H337 C367 0.950 . S
C338 H320 0.951 . S
C338 C339 1.366 . S
C338 C340 1.388 . S
C339 C338 1.366 . S
C339 C343 1.385 . S
C340 H321 0.951 . S
C340 C338 1.388 . S
C340 C341 1.366 . S
C341 C340 1.366 . S
C341 C342 1.414 . S
C341 C344 1.499 . S
C342 H322 0.950 . S
C342 C341 1.414 . S
C342 C343 1.374 . S
C343 H323 0.950 . S
C343 C339 1.385 . S
C343 C342 1.374 . S
C344 C341 1.499 . S
C344 C345 1.373 . S
C344 C346 1.389 . S
C345 H324 0.950 . S
C345 C344 1.373 . S
C345 C361 1.377 . S
C346 C344 1.389 . S
C346 C347 1.524 . S
C346 C360 1.377 . S
C347 C346 1.524 . S
C347 C348 1.397 . S
C347 C352 1.363 . S
C348 H325 0.950 . S
C348 C347 1.397 . S
C348 C349 1.334 . S
C349 H326 0.950 . S
C349 C348 1.334 . S
C349 C350 1.287 . S
C350 C349 1.287 . S
C350 C351 1.524 . S
C350 H369 0.913 . S
C351 H327 0.950 . S
C351 C350 1.524 . S
C351 C352 1.415 . S
C352 H328 0.950 . S
C352 C347 1.363 . S
C352 C351 1.415 . S
C353 H329 0.951 . S
C353 C354 1.366 . S
C353 C355 1.388 . S
C354 C353 1.366 . S
C354 C358 1.385 . S
C355 H330 0.951 . S
C355 C353 1.388 . S
C355 C356 1.366 . S
C356 C355 1.366 . S
C356 C357 1.414 . S
C356 C359 1.499 . S
C357 H331 0.950 . S
C357 C356 1.414 . S
C357 C358 1.374 . S
C358 H332 0.950 . S
C358 C354 1.385 . S
C358 C357 1.374 . S
C359 C356 1.499 . S
C359 C360 1.373 . S
C359 C361 1.389 . S
C360 H333 0.950 . S
C360 C346 1.377 . S
C360 C359 1.373 . S
C361 C345 1.377 . S
C361 C359 1.389 . S
C361 C362 1.524 . S
C362 C361 1.524 . S
C362 C363 1.397 . S
C362 C367 1.363 . S
C363 H334 0.950 . S
C363 C362 1.397 . S
C363 C364 1.334 . S
C364 H335 0.950 . S
C364 C363 1.334 . S
C364 C365 1.287 . S
C365 C364 1.287 . S
C365 C366 1.524 . S
C365 H368 0.999 . S
C366 H336 0.950 . S
C366 C365 1.524 . S
C366 C367 1.415 . S
C367 H337 0.950 . S
C367 C362 1.363 . S
C367 C366 1.415 . S
H368 C365 0.999 . S
H369 C350 0.913 . S
H370 C388 0.951 . S
H371 C390 0.951 . S
H372 C392 0.950 . S
H373 C393 0.950 . S
H374 C395 0.950 . S
H375 C398 0.950 . S
H376 C399 0.950 . S
H377 C401 0.950 . S
H378 C402 0.950 . S
H379 C403 0.951 . S
H380 C405 0.951 . S
H381 C407 0.950 . S
H382 C408 0.950 . S
H383 C410 0.950 . S
H384 C413 0.950 . S
H385 C414 0.950 . S
H386 C416 0.950 . S
H387 C417 0.950 . S
C388 H370 0.951 . S
C388 C389 1.366 . S
C388 C390 1.388 . S
C389 C388 1.366 . S
C389 C393 1.385 . S
C390 H371 0.951 . S
C390 C388 1.388 . S
C390 C391 1.366 . S
C391 C390 1.366 . S
C391 C392 1.414 . S
C391 C394 1.499 . S
C392 H372 0.950 . S
C392 C391 1.414 . S
C392 C393 1.374 . S
C393 H373 0.950 . S
C393 C389 1.385 . S
C393 C392 1.374 . S
C394 C391 1.499 . S
C394 C395 1.373 . S
C394 C396 1.389 . S
C395 H374 0.950 . S
C395 C394 1.373 . S
C395 C411 1.377 . S
C396 C394 1.389 . S
C396 C397 1.524 . S
C396 C410 1.377 . S
C397 C396 1.524 . S
C397 C398 1.397 . S
C397 C402 1.363 . S
C398 H375 0.950 . S
C398 C397 1.397 . S
C398 C399 1.334 . S
C399 H376 0.950 . S
C399 C398 1.334 . S
C399 C400 1.287 . S
C400 C399 1.287 . S
C400 C401 1.524 . S
C400 H419 0.913 . S
C401 H377 0.950 . S
C401 C400 1.524 . S
C401 C402 1.415 . S
C402 H378 0.950 . S
C402 C397 1.363 . S
C402 C401 1.415 . S
C403 H379 0.951 . S
C403 C404 1.366 . S
C403 C405 1.388 . S
C404 C403 1.366 . S
C404 C408 1.385 . S
C405 H380 0.951 . S
C405 C403 1.388 . S
C405 C406 1.366 . S
C406 C405 1.366 . S
C406 C407 1.414 . S
C406 C409 1.499 . S
C407 H381 0.950 . S
C407 C406 1.414 . S
C407 C408 1.374 . S
C408 H382 0.950 . S
C408 C404 1.385 . S
C408 C407 1.374 . S
C409 C406 1.499 . S
C409 C410 1.373 . S
C409 C411 1.389 . S
C410 H383 0.950 . S
C410 C396 1.377 . S
C410 C409 1.373 . S
C411 C395 1.377 . S
C411 C409 1.389 . S
C411 C412 1.524 . S
C412 C411 1.524 . S
C412 C413 1.397 . S
C412 C417 1.363 . S
C413 H384 0.950 . S
C413 C412 1.397 . S
C413 C414 1.334 . S
C414 H385 0.950 . S
C414 C413 1.334 . S
C414 C415 1.287 . S
C415 C414 1.287 . S
C415 C416 1.524 . S
C415 H418 0.999 . S
C416 H386 0.950 . S
C416 C415 1.524 . S
C416 C417 1.415 . S
C417 H387 0.950 . S
C417 C412 1.363 . S
C417 C416 1.415 . S
H418 C415 0.999 . S
H419 C400 0.913 . S
H420 C438 0.951 . S
H421 C440 0.951 . S
H422 C442 0.950 . S
H423 C443 0.950 . S
H424 C445 0.950 . S
H425 C448 0.950 . S
H426 C449 0.950 . S
H427 C451 0.950 . S
H428 C452 0.950 . S
H429 C453 0.951 . S
H430 C455 0.951 . S
H431 C457 0.950 . S
H432 C458 0.950 . S
H433 C460 0.950 . S
H434 C463 0.950 . S
H435 C464 0.950 . S
H436 C466 0.950 . S
H437 C467 0.950 . S
C438 H420 0.951 . S
C438 C439 1.366 . S
C438 C440 1.388 . S
C439 C438 1.366 . S
C439 C443 1.385 . S
C440 H421 0.951 . S
C440 C438 1.388 . S
C440 C441 1.366 . S
C441 C440 1.366 . S
C441 C442 1.414 . S
C441 C444 1.499 . S
C442 H422 0.950 . S
C442 C441 1.414 . S
C442 C443 1.374 . S
C443 H423 0.950 . S
C443 C439 1.385 . S
C443 C442 1.374 . S
C444 C441 1.499 . S
C444 C445 1.373 . S
C444 C446 1.389 . S
C445 H424 0.950 . S
C445 C444 1.373 . S
C445 C461 1.377 . S
C446 C444 1.389 . S
C446 C447 1.524 . S
C446 C460 1.377 . S
C447 C446 1.524 . S
C447 C448 1.397 . S
C447 C452 1.363 . S
C448 H425 0.950 . S
C448 C447 1.397 . S
C448 C449 1.334 . S
C449 H426 0.950 . S
C449 C448 1.334 . S
C449 C450 1.287 . S
C450 C449 1.287 . S
C450 C451 1.524 . S
C450 H469 0.913 . S
C451 H427 0.950 . S
C451 C450 1.524 . S
C451 C452 1.415 . S
C452 H428 0.950 . S
C452 C447 1.363 . S
C452 C451 1.415 . S
C453 H429 0.951 . S
C453 C454 1.366 . S
C453 C455 1.388 . S
C454 C453 1.366 . S
C454 C458 1.385 . S
C455 H430 0.951 . S
C455 C453 1.388 . S
C455 C456 1.366 . S
C456 C455 1.366 . S
C456 C457 1.414 . S
C456 C459 1.499 . S
C457 H431 0.950 . S
C457 C456 1.414 . S
C457 C458 1.374 . S
C458 H432 0.950 . S
C458 C454 1.385 . S
C458 C457 1.374 . S
C459 C456 1.499 . S
C459 C460 1.373 . S
C459 C461 1.389 . S
C460 H433 0.950 . S
C460 C446 1.377 . S
C460 C459 1.373 . S
C461 C445 1.377 . S
C461 C459 1.389 . S
C461 C462 1.524 . S
C462 C461 1.524 . S
C462 C463 1.397 . S
C462 C467 1.363 . S
C463 H434 0.950 . S
C463 C462 1.397 . S
C463 C464 1.334 . S
C464 H435 0.950 . S
C464 C463 1.334 . S
C464 C465 1.287 . S
C465 C464 1.287 . S
C465 C466 1.524 . S
C465 H468 0.999 . S
C466 H436 0.950 . S
C466 C465 1.524 . S
C466 C467 1.415 . S
C467 H437 0.950 . S
C467 C462 1.363 . S
C467 C466 1.415 . S
H468 C465 0.999 . S
H469 C450 0.913 . S
H470 C488 0.951 . S
H471 C490 0.951 . S
H472 C492 0.950 . S
H473 C493 0.950 1_556 S
H474 C495 0.950 . S
H475 C498 0.950 . S
H476 C499 0.950 . S
H477 C501 0.950 . S
H478 C502 0.950 . S
H479 C503 0.951 . S
H480 C505 0.951 . S
H481 C507 0.950 . S
H482 C508 0.950 . S
H483 C510 0.950 . S
H484 C513 0.950 . S
H485 C514 0.950 . S
H486 C516 0.950 . S
H487 C517 0.950 . S
C488 H470 0.951 . S
C488 C489 1.366 . S
C488 C490 1.388 . S
C489 C488 1.366 . S
C489 C493 1.385 . S
C490 H471 0.951 . S
C490 C488 1.388 . S
C490 C491 1.366 . S
C491 C490 1.366 . S
C491 C492 1.414 . S
C491 C494 1.499 . S
C492 H472 0.950 . S
C492 C491 1.414 . S
C492 C493 1.374 . S
C493 H473 0.950 1_554 S
C493 C489 1.385 . S
C493 C492 1.374 . S
C494 C491 1.499 . S
C494 C495 1.373 . S
C494 C496 1.389 . S
C495 H474 0.950 . S
C495 C494 1.373 . S
C495 C511 1.377 . S
C496 C494 1.389 . S
C496 C497 1.524 . S
C496 C510 1.377 . S
C497 C496 1.524 . S
C497 C498 1.397 . S
C497 C502 1.363 . S
C498 H475 0.950 . S
C498 C497 1.397 . S
C498 C499 1.334 . S
C499 H476 0.950 . S
C499 C498 1.334 . S
C499 C500 1.287 . S
C500 C499 1.287 . S
C500 C501 1.524 . S
C500 H519 0.913 . S
C501 H477 0.950 . S
C501 C500 1.524 . S
C501 C502 1.415 . S
C502 H478 0.950 . S
C502 C497 1.363 . S
C502 C501 1.415 . S
C503 H479 0.951 . S
C503 C504 1.366 . S
C503 C505 1.388 . S
C504 C503 1.366 . S
C504 C508 1.385 . S
C505 H480 0.951 . S
C505 C503 1.388 . S
C505 C506 1.366 . S
C506 C505 1.366 . S
C506 C507 1.414 . S
C506 C509 1.499 . S
C507 H481 0.950 . S
C507 C506 1.414 . S
C507 C508 1.374 . S
C508 H482 0.950 . S
C508 C504 1.385 . S
C508 C507 1.374 . S
C509 C506 1.499 . S
C509 C510 1.373 . S
C509 C511 1.389 . S
C510 H483 0.950 . S
C510 C496 1.377 . S
C510 C509 1.373 . S
C511 C495 1.377 . S
C511 C509 1.389 . S
C511 C512 1.524 . S
C512 C511 1.524 . S
C512 C513 1.397 . S
C512 C517 1.363 . S
C513 H484 0.950 . S
C513 C512 1.397 . S
C513 C514 1.334 . S
C514 H485 0.950 . S
C514 C513 1.334 . S
C514 C515 1.287 . S
C515 C514 1.287 . S
C515 C516 1.524 1_554 S
C515 H518 0.999 . S
C516 H486 0.950 . S
C516 C515 1.524 1_556 S
C516 C517 1.415 1_556 S
C517 H487 0.950 . S
C517 C512 1.363 . S
C517 C516 1.415 1_554 S
H518 C515 0.999 . S
H519 C500 0.913 . S
H520 C538 0.951 . S
H521 C540 0.951 . S
H522 C542 0.950 . S
H523 C543 0.950 . S
H524 C545 0.950 . S
H525 C548 0.950 . S
H526 C549 0.950 . S
H527 C551 0.950 . S
H528 C552 0.950 . S
H529 C553 0.951 . S
H530 C555 0.951 . S
H531 C557 0.950 . S
H532 C558 0.950 . S
H533 C560 0.950 . S
H534 C563 0.950 . S
H535 C564 0.950 . S
H536 C566 0.950 . S
H537 C567 0.950 . S
C538 H520 0.951 . S
C538 C539 1.366 . S
C538 C540 1.388 . S
C539 C538 1.366 . S
C539 C543 1.385 . S
C540 H521 0.951 . S
C540 C538 1.388 . S
C540 C541 1.366 . S
C541 C540 1.366 . S
C541 C542 1.414 . S
C541 C544 1.499 . S
C542 H522 0.950 . S
C542 C541 1.414 . S
C542 C543 1.374 . S
C543 H523 0.950 . S
C543 C539 1.385 . S
C543 C542 1.374 . S
C544 C541 1.499 . S
C544 C545 1.373 . S
C544 C546 1.389 . S
C545 H524 0.950 . S
C545 C544 1.373 . S
C545 C561 1.377 . S
C546 C544 1.389 . S
C546 C547 1.524 . S
C546 C560 1.377 . S
C547 C546 1.524 . S
C547 C548 1.397 . S
C547 C552 1.363 . S
C548 H525 0.950 . S
C548 C547 1.397 . S
C548 C549 1.334 . S
C549 H526 0.950 . S
C549 C548 1.334 . S
C549 C550 1.287 . S
C550 C549 1.287 . S
C550 C551 1.524 . S
C550 H569 0.913 . S
C551 H527 0.950 . S
C551 C550 1.524 . S
C551 C552 1.415 . S
C552 H528 0.950 . S
C552 C547 1.363 . S
C552 C551 1.415 . S
C553 H529 0.951 . S
C553 C554 1.366 . S
C553 C555 1.388 . S
C554 C553 1.366 . S
C554 C558 1.385 . S
C555 H530 0.951 . S
C555 C553 1.388 . S
C555 C556 1.366 . S
C556 C555 1.366 . S
C556 C557 1.414 . S
C556 C559 1.499 . S
C557 H531 0.950 . S
C557 C556 1.414 . S
C557 C558 1.374 . S
C558 H532 0.950 . S
C558 C554 1.385 . S
C558 C557 1.374 . S
C559 C556 1.499 . S
C559 C560 1.373 . S
C559 C561 1.389 . S
C560 H533 0.950 . S
C560 C546 1.377 . S
C560 C559 1.373 . S
C561 C545 1.377 . S
C561 C559 1.389 . S
C561 C562 1.524 . S
C562 C561 1.524 . S
C562 C563 1.397 . S
C562 C567 1.363 . S
C563 H534 0.950 . S
C563 C562 1.397 . S
C563 C564 1.334 . S
C564 H535 0.950 . S
C564 C563 1.334 . S
C564 C565 1.287 . S
C565 C564 1.287 . S
C565 C566 1.524 . S
C565 H568 0.999 . S
C566 H536 0.950 . S
C566 C565 1.524 . S
C566 C567 1.415 . S
C567 H537 0.950 . S
C567 C562 1.363 . S
C567 C566 1.415 . S
H568 C565 0.999 . S
H569 C550 0.913 . S
H570 C588 0.951 . S
H571 C590 0.951 . S
H572 C592 0.950 . S
H573 C593 0.950 . S
H574 C595 0.950 . S
H575 C598 0.950 . S
H576 C599 0.950 . S
H577 C601 0.950 . S
H578 C602 0.950 . S
H579 C603 0.951 . S
H580 C605 0.951 . S
H581 C607 0.950 . S
H582 C608 0.950 . S
H583 C610 0.950 . S
H584 C613 0.950 . S
H585 C614 0.950 . S
H586 C616 0.950 . S
H587 C617 0.950 . S
C588 H570 0.951 . S
C588 C589 1.366 . S
C588 C590 1.388 . S
C589 C588 1.366 . S
C589 C593 1.385 . S
C590 H571 0.951 . S
C590 C588 1.388 . S
C590 C591 1.366 . S
C591 C590 1.366 . S
C591 C592 1.414 . S
C591 C594 1.499 . S
C592 H572 0.950 . S
C592 C591 1.414 . S
C592 C593 1.374 . S
C593 H573 0.950 . S
C593 C589 1.385 . S
C593 C592 1.374 . S
C594 C591 1.499 . S
C594 C595 1.373 . S
C594 C596 1.389 . S
C595 H574 0.950 . S
C595 C594 1.373 . S
C595 C611 1.377 . S
C596 C594 1.389 . S
C596 C597 1.524 . S
C596 C610 1.377 . S
C597 C596 1.524 . S
C597 C598 1.397 . S
C597 C602 1.363 . S
C598 H575 0.950 . S
C598 C597 1.397 . S
C598 C599 1.334 . S
C599 H576 0.950 . S
C599 C598 1.334 . S
C599 C600 1.287 . S
C600 C599 1.287 . S
C600 C601 1.524 . S
C600 H619 0.913 . S
C601 H577 0.950 . S
C601 C600 1.524 . S
C601 C602 1.415 . S
C602 H578 0.950 . S
C602 C597 1.363 . S
C602 C601 1.415 . S
C603 H579 0.951 . S
C603 C604 1.366 . S
C603 C605 1.388 . S
C604 C603 1.366 . S
C604 C608 1.385 . S
C605 H580 0.951 . S
C605 C603 1.388 . S
C605 C606 1.366 . S
C606 C605 1.366 . S
C606 C607 1.414 . S
C606 C609 1.499 . S
C607 H581 0.950 . S
C607 C606 1.414 . S
C607 C608 1.374 . S
C608 H582 0.950 . S
C608 C604 1.385 . S
C608 C607 1.374 . S
C609 C606 1.499 . S
C609 C610 1.373 . S
C609 C611 1.389 . S
C610 H583 0.950 . S
C610 C596 1.377 . S
C610 C609 1.373 . S
C611 C595 1.377 . S
C611 C609 1.389 . S
C611 C612 1.524 . S
C612 C611 1.524 . S
C612 C613 1.397 . S
C612 C617 1.363 . S
C613 H584 0.950 . S
C613 C612 1.397 . S
C613 C614 1.334 . S
C614 H585 0.950 . S
C614 C613 1.334 . S
C614 C615 1.287 . S
C615 C614 1.287 . S
C615 C616 1.524 . S
C615 H618 0.999 . S
C616 H586 0.950 . S
C616 C615 1.524 . S
C616 C617 1.415 . S
C617 H587 0.950 . S
C617 C612 1.363 . S
C617 C616 1.415 . S
H618 C615 0.999 . S
H619 C600 0.913 . S
H620 C638 0.951 . S
H621 C640 0.951 . S
H622 C642 0.950 . S
H623 C643 0.950 . S
H624 C645 0.950 . S
H625 C648 0.950 . S
H626 C649 0.950 . S
H627 C651 0.950 . S
H628 C652 0.950 . S
H629 C653 0.951 . S
H630 C655 0.951 . S
H631 C657 0.950 . S
H632 C658 0.950 . S
H633 C660 0.950 . S
H634 C663 0.950 . S
H635 C664 0.950 . S
H636 C666 0.950 . S
H637 C667 0.950 . S
C638 H620 0.951 . S
C638 C639 1.366 . S
C638 C640 1.388 . S
C639 C638 1.366 . S
C639 C643 1.385 . S
C640 H621 0.951 . S
C640 C638 1.388 . S
C640 C641 1.366 . S
C641 C640 1.366 . S
C641 C642 1.414 . S
C641 C644 1.499 . S
C642 H622 0.950 . S
C642 C641 1.414 . S
C642 C643 1.374 . S
C643 H623 0.950 . S
C643 C639 1.385 . S
C643 C642 1.374 . S
C644 C641 1.499 . S
C644 C645 1.373 . S
C644 C646 1.389 . S
C645 H624 0.950 . S
C645 C644 1.373 . S
C645 C661 1.377 . S
C646 C644 1.389 . S
C646 C647 1.524 . S
C646 C660 1.377 . S
C647 C646 1.524 . S
C647 C648 1.397 . S
C647 C652 1.363 . S
C648 H625 0.950 . S
C648 C647 1.397 . S
C648 C649 1.334 . S
C649 H626 0.950 . S
C649 C648 1.334 . S
C649 C650 1.287 . S
C650 C649 1.287 . S
C650 C651 1.524 . S
C650 H669 0.913 . S
C651 H627 0.950 . S
C651 C650 1.524 . S
C651 C652 1.415 . S
C652 H628 0.950 . S
C652 C647 1.363 . S
C652 C651 1.415 . S
C653 H629 0.951 . S
C653 C654 1.366 . S
C653 C655 1.388 . S
C654 C653 1.366 . S
C654 C658 1.385 . S
C655 H630 0.951 . S
C655 C653 1.388 . S
C655 C656 1.366 . S
C656 C655 1.366 . S
C656 C657 1.414 . S
C656 C659 1.499 . S
C657 H631 0.950 . S
C657 C656 1.414 . S
C657 C658 1.374 . S
C658 H632 0.950 . S
C658 C654 1.385 . S
C658 C657 1.374 . S
C659 C656 1.499 . S
C659 C660 1.373 . S
C659 C661 1.389 . S
C660 H633 0.950 . S
C660 C646 1.377 . S
C660 C659 1.373 . S
C661 C645 1.377 . S
C661 C659 1.389 . S
C661 C662 1.524 . S
C662 C661 1.524 . S
C662 C663 1.397 . S
C662 C667 1.363 . S
C663 H634 0.950 . S
C663 C662 1.397 . S
C663 C664 1.334 1_554 S
C664 H635 0.950 . S
C664 C663 1.334 1_556 S
C664 C665 1.287 . S
C665 C664 1.287 . S
C665 C666 1.524 . S
C665 H668 0.999 . S
C666 H636 0.950 . S
C666 C665 1.524 . S
C666 C667 1.415 1_556 S
C667 H637 0.950 . S
C667 C662 1.363 . S
C667 C666 1.415 1_554 S
H668 C665 0.999 . S
H669 C650 0.913 . S
H670 C688 0.951 . S
H671 C690 0.951 . S
H672 C692 0.950 . S
H673 C693 0.950 . S
H674 C695 0.950 . S
H675 C698 0.950 . S
H676 C699 0.950 . S
H677 C701 0.950 . S
H678 C702 0.950 . S
H679 C703 0.951 . S
H680 C705 0.951 . S
H681 C707 0.950 . S
H682 C708 0.929 1_554 S
H683 C710 0.950 . S
H684 C713 0.950 . S
H685 C714 0.950 . S
H686 C716 0.950 . S
H687 C717 0.950 . S
C688 H670 0.951 . S
C688 C689 1.366 . S
C688 C690 1.388 . S
C689 C688 1.366 . S
C689 C693 1.385 . S
C690 H671 0.951 . S
C690 C688 1.388 . S
C690 C691 1.366 . S
C691 C690 1.366 . S
C691 C692 1.414 . S
C691 C694 1.499 . S
C692 H672 0.950 . S
C692 C691 1.414 . S
C692 C693 1.374 . S
C693 H673 0.950 . S
C693 C689 1.385 . S
C693 C692 1.374 . S
C694 C691 1.499 . S
C694 C695 1.373 . S
C694 C696 1.389 . S
C695 H674 0.950 . S
C695 C694 1.373 . S
C695 C711 1.377 . S
C696 C694 1.389 . S
C696 C697 1.524 . S
C696 C710 1.377 . S
C697 C696 1.524 . S
C697 C698 1.397 . S
C697 C702 1.363 . S
C698 H675 0.950 . S
C698 C697 1.397 . S
C698 C699 1.334 . S
C699 H676 0.950 . S
C699 C698 1.334 . S
C699 C700 1.287 . S
C700 C699 1.287 . S
C700 C701 1.524 1_556 S
C700 H719 0.913 1_556 S
C701 H677 0.950 . S
C701 C700 1.524 1_554 S
C701 C702 1.415 1_554 S
C702 H678 0.950 . S
C702 C697 1.363 . S
C702 C701 1.415 1_556 S
C703 H679 0.951 . S
C703 C704 1.366 . S
C703 C705 1.388 . S
C704 C703 1.366 . S
C704 C708 1.385 . S
C705 H680 0.951 . S
C705 C703 1.388 . S
C705 C706 1.366 . S
C706 C705 1.366 . S
C706 C707 1.414 . S
C706 C709 1.499 . S
C707 H681 0.950 . S
C707 C706 1.414 . S
C707 C708 1.374 . S
C708 H682 0.929 1_556 S
C708 C704 1.385 . S
C708 C707 1.374 . S
C709 C706 1.499 . S
C709 C710 1.373 . S
C709 C711 1.389 . S
C710 H683 0.950 . S
C710 C696 1.377 . S
C710 C709 1.373 . S
C711 C695 1.377 . S
C711 C709 1.389 . S
C711 C712 1.524 . S
C712 C711 1.524 . S
C712 C713 1.397 . S
C712 C717 1.363 . S
C713 H684 0.950 . S
C713 C712 1.397 . S
C713 C714 1.334 . S
C714 H685 0.950 . S
C714 C713 1.334 . S
C714 C715 1.287 . S
C715 C714 1.287 . S
C715 C716 1.524 . S
C715 H718 0.999 . S
C716 H686 0.950 . S
C716 C715 1.524 . S
C716 C717 1.415 . S
C717 H687 0.950 . S
C717 C712 1.363 . S
C717 C716 1.415 . S
H718 C715 0.999 . S
H719 C700 0.913 1_554 S
H720 C738 0.951 . S
H721 C740 0.951 . S
H722 C742 0.950 . S
H723 C743 0.950 . S
H724 C745 0.950 . S
H725 C748 0.950 . S
H726 C749 0.950 . S
H727 C751 0.950 . S
H728 C752 0.950 . S
H729 C753 0.951 . S
H730 C755 0.951 . S
H731 C757 0.950 . S
H732 C758 0.950 . S
H733 C760 0.950 . S
H734 C763 0.950 . S
H735 C764 0.950 . S
H736 C766 0.950 1_554 S
H737 C767 0.950 . S
C738 H720 0.951 . S
C738 C739 1.366 . S
C738 C740 1.388 . S
C739 C738 1.366 . S
C739 C743 1.385 . S
C740 H721 0.951 . S
C740 C738 1.388 . S
C740 C741 1.366 . S
C741 C740 1.366 . S
C741 C742 1.414 . S
C741 C744 1.499 . S
C742 H722 0.950 . S
C742 C741 1.414 . S
C742 C743 1.374 . S
C743 H723 0.950 . S
C743 C739 1.385 . S
C743 C742 1.374 . S
C744 C741 1.499 . S
C744 C745 1.373 . S
C744 C746 1.389 . S
C745 H724 0.950 . S
C745 C744 1.373 . S
C745 C761 1.377 . S
C746 C744 1.389 . S
C746 C747 1.524 . S
C746 C760 1.377 . S
C747 C746 1.524 . S
C747 C748 1.397 . S
C747 C752 1.363 . S
C748 H725 0.950 . S
C748 C747 1.397 . S
C748 C749 1.334 . S
C749 H726 0.950 . S
C749 C748 1.334 . S
C749 C750 1.287 . S
C750 C749 1.287 . S
C750 C751 1.524 . S
C750 H769 0.913 . S
C751 H727 0.950 . S
C751 C750 1.524 . S
C751 C752 1.415 . S
C752 H728 0.950 . S
C752 C747 1.363 . S
C752 C751 1.415 . S
C753 H729 0.951 . S
C753 C754 1.366 . S
C753 C755 1.388 . S
C754 C753 1.366 . S
C754 C758 1.385 . S
C755 H730 0.951 . S
C755 C753 1.388 . S
C755 C756 1.366 . S
C756 C755 1.366 . S
C756 C757 1.414 . S
C756 C759 1.499 . S
C757 H731 0.950 . S
C757 C756 1.414 . S
C757 C758 1.374 . S
C758 H732 0.950 . S
C758 C754 1.385 . S
C758 C757 1.374 . S
C759 C756 1.499 . S
C759 C760 1.373 . S
C759 C761 1.389 . S
C760 H733 0.950 . S
C760 C746 1.377 . S
C760 C759 1.373 . S
C761 C745 1.377 . S
C761 C759 1.389 . S
C761 C762 1.524 . S
C762 C761 1.524 . S
C762 C763 1.397 . S
C762 C767 1.363 . S
C763 H734 0.950 . S
C763 C762 1.397 . S
C763 C764 1.334 . S
C764 H735 0.950 . S
C764 C763 1.334 . S
C764 C765 1.287 . S
C765 C764 1.287 . S
C765 C766 1.524 . S
C765 H768 0.981 1_556 S
C766 H736 0.950 1_556 S
C766 C765 1.524 . S
C766 C767 1.415 . S
C767 H737 0.950 . S
C767 C762 1.363 . S
C767 C766 1.415 . S
H768 C765 0.981 1_554 S
H769 C750 0.913 . S
H770 C788 0.951 . S
H771 C790 0.951 . S
H772 C792 0.950 . S
H773 C793 0.950 . S
H774 C795 0.950 . S
H775 C798 0.950 . S
H776 C799 0.950 . S
H777 C801 0.950 . S
H778 C802 0.950 . S
H779 C803 0.951 . S
H780 C805 0.951 . S
H781 C807 0.950 . S
H782 C808 0.950 . S
H783 C810 0.950 . S
H784 C813 0.950 . S
H785 C814 0.950 . S
H786 C816 0.950 . S
H787 C817 0.950 . S
C788 H770 0.951 . S
C788 C789 1.366 . S
C788 C790 1.388 . S
C789 C788 1.366 . S
C789 C793 1.385 . S
C790 H771 0.951 . S
C790 C788 1.388 . S
C790 C791 1.366 . S
C791 C790 1.366 . S
C791 C792 1.414 . S
C791 C794 1.499 . S
C792 H772 0.950 . S
C792 C791 1.414 . S
C792 C793 1.374 . S
C793 H773 0.950 . S
C793 C789 1.385 . S
C793 C792 1.374 . S
C794 C791 1.499 . S
C794 C795 1.373 . S
C794 C796 1.389 . S
C795 H774 0.950 . S
C795 C794 1.373 . S
C795 C811 1.377 . S
C796 C794 1.389 . S
C796 C797 1.524 . S
C796 C810 1.377 . S
C797 C796 1.524 . S
C797 C798 1.397 . S
C797 C802 1.363 . S
C798 H775 0.950 . S
C798 C797 1.397 . S
C798 C799 1.334 . S
C799 H776 0.950 . S
C799 C798 1.334 . S
C799 C800 1.287 . S
C800 C799 1.287 . S
C800 C801 1.524 . S
C800 H819 0.913 . S
C801 H777 0.950 . S
C801 C800 1.524 . S
C801 C802 1.415 . S
C802 H778 0.950 . S
C802 C797 1.363 . S
C802 C801 1.415 . S
C803 H779 0.951 . S
C803 C804 1.366 . S
C803 C805 1.388 . S
C804 C803 1.366 . S
C804 C808 1.385 . S
C805 H780 0.951 . S
C805 C803 1.388 . S
C805 C806 1.366 . S
C806 C805 1.366 . S
C806 C807 1.414 . S
C806 C809 1.499 . S
C807 H781 0.950 . S
C807 C806 1.414 . S
C807 C808 1.374 . S
C808 H782 0.950 . S
C808 C804 1.385 . S
C808 C807 1.374 . S
C809 C806 1.499 . S
C809 C810 1.373 . S
C809 C811 1.389 . S
C810 H783 0.950 . S
C810 C796 1.377 . S
C810 C809 1.373 . S
C811 C795 1.377 . S
C811 C809 1.389 . S
C811 C812 1.524 . S
C812 C811 1.524 . S
C812 C813 1.397 . S
C812 C817 1.363 . S
C813 H784 0.950 . S
C813 C812 1.397 . S
C813 C814 1.334 . S
C814 H785 0.950 . S
C814 C813 1.334 . S
C814 C815 1.287 . S
C815 C814 1.287 . S
C815 C816 1.524 . S
C815 H818 0.999 . S
C816 H786 0.950 . S
C816 C815 1.524 . S
C816 C817 1.415 . S
C817 H787 0.950 . S
C817 C812 1.363 . S
C817 C816 1.415 . S
H818 C815 0.999 . S
H819 C800 0.913 . S
H820 C838 0.951 . S
H821 C840 0.951 . S
H822 C842 0.950 . S
H823 C843 0.950 . S
H824 C845 0.950 . S
H825 C848 0.950 . S
H826 C849 0.950 . S
H827 C851 0.950 . S
H828 C852 0.950 . S
H829 C853 0.951 . S
H830 C855 0.951 . S
H831 C857 0.950 . S
H832 C858 0.950 . S
H833 C860 0.950 . S
H834 C863 0.950 . S
H835 C864 0.950 . S
H836 C866 0.950 . S
H837 C867 0.950 . S
C838 H820 0.951 . S
C838 C839 1.366 . S
C838 C840 1.388 . S
C839 C838 1.366 . S
C839 C843 1.385 . S
C840 H821 0.951 . S
C840 C838 1.388 . S
C840 C841 1.366 . S
C841 C840 1.366 . S
C841 C842 1.414 . S
C841 C844 1.499 . S
C842 H822 0.950 . S
C842 C841 1.414 . S
C842 C843 1.374 . S
C843 H823 0.950 . S
C843 C839 1.385 . S
C843 C842 1.374 . S
C844 C841 1.499 . S
C844 C845 1.373 . S
C844 C846 1.389 . S
C845 H824 0.950 . S
C845 C844 1.373 . S
C845 C861 1.377 . S
C846 C844 1.389 . S
C846 C847 1.524 . S
C846 C860 1.377 . S
C847 C846 1.524 . S
C847 C848 1.397 . S
C847 C852 1.363 . S
C848 H825 0.950 . S
C848 C847 1.397 . S
C848 C849 1.334 . S
C849 H826 0.950 . S
C849 C848 1.334 . S
C849 C850 1.287 . S
C850 C849 1.287 . S
C850 C851 1.524 . S
C850 H869 0.913 . S
C851 H827 0.950 . S
C851 C850 1.524 . S
C851 C852 1.415 . S
C852 H828 0.950 . S
C852 C847 1.363 . S
C852 C851 1.415 . S
C853 H829 0.951 . S
C853 C854 1.366 . S
C853 C855 1.388 . S
C854 C853 1.366 . S
C854 C858 1.385 . S
C855 H830 0.951 . S
C855 C853 1.388 . S
C855 C856 1.366 . S
C856 C855 1.366 . S
C856 C857 1.414 . S
C856 C859 1.499 . S
C857 H831 0.950 . S
C857 C856 1.414 . S
C857 C858 1.374 . S
C858 H832 0.950 . S
C858 C854 1.385 . S
C858 C857 1.374 . S
C859 C856 1.499 . S
C859 C860 1.373 . S
C859 C861 1.389 . S
C860 H833 0.950 . S
C860 C846 1.377 . S
C860 C859 1.373 . S
C861 C845 1.377 . S
C861 C859 1.389 . S
C861 C862 1.524 . S
C862 C861 1.524 . S
C862 C863 1.397 . S
C862 C867 1.363 . S
C863 H834 0.950 . S
C863 C862 1.397 . S
C863 C864 1.334 . S
C864 H835 0.950 . S
C864 C863 1.334 . S
C864 C865 1.287 . S
C865 C864 1.287 . S
C865 C866 1.524 . S
C865 H868 0.999 . S
C866 H836 0.950 . S
C866 C865 1.524 . S
C866 C867 1.415 . S
C867 H837 0.950 . S
C867 C862 1.363 . S
C867 C866 1.415 . S
H868 C865 0.999 . S
H869 C850 0.913 . S
H870 C888 0.951 . S
H871 C890 0.951 . S
H872 C892 0.950 . S
H873 C893 0.950 . S
H874 C895 0.950 . S
H875 C898 0.950 . S
H876 C899 0.950 . S
H877 C901 0.950 . S
H878 C902 0.950 . S
H879 C903 0.951 . S
H880 C905 0.951 . S
H881 C907 0.950 . S
H882 C908 0.950 . S
H883 C910 0.950 . S
H884 C913 0.950 . S
H885 C914 0.950 . S
H886 C916 0.950 . S
H887 C917 0.950 . S
C888 H870 0.951 . S
C888 C889 1.366 . S
C888 C890 1.388 . S
C889 C888 1.366 . S
C889 C893 1.385 . S
C890 H871 0.951 . S
C890 C888 1.388 . S
C890 C891 1.366 . S
C891 C890 1.366 . S
C891 C892 1.414 . S
C891 C894 1.499 . S
C892 H872 0.950 . S
C892 C891 1.414 . S
C892 C893 1.374 . S
C893 H873 0.950 . S
C893 C889 1.385 . S
C893 C892 1.374 . S
C894 C891 1.499 . S
C894 C895 1.373 . S
C894 C896 1.389 . S
C895 H874 0.950 . S
C895 C894 1.373 . S
C895 C911 1.377 . S
C896 C894 1.389 . S
C896 C897 1.524 . S
C896 C910 1.377 . S
C897 C896 1.524 . S
C897 C898 1.397 . S
C897 C902 1.363 . S
C898 H875 0.950 . S
C898 C897 1.397 . S
C898 C899 1.334 . S
C899 H876 0.950 . S
C899 C898 1.334 . S
C899 C900 1.287 . S
C900 C899 1.287 . S
C900 C901 1.524 . S
C900 H919 0.913 . S
C901 H877 0.950 . S
C901 C900 1.524 . S
C901 C902 1.415 . S
C902 H878 0.950 . S
C902 C897 1.363 . S
C902 C901 1.415 . S
C903 H879 0.951 . S
C903 C904 1.366 . S
C903 C905 1.388 . S
C904 C903 1.366 . S
C904 C908 1.385 . S
C905 H880 0.951 . S
C905 C903 1.388 . S
C905 C906 1.366 . S
C906 C905 1.366 . S
C906 C907 1.414 . S
C906 C909 1.499 . S
C907 H881 0.950 . S
C907 C906 1.414 . S
C907 C908 1.374 . S
C908 H882 0.950 . S
C908 C904 1.385 . S
C908 C907 1.374 . S
C909 C906 1.499 . S
C909 C910 1.373 . S
C909 C911 1.389 . S
C910 H883 0.950 . S
C910 C896 1.377 . S
C910 C909 1.373 . S
C911 C895 1.377 . S
C911 C909 1.389 . S
C911 C912 1.524 . S
C912 C911 1.524 . S
C912 C913 1.397 . S
C912 C917 1.363 . S
C913 H884 0.950 . S
C913 C912 1.397 . S
C913 C914 1.334 . S
C914 H885 0.950 . S
C914 C913 1.334 . S
C914 C915 1.287 . S
C915 C914 1.287 . S
C915 C916 1.524 . S
C915 H918 0.999 . S
C916 H886 0.950 . S
C916 C915 1.524 . S
C916 C917 1.415 . S
C917 H887 0.950 . S
C917 C912 1.363 . S
C917 C916 1.415 . S
H918 C915 0.999 . S
H919 C900 0.913 . S
H920 C938 0.951 . S
H921 C940 0.951 . S
H922 C942 0.950 . S
H923 C943 0.950 . S
H924 C945 0.950 . S
H925 C948 0.950 . S
H926 C949 0.950 . S
H927 C951 0.950 . S
H928 C952 0.950 . S
H929 C953 0.951 . S
H930 C955 0.951 . S
H931 C957 0.950 . S
H932 C958 0.950 . S
H933 C960 0.950 . S
H934 C963 0.950 . S
H935 C964 0.950 . S
H936 C966 0.950 . S
H937 C967 0.950 . S
C938 H920 0.951 . S
C938 C939 1.366 . S
C938 C940 1.388 . S
C939 C938 1.366 . S
C939 C943 1.385 . S
C940 H921 0.951 . S
C940 C938 1.388 . S
C940 C941 1.366 . S
C941 C940 1.366 . S
C941 C942 1.414 . S
C941 C944 1.499 . S
C942 H922 0.950 . S
C942 C941 1.414 . S
C942 C943 1.374 . S
C943 H923 0.950 . S
C943 C939 1.385 . S
C943 C942 1.374 . S
C944 C941 1.499 . S
C944 C945 1.373 . S
C944 C946 1.389 . S
C945 H924 0.950 . S
C945 C944 1.373 . S
C945 C961 1.377 . S
C946 C944 1.389 . S
C946 C947 1.524 . S
C946 C960 1.377 . S
C947 C946 1.524 . S
C947 C948 1.397 . S
C947 C952 1.363 . S
C948 H925 0.950 . S
C948 C947 1.397 . S
C948 C949 1.334 . S
C949 H926 0.950 . S
C949 C948 1.334 . S
C949 C950 1.287 . S
C950 C949 1.287 . S
C950 C951 1.524 . S
C950 H969 0.913 . S
C951 H927 0.950 . S
C951 C950 1.524 . S
C951 C952 1.415 . S
C952 H928 0.950 . S
C952 C947 1.363 . S
C952 C951 1.415 . S
C953 H929 0.951 . S
C953 C954 1.366 . S
C953 C955 1.388 . S
C954 C953 1.366 . S
C954 C958 1.385 . S
C955 H930 0.951 . S
C955 C953 1.388 . S
C955 C956 1.366 . S
C956 C955 1.366 . S
C956 C957 1.414 . S
C956 C959 1.499 . S
C957 H931 0.950 . S
C957 C956 1.414 . S
C957 C958 1.374 . S
C958 H932 0.950 . S
C958 C954 1.385 . S
C958 C957 1.374 . S
C959 C956 1.499 . S
C959 C960 1.373 . S
C959 C961 1.389 . S
C960 H933 0.950 . S
C960 C946 1.377 . S
C960 C959 1.373 . S
C961 C945 1.377 . S
C961 C959 1.389 . S
C961 C962 1.524 . S
C962 C961 1.524 . S
C962 C963 1.397 . S
C962 C967 1.363 . S
C963 H934 0.950 . S
C963 C962 1.397 . S
C963 C964 1.334 . S
C964 H935 0.950 . S
C964 C963 1.334 . S
C964 C965 1.287 . S
C965 C964 1.287 . S
C965 C966 1.524 . S
C965 H968 0.999 . S
C966 H936 0.950 . S
C966 C965 1.524 . S
C966 C967 1.415 . S
C967 H937 0.950 . S
C967 C962 1.363 . S
C967 C966 1.415 . S
H968 C965 0.999 . S
H969 C950 0.913 . S
H970 C988 0.951 1_554 S
H971 C990 0.951 . S
H972 C992 0.950 . S
H973 C993 0.950 . S
H974 C995 0.950 . S
H975 C998 0.950 . S
H976 C999 0.950 . S
H977 C1001 0.950 . S
H978 C1002 0.950 1_556 S
H979 C1003 0.951 . S
H980 C1005 0.951 . S
H981 C1007 0.950 . S
H982 C1008 0.950 . S
H983 C1010 0.950 . S
H984 C1013 0.950 . S
H985 C1014 0.950 . S
H986 C1016 0.950 . S
H987 C1017 0.950 . S
C988 H970 0.951 1_556 S
C988 C989 1.366 . S
C988 C990 1.388 . S
C989 C988 1.366 . S
C989 C993 1.385 . S
C990 H971 0.951 . S
C990 C988 1.388 . S
C990 C991 1.366 . S
C991 C990 1.366 . S
C991 C992 1.414 . S
C991 C994 1.499 . S
C992 H972 0.950 . S
C992 C991 1.414 . S
C992 C993 1.374 . S
C993 H973 0.950 . S
C993 C989 1.385 . S
C993 C992 1.374 . S
C994 C991 1.499 . S
C994 C995 1.373 . S
C994 C996 1.389 . S
C995 H974 0.950 . S
C995 C994 1.373 . S
C995 C1011 1.377 . S
C996 C994 1.389 . S
C996 C997 1.524 . S
C996 C1010 1.377 . S
C997 C996 1.524 . S
C997 C998 1.397 . S
C997 C1002 1.363 1_556 S
C998 H975 0.950 . S
C998 C997 1.397 . S
C998 C999 1.334 1_556 S
C999 H976 0.950 . S
C999 C998 1.334 1_554 S
C999 C1000 1.287 . S
C1000 C999 1.287 . S
C1000 C1001 1.524 . S
C1000 H1019 0.913 . S
C1001 H977 0.950 . S
C1001 C1000 1.524 . S
C1001 C1002 1.415 . S
C1002 H978 0.950 1_554 S
C1002 C997 1.363 1_554 S
C1002 C1001 1.415 . S
C1003 H979 0.951 . S
C1003 C1004 1.366 . S
C1003 C1005 1.388 . S
C1004 C1003 1.366 . S
C1004 C1008 1.385 . S
C1005 H980 0.951 . S
C1005 C1003 1.388 . S
C1005 C1006 1.366 . S
C1006 C1005 1.366 . S
C1006 C1007 1.414 . S
C1006 C1009 1.499 . S
C1007 H981 0.950 . S
C1007 C1006 1.414 . S
C1007 C1008 1.374 . S
C1008 H982 0.950 . S
C1008 C1004 1.385 . S
C1008 C1007 1.374 . S
C1009 C1006 1.499 . S
C1009 C1010 1.373 . S
C1009 C1011 1.389 . S
C1010 H983 0.950 . S
C1010 C996 1.377 . S
C1010 C1009 1.373 . S
C1011 C995 1.377 . S
C1011 C1009 1.389 . S
C1011 C1012 1.524 . S
C1012 C1011 1.524 . S
C1012 C1013 1.397 . S
C1012 C1017 1.363 . S
C1013 H984 0.950 . S
C1013 C1012 1.397 . S
C1013 C1014 1.334 . S
C1014 H985 0.950 . S
C1014 C1013 1.334 . S
C1014 C1015 1.287 . S
C1015 C1014 1.287 . S
C1015 C1016 1.524 . S
C1015 H1018 0.999 . S
C1016 H986 0.950 . S
C1016 C1015 1.524 . S
C1016 C1017 1.415 . S
C1017 H987 0.950 . S
C1017 C1012 1.363 . S
C1017 C1016 1.415 . S
H1018 C1015 0.999 . S
H1019 C1000 0.913 . S
H1020 C1038 0.951 . S
H1021 C1040 0.951 . S
H1022 C1042 0.950 . S
H1023 C1043 0.950 . S
H1024 C1045 0.950 . S
H1025 C1048 0.950 . S
H1026 C1049 0.950 . S
H1027 C1051 0.950 . S
H1028 C1052 0.950 . S
H1029 C1053 0.951 . S
H1030 C1055 0.951 . S
H1031 C1057 0.950 . S
H1032 C1058 0.950 . S
H1033 C1060 0.950 . S
H1034 C1063 0.950 . S
H1035 C1064 0.950 . S
H1036 C1066 0.950 . S
H1037 C1067 0.950 . S
C1038 H1020 0.951 . S
C1038 C1039 1.366 . S
C1038 C1040 1.388 . S
C1039 C1038 1.366 . S
C1039 C1043 1.385 . S
C1040 H1021 0.951 . S
C1040 C1038 1.388 . S
C1040 C1041 1.366 . S
C1041 C1040 1.366 . S
C1041 C1042 1.414 . S
C1041 C1044 1.499 . S
C1042 H1022 0.950 . S
C1042 C1041 1.414 . S
C1042 C1043 1.374 . S
C1043 H1023 0.950 . S
C1043 C1039 1.385 . S
C1043 C1042 1.374 . S
C1044 C1041 1.499 . S
C1044 C1045 1.373 . S
C1044 C1046 1.389 . S
C1045 H1024 0.950 . S
C1045 C1044 1.373 . S
C1045 C1061 1.377 . S
C1046 C1044 1.389 . S
C1046 C1047 1.524 . S
C1046 C1060 1.377 . S
C1047 C1046 1.524 . S
C1047 C1048 1.397 . S
C1047 C1052 1.363 . S
C1048 H1025 0.950 . S
C1048 C1047 1.397 . S
C1048 C1049 1.334 . S
C1049 H1026 0.950 . S
C1049 C1048 1.334 . S
C1049 C1050 1.287 . S
C1050 C1049 1.287 . S
C1050 C1051 1.524 . S
C1050 H1069 0.913 . S
C1051 H1027 0.950 . S
C1051 C1050 1.524 . S
C1051 C1052 1.415 . S
C1052 H1028 0.950 . S
C1052 C1047 1.363 . S
C1052 C1051 1.415 . S
C1053 H1029 0.951 . S
C1053 C1054 1.366 . S
C1053 C1055 1.388 . S
C1054 C1053 1.366 . S
C1054 C1058 1.385 . S
C1055 H1030 0.951 . S
C1055 C1053 1.388 . S
C1055 C1056 1.366 . S
C1056 C1055 1.366 . S
C1056 C1057 1.414 . S
C1056 C1059 1.499 . S
C1057 H1031 0.950 . S
C1057 C1056 1.414 . S
C1057 C1058 1.374 . S
C1058 H1032 0.950 . S
C1058 C1054 1.385 . S
C1058 C1057 1.374 . S
C1059 C1056 1.499 . S
C1059 C1060 1.373 . S
C1059 C1061 1.389 . S
C1060 H1033 0.950 . S
C1060 C1046 1.377 . S
C1060 C1059 1.373 . S
C1061 C1045 1.377 . S
C1061 C1059 1.389 . S
C1061 C1062 1.524 . S
C1062 C1061 1.524 . S
C1062 C1063 1.397 . S
C1062 C1067 1.363 . S
C1063 H1034 0.950 . S
C1063 C1062 1.397 . S
C1063 C1064 1.334 . S
C1064 H1035 0.950 . S
C1064 C1063 1.334 . S
C1064 C1065 1.287 . S
C1065 C1064 1.287 . S
C1065 C1066 1.524 . S
C1065 H1068 0.999 . S
C1066 H1036 0.950 . S
C1066 C1065 1.524 . S
C1066 C1067 1.415 . S
C1067 H1037 0.950 . S
C1067 C1062 1.363 . S
C1067 C1066 1.415 . S
H1068 C1065 0.999 . S
H1069 C1050 0.913 . S
H1070 C1088 0.951 . S
H1071 C1090 0.951 . S
H1072 C1092 0.950 . S
H1073 C1093 0.950 . S
H1074 C1095 0.950 . S
H1075 C1098 0.950 . S
H1076 C1099 0.950 . S
H1077 C1101 0.950 . S
H1078 C1102 0.950 . S
H1079 C1103 0.951 . S
H1080 C1105 0.951 . S
H1081 C1107 0.950 . S
H1082 C1108 0.950 . S
H1083 C1110 0.950 . S
H1084 C1113 0.950 . S
H1085 C1114 0.950 . S
H1086 C1116 0.950 . S
H1087 C1117 0.950 . S
C1088 H1070 0.951 . S
C1088 C1089 1.366 . S
C1088 C1090 1.388 . S
C1089 C1088 1.366 . S
C1089 C1093 1.385 . S
C1090 H1071 0.951 . S
C1090 C1088 1.388 . S
C1090 C1091 1.366 . S
C1091 C1090 1.366 . S
C1091 C1092 1.414 . S
C1091 C1094 1.499 . S
C1092 H1072 0.950 . S
C1092 C1091 1.414 . S
C1092 C1093 1.374 . S
C1093 H1073 0.950 . S
C1093 C1089 1.385 . S
C1093 C1092 1.374 . S
C1094 C1091 1.499 . S
C1094 C1095 1.373 . S
C1094 C1096 1.389 . S
C1095 H1074 0.950 . S
C1095 C1094 1.373 . S
C1095 C1111 1.377 . S
C1096 C1094 1.389 . S
C1096 C1097 1.524 . S
C1096 C1110 1.377 . S
C1097 C1096 1.524 . S
C1097 C1098 1.397 . S
C1097 C1102 1.363 . S
C1098 H1075 0.950 . S
C1098 C1097 1.397 . S
C1098 C1099 1.334 . S
C1099 H1076 0.950 . S
C1099 C1098 1.334 . S
C1099 C1100 1.287 . S
C1100 C1099 1.287 . S
C1100 C1101 1.524 . S
C1100 H1119 0.913 . S
C1101 H1077 0.950 . S
C1101 C1100 1.524 . S
C1101 C1102 1.415 . S
C1102 H1078 0.950 . S
C1102 C1097 1.363 . S
C1102 C1101 1.415 . S
C1103 H1079 0.951 . S
C1103 C1104 1.366 . S
C1103 C1105 1.388 . S
C1104 C1103 1.366 . S
C1104 C1108 1.385 . S
C1105 H1080 0.951 . S
C1105 C1103 1.388 . S
C1105 C1106 1.366 . S
C1106 C1105 1.366 . S
C1106 C1107 1.414 . S
C1106 C1109 1.499 . S
C1107 H1081 0.950 . S
C1107 C1106 1.414 . S
C1107 C1108 1.374 . S
C1108 H1082 0.950 . S
C1108 C1104 1.385 . S
C1108 C1107 1.374 . S
C1109 C1106 1.499 . S
C1109 C1110 1.373 . S
C1109 C1111 1.389 . S
C1110 H1083 0.950 . S
C1110 C1096 1.377 . S
C1110 C1109 1.373 . S
C1111 C1095 1.377 . S
C1111 C1109 1.389 . S
C1111 C1112 1.524 . S
C1112 C1111 1.524 . S
C1112 C1113 1.397 . S
C1112 C1117 1.363 . S
C1113 H1084 0.950 . S
C1113 C1112 1.397 . S
C1113 C1114 1.334 . S
C1114 H1085 0.950 . S
C1114 C1113 1.334 . S
C1114 C1115 1.287 . S
C1115 C1114 1.287 . S
C1115 C1116 1.524 . S
C1115 H1118 0.999 . S
C1116 H1086 0.950 . S
C1116 C1115 1.524 . S
C1116 C1117 1.415 . S
C1117 H1087 0.950 . S
C1117 C1112 1.363 . S
C1117 C1116 1.415 . S
H1118 C1115 0.999 . S
H1119 C1100 0.913 . S
H1120 C1138 0.951 . S
H1121 C1140 0.951 . S
H1122 C1142 0.950 . S
H1123 C1143 0.950 1_455 S
H1124 C1145 0.950 . S
H1125 C1148 0.950 . S
H1126 C1149 0.950 . S
H1127 C1151 0.950 1_655 S
H1128 C1152 0.950 1_554 S
H1129 C1153 0.951 . S
H1130 C1155 0.951 . S
H1131 C1157 0.950 . S
H1132 C1158 0.950 1_655 S
H1133 C1160 0.950 . S
H1134 C1163 0.950 . S
H1135 C1164 0.950 . S
H1136 C1166 0.950 1_455 S
H1137 C1167 0.950 1_556 S
C1138 H1120 0.951 . S
C1138 C1139 1.366 . S
C1138 C1140 1.388 . S
C1139 C1138 1.366 . S
C1139 C1143 1.385 1_545 S
C1140 H1121 0.951 . S
C1140 C1138 1.388 . S
C1140 C1141 1.366 . S
C1141 C1140 1.366 . S
C1141 C1142 1.414 1_645 S
C1141 C1144 1.499 . S
C1142 H1122 0.950 . S
C1142 C1141 1.414 1_465 S
C1142 C1143 1.374 1_455 S
C1143 H1123 0.950 1_655 S
C1143 C1139 1.385 1_565 S
C1143 C1142 1.374 1_655 S
C1144 C1141 1.499 . S
C1144 C1145 1.373 1_545 S
C1144 C1146 1.389 1_655 S
C1145 H1124 0.950 . S
C1145 C1144 1.373 1_565 S
C1145 C1161 1.377 1_556 S
C1146 C1144 1.389 1_455 S
C1146 C1147 1.524 . S
C1146 C1160 1.377 1_556 S
C1147 C1146 1.524 . S
C1147 C1148 1.397 . S
C1147 C1152 1.363 1_455 S
C1148 H1125 0.950 . S
C1148 C1147 1.397 . S
C1148 C1149 1.334 . S
C1149 H1126 0.950 . S
C1149 C1148 1.334 . S
C1149 C1150 1.287 . S
C1150 C1149 1.287 . S
C1150 C1151 1.524 . S
C1150 H1169 0.913 . S
C1151 H1127 0.950 1_455 S
C1151 C1150 1.524 . S
C1151 C1152 1.415 1_455 S
C1152 H1128 0.950 1_556 S
C1152 C1147 1.363 1_655 S
C1152 C1151 1.415 1_655 S
C1153 H1129 0.951 . S
C1153 C1154 1.366 . S
C1153 C1155 1.388 . S
C1154 C1153 1.366 . S
C1154 C1158 1.385 1_565 S
C1155 H1130 0.951 . S
C1155 C1153 1.388 . S
C1155 C1156 1.366 . S
C1156 C1155 1.366 . S
C1156 C1157 1.414 1_465 S
C1156 C1159 1.499 . S
C1157 H1131 0.950 . S
C1157 C1156 1.414 1_645 S
C1157 C1158 1.374 1_655 S
C1158 H1132 0.950 1_455 S
C1158 C1154 1.385 1_545 S
C1158 C1157 1.374 1_455 S
C1159 C1156 1.499 . S
C1159 C1160 1.373 1_565 S
C1159 C1161 1.389 1_455 S
C1160 H1133 0.950 . S
C1160 C1146 1.377 1_554 S
C1160 C1159 1.373 1_545 S
C1161 C1145 1.377 1_554 S
C1161 C1159 1.389 1_655 S
C1161 C1162 1.524 . S
C1162 C1161 1.524 . S
C1162 C1163 1.397 . S
C1162 C1167 1.363 1_655 S
C1163 H1134 0.950 . S
C1163 C1162 1.397 . S
C1163 C1164 1.334 . S
C1164 H1135 0.950 . S
C1164 C1163 1.334 . S
C1164 C1165 1.287 . S
C1165 C1164 1.287 . S
C1165 C1166 1.524 . S
C1165 H1168 0.999 . S
C1166 H1136 0.950 1_655 S
C1166 C1165 1.524 . S
C1166 C1167 1.415 1_655 S
C1167 H1137 0.950 1_554 S
C1167 C1162 1.363 1_455 S
C1167 C1166 1.415 1_455 S
H1168 C1165 0.999 . S
H1169 C1150 0.913 . S
H1170 C1188 0.951 . S
H1171 C1190 0.951 . S
H1172 C1192 0.950 . S
H1173 C1193 0.950 . S
H1174 C1195 0.950 . S
H1175 C1198 0.950 . S
H1176 C1199 0.950 . S
H1177 C1201 0.950 . S
H1178 C1202 0.950 . S
H1179 C1203 0.951 . S
H1180 C1205 0.951 . S
H1181 C1207 0.950 . S
H1182 C1208 0.950 . S
H1183 C1210 0.950 . S
H1184 C1213 0.950 . S
H1185 C1214 0.950 . S
H1186 C1216 0.950 . S
H1187 C1217 0.950 . S
C1188 H1170 0.951 . S
C1188 C1189 1.366 . S
C1188 C1190 1.388 . S
C1189 C1188 1.366 . S
C1189 C1193 1.385 . S
C1190 H1171 0.951 . S
C1190 C1188 1.388 . S
C1190 C1191 1.366 . S
C1191 C1190 1.366 . S
C1191 C1192 1.414 . S
C1191 C1194 1.499 . S
C1192 H1172 0.950 . S
C1192 C1191 1.414 . S
C1192 C1193 1.374 . S
C1193 H1173 0.950 . S
C1193 C1189 1.385 . S
C1193 C1192 1.374 . S
C1194 C1191 1.499 . S
C1194 C1195 1.373 . S
C1194 C1196 1.389 . S
C1195 H1174 0.950 . S
C1195 C1194 1.373 . S
C1195 C1211 1.377 . S
C1196 C1194 1.389 . S
C1196 C1197 1.524 . S
C1196 C1210 1.377 . S
C1197 C1196 1.524 . S
C1197 C1198 1.397 . S
C1197 C1202 1.363 . S
C1198 H1175 0.950 . S
C1198 C1197 1.397 . S
C1198 C1199 1.334 . S
C1199 H1176 0.950 . S
C1199 C1198 1.334 . S
C1199 C1200 1.287 . S
C1200 C1199 1.287 . S
C1200 C1201 1.524 . S
C1200 H1219 0.913 . S
C1201 H1177 0.950 . S
C1201 C1200 1.524 . S
C1201 C1202 1.415 . S
C1202 H1178 0.950 . S
C1202 C1197 1.363 . S
C1202 C1201 1.415 . S
C1203 H1179 0.951 . S
C1203 C1204 1.366 . S
C1203 C1205 1.388 . S
C1204 C1203 1.366 . S
C1204 C1208 1.385 . S
C1205 H1180 0.951 . S
C1205 C1203 1.388 . S
C1205 C1206 1.366 . S
C1206 C1205 1.366 . S
C1206 C1207 1.414 . S
C1206 C1209 1.499 . S
C1207 H1181 0.950 . S
C1207 C1206 1.414 . S
C1207 C1208 1.374 . S
C1208 H1182 0.950 . S
C1208 C1204 1.385 . S
C1208 C1207 1.374 . S
C1209 C1206 1.499 . S
C1209 C1210 1.373 . S
C1209 C1211 1.389 . S
C1210 H1183 0.950 . S
C1210 C1196 1.377 . S
C1210 C1209 1.373 . S
C1211 C1195 1.377 . S
C1211 C1209 1.389 . S
C1211 C1212 1.524 . S
C1212 C1211 1.524 . S
C1212 C1213 1.397 . S
C1212 C1217 1.363 . S
C1213 H1184 0.950 . S
C1213 C1212 1.397 . S
C1213 C1214 1.334 . S
C1214 H1185 0.950 . S
C1214 C1213 1.334 . S
C1214 C1215 1.287 . S
C1215 C1214 1.287 . S
C1215 C1216 1.524 . S
C1215 H1218 0.999 . S
C1216 H1186 0.950 . S
C1216 C1215 1.524 . S
C1216 C1217 1.415 . S
C1217 H1187 0.950 . S
C1217 C1212 1.363 . S
C1217 C1216 1.415 . S
H1218 C1215 0.999 . S
H1219 C1200 0.913 . S
H1220 C1238 0.951 . S
H1221 C1240 0.951 . S
H1222 C1242 0.950 . S
H1223 C1243 0.950 . S
H1224 C1245 0.950 . S
H1225 C1248 0.950 . S
H1226 C1249 0.950 . S
H1227 C1251 0.944 1_545 S
H1228 C1252 0.950 . S
H1229 C1253 0.951 . S
H1230 C1255 0.951 . S
H1231 C1257 0.950 . S
H1232 C1258 0.950 . S
H1233 C1260 0.950 . S
H1234 C1263 0.950 . S
H1235 C1264 0.950 . S
H1236 C1266 0.940 1_565 S
H1237 C1267 0.950 . S
C1238 H1220 0.951 . S
C1238 C1239 1.366 . S
C1238 C1240 1.388 . S
C1239 C1238 1.366 . S
C1239 C1243 1.385 1_545 S
C1240 H1221 0.951 . S
C1240 C1238 1.388 . S
C1240 C1241 1.366 . S
C1241 C1240 1.366 . S
C1241 C1242 1.414 1_545 S
C1241 C1244 1.500 . S
C1242 H1222 0.950 . S
C1242 C1241 1.414 1_565 S
C1242 C1243 1.374 . S
C1243 H1223 0.950 . S
C1243 C1239 1.385 1_565 S
C1243 C1242 1.374 . S
C1244 C1241 1.500 . S
C1244 C1245 1.375 . S
C1244 C1246 1.387 1_545 S
C1245 H1224 0.950 . S
C1245 C1244 1.375 . S
C1245 C1261 1.377 . S
C1246 C1244 1.387 1_565 S
C1246 C1247 1.524 . S
C1246 C1260 1.377 . S
C1247 C1246 1.524 . S
C1247 C1248 1.397 . S
C1247 C1252 1.363 1_565 S
C1248 H1225 0.950 . S
C1248 C1247 1.397 . S
C1248 C1249 1.334 . S
C1249 H1226 0.950 . S
C1249 C1248 1.334 . S
C1249 C1250 1.287 . S
C1250 C1249 1.287 . S
C1250 C1251 1.532 . S
C1250 H1269 0.913 . S
C1251 H1227 0.944 1_565 S
C1251 C1250 1.532 . S
C1251 C1252 1.413 1_565 S
C1252 H1228 0.950 . S
C1252 C1247 1.363 1_545 S
C1252 C1251 1.413 1_545 S
C1253 H1229 0.951 . S
C1253 C1254 1.366 . S
C1253 C1255 1.388 . S
C1254 C1253 1.366 . S
C1254 C1258 1.385 1_565 S
C1255 H1230 0.951 . S
C1255 C1253 1.388 . S
C1255 C1256 1.366 . S
C1256 C1255 1.366 . S
C1256 C1257 1.414 1_565 S
C1256 C1259 1.499 . S
C1257 H1231 0.950 . S
C1257 C1256 1.414 1_545 S
C1257 C1258 1.374 . S
C1258 H1232 0.950 . S
C1258 C1254 1.385 1_545 S
C1258 C1257 1.374 . S
C1259 C1256 1.499 . S
C1259 C1260 1.374 . S
C1259 C1261 1.388 1_565 S
C1260 H1233 0.950 . S
C1260 C1246 1.377 . S
C1260 C1259 1.374 . S
C1261 C1245 1.377 . S
C1261 C1259 1.388 1_545 S
C1261 C1262 1.524 . S
C1262 C1261 1.524 . S
C1262 C1263 1.397 . S
C1262 C1267 1.363 1_545 S
C1263 H1234 0.950 . S
C1263 C1262 1.397 . S
C1263 C1264 1.334 . S
C1264 H1235 0.950 . S
C1264 C1263 1.334 . S
C1264 C1265 1.287 . S
C1265 C1264 1.287 . S
C1265 C1266 1.540 . S
C1265 H1268 0.999 . S
C1266 H1236 0.940 1_545 S
C1266 C1265 1.540 . S
C1266 C1267 1.411 1_545 S
C1267 H1237 0.950 . S
C1267 C1262 1.363 1_565 S
C1267 C1266 1.411 1_565 S
H1268 C1265 0.999 . S
H1269 C1250 0.913 . S
H1270 C1288 0.951 . S
H1271 C1290 0.951 . S
H1272 C1292 0.950 . S
H1273 C1293 0.950 . S
H1274 C1295 0.950 . S
H1275 C1298 0.950 . S
H1276 C1299 0.950 . S
H1277 C1301 0.950 . S
H1278 C1302 0.950 . S
H1279 C1303 0.951 . S
H1280 C1305 0.951 . S
H1281 C1307 0.950 . S
H1282 C1308 0.950 . S
H1283 C1310 0.950 . S
H1284 C1313 0.950 . S
H1285 C1314 0.950 . S
H1286 C1316 0.950 . S
H1287 C1317 0.950 . S
C1288 H1270 0.951 . S
C1288 C1289 1.366 . S
C1288 C1290 1.388 . S
C1289 C1288 1.366 . S
C1289 C1293 1.385 . S
C1290 H1271 0.951 . S
C1290 C1288 1.388 . S
C1290 C1291 1.366 . S
C1291 C1290 1.366 . S
C1291 C1292 1.414 . S
C1291 C1294 1.499 . S
C1292 H1272 0.950 . S
C1292 C1291 1.414 . S
C1292 C1293 1.374 . S
C1293 H1273 0.950 . S
C1293 C1289 1.385 . S
C1293 C1292 1.374 . S
C1294 C1291 1.499 . S
C1294 C1295 1.373 . S
C1294 C1296 1.389 . S
C1295 H1274 0.950 . S
C1295 C1294 1.373 . S
C1295 C1311 1.377 . S
C1296 C1294 1.389 . S
C1296 C1297 1.524 . S
C1296 C1310 1.377 . S
C1297 C1296 1.524 . S
C1297 C1298 1.397 . S
C1297 C1302 1.363 . S
C1298 H1275 0.950 . S
C1298 C1297 1.397 . S
C1298 C1299 1.334 . S
C1299 H1276 0.950 . S
C1299 C1298 1.334 . S
C1299 C1300 1.287 . S
C1300 C1299 1.287 . S
C1300 C1301 1.524 . S
C1300 H1319 0.913 . S
C1301 H1277 0.950 . S
C1301 C1300 1.524 . S
C1301 C1302 1.415 . S
C1302 H1278 0.950 . S
C1302 C1297 1.363 . S
C1302 C1301 1.415 . S
C1303 H1279 0.951 . S
C1303 C1304 1.366 . S
C1303 C1305 1.388 . S
C1304 C1303 1.366 . S
C1304 C1308 1.385 . S
C1305 H1280 0.951 . S
C1305 C1303 1.388 . S
C1305 C1306 1.366 . S
C1306 C1305 1.366 . S
C1306 C1307 1.414 . S
C1306 C1309 1.499 . S
C1307 H1281 0.950 . S
C1307 C1306 1.414 . S
C1307 C1308 1.374 . S
C1308 H1282 0.950 . S
C1308 C1304 1.385 . S
C1308 C1307 1.374 . S
C1309 C1306 1.499 . S
C1309 C1310 1.373 . S
C1309 C1311 1.389 . S
C1310 H1283 0.950 . S
C1310 C1296 1.377 . S
C1310 C1309 1.373 . S
C1311 C1295 1.377 . S
C1311 C1309 1.389 . S
C1311 C1312 1.524 . S
C1312 C1311 1.524 . S
C1312 C1313 1.397 . S
C1312 C1317 1.363 . S
C1313 H1284 0.950 . S
C1313 C1312 1.397 . S
C1313 C1314 1.334 . S
C1314 H1285 0.950 . S
C1314 C1313 1.334 . S
C1314 C1315 1.287 . S
C1315 C1314 1.287 . S
C1315 C1316 1.524 . S
C1315 H1318 0.999 . S
C1316 H1286 0.950 . S
C1316 C1315 1.524 . S
C1316 C1317 1.415 . S
C1317 H1287 0.950 . S
C1317 C1312 1.363 . S
C1317 C1316 1.415 . S
H1318 C1315 0.999 . S
H1319 C1300 0.913 . S
H1320 C1338 0.951 . S
H1321 C1340 0.951 . S
H1322 C1342 0.950 . S
H1323 C1343 0.950 . S
H1324 C1345 0.950 . S
H1325 C1348 0.950 . S
H1326 C1349 0.950 . S
H1327 C1351 0.950 . S
H1328 C1352 0.950 . S
H1329 C1353 0.951 . S
H1330 C1355 0.951 . S
H1331 C1357 0.950 . S
H1332 C1358 0.950 . S
H1333 C1360 0.950 . S
H1334 C1363 0.950 . S
H1335 C1364 0.950 . S
H1336 C1366 0.950 . S
H1337 C1367 0.950 . S
C1338 H1320 0.951 . S
C1338 C1339 1.366 . S
C1338 C1340 1.388 . S
C1339 C1338 1.366 . S
C1339 C1343 1.385 . S
C1340 H1321 0.951 . S
C1340 C1338 1.388 . S
C1340 C1341 1.366 . S
C1341 C1340 1.366 . S
C1341 C1342 1.414 . S
C1341 C1344 1.499 . S
C1342 H1322 0.950 . S
C1342 C1341 1.414 . S
C1342 C1343 1.374 . S
C1343 H1323 0.950 . S
C1343 C1339 1.385 . S
C1343 C1342 1.374 . S
C1344 C1341 1.499 . S
C1344 C1345 1.373 . S
C1344 C1346 1.389 . S
C1345 H1324 0.950 . S
C1345 C1344 1.373 . S
C1345 C1361 1.377 . S
C1346 C1344 1.389 . S
C1346 C1347 1.524 . S
C1346 C1360 1.377 . S
C1347 C1346 1.524 . S
C1347 C1348 1.397 . S
C1347 C1352 1.363 . S
C1348 H1325 0.950 . S
C1348 C1347 1.397 . S
C1348 C1349 1.334 . S
C1349 H1326 0.950 . S
C1349 C1348 1.334 . S
C1349 C1350 1.287 . S
C1350 C1349 1.287 . S
C1350 C1351 1.524 . S
C1350 H1369 0.913 . S
C1351 H1327 0.950 . S
C1351 C1350 1.524 . S
C1351 C1352 1.415 . S
C1352 H1328 0.950 . S
C1352 C1347 1.363 . S
C1352 C1351 1.415 . S
C1353 H1329 0.951 . S
C1353 C1354 1.366 . S
C1353 C1355 1.388 . S
C1354 C1353 1.366 . S
C1354 C1358 1.385 . S
C1355 H1330 0.951 . S
C1355 C1353 1.388 . S
C1355 C1356 1.366 . S
C1356 C1355 1.366 . S
C1356 C1357 1.414 . S
C1356 C1359 1.499 . S
C1357 H1331 0.950 . S
C1357 C1356 1.414 . S
C1357 C1358 1.374 . S
C1358 H1332 0.950 . S
C1358 C1354 1.385 . S
C1358 C1357 1.374 . S
C1359 C1356 1.499 . S
C1359 C1360 1.373 . S
C1359 C1361 1.389 . S
C1360 H1333 0.950 . S
C1360 C1346 1.377 . S
C1360 C1359 1.373 . S
C1361 C1345 1.377 . S
C1361 C1359 1.389 . S
C1361 C1362 1.524 . S
C1362 C1361 1.524 . S
C1362 C1363 1.397 . S
C1362 C1367 1.363 . S
C1363 H1334 0.950 . S
C1363 C1362 1.397 . S
C1363 C1364 1.334 . S
C1364 H1335 0.950 . S
C1364 C1363 1.334 . S
C1364 C1365 1.287 . S
C1365 C1364 1.287 . S
C1365 C1366 1.524 . S
C1365 H1368 0.999 . S
C1366 H1336 0.950 . S
C1366 C1365 1.524 . S
C1366 C1367 1.415 . S
C1367 H1337 0.950 . S
C1367 C1362 1.363 . S
C1367 C1366 1.415 . S
H1368 C1365 0.999 . S
H1369 C1350 0.913 . S
H1370 C1388 0.951 . S
H1371 C1390 0.951 . S
H1372 C1392 0.950 . S
H1373 C1393 0.950 . S
H1374 C1395 0.950 . S
H1375 C1398 0.950 . S
H1376 C1399 0.950 . S
H1377 C1401 0.950 . S
H1378 C1402 0.950 . S
H1379 C1403 0.951 . S
H1380 C1405 0.951 . S
H1381 C1407 0.950 . S
H1382 C1408 0.950 . S
H1383 C1410 0.950 . S
H1384 C1413 0.950 . S
H1385 C1414 0.950 . S
H1386 C1416 0.950 . S
H1387 C1417 0.950 . S
C1388 H1370 0.951 . S
C1388 C1389 1.366 . S
C1388 C1390 1.388 . S
C1389 C1388 1.366 . S
C1389 C1393 1.385 . S
C1390 H1371 0.951 . S
C1390 C1388 1.388 . S
C1390 C1391 1.366 . S
C1391 C1390 1.366 . S
C1391 C1392 1.414 . S
C1391 C1394 1.499 . S
C1392 H1372 0.950 . S
C1392 C1391 1.414 . S
C1392 C1393 1.374 . S
C1393 H1373 0.950 . S
C1393 C1389 1.385 . S
C1393 C1392 1.374 . S
C1394 C1391 1.499 . S
C1394 C1395 1.373 . S
C1394 C1396 1.389 . S
C1395 H1374 0.950 . S
C1395 C1394 1.373 . S
C1395 C1411 1.377 . S
C1396 C1394 1.389 . S
C1396 C1397 1.524 . S
C1396 C1410 1.377 . S
C1397 C1396 1.524 . S
C1397 C1398 1.397 . S
C1397 C1402 1.363 . S
C1398 H1375 0.950 . S
C1398 C1397 1.397 . S
C1398 C1399 1.334 . S
C1399 H1376 0.950 . S
C1399 C1398 1.334 . S
C1399 C1400 1.287 . S
C1400 C1399 1.287 . S
C1400 C1401 1.524 . S
C1400 H1419 0.913 . S
C1401 H1377 0.950 . S
C1401 C1400 1.524 . S
C1401 C1402 1.415 . S
C1402 H1378 0.950 . S
C1402 C1397 1.363 . S
C1402 C1401 1.415 . S
C1403 H1379 0.951 . S
C1403 C1404 1.366 . S
C1403 C1405 1.388 . S
C1404 C1403 1.366 . S
C1404 C1408 1.385 . S
C1405 H1380 0.951 . S
C1405 C1403 1.388 . S
C1405 C1406 1.366 . S
C1406 C1405 1.366 . S
C1406 C1407 1.414 . S
C1406 C1409 1.499 . S
C1407 H1381 0.950 . S
C1407 C1406 1.414 . S
C1407 C1408 1.374 . S
C1408 H1382 0.950 . S
C1408 C1404 1.385 . S
C1408 C1407 1.374 . S
C1409 C1406 1.499 . S
C1409 C1410 1.373 . S
C1409 C1411 1.389 . S
C1410 H1383 0.950 . S
C1410 C1396 1.377 . S
C1410 C1409 1.373 . S
C1411 C1395 1.377 . S
C1411 C1409 1.389 . S
C1411 C1412 1.524 . S
C1412 C1411 1.524 . S
C1412 C1413 1.397 . S
C1412 C1417 1.363 . S
C1413 H1384 0.950 . S
C1413 C1412 1.397 . S
C1413 C1414 1.334 . S
C1414 H1385 0.950 . S
C1414 C1413 1.334 . S
C1414 C1415 1.287 . S
C1415 C1414 1.287 . S
C1415 C1416 1.524 . S
C1415 H1418 0.999 . S
C1416 H1386 0.950 . S
C1416 C1415 1.524 . S
C1416 C1417 1.415 . S
C1417 H1387 0.950 . S
C1417 C1412 1.363 . S
C1417 C1416 1.415 . S
H1418 C1415 0.999 . S
H1419 C1400 0.913 . S
H1420 C1438 0.951 . S
H1421 C1440 0.951 . S
H1422 C1442 0.950 . S
H1423 C1443 0.950 . S
H1424 C1445 0.950 . S
H1425 C1448 0.950 . S
H1426 C1449 0.950 . S
H1427 C1451 0.950 . S
H1428 C1452 0.950 . S
H1429 C1453 0.951 . S
H1430 C1455 0.951 . S
H1431 C1457 0.950 . S
H1432 C1458 0.950 . S
H1433 C1460 0.950 . S
H1434 C1463 0.950 . S
H1435 C1464 0.950 . S
H1436 C1466 0.950 . S
H1437 C1467 0.950 . S
C1438 H1420 0.951 . S
C1438 C1439 1.366 . S
C1438 C1440 1.388 . S
C1439 C1438 1.366 . S
C1439 C1443 1.385 . S
C1440 H1421 0.951 . S
C1440 C1438 1.388 . S
C1440 C1441 1.366 . S
C1441 C1440 1.366 . S
C1441 C1442 1.414 . S
C1441 C1444 1.499 . S
C1442 H1422 0.950 . S
C1442 C1441 1.414 . S
C1442 C1443 1.374 . S
C1443 H1423 0.950 . S
C1443 C1439 1.385 . S
C1443 C1442 1.374 . S
C1444 C1441 1.499 . S
C1444 C1445 1.373 . S
C1444 C1446 1.389 . S
C1445 H1424 0.950 . S
C1445 C1444 1.373 . S
C1445 C1461 1.377 . S
C1446 C1444 1.389 . S
C1446 C1447 1.524 . S
C1446 C1460 1.377 . S
C1447 C1446 1.524 . S
C1447 C1448 1.397 . S
C1447 C1452 1.363 . S
C1448 H1425 0.950 . S
C1448 C1447 1.397 . S
C1448 C1449 1.334 . S
C1449 H1426 0.950 . S
C1449 C1448 1.334 . S
C1449 C1450 1.287 . S
C1450 C1449 1.287 . S
C1450 C1451 1.524 . S
C1450 H1469 0.913 . S
C1451 H1427 0.950 . S
C1451 C1450 1.524 . S
C1451 C1452 1.415 . S
C1452 H1428 0.950 . S
C1452 C1447 1.363 . S
C1452 C1451 1.415 . S
C1453 H1429 0.951 . S
C1453 C1454 1.366 . S
C1453 C1455 1.388 . S
C1454 C1453 1.366 . S
C1454 C1458 1.385 . S
C1455 H1430 0.951 . S
C1455 C1453 1.388 . S
C1455 C1456 1.366 . S
C1456 C1455 1.366 . S
C1456 C1457 1.414 . S
C1456 C1459 1.499 . S
C1457 H1431 0.950 . S
C1457 C1456 1.414 . S
C1457 C1458 1.374 . S
C1458 H1432 0.950 . S
C1458 C1454 1.385 . S
C1458 C1457 1.374 . S
C1459 C1456 1.499 . S
C1459 C1460 1.373 . S
C1459 C1461 1.389 . S
C1460 H1433 0.950 . S
C1460 C1446 1.377 . S
C1460 C1459 1.373 . S
C1461 C1445 1.377 . S
C1461 C1459 1.389 . S
C1461 C1462 1.524 . S
C1462 C1461 1.524 . S
C1462 C1463 1.397 . S
C1462 C1467 1.363 . S
C1463 H1434 0.950 . S
C1463 C1462 1.397 . S
C1463 C1464 1.334 . S
C1464 H1435 0.950 . S
C1464 C1463 1.334 . S
C1464 C1465 1.287 . S
C1465 C1464 1.287 . S
C1465 C1466 1.524 . S
C1465 H1468 0.999 . S
C1466 H1436 0.950 . S
C1466 C1465 1.524 . S
C1466 C1467 1.415 . S
C1467 H1437 0.950 . S
C1467 C1462 1.363 . S
C1467 C1466 1.415 . S
H1468 C1465 0.999 . S
H1469 C1450 0.913 . S
H1470 C1488 0.951 . S
H1471 C1490 0.951 . S
H1472 C1492 0.950 . S
H1473 C1493 0.950 1_655 S
H1474 C1495 0.950 . S
H1475 C1498 0.950 . S
H1476 C1499 0.950 . S
H1477 C1501 0.950 . S
H1478 C1502 0.950 1_554 S
H1479 C1503 0.951 . S
H1480 C1505 0.951 . S
H1481 C1507 0.950 . S
H1482 C1508 0.950 1_455 S
H1483 C1510 0.950 . S
H1484 C1513 0.950 . S
H1485 C1514 0.950 . S
H1486 C1516 0.950 . S
H1487 C1517 0.950 1_556 S
C1488 H1470 0.951 . S
C1488 C1489 1.366 . S
C1488 C1490 1.388 . S
C1489 C1488 1.366 . S
C1489 C1493 1.385 . S
C1490 H1471 0.951 . S
C1490 C1488 1.388 . S
C1490 C1491 1.366 . S
C1491 C1490 1.366 . S
C1491 C1492 1.414 1_455 S
C1491 C1494 1.499 . S
C1492 H1472 0.950 . S
C1492 C1491 1.414 1_655 S
C1492 C1493 1.374 1_655 S
C1493 H1473 0.950 1_455 S
C1493 C1489 1.385 . S
C1493 C1492 1.374 1_455 S
C1494 C1491 1.499 . S
C1494 C1495 1.373 . S
C1494 C1496 1.391 . S
C1495 H1474 0.950 . S
C1495 C1494 1.373 . S
C1495 C1511 1.376 1_456 S
C1496 C1494 1.391 . S
C1496 C1497 1.524 1_455 S
C1496 C1510 1.375 1_456 S
C1497 C1496 1.524 1_655 S
C1497 C1498 1.397 . S
C1497 C1502 1.363 1_655 S
C1498 H1475 0.950 . S
C1498 C1497 1.397 . S
C1498 C1499 1.334 . S
C1499 H1476 0.950 . S
C1499 C1498 1.334 . S
C1499 C1500 1.287 . S
C1500 C1499 1.287 . S
C1500 C1501 1.524 1_655 S
C1500 H1519 0.913 . S
C1501 H1477 0.950 . S
C1501 C1500 1.524 1_455 S
C1501 C1502 1.415 . S
C1502 H1478 0.950 1_556 S
C1502 C1497 1.363 1_455 S
C1502 C1501 1.415 . S
C1503 H1479 0.951 . S
C1503 C1504 1.366 . S
C1503 C1505 1.388 . S
C1504 C1503 1.366 . S
C1504 C1508 1.385 . S
C1505 H1480 0.951 . S
C1505 C1503 1.388 . S
C1505 C1506 1.366 . S
C1506 C1505 1.366 . S
C1506 C1507 1.414 1_655 S
C1506 C1509 1.499 . S
C1507 H1481 0.950 . S
C1507 C1506 1.414 1_455 S
C1507 C1508 1.374 1_455 S
C1508 H1482 0.950 1_655 S
C1508 C1504 1.385 . S
C1508 C1507 1.374 1_655 S
C1509 C1506 1.499 . S
C1509 C1510 1.373 . S
C1509 C1511 1.390 . S
C1510 H1483 0.950 . S
C1510 C1496 1.375 1_654 S
C1510 C1509 1.373 . S
C1511 C1495 1.376 1_654 S
C1511 C1509 1.390 . S
C1511 C1512 1.524 1_655 S
C1512 C1511 1.524 1_455 S
C1512 C1513 1.397 . S
C1512 C1517 1.363 1_455 S
C1513 H1484 0.950 . S
C1513 C1512 1.397 . S
C1513 C1514 1.334 . S
C1514 H1485 0.950 . S
C1514 C1513 1.334 . S
C1514 C1515 1.287 . S
C1515 C1514 1.287 . S
C1515 C1516 1.524 1_455 S
C1515 H1518 0.999 . S
C1516 H1486 0.950 . S
C1516 C1515 1.524 1_655 S
C1516 C1517 1.415 . S
C1517 H1487 0.950 1_554 S
C1517 C1512 1.363 1_655 S
C1517 C1516 1.415 . S
H1518 C1515 0.999 . S
H1519 C1500 0.913 . S
C339 C31 1.513 . S
C354 C143 1.494 . S
C389 C23 1.500 . S
C404 C71 1.512 . S
C439 C63 1.500 . S
C454 C111 1.518 . S
C489 C103 1.500 . S
C504 C151 1.508 . S
C539 C20 1.513 . S
C554 C202 1.507 . S
C589 C2 1.501 . S
C604 C180 1.513 . S
C639 C162 1.501 . S
C654 C100 1.508 . S
C689 C220 1.513 . S
C704 C82 1.505 . S
C739 C271 1.513 . S
C754 C223 1.502 . S
C789 C191 1.513 . S
C804 C263 1.499 . S
C839 C311 1.513 . S
C854 C183 1.504 . S
C889 C231 1.513 . S
C904 C303 1.504 . S
C939 C122 1.500 . S
C954 C260 1.511 . S
C989 C242 1.501 . S
C1004 C60 1.514 . S
C1039 C42 1.501 . S
C1054 C300 1.510 . S
C1089 C140 1.513 . S
C1104 C282 1.497 . S
C1139 C4 1.461 . S
C1154 C25 1.461 . S
C1189 C65 1.462 . S
C1204 C44 1.462 . S
C1239 C105 1.461 . S
C1254 C84 1.461 . S
C1289 C145 1.462 . S
C1304 C124 1.462 . S
C1339 C185 1.461 . S
C1354 C164 1.461 . S
C1389 C225 1.461 . S
C1404 C204 1.461 . S
C1439 C265 1.462 . S
C1454 C244 1.462 . S
C1489 C284 1.461 . S
C1504 C305 1.461 . S
