# Generated by pormake.
# Topology sxa, (6)-cn, num edge types: 1
# Building blocks:
#     Node 0, Type 0, BuildingBlock: JUFBIX_clean_sbu_0, # of connection points: 6
#     Node 1, Type 0, BuildingBlock: JUFBIX_clean_sbu_0, # of connection points: 6
#     Node 2, Type 0, BuildingBlock: JUFBIX_clean_sbu_0, # of connection points: 6
#     Node 3, Type 0, BuildingBlock: JUFBIX_clean_sbu_0, # of connection points: 6
#     Edge 4, Type (0, 0), BuildingBlock: XIVTED_clean_linker_0, # of connection points: 2
#     Edge 5, Type (0, 0), BuildingBlock: XIVTED_clean_linker_0, # of connection points: 2
#     Edge 6, Type (0, 0), BuildingBlock: XIVTED_clean_linker_0, # of connection points: 2
#     Edge 7, Type (0, 0), BuildingBlock: XIVTED_clean_linker_0, # of connection points: 2
#     Edge 8, Type (0, 0), BuildingBlock: XIVTED_clean_linker_0, # of connection points: 2
#     Edge 9, Type (0, 0), BuildingBlock: XIVTED_clean_linker_0, # of connection points: 2
#     Edge 10, Type (0, 0), BuildingBlock: XIVTED_clean_linker_0, # of connection points: 2
#     Edge 11, Type (0, 0), BuildingBlock: XIVTED_clean_linker_0, # of connection points: 2
#     Edge 12, Type (0, 0), BuildingBlock: XIVTED_clean_linker_0, # of connection points: 2
#     Edge 13, Type (0, 0), BuildingBlock: XIVTED_clean_linker_0, # of connection points: 2
#     Edge 14, Type (0, 0), BuildingBlock: XIVTED_clean_linker_0, # of connection points: 2
#     Edge 15, Type (0, 0), BuildingBlock: XIVTED_clean_linker_0, # of connection points: 2
# Relax obj value: 0.394
# Max RMSD: 0.293
# Mean RMSD: 0.293
data_MOF--net-sxa--node1-JUFBIX_clean_sbu_0--edge1-XIVTED_clean_linker_0
_symmetry_space_group_name_H-M    P1
_symmetry_Int_Tables_number       1
_symmetry_cell_setting            triclinic
loop_
_symmetry_equiv_pos_as_xyz
'x, y, z'
_cell_length_a     28.005359
_cell_length_b     27.029442
_cell_length_c     16.316175
_cell_angle_alpha  89.894969
_cell_angle_beta   74.52704
_cell_angle_gamma 86.2196
loop_
_atom_site_label
_atom_site_type_symbol
_atom_site_fract_x
_atom_site_fract_y
_atom_site_fract_z
_atom_type_partial_charge
Co0 Co 0.02206 0.79779 0.14779 0.0
C1 C 0.04144 0.89055 0.19107 0.0
Co2 Co 0.05614 0.79512 0.25667 0.0
C3 C 0.00435 0.76029 0.99705 0.0
C4 C 0.9642 0.83043 1.03308 0.0
N5 N -0.00265 0.79794 0.05396 0.0
N6 N 0.97461 0.76604 0.94472 0.0
C7 C 0.95014 0.8109 0.96595 0.0
H8 H 0.02712 0.72664 0.9994 0.0
H9 H 0.94808 0.86388 0.06894 0.0
C10 C 0.03569 0.70229 0.20177 0.0
N11 N 0.08434 0.79237 0.35143 0.0
C12 C 0.13004 0.80256 0.35933 0.0
C13 C 0.0624 0.77195 0.4264 0.0
N14 N 0.1372 0.78881 0.43584 0.0
C15 C 0.09424 0.76991 0.47777 0.0
C16 C 0.95213 0.80459 0.30371 0.0
O17 O 0.01937 0.7301 0.15213 0.0
O18 O 0.05443 0.72172 0.25659 0.0
O19 O 0.99106 0.80185 0.33009 0.0
O20 O 0.95646 0.80442 0.22387 0.0
O21 O 0.05823 0.86878 0.24893 0.0
H22 H 0.02599 0.75758 0.44205 0.0
H23 H 0.15831 0.81768 0.30857 0.0
O24 O 0.02394 0.86523 0.14254 0.0
O25 O 0.0879 0.7907 0.07329 0.0
O26 O 0.11822 0.78818 0.18463 0.0
C27 C 0.12465 0.78637 0.10509 0.0
H28 H 0.91948 0.82561 0.94245 0.0
H29 H 0.08631 0.75496 0.54119 0.0
Co30 Co 0.51091 0.30694 0.15998 0.0
C31 C 0.54048 0.39601 0.20738 0.0
Co32 Co 0.55682 0.29768 0.25195 0.0
C33 C 0.42315 0.30651 0.11044 0.0
C34 C 0.47182 0.35604 1.03307 0.0
N35 N 0.4705 0.31868 0.08839 0.0
N36 N 0.39346 0.33786 0.07883 0.0
C37 C 0.42421 0.36823 1.02763 0.0
H38 H 0.40953 0.28058 0.16044 0.0
H39 H 0.50347 0.37787 1.00887 0.0
C40 C 0.52691 0.20897 0.1906 0.0
N41 N 0.59684 0.28538 0.32863 0.0
C42 C 0.64191 0.29912 0.33427 0.0
C43 C 0.58232 0.25487 0.3948 0.0
N44 N 0.65563 0.27789 0.40123 0.0
C45 C 0.61762 0.25044 0.43902 0.0
C46 C 0.45649 0.30849 0.33241 0.0
O47 O 0.50562 0.23963 0.15106 0.0
O48 O 0.55064 0.22528 0.24106 0.0
O49 O 0.49887 0.30338 0.34666 0.0
O50 O 0.45413 0.31135 0.25603 0.0
O51 O 0.56337 0.37064 0.25374 0.0
H52 H 0.54802 0.23639 0.40989 0.0
H53 H 0.66457 0.32323 0.28924 0.0
O54 O 0.51553 0.37402 0.16684 0.0
O55 O 0.56839 0.30246 0.06608 0.0
O56 O 0.61198 0.29184 0.16023 0.0
C57 C 0.60976 0.29452 0.08365 0.0
H58 H 0.41268 0.40046 0.99645 0.0
H59 H 0.61499 0.22868 0.49559 0.0
Co60 Co 0.0274 0.29717 0.81985 0.0
C61 C 0.04751 0.38717 0.88807 0.0
Co62 Co 0.05945 0.28965 0.93037 0.0
C63 C 0.9576 0.29275 0.71105 0.0
C64 C 0.02313 0.32968 0.6531 0.0
N65 N 0.00163 0.3048 0.72357 0.0
N66 N 0.95082 0.30961 0.63602 0.0
C67 C 0.99242 0.33256 0.59968 0.0
H68 H 0.93021 0.27368 0.75762 0.0
H69 H 0.05846 0.34606 0.64207 0.0
C70 C 0.04033 0.19928 0.87377 0.0
N71 N 0.08105 0.28303 1.02704 0.0
C72 C 0.07111 0.31582 0.09258 0.0
C73 C 0.10796 0.24497 0.04989 0.0
N74 N 0.09189 0.3007 0.15467 0.0
C75 C 0.1147 0.25573 0.12809 0.0
C76 C 0.95657 0.30139 0.96821 0.0
O77 O 0.02419 0.22363 0.8178 0.0
O78 O 0.05721 0.22232 0.92566 0.0
O79 O 0.99245 0.29481 1.00175 0.0
O80 O 0.96446 0.30304 0.88854 0.0
O81 O 0.06247 0.3572 0.93647 0.0
H82 H 0.12332 0.21242 1.01088 0.0
H83 H 0.05111 0.3515 0.09297 0.0
O84 O 0.03017 0.37028 0.82929 0.0
O85 O 0.09287 0.29148 0.74955 0.0
O86 O 0.12637 0.28482 0.85696 0.0
C87 C 0.1314 0.28711 0.77689 0.0
H88 H 0.00023 0.3506 0.53873 0.0
H89 H 0.13879 0.23424 0.15888 0.0
Co90 Co 0.5282 0.79179 0.82773 0.0
C91 C 0.55828 0.87775 0.89984 0.0
Co92 Co 0.57187 0.77928 0.92308 0.0
C93 C 0.44622 0.7939 0.73837 0.0
C94 C 0.50613 0.83915 0.68421 0.0
N95 N 0.49057 0.80742 0.74805 0.0
N96 N 0.43383 0.81631 0.67106 0.0
C97 C 0.47209 0.84445 0.63734 0.0
H98 H 0.42323 0.76875 0.78063 0.0
H99 H 0.54038 0.8576 0.67229 0.0
C100 C 0.54242 0.69252 0.86482 0.0
N101 N 0.60837 0.76108 0.99975 0.0
C102 C 0.65827 0.75604 0.97814 0.0
C103 C 0.59421 0.72833 0.0631 0.0
N104 N 0.67558 0.71857 1.01891 0.0
C105 C 0.63565 0.70186 0.07461 0.0
C106 C 0.47157 0.79199 0.99265 0.0
O107 O 0.52041 0.71946 0.81921 0.0
O108 O 0.56657 0.713 0.90843 0.0
O109 O 0.51195 0.78242 1.01274 0.0
O110 O 0.47134 0.79686 0.91552 0.0
O111 O 0.57798 0.84566 0.93967 0.0
H112 H 0.55644 0.71832 0.08909 0.0
H113 H 0.68163 0.77477 0.92534 0.0
O114 O 0.53582 0.86339 0.84573 0.0
O115 O 0.58783 0.78696 0.7368 0.0
O116 O 0.63055 0.77699 0.83057 0.0
C117 C 0.62958 0.78136 0.75354 0.0
H118 H 0.47596 0.86718 0.58163 0.0
H119 H 0.63586 0.66879 0.11209 0.0
H120 H 0.96814 0.45608 0.93207 0.0
H121 H 0.11657 0.63555 0.15574 0.0
H122 H 0.12516 0.43559 0.90715 0.0
H123 H 0.95825 0.6504 0.19232 0.0
H124 H 0.12064 0.56081 0.06782 0.0
H125 H 0.96443 0.53045 1.02092 0.0
C126 C 0.00219 0.46853 0.94203 0.0
C127 C 0.04723 0.44031 0.91034 0.0
C128 C 0.08479 0.57973 0.09672 0.0
C129 C 0.04298 0.52355 1.01625 0.0
C130 C 0.0824 0.62168 0.14885 0.0
C131 C 0.03686 0.64855 0.18336 0.0
C132 C 0.04139 0.56489 0.07822 0.0
C133 C 0.99398 0.63011 0.16863 0.0
C134 C -6e-05 0.51026 0.9946 0.0
C135 C 0.08986 0.45693 0.92876 0.0
N136 N -0.00267 0.58999 0.1166 0.0
N137 N 0.08665 0.49699 0.98086 0.0
H138 H 0.46893 0.47104 0.23975 0.0
H139 H 0.61335 0.61697 0.8287 0.0
H140 H 0.62268 0.43716 0.10977 0.0
H141 H 0.45971 0.651 0.95915 0.0
H142 H 0.61626 0.54823 0.92535 0.0
H143 H 0.46589 0.53937 0.14231 0.0
C144 C 0.50291 0.47971 0.19354 0.0
C145 C 0.54651 0.44881 0.18471 0.0
C146 C 0.58144 0.56977 0.93175 0.0
C147 C 0.54244 0.52542 0.06808 0.0
C148 C 0.57931 0.6082 0.87464 0.0
C149 C 0.53586 0.63942 0.8841 0.0
C150 C 0.53978 0.56226 0.99983 0.0
C151 C 0.49366 0.6274 0.94782 0.0
C152 C 0.50075 0.51792 0.1361 0.0
C153 C 0.58865 0.4606 0.12067 0.0
N154 N 0.49686 0.59049 1.00393 0.0
N155 N 0.5854 0.4973 0.06421 0.0
H156 H 0.63008 0.92175 0.95079 0.0
H157 H 0.45422 0.16205 0.14783 0.0
H158 H 0.48332 0.95189 0.91806 0.0
H159 H 0.60391 0.13669 0.16928 0.0
H160 H 0.46297 0.08343 0.07015 0.0
H161 H 0.62167 1.0001 1.02935 0.0
C162 C 0.59642 0.94552 0.95845 0.0
C163 C 0.55749 0.93034 0.92696 0.0
C164 C 0.49378 0.09454 0.09262 0.0
C165 C 0.54692 1.01985 1.01997 0.0
C166 C 0.48862 0.13921 0.13807 0.0
C167 C 0.52826 0.15588 0.16599 0.0
C168 C 0.53915 0.066 0.07392 0.0
C169 C 0.5721 0.12496 0.15045 0.0
C170 C 0.59147 0.99007 1.00423 0.0
C171 C 0.51459 0.96242 0.93977 0.0
N172 N 0.57652 0.08176 0.1048 0.0
N173 N 0.51027 1.00538 0.98598 0.0
H174 H 0.12358 0.93895 0.11368 0.0
H175 H 0.95785 0.1505 0.9467 0.0
H176 H 0.96457 0.95894 0.20675 0.0
H177 H 0.11669 0.12973 0.85181 0.0
H178 H 0.95884 0.07788 1.03697 0.0
H179 H 0.12245 1.01076 1.0215 0.0
C180 C 0.0887 0.96007 0.11811 0.0
C181 C 0.04428 0.9438 0.17026 0.0
C182 C 0.99344 0.08832 0.99475 0.0
C183 C 0.04211 1.02421 0.06041 0.0
C184 C 0.99264 0.12902 0.94125 0.0
C185 C 0.03707 0.14552 0.88952 0.0
C186 C 0.03913 0.06407 0.9973 0.0
C187 C 0.08139 0.11751 0.88869 0.0
C188 C 0.08784 1.00029 0.06363 0.0
C189 C -0.00016 0.97112 0.16964 0.0
N190 N 0.08141 0.07879 0.94238 0.0
N191 N -0.0002 1.00944 0.1152 0.0
H192 H 0.39844 0.88115 0.56861 0.0
H193 H 0.16552 0.72802 0.55077 0.0
H194 H 0.36698 0.74361 0.7006 0.0
H195 H 0.21078 0.8538 0.39303 0.0
H196 H 0.23666 0.73429 0.60928 0.0
H197 H 0.32858 0.87293 0.50898 0.0
C198 C 0.37731 0.84883 0.58497 0.0
C199 C 0.38992 0.8126 0.6395 0.0
C200 C 0.2312 0.76055 0.56187 0.0
C201 C 0.30768 0.80356 0.57099 0.0
C202 C 0.1902 0.75722 0.52845 0.0
C203 C 0.18134 0.79079 0.46697 0.0
C204 C 0.26407 0.79799 0.53456 0.0
C205 C 0.21581 0.82699 0.43984 0.0
C206 C 0.33688 0.84438 0.55073 0.0
C207 C 0.35921 0.77259 0.65929 0.0
N208 N 0.25522 0.82978 0.47407 0.0
N209 N 0.31979 0.76916 0.6251 0.0
H210 H 0.15044 0.28896 0.60469 0.0
H211 H 0.44567 0.29623 0.50438 0.0
H212 H 0.22504 0.28693 0.80479 0.0
H213 H 0.36118 0.31892 0.31987 0.0
H214 H 0.36755 0.29 0.61593 0.0
H215 H 0.22938 0.29537 0.50045 0.0
C216 C 0.18353 0.28963 0.62701 0.0
C217 C 0.18082 0.28751 0.71416 0.0
C218 C 0.36628 0.29656 0.55104 0.0
C219 C 0.27243 0.29516 0.59345 0.0
C220 C 0.4108 0.30026 0.48737 0.0
C221 C 0.41009 0.30803 0.40244 0.0
C222 C 0.32085 0.30041 0.52941 0.0
C223 C 0.36379 0.31278 0.38416 0.0
C224 C 0.22883 0.29348 0.56701 0.0
C225 C 0.22533 0.28843 0.73836 0.0
N226 N 0.32131 0.3087 0.44684 0.0
N227 N 0.2694 0.29226 0.67825 0.0
H228 H 0.92097 0.37187 0.5243 0.0
H229 H 0.69615 0.21056 0.49224 0.0
H230 H 0.88173 0.24002 0.66921 0.0
H231 H 0.71937 0.35314 0.37446 0.0
H232 H 0.76673 0.21922 0.54991 0.0
H233 H 0.85087 0.36423 0.46342 0.0
C234 C 0.8979 0.34106 0.54321 0.0
C235 C 0.90798 0.30628 0.60201 0.0
C236 C 0.75655 0.24877 0.51163 0.0
C237 C 0.82664 0.29754 0.53185 0.0
C238 C 0.7158 0.24401 0.47862 0.0
C239 C 0.70065 0.28159 0.42908 0.0
C240 C 0.78342 0.29134 0.4951 0.0
C241 C 0.7293 0.32317 0.41207 0.0
C242 C 0.85752 0.33695 0.5085 0.0
C243 C 0.87564 0.26788 0.62474 0.0
N244 N 0.76906 0.32698 0.44519 0.0
N245 N 0.83682 0.26446 0.58945 0.0
H246 H 0.8592 0.80326 0.27523 0.0
H247 H 0.72413 0.77575 0.77085 0.0
H248 H 0.93273 0.80471 0.47649 0.0
H249 H 0.6427 0.79114 0.58081 0.0
H250 H 0.80112 0.78241 0.66056 0.0
H251 H 0.7796 0.79684 0.38296 0.0
C252 C 0.85863 0.80261 0.34186 0.0
C253 C 0.90284 0.80449 0.36666 0.0
C254 C 0.76652 0.78428 0.6426 0.0
C255 C 0.81218 0.79659 0.48987 0.0
C256 C 0.72237 0.78017 0.70578 0.0
C257 C 0.67669 0.78273 0.68533 0.0
C258 C 0.76539 0.79108 0.55773 0.0
C259 C 0.67705 0.78889 0.59955 0.0
C260 C 0.81323 0.79878 0.40326 0.0
C261 C 0.89981 0.8033 0.45398 0.0
N262 N 0.72071 0.79291 0.53885 0.0
N263 N 0.85548 0.79925 0.51203 0.0
H264 H 0.42465 0.71472 0.07317 0.0
H265 H 0.17725 0.86039 1.0262 0.0
H266 H 0.40905 0.87244 1.04054 0.0
H267 H 0.18676 0.70484 0.08174 0.0
H268 H 0.26488 0.86394 1.02101 0.0
H269 H 0.33594 0.71029 0.08763 0.0
C270 C 0.40182 0.74877 0.07403 0.0
C271 C 0.42362 0.79384 0.05433 0.0
C272 C 0.24818 0.82869 1.0324 0.0
C273 C 0.32385 0.78906 0.06591 0.0
C274 C 0.19873 0.82641 1.03245 0.0
C275 C 0.17551 0.78224 0.05389 0.0
C276 C 0.2739 0.78639 0.05399 0.0
C277 C 0.20405 0.73939 0.06409 0.0
C278 C 0.35158 0.74613 0.0797 0.0
C279 C 0.39307 0.837 0.05536 0.0
N280 N 0.2518 0.74267 0.06582 0.0
N281 N 0.3447 0.83345 0.05823 0.0
H282 H 0.11244 0.27597 0.30363 0.0
H283 H 0.33802 0.42632 0.09392 0.0
H284 H 0.10544 0.39998 0.14027 0.0
H285 H 0.32988 0.27172 0.16057 0.0
H286 H 0.2508 0.44131 0.17448 0.0
H287 H 0.1844 0.30875 0.33625 0.0
C288 C 0.12447 0.31141 0.27791 0.0
C289 C 0.10646 0.33266 0.21267 0.0
C290 C 0.26892 0.40452 0.17297 0.0
C291 C 0.18865 0.36891 0.2468 0.0
C292 C 0.31817 0.39554 0.12515 0.0
C293 C 0.3413 0.34737 0.11914 0.0
C294 C 0.24309 0.36527 0.21587 0.0
C295 C 0.31395 0.30941 0.16334 0.0
C296 C 0.16569 0.33006 0.29619 0.0
C297 C 0.12104 0.3801 0.18571 0.0
N298 N 0.26647 0.31919 0.20947 0.0
N299 N 0.16337 0.39564 0.19928 0.0
H300 H 0.66907 0.21237 1.03104 0.0
H301 H 0.894 0.38256 0.99945 0.0
H302 H 0.65804 0.37058 1.00155 0.0
H303 H 0.9034 0.22452 1.03283 0.0
H304 H 0.80674 0.37956 1.00191 0.0
H305 H 0.7582 0.21473 1.01207 0.0
C306 C 0.68613 0.24726 1.01541 0.0
C307 C 0.6567 0.2915 1.01914 0.0
C308 C 0.82746 0.34562 1.01067 0.0
C309 C 0.75712 0.29511 1.00298 0.0
C310 C 0.87668 0.34762 1.01201 0.0
C311 C 0.90515 0.30377 1.01692 0.0
C312 C 0.80718 0.29933 1.01382 0.0
C313 C 0.88203 0.25911 1.03028 0.0
C314 C 0.73665 0.24887 1.00738 0.0
C315 C 0.67991 0.33584 0.99974 0.0
N316 N 0.83436 0.2578 1.02664 0.0
N317 N 0.72885 0.33689 0.99517 0.0
H318 H 0.9643 0.67234 1.005 0.0
H319 H 0.7232 0.69755 0.85469 0.0
H320 H 0.93718 0.76777 0.80783 0.0
H321 H 0.73509 0.67764 0.11061 0.0
H322 H 0.81167 0.67327 0.80023 0.0
H323 H 0.89588 0.62427 0.99486 0.0
C324 C 0.9458 0.68178 0.95617 0.0
C325 C 0.95448 0.72591 0.91022 0.0
C326 C 0.79454 0.67245 0.86809 0.0
C327 C 0.87636 0.671 0.89914 0.0
C328 C 0.74448 0.68717 0.89928 0.0
C329 C 0.72311 0.69234 0.98733 0.0
C330 C 0.82312 0.66298 0.92556 0.0
C331 C 0.75102 0.67574 0.04244 0.0
C332 C 0.90652 0.65417 0.95078 0.0
C333 C 0.93 0.73526 0.84688 0.0
N334 N 0.80025 0.66298 1.01067 0.0
N335 N 0.89073 0.70895 0.84495 0.0
loop_
_geom_bond_atom_site_label_1
_geom_bond_atom_site_label_2
_geom_bond_distance
_geom_bond_site_symmetry_2
_ccdc_geom_bond_type
Co0 N5 2.057 1_455 S
Co0 O17 2.021 . S
Co0 O20 2.062 1_455 S
Co0 O24 2.117 . S
Co0 O25 2.020 . S
C1 O21 1.259 . S
C1 O24 1.258 . S
Co2 N11 2.057 . S
Co2 O18 2.117 . S
Co2 O19 2.020 1_455 S
Co2 O21 2.021 . S
Co2 O26 2.062 . S
C3 N5 1.316 . S
C3 N6 1.347 1_554 S
C3 H8 0.931 . S
C4 N5 1.375 . S
C4 C7 1.350 1_554 S
C4 H9 0.930 . S
N5 Co0 2.057 1_655 S
N5 C3 1.316 . S
N5 C4 1.375 . S
N6 C3 1.347 1_556 S
N6 C7 1.373 . S
C7 C4 1.350 1_556 S
C7 N6 1.373 . S
C7 H28 0.931 . S
H8 C3 0.931 . S
H9 C4 0.930 . S
C10 O17 1.259 . S
C10 O18 1.258 . S
N11 Co2 2.057 . S
N11 C12 1.316 . S
N11 C13 1.375 . S
C12 N11 1.316 . S
C12 N14 1.347 . S
C12 H23 0.931 . S
C13 N11 1.375 . S
C13 C15 1.350 . S
C13 H22 0.930 . S
N14 C12 1.347 . S
N14 C15 1.373 . S
C15 C13 1.350 . S
C15 N14 1.373 . S
C15 H29 0.931 . S
C16 O19 1.256 . S
C16 O20 1.255 . S
O17 Co0 2.021 . S
O17 C10 1.259 . S
O18 Co2 2.117 . S
O18 C10 1.258 . S
O19 Co2 2.020 1_655 S
O19 C16 1.256 . S
O20 Co0 2.062 1_655 S
O20 C16 1.255 . S
O21 C1 1.259 . S
O21 Co2 2.021 . S
H22 C13 0.930 . S
H23 C12 0.931 . S
O24 Co0 2.117 . S
O24 C1 1.258 . S
O25 Co0 2.020 . S
O25 C27 1.256 . S
O26 Co2 2.062 . S
O26 C27 1.255 . S
C27 O25 1.256 . S
C27 O26 1.255 . S
H28 C7 0.931 . S
H29 C15 0.931 . S
Co30 N35 2.057 . S
Co30 O47 2.021 . S
Co30 O50 2.062 . S
Co30 O54 2.117 . S
Co30 O55 2.020 . S
C31 O51 1.259 . S
C31 O54 1.258 . S
Co32 N41 2.057 . S
Co32 O48 2.117 . S
Co32 O49 2.020 . S
Co32 O51 2.021 . S
Co32 O56 2.062 . S
C33 N35 1.316 . S
C33 N36 1.347 1_554 S
C33 H38 0.931 . S
C34 N35 1.375 . S
C34 C37 1.350 1_554 S
C34 H39 0.930 . S
N35 Co30 2.057 . S
N35 C33 1.316 . S
N35 C34 1.375 . S
N36 C33 1.347 1_556 S
N36 C37 1.373 . S
C37 C34 1.350 1_556 S
C37 N36 1.373 . S
C37 H58 0.931 . S
H38 C33 0.931 . S
H39 C34 0.930 . S
C40 O47 1.259 . S
C40 O48 1.258 . S
N41 Co32 2.057 . S
N41 C42 1.316 . S
N41 C43 1.375 . S
C42 N41 1.316 . S
C42 N44 1.347 . S
C42 H53 0.931 . S
C43 N41 1.375 . S
C43 C45 1.350 . S
C43 H52 0.930 . S
N44 C42 1.347 . S
N44 C45 1.373 . S
C45 C43 1.350 . S
C45 N44 1.373 . S
C45 H59 0.931 . S
C46 O49 1.256 . S
C46 O50 1.255 . S
O47 Co30 2.021 . S
O47 C40 1.259 . S
O48 Co32 2.117 . S
O48 C40 1.258 . S
O49 Co32 2.020 . S
O49 C46 1.256 . S
O50 Co30 2.062 . S
O50 C46 1.255 . S
O51 C31 1.259 . S
O51 Co32 2.021 . S
H52 C43 0.930 . S
H53 C42 0.931 . S
O54 Co30 2.117 . S
O54 C31 1.258 . S
O55 Co30 2.020 . S
O55 C57 1.256 . S
O56 Co32 2.062 . S
O56 C57 1.255 . S
C57 O55 1.256 . S
C57 O56 1.255 . S
H58 C37 0.931 . S
H59 C45 0.931 . S
Co60 N65 2.057 1_455 S
Co60 O77 2.021 . S
Co60 O80 2.062 1_455 S
Co60 O84 2.117 . S
Co60 O85 2.020 . S
C61 O81 1.259 . S
C61 O84 1.258 . S
Co62 N71 2.057 . S
Co62 O78 2.117 . S
Co62 O79 2.020 1_455 S
Co62 O81 2.021 . S
Co62 O86 2.062 . S
C63 N65 1.316 . S
C63 N66 1.347 . S
C63 H68 0.931 . S
C64 N65 1.375 . S
C64 C67 1.350 . S
C64 H69 0.930 . S
N65 Co60 2.057 1_655 S
N65 C63 1.316 . S
N65 C64 1.375 . S
N66 C63 1.347 . S
N66 C67 1.373 . S
C67 C64 1.350 . S
C67 N66 1.373 . S
C67 H88 0.931 . S
H68 C63 0.931 . S
H69 C64 0.930 . S
C70 O77 1.259 . S
C70 O78 1.258 . S
N71 Co62 2.057 . S
N71 C72 1.316 . S
N71 C73 1.375 . S
C72 N71 1.316 . S
C72 N74 1.347 1_556 S
C72 H83 0.931 . S
C73 N71 1.375 . S
C73 C75 1.350 1_556 S
C73 H82 0.930 . S
N74 C72 1.347 1_554 S
N74 C75 1.373 . S
C75 C73 1.350 1_554 S
C75 N74 1.373 . S
C75 H89 0.931 . S
C76 O79 1.256 . S
C76 O80 1.255 . S
O77 Co60 2.021 . S
O77 C70 1.259 . S
O78 Co62 2.117 . S
O78 C70 1.258 . S
O79 Co62 2.020 1_655 S
O79 C76 1.256 . S
O80 Co60 2.062 1_655 S
O80 C76 1.255 . S
O81 C61 1.259 . S
O81 Co62 2.021 . S
H82 C73 0.930 . S
H83 C72 0.931 . S
O84 Co60 2.117 . S
O84 C61 1.258 . S
O85 Co60 2.020 . S
O85 C87 1.256 . S
O86 Co62 2.062 . S
O86 C87 1.255 . S
C87 O85 1.256 . S
C87 O86 1.255 . S
H88 C67 0.931 . S
H89 C75 0.931 . S
Co90 N95 2.057 . S
Co90 O107 2.021 . S
Co90 O110 2.062 . S
Co90 O114 2.117 . S
Co90 O115 2.020 . S
C91 O111 1.259 . S
C91 O114 1.258 . S
Co92 N101 2.057 . S
Co92 O108 2.117 . S
Co92 O109 2.020 . S
Co92 O111 2.021 . S
Co92 O116 2.062 . S
C93 N95 1.316 . S
C93 N96 1.347 . S
C93 H98 0.931 . S
C94 N95 1.375 . S
C94 C97 1.350 . S
C94 H99 0.930 . S
N95 Co90 2.057 . S
N95 C93 1.316 . S
N95 C94 1.375 . S
N96 C93 1.347 . S
N96 C97 1.373 . S
C97 C94 1.350 . S
C97 N96 1.373 . S
C97 H118 0.931 . S
H98 C93 0.931 . S
H99 C94 0.930 . S
C100 O107 1.259 . S
C100 O108 1.258 . S
N101 Co92 2.057 . S
N101 C102 1.316 . S
N101 C103 1.375 . S
C102 N101 1.316 . S
C102 N104 1.347 1_556 S
C102 H113 0.931 . S
C103 N101 1.375 . S
C103 C105 1.350 1_556 S
C103 H112 0.930 . S
N104 C102 1.347 1_554 S
N104 C105 1.373 . S
C105 C103 1.350 1_554 S
C105 N104 1.373 . S
C105 H119 0.931 . S
C106 O109 1.256 . S
C106 O110 1.255 . S
O107 Co90 2.021 . S
O107 C100 1.259 . S
O108 Co92 2.117 . S
O108 C100 1.258 . S
O109 Co92 2.020 . S
O109 C106 1.256 . S
O110 Co90 2.062 . S
O110 C106 1.255 . S
O111 C91 1.259 . S
O111 Co92 2.021 . S
H112 C103 0.930 . S
H113 C102 0.931 . S
O114 Co90 2.117 . S
O114 C91 1.258 . S
O115 Co90 2.020 . S
O115 C117 1.256 . S
O116 Co92 2.062 . S
O116 C117 1.255 . S
C117 O115 1.256 . S
C117 O116 1.255 . S
H118 C97 0.931 . S
H119 C105 0.931 . S
H120 C126 0.930 1_655 S
H121 C130 0.930 . S
H122 C135 0.929 . S
H123 C133 0.929 1_655 S
H124 C128 0.929 . S
H125 C134 0.929 1_655 S
C126 H120 0.930 1_455 S
C126 C127 1.367 . S
C126 C134 1.378 1_556 S
C127 C126 1.367 . S
C127 C135 1.433 . S
C128 H124 0.929 . S
C128 C130 1.378 1_556 S
C128 C132 1.350 1_556 S
C129 C132 1.463 1_556 S
C129 C134 1.350 1_556 S
C129 N137 1.427 . S
C130 H121 0.930 . S
C130 C128 1.378 1_554 S
C130 C131 1.367 . S
C131 C130 1.367 . S
C131 C133 1.433 . S
C132 C128 1.350 1_554 S
C132 C129 1.463 1_554 S
C132 N136 1.427 . S
C133 H123 0.929 1_455 S
C133 C131 1.433 . S
C133 N136 1.384 . S
C134 H125 0.929 1_455 S
C134 C126 1.378 1_554 S
C134 C129 1.350 1_554 S
C135 H122 0.929 . S
C135 C127 1.433 . S
C135 N137 1.384 . S
N136 C132 1.427 . S
N136 C133 1.384 . S
N137 C129 1.427 . S
N137 C135 1.384 . S
H138 C144 0.930 . S
H139 C148 0.930 . S
H140 C153 0.929 . S
H141 C151 0.929 . S
H142 C146 0.929 . S
H143 C152 0.929 . S
C144 H138 0.930 . S
C144 C145 1.367 . S
C144 C152 1.378 . S
C145 C144 1.367 . S
C145 C153 1.433 . S
C146 H142 0.929 . S
C146 C148 1.378 . S
C146 C150 1.350 . S
C147 C150 1.463 1_554 S
C147 C152 1.350 . S
C147 N155 1.427 . S
C148 H139 0.930 . S
C148 C146 1.378 . S
C148 C149 1.367 . S
C149 C148 1.367 . S
C149 C151 1.433 . S
C150 C146 1.350 . S
C150 C147 1.463 1_556 S
C150 N154 1.427 . S
C151 H141 0.929 . S
C151 C149 1.433 . S
C151 N154 1.384 . S
C152 H143 0.929 . S
C152 C144 1.378 . S
C152 C147 1.350 . S
C153 H140 0.929 . S
C153 C145 1.433 . S
C153 N155 1.384 . S
N154 C150 1.427 . S
N154 C151 1.384 . S
N155 C147 1.427 . S
N155 C153 1.384 . S
H156 C162 0.930 . S
H157 C166 0.930 . S
H158 C171 0.929 . S
H159 C169 0.929 . S
H160 C164 0.929 . S
H161 C170 0.929 . S
C162 H156 0.930 . S
C162 C163 1.367 . S
C162 C170 1.378 . S
C163 C162 1.367 . S
C163 C171 1.433 . S
C164 H160 0.929 . S
C164 C166 1.378 . S
C164 C168 1.350 . S
C165 C168 1.463 1_566 S
C165 C170 1.350 . S
C165 N173 1.427 . S
C166 H157 0.930 . S
C166 C164 1.378 . S
C166 C167 1.367 . S
C167 C166 1.367 . S
C167 C169 1.433 . S
C168 C164 1.350 . S
C168 C165 1.463 1_544 S
C168 N172 1.427 . S
C169 H159 0.929 . S
C169 C167 1.433 . S
C169 N172 1.384 . S
C170 H161 0.929 . S
C170 C162 1.378 . S
C170 C165 1.350 . S
C171 H158 0.929 . S
C171 C163 1.433 . S
C171 N173 1.384 . S
N172 C168 1.427 . S
N172 C169 1.384 . S
N173 C165 1.427 . S
N173 C171 1.384 . S
H174 C180 0.930 . S
H175 C184 0.930 . S
H176 C189 0.929 . S
H177 C187 0.929 . S
H178 C182 0.929 1_554 S
H179 C188 0.929 1_556 S
C180 H174 0.930 . S
C180 C181 1.367 . S
C180 C188 1.378 . S
C181 C180 1.367 . S
C181 C189 1.433 . S
C182 H178 0.929 1_556 S
C182 C184 1.378 . S
C182 C186 1.350 . S
C183 C186 1.463 1_564 S
C183 C188 1.350 . S
C183 N191 1.427 . S
C184 H175 0.930 . S
C184 C182 1.378 . S
C184 C185 1.367 . S
C185 C184 1.367 . S
C185 C187 1.433 . S
C186 C182 1.350 . S
C186 C183 1.463 1_546 S
C186 N190 1.427 . S
C187 H177 0.929 . S
C187 C185 1.433 . S
C187 N190 1.384 . S
C188 H179 0.929 1_554 S
C188 C180 1.378 . S
C188 C183 1.350 . S
C189 H176 0.929 . S
C189 C181 1.433 . S
C189 N191 1.384 . S
N190 C186 1.427 . S
N190 C187 1.384 . S
N191 C183 1.427 . S
N191 C189 1.384 . S
H192 C198 0.930 . S
H193 C202 0.930 . S
H194 C207 0.929 . S
H195 C205 0.929 . S
H196 C200 0.929 . S
H197 C206 0.929 . S
C198 H192 0.930 . S
C198 C199 1.367 . S
C198 C206 1.378 . S
C199 C198 1.367 . S
C199 C207 1.433 . S
C200 H196 0.929 . S
C200 C202 1.378 . S
C200 C204 1.350 . S
C201 C204 1.463 . S
C201 C206 1.350 . S
C201 N209 1.427 . S
C202 H193 0.930 . S
C202 C200 1.378 . S
C202 C203 1.367 . S
C203 C202 1.367 . S
C203 C205 1.433 . S
C204 C200 1.350 . S
C204 C201 1.463 . S
C204 N208 1.427 . S
C205 H195 0.929 . S
C205 C203 1.433 . S
C205 N208 1.384 . S
C206 H197 0.929 . S
C206 C198 1.378 . S
C206 C201 1.350 . S
C207 H194 0.929 . S
C207 C199 1.433 . S
C207 N209 1.384 . S
N208 C204 1.427 . S
N208 C205 1.384 . S
N209 C201 1.427 . S
N209 C207 1.384 . S
H210 C216 0.930 . S
H211 C220 0.930 . S
H212 C225 0.929 . S
H213 C223 0.929 . S
H214 C218 0.929 . S
H215 C224 0.929 . S
C216 H210 0.930 . S
C216 C217 1.367 . S
C216 C224 1.378 . S
C217 C216 1.367 . S
C217 C225 1.433 . S
C218 H214 0.929 . S
C218 C220 1.378 . S
C218 C222 1.350 . S
C219 C222 1.463 . S
C219 C224 1.350 . S
C219 N227 1.427 . S
C220 H211 0.930 . S
C220 C218 1.378 . S
C220 C221 1.367 . S
C221 C220 1.367 . S
C221 C223 1.433 . S
C222 C218 1.350 . S
C222 C219 1.463 . S
C222 N226 1.427 . S
C223 H213 0.929 . S
C223 C221 1.433 . S
C223 N226 1.384 . S
C224 H215 0.929 . S
C224 C216 1.378 . S
C224 C219 1.350 . S
C225 H212 0.929 . S
C225 C217 1.433 . S
C225 N227 1.384 . S
N226 C222 1.427 . S
N226 C223 1.384 . S
N227 C219 1.427 . S
N227 C225 1.384 . S
H228 C234 0.930 . S
H229 C238 0.930 . S
H230 C243 0.929 . S
H231 C241 0.929 . S
H232 C236 0.929 . S
H233 C242 0.929 . S
C234 H228 0.930 . S
C234 C235 1.367 . S
C234 C242 1.378 . S
C235 C234 1.367 . S
C235 C243 1.433 . S
C236 H232 0.929 . S
C236 C238 1.378 . S
C236 C240 1.350 . S
C237 C240 1.463 . S
C237 C242 1.350 . S
C237 N245 1.427 . S
C238 H229 0.930 . S
C238 C236 1.378 . S
C238 C239 1.367 . S
C239 C238 1.367 . S
C239 C241 1.433 . S
C240 C236 1.350 . S
C240 C237 1.463 . S
C240 N244 1.427 . S
C241 H231 0.929 . S
C241 C239 1.433 . S
C241 N244 1.384 . S
C242 H233 0.929 . S
C242 C234 1.378 . S
C242 C237 1.350 . S
C243 H230 0.929 . S
C243 C235 1.433 . S
C243 N245 1.384 . S
N244 C240 1.427 . S
N244 C241 1.384 . S
N245 C237 1.427 . S
N245 C243 1.384 . S
H246 C252 0.930 . S
H247 C256 0.930 . S
H248 C261 0.929 . S
H249 C259 0.929 . S
H250 C254 0.929 . S
H251 C260 0.929 . S
C252 H246 0.930 . S
C252 C253 1.367 . S
C252 C260 1.378 . S
C253 C252 1.367 . S
C253 C261 1.433 . S
C254 H250 0.929 . S
C254 C256 1.378 . S
C254 C258 1.350 . S
C255 C258 1.463 . S
C255 C260 1.350 . S
C255 N263 1.427 . S
C256 H247 0.930 . S
C256 C254 1.378 . S
C256 C257 1.367 . S
C257 C256 1.367 . S
C257 C259 1.433 . S
C258 C254 1.350 . S
C258 C255 1.463 . S
C258 N262 1.427 . S
C259 H249 0.929 . S
C259 C257 1.433 . S
C259 N262 1.384 . S
C260 H251 0.929 . S
C260 C252 1.378 . S
C260 C255 1.350 . S
C261 H248 0.929 . S
C261 C253 1.433 . S
C261 N263 1.384 . S
N262 C258 1.427 . S
N262 C259 1.384 . S
N263 C255 1.427 . S
N263 C261 1.384 . S
H264 C270 0.930 . S
H265 C274 0.930 . S
H266 C279 0.929 . S
H267 C277 0.929 . S
H268 C272 0.929 . S
H269 C278 0.929 . S
C270 H264 0.930 . S
C270 C271 1.367 1_554 S
C270 C278 1.378 . S
C271 C270 1.367 1_556 S
C271 C279 1.433 . S
C272 H268 0.929 . S
C272 C274 1.378 . S
C272 C276 1.350 1_556 S
C273 C276 1.463 1_556 S
C273 C278 1.350 1_556 S
C273 N281 1.427 . S
C274 H265 0.930 . S
C274 C272 1.378 . S
C274 C275 1.367 1_556 S
C275 C274 1.367 1_554 S
C275 C277 1.433 . S
C276 C272 1.350 1_554 S
C276 C273 1.463 1_554 S
C276 N280 1.427 . S
C277 H267 0.929 . S
C277 C275 1.433 . S
C277 N280 1.384 . S
C278 H269 0.929 . S
C278 C270 1.378 . S
C278 C273 1.350 1_554 S
C279 H266 0.929 . S
C279 C271 1.433 . S
C279 N281 1.384 . S
N280 C276 1.427 . S
N280 C277 1.384 . S
N281 C273 1.427 . S
N281 C279 1.384 . S
H282 C288 0.930 . S
H283 C292 0.930 . S
H284 C297 0.929 . S
H285 C295 0.929 . S
H286 C290 0.929 . S
H287 C296 0.929 . S
C288 H282 0.930 . S
C288 C289 1.367 . S
C288 C296 1.378 . S
C289 C288 1.367 . S
C289 C297 1.433 1_554 S
C290 H286 0.929 . S
C290 C292 1.378 . S
C290 C294 1.350 . S
C291 C294 1.463 1_554 S
C291 C296 1.350 . S
C291 N299 1.427 1_554 S
C292 H283 0.930 . S
C292 C290 1.378 . S
C292 C293 1.367 . S
C293 C292 1.367 . S
C293 C295 1.433 1_556 S
C294 C290 1.350 . S
C294 C291 1.463 1_556 S
C294 N298 1.427 1_556 S
C295 H285 0.929 . S
C295 C293 1.433 1_554 S
C295 N298 1.384 . S
C296 H287 0.929 . S
C296 C288 1.378 . S
C296 C291 1.350 . S
C297 H284 0.929 . S
C297 C289 1.433 1_556 S
C297 N299 1.384 . S
N298 C294 1.427 1_554 S
N298 C295 1.384 . S
N299 C291 1.427 1_556 S
N299 C297 1.384 . S
H300 C306 0.930 . S
H301 C310 0.930 . S
H302 C315 0.929 . S
H303 C313 0.929 . S
H304 C308 0.929 . S
H305 C314 0.929 . S
C306 H300 0.930 . S
C306 C307 1.367 . S
C306 C314 1.378 . S
C307 C306 1.367 . S
C307 C315 1.433 1_554 S
C308 H304 0.929 . S
C308 C310 1.378 . S
C308 C312 1.350 . S
C309 C312 1.463 1_554 S
C309 C314 1.350 . S
C309 N317 1.427 1_554 S
C310 H301 0.930 . S
C310 C308 1.378 . S
C310 C311 1.367 . S
C311 C310 1.367 . S
C311 C313 1.433 1_556 S
C312 C308 1.350 . S
C312 C309 1.463 1_556 S
C312 N316 1.427 1_556 S
C313 H303 0.929 . S
C313 C311 1.433 1_554 S
C313 N316 1.384 . S
C314 H305 0.929 . S
C314 C306 1.378 . S
C314 C309 1.350 . S
C315 H302 0.929 . S
C315 C307 1.433 1_556 S
C315 N317 1.384 . S
N316 C312 1.427 1_554 S
N316 C313 1.384 . S
N317 C309 1.427 1_556 S
N317 C315 1.384 . S
H318 C324 0.930 . S
H319 C328 0.930 . S
H320 C333 0.929 . S
H321 C331 0.929 . S
H322 C326 0.929 . S
H323 C332 0.929 . S
C324 H318 0.930 . S
C324 C325 1.367 1_554 S
C324 C332 1.378 . S
C325 C324 1.367 1_556 S
C325 C333 1.433 . S
C326 H322 0.929 . S
C326 C328 1.378 . S
C326 C330 1.350 1_556 S
C327 C330 1.463 1_556 S
C327 C332 1.350 1_556 S
C327 N335 1.427 . S
C328 H319 0.930 . S
C328 C326 1.378 . S
C328 C329 1.367 1_556 S
C329 C328 1.367 1_554 S
C329 C331 1.433 . S
C330 C326 1.350 1_554 S
C330 C327 1.463 1_554 S
C330 N334 1.427 . S
C331 H321 0.929 . S
C331 C329 1.433 . S
C331 N334 1.384 . S
C332 H323 0.929 . S
C332 C324 1.378 . S
C332 C327 1.350 1_554 S
C333 H320 0.929 . S
C333 C325 1.433 . S
C333 N335 1.384 . S
N334 C330 1.427 . S
N334 C331 1.384 . S
N335 C327 1.427 . S
N335 C333 1.384 . S
C127 C61 2.232 . S
C131 C10 2.232 . S
C145 C31 2.305 . S
C149 C100 2.305 . S
C163 C91 2.238 . S
C167 C40 2.238 . S
C181 C1 2.303 . S
C185 C70 2.303 . S
C199 N96 1.552 . S
C203 N14 1.552 . S
C217 C87 1.581 . S
C221 C46 1.581 . S
C235 N66 1.552 . S
C239 N44 1.552 . S
C253 C16 1.581 . S
C257 C117 1.581 . S
C271 C106 0.974 . S
C275 C27 0.974 . S
C289 N74 0.561 . S
C293 N36 0.561 . S
C307 C57 0.956 . S
C311 C76 0.956 . S
C325 N6 0.523 . S
C329 N104 0.523 . S
