# Generated by pormake.
# Topology umr, (4)-cn, num edge types: 1
# Building blocks:
#     Node 0, Type 0, BuildingBlock: CEKHIL_clean_sbu_0, # of connection points: 4
#     Node 1, Type 0, BuildingBlock: CEKHIL_clean_sbu_0, # of connection points: 4
#     Node 2, Type 0, BuildingBlock: CEKHIL_clean_sbu_0, # of connection points: 4
#     Node 3, Type 0, BuildingBlock: CEKHIL_clean_sbu_0, # of connection points: 4
#     Node 4, Type 0, BuildingBlock: CEKHIL_clean_sbu_0, # of connection points: 4
#     Node 5, Type 0, BuildingBlock: CEKHIL_clean_sbu_0, # of connection points: 4
#     Node 6, Type 0, BuildingBlock: CEKHIL_clean_sbu_0, # of connection points: 4
#     Node 7, Type 0, BuildingBlock: CEKHIL_clean_sbu_0, # of connection points: 4
#     Node 8, Type 0, BuildingBlock: CEKHIL_clean_sbu_0, # of connection points: 4
#     Node 9, Type 0, BuildingBlock: CEKHIL_clean_sbu_0, # of connection points: 4
#     Node 10, Type 0, BuildingBlock: CEKHIL_clean_sbu_0, # of connection points: 4
#     Node 11, Type 0, BuildingBlock: CEKHIL_clean_sbu_0, # of connection points: 4
#     Node 12, Type 0, BuildingBlock: CEKHIL_clean_sbu_0, # of connection points: 4
#     Node 13, Type 0, BuildingBlock: CEKHIL_clean_sbu_0, # of connection points: 4
#     Node 14, Type 0, BuildingBlock: CEKHIL_clean_sbu_0, # of connection points: 4
#     Node 15, Type 0, BuildingBlock: CEKHIL_clean_sbu_0, # of connection points: 4
#     Node 16, Type 0, BuildingBlock: CEKHIL_clean_sbu_0, # of connection points: 4
#     Node 17, Type 0, BuildingBlock: CEKHIL_clean_sbu_0, # of connection points: 4
#     Node 18, Type 0, BuildingBlock: CEKHIL_clean_sbu_0, # of connection points: 4
#     Node 19, Type 0, BuildingBlock: CEKHIL_clean_sbu_0, # of connection points: 4
#     Node 20, Type 0, BuildingBlock: CEKHIL_clean_sbu_0, # of connection points: 4
#     Node 21, Type 0, BuildingBlock: CEKHIL_clean_sbu_0, # of connection points: 4
#     Node 22, Type 0, BuildingBlock: CEKHIL_clean_sbu_0, # of connection points: 4
#     Node 23, Type 0, BuildingBlock: CEKHIL_clean_sbu_0, # of connection points: 4
#     Node 24, Type 0, BuildingBlock: CEKHIL_clean_sbu_0, # of connection points: 4
#     Node 25, Type 0, BuildingBlock: CEKHIL_clean_sbu_0, # of connection points: 4
#     Node 26, Type 0, BuildingBlock: CEKHIL_clean_sbu_0, # of connection points: 4
#     Node 27, Type 0, BuildingBlock: CEKHIL_clean_sbu_0, # of connection points: 4
#     Node 28, Type 0, BuildingBlock: CEKHIL_clean_sbu_0, # of connection points: 4
#     Node 29, Type 0, BuildingBlock: CEKHIL_clean_sbu_0, # of connection points: 4
#     Node 30, Type 0, BuildingBlock: CEKHIL_clean_sbu_0, # of connection points: 4
#     Node 31, Type 0, BuildingBlock: CEKHIL_clean_sbu_0, # of connection points: 4
#     Edge 32, Type (0, 0), BuildingBlock: EZIPEK_clean_linker_0, # of connection points: 2
#     Edge 33, Type (0, 0), BuildingBlock: EZIPEK_clean_linker_0, # of connection points: 2
#     Edge 34, Type (0, 0), BuildingBlock: EZIPEK_clean_linker_0, # of connection points: 2
#     Edge 35, Type (0, 0), BuildingBlock: EZIPEK_clean_linker_0, # of connection points: 2
#     Edge 36, Type (0, 0), BuildingBlock: EZIPEK_clean_linker_0, # of connection points: 2
#     Edge 37, Type (0, 0), BuildingBlock: EZIPEK_clean_linker_0, # of connection points: 2
#     Edge 38, Type (0, 0), BuildingBlock: EZIPEK_clean_linker_0, # of connection points: 2
#     Edge 39, Type (0, 0), BuildingBlock: EZIPEK_clean_linker_0, # of connection points: 2
#     Edge 40, Type (0, 0), BuildingBlock: EZIPEK_clean_linker_0, # of connection points: 2
#     Edge 41, Type (0, 0), BuildingBlock: EZIPEK_clean_linker_0, # of connection points: 2
#     Edge 42, Type (0, 0), BuildingBlock: EZIPEK_clean_linker_0, # of connection points: 2
#     Edge 43, Type (0, 0), BuildingBlock: EZIPEK_clean_linker_0, # of connection points: 2
#     Edge 44, Type (0, 0), BuildingBlock: EZIPEK_clean_linker_0, # of connection points: 2
#     Edge 45, Type (0, 0), BuildingBlock: EZIPEK_clean_linker_0, # of connection points: 2
#     Edge 46, Type (0, 0), BuildingBlock: EZIPEK_clean_linker_0, # of connection points: 2
#     Edge 47, Type (0, 0), BuildingBlock: EZIPEK_clean_linker_0, # of connection points: 2
#     Edge 48, Type (0, 0), BuildingBlock: EZIPEK_clean_linker_0, # of connection points: 2
#     Edge 49, Type (0, 0), BuildingBlock: EZIPEK_clean_linker_0, # of connection points: 2
#     Edge 50, Type (0, 0), BuildingBlock: EZIPEK_clean_linker_0, # of connection points: 2
#     Edge 51, Type (0, 0), BuildingBlock: EZIPEK_clean_linker_0, # of connection points: 2
#     Edge 52, Type (0, 0), BuildingBlock: EZIPEK_clean_linker_0, # of connection points: 2
#     Edge 53, Type (0, 0), BuildingBlock: EZIPEK_clean_linker_0, # of connection points: 2
#     Edge 54, Type (0, 0), BuildingBlock: EZIPEK_clean_linker_0, # of connection points: 2
#     Edge 55, Type (0, 0), BuildingBlock: EZIPEK_clean_linker_0, # of connection points: 2
#     Edge 56, Type (0, 0), BuildingBlock: EZIPEK_clean_linker_0, # of connection points: 2
#     Edge 57, Type (0, 0), BuildingBlock: EZIPEK_clean_linker_0, # of connection points: 2
#     Edge 58, Type (0, 0), BuildingBlock: EZIPEK_clean_linker_0, # of connection points: 2
#     Edge 59, Type (0, 0), BuildingBlock: EZIPEK_clean_linker_0, # of connection points: 2
#     Edge 60, Type (0, 0), BuildingBlock: EZIPEK_clean_linker_0, # of connection points: 2
#     Edge 61, Type (0, 0), BuildingBlock: EZIPEK_clean_linker_0, # of connection points: 2
#     Edge 62, Type (0, 0), BuildingBlock: EZIPEK_clean_linker_0, # of connection points: 2
#     Edge 63, Type (0, 0), BuildingBlock: EZIPEK_clean_linker_0, # of connection points: 2
#     Edge 64, Type (0, 0), BuildingBlock: EZIPEK_clean_linker_0, # of connection points: 2
#     Edge 65, Type (0, 0), BuildingBlock: EZIPEK_clean_linker_0, # of connection points: 2
#     Edge 66, Type (0, 0), BuildingBlock: EZIPEK_clean_linker_0, # of connection points: 2
#     Edge 67, Type (0, 0), BuildingBlock: EZIPEK_clean_linker_0, # of connection points: 2
#     Edge 68, Type (0, 0), BuildingBlock: EZIPEK_clean_linker_0, # of connection points: 2
#     Edge 69, Type (0, 0), BuildingBlock: EZIPEK_clean_linker_0, # of connection points: 2
#     Edge 70, Type (0, 0), BuildingBlock: EZIPEK_clean_linker_0, # of connection points: 2
#     Edge 71, Type (0, 0), BuildingBlock: EZIPEK_clean_linker_0, # of connection points: 2
#     Edge 72, Type (0, 0), BuildingBlock: EZIPEK_clean_linker_0, # of connection points: 2
#     Edge 73, Type (0, 0), BuildingBlock: EZIPEK_clean_linker_0, # of connection points: 2
#     Edge 74, Type (0, 0), BuildingBlock: EZIPEK_clean_linker_0, # of connection points: 2
#     Edge 75, Type (0, 0), BuildingBlock: EZIPEK_clean_linker_0, # of connection points: 2
#     Edge 76, Type (0, 0), BuildingBlock: EZIPEK_clean_linker_0, # of connection points: 2
#     Edge 77, Type (0, 0), BuildingBlock: EZIPEK_clean_linker_0, # of connection points: 2
#     Edge 78, Type (0, 0), BuildingBlock: EZIPEK_clean_linker_0, # of connection points: 2
#     Edge 79, Type (0, 0), BuildingBlock: EZIPEK_clean_linker_0, # of connection points: 2
#     Edge 80, Type (0, 0), BuildingBlock: EZIPEK_clean_linker_0, # of connection points: 2
#     Edge 81, Type (0, 0), BuildingBlock: EZIPEK_clean_linker_0, # of connection points: 2
#     Edge 82, Type (0, 0), BuildingBlock: EZIPEK_clean_linker_0, # of connection points: 2
#     Edge 83, Type (0, 0), BuildingBlock: EZIPEK_clean_linker_0, # of connection points: 2
#     Edge 84, Type (0, 0), BuildingBlock: EZIPEK_clean_linker_0, # of connection points: 2
#     Edge 85, Type (0, 0), BuildingBlock: EZIPEK_clean_linker_0, # of connection points: 2
#     Edge 86, Type (0, 0), BuildingBlock: EZIPEK_clean_linker_0, # of connection points: 2
#     Edge 87, Type (0, 0), BuildingBlock: EZIPEK_clean_linker_0, # of connection points: 2
#     Edge 88, Type (0, 0), BuildingBlock: EZIPEK_clean_linker_0, # of connection points: 2
#     Edge 89, Type (0, 0), BuildingBlock: EZIPEK_clean_linker_0, # of connection points: 2
#     Edge 90, Type (0, 0), BuildingBlock: EZIPEK_clean_linker_0, # of connection points: 2
#     Edge 91, Type (0, 0), BuildingBlock: EZIPEK_clean_linker_0, # of connection points: 2
#     Edge 92, Type (0, 0), BuildingBlock: EZIPEK_clean_linker_0, # of connection points: 2
#     Edge 93, Type (0, 0), BuildingBlock: EZIPEK_clean_linker_0, # of connection points: 2
#     Edge 94, Type (0, 0), BuildingBlock: EZIPEK_clean_linker_0, # of connection points: 2
#     Edge 95, Type (0, 0), BuildingBlock: EZIPEK_clean_linker_0, # of connection points: 2
# Relax obj value: 0.088
# Max RMSD: 0.107
# Mean RMSD: 0.107
data_MOF--net-umr--node1-CEKHIL_clean_sbu_0--edge1-EZIPEK_clean_linker_0
_symmetry_space_group_name_H-M    P1
_symmetry_Int_Tables_number       1
_symmetry_cell_setting            triclinic
loop_
_symmetry_equiv_pos_as_xyz
'x, y, z'
_cell_length_a     60.699177
_cell_length_b     60.94743
_cell_length_c     19.268784
_cell_angle_alpha  90.142855
_cell_angle_beta   90.017052
_cell_angle_gamma 89.985647
loop_
_atom_site_label
_atom_site_type_symbol
_atom_site_fract_x
_atom_site_fract_y
_atom_site_fract_z
_atom_type_partial_charge
Co0 Co 0.1626 0.28939 0.04652 0.0
O1 O 0.13154 0.29526 0.06091 0.0
O2 O 0.15843 0.31887 0.08221 0.0
C3 C 0.15756 0.27377 0.94095 0.0
O4 O 0.19633 0.29039 0.0358 0.0
Co5 Co 0.18212 0.243 0.02516 0.0
O6 O 0.2091 0.25817 -0.00462 0.0
C7 C 0.16626 0.25684 0.16312 0.0
C8 C 0.13745 0.31464 0.08184 0.0
C9 C 0.21192 0.27819 0.0115 0.0
O10 O 0.1645 0.27688 0.14277 0.0
O11 O 0.17179 0.24096 0.12326 0.0
O12 O 0.1592 0.29498 0.94749 0.0
O13 O 0.15876 0.26296 -0.00192 0.0
Co14 Co 0.96449 0.91323 0.28471 0.0
O15 O 0.95888 0.88199 0.29298 0.0
O16 O 0.93606 0.90811 0.32744 0.0
C17 C 0.97679 0.91207 0.17322 0.0
O18 O 0.96327 0.94692 0.28344 0.0
Co19 Co 0.01126 0.93187 0.25857 0.0
O20 O 0.99696 0.96108 0.2639 0.0
C21 C 1.00015 0.9139 0.39527 0.0
C22 C 0.94009 0.88728 0.32062 0.0
C23 C 0.97643 0.96332 0.27552 0.0
O24 O 0.97956 0.9134 0.37875 0.0
O25 O 0.01549 0.91842 0.35214 0.0
O26 O 0.95579 0.91231 0.1864 0.0
O27 O 0.98948 0.91091 0.22674 0.0
Co28 Co 0.35391 0.71174 0.53041 0.0
O29 O 0.38432 0.70524 0.55254 0.0
O30 O 0.35635 0.68323 0.57511 0.0
C31 C 0.3596 0.7232 0.42057 0.0
O32 O 0.32056 0.71274 0.51051 0.0
Co33 Co 0.34089 0.76028 0.49922 0.0
O34 O 0.31131 0.74751 0.48275 0.0
C35 C 0.34992 0.74715 0.64248 0.0
C36 C 0.37753 0.68659 0.57661 0.0
C37 C 0.30631 0.72737 0.49158 0.0
O38 O 0.34939 0.72685 0.62354 0.0
O39 O 0.34973 0.76297 0.59897 0.0
O40 O 0.35911 0.70239 0.43461 0.0
O41 O 0.35969 0.73598 0.47408 0.0
Co42 Co 0.54551 0.10077 0.77194 0.0
O43 O 0.55273 0.13095 0.79114 0.0
O44 O 0.57463 0.10291 0.81363 0.0
C45 C 0.5329 0.10554 0.66371 0.0
O46 O 0.54352 0.06726 0.75637 0.0
Co47 Co 0.49617 0.08826 0.74483 0.0
O48 O 0.50824 0.0583 0.73231 0.0
C49 C 0.51064 0.10112 0.88348 0.0
C50 C 0.57153 0.12406 0.81455 0.0
C51 C 0.52842 0.05306 0.74059 0.0
O52 O 0.53092 0.09855 0.86548 0.0
O53 O 0.49447 0.10039 0.84109 0.0
O54 O 0.55399 0.10453 0.67487 0.0
O55 O 0.52074 0.10649 0.71835 0.0
Co56 Co 0.16359 0.71218 0.44665 0.0
O57 O 0.13249 0.70565 0.43911 0.0
O58 O 0.15929 0.68402 0.40167 0.0
C59 C 0.16227 0.72369 0.55781 0.0
O60 O 0.19751 0.71249 0.4467 0.0
Co61 Co 0.18079 0.75928 0.47686 0.0
O62 O 0.20972 0.74484 0.48819 0.0
C63 C 0.16469 0.74799 0.3367 0.0
C64 C 0.13827 0.68744 0.40918 0.0
C65 C 0.21313 0.72529 0.46734 0.0
O66 O 0.16248 0.72774 0.3545 0.0
O67 O 0.17071 0.76316 0.37863 0.0
O68 O 0.16354 0.70283 0.54392 0.0
O69 O 0.16043 0.73658 0.50528 0.0
Co70 Co 0.54785 0.91069 0.70221 0.0
O71 O 0.55616 0.88024 0.6918 0.0
O72 O 0.57714 0.90822 0.66204 0.0
C73 C 0.53483 0.90768 0.81226 0.0
O74 O 0.54535 0.94441 0.7053 0.0
Co75 Co 0.49898 0.92403 0.7266 0.0
O76 O 0.51099 0.9541 0.73722 0.0
C77 C 0.51344 0.90951 0.58768 0.0
C78 C 0.57466 0.88705 0.6658 0.0
C79 C 0.53077 0.95901 0.72139 0.0
O80 O 0.53375 0.90988 0.60707 0.0
O81 O 0.49721 0.91279 0.62877 0.0
O82 O 0.55581 0.91015 0.80123 0.0
O83 O 0.52284 0.9055 0.75752 0.0
Co84 Co 0.3523 0.29442 0.9436 0.0
O85 O 0.38284 0.30123 0.92469 0.0
O86 O 0.35481 0.32342 0.90293 0.0
C87 C 0.35892 0.28104 0.05183 0.0
O88 O 0.31881 0.29387 0.95852 0.0
Co89 Co 0.3365 0.24696 0.97419 0.0
O90 O 0.30836 0.26101 0.00047 0.0
C91 C 0.34891 0.25973 0.83219 0.0
C92 C 0.37596 0.32004 0.90203 0.0
C93 C 0.30418 0.28074 0.98357 0.0
O94 O 0.34912 0.2802 0.84924 0.0
O95 O 0.34663 0.24414 0.87594 0.0
O96 O 0.35656 0.302 0.04147 0.0
O97 O 0.35794 0.26929 -0.00361 0.0
Co98 Co 0.96469 0.10302 0.21036 0.0
O99 O 0.95894 0.13347 0.18827 0.0
O100 O 0.93492 0.10659 0.17495 0.0
C101 C 0.98069 0.11043 0.31463 0.0
O102 O 0.96393 0.06997 0.23062 0.0
Co103 Co 0.01215 0.0855 0.23255 0.0
O104 O 0.99756 0.05828 0.26354 0.0
C105 C 0.99642 0.09521 0.09142 0.0
C106 C 0.93927 0.12744 0.17021 0.0
C107 C 0.97715 0.05493 0.25267 0.0
O108 O 0.97653 0.09725 0.11382 0.0
O109 O 0.01302 0.09318 0.13187 0.0
O110 O 0.95937 0.10924 0.30853 0.0
O111 O 0.9913 0.10813 0.25726 0.0
Co112 Co 0.85068 0.71421 0.95442 0.0
O113 O 0.88168 0.70773 0.94201 0.0
O114 O 0.8544 0.68635 0.90691 0.0
C115 C 0.85353 0.72489 0.06707 0.0
O116 O 0.81686 0.71432 0.95923 0.0
Co117 Co 0.83408 0.76109 -0.00835 0.0
O118 O 0.80494 0.74661 0.00194 0.0
C119 C 0.85002 0.75146 0.85015 0.0
C120 C 0.87549 0.68959 0.91235 0.0
C121 C 0.80138 0.72708 0.98102 0.0
O122 O 0.84998 0.73068 0.86311 0.0
O123 O 0.84677 0.76613 0.89673 0.0
O124 O 0.85229 0.70416 0.05127 0.0
O125 O 0.85456 0.73808 0.01513 0.0
Co126 Co 0.0454 0.09612 0.7077 0.0
O127 O 0.05386 0.12636 0.69389 0.0
O128 O 0.07446 0.09764 0.66606 0.0
C129 C 0.03277 0.0996 0.8166 0.0
O130 O 0.04272 0.06257 0.71852 0.0
Co131 Co 0.99609 0.08367 0.7316 0.0
O132 O 0.0076 0.05366 0.74388 0.0
C133 C 0.01069 0.09733 0.5934 0.0
C134 C 0.07219 0.11884 0.66871 0.0
C135 C 0.02772 0.04841 0.73489 0.0
O136 O 0.03096 0.09606 0.61306 0.0
O137 O 0.99436 0.09449 0.63425 0.0
O138 O 0.05383 0.0981 0.8053 0.0
O139 O 0.02061 0.10165 0.76206 0.0
Co140 Co 0.66149 0.29781 0.45027 0.0
O141 O 0.63082 0.30517 0.43548 0.0
O142 O 0.65897 0.32586 0.40334 0.0
C143 C 0.65821 0.28719 0.5626 0.0
O144 O 0.69524 0.29627 0.4599 0.0
Co145 Co 0.67532 0.24969 0.48427 0.0
O146 O 0.70518 0.26238 0.49504 0.0
C147 C 0.66247 0.26128 0.3418 0.0
C148 C 0.63775 0.32315 0.40696 0.0
C149 C 0.70989 0.2821 0.47897 0.0
O150 O 0.66251 0.28182 0.35786 0.0
O151 O 0.66526 0.2459 0.38601 0.0
O152 O 0.65928 0.30788 0.54679 0.0
O153 O 0.65664 0.27408 0.51013 0.0
Co154 Co 0.46304 0.90915 0.20225 0.0
O155 O 0.45659 0.8781 0.19399 0.0
O156 O 0.43399 0.90491 0.16307 0.0
C157 C 0.47681 0.90783 0.31191 0.0
O158 O 0.46263 0.9428 0.20479 0.0
Co159 Co 0.51055 0.92666 0.22188 0.0
O160 O 0.49648 0.95597 0.228 0.0
C161 C 0.49689 0.9098 0.08546 0.0
C162 C 0.43767 0.884 0.16862 0.0
C163 C 0.47599 0.95879 0.21668 0.0
O164 O 0.47669 0.90901 0.10597 0.0
O165 O 0.51301 0.91457 0.12545 0.0
O166 O 0.45566 0.90846 0.30157 0.0
O167 O 0.48875 0.90624 0.25675 0.0
Co168 Co 0.85172 0.29742 0.53766 0.0
O169 O 0.88221 0.30396 0.55879 0.0
O170 O 0.85453 0.32689 0.57556 0.0
C171 C 0.85913 0.28255 0.43173 0.0
O172 O 0.81836 0.29712 0.51951 0.0
Co173 Co 0.83574 0.24976 0.5122 0.0
O174 O 0.80755 0.26347 0.48483 0.0
C175 C 0.84609 0.26464 0.65398 0.0
C176 C 0.87562 0.32317 0.57901 0.0
C177 C 0.80357 0.28358 0.49744 0.0
O178 O 0.84697 0.28469 0.6333 0.0
O179 O 0.84473 0.24839 0.61197 0.0
O180 O 0.85714 0.30367 0.43957 0.0
O181 O 0.8575 0.27152 0.48833 0.0
Co182 Co 0.46316 0.0992 0.27215 0.0
O183 O 0.45856 0.13048 0.28348 0.0
O184 O 0.43376 0.10507 0.3072 0.0
C185 C 0.4788 0.10054 0.16518 0.0
O186 O 0.46096 0.06579 0.26288 0.0
Co187 Co 0.50994 0.08027 0.26392 0.0
O188 O 0.49501 0.05124 0.26616 0.0
C189 C 0.49513 0.09887 0.39173 0.0
C190 C 0.43887 0.12579 0.30502 0.0
C191 C 0.47419 0.04928 0.26229 0.0
O192 O 0.47514 0.09674 0.37033 0.0
O193 O 0.51153 0.09776 0.35065 0.0
O194 O 0.45752 0.10147 0.17245 0.0
O195 O 0.48991 0.10132 0.22231 0.0
Co196 Co 0.66015 0.71419 0.02885 0.0
O197 O 0.62977 0.70658 0.04735 0.0
O198 O 0.65847 0.68583 0.07422 0.0
C199 C 0.65586 0.72524 0.91777 0.0
O200 O 0.69369 0.71605 0.01426 0.0
Co201 Co 0.67301 0.76274 -0.00408 0.0
O202 O 0.70281 0.75036 0.98133 0.0
C203 C 0.66253 0.75027 0.13922 0.0
C204 C 0.63721 0.68841 0.07334 0.0
C205 C 0.70794 0.7305 -0.0057 0.0
O206 O 0.66229 0.72981 0.12192 0.0
O207 O 0.66466 0.76594 0.09575 0.0
O208 O 0.65681 0.70447 0.93245 0.0
O209 O 0.6545 0.73814 0.97084 0.0
Co210 Co 0.04774 0.90691 0.78359 0.0
O211 O 0.05596 0.87646 0.79501 0.0
O212 O 0.07638 0.90476 0.8275 0.0
C213 C 0.03605 0.90395 0.67215 0.0
O214 O 0.04559 0.94053 0.77891 0.0
Co215 Co 0.99934 0.92094 0.75165 0.0
O216 O 0.01291 0.94991 0.73237 0.0
C217 C 0.01197 0.90863 0.89471 0.0
C218 C 0.07418 0.88361 0.82226 0.0
C219 C 0.03209 0.95489 0.75423 0.0
O220 O 0.0324 0.90693 0.87699 0.0
O221 O 0.99634 0.91251 0.85186 0.0
O222 O 0.05694 0.90572 0.68605 0.0
O223 O 0.02338 0.90198 0.72541 0.0
Co224 Co 0.66399 0.79726 0.52996 0.0
O225 O 0.63291 0.80357 0.54261 0.0
O226 O 0.65991 0.82568 0.57425 0.0
C227 C 0.66086 0.78516 0.41878 0.0
O228 O 0.69781 0.79718 0.5237 0.0
Co229 Co 0.68003 0.74973 0.49938 0.0
O230 O 0.70933 0.76387 0.48799 0.0
C231 C 0.66524 0.76156 0.64015 0.0
C232 C 0.63882 0.82211 0.57005 0.0
C233 C 0.71315 0.78376 0.50488 0.0
O234 O 0.66568 0.78204 0.62345 0.0
O235 O 0.66727 0.74622 0.59502 0.0
O236 O 0.66187 0.80608 0.43196 0.0
O237 O 0.65999 0.77267 0.47243 0.0
Co238 Co 0.46775 0.40542 0.76529 0.0
O239 O 0.46014 0.3751 0.783 0.0
O240 O 0.43953 0.40366 0.81212 0.0
C241 C 0.47811 0.40125 0.65319 0.0
O242 O 0.46943 0.43885 0.75244 0.0
Co243 Co 0.5161 0.4187 0.72931 0.0
O244 O 0.50363 0.44852 0.71862 0.0
C245 C 0.50446 0.4083 0.87367 0.0
C246 C 0.44198 0.38248 0.80997 0.0
C247 C 0.48374 0.45335 0.7334 0.0
O248 O 0.48387 0.40739 0.85743 0.0
O249 O 0.51993 0.41086 0.82939 0.0
O250 O 0.4574 0.40233 0.66968 0.0
O251 O 0.4915 0.39998 0.70516 0.0
Co252 Co 0.8496 0.21672 0.0391 0.0
O253 O 0.88019 0.20976 0.05531 0.0
O254 O 0.85229 0.18806 0.0821 0.0
C255 C 0.8531 0.22863 0.92936 0.0
O256 O 0.81589 0.21787 0.02631 0.0
Co257 Co 0.83507 0.26508 0.01078 0.0
O258 O 0.80566 0.25213 -0.00397 0.0
C259 C 0.84829 0.25208 0.15128 0.0
C260 C 0.87349 0.19118 0.0805 0.0
C261 C 0.80119 0.23203 0.00721 0.0
O262 O 0.84838 0.23173 0.13273 0.0
O263 O 0.84477 0.2679 0.10928 0.0
O264 O 0.85253 0.20773 0.94223 0.0
O265 O 0.85431 0.24122 0.98321 0.0
Co266 Co 0.04975 0.59693 0.28321 0.0
O267 O 0.05396 0.62839 0.29291 0.0
O268 O 0.07883 0.60308 0.31888 0.0
C269 C 0.03432 0.59758 0.17618 0.0
O270 O 0.05325 0.56357 0.27764 0.0
Co271 Co 1.00425 0.57467 0.27033 0.0
O272 O 0.02051 0.54658 0.26861 0.0
C273 C 0.01716 0.59482 0.40196 0.0
C274 C 0.07357 0.62368 0.31571 0.0
C275 C 0.04143 0.54616 0.27168 0.0
O276 O 0.03724 0.59601 0.38049 0.0
O277 O 1.00119 0.58855 0.36359 0.0
O278 O 0.0556 0.59876 0.18348 0.0
O279 O 0.02302 0.59774 0.23291 0.0
Co280 Co 0.65953 0.21456 0.95105 0.0
O281 O 0.62851 0.20862 0.93602 0.0
O282 O 0.65558 0.18638 0.90556 0.0
C283 C 0.65604 0.22614 0.06269 0.0
O284 O 0.69319 0.21403 0.9602 0.0
Co285 Co 0.67609 0.26171 0.98528 0.0
O286 O 0.70469 0.24664 0.0018 0.0
C287 C 0.66236 0.25087 0.84249 0.0
C288 C 0.63449 0.19002 0.90907 0.0
C289 C 0.7084 0.22686 0.98336 0.0
O290 O 0.66224 0.23027 0.85821 0.0
O291 O 0.66442 0.26596 0.88849 0.0
O292 O 0.6565 0.20528 0.04833 0.0
O293 O 0.65562 0.23889 0.00959 0.0
Co294 Co 0.05032 0.40781 0.20007 0.0
O295 O 0.05367 0.37638 0.18673 0.0
O296 O 0.07925 0.40119 0.16376 0.0
C297 C 0.03496 0.40641 0.30778 0.0
O298 O 0.05459 0.441 0.2098 0.0
Co299 Co 1.00523 0.43062 0.21524 0.0
O300 O 0.02199 0.45847 0.20743 0.0
C301 C 0.0179 0.41274 0.08115 0.0
C302 C 0.0735 0.38069 0.16513 0.0
C303 C 0.04294 0.45863 0.20981 0.0
O304 O 0.03794 0.41079 0.10248 0.0
O305 O 1.00188 0.41793 0.12072 0.0
O306 O 0.05616 0.40462 0.2998 0.0
O307 O 0.02366 0.40712 0.25106 0.0
Co308 Co 0.8547 0.79518 0.45681 0.0
O309 O 0.88508 0.80267 0.43719 0.0
O310 O 0.85634 0.82332 0.41007 0.0
C311 C 0.85942 0.78472 0.56855 0.0
O312 O 0.82114 0.79355 0.47213 0.0
Co313 Co 0.84156 0.74696 0.49245 0.0
O314 O 0.81171 0.75939 0.50549 0.0
C315 C 0.85193 0.7586 0.34833 0.0
C316 C 0.8776 0.82075 0.41065 0.0
C317 C 0.80673 0.77925 0.49208 0.0
O318 O 0.85231 0.77913 0.36462 0.0
O319 O 0.84975 0.74316 0.39259 0.0
O320 O 0.85839 0.80537 0.55246 0.0
O321 O 0.8604 0.77147 0.51622 0.0
Co322 Co 0.46554 0.59559 0.70941 0.0
O323 O 0.459 0.62636 0.69644 0.0
O324 O 0.43724 0.59919 0.66391 0.0
C325 C 0.47661 0.59885 0.82147 0.0
O326 O 0.46584 0.56192 0.7143 0.0
Co327 Co 0.51277 0.57929 0.74547 0.0
O328 O 0.49854 0.5501 0.75477 0.0
C329 C 0.50261 0.59511 0.60429 0.0
C330 C 0.44051 0.62023 0.66847 0.0
C331 C 0.47887 0.5465 0.73459 0.0
O332 O 0.48177 0.59483 0.61756 0.0
O333 O 0.51745 0.59201 0.65053 0.0
O334 O 0.45576 0.59741 0.80653 0.0
O335 O 0.4897 0.59972 0.76902 0.0
Co336 Co 0.34948 0.21491 0.4409 0.0
O337 O 0.38021 0.20885 0.42318 0.0
O338 O 0.35281 0.18672 0.39493 0.0
C339 C 0.35344 0.22585 0.55195 0.0
O340 O 0.31574 0.21502 0.45356 0.0
Co341 Co 0.33345 0.26234 0.47544 0.0
O342 O 0.30431 0.24856 0.4878 0.0
C343 C 0.34677 0.25122 0.33297 0.0
C344 C 0.37393 0.1903 0.39642 0.0
C345 C 0.30052 0.22852 0.47333 0.0
O346 O 0.34769 0.23074 0.34925 0.0
O347 O 0.34261 0.26648 0.37673 0.0
O348 O 0.35297 0.2051 0.53652 0.0
O349 O 0.35381 0.23904 0.49962 0.0
Co350 Co 0.5467 0.60172 0.21162 0.0
O351 O 0.55412 0.6321 0.19421 0.0
O352 O 0.57501 0.60377 0.16521 0.0
C353 C 0.53608 0.60579 0.32346 0.0
O354 O 0.54507 0.56824 0.22449 0.0
Co355 Co 0.49822 0.58844 0.24644 0.0
O356 O 0.51073 0.55864 0.25733 0.0
C357 C 0.51024 0.59897 0.10256 0.0
C358 C 0.57239 0.62494 0.16739 0.0
C359 C 0.53067 0.55377 0.24322 0.0
O360 O 0.5308 0.5997 0.11922 0.0
O361 O 0.49465 0.59651 0.14649 0.0
O362 O 0.55684 0.60486 0.30749 0.0
O363 O 0.52282 0.60703 0.27117 0.0
Co364 Co 0.16153 0.79262 0.94968 0.0
O365 O 0.13142 0.80116 0.93174 0.0
O366 O 0.16054 0.82212 0.91191 0.0
C367 C 0.15417 0.77861 0.05645 0.0
O368 O 0.19503 0.78986 0.96372 0.0
Co369 Co 0.17512 0.74439 0.97519 0.0
O370 O 0.20275 0.75717 0.01174 0.0
C371 C 0.16488 0.75942 0.83307 0.0
C372 C 0.13925 0.81974 0.91049 0.0
C373 C 0.20844 0.77639 -0.0065 0.0
O374 O 0.1637 0.7795 0.85359 0.0
O375 O 0.16789 0.74314 0.87376 0.0
O376 O 0.1578 0.79947 0.04804 0.0
O377 O 0.15448 0.76726 -2e-05 0.0
Co378 Co 0.96566 0.41375 0.70013 0.0
O379 O 0.95796 0.38302 0.69366 0.0
O380 O 0.9362 0.41037 0.66264 0.0
C381 C 0.97993 0.41204 0.80839 0.0
O382 O 0.96694 0.44755 0.69977 0.0
Co383 Co 0.01401 0.4295 0.71876 0.0
O384 O 1.00109 0.45931 0.72601 0.0
C385 C 0.9992 0.41185 0.58407 0.0
C386 C 0.93917 0.38932 0.66824 0.0
C387 C 0.98091 0.46303 0.71232 0.0
O388 O 0.979 0.41206 0.60448 0.0
O389 O 0.01555 0.41631 0.62355 0.0
O390 O 0.95876 0.41397 0.79964 0.0
O391 O 0.99144 0.40987 0.75272 0.0
Co392 Co 0.35073 0.79329 0.03359 0.0
O393 O 0.38119 0.80119 0.04802 0.0
O394 O 0.3527 0.82139 0.08092 0.0
C395 C 0.354 0.78283 0.92134 0.0
O396 O 0.31708 0.79071 0.0242 0.0
Co397 Co 0.33907 0.74443 -0.00106 0.0
O398 O 0.30873 0.75616 0.99081 0.0
C399 C 0.35224 0.75666 0.14024 0.0
C400 C 0.37398 0.81907 0.07676 0.0
C401 C 0.30309 0.77576 0.00612 0.0
O402 O 0.35023 0.77717 0.12534 0.0
O403 O 0.35099 0.74127 0.09513 0.0
O404 O 0.35248 0.80351 0.93719 0.0
O405 O 0.35615 0.76985 0.9736 0.0
Co406 Co 0.96784 0.6036 0.77905 0.0
O407 O 0.96045 0.63387 0.79931 0.0
O408 O 0.93767 0.60579 0.81185 0.0
C409 C 0.98444 0.61071 0.67574 0.0
O410 O 0.96875 0.5703 0.76045 0.0
Co411 Co 0.01617 0.5879 0.76313 0.0
O412 O 1.0032 0.55975 0.73288 0.0
C413 C 0.99903 0.59975 0.90056 0.0
C414 C 0.94106 0.62681 0.81666 0.0
C415 C 0.9828 0.5556 0.74077 0.0
O416 O 0.97918 0.59999 0.87692 0.0
O417 O 0.01608 0.59737 0.86241 0.0
O418 O 0.96314 0.60863 0.68004 0.0
O419 O 0.99462 0.60946 0.73423 0.0
Co420 Co 0.15968 0.21024 0.54348 0.0
O421 O 0.12924 0.20274 0.56157 0.0
O422 O 0.15757 0.18058 0.57911 0.0
C423 C 0.15269 0.22552 0.43875 0.0
O424 O 0.19317 0.21107 0.52817 0.0
Co425 Co 0.17626 0.25778 0.51993 0.0
O426 O 0.20349 0.24384 0.48579 0.0
C427 C 0.1641 0.24298 0.66059 0.0
C428 C 0.13639 0.18365 0.58109 0.0
C429 C 0.20766 0.22403 0.50147 0.0
O430 O 0.16238 0.22294 0.63978 0.0
O431 O 0.1682 0.25912 0.6203 0.0
O432 O 0.15529 0.20439 0.44486 0.0
O433 O 0.15395 0.23635 0.49595 0.0
Co434 Co 0.54874 0.41138 0.26762 0.0
O435 O 0.556 0.38059 0.27876 0.0
O436 O 0.57666 0.40819 0.31554 0.0
C437 C 0.53823 0.40853 0.15483 0.0
O438 O 0.54796 0.44508 0.26442 0.0
Co439 Co 0.50156 0.42736 0.23013 0.0
O440 O 0.51552 0.45673 0.22174 0.0
C441 C 0.5111 0.4113 0.37138 0.0
C442 C 0.57393 0.38714 0.30916 0.0
C443 C 0.535 0.46045 0.24337 0.0
O444 O 0.53198 0.4114 0.35867 0.0
O445 O 0.49642 0.41464 0.32481 0.0
O446 O 0.55899 0.41029 0.17078 0.0
O447 O 0.52493 0.4072 0.20662 0.0
C448 C 0.26722 0.2881 0.92981 0.0
C449 C 0.28088 0.2879 0.98963 0.0
C450 C 0.24831 0.28821 0.06506 0.0
C451 C 0.2347 0.28683 0.00528 0.0
N452 N 0.23021 0.29176 0.88252 0.0
N453 N 0.2851 0.29392 0.1121 0.0
C454 C 0.24391 0.28902 0.93812 0.0
C455 C 0.27156 0.29014 0.05668 0.0
N456 N 0.27645 0.28596 0.86544 0.0
N457 N 0.23914 0.28624 0.12952 0.0
H458 H 0.30216 0.29541 0.10669 0.0
H459 H 0.27946 0.2975 0.16186 0.0
H460 H 0.22216 0.28547 0.13747 0.0
H461 H 0.24825 0.28443 0.17489 0.0
H462 H 0.26741 0.28326 0.82034 0.0
H463 H 0.29344 0.28589 0.85736 0.0
H464 H 0.2357 0.29525 0.83258 0.0
H465 H 0.21311 0.29251 0.88792 0.0
C466 C 0.9605 0.99587 0.21509 0.0
C467 C 0.96783 0.98615 0.27752 0.0
C468 C 0.97148 0.02264 0.33025 0.0
C469 C 0.9691 0.03216 0.26353 0.0
N470 N 0.96114 0.028 0.14129 0.0
N471 N 0.9772 0.98947 0.39801 0.0
C472 C 0.96296 0.01891 0.20583 0.0
C473 C 0.97203 0.99936 0.33661 0.0
N474 N 0.95133 0.98297 0.1648 0.0
N475 N 0.97328 0.036 0.38705 0.0
H476 H 0.97583 0.97253 0.40464 0.0
H477 H 0.98304 0.99778 0.4415 0.0
H478 H 0.97259 0.05308 0.38328 0.0
H479 H 0.97365 0.03036 0.43795 0.0
H480 H 0.94407 0.98916 0.11997 0.0
H481 H 0.9489 0.96618 0.17189 0.0
H482 H 0.95946 0.01876 0.09607 0.0
H483 H 0.96266 0.04477 0.13213 0.0
C484 C 0.24698 0.70612 0.51134 0.0
C485 C 0.2366 0.71876 0.45935 0.0
C486 C 0.27279 0.72959 0.4149 0.0
C487 C 0.2829 0.72118 0.47626 0.0
N488 N 0.27874 0.70242 0.58626 0.0
N489 N 0.23915 0.74116 0.35735 0.0
C490 C 0.26988 0.70925 0.52481 0.0
C491 C 0.24944 0.72977 0.40915 0.0
N492 N 0.23491 0.69116 0.5476 0.0
N493 N 0.28551 0.73736 0.36191 0.0
H494 H 0.22219 0.74021 0.34886 0.0
H495 H 0.24716 0.75215 0.32469 0.0
H496 H 0.30259 0.73804 0.36437 0.0
H497 H 0.27933 0.74149 0.31327 0.0
H498 H 0.24183 0.68018 0.58277 0.0
H499 H 0.21841 0.6881 0.53595 0.0
H500 H 0.26932 0.69587 0.62636 0.0
H501 H 0.29511 0.70499 0.6001 0.0
C502 C 0.52499 0.01874 0.66849 0.0
C503 C 0.53409 0.02939 0.7279 0.0
C504 C 0.54888 0.9937 0.76605 0.0
C505 C 0.53583 0.98291 0.71534 0.0
N506 N 0.51145 0.98509 0.6169 0.0
N507 N 0.55343 0.0262 0.83731 0.0
C508 C 0.52413 0.99546 0.66566 0.0
C509 C 0.54609 0.01674 0.77725 0.0
N510 N 0.51729 0.03089 0.61414 0.0
N511 N 0.56386 0.98198 0.80358 0.0
H512 H 0.55134 0.04275 0.84899 0.0
H513 H 0.55994 0.01722 0.87841 0.0
H514 H 0.56664 0.96532 0.79487 0.0
H515 H 0.57515 0.98921 0.83733 0.0
H516 H 0.51297 0.02417 0.56628 0.0
H517 H 0.51704 0.04793 0.61445 0.0
H518 H 0.50012 0.99317 0.58541 0.0
H519 H 0.51133 0.96811 0.61048 0.0
C520 C 0.74388 0.7134 0.03604 0.0
C521 C 0.73153 0.72424 0.98338 0.0
C522 C 0.76572 0.73039 0.91744 0.0
C523 C 0.77787 0.72068 0.97188 0.0
N524 N 0.77794 0.69451 0.06424 0.0
N525 N 0.73019 0.73741 0.86504 0.0
C526 C 0.76674 0.70943 0.02528 0.0
C527 C 0.74232 0.73088 0.92105 0.0
N528 N 0.73438 0.70829 0.09821 0.0
N529 N 0.77675 0.73961 0.86303 0.0
H530 H 0.71309 0.73831 0.86581 0.0
H531 H 0.73682 0.74026 0.81609 0.0
H532 H 0.79365 0.7374 0.85604 0.0
H533 H 0.76941 0.7497 0.82613 0.0
H534 H 0.74338 0.7025 0.14043 0.0
H535 H 0.718 0.71167 0.11011 0.0
H536 H 0.77044 0.68461 0.10137 0.0
H537 H 0.79405 0.69003 0.05182 0.0
C538 C 0.05072 0.98982 0.71603 0.0
C539 C 0.03667 0.97873 0.76276 0.0
C540 C 0.02383 0.01422 0.80676 0.0
C541 C 0.03355 0.02491 0.7485 0.0
N542 N 0.05512 0.02172 0.64301 0.0
N543 N 0.01013 0.98031 0.85557 0.0
C544 C 0.04705 0.01251 0.70233 0.0
C545 C 0.02351 0.99096 0.80956 0.0
N546 N 0.06775 0.97881 0.68579 0.0
N547 N 0.01517 0.02623 0.86016 0.0
H548 H 0.01041 0.96333 0.86211 0.0
H549 H 0.99797 0.98817 0.88455 0.0
H550 H 0.01488 0.04327 0.86061 0.0
H551 H 0.01023 0.01938 0.90712 0.0
H552 H 0.07948 0.98642 0.65456 0.0
H553 H 0.0717 0.96279 0.70008 0.0
H554 H 0.06311 0.01261 0.60469 0.0
H555 H 0.05206 0.03788 0.62856 0.0
C556 C 0.74615 0.29262 0.42378 0.0
C557 C 0.73356 0.28855 0.48467 0.0
C558 C 0.76741 0.29027 0.55494 0.0
C559 C 0.78011 0.29045 0.49335 0.0
N560 N 0.78235 0.29255 0.36912 0.0
N561 N 0.73227 0.28227 0.60833 0.0
C562 C 0.76967 0.29222 0.42772 0.0
C563 C 0.7442 0.28739 0.55045 0.0
N564 N 0.73567 0.29624 0.36206 0.0
N565 N 0.77762 0.29236 0.61788 0.0
H566 H 0.71527 0.2802 0.60752 0.0
H567 H 0.73927 0.27849 0.65616 0.0
H568 H 0.79464 0.29393 0.62311 0.0
H569 H 0.76918 0.29459 0.6644 0.0
H570 H 0.74368 0.30129 0.31713 0.0
H571 H 0.71861 0.29561 0.35653 0.0
H572 H 0.77611 0.29115 0.31902 0.0
H573 H 0.79952 0.29344 0.371 0.0
C574 C 0.47462 0.99665 0.16638 0.0
C575 C 0.46775 0.98176 0.21849 0.0
C576 C 0.45797 0.01259 0.29447 0.0
C577 C 0.46593 0.02722 0.24346 0.0
N578 N 0.4727 0.03385 0.12261 0.0
N579 N 0.44518 0.97571 0.31964 0.0
C580 C 0.47104 0.0194 0.17633 0.0
C581 C 0.45672 0.98978 0.27843 0.0
N582 N 0.48559 0.98923 0.10917 0.0
N583 N 0.45265 0.02034 0.35881 0.0
H584 H 0.44329 0.95916 0.30716 0.0
H585 H 0.43564 0.98088 0.36155 0.0
H586 H 0.45278 0.03707 0.3706 0.0
H587 H 0.44913 0.01017 0.40074 0.0
H588 H 0.49306 0.99958 0.07323 0.0
H589 H 0.4885 0.97263 0.10047 0.0
H590 H 0.47497 0.02902 0.07121 0.0
H591 H 0.46923 0.05051 0.12908 0.0
C592 C 0.74878 0.78023 0.56833 0.0
C593 C 0.73677 0.78988 0.51343 0.0
C594 C 0.77094 0.79646 0.44921 0.0
C595 C 0.78314 0.7857 0.50245 0.0
N596 N 0.78417 0.77264 0.62095 0.0
N597 N 0.73704 0.81539 0.4192 0.0
C598 C 0.77219 0.77933 0.56481 0.0
C599 C 0.74808 0.80069 0.45943 0.0
N600 N 0.73759 0.77146 0.62317 0.0
N601 N 0.78059 0.80121 0.38699 0.0
H602 H 0.7209 0.82001 0.43078 0.0
H603 H 0.74466 0.82501 0.3816 0.0
H604 H 0.79697 0.79764 0.37554 0.0
H605 H 0.77173 0.80689 0.34432 0.0
H606 H 0.74471 0.76137 0.66048 0.0
H607 H 0.72074 0.77402 0.63016 0.0
H608 H 0.77747 0.76992 0.66986 0.0
H609 H 0.80125 0.77136 0.62037 0.0
C610 C 0.46708 0.48826 0.78332 0.0
C611 C 0.47726 0.47693 0.72706 0.0
C612 C 0.48182 0.51199 0.66542 0.0
C613 C 0.47276 0.52312 0.7232 0.0
N614 N 0.44835 0.52149 0.82047 0.0
N615 N 0.48923 0.4775 0.60728 0.0
C616 C 0.46265 0.51111 0.77692 0.0
C617 C 0.48295 0.48866 0.66561 0.0
N618 N 0.46309 0.47781 0.84469 0.0
N619 N 0.48988 0.52393 0.61114 0.0
H620 H 0.49077 0.46052 0.60559 0.0
H621 H 0.49139 0.48479 0.55899 0.0
H622 H 0.48714 0.54078 0.60696 0.0
H623 H 0.49952 0.51743 0.57145 0.0
H624 H 0.4579 0.48602 0.88926 0.0
H625 H 0.46685 0.46137 0.85339 0.0
H626 H 0.43921 0.51338 0.85828 0.0
H627 H 0.44345 0.53763 0.81141 0.0
C628 C 0.74444 0.23066 0.92346 0.0
C629 C 0.73196 0.22054 0.97624 0.0
C630 C 0.76541 0.21347 0.04351 0.0
C631 C 0.77798 0.22509 -0.0068 0.0
N632 N 0.78024 0.2395 0.87634 0.0
N633 N 0.73141 0.19381 0.06683 0.0
C634 C 0.76772 0.23192 0.93009 0.0
C635 C 0.74273 0.20918 0.03017 0.0
N636 N 0.73376 0.23961 0.86788 0.0
N637 N 0.77448 0.20786 0.10587 0.0
H638 H 0.71558 0.18907 0.05195 0.0
H639 H 0.73864 0.18382 0.10427 0.0
H640 H 0.79075 0.21126 0.11925 0.0
H641 H 0.76527 0.20148 0.14673 0.0
H642 H 0.74112 0.25004 0.83202 0.0
H643 H 0.71705 0.23679 0.8587 0.0
H644 H 0.77417 0.24249 0.82676 0.0
H645 H 0.79721 0.24137 0.87957 0.0
C646 C 0.05497 0.48644 0.29612 0.0
C647 C 0.05337 0.48 0.22561 0.0
C648 C 0.05693 0.51832 0.1906 0.0
C649 C 0.05214 0.52468 0.25977 0.0
N650 N 0.049 0.51551 0.38053 0.0
N651 N 0.05581 0.48904 0.10478 0.0
C652 C 0.05237 0.50895 0.31356 0.0
C653 C 0.05574 0.49573 0.17241 0.0
N654 N 0.05865 0.47096 0.34583 0.0
N655 N 0.06234 0.5339 0.14281 0.0
H656 H 0.05632 0.47245 0.0912 0.0
H657 H 0.05481 0.49974 0.06285 0.0
H658 H 0.0639 0.55043 0.15618 0.0
H659 H 0.06729 0.53027 0.09235 0.0
H660 H 0.06132 0.47468 0.39792 0.0
H661 H 0.06119 0.45449 0.33326 0.0
H662 H 0.04639 0.50467 0.42139 0.0
H663 H 0.04806 0.53206 0.39445 0.0
C664 C 0.26717 0.22292 0.54884 0.0
C665 C 0.27732 0.22093 0.48243 0.0
C666 C 0.24092 0.21466 0.42982 0.0
C667 C 0.23105 0.21713 0.49608 0.0
N668 N 0.23497 0.2165 0.62026 0.0
N669 N 0.2744 0.21044 0.36182 0.0
C670 C 0.24432 0.21861 0.55612 0.0
C671 C 0.26438 0.215 0.4237 0.0
N672 N 0.27899 0.23039 0.60442 0.0
N673 N 0.22771 0.21299 0.37259 0.0
H674 H 0.29136 0.21153 0.3545 0.0
H675 H 0.26613 0.2041 0.31892 0.0
H676 H 0.21061 0.21156 0.37633 0.0
H677 H 0.23347 0.21384 0.3218 0.0
H678 H 0.27188 0.23483 0.65159 0.0
H679 H 0.29569 0.23401 0.60186 0.0
H680 H 0.2441 0.21528 0.66586 0.0
H681 H 0.21819 0.21366 0.62728 0.0
C682 C 0.55163 0.49578 0.20164 0.0
C683 C 0.54104 0.48389 0.25473 0.0
C684 C 0.53084 0.5185 0.31139 0.0
C685 C 0.53702 0.53015 0.25022 0.0
N686 N 0.55189 0.52901 0.1335 0.0
N687 N 0.52321 0.48334 0.36566 0.0
C688 C 0.54744 0.51866 0.19472 0.0
C689 C 0.5317 0.49515 0.31178 0.0
N690 N 0.56619 0.48527 0.15928 0.0
N691 N 0.52436 0.52976 0.36932 0.0
H692 H 0.52582 0.46648 0.37022 0.0
H693 H 0.51336 0.48996 0.40464 0.0
H694 H 0.52307 0.54676 0.3709 0.0
H695 H 0.5218 0.52251 0.41747 0.0
H696 H 0.57567 0.4933 0.1221 0.0
H697 H 0.57093 0.46911 0.16884 0.0
H698 H 0.55729 0.5207 0.08935 0.0
H699 H 0.54832 0.54546 0.12438 0.0
C700 C 0.2683 0.7744 0.93692 0.0
C701 C 0.27916 0.78104 -0.00116 0.0
C702 C 0.24313 0.79102 0.04888 0.0
C703 C 0.23249 0.7808 -0.00815 0.0
N704 N 0.23506 0.75998 0.88548 0.0
N705 N 0.27663 0.79418 0.11708 0.0
C706 C 0.2451 0.77197 0.93654 0.0
C707 C 0.26655 0.78937 0.05547 0.0
N708 N 0.28022 0.77034 0.87814 0.0
N709 N 0.2308 0.80196 0.0971 0.0
H710 H 0.29356 0.79286 0.12469 0.0
H711 H 0.26804 0.79792 0.16235 0.0
H712 H 0.21366 0.80298 0.09383 0.0
H713 H 0.23761 0.8115 0.13653 0.0
H714 H 0.27306 0.76791 0.82957 0.0
H715 H 0.29731 0.77144 0.87667 0.0
H716 H 0.24368 0.75098 0.84833 0.0
H717 H 0.21811 0.75737 0.88382 0.0
C718 C 0.96251 0.49646 0.76317 0.0
C719 C 0.97416 0.48653 0.7077 0.0
C720 C 0.98224 0.52312 0.6611 0.0
C721 C 0.97559 0.53266 0.7251 0.0
N722 N 0.95955 0.52805 0.83906 0.0
N723 N 0.99364 0.49019 0.59961 0.0
C724 C 0.96529 0.51934 0.77624 0.0
C725 C 0.98333 0.49985 0.65483 0.0
N726 N 0.94875 0.48407 0.803 0.0
N727 N 0.98732 0.5364 0.60633 0.0
H728 H 0.99346 0.47325 0.5915 0.0
H729 H 1.00301 0.49881 0.56356 0.0
H730 H 0.98606 0.55347 0.60919 0.0
H731 H 0.99059 0.53058 0.55656 0.0
H732 H 0.93852 0.49068 0.84109 0.0
H733 H 0.94569 0.46759 0.79204 0.0
H734 H 0.95452 0.51851 0.88096 0.0
H735 H 0.96126 0.54461 0.8512 0.0
C736 C 0.1647 0.24229 0.85771 0.0
C737 C 0.15446 0.26277 0.87221 0.0
C738 C 0.144 0.26513 0.74962 0.0
C739 C 0.15952 0.24837 0.734 0.0
N740 N 0.18662 0.22227 0.77471 0.0
N741 N 0.13041 0.29175 0.83262 0.0
C742 C 0.17041 0.23721 0.7884 0.0
C743 C 0.14296 0.2737 0.81819 0.0
N744 N 0.1674 0.22688 0.90817 0.0
N745 N 0.12948 0.27199 0.69986 0.0
H746 H 0.12591 0.29616 0.88299 0.0
H747 H 0.12451 0.30234 0.79455 0.0
H748 H 0.12888 0.26513 0.65025 0.0
H749 H 0.11651 0.28274 0.70962 0.0
H750 H 0.17403 0.2114 0.89825 0.0
H751 H 0.15917 0.22776 0.95541 0.0
H752 H 0.19633 0.21541 0.8137 0.0
H753 H 0.19179 0.21837 0.72463 0.0
C754 C 0.00897 0.92683 0.01035 0.0
C755 C 1.00588 0.90781 0.96915 0.0
C756 C 0.98503 0.89069 0.06409 0.0
C757 C 0.98585 0.91079 0.10151 0.0
N758 N 0.99447 0.94929 0.1029 0.0
N759 N 0.98999 0.87194 0.9537 0.0
C760 C 0.99685 0.92917 0.07286 0.0
C761 C 0.99363 0.88978 -0.00478 0.0
N762 N 0.02334 0.94278 0.98961 0.0
N763 N 0.97655 0.87237 0.09497 0.0
H764 H 0.99721 0.87021 0.90483 0.0
H765 H 0.97906 0.85938 0.96611 0.0
H766 H 0.96978 0.87253 0.14472 0.0
H767 H 0.97759 0.85672 0.07347 0.0
H768 H 0.02783 0.956 0.02094 0.0
H769 H 0.03244 0.94174 0.94385 0.0
H770 H 1.00028 0.9638 0.08113 0.0
H771 H 0.98415 0.95168 0.14511 0.0
C772 C 0.34111 0.72421 0.30333 0.0
C773 C 0.35808 0.73179 0.34847 0.0
C774 C 0.3717 0.75621 0.25606 0.0
C775 C 0.35366 0.74983 0.21385 0.0
N776 N 0.31821 0.73232 0.20393 0.0
N777 N 0.38907 0.75588 0.36939 0.0
C778 C 0.3376 0.73504 0.23928 0.0
C779 C 0.3731 0.74824 0.3255 0.0
N780 N 0.32799 0.70688 0.32123 0.0
N781 N 0.38813 0.76885 0.22858 0.0
H782 H 0.39266 0.74867 0.41704 0.0
H783 H 0.39836 0.7699 0.35968 0.0
H784 H 0.3877 0.77494 0.17809 0.0
H785 H 0.40296 0.7721 0.2537 0.0
H786 H 0.31798 0.69872 0.28562 0.0
H787 H 0.32729 0.70008 0.37055 0.0
H788 H 0.30489 0.72346 0.22322 0.0
H789 H 0.31443 0.74088 0.15863 0.0
C790 C 0.52916 0.08615 0.54875 0.0
C791 C 0.52286 0.1035 0.59402 0.0
C792 C 0.49324 0.11409 0.51371 0.0
C793 C 0.50072 0.09796 0.46658 0.0
N794 N 0.51942 0.06362 0.44969 0.0
N795 N 0.50168 0.13651 0.61409 0.0
C796 C 0.51695 0.08258 0.48712 0.0
C797 C 0.50546 0.11802 0.57543 0.0
N798 N 0.54688 0.0731 0.5636 0.0
N799 N 0.47397 0.12488 0.50121 0.0
H800 H 0.51109 0.14075 0.65737 0.0
H801 H 0.49085 0.14889 0.59926 0.0
H802 H 0.4639 0.12097 0.45933 0.0
H803 H 0.46654 0.1355 0.53655 0.0
H804 H 0.55429 0.06284 0.52714 0.0
H805 H 0.55471 0.07262 0.61153 0.0
H806 H 0.52926 0.05053 0.46523 0.0
H807 H 0.50956 0.05991 0.40684 0.0
C808 C 0.18328 0.74995 0.72253 0.0
C809 C 0.16349 0.75434 0.75833 0.0
C810 C 0.14237 0.73995 0.65985 0.0
C811 C 0.16237 0.7326 0.62925 0.0
N812 N 0.20147 0.72669 0.63907 0.0
N813 N 0.12392 0.75317 0.7639 0.0
C814 C 0.18274 0.73648 0.66279 0.0
C815 C 0.14288 0.74938 0.72758 0.0
N816 N 0.20247 0.75925 0.74472 0.0
N817 N 0.123 0.73792 0.62422 0.0
H818 H 0.12383 0.76107 0.81204 0.0
H819 H 0.10848 0.7477 0.74796 0.0
H820 H 0.12188 0.73002 0.57625 0.0
H821 H 0.10827 0.74506 0.64035 0.0
H822 H 0.21729 0.75788 0.71776 0.0
H823 H 0.20272 0.77068 0.7851 0.0
H824 H 0.21655 0.72757 0.66483 0.0
H825 H 0.20117 0.71557 0.59816 0.0
C826 C 0.51037 0.88754 0.98365 0.0
C827 C 0.50216 0.90759 0.01069 0.0
C828 C 0.51799 0.92748 0.91315 0.0
C829 C 0.52493 0.90748 0.88277 0.0
N830 N 0.52512 0.86791 0.88385 0.0
N831 N 0.49178 0.94499 0.98965 0.0
C832 C 0.52021 0.88726 0.91629 0.0
C833 C 0.50388 0.92702 0.97147 0.0
N834 N 0.50916 0.86897 0.02299 0.0
N835 N 0.52584 0.94692 0.88884 0.0
H836 H 0.48019 0.94437 0.02957 0.0
H837 H 0.49123 0.95925 0.95994 0.0
H838 H 0.53799 0.94746 0.85095 0.0
H839 H 0.52257 0.96199 0.9124 0.0
H840 H 0.51694 0.85431 0.0099 0.0
H841 H 0.50099 0.86862 0.07066 0.0
H842 H 0.52013 0.85266 0.90231 0.0
H843 H 0.53317 0.8672 0.83604 0.0
C844 C 0.35132 0.25027 0.13657 0.0
C845 C 0.36054 0.27124 0.12288 0.0
C846 C 0.36678 0.27543 0.24806 0.0
C847 C 0.35196 0.25777 0.26065 0.0
N848 N 0.32717 0.23047 0.21296 0.0
N849 N 0.38059 0.30251 0.16739 0.0
C850 C 0.34333 0.24577 0.20383 0.0
C851 C 0.36918 0.28359 0.17931 0.0
N852 N 0.35189 0.23393 0.08821 0.0
N853 N 0.37974 0.28335 0.30052 0.0
H854 H 0.38645 0.30683 0.11847 0.0
H855 H 0.38423 0.31384 0.20633 0.0
H856 H 0.37992 0.27662 0.3502 0.0
H857 H 0.3922 0.29484 0.29297 0.0
H858 H 0.34606 0.21816 0.09827 0.0
H859 H 0.36183 0.23484 0.04427 0.0
H860 H 0.31949 0.22265 0.17122 0.0
H861 H 0.31976 0.22746 0.2608 0.0
C862 C 0.98951 0.12019 0.50826 0.0
C863 C 1.00559 0.10366 0.52085 0.0
C864 C 0.01206 0.10139 0.39632 0.0
C865 C 0.99185 0.11237 0.38366 0.0
N866 N 0.96327 0.13609 0.4282 0.0
N867 N 0.03062 0.07649 0.47348 0.0
C868 C 0.98106 0.12291 0.43998 0.0
C869 C 0.01656 0.09371 0.46402 0.0
N870 N 0.9833 0.13408 0.56055 0.0
N871 N 0.02775 0.09979 0.34604 0.0
H872 H 0.03362 0.06941 0.52174 0.0
H873 H 0.03742 0.06782 0.43191 0.0
H874 H 0.02705 0.10917 0.30098 0.0
H875 H 0.04311 0.09265 0.35486 0.0
H876 H 0.97308 0.1476 0.55307 0.0
H877 H 0.99035 0.13366 0.60989 0.0
H878 H 0.95281 0.14151 0.46754 0.0
H879 H 0.95894 0.14153 0.37876 0.0
C880 C 0.83405 0.73166 0.18055 0.0
C881 C 0.85344 0.73332 0.13969 0.0
C882 C 0.87205 0.75268 0.23553 0.0
C883 C 0.85219 0.75207 0.27422 0.0
N884 N 0.81313 0.74537 0.2787 0.0
N885 N 0.89029 0.74744 0.12457 0.0
C886 C 0.83285 0.74283 0.24522 0.0
C887 C 0.87222 0.74459 0.16596 0.0
N888 N 0.81686 0.71912 0.15809 0.0
N889 N 0.89095 0.76004 0.26641 0.0
H890 H 0.8918 0.74029 0.07557 0.0
H891 H 0.90335 0.75776 0.1372 0.0
H892 H 0.8913 0.76635 0.31676 0.0
H893 H 0.90651 0.75867 0.24412 0.0
H894 H 0.80323 0.71526 0.18852 0.0
H895 H 0.81714 0.71099 0.11076 0.0
H896 H 0.79802 0.74111 0.25691 0.0
H897 H 0.8116 0.75374 0.32578 0.0
C898 C 0.01701 0.07747 -0.00517 0.0
C899 C 1.00127 0.09334 0.01581 0.0
C900 C 1.00593 0.11275 0.90596 0.0
C901 C 0.02277 0.09772 0.88655 0.0
N902 N 0.04582 0.06654 0.91557 0.0
N903 N 0.9742 0.11973 0.9783 0.0
C904 C 0.02877 0.08029 0.9318 0.0
C905 C 0.99369 0.10912 0.96763 0.0
N906 N 0.0193 0.05872 0.03309 0.0
N907 N 1.00267 0.13146 0.86821 0.0
H908 H 0.9636 0.11577 0.01865 0.0
H909 H 0.96697 0.13001 0.94167 0.0
H910 H 0.01214 0.13558 0.82504 0.0
H911 H 0.99236 0.14416 0.88429 0.0
H912 H 0.02868 0.04527 0.0176 0.0
H913 H 0.00966 0.05557 0.07683 0.0
H914 H 0.05317 0.05607 0.95138 0.0
H915 H 0.05312 0.06567 0.86686 0.0
C916 C 0.64384 0.26189 0.65484 0.0
C917 C 0.65884 0.27869 0.63534 0.0
C918 C 0.67752 0.275 0.74797 0.0
C919 C 0.66239 0.25828 0.76798 0.0
N920 N 0.63528 0.23161 0.73069 0.0
N921 N 0.68713 0.3045 0.67031 0.0
C922 C 0.64677 0.25046 0.71865 0.0
C923 C 0.67477 0.28626 0.68392 0.0
N924 N 0.62557 0.25806 0.61495 0.0
N925 N 0.69592 0.27873 0.78738 0.0
H926 H 0.68807 0.31204 0.62213 0.0
H927 H 0.69601 0.31284 0.70837 0.0
H928 H 0.69949 0.27003 0.83242 0.0
H929 H 0.70903 0.28851 0.77142 0.0
H930 H 0.61262 0.24796 0.6302 0.0
H931 H 0.62188 0.26704 0.57044 0.0
H932 H 0.62574 0.22377 0.69317 0.0
H933 H 0.63719 0.22221 0.77492 0.0
C934 C 0.4892 0.88753 0.419 0.0
C935 C 0.4868 0.90761 0.3825 0.0
C936 C 0.50844 0.92647 0.47186 0.0
C937 C 0.50806 0.90735 0.51308 0.0
N938 N 0.49742 0.86966 0.52876 0.0
N939 N 0.4894 0.94698 0.38394 0.0
C940 C 0.49831 0.88779 0.48733 0.0
C941 C 0.4953 0.92729 0.4113 0.0
N942 N 0.48296 0.86829 0.38822 0.0
N943 N 0.52114 0.94397 0.49093 0.0
H944 H 0.47772 0.94794 0.34494 0.0
H945 H 0.49351 0.96206 0.40606 0.0
H946 H 0.53122 0.94379 0.53473 0.0
H947 H 0.52342 0.95766 0.45944 0.0
H948 H 0.48631 0.85291 0.40909 0.0
H949 H 0.47563 0.86765 0.33927 0.0
H950 H 0.48837 0.85566 0.51656 0.0
H951 H 0.50506 0.86905 0.57727 0.0
C952 C 0.84421 0.24647 0.2804 0.0
C953 C 0.85377 0.25792 0.22408 0.0
C954 C 0.87134 0.28342 0.30602 0.0
C955 C 0.86143 0.27192 0.36193 0.0
N956 N 0.85081 0.23537 0.39803 0.0
N957 N 0.88299 0.28201 0.18586 0.0
C958 C 0.85156 0.25123 0.3484 0.0
C959 C 0.86927 0.27494 0.23747 0.0
N960 N 0.82771 0.2316 0.27013 0.0
N961 N 0.88345 0.3019 0.31841 0.0
H962 H 0.8832 0.275 0.13643 0.0
H963 H 0.89588 0.29298 0.19402 0.0
H964 H 0.88876 0.30639 0.36791 0.0
H965 H 0.88816 0.31273 0.27939 0.0
H966 H 0.81929 0.22432 0.31129 0.0
H967 H 0.82084 0.22836 0.2216 0.0
H968 H 0.84448 0.21974 0.38845 0.0
H969 H 0.8602 0.23635 0.44314 0.0
C970 C 0.50286 0.08446 0.07038 0.0
C971 C 0.48951 0.10194 0.09566 0.0
C972 C 0.49479 0.12125 0.98506 0.0
C973 C 0.50515 0.10226 0.95769 0.0
N974 N 0.51587 0.06435 0.97042 0.0
N975 N 0.47291 0.13749 0.07719 0.0
C976 C 0.50852 0.08355 -0.00064 0.0
C977 C 0.48551 0.12052 0.05292 0.0
N978 N 0.51045 0.0687 0.11398 0.0
N979 N 0.49446 0.1401 0.94677 0.0
H980 H 0.4676 0.13862 0.12853 0.0
H981 H 0.467 0.15008 0.04592 0.0
H982 H 0.50134 0.1411 0.89725 0.0
H983 H 0.4891 0.15518 0.96585 0.0
H984 H 0.52241 0.05719 0.10036 0.0
H985 H 0.50614 0.0684 0.16544 0.0
H986 H 0.51583 0.04943 -0.00332 0.0
H987 H 0.52013 0.06273 0.91825 0.0
C988 C 0.67476 0.7261 0.80014 0.0
C989 C 0.6582 0.73409 0.846 0.0
C990 C 0.64924 0.76344 0.76315 0.0
C991 C 0.66459 0.75457 0.7149 0.0
N992 N 0.69723 0.73257 0.69851 0.0
N993 N 0.62586 0.75652 0.86227 0.0
C994 C 0.67865 0.73711 0.73621 0.0
C995 C 0.64449 0.75177 0.82518 0.0
N996 N 0.68692 0.70798 0.81691 0.0
N997 N 0.64007 0.78361 0.75269 0.0
H998 H 0.62094 0.7476 0.90569 0.0
H999 H 0.61386 0.76749 0.84523 0.0
H1000 H 0.64436 0.79382 0.71196 0.0
H1001 H 0.63057 0.79166 0.78987 0.0
H1002 H 0.696 0.69907 0.78066 0.0
H1003 H 0.68784 0.70134 0.86642 0.0
H1004 H 0.70965 0.72201 0.71493 0.0
H1005 H 0.7017 0.74131 0.65434 0.0
C1006 C 1.00431 0.8915 0.50468 0.0
C1007 C 0.0069 0.91164 0.46891 0.0
C1008 C 0.03028 0.92578 0.56256 0.0
C1009 C 0.02681 0.90617 0.6008 0.0
N1010 N 0.00874 0.87102 0.6117 0.0
N1011 N 0.01755 0.94972 0.471 0.0
C1012 C 0.01309 0.8893 0.57309 0.0
C1013 C 0.01847 0.92928 0.5001 0.0
N1014 N 0.99449 0.87413 0.47194 0.0
N1015 N 0.04514 0.94104 0.58487 0.0
H1016 H 0.009 0.953 0.42528 0.0
H1017 H 0.02334 0.96383 0.49556 0.0
H1018 H 0.05384 0.93956 0.63083 0.0
H1019 H 0.05029 0.95428 0.5549 0.0
H1020 H 0.9943 0.85825 0.49165 0.0
H1021 H 0.98765 0.87525 0.42243 0.0
H1022 H 0.99672 0.85955 0.59865 0.0
H1023 H 0.01649 0.86769 0.6588 0.0
C1024 C 0.68052 0.77731 0.30633 0.0
C1025 C 0.66112 0.77587 0.34721 0.0
C1026 C 0.64256 0.75594 0.25245 0.0
C1027 C 0.66238 0.75651 0.21358 0.0
N1028 N 0.70145 0.76307 0.20896 0.0
N1029 N 0.62441 0.7615 0.3634 0.0
C1030 C 0.68173 0.7658 0.24228 0.0
C1031 C 0.6424 0.76431 0.3217 0.0
N1032 N 0.6977 0.79001 0.32804 0.0
N1033 N 0.62367 0.74839 0.22199 0.0
H1034 H 0.62293 0.76876 0.41225 0.0
H1035 H 0.6114 0.75105 0.35126 0.0
H1036 H 0.62333 0.74185 0.17192 0.0
H1037 H 0.60813 0.74979 0.24433 0.0
H1038 H 0.71132 0.79369 0.29737 0.0
H1039 H 0.69742 0.79843 0.37487 0.0
H1040 H 0.71656 0.7674 0.23059 0.0
H1041 H 0.70296 0.75444 0.16234 0.0
C1042 C 0.4784 0.4207 0.53747 0.0
C1043 C 0.48605 0.40325 0.58017 0.0
C1044 C 0.50905 0.38984 0.48337 0.0
C1045 C 0.50321 0.40863 0.44406 0.0
N1046 N 0.48561 0.44415 0.43928 0.0
N1047 N 0.50938 0.3714 0.59466 0.0
C1048 C 0.48867 0.42455 0.47245 0.0
C1049 C 0.50176 0.38801 0.55355 0.0
N1050 N 0.46142 0.4339 0.55843 0.0
N1051 N 0.52034 0.37305 0.4523 0.0
H1052 H 0.50253 0.36751 0.64266 0.0
H1053 H 0.52308 0.36189 0.58224 0.0
H1054 H 0.5254 0.37347 0.40063 0.0
H1055 H 0.5231 0.3579 0.47551 0.0
H1056 H 0.45293 0.44418 0.52455 0.0
H1057 H 0.45525 0.43446 0.60867 0.0
H1058 H 0.47748 0.45746 0.46162 0.0
H1059 H 0.49296 0.44805 0.39211 0.0
C1060 C 0.8597 0.26806 0.77858 0.0
C1061 C 0.84488 0.2591 0.72931 0.0
C1062 C 0.83447 0.23021 0.8118 0.0
C1063 C 0.8509 0.23797 0.85855 0.0
N1064 N 0.88274 0.26096 0.8782 0.0
N1065 N 0.81206 0.23788 0.71063 0.0
C1066 C 0.86438 0.2561 0.83993 0.0
C1067 C 0.8306 0.2418 0.74914 0.0
N1068 N 0.86823 0.28856 0.76967 0.0
N1069 N 0.82249 0.21178 0.82633 0.0
H1070 H 0.80777 0.24748 0.66787 0.0
H1071 H 0.79961 0.2271 0.72533 0.0
H1072 H 0.82182 0.2044 0.87481 0.0
H1073 H 0.81328 0.20341 0.78913 0.0
H1074 H 0.87755 0.29658 0.80739 0.0
H1075 H 0.86333 0.29895 0.72993 0.0
H1076 H 0.89447 0.27242 0.86271 0.0
H1077 H 0.88776 0.25173 0.92087 0.0
C1078 C 0.02307 0.61923 0.07118 0.0
C1079 C 0.02339 0.59896 0.1073 0.0
C1080 C 1.00034 0.58232 0.01666 0.0
C1081 C 1.00304 0.60133 0.9759 0.0
N1082 N 0.01656 0.63818 0.96226 0.0
N1083 N 0.01508 0.56034 0.10925 0.0
C1084 C 0.01415 0.61998 0.00286 0.0
C1085 C 0.01245 0.58035 0.07917 0.0
N1086 N 0.03091 0.63778 0.10266 0.0
N1087 N 0.98662 0.56591 -0.00513 0.0
H1088 H 0.02528 0.55825 0.1516 0.0
H1089 H 0.00949 0.54567 0.08774 0.0
H1090 H 0.97784 0.56665 0.94847 0.0
H1091 H 0.98228 0.5526 0.02579 0.0
H1092 H 0.02918 0.65345 0.08199 0.0
H1093 H 0.03779 0.63777 0.15229 0.0
H1094 H 0.02676 0.65132 0.97488 0.0
H1095 H 0.00886 0.63972 0.91406 0.0
C1096 C 0.64159 0.25765 0.22891 0.0
C1097 C 0.66119 0.25462 0.2678 0.0
C1098 C 0.67629 0.23118 0.17597 0.0
C1099 C 0.65729 0.2351 0.1347 0.0
N1100 N 0.62269 0.254 0.11838 0.0
N1101 N 0.69926 0.24356 0.27106 0.0
C1102 C 0.64027 0.2491 0.15995 0.0
C1103 C 0.67914 0.24286 0.23909 0.0
N1104 N 0.62388 0.26776 0.25905 0.0
N1105 N 0.69153 0.21603 0.15573 0.0
H1106 H 0.70212 0.25247 0.31652 0.0
H1107 H 0.71361 0.23734 0.24884 0.0
H1108 H 0.69018 0.20725 0.10982 0.0
H1109 H 0.70438 0.21071 0.18735 0.0
H1110 H 0.60828 0.26833 0.23675 0.0
H1111 H 0.62438 0.27447 0.30885 0.0
H1112 H 0.61125 0.26619 0.12995 0.0
H1113 H 0.62001 0.24655 0.07035 0.0
C1114 C 0.99934 0.42433 0.46134 0.0
C1115 C 1.00429 0.4078 0.51014 0.0
C1116 C 0.02627 0.38829 0.42226 0.0
C1117 C 0.02419 0.40664 0.37746 0.0
N1118 N 0.01219 0.44392 0.36157 0.0
N1119 N 0.02245 0.37389 0.53911 0.0
C1120 C 0.01131 0.42497 0.39843 0.0
C1121 C 0.01771 0.38965 0.49105 0.0
N1122 N 0.98379 0.43994 0.47568 0.0
N1123 N 0.03581 0.3694 0.39844 0.0
H1124 H 0.01511 0.37358 0.58809 0.0
H1125 H 0.03425 0.36172 0.53164 0.0
H1126 H 0.04203 0.36778 0.34824 0.0
H1127 H 0.03593 0.35477 0.42617 0.0
H1128 H 0.97789 0.45088 0.43856 0.0
H1129 H 0.97524 0.44082 0.52241 0.0
H1130 H 1.00516 0.45868 0.37751 0.0
H1131 H 0.02278 0.44543 0.32018 0.0
C1132 C 0.8366 0.77406 0.75011 0.0
C1133 C 0.85244 0.75921 0.77724 0.0
C1134 C 0.87267 0.76059 0.66669 0.0
C1135 C 0.85761 0.77669 0.64151 0.0
N1136 N 0.82736 0.80167 0.66577 0.0
N1137 N 0.88762 0.74117 0.76611 0.0
C1138 C 0.84043 0.78448 0.68541 0.0
C1139 C 0.87095 0.75306 0.73661 0.0
N1140 N 0.81705 0.77722 0.78408 0.0
N1141 N 0.88903 0.75285 0.62444 0.0
H1142 H 0.88731 0.73585 0.81745 0.0
H1143 H 0.90265 0.73813 0.74198 0.0
H1144 H 0.89298 0.75987 0.57681 0.0
H1145 H 0.89829 0.73891 0.63557 0.0
H1146 H 0.8038 0.78577 0.76292 0.0
H1147 H 0.81304 0.7695 0.83051 0.0
H1148 H 0.81736 0.8102 0.70053 0.0
H1149 H 0.82664 0.80796 0.61577 0.0
C1150 C 0.49471 0.5793 0.00033 0.0
C1151 C 0.50391 0.59877 0.02831 0.0
C1152 C 0.49654 0.61802 0.91893 0.0
C1153 C 0.48525 0.59914 0.89376 0.0
N1154 N 0.47122 0.56271 0.91366 0.0
N1155 N 0.51251 0.63716 0.01786 0.0
C1156 C 0.48362 0.58006 0.9355 0.0
C1157 C 0.50475 0.61825 0.98835 0.0
N1158 N 0.49729 0.55988 0.03488 0.0
N1159 N 0.49927 0.6358 0.87661 0.0
H1160 H 0.51913 0.63772 0.0678 0.0
H1161 H 0.5113 0.65253 -0.00519 0.0
H1162 H 0.49201 0.63702 0.82771 0.0
H1163 H 0.50956 0.64895 0.88835 0.0
H1164 H 0.49309 0.54468 0.01392 0.0
H1165 H 0.50567 0.55866 0.08202 0.0
H1166 H 0.46732 0.54931 0.94477 0.0
H1167 H 0.4633 0.56256 0.86597 0.0
C1168 C 0.36854 0.25037 0.64613 0.0
C1169 C 0.35303 0.23414 0.62454 0.0
C1170 C 0.33307 0.23868 0.7338 0.0
C1171 C 0.34957 0.2532 0.75817 0.0
N1172 N 0.38487 0.27059 0.74199 0.0
N1173 N 0.32369 0.20902 0.65683 0.0
C1174 C 0.36774 0.25867 0.71534 0.0
C1175 C 0.3364 0.22698 0.67118 0.0
N1176 N 0.38452 0.25736 0.60135 0.0
N1177 N 0.31359 0.23683 0.76902 0.0
H1178 H 0.32352 0.20082 0.60951 0.0
H1179 H 0.31369 0.20161 0.69401 0.0
H1180 H 0.30998 0.24606 0.81327 0.0
H1181 H 0.30012 0.22807 0.75006 0.0
H1182 H 0.3941 0.27127 0.61012 0.0
H1183 H 0.38788 0.24966 0.55418 0.0
H1184 H 0.3997 0.27305 0.71608 0.0
H1185 H 0.38503 0.27673 0.79248 0.0
C1186 C 0.52512 0.58206 0.50335 0.0
C1187 C 0.51031 0.59779 0.53146 0.0
C1188 C 0.51189 0.61857 0.42232 0.0
C1189 C 0.52793 0.60359 0.39615 0.0
N1190 N 0.55274 0.57311 0.41818 0.0
N1191 N 0.49244 0.633 0.52272 0.0
C1192 C 0.53558 0.58613 0.4388 0.0
C1193 C 0.50427 0.61651 0.49209 0.0
N1194 N 0.52824 0.56245 0.53636 0.0
N1195 N 0.50429 0.63519 0.38118 0.0
H1196 H 0.48702 0.6324 0.57399 0.0
H1197 H 0.48955 0.64816 0.49966 0.0
H1198 H 0.51138 0.63931 0.33373 0.0
H1199 H 0.4904 0.6445 0.39298 0.0
H1200 H 0.53664 0.54927 0.51427 0.0
H1201 H 0.52065 0.55838 0.58302 0.0
H1202 H 0.56121 0.56285 0.45216 0.0
H1203 H 0.55908 0.57268 0.36812 0.0
C1204 C 0.14539 0.77278 0.252 0.0
C1205 C 0.15931 0.75441 0.26442 0.0
C1206 C 0.1599 0.7471 0.14006 0.0
C1207 C 0.15164 0.76848 0.12678 0.0
N1208 N 0.13263 0.80039 0.17123 0.0
N1209 N 0.18266 0.72584 0.21694 0.0
C1210 C 0.1433 0.78104 0.18325 0.0
C1211 C 0.16736 0.742 0.20758 0.0
N1212 N 0.13313 0.78145 0.30492 0.0
N1213 N 0.15909 0.73108 0.09067 0.0
H1214 H 0.18965 0.72223 0.26499 0.0
H1215 H 0.19013 0.71774 0.17536 0.0
H1216 H 0.14966 0.73267 0.04585 0.0
H1217 H 0.16416 0.71501 0.1002 0.0
H1218 H 0.12123 0.79355 0.29784 0.0
H1219 H 0.13303 0.77491 0.35487 0.0
H1220 H 0.12928 0.81182 0.2101 0.0
H1221 H 0.12714 0.805 0.12211 0.0
C1222 C 0.99473 0.43202 0.91228 0.0
C1223 C 0.99057 0.41189 0.87766 0.0
C1224 C 0.00807 0.39175 0.97337 0.0
C1225 C 0.01277 0.41202 0.00631 0.0
N1226 N 0.01558 0.45132 0.00063 0.0
N1227 N 0.99577 0.37271 0.8694 0.0
C1228 C 0.00776 0.43212 0.97331 0.0
C1229 C 0.99816 0.39176 0.90625 0.0
N1230 N 0.98548 0.45094 0.8884 0.0
N1231 N 0.01226 0.37259 0.00761 0.0
H1232 H 0.98752 0.37192 0.82195 0.0
H1233 H 1.00293 0.35789 0.88382 0.0
H1234 H 0.0204 0.37215 0.05532 0.0
H1235 H 0.00688 0.35728 0.9906 0.0
H1236 H 0.98609 0.46585 0.91484 0.0
H1237 H 0.9753 0.45119 0.84517 0.0
H1238 H 0.01441 0.46639 0.97553 0.0
H1239 H 0.02517 0.4518 0.04553 0.0
C1240 C 0.36733 0.75691 0.82953 0.0
C1241 C 0.35273 0.77408 0.8491 0.0
C1242 C 0.33361 0.77025 0.73713 0.0
C1243 C 0.34857 0.75341 0.71754 0.0
N1244 N 0.37334 0.72511 0.75744 0.0
N1245 N 0.32336 0.79909 0.81728 0.0
C1246 C 0.36357 0.74502 0.76723 0.0
C1247 C 0.33629 0.78138 0.80169 0.0
N1248 N 0.38587 0.75295 0.86795 0.0
N1249 N 0.31552 0.77409 0.69649 0.0
H1250 H 0.32226 0.80611 0.86634 0.0
H1251 H 0.31392 0.80735 0.78057 0.0
H1252 H 0.31216 0.765 0.65175 0.0
H1253 H 0.30253 0.7843 0.71071 0.0
H1254 H 0.3983 0.74228 0.85201 0.0
H1255 H 0.39027 0.7623 0.91117 0.0
H1256 H 0.3828 0.71737 0.79532 0.0
H1257 H 0.36944 0.7148 0.71633 0.0
C1258 C 0.98521 0.62136 0.54894 0.0
C1259 C 0.99615 0.6124 0.60752 0.0
C1260 C 0.02293 0.59442 0.53176 0.0
C1261 C 0.01155 0.60243 0.4729 0.0
N1262 N 0.98709 0.62994 0.42622 0.0
N1263 N 0.03238 0.60267 0.65018 0.0
C1264 C 0.99419 0.61787 0.48163 0.0
C1265 C 0.01719 0.60263 0.5981 0.0
N1266 N 0.96666 0.63374 0.55767 0.0
N1267 N 0.0386 0.57846 0.52538 0.0
H1268 H 0.03053 0.61236 0.69436 0.0
H1269 H 0.0483 0.59654 0.64381 0.0
H1270 H 0.04291 0.57137 0.47801 0.0
H1271 H 0.04571 0.57085 0.56833 0.0
H1272 H 0.9561 0.63789 0.51714 0.0
H1273 H 0.96183 0.63986 0.60593 0.0
H1274 H 0.97584 0.64277 0.43027 0.0
H1275 H 0.9942 0.62871 0.37707 0.0
C1276 C 0.16779 0.26295 0.29228 0.0
C1277 C 0.15961 0.25112 0.23451 0.0
C1278 C 0.14154 0.22502 0.3125 0.0
C1279 C 0.15055 0.23653 0.36996 0.0
N1280 N 0.15953 0.27322 0.40983 0.0
N1281 N 0.13189 0.22622 0.19057 0.0
C1282 C 0.15984 0.25762 0.35901 0.0
C1283 C 0.14442 0.23366 0.24475 0.0
N1284 N 0.18357 0.2787 0.28448 0.0
N1285 N 0.12959 0.20633 0.32272 0.0
H1286 H 0.13244 0.23319 0.14123 0.0
H1287 H 0.11922 0.21484 0.19609 0.0
H1288 H 0.12375 0.20173 0.37142 0.0
H1289 H 0.12552 0.19547 0.28289 0.0
H1290 H 0.1912 0.28624 0.3268 0.0
H1291 H 0.19057 0.28263 0.23672 0.0
H1292 H 0.16532 0.28913 0.40198 0.0
H1293 H 0.14996 0.27159 0.45434 0.0
C1294 C 0.53086 0.42741 0.04106 0.0
C1295 C 0.52984 0.40815 0.08218 0.0
C1296 C 0.51077 0.38882 0.98711 0.0
C1297 C 0.51097 0.40845 0.94781 0.0
N1298 N 0.51665 0.4475 0.94221 0.0
N1299 N 0.51693 0.37104 0.09814 0.0
C1300 C 0.51972 0.42806 0.97627 0.0
C1301 C 0.51908 0.38903 0.05641 0.0
N1302 N 0.54275 0.44504 0.06352 0.0
N1303 N 0.50346 0.36981 0.9571 0.0
H1304 H 0.52431 0.36985 0.14688 0.0
H1305 H 0.50702 0.35763 0.08608 0.0
H1306 H 0.49673 0.36924 0.90731 0.0
H1307 H 0.50516 0.35439 0.97956 0.0
H1308 H 0.54621 0.45868 0.03301 0.0
H1309 H 0.55071 0.4452 0.11114 0.0
H1310 H 0.52047 0.46275 0.96351 0.0
H1311 H 0.50827 0.44862 0.89505 0.0
C1312 C 0.11035 0.32967 0.16869 0.0
C1313 C 0.12086 0.33133 0.10309 0.0
C1314 C 0.09813 0.36351 0.0751 0.0
C1315 C 0.08912 0.36311 0.14312 0.0
N1316 N 0.08907 0.34788 0.25858 0.0
N1317 N 0.12673 0.351 -0.0037 0.0
C1318 C 0.09575 0.34664 0.1909 0.0
C1319 C 0.11537 0.34866 0.05712 0.0
N1320 N 0.11431 0.31185 0.20982 0.0
N1321 N 0.08947 0.37742 0.02659 0.0
H1322 H 0.1387 0.33989 0.9797 0.0
H1323 H 0.12539 0.36472 0.96449 0.0
H1324 H 0.0765 0.38813 0.03724 0.0
H1325 H 0.09366 0.37696 0.97422 0.0
H1326 H 0.10529 0.30833 0.25438 0.0
H1327 H 0.12567 0.29965 0.19696 0.0
H1328 H 0.09525 0.33787 0.29771 0.0
H1329 H 0.07869 0.36018 0.27724 0.0
C1330 C 0.89902 0.85539 0.43217 0.0
C1331 C 0.89286 0.83822 0.38618 0.0
C1332 C 0.91608 0.85435 0.29505 0.0
C1333 C 0.92388 0.8703 0.34318 0.0
N1334 N 0.92576 0.88351 0.46118 0.0
N1335 N 0.8972 0.81966 0.27659 0.0
C1336 C 0.91606 0.87023 0.41269 0.0
C1337 C 0.90195 0.83718 0.31845 0.0
N1338 N 0.88844 0.85764 0.49441 0.0
N1339 N 0.92125 0.85622 0.22626 0.0
H1340 H 0.88604 0.80745 0.29062 0.0
H1341 H 0.90533 0.81649 0.23006 0.0
H1342 H 0.93099 0.86886 0.20666 0.0
H1343 H 0.91429 0.8465 0.18756 0.0
H1344 H 0.89037 0.87123 0.52671 0.0
H1345 H 0.87631 0.84678 0.51135 0.0
H1346 H 0.92245 0.88254 0.5141 0.0
H1347 H 0.93873 0.89411 0.44969 0.0
C1348 C 0.40747 0.6733 0.65775 0.0
C1349 C 0.39351 0.66942 0.59987 0.0
C1350 C 0.41233 0.63408 0.58111 0.0
C1351 C 0.42375 0.63667 0.64512 0.0
N1352 N 0.42675 0.65657 0.75349 0.0
N1353 N 0.38133 0.64473 0.50928 0.0
C1354 C 0.41977 0.65566 0.6861 0.0
C1355 C 0.39533 0.64924 0.56299 0.0
N1356 N 0.40961 0.69387 0.68505 0.0
N1357 N 0.41867 0.61817 0.53512 0.0
H1358 H 0.36991 0.65598 0.49026 0.0
H1359 H 0.38019 0.62927 0.48632 0.0
H1360 H 0.43195 0.6077 0.54384 0.0
H1361 H 0.4124 0.61696 0.48494 0.0
H1362 H 0.42107 0.69769 0.72354 0.0
H1363 H 0.40194 0.70757 0.66393 0.0
H1364 H 0.42246 0.66933 0.78701 0.0
H1365 H 0.43435 0.64343 0.77843 0.0
C1366 C 0.60334 0.17748 0.83148 0.0
C1367 C 0.61804 0.17312 0.88697 0.0
C1368 C 0.60091 0.1367 0.9004 0.0
C1369 C 0.58866 0.14005 0.83835 0.0
N1370 N 0.58389 0.16168 0.73434 0.0
N1371 N 0.63215 0.14741 0.97135 0.0
C1372 C 0.59153 0.15988 0.80081 0.0
C1373 C 0.61742 0.15225 0.91996 0.0
N1374 N 0.60003 0.1984 0.80872 0.0
N1375 N 0.59587 0.1196 0.9433 0.0
H1376 H 0.64313 0.15886 -0.00813 0.0
H1377 H 0.63423 0.13163 0.991 0.0
H1378 H 0.58317 0.10855 0.93331 0.0
H1379 H 0.60272 0.11769 -0.00752 0.0
H1380 H 0.58809 0.20239 0.77193 0.0
H1381 H 0.60709 0.21201 0.83251 0.0
H1382 H 0.58732 0.17518 0.70301 0.0
H1383 H 0.57666 0.14865 0.70757 0.0
C1384 C 0.08853 0.64897 0.40727 0.0
C1385 C 0.08936 0.6409 0.33822 0.0
C1386 C 0.12096 0.66487 0.31375 0.0
C1387 C 0.1215 0.67133 0.38467 0.0
N1388 N 0.10809 0.66676 0.50166 0.0
N1389 N 0.10771 0.63892 0.22752 0.0
C1390 C 0.10581 0.66273 0.43216 0.0
C1391 C 0.10601 0.64818 0.292 0.0
N1392 N 0.07115 0.64357 0.449 0.0
N1393 N 0.13397 0.67542 0.26648 0.0
H1394 H 0.0965 0.62738 0.20867 0.0
H1395 H 0.12103 0.64156 0.19451 0.0
H1396 H 0.14477 0.68804 0.27991 0.0
H1397 H 0.13266 0.67312 0.21308 0.0
H1398 H 0.0683 0.6508 0.49719 0.0
H1399 H 0.05851 0.63311 0.43314 0.0
H1400 H 0.09864 0.65908 0.53959 0.0
H1401 H 0.12081 0.67624 0.5223 0.0
C1402 C 0.62095 0.85955 0.55993 0.0
C1403 C 0.62223 0.83877 0.59315 0.0
C1404 C 0.5954 0.85143 0.67949 0.0
C1405 C 0.59191 0.87111 0.64167 0.0
N1406 N 0.59801 0.89106 0.53488 0.0
N1407 N 0.60519 0.81315 0.67236 0.0
C1408 C 0.60388 0.87454 0.57903 0.0
C1409 C 0.60773 0.83411 0.64897 0.0
N1410 N 0.63556 0.86482 0.50869 0.0
N1411 N 0.58792 0.84951 0.74609 0.0
H1412 H 0.61299 0.79975 0.64965 0.0
H1413 H 0.59335 0.80884 0.70908 0.0
H1414 H 0.58039 0.86238 0.77283 0.0
H1415 H 0.59177 0.83615 0.77754 0.0
H1416 H 0.63705 0.88062 0.48874 0.0
H1417 H 0.64711 0.85377 0.48899 0.0
H1418 H 0.60478 0.89291 0.48558 0.0
H1419 H 0.58463 0.9014 0.54358 0.0
C1420 C 0.41236 0.35474 0.7839 0.0
C1421 C 0.42433 0.36726 0.83366 0.0
C1422 C 0.40421 0.34907 0.92823 0.0
C1423 C 0.3918 0.33707 0.8784 0.0
N1424 N 0.38174 0.33013 0.75953 0.0
N1425 N 0.43027 0.37846 0.95219 0.0
C1426 C 0.39518 0.34044 0.80638 0.0
C1427 C 0.41977 0.3651 0.90559 0.0
N1428 N 0.41765 0.35633 0.71508 0.0
N1429 N 0.4014 0.34478 -0.00268 0.0
H1430 H 0.44258 0.3895 0.93799 0.0
H1431 H 0.42607 0.37959 0.0044 0.0
H1432 H 0.38937 0.3341 0.01595 0.0
H1433 H 0.41157 0.35087 0.03631 0.0
H1434 H 0.41161 0.34586 0.67685 0.0
H1435 H 0.42907 0.36756 0.696 0.0
H1436 H 0.38161 0.33347 0.70663 0.0
H1437 H 0.36949 0.31905 0.77407 0.0
C1438 C 0.90807 0.16934 0.06067 0.0
C1439 C 0.88961 0.17412 0.10332 0.0
C1440 C 0.90264 0.14661 0.18731 0.0
C1441 C 0.92232 0.14379 0.14804 0.0
N1442 N 0.9459 0.15736 0.05643 0.0
N1443 N 0.87168 0.17033 0.2145 0.0
C1444 C 0.92573 0.15669 0.08768 0.0
C1445 C 0.88739 0.16345 0.16849 0.0
N1446 N 0.90836 0.17594 -0.00709 0.0
N1447 N 0.8987 0.13364 0.24372 0.0
H1448 H 0.86087 0.18321 0.20429 0.0
H1449 H 0.87077 0.16481 0.26551 0.0
H1450 H 0.91019 0.12257 0.26337 0.0
H1451 H 0.88352 0.13304 0.26882 0.0
H1452 H 0.92046 0.171 0.95784 0.0
H1453 H 0.89522 0.18409 0.96948 0.0
H1454 H 0.94966 0.16822 0.01643 0.0
H1455 H 0.95955 0.14889 0.07488 0.0
C1456 C 0.89221 0.66634 0.81724 0.0
C1457 C 0.89187 0.67302 0.88795 0.0
C1458 C 0.92441 0.65007 0.91103 0.0
C1459 C 0.92372 0.64217 0.84173 0.0
N1460 N 0.9053 0.64023 0.7311 0.0
N1461 N 0.90491 0.66802 0.00518 0.0
C1462 C 0.90702 0.64947 0.79561 0.0
C1463 C 0.90728 0.66405 0.93568 0.0
N1464 N 0.87922 0.67693 0.76997 0.0
N1465 N 0.9416 0.64439 0.95324 0.0
H1466 H 0.89231 0.67771 0.02562 0.0
H1467 H 0.91411 0.6601 0.04323 0.0
H1468 H 0.95393 0.63344 0.93824 0.0
H1469 H 0.94451 0.65167 0.00132 0.0
H1470 H 0.88041 0.67452 0.71659 0.0
H1471 H 0.86851 0.68963 0.78341 0.0
H1472 H 0.89206 0.64301 0.6979 0.0
H1473 H 0.91632 0.62846 0.71259 0.0
C1474 C 0.10425 0.1589 0.55524 0.0
C1475 C 0.12087 0.16595 0.60225 0.0
C1476 C 0.10771 0.13917 0.68806 0.0
C1477 C 0.08965 0.13402 0.6441 0.0
N1478 N 0.0693 0.14028 0.53857 0.0
N1479 N 0.13683 0.16493 0.71686 0.0
C1480 C 0.0875 0.14429 0.57846 0.0
C1481 C 0.12232 0.15651 0.66945 0.0
N1482 N 0.10506 0.16538 0.48739 0.0
N1483 N 0.11089 0.12746 0.74766 0.0
H1484 H 0.14754 0.17782 0.70574 0.0
H1485 H 0.13703 0.16045 0.76896 0.0
H1486 H 0.10014 0.11515 0.76399 0.0
H1487 H 0.125 0.12872 0.7781 0.0
H1488 H 0.09481 0.15907 0.44888 0.0
H1489 H 0.11741 0.17551 0.46794 0.0
H1490 H 0.0654 0.14924 0.49427 0.0
H1491 H 0.05724 0.12888 0.55212 0.0
C1492 C 0.59253 0.36677 0.4064 0.0
C1493 C 0.59072 0.37123 0.33437 0.0
C1494 C 0.61926 0.34361 0.30948 0.0
C1495 C 0.62198 0.34008 0.38177 0.0
N1496 N 0.61376 0.35041 0.49978 0.0
N1497 N 0.60438 0.36658 0.21787 0.0
C1498 C 0.60928 0.35223 0.43047 0.0
C1499 C 0.60466 0.36038 0.28602 0.0
N1500 N 0.5778 0.37596 0.45163 0.0
N1501 N 0.63 0.33034 0.2632 0.0
H1502 H 0.59376 0.37858 0.19872 0.0
H1503 H 0.61577 0.36113 0.18132 0.0
H1504 H 0.64097 0.31808 0.27841 0.0
H1505 H 0.62687 0.33031 0.21009 0.0
H1506 H 0.57641 0.37138 0.50345 0.0
H1507 H 0.5658 0.38719 0.43623 0.0
H1508 H 0.60683 0.36049 0.5376 0.0
H1509 H 0.62582 0.33992 0.51936 0.0
C1510 C 0.40445 0.84579 0.05195 0.0
C1511 C 0.38959 0.83637 0.10047 0.0
C1512 C 0.40503 0.85975 0.19261 0.0
C1513 C 0.42116 0.86758 0.14542 0.0
N1514 N 0.43838 0.86593 0.03288 0.0
N1515 N 0.37778 0.83182 0.21904 0.0
C1516 C 0.4215 0.85996 0.07585 0.0
C1517 C 0.39033 0.84274 0.17139 0.0
N1518 N 0.40166 0.84198 0.98252 0.0
N1519 N 0.4036 0.86877 0.25748 0.0
H1520 H 0.367 0.81918 0.20564 0.0
H1521 H 0.37934 0.83399 0.27242 0.0
H1522 H 0.4145 0.88075 0.27541 0.0
H1523 H 0.39072 0.86559 0.29166 0.0
H1524 H 0.41045 0.85018 0.94411 0.0
H1525 H 0.38909 0.83215 0.96268 0.0
H1526 H 0.44101 0.85892 0.98423 0.0
H1527 H 0.45087 0.87668 0.04796 0.0
C1528 C 0.91125 0.37505 0.58092 0.0
C1529 C 0.92211 0.37304 0.64608 0.0
C1530 C 0.90478 0.33701 0.66207 0.0
C1531 C 0.89165 0.34033 0.60193 0.0
N1532 N 0.88088 0.36389 0.5071 0.0
N1533 N 0.92447 0.35441 0.75634 0.0
C1534 C 0.89423 0.35992 0.56281 0.0
C1535 C 0.91753 0.35466 0.68885 0.0
N1536 N 0.9182 0.39034 0.53395 0.0
N1537 N 0.90557 0.31694 0.69322 0.0
H1538 H 0.93274 0.36751 0.77948 0.0
H1539 H 0.91972 0.34234 0.79152 0.0
H1540 H 0.89702 0.30335 0.67473 0.0
H1541 H 0.91655 0.31322 0.73309 0.0
H1542 H 0.91244 0.39103 0.48308 0.0
H1543 H 0.93145 0.40084 0.54283 0.0
H1544 H 0.88018 0.37904 0.48223 0.0
H1545 H 0.86951 0.35255 0.48816 0.0
C1546 C 0.40975 0.1699 0.41112 0.0
C1547 C 0.39036 0.17373 0.37163 0.0
C1548 C 0.40237 0.14528 0.28884 0.0
C1549 C 0.42273 0.14325 0.32492 0.0
N1550 N 0.44797 0.15923 0.40815 0.0
N1551 N 0.37096 0.16851 0.26332 0.0
C1552 C 0.42716 0.15736 0.38195 0.0
C1553 C 0.38732 0.16228 0.30789 0.0
N1554 N 0.41118 0.17706 0.47825 0.0
N1555 N 0.39756 0.13135 0.23527 0.0
H1556 H 0.36043 0.18167 0.2731 0.0
H1557 H 0.36932 0.16221 0.21329 0.0
H1558 H 0.40883 0.12005 0.21539 0.0
H1559 H 0.38196 0.13027 0.21297 0.0
H1560 H 0.42419 0.17283 0.51094 0.0
H1561 H 0.39822 0.18478 0.50407 0.0
H1562 H 0.45219 0.17086 0.44563 0.0
H1563 H 0.46148 0.15099 0.38754 0.0
C1564 C 0.61475 0.65432 0.0533 0.0
C1565 C 0.62189 0.6712 0.09898 0.0
C1566 C 0.59883 0.65587 0.19172 0.0
C1567 C 0.58989 0.64042 0.14393 0.0
N1568 N 0.58709 0.62677 0.02669 0.0
N1569 N 0.61947 0.68955 0.20951 0.0
C1570 C 0.59737 0.64001 0.07409 0.0
C1571 C 0.61355 0.6724 0.1676 0.0
N1572 N 0.62473 0.65187 0.99015 0.0
N1573 N 0.59408 0.65411 0.26086 0.0
H1574 H 0.63114 0.70123 0.19503 0.0
H1575 H 0.61189 0.69299 0.25676 0.0
H1576 H 0.58386 0.64194 0.28095 0.0
H1577 H 0.60182 0.66337 0.29922 0.0
H1578 H 0.62202 0.6385 0.95751 0.0
H1579 H 0.63711 0.66234 0.97261 0.0
H1580 H 0.59009 0.62745 0.97355 0.0
H1581 H 0.57412 0.61633 0.03957 0.0
C1582 C 0.10049 0.85283 0.79523 0.0
C1583 C 0.09197 0.8682 0.84392 0.0
C1584 C 0.11771 0.85428 0.9321 0.0
C1585 C 0.12425 0.83733 0.88586 0.0
N1586 N 0.1204 0.81884 0.77582 0.0
N1587 N 0.09025 0.88169 0.96167 0.0
C1588 C 0.1152 0.83613 0.81809 0.0
C1589 C 0.10013 0.86859 0.91307 0.0
N1590 N 0.09534 0.85479 0.72642 0.0
N1591 N 0.12828 0.85666 -0.00569 0.0
H1592 H 0.07702 0.89199 0.95041 0.0
H1593 H 0.09382 0.88097 0.01447 0.0
H1594 H 0.14075 0.84608 0.01077 0.0
H1595 H 0.12598 0.87006 0.02712 0.0
H1596 H 0.10279 0.84553 0.68747 0.0
H1597 H 0.0852 0.86717 0.70715 0.0
H1598 H 0.11228 0.81554 0.72934 0.0
H1599 H 0.13192 0.80688 0.78933 0.0
loop_
_geom_bond_atom_site_label_1
_geom_bond_atom_site_label_2
_geom_bond_distance
_geom_bond_site_symmetry_2
_ccdc_geom_bond_type
Co0 O1 2.216 . S
Co0 O2 2.091 . S
Co0 O4 2.004 . S
Co0 O10 2.021 . S
Co0 O12 2.137 1_554 S
Co0 O13 2.244 1_554 S
O1 Co0 2.216 . S
O1 C8 1.247 . S
O2 Co0 2.091 . S
O2 C8 1.261 . S
C3 O12 1.247 . S
C3 O13 1.272 . S
O4 Co0 2.004 . S
O4 C9 1.259 . S
Co5 O6 2.061 . S
Co5 O11 2.052 . S
Co5 O13 2.135 1_554 S
O6 Co5 2.061 . S
O6 C9 1.235 . S
C7 O10 1.238 . S
C7 O11 1.241 . S
C8 O1 1.247 . S
C8 O2 1.261 . S
C9 O4 1.259 . S
C9 O6 1.235 . S
O10 Co0 2.021 . S
O10 C7 1.238 . S
O11 Co5 2.052 . S
O11 C7 1.241 . S
O12 Co0 2.137 1_556 S
O12 C3 1.247 . S
O13 Co0 2.244 1_556 S
O13 C3 1.272 . S
O13 Co5 2.135 1_556 S
Co14 O15 2.216 . S
Co14 O16 2.091 . S
Co14 O18 2.004 . S
Co14 O24 2.021 . S
Co14 O26 2.137 . S
Co14 O27 2.244 . S
O15 Co14 2.216 . S
O15 C22 1.247 . S
O16 Co14 2.091 . S
O16 C22 1.261 . S
C17 O26 1.247 . S
C17 O27 1.272 . S
O18 Co14 2.004 . S
O18 C23 1.259 . S
Co19 O20 2.061 1_455 S
Co19 O25 2.052 . S
Co19 O27 2.135 1_455 S
O20 Co19 2.061 1_655 S
O20 C23 1.235 . S
C21 O24 1.238 . S
C21 O25 1.241 1_655 S
C22 O15 1.247 . S
C22 O16 1.261 . S
C23 O18 1.259 . S
C23 O20 1.235 . S
O24 Co14 2.021 . S
O24 C21 1.238 . S
O25 Co19 2.052 . S
O25 C21 1.241 1_455 S
O26 Co14 2.137 . S
O26 C17 1.247 . S
O27 Co14 2.244 . S
O27 C17 1.272 . S
O27 Co19 2.135 1_655 S
Co28 O29 2.216 . S
Co28 O30 2.091 . S
Co28 O32 2.004 . S
Co28 O38 2.021 . S
Co28 O40 2.137 . S
Co28 O41 2.244 . S
O29 Co28 2.216 . S
O29 C36 1.247 . S
O30 Co28 2.091 . S
O30 C36 1.261 . S
C31 O40 1.247 . S
C31 O41 1.272 . S
O32 Co28 2.004 . S
O32 C37 1.259 . S
Co33 O34 2.061 . S
Co33 O39 2.052 . S
Co33 O41 2.135 . S
O34 Co33 2.061 . S
O34 C37 1.235 . S
C35 O38 1.238 . S
C35 O39 1.241 . S
C36 O29 1.247 . S
C36 O30 1.261 . S
C37 O32 1.259 . S
C37 O34 1.235 . S
O38 Co28 2.021 . S
O38 C35 1.238 . S
O39 Co33 2.052 . S
O39 C35 1.241 . S
O40 Co28 2.137 . S
O40 C31 1.247 . S
O41 Co28 2.244 . S
O41 C31 1.272 . S
O41 Co33 2.135 . S
Co42 O43 2.216 . S
Co42 O44 2.091 . S
Co42 O46 2.004 . S
Co42 O52 2.021 . S
Co42 O54 2.137 . S
Co42 O55 2.244 . S
O43 Co42 2.216 . S
O43 C50 1.247 . S
O44 Co42 2.091 . S
O44 C50 1.261 . S
C45 O54 1.247 . S
C45 O55 1.272 . S
O46 Co42 2.004 . S
O46 C51 1.259 . S
Co47 O48 2.061 . S
Co47 O53 2.052 . S
Co47 O55 2.135 . S
O48 Co47 2.061 . S
O48 C51 1.235 . S
C49 O52 1.238 . S
C49 O53 1.241 . S
C50 O43 1.247 . S
C50 O44 1.261 . S
C51 O46 1.259 . S
C51 O48 1.235 . S
O52 Co42 2.021 . S
O52 C49 1.238 . S
O53 Co47 2.052 . S
O53 C49 1.241 . S
O54 Co42 2.137 . S
O54 C45 1.247 . S
O55 Co42 2.244 . S
O55 C45 1.272 . S
O55 Co47 2.135 . S
Co56 O57 2.216 . S
Co56 O58 2.091 . S
Co56 O60 2.004 . S
Co56 O66 2.021 . S
Co56 O68 2.137 . S
Co56 O69 2.244 . S
O57 Co56 2.216 . S
O57 C64 1.247 . S
O58 Co56 2.091 . S
O58 C64 1.261 . S
C59 O68 1.247 . S
C59 O69 1.272 . S
O60 Co56 2.004 . S
O60 C65 1.259 . S
Co61 O62 2.061 . S
Co61 O67 2.052 . S
Co61 O69 2.135 . S
O62 Co61 2.061 . S
O62 C65 1.235 . S
C63 O66 1.238 . S
C63 O67 1.241 . S
C64 O57 1.247 . S
C64 O58 1.261 . S
C65 O60 1.259 . S
C65 O62 1.235 . S
O66 Co56 2.021 . S
O66 C63 1.238 . S
O67 Co61 2.052 . S
O67 C63 1.241 . S
O68 Co56 2.137 . S
O68 C59 1.247 . S
O69 Co56 2.244 . S
O69 C59 1.272 . S
O69 Co61 2.135 . S
Co70 O71 2.216 . S
Co70 O72 2.091 . S
Co70 O74 2.004 . S
Co70 O80 2.021 . S
Co70 O82 2.137 . S
Co70 O83 2.244 . S
O71 Co70 2.216 . S
O71 C78 1.247 . S
O72 Co70 2.091 . S
O72 C78 1.261 . S
C73 O82 1.247 . S
C73 O83 1.272 . S
O74 Co70 2.004 . S
O74 C79 1.259 . S
Co75 O76 2.061 . S
Co75 O81 2.052 . S
Co75 O83 2.135 . S
O76 Co75 2.061 . S
O76 C79 1.235 . S
C77 O80 1.238 . S
C77 O81 1.241 . S
C78 O71 1.247 . S
C78 O72 1.261 . S
C79 O74 1.259 . S
C79 O76 1.235 . S
O80 Co70 2.021 . S
O80 C77 1.238 . S
O81 Co75 2.052 . S
O81 C77 1.241 . S
O82 Co70 2.137 . S
O82 C73 1.247 . S
O83 Co70 2.244 . S
O83 C73 1.272 . S
O83 Co75 2.135 . S
Co84 O85 2.216 . S
Co84 O86 2.091 . S
Co84 O88 2.004 . S
Co84 O94 2.021 . S
Co84 O96 2.137 1_556 S
Co84 O97 2.244 1_556 S
O85 Co84 2.216 . S
O85 C92 1.247 . S
O86 Co84 2.091 . S
O86 C92 1.261 . S
C87 O96 1.247 . S
C87 O97 1.272 . S
O88 Co84 2.004 . S
O88 C93 1.259 . S
Co89 O90 2.061 . S
Co89 O95 2.052 . S
Co89 O97 2.135 1_556 S
O90 Co89 2.061 . S
O90 C93 1.235 . S
C91 O94 1.238 . S
C91 O95 1.241 . S
C92 O85 1.247 . S
C92 O86 1.261 . S
C93 O88 1.259 . S
C93 O90 1.235 . S
O94 Co84 2.021 . S
O94 C91 1.238 . S
O95 Co89 2.052 . S
O95 C91 1.241 . S
O96 Co84 2.137 1_554 S
O96 C87 1.247 . S
O97 Co84 2.244 1_554 S
O97 C87 1.272 . S
O97 Co89 2.135 1_554 S
Co98 O99 2.216 . S
Co98 O100 2.091 . S
Co98 O102 2.004 . S
Co98 O108 2.021 . S
Co98 O110 2.137 . S
Co98 O111 2.244 . S
O99 Co98 2.216 . S
O99 C106 1.247 . S
O100 Co98 2.091 . S
O100 C106 1.261 . S
C101 O110 1.247 . S
C101 O111 1.272 . S
O102 Co98 2.004 . S
O102 C107 1.259 . S
Co103 O104 2.061 1_455 S
Co103 O109 2.052 . S
Co103 O111 2.135 1_455 S
O104 Co103 2.061 1_655 S
O104 C107 1.235 . S
C105 O108 1.238 . S
C105 O109 1.241 1_655 S
C106 O99 1.247 . S
C106 O100 1.261 . S
C107 O102 1.259 . S
C107 O104 1.235 . S
O108 Co98 2.021 . S
O108 C105 1.238 . S
O109 Co103 2.052 . S
O109 C105 1.241 1_455 S
O110 Co98 2.137 . S
O110 C101 1.247 . S
O111 Co98 2.244 . S
O111 C101 1.272 . S
O111 Co103 2.135 1_655 S
Co112 O113 2.216 . S
Co112 O114 2.091 . S
Co112 O116 2.004 . S
Co112 O122 2.021 . S
Co112 O124 2.137 1_556 S
Co112 O125 2.244 1_556 S
O113 Co112 2.216 . S
O113 C120 1.247 . S
O114 Co112 2.091 . S
O114 C120 1.261 . S
C115 O124 1.247 . S
C115 O125 1.272 . S
O116 Co112 2.004 . S
O116 C121 1.259 . S
Co117 O118 2.061 . S
Co117 O123 2.052 . S
Co117 O125 2.135 1_556 S
O118 Co117 2.061 . S
O118 C121 1.235 . S
C119 O122 1.238 . S
C119 O123 1.241 . S
C120 O113 1.247 . S
C120 O114 1.261 . S
C121 O116 1.259 . S
C121 O118 1.235 . S
O122 Co112 2.021 . S
O122 C119 1.238 . S
O123 Co117 2.052 . S
O123 C119 1.241 . S
O124 Co112 2.137 1_554 S
O124 C115 1.247 . S
O125 Co112 2.244 1_554 S
O125 C115 1.272 . S
O125 Co117 2.135 1_554 S
Co126 O127 2.216 . S
Co126 O128 2.091 . S
Co126 O130 2.004 . S
Co126 O136 2.021 . S
Co126 O138 2.137 . S
Co126 O139 2.244 . S
O127 Co126 2.216 . S
O127 C134 1.247 . S
O128 Co126 2.091 . S
O128 C134 1.261 . S
C129 O138 1.247 . S
C129 O139 1.272 . S
O130 Co126 2.004 . S
O130 C135 1.259 . S
Co131 O132 2.061 1_655 S
Co131 O137 2.052 . S
Co131 O139 2.135 1_655 S
O132 Co131 2.061 1_455 S
O132 C135 1.235 . S
C133 O136 1.238 . S
C133 O137 1.241 1_455 S
C134 O127 1.247 . S
C134 O128 1.261 . S
C135 O130 1.259 . S
C135 O132 1.235 . S
O136 Co126 2.021 . S
O136 C133 1.238 . S
O137 Co131 2.052 . S
O137 C133 1.241 1_655 S
O138 Co126 2.137 . S
O138 C129 1.247 . S
O139 Co126 2.244 . S
O139 C129 1.272 . S
O139 Co131 2.135 1_455 S
Co140 O141 2.216 . S
Co140 O142 2.091 . S
Co140 O144 2.004 . S
Co140 O150 2.021 . S
Co140 O152 2.137 . S
Co140 O153 2.244 . S
O141 Co140 2.216 . S
O141 C148 1.247 . S
O142 Co140 2.091 . S
O142 C148 1.261 . S
C143 O152 1.247 . S
C143 O153 1.272 . S
O144 Co140 2.004 . S
O144 C149 1.259 . S
Co145 O146 2.061 . S
Co145 O151 2.052 . S
Co145 O153 2.135 . S
O146 Co145 2.061 . S
O146 C149 1.235 . S
C147 O150 1.238 . S
C147 O151 1.241 . S
C148 O141 1.247 . S
C148 O142 1.261 . S
C149 O144 1.259 . S
C149 O146 1.235 . S
O150 Co140 2.021 . S
O150 C147 1.238 . S
O151 Co145 2.052 . S
O151 C147 1.241 . S
O152 Co140 2.137 . S
O152 C143 1.247 . S
O153 Co140 2.244 . S
O153 C143 1.272 . S
O153 Co145 2.135 . S
Co154 O155 2.216 . S
Co154 O156 2.091 . S
Co154 O158 2.004 . S
Co154 O164 2.021 . S
Co154 O166 2.137 . S
Co154 O167 2.244 . S
O155 Co154 2.216 . S
O155 C162 1.247 . S
O156 Co154 2.091 . S
O156 C162 1.261 . S
C157 O166 1.247 . S
C157 O167 1.272 . S
O158 Co154 2.004 . S
O158 C163 1.259 . S
Co159 O160 2.061 . S
Co159 O165 2.052 . S
Co159 O167 2.135 . S
O160 Co159 2.061 . S
O160 C163 1.235 . S
C161 O164 1.238 . S
C161 O165 1.241 . S
C162 O155 1.247 . S
C162 O156 1.261 . S
C163 O158 1.259 . S
C163 O160 1.235 . S
O164 Co154 2.021 . S
O164 C161 1.238 . S
O165 Co159 2.052 . S
O165 C161 1.241 . S
O166 Co154 2.137 . S
O166 C157 1.247 . S
O167 Co154 2.244 . S
O167 C157 1.272 . S
O167 Co159 2.135 . S
Co168 O169 2.216 . S
Co168 O170 2.091 . S
Co168 O172 2.004 . S
Co168 O178 2.021 . S
Co168 O180 2.137 . S
Co168 O181 2.244 . S
O169 Co168 2.216 . S
O169 C176 1.247 . S
O170 Co168 2.091 . S
O170 C176 1.261 . S
C171 O180 1.247 . S
C171 O181 1.272 . S
O172 Co168 2.004 . S
O172 C177 1.259 . S
Co173 O174 2.061 . S
Co173 O179 2.052 . S
Co173 O181 2.135 . S
O174 Co173 2.061 . S
O174 C177 1.235 . S
C175 O178 1.238 . S
C175 O179 1.241 . S
C176 O169 1.247 . S
C176 O170 1.261 . S
C177 O172 1.259 . S
C177 O174 1.235 . S
O178 Co168 2.021 . S
O178 C175 1.238 . S
O179 Co173 2.052 . S
O179 C175 1.241 . S
O180 Co168 2.137 . S
O180 C171 1.247 . S
O181 Co168 2.244 . S
O181 C171 1.272 . S
O181 Co173 2.135 . S
Co182 O183 2.216 . S
Co182 O184 2.091 . S
Co182 O186 2.004 . S
Co182 O192 2.021 . S
Co182 O194 2.137 . S
Co182 O195 2.244 . S
O183 Co182 2.216 . S
O183 C190 1.247 . S
O184 Co182 2.091 . S
O184 C190 1.261 . S
C185 O194 1.247 . S
C185 O195 1.272 . S
O186 Co182 2.004 . S
O186 C191 1.259 . S
Co187 O188 2.061 . S
Co187 O193 2.052 . S
Co187 O195 2.135 . S
O188 Co187 2.061 . S
O188 C191 1.235 . S
C189 O192 1.238 . S
C189 O193 1.241 . S
C190 O183 1.247 . S
C190 O184 1.261 . S
C191 O186 1.259 . S
C191 O188 1.235 . S
O192 Co182 2.021 . S
O192 C189 1.238 . S
O193 Co187 2.052 . S
O193 C189 1.241 . S
O194 Co182 2.137 . S
O194 C185 1.247 . S
O195 Co182 2.244 . S
O195 C185 1.272 . S
O195 Co187 2.135 . S
Co196 O197 2.216 . S
Co196 O198 2.091 . S
Co196 O200 2.004 . S
Co196 O206 2.021 . S
Co196 O208 2.137 1_554 S
Co196 O209 2.244 1_554 S
O197 Co196 2.216 . S
O197 C204 1.247 . S
O198 Co196 2.091 . S
O198 C204 1.261 . S
C199 O208 1.247 . S
C199 O209 1.272 . S
O200 Co196 2.004 . S
O200 C205 1.259 . S
Co201 O202 2.061 . S
Co201 O207 2.052 . S
Co201 O209 2.135 1_554 S
O202 Co201 2.061 . S
O202 C205 1.235 . S
C203 O206 1.238 . S
C203 O207 1.241 . S
C204 O197 1.247 . S
C204 O198 1.261 . S
C205 O200 1.259 . S
C205 O202 1.235 . S
O206 Co196 2.021 . S
O206 C203 1.238 . S
O207 Co201 2.052 . S
O207 C203 1.241 . S
O208 Co196 2.137 1_556 S
O208 C199 1.247 . S
O209 Co196 2.244 1_556 S
O209 C199 1.272 . S
O209 Co201 2.135 1_556 S
Co210 O211 2.216 . S
Co210 O212 2.091 . S
Co210 O214 2.004 . S
Co210 O220 2.021 . S
Co210 O222 2.137 . S
Co210 O223 2.244 . S
O211 Co210 2.216 . S
O211 C218 1.247 . S
O212 Co210 2.091 . S
O212 C218 1.261 . S
C213 O222 1.247 . S
C213 O223 1.272 . S
O214 Co210 2.004 . S
O214 C219 1.259 . S
Co215 O216 2.061 1_655 S
Co215 O221 2.052 . S
Co215 O223 2.135 1_655 S
O216 Co215 2.061 1_455 S
O216 C219 1.235 . S
C217 O220 1.238 . S
C217 O221 1.241 1_455 S
C218 O211 1.247 . S
C218 O212 1.261 . S
C219 O214 1.259 . S
C219 O216 1.235 . S
O220 Co210 2.021 . S
O220 C217 1.238 . S
O221 Co215 2.052 . S
O221 C217 1.241 1_655 S
O222 Co210 2.137 . S
O222 C213 1.247 . S
O223 Co210 2.244 . S
O223 C213 1.272 . S
O223 Co215 2.135 1_455 S
Co224 O225 2.216 . S
Co224 O226 2.091 . S
Co224 O228 2.004 . S
Co224 O234 2.021 . S
Co224 O236 2.137 . S
Co224 O237 2.244 . S
O225 Co224 2.216 . S
O225 C232 1.247 . S
O226 Co224 2.091 . S
O226 C232 1.261 . S
C227 O236 1.247 . S
C227 O237 1.272 . S
O228 Co224 2.004 . S
O228 C233 1.259 . S
Co229 O230 2.061 . S
Co229 O235 2.052 . S
Co229 O237 2.135 . S
O230 Co229 2.061 . S
O230 C233 1.235 . S
C231 O234 1.238 . S
C231 O235 1.241 . S
C232 O225 1.247 . S
C232 O226 1.261 . S
C233 O228 1.259 . S
C233 O230 1.235 . S
O234 Co224 2.021 . S
O234 C231 1.238 . S
O235 Co229 2.052 . S
O235 C231 1.241 . S
O236 Co224 2.137 . S
O236 C227 1.247 . S
O237 Co224 2.244 . S
O237 C227 1.272 . S
O237 Co229 2.135 . S
Co238 O239 2.216 . S
Co238 O240 2.091 . S
Co238 O242 2.004 . S
Co238 O248 2.021 . S
Co238 O250 2.137 . S
Co238 O251 2.244 . S
O239 Co238 2.216 . S
O239 C246 1.247 . S
O240 Co238 2.091 . S
O240 C246 1.261 . S
C241 O250 1.247 . S
C241 O251 1.272 . S
O242 Co238 2.004 . S
O242 C247 1.259 . S
Co243 O244 2.061 . S
Co243 O249 2.052 . S
Co243 O251 2.135 . S
O244 Co243 2.061 . S
O244 C247 1.235 . S
C245 O248 1.238 . S
C245 O249 1.241 . S
C246 O239 1.247 . S
C246 O240 1.261 . S
C247 O242 1.259 . S
C247 O244 1.235 . S
O248 Co238 2.021 . S
O248 C245 1.238 . S
O249 Co243 2.052 . S
O249 C245 1.241 . S
O250 Co238 2.137 . S
O250 C241 1.247 . S
O251 Co238 2.244 . S
O251 C241 1.272 . S
O251 Co243 2.135 . S
Co252 O253 2.216 . S
Co252 O254 2.091 . S
Co252 O256 2.004 . S
Co252 O262 2.021 . S
Co252 O264 2.137 1_554 S
Co252 O265 2.244 1_554 S
O253 Co252 2.216 . S
O253 C260 1.247 . S
O254 Co252 2.091 . S
O254 C260 1.261 . S
C255 O264 1.247 . S
C255 O265 1.272 . S
O256 Co252 2.004 . S
O256 C261 1.259 . S
Co257 O258 2.061 . S
Co257 O263 2.052 . S
Co257 O265 2.135 1_554 S
O258 Co257 2.061 . S
O258 C261 1.235 . S
C259 O262 1.238 . S
C259 O263 1.241 . S
C260 O253 1.247 . S
C260 O254 1.261 . S
C261 O256 1.259 . S
C261 O258 1.235 . S
O262 Co252 2.021 . S
O262 C259 1.238 . S
O263 Co257 2.052 . S
O263 C259 1.241 . S
O264 Co252 2.137 1_556 S
O264 C255 1.247 . S
O265 Co252 2.244 1_556 S
O265 C255 1.272 . S
O265 Co257 2.135 1_556 S
Co266 O267 2.216 . S
Co266 O268 2.091 . S
Co266 O270 2.004 . S
Co266 O276 2.021 . S
Co266 O278 2.137 . S
Co266 O279 2.244 . S
O267 Co266 2.216 . S
O267 C274 1.247 . S
O268 Co266 2.091 . S
O268 C274 1.261 . S
C269 O278 1.247 . S
C269 O279 1.272 . S
O270 Co266 2.004 . S
O270 C275 1.259 . S
Co271 O272 2.061 1_655 S
Co271 O277 2.052 . S
Co271 O279 2.135 1_655 S
O272 Co271 2.061 1_455 S
O272 C275 1.235 . S
C273 O276 1.238 . S
C273 O277 1.241 1_455 S
C274 O267 1.247 . S
C274 O268 1.261 . S
C275 O270 1.259 . S
C275 O272 1.235 . S
O276 Co266 2.021 . S
O276 C273 1.238 . S
O277 Co271 2.052 . S
O277 C273 1.241 1_655 S
O278 Co266 2.137 . S
O278 C269 1.247 . S
O279 Co266 2.244 . S
O279 C269 1.272 . S
O279 Co271 2.135 1_455 S
Co280 O281 2.216 . S
Co280 O282 2.091 . S
Co280 O284 2.004 . S
Co280 O290 2.021 . S
Co280 O292 2.137 1_556 S
Co280 O293 2.244 1_556 S
O281 Co280 2.216 . S
O281 C288 1.247 . S
O282 Co280 2.091 . S
O282 C288 1.261 . S
C283 O292 1.247 . S
C283 O293 1.272 . S
O284 Co280 2.004 . S
O284 C289 1.259 . S
Co285 O286 2.061 . S
Co285 O291 2.052 . S
Co285 O293 2.135 1_556 S
O286 Co285 2.061 . S
O286 C289 1.235 . S
C287 O290 1.238 . S
C287 O291 1.241 . S
C288 O281 1.247 . S
C288 O282 1.261 . S
C289 O284 1.259 . S
C289 O286 1.235 . S
O290 Co280 2.021 . S
O290 C287 1.238 . S
O291 Co285 2.052 . S
O291 C287 1.241 . S
O292 Co280 2.137 1_554 S
O292 C283 1.247 . S
O293 Co280 2.244 1_554 S
O293 C283 1.272 . S
O293 Co285 2.135 1_554 S
Co294 O295 2.216 . S
Co294 O296 2.091 . S
Co294 O298 2.004 . S
Co294 O304 2.021 . S
Co294 O306 2.137 . S
Co294 O307 2.244 . S
O295 Co294 2.216 . S
O295 C302 1.247 . S
O296 Co294 2.091 . S
O296 C302 1.261 . S
C297 O306 1.247 . S
C297 O307 1.272 . S
O298 Co294 2.004 . S
O298 C303 1.259 . S
Co299 O300 2.061 1_655 S
Co299 O305 2.052 . S
Co299 O307 2.135 1_655 S
O300 Co299 2.061 1_455 S
O300 C303 1.235 . S
C301 O304 1.238 . S
C301 O305 1.241 1_455 S
C302 O295 1.247 . S
C302 O296 1.261 . S
C303 O298 1.259 . S
C303 O300 1.235 . S
O304 Co294 2.021 . S
O304 C301 1.238 . S
O305 Co299 2.052 . S
O305 C301 1.241 1_655 S
O306 Co294 2.137 . S
O306 C297 1.247 . S
O307 Co294 2.244 . S
O307 C297 1.272 . S
O307 Co299 2.135 1_455 S
Co308 O309 2.216 . S
Co308 O310 2.091 . S
Co308 O312 2.004 . S
Co308 O318 2.021 . S
Co308 O320 2.137 . S
Co308 O321 2.244 . S
O309 Co308 2.216 . S
O309 C316 1.247 . S
O310 Co308 2.091 . S
O310 C316 1.261 . S
C311 O320 1.247 . S
C311 O321 1.272 . S
O312 Co308 2.004 . S
O312 C317 1.259 . S
Co313 O314 2.061 . S
Co313 O319 2.052 . S
Co313 O321 2.135 . S
O314 Co313 2.061 . S
O314 C317 1.235 . S
C315 O318 1.238 . S
C315 O319 1.241 . S
C316 O309 1.247 . S
C316 O310 1.261 . S
C317 O312 1.259 . S
C317 O314 1.235 . S
O318 Co308 2.021 . S
O318 C315 1.238 . S
O319 Co313 2.052 . S
O319 C315 1.241 . S
O320 Co308 2.137 . S
O320 C311 1.247 . S
O321 Co308 2.244 . S
O321 C311 1.272 . S
O321 Co313 2.135 . S
Co322 O323 2.216 . S
Co322 O324 2.091 . S
Co322 O326 2.004 . S
Co322 O332 2.021 . S
Co322 O334 2.137 . S
Co322 O335 2.244 . S
O323 Co322 2.216 . S
O323 C330 1.247 . S
O324 Co322 2.091 . S
O324 C330 1.261 . S
C325 O334 1.247 . S
C325 O335 1.272 . S
O326 Co322 2.004 . S
O326 C331 1.259 . S
Co327 O328 2.061 . S
Co327 O333 2.052 . S
Co327 O335 2.135 . S
O328 Co327 2.061 . S
O328 C331 1.235 . S
C329 O332 1.238 . S
C329 O333 1.241 . S
C330 O323 1.247 . S
C330 O324 1.261 . S
C331 O326 1.259 . S
C331 O328 1.235 . S
O332 Co322 2.021 . S
O332 C329 1.238 . S
O333 Co327 2.052 . S
O333 C329 1.241 . S
O334 Co322 2.137 . S
O334 C325 1.247 . S
O335 Co322 2.244 . S
O335 C325 1.272 . S
O335 Co327 2.135 . S
Co336 O337 2.216 . S
Co336 O338 2.091 . S
Co336 O340 2.004 . S
Co336 O346 2.021 . S
Co336 O348 2.137 . S
Co336 O349 2.244 . S
O337 Co336 2.216 . S
O337 C344 1.247 . S
O338 Co336 2.091 . S
O338 C344 1.261 . S
C339 O348 1.247 . S
C339 O349 1.272 . S
O340 Co336 2.004 . S
O340 C345 1.259 . S
Co341 O342 2.061 . S
Co341 O347 2.052 . S
Co341 O349 2.135 . S
O342 Co341 2.061 . S
O342 C345 1.235 . S
C343 O346 1.238 . S
C343 O347 1.241 . S
C344 O337 1.247 . S
C344 O338 1.261 . S
C345 O340 1.259 . S
C345 O342 1.235 . S
O346 Co336 2.021 . S
O346 C343 1.238 . S
O347 Co341 2.052 . S
O347 C343 1.241 . S
O348 Co336 2.137 . S
O348 C339 1.247 . S
O349 Co336 2.244 . S
O349 C339 1.272 . S
O349 Co341 2.135 . S
Co350 O351 2.216 . S
Co350 O352 2.091 . S
Co350 O354 2.004 . S
Co350 O360 2.021 . S
Co350 O362 2.137 . S
Co350 O363 2.244 . S
O351 Co350 2.216 . S
O351 C358 1.247 . S
O352 Co350 2.091 . S
O352 C358 1.261 . S
C353 O362 1.247 . S
C353 O363 1.272 . S
O354 Co350 2.004 . S
O354 C359 1.259 . S
Co355 O356 2.061 . S
Co355 O361 2.052 . S
Co355 O363 2.135 . S
O356 Co355 2.061 . S
O356 C359 1.235 . S
C357 O360 1.238 . S
C357 O361 1.241 . S
C358 O351 1.247 . S
C358 O352 1.261 . S
C359 O354 1.259 . S
C359 O356 1.235 . S
O360 Co350 2.021 . S
O360 C357 1.238 . S
O361 Co355 2.052 . S
O361 C357 1.241 . S
O362 Co350 2.137 . S
O362 C353 1.247 . S
O363 Co350 2.244 . S
O363 C353 1.272 . S
O363 Co355 2.135 . S
Co364 O365 2.216 . S
Co364 O366 2.091 . S
Co364 O368 2.004 . S
Co364 O374 2.021 . S
Co364 O376 2.137 1_556 S
Co364 O377 2.244 1_556 S
O365 Co364 2.216 . S
O365 C372 1.247 . S
O366 Co364 2.091 . S
O366 C372 1.261 . S
C367 O376 1.247 . S
C367 O377 1.272 . S
O368 Co364 2.004 . S
O368 C373 1.259 . S
Co369 O370 2.061 . S
Co369 O375 2.052 . S
Co369 O377 2.135 1_556 S
O370 Co369 2.061 . S
O370 C373 1.235 . S
C371 O374 1.238 . S
C371 O375 1.241 . S
C372 O365 1.247 . S
C372 O366 1.261 . S
C373 O368 1.259 . S
C373 O370 1.235 . S
O374 Co364 2.021 . S
O374 C371 1.238 . S
O375 Co369 2.052 . S
O375 C371 1.241 . S
O376 Co364 2.137 1_554 S
O376 C367 1.247 . S
O377 Co364 2.244 1_554 S
O377 C367 1.272 . S
O377 Co369 2.135 1_554 S
Co378 O379 2.216 . S
Co378 O380 2.091 . S
Co378 O382 2.004 . S
Co378 O388 2.021 . S
Co378 O390 2.137 . S
Co378 O391 2.244 . S
O379 Co378 2.216 . S
O379 C386 1.247 . S
O380 Co378 2.091 . S
O380 C386 1.261 . S
C381 O390 1.247 . S
C381 O391 1.272 . S
O382 Co378 2.004 . S
O382 C387 1.259 . S
Co383 O384 2.061 1_455 S
Co383 O389 2.052 . S
Co383 O391 2.135 1_455 S
O384 Co383 2.061 1_655 S
O384 C387 1.235 . S
C385 O388 1.238 . S
C385 O389 1.241 1_655 S
C386 O379 1.247 . S
C386 O380 1.261 . S
C387 O382 1.259 . S
C387 O384 1.235 . S
O388 Co378 2.021 . S
O388 C385 1.238 . S
O389 Co383 2.052 . S
O389 C385 1.241 1_455 S
O390 Co378 2.137 . S
O390 C381 1.247 . S
O391 Co378 2.244 . S
O391 C381 1.272 . S
O391 Co383 2.135 1_655 S
Co392 O393 2.216 . S
Co392 O394 2.091 . S
Co392 O396 2.004 . S
Co392 O402 2.021 . S
Co392 O404 2.137 1_554 S
Co392 O405 2.244 1_554 S
O393 Co392 2.216 . S
O393 C400 1.247 . S
O394 Co392 2.091 . S
O394 C400 1.261 . S
C395 O404 1.247 . S
C395 O405 1.272 . S
O396 Co392 2.004 . S
O396 C401 1.259 . S
Co397 O398 2.061 . S
Co397 O403 2.052 . S
Co397 O405 2.135 1_554 S
O398 Co397 2.061 . S
O398 C401 1.235 . S
C399 O402 1.238 . S
C399 O403 1.241 . S
C400 O393 1.247 . S
C400 O394 1.261 . S
C401 O396 1.259 . S
C401 O398 1.235 . S
O402 Co392 2.021 . S
O402 C399 1.238 . S
O403 Co397 2.052 . S
O403 C399 1.241 . S
O404 Co392 2.137 1_556 S
O404 C395 1.247 . S
O405 Co392 2.244 1_556 S
O405 C395 1.272 . S
O405 Co397 2.135 1_556 S
Co406 O407 2.216 . S
Co406 O408 2.091 . S
Co406 O410 2.004 . S
Co406 O416 2.021 . S
Co406 O418 2.137 . S
Co406 O419 2.244 . S
O407 Co406 2.216 . S
O407 C414 1.247 . S
O408 Co406 2.091 . S
O408 C414 1.261 . S
C409 O418 1.247 . S
C409 O419 1.272 . S
O410 Co406 2.004 . S
O410 C415 1.259 . S
Co411 O412 2.061 1_455 S
Co411 O417 2.052 . S
Co411 O419 2.135 1_455 S
O412 Co411 2.061 1_655 S
O412 C415 1.235 . S
C413 O416 1.238 . S
C413 O417 1.241 1_655 S
C414 O407 1.247 . S
C414 O408 1.261 . S
C415 O410 1.259 . S
C415 O412 1.235 . S
O416 Co406 2.021 . S
O416 C413 1.238 . S
O417 Co411 2.052 . S
O417 C413 1.241 1_455 S
O418 Co406 2.137 . S
O418 C409 1.247 . S
O419 Co406 2.244 . S
O419 C409 1.272 . S
O419 Co411 2.135 1_655 S
Co420 O421 2.216 . S
Co420 O422 2.091 . S
Co420 O424 2.004 . S
Co420 O430 2.021 . S
Co420 O432 2.137 . S
Co420 O433 2.244 . S
O421 Co420 2.216 . S
O421 C428 1.247 . S
O422 Co420 2.091 . S
O422 C428 1.261 . S
C423 O432 1.247 . S
C423 O433 1.272 . S
O424 Co420 2.004 . S
O424 C429 1.259 . S
Co425 O426 2.061 . S
Co425 O431 2.052 . S
Co425 O433 2.135 . S
O426 Co425 2.061 . S
O426 C429 1.235 . S
C427 O430 1.238 . S
C427 O431 1.241 . S
C428 O421 1.247 . S
C428 O422 1.261 . S
C429 O424 1.259 . S
C429 O426 1.235 . S
O430 Co420 2.021 . S
O430 C427 1.238 . S
O431 Co425 2.052 . S
O431 C427 1.241 . S
O432 Co420 2.137 . S
O432 C423 1.247 . S
O433 Co420 2.244 . S
O433 C423 1.272 . S
O433 Co425 2.135 . S
Co434 O435 2.216 . S
Co434 O436 2.091 . S
Co434 O438 2.004 . S
Co434 O444 2.021 . S
Co434 O446 2.137 . S
Co434 O447 2.244 . S
O435 Co434 2.216 . S
O435 C442 1.247 . S
O436 Co434 2.091 . S
O436 C442 1.261 . S
C437 O446 1.247 . S
C437 O447 1.272 . S
O438 Co434 2.004 . S
O438 C443 1.259 . S
Co439 O440 2.061 . S
Co439 O445 2.052 . S
Co439 O447 2.135 . S
O440 Co439 2.061 . S
O440 C443 1.235 . S
C441 O444 1.238 . S
C441 O445 1.241 . S
C442 O435 1.247 . S
C442 O436 1.261 . S
C443 O438 1.259 . S
C443 O440 1.235 . S
O444 Co434 2.021 . S
O444 C441 1.238 . S
O445 Co439 2.052 . S
O445 C441 1.241 . S
O446 Co434 2.137 . S
O446 C437 1.247 . S
O447 Co434 2.244 . S
O447 C437 1.272 . S
O447 Co439 2.135 . S
C448 C449 1.363 . S
C448 C454 1.379 . S
C448 N456 1.356 . S
C449 C448 1.363 . S
C449 C455 1.363 1_556 S
C450 C451 1.363 . S
C450 C455 1.379 . S
C450 N457 1.356 . S
C451 C450 1.363 . S
C451 C454 1.363 1_554 S
N452 C454 1.356 . S
N452 H464 0.984 . S
N452 H465 0.985 . S
N453 C455 1.356 . S
N453 H458 0.984 . S
N453 H459 0.985 . S
C454 C448 1.379 . S
C454 C451 1.363 1_556 S
C454 N452 1.356 . S
C455 C449 1.363 1_554 S
C455 C450 1.379 . S
C455 N453 1.356 . S
N456 C448 1.356 . S
N456 H462 0.984 . S
N456 H463 0.984 . S
N457 C450 1.356 . S
N457 H460 0.984 . S
N457 H461 0.985 . S
H458 N453 0.984 . S
H459 N453 0.985 . S
H460 N457 0.984 . S
H461 N457 0.985 . S
H462 N456 0.984 . S
H463 N456 0.984 . S
H464 N452 0.984 . S
H465 N452 0.985 . S
C466 C467 1.363 . S
C466 C472 1.379 1_565 S
C466 N474 1.356 . S
C467 C466 1.363 . S
C467 C473 1.363 . S
C468 C469 1.363 . S
C468 C473 1.379 1_545 S
C468 N475 1.356 . S
C469 C468 1.363 . S
C469 C472 1.363 . S
N470 C472 1.356 . S
N470 H482 0.984 . S
N470 H483 0.985 . S
N471 C473 1.356 . S
N471 H476 0.984 . S
N471 H477 0.985 . S
C472 C466 1.379 1_545 S
C472 C469 1.363 . S
C472 N470 1.356 . S
C473 C467 1.363 . S
C473 C468 1.379 1_565 S
C473 N471 1.356 . S
N474 C466 1.356 . S
N474 H480 0.984 . S
N474 H481 0.984 . S
N475 C468 1.356 . S
N475 H478 0.984 . S
N475 H479 0.985 . S
H476 N471 0.984 . S
H477 N471 0.985 . S
H478 N475 0.984 . S
H479 N475 0.985 . S
H480 N474 0.984 . S
H481 N474 0.984 . S
H482 N470 0.984 . S
H483 N470 0.985 . S
C484 C485 1.363 . S
C484 C490 1.379 . S
C484 N492 1.356 . S
C485 C484 1.363 . S
C485 C491 1.363 . S
C486 C487 1.363 . S
C486 C491 1.379 . S
C486 N493 1.356 . S
C487 C486 1.363 . S
C487 C490 1.363 . S
N488 C490 1.356 . S
N488 H500 0.984 . S
N488 H501 0.985 . S
N489 C491 1.356 . S
N489 H494 0.984 . S
N489 H495 0.985 . S
C490 C484 1.379 . S
C490 C487 1.363 . S
C490 N488 1.356 . S
C491 C485 1.363 . S
C491 C486 1.379 . S
C491 N489 1.356 . S
N492 C484 1.356 . S
N492 H498 0.984 . S
N492 H499 0.984 . S
N493 C486 1.356 . S
N493 H496 0.984 . S
N493 H497 0.985 . S
H494 N489 0.984 . S
H495 N489 0.985 . S
H496 N493 0.984 . S
H497 N493 0.985 . S
H498 N492 0.984 . S
H499 N492 0.984 . S
H500 N488 0.984 . S
H501 N488 0.985 . S
C502 C503 1.363 . S
C502 C508 1.379 1_545 S
C502 N510 1.356 . S
C503 C502 1.363 . S
C503 C509 1.363 . S
C504 C505 1.363 . S
C504 C509 1.379 1_565 S
C504 N511 1.356 . S
C505 C504 1.363 . S
C505 C508 1.363 . S
N506 C508 1.356 . S
N506 H518 0.984 . S
N506 H519 0.985 . S
N507 C509 1.356 . S
N507 H512 0.984 . S
N507 H513 0.985 . S
C508 C502 1.379 1_565 S
C508 C505 1.363 . S
C508 N506 1.356 . S
C509 C503 1.363 . S
C509 C504 1.379 1_545 S
C509 N507 1.356 . S
N510 C502 1.356 . S
N510 H516 0.984 . S
N510 H517 0.984 . S
N511 C504 1.356 . S
N511 H514 0.984 . S
N511 H515 0.985 . S
H512 N507 0.984 . S
H513 N507 0.985 . S
H514 N511 0.984 . S
H515 N511 0.985 . S
H516 N510 0.984 . S
H517 N510 0.984 . S
H518 N506 0.984 . S
H519 N506 0.985 . S
C520 C521 1.363 . S
C520 C526 1.379 . S
C520 N528 1.356 . S
C521 C520 1.363 . S
C521 C527 1.363 1_554 S
C522 C523 1.363 . S
C522 C527 1.379 . S
C522 N529 1.356 . S
C523 C522 1.363 . S
C523 C526 1.363 1_556 S
N524 C526 1.356 . S
N524 H536 0.984 . S
N524 H537 0.985 . S
N525 C527 1.356 . S
N525 H530 0.984 . S
N525 H531 0.985 . S
C526 C520 1.379 . S
C526 C523 1.363 1_554 S
C526 N524 1.356 . S
C527 C521 1.363 1_556 S
C527 C522 1.379 . S
C527 N525 1.356 . S
N528 C520 1.356 . S
N528 H534 0.984 . S
N528 H535 0.984 . S
N529 C522 1.356 . S
N529 H532 0.984 . S
N529 H533 0.985 . S
H530 N525 0.984 . S
H531 N525 0.985 . S
H532 N529 0.984 . S
H533 N529 0.985 . S
H534 N528 0.984 . S
H535 N528 0.984 . S
H536 N524 0.984 . S
H537 N524 0.985 . S
C538 C539 1.363 . S
C538 C544 1.379 1_565 S
C538 N546 1.356 . S
C539 C538 1.363 . S
C539 C545 1.363 . S
C540 C541 1.363 . S
C540 C545 1.379 1_545 S
C540 N547 1.356 . S
C541 C540 1.363 . S
C541 C544 1.363 . S
N542 C544 1.356 . S
N542 H554 0.984 . S
N542 H555 0.985 . S
N543 C545 1.356 . S
N543 H548 0.984 . S
N543 H549 0.985 1_455 S
C544 C538 1.379 1_545 S
C544 C541 1.363 . S
C544 N542 1.356 . S
C545 C539 1.363 . S
C545 C540 1.379 1_565 S
C545 N543 1.356 . S
N546 C538 1.356 . S
N546 H552 0.984 . S
N546 H553 0.984 . S
N547 C540 1.356 . S
N547 H550 0.984 . S
N547 H551 0.985 1_455 S
H548 N543 0.984 . S
H549 N543 0.985 1_655 S
H550 N547 0.984 . S
H551 N547 0.985 1_655 S
H552 N546 0.984 . S
H553 N546 0.984 . S
H554 N542 0.984 . S
H555 N542 0.985 . S
C556 C557 1.363 . S
C556 C562 1.379 . S
C556 N564 1.356 . S
C557 C556 1.363 . S
C557 C563 1.363 . S
C558 C559 1.363 . S
C558 C563 1.379 . S
C558 N565 1.356 . S
C559 C558 1.363 . S
C559 C562 1.363 . S
N560 C562 1.356 . S
N560 H572 0.984 . S
N560 H573 0.985 . S
N561 C563 1.356 . S
N561 H566 0.984 . S
N561 H567 0.985 . S
C562 C556 1.379 . S
C562 C559 1.363 . S
C562 N560 1.356 . S
C563 C557 1.363 . S
C563 C558 1.379 . S
C563 N561 1.356 . S
N564 C556 1.356 . S
N564 H570 0.984 . S
N564 H571 0.984 . S
N565 C558 1.356 . S
N565 H568 0.984 . S
N565 H569 0.985 . S
H566 N561 0.984 . S
H567 N561 0.985 . S
H568 N565 0.984 . S
H569 N565 0.985 . S
H570 N564 0.984 . S
H571 N564 0.984 . S
H572 N560 0.984 . S
H573 N560 0.985 . S
C574 C575 1.363 . S
C574 C580 1.379 1_565 S
C574 N582 1.356 . S
C575 C574 1.363 . S
C575 C581 1.363 . S
C576 C577 1.363 . S
C576 C581 1.379 1_545 S
C576 N583 1.356 . S
C577 C576 1.363 . S
C577 C580 1.363 . S
N578 C580 1.356 . S
N578 H590 0.984 . S
N578 H591 0.985 . S
N579 C581 1.356 . S
N579 H584 0.984 . S
N579 H585 0.985 . S
C580 C574 1.379 1_545 S
C580 C577 1.363 . S
C580 N578 1.356 . S
C581 C575 1.363 . S
C581 C576 1.379 1_565 S
C581 N579 1.356 . S
N582 C574 1.356 . S
N582 H588 0.984 . S
N582 H589 0.984 . S
N583 C576 1.356 . S
N583 H586 0.984 . S
N583 H587 0.985 . S
H584 N579 0.984 . S
H585 N579 0.985 . S
H586 N583 0.984 . S
H587 N583 0.985 . S
H588 N582 0.984 . S
H589 N582 0.984 . S
H590 N578 0.984 . S
H591 N578 0.985 . S
C592 C593 1.363 . S
C592 C598 1.379 . S
C592 N600 1.356 . S
C593 C592 1.363 . S
C593 C599 1.363 . S
C594 C595 1.363 . S
C594 C599 1.379 . S
C594 N601 1.356 . S
C595 C594 1.363 . S
C595 C598 1.363 . S
N596 C598 1.356 . S
N596 H608 0.984 . S
N596 H609 0.985 . S
N597 C599 1.356 . S
N597 H602 0.984 . S
N597 H603 0.985 . S
C598 C592 1.379 . S
C598 C595 1.363 . S
C598 N596 1.356 . S
C599 C593 1.363 . S
C599 C594 1.379 . S
C599 N597 1.356 . S
N600 C592 1.356 . S
N600 H606 0.984 . S
N600 H607 0.984 . S
N601 C594 1.356 . S
N601 H604 0.984 . S
N601 H605 0.985 . S
H602 N597 0.984 . S
H603 N597 0.985 . S
H604 N601 0.984 . S
H605 N601 0.985 . S
H606 N600 0.984 . S
H607 N600 0.984 . S
H608 N596 0.984 . S
H609 N596 0.985 . S
C610 C611 1.363 . S
C610 C616 1.379 . S
C610 N618 1.356 . S
C611 C610 1.363 . S
C611 C617 1.363 . S
C612 C613 1.363 . S
C612 C617 1.379 . S
C612 N619 1.356 . S
C613 C612 1.363 . S
C613 C616 1.363 . S
N614 C616 1.356 . S
N614 H626 0.984 . S
N614 H627 0.985 . S
N615 C617 1.356 . S
N615 H620 0.984 . S
N615 H621 0.985 . S
C616 C610 1.379 . S
C616 C613 1.363 . S
C616 N614 1.356 . S
C617 C611 1.363 . S
C617 C612 1.379 . S
C617 N615 1.356 . S
N618 C610 1.356 . S
N618 H624 0.984 . S
N618 H625 0.984 . S
N619 C612 1.356 . S
N619 H622 0.984 . S
N619 H623 0.985 . S
H620 N615 0.984 . S
H621 N615 0.985 . S
H622 N619 0.984 . S
H623 N619 0.985 . S
H624 N618 0.984 . S
H625 N618 0.984 . S
H626 N614 0.984 . S
H627 N614 0.985 . S
C628 C629 1.363 . S
C628 C634 1.379 . S
C628 N636 1.356 . S
C629 C628 1.363 . S
C629 C635 1.363 1_556 S
C630 C631 1.363 . S
C630 C635 1.379 . S
C630 N637 1.356 . S
C631 C630 1.363 . S
C631 C634 1.363 1_554 S
N632 C634 1.356 . S
N632 H644 0.984 . S
N632 H645 0.985 . S
N633 C635 1.356 . S
N633 H638 0.984 . S
N633 H639 0.985 . S
C634 C628 1.379 . S
C634 C631 1.363 1_556 S
C634 N632 1.356 . S
C635 C629 1.363 1_554 S
C635 C630 1.379 . S
C635 N633 1.356 . S
N636 C628 1.356 . S
N636 H642 0.984 . S
N636 H643 0.984 . S
N637 C630 1.356 . S
N637 H640 0.984 . S
N637 H641 0.985 . S
H638 N633 0.984 . S
H639 N633 0.985 . S
H640 N637 0.984 . S
H641 N637 0.985 . S
H642 N636 0.984 . S
H643 N636 0.984 . S
H644 N632 0.984 . S
H645 N632 0.985 . S
C646 C647 1.363 . S
C646 C652 1.379 . S
C646 N654 1.356 . S
C647 C646 1.363 . S
C647 C653 1.363 . S
C648 C649 1.363 . S
C648 C653 1.379 . S
C648 N655 1.356 . S
C649 C648 1.363 . S
C649 C652 1.363 . S
N650 C652 1.356 . S
N650 H662 0.984 . S
N650 H663 0.985 . S
N651 C653 1.356 . S
N651 H656 0.984 . S
N651 H657 0.985 . S
C652 C646 1.379 . S
C652 C649 1.363 . S
C652 N650 1.356 . S
C653 C647 1.363 . S
C653 C648 1.379 . S
C653 N651 1.356 . S
N654 C646 1.356 . S
N654 H660 0.984 . S
N654 H661 0.984 . S
N655 C648 1.356 . S
N655 H658 0.984 . S
N655 H659 0.985 . S
H656 N651 0.984 . S
H657 N651 0.985 . S
H658 N655 0.984 . S
H659 N655 0.985 . S
H660 N654 0.984 . S
H661 N654 0.984 . S
H662 N650 0.984 . S
H663 N650 0.985 . S
C664 C665 1.363 . S
C664 C670 1.379 . S
C664 N672 1.356 . S
C665 C664 1.363 . S
C665 C671 1.363 . S
C666 C667 1.363 . S
C666 C671 1.379 . S
C666 N673 1.356 . S
C667 C666 1.363 . S
C667 C670 1.363 . S
N668 C670 1.356 . S
N668 H680 0.984 . S
N668 H681 0.985 . S
N669 C671 1.356 . S
N669 H674 0.984 . S
N669 H675 0.985 . S
C670 C664 1.379 . S
C670 C667 1.363 . S
C670 N668 1.356 . S
C671 C665 1.363 . S
C671 C666 1.379 . S
C671 N669 1.356 . S
N672 C664 1.356 . S
N672 H678 0.984 . S
N672 H679 0.984 . S
N673 C666 1.356 . S
N673 H676 0.984 . S
N673 H677 0.985 . S
H674 N669 0.984 . S
H675 N669 0.985 . S
H676 N673 0.984 . S
H677 N673 0.985 . S
H678 N672 0.984 . S
H679 N672 0.984 . S
H680 N668 0.984 . S
H681 N668 0.985 . S
C682 C683 1.363 . S
C682 C688 1.379 . S
C682 N690 1.356 . S
C683 C682 1.363 . S
C683 C689 1.363 . S
C684 C685 1.363 . S
C684 C689 1.379 . S
C684 N691 1.356 . S
C685 C684 1.363 . S
C685 C688 1.363 . S
N686 C688 1.356 . S
N686 H698 0.984 . S
N686 H699 0.985 . S
N687 C689 1.356 . S
N687 H692 0.984 . S
N687 H693 0.985 . S
C688 C682 1.379 . S
C688 C685 1.363 . S
C688 N686 1.356 . S
C689 C683 1.363 . S
C689 C684 1.379 . S
C689 N687 1.356 . S
N690 C682 1.356 . S
N690 H696 0.984 . S
N690 H697 0.984 . S
N691 C684 1.356 . S
N691 H694 0.984 . S
N691 H695 0.985 . S
H692 N687 0.984 . S
H693 N687 0.985 . S
H694 N691 0.984 . S
H695 N691 0.985 . S
H696 N690 0.984 . S
H697 N690 0.984 . S
H698 N686 0.984 . S
H699 N686 0.985 . S
C700 C701 1.363 1_556 S
C700 C706 1.379 . S
C700 N708 1.356 . S
C701 C700 1.363 1_554 S
C701 C707 1.363 . S
C702 C703 1.363 1_554 S
C702 C707 1.379 . S
C702 N709 1.356 . S
C703 C702 1.363 1_556 S
C703 C706 1.363 . S
N704 C706 1.356 . S
N704 H716 0.984 . S
N704 H717 0.985 . S
N705 C707 1.356 . S
N705 H710 0.984 . S
N705 H711 0.985 . S
C706 C700 1.379 . S
C706 C703 1.363 . S
C706 N704 1.356 . S
C707 C701 1.363 . S
C707 C702 1.379 . S
C707 N705 1.356 . S
N708 C700 1.356 . S
N708 H714 0.984 . S
N708 H715 0.984 . S
N709 C702 1.356 . S
N709 H712 0.984 . S
N709 H713 0.985 . S
H710 N705 0.984 . S
H711 N705 0.985 . S
H712 N709 0.984 . S
H713 N709 0.985 . S
H714 N708 0.984 . S
H715 N708 0.984 . S
H716 N704 0.984 . S
H717 N704 0.985 . S
C718 C719 1.363 . S
C718 C724 1.379 . S
C718 N726 1.356 . S
C719 C718 1.363 . S
C719 C725 1.363 . S
C720 C721 1.363 . S
C720 C725 1.379 . S
C720 N727 1.356 . S
C721 C720 1.363 . S
C721 C724 1.363 . S
N722 C724 1.356 . S
N722 H734 0.984 . S
N722 H735 0.985 . S
N723 C725 1.356 . S
N723 H728 0.984 . S
N723 H729 0.964 1_655 S
C724 C718 1.379 . S
C724 C721 1.363 . S
C724 N722 1.356 . S
C725 C719 1.363 . S
C725 C720 1.379 . S
C725 N723 1.356 . S
N726 C718 1.356 . S
N726 H732 0.984 . S
N726 H733 0.984 . S
N727 C720 1.356 . S
N727 H730 0.984 . S
N727 H731 0.964 1_655 S
H728 N723 0.984 . S
H729 N723 0.964 1_455 S
H730 N727 0.984 . S
H731 N727 0.964 1_455 S
H732 N726 0.984 . S
H733 N726 0.984 . S
H734 N722 0.984 . S
H735 N722 0.985 . S
C736 C737 1.363 . S
C736 C742 1.379 . S
C736 N744 1.356 . S
C737 C736 1.363 . S
C737 C743 1.363 . S
C738 C739 1.363 . S
C738 C743 1.379 . S
C738 N745 1.356 . S
C739 C738 1.363 . S
C739 C742 1.363 . S
N740 C742 1.356 . S
N740 H752 0.984 . S
N740 H753 0.985 . S
N741 C743 1.356 . S
N741 H746 0.984 . S
N741 H747 0.985 . S
C742 C736 1.379 . S
C742 C739 1.363 . S
C742 N740 1.356 . S
C743 C737 1.363 . S
C743 C738 1.379 . S
C743 N741 1.356 . S
N744 C736 1.356 . S
N744 H750 0.984 . S
N744 H751 0.984 . S
N745 C738 1.356 . S
N745 H748 0.984 . S
N745 H749 0.985 . S
H746 N741 0.984 . S
H747 N741 0.985 . S
H748 N745 0.984 . S
H749 N745 0.985 . S
H750 N744 0.984 . S
H751 N744 0.984 . S
H752 N740 0.984 . S
H753 N740 0.985 . S
C754 C755 1.363 1_554 S
C754 C760 1.379 . S
C754 N762 1.356 . S
C755 C754 1.363 1_556 S
C755 C761 1.363 1_456 S
C756 C757 1.363 . S
C756 C761 1.379 . S
C756 N763 1.356 . S
C757 C756 1.363 . S
C757 C760 1.363 1_655 S
N758 C760 1.356 . S
N758 H770 0.984 . S
N758 H771 1.001 . S
N759 C761 1.356 1_556 S
N759 H764 0.984 . S
N759 H765 0.985 . S
C760 C754 1.379 . S
C760 C757 1.363 1_455 S
C760 N758 1.356 . S
C761 C755 1.363 1_654 S
C761 C756 1.379 . S
C761 N759 1.356 1_554 S
N762 C754 1.356 . S
N762 H768 0.984 . S
N762 H769 0.984 1_554 S
N763 C756 1.356 . S
N763 H766 0.984 . S
N763 H767 0.985 . S
H764 N759 0.984 . S
H765 N759 0.985 . S
H766 N763 0.984 . S
H767 N763 0.985 . S
H768 N762 0.984 . S
H769 N762 0.984 1_556 S
H770 N758 0.984 . S
H771 N758 1.001 . S
C772 C773 1.363 . S
C772 C778 1.379 . S
C772 N780 1.356 . S
C773 C772 1.363 . S
C773 C779 1.363 . S
C774 C775 1.363 . S
C774 C779 1.379 . S
C774 N781 1.356 . S
C775 C774 1.363 . S
C775 C778 1.363 . S
N776 C778 1.356 . S
N776 H788 0.984 . S
N776 H789 0.985 . S
N777 C779 1.356 . S
N777 H782 0.984 . S
N777 H783 0.985 . S
C778 C772 1.379 . S
C778 C775 1.363 . S
C778 N776 1.356 . S
C779 C773 1.363 . S
C779 C774 1.379 . S
C779 N777 1.356 . S
N780 C772 1.356 . S
N780 H786 0.984 . S
N780 H787 0.984 . S
N781 C774 1.356 . S
N781 H784 0.984 . S
N781 H785 0.985 . S
H782 N777 0.984 . S
H783 N777 0.985 . S
H784 N781 0.984 . S
H785 N781 0.985 . S
H786 N780 0.984 . S
H787 N780 0.984 . S
H788 N776 0.984 . S
H789 N776 0.985 . S
C790 C791 1.363 . S
C790 C796 1.379 . S
C790 N798 1.356 . S
C791 C790 1.363 . S
C791 C797 1.363 . S
C792 C793 1.363 . S
C792 C797 1.379 . S
C792 N799 1.356 . S
C793 C792 1.363 . S
C793 C796 1.363 . S
N794 C796 1.356 . S
N794 H806 0.984 . S
N794 H807 0.985 . S
N795 C797 1.356 . S
N795 H800 0.984 . S
N795 H801 0.985 . S
C796 C790 1.379 . S
C796 C793 1.363 . S
C796 N794 1.356 . S
C797 C791 1.363 . S
C797 C792 1.379 . S
C797 N795 1.356 . S
N798 C790 1.356 . S
N798 H804 0.984 . S
N798 H805 0.984 . S
N799 C792 1.356 . S
N799 H802 0.984 . S
N799 H803 0.985 . S
H800 N795 0.984 . S
H801 N795 0.985 . S
H802 N799 0.984 . S
H803 N799 0.985 . S
H804 N798 0.984 . S
H805 N798 0.984 . S
H806 N794 0.984 . S
H807 N794 0.985 . S
C808 C809 1.363 . S
C808 C814 1.379 . S
C808 N816 1.356 . S
C809 C808 1.363 . S
C809 C815 1.363 . S
C810 C811 1.363 . S
C810 C815 1.379 . S
C810 N817 1.356 . S
C811 C810 1.363 . S
C811 C814 1.363 . S
N812 C814 1.356 . S
N812 H824 0.984 . S
N812 H825 0.985 . S
N813 C815 1.356 . S
N813 H818 0.984 . S
N813 H819 0.985 . S
C814 C808 1.379 . S
C814 C811 1.363 . S
C814 N812 1.356 . S
C815 C809 1.363 . S
C815 C810 1.379 . S
C815 N813 1.356 . S
N816 C808 1.356 . S
N816 H822 0.984 . S
N816 H823 0.984 . S
N817 C810 1.356 . S
N817 H820 0.984 . S
N817 H821 0.985 . S
H818 N813 0.984 . S
H819 N813 0.985 . S
H820 N817 0.984 . S
H821 N817 0.985 . S
H822 N816 0.984 . S
H823 N816 0.984 . S
H824 N812 0.984 . S
H825 N812 0.985 . S
C826 C827 1.363 1_556 S
C826 C832 1.379 . S
C826 N834 1.356 1_556 S
C827 C826 1.363 1_554 S
C827 C833 1.363 1_554 S
C828 C829 1.363 . S
C828 C833 1.379 . S
C828 N835 1.356 . S
C829 C828 1.363 . S
C829 C832 1.363 . S
N830 C832 1.356 . S
N830 H842 0.984 . S
N830 H843 0.985 . S
N831 C833 1.356 . S
N831 H836 0.984 1_556 S
N831 H837 0.985 . S
C832 C826 1.379 . S
C832 C829 1.363 . S
C832 N830 1.356 . S
C833 C827 1.363 1_556 S
C833 C828 1.379 . S
C833 N831 1.356 . S
N834 C826 1.356 1_554 S
N834 H840 0.984 . S
N834 H841 0.984 . S
N835 C828 1.356 . S
N835 H838 0.984 . S
N835 H839 0.985 . S
H836 N831 0.984 1_554 S
H837 N831 0.985 . S
H838 N835 0.984 . S
H839 N835 0.985 . S
H840 N834 0.984 . S
H841 N834 0.984 . S
H842 N830 0.984 . S
H843 N830 0.985 . S
C844 C845 1.363 . S
C844 C850 1.379 . S
C844 N852 1.356 . S
C845 C844 1.363 . S
C845 C851 1.363 . S
C846 C847 1.363 . S
C846 C851 1.379 . S
C846 N853 1.356 . S
C847 C846 1.363 . S
C847 C850 1.363 . S
N848 C850 1.356 . S
N848 H860 0.984 . S
N848 H861 0.985 . S
N849 C851 1.356 . S
N849 H854 0.984 . S
N849 H855 0.985 . S
C850 C844 1.379 . S
C850 C847 1.363 . S
C850 N848 1.356 . S
C851 C845 1.363 . S
C851 C846 1.379 . S
C851 N849 1.356 . S
N852 C844 1.356 . S
N852 H858 0.984 . S
N852 H859 0.984 . S
N853 C846 1.356 . S
N853 H856 0.984 . S
N853 H857 0.985 . S
H854 N849 0.984 . S
H855 N849 0.985 . S
H856 N853 0.984 . S
H857 N853 0.985 . S
H858 N852 0.984 . S
H859 N852 0.984 . S
H860 N848 0.984 . S
H861 N848 0.985 . S
C862 C863 1.363 1_655 S
C862 C868 1.379 . S
C862 N870 1.356 . S
C863 C862 1.363 1_455 S
C863 C869 1.363 . S
C864 C865 1.363 1_455 S
C864 C869 1.379 . S
C864 N871 1.356 . S
C865 C864 1.363 1_655 S
C865 C868 1.363 . S
N866 C868 1.356 . S
N866 H878 0.984 . S
N866 H879 0.985 . S
N867 C869 1.356 . S
N867 H872 0.984 . S
N867 H873 0.985 . S
C868 C862 1.379 . S
C868 C865 1.363 . S
C868 N866 1.356 . S
C869 C863 1.363 . S
C869 C864 1.379 . S
C869 N867 1.356 . S
N870 C862 1.356 . S
N870 H876 0.984 . S
N870 H877 0.984 . S
N871 C864 1.356 . S
N871 H874 0.984 . S
N871 H875 0.985 . S
H872 N867 0.984 . S
H873 N867 0.985 . S
H874 N871 0.984 . S
H875 N871 0.985 . S
H876 N870 0.984 . S
H877 N870 0.984 . S
H878 N866 0.984 . S
H879 N866 0.985 . S
C880 C881 1.363 . S
C880 C886 1.379 . S
C880 N888 1.356 . S
C881 C880 1.363 . S
C881 C887 1.363 . S
C882 C883 1.363 . S
C882 C887 1.379 . S
C882 N889 1.356 . S
C883 C882 1.363 . S
C883 C886 1.363 . S
N884 C886 1.356 . S
N884 H896 0.984 . S
N884 H897 0.985 . S
N885 C887 1.356 . S
N885 H890 0.984 . S
N885 H891 0.985 . S
C886 C880 1.379 . S
C886 C883 1.363 . S
C886 N884 1.356 . S
C887 C881 1.363 . S
C887 C882 1.379 . S
C887 N885 1.356 . S
N888 C880 1.356 . S
N888 H894 0.984 . S
N888 H895 0.984 . S
N889 C882 1.356 . S
N889 H892 0.984 . S
N889 H893 0.985 . S
H890 N885 0.984 . S
H891 N885 0.985 . S
H892 N889 0.984 . S
H893 N889 0.985 . S
H894 N888 0.984 . S
H895 N888 0.984 . S
H896 N884 0.984 . S
H897 N884 0.985 . S
C898 C899 1.363 1_456 S
C898 C904 1.379 . S
C898 N906 1.356 1_556 S
C899 C898 1.363 1_654 S
C899 C905 1.363 1_554 S
C900 C901 1.363 1_655 S
C900 C905 1.379 . S
C900 N907 1.356 . S
C901 C900 1.363 1_455 S
C901 C904 1.363 . S
N902 C904 1.356 . S
N902 H914 0.984 . S
N902 H915 0.985 . S
N903 C905 1.356 1_554 S
N903 H908 0.984 . S
N903 H909 0.985 1_554 S
C904 C898 1.379 . S
C904 C901 1.363 . S
C904 N902 1.356 . S
C905 C899 1.363 1_556 S
C905 C900 1.379 . S
C905 N903 1.356 1_556 S
N906 C898 1.356 1_554 S
N906 H912 0.984 . S
N906 H913 0.984 . S
N907 C900 1.356 . S
N907 H910 0.979 1_655 S
N907 H911 0.985 . S
H908 N903 0.984 . S
H909 N903 0.985 1_556 S
H910 N907 0.979 1_455 S
H911 N907 0.985 . S
H912 N906 0.984 . S
H913 N906 0.984 . S
H914 N902 0.984 . S
H915 N902 0.985 . S
C916 C917 1.363 . S
C916 C922 1.379 . S
C916 N924 1.356 . S
C917 C916 1.363 . S
C917 C923 1.363 . S
C918 C919 1.363 . S
C918 C923 1.379 . S
C918 N925 1.356 . S
C919 C918 1.363 . S
C919 C922 1.363 . S
N920 C922 1.356 . S
N920 H932 0.984 . S
N920 H933 0.985 . S
N921 C923 1.356 . S
N921 H926 0.984 . S
N921 H927 0.985 . S
C922 C916 1.379 . S
C922 C919 1.363 . S
C922 N920 1.356 . S
C923 C917 1.363 . S
C923 C918 1.379 . S
C923 N921 1.356 . S
N924 C916 1.356 . S
N924 H930 0.984 . S
N924 H931 0.984 . S
N925 C918 1.356 . S
N925 H928 0.984 . S
N925 H929 0.985 . S
H926 N921 0.984 . S
H927 N921 0.985 . S
H928 N925 0.984 . S
H929 N925 0.985 . S
H930 N924 0.984 . S
H931 N924 0.984 . S
H932 N920 0.984 . S
H933 N920 0.985 . S
C934 C935 1.363 . S
C934 C940 1.379 . S
C934 N942 1.356 . S
C935 C934 1.363 . S
C935 C941 1.363 . S
C936 C937 1.363 . S
C936 C941 1.379 . S
C936 N943 1.356 . S
C937 C936 1.363 . S
C937 C940 1.363 . S
N938 C940 1.356 . S
N938 H950 0.984 . S
N938 H951 0.985 . S
N939 C941 1.356 . S
N939 H944 0.984 . S
N939 H945 0.985 . S
C940 C934 1.379 . S
C940 C937 1.363 . S
C940 N938 1.356 . S
C941 C935 1.363 . S
C941 C936 1.379 . S
C941 N939 1.356 . S
N942 C934 1.356 . S
N942 H948 0.984 . S
N942 H949 0.984 . S
N943 C936 1.356 . S
N943 H946 0.984 . S
N943 H947 0.985 . S
H944 N939 0.984 . S
H945 N939 0.985 . S
H946 N943 0.984 . S
H947 N943 0.985 . S
H948 N942 0.984 . S
H949 N942 0.984 . S
H950 N938 0.984 . S
H951 N938 0.985 . S
C952 C953 1.363 . S
C952 C958 1.379 . S
C952 N960 1.356 . S
C953 C952 1.363 . S
C953 C959 1.363 . S
C954 C955 1.363 . S
C954 C959 1.379 . S
C954 N961 1.356 . S
C955 C954 1.363 . S
C955 C958 1.363 . S
N956 C958 1.356 . S
N956 H968 0.984 . S
N956 H969 0.985 . S
N957 C959 1.356 . S
N957 H962 0.984 . S
N957 H963 0.985 . S
C958 C952 1.379 . S
C958 C955 1.363 . S
C958 N956 1.356 . S
C959 C953 1.363 . S
C959 C954 1.379 . S
C959 N957 1.356 . S
N960 C952 1.356 . S
N960 H966 0.984 . S
N960 H967 0.984 . S
N961 C954 1.356 . S
N961 H964 0.984 . S
N961 H965 0.985 . S
H962 N957 0.984 . S
H963 N957 0.985 . S
H964 N961 0.984 . S
H965 N961 0.985 . S
H966 N960 0.984 . S
H967 N960 0.984 . S
H968 N956 0.984 . S
H969 N956 0.985 . S
C970 C971 1.363 . S
C970 C976 1.379 . S
C970 N978 1.356 . S
C971 C970 1.363 . S
C971 C977 1.363 . S
C972 C973 1.363 1_554 S
C972 C977 1.379 . S
C972 N979 1.356 1_554 S
C973 C972 1.363 1_556 S
C973 C976 1.363 1_556 S
N974 C976 1.356 . S
N974 H986 0.984 . S
N974 H987 0.985 1_554 S
N975 C977 1.356 . S
N975 H980 0.984 . S
N975 H981 0.985 . S
C976 C970 1.379 . S
C976 C973 1.363 1_554 S
C976 N974 1.356 . S
C977 C971 1.363 . S
C977 C972 1.379 . S
C977 N975 1.356 . S
N978 C970 1.356 . S
N978 H984 0.984 . S
N978 H985 0.984 . S
N979 C972 1.356 1_556 S
N979 H982 0.984 . S
N979 H983 0.985 . S
H980 N975 0.984 . S
H981 N975 0.985 . S
H982 N979 0.984 . S
H983 N979 0.985 . S
H984 N978 0.984 . S
H985 N978 0.984 . S
H986 N974 0.984 . S
H987 N974 0.985 1_556 S
C988 C989 1.363 . S
C988 C994 1.379 . S
C988 N996 1.356 . S
C989 C988 1.363 . S
C989 C995 1.363 . S
C990 C991 1.363 . S
C990 C995 1.379 . S
C990 N997 1.356 . S
C991 C990 1.363 . S
C991 C994 1.363 . S
N992 C994 1.356 . S
N992 H1004 0.984 . S
N992 H1005 0.985 . S
N993 C995 1.356 . S
N993 H998 0.984 . S
N993 H999 0.985 . S
C994 C988 1.379 . S
C994 C991 1.363 . S
C994 N992 1.356 . S
C995 C989 1.363 . S
C995 C990 1.379 . S
C995 N993 1.356 . S
N996 C988 1.356 . S
N996 H1002 0.984 . S
N996 H1003 0.984 . S
N997 C990 1.356 . S
N997 H1000 0.984 . S
N997 H1001 0.985 . S
H998 N993 0.984 . S
H999 N993 0.985 . S
H1000 N997 0.984 . S
H1001 N997 0.985 . S
H1002 N996 0.984 . S
H1003 N996 0.984 . S
H1004 N992 0.984 . S
H1005 N992 0.985 . S
C1006 C1007 1.363 . S
C1006 C1012 1.379 . S
C1006 N1014 1.356 . S
C1007 C1006 1.363 . S
C1007 C1013 1.363 1_655 S
C1008 C1009 1.363 . S
C1008 C1013 1.379 . S
C1008 N1015 1.356 . S
C1009 C1008 1.363 . S
C1009 C1012 1.363 1_455 S
N1010 C1012 1.356 . S
N1010 H1022 0.984 . S
N1010 H1023 0.985 1_655 S
N1011 C1013 1.356 . S
N1011 H1016 0.984 1_455 S
N1011 H1017 0.985 . S
C1012 C1006 1.379 . S
C1012 C1009 1.363 1_655 S
C1012 N1010 1.356 . S
C1013 C1007 1.363 1_455 S
C1013 C1008 1.379 . S
C1013 N1011 1.356 . S
N1014 C1006 1.356 . S
N1014 H1020 0.984 . S
N1014 H1021 0.984 . S
N1015 C1008 1.356 . S
N1015 H1018 0.984 . S
N1015 H1019 0.985 . S
H1016 N1011 0.984 1_655 S
H1017 N1011 0.985 . S
H1018 N1015 0.984 . S
H1019 N1015 0.985 . S
H1020 N1014 0.984 . S
H1021 N1014 0.984 . S
H1022 N1010 0.984 . S
H1023 N1010 0.985 1_455 S
C1024 C1025 1.363 . S
C1024 C1030 1.379 . S
C1024 N1032 1.356 . S
C1025 C1024 1.363 . S
C1025 C1031 1.363 . S
C1026 C1027 1.363 . S
C1026 C1031 1.379 . S
C1026 N1033 1.356 . S
C1027 C1026 1.363 . S
C1027 C1030 1.363 . S
N1028 C1030 1.356 . S
N1028 H1040 0.984 . S
N1028 H1041 0.985 . S
N1029 C1031 1.356 . S
N1029 H1034 0.984 . S
N1029 H1035 0.985 . S
C1030 C1024 1.379 . S
C1030 C1027 1.363 . S
C1030 N1028 1.356 . S
C1031 C1025 1.363 . S
C1031 C1026 1.379 . S
C1031 N1029 1.356 . S
N1032 C1024 1.356 . S
N1032 H1038 0.984 . S
N1032 H1039 0.984 . S
N1033 C1026 1.356 . S
N1033 H1036 0.984 . S
N1033 H1037 0.985 . S
H1034 N1029 0.984 . S
H1035 N1029 0.985 . S
H1036 N1033 0.984 . S
H1037 N1033 0.985 . S
H1038 N1032 0.984 . S
H1039 N1032 0.984 . S
H1040 N1028 0.984 . S
H1041 N1028 0.985 . S
C1042 C1043 1.363 . S
C1042 C1048 1.379 . S
C1042 N1050 1.356 . S
C1043 C1042 1.363 . S
C1043 C1049 1.363 . S
C1044 C1045 1.363 . S
C1044 C1049 1.379 . S
C1044 N1051 1.356 . S
C1045 C1044 1.363 . S
C1045 C1048 1.363 . S
N1046 C1048 1.356 . S
N1046 H1058 0.984 . S
N1046 H1059 0.985 . S
N1047 C1049 1.356 . S
N1047 H1052 0.984 . S
N1047 H1053 0.985 . S
C1048 C1042 1.379 . S
C1048 C1045 1.363 . S
C1048 N1046 1.356 . S
C1049 C1043 1.363 . S
C1049 C1044 1.379 . S
C1049 N1047 1.356 . S
N1050 C1042 1.356 . S
N1050 H1056 0.984 . S
N1050 H1057 0.984 . S
N1051 C1044 1.356 . S
N1051 H1054 0.984 . S
N1051 H1055 0.985 . S
H1052 N1047 0.984 . S
H1053 N1047 0.985 . S
H1054 N1051 0.984 . S
H1055 N1051 0.985 . S
H1056 N1050 0.984 . S
H1057 N1050 0.984 . S
H1058 N1046 0.984 . S
H1059 N1046 0.985 . S
C1060 C1061 1.363 . S
C1060 C1066 1.379 . S
C1060 N1068 1.356 . S
C1061 C1060 1.363 . S
C1061 C1067 1.363 . S
C1062 C1063 1.363 . S
C1062 C1067 1.379 . S
C1062 N1069 1.356 . S
C1063 C1062 1.363 . S
C1063 C1066 1.363 . S
N1064 C1066 1.356 . S
N1064 H1076 0.984 . S
N1064 H1077 0.985 . S
N1065 C1067 1.356 . S
N1065 H1070 0.984 . S
N1065 H1071 0.985 . S
C1066 C1060 1.379 . S
C1066 C1063 1.363 . S
C1066 N1064 1.356 . S
C1067 C1061 1.363 . S
C1067 C1062 1.379 . S
C1067 N1065 1.356 . S
N1068 C1060 1.356 . S
N1068 H1074 0.984 . S
N1068 H1075 0.984 . S
N1069 C1062 1.356 . S
N1069 H1072 0.984 . S
N1069 H1073 0.985 . S
H1070 N1065 0.984 . S
H1071 N1065 0.985 . S
H1072 N1069 0.984 . S
H1073 N1069 0.985 . S
H1074 N1068 0.984 . S
H1075 N1068 0.984 . S
H1076 N1064 0.984 . S
H1077 N1064 0.985 . S
C1078 C1079 1.363 . S
C1078 C1084 1.379 1_455 S
C1078 N1086 1.356 . S
C1079 C1078 1.363 . S
C1079 C1085 1.363 . S
C1080 C1081 1.363 1_554 S
C1080 C1085 1.379 1_655 S
C1080 N1087 1.356 1_554 S
C1081 C1080 1.363 1_556 S
C1081 C1084 1.363 1_556 S
N1082 C1084 1.356 1_556 S
N1082 H1094 0.984 . S
N1082 H1095 0.985 . S
N1083 C1085 1.356 . S
N1083 H1088 0.984 . S
N1083 H1089 0.985 . S
C1084 C1078 1.379 1_655 S
C1084 C1081 1.363 1_554 S
C1084 N1082 1.356 1_554 S
C1085 C1079 1.363 . S
C1085 C1080 1.379 1_455 S
C1085 N1083 1.356 . S
N1086 C1078 1.356 . S
N1086 H1092 0.984 . S
N1086 H1093 0.984 . S
N1087 C1080 1.356 1_556 S
N1087 H1090 0.984 . S
N1087 H1091 0.985 1_556 S
H1088 N1083 0.984 . S
H1089 N1083 0.985 . S
H1090 N1087 0.984 . S
H1091 N1087 0.985 1_554 S
H1092 N1086 0.984 . S
H1093 N1086 0.984 . S
H1094 N1082 0.984 . S
H1095 N1082 0.985 . S
C1096 C1097 1.363 . S
C1096 C1102 1.379 . S
C1096 N1104 1.356 . S
C1097 C1096 1.363 . S
C1097 C1103 1.363 . S
C1098 C1099 1.363 . S
C1098 C1103 1.379 . S
C1098 N1105 1.356 . S
C1099 C1098 1.363 . S
C1099 C1102 1.363 . S
N1100 C1102 1.356 . S
N1100 H1112 0.984 . S
N1100 H1113 0.985 . S
N1101 C1103 1.356 . S
N1101 H1106 0.984 . S
N1101 H1107 0.985 . S
C1102 C1096 1.379 . S
C1102 C1099 1.363 . S
C1102 N1100 1.356 . S
C1103 C1097 1.363 . S
C1103 C1098 1.379 . S
C1103 N1101 1.356 . S
N1104 C1096 1.356 . S
N1104 H1110 0.984 . S
N1104 H1111 0.984 . S
N1105 C1098 1.356 . S
N1105 H1108 0.984 . S
N1105 H1109 0.985 . S
H1106 N1101 0.984 . S
H1107 N1101 0.985 . S
H1108 N1105 0.984 . S
H1109 N1105 0.985 . S
H1110 N1104 0.984 . S
H1111 N1104 0.984 . S
H1112 N1100 0.984 . S
H1113 N1100 0.985 . S
C1114 C1115 1.363 . S
C1114 C1120 1.379 . S
C1114 N1122 1.356 . S
C1115 C1114 1.363 . S
C1115 C1121 1.363 1_655 S
C1116 C1117 1.363 . S
C1116 C1121 1.379 . S
C1116 N1123 1.356 . S
C1117 C1116 1.363 . S
C1117 C1120 1.363 1_455 S
N1118 C1120 1.356 . S
N1118 H1130 0.984 . S
N1118 H1131 0.985 1_655 S
N1119 C1121 1.356 . S
N1119 H1124 0.995 . S
N1119 H1125 0.985 . S
C1120 C1114 1.379 . S
C1120 C1117 1.363 1_655 S
C1120 N1118 1.356 . S
C1121 C1115 1.363 1_455 S
C1121 C1116 1.379 . S
C1121 N1119 1.356 . S
N1122 C1114 1.356 . S
N1122 H1128 0.984 . S
N1122 H1129 0.984 . S
N1123 C1116 1.356 . S
N1123 H1126 0.984 . S
N1123 H1127 0.985 . S
H1124 N1119 0.995 . S
H1125 N1119 0.985 . S
H1126 N1123 0.984 . S
H1127 N1123 0.985 . S
H1128 N1122 0.984 . S
H1129 N1122 0.984 . S
H1130 N1118 0.984 . S
H1131 N1118 0.985 1_455 S
C1132 C1133 1.363 . S
C1132 C1138 1.379 . S
C1132 N1140 1.356 . S
C1133 C1132 1.363 . S
C1133 C1139 1.363 . S
C1134 C1135 1.363 . S
C1134 C1139 1.379 . S
C1134 N1141 1.356 . S
C1135 C1134 1.363 . S
C1135 C1138 1.363 . S
N1136 C1138 1.356 . S
N1136 H1148 0.984 . S
N1136 H1149 0.985 . S
N1137 C1139 1.356 . S
N1137 H1142 0.984 . S
N1137 H1143 0.985 . S
C1138 C1132 1.379 . S
C1138 C1135 1.363 . S
C1138 N1136 1.356 . S
C1139 C1133 1.363 . S
C1139 C1134 1.379 . S
C1139 N1137 1.356 . S
N1140 C1132 1.356 . S
N1140 H1146 0.984 . S
N1140 H1147 0.984 . S
N1141 C1134 1.356 . S
N1141 H1144 0.984 . S
N1141 H1145 0.985 . S
H1142 N1137 0.984 . S
H1143 N1137 0.985 . S
H1144 N1141 0.984 . S
H1145 N1141 0.985 . S
H1146 N1140 0.984 . S
H1147 N1140 0.984 . S
H1148 N1136 0.984 . S
H1149 N1136 0.985 . S
C1150 C1151 1.363 1_556 S
C1150 C1156 1.379 . S
C1150 N1158 1.356 . S
C1151 C1150 1.363 1_554 S
C1151 C1157 1.363 1_554 S
C1152 C1153 1.363 . S
C1152 C1157 1.379 . S
C1152 N1159 1.356 . S
C1153 C1152 1.363 . S
C1153 C1156 1.363 . S
N1154 C1156 1.356 . S
N1154 H1166 0.984 . S
N1154 H1167 0.985 . S
N1155 C1157 1.356 1_554 S
N1155 H1160 0.984 . S
N1155 H1161 0.985 . S
C1156 C1150 1.379 . S
C1156 C1153 1.363 . S
C1156 N1154 1.356 . S
C1157 C1151 1.363 1_556 S
C1157 C1152 1.379 . S
C1157 N1155 1.356 1_556 S
N1158 C1150 1.356 . S
N1158 H1164 0.984 . S
N1158 H1165 0.984 1_556 S
N1159 C1152 1.356 . S
N1159 H1162 0.984 . S
N1159 H1163 0.985 . S
H1160 N1155 0.984 . S
H1161 N1155 0.985 . S
H1162 N1159 0.984 . S
H1163 N1159 0.985 . S
H1164 N1158 0.984 . S
H1165 N1158 0.984 1_554 S
H1166 N1154 0.984 . S
H1167 N1154 0.985 . S
C1168 C1169 1.363 . S
C1168 C1174 1.379 . S
C1168 N1176 1.356 . S
C1169 C1168 1.363 . S
C1169 C1175 1.363 . S
C1170 C1171 1.363 . S
C1170 C1175 1.379 . S
C1170 N1177 1.356 . S
C1171 C1170 1.363 . S
C1171 C1174 1.363 . S
N1172 C1174 1.356 . S
N1172 H1184 0.984 . S
N1172 H1185 0.985 . S
N1173 C1175 1.356 . S
N1173 H1178 0.984 . S
N1173 H1179 0.985 . S
C1174 C1168 1.379 . S
C1174 C1171 1.363 . S
C1174 N1172 1.356 . S
C1175 C1169 1.363 . S
C1175 C1170 1.379 . S
C1175 N1173 1.356 . S
N1176 C1168 1.356 . S
N1176 H1182 0.984 . S
N1176 H1183 0.984 . S
N1177 C1170 1.356 . S
N1177 H1180 0.984 . S
N1177 H1181 0.985 . S
H1178 N1173 0.984 . S
H1179 N1173 0.985 . S
H1180 N1177 0.984 . S
H1181 N1177 0.985 . S
H1182 N1176 0.984 . S
H1183 N1176 0.984 . S
H1184 N1172 0.984 . S
H1185 N1172 0.985 . S
C1186 C1187 1.363 . S
C1186 C1192 1.379 . S
C1186 N1194 1.356 . S
C1187 C1186 1.363 . S
C1187 C1193 1.363 . S
C1188 C1189 1.363 . S
C1188 C1193 1.379 . S
C1188 N1195 1.356 . S
C1189 C1188 1.363 . S
C1189 C1192 1.363 . S
N1190 C1192 1.356 . S
N1190 H1202 0.984 . S
N1190 H1203 0.985 . S
N1191 C1193 1.356 . S
N1191 H1196 0.984 . S
N1191 H1197 0.985 . S
C1192 C1186 1.379 . S
C1192 C1189 1.363 . S
C1192 N1190 1.356 . S
C1193 C1187 1.363 . S
C1193 C1188 1.379 . S
C1193 N1191 1.356 . S
N1194 C1186 1.356 . S
N1194 H1200 0.984 . S
N1194 H1201 0.984 . S
N1195 C1188 1.356 . S
N1195 H1198 0.984 . S
N1195 H1199 0.985 . S
H1196 N1191 0.984 . S
H1197 N1191 0.985 . S
H1198 N1195 0.984 . S
H1199 N1195 0.985 . S
H1200 N1194 0.984 . S
H1201 N1194 0.984 . S
H1202 N1190 0.984 . S
H1203 N1190 0.985 . S
C1204 C1205 1.363 . S
C1204 C1210 1.379 . S
C1204 N1212 1.356 . S
C1205 C1204 1.363 . S
C1205 C1211 1.363 . S
C1206 C1207 1.363 . S
C1206 C1211 1.379 . S
C1206 N1213 1.356 . S
C1207 C1206 1.363 . S
C1207 C1210 1.363 . S
N1208 C1210 1.356 . S
N1208 H1220 0.984 . S
N1208 H1221 0.985 . S
N1209 C1211 1.356 . S
N1209 H1214 0.984 . S
N1209 H1215 0.985 . S
C1210 C1204 1.379 . S
C1210 C1207 1.363 . S
C1210 N1208 1.356 . S
C1211 C1205 1.363 . S
C1211 C1206 1.379 . S
C1211 N1209 1.356 . S
N1212 C1204 1.356 . S
N1212 H1218 0.984 . S
N1212 H1219 0.984 . S
N1213 C1206 1.356 . S
N1213 H1216 0.984 . S
N1213 H1217 0.985 . S
H1214 N1209 0.984 . S
H1215 N1209 0.985 . S
H1216 N1213 0.984 . S
H1217 N1213 0.985 . S
H1218 N1212 0.984 . S
H1219 N1212 0.984 . S
H1220 N1208 0.984 . S
H1221 N1208 0.985 . S
C1222 C1223 1.363 1_455 S
C1222 C1228 1.379 . S
C1222 N1230 1.356 . S
C1223 C1222 1.363 1_655 S
C1223 C1229 1.363 . S
C1224 C1225 1.363 1_656 S
C1224 C1229 1.379 . S
C1224 N1231 1.356 1_556 S
C1225 C1224 1.363 1_454 S
C1225 C1228 1.363 1_554 S
N1226 C1228 1.356 . S
N1226 H1238 0.984 . S
N1226 H1239 0.985 1_556 S
N1227 C1229 1.356 . S
N1227 H1232 0.984 . S
N1227 H1233 0.985 . S
C1228 C1222 1.379 . S
C1228 C1225 1.363 1_556 S
C1228 N1226 1.356 . S
C1229 C1223 1.363 . S
C1229 C1224 1.379 . S
C1229 N1227 1.356 . S
N1230 C1222 1.356 . S
N1230 H1236 0.984 . S
N1230 H1237 0.984 1_455 S
N1231 C1224 1.356 1_554 S
N1231 H1234 0.984 1_655 S
N1231 H1235 0.985 . S
H1232 N1227 0.984 . S
H1233 N1227 0.985 . S
H1234 N1231 0.984 1_455 S
H1235 N1231 0.985 . S
H1236 N1230 0.984 . S
H1237 N1230 0.984 1_655 S
H1238 N1226 0.984 . S
H1239 N1226 0.985 1_554 S
C1240 C1241 1.363 . S
C1240 C1246 1.379 . S
C1240 N1248 1.356 . S
C1241 C1240 1.363 . S
C1241 C1247 1.363 . S
C1242 C1243 1.363 . S
C1242 C1247 1.379 . S
C1242 N1249 1.356 . S
C1243 C1242 1.363 . S
C1243 C1246 1.363 . S
N1244 C1246 1.356 . S
N1244 H1256 0.984 . S
N1244 H1257 0.985 . S
N1245 C1247 1.356 . S
N1245 H1250 0.984 . S
N1245 H1251 0.985 . S
C1246 C1240 1.379 . S
C1246 C1243 1.363 . S
C1246 N1244 1.356 . S
C1247 C1241 1.363 . S
C1247 C1242 1.379 . S
C1247 N1245 1.356 . S
N1248 C1240 1.356 . S
N1248 H1254 0.984 . S
N1248 H1255 0.984 . S
N1249 C1242 1.356 . S
N1249 H1252 0.984 . S
N1249 H1253 0.985 . S
H1250 N1245 0.984 . S
H1251 N1245 0.985 . S
H1252 N1249 0.984 . S
H1253 N1249 0.985 . S
H1254 N1248 0.984 . S
H1255 N1248 0.984 . S
H1256 N1244 0.984 . S
H1257 N1244 0.985 . S
C1258 C1259 1.363 . S
C1258 C1264 1.379 . S
C1258 N1266 1.356 . S
C1259 C1258 1.363 . S
C1259 C1265 1.363 1_655 S
C1260 C1261 1.363 . S
C1260 C1265 1.379 . S
C1260 N1267 1.356 . S
C1261 C1260 1.363 . S
C1261 C1264 1.363 1_455 S
N1262 C1264 1.356 . S
N1262 H1274 0.984 . S
N1262 H1275 0.985 1_655 S
N1263 C1265 1.358 . S
N1263 H1268 0.962 1_455 S
N1263 H1269 1.007 . S
C1264 C1258 1.379 . S
C1264 C1261 1.363 1_655 S
C1264 N1262 1.356 . S
C1265 C1259 1.363 1_455 S
C1265 C1260 1.379 . S
C1265 N1263 1.358 . S
N1266 C1258 1.356 . S
N1266 H1272 0.984 . S
N1266 H1273 0.984 . S
N1267 C1260 1.356 . S
N1267 H1270 0.984 . S
N1267 H1271 0.985 . S
H1268 N1263 0.962 1_655 S
H1269 N1263 1.007 . S
H1270 N1267 0.984 . S
H1271 N1267 0.985 . S
H1272 N1266 0.984 . S
H1273 N1266 0.984 . S
H1274 N1262 0.984 . S
H1275 N1262 0.985 1_455 S
C1276 C1277 1.363 . S
C1276 C1282 1.379 . S
C1276 N1284 1.356 . S
C1277 C1276 1.363 . S
C1277 C1283 1.363 . S
C1278 C1279 1.363 . S
C1278 C1283 1.379 . S
C1278 N1285 1.356 . S
C1279 C1278 1.363 . S
C1279 C1282 1.363 . S
N1280 C1282 1.356 . S
N1280 H1292 0.984 . S
N1280 H1293 0.985 . S
N1281 C1283 1.356 . S
N1281 H1286 0.984 . S
N1281 H1287 0.985 . S
C1282 C1276 1.379 . S
C1282 C1279 1.363 . S
C1282 N1280 1.356 . S
C1283 C1277 1.363 . S
C1283 C1278 1.379 . S
C1283 N1281 1.356 . S
N1284 C1276 1.356 . S
N1284 H1290 0.984 . S
N1284 H1291 0.984 . S
N1285 C1278 1.356 . S
N1285 H1288 0.984 . S
N1285 H1289 0.985 . S
H1286 N1281 0.984 . S
H1287 N1281 0.985 . S
H1288 N1285 0.984 . S
H1289 N1285 0.985 . S
H1290 N1284 0.984 . S
H1291 N1284 0.984 . S
H1292 N1280 0.984 . S
H1293 N1280 0.985 . S
C1294 C1295 1.363 . S
C1294 C1300 1.379 . S
C1294 N1302 1.356 . S
C1295 C1294 1.363 . S
C1295 C1301 1.363 . S
C1296 C1297 1.363 1_554 S
C1296 C1301 1.379 . S
C1296 N1303 1.356 1_554 S
C1297 C1296 1.363 1_556 S
C1297 C1300 1.363 1_556 S
N1298 C1300 1.356 . S
N1298 H1310 0.984 . S
N1298 H1311 0.985 1_554 S
N1299 C1301 1.356 . S
N1299 H1304 0.984 . S
N1299 H1305 0.985 . S
C1300 C1294 1.379 . S
C1300 C1297 1.363 1_554 S
C1300 N1298 1.356 . S
C1301 C1295 1.363 . S
C1301 C1296 1.379 . S
C1301 N1299 1.356 . S
N1302 C1294 1.356 . S
N1302 H1308 0.984 . S
N1302 H1309 0.984 . S
N1303 C1296 1.356 1_556 S
N1303 H1306 0.984 . S
N1303 H1307 0.985 . S
H1304 N1299 0.984 . S
H1305 N1299 0.985 . S
H1306 N1303 0.984 . S
H1307 N1303 0.985 . S
H1308 N1302 0.984 . S
H1309 N1302 0.984 . S
H1310 N1298 0.984 . S
H1311 N1298 0.985 1_556 S
C1312 C1313 1.363 . S
C1312 C1318 1.379 . S
C1312 N1320 1.356 . S
C1313 C1312 1.363 . S
C1313 C1319 1.363 . S
C1314 C1315 1.363 . S
C1314 C1319 1.379 . S
C1314 N1321 1.356 . S
C1315 C1314 1.363 . S
C1315 C1318 1.363 . S
N1316 C1318 1.356 . S
N1316 H1328 0.984 . S
N1316 H1329 0.985 . S
N1317 C1319 1.356 . S
N1317 H1322 0.984 1_554 S
N1317 H1323 0.985 1_554 S
C1318 C1312 1.379 . S
C1318 C1315 1.363 . S
C1318 N1316 1.356 . S
C1319 C1313 1.363 . S
C1319 C1314 1.379 . S
C1319 N1317 1.356 . S
N1320 C1312 1.356 . S
N1320 H1326 0.984 . S
N1320 H1327 0.984 . S
N1321 C1314 1.356 . S
N1321 H1324 0.984 . S
N1321 H1325 0.985 . S
H1322 N1317 0.984 1_556 S
H1323 N1317 0.985 1_556 S
H1324 N1321 0.984 . S
H1325 N1321 0.985 . S
H1326 N1320 0.984 . S
H1327 N1320 0.984 . S
H1328 N1316 0.984 . S
H1329 N1316 0.985 . S
C1330 C1331 1.363 . S
C1330 C1336 1.379 . S
C1330 N1338 1.356 . S
C1331 C1330 1.363 . S
C1331 C1337 1.363 . S
C1332 C1333 1.363 . S
C1332 C1337 1.379 . S
C1332 N1339 1.356 . S
C1333 C1332 1.363 . S
C1333 C1336 1.363 . S
N1334 C1336 1.356 . S
N1334 H1346 0.984 . S
N1334 H1347 0.985 . S
N1335 C1337 1.356 . S
N1335 H1340 0.984 . S
N1335 H1341 0.985 . S
C1336 C1330 1.379 . S
C1336 C1333 1.363 . S
C1336 N1334 1.356 . S
C1337 C1331 1.363 . S
C1337 C1332 1.379 . S
C1337 N1335 1.356 . S
N1338 C1330 1.356 . S
N1338 H1344 0.984 . S
N1338 H1345 0.984 . S
N1339 C1332 1.356 . S
N1339 H1342 0.984 . S
N1339 H1343 0.985 . S
H1340 N1335 0.984 . S
H1341 N1335 0.985 . S
H1342 N1339 0.984 . S
H1343 N1339 0.985 . S
H1344 N1338 0.984 . S
H1345 N1338 0.984 . S
H1346 N1334 0.984 . S
H1347 N1334 0.985 . S
C1348 C1349 1.363 . S
C1348 C1354 1.379 . S
C1348 N1356 1.356 . S
C1349 C1348 1.363 . S
C1349 C1355 1.363 . S
C1350 C1351 1.363 . S
C1350 C1355 1.379 . S
C1350 N1357 1.356 . S
C1351 C1350 1.363 . S
C1351 C1354 1.363 . S
N1352 C1354 1.356 . S
N1352 H1364 0.984 . S
N1352 H1365 0.985 . S
N1353 C1355 1.356 . S
N1353 H1358 0.984 . S
N1353 H1359 0.985 . S
C1354 C1348 1.379 . S
C1354 C1351 1.363 . S
C1354 N1352 1.356 . S
C1355 C1349 1.363 . S
C1355 C1350 1.379 . S
C1355 N1353 1.356 . S
N1356 C1348 1.356 . S
N1356 H1362 0.984 . S
N1356 H1363 0.984 . S
N1357 C1350 1.356 . S
N1357 H1360 0.984 . S
N1357 H1361 0.985 . S
H1358 N1353 0.984 . S
H1359 N1353 0.985 . S
H1360 N1357 0.984 . S
H1361 N1357 0.985 . S
H1362 N1356 0.984 . S
H1363 N1356 0.984 . S
H1364 N1352 0.984 . S
H1365 N1352 0.985 . S
C1366 C1367 1.363 . S
C1366 C1372 1.379 . S
C1366 N1374 1.356 . S
C1367 C1366 1.363 . S
C1367 C1373 1.363 . S
C1368 C1369 1.363 . S
C1368 C1373 1.379 . S
C1368 N1375 1.356 . S
C1369 C1368 1.363 . S
C1369 C1372 1.363 . S
N1370 C1372 1.356 . S
N1370 H1382 0.984 . S
N1370 H1383 0.985 . S
N1371 C1373 1.356 . S
N1371 H1376 0.984 . S
N1371 H1377 0.985 1_556 S
C1372 C1366 1.379 . S
C1372 C1369 1.363 . S
C1372 N1370 1.356 . S
C1373 C1367 1.363 . S
C1373 C1368 1.379 . S
C1373 N1371 1.356 . S
N1374 C1366 1.356 . S
N1374 H1380 0.984 . S
N1374 H1381 0.984 . S
N1375 C1368 1.356 . S
N1375 H1378 0.984 . S
N1375 H1379 0.985 . S
H1376 N1371 0.984 . S
H1377 N1371 0.985 1_554 S
H1378 N1375 0.984 . S
H1379 N1375 0.985 . S
H1380 N1374 0.984 . S
H1381 N1374 0.984 . S
H1382 N1370 0.984 . S
H1383 N1370 0.985 . S
C1384 C1385 1.363 . S
C1384 C1390 1.379 . S
C1384 N1392 1.356 . S
C1385 C1384 1.363 . S
C1385 C1391 1.363 . S
C1386 C1387 1.363 . S
C1386 C1391 1.379 . S
C1386 N1393 1.356 . S
C1387 C1386 1.363 . S
C1387 C1390 1.363 . S
N1388 C1390 1.356 . S
N1388 H1400 0.984 . S
N1388 H1401 0.985 . S
N1389 C1391 1.356 . S
N1389 H1394 0.984 . S
N1389 H1395 0.985 . S
C1390 C1384 1.379 . S
C1390 C1387 1.363 . S
C1390 N1388 1.356 . S
C1391 C1385 1.363 . S
C1391 C1386 1.379 . S
C1391 N1389 1.356 . S
N1392 C1384 1.356 . S
N1392 H1398 0.984 . S
N1392 H1399 0.984 . S
N1393 C1386 1.356 . S
N1393 H1396 0.984 . S
N1393 H1397 0.985 . S
H1394 N1389 0.984 . S
H1395 N1389 0.985 . S
H1396 N1393 0.984 . S
H1397 N1393 0.985 . S
H1398 N1392 0.984 . S
H1399 N1392 0.984 . S
H1400 N1388 0.984 . S
H1401 N1388 0.985 . S
C1402 C1403 1.363 . S
C1402 C1408 1.379 . S
C1402 N1410 1.356 . S
C1403 C1402 1.363 . S
C1403 C1409 1.363 . S
C1404 C1405 1.363 . S
C1404 C1409 1.379 . S
C1404 N1411 1.356 . S
C1405 C1404 1.363 . S
C1405 C1408 1.363 . S
N1406 C1408 1.356 . S
N1406 H1418 0.984 . S
N1406 H1419 0.985 . S
N1407 C1409 1.356 . S
N1407 H1412 0.984 . S
N1407 H1413 0.985 . S
C1408 C1402 1.379 . S
C1408 C1405 1.363 . S
C1408 N1406 1.356 . S
C1409 C1403 1.363 . S
C1409 C1404 1.379 . S
C1409 N1407 1.356 . S
N1410 C1402 1.356 . S
N1410 H1416 0.984 . S
N1410 H1417 0.984 . S
N1411 C1404 1.356 . S
N1411 H1414 0.984 . S
N1411 H1415 0.985 . S
H1412 N1407 0.984 . S
H1413 N1407 0.985 . S
H1414 N1411 0.984 . S
H1415 N1411 0.985 . S
H1416 N1410 0.984 . S
H1417 N1410 0.984 . S
H1418 N1406 0.984 . S
H1419 N1406 0.985 . S
C1420 C1421 1.363 . S
C1420 C1426 1.379 . S
C1420 N1428 1.356 . S
C1421 C1420 1.363 . S
C1421 C1427 1.363 . S
C1422 C1423 1.363 . S
C1422 C1427 1.379 . S
C1422 N1429 1.356 1_556 S
C1423 C1422 1.363 . S
C1423 C1426 1.363 . S
N1424 C1426 1.356 . S
N1424 H1436 0.984 . S
N1424 H1437 0.985 . S
N1425 C1427 1.356 . S
N1425 H1430 0.984 . S
N1425 H1431 0.985 . S
C1426 C1420 1.379 . S
C1426 C1423 1.363 . S
C1426 N1424 1.356 . S
C1427 C1421 1.363 . S
C1427 C1422 1.379 . S
C1427 N1425 1.356 . S
N1428 C1420 1.356 . S
N1428 H1434 0.984 . S
N1428 H1435 0.984 . S
N1429 C1422 1.356 1_554 S
N1429 H1432 0.984 . S
N1429 H1433 0.985 . S
H1430 N1425 0.984 . S
H1431 N1425 0.985 . S
H1432 N1429 0.984 . S
H1433 N1429 0.985 . S
H1434 N1428 0.984 . S
H1435 N1428 0.984 . S
H1436 N1424 0.984 . S
H1437 N1424 0.985 . S
C1438 C1439 1.363 . S
C1438 C1444 1.379 . S
C1438 N1446 1.356 . S
C1439 C1438 1.363 . S
C1439 C1445 1.363 . S
C1440 C1441 1.363 . S
C1440 C1445 1.379 . S
C1440 N1447 1.356 . S
C1441 C1440 1.363 . S
C1441 C1444 1.363 . S
N1442 C1444 1.356 . S
N1442 H1454 0.984 . S
N1442 H1455 0.985 . S
N1443 C1445 1.356 . S
N1443 H1448 0.984 . S
N1443 H1449 0.985 . S
C1444 C1438 1.379 . S
C1444 C1441 1.363 . S
C1444 N1442 1.356 . S
C1445 C1439 1.363 . S
C1445 C1440 1.379 . S
C1445 N1443 1.356 . S
N1446 C1438 1.356 . S
N1446 H1452 0.984 . S
N1446 H1453 0.984 . S
N1447 C1440 1.356 . S
N1447 H1450 0.984 . S
N1447 H1451 0.985 . S
H1448 N1443 0.984 . S
H1449 N1443 0.985 . S
H1450 N1447 0.984 . S
H1451 N1447 0.985 . S
H1452 N1446 0.984 . S
H1453 N1446 0.984 . S
H1454 N1442 0.984 . S
H1455 N1442 0.985 . S
C1456 C1457 1.363 . S
C1456 C1462 1.379 . S
C1456 N1464 1.356 . S
C1457 C1456 1.363 . S
C1457 C1463 1.363 . S
C1458 C1459 1.363 . S
C1458 C1463 1.379 . S
C1458 N1465 1.356 . S
C1459 C1458 1.363 . S
C1459 C1462 1.363 . S
N1460 C1462 1.356 . S
N1460 H1472 0.984 . S
N1460 H1473 0.985 . S
N1461 C1463 1.356 1_554 S
N1461 H1466 0.984 . S
N1461 H1467 0.985 . S
C1462 C1456 1.379 . S
C1462 C1459 1.363 . S
C1462 N1460 1.356 . S
C1463 C1457 1.363 . S
C1463 C1458 1.379 . S
C1463 N1461 1.356 1_556 S
N1464 C1456 1.356 . S
N1464 H1470 0.984 . S
N1464 H1471 0.984 . S
N1465 C1458 1.356 . S
N1465 H1468 0.984 . S
N1465 H1469 0.985 . S
H1466 N1461 0.984 . S
H1467 N1461 0.985 . S
H1468 N1465 0.984 . S
H1469 N1465 0.985 . S
H1470 N1464 0.984 . S
H1471 N1464 0.984 . S
H1472 N1460 0.984 . S
H1473 N1460 0.985 . S
C1474 C1475 1.363 . S
C1474 C1480 1.379 . S
C1474 N1482 1.356 . S
C1475 C1474 1.363 . S
C1475 C1481 1.363 . S
C1476 C1477 1.363 . S
C1476 C1481 1.379 . S
C1476 N1483 1.356 . S
C1477 C1476 1.363 . S
C1477 C1480 1.363 . S
N1478 C1480 1.356 . S
N1478 H1490 0.984 . S
N1478 H1491 0.985 . S
N1479 C1481 1.356 . S
N1479 H1484 0.984 . S
N1479 H1485 0.985 . S
C1480 C1474 1.379 . S
C1480 C1477 1.363 . S
C1480 N1478 1.356 . S
C1481 C1475 1.363 . S
C1481 C1476 1.379 . S
C1481 N1479 1.356 . S
N1482 C1474 1.356 . S
N1482 H1488 0.984 . S
N1482 H1489 0.984 . S
N1483 C1476 1.356 . S
N1483 H1486 0.984 . S
N1483 H1487 0.985 . S
H1484 N1479 0.984 . S
H1485 N1479 0.985 . S
H1486 N1483 0.984 . S
H1487 N1483 0.985 . S
H1488 N1482 0.984 . S
H1489 N1482 0.984 . S
H1490 N1478 0.984 . S
H1491 N1478 0.985 . S
C1492 C1493 1.363 . S
C1492 C1498 1.379 . S
C1492 N1500 1.356 . S
C1493 C1492 1.363 . S
C1493 C1499 1.363 . S
C1494 C1495 1.363 . S
C1494 C1499 1.379 . S
C1494 N1501 1.356 . S
C1495 C1494 1.363 . S
C1495 C1498 1.363 . S
N1496 C1498 1.356 . S
N1496 H1508 0.984 . S
N1496 H1509 0.985 . S
N1497 C1499 1.356 . S
N1497 H1502 0.984 . S
N1497 H1503 0.985 . S
C1498 C1492 1.379 . S
C1498 C1495 1.363 . S
C1498 N1496 1.356 . S
C1499 C1493 1.363 . S
C1499 C1494 1.379 . S
C1499 N1497 1.356 . S
N1500 C1492 1.356 . S
N1500 H1506 0.984 . S
N1500 H1507 0.984 . S
N1501 C1494 1.356 . S
N1501 H1504 0.984 . S
N1501 H1505 0.985 . S
H1502 N1497 0.984 . S
H1503 N1497 0.985 . S
H1504 N1501 0.984 . S
H1505 N1501 0.985 . S
H1506 N1500 0.984 . S
H1507 N1500 0.984 . S
H1508 N1496 0.984 . S
H1509 N1496 0.985 . S
C1510 C1511 1.363 . S
C1510 C1516 1.379 . S
C1510 N1518 1.356 1_554 S
C1511 C1510 1.363 . S
C1511 C1517 1.363 . S
C1512 C1513 1.363 . S
C1512 C1517 1.379 . S
C1512 N1519 1.356 . S
C1513 C1512 1.363 . S
C1513 C1516 1.363 . S
N1514 C1516 1.356 . S
N1514 H1526 0.984 . S
N1514 H1527 0.985 . S
N1515 C1517 1.356 . S
N1515 H1520 0.984 . S
N1515 H1521 0.985 . S
C1516 C1510 1.379 . S
C1516 C1513 1.363 . S
C1516 N1514 1.356 . S
C1517 C1511 1.363 . S
C1517 C1512 1.379 . S
C1517 N1515 1.356 . S
N1518 C1510 1.356 1_556 S
N1518 H1524 0.984 . S
N1518 H1525 0.984 . S
N1519 C1512 1.356 . S
N1519 H1522 0.984 . S
N1519 H1523 0.985 . S
H1520 N1515 0.984 . S
H1521 N1515 0.985 . S
H1522 N1519 0.984 . S
H1523 N1519 0.985 . S
H1524 N1518 0.984 . S
H1525 N1518 0.984 . S
H1526 N1514 0.984 . S
H1527 N1514 0.985 . S
C1528 C1529 1.363 . S
C1528 C1534 1.379 . S
C1528 N1536 1.356 . S
C1529 C1528 1.363 . S
C1529 C1535 1.363 . S
C1530 C1531 1.363 . S
C1530 C1535 1.379 . S
C1530 N1537 1.356 . S
C1531 C1530 1.363 . S
C1531 C1534 1.363 . S
N1532 C1534 1.356 . S
N1532 H1544 0.984 . S
N1532 H1545 0.985 . S
N1533 C1535 1.356 . S
N1533 H1538 0.984 . S
N1533 H1539 0.985 . S
C1534 C1528 1.379 . S
C1534 C1531 1.363 . S
C1534 N1532 1.356 . S
C1535 C1529 1.363 . S
C1535 C1530 1.379 . S
C1535 N1533 1.356 . S
N1536 C1528 1.356 . S
N1536 H1542 0.984 . S
N1536 H1543 0.984 . S
N1537 C1530 1.356 . S
N1537 H1540 0.984 . S
N1537 H1541 0.985 . S
H1538 N1533 0.984 . S
H1539 N1533 0.985 . S
H1540 N1537 0.984 . S
H1541 N1537 0.985 . S
H1542 N1536 0.984 . S
H1543 N1536 0.984 . S
H1544 N1532 0.984 . S
H1545 N1532 0.985 . S
C1546 C1547 1.363 . S
C1546 C1552 1.379 . S
C1546 N1554 1.356 . S
C1547 C1546 1.363 . S
C1547 C1553 1.363 . S
C1548 C1549 1.363 . S
C1548 C1553 1.379 . S
C1548 N1555 1.356 . S
C1549 C1548 1.363 . S
C1549 C1552 1.363 . S
N1550 C1552 1.356 . S
N1550 H1562 0.984 . S
N1550 H1563 0.985 . S
N1551 C1553 1.356 . S
N1551 H1556 0.984 . S
N1551 H1557 0.985 . S
C1552 C1546 1.379 . S
C1552 C1549 1.363 . S
C1552 N1550 1.356 . S
C1553 C1547 1.363 . S
C1553 C1548 1.379 . S
C1553 N1551 1.356 . S
N1554 C1546 1.356 . S
N1554 H1560 0.984 . S
N1554 H1561 0.984 . S
N1555 C1548 1.356 . S
N1555 H1558 0.984 . S
N1555 H1559 0.985 . S
H1556 N1551 0.984 . S
H1557 N1551 0.985 . S
H1558 N1555 0.984 . S
H1559 N1555 0.985 . S
H1560 N1554 0.984 . S
H1561 N1554 0.984 . S
H1562 N1550 0.984 . S
H1563 N1550 0.985 . S
C1564 C1565 1.363 . S
C1564 C1570 1.379 . S
C1564 N1572 1.356 1_554 S
C1565 C1564 1.363 . S
C1565 C1571 1.363 . S
C1566 C1567 1.363 . S
C1566 C1571 1.379 . S
C1566 N1573 1.356 . S
C1567 C1566 1.363 . S
C1567 C1570 1.363 . S
N1568 C1570 1.356 . S
N1568 H1580 0.984 . S
N1568 H1581 0.985 . S
N1569 C1571 1.356 . S
N1569 H1574 0.984 . S
N1569 H1575 0.985 . S
C1570 C1564 1.379 . S
C1570 C1567 1.363 . S
C1570 N1568 1.356 . S
C1571 C1565 1.363 . S
C1571 C1566 1.379 . S
C1571 N1569 1.356 . S
N1572 C1564 1.356 1_556 S
N1572 H1578 0.984 . S
N1572 H1579 0.984 . S
N1573 C1566 1.356 . S
N1573 H1576 0.984 . S
N1573 H1577 0.985 . S
H1574 N1569 0.984 . S
H1575 N1569 0.985 . S
H1576 N1573 0.984 . S
H1577 N1573 0.985 . S
H1578 N1572 0.984 . S
H1579 N1572 0.984 . S
H1580 N1568 0.984 . S
H1581 N1568 0.985 . S
C1582 C1583 1.363 . S
C1582 C1588 1.379 . S
C1582 N1590 1.356 . S
C1583 C1582 1.363 . S
C1583 C1589 1.363 . S
C1584 C1585 1.363 . S
C1584 C1589 1.379 . S
C1584 N1591 1.356 . S
C1585 C1584 1.363 . S
C1585 C1588 1.363 . S
N1586 C1588 1.356 . S
N1586 H1598 0.984 . S
N1586 H1599 0.985 . S
N1587 C1589 1.356 . S
N1587 H1592 0.984 . S
N1587 H1593 0.985 . S
C1588 C1582 1.379 . S
C1588 C1585 1.363 . S
C1588 N1586 1.356 . S
C1589 C1583 1.363 . S
C1589 C1584 1.379 . S
C1589 N1587 1.356 . S
N1590 C1582 1.356 . S
N1590 H1596 0.984 . S
N1590 H1597 0.984 . S
N1591 C1584 1.356 . S
N1591 H1594 0.984 . S
N1591 H1595 0.985 . S
H1592 N1587 0.984 . S
H1593 N1587 0.985 . S
H1594 N1591 0.984 . S
H1595 N1591 0.985 . S
H1596 N1590 0.984 . S
H1597 N1590 0.984 . S
H1598 N1586 0.984 . S
H1599 N1586 0.985 . S
C449 C93 1.481 . S
C451 C9 1.481 . S
C467 C23 1.481 . S
C469 C107 1.481 . S
C485 C65 1.481 . S
C487 C37 1.481 . S
C503 C51 1.481 . S
C505 C79 1.481 . S
C521 C205 1.481 . S
C523 C121 1.481 . S
C539 C219 1.481 . S
C541 C135 1.481 . S
C557 C149 1.481 . S
C559 C177 1.481 . S
C575 C163 1.481 . S
C577 C191 1.481 . S
C593 C233 1.481 . S
C595 C317 1.481 . S
C611 C247 1.481 . S
C613 C331 1.481 . S
C629 C289 1.481 . S
C631 C261 1.481 . S
C647 C303 1.481 . S
C649 C275 1.481 . S
C665 C345 1.481 . S
C667 C429 1.481 . S
C683 C443 1.481 . S
C685 C359 1.481 . S
C701 C401 1.481 . S
C703 C373 1.481 . S
C719 C387 1.481 . S
C721 C415 1.481 . S
C737 C3 1.318 . S
C739 C427 1.330 . S
C755 C217 1.330 . S
C757 C17 1.318 . S
C773 C31 1.318 . S
C775 C399 1.330 . S
C791 C45 1.318 . S
C793 C189 1.330 . S
C809 C371 1.330 . S
C811 C59 1.318 . S
C827 C161 1.330 . S
C829 C73 1.318 . S
C845 C87 1.318 . S
C847 C343 1.330 . S
C863 C133 1.330 . S
C865 C101 1.318 . S
C881 C115 1.318 . S
C883 C315 1.330 . S
C899 C105 1.330 . S
C901 C129 1.318 . S
C917 C143 1.318 . S
C919 C287 1.330 . S
C935 C157 1.318 . S
C937 C77 1.330 . S
C953 C259 1.330 . S
C955 C171 1.318 . S
C971 C185 1.318 . S
C973 C49 1.330 . S
C989 C199 1.318 . S
C991 C231 1.330 . S
C1007 C21 1.330 . S
C1009 C213 1.318 . S
C1025 C227 1.318 . S
C1027 C203 1.330 . S
C1043 C241 1.318 . S
C1045 C441 1.330 . S
C1061 C175 1.330 . S
C1063 C255 1.318 . S
C1079 C269 1.318 . S
C1081 C413 1.330 . S
C1097 C147 1.330 . S
C1099 C283 1.318 . S
C1115 C385 1.330 . S
C1117 C297 1.318 . S
C1133 C119 1.330 . S
C1135 C311 1.318 . S
C1151 C357 1.330 . S
C1153 C325 1.318 . S
C1169 C339 1.318 . S
C1171 C91 1.330 . S
C1187 C329 1.330 . S
C1189 C353 1.318 . S
C1205 C63 1.330 . S
C1207 C367 1.318 . S
C1223 C381 1.318 . S
C1225 C301 1.330 . S
C1241 C395 1.318 . S
C1243 C35 1.330 . S
C1259 C409 1.318 . S
C1261 C273 1.330 . S
C1277 C7 1.330 . S
C1279 C423 1.318 . S
C1295 C437 1.318 . S
C1297 C245 1.330 . S
C1313 C8 1.460 . S
C1315 C302 1.460 . S
C1331 C316 1.460 . S
C1333 C22 1.460 . S
C1349 C36 1.460 . S
C1351 C330 1.460 . S
C1367 C288 1.460 . S
C1369 C50 1.460 . S
C1385 C274 1.460 . S
C1387 C64 1.460 . S
C1403 C232 1.460 . S
C1405 C78 1.460 . S
C1421 C246 1.460 . S
C1423 C92 1.460 . S
C1439 C260 1.460 . S
C1441 C106 1.460 . S
C1457 C120 1.460 . S
C1459 C414 1.460 . S
C1475 C428 1.460 . S
C1477 C134 1.460 . S
C1493 C442 1.460 . S
C1495 C148 1.460 . S
C1511 C400 1.460 . S
C1513 C162 1.460 . S
C1529 C386 1.460 . S
C1531 C176 1.460 . S
C1547 C344 1.460 . S
C1549 C190 1.460 . S
C1565 C204 1.460 . S
C1567 C358 1.460 . S
C1583 C218 1.460 . S
C1585 C372 1.460 . S
