# Generated by pormake.
# Topology ukl, (4)-cn, num edge types: 1
# Building blocks:
#     Node 0, Type 0, BuildingBlock: ESEHIV_clean_sbu_0, # of connection points: 4
#     Node 1, Type 0, BuildingBlock: ESEHIV_clean_sbu_0, # of connection points: 4
#     Node 2, Type 0, BuildingBlock: ESEHIV_clean_sbu_0, # of connection points: 4
#     Node 3, Type 0, BuildingBlock: ESEHIV_clean_sbu_0, # of connection points: 4
#     Node 4, Type 0, BuildingBlock: ESEHIV_clean_sbu_0, # of connection points: 4
#     Node 5, Type 0, BuildingBlock: ESEHIV_clean_sbu_0, # of connection points: 4
#     Node 6, Type 0, BuildingBlock: ESEHIV_clean_sbu_0, # of connection points: 4
#     Node 7, Type 0, BuildingBlock: ESEHIV_clean_sbu_0, # of connection points: 4
#     Node 8, Type 0, BuildingBlock: ESEHIV_clean_sbu_0, # of connection points: 4
#     Node 9, Type 0, BuildingBlock: ESEHIV_clean_sbu_0, # of connection points: 4
#     Node 10, Type 0, BuildingBlock: ESEHIV_clean_sbu_0, # of connection points: 4
#     Node 11, Type 0, BuildingBlock: ESEHIV_clean_sbu_0, # of connection points: 4
#     Node 12, Type 0, BuildingBlock: ESEHIV_clean_sbu_0, # of connection points: 4
#     Node 13, Type 0, BuildingBlock: ESEHIV_clean_sbu_0, # of connection points: 4
#     Node 14, Type 0, BuildingBlock: ESEHIV_clean_sbu_0, # of connection points: 4
#     Node 15, Type 0, BuildingBlock: ESEHIV_clean_sbu_0, # of connection points: 4
#     Edge 16, Type (0, 0), BuildingBlock: UVAHIK_clean_linker_0, # of connection points: 2
#     Edge 17, Type (0, 0), BuildingBlock: UVAHIK_clean_linker_0, # of connection points: 2
#     Edge 18, Type (0, 0), BuildingBlock: UVAHIK_clean_linker_0, # of connection points: 2
#     Edge 19, Type (0, 0), BuildingBlock: UVAHIK_clean_linker_0, # of connection points: 2
#     Edge 20, Type (0, 0), BuildingBlock: UVAHIK_clean_linker_0, # of connection points: 2
#     Edge 21, Type (0, 0), BuildingBlock: UVAHIK_clean_linker_0, # of connection points: 2
#     Edge 22, Type (0, 0), BuildingBlock: UVAHIK_clean_linker_0, # of connection points: 2
#     Edge 23, Type (0, 0), BuildingBlock: UVAHIK_clean_linker_0, # of connection points: 2
#     Edge 24, Type (0, 0), BuildingBlock: UVAHIK_clean_linker_0, # of connection points: 2
#     Edge 25, Type (0, 0), BuildingBlock: UVAHIK_clean_linker_0, # of connection points: 2
#     Edge 26, Type (0, 0), BuildingBlock: UVAHIK_clean_linker_0, # of connection points: 2
#     Edge 27, Type (0, 0), BuildingBlock: UVAHIK_clean_linker_0, # of connection points: 2
#     Edge 28, Type (0, 0), BuildingBlock: UVAHIK_clean_linker_0, # of connection points: 2
#     Edge 29, Type (0, 0), BuildingBlock: UVAHIK_clean_linker_0, # of connection points: 2
#     Edge 30, Type (0, 0), BuildingBlock: UVAHIK_clean_linker_0, # of connection points: 2
#     Edge 31, Type (0, 0), BuildingBlock: UVAHIK_clean_linker_0, # of connection points: 2
#     Edge 32, Type (0, 0), BuildingBlock: UVAHIK_clean_linker_0, # of connection points: 2
#     Edge 33, Type (0, 0), BuildingBlock: UVAHIK_clean_linker_0, # of connection points: 2
#     Edge 34, Type (0, 0), BuildingBlock: UVAHIK_clean_linker_0, # of connection points: 2
#     Edge 35, Type (0, 0), BuildingBlock: UVAHIK_clean_linker_0, # of connection points: 2
#     Edge 36, Type (0, 0), BuildingBlock: UVAHIK_clean_linker_0, # of connection points: 2
#     Edge 37, Type (0, 0), BuildingBlock: UVAHIK_clean_linker_0, # of connection points: 2
#     Edge 38, Type (0, 0), BuildingBlock: UVAHIK_clean_linker_0, # of connection points: 2
#     Edge 39, Type (0, 0), BuildingBlock: UVAHIK_clean_linker_0, # of connection points: 2
#     Edge 40, Type (0, 0), BuildingBlock: UVAHIK_clean_linker_0, # of connection points: 2
#     Edge 41, Type (0, 0), BuildingBlock: UVAHIK_clean_linker_0, # of connection points: 2
#     Edge 42, Type (0, 0), BuildingBlock: UVAHIK_clean_linker_0, # of connection points: 2
#     Edge 43, Type (0, 0), BuildingBlock: UVAHIK_clean_linker_0, # of connection points: 2
#     Edge 44, Type (0, 0), BuildingBlock: UVAHIK_clean_linker_0, # of connection points: 2
#     Edge 45, Type (0, 0), BuildingBlock: UVAHIK_clean_linker_0, # of connection points: 2
#     Edge 46, Type (0, 0), BuildingBlock: UVAHIK_clean_linker_0, # of connection points: 2
#     Edge 47, Type (0, 0), BuildingBlock: UVAHIK_clean_linker_0, # of connection points: 2
# Relax obj value: 0.073
# Max RMSD: 0.164
# Mean RMSD: 0.147
data_MOF--net-ukl--node1-ESEHIV_clean_sbu_0--edge1-UVAHIK_clean_linker_0
_symmetry_space_group_name_H-M    P1
_symmetry_Int_Tables_number       1
_symmetry_cell_setting            triclinic
loop_
_symmetry_equiv_pos_as_xyz
'x, y, z'
_cell_length_a     43.49524
_cell_length_b     42.360548
_cell_length_c     27.864102
_cell_angle_alpha  89.939341
_cell_angle_beta   90.01963
_cell_angle_gamma 86.394987
loop_
_atom_site_label
_atom_site_type_symbol
_atom_site_fract_x
_atom_site_fract_y
_atom_site_fract_z
_atom_type_partial_charge
Cu0 Cu 0.33199 0.11575 -0.00173 0.0
N1 N 0.35047 0.13935 0.95098 0.0
N2 N 0.3859 0.17047 0.92239 0.0
C3 C 0.37884 0.14971 0.95674 0.0
C4 C 0.36087 0.17324 0.89357 0.0
C5 C 0.339 0.1539 0.91129 0.0
O6 O 0.36545 0.08637 0.021 0.0
C7 C 0.29416 0.16545 0.02916 0.0
O8 O 0.28354 0.16042 0.98586 0.0
H9 H 0.39326 0.14358 0.98745 0.0
H10 H 0.31596 0.15176 0.89755 0.0
N11 N 0.29835 0.09383 0.97615 0.0
N12 N 0.25227 0.07294 0.97653 0.0
C13 C 0.27271 0.08903 0.00173 0.0
C14 C 0.29379 0.08051 0.93305 0.0
C15 C 0.26547 0.06738 0.93333 0.0
C16 C 0.37721 0.06748 0.98935 0.0
O17 O 0.36418 0.06711 0.94686 0.0
H18 H 0.26907 0.09727 0.03817 0.0
H19 H 0.30972 0.08068 0.90327 0.0
O20 O 0.31637 0.14719 0.04484 0.0
H21 H 0.35824 0.18869 0.86267 0.0
H22 H 0.25501 0.05547 0.90371 0.0
Cu23 Cu 0.64981 0.58743 0.31465 0.0
N24 N 0.62073 0.58267 0.36361 0.0
N25 N 0.57809 0.56658 0.39913 0.0
C26 C 0.59657 0.56435 0.36005 0.0
C27 C 0.59146 0.58717 0.42843 0.0
C28 C 0.61767 0.59701 0.40651 0.0
O29 O 0.66536 0.5444 0.29721 0.0
C30 C 0.62068 0.64103 0.28193 0.0
O31 O 0.62781 0.6476 0.32647 0.0
H32 H 0.59273 0.54978 0.32904 0.0
H33 H 0.6329 0.61402 0.4204 0.0
N34 N 0.68319 0.61116 0.33309 0.0
N35 N 0.71674 0.64924 0.32726 0.0
C36 C 0.69641 0.63184 0.30393 0.0
C37 C 0.69597 0.61517 0.37647 0.0
C38 C 0.71675 0.63849 0.37296 0.0
C39 C 0.67505 0.52875 0.33395 0.0
O40 O 0.67489 0.54347 0.37538 0.0
H41 H 0.6902 0.63481 0.26653 0.0
H42 H 0.68963 0.60309 0.40883 0.0
O43 O 0.62775 0.61326 0.26596 0.0
H44 H 0.58255 0.59545 0.46269 0.0
H45 H 0.72955 0.64789 0.40242 0.0
Cu46 Cu 0.1982 0.90663 0.49205 0.0
N47 N 0.17976 0.88073 0.44781 0.0
N48 N 0.14408 0.84867 0.42284 0.0
C49 C 0.15144 0.87062 0.45515 0.0
C50 C 0.16889 0.84484 0.39373 0.0
C51 C 0.19092 0.86474 0.40923 0.0
O52 O 0.16486 0.93735 0.51055 0.0
C53 C 0.23538 0.85858 0.52959 0.0
O54 O 0.2462 0.86097 0.48579 0.0
H55 H 0.1372 0.87804 0.48545 0.0
H56 H 0.2138 0.86646 0.39467 0.0
N57 N 0.23225 0.92696 0.46777 0.0
N58 N 0.27868 0.94719 0.46624 0.0
C59 C 0.25755 0.93325 0.49324 0.0
C60 C 0.23765 0.93714 0.42293 0.0
C61 C 0.26615 0.94985 0.42198 0.0
C62 C 0.15382 0.95504 0.4768 0.0
O63 O 0.1676 0.9537 0.43486 0.0
H64 H 0.26046 0.92749 0.53089 0.0
H65 H 0.22222 0.93498 0.39284 0.0
O66 O 0.21321 0.8778 0.54265 0.0
H67 H 0.1712 0.82844 0.36399 0.0
H68 H 0.27721 0.95938 0.39082 0.0
Cu69 Cu 0.87496 0.44415 0.80841 0.0
N70 N 0.90248 0.44946 0.85903 0.0
N71 N 0.94482 0.46483 0.89622 0.0
C72 C 0.92688 0.46751 0.85655 0.0
C73 C 0.9308 0.44422 0.92477 0.0
C74 C 0.90479 0.43481 0.90179 0.0
O75 O 0.85878 0.48665 0.79004 0.0
C76 C 0.90767 0.39301 0.77185 0.0
O77 O 0.90017 0.38278 0.8145 0.0
H78 H 0.93145 0.48196 0.82566 0.0
H79 H 0.8893 0.41769 0.91466 0.0
N80 N 0.84242 0.41856 0.82443 0.0
N81 N 0.80901 0.38067 0.81652 0.0
C82 C 0.83109 0.39675 0.79511 0.0
C83 C 0.82689 0.41611 0.86597 0.0
C84 C 0.80606 0.39297 0.86104 0.0
C85 C 0.84242 0.50118 0.82201 0.0
O86 O 0.83714 0.48628 0.86216 0.0
H87 H 0.83931 0.39235 0.75892 0.0
H88 H 0.83098 0.42952 0.89806 0.0
O89 O 0.89908 0.42116 0.7594 0.0
H90 H 0.93922 0.43548 0.95909 0.0
H91 H 0.79085 0.38494 0.88864 0.0
Cu92 Cu 0.72605 0.86334 -0.00127 0.0
N93 N 0.7046 0.83829 0.04052 0.0
N94 N 0.66419 0.81319 0.06719 0.0
C95 C 0.67493 0.83251 0.03342 0.0
C96 C 0.6884 0.80633 0.0967 0.0
C97 C 0.71337 0.82184 0.08006 0.0
O98 O 0.69454 0.89523 0.97706 0.0
C99 C 0.76442 0.81538 0.95848 0.0
O100 O 0.77746 0.81747 0.00081 0.0
H101 H 0.66175 0.84193 0.00314 0.0
H102 H 0.73624 0.82097 0.09545 0.0
N103 N 0.75851 0.88262 0.02969 0.0
N104 N 0.80138 0.90835 0.04178 0.0
C105 C 0.78277 0.89564 0.00899 0.0
C106 C 0.76199 0.88712 0.07715 0.0
C107 C 0.78828 0.90301 0.08468 0.0
C108 C 0.68311 0.91406 0.00904 0.0
O109 O 0.69561 0.91328 0.05197 0.0
H110 H 0.78633 0.89628 0.97057 0.0
H111 H 0.7463 0.87971 0.10443 0.0
O112 O 0.74177 0.83477 0.94812 0.0
H113 H 0.68814 0.7914 0.12821 0.0
H114 H 0.79709 0.90992 0.11914 0.0
Cu115 Cu 0.39321 0.47533 0.69451 0.0
N116 N 0.41441 0.45478 0.74451 0.0
N117 N 0.43634 0.41286 0.78242 0.0
C118 C 0.42129 0.42353 0.74294 0.0
C119 C 0.43963 0.43865 0.80996 0.0
C120 C 0.42586 0.46466 0.7864 0.0
O121 O 0.36593 0.44276 0.6728 0.0
C122 C 0.44285 0.50804 0.66551 0.0
O123 O 0.43612 0.52146 0.707 0.0
H124 H 0.41575 0.40897 0.71263 0.0
H125 H 0.42442 0.48889 0.7988 0.0
N126 N 0.37053 0.51153 0.71676 0.0
N127 N 0.3466 0.55984 0.71918 0.0
C128 C 0.36179 0.53775 0.69152 0.0
C129 C 0.3607 0.51732 0.76188 0.0
C130 C 0.34583 0.54698 0.76345 0.0
C131 C 0.34858 0.43308 0.70604 0.0
O132 O 0.34689 0.44902 0.74643 0.0
H133 H 0.36661 0.54054 0.6537 0.0
H134 H 0.36445 0.50128 0.79182 0.0
O135 O 0.4255 0.48705 0.65 0.0
H136 H 0.45095 0.43869 0.84455 0.0
H137 H 0.33601 0.5585 0.79506 0.0
Cu138 Cu 0.80511 0.1581 0.47868 0.0
N139 N 0.82629 0.17886 0.52647 0.0
N140 N 0.86644 0.19994 0.56183 0.0
C141 C 0.85657 0.18347 0.52399 0.0
C142 C 0.84114 0.20613 0.58923 0.0
C143 C 0.81638 0.19303 0.56733 0.0
O144 O 0.83668 0.12774 0.45276 0.0
C145 C 0.76907 0.21068 0.44952 0.0
O146 O 0.75794 0.20587 0.49257 0.0
H147 H 0.87089 0.17553 0.49406 0.0
H148 H 0.79285 0.19405 0.58004 0.0
N149 N 0.77205 0.13686 0.50458 0.0
N150 N 0.72899 0.11061 0.51167 0.0
C151 C 0.74714 0.12651 0.48173 0.0
C152 C 0.76928 0.12748 0.55044 0.0
C153 C 0.74306 0.11115 0.55477 0.0
C154 C 0.84714 0.10651 0.4821 0.0
O155 O 0.8336 0.10444 0.52399 0.0
H156 H 0.74286 0.12992 0.44376 0.0
H157 H 0.78558 0.13168 0.57868 0.0
O158 O 0.78998 0.19098 0.43355 0.0
H159 H 0.84051 0.21912 0.62267 0.0
H160 H 0.73503 0.10032 0.58714 0.0
Cu161 Cu 0.13107 0.55163 0.19093 0.0
N162 N 0.11093 0.57175 0.24224 0.0
N163 N 0.09014 0.61333 0.28215 0.0
C164 C 0.10505 0.60317 0.24232 0.0
C165 C 0.0859 0.58706 0.3082 0.0
C166 C 0.09896 0.56125 0.2834 0.0
O167 O 0.1582 0.58416 0.16862 0.0
C168 C 0.08079 0.51955 0.16288 0.0
O169 O 0.08809 0.50543 0.2037 0.0
H170 H 0.11098 0.61824 0.21277 0.0
H171 H 0.09942 0.53673 0.29437 0.0
N172 N 0.15389 0.51503 0.2115 0.0
N173 N 0.17839 0.46693 0.2115 0.0
C174 C 0.16329 0.48971 0.18483 0.0
C175 C 0.16323 0.50801 0.25653 0.0
C176 C 0.17841 0.47849 0.25663 0.0
C177 C 0.17642 0.59309 0.20121 0.0
O178 O 0.17899 0.57628 0.2408 0.0
H179 H 0.15908 0.48809 0.14666 0.0
H180 H 0.15903 0.52319 0.28732 0.0
O181 O 0.09801 0.54067 0.1474 0.0
H182 H 0.07426 0.58653 0.34249 0.0
H183 H 0.18802 0.4662 0.28779 0.0
Cu184 Cu 0.82272 0.61786 0.48671 0.0
N185 N 0.83804 0.6423 0.43738 0.0
N186 N 0.87058 0.67572 0.4065 0.0
C187 C 0.85781 0.66468 0.4467 0.0
C188 C 0.85816 0.65978 0.37011 0.0
C189 C 0.83789 0.63921 0.38929 0.0
O190 O 0.85772 0.58894 0.50516 0.0
C191 C 0.78735 0.66795 0.52048 0.0
O192 O 0.77595 0.66367 0.47745 0.0
H193 H 0.8645 0.67095 0.48271 0.0
H194 H 0.82546 0.62205 0.36974 0.0
N195 N 0.78802 0.59564 0.46993 0.0
N196 N 0.74168 0.57553 0.47693 0.0
C197 C 0.76333 0.59222 0.49842 0.0
C198 C 0.78173 0.5806 0.42888 0.0
C199 C 0.75331 0.56807 0.43317 0.0
C200 C 0.86839 0.57018 0.47249 0.0
O201 O 0.85358 0.56951 0.43148 0.0
H202 H 0.76137 0.60179 0.53436 0.0
H203 H 0.79654 0.57901 0.39776 0.0
O204 O 0.80937 0.64899 0.53498 0.0
H205 H 0.86421 0.66189 0.33262 0.0
H206 H 0.74178 0.55519 0.40566 0.0
Cu207 Cu 0.1405 0.08711 0.83019 0.0
N208 N 0.11379 0.08475 0.88295 0.0
N209 N 0.07308 0.07044 0.92529 0.0
C210 C 0.08857 0.06783 0.88328 0.0
C211 C 0.08932 0.08991 0.95247 0.0
C212 C 0.11442 0.09865 0.92631 0.0
O213 O 0.15433 0.04343 0.81366 0.0
C214 C 0.10956 0.13932 0.7949 0.0
O215 O 0.11853 0.14824 0.83756 0.0
H216 H 0.08163 0.05415 0.85282 0.0
H217 H 0.13183 0.11403 0.93813 0.0
N218 N 0.17498 0.11058 0.84299 0.0
N219 N 0.20953 0.14741 0.83285 0.0
C220 C 0.1866 0.1317 0.81272 0.0
C221 C 0.19143 0.11243 0.8836 0.0
C222 C 0.21269 0.13502 0.87754 0.0
C223 C 0.16264 0.02622 0.84959 0.0
O224 O 0.16243 0.03925 0.8923 0.0
H225 H 0.1777 0.1358 0.77689 0.0
H226 H 0.18759 0.09902 0.91579 0.0
O227 O 0.11643 0.11094 0.78158 0.0
H228 H 0.08389 0.09685 0.98902 0.0
H229 H 0.22844 0.14232 0.90481 0.0
Cu230 Cu 0.70084 0.41032 0.98663 0.0
N231 N 0.68518 0.38626 0.93717 0.0
N232 N 0.65367 0.35199 0.9059 0.0
C233 C 0.6659 0.36338 0.94627 0.0
C234 C 0.66588 0.36829 0.86966 0.0
C235 C 0.68551 0.38937 0.88908 0.0
O236 O 0.6659 0.43877 0.00668 0.0
C237 C 0.73639 0.3596 0.0177 0.0
O238 O 0.74692 0.36449 0.97428 0.0
H239 H 0.65938 0.35672 0.98221 0.0
H240 H 0.69786 0.40665 0.86962 0.0
N241 N 0.73512 0.43293 0.96904 0.0
N242 N 0.78158 0.45303 0.97448 0.0
C243 C 0.76026 0.4362 -0.00338 0.0
C244 C 0.74073 0.44828 0.92794 0.0
C245 C 0.7692 0.46078 0.93127 0.0
C246 C 0.65488 0.45811 0.97496 0.0
O247 O 0.66925 0.45956 0.93366 0.0
H248 H 0.76277 0.42635 0.03236 0.0
H249 H 0.72543 0.45008 0.89739 0.0
O250 O 0.715 0.37867 0.03385 0.0
H251 H 0.66026 0.36587 0.83205 0.0
H252 H 0.7802 0.47386 0.90344 0.0
Cu253 Cu 0.38195 0.94384 0.30131 0.0
N254 N 0.40978 0.94502 0.35277 0.0
N255 N 0.45084 0.95858 0.39521 0.0
C256 C 0.43204 0.9656 0.3574 0.0
C257 C 0.43983 0.93232 0.41476 0.0
C258 C 0.41457 0.92412 0.38871 0.0
O259 O 0.36766 0.98763 0.28658 0.0
C260 C 0.41083 0.89231 0.25683 0.0
O261 O 0.39964 0.87888 0.29494 0.0
H262 H 0.435 0.98454 0.33211 0.0
H263 H 0.40132 0.9037 0.39456 0.0
N264 N 0.34805 0.91998 0.31613 0.0
N265 N 0.31347 0.88294 0.30896 0.0
C266 C 0.33406 0.9004 0.28607 0.0
C267 C 0.33548 0.91538 0.35941 0.0
C268 C 0.31424 0.89269 0.35518 0.0
C269 C 0.35964 1.00426 0.32313 0.0
O270 O 0.36036 0.99058 0.36539 0.0
H271 H 0.34002 0.89817 0.24852 0.0
H272 H 0.34233 0.92665 0.39219 0.0
O273 O 0.40564 0.92199 0.25061 0.0
H274 H 0.44956 0.91937 0.44518 0.0
H275 H 0.30154 0.88317 0.38465 0.0
Cu276 Cu 0.22104 0.36745 0.47625 0.0
N277 N 0.20388 0.34375 0.5249 0.0
N278 N 0.16772 0.31668 0.5601 0.0
C279 C 0.17804 0.32838 0.51861 0.0
C280 C 0.18784 0.3248 0.59405 0.0
C281 C 0.21044 0.34124 0.57208 0.0
O282 O 0.18632 0.39563 0.45378 0.0
C283 C 0.2591 0.31752 0.44472 0.0
O284 O 0.26949 0.32186 0.48836 0.0
H285 H 0.16599 0.32746 0.48467 0.0
H286 H 0.22958 0.35149 0.58966 0.0
N287 N 0.25317 0.39141 0.49925 0.0
N288 N 0.29689 0.41697 0.50285 0.0
C289 C 0.27899 0.39881 0.47581 0.0
C290 C 0.25486 0.40542 0.54241 0.0
C291 C 0.28152 0.42116 0.54467 0.0
C292 C 0.17343 0.41332 0.48604 0.0
O293 O 0.18545 0.41265 0.52926 0.0
H294 H 0.28452 0.39083 0.4398 0.0
H295 H 0.23776 0.4047 0.5704 0.0
O296 O 0.23728 0.33638 0.42928 0.0
H297 H 0.18591 0.31983 0.63202 0.0
H298 H 0.28853 0.43525 0.57462 0.0
Cu299 Cu 0.90437 0.97688 0.19112 0.0
N300 N 0.9279 0.96351 0.24376 0.0
N301 N 0.95675 0.92913 0.28759 0.0
C302 C 0.93306 0.9331 0.25667 0.0
C303 C 0.96695 0.95815 0.29466 0.0
C304 C 0.94886 0.97947 0.26778 0.0
O305 O 0.87879 0.94154 0.17628 0.0
C306 C 0.9485 1.01141 0.14508 0.0
O307 O 0.93875 0.0323 0.17731 0.0
H308 H 0.9219 0.91384 0.23978 0.0
H309 H 0.9524 1.00431 0.26301 0.0
N310 N 0.88029 0.01339 0.20824 0.0
N311 N 0.8532 0.06007 0.20559 0.0
C312 C 0.86733 0.03629 0.17975 0.0
C313 C 0.87417 0.02298 0.25344 0.0
C314 C 0.85744 0.05162 0.25196 0.0
C315 C 0.85554 0.93735 0.20295 0.0
O316 O 0.84782 0.95872 0.23561 0.0
H317 H 0.86868 0.03567 0.14097 0.0
H318 H 0.88191 1.01024 0.28533 0.0
O319 O 0.93482 0.98572 0.14172 0.0
H320 H 0.98729 0.96317 0.31499 0.0
H321 H 0.84995 0.06563 0.28275 0.0
Cu322 Cu 0.30241 0.65949 0.99121 0.0
N323 N 0.32058 0.68124 0.041 0.0
N324 N 0.35799 0.70665 0.07611 0.0
C325 C 0.3468 0.69589 0.03458 0.0
C326 C 0.33795 0.69864 0.11031 0.0
C327 C 0.31463 0.68314 0.08841 0.0
O328 O 0.33659 0.63174 0.96614 0.0
C329 C 0.26472 0.71098 0.96361 0.0
O330 O 0.25459 0.70559 0.00711 0.0
H331 H 0.35835 0.69709 0.00027 0.0
H332 H 0.29533 0.67324 0.10608 0.0
N333 N 0.2702 0.63516 0.01274 0.0
N334 N 0.22684 0.6089 0.01375 0.0
C335 C 0.24482 0.62781 0.98813 0.0
C336 C 0.26816 0.62041 0.05529 0.0
C337 C 0.24172 0.60422 0.05597 0.0
C338 C 0.3493 0.61254 -0.00334 0.0
O339 O 0.33722 0.61134 0.03973 0.0
H340 H 0.23972 0.63632 0.9522 0.0
H341 H 0.28496 0.62083 0.0838 0.0
O342 O 0.28614 0.69224 0.94671 0.0
H343 H 0.34028 0.70321 0.14832 0.0
H344 H 0.23453 0.58956 0.08518 0.0
Cu345 Cu 0.62518 0.05483 0.67078 0.0
N346 N 0.60216 0.06654 0.72481 0.0
N347 N 0.57408 0.09938 0.77211 0.0
C348 C 0.59657 0.09664 0.73899 0.0
C349 C 0.56507 0.06989 0.77931 0.0
C350 C 0.58277 0.04951 0.75038 0.0
O351 O 0.64659 0.09295 0.65482 0.0
C352 C 0.58195 0.01697 0.62921 0.0
O353 O 0.59231 0.99799 0.66368 0.0
H354 H 0.60663 0.11655 0.722 0.0
H355 H 0.58007 0.02451 0.74588 0.0
N356 N 0.65274 0.02083 0.68743 0.0
N357 N 0.68043 0.97449 0.68726 0.0
C358 C 0.66193 0.99507 0.66151 0.0
C359 C 0.66591 0.01645 0.7308 0.0
C360 C 0.68306 0.98802 0.73078 0.0
C361 C 0.67519 0.09576 0.66276 0.0
O362 O 0.69283 0.07049 0.67369 0.0
H363 H 0.6547 0.99129 0.6249 0.0
H364 H 0.66264 0.03257 0.76071 0.0
O365 O 0.59481 0.04292 0.62287 0.0
H366 H 0.54586 0.06389 0.80152 0.0
H367 H 0.69546 0.97757 0.76114 0.0
C368 C 0.64381 0.95605 0.03561 0.0
C369 C 0.65354 0.93302 0.00159 0.0
C370 C 0.61434 0.97119 0.03326 0.0
C371 C 0.53636 0.95975 0.98654 0.0
H372 H 0.52091 0.0481 0.0204 0.0
C373 C 0.4171 0.02616 0.96275 0.0
C374 C 0.4072 0.04923 -0.0034 0.0
C375 C 0.44672 1.0114 0.96497 0.0
C376 C 0.52474 0.02328 0.01156 0.0
H377 H 0.64005 0.9086 0.93739 0.0
H378 H 0.5885 0.93533 0.93292 0.0
H379 H 0.57372 0.0251 0.01739 0.0
H380 H 0.42061 0.0742 0.06034 0.0
H381 H 0.47247 0.04806 0.06467 0.0
H382 H 0.48741 0.95789 0.98079 0.0
C383 C 0.60369 0.9414 0.96182 0.0
C384 C 0.55509 1.01009 0.0096 0.0
C385 C 0.63337 0.92632 0.96403 0.0
C386 C 0.42743 0.05643 0.03383 0.0
C387 C 0.45727 0.04169 0.03595 0.0
C388 C 0.50602 0.97293 0.98853 0.0
C389 C 0.59362 0.96368 -0.0031 0.0
C390 C 0.56134 0.97813 -0.00294 0.0
C391 C 0.46745 0.01928 0.00109 0.0
C392 C 0.49976 1.00489 0.00101 0.0
H393 H 0.6587 0.96181 0.06508 0.0
H394 H 0.60741 0.98794 0.06116 0.0
H395 H 0.54019 0.93493 0.97768 0.0
H396 H 0.40219 0.02 0.93352 0.0
H397 H 0.45371 0.99459 0.93719 0.0
C398 C 0.81157 0.90555 0.22719 0.0
C399 C 0.83976 0.90718 0.20289 0.0
C400 C 0.79825 0.87665 0.23358 0.0
C401 C 0.81886 0.79115 0.2424 0.0
H402 H 0.73029 0.7853 0.24055 0.0
C403 C 0.75864 0.68667 0.33084 0.0
C404 C 0.73206 0.67614 0.3086 0.0
C405 C 0.7726 0.7135 0.31373 0.0
C406 C 0.75511 0.78625 0.24081 0.0
H407 H 0.87552 0.8796 0.16465 0.0
H408 H 0.8522 0.82883 0.1759 0.0
H409 H 0.75225 0.83388 0.21451 0.0
H410 H 0.69956 0.6861 0.25053 0.0
H411 H 0.72414 0.73187 0.22026 0.0
H412 H 0.82169 0.7434 0.26853 0.0
C413 C 0.84052 0.85008 0.1903 0.0
C414 C 0.76771 0.81434 0.22627 0.0
C415 C 0.85375 0.87921 0.18345 0.0
C416 C 0.72015 0.69301 0.26842 0.0
C417 C 0.73408 0.71972 0.25134 0.0
C418 C 0.80623 0.76299 0.25703 0.0
C419 C 0.81283 0.84838 0.21619 0.0
C420 C 0.79973 0.81737 0.22741 0.0
C421 C 0.76033 0.73062 0.27395 0.0
C422 C 0.77412 0.76021 0.25688 0.0
H423 H 0.80008 0.92661 0.24256 0.0
H424 H 0.7771 0.87636 0.25401 0.0
H425 H 0.84359 0.79267 0.24418 0.0
H426 H 0.76867 0.67422 0.36157 0.0
H427 H 0.79262 0.72122 0.33244 0.0
C428 C 0.10257 0.96705 0.51749 0.0
C429 C 0.12371 0.97346 0.48117 0.0
C430 C 0.07267 0.98165 0.51696 0.0
C431 C 0.01591 0.02212 0.43325 0.0
H432 H 0.9731 0.04683 0.55052 0.0
C433 C 0.89789 0.09638 0.43873 0.0
C434 C 0.87684 0.08792 0.4741 0.0
C435 C 0.92774 0.0816 0.43718 0.0
C436 C 0.98461 0.03977 0.5174 0.0
H437 H 0.13042 1.00136 0.41712 0.0
H438 H 0.07895 0.02724 0.41694 0.0
H439 H 0.0258 0.02382 0.55459 0.0
H440 H 0.87015 0.05599 0.53363 0.0
H441 H 0.92163 0.03033 0.53058 0.0
H442 H 0.97464 0.03841 0.39614 0.0
C443 C 0.08497 1.01034 0.44511 0.0
C444 C 0.01488 0.02651 0.51977 0.0
C445 C 0.11467 0.99567 0.44551 0.0
C446 C 0.88581 0.06337 0.50618 0.0
C447 C 0.91548 0.04876 0.50471 0.0
C448 C 0.98564 0.03554 0.43088 0.0
C449 C 0.06329 1.0031 0.48022 0.0
C450 C 0.03098 0.01743 0.47776 0.0
C451 C 0.93712 0.05819 0.47106 0.0
C452 C 0.96955 0.04439 0.47297 0.0
H453 H 0.10868 0.94984 0.54521 0.0
H454 H 0.0566 0.97527 0.54445 0.0
H455 H 0.0273 0.01493 0.40012 0.0
H456 H 0.8918 0.11531 0.41366 0.0
H457 H 0.94387 0.08945 0.41077 0.0
C458 C 0.66756 0.15496 0.67238 0.0
C459 C 0.68751 0.12761 0.66812 0.0
C460 C 0.67911 0.18419 0.6841 0.0
C461 C 0.74727 0.23026 0.68109 0.0
H462 H 0.7169 0.26943 0.79896 0.0
C463 C 0.81044 0.33147 0.76881 0.0
C464 C 0.79396 0.35402 0.79726 0.0
C465 C 0.79622 0.30519 0.75083 0.0
C466 C 0.72533 0.25943 0.76539 0.0
H467 H 0.73538 0.10997 0.67211 0.0
H468 H 0.7555 0.16119 0.68961 0.0
H469 H 0.69376 0.22248 0.7687 0.0
H470 H 0.7495 0.36707 0.82856 0.0
H471 H 0.72402 0.32225 0.79529 0.0
H472 H 0.77813 0.26738 0.67635 0.0
C473 C 0.73093 0.15987 0.68445 0.0
C474 C 0.71206 0.2323 0.74822 0.0
C475 C 0.71934 0.13053 0.67419 0.0
C476 C 0.76279 0.3499 0.80698 0.0
C477 C 0.74829 0.32397 0.78805 0.0
C478 C 0.76007 0.2578 0.69756 0.0
C479 C 0.7109 0.18686 0.69059 0.0
C480 C 0.7232 0.21718 0.70632 0.0
C481 C 0.76482 0.301 0.75981 0.0
C482 C 0.74973 0.2726 0.74052 0.0
H483 H 0.6429 0.15359 0.66855 0.0
H484 H 0.66317 0.20467 0.6886 0.0
H485 H 0.75615 0.21918 0.64848 0.0
H486 H 0.83464 0.33375 0.76145 0.0
H487 H 0.81023 0.28788 0.73063 0.0
C488 C 0.21508 0.18848 0.7696 0.0
C489 C 0.22557 0.17336 0.81224 0.0
C490 C 0.23001 0.21407 0.7505 0.0
C491 C 0.30316 0.25623 0.75929 0.0
H492 H 0.25391 0.3259 0.70188 0.0
C493 C 0.34339 0.38225 0.74837 0.0
C494 C 0.33801 0.40045 0.70667 0.0
C495 C 0.3318 0.35246 0.75303 0.0
C496 C 0.26806 0.30642 0.71704 0.0
H497 H 0.26087 0.17385 0.86737 0.0
H498 H 0.28595 0.21874 0.8353 0.0
H499 H 0.22926 0.27848 0.72748 0.0
H500 H 0.31667 0.40139 0.63655 0.0
H501 H 0.29511 0.34907 0.64528 0.0
H502 H 0.34167 0.28492 0.7508 0.0
C503 C 0.26647 0.21042 0.81589 0.0
C504 C 0.25394 0.27911 0.73182 0.0
C505 C 0.2517 0.18468 0.83481 0.0
C506 C 0.32117 0.38782 0.669 0.0
C507 C 0.30878 0.35802 0.67416 0.0
C508 C 0.31715 0.28361 0.74501 0.0
C509 C 0.25583 0.22564 0.77347 0.0
C510 C 0.27118 0.25381 0.75412 0.0
C511 C 0.3139 0.34009 0.71648 0.0
C512 C 0.29971 0.30932 0.72462 0.0
H513 H 0.19503 0.18101 0.75089 0.0
H514 H 0.22125 0.2247 0.71747 0.0
H515 H 0.31749 0.23708 0.77493 0.0
H516 H 0.35646 0.39125 0.77794 0.0
H517 H 0.33599 0.33954 0.78622 0.0
C518 C 0.30438 0.84367 0.24445 0.0
C519 C 0.29682 0.85705 0.28961 0.0
C520 C 0.28932 0.81767 0.22701 0.0
C521 C 0.22035 0.77039 0.24905 0.0
H522 H 0.2678 0.70491 0.17904 0.0
C523 C 0.19061 0.64076 0.24594 0.0
C524 C 0.1883 0.62526 0.20157 0.0
C525 C 0.20167 0.67087 0.24877 0.0
C526 C 0.25412 0.72326 0.1978 0.0
H527 H 0.26638 0.85329 0.35084 0.0
H528 H 0.24133 0.80773 0.3217 0.0
H529 H 0.29145 0.75384 0.20034 0.0
H530 H 0.19541 0.62975 0.12507 0.0
H531 H 0.21664 0.68241 0.13031 0.0
H532 H 0.18372 0.73878 0.24892 0.0
C533 C 0.2585 0.81764 0.29904 0.0
C534 C 0.26763 0.75142 0.2101 0.0
C535 C 0.27332 0.84378 0.31626 0.0
C536 C 0.19726 0.64089 0.15975 0.0
C537 C 0.20932 0.67097 0.16277 0.0
C538 C 0.20709 0.74212 0.23741 0.0
C539 C 0.26633 0.80399 0.25421 0.0
C540 C 0.25116 0.77517 0.23691 0.0
C541 C 0.2114 0.68628 0.20746 0.0
C542 C 0.22399 0.718 0.21249 0.0
H543 H 0.32232 0.85277 0.22255 0.0
H544 H 0.29579 0.80833 0.19205 0.0
H545 H 0.20647 0.78828 0.26836 0.0
H546 H 0.18347 0.62973 0.27887 0.0
H547 H 0.20311 0.68197 0.28366 0.0
C548 C 0.91932 0.55765 0.51447 0.0
C549 C 0.89865 0.55193 0.47713 0.0
C550 C 0.94903 0.54254 0.51493 0.0
C551 C 1.00686 0.50214 0.43321 0.0
H552 H 0.04588 0.47317 0.55161 0.0
C553 C 0.12377 0.42588 0.44029 0.0
C554 C 0.14377 0.4321 0.47832 0.0
C555 C 0.09409 0.44112 0.43814 0.0
C556 C 0.0355 0.48143 0.51819 0.0
H557 H 0.89276 0.52483 0.41204 0.0
H558 H 0.94392 0.49837 0.41337 0.0
H559 H 0.99381 0.49789 0.55358 0.0
H560 H 0.14884 0.46059 0.5422 0.0
H561 H 0.09791 0.48721 0.53795 0.0
H562 H 0.04864 0.48559 0.39786 0.0
C563 C 0.93762 0.51501 0.44172 0.0
C564 C 1.00556 0.49566 0.51938 0.0
C565 C 0.90808 0.53006 0.44123 0.0
C566 C 0.13396 0.45487 0.51268 0.0
C567 C 0.10456 0.47003 0.51049 0.0
C568 C 0.03684 0.48788 0.43202 0.0
C569 C 0.95874 0.52138 0.47808 0.0
C570 C 0.99079 0.50627 0.47693 0.0
C571 C 0.08388 0.46286 0.47395 0.0
C572 C 0.05165 0.47746 0.47455 0.0
H573 H 0.9129 0.57448 0.5425 0.0
H574 H 0.96471 0.5482 0.54341 0.0
H575 H 0.99646 0.51043 0.39982 0.0
H576 H 0.13055 0.40838 0.41338 0.0
H577 H 0.07877 0.43498 0.40945 0.0
C578 C 0.39891 0.60202 0.95015 0.0
C579 C 0.37897 0.59413 0.98737 0.0
C580 C 0.42855 0.58687 0.94654 0.0
C581 C 0.47683 0.51627 0.98982 0.0
H582 H 0.54517 0.5683 0.96445 0.0
C583 C 0.60383 0.46884 0.0172 0.0
C584 C 0.62467 0.47621 0.98092 0.0
C585 C 0.57403 0.48373 0.0184 0.0
C586 C 0.52635 0.55333 0.97122 0.0
H587 H 0.37416 0.56319 0.04869 0.0
H588 H 0.42521 0.53717 0.04251 0.0
H589 H 0.49255 0.59186 0.9615 0.0
H590 H 0.63077 0.50592 0.91856 0.0
H591 H 0.5793 0.53163 0.92073 0.0
H592 H 0.51062 0.47779 -0.0002 0.0
C593 C 0.41822 0.55482 0.01585 0.0
C594 C 0.49611 0.56684 0.96928 0.0
C595 C 0.38886 0.56996 0.01956 0.0
C596 C 0.61537 0.49958 0.94705 0.0
C597 C 0.58579 0.51451 0.9484 0.0
C598 C 0.50706 0.50278 0.99183 0.0
C599 C 0.43874 0.56335 0.97984 0.0
C600 C 0.4709 0.54854 0.97879 0.0
C601 C 0.56449 0.50649 0.98359 0.0
C602 C 0.53227 0.52112 0.98271 0.0
H603 H 0.39207 0.62061 0.92491 0.0
H604 H 0.4436 0.5938 0.91797 0.0
H605 H 0.45804 0.50128 -0.00334 0.0
H606 H 0.61018 0.4509 0.04374 0.0
H607 H 0.55838 0.47725 0.04644 0.0
C608 C 0.1789 0.4216 0.15539 0.0
C609 C 0.19104 0.43633 0.19574 0.0
C610 C 0.19089 0.39181 0.14051 0.0
C611 C 0.23742 0.32027 0.18165 0.0
H612 H 0.24462 0.30441 0.04502 0.0
C613 C 0.29689 0.20546 0.09608 0.0
C614 C 0.28165 0.19359 0.05606 0.0
C615 C 0.28638 0.23438 0.11689 0.0
C616 C 0.24254 0.30835 0.08332 0.0
H617 H 0.22567 0.43123 0.25171 0.0
H618 H 0.24673 0.37938 0.22554 0.0
H619 H 0.22572 0.35635 0.0731 0.0
H620 H 0.24237 0.20177 0.00852 0.0
H621 H 0.22421 0.2515 0.04469 0.0
H622 H 0.25452 0.27198 0.19148 0.0
C623 C 0.22756 0.39065 0.20587 0.0
C624 C 0.23161 0.33815 0.09944 0.0
C625 C 0.21549 0.42044 0.22085 0.0
C626 C 0.25498 0.21038 0.03885 0.0
C627 C 0.2446 0.23905 0.05944 0.0
C628 C 0.24852 0.29034 0.16543 0.0
C629 C 0.21546 0.37597 0.16541 0.0
C630 C 0.22846 0.34443 0.14877 0.0
C631 C 0.26057 0.25185 0.09786 0.0
C632 C 0.25071 0.28394 0.11602 0.0
H633 H 0.15973 0.43282 0.13573 0.0
H634 H 0.18056 0.38099 0.10975 0.0
H635 H 0.23512 0.32419 0.21991 0.0
H636 H 0.31749 0.19307 0.11017 0.0
H637 H 0.29914 0.24363 0.14657 0.0
C638 C 0.33483 0.43323 0.44205 0.0
C639 C 0.32596 0.42984 0.49028 0.0
C640 C 0.36251 0.44674 0.43028 0.0
C641 C 0.43777 0.46715 0.48315 0.0
H642 H 0.44051 0.52347 0.37366 0.0
C643 C 0.53742 0.54896 0.45384 0.0
C644 C 0.54985 0.55083 0.40739 0.0
C645 C 0.51035 0.53362 0.46214 0.0
C646 C 0.4402 0.50755 0.40407 0.0
H647 H 0.34027 0.43739 0.56388 0.0
H648 H 0.38748 0.46164 0.5435 0.0
H649 H 0.3932 0.49757 0.39148 0.0
H650 H 0.54236 0.53834 0.33284 0.0
H651 H 0.49547 0.51123 0.3476 0.0
H652 H 0.48465 0.47747 0.49591 0.0
C653 C 0.37334 0.45354 0.51457 0.0
C654 C 0.41308 0.49259 0.41427 0.0
C655 C 0.34583 0.43995 0.52631 0.0
C656 C 0.53403 0.53711 0.3693 0.0
C657 C 0.50686 0.52177 0.37763 0.0
C658 C 0.46477 0.48222 0.47307 0.0
C659 C 0.38211 0.45726 0.46639 0.0
C660 C 0.41138 0.47233 0.45421 0.0
C661 C 0.49483 0.51962 0.42425 0.0
C662 C 0.46627 0.50282 0.43369 0.0
H663 H 0.3202 0.42594 0.41323 0.0
H664 H 0.36859 0.44878 0.39278 0.0
H665 H 0.43774 0.45122 0.51357 0.0
H666 H 0.54862 0.5592 0.48402 0.0
H667 H 0.50129 0.53311 0.49826 0.0
C668 C 0.23171 0.8219 0.60059 0.0
C669 C 0.2479 0.83237 0.56055 0.0
C670 C 0.24251 0.7946 0.62561 0.0
C671 C 0.31202 0.73929 0.64144 0.0
H672 H 0.25301 0.67682 0.6689 0.0
C673 C 0.3487 0.60746 0.66799 0.0
C674 C 0.33481 0.59115 0.7053 0.0
C675 C 0.3379 0.6382 0.65566 0.0
C676 C 0.26974 0.69416 0.66204 0.0
H677 H 0.28878 0.82328 0.5168 0.0
H678 H 0.30727 0.77616 0.55975 0.0
H679 H 0.23485 0.72932 0.64055 0.0
H680 H 0.29818 0.59419 0.75817 0.0
H681 H 0.27933 0.64788 0.73664 0.0
H682 H 0.34695 0.70388 0.66155 0.0
C683 C 0.28643 0.78885 0.57232 0.0
C684 C 0.25932 0.72431 0.64597 0.0
C685 C 0.27563 0.81584 0.54737 0.0
C686 C 0.3096 0.6062 0.72959 0.0
C687 C 0.29863 0.63687 0.717 0.0
C688 C 0.32241 0.70916 0.65722 0.0
C689 C 0.26982 0.77753 0.61128 0.0
C690 C 0.2804 0.74703 0.63448 0.0
C691 C 0.3128 0.65331 0.6801 0.0
C692 C 0.30146 0.68603 0.66679 0.0
H693 H 0.21024 0.83412 0.61154 0.0
H694 H 0.22931 0.78666 0.65576 0.0
H695 H 0.32887 0.75639 0.63388 0.0
H696 H 0.36831 0.5967 0.64886 0.0
H697 H 0.34909 0.65006 0.62664 0.0
C698 C 0.98568 0.48062 0.95209 0.0
C699 C 0.97335 0.47989 0.90545 0.0
C700 C 1.01299 0.49529 0.96136 0.0
C701 C 0.08391 0.52144 0.90582 0.0
H702 H 0.08622 0.57543 0.01789 0.0
C703 C 0.18948 0.59427 0.95088 0.0
C704 C 0.19811 0.59591 -0.00049 0.0
C705 C 0.16193 0.5811 0.93745 0.0
C706 C 0.08619 0.56016 0.98674 0.0
H707 H 0.98138 0.49367 0.83154 0.0
H708 H 0.0287 0.51963 0.84804 0.0
H709 H 0.03893 0.55062 -0.00255 0.0
H710 H 0.18365 0.585 0.07198 0.0
H711 H 0.13648 0.56177 0.04869 0.0
H712 H 0.13126 0.53096 0.89498 0.0
C713 C 0.01702 0.50871 0.87745 0.0
C714 C 0.05902 0.54587 0.97514 0.0
C715 C 0.98959 0.49404 0.86814 0.0
C716 C 0.17822 0.58411 0.03419 0.0
C717 C 0.15077 0.571 0.0208 0.0
C718 C 0.1112 0.53573 0.91744 0.0
C719 C 0.02889 0.50978 0.9243 0.0
C720 C 0.0576 0.52601 0.93494 0.0
C721 C 0.14218 0.56927 0.97226 0.0
C722 C 0.11281 0.55505 0.95839 0.0
H723 H 0.97422 0.46999 0.9817 0.0
H724 H 0.02194 0.49493 -0.0024 0.0
H725 H 0.08365 0.50614 0.87472 0.0
H726 H 0.20414 0.60277 0.92297 0.0
H727 H 0.15598 0.58047 0.89974 0.0
C728 C 0.84563 0.55591 0.78681 0.0
C729 C 0.83123 0.53488 0.8173 0.0
C730 C 0.83727 0.58851 0.78831 0.0
C731 C 0.77667 0.64764 0.83364 0.0
H732 H 0.84406 0.70264 0.84693 0.0
C733 C 0.80098 0.76968 0.93681 0.0
C734 C 0.77384 0.78829 0.92669 0.0
C735 C 0.80829 0.7417 0.9116 0.0
C736 C 0.82493 0.68765 0.84311 0.0
H737 H 0.79568 0.53136 0.87127 0.0
H738 H 0.78122 0.58755 0.87379 0.0
H739 H 0.85479 0.64743 0.82412 0.0
H740 H 0.73375 0.7927 0.88038 0.0
H741 H 0.74655 0.74367 0.83611 0.0
H742 H 0.74696 0.68734 0.85507 0.0
C743 C 0.79886 0.57921 0.84861 0.0
C744 C 0.83107 0.65604 0.82948 0.0
C745 C 0.80737 0.54689 0.84744 0.0
C746 C 0.75483 0.77893 0.88911 0.0
C747 C 0.76207 0.7507 0.86398 0.0
C748 C 0.77053 0.67925 0.84717 0.0
C749 C 0.81408 0.6006 0.81985 0.0
C750 C 0.80711 0.63535 0.82606 0.0
C751 C 0.78861 0.73139 0.87558 0.0
C752 C 0.79467 0.69943 0.85355 0.0
H753 H 0.86417 0.54739 0.76332 0.0
H754 H 0.84932 0.60432 0.76543 0.0
H755 H 0.75759 0.63251 0.83066 0.0
H756 H 0.81623 0.77618 0.9654 0.0
H757 H 0.82871 0.72738 0.92203 0.0
C758 C 0.48749 0.54192 0.65607 0.0
C759 C 0.47183 0.51564 0.64082 0.0
C760 C 0.51618 0.54813 0.63693 0.0
C761 C 0.58333 0.51007 0.57134 0.0
H762 H 0.60418 0.59694 0.55371 0.0
C763 C 0.69756 0.54124 0.48019 0.0
C764 C 0.71195 0.56817 0.49586 0.0
C765 C 0.66824 0.5347 0.49692 0.0
C766 C 0.59909 0.57251 0.55913 0.0
H767 H 0.47415 0.47541 0.59278 0.0
H768 H 0.52442 0.48633 0.55893 0.0
H769 H 0.55348 0.58596 0.58319 0.0
H770 H 0.70676 0.60914 0.54231 0.0
H771 H 0.6564 0.59717 0.57309 0.0
H772 H 0.62906 0.49665 0.54754 0.0
C773 C 0.51448 0.50205 0.58617 0.0
C774 C 0.56981 0.56616 0.57614 0.0
C775 C 0.48548 0.49595 0.60515 0.0
C776 C 0.69649 0.58808 0.52959 0.0
C777 C 0.66729 0.58141 0.54671 0.0
C778 C 0.61272 0.51644 0.55456 0.0
C779 C 0.53028 0.52825 0.60186 0.0
C780 C 0.56143 0.53485 0.58256 0.0
C781 C 0.65256 0.5547 0.53042 0.0
C782 C 0.6211 0.54778 0.54821 0.0
H783 H 0.47779 0.55758 0.68362 0.0
H784 H 0.52766 0.56816 0.65077 0.0
H785 H 0.57808 0.48567 0.5766 0.0
H786 H 0.70906 0.52512 0.45495 0.0
H787 H 0.6577 0.51413 0.48302 0.0
C788 C 0.73903 0.26285 0.44604 0.0
C789 C 0.75959 0.24051 0.42363 0.0
C790 C 0.7322 0.2925 0.42546 0.0
C791 C 0.72289 0.34114 0.32261 0.0
H792 H 0.74868 0.40802 0.40557 0.0
C793 C 0.695 0.47849 0.29088 0.0
C794 C 0.68499 0.4945 0.33287 0.0
C795 C 0.7065 0.4466 0.29315 0.0
C796 C 0.74134 0.3897 0.38183 0.0
H797 H 0.78789 0.23152 0.36042 0.0
H798 H 0.7753 0.2838 0.32381 0.0
H799 H 0.76384 0.35309 0.42454 0.0
H800 H 0.67717 0.48875 0.40917 0.0
H801 H 0.69684 0.43432 0.41303 0.0
H802 H 0.69883 0.37799 0.28136 0.0
C803 C 0.7648 0.27799 0.35767 0.0
C804 C 0.7502 0.35827 0.39262 0.0
C805 C 0.77202 0.24817 0.37868 0.0
C806 C 0.6855 0.47764 0.37634 0.0
C807 C 0.69686 0.44624 0.37861 0.0
C808 C 0.71374 0.37285 0.31189 0.0
C809 C 0.74536 0.30061 0.38158 0.0
C810 C 0.74035 0.33363 0.36402 0.0
C811 C 0.70821 0.43042 0.33744 0.0
C812 C 0.72198 0.39739 0.34249 0.0
H813 H 0.72884 0.25791 0.48049 0.0
H814 H 0.71707 0.3095 0.44449 0.0
H815 H 0.71493 0.32246 0.30013 0.0
H816 H 0.69473 0.49078 0.25677 0.0
H817 H 0.71487 0.43495 0.2607 0.0
C818 C 0.0377 0.5325 0.10365 0.0
C819 C 0.05147 0.51243 0.13881 0.0
C820 C 1.00863 0.52661 0.08472 0.0
C821 C 0.95346 0.46232 0.07396 0.0
H822 H 0.89472 0.53171 0.04214 0.0
C823 C 0.82692 0.44081 0.02704 0.0
C824 C 0.81165 0.46021 0.99239 0.0
C825 C 0.85618 0.44747 0.04381 0.0
C826 C 0.91095 0.51198 0.05012 0.0
H827 H 0.04549 0.47025 0.18118 0.0
H828 H 0.99548 0.4601 0.14856 0.0
H829 H 0.94533 0.54283 0.07272 0.0
H830 H 0.81524 0.50233 0.94915 0.0
H831 H 0.86674 0.5131 0.97644 0.0
H832 H 0.91925 0.43147 0.05124 0.0
C833 C 1.00696 0.48019 0.13488 0.0
C834 C 0.94013 0.5184 0.06776 0.0
C835 C 0.03574 0.48616 0.15392 0.0
C836 C 0.82649 0.48651 0.9751 0.0
C837 C 0.85592 0.49299 0.99145 0.0
C838 C 0.92437 0.45592 0.05628 0.0
C839 C 0.99285 0.50028 0.09998 0.0
C840 C 0.96184 0.49366 0.08013 0.0
C841 C 0.87123 0.47361 0.02619 0.0
C842 C 0.90257 0.48062 0.04424 0.0
H843 H 0.04904 0.5531 0.09153 0.0
H844 H 0.9987 0.54255 0.0577 0.0
H845 H 0.96966 0.44252 0.08172 0.0
H846 H 0.81643 0.4202 0.04097 0.0
H847 H 0.86684 0.43219 0.07108 0.0
C848 C 0.79296 0.70828 0.58599 0.0
C849 C 0.7757 0.6958 0.54866 0.0
C850 C 0.78294 0.73694 0.60793 0.0
C851 C 0.71412 0.79317 0.62186 0.0
H852 H 0.77384 0.85673 0.63588 0.0
C853 C 0.67721 0.92557 0.63939 0.0
C854 C 0.69261 0.94333 0.67336 0.0
C855 C 0.68798 0.89463 0.62829 0.0
C856 C 0.75693 0.83914 0.63275 0.0
H857 H 0.73381 0.70278 0.50662 0.0
H858 H 0.71657 0.75222 0.54442 0.0
H859 H 0.79111 0.80292 0.61258 0.0
H860 H 0.73203 0.94275 0.72109 0.0
H861 H 0.75071 0.8887 0.70191 0.0
H862 H 0.67988 0.82946 0.64097 0.0
C863 C 0.73769 0.7401 0.55715 0.0
C864 C 0.76685 0.80825 0.61959 0.0
C865 C 0.74773 0.71177 0.53517 0.0
C866 C 0.71943 0.92961 0.69516 0.0
C867 C 0.73029 0.89872 0.68387 0.0
C868 C 0.70422 0.824 0.63485 0.0
C869 C 0.75535 0.75337 0.59325 0.0
C870 C 0.74547 0.78505 0.61307 0.0
C871 C 0.7145 0.88072 0.6507 0.0
C872 C 0.72542 0.84751 0.6396 0.0
H873 H 0.81465 0.69654 0.59705 0.0
H874 H 0.79694 0.74642 0.63595 0.0
H875 H 0.6971 0.77574 0.61805 0.0
H876 H 0.65638 0.93525 0.62222 0.0
H877 H 0.67551 0.88157 0.60204 0.0
C878 C 0.83843 0.94798 0.06491 0.0
C879 C 0.82915 0.92459 0.03303 0.0
C880 C 0.86515 0.96394 0.05616 0.0
C881 C 0.93916 0.95708 0.99127 0.0
H882 H 0.93571 0.04861 -0.00186 0.0
C883 C 0.03796 0.02693 0.91568 0.0
C884 C 0.04546 0.05506 0.93843 0.0
C885 C 1.0118 1.01149 0.92919 0.0
C886 C 0.93739 0.02304 -0.00329 0.0
H887 H 0.84129 0.89927 0.96755 0.0
H888 H 0.88791 0.92697 0.95237 0.0
H889 H 0.89058 0.02042 0.01998 0.0
H890 H 0.03056 0.08924 0.99282 0.0
H891 H 0.98516 0.0623 0.01658 0.0
H892 H 0.98602 0.95934 0.96931 0.0
C893 C 0.87442 0.93301 0.9841 0.0
C894 C 0.91137 1.00687 0.00916 0.0
C895 C 0.84752 0.91734 0.99253 0.0
C896 C 0.02573 0.06753 0.97468 0.0
C897 C 0.99943 0.05213 0.98805 0.0
C898 C 0.96528 0.97317 0.97949 0.0
C899 C 0.8835 0.95661 0.01566 0.0
C900 C 0.91177 0.97373 0.00574 0.0
C901 C 0.99225 0.02361 0.96597 0.0
C902 C 0.96468 1.00646 0.98108 0.0
H903 H 0.82478 0.95434 0.0963 0.0
H904 H 0.87161 0.98185 0.08133 0.0
H905 H 0.94043 0.9315 0.98921 0.0
H906 H 0.05264 0.01637 0.88796 0.0
H907 H 1.00685 0.99006 0.91033 0.0
C908 C 0.84713 0.10213 0.14388 0.0
C909 C 0.83853 0.08941 0.18812 0.0
C910 C 0.83391 0.13125 0.12807 0.0
C911 C 0.79249 0.20505 0.17125 0.0
H912 H 0.77547 0.21717 0.03571 0.0
C913 C 0.73376 0.32073 0.0864 0.0
C914 C 0.7478 0.33074 0.04401 0.0
C915 C 0.74327 0.29156 0.10746 0.0
C916 C 0.78023 0.21421 0.07367 0.0
H917 H 0.80858 0.09711 0.2498 0.0
H918 H 0.78542 0.14779 0.22209 0.0
H919 H 0.7943 0.16533 0.06475 0.0
H920 H 0.78384 0.31864 0.99202 0.0
H921 H 0.80015 0.26842 0.02845 0.0
H922 H 0.7783 0.25424 0.17977 0.0
C923 C 0.80282 0.13551 0.20001 0.0
C924 C 0.79113 0.1845 0.09031 0.0
C925 C 0.81609 0.1064 0.21587 0.0
C926 C 0.77219 0.31161 0.02431 0.0
C927 C 0.7815 0.28265 0.04504 0.0
C928 C 0.7814 0.23487 0.15453 0.0
C929 C 0.81164 0.14838 0.15597 0.0
C930 C 0.79798 0.17963 0.13915 0.0
C931 C 0.76678 0.27192 0.08621 0.0
C932 C 0.77577 0.23989 0.10538 0.0
H933 H 0.86467 0.09002 0.12195 0.0
H934 H 0.8417 0.14066 0.09436 0.0
H935 H 0.79771 0.20222 0.20907 0.0
H936 H 0.71492 0.33495 0.10246 0.0
H937 H 0.73157 0.2839 0.13932 0.0
C938 C 0.48298 1.00517 0.39267 0.0
C939 C 0.47789 0.97463 0.40975 0.0
C940 C 0.50959 0.02023 0.40532 0.0
C941 C 0.58868 1.00336 0.45664 0.0
H942 H 0.58722 0.09477 0.46545 0.0
C943 C 0.69207 0.06956 0.52785 0.0
C944 C 0.7008 0.09561 0.50071 0.0
C945 C 0.6646 0.05526 0.51807 0.0
C946 C 0.58804 0.06922 0.46278 0.0
H947 H 0.4973 0.93654 0.45484 0.0
H948 H 0.54243 0.96325 0.47873 0.0
H949 H 0.5398 0.06925 0.44787 0.0
H950 H 0.687 0.12723 0.44236 0.0
H951 H 0.6389 0.10223 0.42524 0.0
H952 H 0.63684 1.0035 0.47295 0.0
C953 C 0.52642 0.97523 0.454 0.0
C954 C 0.56083 0.05449 0.45239 0.0
C955 C 0.50003 0.95999 0.4408 0.0
C956 C 0.68118 0.10705 0.46361 0.0
C957 C 0.65347 0.09293 0.45414 0.0
C958 C 0.61575 0.01808 0.46769 0.0
C959 C 0.53186 1.00547 0.43605 0.0
C960 C 0.56073 0.0213 0.4487 0.0
C961 C 0.64492 0.06677 0.48114 0.0
C962 C 0.61584 0.0512 0.47047 0.0
H963 H 0.46648 0.01762 0.3693 0.0
H964 H 0.51286 0.04329 0.3901 0.0
H965 H 0.58996 0.97786 0.45333 0.0
H966 H 0.70664 0.0599 0.55645 0.0
H967 H 0.6586 0.03534 0.5398 0.0
C968 C 0.33548 0.0529 0.28164 0.0
C969 C 0.35194 0.0388 0.32036 0.0
C970 C 0.32624 0.08536 0.28268 0.0
C971 C 0.34526 0.16065 0.33722 0.0
H972 H 0.25809 0.18613 0.33424 0.0
C973 C 0.29728 0.27156 0.43433 0.0
C974 C 0.27144 0.28958 0.4168 0.0
C975 C 0.30791 0.2436 0.41172 0.0
C976 C 0.28257 0.17967 0.33411 0.0
H977 H 0.37268 0.04775 0.38937 0.0
H978 H 0.35755 0.104 0.39043 0.0
H979 H 0.27561 0.13182 0.31289 0.0
H980 H 0.23696 0.29255 0.36053 0.0
H981 H 0.25581 0.24344 0.32041 0.0
H982 H 0.35249 0.20796 0.35909 0.0
C983 C 0.35135 0.09016 0.35963 0.0
C984 C 0.29258 0.14851 0.32191 0.0
C985 C 0.35987 0.05786 0.35911 0.0
C986 C 0.25696 0.27926 0.37496 0.0
C987 C 0.26764 0.251 0.35219 0.0
C988 C 0.33536 0.19174 0.34883 0.0
C989 C 0.33414 0.10428 0.3218 0.0
C990 C 0.32393 0.13842 0.32507 0.0
C991 C 0.29316 0.23265 0.37061 0.0
C992 C 0.30379 0.20139 0.34939 0.0
H993 H 0.32891 0.03869 0.25146 0.0
H994 H 0.31297 0.09568 0.25305 0.0
H995 H 0.36961 0.15365 0.33935 0.0
H996 H 0.30908 0.27865 0.46643 0.0
H997 H 0.3272 0.22999 0.42769 0.0
C998 C 0.99119 0.04544 0.1232 0.0
C999 C 0.97795 0.01611 0.11961 0.0
C1000 C 0.02088 0.04937 0.10611 0.0
C1001 C 0.08296 0.01543 0.02669 0.0
H1002 H 0.13344 0.06641 0.10641 0.0
C1003 C 0.21109 0.03521 0.98064 0.0
C1004 C 0.22211 0.06477 0.99193 0.0
C1005 C 0.18188 0.02725 -0.00379 0.0
C1006 C 0.11962 0.05256 0.08312 0.0
H1007 H 0.98518 0.96821 0.0928 0.0
H1008 H 0.03724 0.97516 0.06229 0.0
H1009 H 0.0818 0.0561 0.13212 0.0
H1010 H 0.21088 0.10961 0.02667 0.0
H1011 H 0.15944 0.09667 0.05159 0.0
H1012 H 0.12063 1.01265 0.97702 0.0
C1013 C 0.02457 0.9951 0.07882 0.0
C1014 C 0.08987 0.04654 0.09803 0.0
C1015 C 0.99469 0.99112 0.0962 0.0
C1016 C 0.20314 0.08645 0.01824 0.0
C1017 C 0.17368 0.07888 0.03269 0.0
C1018 C 0.11271 0.02182 0.01137 0.0
C1019 C 0.03835 0.0241 0.08473 0.0
C1020 C 0.07085 0.0284 0.06967 0.0
C1021 C 0.16264 0.04904 0.02233 0.0
C1022 C 0.13135 0.04086 0.03912 0.0
H1023 H 0.9789 0.06538 0.14042 0.0
H1024 H 0.03019 0.07235 0.10985 0.0
H1025 H 0.06906 1.0013 0.00396 0.0
H1026 H 0.22534 0.01803 0.96052 0.0
H1027 H 0.17454 1.00391 0.98809 0.0
C1028 C 0.26659 0.75079 0.89572 0.0
C1029 C 0.25243 0.73972 0.93737 0.0
C1030 C 0.25585 0.77951 0.87427 0.0
C1031 C 0.18802 0.83854 0.87342 0.0
H1032 H 0.24715 0.89918 0.83765 0.0
C1033 C 0.1615 0.97213 0.88362 0.0
C1034 C 0.17014 0.99168 0.84584 0.0
C1035 C 0.17025 0.93989 0.88391 0.0
C1036 C 0.23034 0.88231 0.84663 0.0
H1037 H 0.21537 0.74996 0.98823 0.0
H1038 H 0.19708 0.79941 0.95163 0.0
H1039 H 0.26513 0.84484 0.85823 0.0
H1040 H 0.19467 0.99268 0.77833 0.0
H1041 H 0.21089 0.93573 0.77938 0.0
H1042 H 0.15344 0.87637 0.86437 0.0
C1043 C 0.21618 0.78601 0.93484 0.0
C1044 C 0.24062 0.85113 0.85841 0.0
C1045 C 0.2269 0.7576 0.95619 0.0
C1046 C 0.1875 0.97808 0.80771 0.0
C1047 C 0.19692 0.94564 0.80849 0.0
C1048 C 0.17784 0.86962 0.86212 0.0
C1049 C 0.23056 0.79761 0.8938 0.0
C1050 C 0.21964 0.82911 0.87355 0.0
C1051 C 0.18838 0.92625 0.84677 0.0
C1052 C 0.19892 0.89214 0.85 0.0
H1053 H 0.28636 0.73766 0.88035 0.0
H1054 H 0.26739 0.78759 0.84253 0.0
H1055 H 0.17107 0.8221 0.8836 0.0
H1056 H 0.14804 0.98187 0.9134 0.0
H1057 H 0.16354 0.92575 0.91412 0.0
C1058 C 0.32221 0.98216 0.461 0.0
C1059 C 0.30896 0.95569 0.4809 0.0
C1060 C 0.35191 0.98991 0.47446 0.0
C1061 C 0.42427 0.95354 0.52747 0.0
H1062 H 0.44567 0.04028 0.54394 0.0
C1063 C 0.53877 0.98186 0.61529 0.0
C1064 C 0.5531 1.00972 0.60373 0.0
C1065 C 0.50996 0.97591 0.59648 0.0
C1066 C 0.44038 0.0159 0.5386 0.0
H1067 H 0.31649 0.91673 0.53071 0.0
H1068 H 0.36811 0.93005 0.5541 0.0
H1069 H 0.39342 0.02927 0.52045 0.0
H1070 H 0.54855 0.05274 0.56155 0.0
H1071 H 0.49851 0.04181 0.52696 0.0
H1072 H 0.47106 0.93997 0.54435 0.0
C1073 C 0.35577 0.94482 0.52783 0.0
C1074 C 0.41023 1.00957 0.52528 0.0
C1075 C 0.32597 0.93733 0.51486 0.0
C1076 C 0.53818 0.03105 0.57128 0.0
C1077 C 0.50925 0.02492 0.55195 0.0
C1078 C 0.4544 0.95984 0.54008 0.0
C1079 C 0.36933 0.97105 0.50749 0.0
C1080 C 0.40164 0.97823 0.52016 0.0
C1081 C 0.49451 0.99737 0.56476 0.0
C1082 C 0.46289 0.99108 0.5468 0.0
H1083 H 0.30955 0.99692 0.43507 0.0
H1084 H 0.36148 1.01028 0.45809 0.0
H1085 H 0.41887 0.92913 0.52274 0.0
H1086 H 0.54935 0.96485 0.64028 0.0
H1087 H 0.49944 0.95478 0.60836 0.0
C1088 C 0.44136 0.17477 0.9387 0.0
C1089 C 0.41326 0.18807 0.92073 0.0
C1090 C 0.4677 0.19211 0.93905 0.0
C1091 C 0.49374 0.27474 0.92256 0.0
H1092 H 0.57333 0.22962 0.9054 0.0
C1093 C 0.60459 0.33617 0.87144 0.0
C1094 C 0.62908 0.33075 0.90385 0.0
C1095 C 0.57888 0.31795 0.87365 0.0
C1096 C 0.55124 0.24247 0.91038 0.0
H1097 H 0.39062 0.23039 0.8902 0.0
H1098 H 0.43614 0.26071 0.89079 0.0
H1099 H 0.52717 0.20016 0.91003 0.0
H1100 H 0.64659 0.30108 0.96231 0.0
H1101 H 0.60188 0.2686 0.96526 0.0
H1102 H 0.51826 0.31713 0.92082 0.0
C1103 C 0.43829 0.23677 0.90436 0.0
C1104 C 0.52465 0.22561 0.91367 0.0
C1105 C 0.41204 0.21925 0.90348 0.0
C1106 C 0.62792 0.30584 0.93709 0.0
C1107 C 0.60244 0.28725 0.9387 0.0
C1108 C 0.5203 0.29156 0.91837 0.0
C1109 C 0.46675 0.22335 0.92143 0.0
C1110 C 0.49536 0.24143 0.91968 0.0
C1111 C 0.57735 0.2936 0.9077 0.0
C1112 C 0.54926 0.27561 0.91198 0.0
H1113 H 0.44305 0.1508 0.95237 0.0
H1114 H 0.48868 0.18096 0.95383 0.0
H1115 H 0.47201 0.28802 0.92836 0.0
H1116 H 0.60473 0.35534 0.84575 0.0
H1117 H 0.5601 0.32308 0.84896 0.0
C1118 C 0.46499 0.8776 0.23585 0.0
C1119 C 0.43366 0.87356 0.22835 0.0
C1120 C 0.48706 0.85355 0.22354 0.0
C1121 C 0.49103 0.76623 0.20679 0.0
H1122 H 0.57797 0.77888 0.19337 0.0
C1123 C 0.58082 0.66071 0.22147 0.0
C1124 C 0.60499 0.66644 0.25302 0.0
C1125 C 0.56185 0.68612 0.20353 0.0
C1126 C 0.55375 0.77482 0.1968 0.0
H1127 H 0.40066 0.84278 0.19891 0.0
H1128 H 0.43921 0.80183 0.17351 0.0
H1129 H 0.54083 0.82373 0.18582 0.0
H1130 H 0.63014 0.7029 0.28703 0.0
H1131 H 0.59744 0.74666 0.25651 0.0
H1132 H 0.50408 0.71724 0.21749 0.0
C1133 C 0.44694 0.82276 0.19089 0.0
C1134 C 0.53236 0.80072 0.193 0.0
C1135 C 0.42483 0.84647 0.20446 0.0
C1136 C 0.61144 0.69781 0.26309 0.0
C1137 C 0.59275 0.723 0.24519 0.0
C1138 C 0.5124 0.74024 0.20961 0.0
C1139 C 0.47821 0.82513 0.2028 0.0
C1140 C 0.5007 0.79701 0.19931 0.0
C1141 C 0.56698 0.71752 0.21672 0.0
C1142 C 0.54412 0.74427 0.20579 0.0
H1143 H 0.47218 0.898 0.25537 0.0
H1144 H 0.51069 0.85642 0.23392 0.0
H1145 H 0.46703 0.76216 0.21285 0.0
H1146 H 0.57537 0.63671 0.21324 0.0
H1147 H 0.5425 0.68113 0.18091 0.0
C1148 C 0.0887 0.84547 0.44107 0.0
C1149 C 0.11642 0.83147 0.42281 0.0
C1150 C 0.06201 0.82872 0.44246 0.0
C1151 C 0.0336 0.74688 0.42597 0.0
H1152 H 0.95518 0.79449 0.40994 0.0
C1153 C 0.92078 0.68943 0.3734 0.0
C1154 C 0.89602 0.69593 0.40495 0.0
C1155 C 0.94724 0.70654 0.37637 0.0
C1156 C 0.97693 0.78093 0.41461 0.0
H1157 H 0.13797 0.78842 0.39302 0.0
H1158 H 0.09177 0.75919 0.39503 0.0
H1159 H 1.00217 0.82241 0.41517 0.0
H1160 H 0.8789 0.72631 0.46271 0.0
H1161 H 0.92489 0.75683 0.46701 0.0
H1162 H 1.00783 0.70535 0.42325 0.0
C1163 C 0.09025 0.7832 0.40832 0.0
C1164 C 1.00403 0.79691 0.41827 0.0
C1165 C 0.11688 0.80011 0.40652 0.0
C1166 C 0.89773 0.72076 0.43811 0.0
C1167 C 0.92397 0.73822 0.44051 0.0
C1168 C 1.00651 0.73094 0.42141 0.0
C1169 C 0.06212 0.7974 0.42543 0.0
C1170 C 0.03294 0.78019 0.42378 0.0
C1171 C 0.94926 0.73081 0.41037 0.0
C1172 C 0.97795 0.74779 0.41533 0.0
H1173 H 0.08752 0.8696 0.45402 0.0
H1174 H 0.04138 0.84047 0.45738 0.0
H1175 H 0.05498 0.73289 0.43144 0.0
H1176 H 0.92022 0.67027 0.34781 0.0
H1177 H 0.96619 0.70062 0.35229 0.0
C1178 C 0.09866 0.19477 0.76936 0.0
C1179 C 0.09227 0.16287 0.76456 0.0
C1180 C 0.07932 0.21857 0.74904 0.0
C1181 C 0.99826 0.23433 0.71891 0.0
H1182 H 0.02717 0.31534 0.68107 0.0
C1183 C 0.91499 0.34477 0.72215 0.0
C1184 C 0.92721 0.37183 0.74149 0.0
C1185 C 0.93453 0.31937 0.70648 0.0
C1186 C 0.0186 0.29302 0.69197 0.0
H1187 H 0.0617 0.13058 0.73218 0.0
H1188 H 0.02739 0.17262 0.69614 0.0
H1189 H 0.06345 0.26947 0.68695 0.0
H1190 H 0.969 0.3943 0.75871 0.0
H1191 H 1.00324 0.3501 0.73293 0.0
H1192 H 0.95384 0.25798 0.72711 0.0
C1193 C 0.04742 0.17908 0.71608 0.0
C1194 C 0.03943 0.26661 0.69495 0.0
C1195 C 0.06714 0.15503 0.73624 0.0
C1196 C 0.95915 0.37396 0.74259 0.0
C1197 C 0.97875 0.3484 0.72773 0.0
C1198 C 0.97742 0.26086 0.71649 0.0
C1199 C 0.05286 0.21119 0.7235 0.0
C1200 C 0.02976 0.23718 0.71008 0.0
C1201 C 0.96675 0.32018 0.71113 0.0
C1202 C 0.9875 0.29091 0.70466 0.0
H1203 H 0.11801 0.20147 0.79077 0.0
H1204 H 0.08417 0.2429 0.75611 0.0
H1205 H 0.98998 0.21212 0.73115 0.0
H1206 H 0.89031 0.3425 0.72187 0.0
H1207 H 0.92421 0.29852 0.69318 0.0
C1208 C 0.39669 0.74222 0.04763 0.0
C1209 C 0.38708 0.7206 0.08188 0.0
C1210 C 0.42623 0.75329 0.04971 0.0
C1211 C 0.5041 0.72972 0.08672 0.0
H1212 H 0.51852 0.81873 0.07542 0.0
C1213 C 0.62725 0.77487 0.09585 0.0
C1214 C 0.63335 0.80236 0.07012 0.0
C1215 C 0.59735 0.76441 0.09791 0.0
C1216 C 0.51512 0.79367 0.07733 0.0
H1217 H 0.4005 0.69395 0.14562 0.0
H1218 H 0.45275 0.71293 0.14884 0.0
H1219 H 0.46606 0.80234 0.07932 0.0
H1220 H 0.61224 0.84044 0.02667 0.0
H1221 H 0.56103 0.82182 0.02873 0.0
H1222 H 0.55293 0.7207 0.08314 0.0
C1223 C 0.4372 0.72143 0.12063 0.0
C1224 C 0.48493 0.78438 0.08018 0.0
C1225 C 0.40733 0.71082 0.11907 0.0
C1226 C 0.60875 0.819 0.04647 0.0
C1227 C 0.579 0.8085 0.04834 0.0
C1228 C 0.53436 0.73893 0.08295 0.0
C1229 C 0.447 0.74249 0.08559 0.0
C1230 C 0.47911 0.75235 0.08491 0.0
C1231 C 0.57266 0.78128 0.07458 0.0
C1232 C 0.54037 0.7711 0.07815 0.0
H1233 H 0.38142 0.75013 0.01873 0.0
H1234 H 0.43322 0.76943 0.02217 0.0
H1235 H 0.5002 0.7048 0.08987 0.0
H1236 H 0.64557 0.76123 0.11414 0.0
H1237 H 0.59363 0.74345 0.11882 0.0
C1238 C 0.5268 0.13403 0.77336 0.0
C1239 C 0.55797 0.12859 0.78515 0.0
C1240 C 0.5125 0.16435 0.77722 0.0
C1241 C 0.53241 0.24884 0.78763 0.0
H1242 H 0.44433 0.26236 0.80603 0.0
C1243 C 0.47478 0.37356 0.81623 0.0
C1244 C 0.44741 0.38062 0.79074 0.0
C1245 C 0.48734 0.34241 0.81877 0.0
C1246 C 0.46899 0.25899 0.80099 0.0
H1247 H 0.59844 0.14951 0.81235 0.0
H1248 H 0.57318 0.20207 0.82283 0.0
H1249 H 0.46782 0.20898 0.80753 0.0
H1250 H 0.41064 0.36037 0.75075 0.0
H1251 H 0.43273 0.3064 0.75444 0.0
H1252 H 0.53334 0.29913 0.78241 0.0
C1253 C 0.55983 0.18357 0.80844 0.0
C1254 C 0.48252 0.22824 0.80119 0.0
C1255 C 0.57428 0.1534 0.80329 0.0
C1256 C 0.43208 0.35577 0.76995 0.0
C1257 C 0.4446 0.32473 0.77247 0.0
C1258 C 0.51891 0.27961 0.78852 0.0
C1259 C 0.52896 0.18976 0.79402 0.0
C1260 C 0.51448 0.22265 0.7946 0.0
C1261 C 0.47272 0.31775 0.79607 0.0
C1262 C 0.48709 0.28505 0.79563 0.0
H1263 H 0.51408 0.11521 0.75833 0.0
H1264 H 0.48896 0.16795 0.76485 0.0
H1265 H 0.55688 0.24577 0.7807 0.0
H1266 H 0.48711 0.39221 0.83254 0.0
H1267 H 0.50869 0.33774 0.83797 0.0
C1268 C 0.11744 0.31524 0.60027 0.0
C1269 C 0.13887 0.30259 0.56677 0.0
C1270 C 0.0881 0.30363 0.60328 0.0
C1271 C 0.04497 0.23385 0.58098 0.0
H1272 H 0.97324 0.29279 0.57255 0.0
C1273 C 0.92271 0.19275 0.54847 0.0
C1274 C 0.89732 0.20974 0.56944 0.0
C1275 C 0.9524 0.20329 0.5527 0.0
C1276 C 0.99296 0.276 0.57569 0.0
H1277 H 0.14708 0.2677 0.51096 0.0
H1278 H 0.09617 0.24605 0.51795 0.0
H1279 H 0.02474 0.31258 0.57055 0.0
H1280 H 0.88365 0.25078 0.61266 0.0
H1281 H 0.9356 0.26891 0.62061 0.0
H1282 H 0.01341 0.19728 0.58695 0.0
C1283 C 0.10186 0.26526 0.5413 0.0
C1284 C 0.02246 0.28738 0.57422 0.0
C1285 C 0.13086 0.27757 0.53725 0.0
C1286 C 0.90261 0.23704 0.59615 0.0
C1287 C 0.93238 0.24761 0.60034 0.0
C1288 C 0.01548 0.22248 0.58287 0.0
C1289 C 0.08003 0.27845 0.57393 0.0
C1290 C 0.04875 0.2664 0.57649 0.0
C1291 C 0.95763 0.23109 0.57816 0.0
C1292 C 0.98905 0.24336 0.57966 0.0
H1293 H 0.12307 0.33487 0.62281 0.0
H1294 H 0.07173 0.31439 0.62851 0.0
H1295 H 0.06486 0.21722 0.58356 0.0
H1296 H 0.91967 0.17134 0.52836 0.0
H1297 H 0.97112 0.19005 0.5347 0.0
C1298 C 1.00351 0.89369 0.2846 0.0
C1299 C 0.97262 0.89929 0.29799 0.0
C1300 C 0.01739 0.86307 0.28602 0.0
C1301 C 0.99643 0.77868 0.29295 0.0
H1302 H 0.08457 0.76359 0.30876 0.0
C1303 C 0.05203 0.65269 0.31648 0.0
C1304 C 0.07962 0.64557 0.29165 0.0
C1305 C 0.03994 0.68397 0.31974 0.0
C1306 C 0.0599 0.76736 0.30429 0.0
H1307 H 0.93228 0.87825 0.32545 0.0
H1308 H 0.95683 0.82509 0.3315 0.0
H1309 H 0.0619 0.81716 0.31249 0.0
H1310 H 0.11734 0.66575 0.25383 0.0
H1311 H 0.09597 0.71995 0.25844 0.0
H1312 H 0.9946 0.72857 0.28654 0.0
C1313 C 0.97025 0.84375 0.31779 0.0
C1314 C 0.04682 0.79827 0.30582 0.0
C1315 C 0.95622 0.87424 0.31516 0.0
C1316 C 0.09567 0.67045 0.27238 0.0
C1317 C 0.08356 0.70161 0.2755 0.0
C1318 C 1.00947 0.74772 0.29261 0.0
C1319 C 1.00079 0.8375 0.30189 0.0
C1320 C 0.01485 0.80445 0.30035 0.0
C1321 C 0.05521 0.70872 0.29838 0.0
C1322 C 0.04134 0.74167 0.29875 0.0
H1323 H 0.0163 0.91269 0.27026 0.0
H1324 H 0.04067 0.85946 0.27258 0.0
H1325 H 0.9719 0.78224 0.28685 0.0
H1326 H 0.03917 0.63402 0.33162 0.0
H1327 H 0.0184 0.68865 0.3384 0.0
loop_
_geom_bond_atom_site_label_1
_geom_bond_atom_site_label_2
_geom_bond_distance
_geom_bond_site_symmetry_2
_ccdc_geom_bond_type
Cu0 N1 1.999 . S
Cu0 O6 1.974 . S
Cu0 N11 1.985 . S
Cu0 O20 1.959 . S
N1 Cu0 1.999 . S
N1 C3 1.263 1_554 S
N1 C5 1.389 . S
N2 C3 1.358 . S
N2 C4 1.400 1_556 S
C3 N1 1.263 1_556 S
C3 N2 1.358 . S
C3 H9 0.930 . S
C4 N2 1.400 1_554 S
C4 C5 1.351 . S
C4 H21 0.930 . S
C5 N1 1.389 . S
C5 C4 1.351 . S
C5 H10 0.930 . S
O6 Cu0 1.974 . S
O6 C16 1.282 1_554 S
C7 O8 1.261 1_554 S
C7 O20 1.251 . S
O8 C7 1.261 1_556 S
H9 C3 0.930 . S
H10 C5 0.930 . S
N11 Cu0 1.985 . S
N11 C13 1.335 . S
N11 C14 1.390 . S
N12 C13 1.345 . S
N12 C15 1.336 . S
C13 N11 1.335 . S
C13 N12 1.345 . S
C13 H18 0.930 . S
C14 N11 1.390 . S
C14 C15 1.346 . S
C14 H19 0.930 1_554 S
C15 N12 1.336 . S
C15 C14 1.346 . S
C15 H22 0.927 1_554 S
C16 O6 1.282 1_556 S
C16 O17 1.216 . S
O17 C16 1.216 . S
H18 C13 0.930 . S
H19 C14 0.930 1_556 S
O20 Cu0 1.959 . S
O20 C7 1.251 . S
H21 C4 0.930 . S
H22 C15 0.927 1_556 S
Cu23 N24 1.999 . S
Cu23 O29 1.974 . S
Cu23 N34 1.985 . S
Cu23 O43 1.959 . S
N24 Cu23 1.999 . S
N24 C26 1.263 . S
N24 C28 1.389 . S
N25 C26 1.358 . S
N25 C27 1.400 . S
C26 N24 1.263 . S
C26 N25 1.358 . S
C26 H32 0.930 . S
C27 N25 1.400 . S
C27 C28 1.351 . S
C27 H44 0.930 . S
C28 N24 1.389 . S
C28 C27 1.351 . S
C28 H33 0.930 . S
O29 Cu23 1.974 . S
O29 C39 1.282 . S
C30 O31 1.261 . S
C30 O43 1.251 . S
O31 C30 1.261 . S
H32 C26 0.930 . S
H33 C28 0.930 . S
N34 Cu23 1.985 . S
N34 C36 1.335 . S
N34 C37 1.390 . S
N35 C36 1.345 . S
N35 C38 1.336 . S
C36 N34 1.335 . S
C36 N35 1.345 . S
C36 H41 0.930 . S
C37 N34 1.390 . S
C37 C38 1.346 . S
C37 H42 0.930 . S
C38 N35 1.336 . S
C38 C37 1.346 . S
C38 H45 0.929 . S
C39 O29 1.282 . S
C39 O40 1.216 . S
O40 C39 1.216 . S
H41 C36 0.930 . S
H42 C37 0.930 . S
O43 Cu23 1.959 . S
O43 C30 1.251 . S
H44 C27 0.930 . S
H45 C38 0.929 . S
Cu46 N47 1.999 . S
Cu46 O52 1.974 . S
Cu46 N57 1.985 . S
Cu46 O66 1.959 . S
N47 Cu46 1.999 . S
N47 C49 1.263 . S
N47 C51 1.389 . S
N48 C49 1.358 . S
N48 C50 1.400 . S
C49 N47 1.263 . S
C49 N48 1.358 . S
C49 H55 0.930 . S
C50 N48 1.400 . S
C50 C51 1.351 . S
C50 H67 0.930 . S
C51 N47 1.389 . S
C51 C50 1.351 . S
C51 H56 0.930 . S
O52 Cu46 1.974 . S
O52 C62 1.282 . S
C53 O54 1.261 . S
C53 O66 1.251 . S
O54 C53 1.261 . S
H55 C49 0.930 . S
H56 C51 0.930 . S
N57 Cu46 1.985 . S
N57 C59 1.335 . S
N57 C60 1.390 . S
N58 C59 1.345 . S
N58 C61 1.336 . S
C59 N57 1.335 . S
C59 N58 1.345 . S
C59 H64 0.930 . S
C60 N57 1.390 . S
C60 C61 1.346 . S
C60 H65 0.930 . S
C61 N58 1.336 . S
C61 C60 1.346 . S
C61 H68 0.929 . S
C62 O52 1.282 . S
C62 O63 1.216 . S
O63 C62 1.216 . S
H64 C59 0.930 . S
H65 C60 0.930 . S
O66 Cu46 1.959 . S
O66 C53 1.251 . S
H67 C50 0.930 . S
H68 C61 0.929 . S
Cu69 N70 1.999 . S
Cu69 O75 1.974 . S
Cu69 N80 1.985 . S
Cu69 O89 1.959 . S
N70 Cu69 1.999 . S
N70 C72 1.263 . S
N70 C74 1.389 . S
N71 C72 1.358 . S
N71 C73 1.400 . S
C72 N70 1.263 . S
C72 N71 1.358 . S
C72 H78 0.930 . S
C73 N71 1.400 . S
C73 C74 1.351 . S
C73 H90 0.930 1_655 S
C74 N70 1.389 . S
C74 C73 1.351 . S
C74 H79 0.930 . S
O75 Cu69 1.974 . S
O75 C85 1.282 . S
C76 O77 1.261 . S
C76 O89 1.251 . S
O77 C76 1.261 . S
H78 C72 0.930 . S
H79 C74 0.930 . S
N80 Cu69 1.985 . S
N80 C82 1.335 . S
N80 C83 1.390 . S
N81 C82 1.345 . S
N81 C84 1.336 . S
C82 N80 1.335 . S
C82 N81 1.345 . S
C82 H87 0.930 . S
C83 N80 1.390 . S
C83 C84 1.346 . S
C83 H88 0.930 . S
C84 N81 1.336 . S
C84 C83 1.346 . S
C84 H91 0.929 . S
C85 O75 1.282 . S
C85 O86 1.216 . S
O86 C85 1.216 . S
H87 C82 0.930 . S
H88 C83 0.930 . S
O89 Cu69 1.959 . S
O89 C76 1.251 . S
H90 C73 0.930 1_455 S
H91 C84 0.929 . S
Cu92 N93 1.999 . S
Cu92 O98 1.974 . S
Cu92 N103 1.985 . S
Cu92 O112 1.959 . S
N93 Cu92 1.999 . S
N93 C95 1.263 1_556 S
N93 C97 1.389 . S
N94 C95 1.358 . S
N94 C96 1.400 1_554 S
C95 N93 1.263 1_554 S
C95 N94 1.358 . S
C95 H101 0.930 . S
C96 N94 1.400 1_556 S
C96 C97 1.351 . S
C96 H113 0.930 . S
C97 N93 1.389 . S
C97 C96 1.351 . S
C97 H102 0.930 . S
O98 Cu92 1.974 . S
O98 C108 1.282 1_556 S
C99 O100 1.261 1_556 S
C99 O112 1.251 . S
O100 C99 1.261 1_554 S
H101 C95 0.930 . S
H102 C97 0.930 . S
N103 Cu92 1.985 . S
N103 C105 1.335 . S
N103 C106 1.383 1_556 S
N104 C105 1.345 . S
N104 C107 1.336 . S
C105 N103 1.335 . S
C105 N104 1.345 . S
C105 H110 0.930 . S
C106 N103 1.383 1_554 S
C106 C107 1.344 1_554 S
C106 H111 0.939 . S
C107 N104 1.336 . S
C107 C106 1.344 1_556 S
C107 H114 0.929 1_556 S
C108 O98 1.282 1_554 S
C108 O109 1.216 . S
O109 C108 1.216 . S
H110 C105 0.930 . S
H111 C106 0.939 . S
O112 Cu92 1.959 . S
O112 C99 1.251 . S
H113 C96 0.930 . S
H114 C107 0.929 1_554 S
Cu115 N116 1.999 . S
Cu115 O121 1.974 . S
Cu115 N126 1.985 . S
Cu115 O135 1.959 . S
N116 Cu115 1.999 . S
N116 C118 1.263 . S
N116 C120 1.389 . S
N117 C118 1.358 . S
N117 C119 1.400 . S
C118 N116 1.263 . S
C118 N117 1.358 . S
C118 H124 0.930 . S
C119 N117 1.400 . S
C119 C120 1.351 . S
C119 H136 0.930 . S
C120 N116 1.389 . S
C120 C119 1.351 . S
C120 H125 0.930 . S
O121 Cu115 1.974 . S
O121 C131 1.282 . S
C122 O123 1.261 . S
C122 O135 1.251 . S
O123 C122 1.261 . S
H124 C118 0.930 . S
H125 C120 0.930 . S
N126 Cu115 1.985 . S
N126 C128 1.335 . S
N126 C129 1.390 . S
N127 C128 1.345 . S
N127 C130 1.336 . S
C128 N126 1.335 . S
C128 N127 1.345 . S
C128 H133 0.930 . S
C129 N126 1.390 . S
C129 C130 1.346 . S
C129 H134 0.930 . S
C130 N127 1.336 . S
C130 C129 1.346 . S
C130 H137 0.929 . S
C131 O121 1.282 . S
C131 O132 1.216 . S
O132 C131 1.216 . S
H133 C128 0.930 . S
H134 C129 0.930 . S
O135 Cu115 1.959 . S
O135 C122 1.251 . S
H136 C119 0.930 . S
H137 C130 0.929 . S
Cu138 N139 1.999 . S
Cu138 O144 1.974 . S
Cu138 N149 1.985 . S
Cu138 O158 1.959 . S
N139 Cu138 1.999 . S
N139 C141 1.263 . S
N139 C143 1.389 . S
N140 C141 1.358 . S
N140 C142 1.400 . S
C141 N139 1.263 . S
C141 N140 1.358 . S
C141 H147 0.930 . S
C142 N140 1.400 . S
C142 C143 1.351 . S
C142 H159 0.930 . S
C143 N139 1.389 . S
C143 C142 1.351 . S
C143 H148 0.930 . S
O144 Cu138 1.974 . S
O144 C154 1.282 . S
C145 O146 1.261 . S
C145 O158 1.251 . S
O146 C145 1.261 . S
H147 C141 0.930 . S
H148 C143 0.930 . S
N149 Cu138 1.985 . S
N149 C151 1.335 . S
N149 C152 1.390 . S
N150 C151 1.345 . S
N150 C153 1.336 . S
C151 N149 1.335 . S
C151 N150 1.345 . S
C151 H156 0.930 . S
C152 N149 1.390 . S
C152 C153 1.346 . S
C152 H157 0.930 . S
C153 N150 1.336 . S
C153 C152 1.346 . S
C153 H160 0.929 . S
C154 O144 1.282 . S
C154 O155 1.216 . S
O155 C154 1.216 . S
H156 C151 0.930 . S
H157 C152 0.930 . S
O158 Cu138 1.959 . S
O158 C145 1.251 . S
H159 C142 0.930 . S
H160 C153 0.929 . S
Cu161 N162 1.999 . S
Cu161 O167 1.974 . S
Cu161 N172 1.985 . S
Cu161 O181 1.959 . S
N162 Cu161 1.999 . S
N162 C164 1.263 . S
N162 C166 1.389 . S
N163 C164 1.358 . S
N163 C165 1.400 . S
C164 N162 1.263 . S
C164 N163 1.358 . S
C164 H170 0.930 . S
C165 N163 1.400 . S
C165 C166 1.351 . S
C165 H182 0.930 . S
C166 N162 1.389 . S
C166 C165 1.351 . S
C166 H171 0.930 . S
O167 Cu161 1.974 . S
O167 C177 1.282 . S
C168 O169 1.261 . S
C168 O181 1.251 . S
O169 C168 1.261 . S
H170 C164 0.930 . S
H171 C166 0.930 . S
N172 Cu161 1.985 . S
N172 C174 1.335 . S
N172 C175 1.390 . S
N173 C174 1.345 . S
N173 C176 1.336 . S
C174 N172 1.335 . S
C174 N173 1.345 . S
C174 H179 0.930 . S
C175 N172 1.390 . S
C175 C176 1.346 . S
C175 H180 0.930 . S
C176 N173 1.336 . S
C176 C175 1.346 . S
C176 H183 0.929 . S
C177 O167 1.282 . S
C177 O178 1.216 . S
O178 C177 1.216 . S
H179 C174 0.930 . S
H180 C175 0.930 . S
O181 Cu161 1.959 . S
O181 C168 1.251 . S
H182 C165 0.930 . S
H183 C176 0.929 . S
Cu184 N185 1.999 . S
Cu184 O190 1.974 . S
Cu184 N195 1.985 . S
Cu184 O204 1.959 . S
N185 Cu184 1.999 . S
N185 C187 1.263 . S
N185 C189 1.389 . S
N186 C187 1.358 . S
N186 C188 1.400 . S
C187 N185 1.263 . S
C187 N186 1.358 . S
C187 H193 0.930 . S
C188 N186 1.400 . S
C188 C189 1.351 . S
C188 H205 0.930 . S
C189 N185 1.389 . S
C189 C188 1.351 . S
C189 H194 0.930 . S
O190 Cu184 1.974 . S
O190 C200 1.282 . S
C191 O192 1.261 . S
C191 O204 1.251 . S
O192 C191 1.261 . S
H193 C187 0.930 . S
H194 C189 0.930 . S
N195 Cu184 1.985 . S
N195 C197 1.335 . S
N195 C198 1.390 . S
N196 C197 1.345 . S
N196 C199 1.336 . S
C197 N195 1.335 . S
C197 N196 1.345 . S
C197 H202 0.930 . S
C198 N195 1.390 . S
C198 C199 1.346 . S
C198 H203 0.930 . S
C199 N196 1.336 . S
C199 C198 1.346 . S
C199 H206 0.929 . S
C200 O190 1.282 . S
C200 O201 1.216 . S
O201 C200 1.216 . S
H202 C197 0.930 . S
H203 C198 0.930 . S
O204 Cu184 1.959 . S
O204 C191 1.251 . S
H205 C188 0.930 . S
H206 C199 0.929 . S
Cu207 N208 1.999 . S
Cu207 O213 1.974 . S
Cu207 N218 1.985 . S
Cu207 O227 1.959 . S
N208 Cu207 1.999 . S
N208 C210 1.263 . S
N208 C212 1.389 . S
N209 C210 1.358 . S
N209 C211 1.400 . S
C210 N208 1.263 . S
C210 N209 1.358 . S
C210 H216 0.930 . S
C211 N209 1.400 . S
C211 C212 1.351 . S
C211 H228 0.930 1_455 S
C212 N208 1.389 . S
C212 C211 1.351 . S
C212 H217 0.930 . S
O213 Cu207 1.974 . S
O213 C223 1.282 . S
C214 O215 1.261 . S
C214 O227 1.251 . S
O215 C214 1.261 . S
H216 C210 0.930 . S
H217 C212 0.930 . S
N218 Cu207 1.985 . S
N218 C220 1.335 . S
N218 C221 1.390 . S
N219 C220 1.345 . S
N219 C222 1.336 . S
C220 N218 1.335 . S
C220 N219 1.345 . S
C220 H225 0.930 . S
C221 N218 1.390 . S
C221 C222 1.346 . S
C221 H226 0.930 . S
C222 N219 1.336 . S
C222 C221 1.346 . S
C222 H229 0.929 . S
C223 O213 1.282 . S
C223 O224 1.216 . S
O224 C223 1.216 . S
H225 C220 0.930 . S
H226 C221 0.930 . S
O227 Cu207 1.959 . S
O227 C214 1.251 . S
H228 C211 0.930 1_655 S
H229 C222 0.929 . S
Cu230 N231 1.999 . S
Cu230 O236 1.974 . S
Cu230 N241 1.985 . S
Cu230 O250 1.959 . S
N231 Cu230 1.999 . S
N231 C233 1.263 1_554 S
N231 C235 1.389 . S
N232 C233 1.358 . S
N232 C234 1.400 1_556 S
C233 N231 1.263 1_556 S
C233 N232 1.358 . S
C233 H239 0.930 . S
C234 N232 1.400 1_554 S
C234 C235 1.351 . S
C234 H251 0.930 . S
C235 N231 1.389 . S
C235 C234 1.351 . S
C235 H240 0.930 . S
O236 Cu230 1.974 . S
O236 C246 1.282 1_554 S
C237 O238 1.261 1_554 S
C237 O250 1.251 . S
O238 C237 1.261 1_556 S
H239 C233 0.930 . S
H240 C235 0.930 . S
N241 Cu230 1.985 . S
N241 C243 1.335 . S
N241 C244 1.390 . S
N242 C243 1.345 . S
N242 C245 1.336 . S
C243 N241 1.335 . S
C243 N242 1.345 . S
C243 H248 0.930 . S
C244 N241 1.390 . S
C244 C245 1.346 . S
C244 H249 0.930 1_554 S
C245 N242 1.336 . S
C245 C244 1.346 . S
C245 H252 0.927 1_554 S
C246 O236 1.282 1_556 S
C246 O247 1.216 . S
O247 C246 1.216 . S
H248 C243 0.930 . S
H249 C244 0.930 1_556 S
O250 Cu230 1.959 . S
O250 C237 1.251 . S
H251 C234 0.930 . S
H252 C245 0.927 1_556 S
Cu253 N254 1.999 . S
Cu253 O259 1.974 . S
Cu253 N264 1.985 . S
Cu253 O273 1.959 . S
N254 Cu253 1.999 . S
N254 C256 1.263 . S
N254 C258 1.389 . S
N255 C256 1.358 . S
N255 C257 1.400 . S
C256 N254 1.263 . S
C256 N255 1.358 . S
C256 H262 0.930 . S
C257 N255 1.400 . S
C257 C258 1.351 . S
C257 H274 0.930 . S
C258 N254 1.389 . S
C258 C257 1.351 . S
C258 H263 0.930 . S
O259 Cu253 1.974 . S
O259 C269 1.282 . S
C260 O261 1.261 . S
C260 O273 1.251 . S
O261 C260 1.261 . S
H262 C256 0.930 . S
H263 C258 0.930 . S
N264 Cu253 1.985 . S
N264 C266 1.335 . S
N264 C267 1.390 . S
N265 C266 1.345 . S
N265 C268 1.336 . S
C266 N264 1.335 . S
C266 N265 1.345 . S
C266 H271 0.930 . S
C267 N264 1.390 . S
C267 C268 1.346 . S
C267 H272 0.930 . S
C268 N265 1.336 . S
C268 C267 1.346 . S
C268 H275 0.929 . S
C269 O259 1.282 . S
C269 O270 1.216 . S
O270 C269 1.216 . S
H271 C266 0.930 . S
H272 C267 0.930 . S
O273 Cu253 1.959 . S
O273 C260 1.251 . S
H274 C257 0.930 . S
H275 C268 0.929 . S
Cu276 N277 1.999 . S
Cu276 O282 1.974 . S
Cu276 N287 1.985 . S
Cu276 O296 1.959 . S
N277 Cu276 1.999 . S
N277 C279 1.263 . S
N277 C281 1.389 . S
N278 C279 1.358 . S
N278 C280 1.400 . S
C279 N277 1.263 . S
C279 N278 1.358 . S
C279 H285 0.930 . S
C280 N278 1.400 . S
C280 C281 1.351 . S
C280 H297 0.930 . S
C281 N277 1.389 . S
C281 C280 1.351 . S
C281 H286 0.930 . S
O282 Cu276 1.974 . S
O282 C292 1.282 . S
C283 O284 1.261 . S
C283 O296 1.251 . S
O284 C283 1.261 . S
H285 C279 0.930 . S
H286 C281 0.930 . S
N287 Cu276 1.985 . S
N287 C289 1.335 . S
N287 C290 1.390 . S
N288 C289 1.345 . S
N288 C291 1.336 . S
C289 N287 1.335 . S
C289 N288 1.345 . S
C289 H294 0.930 . S
C290 N287 1.390 . S
C290 C291 1.346 . S
C290 H295 0.930 . S
C291 N288 1.336 . S
C291 C290 1.346 . S
C291 H298 0.929 . S
C292 O282 1.282 . S
C292 O293 1.216 . S
O293 C292 1.216 . S
H294 C289 0.930 . S
H295 C290 0.930 . S
O296 Cu276 1.959 . S
O296 C283 1.251 . S
H297 C280 0.930 . S
H298 C291 0.929 . S
Cu299 N300 1.999 . S
Cu299 O305 1.974 . S
Cu299 N310 1.985 . S
Cu299 O319 1.959 . S
N300 Cu299 1.999 . S
N300 C302 1.263 . S
N300 C304 1.389 . S
N301 C302 1.358 . S
N301 C303 1.400 . S
C302 N300 1.263 . S
C302 N301 1.358 . S
C302 H308 0.930 . S
C303 N301 1.400 . S
C303 C304 1.351 . S
C303 H320 0.930 . S
C304 N300 1.389 . S
C304 C303 1.351 . S
C304 H309 0.930 . S
O305 Cu299 1.974 . S
O305 C315 1.282 . S
C306 O307 1.261 . S
C306 O319 1.251 . S
O307 C306 1.261 . S
H308 C302 0.930 . S
H309 C304 0.930 . S
N310 Cu299 1.985 . S
N310 C312 1.335 1_565 S
N310 C313 1.390 . S
N311 C312 1.345 . S
N311 C314 1.336 . S
C312 N310 1.335 1_545 S
C312 N311 1.345 . S
C312 H317 0.930 . S
C313 N310 1.390 . S
C313 C314 1.346 1_565 S
C313 H318 0.930 . S
C314 N311 1.336 . S
C314 C313 1.346 1_545 S
C314 H321 0.929 . S
C315 O305 1.282 . S
C315 O316 1.216 . S
O316 C315 1.216 . S
H317 C312 0.930 . S
H318 C313 0.930 . S
O319 Cu299 1.959 . S
O319 C306 1.251 . S
H320 C303 0.930 . S
H321 C314 0.929 . S
Cu322 N323 1.999 . S
Cu322 O328 1.974 . S
Cu322 N333 1.985 . S
Cu322 O342 1.959 . S
N323 Cu322 1.999 . S
N323 C325 1.263 1_556 S
N323 C327 1.389 . S
N324 C325 1.358 . S
N324 C326 1.400 1_554 S
C325 N323 1.263 1_554 S
C325 N324 1.358 . S
C325 H331 0.930 . S
C326 N324 1.400 1_556 S
C326 C327 1.351 . S
C326 H343 0.930 . S
C327 N323 1.389 . S
C327 C326 1.351 . S
C327 H332 0.930 . S
O328 Cu322 1.974 . S
O328 C338 1.282 1_556 S
C329 O330 1.261 1_556 S
C329 O342 1.251 . S
O330 C329 1.261 1_554 S
H331 C325 0.930 . S
H332 C327 0.930 . S
N333 Cu322 1.985 . S
N333 C335 1.335 . S
N333 C336 1.383 1_556 S
N334 C335 1.345 . S
N334 C337 1.336 . S
C335 N333 1.335 . S
C335 N334 1.345 . S
C335 H340 0.930 . S
C336 N333 1.383 1_554 S
C336 C337 1.344 1_554 S
C336 H341 0.939 . S
C337 N334 1.336 . S
C337 C336 1.344 1_556 S
C337 H344 0.929 1_556 S
C338 O328 1.282 1_554 S
C338 O339 1.216 . S
O339 C338 1.216 . S
H340 C335 0.930 . S
H341 C336 0.939 . S
O342 Cu322 1.959 . S
O342 C329 1.251 . S
H343 C326 0.930 . S
H344 C337 0.929 1_554 S
Cu345 N346 1.999 . S
Cu345 O351 1.974 . S
Cu345 N356 1.985 . S
Cu345 O365 1.959 . S
N346 Cu345 1.999 . S
N346 C348 1.263 . S
N346 C350 1.389 . S
N347 C348 1.358 . S
N347 C349 1.400 . S
C348 N346 1.263 . S
C348 N347 1.358 . S
C348 H354 0.930 . S
C349 N347 1.400 . S
C349 C350 1.351 . S
C349 H366 0.930 . S
C350 N346 1.389 . S
C350 C349 1.351 . S
C350 H355 0.930 . S
O351 Cu345 1.974 . S
O351 C361 1.282 . S
C352 O353 1.261 . S
C352 O365 1.251 . S
O353 C352 1.261 . S
H354 C348 0.930 . S
H355 C350 0.930 . S
N356 Cu345 1.985 . S
N356 C358 1.335 1_545 S
N356 C359 1.390 . S
N357 C358 1.345 . S
N357 C360 1.336 . S
C358 N356 1.335 1_565 S
C358 N357 1.345 . S
C358 H363 0.930 . S
C359 N356 1.390 . S
C359 C360 1.346 1_545 S
C359 H364 0.930 . S
C360 N357 1.336 . S
C360 C359 1.346 1_565 S
C360 H367 0.929 . S
C361 O351 1.282 . S
C361 O362 1.216 . S
O362 C361 1.216 . S
H363 C358 0.930 . S
H364 C359 0.930 . S
O365 Cu345 1.959 . S
O365 C352 1.251 . S
H366 C349 0.930 . S
H367 C360 0.929 . S
C368 C369 1.349 . S
C368 C370 1.327 . S
C368 H393 0.950 . S
C369 C368 1.349 . S
C369 C385 1.349 1_554 S
C370 C368 1.327 . S
C370 C389 1.429 . S
C370 H394 0.950 . S
C371 C388 1.574 . S
C371 C390 1.368 1_556 S
C371 H395 0.949 . S
H372 C376 0.949 . S
C373 C374 1.349 . S
C373 C375 1.327 . S
C373 H396 0.950 . S
C374 C373 1.349 . S
C374 C386 1.349 1_556 S
C375 C373 1.327 . S
C375 C391 1.429 . S
C375 H397 0.950 1_545 S
C376 H372 0.949 . S
C376 C384 1.574 1_545 S
C376 C392 1.368 1_554 S
H377 C385 0.950 . S
H378 C383 0.950 . S
H379 C384 0.949 1_545 S
H380 C386 0.950 . S
H381 C387 0.950 . S
H382 C388 0.949 . S
C383 H378 0.950 . S
C383 C385 1.327 . S
C383 C389 1.429 1_556 S
C384 C376 1.574 1_565 S
C384 H379 0.949 1_565 S
C384 C390 1.368 . S
C385 C369 1.349 1_556 S
C385 H377 0.950 . S
C385 C383 1.327 . S
C386 C374 1.349 1_554 S
C386 H380 0.950 . S
C386 C387 1.327 . S
C387 H381 0.950 . S
C387 C386 1.327 . S
C387 C391 1.429 1_554 S
C388 C371 1.574 . S
C388 H382 0.949 . S
C388 C392 1.368 1_565 S
C389 C370 1.429 . S
C389 C383 1.429 1_554 S
C389 C390 1.523 . S
C390 C371 1.368 1_554 S
C390 C384 1.368 . S
C390 C389 1.523 . S
C391 C375 1.429 . S
C391 C387 1.429 1_556 S
C391 C392 1.523 . S
C392 C376 1.368 1_556 S
C392 C388 1.368 1_545 S
C392 C391 1.523 . S
H393 C368 0.950 . S
H394 C370 0.950 . S
H395 C371 0.949 . S
H396 C373 0.950 . S
H397 C375 0.950 1_565 S
C398 C399 1.349 . S
C398 C400 1.327 . S
C398 H423 0.950 . S
C399 C398 1.349 . S
C399 C415 1.349 . S
C400 C398 1.327 . S
C400 C419 1.429 . S
C400 H424 0.950 . S
C401 C418 1.574 . S
C401 C420 1.368 . S
C401 H425 0.949 . S
H402 C406 0.949 . S
C403 C404 1.349 . S
C403 C405 1.327 . S
C403 H426 0.950 . S
C404 C403 1.349 . S
C404 C416 1.349 . S
C405 C403 1.327 . S
C405 C421 1.429 . S
C405 H427 0.950 . S
C406 H402 0.949 . S
C406 C414 1.574 . S
C406 C422 1.368 . S
H407 C415 0.950 . S
H408 C413 0.950 . S
H409 C414 0.949 . S
H410 C416 0.950 . S
H411 C417 0.950 . S
H412 C418 0.949 . S
C413 H408 0.950 . S
C413 C415 1.327 . S
C413 C419 1.429 . S
C414 C406 1.574 . S
C414 H409 0.949 . S
C414 C420 1.368 . S
C415 C399 1.349 . S
C415 H407 0.950 . S
C415 C413 1.327 . S
C416 C404 1.349 . S
C416 H410 0.950 . S
C416 C417 1.327 . S
C417 H411 0.950 . S
C417 C416 1.327 . S
C417 C421 1.429 . S
C418 C401 1.574 . S
C418 H412 0.949 . S
C418 C422 1.368 . S
C419 C400 1.429 . S
C419 C413 1.429 . S
C419 C420 1.523 . S
C420 C401 1.368 . S
C420 C414 1.368 . S
C420 C419 1.523 . S
C421 C405 1.429 . S
C421 C417 1.429 . S
C421 C422 1.523 . S
C422 C406 1.368 . S
C422 C418 1.368 . S
C422 C421 1.523 . S
H423 C398 0.950 . S
H424 C400 0.950 . S
H425 C401 0.949 . S
H426 C403 0.950 . S
H427 C405 0.950 . S
C428 C429 1.349 . S
C428 C430 1.327 . S
C428 H453 0.950 . S
C429 C428 1.349 . S
C429 C445 1.349 . S
C430 C428 1.327 . S
C430 C449 1.429 . S
C430 H454 0.950 . S
C431 C448 1.574 1_465 S
C431 C450 1.368 . S
C431 H455 0.949 . S
H432 C436 0.949 . S
C433 C434 1.349 . S
C433 C435 1.327 . S
C433 H456 0.950 . S
C434 C433 1.349 . S
C434 C446 1.349 . S
C435 C433 1.327 . S
C435 C451 1.429 . S
C435 H457 0.950 . S
C436 H432 0.949 . S
C436 C444 1.574 1_655 S
C436 C452 1.368 . S
H437 C445 0.950 . S
H438 C443 0.950 . S
H439 C444 0.949 . S
H440 C446 0.950 . S
H441 C447 0.950 . S
H442 C448 0.949 . S
C443 H438 0.950 . S
C443 C445 1.327 . S
C443 C449 1.429 . S
C444 C436 1.574 1_455 S
C444 H439 0.949 . S
C444 C450 1.368 1_545 S
C445 C429 1.349 . S
C445 H437 0.950 . S
C445 C443 1.327 . S
C446 C434 1.349 . S
C446 H440 0.950 . S
C446 C447 1.327 . S
C447 H441 0.950 . S
C447 C446 1.327 . S
C447 C451 1.429 . S
C448 C431 1.574 1_645 S
C448 H442 0.949 . S
C448 C452 1.368 . S
C449 C430 1.429 . S
C449 C443 1.429 . S
C449 C450 1.523 . S
C450 C431 1.368 . S
C450 C444 1.368 1_565 S
C450 C449 1.523 . S
C451 C435 1.429 . S
C451 C447 1.429 . S
C451 C452 1.523 . S
C452 C436 1.368 . S
C452 C448 1.368 . S
C452 C451 1.523 . S
H453 C428 0.950 . S
H454 C430 0.950 . S
H455 C431 0.949 . S
H456 C433 0.950 . S
H457 C435 0.950 . S
C458 C459 1.349 . S
C458 C460 1.327 . S
C458 H483 0.950 . S
C459 C458 1.349 . S
C459 C475 1.349 . S
C460 C458 1.327 . S
C460 C479 1.429 . S
C460 H484 0.950 . S
C461 C478 1.574 . S
C461 C480 1.368 . S
C461 H485 0.949 . S
H462 C466 0.949 . S
C463 C464 1.349 . S
C463 C465 1.327 . S
C463 H486 0.950 . S
C464 C463 1.349 . S
C464 C476 1.349 . S
C465 C463 1.327 . S
C465 C481 1.429 . S
C465 H487 0.950 . S
C466 H462 0.949 . S
C466 C474 1.574 . S
C466 C482 1.368 . S
H467 C475 0.950 . S
H468 C473 0.950 . S
H469 C474 0.949 . S
H470 C476 0.950 . S
H471 C477 0.950 . S
H472 C478 0.949 . S
C473 H468 0.950 . S
C473 C475 1.327 . S
C473 C479 1.429 . S
C474 C466 1.574 . S
C474 H469 0.949 . S
C474 C480 1.368 . S
C475 C459 1.349 . S
C475 H467 0.950 . S
C475 C473 1.327 . S
C476 C464 1.349 . S
C476 H470 0.950 . S
C476 C477 1.327 . S
C477 H471 0.950 . S
C477 C476 1.327 . S
C477 C481 1.429 . S
C478 C461 1.574 . S
C478 H472 0.949 . S
C478 C482 1.368 . S
C479 C460 1.429 . S
C479 C473 1.429 . S
C479 C480 1.523 . S
C480 C461 1.368 . S
C480 C474 1.368 . S
C480 C479 1.523 . S
C481 C465 1.429 . S
C481 C477 1.429 . S
C481 C482 1.523 . S
C482 C466 1.368 . S
C482 C478 1.368 . S
C482 C481 1.523 . S
H483 C458 0.950 . S
H484 C460 0.950 . S
H485 C461 0.949 . S
H486 C463 0.950 . S
H487 C465 0.950 . S
C488 C489 1.349 . S
C488 C490 1.327 . S
C488 H513 0.950 . S
C489 C488 1.349 . S
C489 C505 1.349 . S
C490 C488 1.327 . S
C490 C509 1.429 . S
C490 H514 0.950 . S
C491 C508 1.574 . S
C491 C510 1.368 . S
C491 H515 0.949 . S
H492 C496 0.949 . S
C493 C494 1.349 . S
C493 C495 1.327 . S
C493 H516 0.950 . S
C494 C493 1.349 . S
C494 C506 1.349 . S
C495 C493 1.327 . S
C495 C511 1.429 . S
C495 H517 0.950 . S
C496 H492 0.949 . S
C496 C504 1.574 . S
C496 C512 1.368 . S
H497 C505 0.950 . S
H498 C503 0.950 . S
H499 C504 0.949 . S
H500 C506 0.950 . S
H501 C507 0.950 . S
H502 C508 0.949 . S
C503 H498 0.950 . S
C503 C505 1.327 . S
C503 C509 1.429 . S
C504 C496 1.574 . S
C504 H499 0.949 . S
C504 C510 1.368 . S
C505 C489 1.349 . S
C505 H497 0.950 . S
C505 C503 1.327 . S
C506 C494 1.349 . S
C506 H500 0.950 . S
C506 C507 1.327 . S
C507 H501 0.950 . S
C507 C506 1.327 . S
C507 C511 1.429 . S
C508 C491 1.574 . S
C508 H502 0.949 . S
C508 C512 1.368 . S
C509 C490 1.429 . S
C509 C503 1.429 . S
C509 C510 1.523 . S
C510 C491 1.368 . S
C510 C504 1.368 . S
C510 C509 1.523 . S
C511 C495 1.429 . S
C511 C507 1.429 . S
C511 C512 1.523 . S
C512 C496 1.368 . S
C512 C508 1.368 . S
C512 C511 1.523 . S
H513 C488 0.950 . S
H514 C490 0.950 . S
H515 C491 0.949 . S
H516 C493 0.950 . S
H517 C495 0.950 . S
C518 C519 1.349 . S
C518 C520 1.327 . S
C518 H543 0.950 . S
C519 C518 1.349 . S
C519 C535 1.349 . S
C520 C518 1.327 . S
C520 C539 1.429 . S
C520 H544 0.950 . S
C521 C538 1.574 . S
C521 C540 1.368 . S
C521 H545 0.949 . S
H522 C526 0.949 . S
C523 C524 1.349 . S
C523 C525 1.327 . S
C523 H546 0.950 . S
C524 C523 1.349 . S
C524 C536 1.349 . S
C525 C523 1.327 . S
C525 C541 1.429 . S
C525 H547 0.950 . S
C526 H522 0.949 . S
C526 C534 1.574 . S
C526 C542 1.368 . S
H527 C535 0.950 . S
H528 C533 0.950 . S
H529 C534 0.949 . S
H530 C536 0.950 . S
H531 C537 0.950 . S
H532 C538 0.949 . S
C533 H528 0.950 . S
C533 C535 1.327 . S
C533 C539 1.429 . S
C534 C526 1.574 . S
C534 H529 0.949 . S
C534 C540 1.368 . S
C535 C519 1.349 . S
C535 H527 0.950 . S
C535 C533 1.327 . S
C536 C524 1.349 . S
C536 H530 0.950 . S
C536 C537 1.327 . S
C537 H531 0.950 . S
C537 C536 1.327 . S
C537 C541 1.429 . S
C538 C521 1.574 . S
C538 H532 0.949 . S
C538 C542 1.368 . S
C539 C520 1.429 . S
C539 C533 1.429 . S
C539 C540 1.523 . S
C540 C521 1.368 . S
C540 C534 1.368 . S
C540 C539 1.523 . S
C541 C525 1.429 . S
C541 C537 1.429 . S
C541 C542 1.523 . S
C542 C526 1.368 . S
C542 C538 1.368 . S
C542 C541 1.523 . S
H543 C518 0.950 . S
H544 C520 0.950 . S
H545 C521 0.949 . S
H546 C523 0.950 . S
H547 C525 0.950 . S
C548 C549 1.349 . S
C548 C550 1.327 . S
C548 H573 0.950 . S
C549 C548 1.349 . S
C549 C565 1.349 . S
C550 C548 1.327 . S
C550 C569 1.429 . S
C550 H574 0.950 . S
C551 C568 1.574 1_655 S
C551 C570 1.368 . S
C551 H575 0.949 . S
H552 C556 0.949 . S
C553 C554 1.349 . S
C553 C555 1.327 . S
C553 H576 0.950 . S
C554 C553 1.349 . S
C554 C566 1.349 . S
C555 C553 1.327 . S
C555 C571 1.429 . S
C555 H577 0.950 . S
C556 H552 0.949 . S
C556 C564 1.574 1_455 S
C556 C572 1.368 . S
H557 C565 0.950 . S
H558 C563 0.950 . S
H559 C564 0.949 . S
H560 C566 0.950 . S
H561 C567 0.950 . S
H562 C568 0.949 . S
C563 H558 0.950 . S
C563 C565 1.327 . S
C563 C569 1.429 . S
C564 C556 1.574 1_655 S
C564 H559 0.949 . S
C564 C570 1.368 . S
C565 C549 1.349 . S
C565 H557 0.950 . S
C565 C563 1.327 . S
C566 C554 1.349 . S
C566 H560 0.950 . S
C566 C567 1.327 . S
C567 H561 0.950 . S
C567 C566 1.327 . S
C567 C571 1.429 . S
C568 C551 1.574 1_455 S
C568 H562 0.949 . S
C568 C572 1.368 . S
C569 C550 1.429 . S
C569 C563 1.429 . S
C569 C570 1.523 . S
C570 C551 1.368 . S
C570 C564 1.368 . S
C570 C569 1.523 . S
C571 C555 1.429 . S
C571 C567 1.429 . S
C571 C572 1.523 . S
C572 C556 1.368 . S
C572 C568 1.368 . S
C572 C571 1.523 . S
H573 C548 0.950 . S
H574 C550 0.950 . S
H575 C551 0.949 . S
H576 C553 0.950 . S
H577 C555 0.950 . S
C578 C579 1.349 1_556 S
C578 C580 1.327 . S
C578 H603 0.950 . S
C579 C578 1.349 1_554 S
C579 C595 1.349 . S
C580 C578 1.327 . S
C580 C599 1.429 1_556 S
C580 H604 0.950 . S
C581 C598 1.574 . S
C581 C600 1.368 . S
C581 H605 0.949 . S
H582 C586 0.949 . S
C583 C584 1.349 1_554 S
C583 C585 1.327 . S
C583 H606 0.950 . S
C584 C583 1.349 1_556 S
C584 C596 1.349 . S
C585 C583 1.327 . S
C585 C601 1.429 1_554 S
C585 H607 0.950 . S
C586 H582 0.949 . S
C586 C594 1.574 . S
C586 C602 1.368 . S
H587 C595 0.950 . S
H588 C593 0.950 . S
H589 C594 0.949 . S
H590 C596 0.950 . S
H591 C597 0.950 . S
H592 C598 0.949 . S
C593 H588 0.950 . S
C593 C595 1.327 . S
C593 C599 1.429 . S
C594 C586 1.574 . S
C594 H589 0.949 . S
C594 C600 1.368 1_556 S
C595 C579 1.349 . S
C595 H587 0.950 . S
C595 C593 1.327 . S
C596 C584 1.349 . S
C596 H590 0.950 . S
C596 C597 1.327 . S
C597 H591 0.950 . S
C597 C596 1.327 . S
C597 C601 1.429 . S
C598 C581 1.574 . S
C598 H592 0.949 . S
C598 C602 1.368 1_554 S
C599 C580 1.429 1_554 S
C599 C593 1.429 . S
C599 C600 1.523 . S
C600 C581 1.368 . S
C600 C594 1.368 1_554 S
C600 C599 1.523 . S
C601 C585 1.429 1_556 S
C601 C597 1.429 . S
C601 C602 1.523 . S
C602 C586 1.368 . S
C602 C598 1.368 1_556 S
C602 C601 1.523 . S
H603 C578 0.950 . S
H604 C580 0.950 . S
H605 C581 0.949 . S
H606 C583 0.950 . S
H607 C585 0.950 . S
C608 C609 1.349 . S
C608 C610 1.327 . S
C608 H633 0.950 . S
C609 C608 1.349 . S
C609 C625 1.349 . S
C610 C608 1.327 . S
C610 C629 1.429 . S
C610 H634 0.950 . S
C611 C628 1.574 . S
C611 C630 1.368 . S
C611 H635 0.949 . S
H612 C616 0.949 . S
C613 C614 1.349 . S
C613 C615 1.327 . S
C613 H636 0.950 . S
C614 C613 1.349 . S
C614 C626 1.349 . S
C615 C613 1.327 . S
C615 C631 1.429 . S
C615 H637 0.950 . S
C616 H612 0.949 . S
C616 C624 1.574 . S
C616 C632 1.368 . S
H617 C625 0.950 . S
H618 C623 0.950 . S
H619 C624 0.949 . S
H620 C626 0.950 . S
H621 C627 0.950 . S
H622 C628 0.949 . S
C623 H618 0.950 . S
C623 C625 1.327 . S
C623 C629 1.429 . S
C624 C616 1.574 . S
C624 H619 0.949 . S
C624 C630 1.368 . S
C625 C609 1.349 . S
C625 H617 0.950 . S
C625 C623 1.327 . S
C626 C614 1.349 . S
C626 H620 0.950 . S
C626 C627 1.327 . S
C627 H621 0.950 . S
C627 C626 1.327 . S
C627 C631 1.429 . S
C628 C611 1.574 . S
C628 H622 0.949 . S
C628 C632 1.368 . S
C629 C610 1.429 . S
C629 C623 1.429 . S
C629 C630 1.523 . S
C630 C611 1.368 . S
C630 C624 1.368 . S
C630 C629 1.523 . S
C631 C615 1.429 . S
C631 C627 1.429 . S
C631 C632 1.523 . S
C632 C616 1.368 . S
C632 C628 1.368 . S
C632 C631 1.523 . S
H633 C608 0.950 . S
H634 C610 0.950 . S
H635 C611 0.949 . S
H636 C613 0.950 . S
H637 C615 0.950 . S
C638 C639 1.349 . S
C638 C640 1.327 . S
C638 H663 0.950 . S
C639 C638 1.349 . S
C639 C655 1.349 . S
C640 C638 1.327 . S
C640 C659 1.429 . S
C640 H664 0.950 . S
C641 C658 1.574 . S
C641 C660 1.368 . S
C641 H665 0.949 . S
H642 C646 0.949 . S
C643 C644 1.349 . S
C643 C645 1.327 . S
C643 H666 0.950 . S
C644 C643 1.349 . S
C644 C656 1.349 . S
C645 C643 1.327 . S
C645 C661 1.429 . S
C645 H667 0.950 . S
C646 H642 0.949 . S
C646 C654 1.574 . S
C646 C662 1.368 . S
H647 C655 0.950 . S
H648 C653 0.950 . S
H649 C654 0.949 . S
H650 C656 0.950 . S
H651 C657 0.950 . S
H652 C658 0.949 . S
C653 H648 0.950 . S
C653 C655 1.327 . S
C653 C659 1.429 . S
C654 C646 1.574 . S
C654 H649 0.949 . S
C654 C660 1.368 . S
C655 C639 1.349 . S
C655 H647 0.950 . S
C655 C653 1.327 . S
C656 C644 1.349 . S
C656 H650 0.950 . S
C656 C657 1.327 . S
C657 H651 0.950 . S
C657 C656 1.327 . S
C657 C661 1.429 . S
C658 C641 1.574 . S
C658 H652 0.949 . S
C658 C662 1.368 . S
C659 C640 1.429 . S
C659 C653 1.429 . S
C659 C660 1.523 . S
C660 C641 1.368 . S
C660 C654 1.368 . S
C660 C659 1.523 . S
C661 C645 1.429 . S
C661 C657 1.429 . S
C661 C662 1.523 . S
C662 C646 1.368 . S
C662 C658 1.368 . S
C662 C661 1.523 . S
H663 C638 0.950 . S
H664 C640 0.950 . S
H665 C641 0.949 . S
H666 C643 0.950 . S
H667 C645 0.950 . S
C668 C669 1.349 . S
C668 C670 1.327 . S
C668 H693 0.950 . S
C669 C668 1.349 . S
C669 C685 1.349 . S
C670 C668 1.327 . S
C670 C689 1.429 . S
C670 H694 0.950 . S
C671 C688 1.574 . S
C671 C690 1.368 . S
C671 H695 0.949 . S
H672 C676 0.949 . S
C673 C674 1.349 . S
C673 C675 1.327 . S
C673 H696 0.950 . S
C674 C673 1.349 . S
C674 C686 1.349 . S
C675 C673 1.327 . S
C675 C691 1.429 . S
C675 H697 0.950 . S
C676 H672 0.949 . S
C676 C684 1.574 . S
C676 C692 1.368 . S
H677 C685 0.950 . S
H678 C683 0.950 . S
H679 C684 0.949 . S
H680 C686 0.950 . S
H681 C687 0.950 . S
H682 C688 0.949 . S
C683 H678 0.950 . S
C683 C685 1.327 . S
C683 C689 1.429 . S
C684 C676 1.574 . S
C684 H679 0.949 . S
C684 C690 1.368 . S
C685 C669 1.349 . S
C685 H677 0.950 . S
C685 C683 1.327 . S
C686 C674 1.349 . S
C686 H680 0.950 . S
C686 C687 1.327 . S
C687 H681 0.950 . S
C687 C686 1.327 . S
C687 C691 1.429 . S
C688 C671 1.574 . S
C688 H682 0.949 . S
C688 C692 1.368 . S
C689 C670 1.429 . S
C689 C683 1.429 . S
C689 C690 1.523 . S
C690 C671 1.368 . S
C690 C684 1.368 . S
C690 C689 1.523 . S
C691 C675 1.429 . S
C691 C687 1.429 . S
C691 C692 1.523 . S
C692 C676 1.368 . S
C692 C688 1.368 . S
C692 C691 1.523 . S
H693 C668 0.950 . S
H694 C670 0.950 . S
H695 C671 0.949 . S
H696 C673 0.950 . S
H697 C675 0.950 . S
C698 C699 1.349 . S
C698 C700 1.327 1_655 S
C698 H723 0.950 . S
C699 C698 1.349 . S
C699 C715 1.349 1_655 S
C700 C698 1.327 1_455 S
C700 C719 1.429 . S
C700 H724 0.950 . S
C701 C718 1.574 . S
C701 C720 1.368 . S
C701 H725 0.949 . S
H702 C706 0.949 . S
C703 C704 1.349 . S
C703 C705 1.327 . S
C703 H726 0.950 . S
C704 C703 1.349 . S
C704 C716 1.349 . S
C705 C703 1.327 . S
C705 C721 1.429 . S
C705 H727 0.950 . S
C706 H702 0.949 . S
C706 C714 1.574 . S
C706 C722 1.368 . S
H707 C715 0.950 . S
H708 C713 0.950 . S
H709 C714 0.949 . S
H710 C716 0.950 . S
H711 C717 0.950 . S
H712 C718 0.949 . S
C713 H708 0.950 . S
C713 C715 1.327 . S
C713 C719 1.429 . S
C714 C706 1.574 . S
C714 H709 0.949 . S
C714 C720 1.368 . S
C715 C699 1.349 1_455 S
C715 H707 0.950 . S
C715 C713 1.327 . S
C716 C704 1.349 . S
C716 H710 0.950 . S
C716 C717 1.327 . S
C717 H711 0.950 . S
C717 C716 1.327 . S
C717 C721 1.429 . S
C718 C701 1.574 . S
C718 H712 0.949 . S
C718 C722 1.368 . S
C719 C700 1.429 . S
C719 C713 1.429 . S
C719 C720 1.523 . S
C720 C701 1.368 . S
C720 C714 1.368 . S
C720 C719 1.523 . S
C721 C705 1.429 . S
C721 C717 1.429 . S
C721 C722 1.523 . S
C722 C706 1.368 . S
C722 C718 1.368 . S
C722 C721 1.523 . S
H723 C698 0.950 . S
H724 C700 0.950 . S
H725 C701 0.949 . S
H726 C703 0.950 . S
H727 C705 0.950 . S
C728 C729 1.349 . S
C728 C730 1.327 . S
C728 H753 0.950 . S
C729 C728 1.349 . S
C729 C745 1.349 . S
C730 C728 1.327 . S
C730 C749 1.429 . S
C730 H754 0.950 . S
C731 C748 1.574 . S
C731 C750 1.368 . S
C731 H755 0.949 . S
H732 C736 0.949 . S
C733 C734 1.349 . S
C733 C735 1.327 . S
C733 H756 0.950 1_556 S
C734 C733 1.349 . S
C734 C746 1.349 . S
C735 C733 1.327 . S
C735 C751 1.429 . S
C735 H757 0.950 . S
C736 H732 0.949 . S
C736 C744 1.574 . S
C736 C752 1.368 . S
H737 C745 0.950 . S
H738 C743 0.950 . S
H739 C744 0.949 . S
H740 C746 0.950 . S
H741 C747 0.950 . S
H742 C748 0.949 . S
C743 H738 0.950 . S
C743 C745 1.327 . S
C743 C749 1.429 . S
C744 C736 1.574 . S
C744 H739 0.949 . S
C744 C750 1.368 . S
C745 C729 1.349 . S
C745 H737 0.950 . S
C745 C743 1.327 . S
C746 C734 1.349 . S
C746 H740 0.950 . S
C746 C747 1.327 . S
C747 H741 0.950 . S
C747 C746 1.327 . S
C747 C751 1.429 . S
C748 C731 1.574 . S
C748 H742 0.949 . S
C748 C752 1.368 . S
C749 C730 1.429 . S
C749 C743 1.429 . S
C749 C750 1.523 . S
C750 C731 1.368 . S
C750 C744 1.368 . S
C750 C749 1.523 . S
C751 C735 1.429 . S
C751 C747 1.429 . S
C751 C752 1.523 . S
C752 C736 1.368 . S
C752 C748 1.368 . S
C752 C751 1.523 . S
H753 C728 0.950 . S
H754 C730 0.950 . S
H755 C731 0.949 . S
H756 C733 0.950 1_554 S
H757 C735 0.950 . S
C758 C759 1.349 . S
C758 C760 1.327 . S
C758 H783 0.950 . S
C759 C758 1.349 . S
C759 C775 1.349 . S
C760 C758 1.327 . S
C760 C779 1.429 . S
C760 H784 0.950 . S
C761 C778 1.574 . S
C761 C780 1.368 . S
C761 H785 0.949 . S
H762 C766 0.949 . S
C763 C764 1.349 . S
C763 C765 1.327 . S
C763 H786 0.950 . S
C764 C763 1.349 . S
C764 C776 1.349 . S
C765 C763 1.327 . S
C765 C781 1.429 . S
C765 H787 0.950 . S
C766 H762 0.949 . S
C766 C774 1.574 . S
C766 C782 1.368 . S
H767 C775 0.950 . S
H768 C773 0.950 . S
H769 C774 0.949 . S
H770 C776 0.950 . S
H771 C777 0.950 . S
H772 C778 0.949 . S
C773 H768 0.950 . S
C773 C775 1.327 . S
C773 C779 1.429 . S
C774 C766 1.574 . S
C774 H769 0.949 . S
C774 C780 1.368 . S
C775 C759 1.349 . S
C775 H767 0.950 . S
C775 C773 1.327 . S
C776 C764 1.349 . S
C776 H770 0.950 . S
C776 C777 1.327 . S
C777 H771 0.950 . S
C777 C776 1.327 . S
C777 C781 1.429 . S
C778 C761 1.574 . S
C778 H772 0.949 . S
C778 C782 1.368 . S
C779 C760 1.429 . S
C779 C773 1.429 . S
C779 C780 1.523 . S
C780 C761 1.368 . S
C780 C774 1.368 . S
C780 C779 1.523 . S
C781 C765 1.429 . S
C781 C777 1.429 . S
C781 C782 1.523 . S
C782 C766 1.368 . S
C782 C778 1.368 . S
C782 C781 1.523 . S
H783 C758 0.950 . S
H784 C760 0.950 . S
H785 C761 0.949 . S
H786 C763 0.950 . S
H787 C765 0.950 . S
C788 C789 1.349 . S
C788 C790 1.327 . S
C788 H813 0.950 . S
C789 C788 1.349 . S
C789 C805 1.349 . S
C790 C788 1.327 . S
C790 C809 1.429 . S
C790 H814 0.950 . S
C791 C808 1.574 . S
C791 C810 1.368 . S
C791 H815 0.949 . S
H792 C796 0.949 . S
C793 C794 1.349 . S
C793 C795 1.327 . S
C793 H816 0.950 . S
C794 C793 1.349 . S
C794 C806 1.349 . S
C795 C793 1.327 . S
C795 C811 1.429 . S
C795 H817 0.950 . S
C796 H792 0.949 . S
C796 C804 1.574 . S
C796 C812 1.368 . S
H797 C805 0.950 . S
H798 C803 0.950 . S
H799 C804 0.949 . S
H800 C806 0.950 . S
H801 C807 0.950 . S
H802 C808 0.949 . S
C803 H798 0.950 . S
C803 C805 1.327 . S
C803 C809 1.429 . S
C804 C796 1.574 . S
C804 H799 0.949 . S
C804 C810 1.368 . S
C805 C789 1.349 . S
C805 H797 0.950 . S
C805 C803 1.327 . S
C806 C794 1.349 . S
C806 H800 0.950 . S
C806 C807 1.327 . S
C807 H801 0.950 . S
C807 C806 1.327 . S
C807 C811 1.429 . S
C808 C791 1.574 . S
C808 H802 0.949 . S
C808 C812 1.368 . S
C809 C790 1.429 . S
C809 C803 1.429 . S
C809 C810 1.523 . S
C810 C791 1.368 . S
C810 C804 1.368 . S
C810 C809 1.523 . S
C811 C795 1.429 . S
C811 C807 1.429 . S
C811 C812 1.523 . S
C812 C796 1.368 . S
C812 C808 1.368 . S
C812 C811 1.523 . S
H813 C788 0.950 . S
H814 C790 0.950 . S
H815 C791 0.949 . S
H816 C793 0.950 . S
H817 C795 0.950 . S
C818 C819 1.349 1_655 S
C818 C820 1.327 . S
C818 H843 0.950 . S
C819 C818 1.349 1_455 S
C819 C835 1.349 . S
C820 C818 1.327 . S
C820 C839 1.429 . S
C820 H844 0.950 . S
C821 C838 1.574 . S
C821 C840 1.368 . S
C821 H845 0.949 . S
H822 C826 0.949 . S
C823 C824 1.349 . S
C823 C825 1.327 . S
C823 H846 0.950 . S
C824 C823 1.349 . S
C824 C836 1.349 . S
C825 C823 1.327 . S
C825 C841 1.429 . S
C825 H847 0.950 . S
C826 H822 0.949 . S
C826 C834 1.574 . S
C826 C842 1.368 . S
H827 C835 0.950 . S
H828 C833 0.950 . S
H829 C834 0.949 . S
H830 C836 0.950 . S
H831 C837 0.950 . S
H832 C838 0.949 . S
C833 H828 0.950 . S
C833 C835 1.327 1_655 S
C833 C839 1.429 . S
C834 C826 1.574 . S
C834 H829 0.949 . S
C834 C840 1.368 . S
C835 C819 1.349 . S
C835 H827 0.950 . S
C835 C833 1.327 1_455 S
C836 C824 1.349 . S
C836 H830 0.950 . S
C836 C837 1.327 . S
C837 H831 0.950 . S
C837 C836 1.327 . S
C837 C841 1.429 . S
C838 C821 1.574 . S
C838 H832 0.949 . S
C838 C842 1.368 . S
C839 C820 1.429 . S
C839 C833 1.429 . S
C839 C840 1.523 . S
C840 C821 1.368 . S
C840 C834 1.368 . S
C840 C839 1.523 . S
C841 C825 1.429 . S
C841 C837 1.429 . S
C841 C842 1.523 . S
C842 C826 1.368 . S
C842 C838 1.368 . S
C842 C841 1.523 . S
H843 C818 0.950 . S
H844 C820 0.950 . S
H845 C821 0.949 . S
H846 C823 0.950 . S
H847 C825 0.950 . S
C848 C849 1.349 . S
C848 C850 1.327 . S
C848 H873 0.950 . S
C849 C848 1.349 . S
C849 C865 1.349 . S
C850 C848 1.327 . S
C850 C869 1.429 . S
C850 H874 0.950 . S
C851 C868 1.574 . S
C851 C870 1.368 . S
C851 H875 0.949 . S
H852 C856 0.949 . S
C853 C854 1.349 . S
C853 C855 1.327 . S
C853 H876 0.950 . S
C854 C853 1.349 . S
C854 C866 1.349 . S
C855 C853 1.327 . S
C855 C871 1.429 . S
C855 H877 0.950 . S
C856 H852 0.949 . S
C856 C864 1.574 . S
C856 C872 1.368 . S
H857 C865 0.950 . S
H858 C863 0.950 . S
H859 C864 0.949 . S
H860 C866 0.950 . S
H861 C867 0.950 . S
H862 C868 0.949 . S
C863 H858 0.950 . S
C863 C865 1.327 . S
C863 C869 1.429 . S
C864 C856 1.574 . S
C864 H859 0.949 . S
C864 C870 1.368 . S
C865 C849 1.349 . S
C865 H857 0.950 . S
C865 C863 1.327 . S
C866 C854 1.349 . S
C866 H860 0.950 . S
C866 C867 1.327 . S
C867 H861 0.950 . S
C867 C866 1.327 . S
C867 C871 1.429 . S
C868 C851 1.574 . S
C868 H862 0.949 . S
C868 C872 1.368 . S
C869 C850 1.429 . S
C869 C863 1.429 . S
C869 C870 1.523 . S
C870 C851 1.368 . S
C870 C864 1.368 . S
C870 C869 1.523 . S
C871 C855 1.429 . S
C871 C867 1.429 . S
C871 C872 1.523 . S
C872 C856 1.368 . S
C872 C868 1.368 . S
C872 C871 1.523 . S
H873 C848 0.950 . S
H874 C850 0.950 . S
H875 C851 0.949 . S
H876 C853 0.950 . S
H877 C855 0.950 . S
C878 C879 1.349 . S
C878 C880 1.327 . S
C878 H903 0.950 . S
C879 C878 1.349 . S
C879 C895 1.349 . S
C880 C878 1.327 . S
C880 C899 1.429 . S
C880 H904 0.950 . S
C881 C898 1.574 . S
C881 C900 1.368 . S
C881 H905 0.949 . S
H882 C886 0.949 . S
C883 C884 1.349 1_655 S
C883 C885 1.327 . S
C883 H906 0.950 1_655 S
C884 C883 1.349 1_455 S
C884 C896 1.349 1_465 S
C885 C883 1.327 . S
C885 C901 1.429 . S
C885 H907 0.950 . S
C886 H882 0.949 . S
C886 C894 1.574 . S
C886 C902 1.368 . S
H887 C895 0.950 . S
H888 C893 0.950 . S
H889 C894 0.949 . S
H890 C896 0.950 . S
H891 C897 0.950 1_545 S
H892 C898 0.949 . S
C893 H888 0.950 . S
C893 C895 1.327 . S
C893 C899 1.429 . S
C894 C886 1.574 . S
C894 H889 0.949 . S
C894 C900 1.368 . S
C895 C879 1.349 . S
C895 H887 0.950 . S
C895 C893 1.327 . S
C896 C884 1.349 1_645 S
C896 H890 0.950 . S
C896 C897 1.327 1_545 S
C897 H891 0.950 1_565 S
C897 C896 1.327 1_565 S
C897 C901 1.429 . S
C898 C881 1.574 . S
C898 H892 0.949 . S
C898 C902 1.368 . S
C899 C880 1.429 . S
C899 C893 1.429 . S
C899 C900 1.523 . S
C900 C881 1.368 . S
C900 C894 1.368 . S
C900 C899 1.523 . S
C901 C885 1.429 . S
C901 C897 1.429 . S
C901 C902 1.523 . S
C902 C886 1.368 . S
C902 C898 1.368 . S
C902 C901 1.523 . S
H903 C878 0.950 . S
H904 C880 0.950 . S
H905 C881 0.949 . S
H906 C883 0.950 1_455 S
H907 C885 0.950 . S
C908 C909 1.349 . S
C908 C910 1.327 . S
C908 H933 0.950 . S
C909 C908 1.349 . S
C909 C925 1.349 . S
C910 C908 1.327 . S
C910 C929 1.429 . S
C910 H934 0.950 . S
C911 C928 1.574 . S
C911 C930 1.368 . S
C911 H935 0.949 . S
H912 C916 0.949 . S
C913 C914 1.349 . S
C913 C915 1.327 . S
C913 H936 0.950 . S
C914 C913 1.349 . S
C914 C926 1.349 . S
C915 C913 1.327 . S
C915 C931 1.429 . S
C915 H937 0.950 . S
C916 H912 0.949 . S
C916 C924 1.574 . S
C916 C932 1.368 . S
H917 C925 0.950 . S
H918 C923 0.950 . S
H919 C924 0.949 . S
H920 C926 0.950 . S
H921 C927 0.950 . S
H922 C928 0.949 . S
C923 H918 0.950 . S
C923 C925 1.327 . S
C923 C929 1.429 . S
C924 C916 1.574 . S
C924 H919 0.949 . S
C924 C930 1.368 . S
C925 C909 1.349 . S
C925 H917 0.950 . S
C925 C923 1.327 . S
C926 C914 1.349 . S
C926 H920 0.950 . S
C926 C927 1.327 . S
C927 H921 0.950 . S
C927 C926 1.327 . S
C927 C931 1.429 . S
C928 C911 1.574 . S
C928 H922 0.949 . S
C928 C932 1.368 . S
C929 C910 1.429 . S
C929 C923 1.429 . S
C929 C930 1.523 . S
C930 C911 1.368 . S
C930 C924 1.368 . S
C930 C929 1.523 . S
C931 C915 1.429 . S
C931 C927 1.429 . S
C931 C932 1.523 . S
C932 C916 1.368 . S
C932 C928 1.368 . S
C932 C931 1.523 . S
H933 C908 0.950 . S
H934 C910 0.950 . S
H935 C911 0.949 . S
H936 C913 0.950 . S
H937 C915 0.950 . S
C938 C939 1.349 . S
C938 C940 1.327 . S
C938 H963 0.950 . S
C939 C938 1.349 . S
C939 C955 1.349 1_545 S
C940 C938 1.327 . S
C940 C959 1.429 . S
C940 H964 0.950 . S
C941 C958 1.574 . S
C941 C960 1.368 . S
C941 H965 0.949 . S
H942 C946 0.949 . S
C943 C944 1.349 . S
C943 C945 1.327 . S
C943 H966 0.950 . S
C944 C943 1.349 . S
C944 C956 1.349 . S
C945 C943 1.327 . S
C945 C961 1.429 . S
C945 H967 0.950 . S
C946 H942 0.949 . S
C946 C954 1.574 . S
C946 C962 1.368 . S
H947 C955 0.950 . S
H948 C953 0.950 1_565 S
H949 C954 0.949 . S
H950 C956 0.950 . S
H951 C957 0.950 . S
H952 C958 0.949 . S
C953 H948 0.950 1_545 S
C953 C955 1.327 1_545 S
C953 C959 1.429 . S
C954 C946 1.574 . S
C954 H949 0.949 . S
C954 C960 1.368 . S
C955 C939 1.349 1_565 S
C955 H947 0.950 . S
C955 C953 1.327 1_565 S
C956 C944 1.349 . S
C956 H950 0.950 . S
C956 C957 1.327 . S
C957 H951 0.950 . S
C957 C956 1.327 . S
C957 C961 1.429 . S
C958 C941 1.574 . S
C958 H952 0.949 . S
C958 C962 1.368 . S
C959 C940 1.429 . S
C959 C953 1.429 . S
C959 C960 1.523 . S
C960 C941 1.368 . S
C960 C954 1.368 . S
C960 C959 1.523 . S
C961 C945 1.429 . S
C961 C957 1.429 . S
C961 C962 1.523 . S
C962 C946 1.368 . S
C962 C958 1.368 . S
C962 C961 1.523 . S
H963 C938 0.950 . S
H964 C940 0.950 . S
H965 C941 0.949 . S
H966 C943 0.950 . S
H967 C945 0.950 . S
C968 C969 1.349 . S
C968 C970 1.327 . S
C968 H993 0.950 . S
C969 C968 1.349 . S
C969 C985 1.349 . S
C970 C968 1.327 . S
C970 C989 1.429 . S
C970 H994 0.950 . S
C971 C988 1.574 . S
C971 C990 1.368 . S
C971 H995 0.949 . S
H972 C976 0.949 . S
C973 C974 1.349 . S
C973 C975 1.327 . S
C973 H996 0.950 . S
C974 C973 1.349 . S
C974 C986 1.349 . S
C975 C973 1.327 . S
C975 C991 1.429 . S
C975 H997 0.950 . S
C976 H972 0.949 . S
C976 C984 1.574 . S
C976 C992 1.368 . S
H977 C985 0.950 . S
H978 C983 0.950 . S
H979 C984 0.949 . S
H980 C986 0.950 . S
H981 C987 0.950 . S
H982 C988 0.949 . S
C983 H978 0.950 . S
C983 C985 1.327 . S
C983 C989 1.429 . S
C984 C976 1.574 . S
C984 H979 0.949 . S
C984 C990 1.368 . S
C985 C969 1.349 . S
C985 H977 0.950 . S
C985 C983 1.327 . S
C986 C974 1.349 . S
C986 H980 0.950 . S
C986 C987 1.327 . S
C987 H981 0.950 . S
C987 C986 1.327 . S
C987 C991 1.429 . S
C988 C971 1.574 . S
C988 H982 0.949 . S
C988 C992 1.368 . S
C989 C970 1.429 . S
C989 C983 1.429 . S
C989 C990 1.523 . S
C990 C971 1.368 . S
C990 C984 1.368 . S
C990 C989 1.523 . S
C991 C975 1.429 . S
C991 C987 1.429 . S
C991 C992 1.523 . S
C992 C976 1.368 . S
C992 C988 1.368 . S
C992 C991 1.523 . S
H993 C968 0.950 . S
H994 C970 0.950 . S
H995 C971 0.949 . S
H996 C973 0.950 . S
H997 C975 0.950 . S
C998 C999 1.349 1_455 S
C998 C1000 1.327 . S
C998 H1023 0.950 . S
C999 C998 1.349 1_655 S
C999 C1015 1.349 . S
C1000 C998 1.327 . S
C1000 C1019 1.429 . S
C1000 H1024 0.950 . S
C1001 C1018 1.574 . S
C1001 C1020 1.368 . S
C1001 H1025 0.949 . S
H1002 C1006 0.949 . S
C1003 C1004 1.349 . S
C1003 C1005 1.327 . S
C1003 H1026 0.950 . S
C1004 C1003 1.349 . S
C1004 C1016 1.349 . S
C1005 C1003 1.327 . S
C1005 C1021 1.429 . S
C1005 H1027 0.950 . S
C1006 H1002 0.949 . S
C1006 C1014 1.574 . S
C1006 C1022 1.368 . S
H1007 C1015 0.950 . S
H1008 C1013 0.950 . S
H1009 C1014 0.949 . S
H1010 C1016 0.950 . S
H1011 C1017 0.950 . S
H1012 C1018 0.949 . S
C1013 H1008 0.950 . S
C1013 C1015 1.327 1_455 S
C1013 C1019 1.429 . S
C1014 C1006 1.574 . S
C1014 H1009 0.949 . S
C1014 C1020 1.368 . S
C1015 C999 1.349 . S
C1015 H1007 0.950 . S
C1015 C1013 1.327 1_655 S
C1016 C1004 1.349 . S
C1016 H1010 0.950 . S
C1016 C1017 1.327 . S
C1017 H1011 0.950 . S
C1017 C1016 1.327 . S
C1017 C1021 1.429 . S
C1018 C1001 1.574 . S
C1018 H1012 0.949 . S
C1018 C1022 1.368 . S
C1019 C1000 1.429 . S
C1019 C1013 1.429 . S
C1019 C1020 1.523 . S
C1020 C1001 1.368 . S
C1020 C1014 1.368 . S
C1020 C1019 1.523 . S
C1021 C1005 1.429 . S
C1021 C1017 1.429 . S
C1021 C1022 1.523 . S
C1022 C1006 1.368 . S
C1022 C1018 1.368 . S
C1022 C1021 1.523 . S
H1023 C998 0.950 . S
H1024 C1000 0.950 . S
H1025 C1001 0.949 . S
H1026 C1003 0.950 . S
H1027 C1005 0.950 . S
C1028 C1029 1.349 . S
C1028 C1030 1.327 . S
C1028 H1053 0.950 . S
C1029 C1028 1.349 . S
C1029 C1045 1.349 . S
C1030 C1028 1.327 . S
C1030 C1049 1.429 . S
C1030 H1054 0.950 . S
C1031 C1048 1.574 . S
C1031 C1050 1.368 . S
C1031 H1055 0.949 . S
H1032 C1036 0.949 . S
C1033 C1034 1.349 . S
C1033 C1035 1.327 . S
C1033 H1056 0.950 . S
C1034 C1033 1.349 . S
C1034 C1046 1.349 . S
C1035 C1033 1.327 . S
C1035 C1051 1.429 . S
C1035 H1057 0.950 . S
C1036 H1032 0.949 . S
C1036 C1044 1.574 . S
C1036 C1052 1.368 . S
H1037 C1045 0.950 1_554 S
H1038 C1043 0.950 . S
H1039 C1044 0.949 . S
H1040 C1046 0.950 . S
H1041 C1047 0.950 . S
H1042 C1048 0.949 . S
C1043 H1038 0.950 . S
C1043 C1045 1.327 . S
C1043 C1049 1.429 . S
C1044 C1036 1.574 . S
C1044 H1039 0.949 . S
C1044 C1050 1.368 . S
C1045 C1029 1.349 . S
C1045 H1037 0.950 1_556 S
C1045 C1043 1.327 . S
C1046 C1034 1.349 . S
C1046 H1040 0.950 . S
C1046 C1047 1.327 . S
C1047 H1041 0.950 . S
C1047 C1046 1.327 . S
C1047 C1051 1.429 . S
C1048 C1031 1.574 . S
C1048 H1042 0.949 . S
C1048 C1052 1.368 . S
C1049 C1030 1.429 . S
C1049 C1043 1.429 . S
C1049 C1050 1.523 . S
C1050 C1031 1.368 . S
C1050 C1044 1.368 . S
C1050 C1049 1.523 . S
C1051 C1035 1.429 . S
C1051 C1047 1.429 . S
C1051 C1052 1.523 . S
C1052 C1036 1.368 . S
C1052 C1048 1.368 . S
C1052 C1051 1.523 . S
H1053 C1028 0.950 . S
H1054 C1030 0.950 . S
H1055 C1031 0.949 . S
H1056 C1033 0.950 . S
H1057 C1035 0.950 . S
C1058 C1059 1.349 . S
C1058 C1060 1.327 . S
C1058 H1083 0.950 . S
C1059 C1058 1.349 . S
C1059 C1075 1.349 . S
C1060 C1058 1.327 . S
C1060 C1079 1.429 . S
C1060 H1084 0.950 . S
C1061 C1078 1.574 . S
C1061 C1080 1.368 . S
C1061 H1085 0.949 . S
H1062 C1066 0.949 1_545 S
C1063 C1064 1.349 . S
C1063 C1065 1.327 . S
C1063 H1086 0.950 . S
C1064 C1063 1.349 . S
C1064 C1076 1.349 1_565 S
C1065 C1063 1.327 . S
C1065 C1081 1.429 . S
C1065 H1087 0.950 . S
C1066 H1062 0.949 1_565 S
C1066 C1074 1.574 . S
C1066 C1082 1.368 . S
H1067 C1075 0.950 . S
H1068 C1073 0.950 . S
H1069 C1074 0.949 . S
H1070 C1076 0.950 . S
H1071 C1077 0.950 . S
H1072 C1078 0.949 . S
C1073 H1068 0.950 . S
C1073 C1075 1.327 . S
C1073 C1079 1.429 . S
C1074 C1066 1.574 . S
C1074 H1069 0.949 . S
C1074 C1080 1.368 . S
C1075 C1059 1.349 . S
C1075 H1067 0.950 . S
C1075 C1073 1.327 . S
C1076 C1064 1.349 1_545 S
C1076 H1070 0.950 . S
C1076 C1077 1.327 . S
C1077 H1071 0.950 . S
C1077 C1076 1.327 . S
C1077 C1081 1.429 1_545 S
C1078 C1061 1.574 . S
C1078 H1072 0.949 . S
C1078 C1082 1.368 . S
C1079 C1060 1.429 . S
C1079 C1073 1.429 . S
C1079 C1080 1.523 . S
C1080 C1061 1.368 . S
C1080 C1074 1.368 . S
C1080 C1079 1.523 . S
C1081 C1065 1.429 . S
C1081 C1077 1.429 1_565 S
C1081 C1082 1.523 . S
C1082 C1066 1.368 . S
C1082 C1078 1.368 . S
C1082 C1081 1.523 . S
H1083 C1058 0.950 . S
H1084 C1060 0.950 . S
H1085 C1061 0.949 . S
H1086 C1063 0.950 . S
H1087 C1065 0.950 . S
C1088 C1089 1.349 1_554 S
C1088 C1090 1.327 . S
C1088 H1113 0.950 . S
C1089 C1088 1.349 1_556 S
C1089 C1105 1.349 . S
C1090 C1088 1.327 . S
C1090 C1109 1.429 1_554 S
C1090 H1114 0.950 . S
C1091 C1108 1.574 . S
C1091 C1110 1.368 . S
C1091 H1115 0.949 . S
H1092 C1096 0.949 . S
C1093 C1094 1.349 . S
C1093 C1095 1.327 . S
C1093 H1116 0.950 . S
C1094 C1093 1.349 . S
C1094 C1106 1.349 1_556 S
C1095 C1093 1.327 . S
C1095 C1111 1.429 . S
C1095 H1117 0.950 . S
C1096 H1092 0.949 . S
C1096 C1104 1.574 . S
C1096 C1112 1.368 1_554 S
H1097 C1105 0.950 . S
H1098 C1103 0.950 . S
H1099 C1104 0.949 . S
H1100 C1106 0.950 . S
H1101 C1107 0.950 . S
H1102 C1108 0.949 . S
C1103 H1098 0.950 . S
C1103 C1105 1.327 . S
C1103 C1109 1.429 . S
C1104 C1096 1.574 . S
C1104 H1099 0.949 . S
C1104 C1110 1.368 1_554 S
C1105 C1089 1.349 . S
C1105 H1097 0.950 . S
C1105 C1103 1.327 . S
C1106 C1094 1.349 1_554 S
C1106 H1100 0.950 . S
C1106 C1107 1.327 . S
C1107 H1101 0.950 . S
C1107 C1106 1.327 . S
C1107 C1111 1.429 1_554 S
C1108 C1091 1.574 . S
C1108 H1102 0.949 . S
C1108 C1112 1.368 . S
C1109 C1090 1.429 1_556 S
C1109 C1103 1.429 . S
C1109 C1110 1.523 . S
C1110 C1091 1.368 . S
C1110 C1104 1.368 1_556 S
C1110 C1109 1.523 . S
C1111 C1095 1.429 . S
C1111 C1107 1.429 1_556 S
C1111 C1112 1.523 . S
C1112 C1096 1.368 1_556 S
C1112 C1108 1.368 . S
C1112 C1111 1.523 . S
H1113 C1088 0.950 . S
H1114 C1090 0.950 . S
H1115 C1091 0.949 . S
H1116 C1093 0.950 . S
H1117 C1095 0.950 . S
C1118 C1119 1.349 . S
C1118 C1120 1.327 . S
C1118 H1143 0.950 . S
C1119 C1118 1.349 . S
C1119 C1135 1.349 . S
C1120 C1118 1.327 . S
C1120 C1139 1.429 . S
C1120 H1144 0.950 . S
C1121 C1138 1.574 . S
C1121 C1140 1.368 . S
C1121 H1145 0.949 . S
H1122 C1126 0.949 . S
C1123 C1124 1.349 . S
C1123 C1125 1.327 . S
C1123 H1146 0.950 . S
C1124 C1123 1.349 . S
C1124 C1136 1.349 . S
C1125 C1123 1.327 . S
C1125 C1141 1.429 . S
C1125 H1147 0.950 . S
C1126 H1122 0.949 . S
C1126 C1134 1.574 . S
C1126 C1142 1.368 . S
H1127 C1135 0.950 . S
H1128 C1133 0.950 . S
H1129 C1134 0.949 . S
H1130 C1136 0.950 . S
H1131 C1137 0.950 . S
H1132 C1138 0.949 . S
C1133 H1128 0.950 . S
C1133 C1135 1.327 . S
C1133 C1139 1.429 . S
C1134 C1126 1.574 . S
C1134 H1129 0.949 . S
C1134 C1140 1.368 . S
C1135 C1119 1.349 . S
C1135 H1127 0.950 . S
C1135 C1133 1.327 . S
C1136 C1124 1.349 . S
C1136 H1130 0.950 . S
C1136 C1137 1.327 . S
C1137 H1131 0.950 . S
C1137 C1136 1.327 . S
C1137 C1141 1.429 . S
C1138 C1121 1.574 . S
C1138 H1132 0.949 . S
C1138 C1142 1.368 . S
C1139 C1120 1.429 . S
C1139 C1133 1.429 . S
C1139 C1140 1.523 . S
C1140 C1121 1.368 . S
C1140 C1134 1.368 . S
C1140 C1139 1.523 . S
C1141 C1125 1.429 . S
C1141 C1137 1.429 . S
C1141 C1142 1.523 . S
C1142 C1126 1.368 . S
C1142 C1138 1.368 . S
C1142 C1141 1.523 . S
H1143 C1118 0.950 . S
H1144 C1120 0.950 . S
H1145 C1121 0.949 . S
H1146 C1123 0.950 . S
H1147 C1125 0.950 . S
C1148 C1149 1.349 . S
C1148 C1150 1.327 . S
C1148 H1173 0.950 . S
C1149 C1148 1.349 . S
C1149 C1165 1.349 . S
C1150 C1148 1.327 . S
C1150 C1169 1.429 . S
C1150 H1174 0.950 . S
C1151 C1168 1.574 1_455 S
C1151 C1170 1.368 . S
C1151 H1175 0.949 . S
H1152 C1156 0.949 . S
C1153 C1154 1.349 . S
C1153 C1155 1.327 . S
C1153 H1176 0.950 . S
C1154 C1153 1.349 . S
C1154 C1166 1.349 . S
C1155 C1153 1.327 . S
C1155 C1171 1.429 . S
C1155 H1177 0.950 . S
C1156 H1152 0.949 . S
C1156 C1164 1.574 1_655 S
C1156 C1172 1.368 . S
H1157 C1165 0.950 . S
H1158 C1163 0.950 . S
H1159 C1164 0.949 . S
H1160 C1166 0.950 . S
H1161 C1167 0.950 . S
H1162 C1168 0.949 . S
C1163 H1158 0.950 . S
C1163 C1165 1.327 . S
C1163 C1169 1.429 . S
C1164 C1156 1.574 1_455 S
C1164 H1159 0.949 . S
C1164 C1170 1.368 . S
C1165 C1149 1.349 . S
C1165 H1157 0.950 . S
C1165 C1163 1.327 . S
C1166 C1154 1.349 . S
C1166 H1160 0.950 . S
C1166 C1167 1.327 . S
C1167 H1161 0.950 . S
C1167 C1166 1.327 . S
C1167 C1171 1.429 . S
C1168 C1151 1.574 1_655 S
C1168 H1162 0.949 . S
C1168 C1172 1.368 . S
C1169 C1150 1.429 . S
C1169 C1163 1.429 . S
C1169 C1170 1.523 . S
C1170 C1151 1.368 . S
C1170 C1164 1.368 . S
C1170 C1169 1.523 . S
C1171 C1155 1.429 . S
C1171 C1167 1.429 . S
C1171 C1172 1.523 . S
C1172 C1156 1.368 . S
C1172 C1168 1.368 . S
C1172 C1171 1.523 . S
H1173 C1148 0.950 . S
H1174 C1150 0.950 . S
H1175 C1151 0.949 . S
H1176 C1153 0.950 . S
H1177 C1155 0.950 . S
C1178 C1179 1.349 . S
C1178 C1180 1.327 . S
C1178 H1203 0.950 . S
C1179 C1178 1.349 . S
C1179 C1195 1.349 . S
C1180 C1178 1.327 . S
C1180 C1199 1.429 . S
C1180 H1204 0.950 . S
C1181 C1198 1.574 . S
C1181 C1200 1.368 1_655 S
C1181 H1205 0.949 . S
H1182 C1186 0.949 . S
C1183 C1184 1.349 . S
C1183 C1185 1.327 . S
C1183 H1206 0.950 . S
C1184 C1183 1.349 . S
C1184 C1196 1.349 . S
C1185 C1183 1.327 . S
C1185 C1201 1.429 . S
C1185 H1207 0.950 . S
C1186 H1182 0.949 . S
C1186 C1194 1.574 . S
C1186 C1202 1.368 1_455 S
H1187 C1195 0.950 . S
H1188 C1193 0.950 . S
H1189 C1194 0.949 . S
H1190 C1196 0.950 . S
H1191 C1197 0.950 . S
H1192 C1198 0.949 . S
C1193 H1188 0.950 . S
C1193 C1195 1.327 . S
C1193 C1199 1.429 . S
C1194 C1186 1.574 . S
C1194 H1189 0.949 . S
C1194 C1200 1.368 . S
C1195 C1179 1.349 . S
C1195 H1187 0.950 . S
C1195 C1193 1.327 . S
C1196 C1184 1.349 . S
C1196 H1190 0.950 . S
C1196 C1197 1.327 . S
C1197 H1191 0.950 . S
C1197 C1196 1.327 . S
C1197 C1201 1.429 . S
C1198 C1181 1.574 . S
C1198 H1192 0.949 . S
C1198 C1202 1.368 . S
C1199 C1180 1.429 . S
C1199 C1193 1.429 . S
C1199 C1200 1.523 . S
C1200 C1181 1.368 1_455 S
C1200 C1194 1.368 . S
C1200 C1199 1.523 . S
C1201 C1185 1.429 . S
C1201 C1197 1.429 . S
C1201 C1202 1.523 . S
C1202 C1186 1.368 1_655 S
C1202 C1198 1.368 . S
C1202 C1201 1.523 . S
H1203 C1178 0.950 . S
H1204 C1180 0.950 . S
H1205 C1181 0.949 . S
H1206 C1183 0.950 . S
H1207 C1185 0.950 . S
C1208 C1209 1.349 1_556 S
C1208 C1210 1.327 . S
C1208 H1233 0.950 . S
C1209 C1208 1.349 1_554 S
C1209 C1225 1.349 . S
C1210 C1208 1.327 . S
C1210 C1229 1.429 1_556 S
C1210 H1234 0.950 . S
C1211 C1228 1.574 . S
C1211 C1230 1.368 . S
C1211 H1235 0.949 . S
H1212 C1216 0.949 . S
C1213 C1214 1.349 . S
C1213 C1215 1.327 . S
C1213 H1236 0.950 . S
C1214 C1213 1.349 . S
C1214 C1226 1.349 1_554 S
C1215 C1213 1.327 . S
C1215 C1231 1.429 . S
C1215 H1237 0.950 . S
C1216 H1212 0.949 . S
C1216 C1224 1.574 . S
C1216 C1232 1.368 1_556 S
H1217 C1225 0.950 . S
H1218 C1223 0.950 . S
H1219 C1224 0.949 . S
H1220 C1226 0.950 . S
H1221 C1227 0.950 . S
H1222 C1228 0.949 . S
C1223 H1218 0.950 . S
C1223 C1225 1.327 . S
C1223 C1229 1.429 . S
C1224 C1216 1.574 . S
C1224 H1219 0.949 . S
C1224 C1230 1.368 1_556 S
C1225 C1209 1.349 . S
C1225 H1217 0.950 . S
C1225 C1223 1.327 . S
C1226 C1214 1.349 1_556 S
C1226 H1220 0.950 . S
C1226 C1227 1.327 . S
C1227 H1221 0.950 . S
C1227 C1226 1.327 . S
C1227 C1231 1.429 1_556 S
C1228 C1211 1.574 . S
C1228 H1222 0.949 . S
C1228 C1232 1.368 . S
C1229 C1210 1.429 1_554 S
C1229 C1223 1.429 . S
C1229 C1230 1.523 . S
C1230 C1211 1.368 . S
C1230 C1224 1.368 1_554 S
C1230 C1229 1.523 . S
C1231 C1215 1.429 . S
C1231 C1227 1.429 1_554 S
C1231 C1232 1.523 . S
C1232 C1216 1.368 1_554 S
C1232 C1228 1.368 . S
C1232 C1231 1.523 . S
H1233 C1208 0.950 . S
H1234 C1210 0.950 . S
H1235 C1211 0.949 . S
H1236 C1213 0.950 . S
H1237 C1215 0.950 . S
C1238 C1239 1.349 . S
C1238 C1240 1.327 . S
C1238 H1263 0.950 . S
C1239 C1238 1.349 . S
C1239 C1255 1.349 . S
C1240 C1238 1.327 . S
C1240 C1259 1.429 . S
C1240 H1264 0.950 . S
C1241 C1258 1.574 . S
C1241 C1260 1.368 . S
C1241 H1265 0.949 . S
H1242 C1246 0.949 . S
C1243 C1244 1.349 . S
C1243 C1245 1.327 . S
C1243 H1266 0.950 . S
C1244 C1243 1.349 . S
C1244 C1256 1.349 . S
C1245 C1243 1.327 . S
C1245 C1261 1.429 . S
C1245 H1267 0.950 . S
C1246 H1242 0.949 . S
C1246 C1254 1.574 . S
C1246 C1262 1.368 . S
H1247 C1255 0.950 . S
H1248 C1253 0.950 . S
H1249 C1254 0.949 . S
H1250 C1256 0.950 . S
H1251 C1257 0.950 . S
H1252 C1258 0.949 . S
C1253 H1248 0.950 . S
C1253 C1255 1.327 . S
C1253 C1259 1.429 . S
C1254 C1246 1.574 . S
C1254 H1249 0.949 . S
C1254 C1260 1.368 . S
C1255 C1239 1.349 . S
C1255 H1247 0.950 . S
C1255 C1253 1.327 . S
C1256 C1244 1.349 . S
C1256 H1250 0.950 . S
C1256 C1257 1.327 . S
C1257 H1251 0.950 . S
C1257 C1256 1.327 . S
C1257 C1261 1.429 . S
C1258 C1241 1.574 . S
C1258 H1252 0.949 . S
C1258 C1262 1.368 . S
C1259 C1240 1.429 . S
C1259 C1253 1.429 . S
C1259 C1260 1.523 . S
C1260 C1241 1.368 . S
C1260 C1254 1.368 . S
C1260 C1259 1.523 . S
C1261 C1245 1.429 . S
C1261 C1257 1.429 . S
C1261 C1262 1.523 . S
C1262 C1246 1.368 . S
C1262 C1258 1.368 . S
C1262 C1261 1.523 . S
H1263 C1238 0.950 . S
H1264 C1240 0.950 . S
H1265 C1241 0.949 . S
H1266 C1243 0.950 . S
H1267 C1245 0.950 . S
C1268 C1269 1.349 . S
C1268 C1270 1.327 . S
C1268 H1293 0.950 . S
C1269 C1268 1.349 . S
C1269 C1285 1.349 . S
C1270 C1268 1.327 . S
C1270 C1289 1.429 . S
C1270 H1294 0.950 . S
C1271 C1288 1.574 1_455 S
C1271 C1290 1.368 . S
C1271 H1295 0.949 . S
H1272 C1276 0.949 . S
C1273 C1274 1.349 . S
C1273 C1275 1.327 . S
C1273 H1296 0.950 . S
C1274 C1273 1.349 . S
C1274 C1286 1.349 . S
C1275 C1273 1.327 . S
C1275 C1291 1.429 . S
C1275 H1297 0.950 . S
C1276 H1272 0.949 . S
C1276 C1284 1.574 1_655 S
C1276 C1292 1.368 . S
H1277 C1285 0.950 . S
H1278 C1283 0.950 . S
H1279 C1284 0.949 . S
H1280 C1286 0.950 . S
H1281 C1287 0.950 . S
H1282 C1288 0.949 . S
C1283 H1278 0.950 . S
C1283 C1285 1.327 . S
C1283 C1289 1.429 . S
C1284 C1276 1.574 1_455 S
C1284 H1279 0.949 . S
C1284 C1290 1.368 . S
C1285 C1269 1.349 . S
C1285 H1277 0.950 . S
C1285 C1283 1.327 . S
C1286 C1274 1.349 . S
C1286 H1280 0.950 . S
C1286 C1287 1.327 . S
C1287 H1281 0.950 . S
C1287 C1286 1.327 . S
C1287 C1291 1.429 . S
C1288 C1271 1.574 1_655 S
C1288 H1282 0.949 . S
C1288 C1292 1.368 . S
C1289 C1270 1.429 . S
C1289 C1283 1.429 . S
C1289 C1290 1.523 . S
C1290 C1271 1.368 . S
C1290 C1284 1.368 . S
C1290 C1289 1.523 . S
C1291 C1275 1.429 . S
C1291 C1287 1.429 . S
C1291 C1292 1.523 . S
C1292 C1276 1.368 . S
C1292 C1288 1.368 . S
C1292 C1291 1.523 . S
H1293 C1268 0.950 . S
H1294 C1270 0.950 . S
H1295 C1271 0.949 . S
H1296 C1273 0.950 . S
H1297 C1275 0.950 . S
C1298 C1299 1.349 . S
C1298 C1300 1.327 . S
C1298 H1323 0.950 . S
C1299 C1298 1.349 . S
C1299 C1315 1.349 . S
C1300 C1298 1.327 . S
C1300 C1319 1.429 . S
C1300 H1324 0.950 . S
C1301 C1318 1.574 . S
C1301 C1320 1.368 . S
C1301 H1325 0.949 . S
H1302 C1306 0.949 . S
C1303 C1304 1.349 . S
C1303 C1305 1.327 . S
C1303 H1326 0.950 . S
C1304 C1303 1.349 . S
C1304 C1316 1.349 . S
C1305 C1303 1.327 . S
C1305 C1321 1.429 . S
C1305 H1327 0.950 . S
C1306 H1302 0.949 . S
C1306 C1314 1.574 . S
C1306 C1322 1.368 . S
H1307 C1315 0.950 . S
H1308 C1313 0.950 . S
H1309 C1314 0.949 . S
H1310 C1316 0.950 . S
H1311 C1317 0.950 . S
H1312 C1318 0.949 . S
C1313 H1308 0.950 . S
C1313 C1315 1.327 . S
C1313 C1319 1.429 . S
C1314 C1306 1.574 . S
C1314 H1309 0.949 . S
C1314 C1320 1.368 1_455 S
C1315 C1299 1.349 . S
C1315 H1307 0.950 . S
C1315 C1313 1.327 . S
C1316 C1304 1.349 . S
C1316 H1310 0.950 . S
C1316 C1317 1.327 . S
C1317 H1311 0.950 . S
C1317 C1316 1.327 . S
C1317 C1321 1.429 . S
C1318 C1301 1.574 . S
C1318 H1312 0.949 . S
C1318 C1322 1.368 1_655 S
C1319 C1300 1.429 . S
C1319 C1313 1.429 . S
C1319 C1320 1.523 . S
C1320 C1301 1.368 . S
C1320 C1314 1.368 1_655 S
C1320 C1319 1.523 . S
C1321 C1305 1.429 . S
C1321 C1317 1.429 . S
C1321 C1322 1.523 . S
C1322 C1306 1.368 . S
C1322 C1318 1.368 1_455 S
C1322 C1321 1.523 . S
H1323 C1298 0.950 . S
H1324 C1300 0.950 . S
H1325 C1301 0.949 . S
H1326 C1303 0.950 . S
H1327 C1305 0.950 . S
C369 C108 2.634 . S
C374 C16 2.633 . S
C399 C315 2.669 . S
C404 N35 2.606 . S
C429 C62 2.698 . S
C434 C154 2.700 . S
C459 C361 2.669 . S
C464 N81 2.606 . S
C489 N219 2.606 . S
C494 C131 2.669 . S
C519 N265 2.606 . S
C524 C177 2.669 . S
C549 C200 2.698 . S
C554 C292 2.700 . S
C579 C338 2.634 . S
C584 C246 2.633 . S
C609 N173 1.706 . S
C614 C7 1.699 . S
C639 N288 1.799 . S
C644 N25 1.791 . S
C669 C53 1.729 . S
C674 N127 1.742 . S
C699 N71 1.793 . S
C704 N334 1.803 . S
C729 C85 2.098 . S
C734 C99 2.096 . S
C759 C122 2.051 . S
C764 N196 2.080 . S
C789 C145 2.123 . S
C794 C39 2.130 . S
C819 C168 2.054 . S
C824 N242 2.084 . S
C849 C191 1.729 . S
C854 N357 1.742 . S
C879 N104 1.804 . S
C884 N209 1.792 1_565 S
C909 N311 1.706 . S
C914 C237 1.699 . S
C939 N255 1.791 1_545 S
C944 N150 1.799 . S
C969 C269 2.129 1_545 S
C974 C283 2.123 . S
C999 C306 2.054 1_545 S
C1004 N12 2.084 . S
C1029 C329 2.096 . S
C1034 C223 2.097 1_565 S
C1059 N58 2.080 . S
C1064 C352 2.051 1_565 S
C1089 N2 0.533 . S
C1094 N232 0.533 . S
C1119 C260 0.624 . S
C1124 C30 0.624 . S
C1149 N48 0.542 . S
C1154 N186 0.542 . S
C1179 C214 0.619 . S
C1184 C76 0.619 . S
C1209 N324 0.414 . S
C1214 N94 0.414 . S
C1239 N347 0.447 . S
C1244 N117 0.447 . S
C1269 N278 0.408 . S
C1274 N140 0.408 . S
C1299 N301 0.448 . S
C1304 N163 0.449 . S
