# Generated by pormake.
# Topology afi, (4)-cn, num edge types: 1
# Building blocks:
#     Node 0, Type 0, BuildingBlock: GALJAG_clean_sbu_0, # of connection points: 4
#     Node 1, Type 0, BuildingBlock: GALJAG_clean_sbu_0, # of connection points: 4
#     Node 2, Type 0, BuildingBlock: GALJAG_clean_sbu_0, # of connection points: 4
#     Node 3, Type 0, BuildingBlock: GALJAG_clean_sbu_0, # of connection points: 4
#     Node 4, Type 0, BuildingBlock: GALJAG_clean_sbu_0, # of connection points: 4
#     Node 5, Type 0, BuildingBlock: GALJAG_clean_sbu_0, # of connection points: 4
#     Node 6, Type 0, BuildingBlock: GALJAG_clean_sbu_0, # of connection points: 4
#     Node 7, Type 0, BuildingBlock: GALJAG_clean_sbu_0, # of connection points: 4
#     Node 8, Type 0, BuildingBlock: GALJAG_clean_sbu_0, # of connection points: 4
#     Node 9, Type 0, BuildingBlock: GALJAG_clean_sbu_0, # of connection points: 4
#     Node 10, Type 0, BuildingBlock: GALJAG_clean_sbu_0, # of connection points: 4
#     Node 11, Type 0, BuildingBlock: GALJAG_clean_sbu_0, # of connection points: 4
#     Node 12, Type 0, BuildingBlock: GALJAG_clean_sbu_0, # of connection points: 4
#     Node 13, Type 0, BuildingBlock: GALJAG_clean_sbu_0, # of connection points: 4
#     Node 14, Type 0, BuildingBlock: GALJAG_clean_sbu_0, # of connection points: 4
#     Node 15, Type 0, BuildingBlock: GALJAG_clean_sbu_0, # of connection points: 4
#     Node 16, Type 0, BuildingBlock: GALJAG_clean_sbu_0, # of connection points: 4
#     Node 17, Type 0, BuildingBlock: GALJAG_clean_sbu_0, # of connection points: 4
#     Node 18, Type 0, BuildingBlock: GALJAG_clean_sbu_0, # of connection points: 4
#     Node 19, Type 0, BuildingBlock: GALJAG_clean_sbu_0, # of connection points: 4
#     Node 20, Type 0, BuildingBlock: GALJAG_clean_sbu_0, # of connection points: 4
#     Node 21, Type 0, BuildingBlock: GALJAG_clean_sbu_0, # of connection points: 4
#     Node 22, Type 0, BuildingBlock: GALJAG_clean_sbu_0, # of connection points: 4
#     Node 23, Type 0, BuildingBlock: GALJAG_clean_sbu_0, # of connection points: 4
#     Edge 24, Type (0, 0), BuildingBlock: MIFKUJ_clean_linker_0, # of connection points: 2
#     Edge 25, Type (0, 0), BuildingBlock: MIFKUJ_clean_linker_0, # of connection points: 2
#     Edge 26, Type (0, 0), BuildingBlock: MIFKUJ_clean_linker_0, # of connection points: 2
#     Edge 27, Type (0, 0), BuildingBlock: MIFKUJ_clean_linker_0, # of connection points: 2
#     Edge 28, Type (0, 0), BuildingBlock: MIFKUJ_clean_linker_0, # of connection points: 2
#     Edge 29, Type (0, 0), BuildingBlock: MIFKUJ_clean_linker_0, # of connection points: 2
#     Edge 30, Type (0, 0), BuildingBlock: MIFKUJ_clean_linker_0, # of connection points: 2
#     Edge 31, Type (0, 0), BuildingBlock: MIFKUJ_clean_linker_0, # of connection points: 2
#     Edge 32, Type (0, 0), BuildingBlock: MIFKUJ_clean_linker_0, # of connection points: 2
#     Edge 33, Type (0, 0), BuildingBlock: MIFKUJ_clean_linker_0, # of connection points: 2
#     Edge 34, Type (0, 0), BuildingBlock: MIFKUJ_clean_linker_0, # of connection points: 2
#     Edge 35, Type (0, 0), BuildingBlock: MIFKUJ_clean_linker_0, # of connection points: 2
#     Edge 36, Type (0, 0), BuildingBlock: MIFKUJ_clean_linker_0, # of connection points: 2
#     Edge 37, Type (0, 0), BuildingBlock: MIFKUJ_clean_linker_0, # of connection points: 2
#     Edge 38, Type (0, 0), BuildingBlock: MIFKUJ_clean_linker_0, # of connection points: 2
#     Edge 39, Type (0, 0), BuildingBlock: MIFKUJ_clean_linker_0, # of connection points: 2
#     Edge 40, Type (0, 0), BuildingBlock: MIFKUJ_clean_linker_0, # of connection points: 2
#     Edge 41, Type (0, 0), BuildingBlock: MIFKUJ_clean_linker_0, # of connection points: 2
#     Edge 42, Type (0, 0), BuildingBlock: MIFKUJ_clean_linker_0, # of connection points: 2
#     Edge 43, Type (0, 0), BuildingBlock: MIFKUJ_clean_linker_0, # of connection points: 2
#     Edge 44, Type (0, 0), BuildingBlock: MIFKUJ_clean_linker_0, # of connection points: 2
#     Edge 45, Type (0, 0), BuildingBlock: MIFKUJ_clean_linker_0, # of connection points: 2
#     Edge 46, Type (0, 0), BuildingBlock: MIFKUJ_clean_linker_0, # of connection points: 2
#     Edge 47, Type (0, 0), BuildingBlock: MIFKUJ_clean_linker_0, # of connection points: 2
#     Edge 48, Type (0, 0), BuildingBlock: MIFKUJ_clean_linker_0, # of connection points: 2
#     Edge 49, Type (0, 0), BuildingBlock: MIFKUJ_clean_linker_0, # of connection points: 2
#     Edge 50, Type (0, 0), BuildingBlock: MIFKUJ_clean_linker_0, # of connection points: 2
#     Edge 51, Type (0, 0), BuildingBlock: MIFKUJ_clean_linker_0, # of connection points: 2
#     Edge 52, Type (0, 0), BuildingBlock: MIFKUJ_clean_linker_0, # of connection points: 2
#     Edge 53, Type (0, 0), BuildingBlock: MIFKUJ_clean_linker_0, # of connection points: 2
#     Edge 54, Type (0, 0), BuildingBlock: MIFKUJ_clean_linker_0, # of connection points: 2
#     Edge 55, Type (0, 0), BuildingBlock: MIFKUJ_clean_linker_0, # of connection points: 2
#     Edge 56, Type (0, 0), BuildingBlock: MIFKUJ_clean_linker_0, # of connection points: 2
#     Edge 57, Type (0, 0), BuildingBlock: MIFKUJ_clean_linker_0, # of connection points: 2
#     Edge 58, Type (0, 0), BuildingBlock: MIFKUJ_clean_linker_0, # of connection points: 2
#     Edge 59, Type (0, 0), BuildingBlock: MIFKUJ_clean_linker_0, # of connection points: 2
#     Edge 60, Type (0, 0), BuildingBlock: MIFKUJ_clean_linker_0, # of connection points: 2
#     Edge 61, Type (0, 0), BuildingBlock: MIFKUJ_clean_linker_0, # of connection points: 2
#     Edge 62, Type (0, 0), BuildingBlock: MIFKUJ_clean_linker_0, # of connection points: 2
#     Edge 63, Type (0, 0), BuildingBlock: MIFKUJ_clean_linker_0, # of connection points: 2
#     Edge 64, Type (0, 0), BuildingBlock: MIFKUJ_clean_linker_0, # of connection points: 2
#     Edge 65, Type (0, 0), BuildingBlock: MIFKUJ_clean_linker_0, # of connection points: 2
#     Edge 66, Type (0, 0), BuildingBlock: MIFKUJ_clean_linker_0, # of connection points: 2
#     Edge 67, Type (0, 0), BuildingBlock: MIFKUJ_clean_linker_0, # of connection points: 2
#     Edge 68, Type (0, 0), BuildingBlock: MIFKUJ_clean_linker_0, # of connection points: 2
#     Edge 69, Type (0, 0), BuildingBlock: MIFKUJ_clean_linker_0, # of connection points: 2
#     Edge 70, Type (0, 0), BuildingBlock: MIFKUJ_clean_linker_0, # of connection points: 2
#     Edge 71, Type (0, 0), BuildingBlock: MIFKUJ_clean_linker_0, # of connection points: 2
# Relax obj value: 0.135
# Max RMSD: 0.138
# Mean RMSD: 0.138
data_MOF--net-afi--node1-GALJAG_clean_sbu_0--edge1-MIFKUJ_clean_linker_0
_symmetry_space_group_name_H-M    P1
_symmetry_Int_Tables_number       1
_symmetry_cell_setting            triclinic
loop_
_symmetry_equiv_pos_as_xyz
'x, y, z'
_cell_length_a     88.414751
_cell_length_b     88.423819
_cell_length_c     52.013025
_cell_angle_alpha  90.01756
_cell_angle_beta   89.990948
_cell_angle_gamma 120.0063
loop_
_atom_site_label
_atom_site_type_symbol
_atom_site_fract_x
_atom_site_fract_y
_atom_site_fract_z
_atom_type_partial_charge
In0 In 0.45722 0.12145 0.188 0.0
O1 O 0.46372 0.11536 0.14829 0.0
O2 O 0.4478 0.12706 0.15008 0.0
C3 C 0.4881 0.12543 0.20428 0.0
C4 C 0.45467 0.14909 0.20515 0.0
C5 C 0.43278 0.08943 0.20524 0.0
O6 O 0.48643 0.13123 0.18295 0.0
O7 O 0.47429 0.11781 0.21742 0.0
O8 O 0.44082 0.10242 0.21987 0.0
O9 O 0.4367 0.09265 0.18181 0.0
C10 C 0.45535 0.12116 0.13609 0.0
O11 O 0.44146 0.13452 0.19996 0.0
O12 O 0.46907 0.14971 0.20162 0.0
In13 In 0.33549 0.45511 0.19157 0.0
O14 O 0.30841 0.43946 0.21028 0.0
O15 O 0.3162 0.46491 0.19667 0.0
C16 C 0.34739 0.4335 0.20605 0.0
C17 C 0.32998 0.45132 0.14026 0.0
C18 C 0.36208 0.48545 0.21013 0.0
O19 O 0.33619 0.43514 0.21895 0.0
O20 O 0.35236 0.44257 0.18584 0.0
O21 O 0.36049 0.48132 0.18671 0.0
O22 O 0.35019 0.47432 0.22438 0.0
C23 C 0.30453 0.45128 0.20743 0.0
O24 O 0.33777 0.46596 0.15129 0.0
O25 O 0.32462 0.43837 0.15517 0.0
In26 In 0.8811 0.33492 0.18951 0.0
O27 O 0.86771 0.33362 0.15118 0.0
O28 O 0.89039 0.33127 0.15014 0.0
C29 C 0.8773 0.36142 0.20764 0.0
C30 C 0.85564 0.30447 0.21018 0.0
C31 C 0.91468 0.34664 0.20325 0.0
O32 O 0.87299 0.35561 0.18501 0.0
O33 O 0.8833 0.35373 0.22111 0.0
O34 O 0.90267 0.33126 0.20816 0.0
O35 O 0.90975 0.3558 0.19128 0.0
C36 C 0.8784 0.33165 0.13759 0.0
O37 O 0.86708 0.30506 0.19512 0.0
O38 O 0.85727 0.31913 0.21514 0.0
In39 In 0.54554 0.88045 0.19122 0.0
O40 O 0.54385 0.89093 0.1519 0.0
O41 O 0.5511 0.87136 0.15302 0.0
C42 C 0.51361 0.8751 0.20471 0.0
C43 C 0.54865 0.853 0.20739 0.0
C44 C 0.56941 0.91198 0.21096 0.0
O45 O 0.51908 0.87797 0.18186 0.0
O46 O 0.5241 0.87464 0.22067 0.0
O47 O 0.55602 0.90107 0.223 0.0
O48 O 0.57115 0.90684 0.18914 0.0
C49 C 0.54802 0.88133 0.13938 0.0
O50 O 0.56113 0.86856 0.20866 0.0
O51 O 0.53477 0.85138 0.19797 0.0
In52 In 0.66771 0.54582 0.1899 0.0
O53 O 0.68971 0.55439 0.21977 0.0
O54 O 0.69252 0.54426 0.18437 0.0
C55 C 0.65555 0.56705 0.20547 0.0
C56 C 0.66976 0.5492 0.13818 0.0
C57 C 0.64363 0.5139 0.20736 0.0
O58 O 0.67156 0.5727 0.20129 0.0
O59 O 0.64587 0.55093 0.20163 0.0
O60 O 0.64425 0.51862 0.18433 0.0
O61 O 0.65535 0.52522 0.2217 0.0
C62 C 0.69897 0.55043 0.20605 0.0
O63 O 0.66355 0.53468 0.14946 0.0
O64 O 0.67497 0.56218 0.153 0.0
In65 In 0.12057 0.66586 0.19122 0.0
O66 O 0.11627 0.65377 0.15137 0.0
O67 O 0.12452 0.68082 0.15358 0.0
C68 C 0.12477 0.63918 0.20783 0.0
C69 C 0.14825 0.69623 0.20783 0.0
C70 C 0.08804 0.65721 0.20749 0.0
O71 O 0.12919 0.64563 0.18561 0.0
O72 O 0.11841 0.64629 0.22175 0.0
O73 O 0.09179 0.65732 0.18411 0.0
O74 O 0.10072 0.66182 0.22262 0.0
C75 C 0.12035 0.66771 0.1394 0.0
O76 O 0.13325 0.69435 0.20484 0.0
O77 O 0.14928 0.68289 0.20239 0.0
In78 In 0.87858 0.54511 0.31222 0.0
O79 O 0.86164 0.54592 0.27955 0.0
O80 O 0.85894 0.55464 0.31633 0.0
C81 C 0.91097 0.56945 0.29594 0.0
C82 C 0.8738 0.54484 0.36345 0.0
C83 C 0.87523 0.51386 0.29905 0.0
O84 O 0.89756 0.56456 0.28224 0.0
O85 O 0.90795 0.56242 0.31776 0.0
O86 O 0.8878 0.52513 0.31214 0.0
O87 O 0.86411 0.51816 0.29292 0.0
C88 C 0.85394 0.55177 0.29325 0.0
O89 O 0.86604 0.53116 0.34993 0.0
O90 O 0.88367 0.55859 0.35104 0.0
In91 In 0.33288 0.87915 0.31002 0.0
O92 O 0.33668 0.87132 0.35014 0.0
O93 O 0.32166 0.88391 0.34691 0.0
C94 C 0.36014 0.87673 0.29129 0.0
C95 C 0.30244 0.85122 0.29419 0.0
C96 C 0.34369 0.91234 0.2949 0.0
O97 O 0.35761 0.87743 0.31502 0.0
O98 O 0.3489 0.87723 0.27693 0.0
O99 O 0.33352 0.89925 0.2815 0.0
O100 O 0.34817 0.90866 0.31593 0.0
C101 C 0.32809 0.87719 0.36153 0.0
O102 O 0.30432 0.86627 0.29649 0.0
O103 O 0.31583 0.85033 0.29981 0.0
In104 In 0.45843 0.334 0.31057 0.0
O105 O 0.46398 0.34659 0.35024 0.0
O106 O 0.44835 0.31892 0.34826 0.0
C107 C 0.49048 0.3597 0.29593 0.0
C108 C 0.45532 0.30327 0.29515 0.0
C109 C 0.43558 0.34334 0.29146 0.0
O110 O 0.48572 0.35701 0.31914 0.0
O111 O 0.47919 0.34932 0.28023 0.0
O112 O 0.44781 0.34383 0.27845 0.0
O113 O 0.4345 0.33768 0.31398 0.0
C114 C 0.45545 0.33237 0.36231 0.0
O115 O 0.44298 0.30649 0.29315 0.0
O116 O 0.46905 0.31542 0.30503 0.0
In117 In 0.12408 0.45605 0.31184 0.0
O118 O 0.1484 0.46418 0.28732 0.0
O119 O 0.13886 0.44085 0.30882 0.0
C120 C 0.09115 0.43426 0.29476 0.0
C121 C 0.12659 0.4552 0.36362 0.0
C122 C 0.12848 0.48692 0.29546 0.0
O123 O 0.10353 0.43137 0.29051 0.0
O124 O 0.09536 0.4478 0.30773 0.0
O125 O 0.12706 0.48284 0.31897 0.0
O126 O 0.12793 0.47552 0.28024 0.0
C127 C 0.15029 0.45146 0.29349 0.0
O128 O 0.13716 0.46808 0.35024 0.0
O129 O 0.11489 0.44266 0.35089 0.0
In130 In 0.66946 0.12324 0.31182 0.0
O131 O 0.69695 0.13502 0.29446 0.0
O132 O 0.6879 0.1523 0.30506 0.0
C133 C 0.65873 0.09001 0.29694 0.0
C134 C 0.67537 0.12632 0.36308 0.0
C135 C 0.64215 0.12575 0.29331 0.0
O136 O 0.66881 0.10304 0.28338 0.0
O137 O 0.65435 0.09379 0.31798 0.0
O138 O 0.64286 0.12131 0.31609 0.0
O139 O 0.65526 0.12901 0.27974 0.0
C140 C 0.70013 0.1506 0.29577 0.0
O141 O 0.667 0.13243 0.3517 0.0
O142 O 0.68098 0.11876 0.34855 0.0
In143 In 0.54639 0.6684 0.31013 0.0
O144 O 0.53555 0.67022 0.34917 0.0
O145 O 0.56149 0.67487 0.3481 0.0
C146 C 0.51552 0.64124 0.2951 0.0
C147 C 0.55011 0.69857 0.29059 0.0
C148 C 0.56756 0.65641 0.29363 0.0
O149 O 0.51948 0.64514 0.31844 0.0
O150 O 0.52709 0.65117 0.27926 0.0
O151 O 0.56976 0.67107 0.28676 0.0
O152 O 0.55498 0.64809 0.30882 0.0
C153 C 0.54918 0.67383 0.36162 0.0
O154 O 0.56239 0.69788 0.30181 0.0
O155 O 0.53618 0.6841 0.28892 0.0
In156 In 0.54565 0.87934 0.81076 0.0
O157 O 0.54221 0.88874 0.84995 0.0
O158 O 0.55088 0.87022 0.84915 0.0
C159 C 0.51462 0.87536 0.79499 0.0
C160 C 0.54831 0.85166 0.79434 0.0
C161 C 0.57087 0.91117 0.79374 0.0
O162 O 0.51779 0.87389 0.81819 0.0
O163 O 0.527 0.87869 0.77979 0.0
O164 O 0.55982 0.89961 0.77905 0.0
O165 O 0.56957 0.90656 0.8169 0.0
C166 C 0.54681 0.87954 0.86264 0.0
O167 O 0.56147 0.86669 0.79708 0.0
O168 O 0.53397 0.85064 0.79998 0.0
In169 In 0.66836 0.54781 0.81043 0.0
O170 O 0.6934 0.56138 0.78596 0.0
O171 O 0.69023 0.54121 0.81114 0.0
C172 C 0.65885 0.57022 0.79066 0.0
C173 C 0.67123 0.5505 0.86216 0.0
C174 C 0.64087 0.5165 0.79716 0.0
O175 O 0.65854 0.55801 0.77771 0.0
O176 O 0.66434 0.57139 0.81335 0.0
O177 O 0.63985 0.52629 0.81387 0.0
O178 O 0.65578 0.52248 0.7871 0.0
C179 C 0.69967 0.55237 0.79464 0.0
O180 O 0.66222 0.53613 0.85069 0.0
O181 O 0.67891 0.56359 0.84753 0.0
In182 In 0.12222 0.66688 0.8112 0.0
O183 O 0.13596 0.68847 0.78094 0.0
O184 O 0.14912 0.69109 0.81616 0.0
C185 C 0.09093 0.65944 0.79082 0.0
C186 C 0.12086 0.6681 0.86302 0.0
C187 C 0.1276 0.64016 0.79916 0.0
O188 O 0.09626 0.66701 0.81216 0.0
O189 O 0.10156 0.65617 0.7795 0.0
O190 O 0.11422 0.63806 0.81097 0.0
O191 O 0.13849 0.65583 0.7937 0.0
C192 C 0.14941 0.69747 0.79439 0.0
O193 O 0.12196 0.65623 0.8512 0.0
O194 O 0.12039 0.67939 0.84871 0.0
In195 In 0.45555 0.1213 0.80742 0.0
O196 O 0.44021 0.13459 0.79423 0.0
O197 O 0.46781 0.14972 0.79433 0.0
C198 C 0.43048 0.08966 0.78997 0.0
C199 C 0.45396 0.12062 0.85937 0.0
C200 C 0.48609 0.12424 0.79156 0.0
O201 O 0.44029 0.10202 0.77522 0.0
O202 O 0.43292 0.09336 0.81356 0.0
O203 O 0.48484 0.13123 0.812 0.0
O204 O 0.47204 0.11596 0.77912 0.0
C205 C 0.45356 0.14921 0.78993 0.0
O206 O 0.46172 0.11432 0.84677 0.0
O207 O 0.44686 0.12717 0.84577 0.0
In208 In 0.3344 0.45491 0.81231 0.0
O209 O 0.31053 0.44345 0.78529 0.0
O210 O 0.31222 0.46104 0.81421 0.0
C211 C 0.34584 0.43346 0.79478 0.0
C212 C 0.3323 0.45143 0.86418 0.0
C213 C 0.35984 0.48626 0.79538 0.0
O214 O 0.33066 0.42764 0.80378 0.0
O215 O 0.35507 0.44986 0.79481 0.0
O216 O 0.35946 0.48087 0.81797 0.0
O217 O 0.34727 0.47586 0.78124 0.0
C218 C 0.30367 0.45146 0.79564 0.0
O219 O 0.33829 0.46591 0.85292 0.0
O220 O 0.32738 0.43853 0.84931 0.0
In221 In 0.8794 0.33468 0.8094 0.0
O222 O 0.86651 0.30532 0.80036 0.0
O223 O 0.85252 0.31825 0.79115 0.0
C224 C 0.91253 0.34547 0.79408 0.0
C225 C 0.87655 0.33036 0.86114 0.0
C226 C 0.87671 0.36182 0.79109 0.0
O227 O 0.89961 0.33165 0.78563 0.0
O228 O 0.90871 0.35365 0.81028 0.0
O229 O 0.87598 0.35837 0.81475 0.0
O230 O 0.87875 0.35152 0.77656 0.0
C231 C 0.85272 0.30412 0.7913 0.0
O232 O 0.86676 0.33395 0.84808 0.0
O233 O 0.88767 0.32873 0.84812 0.0
In234 In 0.12263 0.45567 0.69214 0.0
O235 O 0.13923 0.4423 0.69188 0.0
O236 O 0.14388 0.46044 0.72154 0.0
C237 C 0.08932 0.43246 0.70547 0.0
C238 C 0.12436 0.45586 0.64013 0.0
C239 C 0.12704 0.4863 0.71028 0.0
O240 O 0.10223 0.43191 0.71484 0.0
O241 O 0.09326 0.4445 0.68931 0.0
O242 O 0.13594 0.48554 0.69186 0.0
O243 O 0.11606 0.47168 0.71954 0.0
C244 C 0.14809 0.45015 0.71141 0.0
O245 O 0.13242 0.46954 0.65346 0.0
O246 O 0.11544 0.4421 0.65299 0.0
In247 In 0.66832 0.12091 0.69009 0.0
O248 O 0.66572 0.13052 0.65053 0.0
O249 O 0.67988 0.11701 0.65299 0.0
C250 C 0.64008 0.12219 0.70735 0.0
C251 C 0.69866 0.14854 0.70649 0.0
C252 C 0.65899 0.08831 0.7066 0.0
O253 O 0.64067 0.1164 0.68544 0.0
O254 O 0.65372 0.12734 0.72062 0.0
O255 O 0.66766 0.10169 0.72036 0.0
O256 O 0.65529 0.09143 0.68456 0.0
C257 C 0.6742 0.12466 0.63882 0.0
O258 O 0.69638 0.13328 0.70541 0.0
O259 O 0.6857 0.14979 0.69934 0.0
In260 In 0.54441 0.66674 0.68855 0.0
O261 O 0.53313 0.6663 0.64894 0.0
O262 O 0.56057 0.67713 0.65171 0.0
C263 C 0.51441 0.63889 0.70517 0.0
C264 C 0.54746 0.69695 0.70652 0.0
C265 C 0.56658 0.65569 0.70372 0.0
O266 O 0.51861 0.64157 0.68174 0.0
O267 O 0.52534 0.65027 0.7203 0.0
O268 O 0.56453 0.66672 0.71638 0.0
O269 O 0.55761 0.65041 0.68345 0.0
C270 C 0.54761 0.67325 0.63742 0.0
O271 O 0.56054 0.69517 0.70238 0.0
O272 O 0.53298 0.68355 0.70176 0.0
In273 In 0.87957 0.54685 0.69056 0.0
O274 O 0.85582 0.53937 0.71612 0.0
O275 O 0.86525 0.56242 0.69386 0.0
C276 C 0.91298 0.56923 0.70518 0.0
C277 C 0.87457 0.54721 0.63938 0.0
C278 C 0.87608 0.51599 0.70555 0.0
O279 O 0.90014 0.56959 0.71507 0.0
O280 O 0.90895 0.55786 0.68794 0.0
O281 O 0.87722 0.52042 0.68226 0.0
O282 O 0.87654 0.52706 0.72133 0.0
C283 C 0.85402 0.55212 0.7097 0.0
O284 O 0.86482 0.53432 0.65343 0.0
O285 O 0.88669 0.56 0.65121 0.0
In286 In 0.33397 0.87943 0.68906 0.0
O287 O 0.33659 0.87104 0.6489 0.0
O288 O 0.3242 0.88632 0.65253 0.0
C289 C 0.36006 0.87439 0.70663 0.0
C290 C 0.30352 0.85193 0.70598 0.0
C291 C 0.34372 0.91277 0.70219 0.0
O292 O 0.35847 0.87728 0.68338 0.0
O293 O 0.34838 0.87383 0.72112 0.0
O294 O 0.32916 0.89998 0.70857 0.0
O295 O 0.35316 0.90879 0.68898 0.0
C296 C 0.32939 0.87848 0.63772 0.0
O297 O 0.31333 0.86464 0.72021 0.0
O298 O 0.30899 0.85311 0.68332 0.0
In299 In 0.4579 0.33568 0.69056 0.0
O300 O 0.4424 0.3077 0.70621 0.0
O301 O 0.46958 0.31844 0.69997 0.0
C302 C 0.43498 0.34605 0.70465 0.0
C303 C 0.45497 0.3331 0.6386 0.0
C304 C 0.48806 0.36031 0.71217 0.0
O305 O 0.43475 0.33288 0.71447 0.0
O306 O 0.44652 0.35371 0.68768 0.0
O307 O 0.48739 0.35396 0.69019 0.0
O308 O 0.47355 0.35397 0.72357 0.0
C309 C 0.45542 0.30548 0.70723 0.0
O310 O 0.46612 0.34667 0.65006 0.0
O311 O 0.44518 0.32068 0.65329 0.0
H312 H 0.41144 0.06018 0.17736 0.0
H313 H 0.39393 0.0302 0.19333 0.0
H314 H 0.41027 0.04838 0.27084 0.0
H315 H 0.42764 0.07838 0.25506 0.0
H316 H 0.41522 0.02057 0.25636 0.0
H317 H 0.36986 0.0355 0.25471 0.0
H318 H 0.35159 0.04616 0.23494 0.0
H319 H 0.33308 0.00507 0.17885 0.0
H320 H 0.35144 0.99431 0.19807 0.0
H321 H 0.36296 0.9421 0.32262 0.0
H322 H 0.37593 0.97225 0.30771 0.0
H323 H 0.35343 0.95398 0.23259 0.0
H324 H 0.33999 0.92371 0.24766 0.0
H325 H 0.3513 0.98194 0.24538 0.0
H326 H 0.39647 0.96727 0.24469 0.0
H327 H 0.41515 0.95639 0.26229 0.0
H328 H 0.43474 0.9967 0.3197 0.0
H329 H 0.41597 0.00767 0.30266 0.0
C330 C 0.4111 0.05781 0.19784 0.0
C331 C 0.42091 0.07161 0.21497 0.0
C332 C 0.40108 0.04069 0.20693 0.0
C333 C 0.4008 0.03709 0.23326 0.0
C334 C 0.41032 0.0509 0.25044 0.0
C335 C 0.42017 0.06803 0.24141 0.0
C336 C 0.39141 0.01883 0.24273 0.0
C337 C 0.4012 0.01219 0.25434 0.0
C338 C 0.37323 0.00777 0.23924 0.0
C339 C 0.36217 0.01421 0.22767 0.0
C340 C 0.36202 0.02883 0.23801 0.0
C341 C 0.35162 0.03487 0.22694 0.0
C342 C 0.34122 0.02633 0.20561 0.0
C343 C 0.34116 0.01169 0.19535 0.0
C344 C 0.35155 0.00561 0.20634 0.0
C345 C 0.36066 0.9445 0.30297 0.0
C346 C 0.35056 0.93055 0.28624 0.0
C347 C 0.36815 0.96174 0.29444 0.0
C348 C 0.36594 0.96539 0.26888 0.0
C349 C 0.35537 0.95149 0.25236 0.0
C350 C 0.34773 0.93421 0.26097 0.0
C351 C 0.37509 0.98368 0.25927 0.0
C352 C 0.3653 0.99031 0.24751 0.0
C353 C 0.39335 0.99472 0.26229 0.0
C354 C 0.40468 0.98818 0.27256 0.0
C355 C 0.40466 0.97373 0.2612 0.0
C356 C 0.41528 0.96756 0.27105 0.0
C357 C 0.42609 0.97582 0.29214 0.0
C358 C 0.42633 0.9903 0.30338 0.0
C359 C 0.41572 0.99651 0.29363 0.0
H360 H 0.4343 0.97103 0.29974 0.0
H361 H 0.33317 0.03102 0.19707 0.0
H362 H 0.40851 0.34389 0.3161 0.0
H363 H 0.39174 0.35739 0.30108 0.0
H364 H 0.42075 0.37173 0.22998 0.0
H365 H 0.43759 0.35837 0.24491 0.0
H366 H 0.4197 0.39907 0.25138 0.0
H367 H 0.37856 0.33915 0.23151 0.0
H368 H 0.35995 0.30774 0.24072 0.0
H369 H 0.33176 0.31928 0.29725 0.0
H370 H 0.35037 0.35079 0.28862 0.0
H371 H 0.37112 0.42792 0.18069 0.0
H372 H 0.38437 0.41091 0.19516 0.0
H373 H 0.35365 0.39722 0.26463 0.0
H374 H 0.34011 0.41407 0.25004 0.0
H375 H 0.3551 0.36941 0.24535 0.0
H376 H 0.39589 0.42901 0.26562 0.0
H377 H 0.41445 0.46052 0.25709 0.0
H378 H 0.44345 0.44972 0.201 0.0
H379 H 0.42488 0.41811 0.20892 0.0
C380 C 0.41116 0.34974 0.29715 0.0
C381 C 0.42437 0.35008 0.28168 0.0
C382 C 0.40154 0.35741 0.28857 0.0
C383 C 0.40495 0.36551 0.26436 0.0
C384 C 0.41792 0.36557 0.24873 0.0
C385 C 0.42748 0.35787 0.25725 0.0
C386 C 0.39563 0.3747 0.25578 0.0
C387 C 0.40559 0.39251 0.24971 0.0
C388 C 0.37719 0.36628 0.2544 0.0
C389 C 0.36598 0.34734 0.25961 0.0
C390 C 0.36849 0.335 0.24607 0.0
C391 C 0.35792 0.31718 0.25115 0.0
C392 C 0.34471 0.31152 0.26961 0.0
C393 C 0.34201 0.32368 0.28298 0.0
C394 C 0.35256 0.34152 0.27799 0.0
C395 C 0.3671 0.42122 0.19898 0.0
C396 C 0.35466 0.42242 0.21431 0.0
C397 C 0.37473 0.41154 0.20727 0.0
C398 C 0.3702 0.403 0.23116 0.0
C399 C 0.35738 0.40374 0.24617 0.0
C400 C 0.34969 0.41341 0.23785 0.0
C401 C 0.3792 0.39371 0.24065 0.0
C402 C 0.36921 0.37594 0.247 0.0
C403 C 0.39763 0.40217 0.24243 0.0
C404 C 0.40888 0.42118 0.23769 0.0
C405 C 0.40613 0.43334 0.25132 0.0
C406 C 0.41667 0.45122 0.24662 0.0
C407 C 0.43009 0.45712 0.22847 0.0
C408 C 0.43303 0.44514 0.21503 0.0
C409 C 0.42251 0.42724 0.21963 0.0
H410 H 0.43823 0.47096 0.22486 0.0
H411 H 0.33654 0.29772 0.27351 0.0
H412 H 0.93147 0.3287 0.21601 0.0
H413 H 0.96204 0.34105 0.22922 0.0
H414 H 0.96923 0.39298 0.22365 0.0
H415 H 0.93916 0.38074 0.20907 0.0
H416 H 0.99612 0.39442 0.20556 0.0
H417 H 0.96334 0.36931 0.2831 0.0
H418 H 0.94143 0.34598 0.31077 0.0
H419 H 0.9676 0.31647 0.30133 0.0
H420 H 0.98956 0.33956 0.27334 0.0
H421 H 0.0654 0.44242 0.29238 0.0
H422 H 0.03601 0.42483 0.2748 0.0
H423 H 0.04674 0.38346 0.25725 0.0
H424 H 0.07651 0.40123 0.27445 0.0
H425 H 0.01229 0.37414 0.28433 0.0
H426 H 0.04723 0.4033 0.20935 0.0
H427 H 0.06939 0.42925 0.186 0.0
H428 H 0.03857 0.45401 0.19566 0.0
H429 H 0.0163 0.42826 0.21933 0.0
C430 C 0.93965 0.34274 0.21758 0.0
C431 C 0.93298 0.35377 0.21153 0.0
C432 C 0.95709 0.34981 0.22528 0.0
C433 C 0.96799 0.368 0.22783 0.0
C434 C 0.96122 0.37894 0.22175 0.0
C435 C 0.94398 0.37192 0.21349 0.0
C436 C 0.98643 0.37583 0.23675 0.0
C437 C 0.99954 0.38997 0.22288 0.0
C438 C 0.99115 0.36994 0.2591 0.0
C439 C 0.97796 0.35605 0.27588 0.0
C440 C 0.96434 0.35779 0.28677 0.0
C441 C 0.95193 0.34462 0.30254 0.0
C442 C 0.95309 0.32973 0.30774 0.0
C443 C 0.9667 0.328 0.29724 0.0
C444 C 0.97913 0.34112 0.28144 0.0
C445 C 0.06152 0.42956 0.28487 0.0
C446 C 0.07325 0.4232 0.28474 0.0
C447 C 0.04474 0.41955 0.27482 0.0
C448 C 0.03927 0.4029 0.26471 0.0
C449 C 0.05077 0.39629 0.26501 0.0
C450 C 0.06774 0.40646 0.27473 0.0
C451 C 0.0216 0.39275 0.25339 0.0
C452 C 0.00874 0.37828 0.26682 0.0
C453 C 0.017 0.39858 0.23103 0.0
C454 C 0.03015 0.41389 0.21624 0.0
C455 C 0.04522 0.41431 0.20661 0.0
C456 C 0.05779 0.42898 0.19329 0.0
C457 C 0.0554 0.44328 0.18938 0.0
C458 C 0.0404 0.44291 0.19869 0.0
C459 C 0.02778 0.42828 0.21201 0.0
H460 H 0.06516 0.45462 0.1791 0.0
H461 H 0.94347 0.31955 0.31995 0.0
H462 H 0.59716 0.93904 0.18646 0.0
H463 H 0.6145 0.9693 0.2013 0.0
H464 H 0.5855 0.95539 0.27242 0.0
H465 H 0.56799 0.92526 0.25755 0.0
H466 H 0.58688 0.98352 0.25194 0.0
H467 H 0.62832 0.96479 0.26966 0.0
H468 H 0.64679 0.95198 0.25948 0.0
H469 H 0.6741 0.99158 0.20245 0.0
H470 H 0.65562 0.00449 0.21205 0.0
H471 H 0.63653 0.06039 0.32303 0.0
H472 H 0.62351 0.03022 0.30819 0.0
H473 H 0.65205 0.048 0.23693 0.0
H474 H 0.6653 0.07834 0.25181 0.0
H475 H 0.65156 0.01848 0.25575 0.0
H476 H 0.61032 0.03726 0.23816 0.0
H477 H 0.59195 0.05018 0.24829 0.0
H478 H 0.56414 0.01032 0.30478 0.0
H479 H 0.58254 0.9973 0.29526 0.0
C480 C 0.59465 0.9424 0.2054 0.0
C481 C 0.58119 0.92979 0.22083 0.0
C482 C 0.6046 0.95969 0.21389 0.0
C483 C 0.60135 0.96463 0.23803 0.0
C484 C 0.58822 0.95191 0.25371 0.0
C485 C 0.57826 0.93468 0.24522 0.0
C486 C 0.61086 0.98318 0.24644 0.0
C487 C 0.60101 0.99107 0.25312 0.0
C488 C 0.62933 0.99323 0.24718 0.0
C489 C 0.64046 0.9855 0.24139 0.0
C490 C 0.63816 0.97068 0.2548 0.0
C491 C 0.64866 0.96342 0.24916 0.0
C492 C 0.66158 0.97093 0.23028 0.0
C493 C 0.66407 0.98576 0.21704 0.0
C494 C 0.6536 0.99306 0.22259 0.0
C495 C 0.64015 0.0579 0.30427 0.0
C496 C 0.65185 0.07174 0.2885 0.0
C497 C 0.63266 0.04065 0.29579 0.0
C498 C 0.63663 0.03688 0.27131 0.0
C499 C 0.64878 0.05063 0.25586 0.0
C500 C 0.65629 0.06794 0.26435 0.0
C501 C 0.62753 0.01864 0.26162 0.0
C502 C 0.63742 0.01088 0.25457 0.0
C503 C 0.60908 0.00866 0.26048 0.0
C504 C 0.59792 0.0164 0.26616 0.0
C505 C 0.60038 0.03132 0.25288 0.0
C506 C 0.58995 0.03865 0.2585 0.0
C507 C 0.57691 0.0311 0.27721 0.0
C508 C 0.57426 0.01617 0.29031 0.0
C509 C 0.58468 0.0088 0.2848 0.0
H510 H 0.56884 0.03679 0.28153 0.0
H511 H 0.66969 0.96529 0.22595 0.0
H512 H 0.56 0.6227 0.29608 0.0
H513 H 0.57769 0.61038 0.2813 0.0
H514 H 0.61783 0.66144 0.25638 0.0
H515 H 0.59965 0.67375 0.27021 0.0
H516 H 0.61458 0.63859 0.22226 0.0
H517 H 0.62183 0.64175 0.31297 0.0
H518 H 0.6129 0.63781 0.35851 0.0
H519 H 0.58458 0.58217 0.3483 0.0
H520 H 0.59314 0.58577 0.3026 0.0
H521 H 0.67234 0.60283 0.20821 0.0
H522 H 0.66019 0.62088 0.22345 0.0
H523 H 0.61094 0.57434 0.23864 0.0
H524 H 0.62285 0.55633 0.22326 0.0
H525 H 0.62325 0.59868 0.27952 0.0
H526 H 0.61468 0.59699 0.18696 0.0
H527 H 0.62486 0.60189 0.14197 0.0
H528 H 0.65807 0.65657 0.15735 0.0
H529 H 0.64826 0.65195 0.20255 0.0
C530 C 0.57261 0.63133 0.2875 0.0
C531 C 0.57852 0.64922 0.28449 0.0
C532 C 0.58279 0.62429 0.27918 0.0
C533 C 0.59934 0.63503 0.2683 0.0
C534 C 0.60517 0.6529 0.26488 0.0
C535 C 0.59481 0.65992 0.27282 0.0
C536 C 0.61027 0.6274 0.26025 0.0
C537 C 0.61677 0.63015 0.23499 0.0
C538 C 0.61313 0.6163 0.27674 0.0
C539 C 0.60805 0.61405 0.3043 0.0
C540 C 0.61362 0.62868 0.32039 0.0
C541 C 0.60863 0.6265 0.34624 0.0
C542 C 0.59816 0.60975 0.35628 0.0
C543 C 0.59269 0.59514 0.3405 0.0
C544 C 0.59763 0.59724 0.31463 0.0
C545 C 0.65892 0.59649 0.21478 0.0
C546 C 0.64853 0.57818 0.21452 0.0
C547 C 0.652 0.6068 0.22342 0.0
C548 C 0.63466 0.59892 0.23212 0.0
C549 C 0.62436 0.58066 0.23204 0.0
C550 C 0.63117 0.5704 0.22317 0.0
C551 C 0.62706 0.60953 0.24148 0.0
C552 C 0.62126 0.60735 0.26701 0.0
C553 C 0.62509 0.62132 0.22538 0.0
C554 C 0.6309 0.62409 0.19819 0.0
C555 C 0.62427 0.61003 0.1808 0.0
C556 C 0.62995 0.61276 0.15526 0.0
C557 C 0.64214 0.62952 0.14683 0.0
C558 C 0.64865 0.64359 0.16392 0.0
C559 C 0.64303 0.64093 0.18949 0.0
H560 H 0.64652 0.6316 0.12704 0.0
H561 H 0.59431 0.6081 0.3763 0.0
H562 H 0.05959 0.65083 0.17871 0.0
H563 H 0.02929 0.63826 0.19336 0.0
H564 H 0.04542 0.63639 0.27098 0.0
H565 H 0.07574 0.64915 0.25656 0.0
H566 H 0.01719 0.60445 0.25293 0.0
H567 H 0.03445 0.66543 0.25763 0.0
H568 H 0.04643 0.6953 0.24068 0.0
H569 H 0.00625 0.67647 0.18312 0.0
H570 H 0.99417 0.64643 0.19951 0.0
H571 H 0.94119 0.58112 0.32272 0.0
H572 H 0.97101 0.59818 0.30659 0.0
H573 H 0.95137 0.60153 0.23217 0.0
H574 H 0.92132 0.58448 0.24833 0.0
H575 H 0.98086 0.63261 0.2463 0.0
H576 H 0.96319 0.57233 0.24041 0.0
H577 H 0.95062 0.54203 0.25569 0.0
H578 H 0.99116 0.5586 0.31239 0.0
H579 H 0.00378 0.58911 0.29778 0.0
C580 C 0.05669 0.64793 0.19894 0.0
C581 C 0.07001 0.65096 0.21651 0.0
C582 C 0.0394 0.64078 0.20728 0.0
C583 C 0.03515 0.63642 0.23324 0.0
C584 C 0.04846 0.63967 0.25086 0.0
C585 C 0.06577 0.64702 0.24261 0.0
C586 C 0.01671 0.62767 0.24188 0.0
C587 C 0.00932 0.61069 0.25182 0.0
C588 C 0.00629 0.6356 0.23949 0.0
C589 C 0.01353 0.65365 0.22962 0.0
C590 C 0.02827 0.66763 0.2412 0.0
C591 C 0.03506 0.6846 0.23173 0.0
C592 C 0.02714 0.68778 0.21078 0.0
C593 C 0.01239 0.67399 0.19931 0.0
C594 C 0.00556 0.65699 0.2087 0.0
C595 C 0.94319 0.58564 0.303 0.0
C596 C 0.92892 0.58134 0.28671 0.0
C597 C 0.96025 0.59536 0.29379 0.0
C598 C 0.96339 0.60089 0.26808 0.0
C599 C 0.94921 0.59734 0.25206 0.0
C600 C 0.93207 0.58757 0.26129 0.0
C601 C 0.98145 0.60952 0.25779 0.0
C602 C 0.98874 0.62638 0.24742 0.0
C603 C 0.99176 0.60141 0.25943 0.0
C604 C 0.98433 0.58305 0.26816 0.0
C605 C 0.96935 0.56955 0.25628 0.0
C606 C 0.96222 0.55232 0.2648 0.0
C607 C 0.97007 0.54839 0.28503 0.0
C608 C 0.98508 0.56167 0.29674 0.0
C609 C 0.99223 0.57894 0.28834 0.0
H610 H 0.96454 0.53504 0.2916 0.0
H611 H 0.03241 0.70093 0.20349 0.0
H612 H 0.57466 0.92431 0.74521 0.0
H613 H 0.59308 0.95459 0.7315 0.0
H614 H 0.61349 0.96891 0.8085 0.0
H615 H 0.59486 0.93863 0.82244 0.0
H616 H 0.60351 0.99074 0.79055 0.0
H617 H 0.63889 0.96797 0.75917 0.0
H618 H 0.64534 0.94762 0.73568 0.0
H619 H 0.62987 0.96084 0.66479 0.0
H620 H 0.62309 0.98109 0.68791 0.0
H621 H 0.6641 0.07809 0.75393 0.0
H622 H 0.65243 0.04817 0.76968 0.0
H623 H 0.62829 0.02812 0.69597 0.0
H624 H 0.64009 0.05793 0.68004 0.0
H625 H 0.64266 0.00972 0.71455 0.0
H626 H 0.60478 0.03016 0.74631 0.0
H627 H 0.59781 0.05026 0.76948 0.0
H628 H 0.61768 0.04108 0.83951 0.0
H629 H 0.62498 0.0211 0.81665 0.0
C630 C 0.58325 0.93386 0.75915 0.0
C631 C 0.58331 0.92909 0.7849 0.0
C632 C 0.59383 0.95117 0.75126 0.0
C633 C 0.60479 0.96403 0.76892 0.0
C634 C 0.60515 0.95921 0.79454 0.0
C635 C 0.59455 0.9419 0.80245 0.0
C636 C 0.61501 0.98265 0.76095 0.0
C637 C 0.61235 0.99495 0.77425 0.0
C638 C 0.62624 0.98809 0.73932 0.0
C639 C 0.63035 0.97595 0.72532 0.0
C640 C 0.63674 0.96644 0.7386 0.0
C641 C 0.64048 0.95494 0.72535 0.0
C642 C 0.63798 0.95291 0.69877 0.0
C643 C 0.63178 0.96241 0.68538 0.0
C644 C 0.62801 0.97392 0.69855 0.0
C645 C 0.65642 0.06729 0.74104 0.0
C646 C 0.65292 0.07035 0.7158 0.0
C647 C 0.64972 0.05021 0.75008 0.0
C648 C 0.63931 0.03589 0.7341 0.0
C649 C 0.63627 0.03895 0.70865 0.0
C650 C 0.64297 0.056 0.69961 0.0
C651 C 0.63102 0.01772 0.74403 0.0
C652 C 0.634 0.00553 0.73106 0.0
C653 C 0.62005 0.01234 0.76593 0.0
C654 C 0.61561 0.0243 0.77971 0.0
C655 C 0.60779 0.03254 0.7666 0.0
C656 C 0.60376 0.04389 0.77968 0.0
C657 C 0.60735 0.04699 0.80593 0.0
C658 C 0.61494 0.0387 0.81917 0.0
C659 C 0.61902 0.02735 0.80616 0.0
H660 H 0.60422 0.05577 0.81603 0.0
H661 H 0.64088 0.944 0.68854 0.0
H662 H 0.65883 0.59762 0.81485 0.0
H663 H 0.64568 0.61465 0.79972 0.0
H664 H 0.63027 0.58494 0.72923 0.0
H665 H 0.6437 0.5681 0.74405 0.0
H666 H 0.64183 0.61881 0.71982 0.0
H667 H 0.60131 0.57543 0.77867 0.0
H668 H 0.59203 0.5596 0.81989 0.0
H669 H 0.60425 0.60718 0.8589 0.0
H670 H 0.61382 0.62335 0.81793 0.0
H671 H 0.57287 0.63214 0.67917 0.0
H672 H 0.59103 0.62022 0.69382 0.0
H673 H 0.60469 0.65223 0.76198 0.0
H674 H 0.58631 0.66408 0.74753 0.0
H675 H 0.59561 0.61912 0.77357 0.0
H676 H 0.63423 0.66211 0.7135 0.0
H677 H 0.64297 0.67747 0.67188 0.0
H678 H 0.63381 0.63027 0.63467 0.0
H679 H 0.62479 0.61455 0.67603 0.0
C680 C 0.65279 0.59483 0.79602 0.0
C681 C 0.6522 0.58145 0.78069 0.0
C682 C 0.64521 0.60452 0.78744 0.0
C683 C 0.63674 0.60088 0.76351 0.0
C684 C 0.6367 0.58795 0.74779 0.0
C685 C 0.64434 0.57831 0.7563 0.0
C686 C 0.62736 0.61008 0.75523 0.0
C687 C 0.63161 0.61875 0.73146 0.0
C688 C 0.61429 0.61034 0.77067 0.0
C689 C 0.60845 0.60063 0.79529 0.0
C690 C 0.60214 0.58254 0.79607 0.0
C691 C 0.59681 0.5735 0.81938 0.0
C692 C 0.5976 0.58239 0.84201 0.0
C693 C 0.60367 0.60032 0.84136 0.0
C694 C 0.60904 0.60943 0.8181 0.0
C695 C 0.57982 0.63673 0.6972 0.0
C696 C 0.57818 0.64907 0.71219 0.0
C697 C 0.59027 0.62997 0.7055 0.0
C698 C 0.59939 0.63547 0.72887 0.0
C699 C 0.59781 0.64783 0.74385 0.0
C700 C 0.58735 0.65462 0.73555 0.0
C701 C 0.61 0.62778 0.73807 0.0
C702 C 0.60594 0.61934 0.76202 0.0
C703 C 0.62319 0.62769 0.72273 0.0
C704 C 0.62869 0.63712 0.69784 0.0
C705 C 0.63396 0.65497 0.69642 0.0
C706 C 0.63898 0.66374 0.67287 0.0
C707 C 0.63891 0.65484 0.65064 0.0
C708 C 0.63385 0.63714 0.65191 0.0
C709 C 0.6288 0.6283 0.6754 0.0
H710 H 0.6428 0.66165 0.63243 0.0
H711 H 0.59347 0.57537 0.86004 0.0
H712 H 0.92531 0.59441 0.74275 0.0
H713 H 0.95557 0.61203 0.75775 0.0
H714 H 0.97204 0.58733 0.70154 0.0
H715 H 0.94196 0.56967 0.6867 0.0
H716 H 0.98513 0.5875 0.74795 0.0
H717 H 0.98062 0.62919 0.69375 0.0
H718 H 0.96795 0.64693 0.67879 0.0
H719 H 0.97784 0.67195 0.75255 0.0
H720 H 0.99036 0.65417 0.76807 0.0
H721 H 0.07609 0.64026 0.74766 0.0
H722 H 0.04571 0.62726 0.73384 0.0
H723 H 0.03493 0.65154 0.79772 0.0
H724 H 0.06544 0.66463 0.81178 0.0
H725 H 0.01847 0.65228 0.75088 0.0
H726 H 0.02392 0.61123 0.80444 0.0
H727 H 0.03699 0.59376 0.81898 0.0
H728 H 0.02524 0.5675 0.74606 0.0
H729 H 0.01235 0.58503 0.73092 0.0
C730 C 0.93543 0.59285 0.7335 0.0
C731 C 0.93126 0.58065 0.71357 0.0
C732 C 0.95271 0.60296 0.74202 0.0
C733 C 0.96609 0.60105 0.73069 0.0
C734 C 0.96193 0.589 0.71061 0.0
C735 C 0.94473 0.57894 0.7021 0.0
C736 C 0.98436 0.61105 0.74022 0.0
C737 C 0.99245 0.60167 0.74832 0.0
C738 C 0.99377 0.62953 0.74145 0.0
C739 C 0.98624 0.64021 0.73216 0.0
C740 C 0.97994 0.63836 0.70686 0.0
C741 C 0.97282 0.64845 0.69826 0.0
C742 C 0.97204 0.66052 0.71473 0.0
C743 C 0.97842 0.66257 0.73982 0.0
C744 C 0.98554 0.6525 0.74853 0.0
C745 C 0.06734 0.64305 0.7586 0.0
C746 C 0.07312 0.65337 0.78092 0.0
C747 C 0.04997 0.63557 0.75071 0.0
C748 C 0.03804 0.63827 0.76494 0.0
C749 C 0.04394 0.64928 0.78651 0.0
C750 C 0.06134 0.65671 0.79454 0.0
C751 C 0.01924 0.62869 0.75803 0.0
C752 C 0.01107 0.63812 0.75059 0.0
C753 C 0.00969 0.61023 0.75737 0.0
C754 C 0.01731 0.59956 0.76646 0.0
C755 C 0.02425 0.60183 0.79142 0.0
C756 C 0.03161 0.5919 0.79979 0.0
C757 C 0.03198 0.57956 0.78343 0.0
C758 C 0.02496 0.57708 0.7587 0.0
C759 C 0.01761 0.587 0.75022 0.0
H760 H 0.03768 0.57188 0.78994 0.0
H761 H 0.96652 0.66832 0.70803 0.0
H762 H 0.40436 0.06242 0.81648 0.0
H763 H 0.386 0.03232 0.80161 0.0
H764 H 0.41148 0.0465 0.72761 0.0
H765 H 0.42923 0.0767 0.74203 0.0
H766 H 0.37911 0.02445 0.72017 0.0
H767 H 0.42279 0.02614 0.7768 0.0
H768 H 0.43949 0.03214 0.81715 0.0
H769 H 0.3925 0.9973 0.85788 0.0
H770 H 0.37547 0.99128 0.81781 0.0
H771 H 0.37026 0.94267 0.68183 0.0
H772 H 0.38128 0.97265 0.69678 0.0
H773 H 0.34213 0.95384 0.75636 0.0
H774 H 0.33076 0.92377 0.74112 0.0
H775 H 0.3785 0.97726 0.77254 0.0
H776 H 0.33591 0.97378 0.71174 0.0
H777 H 0.3214 0.96759 0.66946 0.0
H778 H 0.36941 0.00581 0.6343 0.0
H779 H 0.38429 0.01204 0.67633 0.0
C780 C 0.40587 0.05913 0.79695 0.0
C781 C 0.41828 0.07187 0.78045 0.0
C782 C 0.39545 0.0419 0.7885 0.0
C783 C 0.39759 0.037 0.76364 0.0
C784 C 0.40957 0.04989 0.74688 0.0
C785 C 0.41975 0.06717 0.75516 0.0
C786 C 0.38791 0.01838 0.7553 0.0
C787 C 0.3791 0.01418 0.73159 0.0
C788 C 0.38763 0.00484 0.77028 0.0
C789 C 0.39783 0.00842 0.79438 0.0
C790 C 0.416 0.01986 0.79441 0.0
C791 C 0.42553 0.02325 0.81721 0.0
C792 C 0.41706 0.01515 0.84008 0.0
C793 C 0.39904 0.0036 0.84017 0.0
C794 C 0.38945 1.00019 0.81741 0.0
C795 C 0.36389 0.94493 0.69796 0.0
C796 C 0.34965 0.93091 0.71032 0.0
C797 C 0.37017 0.96205 0.70643 0.0
C798 C 0.36248 0.96542 0.72761 0.0
C799 C 0.3482 0.95147 0.73994 0.0
C800 C 0.34169 0.93435 0.73116 0.0
C801 C 0.36993 0.98348 0.73746 0.0
C802 C 0.37836 0.98755 0.76138 0.0
C803 C 0.37019 0.99692 0.72243 0.0
C804 C 0.36125 0.99327 0.69716 0.0
C805 C 0.34342 0.98076 0.69496 0.0
C806 C 0.33512 0.97726 0.67104 0.0
C807 C 0.34449 0.98627 0.6492 0.0
C808 C 0.36217 0.99883 0.65124 0.0
C809 C 0.37054 0.00236 0.67511 0.0
H810 H 0.33804 0.98355 0.6307 0.0
H811 H 0.42446 0.01779 0.85772 0.0
H812 H 0.33155 0.39805 0.80051 0.0
H813 H 0.34342 0.37991 0.78456 0.0
H814 H 0.38679 0.42541 0.75051 0.0
H815 H 0.37519 0.44355 0.76655 0.0
H816 H 0.37108 0.39594 0.71755 0.0
H817 H 0.39297 0.41121 0.80503 0.0
H818 H 0.38955 0.41221 0.85196 0.0
H819 H 0.35902 0.35623 0.85432 0.0
H820 H 0.36206 0.35492 0.80732 0.0
H821 H 0.43766 0.37722 0.69276 0.0
H822 H 0.41924 0.38874 0.70747 0.0
H823 H 0.3871 0.34112 0.74955 0.0
H824 H 0.40606 0.32976 0.7356 0.0
H825 H 0.39255 0.36743 0.77796 0.0
H826 H 0.37307 0.35126 0.69199 0.0
H827 H 0.37564 0.34941 0.64503 0.0
H828 H 0.39956 0.40515 0.63901 0.0
H829 H 0.39736 0.40736 0.68598 0.0
C830 C 0.34358 0.40414 0.78956 0.0
C831 C 0.35248 0.42221 0.78483 0.0
C832 C 0.35035 0.39378 0.78052 0.0
C833 C 0.366 0.40134 0.7664 0.0
C834 C 0.37468 0.41932 0.7613 0.0
C835 C 0.36807 0.42967 0.77058 0.0
C836 C 0.37366 0.39076 0.75723 0.0
C837 C 0.37586 0.38975 0.7307 0.0
C838 C 0.37931 0.38219 0.7744 0.0
C839 C 0.37755 0.38298 0.80264 0.0
C840 C 0.38539 0.39912 0.81553 0.0
C841 C 0.38355 0.39974 0.84214 0.0
C842 C 0.37403 0.38429 0.8561 0.0
C843 C 0.36636 0.36819 0.84348 0.0
C844 C 0.36814 0.3675 0.81686 0.0
C845 C 0.42661 0.36913 0.70502 0.0
C846 C 0.42324 0.35255 0.71293 0.0
C847 C 0.416 0.3757 0.71331 0.0
C848 C 0.40152 0.36567 0.72921 0.0
C849 C 0.39813 0.34907 0.73718 0.0
C850 C 0.40893 0.34258 0.72916 0.0
C851 C 0.39041 0.37291 0.73814 0.0
C852 C 0.38754 0.37331 0.76465 0.0
C853 C 0.38392 0.38074 0.72089 0.0
C854 C 0.38514 0.37948 0.69256 0.0
C855 C 0.37897 0.36313 0.68068 0.0
C856 C 0.38035 0.36202 0.65405 0.0
C857 C 0.38779 0.37716 0.63905 0.0
C858 C 0.39381 0.39343 0.65065 0.0
C859 C 0.39247 0.39462 0.67728 0.0
H860 H 0.38886 0.37627 0.61845 0.0
H861 H 0.37262 0.3848 0.87671 0.0
H862 H 0.07714 0.40494 0.73906 0.0
H863 H 0.04693 0.38617 0.75347 0.0
H864 H 0.03034 0.4149 0.70527 0.0
H865 H 0.06028 0.43332 0.6904 0.0
H866 H 0.0261 0.39338 0.77946 0.0
H867 H 0.98946 0.38974 0.68443 0.0
H868 H 0.99352 0.38853 0.63771 0.0
H869 H 0.02701 0.36714 0.65119 0.0
H870 H 0.02295 0.36798 0.69797 0.0
H871 H 0.94124 0.37679 0.80505 0.0
H872 H 0.9711 0.38793 0.79001 0.0
H873 H 0.95491 0.33982 0.7489 0.0
H874 H 0.92478 0.32879 0.76332 0.0
H875 H 0.97559 0.36586 0.71984 0.0
H876 H 0.97901 0.34974 0.80576 0.0
H877 H 0.97496 0.34828 0.85278 0.0
H878 H 0.00798 0.40392 0.85805 0.0
H879 H 0.01204 0.40575 0.81101 0.0
C880 C 0.06699 0.40711 0.73136 0.0
C881 C 0.07106 0.42056 0.71353 0.0
C882 C 0.04976 0.39641 0.73966 0.0
C883 C 0.03629 0.39896 0.73025 0.0
C884 C 0.04039 0.41239 0.71242 0.0
C885 C 0.05755 0.42299 0.70402 0.0
C886 C 0.01808 0.38818 0.73982 0.0
C887 C 0.01507 0.38727 0.76642 0.0
C888 C 0.00365 0.3798 0.72288 0.0
C889 C 0.006 0.37905 0.69473 0.0
C890 C 0.99762 0.38469 0.67743 0.0
C891 C 0.99994 0.38409 0.65093 0.0
C892 C 0.01055 0.3778 0.64149 0.0
C893 C 0.01883 0.37206 0.65853 0.0
C894 C 0.01655 0.37262 0.68504 0.0
C895 C 0.94404 0.36854 0.7929 0.0
C896 C 0.93068 0.35189 0.78543 0.0
C897 C 0.96116 0.37489 0.78442 0.0
C898 C 0.96537 0.36462 0.76865 0.0
C899 C 0.95201 0.34797 0.76112 0.0
C900 C 0.93481 0.34166 0.76941 0.0
C901 C 0.9836 0.37158 0.75944 0.0
C902 C 0.98662 0.37178 0.7329 0.0
C903 C 0.99804 0.37892 0.77648 0.0
C904 C 0.99573 0.37789 0.80482 0.0
C905 C 0.98532 0.36168 0.81693 0.0
C906 C 0.98303 0.36078 0.84359 0.0
C907 C 0.99118 0.376 0.85839 0.0
C908 C 0.00167 0.39214 0.84656 0.0
C909 C 0.00399 0.39311 0.8199 0.0
H910 H 0.98939 0.37528 0.87903 0.0
H911 H 0.01234 0.37736 0.62098 0.0
H912 H 0.48118 0.18016 0.22262 0.0
H913 H 0.47932 0.20516 0.23869 0.0
H914 H 0.42374 0.17741 0.22523 0.0
H915 H 0.42549 0.15224 0.20914 0.0
H916 H 0.4403 0.21196 0.20778 0.0
H917 H 0.43764 0.18095 0.28469 0.0
H918 H 0.44719 0.16605 0.31518 0.0
H919 H 0.49622 0.2134 0.32516 0.0
H920 H 0.48706 0.22852 0.29443 0.0
H921 H 0.42665 0.27434 0.27573 0.0
H922 H 0.42476 0.24709 0.26114 0.0
H923 H 0.47915 0.26776 0.27985 0.0
H924 H 0.48099 0.29478 0.29496 0.0
H925 H 0.46086 0.2352 0.29553 0.0
H926 H 0.4648 0.2658 0.21712 0.0
H927 H 0.45612 0.28103 0.18587 0.0
H928 H 0.40573 0.23504 0.17792 0.0
H929 H 0.41404 0.2196 0.20941 0.0
C930 C 0.46855 0.17936 0.22308 0.0
C931 C 0.45347 0.16422 0.21469 0.0
C932 C 0.4675 0.19364 0.23235 0.0
C933 C 0.45137 0.19308 0.23336 0.0
C934 C 0.43631 0.17808 0.22465 0.0
C935 C 0.43733 0.16371 0.21555 0.0
C936 C 0.45034 0.20824 0.24347 0.0
C937 C 0.44451 0.21689 0.22711 0.0
C938 C 0.45619 0.21487 0.2685 0.0
C939 C 0.46172 0.20583 0.28707 0.0
C940 C 0.45052 0.18815 0.29322 0.0
C941 C 0.45585 0.17967 0.31058 0.0
C942 C 0.47232 0.18876 0.32206 0.0
C943 C 0.48347 0.20637 0.31624 0.0
C944 C 0.47821 0.2149 0.29887 0.0
C945 C 0.43819 0.27304 0.27675 0.0
C946 C 0.45398 0.28671 0.28643 0.0
C947 C 0.43712 0.2575 0.2683 0.0
C948 C 0.45188 0.25543 0.26911 0.0
C949 C 0.46759 0.26902 0.27903 0.0
C950 C 0.46863 0.28449 0.2876 0.0
C951 C 0.45105 0.23914 0.25973 0.0
C952 C 0.45652 0.23024 0.27625 0.0
C953 C 0.44499 0.23237 0.23478 0.0
C954 C 0.43997 0.24161 0.21584 0.0
C955 C 0.45182 0.25898 0.20887 0.0
C956 C 0.44698 0.26764 0.19109 0.0
C957 C 0.43036 0.25903 0.17998 0.0
C958 C 0.41858 0.24171 0.18658 0.0
C959 C 0.42335 0.23299 0.20438 0.0
H960 H 0.42664 0.26575 0.16621 0.0
H961 H 0.47642 0.18217 0.33549 0.0
H962 H 0.15912 0.42706 0.30771 0.0
H963 H 0.18418 0.42469 0.29286 0.0
H964 H 0.19969 0.46909 0.24311 0.0
H965 H 0.17469 0.47148 0.25776 0.0
H966 H 0.20205 0.44314 0.21882 0.0
H967 H 0.22021 0.47384 0.29929 0.0
H968 H 0.21808 0.4783 0.34565 0.0
H969 H 0.22004 0.43179 0.36263 0.0
H970 H 0.22194 0.42691 0.31631 0.0
H971 H 0.29148 0.4726 0.19604 0.0
H972 H 0.26387 0.46986 0.21032 0.0
H973 H 0.25209 0.42333 0.25273 0.0
H974 H 0.27972 0.4259 0.23825 0.0
H975 H 0.24664 0.44751 0.28099 0.0
H976 H 0.23078 0.41831 0.19984 0.0
H977 H 0.23364 0.41477 0.1534 0.0
H978 H 0.22794 0.45932 0.13755 0.0
H979 H 0.22531 0.4633 0.18396 0.0
C980 C 0.16784 0.43625 0.29352 0.0
C981 C 0.16498 0.44949 0.28396 0.0
C982 C 0.18217 0.43493 0.28512 0.0
C983 C 0.19389 0.44681 0.26702 0.0
C984 C 0.19082 0.45978 0.25707 0.0
C985 C 0.17656 0.46116 0.26553 0.0
C986 C 0.20953 0.44598 0.2587 0.0
C987 C 0.21186 0.44423 0.23239 0.0
C988 C 0.22215 0.447 0.27647 0.0
C989 C 0.22099 0.44989 0.30432 0.0
C990 C 0.22002 0.46447 0.3129 0.0
C991 C 0.21889 0.4671 0.33917 0.0
C992 C 0.21886 0.45531 0.35707 0.0
C993 C 0.22002 0.44089 0.34874 0.0
C994 C 0.22113 0.43819 0.32248 0.0
C995 C 0.283 0.46176 0.20835 0.0
C996 C 0.28774 0.44944 0.21599 0.0
C997 C 0.26721 0.46018 0.21643 0.0
C998 C 0.25589 0.44632 0.23243 0.0
C999 C 0.26064 0.43409 0.24033 0.0
C1000 C 0.27638 0.43554 0.23199 0.0
C1001 C 0.23922 0.44487 0.2411 0.0
C1002 C 0.23672 0.44622 0.26746 0.0
C1003 C 0.22649 0.44357 0.22337 0.0
C1004 C 0.22801 0.4412 0.19542 0.0
C1005 C 0.23029 0.42745 0.18648 0.0
C1006 C 0.23184 0.42534 0.16015 0.0
C1007 C 0.23101 0.43684 0.14253 0.0
C1008 C 0.22859 0.45044 0.15122 0.0
C1009 C 0.22706 0.45261 0.17754 0.0
H1010 H 0.23221 0.43518 0.12216 0.0
H1011 H 0.21799 0.45737 0.3774 0.0
H1012 H 0.72744 0.15032 0.27133 0.0
H1013 H 0.75468 0.17554 0.25636 0.0
H1014 H 0.7377 0.21018 0.28611 0.0
H1015 H 0.71037 0.18507 0.3005 0.0
H1016 H 0.75073 0.2202 0.23991 0.0
H1017 H 0.76904 0.20368 0.31691 0.0
H1018 H 0.77274 0.18363 0.34576 0.0
H1019 H 0.80316 0.17611 0.28815 0.0
H1020 H 0.79944 0.19594 0.25881 0.0
H1021 H 0.82908 0.30068 0.24099 0.0
H1022 H 0.8036 0.27355 0.25509 0.0
H1023 H 0.82313 0.24379 0.2159 0.0
H1024 H 0.84883 0.27102 0.20174 0.0
H1025 H 0.80932 0.23027 0.26427 0.0
H1026 H 0.79192 0.24815 0.18815 0.0
H1027 H 0.78846 0.26871 0.16014 0.0
H1028 H 0.75633 0.27404 0.2172 0.0
H1029 H 0.75981 0.25369 0.24573 0.0
C1030 C 0.72956 0.16332 0.2747 0.0
C1031 C 0.71678 0.16572 0.28709 0.0
C1032 C 0.74516 0.17773 0.26626 0.0
C1033 C 0.74834 0.1948 0.27032 0.0
C1034 C 0.73556 0.19716 0.28271 0.0
C1035 C 0.71995 0.18279 0.29099 0.0
C1036 C 0.76477 0.21026 0.26128 0.0
C1037 C 0.76352 0.22247 0.2455 0.0
C1038 C 0.78152 0.21303 0.26794 0.0
C1039 C 0.7838 0.20114 0.28557 0.0
C1040 C 0.7764 0.19764 0.31032 0.0
C1041 C 0.77852 0.18634 0.32677 0.0
C1042 C 0.78813 0.17856 0.31876 0.0
C1043 C 0.79569 0.18211 0.29431 0.0
C1044 C 0.79359 0.19339 0.27777 0.0
C1045 C 0.82804 0.28837 0.2355 0.0
C1046 C 0.84091 0.28798 0.22013 0.0
C1047 C 0.81344 0.27288 0.24351 0.0
C1048 C 0.81135 0.25665 0.23625 0.0
C1049 C 0.82447 0.25618 0.22164 0.0
C1050 C 0.83911 0.27173 0.21354 0.0
C1051 C 0.79519 0.24028 0.24335 0.0
C1052 C 0.79651 0.22791 0.25864 0.0
C1053 C 0.77848 0.23737 0.23636 0.0
C1054 C 0.77625 0.24951 0.21916 0.0
C1055 C 0.78422 0.2538 0.19481 0.0
C1056 C 0.78224 0.2654 0.17882 0.0
C1057 C 0.77221 0.27271 0.18691 0.0
C1058 C 0.76411 0.26838 0.21097 0.0
C1059 C 0.76606 0.2568 0.22705 0.0
H1060 H 0.77069 0.28169 0.17451 0.0
H1061 H 0.78976 0.16982 0.33153 0.0
H1062 H 0.57677 0.85301 0.22959 0.0
H1063 H 0.57866 0.82767 0.24432 0.0
H1064 H 0.52567 0.79345 0.21929 0.0
H1065 H 0.52363 0.81866 0.20497 0.0
H1066 H 0.53073 0.78446 0.26589 0.0
H1067 H 0.56115 0.79823 0.18472 0.0
H1068 H 0.58359 0.81721 0.15338 0.0
H1069 H 0.62402 0.82472 0.20635 0.0
H1070 H 0.6018 0.80596 0.23816 0.0
H1071 H 0.52533 0.70251 0.26532 0.0
H1072 H 0.52688 0.72968 0.25175 0.0
H1073 H 0.57942 0.75905 0.28122 0.0
H1074 H 0.57804 0.73177 0.29459 0.0
H1075 H 0.5763 0.77172 0.235 0.0
H1076 H 0.54595 0.75684 0.31536 0.0
H1077 H 0.52355 0.73773 0.34664 0.0
H1078 H 0.48308 0.73242 0.29543 0.0
H1079 H 0.50525 0.75131 0.26366 0.0
C1080 C 0.56555 0.84007 0.22721 0.0
C1081 C 0.55005 0.83782 0.2161 0.0
C1082 C 0.56666 0.8256 0.23553 0.0
C1083 C 0.55235 0.80862 0.23271 0.0
C1084 C 0.53688 0.8064 0.2217 0.0
C1085 C 0.53574 0.82083 0.21345 0.0
C1086 C 0.55328 0.79311 0.24153 0.0
C1087 C 0.54059 0.78159 0.25891 0.0
C1088 C 0.56645 0.78961 0.23305 0.0
C1089 C 0.57981 0.80085 0.21392 0.0
C1090 C 0.57483 0.80404 0.18976 0.0
C1091 C 0.58751 0.81474 0.1719 0.0
C1092 C 0.60522 0.82221 0.1779 0.0
C1093 C 0.61029 0.81895 0.20175 0.0
C1094 C 0.59766 0.80828 0.2197 0.0
C1095 C 0.53726 0.71474 0.26881 0.0
C1096 C 0.55153 0.71502 0.28116 0.0
C1097 C 0.5381 0.73027 0.26113 0.0
C1098 C 0.55316 0.74643 0.26585 0.0
C1099 C 0.56764 0.74674 0.27749 0.0
C1100 C 0.56682 0.73116 0.28515 0.0
C1101 C 0.55356 0.76294 0.25897 0.0
C1102 C 0.56651 0.77465 0.24207 0.0
C1103 C 0.54064 0.76665 0.2679 0.0
C1104 C 0.52726 0.75538 0.28704 0.0
C1105 C 0.53227 0.7515 0.31069 0.0
C1106 C 0.51962 0.74072 0.32852 0.0
C1107 C 0.5019 0.73383 0.323 0.0
C1108 C 0.49681 0.73775 0.29966 0.0
C1109 C 0.50941 0.74851 0.28175 0.0
H1110 H 0.49212 0.72549 0.33683 0.0
H1111 H 0.61502 0.83048 0.16404 0.0
H1112 H 0.72221 0.54576 0.17771 0.0
H1113 H 0.74946 0.54783 0.19217 0.0
H1114 H 0.74085 0.56113 0.26851 0.0
H1115 H 0.71371 0.55951 0.25392 0.0
H1116 H 0.77441 0.5807 0.25536 0.0
H1117 H 0.73206 0.51952 0.25358 0.0
H1118 H 0.70924 0.49202 0.23432 0.0
H1119 H 0.74533 0.49524 0.17637 0.0
H1120 H 0.76832 0.5229 0.19509 0.0
H1121 H 0.83351 0.56112 0.32051 0.0
H1122 H 0.8082 0.56267 0.30513 0.0
H1123 H 0.81638 0.54917 0.22868 0.0
H1124 H 0.84151 0.54723 0.24411 0.0
H1125 H 0.78316 0.53004 0.24198 0.0
H1126 H 0.8258 0.59119 0.24467 0.0
H1127 H 0.84848 0.61851 0.26454 0.0
H1128 H 0.81179 0.61513 0.32157 0.0
H1129 H 0.78894 0.58766 0.30223 0.0
C1130 C 0.72615 0.54919 0.19756 0.0
C1131 C 0.71577 0.55236 0.21474 0.0
C1132 C 0.7417 0.5503 0.20583 0.0
C1133 C 0.74707 0.55433 0.23155 0.0
C1134 C 0.73695 0.55794 0.2486 0.0
C1135 C 0.72143 0.55697 0.24027 0.0
C1136 C 0.76308 0.55448 0.24068 0.0
C1137 C 0.77624 0.56955 0.25273 0.0
C1138 C 0.76563 0.54006 0.2368 0.0
C1139 C 0.75186 0.52336 0.2256 0.0
C1140 C 0.7351 0.51443 0.23663 0.0
C1141 C 0.72214 0.4988 0.22582 0.0
C1142 C 0.72582 0.49191 0.2041 0.0
C1143 C 0.74249 0.5006 0.19318 0.0
C1144 C 0.7555 0.51625 0.20389 0.0
C1145 C 0.83002 0.55866 0.30037 0.0
C1146 C 0.8395 0.55406 0.28351 0.0
C1147 C 0.81558 0.55962 0.29157 0.0
C1148 C 0.81046 0.5562 0.26568 0.0
C1149 C 0.82008 0.55187 0.24874 0.0
C1150 C 0.83447 0.55082 0.25755 0.0
C1151 C 0.79458 0.55631 0.25652 0.0
C1152 C 0.78139 0.54124 0.24454 0.0
C1153 C 0.792 0.57071 0.26056 0.0
C1154 C 0.8057 0.58728 0.27213 0.0
C1155 C 0.8226 0.59621 0.26156 0.0
C1156 C 0.83548 0.61173 0.27271 0.0
C1157 C 0.83159 0.61853 0.29434 0.0
C1158 C 0.81479 0.60984 0.30483 0.0
C1159 C 0.80186 0.5943 0.29376 0.0
H1160 H 0.84158 0.63055 0.30295 0.0
H1161 H 0.71577 0.47981 0.19576 0.0
H1162 H 0.18076 0.70198 0.2195 0.0
H1163 H 0.20582 0.72897 0.23509 0.0
H1164 H 0.17524 0.75462 0.23263 0.0
H1165 H 0.15003 0.72758 0.21694 0.0
H1166 H 0.20829 0.77487 0.21192 0.0
H1167 H 0.18303 0.74256 0.28911 0.0
H1168 H 0.17107 0.71687 0.31765 0.0
H1169 H 0.22024 0.71813 0.31645 0.0
H1170 H 0.23243 0.74368 0.28759 0.0
H1171 H 0.27151 0.84955 0.28193 0.0
H1172 H 0.24432 0.82383 0.26799 0.0
H1173 H 0.26913 0.79251 0.27298 0.0
H1174 H 0.29616 0.81804 0.28727 0.0
H1175 H 0.23747 0.77574 0.29383 0.0
H1176 H 0.26226 0.80668 0.21491 0.0
H1177 H 0.27441 0.83202 0.18566 0.0
H1178 H 0.22644 0.83309 0.18951 0.0
H1179 H 0.21408 0.80789 0.21908 0.0
C1180 C 0.17935 0.71336 0.22227 0.0
C1181 C 0.16341 0.71265 0.21708 0.0
C1182 C 0.19367 0.72876 0.23127 0.0
C1183 C 0.19234 0.74376 0.23527 0.0
C1184 C 0.17652 0.74318 0.22973 0.0
C1185 C 0.16214 0.72772 0.22085 0.0
C1186 C 0.20755 0.76001 0.24515 0.0
C1187 C 0.21451 0.77517 0.23003 0.0
C1188 C 0.21585 0.76027 0.26854 0.0
C1189 C 0.20859 0.74495 0.286 0.0
C1190 C 0.19125 0.73727 0.29477 0.0
C1191 C 0.18444 0.72275 0.31103 0.0
C1192 C 0.19488 0.71585 0.31881 0.0
C1193 C 0.21217 0.72348 0.31039 0.0
C1194 C 0.21904 0.738 0.2941 0.0
C1195 C 0.27114 0.83718 0.28003 0.0
C1196 C 0.28597 0.83582 0.28564 0.0
C1197 C 0.25563 0.8225 0.27198 0.0
C1198 C 0.25472 0.80625 0.26921 0.0
C1199 C 0.2695 0.80489 0.27499 0.0
C1200 C 0.28497 0.81952 0.28308 0.0
C1201 C 0.23839 0.79058 0.26043 0.0
C1202 C 0.2312 0.77551 0.27579 0.0
C1203 C 0.22993 0.7904 0.23722 0.0
C1204 C 0.23732 0.80553 0.21943 0.0
C1205 C 0.25436 0.81242 0.20969 0.0
C1206 C 0.26127 0.82673 0.19302 0.0
C1207 C 0.25122 0.83419 0.18579 0.0
C1208 C 0.23422 0.82732 0.19516 0.0
C1209 C 0.22725 0.81301 0.21186 0.0
H1210 H 0.25659 0.84527 0.17288 0.0
H1211 H 0.18958 0.70461 0.33141 0.0
H1212 H 0.52085 0.70315 0.71696 0.0
H1213 H 0.52292 0.73042 0.73128 0.0
H1214 H 0.57915 0.75539 0.7311 0.0
H1215 H 0.57715 0.72796 0.71705 0.0
H1216 H 0.5675 0.76418 0.77348 0.0
H1217 H 0.55826 0.76327 0.68301 0.0
H1218 H 0.54385 0.75085 0.64155 0.0
H1219 H 0.49622 0.74655 0.66984 0.0
H1220 H 0.51028 0.75871 0.71163 0.0
H1221 H 0.57777 0.84985 0.78412 0.0
H1222 H 0.57936 0.82444 0.76879 0.0
H1223 H 0.5231 0.79376 0.7686 0.0
H1224 H 0.52142 0.81903 0.7838 0.0
H1225 H 0.53716 0.78938 0.72455 0.0
H1226 H 0.54634 0.78893 0.81589 0.0
H1227 H 0.561 0.80143 0.85718 0.0
H1228 H 0.60933 0.80876 0.82656 0.0
H1229 H 0.59499 0.79651 0.78495 0.0
C1230 C 0.53367 0.71443 0.71999 0.0
C1231 C 0.54885 0.71344 0.71575 0.0
C1232 C 0.53483 0.73004 0.72808 0.0
C1233 C 0.55119 0.74504 0.7319 0.0
C1234 C 0.56639 0.744 0.72818 0.0
C1235 C 0.56523 0.72835 0.7201 0.0
C1236 C 0.55231 0.76173 0.73974 0.0
C1237 C 0.56112 0.76986 0.76255 0.0
C1238 C 0.54378 0.76902 0.72568 0.0
C1239 C 0.53529 0.76177 0.70053 0.0
C1240 C 0.54467 0.75955 0.68046 0.0
C1241 C 0.53658 0.75258 0.65689 0.0
C1242 C 0.51912 0.74788 0.65308 0.0
C1243 C 0.50974 0.75019 0.67283 0.0
C1244 C 0.51777 0.75713 0.69645 0.0
C1245 C 0.56575 0.83767 0.78083 0.0
C1246 C 0.54947 0.83642 0.7852 0.0
C1247 C 0.56668 0.82316 0.77215 0.0
C1248 C 0.55134 0.80717 0.7677 0.0
C1249 C 0.53509 0.80596 0.77189 0.0
C1250 C 0.53416 0.82041 0.78066 0.0
C1251 C 0.55209 0.79166 0.75849 0.0
C1252 C 0.54365 0.78377 0.73537 0.0
C1253 C 0.56102 0.78466 0.77221 0.0
C1254 C 0.56964 0.79199 0.79722 0.0
C1255 C 0.56013 0.79335 0.81789 0.0
C1256 C 0.56837 0.80036 0.84137 0.0
C1257 C 0.5861 0.80594 0.84447 0.0
C1258 C 0.5956 0.80447 0.82412 0.0
C1259 C 0.58743 0.79748 0.80059 0.0
H1260 H 0.59246 0.81136 0.86266 0.0
H1261 H 0.51287 0.74249 0.63482 0.0
H1262 H 0.71619 0.53568 0.81334 0.0
H1263 H 0.74376 0.53849 0.7989 0.0
H1264 H 0.74899 0.57639 0.74218 0.0
H1265 H 0.72124 0.57357 0.75651 0.0
H1266 H 0.75591 0.55204 0.72201 0.0
H1267 H 0.77417 0.58969 0.79493 0.0
H1268 H 0.77347 0.5983 0.8398 0.0
H1269 H 0.78324 0.55806 0.86663 0.0
H1270 H 0.78375 0.54903 0.82191 0.0
H1271 H 0.84381 0.57482 0.69225 0.0
H1272 H 0.81873 0.57728 0.70673 0.0
H1273 H 0.80644 0.53701 0.76313 0.0
H1274 H 0.83138 0.53439 0.74865 0.0
H1275 H 0.80438 0.56541 0.78261 0.0
H1276 H 0.78388 0.52656 0.70975 0.0
H1277 H 0.78445 0.51789 0.66486 0.0
H1278 H 0.77901 0.56083 0.63795 0.0
H1279 H 0.77866 0.56991 0.68273 0.0
C1280 C 0.72323 0.54467 0.79785 0.0
C1281 C 0.71657 0.55444 0.78609 0.0
C1282 C 0.73903 0.54632 0.78969 0.0
C1283 C 0.74855 0.55779 0.76965 0.0
C1284 C 0.74189 0.5675 0.75774 0.0
C1285 C 0.72607 0.56591 0.76598 0.0
C1286 C 0.76521 0.55925 0.76085 0.0
C1287 C 0.76664 0.5553 0.73514 0.0
C1288 C 0.77909 0.56318 0.7781 0.0
C1289 C 0.77885 0.56859 0.80505 0.0
C1290 C 0.77603 0.58258 0.8104 0.0
C1291 C 0.77569 0.58756 0.83581 0.0
C1292 C 0.77826 0.57871 0.85606 0.0
C1293 C 0.78123 0.56489 0.85093 0.0
C1294 C 0.78156 0.55985 0.82555 0.0
C1295 C 0.83582 0.56657 0.70785 0.0
C1296 C 0.83951 0.55437 0.71928 0.0
C1297 C 0.82148 0.56796 0.71603 0.0
C1298 C 0.81067 0.55725 0.73589 0.0
C1299 C 0.81463 0.5454 0.74779 0.0
C1300 C 0.82884 0.54388 0.73944 0.0
C1301 C 0.79496 0.55801 0.74389 0.0
C1302 C 0.79371 0.56235 0.76944 0.0
C1303 C 0.78127 0.55448 0.72649 0.0
C1304 C 0.78146 0.54904 0.69957 0.0
C1305 C 0.78297 0.53425 0.69426 0.0
C1306 C 0.78323 0.52924 0.66884 0.0
C1307 C 0.78183 0.53884 0.64857 0.0
C1308 C 0.78013 0.55343 0.65368 0.0
C1309 C 0.7799 0.55851 0.67907 0.0
H1310 H 0.78202 0.53493 0.6289 0.0
H1311 H 0.778 0.58258 0.87572 0.0
H1312 H 0.29135 0.84426 0.75532 0.0
H1313 H 0.2646 0.81852 0.77043 0.0
H1314 H 0.25188 0.79964 0.6925 0.0
H1315 H 0.27863 0.82527 0.67728 0.0
H1316 H 0.2233 0.79702 0.72013 0.0
H1317 H 0.26866 0.78224 0.73044 0.0
H1318 H 0.29701 0.78692 0.74613 0.0
H1319 H 0.28089 0.78664 0.8241 0.0
H1320 H 0.25252 0.7822 0.80884 0.0
H1321 H 0.1573 0.70957 0.74508 0.0
H1322 H 0.18303 0.73628 0.73012 0.0
H1323 H 0.20093 0.74961 0.80849 0.0
H1324 H 0.17568 0.7225 0.8233 0.0
H1325 H 0.22703 0.7557 0.78076 0.0
H1326 H 0.18201 0.77044 0.7722 0.0
H1327 H 0.15377 0.76677 0.75789 0.0
H1328 H 0.16895 0.76844 0.67906 0.0
H1329 H 0.1972 0.7719 0.6929 0.0
C1330 C 0.28282 0.83465 0.74141 0.0
C1331 C 0.28711 0.83674 0.71513 0.0
C1332 C 0.26758 0.81995 0.75007 0.0
C1333 C 0.25633 0.80713 0.73259 0.0
C1334 C 0.26039 0.80938 0.70629 0.0
C1335 C 0.2757 0.82399 0.69765 0.0
C1336 C 0.2405 0.79118 0.74175 0.0
C1337 C 0.22407 0.78785 0.73318 0.0
C1338 C 0.24154 0.77952 0.75929 0.0
C1339 C 0.25854 0.78207 0.76848 0.0
C1340 C 0.27121 0.78332 0.75092 0.0
C1341 C 0.28727 0.7859 0.75974 0.0
C1342 C 0.29077 0.78712 0.78609 0.0
C1343 C 0.27818 0.78571 0.80369 0.0
C1344 C 0.2621 0.78315 0.79497 0.0
C1345 C 0.1667 0.71826 0.75909 0.0
C1346 C 0.16449 0.71398 0.78534 0.0
C1347 C 0.18137 0.73359 0.75055 0.0
C1348 C 0.19386 0.74518 0.76819 0.0
C1349 C 0.19154 0.74093 0.79447 0.0
C1350 C 0.17707 0.72545 0.80294 0.0
C1351 C 0.20963 0.76144 0.75928 0.0
C1352 C 0.22613 0.76484 0.76783 0.0
C1353 C 0.20862 0.7733 0.74198 0.0
C1354 C 0.19166 0.77127 0.7336 0.0
C1355 C 0.17928 0.7699 0.75182 0.0
C1356 C 0.16328 0.76788 0.74379 0.0
C1357 C 0.15955 0.76733 0.71759 0.0
C1358 C 0.17185 0.76885 0.69935 0.0
C1359 C 0.18786 0.77086 0.70727 0.0
H1360 H 0.14716 0.76576 0.71141 0.0
H1361 H 0.30321 0.78912 0.79288 0.0
H1362 H 0.4262 0.27511 0.72155 0.0
H1363 H 0.42448 0.24775 0.73509 0.0
H1364 H 0.4803 0.27135 0.72626 0.0
H1365 H 0.48204 0.29856 0.7123 0.0
H1366 H 0.46428 0.23968 0.7058 0.0
H1367 H 0.46088 0.26499 0.78592 0.0
H1368 H 0.44898 0.27767 0.81655 0.0
H1369 H 0.39923 0.23041 0.81467 0.0
H1370 H 0.41078 0.21752 0.78375 0.0
H1371 H 0.48071 0.18111 0.77654 0.0
H1372 H 0.47941 0.20667 0.76176 0.0
H1373 H 0.42324 0.17782 0.7679 0.0
H1374 H 0.42445 0.15214 0.78283 0.0
H1375 H 0.43749 0.21083 0.78858 0.0
H1376 H 0.44169 0.18509 0.70991 0.0
H1377 H 0.45407 0.17255 0.67986 0.0
H1378 H 0.50284 0.22091 0.67953 0.0
H1379 H 0.49083 0.23367 0.70988 0.0
C1380 C 0.4381 0.27446 0.72256 0.0
C1381 C 0.45426 0.28899 0.7159 0.0
C1382 C 0.43711 0.25884 0.73039 0.0
C1383 C 0.45229 0.25752 0.73193 0.0
C1384 C 0.46841 0.27203 0.7252 0.0
C1385 C 0.4694 0.2876 0.7173 0.0
C1386 C 0.45144 0.24102 0.74022 0.0
C1387 C 0.45859 0.23349 0.72404 0.0
C1388 C 0.4436 0.23265 0.7637 0.0
C1389 C 0.43664 0.24037 0.7823 0.0
C1390 C 0.44736 0.25735 0.79187 0.0
C1391 C 0.44069 0.26457 0.80932 0.0
C1392 C 0.42334 0.25487 0.81749 0.0
C1393 C 0.41265 0.23791 0.80829 0.0
C1394 C 0.41926 0.23064 0.79082 0.0
C1395 C 0.46807 0.18018 0.77469 0.0
C1396 C 0.45267 0.16459 0.78076 0.0
C1397 C 0.46734 0.19478 0.76617 0.0
C1398 C 0.45121 0.1941 0.76349 0.0
C1399 C 0.43581 0.17862 0.76978 0.0
C1400 C 0.43653 0.16395 0.77821 0.0
C1401 C 0.45053 0.20966 0.75431 0.0
C1402 C 0.44308 0.21698 0.77029 0.0
C1403 C 0.45815 0.21789 0.73069 0.0
C1404 C 0.4654 0.21028 0.71235 0.0
C1405 C 0.4551 0.19301 0.70359 0.0
C1406 C 0.46204 0.18587 0.68647 0.0
C1407 C 0.47924 0.19592 0.67784 0.0
C1408 C 0.48952 0.21314 0.68626 0.0
C1409 C 0.48265 0.22034 0.7034 0.0
H1410 H 0.48459 0.19037 0.66458 0.0
H1411 H 0.4182 0.26048 0.831 0.0
H1412 H 0.16991 0.46727 0.75147 0.0
H1413 H 0.1957 0.46593 0.76498 0.0
H1414 H 0.18581 0.42786 0.70586 0.0
H1415 H 0.15985 0.42904 0.69232 0.0
H1416 H 0.1958 0.41963 0.75137 0.0
H1417 H 0.21633 0.46926 0.6961 0.0
H1418 H 0.21936 0.49695 0.68039 0.0
H1419 H 0.24254 0.52172 0.75216 0.0
H1420 H 0.23941 0.49409 0.76845 0.0
H1421 H 0.28194 0.43066 0.7573 0.0
H1422 H 0.2548 0.42894 0.74238 0.0
H1423 H 0.261 0.46736 0.79887 0.0
H1424 H 0.28808 0.4692 0.81372 0.0
H1425 H 0.25291 0.47472 0.75212 0.0
H1426 H 0.23151 0.42466 0.80774 0.0
H1427 H 0.2284 0.39689 0.82325 0.0
H1428 H 0.20706 0.3729 0.75033 0.0
H1429 H 0.21027 0.40061 0.73425 0.0
C1430 C 0.17313 0.4585 0.74146 0.0
C1431 C 0.16291 0.44832 0.72074 0.0
C1432 C 0.18791 0.4578 0.74914 0.0
C1433 C 0.19281 0.44698 0.73619 0.0
C1434 C 0.18229 0.43634 0.71606 0.0
C1435 C 0.1675 0.43706 0.70833 0.0
C1436 C 0.2092 0.4472 0.74326 0.0
C1437 C 0.20834 0.43161 0.75119 0.0
C1438 C 0.22551 0.46289 0.74334 0.0
C1439 C 0.22748 0.47956 0.73358 0.0
C1440 C 0.22194 0.48057 0.70862 0.0
C1441 C 0.2237 0.49626 0.69959 0.0
C1442 C 0.23109 0.51107 0.71529 0.0
C1443 C 0.23679 0.51023 0.74003 0.0
C1444 C 0.23504 0.49456 0.74916 0.0
C1445 C 0.27747 0.43869 0.76655 0.0
C1446 C 0.28713 0.45006 0.78669 0.0
C1447 C 0.26194 0.43765 0.75808 0.0
C1448 C 0.25582 0.44795 0.76962 0.0
C1449 C 0.26549 0.45931 0.78967 0.0
C1450 C 0.28094 0.46031 0.79819 0.0
C1451 C 0.23951 0.4472 0.76062 0.0
C1452 C 0.2404 0.4627 0.75223 0.0
C1453 C 0.22326 0.43143 0.76007 0.0
C1454 C 0.22131 0.41476 0.7697 0.0
C1455 C 0.2263 0.4135 0.79493 0.0
C1456 C 0.22449 0.39777 0.80385 0.0
C1457 C 0.21759 0.38316 0.78776 0.0
C1458 C 0.21244 0.38424 0.76275 0.0
C1459 C 0.21424 0.39995 0.75373 0.0
H1460 H 0.21619 0.37098 0.7947 0.0
H1461 H 0.23245 0.52321 0.70827 0.0
H1462 H 0.8216 0.29882 0.77299 0.0
H1463 H 0.79635 0.27131 0.75948 0.0
H1464 H 0.82448 0.24422 0.77574 0.0
H1465 H 0.84996 0.27185 0.78918 0.0
H1466 H 0.80639 0.23358 0.73001 0.0
H1467 H 0.79429 0.24098 0.81717 0.0
H1468 H 0.79131 0.25664 0.8543 0.0
H1469 H 0.75121 0.26135 0.81485 0.0
H1470 H 0.75412 0.24594 0.7773 0.0
H1471 H 0.72873 0.1495 0.72207 0.0
H1472 H 0.75576 0.17496 0.73719 0.0
H1473 H 0.73266 0.20744 0.72615 0.0
H1474 H 0.70566 0.1821 0.71132 0.0
H1475 H 0.74903 0.21391 0.7717 0.0
H1476 H 0.76238 0.2081 0.68368 0.0
H1477 H 0.76549 0.1927 0.64631 0.0
H1478 H 0.80322 0.18499 0.68741 0.0
H1479 H 0.80015 0.20015 0.72518 0.0
C1480 C 0.82246 0.28703 0.77363 0.0
C1481 C 0.83774 0.28748 0.78227 0.0
C1482 C 0.80799 0.2713 0.76599 0.0
C1483 C 0.80845 0.25567 0.76693 0.0
C1484 C 0.82383 0.25612 0.77495 0.0
C1485 C 0.83835 0.27189 0.78267 0.0
C1486 C 0.79274 0.23891 0.75974 0.0
C1487 C 0.7939 0.2291 0.73941 0.0
C1488 C 0.77639 0.23323 0.77173 0.0
C1489 C 0.77453 0.24243 0.79433 0.0
C1490 C 0.78493 0.24547 0.81633 0.0
C1491 C 0.78324 0.25429 0.83747 0.0
C1492 C 0.77111 0.26002 0.83691 0.0
C1493 C 0.76061 0.25691 0.81524 0.0
C1494 C 0.76226 0.24812 0.79404 0.0
C1495 C 0.72945 0.16208 0.72285 0.0
C1496 C 0.71509 0.16381 0.71548 0.0
C1497 C 0.74491 0.17662 0.7314 0.0
C1498 C 0.74628 0.19314 0.73263 0.0
C1499 C 0.7319 0.19483 0.7254 0.0
C1500 C 0.71649 0.18034 0.71685 0.0
C1501 C 0.76258 0.20872 0.74166 0.0
C1502 C 0.76153 0.2183 0.76242 0.0
C1503 C 0.77901 0.21416 0.73004 0.0
C1504 C 0.78088 0.20508 0.70735 0.0
C1505 C 0.77123 0.20299 0.68483 0.0
C1506 C 0.773 0.19433 0.66356 0.0
C1507 C 0.7845 0.18782 0.66451 0.0
C1508 C 0.79429 0.19001 0.68672 0.0
C1509 C 0.79254 0.19864 0.70805 0.0
H1510 H 0.78586 0.18113 0.64802 0.0
H1511 H 0.76981 0.26684 0.8533 0.0
H1512 H 0.471 0.10954 0.10256 0.0
H1513 H 0.47017 0.1098 0.05561 0.0
H1514 H 0.43735 0.13302 0.05833 0.0
H1515 H 0.43797 0.13262 0.10544 0.0
H1516 H 0.42575 0.10705 0.02292 0.0
H1517 H 0.48017 0.15779 0.04404 0.0
H1518 H 0.5089 0.1744 0.06512 0.0
H1519 H 0.52664 0.14336 0.02601 0.0
H1520 H 0.49792 0.12639 0.00495 0.0
H1521 H 0.43711 0.1323 0.89069 0.0
H1522 H 0.43674 0.13248 0.93777 0.0
H1523 H 0.46923 0.10888 0.93929 0.0
H1524 H 0.46976 0.10877 0.89227 0.0
H1525 H 0.48079 0.13598 0.9726 0.0
H1526 H 0.42606 0.08485 0.95222 0.0
H1527 H 0.3973 0.06829 0.93121 0.0
H1528 H 0.38017 0.10032 0.96889 0.0
H1529 H 0.40893 0.11724 0.98986 0.0
C1530 C 0.46359 0.1147 0.09318 0.0
C1531 C 0.45461 0.12113 0.10768 0.0
C1532 C 0.46318 0.1149 0.06634 0.0
C1533 C 0.45387 0.12163 0.05345 0.0
C1534 C 0.44465 0.1278 0.06788 0.0
C1535 C 0.44505 0.12761 0.09478 0.0
C1536 C 0.45382 0.12222 0.02492 0.0
C1537 C 0.43777 0.1136 0.01191 0.0
C1538 C 0.46952 0.13048 0.01055 0.0
C1539 C 0.48684 0.14071 0.0231 0.0
C1540 C 0.49015 0.15441 0.04008 0.0
C1541 C 0.50644 0.16391 0.052 0.0
C1542 C 0.51957 0.15991 0.04696 0.0
C1543 C 0.51645 0.14643 0.02992 0.0
C1544 C 0.50018 0.13688 0.01797 0.0
C1545 C 0.44413 0.12711 0.90107 0.0
C1546 C 0.45344 0.12049 0.8878 0.0
C1547 C 0.44386 0.12717 0.92796 0.0
C1548 C 0.45285 0.12057 0.94205 0.0
C1549 C 0.4622 0.11403 0.92881 0.0
C1550 C 0.46244 0.11393 0.90195 0.0
C1551 C 0.45274 0.12069 0.9706 0.0
C1552 C 0.46877 0.12947 0.98361 0.0
C1553 C 0.43702 0.1126 0.98494 0.0
C1554 C 0.41971 0.10243 0.97239 0.0
C1555 C 0.41621 0.08846 0.95585 0.0
C1556 C 0.3999 0.07899 0.94398 0.0
C1557 C 0.38693 0.08328 0.94865 0.0
C1558 C 0.39024 0.09703 0.96525 0.0
C1559 C 0.40654 0.10656 0.97715 0.0
H1560 H 0.37431 0.07593 0.93945 0.0
H1561 H 0.53218 0.16728 0.0562 0.0
H1562 H 0.34154 0.47754 0.89904 0.0
H1563 H 0.33999 0.47526 0.94582 0.0
H1564 H 0.31911 0.41962 0.94038 0.0
H1565 H 0.32039 0.42178 0.89329 0.0
H1566 H 0.30182 0.42779 0.97636 0.0
H1567 H 0.36126 0.44575 0.95662 0.0
H1568 H 0.39001 0.4638 0.93618 0.0
H1569 H 0.39611 0.50915 0.97577 0.0
H1570 H 0.36728 0.49141 0.99617 0.0
H1571 H 0.31676 0.42153 0.11113 0.0
H1572 H 0.31593 0.41947 0.06407 0.0
H1573 H 0.33833 0.47533 0.0587 0.0
H1574 H 0.33945 0.4775 0.1055 0.0
H1575 H 0.35503 0.46447 0.02803 0.0
H1576 H 0.29488 0.44682 0.04581 0.0
H1577 H 0.26605 0.42884 0.06605 0.0
H1578 H 0.26133 0.38289 0.03031 0.0
H1579 H 0.29026 0.40058 0.01012 0.0
C1580 C 0.33661 0.46481 0.90776 0.0
C1581 C 0.33118 0.44985 0.8925 0.0
C1582 C 0.33578 0.46353 0.93452 0.0
C1583 C 0.32967 0.44731 0.94661 0.0
C1584 C 0.32393 0.43227 0.93144 0.0
C1585 C 0.32472 0.43354 0.90458 0.0
C1586 C 0.32943 0.44621 0.97511 0.0
C1587 C 0.3135 0.43558 0.98769 0.0
C1588 C 0.34462 0.45657 0.98987 0.0
C1589 C 0.36204 0.46727 0.97778 0.0
C1590 C 0.36868 0.4596 0.96083 0.0
C1591 C 0.385 0.46977 0.94927 0.0
C1592 C 0.39486 0.48762 0.95463 0.0
C1593 C 0.38845 0.49532 0.97162 0.0
C1594 C 0.37212 0.48521 0.98321 0.0
C1595 C 0.32135 0.43334 0.09987 0.0
C1596 C 0.32819 0.44968 0.11198 0.0
C1597 C 0.32084 0.43214 0.073 0.0
C1598 C 0.32702 0.44725 0.05784 0.0
C1599 C 0.33355 0.46351 0.06998 0.0
C1600 C 0.33413 0.46472 0.09675 0.0
C1601 C 0.32735 0.44636 0.02935 0.0
C1602 C 0.34335 0.45659 0.01674 0.0
C1603 C 0.31223 0.43562 0.01463 0.0
C1604 C 0.29482 0.42499 0.0267 0.0
C1605 C 0.28776 0.43286 0.04244 0.0
C1606 C 0.27139 0.42273 0.05387 0.0
C1607 C 0.26188 0.40473 0.04953 0.0
C1608 C 0.26872 0.39683 0.03369 0.0
C1609 C 0.28509 0.40691 0.02224 0.0
H1610 H 0.24921 0.39691 0.05839 0.0
H1611 H 0.40749 0.49547 0.94566 0.0
H1612 H 0.897 0.32384 0.8934 0.0
H1613 H 0.89602 0.32267 0.9404 0.0
H1614 H 0.85271 0.33222 0.93989 0.0
H1615 H 0.85379 0.33366 0.8929 0.0
H1616 H 0.87669 0.35258 0.97431 0.0
H1617 H 0.84663 0.29169 0.95339 0.0
H1618 H 0.84246 0.26489 0.93232 0.0
H1619 H 0.88784 0.27019 0.97078 0.0
H1620 H 0.89243 0.29718 0.99182 0.0
H1621 H 0.85476 0.33388 0.10634 0.0
H1622 H 0.85339 0.33239 0.05934 0.0
H1623 H 0.89799 0.32488 0.05783 0.0
H1624 H 0.89936 0.32624 0.10483 0.0
H1625 H 0.87256 0.30295 0.02454 0.0
H1626 H 0.90296 0.36425 0.04442 0.0
H1627 H 0.90711 0.39106 0.06546 0.0
H1628 H 0.86083 0.38483 0.02875 0.0
H1629 H 0.85627 0.35783 0.00776 0.0
C1630 C 0.8872 0.32557 0.9033 0.0
C1631 C 0.87546 0.32882 0.88948 0.0
C1632 C 0.88661 0.32484 0.93016 0.0
C1633 C 0.87419 0.3272 0.94368 0.0
C1634 C 0.8624 0.33035 0.92987 0.0
C1635 C 0.863 0.33112 0.90302 0.0
C1636 C 0.87385 0.32695 0.97224 0.0
C1637 C 0.8755 0.3416 0.98528 0.0
C1638 C 0.87272 0.31281 0.98657 0.0
C1639 C 0.86997 0.29655 0.974 0.0
C1640 C 0.85581 0.28722 0.9572 0.0
C1641 C 0.85335 0.27198 0.94529 0.0
C1642 C 0.8649 0.26587 0.95015 0.0
C1643 C 0.87891 0.27496 0.967 0.0
C1644 C 0.88144 0.29022 0.97895 0.0
C1645 C 0.86424 0.33186 0.09599 0.0
C1646 C 0.87722 0.33025 0.10925 0.0
C1647 C 0.86347 0.33106 0.06915 0.0
C1648 C 0.8757 0.3287 0.05507 0.0
C1649 C 0.88844 0.32673 0.06831 0.0
C1650 C 0.88924 0.32756 0.09515 0.0
C1651 C 0.87539 0.32857 0.02654 0.0
C1652 C 0.87366 0.31388 0.01352 0.0
C1653 C 0.87643 0.34266 0.01221 0.0
C1654 C 0.87917 0.35892 0.02474 0.0
C1655 C 0.89359 0.36852 0.041 0.0
C1656 C 0.89603 0.38376 0.05289 0.0
C1657 C 0.88422 0.38962 0.04851 0.0
C1658 C 0.86996 0.38026 0.03217 0.0
C1659 C 0.86744 0.36499 0.02025 0.0
H1660 H 0.88613 0.40143 0.05772 0.0
H1661 H 0.86297 0.25406 0.94091 0.0
H1662 H 0.54182 0.90157 0.10634 0.0
H1663 H 0.54215 0.9011 0.05934 0.0
H1664 H 0.55599 0.86074 0.06119 0.0
H1665 H 0.55592 0.86132 0.10827 0.0
H1666 H 0.57484 0.88525 0.02553 0.0
H1667 H 0.51437 0.8507 0.04839 0.0
H1668 H 0.48708 0.8444 0.07025 0.0
H1669 H 0.48747 0.88725 0.03083 0.0
H1670 H 0.51491 0.89396 0.00899 0.0
H1671 H 0.55505 0.86 0.89423 0.0
H1672 H 0.55569 0.86019 0.94128 0.0
H1673 H 0.54072 0.89975 0.94222 0.0
H1674 H 0.53974 0.89938 0.89523 0.0
H1675 H 0.52235 0.87495 0.9766 0.0
H1676 H 0.58303 0.90974 0.95412 0.0
H1677 H 0.61038 0.91609 0.93237 0.0
H1678 H 0.60959 0.87279 0.971 0.0
H1679 H 0.5821 0.86604 0.99273 0.0
C1680 C 0.54499 0.89263 0.09674 0.0
C1681 C 0.54877 0.88142 0.11098 0.0
C1682 C 0.5451 0.89233 0.06988 0.0
C1683 C 0.54886 0.88072 0.05675 0.0
C1684 C 0.55301 0.86977 0.07093 0.0
C1685 C 0.55292 0.87009 0.09781 0.0
C1686 C 0.54831 0.87991 0.02822 0.0
C1687 C 0.56329 0.88276 0.01482 0.0
C1688 C 0.53335 0.877 0.01425 0.0
C1689 C 0.51679 0.87293 0.02724 0.0
C1690 C 0.50871 0.85886 0.04453 0.0
C1691 C 0.4932 0.8552 0.05689 0.0
C1692 C 0.48557 0.86544 0.05198 0.0
C1693 C 0.49341 0.87934 0.03464 0.0
C1694 C 0.50893 0.88307 0.02225 0.0
C1695 C 0.55192 0.86875 0.90448 0.0
C1696 C 0.54738 0.8797 0.89105 0.0
C1697 C 0.55237 0.8689 0.93136 0.0
C1698 C 0.54845 0.88013 0.9453 0.0
C1699 C 0.54381 0.89099 0.93189 0.0
C1700 C 0.5433 0.8908 0.90504 0.0
C1701 C 0.54893 0.88042 0.97385 0.0
C1702 C 0.53391 0.87743 0.98728 0.0
C1703 C 0.56386 0.8832 0.98783 0.0
C1704 C 0.58042 0.88728 0.97485 0.0
C1705 C 0.58862 0.90149 0.95783 0.0
C1706 C 0.60416 0.90518 0.94553 0.0
C1707 C 0.61169 0.89482 0.95025 0.0
C1708 C 0.60372 0.88078 0.96733 0.0
C1709 C 0.58817 0.87703 0.97967 0.0
H1710 H 0.62372 0.8977 0.94071 0.0
H1711 H 0.47356 0.86259 0.06157 0.0
H1712 H 0.6836 0.579 0.10912 0.0
H1713 H 0.68565 0.58122 0.06213 0.0
H1714 H 0.66039 0.52509 0.05649 0.0
H1715 H 0.65858 0.52282 0.10329 0.0
H1716 H 0.68778 0.54012 0.02512 0.0
H1717 H 0.63835 0.54719 0.04443 0.0
H1718 H 0.62308 0.56074 0.06554 0.0
H1719 H 0.65843 0.60995 0.03046 0.0
H1720 H 0.67407 0.59674 0.00939 0.0
H1721 H 0.65822 0.52379 0.89672 0.0
H1722 H 0.66002 0.52579 0.94359 0.0
H1723 H 0.68871 0.58202 0.93864 0.0
H1724 H 0.68696 0.58012 0.89156 0.0
H1725 H 0.66221 0.56966 0.97509 0.0
H1726 H 0.71025 0.56167 0.95319 0.0
H1727 H 0.72497 0.54766 0.93179 0.0
H1728 H 0.69175 0.49974 0.97163 0.0
H1729 H 0.67664 0.51338 0.99301 0.0
C1730 C 0.67848 0.56715 0.09783 0.0
C1731 C 0.6709 0.55074 0.10986 0.0
C1732 C 0.6796 0.56843 0.071 0.0
C1733 C 0.67304 0.55331 0.05578 0.0
C1734 C 0.66556 0.53694 0.06783 0.0
C1735 C 0.66448 0.53565 0.09458 0.0
C1736 C 0.67397 0.5544 0.02728 0.0
C1737 C 0.68205 0.54644 0.01419 0.0
C1738 C 0.66692 0.56308 0.01302 0.0
C1739 C 0.6575 0.57102 0.02557 0.0
C1740 C 0.64295 0.56093 0.04138 0.0
C1741 C 0.63421 0.56854 0.05331 0.0
C1742 C 0.63982 0.58621 0.04941 0.0
C1743 C 0.65413 0.59628 0.0335 0.0
C1744 C 0.66293 0.58873 0.02155 0.0
C1745 C 0.66495 0.53659 0.90559 0.0
C1746 C 0.6725 0.5518 0.89049 0.0
C1747 C 0.66601 0.53771 0.93236 0.0
C1748 C 0.67464 0.55405 0.94456 0.0
C1749 C 0.68204 0.56929 0.92957 0.0
C1750 C 0.68107 0.56817 0.90272 0.0
C1751 C 0.67573 0.5551 0.97301 0.0
C1752 C 0.66807 0.56348 0.98607 0.0
C1753 C 0.6831 0.54675 0.98727 0.0
C1754 C 0.69222 0.53852 0.97455 0.0
C1755 C 0.70599 0.5481 0.95724 0.0
C1756 C 0.71442 0.54024 0.94514 0.0
C1757 C 0.70927 0.52281 0.95031 0.0
C1758 C 0.69571 0.51323 0.96764 0.0
C1759 C 0.68722 0.52103 0.97977 0.0
H1760 H 0.71582 0.51674 0.94092 0.0
H1761 H 0.63304 0.59208 0.05867 0.0
H1762 H 0.11753 0.64316 0.89698 0.0
H1763 H 0.11676 0.64418 0.94393 0.0
H1764 H 0.12234 0.69546 0.94018 0.0
H1765 H 0.12302 0.69449 0.89308 0.0
H1766 H 0.14461 0.69287 0.9762 0.0
H1767 H 0.08383 0.66246 0.95397 0.0
H1768 H 0.05728 0.63983 0.93236 0.0
H1769 H 0.06194 0.59977 0.97205 0.0
H1770 H 0.08868 0.62217 0.99362 0.0
H1771 H 0.12635 0.69548 0.10915 0.0
H1772 H 0.12591 0.6965 0.06212 0.0
H1773 H 0.11391 0.64286 0.05865 0.0
H1774 H 0.11393 0.64165 0.10556 0.0
H1775 H 0.0942 0.64792 0.02588 0.0
H1776 H 0.15536 0.67738 0.0462 0.0
H1777 H 0.18248 0.6994 0.06735 0.0
H1778 H 0.17783 0.74049 0.03102 0.0
H1779 H 0.15053 0.71869 0.00992 0.0
C1780 C 0.11856 0.65464 0.90614 0.0
C1781 C 0.12029 0.66873 0.89138 0.0
C1782 C 0.11807 0.65519 0.93295 0.0
C1783 C 0.11937 0.66984 0.9455 0.0
C1784 C 0.12129 0.68402 0.93083 0.0
C1785 C 0.12162 0.68342 0.90397 0.0
C1786 C 0.11884 0.67034 0.97396 0.0
C1787 C 0.13348 0.68323 0.98711 0.0
C1788 C 0.10448 0.6575 0.9881 0.0
C1789 C 0.08835 0.644 0.97524 0.0
C1790 C 0.07928 0.64882 0.95794 0.0
C1791 C 0.06418 0.63603 0.94572 0.0
C1792 C 0.05795 0.61837 0.95078 0.0
C1793 C 0.06679 0.61346 0.96812 0.0
C1794 C 0.08191 0.62619 0.98037 0.0
C1795 C 0.12362 0.68392 0.09833 0.0
C1796 C 0.12021 0.6685 0.11102 0.0
C1797 C 0.12345 0.68454 0.07146 0.0
C1798 C 0.12006 0.66981 0.05681 0.0
C1799 C 0.11654 0.65438 0.06952 0.0
C1800 C 0.11661 0.65372 0.09634 0.0
C1801 C 0.12007 0.67036 0.02826 0.0
C1802 C 0.10531 0.65765 0.01504 0.0
C1803 C 0.13439 0.68328 0.01407 0.0
C1804 C 0.1508 0.69641 0.02672 0.0
C1805 C 0.16004 0.69111 0.04289 0.0
C1806 C 0.17546 0.70355 0.05484 0.0
C1807 C 0.18185 0.72134 0.05059 0.0
C1808 C 0.17285 0.72671 0.03433 0.0
C1809 C 0.15741 0.71432 0.02236 0.0
H1810 H 0.19379 0.73095 0.05985 0.0
H1811 H 0.04626 0.60849 0.94131 0.0
H1812 H 0.85072 0.52047 0.60954 0.0
H1813 H 0.84839 0.51967 0.5626 0.0
H1814 H 0.89141 0.57259 0.55858 0.0
H1815 H 0.89373 0.57353 0.60551 0.0
H1816 H 0.86502 0.56709 0.52562 0.0
H1817 H 0.89805 0.53895 0.54717 0.0
H1818 H 0.90334 0.51736 0.56929 0.0
H1819 H 0.85773 0.47556 0.53373 0.0
H1820 H 0.85203 0.49692 0.51166 0.0
H1821 H 0.89175 0.57201 0.39643 0.0
H1822 H 0.88957 0.57182 0.44321 0.0
H1823 H 0.84928 0.51756 0.44119 0.0
H1824 H 0.85175 0.51757 0.39426 0.0
H1825 H 0.87216 0.52263 0.47738 0.0
H1826 H 0.83993 0.55068 0.4537 0.0
H1827 H 0.83459 0.57221 0.43153 0.0
H1828 H 0.87816 0.61398 0.47088 0.0
H1829 H 0.88392 0.5927 0.49304 0.0
C1830 C 0.8596 0.53197 0.59866 0.0
C1831 C 0.87247 0.54704 0.61117 0.0
C1832 C 0.85829 0.53147 0.57185 0.0
C1833 C 0.86986 0.546 0.5571 0.0
C1834 C 0.88237 0.56123 0.5696 0.0
C1835 C 0.88371 0.56173 0.5964 0.0
C1836 C 0.86926 0.54521 0.5286 0.0
C1837 C 0.86674 0.55748 0.51503 0.0
C1838 C 0.87105 0.53238 0.51484 0.0
C1839 C 0.87451 0.51953 0.52799 0.0
C1840 C 0.88907 0.52515 0.54423 0.0
C1841 C 0.89216 0.51296 0.55673 0.0
C1842 C 0.88085 0.4951 0.55298 0.0
C1843 C 0.86646 0.4894 0.53665 0.0
C1844 C 0.8633 0.50154 0.52413 0.0
C1845 C 0.88234 0.56006 0.40592 0.0
C1846 C 0.87188 0.54481 0.39168 0.0
C1847 C 0.88104 0.55999 0.43268 0.0
C1848 C 0.86907 0.54474 0.44574 0.0
C1849 C 0.85857 0.52949 0.43153 0.0
C1850 C 0.85996 0.52952 0.40474 0.0
C1851 C 0.86801 0.5446 0.47427 0.0
C1852 C 0.87027 0.53216 0.48789 0.0
C1853 C 0.86593 0.55726 0.48806 0.0
C1854 C 0.86244 0.57009 0.47488 0.0
C1855 C 0.84845 0.56446 0.4575 0.0
C1856 C 0.84534 0.57662 0.44495 0.0
C1857 C 0.85605 0.59445 0.44976 0.0
C1858 C 0.86988 0.60016 0.46717 0.0
C1859 C 0.87306 0.58805 0.47975 0.0
H1860 H 0.85363 0.60385 0.44002 0.0
H1861 H 0.88326 0.48568 0.56267 0.0
H1862 H 0.33999 0.86269 0.60299 0.0
H1863 H 0.33833 0.86317 0.55621 0.0
H1864 H 0.31335 0.8943 0.5614 0.0
H1865 H 0.31483 0.89374 0.60852 0.0
H1866 H 0.29794 0.86819 0.52489 0.0
H1867 H 0.35547 0.91377 0.54622 0.0
H1868 H 0.38423 0.92692 0.56744 0.0
H1869 H 0.39565 0.89116 0.52792 0.0
H1870 H 0.36684 0.87761 0.50673 0.0
H1871 H 0.31239 0.89111 0.39098 0.0
H1872 H 0.31118 0.8918 0.43802 0.0
H1873 H 0.33874 0.86311 0.44291 0.0
H1874 H 0.34023 0.86264 0.39605 0.0
H1875 H 0.35267 0.89033 0.47458 0.0
H1876 H 0.29454 0.84377 0.455 0.0
H1877 H 0.26566 0.8304 0.43408 0.0
H1878 H 0.25537 0.86801 0.47021 0.0
H1879 H 0.2843 0.88176 0.49109 0.0
C1880 C 0.33408 0.86959 0.59423 0.0
C1881 C 0.32763 0.87827 0.60943 0.0
C1882 C 0.33319 0.8699 0.56747 0.0
C1883 C 0.32594 0.87898 0.55531 0.0
C1884 C 0.31905 0.88727 0.57041 0.0
C1885 C 0.31994 0.88698 0.59729 0.0
C1886 C 0.32592 0.87998 0.52683 0.0
C1887 C 0.30992 0.87329 0.51385 0.0
C1888 C 0.34153 0.88639 0.51247 0.0
C1889 C 0.35893 0.89459 0.52505 0.0
C1890 C 0.36406 0.90863 0.5422 0.0
C1891 C 0.38038 0.91616 0.5542 0.0
C1892 C 0.39175 0.90986 0.54907 0.0
C1893 C 0.38683 0.89602 0.53188 0.0
C1894 C 0.37051 0.88842 0.51985 0.0
C1895 C 0.31807 0.88485 0.40211 0.0
C1896 C 0.32641 0.87683 0.38985 0.0
C1897 C 0.31733 0.88521 0.42898 0.0
C1898 C 0.32478 0.87741 0.44401 0.0
C1899 C 0.33293 0.86924 0.43172 0.0
C1900 C 0.33373 0.86893 0.40493 0.0
C1901 C 0.32465 0.8782 0.47254 0.0
C1902 C 0.34067 0.88531 0.48556 0.0
C1903 C 0.30906 0.87217 0.48688 0.0
C1904 C 0.29166 0.86391 0.47438 0.0
C1905 C 0.28618 0.84928 0.45831 0.0
C1906 C 0.26979 0.84162 0.44649 0.0
C1907 C 0.25871 0.84839 0.45075 0.0
C1908 C 0.26398 0.8628 0.46689 0.0
C1909 C 0.28036 0.87053 0.47874 0.0
H1910 H 0.24603 0.84244 0.44158 0.0
H1911 H 0.40438 0.91571 0.55839 0.0
H1912 H 0.47242 0.35937 0.60411 0.0
H1913 H 0.47031 0.35773 0.55725 0.0
H1914 H 0.43239 0.3028 0.562 0.0
H1915 H 0.43442 0.30436 0.60909 0.0
H1916 H 0.45827 0.31033 0.52559 0.0
H1917 H 0.41865 0.33025 0.54774 0.0
H1918 H 0.40933 0.3491 0.56925 0.0
H1919 H 0.44906 0.39379 0.52909 0.0
H1920 H 0.4588 0.37525 0.50762 0.0
H1921 H 0.43675 0.30355 0.39247 0.0
H1922 H 0.43475 0.30239 0.43945 0.0
H1923 H 0.46917 0.35818 0.44311 0.0
H1924 H 0.47093 0.35947 0.39618 0.0
H1925 H 0.44272 0.3484 0.4756 0.0
H1926 H 0.48371 0.32933 0.45583 0.0
H1927 H 0.49388 0.31102 0.4348 0.0
H1928 H 0.45247 0.26533 0.47077 0.0
H1929 H 0.4419 0.28335 0.49175 0.0
C1930 C 0.4636 0.34694 0.59521 0.0
C1931 C 0.45355 0.33199 0.61026 0.0
C1932 C 0.46236 0.34604 0.56843 0.0
C1933 C 0.45107 0.33018 0.55617 0.0
C1934 C 0.44115 0.31517 0.57111 0.0
C1935 C 0.44228 0.31609 0.59797 0.0
C1936 C 0.44989 0.32934 0.5277 0.0
C1937 C 0.45457 0.31841 0.51463 0.0
C1938 C 0.44543 0.34019 0.51346 0.0
C1939 C 0.43955 0.35137 0.52623 0.0
C1940 C 0.42549 0.34412 0.54364 0.0
C1941 C 0.42012 0.35474 0.55581 0.0
C1942 C 0.42862 0.37263 0.55058 0.0
C1943 C 0.44249 0.37993 0.53314 0.0
C1944 C 0.44793 0.36936 0.52094 0.0
C1945 C 0.44387 0.31557 0.40331 0.0
C1946 C 0.45405 0.33159 0.39066 0.0
C1947 C 0.44277 0.31488 0.43015 0.0
C1948 C 0.45197 0.33017 0.44484 0.0
C1949 C 0.46195 0.34621 0.43219 0.0
C1950 C 0.46299 0.34692 0.40537 0.0
C1951 C 0.45132 0.32954 0.47339 0.0
C1952 C 0.44629 0.3402 0.48651 0.0
C1953 C 0.45555 0.31851 0.48767 0.0
C1954 C 0.4619 0.30766 0.47512 0.0
C1955 C 0.47669 0.31536 0.45909 0.0
C1956 C 0.48254 0.30504 0.44721 0.0
C1957 C 0.4738 0.28702 0.45139 0.0
C1958 C 0.45921 0.27929 0.46751 0.0
C1959 C 0.45329 0.28955 0.47942 0.0
H1960 H 0.47835 0.27905 0.44218 0.0
H1961 H 0.42444 0.38084 0.56002 0.0
H1962 H 0.10728 0.42812 0.60762 0.0
H1963 H 0.10864 0.42824 0.56067 0.0
H1964 H 0.14495 0.48371 0.56152 0.0
H1965 H 0.1434 0.48373 0.60852 0.0
H1966 H 0.12067 0.47579 0.52568 0.0
H1967 H 0.15873 0.45435 0.54978 0.0
H1968 H 0.16737 0.43526 0.57212 0.0
H1969 H 0.12682 0.39055 0.53303 0.0
H1970 H 0.11777 0.40935 0.51071 0.0
H1971 H 0.14762 0.48226 0.39531 0.0
H1972 H 0.14798 0.4824 0.44239 0.0
H1973 H 0.10785 0.42811 0.4431 0.0
H1974 H 0.10737 0.42788 0.396 0.0
H1975 H 0.13481 0.43583 0.47793 0.0
H1976 H 0.09666 0.45771 0.45451 0.0
H1977 H 0.08856 0.47718 0.43202 0.0
H1978 H 0.1303 0.52164 0.46989 0.0
H1979 H 0.13881 0.50245 0.49233 0.0
C1980 C 0.11558 0.44034 0.5978 0.0
C1981 C 0.12527 0.45591 0.61174 0.0
C1982 C 0.11641 0.44038 0.57097 0.0
C1983 C 0.12708 0.45595 0.55756 0.0
C1984 C 0.13666 0.47154 0.57145 0.0
C1985 C 0.1358 0.47152 0.5983 0.0
C1986 C 0.128 0.456 0.52904 0.0
C1987 C 0.12403 0.46724 0.51527 0.0
C1988 C 0.13204 0.4446 0.5154 0.0
C1989 C 0.13746 0.43325 0.52876 0.0
C1990 C 0.15156 0.44043 0.5461 0.0
C1991 C 0.15655 0.42966 0.55873 0.0
C1992 C 0.14763 0.41169 0.55405 0.0
C1993 C 0.13371 0.40446 0.53667 0.0
C1994 C 0.12865 0.41518 0.524 0.0
C1995 C 0.13894 0.47033 0.4055 0.0
C1996 C 0.12742 0.45508 0.392 0.0
C1997 C 0.13912 0.47045 0.43237 0.0
C1998 C 0.12784 0.4553 0.44621 0.0
C1999 C 0.11665 0.43993 0.43277 0.0
C2000 C 0.11636 0.43984 0.40589 0.0
C2001 C 0.12748 0.45557 0.4747 0.0
C2002 C 0.13153 0.4444 0.48841 0.0
C2003 C 0.12361 0.46709 0.4883 0.0
C2004 C 0.11849 0.47866 0.47488 0.0
C2005 C 0.10421 0.47165 0.45787 0.0
C2006 C 0.09953 0.48264 0.44516 0.0
C2007 C 0.10894 0.50064 0.44947 0.0
C2008 C 0.12303 0.5077 0.46654 0.0
C2009 C 0.12779 0.49677 0.47927 0.0
H2010 H 0.10529 0.50913 0.43962 0.0
H2011 H 0.15151 0.40338 0.56384 0.0
H2012 H 0.66536 0.14295 0.39736 0.0
H2013 H 0.66811 0.14372 0.44413 0.0
H2014 H 0.69351 0.11296 0.43948 0.0
H2015 H 0.69067 0.11201 0.39253 0.0
H2016 H 0.66813 0.10051 0.47577 0.0
H2017 H 0.71699 0.15589 0.4539 0.0
H2018 H 0.73245 0.18467 0.43275 0.0
H2019 H 0.70047 0.2007 0.4732 0.0
H2020 H 0.68463 0.17191 0.49433 0.0
H2021 H 0.68995 0.11107 0.60891 0.0
H2022 H 0.69281 0.11239 0.562 0.0
H2023 H 0.66683 0.14263 0.5582 0.0
H2024 H 0.66405 0.14147 0.60505 0.0
H2025 H 0.69493 0.15555 0.52614 0.0
H2026 H 0.64474 0.0996 0.54527 0.0
H2027 H 0.62892 0.07074 0.56618 0.0
H2028 H 0.66333 0.05583 0.53058 0.0
H2029 H 0.67953 0.08471 0.50973 0.0
C2030 C 0.67165 0.13644 0.40626 0.0
C2031 C 0.67783 0.12744 0.39128 0.0
C2032 C 0.67327 0.13696 0.433 0.0
C2033 C 0.68117 0.12854 0.4453 0.0
C2034 C 0.68741 0.11958 0.43037 0.0
C2035 C 0.68583 0.1191 0.40357 0.0
C2036 C 0.68229 0.1286 0.47378 0.0
C2037 C 0.67429 0.11254 0.48678 0.0
C2038 C 0.68999 0.14431 0.48815 0.0
C2039 C 0.69952 0.16167 0.47554 0.0
C2040 C 0.71316 0.1655 0.45814 0.0
C2041 C 0.722 0.18182 0.44618 0.0
C2042 C 0.71742 0.19449 0.45158 0.0
C2043 C 0.704 0.19087 0.46902 0.0
C2044 C 0.69509 0.17455 0.48101 0.0
C2045 C 0.68494 0.11808 0.59808 0.0
C2046 C 0.6767 0.1261 0.61063 0.0
C2047 C 0.68653 0.11877 0.57129 0.0
C2048 C 0.67987 0.12746 0.55659 0.0
C2049 C 0.67205 0.13586 0.56916 0.0
C2050 C 0.67042 0.13513 0.59592 0.0
C2051 C 0.68063 0.12746 0.52808 0.0
C2052 C 0.68895 0.14352 0.5151 0.0
C2053 C 0.6732 0.11176 0.51372 0.0
C2054 C 0.66347 0.09438 0.52619 0.0
C2055 C 0.64903 0.09022 0.54208 0.0
C2056 C 0.63998 0.07385 0.55388 0.0
C2057 C 0.64515 0.06148 0.54977 0.0
C2058 C 0.65936 0.06544 0.53378 0.0
C2059 C 0.66848 0.0818 0.52196 0.0
H2060 H 0.63812 0.04881 0.55892 0.0
H2061 H 0.72429 0.20712 0.4423 0.0
H2062 H 0.52319 0.66872 0.39486 0.0
H2063 H 0.52479 0.6712 0.44167 0.0
H2064 H 0.57946 0.68675 0.439 0.0
H2065 H 0.5778 0.68382 0.39211 0.0
H2066 H 0.56378 0.66332 0.47518 0.0
H2067 H 0.56552 0.71642 0.452 0.0
H2068 H 0.55588 0.73489 0.43016 0.0
H2069 H 0.50683 0.70842 0.47005 0.0
H2070 H 0.51608 0.6896 0.49187 0.0
H2071 H 0.57705 0.68593 0.60788 0.0
H2072 H 0.57909 0.68867 0.56097 0.0
H2073 H 0.52362 0.6691 0.55653 0.0
H2074 H 0.52152 0.66647 0.60337 0.0
H2075 H 0.5419 0.69668 0.52412 0.0
H2076 H 0.53983 0.64243 0.54487 0.0
H2077 H 0.54972 0.62413 0.56667 0.0
H2078 H 0.6001 0.65355 0.53111 0.0
H2079 H 0.59058 0.67219 0.50937 0.0
C2080 C 0.53559 0.67277 0.40423 0.0
C2081 C 0.55039 0.67611 0.38983 0.0
C2082 C 0.53651 0.67428 0.431 0.0
C2083 C 0.55232 0.67941 0.44388 0.0
C2084 C 0.56714 0.68282 0.4295 0.0
C2085 C 0.56619 0.68118 0.40271 0.0
C2086 C 0.55317 0.68054 0.47241 0.0
C2087 C 0.55929 0.67089 0.48584 0.0
C2088 C 0.54702 0.69014 0.4864 0.0
C2089 C 0.54144 0.7015 0.47342 0.0
C2090 C 0.55263 0.71445 0.45599 0.0
C2091 C 0.54724 0.725 0.44363 0.0
C2092 C 0.53074 0.72281 0.44867 0.0
C2093 C 0.51961 0.71009 0.46614 0.0
C2094 C 0.52492 0.69949 0.47854 0.0
C2095 C 0.56532 0.68233 0.5969 0.0
C2096 C 0.54911 0.6759 0.60927 0.0
C2097 C 0.56649 0.68385 0.57012 0.0
C2098 C 0.55147 0.67891 0.55525 0.0
C2099 C 0.53537 0.67298 0.56763 0.0
C2100 C 0.53418 0.67143 0.59438 0.0
C2101 C 0.55236 0.67937 0.52675 0.0
C2102 C 0.54654 0.68928 0.51337 0.0
C2103 C 0.55886 0.67008 0.51279 0.0
C2104 C 0.56456 0.65882 0.52572 0.0
C2105 C 0.55306 0.64508 0.54186 0.0
C2106 C 0.55859 0.63464 0.55418 0.0
C2107 C 0.57555 0.63771 0.55033 0.0
C2108 C 0.58698 0.65121 0.5341 0.0
C2109 C 0.58152 0.66171 0.52177 0.0
H2110 H 0.5798 0.62961 0.55989 0.0
H2111 H 0.52659 0.73098 0.43908 0.0
H2112 H 0.51873 0.13844 0.17752 0.0
H2113 H 0.54595 0.1401 0.19169 0.0
H2114 H 0.52227 0.11768 0.26475 0.0
H2115 H 0.49507 0.11602 0.25076 0.0
H2116 H 0.55553 0.1456 0.27009 0.0
H2117 H 0.5261 0.09273 0.21993 0.0
H2118 H 0.51167 0.07533 0.18123 0.0
H2119 H 0.55844 0.10603 0.13738 0.0
H2120 H 0.57307 0.12377 0.17578 0.0
H2121 H 0.61207 0.11774 0.31864 0.0
H2122 H 0.58704 0.1194 0.30234 0.0
H2123 H 0.61315 0.13825 0.22949 0.0
H2124 H 0.63816 0.13628 0.24558 0.0
H2125 H 0.57988 0.11401 0.22231 0.0
H2126 H 0.61 0.16596 0.27257 0.0
H2127 H 0.6246 0.18365 0.31096 0.0
H2128 H 0.57706 0.15549 0.35411 0.0
H2129 H 0.56223 0.13745 0.31606 0.0
C2130 C 0.51936 0.13393 0.19663 0.0
C2131 C 0.50476 0.12704 0.21301 0.0
C2132 C 0.53489 0.13484 0.20466 0.0
C2133 C 0.53608 0.12888 0.22919 0.0
C2134 C 0.52163 0.12234 0.24575 0.0
C2135 C 0.50609 0.12135 0.2377 0.0
C2136 C 0.55227 0.12918 0.23756 0.0
C2137 C 0.56078 0.13856 0.2598 0.0
C2138 C 0.55936 0.12039 0.22371 0.0
C2139 C 0.55061 0.1097 0.20065 0.0
C2140 C 0.53326 0.09586 0.20198 0.0
C2141 C 0.52505 0.08592 0.18011 0.0
C2142 C 0.53412 0.08961 0.15684 0.0
C2143 C 0.55143 0.10321 0.15541 0.0
C2144 C 0.55968 0.1132 0.17722 0.0
C2145 C 0.61251 0.12228 0.29916 0.0
C2146 C 0.6271 0.12694 0.28341 0.0
C2147 C 0.59822 0.12331 0.2899 0.0
C2148 C 0.59831 0.1292 0.2648 0.0
C2149 C 0.61282 0.13372 0.24894 0.0
C2150 C 0.62711 0.13263 0.25817 0.0
C2151 C 0.58309 0.13029 0.25504 0.0
C2152 C 0.57474 0.12117 0.23252 0.0
C2153 C 0.57619 0.13939 0.26859 0.0
C2154 C 0.58504 0.15025 0.29151 0.0
C2155 C 0.60269 0.16344 0.2903 0.0
C2156 C 0.611 0.17355 0.31199 0.0
C2157 C 0.60177 0.17067 0.33497 0.0
C2158 C 0.58419 0.1577 0.33629 0.0
C2159 C 0.57582 0.14754 0.31466 0.0
H2160 H 0.60823 0.17851 0.35174 0.0
H2161 H 0.52775 0.08189 0.13993 0.0
H2162 H 0.48926 0.61767 0.32582 0.0
H2163 H 0.46219 0.59171 0.31251 0.0
H2164 H 0.47709 0.6041 0.23297 0.0
H2165 H 0.50413 0.63021 0.24615 0.0
H2166 H 0.44289 0.59381 0.24024 0.0
H2167 H 0.48197 0.57303 0.26322 0.0
H2168 H 0.5022 0.56921 0.29148 0.0
H2169 H 0.46148 0.54334 0.34747 0.0
H2170 H 0.44107 0.54724 0.31968 0.0
H2171 H 0.38792 0.51172 0.18221 0.0
H2172 H 0.41277 0.5387 0.19819 0.0
H2173 H 0.39464 0.5235 0.27603 0.0
H2174 H 0.36972 0.49633 0.26011 0.0
H2175 H 0.42952 0.53536 0.27142 0.0
H2176 H 0.38997 0.55492 0.24717 0.0
H2177 H 0.36986 0.55864 0.2185 0.0
H2178 H 0.41147 0.58665 0.16453 0.0
H2179 H 0.43179 0.58289 0.19272 0.0
C2180 C 0.48674 0.61491 0.30549 0.0
C2181 C 0.49885 0.62593 0.28702 0.0
C2182 C 0.47129 0.60004 0.29792 0.0
C2183 C 0.46772 0.59586 0.27176 0.0
C2184 C 0.4796 0.60707 0.25326 0.0
C2185 C 0.49506 0.62195 0.26082 0.0
C2186 C 0.45172 0.57966 0.26367 0.0
C2187 C 0.44005 0.58101 0.24683 0.0
C2188 C 0.44781 0.563 0.27278 0.0
C2189 C 0.46005 0.5606 0.28949 0.0
C2190 C 0.47737 0.56666 0.28165 0.0
C2191 C 0.48886 0.56445 0.29757 0.0
C2192 C 0.48314 0.55608 0.32129 0.0
C2193 C 0.4659 0.54985 0.32911 0.0
C2194 C 0.45436 0.55204 0.31328 0.0
C2195 C 0.38917 0.51414 0.20273 0.0
C2196 C 0.37686 0.50193 0.21992 0.0
C2197 C 0.40334 0.5296 0.21182 0.0
C2198 C 0.40546 0.53319 0.23828 0.0
C2199 C 0.39322 0.52099 0.25553 0.0
C2200 C 0.37898 0.50552 0.24642 0.0
C2201 C 0.42073 0.54949 0.24787 0.0
C2202 C 0.43228 0.54816 0.26497 0.0
C2203 C 0.42454 0.56616 0.23895 0.0
C2204 C 0.41237 0.56848 0.22197 0.0
C2205 C 0.3948 0.56175 0.22909 0.0
C2206 C 0.38337 0.56389 0.21295 0.0
C2207 C 0.38937 0.57284 0.18968 0.0
C2208 C 0.40683 0.5797 0.18255 0.0
C2209 C 0.41832 0.57759 0.19862 0.0
H2210 H 0.3805 0.57448 0.17721 0.0
H2211 H 0.49206 0.55438 0.33358 0.0
H2212 H 0.89451 0.49968 0.31628 0.0
H2213 H 0.89375 0.47319 0.30099 0.0
H2214 H 0.85326 0.46471 0.24683 0.0
H2215 H 0.85351 0.49089 0.26283 0.0
H2216 H 0.84622 0.43493 0.26637 0.0
H2217 H 0.89718 0.48244 0.22891 0.0
H2218 H 0.92529 0.5101 0.22779 0.0
H2219 H 0.94856 0.48762 0.27546 0.0
H2220 H 0.92052 0.45989 0.2772 0.0
H2221 H 0.85991 0.37655 0.18601 0.0
H2222 H 0.85843 0.40189 0.20197 0.0
H2223 H 0.89049 0.40563 0.26685 0.0
H2224 H 0.89183 0.3802 0.25124 0.0
H2225 H 0.90154 0.43769 0.24033 0.0
H2226 H 0.84935 0.3899 0.27711 0.0
H2227 H 0.82121 0.36231 0.27559 0.0
H2228 H 0.80031 0.38588 0.22538 0.0
H2229 H 0.82843 0.41357 0.2263 0.0
C2230 C 0.88537 0.49211 0.30122 0.0
C2231 C 0.87412 0.49738 0.29065 0.0
C2232 C 0.88503 0.47702 0.29236 0.0
C2233 C 0.87371 0.46713 0.27234 0.0
C2234 C 0.86215 0.47215 0.26221 0.0
C2235 C 0.86232 0.48712 0.27134 0.0
C2236 C 0.87404 0.45163 0.26191 0.0
C2237 C 0.8583 0.43563 0.26034 0.0
C2238 C 0.88981 0.45242 0.25428 0.0
C2239 C 0.90669 0.46912 0.25337 0.0
C2240 C 0.90825 0.48343 0.23933 0.0
C2241 C 0.92417 0.49912 0.23856 0.0
C2242 C 0.93869 0.50062 0.25157 0.0
C2243 C 0.9373 0.48644 0.2654 0.0
C2244 C 0.9214 0.47073 0.26628 0.0
C2245 C 0.86657 0.38273 0.20373 0.0
C2246 C 0.87596 0.3764 0.21741 0.0
C2247 C 0.86568 0.39716 0.21283 0.0
C2248 C 0.87432 0.40557 0.23561 0.0
C2249 C 0.88375 0.3993 0.24923 0.0
C2250 C 0.88444 0.38475 0.24034 0.0
C2251 C 0.8738 0.42111 0.24506 0.0
C2252 C 0.8895 0.43709 0.24634 0.0
C2253 C 0.85799 0.42036 0.25204 0.0
C2254 C 0.84106 0.40375 0.25155 0.0
C2255 C 0.83881 0.38916 0.26555 0.0
C2256 C 0.82285 0.37351 0.26484 0.0
C2257 C 0.80899 0.37232 0.25033 0.0
C2258 C 0.81106 0.38681 0.23657 0.0
C2259 C 0.827 0.40248 0.2372 0.0
H2260 H 0.79665 0.3602 0.24981 0.0
H2261 H 0.95103 0.51273 0.25085 0.0
H2262 H 0.48926 0.87631 0.17381 0.0
H2263 H 0.46206 0.87502 0.18699 0.0
H2264 H 0.4727 0.86886 0.26606 0.0
H2265 H 0.49978 0.86989 0.25297 0.0
H2266 H 0.43881 0.84747 0.25466 0.0
H2267 H 0.4809 0.9083 0.24338 0.0
H2268 H 0.50301 0.9342 0.21991 0.0
H2269 H 0.46509 0.92641 0.16211 0.0
H2270 H 0.44281 0.90029 0.18508 0.0
H2271 H 0.3844 0.87311 0.31877 0.0
H2272 H 0.4093 0.87123 0.30222 0.0
H2273 H 0.39466 0.87561 0.22465 0.0
H2274 H 0.36971 0.87757 0.24111 0.0
H2275 H 0.42963 0.89699 0.23332 0.0
H2276 H 0.38704 0.83682 0.24637 0.0
H2277 H 0.36511 0.81124 0.27059 0.0
H2278 H 0.40411 0.8181 0.32588 0.0
H2279 H 0.42623 0.8439 0.30218 0.0
C2280 C 0.48574 0.87456 0.19398 0.0
C2281 C 0.49669 0.87329 0.21239 0.0
C2282 C 0.47023 0.8739 0.20149 0.0
C2283 C 0.46547 0.87208 0.22756 0.0
C2284 C 0.47614 0.8703 0.24586 0.0
C2285 C 0.49162 0.87093 0.23836 0.0
C2286 C 0.44959 0.87245 0.23587 0.0
C2287 C 0.43688 0.85837 0.25022 0.0
C2288 C 0.44689 0.88651 0.22959 0.0
C2289 C 0.46025 0.90223 0.21579 0.0
C2290 C 0.47732 0.91202 0.22555 0.0
C2291 C 0.48987 0.92676 0.21236 0.0
C2292 C 0.48547 0.93192 0.18949 0.0
C2293 C 0.46849 0.92238 0.17981 0.0
C2294 C 0.45589 0.90761 0.19291 0.0
C2295 C 0.38646 0.87363 0.29818 0.0
C2296 C 0.37509 0.87545 0.28122 0.0
C2297 C 0.40064 0.87248 0.28875 0.0
C2298 C 0.40372 0.8731 0.26219 0.0
C2299 C 0.39248 0.87506 0.24521 0.0
C2300 C 0.37823 0.87613 0.25463 0.0
C2301 C 0.41891 0.87206 0.25223 0.0
C2302 C 0.4315 0.88603 0.23761 0.0
C2303 C 0.42152 0.85794 0.25835 0.0
C2304 C 0.40826 0.8424 0.27261 0.0
C2305 C 0.39091 0.83297 0.2638 0.0
C2306 C 0.37845 0.81841 0.27742 0.0
C2307 C 0.38321 0.81307 0.29979 0.0
C2308 C 0.40044 0.82226 0.30856 0.0
C2309 C 0.41295 0.83684 0.29503 0.0
H2310 H 0.37354 0.80179 0.3103 0.0
H2311 H 0.49521 0.94333 0.17931 0.0
H2312 H 0.63656 0.50252 0.25717 0.0
H2313 H 0.61175 0.47532 0.27296 0.0
H2314 H 0.59431 0.45967 0.19494 0.0
H2315 H 0.6188 0.48698 0.17914 0.0
H2316 H 0.5681 0.4553 0.2238 0.0
H2317 H 0.61322 0.44041 0.2313 0.0
H2318 H 0.64159 0.44431 0.24534 0.0
H2319 H 0.62674 0.4428 0.32432 0.0
H2320 H 0.59836 0.43913 0.31074 0.0
H2321 H 0.50287 0.36825 0.24697 0.0
H2322 H 0.5302 0.39355 0.23288 0.0
H2323 H 0.5439 0.40965 0.31178 0.0
H2324 H 0.51659 0.38422 0.32607 0.0
H2325 H 0.57212 0.41373 0.28356 0.0
H2326 H 0.52717 0.42886 0.27579 0.0
H2327 H 0.49874 0.42476 0.26165 0.0
H2328 H 0.5135 0.42578 0.18274 0.0
H2329 H 0.54195 0.42964 0.19643 0.0
C2330 C 0.62753 0.49319 0.2434 0.0
C2331 C 0.62959 0.49688 0.21693 0.0
C2332 C 0.61339 0.47761 0.25242 0.0
C2333 C 0.60121 0.46537 0.23512 0.0
C2334 C 0.6035 0.46892 0.20866 0.0
C2335 C 0.61754 0.48451 0.19965 0.0
C2336 C 0.58555 0.44929 0.24454 0.0
C2337 C 0.56903 0.44609 0.23655 0.0
C2338 C 0.58669 0.43751 0.26178 0.0
C2339 C 0.60373 0.43967 0.26999 0.0
C2340 C 0.61605 0.44105 0.25166 0.0
C2341 C 0.63213 0.4432 0.25953 0.0
C2342 C 0.63599 0.44385 0.2857 0.0
C2343 C 0.62375 0.44232 0.30405 0.0
C2344 C 0.60766 0.44019 0.29628 0.0
C2345 C 0.51176 0.3771 0.26135 0.0
C2346 C 0.50754 0.37433 0.28761 0.0
C2347 C 0.52735 0.39157 0.25326 0.0
C2348 C 0.53897 0.4036 0.27127 0.0
C2349 C 0.53509 0.40054 0.29757 0.0
C2350 C 0.51947 0.38605 0.30569 0.0
C2351 C 0.5548 0.41971 0.26252 0.0
C2352 C 0.57128 0.42295 0.27073 0.0
C2353 C 0.55367 0.43156 0.24543 0.0
C2354 C 0.53662 0.42937 0.23715 0.0
C2355 C 0.52431 0.42808 0.25543 0.0
C2356 C 0.50819 0.42582 0.24749 0.0
C2357 C 0.5043 0.42497 0.22132 0.0
C2358 C 0.51653 0.42642 0.20301 0.0
C2359 C 0.53265 0.42866 0.21085 0.0
H2360 H 0.49182 0.42322 0.21521 0.0
H2361 H 0.64844 0.44551 0.29176 0.0
H2362 H 0.11843 0.62485 0.25583 0.0
H2363 H 0.12063 0.59966 0.27016 0.0
H2364 H 0.13706 0.59446 0.19418 0.0
H2365 H 0.13489 0.61968 0.1797 0.0
H2366 H 0.11122 0.56301 0.21414 0.0
H2367 H 0.1665 0.61107 0.24103 0.0
H2368 H 0.18582 0.63895 0.26292 0.0
H2369 H 0.16202 0.61625 0.33538 0.0
H2370 H 0.14238 0.58829 0.31385 0.0
H2371 H 0.13512 0.50009 0.24669 0.0
H2372 H 0.1361 0.52673 0.23143 0.0
H2373 H 0.12543 0.53729 0.30831 0.0
H2374 H 0.12498 0.51095 0.3238 0.0
H2375 H 0.1491 0.56643 0.28691 0.0
H2376 H 0.09322 0.51915 0.26134 0.0
H2377 H 0.07291 0.49111 0.24057 0.0
H2378 H 0.09631 0.51197 0.16719 0.0
H2379 H 0.11694 0.54006 0.18758 0.0
C2380 C 0.12258 0.61839 0.24221 0.0
C2381 C 0.12653 0.62425 0.21666 0.0
C2382 C 0.12388 0.60403 0.25043 0.0
C2383 C 0.12913 0.59528 0.23327 0.0
C2384 C 0.13301 0.60106 0.20772 0.0
C2385 C 0.13182 0.61549 0.19952 0.0
C2386 C 0.13027 0.5799 0.2419 0.0
C2387 C 0.1197 0.56378 0.22978 0.0
C2388 C 0.14098 0.58086 0.26277 0.0
C2389 C 0.15286 0.59763 0.27578 0.0
C2390 C 0.16529 0.61206 0.2616 0.0
C2391 C 0.17632 0.62788 0.27395 0.0
C2392 C 0.17512 0.62939 0.30051 0.0
C2393 C 0.16292 0.61507 0.3148 0.0
C2394 C 0.15185 0.59923 0.30253 0.0
C2395 C 0.13308 0.50816 0.26035 0.0
C2396 C 0.12989 0.50341 0.28641 0.0
C2397 C 0.13356 0.52333 0.2516 0.0
C2398 C 0.13053 0.53387 0.26864 0.0
C2399 C 0.12776 0.52935 0.29479 0.0
C2400 C 0.12747 0.51428 0.30361 0.0
C2401 C 0.13 0.54946 0.2592 0.0
C2402 C 0.14067 0.56562 0.27118 0.0
C2403 C 0.11922 0.5485 0.23838 0.0
C2404 C 0.10674 0.53166 0.22603 0.0
C2405 C 0.09412 0.51772 0.2408 0.0
C2406 C 0.08254 0.50182 0.22909 0.0
C2407 C 0.08334 0.49975 0.20259 0.0
C2408 C 0.09571 0.51359 0.18772 0.0
C2409 C 0.10735 0.5295 0.19934 0.0
H2410 H 0.07436 0.48743 0.19357 0.0
H2411 H 0.18367 0.64164 0.31004 0.0
H2412 H 0.48721 0.87103 0.82464 0.0
H2413 H 0.46014 0.86953 0.81019 0.0
H2414 H 0.47726 0.87432 0.7314 0.0
H2415 H 0.50448 0.87621 0.74578 0.0
H2416 H 0.46488 0.89549 0.74039 0.0
H2417 H 0.44522 0.83494 0.75696 0.0
H2418 H 0.44097 0.80976 0.78285 0.0
H2419 H 0.41133 0.82022 0.83821 0.0
H2420 H 0.4156 0.84563 0.8128 0.0
H2421 H 0.38586 0.87412 0.67833 0.0
H2422 H 0.41123 0.87284 0.6941 0.0
H2423 H 0.3933 0.8697 0.77211 0.0
H2424 H 0.36766 0.87067 0.75638 0.0
H2425 H 0.40582 0.84772 0.76449 0.0
H2426 H 0.42544 0.90815 0.74804 0.0
H2427 H 0.42962 0.93335 0.72225 0.0
H2428 H 0.45944 0.92314 0.66688 0.0
H2429 H 0.45523 0.89772 0.69217 0.0
C2430 C 0.48514 0.87167 0.80423 0.0
C2431 C 0.49795 0.87373 0.78633 0.0
C2432 C 0.46964 0.87073 0.79599 0.0
C2433 C 0.46658 0.87164 0.76968 0.0
C2434 C 0.47933 0.8736 0.75179 0.0
C2435 C 0.49486 0.87463 0.76002 0.0
C2436 C 0.45037 0.87114 0.76076 0.0
C2437 C 0.45197 0.8849 0.74537 0.0
C2438 C 0.43351 0.85759 0.76785 0.0
C2439 C 0.43087 0.84229 0.7831 0.0
C2440 C 0.43791 0.83195 0.77475 0.0
C2441 C 0.43548 0.81762 0.78932 0.0
C2442 C 0.42593 0.81342 0.8122 0.0
C2443 C 0.41875 0.82351 0.82051 0.0
C2444 C 0.42115 0.83786 0.80602 0.0
C2445 C 0.38726 0.87305 0.69884 0.0
C2446 C 0.37484 0.87261 0.71615 0.0
C2447 C 0.4018 0.87239 0.70783 0.0
C2448 C 0.40431 0.87146 0.73431 0.0
C2449 C 0.39165 0.87047 0.7516 0.0
C2450 C 0.37704 0.87107 0.7426 0.0
C2451 C 0.42037 0.87196 0.74393 0.0
C2452 C 0.41874 0.85827 0.75951 0.0
C2453 C 0.43723 0.88558 0.73705 0.0
C2454 C 0.43988 0.90093 0.72189 0.0
C2455 C 0.43278 0.9112 0.73027 0.0
C2456 C 0.43517 0.92554 0.71575 0.0
C2457 C 0.44475 0.92982 0.6929 0.0
C2458 C 0.452 0.9198 0.68456 0.0
C2459 C 0.44964 0.90543 0.699 0.0
H2460 H 0.44658 0.94092 0.68169 0.0
H2461 H 0.42406 0.80232 0.82345 0.0
H2462 H 0.63961 0.49388 0.76029 0.0
H2463 H 0.61428 0.46616 0.74725 0.0
H2464 H 0.58267 0.47306 0.80402 0.0
H2465 H 0.60797 0.50072 0.81729 0.0
H2466 H 0.57658 0.43946 0.80318 0.0
H2467 H 0.58014 0.48206 0.74206 0.0
H2468 H 0.59468 0.50541 0.70978 0.0
H2469 H 0.6033 0.47094 0.66172 0.0
H2470 H 0.58901 0.44744 0.69389 0.0
H2471 H 0.49196 0.37942 0.75545 0.0
H2472 H 0.51869 0.40476 0.77122 0.0
H2473 H 0.54782 0.39893 0.7092 0.0
H2474 H 0.52103 0.37389 0.69296 0.0
H2475 H 0.55591 0.43155 0.71288 0.0
H2476 H 0.55149 0.38849 0.77284 0.0
H2477 H 0.53722 0.36505 0.80504 0.0
H2478 H 0.53055 0.39988 0.85514 0.0
H2479 H 0.54458 0.42348 0.82308 0.0
C2480 C 0.62728 0.48946 0.77005 0.0
C2481 C 0.62574 0.49951 0.78972 0.0
C2482 C 0.61281 0.47365 0.76254 0.0
C2483 C 0.59655 0.46763 0.7745 0.0
C2484 C 0.59509 0.47746 0.79454 0.0
C2485 C 0.60954 0.49329 0.80202 0.0
C2486 C 0.58096 0.45131 0.76574 0.0
C2487 C 0.57193 0.43777 0.7835 0.0
C2488 C 0.57516 0.44897 0.73993 0.0
C2489 C 0.58366 0.46305 0.7205 0.0
C2490 C 0.58525 0.4795 0.72469 0.0
C2491 C 0.59343 0.49276 0.70641 0.0
C2492 C 0.59995 0.48968 0.68375 0.0
C2493 C 0.59826 0.47332 0.6793 0.0
C2494 C 0.59012 0.46002 0.69754 0.0
C2495 C 0.5041 0.38344 0.74535 0.0
C2496 C 0.50442 0.37469 0.72298 0.0
C2497 C 0.5194 0.39788 0.75444 0.0
C2498 C 0.53534 0.40368 0.74155 0.0
C2499 C 0.53569 0.39472 0.71947 0.0
C2500 C 0.52039 0.38038 0.71025 0.0
C2501 C 0.55145 0.41959 0.7503 0.0
C2502 C 0.56057 0.43312 0.73253 0.0
C2503 C 0.55735 0.42186 0.77609 0.0
C2504 C 0.54895 0.40771 0.79544 0.0
C2505 C 0.54687 0.39112 0.79064 0.0
C2506 C 0.53884 0.37781 0.80888 0.0
C2507 C 0.53294 0.38096 0.83209 0.0
C2508 C 0.5351 0.39745 0.83714 0.0
C2509 C 0.54311 0.41081 0.81895 0.0
H2510 H 0.52673 0.37064 0.84619 0.0
H2511 H 0.60628 0.49996 0.66961 0.0
H2512 H 0.10673 0.60585 0.81145 0.0
H2513 H 0.10963 0.58107 0.79729 0.0
H2514 H 0.15639 0.616 0.7554 0.0
H2515 H 0.15352 0.64093 0.76946 0.0
H2516 H 0.13359 0.58776 0.72653 0.0
H2517 H 0.15964 0.59771 0.80993 0.0
H2518 H 0.16147 0.60241 0.85682 0.0
H2519 H 0.11573 0.55215 0.8675 0.0
H2520 H 0.11348 0.54725 0.82063 0.0
H2521 H 0.15139 0.51956 0.69619 0.0
H2522 H 0.15426 0.54694 0.7122 0.0
H2523 H 0.1099 0.51783 0.76202 0.0
H2524 H 0.10727 0.49052 0.7466 0.0
H2525 H 0.13458 0.54485 0.78693 0.0
H2526 H 0.10678 0.53584 0.70423 0.0
H2527 H 0.10394 0.53093 0.65737 0.0
H2528 H 0.15189 0.5791 0.64546 0.0
H2529 H 0.15513 0.58418 0.69231 0.0
C2530 C 0.11771 0.60828 0.79938 0.0
C2531 C 0.12992 0.62533 0.79159 0.0
C2532 C 0.11938 0.59411 0.79138 0.0
C2533 C 0.13331 0.59671 0.77548 0.0
C2534 C 0.14557 0.61373 0.76772 0.0
C2535 C 0.14395 0.62794 0.77583 0.0
C2536 C 0.13463 0.58152 0.76627 0.0
C2537 C 0.13414 0.57854 0.73971 0.0
C2538 C 0.13496 0.56931 0.7835 0.0
C2539 C 0.13632 0.57217 0.81173 0.0
C2540 C 0.1499 0.58771 0.82226 0.0
C2541 C 0.15102 0.59041 0.84884 0.0
C2542 C 0.1387 0.5776 0.86512 0.0
C2543 C 0.12526 0.56206 0.85486 0.0
C2544 C 0.12406 0.55931 0.82829 0.0
C2545 C 0.14229 0.51903 0.7106 0.0
C2546 C 0.12906 0.50291 0.72008 0.0
C2547 C 0.1439 0.53467 0.71966 0.0
C2548 C 0.13216 0.53445 0.7381 0.0
C2549 C 0.11912 0.51835 0.74782 0.0
C2550 C 0.11759 0.50274 0.73892 0.0
C2551 C 0.13327 0.55092 0.74717 0.0
C2552 C 0.13421 0.55415 0.77372 0.0
C2553 C 0.13324 0.5633 0.72993 0.0
C2554 C 0.13129 0.56029 0.70178 0.0
C2555 C 0.11678 0.54531 0.69163 0.0
C2556 C 0.11509 0.54251 0.66507 0.0
C2557 C 0.12776 0.55467 0.64845 0.0
C2558 C 0.14211 0.56968 0.65836 0.0
C2559 C 0.14388 0.57253 0.68491 0.0
H2560 H 0.12642 0.55248 0.6279 0.0
H2561 H 0.1396 0.57971 0.8857 0.0
H2562 H 0.60848 0.10939 0.68368 0.0
H2563 H 0.58308 0.11087 0.69873 0.0
H2564 H 0.61153 0.13861 0.76658 0.0
H2565 H 0.63688 0.13677 0.75188 0.0
H2566 H 0.57934 0.11454 0.77903 0.0
H2567 H 0.60477 0.15986 0.71587 0.0
H2568 H 0.61676 0.17275 0.67346 0.0
H2569 H 0.56758 0.13776 0.63794 0.0
H2570 H 0.55535 0.12449 0.6801 0.0
H2571 H 0.51779 0.14035 0.81584 0.0
H2572 H 0.54472 0.14121 0.80209 0.0
H2573 H 0.51836 0.11113 0.73464 0.0
H2574 H 0.4915 0.11038 0.74811 0.0
H2575 H 0.55041 0.13792 0.72296 0.0
H2576 H 0.52552 0.092 0.78627 0.0
H2577 H 0.51366 0.07935 0.82884 0.0
H2578 H 0.5622 0.11611 0.86433 0.0
H2579 H 0.57428 0.12914 0.82197 0.0
C2580 C 0.60933 0.11581 0.7018 0.0
C2581 C 0.62469 0.12303 0.71656 0.0
C2582 C 0.59483 0.11673 0.71033 0.0
C2583 C 0.59547 0.1251 0.7336 0.0
C2584 C 0.61074 0.13213 0.74853 0.0
C2585 C 0.62523 0.13111 0.74008 0.0
C2586 C 0.58014 0.12635 0.74245 0.0
C2587 C 0.57319 0.11991 0.76692 0.0
C2588 C 0.5719 0.13307 0.7265 0.0
C2589 C 0.57919 0.14108 0.70112 0.0
C2590 C 0.59655 0.15483 0.69899 0.0
C2591 C 0.60338 0.16222 0.675 0.0
C2592 C 0.59295 0.15605 0.65301 0.0
C2593 C 0.57565 0.14251 0.65498 0.0
C2594 C 0.56875 0.13507 0.67892 0.0
C2595 C 0.51777 0.13397 0.79804 0.0
C2596 C 0.50253 0.12525 0.78308 0.0
C2597 C 0.53313 0.13442 0.79026 0.0
C2598 C 0.5335 0.12608 0.76746 0.0
C2599 C 0.51837 0.11764 0.7523 0.0
C2600 C 0.50302 0.11718 0.76006 0.0
C2601 C 0.54957 0.12599 0.75941 0.0
C2602 C 0.55665 0.13265 0.7351 0.0
C2603 C 0.55795 0.11953 0.77554 0.0
C2604 C 0.55074 0.11166 0.80099 0.0
C2605 C 0.53362 0.09747 0.80317 0.0
C2606 C 0.52687 0.09022 0.82726 0.0
C2607 C 0.53715 0.09696 0.84928 0.0
C2608 C 0.55424 0.11093 0.84725 0.0
C2609 C 0.56105 0.11824 0.82321 0.0
H2610 H 0.5319 0.09133 0.86791 0.0
H2611 H 0.59827 0.16179 0.63445 0.0
H2612 H 0.367 0.4978 0.74573 0.0
H2613 H 0.39253 0.52444 0.72988 0.0
H2614 H 0.41123 0.5389 0.80761 0.0
H2615 H 0.38582 0.51226 0.82358 0.0
H2616 H 0.41426 0.56694 0.77801 0.0
H2617 H 0.42843 0.52107 0.7724 0.0
H2618 H 0.42357 0.49219 0.7592 0.0
H2619 H 0.42452 0.50596 0.67982 0.0
H2620 H 0.42911 0.53485 0.69257 0.0
H2621 H 0.503 0.6299 0.75463 0.0
H2622 H 0.47587 0.60452 0.76926 0.0
H2623 H 0.46148 0.58818 0.69057 0.0
H2624 H 0.48873 0.61337 0.67585 0.0
H2625 H 0.45554 0.56113 0.71977 0.0
H2626 H 0.44216 0.60718 0.72465 0.0
H2627 H 0.44652 0.63597 0.73729 0.0
H2628 H 0.44358 0.62204 0.81696 0.0
H2629 H 0.43945 0.59324 0.80479 0.0
C2630 C 0.37647 0.50673 0.75944 0.0
C2631 C 0.37448 0.50292 0.78587 0.0
C2632 C 0.39106 0.5219 0.75036 0.0
C2633 C 0.40382 0.53355 0.76757 0.0
C2634 C 0.40153 0.53007 0.79403 0.0
C2635 C 0.38705 0.51483 0.8031 0.0
C2636 C 0.41988 0.54902 0.75795 0.0
C2637 C 0.4234 0.56571 0.76548 0.0
C2638 C 0.43156 0.54736 0.74116 0.0
C2639 C 0.42892 0.53005 0.73345 0.0
C2640 C 0.42745 0.51789 0.75213 0.0
C2641 C 0.42477 0.50152 0.74473 0.0
C2642 C 0.42369 0.49722 0.71869 0.0
C2643 C 0.42533 0.5093 0.69999 0.0
C2644 C 0.42798 0.52567 0.70729 0.0
C2645 C 0.49404 0.62091 0.74045 0.0
C2646 C 0.49797 0.62364 0.71409 0.0
C2647 C 0.4785 0.60646 0.74883 0.0
C2648 C 0.46653 0.59455 0.731 0.0
C2649 C 0.4705 0.5972 0.70467 0.0
C2650 C 0.48605 0.61162 0.69629 0.0
C2651 C 0.45001 0.57916 0.73982 0.0
C2652 C 0.4464 0.56244 0.73218 0.0
C2653 C 0.43821 0.58082 0.75641 0.0
C2654 C 0.44066 0.59811 0.7638 0.0
C2655 C 0.44259 0.61031 0.74487 0.0
C2656 C 0.44499 0.62662 0.75195 0.0
C2657 C 0.44537 0.63085 0.77791 0.0
C2658 C 0.44331 0.61875 0.79686 0.0
C2659 C 0.44092 0.60243 0.78988 0.0
H2660 H 0.44723 0.64348 0.78336 0.0
H2661 H 0.42162 0.48455 0.713 0.0
H2662 H 0.86998 0.38409 0.81848 0.0
H2663 H 0.86853 0.40933 0.80247 0.0
H2664 H 0.87929 0.39886 0.72563 0.0
H2665 H 0.88082 0.37358 0.74157 0.0
H2666 H 0.89921 0.43325 0.73827 0.0
H2667 H 0.83885 0.38961 0.74106 0.0
H2668 H 0.81168 0.36627 0.76033 0.0
H2669 H 0.81328 0.40206 0.81753 0.0
H2670 H 0.84062 0.42558 0.79883 0.0
H2671 H 0.87886 0.49223 0.67543 0.0
H2672 H 0.87787 0.46527 0.6891 0.0
H2673 H 0.86942 0.4752 0.76748 0.0
H2674 H 0.87043 0.50224 0.75396 0.0
H2675 H 0.84773 0.44055 0.75264 0.0
H2676 H 0.90871 0.48386 0.75043 0.0
H2677 H 0.93577 0.50715 0.73081 0.0
H2678 H 0.93275 0.47168 0.67195 0.0
H2679 H 0.9055 0.44823 0.69101 0.0
C2680 C 0.87198 0.38712 0.79816 0.0
C2681 C 0.87549 0.37685 0.78127 0.0
C2682 C 0.87107 0.40151 0.78902 0.0
C2683 C 0.87365 0.40588 0.76282 0.0
C2684 C 0.87723 0.39569 0.74591 0.0
C2685 C 0.87805 0.38124 0.75503 0.0
C2686 C 0.87302 0.42136 0.75324 0.0
C2687 C 0.88785 0.43472 0.74104 0.0
C2688 C 0.85832 0.42343 0.75736 0.0
C2689 C 0.84189 0.40932 0.76869 0.0
C2690 C 0.8335 0.39247 0.75789 0.0
C2691 C 0.81805 0.37921 0.76868 0.0
C2692 C 0.81078 0.38266 0.79019 0.0
C2693 C 0.81894 0.3994 0.8009 0.0
C2694 C 0.8344 0.4127 0.7902 0.0
C2695 C 0.87672 0.48864 0.69556 0.0
C2696 C 0.8748 0.49937 0.71366 0.0
C2697 C 0.8762 0.47326 0.70334 0.0
C2698 C 0.87372 0.46833 0.72933 0.0
C2699 C 0.87137 0.47879 0.74734 0.0
C2700 C 0.87201 0.49425 0.7396 0.0
C2701 C 0.87393 0.45243 0.73779 0.0
C2702 C 0.85904 0.43902 0.74979 0.0
C2703 C 0.88856 0.45029 0.73344 0.0
C2704 C 0.90496 0.46434 0.72198 0.0
C2705 C 0.91373 0.48107 0.73317 0.0
C2706 C 0.92912 0.49429 0.72218 0.0
C2707 C 0.93595 0.49091 0.7001 0.0
C2708 C 0.92743 0.47428 0.68902 0.0
C2709 C 0.91202 0.46102 0.69992 0.0
H2710 H 0.94787 0.50116 0.69163 0.0
H2711 H 0.79881 0.37238 0.79851 0.0
loop_
_geom_bond_atom_site_label_1
_geom_bond_atom_site_label_2
_geom_bond_distance
_geom_bond_site_symmetry_2
_ccdc_geom_bond_type
In0 O1 2.294 . S
In0 O2 2.326 . S
In0 O6 2.266 . S
In0 O7 2.326 . S
In0 O8 2.266 . S
In0 O9 2.326 . S
In0 O11 2.294 . S
In0 O12 2.326 . S
O1 In0 2.294 . S
O1 C10 1.240 . S
O2 In0 2.326 . S
O2 C10 1.252 . S
C3 O6 1.252 . S
C3 O7 1.260 . S
C4 O11 1.240 . S
C4 O12 1.252 . S
C5 O8 1.252 . S
C5 O9 1.260 . S
O6 In0 2.266 . S
O6 C3 1.252 . S
O7 In0 2.326 . S
O7 C3 1.260 . S
O8 In0 2.266 . S
O8 C5 1.252 . S
O9 In0 2.326 . S
O9 C5 1.260 . S
C10 O1 1.240 . S
C10 O2 1.252 . S
O11 In0 2.294 . S
O11 C4 1.240 . S
O12 In0 2.326 . S
O12 C4 1.252 . S
In13 O14 2.294 . S
In13 O15 2.326 . S
In13 O19 2.266 . S
In13 O20 2.326 . S
In13 O21 2.266 . S
In13 O22 2.326 . S
In13 O24 2.294 . S
In13 O25 2.326 . S
O14 In13 2.294 . S
O14 C23 1.240 . S
O15 In13 2.326 . S
O15 C23 1.252 . S
C16 O19 1.252 . S
C16 O20 1.260 . S
C17 O24 1.240 . S
C17 O25 1.252 . S
C18 O21 1.252 . S
C18 O22 1.260 . S
O19 In13 2.266 . S
O19 C16 1.252 . S
O20 In13 2.326 . S
O20 C16 1.260 . S
O21 In13 2.266 . S
O21 C18 1.252 . S
O22 In13 2.326 . S
O22 C18 1.260 . S
C23 O14 1.240 . S
C23 O15 1.252 . S
O24 In13 2.294 . S
O24 C17 1.240 . S
O25 In13 2.326 . S
O25 C17 1.252 . S
In26 O27 2.294 . S
In26 O28 2.326 . S
In26 O32 2.266 . S
In26 O33 2.326 . S
In26 O34 2.266 . S
In26 O35 2.326 . S
In26 O37 2.294 . S
In26 O38 2.326 . S
O27 In26 2.294 . S
O27 C36 1.240 . S
O28 In26 2.326 . S
O28 C36 1.252 . S
C29 O32 1.252 . S
C29 O33 1.260 . S
C30 O37 1.240 . S
C30 O38 1.252 . S
C31 O34 1.252 . S
C31 O35 1.260 . S
O32 In26 2.266 . S
O32 C29 1.252 . S
O33 In26 2.326 . S
O33 C29 1.260 . S
O34 In26 2.266 . S
O34 C31 1.252 . S
O35 In26 2.326 . S
O35 C31 1.260 . S
C36 O27 1.240 . S
C36 O28 1.252 . S
O37 In26 2.294 . S
O37 C30 1.240 . S
O38 In26 2.326 . S
O38 C30 1.252 . S
In39 O40 2.294 . S
In39 O41 2.326 . S
In39 O45 2.266 . S
In39 O46 2.326 . S
In39 O47 2.266 . S
In39 O48 2.326 . S
In39 O50 2.294 . S
In39 O51 2.326 . S
O40 In39 2.294 . S
O40 C49 1.240 . S
O41 In39 2.326 . S
O41 C49 1.252 . S
C42 O45 1.252 . S
C42 O46 1.260 . S
C43 O50 1.240 . S
C43 O51 1.252 . S
C44 O47 1.252 . S
C44 O48 1.260 . S
O45 In39 2.266 . S
O45 C42 1.252 . S
O46 In39 2.326 . S
O46 C42 1.260 . S
O47 In39 2.266 . S
O47 C44 1.252 . S
O48 In39 2.326 . S
O48 C44 1.260 . S
C49 O40 1.240 . S
C49 O41 1.252 . S
O50 In39 2.294 . S
O50 C43 1.240 . S
O51 In39 2.326 . S
O51 C43 1.252 . S
In52 O53 2.294 . S
In52 O54 2.326 . S
In52 O58 2.266 . S
In52 O59 2.326 . S
In52 O60 2.266 . S
In52 O61 2.326 . S
In52 O63 2.294 . S
In52 O64 2.326 . S
O53 In52 2.294 . S
O53 C62 1.240 . S
O54 In52 2.326 . S
O54 C62 1.252 . S
C55 O58 1.252 . S
C55 O59 1.260 . S
C56 O63 1.240 . S
C56 O64 1.252 . S
C57 O60 1.252 . S
C57 O61 1.260 . S
O58 In52 2.266 . S
O58 C55 1.252 . S
O59 In52 2.326 . S
O59 C55 1.260 . S
O60 In52 2.266 . S
O60 C57 1.252 . S
O61 In52 2.326 . S
O61 C57 1.260 . S
C62 O53 1.240 . S
C62 O54 1.252 . S
O63 In52 2.294 . S
O63 C56 1.240 . S
O64 In52 2.326 . S
O64 C56 1.252 . S
In65 O66 2.294 . S
In65 O67 2.326 . S
In65 O71 2.266 . S
In65 O72 2.326 . S
In65 O73 2.266 . S
In65 O74 2.326 . S
In65 O76 2.294 . S
In65 O77 2.326 . S
O66 In65 2.294 . S
O66 C75 1.240 . S
O67 In65 2.326 . S
O67 C75 1.252 . S
C68 O71 1.252 . S
C68 O72 1.260 . S
C69 O76 1.240 . S
C69 O77 1.252 . S
C70 O73 1.252 . S
C70 O74 1.260 . S
O71 In65 2.266 . S
O71 C68 1.252 . S
O72 In65 2.326 . S
O72 C68 1.260 . S
O73 In65 2.266 . S
O73 C70 1.252 . S
O74 In65 2.326 . S
O74 C70 1.260 . S
C75 O66 1.240 . S
C75 O67 1.252 . S
O76 In65 2.294 . S
O76 C69 1.240 . S
O77 In65 2.326 . S
O77 C69 1.252 . S
In78 O79 2.294 . S
In78 O80 2.326 . S
In78 O84 2.266 . S
In78 O85 2.326 . S
In78 O86 2.266 . S
In78 O87 2.326 . S
In78 O89 2.294 . S
In78 O90 2.326 . S
O79 In78 2.294 . S
O79 C88 1.240 . S
O80 In78 2.326 . S
O80 C88 1.252 . S
C81 O84 1.252 . S
C81 O85 1.260 . S
C82 O89 1.240 . S
C82 O90 1.252 . S
C83 O86 1.252 . S
C83 O87 1.260 . S
O84 In78 2.266 . S
O84 C81 1.252 . S
O85 In78 2.326 . S
O85 C81 1.260 . S
O86 In78 2.266 . S
O86 C83 1.252 . S
O87 In78 2.326 . S
O87 C83 1.260 . S
C88 O79 1.240 . S
C88 O80 1.252 . S
O89 In78 2.294 . S
O89 C82 1.240 . S
O90 In78 2.326 . S
O90 C82 1.252 . S
In91 O92 2.294 . S
In91 O93 2.326 . S
In91 O97 2.266 . S
In91 O98 2.326 . S
In91 O99 2.266 . S
In91 O100 2.326 . S
In91 O102 2.294 . S
In91 O103 2.326 . S
O92 In91 2.294 . S
O92 C101 1.240 . S
O93 In91 2.326 . S
O93 C101 1.252 . S
C94 O97 1.252 . S
C94 O98 1.260 . S
C95 O102 1.240 . S
C95 O103 1.252 . S
C96 O99 1.252 . S
C96 O100 1.260 . S
O97 In91 2.266 . S
O97 C94 1.252 . S
O98 In91 2.326 . S
O98 C94 1.260 . S
O99 In91 2.266 . S
O99 C96 1.252 . S
O100 In91 2.326 . S
O100 C96 1.260 . S
C101 O92 1.240 . S
C101 O93 1.252 . S
O102 In91 2.294 . S
O102 C95 1.240 . S
O103 In91 2.326 . S
O103 C95 1.252 . S
In104 O105 2.294 . S
In104 O106 2.326 . S
In104 O110 2.266 . S
In104 O111 2.326 . S
In104 O112 2.266 . S
In104 O113 2.326 . S
In104 O115 2.294 . S
In104 O116 2.326 . S
O105 In104 2.294 . S
O105 C114 1.240 . S
O106 In104 2.326 . S
O106 C114 1.252 . S
C107 O110 1.252 . S
C107 O111 1.260 . S
C108 O115 1.240 . S
C108 O116 1.252 . S
C109 O112 1.252 . S
C109 O113 1.260 . S
O110 In104 2.266 . S
O110 C107 1.252 . S
O111 In104 2.326 . S
O111 C107 1.260 . S
O112 In104 2.266 . S
O112 C109 1.252 . S
O113 In104 2.326 . S
O113 C109 1.260 . S
C114 O105 1.240 . S
C114 O106 1.252 . S
O115 In104 2.294 . S
O115 C108 1.240 . S
O116 In104 2.326 . S
O116 C108 1.252 . S
In117 O118 2.294 . S
In117 O119 2.326 . S
In117 O123 2.266 . S
In117 O124 2.326 . S
In117 O125 2.266 . S
In117 O126 2.326 . S
In117 O128 2.294 . S
In117 O129 2.326 . S
O118 In117 2.294 . S
O118 C127 1.240 . S
O119 In117 2.326 . S
O119 C127 1.252 . S
C120 O123 1.252 . S
C120 O124 1.260 . S
C121 O128 1.240 . S
C121 O129 1.252 . S
C122 O125 1.252 . S
C122 O126 1.260 . S
O123 In117 2.266 . S
O123 C120 1.252 . S
O124 In117 2.326 . S
O124 C120 1.260 . S
O125 In117 2.266 . S
O125 C122 1.252 . S
O126 In117 2.326 . S
O126 C122 1.260 . S
C127 O118 1.240 . S
C127 O119 1.252 . S
O128 In117 2.294 . S
O128 C121 1.240 . S
O129 In117 2.326 . S
O129 C121 1.252 . S
In130 O131 2.294 . S
In130 O132 2.326 . S
In130 O136 2.266 . S
In130 O137 2.326 . S
In130 O138 2.266 . S
In130 O139 2.326 . S
In130 O141 2.294 . S
In130 O142 2.326 . S
O131 In130 2.294 . S
O131 C140 1.240 . S
O132 In130 2.326 . S
O132 C140 1.252 . S
C133 O136 1.252 . S
C133 O137 1.260 . S
C134 O141 1.240 . S
C134 O142 1.252 . S
C135 O138 1.252 . S
C135 O139 1.260 . S
O136 In130 2.266 . S
O136 C133 1.252 . S
O137 In130 2.326 . S
O137 C133 1.260 . S
O138 In130 2.266 . S
O138 C135 1.252 . S
O139 In130 2.326 . S
O139 C135 1.260 . S
C140 O131 1.240 . S
C140 O132 1.252 . S
O141 In130 2.294 . S
O141 C134 1.240 . S
O142 In130 2.326 . S
O142 C134 1.252 . S
In143 O144 2.294 . S
In143 O145 2.326 . S
In143 O149 2.266 . S
In143 O150 2.326 . S
In143 O151 2.266 . S
In143 O152 2.326 . S
In143 O154 2.294 . S
In143 O155 2.326 . S
O144 In143 2.294 . S
O144 C153 1.240 . S
O145 In143 2.326 . S
O145 C153 1.252 . S
C146 O149 1.252 . S
C146 O150 1.260 . S
C147 O154 1.240 . S
C147 O155 1.252 . S
C148 O151 1.252 . S
C148 O152 1.260 . S
O149 In143 2.266 . S
O149 C146 1.252 . S
O150 In143 2.326 . S
O150 C146 1.260 . S
O151 In143 2.266 . S
O151 C148 1.252 . S
O152 In143 2.326 . S
O152 C148 1.260 . S
C153 O144 1.240 . S
C153 O145 1.252 . S
O154 In143 2.294 . S
O154 C147 1.240 . S
O155 In143 2.326 . S
O155 C147 1.252 . S
In156 O157 2.294 . S
In156 O158 2.326 . S
In156 O162 2.266 . S
In156 O163 2.326 . S
In156 O164 2.266 . S
In156 O165 2.326 . S
In156 O167 2.294 . S
In156 O168 2.326 . S
O157 In156 2.294 . S
O157 C166 1.240 . S
O158 In156 2.326 . S
O158 C166 1.252 . S
C159 O162 1.252 . S
C159 O163 1.260 . S
C160 O167 1.240 . S
C160 O168 1.252 . S
C161 O164 1.252 . S
C161 O165 1.260 . S
O162 In156 2.266 . S
O162 C159 1.252 . S
O163 In156 2.326 . S
O163 C159 1.260 . S
O164 In156 2.266 . S
O164 C161 1.252 . S
O165 In156 2.326 . S
O165 C161 1.260 . S
C166 O157 1.240 . S
C166 O158 1.252 . S
O167 In156 2.294 . S
O167 C160 1.240 . S
O168 In156 2.326 . S
O168 C160 1.252 . S
In169 O170 2.294 . S
In169 O171 2.326 . S
In169 O175 2.266 . S
In169 O176 2.326 . S
In169 O177 2.266 . S
In169 O178 2.326 . S
In169 O180 2.294 . S
In169 O181 2.326 . S
O170 In169 2.294 . S
O170 C179 1.240 . S
O171 In169 2.326 . S
O171 C179 1.252 . S
C172 O175 1.252 . S
C172 O176 1.260 . S
C173 O180 1.240 . S
C173 O181 1.252 . S
C174 O177 1.252 . S
C174 O178 1.260 . S
O175 In169 2.266 . S
O175 C172 1.252 . S
O176 In169 2.326 . S
O176 C172 1.260 . S
O177 In169 2.266 . S
O177 C174 1.252 . S
O178 In169 2.326 . S
O178 C174 1.260 . S
C179 O170 1.240 . S
C179 O171 1.252 . S
O180 In169 2.294 . S
O180 C173 1.240 . S
O181 In169 2.326 . S
O181 C173 1.252 . S
In182 O183 2.294 . S
In182 O184 2.326 . S
In182 O188 2.266 . S
In182 O189 2.326 . S
In182 O190 2.266 . S
In182 O191 2.326 . S
In182 O193 2.294 . S
In182 O194 2.326 . S
O183 In182 2.294 . S
O183 C192 1.240 . S
O184 In182 2.326 . S
O184 C192 1.252 . S
C185 O188 1.252 . S
C185 O189 1.260 . S
C186 O193 1.240 . S
C186 O194 1.252 . S
C187 O190 1.252 . S
C187 O191 1.260 . S
O188 In182 2.266 . S
O188 C185 1.252 . S
O189 In182 2.326 . S
O189 C185 1.260 . S
O190 In182 2.266 . S
O190 C187 1.252 . S
O191 In182 2.326 . S
O191 C187 1.260 . S
C192 O183 1.240 . S
C192 O184 1.252 . S
O193 In182 2.294 . S
O193 C186 1.240 . S
O194 In182 2.326 . S
O194 C186 1.252 . S
In195 O196 2.294 . S
In195 O197 2.326 . S
In195 O201 2.266 . S
In195 O202 2.326 . S
In195 O203 2.266 . S
In195 O204 2.326 . S
In195 O206 2.294 . S
In195 O207 2.326 . S
O196 In195 2.294 . S
O196 C205 1.240 . S
O197 In195 2.326 . S
O197 C205 1.252 . S
C198 O201 1.252 . S
C198 O202 1.260 . S
C199 O206 1.240 . S
C199 O207 1.252 . S
C200 O203 1.252 . S
C200 O204 1.260 . S
O201 In195 2.266 . S
O201 C198 1.252 . S
O202 In195 2.326 . S
O202 C198 1.260 . S
O203 In195 2.266 . S
O203 C200 1.252 . S
O204 In195 2.326 . S
O204 C200 1.260 . S
C205 O196 1.240 . S
C205 O197 1.252 . S
O206 In195 2.294 . S
O206 C199 1.240 . S
O207 In195 2.326 . S
O207 C199 1.252 . S
In208 O209 2.294 . S
In208 O210 2.326 . S
In208 O214 2.266 . S
In208 O215 2.326 . S
In208 O216 2.266 . S
In208 O217 2.326 . S
In208 O219 2.294 . S
In208 O220 2.326 . S
O209 In208 2.294 . S
O209 C218 1.240 . S
O210 In208 2.326 . S
O210 C218 1.252 . S
C211 O214 1.252 . S
C211 O215 1.260 . S
C212 O219 1.240 . S
C212 O220 1.252 . S
C213 O216 1.252 . S
C213 O217 1.260 . S
O214 In208 2.266 . S
O214 C211 1.252 . S
O215 In208 2.326 . S
O215 C211 1.260 . S
O216 In208 2.266 . S
O216 C213 1.252 . S
O217 In208 2.326 . S
O217 C213 1.260 . S
C218 O209 1.240 . S
C218 O210 1.252 . S
O219 In208 2.294 . S
O219 C212 1.240 . S
O220 In208 2.326 . S
O220 C212 1.252 . S
In221 O222 2.294 . S
In221 O223 2.326 . S
In221 O227 2.266 . S
In221 O228 2.326 . S
In221 O229 2.266 . S
In221 O230 2.326 . S
In221 O232 2.294 . S
In221 O233 2.326 . S
O222 In221 2.294 . S
O222 C231 1.240 . S
O223 In221 2.326 . S
O223 C231 1.252 . S
C224 O227 1.252 . S
C224 O228 1.260 . S
C225 O232 1.240 . S
C225 O233 1.252 . S
C226 O229 1.252 . S
C226 O230 1.260 . S
O227 In221 2.266 . S
O227 C224 1.252 . S
O228 In221 2.326 . S
O228 C224 1.260 . S
O229 In221 2.266 . S
O229 C226 1.252 . S
O230 In221 2.326 . S
O230 C226 1.260 . S
C231 O222 1.240 . S
C231 O223 1.252 . S
O232 In221 2.294 . S
O232 C225 1.240 . S
O233 In221 2.326 . S
O233 C225 1.252 . S
In234 O235 2.294 . S
In234 O236 2.326 . S
In234 O240 2.266 . S
In234 O241 2.326 . S
In234 O242 2.266 . S
In234 O243 2.326 . S
In234 O245 2.294 . S
In234 O246 2.326 . S
O235 In234 2.294 . S
O235 C244 1.240 . S
O236 In234 2.326 . S
O236 C244 1.252 . S
C237 O240 1.252 . S
C237 O241 1.260 . S
C238 O245 1.240 . S
C238 O246 1.252 . S
C239 O242 1.252 . S
C239 O243 1.260 . S
O240 In234 2.266 . S
O240 C237 1.252 . S
O241 In234 2.326 . S
O241 C237 1.260 . S
O242 In234 2.266 . S
O242 C239 1.252 . S
O243 In234 2.326 . S
O243 C239 1.260 . S
C244 O235 1.240 . S
C244 O236 1.252 . S
O245 In234 2.294 . S
O245 C238 1.240 . S
O246 In234 2.326 . S
O246 C238 1.252 . S
In247 O248 2.294 . S
In247 O249 2.326 . S
In247 O253 2.266 . S
In247 O254 2.326 . S
In247 O255 2.266 . S
In247 O256 2.326 . S
In247 O258 2.294 . S
In247 O259 2.326 . S
O248 In247 2.294 . S
O248 C257 1.240 . S
O249 In247 2.326 . S
O249 C257 1.252 . S
C250 O253 1.252 . S
C250 O254 1.260 . S
C251 O258 1.240 . S
C251 O259 1.252 . S
C252 O255 1.252 . S
C252 O256 1.260 . S
O253 In247 2.266 . S
O253 C250 1.252 . S
O254 In247 2.326 . S
O254 C250 1.260 . S
O255 In247 2.266 . S
O255 C252 1.252 . S
O256 In247 2.326 . S
O256 C252 1.260 . S
C257 O248 1.240 . S
C257 O249 1.252 . S
O258 In247 2.294 . S
O258 C251 1.240 . S
O259 In247 2.326 . S
O259 C251 1.252 . S
In260 O261 2.294 . S
In260 O262 2.326 . S
In260 O266 2.266 . S
In260 O267 2.326 . S
In260 O268 2.266 . S
In260 O269 2.326 . S
In260 O271 2.294 . S
In260 O272 2.326 . S
O261 In260 2.294 . S
O261 C270 1.240 . S
O262 In260 2.326 . S
O262 C270 1.252 . S
C263 O266 1.252 . S
C263 O267 1.260 . S
C264 O271 1.240 . S
C264 O272 1.252 . S
C265 O268 1.252 . S
C265 O269 1.260 . S
O266 In260 2.266 . S
O266 C263 1.252 . S
O267 In260 2.326 . S
O267 C263 1.260 . S
O268 In260 2.266 . S
O268 C265 1.252 . S
O269 In260 2.326 . S
O269 C265 1.260 . S
C270 O261 1.240 . S
C270 O262 1.252 . S
O271 In260 2.294 . S
O271 C264 1.240 . S
O272 In260 2.326 . S
O272 C264 1.252 . S
In273 O274 2.294 . S
In273 O275 2.326 . S
In273 O279 2.266 . S
In273 O280 2.326 . S
In273 O281 2.266 . S
In273 O282 2.326 . S
In273 O284 2.294 . S
In273 O285 2.326 . S
O274 In273 2.294 . S
O274 C283 1.240 . S
O275 In273 2.326 . S
O275 C283 1.252 . S
C276 O279 1.252 . S
C276 O280 1.260 . S
C277 O284 1.240 . S
C277 O285 1.252 . S
C278 O281 1.252 . S
C278 O282 1.260 . S
O279 In273 2.266 . S
O279 C276 1.252 . S
O280 In273 2.326 . S
O280 C276 1.260 . S
O281 In273 2.266 . S
O281 C278 1.252 . S
O282 In273 2.326 . S
O282 C278 1.260 . S
C283 O274 1.240 . S
C283 O275 1.252 . S
O284 In273 2.294 . S
O284 C277 1.240 . S
O285 In273 2.326 . S
O285 C277 1.252 . S
In286 O287 2.294 . S
In286 O288 2.326 . S
In286 O292 2.266 . S
In286 O293 2.326 . S
In286 O294 2.266 . S
In286 O295 2.326 . S
In286 O297 2.294 . S
In286 O298 2.326 . S
O287 In286 2.294 . S
O287 C296 1.240 . S
O288 In286 2.326 . S
O288 C296 1.252 . S
C289 O292 1.252 . S
C289 O293 1.260 . S
C290 O297 1.240 . S
C290 O298 1.252 . S
C291 O294 1.252 . S
C291 O295 1.260 . S
O292 In286 2.266 . S
O292 C289 1.252 . S
O293 In286 2.326 . S
O293 C289 1.260 . S
O294 In286 2.266 . S
O294 C291 1.252 . S
O295 In286 2.326 . S
O295 C291 1.260 . S
C296 O287 1.240 . S
C296 O288 1.252 . S
O297 In286 2.294 . S
O297 C290 1.240 . S
O298 In286 2.326 . S
O298 C290 1.252 . S
In299 O300 2.294 . S
In299 O301 2.326 . S
In299 O305 2.266 . S
In299 O306 2.326 . S
In299 O307 2.266 . S
In299 O308 2.326 . S
In299 O310 2.294 . S
In299 O311 2.326 . S
O300 In299 2.294 . S
O300 C309 1.240 . S
O301 In299 2.326 . S
O301 C309 1.252 . S
C302 O305 1.252 . S
C302 O306 1.260 . S
C303 O310 1.240 . S
C303 O311 1.252 . S
C304 O307 1.252 . S
C304 O308 1.260 . S
O305 In299 2.266 . S
O305 C302 1.252 . S
O306 In299 2.326 . S
O306 C302 1.260 . S
O307 In299 2.266 . S
O307 C304 1.252 . S
O308 In299 2.326 . S
O308 C304 1.260 . S
C309 O300 1.240 . S
C309 O301 1.252 . S
O310 In299 2.294 . S
O310 C303 1.240 . S
O311 In299 2.326 . S
O311 C303 1.252 . S
H312 C330 0.951 . S
H313 C332 0.951 . S
H314 C334 0.950 . S
H315 C335 0.950 . S
H316 C337 0.950 . S
H317 C340 0.950 . S
H318 C341 0.950 . S
H319 C343 0.950 . S
H320 C344 0.933 1_565 S
H321 C345 0.951 . S
H322 C347 0.951 . S
H323 C349 0.950 . S
H324 C350 0.950 . S
H325 C352 0.950 . S
H326 C355 0.950 . S
H327 C356 0.950 . S
H328 C358 0.950 . S
H329 C359 0.933 1_545 S
C330 H312 0.951 . S
C330 C331 1.366 . S
C330 C332 1.388 . S
C331 C330 1.366 . S
C331 C335 1.385 . S
C332 H313 0.951 . S
C332 C330 1.388 . S
C332 C333 1.366 . S
C333 C332 1.366 . S
C333 C334 1.414 . S
C333 C336 1.499 . S
C334 H314 0.950 . S
C334 C333 1.414 . S
C334 C335 1.374 . S
C335 H315 0.950 . S
C335 C331 1.385 . S
C335 C334 1.374 . S
C336 C333 1.499 . S
C336 C337 1.373 . S
C336 C338 1.389 . S
C337 H316 0.950 . S
C337 C336 1.373 . S
C337 C353 1.377 1_545 S
C338 C336 1.389 . S
C338 C339 1.524 . S
C338 C352 1.377 1_545 S
C339 C338 1.524 . S
C339 C340 1.397 . S
C339 C344 1.363 . S
C340 H317 0.950 . S
C340 C339 1.397 . S
C340 C341 1.334 . S
C341 H318 0.950 . S
C341 C340 1.334 . S
C341 C342 1.287 . S
C342 C341 1.287 . S
C342 C343 1.524 . S
C342 H361 0.913 . S
C343 H319 0.950 . S
C343 C342 1.524 . S
C343 C344 1.415 . S
C344 H320 0.933 1_545 S
C344 C339 1.363 . S
C344 C343 1.415 . S
C345 H321 0.951 . S
C345 C346 1.366 . S
C345 C347 1.388 . S
C346 C345 1.366 . S
C346 C350 1.385 . S
C347 H322 0.951 . S
C347 C345 1.388 . S
C347 C348 1.366 . S
C348 C347 1.366 . S
C348 C349 1.414 . S
C348 C351 1.499 . S
C349 H323 0.950 . S
C349 C348 1.414 . S
C349 C350 1.374 . S
C350 H324 0.950 . S
C350 C346 1.385 . S
C350 C349 1.374 . S
C351 C348 1.499 . S
C351 C352 1.373 . S
C351 C353 1.389 . S
C352 H325 0.950 . S
C352 C338 1.377 1_565 S
C352 C351 1.373 . S
C353 C337 1.377 1_565 S
C353 C351 1.389 . S
C353 C354 1.524 . S
C354 C353 1.524 . S
C354 C355 1.397 . S
C354 C359 1.363 . S
C355 H326 0.950 . S
C355 C354 1.397 . S
C355 C356 1.334 . S
C356 H327 0.950 . S
C356 C355 1.334 . S
C356 C357 1.287 . S
C357 C356 1.287 . S
C357 C358 1.524 . S
C357 H360 0.999 . S
C358 H328 0.950 . S
C358 C357 1.524 . S
C358 C359 1.415 . S
C359 H329 0.933 1_565 S
C359 C354 1.363 . S
C359 C358 1.415 . S
H360 C357 0.999 . S
H361 C342 0.913 . S
H362 C380 0.951 . S
H363 C382 0.951 . S
H364 C384 0.950 . S
H365 C385 0.950 . S
H366 C387 0.950 . S
H367 C390 0.950 . S
H368 C391 0.950 . S
H369 C393 0.950 . S
H370 C394 0.950 . S
H371 C395 0.951 . S
H372 C397 0.951 . S
H373 C399 0.950 . S
H374 C400 0.950 . S
H375 C402 0.950 . S
H376 C405 0.950 . S
H377 C406 0.950 . S
H378 C408 0.950 . S
H379 C409 0.950 . S
C380 H362 0.951 . S
C380 C381 1.366 . S
C380 C382 1.388 . S
C381 C380 1.366 . S
C381 C385 1.385 . S
C382 H363 0.951 . S
C382 C380 1.388 . S
C382 C383 1.366 . S
C383 C382 1.366 . S
C383 C384 1.414 . S
C383 C386 1.499 . S
C384 H364 0.950 . S
C384 C383 1.414 . S
C384 C385 1.374 . S
C385 H365 0.950 . S
C385 C381 1.385 . S
C385 C384 1.374 . S
C386 C383 1.499 . S
C386 C387 1.373 . S
C386 C388 1.389 . S
C387 H366 0.950 . S
C387 C386 1.373 . S
C387 C403 1.377 . S
C388 C386 1.389 . S
C388 C389 1.524 . S
C388 C402 1.377 . S
C389 C388 1.524 . S
C389 C390 1.397 . S
C389 C394 1.363 . S
C390 H367 0.950 . S
C390 C389 1.397 . S
C390 C391 1.334 . S
C391 H368 0.950 . S
C391 C390 1.334 . S
C391 C392 1.287 . S
C392 C391 1.287 . S
C392 C393 1.524 . S
C392 H411 0.913 . S
C393 H369 0.950 . S
C393 C392 1.524 . S
C393 C394 1.415 . S
C394 H370 0.950 . S
C394 C389 1.363 . S
C394 C393 1.415 . S
C395 H371 0.951 . S
C395 C396 1.366 . S
C395 C397 1.388 . S
C396 C395 1.366 . S
C396 C400 1.385 . S
C397 H372 0.951 . S
C397 C395 1.388 . S
C397 C398 1.366 . S
C398 C397 1.366 . S
C398 C399 1.414 . S
C398 C401 1.499 . S
C399 H373 0.950 . S
C399 C398 1.414 . S
C399 C400 1.374 . S
C400 H374 0.950 . S
C400 C396 1.385 . S
C400 C399 1.374 . S
C401 C398 1.499 . S
C401 C402 1.373 . S
C401 C403 1.389 . S
C402 H375 0.950 . S
C402 C388 1.377 . S
C402 C401 1.373 . S
C403 C387 1.377 . S
C403 C401 1.389 . S
C403 C404 1.524 . S
C404 C403 1.524 . S
C404 C405 1.397 . S
C404 C409 1.363 . S
C405 H376 0.950 . S
C405 C404 1.397 . S
C405 C406 1.334 . S
C406 H377 0.950 . S
C406 C405 1.334 . S
C406 C407 1.287 . S
C407 C406 1.287 . S
C407 C408 1.524 . S
C407 H410 0.999 . S
C408 H378 0.950 . S
C408 C407 1.524 . S
C408 C409 1.415 . S
C409 H379 0.950 . S
C409 C404 1.363 . S
C409 C408 1.415 . S
H410 C407 0.999 . S
H411 C392 0.913 . S
H412 C430 0.951 . S
H413 C432 0.951 . S
H414 C434 0.950 . S
H415 C435 0.950 . S
H416 C437 0.950 . S
H417 C440 0.950 . S
H418 C441 0.950 . S
H419 C443 0.950 . S
H420 C444 0.950 . S
H421 C445 0.951 . S
H422 C447 0.951 . S
H423 C449 0.950 . S
H424 C450 0.950 . S
H425 C452 0.950 . S
H426 C455 0.950 . S
H427 C456 0.950 . S
H428 C458 0.950 . S
H429 C459 0.950 . S
C430 H412 0.951 . S
C430 C431 1.366 . S
C430 C432 1.388 . S
C431 C430 1.366 . S
C431 C435 1.385 . S
C432 H413 0.951 . S
C432 C430 1.388 . S
C432 C433 1.366 . S
C433 C432 1.366 . S
C433 C434 1.414 . S
C433 C436 1.499 . S
C434 H414 0.950 . S
C434 C433 1.414 . S
C434 C435 1.374 . S
C435 H415 0.950 . S
C435 C431 1.385 . S
C435 C434 1.374 . S
C436 C433 1.499 . S
C436 C437 1.373 . S
C436 C438 1.389 . S
C437 H416 0.950 . S
C437 C436 1.373 . S
C437 C453 1.377 1_655 S
C438 C436 1.389 . S
C438 C439 1.524 . S
C438 C452 1.377 1_655 S
C439 C438 1.524 . S
C439 C440 1.397 . S
C439 C444 1.363 . S
C440 H417 0.950 . S
C440 C439 1.397 . S
C440 C441 1.334 . S
C441 H418 0.950 . S
C441 C440 1.334 . S
C441 C442 1.287 . S
C442 C441 1.287 . S
C442 C443 1.524 . S
C442 H461 0.913 . S
C443 H419 0.950 . S
C443 C442 1.524 . S
C443 C444 1.415 . S
C444 H420 0.950 . S
C444 C439 1.363 . S
C444 C443 1.415 . S
C445 H421 0.951 . S
C445 C446 1.366 . S
C445 C447 1.388 . S
C446 C445 1.366 . S
C446 C450 1.385 . S
C447 H422 0.951 . S
C447 C445 1.388 . S
C447 C448 1.366 . S
C448 C447 1.366 . S
C448 C449 1.414 . S
C448 C451 1.499 . S
C449 H423 0.950 . S
C449 C448 1.414 . S
C449 C450 1.374 . S
C450 H424 0.950 . S
C450 C446 1.385 . S
C450 C449 1.374 . S
C451 C448 1.499 . S
C451 C452 1.373 . S
C451 C453 1.389 . S
C452 H425 0.950 . S
C452 C438 1.377 1_455 S
C452 C451 1.373 . S
C453 C437 1.377 1_455 S
C453 C451 1.389 . S
C453 C454 1.524 . S
C454 C453 1.524 . S
C454 C455 1.397 . S
C454 C459 1.363 . S
C455 H426 0.950 . S
C455 C454 1.397 . S
C455 C456 1.334 . S
C456 H427 0.950 . S
C456 C455 1.334 . S
C456 C457 1.287 . S
C457 C456 1.287 . S
C457 C458 1.524 . S
C457 H460 0.999 . S
C458 H428 0.950 . S
C458 C457 1.524 . S
C458 C459 1.415 . S
C459 H429 0.950 . S
C459 C454 1.363 . S
C459 C458 1.415 . S
H460 C457 0.999 . S
H461 C442 0.913 . S
H462 C480 0.951 . S
H463 C482 0.951 . S
H464 C484 0.950 . S
H465 C485 0.950 . S
H466 C487 0.950 . S
H467 C490 0.950 . S
H468 C491 0.950 . S
H469 C493 0.950 . S
H470 C494 0.950 1_545 S
H471 C495 0.951 . S
H472 C497 0.951 . S
H473 C499 0.950 . S
H474 C500 0.950 . S
H475 C502 0.950 . S
H476 C505 0.950 . S
H477 C506 0.950 . S
H478 C508 0.950 . S
H479 C509 0.950 1_565 S
C480 H462 0.951 . S
C480 C481 1.366 . S
C480 C482 1.388 . S
C481 C480 1.366 . S
C481 C485 1.385 . S
C482 H463 0.951 . S
C482 C480 1.388 . S
C482 C483 1.366 . S
C483 C482 1.366 . S
C483 C484 1.414 . S
C483 C486 1.499 . S
C484 H464 0.950 . S
C484 C483 1.414 . S
C484 C485 1.374 . S
C485 H465 0.950 . S
C485 C481 1.385 . S
C485 C484 1.374 . S
C486 C483 1.499 . S
C486 C487 1.373 . S
C486 C488 1.389 . S
C487 H466 0.950 . S
C487 C486 1.373 . S
C487 C503 1.377 1_565 S
C488 C486 1.389 . S
C488 C489 1.524 . S
C488 C502 1.377 1_565 S
C489 C488 1.524 . S
C489 C490 1.397 . S
C489 C494 1.363 . S
C490 H467 0.950 . S
C490 C489 1.397 . S
C490 C491 1.334 . S
C491 H468 0.950 . S
C491 C490 1.334 . S
C491 C492 1.287 . S
C492 C491 1.287 . S
C492 C493 1.524 . S
C492 H511 0.913 . S
C493 H469 0.950 . S
C493 C492 1.524 . S
C493 C494 1.415 . S
C494 H470 0.950 1_565 S
C494 C489 1.363 . S
C494 C493 1.415 . S
C495 H471 0.951 . S
C495 C496 1.366 . S
C495 C497 1.388 . S
C496 C495 1.366 . S
C496 C500 1.385 . S
C497 H472 0.951 . S
C497 C495 1.388 . S
C497 C498 1.366 . S
C498 C497 1.366 . S
C498 C499 1.414 . S
C498 C501 1.499 . S
C499 H473 0.950 . S
C499 C498 1.414 . S
C499 C500 1.374 . S
C500 H474 0.950 . S
C500 C496 1.385 . S
C500 C499 1.374 . S
C501 C498 1.499 . S
C501 C502 1.373 . S
C501 C503 1.389 . S
C502 H475 0.950 . S
C502 C488 1.377 1_545 S
C502 C501 1.373 . S
C503 C487 1.377 1_545 S
C503 C501 1.389 . S
C503 C504 1.524 . S
C504 C503 1.524 . S
C504 C505 1.397 . S
C504 C509 1.363 . S
C505 H476 0.950 . S
C505 C504 1.397 . S
C505 C506 1.334 . S
C506 H477 0.950 . S
C506 C505 1.334 . S
C506 C507 1.287 . S
C507 C506 1.287 . S
C507 C508 1.524 . S
C507 H510 0.999 . S
C508 H478 0.950 . S
C508 C507 1.524 . S
C508 C509 1.415 . S
C509 H479 0.950 1_545 S
C509 C504 1.363 . S
C509 C508 1.415 . S
H510 C507 0.999 . S
H511 C492 0.913 . S
H512 C530 0.951 . S
H513 C532 0.951 . S
H514 C534 0.950 . S
H515 C535 0.950 . S
H516 C537 0.950 . S
H517 C540 0.950 . S
H518 C541 0.950 . S
H519 C543 0.950 . S
H520 C544 0.950 . S
H521 C545 0.951 . S
H522 C547 0.951 . S
H523 C549 0.950 . S
H524 C550 0.950 . S
H525 C552 0.950 . S
H526 C555 0.950 . S
H527 C556 0.950 . S
H528 C558 0.950 . S
H529 C559 0.950 . S
C530 H512 0.951 . S
C530 C531 1.366 . S
C530 C532 1.388 . S
C531 C530 1.366 . S
C531 C535 1.385 . S
C532 H513 0.951 . S
C532 C530 1.388 . S
C532 C533 1.366 . S
C533 C532 1.366 . S
C533 C534 1.414 . S
C533 C536 1.499 . S
C534 H514 0.950 . S
C534 C533 1.414 . S
C534 C535 1.374 . S
C535 H515 0.950 . S
C535 C531 1.385 . S
C535 C534 1.374 . S
C536 C533 1.499 . S
C536 C537 1.373 . S
C536 C538 1.389 . S
C537 H516 0.950 . S
C537 C536 1.373 . S
C537 C553 1.377 . S
C538 C536 1.389 . S
C538 C539 1.524 . S
C538 C552 1.377 . S
C539 C538 1.524 . S
C539 C540 1.397 . S
C539 C544 1.363 . S
C540 H517 0.950 . S
C540 C539 1.397 . S
C540 C541 1.334 . S
C541 H518 0.950 . S
C541 C540 1.334 . S
C541 C542 1.287 . S
C542 C541 1.287 . S
C542 C543 1.524 . S
C542 H561 0.913 . S
C543 H519 0.950 . S
C543 C542 1.524 . S
C543 C544 1.415 . S
C544 H520 0.950 . S
C544 C539 1.363 . S
C544 C543 1.415 . S
C545 H521 0.951 . S
C545 C546 1.366 . S
C545 C547 1.388 . S
C546 C545 1.366 . S
C546 C550 1.385 . S
C547 H522 0.951 . S
C547 C545 1.388 . S
C547 C548 1.366 . S
C548 C547 1.366 . S
C548 C549 1.414 . S
C548 C551 1.499 . S
C549 H523 0.950 . S
C549 C548 1.414 . S
C549 C550 1.374 . S
C550 H524 0.950 . S
C550 C546 1.385 . S
C550 C549 1.374 . S
C551 C548 1.499 . S
C551 C552 1.373 . S
C551 C553 1.389 . S
C552 H525 0.950 . S
C552 C538 1.377 . S
C552 C551 1.373 . S
C553 C537 1.377 . S
C553 C551 1.389 . S
C553 C554 1.524 . S
C554 C553 1.524 . S
C554 C555 1.397 . S
C554 C559 1.363 . S
C555 H526 0.950 . S
C555 C554 1.397 . S
C555 C556 1.334 . S
C556 H527 0.950 . S
C556 C555 1.334 . S
C556 C557 1.287 . S
C557 C556 1.287 . S
C557 C558 1.524 . S
C557 H560 0.999 . S
C558 H528 0.950 . S
C558 C557 1.524 . S
C558 C559 1.415 . S
C559 H529 0.950 . S
C559 C554 1.363 . S
C559 C558 1.415 . S
H560 C557 0.999 . S
H561 C542 0.913 . S
H562 C580 0.951 . S
H563 C582 0.951 . S
H564 C584 0.950 . S
H565 C585 0.950 . S
H566 C587 0.950 . S
H567 C590 0.950 . S
H568 C591 0.950 . S
H569 C593 0.950 . S
H570 C594 0.950 . S
H571 C595 0.951 . S
H572 C597 0.951 . S
H573 C599 0.950 . S
H574 C600 0.950 . S
H575 C602 0.950 . S
H576 C605 0.950 . S
H577 C606 0.950 . S
H578 C608 0.950 . S
H579 C609 0.950 . S
C580 H562 0.951 . S
C580 C581 1.366 . S
C580 C582 1.388 . S
C581 C580 1.366 . S
C581 C585 1.385 . S
C582 H563 0.951 . S
C582 C580 1.388 . S
C582 C583 1.366 . S
C583 C582 1.366 . S
C583 C584 1.414 . S
C583 C586 1.499 . S
C584 H564 0.950 . S
C584 C583 1.414 . S
C584 C585 1.374 . S
C585 H565 0.950 . S
C585 C581 1.385 . S
C585 C584 1.374 . S
C586 C583 1.499 . S
C586 C587 1.373 . S
C586 C588 1.389 . S
C587 H566 0.950 . S
C587 C586 1.373 . S
C587 C603 1.377 1_455 S
C588 C586 1.389 . S
C588 C589 1.524 . S
C588 C602 1.377 1_455 S
C589 C588 1.524 . S
C589 C590 1.397 . S
C589 C594 1.363 . S
C590 H567 0.950 . S
C590 C589 1.397 . S
C590 C591 1.334 . S
C591 H568 0.950 . S
C591 C590 1.334 . S
C591 C592 1.287 . S
C592 C591 1.287 . S
C592 C593 1.524 . S
C592 H611 0.913 . S
C593 H569 0.950 . S
C593 C592 1.524 . S
C593 C594 1.415 . S
C594 H570 0.950 . S
C594 C589 1.363 . S
C594 C593 1.415 . S
C595 H571 0.951 . S
C595 C596 1.366 . S
C595 C597 1.388 . S
C596 C595 1.366 . S
C596 C600 1.385 . S
C597 H572 0.951 . S
C597 C595 1.388 . S
C597 C598 1.366 . S
C598 C597 1.366 . S
C598 C599 1.414 . S
C598 C601 1.499 . S
C599 H573 0.950 . S
C599 C598 1.414 . S
C599 C600 1.374 . S
C600 H574 0.950 . S
C600 C596 1.385 . S
C600 C599 1.374 . S
C601 C598 1.499 . S
C601 C602 1.373 . S
C601 C603 1.389 . S
C602 H575 0.950 . S
C602 C588 1.377 1_655 S
C602 C601 1.373 . S
C603 C587 1.377 1_655 S
C603 C601 1.389 . S
C603 C604 1.524 . S
C604 C603 1.524 . S
C604 C605 1.397 . S
C604 C609 1.363 . S
C605 H576 0.950 . S
C605 C604 1.397 . S
C605 C606 1.334 . S
C606 H577 0.950 . S
C606 C605 1.334 . S
C606 C607 1.287 . S
C607 C606 1.287 . S
C607 C608 1.524 . S
C607 H610 0.999 . S
C608 H578 0.950 . S
C608 C607 1.524 . S
C608 C609 1.415 . S
C609 H579 0.950 . S
C609 C604 1.363 . S
C609 C608 1.415 . S
H610 C607 0.999 . S
H611 C592 0.913 . S
H612 C630 0.951 . S
H613 C632 0.951 . S
H614 C634 0.950 . S
H615 C635 0.950 . S
H616 C637 0.950 . S
H617 C640 0.950 . S
H618 C641 0.950 . S
H619 C643 0.950 . S
H620 C644 0.950 . S
H621 C645 0.951 . S
H622 C647 0.951 . S
H623 C649 0.950 . S
H624 C650 0.950 . S
H625 C652 0.950 . S
H626 C655 0.950 . S
H627 C656 0.950 . S
H628 C658 0.950 . S
H629 C659 0.950 . S
C630 H612 0.951 . S
C630 C631 1.366 . S
C630 C632 1.388 . S
C631 C630 1.366 . S
C631 C635 1.385 . S
C632 H613 0.951 . S
C632 C630 1.388 . S
C632 C633 1.366 . S
C633 C632 1.366 . S
C633 C634 1.414 . S
C633 C636 1.499 . S
C634 H614 0.950 . S
C634 C633 1.414 . S
C634 C635 1.374 . S
C635 H615 0.950 . S
C635 C631 1.385 . S
C635 C634 1.374 . S
C636 C633 1.499 . S
C636 C637 1.373 . S
C636 C638 1.389 . S
C637 H616 0.950 . S
C637 C636 1.373 . S
C637 C653 1.377 1_565 S
C638 C636 1.389 . S
C638 C639 1.524 . S
C638 C652 1.377 1_565 S
C639 C638 1.524 . S
C639 C640 1.397 . S
C639 C644 1.363 . S
C640 H617 0.950 . S
C640 C639 1.397 . S
C640 C641 1.334 . S
C641 H618 0.950 . S
C641 C640 1.334 . S
C641 C642 1.287 . S
C642 C641 1.287 . S
C642 C643 1.524 . S
C642 H661 0.913 . S
C643 H619 0.950 . S
C643 C642 1.524 . S
C643 C644 1.415 . S
C644 H620 0.950 . S
C644 C639 1.363 . S
C644 C643 1.415 . S
C645 H621 0.951 . S
C645 C646 1.366 . S
C645 C647 1.388 . S
C646 C645 1.366 . S
C646 C650 1.385 . S
C647 H622 0.951 . S
C647 C645 1.388 . S
C647 C648 1.366 . S
C648 C647 1.366 . S
C648 C649 1.414 . S
C648 C651 1.499 . S
C649 H623 0.950 . S
C649 C648 1.414 . S
C649 C650 1.374 . S
C650 H624 0.950 . S
C650 C646 1.385 . S
C650 C649 1.374 . S
C651 C648 1.499 . S
C651 C652 1.373 . S
C651 C653 1.389 . S
C652 H625 0.950 . S
C652 C638 1.377 1_545 S
C652 C651 1.373 . S
C653 C637 1.377 1_545 S
C653 C651 1.389 . S
C653 C654 1.524 . S
C654 C653 1.524 . S
C654 C655 1.397 . S
C654 C659 1.363 . S
C655 H626 0.950 . S
C655 C654 1.397 . S
C655 C656 1.334 . S
C656 H627 0.950 . S
C656 C655 1.334 . S
C656 C657 1.287 . S
C657 C656 1.287 . S
C657 C658 1.524 . S
C657 H660 0.999 . S
C658 H628 0.950 . S
C658 C657 1.524 . S
C658 C659 1.415 . S
C659 H629 0.950 . S
C659 C654 1.363 . S
C659 C658 1.415 . S
H660 C657 0.999 . S
H661 C642 0.913 . S
H662 C680 0.951 . S
H663 C682 0.951 . S
H664 C684 0.950 . S
H665 C685 0.950 . S
H666 C687 0.950 . S
H667 C690 0.950 . S
H668 C691 0.950 . S
H669 C693 0.950 . S
H670 C694 0.950 . S
H671 C695 0.951 . S
H672 C697 0.951 . S
H673 C699 0.950 . S
H674 C700 0.950 . S
H675 C702 0.950 . S
H676 C705 0.950 . S
H677 C706 0.950 . S
H678 C708 0.950 . S
H679 C709 0.950 . S
C680 H662 0.951 . S
C680 C681 1.366 . S
C680 C682 1.388 . S
C681 C680 1.366 . S
C681 C685 1.385 . S
C682 H663 0.951 . S
C682 C680 1.388 . S
C682 C683 1.366 . S
C683 C682 1.366 . S
C683 C684 1.414 . S
C683 C686 1.499 . S
C684 H664 0.950 . S
C684 C683 1.414 . S
C684 C685 1.374 . S
C685 H665 0.950 . S
C685 C681 1.385 . S
C685 C684 1.374 . S
C686 C683 1.499 . S
C686 C687 1.373 . S
C686 C688 1.389 . S
C687 H666 0.950 . S
C687 C686 1.373 . S
C687 C703 1.377 . S
C688 C686 1.389 . S
C688 C689 1.524 . S
C688 C702 1.377 . S
C689 C688 1.524 . S
C689 C690 1.397 . S
C689 C694 1.363 . S
C690 H667 0.950 . S
C690 C689 1.397 . S
C690 C691 1.334 . S
C691 H668 0.950 . S
C691 C690 1.334 . S
C691 C692 1.287 . S
C692 C691 1.287 . S
C692 C693 1.524 . S
C692 H711 0.913 . S
C693 H669 0.950 . S
C693 C692 1.524 . S
C693 C694 1.415 . S
C694 H670 0.950 . S
C694 C689 1.363 . S
C694 C693 1.415 . S
C695 H671 0.951 . S
C695 C696 1.366 . S
C695 C697 1.388 . S
C696 C695 1.366 . S
C696 C700 1.385 . S
C697 H672 0.951 . S
C697 C695 1.388 . S
C697 C698 1.366 . S
C698 C697 1.366 . S
C698 C699 1.414 . S
C698 C701 1.499 . S
C699 H673 0.950 . S
C699 C698 1.414 . S
C699 C700 1.374 . S
C700 H674 0.950 . S
C700 C696 1.385 . S
C700 C699 1.374 . S
C701 C698 1.499 . S
C701 C702 1.373 . S
C701 C703 1.389 . S
C702 H675 0.950 . S
C702 C688 1.377 . S
C702 C701 1.373 . S
C703 C687 1.377 . S
C703 C701 1.389 . S
C703 C704 1.524 . S
C704 C703 1.524 . S
C704 C705 1.397 . S
C704 C709 1.363 . S
C705 H676 0.950 . S
C705 C704 1.397 . S
C705 C706 1.334 . S
C706 H677 0.950 . S
C706 C705 1.334 . S
C706 C707 1.287 . S
C707 C706 1.287 . S
C707 C708 1.524 . S
C707 H710 0.999 . S
C708 H678 0.950 . S
C708 C707 1.524 . S
C708 C709 1.415 . S
C709 H679 0.950 . S
C709 C704 1.363 . S
C709 C708 1.415 . S
H710 C707 0.999 . S
H711 C692 0.913 . S
H712 C730 0.951 . S
H713 C732 0.951 . S
H714 C734 0.950 . S
H715 C735 0.950 . S
H716 C737 0.950 . S
H717 C740 0.950 . S
H718 C741 0.950 . S
H719 C743 0.950 . S
H720 C744 0.950 . S
H721 C745 0.951 . S
H722 C747 0.951 . S
H723 C749 0.950 . S
H724 C750 0.950 . S
H725 C752 0.950 . S
H726 C755 0.950 . S
H727 C756 0.950 . S
H728 C758 0.950 . S
H729 C759 0.950 . S
C730 H712 0.951 . S
C730 C731 1.366 . S
C730 C732 1.388 . S
C731 C730 1.366 . S
C731 C735 1.385 . S
C732 H713 0.951 . S
C732 C730 1.388 . S
C732 C733 1.366 . S
C733 C732 1.366 . S
C733 C734 1.414 . S
C733 C736 1.499 . S
C734 H714 0.950 . S
C734 C733 1.414 . S
C734 C735 1.374 . S
C735 H715 0.950 . S
C735 C731 1.385 . S
C735 C734 1.374 . S
C736 C733 1.499 . S
C736 C737 1.373 . S
C736 C738 1.389 . S
C737 H716 0.950 . S
C737 C736 1.373 . S
C737 C753 1.377 1_655 S
C738 C736 1.389 . S
C738 C739 1.524 . S
C738 C752 1.377 1_655 S
C739 C738 1.524 . S
C739 C740 1.397 . S
C739 C744 1.363 . S
C740 H717 0.950 . S
C740 C739 1.397 . S
C740 C741 1.334 . S
C741 H718 0.950 . S
C741 C740 1.334 . S
C741 C742 1.287 . S
C742 C741 1.287 . S
C742 C743 1.524 . S
C742 H761 0.913 . S
C743 H719 0.950 . S
C743 C742 1.524 . S
C743 C744 1.415 . S
C744 H720 0.950 . S
C744 C739 1.363 . S
C744 C743 1.415 . S
C745 H721 0.951 . S
C745 C746 1.366 . S
C745 C747 1.388 . S
C746 C745 1.366 . S
C746 C750 1.385 . S
C747 H722 0.951 . S
C747 C745 1.388 . S
C747 C748 1.366 . S
C748 C747 1.366 . S
C748 C749 1.414 . S
C748 C751 1.499 . S
C749 H723 0.950 . S
C749 C748 1.414 . S
C749 C750 1.374 . S
C750 H724 0.950 . S
C750 C746 1.385 . S
C750 C749 1.374 . S
C751 C748 1.499 . S
C751 C752 1.373 . S
C751 C753 1.389 . S
C752 H725 0.950 . S
C752 C738 1.377 1_455 S
C752 C751 1.373 . S
C753 C737 1.377 1_455 S
C753 C751 1.389 . S
C753 C754 1.524 . S
C754 C753 1.524 . S
C754 C755 1.397 . S
C754 C759 1.363 . S
C755 H726 0.950 . S
C755 C754 1.397 . S
C755 C756 1.334 . S
C756 H727 0.950 . S
C756 C755 1.334 . S
C756 C757 1.287 . S
C757 C756 1.287 . S
C757 C758 1.524 . S
C757 H760 0.999 . S
C758 H728 0.950 . S
C758 C757 1.524 . S
C758 C759 1.415 . S
C759 H729 0.950 . S
C759 C754 1.363 . S
C759 C758 1.415 . S
H760 C757 0.999 . S
H761 C742 0.913 . S
H762 C780 0.951 . S
H763 C782 0.951 . S
H764 C784 0.950 . S
H765 C785 0.950 . S
H766 C787 0.950 . S
H767 C790 0.950 . S
H768 C791 0.950 . S
H769 C793 0.950 . S
H770 C794 0.950 . S
H771 C795 0.951 . S
H772 C797 0.951 . S
H773 C799 0.950 . S
H774 C800 0.950 . S
H775 C802 0.950 . S
H776 C805 0.950 . S
H777 C806 0.950 . S
H778 C808 0.950 . S
H779 C809 0.950 . S
C780 H762 0.951 . S
C780 C781 1.366 . S
C780 C782 1.388 . S
C781 C780 1.366 . S
C781 C785 1.385 . S
C782 H763 0.951 . S
C782 C780 1.388 . S
C782 C783 1.366 . S
C783 C782 1.366 . S
C783 C784 1.414 . S
C783 C786 1.499 . S
C784 H764 0.950 . S
C784 C783 1.414 . S
C784 C785 1.374 . S
C785 H765 0.950 . S
C785 C781 1.385 . S
C785 C784 1.374 . S
C786 C783 1.499 . S
C786 C787 1.373 . S
C786 C788 1.389 . S
C787 H766 0.950 . S
C787 C786 1.373 . S
C787 C803 1.377 1_545 S
C788 C786 1.389 . S
C788 C789 1.524 . S
C788 C802 1.377 1_545 S
C789 C788 1.524 . S
C789 C790 1.397 . S
C789 C794 1.363 1_545 S
C790 H767 0.950 . S
C790 C789 1.397 . S
C790 C791 1.334 . S
C791 H768 0.950 . S
C791 C790 1.334 . S
C791 C792 1.287 . S
C792 C791 1.287 . S
C792 C793 1.524 1_545 S
C792 H811 0.913 . S
C793 H769 0.950 . S
C793 C792 1.524 1_565 S
C793 C794 1.415 . S
C794 H770 0.950 . S
C794 C789 1.363 1_565 S
C794 C793 1.415 . S
C795 H771 0.951 . S
C795 C796 1.366 . S
C795 C797 1.388 . S
C796 C795 1.366 . S
C796 C800 1.385 . S
C797 H772 0.951 . S
C797 C795 1.388 . S
C797 C798 1.366 . S
C798 C797 1.366 . S
C798 C799 1.414 . S
C798 C801 1.499 . S
C799 H773 0.950 . S
C799 C798 1.414 . S
C799 C800 1.374 . S
C800 H774 0.950 . S
C800 C796 1.385 . S
C800 C799 1.374 . S
C801 C798 1.499 . S
C801 C802 1.373 . S
C801 C803 1.389 . S
C802 H775 0.950 . S
C802 C788 1.377 1_565 S
C802 C801 1.373 . S
C803 C787 1.377 1_565 S
C803 C801 1.389 . S
C803 C804 1.524 . S
C804 C803 1.524 . S
C804 C805 1.397 . S
C804 C809 1.363 1_565 S
C805 H776 0.950 . S
C805 C804 1.397 . S
C805 C806 1.334 . S
C806 H777 0.950 . S
C806 C805 1.334 . S
C806 C807 1.287 . S
C807 C806 1.287 . S
C807 C808 1.524 1_565 S
C807 H810 0.999 . S
C808 H778 0.950 . S
C808 C807 1.524 1_545 S
C808 C809 1.415 . S
C809 H779 0.950 . S
C809 C804 1.363 1_545 S
C809 C808 1.415 . S
H810 C807 0.999 . S
H811 C792 0.913 . S
H812 C830 0.951 . S
H813 C832 0.951 . S
H814 C834 0.950 . S
H815 C835 0.950 . S
H816 C837 0.950 . S
H817 C840 0.950 . S
H818 C841 0.950 . S
H819 C843 0.950 . S
H820 C844 0.950 . S
H821 C845 0.951 . S
H822 C847 0.951 . S
H823 C849 0.950 . S
H824 C850 0.950 . S
H825 C852 0.950 . S
H826 C855 0.950 . S
H827 C856 0.950 . S
H828 C858 0.950 . S
H829 C859 0.950 . S
C830 H812 0.951 . S
C830 C831 1.366 . S
C830 C832 1.388 . S
C831 C830 1.366 . S
C831 C835 1.385 . S
C832 H813 0.951 . S
C832 C830 1.388 . S
C832 C833 1.366 . S
C833 C832 1.366 . S
C833 C834 1.414 . S
C833 C836 1.499 . S
C834 H814 0.950 . S
C834 C833 1.414 . S
C834 C835 1.374 . S
C835 H815 0.950 . S
C835 C831 1.385 . S
C835 C834 1.374 . S
C836 C833 1.499 . S
C836 C837 1.373 . S
C836 C838 1.389 . S
C837 H816 0.950 . S
C837 C836 1.373 . S
C837 C853 1.377 . S
C838 C836 1.389 . S
C838 C839 1.524 . S
C838 C852 1.377 . S
C839 C838 1.524 . S
C839 C840 1.397 . S
C839 C844 1.363 . S
C840 H817 0.950 . S
C840 C839 1.397 . S
C840 C841 1.334 . S
C841 H818 0.950 . S
C841 C840 1.334 . S
C841 C842 1.287 . S
C842 C841 1.287 . S
C842 C843 1.524 . S
C842 H861 0.913 . S
C843 H819 0.950 . S
C843 C842 1.524 . S
C843 C844 1.415 . S
C844 H820 0.950 . S
C844 C839 1.363 . S
C844 C843 1.415 . S
C845 H821 0.951 . S
C845 C846 1.366 . S
C845 C847 1.388 . S
C846 C845 1.366 . S
C846 C850 1.385 . S
C847 H822 0.951 . S
C847 C845 1.388 . S
C847 C848 1.366 . S
C848 C847 1.366 . S
C848 C849 1.414 . S
C848 C851 1.499 . S
C849 H823 0.950 . S
C849 C848 1.414 . S
C849 C850 1.374 . S
C850 H824 0.950 . S
C850 C846 1.385 . S
C850 C849 1.374 . S
C851 C848 1.499 . S
C851 C852 1.373 . S
C851 C853 1.389 . S
C852 H825 0.950 . S
C852 C838 1.377 . S
C852 C851 1.373 . S
C853 C837 1.377 . S
C853 C851 1.389 . S
C853 C854 1.524 . S
C854 C853 1.524 . S
C854 C855 1.397 . S
C854 C859 1.363 . S
C855 H826 0.950 . S
C855 C854 1.397 . S
C855 C856 1.334 . S
C856 H827 0.950 . S
C856 C855 1.334 . S
C856 C857 1.287 . S
C857 C856 1.287 . S
C857 C858 1.524 . S
C857 H860 0.999 . S
C858 H828 0.950 . S
C858 C857 1.524 . S
C858 C859 1.415 . S
C859 H829 0.950 . S
C859 C854 1.363 . S
C859 C858 1.415 . S
H860 C857 0.999 . S
H861 C842 0.913 . S
H862 C880 0.951 . S
H863 C882 0.951 . S
H864 C884 0.950 . S
H865 C885 0.950 . S
H866 C887 0.950 . S
H867 C890 0.950 . S
H868 C891 0.950 . S
H869 C893 0.944 . S
H870 C894 0.950 . S
H871 C895 0.951 . S
H872 C897 0.951 . S
H873 C899 0.950 . S
H874 C900 0.950 . S
H875 C902 0.950 . S
H876 C905 0.950 . S
H877 C906 0.950 . S
H878 C908 0.944 . S
H879 C909 0.950 . S
C880 H862 0.951 . S
C880 C881 1.366 . S
C880 C882 1.388 . S
C881 C880 1.366 . S
C881 C885 1.385 . S
C882 H863 0.951 . S
C882 C880 1.388 . S
C882 C883 1.366 . S
C883 C882 1.366 . S
C883 C884 1.414 . S
C883 C886 1.499 . S
C884 H864 0.950 . S
C884 C883 1.414 . S
C884 C885 1.374 . S
C885 H865 0.950 . S
C885 C881 1.385 . S
C885 C884 1.374 . S
C886 C883 1.499 . S
C886 C887 1.373 . S
C886 C888 1.389 . S
C887 H866 0.950 . S
C887 C886 1.373 . S
C887 C903 1.377 1_455 S
C888 C886 1.389 . S
C888 C889 1.524 . S
C888 C902 1.377 1_455 S
C889 C888 1.524 . S
C889 C890 1.397 . S
C889 C894 1.363 1_455 S
C890 H867 0.950 . S
C890 C889 1.397 . S
C890 C891 1.334 . S
C891 H868 0.950 . S
C891 C890 1.334 . S
C891 C892 1.287 . S
C892 C891 1.287 . S
C892 C893 1.525 1_455 S
C892 H911 0.913 . S
C893 H869 0.944 . S
C893 C892 1.525 1_655 S
C893 C894 1.422 . S
C894 H870 0.950 . S
C894 C889 1.363 1_655 S
C894 C893 1.422 . S
C895 H871 0.951 . S
C895 C896 1.366 . S
C895 C897 1.388 . S
C896 C895 1.366 . S
C896 C900 1.385 . S
C897 H872 0.951 . S
C897 C895 1.388 . S
C897 C898 1.366 . S
C898 C897 1.366 . S
C898 C899 1.414 . S
C898 C901 1.499 . S
C899 H873 0.950 . S
C899 C898 1.414 . S
C899 C900 1.374 . S
C900 H874 0.950 . S
C900 C896 1.385 . S
C900 C899 1.374 . S
C901 C898 1.499 . S
C901 C902 1.373 . S
C901 C903 1.389 . S
C902 H875 0.950 . S
C902 C888 1.377 1_655 S
C902 C901 1.373 . S
C903 C887 1.377 1_655 S
C903 C901 1.389 . S
C903 C904 1.524 . S
C904 C903 1.524 . S
C904 C905 1.397 . S
C904 C909 1.363 1_655 S
C905 H876 0.950 . S
C905 C904 1.397 . S
C905 C906 1.334 . S
C906 H877 0.950 . S
C906 C905 1.334 . S
C906 C907 1.287 . S
C907 C906 1.287 . S
C907 C908 1.525 1_655 S
C907 H910 0.999 . S
C908 H878 0.944 . S
C908 C907 1.525 1_455 S
C908 C909 1.421 . S
C909 H879 0.950 . S
C909 C904 1.363 1_455 S
C909 C908 1.421 . S
H910 C907 0.999 . S
H911 C892 0.913 . S
H912 C930 0.951 . S
H913 C932 0.951 . S
H914 C934 0.950 . S
H915 C935 0.950 . S
H916 C937 0.950 . S
H917 C940 0.950 . S
H918 C941 0.950 . S
H919 C943 0.950 . S
H920 C944 0.950 . S
H921 C945 0.951 . S
H922 C947 0.951 . S
H923 C949 0.950 . S
H924 C950 0.950 . S
H925 C952 0.950 . S
H926 C955 0.950 . S
H927 C956 0.950 . S
H928 C958 0.950 . S
H929 C959 0.950 . S
C930 H912 0.951 . S
C930 C931 1.366 . S
C930 C932 1.388 . S
C931 C930 1.366 . S
C931 C935 1.385 . S
C932 H913 0.951 . S
C932 C930 1.388 . S
C932 C933 1.366 . S
C933 C932 1.366 . S
C933 C934 1.414 . S
C933 C936 1.499 . S
C934 H914 0.950 . S
C934 C933 1.414 . S
C934 C935 1.374 . S
C935 H915 0.950 . S
C935 C931 1.385 . S
C935 C934 1.374 . S
C936 C933 1.499 . S
C936 C937 1.373 . S
C936 C938 1.389 . S
C937 H916 0.950 . S
C937 C936 1.373 . S
C937 C953 1.377 . S
C938 C936 1.389 . S
C938 C939 1.524 . S
C938 C952 1.377 . S
C939 C938 1.524 . S
C939 C940 1.397 . S
C939 C944 1.363 . S
C940 H917 0.950 . S
C940 C939 1.397 . S
C940 C941 1.334 . S
C941 H918 0.950 . S
C941 C940 1.334 . S
C941 C942 1.287 . S
C942 C941 1.287 . S
C942 C943 1.524 . S
C942 H961 0.913 . S
C943 H919 0.950 . S
C943 C942 1.524 . S
C943 C944 1.415 . S
C944 H920 0.950 . S
C944 C939 1.363 . S
C944 C943 1.415 . S
C945 H921 0.951 . S
C945 C946 1.366 . S
C945 C947 1.388 . S
C946 C945 1.366 . S
C946 C950 1.385 . S
C947 H922 0.951 . S
C947 C945 1.388 . S
C947 C948 1.366 . S
C948 C947 1.366 . S
C948 C949 1.414 . S
C948 C951 1.499 . S
C949 H923 0.950 . S
C949 C948 1.414 . S
C949 C950 1.374 . S
C950 H924 0.950 . S
C950 C946 1.385 . S
C950 C949 1.374 . S
C951 C948 1.499 . S
C951 C952 1.373 . S
C951 C953 1.389 . S
C952 H925 0.950 . S
C952 C938 1.377 . S
C952 C951 1.373 . S
C953 C937 1.377 . S
C953 C951 1.389 . S
C953 C954 1.524 . S
C954 C953 1.524 . S
C954 C955 1.397 . S
C954 C959 1.363 . S
C955 H926 0.950 . S
C955 C954 1.397 . S
C955 C956 1.334 . S
C956 H927 0.950 . S
C956 C955 1.334 . S
C956 C957 1.287 . S
C957 C956 1.287 . S
C957 C958 1.524 . S
C957 H960 0.999 . S
C958 H928 0.950 . S
C958 C957 1.524 . S
C958 C959 1.415 . S
C959 H929 0.950 . S
C959 C954 1.363 . S
C959 C958 1.415 . S
H960 C957 0.999 . S
H961 C942 0.913 . S
H962 C980 0.951 . S
H963 C982 0.951 . S
H964 C984 0.950 . S
H965 C985 0.950 . S
H966 C987 0.950 . S
H967 C990 0.950 . S
H968 C991 0.950 . S
H969 C993 0.950 . S
H970 C994 0.950 . S
H971 C995 0.951 . S
H972 C997 0.951 . S
H973 C999 0.950 . S
H974 C1000 0.950 . S
H975 C1002 0.950 . S
H976 C1005 0.950 . S
H977 C1006 0.950 . S
H978 C1008 0.950 . S
H979 C1009 0.950 . S
C980 H962 0.951 . S
C980 C981 1.366 . S
C980 C982 1.388 . S
C981 C980 1.366 . S
C981 C985 1.385 . S
C982 H963 0.951 . S
C982 C980 1.388 . S
C982 C983 1.366 . S
C983 C982 1.366 . S
C983 C984 1.414 . S
C983 C986 1.499 . S
C984 H964 0.950 . S
C984 C983 1.414 . S
C984 C985 1.374 . S
C985 H965 0.950 . S
C985 C981 1.385 . S
C985 C984 1.374 . S
C986 C983 1.499 . S
C986 C987 1.373 . S
C986 C988 1.389 . S
C987 H966 0.950 . S
C987 C986 1.373 . S
C987 C1003 1.377 . S
C988 C986 1.389 . S
C988 C989 1.524 . S
C988 C1002 1.377 . S
C989 C988 1.524 . S
C989 C990 1.397 . S
C989 C994 1.363 . S
C990 H967 0.950 . S
C990 C989 1.397 . S
C990 C991 1.334 . S
C991 H968 0.950 . S
C991 C990 1.334 . S
C991 C992 1.287 . S
C992 C991 1.287 . S
C992 C993 1.524 . S
C992 H1011 0.913 . S
C993 H969 0.950 . S
C993 C992 1.524 . S
C993 C994 1.415 . S
C994 H970 0.950 . S
C994 C989 1.363 . S
C994 C993 1.415 . S
C995 H971 0.951 . S
C995 C996 1.366 . S
C995 C997 1.388 . S
C996 C995 1.366 . S
C996 C1000 1.385 . S
C997 H972 0.951 . S
C997 C995 1.388 . S
C997 C998 1.366 . S
C998 C997 1.366 . S
C998 C999 1.414 . S
C998 C1001 1.499 . S
C999 H973 0.950 . S
C999 C998 1.414 . S
C999 C1000 1.374 . S
C1000 H974 0.950 . S
C1000 C996 1.385 . S
C1000 C999 1.374 . S
C1001 C998 1.499 . S
C1001 C1002 1.373 . S
C1001 C1003 1.389 . S
C1002 H975 0.950 . S
C1002 C988 1.377 . S
C1002 C1001 1.373 . S
C1003 C987 1.377 . S
C1003 C1001 1.389 . S
C1003 C1004 1.524 . S
C1004 C1003 1.524 . S
C1004 C1005 1.397 . S
C1004 C1009 1.363 . S
C1005 H976 0.950 . S
C1005 C1004 1.397 . S
C1005 C1006 1.334 . S
C1006 H977 0.950 . S
C1006 C1005 1.334 . S
C1006 C1007 1.287 . S
C1007 C1006 1.287 . S
C1007 C1008 1.524 . S
C1007 H1010 0.999 . S
C1008 H978 0.950 . S
C1008 C1007 1.524 . S
C1008 C1009 1.415 . S
C1009 H979 0.950 . S
C1009 C1004 1.363 . S
C1009 C1008 1.415 . S
H1010 C1007 0.999 . S
H1011 C992 0.913 . S
H1012 C1030 0.951 . S
H1013 C1032 0.951 . S
H1014 C1034 0.950 . S
H1015 C1035 0.950 . S
H1016 C1037 0.950 . S
H1017 C1040 0.950 . S
H1018 C1041 0.950 . S
H1019 C1043 0.950 . S
H1020 C1044 0.950 . S
H1021 C1045 0.951 . S
H1022 C1047 0.951 . S
H1023 C1049 0.950 . S
H1024 C1050 0.950 . S
H1025 C1052 0.950 . S
H1026 C1055 0.950 . S
H1027 C1056 0.950 . S
H1028 C1058 0.950 . S
H1029 C1059 0.950 . S
C1030 H1012 0.951 . S
C1030 C1031 1.366 . S
C1030 C1032 1.388 . S
C1031 C1030 1.366 . S
C1031 C1035 1.385 . S
C1032 H1013 0.951 . S
C1032 C1030 1.388 . S
C1032 C1033 1.366 . S
C1033 C1032 1.366 . S
C1033 C1034 1.414 . S
C1033 C1036 1.499 . S
C1034 H1014 0.950 . S
C1034 C1033 1.414 . S
C1034 C1035 1.374 . S
C1035 H1015 0.950 . S
C1035 C1031 1.385 . S
C1035 C1034 1.374 . S
C1036 C1033 1.499 . S
C1036 C1037 1.373 . S
C1036 C1038 1.389 . S
C1037 H1016 0.950 . S
C1037 C1036 1.373 . S
C1037 C1053 1.377 . S
C1038 C1036 1.389 . S
C1038 C1039 1.524 . S
C1038 C1052 1.377 . S
C1039 C1038 1.524 . S
C1039 C1040 1.397 . S
C1039 C1044 1.363 . S
C1040 H1017 0.950 . S
C1040 C1039 1.397 . S
C1040 C1041 1.334 . S
C1041 H1018 0.950 . S
C1041 C1040 1.334 . S
C1041 C1042 1.287 . S
C1042 C1041 1.287 . S
C1042 C1043 1.524 . S
C1042 H1061 0.913 . S
C1043 H1019 0.950 . S
C1043 C1042 1.524 . S
C1043 C1044 1.415 . S
C1044 H1020 0.950 . S
C1044 C1039 1.363 . S
C1044 C1043 1.415 . S
C1045 H1021 0.951 . S
C1045 C1046 1.366 . S
C1045 C1047 1.388 . S
C1046 C1045 1.366 . S
C1046 C1050 1.385 . S
C1047 H1022 0.951 . S
C1047 C1045 1.388 . S
C1047 C1048 1.366 . S
C1048 C1047 1.366 . S
C1048 C1049 1.414 . S
C1048 C1051 1.499 . S
C1049 H1023 0.950 . S
C1049 C1048 1.414 . S
C1049 C1050 1.374 . S
C1050 H1024 0.950 . S
C1050 C1046 1.385 . S
C1050 C1049 1.374 . S
C1051 C1048 1.499 . S
C1051 C1052 1.373 . S
C1051 C1053 1.389 . S
C1052 H1025 0.950 . S
C1052 C1038 1.377 . S
C1052 C1051 1.373 . S
C1053 C1037 1.377 . S
C1053 C1051 1.389 . S
C1053 C1054 1.524 . S
C1054 C1053 1.524 . S
C1054 C1055 1.397 . S
C1054 C1059 1.363 . S
C1055 H1026 0.950 . S
C1055 C1054 1.397 . S
C1055 C1056 1.334 . S
C1056 H1027 0.950 . S
C1056 C1055 1.334 . S
C1056 C1057 1.287 . S
C1057 C1056 1.287 . S
C1057 C1058 1.524 . S
C1057 H1060 0.999 . S
C1058 H1028 0.950 . S
C1058 C1057 1.524 . S
C1058 C1059 1.415 . S
C1059 H1029 0.950 . S
C1059 C1054 1.363 . S
C1059 C1058 1.415 . S
H1060 C1057 0.999 . S
H1061 C1042 0.913 . S
H1062 C1080 0.951 . S
H1063 C1082 0.951 . S
H1064 C1084 0.950 . S
H1065 C1085 0.950 . S
H1066 C1087 0.950 . S
H1067 C1090 0.950 . S
H1068 C1091 0.950 . S
H1069 C1093 0.950 . S
H1070 C1094 0.950 . S
H1071 C1095 0.951 . S
H1072 C1097 0.951 . S
H1073 C1099 0.950 . S
H1074 C1100 0.950 . S
H1075 C1102 0.950 . S
H1076 C1105 0.950 . S
H1077 C1106 0.950 . S
H1078 C1108 0.950 . S
H1079 C1109 0.950 . S
C1080 H1062 0.951 . S
C1080 C1081 1.366 . S
C1080 C1082 1.388 . S
C1081 C1080 1.366 . S
C1081 C1085 1.385 . S
C1082 H1063 0.951 . S
C1082 C1080 1.388 . S
C1082 C1083 1.366 . S
C1083 C1082 1.366 . S
C1083 C1084 1.414 . S
C1083 C1086 1.499 . S
C1084 H1064 0.950 . S
C1084 C1083 1.414 . S
C1084 C1085 1.374 . S
C1085 H1065 0.950 . S
C1085 C1081 1.385 . S
C1085 C1084 1.374 . S
C1086 C1083 1.499 . S
C1086 C1087 1.373 . S
C1086 C1088 1.389 . S
C1087 H1066 0.950 . S
C1087 C1086 1.373 . S
C1087 C1103 1.377 . S
C1088 C1086 1.389 . S
C1088 C1089 1.524 . S
C1088 C1102 1.377 . S
C1089 C1088 1.524 . S
C1089 C1090 1.397 . S
C1089 C1094 1.363 . S
C1090 H1067 0.950 . S
C1090 C1089 1.397 . S
C1090 C1091 1.334 . S
C1091 H1068 0.950 . S
C1091 C1090 1.334 . S
C1091 C1092 1.287 . S
C1092 C1091 1.287 . S
C1092 C1093 1.524 . S
C1092 H1111 0.913 . S
C1093 H1069 0.950 . S
C1093 C1092 1.524 . S
C1093 C1094 1.415 . S
C1094 H1070 0.950 . S
C1094 C1089 1.363 . S
C1094 C1093 1.415 . S
C1095 H1071 0.951 . S
C1095 C1096 1.366 . S
C1095 C1097 1.388 . S
C1096 C1095 1.366 . S
C1096 C1100 1.385 . S
C1097 H1072 0.951 . S
C1097 C1095 1.388 . S
C1097 C1098 1.366 . S
C1098 C1097 1.366 . S
C1098 C1099 1.414 . S
C1098 C1101 1.499 . S
C1099 H1073 0.950 . S
C1099 C1098 1.414 . S
C1099 C1100 1.374 . S
C1100 H1074 0.950 . S
C1100 C1096 1.385 . S
C1100 C1099 1.374 . S
C1101 C1098 1.499 . S
C1101 C1102 1.373 . S
C1101 C1103 1.389 . S
C1102 H1075 0.950 . S
C1102 C1088 1.377 . S
C1102 C1101 1.373 . S
C1103 C1087 1.377 . S
C1103 C1101 1.389 . S
C1103 C1104 1.524 . S
C1104 C1103 1.524 . S
C1104 C1105 1.397 . S
C1104 C1109 1.363 . S
C1105 H1076 0.950 . S
C1105 C1104 1.397 . S
C1105 C1106 1.334 . S
C1106 H1077 0.950 . S
C1106 C1105 1.334 . S
C1106 C1107 1.287 . S
C1107 C1106 1.287 . S
C1107 C1108 1.524 . S
C1107 H1110 0.999 . S
C1108 H1078 0.950 . S
C1108 C1107 1.524 . S
C1108 C1109 1.415 . S
C1109 H1079 0.950 . S
C1109 C1104 1.363 . S
C1109 C1108 1.415 . S
H1110 C1107 0.999 . S
H1111 C1092 0.913 . S
H1112 C1130 0.951 . S
H1113 C1132 0.951 . S
H1114 C1134 0.950 . S
H1115 C1135 0.950 . S
H1116 C1137 0.950 . S
H1117 C1140 0.950 . S
H1118 C1141 0.950 . S
H1119 C1143 0.950 . S
H1120 C1144 0.950 . S
H1121 C1145 0.951 . S
H1122 C1147 0.951 . S
H1123 C1149 0.950 . S
H1124 C1150 0.950 . S
H1125 C1152 0.950 . S
H1126 C1155 0.950 . S
H1127 C1156 0.950 . S
H1128 C1158 0.950 . S
H1129 C1159 0.950 . S
C1130 H1112 0.951 . S
C1130 C1131 1.366 . S
C1130 C1132 1.388 . S
C1131 C1130 1.366 . S
C1131 C1135 1.385 . S
C1132 H1113 0.951 . S
C1132 C1130 1.388 . S
C1132 C1133 1.366 . S
C1133 C1132 1.366 . S
C1133 C1134 1.414 . S
C1133 C1136 1.499 . S
C1134 H1114 0.950 . S
C1134 C1133 1.414 . S
C1134 C1135 1.374 . S
C1135 H1115 0.950 . S
C1135 C1131 1.385 . S
C1135 C1134 1.374 . S
C1136 C1133 1.499 . S
C1136 C1137 1.373 . S
C1136 C1138 1.389 . S
C1137 H1116 0.950 . S
C1137 C1136 1.373 . S
C1137 C1153 1.377 . S
C1138 C1136 1.389 . S
C1138 C1139 1.524 . S
C1138 C1152 1.377 . S
C1139 C1138 1.524 . S
C1139 C1140 1.397 . S
C1139 C1144 1.363 . S
C1140 H1117 0.950 . S
C1140 C1139 1.397 . S
C1140 C1141 1.334 . S
C1141 H1118 0.950 . S
C1141 C1140 1.334 . S
C1141 C1142 1.287 . S
C1142 C1141 1.287 . S
C1142 C1143 1.524 . S
C1142 H1161 0.913 . S
C1143 H1119 0.950 . S
C1143 C1142 1.524 . S
C1143 C1144 1.415 . S
C1144 H1120 0.950 . S
C1144 C1139 1.363 . S
C1144 C1143 1.415 . S
C1145 H1121 0.951 . S
C1145 C1146 1.366 . S
C1145 C1147 1.388 . S
C1146 C1145 1.366 . S
C1146 C1150 1.385 . S
C1147 H1122 0.951 . S
C1147 C1145 1.388 . S
C1147 C1148 1.366 . S
C1148 C1147 1.366 . S
C1148 C1149 1.414 . S
C1148 C1151 1.499 . S
C1149 H1123 0.950 . S
C1149 C1148 1.414 . S
C1149 C1150 1.374 . S
C1150 H1124 0.950 . S
C1150 C1146 1.385 . S
C1150 C1149 1.374 . S
C1151 C1148 1.499 . S
C1151 C1152 1.373 . S
C1151 C1153 1.389 . S
C1152 H1125 0.950 . S
C1152 C1138 1.377 . S
C1152 C1151 1.373 . S
C1153 C1137 1.377 . S
C1153 C1151 1.389 . S
C1153 C1154 1.524 . S
C1154 C1153 1.524 . S
C1154 C1155 1.397 . S
C1154 C1159 1.363 . S
C1155 H1126 0.950 . S
C1155 C1154 1.397 . S
C1155 C1156 1.334 . S
C1156 H1127 0.950 . S
C1156 C1155 1.334 . S
C1156 C1157 1.287 . S
C1157 C1156 1.287 . S
C1157 C1158 1.524 . S
C1157 H1160 0.999 . S
C1158 H1128 0.950 . S
C1158 C1157 1.524 . S
C1158 C1159 1.415 . S
C1159 H1129 0.950 . S
C1159 C1154 1.363 . S
C1159 C1158 1.415 . S
H1160 C1157 0.999 . S
H1161 C1142 0.913 . S
H1162 C1180 0.951 . S
H1163 C1182 0.951 . S
H1164 C1184 0.950 . S
H1165 C1185 0.950 . S
H1166 C1187 0.950 . S
H1167 C1190 0.950 . S
H1168 C1191 0.950 . S
H1169 C1193 0.950 . S
H1170 C1194 0.950 . S
H1171 C1195 0.951 . S
H1172 C1197 0.951 . S
H1173 C1199 0.950 . S
H1174 C1200 0.950 . S
H1175 C1202 0.950 . S
H1176 C1205 0.950 . S
H1177 C1206 0.950 . S
H1178 C1208 0.950 . S
H1179 C1209 0.950 . S
C1180 H1162 0.951 . S
C1180 C1181 1.366 . S
C1180 C1182 1.388 . S
C1181 C1180 1.366 . S
C1181 C1185 1.385 . S
C1182 H1163 0.951 . S
C1182 C1180 1.388 . S
C1182 C1183 1.366 . S
C1183 C1182 1.366 . S
C1183 C1184 1.414 . S
C1183 C1186 1.499 . S
C1184 H1164 0.950 . S
C1184 C1183 1.414 . S
C1184 C1185 1.374 . S
C1185 H1165 0.950 . S
C1185 C1181 1.385 . S
C1185 C1184 1.374 . S
C1186 C1183 1.499 . S
C1186 C1187 1.373 . S
C1186 C1188 1.389 . S
C1187 H1166 0.950 . S
C1187 C1186 1.373 . S
C1187 C1203 1.377 . S
C1188 C1186 1.389 . S
C1188 C1189 1.524 . S
C1188 C1202 1.377 . S
C1189 C1188 1.524 . S
C1189 C1190 1.397 . S
C1189 C1194 1.363 . S
C1190 H1167 0.950 . S
C1190 C1189 1.397 . S
C1190 C1191 1.334 . S
C1191 H1168 0.950 . S
C1191 C1190 1.334 . S
C1191 C1192 1.287 . S
C1192 C1191 1.287 . S
C1192 C1193 1.524 . S
C1192 H1211 0.913 . S
C1193 H1169 0.950 . S
C1193 C1192 1.524 . S
C1193 C1194 1.415 . S
C1194 H1170 0.950 . S
C1194 C1189 1.363 . S
C1194 C1193 1.415 . S
C1195 H1171 0.951 . S
C1195 C1196 1.366 . S
C1195 C1197 1.388 . S
C1196 C1195 1.366 . S
C1196 C1200 1.385 . S
C1197 H1172 0.951 . S
C1197 C1195 1.388 . S
C1197 C1198 1.366 . S
C1198 C1197 1.366 . S
C1198 C1199 1.414 . S
C1198 C1201 1.499 . S
C1199 H1173 0.950 . S
C1199 C1198 1.414 . S
C1199 C1200 1.374 . S
C1200 H1174 0.950 . S
C1200 C1196 1.385 . S
C1200 C1199 1.374 . S
C1201 C1198 1.499 . S
C1201 C1202 1.373 . S
C1201 C1203 1.389 . S
C1202 H1175 0.950 . S
C1202 C1188 1.377 . S
C1202 C1201 1.373 . S
C1203 C1187 1.377 . S
C1203 C1201 1.389 . S
C1203 C1204 1.524 . S
C1204 C1203 1.524 . S
C1204 C1205 1.397 . S
C1204 C1209 1.363 . S
C1205 H1176 0.950 . S
C1205 C1204 1.397 . S
C1205 C1206 1.334 . S
C1206 H1177 0.950 . S
C1206 C1205 1.334 . S
C1206 C1207 1.287 . S
C1207 C1206 1.287 . S
C1207 C1208 1.524 . S
C1207 H1210 0.999 . S
C1208 H1178 0.950 . S
C1208 C1207 1.524 . S
C1208 C1209 1.415 . S
C1209 H1179 0.950 . S
C1209 C1204 1.363 . S
C1209 C1208 1.415 . S
H1210 C1207 0.999 . S
H1211 C1192 0.913 . S
H1212 C1230 0.951 . S
H1213 C1232 0.951 . S
H1214 C1234 0.950 . S
H1215 C1235 0.950 . S
H1216 C1237 0.950 . S
H1217 C1240 0.950 . S
H1218 C1241 0.950 . S
H1219 C1243 0.950 . S
H1220 C1244 0.950 . S
H1221 C1245 0.951 . S
H1222 C1247 0.951 . S
H1223 C1249 0.950 . S
H1224 C1250 0.950 . S
H1225 C1252 0.950 . S
H1226 C1255 0.950 . S
H1227 C1256 0.950 . S
H1228 C1258 0.950 . S
H1229 C1259 0.950 . S
C1230 H1212 0.951 . S
C1230 C1231 1.366 . S
C1230 C1232 1.388 . S
C1231 C1230 1.366 . S
C1231 C1235 1.385 . S
C1232 H1213 0.951 . S
C1232 C1230 1.388 . S
C1232 C1233 1.366 . S
C1233 C1232 1.366 . S
C1233 C1234 1.414 . S
C1233 C1236 1.499 . S
C1234 H1214 0.950 . S
C1234 C1233 1.414 . S
C1234 C1235 1.374 . S
C1235 H1215 0.950 . S
C1235 C1231 1.385 . S
C1235 C1234 1.374 . S
C1236 C1233 1.499 . S
C1236 C1237 1.373 . S
C1236 C1238 1.389 . S
C1237 H1216 0.950 . S
C1237 C1236 1.373 . S
C1237 C1253 1.377 . S
C1238 C1236 1.389 . S
C1238 C1239 1.524 . S
C1238 C1252 1.377 . S
C1239 C1238 1.524 . S
C1239 C1240 1.397 . S
C1239 C1244 1.363 . S
C1240 H1217 0.950 . S
C1240 C1239 1.397 . S
C1240 C1241 1.334 . S
C1241 H1218 0.950 . S
C1241 C1240 1.334 . S
C1241 C1242 1.287 . S
C1242 C1241 1.287 . S
C1242 C1243 1.524 . S
C1242 H1261 0.913 . S
C1243 H1219 0.950 . S
C1243 C1242 1.524 . S
C1243 C1244 1.415 . S
C1244 H1220 0.950 . S
C1244 C1239 1.363 . S
C1244 C1243 1.415 . S
C1245 H1221 0.951 . S
C1245 C1246 1.366 . S
C1245 C1247 1.388 . S
C1246 C1245 1.366 . S
C1246 C1250 1.385 . S
C1247 H1222 0.951 . S
C1247 C1245 1.388 . S
C1247 C1248 1.366 . S
C1248 C1247 1.366 . S
C1248 C1249 1.414 . S
C1248 C1251 1.499 . S
C1249 H1223 0.950 . S
C1249 C1248 1.414 . S
C1249 C1250 1.374 . S
C1250 H1224 0.950 . S
C1250 C1246 1.385 . S
C1250 C1249 1.374 . S
C1251 C1248 1.499 . S
C1251 C1252 1.373 . S
C1251 C1253 1.389 . S
C1252 H1225 0.950 . S
C1252 C1238 1.377 . S
C1252 C1251 1.373 . S
C1253 C1237 1.377 . S
C1253 C1251 1.389 . S
C1253 C1254 1.524 . S
C1254 C1253 1.524 . S
C1254 C1255 1.397 . S
C1254 C1259 1.363 . S
C1255 H1226 0.950 . S
C1255 C1254 1.397 . S
C1255 C1256 1.334 . S
C1256 H1227 0.950 . S
C1256 C1255 1.334 . S
C1256 C1257 1.287 . S
C1257 C1256 1.287 . S
C1257 C1258 1.524 . S
C1257 H1260 0.999 . S
C1258 H1228 0.950 . S
C1258 C1257 1.524 . S
C1258 C1259 1.415 . S
C1259 H1229 0.950 . S
C1259 C1254 1.363 . S
C1259 C1258 1.415 . S
H1260 C1257 0.999 . S
H1261 C1242 0.913 . S
H1262 C1280 0.951 . S
H1263 C1282 0.951 . S
H1264 C1284 0.950 . S
H1265 C1285 0.950 . S
H1266 C1287 0.950 . S
H1267 C1290 0.950 . S
H1268 C1291 0.950 . S
H1269 C1293 0.950 . S
H1270 C1294 0.950 . S
H1271 C1295 0.951 . S
H1272 C1297 0.951 . S
H1273 C1299 0.950 . S
H1274 C1300 0.950 . S
H1275 C1302 0.950 . S
H1276 C1305 0.950 . S
H1277 C1306 0.950 . S
H1278 C1308 0.950 . S
H1279 C1309 0.950 . S
C1280 H1262 0.951 . S
C1280 C1281 1.366 . S
C1280 C1282 1.388 . S
C1281 C1280 1.366 . S
C1281 C1285 1.385 . S
C1282 H1263 0.951 . S
C1282 C1280 1.388 . S
C1282 C1283 1.366 . S
C1283 C1282 1.366 . S
C1283 C1284 1.414 . S
C1283 C1286 1.499 . S
C1284 H1264 0.950 . S
C1284 C1283 1.414 . S
C1284 C1285 1.374 . S
C1285 H1265 0.950 . S
C1285 C1281 1.385 . S
C1285 C1284 1.374 . S
C1286 C1283 1.499 . S
C1286 C1287 1.373 . S
C1286 C1288 1.389 . S
C1287 H1266 0.950 . S
C1287 C1286 1.373 . S
C1287 C1303 1.377 . S
C1288 C1286 1.389 . S
C1288 C1289 1.524 . S
C1288 C1302 1.377 . S
C1289 C1288 1.524 . S
C1289 C1290 1.397 . S
C1289 C1294 1.363 . S
C1290 H1267 0.950 . S
C1290 C1289 1.397 . S
C1290 C1291 1.334 . S
C1291 H1268 0.950 . S
C1291 C1290 1.334 . S
C1291 C1292 1.287 . S
C1292 C1291 1.287 . S
C1292 C1293 1.524 . S
C1292 H1311 0.913 . S
C1293 H1269 0.950 . S
C1293 C1292 1.524 . S
C1293 C1294 1.415 . S
C1294 H1270 0.950 . S
C1294 C1289 1.363 . S
C1294 C1293 1.415 . S
C1295 H1271 0.951 . S
C1295 C1296 1.366 . S
C1295 C1297 1.388 . S
C1296 C1295 1.366 . S
C1296 C1300 1.385 . S
C1297 H1272 0.951 . S
C1297 C1295 1.388 . S
C1297 C1298 1.366 . S
C1298 C1297 1.366 . S
C1298 C1299 1.414 . S
C1298 C1301 1.499 . S
C1299 H1273 0.950 . S
C1299 C1298 1.414 . S
C1299 C1300 1.374 . S
C1300 H1274 0.950 . S
C1300 C1296 1.385 . S
C1300 C1299 1.374 . S
C1301 C1298 1.499 . S
C1301 C1302 1.373 . S
C1301 C1303 1.389 . S
C1302 H1275 0.950 . S
C1302 C1288 1.377 . S
C1302 C1301 1.373 . S
C1303 C1287 1.377 . S
C1303 C1301 1.389 . S
C1303 C1304 1.524 . S
C1304 C1303 1.524 . S
C1304 C1305 1.397 . S
C1304 C1309 1.363 . S
C1305 H1276 0.950 . S
C1305 C1304 1.397 . S
C1305 C1306 1.334 . S
C1306 H1277 0.950 . S
C1306 C1305 1.334 . S
C1306 C1307 1.287 . S
C1307 C1306 1.287 . S
C1307 C1308 1.524 . S
C1307 H1310 0.999 . S
C1308 H1278 0.950 . S
C1308 C1307 1.524 . S
C1308 C1309 1.415 . S
C1309 H1279 0.950 . S
C1309 C1304 1.363 . S
C1309 C1308 1.415 . S
H1310 C1307 0.999 . S
H1311 C1292 0.913 . S
H1312 C1330 0.951 . S
H1313 C1332 0.951 . S
H1314 C1334 0.950 . S
H1315 C1335 0.950 . S
H1316 C1337 0.950 . S
H1317 C1340 0.950 . S
H1318 C1341 0.950 . S
H1319 C1343 0.950 . S
H1320 C1344 0.950 . S
H1321 C1345 0.951 . S
H1322 C1347 0.951 . S
H1323 C1349 0.950 . S
H1324 C1350 0.950 . S
H1325 C1352 0.950 . S
H1326 C1355 0.950 . S
H1327 C1356 0.950 . S
H1328 C1358 0.950 . S
H1329 C1359 0.950 . S
C1330 H1312 0.951 . S
C1330 C1331 1.366 . S
C1330 C1332 1.388 . S
C1331 C1330 1.366 . S
C1331 C1335 1.385 . S
C1332 H1313 0.951 . S
C1332 C1330 1.388 . S
C1332 C1333 1.366 . S
C1333 C1332 1.366 . S
C1333 C1334 1.414 . S
C1333 C1336 1.499 . S
C1334 H1314 0.950 . S
C1334 C1333 1.414 . S
C1334 C1335 1.374 . S
C1335 H1315 0.950 . S
C1335 C1331 1.385 . S
C1335 C1334 1.374 . S
C1336 C1333 1.499 . S
C1336 C1337 1.373 . S
C1336 C1338 1.389 . S
C1337 H1316 0.950 . S
C1337 C1336 1.373 . S
C1337 C1353 1.377 . S
C1338 C1336 1.389 . S
C1338 C1339 1.524 . S
C1338 C1352 1.377 . S
C1339 C1338 1.524 . S
C1339 C1340 1.397 . S
C1339 C1344 1.363 . S
C1340 H1317 0.950 . S
C1340 C1339 1.397 . S
C1340 C1341 1.334 . S
C1341 H1318 0.950 . S
C1341 C1340 1.334 . S
C1341 C1342 1.287 . S
C1342 C1341 1.287 . S
C1342 C1343 1.524 . S
C1342 H1361 0.913 . S
C1343 H1319 0.950 . S
C1343 C1342 1.524 . S
C1343 C1344 1.415 . S
C1344 H1320 0.950 . S
C1344 C1339 1.363 . S
C1344 C1343 1.415 . S
C1345 H1321 0.951 . S
C1345 C1346 1.366 . S
C1345 C1347 1.388 . S
C1346 C1345 1.366 . S
C1346 C1350 1.385 . S
C1347 H1322 0.951 . S
C1347 C1345 1.388 . S
C1347 C1348 1.366 . S
C1348 C1347 1.366 . S
C1348 C1349 1.414 . S
C1348 C1351 1.499 . S
C1349 H1323 0.950 . S
C1349 C1348 1.414 . S
C1349 C1350 1.374 . S
C1350 H1324 0.950 . S
C1350 C1346 1.385 . S
C1350 C1349 1.374 . S
C1351 C1348 1.499 . S
C1351 C1352 1.373 . S
C1351 C1353 1.389 . S
C1352 H1325 0.950 . S
C1352 C1338 1.377 . S
C1352 C1351 1.373 . S
C1353 C1337 1.377 . S
C1353 C1351 1.389 . S
C1353 C1354 1.524 . S
C1354 C1353 1.524 . S
C1354 C1355 1.397 . S
C1354 C1359 1.363 . S
C1355 H1326 0.950 . S
C1355 C1354 1.397 . S
C1355 C1356 1.334 . S
C1356 H1327 0.950 . S
C1356 C1355 1.334 . S
C1356 C1357 1.287 . S
C1357 C1356 1.287 . S
C1357 C1358 1.524 . S
C1357 H1360 0.999 . S
C1358 H1328 0.950 . S
C1358 C1357 1.524 . S
C1358 C1359 1.415 . S
C1359 H1329 0.950 . S
C1359 C1354 1.363 . S
C1359 C1358 1.415 . S
H1360 C1357 0.999 . S
H1361 C1342 0.913 . S
H1362 C1380 0.951 . S
H1363 C1382 0.951 . S
H1364 C1384 0.950 . S
H1365 C1385 0.950 . S
H1366 C1387 0.950 . S
H1367 C1390 0.950 . S
H1368 C1391 0.950 . S
H1369 C1393 0.950 . S
H1370 C1394 0.950 . S
H1371 C1395 0.951 . S
H1372 C1397 0.951 . S
H1373 C1399 0.950 . S
H1374 C1400 0.950 . S
H1375 C1402 0.950 . S
H1376 C1405 0.950 . S
H1377 C1406 0.950 . S
H1378 C1408 0.950 . S
H1379 C1409 0.950 . S
C1380 H1362 0.951 . S
C1380 C1381 1.366 . S
C1380 C1382 1.388 . S
C1381 C1380 1.366 . S
C1381 C1385 1.385 . S
C1382 H1363 0.951 . S
C1382 C1380 1.388 . S
C1382 C1383 1.366 . S
C1383 C1382 1.366 . S
C1383 C1384 1.414 . S
C1383 C1386 1.499 . S
C1384 H1364 0.950 . S
C1384 C1383 1.414 . S
C1384 C1385 1.374 . S
C1385 H1365 0.950 . S
C1385 C1381 1.385 . S
C1385 C1384 1.374 . S
C1386 C1383 1.499 . S
C1386 C1387 1.373 . S
C1386 C1388 1.389 . S
C1387 H1366 0.950 . S
C1387 C1386 1.373 . S
C1387 C1403 1.377 . S
C1388 C1386 1.389 . S
C1388 C1389 1.524 . S
C1388 C1402 1.377 . S
C1389 C1388 1.524 . S
C1389 C1390 1.397 . S
C1389 C1394 1.363 . S
C1390 H1367 0.950 . S
C1390 C1389 1.397 . S
C1390 C1391 1.334 . S
C1391 H1368 0.950 . S
C1391 C1390 1.334 . S
C1391 C1392 1.287 . S
C1392 C1391 1.287 . S
C1392 C1393 1.524 . S
C1392 H1411 0.913 . S
C1393 H1369 0.950 . S
C1393 C1392 1.524 . S
C1393 C1394 1.415 . S
C1394 H1370 0.950 . S
C1394 C1389 1.363 . S
C1394 C1393 1.415 . S
C1395 H1371 0.951 . S
C1395 C1396 1.366 . S
C1395 C1397 1.388 . S
C1396 C1395 1.366 . S
C1396 C1400 1.385 . S
C1397 H1372 0.951 . S
C1397 C1395 1.388 . S
C1397 C1398 1.366 . S
C1398 C1397 1.366 . S
C1398 C1399 1.414 . S
C1398 C1401 1.499 . S
C1399 H1373 0.950 . S
C1399 C1398 1.414 . S
C1399 C1400 1.374 . S
C1400 H1374 0.950 . S
C1400 C1396 1.385 . S
C1400 C1399 1.374 . S
C1401 C1398 1.499 . S
C1401 C1402 1.373 . S
C1401 C1403 1.389 . S
C1402 H1375 0.950 . S
C1402 C1388 1.377 . S
C1402 C1401 1.373 . S
C1403 C1387 1.377 . S
C1403 C1401 1.389 . S
C1403 C1404 1.524 . S
C1404 C1403 1.524 . S
C1404 C1405 1.397 . S
C1404 C1409 1.363 . S
C1405 H1376 0.950 . S
C1405 C1404 1.397 . S
C1405 C1406 1.334 . S
C1406 H1377 0.950 . S
C1406 C1405 1.334 . S
C1406 C1407 1.287 . S
C1407 C1406 1.287 . S
C1407 C1408 1.524 . S
C1407 H1410 0.999 . S
C1408 H1378 0.950 . S
C1408 C1407 1.524 . S
C1408 C1409 1.415 . S
C1409 H1379 0.950 . S
C1409 C1404 1.363 . S
C1409 C1408 1.415 . S
H1410 C1407 0.999 . S
H1411 C1392 0.913 . S
H1412 C1430 0.951 . S
H1413 C1432 0.951 . S
H1414 C1434 0.950 . S
H1415 C1435 0.950 . S
H1416 C1437 0.950 . S
H1417 C1440 0.950 . S
H1418 C1441 0.950 . S
H1419 C1443 0.950 . S
H1420 C1444 0.950 . S
H1421 C1445 0.951 . S
H1422 C1447 0.951 . S
H1423 C1449 0.950 . S
H1424 C1450 0.950 . S
H1425 C1452 0.950 . S
H1426 C1455 0.950 . S
H1427 C1456 0.950 . S
H1428 C1458 0.950 . S
H1429 C1459 0.950 . S
C1430 H1412 0.951 . S
C1430 C1431 1.366 . S
C1430 C1432 1.388 . S
C1431 C1430 1.366 . S
C1431 C1435 1.385 . S
C1432 H1413 0.951 . S
C1432 C1430 1.388 . S
C1432 C1433 1.366 . S
C1433 C1432 1.366 . S
C1433 C1434 1.414 . S
C1433 C1436 1.499 . S
C1434 H1414 0.950 . S
C1434 C1433 1.414 . S
C1434 C1435 1.374 . S
C1435 H1415 0.950 . S
C1435 C1431 1.385 . S
C1435 C1434 1.374 . S
C1436 C1433 1.499 . S
C1436 C1437 1.373 . S
C1436 C1438 1.389 . S
C1437 H1416 0.950 . S
C1437 C1436 1.373 . S
C1437 C1453 1.377 . S
C1438 C1436 1.389 . S
C1438 C1439 1.524 . S
C1438 C1452 1.377 . S
C1439 C1438 1.524 . S
C1439 C1440 1.397 . S
C1439 C1444 1.363 . S
C1440 H1417 0.950 . S
C1440 C1439 1.397 . S
C1440 C1441 1.334 . S
C1441 H1418 0.950 . S
C1441 C1440 1.334 . S
C1441 C1442 1.287 . S
C1442 C1441 1.287 . S
C1442 C1443 1.524 . S
C1442 H1461 0.913 . S
C1443 H1419 0.950 . S
C1443 C1442 1.524 . S
C1443 C1444 1.415 . S
C1444 H1420 0.950 . S
C1444 C1439 1.363 . S
C1444 C1443 1.415 . S
C1445 H1421 0.951 . S
C1445 C1446 1.366 . S
C1445 C1447 1.388 . S
C1446 C1445 1.366 . S
C1446 C1450 1.385 . S
C1447 H1422 0.951 . S
C1447 C1445 1.388 . S
C1447 C1448 1.366 . S
C1448 C1447 1.366 . S
C1448 C1449 1.414 . S
C1448 C1451 1.499 . S
C1449 H1423 0.950 . S
C1449 C1448 1.414 . S
C1449 C1450 1.374 . S
C1450 H1424 0.950 . S
C1450 C1446 1.385 . S
C1450 C1449 1.374 . S
C1451 C1448 1.499 . S
C1451 C1452 1.373 . S
C1451 C1453 1.389 . S
C1452 H1425 0.950 . S
C1452 C1438 1.377 . S
C1452 C1451 1.373 . S
C1453 C1437 1.377 . S
C1453 C1451 1.389 . S
C1453 C1454 1.524 . S
C1454 C1453 1.524 . S
C1454 C1455 1.397 . S
C1454 C1459 1.363 . S
C1455 H1426 0.950 . S
C1455 C1454 1.397 . S
C1455 C1456 1.334 . S
C1456 H1427 0.950 . S
C1456 C1455 1.334 . S
C1456 C1457 1.287 . S
C1457 C1456 1.287 . S
C1457 C1458 1.524 . S
C1457 H1460 0.999 . S
C1458 H1428 0.950 . S
C1458 C1457 1.524 . S
C1458 C1459 1.415 . S
C1459 H1429 0.950 . S
C1459 C1454 1.363 . S
C1459 C1458 1.415 . S
H1460 C1457 0.999 . S
H1461 C1442 0.913 . S
H1462 C1480 0.951 . S
H1463 C1482 0.951 . S
H1464 C1484 0.950 . S
H1465 C1485 0.950 . S
H1466 C1487 0.950 . S
H1467 C1490 0.950 . S
H1468 C1491 0.950 . S
H1469 C1493 0.950 . S
H1470 C1494 0.950 . S
H1471 C1495 0.951 . S
H1472 C1497 0.951 . S
H1473 C1499 0.950 . S
H1474 C1500 0.950 . S
H1475 C1502 0.950 . S
H1476 C1505 0.950 . S
H1477 C1506 0.950 . S
H1478 C1508 0.950 . S
H1479 C1509 0.950 . S
C1480 H1462 0.951 . S
C1480 C1481 1.366 . S
C1480 C1482 1.388 . S
C1481 C1480 1.366 . S
C1481 C1485 1.385 . S
C1482 H1463 0.951 . S
C1482 C1480 1.388 . S
C1482 C1483 1.366 . S
C1483 C1482 1.366 . S
C1483 C1484 1.414 . S
C1483 C1486 1.499 . S
C1484 H1464 0.950 . S
C1484 C1483 1.414 . S
C1484 C1485 1.374 . S
C1485 H1465 0.950 . S
C1485 C1481 1.385 . S
C1485 C1484 1.374 . S
C1486 C1483 1.499 . S
C1486 C1487 1.373 . S
C1486 C1488 1.389 . S
C1487 H1466 0.950 . S
C1487 C1486 1.373 . S
C1487 C1503 1.377 . S
C1488 C1486 1.389 . S
C1488 C1489 1.524 . S
C1488 C1502 1.377 . S
C1489 C1488 1.524 . S
C1489 C1490 1.397 . S
C1489 C1494 1.363 . S
C1490 H1467 0.950 . S
C1490 C1489 1.397 . S
C1490 C1491 1.334 . S
C1491 H1468 0.950 . S
C1491 C1490 1.334 . S
C1491 C1492 1.287 . S
C1492 C1491 1.287 . S
C1492 C1493 1.524 . S
C1492 H1511 0.913 . S
C1493 H1469 0.950 . S
C1493 C1492 1.524 . S
C1493 C1494 1.415 . S
C1494 H1470 0.950 . S
C1494 C1489 1.363 . S
C1494 C1493 1.415 . S
C1495 H1471 0.951 . S
C1495 C1496 1.366 . S
C1495 C1497 1.388 . S
C1496 C1495 1.366 . S
C1496 C1500 1.385 . S
C1497 H1472 0.951 . S
C1497 C1495 1.388 . S
C1497 C1498 1.366 . S
C1498 C1497 1.366 . S
C1498 C1499 1.414 . S
C1498 C1501 1.499 . S
C1499 H1473 0.950 . S
C1499 C1498 1.414 . S
C1499 C1500 1.374 . S
C1500 H1474 0.950 . S
C1500 C1496 1.385 . S
C1500 C1499 1.374 . S
C1501 C1498 1.499 . S
C1501 C1502 1.373 . S
C1501 C1503 1.389 . S
C1502 H1475 0.950 . S
C1502 C1488 1.377 . S
C1502 C1501 1.373 . S
C1503 C1487 1.377 . S
C1503 C1501 1.389 . S
C1503 C1504 1.524 . S
C1504 C1503 1.524 . S
C1504 C1505 1.397 . S
C1504 C1509 1.363 . S
C1505 H1476 0.950 . S
C1505 C1504 1.397 . S
C1505 C1506 1.334 . S
C1506 H1477 0.950 . S
C1506 C1505 1.334 . S
C1506 C1507 1.287 . S
C1507 C1506 1.287 . S
C1507 C1508 1.524 . S
C1507 H1510 0.999 . S
C1508 H1478 0.950 . S
C1508 C1507 1.524 . S
C1508 C1509 1.415 . S
C1509 H1479 0.950 . S
C1509 C1504 1.363 . S
C1509 C1508 1.415 . S
H1510 C1507 0.999 . S
H1511 C1492 0.913 . S
H1512 C1530 0.951 . S
H1513 C1532 0.951 . S
H1514 C1534 0.950 . S
H1515 C1535 0.950 . S
H1516 C1537 0.950 . S
H1517 C1540 0.950 . S
H1518 C1541 0.950 . S
H1519 C1543 0.950 . S
H1520 C1544 0.950 . S
H1521 C1545 0.951 . S
H1522 C1547 0.951 . S
H1523 C1549 0.950 . S
H1524 C1550 0.950 . S
H1525 C1552 0.950 . S
H1526 C1555 0.950 . S
H1527 C1556 0.950 . S
H1528 C1558 0.950 . S
H1529 C1559 0.950 . S
C1530 H1512 0.951 . S
C1530 C1531 1.366 . S
C1530 C1532 1.388 . S
C1531 C1530 1.366 . S
C1531 C1535 1.385 . S
C1532 H1513 0.951 . S
C1532 C1530 1.388 . S
C1532 C1533 1.366 . S
C1533 C1532 1.366 . S
C1533 C1534 1.414 . S
C1533 C1536 1.499 . S
C1534 H1514 0.950 . S
C1534 C1533 1.414 . S
C1534 C1535 1.374 . S
C1535 H1515 0.950 . S
C1535 C1531 1.385 . S
C1535 C1534 1.374 . S
C1536 C1533 1.499 . S
C1536 C1537 1.373 . S
C1536 C1538 1.389 . S
C1537 H1516 0.950 . S
C1537 C1536 1.373 . S
C1537 C1553 1.377 1_554 S
C1538 C1536 1.389 . S
C1538 C1539 1.524 . S
C1538 C1552 1.377 1_554 S
C1539 C1538 1.524 . S
C1539 C1540 1.397 . S
C1539 C1544 1.363 . S
C1540 H1517 0.950 . S
C1540 C1539 1.397 . S
C1540 C1541 1.334 . S
C1541 H1518 0.950 . S
C1541 C1540 1.334 . S
C1541 C1542 1.287 . S
C1542 C1541 1.287 . S
C1542 C1543 1.524 . S
C1542 H1561 0.913 . S
C1543 H1519 0.950 . S
C1543 C1542 1.524 . S
C1543 C1544 1.415 . S
C1544 H1520 0.950 . S
C1544 C1539 1.363 . S
C1544 C1543 1.415 . S
C1545 H1521 0.951 . S
C1545 C1546 1.366 . S
C1545 C1547 1.388 . S
C1546 C1545 1.366 . S
C1546 C1550 1.385 . S
C1547 H1522 0.951 . S
C1547 C1545 1.388 . S
C1547 C1548 1.366 . S
C1548 C1547 1.366 . S
C1548 C1549 1.414 . S
C1548 C1551 1.499 . S
C1549 H1523 0.950 . S
C1549 C1548 1.414 . S
C1549 C1550 1.374 . S
C1550 H1524 0.950 . S
C1550 C1546 1.385 . S
C1550 C1549 1.374 . S
C1551 C1548 1.499 . S
C1551 C1552 1.373 . S
C1551 C1553 1.389 . S
C1552 H1525 0.950 . S
C1552 C1538 1.377 1_556 S
C1552 C1551 1.373 . S
C1553 C1537 1.377 1_556 S
C1553 C1551 1.389 . S
C1553 C1554 1.524 . S
C1554 C1553 1.524 . S
C1554 C1555 1.397 . S
C1554 C1559 1.363 . S
C1555 H1526 0.950 . S
C1555 C1554 1.397 . S
C1555 C1556 1.334 . S
C1556 H1527 0.950 . S
C1556 C1555 1.334 . S
C1556 C1557 1.287 . S
C1557 C1556 1.287 . S
C1557 C1558 1.524 . S
C1557 H1560 0.999 . S
C1558 H1528 0.950 . S
C1558 C1557 1.524 . S
C1558 C1559 1.415 . S
C1559 H1529 0.950 . S
C1559 C1554 1.363 . S
C1559 C1558 1.415 . S
H1560 C1557 0.999 . S
H1561 C1542 0.913 . S
H1562 C1580 0.951 . S
H1563 C1582 0.951 . S
H1564 C1584 0.950 . S
H1565 C1585 0.950 . S
H1566 C1587 0.950 . S
H1567 C1590 0.950 . S
H1568 C1591 0.950 . S
H1569 C1593 0.950 . S
H1570 C1594 0.950 . S
H1571 C1595 0.951 . S
H1572 C1597 0.951 . S
H1573 C1599 0.950 . S
H1574 C1600 0.950 . S
H1575 C1602 0.950 . S
H1576 C1605 0.950 . S
H1577 C1606 0.950 . S
H1578 C1608 0.950 . S
H1579 C1609 0.950 . S
C1580 H1562 0.951 . S
C1580 C1581 1.366 . S
C1580 C1582 1.388 . S
C1581 C1580 1.366 . S
C1581 C1585 1.385 . S
C1582 H1563 0.951 . S
C1582 C1580 1.388 . S
C1582 C1583 1.366 . S
C1583 C1582 1.366 . S
C1583 C1584 1.414 . S
C1583 C1586 1.499 . S
C1584 H1564 0.950 . S
C1584 C1583 1.414 . S
C1584 C1585 1.374 . S
C1585 H1565 0.950 . S
C1585 C1581 1.385 . S
C1585 C1584 1.374 . S
C1586 C1583 1.499 . S
C1586 C1587 1.373 . S
C1586 C1588 1.389 . S
C1587 H1566 0.950 . S
C1587 C1586 1.373 . S
C1587 C1603 1.377 1_556 S
C1588 C1586 1.389 . S
C1588 C1589 1.524 . S
C1588 C1602 1.377 1_556 S
C1589 C1588 1.524 . S
C1589 C1590 1.397 . S
C1589 C1594 1.363 . S
C1590 H1567 0.950 . S
C1590 C1589 1.397 . S
C1590 C1591 1.334 . S
C1591 H1568 0.950 . S
C1591 C1590 1.334 . S
C1591 C1592 1.287 . S
C1592 C1591 1.287 . S
C1592 C1593 1.524 . S
C1592 H1611 0.913 . S
C1593 H1569 0.950 . S
C1593 C1592 1.524 . S
C1593 C1594 1.415 . S
C1594 H1570 0.950 . S
C1594 C1589 1.363 . S
C1594 C1593 1.415 . S
C1595 H1571 0.951 . S
C1595 C1596 1.366 . S
C1595 C1597 1.388 . S
C1596 C1595 1.366 . S
C1596 C1600 1.385 . S
C1597 H1572 0.951 . S
C1597 C1595 1.388 . S
C1597 C1598 1.366 . S
C1598 C1597 1.366 . S
C1598 C1599 1.414 . S
C1598 C1601 1.499 . S
C1599 H1573 0.950 . S
C1599 C1598 1.414 . S
C1599 C1600 1.374 . S
C1600 H1574 0.950 . S
C1600 C1596 1.385 . S
C1600 C1599 1.374 . S
C1601 C1598 1.499 . S
C1601 C1602 1.373 . S
C1601 C1603 1.389 . S
C1602 H1575 0.950 . S
C1602 C1588 1.377 1_554 S
C1602 C1601 1.373 . S
C1603 C1587 1.377 1_554 S
C1603 C1601 1.389 . S
C1603 C1604 1.524 . S
C1604 C1603 1.524 . S
C1604 C1605 1.397 . S
C1604 C1609 1.363 . S
C1605 H1576 0.950 . S
C1605 C1604 1.397 . S
C1605 C1606 1.334 . S
C1606 H1577 0.950 . S
C1606 C1605 1.334 . S
C1606 C1607 1.287 . S
C1607 C1606 1.287 . S
C1607 C1608 1.524 . S
C1607 H1610 0.999 . S
C1608 H1578 0.950 . S
C1608 C1607 1.524 . S
C1608 C1609 1.415 . S
C1609 H1579 0.950 . S
C1609 C1604 1.363 . S
C1609 C1608 1.415 . S
H1610 C1607 0.999 . S
H1611 C1592 0.913 . S
H1612 C1630 0.951 . S
H1613 C1632 0.951 . S
H1614 C1634 0.950 . S
H1615 C1635 0.950 . S
H1616 C1637 0.950 . S
H1617 C1640 0.950 . S
H1618 C1641 0.950 . S
H1619 C1643 0.950 . S
H1620 C1644 0.950 . S
H1621 C1645 0.951 . S
H1622 C1647 0.951 . S
H1623 C1649 0.950 . S
H1624 C1650 0.950 . S
H1625 C1652 0.950 . S
H1626 C1655 0.950 . S
H1627 C1656 0.950 . S
H1628 C1658 0.950 . S
H1629 C1659 0.950 . S
C1630 H1612 0.951 . S
C1630 C1631 1.366 . S
C1630 C1632 1.388 . S
C1631 C1630 1.366 . S
C1631 C1635 1.385 . S
C1632 H1613 0.951 . S
C1632 C1630 1.388 . S
C1632 C1633 1.366 . S
C1633 C1632 1.366 . S
C1633 C1634 1.414 . S
C1633 C1636 1.499 . S
C1634 H1614 0.950 . S
C1634 C1633 1.414 . S
C1634 C1635 1.374 . S
C1635 H1615 0.950 . S
C1635 C1631 1.385 . S
C1635 C1634 1.374 . S
C1636 C1633 1.499 . S
C1636 C1637 1.373 . S
C1636 C1638 1.389 . S
C1637 H1616 0.950 . S
C1637 C1636 1.373 . S
C1637 C1653 1.377 1_556 S
C1638 C1636 1.389 . S
C1638 C1639 1.524 . S
C1638 C1652 1.377 1_556 S
C1639 C1638 1.524 . S
C1639 C1640 1.397 . S
C1639 C1644 1.363 . S
C1640 H1617 0.950 . S
C1640 C1639 1.397 . S
C1640 C1641 1.334 . S
C1641 H1618 0.950 . S
C1641 C1640 1.334 . S
C1641 C1642 1.287 . S
C1642 C1641 1.287 . S
C1642 C1643 1.524 . S
C1642 H1661 0.913 . S
C1643 H1619 0.950 . S
C1643 C1642 1.524 . S
C1643 C1644 1.415 . S
C1644 H1620 0.950 . S
C1644 C1639 1.363 . S
C1644 C1643 1.415 . S
C1645 H1621 0.951 . S
C1645 C1646 1.366 . S
C1645 C1647 1.388 . S
C1646 C1645 1.366 . S
C1646 C1650 1.385 . S
C1647 H1622 0.951 . S
C1647 C1645 1.388 . S
C1647 C1648 1.366 . S
C1648 C1647 1.366 . S
C1648 C1649 1.414 . S
C1648 C1651 1.499 . S
C1649 H1623 0.950 . S
C1649 C1648 1.414 . S
C1649 C1650 1.374 . S
C1650 H1624 0.950 . S
C1650 C1646 1.385 . S
C1650 C1649 1.374 . S
C1651 C1648 1.499 . S
C1651 C1652 1.373 . S
C1651 C1653 1.389 . S
C1652 H1625 0.950 . S
C1652 C1638 1.377 1_554 S
C1652 C1651 1.373 . S
C1653 C1637 1.377 1_554 S
C1653 C1651 1.389 . S
C1653 C1654 1.524 . S
C1654 C1653 1.524 . S
C1654 C1655 1.397 . S
C1654 C1659 1.363 . S
C1655 H1626 0.950 . S
C1655 C1654 1.397 . S
C1655 C1656 1.334 . S
C1656 H1627 0.950 . S
C1656 C1655 1.334 . S
C1656 C1657 1.287 . S
C1657 C1656 1.287 . S
C1657 C1658 1.524 . S
C1657 H1660 0.999 . S
C1658 H1628 0.950 . S
C1658 C1657 1.524 . S
C1658 C1659 1.415 . S
C1659 H1629 0.950 . S
C1659 C1654 1.363 . S
C1659 C1658 1.415 . S
H1660 C1657 0.999 . S
H1661 C1642 0.913 . S
H1662 C1680 0.951 . S
H1663 C1682 0.951 . S
H1664 C1684 0.950 . S
H1665 C1685 0.950 . S
H1666 C1687 0.950 . S
H1667 C1690 0.950 . S
H1668 C1691 0.950 . S
H1669 C1693 0.950 . S
H1670 C1694 0.950 . S
H1671 C1695 0.951 . S
H1672 C1697 0.951 . S
H1673 C1699 0.950 . S
H1674 C1700 0.950 . S
H1675 C1702 0.950 . S
H1676 C1705 0.950 . S
H1677 C1706 0.950 . S
H1678 C1708 0.950 . S
H1679 C1709 0.950 . S
C1680 H1662 0.951 . S
C1680 C1681 1.366 . S
C1680 C1682 1.388 . S
C1681 C1680 1.366 . S
C1681 C1685 1.385 . S
C1682 H1663 0.951 . S
C1682 C1680 1.388 . S
C1682 C1683 1.366 . S
C1683 C1682 1.366 . S
C1683 C1684 1.414 . S
C1683 C1686 1.499 . S
C1684 H1664 0.950 . S
C1684 C1683 1.414 . S
C1684 C1685 1.374 . S
C1685 H1665 0.950 . S
C1685 C1681 1.385 . S
C1685 C1684 1.374 . S
C1686 C1683 1.499 . S
C1686 C1687 1.373 . S
C1686 C1688 1.389 . S
C1687 H1666 0.950 . S
C1687 C1686 1.373 . S
C1687 C1703 1.377 1_554 S
C1688 C1686 1.389 . S
C1688 C1689 1.524 . S
C1688 C1702 1.377 1_554 S
C1689 C1688 1.524 . S
C1689 C1690 1.397 . S
C1689 C1694 1.363 . S
C1690 H1667 0.950 . S
C1690 C1689 1.397 . S
C1690 C1691 1.334 . S
C1691 H1668 0.950 . S
C1691 C1690 1.334 . S
C1691 C1692 1.287 . S
C1692 C1691 1.287 . S
C1692 C1693 1.524 . S
C1692 H1711 0.913 . S
C1693 H1669 0.950 . S
C1693 C1692 1.524 . S
C1693 C1694 1.415 . S
C1694 H1670 0.950 . S
C1694 C1689 1.363 . S
C1694 C1693 1.415 . S
C1695 H1671 0.951 . S
C1695 C1696 1.366 . S
C1695 C1697 1.388 . S
C1696 C1695 1.366 . S
C1696 C1700 1.385 . S
C1697 H1672 0.951 . S
C1697 C1695 1.388 . S
C1697 C1698 1.366 . S
C1698 C1697 1.366 . S
C1698 C1699 1.414 . S
C1698 C1701 1.499 . S
C1699 H1673 0.950 . S
C1699 C1698 1.414 . S
C1699 C1700 1.374 . S
C1700 H1674 0.950 . S
C1700 C1696 1.385 . S
C1700 C1699 1.374 . S
C1701 C1698 1.499 . S
C1701 C1702 1.373 . S
C1701 C1703 1.389 . S
C1702 H1675 0.950 . S
C1702 C1688 1.377 1_556 S
C1702 C1701 1.373 . S
C1703 C1687 1.377 1_556 S
C1703 C1701 1.389 . S
C1703 C1704 1.524 . S
C1704 C1703 1.524 . S
C1704 C1705 1.397 . S
C1704 C1709 1.363 . S
C1705 H1676 0.950 . S
C1705 C1704 1.397 . S
C1705 C1706 1.334 . S
C1706 H1677 0.950 . S
C1706 C1705 1.334 . S
C1706 C1707 1.287 . S
C1707 C1706 1.287 . S
C1707 C1708 1.524 . S
C1707 H1710 0.999 . S
C1708 H1678 0.950 . S
C1708 C1707 1.524 . S
C1708 C1709 1.415 . S
C1709 H1679 0.950 . S
C1709 C1704 1.363 . S
C1709 C1708 1.415 . S
H1710 C1707 0.999 . S
H1711 C1692 0.913 . S
H1712 C1730 0.951 . S
H1713 C1732 0.951 . S
H1714 C1734 0.950 . S
H1715 C1735 0.950 . S
H1716 C1737 0.950 . S
H1717 C1740 0.950 . S
H1718 C1741 0.950 . S
H1719 C1743 0.950 . S
H1720 C1744 0.950 . S
H1721 C1745 0.951 . S
H1722 C1747 0.951 . S
H1723 C1749 0.950 . S
H1724 C1750 0.950 . S
H1725 C1752 0.950 . S
H1726 C1755 0.950 . S
H1727 C1756 0.950 . S
H1728 C1758 0.950 . S
H1729 C1759 0.950 . S
C1730 H1712 0.951 . S
C1730 C1731 1.366 . S
C1730 C1732 1.388 . S
C1731 C1730 1.366 . S
C1731 C1735 1.385 . S
C1732 H1713 0.951 . S
C1732 C1730 1.388 . S
C1732 C1733 1.366 . S
C1733 C1732 1.366 . S
C1733 C1734 1.414 . S
C1733 C1736 1.499 . S
C1734 H1714 0.950 . S
C1734 C1733 1.414 . S
C1734 C1735 1.374 . S
C1735 H1715 0.950 . S
C1735 C1731 1.385 . S
C1735 C1734 1.374 . S
C1736 C1733 1.499 . S
C1736 C1737 1.373 . S
C1736 C1738 1.389 . S
C1737 H1716 0.950 . S
C1737 C1736 1.373 . S
C1737 C1753 1.377 1_554 S
C1738 C1736 1.389 . S
C1738 C1739 1.524 . S
C1738 C1752 1.377 1_554 S
C1739 C1738 1.524 . S
C1739 C1740 1.397 . S
C1739 C1744 1.363 . S
C1740 H1717 0.950 . S
C1740 C1739 1.397 . S
C1740 C1741 1.334 . S
C1741 H1718 0.950 . S
C1741 C1740 1.334 . S
C1741 C1742 1.287 . S
C1742 C1741 1.287 . S
C1742 C1743 1.524 . S
C1742 H1761 0.913 . S
C1743 H1719 0.950 . S
C1743 C1742 1.524 . S
C1743 C1744 1.415 . S
C1744 H1720 0.950 . S
C1744 C1739 1.363 . S
C1744 C1743 1.415 . S
C1745 H1721 0.951 . S
C1745 C1746 1.366 . S
C1745 C1747 1.388 . S
C1746 C1745 1.366 . S
C1746 C1750 1.385 . S
C1747 H1722 0.951 . S
C1747 C1745 1.388 . S
C1747 C1748 1.366 . S
C1748 C1747 1.366 . S
C1748 C1749 1.414 . S
C1748 C1751 1.499 . S
C1749 H1723 0.950 . S
C1749 C1748 1.414 . S
C1749 C1750 1.374 . S
C1750 H1724 0.950 . S
C1750 C1746 1.385 . S
C1750 C1749 1.374 . S
C1751 C1748 1.499 . S
C1751 C1752 1.373 . S
C1751 C1753 1.389 . S
C1752 H1725 0.950 . S
C1752 C1738 1.377 1_556 S
C1752 C1751 1.373 . S
C1753 C1737 1.377 1_556 S
C1753 C1751 1.389 . S
C1753 C1754 1.524 . S
C1754 C1753 1.524 . S
C1754 C1755 1.397 . S
C1754 C1759 1.363 . S
C1755 H1726 0.950 . S
C1755 C1754 1.397 . S
C1755 C1756 1.334 . S
C1756 H1727 0.950 . S
C1756 C1755 1.334 . S
C1756 C1757 1.287 . S
C1757 C1756 1.287 . S
C1757 C1758 1.524 . S
C1757 H1760 0.999 . S
C1758 H1728 0.950 . S
C1758 C1757 1.524 . S
C1758 C1759 1.415 . S
C1759 H1729 0.950 . S
C1759 C1754 1.363 . S
C1759 C1758 1.415 . S
H1760 C1757 0.999 . S
H1761 C1742 0.913 . S
H1762 C1780 0.951 . S
H1763 C1782 0.951 . S
H1764 C1784 0.950 . S
H1765 C1785 0.950 . S
H1766 C1787 0.950 . S
H1767 C1790 0.950 . S
H1768 C1791 0.950 . S
H1769 C1793 0.950 . S
H1770 C1794 0.950 . S
H1771 C1795 0.951 . S
H1772 C1797 0.951 . S
H1773 C1799 0.950 . S
H1774 C1800 0.950 . S
H1775 C1802 0.950 . S
H1776 C1805 0.950 . S
H1777 C1806 0.950 . S
H1778 C1808 0.950 . S
H1779 C1809 0.950 . S
C1780 H1762 0.951 . S
C1780 C1781 1.366 . S
C1780 C1782 1.388 . S
C1781 C1780 1.366 . S
C1781 C1785 1.385 . S
C1782 H1763 0.951 . S
C1782 C1780 1.388 . S
C1782 C1783 1.366 . S
C1783 C1782 1.366 . S
C1783 C1784 1.414 . S
C1783 C1786 1.499 . S
C1784 H1764 0.950 . S
C1784 C1783 1.414 . S
C1784 C1785 1.374 . S
C1785 H1765 0.950 . S
C1785 C1781 1.385 . S
C1785 C1784 1.374 . S
C1786 C1783 1.499 . S
C1786 C1787 1.373 . S
C1786 C1788 1.389 . S
C1787 H1766 0.950 . S
C1787 C1786 1.373 . S
C1787 C1803 1.377 1_556 S
C1788 C1786 1.389 . S
C1788 C1789 1.524 . S
C1788 C1802 1.377 1_556 S
C1789 C1788 1.524 . S
C1789 C1790 1.397 . S
C1789 C1794 1.363 . S
C1790 H1767 0.950 . S
C1790 C1789 1.397 . S
C1790 C1791 1.334 . S
C1791 H1768 0.950 . S
C1791 C1790 1.334 . S
C1791 C1792 1.287 . S
C1792 C1791 1.287 . S
C1792 C1793 1.524 . S
C1792 H1811 0.913 . S
C1793 H1769 0.950 . S
C1793 C1792 1.524 . S
C1793 C1794 1.415 . S
C1794 H1770 0.950 . S
C1794 C1789 1.363 . S
C1794 C1793 1.415 . S
C1795 H1771 0.951 . S
C1795 C1796 1.366 . S
C1795 C1797 1.388 . S
C1796 C1795 1.366 . S
C1796 C1800 1.385 . S
C1797 H1772 0.951 . S
C1797 C1795 1.388 . S
C1797 C1798 1.366 . S
C1798 C1797 1.366 . S
C1798 C1799 1.414 . S
C1798 C1801 1.499 . S
C1799 H1773 0.950 . S
C1799 C1798 1.414 . S
C1799 C1800 1.374 . S
C1800 H1774 0.950 . S
C1800 C1796 1.385 . S
C1800 C1799 1.374 . S
C1801 C1798 1.499 . S
C1801 C1802 1.373 . S
C1801 C1803 1.389 . S
C1802 H1775 0.950 . S
C1802 C1788 1.377 1_554 S
C1802 C1801 1.373 . S
C1803 C1787 1.377 1_554 S
C1803 C1801 1.389 . S
C1803 C1804 1.524 . S
C1804 C1803 1.524 . S
C1804 C1805 1.397 . S
C1804 C1809 1.363 . S
C1805 H1776 0.950 . S
C1805 C1804 1.397 . S
C1805 C1806 1.334 . S
C1806 H1777 0.950 . S
C1806 C1805 1.334 . S
C1806 C1807 1.287 . S
C1807 C1806 1.287 . S
C1807 C1808 1.524 . S
C1807 H1810 0.999 . S
C1808 H1778 0.950 . S
C1808 C1807 1.524 . S
C1808 C1809 1.415 . S
C1809 H1779 0.950 . S
C1809 C1804 1.363 . S
C1809 C1808 1.415 . S
H1810 C1807 0.999 . S
H1811 C1792 0.913 . S
H1812 C1830 0.951 . S
H1813 C1832 0.951 . S
H1814 C1834 0.950 . S
H1815 C1835 0.950 . S
H1816 C1837 0.950 . S
H1817 C1840 0.950 . S
H1818 C1841 0.950 . S
H1819 C1843 0.950 . S
H1820 C1844 0.950 . S
H1821 C1845 0.951 . S
H1822 C1847 0.951 . S
H1823 C1849 0.950 . S
H1824 C1850 0.950 . S
H1825 C1852 0.950 . S
H1826 C1855 0.950 . S
H1827 C1856 0.950 . S
H1828 C1858 0.950 . S
H1829 C1859 0.950 . S
C1830 H1812 0.951 . S
C1830 C1831 1.366 . S
C1830 C1832 1.388 . S
C1831 C1830 1.366 . S
C1831 C1835 1.385 . S
C1832 H1813 0.951 . S
C1832 C1830 1.388 . S
C1832 C1833 1.366 . S
C1833 C1832 1.366 . S
C1833 C1834 1.414 . S
C1833 C1836 1.499 . S
C1834 H1814 0.950 . S
C1834 C1833 1.414 . S
C1834 C1835 1.374 . S
C1835 H1815 0.950 . S
C1835 C1831 1.385 . S
C1835 C1834 1.374 . S
C1836 C1833 1.499 . S
C1836 C1837 1.373 . S
C1836 C1838 1.389 . S
C1837 H1816 0.950 . S
C1837 C1836 1.373 . S
C1837 C1853 1.377 . S
C1838 C1836 1.389 . S
C1838 C1839 1.524 . S
C1838 C1852 1.377 . S
C1839 C1838 1.524 . S
C1839 C1840 1.397 . S
C1839 C1844 1.363 . S
C1840 H1817 0.950 . S
C1840 C1839 1.397 . S
C1840 C1841 1.334 . S
C1841 H1818 0.950 . S
C1841 C1840 1.334 . S
C1841 C1842 1.287 . S
C1842 C1841 1.287 . S
C1842 C1843 1.524 . S
C1842 H1861 0.913 . S
C1843 H1819 0.950 . S
C1843 C1842 1.524 . S
C1843 C1844 1.415 . S
C1844 H1820 0.950 . S
C1844 C1839 1.363 . S
C1844 C1843 1.415 . S
C1845 H1821 0.951 . S
C1845 C1846 1.366 . S
C1845 C1847 1.388 . S
C1846 C1845 1.366 . S
C1846 C1850 1.385 . S
C1847 H1822 0.951 . S
C1847 C1845 1.388 . S
C1847 C1848 1.366 . S
C1848 C1847 1.366 . S
C1848 C1849 1.414 . S
C1848 C1851 1.499 . S
C1849 H1823 0.950 . S
C1849 C1848 1.414 . S
C1849 C1850 1.374 . S
C1850 H1824 0.950 . S
C1850 C1846 1.385 . S
C1850 C1849 1.374 . S
C1851 C1848 1.499 . S
C1851 C1852 1.373 . S
C1851 C1853 1.389 . S
C1852 H1825 0.950 . S
C1852 C1838 1.377 . S
C1852 C1851 1.373 . S
C1853 C1837 1.377 . S
C1853 C1851 1.389 . S
C1853 C1854 1.524 . S
C1854 C1853 1.524 . S
C1854 C1855 1.397 . S
C1854 C1859 1.363 . S
C1855 H1826 0.950 . S
C1855 C1854 1.397 . S
C1855 C1856 1.334 . S
C1856 H1827 0.950 . S
C1856 C1855 1.334 . S
C1856 C1857 1.287 . S
C1857 C1856 1.287 . S
C1857 C1858 1.524 . S
C1857 H1860 0.999 . S
C1858 H1828 0.950 . S
C1858 C1857 1.524 . S
C1858 C1859 1.415 . S
C1859 H1829 0.950 . S
C1859 C1854 1.363 . S
C1859 C1858 1.415 . S
H1860 C1857 0.999 . S
H1861 C1842 0.913 . S
H1862 C1880 0.951 . S
H1863 C1882 0.951 . S
H1864 C1884 0.950 . S
H1865 C1885 0.950 . S
H1866 C1887 0.950 . S
H1867 C1890 0.950 . S
H1868 C1891 0.950 . S
H1869 C1893 0.950 . S
H1870 C1894 0.950 . S
H1871 C1895 0.951 . S
H1872 C1897 0.951 . S
H1873 C1899 0.950 . S
H1874 C1900 0.950 . S
H1875 C1902 0.950 . S
H1876 C1905 0.950 . S
H1877 C1906 0.950 . S
H1878 C1908 0.950 . S
H1879 C1909 0.950 . S
C1880 H1862 0.951 . S
C1880 C1881 1.366 . S
C1880 C1882 1.388 . S
C1881 C1880 1.366 . S
C1881 C1885 1.385 . S
C1882 H1863 0.951 . S
C1882 C1880 1.388 . S
C1882 C1883 1.366 . S
C1883 C1882 1.366 . S
C1883 C1884 1.414 . S
C1883 C1886 1.499 . S
C1884 H1864 0.950 . S
C1884 C1883 1.414 . S
C1884 C1885 1.374 . S
C1885 H1865 0.950 . S
C1885 C1881 1.385 . S
C1885 C1884 1.374 . S
C1886 C1883 1.499 . S
C1886 C1887 1.373 . S
C1886 C1888 1.389 . S
C1887 H1866 0.950 . S
C1887 C1886 1.373 . S
C1887 C1903 1.377 . S
C1888 C1886 1.389 . S
C1888 C1889 1.524 . S
C1888 C1902 1.377 . S
C1889 C1888 1.524 . S
C1889 C1890 1.397 . S
C1889 C1894 1.363 . S
C1890 H1867 0.950 . S
C1890 C1889 1.397 . S
C1890 C1891 1.334 . S
C1891 H1868 0.950 . S
C1891 C1890 1.334 . S
C1891 C1892 1.287 . S
C1892 C1891 1.287 . S
C1892 C1893 1.524 . S
C1892 H1911 0.913 . S
C1893 H1869 0.950 . S
C1893 C1892 1.524 . S
C1893 C1894 1.415 . S
C1894 H1870 0.950 . S
C1894 C1889 1.363 . S
C1894 C1893 1.415 . S
C1895 H1871 0.951 . S
C1895 C1896 1.366 . S
C1895 C1897 1.388 . S
C1896 C1895 1.366 . S
C1896 C1900 1.385 . S
C1897 H1872 0.951 . S
C1897 C1895 1.388 . S
C1897 C1898 1.366 . S
C1898 C1897 1.366 . S
C1898 C1899 1.414 . S
C1898 C1901 1.499 . S
C1899 H1873 0.950 . S
C1899 C1898 1.414 . S
C1899 C1900 1.374 . S
C1900 H1874 0.950 . S
C1900 C1896 1.385 . S
C1900 C1899 1.374 . S
C1901 C1898 1.499 . S
C1901 C1902 1.373 . S
C1901 C1903 1.389 . S
C1902 H1875 0.950 . S
C1902 C1888 1.377 . S
C1902 C1901 1.373 . S
C1903 C1887 1.377 . S
C1903 C1901 1.389 . S
C1903 C1904 1.524 . S
C1904 C1903 1.524 . S
C1904 C1905 1.397 . S
C1904 C1909 1.363 . S
C1905 H1876 0.950 . S
C1905 C1904 1.397 . S
C1905 C1906 1.334 . S
C1906 H1877 0.950 . S
C1906 C1905 1.334 . S
C1906 C1907 1.287 . S
C1907 C1906 1.287 . S
C1907 C1908 1.524 . S
C1907 H1910 0.999 . S
C1908 H1878 0.950 . S
C1908 C1907 1.524 . S
C1908 C1909 1.415 . S
C1909 H1879 0.950 . S
C1909 C1904 1.363 . S
C1909 C1908 1.415 . S
H1910 C1907 0.999 . S
H1911 C1892 0.913 . S
H1912 C1930 0.951 . S
H1913 C1932 0.951 . S
H1914 C1934 0.950 . S
H1915 C1935 0.950 . S
H1916 C1937 0.950 . S
H1917 C1940 0.950 . S
H1918 C1941 0.950 . S
H1919 C1943 0.950 . S
H1920 C1944 0.950 . S
H1921 C1945 0.951 . S
H1922 C1947 0.951 . S
H1923 C1949 0.950 . S
H1924 C1950 0.950 . S
H1925 C1952 0.950 . S
H1926 C1955 0.950 . S
H1927 C1956 0.950 . S
H1928 C1958 0.950 . S
H1929 C1959 0.950 . S
C1930 H1912 0.951 . S
C1930 C1931 1.366 . S
C1930 C1932 1.388 . S
C1931 C1930 1.366 . S
C1931 C1935 1.385 . S
C1932 H1913 0.951 . S
C1932 C1930 1.388 . S
C1932 C1933 1.366 . S
C1933 C1932 1.366 . S
C1933 C1934 1.414 . S
C1933 C1936 1.499 . S
C1934 H1914 0.950 . S
C1934 C1933 1.414 . S
C1934 C1935 1.374 . S
C1935 H1915 0.950 . S
C1935 C1931 1.385 . S
C1935 C1934 1.374 . S
C1936 C1933 1.499 . S
C1936 C1937 1.373 . S
C1936 C1938 1.389 . S
C1937 H1916 0.950 . S
C1937 C1936 1.373 . S
C1937 C1953 1.377 . S
C1938 C1936 1.389 . S
C1938 C1939 1.524 . S
C1938 C1952 1.377 . S
C1939 C1938 1.524 . S
C1939 C1940 1.397 . S
C1939 C1944 1.363 . S
C1940 H1917 0.950 . S
C1940 C1939 1.397 . S
C1940 C1941 1.334 . S
C1941 H1918 0.950 . S
C1941 C1940 1.334 . S
C1941 C1942 1.287 . S
C1942 C1941 1.287 . S
C1942 C1943 1.524 . S
C1942 H1961 0.913 . S
C1943 H1919 0.950 . S
C1943 C1942 1.524 . S
C1943 C1944 1.415 . S
C1944 H1920 0.950 . S
C1944 C1939 1.363 . S
C1944 C1943 1.415 . S
C1945 H1921 0.951 . S
C1945 C1946 1.366 . S
C1945 C1947 1.388 . S
C1946 C1945 1.366 . S
C1946 C1950 1.385 . S
C1947 H1922 0.951 . S
C1947 C1945 1.388 . S
C1947 C1948 1.366 . S
C1948 C1947 1.366 . S
C1948 C1949 1.414 . S
C1948 C1951 1.499 . S
C1949 H1923 0.950 . S
C1949 C1948 1.414 . S
C1949 C1950 1.374 . S
C1950 H1924 0.950 . S
C1950 C1946 1.385 . S
C1950 C1949 1.374 . S
C1951 C1948 1.499 . S
C1951 C1952 1.373 . S
C1951 C1953 1.389 . S
C1952 H1925 0.950 . S
C1952 C1938 1.377 . S
C1952 C1951 1.373 . S
C1953 C1937 1.377 . S
C1953 C1951 1.389 . S
C1953 C1954 1.524 . S
C1954 C1953 1.524 . S
C1954 C1955 1.397 . S
C1954 C1959 1.363 . S
C1955 H1926 0.950 . S
C1955 C1954 1.397 . S
C1955 C1956 1.334 . S
C1956 H1927 0.950 . S
C1956 C1955 1.334 . S
C1956 C1957 1.287 . S
C1957 C1956 1.287 . S
C1957 C1958 1.524 . S
C1957 H1960 0.999 . S
C1958 H1928 0.950 . S
C1958 C1957 1.524 . S
C1958 C1959 1.415 . S
C1959 H1929 0.950 . S
C1959 C1954 1.363 . S
C1959 C1958 1.415 . S
H1960 C1957 0.999 . S
H1961 C1942 0.913 . S
H1962 C1980 0.951 . S
H1963 C1982 0.951 . S
H1964 C1984 0.950 . S
H1965 C1985 0.950 . S
H1966 C1987 0.950 . S
H1967 C1990 0.950 . S
H1968 C1991 0.950 . S
H1969 C1993 0.950 . S
H1970 C1994 0.950 . S
H1971 C1995 0.951 . S
H1972 C1997 0.951 . S
H1973 C1999 0.950 . S
H1974 C2000 0.950 . S
H1975 C2002 0.950 . S
H1976 C2005 0.950 . S
H1977 C2006 0.950 . S
H1978 C2008 0.950 . S
H1979 C2009 0.950 . S
C1980 H1962 0.951 . S
C1980 C1981 1.366 . S
C1980 C1982 1.388 . S
C1981 C1980 1.366 . S
C1981 C1985 1.385 . S
C1982 H1963 0.951 . S
C1982 C1980 1.388 . S
C1982 C1983 1.366 . S
C1983 C1982 1.366 . S
C1983 C1984 1.414 . S
C1983 C1986 1.499 . S
C1984 H1964 0.950 . S
C1984 C1983 1.414 . S
C1984 C1985 1.374 . S
C1985 H1965 0.950 . S
C1985 C1981 1.385 . S
C1985 C1984 1.374 . S
C1986 C1983 1.499 . S
C1986 C1987 1.373 . S
C1986 C1988 1.389 . S
C1987 H1966 0.950 . S
C1987 C1986 1.373 . S
C1987 C2003 1.377 . S
C1988 C1986 1.389 . S
C1988 C1989 1.524 . S
C1988 C2002 1.377 . S
C1989 C1988 1.524 . S
C1989 C1990 1.397 . S
C1989 C1994 1.363 . S
C1990 H1967 0.950 . S
C1990 C1989 1.397 . S
C1990 C1991 1.334 . S
C1991 H1968 0.950 . S
C1991 C1990 1.334 . S
C1991 C1992 1.287 . S
C1992 C1991 1.287 . S
C1992 C1993 1.524 . S
C1992 H2011 0.913 . S
C1993 H1969 0.950 . S
C1993 C1992 1.524 . S
C1993 C1994 1.415 . S
C1994 H1970 0.950 . S
C1994 C1989 1.363 . S
C1994 C1993 1.415 . S
C1995 H1971 0.951 . S
C1995 C1996 1.366 . S
C1995 C1997 1.388 . S
C1996 C1995 1.366 . S
C1996 C2000 1.385 . S
C1997 H1972 0.951 . S
C1997 C1995 1.388 . S
C1997 C1998 1.366 . S
C1998 C1997 1.366 . S
C1998 C1999 1.414 . S
C1998 C2001 1.499 . S
C1999 H1973 0.950 . S
C1999 C1998 1.414 . S
C1999 C2000 1.374 . S
C2000 H1974 0.950 . S
C2000 C1996 1.385 . S
C2000 C1999 1.374 . S
C2001 C1998 1.499 . S
C2001 C2002 1.373 . S
C2001 C2003 1.389 . S
C2002 H1975 0.950 . S
C2002 C1988 1.377 . S
C2002 C2001 1.373 . S
C2003 C1987 1.377 . S
C2003 C2001 1.389 . S
C2003 C2004 1.524 . S
C2004 C2003 1.524 . S
C2004 C2005 1.397 . S
C2004 C2009 1.363 . S
C2005 H1976 0.950 . S
C2005 C2004 1.397 . S
C2005 C2006 1.334 . S
C2006 H1977 0.950 . S
C2006 C2005 1.334 . S
C2006 C2007 1.287 . S
C2007 C2006 1.287 . S
C2007 C2008 1.524 . S
C2007 H2010 0.999 . S
C2008 H1978 0.950 . S
C2008 C2007 1.524 . S
C2008 C2009 1.415 . S
C2009 H1979 0.950 . S
C2009 C2004 1.363 . S
C2009 C2008 1.415 . S
H2010 C2007 0.999 . S
H2011 C1992 0.913 . S
H2012 C2030 0.951 . S
H2013 C2032 0.951 . S
H2014 C2034 0.950 . S
H2015 C2035 0.950 . S
H2016 C2037 0.950 . S
H2017 C2040 0.950 . S
H2018 C2041 0.950 . S
H2019 C2043 0.950 . S
H2020 C2044 0.950 . S
H2021 C2045 0.951 . S
H2022 C2047 0.951 . S
H2023 C2049 0.950 . S
H2024 C2050 0.950 . S
H2025 C2052 0.950 . S
H2026 C2055 0.950 . S
H2027 C2056 0.950 . S
H2028 C2058 0.950 . S
H2029 C2059 0.950 . S
C2030 H2012 0.951 . S
C2030 C2031 1.366 . S
C2030 C2032 1.388 . S
C2031 C2030 1.366 . S
C2031 C2035 1.385 . S
C2032 H2013 0.951 . S
C2032 C2030 1.388 . S
C2032 C2033 1.366 . S
C2033 C2032 1.366 . S
C2033 C2034 1.414 . S
C2033 C2036 1.499 . S
C2034 H2014 0.950 . S
C2034 C2033 1.414 . S
C2034 C2035 1.374 . S
C2035 H2015 0.950 . S
C2035 C2031 1.385 . S
C2035 C2034 1.374 . S
C2036 C2033 1.499 . S
C2036 C2037 1.373 . S
C2036 C2038 1.389 . S
C2037 H2016 0.950 . S
C2037 C2036 1.373 . S
C2037 C2053 1.377 . S
C2038 C2036 1.389 . S
C2038 C2039 1.524 . S
C2038 C2052 1.377 . S
C2039 C2038 1.524 . S
C2039 C2040 1.397 . S
C2039 C2044 1.363 . S
C2040 H2017 0.950 . S
C2040 C2039 1.397 . S
C2040 C2041 1.334 . S
C2041 H2018 0.950 . S
C2041 C2040 1.334 . S
C2041 C2042 1.287 . S
C2042 C2041 1.287 . S
C2042 C2043 1.524 . S
C2042 H2061 0.913 . S
C2043 H2019 0.950 . S
C2043 C2042 1.524 . S
C2043 C2044 1.415 . S
C2044 H2020 0.950 . S
C2044 C2039 1.363 . S
C2044 C2043 1.415 . S
C2045 H2021 0.951 . S
C2045 C2046 1.366 . S
C2045 C2047 1.388 . S
C2046 C2045 1.366 . S
C2046 C2050 1.385 . S
C2047 H2022 0.951 . S
C2047 C2045 1.388 . S
C2047 C2048 1.366 . S
C2048 C2047 1.366 . S
C2048 C2049 1.414 . S
C2048 C2051 1.499 . S
C2049 H2023 0.950 . S
C2049 C2048 1.414 . S
C2049 C2050 1.374 . S
C2050 H2024 0.950 . S
C2050 C2046 1.385 . S
C2050 C2049 1.374 . S
C2051 C2048 1.499 . S
C2051 C2052 1.373 . S
C2051 C2053 1.389 . S
C2052 H2025 0.950 . S
C2052 C2038 1.377 . S
C2052 C2051 1.373 . S
C2053 C2037 1.377 . S
C2053 C2051 1.389 . S
C2053 C2054 1.524 . S
C2054 C2053 1.524 . S
C2054 C2055 1.397 . S
C2054 C2059 1.363 . S
C2055 H2026 0.950 . S
C2055 C2054 1.397 . S
C2055 C2056 1.334 . S
C2056 H2027 0.950 . S
C2056 C2055 1.334 . S
C2056 C2057 1.287 . S
C2057 C2056 1.287 . S
C2057 C2058 1.524 . S
C2057 H2060 0.999 . S
C2058 H2028 0.950 . S
C2058 C2057 1.524 . S
C2058 C2059 1.415 . S
C2059 H2029 0.950 . S
C2059 C2054 1.363 . S
C2059 C2058 1.415 . S
H2060 C2057 0.999 . S
H2061 C2042 0.913 . S
H2062 C2080 0.951 . S
H2063 C2082 0.951 . S
H2064 C2084 0.950 . S
H2065 C2085 0.950 . S
H2066 C2087 0.950 . S
H2067 C2090 0.950 . S
H2068 C2091 0.950 . S
H2069 C2093 0.950 . S
H2070 C2094 0.950 . S
H2071 C2095 0.951 . S
H2072 C2097 0.951 . S
H2073 C2099 0.950 . S
H2074 C2100 0.950 . S
H2075 C2102 0.950 . S
H2076 C2105 0.950 . S
H2077 C2106 0.950 . S
H2078 C2108 0.950 . S
H2079 C2109 0.950 . S
C2080 H2062 0.951 . S
C2080 C2081 1.366 . S
C2080 C2082 1.388 . S
C2081 C2080 1.366 . S
C2081 C2085 1.385 . S
C2082 H2063 0.951 . S
C2082 C2080 1.388 . S
C2082 C2083 1.366 . S
C2083 C2082 1.366 . S
C2083 C2084 1.414 . S
C2083 C2086 1.499 . S
C2084 H2064 0.950 . S
C2084 C2083 1.414 . S
C2084 C2085 1.374 . S
C2085 H2065 0.950 . S
C2085 C2081 1.385 . S
C2085 C2084 1.374 . S
C2086 C2083 1.499 . S
C2086 C2087 1.373 . S
C2086 C2088 1.389 . S
C2087 H2066 0.950 . S
C2087 C2086 1.373 . S
C2087 C2103 1.377 . S
C2088 C2086 1.389 . S
C2088 C2089 1.524 . S
C2088 C2102 1.377 . S
C2089 C2088 1.524 . S
C2089 C2090 1.397 . S
C2089 C2094 1.363 . S
C2090 H2067 0.950 . S
C2090 C2089 1.397 . S
C2090 C2091 1.334 . S
C2091 H2068 0.950 . S
C2091 C2090 1.334 . S
C2091 C2092 1.287 . S
C2092 C2091 1.287 . S
C2092 C2093 1.524 . S
C2092 H2111 0.913 . S
C2093 H2069 0.950 . S
C2093 C2092 1.524 . S
C2093 C2094 1.415 . S
C2094 H2070 0.950 . S
C2094 C2089 1.363 . S
C2094 C2093 1.415 . S
C2095 H2071 0.951 . S
C2095 C2096 1.366 . S
C2095 C2097 1.388 . S
C2096 C2095 1.366 . S
C2096 C2100 1.385 . S
C2097 H2072 0.951 . S
C2097 C2095 1.388 . S
C2097 C2098 1.366 . S
C2098 C2097 1.366 . S
C2098 C2099 1.414 . S
C2098 C2101 1.499 . S
C2099 H2073 0.950 . S
C2099 C2098 1.414 . S
C2099 C2100 1.374 . S
C2100 H2074 0.950 . S
C2100 C2096 1.385 . S
C2100 C2099 1.374 . S
C2101 C2098 1.499 . S
C2101 C2102 1.373 . S
C2101 C2103 1.389 . S
C2102 H2075 0.950 . S
C2102 C2088 1.377 . S
C2102 C2101 1.373 . S
C2103 C2087 1.377 . S
C2103 C2101 1.389 . S
C2103 C2104 1.524 . S
C2104 C2103 1.524 . S
C2104 C2105 1.397 . S
C2104 C2109 1.363 . S
C2105 H2076 0.950 . S
C2105 C2104 1.397 . S
C2105 C2106 1.334 . S
C2106 H2077 0.950 . S
C2106 C2105 1.334 . S
C2106 C2107 1.287 . S
C2107 C2106 1.287 . S
C2107 C2108 1.524 . S
C2107 H2110 0.999 . S
C2108 H2078 0.950 . S
C2108 C2107 1.524 . S
C2108 C2109 1.415 . S
C2109 H2079 0.950 . S
C2109 C2104 1.363 . S
C2109 C2108 1.415 . S
H2110 C2107 0.999 . S
H2111 C2092 0.913 . S
H2112 C2130 0.951 . S
H2113 C2132 0.951 . S
H2114 C2134 0.950 . S
H2115 C2135 0.950 . S
H2116 C2137 0.950 . S
H2117 C2140 0.950 . S
H2118 C2141 0.950 . S
H2119 C2143 0.950 . S
H2120 C2144 0.950 . S
H2121 C2145 0.951 . S
H2122 C2147 0.951 . S
H2123 C2149 0.950 . S
H2124 C2150 0.950 . S
H2125 C2152 0.950 . S
H2126 C2155 0.950 . S
H2127 C2156 0.950 . S
H2128 C2158 0.950 . S
H2129 C2159 0.950 . S
C2130 H2112 0.951 . S
C2130 C2131 1.366 . S
C2130 C2132 1.388 . S
C2131 C2130 1.366 . S
C2131 C2135 1.385 . S
C2132 H2113 0.951 . S
C2132 C2130 1.388 . S
C2132 C2133 1.366 . S
C2133 C2132 1.366 . S
C2133 C2134 1.414 . S
C2133 C2136 1.499 . S
C2134 H2114 0.950 . S
C2134 C2133 1.414 . S
C2134 C2135 1.374 . S
C2135 H2115 0.950 . S
C2135 C2131 1.385 . S
C2135 C2134 1.374 . S
C2136 C2133 1.499 . S
C2136 C2137 1.373 . S
C2136 C2138 1.389 . S
C2137 H2116 0.950 . S
C2137 C2136 1.373 . S
C2137 C2153 1.377 . S
C2138 C2136 1.389 . S
C2138 C2139 1.524 . S
C2138 C2152 1.377 . S
C2139 C2138 1.524 . S
C2139 C2140 1.397 . S
C2139 C2144 1.363 . S
C2140 H2117 0.950 . S
C2140 C2139 1.397 . S
C2140 C2141 1.334 . S
C2141 H2118 0.950 . S
C2141 C2140 1.334 . S
C2141 C2142 1.287 . S
C2142 C2141 1.287 . S
C2142 C2143 1.524 . S
C2142 H2161 0.913 . S
C2143 H2119 0.950 . S
C2143 C2142 1.524 . S
C2143 C2144 1.415 . S
C2144 H2120 0.950 . S
C2144 C2139 1.363 . S
C2144 C2143 1.415 . S
C2145 H2121 0.951 . S
C2145 C2146 1.366 . S
C2145 C2147 1.388 . S
C2146 C2145 1.366 . S
C2146 C2150 1.385 . S
C2147 H2122 0.951 . S
C2147 C2145 1.388 . S
C2147 C2148 1.366 . S
C2148 C2147 1.366 . S
C2148 C2149 1.414 . S
C2148 C2151 1.499 . S
C2149 H2123 0.950 . S
C2149 C2148 1.414 . S
C2149 C2150 1.374 . S
C2150 H2124 0.950 . S
C2150 C2146 1.385 . S
C2150 C2149 1.374 . S
C2151 C2148 1.499 . S
C2151 C2152 1.373 . S
C2151 C2153 1.389 . S
C2152 H2125 0.950 . S
C2152 C2138 1.377 . S
C2152 C2151 1.373 . S
C2153 C2137 1.377 . S
C2153 C2151 1.389 . S
C2153 C2154 1.524 . S
C2154 C2153 1.524 . S
C2154 C2155 1.397 . S
C2154 C2159 1.363 . S
C2155 H2126 0.950 . S
C2155 C2154 1.397 . S
C2155 C2156 1.334 . S
C2156 H2127 0.950 . S
C2156 C2155 1.334 . S
C2156 C2157 1.287 . S
C2157 C2156 1.287 . S
C2157 C2158 1.524 . S
C2157 H2160 0.999 . S
C2158 H2128 0.950 . S
C2158 C2157 1.524 . S
C2158 C2159 1.415 . S
C2159 H2129 0.950 . S
C2159 C2154 1.363 . S
C2159 C2158 1.415 . S
H2160 C2157 0.999 . S
H2161 C2142 0.913 . S
H2162 C2180 0.951 . S
H2163 C2182 0.951 . S
H2164 C2184 0.950 . S
H2165 C2185 0.950 . S
H2166 C2187 0.950 . S
H2167 C2190 0.950 . S
H2168 C2191 0.950 . S
H2169 C2193 0.950 . S
H2170 C2194 0.950 . S
H2171 C2195 0.951 . S
H2172 C2197 0.951 . S
H2173 C2199 0.950 . S
H2174 C2200 0.950 . S
H2175 C2202 0.950 . S
H2176 C2205 0.950 . S
H2177 C2206 0.950 . S
H2178 C2208 0.950 . S
H2179 C2209 0.950 . S
C2180 H2162 0.951 . S
C2180 C2181 1.366 . S
C2180 C2182 1.388 . S
C2181 C2180 1.366 . S
C2181 C2185 1.385 . S
C2182 H2163 0.951 . S
C2182 C2180 1.388 . S
C2182 C2183 1.366 . S
C2183 C2182 1.366 . S
C2183 C2184 1.414 . S
C2183 C2186 1.499 . S
C2184 H2164 0.950 . S
C2184 C2183 1.414 . S
C2184 C2185 1.374 . S
C2185 H2165 0.950 . S
C2185 C2181 1.385 . S
C2185 C2184 1.374 . S
C2186 C2183 1.499 . S
C2186 C2187 1.373 . S
C2186 C2188 1.389 . S
C2187 H2166 0.950 . S
C2187 C2186 1.373 . S
C2187 C2203 1.377 . S
C2188 C2186 1.389 . S
C2188 C2189 1.524 . S
C2188 C2202 1.377 . S
C2189 C2188 1.524 . S
C2189 C2190 1.397 . S
C2189 C2194 1.363 . S
C2190 H2167 0.950 . S
C2190 C2189 1.397 . S
C2190 C2191 1.334 . S
C2191 H2168 0.950 . S
C2191 C2190 1.334 . S
C2191 C2192 1.287 . S
C2192 C2191 1.287 . S
C2192 C2193 1.524 . S
C2192 H2211 0.913 . S
C2193 H2169 0.950 . S
C2193 C2192 1.524 . S
C2193 C2194 1.415 . S
C2194 H2170 0.950 . S
C2194 C2189 1.363 . S
C2194 C2193 1.415 . S
C2195 H2171 0.951 . S
C2195 C2196 1.366 . S
C2195 C2197 1.388 . S
C2196 C2195 1.366 . S
C2196 C2200 1.385 . S
C2197 H2172 0.951 . S
C2197 C2195 1.388 . S
C2197 C2198 1.366 . S
C2198 C2197 1.366 . S
C2198 C2199 1.414 . S
C2198 C2201 1.499 . S
C2199 H2173 0.950 . S
C2199 C2198 1.414 . S
C2199 C2200 1.374 . S
C2200 H2174 0.950 . S
C2200 C2196 1.385 . S
C2200 C2199 1.374 . S
C2201 C2198 1.499 . S
C2201 C2202 1.373 . S
C2201 C2203 1.389 . S
C2202 H2175 0.950 . S
C2202 C2188 1.377 . S
C2202 C2201 1.373 . S
C2203 C2187 1.377 . S
C2203 C2201 1.389 . S
C2203 C2204 1.524 . S
C2204 C2203 1.524 . S
C2204 C2205 1.397 . S
C2204 C2209 1.363 . S
C2205 H2176 0.950 . S
C2205 C2204 1.397 . S
C2205 C2206 1.334 . S
C2206 H2177 0.950 . S
C2206 C2205 1.334 . S
C2206 C2207 1.287 . S
C2207 C2206 1.287 . S
C2207 C2208 1.524 . S
C2207 H2210 0.999 . S
C2208 H2178 0.950 . S
C2208 C2207 1.524 . S
C2208 C2209 1.415 . S
C2209 H2179 0.950 . S
C2209 C2204 1.363 . S
C2209 C2208 1.415 . S
H2210 C2207 0.999 . S
H2211 C2192 0.913 . S
H2212 C2230 0.951 . S
H2213 C2232 0.951 . S
H2214 C2234 0.950 . S
H2215 C2235 0.950 . S
H2216 C2237 0.950 . S
H2217 C2240 0.950 . S
H2218 C2241 0.950 . S
H2219 C2243 0.950 . S
H2220 C2244 0.950 . S
H2221 C2245 0.951 . S
H2222 C2247 0.951 . S
H2223 C2249 0.950 . S
H2224 C2250 0.950 . S
H2225 C2252 0.950 . S
H2226 C2255 0.950 . S
H2227 C2256 0.950 . S
H2228 C2258 0.950 . S
H2229 C2259 0.950 . S
C2230 H2212 0.951 . S
C2230 C2231 1.366 . S
C2230 C2232 1.388 . S
C2231 C2230 1.366 . S
C2231 C2235 1.385 . S
C2232 H2213 0.951 . S
C2232 C2230 1.388 . S
C2232 C2233 1.366 . S
C2233 C2232 1.366 . S
C2233 C2234 1.414 . S
C2233 C2236 1.499 . S
C2234 H2214 0.950 . S
C2234 C2233 1.414 . S
C2234 C2235 1.374 . S
C2235 H2215 0.950 . S
C2235 C2231 1.385 . S
C2235 C2234 1.374 . S
C2236 C2233 1.499 . S
C2236 C2237 1.373 . S
C2236 C2238 1.389 . S
C2237 H2216 0.950 . S
C2237 C2236 1.373 . S
C2237 C2253 1.377 . S
C2238 C2236 1.389 . S
C2238 C2239 1.524 . S
C2238 C2252 1.377 . S
C2239 C2238 1.524 . S
C2239 C2240 1.397 . S
C2239 C2244 1.363 . S
C2240 H2217 0.950 . S
C2240 C2239 1.397 . S
C2240 C2241 1.334 . S
C2241 H2218 0.950 . S
C2241 C2240 1.334 . S
C2241 C2242 1.287 . S
C2242 C2241 1.287 . S
C2242 C2243 1.524 . S
C2242 H2261 0.913 . S
C2243 H2219 0.950 . S
C2243 C2242 1.524 . S
C2243 C2244 1.415 . S
C2244 H2220 0.950 . S
C2244 C2239 1.363 . S
C2244 C2243 1.415 . S
C2245 H2221 0.951 . S
C2245 C2246 1.366 . S
C2245 C2247 1.388 . S
C2246 C2245 1.366 . S
C2246 C2250 1.385 . S
C2247 H2222 0.951 . S
C2247 C2245 1.388 . S
C2247 C2248 1.366 . S
C2248 C2247 1.366 . S
C2248 C2249 1.414 . S
C2248 C2251 1.499 . S
C2249 H2223 0.950 . S
C2249 C2248 1.414 . S
C2249 C2250 1.374 . S
C2250 H2224 0.950 . S
C2250 C2246 1.385 . S
C2250 C2249 1.374 . S
C2251 C2248 1.499 . S
C2251 C2252 1.373 . S
C2251 C2253 1.389 . S
C2252 H2225 0.950 . S
C2252 C2238 1.377 . S
C2252 C2251 1.373 . S
C2253 C2237 1.377 . S
C2253 C2251 1.389 . S
C2253 C2254 1.524 . S
C2254 C2253 1.524 . S
C2254 C2255 1.397 . S
C2254 C2259 1.363 . S
C2255 H2226 0.950 . S
C2255 C2254 1.397 . S
C2255 C2256 1.334 . S
C2256 H2227 0.950 . S
C2256 C2255 1.334 . S
C2256 C2257 1.287 . S
C2257 C2256 1.287 . S
C2257 C2258 1.524 . S
C2257 H2260 0.999 . S
C2258 H2228 0.950 . S
C2258 C2257 1.524 . S
C2258 C2259 1.415 . S
C2259 H2229 0.950 . S
C2259 C2254 1.363 . S
C2259 C2258 1.415 . S
H2260 C2257 0.999 . S
H2261 C2242 0.913 . S
H2262 C2280 0.951 . S
H2263 C2282 0.951 . S
H2264 C2284 0.950 . S
H2265 C2285 0.950 . S
H2266 C2287 0.950 . S
H2267 C2290 0.950 . S
H2268 C2291 0.950 . S
H2269 C2293 0.950 . S
H2270 C2294 0.950 . S
H2271 C2295 0.951 . S
H2272 C2297 0.951 . S
H2273 C2299 0.950 . S
H2274 C2300 0.950 . S
H2275 C2302 0.950 . S
H2276 C2305 0.950 . S
H2277 C2306 0.950 . S
H2278 C2308 0.950 . S
H2279 C2309 0.950 . S
C2280 H2262 0.951 . S
C2280 C2281 1.366 . S
C2280 C2282 1.388 . S
C2281 C2280 1.366 . S
C2281 C2285 1.385 . S
C2282 H2263 0.951 . S
C2282 C2280 1.388 . S
C2282 C2283 1.366 . S
C2283 C2282 1.366 . S
C2283 C2284 1.414 . S
C2283 C2286 1.499 . S
C2284 H2264 0.950 . S
C2284 C2283 1.414 . S
C2284 C2285 1.374 . S
C2285 H2265 0.950 . S
C2285 C2281 1.385 . S
C2285 C2284 1.374 . S
C2286 C2283 1.499 . S
C2286 C2287 1.373 . S
C2286 C2288 1.389 . S
C2287 H2266 0.950 . S
C2287 C2286 1.373 . S
C2287 C2303 1.377 . S
C2288 C2286 1.389 . S
C2288 C2289 1.524 . S
C2288 C2302 1.377 . S
C2289 C2288 1.524 . S
C2289 C2290 1.397 . S
C2289 C2294 1.363 . S
C2290 H2267 0.950 . S
C2290 C2289 1.397 . S
C2290 C2291 1.334 . S
C2291 H2268 0.950 . S
C2291 C2290 1.334 . S
C2291 C2292 1.287 . S
C2292 C2291 1.287 . S
C2292 C2293 1.524 . S
C2292 H2311 0.913 . S
C2293 H2269 0.950 . S
C2293 C2292 1.524 . S
C2293 C2294 1.415 . S
C2294 H2270 0.950 . S
C2294 C2289 1.363 . S
C2294 C2293 1.415 . S
C2295 H2271 0.951 . S
C2295 C2296 1.366 . S
C2295 C2297 1.388 . S
C2296 C2295 1.366 . S
C2296 C2300 1.385 . S
C2297 H2272 0.951 . S
C2297 C2295 1.388 . S
C2297 C2298 1.366 . S
C2298 C2297 1.366 . S
C2298 C2299 1.414 . S
C2298 C2301 1.499 . S
C2299 H2273 0.950 . S
C2299 C2298 1.414 . S
C2299 C2300 1.374 . S
C2300 H2274 0.950 . S
C2300 C2296 1.385 . S
C2300 C2299 1.374 . S
C2301 C2298 1.499 . S
C2301 C2302 1.373 . S
C2301 C2303 1.389 . S
C2302 H2275 0.950 . S
C2302 C2288 1.377 . S
C2302 C2301 1.373 . S
C2303 C2287 1.377 . S
C2303 C2301 1.389 . S
C2303 C2304 1.524 . S
C2304 C2303 1.524 . S
C2304 C2305 1.397 . S
C2304 C2309 1.363 . S
C2305 H2276 0.950 . S
C2305 C2304 1.397 . S
C2305 C2306 1.334 . S
C2306 H2277 0.950 . S
C2306 C2305 1.334 . S
C2306 C2307 1.287 . S
C2307 C2306 1.287 . S
C2307 C2308 1.524 . S
C2307 H2310 0.999 . S
C2308 H2278 0.950 . S
C2308 C2307 1.524 . S
C2308 C2309 1.415 . S
C2309 H2279 0.950 . S
C2309 C2304 1.363 . S
C2309 C2308 1.415 . S
H2310 C2307 0.999 . S
H2311 C2292 0.913 . S
H2312 C2330 0.951 . S
H2313 C2332 0.951 . S
H2314 C2334 0.950 . S
H2315 C2335 0.950 . S
H2316 C2337 0.950 . S
H2317 C2340 0.950 . S
H2318 C2341 0.950 . S
H2319 C2343 0.950 . S
H2320 C2344 0.950 . S
H2321 C2345 0.951 . S
H2322 C2347 0.951 . S
H2323 C2349 0.950 . S
H2324 C2350 0.950 . S
H2325 C2352 0.950 . S
H2326 C2355 0.950 . S
H2327 C2356 0.950 . S
H2328 C2358 0.950 . S
H2329 C2359 0.950 . S
C2330 H2312 0.951 . S
C2330 C2331 1.366 . S
C2330 C2332 1.388 . S
C2331 C2330 1.366 . S
C2331 C2335 1.385 . S
C2332 H2313 0.951 . S
C2332 C2330 1.388 . S
C2332 C2333 1.366 . S
C2333 C2332 1.366 . S
C2333 C2334 1.414 . S
C2333 C2336 1.499 . S
C2334 H2314 0.950 . S
C2334 C2333 1.414 . S
C2334 C2335 1.374 . S
C2335 H2315 0.950 . S
C2335 C2331 1.385 . S
C2335 C2334 1.374 . S
C2336 C2333 1.499 . S
C2336 C2337 1.373 . S
C2336 C2338 1.389 . S
C2337 H2316 0.950 . S
C2337 C2336 1.373 . S
C2337 C2353 1.377 . S
C2338 C2336 1.389 . S
C2338 C2339 1.524 . S
C2338 C2352 1.377 . S
C2339 C2338 1.524 . S
C2339 C2340 1.397 . S
C2339 C2344 1.363 . S
C2340 H2317 0.950 . S
C2340 C2339 1.397 . S
C2340 C2341 1.334 . S
C2341 H2318 0.950 . S
C2341 C2340 1.334 . S
C2341 C2342 1.287 . S
C2342 C2341 1.287 . S
C2342 C2343 1.524 . S
C2342 H2361 0.913 . S
C2343 H2319 0.950 . S
C2343 C2342 1.524 . S
C2343 C2344 1.415 . S
C2344 H2320 0.950 . S
C2344 C2339 1.363 . S
C2344 C2343 1.415 . S
C2345 H2321 0.951 . S
C2345 C2346 1.366 . S
C2345 C2347 1.388 . S
C2346 C2345 1.366 . S
C2346 C2350 1.385 . S
C2347 H2322 0.951 . S
C2347 C2345 1.388 . S
C2347 C2348 1.366 . S
C2348 C2347 1.366 . S
C2348 C2349 1.414 . S
C2348 C2351 1.499 . S
C2349 H2323 0.950 . S
C2349 C2348 1.414 . S
C2349 C2350 1.374 . S
C2350 H2324 0.950 . S
C2350 C2346 1.385 . S
C2350 C2349 1.374 . S
C2351 C2348 1.499 . S
C2351 C2352 1.373 . S
C2351 C2353 1.389 . S
C2352 H2325 0.950 . S
C2352 C2338 1.377 . S
C2352 C2351 1.373 . S
C2353 C2337 1.377 . S
C2353 C2351 1.389 . S
C2353 C2354 1.524 . S
C2354 C2353 1.524 . S
C2354 C2355 1.397 . S
C2354 C2359 1.363 . S
C2355 H2326 0.950 . S
C2355 C2354 1.397 . S
C2355 C2356 1.334 . S
C2356 H2327 0.950 . S
C2356 C2355 1.334 . S
C2356 C2357 1.287 . S
C2357 C2356 1.287 . S
C2357 C2358 1.524 . S
C2357 H2360 0.999 . S
C2358 H2328 0.950 . S
C2358 C2357 1.524 . S
C2358 C2359 1.415 . S
C2359 H2329 0.950 . S
C2359 C2354 1.363 . S
C2359 C2358 1.415 . S
H2360 C2357 0.999 . S
H2361 C2342 0.913 . S
H2362 C2380 0.951 . S
H2363 C2382 0.951 . S
H2364 C2384 0.950 . S
H2365 C2385 0.950 . S
H2366 C2387 0.950 . S
H2367 C2390 0.950 . S
H2368 C2391 0.950 . S
H2369 C2393 0.950 . S
H2370 C2394 0.950 . S
H2371 C2395 0.951 . S
H2372 C2397 0.951 . S
H2373 C2399 0.950 . S
H2374 C2400 0.950 . S
H2375 C2402 0.950 . S
H2376 C2405 0.950 . S
H2377 C2406 0.950 . S
H2378 C2408 0.950 . S
H2379 C2409 0.950 . S
C2380 H2362 0.951 . S
C2380 C2381 1.366 . S
C2380 C2382 1.388 . S
C2381 C2380 1.366 . S
C2381 C2385 1.385 . S
C2382 H2363 0.951 . S
C2382 C2380 1.388 . S
C2382 C2383 1.366 . S
C2383 C2382 1.366 . S
C2383 C2384 1.414 . S
C2383 C2386 1.499 . S
C2384 H2364 0.950 . S
C2384 C2383 1.414 . S
C2384 C2385 1.374 . S
C2385 H2365 0.950 . S
C2385 C2381 1.385 . S
C2385 C2384 1.374 . S
C2386 C2383 1.499 . S
C2386 C2387 1.373 . S
C2386 C2388 1.389 . S
C2387 H2366 0.950 . S
C2387 C2386 1.373 . S
C2387 C2403 1.377 . S
C2388 C2386 1.389 . S
C2388 C2389 1.524 . S
C2388 C2402 1.377 . S
C2389 C2388 1.524 . S
C2389 C2390 1.397 . S
C2389 C2394 1.363 . S
C2390 H2367 0.950 . S
C2390 C2389 1.397 . S
C2390 C2391 1.334 . S
C2391 H2368 0.950 . S
C2391 C2390 1.334 . S
C2391 C2392 1.287 . S
C2392 C2391 1.287 . S
C2392 C2393 1.524 . S
C2392 H2411 0.913 . S
C2393 H2369 0.950 . S
C2393 C2392 1.524 . S
C2393 C2394 1.415 . S
C2394 H2370 0.950 . S
C2394 C2389 1.363 . S
C2394 C2393 1.415 . S
C2395 H2371 0.951 . S
C2395 C2396 1.366 . S
C2395 C2397 1.388 . S
C2396 C2395 1.366 . S
C2396 C2400 1.385 . S
C2397 H2372 0.951 . S
C2397 C2395 1.388 . S
C2397 C2398 1.366 . S
C2398 C2397 1.366 . S
C2398 C2399 1.414 . S
C2398 C2401 1.499 . S
C2399 H2373 0.950 . S
C2399 C2398 1.414 . S
C2399 C2400 1.374 . S
C2400 H2374 0.950 . S
C2400 C2396 1.385 . S
C2400 C2399 1.374 . S
C2401 C2398 1.499 . S
C2401 C2402 1.373 . S
C2401 C2403 1.389 . S
C2402 H2375 0.950 . S
C2402 C2388 1.377 . S
C2402 C2401 1.373 . S
C2403 C2387 1.377 . S
C2403 C2401 1.389 . S
C2403 C2404 1.524 . S
C2404 C2403 1.524 . S
C2404 C2405 1.397 . S
C2404 C2409 1.363 . S
C2405 H2376 0.950 . S
C2405 C2404 1.397 . S
C2405 C2406 1.334 . S
C2406 H2377 0.950 . S
C2406 C2405 1.334 . S
C2406 C2407 1.287 . S
C2407 C2406 1.287 . S
C2407 C2408 1.524 . S
C2407 H2410 0.999 . S
C2408 H2378 0.950 . S
C2408 C2407 1.524 . S
C2408 C2409 1.415 . S
C2409 H2379 0.950 . S
C2409 C2404 1.363 . S
C2409 C2408 1.415 . S
H2410 C2407 0.999 . S
H2411 C2392 0.913 . S
H2412 C2430 0.951 . S
H2413 C2432 0.951 . S
H2414 C2434 0.950 . S
H2415 C2435 0.950 . S
H2416 C2437 0.950 . S
H2417 C2440 0.950 . S
H2418 C2441 0.950 . S
H2419 C2443 0.950 . S
H2420 C2444 0.950 . S
H2421 C2445 0.951 . S
H2422 C2447 0.951 . S
H2423 C2449 0.950 . S
H2424 C2450 0.950 . S
H2425 C2452 0.950 . S
H2426 C2455 0.950 . S
H2427 C2456 0.950 . S
H2428 C2458 0.950 . S
H2429 C2459 0.950 . S
C2430 H2412 0.951 . S
C2430 C2431 1.366 . S
C2430 C2432 1.388 . S
C2431 C2430 1.366 . S
C2431 C2435 1.385 . S
C2432 H2413 0.951 . S
C2432 C2430 1.388 . S
C2432 C2433 1.366 . S
C2433 C2432 1.366 . S
C2433 C2434 1.414 . S
C2433 C2436 1.499 . S
C2434 H2414 0.950 . S
C2434 C2433 1.414 . S
C2434 C2435 1.374 . S
C2435 H2415 0.950 . S
C2435 C2431 1.385 . S
C2435 C2434 1.374 . S
C2436 C2433 1.499 . S
C2436 C2437 1.373 . S
C2436 C2438 1.389 . S
C2437 H2416 0.950 . S
C2437 C2436 1.373 . S
C2437 C2453 1.377 . S
C2438 C2436 1.389 . S
C2438 C2439 1.524 . S
C2438 C2452 1.377 . S
C2439 C2438 1.524 . S
C2439 C2440 1.397 . S
C2439 C2444 1.363 . S
C2440 H2417 0.950 . S
C2440 C2439 1.397 . S
C2440 C2441 1.334 . S
C2441 H2418 0.950 . S
C2441 C2440 1.334 . S
C2441 C2442 1.287 . S
C2442 C2441 1.287 . S
C2442 C2443 1.524 . S
C2442 H2461 0.913 . S
C2443 H2419 0.950 . S
C2443 C2442 1.524 . S
C2443 C2444 1.415 . S
C2444 H2420 0.950 . S
C2444 C2439 1.363 . S
C2444 C2443 1.415 . S
C2445 H2421 0.951 . S
C2445 C2446 1.366 . S
C2445 C2447 1.388 . S
C2446 C2445 1.366 . S
C2446 C2450 1.385 . S
C2447 H2422 0.951 . S
C2447 C2445 1.388 . S
C2447 C2448 1.366 . S
C2448 C2447 1.366 . S
C2448 C2449 1.414 . S
C2448 C2451 1.499 . S
C2449 H2423 0.950 . S
C2449 C2448 1.414 . S
C2449 C2450 1.374 . S
C2450 H2424 0.950 . S
C2450 C2446 1.385 . S
C2450 C2449 1.374 . S
C2451 C2448 1.499 . S
C2451 C2452 1.373 . S
C2451 C2453 1.389 . S
C2452 H2425 0.950 . S
C2452 C2438 1.377 . S
C2452 C2451 1.373 . S
C2453 C2437 1.377 . S
C2453 C2451 1.389 . S
C2453 C2454 1.524 . S
C2454 C2453 1.524 . S
C2454 C2455 1.397 . S
C2454 C2459 1.363 . S
C2455 H2426 0.950 . S
C2455 C2454 1.397 . S
C2455 C2456 1.334 . S
C2456 H2427 0.950 . S
C2456 C2455 1.334 . S
C2456 C2457 1.287 . S
C2457 C2456 1.287 . S
C2457 C2458 1.524 . S
C2457 H2460 0.999 . S
C2458 H2428 0.950 . S
C2458 C2457 1.524 . S
C2458 C2459 1.415 . S
C2459 H2429 0.950 . S
C2459 C2454 1.363 . S
C2459 C2458 1.415 . S
H2460 C2457 0.999 . S
H2461 C2442 0.913 . S
H2462 C2480 0.951 . S
H2463 C2482 0.951 . S
H2464 C2484 0.950 . S
H2465 C2485 0.950 . S
H2466 C2487 0.950 . S
H2467 C2490 0.950 . S
H2468 C2491 0.950 . S
H2469 C2493 0.950 . S
H2470 C2494 0.950 . S
H2471 C2495 0.951 . S
H2472 C2497 0.951 . S
H2473 C2499 0.950 . S
H2474 C2500 0.950 . S
H2475 C2502 0.950 . S
H2476 C2505 0.950 . S
H2477 C2506 0.950 . S
H2478 C2508 0.950 . S
H2479 C2509 0.950 . S
C2480 H2462 0.951 . S
C2480 C2481 1.366 . S
C2480 C2482 1.388 . S
C2481 C2480 1.366 . S
C2481 C2485 1.385 . S
C2482 H2463 0.951 . S
C2482 C2480 1.388 . S
C2482 C2483 1.366 . S
C2483 C2482 1.366 . S
C2483 C2484 1.414 . S
C2483 C2486 1.499 . S
C2484 H2464 0.950 . S
C2484 C2483 1.414 . S
C2484 C2485 1.374 . S
C2485 H2465 0.950 . S
C2485 C2481 1.385 . S
C2485 C2484 1.374 . S
C2486 C2483 1.499 . S
C2486 C2487 1.373 . S
C2486 C2488 1.389 . S
C2487 H2466 0.950 . S
C2487 C2486 1.373 . S
C2487 C2503 1.377 . S
C2488 C2486 1.389 . S
C2488 C2489 1.524 . S
C2488 C2502 1.377 . S
C2489 C2488 1.524 . S
C2489 C2490 1.397 . S
C2489 C2494 1.363 . S
C2490 H2467 0.950 . S
C2490 C2489 1.397 . S
C2490 C2491 1.334 . S
C2491 H2468 0.950 . S
C2491 C2490 1.334 . S
C2491 C2492 1.287 . S
C2492 C2491 1.287 . S
C2492 C2493 1.524 . S
C2492 H2511 0.913 . S
C2493 H2469 0.950 . S
C2493 C2492 1.524 . S
C2493 C2494 1.415 . S
C2494 H2470 0.950 . S
C2494 C2489 1.363 . S
C2494 C2493 1.415 . S
C2495 H2471 0.951 . S
C2495 C2496 1.366 . S
C2495 C2497 1.388 . S
C2496 C2495 1.366 . S
C2496 C2500 1.385 . S
C2497 H2472 0.951 . S
C2497 C2495 1.388 . S
C2497 C2498 1.366 . S
C2498 C2497 1.366 . S
C2498 C2499 1.414 . S
C2498 C2501 1.499 . S
C2499 H2473 0.950 . S
C2499 C2498 1.414 . S
C2499 C2500 1.374 . S
C2500 H2474 0.950 . S
C2500 C2496 1.385 . S
C2500 C2499 1.374 . S
C2501 C2498 1.499 . S
C2501 C2502 1.373 . S
C2501 C2503 1.389 . S
C2502 H2475 0.950 . S
C2502 C2488 1.377 . S
C2502 C2501 1.373 . S
C2503 C2487 1.377 . S
C2503 C2501 1.389 . S
C2503 C2504 1.524 . S
C2504 C2503 1.524 . S
C2504 C2505 1.397 . S
C2504 C2509 1.363 . S
C2505 H2476 0.950 . S
C2505 C2504 1.397 . S
C2505 C2506 1.334 . S
C2506 H2477 0.950 . S
C2506 C2505 1.334 . S
C2506 C2507 1.287 . S
C2507 C2506 1.287 . S
C2507 C2508 1.524 . S
C2507 H2510 0.999 . S
C2508 H2478 0.950 . S
C2508 C2507 1.524 . S
C2508 C2509 1.415 . S
C2509 H2479 0.950 . S
C2509 C2504 1.363 . S
C2509 C2508 1.415 . S
H2510 C2507 0.999 . S
H2511 C2492 0.913 . S
H2512 C2530 0.951 . S
H2513 C2532 0.951 . S
H2514 C2534 0.950 . S
H2515 C2535 0.950 . S
H2516 C2537 0.950 . S
H2517 C2540 0.950 . S
H2518 C2541 0.950 . S
H2519 C2543 0.950 . S
H2520 C2544 0.950 . S
H2521 C2545 0.951 . S
H2522 C2547 0.951 . S
H2523 C2549 0.950 . S
H2524 C2550 0.950 . S
H2525 C2552 0.950 . S
H2526 C2555 0.950 . S
H2527 C2556 0.950 . S
H2528 C2558 0.950 . S
H2529 C2559 0.950 . S
C2530 H2512 0.951 . S
C2530 C2531 1.366 . S
C2530 C2532 1.388 . S
C2531 C2530 1.366 . S
C2531 C2535 1.385 . S
C2532 H2513 0.951 . S
C2532 C2530 1.388 . S
C2532 C2533 1.366 . S
C2533 C2532 1.366 . S
C2533 C2534 1.414 . S
C2533 C2536 1.499 . S
C2534 H2514 0.950 . S
C2534 C2533 1.414 . S
C2534 C2535 1.374 . S
C2535 H2515 0.950 . S
C2535 C2531 1.385 . S
C2535 C2534 1.374 . S
C2536 C2533 1.499 . S
C2536 C2537 1.373 . S
C2536 C2538 1.389 . S
C2537 H2516 0.950 . S
C2537 C2536 1.373 . S
C2537 C2553 1.377 . S
C2538 C2536 1.389 . S
C2538 C2539 1.524 . S
C2538 C2552 1.377 . S
C2539 C2538 1.524 . S
C2539 C2540 1.397 . S
C2539 C2544 1.363 . S
C2540 H2517 0.950 . S
C2540 C2539 1.397 . S
C2540 C2541 1.334 . S
C2541 H2518 0.950 . S
C2541 C2540 1.334 . S
C2541 C2542 1.287 . S
C2542 C2541 1.287 . S
C2542 C2543 1.524 . S
C2542 H2561 0.913 . S
C2543 H2519 0.950 . S
C2543 C2542 1.524 . S
C2543 C2544 1.415 . S
C2544 H2520 0.950 . S
C2544 C2539 1.363 . S
C2544 C2543 1.415 . S
C2545 H2521 0.951 . S
C2545 C2546 1.366 . S
C2545 C2547 1.388 . S
C2546 C2545 1.366 . S
C2546 C2550 1.385 . S
C2547 H2522 0.951 . S
C2547 C2545 1.388 . S
C2547 C2548 1.366 . S
C2548 C2547 1.366 . S
C2548 C2549 1.414 . S
C2548 C2551 1.499 . S
C2549 H2523 0.950 . S
C2549 C2548 1.414 . S
C2549 C2550 1.374 . S
C2550 H2524 0.950 . S
C2550 C2546 1.385 . S
C2550 C2549 1.374 . S
C2551 C2548 1.499 . S
C2551 C2552 1.373 . S
C2551 C2553 1.389 . S
C2552 H2525 0.950 . S
C2552 C2538 1.377 . S
C2552 C2551 1.373 . S
C2553 C2537 1.377 . S
C2553 C2551 1.389 . S
C2553 C2554 1.524 . S
C2554 C2553 1.524 . S
C2554 C2555 1.397 . S
C2554 C2559 1.363 . S
C2555 H2526 0.950 . S
C2555 C2554 1.397 . S
C2555 C2556 1.334 . S
C2556 H2527 0.950 . S
C2556 C2555 1.334 . S
C2556 C2557 1.287 . S
C2557 C2556 1.287 . S
C2557 C2558 1.524 . S
C2557 H2560 0.999 . S
C2558 H2528 0.950 . S
C2558 C2557 1.524 . S
C2558 C2559 1.415 . S
C2559 H2529 0.950 . S
C2559 C2554 1.363 . S
C2559 C2558 1.415 . S
H2560 C2557 0.999 . S
H2561 C2542 0.913 . S
H2562 C2580 0.951 . S
H2563 C2582 0.951 . S
H2564 C2584 0.950 . S
H2565 C2585 0.950 . S
H2566 C2587 0.950 . S
H2567 C2590 0.950 . S
H2568 C2591 0.950 . S
H2569 C2593 0.950 . S
H2570 C2594 0.950 . S
H2571 C2595 0.951 . S
H2572 C2597 0.951 . S
H2573 C2599 0.950 . S
H2574 C2600 0.950 . S
H2575 C2602 0.950 . S
H2576 C2605 0.950 . S
H2577 C2606 0.950 . S
H2578 C2608 0.950 . S
H2579 C2609 0.950 . S
C2580 H2562 0.951 . S
C2580 C2581 1.366 . S
C2580 C2582 1.388 . S
C2581 C2580 1.366 . S
C2581 C2585 1.385 . S
C2582 H2563 0.951 . S
C2582 C2580 1.388 . S
C2582 C2583 1.366 . S
C2583 C2582 1.366 . S
C2583 C2584 1.414 . S
C2583 C2586 1.499 . S
C2584 H2564 0.950 . S
C2584 C2583 1.414 . S
C2584 C2585 1.374 . S
C2585 H2565 0.950 . S
C2585 C2581 1.385 . S
C2585 C2584 1.374 . S
C2586 C2583 1.499 . S
C2586 C2587 1.373 . S
C2586 C2588 1.389 . S
C2587 H2566 0.950 . S
C2587 C2586 1.373 . S
C2587 C2603 1.377 . S
C2588 C2586 1.389 . S
C2588 C2589 1.524 . S
C2588 C2602 1.377 . S
C2589 C2588 1.524 . S
C2589 C2590 1.397 . S
C2589 C2594 1.363 . S
C2590 H2567 0.950 . S
C2590 C2589 1.397 . S
C2590 C2591 1.334 . S
C2591 H2568 0.950 . S
C2591 C2590 1.334 . S
C2591 C2592 1.287 . S
C2592 C2591 1.287 . S
C2592 C2593 1.524 . S
C2592 H2611 0.913 . S
C2593 H2569 0.950 . S
C2593 C2592 1.524 . S
C2593 C2594 1.415 . S
C2594 H2570 0.950 . S
C2594 C2589 1.363 . S
C2594 C2593 1.415 . S
C2595 H2571 0.951 . S
C2595 C2596 1.366 . S
C2595 C2597 1.388 . S
C2596 C2595 1.366 . S
C2596 C2600 1.385 . S
C2597 H2572 0.951 . S
C2597 C2595 1.388 . S
C2597 C2598 1.366 . S
C2598 C2597 1.366 . S
C2598 C2599 1.414 . S
C2598 C2601 1.499 . S
C2599 H2573 0.950 . S
C2599 C2598 1.414 . S
C2599 C2600 1.374 . S
C2600 H2574 0.950 . S
C2600 C2596 1.385 . S
C2600 C2599 1.374 . S
C2601 C2598 1.499 . S
C2601 C2602 1.373 . S
C2601 C2603 1.389 . S
C2602 H2575 0.950 . S
C2602 C2588 1.377 . S
C2602 C2601 1.373 . S
C2603 C2587 1.377 . S
C2603 C2601 1.389 . S
C2603 C2604 1.524 . S
C2604 C2603 1.524 . S
C2604 C2605 1.397 . S
C2604 C2609 1.363 . S
C2605 H2576 0.950 . S
C2605 C2604 1.397 . S
C2605 C2606 1.334 . S
C2606 H2577 0.950 . S
C2606 C2605 1.334 . S
C2606 C2607 1.287 . S
C2607 C2606 1.287 . S
C2607 C2608 1.524 . S
C2607 H2610 0.999 . S
C2608 H2578 0.950 . S
C2608 C2607 1.524 . S
C2608 C2609 1.415 . S
C2609 H2579 0.950 . S
C2609 C2604 1.363 . S
C2609 C2608 1.415 . S
H2610 C2607 0.999 . S
H2611 C2592 0.913 . S
H2612 C2630 0.951 . S
H2613 C2632 0.951 . S
H2614 C2634 0.950 . S
H2615 C2635 0.950 . S
H2616 C2637 0.950 . S
H2617 C2640 0.950 . S
H2618 C2641 0.950 . S
H2619 C2643 0.950 . S
H2620 C2644 0.950 . S
H2621 C2645 0.951 . S
H2622 C2647 0.951 . S
H2623 C2649 0.950 . S
H2624 C2650 0.950 . S
H2625 C2652 0.950 . S
H2626 C2655 0.950 . S
H2627 C2656 0.950 . S
H2628 C2658 0.950 . S
H2629 C2659 0.950 . S
C2630 H2612 0.951 . S
C2630 C2631 1.366 . S
C2630 C2632 1.388 . S
C2631 C2630 1.366 . S
C2631 C2635 1.385 . S
C2632 H2613 0.951 . S
C2632 C2630 1.388 . S
C2632 C2633 1.366 . S
C2633 C2632 1.366 . S
C2633 C2634 1.414 . S
C2633 C2636 1.499 . S
C2634 H2614 0.950 . S
C2634 C2633 1.414 . S
C2634 C2635 1.374 . S
C2635 H2615 0.950 . S
C2635 C2631 1.385 . S
C2635 C2634 1.374 . S
C2636 C2633 1.499 . S
C2636 C2637 1.373 . S
C2636 C2638 1.389 . S
C2637 H2616 0.950 . S
C2637 C2636 1.373 . S
C2637 C2653 1.377 . S
C2638 C2636 1.389 . S
C2638 C2639 1.524 . S
C2638 C2652 1.377 . S
C2639 C2638 1.524 . S
C2639 C2640 1.397 . S
C2639 C2644 1.363 . S
C2640 H2617 0.950 . S
C2640 C2639 1.397 . S
C2640 C2641 1.334 . S
C2641 H2618 0.950 . S
C2641 C2640 1.334 . S
C2641 C2642 1.287 . S
C2642 C2641 1.287 . S
C2642 C2643 1.524 . S
C2642 H2661 0.913 . S
C2643 H2619 0.950 . S
C2643 C2642 1.524 . S
C2643 C2644 1.415 . S
C2644 H2620 0.950 . S
C2644 C2639 1.363 . S
C2644 C2643 1.415 . S
C2645 H2621 0.951 . S
C2645 C2646 1.366 . S
C2645 C2647 1.388 . S
C2646 C2645 1.366 . S
C2646 C2650 1.385 . S
C2647 H2622 0.951 . S
C2647 C2645 1.388 . S
C2647 C2648 1.366 . S
C2648 C2647 1.366 . S
C2648 C2649 1.414 . S
C2648 C2651 1.499 . S
C2649 H2623 0.950 . S
C2649 C2648 1.414 . S
C2649 C2650 1.374 . S
C2650 H2624 0.950 . S
C2650 C2646 1.385 . S
C2650 C2649 1.374 . S
C2651 C2648 1.499 . S
C2651 C2652 1.373 . S
C2651 C2653 1.389 . S
C2652 H2625 0.950 . S
C2652 C2638 1.377 . S
C2652 C2651 1.373 . S
C2653 C2637 1.377 . S
C2653 C2651 1.389 . S
C2653 C2654 1.524 . S
C2654 C2653 1.524 . S
C2654 C2655 1.397 . S
C2654 C2659 1.363 . S
C2655 H2626 0.950 . S
C2655 C2654 1.397 . S
C2655 C2656 1.334 . S
C2656 H2627 0.950 . S
C2656 C2655 1.334 . S
C2656 C2657 1.287 . S
C2657 C2656 1.287 . S
C2657 C2658 1.524 . S
C2657 H2660 0.999 . S
C2658 H2628 0.950 . S
C2658 C2657 1.524 . S
C2658 C2659 1.415 . S
C2659 H2629 0.950 . S
C2659 C2654 1.363 . S
C2659 C2658 1.415 . S
H2660 C2657 0.999 . S
H2661 C2642 0.913 . S
H2662 C2680 0.951 . S
H2663 C2682 0.951 . S
H2664 C2684 0.950 . S
H2665 C2685 0.950 . S
H2666 C2687 0.950 . S
H2667 C2690 0.950 . S
H2668 C2691 0.950 . S
H2669 C2693 0.950 . S
H2670 C2694 0.950 . S
H2671 C2695 0.951 . S
H2672 C2697 0.951 . S
H2673 C2699 0.950 . S
H2674 C2700 0.950 . S
H2675 C2702 0.950 . S
H2676 C2705 0.950 . S
H2677 C2706 0.950 . S
H2678 C2708 0.950 . S
H2679 C2709 0.950 . S
C2680 H2662 0.951 . S
C2680 C2681 1.366 . S
C2680 C2682 1.388 . S
C2681 C2680 1.366 . S
C2681 C2685 1.385 . S
C2682 H2663 0.951 . S
C2682 C2680 1.388 . S
C2682 C2683 1.366 . S
C2683 C2682 1.366 . S
C2683 C2684 1.414 . S
C2683 C2686 1.499 . S
C2684 H2664 0.950 . S
C2684 C2683 1.414 . S
C2684 C2685 1.374 . S
C2685 H2665 0.950 . S
C2685 C2681 1.385 . S
C2685 C2684 1.374 . S
C2686 C2683 1.499 . S
C2686 C2687 1.373 . S
C2686 C2688 1.389 . S
C2687 H2666 0.950 . S
C2687 C2686 1.373 . S
C2687 C2703 1.377 . S
C2688 C2686 1.389 . S
C2688 C2689 1.524 . S
C2688 C2702 1.377 . S
C2689 C2688 1.524 . S
C2689 C2690 1.397 . S
C2689 C2694 1.363 . S
C2690 H2667 0.950 . S
C2690 C2689 1.397 . S
C2690 C2691 1.334 . S
C2691 H2668 0.950 . S
C2691 C2690 1.334 . S
C2691 C2692 1.287 . S
C2692 C2691 1.287 . S
C2692 C2693 1.524 . S
C2692 H2711 0.913 . S
C2693 H2669 0.950 . S
C2693 C2692 1.524 . S
C2693 C2694 1.415 . S
C2694 H2670 0.950 . S
C2694 C2689 1.363 . S
C2694 C2693 1.415 . S
C2695 H2671 0.951 . S
C2695 C2696 1.366 . S
C2695 C2697 1.388 . S
C2696 C2695 1.366 . S
C2696 C2700 1.385 . S
C2697 H2672 0.951 . S
C2697 C2695 1.388 . S
C2697 C2698 1.366 . S
C2698 C2697 1.366 . S
C2698 C2699 1.414 . S
C2698 C2701 1.499 . S
C2699 H2673 0.950 . S
C2699 C2698 1.414 . S
C2699 C2700 1.374 . S
C2700 H2674 0.950 . S
C2700 C2696 1.385 . S
C2700 C2699 1.374 . S
C2701 C2698 1.499 . S
C2701 C2702 1.373 . S
C2701 C2703 1.389 . S
C2702 H2675 0.950 . S
C2702 C2688 1.377 . S
C2702 C2701 1.373 . S
C2703 C2687 1.377 . S
C2703 C2701 1.389 . S
C2703 C2704 1.524 . S
C2704 C2703 1.524 . S
C2704 C2705 1.397 . S
C2704 C2709 1.363 . S
C2705 H2676 0.950 . S
C2705 C2704 1.397 . S
C2705 C2706 1.334 . S
C2706 H2677 0.950 . S
C2706 C2705 1.334 . S
C2706 C2707 1.287 . S
C2707 C2706 1.287 . S
C2707 C2708 1.524 . S
C2707 H2710 0.999 . S
C2708 H2678 0.950 . S
C2708 C2707 1.524 . S
C2708 C2709 1.415 . S
C2709 H2679 0.950 . S
C2709 C2704 1.363 . S
C2709 C2708 1.415 . S
H2710 C2707 0.999 . S
H2711 C2692 0.913 . S
C331 C5 1.581 . S
C346 C96 1.581 . S
C381 C109 1.581 . S
C396 C16 1.582 . S
C431 C31 1.581 . S
C446 C120 1.581 . S
C481 C44 1.581 . S
C496 C133 1.581 . S
C531 C148 1.581 . S
C546 C55 1.581 . S
C581 C70 1.581 . S
C596 C81 1.581 . S
C631 C161 1.581 . S
C646 C252 1.581 . S
C681 C172 1.582 . S
C696 C265 1.581 . S
C731 C276 1.581 . S
C746 C185 1.581 . S
C781 C198 1.581 . S
C796 C291 1.581 . S
C831 C211 1.581 . S
C846 C302 1.581 . S
C881 C237 1.581 . S
C896 C224 1.581 . S
C931 C4 1.577 . S
C946 C108 1.577 . S
C981 C127 1.576 . S
C996 C23 1.576 . S
C1031 C140 1.576 . S
C1046 C30 1.576 . S
C1081 C43 1.577 . S
C1096 C147 1.577 . S
C1131 C62 1.577 . S
C1146 C88 1.577 . S
C1181 C69 1.576 . S
C1196 C95 1.576 . S
C1231 C264 1.576 . S
C1246 C160 1.576 . S
C1281 C179 1.576 . S
C1296 C283 1.576 . S
C1331 C290 1.576 . S
C1346 C192 1.576 . S
C1381 C309 1.577 . S
C1396 C205 1.577 . S
C1431 C244 1.577 . S
C1446 C218 1.577 . S
C1481 C231 1.576 . S
C1496 C251 1.576 . S
C1531 C10 1.678 . S
C1546 C199 1.678 . S
C1581 C212 1.679 . S
C1596 C17 1.678 . S
C1631 C225 1.678 . S
C1646 C36 1.679 . S
C1681 C49 1.679 . S
C1696 C166 1.678 . S
C1731 C56 1.679 . S
C1746 C173 1.678 . S
C1781 C186 1.678 . S
C1796 C75 1.678 . S
C1831 C277 1.679 . S
C1846 C82 1.678 . S
C1881 C296 1.679 . S
C1896 C101 1.678 . S
C1931 C303 1.678 . S
C1946 C114 1.679 . S
C1981 C238 1.678 . S
C1996 C121 1.679 . S
C2031 C134 1.678 . S
C2046 C257 1.679 . S
C2081 C153 1.679 . S
C2096 C270 1.679 . S
C2131 C3 1.544 . S
C2146 C135 1.544 . S
C2181 C146 1.544 . S
C2196 C18 1.544 . S
C2231 C83 1.544 . S
C2246 C29 1.543 . S
C2281 C42 1.544 . S
C2296 C94 1.543 . S
C2331 C57 1.544 . S
C2346 C107 1.544 . S
C2381 C68 1.543 . S
C2396 C122 1.543 . S
C2431 C159 1.544 . S
C2446 C289 1.544 . S
C2481 C174 1.544 . S
C2496 C304 1.544 . S
C2531 C187 1.544 . S
C2546 C239 1.544 . S
C2581 C250 1.544 . S
C2596 C200 1.544 . S
C2631 C213 1.544 . S
C2646 C263 1.544 . S
C2681 C226 1.543 . S
C2696 C278 1.543 . S
