# Generated by pormake.
# Topology crs, (6)-cn, num edge types: 1
# Building blocks:
#     Node 0, Type 0, BuildingBlock: HISSIN_clean_sbu_0, # of connection points: 6
#     Node 1, Type 0, BuildingBlock: HISSIN_clean_sbu_0, # of connection points: 6
#     Node 2, Type 0, BuildingBlock: HISSIN_clean_sbu_0, # of connection points: 6
#     Node 3, Type 0, BuildingBlock: HISSIN_clean_sbu_0, # of connection points: 6
#     Node 4, Type 0, BuildingBlock: HISSIN_clean_sbu_0, # of connection points: 6
#     Node 5, Type 0, BuildingBlock: HISSIN_clean_sbu_0, # of connection points: 6
#     Node 6, Type 0, BuildingBlock: HISSIN_clean_sbu_0, # of connection points: 6
#     Node 7, Type 0, BuildingBlock: HISSIN_clean_sbu_0, # of connection points: 6
#     Node 8, Type 0, BuildingBlock: HISSIN_clean_sbu_0, # of connection points: 6
#     Node 9, Type 0, BuildingBlock: HISSIN_clean_sbu_0, # of connection points: 6
#     Node 10, Type 0, BuildingBlock: HISSIN_clean_sbu_0, # of connection points: 6
#     Node 11, Type 0, BuildingBlock: HISSIN_clean_sbu_0, # of connection points: 6
#     Node 12, Type 0, BuildingBlock: HISSIN_clean_sbu_0, # of connection points: 6
#     Node 13, Type 0, BuildingBlock: HISSIN_clean_sbu_0, # of connection points: 6
#     Node 14, Type 0, BuildingBlock: HISSIN_clean_sbu_0, # of connection points: 6
#     Node 15, Type 0, BuildingBlock: HISSIN_clean_sbu_0, # of connection points: 6
#     Edge 16, Type (0, 0), BuildingBlock: EZIPEK_clean_linker_0, # of connection points: 2
#     Edge 17, Type (0, 0), BuildingBlock: EZIPEK_clean_linker_0, # of connection points: 2
#     Edge 18, Type (0, 0), BuildingBlock: EZIPEK_clean_linker_0, # of connection points: 2
#     Edge 19, Type (0, 0), BuildingBlock: EZIPEK_clean_linker_0, # of connection points: 2
#     Edge 20, Type (0, 0), BuildingBlock: EZIPEK_clean_linker_0, # of connection points: 2
#     Edge 21, Type (0, 0), BuildingBlock: EZIPEK_clean_linker_0, # of connection points: 2
#     Edge 22, Type (0, 0), BuildingBlock: EZIPEK_clean_linker_0, # of connection points: 2
#     Edge 23, Type (0, 0), BuildingBlock: EZIPEK_clean_linker_0, # of connection points: 2
#     Edge 24, Type (0, 0), BuildingBlock: EZIPEK_clean_linker_0, # of connection points: 2
#     Edge 25, Type (0, 0), BuildingBlock: EZIPEK_clean_linker_0, # of connection points: 2
#     Edge 26, Type (0, 0), BuildingBlock: EZIPEK_clean_linker_0, # of connection points: 2
#     Edge 27, Type (0, 0), BuildingBlock: EZIPEK_clean_linker_0, # of connection points: 2
#     Edge 28, Type (0, 0), BuildingBlock: EZIPEK_clean_linker_0, # of connection points: 2
#     Edge 29, Type (0, 0), BuildingBlock: EZIPEK_clean_linker_0, # of connection points: 2
#     Edge 30, Type (0, 0), BuildingBlock: EZIPEK_clean_linker_0, # of connection points: 2
#     Edge 31, Type (0, 0), BuildingBlock: EZIPEK_clean_linker_0, # of connection points: 2
#     Edge 32, Type (0, 0), BuildingBlock: EZIPEK_clean_linker_0, # of connection points: 2
#     Edge 33, Type (0, 0), BuildingBlock: EZIPEK_clean_linker_0, # of connection points: 2
#     Edge 34, Type (0, 0), BuildingBlock: EZIPEK_clean_linker_0, # of connection points: 2
#     Edge 35, Type (0, 0), BuildingBlock: EZIPEK_clean_linker_0, # of connection points: 2
#     Edge 36, Type (0, 0), BuildingBlock: EZIPEK_clean_linker_0, # of connection points: 2
#     Edge 37, Type (0, 0), BuildingBlock: EZIPEK_clean_linker_0, # of connection points: 2
#     Edge 38, Type (0, 0), BuildingBlock: EZIPEK_clean_linker_0, # of connection points: 2
#     Edge 39, Type (0, 0), BuildingBlock: EZIPEK_clean_linker_0, # of connection points: 2
#     Edge 40, Type (0, 0), BuildingBlock: EZIPEK_clean_linker_0, # of connection points: 2
#     Edge 41, Type (0, 0), BuildingBlock: EZIPEK_clean_linker_0, # of connection points: 2
#     Edge 42, Type (0, 0), BuildingBlock: EZIPEK_clean_linker_0, # of connection points: 2
#     Edge 43, Type (0, 0), BuildingBlock: EZIPEK_clean_linker_0, # of connection points: 2
#     Edge 44, Type (0, 0), BuildingBlock: EZIPEK_clean_linker_0, # of connection points: 2
#     Edge 45, Type (0, 0), BuildingBlock: EZIPEK_clean_linker_0, # of connection points: 2
#     Edge 46, Type (0, 0), BuildingBlock: EZIPEK_clean_linker_0, # of connection points: 2
#     Edge 47, Type (0, 0), BuildingBlock: EZIPEK_clean_linker_0, # of connection points: 2
#     Edge 48, Type (0, 0), BuildingBlock: EZIPEK_clean_linker_0, # of connection points: 2
#     Edge 49, Type (0, 0), BuildingBlock: EZIPEK_clean_linker_0, # of connection points: 2
#     Edge 50, Type (0, 0), BuildingBlock: EZIPEK_clean_linker_0, # of connection points: 2
#     Edge 51, Type (0, 0), BuildingBlock: EZIPEK_clean_linker_0, # of connection points: 2
#     Edge 52, Type (0, 0), BuildingBlock: EZIPEK_clean_linker_0, # of connection points: 2
#     Edge 53, Type (0, 0), BuildingBlock: EZIPEK_clean_linker_0, # of connection points: 2
#     Edge 54, Type (0, 0), BuildingBlock: EZIPEK_clean_linker_0, # of connection points: 2
#     Edge 55, Type (0, 0), BuildingBlock: EZIPEK_clean_linker_0, # of connection points: 2
#     Edge 56, Type (0, 0), BuildingBlock: EZIPEK_clean_linker_0, # of connection points: 2
#     Edge 57, Type (0, 0), BuildingBlock: EZIPEK_clean_linker_0, # of connection points: 2
#     Edge 58, Type (0, 0), BuildingBlock: EZIPEK_clean_linker_0, # of connection points: 2
#     Edge 59, Type (0, 0), BuildingBlock: EZIPEK_clean_linker_0, # of connection points: 2
#     Edge 60, Type (0, 0), BuildingBlock: EZIPEK_clean_linker_0, # of connection points: 2
#     Edge 61, Type (0, 0), BuildingBlock: EZIPEK_clean_linker_0, # of connection points: 2
#     Edge 62, Type (0, 0), BuildingBlock: EZIPEK_clean_linker_0, # of connection points: 2
#     Edge 63, Type (0, 0), BuildingBlock: EZIPEK_clean_linker_0, # of connection points: 2
# Relax obj value: 0.565
# Max RMSD: 0.397
# Mean RMSD: 0.338
data_MOF--net-crs--node1-HISSIN_clean_sbu_0--edge1-EZIPEK_clean_linker_0
_symmetry_space_group_name_H-M    P1
_symmetry_Int_Tables_number       1
_symmetry_cell_setting            triclinic
loop_
_symmetry_equiv_pos_as_xyz
'x, y, z'
_cell_length_a     41.671583
_cell_length_b     46.319654
_cell_length_c     33.469667
_cell_angle_alpha  70.390996
_cell_angle_beta   71.111357
_cell_angle_gamma 60.690149
loop_
_atom_site_label
_atom_site_type_symbol
_atom_site_fract_x
_atom_site_fract_y
_atom_site_fract_z
_atom_type_partial_charge
Eu0 Eu 0.96867 0.99759 0.07283 0.0
Eu1 Eu 0.96909 0.0534 0.98132 0.0
C2 C 0.89408 0.04426 0.03495 0.0
C3 C 0.94895 0.92731 0.15109 0.0
C4 C 0.91141 0.9356 0.17251 0.0
C5 C 0.94951 0.88153 0.13023 0.0
C6 C 0.89259 0.91823 0.17077 0.0
C7 C 0.96832 0.89906 0.13164 0.0
C8 C 0.91122 0.892 0.14823 0.0
C9 C 0.96507 0.95153 0.14236 0.0
O10 O -0.02271 0.07138 0.03054 0.0
O11 O 0.94702 0.04734 0.09188 0.0
C12 C 0.95954 0.07048 0.07081 0.0
O13 O 0.02324 1.001 0.05748 0.0
O14 O 0.94651 0.10618 0.9465 0.0
O15 O -0.00654 0.06822 0.91369 0.0
O16 O 0.02924 1.0166 0.98409 0.0
C17 C 0.04389 1.00399 0.01867 0.0
O18 O -0.01166 0.96963 0.01924 0.0
O19 O 0.96268 1.01352 0.96422 0.0
O20 O 0.90833 0.06605 1.0124 0.0
O21 O -0.00457 0.94736 0.11249 0.0
O22 O 0.94094 0.98335 0.13861 0.0
O23 O 0.91597 1.01321 0.0512 0.0
C24 C -0.00304 0.11885 0.90564 0.0
C25 C 0.01753 0.11071 0.93686 0.0
C26 C 0.01983 0.16144 0.8631 0.0
C27 C 0.03881 0.12773 0.93159 0.0
C28 C -0.00187 0.14435 0.86861 0.0
C29 C 0.04015 0.15317 0.89479 0.0
C30 C -0.02571 0.10052 0.91346 0.0
C31 C -0.02257 0.98098 0.98196 0.0
H32 H 0.89581 0.95705 0.18801 0.0
H33 H 0.9642 0.86114 0.11292 0.0
H34 H 0.86301 0.92639 0.185 0.0
H35 H -0.00269 0.8918 0.11511 0.0
H36 H 0.01733 0.09094 0.96538 0.0
H37 H 0.02073 0.18105 0.83442 0.0
H38 H 0.05441 0.12097 0.95623 0.0
H39 H -0.01762 0.15098 0.84422 0.0
Eu40 Eu -0.00716 0.28756 0.29425 0.0
Eu41 Eu 0.95271 0.27569 0.23422 0.0
C42 C 0.92261 0.35 0.2535 0.0
C43 C 0.01577 0.32888 0.35726 0.0
C44 C 0.00165 0.32839 0.40167 0.0
C45 C 0.01716 0.38288 0.34778 0.0
C46 C -0.00469 0.35486 0.4189 0.0
C47 C 0.02341 0.35651 0.33051 0.0
C48 C 0.00322 0.38218 0.39209 0.0
C49 C 0.02378 0.30009 0.33944 0.0
O50 O -0.01347 0.30396 0.18969 0.0
O51 O 0.03186 0.27968 0.22998 0.0
C52 C 0.02096 0.29463 0.19273 0.0
O53 O 0.01137 0.23093 0.30744 0.0
O54 O 0.95168 0.27144 0.17175 0.0
O55 O 0.91063 0.26301 0.2276 0.0
O56 O 0.00767 0.2294 0.24178 0.0
C57 C 0.02116 0.21409 0.2775 0.0
O58 O 0.93663 0.29078 0.33355 0.0
O59 O 0.93178 0.2555 0.30401 0.0
O60 O 0.91395 0.3289 0.24543 0.0
O61 O 0.00172 0.28476 0.35679 0.0
O62 O 0.03282 0.30378 0.29751 0.0
O63 O 0.95472 0.34022 0.2641 0.0
C64 C 0.93168 0.23049 0.17465 0.0
C65 C 0.96736 0.20942 0.15464 0.0
C66 C 0.90603 0.19576 0.16694 0.0
C67 C -0.02791 0.18224 0.14014 0.0
C68 C 0.90122 0.22311 0.18107 0.0
C69 C 0.94136 0.17547 0.14568 0.0
C70 C 0.92532 0.26094 0.18729 0.0
C71 C 0.92209 0.27068 0.33562 0.0
H72 H -0.0042 0.30738 0.42319 0.0
H73 H 0.0235 0.40374 0.32664 0.0
H74 H -0.01536 0.35387 0.45323 0.0
H75 H 0.03455 0.3577 0.29622 0.0
H76 H -0.0085 0.21424 0.14949 0.0
H77 H 0.882 0.19092 0.17156 0.0
H78 H -0.00041 0.16682 0.12394 0.0
H79 H 0.87349 0.23891 0.19639 0.0
Eu80 Eu 0.73184 0.29026 0.55696 0.0
Eu81 Eu 0.71507 0.27226 0.48039 0.0
C82 C 0.7979 0.26566 0.47391 0.0
C83 C 0.76663 0.32165 0.61993 0.0
C84 C 0.79136 0.33067 0.58388 0.0
C85 C 0.7855 0.34006 0.66482 0.0
C86 C 0.81327 0.34413 0.58841 0.0
C87 C 0.76365 0.32659 0.66029 0.0
C88 C 0.81058 0.34867 0.62898 0.0
C89 C 0.7451 0.30562 0.61651 0.0
O90 O 0.72153 0.22465 0.53592 0.0
O91 O 0.73517 0.23671 0.5882 0.0
C92 C 0.72922 0.2162 0.57488 0.0
O93 O 0.67432 0.29195 0.58236 0.0
O94 O 0.72914 0.23801 0.4397 0.0
O95 O 0.68129 0.28711 0.43276 0.0
O96 O 0.65789 0.29773 0.51997 0.0
C97 C 0.64964 0.2974 0.56132 0.0
O98 O 0.7138 0.34085 0.50628 0.0
O99 O 0.71995 0.32269 0.44734 0.0
O100 O 0.77561 0.26226 0.45764 0.0
O101 O 0.71632 0.32523 0.59759 0.0
O102 O 0.76486 0.27668 0.60457 0.0
O103 O 0.78778 0.27426 0.51119 0.0
C104 C 0.67848 0.2425 0.41739 0.0
C105 C 0.66594 0.22163 0.45352 0.0
C106 C 0.65064 0.2327 0.37273 0.0
C107 C 0.64613 0.20609 0.44911 0.0
C108 C 0.6705 0.24816 0.37713 0.0
C109 C 0.63865 0.21138 0.40861 0.0
C110 C 0.70039 0.25814 0.42086 0.0
C111 C 0.71553 0.34676 0.46422 0.0
H112 H 0.79403 0.32687 0.55252 0.0
H113 H 0.78315 0.34348 0.69628 0.0
H114 H 0.8325 0.35074 0.56047 0.0
H115 H 0.74477 0.31962 0.68841 0.0
H116 H 0.67183 0.2171 0.48487 0.0
H117 H 0.645 0.237 0.34132 0.0
H118 H 0.63698 0.18969 0.47707 0.0
H119 H 0.67995 0.26427 0.34901 0.0
Eu120 Eu 0.72216 1.01617 0.73188 0.0
Eu121 Eu 0.73069 0.04342 0.80371 0.0
C122 C 0.65187 0.07865 0.77152 0.0
C123 C 0.69823 0.9944 0.64487 0.0
C124 C 0.6592 1.01309 0.64927 0.0
C125 C 0.6996 0.97369 0.58647 0.0
C126 C 0.64035 1.0111 0.6233 0.0
C127 C 0.71843 0.97564 0.61245 0.0
C128 C 0.66041 0.99054 0.59279 0.0
C129 C 0.71781 0.98982 0.67731 0.0
O130 O 0.70928 1.00257 0.84438 0.0
O131 O 0.72877 0.97293 0.79252 0.0
C132 C 0.71746 0.9743 0.83377 0.0
O133 O 0.78407 0.99 0.73136 0.0
O134 O 0.70948 0.059 0.86566 0.0
O135 O 0.76044 0.06211 0.82352 0.0
O136 O 0.78478 0.99631 0.79581 0.0
C137 C 0.8004 0.98013 0.76413 0.0
O138 O 0.7222 0.06764 0.69273 0.0
O139 O 0.74095 0.08022 0.73964 0.0
O140 O 0.67432 0.08103 0.78862 0.0
O141 O 0.73888 1.00574 0.66722 0.0
O142 O 0.69953 0.98841 0.71729 0.0
O143 O 0.66233 0.05291 0.75431 0.0
C144 C 0.75381 0.05666 0.89843 0.0
C145 C 0.79223 0.03582 0.89783 0.0
C146 C 0.74809 0.06975 0.96549 0.0
C147 C 0.80871 0.03319 0.92991 0.0
C148 C 0.73164 0.07259 0.93325 0.0
C149 C 0.78693 0.05119 0.96289 0.0
C150 C 0.7374 0.06613 0.86061 0.0
C151 C 0.73209 0.08757 0.70168 0.0
H152 H 0.64318 0.02767 0.67419 0.0
H153 H 0.71531 0.95766 0.56311 0.0
H154 H 0.61001 1.02415 0.62845 0.0
H155 H 0.74856 0.96096 0.60888 0.0
H156 H 0.80987 1.02311 0.87141 0.0
H157 H 0.73101 0.08372 0.99089 0.0
H158 H 0.83876 1.01866 0.92771 0.0
H159 H 0.70198 0.0888 0.93419 0.0
Eu160 Eu 0.48791 0.78549 0.29367 0.0
Eu161 Eu 0.4536 0.77279 0.22562 0.0
C162 C 0.41599 0.84701 0.25041 0.0
C163 C 0.50791 0.8238 0.36492 0.0
C164 C 0.47811 0.85631 0.35899 0.0
C165 C 0.52615 0.83987 0.41337 0.0
C166 C 0.47279 0.8806 0.37958 0.0
C167 C 0.53151 0.81566 0.39271 0.0
C168 C 0.49712 0.87266 0.40647 0.0
C169 C 0.51731 0.79935 0.33917 0.0
O170 O 0.48578 0.80313 0.18431 0.0
O171 O 0.52727 0.78307 0.22859 0.0
C172 C 0.51836 0.79659 0.19025 0.0
O173 O 0.51631 0.72861 0.29934 0.0
O174 O 0.46042 0.76143 0.16456 0.0
O175 O 0.40888 0.76778 0.21159 0.0
O176 O 0.50734 0.72625 0.23607 0.0
C177 C 0.5239 0.7122 0.26958 0.0
O178 O 0.43481 0.78134 0.33331 0.0
O179 O 0.43064 0.75141 0.29392 0.0
O180 O 0.41892 0.82824 0.22624 0.0
O181 O 0.50263 0.77755 0.35513 0.0
O182 O 0.51781 0.81149 0.2978 0.0
O183 O 0.43797 0.83522 0.27832 0.0
C184 C 0.43001 0.72993 0.16544 0.0
C185 C 0.44808 0.69704 0.18928 0.0
C186 C 0.42106 0.70625 0.11737 0.0
C187 C 0.45284 0.66888 0.17696 0.0
C188 C 0.41616 0.73433 0.1298 0.0
C189 C 0.43992 0.67332 0.14042 0.0
C190 C 0.4285 0.75957 0.17455 0.0
C191 C 0.42044 0.76318 0.3289 0.0
H192 H 0.45965 0.86315 0.33756 0.0
H193 H 0.54517 0.83329 0.43398 0.0
H194 H 0.45021 0.90577 0.37389 0.0
H195 H 0.55481 0.79085 0.39746 0.0
H196 H 0.4593 0.69316 0.21665 0.0
H197 H 0.41089 0.71014 0.08915 0.0
H198 H 0.46746 0.64363 0.19512 0.0
H199 H 0.40244 0.7595 0.11083 0.0
Eu200 Eu 0.23616 0.78254 0.54777 0.0
Eu201 Eu 0.21219 0.76677 0.47696 0.0
C202 C 0.29502 0.75562 0.46478 0.0
C203 C 0.2795 0.80569 0.61226 0.0
C204 C 0.28699 0.83152 0.58021 0.0
C205 C 0.31092 0.80915 0.65886 0.0
C206 C 0.30615 0.84635 0.58773 0.0
C207 C 0.29175 0.79444 0.65139 0.0
C208 C 0.31794 0.83533 0.62722 0.0
C209 C 0.25872 0.79016 0.60611 0.0
O210 O 0.21067 0.72331 0.53561 0.0
O211 O 0.24478 0.72686 0.574 0.0
C212 C 0.22816 0.7108 0.56839 0.0
O213 O 0.1772 0.78819 0.57757 0.0
O214 O 0.22127 0.73204 0.43925 0.0
O215 O 0.18099 0.78455 0.42586 0.0
O216 O 0.15665 0.78921 0.52083 0.0
C217 C 0.15086 0.7916 0.56073 0.0
O218 O 0.21724 0.83458 0.5005 0.0
O219 O 0.21874 0.81685 0.4433 0.0
O220 O 0.27514 0.74003 0.46775 0.0
O221 O 0.22632 0.81056 0.5946 0.0
O222 O 0.27823 0.7651 0.58607 0.0
O223 O 0.28273 0.7776 0.48874 0.0
C224 C 0.168 0.74364 0.41522 0.0
C225 C 0.13113 0.75501 0.43924 0.0
C226 C 0.15445 0.71099 0.38476 0.0
C227 C 0.10596 0.74473 0.43556 0.0
C228 C 0.17948 0.72154 0.38808 0.0
C229 C 0.11754 0.72259 0.40838 0.0
C230 C 0.19485 0.75454 0.41785 0.0
C231 C 0.21632 0.84071 0.45916 0.0
H232 H 0.2778 0.84032 0.54974 0.0
H233 H 0.31993 0.80043 0.68943 0.0
H234 H 0.31148 0.86655 0.56305 0.0
H235 H 0.28621 0.77442 0.67633 0.0
H236 H 0.12177 0.77187 0.46068 0.0
H237 H 0.16376 0.69391 0.36363 0.0
H238 H 0.07754 0.75387 0.45399 0.0
H239 H 0.20782 0.71248 0.36941 0.0
Eu240 Eu 0.21334 0.51463 0.73077 0.0
Eu241 Eu 0.23251 0.53866 0.79924 0.0
C242 C 0.14873 0.5773 0.7743 0.0
C243 C 0.18722 0.50307 0.63673 0.0
C244 C 0.14805 0.51836 0.64096 0.0
C245 C 0.19415 0.49622 0.56505 0.0
C246 C 0.13213 0.5214 0.60814 0.0
C247 C 0.21013 0.49292 0.59807 0.0
C248 C 0.15511 0.50932 0.57074 0.0
C249 C 0.20465 0.49333 0.67385 0.0
O250 O 0.22648 0.48939 0.83954 0.0
O251 O 0.20826 0.4754 0.79336 0.0
C252 C 0.21652 0.46916 0.83123 0.0
O253 O 0.27243 0.47748 0.7386 0.0
O254 O 0.21443 0.55119 0.86272 0.0
O255 O 0.26302 0.5574 0.81783 0.0
O256 O 0.28977 0.50035 0.77476 0.0
C257 C 0.29732 0.4769 0.75511 0.0
O258 O 0.22034 0.56321 0.68979 0.0
O259 O 0.23553 0.57895 0.73697 0.0
O260 O 0.17322 0.57566 0.79252 0.0
O261 O 0.23228 0.50112 0.66787 0.0
O262 O 0.18282 0.49608 0.71185 0.0
O263 O 0.15644 0.55464 0.75317 0.0
C264 C 0.25923 0.55097 0.89266 0.0
C265 C 0.2984 0.53457 0.88879 0.0
C266 C 0.25299 0.56253 0.96109 0.0
C267 C 0.31473 0.53342 0.92004 0.0
C268 C 0.23664 0.56383 0.92975 0.0
C269 C 0.2921 0.54853 0.9554 0.0
C270 C 0.2416 0.55973 0.85609 0.0
C271 C 0.22853 0.58441 0.6986 0.0
H272 H 0.12971 0.52652 0.67033 0.0
H273 H 0.21214 0.48692 0.53622 0.0
H274 H 0.10188 0.53178 0.61273 0.0
H275 H 0.24041 0.48092 0.59426 0.0
H276 H 0.31644 0.52437 0.86055 0.0
H277 H 0.23527 0.57436 0.98822 0.0
H278 H 0.34503 0.5225 0.91539 0.0
H279 H 0.20639 0.57671 0.9332 0.0
Eu280 Eu 0.97089 0.50612 0.55741 0.0
Eu281 Eu 0.97044 0.56167 0.46527 0.0
C282 C 0.89641 0.55275 0.52046 0.0
C283 C 0.94698 0.4383 0.63097 0.0
C284 C 0.9389 0.43723 0.594 0.0
C285 C 0.91352 0.40416 0.67546 0.0
C286 C 0.91789 0.42028 0.5977 0.0
C287 C 0.93449 0.42144 0.67175 0.0
C288 C 0.90469 0.40403 0.63841 0.0
C289 C 0.9645 0.46042 0.62618 0.0
O290 O -0.02202 0.58208 0.51207 0.0
O291 O 0.95111 0.55612 0.57545 0.0
C292 C 0.96241 0.58005 0.55317 0.0
O293 O 0.02426 0.51087 0.54476 0.0
O294 O 0.94353 0.61311 0.42873 0.0
O295 O -0.0054 0.57684 0.39767 0.0
O296 O 0.03115 0.52843 0.4709 0.0
C297 C 0.04437 0.51713 0.50652 0.0
O298 O -0.00562 0.47771 0.50357 0.0
O299 O 0.96554 0.52031 0.4499 0.0
O300 O 0.91018 0.57495 0.49915 0.0
O301 O -0.00442 0.45551 0.59738 0.0
O302 O 0.94128 0.49248 0.62239 0.0
O303 O 0.91896 0.52151 0.53472 0.0
C304 C -0.01041 0.63227 0.38622 0.0
C305 C 0.02864 0.62094 0.3719 0.0
C306 C -0.0138 0.683 0.39769 0.0
C307 C 0.04638 0.63969 0.3724 0.0
C308 C 0.96839 0.66421 0.39735 0.0
C309 C 0.02537 0.67017 0.38672 0.0
C310 C 0.97198 0.6089 0.39636 0.0
C311 C -0.01788 0.48796 0.46741 0.0
H312 H 0.94778 0.4505 0.56228 0.0
H313 H 0.90329 0.39178 0.70713 0.0
H314 H 0.91113 0.42053 0.56888 0.0
H315 H 0.94002 0.42244 0.70062 0.0
H316 H 0.04582 0.59662 0.36284 0.0
H317 H 0.96966 0.70661 0.40865 0.0
H318 H 0.07669 0.62963 0.36361 0.0
H319 H 0.93826 0.67376 0.40827 0.0
Eu320 Eu 0.2327 0.28445 0.05134 0.0
Eu321 Eu 0.21208 0.26819 0.97519 0.0
C322 C 0.29632 0.26083 0.96807 0.0
C323 C 0.26894 0.3124 0.11758 0.0
C324 C 0.29023 0.32603 0.0819 0.0
C325 C 0.29164 0.32402 0.16596 0.0
C326 C 0.31214 0.33864 0.0883 0.0
C327 C 0.26973 0.31147 0.15955 0.0
C328 C 0.31294 0.33766 0.13037 0.0
C329 C 0.24656 0.29817 0.11192 0.0
O330 O 0.21821 0.22079 0.03078 0.0
O331 O 0.23379 0.23171 0.08247 0.0
C332 C 0.22604 0.21211 0.06969 0.0
O333 O 0.17254 0.29271 0.07513 0.0
O334 O 0.22662 0.23331 0.93492 0.0
O335 O 0.17925 0.28266 0.92693 0.0
O336 O 0.15582 0.28886 0.01847 0.0
C337 C 0.14803 0.29364 0.05759 0.0
O338 O 0.22582 0.33211 0.99599 0.0
O339 O 0.20857 0.32183 0.94511 0.0
O340 O 0.27167 0.26216 0.95031 0.0
O341 O 0.21886 0.31907 0.09159 0.0
O342 O 0.26535 0.26915 0.10013 0.0
O343 O 0.28892 0.26423 1.00781 0.0
C344 C 0.17611 0.2384 0.91138 0.0
C345 C 0.15272 0.22778 0.94767 0.0
C346 C 0.1557 0.22198 0.86574 0.0
C347 C 0.13088 0.21433 0.94295 0.0
C348 C 0.17751 0.23541 0.87047 0.0
C349 C 0.13231 0.21133 0.90195 0.0
C350 C 0.19832 0.25357 0.91533 0.0
C351 C 0.21667 0.3413 0.95767 0.0
H352 H 0.28998 0.32674 0.04931 0.0
H353 H 0.29207 0.32309 0.19857 0.0
H354 H 0.32851 0.34911 0.06056 0.0
H355 H 0.25354 0.30086 0.18737 0.0
H356 H 0.15125 0.23009 0.97945 0.0
H357 H 0.15699 0.21992 0.83391 0.0
H358 H 0.11291 0.20624 0.9712 0.0
H359 H 0.19532 0.24366 0.84216 0.0
Eu360 Eu 0.20303 1.01829 0.23592 0.0
Eu361 Eu 0.22926 0.03963 0.29725 0.0
C362 C 0.14299 0.07927 0.28041 0.0
C363 C 0.17809 1.00578 0.14102 0.0
C364 C 0.13932 1.02143 0.14208 0.0
C365 C 0.18947 0.99216 0.07222 0.0
C366 C 0.12575 1.02103 0.10939 0.0
C367 C 0.20307 0.99239 0.10504 0.0
C368 C 0.15075 1.00509 0.07542 0.0
C369 C 0.1928 0.99765 0.17968 0.0
O370 O 0.22529 0.9892 0.33838 0.0
O371 O 0.19911 0.97823 0.2977 0.0
C372 C 0.21184 0.97024 0.33309 0.0
O373 O 0.26045 0.97834 0.24691 0.0
O374 O 0.21098 0.05334 0.36001 0.0
O375 O 0.26198 0.05562 0.3164 0.0
O376 O 0.28522 1.00604 0.2631 0.0
C377 C 0.2896 0.97998 0.25121 0.0
O378 O 0.20955 0.06719 0.19326 0.0
O379 O 0.23252 0.07997 0.23561 0.0
O380 O 0.17181 0.07991 0.28722 0.0
O381 O 0.22235 1.00242 0.17474 0.0
O382 O 0.16912 1.00392 0.2159 0.0
O383 O 0.14708 0.05365 0.26773 0.0
C384 C 0.2556 0.05281 0.39034 0.0
C385 C 0.29159 1.02689 0.3941 0.0
C386 C 0.25621 0.07468 0.44636 0.0
C387 C 0.31046 1.0259 0.42251 0.0
C388 C 0.23732 0.07562 0.41803 0.0
C389 C 0.29346 0.05081 0.44714 0.0
C390 C 0.23918 0.06048 0.35347 0.0
C391 C 0.22199 0.08668 0.1991 0.0
H392 H 0.11946 0.03197 0.16939 0.0
H393 H 0.20897 0.97968 0.04618 0.0
H394 H 0.09572 0.03113 0.11207 0.0
H395 H 0.23309 0.98001 0.10378 0.0
H396 H 0.30605 1.00907 0.37297 0.0
H397 H 0.24295 0.09419 0.46492 0.0
H398 H 0.33937 1.00746 0.42273 0.0
H399 H 0.20952 0.0958 0.41533 0.0
Eu400 Eu 0.49493 0.28367 0.79098 0.0
Eu401 Eu 0.45307 0.27278 0.73101 0.0
C402 C 0.4236 0.34583 0.75249 0.0
C403 C 0.51547 0.32606 0.85432 0.0
C404 C 0.49524 0.3598 0.8341 0.0
C405 C 0.52128 0.34662 0.90848 0.0
C406 C 0.48869 0.38672 0.85055 0.0
C407 C 0.5281 0.31972 0.89183 0.0
C408 C 0.50184 0.38032 0.88774 0.0
C409 C 0.52511 0.29746 0.8356 0.0
O410 O 0.48721 0.3011 0.68687 0.0
O411 O 0.53311 0.27731 0.72627 0.0
C412 C 0.52169 0.29218 0.68939 0.0
O413 O 0.5229 0.22685 0.79639 0.0
O414 O 0.44998 0.2726 0.66732 0.0
O415 O 0.41077 0.26103 0.72317 0.0
O416 O 0.50595 0.2242 0.73885 0.0
C417 C 0.52641 0.21021 0.7689 0.0
O418 O 0.44029 0.28336 0.83301 0.0
O419 O 0.4313 0.25242 0.80011 0.0
O420 O 0.41411 0.32464 0.7462 0.0
O421 O 0.50489 0.28035 0.85323 0.0
O422 O 0.53228 0.30299 0.79352 0.0
O423 O 0.45675 0.33617 0.7602 0.0
C424 C 0.4312 0.23221 0.66682 0.0
C425 C 0.46716 0.20521 0.66217 0.0
C426 C 0.40844 0.20407 0.64037 0.0
C427 C 0.47376 0.17802 0.64625 0.0
C428 C 0.40189 0.23131 0.65608 0.0
C429 C 0.44446 0.17734 0.63508 0.0
C430 C 0.42402 0.26165 0.68206 0.0
C431 C 0.4236 0.26545 0.8332 0.0
H432 H 0.48506 0.36535 0.8052 0.0
H433 H 0.53165 0.34119 0.93719 0.0
H434 H 0.47364 0.41253 0.83411 0.0
H435 H 0.54377 0.29394 0.90787 0.0
H436 H 0.49017 0.20532 0.67043 0.0
H437 H 0.38553 0.20397 0.63188 0.0
H438 H 0.50173 0.15765 0.64232 0.0
H439 H 0.37399 0.25185 0.6595 0.0
Eu440 Eu -0.00569 0.78197 0.80126 0.0
Eu441 Eu 0.95292 0.77249 0.73872 0.0
C442 C 0.92204 0.84522 0.76228 0.0
C443 C 0.01406 0.82225 0.869 0.0
C444 C 0.00168 0.82123 0.91365 0.0
C445 C 0.01262 0.87761 0.85846 0.0
C446 C -0.00519 0.84805 0.93052 0.0
C447 C 0.01934 0.85083 0.84152 0.0
C448 C 0.00041 0.87635 0.90309 0.0
C449 C 0.02168 0.79316 0.85212 0.0
O450 O 0.00832 0.77177 0.69847 0.0
O451 O 0.0176 0.80183 0.73255 0.0
C452 C 0.02526 0.7892 0.69909 0.0
O453 O 0.03298 0.72992 0.78626 0.0
O454 O 0.94181 0.77854 0.67613 0.0
O455 O 0.9163 0.75287 0.73442 0.0
O456 O -0.00896 0.71953 0.76852 0.0
C457 C 0.02374 0.70931 0.77798 0.0
O458 O 0.95989 0.75355 0.84375 0.0
O459 O 0.91451 0.77791 0.80341 0.0
O460 O 0.92622 0.82928 0.73361 0.0
O461 O -0.00387 0.78177 0.86596 0.0
O462 O 0.03579 0.79366 0.8111 0.0
O463 O 0.94127 0.8304 0.79356 0.0
C464 C 0.93004 0.73465 0.67049 0.0
C465 C 0.96659 0.71538 0.65036 0.0
C466 C 0.90719 0.70254 0.65167 0.0
C467 C -0.02667 0.68979 0.63109 0.0
C468 C 0.90048 0.72801 0.67092 0.0
C469 C 0.94363 0.68317 0.63174 0.0
C470 C 0.92192 0.76108 0.69235 0.0
C471 C 0.92549 0.76284 0.84055 0.0
H472 H -0.00253 0.79953 0.9356 0.0
H473 H 0.01715 0.89923 0.83683 0.0
H474 H -0.01449 0.84659 0.96505 0.0
H475 H 0.02882 0.8525 0.80698 0.0
H476 H -0.01017 0.72006 0.64956 0.0
H477 H 0.88393 0.69786 0.65238 0.0
H478 H 0.00163 0.67518 0.61568 0.0
H479 H 0.87213 0.74249 0.68635 0.0
Eu480 Eu 0.71337 0.51665 0.2309 0.0
Eu481 Eu 0.73142 0.54265 0.29731 0.0
C482 C 0.64794 0.57953 0.27238 0.0
C483 C 0.68856 0.50117 0.13859 0.0
C484 C 0.64957 0.51923 0.14105 0.0
C485 C 0.69461 0.4864 0.07258 0.0
C486 C 0.63315 0.51978 0.11031 0.0
C487 C 0.71103 0.48571 0.10343 0.0
C488 C 0.65552 0.50239 0.07684 0.0
C489 C 0.70573 0.49359 0.17509 0.0
O490 O 0.72409 0.49444 0.33973 0.0
O491 O 0.70816 0.47801 0.2942 0.0
C492 C 0.715 0.47318 0.33241 0.0
O493 O 0.77087 0.4782 0.24371 0.0
O494 O 0.71323 0.55657 0.35994 0.0
O495 O 0.76248 0.56127 0.31505 0.0
O496 O 0.78901 0.50716 0.26854 0.0
C497 C 0.79667 0.48079 0.25462 0.0
O498 O 0.71995 0.56572 0.18901 0.0
O499 O 0.73432 0.58273 0.23542 0.0
O500 O 0.67243 0.57959 0.28887 0.0
O501 O 0.73276 0.50241 0.16822 0.0
O502 O 0.68372 0.49685 0.2129 0.0
O503 O 0.65588 0.55573 0.25313 0.0
C504 C 0.75828 0.55628 0.38943 0.0
C505 C 0.79741 0.5393 0.38599 0.0
C506 C 0.75204 0.56889 0.45706 0.0
C507 C 0.81376 0.53832 0.41708 0.0
C508 C 0.73569 0.57003 0.42587 0.0
C509 C 0.79116 0.55416 0.45184 0.0
C510 C 0.7408 0.56464 0.35295 0.0
C511 C 0.72753 0.58768 0.19722 0.0
H512 H 0.63164 0.53142 0.16784 0.0
H513 H 0.71214 0.47292 0.04682 0.0
H514 H 0.60289 0.53234 0.11376 0.0
H515 H 0.74112 0.47151 0.10112 0.0
H516 H 0.81543 0.5284 0.35823 0.0
H517 H 0.73437 0.58117 0.48384 0.0
H518 H 0.84405 0.52679 0.41287 0.0
H519 H 0.70548 0.58338 0.42895 0.0
Eu520 Eu 0.73393 0.7878 0.0515 0.0
Eu521 Eu 0.71227 0.77349 0.97657 0.0
C522 C 0.7967 0.76236 0.97087 0.0
C523 C 0.77302 0.81764 0.11135 0.0
C524 C 0.80852 0.81106 0.08441 0.0
C525 C 0.78337 0.84971 0.14627 0.0
C526 C 0.83147 0.82349 0.08874 0.0
C527 C 0.76049 0.83721 0.14203 0.0
C528 C 0.81901 0.84277 0.11981 0.0
C529 C 0.74905 0.80362 0.10891 0.0
O530 O 0.72147 0.72432 0.03041 0.0
O531 O 0.73214 0.7365 0.08486 0.0
C532 C 0.72725 0.71595 0.0704 0.0
O533 O 0.67284 0.79817 0.07542 0.0
O534 O 0.72849 0.73956 0.93425 0.0
O535 O 0.67984 0.78804 0.9279 0.0
O536 O 0.65689 0.7897 0.02186 0.0
C537 C 0.64875 0.79661 0.05974 0.0
O538 O 0.73427 0.8319 0.9925 0.0
O539 O 0.69983 0.82995 0.95339 0.0
O540 O 0.77007 0.77177 0.95033 0.0
O541 O 0.72148 0.8243 0.08833 0.0
O542 O 0.76605 0.77348 0.10033 0.0
O543 O 0.79007 0.75965 1.01263 0.0
C544 C 0.67809 0.74332 0.91215 0.0
C545 C 0.65593 0.73178 0.94911 0.0
C546 C 0.65664 0.72704 0.86755 0.0
C547 C 0.63403 0.71807 0.94523 0.0
C548 C 0.67849 0.74077 0.87144 0.0
C549 C 0.63418 0.71581 0.90439 0.0
C550 C 0.69966 0.75934 0.91543 0.0
C551 C 0.71629 0.84572 0.9599 0.0
H552 H 0.81867 0.79596 0.06055 0.0
H553 H 0.77346 0.86451 0.17044 0.0
H554 H 0.85901 0.81786 0.06821 0.0
H555 H 0.73318 0.84249 0.16304 0.0
H556 H 0.65529 0.73372 0.98076 0.0
H557 H 0.65696 0.72542 0.83586 0.0
H558 H 0.61681 0.70944 0.97391 0.0
H559 H 0.69537 0.74974 0.84265 0.0
Eu560 Eu 0.46614 0.99872 0.5731 0.0
Eu561 Eu 0.4867 0.04338 0.47769 0.0
C562 C 0.40582 0.04672 0.51336 0.0
C563 C 0.42326 0.9445 0.65352 0.0
C564 C 0.39384 0.95843 0.63112 0.0
C565 C 0.41697 0.89154 0.67855 0.0
C566 C 0.37664 0.93901 0.63177 0.0
C567 C 0.43433 0.91109 0.67785 0.0
C568 C 0.38862 0.90531 0.65469 0.0
C569 C 0.44557 0.96312 0.64596 0.0
O570 O 0.49192 0.06371 0.52652 0.0
O571 O 0.44856 0.05103 0.58227 0.0
C572 C 0.46793 0.06903 0.56291 0.0
O573 O 0.52345 0.99365 0.56855 0.0
O574 O 0.47255 0.09295 0.43368 0.0
O575 O 0.52209 0.04963 0.41402 0.0
O576 O 0.54149 1.00214 0.49515 0.0
C577 C 0.5498 0.9911 0.5336 0.0
O578 O 0.48823 0.96446 0.52608 0.0
O579 O 0.47795 1.00407 0.46228 0.0
O580 O 0.42385 0.06579 0.49861 0.0
O581 O 0.47877 0.95127 0.62163 0.0
O582 O 0.42799 0.99611 0.6352 0.0
O583 O 0.41982 1.01685 0.53833 0.0
C584 C 0.52702 0.10054 0.40038 0.0
C585 C 0.54839 0.091 0.43139 0.0
C586 C 0.54298 0.14815 0.3647 0.0
C587 C 0.56696 0.10977 0.42911 0.0
C588 C 0.5245 0.12911 0.36685 0.0
C589 C 0.564 0.13862 0.39609 0.0
C590 C 0.50435 0.08263 0.40666 0.0
C591 C 0.48431 0.97325 0.48561 0.0
H592 H 0.38516 0.9839 0.61148 0.0
H593 H 0.42644 0.86546 0.69636 0.0
H594 H 0.35485 0.94989 0.61313 0.0
H595 H 0.45731 0.89977 0.69479 0.0
H596 H 0.54981 0.06956 0.45815 0.0
H597 H 0.54041 0.17053 0.33914 0.0
H598 H 0.58288 0.10231 0.45369 0.0
H599 H 0.50755 0.13713 0.34316 0.0
Eu600 Eu 0.47409 0.49662 0.05776 0.0
Eu601 Eu 0.47493 0.55573 0.96938 0.0
C602 C 0.39965 0.54739 0.01802 0.0
C603 C 0.44644 0.43005 0.131 0.0
C604 C 0.42689 0.4377 0.09894 0.0
C605 C 0.42323 0.3877 0.17324 0.0
C606 C 0.40585 0.42056 0.10374 0.0
C607 C 0.44459 0.40495 0.16827 0.0
C608 C 0.40387 0.3955 0.14082 0.0
C609 C 0.46871 0.44852 0.12401 0.0
O610 O 0.45297 0.5804 0.02659 0.0
O611 O 0.48074 0.53469 0.07844 0.0
C612 C 0.46495 0.56754 0.06327 0.0
O613 O 0.53512 0.48345 0.02789 0.0
O614 O 0.45028 0.60802 0.93371 0.0
O615 O 0.50384 0.57218 0.90541 0.0
O616 O 0.52799 0.53675 0.99207 0.0
C617 C 0.5496 0.50524 1.00707 0.0
O618 O 0.4674 0.48 1.00615 0.0
O619 O 0.49316 0.50884 0.94512 0.0
O620 O 0.42045 0.55337 0.98018 0.0
O621 O 0.4965 0.44343 0.09091 0.0
O622 O 0.44921 0.48066 0.12467 0.0
O623 O 0.4137 0.5325 0.05329 0.0
C624 C 0.49885 0.62524 0.90157 0.0
C625 C 0.50973 0.62269 0.93866 0.0
C626 C 0.52915 0.66242 0.85987 0.0
C627 C 0.53052 0.63946 0.93633 0.0
C628 C 0.50838 0.64538 0.86218 0.0
C629 C 0.54065 0.65912 0.8969 0.0
C630 C 0.48085 0.60408 0.9043 0.0
C631 C 0.48228 0.48441 0.96486 0.0
H632 H 0.42778 0.4571 0.07012 0.0
H633 H 0.42181 0.36837 0.2021 0.0
H634 H 0.391 0.42691 0.07854 0.0
H635 H 0.45956 0.39873 0.19328 0.0
H636 H 0.50299 0.60694 0.96927 0.0
H637 H 0.53701 0.67747 0.82919 0.0
H638 H 0.53936 0.63658 0.96508 0.0
H639 H 0.50055 0.64726 0.83322 0.0
C640 C 0.97093 0.08773 0.12715 0.0
C641 C 0.95322 0.09681 0.09211 0.0
C642 C 0.93004 0.15711 0.09075 0.0
C643 C 0.94575 0.14817 0.12734 0.0
N644 N -0.024 0.10513 0.1849 0.0
N645 N 0.9127 0.1413 0.043 0.0
C646 C 0.96482 0.11347 0.14681 0.0
C647 C 0.93194 0.13154 0.07483 0.0
N648 N -0.00492 0.05475 0.14022 0.0
N649 N 0.91311 0.19033 0.07059 0.0
H650 H 0.91104 0.12457 0.03008 0.0
H651 H 0.91104 0.12457 0.03008 0.0
H652 H 0.91204 0.21025 0.07976 0.0
H653 H 0.9013 0.19777 0.0436 0.0
H654 H 0.01231 0.04707 0.16192 0.0
H655 H 0.00021 0.03522 0.12679 0.0
H656 H -0.01368 0.0805 0.20325 0.0
H657 H -0.02786 0.12322 0.20009 0.0
C658 C 0.83711 0.29541 0.42513 0.0
C659 C 0.83398 0.26444 0.44521 0.0
C660 C 0.89259 0.23569 0.39706 0.0
C661 C 0.89166 0.26778 0.3728 0.0
N662 N 0.85567 0.32856 0.35753 0.0
N663 N 0.85757 0.20485 0.44872 0.0
C664 C 0.86202 0.29776 0.38522 0.0
C665 C 0.8614 0.23443 0.43063 0.0
N666 N 0.81628 0.32284 0.4437 0.0
N667 N 0.9236 0.20661 0.38924 0.0
H668 H 0.83643 0.20272 0.47515 0.0
H669 H 0.87416 0.18305 0.43622 0.0
H670 H 0.94729 0.2066 0.36585 0.0
H671 H 0.92719 0.18272 0.40854 0.0
H672 H 0.82078 0.34472 0.43195 0.0
H673 H 0.79812 0.32226 0.47342 0.0
H674 H 0.83223 0.35084 0.36375 0.0
H675 H 0.87097 0.33115 0.32609 0.0
C676 C 0.70584 0.15297 0.67832 0.0
C677 C 0.73148 0.12043 0.66858 0.0
C678 C 0.75641 0.15047 0.59734 0.0
C679 C 0.72949 0.18291 0.60636 0.0
N680 N 0.67351 0.21397 0.65272 0.0
N681 N 0.77849 0.08892 0.61566 0.0
C682 C 0.703 0.18371 0.64624 0.0
C683 C 0.75575 0.11953 0.62699 0.0
N684 N 0.68387 0.1548 0.71862 0.0
N685 N 0.78394 0.14912 0.56118 0.0
H686 H 0.78085 0.06592 0.63702 0.0
H687 H 0.79341 0.08626 0.58446 0.0
H688 H 0.78528 0.17078 0.53905 0.0
H689 H 0.80702 0.12683 0.55458 0.0
H690 H 0.66834 0.17714 0.72999 0.0
H691 H 0.68288 0.13362 0.74199 0.0
H692 H 0.65044 0.21628 0.67796 0.0
H693 H 0.67021 0.23669 0.63042 0.0
C694 C 0.83507 0.08289 1.00569 0.0
C695 C 0.85518 0.05236 0.0328 0.0
C696 C 0.81798 1.02693 0.02679 0.0
C697 C 0.8057 0.0538 0.99126 0.0
N698 N 0.80108 0.10865 0.94717 0.0
N699 N 0.85078 1.00258 0.08506 0.0
C700 C 0.81308 0.08258 0.98133 0.0
C701 C 0.84197 1.02677 0.04857 0.0
N702 N 0.83583 0.11221 1.00482 0.0
N703 N 0.80724 1.00117 0.03961 0.0
H704 H 0.86518 1.0026 0.10542 0.0
H705 H 0.86518 1.0026 0.10542 0.0
H706 H 0.78915 1.00052 0.02479 0.0
H707 H 0.81621 0.98081 0.06536 0.0
H708 H 0.81955 0.13587 0.98794 0.0
H709 H 0.84895 0.11322 0.02581 0.0
H710 H 0.80952 0.12824 0.93557 0.0
H711 H 0.78471 0.10961 0.92848 0.0
C712 C 0.10273 0.96674 0.04605 0.0
C713 C 0.08383 0.99491 1.01548 0.0
C714 C 0.12282 1.02193 1.01084 0.0
C715 C 0.13583 0.99743 0.04783 0.0
N716 N 0.14494 0.94311 0.09616 0.0
N717 N 0.08992 0.03835 0.95322 0.0
C718 C 0.12877 0.96813 0.06324 0.0
C719 C 0.09848 1.01905 0.99253 0.0
N720 N 0.09473 0.9393 0.0587 0.0
N721 N 0.132 0.04878 0.99504 0.0
H722 H 0.0746 0.03466 0.93777 0.0
H723 H 0.10181 0.05486 0.93363 0.0
H724 H 0.15098 0.05063 1.00704 0.0
H725 H 0.11985 0.06966 0.9714 0.0
H726 H 0.10787 0.917 0.08003 0.0
H727 H 0.07617 0.93832 0.04494 0.0
H728 H 0.13877 0.92235 0.11158 0.0
H729 H 0.16479 0.94322 0.10863 0.0
C730 C 0.95576 0.46055 0.44075 0.0
C731 C -0.01259 0.46201 0.4461 0.0
C732 C 0.02903 0.40976 0.41893 0.0
C733 C -0.00228 0.40979 0.41057 0.0
N734 N 0.93214 0.43792 0.40681 0.0
N735 N 0.05456 0.44178 0.43293 0.0
C736 C 0.96131 0.43602 0.41951 0.0
C737 C 0.02419 0.43761 0.43318 0.0
N738 N 0.92034 0.48152 0.45774 0.0
N739 N 0.06326 0.38263 0.41437 0.0
H740 H 0.05216 0.46218 0.44233 0.0
H741 H 0.08198 0.4269 0.41964 0.0
H742 H 0.06804 0.36197 0.40349 0.0
H743 H 0.08617 0.37926 0.42464 0.0
H744 H 0.89644 0.47888 0.45963 0.0
H745 H 0.91494 0.49995 0.47326 0.0
H746 H 0.90588 0.45853 0.40793 0.0
H747 H 0.93501 0.42012 0.39182 0.0
C748 C 0.59134 0.32601 0.61216 0.0
C749 C 0.61183 0.30111 0.58667 0.0
C750 C 0.56497 0.27808 0.61971 0.0
C751 C 0.54867 0.29888 0.65029 0.0
N752 N 0.54533 0.34312 0.67619 0.0
N753 N 0.62027 0.25097 0.56892 0.0
C754 C 0.56139 0.32321 0.64645 0.0
C755 C 0.59884 0.27688 0.59045 0.0
N756 N 0.60025 0.3526 0.60291 0.0
N757 N 0.54853 0.25896 0.61912 0.0
H758 H 0.6455 0.24857 0.54751 0.0
H759 H 0.61466 0.23016 0.57494 0.0
H760 H 0.52462 0.25804 0.64123 0.0
H761 H 0.55682 0.24616 0.59464 0.0
H762 H 0.58447 0.37325 0.6177 0.0
H763 H 0.62159 0.35557 0.57734 0.0
H764 H 0.55625 0.35833 0.67854 0.0
H765 H 0.52178 0.34327 0.70001 0.0
C766 C 0.72052 0.93419 0.91144 0.0
C767 C 0.71479 0.94268 0.86811 0.0
C768 C 0.71571 0.88572 0.88366 0.0
C769 C 0.71567 0.87937 0.92852 0.0
N770 N 0.70741 0.90475 0.98569 0.0
N771 N 0.69323 0.92859 0.82125 0.0
C772 C 0.71502 0.9057 0.94254 0.0
C773 C 0.70836 0.91904 0.85674 0.0
N774 N 0.73283 0.95197 0.92326 0.0
N775 N 0.72467 0.85978 0.8654 0.0
H776 H 0.68309 0.95348 0.80357 0.0
H777 H 0.68571 0.91298 0.81352 0.0
H778 H 0.73403 0.83453 0.88196 0.0
H779 H 0.72779 0.8629 0.83223 0.0
H780 H 0.74092 0.94449 0.95286 0.0
H781 H 0.73928 0.97158 0.90224 0.0
H782 H 0.70332 0.92469 0.99753 0.0
H783 H 0.70039 0.88633 1.00944 0.0
C784 C 0.09914 0.2713 0.0962 0.0
C785 C 0.11086 0.29761 0.08547 0.0
C786 C 0.06088 0.32396 0.143 0.0
C787 C 0.04903 0.29796 0.15313 0.0
N788 N 0.05062 0.25173 0.13331 0.0
N789 N 0.09768 0.35297 0.09116 0.0
C790 C 0.06597 0.27339 0.12748 0.0
C791 C 0.09 0.32524 0.1066 0.0
N792 N 0.12107 0.24295 0.07924 0.0
N793 N 0.04487 0.34691 0.16879 0.0
H794 H 0.11829 0.35486 0.06391 0.0
H795 H 0.08149 0.37525 0.10261 0.0
H796 H 0.02231 0.34762 0.19448 0.0
H797 H 0.05517 0.36401 0.16629 0.0
H798 H 0.11659 0.2211 0.09053 0.0
H799 H 0.14566 0.23982 0.05634 0.0
H800 H 0.05915 0.23591 0.11234 0.0
H801 H 0.02712 0.25163 0.15692 0.0
C802 C 0.73957 0.42322 0.39651 0.0
C803 C 0.71321 0.44205 0.36826 0.0
C804 C 0.68714 0.39894 0.40395 0.0
C805 C 0.7119 0.38169 0.4342 0.0
N806 N 0.75126 0.3883 0.46712 0.0
N807 N 0.65474 0.45153 0.35541 0.0
C808 C 0.73468 0.39724 0.43307 0.0
C809 C 0.68511 0.43078 0.37476 0.0
N810 N 0.77104 0.4283 0.38733 0.0
N811 N 0.66425 0.38569 0.40382 0.0
H812 H 0.6505 0.47576 0.33688 0.0
H813 H 0.63153 0.44654 0.36192 0.0
H814 H 0.66063 0.36566 0.4278 0.0
H815 H 0.64977 0.39396 0.37899 0.0
H816 H 0.79284 0.413 0.4044 0.0
H817 H 0.77765 0.44468 0.35952 0.0
H818 H 0.76508 0.40123 0.46923 0.0
H819 H 0.74803 0.37067 0.49519 0.0
C820 C 0.59973 0.95691 0.57747 0.0
C821 C 0.5887 0.97958 0.53866 0.0
C822 C 0.63336 1.00203 0.52932 0.0
C823 C 0.63991 0.98346 0.57142 0.0
N824 N 0.63543 0.93894 0.63313 0.0
N825 N 0.61046 1.00784 0.46794 0.0
C826 C 0.62549 0.95899 0.59447 0.0
C827 C 0.61034 0.99726 0.51126 0.0
N828 N 0.58558 0.93334 0.59718 0.0
N829 N 0.6477 1.02526 0.50748 0.0
H830 H 0.59782 1.00086 0.45289 0.0
H831 H 0.62754 1.01912 0.44612 0.0
H832 H 0.66553 0.02877 0.51933 0.0
H833 H 0.64 0.04248 0.479 0.0
H834 H 0.59225 0.9153 0.62538 0.0
H835 H 0.56855 0.93056 0.58306 0.0
H836 H 0.62432 0.92206 0.65329 0.0
H837 H 0.65518 0.93924 0.64558 0.0
C838 C 0.95173 0.95398 0.95362 0.0
C839 C -0.0169 0.95579 0.95906 0.0
C840 C 0.02561 0.9048 0.92935 0.0
C841 C -0.00553 0.90423 0.92144 0.0
N842 N 0.92856 0.93088 0.91972 0.0
N843 N 0.05006 0.93689 0.94518 0.0
C844 C 0.95769 0.92964 0.9317 0.0
C845 C 0.02011 0.93227 0.94497 0.0
N846 N 0.91624 0.97447 0.97111 0.0
N847 N 0.06033 0.87849 0.92318 0.0
H848 H 0.04716 0.95686 0.956 0.0
H849 H 0.07755 0.92285 0.93112 0.0
H850 H 0.06564 0.85824 0.91103 0.0
H851 H 0.08329 0.87532 0.93314 0.0
H852 H 0.89249 0.97155 0.97312 0.0
H853 H 0.91069 0.99294 0.98665 0.0
H854 H 0.90185 0.95084 0.92195 0.0
H855 H 0.93179 0.91317 0.9043 0.0
C856 C 0.04657 0.20247 0.9014 0.0
C857 C 0.06354 0.17042 0.89027 0.0
C858 C 0.12593 0.16447 0.88772 0.0
C859 C 0.10906 0.19712 0.89692 0.0
N860 N 0.05631 0.24943 0.90499 0.0
N861 N 0.11895 0.12369 0.8649 0.0
C862 C 0.06995 0.2168 0.90148 0.0
C863 C 0.10318 0.15232 0.88083 0.0
N864 N 0.00845 0.21821 0.91389 0.0
N865 N 0.16331 0.14451 0.8876 0.0
H866 H 0.10298 0.11417 0.85946 0.0
H867 H 0.14759 0.11107 0.85351 0.0
H868 H 0.18072 0.15255 0.89288 0.0
H869 H 0.17648 0.1191 0.88582 0.0
H870 H -0.00539 0.23933 0.9277 0.0
H871 H -0.00946 0.20874 0.91324 0.0
H872 H 0.02842 0.26713 0.90554 0.0
H873 H 0.02842 0.26713 0.90554 0.0
C874 C 0.58533 0.61804 0.30931 0.0
C875 C 0.61192 0.61049 0.27071 0.0
C876 C 0.5832 0.6699 0.23407 0.0
C877 C 0.55455 0.67718 0.27128 0.0
N878 N 0.52416 0.65639 0.34173 0.0
N879 N 0.62965 0.62747 0.19337 0.0
C880 C 0.55437 0.65073 0.30831 0.0
C881 C 0.60843 0.63578 0.23204 0.0
N882 N 0.58994 0.5941 0.34696 0.0
N883 N 0.58815 0.69571 0.20187 0.0
H884 H 0.64817 0.60269 0.19039 0.0
H885 H 0.62586 0.64462 0.1638 0.0
H886 H 0.57261 0.72103 0.20414 0.0
H887 H 0.61057 0.69187 0.17567 0.0
H888 H 0.57414 0.59923 0.3771 0.0
H889 H 0.611 0.56939 0.34814 0.0
H890 H 0.52087 0.63725 0.36768 0.0
H891 H 0.50072 0.67971 0.3417 0.0
C892 C 0.31651 0.87533 0.66344 0.0
C893 C 0.33693 0.85175 0.63607 0.0
C894 C 0.39218 0.86213 0.62217 0.0
C895 C 0.37233 0.88435 0.65136 0.0
N896 N 0.31877 0.90734 0.70601 0.0
N897 N 0.39567 0.81776 0.59565 0.0
C898 C 0.33542 0.88944 0.67399 0.0
C899 C 0.37529 0.84361 0.61733 0.0
N900 N 0.27874 0.88522 0.67794 0.0
N901 N 0.42647 0.8598 0.59783 0.0
H902 H 0.38405 0.8039 0.59108 0.0
H903 H 0.42465 0.8082 0.58521 0.0
H904 H 0.43993 0.8728 0.60059 0.0
H905 H 0.44051 0.84689 0.57271 0.0
H906 H 0.26157 0.90508 0.69397 0.0
H907 H 0.26384 0.87541 0.67097 0.0
H908 H 0.2934 0.90908 0.72671 0.0
H909 H 0.33197 0.91803 0.71447 0.0
C910 C 0.0641 0.65135 0.8169 0.0
C911 C 0.05167 0.67333 0.77819 0.0
C912 C 0.09985 0.63024 0.73702 0.0
C913 C 0.11192 0.60788 0.77584 0.0
N914 N 0.09935 0.59384 0.85365 0.0
N915 N 0.05103 0.67977 0.70358 0.0
C916 C 0.09206 0.6175 0.81611 0.0
C917 C 0.06709 0.66134 0.73914 0.0
N918 N 0.0493 0.66284 0.85444 0.0
N919 N 0.12122 0.62344 0.69768 0.0
H920 H 0.02877 0.70377 0.70213 0.0
H921 H 0.05825 0.67013 0.67632 0.0
H922 H 0.1458 0.60152 0.69381 0.0
H923 H 0.11644 0.6411 0.66864 0.0
H924 H 0.06037 0.64967 0.88245 0.0
H925 H 0.0269 0.68647 0.85706 0.0
H926 H 0.08373 0.59815 0.88413 0.0
H927 H 0.11876 0.56863 0.854 0.0
C928 C 0.8188 0.39683 0.63576 0.0
C929 C 0.83434 0.36222 0.63413 0.0
C930 C 0.89602 0.35423 0.63803 0.0
C931 C 0.88004 0.38844 0.64156 0.0
N932 N 0.82545 0.44054 0.65226 0.0
N933 N 0.8855 0.30633 0.64124 0.0
C934 C 0.84111 0.40919 0.64313 0.0
C935 C 0.87234 0.34038 0.63754 0.0
N936 N 0.78319 0.41814 0.62862 0.0
N937 N 0.93396 0.33535 0.63383 0.0
H938 H 0.91169 0.28857 0.64839 0.0
H939 H 0.86906 0.29537 0.64046 0.0
H940 H 0.95194 0.34426 0.63579 0.0
H941 H 0.94796 0.31166 0.62587 0.0
H942 H 0.77179 0.44435 0.62437 0.0
H943 H 0.76584 0.40992 0.62354 0.0
H944 H 0.79668 0.45564 0.65802 0.0
H945 H 0.84104 0.45033 0.65788 0.0
C946 C 0.35625 0.93824 0.26704 0.0
C947 C 0.32678 0.94985 0.24466 0.0
C948 C 0.35426 0.89387 0.22871 0.0
C949 C 0.38617 0.88305 0.24643 0.0
N950 N 0.42256 0.90329 0.26456 0.0
N951 N 0.31161 0.94195 0.18624 0.0
C952 C 0.3889 0.9077 0.26018 0.0
C953 C 0.33056 0.92882 0.21929 0.0
N954 N 0.35343 0.95471 0.29589 0.0
N955 N 0.34423 0.87153 0.22361 0.0
H956 H 0.29675 0.96802 0.17574 0.0
H957 H 0.31515 0.9272 0.16609 0.0
H958 H 0.35618 0.84565 0.23652 0.0
H959 H 0.31979 0.87962 0.21261 0.0
H960 H 0.37345 0.94463 0.31504 0.0
H961 H 0.3301 0.97624 0.30409 0.0
H962 H 0.42557 0.9218 0.27218 0.0
H963 H 0.44798 0.88395 0.25426 0.0
C964 C 0.34735 0.42521 0.79222 0.0
C965 C 0.33442 0.44671 0.75347 0.0
C966 C 0.38234 0.40291 0.71306 0.0
C967 C 0.39557 0.38177 0.75167 0.0
N968 N 0.39738 0.37686 0.82531 0.0
N969 N 0.34565 0.45963 0.67569 0.0
C970 C 0.38053 0.3944 0.7902 0.0
C971 C 0.35386 0.43659 0.71344 0.0
N972 N 0.32646 0.43249 0.83151 0.0
N973 N 0.39686 0.39074 0.67604 0.0
H974 H 0.32578 0.48473 0.67499 0.0
H975 H 0.36091 0.45499 0.64522 0.0
H976 H 0.41958 0.36724 0.67365 0.0
H977 H 0.38528 0.40318 0.64833 0.0
H978 H 0.33197 0.41537 0.86075 0.0
H979 H 0.30161 0.45422 0.83529 0.0
H980 H 0.39028 0.38704 0.85206 0.0
H981 H 0.42031 0.35323 0.82669 0.0
C982 C 0.09083 0.82314 0.60837 0.0
C983 C 0.11474 0.79412 0.59026 0.0
C984 C 0.08361 0.76178 0.6471 0.0
C985 C 0.05662 0.79148 0.66254 0.0
N986 N 0.03145 0.85224 0.65312 0.0
N987 N 0.12586 0.73898 0.58525 0.0
C988 C 0.05932 0.82278 0.64189 0.0
C989 C 0.10835 0.76457 0.60709 0.0
N990 N 0.09838 0.8509 0.59375 0.0
N991 N 0.08776 0.73053 0.67214 0.0
H992 H 0.14228 0.7409 0.55445 0.0
H993 H 0.11996 0.7179 0.59528 0.0
H994 H 0.073 0.7273 0.70375 0.0
H995 H 0.10936 0.70804 0.66382 0.0
H996 H 0.08475 0.87128 0.60901 0.0
H997 H 0.11976 0.8527 0.56748 0.0
H998 H 0.02999 0.87611 0.6361 0.0
H999 H 0.00811 0.85305 0.67737 0.0
C1000 C 0.18817 0.93797 0.40755 0.0
C1001 C 0.21334 0.93732 0.36662 0.0
C1002 C 0.24341 0.87428 0.38984 0.0
C1003 C 0.21554 0.87449 0.4283 0.0
N1004 N 0.15818 0.90803 0.47078 0.0
N1005 N 0.26186 0.90283 0.31715 0.0
C1006 C 0.18721 0.90685 0.43645 0.0
C1007 C 0.23982 0.90486 0.35735 0.0
N1008 N 0.16498 0.96846 0.41903 0.0
N1009 N 0.27513 0.84502 0.38547 0.0
H1010 H 0.26141 0.92405 0.29301 0.0
H1011 H 0.27833 0.88011 0.30669 0.0
H1012 H 0.27996 0.82314 0.40971 0.0
H1013 H 0.29844 0.84368 0.3608 0.0
H1014 H 0.14897 0.97086 0.44991 0.0
H1015 H 0.16384 0.99142 0.39842 0.0
H1016 H 0.13453 0.9303 0.47627 0.0
H1017 H 0.15618 0.88629 0.49192 0.0
C1018 C 0.96633 0.62163 0.6318 0.0
C1019 C 0.95019 0.65635 0.61099 0.0
C1020 C 0.9384 0.641 0.55551 0.0
C1021 C 0.95733 0.60608 0.57421 0.0
N1022 N -0.00369 0.56314 0.62491 0.0
N1023 N 0.92814 0.69858 0.54829 0.0
C1024 C -0.0268 0.59633 0.611 0.0
C1025 C 0.93844 0.66587 0.57135 0.0
N1026 N -0.02581 0.61283 0.67198 0.0
N1027 N 0.91882 0.65056 0.52391 0.0
H1028 H 0.92783 0.7175 0.55888 0.0
H1029 H 0.92338 0.70618 0.5169 0.0
H1030 H 0.91667 0.63329 0.51259 0.0
H1031 H 0.90152 0.67567 0.51204 0.0
H1032 H -0.018 0.58829 0.6908 0.0
H1033 H 0.97004 0.63055 0.688 0.0
H1034 H 0.012 0.55511 0.64844 0.0
H1035 H 0.00262 0.54391 0.61021 0.0
C1036 C 0.32545 0.76241 0.38587 0.0
C1037 C 0.32895 0.7522 0.43 0.0
C1038 C 0.39513 0.74265 0.4068 0.0
C1039 C 0.38977 0.75756 0.36349 0.0
N1040 N 0.3476 0.78738 0.31299 0.0
N1041 N 0.36676 0.73336 0.48299 0.0
C1042 C 0.35454 0.76849 0.35319 0.0
C1043 C 0.36375 0.74253 0.44059 0.0
N1044 N 0.29383 0.76774 0.37478 0.0
N1045 N 0.43046 0.72749 0.41538 0.0
H1046 H 0.34548 0.73025 0.50849 0.0
H1047 H 0.38966 0.7303 0.49298 0.0
H1048 H 0.45409 0.72647 0.39128 0.0
H1049 H 0.43693 0.71327 0.44558 0.0
H1050 H 0.29233 0.77047 0.34315 0.0
H1051 H 0.26977 0.76742 0.39684 0.0
H1052 H 0.32103 0.79982 0.30528 0.0
H1053 H 0.36737 0.79382 0.28837 0.0
C1054 C 0.19699 0.1517 0.17306 0.0
C1055 C 0.22213 0.11872 0.16459 0.0
C1056 C 0.24851 0.14676 0.09258 0.0
C1057 C 0.22415 0.17969 0.10176 0.0
N1058 N 0.17643 0.21289 0.15283 0.0
N1059 N 0.26864 0.08527 0.11352 0.0
C1060 C 0.19882 0.1818 0.14263 0.0
C1061 C 0.24685 0.11652 0.1234 0.0
N1062 N 0.16939 0.15445 0.20933 0.0
N1063 N 0.275 0.14425 0.05529 0.0
H1064 H 0.26955 0.06291 0.13563 0.0
H1065 H 0.28435 0.08127 0.08303 0.0
H1066 H 0.27735 0.16534 0.03263 0.0
H1067 H 0.29629 0.12153 0.04763 0.0
H1068 H 0.14698 0.17715 0.2156 0.0
H1069 H 0.16688 0.13351 0.23194 0.0
H1070 H 0.16147 0.21652 0.18371 0.0
H1071 H 0.1739 0.23555 0.1307 0.0
C1072 C 0.85315 0.73272 0.91897 0.0
C1073 C 0.83457 0.75741 0.94467 0.0
C1074 C 0.88261 0.77894 0.90961 0.0
C1075 C 0.89762 0.75778 0.87961 0.0
N1076 N 0.89811 0.71432 0.8549 0.0
N1077 N 0.82983 0.80572 0.96313 0.0
C1078 C 0.88333 0.73438 0.88428 0.0
C1079 C 0.84923 0.78055 0.94033 0.0
N1080 N 0.8422 0.70736 0.92844 0.0
N1081 N 0.89978 0.79806 0.90823 0.0
H1082 H 0.8058 0.80757 0.98667 0.0
H1083 H 0.83607 0.82618 0.95695 0.0
H1084 H 0.92271 0.79944 0.88446 0.0
H1085 H 0.89298 0.81077 0.93231 0.0
H1086 H 0.85646 0.68676 0.91357 0.0
H1087 H 0.82054 0.70532 0.95415 0.0
H1088 H 0.88615 0.69976 0.85311 0.0
H1089 H 0.92173 0.71336 0.83078 0.0
C1090 C 0.25074 0.61521 0.62213 0.0
C1091 C 0.22821 0.61676 0.66458 0.0
C1092 C 0.20722 0.67954 0.64454 0.0
C1093 C 0.22794 0.67824 0.60131 0.0
N1094 N 0.26546 0.64442 0.54772 0.0
N1095 N 0.17864 0.65237 0.71204 0.0
C1096 C 0.24829 0.64592 0.58981 0.0
C1097 C 0.20488 0.64951 0.67457 0.0
N1098 N 0.27617 0.58422 0.61315 0.0
N1099 N 0.18956 0.70969 0.65734 0.0
H1100 H 0.17541 0.63159 0.7344 0.0
H1101 H 0.15758 0.67542 0.7191 0.0
H1102 H 0.18855 0.7324 0.63631 0.0
H1103 H 0.17803 0.71188 0.6894 0.0
H1104 H 0.29637 0.58097 0.58487 0.0
H1105 H 0.27934 0.56154 0.63569 0.0
H1106 H 0.27686 0.62266 0.53568 0.0
H1107 H 0.26607 0.66566 0.52397 0.0
C1108 C 0.34237 0.06968 0.43711 0.0
C1109 C 0.31721 0.05616 0.46578 0.0
C1110 C 0.34212 0.04956 0.52654 0.0
C1111 C 0.37239 0.05592 0.49693 0.0
N1112 N 0.40378 0.06748 0.42207 0.0
N1113 N 0.29306 0.03214 0.53791 0.0
C1114 C 0.37299 0.06539 0.45166 0.0
C1115 C 0.3167 0.0461 0.51071 0.0
N1116 N 0.33721 0.08637 0.39577 0.0
N1117 N 0.3375 0.04734 0.56961 0.0
H1118 H 0.27361 0.02991 0.52726 0.0
H1119 H 0.2945 1.0208 0.57032 0.0
H1120 H 0.35504 0.05096 0.58184 0.0
H1121 H 0.31433 0.04533 0.59237 0.0
H1122 H 0.3526 0.0997 0.37499 0.0
H1123 H 0.31503 0.08994 0.38379 0.0
H1124 H 0.40678 0.07007 0.38908 0.0
H1125 H 0.42801 0.06349 0.42985 0.0
C1126 C 0.85045 0.88194 0.0953 0.0
C1127 C 0.84375 0.85483 0.1259 0.0
C1128 C 0.88248 0.85102 0.17095 0.0
C1129 C 0.88958 0.87791 0.13983 0.0
N1130 N 0.88101 0.91845 0.07097 0.0
N1131 N 0.85545 0.81066 0.18838 0.0
C1132 C 0.87417 0.89295 0.1017 0.0
C1133 C 0.86046 0.83861 0.16277 0.0
N1134 N 0.83373 0.8978 0.06002 0.0
N1135 N 0.89598 0.83822 0.20842 0.0
H1136 H 0.86795 0.79519 0.21501 0.0
H1137 H 0.86795 0.79519 0.21501 0.0
H1138 H 0.91335 0.84601 0.2143 0.0
H1139 H 0.88875 0.82124 0.23471 0.0
H1140 H 0.83804 0.91793 0.03687 0.0
H1141 H 0.81517 0.89126 0.05437 0.0
H1142 H 0.89793 0.92865 0.07252 0.0
H1143 H 0.89793 0.92865 0.07252 0.0
C1144 C 0.57967 0.20562 0.41834 0.0
C1145 C 0.61902 0.19384 0.40348 0.0
C1146 C 0.62071 0.14967 0.37708 0.0
C1147 C 0.58216 0.15928 0.39582 0.0
N1148 N 0.52541 0.19352 0.43863 0.0
N1149 N 0.67821 0.15227 0.37386 0.0
C1150 C 0.56168 0.18657 0.41755 0.0
C1151 C 0.6399 0.16529 0.38403 0.0
N1152 N 0.55945 0.23544 0.43217 0.0
N1153 N 0.63878 0.12588 0.35224 0.0
H1154 H 0.69333 0.16301 0.37842 0.0
H1155 H 0.69527 0.12933 0.36412 0.0
H1156 H 0.62564 0.11357 0.34706 0.0
H1157 H 0.66578 0.12031 0.3339 0.0
H1158 H 0.53025 0.24724 0.43909 0.0
H1159 H 0.57177 0.24995 0.43347 0.0
H1160 H 0.51046 0.21029 0.45941 0.0
H1161 H 0.51089 0.18079 0.43771 0.0
C1162 C 0.85293 0.43436 0.2872 0.0
C1163 C 0.83513 0.45211 0.25082 0.0
C1164 C 0.88198 0.4064 0.21248 0.0
C1165 C 0.89478 0.38616 0.25153 0.0
N1166 N 0.89201 0.38042 0.32699 0.0
N1167 N 0.83561 0.4575 0.17649 0.0
C1168 C 0.88069 0.40024 0.28888 0.0
C1169 C 0.8508 0.43885 0.21265 0.0
N1170 N 0.84373 0.44983 0.32022 0.0
N1171 N 0.90061 0.395 0.17495 0.0
H1172 H 0.81608 0.48284 0.17374 0.0
H1173 H 0.84167 0.44791 0.1496 0.0
H1174 H 0.924 0.37174 0.17368 0.0
H1175 H 0.89515 0.40948 0.14451 0.0
H1176 H 0.85906 0.43959 0.34467 0.0
H1177 H 0.82317 0.47426 0.32161 0.0
H1178 H 0.87877 0.38751 0.35664 0.0
H1179 H 0.91261 0.35559 0.3301 0.0
C1180 C 0.05562 0.71036 0.3591 0.0
C1181 C 0.04498 0.68692 0.3937 0.0
C1182 C 0.08057 0.68794 0.43847 0.0
C1183 C 0.09105 0.71158 0.40414 0.0
N1184 N 0.08263 0.75082 0.33539 0.0
N1185 N 0.04412 0.6563 0.46872 0.0
C1186 C 0.07684 0.72442 0.36541 0.0
C1187 C 0.05603 0.67695 0.43396 0.0
N1188 N 0.04635 0.71835 0.3199 0.0
N1189 N 0.09443 0.67529 0.47563 0.0
H1190 H 0.0256 0.64714 0.46899 0.0
H1191 H 0.0256 0.64714 0.46899 0.0
H1192 H 0.11355 0.68163 0.48035 0.0
H1193 H 0.08739 0.6577 0.50136 0.0
H1194 H 0.05696 0.73201 0.29186 0.0
H1195 H 0.02952 0.70961 0.31475 0.0
H1196 H 0.06994 0.76368 0.30852 0.0
H1197 H 0.09778 0.76188 0.33916 0.0
C1198 C 0.58911 0.11629 0.80837 0.0
C1199 C 0.61464 0.10821 0.76937 0.0
C1200 C 0.58341 0.16691 0.73102 0.0
C1201 C 0.55655 0.17486 0.76946 0.0
N1202 N 0.53009 0.15546 0.84309 0.0
N1203 N 0.63033 0.12344 0.69171 0.0
C1204 C 0.55828 0.14901 0.8077 0.0
C1205 C 0.60959 0.13269 0.73004 0.0
N1206 N 0.59501 0.09282 0.8463 0.0
N1207 N 0.58597 0.19235 0.69642 0.0
H1208 H 0.64958 0.09859 0.68977 0.0
H1209 H 0.62557 0.13953 0.6617 0.0
H1210 H 0.56917 0.21788 0.69681 0.0
H1211 H 0.60752 0.18845 0.66932 0.0
H1212 H 0.58062 0.09829 0.87663 0.0
H1213 H 0.61572 0.06797 0.84738 0.0
H1214 H 0.52747 0.13682 0.87021 0.0
H1215 H 0.50763 0.17919 0.84413 0.0
C1216 C 0.70325 0.65307 0.17419 0.0
C1217 C 0.72648 0.6205 0.16331 0.0
C1218 C 0.75095 0.6503 0.09135 0.0
C1219 C 0.72648 0.68283 0.10166 0.0
N1220 N 0.6745 0.7146 0.15122 0.0
N1221 N 0.76993 0.58923 0.10851 0.0
C1222 C 0.70156 0.68386 0.14276 0.0
C1223 C 0.74926 0.61962 0.12082 0.0
N1224 N 0.68233 0.65492 0.215 0.0
N1225 N 0.7777 0.64842 0.05434 0.0
H1226 H 0.7724 0.56617 0.12966 0.0
H1227 H 0.78309 0.58689 0.07677 0.0
H1228 H 0.78028 0.66975 0.03263 0.0
H1229 H 0.79933 0.62579 0.04667 0.0
H1230 H 0.66975 0.67657 0.22756 0.0
H1231 H 0.67859 0.6344 0.23737 0.0
H1232 H 0.6523 0.71758 0.17761 0.0
H1233 H 0.67201 0.73752 0.12981 0.0
C1234 C 0.83692 0.59 0.49125 0.0
C1235 C 0.85773 0.56021 0.51866 0.0
C1236 C 0.82261 0.53197 0.51503 0.0
C1237 C 0.80882 0.55853 0.47978 0.0
N1238 N 0.80015 0.61423 0.4355 0.0
N1239 N 0.85452 0.51243 0.57465 0.0
C1240 C 0.81441 0.58839 0.46887 0.0
C1241 C 0.84544 0.53409 0.53648 0.0
N1242 N 0.83736 0.61988 0.48852 0.0
N1243 N 0.81545 0.50415 0.52635 0.0
H1244 H 0.86832 0.51586 0.59252 0.0
H1245 H 0.84475 0.49393 0.59088 0.0
H1246 H 0.79762 0.50256 0.51215 0.0
H1247 H 0.82837 0.48215 0.54828 0.0
H1248 H 0.82073 0.64312 0.47127 0.0
H1249 H 0.85062 0.62189 0.50845 0.0
H1250 H 0.80722 0.63465 0.42271 0.0
H1251 H 0.78283 0.61436 0.4188 0.0
C1252 C 0.13334 0.47813 0.54551 0.0
C1253 C 0.13756 0.50794 0.53986 0.0
C1254 C 0.09094 0.54031 0.49331 0.0
C1255 C 0.08251 0.51199 0.50515 0.0
N1256 N 0.10318 0.45183 0.52739 0.0
N1257 N 0.1262 0.56554 0.50386 0.0
C1258 C 0.10657 0.48005 0.52607 0.0
C1259 C 0.11881 0.53829 0.51127 0.0
N1260 N 0.15274 0.44884 0.57214 0.0
N1261 N 0.07192 0.56903 0.46575 0.0
H1262 H 0.14757 0.56391 0.51551 0.0
H1263 H 0.1115 0.58967 0.48674 0.0
H1264 H 0.05111 0.57139 0.45257 0.0
H1265 H 0.07838 0.58974 0.45315 0.0
H1266 H 0.1477 0.42737 0.58188 0.0
H1267 H 0.17326 0.44629 0.5861 0.0
H1268 H 0.1214 0.42717 0.53935 0.0
H1269 H 0.08376 0.45318 0.51263 0.0
C1270 C 0.56054 0.8251 0.14558 0.0
C1271 C 0.54777 0.80023 0.15228 0.0
C1272 C 0.59973 0.7741 0.09632 0.0
C1273 C 0.61189 0.79978 0.08819 0.0
N1274 N 0.59831 0.85435 0.0974 0.0
N1275 N 0.54968 0.75626 0.12686 0.0
C1276 C 0.59059 0.82672 0.11058 0.0
C1277 C 0.56528 0.77678 0.12491 0.0
N1278 N 0.54422 0.84694 0.17293 0.0
N1279 N 0.62241 0.74545 0.08008 0.0
H1280 H 0.52638 0.75503 0.14984 0.0
H1281 H 0.55853 0.74203 0.10378 0.0
H1282 H 0.6489 0.7408 0.06091 0.0
H1283 H 0.61684 0.72425 0.08964 0.0
H1284 H 0.55512 0.86292 0.17297 0.0
H1285 H 0.52081 0.84773 0.19733 0.0
H1286 H 0.58173 0.87615 0.10986 0.0
H1287 H 0.61914 0.85688 0.07082 0.0
C1288 C 0.63061 0.46887 0.0609 0.0
C1289 C 0.63746 0.49814 0.04913 0.0
C1290 C 0.60186 0.52233 0.9914 0.0
C1291 C 0.5884 0.49697 1.00974 0.0
N1292 N 0.60692 0.43772 0.04177 0.0
N1293 N 0.63293 0.55154 1.00101 0.0
C1294 C 0.60814 0.46739 0.03828 0.0
C1295 C 0.62473 0.52426 1.01304 0.0
N1296 N 0.64365 0.4435 0.09522 0.0
N1297 N 0.5938 0.54346 0.9526 0.0
H1298 H 0.65083 0.55295 1.0153 0.0
H1299 H 0.62076 0.57333 0.97839 0.0
H1300 H 0.57991 0.54011 0.93475 0.0
H1301 H 0.60444 0.56133 0.93595 0.0
H1302 H 0.63561 0.42367 0.10851 0.0
H1303 H 0.66084 0.44327 0.11218 0.0
H1304 H 0.6228 0.41457 0.05988 0.0
H1305 H 0.59395 0.4356 0.02161 0.0
C1306 C 0.39828 0.34619 0.13322 0.0
C1307 C 0.38089 0.37805 0.14486 0.0
C1308 C 0.31887 0.3834 0.14735 0.0
C1309 C 0.33616 0.35099 0.1372 0.0
N1310 N 0.39102 0.2985 0.12898 0.0
N1311 N 0.32519 0.42398 0.17139 0.0
C1312 C 0.37553 0.3314 0.13281 0.0
C1313 C 0.34127 0.39566 0.1547 0.0
N1314 N 0.43642 0.3308 0.12071 0.0
N1315 N 0.28134 0.40301 0.14813 0.0
H1316 H 0.34094 0.43362 0.17702 0.0
H1317 H 0.29656 0.43615 0.18321 0.0
H1318 H 0.26392 0.39482 0.1432 0.0
H1319 H 0.26789 0.42832 0.15043 0.0
H1320 H 0.45043 0.30971 0.10679 0.0
H1321 H 0.45409 0.34044 0.1216 0.0
H1322 H 0.41897 0.2818 0.13019 0.0
H1323 H 0.37519 0.28695 0.12819 0.0
C1324 C 0.07719 0.16399 0.30764 0.0
C1325 C 0.04893 0.17748 0.28294 0.0
C1326 C 0.08051 0.12436 0.25711 0.0
C1327 C 0.1063 0.10996 0.28543 0.0
N1328 N 0.11645 0.11295 0.35083 0.0
N1329 N 0.01692 0.16352 0.24831 0.0
C1330 C 0.10016 0.12868 0.3153 0.0
C1331 C 0.04832 0.15551 0.26212 0.0
N1332 N 0.08472 0.18446 0.32102 0.0
N1333 N 0.08703 0.11008 0.22396 0.0
H1334 H -0.00847 0.18419 0.25515 0.0
H1335 H 0.01478 0.14702 0.23548 0.0
H1336 H 0.11075 0.08841 0.21681 0.0
H1337 H 0.07027 0.12206 0.20063 0.0
H1338 H 0.10697 0.17492 0.33669 0.0
H1339 H 0.07297 0.21075 0.31115 0.0
H1340 H 0.11086 0.12562 0.37456 0.0
H1341 H 0.13145 0.08666 0.35901 0.0
C1342 C 0.24104 0.37343 0.88434 0.0
C1343 C 0.21712 0.37437 0.92614 0.0
C1344 C 0.19296 0.43772 0.90649 0.0
C1345 C 0.21686 0.43657 0.86471 0.0
N1346 N 0.26921 0.40219 0.81811 0.0
N1347 N 0.16779 0.40814 0.97539 0.0
C1348 C 0.24212 0.40406 0.85483 0.0
C1349 C 0.1928 0.40681 0.93689 0.0
N1350 N 0.26275 0.34298 0.87224 0.0
N1351 N 0.1703 0.46863 0.91714 0.0
H1352 H 0.16632 0.38656 0.99757 0.0
H1353 H 0.14702 0.43034 0.98495 0.0
H1354 H 0.16793 0.49141 0.89521 0.0
H1355 H 0.1547 0.47217 0.9478 0.0
H1356 H 0.27645 0.3405 0.84066 0.0
H1357 H 0.2658 0.31983 0.89334 0.0
H1358 H 0.29182 0.37975 0.81124 0.0
H1359 H 0.27121 0.42348 0.79588 0.0
C1360 C 0.33772 0.28966 0.92335 0.0
C1361 C 0.33253 0.25944 0.93954 0.0
C1362 C 0.39061 0.23117 0.89046 0.0
C1363 C 0.39249 0.26283 0.87005 0.0
N1364 N 0.36042 0.32383 0.86021 0.0
N1365 N 0.35232 0.20177 0.9366 0.0
C1366 C 0.36421 0.29252 0.88484 0.0
C1367 C 0.35851 0.23026 0.92248 0.0
N1368 N 0.31687 0.31608 0.94397 0.0
N1369 N 0.4199 0.20187 0.88038 0.0
H1370 H 0.33047 0.19958 0.96189 0.0
H1371 H 0.36759 0.1811 0.9218 0.0
H1372 H 0.44387 0.20145 0.85747 0.0
H1373 H 0.42186 0.17784 0.89729 0.0
H1374 H 0.32213 0.3374 0.93539 0.0
H1375 H 0.29702 0.31532 0.97224 0.0
H1376 H 0.33807 0.34632 0.86755 0.0
H1377 H 0.3766 0.32724 0.82953 0.0
C1378 C 0.34152 0.5842 0.98866 0.0
C1379 C 0.36033 0.55547 0.01879 0.0
C1380 C 0.32309 0.52808 0.01871 0.0
C1381 C 0.30969 0.55378 0.98263 0.0
N1382 N 0.30145 0.60858 0.93602 0.0
N1383 N 0.35444 0.51017 0.07822 0.0
C1384 C 0.31664 0.58309 0.9692 0.0
C1385 C 0.34648 0.5305 0.03908 0.0
N1386 N 0.34793 0.61225 0.9791 0.0
N1387 N 0.31506 0.50064 0.0319 0.0
H1388 H 0.36848 0.51363 0.09565 0.0
H1389 H 0.34288 0.49309 0.09603 0.0
H1390 H 0.29682 0.49885 0.01856 0.0
H1391 H 0.32779 0.47903 0.05443 0.0
H1392 H 0.334 0.63516 0.95915 0.0
H1393 H 0.36544 0.61317 0.99456 0.0
H1394 H 0.30829 0.62905 0.92156 0.0
H1395 H 0.2824 0.6089 0.92176 0.0
C1396 C 0.62668 0.66775 0.89618 0.0
C1397 C 0.61044 0.7019 0.90013 0.0
C1398 C 0.54824 0.70848 0.9008 0.0
C1399 C 0.56481 0.6749 0.89465 0.0
N1400 N 0.61989 0.62425 0.87931 0.0
N1401 N 0.55751 0.75667 0.89917 0.0
C1402 C 0.60414 0.65505 0.89009 0.0
C1403 C 0.57168 0.72287 0.90034 0.0
N1404 N 0.66331 0.64718 0.89982 0.0
N1405 N 0.51004 0.72615 0.90848 0.0
H1406 H 0.57378 0.76799 0.89941 0.0
H1407 H 0.53044 0.77404 0.89464 0.0
H1408 H 0.49206 0.7168 0.90768 0.0
H1409 H 0.49599 0.7491 0.91836 0.0
H1410 H 0.67566 0.62111 0.90221 0.0
H1411 H 0.68086 0.65574 0.9037 0.0
H1412 H 0.64869 0.61001 0.8712 0.0
H1413 H 0.60412 0.61404 0.87497 0.0
C1414 C 0.86209 0.88632 0.79889 0.0
C1415 C 0.89181 0.88041 0.76246 0.0
C1416 C 0.86441 0.94146 0.72935 0.0
C1417 C 0.83536 0.94744 0.76671 0.0
N1418 N 0.81325 0.92567 0.84209 0.0
N1419 N 0.92391 0.90236 0.6947 0.0
C1420 C 0.83639 0.92004 0.80309 0.0
C1421 C 0.89367 0.90803 0.72807 0.0
N1422 N 0.85685 0.85952 0.82851 0.0
N1423 N 0.86392 0.96794 0.69502 0.0
H1424 H 0.94461 0.87814 0.69186 0.0
H1425 H 0.92962 0.92146 0.67097 0.0
H1426 H 0.84572 0.99311 0.69673 0.0
H1427 H 0.88084 0.96514 0.66464 0.0
H1428 H 0.83298 0.86209 0.85266 0.0
H1429 H 0.87432 0.83446 0.82619 0.0
H1430 H 0.81629 0.90699 0.87046 0.0
H1431 H 0.79366 0.94928 0.84811 0.0
C1432 C 0.45794 0.11645 0.64338 0.0
C1433 C 0.45157 0.14914 0.6166 0.0
C1434 C 0.45231 0.13002 0.55615 0.0
C1435 C 0.46209 0.09654 0.58169 0.0
N1436 N 0.48176 0.05646 0.64687 0.0
N1437 N 0.4506 0.18514 0.54517 0.0
C1438 C 0.46695 0.08932 0.62463 0.0
C1439 C 0.45114 0.15535 0.57224 0.0
N1440 N 0.45431 0.11151 0.68694 0.0
N1441 N 0.44228 0.13814 0.51738 0.0
H1442 H 0.45 0.20424 0.55566 0.0
H1443 H 0.45433 0.18956 0.5117 0.0
H1444 H 0.44108 0.12078 0.50525 0.0
H1445 H 0.43135 0.16286 0.49942 0.0
H1446 H 0.45457 0.08922 0.70868 0.0
H1447 H 0.44784 0.13069 0.70186 0.0
H1448 H 0.48967 0.04948 0.67644 0.0
H1449 H 0.48955 0.03583 0.63397 0.0
C1450 C 0.46022 0.42933 0.92496 0.0
C1451 C 0.49636 0.40883 0.90446 0.0
C1452 C 0.52335 0.43923 0.92128 0.0
C1453 C 0.4869 0.46056 0.94052 0.0
N1454 N 0.41957 0.47781 0.95563 0.0
N1455 N 0.56084 0.3992 0.87424 0.0
C1456 C 0.45524 0.45633 0.94068 0.0
C1457 C 0.5275 0.41528 0.89996 0.0
N1458 N 0.43012 0.42317 0.92983 0.0
N1459 N 0.55426 0.44027 0.92566 0.0
H1460 H 0.56491 0.38165 0.85797 0.0
H1461 H 0.58332 0.40552 0.86578 0.0
H1462 H 0.55274 0.45698 0.94144 0.0
H1463 H 0.58158 0.42259 0.91694 0.0
H1464 H 0.40316 0.43774 0.94488 0.0
H1465 H 0.43222 0.40312 0.91996 0.0
H1466 H 0.4127 0.49927 0.96622 0.0
H1467 H 0.4127 0.49927 0.96622 0.0
C1468 C 0.51759 0.91533 0.40762 0.0
C1469 C 0.49327 0.89893 0.42625 0.0
C1470 C 0.4619 0.93222 0.48248 0.0
C1471 C 0.48746 0.94748 0.46545 0.0
N1472 N 0.54378 0.94912 0.41616 0.0
N1473 N 0.44195 0.89174 0.4815 0.0
C1474 C 0.51633 0.93796 0.42899 0.0
C1475 C 0.46553 0.90733 0.46365 0.0
N1476 N 0.54107 0.91009 0.36866 0.0
N1477 N 0.43329 0.94092 0.51674 0.0
H1478 H 0.44367 0.87288 0.46943 0.0
H1479 H 0.42078 0.89763 0.50864 0.0
H1480 H 0.42751 0.95923 0.53274 0.0
H1481 H 0.42751 0.95923 0.53274 0.0
H1482 H 0.55637 0.92411 0.35078 0.0
H1483 H 0.54301 0.89354 0.35228 0.0
H1484 H 0.56787 0.94019 0.39304 0.0
H1485 H 0.5443 0.96518 0.43132 0.0
C1486 C 0.42321 0.60966 0.11063 0.0
C1487 C 0.45962 0.59123 0.08819 0.0
C1488 C 0.48347 0.62518 0.10247 0.0
C1489 C 0.44719 0.64364 0.12492 0.0
N1490 N 0.3842 0.6497 0.15775 0.0
N1491 N 0.52556 0.58 0.06623 0.0
C1492 C 0.41748 0.63477 0.13114 0.0
C1493 C 0.48995 0.59817 0.08566 0.0
N1494 N 0.39395 0.60368 0.11137 0.0
N1495 N 0.51215 0.63366 0.09627 0.0
H1496 H 0.53339 0.55939 0.05328 0.0
H1497 H 0.53339 0.55939 0.05328 0.0
H1498 H 0.50892 0.65384 0.10689 0.0
H1499 H 0.53913 0.62072 0.07969 0.0
H1500 H 0.36597 0.6188 0.12244 0.0
H1501 H 0.39748 0.58428 0.09884 0.0
H1502 H 0.36254 0.64222 0.16729 0.0
H1503 H 0.37923 0.66805 0.17325 0.0
loop_
_geom_bond_atom_site_label_1
_geom_bond_atom_site_label_2
_geom_bond_distance
_geom_bond_site_symmetry_2
_ccdc_geom_bond_type
Eu0 C9 2.828 . S
Eu0 O11 2.392 1_565 S
Eu0 O13 2.418 1_655 S
Eu0 O18 2.375 1_654 S
Eu0 O21 2.488 . S
Eu0 O22 2.471 . S
Eu0 O23 2.349 1_564 S
Eu1 O10 2.363 1_456 S
Eu1 O14 2.488 . S
Eu1 O15 2.471 . S
Eu1 O16 2.349 1_546 S
Eu1 O19 2.392 1_545 S
Eu1 O20 2.418 1_455 S
Eu1 C30 2.828 . S
C2 O20 1.244 . S
C2 O23 1.265 . S
C3 C4 1.379 . S
C3 C7 1.373 . S
C3 C9 1.505 . S
C4 C3 1.379 . S
C4 C6 1.369 . S
C4 H32 0.930 . S
C5 C7 1.383 . S
C5 C8 1.382 . S
C5 H33 0.930 . S
C6 C4 1.369 . S
C6 C8 1.392 . S
C6 H34 0.930 . S
C7 C3 1.373 . S
C7 C5 1.383 . S
C7 H35 0.931 . S
C8 C5 1.382 . S
C8 C6 1.392 . S
C9 Eu0 2.828 . S
C9 C3 1.505 . S
C9 O21 1.249 . S
C9 O22 1.244 . S
O10 Eu1 2.363 1_654 S
O10 C12 1.270 . S
O11 Eu0 2.392 1_545 S
O11 C12 1.242 . S
C12 O10 1.270 . S
C12 O11 1.242 . S
O13 Eu0 2.418 1_455 S
O13 C17 1.244 . S
O14 Eu1 2.488 . S
O14 C30 1.249 . S
O15 Eu1 2.471 . S
O15 C30 1.244 . S
O16 Eu1 2.349 1_564 S
O16 C17 1.265 . S
C17 O13 1.244 . S
C17 O16 1.265 . S
O18 Eu0 2.375 1_456 S
O18 C31 1.255 . S
O19 Eu1 2.392 1_565 S
O19 C31 1.242 . S
O20 Eu1 2.418 1_655 S
O20 C2 1.244 . S
O21 Eu0 2.488 . S
O21 C9 1.249 . S
O22 Eu0 2.471 . S
O22 C9 1.244 . S
O23 Eu0 2.349 1_546 S
O23 C2 1.265 . S
C24 C25 1.379 . S
C24 C28 1.373 . S
C24 C30 1.505 . S
C25 C24 1.379 . S
C25 C27 1.369 . S
C25 H36 0.930 . S
C26 C28 1.383 . S
C26 C29 1.382 . S
C26 H37 0.930 . S
C27 C25 1.369 . S
C27 C29 1.392 . S
C27 H38 0.930 . S
C28 C24 1.373 . S
C28 C26 1.383 . S
C28 H39 0.931 . S
C29 C26 1.382 . S
C29 C27 1.392 . S
C30 Eu1 2.828 . S
C30 O14 1.249 . S
C30 O15 1.244 . S
C30 C24 1.505 . S
C31 O18 1.255 . S
C31 O19 1.242 . S
H32 C4 0.930 . S
H33 C5 0.930 . S
H34 C6 0.930 . S
H35 C7 0.931 . S
H36 C25 0.930 . S
H37 C26 0.930 . S
H38 C27 0.930 . S
H39 C28 0.931 . S
Eu40 C49 2.828 . S
Eu40 O51 2.392 . S
Eu40 O53 2.418 . S
Eu40 O58 2.373 1_455 S
Eu40 O61 2.488 . S
Eu40 O62 2.471 1_455 S
Eu40 O63 2.349 1_455 S
Eu41 O50 2.373 1_655 S
Eu41 O54 2.488 . S
Eu41 O55 2.471 1_655 S
Eu41 O56 2.349 1_655 S
Eu41 O59 2.392 . S
Eu41 O60 2.418 . S
Eu41 C70 2.828 . S
C42 O60 1.244 . S
C42 O63 1.265 . S
C43 C44 1.379 . S
C43 C47 1.373 1_655 S
C43 C49 1.505 1_655 S
C44 C43 1.379 . S
C44 C46 1.369 . S
C44 H72 0.930 . S
C45 C47 1.383 . S
C45 C48 1.382 1_455 S
C45 H73 0.930 . S
C46 C44 1.369 . S
C46 C48 1.392 . S
C46 H74 0.930 . S
C47 C43 1.373 1_455 S
C47 C45 1.383 . S
C47 H75 0.931 . S
C48 C45 1.382 1_655 S
C48 C46 1.392 . S
C49 Eu40 2.828 . S
C49 C43 1.505 1_455 S
C49 O61 1.249 . S
C49 O62 1.244 1_455 S
O50 Eu41 2.373 1_455 S
O50 C52 1.258 . S
O51 Eu40 2.392 . S
O51 C52 1.242 . S
C52 O50 1.258 . S
C52 O51 1.242 . S
O53 Eu40 2.418 . S
O53 C57 1.244 . S
O54 Eu41 2.488 . S
O54 C70 1.249 . S
O55 Eu41 2.471 1_455 S
O55 C70 1.244 1_455 S
O56 Eu41 2.349 1_455 S
O56 C57 1.265 . S
C57 O53 1.244 . S
C57 O56 1.265 . S
O58 Eu40 2.373 1_655 S
O58 C71 1.258 . S
O59 Eu41 2.392 . S
O59 C71 1.242 . S
O60 Eu41 2.418 . S
O60 C42 1.244 . S
O61 Eu40 2.488 . S
O61 C49 1.249 . S
O62 Eu40 2.471 1_655 S
O62 C49 1.244 1_655 S
O63 Eu40 2.349 1_655 S
O63 C42 1.265 . S
C64 C65 1.379 . S
C64 C68 1.373 1_455 S
C64 C70 1.505 1_455 S
C65 C64 1.379 . S
C65 C67 1.369 . S
C65 H76 0.930 . S
C66 C68 1.383 . S
C66 C69 1.382 1_655 S
C66 H77 0.930 . S
C67 C65 1.369 . S
C67 C69 1.392 . S
C67 H78 0.930 . S
C68 C64 1.373 1_655 S
C68 C66 1.383 . S
C68 H79 0.931 . S
C69 C66 1.382 1_455 S
C69 C67 1.392 . S
C70 Eu41 2.828 . S
C70 O54 1.249 . S
C70 O55 1.244 1_655 S
C70 C64 1.505 1_655 S
C71 O58 1.258 . S
C71 O59 1.242 . S
H72 C44 0.930 . S
H73 C45 0.930 . S
H74 C46 0.930 . S
H75 C47 0.931 . S
H76 C65 0.930 . S
H77 C66 0.930 . S
H78 C67 0.930 . S
H79 C68 0.931 . S
Eu80 C89 2.828 . S
Eu80 O91 2.392 . S
Eu80 O93 2.418 . S
Eu80 O98 2.373 . S
Eu80 O101 2.488 . S
Eu80 O102 2.471 . S
Eu80 O103 2.349 . S
Eu81 O90 2.373 . S
Eu81 O94 2.488 . S
Eu81 O95 2.471 . S
Eu81 O96 2.349 . S
Eu81 O99 2.392 . S
Eu81 O100 2.418 . S
Eu81 C110 2.828 . S
C82 O100 1.244 . S
C82 O103 1.265 . S
C83 C84 1.379 . S
C83 C87 1.373 . S
C83 C89 1.505 . S
C84 C83 1.379 . S
C84 C86 1.369 . S
C84 H112 0.930 . S
C85 C87 1.383 . S
C85 C88 1.382 . S
C85 H113 0.930 . S
C86 C84 1.369 . S
C86 C88 1.392 . S
C86 H114 0.930 . S
C87 C83 1.373 . S
C87 C85 1.383 . S
C87 H115 0.931 . S
C88 C85 1.382 . S
C88 C86 1.392 . S
C89 Eu80 2.828 . S
C89 C83 1.505 . S
C89 O101 1.249 . S
C89 O102 1.244 . S
O90 Eu81 2.373 . S
O90 C92 1.258 . S
O91 Eu80 2.392 . S
O91 C92 1.242 . S
C92 O90 1.258 . S
C92 O91 1.242 . S
O93 Eu80 2.418 . S
O93 C97 1.244 . S
O94 Eu81 2.488 . S
O94 C110 1.249 . S
O95 Eu81 2.471 . S
O95 C110 1.244 . S
O96 Eu81 2.349 . S
O96 C97 1.265 . S
C97 O93 1.244 . S
C97 O96 1.265 . S
O98 Eu80 2.373 . S
O98 C111 1.258 . S
O99 Eu81 2.392 . S
O99 C111 1.242 . S
O100 Eu81 2.418 . S
O100 C82 1.244 . S
O101 Eu80 2.488 . S
O101 C89 1.249 . S
O102 Eu80 2.471 . S
O102 C89 1.244 . S
O103 Eu80 2.349 . S
O103 C82 1.265 . S
C104 C105 1.379 . S
C104 C108 1.373 . S
C104 C110 1.505 . S
C105 C104 1.379 . S
C105 C107 1.369 . S
C105 H116 0.930 . S
C106 C108 1.383 . S
C106 C109 1.382 . S
C106 H117 0.930 . S
C107 C105 1.369 . S
C107 C109 1.392 . S
C107 H118 0.930 . S
C108 C104 1.373 . S
C108 C106 1.383 . S
C108 H119 0.931 . S
C109 C106 1.382 . S
C109 C107 1.392 . S
C110 Eu81 2.828 . S
C110 O94 1.249 . S
C110 O95 1.244 . S
C110 C104 1.505 . S
C111 O98 1.258 . S
C111 O99 1.242 . S
H112 C84 0.930 . S
H113 C85 0.930 . S
H114 C86 0.930 . S
H115 C87 0.931 . S
H116 C105 0.930 . S
H117 C106 0.930 . S
H118 C107 0.930 . S
H119 C108 0.931 . S
Eu120 C129 2.828 1_565 S
Eu120 O131 2.392 . S
Eu120 O133 2.418 . S
Eu120 O138 2.373 1_565 S
Eu120 O141 2.488 . S
Eu120 O142 2.471 1_565 S
Eu120 O143 2.349 1_565 S
Eu121 O130 2.373 1_545 S
Eu121 O134 2.488 . S
Eu121 O135 2.471 1_545 S
Eu121 O136 2.349 1_545 S
Eu121 O139 2.392 . S
Eu121 O140 2.418 . S
Eu121 C150 2.828 . S
C122 O140 1.244 . S
C122 O143 1.265 . S
C123 C124 1.379 . S
C123 C127 1.373 1_545 S
C123 C129 1.505 . S
C124 C123 1.379 . S
C124 C126 1.369 . S
C124 H152 0.930 . S
C125 C127 1.383 1_545 S
C125 C128 1.382 . S
C125 H153 0.930 1_545 S
C126 C124 1.369 . S
C126 C128 1.392 . S
C126 H154 0.930 . S
C127 C123 1.373 1_565 S
C127 C125 1.383 1_565 S
C127 H155 0.931 . S
C128 C125 1.382 . S
C128 C126 1.392 . S
C129 Eu120 2.828 1_545 S
C129 C123 1.505 . S
C129 O141 1.249 1_545 S
C129 O142 1.244 . S
O130 Eu121 2.373 1_565 S
O130 C132 1.258 . S
O131 Eu120 2.392 . S
O131 C132 1.242 . S
C132 O130 1.258 . S
C132 O131 1.242 . S
O133 Eu120 2.418 . S
O133 C137 1.244 . S
O134 Eu121 2.488 . S
O134 C150 1.248 . S
O135 Eu121 2.471 1_565 S
O135 C150 1.246 1_565 S
O136 Eu121 2.349 1_565 S
O136 C137 1.265 . S
C137 O133 1.244 . S
C137 O136 1.265 . S
O138 Eu120 2.373 1_545 S
O138 C151 1.258 . S
O139 Eu121 2.392 . S
O139 C151 1.242 . S
O140 Eu121 2.418 . S
O140 C122 1.244 . S
O141 Eu120 2.488 . S
O141 C129 1.249 1_565 S
O142 Eu120 2.471 1_545 S
O142 C129 1.244 . S
O143 Eu120 2.349 1_545 S
O143 C122 1.265 . S
C144 C145 1.379 . S
C144 C148 1.373 1_565 S
C144 C150 1.505 1_565 S
C145 C144 1.379 . S
C145 C147 1.369 . S
C145 H156 0.930 . S
C146 C148 1.383 . S
C146 C149 1.382 1_545 S
C146 H157 0.931 . S
C147 C145 1.369 . S
C147 C149 1.392 . S
C147 H158 0.930 . S
C148 C144 1.373 1_545 S
C148 C146 1.383 . S
C148 H159 0.931 . S
C149 C146 1.382 1_565 S
C149 C147 1.392 . S
C150 Eu121 2.828 . S
C150 O134 1.248 . S
C150 O135 1.246 1_545 S
C150 C144 1.505 1_545 S
C151 O138 1.258 . S
C151 O139 1.242 . S
H152 C124 0.930 . S
H153 C125 0.930 1_565 S
H154 C126 0.930 . S
H155 C127 0.931 . S
H156 C145 0.930 . S
H157 C146 0.931 . S
H158 C147 0.930 . S
H159 C148 0.931 . S
Eu160 C169 2.828 . S
Eu160 O171 2.392 . S
Eu160 O173 2.418 . S
Eu160 O178 2.373 . S
Eu160 O181 2.488 . S
Eu160 O182 2.471 . S
Eu160 O183 2.349 . S
Eu161 O170 2.373 . S
Eu161 O174 2.488 . S
Eu161 O175 2.471 . S
Eu161 O176 2.349 . S
Eu161 O179 2.392 . S
Eu161 O180 2.418 . S
Eu161 C190 2.828 . S
C162 O180 1.244 . S
C162 O183 1.265 . S
C163 C164 1.379 . S
C163 C167 1.373 . S
C163 C169 1.505 . S
C164 C163 1.379 . S
C164 C166 1.369 . S
C164 H192 0.930 . S
C165 C167 1.383 . S
C165 C168 1.382 . S
C165 H193 0.930 . S
C166 C164 1.369 . S
C166 C168 1.392 . S
C166 H194 0.930 . S
C167 C163 1.373 . S
C167 C165 1.383 . S
C167 H195 0.931 . S
C168 C165 1.382 . S
C168 C166 1.392 . S
C169 Eu160 2.828 . S
C169 C163 1.505 . S
C169 O181 1.249 . S
C169 O182 1.244 . S
O170 Eu161 2.373 . S
O170 C172 1.258 . S
O171 Eu160 2.392 . S
O171 C172 1.242 . S
C172 O170 1.258 . S
C172 O171 1.242 . S
O173 Eu160 2.418 . S
O173 C177 1.244 . S
O174 Eu161 2.488 . S
O174 C190 1.249 . S
O175 Eu161 2.471 . S
O175 C190 1.244 . S
O176 Eu161 2.349 . S
O176 C177 1.265 . S
C177 O173 1.244 . S
C177 O176 1.265 . S
O178 Eu160 2.373 . S
O178 C191 1.258 . S
O179 Eu161 2.392 . S
O179 C191 1.242 . S
O180 Eu161 2.418 . S
O180 C162 1.244 . S
O181 Eu160 2.488 . S
O181 C169 1.249 . S
O182 Eu160 2.471 . S
O182 C169 1.244 . S
O183 Eu160 2.349 . S
O183 C162 1.265 . S
C184 C185 1.379 . S
C184 C188 1.373 . S
C184 C190 1.505 . S
C185 C184 1.379 . S
C185 C187 1.369 . S
C185 H196 0.930 . S
C186 C188 1.383 . S
C186 C189 1.382 . S
C186 H197 0.930 . S
C187 C185 1.369 . S
C187 C189 1.392 . S
C187 H198 0.930 . S
C188 C184 1.373 . S
C188 C186 1.383 . S
C188 H199 0.931 . S
C189 C186 1.382 . S
C189 C187 1.392 . S
C190 Eu161 2.828 . S
C190 O174 1.249 . S
C190 O175 1.244 . S
C190 C184 1.505 . S
C191 O178 1.258 . S
C191 O179 1.242 . S
H192 C164 0.930 . S
H193 C165 0.930 . S
H194 C166 0.930 . S
H195 C167 0.931 . S
H196 C185 0.930 . S
H197 C186 0.930 . S
H198 C187 0.930 . S
H199 C188 0.931 . S
Eu200 C209 2.828 . S
Eu200 O211 2.392 . S
Eu200 O213 2.418 . S
Eu200 O218 2.373 . S
Eu200 O221 2.488 . S
Eu200 O222 2.471 . S
Eu200 O223 2.349 . S
Eu201 O210 2.373 . S
Eu201 O214 2.488 . S
Eu201 O215 2.471 . S
Eu201 O216 2.349 . S
Eu201 O219 2.392 . S
Eu201 O220 2.418 . S
Eu201 C230 2.828 . S
C202 O220 1.244 . S
C202 O223 1.265 . S
C203 C204 1.379 . S
C203 C207 1.373 . S
C203 C209 1.505 . S
C204 C203 1.379 . S
C204 C206 1.369 . S
C204 H232 0.930 . S
C205 C207 1.383 . S
C205 C208 1.382 . S
C205 H233 0.930 . S
C206 C204 1.369 . S
C206 C208 1.392 . S
C206 H234 0.930 . S
C207 C203 1.373 . S
C207 C205 1.383 . S
C207 H235 0.931 . S
C208 C205 1.382 . S
C208 C206 1.392 . S
C209 Eu200 2.828 . S
C209 C203 1.505 . S
C209 O221 1.249 . S
C209 O222 1.244 . S
O210 Eu201 2.373 . S
O210 C212 1.258 . S
O211 Eu200 2.392 . S
O211 C212 1.242 . S
C212 O210 1.258 . S
C212 O211 1.242 . S
O213 Eu200 2.418 . S
O213 C217 1.244 . S
O214 Eu201 2.488 . S
O214 C230 1.249 . S
O215 Eu201 2.471 . S
O215 C230 1.244 . S
O216 Eu201 2.349 . S
O216 C217 1.265 . S
C217 O213 1.244 . S
C217 O216 1.265 . S
O218 Eu200 2.373 . S
O218 C231 1.258 . S
O219 Eu201 2.392 . S
O219 C231 1.242 . S
O220 Eu201 2.418 . S
O220 C202 1.244 . S
O221 Eu200 2.488 . S
O221 C209 1.249 . S
O222 Eu200 2.471 . S
O222 C209 1.244 . S
O223 Eu200 2.349 . S
O223 C202 1.265 . S
C224 C225 1.379 . S
C224 C228 1.373 . S
C224 C230 1.505 . S
C225 C224 1.379 . S
C225 C227 1.369 . S
C225 H236 0.930 . S
C226 C228 1.383 . S
C226 C229 1.382 . S
C226 H237 0.930 . S
C227 C225 1.369 . S
C227 C229 1.392 . S
C227 H238 0.930 . S
C228 C224 1.373 . S
C228 C226 1.383 . S
C228 H239 0.931 . S
C229 C226 1.382 . S
C229 C227 1.392 . S
C230 Eu201 2.828 . S
C230 O214 1.249 . S
C230 O215 1.244 . S
C230 C224 1.505 . S
C231 O218 1.258 . S
C231 O219 1.242 . S
H232 C204 0.930 . S
H233 C205 0.930 . S
H234 C206 0.930 . S
H235 C207 0.931 . S
H236 C225 0.930 . S
H237 C226 0.930 . S
H238 C227 0.930 . S
H239 C228 0.931 . S
Eu240 C249 2.828 . S
Eu240 O251 2.392 . S
Eu240 O253 2.418 . S
Eu240 O258 2.373 . S
Eu240 O261 2.488 . S
Eu240 O262 2.471 . S
Eu240 O263 2.349 . S
Eu241 O250 2.373 . S
Eu241 O254 2.488 . S
Eu241 O255 2.471 . S
Eu241 O256 2.349 . S
Eu241 O259 2.392 . S
Eu241 O260 2.418 . S
Eu241 C270 2.828 . S
C242 O260 1.244 . S
C242 O263 1.265 . S
C243 C244 1.379 . S
C243 C247 1.373 . S
C243 C249 1.505 . S
C244 C243 1.379 . S
C244 C246 1.369 . S
C244 H272 0.930 . S
C245 C247 1.383 . S
C245 C248 1.382 . S
C245 H273 0.930 . S
C246 C244 1.369 . S
C246 C248 1.392 . S
C246 H274 0.930 . S
C247 C243 1.373 . S
C247 C245 1.383 . S
C247 H275 0.931 . S
C248 C245 1.382 . S
C248 C246 1.392 . S
C249 Eu240 2.828 . S
C249 C243 1.505 . S
C249 O261 1.249 . S
C249 O262 1.244 . S
O250 Eu241 2.373 . S
O250 C252 1.258 . S
O251 Eu240 2.392 . S
O251 C252 1.242 . S
C252 O250 1.258 . S
C252 O251 1.242 . S
O253 Eu240 2.418 . S
O253 C257 1.244 . S
O254 Eu241 2.488 . S
O254 C270 1.249 . S
O255 Eu241 2.471 . S
O255 C270 1.244 . S
O256 Eu241 2.349 . S
O256 C257 1.265 . S
C257 O253 1.244 . S
C257 O256 1.265 . S
O258 Eu240 2.373 . S
O258 C271 1.258 . S
O259 Eu241 2.392 . S
O259 C271 1.242 . S
O260 Eu241 2.418 . S
O260 C242 1.244 . S
O261 Eu240 2.488 . S
O261 C249 1.249 . S
O262 Eu240 2.471 . S
O262 C249 1.244 . S
O263 Eu240 2.349 . S
O263 C242 1.265 . S
C264 C265 1.379 . S
C264 C268 1.373 . S
C264 C270 1.505 . S
C265 C264 1.379 . S
C265 C267 1.369 . S
C265 H276 0.930 . S
C266 C268 1.383 . S
C266 C269 1.382 . S
C266 H277 0.930 . S
C267 C265 1.369 . S
C267 C269 1.392 . S
C267 H278 0.930 . S
C268 C264 1.373 . S
C268 C266 1.383 . S
C268 H279 0.931 . S
C269 C266 1.382 . S
C269 C267 1.392 . S
C270 Eu241 2.828 . S
C270 O254 1.249 . S
C270 O255 1.244 . S
C270 C264 1.505 . S
C271 O258 1.258 . S
C271 O259 1.242 . S
H272 C244 0.930 . S
H273 C245 0.930 . S
H274 C246 0.930 . S
H275 C247 0.931 . S
H276 C265 0.930 . S
H277 C266 0.930 . S
H278 C267 0.930 . S
H279 C268 0.931 . S
Eu280 C289 2.828 . S
Eu280 O291 2.392 . S
Eu280 O293 2.418 1_655 S
Eu280 O298 2.373 1_655 S
Eu280 O301 2.488 . S
Eu280 O302 2.471 . S
Eu280 O303 2.349 . S
Eu281 O290 2.373 1_455 S
Eu281 O294 2.488 . S
Eu281 O295 2.471 . S
Eu281 O296 2.349 . S
Eu281 O299 2.392 . S
Eu281 O300 2.418 1_455 S
Eu281 C310 2.828 . S
C282 O300 1.244 . S
C282 O303 1.265 . S
C283 C284 1.379 . S
C283 C287 1.373 . S
C283 C289 1.505 . S
C284 C283 1.379 . S
C284 C286 1.369 . S
C284 H312 0.930 . S
C285 C287 1.383 . S
C285 C288 1.382 . S
C285 H313 0.930 . S
C286 C284 1.369 . S
C286 C288 1.392 . S
C286 H314 0.930 . S
C287 C283 1.373 . S
C287 C285 1.383 . S
C287 H315 0.931 . S
C288 C285 1.382 . S
C288 C286 1.392 . S
C289 Eu280 2.828 . S
C289 C283 1.505 . S
C289 O301 1.249 . S
C289 O302 1.244 . S
O290 Eu281 2.373 1_655 S
O290 C292 1.258 . S
O291 Eu280 2.392 . S
O291 C292 1.242 . S
C292 O290 1.258 . S
C292 O291 1.242 . S
O293 Eu280 2.418 1_455 S
O293 C297 1.244 . S
O294 Eu281 2.488 . S
O294 C310 1.249 . S
O295 Eu281 2.471 . S
O295 C310 1.244 . S
O296 Eu281 2.349 . S
O296 C297 1.265 . S
C297 O293 1.244 . S
C297 O296 1.265 . S
O298 Eu280 2.373 1_455 S
O298 C311 1.258 . S
O299 Eu281 2.392 . S
O299 C311 1.242 . S
O300 Eu281 2.418 1_655 S
O300 C282 1.244 . S
O301 Eu280 2.488 . S
O301 C289 1.249 . S
O302 Eu280 2.471 . S
O302 C289 1.244 . S
O303 Eu280 2.349 . S
O303 C282 1.265 . S
C304 C305 1.379 . S
C304 C308 1.373 . S
C304 C310 1.505 . S
C305 C304 1.379 . S
C305 C307 1.369 . S
C305 H316 0.930 . S
C306 C308 1.383 . S
C306 C309 1.382 . S
C306 H317 0.930 . S
C307 C305 1.369 . S
C307 C309 1.392 . S
C307 H318 0.930 . S
C308 C304 1.373 . S
C308 C306 1.383 . S
C308 H319 0.931 . S
C309 C306 1.382 . S
C309 C307 1.392 . S
C310 Eu281 2.828 . S
C310 O294 1.249 . S
C310 O295 1.244 . S
C310 C304 1.505 . S
C311 O298 1.258 . S
C311 O299 1.242 . S
H312 C284 0.930 . S
H313 C285 0.930 . S
H314 C286 0.930 . S
H315 C287 0.931 . S
H316 C305 0.930 . S
H317 C306 0.930 . S
H318 C307 0.930 . S
H319 C308 0.931 . S
Eu320 C329 2.828 . S
Eu320 O331 2.392 . S
Eu320 O333 2.418 . S
Eu320 O338 2.373 1_554 S
Eu320 O341 2.488 . S
Eu320 O342 2.471 . S
Eu320 O343 2.349 1_554 S
Eu321 O330 2.373 1_556 S
Eu321 O334 2.488 . S
Eu321 O335 2.471 . S
Eu321 O336 2.349 1_556 S
Eu321 O339 2.392 . S
Eu321 O340 2.418 . S
Eu321 C350 2.828 . S
C322 O340 1.244 . S
C322 O343 1.265 . S
C323 C324 1.379 . S
C323 C327 1.373 . S
C323 C329 1.505 . S
C324 C323 1.379 . S
C324 C326 1.369 1_554 S
C324 H352 0.930 1_554 S
C325 C327 1.383 . S
C325 C328 1.382 . S
C325 H353 0.930 . S
C326 C324 1.369 1_556 S
C326 C328 1.392 1_556 S
C326 H354 0.930 . S
C327 C323 1.373 . S
C327 C325 1.383 . S
C327 H355 0.931 . S
C328 C325 1.382 . S
C328 C326 1.392 1_554 S
C329 Eu320 2.828 . S
C329 C323 1.505 . S
C329 O341 1.249 . S
C329 O342 1.244 . S
O330 Eu321 2.373 1_554 S
O330 C332 1.258 . S
O331 Eu320 2.392 . S
O331 C332 1.242 . S
C332 O330 1.258 . S
C332 O331 1.242 . S
O333 Eu320 2.418 . S
O333 C337 1.244 . S
O334 Eu321 2.488 . S
O334 C350 1.249 . S
O335 Eu321 2.471 . S
O335 C350 1.244 . S
O336 Eu321 2.349 1_554 S
O336 C337 1.265 . S
C337 O333 1.244 . S
C337 O336 1.265 . S
O338 Eu320 2.373 1_556 S
O338 C351 1.258 . S
O339 Eu321 2.392 . S
O339 C351 1.242 . S
O340 Eu321 2.418 . S
O340 C322 1.244 . S
O341 Eu320 2.488 . S
O341 C329 1.249 . S
O342 Eu320 2.471 . S
O342 C329 1.244 . S
O343 Eu320 2.349 1_556 S
O343 C322 1.265 . S
C344 C345 1.388 . S
C344 C348 1.373 . S
C344 C350 1.505 . S
C345 C344 1.388 . S
C345 C347 1.372 1_556 S
C345 H356 0.917 1_556 S
C346 C348 1.383 . S
C346 C349 1.382 . S
C346 H357 0.930 . S
C347 C345 1.372 1_554 S
C347 C349 1.392 1_554 S
C347 H358 0.930 . S
C348 C344 1.373 . S
C348 C346 1.383 . S
C348 H359 0.931 . S
C349 C346 1.382 . S
C349 C347 1.392 1_556 S
C350 Eu321 2.828 . S
C350 O334 1.249 . S
C350 O335 1.244 . S
C350 C344 1.505 . S
C351 O338 1.258 . S
C351 O339 1.242 . S
H352 C324 0.930 1_556 S
H353 C325 0.930 . S
H354 C326 0.930 . S
H355 C327 0.931 . S
H356 C345 0.917 1_554 S
H357 C346 0.930 . S
H358 C347 0.930 . S
H359 C348 0.931 . S
Eu360 C369 2.828 1_565 S
Eu360 O371 2.392 . S
Eu360 O373 2.418 . S
Eu360 O378 2.373 1_565 S
Eu360 O381 2.488 . S
Eu360 O382 2.471 1_565 S
Eu360 O383 2.349 1_565 S
Eu361 O370 2.373 1_545 S
Eu361 O374 2.488 . S
Eu361 O375 2.471 1_545 S
Eu361 O376 2.349 1_545 S
Eu361 O379 2.392 . S
Eu361 O380 2.418 . S
Eu361 C390 2.828 . S
C362 O380 1.244 . S
C362 O383 1.265 . S
C363 C364 1.379 . S
C363 C367 1.373 1_545 S
C363 C369 1.505 . S
C364 C363 1.379 . S
C364 C366 1.369 . S
C364 H392 0.930 . S
C365 C367 1.383 1_545 S
C365 C368 1.382 . S
C365 H393 0.930 1_545 S
C366 C364 1.369 . S
C366 C368 1.392 . S
C366 H394 0.930 . S
C367 C363 1.373 1_565 S
C367 C365 1.383 1_565 S
C367 H395 0.931 . S
C368 C365 1.382 . S
C368 C366 1.392 . S
C369 Eu360 2.828 1_545 S
C369 C363 1.505 . S
C369 O381 1.249 1_545 S
C369 O382 1.244 . S
O370 Eu361 2.373 1_565 S
O370 C372 1.258 . S
O371 Eu360 2.392 . S
O371 C372 1.242 . S
C372 O370 1.258 . S
C372 O371 1.242 . S
O373 Eu360 2.418 . S
O373 C377 1.244 . S
O374 Eu361 2.488 . S
O374 C390 1.248 . S
O375 Eu361 2.471 1_565 S
O375 C390 1.246 1_565 S
O376 Eu361 2.349 1_565 S
O376 C377 1.265 . S
C377 O373 1.244 . S
C377 O376 1.265 . S
O378 Eu360 2.373 1_545 S
O378 C391 1.258 . S
O379 Eu361 2.392 . S
O379 C391 1.242 . S
O380 Eu361 2.418 . S
O380 C362 1.244 . S
O381 Eu360 2.488 . S
O381 C369 1.249 1_565 S
O382 Eu360 2.471 1_545 S
O382 C369 1.244 . S
O383 Eu360 2.349 1_545 S
O383 C362 1.265 . S
C384 C385 1.379 . S
C384 C388 1.373 1_565 S
C384 C390 1.505 1_565 S
C385 C384 1.379 . S
C385 C387 1.369 . S
C385 H396 0.930 . S
C386 C388 1.383 . S
C386 C389 1.381 1_545 S
C386 H397 0.932 . S
C387 C385 1.369 . S
C387 C389 1.392 . S
C387 H398 0.930 . S
C388 C384 1.373 1_545 S
C388 C386 1.383 . S
C388 H399 0.931 . S
C389 C386 1.381 1_565 S
C389 C387 1.392 . S
C390 Eu361 2.828 . S
C390 O374 1.248 . S
C390 O375 1.246 1_545 S
C390 C384 1.505 1_545 S
C391 O378 1.258 . S
C391 O379 1.242 . S
H392 C364 0.930 . S
H393 C365 0.930 1_565 S
H394 C366 0.930 . S
H395 C367 0.931 . S
H396 C385 0.930 . S
H397 C386 0.932 . S
H398 C387 0.930 . S
H399 C388 0.931 . S
Eu400 C409 2.828 . S
Eu400 O411 2.392 . S
Eu400 O413 2.418 . S
Eu400 O418 2.373 . S
Eu400 O421 2.488 . S
Eu400 O422 2.471 . S
Eu400 O423 2.349 . S
Eu401 O410 2.373 . S
Eu401 O414 2.488 . S
Eu401 O415 2.471 . S
Eu401 O416 2.349 . S
Eu401 O419 2.392 . S
Eu401 O420 2.418 . S
Eu401 C430 2.828 . S
C402 O420 1.244 . S
C402 O423 1.265 . S
C403 C404 1.379 . S
C403 C407 1.373 . S
C403 C409 1.505 . S
C404 C403 1.379 . S
C404 C406 1.369 . S
C404 H432 0.930 . S
C405 C407 1.383 . S
C405 C408 1.382 . S
C405 H433 0.930 . S
C406 C404 1.369 . S
C406 C408 1.392 . S
C406 H434 0.930 . S
C407 C403 1.373 . S
C407 C405 1.383 . S
C407 H435 0.931 . S
C408 C405 1.382 . S
C408 C406 1.392 . S
C409 Eu400 2.828 . S
C409 C403 1.505 . S
C409 O421 1.249 . S
C409 O422 1.244 . S
O410 Eu401 2.373 . S
O410 C412 1.258 . S
O411 Eu400 2.392 . S
O411 C412 1.242 . S
C412 O410 1.258 . S
C412 O411 1.242 . S
O413 Eu400 2.418 . S
O413 C417 1.244 . S
O414 Eu401 2.488 . S
O414 C430 1.249 . S
O415 Eu401 2.471 . S
O415 C430 1.244 . S
O416 Eu401 2.349 . S
O416 C417 1.265 . S
C417 O413 1.244 . S
C417 O416 1.265 . S
O418 Eu400 2.373 . S
O418 C431 1.258 . S
O419 Eu401 2.392 . S
O419 C431 1.242 . S
O420 Eu401 2.418 . S
O420 C402 1.244 . S
O421 Eu400 2.488 . S
O421 C409 1.249 . S
O422 Eu400 2.471 . S
O422 C409 1.244 . S
O423 Eu400 2.349 . S
O423 C402 1.265 . S
C424 C425 1.379 . S
C424 C428 1.373 . S
C424 C430 1.505 . S
C425 C424 1.379 . S
C425 C427 1.369 . S
C425 H436 0.930 . S
C426 C428 1.383 . S
C426 C429 1.382 . S
C426 H437 0.930 . S
C427 C425 1.369 . S
C427 C429 1.392 . S
C427 H438 0.930 . S
C428 C424 1.373 . S
C428 C426 1.383 . S
C428 H439 0.931 . S
C429 C426 1.382 . S
C429 C427 1.392 . S
C430 Eu401 2.828 . S
C430 O414 1.249 . S
C430 O415 1.244 . S
C430 C424 1.505 . S
C431 O418 1.258 . S
C431 O419 1.242 . S
H432 C404 0.930 . S
H433 C405 0.930 . S
H434 C406 0.930 . S
H435 C407 0.931 . S
H436 C425 0.930 . S
H437 C426 0.930 . S
H438 C427 0.930 . S
H439 C428 0.931 . S
Eu440 C449 2.828 . S
Eu440 O451 2.392 . S
Eu440 O453 2.418 . S
Eu440 O458 2.373 1_455 S
Eu440 O461 2.488 . S
Eu440 O462 2.471 1_455 S
Eu440 O463 2.349 1_455 S
Eu441 O450 2.373 1_655 S
Eu441 O454 2.488 . S
Eu441 O455 2.471 1_655 S
Eu441 O456 2.349 1_655 S
Eu441 O459 2.392 . S
Eu441 O460 2.418 . S
Eu441 C470 2.828 . S
C442 O460 1.244 . S
C442 O463 1.265 . S
C443 C444 1.379 . S
C443 C447 1.373 1_655 S
C443 C449 1.505 1_655 S
C444 C443 1.379 . S
C444 C446 1.369 . S
C444 H472 0.930 . S
C445 C447 1.383 . S
C445 C448 1.382 1_455 S
C445 H473 0.930 . S
C446 C444 1.369 . S
C446 C448 1.392 . S
C446 H474 0.930 . S
C447 C443 1.373 1_455 S
C447 C445 1.383 . S
C447 H475 0.931 . S
C448 C445 1.382 1_655 S
C448 C446 1.392 . S
C449 Eu440 2.828 . S
C449 C443 1.505 1_455 S
C449 O461 1.249 . S
C449 O462 1.244 1_455 S
O450 Eu441 2.373 1_455 S
O450 C452 1.258 . S
O451 Eu440 2.392 . S
O451 C452 1.242 . S
C452 O450 1.258 . S
C452 O451 1.242 . S
O453 Eu440 2.418 . S
O453 C457 1.244 . S
O454 Eu441 2.488 . S
O454 C470 1.249 . S
O455 Eu441 2.471 1_455 S
O455 C470 1.244 1_455 S
O456 Eu441 2.349 1_455 S
O456 C457 1.265 . S
C457 O453 1.244 . S
C457 O456 1.265 . S
O458 Eu440 2.373 1_655 S
O458 C471 1.258 . S
O459 Eu441 2.392 . S
O459 C471 1.242 . S
O460 Eu441 2.418 . S
O460 C442 1.244 . S
O461 Eu440 2.488 . S
O461 C449 1.249 . S
O462 Eu440 2.471 1_655 S
O462 C449 1.244 1_655 S
O463 Eu440 2.349 1_655 S
O463 C442 1.265 . S
C464 C465 1.379 . S
C464 C468 1.373 1_455 S
C464 C470 1.505 1_455 S
C465 C464 1.379 . S
C465 C467 1.369 . S
C465 H476 0.930 . S
C466 C468 1.383 . S
C466 C469 1.382 1_655 S
C466 H477 0.930 . S
C467 C465 1.369 . S
C467 C469 1.392 . S
C467 H478 0.930 . S
C468 C464 1.373 1_655 S
C468 C466 1.383 . S
C468 H479 0.931 . S
C469 C466 1.382 1_455 S
C469 C467 1.392 . S
C470 Eu441 2.828 . S
C470 O454 1.249 . S
C470 O455 1.244 1_655 S
C470 C464 1.505 1_655 S
C471 O458 1.258 . S
C471 O459 1.242 . S
H472 C444 0.930 . S
H473 C445 0.930 . S
H474 C446 0.930 . S
H475 C447 0.931 . S
H476 C465 0.930 . S
H477 C466 0.930 . S
H478 C467 0.930 . S
H479 C468 0.931 . S
Eu480 C489 2.828 . S
Eu480 O491 2.392 . S
Eu480 O493 2.418 . S
Eu480 O498 2.373 . S
Eu480 O501 2.488 . S
Eu480 O502 2.471 . S
Eu480 O503 2.349 . S
Eu481 O490 2.373 . S
Eu481 O494 2.488 . S
Eu481 O495 2.471 . S
Eu481 O496 2.349 . S
Eu481 O499 2.392 . S
Eu481 O500 2.418 . S
Eu481 C510 2.828 . S
C482 O500 1.244 . S
C482 O503 1.265 . S
C483 C484 1.379 . S
C483 C487 1.373 . S
C483 C489 1.505 . S
C484 C483 1.379 . S
C484 C486 1.369 . S
C484 H512 0.930 . S
C485 C487 1.383 . S
C485 C488 1.382 . S
C485 H513 0.930 . S
C486 C484 1.369 . S
C486 C488 1.392 . S
C486 H514 0.930 . S
C487 C483 1.373 . S
C487 C485 1.383 . S
C487 H515 0.931 . S
C488 C485 1.382 . S
C488 C486 1.392 . S
C489 Eu480 2.828 . S
C489 C483 1.505 . S
C489 O501 1.249 . S
C489 O502 1.244 . S
O490 Eu481 2.373 . S
O490 C492 1.258 . S
O491 Eu480 2.392 . S
O491 C492 1.242 . S
C492 O490 1.258 . S
C492 O491 1.242 . S
O493 Eu480 2.418 . S
O493 C497 1.244 . S
O494 Eu481 2.488 . S
O494 C510 1.249 . S
O495 Eu481 2.471 . S
O495 C510 1.244 . S
O496 Eu481 2.349 . S
O496 C497 1.265 . S
C497 O493 1.244 . S
C497 O496 1.265 . S
O498 Eu480 2.373 . S
O498 C511 1.258 . S
O499 Eu481 2.392 . S
O499 C511 1.242 . S
O500 Eu481 2.418 . S
O500 C482 1.244 . S
O501 Eu480 2.488 . S
O501 C489 1.249 . S
O502 Eu480 2.471 . S
O502 C489 1.244 . S
O503 Eu480 2.349 . S
O503 C482 1.265 . S
C504 C505 1.379 . S
C504 C508 1.373 . S
C504 C510 1.505 . S
C505 C504 1.379 . S
C505 C507 1.369 . S
C505 H516 0.930 . S
C506 C508 1.383 . S
C506 C509 1.382 . S
C506 H517 0.930 . S
C507 C505 1.369 . S
C507 C509 1.392 . S
C507 H518 0.930 . S
C508 C504 1.373 . S
C508 C506 1.383 . S
C508 H519 0.931 . S
C509 C506 1.382 . S
C509 C507 1.392 . S
C510 Eu481 2.828 . S
C510 O494 1.249 . S
C510 O495 1.244 . S
C510 C504 1.505 . S
C511 O498 1.258 . S
C511 O499 1.242 . S
H512 C484 0.930 . S
H513 C485 0.930 . S
H514 C486 0.930 . S
H515 C487 0.931 . S
H516 C505 0.930 . S
H517 C506 0.930 . S
H518 C507 0.930 . S
H519 C508 0.931 . S
Eu520 C529 2.828 . S
Eu520 O531 2.392 . S
Eu520 O533 2.418 . S
Eu520 O538 2.373 1_554 S
Eu520 O541 2.488 . S
Eu520 O542 2.471 . S
Eu520 O543 2.349 1_554 S
Eu521 O530 2.373 1_556 S
Eu521 O534 2.488 . S
Eu521 O535 2.471 . S
Eu521 O536 2.349 1_556 S
Eu521 O539 2.392 . S
Eu521 O540 2.418 . S
Eu521 C550 2.828 . S
C522 O540 1.244 . S
C522 O543 1.265 . S
C523 C524 1.379 . S
C523 C527 1.373 . S
C523 C529 1.505 . S
C524 C523 1.379 . S
C524 C526 1.369 1_554 S
C524 H552 0.930 1_554 S
C525 C527 1.383 . S
C525 C528 1.382 . S
C525 H553 0.930 . S
C526 C524 1.369 1_556 S
C526 C528 1.392 1_556 S
C526 H554 0.930 . S
C527 C523 1.373 . S
C527 C525 1.383 . S
C527 H555 0.931 . S
C528 C525 1.382 . S
C528 C526 1.392 1_554 S
C529 Eu520 2.828 . S
C529 C523 1.505 . S
C529 O541 1.249 . S
C529 O542 1.244 . S
O530 Eu521 2.373 1_554 S
O530 C532 1.258 . S
O531 Eu520 2.392 . S
O531 C532 1.242 . S
C532 O530 1.258 . S
C532 O531 1.242 . S
O533 Eu520 2.418 . S
O533 C537 1.244 . S
O534 Eu521 2.488 . S
O534 C550 1.249 . S
O535 Eu521 2.471 . S
O535 C550 1.244 . S
O536 Eu521 2.349 1_554 S
O536 C537 1.265 . S
C537 O533 1.244 . S
C537 O536 1.265 . S
O538 Eu520 2.373 1_556 S
O538 C551 1.258 . S
O539 Eu521 2.392 . S
O539 C551 1.242 . S
O540 Eu521 2.418 . S
O540 C522 1.244 . S
O541 Eu520 2.488 . S
O541 C529 1.249 . S
O542 Eu520 2.471 . S
O542 C529 1.244 . S
O543 Eu520 2.349 1_556 S
O543 C522 1.265 . S
C544 C545 1.388 . S
C544 C548 1.373 . S
C544 C550 1.505 . S
C545 C544 1.388 . S
C545 C547 1.372 1_556 S
C545 H556 0.918 1_556 S
C546 C548 1.383 . S
C546 C549 1.382 . S
C546 H557 0.930 . S
C547 C545 1.372 1_554 S
C547 C549 1.392 1_554 S
C547 H558 0.930 . S
C548 C544 1.373 . S
C548 C546 1.383 . S
C548 H559 0.931 . S
C549 C546 1.382 . S
C549 C547 1.392 1_556 S
C550 Eu521 2.828 . S
C550 O534 1.249 . S
C550 O535 1.244 . S
C550 C544 1.505 . S
C551 O538 1.258 . S
C551 O539 1.242 . S
H552 C524 0.930 1_556 S
H553 C525 0.930 . S
H554 C526 0.930 . S
H555 C527 0.931 . S
H556 C545 0.918 1_554 S
H557 C546 0.930 . S
H558 C547 0.930 . S
H559 C548 0.931 . S
Eu560 C569 2.828 . S
Eu560 O571 2.392 1_565 S
Eu560 O573 2.418 . S
Eu560 O578 2.373 . S
Eu560 O581 2.488 . S
Eu560 O582 2.471 . S
Eu560 O583 2.349 1_565 S
Eu561 O570 2.373 . S
Eu561 O574 2.488 . S
Eu561 O575 2.471 . S
Eu561 O576 2.349 1_545 S
Eu561 O579 2.392 1_545 S
Eu561 O580 2.418 . S
Eu561 C590 2.828 . S
C562 O580 1.244 . S
C562 O583 1.265 . S
C563 C564 1.379 . S
C563 C567 1.373 . S
C563 C569 1.505 . S
C564 C563 1.379 . S
C564 C566 1.369 . S
C564 H592 0.930 . S
C565 C567 1.383 . S
C565 C568 1.382 . S
C565 H593 0.930 . S
C566 C564 1.369 . S
C566 C568 1.392 . S
C566 H594 0.930 . S
C567 C563 1.373 . S
C567 C565 1.383 . S
C567 H595 0.931 . S
C568 C565 1.382 . S
C568 C566 1.392 . S
C569 Eu560 2.828 . S
C569 C563 1.505 . S
C569 O581 1.249 . S
C569 O582 1.244 . S
O570 Eu561 2.373 . S
O570 C572 1.258 . S
O571 Eu560 2.392 1_545 S
O571 C572 1.242 . S
C572 O570 1.258 . S
C572 O571 1.242 . S
O573 Eu560 2.418 . S
O573 C577 1.244 . S
O574 Eu561 2.488 . S
O574 C590 1.249 . S
O575 Eu561 2.471 . S
O575 C590 1.244 . S
O576 Eu561 2.349 1_565 S
O576 C577 1.265 . S
C577 O573 1.244 . S
C577 O576 1.265 . S
O578 Eu560 2.373 . S
O578 C591 1.258 . S
O579 Eu561 2.392 1_565 S
O579 C591 1.242 . S
O580 Eu561 2.418 . S
O580 C562 1.244 . S
O581 Eu560 2.488 . S
O581 C569 1.249 . S
O582 Eu560 2.471 . S
O582 C569 1.244 . S
O583 Eu560 2.349 1_545 S
O583 C562 1.265 . S
C584 C585 1.379 . S
C584 C588 1.373 . S
C584 C590 1.505 . S
C585 C584 1.379 . S
C585 C587 1.369 . S
C585 H596 0.930 . S
C586 C588 1.383 . S
C586 C589 1.382 . S
C586 H597 0.930 . S
C587 C585 1.369 . S
C587 C589 1.392 . S
C587 H598 0.930 . S
C588 C584 1.373 . S
C588 C586 1.383 . S
C588 H599 0.931 . S
C589 C586 1.382 . S
C589 C587 1.392 . S
C590 Eu561 2.828 . S
C590 O574 1.249 . S
C590 O575 1.244 . S
C590 C584 1.505 . S
C591 O578 1.258 . S
C591 O579 1.242 . S
H592 C564 0.930 . S
H593 C565 0.930 . S
H594 C566 0.930 . S
H595 C567 0.931 . S
H596 C585 0.930 . S
H597 C586 0.930 . S
H598 C587 0.930 . S
H599 C588 0.931 . S
Eu600 C609 2.828 . S
Eu600 O611 2.392 . S
Eu600 O613 2.418 . S
Eu600 O618 2.373 . S
Eu600 O621 2.488 . S
Eu600 O622 2.471 . S
Eu600 O623 2.349 1_554 S
Eu601 O610 2.360 1_556 S
Eu601 O614 2.488 . S
Eu601 O615 2.471 . S
Eu601 O616 2.349 1_556 S
Eu601 O619 2.392 . S
Eu601 O620 2.418 . S
Eu601 C630 2.828 . S
C602 O620 1.244 . S
C602 O623 1.265 . S
C603 C604 1.379 . S
C603 C607 1.373 . S
C603 C609 1.505 . S
C604 C603 1.379 . S
C604 C606 1.369 . S
C604 H632 0.930 . S
C605 C607 1.383 . S
C605 C608 1.382 . S
C605 H633 0.930 . S
C606 C604 1.369 . S
C606 C608 1.392 . S
C606 H634 0.930 . S
C607 C603 1.373 . S
C607 C605 1.383 . S
C607 H635 0.931 . S
C608 C605 1.382 . S
C608 C606 1.392 . S
C609 Eu600 2.828 . S
C609 C603 1.505 . S
C609 O621 1.249 . S
C609 O622 1.244 . S
O610 Eu601 2.360 1_554 S
O610 C612 1.274 . S
O611 Eu600 2.392 . S
O611 C612 1.242 . S
C612 O610 1.274 . S
C612 O611 1.242 . S
O613 Eu600 2.418 . S
O613 C617 1.244 . S
O614 Eu601 2.488 . S
O614 C630 1.249 . S
O615 Eu601 2.471 . S
O615 C630 1.244 . S
O616 Eu601 2.349 1_554 S
O616 C617 1.265 . S
C617 O613 1.244 . S
C617 O616 1.265 . S
O618 Eu600 2.373 . S
O618 C631 1.257 1_554 S
O619 Eu601 2.392 . S
O619 C631 1.242 . S
O620 Eu601 2.418 . S
O620 C602 1.244 . S
O621 Eu600 2.488 . S
O621 C609 1.249 . S
O622 Eu600 2.471 . S
O622 C609 1.244 . S
O623 Eu600 2.349 1_556 S
O623 C602 1.265 . S
C624 C625 1.379 . S
C624 C628 1.373 . S
C624 C630 1.505 . S
C625 C624 1.379 . S
C625 C627 1.369 . S
C625 H636 0.930 . S
C626 C628 1.383 . S
C626 C629 1.382 . S
C626 H637 0.930 . S
C627 C625 1.369 . S
C627 C629 1.392 . S
C627 H638 0.930 . S
C628 C624 1.373 . S
C628 C626 1.383 . S
C628 H639 0.931 . S
C629 C626 1.382 . S
C629 C627 1.392 . S
C630 Eu601 2.828 . S
C630 O614 1.249 . S
C630 O615 1.244 . S
C630 C624 1.505 . S
C631 O618 1.257 1_556 S
C631 O619 1.242 . S
H632 C604 0.930 . S
H633 C605 0.930 . S
H634 C606 0.930 . S
H635 C607 0.931 . S
H636 C625 0.930 . S
H637 C626 0.930 . S
H638 C627 0.930 . S
H639 C628 0.931 . S
C640 C641 1.363 . S
C640 C646 1.379 . S
C640 N648 1.356 . S
C641 C640 1.363 . S
C641 C647 1.363 1_655 S
C642 C643 1.363 . S
C642 C647 1.379 . S
C642 N649 1.356 1_554 S
C643 C642 1.363 . S
C643 C646 1.363 1_455 S
N644 C646 1.356 . S
N644 H656 0.984 . S
N644 H657 0.985 . S
N645 C647 1.356 1_556 S
N645 H650 0.954 1_456 S
N645 H651 0.985 . S
C646 C640 1.379 . S
C646 C643 1.363 1_655 S
C646 N644 1.356 . S
C647 C641 1.363 1_455 S
C647 C642 1.379 . S
C647 N645 1.356 1_554 S
N648 C640 1.356 . S
N648 H654 0.984 . S
N648 H655 0.984 . S
N649 C642 1.356 1_556 S
N649 H652 0.984 . S
N649 H653 0.985 . S
H650 N645 0.954 1_654 S
H651 N645 0.985 . S
H652 N649 0.984 . S
H653 N649 0.985 . S
H654 N648 0.984 . S
H655 N648 0.984 . S
H656 N644 0.984 . S
H657 N644 0.985 . S
C658 C659 1.363 . S
C658 C664 1.379 . S
C658 N666 1.356 . S
C659 C658 1.363 . S
C659 C665 1.363 . S
C660 C661 1.363 . S
C660 C665 1.379 . S
C660 N667 1.356 . S
C661 C660 1.363 . S
C661 C664 1.363 . S
N662 C664 1.356 . S
N662 H674 0.984 . S
N662 H675 0.985 . S
N663 C665 1.356 . S
N663 H668 0.984 . S
N663 H669 0.985 . S
C664 C658 1.379 . S
C664 C661 1.363 . S
C664 N662 1.356 . S
C665 C659 1.363 . S
C665 C660 1.379 . S
C665 N663 1.356 . S
N666 C658 1.356 . S
N666 H672 0.984 . S
N666 H673 0.984 . S
N667 C660 1.356 . S
N667 H670 0.984 . S
N667 H671 0.985 . S
H668 N663 0.984 . S
H669 N663 0.985 . S
H670 N667 0.984 . S
H671 N667 0.985 . S
H672 N666 0.984 . S
H673 N666 0.984 . S
H674 N662 0.984 . S
H675 N662 0.985 . S
C676 C677 1.363 . S
C676 C682 1.379 . S
C676 N684 1.356 . S
C677 C676 1.363 . S
C677 C683 1.363 . S
C678 C679 1.363 . S
C678 C683 1.379 . S
C678 N685 1.356 . S
C679 C678 1.363 . S
C679 C682 1.363 . S
N680 C682 1.356 . S
N680 H692 0.984 . S
N680 H693 0.985 . S
N681 C683 1.356 . S
N681 H686 0.984 . S
N681 H687 0.985 . S
C682 C676 1.379 . S
C682 C679 1.363 . S
C682 N680 1.356 . S
C683 C677 1.363 . S
C683 C678 1.379 . S
C683 N681 1.356 . S
N684 C676 1.356 . S
N684 H690 0.984 . S
N684 H691 0.984 . S
N685 C678 1.356 . S
N685 H688 0.984 . S
N685 H689 0.985 . S
H686 N681 0.984 . S
H687 N681 0.985 . S
H688 N685 0.984 . S
H689 N685 0.985 . S
H690 N684 0.984 . S
H691 N684 0.984 . S
H692 N680 0.984 . S
H693 N680 0.985 . S
C694 C695 1.363 . S
C694 C700 1.379 . S
C694 N702 1.356 . S
C695 C694 1.363 . S
C695 C701 1.347 1_545 S
C696 C697 1.363 . S
C696 C701 1.404 . S
C696 N703 1.356 1_556 S
C697 C696 1.363 . S
C697 C700 1.363 1_565 S
N698 C700 1.356 1_565 S
N698 H710 0.984 1_565 S
N698 H711 0.985 . S
N699 C701 1.339 1_544 S
N699 H704 0.984 1_554 S
N699 H705 0.985 1_545 S
C700 C694 1.379 . S
C700 C697 1.363 1_545 S
C700 N698 1.356 1_545 S
C701 C695 1.347 1_565 S
C701 C696 1.404 . S
C701 N699 1.339 1_566 S
N702 C694 1.356 . S
N702 H708 0.984 . S
N702 H709 0.984 . S
N703 C696 1.356 1_554 S
N703 H706 0.984 . S
N703 H707 0.985 . S
H704 N699 0.984 1_556 S
H705 N699 0.985 1_565 S
H706 N703 0.984 . S
H707 N703 0.985 . S
H708 N702 0.984 . S
H709 N702 0.984 . S
H710 N698 0.984 1_545 S
H711 N698 0.985 . S
C712 C713 1.363 1_545 S
C712 C718 1.379 . S
C712 N720 1.356 1_545 S
C713 C712 1.363 1_565 S
C713 C719 1.363 . S
C714 C715 1.363 1_565 S
C714 C719 1.379 . S
C714 N721 1.356 1_564 S
C715 C714 1.363 1_545 S
C715 C718 1.363 . S
N716 C718 1.356 . S
N716 H728 0.984 . S
N716 H729 0.985 . S
N717 C719 1.356 . S
N717 H722 0.984 . S
N717 H723 0.985 1_554 S
C718 C712 1.379 . S
C718 C715 1.363 . S
C718 N716 1.356 . S
C719 C713 1.363 . S
C719 C714 1.379 . S
C719 N717 1.356 . S
N720 C712 1.356 1_565 S
N720 H726 0.984 1_565 S
N720 H727 0.984 . S
N721 C714 1.356 1_546 S
N721 H724 0.984 . S
N721 H725 0.985 1_545 S
H722 N717 0.984 . S
H723 N717 0.985 1_556 S
H724 N721 0.984 . S
H725 N721 0.985 1_565 S
H726 N720 0.984 1_545 S
H727 N720 0.984 . S
H728 N716 0.984 . S
H729 N716 0.985 . S
C730 C731 1.363 1_655 S
C730 C736 1.379 . S
C730 N738 1.356 . S
C731 C730 1.363 1_455 S
C731 C737 1.363 . S
C732 C733 1.363 1_455 S
C732 C737 1.379 . S
C732 N739 1.356 . S
C733 C732 1.363 1_655 S
C733 C736 1.363 . S
N734 C736 1.356 . S
N734 H746 0.984 . S
N734 H747 0.985 . S
N735 C737 1.356 . S
N735 H740 0.984 . S
N735 H741 0.985 . S
C736 C730 1.379 . S
C736 C733 1.363 . S
C736 N734 1.356 . S
C737 C731 1.363 . S
C737 C732 1.379 . S
C737 N735 1.356 . S
N738 C730 1.356 . S
N738 H744 0.984 . S
N738 H745 0.984 1_655 S
N739 C732 1.356 . S
N739 H742 0.984 1_455 S
N739 H743 0.985 . S
H740 N735 0.984 . S
H741 N735 0.985 . S
H742 N739 0.984 1_655 S
H743 N739 0.985 . S
H744 N738 0.984 . S
H745 N738 0.984 1_455 S
H746 N734 0.984 . S
H747 N734 0.985 . S
C748 C749 1.363 . S
C748 C754 1.379 . S
C748 N756 1.356 . S
C749 C748 1.363 . S
C749 C755 1.363 . S
C750 C751 1.363 . S
C750 C755 1.379 . S
C750 N757 1.356 . S
C751 C750 1.363 . S
C751 C754 1.363 . S
N752 C754 1.356 . S
N752 H764 0.984 . S
N752 H765 0.985 . S
N753 C755 1.356 . S
N753 H758 0.984 . S
N753 H759 0.985 . S
C754 C748 1.379 . S
C754 C751 1.363 . S
C754 N752 1.356 . S
C755 C749 1.363 . S
C755 C750 1.379 . S
C755 N753 1.356 . S
N756 C748 1.356 . S
N756 H762 0.984 . S
N756 H763 0.984 . S
N757 C750 1.356 . S
N757 H760 0.984 . S
N757 H761 0.985 . S
H758 N753 0.984 . S
H759 N753 0.985 . S
H760 N757 0.984 . S
H761 N757 0.985 . S
H762 N756 0.984 . S
H763 N756 0.984 . S
H764 N752 0.984 . S
H765 N752 0.985 . S
C766 C767 1.363 . S
C766 C772 1.379 . S
C766 N774 1.356 . S
C767 C766 1.363 . S
C767 C773 1.363 . S
C768 C769 1.363 . S
C768 C773 1.379 . S
C768 N775 1.356 . S
C769 C768 1.363 . S
C769 C772 1.363 . S
N770 C772 1.356 . S
N770 H782 0.984 . S
N770 H783 0.985 . S
N771 C773 1.356 . S
N771 H776 0.984 . S
N771 H777 0.985 . S
C772 C766 1.379 . S
C772 C769 1.363 . S
C772 N770 1.356 . S
C773 C767 1.363 . S
C773 C768 1.379 . S
C773 N771 1.356 . S
N774 C766 1.356 . S
N774 H780 0.984 . S
N774 H781 0.984 . S
N775 C768 1.356 . S
N775 H778 0.984 . S
N775 H779 0.985 . S
H776 N771 0.984 . S
H777 N771 0.985 . S
H778 N775 0.984 . S
H779 N775 0.985 . S
H780 N774 0.984 . S
H781 N774 0.984 . S
H782 N770 0.984 . S
H783 N770 0.985 . S
C784 C785 1.363 . S
C784 C790 1.379 . S
C784 N792 1.356 . S
C785 C784 1.363 . S
C785 C791 1.363 . S
C786 C787 1.363 . S
C786 C791 1.379 . S
C786 N793 1.356 . S
C787 C786 1.363 . S
C787 C790 1.363 . S
N788 C790 1.356 . S
N788 H800 0.984 . S
N788 H801 0.985 . S
N789 C791 1.356 . S
N789 H794 0.984 . S
N789 H795 0.985 . S
C790 C784 1.379 . S
C790 C787 1.363 . S
C790 N788 1.356 . S
C791 C785 1.363 . S
C791 C786 1.379 . S
C791 N789 1.356 . S
N792 C784 1.356 . S
N792 H798 0.984 . S
N792 H799 0.984 . S
N793 C786 1.356 . S
N793 H796 0.984 . S
N793 H797 0.985 . S
H794 N789 0.984 . S
H795 N789 0.985 . S
H796 N793 0.984 . S
H797 N793 0.985 . S
H798 N792 0.984 . S
H799 N792 0.984 . S
H800 N788 0.984 . S
H801 N788 0.985 . S
C802 C803 1.363 . S
C802 C808 1.379 . S
C802 N810 1.356 . S
C803 C802 1.363 . S
C803 C809 1.363 . S
C804 C805 1.363 . S
C804 C809 1.379 . S
C804 N811 1.356 . S
C805 C804 1.363 . S
C805 C808 1.363 . S
N806 C808 1.356 . S
N806 H818 0.984 . S
N806 H819 0.985 . S
N807 C809 1.356 . S
N807 H812 0.984 . S
N807 H813 0.985 . S
C808 C802 1.379 . S
C808 C805 1.363 . S
C808 N806 1.356 . S
C809 C803 1.363 . S
C809 C804 1.379 . S
C809 N807 1.356 . S
N810 C802 1.356 . S
N810 H816 0.984 . S
N810 H817 0.984 . S
N811 C804 1.356 . S
N811 H814 0.984 . S
N811 H815 0.985 . S
H812 N807 0.984 . S
H813 N807 0.985 . S
H814 N811 0.984 . S
H815 N811 0.985 . S
H816 N810 0.984 . S
H817 N810 0.984 . S
H818 N806 0.984 . S
H819 N806 0.985 . S
C820 C821 1.341 1_545 S
C820 C826 1.406 . S
C820 N828 1.343 1_545 S
C821 C820 1.341 1_565 S
C821 C827 1.363 . S
C822 C823 1.364 . S
C822 C827 1.378 1_545 S
C822 N829 1.357 . S
C823 C822 1.364 . S
C823 C826 1.363 . S
N824 C826 1.356 . S
N824 H836 0.984 . S
N824 H837 0.985 . S
N825 C827 1.356 . S
N825 H830 0.984 . S
N825 H831 0.985 . S
C826 C820 1.406 . S
C826 C823 1.363 . S
C826 N824 1.356 . S
C827 C821 1.363 . S
C827 C822 1.378 1_565 S
C827 N825 1.356 . S
N828 C820 1.343 1_565 S
N828 H834 0.984 1_565 S
N828 H835 0.984 . S
N829 C822 1.357 . S
N829 H832 0.984 . S
N829 H833 0.985 1_545 S
H830 N825 0.984 . S
H831 N825 0.985 . S
H832 N829 0.984 . S
H833 N829 0.985 1_565 S
H834 N828 0.984 1_545 S
H835 N828 0.984 . S
H836 N824 0.984 . S
H837 N824 0.985 . S
C838 C839 1.363 1_655 S
C838 C844 1.379 . S
C838 N846 1.356 . S
C839 C838 1.363 1_455 S
C839 C845 1.363 . S
C840 C841 1.363 1_455 S
C840 C845 1.379 . S
C840 N847 1.356 1_556 S
C841 C840 1.363 1_655 S
C841 C844 1.363 . S
N842 C844 1.356 . S
N842 H854 0.984 . S
N842 H855 0.985 . S
N843 C845 1.356 1_554 S
N843 H848 0.984 1_554 S
N843 H849 0.985 . S
C844 C838 1.379 . S
C844 C841 1.363 . S
C844 N842 1.356 . S
C845 C839 1.363 . S
C845 C840 1.379 . S
C845 N843 1.356 1_556 S
N846 C838 1.356 . S
N846 H852 0.984 . S
N846 H853 0.984 1_655 S
N847 C840 1.356 1_554 S
N847 H850 0.984 1_455 S
N847 H851 0.985 . S
H848 N843 0.984 1_556 S
H849 N843 0.985 . S
H850 N847 0.984 1_655 S
H851 N847 0.985 . S
H852 N846 0.984 . S
H853 N846 0.984 1_455 S
H854 N842 0.984 . S
H855 N842 0.985 . S
C856 C857 1.363 . S
C856 C862 1.379 . S
C856 N864 1.356 . S
C857 C856 1.363 . S
C857 C863 1.363 . S
C858 C859 1.363 . S
C858 C863 1.379 . S
C858 N865 1.356 . S
C859 C858 1.363 . S
C859 C862 1.363 . S
N860 C862 1.356 . S
N860 H872 0.984 . S
N860 H873 0.985 . S
N861 C863 1.356 . S
N861 H866 0.984 . S
N861 H867 0.985 . S
C862 C856 1.379 . S
C862 C859 1.363 . S
C862 N860 1.356 . S
C863 C857 1.363 . S
C863 C858 1.379 . S
C863 N861 1.356 . S
N864 C856 1.356 . S
N864 H870 0.984 . S
N864 H871 0.984 . S
N865 C858 1.356 . S
N865 H868 0.984 1_556 S
N865 H869 0.985 . S
H866 N861 0.984 . S
H867 N861 0.985 . S
H868 N865 0.984 1_554 S
H869 N865 0.985 . S
H870 N864 0.984 . S
H871 N864 0.984 . S
H872 N860 0.984 . S
H873 N860 0.985 . S
C874 C875 1.363 . S
C874 C880 1.379 . S
C874 N882 1.356 . S
C875 C874 1.363 . S
C875 C881 1.363 . S
C876 C877 1.363 . S
C876 C881 1.379 . S
C876 N883 1.356 . S
C877 C876 1.363 . S
C877 C880 1.363 . S
N878 C880 1.356 . S
N878 H890 0.984 . S
N878 H891 0.985 . S
N879 C881 1.356 . S
N879 H884 0.984 . S
N879 H885 0.985 . S
C880 C874 1.379 . S
C880 C877 1.363 . S
C880 N878 1.356 . S
C881 C875 1.363 . S
C881 C876 1.379 . S
C881 N879 1.356 . S
N882 C874 1.356 . S
N882 H888 0.984 . S
N882 H889 0.984 . S
N883 C876 1.356 . S
N883 H886 0.984 . S
N883 H887 0.985 . S
H884 N879 0.984 . S
H885 N879 0.985 . S
H886 N883 0.984 . S
H887 N883 0.985 . S
H888 N882 0.984 . S
H889 N882 0.984 . S
H890 N878 0.984 . S
H891 N878 0.985 . S
C892 C893 1.363 . S
C892 C898 1.379 . S
C892 N900 1.356 . S
C893 C892 1.363 . S
C893 C899 1.363 . S
C894 C895 1.363 . S
C894 C899 1.379 . S
C894 N901 1.356 . S
C895 C894 1.363 . S
C895 C898 1.363 . S
N896 C898 1.356 . S
N896 H908 0.984 . S
N896 H909 0.985 . S
N897 C899 1.356 . S
N897 H902 0.984 . S
N897 H903 0.985 . S
C898 C892 1.379 . S
C898 C895 1.363 . S
C898 N896 1.356 . S
C899 C893 1.363 . S
C899 C894 1.379 . S
C899 N897 1.356 . S
N900 C892 1.356 . S
N900 H906 0.984 . S
N900 H907 0.984 . S
N901 C894 1.356 . S
N901 H904 0.984 . S
N901 H905 0.985 . S
H902 N897 0.984 . S
H903 N897 0.985 . S
H904 N901 0.984 . S
H905 N901 0.985 . S
H906 N900 0.984 . S
H907 N900 0.984 . S
H908 N896 0.984 . S
H909 N896 0.985 . S
C910 C911 1.363 . S
C910 C916 1.379 . S
C910 N918 1.356 . S
C911 C910 1.363 . S
C911 C917 1.363 . S
C912 C913 1.363 . S
C912 C917 1.379 . S
C912 N919 1.356 . S
C913 C912 1.363 . S
C913 C916 1.363 . S
N914 C916 1.356 . S
N914 H926 0.984 . S
N914 H927 0.985 . S
N915 C917 1.356 . S
N915 H920 0.984 . S
N915 H921 0.985 . S
C916 C910 1.379 . S
C916 C913 1.363 . S
C916 N914 1.356 . S
C917 C911 1.363 . S
C917 C912 1.379 . S
C917 N915 1.356 . S
N918 C910 1.356 . S
N918 H924 0.984 . S
N918 H925 0.984 . S
N919 C912 1.356 . S
N919 H922 0.984 . S
N919 H923 0.985 . S
H920 N915 0.984 . S
H921 N915 0.985 . S
H922 N919 0.984 . S
H923 N919 0.985 . S
H924 N918 0.984 . S
H925 N918 0.984 . S
H926 N914 0.984 . S
H927 N914 0.985 . S
C928 C929 1.363 . S
C928 C934 1.379 . S
C928 N936 1.356 . S
C929 C928 1.363 . S
C929 C935 1.363 . S
C930 C931 1.363 . S
C930 C935 1.379 . S
C930 N937 1.356 . S
C931 C930 1.363 . S
C931 C934 1.363 . S
N932 C934 1.356 . S
N932 H944 0.984 . S
N932 H945 0.985 . S
N933 C935 1.356 . S
N933 H938 0.984 . S
N933 H939 0.985 . S
C934 C928 1.379 . S
C934 C931 1.363 . S
C934 N932 1.356 . S
C935 C929 1.363 . S
C935 C930 1.379 . S
C935 N933 1.356 . S
N936 C928 1.356 . S
N936 H942 0.984 . S
N936 H943 0.984 . S
N937 C930 1.356 . S
N937 H940 0.984 . S
N937 H941 0.985 . S
H938 N933 0.984 . S
H939 N933 0.985 . S
H940 N937 0.984 . S
H941 N937 0.985 . S
H942 N936 0.984 . S
H943 N936 0.984 . S
H944 N932 0.984 . S
H945 N932 0.985 . S
C946 C947 1.363 . S
C946 C952 1.379 . S
C946 N954 1.356 . S
C947 C946 1.363 . S
C947 C953 1.363 . S
C948 C949 1.363 . S
C948 C953 1.379 . S
C948 N955 1.356 . S
C949 C948 1.363 . S
C949 C952 1.363 . S
N950 C952 1.356 . S
N950 H962 0.984 . S
N950 H963 0.985 . S
N951 C953 1.356 . S
N951 H956 0.984 . S
N951 H957 0.985 . S
C952 C946 1.379 . S
C952 C949 1.363 . S
C952 N950 1.356 . S
C953 C947 1.363 . S
C953 C948 1.379 . S
C953 N951 1.356 . S
N954 C946 1.356 . S
N954 H960 0.984 . S
N954 H961 0.984 . S
N955 C948 1.356 . S
N955 H958 0.984 . S
N955 H959 0.985 . S
H956 N951 0.984 . S
H957 N951 0.985 . S
H958 N955 0.984 . S
H959 N955 0.985 . S
H960 N954 0.984 . S
H961 N954 0.984 . S
H962 N950 0.984 . S
H963 N950 0.985 . S
C964 C965 1.363 . S
C964 C970 1.379 . S
C964 N972 1.356 . S
C965 C964 1.363 . S
C965 C971 1.363 . S
C966 C967 1.363 . S
C966 C971 1.379 . S
C966 N973 1.356 . S
C967 C966 1.363 . S
C967 C970 1.363 . S
N968 C970 1.356 . S
N968 H980 0.984 . S
N968 H981 0.985 . S
N969 C971 1.356 . S
N969 H974 0.984 . S
N969 H975 0.985 . S
C970 C964 1.379 . S
C970 C967 1.363 . S
C970 N968 1.356 . S
C971 C965 1.363 . S
C971 C966 1.379 . S
C971 N969 1.356 . S
N972 C964 1.356 . S
N972 H978 0.984 . S
N972 H979 0.984 . S
N973 C966 1.356 . S
N973 H976 0.984 . S
N973 H977 0.985 . S
H974 N969 0.984 . S
H975 N969 0.985 . S
H976 N973 0.984 . S
H977 N973 0.985 . S
H978 N972 0.984 . S
H979 N972 0.984 . S
H980 N968 0.984 . S
H981 N968 0.985 . S
C982 C983 1.363 . S
C982 C988 1.379 . S
C982 N990 1.356 . S
C983 C982 1.363 . S
C983 C989 1.363 . S
C984 C985 1.363 . S
C984 C989 1.379 . S
C984 N991 1.356 . S
C985 C984 1.363 . S
C985 C988 1.363 . S
N986 C988 1.356 . S
N986 H998 0.984 . S
N986 H999 0.985 . S
N987 C989 1.356 . S
N987 H992 0.984 . S
N987 H993 0.985 . S
C988 C982 1.379 . S
C988 C985 1.363 . S
C988 N986 1.356 . S
C989 C983 1.363 . S
C989 C984 1.379 . S
C989 N987 1.356 . S
N990 C982 1.356 . S
N990 H996 0.984 . S
N990 H997 0.984 . S
N991 C984 1.356 . S
N991 H994 0.984 . S
N991 H995 0.985 . S
H992 N987 0.984 . S
H993 N987 0.985 . S
H994 N991 0.984 . S
H995 N991 0.985 . S
H996 N990 0.984 . S
H997 N990 0.984 . S
H998 N986 0.984 . S
H999 N986 0.985 . S
C1000 C1001 1.363 . S
C1000 C1006 1.379 . S
C1000 N1008 1.356 . S
C1001 C1000 1.363 . S
C1001 C1007 1.363 . S
C1002 C1003 1.363 . S
C1002 C1007 1.379 . S
C1002 N1009 1.356 . S
C1003 C1002 1.363 . S
C1003 C1006 1.363 . S
N1004 C1006 1.356 . S
N1004 H1016 0.984 . S
N1004 H1017 0.985 . S
N1005 C1007 1.356 . S
N1005 H1010 0.984 . S
N1005 H1011 0.985 . S
C1006 C1000 1.379 . S
C1006 C1003 1.363 . S
C1006 N1004 1.356 . S
C1007 C1001 1.363 . S
C1007 C1002 1.379 . S
C1007 N1005 1.356 . S
N1008 C1000 1.356 . S
N1008 H1014 0.984 . S
N1008 H1015 0.984 . S
N1009 C1002 1.356 . S
N1009 H1012 0.984 . S
N1009 H1013 0.985 . S
H1010 N1005 0.984 . S
H1011 N1005 0.985 . S
H1012 N1009 0.984 . S
H1013 N1009 0.985 . S
H1014 N1008 0.984 . S
H1015 N1008 0.984 . S
H1016 N1004 0.984 . S
H1017 N1004 0.985 . S
C1018 C1019 1.363 . S
C1018 C1024 1.379 . S
C1018 N1026 1.356 . S
C1019 C1018 1.363 . S
C1019 C1025 1.363 1_455 S
C1020 C1021 1.363 . S
C1020 C1025 1.379 . S
C1020 N1027 1.356 . S
C1021 C1020 1.363 . S
C1021 C1024 1.363 1_655 S
N1022 C1024 1.356 . S
N1022 H1034 0.984 . S
N1022 H1035 0.985 1_455 S
N1023 C1025 1.356 . S
N1023 H1028 0.984 1_655 S
N1023 H1029 0.985 . S
C1024 C1018 1.379 . S
C1024 C1021 1.363 1_455 S
C1024 N1022 1.356 . S
C1025 C1019 1.363 1_655 S
C1025 C1020 1.379 . S
C1025 N1023 1.356 . S
N1026 C1018 1.356 . S
N1026 H1032 0.984 . S
N1026 H1033 0.984 . S
N1027 C1020 1.356 . S
N1027 H1030 0.984 . S
N1027 H1031 0.985 . S
H1028 N1023 0.984 1_455 S
H1029 N1023 0.985 . S
H1030 N1027 0.984 . S
H1031 N1027 0.985 . S
H1032 N1026 0.984 . S
H1033 N1026 0.984 . S
H1034 N1022 0.984 . S
H1035 N1022 0.985 1_655 S
C1036 C1037 1.363 . S
C1036 C1042 1.379 . S
C1036 N1044 1.356 . S
C1037 C1036 1.363 . S
C1037 C1043 1.363 . S
C1038 C1039 1.363 . S
C1038 C1043 1.379 . S
C1038 N1045 1.356 . S
C1039 C1038 1.363 . S
C1039 C1042 1.363 . S
N1040 C1042 1.356 . S
N1040 H1052 0.984 . S
N1040 H1053 0.985 . S
N1041 C1043 1.356 . S
N1041 H1046 0.984 . S
N1041 H1047 0.985 . S
C1042 C1036 1.379 . S
C1042 C1039 1.363 . S
C1042 N1040 1.356 . S
C1043 C1037 1.363 . S
C1043 C1038 1.379 . S
C1043 N1041 1.356 . S
N1044 C1036 1.356 . S
N1044 H1050 0.984 . S
N1044 H1051 0.984 . S
N1045 C1038 1.356 . S
N1045 H1048 0.984 . S
N1045 H1049 0.985 . S
H1046 N1041 0.984 . S
H1047 N1041 0.985 . S
H1048 N1045 0.984 . S
H1049 N1045 0.985 . S
H1050 N1044 0.984 . S
H1051 N1044 0.984 . S
H1052 N1040 0.984 . S
H1053 N1040 0.985 . S
C1054 C1055 1.363 . S
C1054 C1060 1.379 . S
C1054 N1062 1.356 . S
C1055 C1054 1.363 . S
C1055 C1061 1.363 . S
C1056 C1057 1.363 . S
C1056 C1061 1.379 . S
C1056 N1063 1.356 . S
C1057 C1056 1.363 . S
C1057 C1060 1.363 . S
N1058 C1060 1.356 . S
N1058 H1070 0.984 . S
N1058 H1071 0.985 . S
N1059 C1061 1.356 . S
N1059 H1064 0.984 . S
N1059 H1065 0.985 . S
C1060 C1054 1.379 . S
C1060 C1057 1.363 . S
C1060 N1058 1.356 . S
C1061 C1055 1.363 . S
C1061 C1056 1.379 . S
C1061 N1059 1.356 . S
N1062 C1054 1.356 . S
N1062 H1068 0.984 . S
N1062 H1069 0.984 . S
N1063 C1056 1.356 . S
N1063 H1066 0.984 . S
N1063 H1067 0.985 . S
H1064 N1059 0.984 . S
H1065 N1059 0.985 . S
H1066 N1063 0.984 . S
H1067 N1063 0.985 . S
H1068 N1062 0.984 . S
H1069 N1062 0.984 . S
H1070 N1058 0.984 . S
H1071 N1058 0.985 . S
C1072 C1073 1.363 . S
C1072 C1078 1.379 . S
C1072 N1080 1.356 . S
C1073 C1072 1.363 . S
C1073 C1079 1.363 . S
C1074 C1075 1.363 . S
C1074 C1079 1.379 . S
C1074 N1081 1.356 . S
C1075 C1074 1.363 . S
C1075 C1078 1.363 . S
N1076 C1078 1.356 . S
N1076 H1088 0.984 . S
N1076 H1089 0.985 . S
N1077 C1079 1.356 . S
N1077 H1082 0.984 . S
N1077 H1083 0.985 . S
C1078 C1072 1.379 . S
C1078 C1075 1.363 . S
C1078 N1076 1.356 . S
C1079 C1073 1.363 . S
C1079 C1074 1.379 . S
C1079 N1077 1.356 . S
N1080 C1072 1.356 . S
N1080 H1086 0.984 . S
N1080 H1087 0.984 . S
N1081 C1074 1.356 . S
N1081 H1084 0.984 . S
N1081 H1085 0.985 . S
H1082 N1077 0.984 . S
H1083 N1077 0.985 . S
H1084 N1081 0.984 . S
H1085 N1081 0.985 . S
H1086 N1080 0.984 . S
H1087 N1080 0.984 . S
H1088 N1076 0.984 . S
H1089 N1076 0.985 . S
C1090 C1091 1.363 . S
C1090 C1096 1.379 . S
C1090 N1098 1.356 . S
C1091 C1090 1.363 . S
C1091 C1097 1.363 . S
C1092 C1093 1.363 . S
C1092 C1097 1.379 . S
C1092 N1099 1.356 . S
C1093 C1092 1.363 . S
C1093 C1096 1.363 . S
N1094 C1096 1.356 . S
N1094 H1106 0.984 . S
N1094 H1107 0.985 . S
N1095 C1097 1.356 . S
N1095 H1100 0.984 . S
N1095 H1101 0.985 . S
C1096 C1090 1.379 . S
C1096 C1093 1.363 . S
C1096 N1094 1.356 . S
C1097 C1091 1.363 . S
C1097 C1092 1.379 . S
C1097 N1095 1.356 . S
N1098 C1090 1.356 . S
N1098 H1104 0.984 . S
N1098 H1105 0.984 . S
N1099 C1092 1.356 . S
N1099 H1102 0.984 . S
N1099 H1103 0.985 . S
H1100 N1095 0.984 . S
H1101 N1095 0.985 . S
H1102 N1099 0.984 . S
H1103 N1099 0.985 . S
H1104 N1098 0.984 . S
H1105 N1098 0.984 . S
H1106 N1094 0.984 . S
H1107 N1094 0.985 . S
C1108 C1109 1.363 . S
C1108 C1114 1.357 1_565 S
C1108 N1116 1.356 . S
C1109 C1108 1.363 . S
C1109 C1115 1.363 1_565 S
C1110 C1111 1.363 . S
C1110 C1115 1.379 . S
C1110 N1117 1.356 . S
C1111 C1110 1.363 . S
C1111 C1114 1.381 . S
N1112 C1114 1.367 . S
N1112 H1124 0.984 1_545 S
N1112 H1125 0.985 . S
N1113 C1115 1.356 1_565 S
N1113 H1118 0.984 . S
N1113 H1119 0.985 1_565 S
C1114 C1108 1.357 1_545 S
C1114 C1111 1.381 . S
C1114 N1112 1.367 . S
C1115 C1109 1.363 1_545 S
C1115 C1110 1.379 . S
C1115 N1113 1.356 1_545 S
N1116 C1108 1.356 . S
N1116 H1122 0.984 . S
N1116 H1123 0.984 . S
N1117 C1110 1.356 . S
N1117 H1120 0.984 . S
N1117 H1121 0.985 . S
H1118 N1113 0.984 . S
H1119 N1113 0.985 1_545 S
H1120 N1117 0.984 . S
H1121 N1117 0.985 . S
H1122 N1116 0.984 . S
H1123 N1116 0.984 . S
H1124 N1112 0.984 1_565 S
H1125 N1112 0.985 . S
C1126 C1127 1.363 . S
C1126 C1132 1.379 . S
C1126 N1134 1.341 1_554 S
C1127 C1126 1.363 . S
C1127 C1133 1.363 . S
C1128 C1129 1.363 . S
C1128 C1133 1.379 . S
C1128 N1135 1.356 . S
C1129 C1128 1.363 . S
C1129 C1132 1.363 . S
N1130 C1132 1.356 . S
N1130 H1142 0.984 . S
N1130 H1143 0.985 . S
N1131 C1133 1.356 . S
N1131 H1136 0.984 . S
N1131 H1137 0.985 . S
C1132 C1126 1.379 . S
C1132 C1129 1.363 . S
C1132 N1130 1.356 . S
C1133 C1127 1.363 . S
C1133 C1128 1.379 . S
C1133 N1131 1.356 . S
N1134 C1126 1.341 1_556 S
N1134 H1140 0.983 . S
N1134 H1141 1.002 . S
N1135 C1128 1.356 . S
N1135 H1138 0.984 . S
N1135 H1139 0.985 . S
H1136 N1131 0.984 . S
H1137 N1131 0.985 . S
H1138 N1135 0.984 . S
H1139 N1135 0.985 . S
H1140 N1134 0.983 . S
H1141 N1134 1.002 . S
H1142 N1130 0.984 . S
H1143 N1130 0.985 . S
C1144 C1145 1.363 . S
C1144 C1150 1.379 . S
C1144 N1152 1.356 . S
C1145 C1144 1.363 . S
C1145 C1151 1.363 . S
C1146 C1147 1.363 . S
C1146 C1151 1.379 . S
C1146 N1153 1.356 . S
C1147 C1146 1.363 . S
C1147 C1150 1.363 . S
N1148 C1150 1.356 . S
N1148 H1160 0.984 . S
N1148 H1161 0.985 . S
N1149 C1151 1.356 . S
N1149 H1154 0.984 . S
N1149 H1155 0.985 . S
C1150 C1144 1.379 . S
C1150 C1147 1.363 . S
C1150 N1148 1.356 . S
C1151 C1145 1.363 . S
C1151 C1146 1.379 . S
C1151 N1149 1.356 . S
N1152 C1144 1.356 . S
N1152 H1158 0.984 . S
N1152 H1159 0.984 . S
N1153 C1146 1.356 . S
N1153 H1156 0.984 . S
N1153 H1157 0.985 . S
H1154 N1149 0.984 . S
H1155 N1149 0.985 . S
H1156 N1153 0.984 . S
H1157 N1153 0.985 . S
H1158 N1152 0.984 . S
H1159 N1152 0.984 . S
H1160 N1148 0.984 . S
H1161 N1148 0.985 . S
C1162 C1163 1.363 . S
C1162 C1168 1.379 . S
C1162 N1170 1.356 . S
C1163 C1162 1.363 . S
C1163 C1169 1.363 . S
C1164 C1165 1.363 . S
C1164 C1169 1.379 . S
C1164 N1171 1.356 . S
C1165 C1164 1.363 . S
C1165 C1168 1.363 . S
N1166 C1168 1.356 . S
N1166 H1178 0.984 . S
N1166 H1179 0.985 . S
N1167 C1169 1.356 . S
N1167 H1172 0.984 . S
N1167 H1173 0.985 . S
C1168 C1162 1.379 . S
C1168 C1165 1.363 . S
C1168 N1166 1.356 . S
C1169 C1163 1.363 . S
C1169 C1164 1.379 . S
C1169 N1167 1.356 . S
N1170 C1162 1.356 . S
N1170 H1176 0.984 . S
N1170 H1177 0.984 . S
N1171 C1164 1.356 . S
N1171 H1174 0.984 . S
N1171 H1175 0.985 . S
H1172 N1167 0.984 . S
H1173 N1167 0.985 . S
H1174 N1171 0.984 . S
H1175 N1171 0.985 . S
H1176 N1170 0.984 . S
H1177 N1170 0.984 . S
H1178 N1166 0.984 . S
H1179 N1166 0.985 . S
C1180 C1181 1.363 . S
C1180 C1186 1.379 . S
C1180 N1188 1.356 . S
C1181 C1180 1.363 . S
C1181 C1187 1.363 . S
C1182 C1183 1.363 . S
C1182 C1187 1.379 . S
C1182 N1189 1.356 . S
C1183 C1182 1.363 . S
C1183 C1186 1.363 . S
N1184 C1186 1.356 . S
N1184 H1196 0.984 . S
N1184 H1197 0.985 . S
N1185 C1187 1.356 . S
N1185 H1190 0.984 . S
N1185 H1191 0.985 . S
C1186 C1180 1.379 . S
C1186 C1183 1.363 . S
C1186 N1184 1.356 . S
C1187 C1181 1.363 . S
C1187 C1182 1.379 . S
C1187 N1185 1.356 . S
N1188 C1180 1.356 . S
N1188 H1194 0.984 . S
N1188 H1195 0.984 . S
N1189 C1182 1.356 . S
N1189 H1192 0.984 . S
N1189 H1193 0.985 . S
H1190 N1185 0.984 . S
H1191 N1185 0.985 . S
H1192 N1189 0.984 . S
H1193 N1189 0.985 . S
H1194 N1188 0.984 . S
H1195 N1188 0.984 . S
H1196 N1184 0.984 . S
H1197 N1184 0.985 . S
C1198 C1199 1.363 . S
C1198 C1204 1.379 . S
C1198 N1206 1.356 . S
C1199 C1198 1.363 . S
C1199 C1205 1.363 . S
C1200 C1201 1.363 . S
C1200 C1205 1.379 . S
C1200 N1207 1.356 . S
C1201 C1200 1.363 . S
C1201 C1204 1.363 . S
N1202 C1204 1.356 . S
N1202 H1214 0.984 . S
N1202 H1215 0.985 . S
N1203 C1205 1.356 . S
N1203 H1208 0.984 . S
N1203 H1209 0.985 . S
C1204 C1198 1.379 . S
C1204 C1201 1.363 . S
C1204 N1202 1.356 . S
C1205 C1199 1.363 . S
C1205 C1200 1.379 . S
C1205 N1203 1.356 . S
N1206 C1198 1.356 . S
N1206 H1212 0.984 . S
N1206 H1213 0.984 . S
N1207 C1200 1.356 . S
N1207 H1210 0.984 . S
N1207 H1211 0.985 . S
H1208 N1203 0.984 . S
H1209 N1203 0.985 . S
H1210 N1207 0.984 . S
H1211 N1207 0.985 . S
H1212 N1206 0.984 . S
H1213 N1206 0.984 . S
H1214 N1202 0.984 . S
H1215 N1202 0.985 . S
C1216 C1217 1.363 . S
C1216 C1222 1.379 . S
C1216 N1224 1.356 . S
C1217 C1216 1.363 . S
C1217 C1223 1.363 . S
C1218 C1219 1.363 . S
C1218 C1223 1.379 . S
C1218 N1225 1.356 . S
C1219 C1218 1.363 . S
C1219 C1222 1.363 . S
N1220 C1222 1.356 . S
N1220 H1232 0.984 . S
N1220 H1233 0.985 . S
N1221 C1223 1.356 . S
N1221 H1226 0.984 . S
N1221 H1227 0.985 . S
C1222 C1216 1.379 . S
C1222 C1219 1.363 . S
C1222 N1220 1.356 . S
C1223 C1217 1.363 . S
C1223 C1218 1.379 . S
C1223 N1221 1.356 . S
N1224 C1216 1.356 . S
N1224 H1230 0.984 . S
N1224 H1231 0.984 . S
N1225 C1218 1.356 . S
N1225 H1228 0.984 . S
N1225 H1229 0.985 . S
H1226 N1221 0.984 . S
H1227 N1221 0.985 . S
H1228 N1225 0.984 . S
H1229 N1225 0.985 . S
H1230 N1224 0.984 . S
H1231 N1224 0.984 . S
H1232 N1220 0.984 . S
H1233 N1220 0.985 . S
C1234 C1235 1.363 . S
C1234 C1240 1.379 . S
C1234 N1242 1.356 . S
C1235 C1234 1.363 . S
C1235 C1241 1.363 . S
C1236 C1237 1.363 . S
C1236 C1241 1.379 . S
C1236 N1243 1.356 . S
C1237 C1236 1.363 . S
C1237 C1240 1.363 . S
N1238 C1240 1.356 . S
N1238 H1250 0.984 . S
N1238 H1251 0.985 . S
N1239 C1241 1.356 . S
N1239 H1244 0.984 . S
N1239 H1245 0.985 . S
C1240 C1234 1.379 . S
C1240 C1237 1.363 . S
C1240 N1238 1.356 . S
C1241 C1235 1.363 . S
C1241 C1236 1.379 . S
C1241 N1239 1.356 . S
N1242 C1234 1.356 . S
N1242 H1248 0.984 . S
N1242 H1249 0.984 . S
N1243 C1236 1.356 . S
N1243 H1246 0.984 . S
N1243 H1247 0.985 . S
H1244 N1239 0.984 . S
H1245 N1239 0.985 . S
H1246 N1243 0.984 . S
H1247 N1243 0.985 . S
H1248 N1242 0.984 . S
H1249 N1242 0.984 . S
H1250 N1238 0.984 . S
H1251 N1238 0.985 . S
C1252 C1253 1.363 . S
C1252 C1258 1.379 . S
C1252 N1260 1.356 . S
C1253 C1252 1.363 . S
C1253 C1259 1.363 . S
C1254 C1255 1.363 . S
C1254 C1259 1.379 . S
C1254 N1261 1.356 . S
C1255 C1254 1.363 . S
C1255 C1258 1.363 . S
N1256 C1258 1.356 . S
N1256 H1268 0.984 . S
N1256 H1269 0.985 . S
N1257 C1259 1.356 . S
N1257 H1262 0.984 . S
N1257 H1263 0.985 . S
C1258 C1252 1.379 . S
C1258 C1255 1.363 . S
C1258 N1256 1.356 . S
C1259 C1253 1.363 . S
C1259 C1254 1.379 . S
C1259 N1257 1.356 . S
N1260 C1252 1.356 . S
N1260 H1266 0.984 . S
N1260 H1267 0.984 . S
N1261 C1254 1.356 . S
N1261 H1264 0.984 . S
N1261 H1265 0.985 . S
H1262 N1257 0.984 . S
H1263 N1257 0.985 . S
H1264 N1261 0.984 . S
H1265 N1261 0.985 . S
H1266 N1260 0.984 . S
H1267 N1260 0.984 . S
H1268 N1256 0.984 . S
H1269 N1256 0.985 . S
C1270 C1271 1.363 . S
C1270 C1276 1.379 . S
C1270 N1278 1.356 . S
C1271 C1270 1.363 . S
C1271 C1277 1.363 . S
C1272 C1273 1.363 . S
C1272 C1277 1.379 . S
C1272 N1279 1.356 . S
C1273 C1272 1.363 . S
C1273 C1276 1.363 . S
N1274 C1276 1.356 . S
N1274 H1286 0.984 . S
N1274 H1287 0.985 . S
N1275 C1277 1.356 . S
N1275 H1280 0.984 . S
N1275 H1281 0.985 . S
C1276 C1270 1.379 . S
C1276 C1273 1.363 . S
C1276 N1274 1.356 . S
C1277 C1271 1.363 . S
C1277 C1272 1.379 . S
C1277 N1275 1.356 . S
N1278 C1270 1.356 . S
N1278 H1284 0.984 . S
N1278 H1285 0.984 . S
N1279 C1272 1.356 . S
N1279 H1282 0.984 . S
N1279 H1283 0.985 . S
H1280 N1275 0.984 . S
H1281 N1275 0.985 . S
H1282 N1279 0.984 . S
H1283 N1279 0.985 . S
H1284 N1278 0.984 . S
H1285 N1278 0.984 . S
H1286 N1274 0.984 . S
H1287 N1274 0.985 . S
C1288 C1289 1.363 . S
C1288 C1294 1.379 . S
C1288 N1296 1.356 . S
C1289 C1288 1.363 . S
C1289 C1295 1.363 . S
C1290 C1291 1.363 . S
C1290 C1295 1.379 . S
C1290 N1297 1.356 1_554 S
C1291 C1290 1.363 . S
C1291 C1294 1.363 . S
N1292 C1294 1.356 . S
N1292 H1304 0.984 . S
N1292 H1305 0.985 . S
N1293 C1295 1.356 1_556 S
N1293 H1298 0.984 . S
N1293 H1299 0.985 . S
C1294 C1288 1.379 . S
C1294 C1291 1.363 . S
C1294 N1292 1.356 . S
C1295 C1289 1.363 . S
C1295 C1290 1.379 . S
C1295 N1293 1.356 1_554 S
N1296 C1288 1.356 . S
N1296 H1302 0.984 . S
N1296 H1303 0.984 . S
N1297 C1290 1.356 1_556 S
N1297 H1300 0.984 1_556 S
N1297 H1301 0.985 . S
H1298 N1293 0.984 . S
H1299 N1293 0.985 . S
H1300 N1297 0.984 1_554 S
H1301 N1297 0.985 . S
H1302 N1296 0.984 . S
H1303 N1296 0.984 . S
H1304 N1292 0.984 . S
H1305 N1292 0.985 . S
C1306 C1307 1.363 . S
C1306 C1312 1.379 . S
C1306 N1314 1.356 . S
C1307 C1306 1.363 . S
C1307 C1313 1.363 . S
C1308 C1309 1.363 . S
C1308 C1313 1.379 . S
C1308 N1315 1.356 . S
C1309 C1308 1.363 . S
C1309 C1312 1.363 . S
N1310 C1312 1.356 1_556 S
N1310 H1322 0.984 . S
N1310 H1323 0.985 . S
N1311 C1313 1.356 . S
N1311 H1316 0.984 . S
N1311 H1317 0.985 . S
C1312 C1306 1.379 . S
C1312 C1309 1.363 . S
C1312 N1310 1.356 1_554 S
C1313 C1307 1.363 . S
C1313 C1308 1.379 . S
C1313 N1311 1.356 . S
N1314 C1306 1.356 . S
N1314 H1320 0.984 . S
N1314 H1321 0.984 . S
N1315 C1308 1.356 . S
N1315 H1318 0.984 . S
N1315 H1319 0.985 . S
H1316 N1311 0.984 . S
H1317 N1311 0.985 . S
H1318 N1315 0.984 . S
H1319 N1315 0.985 . S
H1320 N1314 0.984 . S
H1321 N1314 0.984 . S
H1322 N1310 0.984 . S
H1323 N1310 0.985 . S
C1324 C1325 1.363 . S
C1324 C1330 1.379 . S
C1324 N1332 1.356 . S
C1325 C1324 1.363 . S
C1325 C1331 1.363 . S
C1326 C1327 1.363 . S
C1326 C1331 1.379 . S
C1326 N1333 1.356 . S
C1327 C1326 1.363 . S
C1327 C1330 1.363 . S
N1328 C1330 1.356 . S
N1328 H1340 0.984 . S
N1328 H1341 0.985 . S
N1329 C1331 1.356 . S
N1329 H1334 0.984 . S
N1329 H1335 0.985 . S
C1330 C1324 1.379 . S
C1330 C1327 1.363 . S
C1330 N1328 1.356 . S
C1331 C1325 1.363 . S
C1331 C1326 1.379 . S
C1331 N1329 1.356 . S
N1332 C1324 1.356 . S
N1332 H1338 0.984 . S
N1332 H1339 0.984 . S
N1333 C1326 1.356 . S
N1333 H1336 0.984 . S
N1333 H1337 0.985 . S
H1334 N1329 0.984 . S
H1335 N1329 0.985 . S
H1336 N1333 0.984 . S
H1337 N1333 0.985 . S
H1338 N1332 0.984 . S
H1339 N1332 0.984 . S
H1340 N1328 0.984 . S
H1341 N1328 0.985 . S
C1342 C1343 1.363 . S
C1342 C1348 1.379 . S
C1342 N1350 1.356 . S
C1343 C1342 1.363 . S
C1343 C1349 1.363 . S
C1344 C1345 1.363 . S
C1344 C1349 1.379 . S
C1344 N1351 1.356 . S
C1345 C1344 1.363 . S
C1345 C1348 1.363 . S
N1346 C1348 1.356 . S
N1346 H1358 0.984 . S
N1346 H1359 0.985 . S
N1347 C1349 1.356 . S
N1347 H1352 0.984 . S
N1347 H1353 0.985 . S
C1348 C1342 1.379 . S
C1348 C1345 1.363 . S
C1348 N1346 1.356 . S
C1349 C1343 1.363 . S
C1349 C1344 1.379 . S
C1349 N1347 1.356 . S
N1350 C1342 1.356 . S
N1350 H1356 0.984 . S
N1350 H1357 0.984 . S
N1351 C1344 1.356 . S
N1351 H1354 0.984 . S
N1351 H1355 0.985 . S
H1352 N1347 0.984 . S
H1353 N1347 0.985 . S
H1354 N1351 0.984 . S
H1355 N1351 0.985 . S
H1356 N1350 0.984 . S
H1357 N1350 0.984 . S
H1358 N1346 0.984 . S
H1359 N1346 0.985 . S
C1360 C1361 1.363 . S
C1360 C1366 1.379 . S
C1360 N1368 1.356 . S
C1361 C1360 1.363 . S
C1361 C1367 1.363 . S
C1362 C1363 1.363 . S
C1362 C1367 1.379 . S
C1362 N1369 1.356 . S
C1363 C1362 1.363 . S
C1363 C1366 1.363 . S
N1364 C1366 1.356 . S
N1364 H1376 0.984 . S
N1364 H1377 0.985 . S
N1365 C1367 1.356 . S
N1365 H1370 0.984 . S
N1365 H1371 0.985 . S
C1366 C1360 1.379 . S
C1366 C1363 1.363 . S
C1366 N1364 1.356 . S
C1367 C1361 1.363 . S
C1367 C1362 1.379 . S
C1367 N1365 1.356 . S
N1368 C1360 1.356 . S
N1368 H1374 0.984 . S
N1368 H1375 0.984 . S
N1369 C1362 1.356 . S
N1369 H1372 0.984 . S
N1369 H1373 0.985 . S
H1370 N1365 0.984 . S
H1371 N1365 0.985 . S
H1372 N1369 0.984 . S
H1373 N1369 0.985 . S
H1374 N1368 0.984 . S
H1375 N1368 0.984 . S
H1376 N1364 0.984 . S
H1377 N1364 0.985 . S
C1378 C1379 1.363 . S
C1378 C1384 1.379 . S
C1378 N1386 1.356 . S
C1379 C1378 1.363 . S
C1379 C1385 1.363 . S
C1380 C1381 1.363 . S
C1380 C1385 1.379 . S
C1380 N1387 1.356 1_556 S
C1381 C1380 1.363 . S
C1381 C1384 1.363 . S
N1382 C1384 1.356 . S
N1382 H1394 0.984 . S
N1382 H1395 0.985 . S
N1383 C1385 1.369 . S
N1383 H1388 0.986 . S
N1383 H1389 0.970 1_556 S
C1384 C1378 1.379 . S
C1384 C1381 1.363 . S
C1384 N1382 1.356 . S
C1385 C1379 1.363 . S
C1385 C1380 1.379 . S
C1385 N1383 1.369 . S
N1386 C1378 1.356 . S
N1386 H1392 0.984 . S
N1386 H1393 0.984 . S
N1387 C1380 1.356 1_554 S
N1387 H1390 0.984 . S
N1387 H1391 0.985 . S
H1388 N1383 0.986 . S
H1389 N1383 0.970 1_554 S
H1390 N1387 0.984 . S
H1391 N1387 0.985 . S
H1392 N1386 0.984 . S
H1393 N1386 0.984 . S
H1394 N1382 0.984 . S
H1395 N1382 0.985 . S
C1396 C1397 1.363 . S
C1396 C1402 1.379 . S
C1396 N1404 1.356 . S
C1397 C1396 1.363 . S
C1397 C1403 1.363 . S
C1398 C1399 1.363 . S
C1398 C1403 1.379 . S
C1398 N1405 1.356 . S
C1399 C1398 1.363 . S
C1399 C1402 1.363 . S
N1400 C1402 1.356 . S
N1400 H1412 0.984 . S
N1400 H1413 0.985 . S
N1401 C1403 1.356 1_554 S
N1401 H1406 0.984 . S
N1401 H1407 0.985 . S
C1402 C1396 1.379 . S
C1402 C1399 1.363 . S
C1402 N1400 1.356 . S
C1403 C1397 1.363 . S
C1403 C1398 1.379 . S
C1403 N1401 1.356 1_556 S
N1404 C1396 1.356 . S
N1404 H1410 0.984 . S
N1404 H1411 0.984 . S
N1405 C1398 1.356 . S
N1405 H1408 0.984 . S
N1405 H1409 0.985 . S
H1406 N1401 0.984 . S
H1407 N1401 0.985 . S
H1408 N1405 0.984 . S
H1409 N1405 0.985 . S
H1410 N1404 0.984 . S
H1411 N1404 0.984 . S
H1412 N1400 0.984 . S
H1413 N1400 0.985 . S
C1414 C1415 1.363 . S
C1414 C1420 1.379 . S
C1414 N1422 1.356 . S
C1415 C1414 1.363 . S
C1415 C1421 1.363 . S
C1416 C1417 1.363 . S
C1416 C1421 1.379 . S
C1416 N1423 1.356 . S
C1417 C1416 1.363 . S
C1417 C1420 1.363 . S
N1418 C1420 1.356 . S
N1418 H1430 0.984 . S
N1418 H1431 0.985 . S
N1419 C1421 1.356 . S
N1419 H1424 0.984 . S
N1419 H1425 0.985 . S
C1420 C1414 1.379 . S
C1420 C1417 1.363 . S
C1420 N1418 1.356 . S
C1421 C1415 1.363 . S
C1421 C1416 1.379 . S
C1421 N1419 1.356 . S
N1422 C1414 1.356 . S
N1422 H1428 0.984 . S
N1422 H1429 0.984 . S
N1423 C1416 1.356 . S
N1423 H1426 0.984 . S
N1423 H1427 0.985 . S
H1424 N1419 0.984 . S
H1425 N1419 0.985 . S
H1426 N1423 0.984 . S
H1427 N1423 0.985 . S
H1428 N1422 0.984 . S
H1429 N1422 0.984 . S
H1430 N1418 0.984 . S
H1431 N1418 0.985 . S
C1432 C1433 1.363 . S
C1432 C1438 1.379 . S
C1432 N1440 1.356 . S
C1433 C1432 1.363 . S
C1433 C1439 1.363 . S
C1434 C1435 1.363 . S
C1434 C1439 1.379 . S
C1434 N1441 1.356 . S
C1435 C1434 1.363 . S
C1435 C1438 1.363 . S
N1436 C1438 1.356 . S
N1436 H1448 0.984 . S
N1436 H1449 0.985 . S
N1437 C1439 1.356 . S
N1437 H1442 0.984 . S
N1437 H1443 0.985 . S
C1438 C1432 1.379 . S
C1438 C1435 1.363 . S
C1438 N1436 1.356 . S
C1439 C1433 1.363 . S
C1439 C1434 1.379 . S
C1439 N1437 1.356 . S
N1440 C1432 1.356 . S
N1440 H1446 0.984 . S
N1440 H1447 0.984 . S
N1441 C1434 1.356 . S
N1441 H1444 0.984 . S
N1441 H1445 0.985 . S
H1442 N1437 0.984 . S
H1443 N1437 0.985 . S
H1444 N1441 0.984 . S
H1445 N1441 0.985 . S
H1446 N1440 0.984 . S
H1447 N1440 0.984 . S
H1448 N1436 0.984 . S
H1449 N1436 0.985 . S
C1450 C1451 1.363 . S
C1450 C1456 1.379 . S
C1450 N1458 1.356 1_556 S
C1451 C1450 1.363 . S
C1451 C1457 1.363 . S
C1452 C1453 1.363 . S
C1452 C1457 1.379 . S
C1452 N1459 1.356 . S
C1453 C1452 1.363 . S
C1453 C1456 1.363 . S
N1454 C1456 1.356 1_554 S
N1454 H1466 0.984 . S
N1454 H1467 0.985 . S
N1455 C1457 1.356 . S
N1455 H1460 0.984 . S
N1455 H1461 0.985 . S
C1456 C1450 1.379 . S
C1456 C1453 1.363 . S
C1456 N1454 1.356 1_556 S
C1457 C1451 1.363 . S
C1457 C1452 1.379 . S
C1457 N1455 1.356 . S
N1458 C1450 1.356 1_554 S
N1458 H1464 0.984 . S
N1458 H1465 0.984 . S
N1459 C1452 1.356 . S
N1459 H1462 0.984 . S
N1459 H1463 0.985 . S
H1460 N1455 0.984 . S
H1461 N1455 0.985 . S
H1462 N1459 0.984 . S
H1463 N1459 0.985 . S
H1464 N1458 0.984 . S
H1465 N1458 0.984 . S
H1466 N1454 0.984 . S
H1467 N1454 0.985 . S
C1468 C1469 1.363 . S
C1468 C1474 1.379 . S
C1468 N1476 1.356 . S
C1469 C1468 1.363 . S
C1469 C1475 1.363 . S
C1470 C1471 1.363 . S
C1470 C1475 1.379 . S
C1470 N1477 1.356 . S
C1471 C1470 1.363 . S
C1471 C1474 1.363 . S
N1472 C1474 1.356 . S
N1472 H1484 0.984 . S
N1472 H1485 0.985 . S
N1473 C1475 1.356 . S
N1473 H1478 0.984 . S
N1473 H1479 0.985 . S
C1474 C1468 1.379 . S
C1474 C1471 1.363 . S
C1474 N1472 1.356 . S
C1475 C1469 1.363 . S
C1475 C1470 1.379 . S
C1475 N1473 1.356 . S
N1476 C1468 1.356 . S
N1476 H1482 0.984 . S
N1476 H1483 0.984 . S
N1477 C1470 1.356 . S
N1477 H1480 0.984 . S
N1477 H1481 0.985 . S
H1478 N1473 0.984 . S
H1479 N1473 0.985 . S
H1480 N1477 0.984 . S
H1481 N1477 0.985 . S
H1482 N1476 0.984 . S
H1483 N1476 0.984 . S
H1484 N1472 0.984 . S
H1485 N1472 0.985 . S
C1486 C1487 1.363 . S
C1486 C1492 1.379 . S
C1486 N1494 1.356 . S
C1487 C1486 1.363 . S
C1487 C1493 1.363 . S
C1488 C1489 1.363 . S
C1488 C1493 1.379 . S
C1488 N1495 1.356 1_554 S
C1489 C1488 1.363 . S
C1489 C1492 1.363 . S
N1490 C1492 1.356 . S
N1490 H1502 0.984 . S
N1490 H1503 0.985 . S
N1491 C1493 1.356 1_556 S
N1491 H1496 0.984 . S
N1491 H1497 0.985 . S
C1492 C1486 1.379 . S
C1492 C1489 1.363 . S
C1492 N1490 1.356 . S
C1493 C1487 1.363 . S
C1493 C1488 1.379 . S
C1493 N1491 1.356 1_554 S
N1494 C1486 1.356 . S
N1494 H1500 0.984 . S
N1494 H1501 0.984 . S
N1495 C1488 1.356 1_556 S
N1495 H1498 0.984 . S
N1495 H1499 0.985 . S
H1496 N1491 0.984 . S
H1497 N1491 0.985 . S
H1498 N1495 0.984 . S
H1499 N1495 0.985 . S
H1500 N1494 0.984 . S
H1501 N1494 0.984 . S
H1502 N1490 0.984 . S
H1503 N1490 0.985 . S
C641 C12 1.912 . S
C643 C69 1.764 . S
C659 C82 1.858 . S
C661 C71 1.811 . S
C677 C151 2.518 . S
C679 C92 2.593 . S
C695 C2 1.661 . S
C697 C149 1.480 . S
C713 C17 1.661 . S
C715 C368 1.480 . S
C731 C311 1.912 . S
C733 C48 1.764 . S
C749 C97 1.858 . S
C751 C412 1.811 . S
C767 C132 2.518 . S
C769 C551 2.593 . S
C785 C337 1.858 . S
C787 C52 1.811 . S
C803 C492 2.518 . S
C805 C111 2.593 . S
C821 C577 1.661 . S
C823 C128 1.480 . S
C839 C31 1.912 . S
C841 C448 1.764 . S
C857 C29 0.727 . S
C859 C349 0.728 . S
C875 C482 1.948 . S
C877 C177 2.013 . S
C893 C208 0.728 . S
C895 C568 0.727 . S
C911 C457 2.012 . S
C913 C242 1.948 . S
C929 C88 0.728 . S
C931 C288 0.727 . S
C947 C377 1.947 . S
C949 C162 2.012 . S
C965 C257 1.947 . S
C967 C402 2.012 . S
C983 C217 1.858 . S
C985 C452 1.811 . S
C1001 C372 2.517 . S
C1003 C231 2.593 . S
C1019 C469 1.764 . S
C1021 C292 1.912 . S
C1037 C202 1.858 . S
C1039 C191 1.811 . S
C1055 C391 2.518 . S
C1057 C332 2.593 . S
C1073 C522 1.858 . S
C1075 C471 1.811 . S
C1091 C271 2.517 . S
C1093 C212 2.593 . S
C1109 C389 1.480 . S
C1111 C562 1.661 . S
C1127 C528 0.728 . S
C1129 C8 0.727 . S
C1145 C109 0.728 . S
C1147 C589 0.727 . S
C1163 C497 1.948 . S
C1165 C42 2.012 . S
C1181 C309 0.727 . S
C1183 C229 0.728 . S
C1199 C122 1.948 . S
C1201 C417 2.013 . S
C1217 C511 2.517 . S
C1219 C532 2.593 . S
C1235 C282 1.661 . S
C1237 C509 1.480 . S
C1253 C248 1.480 . S
C1255 C297 1.661 . S
C1271 C172 1.811 . S
C1273 C537 1.858 . S
C1289 C488 1.480 . S
C1291 C617 1.661 . S
C1307 C608 0.727 . S
C1309 C328 0.728 . S
C1325 C57 2.012 . S
C1327 C362 1.948 . S
C1343 C351 2.593 . S
C1345 C252 2.518 . S
C1361 C322 1.858 . S
C1363 C431 1.811 . S
C1379 C602 1.661 . S
C1381 C269 1.480 . S
C1397 C549 0.728 . S
C1399 C629 0.727 . S
C1415 C442 2.012 . S
C1417 C137 1.948 . S
C1433 C429 1.764 . S
C1435 C572 1.912 . S
C1451 C408 1.764 . S
C1453 C631 1.912 . S
C1469 C168 1.764 . S
C1471 C591 1.912 . S
C1487 C612 1.912 . S
C1489 C189 1.764 . S
