# Generated by pormake.
# Topology wjq, (5)-cn, num edge types: 1
# Building blocks:
#     Node 0, Type 0, BuildingBlock: XOMCOT_clean_sbu_1, # of connection points: 5
#     Node 1, Type 0, BuildingBlock: XOMCOT_clean_sbu_1, # of connection points: 5
#     Node 2, Type 0, BuildingBlock: XOMCOT_clean_sbu_1, # of connection points: 5
#     Node 3, Type 0, BuildingBlock: XOMCOT_clean_sbu_1, # of connection points: 5
#     Node 4, Type 0, BuildingBlock: XOMCOT_clean_sbu_1, # of connection points: 5
#     Node 5, Type 0, BuildingBlock: XOMCOT_clean_sbu_1, # of connection points: 5
#     Node 6, Type 0, BuildingBlock: XOMCOT_clean_sbu_1, # of connection points: 5
#     Node 7, Type 0, BuildingBlock: XOMCOT_clean_sbu_1, # of connection points: 5
#     Node 8, Type 0, BuildingBlock: XOMCOT_clean_sbu_1, # of connection points: 5
#     Node 9, Type 0, BuildingBlock: XOMCOT_clean_sbu_1, # of connection points: 5
#     Node 10, Type 0, BuildingBlock: XOMCOT_clean_sbu_1, # of connection points: 5
#     Node 11, Type 0, BuildingBlock: XOMCOT_clean_sbu_1, # of connection points: 5
#     Edge 12, Type (0, 0), BuildingBlock: MIFKUJ_clean_linker_0, # of connection points: 2
#     Edge 13, Type (0, 0), BuildingBlock: MIFKUJ_clean_linker_0, # of connection points: 2
#     Edge 14, Type (0, 0), BuildingBlock: MIFKUJ_clean_linker_0, # of connection points: 2
#     Edge 15, Type (0, 0), BuildingBlock: MIFKUJ_clean_linker_0, # of connection points: 2
#     Edge 16, Type (0, 0), BuildingBlock: MIFKUJ_clean_linker_0, # of connection points: 2
#     Edge 17, Type (0, 0), BuildingBlock: MIFKUJ_clean_linker_0, # of connection points: 2
#     Edge 18, Type (0, 0), BuildingBlock: MIFKUJ_clean_linker_0, # of connection points: 2
#     Edge 19, Type (0, 0), BuildingBlock: MIFKUJ_clean_linker_0, # of connection points: 2
#     Edge 20, Type (0, 0), BuildingBlock: MIFKUJ_clean_linker_0, # of connection points: 2
#     Edge 21, Type (0, 0), BuildingBlock: MIFKUJ_clean_linker_0, # of connection points: 2
#     Edge 22, Type (0, 0), BuildingBlock: MIFKUJ_clean_linker_0, # of connection points: 2
#     Edge 23, Type (0, 0), BuildingBlock: MIFKUJ_clean_linker_0, # of connection points: 2
#     Edge 24, Type (0, 0), BuildingBlock: MIFKUJ_clean_linker_0, # of connection points: 2
#     Edge 25, Type (0, 0), BuildingBlock: MIFKUJ_clean_linker_0, # of connection points: 2
#     Edge 26, Type (0, 0), BuildingBlock: MIFKUJ_clean_linker_0, # of connection points: 2
#     Edge 27, Type (0, 0), BuildingBlock: MIFKUJ_clean_linker_0, # of connection points: 2
#     Edge 28, Type (0, 0), BuildingBlock: MIFKUJ_clean_linker_0, # of connection points: 2
#     Edge 29, Type (0, 0), BuildingBlock: MIFKUJ_clean_linker_0, # of connection points: 2
#     Edge 30, Type (0, 0), BuildingBlock: MIFKUJ_clean_linker_0, # of connection points: 2
#     Edge 31, Type (0, 0), BuildingBlock: MIFKUJ_clean_linker_0, # of connection points: 2
#     Edge 32, Type (0, 0), BuildingBlock: MIFKUJ_clean_linker_0, # of connection points: 2
#     Edge 33, Type (0, 0), BuildingBlock: MIFKUJ_clean_linker_0, # of connection points: 2
#     Edge 34, Type (0, 0), BuildingBlock: MIFKUJ_clean_linker_0, # of connection points: 2
#     Edge 35, Type (0, 0), BuildingBlock: MIFKUJ_clean_linker_0, # of connection points: 2
#     Edge 36, Type (0, 0), BuildingBlock: MIFKUJ_clean_linker_0, # of connection points: 2
#     Edge 37, Type (0, 0), BuildingBlock: MIFKUJ_clean_linker_0, # of connection points: 2
#     Edge 38, Type (0, 0), BuildingBlock: MIFKUJ_clean_linker_0, # of connection points: 2
#     Edge 39, Type (0, 0), BuildingBlock: MIFKUJ_clean_linker_0, # of connection points: 2
#     Edge 40, Type (0, 0), BuildingBlock: MIFKUJ_clean_linker_0, # of connection points: 2
#     Edge 41, Type (0, 0), BuildingBlock: MIFKUJ_clean_linker_0, # of connection points: 2
# Relax obj value: 0.543
# Max RMSD: 0.289
# Mean RMSD: 0.289
data_MOF--net-wjq--node1-XOMCOT_clean_sbu_1--edge1-MIFKUJ_clean_linker_0
_symmetry_space_group_name_H-M    P1
_symmetry_Int_Tables_number       1
_symmetry_cell_setting            triclinic
loop_
_symmetry_equiv_pos_as_xyz
'x, y, z'
_cell_length_a     35.36864
_cell_length_b     35.379499
_cell_length_c     110.945
_cell_angle_alpha  90.022492
_cell_angle_beta   89.99713
_cell_angle_gamma 119.98249
loop_
_atom_site_label
_atom_site_type_symbol
_atom_site_fract_x
_atom_site_fract_y
_atom_site_fract_z
_atom_type_partial_charge
C0 C 0.34672 0.29312 0.04449 0.0
C1 C 0.32304 0.29407 0.03475 0.0
N2 N 0.28587 0.25528 0.03408 0.0
N3 N 0.32449 0.25397 0.04999 0.0
C4 C 0.28796 0.23149 0.04329 0.0
H5 H 0.37792 0.3196 0.04742 0.0
Co6 Co 0.3405 0.23514 0.06388 0.0
C7 C 0.25321 0.18222 0.07753 0.0
O8 O 0.26907 0.17028 0.08648 0.0
N9 N 0.35811 0.21721 0.07774 0.0
C10 C 0.39194 0.19322 0.0898 0.0
C11 C 0.38219 0.19722 0.07804 0.0
C12 C 0.35528 0.22659 0.0894 0.0
N13 N 0.37458 0.21139 0.0969 0.0
O14 O 0.35534 0.28914 0.07178 0.0
H15 H 0.39259 0.18659 0.07022 0.0
H16 H 0.33899 0.24397 0.09237 0.0
O17 O 0.2784 0.20647 0.06907 0.0
C18 C 0.397 0.31114 0.07121 0.0
O19 O 0.41728 0.29377 0.06552 0.0
N20 N 0.33135 0.18532 0.05579 0.0
C21 C 0.33852 0.11864 0.04478 0.0
C22 C 0.30561 0.10906 0.05331 0.0
C23 C 0.30264 0.14302 0.05878 0.0
C24 C 0.36267 0.1951 0.04729 0.0
C25 C 0.36683 0.16227 0.04165 0.0
H26 H 0.27874 0.13513 0.06576 0.0
H27 H 0.38593 0.22886 0.04531 0.0
H28 H 0.26383 0.1979 0.04497 0.0
H29 H 0.33189 0.32161 0.02885 0.0
H30 H 0.40958 0.17738 0.09291 0.0
H31 H 0.28273 0.07569 0.05584 0.0
H32 H 0.39297 0.17113 0.03521 0.0
C33 C 0.06115 0.33308 0.3752 0.0
C34 C 0.03757 0.30871 0.36546 0.0
N35 N 0.02761 0.26704 0.36722 0.0
N36 N 0.06596 0.30703 0.38315 0.0
C37 C 0.04497 0.26685 0.37807 0.0
H38 H 0.07515 0.36793 0.3762 0.0
Co39 Co 0.10133 0.32708 0.3968 0.0
C40 C 0.08426 0.24696 0.4102 0.0
O41 O 0.12538 0.26721 0.41357 0.0
N42 N 0.1374 0.34869 0.41057 0.0
C43 C 0.19336 0.38246 0.42323 0.0
C44 C 0.18104 0.37577 0.41134 0.0
C45 C 0.12386 0.34115 0.42218 0.0
N46 N 0.15737 0.36036 0.43003 0.0
O47 O 0.06191 0.34293 0.4042 0.0
H48 H 0.20314 0.39031 0.40388 0.0
H49 H 0.09016 0.32021 0.42481 0.0
O50 O 0.07001 0.26733 0.40376 0.0
C51 C 0.07898 0.38395 0.40241 0.0
O52 O 0.11577 0.40385 0.39633 0.0
N53 N 0.14208 0.31679 0.38883 0.0
C54 C 0.21161 0.31717 0.37705 0.0
C55 C 0.17676 0.27806 0.38142 0.0
C56 C 0.1416 0.27835 0.38701 0.0
C57 C 0.17346 0.35407 0.38352 0.0
C58 C 0.20907 0.3553 0.37779 0.0
H59 H 0.11413 0.24752 0.38958 0.0
H60 H 0.17161 0.3836 0.38417 0.0
H61 H 0.04418 0.23842 0.38194 0.0
H62 H 0.02891 0.32094 0.35762 0.0
H63 H 0.2263 0.40214 0.42661 0.0
H64 H 0.17624 0.24738 0.38029 0.0
H65 H 0.23465 0.3859 0.37417 0.0
C66 C 0.72456 0.06395 0.71534 0.0
C67 C 0.72384 0.03683 0.70633 0.0
N68 N 0.75928 0.0323 0.70754 0.0
N69 N 0.76027 0.07652 0.72222 0.0
C70 C 0.78069 0.05649 0.71728 0.0
H71 H 0.70149 0.07526 0.71649 0.0
Co72 Co 0.77938 0.11962 0.73407 0.0
C73 C 0.85795 0.12209 0.7447 0.0
O74 O 0.87679 0.16477 0.74558 0.0
N75 N 0.7981 0.16353 0.74606 0.0
C76 C 0.8188 0.22493 0.75631 0.0
C77 C 0.80695 0.20531 0.74521 0.0
C78 C 0.80317 0.15827 0.75791 0.0
N79 N 0.81669 0.19535 0.76429 0.0
O80 O 0.73302 0.08081 0.7446 0.0
H81 H 0.80448 0.22104 0.73718 0.0
H82 H 0.79831 0.12798 0.7617 0.0
O83 O 0.81917 0.10029 0.74042 0.0
C84 C 0.70502 0.09349 0.74393 0.0
O85 O 0.71263 0.1252 0.7364 0.0
N86 N 0.82037 0.1586 0.72315 0.0
C87 C 0.87159 0.22405 0.70692 0.0
C88 C 0.88588 0.1964 0.71155 0.0
C89 C 0.85922 0.16304 0.71948 0.0
C90 C 0.80431 0.18219 0.71774 0.0
C91 C 0.82973 0.21586 0.70983 0.0
H92 H 0.86977 0.14077 0.7224 0.0
H93 H 0.77187 0.17577 0.71997 0.0
H94 H 0.81192 0.06144 0.72032 0.0
H95 H 0.6995 0.02223 0.6993 0.0
H96 H 0.82772 0.25828 0.75836 0.0
H97 H 0.91689 0.19985 0.70885 0.0
H98 H 0.81687 0.2355 0.70615 0.0
C99 C 0.67191 0.8134 0.04198 0.0
C100 C 0.68175 0.79592 0.0322 0.0
N101 N 0.71421 0.78832 0.03533 0.0
N102 N 0.69842 0.81751 0.05125 0.0
C103 C 0.72264 0.8005 0.04702 0.0
H104 H 0.64743 0.82309 0.04213 0.0
Co105 Co 0.70303 0.84176 0.06671 0.0
C106 C 0.79459 0.89191 0.05693 0.0
O107 O 0.78018 0.89144 0.04598 0.0
N108 N 0.70737 0.86529 0.082 0.0
C109 C 0.7303 0.90917 0.09792 0.0
C110 C 0.7407 0.90252 0.08649 0.0
C111 C 0.67687 0.85026 0.09078 0.0
N112 N 0.69004 0.87626 0.10062 0.0
O113 O 0.70231 0.79171 0.0736 0.0
H114 H 0.77061 0.92397 0.08177 0.0
H115 H 0.64531 0.82117 0.08989 0.0
O116 O 0.76739 0.8736 0.06557 0.0
C117 C 0.66165 0.76416 0.07461 0.0
O118 O 0.63359 0.7755 0.07077 0.0
N119 N 0.69723 0.88752 0.06043 0.0
C120 C 0.66895 0.9417 0.05078 0.0
C121 C 0.71379 0.95659 0.05212 0.0
C122 C 0.72735 0.92918 0.05724 0.0
C123 C 0.65392 0.87454 0.06034 0.0
C124 C 0.639 0.90092 0.05553 0.0
H125 H 0.76173 0.9417 0.05852 0.0
H126 H 0.63048 0.84252 0.06364 0.0
H127 H 0.74803 0.79975 0.05227 0.0
H128 H 0.66658 0.79008 0.02342 0.0
H129 H 0.75124 0.93586 0.10382 0.0
H130 H 0.7382 0.98828 0.04878 0.0
H131 H 0.60419 0.8887 0.0551 0.0
C132 C 0.93654 0.67627 0.38817 0.0
C133 C 0.96723 0.6939 0.37915 0.0
N134 N 0.97454 0.73437 0.3767 0.0
N135 N 0.92464 0.70546 0.39146 0.0
C136 C 0.94827 0.74052 0.38432 0.0
H137 H 0.92321 0.64396 0.39199 0.0
Co138 Co 0.88255 0.69537 0.40299 0.0
C139 C 0.88237 0.7786 0.40538 0.0
O140 O 0.83955 0.75573 0.40557 0.0
N141 N 0.83926 0.68483 0.41494 0.0
C142 C 0.7775 0.6659 0.42495 0.0
C143 C 0.79531 0.66649 0.41391 0.0
C144 C 0.84694 0.69507 0.42679 0.0
N145 N 0.81004 0.68361 0.43302 0.0
O146 O 0.92227 0.69735 0.41514 0.0
H147 H 0.7766 0.65477 0.40572 0.0
H148 H 0.87906 0.71079 0.43084 0.0
O149 O 0.90434 0.75891 0.40427 0.0
C150 C 0.90879 0.65819 0.41862 0.0
O151 O 0.87021 0.62737 0.41499 0.0
N152 N 0.84382 0.68653 0.3906 0.0
C153 C 0.78511 0.65384 0.37148 0.0
C154 C 0.81349 0.69911 0.3728 0.0
C155 C 0.84315 0.71487 0.3824 0.0
C156 C 0.8186 0.64266 0.38898 0.0
C157 C 0.78813 0.62564 0.37975 0.0
H158 H 0.86628 0.74936 0.38291 0.0
H159 H 0.8216 0.62066 0.39515 0.0
H160 H 0.94614 0.76995 0.38465 0.0
H161 H 0.98203 0.67761 0.37452 0.0
H162 H 0.74318 0.65242 0.42696 0.0
H163 H 0.81379 0.72208 0.36631 0.0
H164 H 0.76712 0.59061 0.3792 0.0
C165 C 0.27559 0.96883 0.72508 0.0
C166 C 0.28721 0.99729 0.71556 0.0
N167 N 0.25454 0.00567 0.71346 0.0
N168 N 0.23585 0.95927 0.72906 0.0
C169 C 0.22365 0.98203 0.7218 0.0
H170 H 0.29445 0.95502 0.72868 0.0
Co171 Co 0.2067 0.91873 0.74117 0.0
C172 C 0.12975 0.92623 0.74811 0.0
O173 O 0.10838 0.88377 0.74975 0.0
N174 N 0.17823 0.87713 0.75358 0.0
C175 C 0.14703 0.81715 0.76488 0.0
C176 C 0.15923 0.83313 0.75339 0.0
C177 C 0.1771 0.88685 0.76532 0.0
N178 N 0.15852 0.85105 0.77239 0.0
O179 O 0.25056 0.95656 0.75251 0.0
H180 H 0.1555 0.81341 0.7456 0.0
H181 H 0.19028 0.91984 0.76862 0.0
O182 O 0.16961 0.94512 0.74453 0.0
C183 C 0.27422 0.93949 0.75476 0.0
O184 O 0.26434 0.90229 0.74956 0.0
N185 N 0.16875 0.88076 0.72958 0.0
C186 C 0.12437 0.81869 0.71182 0.0
C187 C 0.11032 0.84786 0.71532 0.0
C188 C 0.13365 0.87947 0.72406 0.0
C189 C 0.18448 0.85479 0.72567 0.0
C190 C 0.16247 0.82304 0.71695 0.0
H191 H 0.1238 0.90307 0.72607 0.0
H192 H 0.21407 0.8583 0.72958 0.0
H193 H 0.19259 0.98088 0.72252 0.0
H194 H 0.31691 0.00964 0.71035 0.0
H195 H 0.13274 0.78332 0.76754 0.0
H196 H 0.0817 0.84642 0.71132 0.0
H197 H 0.17559 0.80257 0.71414 0.0
C198 C 0.81624 0.6919 0.62009 0.0
C199 C 0.81471 0.71356 0.63019 0.0
N200 N 0.82215 0.75333 0.62687 0.0
N201 N 0.8248 0.71782 0.61038 0.0
C202 C 0.8279 0.75499 0.61477 0.0
H203 H 0.81146 0.65924 0.61983 0.0
Co204 Co 0.83079 0.70218 0.59464 0.0
C205 C 0.90646 0.78256 0.5851 0.0
O206 O 0.92274 0.75889 0.58101 0.0
N207 N 0.83621 0.68575 0.57848 0.0
C208 C 0.85572 0.66365 0.56194 0.0
C209 C 0.86352 0.6727 0.57397 0.0
C210 C 0.81249 0.68462 0.56872 0.0
N211 N 0.82345 0.67097 0.55863 0.0
O212 O 0.78017 0.70466 0.58993 0.0
H213 H 0.8894 0.6716 0.5788 0.0
H214 H 0.78758 0.69372 0.56889 0.0
O215 O 0.86978 0.76418 0.59063 0.0
C216 C 0.74886 0.66685 0.59268 0.0
O217 O 0.75843 0.64007 0.59835 0.0
N218 N 0.87603 0.69395 0.60007 0.0
C219 C 0.93021 0.66762 0.6109 0.0
C220 C 0.94116 0.71178 0.61098 0.0
C221 C 0.91331 0.72422 0.60565 0.0
C222 C 0.86394 0.65083 0.60039 0.0
C223 C 0.89123 0.63715 0.60531 0.0
H224 H 0.92049 0.75754 0.60661 0.0
H225 H 0.83272 0.62685 0.59669 0.0
H226 H 0.83472 0.78286 0.60923 0.0
H227 H 0.80785 0.70068 0.63927 0.0
H228 H 0.87377 0.65407 0.55601 0.0
H229 H 0.96948 0.73623 0.61581 0.0
H230 H 0.88096 0.60276 0.60512 0.0
C231 C 0.04507 0.70188 0.95017 0.0
C232 C 0.01514 0.69427 0.95913 0.0
N233 N 0.0036 0.72519 0.95843 0.0
N234 N 0.0525 0.7375 0.94388 0.0
C235 C 0.02667 0.75094 0.9491 0.0
H236 H 0.06111 0.68317 0.94847 0.0
Co237 Co 0.09356 0.76249 0.93163 0.0
C238 C 0.09526 0.84497 0.9251 0.0
O239 O 0.13774 0.86397 0.92365 0.0
N240 N 0.13535 0.78741 0.91907 0.0
C241 C 0.19523 0.81915 0.90765 0.0
C242 C 0.17947 0.80689 0.91918 0.0
C243 C 0.12536 0.78815 0.90734 0.0
N244 N 0.161 0.80694 0.90025 0.0
O245 O 0.05222 0.72076 0.92047 0.0
H246 H 0.19953 0.81228 0.92702 0.0
H247 H 0.09244 0.77565 0.90403 0.0
O248 O 0.07372 0.80476 0.92826 0.0
C249 C 0.06454 0.69293 0.91862 0.0
O250 O 0.0999 0.69832 0.92405 0.0
N251 N 0.13433 0.79766 0.94312 0.0
C252 C 0.19612 0.83388 0.96139 0.0
C253 C 0.17102 0.85294 0.9581 0.0
C254 C 0.13929 0.83358 0.9491 0.0
C255 C 0.15703 0.77778 0.94664 0.0
C256 C 0.18847 0.79557 0.95564 0.0
H257 H 0.11819 0.84674 0.94731 0.0
H258 H 0.15087 0.7479 0.94228 0.0
H259 H 0.02584 0.77992 0.94643 0.0
H260 H 1.00286 0.66805 0.96566 0.0
H261 H 0.2291 0.83505 0.90488 0.0
H262 H 0.17481 0.88157 0.96275 0.0
H263 H 0.20668 0.77953 0.95806 0.0
C264 C 0.32003 0.01416 0.26914 0.0
C265 C 0.29885 0.98604 0.27852 0.0
N266 N 0.26068 0.98499 0.28053 0.0
N267 N 0.29541 0.03076 0.26516 0.0
C268 C 0.25946 0.01242 0.27223 0.0
H269 H 0.35217 0.02334 0.26576 0.0
Co270 Co 0.31362 0.07536 0.25392 0.0
C271 C 0.23343 0.07752 0.24659 0.0
O272 O 0.25699 0.12 0.24515 0.0
N273 N 0.33337 0.12102 0.24252 0.0
C274 C 0.37383 0.1838 0.23286 0.0
C275 C 0.36466 0.1633 0.24386 0.0
C276 C 0.32404 0.11681 0.2306 0.0
N277 N 0.34826 0.15446 0.22455 0.0
O278 O 0.3165 0.03777 0.24185 0.0
H279 H 0.38154 0.17834 0.25212 0.0
H280 H 0.30145 0.08616 0.22633 0.0
O281 O 0.25194 0.05605 0.24999 0.0
C282 C 0.35687 0.05092 0.24003 0.0
O283 O 0.38625 0.08544 0.2459 0.0
N284 N 0.31651 0.11231 0.26628 0.0
C285 C 0.33765 0.16714 0.28611 0.0
C286 C 0.29546 0.14713 0.2812 0.0
C287 C 0.28518 0.11895 0.27138 0.0
C288 C 0.35703 0.13019 0.27129 0.0
C289 C 0.36851 0.15808 0.28113 0.0
H290 H 0.25186 0.10162 0.26835 0.0
H291 H 0.38077 0.12279 0.26749 0.0
H292 H 0.23354 0.02005 0.27149 0.0
H293 H 0.31174 0.96924 0.28376 0.0
H294 H 0.39825 0.21737 0.23104 0.0
H295 H 0.27025 0.15199 0.28519 0.0
H296 H 0.40121 0.17241 0.28479 0.0
C297 C 0.31837 0.34114 0.60362 0.0
C298 C 0.3254 0.32006 0.61303 0.0
N299 N 0.28962 0.28035 0.61435 0.0
N300 N 0.27845 0.31486 0.59896 0.0
C301 C 0.26178 0.278 0.60564 0.0
H302 H 0.34025 0.3742 0.60067 0.0
Co303 Co 0.25193 0.33128 0.58724 0.0
C304 C 0.17819 0.24875 0.57748 0.0
O305 O 0.15602 0.26904 0.57583 0.0
N306 N 0.22578 0.34916 0.57531 0.0
C307 C 0.19227 0.37863 0.56531 0.0
C308 C 0.20672 0.37397 0.57639 0.0
C309 C 0.22363 0.34042 0.56337 0.0
N310 N 0.20275 0.3573 0.55714 0.0
O311 O 0.2983 0.34236 0.57621 0.0
H312 H 0.20335 0.3883 0.58459 0.0
H313 H 0.23579 0.32059 0.55941 0.0
O314 O 0.21684 0.26966 0.58192 0.0
C315 C 0.32202 0.38362 0.57495 0.0
O316 O 0.31104 0.40914 0.58073 0.0
N317 N 0.21062 0.32554 0.59866 0.0
C318 C 0.15633 0.33327 0.6153 0.0
C319 C 0.14565 0.29234 0.6106 0.0
C320 C 0.17374 0.28899 0.60244 0.0
C321 C 0.22359 0.36465 0.60411 0.0
C322 C 0.19655 0.36954 0.6123 0.0
H323 H 0.16567 0.25695 0.59942 0.0
H324 H 0.25431 0.39278 0.60156 0.0
H325 H 0.22941 0.25039 0.60433 0.0
H326 H 0.35386 0.33386 0.61881 0.0
H327 H 0.17573 0.39672 0.5634 0.0
H328 H 0.11599 0.26311 0.61326 0.0
H329 H 0.20645 0.40157 0.61594 0.0
C330 C 0.87811 0.19714 0.95039 0.0
C331 C 0.90302 0.20109 0.96036 0.0
N332 N 0.93696 0.19658 0.95679 0.0
N333 N 0.89608 0.1898 0.94059 0.0
C334 C 0.93218 0.19016 0.94475 0.0
H335 H 0.84837 0.19876 0.95032 0.0
Co336 Co 0.87376 0.17912 0.92486 0.0
C337 C 0.88386 0.10355 0.9179 0.0
O338 O 0.84323 0.08277 0.91418 0.0
N339 N 0.85149 0.16852 0.90866 0.0
C340 C 0.80918 0.14233 0.89232 0.0
C341 C 0.81282 0.13618 0.90435 0.0
C342 C 0.87096 0.19332 0.89878 0.0
N343 N 0.84573 0.17832 0.88885 0.0
O344 O 0.9251 0.23097 0.91962 0.0
H345 H 0.78838 0.10888 0.90944 0.0
H346 H 0.90281 0.22231 0.89874 0.0
O347 O 0.90012 0.14227 0.92209 0.0
C348 C 0.91439 0.25972 0.92206 0.0
O349 O 0.87612 0.24659 0.92708 0.0
N350 N 0.82152 0.13352 0.9308 0.0
C351 C 0.74447 0.08669 0.94388 0.0
C352 C 0.77812 0.07644 0.94475 0.0
C353 C 0.81662 0.10043 0.93813 0.0
C354 C 0.78923 0.14375 0.92991 0.0
C355 C 0.74983 0.11955 0.93587 0.0
H356 H 0.84367 0.09497 0.93971 0.0
H357 H 0.79465 0.17192 0.92472 0.0
H358 H 0.95406 0.18484 0.93912 0.0
H359 H 0.89676 0.20703 0.96952 0.0
H360 H 0.78208 0.12144 0.88651 0.0
H361 H 0.77638 0.05261 0.95118 0.0
H362 H 0.72494 0.12857 0.93478 0.0
C363 C 0.67314 0.87373 0.28208 0.0
C364 C 0.69659 0.8986 0.29176 0.0
N365 N 0.7364 0.92914 0.28786 0.0
N366 N 0.6979 0.88835 0.27207 0.0
C367 C 0.73621 0.9224 0.27585 0.0
H368 H 0.64031 0.84611 0.28233 0.0
Co369 Co 0.68028 0.86174 0.25698 0.0
C370 C 0.76297 0.87327 0.24653 0.0
O371 O 0.74189 0.83265 0.24284 0.0
N372 N 0.66103 0.83409 0.24145 0.0
C373 C 0.63623 0.78585 0.22632 0.0
C374 C 0.65338 0.79433 0.23771 0.0
C375 C 0.64863 0.8491 0.23183 0.0
N376 N 0.63299 0.82022 0.22266 0.0
O377 O 0.67546 0.91032 0.25138 0.0
H378 H 0.66063 0.77251 0.24267 0.0
H379 H 0.65047 0.88046 0.23146 0.0
O380 O 0.74216 0.88926 0.25195 0.0
C381 C 0.63679 0.90062 0.2544 0.0
O382 O 0.61356 0.86472 0.26066 0.0
N383 N 0.67965 0.81271 0.26335 0.0
C384 C 0.6663 0.73601 0.27439 0.0
C385 C 0.70784 0.77409 0.27437 0.0
C386 C 0.71383 0.81206 0.26879 0.0
C387 C 0.6386 0.77771 0.26423 0.0
C388 C 0.63153 0.73852 0.2691 0.0
H389 H 0.74543 0.84131 0.26929 0.0
H390 H 0.61126 0.77985 0.26066 0.0
H391 H 0.76385 0.94111 0.26999 0.0
H392 H 0.68507 0.89451 0.30097 0.0
H393 H 0.62803 0.75708 0.22101 0.0
H394 H 0.73548 0.77559 0.27897 0.0
H395 H 0.59881 0.71087 0.2687 0.0
H396 H 0.58464 0.71672 0.08578 0.0
H397 H 0.54611 0.63893 0.08956 0.0
H398 H 0.65937 0.63207 0.07827 0.0
H399 H 0.698 0.71095 0.07399 0.0
H400 H 0.59119 0.57475 0.06658 0.0
H401 H 0.61809 0.60814 0.10807 0.0
H402 H 0.62313 0.64629 0.12708 0.0
H403 H 0.48481 0.5968 0.1264 0.0
H404 H 0.479 0.55881 0.10726 0.0
H405 H 0.48236 0.35052 0.07699 0.0
H406 H 0.53089 0.42689 0.0819 0.0
H407 H 0.42171 0.44921 0.08189 0.0
H408 H 0.3722 0.37181 0.07683 0.0
H409 H 0.49289 0.49648 0.10092 0.0
H410 H 0.47056 0.47119 0.05779 0.0
H411 H 0.46741 0.43238 0.03902 0.0
H412 H 0.60147 0.46696 0.04362 0.0
H413 H 0.60515 0.50532 0.06255 0.0
C414 C 0.60182 0.6989 0.08434 0.0
C415 C 0.64417 0.71973 0.07948 0.0
C416 C 0.5798 0.65431 0.08663 0.0
C417 C 0.59979 0.62942 0.08431 0.0
C418 C 0.64329 0.65065 0.08017 0.0
C419 C 0.66548 0.69567 0.07781 0.0
C420 C 0.57292 0.58099 0.0847 0.0
C421 C 0.57056 0.55766 0.07423 0.0
C422 C 0.54504 0.55854 0.09455 0.0
C423 C 0.54817 0.58079 0.10618 0.0
C424 C 0.58876 0.60557 0.11193 0.0
C425 C 0.59175 0.62718 0.12274 0.0
C426 C 0.55431 0.62406 0.12795 0.0
C427 C 0.51379 0.59919 0.12236 0.0
C428 C 0.51061 0.57753 0.11154 0.0
C429 C 0.46834 0.37138 0.0782 0.0
C430 C 0.42353 0.35538 0.07631 0.0
C431 C 0.4962 0.41499 0.08107 0.0
C432 C 0.47995 0.44367 0.08211 0.0
C433 C 0.43475 0.42738 0.08112 0.0
C434 C 0.40657 0.38332 0.07822 0.0
C435 C 0.51111 0.49113 0.08278 0.0
C436 C 0.5141 0.51391 0.0934 0.0
C437 C 0.53996 0.51316 0.07313 0.0
C438 C 0.53798 0.49071 0.06165 0.0
C439 C 0.49925 0.47019 0.05485 0.0
C440 C 0.49738 0.44832 0.04418 0.0
C441 C 0.53418 0.44711 0.04014 0.0
C442 C 0.57297 0.46787 0.04676 0.0
C443 C 0.57496 0.48969 0.05747 0.0
H444 H 0.53268 0.43016 0.03188 0.0
H445 H 0.55665 0.64084 0.13631 0.0
H446 H 0.01281 0.36162 0.41914 0.0
H447 H 0.98667 0.40952 0.42715 0.0
H448 H 0.07749 0.51371 0.4041 0.0
H449 H 0.10366 0.46702 0.3963 0.0
H450 H 0.07935 0.54479 0.4259 0.0
H451 H 0.96765 0.45051 0.39723 0.0
H452 H 0.9108 0.37954 0.38923 0.0
H453 H 0.83976 0.35288 0.42248 0.0
H454 H 0.89653 0.42354 0.43072 0.0
H455 H 0.99205 0.68232 0.41198 0.0
H456 H 0.02574 0.637 0.41467 0.0
H457 H 0.92258 0.55387 0.43916 0.0
H458 H 0.88845 0.59854 0.43622 0.0
H459 H 0.92526 0.50781 0.42121 0.0
H460 H 0.03163 0.61036 0.44816 0.0
H461 H 0.08817 0.68258 0.45548 0.0
H462 H 0.16945 0.69532 0.42523 0.0
H463 H 0.11316 0.62344 0.41763 0.0
C464 C 0.02691 0.39467 0.41578 0.0
C465 C 0.0603 0.41042 0.40709 0.0
C466 C 0.0121 0.42206 0.42037 0.0
C467 C 0.03026 0.46539 0.41625 0.0
C468 C 0.0633 0.48072 0.40754 0.0
C469 C 0.07806 0.4537 0.40303 0.0
C470 C 0.01473 0.49516 0.42058 0.0
C471 C 0.04563 0.53676 0.42488 0.0
C472 C 0.9706 0.48438 0.41958 0.0
C473 C 0.93657 0.44197 0.41464 0.0
C474 C 0.94008 0.42933 0.40286 0.0
C475 C 0.90785 0.38921 0.39828 0.0
C476 C 0.87177 0.36164 0.40536 0.0
C477 C 0.86779 0.37421 0.41702 0.0
C478 C 0.89996 0.41428 0.42165 0.0
C479 C 0.97793 0.65579 0.41843 0.0
C480 C 0.9378 0.64397 0.42393 0.0
C481 C 0.997 0.62959 0.41991 0.0
C482 C 0.9765 0.59164 0.42705 0.0
C483 C 0.93886 0.5827 0.43354 0.0
C484 C 0.91963 0.60853 0.43196 0.0
C485 C 0.99011 0.55806 0.42624 0.0
C486 C 0.95882 0.51571 0.42255 0.0
C487 C 0.03394 0.56831 0.42774 0.0
C488 C 0.068 0.61155 0.43229 0.0
C489 C 0.06142 0.62868 0.44302 0.0
C490 C 0.09346 0.66955 0.44723 0.0
C491 C 0.13235 0.69355 0.44082 0.0
C492 C 0.13931 0.67669 0.43019 0.0
C493 C 0.10737 0.63584 0.42594 0.0
H494 H 0.15711 0.72519 0.44409 0.0
H495 H 0.84684 0.3306 0.4018 0.0
H496 H 0.6662 0.13769 0.75164 0.0
H497 H 0.59467 0.10874 0.76066 0.0
H498 H 0.58205 0.98106 0.76258 0.0
H499 H 0.65454 0.01034 0.75316 0.0
H500 H 0.51418 0.97654 0.75171 0.0
H501 H 0.58343 0.03775 0.78861 0.0
H502 H 0.63684 0.09245 0.80262 0.0
H503 H 0.58818 0.17909 0.79456 0.0
H504 H 0.5349 0.12524 0.78035 0.0
H505 H 0.30239 0.90091 0.77041 0.0
H506 H 0.37836 0.92788 0.77602 0.0
H507 H 0.41436 0.05275 0.76024 0.0
H508 H 0.33789 0.02562 0.75452 0.0
H509 H 0.46896 0.04911 0.78218 0.0
H510 H 0.41496 0.99254 0.74142 0.0
H511 H 0.36007 0.93645 0.72796 0.0
H512 H 0.38098 0.8388 0.74459 0.0
H513 H 0.43546 0.89431 0.75831 0.0
C514 C 0.64866 0.10356 0.75419 0.0
C515 C 0.66568 0.0761 0.75158 0.0
C516 C 0.60781 0.08711 0.7595 0.0
C517 C 0.58291 0.04275 0.76244 0.0
C518 C 0.6008 0.0155 0.76045 0.0
C519 C 0.64218 0.03218 0.75513 0.0
C520 C 0.53636 0.02472 0.76589 0.0
C521 C 0.50446 0.99167 0.75863 0.0
C522 C 0.52333 0.04482 0.77477 0.0
C523 C 0.5552 0.07741 0.78336 0.0
C524 C 0.58427 0.06858 0.78976 0.0
C525 C 0.61452 0.09943 0.79775 0.0
C526 C 0.61593 0.13923 0.79947 0.0
C527 C 0.58703 0.14822 0.79322 0.0
C528 C 0.55673 0.11749 0.78521 0.0
C529 C 0.32619 0.93478 0.76863 0.0
C530 C 0.31458 0.96115 0.76193 0.0
C531 C 0.36954 0.95012 0.77186 0.0
C532 C 0.40193 0.99203 0.76839 0.0
C533 C 0.38967 0.02033 0.76303 0.0
C534 C 0.34602 0.0049 0.7598 0.0
C535 C 0.44788 0.00219 0.76781 0.0
C536 C 0.47916 0.03356 0.77552 0.0
C537 C 0.46057 0.98047 0.75942 0.0
C538 C 0.42884 0.9474 0.75096 0.0
C539 C 0.4076 0.95904 0.74225 0.0
C540 C 0.37659 0.92738 0.73458 0.0
C541 C 0.36694 0.88405 0.73544 0.0
C542 C 0.38842 0.87236 0.74395 0.0
C543 C 0.41936 0.90389 0.75167 0.0
H544 H 0.3429 0.85957 0.7295 0.0
H545 H 0.63938 0.16308 0.80566 0.0
H546 H 0.67734 0.59457 0.60062 0.0
H547 H 0.60636 0.55532 0.59097 0.0
H548 H 0.64585 0.65863 0.56491 0.0
H549 H 0.71865 0.69824 0.5744 0.0
H550 H 0.54679 0.60282 0.58109 0.0
H551 H 0.64159 0.60249 0.54989 0.0
H552 H 0.70723 0.60114 0.54312 0.0
H553 H 0.65871 0.47463 0.55904 0.0
H554 H 0.59335 0.47588 0.56628 0.0
H555 H 0.34856 0.44777 0.55852 0.0
H556 H 0.42457 0.50204 0.55437 0.0
H557 H 0.46671 0.42408 0.57381 0.0
H558 H 0.39031 0.36917 0.57778 0.0
H559 H 0.52791 0.47938 0.55544 0.0
H560 H 0.44554 0.48675 0.58977 0.0
H561 H 0.38189 0.4868 0.59884 0.0
H562 H 0.40861 0.59976 0.57799 0.0
H563 H 0.47202 0.59983 0.56864 0.0
C564 C 0.67104 0.60944 0.59292 0.0
C565 C 0.70386 0.64925 0.58816 0.0
C566 C 0.63039 0.58686 0.58742 0.0
C567 C 0.62135 0.6037 0.57712 0.0
C568 C 0.65267 0.64497 0.57279 0.0
C569 C 0.69398 0.66764 0.57826 0.0
C570 C 0.57949 0.5759 0.5709 0.0
C571 C 0.54264 0.57686 0.57505 0.0
C572 C 0.5743 0.54125 0.5634 0.0
C573 C 0.6128 0.53955 0.55876 0.0
C574 C 0.64517 0.57464 0.5521 0.0
C575 C 0.6824 0.57395 0.5482 0.0
C576 C 0.68728 0.53794 0.5507 0.0
C577 C 0.65492 0.50255 0.55712 0.0
C578 C 0.6178 0.50328 0.56115 0.0
C579 C 0.37401 0.44111 0.56132 0.0
C580 C 0.36384 0.40452 0.56848 0.0
C581 C 0.41742 0.47219 0.55898 0.0
C582 C 0.45124 0.46751 0.56399 0.0
C583 C 0.44105 0.42827 0.56984 0.0
C584 C 0.39741 0.3968 0.57208 0.0
C585 C 0.49513 0.50648 0.56558 0.0
C586 C 0.53205 0.5067 0.56087 0.0
C587 C 0.50056 0.54239 0.5726 0.0
C588 C 0.46311 0.54298 0.57841 0.0
C589 C 0.43765 0.51142 0.58707 0.0
C590 C 0.40165 0.51143 0.59226 0.0
C591 C 0.39114 0.5432 0.58897 0.0
C592 C 0.41673 0.57511 0.58051 0.0
C593 C 0.45269 0.57514 0.57526 0.0
H594 H 0.36324 0.54315 0.59299 0.0
H595 H 0.71602 0.53738 0.5476 0.0
H596 H 0.90983 0.32604 0.93229 0.0
H597 H 0.93943 0.3999 0.92481 0.0
H598 H 0.00755 0.37412 0.89666 0.0
H599 H 0.97661 0.29834 0.90403 0.0
H600 H 0.05262 0.4635 0.91283 0.0
H601 H 0.93851 0.37607 0.8853 0.0
H602 H 0.86605 0.31512 0.87978 0.0
H603 H 0.80463 0.37257 0.90027 0.0
H604 H 0.87673 0.43298 0.90634 0.0
H605 H 0.09491 0.67143 0.89912 0.0
H606 H 0.07 0.5967 0.89249 0.0
H607 H 0.95778 0.55016 0.91576 0.0
H608 H 0.9824 0.62523 0.92223 0.0
H609 H 0.94188 0.49544 0.89565 0.0
H610 H 0.05005 0.56575 0.92739 0.0
H611 H 0.11983 0.62454 0.93545 0.0
H612 H 0.18987 0.59762 0.90833 0.0
H613 H 0.12033 0.5391 0.9 0.0
C614 C 0.93149 0.33595 0.92458 0.0
C615 C 0.94051 0.3062 0.91866 0.0
C616 C 0.94831 0.37824 0.92031 0.0
C617 C 0.97489 0.39207 0.91008 0.0
C618 C 0.98668 0.36368 0.90454 0.0
C619 C 0.96933 0.32067 0.90879 0.0
C620 C 0.98821 0.43597 0.90528 0.0
C621 C 0.02913 0.47054 0.90861 0.0
C622 C 0.95682 0.44492 0.90016 0.0
C623 C 0.9132 0.40903 0.89635 0.0
C624 C 0.90961 0.37551 0.88876 0.0
C625 C 0.86856 0.34103 0.88552 0.0
C626 C 0.83077 0.34004 0.88964 0.0
C627 C 0.83395 0.37343 0.89706 0.0
C628 C 0.87493 0.40777 0.90043 0.0
C629 C 0.06363 0.64545 0.90228 0.0
C630 C 0.04038 0.65384 0.91113 0.0
C631 C 0.0496 0.60275 0.89856 0.0
C632 C 0.01261 0.56779 0.90384 0.0
C633 C 0.98646 0.57666 0.91157 0.0
C634 C 1.00033 0.61958 0.91522 0.0
C635 C 0.00616 0.52298 0.90332 0.0
C636 C 0.96623 0.48843 0.89925 0.0
C637 C 0.03828 0.51388 0.90787 0.0
C638 C 0.08006 0.5485 0.91298 0.0
C639 C 0.08034 0.57258 0.92311 0.0
C640 C 0.11982 0.60583 0.92772 0.0
C641 C 0.15926 0.6149 0.92238 0.0
C642 C 0.15929 0.59063 0.91244 0.0
C643 C 0.11986 0.55744 0.90776 0.0
H644 H 0.18981 0.64065 0.92597 0.0
H645 H 0.79903 0.31341 0.88708 0.0
H646 H 0.5568 0.88597 0.26063 0.0
H647 H 0.51419 0.91432 0.25126 0.0
H648 H 0.62221 0.99573 0.22797 0.0
H649 H 0.66562 0.96619 0.23721 0.0
H650 H 0.56981 0.03358 0.24171 0.0
H651 H 0.55655 0.92645 0.21376 0.0
H652 H 0.54829 0.8557 0.20777 0.0
H653 H 0.42033 0.78905 0.22349 0.0
H654 H 0.42828 0.85936 0.22993 0.0
H655 H 0.41486 0.08197 0.22184 0.0
H656 H 0.4651 0.05571 0.21688 0.0
H657 H 0.3888 0.94118 0.23861 0.0
H658 H 0.33795 0.96715 0.24339 0.0
H659 H 0.43598 0.92741 0.21972 0.0
H660 H 0.46016 0.02945 0.25247 0.0
H661 H 0.46773 0.09787 0.26055 0.0
H662 H 0.57519 0.17213 0.23657 0.0
H663 H 0.56775 0.10399 0.22823 0.0
C664 C 0.57194 0.91007 0.25356 0.0
C665 C 0.61462 0.92355 0.2496 0.0
C666 C 0.54735 0.92615 0.2482 0.0
C667 C 0.56482 0.95649 0.23882 0.0
C668 C 0.60817 0.97198 0.23516 0.0
C669 C 0.63292 0.95531 0.24047 0.0
C670 C 0.53639 0.97084 0.23305 0.0
C671 C 0.54139 0.01113 0.23649 0.0
C672 C 0.49878 0.94086 0.22654 0.0
C673 C 0.49317 0.89834 0.22241 0.0
C674 C 0.52683 0.89673 0.21608 0.0
C675 C 0.52225 0.85666 0.21262 0.0
C676 C 0.48388 0.8179 0.21527 0.0
C677 C 0.45004 0.81913 0.22142 0.0
C678 C 0.45458 0.85912 0.225 0.0
C679 C 0.40738 0.04992 0.22495 0.0
C680 C 0.37261 0.02644 0.23296 0.0
C681 C 0.43628 0.03509 0.22218 0.0
C682 C 0.43125 0.99702 0.2276 0.0
C683 C 0.3933 0.97067 0.23433 0.0
C684 C 0.36403 0.98534 0.23701 0.0
C685 C 0.46916 0.98994 0.22854 0.0
C686 C 0.46543 0.95073 0.2244 0.0
C687 C 0.50801 0.02081 0.23447 0.0
C688 C 0.51308 0.06173 0.23964 0.0
C689 C 0.48524 0.06039 0.24888 0.0
C690 C 0.4895 0.09909 0.25351 0.0
C691 C 0.52184 0.13933 0.24905 0.0
C692 C 0.55009 0.14093 0.23999 0.0
C693 C 0.54586 0.1023 0.23531 0.0
H694 H 0.52508 0.16927 0.25263 0.0
H695 H 0.48035 0.78692 0.21253 0.0
H696 H 0.25959 0.9186 0.9643 0.0
H697 H 0.30787 0.95073 0.98164 0.0
H698 H 0.25399 0.82338 -0.00207 0.0
H699 H 0.2056 0.79105 0.98054 0.0
H700 H 0.24354 0.87992 0.01167 0.0
H701 H 0.35975 0.87756 0.99349 0.0
H702 H 0.41346 0.88359 0.97838 0.0
H703 H 0.46719 0.02236 0.97692 0.0
H704 H 0.4131 0.01725 0.99174 0.0
H705 H 0.33297 0.04623 0.05551 0.0
H706 H 0.33318 0.98457 0.04546 0.0
H707 H 0.3554 0.05061 0.01129 0.0
H708 H 0.35495 0.11171 0.02117 0.0
H709 H 0.39688 1.00132 0.01266 0.0
H710 H 0.25083 0.98548 0.02169 0.0
H711 H 0.19616 0.98056 0.03641 0.0
H712 H 0.20048 0.87542 0.05447 0.0
H713 H 0.25555 0.88013 0.03991 0.0
C714 C 0.25866 0.89744 0.97149 0.0
C715 C 0.22861 0.85255 0.97119 0.0
C716 C 0.28672 0.91564 0.98129 0.0
C717 C 0.28486 0.8893 0.991 0.0
C718 C 0.25632 0.8441 0.99045 0.0
C719 C 0.2286 0.82579 0.98056 0.0
C720 C 0.30565 0.91049 0.00251 0.0
C721 C 0.27759 0.90534 0.01208 0.0
C722 C 0.35008 0.94343 0.00309 0.0
C723 C 0.38209 0.94693 0.9938 0.0
C724 C 0.38257 0.90935 0.98984 0.0
C725 C 0.41319 0.91262 0.98132 0.0
C726 C 0.44374 0.95333 0.9767 0.0
C727 C 0.44357 0.99084 0.98053 0.0
C728 C 0.41291 0.98776 0.98901 0.0
C729 C 0.33832 0.04766 0.04587 0.0
C730 C 0.34317 0.0834 0.03908 0.0
C731 C 0.33903 0.01275 0.04019 0.0
C732 C 0.34418 0.01305 0.02765 0.0
C733 C 0.35189 0.04996 0.02101 0.0
C734 C 0.3513 0.08477 0.02665 0.0
C735 C 0.33362 0.97288 0.02097 0.0
C736 C 0.36358 0.97434 0.01242 0.0
C737 C 0.29083 0.9366 0.02121 0.0
C738 C 0.25747 0.93343 0.02983 0.0
C739 C 0.24016 0.96143 0.02883 0.0
C740 C 0.20916 0.95871 0.03714 0.0
C741 C 0.19494 0.92777 0.04639 0.0
C742 C 0.21161 0.89943 0.04732 0.0
C743 C 0.2427 0.90212 0.03905 0.0
H744 H 0.17095 0.9257 0.05281 0.0
H745 H 0.46757 0.95581 0.97015 0.0
H746 H 0.25768 0.27917 0.38498 0.0
H747 H 0.31231 0.27038 0.37372 0.0
H748 H 0.30334 0.34608 0.34448 0.0
H749 H 0.24967 0.35553 0.35577 0.0
H750 H 0.28975 0.22503 0.35454 0.0
H751 H 0.38698 0.38622 0.32587 0.0
H752 H 0.42906 0.46557 0.32938 0.0
H753 H 0.44691 0.44386 0.36649 0.0
H754 H 0.40551 0.36435 0.3632 0.0
H755 H 0.3221 0.23422 0.28969 0.0
H756 H 0.33195 0.27472 0.30842 0.0
H757 H 0.38752 0.20386 0.32536 0.0
H758 H 0.37775 0.16322 0.30664 0.0
H759 H 0.40257 0.32528 0.32569 0.0
H760 H 0.32826 0.16697 0.35182 0.0
H761 H 0.28609 0.08725 0.34856 0.0
H762 H 0.22339 0.10583 0.31782 0.0
H763 H 0.26467 0.18548 0.32103 0.0
C764 C 0.26822 0.29469 0.37626 0.0
C765 C 0.24911 0.31745 0.37114 0.0
C766 C 0.29967 0.29003 0.36989 0.0
C767 C 0.31216 0.30775 0.35828 0.0
C768 C 0.29515 0.33298 0.35353 0.0
C769 C 0.26406 0.338 0.35994 0.0
C770 C 0.33484 0.29243 0.35014 0.0
C771 C 0.3157 0.24716 0.34856 0.0
C772 C 0.36839 0.32113 0.34223 0.0
C773 C 0.39294 0.36911 0.34428 0.0
C774 C 0.40006 0.39828 0.33477 0.0
C775 C 0.42377 0.44334 0.33673 0.0
C776 C 0.44064 0.45975 0.34815 0.0
C777 C 0.43373 0.43111 0.35765 0.0
C778 C 0.41004 0.38601 0.35575 0.0
C779 C 0.33711 0.22791 0.29735 0.0
C780 C 0.34863 0.19533 0.29683 0.0
C781 C 0.34329 0.25142 0.30796 0.0
C782 C 0.36046 0.24215 0.3182 0.0
C783 C 0.3745 0.21153 0.31748 0.0
C784 C 0.36871 0.1883 0.30684 0.0
C785 C 0.35591 0.25862 0.32997 0.0
C786 C 0.37823 0.30369 0.33212 0.0
C787 C 0.32544 0.22993 0.3385 0.0
C788 C 0.30003 0.1821 0.33656 0.0
C789 C 0.30543 0.15395 0.34438 0.0
C790 C 0.28166 0.10881 0.34255 0.0
C791 C 0.25222 0.09149 0.33296 0.0
C792 C 0.24633 0.11927 0.32521 0.0
C793 C 0.26992 0.16441 0.32703 0.0
H794 H 0.23388 0.05655 0.33155 0.0
H795 H 0.45909 0.49465 0.34963 0.0
H796 H 0.06856 0.29641 0.61248 0.0
H797 H 0.01648 0.29766 0.62671 0.0
H798 H 0.12248 0.38183 0.65032 0.0
H799 H 0.17478 0.38042 0.63617 0.0
H800 H 0.00797 0.26431 0.64904 0.0
H801 H 0.08883 0.4424 0.66743 0.0
H802 H 0.13261 0.51775 0.65988 0.0
H803 H 0.08207 0.47483 0.62422 0.0
H804 H 0.03744 0.39938 0.63158 0.0
H805 H 0.95895 0.28165 0.70844 0.0
H806 H 0.00625 0.32598 0.69197 0.0
H807 H 0.89332 0.2898 0.66972 0.0
H808 H 0.84588 0.24481 0.68598 0.0
H809 H 0.00525 0.38861 0.66907 0.0
H810 H 0.89951 0.221 0.65577 0.0
H811 H 0.8531 0.1487 0.66511 0.0
H812 H 0.95478 0.17421 0.6905 0.0
H813 H 1.00163 0.24658 0.68129 0.0
C814 C 0.08074 0.31542 0.62067 0.0
C815 C 0.12556 0.33775 0.62334 0.0
C816 C 0.05107 0.31645 0.62871 0.0
C817 C 0.06575 0.33999 0.6395 0.0
C818 C 0.11064 0.36408 0.64193 0.0
C819 C 0.14041 0.36307 0.63388 0.0
C820 C 0.03406 0.33412 0.64895 0.0
C821 C 0.00689 0.29155 0.65318 0.0
C822 C 0.03334 0.36973 0.65457 0.0
C823 C 0.06009 0.41508 0.65005 0.0
C824 C 0.08693 0.44903 0.65798 0.0
C825 C 0.11191 0.49178 0.65374 0.0
C826 C 0.11024 0.50104 0.64157 0.0
C827 C 0.08349 0.46758 0.63363 0.0
C828 C 0.05841 0.4248 0.63783 0.0
C829 C 0.94421 0.28432 0.70016 0.0
C830 C 0.89895 0.25893 0.69833 0.0
C831 C 0.97117 0.31037 0.69088 0.0
C832 C 0.95305 0.31095 0.67971 0.0
C833 C 0.90764 0.29008 0.67838 0.0
C834 C 0.88065 0.264 0.68764 0.0
C835 C 0.97985 0.31927 0.6689 0.0
C836 C 0.00612 0.36178 0.6646 0.0
C837 C 0.98008 0.28387 0.66313 0.0
C838 C 0.95396 0.23885 0.66783 0.0
C839 C 0.91207 0.21082 0.66324 0.0
C840 C 0.8856 0.17005 0.66857 0.0
C841 C 0.90088 0.15702 0.67844 0.0
C842 C 0.94294 0.1844 0.68288 0.0
C843 C 0.96947 0.22521 0.6776 0.0
H844 H 0.88022 0.12561 0.68262 0.0
H845 H 0.12959 0.53416 0.6383 0.0
H846 H 0.70085 0.03024 0.04928 0.0
H847 H 0.68782 0.06806 0.03274 0.0
H848 H 0.59003 0.94415 0.01819 0.0
H849 H 0.60262 0.90663 0.0345 0.0
H850 H 0.71256 0.05435 0.01232 0.0
H851 H 0.52921 0.95119 -0.00319 0.0
H852 H 0.45589 0.92383 0.00542 0.0
H853 H 0.5093 0.02194 0.03299 0.0
H854 H 0.58311 0.04995 0.0246 0.0
H855 H 0.70084 0.00461 0.9539 0.0
H856 H 0.65964 0.98558 0.97273 0.0
H857 H 0.6634 0.10912 0.97262 0.0
H858 H 0.70609 0.12956 0.9543 0.0
H859 H 0.58444 0.01995 0.98658 0.0
H860 H 0.74225 0.13623 0.98477 0.0
H861 H 0.81334 0.16271 0.97471 0.0
H862 H 0.80861 0.0416 0.98261 0.0
H863 H 0.73706 0.01422 0.99255 0.0
C864 C 0.67561 0.01126 0.04276 0.0
C865 C 0.65353 0.96544 0.04305 0.0
C866 C 0.66779 0.0329 0.0334 0.0
C867 C 0.63813 0.00897 0.02417 0.0
C868 C 0.61254 0.96353 0.02527 0.0
C869 C 0.62012 0.94196 0.03462 0.0
C870 C 0.64272 0.02863 0.0121 0.0
C871 C 0.68447 0.04804 0.0069 0.0
C872 C 0.6062 0.01997 0.00484 0.0
C873 C 0.56188 0.00267 0.01007 0.0
C874 C 0.5254 0.96712 0.00468 0.0
C875 C 0.4837 0.95145 0.00953 0.0
C876 C 0.47788 0.97127 0.0197 0.0
C877 C 0.51385 0.00659 0.02511 0.0
C878 C 0.55569 0.02224 0.02035 0.0
C879 C 0.69184 0.02725 0.95767 0.0
C880 C 0.70808 0.06912 0.95273 0.0
C881 C 0.66749 0.01592 0.96829 0.0
C882 C 0.65891 0.04621 0.97402 0.0
C883 C 0.66938 0.08525 0.96822 0.0
C884 C 0.69417 0.09688 0.9577 0.0
C885 C 0.65345 0.04375 0.98717 0.0
C886 C 0.61212 0.02756 0.99235 0.0
C887 C 0.69019 0.05577 0.99455 0.0
C888 C 0.73445 0.07324 0.98936 0.0
C889 C 0.7565 0.11536 0.98438 0.0
C890 C 0.79678 0.13047 0.97868 0.0
C891 C 0.8155 0.10385 0.97802 0.0
C892 C 0.79408 0.06218 0.98314 0.0
C893 C 0.75371 0.04688 0.98881 0.0
H894 H 0.84654 0.11545 0.97353 0.0
H895 H 0.44551 0.95921 0.02338 0.0
H896 H 0.72599 0.7094 0.27941 0.0
H897 H 0.71812 0.65545 0.29377 0.0
H898 H 0.57971 0.60868 0.29625 0.0
H899 H 0.58885 0.66808 0.28374 0.0
H900 H 0.59804 0.61272 0.31617 0.0
H901 H 0.62997 0.53866 0.28865 0.0
H902 H 0.65934 0.51919 0.27108 0.0
H903 H 0.78682 0.58234 0.28714 0.0
H904 H 0.75861 0.60297 0.3047 0.0
H905 H 0.75838 0.57755 0.35886 0.0
H906 H 0.70676 0.54879 0.34223 0.0
H907 H 0.6916 0.66251 0.34381 0.0
H908 H 0.7396 0.68919 0.36113 0.0
H909 H 0.71193 0.57178 0.32158 0.0
H910 H 0.60663 0.65551 0.33394 0.0
H911 H 0.56227 0.65471 0.35116 0.0
H912 H 0.5561 0.53798 0.36459 0.0
H913 H 0.60008 0.53773 0.3474 0.0
C914 C 0.69386 0.68843 0.28312 0.0
C915 C 0.65878 0.69542 0.28071 0.0
C916 C 0.68895 0.65587 0.29108 0.0
C917 C 0.64813 0.62734 0.29629 0.0
C918 C 0.61186 0.63061 0.29265 0.0
C919 C 0.61722 0.66478 0.28523 0.0
C920 C 0.64584 0.60149 0.30716 0.0
C921 C 0.62237 0.60295 0.31722 0.0
C922 C 0.67415 0.58431 0.30863 0.0
C923 C 0.69193 0.57218 0.29809 0.0
C924 C 0.66433 0.54859 0.28844 0.0
C925 C 0.6808 0.53734 0.27846 0.0
C926 C 0.72489 0.54944 0.27801 0.0
C927 C 0.75262 0.57283 0.28753 0.0
C928 C 0.73633 0.58417 0.29753 0.0
C929 C 0.74293 0.59578 0.35595 0.0
C930 C 0.75326 0.63584 0.3614 0.0
C931 C 0.71358 0.57933 0.34634 0.0
C932 C 0.69447 0.60289 0.34183 0.0
C933 C 0.70454 0.6427 0.34732 0.0
C934 C 0.73306 0.65866 0.35708 0.0
C935 C 0.66903 0.5899 0.33044 0.0
C936 C 0.68653 0.58004 0.32035 0.0
C937 C 0.63279 0.59595 0.32888 0.0
C938 C 0.60668 0.59655 0.33932 0.0
C939 C 0.59557 0.62943 0.3405 0.0
C940 C 0.57058 0.62925 0.35029 0.0
C941 C 0.55637 0.59632 0.35896 0.0
C942 C 0.56723 0.56354 0.35788 0.0
C943 C 0.5923 0.56362 0.34813 0.0
H944 H 0.53696 0.5962 0.36652 0.0
H945 H 0.73759 0.54073 0.27027 0.0
H946 H 0.10766 0.73427 0.71139 0.0
H947 H 0.07259 0.68059 0.69519 0.0
H948 H 0.05307 0.77392 0.67513 0.0
H949 H 0.08874 0.82777 0.69103 0.0
H950 H 0.97964 0.69192 0.67605 0.0
H951 H 0.13749 0.75997 0.66901 0.0
H952 H 0.21168 0.77644 0.67463 0.0
H953 H 0.16758 0.6394 0.67689 0.0
H954 H 0.09295 0.62217 0.67144 0.0
H955 H 0.01875 0.70962 0.61474 0.0
H956 H 0.05274 0.70169 0.63288 0.0
H957 H 0.93424 0.58296 0.64169 0.0
H958 H 0.8989 0.5921 0.62415 0.0
H959 H 0.067 0.65079 0.64976 0.0
H960 H 0.89968 0.60014 0.66607 0.0
H961 H 0.82977 0.59187 0.65891 0.0
H962 H 0.89915 0.70618 0.63686 0.0
H963 H 0.96938 0.71516 0.64398 0.0
C964 C 0.09595 0.7433 0.70349 0.0
C965 C 0.10089 0.78524 0.70246 0.0
C966 C 0.07584 0.71258 0.69432 0.0
C967 C 0.06034 0.72343 0.68403 0.0
C968 C 0.06455 0.76491 0.68309 0.0
C969 C 0.08474 0.79559 0.6922 0.0
C970 C 0.04051 0.69264 0.67394 0.0
C971 C 0.99823 0.68177 0.67049 0.0
C972 C 0.0648 0.67934 0.66674 0.0
C973 C 0.10959 0.68981 0.67 0.0
C974 C 0.14355 0.73338 0.67082 0.0
C975 C 0.18568 0.74284 0.67395 0.0
C976 C 0.19431 0.70899 0.67616 0.0
C977 C 0.16083 0.66559 0.67521 0.0
C978 C 0.11862 0.65596 0.67211 0.0
C979 C 1.00024 0.6811 0.62034 0.0
C980 C 0.9554 0.65301 0.61836 0.0
C981 C 0.02006 0.67609 0.6306 0.0
C982 C 0.99527 0.64268 0.63884 0.0
C983 C 0.95353 0.60946 0.63552 0.0
C984 C 0.93331 0.61493 0.62541 0.0
C985 C 0.00679 0.65153 0.65171 0.0
C986 C 0.0474 0.65849 0.6557 0.0
C987 C 0.98138 0.6621 0.65939 0.0
C988 C 0.93951 0.65808 0.65548 0.0
C989 C 0.89989 0.62359 0.65976 0.0
C990 C 0.86028 0.61875 0.65569 0.0
C991 C 0.86003 0.6484 0.64741 0.0
C992 C 0.89939 0.68322 0.64326 0.0
C993 C 0.93908 0.68823 0.64732 0.0
H994 H 0.82932 0.64434 0.64422 0.0
H995 H 0.22695 0.71638 0.67858 0.0
H996 H 0.20627 0.16766 0.05672 0.0
H997 H 0.12836 0.12035 0.05382 0.0
H998 H 0.112 0.09713 0.09216 0.0
H999 H 0.19085 0.14322 0.09496 0.0
H1000 H 0.06948 0.02357 0.08116 0.0
H1001 H 0.07704 0.16262 0.07539 0.0
H1002 H 0.1048 0.23531 0.06622 0.0
H1003 H 0.06484 0.17655 0.03125 0.0
H1004 H 0.03734 0.10369 0.04016 0.0
H1005 H 0.83631 0.91105 0.07887 0.0
H1006 H 0.9136 0.96162 0.0829 0.0
H1007 H 0.93763 0.98449 0.04474 0.0
H1008 H 0.8604 0.935 0.04068 0.0
H1009 H 0.97506 0.05935 0.05631 0.0
H1010 H 0.97327 0.9238 0.06082 0.0
H1011 H 0.94695 0.84961 0.06871 0.0
H1012 H 0.97793 0.90043 0.10475 0.0
H1013 H 0.0038 0.97485 0.09705 0.0
C1014 C 0.18621 0.15336 0.06455 0.0
C1015 C 0.20504 0.1595 0.07604 0.0
C1016 C 0.14131 0.12618 0.0629 0.0
C1017 C 0.11383 0.10536 0.07279 0.0
C1018 C 0.13235 0.1127 0.08437 0.0
C1019 C 0.17746 0.13928 0.08597 0.0
C1020 C 0.06641 0.07386 0.07096 0.0
C1021 C 0.04869 0.0318 0.07592 0.0
C1022 C 0.03938 0.08379 0.06377 0.0
C1023 C 0.05534 0.12769 0.05845 0.0
C1024 C 0.07434 0.16524 0.06574 0.0
C1025 C 0.09001 0.20649 0.06058 0.0
C1026 C 0.0866 0.21058 0.04815 0.0
C1027 C 0.06735 0.1734 0.04087 0.0
C1028 C 0.05171 0.13212 0.04597 0.0
C1029 C 0.85809 0.92656 0.07133 0.0
C1030 C 0.84204 0.91906 0.05945 0.0
C1031 C 0.90238 0.95539 0.07364 0.0
C1032 C 0.93161 0.97689 0.06412 0.0
C1033 C 0.91577 0.96858 0.05225 0.0
C1034 C 0.87155 0.94001 0.04994 0.0
C1035 C 0.97832 0.00929 0.06651 0.0
C1036 C 0.99584 0.0514 0.06165 0.0
C1037 C 0.00529 0.99933 0.07368 0.0
C1038 C 0.98988 0.95473 0.07837 0.0
C1039 C 0.974 0.91903 0.07043 0.0
C1040 C 0.95928 0.87698 0.07487 0.0
C1041 C 0.96062 0.87028 0.08724 0.0
C1042 C 0.97682 0.90565 0.09518 0.0
C1043 C 0.99154 0.94778 0.09078 0.0
H1044 H 0.94922 0.8377 0.09066 0.0
H1045 H 0.09883 0.24252 0.04417 0.0
H1046 H 0.1145 0.19333 0.41741 0.0
H1047 H 0.07738 0.11405 0.41642 0.0
H1048 H 0.95999 0.11045 0.40421 0.0
H1049 H 0.99756 0.19073 0.40476 0.0
H1050 H 0.95733 0.04585 0.42483 0.0
H1051 H 0.00373 0.09908 0.3844 0.0
H1052 H 0.05893 0.14811 0.36981 0.0
H1053 H 0.13774 0.09022 0.37771 0.0
H1054 H 0.08402 0.04233 0.39283 0.0
H1055 H 0.8426 0.82743 0.40616 0.0
H1056 H 0.87587 0.90628 0.4069 0.0
H1057 H 0.00389 0.91959 0.40618 0.0
H1058 H 0.97047 0.83972 0.40518 0.0
H1059 H 1.00086 0.9803 0.39189 0.0
H1060 H 0.96142 0.93155 0.4324 0.0
H1061 H 0.91322 0.88669 0.44891 0.0
H1062 H 0.82691 0.93662 0.44188 0.0
H1063 H 0.87426 0.98127 0.42519 0.0
C1064 C 0.08061 0.17595 0.41464 0.0
C1065 C 0.05905 0.19859 0.41113 0.0
C1066 C 0.05951 0.1305 0.41407 0.0
C1067 C 0.01614 0.1065 0.41018 0.0
C1068 C 0.99358 0.12856 0.40723 0.0
C1069 C 0.01504 0.17435 0.40756 0.0
C1070 C 0.99557 0.05854 0.40872 0.0
C1071 C 0.9661 0.03135 0.41751 0.0
C1072 C 0.00857 0.04003 0.39941 0.0
C1073 C 0.04015 0.06765 0.38996 0.0
C1074 C 0.03319 0.09732 0.38322 0.0
C1075 C 0.0643 0.12503 0.37486 0.0
C1076 C 0.10201 0.12253 0.3729 0.0
C1077 C 0.10864 0.09229 0.37929 0.0
C1078 C 0.07794 0.065 0.3878 0.0
C1079 C 0.87788 0.84687 0.40616 0.0
C1080 C 0.90384 0.82702 0.40573 0.0
C1081 C 0.89688 0.89216 0.40661 0.0
C1082 C 0.9424 0.91901 0.40681 0.0
C1083 C 0.96865 0.89954 0.4061 0.0
C1084 C 0.94954 0.8539 0.40559 0.0
C1085 C 0.96201 0.96722 0.40796 0.0
C1086 C 0.99163 0.99458 0.39916 0.0
C1087 C 0.94964 0.98604 0.41737 0.0
C1088 C 0.9212 0.95945 0.42746 0.0
C1089 C 0.93199 0.93272 0.43431 0.0
C1090 C 0.90485 0.90736 0.44372 0.0
C1091 C 0.86697 0.90872 0.44643 0.0
C1092 C 0.85624 0.93555 0.43976 0.0
C1093 C 0.88323 0.96092 0.43033 0.0
H1094 H 0.84598 0.88905 0.45371 0.0
H1095 H 0.12591 0.14378 0.36636 0.0
H1096 H 0.94653 0.16235 0.74613 0.0
H1097 H 0.9921 0.12867 0.7471 0.0
H1098 H 0.87712 1.00113 0.74795 0.0
H1099 H 0.83076 0.03463 0.74661 0.0
H1100 H 0.95442 0.02633 0.76642 0.0
H1101 H 0.91527 0.01457 0.72426 0.0
H1102 H 0.90589 0.04416 0.70507 0.0
H1103 H 0.04262 0.13918 0.70464 0.0
H1104 H 0.05268 0.11052 0.72393 0.0
H1105 H 0.04623 0.89367 0.75577 0.0
H1106 H 1.00212 0.92854 0.75564 0.0
H1107 H 0.11134 0.04693 0.74196 0.0
H1108 H 0.15598 0.01141 0.74173 0.0
H1109 H 0.03756 0.02837 0.73012 0.0
H1110 H 0.07823 0.03849 0.77156 0.0
H1111 H 0.0883 0.01204 0.79118 0.0
H1112 H 0.95028 0.92343 0.7936 0.0
H1113 H 0.93943 0.9489 0.7739 0.0
C1114 C 0.93071 0.12711 0.74662 0.0
C1115 C 0.8849 0.10113 0.74631 0.0
C1116 C 0.95691 0.10798 0.74714 0.0
C1117 C 0.93794 0.06253 0.74755 0.0
C1118 C 0.89227 0.03634 0.74763 0.0
C1119 C 0.86589 0.05548 0.74687 0.0
C1120 C 0.96631 0.04281 0.74763 0.0
C1121 C 0.97211 0.02604 0.75846 0.0
C1122 C 0.9904 0.044 0.73733 0.0
C1123 C 0.98464 0.06073 0.72561 0.0
C1124 C 0.94327 0.04202 0.72013 0.0
C1125 C 0.93783 0.05856 0.70923 0.0
C1126 C 0.97362 0.09364 0.70367 0.0
C1127 C 0.01493 0.11206 0.70897 0.0
C1128 C 0.02052 0.09565 0.71988 0.0
C1129 C 0.06124 0.92724 0.75278 0.0
C1130 C 0.10486 0.94977 0.74879 0.0
C1131 C 0.03585 0.94725 0.75277 0.0
C1132 C 0.05344 0.9906 0.74896 0.0
C1133 C 0.09707 0.01346 0.74499 0.0
C1134 C 0.12265 0.99326 0.74494 0.0
C1135 C 0.02555 0.01119 0.74894 0.0
C1136 C 0.01993 0.02844 0.73812 0.0
C1137 C 1.00171 0.0106 0.7593 0.0
C1138 C 0.00807 0.99538 0.7712 0.0
C1139 C 0.05006 0.01315 0.77623 0.0
C1140 C 0.0559 0.99836 0.78738 0.0
C1141 C 0.01996 0.96601 0.79362 0.0
C1142 C 0.97809 0.94846 0.78875 0.0
C1143 C 0.97207 0.9631 0.7776 0.0
H1144 H 0.02456 0.95459 0.80225 0.0
H1145 H 0.96937 0.10651 0.69526 0.0
H1146 H 0.99485 0.82991 0.58419 0.0
H1147 H 0.04134 0.90914 0.58314 0.0
H1148 H 0.92739 0.92365 0.58363 0.0
H1149 H 0.88027 0.84382 0.58508 0.0
H1150 H 0.99925 0.96942 0.56359 0.0
H1151 H 0.97335 0.95125 0.60655 0.0
H1152 H 0.97158 0.91963 0.62648 0.0
H1153 H 0.10927 0.96683 0.62426 0.0
H1154 H 0.11168 0.99792 0.60418 0.0
H1155 H 0.09514 0.19636 0.56957 0.0
H1156 H 0.0515 0.11751 0.57071 0.0
H1157 H 0.16219 0.11146 0.58469 0.0
H1158 H 0.20608 0.19143 0.58405 0.0
H1159 H 0.09312 0.0599 0.5973 0.0
H1160 H 0.12258 0.07837 0.55532 0.0
H1161 H 0.12839 0.10932 0.53505 0.0
H1162 H 0.99019 0.06035 0.53462 0.0
H1163 H 0.9836 0.02964 0.55498 0.0
C1164 C 0.97956 0.84988 0.5841 0.0
C1165 C 0.93386 0.83066 0.58464 0.0
C1166 C 0.00623 0.89514 0.58354 0.0
C1167 C 0.98777 0.9221 0.58331 0.0
C1168 C 0.94215 0.90321 0.58381 0.0
C1169 C 0.91535 0.85777 0.58466 0.0
C1170 C 0.01651 0.96995 0.5822 0.0
C1171 C 0.01929 0.98948 0.571 0.0
C1172 C 0.04403 0.99542 0.59173 0.0
C1173 C 0.04256 0.97638 0.60376 0.0
C1174 C 1.00314 0.95435 0.61022 0.0
C1175 C 1.00204 0.93663 0.62157 0.0
C1176 C 0.04025 0.94106 0.62661 0.0
C1177 C 0.07966 0.9633 0.62032 0.0
C1178 C 0.0809 0.98096 0.60896 0.0
C1179 C 0.11059 0.17845 0.57278 0.0
C1180 C 0.15426 0.20039 0.57672 0.0
C1181 C 0.08549 0.1331 0.57336 0.0
C1182 C 0.10354 0.10824 0.57763 0.0
C1183 C 0.14749 0.12988 0.58133 0.0
C1184 C 0.17267 0.17558 0.58087 0.0
C1185 C 0.07565 0.05994 0.57869 0.0
C1186 C 0.07317 0.0401 0.58986 0.0
C1187 C 0.04898 0.03396 0.56904 0.0
C1188 C 0.05266 0.05199 0.55673 0.0
C1189 C 0.09345 0.07444 0.55094 0.0
C1190 C 0.09689 0.09193 0.53943 0.0
C1191 C 0.0597 0.08689 0.53356 0.0
C1192 C 0.01897 0.06425 0.53918 0.0
C1193 C 0.01536 0.04675 0.5507 0.0
H1194 H 0.06243 0.10045 0.52464 0.0
H1195 H 0.03935 0.92739 0.6354 0.0
H1196 H 0.00755 0.81773 0.92404 0.0
H1197 H 0.97366 0.86368 0.92306 0.0
H1198 H 0.10089 0.97915 0.92421 0.0
H1199 H 0.13492 0.9338 0.92498 0.0
H1200 H 0.03931 0.98307 0.93991 0.0
H1201 H 0.05457 0.95687 0.8981 0.0
H1202 H 0.04696 0.91322 0.88001 0.0
H1203 H 0.90781 0.84152 0.88471 0.0
H1204 H 0.91469 0.8852 0.90281 0.0
H1205 H 0.97099 0.13568 0.92301 0.0
H1206 H 0.00946 0.09422 0.92445 0.0
H1207 H 0.88953 0.97549 0.91639 0.0
H1208 H 0.85168 0.0166 0.91448 0.0
H1209 H 0.95098 0.97549 0.9043 0.0
H1210 H 0.93618 0.00724 0.94576 0.0
H1211 H 0.94565 0.05544 0.96294 0.0
H1212 H 0.08491 0.1178 0.95922 0.0
H1213 H 0.07626 0.07054 0.94185 0.0
C1214 C 0.02827 0.85288 0.92406 0.0
C1215 C 0.07395 0.87202 0.9245 0.0
C1216 C 0.0089 0.8791 0.92351 0.0
C1217 C 0.0348 0.92488 0.92356 0.0
C1218 C 0.08028 0.94396 0.9242 0.0
C1219 C 0.09966 0.91788 0.92456 0.0
C1220 C 0.01461 0.95294 0.92264 0.0
C1221 C 0.02024 0.98176 0.9321 0.0
C1222 C 0.98949 0.95097 0.91252 0.0
C1223 C 0.98519 0.92391 0.90186 0.0
C1224 C 0.0224 0.93151 0.89534 0.0
C1225 C 0.0182 0.90686 0.88506 0.0
C1226 C 0.97692 0.87437 0.88125 0.0
C1227 C 0.93976 0.86661 0.88769 0.0
C1228 C 0.94378 0.89141 0.89793 0.0
C1229 C 0.95296 0.10077 0.92149 0.0
C1230 C 0.90828 0.07955 0.91859 0.0
C1231 C 0.97489 0.07701 0.92241 0.0
C1232 C 0.95234 0.03148 0.92069 0.0
C1233 C 0.90781 0.0105 0.91774 0.0
C1234 C 0.88614 0.03418 0.91666 0.0
C1235 C 0.97467 0.00526 0.9217 0.0
C1236 C 0.96969 0.97681 0.9122 0.0
C1237 C 1.00029 0.00768 0.93182 0.0
C1238 C 0.00555 0.03563 0.94241 0.0
C1239 C 0.96882 0.03143 0.94854 0.0
C1240 C 0.97404 0.05859 0.95832 0.0
C1241 C 0.01583 0.08977 0.96214 0.0
C1242 C 0.05253 0.09373 0.95623 0.0
C1243 C 0.04749 0.06675 0.94641 0.0
H1244 H 0.01974 0.11073 0.96971 0.0
H1245 H 0.97371 0.85538 0.87327 0.0
H1246 H 0.17211 0.98993 0.2471 0.0
H1247 H 0.09226 0.95685 0.24711 0.0
H1248 H 0.10575 0.08479 0.24588 0.0
H1249 H 0.18501 0.11796 0.24566 0.0
H1250 H 0.04361 0.02728 0.26332 0.0
H1251 H 0.08033 0.03054 0.22116 0.0
H1252 H 0.11422 0.01475 0.20391 0.0
H1253 H 0.03668 0.87741 0.21104 0.0
H1254 H 1.00276 0.89246 0.22845 0.0
H1255 H 0.82048 0.96075 0.25066 0.0
H1256 H 0.90056 0.99791 0.25049 0.0
H1257 H 0.89454 0.87586 0.2421 0.0
H1258 H 0.81546 0.83946 0.24168 0.0
H1259 H 0.95447 0.93327 0.2295 0.0
H1260 H 0.91802 0.92597 0.27141 0.0
H1261 H 0.88497 0.93803 0.28953 0.0
H1262 H 0.96123 0.07658 0.2843 0.0
H1263 H 0.99429 0.06536 0.26603 0.0
C1264 C 0.15805 0.01097 0.24677 0.0
C1265 C 0.18505 0.05658 0.24628 0.0
C1266 C 0.11245 0.99206 0.2468 0.0
C1267 C 0.09307 0.01842 0.24651 0.0
C1268 C 0.11995 0.06386 0.24616 0.0
C1269 C 0.16536 0.08272 0.24595 0.0
C1270 C 0.04479 0.9988 0.24628 0.0
C1271 C 0.02402 0.00704 0.25588 0.0
C1272 C 0.01925 0.97173 0.2367 0.0
C1273 C 0.03934 0.96265 0.22617 0.0
C1274 C 0.07076 0.997 0.21911 0.0
C1275 C 0.08993 0.98818 0.20929 0.0
C1276 C 0.07769 0.94511 0.2064 0.0
C1277 C 0.04616 0.91076 0.2133 0.0
C1278 C 0.02694 0.91941 0.22314 0.0
C1279 C 0.83635 0.94203 0.2487 0.0
C1280 C 0.81146 0.89717 0.24614 0.0
C1281 C 0.88218 0.96319 0.2487 0.0
C1282 C 0.90394 0.93968 0.24644 0.0
C1283 C 0.87889 0.89498 0.24382 0.0
C1284 C 0.83341 0.87411 0.2436 0.0
C1285 C 0.95262 0.96102 0.24666 0.0
C1286 C 0.9737 0.95335 0.237 0.0
C1287 C 0.97827 0.98793 0.25632 0.0
C1288 C 0.95831 0.9948 0.26728 0.0
C1289 C 0.92748 0.95901 0.27406 0.0
C1290 C 0.90879 0.96569 0.28437 0.0
C1291 C 0.92098 0.00804 0.28805 0.0
C1292 C 0.95181 0.0438 0.28142 0.0
C1293 C 0.97055 0.0373 0.2711 0.0
H1294 H 0.90669 0.01313 0.29607 0.0
H1295 H 0.09257 0.93835 0.19879 0.0
H1296 H 0.92907 0.16922 0.97989 0.0
H1297 H 0.98673 0.17311 0.99287 0.0
H1298 H 0.07929 0.23083 0.96378 0.0
H1299 H 0.02124 0.22578 0.95068 0.0
H1300 H 0.09531 0.17656 0.97508 0.0
H1301 H 0.07237 0.29295 0.98784 0.0
H1302 H 0.02986 0.32673 0.99482 0.0
H1303 H 0.99125 0.24637 0.02651 0.0
H1304 H 0.03297 0.21165 0.01962 0.0
H1305 H 0.29013 0.28159 0.01093 0.0
H1306 H 0.22855 0.26482 -0.00248 0.0
H1307 H 0.13864 0.18526 0.02528 0.0
H1308 H 0.19987 0.20231 0.03874 0.0
H1309 H 0.12 0.24761 0.01512 0.0
H1310 H 0.15013 0.13606 0.00243 0.0
H1311 H 0.195 0.10552 0.99502 0.0
H1312 H 0.22316 0.18117 0.9626 0.0
H1313 H 0.17906 0.21278 0.9699 0.0
C1314 C 0.96174 0.18286 0.97629 0.0
C1315 C 0.97074 0.19769 0.96431 0.0
C1316 C 0.99474 0.18514 0.98372 0.0
C1317 C 0.03773 0.20323 0.97942 0.0
C1318 C 0.0465 0.21692 0.96734 0.0
C1319 C 0.01331 0.21404 0.95985 0.0
C1320 C 0.07361 0.20847 0.98754 0.0
C1321 C 0.10094 0.19251 0.98378 0.0
C1322 C 0.0807 0.22867 -0.001 0.0
C1323 C 0.05555 0.24948 0.00317 0.0
C1324 C 0.05458 0.28229 0.99626 0.0
C1325 C 0.03064 0.30162 0.0002 0.0
C1326 C 0.0078 0.28865 0.01109 0.0
C1327 C 0.00893 0.25637 0.01807 0.0
C1328 C 0.03276 0.23689 0.01416 0.0
C1329 C 0.25723 0.26043 0.01415 0.0
C1330 C 0.2499 0.24322 0.02589 0.0
C1331 C 0.22211 0.25066 0.00647 0.0
C1332 C 0.179 0.22378 0.01042 0.0
C1333 C 0.17161 0.20616 0.02207 0.0
C1334 C 0.20668 0.21557 0.02971 0.0
C1335 C 0.14167 0.21589 0.0026 0.0
C1336 C 0.11412 0.23143 0.00644 0.0
C1337 C 0.1348 0.19586 0.99115 0.0
C1338 C 0.16172 0.17723 0.98679 0.0
C1339 C 0.16631 0.1466 0.99378 0.0
C1340 C 0.19152 0.129 0.98959 0.0
C1341 C 0.21204 0.1415 0.97837 0.0
C1342 C 0.20733 0.17158 0.9713 0.0
C1343 C 0.18222 0.18935 0.97547 0.0
H1344 H 0.2315 0.12779 0.97513 0.0
H1345 H 0.98929 0.30366 0.01412 0.0
H1346 H 0.97854 0.18066 0.37253 0.0
H1347 H 0.93614 0.12109 0.35834 0.0
H1348 H 0.9844 0.21261 0.32881 0.0
H1349 H 0.02627 0.27194 0.34289 0.0
H1350 H 0.90044 0.16571 0.32727 0.0
H1351 H 0.01559 0.13308 0.33323 0.0
H1352 H 0.06541 0.11501 0.34408 0.0
H1353 H 0.95582 1.0006 0.35888 0.0
H1354 H 0.90531 0.01808 0.34817 0.0
H1355 H 0.80204 0.00859 0.28073 0.0
H1356 H 0.85869 0.06483 0.29352 0.0
H1357 H 0.80696 0.97957 0.3243 0.0
H1358 H 0.75113 0.92301 0.31156 0.0
H1359 H 0.89527 0.02331 0.32452 0.0
H1360 H 0.78074 0.05832 0.31937 0.0
H1361 H 0.73091 0.07396 0.30763 0.0
H1362 H 0.84056 0.18421 0.29126 0.0
H1363 H 0.89105 0.16886 0.30279 0.0
C1364 C 0.98053 0.18793 0.363 0.0
C1365 C 0.00525 0.2312 0.35888 0.0
C1366 C 0.95641 0.15381 0.35487 0.0
C1367 C 0.95702 0.16225 0.34246 0.0
C1368 C 0.98302 0.20522 0.33833 0.0
C1369 C 0.0068 0.23923 0.34642 0.0
C1370 C 0.92802 0.12735 0.33386 0.0
C1371 C 0.89999 0.1349 0.32655 0.0
C1372 C 0.92637 0.08657 0.33309 0.0
C1373 C 0.95667 0.07707 0.33996 0.0
C1374 C 1.00211 0.10431 0.3389 0.0
C1375 C 0.03046 0.09403 0.34496 0.0
C1376 C 0.01377 0.05655 0.3521 0.0
C1377 C 0.96869 0.0295 0.35329 0.0
C1378 C 0.94019 0.03954 0.34722 0.0
C1379 C 0.80306 1.00161 0.29018 0.0
C1380 C 0.77156 0.96149 0.29514 0.0
C1381 C 0.83527 0.0339 0.2975 0.0
C1382 C 0.83666 0.02666 0.30992 0.0
C1383 C 0.80644 0.986 0.31477 0.0
C1384 C 0.7742 0.95384 0.30748 0.0
C1385 C 0.86811 0.06197 0.31799 0.0
C1386 C 0.89624 0.05437 0.32522 0.0
C1387 C 0.86995 0.10277 0.31873 0.0
C1388 C 0.83964 0.11217 0.31184 0.0
C1389 C 0.79421 0.0857 0.31319 0.0
C1390 C 0.76585 0.09454 0.30659 0.0
C1391 C 0.78255 0.12998 0.29868 0.0
C1392 C 0.82766 0.15673 0.29738 0.0
C1393 C 0.85617 0.14799 0.30395 0.0
H1394 H 0.76055 0.13678 0.29357 0.0
H1395 H 0.03575 0.0485 0.35674 0.0
H1396 H 0.84547 0.76648 0.6504 0.0
H1397 H 0.84149 0.81811 0.6642 0.0
H1398 H 0.79663 0.86686 0.63517 0.0
H1399 H 0.8008 0.81517 0.62126 0.0
H1400 H 0.85392 0.9328 0.64921 0.0
H1401 H 0.72511 0.79387 0.6559 0.0
H1402 H 0.68376 0.71505 0.66032 0.0
H1403 H 0.74839 0.73775 0.69453 0.0
H1404 H 0.7906 0.81669 0.69024 0.0
H1405 H 0.7464 0.02199 0.68344 0.0
H1406 H 0.76605 0.97979 0.66997 0.0
H1407 H 0.82285 0.94786 0.69988 0.0
H1408 H 0.80334 0.99041 0.71344 0.0
H1409 H 0.76341 0.87482 0.68608 0.0
H1410 H 0.89092 0.01368 0.67966 0.0
H1411 H 0.93431 0.09216 0.67497 0.0
H1412 H 0.8714 0.06968 0.64052 0.0
H1413 H 0.82767 0.99094 0.64497 0.0
C1414 C 0.83462 0.78807 0.64694 0.0
C1415 C 0.82285 0.78622 0.63475 0.0
C1416 C 0.83242 0.81766 0.65485 0.0
C1417 C 0.81791 0.84585 0.65081 0.0
C1418 C 0.80775 0.84533 0.63853 0.0
C1419 C 0.81021 0.81582 0.63057 0.0
C1420 C 0.81229 0.87495 0.65946 0.0
C1421 C 0.83369 0.92002 0.65719 0.0
C1422 C 0.78684 0.85856 0.67007 0.0
C1423 C 0.76133 0.81114 0.6727 0.0
C1424 C 0.73074 0.78202 0.66433 0.0
C1425 C 0.70712 0.73733 0.66682 0.0
C1426 C 0.71353 0.72139 0.67769 0.0
C1427 C 0.74351 0.75014 0.68611 0.0
C1428 C 0.76727 0.79486 0.68366 0.0
C1429 C 0.76308 0.00601 0.68716 0.0
C1430 C 0.77288 0.00913 0.69953 0.0
C1431 C 0.77467 0.98224 0.67943 0.0
C1432 C 0.796 0.96073 0.68391 0.0
C1433 C 0.80642 0.96423 0.69623 0.0
C1434 C 0.79539 0.98862 0.70395 0.0
C1435 C 0.80485 0.93255 0.67579 0.0
C1436 C 0.78386 0.8876 0.67814 0.0
C1437 C 0.83055 0.94903 0.66526 0.0
C1438 C 0.85577 0.99647 0.66269 0.0
C1439 C 0.88603 0.02551 0.67113 0.0
C1440 C 0.91084 0.07 0.66849 0.0
C1441 C 0.90557 0.0859 0.65747 0.0
C1442 C 0.87546 0.05731 0.64905 0.0
C1443 C 0.85076 0.01272 0.6516 0.0
H1444 H 0.92487 0.12036 0.65544 0.0
H1445 H 0.69521 0.68678 0.6796 0.0
H1446 H 0.76583 0.75481 0.0418 0.0
H1447 H 0.81359 0.74178 0.02869 0.0
H1448 H 0.76718 0.7807 -0.00217 0.0
H1449 H 0.72001 0.79467 0.01084 0.0
H1450 H 0.77504 0.70938 0.99283 0.0
H1451 H 0.86355 0.85182 0.00921 0.0
H1452 H 0.89441 0.90719 0.02529 0.0
H1453 H 0.95301 0.83892 0.04166 0.0
H1454 H 0.92228 0.78289 0.02565 0.0
H1455 H 0.95059 0.75695 0.9524 0.0
H1456 H 0.89957 0.76501 0.96566 0.0
H1457 H 0.93861 0.7138 0.99541 0.0
H1458 H 0.98958 0.70557 0.98219 0.0
H1459 H 0.93434 0.79049 0.00104 0.0
H1460 H 0.84618 0.64908 0.98283 0.0
H1461 H 0.81547 0.59755 0.96583 0.0
H1462 H 0.75626 0.66889 0.95189 0.0
H1463 H 0.78718 0.72126 0.96872 0.0
C1464 C 0.76572 0.76073 0.03224 0.0
C1465 C 0.73915 0.77628 0.02746 0.0
C1466 C 0.79302 0.75311 0.02474 0.0
C1467 C 0.79436 0.76078 0.01229 0.0
C1468 C 0.76667 0.77453 0.00741 0.0
C1469 C 0.7395 0.78236 0.0149 0.0
C1470 C 0.82578 0.756 0.00443 0.0
C1471 C 0.80989 0.72742 0.99456 0.0
C1472 C 0.87124 0.77925 0.00673 0.0
C1473 C 0.89026 0.81296 0.01631 0.0
C1474 C 0.88279 0.84845 0.01628 0.0
C1475 C 0.90028 0.87996 0.02537 0.0
C1476 C 0.92547 0.87645 0.03452 0.0
C1477 C 0.93342 0.84152 0.03456 0.0
C1478 C 0.91606 0.80992 0.02547 0.0
C1479 C 0.94844 0.74763 0.96178 0.0
C1480 C 0.97394 0.73044 0.96624 0.0
C1481 C 0.91915 0.75204 0.96932 0.0
C1482 C 0.91515 0.73977 0.9815 0.0
C1483 C 0.94114 0.72337 0.98604 0.0
C1484 C 0.96998 0.71839 0.97846 0.0
C1485 C 0.88355 0.74371 0.98947 0.0
C1486 C 0.89946 0.77225 -0.00064 0.0
C1487 C 0.83817 0.7209 0.98707 0.0
C1488 C 0.81936 0.68933 0.97697 0.0
C1489 C 0.82693 0.654 0.97609 0.0
C1490 C 0.80942 0.62459 0.96649 0.0
C1491 C 0.78402 0.63001 0.95777 0.0
C1492 C 0.77599 0.66478 0.95864 0.0
C1493 C 0.79346 0.69431 0.96821 0.0
H1494 H 0.77049 0.6072 0.95035 0.0
H1495 H 0.93893 0.90091 0.04153 0.0
H1496 H 0.25317 0.9167 0.29369 0.0
H1497 H 0.20257 0.87876 0.31001 0.0
H1498 H 0.14449 0.95976 0.30523 0.0
H1499 H 0.19693 0.9999 0.28927 0.0
H1500 H 0.1509 0.9486 0.32835 0.0
H1501 H 0.09356 0.85273 0.29489 0.0
H1502 H 0.09422 0.81032 0.27734 0.0
H1503 H 0.13028 0.73547 0.30017 0.0
H1504 H 0.13044 0.77785 0.31785 0.0
H1505 H 0.96721 0.79822 0.36507 0.0
H1506 H 0.01368 0.84514 0.3488 0.0
H1507 H 0.09276 0.78406 0.3511 0.0
H1508 H 0.04682 0.73743 0.36737 0.0
H1509 H 0.0687 0.78675 0.32823 0.0
H1510 H 0.12707 0.88817 0.36187 0.0
H1511 H 0.12245 0.93098 0.37877 0.0
H1512 H 0.07764 0.99515 0.35464 0.0
H1513 H 0.08138 0.95224 0.33761 0.0
C1514 C 0.23011 0.92701 0.29612 0.0
C1515 C 0.22945 0.96157 0.29002 0.0
C1516 C 0.20067 0.90478 0.30541 0.0
C1517 C 0.16903 0.91574 0.30873 0.0
C1518 C 0.16839 0.95045 0.30279 0.0
C1519 C 0.19823 0.97313 0.29354 0.0
C1520 C 0.13683 0.89069 0.31839 0.0
C1521 C 0.13238 0.91322 0.32824 0.0
C1522 C 0.11258 0.84449 0.31829 0.0
C1523 C 0.11232 0.81871 0.30769 0.0
C1524 C 0.10191 0.82742 0.29616 0.0
C1525 C 0.1021 0.80336 0.28619 0.0
C1526 C 0.11236 0.77028 0.28763 0.0
C1527 C 0.12236 0.76112 0.29906 0.0
C1528 C 0.12226 0.78512 0.30907 0.0
C1529 C 0.99487 0.79521 0.36225 0.0
C1530 C 1.00308 0.76379 0.36752 0.0
C1531 C 0.02141 0.82208 0.35292 0.0
C1532 C 0.05684 0.81826 0.34874 0.0
C1533 C 0.06549 0.78748 0.35413 0.0
C1534 C 0.03903 0.76066 0.36341 0.0
C1535 C 0.08387 0.84454 0.33837 0.0
C1536 C 0.08706 0.82215 0.32832 0.0
C1537 C 0.10617 0.89077 0.33823 0.0
C1538 C 0.104 0.91658 0.34848 0.0
C1539 C 0.11584 0.9111 0.36018 0.0
C1540 C 0.11346 0.93546 0.36978 0.0
C1541 C 0.09962 0.96567 0.36779 0.0
C1542 C 0.08826 0.97168 0.35618 0.0
C1543 C 0.09053 0.94736 0.34655 0.0
H1544 H 0.09781 0.98449 0.37523 0.0
H1545 H 0.1125 0.75169 0.2799 0.0
H1546 H 0.18242 1.00048 0.70287 0.0
H1547 H 0.18107 0.04539 0.68623 0.0
H1548 H 0.32185 0.11625 0.68555 0.0
H1549 H 0.32343 0.07304 0.70236 0.0
H1550 H 0.29257 0.1708 0.68368 0.0
H1551 H 0.25677 0.03282 0.66517 0.0
H1552 H 0.2132 0.95339 0.66181 0.0
H1553 H 0.10136 0.96514 0.65293 0.0
H1554 H 0.14404 0.04456 0.65645 0.0
H1555 H 0.34985 0.27047 0.62692 0.0
H1556 H 0.33683 0.22193 0.64397 0.0
H1557 H 0.19817 0.17056 0.64055 0.0
H1558 H 0.21093 0.21942 0.62351 0.0
H1559 H 0.21718 0.10592 0.64507 0.0
H1560 H 0.25328 0.24352 0.66226 0.0
H1561 H 0.29653 0.32321 0.66513 0.0
H1562 H 0.40677 0.31209 0.67633 0.0
H1563 H 0.36437 0.23236 0.67336 0.0
C1564 C 0.21306 0.02595 0.69927 0.0
C1565 C 0.25306 0.03283 0.70394 0.0
C1566 C 0.21224 0.05132 0.68966 0.0
C1567 C 0.25138 0.08389 0.6845 0.0
C1568 C 0.29119 0.09126 0.68931 0.0
C1569 C 0.29204 0.06616 0.6989 0.0
C1570 C 0.25164 0.11087 0.67415 0.0
C1571 C 0.27633 0.1565 0.67522 0.0
C1572 C 0.22922 0.09241 0.6632 0.0
C1573 C 0.20344 0.04457 0.66125 0.0
C1574 C 0.22275 0.01841 0.66264 0.0
C1575 C 0.19823 0.97339 0.66068 0.0
C1576 C 0.15449 0.9542 0.65721 0.0
C1577 C 0.13519 0.98001 0.65566 0.0
C1578 C 0.15952 0.02502 0.65765 0.0
C1579 C 0.31657 0.24902 0.62979 0.0
C1580 C 0.28153 0.24928 0.62387 0.0
C1581 C 0.30916 0.22118 0.63955 0.0
C1582 C 0.26655 0.19308 0.64368 0.0
C1583 C 0.23133 0.19205 0.63754 0.0
C1584 C 0.23872 0.21994 0.62776 0.0
C1585 C 0.25921 0.16559 0.65454 0.0
C1586 C 0.23306 0.12008 0.65359 0.0
C1587 C 0.28017 0.18404 0.66563 0.0
C1588 C 0.30573 0.23198 0.66749 0.0
C1589 C 0.28684 0.2581 0.66525 0.0
C1590 C 0.31119 0.30327 0.66691 0.0
C1591 C 0.35439 0.32271 0.67089 0.0
C1592 C 0.37331 0.29699 0.67324 0.0
C1593 C 0.34912 0.2518 0.67159 0.0
H1594 H 0.37319 0.3577 0.67216 0.0
H1595 H 0.13559 0.91936 0.65568 0.0
H1596 H 0.43974 0.22556 0.11212 0.0
H1597 H 0.43515 0.21829 0.1341 0.0
H1598 H 0.29973 0.18432 0.13266 0.0
H1599 H 0.30526 0.19402 0.11077 0.0
H1600 H 0.33294 0.2311 0.15117 0.0
H1601 H 0.33482 0.10611 0.13577 0.0
H1602 H 0.36198 0.0654 0.124 0.0
H1603 H 0.48101 0.12517 0.14444 0.0
H1604 H 0.45481 0.16671 0.15623 0.0
H1605 H 0.28031 0.12174 0.20907 0.0
H1606 H 0.28391 0.1331 0.18712 0.0
H1607 H 0.42412 0.21168 0.18927 0.0
H1608 H 0.42054 0.20109 0.21116 0.0
H1609 H 0.38604 0.14022 0.17074 0.0
H1610 H 0.37876 0.26531 0.18603 0.0
H1611 H 0.34519 0.29979 0.19792 0.0
H1612 H 0.22675 0.2298 0.1775 0.0
H1613 H 0.25945 0.19441 0.16561 0.0
C1614 C 0.40923 0.21694 0.11657 0.0
C1615 C 0.37283 0.2102 0.10983 0.0
C1616 C 0.40645 0.21246 0.12909 0.0
C1617 C 0.36674 0.19963 0.13505 0.0
C1618 C 0.33069 0.19412 0.12831 0.0
C1619 C 0.33383 0.19968 0.11581 0.0
C1620 C 0.36255 0.1913 0.14825 0.0
C1621 C 0.34407 0.21074 0.15538 0.0
C1622 C 0.37718 0.16486 0.15384 0.0
C1623 C 0.39301 0.13984 0.1468 0.0
C1624 C 0.36691 0.1108 0.1377 0.0
C1625 C 0.38212 0.08755 0.13103 0.0
C1626 C 0.42324 0.09278 0.13345 0.0
C1627 C 0.44919 0.1212 0.14257 0.0
C1628 C 0.43417 0.14458 0.14925 0.0
C1629 C 0.31177 0.14138 0.20481 0.0
C1630 C 0.35011 0.1608 0.21174 0.0
C1631 C 0.3138 0.14794 0.19234 0.0
C1632 C 0.35429 0.1733 0.18666 0.0
C1633 C 0.39263 0.1921 0.19354 0.0
C1634 C 0.39053 0.18628 0.20601 0.0
C1635 C 0.35686 0.18024 0.1735 0.0
C1636 C 0.37491 0.16044 0.16643 0.0
C1637 C 0.3409 0.20538 0.16793 0.0
C1638 C 0.32137 0.22686 0.17503 0.0
C1639 C 0.34542 0.25696 0.18416 0.0
C1640 C 0.32658 0.27674 0.19088 0.0
C1641 C 0.28382 0.26689 0.18849 0.0
C1642 C 0.25985 0.23735 0.17935 0.0
C1643 C 0.27852 0.21745 0.17262 0.0
H1644 H 0.2693 0.28224 0.1937 0.0
H1645 H 0.43495 0.07475 0.12828 0.0
H1646 H 0.09227 0.34953 0.44505 0.0
H1647 H 0.09063 0.34155 0.46707 0.0
H1648 H 0.21711 0.35125 0.46601 0.0
H1649 H 0.2187 0.3588 0.44412 0.0
H1650 H 0.15731 0.28433 0.48111 0.0
H1651 H 0.21069 0.43832 0.47312 0.0
H1652 H 0.20484 0.49934 0.46441 0.0
H1653 H 0.08677 0.45964 0.48435 0.0
H1654 H 0.09164 0.39801 0.49305 0.0
H1655 H 0.24867 0.34756 0.53909 0.0
H1656 H 0.23149 0.34051 0.51758 0.0
H1657 H 0.11596 0.34857 0.52503 0.0
H1658 H 0.13315 0.35583 0.54653 0.0
H1659 H 0.15887 0.39972 0.5069 0.0
H1660 H 0.10835 0.2519 0.51692 0.0
H1661 H 0.11084 0.18921 0.52572 0.0
H1662 H 0.21691 0.2128 0.50223 0.0
H1663 H 0.21559 0.27615 0.49343 0.0
C1664 C 0.1195 0.34963 0.44954 0.0
C1665 C 0.15581 0.35523 0.44291 0.0
C1666 C 0.11859 0.3452 0.46208 0.0
C1667 C 0.15386 0.346 0.46813 0.0
C1668 C 0.1896 0.35055 0.46149 0.0
C1669 C 0.19068 0.35535 0.44901 0.0
C1670 C 0.15472 0.34384 0.48142 0.0
C1671 C 0.15788 0.3096 0.48678 0.0
C1672 C 0.15394 0.37606 0.48878 0.0
C1673 C 0.15126 0.41331 0.48363 0.0
C1674 C 0.1833 0.44242 0.47557 0.0
C1675 C 0.1802 0.47714 0.47065 0.0
C1676 C 0.14538 0.48328 0.47379 0.0
C1677 C 0.11367 0.45479 0.4819 0.0
C1678 C 0.1166 0.41999 0.48684 0.0
C1679 C 0.21938 0.34732 0.53615 0.0
C1680 C 0.19233 0.35235 0.54449 0.0
C1681 C 0.20953 0.34324 0.52387 0.0
C1682 C 0.17214 0.34351 0.51972 0.0
C1683 C 0.14498 0.34832 0.52804 0.0
C1684 C 0.15496 0.35266 0.54031 0.0
C1685 C 0.16251 0.34066 0.50664 0.0
C1686 C 0.15767 0.37397 0.5013 0.0
C1687 C 0.16115 0.30721 0.49933 0.0
C1688 C 0.16208 0.26904 0.50457 0.0
C1689 C 0.13245 0.24396 0.51369 0.0
C1690 C 0.13361 0.20825 0.51867 0.0
C1691 C 0.16404 0.19706 0.51454 0.0
C1692 C 0.19336 0.22153 0.50542 0.0
C1693 C 0.19239 0.25733 0.50042 0.0
H1694 H 0.16487 0.16939 0.5184 0.0
H1695 H 0.14302 0.51017 0.46997 0.0
H1696 H 0.92346 0.21371 0.87734 0.0
H1697 H 0.93679 0.23508 0.85598 0.0
H1698 H 0.80274 0.20365 0.85219 0.0
H1699 H 0.78956 0.18244 0.87338 0.0
H1700 H 0.89513 0.17897 0.83727 0.0
H1701 H 0.7943 0.26771 0.83256 0.0
H1702 H 0.78364 0.32175 0.84386 0.0
H1703 H 0.90961 0.37163 0.86031 0.0
H1704 H 0.92092 0.31778 0.84917 0.0
H1705 H 0.78604 0.13521 0.78218 0.0
H1706 H 0.80758 0.14718 0.80336 0.0
H1707 H 0.89563 0.28358 0.79614 0.0
H1708 H 0.87447 0.27178 0.7749 0.0
H1709 H 0.84964 0.27352 0.81618 0.0
H1710 H 0.93679 0.21778 0.80086 0.0
H1711 H 0.95326 0.16796 0.78943 0.0
H1712 H 0.86849 0.06195 0.8126 0.0
H1713 H 0.8509 0.11095 0.82405 0.0
C1714 C 0.89728 0.21236 0.87196 0.0
C1715 C 0.8554 0.1961 0.8769 0.0
C1716 C 0.90483 0.22438 0.8598 0.0
C1717 C 0.87081 0.22114 0.85254 0.0
C1718 C 0.8296 0.20693 0.85766 0.0
C1719 C 0.82195 0.19444 0.86972 0.0
C1720 C 0.87614 0.22773 0.83936 0.0
C1721 C 0.88584 0.20008 0.83263 0.0
C1722 C 0.86509 0.25609 0.83335 0.0
C1723 C 0.85837 0.28858 0.84005 0.0
C1724 C 0.81978 0.29029 0.83856 0.0
C1725 C 0.81355 0.32078 0.84498 0.0
C1726 C 0.84585 0.34999 0.85284 0.0
C1727 C 0.88449 0.34881 0.85428 0.0
C1728 C 0.89073 0.31818 0.84796 0.0
C1729 C 0.81027 0.16765 0.78506 0.0
C1730 C 0.82859 0.20249 0.77684 0.0
C1731 C 0.82256 0.17447 0.79717 0.0
C1732 C 0.85367 0.21617 0.80127 0.0
C1733 C 0.87163 0.25115 0.79314 0.0
C1734 C 0.85931 0.24436 0.78102 0.0
C1735 C 0.86645 0.2231 0.81414 0.0
C1736 C 0.86001 0.25318 0.82078 0.0
C1737 C 0.88154 0.19769 0.82005 0.0
C1738 C 0.89237 0.16806 0.81329 0.0
C1739 C 0.92145 0.18379 0.80348 0.0
C1740 C 0.931 0.15569 0.797 0.0
C1741 C 0.9119 0.11181 0.80028 0.0
C1742 C 0.88327 0.09596 0.81007 0.0
C1743 C 0.87354 0.1239 0.81657 0.0
H1744 H 0.91932 0.0901 0.79525 0.0
H1745 H 0.84098 0.37356 0.8578 0.0
H1746 H 0.66226 0.89547 0.21011 0.0
H1747 H 0.64831 0.90161 0.18881 0.0
H1748 H 0.55774 0.7631 0.18743 0.0
H1749 H 0.57137 0.7569 0.20873 0.0
H1750 H 0.62642 0.78884 0.17232 0.0
H1751 H 0.51909 0.83039 0.17985 0.0
H1752 H 0.48768 0.87154 0.18937 0.0
H1753 H 0.59472 0.99172 0.1763 0.0
H1754 H 0.62644 0.95122 0.16653 0.0
H1755 H 0.62489 0.79939 0.10948 0.0
H1756 H 0.59332 0.7865 0.12962 0.0
H1757 H 0.67315 0.92344 0.13787 0.0
H1758 H 0.70316 0.93706 0.11755 0.0
H1759 H 0.59614 0.89058 0.14911 0.0
H1760 H 0.70679 0.85041 0.1434 0.0
H1761 H 0.74059 0.81062 0.13445 0.0
H1762 H 0.63167 0.68893 0.14595 0.0
H1763 H 0.59635 0.72783 0.15452 0.0
C1764 C 0.63834 0.86662 0.20537 0.0
C1765 C 0.61868 0.82553 0.21097 0.0
C1766 C 0.63021 0.87017 0.19321 0.0
C1767 C 0.60212 0.83274 0.18654 0.0
C1768 C 0.57964 0.79233 0.19241 0.0
C1769 C 0.58778 0.78878 0.20453 0.0
C1770 C 0.60291 0.83439 0.17322 0.0
C1771 C 0.61856 0.81013 0.16719 0.0
C1772 C 0.59402 0.86322 0.16664 0.0
C1773 C 0.57525 0.8878 0.17252 0.0
C1774 C 0.53601 0.86561 0.17904 0.0
C1775 C 0.51806 0.8888 0.18443 0.0
C1776 C 0.53932 0.93422 0.18351 0.0
C1777 C 0.57832 0.95653 0.17704 0.0
C1778 C 0.59616 0.93346 0.1715 0.0
C1779 C 0.63495 0.82703 0.11542 0.0
C1780 C 0.66739 0.8692 0.11194 0.0
C1781 C 0.61697 0.81952 0.12698 0.0
C1782 C 0.63159 0.85386 0.13532 0.0
C1783 C 0.6616 0.89639 0.13161 0.0
C1784 C 0.67925 0.90401 0.12002 0.0
C1785 C 0.61982 0.84507 0.14824 0.0
C1786 C 0.6027 0.86832 0.1542 0.0
C1787 C 0.62775 0.81549 0.15485 0.0
C1788 C 0.64855 0.79201 0.14942 0.0
C1789 C 0.68969 0.81511 0.14384 0.0
C1790 C 0.7091 0.79269 0.13882 0.0
C1791 C 0.68807 0.74721 0.13951 0.0
C1792 C 0.64763 0.72408 0.14526 0.0
C1793 C 0.62784 0.74629 0.15017 0.0
H1794 H 0.70324 0.72991 0.13568 0.0
H1795 H 0.52553 0.95211 0.18778 0.0
H1796 H 0.75578 0.70396 0.44479 0.0
H1797 H 0.74463 0.70212 0.46673 0.0
H1798 H 0.84133 0.66339 0.47192 0.0
H1799 H 0.85325 0.6662 0.45008 0.0
H1800 H 0.74497 0.60959 0.48335 0.0
H1801 H 0.87901 0.75369 0.47859 0.0
H1802 H 0.91796 0.82754 0.46977 0.0
H1803 H 0.8211 0.85465 0.48401 0.0
H1804 H 0.7812 0.78064 0.49276 0.0
H1805 H 0.82251 0.61833 0.54086 0.0
H1806 H 0.80406 0.61923 0.51986 0.0
H1807 H 0.76486 0.71408 0.52795 0.0
H1808 H 0.78592 0.7152 0.54902 0.0
H1809 H 0.81478 0.74071 0.50956 0.0
H1810 H 0.68685 0.60681 0.51727 0.0
H1811 H 0.63919 0.5327 0.52526 0.0
H1812 H 0.71182 0.48564 0.50554 0.0
H1813 H 0.75951 0.5593 0.49728 0.0
C1814 C 0.77479 0.69542 0.45067 0.0
C1815 C 0.80548 0.6854 0.44583 0.0
C1816 C 0.76842 0.69437 0.46313 0.0
C1817 C 0.7921 0.68249 0.47084 0.0
C1818 C 0.82282 0.67262 0.46604 0.0
C1819 C 0.82985 0.67457 0.45363 0.0
C1820 C 0.78462 0.67951 0.48395 0.0
C1821 C 0.76017 0.63809 0.48914 0.0
C1822 C 0.80257 0.71697 0.49134 0.0
C1823 C 0.82687 0.76151 0.48619 0.0
C1824 C 0.86579 0.77525 0.47973 0.0
C1825 C 0.88809 0.81716 0.47477 0.0
C1826 C 0.87195 0.84573 0.4763 0.0
C1827 C 0.83352 0.83247 0.48282 0.0
C1828 C 0.81107 0.79056 0.48778 0.0
C1829 C 0.80992 0.63937 0.53821 0.0
C1830 C 0.80652 0.66728 0.5466 0.0
C1831 C 0.79852 0.63925 0.5262 0.0
C1832 C 0.78251 0.66635 0.52229 0.0
C1833 C 0.77705 0.6928 0.53075 0.0
C1834 C 0.78888 0.69323 0.54281 0.0
C1835 C 0.77658 0.67028 0.50918 0.0
C1836 C 0.79846 0.71197 0.50389 0.0
C1837 C 0.75512 0.63302 0.50168 0.0
C1838 C 0.72688 0.58866 0.5067 0.0
C1839 C 0.69278 0.5807 0.51467 0.0
C1840 C 0.66567 0.53875 0.51922 0.0
C1841 C 0.67266 0.50458 0.51598 0.0
C1842 C 0.70648 0.51217 0.50807 0.0
C1843 C 0.73337 0.55395 0.50338 0.0
H1844 H 0.65179 0.47219 0.51957 0.0
H1845 H 0.88931 0.87819 0.47249 0.0
H1846 H 0.2105 0.91507 0.78809 0.0
H1847 H 0.20938 0.91031 0.81002 0.0
H1848 H 0.10133 0.77836 0.80816 0.0
H1849 H 0.101 0.7835 0.78621 0.0
H1850 H 0.09119 0.82302 0.82641 0.0
H1851 H 0.20547 0.79861 0.81154 0.0
H1852 H 0.2717 0.8179 0.79969 0.0
H1853 H 0.34387 0.93505 0.82049 0.0
H1854 H 0.27786 0.91675 0.83235 0.0
H1855 H 0.10484 0.7487 0.88426 0.0
H1856 H 0.10489 0.7577 0.86239 0.0
H1857 H 0.21853 0.88605 0.86543 0.0
H1858 H 0.21936 0.87619 0.88729 0.0
H1859 H 0.22639 0.84616 0.84659 0.0
H1860 H 0.11231 0.86705 0.86261 0.0
H1861 H 0.04603 0.84599 0.87456 0.0
H1862 H 0.97226 0.7361 0.85133 0.0
H1863 H 0.03858 0.75528 0.83955 0.0
C1864 C 0.18588 0.88533 0.79232 0.0
C1865 C 0.15599 0.84952 0.78536 0.0
C1866 C 0.1856 0.88252 0.80487 0.0
C1867 C 0.15578 0.84372 0.8107 0.0
C1868 C 0.1248 0.80853 0.80383 0.0
C1869 C 0.12492 0.81138 0.79128 0.0
C1870 C 0.15794 0.8391 0.82391 0.0
C1871 C 0.12056 0.82764 0.83083 0.0
C1872 C 0.19663 0.84607 0.82966 0.0
C1873 C 0.23663 0.85651 0.82276 0.0
C1874 C 0.23541 0.82859 0.81355 0.0
C1875 C 0.27291 0.83934 0.80683 0.0
C1876 C 0.31193 0.87774 0.80931 0.0
C1877 C 0.3136 0.90535 0.81856 0.0
C1878 C 0.27617 0.89478 0.8253 0.0
C1879 C 0.12972 0.77879 0.88022 0.0
C1880 C 0.16183 0.81198 0.8874 0.0
C1881 C 0.12975 0.78397 0.86776 0.0
C1882 C 0.16115 0.82297 0.86229 0.0
C1883 C 0.19389 0.85576 0.86945 0.0
C1884 C 0.19436 0.85019 0.8819 0.0
C1885 C 0.15947 0.82979 0.84915 0.0
C1886 C 0.19699 0.84171 0.84222 0.0
C1887 C 0.12084 0.82323 0.84339 0.0
C1888 C 0.08059 0.81244 0.85025 0.0
C1889 C 0.08204 0.83823 0.86008 0.0
C1890 C 0.04444 0.82662 0.86684 0.0
C1891 C 0.0049 0.78988 0.86368 0.0
C1892 C 1.00291 0.76457 0.85377 0.0
C1893 C 0.04055 0.77571 0.84707 0.0
H1894 H 0.97582 0.78099 0.86892 0.0
H1895 H 0.3409 0.88607 0.80408 0.0
loop_
_geom_bond_atom_site_label_1
_geom_bond_atom_site_label_2
_geom_bond_distance
_geom_bond_site_symmetry_2
_ccdc_geom_bond_type
C0 C1 1.351 . S
C0 N3 1.368 . S
C0 H5 0.931 . S
C1 C0 1.351 . S
C1 N2 1.373 . S
C1 H29 0.930 . S
N2 C1 1.373 . S
N2 C4 1.340 . S
N3 C0 1.368 . S
N3 C4 1.321 . S
N3 Co6 2.135 . S
C4 N2 1.340 . S
C4 N3 1.321 . S
C4 H28 0.930 . S
H5 C0 0.931 . S
Co6 N3 2.135 . S
Co6 N9 2.121 . S
Co6 O14 2.055 . S
Co6 O17 2.039 . S
Co6 N20 2.140 . S
C7 O8 1.227 . S
C7 O17 1.265 . S
O8 C7 1.227 . S
N9 Co6 2.121 . S
N9 C11 1.375 . S
N9 C12 1.313 . S
C10 C11 1.338 . S
C10 N13 1.377 . S
C10 H30 0.930 . S
C11 N9 1.375 . S
C11 C10 1.338 . S
C11 H15 0.931 . S
C12 N9 1.313 . S
C12 N13 1.344 . S
C12 H16 0.930 . S
N13 C10 1.377 . S
N13 C12 1.344 . S
O14 Co6 2.055 . S
O14 C18 1.253 . S
H15 C11 0.931 . S
H16 C12 0.930 . S
O17 Co6 2.039 . S
O17 C7 1.265 . S
C18 O14 1.253 . S
C18 O19 1.227 . S
O19 C18 1.227 . S
N20 Co6 2.140 . S
N20 C23 1.346 . S
N20 C24 1.345 . S
C21 C22 1.387 . S
C21 C25 1.391 . S
C22 C21 1.387 . S
C22 C23 1.369 . S
C22 H31 0.929 . S
C23 N20 1.346 . S
C23 C22 1.369 . S
C23 H26 0.928 . S
C24 N20 1.345 . S
C24 C25 1.371 . S
C24 H27 0.931 . S
C25 C21 1.391 . S
C25 C24 1.371 . S
C25 H32 0.930 . S
H26 C23 0.928 . S
H27 C24 0.931 . S
H28 C4 0.930 . S
H29 C1 0.930 . S
H30 C10 0.930 . S
H31 C22 0.929 . S
H32 C25 0.930 . S
C33 C34 1.351 . S
C33 N36 1.368 . S
C33 H38 0.931 . S
C34 C33 1.351 . S
C34 N35 1.373 . S
C34 H62 0.930 . S
N35 C34 1.373 . S
N35 C37 1.340 . S
N36 C33 1.368 . S
N36 C37 1.321 . S
N36 Co39 2.135 . S
C37 N35 1.340 . S
C37 N36 1.321 . S
C37 H61 0.930 . S
H38 C33 0.931 . S
Co39 N36 2.135 . S
Co39 N42 2.121 . S
Co39 O47 2.055 . S
Co39 O50 2.039 . S
Co39 N53 2.140 . S
C40 O41 1.227 . S
C40 O50 1.265 . S
O41 C40 1.227 . S
N42 Co39 2.121 . S
N42 C44 1.375 . S
N42 C45 1.313 . S
C43 C44 1.338 . S
C43 N46 1.377 . S
C43 H63 0.930 . S
C44 N42 1.375 . S
C44 C43 1.338 . S
C44 H48 0.931 . S
C45 N42 1.313 . S
C45 N46 1.344 . S
C45 H49 0.930 . S
N46 C43 1.377 . S
N46 C45 1.344 . S
O47 Co39 2.055 . S
O47 C51 1.253 . S
H48 C44 0.931 . S
H49 C45 0.930 . S
O50 Co39 2.039 . S
O50 C40 1.265 . S
C51 O47 1.253 . S
C51 O52 1.227 . S
O52 C51 1.227 . S
N53 Co39 2.140 . S
N53 C56 1.346 . S
N53 C57 1.345 . S
C54 C55 1.387 . S
C54 C58 1.391 . S
C55 C54 1.387 . S
C55 C56 1.369 . S
C55 H64 0.929 . S
C56 N53 1.346 . S
C56 C55 1.369 . S
C56 H59 0.928 . S
C57 N53 1.345 . S
C57 C58 1.371 . S
C57 H60 0.931 . S
C58 C54 1.391 . S
C58 C57 1.371 . S
C58 H65 0.930 . S
H59 C56 0.928 . S
H60 C57 0.931 . S
H61 C37 0.930 . S
H62 C34 0.930 . S
H63 C43 0.930 . S
H64 C55 0.929 . S
H65 C58 0.930 . S
C66 C67 1.351 . S
C66 N69 1.368 . S
C66 H71 0.931 . S
C67 C66 1.351 . S
C67 N68 1.373 . S
C67 H95 0.930 . S
N68 C67 1.373 . S
N68 C70 1.340 . S
N69 C66 1.368 . S
N69 C70 1.321 . S
N69 Co72 2.135 . S
C70 N68 1.340 . S
C70 N69 1.321 . S
C70 H94 0.930 . S
H71 C66 0.931 . S
Co72 N69 2.135 . S
Co72 N75 2.121 . S
Co72 O80 2.055 . S
Co72 O83 2.039 . S
Co72 N86 2.140 . S
C73 O74 1.227 . S
C73 O83 1.265 . S
O74 C73 1.227 . S
N75 Co72 2.121 . S
N75 C77 1.375 . S
N75 C78 1.313 . S
C76 C77 1.338 . S
C76 N79 1.377 . S
C76 H96 0.930 . S
C77 N75 1.375 . S
C77 C76 1.338 . S
C77 H81 0.931 . S
C78 N75 1.313 . S
C78 N79 1.344 . S
C78 H82 0.930 . S
N79 C76 1.377 . S
N79 C78 1.344 . S
O80 Co72 2.055 . S
O80 C84 1.253 . S
H81 C77 0.931 . S
H82 C78 0.930 . S
O83 Co72 2.039 . S
O83 C73 1.265 . S
C84 O80 1.253 . S
C84 O85 1.227 . S
O85 C84 1.227 . S
N86 Co72 2.140 . S
N86 C89 1.346 . S
N86 C90 1.345 . S
C87 C88 1.387 . S
C87 C91 1.391 . S
C88 C87 1.387 . S
C88 C89 1.369 . S
C88 H97 0.929 . S
C89 N86 1.346 . S
C89 C88 1.369 . S
C89 H92 0.928 . S
C90 N86 1.345 . S
C90 C91 1.371 . S
C90 H93 0.931 . S
C91 C87 1.391 . S
C91 C90 1.371 . S
C91 H98 0.930 . S
H92 C89 0.928 . S
H93 C90 0.931 . S
H94 C70 0.930 . S
H95 C67 0.930 . S
H96 C76 0.930 . S
H97 C88 0.929 . S
H98 C91 0.930 . S
C99 C100 1.351 . S
C99 N102 1.368 . S
C99 H104 0.931 . S
C100 C99 1.351 . S
C100 N101 1.373 . S
C100 H128 0.930 . S
N101 C100 1.373 . S
N101 C103 1.340 . S
N102 C99 1.368 . S
N102 C103 1.321 . S
N102 Co105 2.135 . S
C103 N101 1.340 . S
C103 N102 1.321 . S
C103 H127 0.930 . S
H104 C99 0.931 . S
Co105 N102 2.135 . S
Co105 N108 2.121 . S
Co105 O113 2.055 . S
Co105 O116 2.039 . S
Co105 N119 2.140 . S
C106 O107 1.227 . S
C106 O116 1.265 . S
O107 C106 1.227 . S
N108 Co105 2.121 . S
N108 C110 1.375 . S
N108 C111 1.313 . S
C109 C110 1.338 . S
C109 N112 1.377 . S
C109 H129 0.930 . S
C110 N108 1.375 . S
C110 C109 1.338 . S
C110 H114 0.931 . S
C111 N108 1.313 . S
C111 N112 1.344 . S
C111 H115 0.930 . S
N112 C109 1.377 . S
N112 C111 1.344 . S
O113 Co105 2.055 . S
O113 C117 1.253 . S
H114 C110 0.931 . S
H115 C111 0.930 . S
O116 Co105 2.039 . S
O116 C106 1.265 . S
C117 O113 1.253 . S
C117 O118 1.227 . S
O118 C117 1.227 . S
N119 Co105 2.140 . S
N119 C122 1.346 . S
N119 C123 1.345 . S
C120 C121 1.387 . S
C120 C124 1.391 . S
C121 C120 1.387 . S
C121 C122 1.369 . S
C121 H130 0.929 . S
C122 N119 1.346 . S
C122 C121 1.369 . S
C122 H125 0.928 . S
C123 N119 1.345 . S
C123 C124 1.371 . S
C123 H126 0.931 . S
C124 C120 1.391 . S
C124 C123 1.371 . S
C124 H131 0.930 . S
H125 C122 0.928 . S
H126 C123 0.931 . S
H127 C103 0.930 . S
H128 C100 0.930 . S
H129 C109 0.930 . S
H130 C121 0.929 . S
H131 C124 0.930 . S
C132 C133 1.351 . S
C132 N135 1.368 . S
C132 H137 0.931 . S
C133 C132 1.351 . S
C133 N134 1.373 . S
C133 H161 0.930 . S
N134 C133 1.373 . S
N134 C136 1.340 . S
N135 C132 1.368 . S
N135 C136 1.321 . S
N135 Co138 2.135 . S
C136 N134 1.340 . S
C136 N135 1.321 . S
C136 H160 0.930 . S
H137 C132 0.931 . S
Co138 N135 2.135 . S
Co138 N141 2.121 . S
Co138 O146 2.055 . S
Co138 O149 2.039 . S
Co138 N152 2.140 . S
C139 O140 1.227 . S
C139 O149 1.265 . S
O140 C139 1.227 . S
N141 Co138 2.121 . S
N141 C143 1.375 . S
N141 C144 1.313 . S
C142 C143 1.338 . S
C142 N145 1.377 . S
C142 H162 0.930 . S
C143 N141 1.375 . S
C143 C142 1.338 . S
C143 H147 0.931 . S
C144 N141 1.313 . S
C144 N145 1.344 . S
C144 H148 0.930 . S
N145 C142 1.377 . S
N145 C144 1.344 . S
O146 Co138 2.055 . S
O146 C150 1.253 . S
H147 C143 0.931 . S
H148 C144 0.930 . S
O149 Co138 2.039 . S
O149 C139 1.265 . S
C150 O146 1.253 . S
C150 O151 1.227 . S
O151 C150 1.227 . S
N152 Co138 2.140 . S
N152 C155 1.346 . S
N152 C156 1.345 . S
C153 C154 1.387 . S
C153 C157 1.391 . S
C154 C153 1.387 . S
C154 C155 1.369 . S
C154 H163 0.929 . S
C155 N152 1.346 . S
C155 C154 1.369 . S
C155 H158 0.928 . S
C156 N152 1.345 . S
C156 C157 1.371 . S
C156 H159 0.931 . S
C157 C153 1.391 . S
C157 C156 1.371 . S
C157 H164 0.930 . S
H158 C155 0.928 . S
H159 C156 0.931 . S
H160 C136 0.930 . S
H161 C133 0.930 . S
H162 C142 0.930 . S
H163 C154 0.929 . S
H164 C157 0.930 . S
C165 C166 1.351 . S
C165 N168 1.368 . S
C165 H170 0.931 . S
C166 C165 1.351 . S
C166 N167 1.373 . S
C166 H194 0.930 . S
N167 C166 1.373 . S
N167 C169 1.340 . S
N168 C165 1.368 . S
N168 C169 1.321 . S
N168 Co171 2.135 . S
C169 N167 1.340 . S
C169 N168 1.321 . S
C169 H193 0.930 . S
H170 C165 0.931 . S
Co171 N168 2.135 . S
Co171 N174 2.121 . S
Co171 O179 2.055 . S
Co171 O182 2.039 . S
Co171 N185 2.140 . S
C172 O173 1.227 . S
C172 O182 1.265 . S
O173 C172 1.227 . S
N174 Co171 2.121 . S
N174 C176 1.375 . S
N174 C177 1.313 . S
C175 C176 1.338 . S
C175 N178 1.377 . S
C175 H195 0.930 . S
C176 N174 1.375 . S
C176 C175 1.338 . S
C176 H180 0.931 . S
C177 N174 1.313 . S
C177 N178 1.344 . S
C177 H181 0.930 . S
N178 C175 1.377 . S
N178 C177 1.344 . S
O179 Co171 2.055 . S
O179 C183 1.253 . S
H180 C176 0.931 . S
H181 C177 0.930 . S
O182 Co171 2.039 . S
O182 C172 1.265 . S
C183 O179 1.253 . S
C183 O184 1.227 . S
O184 C183 1.227 . S
N185 Co171 2.140 . S
N185 C188 1.346 . S
N185 C189 1.345 . S
C186 C187 1.387 . S
C186 C190 1.391 . S
C187 C186 1.387 . S
C187 C188 1.369 . S
C187 H196 0.929 . S
C188 N185 1.346 . S
C188 C187 1.369 . S
C188 H191 0.928 . S
C189 N185 1.345 . S
C189 C190 1.371 . S
C189 H192 0.931 . S
C190 C186 1.391 . S
C190 C189 1.371 . S
C190 H197 0.930 . S
H191 C188 0.928 . S
H192 C189 0.931 . S
H193 C169 0.930 . S
H194 C166 0.930 . S
H195 C175 0.930 . S
H196 C187 0.929 . S
H197 C190 0.930 . S
C198 C199 1.351 . S
C198 N201 1.368 . S
C198 H203 0.931 . S
C199 C198 1.351 . S
C199 N200 1.373 . S
C199 H227 0.930 . S
N200 C199 1.373 . S
N200 C202 1.340 . S
N201 C198 1.368 . S
N201 C202 1.321 . S
N201 Co204 2.135 . S
C202 N200 1.340 . S
C202 N201 1.321 . S
C202 H226 0.930 . S
H203 C198 0.931 . S
Co204 N201 2.135 . S
Co204 N207 2.121 . S
Co204 O212 2.055 . S
Co204 O215 2.039 . S
Co204 N218 2.140 . S
C205 O206 1.227 . S
C205 O215 1.265 . S
O206 C205 1.227 . S
N207 Co204 2.121 . S
N207 C209 1.375 . S
N207 C210 1.313 . S
C208 C209 1.338 . S
C208 N211 1.377 . S
C208 H228 0.930 . S
C209 N207 1.375 . S
C209 C208 1.338 . S
C209 H213 0.931 . S
C210 N207 1.313 . S
C210 N211 1.344 . S
C210 H214 0.930 . S
N211 C208 1.377 . S
N211 C210 1.344 . S
O212 Co204 2.055 . S
O212 C216 1.253 . S
H213 C209 0.931 . S
H214 C210 0.930 . S
O215 Co204 2.039 . S
O215 C205 1.265 . S
C216 O212 1.253 . S
C216 O217 1.227 . S
O217 C216 1.227 . S
N218 Co204 2.140 . S
N218 C221 1.346 . S
N218 C222 1.345 . S
C219 C220 1.387 . S
C219 C223 1.391 . S
C220 C219 1.387 . S
C220 C221 1.369 . S
C220 H229 0.929 . S
C221 N218 1.346 . S
C221 C220 1.369 . S
C221 H224 0.928 . S
C222 N218 1.345 . S
C222 C223 1.371 . S
C222 H225 0.931 . S
C223 C219 1.391 . S
C223 C222 1.371 . S
C223 H230 0.930 . S
H224 C221 0.928 . S
H225 C222 0.931 . S
H226 C202 0.930 . S
H227 C199 0.930 . S
H228 C208 0.930 . S
H229 C220 0.929 . S
H230 C223 0.930 . S
C231 C232 1.351 . S
C231 N234 1.368 . S
C231 H236 0.931 . S
C232 C231 1.351 . S
C232 N233 1.373 . S
C232 H260 0.930 . S
N233 C232 1.373 . S
N233 C235 1.340 . S
N234 C231 1.368 . S
N234 C235 1.321 . S
N234 Co237 2.135 . S
C235 N233 1.340 . S
C235 N234 1.321 . S
C235 H259 0.930 . S
H236 C231 0.931 . S
Co237 N234 2.135 . S
Co237 N240 2.121 . S
Co237 O245 2.055 . S
Co237 O248 2.039 . S
Co237 N251 2.140 . S
C238 O239 1.227 . S
C238 O248 1.265 . S
O239 C238 1.227 . S
N240 Co237 2.121 . S
N240 C242 1.375 . S
N240 C243 1.313 . S
C241 C242 1.338 . S
C241 N244 1.377 . S
C241 H261 0.930 . S
C242 N240 1.375 . S
C242 C241 1.338 . S
C242 H246 0.931 . S
C243 N240 1.313 . S
C243 N244 1.344 . S
C243 H247 0.930 . S
N244 C241 1.377 . S
N244 C243 1.344 . S
O245 Co237 2.055 . S
O245 C249 1.253 . S
H246 C242 0.931 . S
H247 C243 0.930 . S
O248 Co237 2.039 . S
O248 C238 1.265 . S
C249 O245 1.253 . S
C249 O250 1.227 . S
O250 C249 1.227 . S
N251 Co237 2.140 . S
N251 C254 1.346 . S
N251 C255 1.345 . S
C252 C253 1.387 . S
C252 C256 1.391 . S
C253 C252 1.387 . S
C253 C254 1.369 . S
C253 H262 0.929 . S
C254 N251 1.346 . S
C254 C253 1.369 . S
C254 H257 0.928 . S
C255 N251 1.345 . S
C255 C256 1.371 . S
C255 H258 0.931 . S
C256 C252 1.391 . S
C256 C255 1.371 . S
C256 H263 0.930 . S
H257 C254 0.928 . S
H258 C255 0.931 . S
H259 C235 0.930 . S
H260 C232 0.930 . S
H261 C241 0.930 . S
H262 C253 0.929 . S
H263 C256 0.930 . S
C264 C265 1.351 . S
C264 N267 1.368 . S
C264 H269 0.931 . S
C265 C264 1.351 . S
C265 N266 1.373 . S
C265 H293 0.930 . S
N266 C265 1.373 . S
N266 C268 1.340 . S
N267 C264 1.368 . S
N267 C268 1.321 . S
N267 Co270 2.135 . S
C268 N266 1.340 . S
C268 N267 1.321 . S
C268 H292 0.930 . S
H269 C264 0.931 . S
Co270 N267 2.135 . S
Co270 N273 2.121 . S
Co270 O278 2.055 . S
Co270 O281 2.039 . S
Co270 N284 2.140 . S
C271 O272 1.227 . S
C271 O281 1.265 . S
O272 C271 1.227 . S
N273 Co270 2.121 . S
N273 C275 1.375 . S
N273 C276 1.313 . S
C274 C275 1.338 . S
C274 N277 1.377 . S
C274 H294 0.930 . S
C275 N273 1.375 . S
C275 C274 1.338 . S
C275 H279 0.931 . S
C276 N273 1.313 . S
C276 N277 1.344 . S
C276 H280 0.930 . S
N277 C274 1.377 . S
N277 C276 1.344 . S
O278 Co270 2.055 . S
O278 C282 1.253 . S
H279 C275 0.931 . S
H280 C276 0.930 . S
O281 Co270 2.039 . S
O281 C271 1.265 . S
C282 O278 1.253 . S
C282 O283 1.227 . S
O283 C282 1.227 . S
N284 Co270 2.140 . S
N284 C287 1.346 . S
N284 C288 1.345 . S
C285 C286 1.387 . S
C285 C289 1.391 . S
C286 C285 1.387 . S
C286 C287 1.369 . S
C286 H295 0.929 . S
C287 N284 1.346 . S
C287 C286 1.369 . S
C287 H290 0.928 . S
C288 N284 1.345 . S
C288 C289 1.371 . S
C288 H291 0.931 . S
C289 C285 1.391 . S
C289 C288 1.371 . S
C289 H296 0.930 . S
H290 C287 0.928 . S
H291 C288 0.931 . S
H292 C268 0.930 . S
H293 C265 0.930 . S
H294 C274 0.930 . S
H295 C286 0.929 . S
H296 C289 0.930 . S
C297 C298 1.351 . S
C297 N300 1.368 . S
C297 H302 0.931 . S
C298 C297 1.351 . S
C298 N299 1.373 . S
C298 H326 0.930 . S
N299 C298 1.373 . S
N299 C301 1.340 . S
N300 C297 1.368 . S
N300 C301 1.321 . S
N300 Co303 2.135 . S
C301 N299 1.340 . S
C301 N300 1.321 . S
C301 H325 0.930 . S
H302 C297 0.931 . S
Co303 N300 2.135 . S
Co303 N306 2.121 . S
Co303 O311 2.055 . S
Co303 O314 2.039 . S
Co303 N317 2.140 . S
C304 O305 1.227 . S
C304 O314 1.265 . S
O305 C304 1.227 . S
N306 Co303 2.121 . S
N306 C308 1.375 . S
N306 C309 1.313 . S
C307 C308 1.338 . S
C307 N310 1.377 . S
C307 H327 0.930 . S
C308 N306 1.375 . S
C308 C307 1.338 . S
C308 H312 0.931 . S
C309 N306 1.313 . S
C309 N310 1.344 . S
C309 H313 0.930 . S
N310 C307 1.377 . S
N310 C309 1.344 . S
O311 Co303 2.055 . S
O311 C315 1.253 . S
H312 C308 0.931 . S
H313 C309 0.930 . S
O314 Co303 2.039 . S
O314 C304 1.265 . S
C315 O311 1.253 . S
C315 O316 1.227 . S
O316 C315 1.227 . S
N317 Co303 2.140 . S
N317 C320 1.346 . S
N317 C321 1.345 . S
C318 C319 1.387 . S
C318 C322 1.391 . S
C319 C318 1.387 . S
C319 C320 1.369 . S
C319 H328 0.929 . S
C320 N317 1.346 . S
C320 C319 1.369 . S
C320 H323 0.928 . S
C321 N317 1.345 . S
C321 C322 1.371 . S
C321 H324 0.931 . S
C322 C318 1.391 . S
C322 C321 1.371 . S
C322 H329 0.930 . S
H323 C320 0.928 . S
H324 C321 0.931 . S
H325 C301 0.930 . S
H326 C298 0.930 . S
H327 C307 0.930 . S
H328 C319 0.929 . S
H329 C322 0.930 . S
C330 C331 1.351 . S
C330 N333 1.368 . S
C330 H335 0.931 . S
C331 C330 1.351 . S
C331 N332 1.373 . S
C331 H359 0.930 . S
N332 C331 1.373 . S
N332 C334 1.340 . S
N333 C330 1.368 . S
N333 C334 1.321 . S
N333 Co336 2.135 . S
C334 N332 1.340 . S
C334 N333 1.321 . S
C334 H358 0.930 . S
H335 C330 0.931 . S
Co336 N333 2.135 . S
Co336 N339 2.121 . S
Co336 O344 2.055 . S
Co336 O347 2.039 . S
Co336 N350 2.140 . S
C337 O338 1.227 . S
C337 O347 1.265 . S
O338 C337 1.227 . S
N339 Co336 2.121 . S
N339 C341 1.375 . S
N339 C342 1.313 . S
C340 C341 1.338 . S
C340 N343 1.377 . S
C340 H360 0.930 . S
C341 N339 1.375 . S
C341 C340 1.338 . S
C341 H345 0.931 . S
C342 N339 1.313 . S
C342 N343 1.344 . S
C342 H346 0.930 . S
N343 C340 1.377 . S
N343 C342 1.344 . S
O344 Co336 2.055 . S
O344 C348 1.253 . S
H345 C341 0.931 . S
H346 C342 0.930 . S
O347 Co336 2.039 . S
O347 C337 1.265 . S
C348 O344 1.253 . S
C348 O349 1.227 . S
O349 C348 1.227 . S
N350 Co336 2.140 . S
N350 C353 1.346 . S
N350 C354 1.345 . S
C351 C352 1.387 . S
C351 C355 1.391 . S
C352 C351 1.387 . S
C352 C353 1.369 . S
C352 H361 0.929 . S
C353 N350 1.346 . S
C353 C352 1.369 . S
C353 H356 0.928 . S
C354 N350 1.345 . S
C354 C355 1.371 . S
C354 H357 0.931 . S
C355 C351 1.391 . S
C355 C354 1.371 . S
C355 H362 0.930 . S
H356 C353 0.928 . S
H357 C354 0.931 . S
H358 C334 0.930 . S
H359 C331 0.930 . S
H360 C340 0.930 . S
H361 C352 0.929 . S
H362 C355 0.930 . S
C363 C364 1.351 . S
C363 N366 1.368 . S
C363 H368 0.931 . S
C364 C363 1.351 . S
C364 N365 1.373 . S
C364 H392 0.930 . S
N365 C364 1.373 . S
N365 C367 1.340 . S
N366 C363 1.368 . S
N366 C367 1.321 . S
N366 Co369 2.135 . S
C367 N365 1.340 . S
C367 N366 1.321 . S
C367 H391 0.930 . S
H368 C363 0.931 . S
Co369 N366 2.135 . S
Co369 N372 2.121 . S
Co369 O377 2.055 . S
Co369 O380 2.039 . S
Co369 N383 2.140 . S
C370 O371 1.227 . S
C370 O380 1.265 . S
O371 C370 1.227 . S
N372 Co369 2.121 . S
N372 C374 1.375 . S
N372 C375 1.313 . S
C373 C374 1.338 . S
C373 N376 1.377 . S
C373 H393 0.930 . S
C374 N372 1.375 . S
C374 C373 1.338 . S
C374 H378 0.931 . S
C375 N372 1.313 . S
C375 N376 1.344 . S
C375 H379 0.930 . S
N376 C373 1.377 . S
N376 C375 1.344 . S
O377 Co369 2.055 . S
O377 C381 1.253 . S
H378 C374 0.931 . S
H379 C375 0.930 . S
O380 Co369 2.039 . S
O380 C370 1.265 . S
C381 O377 1.253 . S
C381 O382 1.227 . S
O382 C381 1.227 . S
N383 Co369 2.140 . S
N383 C386 1.346 . S
N383 C387 1.345 . S
C384 C385 1.387 . S
C384 C388 1.391 . S
C385 C384 1.387 . S
C385 C386 1.369 . S
C385 H394 0.929 . S
C386 N383 1.346 . S
C386 C385 1.369 . S
C386 H389 0.928 . S
C387 N383 1.345 . S
C387 C388 1.371 . S
C387 H390 0.931 . S
C388 C384 1.391 . S
C388 C387 1.371 . S
C388 H395 0.930 . S
H389 C386 0.928 . S
H390 C387 0.931 . S
H391 C367 0.930 . S
H392 C364 0.930 . S
H393 C373 0.930 . S
H394 C385 0.929 . S
H395 C388 0.930 . S
H396 C414 0.951 . S
H397 C416 0.951 . S
H398 C418 0.950 . S
H399 C419 0.950 . S
H400 C421 0.950 . S
H401 C424 0.950 . S
H402 C425 0.950 . S
H403 C427 0.950 . S
H404 C428 0.950 . S
H405 C429 0.951 . S
H406 C431 0.951 . S
H407 C433 0.950 . S
H408 C434 0.950 . S
H409 C436 0.950 . S
H410 C439 0.950 . S
H411 C440 0.950 . S
H412 C442 0.950 . S
H413 C443 0.950 . S
C414 H396 0.951 . S
C414 C415 1.366 . S
C414 C416 1.388 . S
C415 C414 1.366 . S
C415 C419 1.385 . S
C416 H397 0.951 . S
C416 C414 1.388 . S
C416 C417 1.366 . S
C417 C416 1.366 . S
C417 C418 1.414 . S
C417 C420 1.499 . S
C418 H398 0.950 . S
C418 C417 1.414 . S
C418 C419 1.374 . S
C419 H399 0.950 . S
C419 C415 1.385 . S
C419 C418 1.374 . S
C420 C417 1.499 . S
C420 C421 1.373 . S
C420 C422 1.389 . S
C421 H400 0.950 . S
C421 C420 1.373 . S
C421 C437 1.377 . S
C422 C420 1.389 . S
C422 C423 1.524 . S
C422 C436 1.377 . S
C423 C422 1.524 . S
C423 C424 1.397 . S
C423 C428 1.363 . S
C424 H401 0.950 . S
C424 C423 1.397 . S
C424 C425 1.334 . S
C425 H402 0.950 . S
C425 C424 1.334 . S
C425 C426 1.287 . S
C426 C425 1.287 . S
C426 C427 1.524 . S
C426 H445 0.913 . S
C427 H403 0.950 . S
C427 C426 1.524 . S
C427 C428 1.415 . S
C428 H404 0.950 . S
C428 C423 1.363 . S
C428 C427 1.415 . S
C429 H405 0.951 . S
C429 C430 1.366 . S
C429 C431 1.388 . S
C430 C429 1.366 . S
C430 C434 1.385 . S
C431 H406 0.951 . S
C431 C429 1.388 . S
C431 C432 1.366 . S
C432 C431 1.366 . S
C432 C433 1.414 . S
C432 C435 1.499 . S
C433 H407 0.950 . S
C433 C432 1.414 . S
C433 C434 1.374 . S
C434 H408 0.950 . S
C434 C430 1.385 . S
C434 C433 1.374 . S
C435 C432 1.499 . S
C435 C436 1.373 . S
C435 C437 1.389 . S
C436 H409 0.950 . S
C436 C422 1.377 . S
C436 C435 1.373 . S
C437 C421 1.377 . S
C437 C435 1.389 . S
C437 C438 1.524 . S
C438 C437 1.524 . S
C438 C439 1.397 . S
C438 C443 1.363 . S
C439 H410 0.950 . S
C439 C438 1.397 . S
C439 C440 1.334 . S
C440 H411 0.950 . S
C440 C439 1.334 . S
C440 C441 1.287 . S
C441 C440 1.287 . S
C441 C442 1.524 . S
C441 H444 0.999 . S
C442 H412 0.950 . S
C442 C441 1.524 . S
C442 C443 1.415 . S
C443 H413 0.950 . S
C443 C438 1.363 . S
C443 C442 1.415 . S
H444 C441 0.999 . S
H445 C426 0.913 . S
H446 C464 0.951 . S
H447 C466 0.951 . S
H448 C468 0.950 . S
H449 C469 0.950 . S
H450 C471 0.950 . S
H451 C474 0.950 . S
H452 C475 0.950 . S
H453 C477 0.950 . S
H454 C478 0.950 . S
H455 C479 0.951 . S
H456 C481 0.951 . S
H457 C483 0.950 . S
H458 C484 0.950 . S
H459 C486 0.950 . S
H460 C489 0.950 . S
H461 C490 0.950 . S
H462 C492 0.950 . S
H463 C493 0.950 . S
C464 H446 0.951 . S
C464 C465 1.366 . S
C464 C466 1.388 . S
C465 C464 1.366 . S
C465 C469 1.385 . S
C466 H447 0.951 . S
C466 C464 1.388 . S
C466 C467 1.366 . S
C467 C466 1.366 . S
C467 C468 1.414 . S
C467 C470 1.499 . S
C468 H448 0.950 . S
C468 C467 1.414 . S
C468 C469 1.374 . S
C469 H449 0.950 . S
C469 C465 1.385 . S
C469 C468 1.374 . S
C470 C467 1.499 . S
C470 C471 1.373 . S
C470 C472 1.389 1_455 S
C471 H450 0.950 . S
C471 C470 1.373 . S
C471 C487 1.377 . S
C472 C470 1.389 1_655 S
C472 C473 1.524 . S
C472 C486 1.377 . S
C473 C472 1.524 . S
C473 C474 1.397 . S
C473 C478 1.363 . S
C474 H451 0.950 . S
C474 C473 1.397 . S
C474 C475 1.334 . S
C475 H452 0.950 . S
C475 C474 1.334 . S
C475 C476 1.287 . S
C476 C475 1.287 . S
C476 C477 1.524 . S
C476 H495 0.913 . S
C477 H453 0.950 . S
C477 C476 1.524 . S
C477 C478 1.415 . S
C478 H454 0.950 . S
C478 C473 1.363 . S
C478 C477 1.415 . S
C479 H455 0.951 . S
C479 C480 1.366 . S
C479 C481 1.388 . S
C480 C479 1.366 . S
C480 C484 1.385 . S
C481 H456 0.951 . S
C481 C479 1.388 . S
C481 C482 1.366 . S
C482 C481 1.366 . S
C482 C483 1.414 . S
C482 C485 1.499 . S
C483 H457 0.950 . S
C483 C482 1.414 . S
C483 C484 1.374 . S
C484 H458 0.950 . S
C484 C480 1.385 . S
C484 C483 1.374 . S
C485 C482 1.499 . S
C485 C486 1.373 . S
C485 C487 1.389 1_655 S
C486 H459 0.950 . S
C486 C472 1.377 . S
C486 C485 1.373 . S
C487 C471 1.377 . S
C487 C485 1.389 1_455 S
C487 C488 1.524 . S
C488 C487 1.524 . S
C488 C489 1.397 . S
C488 C493 1.363 . S
C489 H460 0.950 . S
C489 C488 1.397 . S
C489 C490 1.334 . S
C490 H461 0.950 . S
C490 C489 1.334 . S
C490 C491 1.287 . S
C491 C490 1.287 . S
C491 C492 1.524 . S
C491 H494 0.999 . S
C492 H462 0.950 . S
C492 C491 1.524 . S
C492 C493 1.415 . S
C493 H463 0.950 . S
C493 C488 1.363 . S
C493 C492 1.415 . S
H494 C491 0.999 . S
H495 C476 0.913 . S
H496 C514 0.951 . S
H497 C516 0.951 . S
H498 C518 0.950 1_565 S
H499 C519 0.950 . S
H500 C521 0.950 . S
H501 C524 0.950 . S
H502 C525 0.950 . S
H503 C527 0.950 . S
H504 C528 0.950 . S
H505 C529 0.951 . S
H506 C531 0.951 . S
H507 C533 0.950 1_545 S
H508 C534 0.950 . S
H509 C536 0.950 . S
H510 C539 0.950 . S
H511 C540 0.950 . S
H512 C542 0.950 . S
H513 C543 0.950 . S
C514 H496 0.951 . S
C514 C515 1.366 . S
C514 C516 1.388 . S
C515 C514 1.366 . S
C515 C519 1.385 . S
C516 H497 0.951 . S
C516 C514 1.388 . S
C516 C517 1.366 . S
C517 C516 1.366 . S
C517 C518 1.414 . S
C517 C520 1.499 . S
C518 H498 0.950 1_545 S
C518 C517 1.414 . S
C518 C519 1.374 . S
C519 H499 0.950 . S
C519 C515 1.385 . S
C519 C518 1.374 . S
C520 C517 1.499 . S
C520 C521 1.373 1_545 S
C520 C522 1.389 . S
C521 H500 0.950 . S
C521 C520 1.373 1_565 S
C521 C537 1.377 . S
C522 C520 1.389 . S
C522 C523 1.524 . S
C522 C536 1.377 . S
C523 C522 1.524 . S
C523 C524 1.397 . S
C523 C528 1.363 . S
C524 H501 0.950 . S
C524 C523 1.397 . S
C524 C525 1.334 . S
C525 H502 0.950 . S
C525 C524 1.334 . S
C525 C526 1.287 . S
C526 C525 1.287 . S
C526 C527 1.524 . S
C526 H545 0.913 . S
C527 H503 0.950 . S
C527 C526 1.524 . S
C527 C528 1.415 . S
C528 H504 0.950 . S
C528 C523 1.363 . S
C528 C527 1.415 . S
C529 H505 0.951 . S
C529 C530 1.366 . S
C529 C531 1.388 . S
C530 C529 1.366 . S
C530 C534 1.385 . S
C531 H506 0.951 . S
C531 C529 1.388 . S
C531 C532 1.366 . S
C532 C531 1.366 . S
C532 C533 1.414 . S
C532 C535 1.499 . S
C533 H507 0.950 1_565 S
C533 C532 1.414 . S
C533 C534 1.374 . S
C534 H508 0.950 . S
C534 C530 1.385 . S
C534 C533 1.374 . S
C535 C532 1.499 . S
C535 C536 1.373 1_565 S
C535 C537 1.389 . S
C536 H509 0.950 . S
C536 C522 1.377 . S
C536 C535 1.373 1_545 S
C537 C521 1.377 . S
C537 C535 1.389 . S
C537 C538 1.524 . S
C538 C537 1.524 . S
C538 C539 1.397 . S
C538 C543 1.363 . S
C539 H510 0.950 . S
C539 C538 1.397 . S
C539 C540 1.334 . S
C540 H511 0.950 . S
C540 C539 1.334 . S
C540 C541 1.287 . S
C541 C540 1.287 . S
C541 C542 1.524 . S
C541 H544 0.999 . S
C542 H512 0.950 . S
C542 C541 1.524 . S
C542 C543 1.415 . S
C543 H513 0.950 . S
C543 C538 1.363 . S
C543 C542 1.415 . S
H544 C541 0.999 . S
H545 C526 0.913 . S
H546 C564 0.951 . S
H547 C566 0.951 . S
H548 C568 0.950 . S
H549 C569 0.950 . S
H550 C571 0.950 . S
H551 C574 0.950 . S
H552 C575 0.950 . S
H553 C577 0.950 . S
H554 C578 0.950 . S
H555 C579 0.951 . S
H556 C581 0.951 . S
H557 C583 0.950 . S
H558 C584 0.950 . S
H559 C586 0.950 . S
H560 C589 0.950 . S
H561 C590 0.950 . S
H562 C592 0.950 . S
H563 C593 0.950 . S
C564 H546 0.951 . S
C564 C565 1.366 . S
C564 C566 1.388 . S
C565 C564 1.366 . S
C565 C569 1.385 . S
C566 H547 0.951 . S
C566 C564 1.388 . S
C566 C567 1.366 . S
C567 C566 1.366 . S
C567 C568 1.414 . S
C567 C570 1.499 . S
C568 H548 0.950 . S
C568 C567 1.414 . S
C568 C569 1.374 . S
C569 H549 0.950 . S
C569 C565 1.385 . S
C569 C568 1.374 . S
C570 C567 1.499 . S
C570 C571 1.373 . S
C570 C572 1.389 . S
C571 H550 0.950 . S
C571 C570 1.373 . S
C571 C587 1.377 . S
C572 C570 1.389 . S
C572 C573 1.524 . S
C572 C586 1.377 . S
C573 C572 1.524 . S
C573 C574 1.397 . S
C573 C578 1.363 . S
C574 H551 0.950 . S
C574 C573 1.397 . S
C574 C575 1.334 . S
C575 H552 0.950 . S
C575 C574 1.334 . S
C575 C576 1.287 . S
C576 C575 1.287 . S
C576 C577 1.524 . S
C576 H595 0.913 . S
C577 H553 0.950 . S
C577 C576 1.524 . S
C577 C578 1.415 . S
C578 H554 0.950 . S
C578 C573 1.363 . S
C578 C577 1.415 . S
C579 H555 0.951 . S
C579 C580 1.366 . S
C579 C581 1.388 . S
C580 C579 1.366 . S
C580 C584 1.385 . S
C581 H556 0.951 . S
C581 C579 1.388 . S
C581 C582 1.366 . S
C582 C581 1.366 . S
C582 C583 1.414 . S
C582 C585 1.499 . S
C583 H557 0.950 . S
C583 C582 1.414 . S
C583 C584 1.374 . S
C584 H558 0.950 . S
C584 C580 1.385 . S
C584 C583 1.374 . S
C585 C582 1.499 . S
C585 C586 1.373 . S
C585 C587 1.389 . S
C586 H559 0.950 . S
C586 C572 1.377 . S
C586 C585 1.373 . S
C587 C571 1.377 . S
C587 C585 1.389 . S
C587 C588 1.524 . S
C588 C587 1.524 . S
C588 C589 1.397 . S
C588 C593 1.363 . S
C589 H560 0.950 . S
C589 C588 1.397 . S
C589 C590 1.334 . S
C590 H561 0.950 . S
C590 C589 1.334 . S
C590 C591 1.287 . S
C591 C590 1.287 . S
C591 C592 1.524 . S
C591 H594 0.999 . S
C592 H562 0.950 . S
C592 C591 1.524 . S
C592 C593 1.415 . S
C593 H563 0.950 . S
C593 C588 1.363 . S
C593 C592 1.415 . S
H594 C591 0.999 . S
H595 C576 0.913 . S
H596 C614 0.951 . S
H597 C616 0.951 . S
H598 C618 0.950 1_455 S
H599 C619 0.950 . S
H600 C621 0.950 . S
H601 C624 0.950 . S
H602 C625 0.950 . S
H603 C627 0.950 . S
H604 C628 0.950 . S
H605 C629 0.951 . S
H606 C631 0.951 . S
H607 C633 0.950 1_655 S
H608 C634 0.950 . S
H609 C636 0.950 . S
H610 C639 0.950 . S
H611 C640 0.950 . S
H612 C642 0.950 . S
H613 C643 0.950 . S
C614 H596 0.951 . S
C614 C615 1.366 . S
C614 C616 1.388 . S
C615 C614 1.366 . S
C615 C619 1.385 . S
C616 H597 0.951 . S
C616 C614 1.388 . S
C616 C617 1.366 . S
C617 C616 1.366 . S
C617 C618 1.414 . S
C617 C620 1.499 . S
C618 H598 0.950 1_655 S
C618 C617 1.414 . S
C618 C619 1.374 . S
C619 H599 0.950 . S
C619 C615 1.385 . S
C619 C618 1.374 . S
C620 C617 1.499 . S
C620 C621 1.373 1_655 S
C620 C622 1.389 . S
C621 H600 0.950 . S
C621 C620 1.373 1_455 S
C621 C637 1.377 . S
C622 C620 1.389 . S
C622 C623 1.524 . S
C622 C636 1.377 . S
C623 C622 1.524 . S
C623 C624 1.397 . S
C623 C628 1.363 . S
C624 H601 0.950 . S
C624 C623 1.397 . S
C624 C625 1.334 . S
C625 H602 0.950 . S
C625 C624 1.334 . S
C625 C626 1.287 . S
C626 C625 1.287 . S
C626 C627 1.524 . S
C626 H645 0.913 . S
C627 H603 0.950 . S
C627 C626 1.524 . S
C627 C628 1.415 . S
C628 H604 0.950 . S
C628 C623 1.363 . S
C628 C627 1.415 . S
C629 H605 0.951 . S
C629 C630 1.366 . S
C629 C631 1.388 . S
C630 C629 1.366 . S
C630 C634 1.385 . S
C631 H606 0.951 . S
C631 C629 1.388 . S
C631 C632 1.366 . S
C632 C631 1.366 . S
C632 C633 1.414 . S
C632 C635 1.499 . S
C633 H607 0.950 1_455 S
C633 C632 1.414 . S
C633 C634 1.374 . S
C634 H608 0.950 . S
C634 C630 1.385 . S
C634 C633 1.374 . S
C635 C632 1.499 . S
C635 C636 1.373 1_455 S
C635 C637 1.389 . S
C636 H609 0.950 . S
C636 C622 1.377 . S
C636 C635 1.373 1_655 S
C637 C621 1.377 . S
C637 C635 1.389 . S
C637 C638 1.524 . S
C638 C637 1.524 . S
C638 C639 1.397 . S
C638 C643 1.363 . S
C639 H610 0.950 . S
C639 C638 1.397 . S
C639 C640 1.334 . S
C640 H611 0.950 . S
C640 C639 1.334 . S
C640 C641 1.287 . S
C641 C640 1.287 . S
C641 C642 1.524 . S
C641 H644 0.999 . S
C642 H612 0.950 . S
C642 C641 1.524 . S
C642 C643 1.415 . S
C643 H613 0.950 . S
C643 C638 1.363 . S
C643 C642 1.415 . S
H644 C641 0.999 . S
H645 C626 0.913 . S
H646 C664 0.951 . S
H647 C666 0.951 . S
H648 C668 0.950 1_545 S
H649 C669 0.950 . S
H650 C671 0.950 . S
H651 C674 0.950 . S
H652 C675 0.950 . S
H653 C677 0.950 . S
H654 C678 0.950 . S
H655 C679 0.951 . S
H656 C681 0.951 . S
H657 C683 0.950 1_565 S
H658 C684 0.950 . S
H659 C686 0.950 . S
H660 C689 0.950 . S
H661 C690 0.950 . S
H662 C692 0.950 . S
H663 C693 0.950 . S
C664 H646 0.951 . S
C664 C665 1.366 . S
C664 C666 1.388 . S
C665 C664 1.366 . S
C665 C669 1.385 . S
C666 H647 0.951 . S
C666 C664 1.388 . S
C666 C667 1.366 . S
C667 C666 1.366 . S
C667 C668 1.414 . S
C667 C670 1.499 . S
C668 H648 0.950 1_565 S
C668 C667 1.414 . S
C668 C669 1.374 . S
C669 H649 0.950 . S
C669 C665 1.385 . S
C669 C668 1.374 . S
C670 C667 1.499 . S
C670 C671 1.373 1_565 S
C670 C672 1.389 . S
C671 H650 0.950 . S
C671 C670 1.373 1_545 S
C671 C687 1.377 . S
C672 C670 1.389 . S
C672 C673 1.524 . S
C672 C686 1.377 . S
C673 C672 1.524 . S
C673 C674 1.397 . S
C673 C678 1.363 . S
C674 H651 0.950 . S
C674 C673 1.397 . S
C674 C675 1.334 . S
C675 H652 0.950 . S
C675 C674 1.334 . S
C675 C676 1.287 . S
C676 C675 1.287 . S
C676 C677 1.524 . S
C676 H695 0.913 . S
C677 H653 0.950 . S
C677 C676 1.524 . S
C677 C678 1.415 . S
C678 H654 0.950 . S
C678 C673 1.363 . S
C678 C677 1.415 . S
C679 H655 0.951 . S
C679 C680 1.366 . S
C679 C681 1.388 . S
C680 C679 1.366 . S
C680 C684 1.385 . S
C681 H656 0.951 . S
C681 C679 1.388 . S
C681 C682 1.366 . S
C682 C681 1.366 . S
C682 C683 1.414 . S
C682 C685 1.499 . S
C683 H657 0.950 1_545 S
C683 C682 1.414 . S
C683 C684 1.374 . S
C684 H658 0.950 . S
C684 C680 1.385 . S
C684 C683 1.374 . S
C685 C682 1.499 . S
C685 C686 1.373 1_545 S
C685 C687 1.389 . S
C686 H659 0.950 . S
C686 C672 1.377 . S
C686 C685 1.373 1_565 S
C687 C671 1.377 . S
C687 C685 1.389 . S
C687 C688 1.524 . S
C688 C687 1.524 . S
C688 C689 1.397 . S
C688 C693 1.363 . S
C689 H660 0.950 . S
C689 C688 1.397 . S
C689 C690 1.334 . S
C690 H661 0.950 . S
C690 C689 1.334 . S
C690 C691 1.287 . S
C691 C690 1.287 . S
C691 C692 1.524 . S
C691 H694 0.999 . S
C692 H662 0.950 . S
C692 C691 1.524 . S
C692 C693 1.415 . S
C693 H663 0.950 . S
C693 C688 1.363 . S
C693 C692 1.415 . S
H694 C691 0.999 . S
H695 C676 0.913 . S
H696 C714 0.951 . S
H697 C716 0.951 1_545 S
H698 C718 0.950 . S
H699 C719 0.950 . S
H700 C721 0.958 . S
H701 C724 0.950 1_565 S
H702 C725 0.950 . S
H703 C727 0.950 . S
H704 C728 0.950 . S
H705 C729 0.951 . S
H706 C731 0.951 1_565 S
H707 C733 0.950 . S
H708 C734 0.950 . S
H709 C736 0.958 . S
H710 C739 0.950 1_545 S
H711 C740 0.950 . S
H712 C742 0.950 . S
H713 C743 0.950 . S
C714 H696 0.951 . S
C714 C715 1.366 . S
C714 C716 1.388 . S
C715 C714 1.366 . S
C715 C719 1.385 . S
C716 H697 0.951 1_565 S
C716 C714 1.388 . S
C716 C717 1.366 . S
C717 C716 1.366 . S
C717 C718 1.414 . S
C717 C720 1.499 . S
C718 H698 0.950 . S
C718 C717 1.414 . S
C718 C719 1.374 . S
C719 H699 0.950 . S
C719 C715 1.385 . S
C719 C718 1.374 . S
C720 C717 1.499 . S
C720 C721 1.441 . S
C720 C722 1.389 1_565 S
C721 H700 0.958 . S
C721 C720 1.441 . S
C721 C737 1.306 1_556 S
C722 C720 1.389 1_545 S
C722 C723 1.524 . S
C722 C736 1.306 1_556 S
C723 C722 1.524 . S
C723 C724 1.397 . S
C723 C728 1.363 . S
C724 H701 0.950 1_545 S
C724 C723 1.397 . S
C724 C725 1.334 . S
C725 H702 0.950 . S
C725 C724 1.334 . S
C725 C726 1.287 . S
C726 C725 1.287 . S
C726 C727 1.524 . S
C726 H745 0.913 . S
C727 H703 0.950 . S
C727 C726 1.524 . S
C727 C728 1.415 . S
C728 H704 0.950 . S
C728 C723 1.363 . S
C728 C727 1.415 . S
C729 H705 0.951 . S
C729 C730 1.366 . S
C729 C731 1.388 . S
C730 C729 1.366 . S
C730 C734 1.385 . S
C731 H706 0.951 1_545 S
C731 C729 1.388 . S
C731 C732 1.366 . S
C732 C731 1.366 . S
C732 C733 1.414 . S
C732 C735 1.499 . S
C733 H707 0.950 . S
C733 C732 1.414 . S
C733 C734 1.374 . S
C734 H708 0.950 . S
C734 C730 1.385 . S
C734 C733 1.374 . S
C735 C732 1.499 . S
C735 C736 1.441 . S
C735 C737 1.389 1_545 S
C736 H709 0.958 . S
C736 C722 1.306 1_554 S
C736 C735 1.441 . S
C737 C721 1.306 1_554 S
C737 C735 1.389 1_565 S
C737 C738 1.524 . S
C738 C737 1.524 . S
C738 C739 1.397 . S
C738 C743 1.363 . S
C739 H710 0.950 1_565 S
C739 C738 1.397 . S
C739 C740 1.334 . S
C740 H711 0.950 . S
C740 C739 1.334 . S
C740 C741 1.287 . S
C741 C740 1.287 . S
C741 C742 1.524 . S
C741 H744 0.999 . S
C742 H712 0.950 . S
C742 C741 1.524 . S
C742 C743 1.415 . S
C743 H713 0.950 . S
C743 C738 1.363 . S
C743 C742 1.415 . S
H744 C741 0.999 . S
H745 C726 0.913 . S
H746 C764 0.951 . S
H747 C766 0.951 . S
H748 C768 0.950 . S
H749 C769 0.950 . S
H750 C771 0.950 . S
H751 C774 0.950 . S
H752 C775 0.950 . S
H753 C777 0.950 . S
H754 C778 0.950 . S
H755 C779 0.951 . S
H756 C781 0.951 . S
H757 C783 0.950 . S
H758 C784 0.950 . S
H759 C786 0.950 . S
H760 C789 0.950 . S
H761 C790 0.950 . S
H762 C792 0.950 . S
H763 C793 0.950 . S
C764 H746 0.951 . S
C764 C765 1.366 . S
C764 C766 1.388 . S
C765 C764 1.366 . S
C765 C769 1.385 . S
C766 H747 0.951 . S
C766 C764 1.388 . S
C766 C767 1.366 . S
C767 C766 1.366 . S
C767 C768 1.414 . S
C767 C770 1.499 . S
C768 H748 0.950 . S
C768 C767 1.414 . S
C768 C769 1.374 . S
C769 H749 0.950 . S
C769 C765 1.385 . S
C769 C768 1.374 . S
C770 C767 1.499 . S
C770 C771 1.373 . S
C770 C772 1.389 . S
C771 H750 0.950 . S
C771 C770 1.373 . S
C771 C787 1.377 . S
C772 C770 1.389 . S
C772 C773 1.524 . S
C772 C786 1.377 . S
C773 C772 1.524 . S
C773 C774 1.397 . S
C773 C778 1.363 . S
C774 H751 0.950 . S
C774 C773 1.397 . S
C774 C775 1.334 . S
C775 H752 0.950 . S
C775 C774 1.334 . S
C775 C776 1.287 . S
C776 C775 1.287 . S
C776 C777 1.524 . S
C776 H795 0.913 . S
C777 H753 0.950 . S
C777 C776 1.524 . S
C777 C778 1.415 . S
C778 H754 0.950 . S
C778 C773 1.363 . S
C778 C777 1.415 . S
C779 H755 0.951 . S
C779 C780 1.366 . S
C779 C781 1.388 . S
C780 C779 1.366 . S
C780 C784 1.385 . S
C781 H756 0.951 . S
C781 C779 1.388 . S
C781 C782 1.366 . S
C782 C781 1.366 . S
C782 C783 1.414 . S
C782 C785 1.499 . S
C783 H757 0.950 . S
C783 C782 1.414 . S
C783 C784 1.374 . S
C784 H758 0.950 . S
C784 C780 1.385 . S
C784 C783 1.374 . S
C785 C782 1.499 . S
C785 C786 1.373 . S
C785 C787 1.389 . S
C786 H759 0.950 . S
C786 C772 1.377 . S
C786 C785 1.373 . S
C787 C771 1.377 . S
C787 C785 1.389 . S
C787 C788 1.524 . S
C788 C787 1.524 . S
C788 C789 1.397 . S
C788 C793 1.363 . S
C789 H760 0.950 . S
C789 C788 1.397 . S
C789 C790 1.334 . S
C790 H761 0.950 . S
C790 C789 1.334 . S
C790 C791 1.287 . S
C791 C790 1.287 . S
C791 C792 1.524 . S
C791 H794 0.999 . S
C792 H762 0.950 . S
C792 C791 1.524 . S
C792 C793 1.415 . S
C793 H763 0.950 . S
C793 C788 1.363 . S
C793 C792 1.415 . S
H794 C791 0.999 . S
H795 C776 0.913 . S
H796 C814 0.951 . S
H797 C816 0.951 1_655 S
H798 C818 0.950 . S
H799 C819 0.950 . S
H800 C821 0.950 . S
H801 C824 0.950 . S
H802 C825 0.950 . S
H803 C827 0.950 . S
H804 C828 0.950 . S
H805 C829 0.951 . S
H806 C831 0.951 1_455 S
H807 C833 0.950 . S
H808 C834 0.950 . S
H809 C836 0.950 . S
H810 C839 0.950 . S
H811 C840 0.950 . S
H812 C842 0.950 . S
H813 C843 0.950 . S
C814 H796 0.951 . S
C814 C815 1.366 . S
C814 C816 1.388 . S
C815 C814 1.366 . S
C815 C819 1.385 . S
C816 H797 0.951 1_455 S
C816 C814 1.388 . S
C816 C817 1.366 . S
C817 C816 1.366 . S
C817 C818 1.414 . S
C817 C820 1.499 . S
C818 H798 0.950 . S
C818 C817 1.414 . S
C818 C819 1.374 . S
C819 H799 0.950 . S
C819 C815 1.385 . S
C819 C818 1.374 . S
C820 C817 1.499 . S
C820 C821 1.373 . S
C820 C822 1.389 1_455 S
C821 H800 0.950 . S
C821 C820 1.373 . S
C821 C837 1.377 . S
C822 C820 1.389 1_655 S
C822 C823 1.524 . S
C822 C836 1.377 . S
C823 C822 1.524 . S
C823 C824 1.397 1_655 S
C823 C828 1.363 . S
C824 H801 0.950 . S
C824 C823 1.397 1_455 S
C824 C825 1.334 . S
C825 H802 0.950 . S
C825 C824 1.334 . S
C825 C826 1.287 1_455 S
C826 C825 1.287 1_655 S
C826 C827 1.524 . S
C826 H845 0.913 . S
C827 H803 0.950 . S
C827 C826 1.524 . S
C827 C828 1.415 . S
C828 H804 0.950 . S
C828 C823 1.363 . S
C828 C827 1.415 . S
C829 H805 0.951 . S
C829 C830 1.366 . S
C829 C831 1.388 . S
C830 C829 1.366 . S
C830 C834 1.385 . S
C831 H806 0.951 1_655 S
C831 C829 1.388 . S
C831 C832 1.366 . S
C832 C831 1.366 . S
C832 C833 1.414 . S
C832 C835 1.499 . S
C833 H807 0.950 . S
C833 C832 1.414 . S
C833 C834 1.374 . S
C834 H808 0.950 . S
C834 C830 1.385 . S
C834 C833 1.374 . S
C835 C832 1.499 . S
C835 C836 1.373 . S
C835 C837 1.389 1_655 S
C836 H809 0.950 . S
C836 C822 1.377 . S
C836 C835 1.373 . S
C837 C821 1.377 . S
C837 C835 1.389 1_455 S
C837 C838 1.524 . S
C838 C837 1.524 . S
C838 C839 1.397 1_455 S
C838 C843 1.363 . S
C839 H810 0.950 . S
C839 C838 1.397 1_655 S
C839 C840 1.334 . S
C840 H811 0.950 . S
C840 C839 1.334 . S
C840 C841 1.287 1_655 S
C841 C840 1.287 1_455 S
C841 C842 1.524 . S
C841 H844 0.999 . S
C842 H812 0.950 . S
C842 C841 1.524 . S
C842 C843 1.415 . S
C843 H813 0.950 . S
C843 C838 1.363 . S
C843 C842 1.415 . S
H844 C841 0.999 . S
H845 C826 0.913 . S
H846 C864 0.951 . S
H847 C866 0.951 1_545 S
H848 C868 0.950 . S
H849 C869 0.950 . S
H850 C871 0.950 . S
H851 C874 0.950 . S
H852 C875 0.950 . S
H853 C877 0.950 . S
H854 C878 0.950 . S
H855 C879 0.951 . S
H856 C881 0.951 1_565 S
H857 C883 0.950 . S
H858 C884 0.950 . S
H859 C886 0.950 . S
H860 C889 0.950 . S
H861 C890 0.950 . S
H862 C892 0.950 . S
H863 C893 0.950 . S
C864 H846 0.951 . S
C864 C865 1.366 . S
C864 C866 1.388 . S
C865 C864 1.366 . S
C865 C869 1.385 . S
C866 H847 0.951 1_565 S
C866 C864 1.388 . S
C866 C867 1.366 . S
C867 C866 1.366 . S
C867 C868 1.414 . S
C867 C870 1.499 . S
C868 H848 0.950 . S
C868 C867 1.414 . S
C868 C869 1.374 . S
C869 H849 0.950 . S
C869 C865 1.385 . S
C869 C868 1.374 . S
C870 C867 1.499 . S
C870 C871 1.373 . S
C870 C872 1.389 1_565 S
C871 H850 0.950 . S
C871 C870 1.373 . S
C871 C887 1.377 1_554 S
C872 C870 1.389 1_545 S
C872 C873 1.524 . S
C872 C886 1.377 1_554 S
C873 C872 1.524 . S
C873 C874 1.397 1_545 S
C873 C878 1.363 . S
C874 H851 0.950 . S
C874 C873 1.397 1_565 S
C874 C875 1.334 . S
C875 H852 0.950 . S
C875 C874 1.334 . S
C875 C876 1.266 1_565 S
C876 C875 1.266 1_545 S
C876 C877 1.537 . S
C876 H895 0.922 1_545 S
C877 H853 0.950 . S
C877 C876 1.537 . S
C877 C878 1.415 . S
C878 H854 0.950 . S
C878 C873 1.363 . S
C878 C877 1.415 . S
C879 H855 0.951 . S
C879 C880 1.366 . S
C879 C881 1.388 . S
C880 C879 1.366 . S
C880 C884 1.385 . S
C881 H856 0.951 1_545 S
C881 C879 1.388 . S
C881 C882 1.366 . S
C882 C881 1.366 . S
C882 C883 1.414 . S
C882 C885 1.499 . S
C883 H857 0.950 . S
C883 C882 1.414 . S
C883 C884 1.374 . S
C884 H858 0.950 . S
C884 C880 1.385 . S
C884 C883 1.374 . S
C885 C882 1.499 . S
C885 C886 1.373 . S
C885 C887 1.389 1_545 S
C886 H859 0.950 . S
C886 C872 1.377 1_556 S
C886 C885 1.373 . S
C887 C871 1.377 1_556 S
C887 C885 1.389 1_565 S
C887 C888 1.524 . S
C888 C887 1.524 . S
C888 C889 1.397 1_565 S
C888 C893 1.363 . S
C889 H860 0.950 . S
C889 C888 1.397 1_545 S
C889 C890 1.334 . S
C890 H861 0.950 . S
C890 C889 1.334 . S
C890 C891 1.265 1_545 S
C891 C890 1.265 1_565 S
C891 C892 1.538 . S
C891 H894 1.010 . S
C892 H862 0.950 . S
C892 C891 1.538 . S
C892 C893 1.415 . S
C893 H863 0.950 . S
C893 C888 1.363 . S
C893 C892 1.415 . S
H894 C891 1.010 . S
H895 C876 0.922 1_565 S
H896 C914 0.951 . S
H897 C916 0.951 . S
H898 C918 0.950 . S
H899 C919 0.950 . S
H900 C921 0.950 . S
H901 C924 0.950 . S
H902 C925 0.950 . S
H903 C927 0.950 . S
H904 C928 0.950 . S
H905 C929 0.951 . S
H906 C931 0.951 . S
H907 C933 0.950 . S
H908 C934 0.950 . S
H909 C936 0.950 . S
H910 C939 0.950 . S
H911 C940 0.950 . S
H912 C942 0.950 . S
H913 C943 0.950 . S
C914 H896 0.951 . S
C914 C915 1.366 . S
C914 C916 1.388 . S
C915 C914 1.366 . S
C915 C919 1.385 . S
C916 H897 0.951 . S
C916 C914 1.388 . S
C916 C917 1.366 . S
C917 C916 1.366 . S
C917 C918 1.414 . S
C917 C920 1.499 . S
C918 H898 0.950 . S
C918 C917 1.414 . S
C918 C919 1.374 . S
C919 H899 0.950 . S
C919 C915 1.385 . S
C919 C918 1.374 . S
C920 C917 1.499 . S
C920 C921 1.373 . S
C920 C922 1.389 . S
C921 H900 0.950 . S
C921 C920 1.373 . S
C921 C937 1.377 . S
C922 C920 1.389 . S
C922 C923 1.524 . S
C922 C936 1.377 . S
C923 C922 1.524 . S
C923 C924 1.397 . S
C923 C928 1.363 . S
C924 H901 0.950 . S
C924 C923 1.397 . S
C924 C925 1.334 . S
C925 H902 0.950 . S
C925 C924 1.334 . S
C925 C926 1.287 . S
C926 C925 1.287 . S
C926 C927 1.524 . S
C926 H945 0.913 . S
C927 H903 0.950 . S
C927 C926 1.524 . S
C927 C928 1.415 . S
C928 H904 0.950 . S
C928 C923 1.363 . S
C928 C927 1.415 . S
C929 H905 0.951 . S
C929 C930 1.366 . S
C929 C931 1.388 . S
C930 C929 1.366 . S
C930 C934 1.385 . S
C931 H906 0.951 . S
C931 C929 1.388 . S
C931 C932 1.366 . S
C932 C931 1.366 . S
C932 C933 1.414 . S
C932 C935 1.499 . S
C933 H907 0.950 . S
C933 C932 1.414 . S
C933 C934 1.374 . S
C934 H908 0.950 . S
C934 C930 1.385 . S
C934 C933 1.374 . S
C935 C932 1.499 . S
C935 C936 1.373 . S
C935 C937 1.389 . S
C936 H909 0.950 . S
C936 C922 1.377 . S
C936 C935 1.373 . S
C937 C921 1.377 . S
C937 C935 1.389 . S
C937 C938 1.524 . S
C938 C937 1.524 . S
C938 C939 1.397 . S
C938 C943 1.363 . S
C939 H910 0.950 . S
C939 C938 1.397 . S
C939 C940 1.334 . S
C940 H911 0.950 . S
C940 C939 1.334 . S
C940 C941 1.287 . S
C941 C940 1.287 . S
C941 C942 1.524 . S
C941 H944 0.999 . S
C942 H912 0.950 . S
C942 C941 1.524 . S
C942 C943 1.415 . S
C943 H913 0.950 . S
C943 C938 1.363 . S
C943 C942 1.415 . S
H944 C941 0.999 . S
H945 C926 0.913 . S
H946 C964 0.951 . S
H947 C966 0.951 . S
H948 C968 0.950 . S
H949 C969 0.950 . S
H950 C971 0.950 . S
H951 C974 0.950 . S
H952 C975 0.950 . S
H953 C977 0.950 . S
H954 C978 0.950 . S
H955 C979 0.951 . S
H956 C981 0.951 . S
H957 C983 0.950 . S
H958 C984 0.950 . S
H959 C986 0.950 . S
H960 C989 0.950 . S
H961 C990 0.950 . S
H962 C992 0.950 . S
H963 C993 0.950 . S
C964 H946 0.951 . S
C964 C965 1.366 . S
C964 C966 1.388 . S
C965 C964 1.366 . S
C965 C969 1.385 . S
C966 H947 0.951 . S
C966 C964 1.388 . S
C966 C967 1.366 . S
C967 C966 1.366 . S
C967 C968 1.414 . S
C967 C970 1.499 . S
C968 H948 0.950 . S
C968 C967 1.414 . S
C968 C969 1.374 . S
C969 H949 0.950 . S
C969 C965 1.385 . S
C969 C968 1.374 . S
C970 C967 1.499 . S
C970 C971 1.373 1_455 S
C970 C972 1.389 . S
C971 H950 0.950 . S
C971 C970 1.373 1_655 S
C971 C987 1.377 . S
C972 C970 1.389 . S
C972 C973 1.524 . S
C972 C986 1.377 . S
C973 C972 1.524 . S
C973 C974 1.397 . S
C973 C978 1.363 . S
C974 H951 0.950 . S
C974 C973 1.397 . S
C974 C975 1.334 . S
C975 H952 0.950 . S
C975 C974 1.334 . S
C975 C976 1.287 . S
C976 C975 1.287 . S
C976 C977 1.524 . S
C976 H995 0.913 . S
C977 H953 0.950 . S
C977 C976 1.524 . S
C977 C978 1.415 . S
C978 H954 0.950 . S
C978 C973 1.363 . S
C978 C977 1.415 . S
C979 H955 0.951 . S
C979 C980 1.366 . S
C979 C981 1.388 . S
C980 C979 1.366 . S
C980 C984 1.385 . S
C981 H956 0.951 . S
C981 C979 1.388 . S
C981 C982 1.366 . S
C982 C981 1.366 . S
C982 C983 1.414 . S
C982 C985 1.499 . S
C983 H957 0.950 . S
C983 C982 1.414 . S
C983 C984 1.374 . S
C984 H958 0.950 . S
C984 C980 1.385 . S
C984 C983 1.374 . S
C985 C982 1.499 . S
C985 C986 1.373 1_655 S
C985 C987 1.389 . S
C986 H959 0.950 . S
C986 C972 1.377 . S
C986 C985 1.373 1_455 S
C987 C971 1.377 . S
C987 C985 1.389 . S
C987 C988 1.524 . S
C988 C987 1.524 . S
C988 C989 1.397 . S
C988 C993 1.363 . S
C989 H960 0.950 . S
C989 C988 1.397 . S
C989 C990 1.334 . S
C990 H961 0.950 . S
C990 C989 1.334 . S
C990 C991 1.287 . S
C991 C990 1.287 . S
C991 C992 1.524 . S
C991 H994 0.999 . S
C992 H962 0.950 . S
C992 C991 1.524 . S
C992 C993 1.415 . S
C993 H963 0.950 . S
C993 C988 1.363 . S
C993 C992 1.415 . S
H994 C991 0.999 . S
H995 C976 0.913 . S
H996 C1014 0.951 . S
H997 C1016 0.951 . S
H998 C1018 0.950 . S
H999 C1019 0.950 . S
H1000 C1021 0.950 . S
H1001 C1024 0.950 . S
H1002 C1025 0.950 . S
H1003 C1027 0.950 . S
H1004 C1028 0.950 1_655 S
H1005 C1029 0.951 . S
H1006 C1031 0.951 . S
H1007 C1033 0.950 . S
H1008 C1034 0.950 . S
H1009 C1036 0.950 . S
H1010 C1039 0.950 . S
H1011 C1040 0.950 . S
H1012 C1042 0.950 . S
H1013 C1043 0.950 1_455 S
C1014 H996 0.951 . S
C1014 C1015 1.366 . S
C1014 C1016 1.388 . S
C1015 C1014 1.366 . S
C1015 C1019 1.385 . S
C1016 H997 0.951 . S
C1016 C1014 1.388 . S
C1016 C1017 1.366 . S
C1017 C1016 1.366 . S
C1017 C1018 1.414 . S
C1017 C1020 1.499 . S
C1018 H998 0.950 . S
C1018 C1017 1.414 . S
C1018 C1019 1.374 . S
C1019 H999 0.950 . S
C1019 C1015 1.385 . S
C1019 C1018 1.374 . S
C1020 C1017 1.499 . S
C1020 C1021 1.373 1_545 S
C1020 C1022 1.389 . S
C1021 H1000 0.950 . S
C1021 C1020 1.373 1_565 S
C1021 C1037 1.377 1_455 S
C1022 C1020 1.389 . S
C1022 C1023 1.524 . S
C1022 C1036 1.377 1_455 S
C1023 C1022 1.524 . S
C1023 C1024 1.397 . S
C1023 C1028 1.363 . S
C1024 H1001 0.950 . S
C1024 C1023 1.397 . S
C1024 C1025 1.334 . S
C1025 H1002 0.950 . S
C1025 C1024 1.334 . S
C1025 C1026 1.287 . S
C1026 C1025 1.287 . S
C1026 C1027 1.524 . S
C1026 H1045 0.913 . S
C1027 H1003 0.950 . S
C1027 C1026 1.524 . S
C1027 C1028 1.415 . S
C1028 H1004 0.950 1_455 S
C1028 C1023 1.363 . S
C1028 C1027 1.415 . S
C1029 H1005 0.951 . S
C1029 C1030 1.366 . S
C1029 C1031 1.388 . S
C1030 C1029 1.366 . S
C1030 C1034 1.385 . S
C1031 H1006 0.951 . S
C1031 C1029 1.388 . S
C1031 C1032 1.366 . S
C1032 C1031 1.366 . S
C1032 C1033 1.414 . S
C1032 C1035 1.499 . S
C1033 H1007 0.950 . S
C1033 C1032 1.414 . S
C1033 C1034 1.374 . S
C1034 H1008 0.950 . S
C1034 C1030 1.385 . S
C1034 C1033 1.374 . S
C1035 C1032 1.499 . S
C1035 C1036 1.373 1_565 S
C1035 C1037 1.389 . S
C1036 H1009 0.950 . S
C1036 C1022 1.377 1_655 S
C1036 C1035 1.373 1_545 S
C1037 C1021 1.377 1_655 S
C1037 C1035 1.389 . S
C1037 C1038 1.524 . S
C1038 C1037 1.524 . S
C1038 C1039 1.397 . S
C1038 C1043 1.363 . S
C1039 H1010 0.950 . S
C1039 C1038 1.397 . S
C1039 C1040 1.334 . S
C1040 H1011 0.950 . S
C1040 C1039 1.334 . S
C1040 C1041 1.287 . S
C1041 C1040 1.287 . S
C1041 C1042 1.524 . S
C1041 H1044 0.999 . S
C1042 H1012 0.950 . S
C1042 C1041 1.524 . S
C1042 C1043 1.415 . S
C1043 H1013 0.950 1_655 S
C1043 C1038 1.363 . S
C1043 C1042 1.415 . S
H1044 C1041 0.999 . S
H1045 C1026 0.913 . S
H1046 C1064 0.951 . S
H1047 C1066 0.951 . S
H1048 C1068 0.950 1_655 S
H1049 C1069 0.950 . S
H1050 C1071 0.950 . S
H1051 C1074 0.950 . S
H1052 C1075 0.950 1_655 S
H1053 C1077 0.950 . S
H1054 C1078 0.950 . S
H1055 C1079 0.951 . S
H1056 C1081 0.951 . S
H1057 C1083 0.950 1_455 S
H1058 C1084 0.950 . S
H1059 C1086 0.950 . S
H1060 C1089 0.950 . S
H1061 C1090 0.950 1_455 S
H1062 C1092 0.950 . S
H1063 C1093 0.950 . S
C1064 H1046 0.951 . S
C1064 C1065 1.366 . S
C1064 C1066 1.388 . S
C1065 C1064 1.366 . S
C1065 C1069 1.385 . S
C1066 H1047 0.951 . S
C1066 C1064 1.388 . S
C1066 C1067 1.366 . S
C1067 C1066 1.366 . S
C1067 C1068 1.414 . S
C1067 C1070 1.499 . S
C1068 H1048 0.950 1_455 S
C1068 C1067 1.414 . S
C1068 C1069 1.374 . S
C1069 H1049 0.950 . S
C1069 C1065 1.385 . S
C1069 C1068 1.374 . S
C1070 C1067 1.499 . S
C1070 C1071 1.373 . S
C1070 C1072 1.389 . S
C1071 H1050 0.950 . S
C1071 C1070 1.373 . S
C1071 C1087 1.377 1_445 S
C1072 C1070 1.389 . S
C1072 C1073 1.524 . S
C1072 C1086 1.377 1_445 S
C1073 C1072 1.524 . S
C1073 C1074 1.397 1_455 S
C1073 C1078 1.363 . S
C1074 H1051 0.950 . S
C1074 C1073 1.397 1_655 S
C1074 C1075 1.334 1_655 S
C1075 H1052 0.950 1_455 S
C1075 C1074 1.334 1_455 S
C1075 C1076 1.287 . S
C1076 C1075 1.287 . S
C1076 C1077 1.524 . S
C1076 H1095 0.913 . S
C1077 H1053 0.950 . S
C1077 C1076 1.524 . S
C1077 C1078 1.415 . S
C1078 H1054 0.950 . S
C1078 C1073 1.363 . S
C1078 C1077 1.415 . S
C1079 H1055 0.951 . S
C1079 C1080 1.366 . S
C1079 C1081 1.388 . S
C1080 C1079 1.366 . S
C1080 C1084 1.385 . S
C1081 H1056 0.951 . S
C1081 C1079 1.388 . S
C1081 C1082 1.366 . S
C1082 C1081 1.366 . S
C1082 C1083 1.414 . S
C1082 C1085 1.499 . S
C1083 H1057 0.950 1_655 S
C1083 C1082 1.414 . S
C1083 C1084 1.374 . S
C1084 H1058 0.950 . S
C1084 C1080 1.385 . S
C1084 C1083 1.374 . S
C1085 C1082 1.499 . S
C1085 C1086 1.373 . S
C1085 C1087 1.389 . S
C1086 H1059 0.950 . S
C1086 C1072 1.377 1_665 S
C1086 C1085 1.373 . S
C1087 C1071 1.377 1_665 S
C1087 C1085 1.389 . S
C1087 C1088 1.524 . S
C1088 C1087 1.524 . S
C1088 C1089 1.397 1_655 S
C1088 C1093 1.363 . S
C1089 H1060 0.950 . S
C1089 C1088 1.397 1_455 S
C1089 C1090 1.334 1_455 S
C1090 H1061 0.950 1_655 S
C1090 C1089 1.334 1_655 S
C1090 C1091 1.287 . S
C1091 C1090 1.287 . S
C1091 C1092 1.524 . S
C1091 H1094 0.999 . S
C1092 H1062 0.950 . S
C1092 C1091 1.524 . S
C1092 C1093 1.415 . S
C1093 H1063 0.950 . S
C1093 C1088 1.363 . S
C1093 C1092 1.415 . S
H1094 C1091 0.999 . S
H1095 C1076 0.913 . S
H1096 C1114 0.951 . S
H1097 C1116 0.951 . S
H1098 C1118 0.950 1_565 S
H1099 C1119 0.950 . S
H1100 C1121 0.950 . S
H1101 C1124 0.950 1_655 S
H1102 C1125 0.950 . S
H1103 C1127 0.950 . S
H1104 C1128 0.950 . S
H1105 C1129 0.951 . S
H1106 C1131 0.951 . S
H1107 C1133 0.950 1_545 S
H1108 C1134 0.950 . S
H1109 C1136 0.950 . S
H1110 C1139 0.950 1_455 S
H1111 C1140 0.950 . S
H1112 C1142 0.950 . S
H1113 C1143 0.950 . S
C1114 H1096 0.951 . S
C1114 C1115 1.366 . S
C1114 C1116 1.388 . S
C1115 C1114 1.366 . S
C1115 C1119 1.385 . S
C1116 H1097 0.951 . S
C1116 C1114 1.388 . S
C1116 C1117 1.366 . S
C1117 C1116 1.366 . S
C1117 C1118 1.414 . S
C1117 C1120 1.499 . S
C1118 H1098 0.950 1_545 S
C1118 C1117 1.414 . S
C1118 C1119 1.374 . S
C1119 H1099 0.950 . S
C1119 C1115 1.385 . S
C1119 C1118 1.374 . S
C1120 C1117 1.499 . S
C1120 C1121 1.373 1_545 S
C1120 C1122 1.389 1_655 S
C1121 H1100 0.950 . S
C1121 C1120 1.373 1_565 S
C1121 C1137 1.377 . S
C1122 C1120 1.389 1_455 S
C1122 C1123 1.524 . S
C1122 C1136 1.377 . S
C1123 C1122 1.524 . S
C1123 C1124 1.397 . S
C1123 C1128 1.363 . S
C1124 H1101 0.950 1_455 S
C1124 C1123 1.397 . S
C1124 C1125 1.334 . S
C1125 H1102 0.950 . S
C1125 C1124 1.334 . S
C1125 C1126 1.287 . S
C1126 C1125 1.287 . S
C1126 C1127 1.524 . S
C1126 H1145 0.913 . S
C1127 H1103 0.950 . S
C1127 C1126 1.524 . S
C1127 C1128 1.415 . S
C1128 H1104 0.950 . S
C1128 C1123 1.363 . S
C1128 C1127 1.415 . S
C1129 H1105 0.951 . S
C1129 C1130 1.366 . S
C1129 C1131 1.388 . S
C1130 C1129 1.366 . S
C1130 C1134 1.385 . S
C1131 H1106 0.951 . S
C1131 C1129 1.388 . S
C1131 C1132 1.366 . S
C1132 C1131 1.366 . S
C1132 C1133 1.414 . S
C1132 C1135 1.499 . S
C1133 H1107 0.950 1_565 S
C1133 C1132 1.414 . S
C1133 C1134 1.374 . S
C1134 H1108 0.950 . S
C1134 C1130 1.385 . S
C1134 C1133 1.374 . S
C1135 C1132 1.499 . S
C1135 C1136 1.373 1_565 S
C1135 C1137 1.389 1_455 S
C1136 H1109 0.950 . S
C1136 C1122 1.377 . S
C1136 C1135 1.373 1_545 S
C1137 C1121 1.377 . S
C1137 C1135 1.389 1_655 S
C1137 C1138 1.524 . S
C1138 C1137 1.524 . S
C1138 C1139 1.397 . S
C1138 C1143 1.363 . S
C1139 H1110 0.950 1_655 S
C1139 C1138 1.397 . S
C1139 C1140 1.334 . S
C1140 H1111 0.950 . S
C1140 C1139 1.334 . S
C1140 C1141 1.287 . S
C1141 C1140 1.287 . S
C1141 C1142 1.524 . S
C1141 H1144 0.999 . S
C1142 H1112 0.950 . S
C1142 C1141 1.524 . S
C1142 C1143 1.415 . S
C1143 H1113 0.950 . S
C1143 C1138 1.363 . S
C1143 C1142 1.415 . S
H1144 C1141 0.999 . S
H1145 C1126 0.913 . S
H1146 C1164 0.951 . S
H1147 C1166 0.951 . S
H1148 C1168 0.950 . S
H1149 C1169 0.950 . S
H1150 C1171 0.950 . S
H1151 C1174 0.950 . S
H1152 C1175 0.950 . S
H1153 C1177 0.950 . S
H1154 C1178 0.950 . S
H1155 C1179 0.951 . S
H1156 C1181 0.951 . S
H1157 C1183 0.950 . S
H1158 C1184 0.950 . S
H1159 C1186 0.950 . S
H1160 C1189 0.950 . S
H1161 C1190 0.950 . S
H1162 C1192 0.950 . S
H1163 C1193 0.950 . S
C1164 H1146 0.951 . S
C1164 C1165 1.366 . S
C1164 C1166 1.388 . S
C1165 C1164 1.366 . S
C1165 C1169 1.385 . S
C1166 H1147 0.951 . S
C1166 C1164 1.388 . S
C1166 C1167 1.366 . S
C1167 C1166 1.366 . S
C1167 C1168 1.414 . S
C1167 C1170 1.499 . S
C1168 H1148 0.950 . S
C1168 C1167 1.414 . S
C1168 C1169 1.374 . S
C1169 H1149 0.950 . S
C1169 C1165 1.385 . S
C1169 C1168 1.374 . S
C1170 C1167 1.499 . S
C1170 C1171 1.373 . S
C1170 C1172 1.389 . S
C1171 H1150 0.950 . S
C1171 C1170 1.373 . S
C1171 C1187 1.377 1_665 S
C1172 C1170 1.389 . S
C1172 C1173 1.524 . S
C1172 C1186 1.377 1_665 S
C1173 C1172 1.524 . S
C1173 C1174 1.397 . S
C1173 C1178 1.363 1_655 S
C1174 H1151 0.950 . S
C1174 C1173 1.397 . S
C1174 C1175 1.334 . S
C1175 H1152 0.950 . S
C1175 C1174 1.334 . S
C1175 C1176 1.287 . S
C1176 C1175 1.287 . S
C1176 C1177 1.524 1_655 S
C1176 H1195 0.913 . S
C1177 H1153 0.950 . S
C1177 C1176 1.524 1_455 S
C1177 C1178 1.415 . S
C1178 H1154 0.950 . S
C1178 C1173 1.363 1_455 S
C1178 C1177 1.415 . S
C1179 H1155 0.951 . S
C1179 C1180 1.366 . S
C1179 C1181 1.388 . S
C1180 C1179 1.366 . S
C1180 C1184 1.385 . S
C1181 H1156 0.951 . S
C1181 C1179 1.388 . S
C1181 C1182 1.366 . S
C1182 C1181 1.366 . S
C1182 C1183 1.414 . S
C1182 C1185 1.499 . S
C1183 H1157 0.950 . S
C1183 C1182 1.414 . S
C1183 C1184 1.374 . S
C1184 H1158 0.950 . S
C1184 C1180 1.385 . S
C1184 C1183 1.374 . S
C1185 C1182 1.499 . S
C1185 C1186 1.373 . S
C1185 C1187 1.389 . S
C1186 H1159 0.950 . S
C1186 C1172 1.377 1_445 S
C1186 C1185 1.373 . S
C1187 C1171 1.377 1_445 S
C1187 C1185 1.389 . S
C1187 C1188 1.524 . S
C1188 C1187 1.524 . S
C1188 C1189 1.397 . S
C1188 C1193 1.363 1_455 S
C1189 H1160 0.950 . S
C1189 C1188 1.397 . S
C1189 C1190 1.334 . S
C1190 H1161 0.950 . S
C1190 C1189 1.334 . S
C1190 C1191 1.287 . S
C1191 C1190 1.287 . S
C1191 C1192 1.524 1_455 S
C1191 H1194 0.999 . S
C1192 H1162 0.950 . S
C1192 C1191 1.524 1_655 S
C1192 C1193 1.415 . S
C1193 H1163 0.950 . S
C1193 C1188 1.363 1_655 S
C1193 C1192 1.415 . S
H1194 C1191 0.999 . S
H1195 C1176 0.913 . S
H1196 C1214 0.951 . S
H1197 C1216 0.951 1_655 S
H1198 C1218 0.950 . S
H1199 C1219 0.950 . S
H1200 C1221 0.950 . S
H1201 C1224 0.950 . S
H1202 C1225 0.950 . S
H1203 C1227 0.950 . S
H1204 C1228 0.950 . S
H1205 C1229 0.951 . S
H1206 C1231 0.951 1_455 S
H1207 C1233 0.950 . S
H1208 C1234 0.950 . S
H1209 C1236 0.950 . S
H1210 C1239 0.950 . S
H1211 C1240 0.950 . S
H1212 C1242 0.950 . S
H1213 C1243 0.950 . S
C1214 H1196 0.951 . S
C1214 C1215 1.366 . S
C1214 C1216 1.388 . S
C1215 C1214 1.366 . S
C1215 C1219 1.385 . S
C1216 H1197 0.951 1_455 S
C1216 C1214 1.388 . S
C1216 C1217 1.366 . S
C1217 C1216 1.366 . S
C1217 C1218 1.414 . S
C1217 C1220 1.499 . S
C1218 H1198 0.950 . S
C1218 C1217 1.414 . S
C1218 C1219 1.374 . S
C1219 H1199 0.950 . S
C1219 C1215 1.385 . S
C1219 C1218 1.374 . S
C1220 C1217 1.499 . S
C1220 C1221 1.373 . S
C1220 C1222 1.402 . S
C1221 H1200 0.950 . S
C1221 C1220 1.373 . S
C1221 C1237 1.358 1_465 S
C1222 C1220 1.402 . S
C1222 C1223 1.530 . S
C1222 C1236 1.359 1_465 S
C1223 C1222 1.530 . S
C1223 C1224 1.397 . S
C1223 C1228 1.363 1_455 S
C1224 H1201 0.950 . S
C1224 C1223 1.397 . S
C1224 C1225 1.334 . S
C1225 H1202 0.950 . S
C1225 C1224 1.334 . S
C1225 C1226 1.287 . S
C1226 C1225 1.287 . S
C1226 C1227 1.524 1_455 S
C1226 H1245 0.913 . S
C1227 H1203 0.950 . S
C1227 C1226 1.524 1_655 S
C1227 C1228 1.415 . S
C1228 H1204 0.950 . S
C1228 C1223 1.363 1_655 S
C1228 C1227 1.415 . S
C1229 H1205 0.951 . S
C1229 C1230 1.366 . S
C1229 C1231 1.388 . S
C1230 C1229 1.366 . S
C1230 C1234 1.385 . S
C1231 H1206 0.951 1_655 S
C1231 C1229 1.388 . S
C1231 C1232 1.366 . S
C1232 C1231 1.366 . S
C1232 C1233 1.414 . S
C1232 C1235 1.499 . S
C1233 H1207 0.950 . S
C1233 C1232 1.414 . S
C1233 C1234 1.374 . S
C1234 H1208 0.950 . S
C1234 C1230 1.385 . S
C1234 C1233 1.374 . S
C1235 C1232 1.499 . S
C1235 C1236 1.373 . S
C1235 C1237 1.402 . S
C1236 H1209 0.950 . S
C1236 C1222 1.359 1_645 S
C1236 C1235 1.373 . S
C1237 C1221 1.358 1_645 S
C1237 C1235 1.402 . S
C1237 C1238 1.530 . S
C1238 C1237 1.530 . S
C1238 C1239 1.397 . S
C1238 C1243 1.363 1_655 S
C1239 H1210 0.950 . S
C1239 C1238 1.397 . S
C1239 C1240 1.334 . S
C1240 H1211 0.950 . S
C1240 C1239 1.334 . S
C1240 C1241 1.287 . S
C1241 C1240 1.287 . S
C1241 C1242 1.524 1_655 S
C1241 H1244 0.999 . S
C1242 H1212 0.950 . S
C1242 C1241 1.524 1_455 S
C1242 C1243 1.415 . S
C1243 H1213 0.950 . S
C1243 C1238 1.363 1_455 S
C1243 C1242 1.415 . S
H1244 C1241 0.999 . S
H1245 C1226 0.913 . S
H1246 C1264 0.951 . S
H1247 C1266 0.951 1_565 S
H1248 C1268 0.950 . S
H1249 C1269 0.950 . S
H1250 C1271 0.950 . S
H1251 C1274 0.950 . S
H1252 C1275 0.950 . S
H1253 C1277 0.950 . S
H1254 C1278 0.950 1_655 S
H1255 C1279 0.951 . S
H1256 C1281 0.951 1_545 S
H1257 C1283 0.950 . S
H1258 C1284 0.950 . S
H1259 C1286 0.950 . S
H1260 C1289 0.950 . S
H1261 C1290 0.950 . S
H1262 C1292 0.950 . S
H1263 C1293 0.950 1_455 S
C1264 H1246 0.951 . S
C1264 C1265 1.366 . S
C1264 C1266 1.388 . S
C1265 C1264 1.366 . S
C1265 C1269 1.385 . S
C1266 H1247 0.951 1_545 S
C1266 C1264 1.388 . S
C1266 C1267 1.366 . S
C1267 C1266 1.366 . S
C1267 C1268 1.414 . S
C1267 C1270 1.499 . S
C1268 H1248 0.950 . S
C1268 C1267 1.414 . S
C1268 C1269 1.374 . S
C1269 H1249 0.950 . S
C1269 C1265 1.385 . S
C1269 C1268 1.374 . S
C1270 C1267 1.499 . S
C1270 C1271 1.373 . S
C1270 C1272 1.389 1_545 S
C1271 H1250 0.950 . S
C1271 C1270 1.373 . S
C1271 C1287 1.377 1_455 S
C1272 C1270 1.389 1_565 S
C1272 C1273 1.524 . S
C1272 C1286 1.377 1_455 S
C1273 C1272 1.524 . S
C1273 C1274 1.397 . S
C1273 C1278 1.363 . S
C1274 H1251 0.950 . S
C1274 C1273 1.397 . S
C1274 C1275 1.334 . S
C1275 H1252 0.950 . S
C1275 C1274 1.334 . S
C1275 C1276 1.287 . S
C1276 C1275 1.287 . S
C1276 C1277 1.524 . S
C1276 H1295 0.913 . S
C1277 H1253 0.950 . S
C1277 C1276 1.524 . S
C1277 C1278 1.415 . S
C1278 H1254 0.950 1_455 S
C1278 C1273 1.363 . S
C1278 C1277 1.415 . S
C1279 H1255 0.951 . S
C1279 C1280 1.366 . S
C1279 C1281 1.388 . S
C1280 C1279 1.366 . S
C1280 C1284 1.385 . S
C1281 H1256 0.951 1_565 S
C1281 C1279 1.388 . S
C1281 C1282 1.366 . S
C1282 C1281 1.366 . S
C1282 C1283 1.414 . S
C1282 C1285 1.499 . S
C1283 H1257 0.950 . S
C1283 C1282 1.414 . S
C1283 C1284 1.374 . S
C1284 H1258 0.950 . S
C1284 C1280 1.385 . S
C1284 C1283 1.374 . S
C1285 C1282 1.499 . S
C1285 C1286 1.373 . S
C1285 C1287 1.389 1_565 S
C1286 H1259 0.950 . S
C1286 C1272 1.377 1_655 S
C1286 C1285 1.373 . S
C1287 C1271 1.377 1_655 S
C1287 C1285 1.389 1_545 S
C1287 C1288 1.524 . S
C1288 C1287 1.524 . S
C1288 C1289 1.397 . S
C1288 C1293 1.363 . S
C1289 H1260 0.950 . S
C1289 C1288 1.397 . S
C1289 C1290 1.334 . S
C1290 H1261 0.950 . S
C1290 C1289 1.334 . S
C1290 C1291 1.287 . S
C1291 C1290 1.287 . S
C1291 C1292 1.524 . S
C1291 H1294 0.999 . S
C1292 H1262 0.950 . S
C1292 C1291 1.524 . S
C1292 C1293 1.415 . S
C1293 H1263 0.950 1_655 S
C1293 C1288 1.363 . S
C1293 C1292 1.415 . S
H1294 C1291 0.999 . S
H1295 C1276 0.913 . S
H1296 C1314 0.951 . S
H1297 C1316 0.951 . S
H1298 C1318 0.950 . S
H1299 C1319 0.950 . S
H1300 C1321 0.950 . S
H1301 C1324 0.950 . S
H1302 C1325 0.950 . S
H1303 C1327 0.950 . S
H1304 C1328 0.950 . S
H1305 C1329 0.951 . S
H1306 C1331 0.951 . S
H1307 C1333 0.950 . S
H1308 C1334 0.950 . S
H1309 C1336 0.950 . S
H1310 C1339 0.950 . S
H1311 C1340 0.950 . S
H1312 C1342 0.950 . S
H1313 C1343 0.950 . S
C1314 H1296 0.951 . S
C1314 C1315 1.366 . S
C1314 C1316 1.388 . S
C1315 C1314 1.366 . S
C1315 C1319 1.385 1_655 S
C1316 H1297 0.951 . S
C1316 C1314 1.388 . S
C1316 C1317 1.366 1_655 S
C1317 C1316 1.366 1_455 S
C1317 C1318 1.414 . S
C1317 C1320 1.499 . S
C1318 H1298 0.950 . S
C1318 C1317 1.414 . S
C1318 C1319 1.374 . S
C1319 H1299 0.950 . S
C1319 C1315 1.385 1_455 S
C1319 C1318 1.374 . S
C1320 C1317 1.499 . S
C1320 C1321 1.373 . S
C1320 C1322 1.389 1_556 S
C1321 H1300 0.950 . S
C1321 C1320 1.373 . S
C1321 C1337 1.377 . S
C1322 C1320 1.389 1_554 S
C1322 C1323 1.524 . S
C1322 C1336 1.377 . S
C1323 C1322 1.524 . S
C1323 C1324 1.397 . S
C1323 C1328 1.363 . S
C1324 H1301 0.950 . S
C1324 C1323 1.397 . S
C1324 C1325 1.334 1_455 S
C1325 H1302 0.950 . S
C1325 C1324 1.334 1_655 S
C1325 C1326 1.287 . S
C1326 C1325 1.287 . S
C1326 C1327 1.524 . S
C1326 H1345 0.913 . S
C1327 H1303 0.950 . S
C1327 C1326 1.524 . S
C1327 C1328 1.415 1_655 S
C1328 H1304 0.950 . S
C1328 C1323 1.363 . S
C1328 C1327 1.415 1_455 S
C1329 H1305 0.951 . S
C1329 C1330 1.366 . S
C1329 C1331 1.388 . S
C1330 C1329 1.366 . S
C1330 C1334 1.385 . S
C1331 H1306 0.951 . S
C1331 C1329 1.388 . S
C1331 C1332 1.366 . S
C1332 C1331 1.366 . S
C1332 C1333 1.414 . S
C1332 C1335 1.499 . S
C1333 H1307 0.950 . S
C1333 C1332 1.414 . S
C1333 C1334 1.374 . S
C1334 H1308 0.950 . S
C1334 C1330 1.385 . S
C1334 C1333 1.374 . S
C1335 C1332 1.499 . S
C1335 C1336 1.373 . S
C1335 C1337 1.389 1_554 S
C1336 H1309 0.950 . S
C1336 C1322 1.377 . S
C1336 C1335 1.373 . S
C1337 C1321 1.377 . S
C1337 C1335 1.389 1_556 S
C1337 C1338 1.524 . S
C1338 C1337 1.524 . S
C1338 C1339 1.397 . S
C1338 C1343 1.363 . S
C1339 H1310 0.950 . S
C1339 C1338 1.397 . S
C1339 C1340 1.334 . S
C1340 H1311 0.950 . S
C1340 C1339 1.334 . S
C1340 C1341 1.287 . S
C1341 C1340 1.287 . S
C1341 C1342 1.524 . S
C1341 H1344 0.999 . S
C1342 H1312 0.950 . S
C1342 C1341 1.524 . S
C1342 C1343 1.415 . S
C1343 H1313 0.950 . S
C1343 C1338 1.363 . S
C1343 C1342 1.415 . S
H1344 C1341 0.999 . S
H1345 C1326 0.913 . S
H1346 C1364 0.951 . S
H1347 C1366 0.951 . S
H1348 C1368 0.950 . S
H1349 C1369 0.950 . S
H1350 C1371 0.950 . S
H1351 C1374 0.950 . S
H1352 C1375 0.950 . S
H1353 C1377 0.950 . S
H1354 C1378 0.950 . S
H1355 C1379 0.951 . S
H1356 C1381 0.951 . S
H1357 C1383 0.950 . S
H1358 C1384 0.950 . S
H1359 C1386 0.950 . S
H1360 C1389 0.950 . S
H1361 C1390 0.950 . S
H1362 C1392 0.950 . S
H1363 C1393 0.950 . S
C1364 H1346 0.951 . S
C1364 C1365 1.366 . S
C1364 C1366 1.388 1_455 S
C1365 C1364 1.366 . S
C1365 C1369 1.385 . S
C1366 H1347 0.951 . S
C1366 C1364 1.388 1_655 S
C1366 C1367 1.366 . S
C1367 C1366 1.366 . S
C1367 C1368 1.414 . S
C1367 C1370 1.499 . S
C1368 H1348 0.950 . S
C1368 C1367 1.414 . S
C1368 C1369 1.374 1_655 S
C1369 H1349 0.950 . S
C1369 C1365 1.385 . S
C1369 C1368 1.374 1_455 S
C1370 C1367 1.499 . S
C1370 C1371 1.373 . S
C1370 C1372 1.389 . S
C1371 H1350 0.950 . S
C1371 C1370 1.373 . S
C1371 C1387 1.377 . S
C1372 C1370 1.389 . S
C1372 C1373 1.524 . S
C1372 C1386 1.377 . S
C1373 C1372 1.524 . S
C1373 C1374 1.397 1_655 S
C1373 C1378 1.363 . S
C1374 H1351 0.950 . S
C1374 C1373 1.397 1_455 S
C1374 C1375 1.334 . S
C1375 H1352 0.950 . S
C1375 C1374 1.334 . S
C1375 C1376 1.287 . S
C1376 C1375 1.287 . S
C1376 C1377 1.524 1_455 S
C1376 H1395 0.913 . S
C1377 H1353 0.950 . S
C1377 C1376 1.524 1_655 S
C1377 C1378 1.415 . S
C1378 H1354 0.950 . S
C1378 C1373 1.363 . S
C1378 C1377 1.415 . S
C1379 H1355 0.951 . S
C1379 C1380 1.366 1_545 S
C1379 C1381 1.388 . S
C1380 C1379 1.366 1_565 S
C1380 C1384 1.385 . S
C1381 H1356 0.951 . S
C1381 C1379 1.388 . S
C1381 C1382 1.366 . S
C1382 C1381 1.366 . S
C1382 C1383 1.414 1_545 S
C1382 C1385 1.499 . S
C1383 H1357 0.950 . S
C1383 C1382 1.414 1_565 S
C1383 C1384 1.374 . S
C1384 H1358 0.950 . S
C1384 C1380 1.385 . S
C1384 C1383 1.374 . S
C1385 C1382 1.499 . S
C1385 C1386 1.373 . S
C1385 C1387 1.389 . S
C1386 H1359 0.950 . S
C1386 C1372 1.377 . S
C1386 C1385 1.373 . S
C1387 C1371 1.377 . S
C1387 C1385 1.389 . S
C1387 C1388 1.524 . S
C1388 C1387 1.524 . S
C1388 C1389 1.397 . S
C1388 C1393 1.363 . S
C1389 H1360 0.950 . S
C1389 C1388 1.397 . S
C1389 C1390 1.334 . S
C1390 H1361 0.950 . S
C1390 C1389 1.334 . S
C1390 C1391 1.287 . S
C1391 C1390 1.287 . S
C1391 C1392 1.524 . S
C1391 H1394 0.999 . S
C1392 H1362 0.950 . S
C1392 C1391 1.524 . S
C1392 C1393 1.415 . S
C1393 H1363 0.950 . S
C1393 C1388 1.363 . S
C1393 C1392 1.415 . S
H1394 C1391 0.999 . S
H1395 C1376 0.913 . S
H1396 C1414 0.951 . S
H1397 C1416 0.951 . S
H1398 C1418 0.950 . S
H1399 C1419 0.950 . S
H1400 C1421 0.950 . S
H1401 C1424 0.950 . S
H1402 C1425 0.950 . S
H1403 C1427 0.950 . S
H1404 C1428 0.950 . S
H1405 C1429 0.951 . S
H1406 C1431 0.951 . S
H1407 C1433 0.950 . S
H1408 C1434 0.950 . S
H1409 C1436 0.950 . S
H1410 C1439 0.950 . S
H1411 C1440 0.950 . S
H1412 C1442 0.950 . S
H1413 C1443 0.950 . S
C1414 H1396 0.951 . S
C1414 C1415 1.366 . S
C1414 C1416 1.388 . S
C1415 C1414 1.366 . S
C1415 C1419 1.385 . S
C1416 H1397 0.951 . S
C1416 C1414 1.388 . S
C1416 C1417 1.366 . S
C1417 C1416 1.366 . S
C1417 C1418 1.414 . S
C1417 C1420 1.499 . S
C1418 H1398 0.950 . S
C1418 C1417 1.414 . S
C1418 C1419 1.374 . S
C1419 H1399 0.950 . S
C1419 C1415 1.385 . S
C1419 C1418 1.374 . S
C1420 C1417 1.499 . S
C1420 C1421 1.373 . S
C1420 C1422 1.389 . S
C1421 H1400 0.950 . S
C1421 C1420 1.373 . S
C1421 C1437 1.377 . S
C1422 C1420 1.389 . S
C1422 C1423 1.524 . S
C1422 C1436 1.377 . S
C1423 C1422 1.524 . S
C1423 C1424 1.397 . S
C1423 C1428 1.363 . S
C1424 H1401 0.950 . S
C1424 C1423 1.397 . S
C1424 C1425 1.334 . S
C1425 H1402 0.950 . S
C1425 C1424 1.334 . S
C1425 C1426 1.287 . S
C1426 C1425 1.287 . S
C1426 C1427 1.524 . S
C1426 H1445 0.913 . S
C1427 H1403 0.950 . S
C1427 C1426 1.524 . S
C1427 C1428 1.415 . S
C1428 H1404 0.950 . S
C1428 C1423 1.363 . S
C1428 C1427 1.415 . S
C1429 H1405 0.951 . S
C1429 C1430 1.366 . S
C1429 C1431 1.388 1_545 S
C1430 C1429 1.366 . S
C1430 C1434 1.385 . S
C1431 H1406 0.951 . S
C1431 C1429 1.388 1_565 S
C1431 C1432 1.366 . S
C1432 C1431 1.366 . S
C1432 C1433 1.414 . S
C1432 C1435 1.499 . S
C1433 H1407 0.950 . S
C1433 C1432 1.414 . S
C1433 C1434 1.374 1_565 S
C1434 H1408 0.950 . S
C1434 C1430 1.385 . S
C1434 C1433 1.374 1_545 S
C1435 C1432 1.499 . S
C1435 C1436 1.373 . S
C1435 C1437 1.389 . S
C1436 H1409 0.950 . S
C1436 C1422 1.377 . S
C1436 C1435 1.373 . S
C1437 C1421 1.377 . S
C1437 C1435 1.389 . S
C1437 C1438 1.524 . S
C1438 C1437 1.524 . S
C1438 C1439 1.397 1_565 S
C1438 C1443 1.363 . S
C1439 H1410 0.950 . S
C1439 C1438 1.397 1_545 S
C1439 C1440 1.334 . S
C1440 H1411 0.950 . S
C1440 C1439 1.334 . S
C1440 C1441 1.287 . S
C1441 C1440 1.287 . S
C1441 C1442 1.524 . S
C1441 H1444 0.999 . S
C1442 H1412 0.950 . S
C1442 C1441 1.524 . S
C1442 C1443 1.415 1_545 S
C1443 H1413 0.950 . S
C1443 C1438 1.363 . S
C1443 C1442 1.415 1_565 S
H1444 C1441 0.999 . S
H1445 C1426 0.913 . S
H1446 C1464 0.951 . S
H1447 C1466 0.951 . S
H1448 C1468 0.950 . S
H1449 C1469 0.950 . S
H1450 C1471 0.950 . S
H1451 C1474 0.950 . S
H1452 C1475 0.950 . S
H1453 C1477 0.950 . S
H1454 C1478 0.950 . S
H1455 C1479 0.950 . S
H1456 C1481 0.951 . S
H1457 C1483 0.950 . S
H1458 C1484 0.950 . S
H1459 C1486 0.950 . S
H1460 C1489 0.950 . S
H1461 C1490 0.950 . S
H1462 C1492 0.950 . S
H1463 C1493 0.950 . S
C1464 H1446 0.951 . S
C1464 C1465 1.366 . S
C1464 C1466 1.388 . S
C1465 C1464 1.366 . S
C1465 C1469 1.385 . S
C1466 H1447 0.951 . S
C1466 C1464 1.388 . S
C1466 C1467 1.366 . S
C1467 C1466 1.366 . S
C1467 C1468 1.414 . S
C1467 C1470 1.499 . S
C1468 H1448 0.950 . S
C1468 C1467 1.414 . S
C1468 C1469 1.374 . S
C1469 H1449 0.950 . S
C1469 C1465 1.385 . S
C1469 C1468 1.374 . S
C1470 C1467 1.499 . S
C1470 C1471 1.373 1_554 S
C1470 C1472 1.389 . S
C1471 H1450 0.950 . S
C1471 C1470 1.373 1_556 S
C1471 C1487 1.377 . S
C1472 C1470 1.389 . S
C1472 C1473 1.524 . S
C1472 C1486 1.377 . S
C1473 C1472 1.524 . S
C1473 C1474 1.397 . S
C1473 C1478 1.363 . S
C1474 H1451 0.950 . S
C1474 C1473 1.397 . S
C1474 C1475 1.334 . S
C1475 H1452 0.950 . S
C1475 C1474 1.334 . S
C1475 C1476 1.287 . S
C1476 C1475 1.287 . S
C1476 C1477 1.524 . S
C1476 H1495 0.913 . S
C1477 H1453 0.950 . S
C1477 C1476 1.524 . S
C1477 C1478 1.415 . S
C1478 H1454 0.950 . S
C1478 C1473 1.363 . S
C1478 C1477 1.415 . S
C1479 H1455 0.950 . S
C1479 C1480 1.375 . S
C1479 C1481 1.379 1_455 S
C1480 C1479 1.375 . S
C1480 C1484 1.385 . S
C1481 H1456 0.951 . S
C1481 C1479 1.379 1_655 S
C1481 C1482 1.366 . S
C1482 C1481 1.366 . S
C1482 C1483 1.414 . S
C1482 C1485 1.499 . S
C1483 H1457 0.950 . S
C1483 C1482 1.414 . S
C1483 C1484 1.374 1_655 S
C1484 H1458 0.950 . S
C1484 C1480 1.385 . S
C1484 C1483 1.374 1_455 S
C1485 C1482 1.499 . S
C1485 C1486 1.373 1_556 S
C1485 C1487 1.389 . S
C1486 H1459 0.950 . S
C1486 C1472 1.377 . S
C1486 C1485 1.373 1_554 S
C1487 C1471 1.377 . S
C1487 C1485 1.389 . S
C1487 C1488 1.524 . S
C1488 C1487 1.524 . S
C1488 C1489 1.397 . S
C1488 C1493 1.363 . S
C1489 H1460 0.950 . S
C1489 C1488 1.397 . S
C1489 C1490 1.334 . S
C1490 H1461 0.950 . S
C1490 C1489 1.334 . S
C1490 C1491 1.287 . S
C1491 C1490 1.287 . S
C1491 C1492 1.524 . S
C1491 H1494 0.999 . S
C1492 H1462 0.950 . S
C1492 C1491 1.524 . S
C1492 C1493 1.415 . S
C1493 H1463 0.950 . S
C1493 C1488 1.363 . S
C1493 C1492 1.415 . S
H1494 C1491 0.999 . S
H1495 C1476 0.913 . S
H1496 C1514 0.951 . S
H1497 C1516 0.951 . S
H1498 C1518 0.950 1_545 S
H1499 C1519 0.950 . S
H1500 C1521 0.950 . S
H1501 C1524 0.950 . S
H1502 C1525 0.950 . S
H1503 C1527 0.950 . S
H1504 C1528 0.950 . S
H1505 C1529 0.951 . S
H1506 C1531 0.942 1_655 S
H1507 C1533 0.950 . S
H1508 C1534 0.950 . S
H1509 C1536 0.950 . S
H1510 C1539 0.950 . S
H1511 C1540 0.950 . S
H1512 C1542 0.950 . S
H1513 C1543 0.950 . S
C1514 H1496 0.951 . S
C1514 C1515 1.366 1_565 S
C1514 C1516 1.388 . S
C1515 C1514 1.366 1_545 S
C1515 C1519 1.385 . S
C1516 H1497 0.951 . S
C1516 C1514 1.388 . S
C1516 C1517 1.366 . S
C1517 C1516 1.366 . S
C1517 C1518 1.414 . S
C1517 C1520 1.499 . S
C1518 H1498 0.950 1_565 S
C1518 C1517 1.414 . S
C1518 C1519 1.374 1_565 S
C1519 H1499 0.950 . S
C1519 C1515 1.385 . S
C1519 C1518 1.374 1_545 S
C1520 C1517 1.499 . S
C1520 C1521 1.373 . S
C1520 C1522 1.389 . S
C1521 H1500 0.950 . S
C1521 C1520 1.373 . S
C1521 C1537 1.377 . S
C1522 C1520 1.389 . S
C1522 C1523 1.524 . S
C1522 C1536 1.377 . S
C1523 C1522 1.524 . S
C1523 C1524 1.397 . S
C1523 C1528 1.363 . S
C1524 H1501 0.950 . S
C1524 C1523 1.397 . S
C1524 C1525 1.334 . S
C1525 H1502 0.950 . S
C1525 C1524 1.334 . S
C1525 C1526 1.287 . S
C1526 C1525 1.287 . S
C1526 C1527 1.524 . S
C1526 H1545 0.913 . S
C1527 H1503 0.950 . S
C1527 C1526 1.524 . S
C1527 C1528 1.415 . S
C1528 H1504 0.950 . S
C1528 C1523 1.363 . S
C1528 C1527 1.415 . S
C1529 H1505 0.951 . S
C1529 C1530 1.366 . S
C1529 C1531 1.388 1_655 S
C1530 C1529 1.366 . S
C1530 C1534 1.385 1_655 S
C1531 H1506 0.942 1_455 S
C1531 C1529 1.388 1_455 S
C1531 C1532 1.366 . S
C1532 C1531 1.366 . S
C1532 C1533 1.414 . S
C1532 C1535 1.499 . S
C1533 H1507 0.950 . S
C1533 C1532 1.414 . S
C1533 C1534 1.374 . S
C1534 H1508 0.950 . S
C1534 C1530 1.385 1_455 S
C1534 C1533 1.374 . S
C1535 C1532 1.499 . S
C1535 C1536 1.373 . S
C1535 C1537 1.389 . S
C1536 H1509 0.950 . S
C1536 C1522 1.377 . S
C1536 C1535 1.373 . S
C1537 C1521 1.377 . S
C1537 C1535 1.389 . S
C1537 C1538 1.524 . S
C1538 C1537 1.524 . S
C1538 C1539 1.397 . S
C1538 C1543 1.363 . S
C1539 H1510 0.950 . S
C1539 C1538 1.397 . S
C1539 C1540 1.334 . S
C1540 H1511 0.950 . S
C1540 C1539 1.334 . S
C1540 C1541 1.287 . S
C1541 C1540 1.287 . S
C1541 C1542 1.524 . S
C1541 H1544 0.999 . S
C1542 H1512 0.950 . S
C1542 C1541 1.524 . S
C1542 C1543 1.415 . S
C1543 H1513 0.950 . S
C1543 C1538 1.363 . S
C1543 C1542 1.415 . S
H1544 C1541 0.999 . S
H1545 C1526 0.913 . S
H1546 C1564 0.951 . S
H1547 C1566 0.951 . S
H1548 C1568 0.950 . S
H1549 C1569 0.950 . S
H1550 C1571 0.950 . S
H1551 C1574 0.950 1_545 S
H1552 C1575 0.950 . S
H1553 C1577 0.950 . S
H1554 C1578 0.956 . S
H1555 C1579 0.951 . S
H1556 C1581 0.951 . S
H1557 C1583 0.950 . S
H1558 C1584 0.950 . S
H1559 C1586 0.950 . S
H1560 C1589 0.950 . S
H1561 C1590 0.950 . S
H1562 C1592 0.950 . S
H1563 C1593 0.950 . S
C1564 H1546 0.951 . S
C1564 C1565 1.366 . S
C1564 C1566 1.388 1_565 S
C1565 C1564 1.366 . S
C1565 C1569 1.385 1_565 S
C1566 H1547 0.951 . S
C1566 C1564 1.388 1_545 S
C1566 C1567 1.366 . S
C1567 C1566 1.366 . S
C1567 C1568 1.414 . S
C1567 C1570 1.499 . S
C1568 H1548 0.950 . S
C1568 C1567 1.414 . S
C1568 C1569 1.374 . S
C1569 H1549 0.950 . S
C1569 C1565 1.385 1_545 S
C1569 C1568 1.374 . S
C1570 C1567 1.499 . S
C1570 C1571 1.373 . S
C1570 C1572 1.389 . S
C1571 H1550 0.950 . S
C1571 C1570 1.373 . S
C1571 C1587 1.377 . S
C1572 C1570 1.389 . S
C1572 C1573 1.524 . S
C1572 C1586 1.377 . S
C1573 C1572 1.524 . S
C1573 C1574 1.397 1_545 S
C1573 C1578 1.362 . S
C1574 H1551 0.950 1_565 S
C1574 C1573 1.397 1_565 S
C1574 C1575 1.334 . S
C1575 H1552 0.950 . S
C1575 C1574 1.334 . S
C1575 C1576 1.287 . S
C1576 C1575 1.287 . S
C1576 C1577 1.524 . S
C1576 H1595 0.913 . S
C1577 H1553 0.950 . S
C1577 C1576 1.524 . S
C1577 C1578 1.411 1_565 S
C1578 H1554 0.956 . S
C1578 C1573 1.362 . S
C1578 C1577 1.411 1_545 S
C1579 H1555 0.951 . S
C1579 C1580 1.366 . S
C1579 C1581 1.388 . S
C1580 C1579 1.366 . S
C1580 C1584 1.385 . S
C1581 H1556 0.951 . S
C1581 C1579 1.388 . S
C1581 C1582 1.366 . S
C1582 C1581 1.366 . S
C1582 C1583 1.414 . S
C1582 C1585 1.499 . S
C1583 H1557 0.950 . S
C1583 C1582 1.414 . S
C1583 C1584 1.374 . S
C1584 H1558 0.950 . S
C1584 C1580 1.385 . S
C1584 C1583 1.374 . S
C1585 C1582 1.499 . S
C1585 C1586 1.373 . S
C1585 C1587 1.389 . S
C1586 H1559 0.950 . S
C1586 C1572 1.377 . S
C1586 C1585 1.373 . S
C1587 C1571 1.377 . S
C1587 C1585 1.389 . S
C1587 C1588 1.524 . S
C1588 C1587 1.524 . S
C1588 C1589 1.397 . S
C1588 C1593 1.363 . S
C1589 H1560 0.950 . S
C1589 C1588 1.397 . S
C1589 C1590 1.334 . S
C1590 H1561 0.950 . S
C1590 C1589 1.334 . S
C1590 C1591 1.287 . S
C1591 C1590 1.287 . S
C1591 C1592 1.524 . S
C1591 H1594 0.999 . S
C1592 H1562 0.950 . S
C1592 C1591 1.524 . S
C1592 C1593 1.415 . S
C1593 H1563 0.950 . S
C1593 C1588 1.363 . S
C1593 C1592 1.415 . S
H1594 C1591 0.999 . S
H1595 C1576 0.913 . S
H1596 C1614 0.951 . S
H1597 C1616 0.951 . S
H1598 C1618 0.950 . S
H1599 C1619 0.950 . S
H1600 C1621 0.950 . S
H1601 C1624 0.950 . S
H1602 C1625 0.950 . S
H1603 C1627 0.950 . S
H1604 C1628 0.950 . S
H1605 C1629 0.951 . S
H1606 C1631 0.951 . S
H1607 C1633 0.950 . S
H1608 C1634 0.950 . S
H1609 C1636 0.950 . S
H1610 C1639 0.950 . S
H1611 C1640 0.950 . S
H1612 C1642 0.950 . S
H1613 C1643 0.950 . S
C1614 H1596 0.951 . S
C1614 C1615 1.366 . S
C1614 C1616 1.388 . S
C1615 C1614 1.366 . S
C1615 C1619 1.385 . S
C1616 H1597 0.951 . S
C1616 C1614 1.388 . S
C1616 C1617 1.366 . S
C1617 C1616 1.366 . S
C1617 C1618 1.414 . S
C1617 C1620 1.499 . S
C1618 H1598 0.950 . S
C1618 C1617 1.414 . S
C1618 C1619 1.374 . S
C1619 H1599 0.950 . S
C1619 C1615 1.385 . S
C1619 C1618 1.374 . S
C1620 C1617 1.499 . S
C1620 C1621 1.373 . S
C1620 C1622 1.389 . S
C1621 H1600 0.950 . S
C1621 C1620 1.373 . S
C1621 C1637 1.377 . S
C1622 C1620 1.389 . S
C1622 C1623 1.524 . S
C1622 C1636 1.377 . S
C1623 C1622 1.524 . S
C1623 C1624 1.397 . S
C1623 C1628 1.363 . S
C1624 H1601 0.950 . S
C1624 C1623 1.397 . S
C1624 C1625 1.334 . S
C1625 H1602 0.950 . S
C1625 C1624 1.334 . S
C1625 C1626 1.287 . S
C1626 C1625 1.287 . S
C1626 C1627 1.524 . S
C1626 H1645 0.913 . S
C1627 H1603 0.950 . S
C1627 C1626 1.524 . S
C1627 C1628 1.415 . S
C1628 H1604 0.950 . S
C1628 C1623 1.363 . S
C1628 C1627 1.415 . S
C1629 H1605 0.951 . S
C1629 C1630 1.366 . S
C1629 C1631 1.388 . S
C1630 C1629 1.366 . S
C1630 C1634 1.385 . S
C1631 H1606 0.951 . S
C1631 C1629 1.388 . S
C1631 C1632 1.366 . S
C1632 C1631 1.366 . S
C1632 C1633 1.414 . S
C1632 C1635 1.499 . S
C1633 H1607 0.950 . S
C1633 C1632 1.414 . S
C1633 C1634 1.374 . S
C1634 H1608 0.950 . S
C1634 C1630 1.385 . S
C1634 C1633 1.374 . S
C1635 C1632 1.499 . S
C1635 C1636 1.373 . S
C1635 C1637 1.389 . S
C1636 H1609 0.950 . S
C1636 C1622 1.377 . S
C1636 C1635 1.373 . S
C1637 C1621 1.377 . S
C1637 C1635 1.389 . S
C1637 C1638 1.524 . S
C1638 C1637 1.524 . S
C1638 C1639 1.397 . S
C1638 C1643 1.363 . S
C1639 H1610 0.950 . S
C1639 C1638 1.397 . S
C1639 C1640 1.334 . S
C1640 H1611 0.950 . S
C1640 C1639 1.334 . S
C1640 C1641 1.287 . S
C1641 C1640 1.287 . S
C1641 C1642 1.524 . S
C1641 H1644 0.999 . S
C1642 H1612 0.950 . S
C1642 C1641 1.524 . S
C1642 C1643 1.415 . S
C1643 H1613 0.950 . S
C1643 C1638 1.363 . S
C1643 C1642 1.415 . S
H1644 C1641 0.999 . S
H1645 C1626 0.913 . S
H1646 C1664 0.951 . S
H1647 C1666 0.951 . S
H1648 C1668 0.950 . S
H1649 C1669 0.950 . S
H1650 C1671 0.950 . S
H1651 C1674 0.950 . S
H1652 C1675 0.950 . S
H1653 C1677 0.950 . S
H1654 C1678 0.950 . S
H1655 C1679 0.951 . S
H1656 C1681 0.951 . S
H1657 C1683 0.950 . S
H1658 C1684 0.950 . S
H1659 C1686 0.950 . S
H1660 C1689 0.950 . S
H1661 C1690 0.950 . S
H1662 C1692 0.950 . S
H1663 C1693 0.950 . S
C1664 H1646 0.951 . S
C1664 C1665 1.366 . S
C1664 C1666 1.388 . S
C1665 C1664 1.366 . S
C1665 C1669 1.385 . S
C1666 H1647 0.951 . S
C1666 C1664 1.388 . S
C1666 C1667 1.366 . S
C1667 C1666 1.366 . S
C1667 C1668 1.414 . S
C1667 C1670 1.499 . S
C1668 H1648 0.950 . S
C1668 C1667 1.414 . S
C1668 C1669 1.374 . S
C1669 H1649 0.950 . S
C1669 C1665 1.385 . S
C1669 C1668 1.374 . S
C1670 C1667 1.499 . S
C1670 C1671 1.373 . S
C1670 C1672 1.389 . S
C1671 H1650 0.950 . S
C1671 C1670 1.373 . S
C1671 C1687 1.377 . S
C1672 C1670 1.389 . S
C1672 C1673 1.524 . S
C1672 C1686 1.377 . S
C1673 C1672 1.524 . S
C1673 C1674 1.397 . S
C1673 C1678 1.363 . S
C1674 H1651 0.950 . S
C1674 C1673 1.397 . S
C1674 C1675 1.334 . S
C1675 H1652 0.950 . S
C1675 C1674 1.334 . S
C1675 C1676 1.287 . S
C1676 C1675 1.287 . S
C1676 C1677 1.524 . S
C1676 H1695 0.913 . S
C1677 H1653 0.950 . S
C1677 C1676 1.524 . S
C1677 C1678 1.415 . S
C1678 H1654 0.950 . S
C1678 C1673 1.363 . S
C1678 C1677 1.415 . S
C1679 H1655 0.951 . S
C1679 C1680 1.366 . S
C1679 C1681 1.388 . S
C1680 C1679 1.366 . S
C1680 C1684 1.385 . S
C1681 H1656 0.951 . S
C1681 C1679 1.388 . S
C1681 C1682 1.366 . S
C1682 C1681 1.366 . S
C1682 C1683 1.414 . S
C1682 C1685 1.499 . S
C1683 H1657 0.950 . S
C1683 C1682 1.414 . S
C1683 C1684 1.374 . S
C1684 H1658 0.950 . S
C1684 C1680 1.385 . S
C1684 C1683 1.374 . S
C1685 C1682 1.499 . S
C1685 C1686 1.373 . S
C1685 C1687 1.389 . S
C1686 H1659 0.950 . S
C1686 C1672 1.377 . S
C1686 C1685 1.373 . S
C1687 C1671 1.377 . S
C1687 C1685 1.389 . S
C1687 C1688 1.524 . S
C1688 C1687 1.524 . S
C1688 C1689 1.397 . S
C1688 C1693 1.363 . S
C1689 H1660 0.950 . S
C1689 C1688 1.397 . S
C1689 C1690 1.334 . S
C1690 H1661 0.950 . S
C1690 C1689 1.334 . S
C1690 C1691 1.287 . S
C1691 C1690 1.287 . S
C1691 C1692 1.524 . S
C1691 H1694 0.999 . S
C1692 H1662 0.950 . S
C1692 C1691 1.524 . S
C1692 C1693 1.415 . S
C1693 H1663 0.950 . S
C1693 C1688 1.363 . S
C1693 C1692 1.415 . S
H1694 C1691 0.999 . S
H1695 C1676 0.913 . S
H1696 C1714 0.951 . S
H1697 C1716 0.951 . S
H1698 C1718 0.950 . S
H1699 C1719 0.950 . S
H1700 C1721 0.950 . S
H1701 C1724 0.950 . S
H1702 C1725 0.950 . S
H1703 C1727 0.950 . S
H1704 C1728 0.950 . S
H1705 C1729 0.951 . S
H1706 C1731 0.951 . S
H1707 C1733 0.950 . S
H1708 C1734 0.950 . S
H1709 C1736 0.950 . S
H1710 C1739 0.950 . S
H1711 C1740 0.950 . S
H1712 C1742 0.950 . S
H1713 C1743 0.950 . S
C1714 H1696 0.951 . S
C1714 C1715 1.366 . S
C1714 C1716 1.388 . S
C1715 C1714 1.366 . S
C1715 C1719 1.385 . S
C1716 H1697 0.951 . S
C1716 C1714 1.388 . S
C1716 C1717 1.366 . S
C1717 C1716 1.366 . S
C1717 C1718 1.414 . S
C1717 C1720 1.499 . S
C1718 H1698 0.950 . S
C1718 C1717 1.414 . S
C1718 C1719 1.374 . S
C1719 H1699 0.950 . S
C1719 C1715 1.385 . S
C1719 C1718 1.374 . S
C1720 C1717 1.499 . S
C1720 C1721 1.373 . S
C1720 C1722 1.389 . S
C1721 H1700 0.950 . S
C1721 C1720 1.373 . S
C1721 C1737 1.377 . S
C1722 C1720 1.389 . S
C1722 C1723 1.524 . S
C1722 C1736 1.377 . S
C1723 C1722 1.524 . S
C1723 C1724 1.397 . S
C1723 C1728 1.363 . S
C1724 H1701 0.950 . S
C1724 C1723 1.397 . S
C1724 C1725 1.334 . S
C1725 H1702 0.950 . S
C1725 C1724 1.334 . S
C1725 C1726 1.287 . S
C1726 C1725 1.287 . S
C1726 C1727 1.524 . S
C1726 H1745 0.913 . S
C1727 H1703 0.950 . S
C1727 C1726 1.524 . S
C1727 C1728 1.415 . S
C1728 H1704 0.950 . S
C1728 C1723 1.363 . S
C1728 C1727 1.415 . S
C1729 H1705 0.951 . S
C1729 C1730 1.366 . S
C1729 C1731 1.388 . S
C1730 C1729 1.366 . S
C1730 C1734 1.385 . S
C1731 H1706 0.951 . S
C1731 C1729 1.388 . S
C1731 C1732 1.366 . S
C1732 C1731 1.366 . S
C1732 C1733 1.414 . S
C1732 C1735 1.499 . S
C1733 H1707 0.950 . S
C1733 C1732 1.414 . S
C1733 C1734 1.374 . S
C1734 H1708 0.950 . S
C1734 C1730 1.385 . S
C1734 C1733 1.374 . S
C1735 C1732 1.499 . S
C1735 C1736 1.373 . S
C1735 C1737 1.389 . S
C1736 H1709 0.950 . S
C1736 C1722 1.377 . S
C1736 C1735 1.373 . S
C1737 C1721 1.377 . S
C1737 C1735 1.389 . S
C1737 C1738 1.524 . S
C1738 C1737 1.524 . S
C1738 C1739 1.397 . S
C1738 C1743 1.363 . S
C1739 H1710 0.950 . S
C1739 C1738 1.397 . S
C1739 C1740 1.334 . S
C1740 H1711 0.950 . S
C1740 C1739 1.334 . S
C1740 C1741 1.287 . S
C1741 C1740 1.287 . S
C1741 C1742 1.524 . S
C1741 H1744 0.999 . S
C1742 H1712 0.950 . S
C1742 C1741 1.524 . S
C1742 C1743 1.415 . S
C1743 H1713 0.950 . S
C1743 C1738 1.363 . S
C1743 C1742 1.415 . S
H1744 C1741 0.999 . S
H1745 C1726 0.913 . S
H1746 C1764 0.951 . S
H1747 C1766 0.951 . S
H1748 C1768 0.950 . S
H1749 C1769 0.950 . S
H1750 C1771 0.950 . S
H1751 C1774 0.950 . S
H1752 C1775 0.950 . S
H1753 C1777 0.950 . S
H1754 C1778 0.950 . S
H1755 C1779 0.951 . S
H1756 C1781 0.951 . S
H1757 C1783 0.950 . S
H1758 C1784 0.950 . S
H1759 C1786 0.950 . S
H1760 C1789 0.950 . S
H1761 C1790 0.950 . S
H1762 C1792 0.950 . S
H1763 C1793 0.950 . S
C1764 H1746 0.951 . S
C1764 C1765 1.366 . S
C1764 C1766 1.388 . S
C1765 C1764 1.366 . S
C1765 C1769 1.385 . S
C1766 H1747 0.951 . S
C1766 C1764 1.388 . S
C1766 C1767 1.366 . S
C1767 C1766 1.366 . S
C1767 C1768 1.414 . S
C1767 C1770 1.499 . S
C1768 H1748 0.950 . S
C1768 C1767 1.414 . S
C1768 C1769 1.374 . S
C1769 H1749 0.950 . S
C1769 C1765 1.385 . S
C1769 C1768 1.374 . S
C1770 C1767 1.499 . S
C1770 C1771 1.373 . S
C1770 C1772 1.389 . S
C1771 H1750 0.950 . S
C1771 C1770 1.373 . S
C1771 C1787 1.377 . S
C1772 C1770 1.389 . S
C1772 C1773 1.524 . S
C1772 C1786 1.377 . S
C1773 C1772 1.524 . S
C1773 C1774 1.397 . S
C1773 C1778 1.363 . S
C1774 H1751 0.950 . S
C1774 C1773 1.397 . S
C1774 C1775 1.334 . S
C1775 H1752 0.950 . S
C1775 C1774 1.334 . S
C1775 C1776 1.287 . S
C1776 C1775 1.287 . S
C1776 C1777 1.524 . S
C1776 H1795 0.913 . S
C1777 H1753 0.950 . S
C1777 C1776 1.524 . S
C1777 C1778 1.415 . S
C1778 H1754 0.950 . S
C1778 C1773 1.363 . S
C1778 C1777 1.415 . S
C1779 H1755 0.951 . S
C1779 C1780 1.366 . S
C1779 C1781 1.388 . S
C1780 C1779 1.366 . S
C1780 C1784 1.385 . S
C1781 H1756 0.951 . S
C1781 C1779 1.388 . S
C1781 C1782 1.366 . S
C1782 C1781 1.366 . S
C1782 C1783 1.414 . S
C1782 C1785 1.499 . S
C1783 H1757 0.950 . S
C1783 C1782 1.414 . S
C1783 C1784 1.374 . S
C1784 H1758 0.950 . S
C1784 C1780 1.385 . S
C1784 C1783 1.374 . S
C1785 C1782 1.499 . S
C1785 C1786 1.373 . S
C1785 C1787 1.389 . S
C1786 H1759 0.950 . S
C1786 C1772 1.377 . S
C1786 C1785 1.373 . S
C1787 C1771 1.377 . S
C1787 C1785 1.389 . S
C1787 C1788 1.524 . S
C1788 C1787 1.524 . S
C1788 C1789 1.397 . S
C1788 C1793 1.363 . S
C1789 H1760 0.950 . S
C1789 C1788 1.397 . S
C1789 C1790 1.334 . S
C1790 H1761 0.950 . S
C1790 C1789 1.334 . S
C1790 C1791 1.287 . S
C1791 C1790 1.287 . S
C1791 C1792 1.524 . S
C1791 H1794 0.999 . S
C1792 H1762 0.950 . S
C1792 C1791 1.524 . S
C1792 C1793 1.415 . S
C1793 H1763 0.950 . S
C1793 C1788 1.363 . S
C1793 C1792 1.415 . S
H1794 C1791 0.999 . S
H1795 C1776 0.913 . S
H1796 C1814 0.951 . S
H1797 C1816 0.951 . S
H1798 C1818 0.950 . S
H1799 C1819 0.950 . S
H1800 C1821 0.950 . S
H1801 C1824 0.950 . S
H1802 C1825 0.950 . S
H1803 C1827 0.950 . S
H1804 C1828 0.950 . S
H1805 C1829 0.951 . S
H1806 C1831 0.951 . S
H1807 C1833 0.950 . S
H1808 C1834 0.950 . S
H1809 C1836 0.950 . S
H1810 C1839 0.950 . S
H1811 C1840 0.950 . S
H1812 C1842 0.950 . S
H1813 C1843 0.950 . S
C1814 H1796 0.951 . S
C1814 C1815 1.366 . S
C1814 C1816 1.388 . S
C1815 C1814 1.366 . S
C1815 C1819 1.385 . S
C1816 H1797 0.951 . S
C1816 C1814 1.388 . S
C1816 C1817 1.366 . S
C1817 C1816 1.366 . S
C1817 C1818 1.414 . S
C1817 C1820 1.499 . S
C1818 H1798 0.950 . S
C1818 C1817 1.414 . S
C1818 C1819 1.374 . S
C1819 H1799 0.950 . S
C1819 C1815 1.385 . S
C1819 C1818 1.374 . S
C1820 C1817 1.499 . S
C1820 C1821 1.373 . S
C1820 C1822 1.389 . S
C1821 H1800 0.950 . S
C1821 C1820 1.373 . S
C1821 C1837 1.377 . S
C1822 C1820 1.389 . S
C1822 C1823 1.524 . S
C1822 C1836 1.377 . S
C1823 C1822 1.524 . S
C1823 C1824 1.397 . S
C1823 C1828 1.363 . S
C1824 H1801 0.950 . S
C1824 C1823 1.397 . S
C1824 C1825 1.334 . S
C1825 H1802 0.950 . S
C1825 C1824 1.334 . S
C1825 C1826 1.287 . S
C1826 C1825 1.287 . S
C1826 C1827 1.524 . S
C1826 H1845 0.913 . S
C1827 H1803 0.950 . S
C1827 C1826 1.524 . S
C1827 C1828 1.415 . S
C1828 H1804 0.950 . S
C1828 C1823 1.363 . S
C1828 C1827 1.415 . S
C1829 H1805 0.951 . S
C1829 C1830 1.366 . S
C1829 C1831 1.388 . S
C1830 C1829 1.366 . S
C1830 C1834 1.385 . S
C1831 H1806 0.951 . S
C1831 C1829 1.388 . S
C1831 C1832 1.366 . S
C1832 C1831 1.366 . S
C1832 C1833 1.414 . S
C1832 C1835 1.499 . S
C1833 H1807 0.950 . S
C1833 C1832 1.414 . S
C1833 C1834 1.374 . S
C1834 H1808 0.950 . S
C1834 C1830 1.385 . S
C1834 C1833 1.374 . S
C1835 C1832 1.499 . S
C1835 C1836 1.373 . S
C1835 C1837 1.389 . S
C1836 H1809 0.950 . S
C1836 C1822 1.377 . S
C1836 C1835 1.373 . S
C1837 C1821 1.377 . S
C1837 C1835 1.389 . S
C1837 C1838 1.524 . S
C1838 C1837 1.524 . S
C1838 C1839 1.397 . S
C1838 C1843 1.363 . S
C1839 H1810 0.950 . S
C1839 C1838 1.397 . S
C1839 C1840 1.334 . S
C1840 H1811 0.950 . S
C1840 C1839 1.334 . S
C1840 C1841 1.287 . S
C1841 C1840 1.287 . S
C1841 C1842 1.524 . S
C1841 H1844 0.999 . S
C1842 H1812 0.950 . S
C1842 C1841 1.524 . S
C1842 C1843 1.415 . S
C1843 H1813 0.950 . S
C1843 C1838 1.363 . S
C1843 C1842 1.415 . S
H1844 C1841 0.999 . S
H1845 C1826 0.913 . S
H1846 C1864 0.951 . S
H1847 C1866 0.951 . S
H1848 C1868 0.950 . S
H1849 C1869 0.950 . S
H1850 C1871 0.950 . S
H1851 C1874 0.950 . S
H1852 C1875 0.950 . S
H1853 C1877 0.950 . S
H1854 C1878 0.950 . S
H1855 C1879 0.951 . S
H1856 C1881 0.951 . S
H1857 C1883 0.950 . S
H1858 C1884 0.950 . S
H1859 C1886 0.950 . S
H1860 C1889 0.950 . S
H1861 C1890 0.950 . S
H1862 C1892 0.950 . S
H1863 C1893 0.950 . S
C1864 H1846 0.951 . S
C1864 C1865 1.366 . S
C1864 C1866 1.388 . S
C1865 C1864 1.366 . S
C1865 C1869 1.385 . S
C1866 H1847 0.951 . S
C1866 C1864 1.388 . S
C1866 C1867 1.366 . S
C1867 C1866 1.366 . S
C1867 C1868 1.414 . S
C1867 C1870 1.499 . S
C1868 H1848 0.950 . S
C1868 C1867 1.414 . S
C1868 C1869 1.374 . S
C1869 H1849 0.950 . S
C1869 C1865 1.385 . S
C1869 C1868 1.374 . S
C1870 C1867 1.499 . S
C1870 C1871 1.373 . S
C1870 C1872 1.389 . S
C1871 H1850 0.950 . S
C1871 C1870 1.373 . S
C1871 C1887 1.377 . S
C1872 C1870 1.389 . S
C1872 C1873 1.524 . S
C1872 C1886 1.377 . S
C1873 C1872 1.524 . S
C1873 C1874 1.397 . S
C1873 C1878 1.363 . S
C1874 H1851 0.950 . S
C1874 C1873 1.397 . S
C1874 C1875 1.334 . S
C1875 H1852 0.950 . S
C1875 C1874 1.334 . S
C1875 C1876 1.287 . S
C1876 C1875 1.287 . S
C1876 C1877 1.524 . S
C1876 H1895 0.913 . S
C1877 H1853 0.950 . S
C1877 C1876 1.524 . S
C1877 C1878 1.415 . S
C1878 H1854 0.950 . S
C1878 C1873 1.363 . S
C1878 C1877 1.415 . S
C1879 H1855 0.951 . S
C1879 C1880 1.366 . S
C1879 C1881 1.388 . S
C1880 C1879 1.366 . S
C1880 C1884 1.385 . S
C1881 H1856 0.951 . S
C1881 C1879 1.388 . S
C1881 C1882 1.366 . S
C1882 C1881 1.366 . S
C1882 C1883 1.414 . S
C1882 C1885 1.499 . S
C1883 H1857 0.950 . S
C1883 C1882 1.414 . S
C1883 C1884 1.374 . S
C1884 H1858 0.950 . S
C1884 C1880 1.385 . S
C1884 C1883 1.374 . S
C1885 C1882 1.499 . S
C1885 C1886 1.373 . S
C1885 C1887 1.389 . S
C1886 H1859 0.950 . S
C1886 C1872 1.377 . S
C1886 C1885 1.373 . S
C1887 C1871 1.377 . S
C1887 C1885 1.389 . S
C1887 C1888 1.524 . S
C1888 C1887 1.524 . S
C1888 C1889 1.397 . S
C1888 C1893 1.363 . S
C1889 H1860 0.950 . S
C1889 C1888 1.397 . S
C1889 C1890 1.334 . S
C1890 H1861 0.950 . S
C1890 C1889 1.334 . S
C1890 C1891 1.287 . S
C1891 C1890 1.287 . S
C1891 C1892 1.524 . S
C1891 H1894 0.999 . S
C1892 H1862 0.950 . S
C1892 C1891 1.524 . S
C1892 C1893 1.415 . S
C1893 H1863 0.950 . S
C1893 C1888 1.363 . S
C1893 C1892 1.415 . S
H1894 C1891 0.999 . S
H1895 C1876 0.913 . S
C415 C117 1.499 . S
C430 C18 1.499 . S
C465 C51 1.499 . S
C480 C150 1.499 . S
C515 C84 1.499 . S
C530 C183 1.499 . S
C565 C216 1.499 . S
C580 C315 1.499 . S
C615 C348 1.499 . S
C630 C249 1.499 . S
C665 C381 1.499 . S
C680 C282 1.499 . S
C715 C252 0.509 . S
C730 C21 0.512 . S
C765 C54 0.509 . S
C780 C285 0.513 . S
C815 C318 0.509 . S
C830 C87 0.513 . S
C865 C120 0.509 . S
C880 C351 0.513 . S
C915 C384 0.511 . S
C930 C153 0.510 . S
C965 C186 0.512 . S
C980 C219 0.512 . S
C1015 C7 0.853 . S
C1030 C106 0.854 . S
C1065 C40 0.854 . S
C1080 C139 0.853 . S
C1115 C73 0.854 . S
C1130 C172 0.853 . S
C1165 C205 0.855 . S
C1180 C304 0.853 . S
C1215 C238 0.853 . S
C1230 C337 0.854 . S
C1265 C271 0.853 . S
C1280 C370 0.854 . S
C1315 N332 0.695 . S
C1330 N2 0.695 . S
C1365 N35 0.694 . S
C1380 N365 0.696 . S
C1415 N200 0.695 . S
C1430 N68 0.694 . S
C1465 N101 0.695 . S
C1480 N233 0.696 . S
C1515 N266 0.696 . S
C1530 N134 0.696 . S
C1565 N167 0.695 . S
C1580 N299 0.695 . S
C1615 N13 1.731 . S
C1630 N277 1.731 . S
C1665 N46 1.731 . S
C1680 N310 1.732 . S
C1715 N343 1.731 . S
C1730 N79 1.732 . S
C1765 N376 1.731 . S
C1780 N112 1.732 . S
C1815 N145 1.732 . S
C1830 N211 1.731 . S
C1865 N178 1.731 . S
C1880 N244 1.732 . S
