# Generated by pormake.
# Topology wje, (4)-cn, num edge types: 1
# Building blocks:
#     Node 0, Type 0, BuildingBlock: QUQFOY_clean_sbu_3, # of connection points: 4
#     Node 1, Type 0, BuildingBlock: QUQFOY_clean_sbu_3, # of connection points: 4
#     Node 2, Type 0, BuildingBlock: QUQFOY_clean_sbu_3, # of connection points: 4
#     Node 3, Type 0, BuildingBlock: QUQFOY_clean_sbu_3, # of connection points: 4
#     Node 4, Type 0, BuildingBlock: QUQFOY_clean_sbu_3, # of connection points: 4
#     Node 5, Type 0, BuildingBlock: QUQFOY_clean_sbu_3, # of connection points: 4
#     Node 6, Type 0, BuildingBlock: QUQFOY_clean_sbu_3, # of connection points: 4
#     Node 7, Type 0, BuildingBlock: QUQFOY_clean_sbu_3, # of connection points: 4
#     Node 8, Type 0, BuildingBlock: QUQFOY_clean_sbu_3, # of connection points: 4
#     Node 9, Type 0, BuildingBlock: QUQFOY_clean_sbu_3, # of connection points: 4
#     Node 10, Type 0, BuildingBlock: QUQFOY_clean_sbu_3, # of connection points: 4
#     Node 11, Type 0, BuildingBlock: QUQFOY_clean_sbu_3, # of connection points: 4
#     Edge 12, Type (0, 0), BuildingBlock: TEMPAE_clean_linker_10, # of connection points: 2
#     Edge 13, Type (0, 0), BuildingBlock: TEMPAE_clean_linker_10, # of connection points: 2
#     Edge 14, Type (0, 0), BuildingBlock: TEMPAE_clean_linker_10, # of connection points: 2
#     Edge 15, Type (0, 0), BuildingBlock: TEMPAE_clean_linker_10, # of connection points: 2
#     Edge 16, Type (0, 0), BuildingBlock: TEMPAE_clean_linker_10, # of connection points: 2
#     Edge 17, Type (0, 0), BuildingBlock: TEMPAE_clean_linker_10, # of connection points: 2
#     Edge 18, Type (0, 0), BuildingBlock: TEMPAE_clean_linker_10, # of connection points: 2
#     Edge 19, Type (0, 0), BuildingBlock: TEMPAE_clean_linker_10, # of connection points: 2
#     Edge 20, Type (0, 0), BuildingBlock: TEMPAE_clean_linker_10, # of connection points: 2
#     Edge 21, Type (0, 0), BuildingBlock: TEMPAE_clean_linker_10, # of connection points: 2
#     Edge 22, Type (0, 0), BuildingBlock: TEMPAE_clean_linker_10, # of connection points: 2
#     Edge 23, Type (0, 0), BuildingBlock: TEMPAE_clean_linker_10, # of connection points: 2
#     Edge 24, Type (0, 0), BuildingBlock: TEMPAE_clean_linker_10, # of connection points: 2
#     Edge 25, Type (0, 0), BuildingBlock: TEMPAE_clean_linker_10, # of connection points: 2
#     Edge 26, Type (0, 0), BuildingBlock: TEMPAE_clean_linker_10, # of connection points: 2
#     Edge 27, Type (0, 0), BuildingBlock: TEMPAE_clean_linker_10, # of connection points: 2
#     Edge 28, Type (0, 0), BuildingBlock: TEMPAE_clean_linker_10, # of connection points: 2
#     Edge 29, Type (0, 0), BuildingBlock: TEMPAE_clean_linker_10, # of connection points: 2
#     Edge 30, Type (0, 0), BuildingBlock: TEMPAE_clean_linker_10, # of connection points: 2
#     Edge 31, Type (0, 0), BuildingBlock: TEMPAE_clean_linker_10, # of connection points: 2
#     Edge 32, Type (0, 0), BuildingBlock: TEMPAE_clean_linker_10, # of connection points: 2
#     Edge 33, Type (0, 0), BuildingBlock: TEMPAE_clean_linker_10, # of connection points: 2
#     Edge 34, Type (0, 0), BuildingBlock: TEMPAE_clean_linker_10, # of connection points: 2
#     Edge 35, Type (0, 0), BuildingBlock: TEMPAE_clean_linker_10, # of connection points: 2
# Relax obj value: 0.146
# Max RMSD: 0.092
# Mean RMSD: 0.092
data_MOF--net-wje--node1-QUQFOY_clean_sbu_3--edge1-TEMPAE_clean_linker_10
_symmetry_space_group_name_H-M    P1
_symmetry_Int_Tables_number       1
_symmetry_cell_setting            triclinic
loop_
_symmetry_equiv_pos_as_xyz
'x, y, z'
_cell_length_a     41.986389
_cell_length_b     41.970818
_cell_length_c     39.003971
_cell_angle_alpha  89.989437
_cell_angle_beta   89.979138
_cell_angle_gamma 119.95244
loop_
_atom_site_label
_atom_site_type_symbol
_atom_site_fract_x
_atom_site_fract_y
_atom_site_fract_z
_atom_type_partial_charge
C0 C 0.23116 0.91162 0.27425 0.0
O1 O 0.24528 0.8913 0.26976 0.0
Cd2 Cd 0.30837 0.91254 0.28226 0.0
O3 O 0.25152 0.94599 0.27918 0.0
Cd4 Cd 0.31683 -0.0063 0.27737 0.0
C5 C 0.31341 0.96099 0.35703 0.0
O6 O 0.3436 0.96321 0.24618 0.0
O7 O 0.38123 0.01005 0.27634 0.0
O8 O 0.29989 0.01671 0.22862 0.0
C9 C 0.37629 0.98425 0.25615 0.0
O10 O 0.31282 0.93394 0.3415 0.0
C11 C 0.31432 0.04971 0.23895 0.0
O12 O 0.31404 -0.01257 0.34021 0.0
O13 O 0.32986 0.05704 0.26822 0.0
C14 C 0.31984 0.27568 0.64218 0.0
O15 O 0.35241 0.3021 0.63811 0.0
Cd16 Cd 0.36553 0.36365 0.64437 0.0
O17 O 0.29278 0.28133 0.64434 0.0
Cd18 Cd 0.27847 0.33152 0.63765 0.0
C19 C 0.31182 0.35044 0.71762 0.0
O20 O 0.32923 0.3702 0.6016 0.0
O21 O 0.30541 0.39845 0.62758 0.0
O22 O 0.23906 0.29236 0.59279 0.0
C23 C 0.32825 0.39956 0.60561 0.0
O24 O 0.34278 0.36244 0.70269 0.0
C25 C 0.21296 0.29873 0.59806 0.0
O26 O 0.28208 0.33641 0.7003 0.0
O27 O 0.21611 0.31891 0.6237 0.0
C28 C 0.04469 0.31163 0.94486 0.0
O29 O 0.06621 0.34558 0.93893 0.0
Cd30 Cd 0.04896 0.39083 0.94959 0.0
O31 O 0.01065 0.29941 0.95036 0.0
Cd32 Cd 0.96524 0.32024 0.94761 0.0
C33 C 0.00109 0.35212 0.02595 0.0
O34 O -0.002 0.37556 0.9143 0.0
O35 O 0.9526 0.37096 0.94392 0.0
O36 O 0.93955 0.278 0.90084 0.0
C37 C 0.97883 0.38973 0.92332 0.0
O38 O 0.02845 0.37701 0.00939 0.0
C39 C 0.9066 0.26183 0.91153 0.0
O40 O 0.97349 0.32648 0.01019 0.0
O41 O 0.9005 0.2724 0.94018 0.0
C42 C 0.70456 0.03728 0.30788 0.0
O43 O 0.67928 0.04524 0.30446 0.0
Cd44 Cd 0.61668 0.00035 0.31231 0.0
O45 O 0.6971 0.00402 0.31084 0.0
Cd46 Cd 0.64372 0.94089 0.3066 0.0
C47 C 0.62735 0.95921 0.38633 0.0
O48 O 0.60667 0.95545 0.27065 0.0
O49 O 0.57629 0.90428 0.29765 0.0
O50 O 0.68027 0.93593 0.26163 0.0
C51 C 0.57629 0.92642 0.2755 0.0
O52 O 0.61674 0.97914 0.371 0.0
C53 C 0.67181 0.90297 0.26783 0.0
O54 O 0.63992 0.94186 0.36938 0.0
O55 O 0.65162 0.88776 0.29395 0.0
C56 C 0.66424 0.74322 0.6103 0.0
O57 O 0.63013 0.73085 0.60555 0.0
Cd58 Cd 0.58533 0.66833 0.61692 0.0
O59 O 0.6765 0.72132 0.6151 0.0
Cd60 Cd 0.65427 0.65488 0.61225 0.0
C61 C 0.62465 0.65782 0.69187 0.0
O62 O 0.5975 0.63115 0.58017 0.0
O63 O 0.60376 0.59191 0.6109 0.0
O64 O 0.69405 0.66908 0.56366 0.0
C65 C 0.58427 0.59818 0.59013 0.0
O66 O 0.59941 0.6605 0.67623 0.0
C67 C 0.71055 0.65254 0.57417 0.0
O68 O 0.65006 0.65633 0.67516 0.0
O69 O 0.70146 0.63733 0.60356 0.0
C70 C 0.93704 0.6605 0.97526 0.0
O71 O 0.93044 0.62791 0.97006 0.0
Cd72 Cd 0.97713 0.6124 0.97619 0.0
O73 O 0.96983 0.68702 0.97892 0.0
Cd74 Cd 0.03417 0.70025 0.97369 0.0
C75 C 0.01612 0.66199 0.05195 0.0
O76 O 0.02158 0.65089 0.93574 0.0
O77 O 0.07291 0.67193 0.96236 0.0
O78 O 0.03604 0.74241 0.93091 0.0
C79 C 0.05108 0.65025 0.9398 0.0
O80 O -0.00277 0.63204 0.03544 0.0
C81 C 0.06882 0.76753 0.93661 0.0
O82 O 0.0329 0.69274 0.0362 0.0
O83 O 0.08538 0.76257 0.96161 0.0
C84 C 0.03965 0.72875 0.39149 0.0
O85 O 0.06021 0.71561 0.39917 0.0
Cd86 Cd 0.04139 0.65283 0.38808 0.0
O87 O 0.00576 0.70752 0.38492 0.0
Cd88 Cd 0.95883 0.64188 0.3882 0.0
C89 C -0.00407 0.646 0.31061 0.0
O90 O -0.01058 0.61761 0.42243 0.0
O91 O 0.9445 0.57797 0.39161 0.0
O92 O 0.93434 0.66015 0.43464 0.0
C93 C 0.96985 0.58448 0.41298 0.0
O94 O 0.02261 0.64772 0.32779 0.0
C95 C 0.9014 0.6443 0.42398 0.0
O96 O 0.96809 0.64422 0.32575 0.0
O97 O 0.89474 0.62732 0.39546 0.0
C98 C 0.31953 0.0426 0.69117 0.0
O99 O 0.35216 0.04878 0.69484 0.0
Cd100 Cd 0.36562 0.00058 0.68899 0.0
O101 O 0.29244 0.00989 0.68943 0.0
Cd102 Cd 0.27844 0.94546 0.6966 0.0
C103 C 0.31127 0.95872 0.6164 0.0
O104 O 0.32964 0.95846 0.73227 0.0
O105 O 0.30613 0.90607 0.70705 0.0
O106 O 0.23922 0.94555 0.74163 0.0
C107 C 0.32908 0.92829 0.72863 0.0
O108 O 0.3423 0.97795 0.63109 0.0
C109 C 0.21333 0.91288 0.73695 0.0
O110 O 0.28161 0.94327 0.6339 0.0
O111 O 0.21644 0.89555 0.71155 0.0
C112 C 0.22944 0.30258 0.05884 0.0
O113 O 0.24443 0.33677 0.06515 0.0
Cd114 Cd 0.30786 0.37817 0.05402 0.0
O115 O 0.24899 0.2879 0.05256 0.0
Cd116 Cd 0.31401 0.30387 0.05416 0.0
C117 C 0.31288 0.33867 0.97659 0.0
O118 O 0.34122 0.35904 0.08844 0.0
O119 O 0.37877 0.35089 0.05705 0.0
O120 O 0.29545 0.26029 0.10014 0.0
C121 C 0.37398 0.37076 0.07862 0.0
O122 O 0.31275 0.3645 0.99374 0.0
C123 C 0.31046 0.24272 0.08854 0.0
O124 O 0.31248 0.31148 0.99176 0.0
O125 O 0.32683 0.25304 0.05974 0.0
C126 C 0.93372 0.2698 0.35883 0.0
O127 O 0.92526 0.29454 0.36381 0.0
Cd128 Cd 0.96979 0.35779 0.35963 0.0
O129 O 0.96716 0.27778 0.35628 0.0
Cd130 Cd 0.03001 0.33082 0.36338 0.0
C131 C 0.01315 0.35186 0.28493 0.0
O132 O 0.01388 0.36517 0.40113 0.0
O133 O 0.06604 0.39758 0.37631 0.0
O134 O 0.03305 0.291 0.40594 0.0
C135 C 0.0428 0.396 0.39805 0.0
O136 O -0.00736 0.36125 0.30099 0.0
C137 C 0.06623 0.29986 0.40048 0.0
O138 O 0.03037 0.33855 0.30098 0.0
O139 O 0.08259 0.32199 0.37581 0.0
C140 C 0.66974 0.92741 0.72954 0.0
O141 O 0.63593 0.90554 0.73565 0.0
Cd142 Cd 0.59041 0.92151 0.72158 0.0
O143 O 0.68113 0.96108 0.72291 0.0
Cd144 Cd 0.65797 0.00465 0.72445 0.0
C145 C 0.63028 0.96914 0.64555 0.0
O146 O 0.60097 0.97181 0.75608 0.0
O147 O 0.60648 0.01582 0.7235 0.0
O148 O 0.69672 0.03088 0.77346 0.0
C149 C 0.58711 -0.0095 0.74472 0.0
O150 O 0.6054 0.94147 0.66177 0.0
C151 C 0.71328 0.06381 0.76269 0.0
O152 O 0.6549 -0.00287 0.66171 0.0
O153 O 0.70464 0.06963 0.73296 0.0
C154 C 0.70018 0.64957 0.02559 0.0
O155 O 0.67535 0.61607 0.02827 0.0
Cd156 Cd 0.61237 0.59795 0.02264 0.0
O157 O 0.69215 0.67509 0.02465 0.0
Cd158 Cd 0.63843 0.68384 0.03202 0.0
C159 C 0.62075 0.65219 0.95119 0.0
O160 O 0.60277 0.63082 0.06686 0.0
O161 O 0.57124 0.65205 0.0427 0.0
O162 O 0.67565 0.72407 0.07744 0.0
C163 C 0.57213 0.6293 0.06356 0.0
O164 O 0.61083 0.62115 0.96521 0.0
C165 C 0.667 0.74866 0.07258 0.0
O166 O 0.63326 0.68134 0.96929 0.0
O167 O 0.64621 0.74428 0.04712 0.0
C168 C 0.33547 0.11551 0.22478 0.0
C169 C 0.31353 0.07806 0.21711 0.0
C170 C 0.33576 0.14243 0.20318 0.0
C171 C 0.31326 0.13149 0.17354 0.0
C172 C 0.29088 0.09372 0.16586 0.0
C173 C 0.29142 0.06748 0.18765 0.0
C174 C 0.36014 0.18253 0.212 0.0
C175 C 0.26617 0.081 0.13474 0.0
C176 C 0.28626 0.19822 0.13698 0.0
C177 C 0.31004 0.21281 0.10881 0.0
C178 C 0.28688 0.17155 0.15808 0.0
C179 C 0.31219 0.15947 0.15106 0.0
C180 C 0.33606 0.17379 0.12247 0.0
C181 C 0.33453 0.20019 0.10149 0.0
C182 C 0.26059 0.15648 0.18801 0.0
C183 C 0.36354 0.16163 0.11439 0.0
H184 H 0.35276 0.1238 0.2474 0.0
H185 H 0.27432 0.03855 0.18162 0.0
H186 H 0.37906 0.1971 0.19037 0.0
H187 H 0.34315 0.19566 0.21608 0.0
H188 H 0.37674 0.18647 0.23544 0.0
H189 H 0.25061 0.05057 0.13231 0.0
H190 H 0.24624 0.09102 0.1362 0.0
H191 H 0.2827 0.09277 0.11114 0.0
H192 H 0.26716 0.20779 0.14267 0.0
H193 H 0.35311 0.21158 0.07987 0.0
H194 H 0.27621 0.16244 0.21235 0.0
H195 H 0.24341 0.12615 0.18584 0.0
H196 H 0.24216 0.16834 0.18955 0.0
H197 H 0.38238 0.16766 0.13646 0.0
H198 H 0.38019 0.17548 0.09126 0.0
H199 H 0.34911 0.13147 0.1102 0.0
C200 C 0.17931 0.26282 0.54632 0.0
C201 C 0.18348 0.28772 0.57234 0.0
C202 C 0.15731 0.25797 0.51754 0.0
C203 C 0.13951 0.2789 0.5146 0.0
C204 C 0.1416 0.30216 0.54188 0.0
C205 C 0.16339 0.3061 0.57059 0.0
C206 C 0.155 0.23219 0.48942 0.0
C207 C 0.12287 0.32486 0.53974 0.0
C208 C 0.12412 0.30991 0.42805 0.0
C209 C 0.08581 0.28903 0.42515 0.0
C210 C 0.14224 0.30553 0.45632 0.0
C211 C 0.12153 0.27927 0.48192 0.0
C212 C 0.08325 0.25599 0.47757 0.0
C213 C 0.06578 0.26132 0.44932 0.0
C214 C 0.18319 0.33083 0.46001 0.0
C215 C 0.06038 0.22705 0.50381 0.0
H216 H 0.19457 0.24829 0.54768 0.0
H217 H 0.16654 0.3254 0.59059 0.0
H218 H 0.12624 0.21506 0.48045 0.0
H219 H 0.17166 0.24844 0.46716 0.0
H220 H 0.16541 0.21379 0.49792 0.0
H221 H 0.12503 0.33957 0.56407 0.0
H222 H 0.13557 0.34549 0.51891 0.0
H223 H 0.09337 0.30714 0.53334 0.0
H224 H 0.1397 0.33138 0.40948 0.0
H225 H 0.03615 0.24486 0.44701 0.0
H226 H 0.19703 0.31472 0.46531 0.0
H227 H 0.1887 0.34954 0.4821 0.0
H228 H 0.19565 0.34776 0.43669 0.0
H229 H 0.07396 0.21128 0.51151 0.0
H230 H 0.03241 0.20755 0.49406 0.0
H231 H 0.05757 0.24054 0.52716 0.0
C232 C 0.75482 0.13066 0.77563 0.0
C233 C 0.74083 0.09366 0.78446 0.0
C234 C 0.78044 0.1589 0.79683 0.0
C235 C 0.79251 0.14979 0.82727 0.0
C236 C 0.77833 0.11249 0.83634 0.0
C237 C 0.75257 0.08491 0.8149 0.0
C238 C 0.79483 0.19845 0.78655 0.0
C239 C 0.79085 0.10167 0.86838 0.0
C240 C 0.88614 0.21787 0.86271 0.0
C241 C 0.87701 0.23271 0.89072 0.0
C242 C 0.85887 0.19108 0.84176 0.0
C243 C 0.82151 0.17906 0.84877 0.0
C244 C 0.81201 0.19399 0.87692 0.0
C245 C 0.83994 0.22055 0.89776 0.0
C246 C 0.87007 0.17541 0.81229 0.0
C247 C 0.77241 0.18194 0.88495 0.0
H248 H 0.74561 0.13756 0.75227 0.0
H249 H 0.74186 0.05635 0.82191 0.0
H250 H 0.79054 0.21361 0.80768 0.0
H251 H 0.82486 0.21206 0.78181 0.0
H252 H 0.78126 0.20093 0.76306 0.0
H253 H 0.77633 0.0714 0.87224 0.0
H254 H 0.82081 0.11187 0.86688 0.0
H255 H 0.78616 0.11454 0.89121 0.0
H256 H 0.91476 0.2271 0.85718 0.0
H257 H 0.83279 0.23215 0.91924 0.0
H258 H 0.85942 0.17985 0.7878 0.0
H259 H 0.85787 0.14528 0.81564 0.0
H260 H 0.90038 0.18799 0.81016 0.0
H261 H 0.75911 0.18635 0.86228 0.0
H262 H 0.76969 0.19706 0.90709 0.0
H263 H 0.75712 0.15209 0.89079 0.0
C264 C 0.70312 0.7842 0.12356 0.0
C265 C 0.67698 0.77811 0.09817 0.0
C266 C 0.70822 0.80705 0.15171 0.0
C267 C 0.6863 0.82379 0.15472 0.0
C268 C 0.66135 0.8194 0.12821 0.0
C269 C 0.65717 0.79677 0.10008 0.0
C270 C 0.73568 0.81174 0.17905 0.0
C271 C 0.63751 0.83687 0.13049 0.0
C272 C 0.66033 0.8438 0.24191 0.0
C273 C 0.68088 0.88227 0.24281 0.0
C274 C 0.66306 0.82423 0.21397 0.0
C275 C 0.68729 0.84364 0.18661 0.0
C276 C 0.71014 0.88224 0.18868 0.0
C277 C 0.70648 0.90114 0.21668 0.0
C278 C 0.63828 0.78301 0.21271 0.0
C279 C 0.7369 0.90381 0.16043 0.0
H280 H 0.71871 0.77002 0.12208 0.0
H281 H 0.63688 0.7921 0.0806 0.0
H282 H 0.75304 0.84117 0.18594 0.0
H283 H 0.72087 0.79685 0.20258 0.0
H284 H 0.75381 0.80093 0.17077 0.0
H285 H 0.6211 0.83256 0.10684 0.0
H286 H 0.61835 0.82499 0.15251 0.0
H287 H 0.65469 0.86685 0.13512 0.0
H288 H 0.64045 0.8291 0.26198 0.0
H289 H 0.72266 0.9309 0.21738 0.0
H290 H 0.65454 0.76936 0.20729 0.0
H291 H 0.61812 0.77576 0.19157 0.0
H292 H 0.62295 0.77181 0.23706 0.0
H293 H 0.75316 0.89067 0.15295 0.0
H294 H 0.75611 0.93271 0.16808 0.0
H295 H 0.72151 0.90409 0.13742 0.0
C296 C 0.88229 0.66897 0.47291 0.0
C297 C 0.87239 0.64506 0.44478 0.0
C298 C 0.85556 0.66938 0.49405 0.0
C299 C 0.81797 0.64505 0.48709 0.0
C300 C 0.80769 0.62081 0.45872 0.0
C301 C 0.8351 0.62125 0.43772 0.0
C302 C 0.86758 0.69598 0.52378 0.0
C303 C 0.7678 0.59436 0.45071 0.0
C304 C 0.75168 0.6269 0.56061 0.0
C305 C 0.73828 0.65056 0.55237 0.0
C306 C 0.77709 0.62417 0.53916 0.0
C307 C 0.78955 0.6459 0.50906 0.0
C308 C 0.77612 0.66984 0.50068 0.0
C309 C 0.75056 0.67177 0.52236 0.0
C310 C 0.79072 0.59819 0.54873 0.0
C311 C 0.78912 0.69379 0.46903 0.0
H312 H 0.91109 0.68753 0.47846 0.0
H313 H 0.82735 0.60257 0.41614 0.0
H314 H 0.85602 0.71453 0.52095 0.0
H315 H 0.85687 0.68072 0.54818 0.0
H316 H 0.89797 0.71305 0.52569 0.0
H317 H 0.76443 0.57679 0.42815 0.0
H318 H 0.75426 0.57635 0.47316 0.0
H319 H 0.75323 0.60979 0.44557 0.0
H320 H 0.74206 0.61026 0.58363 0.0
H321 H 0.74032 0.69014 0.51584 0.0
H322 H 0.82083 0.6139 0.55311 0.0
H323 H 0.78565 0.57876 0.52737 0.0
H324 H 0.7772 0.58212 0.57223 0.0
H325 H 0.81924 0.71277 0.47049 0.0
H326 H 0.77538 0.71038 0.46583 0.0
H327 H 0.7838 0.67654 0.44585 0.0
C328 C 0.16461 0.85626 0.76557 0.0
C329 C 0.18418 0.89467 0.76306 0.0
C330 C 0.14314 0.83883 0.79459 0.0
C331 C 0.14083 0.86038 0.82141 0.0
C332 C 0.15812 0.89899 0.8177 0.0
C333 C 0.17983 0.91572 0.78864 0.0
C334 C 0.12499 0.79752 0.79756 0.0
C335 C 0.15553 0.92282 0.84529 0.0
C336 C 0.06758 0.80469 0.88731 0.0
C337 C 0.08797 0.79784 0.91175 0.0
C338 C 0.08475 0.82713 0.85876 0.0
C339 C 0.1231 0.84257 0.85438 0.0
C340 C 0.14414 0.83791 0.88024 0.0
C341 C 0.12631 0.81579 0.90882 0.0
C342 C 0.06151 0.83226 0.83224 0.0
C343 C 0.18516 0.85404 0.87654 0.0
H344 H 0.16792 0.83987 0.74593 0.0
H345 H 0.19469 0.94546 0.7867 0.0
H346 H 0.13797 0.79032 0.81869 0.0
H347 H 0.09546 0.7855 0.80395 0.0
H348 H 0.12736 0.7846 0.77355 0.0
H349 H 0.16555 0.95137 0.83623 0.0
H350 H 0.12675 0.91105 0.8543 0.0
H351 H 0.17236 0.92391 0.86766 0.0
H352 H 0.03791 0.7911 0.88962 0.0
H353 H 0.14217 0.81053 0.92759 0.0
H354 H 0.05882 0.81554 0.80925 0.0
H355 H 0.07471 0.86141 0.82397 0.0
H356 H 0.0335 0.82367 0.84202 0.0
H357 H 0.1909 0.84056 0.85482 0.0
H358 H 0.19787 0.85034 0.90007 0.0
H359 H 0.19857 0.88383 0.87063 0.0
C360 C 0.43818 -0.00681 0.26942 0.0
C361 C 0.40493 0.97404 0.25154 0.0
C362 C 0.46392 0.98128 0.26883 0.0
C363 C 0.45642 0.94973 0.24949 0.0
C364 C 0.42363 0.93117 0.23018 0.0
C365 C 0.3981 0.94345 0.23157 0.0
C366 C 0.49865 0.00185 0.28981 0.0
C367 C 0.41511 0.89783 0.20884 0.0
C368 C 0.54325 0.94604 0.23574 0.0
C369 C 0.54213 0.92467 0.26382 0.0
C370 C 0.51376 0.9517 0.22869 0.0
C371 C 0.48282 0.93607 0.25064 0.0
C372 C 0.48023 0.91185 0.2772 0.0
C373 C 0.50994 0.90618 0.28334 0.0
C374 C 0.51716 0.97697 0.19961 0.0
C375 C 0.44766 0.89472 0.30119 0.0
H376 H 0.44366 0.01687 0.28484 0.0
H377 H 0.37245 0.92862 0.21761 0.0
H378 H 0.49984 0.98323 0.30932 0.0
H379 H 0.52313 0.01144 0.27309 0.0
H380 H 0.50042 0.02607 0.30316 0.0
H381 H 0.39013 0.88863 0.19286 0.0
H382 H 0.43863 0.90383 0.19181 0.0
H383 H 0.41078 0.87484 0.22588 0.0
H384 H 0.56801 0.95995 0.22034 0.0
H385 H 0.509 0.88957 0.30502 0.0
H386 H 0.52354 0.00408 0.21016 0.0
H387 H 0.49092 0.96578 0.18529 0.0
H388 H 0.53938 0.98136 0.18144 0.0
H389 H 0.44867 0.91624 0.31843 0.0
H390 H 0.44742 0.87272 0.31724 0.0
H391 H 0.42153 0.88295 0.28664 0.0
C392 C 0.52992 0.53674 0.60146 0.0
C393 C 0.54527 0.57064 0.58451 0.0
C394 C 0.49219 0.5118 0.59984 0.0
C395 C 0.46928 0.52077 0.58037 0.0
C396 C 0.48474 0.55426 0.56198 0.0
C397 C 0.52266 0.579 0.56443 0.0
C398 C 0.47673 0.47626 0.61984 0.0
C399 C 0.46117 0.56437 0.54055 0.0
C400 C 0.37947 0.43434 0.56492 0.0
C401 C 0.35923 0.43449 0.59342 0.0
C402 C 0.41421 0.46445 0.5579 0.0
C403 C 0.4291 0.49494 0.58037 0.0
C404 C 0.40716 0.49677 0.60705 0.0
C405 C 0.37217 0.46646 0.61313 0.0
C406 C 0.43635 0.46191 0.52861 0.0
C407 C 0.42209 0.52889 0.63152 0.0
H408 H 0.54725 0.53007 0.61694 0.0
H409 H 0.53445 0.60517 0.5512 0.0
H410 H 0.45639 0.47476 0.63889 0.0
H411 H 0.46218 0.45244 0.60231 0.0
H412 H 0.49838 0.47351 0.63362 0.0
H413 H 0.47792 0.58924 0.52467 0.0
H414 H 0.44296 0.54126 0.52344 0.0
H415 H 0.44322 0.5698 0.55754 0.0
H416 H 0.36912 0.40974 0.54933 0.0
H417 H 0.35644 0.46666 0.6351 0.0
H418 H 0.45662 0.4547 0.53882 0.0
H419 H 0.45187 0.48867 0.51516 0.0
H420 H 0.41862 0.44051 0.50976 0.0
H421 H 0.44183 0.52721 0.64931 0.0
H422 H 0.39994 0.52904 0.647 0.0
H423 H 0.43713 0.55532 0.61749 0.0
C424 C 0.0696 0.60289 0.94789 0.0
C425 C 0.05308 0.61814 0.92762 0.0
C426 C 0.06238 0.56694 0.94185 0.0
C427 C 0.03861 0.54637 0.91464 0.0
C428 C 0.02554 0.56336 0.89174 0.0
C429 C 0.0327 0.59905 0.8987 0.0
C430 C 0.07692 0.54977 0.96679 0.0
C431 C 0.00093 0.54267 0.86193 0.0
C432 C 0.0238 0.45077 0.89823 0.0
C433 C -0.008 0.42914 0.91767 0.0
C434 C 0.03896 0.48903 0.89611 0.0
C435 C 0.02203 0.50585 0.91413 0.0
C436 C -0.01077 0.48397 0.93282 0.0
C437 C 0.97451 0.44586 0.93416 0.0
C438 C 0.07359 0.51148 0.87551 0.0
C439 C 0.97028 0.50093 0.95236 0.0
H440 H 0.08544 0.61767 0.97024 0.0
H441 H 0.02034 0.61113 0.88275 0.0
H442 H 0.05429 0.53063 0.98393 0.0
H443 H 0.08719 0.53355 0.95306 0.0
H444 H 0.09944 0.57076 0.98291 0.0
H445 H -0.00077 0.56156 0.843 0.0
H446 H 0.01086 0.52587 0.84871 0.0
H447 H 0.97279 0.52365 0.87155 0.0
H448 H 0.03738 0.43793 0.88533 0.0
H449 H 0.94988 0.42929 0.94914 0.0
H450 H 0.09678 0.52836 0.89307 0.0
H451 H 0.07043 0.53071 0.85821 0.0
H452 H 0.08092 0.49393 0.85991 0.0
H453 H -0.01085 0.52018 0.97204 0.0
H454 H 0.9448 0.47996 0.96533 0.0
H455 H 0.96302 0.51705 0.9347 0.0
C456 C 0.01225 0.56626 0.44029 0.0
C457 C -0.0181 0.55743 0.41915 0.0
C458 C 0.02673 0.5426 0.44292 0.0
C459 C 0.01066 0.50969 0.42363 0.0
C460 C 0.9792 0.50004 0.40326 0.0
C461 C 0.96506 0.52392 0.40147 0.0
C462 C 0.05986 0.55337 0.46536 0.0
C463 C 0.96123 0.46508 0.38231 0.0
C464 C 0.06058 0.46185 0.39139 0.0
C465 C 0.043 0.42922 0.41039 0.0
C466 C 0.05264 0.4901 0.3974 0.0
C467 C 0.02706 0.48557 0.42332 0.0
C468 C 0.01256 0.45446 0.44504 0.0
C469 C 0.02048 0.42642 0.4381 0.0
C470 C 0.0687 0.52295 0.37372 0.0
C471 C -0.01402 0.44911 0.47352 0.0
H472 H 0.02528 0.5921 0.45414 0.0
H473 H 0.94155 0.5169 0.38517 0.0
H474 H 0.05538 0.53004 0.482 0.0
H475 H 0.08414 0.56037 0.44906 0.0
H476 H 0.06628 0.57746 0.4818 0.0
H477 H 0.93662 0.46141 0.36822 0.0
H478 H -0.01883 0.46542 0.36342 0.0
H479 H 0.95279 0.44089 0.39918 0.0
H480 H 0.07809 0.46409 0.37 0.0
H481 H 0.00728 0.40132 0.45311 0.0
H482 H 0.07836 0.54877 0.38841 0.0
H483 H 0.04709 0.52049 0.35574 0.0
H484 H 0.09201 0.52505 0.35843 0.0
H485 H -0.00496 0.47514 0.48772 0.0
H486 H -0.01704 0.42755 0.49191 0.0
H487 H 0.95857 0.44063 0.46239 0.0
C488 C 0.53204 -0.004 0.7319 0.0
C489 C 0.54779 0.97825 0.74957 0.0
C490 C 0.49415 0.98259 0.73312 0.0
C491 C 0.47149 0.95082 0.75283 0.0
C492 C 0.4873 0.93343 0.77171 0.0
C493 C 0.52537 0.9473 0.76975 0.0
C494 C 0.4783 0.00199 0.71263 0.0
C495 C 0.46395 0.89982 0.7933 0.0
C496 C 0.38101 0.94612 0.7687 0.0
C497 C 0.36063 0.92515 0.74053 0.0
C498 C 0.41613 0.95157 0.77537 0.0
C499 C 0.43124 0.93613 0.75293 0.0
C500 C 0.40928 0.91188 0.72656 0.0
C501 C 0.37393 0.90643 0.7208 0.0
C502 C 0.43834 0.97686 0.80426 0.0
C503 C 0.42444 0.89484 0.70213 0.0
H504 H 0.54921 0.01995 0.71632 0.0
H505 H 0.53746 0.93348 0.7835 0.0
H506 H 0.45815 0.98273 0.6937 0.0
H507 H 0.46343 0.01118 0.72985 0.0
H508 H 0.49978 0.02633 0.69863 0.0
H509 H 0.48082 0.89139 0.80863 0.0
H510 H 0.44635 0.90504 0.81097 0.0
H511 H 0.44537 0.87656 0.77651 0.0
H512 H 0.37042 0.96017 0.78428 0.0
H513 H 0.35813 0.8901 0.69906 0.0
H514 H 0.45832 0.0042 0.79361 0.0
H515 H 0.45419 0.96609 0.81789 0.0
H516 H 0.42062 0.98065 0.82307 0.0
H517 H 0.44369 0.91617 0.684 0.0
H518 H 0.40234 0.8721 0.68704 0.0
H519 H 0.44009 0.8841 0.71615 0.0
C520 C 0.39609 0.43217 0.10595 0.0
C521 C 0.40279 0.40926 0.08457 0.0
C522 C 0.42156 0.46991 0.10835 0.0
C523 C 0.45412 0.48492 0.08858 0.0
C524 C 0.4616 0.46166 0.06796 0.0
C525 C 0.43596 0.42406 0.06642 0.0
C526 C 0.4131 0.49383 0.13111 0.0
C527 C 0.4961 0.47668 0.04646 0.0
C528 C 0.50584 0.58277 0.05655 0.0
C529 C 0.53848 0.59638 0.07531 0.0
C530 C 0.47658 0.5471 0.06244 0.0
C531 C 0.4801 0.52508 0.08803 0.0
C532 C 0.51151 0.54021 0.10935 0.0
C533 C 0.54055 0.57566 0.1025 0.0
C534 C 0.4435 0.53185 0.03912 0.0
C535 C 0.51585 0.51793 0.13745 0.0
H536 H 0.37052 0.42079 0.12016 0.0
H537 H 0.44136 0.4065 0.04993 0.0
H538 H 0.43705 0.51147 0.14761 0.0
H539 H 0.40758 0.51235 0.11505 0.0
H540 H 0.38878 0.47735 0.14771 0.0
H541 H 0.49798 0.45475 0.03222 0.0
H542 H 0.49678 0.49687 0.02766 0.0
H543 H 0.52077 0.49134 0.06296 0.0
H544 H 0.50418 0.59881 0.03555 0.0
H545 H 0.56568 0.58644 0.11733 0.0
H546 H 0.41771 0.51706 0.05413 0.0
H547 H 0.44435 0.51176 0.02118 0.0
H548 H 0.44268 0.55375 0.0238 0.0
H549 H 0.4899 0.50223 0.15212 0.0
H550 H 0.53827 0.53556 0.15551 0.0
H551 H 0.52247 0.49776 0.12591 0.0
C552 C 0.04024 0.77991 0.35849 0.0
C553 C 0.05711 0.76804 0.38242 0.0
C554 C 0.06131 0.81204 0.33934 0.0
C555 C 0.09976 0.83211 0.34434 0.0
C556 C 0.11551 0.82369 0.3726 0.0
C557 C 0.09384 0.79162 0.3914 0.0
C558 C 0.04303 0.82163 0.31109 0.0
C559 C 0.15626 0.8454 0.37995 0.0
C560 C 0.16892 0.85636 0.27489 0.0
C561 C 0.19136 0.89401 0.28113 0.0
C562 C 0.1355 0.83612 0.29216 0.0
C563 C 0.12448 0.85423 0.31605 0.0
C564 C 0.14384 0.89303 0.31779 0.0
C565 C 0.17737 0.91265 0.30029 0.0
C566 C 0.11475 0.79476 0.28827 0.0
C567 C 0.13167 0.91361 0.34108 0.0
H568 H 0.01148 0.76232 0.35206 0.0
H569 H 0.10664 0.78314 0.41075 0.0
H570 H 0.05863 0.85136 0.30472 0.0
H571 H 0.04131 0.80582 0.2877 0.0
H572 H 0.01455 0.81406 0.31849 0.0
H573 H 0.16325 0.83783 0.405 0.0
H574 H 0.17147 0.84014 0.35952 0.0
H575 H 0.16602 0.87528 0.38012 0.0
H576 H 0.17906 0.84206 0.2591 0.0
H577 H 0.19409 0.94203 0.30445 0.0
H578 H 0.08498 0.78447 0.28479 0.0
H579 H 0.11812 0.7819 0.31184 0.0
H580 H 0.12472 0.78555 0.26609 0.0
H581 H 0.10155 0.89809 0.34559 0.0
H582 H 0.13937 0.94095 0.33009 0.0
H583 H 0.14574 0.91832 0.36618 0.0
C584 C 0.33625 0.22759 0.62994 0.0
C585 C 0.31372 0.23833 0.64682 0.0
C586 C 0.33303 0.19334 0.6366 0.0
C587 C 0.30751 0.17 0.66154 0.0
C588 C 0.28406 0.18037 0.67805 0.0
C589 C 0.28711 0.21433 0.67008 0.0
C590 C 0.35778 0.18269 0.61779 0.0
C591 C 0.25722 0.15657 0.7054 0.0
C592 C 0.28677 0.0713 0.66345 0.0
C593 C 0.3134 0.07382 0.68664 0.0
C594 C 0.28385 0.1023 0.65551 0.0
C595 C 0.30743 0.13609 0.67196 0.0
C596 C 0.33292 0.13815 0.69686 0.0
C597 C 0.33601 0.10704 0.70349 0.0
C598 C 0.25701 0.09939 0.62823 0.0
C599 C 0.35779 0.1735 0.71562 0.0
H600 H 0.35663 0.24615 0.61175 0.0
H601 H 0.26994 0.22291 0.68335 0.0
H602 H 0.3778 0.18211 0.63597 0.0
H603 H 0.3414 0.15467 0.60683 0.0
H604 H 0.3733 0.20217 0.59675 0.0
H605 H 0.2392 0.16738 0.71401 0.0
H606 H 0.23971 0.1281 0.69588 0.0
H607 H 0.2726 0.15508 0.7279 0.0
H608 H 0.26953 0.04558 0.65022 0.0
H609 H 0.35639 0.10877 0.72162 0.0
H610 H 0.27239 0.11616 0.60568 0.0
H611 H 0.23963 0.11051 0.63779 0.0
H612 H 0.23886 0.07058 0.61969 0.0
H613 H 0.37787 0.19401 0.69742 0.0
H614 H 0.37325 0.16944 0.73666 0.0
H615 H 0.34152 0.18528 0.72659 0.0
C616 C 0.17509 0.25114 0.02984 0.0
C617 C 0.18967 0.28201 0.05146 0.0
C618 C 0.14205 0.23992 0.01218 0.0
C619 C 0.12387 0.26034 0.01623 0.0
C620 C 0.13525 0.28728 0.04241 0.0
C621 C 0.1681 0.29773 0.05983 0.0
C622 C 0.12932 0.20923 0.98635 0.0
C623 C 0.11573 0.30877 0.04875 0.0
C624 C 0.09769 0.30098 0.94438 0.0
C625 C 0.06087 0.28831 0.95269 0.0
C626 C 0.11785 0.28792 0.96201 0.0
C627 C 0.10048 0.2615 0.98838 0.0
C628 C 0.06195 0.24411 0.99252 0.0
C629 C 0.04242 0.25788 0.9746 0.0
C630 C 0.15876 0.3062 0.95562 0.0
C631 C 0.04194 0.21406 0.01862 0.0
H632 H 0.1911 0.23804 0.02397 0.0
H633 H 0.17867 0.32074 0.07748 0.0
H634 H 0.09929 0.19592 0.98165 0.0
H635 H 0.1438 0.22045 0.96168 0.0
H636 H 0.13603 0.18809 0.99514 0.0
H637 H 0.12569 0.32579 0.07235 0.0
H638 H 0.12035 0.3273 0.02668 0.0
H639 H 0.08571 0.28994 0.05121 0.0
H640 H 0.11172 0.32365 0.92654 0.0
H641 H 0.01359 0.24717 0.98047 0.0
H642 H 0.16745 0.28533 0.95334 0.0
H643 H 0.1738 0.32434 0.97758 0.0
H644 H 0.1671 0.32314 0.93191 0.0
H645 H 0.0565 0.1986 0.02374 0.0
H646 H 0.01356 0.19456 0.00983 0.0
H647 H 0.03979 0.22638 0.04306 0.0
C648 C 0.90875 0.20895 0.33034 0.0
C649 C 0.90423 0.23167 0.3538 0.0
C650 C 0.8791 0.17439 0.32171 0.0
C651 C 0.84465 0.16223 0.33762 0.0
C652 C 0.84071 0.18416 0.36298 0.0
C653 C 0.87048 0.21892 0.37041 0.0
C654 C 0.88405 0.15202 0.2941 0.0
C655 C 0.80457 0.17164 0.38114 0.0
C656 C 0.75408 0.10062 0.29428 0.0
C657 C 0.74272 0.06725 0.3112 0.0
C658 C 0.7886 0.13117 0.30088 0.0
C659 C 0.81167 0.12839 0.32571 0.0
C660 C 0.80107 0.09424 0.34164 0.0
C661 C 0.76673 0.0638 0.33383 0.0
C662 C 0.79946 0.16695 0.28268 0.0
C663 C 0.82471 0.09046 0.36867 0.0
H664 H 0.93489 0.21902 0.31736 0.0
H665 H 0.86721 0.23644 0.38881 0.0
H666 H 0.87249 0.12304 0.30239 0.0
H667 H 0.86885 0.15187 0.27078 0.0
H668 H 0.91342 0.16328 0.28719 0.0
H669 H 0.80728 0.19005 0.40278 0.0
H670 H 0.78415 0.1711 0.36275 0.0
H671 H 0.79351 0.14331 0.39118 0.0
H672 H 0.73557 0.10306 0.27649 0.0
H673 H 0.75776 0.03796 0.34704 0.0
H674 H 0.82789 0.17925 0.27258 0.0
H675 H 0.79893 0.18684 0.30108 0.0
H676 H 0.78065 0.16327 0.2611 0.0
H677 H 0.85369 0.10335 0.36 0.0
H678 H 0.81485 0.06125 0.37529 0.0
H679 H 0.82433 0.10505 0.39226 0.0
C680 C 0.72 0.79493 0.63743 0.0
C681 C 0.68792 0.78274 0.61781 0.0
C682 C 0.73466 0.828 0.65585 0.0
C683 C 0.7164 0.84857 0.65471 0.0
C684 C 0.6882 0.83957 0.6302 0.0
C685 C 0.6744 0.80669 0.61187 0.0
C686 C 0.76685 0.83832 0.67938 0.0
C687 C 0.66894 0.86171 0.62675 0.0
C688 C 0.68104 0.87484 0.73017 0.0
C689 C 0.6935 0.91167 0.72198 0.0
C690 C 0.69313 0.85449 0.71145 0.0
C691 C 0.7184 0.87176 0.68421 0.0
C692 C 0.73648 0.9104 0.68077 0.0
C693 C 0.7236 0.93012 0.69968 0.0
C694 C 0.67453 0.81348 0.71743 0.0
C695 C 0.76596 0.93034 0.65419 0.0
H696 H 0.73152 0.77712 0.64125 0.0
H697 H 0.65051 0.79801 0.59562 0.0
H698 H 0.78111 0.86792 0.68628 0.0
H699 H 0.75708 0.82183 0.70326 0.0
H700 H 0.78688 0.83189 0.66712 0.0
H701 H 0.64995 0.85282 0.60446 0.0
H702 H 0.65275 0.85855 0.6503 0.0
H703 H 0.68926 0.89131 0.62369 0.0
H704 H 0.65883 0.86086 0.74848 0.0
H705 H 0.73442 0.95903 0.69408 0.0
H706 H 0.69514 0.80436 0.71837 0.0
H707 H 0.65541 0.79879 0.69595 0.0
H708 H 0.65856 0.80517 0.74172 0.0
H709 H 0.78661 0.95808 0.66358 0.0
H710 H 0.75346 0.93414 0.63062 0.0
H711 H 0.78013 0.91486 0.64739 0.0
C712 C 0.75082 0.63668 0.03682 0.0
C713 C 0.73853 0.65862 0.02129 0.0
C714 C 0.78597 0.64235 0.02996 0.0
C715 C 0.80877 0.66989 0.00622 0.0
C716 C 0.79699 0.69302 0.99139 0.0
C717 C 0.76202 0.68738 -0.00051 0.0
C718 C 0.79805 0.61779 0.04699 0.0
C719 C 0.8203 0.72212 0.96544 0.0
C720 C 0.90796 0.69247 0.00388 0.0
C721 C 0.90604 0.66702 0.97957 0.0
C722 C 0.87672 0.69487 0.01205 0.0
C723 C 0.84332 0.67192 0.99476 0.0
C724 C 0.84202 0.64802 0.9685 0.0
C725 C 0.87335 0.64545 0.96157 0.0
C726 C 0.87886 0.7201 0.04066 0.0
C727 C 0.80709 0.62384 0.94886 0.0
H728 H 0.73267 0.61467 0.05394 0.0
H729 H 0.75231 0.70418 0.98731 0.0
H730 H 0.79957 0.59924 0.02761 0.0
H731 H 0.82591 0.63452 0.05816 0.0
H732 H 0.77885 0.60064 0.0676 0.0
H733 H 0.80887 0.74023 0.95905 0.0
H734 H 0.84876 0.73938 0.97506 0.0
H735 H 0.82193 0.70867 0.94153 0.0
H736 H 0.93329 0.70896 0.01794 0.0
H737 H 0.8721 0.62604 0.94253 0.0
H738 H 0.86313 0.70336 0.0631 0.0
H739 H 0.86621 0.73666 0.03271 0.0
H740 H 0.90763 0.73902 0.04883 0.0
H741 H 0.78674 0.60221 0.9661 0.0
H742 H 0.81189 0.61023 0.92662 0.0
H743 H 0.79476 0.64023 0.93945 0.0
C744 C 0.31151 -0.01109 0.41359 0.0
C745 C 0.31212 0.96053 0.39513 0.0
C746 C 0.30984 -0.01189 0.44963 0.0
C747 C 0.30876 0.95825 0.46762 0.0
C748 C 0.30906 0.92941 0.44914 0.0
C749 C 0.31075 0.9309 0.41322 0.0
C750 C 0.3096 0.0194 0.46849 0.0
C751 C 0.30803 0.89712 0.46733 0.0
C752 C 0.34303 0.97319 0.55949 0.0
C753 C 0.3101 0.95679 0.57833 0.0
C754 C 0.3429 0.97393 0.52356 0.0
C755 C 0.30901 0.95784 0.50581 0.0
C756 C 0.27562 0.94085 0.52453 0.0
C757 C 0.27655 0.94049 0.56058 0.0
C758 C 0.37911 -0.00788 0.50457 0.0
C759 C 0.23895 0.9233 0.50645 0.0
H760 H 0.31239 0.01182 0.39991 0.0
H761 H 0.31106 0.9087 0.39933 0.0
H762 H 0.28516 0.00863 0.48545 0.0
H763 H 0.33426 0.03348 0.4851 0.0
H764 H 0.3093 0.03996 0.45075 0.0
H765 H 0.30724 0.87635 0.44917 0.0
H766 H 0.33264 0.90685 0.48389 0.0
H767 H 0.28355 0.88356 0.48423 0.0
H768 H 0.36915 0.98586 0.57284 0.0
H769 H 0.25097 0.92789 0.57484 0.0
H770 H 0.38118 0.01478 0.48833 0.0
H771 H 0.3807 0.97199 0.48725 0.0
H772 H 0.40308 0.00349 0.52219 0.0
H773 H 0.2369 0.94406 0.49044 0.0
H774 H 0.21548 0.91121 0.52468 0.0
H775 H 0.23649 0.90132 0.48899 0.0
C776 C 0.31125 0.36953 0.92221 0.0
C777 C 0.31215 0.34014 0.93854 0.0
C778 C 0.30992 0.37138 0.88637 0.0
C779 C 0.30955 0.34321 0.86619 0.0
C780 C 0.31029 0.31336 0.88239 0.0
C781 C 0.31156 0.31216 0.91838 0.0
C782 C 0.30921 0.4037 0.8701 0.0
C783 C 0.31001 0.28284 0.86168 0.0
C784 C 0.27725 0.33278 0.77351 0.0
C785 C 0.31078 0.35041 0.7557 0.0
C786 C 0.27637 0.33027 0.8095 0.0
C787 C 0.30979 0.34578 0.82809 0.0
C788 C 0.34366 0.36415 0.81032 0.0
C789 C 0.34374 0.36626 0.77444 0.0
C790 C 0.23972 0.31063 0.82761 0.0
C791 C 0.37989 0.38125 0.82921 0.0
H792 H 0.31155 0.39128 0.93743 0.0
H793 H 0.31212 0.2893 0.93069 0.0
H794 H 0.33382 0.41921 0.85365 0.0
H795 H 0.28473 0.39385 0.85336 0.0
H796 H 0.30865 0.42283 0.88944 0.0
H797 H 0.30975 0.26111 0.87815 0.0
H798 H 0.28553 0.27006 0.84474 0.0
H799 H 0.33463 0.29424 0.84491 0.0
H800 H 0.25165 0.32035 0.75932 0.0
H801 H 0.36983 0.38001 0.76104 0.0
H802 H 0.23759 0.32935 0.84637 0.0
H803 H 0.23738 0.28687 0.84221 0.0
H804 H 0.21623 0.30052 0.8095 0.0
H805 H 0.38145 0.402 0.84777 0.0
H806 H 0.40384 0.39478 0.8116 0.0
H807 H 0.38203 0.35987 0.84409 0.0
C808 C 0.03023 0.3374 0.22753 0.0
C809 C 0.01433 0.35404 0.24689 0.0
C810 C 0.02855 0.33679 0.1915 0.0
C811 C 0.01068 0.35334 0.17445 0.0
C812 C -0.00471 0.37084 0.19381 0.0
C813 C -0.00273 0.37096 0.2297 0.0
C814 C 0.04539 0.31797 0.17168 0.0
C815 C 0.97629 0.38908 0.17661 0.0
C816 C 0.033 0.38115 0.08104 0.0
C817 C 0.00275 0.3525 0.06403 0.0
C818 C 0.03605 0.38156 0.11687 0.0
C819 C 0.00819 0.35264 0.13634 0.0
C820 C 0.97752 0.32365 0.11945 0.0
C821 C 0.97513 0.32394 0.08349 0.0
C822 C 0.0691 0.41304 0.13389 0.0
C823 C 0.94723 0.29235 0.13939 0.0
H824 H 0.04333 0.32414 0.24052 0.0
H825 H -0.01502 0.38402 0.24433 0.0
H826 H 0.02387 0.29498 0.15644 0.0
H827 H 0.06615 0.33754 0.15333 0.0
H828 H 0.0588 0.30691 0.1887 0.0
H829 H 0.96618 0.40194 0.19534 0.0
H830 H -0.00457 0.41058 0.15857 0.0
H831 H 0.95259 0.36853 0.16137 0.0
H832 H 0.05457 0.40338 0.06635 0.0
H833 H 0.95175 0.30162 0.07065 0.0
H834 H 0.08391 0.40237 0.14938 0.0
H835 H 0.06008 0.42763 0.15169 0.0
H836 H 0.0886 0.4332 0.11504 0.0
H837 H 0.9588 0.27847 0.15505 0.0
H838 H 0.92552 0.27162 0.12243 0.0
H839 H 0.93437 0.30313 0.15735 0.0
C840 C 0.64488 0.94317 0.44277 0.0
C841 C 0.62701 0.9585 0.42443 0.0
C842 C 0.64662 0.94475 0.4788 0.0
C843 C 0.62995 0.96188 0.4969 0.0
C844 C 0.61148 0.97694 0.47857 0.0
C845 C 0.61028 0.97511 0.44265 0.0
C846 C 0.66655 0.92838 0.4975 0.0
C847 C 0.59304 -0.00487 0.49689 0.0
C848 C 0.60268 0.93723 0.59011 0.0
C849 C 0.63067 0.96769 0.60748 0.0
C850 C 0.60247 0.93478 0.55425 0.0
C851 C 0.63097 0.96344 0.53508 0.0
C852 C 0.65951 -0.00585 0.55234 0.0
C853 C 0.659 -0.00405 0.58834 0.0
C854 C 0.57145 0.90166 0.53685 0.0
C855 C 0.69042 0.02523 0.53273 0.0
H856 H 0.65805 0.93047 0.42897 0.0
H857 H 0.59633 0.98699 0.42882 0.0
H858 H 0.68925 0.94988 0.51302 0.0
H859 H 0.64752 0.90674 0.5155 0.0
H860 H 0.67817 0.91613 0.4797 0.0
H861 H 0.57984 0.00553 0.47886 0.0
H862 H 0.57177 0.9753 0.51472 0.0
H863 H 0.6135 0.0185 0.51252 0.0
H864 H 0.58066 0.91514 0.60454 0.0
H865 H 0.68084 0.01949 0.60146 0.0
H866 H 0.58262 0.88792 0.52047 0.0
H867 H 0.55609 0.91049 0.51986 0.0
H868 H 0.55187 0.88127 0.5555 0.0
H869 H 0.70434 0.0144 0.51616 0.0
H870 H 0.71118 0.04655 0.54997 0.0
H871 H 0.67921 0.03841 0.51567 0.0
C872 C 0.63684 0.68816 0.89611 0.0
C873 C 0.61995 0.65418 0.91319 0.0
C874 C 0.63844 0.68996 0.86008 0.0
C875 C 0.62265 0.65703 0.8407 0.0
C876 C 0.60506 0.6227 0.85777 0.0
C877 C 0.60395 0.62169 0.89371 0.0
C878 C 0.65737 0.72709 0.84275 0.0
C879 C 0.5876 0.58695 0.83806 0.0
C880 C 0.59571 0.65798 0.74796 0.0
C881 C 0.62452 0.65756 0.72998 0.0
C882 C 0.59506 0.6583 0.7839 0.0
C883 C 0.62392 0.65825 0.80253 0.0
C884 C 0.65322 0.65804 0.78466 0.0
C885 C 0.65315 0.65764 0.7486 0.0
C886 C 0.56323 0.65834 0.80195 0.0
C887 C 0.68451 0.65801 0.80368 0.0
H888 H 0.64942 0.7134 0.91087 0.0
H889 H 0.59074 0.59526 0.90656 0.0
H890 H 0.68058 0.72986 0.82691 0.0
H891 H 0.63797 0.72965 0.82522 0.0
H892 H 0.66813 0.75012 0.86145 0.0
H893 H 0.57483 0.56254 0.85519 0.0
H894 H 0.56616 0.58565 0.82055 0.0
H895 H 0.60857 0.58541 0.82195 0.0
H896 H 0.57343 0.65797 0.73394 0.0
H897 H 0.6756 0.65749 0.73502 0.0
H898 H 0.57353 0.68241 0.81932 0.0
H899 H 0.54843 0.63331 0.81803 0.0
H900 H 0.54336 0.65921 0.78372 0.0
H901 H 0.69775 0.68205 0.82113 0.0
H902 H 0.70573 0.65888 0.78606 0.0
H903 H 0.67383 0.63295 0.81979 0.0
C904 C 0.97154 0.64897 0.25246 0.0
C905 C -0.00125 0.64802 0.27259 0.0
C906 C 0.97498 0.65225 0.21657 0.0
C907 C 0.00634 0.65461 0.20043 0.0
C908 C 0.03384 0.65366 0.22057 0.0
C909 C 0.02973 0.65037 0.25631 0.0
C910 C 0.94502 0.65311 0.1959 0.0
C911 C 0.06763 0.65599 0.20437 0.0
C912 C -0.0013 0.6265 0.10694 0.0
C913 C 0.0159 0.66063 0.09003 0.0
C914 C -0.00447 0.62423 0.14276 0.0
C915 C 0.00989 0.65687 0.16237 0.0
C916 C 0.02785 0.69146 0.14564 0.0
C917 C 0.03069 0.69294 0.10966 0.0
C918 C 0.97643 0.58682 0.15962 0.0
C919 C 0.04364 0.72686 0.16573 0.0
H920 H 0.94761 0.64735 0.26473 0.0
H921 H 0.05102 0.64977 0.27151 0.0
H922 H 0.95674 0.6787 0.18044 0.0
H923 H 0.93289 0.62967 0.17771 0.0
H924 H 0.92273 0.65167 0.21234 0.0
H925 H 0.0868 0.65548 0.22369 0.0
H926 H 0.05947 0.63265 0.18645 0.0
H927 H 0.08253 0.68166 0.18915 0.0
H928 H -0.01277 0.60132 0.09212 0.0
H929 H 0.0439 0.71942 0.0969 0.0
H930 H 0.95224 0.58325 0.17433 0.0
H931 H -0.00475 0.58449 0.17809 0.0
H932 H 0.96703 0.56408 0.14072 0.0
H933 H 0.02148 0.72778 0.18044 0.0
H934 H 0.05717 0.75151 0.14895 0.0
H935 H 0.06406 0.7282 0.18457 0.0
loop_
_geom_bond_atom_site_label_1
_geom_bond_atom_site_label_2
_geom_bond_distance
_geom_bond_site_symmetry_2
_ccdc_geom_bond_type
C0 O1 1.306 . S
C0 O3 1.160 . S
O1 C0 1.306 . S
O1 Cd2 2.228 . S
Cd2 O1 2.228 . S
Cd2 O6 2.273 . S
Cd2 O10 2.277 . S
O3 C0 1.160 . S
O3 Cd4 2.203 1_565 S
Cd4 O3 2.203 1_545 S
Cd4 O6 2.411 1_545 S
Cd4 O7 2.333 . S
Cd4 O8 2.352 . S
Cd4 O12 2.277 . S
Cd4 O13 2.356 . S
C5 O10 1.209 1_545 S
C5 O12 1.226 . S
O6 Cd2 2.273 . S
O6 Cd4 2.411 1_565 S
O6 C9 1.320 1_565 S
O7 Cd4 2.333 . S
O7 C9 1.214 . S
O8 Cd4 2.352 . S
O8 C11 1.258 . S
C9 O6 1.320 1_545 S
C9 O7 1.214 . S
O10 Cd2 2.277 . S
O10 C5 1.209 1_565 S
C11 O8 1.258 . S
C11 O13 1.282 . S
O12 Cd4 2.277 . S
O12 C5 1.226 . S
O13 Cd4 2.356 . S
O13 C11 1.282 . S
C14 O15 1.306 . S
C14 O17 1.160 . S
O15 C14 1.306 . S
O15 Cd16 2.228 . S
Cd16 O15 2.228 . S
Cd16 O20 2.273 . S
Cd16 O24 2.277 . S
O17 C14 1.160 . S
O17 Cd18 2.203 . S
Cd18 O17 2.203 . S
Cd18 O20 2.411 . S
Cd18 O21 2.333 . S
Cd18 O22 2.352 . S
Cd18 O26 2.277 . S
Cd18 O27 2.356 . S
C19 O24 1.209 . S
C19 O26 1.226 . S
O20 Cd16 2.273 . S
O20 Cd18 2.411 . S
O20 C23 1.320 . S
O21 Cd18 2.333 . S
O21 C23 1.214 . S
O22 Cd18 2.352 . S
O22 C25 1.258 . S
C23 O20 1.320 . S
C23 O21 1.214 . S
O24 Cd16 2.277 . S
O24 C19 1.209 . S
C25 O22 1.258 . S
C25 O27 1.282 . S
O26 Cd18 2.277 . S
O26 C19 1.226 . S
O27 Cd18 2.356 . S
O27 C25 1.282 . S
C28 O29 1.306 . S
C28 O31 1.160 . S
O29 C28 1.306 . S
O29 Cd30 2.228 1_556 S
Cd30 O29 2.228 1_554 S
Cd30 O34 2.273 1_554 S
Cd30 O38 2.277 . S
O31 C28 1.160 . S
O31 Cd32 2.203 1_455 S
Cd32 O31 2.203 1_655 S
Cd32 O34 2.411 1_655 S
Cd32 O35 2.333 . S
Cd32 O36 2.352 . S
Cd32 O40 2.277 1_556 S
Cd32 O41 2.356 . S
C33 O38 1.209 1_655 S
C33 O40 1.226 . S
O34 Cd30 2.273 1_556 S
O34 Cd32 2.411 1_455 S
O34 C37 1.320 1_455 S
O35 Cd32 2.333 . S
O35 C37 1.214 . S
O36 Cd32 2.352 . S
O36 C39 1.258 . S
C37 O34 1.320 1_655 S
C37 O35 1.214 . S
O38 Cd30 2.277 . S
O38 C33 1.209 1_455 S
C39 O36 1.258 . S
C39 O41 1.282 . S
O40 Cd32 2.277 1_554 S
O40 C33 1.226 . S
O41 Cd32 2.356 . S
O41 C39 1.282 . S
C42 O43 1.306 . S
C42 O45 1.160 . S
O43 C42 1.306 . S
O43 Cd44 2.228 . S
Cd44 O43 2.228 . S
Cd44 O48 2.273 . S
Cd44 O52 2.277 . S
O45 C42 1.160 . S
O45 Cd46 2.203 1_545 S
Cd46 O45 2.203 1_565 S
Cd46 O48 2.411 1_565 S
Cd46 O49 2.333 . S
Cd46 O50 2.352 . S
Cd46 O54 2.277 . S
Cd46 O55 2.356 . S
C47 O52 1.209 1_565 S
C47 O54 1.226 . S
O48 Cd44 2.273 . S
O48 Cd46 2.411 1_545 S
O48 C51 1.320 1_545 S
O49 Cd46 2.333 . S
O49 C51 1.214 . S
O50 Cd46 2.352 . S
O50 C53 1.258 . S
C51 O48 1.320 1_565 S
C51 O49 1.214 . S
O52 Cd44 2.277 . S
O52 C47 1.209 1_545 S
C53 O50 1.258 . S
C53 O55 1.282 . S
O54 Cd46 2.277 . S
O54 C47 1.226 . S
O55 Cd46 2.356 . S
O55 C53 1.282 . S
C56 O57 1.306 . S
C56 O59 1.160 . S
O57 C56 1.306 . S
O57 Cd58 2.228 . S
Cd58 O57 2.228 . S
Cd58 O62 2.273 . S
Cd58 O66 2.277 . S
O59 C56 1.160 . S
O59 Cd60 2.203 . S
Cd60 O59 2.203 . S
Cd60 O62 2.411 . S
Cd60 O63 2.333 . S
Cd60 O64 2.352 . S
Cd60 O68 2.277 . S
Cd60 O69 2.356 . S
C61 O66 1.209 . S
C61 O68 1.226 . S
O62 Cd58 2.273 . S
O62 Cd60 2.411 . S
O62 C65 1.320 . S
O63 Cd60 2.333 . S
O63 C65 1.214 . S
O64 Cd60 2.352 . S
O64 C67 1.258 . S
C65 O62 1.320 . S
C65 O63 1.214 . S
O66 Cd58 2.277 . S
O66 C61 1.209 . S
C67 O64 1.258 . S
C67 O69 1.282 . S
O68 Cd60 2.277 . S
O68 C61 1.226 . S
O69 Cd60 2.356 . S
O69 C67 1.282 . S
C70 O71 1.306 . S
C70 O73 1.160 . S
O71 C70 1.306 . S
O71 Cd72 2.228 1_556 S
Cd72 O71 2.228 1_554 S
Cd72 O76 2.273 1_554 S
Cd72 O80 2.277 . S
O73 C70 1.160 . S
O73 Cd74 2.203 1_655 S
Cd74 O73 2.203 1_455 S
Cd74 O76 2.411 1_455 S
Cd74 O77 2.333 . S
Cd74 O78 2.352 . S
Cd74 O82 2.277 1_556 S
Cd74 O83 2.356 . S
C75 O80 1.209 1_455 S
C75 O82 1.226 . S
O76 Cd72 2.273 1_556 S
O76 Cd74 2.411 1_655 S
O76 C79 1.320 1_655 S
O77 Cd74 2.333 . S
O77 C79 1.214 . S
O78 Cd74 2.352 . S
O78 C81 1.258 . S
C79 O76 1.320 1_455 S
C79 O77 1.214 . S
O80 Cd72 2.277 . S
O80 C75 1.209 1_655 S
C81 O78 1.258 . S
C81 O83 1.282 . S
O82 Cd74 2.277 1_554 S
O82 C75 1.226 . S
O83 Cd74 2.356 . S
O83 C81 1.282 . S
C84 O85 1.306 . S
C84 O87 1.160 . S
O85 C84 1.306 . S
O85 Cd86 2.228 . S
Cd86 O85 2.228 . S
Cd86 O90 2.273 . S
Cd86 O94 2.277 . S
O87 C84 1.160 . S
O87 Cd88 2.203 1_455 S
Cd88 O87 2.203 1_655 S
Cd88 O90 2.411 1_655 S
Cd88 O91 2.333 . S
Cd88 O92 2.352 . S
Cd88 O96 2.277 . S
Cd88 O97 2.356 . S
C89 O94 1.209 1_655 S
C89 O96 1.226 . S
O90 Cd86 2.273 . S
O90 Cd88 2.411 1_455 S
O90 C93 1.320 1_455 S
O91 Cd88 2.333 . S
O91 C93 1.214 . S
O92 Cd88 2.352 . S
O92 C95 1.258 . S
C93 O90 1.320 1_655 S
C93 O91 1.214 . S
O94 Cd86 2.277 . S
O94 C89 1.209 1_455 S
C95 O92 1.258 . S
C95 O97 1.282 . S
O96 Cd88 2.277 . S
O96 C89 1.226 . S
O97 Cd88 2.356 . S
O97 C95 1.282 . S
C98 O99 1.306 . S
C98 O101 1.160 . S
O99 C98 1.306 . S
O99 Cd100 2.228 . S
Cd100 O99 2.228 . S
Cd100 O104 2.273 . S
Cd100 O108 2.277 . S
O101 C98 1.160 . S
O101 Cd102 2.203 1_545 S
Cd102 O101 2.203 1_565 S
Cd102 O104 2.411 1_565 S
Cd102 O105 2.333 . S
Cd102 O106 2.352 . S
Cd102 O110 2.277 . S
Cd102 O111 2.356 . S
C103 O108 1.209 1_565 S
C103 O110 1.226 . S
O104 Cd100 2.273 . S
O104 Cd102 2.411 1_545 S
O104 C107 1.320 1_545 S
O105 Cd102 2.333 . S
O105 C107 1.214 . S
O106 Cd102 2.352 . S
O106 C109 1.258 . S
C107 O104 1.320 1_565 S
C107 O105 1.214 . S
O108 Cd100 2.277 . S
O108 C103 1.209 1_545 S
C109 O106 1.258 . S
C109 O111 1.282 . S
O110 Cd102 2.277 . S
O110 C103 1.226 . S
O111 Cd102 2.356 . S
O111 C109 1.282 . S
C112 O113 1.306 . S
C112 O115 1.160 . S
O113 C112 1.306 . S
O113 Cd114 2.228 1_554 S
Cd114 O113 2.228 1_556 S
Cd114 O118 2.273 1_556 S
Cd114 O122 2.277 . S
O115 C112 1.160 . S
O115 Cd116 2.203 . S
Cd116 O115 2.203 . S
Cd116 O118 2.411 . S
Cd116 O119 2.333 . S
Cd116 O120 2.352 . S
Cd116 O124 2.277 1_554 S
Cd116 O125 2.356 . S
C117 O122 1.209 . S
C117 O124 1.226 . S
O118 Cd114 2.273 1_554 S
O118 Cd116 2.411 . S
O118 C121 1.320 . S
O119 Cd116 2.333 . S
O119 C121 1.214 . S
O120 Cd116 2.352 . S
O120 C123 1.258 . S
C121 O118 1.320 . S
C121 O119 1.214 . S
O122 Cd114 2.277 . S
O122 C117 1.209 . S
C123 O120 1.258 . S
C123 O125 1.282 . S
O124 Cd116 2.277 1_556 S
O124 C117 1.226 . S
O125 Cd116 2.356 . S
O125 C123 1.282 . S
C126 O127 1.306 . S
C126 O129 1.160 . S
O127 C126 1.306 . S
O127 Cd128 2.228 . S
Cd128 O127 2.228 . S
Cd128 O132 2.273 . S
Cd128 O136 2.277 . S
O129 C126 1.160 . S
O129 Cd130 2.203 1_655 S
Cd130 O129 2.203 1_455 S
Cd130 O132 2.411 1_455 S
Cd130 O133 2.333 . S
Cd130 O134 2.352 . S
Cd130 O138 2.277 . S
Cd130 O139 2.356 . S
C131 O136 1.209 1_455 S
C131 O138 1.226 . S
O132 Cd128 2.273 . S
O132 Cd130 2.411 1_655 S
O132 C135 1.320 1_655 S
O133 Cd130 2.333 . S
O133 C135 1.214 . S
O134 Cd130 2.352 . S
O134 C137 1.258 . S
C135 O132 1.320 1_455 S
C135 O133 1.214 . S
O136 Cd128 2.277 . S
O136 C131 1.209 1_655 S
C137 O134 1.258 . S
C137 O139 1.282 . S
O138 Cd130 2.277 . S
O138 C131 1.226 . S
O139 Cd130 2.356 . S
O139 C137 1.282 . S
C140 O141 1.306 . S
C140 O143 1.160 . S
O141 C140 1.306 . S
O141 Cd142 2.228 . S
Cd142 O141 2.228 . S
Cd142 O146 2.273 . S
Cd142 O150 2.277 . S
O143 C140 1.160 . S
O143 Cd144 2.203 1_565 S
Cd144 O143 2.203 1_545 S
Cd144 O146 2.411 1_545 S
Cd144 O147 2.333 . S
Cd144 O148 2.352 . S
Cd144 O152 2.277 . S
Cd144 O153 2.356 . S
C145 O150 1.209 1_545 S
C145 O152 1.226 . S
O146 Cd142 2.273 . S
O146 Cd144 2.411 1_565 S
O146 C149 1.320 1_565 S
O147 Cd144 2.333 . S
O147 C149 1.214 . S
O148 Cd144 2.352 . S
O148 C151 1.258 . S
C149 O146 1.320 1_545 S
C149 O147 1.214 . S
O150 Cd142 2.277 . S
O150 C145 1.209 1_565 S
C151 O148 1.258 . S
C151 O153 1.282 . S
O152 Cd144 2.277 . S
O152 C145 1.226 . S
O153 Cd144 2.356 . S
O153 C151 1.282 . S
C154 O155 1.306 . S
C154 O157 1.160 . S
O155 C154 1.306 . S
O155 Cd156 2.228 1_554 S
Cd156 O155 2.228 1_556 S
Cd156 O160 2.273 1_556 S
Cd156 O164 2.277 . S
O157 C154 1.160 . S
O157 Cd158 2.203 . S
Cd158 O157 2.203 . S
Cd158 O160 2.411 . S
Cd158 O161 2.333 . S
Cd158 O162 2.352 . S
Cd158 O166 2.277 1_554 S
Cd158 O167 2.356 . S
C159 O164 1.209 . S
C159 O166 1.226 . S
O160 Cd156 2.273 1_554 S
O160 Cd158 2.411 . S
O160 C163 1.320 . S
O161 Cd158 2.333 . S
O161 C163 1.214 . S
O162 Cd158 2.352 . S
O162 C165 1.258 . S
C163 O160 1.320 . S
C163 O161 1.214 . S
O164 Cd156 2.277 . S
O164 C159 1.209 . S
C165 O162 1.258 . S
C165 O167 1.282 . S
O166 Cd158 2.277 1_556 S
O166 C159 1.226 . S
O167 Cd158 2.356 . S
O167 C165 1.282 . S
C168 C169 1.391 . S
C168 C170 1.394 . S
C168 H184 0.931 . S
C169 C168 1.391 . S
C169 C173 1.376 . S
C170 C168 1.394 . S
C170 C171 1.369 . S
C170 C174 1.531 . S
C171 C170 1.369 . S
C171 C172 1.410 . S
C171 C179 1.503 . S
C172 C171 1.410 . S
C172 C173 1.392 . S
C172 C175 1.511 . S
C173 C169 1.376 . S
C173 C172 1.392 . S
C173 H185 0.929 . S
C174 C170 1.531 . S
C174 H186 0.960 . S
C174 H187 0.962 . S
C174 H188 0.960 . S
C175 C172 1.511 . S
C175 H189 0.961 . S
C175 H190 0.961 . S
C175 H191 0.961 . S
C176 C177 1.370 . S
C176 C178 1.363 . S
C176 H192 0.931 . S
C177 C176 1.370 . S
C177 C181 1.408 . S
C178 C176 1.363 . S
C178 C179 1.370 . S
C178 C182 1.524 . S
C179 C171 1.503 . S
C179 C178 1.370 . S
C179 C180 1.403 . S
C180 C179 1.403 . S
C180 C181 1.404 . S
C180 C183 1.539 . S
C181 C177 1.408 . S
C181 C180 1.404 . S
C181 H193 0.930 . S
C182 C178 1.524 . S
C182 H194 0.956 . S
C182 H195 0.961 . S
C182 H196 0.961 . S
C183 C180 1.539 . S
C183 H197 0.958 . S
C183 H198 0.961 . S
C183 H199 0.960 . S
H184 C168 0.931 . S
H185 C173 0.929 . S
H186 C174 0.960 . S
H187 C174 0.962 . S
H188 C174 0.960 . S
H189 C175 0.961 . S
H190 C175 0.961 . S
H191 C175 0.961 . S
H192 C176 0.931 . S
H193 C181 0.930 . S
H194 C182 0.956 . S
H195 C182 0.961 . S
H196 C182 0.961 . S
H197 C183 0.958 . S
H198 C183 0.961 . S
H199 C183 0.960 . S
C200 C201 1.391 . S
C200 C202 1.394 . S
C200 H216 0.931 . S
C201 C200 1.391 . S
C201 C205 1.376 . S
C202 C200 1.394 . S
C202 C203 1.369 . S
C202 C206 1.531 . S
C203 C202 1.369 . S
C203 C204 1.410 . S
C203 C211 1.503 . S
C204 C203 1.410 . S
C204 C205 1.392 . S
C204 C207 1.511 . S
C205 C201 1.376 . S
C205 C204 1.392 . S
C205 H217 0.929 . S
C206 C202 1.531 . S
C206 H218 0.960 . S
C206 H219 0.962 . S
C206 H220 0.960 . S
C207 C204 1.511 . S
C207 H221 0.961 . S
C207 H222 0.961 . S
C207 H223 0.961 . S
C208 C209 1.370 . S
C208 C210 1.363 . S
C208 H224 0.931 . S
C209 C208 1.370 . S
C209 C213 1.408 . S
C210 C208 1.363 . S
C210 C211 1.370 . S
C210 C214 1.524 . S
C211 C203 1.503 . S
C211 C210 1.370 . S
C211 C212 1.403 . S
C212 C211 1.403 . S
C212 C213 1.404 . S
C212 C215 1.539 . S
C213 C209 1.408 . S
C213 C212 1.404 . S
C213 H225 0.930 . S
C214 C210 1.524 . S
C214 H226 0.956 . S
C214 H227 0.961 . S
C214 H228 0.961 . S
C215 C212 1.539 . S
C215 H229 0.958 . S
C215 H230 0.961 . S
C215 H231 0.960 . S
H216 C200 0.931 . S
H217 C205 0.929 . S
H218 C206 0.960 . S
H219 C206 0.962 . S
H220 C206 0.960 . S
H221 C207 0.961 . S
H222 C207 0.961 . S
H223 C207 0.961 . S
H224 C208 0.931 . S
H225 C213 0.930 . S
H226 C214 0.956 . S
H227 C214 0.961 . S
H228 C214 0.961 . S
H229 C215 0.958 . S
H230 C215 0.961 . S
H231 C215 0.960 . S
C232 C233 1.391 . S
C232 C234 1.394 . S
C232 H248 0.931 . S
C233 C232 1.391 . S
C233 C237 1.376 . S
C234 C232 1.394 . S
C234 C235 1.369 . S
C234 C238 1.531 . S
C235 C234 1.369 . S
C235 C236 1.410 . S
C235 C243 1.503 . S
C236 C235 1.410 . S
C236 C237 1.392 . S
C236 C239 1.511 . S
C237 C233 1.376 . S
C237 C236 1.392 . S
C237 H249 0.929 . S
C238 C234 1.531 . S
C238 H250 0.960 . S
C238 H251 0.962 . S
C238 H252 0.960 . S
C239 C236 1.511 . S
C239 H253 0.961 . S
C239 H254 0.961 . S
C239 H255 0.961 . S
C240 C241 1.370 . S
C240 C242 1.363 . S
C240 H256 0.931 . S
C241 C240 1.370 . S
C241 C245 1.408 . S
C242 C240 1.363 . S
C242 C243 1.370 . S
C242 C246 1.524 . S
C243 C235 1.503 . S
C243 C242 1.370 . S
C243 C244 1.403 . S
C244 C243 1.403 . S
C244 C245 1.404 . S
C244 C247 1.539 . S
C245 C241 1.408 . S
C245 C244 1.404 . S
C245 H257 0.930 . S
C246 C242 1.524 . S
C246 H258 0.956 . S
C246 H259 0.961 . S
C246 H260 0.961 . S
C247 C244 1.539 . S
C247 H261 0.958 . S
C247 H262 0.961 . S
C247 H263 0.960 . S
H248 C232 0.931 . S
H249 C237 0.929 . S
H250 C238 0.960 . S
H251 C238 0.962 . S
H252 C238 0.960 . S
H253 C239 0.961 . S
H254 C239 0.961 . S
H255 C239 0.961 . S
H256 C240 0.931 . S
H257 C245 0.930 . S
H258 C246 0.956 . S
H259 C246 0.961 . S
H260 C246 0.961 . S
H261 C247 0.958 . S
H262 C247 0.961 . S
H263 C247 0.960 . S
C264 C265 1.391 . S
C264 C266 1.394 . S
C264 H280 0.931 . S
C265 C264 1.391 . S
C265 C269 1.376 . S
C266 C264 1.394 . S
C266 C267 1.369 . S
C266 C270 1.531 . S
C267 C266 1.369 . S
C267 C268 1.410 . S
C267 C275 1.503 . S
C268 C267 1.410 . S
C268 C269 1.392 . S
C268 C271 1.511 . S
C269 C265 1.376 . S
C269 C268 1.392 . S
C269 H281 0.929 . S
C270 C266 1.531 . S
C270 H282 0.960 . S
C270 H283 0.962 . S
C270 H284 0.960 . S
C271 C268 1.511 . S
C271 H285 0.961 . S
C271 H286 0.961 . S
C271 H287 0.961 . S
C272 C273 1.370 . S
C272 C274 1.363 . S
C272 H288 0.931 . S
C273 C272 1.370 . S
C273 C277 1.408 . S
C274 C272 1.363 . S
C274 C275 1.370 . S
C274 C278 1.524 . S
C275 C267 1.503 . S
C275 C274 1.370 . S
C275 C276 1.403 . S
C276 C275 1.403 . S
C276 C277 1.404 . S
C276 C279 1.539 . S
C277 C273 1.408 . S
C277 C276 1.404 . S
C277 H289 0.930 . S
C278 C274 1.524 . S
C278 H290 0.956 . S
C278 H291 0.961 . S
C278 H292 0.961 . S
C279 C276 1.539 . S
C279 H293 0.958 . S
C279 H294 0.961 . S
C279 H295 0.960 . S
H280 C264 0.931 . S
H281 C269 0.929 . S
H282 C270 0.960 . S
H283 C270 0.962 . S
H284 C270 0.960 . S
H285 C271 0.961 . S
H286 C271 0.961 . S
H287 C271 0.961 . S
H288 C272 0.931 . S
H289 C277 0.930 . S
H290 C278 0.956 . S
H291 C278 0.961 . S
H292 C278 0.961 . S
H293 C279 0.958 . S
H294 C279 0.961 . S
H295 C279 0.960 . S
C296 C297 1.391 . S
C296 C298 1.394 . S
C296 H312 0.931 . S
C297 C296 1.391 . S
C297 C301 1.376 . S
C298 C296 1.394 . S
C298 C299 1.369 . S
C298 C302 1.531 . S
C299 C298 1.369 . S
C299 C300 1.410 . S
C299 C307 1.503 . S
C300 C299 1.410 . S
C300 C301 1.392 . S
C300 C303 1.511 . S
C301 C297 1.376 . S
C301 C300 1.392 . S
C301 H313 0.929 . S
C302 C298 1.531 . S
C302 H314 0.960 . S
C302 H315 0.962 . S
C302 H316 0.960 . S
C303 C300 1.511 . S
C303 H317 0.961 . S
C303 H318 0.961 . S
C303 H319 0.961 . S
C304 C305 1.370 . S
C304 C306 1.363 . S
C304 H320 0.931 . S
C305 C304 1.370 . S
C305 C309 1.408 . S
C306 C304 1.363 . S
C306 C307 1.370 . S
C306 C310 1.524 . S
C307 C299 1.503 . S
C307 C306 1.370 . S
C307 C308 1.403 . S
C308 C307 1.403 . S
C308 C309 1.404 . S
C308 C311 1.539 . S
C309 C305 1.408 . S
C309 C308 1.404 . S
C309 H321 0.930 . S
C310 C306 1.524 . S
C310 H322 0.956 . S
C310 H323 0.961 . S
C310 H324 0.961 . S
C311 C308 1.539 . S
C311 H325 0.958 . S
C311 H326 0.961 . S
C311 H327 0.960 . S
H312 C296 0.931 . S
H313 C301 0.929 . S
H314 C302 0.960 . S
H315 C302 0.962 . S
H316 C302 0.960 . S
H317 C303 0.961 . S
H318 C303 0.961 . S
H319 C303 0.961 . S
H320 C304 0.931 . S
H321 C309 0.930 . S
H322 C310 0.956 . S
H323 C310 0.961 . S
H324 C310 0.961 . S
H325 C311 0.958 . S
H326 C311 0.961 . S
H327 C311 0.960 . S
C328 C329 1.391 . S
C328 C330 1.394 . S
C328 H344 0.931 . S
C329 C328 1.391 . S
C329 C333 1.376 . S
C330 C328 1.394 . S
C330 C331 1.369 . S
C330 C334 1.531 . S
C331 C330 1.369 . S
C331 C332 1.410 . S
C331 C339 1.503 . S
C332 C331 1.410 . S
C332 C333 1.392 . S
C332 C335 1.511 . S
C333 C329 1.376 . S
C333 C332 1.392 . S
C333 H345 0.929 . S
C334 C330 1.531 . S
C334 H346 0.960 . S
C334 H347 0.962 . S
C334 H348 0.960 . S
C335 C332 1.511 . S
C335 H349 0.961 . S
C335 H350 0.961 . S
C335 H351 0.961 . S
C336 C337 1.370 . S
C336 C338 1.363 . S
C336 H352 0.931 . S
C337 C336 1.370 . S
C337 C341 1.408 . S
C338 C336 1.363 . S
C338 C339 1.370 . S
C338 C342 1.524 . S
C339 C331 1.503 . S
C339 C338 1.370 . S
C339 C340 1.403 . S
C340 C339 1.403 . S
C340 C341 1.404 . S
C340 C343 1.539 . S
C341 C337 1.408 . S
C341 C340 1.404 . S
C341 H353 0.930 . S
C342 C338 1.524 . S
C342 H354 0.956 . S
C342 H355 0.961 . S
C342 H356 0.961 . S
C343 C340 1.539 . S
C343 H357 0.958 . S
C343 H358 0.961 . S
C343 H359 0.960 . S
H344 C328 0.931 . S
H345 C333 0.929 . S
H346 C334 0.960 . S
H347 C334 0.962 . S
H348 C334 0.960 . S
H349 C335 0.961 . S
H350 C335 0.961 . S
H351 C335 0.961 . S
H352 C336 0.931 . S
H353 C341 0.930 . S
H354 C342 0.956 . S
H355 C342 0.961 . S
H356 C342 0.961 . S
H357 C343 0.958 . S
H358 C343 0.961 . S
H359 C343 0.960 . S
C360 C361 1.391 . S
C360 C362 1.394 . S
C360 H376 0.931 . S
C361 C360 1.391 . S
C361 C365 1.376 1_545 S
C362 C360 1.394 . S
C362 C363 1.381 . S
C362 C366 1.531 . S
C363 C362 1.381 . S
C363 C364 1.406 1_545 S
C363 C371 1.495 1_545 S
C364 C363 1.406 1_565 S
C364 C365 1.392 . S
C364 C367 1.511 . S
C365 C361 1.376 1_565 S
C365 C364 1.392 . S
C365 H377 0.929 . S
C366 C362 1.531 . S
C366 H378 0.960 . S
C366 H379 0.962 . S
C366 H380 0.960 . S
C367 C364 1.511 . S
C367 H381 0.961 . S
C367 H382 0.961 . S
C367 H383 0.961 . S
C368 C369 1.370 1_545 S
C368 C370 1.363 . S
C368 H384 0.931 . S
C369 C368 1.370 1_565 S
C369 C373 1.408 . S
C370 C368 1.363 . S
C370 C371 1.370 1_545 S
C370 C374 1.524 . S
C371 C363 1.495 1_565 S
C371 C370 1.370 1_565 S
C371 C372 1.403 . S
C372 C371 1.403 . S
C372 C373 1.404 . S
C372 C375 1.539 . S
C373 C369 1.408 . S
C373 C372 1.404 . S
C373 H385 0.930 . S
C374 C370 1.524 . S
C374 H386 0.956 . S
C374 H387 0.961 . S
C374 H388 0.961 . S
C375 C372 1.539 . S
C375 H389 0.958 . S
C375 H390 0.961 . S
C375 H391 0.960 . S
H376 C360 0.931 . S
H377 C365 0.929 . S
H378 C366 0.960 . S
H379 C366 0.962 . S
H380 C366 0.960 . S
H381 C367 0.961 . S
H382 C367 0.961 . S
H383 C367 0.961 . S
H384 C368 0.931 . S
H385 C373 0.930 . S
H386 C374 0.956 . S
H387 C374 0.961 . S
H388 C374 0.961 . S
H389 C375 0.958 . S
H390 C375 0.961 . S
H391 C375 0.960 . S
C392 C393 1.391 . S
C392 C394 1.394 . S
C392 H408 0.931 . S
C393 C392 1.391 . S
C393 C397 1.376 . S
C394 C392 1.394 . S
C394 C395 1.369 . S
C394 C398 1.531 . S
C395 C394 1.369 . S
C395 C396 1.410 . S
C395 C403 1.503 . S
C396 C395 1.410 . S
C396 C397 1.392 . S
C396 C399 1.511 . S
C397 C393 1.376 . S
C397 C396 1.392 . S
C397 H409 0.929 . S
C398 C394 1.531 . S
C398 H410 0.960 . S
C398 H411 0.962 . S
C398 H412 0.960 . S
C399 C396 1.511 . S
C399 H413 0.961 . S
C399 H414 0.961 . S
C399 H415 0.961 . S
C400 C401 1.370 . S
C400 C402 1.363 . S
C400 H416 0.931 . S
C401 C400 1.370 . S
C401 C405 1.408 . S
C402 C400 1.363 . S
C402 C403 1.370 . S
C402 C406 1.524 . S
C403 C395 1.503 . S
C403 C402 1.370 . S
C403 C404 1.403 . S
C404 C403 1.403 . S
C404 C405 1.404 . S
C404 C407 1.539 . S
C405 C401 1.408 . S
C405 C404 1.404 . S
C405 H417 0.930 . S
C406 C402 1.524 . S
C406 H418 0.956 . S
C406 H419 0.961 . S
C406 H420 0.961 . S
C407 C404 1.539 . S
C407 H421 0.958 . S
C407 H422 0.961 . S
C407 H423 0.960 . S
H408 C392 0.931 . S
H409 C397 0.929 . S
H410 C398 0.960 . S
H411 C398 0.962 . S
H412 C398 0.960 . S
H413 C399 0.961 . S
H414 C399 0.961 . S
H415 C399 0.961 . S
H416 C400 0.931 . S
H417 C405 0.930 . S
H418 C406 0.956 . S
H419 C406 0.961 . S
H420 C406 0.961 . S
H421 C407 0.958 . S
H422 C407 0.961 . S
H423 C407 0.960 . S
C424 C425 1.391 . S
C424 C426 1.394 . S
C424 H440 0.931 1_556 S
C425 C424 1.391 . S
C425 C429 1.376 1_455 S
C426 C424 1.394 . S
C426 C427 1.369 1_455 S
C426 C430 1.531 1_556 S
C427 C426 1.369 1_655 S
C427 C428 1.410 . S
C427 C435 1.503 . S
C428 C427 1.410 . S
C428 C429 1.392 . S
C428 C431 1.511 . S
C429 C425 1.376 1_655 S
C429 C428 1.392 . S
C429 H441 0.929 . S
C430 C426 1.531 1_554 S
C430 H442 0.960 . S
C430 H443 0.962 . S
C430 H444 0.960 . S
C431 C428 1.511 . S
C431 H445 0.961 . S
C431 H446 0.961 . S
C431 H447 0.961 . S
C432 C433 1.370 1_455 S
C432 C434 1.363 . S
C432 H448 0.931 . S
C433 C432 1.370 1_655 S
C433 C437 1.408 . S
C434 C432 1.363 . S
C434 C435 1.370 1_455 S
C434 C438 1.524 . S
C435 C427 1.503 . S
C435 C434 1.370 1_655 S
C435 C436 1.403 . S
C436 C435 1.403 . S
C436 C437 1.404 . S
C436 C439 1.539 1_556 S
C437 C433 1.408 . S
C437 C436 1.404 . S
C437 H449 0.930 1_556 S
C438 C434 1.524 . S
C438 H450 0.956 . S
C438 H451 0.961 . S
C438 H452 0.961 . S
C439 C436 1.539 1_554 S
C439 H453 0.958 . S
C439 H454 0.961 . S
C439 H455 0.960 . S
H440 C424 0.931 1_554 S
H441 C429 0.929 . S
H442 C430 0.960 . S
H443 C430 0.962 . S
H444 C430 0.960 . S
H445 C431 0.961 . S
H446 C431 0.961 . S
H447 C431 0.961 . S
H448 C432 0.931 . S
H449 C437 0.930 1_554 S
H450 C438 0.956 . S
H451 C438 0.961 . S
H452 C438 0.961 . S
H453 C439 0.958 . S
H454 C439 0.961 . S
H455 C439 0.960 . S
C456 C457 1.391 1_455 S
C456 C458 1.394 . S
C456 H472 0.931 . S
C457 C456 1.391 1_655 S
C457 C461 1.376 . S
C458 C456 1.394 . S
C458 C459 1.369 . S
C458 C462 1.531 . S
C459 C458 1.369 . S
C459 C460 1.410 1_455 S
C459 C467 1.503 . S
C460 C459 1.410 1_655 S
C460 C461 1.392 . S
C460 C463 1.511 . S
C461 C457 1.376 . S
C461 C460 1.392 . S
C461 H473 0.929 . S
C462 C458 1.531 . S
C462 H474 0.960 . S
C462 H475 0.962 . S
C462 H476 0.960 . S
C463 C460 1.511 . S
C463 H477 0.961 . S
C463 H478 0.961 . S
C463 H479 0.961 . S
C464 C465 1.370 1_655 S
C464 C466 1.363 . S
C464 H480 0.931 . S
C465 C464 1.370 1_455 S
C465 C469 1.408 . S
C466 C464 1.363 . S
C466 C467 1.370 1_655 S
C466 C470 1.524 . S
C467 C459 1.503 . S
C467 C466 1.370 1_455 S
C467 C468 1.403 . S
C468 C467 1.403 . S
C468 C469 1.404 . S
C468 C471 1.539 . S
C469 C465 1.408 . S
C469 C468 1.404 . S
C469 H481 0.930 . S
C470 C466 1.524 . S
C470 H482 0.956 . S
C470 H483 0.961 . S
C470 H484 0.961 . S
C471 C468 1.539 . S
C471 H485 0.958 . S
C471 H486 0.961 . S
C471 H487 0.960 . S
H472 C456 0.931 . S
H473 C461 0.929 . S
H474 C462 0.960 . S
H475 C462 0.962 . S
H476 C462 0.960 . S
H477 C463 0.961 . S
H478 C463 0.961 . S
H479 C463 0.961 . S
H480 C464 0.931 . S
H481 C469 0.930 . S
H482 C470 0.956 . S
H483 C470 0.961 . S
H484 C470 0.961 . S
H485 C471 0.958 . S
H486 C471 0.961 . S
H487 C471 0.960 . S
C488 C489 1.391 . S
C488 C490 1.394 . S
C488 H504 0.931 . S
C489 C488 1.391 . S
C489 C493 1.376 1_545 S
C490 C488 1.394 . S
C490 C491 1.369 . S
C490 C494 1.531 . S
C491 C490 1.369 . S
C491 C492 1.410 1_545 S
C491 C499 1.503 . S
C492 C491 1.410 1_565 S
C492 C493 1.392 . S
C492 C495 1.511 . S
C493 C489 1.376 1_565 S
C493 C492 1.392 . S
C493 H505 0.929 . S
C494 C490 1.531 . S
C494 H506 0.960 . S
C494 H507 0.962 . S
C494 H508 0.960 . S
C495 C492 1.511 . S
C495 H509 0.961 . S
C495 H510 0.961 . S
C495 H511 0.961 . S
C496 C497 1.370 . S
C496 C498 1.363 . S
C496 H512 0.931 . S
C497 C496 1.370 . S
C497 C501 1.408 1_565 S
C498 C496 1.363 . S
C498 C499 1.370 1_565 S
C498 C502 1.524 . S
C499 C491 1.503 . S
C499 C498 1.370 1_545 S
C499 C500 1.403 . S
C500 C499 1.403 . S
C500 C501 1.404 . S
C500 C503 1.539 . S
C501 C497 1.408 1_545 S
C501 C500 1.404 . S
C501 H513 0.930 . S
C502 C498 1.524 . S
C502 H514 0.956 . S
C502 H515 0.961 . S
C502 H516 0.961 . S
C503 C500 1.539 . S
C503 H517 0.958 . S
C503 H518 0.961 . S
C503 H519 0.960 . S
H504 C488 0.931 . S
H505 C493 0.929 . S
H506 C494 0.960 . S
H507 C494 0.962 . S
H508 C494 0.960 . S
H509 C495 0.961 . S
H510 C495 0.961 . S
H511 C495 0.961 . S
H512 C496 0.931 . S
H513 C501 0.930 . S
H514 C502 0.956 . S
H515 C502 0.961 . S
H516 C502 0.961 . S
H517 C503 0.958 . S
H518 C503 0.961 . S
H519 C503 0.960 . S
C520 C521 1.391 . S
C520 C522 1.394 . S
C520 H536 0.931 . S
C521 C520 1.391 . S
C521 C525 1.376 . S
C522 C520 1.394 . S
C522 C523 1.369 . S
C522 C526 1.531 . S
C523 C522 1.369 . S
C523 C524 1.410 . S
C523 C531 1.503 . S
C524 C523 1.410 . S
C524 C525 1.392 . S
C524 C527 1.511 1_554 S
C525 C521 1.376 . S
C525 C524 1.392 . S
C525 H537 0.929 1_554 S
C526 C522 1.531 . S
C526 H538 0.960 . S
C526 H539 0.962 . S
C526 H540 0.960 . S
C527 C524 1.511 1_556 S
C527 H541 0.961 . S
C527 H542 0.961 . S
C527 H543 0.971 . S
C528 C529 1.370 . S
C528 C530 1.363 . S
C528 H544 0.931 . S
C529 C528 1.370 . S
C529 C533 1.408 . S
C530 C528 1.363 . S
C530 C531 1.370 . S
C530 C534 1.524 1_554 S
C531 C523 1.503 . S
C531 C530 1.370 . S
C531 C532 1.403 . S
C532 C531 1.403 . S
C532 C533 1.404 . S
C532 C535 1.539 . S
C533 C529 1.408 . S
C533 C532 1.404 . S
C533 H545 0.930 . S
C534 C530 1.524 1_556 S
C534 H546 0.956 1_556 S
C534 H547 0.961 . S
C534 H548 0.961 . S
C535 C532 1.539 . S
C535 H549 0.958 . S
C535 H550 0.961 . S
C535 H551 0.960 . S
H536 C520 0.931 . S
H537 C525 0.929 1_556 S
H538 C526 0.960 . S
H539 C526 0.962 . S
H540 C526 0.960 . S
H541 C527 0.961 . S
H542 C527 0.961 . S
H543 C527 0.971 . S
H544 C528 0.931 . S
H545 C533 0.930 . S
H546 C534 0.956 1_554 S
H547 C534 0.961 . S
H548 C534 0.961 . S
H549 C535 0.958 . S
H550 C535 0.961 . S
H551 C535 0.960 . S
C552 C553 1.391 . S
C552 C554 1.394 . S
C552 H568 0.931 . S
C553 C552 1.391 . S
C553 C557 1.376 . S
C554 C552 1.394 . S
C554 C555 1.369 . S
C554 C558 1.531 . S
C555 C554 1.369 . S
C555 C556 1.410 . S
C555 C563 1.503 . S
C556 C555 1.410 . S
C556 C557 1.392 . S
C556 C559 1.511 . S
C557 C553 1.376 . S
C557 C556 1.392 . S
C557 H569 0.929 . S
C558 C554 1.531 . S
C558 H570 0.960 . S
C558 H571 0.962 . S
C558 H572 0.960 . S
C559 C556 1.511 . S
C559 H573 0.961 . S
C559 H574 0.961 . S
C559 H575 0.961 . S
C560 C561 1.370 . S
C560 C562 1.363 . S
C560 H576 0.931 . S
C561 C560 1.370 . S
C561 C565 1.408 . S
C562 C560 1.363 . S
C562 C563 1.370 . S
C562 C566 1.524 . S
C563 C555 1.503 . S
C563 C562 1.370 . S
C563 C564 1.403 . S
C564 C563 1.403 . S
C564 C565 1.404 . S
C564 C567 1.539 . S
C565 C561 1.408 . S
C565 C564 1.404 . S
C565 H577 0.930 . S
C566 C562 1.524 . S
C566 H578 0.956 . S
C566 H579 0.961 . S
C566 H580 0.961 . S
C567 C564 1.539 . S
C567 H581 0.958 . S
C567 H582 0.961 . S
C567 H583 0.960 . S
H568 C552 0.931 . S
H569 C557 0.929 . S
H570 C558 0.960 . S
H571 C558 0.962 . S
H572 C558 0.960 . S
H573 C559 0.961 . S
H574 C559 0.961 . S
H575 C559 0.961 . S
H576 C560 0.931 . S
H577 C565 0.930 . S
H578 C566 0.956 . S
H579 C566 0.961 . S
H580 C566 0.961 . S
H581 C567 0.958 . S
H582 C567 0.961 . S
H583 C567 0.960 . S
C584 C585 1.391 . S
C584 C586 1.394 . S
C584 H600 0.931 . S
C585 C584 1.391 . S
C585 C589 1.376 . S
C586 C584 1.394 . S
C586 C587 1.369 . S
C586 C590 1.531 . S
C587 C586 1.369 . S
C587 C588 1.410 . S
C587 C595 1.503 . S
C588 C587 1.410 . S
C588 C589 1.392 . S
C588 C591 1.511 . S
C589 C585 1.376 . S
C589 C588 1.392 . S
C589 H601 0.929 . S
C590 C586 1.531 . S
C590 H602 0.960 . S
C590 H603 0.962 . S
C590 H604 0.960 . S
C591 C588 1.511 . S
C591 H605 0.961 . S
C591 H606 0.961 . S
C591 H607 0.961 . S
C592 C593 1.370 . S
C592 C594 1.363 . S
C592 H608 0.931 . S
C593 C592 1.370 . S
C593 C597 1.408 . S
C594 C592 1.363 . S
C594 C595 1.370 . S
C594 C598 1.524 . S
C595 C587 1.503 . S
C595 C594 1.370 . S
C595 C596 1.403 . S
C596 C595 1.403 . S
C596 C597 1.404 . S
C596 C599 1.539 . S
C597 C593 1.408 . S
C597 C596 1.404 . S
C597 H609 0.930 . S
C598 C594 1.524 . S
C598 H610 0.956 . S
C598 H611 0.961 . S
C598 H612 0.961 . S
C599 C596 1.539 . S
C599 H613 0.958 . S
C599 H614 0.961 . S
C599 H615 0.960 . S
H600 C584 0.931 . S
H601 C589 0.929 . S
H602 C590 0.960 . S
H603 C590 0.962 . S
H604 C590 0.960 . S
H605 C591 0.961 . S
H606 C591 0.961 . S
H607 C591 0.961 . S
H608 C592 0.931 . S
H609 C597 0.930 . S
H610 C598 0.956 . S
H611 C598 0.961 . S
H612 C598 0.961 . S
H613 C599 0.958 . S
H614 C599 0.961 . S
H615 C599 0.960 . S
C616 C617 1.391 1_556 S
C616 C618 1.394 . S
C616 H632 0.931 . S
C617 C616 1.391 1_554 S
C617 C621 1.376 . S
C618 C616 1.394 . S
C618 C619 1.369 1_556 S
C618 C622 1.531 . S
C619 C618 1.369 1_554 S
C619 C620 1.410 . S
C619 C627 1.503 1_554 S
C620 C619 1.410 . S
C620 C621 1.392 . S
C620 C623 1.511 . S
C621 C617 1.376 . S
C621 C620 1.392 . S
C621 H633 0.929 . S
C622 C618 1.531 . S
C622 H634 0.960 . S
C622 H635 0.962 . S
C622 H636 0.960 . S
C623 C620 1.511 . S
C623 H637 0.961 . S
C623 H638 0.961 . S
C623 H639 0.961 . S
C624 C625 1.370 . S
C624 C626 1.363 . S
C624 H640 0.931 . S
C625 C624 1.370 . S
C625 C629 1.408 . S
C626 C624 1.363 . S
C626 C627 1.370 . S
C626 C630 1.524 . S
C627 C619 1.503 1_556 S
C627 C626 1.370 . S
C627 C628 1.403 1_556 S
C628 C627 1.403 1_554 S
C628 C629 1.404 1_554 S
C628 C631 1.539 . S
C629 C625 1.408 . S
C629 C628 1.404 1_556 S
C629 H641 0.930 . S
C630 C626 1.524 . S
C630 H642 0.956 . S
C630 H643 0.961 . S
C630 H644 0.961 . S
C631 C628 1.539 . S
C631 H645 0.958 . S
C631 H646 0.961 . S
C631 H647 0.960 . S
H632 C616 0.931 . S
H633 C621 0.929 . S
H634 C622 0.960 . S
H635 C622 0.962 . S
H636 C622 0.960 . S
H637 C623 0.961 . S
H638 C623 0.961 . S
H639 C623 0.961 . S
H640 C624 0.931 . S
H641 C629 0.930 . S
H642 C630 0.956 . S
H643 C630 0.961 . S
H644 C630 0.961 . S
H645 C631 0.958 . S
H646 C631 0.961 . S
H647 C631 0.960 . S
C648 C649 1.391 . S
C648 C650 1.394 . S
C648 H664 0.931 . S
C649 C648 1.391 . S
C649 C653 1.376 . S
C650 C648 1.394 . S
C650 C651 1.369 . S
C650 C654 1.531 . S
C651 C650 1.369 . S
C651 C652 1.410 . S
C651 C659 1.503 . S
C652 C651 1.410 . S
C652 C653 1.392 . S
C652 C655 1.511 . S
C653 C649 1.376 . S
C653 C652 1.392 . S
C653 H665 0.929 . S
C654 C650 1.531 . S
C654 H666 0.960 . S
C654 H667 0.962 . S
C654 H668 0.960 . S
C655 C652 1.511 . S
C655 H669 0.961 . S
C655 H670 0.961 . S
C655 H671 0.961 . S
C656 C657 1.370 . S
C656 C658 1.363 . S
C656 H672 0.931 . S
C657 C656 1.370 . S
C657 C661 1.408 . S
C658 C656 1.363 . S
C658 C659 1.370 . S
C658 C662 1.524 . S
C659 C651 1.503 . S
C659 C658 1.370 . S
C659 C660 1.403 . S
C660 C659 1.403 . S
C660 C661 1.404 . S
C660 C663 1.539 . S
C661 C657 1.408 . S
C661 C660 1.404 . S
C661 H673 0.930 . S
C662 C658 1.524 . S
C662 H674 0.956 . S
C662 H675 0.961 . S
C662 H676 0.961 . S
C663 C660 1.539 . S
C663 H677 0.958 . S
C663 H678 0.961 . S
C663 H679 0.960 . S
H664 C648 0.931 . S
H665 C653 0.929 . S
H666 C654 0.960 . S
H667 C654 0.962 . S
H668 C654 0.960 . S
H669 C655 0.961 . S
H670 C655 0.961 . S
H671 C655 0.961 . S
H672 C656 0.931 . S
H673 C661 0.930 . S
H674 C662 0.956 . S
H675 C662 0.961 . S
H676 C662 0.961 . S
H677 C663 0.958 . S
H678 C663 0.961 . S
H679 C663 0.960 . S
C680 C681 1.391 . S
C680 C682 1.394 . S
C680 H696 0.931 . S
C681 C680 1.391 . S
C681 C685 1.376 . S
C682 C680 1.394 . S
C682 C683 1.369 . S
C682 C686 1.531 . S
C683 C682 1.369 . S
C683 C684 1.410 . S
C683 C691 1.503 . S
C684 C683 1.410 . S
C684 C685 1.392 . S
C684 C687 1.511 . S
C685 C681 1.376 . S
C685 C684 1.392 . S
C685 H697 0.929 . S
C686 C682 1.531 . S
C686 H698 0.960 . S
C686 H699 0.962 . S
C686 H700 0.960 . S
C687 C684 1.511 . S
C687 H701 0.961 . S
C687 H702 0.961 . S
C687 H703 0.961 . S
C688 C689 1.370 . S
C688 C690 1.363 . S
C688 H704 0.931 . S
C689 C688 1.370 . S
C689 C693 1.408 . S
C690 C688 1.363 . S
C690 C691 1.370 . S
C690 C694 1.524 . S
C691 C683 1.503 . S
C691 C690 1.370 . S
C691 C692 1.403 . S
C692 C691 1.403 . S
C692 C693 1.404 . S
C692 C695 1.539 . S
C693 C689 1.408 . S
C693 C692 1.404 . S
C693 H705 0.930 . S
C694 C690 1.524 . S
C694 H706 0.956 . S
C694 H707 0.961 . S
C694 H708 0.961 . S
C695 C692 1.539 . S
C695 H709 0.958 . S
C695 H710 0.961 . S
C695 H711 0.960 . S
H696 C680 0.931 . S
H697 C685 0.929 . S
H698 C686 0.960 . S
H699 C686 0.962 . S
H700 C686 0.960 . S
H701 C687 0.961 . S
H702 C687 0.961 . S
H703 C687 0.961 . S
H704 C688 0.931 . S
H705 C693 0.930 . S
H706 C694 0.956 . S
H707 C694 0.961 . S
H708 C694 0.961 . S
H709 C695 0.958 . S
H710 C695 0.961 . S
H711 C695 0.960 . S
C712 C713 1.391 . S
C712 C714 1.394 . S
C712 H728 0.931 . S
C713 C712 1.391 . S
C713 C717 1.376 1_554 S
C714 C712 1.394 . S
C714 C715 1.369 . S
C714 C718 1.531 . S
C715 C714 1.369 . S
C715 C716 1.410 1_554 S
C715 C723 1.503 1_554 S
C716 C715 1.410 1_556 S
C716 C717 1.392 . S
C716 C719 1.511 . S
C717 C713 1.376 1_556 S
C717 C716 1.392 . S
C717 H729 0.929 . S
C718 C714 1.531 . S
C718 H730 0.960 . S
C718 H731 0.962 . S
C718 H732 0.960 . S
C719 C716 1.511 . S
C719 H733 0.961 . S
C719 H734 0.961 . S
C719 H735 0.961 . S
C720 C721 1.370 . S
C720 C722 1.363 1_556 S
C720 H736 0.931 1_556 S
C721 C720 1.370 . S
C721 C725 1.408 . S
C722 C720 1.363 1_554 S
C722 C723 1.370 1_554 S
C722 C726 1.524 . S
C723 C715 1.503 1_556 S
C723 C722 1.370 1_556 S
C723 C724 1.403 . S
C724 C723 1.403 . S
C724 C725 1.404 . S
C724 C727 1.539 . S
C725 C721 1.408 . S
C725 C724 1.404 . S
C725 H737 0.930 . S
C726 C722 1.524 . S
C726 H738 0.956 . S
C726 H739 0.961 . S
C726 H740 0.961 . S
C727 C724 1.539 . S
C727 H741 0.958 . S
C727 H742 0.961 . S
C727 H743 0.960 . S
H728 C712 0.931 . S
H729 C717 0.929 . S
H730 C718 0.960 . S
H731 C718 0.962 . S
H732 C718 0.960 . S
H733 C719 0.961 . S
H734 C719 0.961 . S
H735 C719 0.961 . S
H736 C720 0.931 1_554 S
H737 C725 0.930 . S
H738 C726 0.956 . S
H739 C726 0.961 . S
H740 C726 0.961 . S
H741 C727 0.958 . S
H742 C727 0.961 . S
H743 C727 0.960 . S
C744 C745 1.391 1_565 S
C744 C746 1.394 . S
C744 H760 0.931 . S
C745 C744 1.391 1_545 S
C745 C749 1.376 . S
C746 C744 1.394 . S
C746 C747 1.369 . S
C746 C750 1.531 . S
C747 C746 1.369 . S
C747 C748 1.410 1_565 S
C747 C755 1.503 . S
C748 C747 1.410 1_545 S
C748 C749 1.392 . S
C748 C751 1.511 . S
C749 C745 1.376 . S
C749 C748 1.392 . S
C749 H761 0.929 . S
C750 C746 1.531 . S
C750 H762 0.960 . S
C750 H763 0.962 . S
C750 H764 0.960 . S
C751 C748 1.511 . S
C751 H765 0.961 . S
C751 H766 0.961 . S
C751 H767 0.971 . S
C752 C753 1.370 1_545 S
C752 C754 1.363 . S
C752 H768 0.931 . S
C753 C752 1.370 1_565 S
C753 C757 1.408 . S
C754 C752 1.363 . S
C754 C755 1.370 1_545 S
C754 C758 1.524 . S
C755 C747 1.503 . S
C755 C754 1.370 1_565 S
C755 C756 1.403 . S
C756 C755 1.403 . S
C756 C757 1.404 . S
C756 C759 1.539 . S
C757 C753 1.408 . S
C757 C756 1.404 . S
C757 H769 0.930 . S
C758 C754 1.524 . S
C758 H770 0.956 . S
C758 H771 0.961 . S
C758 H772 0.961 . S
C759 C756 1.539 . S
C759 H773 0.958 . S
C759 H774 0.961 . S
C759 H775 0.960 . S
H760 C744 0.931 . S
H761 C749 0.929 . S
H762 C750 0.960 . S
H763 C750 0.962 . S
H764 C750 0.960 . S
H765 C751 0.961 . S
H766 C751 0.961 . S
H767 C751 0.971 . S
H768 C752 0.931 . S
H769 C757 0.930 . S
H770 C758 0.956 . S
H771 C758 0.961 . S
H772 C758 0.961 . S
H773 C759 0.958 . S
H774 C759 0.961 . S
H775 C759 0.960 . S
C776 C777 1.391 . S
C776 C778 1.394 . S
C776 H792 0.931 . S
C777 C776 1.391 . S
C777 C781 1.376 . S
C778 C776 1.394 . S
C778 C779 1.369 . S
C778 C782 1.531 . S
C779 C778 1.369 . S
C779 C780 1.410 . S
C779 C787 1.503 . S
C780 C779 1.410 . S
C780 C781 1.392 . S
C780 C783 1.511 . S
C781 C777 1.376 . S
C781 C780 1.392 . S
C781 H793 0.929 . S
C782 C778 1.531 . S
C782 H794 0.960 . S
C782 H795 0.962 . S
C782 H796 0.960 . S
C783 C780 1.511 . S
C783 H797 0.961 . S
C783 H798 0.961 . S
C783 H799 0.961 . S
C784 C785 1.370 . S
C784 C786 1.363 . S
C784 H800 0.931 . S
C785 C784 1.370 . S
C785 C789 1.408 . S
C786 C784 1.363 . S
C786 C787 1.370 . S
C786 C790 1.524 . S
C787 C779 1.503 . S
C787 C786 1.370 . S
C787 C788 1.403 . S
C788 C787 1.403 . S
C788 C789 1.404 . S
C788 C791 1.539 . S
C789 C785 1.408 . S
C789 C788 1.404 . S
C789 H801 0.930 . S
C790 C786 1.524 . S
C790 H802 0.956 . S
C790 H803 0.961 . S
C790 H804 0.961 . S
C791 C788 1.539 . S
C791 H805 0.958 . S
C791 H806 0.961 . S
C791 H807 0.960 . S
H792 C776 0.931 . S
H793 C781 0.929 . S
H794 C782 0.960 . S
H795 C782 0.962 . S
H796 C782 0.960 . S
H797 C783 0.961 . S
H798 C783 0.961 . S
H799 C783 0.961 . S
H800 C784 0.931 . S
H801 C789 0.930 . S
H802 C790 0.956 . S
H803 C790 0.961 . S
H804 C790 0.961 . S
H805 C791 0.958 . S
H806 C791 0.961 . S
H807 C791 0.960 . S
C808 C809 1.391 1_655 S
C808 C810 1.396 . S
C808 H824 0.929 . S
C809 C808 1.391 1_455 S
C809 C813 1.376 . S
C810 C808 1.396 . S
C810 C811 1.369 . S
C810 C814 1.531 . S
C811 C810 1.369 . S
C811 C812 1.410 1_655 S
C811 C819 1.503 . S
C812 C811 1.410 1_455 S
C812 C813 1.392 . S
C812 C815 1.511 . S
C813 C809 1.376 . S
C813 C812 1.392 . S
C813 H825 0.929 . S
C814 C810 1.531 . S
C814 H826 0.960 . S
C814 H827 0.962 . S
C814 H828 0.960 . S
C815 C812 1.511 . S
C815 H829 0.961 . S
C815 H830 0.961 . S
C815 H831 0.961 1_455 S
C816 C817 1.370 1_455 S
C816 C818 1.363 . S
C816 H832 0.931 . S
C817 C816 1.370 1_655 S
C817 C821 1.408 . S
C818 C816 1.363 . S
C818 C819 1.370 1_455 S
C818 C822 1.524 . S
C819 C811 1.503 . S
C819 C818 1.370 1_655 S
C819 C820 1.403 . S
C820 C819 1.403 . S
C820 C821 1.404 . S
C820 C823 1.539 . S
C821 C817 1.408 . S
C821 C820 1.404 . S
C821 H833 0.930 . S
C822 C818 1.524 . S
C822 H834 0.956 . S
C822 H835 0.961 . S
C822 H836 0.961 . S
C823 C820 1.539 . S
C823 H837 0.958 . S
C823 H838 0.961 . S
C823 H839 0.960 . S
H824 C808 0.929 . S
H825 C813 0.929 . S
H826 C814 0.960 . S
H827 C814 0.962 . S
H828 C814 0.960 . S
H829 C815 0.961 . S
H830 C815 0.961 . S
H831 C815 0.961 1_655 S
H832 C816 0.931 . S
H833 C821 0.930 . S
H834 C822 0.956 . S
H835 C822 0.961 . S
H836 C822 0.961 . S
H837 C823 0.958 . S
H838 C823 0.961 . S
H839 C823 0.960 . S
C840 C841 1.391 1_545 S
C840 C842 1.394 . S
C840 H856 0.931 . S
C841 C840 1.391 1_565 S
C841 C845 1.376 . S
C842 C840 1.394 . S
C842 C843 1.369 . S
C842 C846 1.531 . S
C843 C842 1.369 . S
C843 C844 1.410 1_545 S
C843 C851 1.503 . S
C844 C843 1.410 1_565 S
C844 C845 1.392 . S
C844 C847 1.511 . S
C845 C841 1.376 . S
C845 C844 1.392 . S
C845 H857 0.929 . S
C846 C842 1.531 . S
C846 H858 0.960 . S
C846 H859 0.962 . S
C846 H860 0.960 . S
C847 C844 1.511 . S
C847 H861 0.961 . S
C847 H862 0.961 . S
C847 H863 0.961 . S
C848 C849 1.370 1_565 S
C848 C850 1.363 . S
C848 H864 0.931 . S
C849 C848 1.370 1_545 S
C849 C853 1.408 . S
C850 C848 1.363 . S
C850 C851 1.370 1_565 S
C850 C854 1.524 . S
C851 C843 1.503 . S
C851 C850 1.370 1_545 S
C851 C852 1.403 . S
C852 C851 1.403 . S
C852 C853 1.404 . S
C852 C855 1.539 . S
C853 C849 1.408 . S
C853 C852 1.404 . S
C853 H865 0.930 . S
C854 C850 1.524 . S
C854 H866 0.956 . S
C854 H867 0.961 . S
C854 H868 0.961 . S
C855 C852 1.539 . S
C855 H869 0.958 . S
C855 H870 0.961 . S
C855 H871 0.960 . S
H856 C840 0.931 . S
H857 C845 0.929 . S
H858 C846 0.960 . S
H859 C846 0.962 . S
H860 C846 0.960 . S
H861 C847 0.961 . S
H862 C847 0.961 . S
H863 C847 0.961 . S
H864 C848 0.931 . S
H865 C853 0.930 . S
H866 C854 0.956 . S
H867 C854 0.961 . S
H868 C854 0.961 . S
H869 C855 0.958 . S
H870 C855 0.961 . S
H871 C855 0.960 . S
C872 C873 1.391 . S
C872 C874 1.394 . S
C872 H888 0.931 . S
C873 C872 1.391 . S
C873 C877 1.376 . S
C874 C872 1.394 . S
C874 C875 1.369 . S
C874 C878 1.531 . S
C875 C874 1.369 . S
C875 C876 1.410 . S
C875 C883 1.503 . S
C876 C875 1.410 . S
C876 C877 1.392 . S
C876 C879 1.511 . S
C877 C873 1.376 . S
C877 C876 1.392 . S
C877 H889 0.929 . S
C878 C874 1.531 . S
C878 H890 0.960 . S
C878 H891 0.962 . S
C878 H892 0.960 . S
C879 C876 1.511 . S
C879 H893 0.961 . S
C879 H894 0.961 . S
C879 H895 0.961 . S
C880 C881 1.370 . S
C880 C882 1.363 . S
C880 H896 0.931 . S
C881 C880 1.370 . S
C881 C885 1.408 . S
C882 C880 1.363 . S
C882 C883 1.370 . S
C882 C886 1.524 . S
C883 C875 1.503 . S
C883 C882 1.370 . S
C883 C884 1.403 . S
C884 C883 1.403 . S
C884 C885 1.404 . S
C884 C887 1.539 . S
C885 C881 1.408 . S
C885 C884 1.404 . S
C885 H897 0.930 . S
C886 C882 1.524 . S
C886 H898 0.956 . S
C886 H899 0.961 . S
C886 H900 0.961 . S
C887 C884 1.539 . S
C887 H901 0.958 . S
C887 H902 0.961 . S
C887 H903 0.960 . S
H888 C872 0.931 . S
H889 C877 0.929 . S
H890 C878 0.960 . S
H891 C878 0.962 . S
H892 C878 0.960 . S
H893 C879 0.961 . S
H894 C879 0.961 . S
H895 C879 0.961 . S
H896 C880 0.931 . S
H897 C885 0.930 . S
H898 C886 0.956 . S
H899 C886 0.961 . S
H900 C886 0.961 . S
H901 C887 0.958 . S
H902 C887 0.961 . S
H903 C887 0.960 . S
C904 C905 1.391 . S
C904 C906 1.394 . S
C904 H920 0.931 . S
C905 C904 1.391 . S
C905 C909 1.376 1_655 S
C906 C904 1.394 . S
C906 C907 1.369 1_655 S
C906 C910 1.531 . S
C907 C906 1.369 1_455 S
C907 C908 1.410 . S
C907 C915 1.503 . S
C908 C907 1.410 . S
C908 C909 1.392 . S
C908 C911 1.511 . S
C909 C905 1.376 1_455 S
C909 C908 1.392 . S
C909 H921 0.929 . S
C910 C906 1.531 . S
C910 H922 0.960 . S
C910 H923 0.962 . S
C910 H924 0.960 . S
C911 C908 1.511 . S
C911 H925 0.961 . S
C911 H926 0.961 . S
C911 H927 0.961 . S
C912 C913 1.370 1_655 S
C912 C914 1.363 . S
C912 H928 0.931 . S
C913 C912 1.370 1_455 S
C913 C917 1.408 . S
C914 C912 1.363 . S
C914 C915 1.370 1_655 S
C914 C918 1.524 . S
C915 C907 1.503 . S
C915 C914 1.370 1_455 S
C915 C916 1.403 . S
C916 C915 1.403 . S
C916 C917 1.404 . S
C916 C919 1.539 . S
C917 C913 1.408 . S
C917 C916 1.404 . S
C917 H929 0.930 . S
C918 C914 1.524 . S
C918 H930 0.956 . S
C918 H931 0.961 . S
C918 H932 0.961 . S
C919 C916 1.539 . S
C919 H933 0.958 . S
C919 H934 0.961 . S
C919 H935 0.960 . S
H920 C904 0.931 . S
H921 C909 0.929 . S
H922 C910 0.960 . S
H923 C910 0.962 . S
H924 C910 0.960 . S
H925 C911 0.961 . S
H926 C911 0.961 . S
H927 C911 0.961 . S
H928 C912 0.931 . S
H929 C917 0.930 . S
H930 C918 0.956 . S
H931 C918 0.961 . S
H932 C918 0.961 . S
H933 C919 0.958 . S
H934 C919 0.961 . S
H935 C919 0.960 . S
C169 C11 1.786 . S
C177 C123 1.787 . S
C201 C25 1.780 . S
C209 C137 1.793 . S
C233 C151 1.779 . S
C241 C39 1.790 . S
C265 C165 1.791 . S
C273 C53 1.789 . S
C297 C95 1.781 . S
C305 C67 1.792 . S
C329 C109 1.789 . S
C337 C81 1.786 . S
C361 C9 1.579 . S
C369 C51 1.589 . S
C393 C65 1.579 . S
C401 C23 1.590 . S
C425 C79 1.579 . S
C433 C37 1.590 . S
C457 C93 1.587 . S
C465 C135 1.593 . S
C489 C149 1.586 . S
C497 C107 1.587 . S
C521 C121 1.593 . S
C529 C163 1.590 . S
C553 C84 0.905 . S
C561 C0 0.892 . S
C585 C14 0.841 . S
C593 C98 0.886 . S
C617 C112 0.926 . S
C625 C28 0.881 . S
C649 C126 0.932 . S
C657 C42 0.875 . S
C681 C56 0.928 . S
C689 C140 0.862 . S
C713 C154 0.836 . S
C721 C70 0.889 . S
C745 C5 1.022 . S
C753 C103 1.058 . S
C777 C117 1.040 . S
C785 C19 1.048 . S
C809 C131 1.021 . S
C817 C33 1.058 . S
C841 C47 1.025 . S
C849 C145 1.055 . S
C873 C159 1.050 . S
C881 C61 1.053 . S
C905 C89 1.026 . S
C913 C75 1.060 . S
