# Generated by pormake.
# Topology son, (6)-cn, num edge types: 1
# Building blocks:
#     Node 0, Type 0, BuildingBlock: BETFAJ_clean_sbu_0, # of connection points: 6
#     Node 1, Type 0, BuildingBlock: BETFAJ_clean_sbu_0, # of connection points: 6
#     Node 2, Type 0, BuildingBlock: BETFAJ_clean_sbu_0, # of connection points: 6
#     Node 3, Type 0, BuildingBlock: BETFAJ_clean_sbu_0, # of connection points: 6
#     Node 4, Type 0, BuildingBlock: BETFAJ_clean_sbu_0, # of connection points: 6
#     Node 5, Type 0, BuildingBlock: BETFAJ_clean_sbu_0, # of connection points: 6
#     Node 6, Type 0, BuildingBlock: BETFAJ_clean_sbu_0, # of connection points: 6
#     Node 7, Type 0, BuildingBlock: BETFAJ_clean_sbu_0, # of connection points: 6
#     Node 8, Type 0, BuildingBlock: BETFAJ_clean_sbu_0, # of connection points: 6
#     Node 9, Type 0, BuildingBlock: BETFAJ_clean_sbu_0, # of connection points: 6
#     Node 10, Type 0, BuildingBlock: BETFAJ_clean_sbu_0, # of connection points: 6
#     Node 11, Type 0, BuildingBlock: BETFAJ_clean_sbu_0, # of connection points: 6
#     Node 12, Type 0, BuildingBlock: BETFAJ_clean_sbu_0, # of connection points: 6
#     Node 13, Type 0, BuildingBlock: BETFAJ_clean_sbu_0, # of connection points: 6
#     Node 14, Type 0, BuildingBlock: BETFAJ_clean_sbu_0, # of connection points: 6
#     Node 15, Type 0, BuildingBlock: BETFAJ_clean_sbu_0, # of connection points: 6
#     Node 16, Type 0, BuildingBlock: BETFAJ_clean_sbu_0, # of connection points: 6
#     Node 17, Type 0, BuildingBlock: BETFAJ_clean_sbu_0, # of connection points: 6
#     Node 18, Type 0, BuildingBlock: BETFAJ_clean_sbu_0, # of connection points: 6
#     Node 19, Type 0, BuildingBlock: BETFAJ_clean_sbu_0, # of connection points: 6
#     Node 20, Type 0, BuildingBlock: BETFAJ_clean_sbu_0, # of connection points: 6
#     Node 21, Type 0, BuildingBlock: BETFAJ_clean_sbu_0, # of connection points: 6
#     Node 22, Type 0, BuildingBlock: BETFAJ_clean_sbu_0, # of connection points: 6
#     Node 23, Type 0, BuildingBlock: BETFAJ_clean_sbu_0, # of connection points: 6
#     Node 24, Type 0, BuildingBlock: BETFAJ_clean_sbu_0, # of connection points: 6
#     Node 25, Type 0, BuildingBlock: BETFAJ_clean_sbu_0, # of connection points: 6
#     Node 26, Type 0, BuildingBlock: BETFAJ_clean_sbu_0, # of connection points: 6
#     Node 27, Type 0, BuildingBlock: BETFAJ_clean_sbu_0, # of connection points: 6
#     Node 28, Type 0, BuildingBlock: BETFAJ_clean_sbu_0, # of connection points: 6
#     Node 29, Type 0, BuildingBlock: BETFAJ_clean_sbu_0, # of connection points: 6
#     Node 30, Type 0, BuildingBlock: BETFAJ_clean_sbu_0, # of connection points: 6
#     Node 31, Type 0, BuildingBlock: BETFAJ_clean_sbu_0, # of connection points: 6
#     Edge 32, Type (0, 0), BuildingBlock: KIFKEQ_clean_linker_1, # of connection points: 2
#     Edge 33, Type (0, 0), BuildingBlock: KIFKEQ_clean_linker_1, # of connection points: 2
#     Edge 34, Type (0, 0), BuildingBlock: KIFKEQ_clean_linker_1, # of connection points: 2
#     Edge 35, Type (0, 0), BuildingBlock: KIFKEQ_clean_linker_1, # of connection points: 2
#     Edge 36, Type (0, 0), BuildingBlock: KIFKEQ_clean_linker_1, # of connection points: 2
#     Edge 37, Type (0, 0), BuildingBlock: KIFKEQ_clean_linker_1, # of connection points: 2
#     Edge 38, Type (0, 0), BuildingBlock: KIFKEQ_clean_linker_1, # of connection points: 2
#     Edge 39, Type (0, 0), BuildingBlock: KIFKEQ_clean_linker_1, # of connection points: 2
#     Edge 40, Type (0, 0), BuildingBlock: KIFKEQ_clean_linker_1, # of connection points: 2
#     Edge 41, Type (0, 0), BuildingBlock: KIFKEQ_clean_linker_1, # of connection points: 2
#     Edge 42, Type (0, 0), BuildingBlock: KIFKEQ_clean_linker_1, # of connection points: 2
#     Edge 43, Type (0, 0), BuildingBlock: KIFKEQ_clean_linker_1, # of connection points: 2
#     Edge 44, Type (0, 0), BuildingBlock: KIFKEQ_clean_linker_1, # of connection points: 2
#     Edge 45, Type (0, 0), BuildingBlock: KIFKEQ_clean_linker_1, # of connection points: 2
#     Edge 46, Type (0, 0), BuildingBlock: KIFKEQ_clean_linker_1, # of connection points: 2
#     Edge 47, Type (0, 0), BuildingBlock: KIFKEQ_clean_linker_1, # of connection points: 2
#     Edge 48, Type (0, 0), BuildingBlock: KIFKEQ_clean_linker_1, # of connection points: 2
#     Edge 49, Type (0, 0), BuildingBlock: KIFKEQ_clean_linker_1, # of connection points: 2
#     Edge 50, Type (0, 0), BuildingBlock: KIFKEQ_clean_linker_1, # of connection points: 2
#     Edge 51, Type (0, 0), BuildingBlock: KIFKEQ_clean_linker_1, # of connection points: 2
#     Edge 52, Type (0, 0), BuildingBlock: KIFKEQ_clean_linker_1, # of connection points: 2
#     Edge 53, Type (0, 0), BuildingBlock: KIFKEQ_clean_linker_1, # of connection points: 2
#     Edge 54, Type (0, 0), BuildingBlock: KIFKEQ_clean_linker_1, # of connection points: 2
#     Edge 55, Type (0, 0), BuildingBlock: KIFKEQ_clean_linker_1, # of connection points: 2
#     Edge 56, Type (0, 0), BuildingBlock: KIFKEQ_clean_linker_1, # of connection points: 2
#     Edge 57, Type (0, 0), BuildingBlock: KIFKEQ_clean_linker_1, # of connection points: 2
#     Edge 58, Type (0, 0), BuildingBlock: KIFKEQ_clean_linker_1, # of connection points: 2
#     Edge 59, Type (0, 0), BuildingBlock: KIFKEQ_clean_linker_1, # of connection points: 2
#     Edge 60, Type (0, 0), BuildingBlock: KIFKEQ_clean_linker_1, # of connection points: 2
#     Edge 61, Type (0, 0), BuildingBlock: KIFKEQ_clean_linker_1, # of connection points: 2
#     Edge 62, Type (0, 0), BuildingBlock: KIFKEQ_clean_linker_1, # of connection points: 2
#     Edge 63, Type (0, 0), BuildingBlock: KIFKEQ_clean_linker_1, # of connection points: 2
#     Edge 64, Type (0, 0), BuildingBlock: KIFKEQ_clean_linker_1, # of connection points: 2
#     Edge 65, Type (0, 0), BuildingBlock: KIFKEQ_clean_linker_1, # of connection points: 2
#     Edge 66, Type (0, 0), BuildingBlock: KIFKEQ_clean_linker_1, # of connection points: 2
#     Edge 67, Type (0, 0), BuildingBlock: KIFKEQ_clean_linker_1, # of connection points: 2
#     Edge 68, Type (0, 0), BuildingBlock: KIFKEQ_clean_linker_1, # of connection points: 2
#     Edge 69, Type (0, 0), BuildingBlock: KIFKEQ_clean_linker_1, # of connection points: 2
#     Edge 70, Type (0, 0), BuildingBlock: KIFKEQ_clean_linker_1, # of connection points: 2
#     Edge 71, Type (0, 0), BuildingBlock: KIFKEQ_clean_linker_1, # of connection points: 2
#     Edge 72, Type (0, 0), BuildingBlock: KIFKEQ_clean_linker_1, # of connection points: 2
#     Edge 73, Type (0, 0), BuildingBlock: KIFKEQ_clean_linker_1, # of connection points: 2
#     Edge 74, Type (0, 0), BuildingBlock: KIFKEQ_clean_linker_1, # of connection points: 2
#     Edge 75, Type (0, 0), BuildingBlock: KIFKEQ_clean_linker_1, # of connection points: 2
#     Edge 76, Type (0, 0), BuildingBlock: KIFKEQ_clean_linker_1, # of connection points: 2
#     Edge 77, Type (0, 0), BuildingBlock: KIFKEQ_clean_linker_1, # of connection points: 2
#     Edge 78, Type (0, 0), BuildingBlock: KIFKEQ_clean_linker_1, # of connection points: 2
#     Edge 79, Type (0, 0), BuildingBlock: KIFKEQ_clean_linker_1, # of connection points: 2
#     Edge 80, Type (0, 0), BuildingBlock: KIFKEQ_clean_linker_1, # of connection points: 2
#     Edge 81, Type (0, 0), BuildingBlock: KIFKEQ_clean_linker_1, # of connection points: 2
#     Edge 82, Type (0, 0), BuildingBlock: KIFKEQ_clean_linker_1, # of connection points: 2
#     Edge 83, Type (0, 0), BuildingBlock: KIFKEQ_clean_linker_1, # of connection points: 2
#     Edge 84, Type (0, 0), BuildingBlock: KIFKEQ_clean_linker_1, # of connection points: 2
#     Edge 85, Type (0, 0), BuildingBlock: KIFKEQ_clean_linker_1, # of connection points: 2
#     Edge 86, Type (0, 0), BuildingBlock: KIFKEQ_clean_linker_1, # of connection points: 2
#     Edge 87, Type (0, 0), BuildingBlock: KIFKEQ_clean_linker_1, # of connection points: 2
#     Edge 88, Type (0, 0), BuildingBlock: KIFKEQ_clean_linker_1, # of connection points: 2
#     Edge 89, Type (0, 0), BuildingBlock: KIFKEQ_clean_linker_1, # of connection points: 2
#     Edge 90, Type (0, 0), BuildingBlock: KIFKEQ_clean_linker_1, # of connection points: 2
#     Edge 91, Type (0, 0), BuildingBlock: KIFKEQ_clean_linker_1, # of connection points: 2
#     Edge 92, Type (0, 0), BuildingBlock: KIFKEQ_clean_linker_1, # of connection points: 2
#     Edge 93, Type (0, 0), BuildingBlock: KIFKEQ_clean_linker_1, # of connection points: 2
#     Edge 94, Type (0, 0), BuildingBlock: KIFKEQ_clean_linker_1, # of connection points: 2
#     Edge 95, Type (0, 0), BuildingBlock: KIFKEQ_clean_linker_1, # of connection points: 2
#     Edge 96, Type (0, 0), BuildingBlock: KIFKEQ_clean_linker_1, # of connection points: 2
#     Edge 97, Type (0, 0), BuildingBlock: KIFKEQ_clean_linker_1, # of connection points: 2
#     Edge 98, Type (0, 0), BuildingBlock: KIFKEQ_clean_linker_1, # of connection points: 2
#     Edge 99, Type (0, 0), BuildingBlock: KIFKEQ_clean_linker_1, # of connection points: 2
#     Edge 100, Type (0, 0), BuildingBlock: KIFKEQ_clean_linker_1, # of connection points: 2
#     Edge 101, Type (0, 0), BuildingBlock: KIFKEQ_clean_linker_1, # of connection points: 2
#     Edge 102, Type (0, 0), BuildingBlock: KIFKEQ_clean_linker_1, # of connection points: 2
#     Edge 103, Type (0, 0), BuildingBlock: KIFKEQ_clean_linker_1, # of connection points: 2
#     Edge 104, Type (0, 0), BuildingBlock: KIFKEQ_clean_linker_1, # of connection points: 2
#     Edge 105, Type (0, 0), BuildingBlock: KIFKEQ_clean_linker_1, # of connection points: 2
#     Edge 106, Type (0, 0), BuildingBlock: KIFKEQ_clean_linker_1, # of connection points: 2
#     Edge 107, Type (0, 0), BuildingBlock: KIFKEQ_clean_linker_1, # of connection points: 2
#     Edge 108, Type (0, 0), BuildingBlock: KIFKEQ_clean_linker_1, # of connection points: 2
#     Edge 109, Type (0, 0), BuildingBlock: KIFKEQ_clean_linker_1, # of connection points: 2
#     Edge 110, Type (0, 0), BuildingBlock: KIFKEQ_clean_linker_1, # of connection points: 2
#     Edge 111, Type (0, 0), BuildingBlock: KIFKEQ_clean_linker_1, # of connection points: 2
#     Edge 112, Type (0, 0), BuildingBlock: KIFKEQ_clean_linker_1, # of connection points: 2
#     Edge 113, Type (0, 0), BuildingBlock: KIFKEQ_clean_linker_1, # of connection points: 2
#     Edge 114, Type (0, 0), BuildingBlock: KIFKEQ_clean_linker_1, # of connection points: 2
#     Edge 115, Type (0, 0), BuildingBlock: KIFKEQ_clean_linker_1, # of connection points: 2
#     Edge 116, Type (0, 0), BuildingBlock: KIFKEQ_clean_linker_1, # of connection points: 2
#     Edge 117, Type (0, 0), BuildingBlock: KIFKEQ_clean_linker_1, # of connection points: 2
#     Edge 118, Type (0, 0), BuildingBlock: KIFKEQ_clean_linker_1, # of connection points: 2
#     Edge 119, Type (0, 0), BuildingBlock: KIFKEQ_clean_linker_1, # of connection points: 2
#     Edge 120, Type (0, 0), BuildingBlock: KIFKEQ_clean_linker_1, # of connection points: 2
#     Edge 121, Type (0, 0), BuildingBlock: KIFKEQ_clean_linker_1, # of connection points: 2
#     Edge 122, Type (0, 0), BuildingBlock: KIFKEQ_clean_linker_1, # of connection points: 2
#     Edge 123, Type (0, 0), BuildingBlock: KIFKEQ_clean_linker_1, # of connection points: 2
#     Edge 124, Type (0, 0), BuildingBlock: KIFKEQ_clean_linker_1, # of connection points: 2
#     Edge 125, Type (0, 0), BuildingBlock: KIFKEQ_clean_linker_1, # of connection points: 2
#     Edge 126, Type (0, 0), BuildingBlock: KIFKEQ_clean_linker_1, # of connection points: 2
#     Edge 127, Type (0, 0), BuildingBlock: KIFKEQ_clean_linker_1, # of connection points: 2
# Relax obj value: 0.148
# Max RMSD: 0.176
# Mean RMSD: 0.176
data_MOF--net-son--node1-BETFAJ_clean_sbu_0--edge1-KIFKEQ_clean_linker_1
_symmetry_space_group_name_H-M    P1
_symmetry_Int_Tables_number       1
_symmetry_cell_setting            triclinic
loop_
_symmetry_equiv_pos_as_xyz
'x, y, z'
_cell_length_a     97.027365
_cell_length_b     53.150755
_cell_length_c     25.528281
_cell_angle_alpha  90.054504
_cell_angle_beta   89.97506
_cell_angle_gamma 90.05515
loop_
_atom_site_label
_atom_site_type_symbol
_atom_site_fract_x
_atom_site_fract_y
_atom_site_fract_z
_atom_type_partial_charge
Sm0 Sm 0.31021 0.27248 0.18416 0.0
Sm1 Sm 0.29077 0.26199 0.28186 0.0
C2 C 0.32057 0.27855 0.08898 0.0
C3 C 0.31639 0.27296 0.03444 0.0
C4 C 0.30249 0.27412 0.01906 0.0
C5 C 0.29879 0.27072 0.9665 0.0
C6 C 0.30889 0.26591 0.9282 0.0
C7 C 0.32275 0.26398 0.94407 0.0
C8 C 0.32645 0.26755 0.99663 0.0
C9 C 0.30618 0.31196 0.25326 0.0
C10 C 0.277 0.26142 0.16703 0.0
C11 C 0.27866 0.27057 0.37335 0.0
C12 C 0.28187 0.26688 0.42957 0.0
C13 C 0.29494 0.27288 0.44986 0.0
C14 C 0.29758 0.27082 0.50359 0.0
C15 C 0.28729 0.26248 0.53844 0.0
C16 C 0.2743 0.25594 0.51767 0.0
C17 C 0.27163 0.25821 0.4639 0.0
C18 C 0.29789 0.21633 0.23678 0.0
C19 C 0.32504 0.25573 0.28945 0.0
O20 O 0.3238 0.2594 0.11897 0.0
O21 O 0.31333 0.29575 0.11338 0.0
O22 O 0.29692 0.29692 0.23732 0.0
O23 O 0.31792 0.30666 0.23151 0.0
O24 O 0.28971 0.26061 0.14915 0.0
O25 O 0.27413 0.26571 0.21707 0.0
O26 O 0.28613 0.28725 0.34848 0.0
O27 O 0.27613 0.25049 0.34516 0.0
O28 O 0.30165 0.238 0.22207 0.0
O29 O 0.29014 0.21843 0.27813 0.0
O30 O 0.3132 0.26019 0.31398 0.0
O31 O 0.32625 0.25588 0.23795 0.0
H32 H 0.2945 0.27813 0.04748 0.0
H33 H 0.28801 0.27195 0.9558 0.0
H34 H 0.3308 0.2605 0.91557 0.0
H35 H 0.33723 0.26659 1.00756 0.0
H36 H 0.30307 0.27959 0.42435 0.0
H37 H 0.30764 0.2764 0.51785 0.0
H38 H 0.26617 0.24902 0.54289 0.0
H39 H 0.26149 0.25341 0.44919 0.0
Sm40 Sm 0.92783 0.99385 0.18299 0.0
Sm41 Sm 0.94772 1.00354 0.28078 0.0
C42 C 0.91664 0.98967 0.08846 0.0
C43 C 0.92073 0.99318 0.03307 0.0
C44 C 0.93174 1.00896 0.01879 0.0
C45 C 0.93569 1.0112 0.96604 0.0
C46 C 0.92878 0.99755 0.9266 0.0
C47 C 0.91773 0.98188 0.94134 0.0
C48 C 0.91376 0.97975 0.9939 0.0
C49 C 0.93039 0.95466 0.25402 0.0
C50 C 0.9616 0.99623 0.16548 0.0
C51 C 0.95939 0.99498 0.3733 0.0
C52 C 0.95749 1.00108 0.42942 0.0
C53 C 0.94471 1.00936 0.44872 0.0
C54 C 0.94247 0.01158 0.50286 0.0
C55 C 0.95296 1.00548 0.53888 0.0
C56 C 0.9659 0.99813 0.51908 0.0
C57 C 0.96812 0.99593 0.465 0.0
C58 C 0.94192 0.04916 0.23275 0.0
C59 C 0.91384 0.01434 0.28776 0.0
O60 O 0.91547 1.00988 0.11762 0.0
O61 O 0.92249 0.97091 0.11305 0.0
O62 O 0.94015 0.96875 0.2384 0.0
O63 O 0.919 0.96057 0.23022 0.0
O64 O 0.94902 0.99798 0.14668 0.0
O65 O 0.96423 0.99567 0.21659 0.0
O66 O 0.94985 0.98076 0.35258 0.0
O67 O 0.96357 0.01284 0.34164 0.0
O68 O 0.93763 0.02761 0.2195 0.0
O69 O 0.94958 0.04699 0.27427 0.0
O70 O 0.92542 1.00837 0.3125 0.0
O71 O 0.91262 0.01357 0.2363 0.0
H72 H 0.93736 0.01935 0.04844 0.0
H73 H 0.94434 0.02321 0.95627 0.0
H74 H 0.91204 0.97135 0.91212 0.0
H75 H 0.90527 0.96742 1.00402 0.0
H76 H 0.93631 0.01326 0.42201 0.0
H77 H 0.93234 0.01708 0.51647 0.0
H78 H 0.9743 0.99369 0.54544 0.0
H79 H 0.97805 0.98943 0.45102 0.0
Sm80 Sm 0.30884 0.9914 0.10193 0.0
Sm81 Sm 0.29069 1.0037 1.00151 0.0
C82 C 0.31946 0.98747 0.19704 0.0
C83 C 0.31485 0.99231 0.25126 0.0
C84 C 0.30124 0.98727 0.26697 0.0
C85 C 0.29718 0.99116 0.31897 0.0
C86 C 0.30663 1.00036 0.35617 0.0
C87 C 0.32016 1.00591 0.33996 0.0
C88 C 0.32423 1.00185 0.28804 0.0
C89 C 0.30559 0.95258 0.03076 0.0
C90 C 0.27518 0.99807 0.11406 0.0
C91 C 0.27876 0.99695 0.90913 0.0
C92 C 0.28134 1.00291 0.85348 0.0
C93 C 0.29467 1.00138 0.83225 0.0
C94 C 0.29678 1.00439 0.77843 0.0
C95 C 0.28564 1.00925 0.74459 0.0
C96 C 0.27236 0.01172 0.76645 0.0
C97 C 0.27025 1.00848 0.8203 0.0
C98 C 0.2975 0.04855 0.05054 0.0
C99 C 0.32481 1.00926 0.99837 0.0
O100 O 0.32136 1.00724 0.16724 0.0
O101 O 0.3135 0.96875 0.17247 0.0
O102 O 0.29623 0.96791 0.04458 0.0
O103 O 0.31687 0.95694 0.05668 0.0
O104 O 0.28738 0.99635 0.1361 0.0
O105 O 0.2733 0.99935 0.06273 0.0
O106 O 0.28722 0.98083 0.93058 0.0
O107 O 0.2755 0.01554 0.94048 0.0
O108 O 0.30092 0.02662 0.06477 0.0
O109 O 0.29044 0.04715 1.00738 0.0
O110 O 0.31321 1.00594 0.97174 0.0
O111 O 0.32551 1.00771 0.04987 0.0
H112 H 0.29375 0.98013 0.23921 0.0
H113 H 0.28664 0.98703 0.33005 0.0
H114 H 0.3277 0.01281 0.36775 0.0
H115 H 0.33476 1.00591 0.27671 0.0
H116 H 0.30343 0.99714 0.85701 0.0
H117 H 0.30712 1.00201 0.76325 0.0
H118 H 0.26356 0.01593 0.74193 0.0
H119 H 0.25988 1.00981 0.83588 0.0
Sm120 Sm 0.92836 0.27422 0.10061 0.0
Sm121 Sm 0.94735 0.26313 1.00244 0.0
C122 C 0.91774 0.28164 0.19525 0.0
C123 C 0.92093 0.27605 0.2506 0.0
C124 C 0.93244 0.26156 0.26451 0.0
C125 C 0.93584 0.25792 0.31739 0.0
C126 C 0.92774 0.26865 0.35744 0.0
C127 C 0.91609 0.28286 0.34305 0.0
C128 C 0.91275 0.28654 0.29024 0.0
C129 C 0.93212 0.3133 0.03017 0.0
C130 C 0.9616 0.26325 0.11637 0.0
C131 C 0.95917 0.27172 0.9103 0.0
C132 C 0.9565 0.26666 0.85425 0.0
C133 C 0.9431 0.26191 0.836 0.0
C134 C 0.94049 0.25969 0.78219 0.0
C135 C 0.95123 0.26217 0.74537 0.0
C136 C 0.96472 0.26621 0.76412 0.0
C137 C 0.9673 0.26846 0.81795 0.0
C138 C 0.94058 0.21761 0.04875 0.0
C139 C 0.91315 0.25574 0.99699 0.0
O140 O 0.91425 0.26266 0.16514 0.0
O141 O 0.92601 0.2976 0.17201 0.0
O142 O 0.94144 0.29845 0.04615 0.0
O143 O 0.92046 0.30794 0.05238 0.0
O144 O 0.94896 0.26225 0.13502 0.0
O145 O 0.96421 0.26756 0.06616 0.0
O146 O 0.95062 0.2873 0.93307 0.0
O147 O 0.96252 0.25265 0.94018 0.0
O148 O 0.93678 0.23927 0.06356 0.0
O149 O 0.94809 0.21965 1.00674 0.0
O150 O 0.92488 0.25999 0.97162 0.0
O151 O 0.91208 0.25691 0.04847 0.0
H152 H 0.93886 0.25328 0.23447 0.0
H153 H 0.94479 0.24665 0.32687 0.0
H154 H 0.90972 0.29172 0.37261 0.0
H155 H 0.90389 0.29797 0.28034 0.0
H156 H 0.93457 0.26057 0.86329 0.0
H157 H 0.92996 0.25687 0.76942 0.0
H158 H 0.9733 0.2678 0.73718 0.0
H159 H 0.97772 0.27215 0.83116 0.0
Sm160 Sm 0.7007 0.76325 0.74112 0.0
Sm161 Sm 0.68338 0.74595 0.84141 0.0
C162 C 0.71523 0.76536 0.653 0.0
C163 C 0.71226 0.76203 0.59657 0.0
C164 C 0.69977 0.75142 0.57968 0.0
C165 C 0.69681 0.74935 0.52605 0.0
C166 C 0.70626 0.75794 0.48803 0.0
C167 C 0.71884 0.76832 0.5054 0.0
C168 C 0.72178 0.77033 0.55902 0.0
C169 C 0.69101 0.80187 0.80284 0.0
C170 C 0.66704 0.76143 0.73603 0.0
C171 C 0.67184 0.74504 0.93569 0.0
C172 C 0.67598 0.7493 0.99085 0.0
C173 C 0.68978 0.74668 1.00674 0.0
C174 C 0.69337 0.74856 0.05985 0.0
C175 C 0.68325 0.7532 0.09829 0.0
C176 C 0.6695 0.75642 0.08188 0.0
C177 C 0.66592 0.75444 0.0288 0.0
C178 C 0.68546 0.70634 0.76879 0.0
C179 C 0.71703 0.74842 0.85102 0.0
O180 O 0.71447 0.74521 0.6824 0.0
O181 O 0.70972 0.78514 0.67524 0.0
O182 O 0.69584 0.78119 0.81997 0.0
O183 O 0.69166 0.8027 0.75197 0.0
O184 O 0.67866 0.75852 0.70936 0.0
O185 O 0.66654 0.76123 0.78778 0.0
O186 O 0.67121 0.7647 0.90471 0.0
O187 O 0.67722 0.72529 0.91288 0.0
O188 O 0.69051 0.72812 0.76641 0.0
O189 O 0.67862 0.70485 0.81244 0.0
O190 O 0.70518 0.74139 0.87124 0.0
O191 O 0.71817 0.7581 0.8032 0.0
H192 H 0.69226 0.74489 0.608 0.0
H193 H 0.68712 0.74091 0.51444 0.0
H194 H 0.72631 0.77545 0.4776 0.0
H195 H 0.73146 0.7787 0.57119 0.0
H196 H 0.69776 0.74274 0.97821 0.0
H197 H 0.70408 0.74634 0.07078 0.0
H198 H 0.66139 0.75975 0.11023 0.0
H199 H 0.65521 0.75638 0.01753 0.0
Sm200 Sm 0.0428 0.01845 0.7537 0.0
Sm201 Sm 0.06149 0.03067 0.85167 0.0
C202 C 0.03067 0.02601 0.66186 0.0
C203 C 0.0339 0.02267 0.60566 0.0
C204 C 0.04725 0.02706 0.58629 0.0
C205 C 0.04994 0.02562 0.53247 0.0
C206 C 0.03937 0.01958 0.49674 0.0
C207 C 0.02609 0.01456 0.51662 0.0
C208 C 0.0234 0.01616 0.57045 0.0
C209 C 0.04923 0.97332 0.80208 0.0
C210 C 0.07683 0.01148 0.74829 0.0
C211 C 0.07274 0.0359 0.94568 0.0
C212 C 0.06853 0.03234 1.00087 0.0
C213 C 0.05501 0.03753 0.01748 0.0
C214 C 0.05132 0.03479 0.07022 0.0
C215 C 0.06105 0.02667 0.10745 0.0
C216 C 0.07451 0.02107 0.09041 0.0
C217 C 0.0782 0.02393 0.0377 0.0
C218 C 0.0585 0.06871 0.77836 0.0
C219 C 0.02781 0.02457 0.86736 0.0
O220 O 0.03778 0.04319 0.68673 0.0
O221 O 0.02868 1.0057 0.6898 0.0
O222 O 0.0531 0.99505 0.81666 0.0
O223 O 0.04188 0.97519 0.75971 0.0
O224 O 0.0652 0.01557 0.72228 0.0
O225 O 0.07766 0.01279 0.79976 0.0
O226 O 0.07414 0.01551 0.91728 0.0
O227 O 0.06683 0.05436 0.92022 0.0
O228 O 0.04899 0.05437 0.79491 0.0
O229 O 0.07 0.06358 0.80208 0.0
O230 O 0.04016 0.02687 0.88802 0.0
O231 O 0.02566 0.02249 0.81623 0.0
H232 H 0.05556 0.0321 0.61263 0.0
H233 H 0.06024 0.02992 0.51884 0.0
H234 H 0.01774 1.00941 0.4906 0.0
H235 H 0.01304 0.01263 0.58454 0.0
H236 H 0.04733 0.04388 0.98979 0.0
H237 H 0.04082 0.03893 0.08181 0.0
H238 H 0.08229 0.01501 0.11805 0.0
H239 H 0.08867 0.0198 0.02576 0.0
Sm240 Sm 0.69973 0.01766 0.03234 0.0
Sm241 Sm 0.68009 0.02689 0.93351 0.0
C242 C 0.71136 0.02648 0.12477 0.0
C243 C 0.70944 0.01999 0.18063 0.0
C244 C 0.69655 0.01214 0.19964 0.0
C245 C 0.69433 1.00935 0.2536 0.0
C246 C 0.70495 0.01436 0.2898 0.0
C247 C 0.718 0.02133 0.27026 0.0
C248 C 0.72019 0.02415 0.21629 0.0
C249 C 0.69394 0.97178 0.98515 0.0
C250 C 0.66564 1.00852 0.03903 0.0
C251 C 0.66889 0.02987 0.83885 0.0
C252 C 0.67297 0.02569 0.78375 0.0
C253 C 0.68564 0.01452 0.77078 0.0
C254 C 0.68954 0.0117 0.71815 0.0
C255 C 0.68082 0.01987 0.67743 0.0
C256 C 0.6681 0.03091 0.69091 0.0
C257 C 0.66425 0.0338 0.74344 0.0
C258 C 0.68278 0.06657 1.00348 0.0
C259 C 0.71383 0.0255 0.91755 0.0
O260 O 0.70169 0.04045 0.10426 0.0
O261 O 0.71574 1.00888 0.0928 0.0
O262 O 0.68973 0.99324 0.97111 0.0
O263 O 0.70142 0.97417 0.02711 0.0
O264 O 0.67736 0.01347 0.06385 0.0
O265 O 0.66445 1.00906 0.98758 0.0
O266 O 0.66781 1.00995 0.86883 0.0
O267 O 0.67476 0.04893 0.86252 0.0
O268 O 0.69242 0.05212 0.98852 0.0
O269 O 0.67143 0.06091 0.97912 0.0
O270 O 0.70135 0.02316 0.89816 0.0
O271 O 0.71633 0.02598 0.96874 0.0
H272 H 0.68806 1.00899 0.17288 0.0
H273 H 0.68411 1.00421 0.26697 0.0
H274 H 0.72649 0.02492 0.29672 0.0
H275 H 0.73021 0.03029 0.2025 0.0
H276 H 0.69252 1.00807 0.80128 0.0
H277 H 0.69934 1.00292 0.70938 0.0
H278 H 0.66121 0.03781 0.66085 0.0
H279 H 0.65448 0.04264 0.75261 0.0
Sm280 Sm 0.04365 0.75656 0.02216 0.0
Sm281 Sm 0.06357 0.7461 0.92602 0.0
C282 C 0.03179 0.74796 0.11442 0.0
C283 C 0.03523 0.75131 0.17066 0.0
C284 C 0.04887 0.74908 0.18862 0.0
C285 C 0.05187 0.75048 0.24229 0.0
C286 C 0.04131 0.75422 0.27947 0.0
C287 C 0.02769 0.75695 0.26105 0.0
C288 C 0.0247 0.75547 0.20734 0.0
C289 C 0.05015 0.80233 0.97619 0.0
C290 C 0.07773 0.76494 0.03113 0.0
C291 C 0.07494 0.73948 0.83233 0.0
C292 C 0.07161 0.74329 0.77623 0.0
C293 C 0.06278 0.7626 0.75942 0.0
C294 C 0.05935 0.76501 0.70616 0.0
C295 C 0.0648 0.7483 0.66854 0.0
C296 C 0.07371 0.72911 0.68578 0.0
C297 C 0.07703 0.72663 0.73892 0.0
C298 C 0.06016 0.70737 0.99766 0.0
C299 C 0.03007 0.75374 0.90622 0.0
O300 O 0.03908 0.73129 0.0889 0.0
O301 O 0.02936 0.7682 0.0867 0.0
O302 O 0.05437 0.78084 0.96172 0.0
O303 O 0.04228 0.79988 0.0171 0.0
O304 O 0.06591 0.75988 0.05516 0.0
O305 O 0.0791 0.76447 0.97972 0.0
O306 O 0.0771 0.75952 0.86128 0.0
O307 O 0.06784 0.72209 0.8566 0.0
O308 O 0.05069 0.72147 0.98013 0.0
O309 O 0.07184 0.71318 0.97598 0.0
O310 O 0.04283 0.75423 0.88876 0.0
O311 O 0.02714 0.75154 0.95688 0.0
H312 H 0.05721 0.74578 0.16122 0.0
H313 H 0.06245 0.74795 0.25465 0.0
H314 H 0.01929 0.76027 0.28814 0.0
H315 H 0.01411 0.75726 0.19449 0.0
H316 H 0.0585 0.77575 0.78745 0.0
H317 H 0.05256 0.78014 0.69439 0.0
H318 H 0.07795 0.71566 0.65827 0.0
H319 H 0.08379 0.71148 0.75099 0.0
Sm320 Sm 0.30914 0.7751 0.68093 0.0
Sm321 Sm 0.29116 0.76244 0.78194 0.0
C322 C 0.31958 0.78161 0.58599 0.0
C323 C 0.31589 0.77644 0.53105 0.0
C324 C 0.30511 0.75994 0.51799 0.0
C325 C 0.30131 0.75648 0.46546 0.0
C326 C 0.30817 0.76961 0.42523 0.0
C327 C 0.31908 0.78583 0.43874 0.0
C328 C 0.32288 0.7892 0.49108 0.0
C329 C 0.30572 0.81379 0.75265 0.0
C330 C 0.27576 0.7662 0.6696 0.0
C331 C 0.27925 0.76947 0.87433 0.0
C332 C 0.28086 0.76276 0.93 0.0
C333 C 0.29369 0.75534 0.95017 0.0
C334 C 0.29555 0.7527 1.00431 0.0
C335 C 0.28462 0.7575 0.03929 0.0
C336 C 0.27164 0.76383 0.01852 0.0
C337 C 0.2698 0.76647 0.96444 0.0
C338 C 0.29795 0.71787 0.73179 0.0
C339 C 0.32532 0.75672 0.78346 0.0
O340 O 0.32256 0.76222 0.61562 0.0
O341 O 0.31202 0.79848 0.6099 0.0
O342 O 0.29644 0.79831 0.73873 0.0
O343 O 0.317 0.80957 0.7268 0.0
O344 O 0.28801 0.76574 0.64769 0.0
O345 O 0.27384 0.7681 0.72084 0.0
O346 O 0.28883 0.78414 0.85508 0.0
O347 O 0.27531 0.75185 0.8416 0.0
O348 O 0.30126 0.7399 0.7181 0.0
O349 O 0.2911 0.71882 0.77553 0.0
O350 O 0.31377 0.76008 0.81048 0.0
O351 O 0.32595 0.75848 0.73193 0.0
H352 H 0.29951 0.75005 0.54839 0.0
H353 H 0.29279 0.74403 0.45646 0.0
H354 H 0.32472 0.79595 0.40876 0.0
H355 H 0.33122 0.80204 0.50043 0.0
H356 H 0.30239 0.75252 0.92423 0.0
H357 H 0.30571 0.74802 0.01884 0.0
H358 H 0.26294 0.76724 0.04417 0.0
H359 H 0.25983 0.77226 0.94964 0.0
Sm360 Sm 0.93101 0.49181 0.68354 0.0
Sm361 Sm 0.94983 0.50537 0.78119 0.0
C362 C 0.91957 0.48503 0.59016 0.0
C363 C 0.92327 0.48783 0.53431 0.0
C364 C 0.93709 0.48885 0.51802 0.0
C365 C 0.94038 0.49038 0.46463 0.0
C366 C 0.92991 0.49091 0.42638 0.0
C367 C 0.91608 0.4903 0.44318 0.0
C368 C 0.91281 0.48876 0.49652 0.0
C369 C 0.93372 0.45496 0.75929 0.0
C370 C 0.96473 0.49892 0.6678 0.0
C371 C 0.96246 0.49937 0.87267 0.0
C372 C 0.95879 0.49837 0.92895 0.0
C373 C 0.94734 0.48462 0.9469 0.0
C374 C 0.94418 0.48378 1.00048 0.0
C375 C 0.95235 0.4968 0.03723 0.0
C376 C 0.96375 0.51065 0.01894 0.0
C377 C 0.96693 0.51137 0.96545 0.0
C378 C 0.94358 0.54956 0.72883 0.0
C379 C 0.9159 0.51187 0.78672 0.0
O380 O 0.91811 0.50575 0.61745 0.0
O381 O 0.92598 0.46725 0.61597 0.0
O382 O 0.94333 0.46897 0.74238 0.0
O383 O 0.92231 0.45969 0.73462 0.0
O384 O 0.95243 0.49528 0.64745 0.0
O385 O 0.96691 0.50218 0.7186 0.0
O386 O 0.95842 0.48062 0.84315 0.0
O387 O 0.96125 0.52116 0.8495 0.0
O388 O 0.93967 0.5276 0.71623 0.0
O389 O 0.95109 0.54844 0.7709 0.0
O390 O 0.92748 0.50737 0.81271 0.0
O391 O 0.91505 0.51065 0.73519 0.0
H392 H 0.94535 0.48811 0.54647 0.0
H393 H 0.95114 0.49057 0.45332 0.0
H394 H 0.90773 0.49111 0.41509 0.0
H395 H 0.90209 0.48808 0.50826 0.0
H396 H 0.94081 0.47453 0.91958 0.0
H397 H 0.93523 0.47319 1.01304 0.0
H398 H 0.97036 0.52064 0.04607 0.0
H399 H 0.97582 0.52205 0.95256 0.0
Sm400 Sm 0.30831 0.49242 0.59533 0.0
Sm401 Sm 0.28978 0.50509 0.49513 0.0
C402 C 0.31935 0.48721 0.68967 0.0
C403 C 0.31548 0.49189 0.7447 0.0
C404 C 0.30344 0.50516 0.75766 0.0
C405 C 0.29975 0.50873 0.81028 0.0
C406 C 0.30805 0.49913 0.85091 0.0
C407 C 0.32012 0.4859 0.83742 0.0
C408 C 0.32377 0.48233 0.78491 0.0
C409 C 0.30508 0.45441 0.52236 0.0
C410 C 0.27467 0.49994 0.60856 0.0
C411 C 0.27752 0.49775 0.40342 0.0
C412 C 0.27997 0.5028 0.34734 0.0
C413 C 0.29328 0.50776 0.3284 0.0
C414 C 0.29566 0.51008 0.27447 0.0
C415 C 0.28477 0.50747 0.23835 0.0
C416 C 0.27138 0.50322 0.25782 0.0
C417 C 0.26902 0.5009 0.31173 0.0
C418 C 0.29676 0.54948 0.54571 0.0
C419 C 0.32385 0.5113 0.4912 0.0
O420 O 0.32137 0.50703 0.66009 0.0
O421 O 0.31258 0.46923 0.66573 0.0
O422 O 0.29566 0.46929 0.53761 0.0
O423 O 0.31647 0.45882 0.54747 0.0
O424 O 0.28694 0.4981 0.6301 0.0
O425 O 0.27261 0.501 0.55728 0.0
O426 O 0.28585 0.4815 0.42528 0.0
O427 O 0.27475 0.517 0.43375 0.0
O428 O 0.30009 0.52738 0.55875 0.0
O429 O 0.2898 0.54872 0.50218 0.0
O430 O 0.31222 0.5077 0.46488 0.0
O431 O 0.32469 0.50963 0.54275 0.0
H432 H 0.29689 0.5127 0.72716 0.0
H433 H 0.29046 0.5192 0.8191 0.0
H434 H 0.32664 0.47786 0.86745 0.0
H435 H 0.33304 0.47188 0.77568 0.0
H436 H 0.3019 0.50919 0.35522 0.0
H437 H 0.30612 0.51308 0.26104 0.0
H438 H 0.26271 0.50152 0.23134 0.0
H439 H 0.25867 0.49708 0.32557 0.0
Sm440 Sm 0.92633 0.77435 0.59911 0.0
Sm441 Sm 0.94558 0.76423 0.50054 0.0
C442 C 0.91516 0.77834 0.69375 0.0
C443 C 0.91907 0.77382 0.74886 0.0
C444 C 0.93147 0.76174 0.76192 0.0
C445 C 0.93526 0.75863 0.81457 0.0
C446 C 0.92667 0.76743 0.85522 0.0
C447 C 0.91422 0.77935 0.84167 0.0
C448 C 0.91049 0.78253 0.78911 0.0
C449 C 0.92933 0.81391 0.52907 0.0
C450 C 0.95999 0.77096 0.6151 0.0
C451 C 0.95712 0.77284 0.40784 0.0
C452 C 0.95511 0.76636 0.352 0.0
C453 C 0.94214 0.75893 0.33306 0.0
C454 C 0.93987 0.75624 0.27911 0.0
C455 C 0.95053 0.76092 0.24285 0.0
C456 C 0.96364 0.76744 0.26232 0.0
C457 C 0.96589 0.77018 0.31627 0.0
C458 C 0.93975 0.71848 0.54758 0.0
C459 C 0.91151 0.75528 0.49473 0.0
O460 O 0.91358 0.75853 0.6637 0.0
O461 O 0.92155 0.79684 0.67018 0.0
O462 O 0.93886 0.7992 0.54391 0.0
O463 O 0.91792 0.80846 0.5532 0.0
O464 O 0.94751 0.76953 0.63491 0.0
O465 O 0.96236 0.77148 0.56384 0.0
O466 O 0.94751 0.78691 0.42857 0.0
O467 O 0.96148 0.75522 0.43969 0.0
O468 O 0.93554 0.73993 0.56217 0.0
O469 O 0.94722 0.72091 0.5056 0.0
O470 O 0.92321 0.75981 0.46945 0.0
O471 O 0.9104 0.75656 0.54613 0.0
H472 H 0.93825 0.75481 0.73146 0.0
H473 H 0.94485 0.74916 0.82342 0.0
H474 H 0.90745 0.78673 0.87169 0.0
H475 H 0.90093 0.79207 0.77987 0.0
H476 H 0.93363 0.75606 0.35989 0.0
H477 H 0.9296 0.75146 0.26582 0.0
H478 H 0.97217 0.77076 0.23581 0.0
H479 H 0.97596 0.77601 0.33 0.0
Sm480 Sm 0.69674 0.25741 0.25076 0.0
Sm481 Sm 0.67826 0.24568 0.35067 0.0
C482 C 0.70867 0.24955 0.15856 0.0
C483 C 0.70694 0.25584 0.10265 0.0
C484 C 0.69417 0.26391 0.08296 0.0
C485 C 0.69213 0.26628 0.02882 0.0
C486 C 0.7028 0.26053 0.99332 0.0
C487 C 0.71573 0.25346 1.01354 0.0
C488 C 0.71776 0.25112 0.06762 0.0
C489 C 0.6898 0.30262 0.2978 0.0
C490 C 0.66259 0.26334 0.24645 0.0
C491 C 0.66715 0.24138 0.4452 0.0
C492 C 0.67119 0.24519 0.50038 0.0
C493 C 0.68236 0.26067 0.51415 0.0
C494 C 0.68624 0.26332 0.56682 0.0
C495 C 0.67908 0.25039 0.60658 0.0
C496 C 0.66786 0.23502 0.59237 0.0
C497 C 0.66397 0.23247 0.53986 0.0
C498 C 0.68167 0.20659 0.27986 0.0
C499 C 0.71193 0.25167 0.36437 0.0
O500 O 0.69915 0.23502 0.17851 0.0
O501 O 0.71261 0.26744 0.19064 0.0
O502 O 0.6863 0.28083 0.31288 0.0
O503 O 0.69707 0.30083 0.25516 0.0
O504 O 0.67429 0.25998 0.22044 0.0
O505 O 0.6617 0.26182 0.29792 0.0
O506 O 0.66586 0.26154 0.41604 0.0
O507 O 0.67317 0.22274 0.42076 0.0
O508 O 0.69099 0.2219 0.29428 0.0
O509 O 0.67029 0.21115 0.30501 0.0
O510 O 0.69963 0.25031 0.38583 0.0
O511 O 0.71394 0.25279 0.313 0.0
H512 H 0.68564 0.2675 0.10934 0.0
H513 H 0.68201 0.27156 0.01476 0.0
H514 H 0.72424 0.2493 0.98749 0.0
H515 H 0.72767 0.2448 0.082 0.0
H516 H 0.68815 0.27051 0.48419 0.0
H517 H 0.69501 0.27509 0.5763 0.0
H518 H 0.662 0.22505 0.62193 0.0
H519 H 0.65533 0.22042 0.53004 0.0
Sm520 Sm 0.04185 0.51914 0.24829 0.0
Sm521 Sm 0.06164 0.52913 0.34652 0.0
C522 C 0.02967 0.52814 0.15704 0.0
C523 C 0.0328 0.52614 0.10047 0.0
C524 C 0.02835 0.54527 0.06671 0.0
C525 C 0.03163 0.54458 1.01334 0.0
C526 C 0.03945 0.52468 0.99238 0.0
C527 C 0.04382 0.50537 0.0263 0.0
C528 C 0.04059 0.50616 0.07989 0.0
C529 C 0.04722 0.47374 0.29825 0.0
C530 C 0.07576 0.51015 0.24033 0.0
C531 C 0.07352 0.5317 0.44004 0.0
C532 C 0.0695 0.52927 0.4958 0.0
C533 C 0.0788 0.51906 0.53205 0.0
C534 C 0.07532 0.51744 0.58527 0.0
C535 C 0.06243 0.52602 0.60343 0.0
C536 C 0.05306 0.53587 0.56666 0.0
C537 C 0.05657 0.53749 0.51354 0.0
C538 C 0.05929 0.56761 0.27391 0.0
C539 C 0.02762 0.52866 0.36251 0.0
O540 O 0.03672 0.54502 0.18292 0.0
O541 O 0.02789 0.50728 0.18351 0.0
O542 O 0.05166 0.49529 0.31095 0.0
O543 O 0.03965 0.47583 0.25642 0.0
O544 O 0.06408 0.51543 0.21553 0.0
O545 O 0.07685 0.51031 0.29185 0.0
O546 O 0.07331 0.51112 0.41174 0.0
O547 O 0.06879 0.55135 0.41486 0.0
O548 O 0.04955 0.55382 0.2905 0.0
O549 O 0.07072 0.56186 0.2977 0.0
O550 O 0.04015 0.52906 0.38249 0.0
O551 O 0.02516 0.52626 0.31159 0.0
H552 H 0.02238 0.56092 0.08176 0.0
H553 H 0.02794 0.55961 0.98838 0.0
H554 H 0.04999 0.48992 1.01165 0.0
H555 H 0.04431 0.49132 0.10527 0.0
H556 H 0.08885 0.51261 0.5193 0.0
H557 H 0.08287 0.50999 0.61235 0.0
H558 H 0.04296 0.5423 0.57885 0.0
H559 H 0.04923 0.54538 0.48635 0.0
Sm560 Sm 0.69502 0.51844 0.51868 0.0
Sm561 Sm 0.67595 0.52923 0.42055 0.0
C562 C 0.70678 0.52724 0.61087 0.0
C563 C 0.70397 0.52217 0.66688 0.0
C564 C 0.69042 0.51913 0.68527 0.0
C565 C 0.68778 0.51679 0.73903 0.0
C566 C 0.69862 0.51736 0.77575 0.0
C567 C 0.71222 0.5197 0.75684 0.0
C568 C 0.71485 0.52213 0.70305 0.0
C569 C 0.68789 0.47271 0.47426 0.0
C570 C 0.66081 0.51168 0.52501 0.0
C571 C 0.66511 0.53625 0.32618 0.0
C572 C 0.6682 0.53087 0.27061 0.0
C573 C 0.67845 0.51359 0.25615 0.0
C574 C 0.68188 0.51008 0.2032 0.0
C575 C 0.67499 0.52363 0.16365 0.0
C576 C 0.66457 0.54062 0.17853 0.0
C577 C 0.66126 0.54425 0.2314 0.0
C578 C 0.68008 0.56867 0.4901 0.0
C579 C 0.70916 0.51774 0.40418 0.0
O580 O 0.69829 0.54281 0.58783 0.0
O581 O 0.71021 0.50816 0.58102 0.0
O582 O 0.68417 0.49428 0.45854 0.0
O583 O 0.69549 0.47503 0.51594 0.0
O584 O 0.67261 0.5158 0.54995 0.0
O585 O 0.65962 0.51271 0.47357 0.0
O586 O 0.66188 0.51715 0.35635 0.0
O587 O 0.67323 0.55252 0.34922 0.0
O588 O 0.68923 0.55349 0.47409 0.0
O589 O 0.66836 0.56352 0.46813 0.0
O590 O 0.6965 0.51729 0.3856 0.0
O591 O 0.71183 0.52185 0.45446 0.0
H592 H 0.68184 0.5192 0.65816 0.0
H593 H 0.67717 0.51534 0.75183 0.0
H594 H 0.72087 0.51979 0.78363 0.0
H595 H 0.72538 0.52446 0.68977 0.0
H596 H 0.68384 0.50296 0.28585 0.0
H597 H 0.68985 0.49666 0.19322 0.0
H598 H 0.65917 0.55162 0.14934 0.0
H599 H 0.65338 0.55781 0.24173 0.0
Sm600 Sm 0.04217 0.25933 0.53248 0.0
Sm601 Sm 0.06086 0.24907 0.43329 0.0
C602 C 0.03033 0.24969 0.62405 0.0
C603 C 0.03249 0.25277 0.68117 0.0
C604 C 0.03329 0.23112 0.71244 0.0
C605 C 0.03536 0.23299 0.76644 0.0
C606 C 0.03659 0.25663 0.79088 0.0
C607 C 0.03579 0.27839 0.75948 0.0
C608 C 0.03375 0.27649 0.70515 0.0
C609 C 0.0477 0.30509 0.48431 0.0
C610 C 0.07619 0.2683 0.53594 0.0
C611 C 0.07153 0.24212 0.3388 0.0
C612 C 0.06798 0.24687 0.28355 0.0
C613 C 0.05747 0.26373 0.2695 0.0
C614 C 0.05371 0.2666 0.21676 0.0
C615 C 0.06031 0.25247 0.17734 0.0
C616 C 0.07096 0.23593 0.1918 0.0
C617 C 0.07474 0.23318 0.24432 0.0
C618 C 0.05813 0.21006 0.50505 0.0
C619 C 0.0275 0.25604 0.41922 0.0
O620 O 0.03875 0.23423 0.60036 0.0
O621 O 0.02725 0.26946 0.59567 0.0
O622 O 0.05186 0.2836 0.4699 0.0
O623 O 0.0404 0.30277 0.52681 0.0
O624 O 0.06471 0.2632 0.56232 0.0
O625 O 0.07689 0.26767 0.48437 0.0
O626 O 0.07443 0.2617 0.36816 0.0
O627 O 0.06394 0.22533 0.36282 0.0
O628 O 0.04854 0.22427 0.48894 0.0
O629 O 0.06961 0.21605 0.48215 0.0
O630 O 0.03986 0.25879 0.39896 0.0
O631 O 0.02539 0.25212 0.46984 0.0
H632 H 0.03239 0.2126 0.69496 0.0
H633 H 0.0362 0.2158 0.78892 0.0
H634 H 0.03658 0.29691 0.77694 0.0
H635 H 0.03317 0.29354 0.68205 0.0
H636 H 0.05204 0.27433 0.29931 0.0
H637 H 0.04539 0.27932 0.20699 0.0
H638 H 0.07638 0.22504 0.16244 0.0
H639 H 0.08285 0.22005 0.2544 0.0
Sm640 Sm 0.8129 0.27881 0.67671 0.0
Sm641 Sm 0.79313 0.26928 0.77493 0.0
C642 C 0.82417 0.28223 0.58217 0.0
C643 C 0.8202 0.27793 0.52698 0.0
C644 C 0.80782 0.26575 0.51378 0.0
C645 C 0.80399 0.26283 0.46109 0.0
C646 C 0.81252 0.27191 0.42051 0.0
C647 C 0.82495 0.28394 0.43421 0.0
C648 C 0.82871 0.28695 0.4868 0.0
C649 C 0.81043 0.31811 0.74764 0.0
C650 C 0.77909 0.27714 0.66015 0.0
C651 C 0.78163 0.278 0.86771 0.0
C652 C 0.78376 0.27169 0.92358 0.0
C653 C 0.7968 0.26465 0.94233 0.0
C654 C 0.79914 0.26194 0.99624 0.0
C655 C 0.78847 0.26623 0.0327 0.0
C656 C 0.77529 0.27242 1.01342 0.0
C657 C 0.77298 0.27516 0.9595 0.0
C658 C 0.79869 0.22357 0.72679 0.0
C659 C 0.82709 0.25886 0.78157 0.0
O660 O 0.82539 0.26233 0.61213 0.0
O661 O 0.81811 0.30108 0.60583 0.0
O662 O 0.80068 0.30395 0.7323 0.0
O663 O 0.82177 0.31233 0.72334 0.0
O664 O 0.79162 0.27518 0.64092 0.0
O665 O 0.77656 0.27751 0.71133 0.0
O666 O 0.79111 0.29225 0.84662 0.0
O667 O 0.77733 0.26019 0.83608 0.0
O668 O 0.80307 0.24503 0.71327 0.0
O669 O 0.79106 0.22593 0.76841 0.0
O670 O 0.81539 0.26389 0.8065 0.0
O671 O 0.82836 0.26013 0.73019 0.0
H672 H 0.8011 0.25858 0.54418 0.0
H673 H 0.79442 0.25327 0.45215 0.0
H674 H 0.83167 0.29154 0.40427 0.0
H675 H 0.83826 0.29656 0.49613 0.0
H676 H 0.80531 0.26204 0.9154 0.0
H677 H 0.80945 0.25743 1.00938 0.0
H678 H 0.76676 0.27544 0.04004 0.0
H679 H 0.76285 0.28067 0.94594 0.0
Sm680 Sm 0.42931 0.99761 0.69111 0.0
Sm681 Sm 0.44711 1.0085 0.78389 0.0
C682 C 0.41822 0.99019 0.5971 0.0
C683 C 0.42168 0.99295 0.54086 0.0
C684 C 0.42869 0.01414 0.52136 0.0
C685 C 0.43187 0.01595 0.4678 0.0
C686 C 0.42823 0.99652 0.4328 0.0
C687 C 0.42125 0.97537 0.45272 0.0
C688 C 0.41801 0.97366 0.50602 0.0
C689 C 0.43229 0.95772 0.7605 0.0
C690 C 0.46226 1.00407 0.67301 0.0
C691 C 0.45901 1.00843 0.87798 0.0
C692 C 0.45547 1.00668 0.93414 0.0
C693 C 0.44181 1.00338 0.95101 0.0
C694 C 0.43873 1.00227 1.00471 0.0
C695 C 0.44926 1.00433 0.04255 0.0
C696 C 0.46292 1.00758 0.02513 0.0
C697 C 0.46597 1.00876 0.97158 0.0
C698 C 0.44334 0.05066 0.72294 0.0
C699 C 0.41291 0.01257 0.79285 0.0
O700 O 0.41626 1.01066 0.62471 0.0
O701 O 0.42496 0.97287 0.62277 0.0
O702 O 0.44194 0.97186 0.74473 0.0
O703 O 0.42075 0.96421 0.7389 0.0
O704 O 0.44989 1.0078 0.65407 0.0
O705 O 0.46426 0.99964 0.72339 0.0
O706 O 0.45732 0.98818 0.84958 0.0
O707 O 0.45518 0.02884 0.85363 0.0
O708 O 0.43399 0.03458 0.73293 0.0
O709 O 0.45478 0.045 0.74658 0.0
O710 O 0.42476 1.00874 0.81738 0.0
O711 O 0.41206 0.01256 0.74146 0.0
H712 H 0.43176 0.02921 0.54747 0.0
H713 H 0.43738 0.03238 0.45394 0.0
H714 H 0.41813 0.96021 0.42695 0.0
H715 H 0.4126 0.95714 0.52012 0.0
H716 H 0.43355 1.00169 0.92271 0.0
H717 H 0.42812 0.99948 0.01657 0.0
H718 H 0.47128 1.00963 0.05294 0.0
H719 H 0.47657 1.01145 0.95937 0.0
Sm720 Sm 0.81149 0.99864 0.59596 0.0
Sm721 Sm 0.79192 1.0087 0.49743 0.0
C722 C 0.82315 0.99499 0.68973 0.0
C723 C 0.81913 0.99745 0.74534 0.0
C724 C 0.80618 1.00693 0.75998 0.0
C725 C 0.80242 1.00828 0.81302 0.0
C726 C 0.81155 1.00012 0.85246 0.0
C727 C 0.82455 0.99084 0.83733 0.0
C728 C 0.82828 0.98951 0.78441 0.0
C729 C 0.80871 0.95989 0.52432 0.0
C730 C 0.77766 1.0016 0.61217 0.0
C731 C 0.77968 0.9997 0.40614 0.0
C732 C 0.78249 1.00357 0.34984 0.0
C733 C 0.79562 1.01085 0.33239 0.0
C734 C 0.79851 0.01224 0.27866 0.0
C735 C 0.78833 1.00638 0.24118 0.0
C736 C 0.77507 0.99972 0.25908 0.0
C737 C 0.77221 0.9983 0.31282 0.0
C738 C 0.79799 0.05426 0.54538 0.0
C739 C 0.82579 0.01786 0.49029 0.0
O740 O 0.82333 0.01564 0.6617 0.0
O741 O 0.81795 0.97577 0.66445 0.0
O742 O 0.79907 0.97398 0.54055 0.0
O743 O 0.82024 0.96563 0.5474 0.0
O744 O 0.79011 1.00061 0.63239 0.0
O745 O 0.77523 1.00325 0.56114 0.0
O746 O 0.78775 0.98365 0.42988 0.0
O747 O 0.77708 0.01964 0.43462 0.0
O748 O 0.80209 0.03266 0.55912 0.0
O749 O 0.79051 0.05215 0.50331 0.0
O750 O 0.81421 0.01204 0.46541 0.0
O751 O 0.82686 0.01766 0.54186 0.0
H752 H 0.79893 0.0131 0.73044 0.0
H753 H 0.79228 0.01527 0.82304 0.0
H754 H 0.83194 0.98477 0.86647 0.0
H755 H 0.83832 0.98215 0.77396 0.0
H756 H 0.8037 0.01501 0.36032 0.0
H757 H 0.80876 0.01781 0.2665 0.0
H758 H 0.76701 0.9948 0.23159 0.0
H759 H 0.76203 0.99249 0.32548 0.0
Sm760 Sm 0.42849 0.28085 0.59924 0.0
Sm761 Sm 0.44644 0.26465 0.50072 0.0
C762 C 0.41763 0.28868 0.69326 0.0
C763 C 0.4215 0.28613 0.74903 0.0
C764 C 0.43529 0.28793 0.76534 0.0
C765 C 0.43866 0.28672 0.81868 0.0
C766 C 0.42831 0.28364 0.85692 0.0
C767 C 0.41453 0.28135 0.84008 0.0
C768 C 0.41118 0.28262 0.78678 0.0
C769 C 0.43079 0.31654 0.52078 0.0
C770 C 0.4621 0.27206 0.6129 0.0
C771 C 0.45965 0.26613 0.40945 0.0
C772 C 0.45701 0.27184 0.35382 0.0
C773 C 0.44487 0.28392 0.3376 0.0
C774 C 0.44199 0.28674 0.28402 0.0
C775 C 0.45114 0.27734 0.2458 0.0
C776 C 0.46344 0.26586 0.26258 0.0
C777 C 0.46632 0.26314 0.31596 0.0
C778 C 0.44042 0.22203 0.55849 0.0
C779 C 0.41252 0.26088 0.49788 0.0
O780 O 0.41572 0.26786 0.66668 0.0
O781 O 0.42412 0.30603 0.66642 0.0
O782 O 0.44042 0.30221 0.53628 0.0
O783 O 0.41981 0.31308 0.549 0.0
O784 O 0.45009 0.27794 0.6335 0.0
O785 O 0.46381 0.26676 0.56255 0.0
O786 O 0.45966 0.28484 0.44284 0.0
O787 O 0.45348 0.24612 0.42764 0.0
O788 O 0.43677 0.2443 0.56921 0.0
O789 O 0.44755 0.2219 0.51553 0.0
O790 O 0.42396 0.26513 0.47084 0.0
O791 O 0.41203 0.26208 0.54949 0.0
H792 H 0.44344 0.29065 0.73694 0.0
H793 H 0.44936 0.28879 0.82996 0.0
H794 H 0.4063 0.27846 0.86809 0.0
H795 H 0.40048 0.28107 0.77506 0.0
H796 H 0.43749 0.29058 0.36628 0.0
H797 H 0.43239 0.29552 0.27256 0.0
H798 H 0.47083 0.25879 0.23439 0.0
H799 H 0.47572 0.2537 0.3277 0.0
Sm800 Sm 0.19809 0.76461 0.24993 0.0
Sm801 Sm 0.18031 0.74846 0.35159 0.0
C802 C 0.2126 0.76572 0.16168 0.0
C803 C 0.20987 0.76444 0.10425 0.0
C804 C 0.20506 0.74226 0.08022 0.0
C805 C 0.20227 0.74159 0.02635 0.0
C806 C 0.20437 0.76298 0.99484 0.0
C807 C 0.20947 0.78498 0.01869 0.0
C808 C 0.21217 0.78569 0.07266 0.0
C809 C 0.18862 0.80358 0.31087 0.0
C810 C 0.16439 0.76443 0.24475 0.0
C811 C 0.16831 0.74854 0.44498 0.0
C812 C 0.17207 0.75311 0.50029 0.0
C813 C 0.18465 0.76442 0.51408 0.0
C814 C 0.18838 0.767 0.56701 0.0
C815 C 0.17963 0.7582 0.60721 0.0
C816 C 0.16701 0.74699 0.59279 0.0
C817 C 0.1633 0.74451 0.54005 0.0
C818 C 0.18245 0.70875 0.27971 0.0
C819 C 0.21404 0.74915 0.36052 0.0
O820 O 0.21071 0.74522 0.18935 0.0
O821 O 0.20846 0.78603 0.18615 0.0
O822 O 0.19323 0.78284 0.32845 0.0
O823 O 0.1895 0.80438 0.26003 0.0
O824 O 0.17601 0.76127 0.21815 0.0
O825 O 0.16375 0.76382 0.29652 0.0
O826 O 0.16806 0.76797 0.41328 0.0
O827 O 0.17375 0.72849 0.42358 0.0
O828 O 0.18747 0.73048 0.27757 0.0
O829 O 0.17567 0.70704 0.32345 0.0
O830 O 0.20206 0.7439 0.38207 0.0
O831 O 0.21539 0.75785 0.31193 0.0
H832 H 0.20345 0.72534 0.10287 0.0
H833 H 0.19858 0.72418 1.00927 0.0
H834 H 0.21113 0.80187 0.99583 0.0
H835 H 0.21599 0.803 0.08982 0.0
H836 H 0.19164 0.77102 0.48395 0.0
H837 H 0.1981 0.77595 0.57636 0.0
H838 H 0.1601 0.73951 0.62223 0.0
H839 H 0.15364 0.73541 0.53025 0.0
Sm840 Sm 0.54506 0.01591 0.26447 0.0
Sm841 Sm 0.56317 0.02897 0.35562 0.0
C842 C 0.53339 0.01338 0.16997 0.0
C843 C 0.53689 0.01656 0.11387 0.0
C844 C 0.55042 0.02175 0.09744 0.0
C845 C 0.55355 0.02368 0.04382 0.0
C846 C 0.54322 0.02052 1.00545 0.0
C847 C 0.52967 0.01555 0.02245 0.0
C848 C 0.52657 0.01359 0.07594 0.0
C849 C 0.54891 0.97549 0.32996 0.0
C850 C 0.5793 0.01226 0.25463 0.0
C851 C 0.57431 0.03735 0.44943 0.0
C852 C 0.57101 0.03432 0.5058 0.0
C853 C 0.56152 0.01623 0.52353 0.0
C854 C 0.55843 0.01412 0.57716 0.0
C855 C 0.5648 0.03001 0.6143 0.0
C856 C 0.57427 0.04812 0.59604 0.0
C857 C 0.57731 0.05023 0.54255 0.0
C858 C 0.55992 0.06759 0.2833 0.0
C859 C 0.53007 0.02081 0.3761 0.0
O860 O 0.53323 0.03358 0.19923 0.0
O861 O 0.53886 0.9941 0.19386 0.0
O862 O 0.55832 0.99102 0.31744 0.0
O863 O 0.5374 0.98063 0.30632 0.0
O864 O 0.56734 0.01547 0.23052 0.0
O865 O 0.58039 0.01349 0.30587 0.0
O866 O 0.57654 0.01695 0.42195 0.0
O867 O 0.56715 0.05411 0.4238 0.0
O868 O 0.55035 0.05342 0.29985 0.0
O869 O 0.57141 0.06221 0.30666 0.0
O870 O 0.5427 0.02002 0.39425 0.0
O871 O 0.52763 0.02312 0.32529 0.0
H872 H 0.55856 0.02417 0.12601 0.0
H873 H 0.56406 0.02784 0.03248 0.0
H874 H 0.52146 0.01263 0.99438 0.0
H875 H 0.51607 1.00944 0.0877 0.0
H876 H 0.55654 1.00371 0.49593 0.0
H877 H 0.55119 0.9998 0.58955 0.0
H878 H 0.57921 0.061 0.62304 0.0
H879 H 0.58458 0.06445 0.52979 0.0
Sm880 Sm 0.19863 0.01979 0.53414 0.0
Sm881 Sm 0.17911 0.02834 0.43413 0.0
C882 C 0.21046 0.02884 0.62587 0.0
C883 C 0.20749 0.02366 0.68156 0.0
C884 C 0.19382 0.0223 0.69956 0.0
C885 C 0.19102 0.02014 0.75308 0.0
C886 C 0.20181 0.01909 0.78979 0.0
C887 C 0.2155 0.01942 0.77147 0.0
C888 C 0.2183 0.0218 0.71781 0.0
C889 C 0.19257 0.97376 0.48849 0.0
C890 C 0.16459 1.01131 0.54106 0.0
C891 C 0.16752 0.02872 0.3402 0.0
C892 C 0.17177 0.02548 0.28501 0.0
C893 C 0.1843 0.03531 0.26648 0.0
C894 C 0.18793 0.03291 0.21362 0.0
C895 C 0.1791 0.02059 0.17809 0.0
C896 C 0.16669 1.01029 0.19722 0.0
C897 C 0.16307 0.01275 0.25007 0.0
C898 C 0.18188 0.06848 0.50237 0.0
C899 C 0.21305 0.02786 0.41959 0.0
O900 O 0.20196 0.04433 0.60274 0.0
O901 O 0.21397 1.00979 0.59611 0.0
O902 O 0.18859 0.99523 0.47372 0.0
O903 O 0.20001 0.97621 0.5305 0.0
O904 O 0.17626 0.01649 0.56604 0.0
O905 O 0.16352 1.01128 0.48956 0.0
O906 O 0.16788 1.00865 0.36993 0.0
O907 O 0.17186 0.04905 0.36414 0.0
O908 O 0.19146 0.05372 0.48828 0.0
O909 O 0.1705 0.06288 0.47806 0.0
O910 O 0.2006 0.02735 0.399 0.0
O911 O 0.21539 0.02658 0.47078 0.0
H912 H 0.18528 0.02355 0.67235 0.0
H913 H 0.18037 0.01952 0.76582 0.0
H914 H 0.22404 0.01875 0.79875 0.0
H915 H 0.22892 0.02285 0.70476 0.0
H916 H 0.19119 0.0452 0.29268 0.0
H917 H 0.19748 0.04132 0.20042 0.0
H918 H 0.15975 1.00027 0.17136 0.0
H919 H 0.1534 1.00489 0.26358 0.0
Sm920 Sm 0.54491 0.75419 0.51869 0.0
Sm921 Sm 0.56288 0.74262 0.42678 0.0
C922 C 0.53311 0.75644 0.61285 0.0
C923 C 0.53667 0.75441 0.66906 0.0
C924 C 0.54789 0.73998 0.68648 0.0
C925 C 0.55095 0.73842 0.74016 0.0
C926 C 0.54287 0.75128 0.77753 0.0
C927 C 0.53171 0.76583 0.75952 0.0
C928 C 0.52866 0.76734 0.70601 0.0
C929 C 0.54844 0.79537 0.45468 0.0
C930 C 0.57907 0.75768 0.52878 0.0
C931 C 0.57394 0.73575 0.33239 0.0
C932 C 0.57038 0.73962 0.27655 0.0
C933 C 0.55661 0.74114 0.25983 0.0
C934 C 0.55346 0.74333 0.20638 0.0
C935 C 0.56402 0.74407 0.16843 0.0
C936 C 0.5778 0.74295 0.18563 0.0
C937 C 0.58093 0.74074 0.23904 0.0
C938 C 0.55983 0.703 0.49695 0.0
C939 C 0.52983 0.74798 0.40823 0.0
O940 O 0.53372 0.73593 0.58462 0.0
O941 O 0.53778 0.77614 0.58799 0.0
O942 O 0.55797 0.78004 0.46676 0.0
O943 O 0.53691 0.78935 0.47722 0.0
O944 O 0.56715 0.75391 0.55287 0.0
O945 O 0.58006 0.75758 0.47744 0.0
O946 O 0.57621 0.75581 0.36087 0.0
O947 O 0.5669 0.71856 0.35739 0.0
O948 O 0.55023 0.71725 0.48127 0.0
O949 O 0.57129 0.70882 0.47379 0.0
O950 O 0.54223 0.75171 0.38947 0.0
O951 O 0.52777 0.74422 0.45883 0.0
H952 H 0.55425 0.72987 0.65864 0.0
H953 H 0.55954 0.72684 0.7524 0.0
H954 H 0.5254 0.77638 0.78674 0.0
H955 H 0.52001 0.77871 0.69343 0.0
H956 H 0.54827 0.74035 0.28799 0.0
H957 H 0.54274 0.7445 0.19482 0.0
H958 H 0.5862 0.74315 0.15772 0.0
H959 H 0.59162 0.73947 0.25099 0.0
Sm960 Sm 0.8106 0.78024 0.17878 0.0
Sm961 Sm 0.79128 0.77023 0.27728 0.0
C962 C 0.82155 0.7858 0.08421 0.0
C963 C 0.81774 0.78115 0.02904 0.0
C964 C 0.80536 0.769 0.01572 0.0
C965 C 0.80166 0.76582 0.96299 0.0
C966 C 0.81028 0.77469 0.92253 0.0
C967 C 0.82271 0.78672 0.93636 0.0
C968 C 0.82637 0.78991 0.98899 0.0
C969 C 0.80811 0.81897 0.25082 0.0
C970 C 0.77688 0.77529 0.16374 0.0
C971 C 0.77961 0.77931 0.36956 0.0
C972 C 0.78196 0.77399 0.42566 0.0
C973 C 0.79514 0.76791 0.44444 0.0
C974 C 0.7975 0.76544 0.49836 0.0
C975 C 0.78674 0.76903 0.53469 0.0
C976 C 0.77346 0.77441 0.51539 0.0
C977 C 0.77111 0.77688 0.46148 0.0
C978 C 0.79638 0.72473 0.22804 0.0
C979 C 0.82515 0.7592 0.28206 0.0
O980 O 0.82375 0.76603 0.11373 0.0
O981 O 0.81461 0.80349 0.10826 0.0
O982 O 0.79837 0.8051 0.23457 0.0
O983 O 0.81956 0.81295 0.22771 0.0
O984 O 0.78932 0.77372 0.14353 0.0
O985 O 0.77453 0.7772 0.21471 0.0
O986 O 0.78857 0.79429 0.34729 0.0
O987 O 0.77592 0.76053 0.33938 0.0
O988 O 0.80097 0.74608 0.21465 0.0
O989 O 0.78856 0.72713 0.26913 0.0
O990 O 0.81358 0.76424 0.30786 0.0
O991 O 0.82622 0.76088 0.23065 0.0
H992 H 0.79853 0.76209 0.04602 0.0
H993 H 0.79209 0.75625 0.95396 0.0
H994 H 0.8295 0.79419 0.90652 0.0
H995 H 0.83591 0.79952 0.99844 0.0
H996 H 0.80369 0.76571 0.41751 0.0
H997 H 0.80789 0.76156 0.51161 0.0
H998 H 0.76487 0.77689 0.54199 0.0
H999 H 0.76086 0.78159 0.44782 0.0
Sm1000 Sm 0.42665 0.49558 0.17629 0.0
Sm1001 Sm 0.44528 0.50616 0.27731 0.0
C1002 C 0.41561 0.49273 0.08145 0.0
C1003 C 0.41973 0.49745 0.02673 0.0
C1004 C 0.43251 0.5084 1.01451 0.0
C1005 C 0.43643 0.51185 0.96212 0.0
C1006 C 0.42762 0.50447 0.92099 0.0
C1007 C 0.4148 0.49362 0.93373 0.0
C1008 C 0.41092 0.49015 0.98602 0.0
C1009 C 0.42989 0.45587 0.2451 0.0
C1010 C 0.46042 0.50079 0.16375 0.0
C1011 C 0.45722 0.49771 0.36915 0.0
C1012 C 0.45543 0.50413 0.42498 0.0
C1013 C 0.44266 0.5124 0.44431 0.0
C1014 C 0.44062 0.51544 0.49828 0.0
C1015 C 0.4513 0.51024 0.53404 0.0
C1016 C 0.46422 0.50282 0.51415 0.0
C1017 C 0.46624 0.49976 0.46019 0.0
C1018 C 0.43872 0.55158 0.23037 0.0
C1019 C 0.41117 0.51274 0.28178 0.0
O1020 O 0.4143 0.51244 0.11194 0.0
O1021 O 0.42165 0.47376 0.10462 0.0
O1022 O 0.43928 0.47127 0.23187 0.0
O1023 O 0.41857 0.46063 0.21979 0.0
O1024 O 0.44813 0.50005 0.14209 0.0
O1025 O 0.46244 0.50133 0.21513 0.0
O1026 O 0.44763 0.48335 0.34898 0.0
O1027 O 0.46126 0.51557 0.33728 0.0
O1028 O 0.43512 0.52984 0.2156 0.0
O1029 O 0.44591 0.54972 0.2732 0.0
O1030 O 0.42285 0.50893 0.30765 0.0
O1031 O 0.41027 0.51161 0.23022 0.0
H1032 H 0.43947 0.51419 0.0454 0.0
H1033 H 0.44631 0.52047 0.95388 0.0
H1034 H 0.40785 0.48731 0.90325 0.0
H1035 H 0.40106 0.4815 0.99467 0.0
H1036 H 0.43414 0.51574 0.41779 0.0
H1037 H 0.4305 0.52093 0.51205 0.0
H1038 H 0.47275 0.49906 0.54034 0.0
H1039 H 0.47616 0.49332 0.44606 0.0
Sm1040 Sm 0.81346 0.49556 0.10005 0.0
Sm1041 Sm 0.79503 0.50849 1.00941 0.0
C1042 C 0.82498 0.48897 0.19383 0.0
C1043 C 0.82137 0.49128 0.25005 0.0
C1044 C 0.80932 0.50361 0.26659 0.0
C1045 C 0.80605 0.50522 0.32013 0.0
C1046 C 0.81482 0.49472 0.35835 0.0
C1047 C 0.82688 0.48243 0.34133 0.0
C1048 C 0.83008 0.4807 0.28789 0.0
C1049 C 0.81097 0.45733 0.026 0.0
C1050 C 0.78005 0.49681 0.11901 0.0
C1051 C 0.78363 0.51226 0.91479 0.0
C1052 C 0.78732 0.50979 0.85845 0.0
C1053 C 0.79431 0.48862 0.8387 0.0
C1054 C 0.79727 0.48658 0.78496 0.0
C1055 C 0.79336 0.50568 0.7496 0.0
C1056 C 0.78651 0.52694 0.76986 0.0
C1057 C 0.78351 0.5289 0.82343 0.0
C1058 C 0.79797 0.54783 0.07895 0.0
C1059 C 0.82915 0.51342 0.99906 0.0
O1060 O 0.82598 0.50982 0.1669 0.0
O1061 O 0.81889 0.47099 0.16761 0.0
O1062 O 0.80118 0.47096 0.04258 0.0
O1063 O 0.82229 0.46287 0.05058 0.0
O1064 O 0.79248 0.4994 0.1384 0.0
O1065 O 0.77785 0.49698 0.06783 0.0
O1066 O 0.78322 0.49179 0.94319 0.0
O1067 O 0.78883 0.53141 0.94016 0.0
O1068 O 0.8077 0.53349 0.0642 0.0
O1069 O 0.78649 0.54195 0.0558 0.0
O1070 O 0.81724 0.50952 0.97504 0.0
O1071 O 0.83026 0.51239 0.05026 0.0
H1072 H 0.80247 0.51206 0.23814 0.0
H1073 H 0.79675 0.51504 0.33161 0.0
H1074 H 0.83379 0.47379 0.36932 0.0
H1075 H 0.8394 0.471 0.27606 0.0
H1076 H 0.7974 0.47354 0.86465 0.0
H1077 H 0.80243 0.4698 0.77107 0.0
H1078 H 0.78354 0.54228 0.7444 0.0
H1079 H 0.77815 0.54545 0.83757 0.0
Sm1080 Sm 0.42718 0.77566 0.09811 0.0
Sm1081 Sm 0.44671 0.76483 1.00034 0.0
C1082 C 0.41625 0.78245 0.19236 0.0
C1083 C 0.41977 0.77834 0.24813 0.0
C1084 C 0.42776 0.75777 0.26463 0.0
C1085 C 0.4315 0.75524 0.31754 0.0
C1086 C 0.42738 0.77329 0.35488 0.0
C1087 C 0.41923 0.79363 0.33802 0.0
C1088 C 0.41549 0.7961 0.28535 0.0
C1089 C 0.43112 0.81469 0.02798 0.0
C1090 C 0.46049 0.76486 0.11594 0.0
C1091 C 0.45888 0.77426 0.90917 0.0
C1092 C 0.45632 0.77163 0.85211 0.0
C1093 C 0.45774 0.79289 0.81999 0.0
C1094 C 0.45522 0.7914 0.76612 0.0
C1095 C 0.45125 0.76852 0.74266 0.0
C1096 C 0.4498 0.74717 0.77501 0.0
C1097 C 0.45229 0.74871 0.82915 0.0
C1098 C 0.43955 0.71943 0.04588 0.0
C1099 C 0.41251 0.75753 0.99299 0.0
O1100 O 0.41367 0.76263 0.16322 0.0
O1101 O 0.42351 0.7996 0.16801 0.0
O1102 O 0.4404 0.79986 0.04433 0.0
O1103 O 0.41938 0.80938 0.04976 0.0
O1104 O 0.44779 0.7652 0.13404 0.0
O1105 O 0.46336 0.76789 0.06543 0.0
O1106 O 0.45111 0.79049 0.93385 0.0
O1107 O 0.46133 0.75396 0.93677 0.0
O1108 O 0.4358 0.74114 0.06042 0.0
O1109 O 0.44728 0.72133 1.0044 0.0
O1110 O 0.42432 0.76202 0.96824 0.0
O1111 O 0.41127 0.75832 0.04447 0.0
H1112 H 0.43124 0.74386 0.23658 0.0
H1113 H 0.43788 0.73946 0.32898 0.0
H1114 H 0.41567 0.80767 0.36566 0.0
H1115 H 0.40932 0.81211 0.27354 0.0
H1116 H 0.46073 0.81083 0.83675 0.0
H1117 H 0.45618 0.80837 0.74298 0.0
H1118 H 0.44688 0.72918 0.75845 0.0
H1119 H 0.45105 0.732 0.85295 0.0
Sm1120 Sm 0.19844 0.26256 0.7479 0.0
Sm1121 Sm 0.18084 0.25116 0.84084 0.0
C1122 C 0.21031 0.26457 0.65383 0.0
C1123 C 0.20691 0.26226 0.59771 0.0
C1124 C 0.19351 0.25642 0.58083 0.0
C1125 C 0.19052 0.25483 0.52714 0.0
C1126 C 0.20088 0.259 0.48935 0.0
C1127 C 0.21429 0.26477 0.50679 0.0
C1128 C 0.21725 0.26638 0.56034 0.0
C1129 C 0.1952 0.30399 0.81182 0.0
C1130 C 0.16433 0.26685 0.73996 0.0
C1131 C 0.16989 0.24409 0.93517 0.0
C1132 C 0.17355 0.2467 0.99129 0.0
C1133 C 0.17932 0.26891 1.01177 0.0
C1134 C 0.18257 0.27069 0.06523 0.0
C1135 C 0.18024 0.25024 0.0992 0.0
C1136 C 0.17454 0.22804 0.07833 0.0
C1137 C 0.17121 0.22634 0.02512 0.0
C1138 C 0.18324 0.21155 0.77029 0.0
C1139 C 0.21393 0.25529 0.85721 0.0
O1140 O 0.20962 0.24412 0.68206 0.0
O1141 O 0.20544 0.28423 0.67827 0.0
O1142 O 0.18571 0.28841 0.80073 0.0
O1143 O 0.20662 0.29801 0.78841 0.0
O1144 O 0.17608 0.26271 0.71491 0.0
O1145 O 0.16361 0.26671 0.79136 0.0
O1146 O 0.16807 0.26462 0.90772 0.0
O1147 O 0.17634 0.22651 0.90908 0.0
O1148 O 0.19305 0.22556 0.78523 0.0
O1149 O 0.17194 0.21772 0.79412 0.0
O1150 O 0.20173 0.25948 0.87734 0.0
O1151 O 0.21566 0.25183 0.8064 0.0
H1152 H 0.18539 0.25313 0.60912 0.0
H1153 H 0.18013 0.25007 0.51525 0.0
H1154 H 0.22248 0.26848 0.47902 0.0
H1155 H 0.22764 0.27103 0.57259 0.0
H1156 H 0.18134 0.28488 0.98655 0.0
H1157 H 0.18708 0.28797 0.07985 0.0
H1158 H 0.17244 0.21204 0.10335 0.0
H1159 H 0.16676 0.20903 1.01032 0.0
Sm1160 Sm 0.54151 0.5159 0.75806 0.0
Sm1161 Sm 0.5605 0.52662 0.8489 0.0
C1162 C 0.52963 0.51398 0.66385 0.0
C1163 C 0.53318 0.51658 0.60763 0.0
C1164 C 0.54679 0.52086 0.59104 0.0
C1165 C 0.54993 0.5225 0.53738 0.0
C1166 C 0.53952 0.52001 0.49911 0.0
C1167 C 0.52589 0.51592 0.51623 0.0
C1168 C 0.52279 0.5142 0.56977 0.0
C1169 C 0.54415 0.47543 0.82482 0.0
C1170 C 0.57555 0.5093 0.74609 0.0
C1171 C 0.57205 0.53162 0.94301 0.0
C1172 C 0.56813 0.53021 0.99917 0.0
C1173 C 0.55727 0.51486 0.01672 0.0
C1174 C 0.55393 0.51369 0.07027 0.0
C1175 C 0.56135 0.5279 0.10756 0.0
C1176 C 0.57208 0.54354 0.08935 0.0
C1177 C 0.57542 0.54462 0.03596 0.0
C1178 C 0.55844 0.56565 0.77708 0.0
C1179 C 0.52708 0.5275 0.86871 0.0
O1180 O 0.53012 0.53433 0.69263 0.0
O1181 O 0.53452 0.4943 0.68817 0.0
O1182 O 0.55398 0.48965 0.81069 0.0
O1183 O 0.53268 0.48213 0.80263 0.0
O1184 O 0.56362 0.51408 0.72297 0.0
O1185 O 0.57688 0.5096 0.79731 0.0
O1186 O 0.57212 0.5106 0.91624 0.0
O1187 O 0.56708 0.5505 0.91626 0.0
O1188 O 0.54846 0.55246 0.79366 0.0
O1189 O 0.56976 0.55924 0.8006 0.0
O1190 O 0.5395 0.52391 0.88739 0.0
O1191 O 0.52468 0.5278 0.81767 0.0
H1192 H 0.55498 0.52287 0.61953 0.0
H1193 H 0.56051 0.52597 0.52591 0.0
H1194 H 0.51762 0.51355 0.48819 0.0
H1195 H 0.51222 0.51079 0.58162 0.0
H1196 H 0.55142 0.50365 0.98909 0.0
H1197 H 0.54568 0.50128 0.08248 0.0
H1198 H 0.57786 0.55521 0.1163 0.0
H1199 H 0.58375 0.55679 0.02335 0.0
Sm1200 Sm 0.19728 0.51719 0.02718 0.0
Sm1201 Sm 0.17931 0.53305 0.92577 0.0
C1202 C 0.21182 0.51652 0.11534 0.0
C1203 C 0.20856 0.51737 0.17198 0.0
C1204 C 0.1949 0.51522 0.18964 0.0
C1205 C 0.19191 0.51554 0.24341 0.0
C1206 C 0.20251 0.51814 0.28078 0.0
C1207 C 0.21618 0.52055 0.26272 0.0
C1208 C 0.21916 0.52012 0.20891 0.0
C1209 C 0.18749 0.47794 0.96787 0.0
C1210 C 0.16348 0.51685 0.03258 0.0
C1211 C 0.16732 0.53335 0.83232 0.0
C1212 C 0.17101 0.52865 0.77692 0.0
C1213 C 0.18362 0.51756 0.76287 0.0
C1214 C 0.18726 0.5149 0.70985 0.0
C1215 C 0.17839 0.52337 0.66976 0.0
C1216 C 0.16575 0.53436 0.68444 0.0
C1217 C 0.16212 0.53693 0.73729 0.0
C1218 C 0.1818 0.5729 0.99744 0.0
C1219 C 0.21307 0.53126 0.91525 0.0
O1220 O 0.20943 0.53709 0.08861 0.0
O1221 O 0.20802 0.49615 0.09029 0.0
O1222 O 0.1921 0.49853 0.94932 0.0
O1223 O 0.18851 0.47756 0.0187 0.0
O1224 O 0.17512 0.52005 0.05909 0.0
O1225 O 0.1628 0.51758 0.98084 0.0
O1226 O 0.16685 0.51394 0.86407 0.0
O1227 O 0.17301 0.5532 0.85369 0.0
O1228 O 0.18675 0.55115 0.99914 0.0
O1229 O 0.17487 0.5746 0.95405 0.0
O1230 O 0.20101 0.53647 0.89434 0.0
O1231 O 0.21454 0.52327 0.96435 0.0
H1232 H 0.18654 0.51321 0.16183 0.0
H1233 H 0.18126 0.514 0.25567 0.0
H1234 H 0.22462 0.52232 0.29021 0.0
H1235 H 0.22977 0.52177 0.19616 0.0
H1236 H 0.19071 0.51122 0.79288 0.0
H1237 H 0.19701 0.50611 0.70035 0.0
H1238 H 0.15874 0.5416 0.65513 0.0
H1239 H 0.15243 0.54585 0.74725 0.0
Sm1240 Sm 0.54195 0.25483 0.02149 0.0
Sm1241 Sm 0.56071 0.24369 0.93047 0.0
C1242 C 0.53014 0.257 0.11581 0.0
C1243 C 0.53369 0.2544 0.172 0.0
C1244 C 0.54734 0.25072 0.18861 0.0
C1245 C 0.55047 0.24906 0.24225 0.0
C1246 C 0.54 0.25091 0.28048 0.0
C1247 C 0.52633 0.25439 0.26333 0.0
C1248 C 0.52324 0.25613 0.20981 0.0
C1249 C 0.54446 0.29504 0.95398 0.0
C1250 C 0.57602 0.26154 0.03245 0.0
C1251 C 0.57224 0.23834 0.83637 0.0
C1252 C 0.56835 0.23983 0.78024 0.0
C1253 C 0.55733 0.25484 0.76294 0.0
C1254 C 0.55403 0.25614 0.70939 0.0
C1255 C 0.56165 0.24242 0.67188 0.0
C1256 C 0.57253 0.22714 0.68984 0.0
C1257 C 0.57583 0.22591 0.74323 0.0
C1258 C 0.55866 0.2049 1.00299 0.0
C1259 C 0.52728 0.24298 0.91128 0.0
O1260 O 0.53051 0.23661 0.08713 0.0
O1261 O 0.53512 0.27659 0.09138 0.0
O1262 O 0.55433 0.28089 0.968 0.0
O1263 O 0.53304 0.28841 0.97669 0.0
O1264 O 0.56413 0.25691 0.05611 0.0
O1265 O 0.57722 0.26093 0.98121 0.0
O1266 O 0.57246 0.25938 0.86305 0.0
O1267 O 0.5671 0.21961 0.86316 0.0
O1268 O 0.5487 0.21807 0.98638 0.0
O1269 O 0.56997 0.21123 0.97922 0.0
O1270 O 0.53969 0.24621 0.89213 0.0
O1271 O 0.52497 0.24305 0.96239 0.0
H1272 H 0.55557 0.24922 0.16015 0.0
H1273 H 0.56108 0.24608 0.25374 0.0
H1274 H 0.51801 0.25625 0.29135 0.0
H1275 H 0.51264 0.25907 0.19793 0.0
H1276 H 0.55134 0.26567 0.79076 0.0
H1277 H 0.54566 0.26828 0.69737 0.0
H1278 H 0.57847 0.21585 0.66269 0.0
H1279 H 0.58429 0.21403 0.75566 0.0
H1280 H 0.23071 0.21691 0.88696 0.0
H1281 H 0.22171 0.29515 0.91467 0.0
H1282 H 0.24465 0.2158 0.96676 0.0
H1283 H 0.23602 0.29462 0.9932 0.0
H1284 H 0.2508 0.28166 0.15855 0.0
H1285 H 0.23582 0.2792 0.08106 0.0
H1286 H 0.26507 0.22933 1.00655 0.0
H1287 H 0.27937 0.23076 0.08381 0.0
C1288 C 0.23225 0.23411 0.909 0.0
C1289 C 0.22549 0.25625 0.89421 0.0
C1290 C 0.24008 0.2335 0.9551 0.0
C1291 C 0.24132 0.25507 0.98709 0.0
C1292 C 0.23503 0.2775 0.97049 0.0
C1293 C 0.22712 0.27799 0.92484 0.0
C1294 C 0.25373 0.26963 0.12615 0.0
C1295 C 0.26627 0.25659 0.12712 0.0
C1296 C 0.24531 0.26852 0.08136 0.0
C1297 C 0.24934 0.25438 0.03696 0.0
C1298 C 0.26151 0.24026 0.03972 0.0
C1299 C 0.26978 0.24123 0.08417 0.0
H1300 H 0.0233 0.05355 0.95273 0.0
H1301 H 0.00776 0.98866 0.87038 0.0
H1302 H 0.00826 0.04432 0.02669 0.0
H1303 H 0.99315 0.97841 0.9452 0.0
H1304 H 0.95885 0.98097 0.06525 0.0
H1305 H 0.97399 0.98866 0.99259 0.0
H1306 H 0.00488 0.01778 0.09879 0.0
H1307 H 0.98895 0.01161 0.17248 0.0
C1308 C 0.01644 0.03749 0.95026 0.0
C1309 C 0.01646 0.02209 0.90547 0.0
C1310 C 0.00801 0.03187 0.99313 0.0
C1311 C -0.00045 1.01038 0.99277 0.0
C1312 C -0.00067 0.99534 0.94705 0.0
C1313 C 0.00761 1.00127 0.90374 0.0
C1314 C 0.96892 0.98888 0.07358 0.0
C1315 C 0.97259 0.99601 0.12491 0.0
C1316 C 0.97772 0.99309 0.03148 0.0
C1317 C 0.99071 1.0041 0.03913 0.0
C1318 C 0.99482 1.00981 0.09102 0.0
C1319 C 0.98581 1.00588 0.13354 0.0
H1320 H 0.2132 0.0544 0.33018 0.0
H1321 H 0.23794 1.00276 0.42005 0.0
H1322 H 0.22703 0.04648 0.25343 0.0
H1323 H 0.2529 0.99634 0.34375 0.0
H1324 H 0.2666 0.96516 0.18768 0.0
H1325 H 0.25274 0.97491 0.2647 0.0
H1326 H 0.24656 0.05039 0.20561 0.0
H1327 H 0.25961 0.03968 0.12728 0.0
C1328 C 0.22194 0.04186 0.3338 0.0
C1329 C 0.22434 0.02885 0.38081 0.0
C1330 C 0.23 0.03743 0.28964 0.0
C1331 C 0.24102 0.02032 0.29148 0.0
C1332 C 0.24422 1.00901 0.34013 0.0
C1333 C 0.23589 0.01311 0.38437 0.0
C1334 C 0.26171 0.98344 0.19041 0.0
C1335 C 0.26371 1.0014 0.15088 0.0
C1336 C 0.25409 0.98933 0.23525 0.0
C1337 C 0.24862 0.01364 0.24236 0.0
C1338 C 0.25034 0.03134 0.20165 0.0
C1339 C 0.2577 0.0252 0.15626 0.0
H1340 H 0.0087 0.21987 0.39479 0.0
H1341 H 0.02182 0.29499 0.35569 0.0
H1342 H 0.99418 0.21886 0.31676 0.0
H1343 H 0.00673 0.29494 0.27942 0.0
H1344 H 0.98826 0.28206 0.11992 0.0
H1345 H 0.00415 0.2793 0.19451 0.0
H1346 H 0.9746 0.23286 0.27694 0.0
H1347 H 0.95963 0.23391 0.20184 0.0
C1348 C 0.00798 0.23655 0.37057 0.0
C1349 C 0.01606 0.2577 0.3817 0.0
C1350 C -0.00024 0.236 0.32547 0.0
C1351 C -0.0007 0.25679 0.29102 0.0
C1352 C 0.00702 0.27833 0.30389 0.0
C1353 C 0.01542 0.27864 0.34831 0.0
C1354 C 0.98543 0.27074 0.15351 0.0
C1355 C 0.9726 0.25863 0.15538 0.0
C1356 C 0.99439 0.26948 0.19675 0.0
C1357 C 0.9906 0.25625 0.24265 0.0
C1358 C 0.97805 0.2431 0.24273 0.0
C1359 C 0.96932 0.24401 0.19959 0.0
H1360 H 0.73806 0.78294 0.86088 0.0
H1361 H 0.72135 0.71513 0.92876 0.0
H1362 H 0.75229 0.78916 0.93926 0.0
H1363 H 0.73468 0.72194 1.00735 0.0
H1364 H 0.76804 0.73056 0.12991 0.0
H1365 H 0.75577 0.72226 0.04876 0.0
H1366 H 0.74935 0.80217 0.02799 0.0
H1367 H 0.7624 0.81022 0.10852 0.0
C1368 C 0.73775 0.76899 0.89177 0.0
C1369 C 0.72864 0.74852 0.88859 0.0
C1370 C 0.74563 0.77284 0.93728 0.0
C1371 C 0.74446 0.75636 0.98042 0.0
C1372 C 0.73602 0.735 0.97524 0.0
C1373 C 0.72834 0.73105 0.92989 0.0
C1374 C 0.76351 0.74624 0.10895 0.0
C1375 C 0.76566 0.77094 0.12635 0.0
C1376 C 0.7566 0.74156 0.062 0.0
C1377 C 0.75157 0.76153 0.03126 0.0
C1378 C 0.75327 0.78631 0.04997 0.0
C1379 C 0.76039 0.79097 0.09682 0.0
H1380 H 0.75822 0.0381 0.62019 0.0
H1381 H 0.77317 0.97066 0.69429 0.0
H1382 H 0.74451 0.04766 0.69758 0.0
H1383 H 0.75879 0.97896 0.77058 0.0
H1384 H 0.74085 1.00819 0.92117 0.0
H1385 H 0.75629 1.00322 0.84561 0.0
H1386 H 0.72577 0.03867 0.74653 0.0
H1387 H 0.71131 0.04546 0.82146 0.0
C1388 C 0.75804 0.02473 0.6522 0.0
C1389 C 0.76645 1.00336 0.65085 0.0
C1390 C 0.75027 0.03024 0.69703 0.0
C1391 C 0.75053 0.01421 0.74117 0.0
C1392 C 0.75853 0.99217 0.73836 0.0
C1393 C 0.76651 0.98702 0.69405 0.0
C1394 C 0.73777 0.01566 0.8835 0.0
C1395 C 0.72482 0.02697 0.8773 0.0
C1396 C 0.74645 0.01237 0.83981 0.0
C1397 C 0.74224 0.02007 0.78918 0.0
C1398 C 0.7296 0.03267 0.7843 0.0
C1399 C 0.72118 0.03637 0.82765 0.0
H1400 H 0.98656 0.75261 0.60671 0.0
H1401 H 0.95846 0.78907 0.71382 0.0
H1402 H 0.0031 0.74734 0.67858 0.0
H1403 H 0.97479 0.78394 0.78478 0.0
H1404 H 0.00157 0.74765 0.91298 0.0
H1405 H 0.98485 0.75186 0.84105 0.0
H1406 H 0.01789 0.77137 0.73509 0.0
H1407 H 0.03423 0.76704 0.80496 0.0
C1408 C 0.98404 0.75991 0.64516 0.0
C1409 C 0.97121 0.77117 0.65448 0.0
C1410 C 0.99343 0.75676 0.68652 0.0
C1411 C 0.99016 0.76487 0.73782 0.0
C1412 C 0.97752 0.77688 0.74634 0.0
C1413 C 0.96822 0.78004 0.70531 0.0
C1414 C 0.00519 0.75282 0.87434 0.0
C1415 C 0.0193 0.75673 0.86511 0.0
C1416 C -0.00435 0.75528 0.83309 0.0
C1417 C 7e-05 0.76168 0.78198 0.0
C1418 C 0.01412 0.76582 0.77333 0.0
C1419 C 0.02353 0.76343 0.81403 0.0
H1420 H 0.21893 0.71282 0.43136 0.0
H1421 H 0.23471 0.78367 0.37485 0.0
H1422 H 0.2329 0.71657 0.50977 0.0
H1423 H 0.24921 0.78722 0.45329 0.0
H1424 H 0.25892 0.80137 0.62629 0.0
H1425 H 0.2453 0.79577 0.54613 0.0
H1426 H 0.25535 0.71654 0.54618 0.0
H1427 H 0.26849 0.72225 0.62662 0.0
C1428 C 0.22584 0.72877 0.43489 0.0
C1429 C 0.22582 0.74787 0.39687 0.0
C1430 C 0.23381 0.731 0.48006 0.0
C1431 C 0.24202 0.75241 0.48842 0.0
C1432 C 0.24276 0.77074 0.44858 0.0
C1433 C 0.23473 0.76847 0.40307 0.0
C1434 C 0.25763 0.78264 0.6102 0.0
C1435 C 0.26426 0.76205 0.63342 0.0
C1436 C 0.25017 0.7795 0.56362 0.0
C1437 C 0.24937 0.75574 0.53923 0.0
C1438 C 0.2556 0.73504 0.56398 0.0
C1439 C 0.26299 0.7382 0.61043 0.0
H1440 H 0.97208 0.46687 0.59039 0.0
H1441 H 0.98107 0.53983 0.65552 0.0
H1442 H 0.98618 0.47646 0.51402 0.0
H1443 H 0.9943 0.55056 0.5777 0.0
H1444 H 0.02755 0.55446 0.45331 0.0
H1445 H 0.0135 0.54644 0.52935 0.0
H1446 H 0.98721 0.49804 0.4363 0.0
H1447 H 0.00248 0.50423 0.361 0.0
C1448 C 0.97738 0.48481 0.58866 0.0
C1449 C 0.97589 0.50233 0.62943 0.0
C1450 C 0.98518 0.49064 0.54421 0.0
C1451 C 0.99133 0.51451 0.53861 0.0
C1452 C 0.99003 0.5318 0.58039 0.0
C1453 C 0.98252 0.52566 0.62548 0.0
C1454 C 0.01875 0.54209 0.44908 0.0
C1455 C 0.01635 0.52945 0.40158 0.0
C1456 C 0.01051 0.53769 0.4928 0.0
C1457 C -0.00075 0.5211 0.49002 0.0
C1458 C -0.00394 0.51023 0.44084 0.0
C1459 C 0.00461 0.51421 0.39712 0.0
H1460 H 0.26372 0.46626 0.67632 0.0
H1461 H 0.26209 0.54391 0.62897 0.0
H1462 H 0.25024 0.47607 0.75453 0.0
H1463 H 0.24949 0.55442 0.70843 0.0
H1464 H 0.21542 0.56063 0.82966 0.0
H1465 H 0.22931 0.5527 0.75329 0.0
H1466 H 0.25132 0.49459 0.83731 0.0
H1467 H 0.23638 0.50144 0.91342 0.0
C1468 C 0.26007 0.48532 0.68208 0.0
C1469 C 0.26338 0.50416 0.64575 0.0
C1470 C 0.25269 0.49115 0.72763 0.0
C1471 C 0.24883 0.51616 0.73866 0.0
C1472 C 0.25197 0.53487 0.7013 0.0
C1473 C 0.25907 0.52888 0.65526 0.0
C1474 C 0.22341 0.54644 0.83237 0.0
C1475 C 0.22468 0.53147 0.87754 0.0
C1476 C 0.23147 0.54191 0.78826 0.0
C1477 C 0.24136 0.52263 0.7882 0.0
C1478 C 0.24351 0.50909 0.83514 0.0
C1479 C 0.23519 0.51338 0.87936 0.0
H1480 H 0.78171 0.29302 0.56034 0.0
H1481 H 0.75165 0.26247 0.66776 0.0
H1482 H 0.76639 0.28594 0.48796 0.0
H1483 H 0.7355 0.25714 0.59457 0.0
H1484 H 0.71625 0.22265 0.44941 0.0
H1485 H 0.73164 0.23113 0.52259 0.0
H1486 H 0.74735 0.29643 0.44077 0.0
H1487 H 0.73246 0.28675 0.36644 0.0
C1488 C 0.77162 0.28523 0.56876 0.0
C1489 C 0.76802 0.27786 0.61999 0.0
C1490 C 0.7627 0.28142 0.52684 0.0
C1491 C 0.74966 0.27066 0.53467 0.0
C1492 C 0.74561 0.26485 0.58659 0.0
C1493 C 0.75474 0.26831 0.62886 0.0
C1494 C 0.72335 0.23834 0.4466 0.0
C1495 C 0.72343 0.25371 0.40183 0.0
C1496 C 0.73196 0.24359 0.4891 0.0
C1497 C 0.74069 0.26473 0.4885 0.0
C1498 C 0.74098 0.27974 0.4428 0.0
C1499 C 0.73253 0.27415 0.39978 0.0
H1500 H 0.73695 0.53007 0.4073 0.0
H1501 H 0.70619 0.49272 0.3127 0.0
H1502 H 0.75386 0.52381 0.33651 0.0
H1503 H 0.7227 0.4873 0.24265 0.0
H1504 H 0.75264 0.51011 0.1076 0.0
H1505 H 0.73567 0.51478 0.17856 0.0
H1506 H 0.76556 0.4874 0.29 0.0
H1507 H 0.78218 0.48215 0.21996 0.0
C1508 C 0.73381 0.5205 0.37178 0.0
C1509 C 0.72015 0.51241 0.36533 0.0
C1510 C 0.74343 0.517 0.3312 0.0
C1511 C 0.73948 0.5055 0.28361 0.0
C1512 C 0.72595 0.49681 0.27812 0.0
C1513 C 0.71649 0.5 0.31851 0.0
C1514 C 0.75544 0.50462 0.14703 0.0
C1515 C 0.76877 0.49599 0.15811 0.0
C1516 C 0.74581 0.50748 0.18772 0.0
C1517 C 0.74943 0.50194 0.24002 0.0
C1518 C 0.76258 0.49243 0.25047 0.0
C1519 C 0.77206 0.48929 0.21006 0.0
H1520 H 0.46637 0.04339 0.60891 0.0
H1521 H 0.48288 0.97079 0.64986 0.0
H1522 H 0.48192 0.04589 0.5342 0.0
H1523 H 0.49809 0.97245 0.57348 0.0
H1524 H 0.53302 0.99479 0.46569 0.0
H1525 H 0.51739 0.99126 0.53823 0.0
H1526 H 0.48609 0.03014 0.44901 0.0
H1527 H 0.50247 0.03521 0.37618 0.0
C1528 C 0.47355 0.02811 0.60216 0.0
C1529 C 0.47369 1.00713 0.63561 0.0
C1530 C 0.48226 0.02929 0.5587 0.0
C1531 C 0.49119 1.00927 0.54698 0.0
C1532 C 0.49151 0.98844 0.58141 0.0
C1533 C 0.4829 0.98747 0.62552 0.0
C1534 C 0.52283 1.0028 0.46125 0.0
C1535 C 0.51912 0.01589 0.41541 0.0
C1536 C 0.51373 1.00038 0.50298 0.0
C1537 C 0.50043 1.01052 0.50015 0.0
C1538 C 0.49637 0.02253 0.45313 0.0
C1539 C 0.50566 0.0252 0.41105 0.0
H1540 H 0.48058 0.23355 0.61807 0.0
H1541 H 0.46798 0.30174 0.69606 0.0
H1542 H 0.49479 0.22249 0.6935 0.0
H1543 H 0.48258 0.29152 0.77051 0.0
H1544 H 0.50022 0.25919 0.91802 0.0
H1545 H 0.4844 0.265 0.844 0.0
H1546 H 0.51452 0.23153 0.74022 0.0
H1547 H 0.52961 0.22443 0.81364 0.0
C1548 C 0.4813 0.24663 0.65055 0.0
C1549 C 0.47337 0.26865 0.65095 0.0
C1550 C 0.48932 0.24023 0.69417 0.0
C1551 C 0.48974 0.25592 0.73884 0.0
C1552 C 0.48226 0.27856 0.73778 0.0
C1553 C 0.47411 0.28473 0.6946 0.0
C1554 C 0.50316 0.25232 0.87966 0.0
C1555 C 0.51617 0.2415 0.87168 0.0
C1556 C 0.49425 0.25606 0.83694 0.0
C1557 C 0.49825 0.2492 0.78558 0.0
C1558 C 0.51092 0.23693 0.77877 0.0
C1559 C 0.51967 0.23297 0.82116 0.0
H1560 H 0.45646 0.74666 0.21376 0.0
H1561 H 0.4889 0.77161 0.10986 0.0
H1562 H 0.47265 0.74245 0.28422 0.0
H1563 H 0.50559 0.76605 0.18126 0.0
H1564 H 0.52785 0.78365 0.33431 0.0
H1565 H 0.5118 0.78576 0.2615 0.0
H1566 H 0.4909 0.71966 0.32041 0.0
H1567 H 0.50686 0.71826 0.39481 0.0
C1568 C 0.46713 0.75112 0.2056 0.0
C1569 C 0.47129 0.76002 0.15599 0.0
C1570 C 0.47651 0.7483 0.24633 0.0
C1571 C 0.49046 0.75398 0.23892 0.0
C1572 C 0.49484 0.76193 0.1887 0.0
C1573 C 0.48533 0.76492 0.14756 0.0
C1574 C 0.51965 0.7698 0.33211 0.0
C1575 C 0.51847 0.75093 0.37043 0.0
C1576 C 0.51059 0.77077 0.28982 0.0
C1577 C 0.50015 0.75269 0.28429 0.0
C1578 C 0.49875 0.73408 0.32351 0.0
C1579 C 0.50779 0.7333 0.36641 0.0
H1580 H 0.49947 0.51447 0.86066 0.0
H1581 H 0.53003 0.54304 0.96843 0.0
H1582 H 0.48338 0.50907 0.93402 0.0
H1583 H 0.5147 0.53603 0.04096 0.0
H1584 H 0.48089 0.53587 0.16326 0.0
H1585 H 0.49564 0.54643 0.08898 0.0
H1586 H 0.47997 0.48179 1.00458 0.0
H1587 H 0.46475 0.47239 0.0778 0.0
C1588 C 0.50266 0.51998 0.89968 0.0
C1589 C 0.51604 0.52894 0.9087 0.0
C1590 C 0.49357 0.51645 0.94199 0.0
C1591 C 0.49778 0.52162 0.99398 0.0
C1592 C 0.51091 0.53199 1.00197 0.0
C1593 C 0.51981 0.53583 0.96002 0.0
C1594 C 0.48096 0.52358 0.12936 0.0
C1595 C 0.47193 0.50306 0.12655 0.0
C1596 C 0.48931 0.5297 0.0864 0.0
C1597 C 0.48894 0.51516 0.04005 0.0
C1598 C 0.48032 0.4939 0.03868 0.0
C1599 C 0.47182 0.48811 0.08115 0.0
H1600 H 0.3864 0.2702 0.53126 0.0
H1601 H 0.40955 0.24103 0.40009 0.0
H1602 H 0.36517 0.26584 0.48171 0.0
H1603 H 0.38822 0.23517 0.3513 0.0
H1604 H 0.35142 0.26158 0.25612 0.0
H1605 H 0.37228 0.25991 0.30762 0.0
H1606 H 0.34841 0.23976 0.44456 0.0
H1607 H 0.32729 0.24286 0.39302 0.0
C1608 C 0.38689 0.26236 0.49211 0.0
C1609 C 0.39961 0.25617 0.46925 0.0
C1610 C 0.37469 0.25966 0.46377 0.0
C1611 C 0.37492 0.25026 0.41226 0.0
C1612 C 0.38765 0.24305 0.39036 0.0
C1613 C 0.39988 0.24626 0.41835 0.0
C1614 C 0.3506 0.25655 0.29711 0.0
C1615 C 0.3377 0.25241 0.32057 0.0
C1616 C 0.36263 0.2554 0.3267 0.0
C1617 C 0.36211 0.24963 0.38039 0.0
C1618 C 0.3492 0.24469 0.40353 0.0
C1619 C 0.3371 0.24629 0.37399 0.0
H1620 H 0.8502 0.03732 0.52499 0.0
H1621 H 0.82988 1.00942 0.38585 0.0
H1622 H 0.87167 0.04129 0.47627 0.0
H1623 H 0.8514 0.01279 0.3376 0.0
H1624 H 0.8898 0.03498 0.25286 0.0
H1625 H 0.86849 0.04068 0.30171 0.0
H1626 H 0.88835 0.01228 0.44114 0.0
H1627 H 0.90977 1.0072 0.39268 0.0
C1628 C 0.85029 0.03218 0.48393 0.0
C1629 C 0.83836 0.02287 0.45937 0.0
C1630 C 0.86261 0.03435 0.4561 0.0
C1631 C 0.86328 0.02715 0.40321 0.0
C1632 C 0.85121 0.01879 0.37814 0.0
C1633 C 0.83886 0.01675 0.40588 0.0
C1634 C 0.88967 0.03021 0.2941 0.0
C1635 C 0.90144 0.02039 0.31879 0.0
C1636 C 0.87743 0.03339 0.32201 0.0
C1637 C 0.87667 0.02669 0.37514 0.0
C1638 C 0.88861 0.01789 0.40038 0.0
C1639 C 0.90089 0.01486 0.37253 0.0
H1640 H 0.41017 0.02646 0.89557 0.0
H1641 H 0.38677 1.00508 0.75861 0.0
H1642 H 0.38884 0.02986 0.94573 0.0
H1643 H 0.36564 1.00709 0.80888 0.0
H1644 H 0.32794 0.02751 0.89901 0.0
H1645 H 0.34939 0.03246 0.85034 0.0
H1646 H 0.37214 1.00387 0.98331 0.0
H1647 H 0.35087 1.00033 0.0325 0.0
C1648 C 0.40047 0.02243 0.8763 0.0
C1649 C 0.40012 0.01552 0.82327 0.0
C1650 C 0.38825 0.02424 0.90501 0.0
C1651 C 0.37547 0.0187 0.88146 0.0
C1652 C 0.3752 0.01206 0.82817 0.0
C1653 C 0.38736 1.01069 0.79935 0.0
C1654 C 0.33757 0.02256 0.91785 0.0
C1655 C 0.33774 0.01349 0.96942 0.0
C1656 C 0.34986 0.02524 0.88994 0.0
C1657 C 0.36254 0.0184 0.91269 0.0
C1658 C 0.36266 1.00978 0.96472 0.0
C1659 C 0.35042 1.00756 0.99288 0.0
H1660 H 0.8287 0.24157 0.88236 0.0
H1661 H 0.8537 0.26414 0.7504 0.0
H1662 H 0.84949 0.23555 0.93452 0.0
H1663 H 0.87431 0.25954 0.80279 0.0
H1664 H 0.91097 0.2381 0.89672 0.0
H1665 H 0.89 0.23351 0.84499 0.0
H1666 H 0.86595 0.26031 0.97648 0.0
H1667 H 0.88674 0.26346 0.02857 0.0
C1668 C 0.83864 0.24523 0.86455 0.0
C1669 C 0.83957 0.25341 0.81243 0.0
C1670 C 0.85056 0.24192 0.89446 0.0
C1671 C 0.86364 0.24722 0.87311 0.0
C1672 C 0.86451 0.25478 0.82045 0.0
C1673 C 0.85263 0.25762 0.79039 0.0
C1674 C 0.90115 0.24269 0.91458 0.0
C1675 C 0.90049 0.25124 0.96652 0.0
C1676 C 0.88913 0.2402 0.88492 0.0
C1677 C 0.87623 0.24674 0.90629 0.0
C1678 C 0.87561 0.25464 0.95882 0.0
C1679 C 0.88758 0.25665 0.98869 0.0
H1680 H 0.58144 0.77145 0.63168 0.0
H1681 H 0.60535 0.75053 0.49564 0.0
H1682 H 0.60263 0.77572 0.68244 0.0
H1683 H 0.62634 0.75339 0.54654 0.0
H1684 H 0.66346 0.7779 0.63589 0.0
H1685 H 0.64197 0.78034 0.58698 0.0
H1686 H 0.61987 0.75126 0.72124 0.0
H1687 H 0.64124 0.75023 0.77075 0.0
C1688 C 0.59122 0.76768 0.61275 0.0
C1689 C 0.59176 0.76075 0.55974 0.0
C1690 C 0.60336 0.76997 0.64184 0.0
C1691 C 0.61625 0.76492 0.61866 0.0
C1692 C 0.61669 0.75803 0.56551 0.0
C1693 C 0.60461 0.75619 0.53633 0.0
C1694 C 0.65397 0.77223 0.65494 0.0
C1695 C 0.65401 0.7638 0.70697 0.0
C1696 C 0.64165 0.77348 0.62688 0.0
C1697 C 0.62915 0.76579 0.64993 0.0
C1698 C 0.62922 0.75774 0.70239 0.0
C1699 C 0.6415 0.75697 0.73073 0.0
H1700 H 0.07972 0.99375 0.6482 0.0
H1701 H 0.10297 0.01961 0.78215 0.0
H1702 H 0.1011 0.98882 0.59896 0.0
H1703 H 0.12414 0.01622 0.7325 0.0
H1704 H 0.16214 0.99614 0.64323 0.0
H1705 H 0.1409 0.99131 0.69351 0.0
H1706 H 0.11728 0.01403 0.5578 0.0
H1707 H 0.13829 0.01735 0.5074 0.0
C1708 C 0.0894 0.9984 0.66703 0.0
C1709 C 0.08968 1.00709 0.7189 0.0
C1710 C 0.10166 0.99573 0.6388 0.0
C1711 C 0.11441 1.00229 0.66151 0.0
C1712 C 0.11462 1.01049 0.71385 0.0
C1713 C 0.10243 0.01264 0.74231 0.0
C1714 C 0.15237 0.99979 0.62421 0.0
C1715 C 0.15188 1.00712 0.57147 0.0
C1716 C 0.14018 0.99717 0.65301 0.0
C1717 C 0.1273 1.00237 0.6299 0.0
C1718 C 0.1269 1.0093 0.57681 0.0
C1719 C 0.13902 1.01142 0.5479 0.0
H1720 H 0.6635 0.99339 0.1412 0.0
H1721 H 0.63922 0.01488 1.00666 0.0
H1722 H 0.6425 0.99004 0.19336 0.0
H1723 H 0.61844 0.01294 0.05894 0.0
H1724 H 0.58127 0.99447 0.1545 0.0
H1725 H 0.60218 0.98877 0.10288 0.0
H1726 H 0.62649 0.01671 0.23265 0.0
H1727 H 0.60572 0.02096 0.28475 0.0
C1728 C 0.65368 0.99736 0.12282 0.0
C1729 C 0.653 1.00444 0.06996 0.0
C1730 C 0.64164 0.99561 0.15272 0.0
C1731 C 0.62873 1.00141 0.13058 0.0
C1732 C 0.62811 1.00787 0.07726 0.0
C1733 C 0.64008 1.00915 0.04724 0.0
C1734 C 0.59112 0.99917 0.17195 0.0
C1735 C 0.59189 1.0082 0.22351 0.0
C1736 C 0.60311 0.99603 0.14236 0.0
C1737 C 0.61608 1.00236 0.16342 0.0
C1738 C 0.61677 1.01111 0.21535 0.0
C1739 C 0.60483 0.01378 0.24517 0.0
H1740 H 0.07939 0.77761 0.13499 0.0
H1741 H 0.10433 0.76098 0.99899 0.0
H1742 H 0.10023 0.78145 0.1879 0.0
H1743 H 0.12495 0.76344 0.05183 0.0
H1744 H 0.16143 0.78436 0.14729 0.0
H1745 H 0.14023 0.78898 0.09729 0.0
H1746 H 0.11725 0.75586 0.22519 0.0
H1747 H 0.13836 0.75269 0.27606 0.0
C1748 C 0.08931 0.77482 0.11643 0.0
C1749 C 0.09022 0.76904 0.06287 0.0
C1750 C 0.10125 0.77684 0.14676 0.0
C1751 C 0.11431 0.77269 0.12427 0.0
C1752 C 0.11515 0.76732 0.07044 0.0
C1753 C 0.10327 0.76574 0.04006 0.0
C1754 C 0.15181 0.77826 0.16472 0.0
C1755 C 0.15152 0.76803 0.21531 0.0
C1756 C 0.13966 0.78078 0.13604 0.0
C1757 C 0.127 0.77256 0.1569 0.0
C1758 C 0.12673 0.76278 0.20808 0.0
C1759 C 0.13885 0.76076 0.23715 0.0
H1760 H 0.35144 0.76609 0.75002 0.0
H1761 H 0.32834 0.73743 0.88182 0.0
H1762 H 0.37261 0.7628 0.80005 0.0
H1763 H 0.34966 0.73276 0.93124 0.0
H1764 H 0.38602 0.76277 0.02554 0.0
H1765 H 0.36523 0.75909 0.97389 0.0
H1766 H 0.38953 0.7376 0.83894 0.0
H1767 H 0.41054 0.74262 0.89052 0.0
C1768 C 0.35094 0.75856 0.78939 0.0
C1769 C 0.33823 0.75225 0.81226 0.0
C1770 C 0.36311 0.75649 0.81803 0.0
C1771 C 0.36289 0.74765 0.86992 0.0
C1772 C 0.3502 0.7402 0.89183 0.0
C1773 C 0.33798 0.74274 0.86349 0.0
C1774 C 0.38695 0.75703 0.98497 0.0
C1775 C 0.39992 0.75311 0.96199 0.0
C1776 C 0.37497 0.75471 0.95533 0.0
C1777 C 0.37564 0.748 0.90212 0.0
C1778 C 0.38863 0.74323 0.87957 0.0
C1779 C 0.40067 0.74597 0.90912 0.0
H1780 H 0.91347 0.52987 0.8865 0.0
H1781 H 0.8896 0.50426 0.75393 0.0
H1782 H 0.89234 0.53501 0.93706 0.0
H1783 H 0.86862 0.50793 0.80496 0.0
H1784 H 0.83122 0.529 0.89728 0.0
H1785 H 0.85223 0.53346 0.84551 0.0
H1786 H 0.87634 0.50932 0.97887 0.0
H1787 H 0.85554 0.5063 0.03083 0.0
C1788 C 0.90369 0.52534 0.86825 0.0
C1789 C 0.90316 0.51659 0.81645 0.0
C1790 C 0.89158 0.52812 0.89724 0.0
C1791 C 0.87873 0.52167 0.87534 0.0
C1792 C 0.87825 0.51352 0.82297 0.0
C1793 C 0.89031 0.51123 0.79373 0.0
C1794 C 0.84106 0.52494 0.91547 0.0
C1795 C 0.84176 0.51729 0.96798 0.0
C1796 C 0.8531 0.52736 0.88582 0.0
C1797 C 0.86603 0.52167 0.90786 0.0
C1798 C 0.86665 0.5144 0.96073 0.0
C1799 C 0.85468 0.51245 0.99052 0.0
H1800 H 0.32644 0.52917 0.39132 0.0
H1801 H 0.35016 0.50373 0.5243 0.0
H1802 H 0.34762 0.53425 0.34106 0.0
H1803 H 0.37119 0.5075 0.4736 0.0
H1804 H 0.40866 0.52921 0.38284 0.0
H1805 H 0.3875 0.53358 0.43357 0.0
H1806 H 0.36385 0.50864 0.29953 0.0
H1807 H 0.38485 0.50558 0.2485 0.0
C1808 C 0.33619 0.52466 0.40976 0.0
C1809 C 0.33665 0.51597 0.46162 0.0
C1810 C 0.34833 0.52743 0.38092 0.0
C1811 C 0.36116 0.52111 0.40305 0.0
C1812 C 0.36158 0.51299 0.45543 0.0
C1813 C 0.34948 0.51065 0.48448 0.0
C1814 C 0.3989 0.52495 0.3642 0.0
C1815 C 0.39841 0.51698 0.31181 0.0
C1816 C 0.38677 0.52731 0.3933 0.0
C1817 C 0.37393 0.52131 0.37085 0.0
C1818 C 0.37348 0.5139 0.31799 0.0
C1819 C 0.38556 0.51195 0.28873 0.0
H1820 H 0.85167 0.7645 0.24986 0.0
H1821 H 0.827 0.74077 0.38183 0.0
H1822 H 0.87243 0.75931 0.30127 0.0
H1823 H 0.84792 0.7341 0.43286 0.0
H1824 H 0.88509 0.76195 0.52693 0.0
H1825 H 0.86429 0.75867 0.47517 0.0
H1826 H 0.88835 0.73337 0.34242 0.0
H1827 H 0.90936 0.7381 0.39394 0.0
C1828 C 0.85071 0.75758 0.2896 0.0
C1829 C 0.83771 0.75326 0.31202 0.0
C1830 C 0.86266 0.7544 0.31908 0.0
C1831 C 0.86192 0.74637 0.37147 0.0
C1832 C 0.84889 0.74086 0.39304 0.0
C1833 C 0.8369 0.74453 0.36377 0.0
C1834 C 0.88594 0.75541 0.48685 0.0
C1835 C 0.89887 0.75049 0.46431 0.0
C1836 C 0.87396 0.75332 0.45715 0.0
C1837 C 0.87457 0.74582 0.40438 0.0
C1838 C 0.88749 0.73973 0.38259 0.0
C1839 C 0.89953 0.7423 0.41212 0.0
H1840 H 0.63638 0.25379 0.27846 0.0
H1841 H 0.6599 0.28191 0.14723 0.0
H1842 H 0.61541 0.25651 0.22721 0.0
H1843 H 0.63875 0.28604 0.0965 0.0
H1844 H 0.60258 0.25616 1.0009 0.0
H1845 H 0.62325 0.25982 0.05337 0.0
H1846 H 0.59858 0.28131 0.18737 0.0
H1847 H 0.57773 0.27626 0.13501 0.0
C1848 C 0.63702 0.26109 0.23892 0.0
C1849 C 0.64979 0.26744 0.21665 0.0
C1850 C 0.62495 0.26283 0.20956 0.0
C1851 C 0.62533 0.27139 0.15748 0.0
C1852 C 0.63808 0.27881 0.13605 0.0
C1853 C 0.65021 0.2766 0.16516 0.0
C1854 C 0.60156 0.26187 0.04147 0.0
C1855 C 0.58853 0.26579 0.06396 0.0
C1856 C 0.61346 0.26418 0.07157 0.0
C1857 C 0.61266 0.2709 0.12476 0.0
C1858 C 0.5996 0.27564 0.14681 0.0
C1859 C 0.58764 0.27288 0.11681 0.0
H1860 H 0.07823 0.49837 0.13612 0.0
H1861 H 0.1021 0.51433 0.27516 0.0
H1862 H 0.09946 0.49607 0.08497 0.0
H1863 H 0.12306 0.51349 0.22417 0.0
H1864 H 0.16052 0.49652 0.12991 0.0
H1865 H 0.1392 0.49017 0.17852 0.0
H1866 H 0.11618 0.52294 0.05047 0.0
H1867 H 0.13741 0.52781 1.001 0.0
C1868 C 0.088 0.5013 0.15574 0.0
C1869 C 0.08849 0.5065 0.20962 0.0
C1870 C 0.10017 0.50019 0.12642 0.0
C1871 C 0.11303 0.50474 0.15026 0.0
C1872 C 0.11344 0.50937 0.20445 0.0
C1873 C 0.10135 0.51001 0.23378 0.0
C1874 C 0.15087 0.50221 0.1122 0.0
C1875 C 0.1506 0.51276 0.06188 0.0
C1876 C 0.13864 0.49868 0.14007 0.0
C1877 C 0.1259 0.50618 0.11868 0.0
C1878 C 0.1257 0.51647 0.06794 0.0
C1879 C 0.1379 0.5195 0.03969 0.0
H1880 H 0.63434 0.52052 0.49573 0.0
H1881 H 0.659 0.49294 0.62425 0.0
H1882 H 0.61373 0.51677 0.54894 0.0
H1883 H 0.63825 0.48776 0.67693 0.0
H1884 H 0.60218 0.51547 0.77609 0.0
H1885 H 0.62264 0.51296 0.72197 0.0
H1886 H 0.59755 0.49082 0.58952 0.0
H1887 H 0.57693 0.49476 0.64351 0.0
C1888 C 0.6353 0.51313 0.5351 0.0
C1889 C 0.64827 0.50719 0.55605 0.0
C1890 C 0.62345 0.51079 0.56558 0.0
C1891 C 0.62428 0.50202 0.61743 0.0
C1892 C 0.63724 0.49511 0.63758 0.0
C1893 C 0.64914 0.49793 0.60737 0.0
C1894 C 0.60104 0.50984 0.73552 0.0
C1895 C 0.58796 0.50545 0.71389 0.0
C1896 C 0.61281 0.5082 0.70447 0.0
C1897 C 0.6118 0.50169 0.65121 0.0
C1898 C 0.59871 0.49638 0.6301 0.0
C1899 C 0.58689 0.49848 0.66103 0.0
H1900 H 0.13822 0.25874 0.7738 0.0
H1901 H 0.16158 0.28318 0.63904 0.0
H1902 H 0.11703 0.26244 0.72428 0.0
H1903 H 0.14022 0.28842 0.58989 0.0
H1904 H 0.10225 0.26137 0.50029 0.0
H1905 H 0.1235 0.26394 0.54948 0.0
H1906 H 0.10073 0.28862 0.68596 0.0
H1907 H 0.07925 0.28454 0.63702 0.0
C1908 C 0.13878 0.26537 0.73374 0.0
C1909 C 0.15153 0.27055 0.7101 0.0
C1910 C 0.12659 0.26774 0.7054 0.0
C1911 C 0.12684 0.2758 0.65298 0.0
C1912 C 0.13963 0.2817 0.62985 0.0
C1913 C 0.15188 0.27883 0.65799 0.0
C1914 C 0.10178 0.26762 0.54067 0.0
C1915 C 0.08908 0.27261 0.56497 0.0
C1916 C 0.11402 0.26927 0.56888 0.0
C1917 C 0.1139 0.27642 0.62188 0.0
C1918 C 0.10121 0.28251 0.64554 0.0
C1919 C 0.0889 0.28035 0.6175 0.0
H1920 H 0.26949 0.27287 0.61969 0.0
H1921 H 0.31131 0.24924 0.58874 0.0
H1922 H 0.27406 0.27163 0.71326 0.0
H1923 H 0.31615 0.24969 0.6821 0.0
H1924 H 0.31813 0.23172 0.85563 0.0
H1925 H 0.31243 0.22932 0.7627 0.0
H1926 H 0.28566 0.29379 0.77977 0.0
H1927 H 0.29111 0.29565 0.87277 0.0
C1928 C 0.27966 0.2673 0.63267 0.0
C1929 C 0.29001 0.26119 0.59616 0.0
C1930 C 0.28236 0.26697 0.68658 0.0
C1931 C 0.29553 0.26072 0.70571 0.0
C1932 C 0.30583 0.25433 0.66922 0.0
C1933 C 0.30311 0.25445 0.61534 0.0
C1934 C 0.31102 0.24535 0.83946 0.0
C1935 C 0.30508 0.26386 0.87172 0.0
C1936 C 0.30778 0.24406 0.78603 0.0
C1937 C 0.29859 0.26141 0.76323 0.0
C1938 C 0.29258 0.27979 0.79577 0.0
C1939 C 0.29573 0.28092 0.84925 0.0
H1940 H 0.93787 0.03951 0.5969 0.0
H1941 H 0.96167 0.97129 0.61212 0.0
H1942 H 0.93252 0.03805 0.69044 0.0
H1943 H 0.95668 0.97028 0.70559 0.0
H1944 H 0.93103 0.95937 0.8549 0.0
H1945 H 0.93715 0.96213 0.76253 0.0
H1946 H 0.94273 0.04239 0.77819 0.0
H1947 H 0.93625 0.03969 0.87068 0.0
C1948 C 0.94201 0.02424 0.62013 0.0
C1949 C 0.95021 1.00551 0.59666 0.0
C1950 C 0.93905 0.02355 0.67396 0.0
C1951 C 0.94412 1.004 0.70575 0.0
C1952 C 0.95245 0.98546 0.68236 0.0
C1953 C 0.95546 0.98622 0.6287 0.0
C1954 C 0.93348 0.97766 0.83868 0.0
C1955 C 0.93307 0.99932 0.87038 0.0
C1956 C 0.93715 0.97921 0.7857 0.0
C1957 C 0.94046 1.00249 0.76267 0.0
C1958 C 0.94012 0.02417 0.7944 0.0
C1959 C 0.93654 0.02259 0.84761 0.0
H1960 H 0.29191 0.96763 0.41684 0.0
H1961 H 0.31219 0.03989 0.42182 0.0
H1962 H 0.28625 0.97136 0.50942 0.0
H1963 H 0.30623 0.04407 0.51428 0.0
H1964 H 0.30767 0.02927 0.69098 0.0
H1965 H 0.31213 0.02786 0.59736 0.0
H1966 H 0.27263 0.99218 0.57247 0.0
H1967 H 0.26859 0.992 0.66642 0.0
C1968 C 0.29496 0.98452 0.43758 0.0
C1969 C 0.30253 1.00342 0.41201 0.0
C1970 C 0.29168 0.98673 0.49075 0.0
C1971 C 0.29578 1.00803 0.5197 0.0
C1972 C 0.30312 0.02718 0.49369 0.0
C1973 C 0.30651 0.02485 0.4406 0.0
C1974 C 0.29997 0.02092 0.66568 0.0
C1975 C 0.28781 1.01056 0.68668 0.0
C1976 C 0.30245 0.02045 0.61168 0.0
C1977 C 0.29278 1.00981 0.57701 0.0
C1978 C 0.28044 1.00015 0.59787 0.0
C1979 C 0.27801 1.00041 0.65191 0.0
H1980 H 0.95352 0.27003 0.40195 0.0
H1981 H 0.91053 0.26053 0.4412 0.0
H1982 H 0.95956 0.2667 0.49449 0.0
H1983 H 0.91652 0.25809 0.53375 0.0
H1984 H 0.93299 0.23178 0.69208 0.0
H1985 H 0.92767 0.23187 0.59869 0.0
H1986 H 0.95749 0.29109 0.57448 0.0
H1987 H 0.96276 0.29111 0.66772 0.0
C1988 C 0.94535 0.26706 0.43021 0.0
C1989 C 0.93152 0.26562 0.4139 0.0
C1990 C 0.94881 0.26545 0.48344 0.0
C1991 C 0.93853 0.26224 0.52184 0.0
C1992 C 0.92473 0.26034 0.5054 0.0
C1993 C 0.92127 0.26203 0.45224 0.0
C1994 C 0.93838 0.24492 0.66695 0.0
C1995 C 0.94832 0.26145 0.68778 0.0
C1996 C 0.93532 0.24496 0.61327 0.0
C1997 C 0.94213 0.2615 0.57882 0.0
C1998 C 0.95219 0.2778 0.59953 0.0
C1999 C 0.95523 0.27779 0.65319 0.0
H2000 H 0.70128 0.72289 0.15214 0.0
H2001 H 0.67351 0.78544 0.17398 0.0
H2002 H 0.70677 0.72354 0.24532 0.0
H2003 H 0.67909 0.7863 0.26704 0.0
H2004 H 0.68125 0.76566 0.43988 0.0
H2005 H 0.67583 0.76387 0.34687 0.0
H2006 H 0.71837 0.74667 0.31233 0.0
H2007 H 0.72366 0.74724 0.40562 0.0
C2008 C 0.69646 0.737 0.17666 0.0
C2009 C 0.68693 0.7541 0.15527 0.0
C2010 C 0.69962 0.73738 0.23028 0.0
C2011 C 0.69337 0.75493 0.26417 0.0
C2012 C 0.68393 0.77217 0.24262 0.0
C2013 C 0.68074 0.77173 0.18905 0.0
C2014 C 0.68944 0.76114 0.41263 0.0
C2015 C 0.70291 0.75659 0.43071 0.0
C2016 C 0.68635 0.76046 0.35898 0.0
C2017 C 0.69665 0.75526 0.32161 0.0
C2018 C 0.71011 0.75052 0.33971 0.0
C2019 C 0.71319 0.75116 0.39339 0.0
H2020 H 0.04575 0.05944 0.16644 0.0
H2021 H 0.06787 0.98919 0.17655 0.0
H2022 H 0.04028 0.0569 0.25941 0.0
H2023 H 0.06221 0.98634 0.26944 0.0
H2024 H 0.06262 1.00316 0.44526 0.0
H2025 H 0.06754 1.00468 0.35186 0.0
H2026 H 0.02701 0.03535 0.3233 0.0
H2027 H 0.0224 0.03524 0.41696 0.0
C2028 C 0.04929 0.04326 0.18837 0.0
C2029 C 0.05728 0.02455 0.16396 0.0
C2030 C 0.04613 0.04176 0.2418 0.0
C2031 C 0.05079 0.02141 0.27231 0.0
C2032 C 0.05864 1.00253 0.24763 0.0
C2033 C 0.06187 1.00412 0.19424 0.0
C2034 C 0.05479 1.01047 0.4192 0.0
C2035 C 0.04212 0.01918 0.43906 0.0
C2036 C 0.05754 1.01102 0.36535 0.0
C2037 C 0.04769 0.02016 0.32967 0.0
C2038 C 0.03494 0.0285 0.34945 0.0
C2039 C 0.03221 0.02809 0.40332 0.0
H2040 H 0.66457 1.00662 0.5938 0.0
H2041 H 0.70639 0.02711 0.63318 0.0
H2042 H 0.67088 1.00444 0.50158 0.0
H2043 H 0.71283 0.02399 0.54095 0.0
H2044 H 0.71459 0.04634 0.36607 0.0
H2045 H 0.70935 0.04621 0.45936 0.0
H2046 H 0.6838 0.98041 0.43826 0.0
H2047 H 0.68907 0.98049 0.34481 0.0
C2048 C 0.67513 1.01062 0.58286 0.0
C2049 C 0.68493 0.01721 0.62116 0.0
C2050 C 0.6788 1.00906 0.52988 0.0
C2051 C 0.69238 0.01405 0.51352 0.0
C2052 C 0.70224 0.02029 0.55189 0.0
C2053 C 0.69857 0.0218 0.60497 0.0
C2054 C 0.70802 0.03157 0.38132 0.0
C2055 C 0.70226 0.01343 0.34755 0.0
C2056 C 0.70501 0.03152 0.43502 0.0
C2057 C 0.69611 0.01335 0.45661 0.0
C2058 C 0.69051 0.99497 0.42301 0.0
C2059 C 0.69354 0.99501 0.36929 0.0
H2060 H 0.06395 0.77446 0.3293 0.0
H2061 H 0.02588 0.73507 0.36092 0.0
H2062 H 0.06943 0.77402 0.42246 0.0
H2063 H 0.03131 0.73492 0.45413 0.0
H2064 H 0.03961 0.75901 0.62415 0.0
H2065 H 0.0338 0.76175 0.53116 0.0
H2066 H 0.07602 0.74482 0.49089 0.0
H2067 H 0.08189 0.7428 0.58357 0.0
C2068 C 0.05676 0.76557 0.35594 0.0
C2069 C 0.04447 0.75474 0.33706 0.0
C2070 C 0.05991 0.76535 0.40957 0.0
C2071 C 0.05084 0.75438 0.44611 0.0
C2072 C 0.03847 0.74386 0.4274 0.0
C2073 C 0.03534 0.74399 0.37373 0.0
C2074 C 0.04769 0.75616 0.59548 0.0
C2075 C 0.06123 0.75064 0.61162 0.0
C2076 C 0.04433 0.75746 0.54205 0.0
C2077 C 0.05442 0.75347 0.50322 0.0
C2078 C 0.06798 0.74826 0.51946 0.0
C2079 C 0.07133 0.74682 0.57278 0.0
H2080 H 0.27468 0.79091 0.11156 0.0
H2081 H 0.30007 0.72451 0.09798 0.0
H2082 H 0.27937 0.7926 0.20514 0.0
H2083 H 0.30514 0.72671 0.19168 0.0
H2084 H 0.30128 0.72644 0.37187 0.0
H2085 H 0.29469 0.72237 0.27967 0.0
H2086 H 0.2991 0.80268 0.26025 0.0
H2087 H 0.3053 0.8068 0.35225 0.0
C2088 C 0.28115 0.77649 0.12858 0.0
C2089 C 0.28698 0.75755 0.09707 0.0
C2090 C 0.28398 0.77765 0.18223 0.0
C2091 C 0.29271 0.75991 0.20595 0.0
C2092 C 0.2983 0.74059 0.17477 0.0
C2093 C 0.2955 0.73948 0.12094 0.0
C2094 C 0.3007 0.74323 0.34798 0.0
C2095 C 0.30387 0.76693 0.36943 0.0
C2096 C 0.29706 0.74087 0.29505 0.0
C2097 C 0.29637 0.76219 0.2625 0.0
C2098 C 0.29938 0.78589 0.28423 0.0
C2099 C 0.3031 0.78822 0.3369 0.0
H2100 H 0.91707 0.46611 0.34562 0.0
H2101 H 0.9506 0.51741 0.37737 0.0
H2102 H 0.92231 0.46792 0.25246 0.0
H2103 H 0.95624 0.51834 0.28429 0.0
H2104 H 0.95315 0.53544 0.10856 0.0
H2105 H 0.94788 0.53398 0.20191 0.0
H2106 H 0.93896 0.45457 0.18901 0.0
H2107 H 0.9441 0.45613 0.09557 0.0
C2108 C 0.92555 0.47784 0.3328 0.0
C2109 C 0.93335 0.49172 0.36927 0.0
C2110 C 0.92868 0.47861 0.27927 0.0
C2111 C 0.93972 0.49326 0.26056 0.0
C2112 C 0.94756 0.50707 0.29704 0.0
C2113 C 0.94443 0.5063 0.35063 0.0
C2114 C 0.95015 0.51762 0.1257 0.0
C2115 C 0.94905 0.4959 0.09439 0.0
C2116 C 0.94715 0.51676 0.17936 0.0
C2117 C 0.94299 0.49415 0.20329 0.0
C2118 C 0.9419 0.47243 0.17193 0.0
C2119 C 0.94486 0.4733 0.11824 0.0
H2120 H 0.32499 0.5095 0.93421 0.0
H2121 H 0.28225 0.49649 0.89529 0.0
H2122 H 0.31891 0.51253 0.02651 0.0
H2123 H 0.27608 0.50057 0.98759 0.0
H2124 H 0.2734 0.47771 0.16183 0.0
H2125 H 0.27849 0.47743 0.06844 0.0
H2126 H 0.3074 0.53837 0.09042 0.0
H2127 H 0.30231 0.53863 0.18401 0.0
C2128 C 0.31428 0.50735 0.94527 0.0
C2129 C 0.30414 0.50254 0.90712 0.0
C2130 C 0.31076 0.50942 0.99828 0.0
C2131 C 0.297 0.50677 0.01475 0.0
C2132 C 0.28681 0.50241 0.97651 0.0
C2133 C 0.29033 0.50036 0.92342 0.0
C2134 C 0.28069 0.49132 0.14673 0.0
C2135 C 0.28745 0.50817 0.1807 0.0
C2136 C 0.28362 0.49116 0.09301 0.0
C2137 C 0.29339 0.50783 0.07167 0.0
C2138 C 0.29999 0.52496 0.1055 0.0
C2139 C 0.29707 0.52512 0.15926 0.0
H2140 H 0.91013 0.75521 0.9387 0.0
H2141 H 0.95232 0.77314 0.8996 0.0
H2142 H 0.91634 0.75274 0.03099 0.0
H2143 H 0.95864 0.76978 0.99189 0.0
H2144 H 0.96055 0.7925 0.16666 0.0
H2145 H 0.95535 0.79253 0.07337 0.0
H2146 H 0.92893 0.7279 0.09432 0.0
H2147 H 0.93419 0.72775 0.18776 0.0
C2148 C 0.92075 0.75858 0.94972 0.0
C2149 C 0.93069 0.76454 0.91149 0.0
C2150 C 0.92436 0.75685 1.00273 0.0
C2151 C 0.93801 0.76108 0.01916 0.0
C2152 C 0.948 0.76668 0.98086 0.0
C2153 C 0.9444 0.76833 0.92776 0.0
C2154 C 0.95381 0.778 0.15139 0.0
C2155 C 0.9478 0.76012 0.18511 0.0
C2156 C 0.95081 0.77805 0.0977 0.0
C2157 C 0.94168 0.76026 0.07607 0.0
C2158 C 0.93583 0.74215 0.10962 0.0
C2159 C 0.93885 0.74207 0.16333 0.0
H2160 H 0.68098 0.21279 0.67934 0.0
H2161 H 0.68677 0.29285 0.66086 0.0
H2162 H 0.68708 0.21621 0.77161 0.0
H2163 H 0.69323 0.2962 0.75328 0.0
H2164 H 0.68787 0.29438 0.93473 0.0
H2165 H 0.68266 0.29248 0.84109 0.0
H2166 H 0.7069 0.2247 0.8275 0.0
H2167 H 0.71176 0.22616 0.92102 0.0
C2168 C 0.68355 0.23115 0.69498 0.0
C2169 C 0.68331 0.25256 0.66263 0.0
C2170 C 0.6872 0.23308 0.74784 0.0
C2171 C 0.69068 0.25648 0.76999 0.0
C2172 C 0.69051 0.27791 0.73764 0.0
C2173 C 0.68694 0.27596 0.68454 0.0
C2174 C 0.69206 0.27905 0.91176 0.0
C2175 C 0.70023 0.26042 0.9356 0.0
C2176 C 0.68919 0.2781 0.85795 0.0
C2177 C 0.69432 0.25838 0.8267 0.0
C2178 C 0.70264 0.23999 0.85042 0.0
C2179 C 0.70557 0.24101 0.90405 0.0
H2180 H 0.048 0.5641 0.93139 0.0
H2181 H 0.03924 0.48452 0.92445 0.0
H2182 H 0.05352 0.564 0.83834 0.0
H2183 H 0.04464 0.48441 0.83098 0.0
H2184 H 0.06831 0.48892 0.67517 0.0
H2185 H 0.06315 0.48841 0.7687 0.0
H2186 H 0.04289 0.5604 0.75422 0.0
H2187 H 0.04857 0.56141 0.66139 0.0
C2188 C 0.04713 0.5466 0.90989 0.0
C2189 C 0.0431 0.52434 0.9355 0.0
C2190 C 0.05028 0.54653 0.85637 0.0
C2191 C 0.04947 0.52423 0.82676 0.0
C2192 C 0.04557 0.5019 0.8525 0.0
C2193 C 0.04245 0.50195 0.90617 0.0
C2194 C 0.06287 0.50476 0.692 0.0
C2195 C 0.0589 0.52523 0.66048 0.0
C2196 C 0.05975 0.50433 0.74565 0.0
C2197 C 0.05261 0.52438 0.76934 0.0
C2198 C 0.04856 0.54475 0.73769 0.0
C2199 C 0.05167 0.54518 0.68412 0.0
H2200 H 0.65766 0.52054 0.07905 0.0
H2201 H 0.70082 0.51981 0.12012 0.0
H2202 H 0.66372 0.51788 0.9865 0.0
H2203 H 0.7069 0.51653 0.02742 0.0
H2204 H 0.71165 0.54309 0.85517 0.0
H2205 H 0.70636 0.54279 0.94845 0.0
H2206 H 0.67352 0.48955 0.92091 0.0
H2207 H 0.67891 0.48954 0.82759 0.0
C2208 C 0.66845 0.51974 0.06836 0.0
C2209 C 0.67874 0.52051 0.10719 0.0
C2210 C 0.67193 0.51795 0.01523 0.0
C2211 C 0.68581 0.51702 0.9993 0.0
C2212 C 0.69611 0.51746 0.03815 0.0
C2213 C 0.69262 0.51908 0.09139 0.0
C2214 C 0.70344 0.53097 0.86893 0.0
C2215 C 0.69572 0.51637 0.8334 0.0
C2216 C 0.70039 0.53084 0.92261 0.0
C2217 C 0.68948 0.51621 0.94238 0.0
C2218 C 0.68186 0.50136 0.90704 0.0
C2219 C 0.68495 0.50139 0.85339 0.0
H2220 H 0.05332 0.28936 0.84547 0.0
H2221 H 0.02492 0.22761 0.86783 0.0
H2222 H 0.05814 0.28971 0.93945 0.0
H2223 H 0.02993 0.22775 0.96125 0.0
H2224 H 0.05635 0.21405 0.10791 0.0
H2225 H 0.04996 0.21663 0.01582 0.0
H2226 H 0.04769 0.29756 0.02785 0.0
H2227 H 0.05434 0.29498 0.12032 0.0
C2228 C 0.04796 0.27608 0.87038 0.0
C2229 C 0.03884 0.25826 0.84873 0.0
C2230 C 0.05074 0.27627 0.9243 0.0
C2231 C 0.04453 0.25858 0.95782 0.0
C2232 C 0.0351 0.24131 0.93642 0.0
C2233 C 0.03226 0.24121 0.88273 0.0
C2234 C 0.05455 0.23242 0.09094 0.0
C2235 C 0.05594 0.25431 0.12147 0.0
C2236 C 0.05075 0.23389 0.03823 0.0
C2237 C 0.04828 0.2573 1.01442 0.0
C2238 C 0.0496 0.27925 0.04491 0.0
C2239 C 0.0533 0.27776 0.09796 0.0
H2240 H 0.80509 0.23336 0.08709 0.0
H2241 H 0.77825 0.29725 0.10962 0.0
H2242 H 0.81038 0.23331 0.18049 0.0
H2243 H 0.7835 0.29712 0.20288 0.0
H2244 H 0.78682 0.27737 0.37638 0.0
H2245 H 0.78046 0.27422 0.28406 0.0
H2246 H 0.82281 0.25803 0.24434 0.0
H2247 H 0.82905 0.26027 0.33662 0.0
C2248 C 0.80033 0.24746 0.11182 0.0
C2249 C 0.79123 0.26532 0.09043 0.0
C2250 C 0.80338 0.24743 0.16553 0.0
C2251 C 0.79741 0.26525 0.19949 0.0
C2252 C 0.78814 0.28285 0.17825 0.0
C2253 C 0.78511 0.28291 0.12456 0.0
C2254 C 0.79474 0.27279 0.34806 0.0
C2255 C 0.80847 0.26917 0.36418 0.0
C2256 C 0.79112 0.27127 0.29494 0.0
C2257 C 0.80111 0.26596 0.25644 0.0
C2258 C 0.81479 0.26191 0.27272 0.0
C2259 C 0.81841 0.26351 0.32575 0.0
H2260 H 0.43817 0.95922 0.36896 0.0
H2261 H 0.42606 0.03736 0.36728 0.0
H2262 H 0.44298 0.96114 0.27532 0.0
H2263 H 0.43122 0.03947 0.2736 0.0
H2264 H 0.42747 0.02555 0.09554 0.0
H2265 H 0.42252 0.02383 0.18932 0.0
H2266 H 0.45919 0.9794 0.21357 0.0
H2267 H 0.46392 0.98047 0.11983 0.0
C2268 C 0.43652 0.97684 0.34861 0.0
C2269 C 0.43167 0.99811 0.37579 0.0
C2270 C 0.43942 0.978 0.29491 0.0
C2271 C 0.43749 1.00045 0.26669 0.0
C2272 C 0.43269 0.02179 0.29388 0.0
C2273 C 0.42988 0.02066 0.34776 0.0
C2274 C 0.43441 0.01521 0.12078 0.0
C2275 C 0.4461 1.00315 0.09989 0.0
C2276 C 0.43166 0.01447 0.17472 0.0
C2277 C 0.44046 1.00152 0.20921 0.0
C2278 C 0.45211 0.98937 0.18825 0.0
C2279 C 0.4549 0.9902 0.13443 0.0
H2280 H 0.81677 0.96512 0.9288 0.0
H2281 H 0.79727 0.03719 0.90476 0.0
H2282 H 0.81103 0.96705 0.02152 0.0
H2283 H 0.79152 0.03916 0.99783 0.0
H2284 H 0.77214 0.02234 0.15906 0.0
H2285 H 0.77727 0.02057 0.0655 0.0
H2286 H 0.81732 0.98927 0.09991 0.0
H2287 H 0.81199 0.99009 0.19305 0.0
C2288 C 0.81135 0.98151 0.94332 0.0
C2289 C 0.80759 1.00108 0.9091 0.0
C2290 C 0.80806 0.98263 0.99667 0.0
C2291 C 0.80089 1.00336 0.01753 0.0
C2292 C 0.79692 0.02277 0.9832 0.0
C2293 C 0.80022 0.02164 0.92972 0.0
C2294 C 0.78201 0.01491 0.14668 0.0
C2295 C 0.79163 1.00634 0.18389 0.0
C2296 C 0.78502 0.01415 0.09294 0.0
C2297 C 0.79771 1.00471 0.07487 0.0
C2298 C 0.80736 0.99635 0.11214 0.0
C2299 C 0.80437 0.99715 0.16579 0.0
H2300 H 0.41381 0.30422 0.93894 0.0
H2301 H 0.45077 0.26198 0.90481 0.0
H2302 H 0.41916 0.30259 0.03202 0.0
H2303 H 0.45647 0.26146 0.99771 0.0
H2304 H 0.45482 0.24088 0.17128 0.0
H2305 H 0.44944 0.2427 0.07828 0.0
H2306 H 0.43444 0.31866 0.09754 0.0
H2307 H 0.4397 0.31667 0.191 0.0
C2308 C 0.42308 0.29454 0.95119 0.0
C2309 C 0.4318 0.2831 0.91404 0.0
C2310 C 0.42625 0.29392 1.0047 0.0
C2311 C 0.43826 0.2819 0.02273 0.0
C2312 C 0.44704 0.27062 0.98555 0.0
C2313 C 0.44385 0.27119 0.93202 0.0
C2314 C 0.45049 0.25808 0.15566 0.0
C2315 C 0.44776 0.27868 0.18876 0.0
C2316 C 0.44741 0.25914 0.10214 0.0
C2317 C 0.44154 0.28087 0.08 0.0
C2318 C 0.43877 0.30147 0.11316 0.0
C2319 C 0.44181 0.30036 0.16683 0.0
H2320 H 0.21919 0.78323 0.91316 0.0
H2321 H 0.18202 0.74147 0.94655 0.0
H2322 H 0.21345 0.78296 0.81989 0.0
H2323 H 0.17647 0.74069 0.8534 0.0
H2324 H 0.16297 0.76832 0.69184 0.0
H2325 H 0.16914 0.76946 0.78421 0.0
H2326 H 0.21156 0.75426 0.7443 0.0
H2327 H 0.20537 0.7527 0.65165 0.0
C2328 C 0.20978 0.77402 0.90067 0.0
C2329 C 0.20106 0.76242 0.93757 0.0
C2330 C 0.20656 0.77365 0.84707 0.0
C2331 C 0.19447 0.76187 0.82895 0.0
C2332 C 0.18578 0.75021 0.86588 0.0
C2333 C 0.18905 0.75042 0.91934 0.0
C2334 C 0.17361 0.76497 0.70256 0.0
C2335 C 0.18362 0.76022 0.66384 0.0
C2336 C 0.17715 0.76566 0.75573 0.0
C2337 C 0.19084 0.76179 0.77195 0.0
C2338 C 0.20093 0.75757 0.7333 0.0
C2339 C 0.19737 0.75673 0.68002 0.0
H2340 H 0.58263 0.03453 0.69753 0.0
H2341 H 0.53979 0.02064 0.66187 0.0
H2342 H 0.57746 0.03271 0.79077 0.0
H2343 H 0.53471 0.01779 0.75531 0.0
H2344 H 0.52771 0.04147 0.92639 0.0
H2345 H 0.53282 0.04318 0.833 0.0
H2346 H 0.57131 1.00464 0.86029 0.0
H2347 H 0.5662 1.00296 0.95373 0.0
C2348 C 0.57209 0.03109 0.70947 0.0
C2349 C 0.56164 0.02788 0.67173 0.0
C2350 C 0.56914 0.02973 0.76319 0.0
C2351 C 0.55564 0.0251 0.78104 0.0
C2352 C 0.5452 0.02169 0.74332 0.0
C2353 C 0.54815 0.02302 0.68952 0.0
C2354 C 0.53723 0.03316 0.91255 0.0
C2355 C 0.54652 0.02205 0.94804 0.0
C2356 C 0.54016 0.03412 0.85874 0.0
C2357 C 0.55249 0.02401 0.83862 0.0
C2358 C 0.56181 0.01299 0.87415 0.0
C2359 C 0.55888 0.01204 0.92797 0.0
H2360 H 0.21364 0.98989 0.86625 0.0
H2361 H 0.18313 0.04781 0.84266 0.0
H2362 H 0.20826 0.98931 0.95982 0.0
H2363 H 0.17795 0.04773 0.93588 0.0
H2364 H 0.16162 0.02502 0.09427 0.0
H2365 H 0.16717 0.0233 1.00158 0.0
H2366 H 0.21019 0.01286 0.03944 0.0
H2367 H 0.2045 0.01315 0.13247 0.0
C2368 C 0.20586 1.00262 0.88114 0.0
C2369 C 0.19873 0.01874 0.84695 0.0
C2370 C 0.20279 1.00237 0.93482 0.0
C2371 C 0.19259 0.01837 0.95563 0.0
C2372 C 0.18563 0.0347 0.92131 0.0
C2373 C 0.18861 0.03481 0.86775 0.0
C2374 C 0.17224 0.02192 0.08299 0.0
C2375 C 0.18259 0.01918 0.12115 0.0
C2376 C 0.17547 0.02131 0.02963 0.0
C2377 C 0.18917 0.01813 1.01271 0.0
C2378 C 0.19952 0.01513 0.05083 0.0
C2379 C 0.19627 0.01563 0.10431 0.0
H2380 H 0.56823 0.75035 0.82601 0.0
H2381 H 0.52461 0.74857 0.85976 0.0
H2382 H 0.57322 0.74816 0.9195 0.0
H2383 H 0.52959 0.74756 0.95315 0.0
H2384 H 0.54329 0.71993 0.11481 0.0
H2385 H 0.53829 0.72125 0.02132 0.0
H2386 H 0.57225 0.77268 0.99832 0.0
H2387 H 0.57728 0.77124 0.0918 0.0
C2388 C 0.55969 0.74942 0.85325 0.0
C2389 C 0.546 0.74967 0.83495 0.0
C2390 C 0.56256 0.7485 0.90708 0.0
C2391 C 0.55183 0.74778 0.94428 0.0
C2392 C 0.53815 0.74784 0.92592 0.0
C2393 C 0.53528 0.74875 0.87214 0.0
C2394 C 0.54961 0.73174 0.08997 0.0
C2395 C 0.56071 0.74546 0.11116 0.0
C2396 C 0.54675 0.73249 0.03615 0.0
C2397 C 0.55487 0.74703 1.00185 0.0
C2398 C 0.56591 0.76089 0.02314 0.0
C2399 C 0.56879 0.7601 0.07694 0.0
H2400 H 0.77615 0.79958 0.61156 0.0
H2401 H 0.80359 0.73658 0.58881 0.0
H2402 H 0.7813 0.7994 0.7049 0.0
H2403 H 0.80874 0.73638 0.68232 0.0
H2404 H 0.82696 0.76324 0.83896 0.0
H2405 H 0.82085 0.76103 0.74661 0.0
H2406 H 0.77837 0.77646 0.78566 0.0
H2407 H 0.7846 0.77972 0.87801 0.0
C2408 C 0.78313 0.78543 0.6265 0.0
C2409 C 0.78946 0.76812 0.59235 0.0
C2410 C 0.78609 0.78533 0.68022 0.0
C2411 C 0.79548 0.76792 0.70141 0.0
C2412 C 0.80165 0.75036 0.66739 0.0
C2413 C 0.79869 0.75046 0.61365 0.0
C2414 C 0.81633 0.76634 0.82793 0.0
C2415 C 0.80631 0.77185 0.86618 0.0
C2416 C 0.81278 0.76474 0.77487 0.0
C2417 C 0.7991 0.76859 0.75838 0.0
C2418 C 0.78903 0.77369 0.7967 0.0
C2419 C 0.79259 0.77526 0.84985 0.0
H2420 H 0.45312 0.49684 0.8767 0.0
H2421 H 0.41156 0.51924 0.83817 0.0
H2422 H 0.45958 0.50036 0.7846 0.0
H2423 H 0.41787 0.52177 0.74603 0.0
H2424 H 0.43619 0.54505 0.5894 0.0
H2425 H 0.43115 0.54546 0.68306 0.0
H2426 H 0.45557 0.47825 0.70311 0.0
H2427 H 0.46059 0.47783 0.60969 0.0
C2428 C 0.44537 0.50268 0.84871 0.0
C2429 C 0.43178 0.50763 0.86501 0.0
C2430 C 0.44905 0.50442 0.79573 0.0
C2431 C 0.43924 0.51123 0.75765 0.0
C2432 C 0.42574 0.5167 0.77416 0.0
C2433 C 0.42206 0.51493 0.82705 0.0
C2434 C 0.44046 0.53032 0.61375 0.0
C2435 C 0.44879 0.51139 0.59176 0.0
C2436 C 0.43757 0.53055 0.66753 0.0
C2437 C 0.44292 0.51185 0.70081 0.0
C2438 C 0.45144 0.49319 0.67896 0.0
C2439 C 0.45433 0.49296 0.62522 0.0
H2440 H 0.8325 0.50397 0.44022 0.0
H2441 H 0.7896 0.48963 0.40679 0.0
H2442 H 0.82728 0.50633 0.53338 0.0
H2443 H 0.78436 0.49166 0.50018 0.0
H2444 H 0.77728 0.52099 0.66659 0.0
H2445 H 0.78244 0.51893 0.57342 0.0
H2446 H 0.82107 0.48218 0.60778 0.0
H2447 H 0.81625 0.48547 0.70116 0.0
C2448 C 0.82195 0.50107 0.45273 0.0
C2449 C 0.81149 0.49654 0.41565 0.0
C2450 C 0.81894 0.50237 0.50641 0.0
C2451 C 0.80538 0.49909 0.5249 0.0
C2452 C 0.7949 0.49467 0.48774 0.0
C2453 C 0.79791 0.49348 0.43396 0.0
C2454 C 0.78697 0.51273 0.65449 0.0
C2455 C 0.79636 0.50355 0.69198 0.0
C2456 C 0.78985 0.51122 0.6007 0.0
C2457 C 0.8022 0.50039 0.5825 0.0
C2458 C 0.81154 0.49099 0.61997 0.0
C2459 C 0.80867 0.49256 0.67379 0.0
H2460 H 0.46522 0.79236 0.66327 0.0
H2461 H 0.43113 0.74169 0.69053 0.0
H2462 H 0.46004 0.7924 0.56998 0.0
H2463 H 0.42607 0.74152 0.59683 0.0
H2464 H 0.4283 0.73111 0.41742 0.0
H2465 H 0.43472 0.7285 0.51 0.0
H2466 H 0.4422 0.80859 0.51221 0.0
H2467 H 0.43615 0.81108 0.41983 0.0
C2468 C 0.45657 0.78129 0.64953 0.0
C2469 C 0.44853 0.76722 0.68491 0.0
C2470 C 0.45362 0.78128 0.59584 0.0
C2471 C 0.44256 0.76712 0.57572 0.0
C2472 C 0.43474 0.75248 0.61078 0.0
C2473 C 0.43766 0.75256 0.66463 0.0
C2474 C 0.43145 0.74811 0.43756 0.0
C2475 C 0.43164 0.77132 0.41106 0.0
C2476 C 0.43501 0.74665 0.4908 0.0
C2477 C 0.43898 0.76833 0.51876 0.0
C2478 C 0.43934 0.79145 0.49197 0.0
C2479 C 0.43571 0.79292 0.439 0.0
H2480 H 0.1925 0.21459 0.16107 0.0
H2481 H 0.17562 0.28968 0.16656 0.0
H2482 H 0.19724 0.21656 0.25478 0.0
H2483 H 0.18071 0.29193 0.2602 0.0
H2484 H 0.17793 0.27602 0.43718 0.0
H2485 H 0.17306 0.27393 0.34343 0.0
H2486 H 0.2122 0.23733 0.31754 0.0
H2487 H 0.21685 0.23865 0.4113 0.0
C2488 C 0.1898 0.23154 0.18227 0.0
C2489 C 0.18363 0.25194 0.15618 0.0
C2490 C 0.19264 0.23277 0.236 0.0
C2491 C 0.18935 0.2544 0.26525 0.0
C2492 C 0.18325 0.27487 0.23911 0.0
C2493 C 0.18047 0.27369 0.18525 0.0
C2494 C 0.18543 0.26728 0.41159 0.0
C2495 C 0.19779 0.25751 0.43203 0.0
C2496 C 0.18272 0.26636 0.35768 0.0
C2497 C 0.19225 0.25552 0.32273 0.0
C2498 C 0.20456 0.24562 0.34322 0.0
C2499 C 0.20729 0.24662 0.39705 0.0
H2500 H 0.56193 0.50043 0.44696 0.0
H2501 H 0.52458 0.5426 0.42051 0.0
H2502 H 0.56701 0.50184 0.35353 0.0
H2503 H 0.52972 0.54429 0.32715 0.0
H2504 H 0.53594 0.52287 0.15535 0.0
H2505 H 0.53077 0.52033 0.24864 0.0
H2506 H 0.57407 0.52829 0.28413 0.0
H2507 H 0.57931 0.52943 0.19106 0.0
C2508 C 0.55486 0.51027 0.42136 0.0
C2509 C 0.54282 0.52138 0.44168 0.0
C2510 C 0.55778 0.5111 0.36751 0.0
C2511 C 0.5488 0.52318 0.33218 0.0
C2512 C 0.53679 0.5344 0.35262 0.0
C2513 C 0.53384 0.53348 0.40643 0.0
C2514 C 0.5444 0.52375 0.18293 0.0
C2515 C 0.55807 0.5264 0.16508 0.0
C2516 C 0.5414 0.52264 0.23674 0.0
C2517 C 0.55197 0.52417 0.27452 0.0
C2518 C 0.56563 0.52674 0.25661 0.0
C2519 C 0.56863 0.52777 0.20288 0.0
H2520 H 0.18414 0.4883 0.33409 0.0
H2521 H 0.21367 0.548 0.35802 0.0
H2522 H 0.17879 0.48844 0.42731 0.0
H2523 H 0.20818 0.54847 0.45125 0.0
H2524 H 0.20405 0.52898 0.62446 0.0
H2525 H 0.21017 0.5265 0.53198 0.0
H2526 H 0.16757 0.51191 0.49317 0.0
H2527 H 0.16161 0.51296 0.58557 0.0
C2528 C 0.18941 0.50165 0.35915 0.0
C2529 C 0.19932 0.51819 0.33823 0.0
C2530 C 0.18632 0.50176 0.41283 0.0
C2531 C 0.19299 0.51853 0.44733 0.0
C2532 C 0.20297 0.53498 0.42638 0.0
C2533 C 0.2061 0.53477 0.3727 0.0
C2534 C 0.19601 0.52483 0.59636 0.0
C2535 C 0.1823 0.52123 0.61299 0.0
C2536 C 0.19949 0.52377 0.543 0.0
C2537 C 0.18939 0.51911 0.50456 0.0
C2538 C 0.17571 0.51526 0.5213 0.0
C2539 C 0.17224 0.51622 0.57457 0.0
H2540 H 0.56207 0.27145 0.33307 0.0
H2541 H 0.52533 0.22726 0.35854 0.0
H2542 H 0.56712 0.26993 0.42652 0.0
H2543 H 0.53043 0.22548 0.45191 0.0
H2544 H 0.53622 0.24655 0.62403 0.0
H2545 H 0.53108 0.24928 0.53075 0.0
H2546 H 0.5745 0.24346 0.49546 0.0
H2547 H 0.57968 0.24214 0.58854 0.0
C2548 C 0.55514 0.26115 0.35846 0.0
C2549 C 0.54328 0.2495 0.33788 0.0
C2550 C 0.55804 0.26026 0.4123 0.0
C2551 C 0.5492 0.24759 0.44735 0.0
C2552 C 0.53737 0.23583 0.42665 0.0
C2553 C 0.53445 0.2368 0.37284 0.0
C2554 C 0.54471 0.24619 0.5965 0.0
C2555 C 0.55839 0.24407 0.61439 0.0
C2556 C 0.54174 0.24741 0.5427 0.0
C2557 C 0.55235 0.24652 0.50499 0.0
C2558 C 0.56602 0.24451 0.52295 0.0
C2559 C 0.56899 0.24337 0.57666 0.0
H2560 H 0.28212 0.42756 0.48931 0.0
H2561 H 0.32556 0.4369 0.46047 0.0
H2562 H 0.28149 0.39256 0.42646 0.0
H2563 H 0.32492 0.40359 0.39576 0.0
H2564 H 0.3258 0.32826 0.32048 0.0
H2565 H 0.32461 0.36162 0.38494 0.0
H2566 H 0.28212 0.37537 0.34258 0.0
H2567 H 0.28323 0.34031 0.27999 0.0
C2568 C 0.29148 0.42238 0.46891 0.0
C2569 C 0.30393 0.43483 0.48046 0.0
C2570 C 0.29116 0.4023 0.43256 0.0
C2571 C 0.30323 0.39442 0.40608 0.0
C2572 C 0.31547 0.40797 0.41628 0.0
C2573 C 0.31584 0.42748 0.45322 0.0
C2574 C 0.31616 0.3383 0.32508 0.0
C2575 C 0.30466 0.33169 0.29468 0.0
C2576 C 0.31548 0.35784 0.3619 0.0
C2577 C 0.30336 0.37215 0.3688 0.0
C2578 C 0.29167 0.36503 0.33909 0.0
C2579 C 0.29229 0.34492 0.30286 0.0
H2580 H 0.95226 0.83037 0.47295 0.0
H2581 H 0.90921 0.84611 0.49811 0.0
H2582 H 0.95314 0.86307 0.4055 0.0
H2583 H 0.91023 0.87995 0.43505 0.0
H2584 H 0.90968 0.92415 0.28693 0.0
H2585 H 0.91018 0.89044 0.35028 0.0
H2586 H 0.95355 0.90418 0.37694 0.0
H2587 H 0.95316 0.93676 0.30913 0.0
C2588 C 0.94297 0.84079 0.46411 0.0
C2589 C 0.93056 0.83495 0.49007 0.0
C2590 C 0.94349 0.85994 0.42574 0.0
C2591 C 0.93168 0.87433 0.41306 0.0
C2592 C 0.91949 0.86902 0.44121 0.0
C2593 C 0.91891 0.84961 0.47837 0.0
C2594 C 0.91938 0.92 0.3061 0.0
C2595 C 0.93131 0.93374 0.29343 0.0
C2596 C 0.91965 0.90066 0.34344 0.0
C2597 C 0.93183 0.89451 0.37084 0.0
C2598 C 0.9439 0.90799 0.35729 0.0
C2599 C 0.94367 0.92708 0.31872 0.0
H2600 H 0.32576 0.92088 0.99875 0.0
H2601 H 0.28268 0.93658 0.97378 0.0
H2602 H 0.32485 0.88751 0.9344 0.0
H2603 H 0.2819 0.90394 0.90567 0.0
H2604 H 0.283 0.82834 0.81235 0.0
H2605 H 0.28218 0.86099 0.88046 0.0
H2606 H 0.32455 0.88015 0.84646 0.0
H2607 H 0.32553 0.84682 0.78207 0.0
C2608 C 0.31607 0.91743 0.97892 0.0
C2609 C 0.30437 0.93193 0.99094 0.0
C2610 C 0.31557 0.8983 0.9412 0.0
C2611 C 0.30338 0.89306 0.91309 0.0
C2612 C 0.29152 0.9072 0.92603 0.0
C2613 C 0.29199 0.92623 0.96473 0.0
C2614 C 0.29217 0.83933 0.82017 0.0
C2615 C 0.30443 0.83441 0.79247 0.0
C2616 C 0.29167 0.85835 0.85891 0.0
C2617 C 0.30338 0.87324 0.87039 0.0
C2618 C 0.31541 0.86877 0.84081 0.0
C2619 C 0.31595 0.84966 0.80306 0.0
H2620 H 0.95633 0.42683 0.7905 0.0
H2621 H 0.91342 0.43951 0.82457 0.0
H2622 H 0.95675 0.39232 0.85426 0.0
H2623 H 0.9139 0.40667 0.89029 0.0
H2624 H 0.91211 0.33146 0.96679 0.0
H2625 H 0.91335 0.36484 0.90253 0.0
H2626 H 0.95656 0.37538 0.93802 0.0
H2627 H 0.95534 0.34033 1.00043 0.0
C2628 C 0.94704 0.42251 0.81228 0.0
C2629 C 0.93479 0.43573 0.80188 0.0
C2630 C 0.94726 0.40269 0.84919 0.0
C2631 C 0.93527 0.39586 0.87745 0.0
C2632 C 0.92326 0.41021 0.86845 0.0
C2633 C 0.92298 0.42946 0.83091 0.0
C2634 C 0.92191 0.34081 0.96077 0.0
C2635 C 0.93359 0.33324 0.98915 0.0
C2636 C 0.92263 0.36037 0.92405 0.0
C2637 C 0.93499 0.37375 0.91514 0.0
C2638 C 0.94681 0.36576 0.94301 0.0
C2639 C 0.94614 0.34565 0.97916 0.0
H2640 H 0.6715 0.662 0.76925 0.0
H2641 H 0.69966 0.70512 0.67437 0.0
H2642 H 0.67097 0.62909 0.70268 0.0
H2643 H 0.69928 0.67181 0.60742 0.0
H2644 H 0.65987 0.59175 0.54575 0.0
H2645 H 0.66185 0.62478 0.6116 0.0
H2646 H 0.70604 0.6249 0.59277 0.0
H2647 H 0.70403 0.59128 0.52657 0.0
C2648 C 0.67764 0.66447 0.73418 0.0
C2649 C 0.68563 0.68634 0.72736 0.0
C2650 C 0.6773 0.64555 0.69581 0.0
C2651 C 0.68506 0.64767 0.64939 0.0
C2652 C 0.69326 0.66938 0.64279 0.0
C2653 C 0.69344 0.68856 0.6811 0.0
C2654 C 0.67004 0.59872 0.55558 0.0
C2655 C 0.68179 0.58871 0.53087 0.0
C2656 C 0.67118 0.61767 0.59364 0.0
C2657 C 0.68411 0.6276 0.60785 0.0
C2658 C 0.69591 0.61784 0.58267 0.0
C2659 C 0.69477 0.59847 0.54496 0.0
H2660 H 0.03564 0.09636 0.74741 0.0
H2661 H 0.07874 0.08561 0.71411 0.0
H2662 H 0.03484 0.13086 0.68371 0.0
H2663 H 0.07791 0.11843 0.64845 0.0
H2664 H 0.07861 0.19279 0.56767 0.0
H2665 H 0.07794 0.15986 0.63312 0.0
H2666 H 0.0347 0.14774 0.60043 0.0
H2667 H 0.03535 0.18232 0.53688 0.0
C2668 C 0.0449 0.10113 0.7259 0.0
C2669 C 0.0573 0.08835 0.73642 0.0
C2670 C 0.04447 0.12095 0.68895 0.0
C2671 C 0.05638 0.12828 0.66066 0.0
C2672 C 0.06858 0.11451 0.67013 0.0
C2673 C 0.06906 0.09525 0.7077 0.0
C2674 C 0.06892 0.18317 0.57455 0.0
C2675 C 0.05707 0.1902 0.5466 0.0
C2676 C 0.06854 0.16386 0.61201 0.0
C2677 C 0.05633 0.15016 0.62218 0.0
C2678 C 0.04434 0.15759 0.59463 0.0
C2679 C 0.04469 0.17744 0.55774 0.0
H2680 H 0.70559 0.08417 0.0589 0.0
H2681 H 0.66219 0.09734 0.03596 0.0
H2682 H 0.70606 0.11689 0.12671 0.0
H2683 H 0.66277 0.13102 0.09961 0.0
H2684 H 0.66184 0.17371 0.24956 0.0
H2685 H 0.66296 0.14015 0.18578 0.0
H2686 H 0.70553 0.15877 0.15397 0.0
H2687 H 0.70458 0.19139 0.22191 0.0
C2688 C 0.69614 0.09401 0.06831 0.0
C2689 C 0.68377 0.0875 0.04283 0.0
C2690 C 0.69643 0.11313 0.10687 0.0
C2691 C 0.68438 0.1267 0.12028 0.0
C2692 C 0.6722 0.12071 0.09271 0.0
C2693 C 0.67189 0.10139 0.05528 0.0
C2694 C 0.67149 0.17068 0.22918 0.0
C2695 C 0.68302 0.18579 0.24037 0.0
C2696 C 0.67211 0.15143 0.19167 0.0
C2697 C 0.68424 0.14672 0.16276 0.0
C2698 C 0.69595 0.16152 0.17488 0.0
C2699 C 0.69538 0.18058 0.21352 0.0
H2700 H 0.03737 0.67902 0.02691 0.0
H2701 H 0.0801 0.69165 0.06431 0.0
H2702 H 0.03647 0.64489 0.09156 0.0
H2703 H 0.07914 0.65912 0.13062 0.0
H2704 H 0.07994 0.58472 0.21165 0.0
H2705 H 0.07938 0.61737 0.14547 0.0
H2706 H 0.03605 0.62925 0.17651 0.0
H2707 H 0.0366 0.59509 0.24104 0.0
C2708 C 0.04652 0.67473 0.04947 0.0
C2709 C 0.05885 0.68793 0.03989 0.0
C2710 C 0.04602 0.65515 0.08693 0.0
C2711 C 0.0578 0.64846 0.11653 0.0
C2712 C 0.06992 0.66261 0.10793 0.0
C2713 C 0.07047 0.68166 0.06998 0.0
C2714 C 0.07026 0.59423 0.20426 0.0
C2715 C 0.05835 0.58728 0.23201 0.0
C2716 C 0.06993 0.61335 0.16638 0.0
C2717 C 0.05772 0.62684 0.15551 0.0
C2718 C 0.04568 0.6195 0.18288 0.0
C2719 C 0.04598 0.5999 0.22029 0.0
H2720 H 0.7889 0.44408 0.96246 0.0
H2721 H 0.83066 0.42321 0.9996 0.0
H2722 H 0.7882 0.41154 0.89443 0.0
H2723 H 0.82978 0.38985 0.93491 0.0
H2724 H 0.83134 0.34739 0.78365 0.0
H2725 H 0.83081 0.38085 0.84803 0.0
H2726 H 0.78706 0.36925 0.86898 0.0
H2727 H 0.78755 0.33662 0.80102 0.0
C2728 C 0.79791 0.43249 0.95633 0.0
C2729 C 0.8099 0.43663 0.98619 0.0
C2730 C 0.79749 0.41353 0.9175 0.0
C2731 C 0.809 0.39786 0.90788 0.0
C2732 C 0.8208 0.40173 0.9392 0.0
C2733 C 0.82128 0.42085 0.97712 0.0
C2734 C 0.82156 0.35195 0.80179 0.0
C2735 C 0.80954 0.33883 0.78754 0.0
C2736 C 0.82127 0.37114 0.83956 0.0
C2737 C 0.80894 0.37783 0.86543 0.0
C2738 C 0.7968 0.36497 0.85036 0.0
C2739 C 0.79708 0.34592 0.81167 0.0
H2740 H 0.41177 0.93966 0.82172 0.0
H2741 H 0.45511 0.92991 0.7912 0.0
H2742 H 0.41239 0.90605 0.88555 0.0
H2743 H 0.4557 0.89463 0.85321 0.0
H2744 H 0.45411 0.84283 1.00037 0.0
H2745 H 0.45521 0.87765 0.93734 0.0
H2746 H 0.41261 0.86405 0.89625 0.0
H2747 H 0.41143 0.8309 0.96108 0.0
C2748 C 0.42146 0.93004 0.82826 0.0
C2749 C 0.43335 0.9374 0.80084 0.0
C2750 C 0.42182 0.91037 0.86476 0.0
C2751 C 0.43403 0.8967 0.8744 0.0
C2752 C 0.44606 0.90448 0.84756 0.0
C2753 C 0.44575 0.92471 0.81162 0.0
C2754 C 0.44502 0.84741 0.97768 0.0
C2755 C 0.43263 0.83428 0.98633 0.0
C2756 C 0.44563 0.86738 0.94119 0.0
C2757 C 0.43391 0.87448 0.91172 0.0
C2758 C 0.42176 0.86027 0.91908 0.0
C2759 C 0.42109 0.84086 0.95613 0.0
H2760 H 0.78547 0.84681 0.2826 0.0
H2761 H 0.8287 0.83597 0.31335 0.0
H2762 H 0.78494 0.88135 0.34631 0.0
H2763 H 0.82814 0.86887 0.37904 0.0
H2764 H 0.82899 0.94332 0.45979 0.0
H2765 H 0.82813 0.91051 0.39389 0.0
H2766 H 0.78516 0.89746 0.43032 0.0
H2767 H 0.78598 0.93189 0.49421 0.0
C2768 C 0.79482 0.8516 0.30352 0.0
C2769 C 0.80716 0.83878 0.29237 0.0
C2770 C 0.79454 0.87141 0.34048 0.0
C2771 C 0.80656 0.87867 0.36807 0.0
C2772 C 0.81872 0.86493 0.35788 0.0
C2773 C 0.81905 0.84566 0.32032 0.0
C2774 C 0.81933 0.93352 0.45359 0.0
C2775 C 0.80759 0.94019 0.48261 0.0
C2776 C 0.81883 0.91431 0.4159 0.0
C2777 C 0.80664 0.90043 0.4067 0.0
C2778 C 0.79477 0.90751 0.43537 0.0
C2779 C 0.79522 0.92725 0.47243 0.0
H2780 H 0.45316 0.33093 0.45926 0.0
H2781 H 0.41053 0.34823 0.48999 0.0
H2782 H 0.45367 0.36327 0.39074 0.0
H2783 H 0.41118 0.38131 0.42507 0.0
H2784 H 0.40991 0.42311 0.27431 0.0
H2785 H 0.41096 0.38904 0.337 0.0
H2786 H 0.4537 0.40656 0.36803 0.0
H2787 H 0.45278 0.43994 0.3017 0.0
C2788 C 0.44389 0.3415 0.45129 0.0
C2789 C 0.43173 0.3365 0.47955 0.0
C2790 C 0.4442 0.36039 0.4124 0.0
C2791 C 0.4324 0.37501 0.4012 0.0
C2792 C 0.4204 0.3702 0.43072 0.0
C2793 C 0.42005 0.35123 0.46872 0.0
C2794 C 0.41958 0.41973 0.29428 0.0
C2795 C 0.43117 0.43474 0.28353 0.0
C2796 C 0.42017 0.40019 0.33098 0.0
C2797 C 0.43233 0.39507 0.35921 0.0
C2798 C 0.44411 0.40971 0.34744 0.0
C2799 C 0.44355 0.42914 0.30979 0.0
H2800 H 0.18941 0.5679 0.10069 0.0
H2801 H 0.17543 0.62263 0.9883 0.0
H2802 H 0.19043 0.60057 0.16812 0.0
H2803 H 0.176 0.65524 0.05576 0.0
H2804 H 0.19012 0.71352 0.17688 0.0
H2805 H 0.19081 0.68083 0.10911 0.0
H2806 H 0.17587 0.62655 0.22151 0.0
H2807 H 0.17563 0.65916 0.289 0.0
C2808 C 0.18673 0.58697 0.09021 0.0
C2809 C 0.18258 0.59269 0.03885 0.0
C2810 C 0.18711 0.60573 0.12911 0.0
C2811 C 0.18334 0.63078 0.11773 0.0
C2812 C 0.1792 0.63639 0.06613 0.0
C2813 C 0.17878 0.61761 0.02739 0.0
C2814 C 0.18725 0.6945 0.1871 0.0
C2815 C 0.18306 0.68889 0.23843 0.0
C2816 C 0.18744 0.67576 0.14815 0.0
C2817 C 0.18344 0.65081 0.15952 0.0
C2818 C 0.17926 0.64531 0.21114 0.0
C2819 C 0.17902 0.66409 0.2499 0.0
H2820 H 0.57974 0.10062 0.25329 0.0
H2821 H 0.53728 0.08151 0.22332 0.0
H2822 H 0.57868 0.13351 0.18781 0.0
H2823 H 0.53634 0.11377 0.15471 0.0
H2824 H 0.53629 0.18918 0.06226 0.0
H2825 H 0.5359 0.15684 0.1307 0.0
H2826 H 0.57874 0.14055 0.09916 0.0
H2827 H 0.57922 0.17357 0.03374 0.0
C2828 C 0.57015 0.10328 0.23228 0.0
C2829 C 0.55864 0.0881 0.24341 0.0
C2830 C 0.56957 0.12213 0.19398 0.0
C2831 C 0.5575 0.12633 0.16452 0.0
C2832 C 0.54584 0.11138 0.17632 0.0
C2833 C 0.5464 0.09262 0.21543 0.0
C2834 C 0.54563 0.17881 0.07044 0.0
C2835 C 0.55784 0.18433 0.0429 0.0
C2836 C 0.54539 0.16 0.10945 0.0
C2837 C 0.55734 0.14598 0.12163 0.0
C2838 C 0.5694 0.15119 0.09265 0.0
C2839 C 0.56966 0.1701 0.05441 0.0
H2840 H 0.16129 0.09855 0.53773 0.0
H2841 H 0.20509 0.08723 0.55266 0.0
H2842 H 0.16235 0.13291 0.59994 0.0
H2843 H 0.20612 0.12069 0.61869 0.0
H2844 H 0.20508 0.19698 0.7069 0.0
H2845 H 0.20533 0.16336 0.64114 0.0
H2846 H 0.16391 0.14259 0.68643 0.0
H2847 H 0.16344 0.17701 0.74859 0.0
C2848 C 0.17117 0.10319 0.55493 0.0
C2849 C 0.18305 0.08966 0.5408 0.0
C2850 C 0.17178 0.12287 0.59143 0.0
C2851 C 0.18428 0.1296 0.61603 0.0
C2852 C 0.19627 0.11634 0.60098 0.0
C2853 C 0.19567 0.09682 0.56352 0.0
C2854 C 0.19601 0.18536 0.70222 0.0
C2855 C 0.18416 0.19008 0.73247 0.0
C2856 C 0.19617 0.16579 0.66478 0.0
C2857 C 0.18456 0.15013 0.65717 0.0
C2858 C 0.17294 0.15449 0.68915 0.0
C2859 C 0.17271 0.17422 0.7256 0.0
H2860 H 0.53612 0.58137 0.7177 0.0
H2861 H 0.57906 0.59697 0.74648 0.0
H2862 H 0.53583 0.61362 0.64912 0.0
H2863 H 0.57866 0.62997 0.68102 0.0
H2864 H 0.57976 0.67027 0.52718 0.0
H2865 H 0.57872 0.63732 0.59263 0.0
H2866 H 0.53626 0.65644 0.62492 0.0
H2867 H 0.53719 0.68864 0.5563 0.0
C2868 C 0.54548 0.59172 0.70954 0.0
C2869 C 0.55766 0.58622 0.73717 0.0
C2870 C 0.54531 0.61049 0.67046 0.0
C2871 C 0.55728 0.62451 0.65835 0.0
C2872 C 0.5693 0.61933 0.68744 0.0
C2873 C 0.56951 0.60043 0.72572 0.0
C2874 C 0.57016 0.66743 0.54801 0.0
C2875 C 0.55861 0.68242 0.53669 0.0
C2876 C 0.56958 0.64857 0.58629 0.0
C2877 C 0.55747 0.64417 0.61551 0.0
C2878 C 0.54579 0.65896 0.60349 0.0
C2879 C 0.54634 0.6777 0.5644 0.0
H2880 H 0.30904 0.2075 0.13885 0.0
H2881 H 0.29279 0.16971 0.27501 0.0
H2882 H 0.31139 0.16673 0.09431 0.0
H2883 H 0.29495 0.12932 0.23088 0.0
H2884 H 0.3076 0.05655 0.15059 0.0
H2885 H 0.31012 0.09713 0.1959 0.0
H2886 H 0.29601 0.13562 0.057 0.0
H2887 H 0.29368 0.09547 1.01221 0.0
C2888 C 0.30614 0.19049 0.15946 0.0
C2889 C 0.30071 0.19187 0.21039 0.0
C2890 C 0.30739 0.16711 0.13391 0.0
C2891 C 0.30333 0.14455 0.15885 0.0
C2892 C 0.29836 0.14606 0.2105 0.0
C2893 C 0.29703 0.16934 0.23574 0.0
C2894 C 0.30524 0.07374 0.12969 0.0
C2895 C 0.30041 0.07275 0.07786 0.0
C2896 C 0.3066 0.09702 0.15566 0.0
C2897 C 0.30325 0.11983 0.13024 0.0
C2898 C 0.29887 0.11866 0.07781 0.0
C2899 C 0.29743 0.09552 0.05217 0.0
H2900 H 0.94463 0.17094 1.00892 0.0
H2901 H 0.93095 0.20885 0.14905 0.0
H2902 H 0.94285 0.1305 0.05306 0.0
H2903 H 0.92906 0.16803 0.19372 0.0
H2904 H 0.94753 0.09578 0.27011 0.0
H2905 H 0.94502 0.13621 0.22648 0.0
H2906 H 0.92765 0.09884 0.09147 0.0
H2907 H 0.93029 0.05804 0.13559 0.0
C2908 C 0.94104 0.1706 0.04911 0.0
C2909 C 0.93795 0.19316 0.07547 0.0
C2910 C 0.93994 0.1473 0.07439 0.0
C2911 C 0.93583 0.1458 0.12711 0.0
C2912 C 0.93238 0.1684 0.15322 0.0
C2913 C 0.93336 0.19181 0.1276 0.0
C2914 C 0.94304 0.09615 0.23128 0.0
C2915 C 0.93915 0.07363 0.20629 0.0
C2916 C 0.9415 0.11945 0.20634 0.0
C2917 C 0.93612 0.12099 0.15531 0.0
C2918 C 0.93194 0.09843 0.13061 0.0
C2919 C 0.93337 0.07503 0.15592 0.0
H2920 H 0.68797 0.96174 0.88149 0.0
H2921 H 0.69404 0.92593 0.03104 0.0
H2922 H 0.68641 0.92043 0.83959 0.0
H2923 H 0.69155 0.88481 0.9907 0.0
H2924 H 0.70224 0.81379 0.89872 0.0
H2925 H 0.70205 0.85463 0.94232 0.0
H2926 H 0.67517 0.88371 0.8215 0.0
H2927 H 0.67621 0.84332 0.7767 0.0
C2928 C 0.68865 0.945 0.90555 0.0
C2929 C 0.69118 0.94711 0.9595 0.0
C2930 C 0.6877 0.92115 0.88165 0.0
C2931 C 0.68897 0.89874 0.91129 0.0
C2932 C 0.69092 0.90121 0.96576 0.0
C2933 C 0.69219 0.92495 0.98924 0.0
C2934 C 0.69616 0.82887 0.88197 0.0
C2935 C 0.68926 0.82529 0.83424 0.0
C2936 C 0.69598 0.85246 0.90705 0.0
C2937 C 0.68864 0.87305 0.88571 0.0
C2938 C 0.68126 0.86888 0.83893 0.0
C2939 C 0.68169 0.8455 0.8134 0.0
H2940 H 0.05984 0.96358 0.90094 0.0
H2941 H 0.04509 0.927 0.76087 0.0
H2942 H 0.06251 0.92223 0.94294 0.0
H2943 H 0.04762 0.88612 0.80231 0.0
H2944 H 0.06101 0.8127 0.87802 0.0
H2945 H 0.06319 0.85421 0.83626 0.0
H2946 H 0.04738 0.88941 0.97643 0.0
H2947 H 0.04532 0.84836 0.01764 0.0
C2948 C 0.05733 0.94676 0.87895 0.0
C2949 C 0.0522 0.94866 0.82763 0.0
C2950 C 0.05878 0.92302 0.90302 0.0
C2951 C 0.05527 0.90062 0.87614 0.0
C2952 C 0.05061 0.90271 0.8242 0.0
C2953 C 0.04905 0.9263 0.8005 0.0
C2954 C 0.0582 0.82938 0.9 0.0
C2955 C 0.05295 0.82717 0.95109 0.0
C2956 C 0.05937 0.8532 0.87605 0.0
C2957 C 0.05544 0.87538 0.90284 0.0
C2958 C 0.05068 0.87301 0.95461 0.0
C2959 C 0.0494 0.84932 0.97818 0.0
H2960 H 0.30514 0.67293 0.77355 0.0
H2961 H 0.29662 0.70893 0.62614 0.0
H2962 H 0.30741 0.63257 0.72981 0.0
H2963 H 0.29748 0.66833 0.58209 0.0
H2964 H 0.30427 0.59418 0.50353 0.0
H2965 H 0.30711 0.63447 0.54712 0.0
H2966 H 0.2973 0.59904 0.69537 0.0
H2967 H 0.29585 0.55846 0.65139 0.0
C2968 C 0.30376 0.6721 0.73147 0.0
C2969 C 0.30083 0.69409 0.70321 0.0
C2970 C 0.30483 0.64875 0.70615 0.0
C2971 C 0.30243 0.64639 0.65181 0.0
C2972 C 0.29971 0.6688 0.62355 0.0
C2973 C 0.29914 0.69233 0.6488 0.0
C2974 C 0.30303 0.59506 0.54569 0.0
C2975 C 0.29997 0.57317 0.57412 0.0
C2976 C 0.30443 0.61838 0.57093 0.0
C2977 C 0.30225 0.62081 0.62539 0.0
C2978 C 0.29938 0.59849 0.6538 0.0
C2979 C 0.29847 0.57499 0.6286 0.0
H2980 H 0.9448 0.67231 0.5071 0.0
H2981 H 0.92959 0.70856 0.64684 0.0
H2982 H 0.94346 0.63154 0.55 0.0
H2983 H 0.92812 0.66737 0.69025 0.0
H2984 H 0.94777 0.59644 0.76681 0.0
H2985 H 0.94451 0.63669 0.7236 0.0
H2986 H 0.92889 0.59843 0.5866 0.0
H2987 H 0.93228 0.55768 0.63043 0.0
C2988 C 0.94097 0.67152 0.54694 0.0
C2989 C 0.93735 0.69376 0.57361 0.0
C2990 C 0.94011 0.64801 0.57147 0.0
C2991 C 0.93571 0.64595 0.62376 0.0
C2992 C 0.93168 0.66819 0.65008 0.0
C2993 C 0.93243 0.69181 0.6252 0.0
C2994 C 0.94351 0.59652 0.72759 0.0
C2995 C 0.94034 0.57376 0.70201 0.0
C2996 C 0.94152 0.61974 0.70291 0.0
C2997 C 0.93641 0.62104 0.6515 0.0
C2998 C 0.93294 0.59823 0.6261 0.0
C2999 C 0.93481 0.57485 0.65121 0.0
H3000 H 0.67755 0.46272 0.37537 0.0
H3001 H 0.69227 0.4266 0.51584 0.0
H3002 H 0.6755 0.42137 0.33287 0.0
H3003 H 0.69042 0.38569 0.4738 0.0
H3004 H 0.67879 0.31185 0.39607 0.0
H3005 H 0.67573 0.35299 0.43858 0.0
H3006 H 0.69112 0.38976 0.29949 0.0
H3007 H 0.69395 0.34907 0.25743 0.0
C3008 C 0.68016 0.44597 0.39736 0.0
C3009 C 0.6851 0.44798 0.4489 0.0
C3010 C 0.67909 0.42225 0.37298 0.0
C3011 C 0.68283 0.4 0.39976 0.0
C3012 C 0.68726 0.40217 0.45198 0.0
C3013 C 0.68842 0.42576 0.47604 0.0
C3014 C 0.68131 0.32878 0.37451 0.0
C3015 C 0.68665 0.32715 0.32346 0.0
C3016 C 0.67965 0.35239 0.39888 0.0
C3017 C 0.68319 0.3749 0.37259 0.0
C3018 C 0.68808 0.37307 0.32089 0.0
C3019 C 0.68982 0.3496 0.29685 0.0
H3020 H 0.0427 0.35178 0.52293 0.0
H3021 H 0.05768 0.31408 0.38454 0.0
H3022 H 0.04452 0.39225 0.47872 0.0
H3023 H 0.05957 0.35488 0.33981 0.0
H3024 H 0.0418 0.42704 0.26083 0.0
H3025 H 0.04382 0.38667 0.30506 0.0
H3026 H 0.06005 0.42412 0.44195 0.0
H3027 H 0.05796 0.46489 0.39713 0.0
C3028 C 0.04654 0.35217 0.48309 0.0
C3029 C 0.05002 0.32963 0.45728 0.0
C3030 C 0.04767 0.37549 0.45778 0.0
C3031 C 0.05219 0.37706 0.40553 0.0
C3032 C 0.05594 0.35448 0.37992 0.0
C3033 C 0.05495 0.33107 0.40558 0.0
C3034 C 0.04594 0.42672 0.30022 0.0
C3035 C 0.0497 0.44928 0.32542 0.0
C3036 C 0.04719 0.40344 0.32554 0.0
C3037 C 0.05211 0.40191 0.37724 0.0
C3038 C 0.05612 0.4245 0.40227 0.0
C3039 C 0.05501 0.44789 0.37655 0.0
H3040 H 0.79346 0.1008 0.50591 0.0
H3041 H 0.80857 0.06338 0.64425 0.0
H3042 H 0.79581 0.14141 0.54912 0.0
H3043 H 0.81102 0.10437 0.688 0.0
H3044 H 0.79338 0.1772 0.76575 0.0
H3045 H 0.7954 0.13654 0.72257 0.0
H3046 H 0.81164 0.17306 0.58465 0.0
H3047 H 0.80953 0.21412 0.62839 0.0
C3048 C 0.79746 0.10127 0.54551 0.0
C3049 C 0.8008 0.07879 0.57166 0.0
C3050 C 0.79891 0.12468 0.57021 0.0
C3051 C 0.8036 0.12637 0.62218 0.0
C3052 C 0.80726 0.10385 0.64808 0.0
C3053 C 0.80595 0.08033 0.62299 0.0
C3054 C 0.79753 0.17659 0.72637 0.0
C3055 C 0.80125 0.19896 0.70048 0.0
C3056 C 0.79879 0.15316 0.70168 0.0
C3057 C 0.80368 0.15131 0.64999 0.0
C3058 C 0.80772 0.17371 0.62435 0.0
C3059 C 0.8066 0.19725 0.64943 0.0
H3060 H 0.43442 0.17705 0.51576 0.0
H3061 H 0.43944 0.21381 0.66518 0.0
H3062 H 0.43283 0.13628 0.55917 0.0
H3063 H 0.4382 0.17256 0.7091 0.0
H3064 H 0.45883 0.09261 0.73914 0.0
H3065 H 0.45526 0.13491 0.70492 0.0
H3066 H 0.41865 0.10962 0.62464 0.0
H3067 H 0.42206 0.06704 0.66018 0.0
C3068 C 0.4349 0.17641 0.55815 0.0
C3069 C 0.437 0.19859 0.58714 0.0
C3070 C 0.43395 0.15303 0.58302 0.0
C3071 C 0.43542 0.15111 0.63756 0.0
C3072 C 0.43705 0.17344 0.66695 0.0
C3073 C 0.43765 0.19704 0.64198 0.0
C3074 C 0.44993 0.09603 0.71454 0.0
C3075 C 0.44074 0.07639 0.70224 0.0
C3076 C 0.44783 0.1204 0.69535 0.0
C3077 C 0.43662 0.12574 0.66239 0.0
C3078 C 0.42737 0.10612 0.65011 0.0
C3079 C 0.42931 0.08176 0.67035 0.0
H3080 H 0.19193 0.92843 0.53628 0.0
H3081 H 0.18662 0.96323 0.38527 0.0
H3082 H 0.18896 0.88709 0.49733 0.0
H3083 H 0.18459 0.92168 0.34482 0.0
H3084 H 0.1738 0.84478 0.28405 0.0
H3085 H 0.17279 0.88532 0.32826 0.0
H3086 H 0.19949 0.85645 0.44991 0.0
H3087 H 0.19962 0.81547 0.40696 0.0
C3088 C 0.19013 0.92716 0.49447 0.0
C3089 C 0.18949 0.94907 0.46383 0.0
C3090 C 0.18859 0.90332 0.47184 0.0
C3091 C 0.18672 0.90053 0.41742 0.0
C3092 C 0.18579 0.9227 0.38689 0.0
C3093 C 0.18701 0.94667 0.40993 0.0
C3094 C 0.17923 0.84705 0.32084 0.0
C3095 C 0.18675 0.82693 0.34208 0.0
C3096 C 0.17882 0.8705 0.34599 0.0
C3097 C 0.18621 0.87475 0.3927 0.0
C3098 C 0.19345 0.85419 0.41461 0.0
C3099 C 0.19359 0.83054 0.38992 0.0
H3100 H 0.52921 0.82334 0.40612 0.0
H3101 H 0.57201 0.82474 0.45137 0.0
H3102 H 0.53074 0.86677 0.37753 0.0
H3103 H 0.57351 0.86912 0.42461 0.0
H3104 H 0.57195 0.9449 0.32793 0.0
H3105 H 0.57312 0.90067 0.3559 0.0
H3106 H 0.53168 0.90641 0.41695 0.0
H3107 H 0.53042 0.94971 0.38704 0.0
C3108 C 0.539 0.83301 0.4098 0.0
C3109 C 0.55044 0.82068 0.43133 0.0
C3110 C 0.53986 0.85811 0.39396 0.0
C3111 C 0.55215 0.87193 0.40006 0.0
C3112 C 0.56386 0.85921 0.41938 0.0
C3113 C 0.56302 0.83377 0.43469 0.0
C3114 C 0.56322 0.93667 0.3481 0.0
C3115 C 0.55104 0.95061 0.35492 0.0
C3116 C 0.56385 0.91131 0.36406 0.0
C3117 C 0.55235 0.89955 0.38753 0.0
C3118 C 0.54057 0.91431 0.39731 0.0
C3119 C 0.53989 0.93932 0.38075 0.0
H3120 H 0.77572 0.69455 0.1967 0.0
H3121 H 0.81998 0.70015 0.1962 0.0
H3122 H 0.77705 0.65256 0.15997 0.0
H3123 H 0.82159 0.65687 0.16298 0.0
H3124 H 0.81907 0.58227 0.06803 0.0
H3125 H 0.81936 0.62585 0.09959 0.0
H3126 H 0.78107 0.61225 0.18182 0.0
H3127 H 0.78043 0.5698 0.14691 0.0
C3128 C 0.78579 0.68667 0.18849 0.0
C3129 C 0.79773 0.70066 0.19897 0.0
C3130 C 0.78661 0.66225 0.16824 0.0
C3131 C 0.79946 0.6505 0.15964 0.0
C3132 C 0.81147 0.66498 0.16868 0.0
C3133 C 0.8106 0.68987 0.1877 0.0
C3134 C 0.81083 0.58869 0.09334 0.0
C3135 C 0.79969 0.57269 0.10488 0.0
C3136 C 0.81096 0.61375 0.11155 0.0
C3137 C 0.80006 0.62326 0.14256 0.0
C3138 C 0.78939 0.60643 0.15638 0.0
C3139 C 0.7891 0.58177 0.1371 0.0
H3140 H 0.4285 0.56006 0.13094 0.0
H3141 H 0.44306 0.5983 0.2694 0.0
H3142 H 0.42623 0.60076 0.08623 0.0
H3143 H 0.44098 0.63862 0.22514 0.0
H3144 H 0.42837 0.7109 0.14383 0.0
H3145 H 0.42572 0.67019 0.18825 0.0
H3146 H 0.44182 0.6324 0.05144 0.0
H3147 H 0.44428 0.67273 1.00746 0.0
C3148 C 0.43104 0.57714 0.152 0.0
C3149 C 0.43598 0.57593 0.20364 0.0
C3150 C 0.42984 0.60048 0.12636 0.0
C3151 C 0.43345 0.62314 0.15196 0.0
C3152 C 0.43792 0.62178 0.20425 0.0
C3153 C 0.43921 0.59855 0.22957 0.0
C3154 C 0.43113 0.69383 0.12315 0.0
C3155 C 0.43656 0.69506 0.07221 0.0
C3156 C 0.42971 0.67048 0.14863 0.0
C3157 C 0.43358 0.64785 0.12354 0.0
C3158 C 0.43855 0.64923 0.07189 0.0
C3159 C 0.44006 0.67246 0.04675 0.0
H3160 H 0.21361 0.34254 0.8168 0.0
H3161 H 0.1715 0.32371 0.85488 0.0
H3162 H 0.20998 0.38527 0.84838 0.0
H3163 H 0.16784 0.36678 0.88686 0.0
H3164 H 0.17498 0.43524 1.00071 0.0
H3165 H 0.17562 0.39369 0.96026 0.0
H3166 H 0.19743 0.42468 0.82766 0.0
H3167 H 0.19678 0.4665 0.86854 0.0
C3168 C 0.20354 0.34754 0.8319 0.0
C3169 C 0.19284 0.32967 0.83327 0.0
C3170 C 0.20143 0.37217 0.84956 0.0
C3171 C 0.18858 0.37965 0.86968 0.0
C3172 C 0.17788 0.36169 0.87164 0.0
C3173 C 0.17996 0.33701 0.85338 0.0
C3174 C 0.17969 0.43329 0.96242 0.0
C3175 C 0.18589 0.45413 0.93795 0.0
C3176 C 0.18001 0.40944 0.93914 0.0
C3177 C 0.18669 0.40569 0.89091 0.0
C3178 C 0.19236 0.42682 0.86519 0.0
C3179 C 0.19188 0.45083 0.88831 0.0
H3180 H 0.56738 0.32593 0.95127 0.0
H3181 H 0.52485 0.3216 0.90342 0.0
H3182 H 0.56827 0.36999 0.92285 0.0
H3183 H 0.52581 0.36477 0.87263 0.0
H3184 H 0.52456 0.44838 0.87471 0.0
H3185 H 0.52568 0.40519 0.90528 0.0
H3186 H 0.56824 0.40084 0.85577 0.0
H3187 H 0.56718 0.44492 0.82755 0.0
C3188 C 0.55832 0.33425 0.93364 0.0
C3189 C 0.546 0.32038 0.92999 0.0
C3190 C 0.5588 0.35956 0.91727 0.0
C3191 C 0.54702 0.37145 0.89632 0.0
C3192 C 0.53498 0.35686 0.89022 0.0
C3193 C 0.53445 0.33188 0.90729 0.0
C3194 C 0.53421 0.43829 0.87092 0.0
C3195 C 0.54575 0.45004 0.84849 0.0
C3196 C 0.53484 0.41329 0.88787 0.0
C3197 C 0.54696 0.39895 0.88194 0.0
C3198 C 0.55871 0.41109 0.86121 0.0
C3199 C 0.55813 0.4364 0.84496 0.0
loop_
_geom_bond_atom_site_label_1
_geom_bond_atom_site_label_2
_geom_bond_distance
_geom_bond_site_symmetry_2
_ccdc_geom_bond_type
Sm0 C2 2.846 . S
Sm0 O20 2.543 . S
Sm0 O21 2.450 . S
Sm0 O22 2.681 . S
Sm0 O23 2.464 . S
Sm0 O24 2.396 . S
Sm0 O28 2.386 . S
Sm0 O31 2.408 . S
Sm1 C11 2.846 . S
Sm1 O22 2.386 . S
Sm1 O25 2.408 . S
Sm1 O26 2.543 . S
Sm1 O27 2.450 . S
Sm1 O28 2.681 . S
Sm1 O29 2.464 . S
Sm1 O30 2.396 . S
C2 Sm0 2.846 . S
C2 C3 1.523 . S
C2 O20 1.261 . S
C2 O21 1.242 . S
C3 C2 1.523 . S
C3 C4 1.348 1_554 S
C3 C8 1.374 1_554 S
C4 C3 1.348 1_556 S
C4 C5 1.385 . S
C4 H32 0.930 . S
C5 C4 1.385 . S
C5 C6 1.395 . S
C5 H33 0.929 . S
C6 C5 1.395 . S
C6 C7 1.335 . S
C7 C6 1.335 . S
C7 C8 1.398 . S
C7 H34 0.930 . S
C8 C3 1.374 1_556 S
C8 C7 1.398 . S
C8 H35 0.929 . S
C9 O22 1.271 . S
C9 O23 1.251 . S
C10 O24 1.252 . S
C10 O25 1.272 . S
C11 Sm1 2.846 . S
C11 C12 1.506 . S
C11 O26 1.261 . S
C11 O27 1.242 . S
C12 C11 1.506 . S
C12 C13 1.358 . S
C12 C17 1.382 . S
C13 C12 1.358 . S
C13 C14 1.385 . S
C13 H36 0.930 . S
C14 C13 1.385 . S
C14 C15 1.395 . S
C14 H37 0.929 . S
C15 C14 1.395 . S
C15 C16 1.335 . S
C16 C15 1.335 . S
C16 C17 1.398 . S
C16 H38 0.930 . S
C17 C12 1.382 . S
C17 C16 1.398 . S
C17 H39 0.929 . S
C18 O28 1.271 . S
C18 O29 1.251 . S
C19 O30 1.252 . S
C19 O31 1.272 . S
O20 Sm0 2.543 . S
O20 C2 1.261 . S
O21 Sm0 2.450 . S
O21 C2 1.242 . S
O22 Sm0 2.681 . S
O22 Sm1 2.386 . S
O22 C9 1.271 . S
O23 Sm0 2.464 . S
O23 C9 1.251 . S
O24 Sm0 2.396 . S
O24 C10 1.252 . S
O25 Sm1 2.408 . S
O25 C10 1.272 . S
O26 Sm1 2.543 . S
O26 C11 1.261 . S
O27 Sm1 2.450 . S
O27 C11 1.242 . S
O28 Sm0 2.386 . S
O28 Sm1 2.681 . S
O28 C18 1.271 . S
O29 Sm1 2.464 . S
O29 C18 1.251 . S
O30 Sm1 2.396 . S
O30 C19 1.252 . S
O31 Sm0 2.408 . S
O31 C19 1.272 . S
H32 C4 0.930 . S
H33 C5 0.929 . S
H34 C7 0.930 . S
H35 C8 0.929 . S
H36 C13 0.930 . S
H37 C14 0.929 . S
H38 C16 0.930 . S
H39 C17 0.929 . S
Sm40 C42 2.846 . S
Sm40 O60 2.543 1_565 S
Sm40 O61 2.450 . S
Sm40 O62 2.681 . S
Sm40 O63 2.464 . S
Sm40 O64 2.396 . S
Sm40 O68 2.386 1_565 S
Sm40 O71 2.408 . S
Sm41 C51 2.846 . S
Sm41 O62 2.386 1_545 S
Sm41 O65 2.408 . S
Sm41 O66 2.543 1_545 S
Sm41 O67 2.450 . S
Sm41 O68 2.681 . S
Sm41 O69 2.464 . S
Sm41 O70 2.396 . S
C42 Sm40 2.846 . S
C42 C43 1.507 . S
C42 O60 1.261 1_565 S
C42 O61 1.242 . S
C43 C42 1.507 . S
C43 C44 1.356 1_554 S
C43 C48 1.381 1_554 S
C44 C43 1.356 1_556 S
C44 C45 1.385 . S
C44 H72 0.932 1_565 S
C45 C44 1.385 . S
C45 C46 1.395 . S
C45 H73 0.929 1_565 S
C46 C45 1.395 . S
C46 C47 1.335 . S
C47 C46 1.335 . S
C47 C48 1.398 . S
C47 H74 0.930 . S
C48 C43 1.381 1_556 S
C48 C47 1.398 . S
C48 H75 0.929 . S
C49 O62 1.271 . S
C49 O63 1.251 . S
C50 O64 1.252 . S
C50 O65 1.272 1_565 S
C51 Sm41 2.846 . S
C51 C52 1.506 . S
C51 O66 1.261 1_545 S
C51 O67 1.242 . S
C52 C51 1.506 . S
C52 C53 1.356 1_545 S
C52 C57 1.382 . S
C53 C52 1.356 1_565 S
C53 C54 1.385 1_565 S
C53 H76 0.932 . S
C54 C53 1.385 1_545 S
C54 C55 1.395 . S
C54 H77 0.929 1_545 S
C55 C54 1.395 . S
C55 C56 1.335 . S
C56 C55 1.335 . S
C56 C57 1.398 . S
C56 H78 0.930 . S
C57 C52 1.382 . S
C57 C56 1.398 . S
C57 H79 0.929 . S
C58 O68 1.271 . S
C58 O69 1.251 . S
C59 O70 1.252 . S
C59 O71 1.272 1_545 S
O60 Sm40 2.543 1_545 S
O60 C42 1.261 1_545 S
O61 Sm40 2.450 . S
O61 C42 1.242 . S
O62 Sm40 2.681 . S
O62 Sm41 2.386 1_565 S
O62 C49 1.271 . S
O63 Sm40 2.464 . S
O63 C49 1.251 . S
O64 Sm40 2.396 . S
O64 C50 1.252 . S
O65 Sm41 2.408 . S
O65 C50 1.272 1_545 S
O66 Sm41 2.543 1_565 S
O66 C51 1.261 1_565 S
O67 Sm41 2.450 . S
O67 C51 1.242 . S
O68 Sm40 2.386 1_545 S
O68 Sm41 2.681 . S
O68 C58 1.271 . S
O69 Sm41 2.464 . S
O69 C58 1.251 . S
O70 Sm41 2.396 . S
O70 C59 1.252 . S
O71 Sm40 2.408 . S
O71 C59 1.272 1_565 S
H72 C44 0.932 1_545 S
H73 C45 0.929 1_545 S
H74 C47 0.930 . S
H75 C48 0.929 . S
H76 C53 0.932 . S
H77 C54 0.929 1_565 S
H78 C56 0.930 . S
H79 C57 0.929 . S
Sm80 C82 2.846 . S
Sm80 O100 2.543 1_565 S
Sm80 O101 2.450 . S
Sm80 O102 2.698 . S
Sm80 O103 2.464 . S
Sm80 O104 2.396 . S
Sm80 O108 2.386 1_565 S
Sm80 O111 2.408 . S
Sm81 C91 2.846 . S
Sm81 O102 2.379 1_546 S
Sm81 O105 2.408 1_556 S
Sm81 O106 2.543 1_545 S
Sm81 O107 2.450 . S
Sm81 O108 2.681 1_556 S
Sm81 O109 2.464 1_556 S
Sm81 O110 2.396 . S
C82 Sm80 2.846 . S
C82 C83 1.506 . S
C82 O100 1.261 1_565 S
C82 O101 1.242 . S
C83 C82 1.506 . S
C83 C84 1.356 . S
C83 C88 1.382 . S
C84 C83 1.356 . S
C84 C85 1.385 . S
C84 H112 0.932 1_565 S
C85 C84 1.385 . S
C85 C86 1.395 . S
C85 H113 0.929 1_565 S
C86 C85 1.395 . S
C86 C87 1.335 . S
C87 C86 1.335 . S
C87 C88 1.398 . S
C87 H114 0.930 . S
C88 C83 1.382 . S
C88 C87 1.398 . S
C88 H115 0.929 . S
C89 O102 1.277 . S
C89 O103 1.251 . S
C90 O104 1.252 . S
C90 O105 1.272 1_565 S
C91 Sm81 2.846 . S
C91 C92 1.506 . S
C91 O106 1.261 1_545 S
C91 O107 1.242 . S
C92 C91 1.506 . S
C92 C93 1.356 1_545 S
C92 C97 1.382 . S
C93 C92 1.356 1_565 S
C93 C94 1.385 1_565 S
C93 H116 0.932 . S
C94 C93 1.385 1_545 S
C94 C95 1.395 . S
C94 H117 0.929 1_545 S
C95 C94 1.395 . S
C95 C96 1.335 . S
C96 C95 1.335 . S
C96 C97 1.398 . S
C96 H118 0.930 . S
C97 C92 1.382 . S
C97 C96 1.398 . S
C97 H119 0.929 . S
C98 O108 1.271 . S
C98 O109 1.251 . S
C99 O110 1.252 . S
C99 O111 1.272 1_546 S
O100 Sm80 2.543 1_545 S
O100 C82 1.261 1_545 S
O101 Sm80 2.450 . S
O101 C82 1.242 . S
O102 Sm80 2.698 . S
O102 Sm81 2.379 1_564 S
O102 C89 1.277 . S
O103 Sm80 2.464 . S
O103 C89 1.251 . S
O104 Sm80 2.396 . S
O104 C90 1.252 . S
O105 Sm81 2.408 1_554 S
O105 C90 1.272 1_545 S
O106 Sm81 2.543 1_565 S
O106 C91 1.261 1_565 S
O107 Sm81 2.450 . S
O107 C91 1.242 . S
O108 Sm80 2.386 1_545 S
O108 Sm81 2.681 1_554 S
O108 C98 1.271 . S
O109 Sm81 2.464 1_554 S
O109 C98 1.251 . S
O110 Sm81 2.396 . S
O110 C99 1.252 . S
O111 Sm80 2.408 . S
O111 C99 1.272 1_564 S
H112 C84 0.932 1_545 S
H113 C85 0.929 1_545 S
H114 C87 0.930 . S
H115 C88 0.929 . S
H116 C93 0.932 . S
H117 C94 0.929 1_565 S
H118 C96 0.930 . S
H119 C97 0.929 . S
Sm120 C122 2.846 . S
Sm120 O140 2.543 . S
Sm120 O141 2.450 . S
Sm120 O142 2.684 . S
Sm120 O143 2.464 . S
Sm120 O144 2.396 . S
Sm120 O148 2.386 . S
Sm120 O151 2.408 . S
Sm121 C131 2.846 . S
Sm121 O142 2.385 1_556 S
Sm121 O145 2.408 1_556 S
Sm121 O146 2.543 . S
Sm121 O147 2.450 . S
Sm121 O148 2.681 1_556 S
Sm121 O149 2.458 1_556 S
Sm121 O150 2.396 . S
C122 Sm120 2.846 . S
C122 C123 1.506 . S
C122 O140 1.261 . S
C122 O141 1.242 . S
C123 C122 1.506 . S
C123 C124 1.358 . S
C123 C128 1.382 . S
C124 C123 1.358 . S
C124 C125 1.385 . S
C124 H152 0.930 . S
C125 C124 1.385 . S
C125 C126 1.395 . S
C125 H153 0.929 . S
C126 C125 1.395 . S
C126 C127 1.335 . S
C127 C126 1.335 . S
C127 C128 1.398 . S
C127 H154 0.930 . S
C128 C123 1.382 . S
C128 C127 1.398 . S
C128 H155 0.929 . S
C129 O142 1.272 . S
C129 O143 1.251 . S
C130 O144 1.252 . S
C130 O145 1.272 . S
C131 Sm121 2.846 . S
C131 C132 1.506 . S
C131 O146 1.261 . S
C131 O147 1.242 . S
C132 C131 1.506 . S
C132 C133 1.358 . S
C132 C137 1.382 . S
C133 C132 1.358 . S
C133 C134 1.385 . S
C133 H156 0.930 . S
C134 C133 1.385 . S
C134 C135 1.395 . S
C134 H157 0.929 . S
C135 C134 1.395 . S
C135 C136 1.335 . S
C136 C135 1.335 . S
C136 C137 1.398 . S
C136 H158 0.930 . S
C137 C132 1.382 . S
C137 C136 1.398 . S
C137 H159 0.929 . S
C138 O148 1.271 . S
C138 O149 1.267 . S
C139 O150 1.252 . S
C139 O151 1.272 1_556 S
O140 Sm120 2.543 . S
O140 C122 1.261 . S
O141 Sm120 2.450 . S
O141 C122 1.242 . S
O142 Sm120 2.684 . S
O142 Sm121 2.385 1_554 S
O142 C129 1.272 . S
O143 Sm120 2.464 . S
O143 C129 1.251 . S
O144 Sm120 2.396 . S
O144 C130 1.252 . S
O145 Sm121 2.408 1_554 S
O145 C130 1.272 . S
O146 Sm121 2.543 . S
O146 C131 1.261 . S
O147 Sm121 2.450 . S
O147 C131 1.242 . S
O148 Sm120 2.386 . S
O148 Sm121 2.681 1_554 S
O148 C138 1.271 . S
O149 Sm121 2.458 1_554 S
O149 C138 1.267 . S
O150 Sm121 2.396 . S
O150 C139 1.252 . S
O151 Sm120 2.408 . S
O151 C139 1.272 1_554 S
H152 C124 0.930 . S
H153 C125 0.929 . S
H154 C127 0.930 . S
H155 C128 0.929 . S
H156 C133 0.930 . S
H157 C134 0.929 . S
H158 C136 0.930 . S
H159 C137 0.929 . S
Sm160 C162 2.846 . S
Sm160 O180 2.543 . S
Sm160 O181 2.450 . S
Sm160 O182 2.681 . S
Sm160 O183 2.464 . S
Sm160 O184 2.396 . S
Sm160 O188 2.386 . S
Sm160 O191 2.408 . S
Sm161 C171 2.846 . S
Sm161 O182 2.386 . S
Sm161 O185 2.408 . S
Sm161 O186 2.543 . S
Sm161 O187 2.450 . S
Sm161 O188 2.681 . S
Sm161 O189 2.464 . S
Sm161 O190 2.396 . S
C162 Sm160 2.846 . S
C162 C163 1.506 . S
C162 O180 1.261 . S
C162 O181 1.242 . S
C163 C162 1.506 . S
C163 C164 1.358 . S
C163 C168 1.382 . S
C164 C163 1.358 . S
C164 C165 1.385 . S
C164 H192 0.930 . S
C165 C164 1.385 . S
C165 C166 1.395 . S
C165 H193 0.929 . S
C166 C165 1.395 . S
C166 C167 1.335 . S
C167 C166 1.335 . S
C167 C168 1.398 . S
C167 H194 0.930 . S
C168 C163 1.382 . S
C168 C167 1.398 . S
C168 H195 0.929 . S
C169 O182 1.271 . S
C169 O183 1.251 . S
C170 O184 1.252 . S
C170 O185 1.272 . S
C171 Sm161 2.846 . S
C171 C172 1.523 . S
C171 O186 1.261 . S
C171 O187 1.242 . S
C172 C171 1.523 . S
C172 C173 1.348 1_556 S
C172 C177 1.374 1_556 S
C173 C172 1.348 1_554 S
C173 C174 1.385 . S
C173 H196 0.930 . S
C174 C173 1.385 . S
C174 C175 1.395 . S
C174 H197 0.929 . S
C175 C174 1.395 . S
C175 C176 1.335 . S
C176 C175 1.335 . S
C176 C177 1.398 . S
C176 H198 0.930 . S
C177 C172 1.374 1_554 S
C177 C176 1.398 . S
C177 H199 0.929 . S
C178 O188 1.271 . S
C178 O189 1.251 . S
C179 O190 1.252 . S
C179 O191 1.272 . S
O180 Sm160 2.543 . S
O180 C162 1.261 . S
O181 Sm160 2.450 . S
O181 C162 1.242 . S
O182 Sm160 2.681 . S
O182 Sm161 2.386 . S
O182 C169 1.271 . S
O183 Sm160 2.464 . S
O183 C169 1.251 . S
O184 Sm160 2.396 . S
O184 C170 1.252 . S
O185 Sm161 2.408 . S
O185 C170 1.272 . S
O186 Sm161 2.543 . S
O186 C171 1.261 . S
O187 Sm161 2.450 . S
O187 C171 1.242 . S
O188 Sm160 2.386 . S
O188 Sm161 2.681 . S
O188 C178 1.271 . S
O189 Sm161 2.464 . S
O189 C178 1.251 . S
O190 Sm161 2.396 . S
O190 C179 1.252 . S
O191 Sm160 2.408 . S
O191 C179 1.272 . S
H192 C164 0.930 . S
H193 C165 0.929 . S
H194 C167 0.930 . S
H195 C168 0.929 . S
H196 C173 0.930 . S
H197 C174 0.929 . S
H198 C176 0.930 . S
H199 C177 0.929 . S
Sm200 C202 2.846 . S
Sm200 O220 2.543 1_565 S
Sm200 O221 2.450 . S
Sm200 O222 2.681 . S
Sm200 O223 2.464 . S
Sm200 O224 2.396 . S
Sm200 O228 2.386 1_565 S
Sm200 O231 2.408 . S
Sm201 C211 2.846 . S
Sm201 O222 2.386 1_545 S
Sm201 O225 2.408 . S
Sm201 O226 2.543 1_545 S
Sm201 O227 2.450 . S
Sm201 O228 2.681 . S
Sm201 O229 2.464 . S
Sm201 O230 2.396 . S
C202 Sm200 2.846 . S
C202 C203 1.506 . S
C202 O220 1.261 1_565 S
C202 O221 1.242 . S
C203 C202 1.506 . S
C203 C204 1.356 1_565 S
C203 C208 1.382 . S
C204 C203 1.356 1_545 S
C204 C205 1.385 1_545 S
C204 H232 0.932 . S
C205 C204 1.385 1_565 S
C205 C206 1.395 . S
C205 H233 0.929 1_565 S
C206 C205 1.395 . S
C206 C207 1.335 . S
C207 C206 1.335 . S
C207 C208 1.398 . S
C207 H234 0.930 . S
C208 C203 1.382 . S
C208 C207 1.398 . S
C208 H235 0.929 . S
C209 O222 1.271 . S
C209 O223 1.251 . S
C210 O224 1.252 . S
C210 O225 1.272 1_565 S
C211 Sm201 2.846 . S
C211 C212 1.507 . S
C211 O226 1.261 1_545 S
C211 O227 1.242 . S
C212 C211 1.507 . S
C212 C213 1.356 1_556 S
C212 C217 1.381 1_556 S
C213 C212 1.356 1_554 S
C213 C214 1.385 . S
C213 H236 0.932 1_545 S
C214 C213 1.385 . S
C214 C215 1.395 . S
C214 H237 0.929 1_545 S
C215 C214 1.395 . S
C215 C216 1.335 . S
C216 C215 1.335 . S
C216 C217 1.398 . S
C216 H238 0.930 . S
C217 C212 1.381 1_554 S
C217 C216 1.398 . S
C217 H239 0.929 . S
C218 O228 1.271 . S
C218 O229 1.251 . S
C219 O230 1.252 . S
C219 O231 1.272 1_545 S
O220 Sm200 2.543 1_545 S
O220 C202 1.261 1_545 S
O221 Sm200 2.450 . S
O221 C202 1.242 . S
O222 Sm200 2.681 . S
O222 Sm201 2.386 1_565 S
O222 C209 1.271 . S
O223 Sm200 2.464 . S
O223 C209 1.251 . S
O224 Sm200 2.396 . S
O224 C210 1.252 . S
O225 Sm201 2.408 . S
O225 C210 1.272 1_545 S
O226 Sm201 2.543 1_565 S
O226 C211 1.261 1_565 S
O227 Sm201 2.450 . S
O227 C211 1.242 . S
O228 Sm200 2.386 1_545 S
O228 Sm201 2.681 . S
O228 C218 1.271 . S
O229 Sm201 2.464 . S
O229 C218 1.251 . S
O230 Sm201 2.396 . S
O230 C219 1.252 . S
O231 Sm200 2.408 . S
O231 C219 1.272 1_565 S
H232 C204 0.932 . S
H233 C205 0.929 1_545 S
H234 C207 0.930 . S
H235 C208 0.929 . S
H236 C213 0.932 1_565 S
H237 C214 0.929 1_565 S
H238 C216 0.930 . S
H239 C217 0.929 . S
Sm240 C242 2.846 . S
Sm240 O260 2.543 1_565 S
Sm240 O261 2.450 . S
Sm240 O262 2.681 1_554 S
Sm240 O263 2.464 1_554 S
Sm240 O264 2.396 . S
Sm240 O268 2.379 1_564 S
Sm240 O271 2.408 1_554 S
Sm241 C251 2.846 . S
Sm241 O262 2.386 1_545 S
Sm241 O265 2.408 . S
Sm241 O266 2.543 1_545 S
Sm241 O267 2.450 . S
Sm241 O268 2.698 . S
Sm241 O269 2.464 . S
Sm241 O270 2.396 . S
C242 Sm240 2.846 . S
C242 C243 1.506 . S
C242 O260 1.261 1_565 S
C242 O261 1.242 . S
C243 C242 1.506 . S
C243 C244 1.356 1_565 S
C243 C248 1.382 . S
C244 C243 1.356 1_545 S
C244 C245 1.385 1_545 S
C244 H272 0.932 . S
C245 C244 1.385 1_565 S
C245 C246 1.395 . S
C245 H273 0.929 1_565 S
C246 C245 1.395 . S
C246 C247 1.335 . S
C247 C246 1.335 . S
C247 C248 1.398 . S
C247 H274 0.930 . S
C248 C243 1.382 . S
C248 C247 1.398 . S
C248 H275 0.929 . S
C249 O262 1.271 . S
C249 O263 1.251 . S
C250 O264 1.252 . S
C250 O265 1.272 1_564 S
C251 Sm241 2.846 . S
C251 C252 1.506 . S
C251 O266 1.261 1_545 S
C251 O267 1.242 . S
C252 C251 1.506 . S
C252 C253 1.356 . S
C252 C257 1.382 . S
C253 C252 1.356 . S
C253 C254 1.385 . S
C253 H276 0.932 1_545 S
C254 C253 1.385 . S
C254 C255 1.395 . S
C254 H277 0.929 1_545 S
C255 C254 1.395 . S
C255 C256 1.335 . S
C256 C255 1.335 . S
C256 C257 1.398 . S
C256 H278 0.930 . S
C257 C252 1.382 . S
C257 C256 1.398 . S
C257 H279 0.929 . S
C258 O268 1.277 . S
C258 O269 1.251 . S
C259 O270 1.252 . S
C259 O271 1.272 1_545 S
O260 Sm240 2.543 1_545 S
O260 C242 1.261 1_545 S
O261 Sm240 2.450 . S
O261 C242 1.242 . S
O262 Sm240 2.681 1_556 S
O262 Sm241 2.386 1_565 S
O262 C249 1.271 . S
O263 Sm240 2.464 1_556 S
O263 C249 1.251 . S
O264 Sm240 2.396 . S
O264 C250 1.252 . S
O265 Sm241 2.408 . S
O265 C250 1.272 1_546 S
O266 Sm241 2.543 1_565 S
O266 C251 1.261 1_565 S
O267 Sm241 2.450 . S
O267 C251 1.242 . S
O268 Sm240 2.379 1_546 S
O268 Sm241 2.698 . S
O268 C258 1.277 . S
O269 Sm241 2.464 . S
O269 C258 1.251 . S
O270 Sm241 2.396 . S
O270 C259 1.252 . S
O271 Sm240 2.408 1_556 S
O271 C259 1.272 1_565 S
H272 C244 0.932 . S
H273 C245 0.929 1_545 S
H274 C247 0.930 . S
H275 C248 0.929 . S
H276 C253 0.932 1_565 S
H277 C254 0.929 1_565 S
H278 C256 0.930 . S
H279 C257 0.929 . S
Sm280 C282 2.846 . S
Sm280 O300 2.543 . S
Sm280 O301 2.450 . S
Sm280 O302 2.681 1_554 S
Sm280 O303 2.458 1_554 S
Sm280 O304 2.396 . S
Sm280 O308 2.385 1_554 S
Sm280 O311 2.408 1_554 S
Sm281 C291 2.846 . S
Sm281 O302 2.386 . S
Sm281 O305 2.408 . S
Sm281 O306 2.543 . S
Sm281 O307 2.450 . S
Sm281 O308 2.684 . S
Sm281 O309 2.464 . S
Sm281 O310 2.396 . S
C282 Sm280 2.846 . S
C282 C283 1.506 . S
C282 O300 1.261 . S
C282 O301 1.242 . S
C283 C282 1.506 . S
C283 C284 1.358 . S
C283 C288 1.382 . S
C284 C283 1.358 . S
C284 C285 1.385 . S
C284 H312 0.930 . S
C285 C284 1.385 . S
C285 C286 1.395 . S
C285 H313 0.929 . S
C286 C285 1.395 . S
C286 C287 1.335 . S
C287 C286 1.335 . S
C287 C288 1.398 . S
C287 H314 0.930 . S
C288 C283 1.382 . S
C288 C287 1.398 . S
C288 H315 0.929 . S
C289 O302 1.271 . S
C289 O303 1.267 . S
C290 O304 1.252 . S
C290 O305 1.272 1_554 S
C291 Sm281 2.846 . S
C291 C292 1.506 . S
C291 O306 1.261 . S
C291 O307 1.242 . S
C292 C291 1.506 . S
C292 C293 1.358 . S
C292 C297 1.382 . S
C293 C292 1.358 . S
C293 C294 1.385 . S
C293 H316 0.930 . S
C294 C293 1.385 . S
C294 C295 1.395 . S
C294 H317 0.929 . S
C295 C294 1.395 . S
C295 C296 1.335 . S
C296 C295 1.335 . S
C296 C297 1.398 . S
C296 H318 0.930 . S
C297 C292 1.382 . S
C297 C296 1.398 . S
C297 H319 0.929 . S
C298 O308 1.272 . S
C298 O309 1.251 . S
C299 O310 1.252 . S
C299 O311 1.272 . S
O300 Sm280 2.543 . S
O300 C282 1.261 . S
O301 Sm280 2.450 . S
O301 C282 1.242 . S
O302 Sm280 2.681 1_556 S
O302 Sm281 2.386 . S
O302 C289 1.271 . S
O303 Sm280 2.458 1_556 S
O303 C289 1.267 . S
O304 Sm280 2.396 . S
O304 C290 1.252 . S
O305 Sm281 2.408 . S
O305 C290 1.272 1_556 S
O306 Sm281 2.543 . S
O306 C291 1.261 . S
O307 Sm281 2.450 . S
O307 C291 1.242 . S
O308 Sm280 2.385 1_556 S
O308 Sm281 2.684 . S
O308 C298 1.272 . S
O309 Sm281 2.464 . S
O309 C298 1.251 . S
O310 Sm281 2.396 . S
O310 C299 1.252 . S
O311 Sm280 2.408 1_556 S
O311 C299 1.272 . S
H312 C284 0.930 . S
H313 C285 0.929 . S
H314 C287 0.930 . S
H315 C288 0.929 . S
H316 C293 0.930 . S
H317 C294 0.929 . S
H318 C296 0.930 . S
H319 C297 0.929 . S
Sm320 C322 2.846 . S
Sm320 O340 2.543 . S
Sm320 O341 2.450 . S
Sm320 O342 2.681 . S
Sm320 O343 2.464 . S
Sm320 O344 2.396 . S
Sm320 O348 2.386 . S
Sm320 O351 2.408 . S
Sm321 C331 2.846 . S
Sm321 O342 2.386 . S
Sm321 O345 2.408 . S
Sm321 O346 2.543 . S
Sm321 O347 2.450 . S
Sm321 O348 2.681 . S
Sm321 O349 2.464 . S
Sm321 O350 2.396 . S
C322 Sm320 2.846 . S
C322 C323 1.506 . S
C322 O340 1.261 . S
C322 O341 1.242 . S
C323 C322 1.506 . S
C323 C324 1.358 . S
C323 C328 1.382 . S
C324 C323 1.358 . S
C324 C325 1.385 . S
C324 H352 0.930 . S
C325 C324 1.385 . S
C325 C326 1.395 . S
C325 H353 0.929 . S
C326 C325 1.395 . S
C326 C327 1.335 . S
C327 C326 1.335 . S
C327 C328 1.398 . S
C327 H354 0.930 . S
C328 C323 1.382 . S
C328 C327 1.398 . S
C328 H355 0.929 . S
C329 O342 1.271 . S
C329 O343 1.251 . S
C330 O344 1.252 . S
C330 O345 1.272 . S
C331 Sm321 2.846 . S
C331 C332 1.506 . S
C331 O346 1.261 . S
C331 O347 1.242 . S
C332 C331 1.506 . S
C332 C333 1.358 . S
C332 C337 1.382 . S
C333 C332 1.358 . S
C333 C334 1.385 1_556 S
C333 H356 0.930 . S
C334 C333 1.385 1_554 S
C334 C335 1.395 . S
C334 H357 0.929 . S
C335 C334 1.395 . S
C335 C336 1.335 . S
C336 C335 1.335 . S
C336 C337 1.398 1_554 S
C336 H358 0.930 . S
C337 C332 1.382 . S
C337 C336 1.398 1_556 S
C337 H359 0.929 . S
C338 O348 1.271 . S
C338 O349 1.251 . S
C339 O350 1.252 . S
C339 O351 1.272 . S
O340 Sm320 2.543 . S
O340 C322 1.261 . S
O341 Sm320 2.450 . S
O341 C322 1.242 . S
O342 Sm320 2.681 . S
O342 Sm321 2.386 . S
O342 C329 1.271 . S
O343 Sm320 2.464 . S
O343 C329 1.251 . S
O344 Sm320 2.396 . S
O344 C330 1.252 . S
O345 Sm321 2.408 . S
O345 C330 1.272 . S
O346 Sm321 2.543 . S
O346 C331 1.261 . S
O347 Sm321 2.450 . S
O347 C331 1.242 . S
O348 Sm320 2.386 . S
O348 Sm321 2.681 . S
O348 C338 1.271 . S
O349 Sm321 2.464 . S
O349 C338 1.251 . S
O350 Sm321 2.396 . S
O350 C339 1.252 . S
O351 Sm320 2.408 . S
O351 C339 1.272 . S
H352 C324 0.930 . S
H353 C325 0.929 . S
H354 C327 0.930 . S
H355 C328 0.929 . S
H356 C333 0.930 . S
H357 C334 0.929 . S
H358 C336 0.930 . S
H359 C337 0.929 . S
Sm360 C362 2.846 . S
Sm360 O380 2.543 . S
Sm360 O381 2.450 . S
Sm360 O382 2.681 . S
Sm360 O383 2.464 . S
Sm360 O384 2.396 . S
Sm360 O388 2.386 . S
Sm360 O391 2.408 . S
Sm361 C371 2.846 . S
Sm361 O382 2.386 . S
Sm361 O385 2.408 . S
Sm361 O386 2.543 . S
Sm361 O387 2.450 . S
Sm361 O388 2.681 . S
Sm361 O389 2.464 . S
Sm361 O390 2.396 . S
C362 Sm360 2.846 . S
C362 C363 1.506 . S
C362 O380 1.261 . S
C362 O381 1.242 . S
C363 C362 1.506 . S
C363 C364 1.358 . S
C363 C368 1.382 . S
C364 C363 1.358 . S
C364 C365 1.385 . S
C364 H392 0.930 . S
C365 C364 1.385 . S
C365 C366 1.395 . S
C365 H393 0.929 . S
C366 C365 1.395 . S
C366 C367 1.335 . S
C367 C366 1.335 . S
C367 C368 1.398 . S
C367 H394 0.930 . S
C368 C363 1.382 . S
C368 C367 1.398 . S
C368 H395 0.929 . S
C369 O382 1.271 . S
C369 O383 1.251 . S
C370 O384 1.252 . S
C370 O385 1.272 . S
C371 Sm361 2.846 . S
C371 C372 1.506 . S
C371 O386 1.261 . S
C371 O387 1.242 . S
C372 C371 1.506 . S
C372 C373 1.358 . S
C372 C377 1.382 . S
C373 C372 1.358 . S
C373 C374 1.385 1_556 S
C373 H396 0.930 . S
C374 C373 1.385 1_554 S
C374 C375 1.395 . S
C374 H397 0.929 . S
C375 C374 1.395 . S
C375 C376 1.335 . S
C376 C375 1.335 . S
C376 C377 1.398 1_554 S
C376 H398 0.930 . S
C377 C372 1.382 . S
C377 C376 1.398 1_556 S
C377 H399 0.929 . S
C378 O388 1.271 . S
C378 O389 1.251 . S
C379 O390 1.252 . S
C379 O391 1.272 . S
O380 Sm360 2.543 . S
O380 C362 1.261 . S
O381 Sm360 2.450 . S
O381 C362 1.242 . S
O382 Sm360 2.681 . S
O382 Sm361 2.386 . S
O382 C369 1.271 . S
O383 Sm360 2.464 . S
O383 C369 1.251 . S
O384 Sm360 2.396 . S
O384 C370 1.252 . S
O385 Sm361 2.408 . S
O385 C370 1.272 . S
O386 Sm361 2.543 . S
O386 C371 1.261 . S
O387 Sm361 2.450 . S
O387 C371 1.242 . S
O388 Sm360 2.386 . S
O388 Sm361 2.681 . S
O388 C378 1.271 . S
O389 Sm361 2.464 . S
O389 C378 1.251 . S
O390 Sm361 2.396 . S
O390 C379 1.252 . S
O391 Sm360 2.408 . S
O391 C379 1.272 . S
H392 C364 0.930 . S
H393 C365 0.929 . S
H394 C367 0.930 . S
H395 C368 0.929 . S
H396 C373 0.930 . S
H397 C374 0.929 . S
H398 C376 0.930 . S
H399 C377 0.929 . S
Sm400 C402 2.846 . S
Sm400 O420 2.543 . S
Sm400 O421 2.450 . S
Sm400 O422 2.681 . S
Sm400 O423 2.464 . S
Sm400 O424 2.396 . S
Sm400 O428 2.386 . S
Sm400 O431 2.408 . S
Sm401 C411 2.846 . S
Sm401 O422 2.386 . S
Sm401 O425 2.408 . S
Sm401 O426 2.543 . S
Sm401 O427 2.450 . S
Sm401 O428 2.681 . S
Sm401 O429 2.464 . S
Sm401 O430 2.396 . S
C402 Sm400 2.846 . S
C402 C403 1.506 . S
C402 O420 1.261 . S
C402 O421 1.242 . S
C403 C402 1.506 . S
C403 C404 1.358 . S
C403 C408 1.382 . S
C404 C403 1.358 . S
C404 C405 1.385 . S
C404 H432 0.930 . S
C405 C404 1.385 . S
C405 C406 1.395 . S
C405 H433 0.929 . S
C406 C405 1.395 . S
C406 C407 1.335 . S
C407 C406 1.335 . S
C407 C408 1.398 . S
C407 H434 0.930 . S
C408 C403 1.382 . S
C408 C407 1.398 . S
C408 H435 0.929 . S
C409 O422 1.271 . S
C409 O423 1.251 . S
C410 O424 1.252 . S
C410 O425 1.272 . S
C411 Sm401 2.846 . S
C411 C412 1.506 . S
C411 O426 1.261 . S
C411 O427 1.242 . S
C412 C411 1.506 . S
C412 C413 1.358 . S
C412 C417 1.382 . S
C413 C412 1.358 . S
C413 C414 1.385 . S
C413 H436 0.930 . S
C414 C413 1.385 . S
C414 C415 1.395 . S
C414 H437 0.929 . S
C415 C414 1.395 . S
C415 C416 1.335 . S
C416 C415 1.335 . S
C416 C417 1.398 . S
C416 H438 0.930 . S
C417 C412 1.382 . S
C417 C416 1.398 . S
C417 H439 0.929 . S
C418 O428 1.271 . S
C418 O429 1.251 . S
C419 O430 1.252 . S
C419 O431 1.272 . S
O420 Sm400 2.543 . S
O420 C402 1.261 . S
O421 Sm400 2.450 . S
O421 C402 1.242 . S
O422 Sm400 2.681 . S
O422 Sm401 2.386 . S
O422 C409 1.271 . S
O423 Sm400 2.464 . S
O423 C409 1.251 . S
O424 Sm400 2.396 . S
O424 C410 1.252 . S
O425 Sm401 2.408 . S
O425 C410 1.272 . S
O426 Sm401 2.543 . S
O426 C411 1.261 . S
O427 Sm401 2.450 . S
O427 C411 1.242 . S
O428 Sm400 2.386 . S
O428 Sm401 2.681 . S
O428 C418 1.271 . S
O429 Sm401 2.464 . S
O429 C418 1.251 . S
O430 Sm401 2.396 . S
O430 C419 1.252 . S
O431 Sm400 2.408 . S
O431 C419 1.272 . S
H432 C404 0.930 . S
H433 C405 0.929 . S
H434 C407 0.930 . S
H435 C408 0.929 . S
H436 C413 0.930 . S
H437 C414 0.929 . S
H438 C416 0.930 . S
H439 C417 0.929 . S
Sm440 C442 2.846 . S
Sm440 O460 2.543 . S
Sm440 O461 2.450 . S
Sm440 O462 2.681 . S
Sm440 O463 2.464 . S
Sm440 O464 2.396 . S
Sm440 O468 2.386 . S
Sm440 O471 2.408 . S
Sm441 C451 2.846 . S
Sm441 O462 2.386 . S
Sm441 O465 2.408 . S
Sm441 O466 2.543 . S
Sm441 O467 2.450 . S
Sm441 O468 2.681 . S
Sm441 O469 2.464 . S
Sm441 O470 2.396 . S
C442 Sm440 2.846 . S
C442 C443 1.506 . S
C442 O460 1.261 . S
C442 O461 1.242 . S
C443 C442 1.506 . S
C443 C444 1.358 . S
C443 C448 1.382 . S
C444 C443 1.358 . S
C444 C445 1.385 . S
C444 H472 0.930 . S
C445 C444 1.385 . S
C445 C446 1.395 . S
C445 H473 0.929 . S
C446 C445 1.395 . S
C446 C447 1.335 . S
C447 C446 1.335 . S
C447 C448 1.398 . S
C447 H474 0.930 . S
C448 C443 1.382 . S
C448 C447 1.398 . S
C448 H475 0.929 . S
C449 O462 1.271 . S
C449 O463 1.251 . S
C450 O464 1.252 . S
C450 O465 1.272 . S
C451 Sm441 2.846 . S
C451 C452 1.506 . S
C451 O466 1.261 . S
C451 O467 1.242 . S
C452 C451 1.506 . S
C452 C453 1.358 . S
C452 C457 1.382 . S
C453 C452 1.358 . S
C453 C454 1.385 . S
C453 H476 0.930 . S
C454 C453 1.385 . S
C454 C455 1.395 . S
C454 H477 0.929 . S
C455 C454 1.395 . S
C455 C456 1.335 . S
C456 C455 1.335 . S
C456 C457 1.398 . S
C456 H478 0.930 . S
C457 C452 1.382 . S
C457 C456 1.398 . S
C457 H479 0.929 . S
C458 O468 1.271 . S
C458 O469 1.251 . S
C459 O470 1.252 . S
C459 O471 1.272 . S
O460 Sm440 2.543 . S
O460 C442 1.261 . S
O461 Sm440 2.450 . S
O461 C442 1.242 . S
O462 Sm440 2.681 . S
O462 Sm441 2.386 . S
O462 C449 1.271 . S
O463 Sm440 2.464 . S
O463 C449 1.251 . S
O464 Sm440 2.396 . S
O464 C450 1.252 . S
O465 Sm441 2.408 . S
O465 C450 1.272 . S
O466 Sm441 2.543 . S
O466 C451 1.261 . S
O467 Sm441 2.450 . S
O467 C451 1.242 . S
O468 Sm440 2.386 . S
O468 Sm441 2.681 . S
O468 C458 1.271 . S
O469 Sm441 2.464 . S
O469 C458 1.251 . S
O470 Sm441 2.396 . S
O470 C459 1.252 . S
O471 Sm440 2.408 . S
O471 C459 1.272 . S
H472 C444 0.930 . S
H473 C445 0.929 . S
H474 C447 0.930 . S
H475 C448 0.929 . S
H476 C453 0.930 . S
H477 C454 0.929 . S
H478 C456 0.930 . S
H479 C457 0.929 . S
Sm480 C482 2.846 . S
Sm480 O500 2.543 . S
Sm480 O501 2.450 . S
Sm480 O502 2.681 . S
Sm480 O503 2.464 . S
Sm480 O504 2.396 . S
Sm480 O508 2.386 . S
Sm480 O511 2.408 . S
Sm481 C491 2.846 . S
Sm481 O502 2.386 . S
Sm481 O505 2.408 . S
Sm481 O506 2.543 . S
Sm481 O507 2.450 . S
Sm481 O508 2.681 . S
Sm481 O509 2.464 . S
Sm481 O510 2.396 . S
C482 Sm480 2.846 . S
C482 C483 1.506 . S
C482 O500 1.261 . S
C482 O501 1.242 . S
C483 C482 1.506 . S
C483 C484 1.358 . S
C483 C488 1.382 . S
C484 C483 1.358 . S
C484 C485 1.385 1_554 S
C484 H512 0.930 . S
C485 C484 1.385 1_556 S
C485 C486 1.395 . S
C485 H513 0.929 . S
C486 C485 1.395 . S
C486 C487 1.335 . S
C487 C486 1.335 . S
C487 C488 1.398 1_556 S
C487 H514 0.930 . S
C488 C483 1.382 . S
C488 C487 1.398 1_554 S
C488 H515 0.929 . S
C489 O502 1.271 . S
C489 O503 1.251 . S
C490 O504 1.252 . S
C490 O505 1.272 . S
C491 Sm481 2.846 . S
C491 C492 1.506 . S
C491 O506 1.261 . S
C491 O507 1.242 . S
C492 C491 1.506 . S
C492 C493 1.358 . S
C492 C497 1.382 . S
C493 C492 1.358 . S
C493 C494 1.385 . S
C493 H516 0.930 . S
C494 C493 1.385 . S
C494 C495 1.395 . S
C494 H517 0.929 . S
C495 C494 1.395 . S
C495 C496 1.335 . S
C496 C495 1.335 . S
C496 C497 1.398 . S
C496 H518 0.930 . S
C497 C492 1.382 . S
C497 C496 1.398 . S
C497 H519 0.929 . S
C498 O508 1.271 . S
C498 O509 1.251 . S
C499 O510 1.252 . S
C499 O511 1.272 . S
O500 Sm480 2.543 . S
O500 C482 1.261 . S
O501 Sm480 2.450 . S
O501 C482 1.242 . S
O502 Sm480 2.681 . S
O502 Sm481 2.386 . S
O502 C489 1.271 . S
O503 Sm480 2.464 . S
O503 C489 1.251 . S
O504 Sm480 2.396 . S
O504 C490 1.252 . S
O505 Sm481 2.408 . S
O505 C490 1.272 . S
O506 Sm481 2.543 . S
O506 C491 1.261 . S
O507 Sm481 2.450 . S
O507 C491 1.242 . S
O508 Sm480 2.386 . S
O508 Sm481 2.681 . S
O508 C498 1.271 . S
O509 Sm481 2.464 . S
O509 C498 1.251 . S
O510 Sm481 2.396 . S
O510 C499 1.252 . S
O511 Sm480 2.408 . S
O511 C499 1.272 . S
H512 C484 0.930 . S
H513 C485 0.929 . S
H514 C487 0.930 . S
H515 C488 0.929 . S
H516 C493 0.930 . S
H517 C494 0.929 . S
H518 C496 0.930 . S
H519 C497 0.929 . S
Sm520 C522 2.846 . S
Sm520 O540 2.543 . S
Sm520 O541 2.450 . S
Sm520 O542 2.681 . S
Sm520 O543 2.464 . S
Sm520 O544 2.396 . S
Sm520 O548 2.386 . S
Sm520 O551 2.408 . S
Sm521 C531 2.846 . S
Sm521 O542 2.386 . S
Sm521 O545 2.408 . S
Sm521 O546 2.543 . S
Sm521 O547 2.450 . S
Sm521 O548 2.681 . S
Sm521 O549 2.464 . S
Sm521 O550 2.396 . S
C522 Sm520 2.846 . S
C522 C523 1.506 . S
C522 O540 1.261 . S
C522 O541 1.242 . S
C523 C522 1.506 . S
C523 C524 1.358 . S
C523 C528 1.382 . S
C524 C523 1.358 . S
C524 C525 1.385 1_554 S
C524 H552 0.930 . S
C525 C524 1.385 1_556 S
C525 C526 1.395 . S
C525 H553 0.929 . S
C526 C525 1.395 . S
C526 C527 1.335 . S
C527 C526 1.335 . S
C527 C528 1.398 1_556 S
C527 H554 0.930 . S
C528 C523 1.382 . S
C528 C527 1.398 1_554 S
C528 H555 0.929 . S
C529 O542 1.271 . S
C529 O543 1.251 . S
C530 O544 1.252 . S
C530 O545 1.272 . S
C531 Sm521 2.846 . S
C531 C532 1.506 . S
C531 O546 1.261 . S
C531 O547 1.242 . S
C532 C531 1.506 . S
C532 C533 1.358 . S
C532 C537 1.382 . S
C533 C532 1.358 . S
C533 C534 1.385 . S
C533 H556 0.930 . S
C534 C533 1.385 . S
C534 C535 1.395 . S
C534 H557 0.929 . S
C535 C534 1.395 . S
C535 C536 1.335 . S
C536 C535 1.335 . S
C536 C537 1.398 . S
C536 H558 0.930 . S
C537 C532 1.382 . S
C537 C536 1.398 . S
C537 H559 0.929 . S
C538 O548 1.271 . S
C538 O549 1.251 . S
C539 O550 1.252 . S
C539 O551 1.272 . S
O540 Sm520 2.543 . S
O540 C522 1.261 . S
O541 Sm520 2.450 . S
O541 C522 1.242 . S
O542 Sm520 2.681 . S
O542 Sm521 2.386 . S
O542 C529 1.271 . S
O543 Sm520 2.464 . S
O543 C529 1.251 . S
O544 Sm520 2.396 . S
O544 C530 1.252 . S
O545 Sm521 2.408 . S
O545 C530 1.272 . S
O546 Sm521 2.543 . S
O546 C531 1.261 . S
O547 Sm521 2.450 . S
O547 C531 1.242 . S
O548 Sm520 2.386 . S
O548 Sm521 2.681 . S
O548 C538 1.271 . S
O549 Sm521 2.464 . S
O549 C538 1.251 . S
O550 Sm521 2.396 . S
O550 C539 1.252 . S
O551 Sm520 2.408 . S
O551 C539 1.272 . S
H552 C524 0.930 . S
H553 C525 0.929 . S
H554 C527 0.930 . S
H555 C528 0.929 . S
H556 C533 0.930 . S
H557 C534 0.929 . S
H558 C536 0.930 . S
H559 C537 0.929 . S
Sm560 C562 2.846 . S
Sm560 O580 2.543 . S
Sm560 O581 2.450 . S
Sm560 O582 2.681 . S
Sm560 O583 2.464 . S
Sm560 O584 2.396 . S
Sm560 O588 2.386 . S
Sm560 O591 2.408 . S
Sm561 C571 2.846 . S
Sm561 O582 2.386 . S
Sm561 O585 2.408 . S
Sm561 O586 2.543 . S
Sm561 O587 2.450 . S
Sm561 O588 2.681 . S
Sm561 O589 2.464 . S
Sm561 O590 2.396 . S
C562 Sm560 2.846 . S
C562 C563 1.506 . S
C562 O580 1.261 . S
C562 O581 1.242 . S
C563 C562 1.506 . S
C563 C564 1.358 . S
C563 C568 1.382 . S
C564 C563 1.358 . S
C564 C565 1.385 . S
C564 H592 0.930 . S
C565 C564 1.385 . S
C565 C566 1.395 . S
C565 H593 0.929 . S
C566 C565 1.395 . S
C566 C567 1.335 . S
C567 C566 1.335 . S
C567 C568 1.398 . S
C567 H594 0.930 . S
C568 C563 1.382 . S
C568 C567 1.398 . S
C568 H595 0.929 . S
C569 O582 1.271 . S
C569 O583 1.251 . S
C570 O584 1.252 . S
C570 O585 1.272 . S
C571 Sm561 2.846 . S
C571 C572 1.506 . S
C571 O586 1.261 . S
C571 O587 1.242 . S
C572 C571 1.506 . S
C572 C573 1.358 . S
C572 C577 1.382 . S
C573 C572 1.358 . S
C573 C574 1.385 . S
C573 H596 0.930 . S
C574 C573 1.385 . S
C574 C575 1.395 . S
C574 H597 0.929 . S
C575 C574 1.395 . S
C575 C576 1.335 . S
C576 C575 1.335 . S
C576 C577 1.398 . S
C576 H598 0.930 . S
C577 C572 1.382 . S
C577 C576 1.398 . S
C577 H599 0.929 . S
C578 O588 1.271 . S
C578 O589 1.251 . S
C579 O590 1.252 . S
C579 O591 1.272 . S
O580 Sm560 2.543 . S
O580 C562 1.261 . S
O581 Sm560 2.450 . S
O581 C562 1.242 . S
O582 Sm560 2.681 . S
O582 Sm561 2.386 . S
O582 C569 1.271 . S
O583 Sm560 2.464 . S
O583 C569 1.251 . S
O584 Sm560 2.396 . S
O584 C570 1.252 . S
O585 Sm561 2.408 . S
O585 C570 1.272 . S
O586 Sm561 2.543 . S
O586 C571 1.261 . S
O587 Sm561 2.450 . S
O587 C571 1.242 . S
O588 Sm560 2.386 . S
O588 Sm561 2.681 . S
O588 C578 1.271 . S
O589 Sm561 2.464 . S
O589 C578 1.251 . S
O590 Sm561 2.396 . S
O590 C579 1.252 . S
O591 Sm560 2.408 . S
O591 C579 1.272 . S
H592 C564 0.930 . S
H593 C565 0.929 . S
H594 C567 0.930 . S
H595 C568 0.929 . S
H596 C573 0.930 . S
H597 C574 0.929 . S
H598 C576 0.930 . S
H599 C577 0.929 . S
Sm600 C602 2.846 . S
Sm600 O620 2.543 . S
Sm600 O621 2.450 . S
Sm600 O622 2.681 . S
Sm600 O623 2.464 . S
Sm600 O624 2.396 . S
Sm600 O628 2.386 . S
Sm600 O631 2.408 . S
Sm601 C611 2.846 . S
Sm601 O622 2.386 . S
Sm601 O625 2.408 . S
Sm601 O626 2.543 . S
Sm601 O627 2.450 . S
Sm601 O628 2.681 . S
Sm601 O629 2.464 . S
Sm601 O630 2.396 . S
C602 Sm600 2.846 . S
C602 C603 1.506 . S
C602 O620 1.261 . S
C602 O621 1.242 . S
C603 C602 1.506 . S
C603 C604 1.358 . S
C603 C608 1.382 . S
C604 C603 1.358 . S
C604 C605 1.385 . S
C604 H632 0.930 . S
C605 C604 1.385 . S
C605 C606 1.395 . S
C605 H633 0.929 . S
C606 C605 1.395 . S
C606 C607 1.335 . S
C607 C606 1.335 . S
C607 C608 1.398 . S
C607 H634 0.930 . S
C608 C603 1.382 . S
C608 C607 1.398 . S
C608 H635 0.929 . S
C609 O622 1.271 . S
C609 O623 1.251 . S
C610 O624 1.252 . S
C610 O625 1.272 . S
C611 Sm601 2.846 . S
C611 C612 1.506 . S
C611 O626 1.261 . S
C611 O627 1.242 . S
C612 C611 1.506 . S
C612 C613 1.358 . S
C612 C617 1.382 . S
C613 C612 1.358 . S
C613 C614 1.385 . S
C613 H636 0.930 . S
C614 C613 1.385 . S
C614 C615 1.395 . S
C614 H637 0.929 . S
C615 C614 1.395 . S
C615 C616 1.335 . S
C616 C615 1.335 . S
C616 C617 1.398 . S
C616 H638 0.930 . S
C617 C612 1.382 . S
C617 C616 1.398 . S
C617 H639 0.929 . S
C618 O628 1.271 . S
C618 O629 1.251 . S
C619 O630 1.252 . S
C619 O631 1.272 . S
O620 Sm600 2.543 . S
O620 C602 1.261 . S
O621 Sm600 2.450 . S
O621 C602 1.242 . S
O622 Sm600 2.681 . S
O622 Sm601 2.386 . S
O622 C609 1.271 . S
O623 Sm600 2.464 . S
O623 C609 1.251 . S
O624 Sm600 2.396 . S
O624 C610 1.252 . S
O625 Sm601 2.408 . S
O625 C610 1.272 . S
O626 Sm601 2.543 . S
O626 C611 1.261 . S
O627 Sm601 2.450 . S
O627 C611 1.242 . S
O628 Sm600 2.386 . S
O628 Sm601 2.681 . S
O628 C618 1.271 . S
O629 Sm601 2.464 . S
O629 C618 1.251 . S
O630 Sm601 2.396 . S
O630 C619 1.252 . S
O631 Sm600 2.408 . S
O631 C619 1.272 . S
H632 C604 0.930 . S
H633 C605 0.929 . S
H634 C607 0.930 . S
H635 C608 0.929 . S
H636 C613 0.930 . S
H637 C614 0.929 . S
H638 C616 0.930 . S
H639 C617 0.929 . S
Sm640 C642 2.846 . S
Sm640 O660 2.543 . S
Sm640 O661 2.450 . S
Sm640 O662 2.681 . S
Sm640 O663 2.464 . S
Sm640 O664 2.396 . S
Sm640 O668 2.386 . S
Sm640 O671 2.408 . S
Sm641 C651 2.846 . S
Sm641 O662 2.386 . S
Sm641 O665 2.408 . S
Sm641 O666 2.543 . S
Sm641 O667 2.450 . S
Sm641 O668 2.681 . S
Sm641 O669 2.464 . S
Sm641 O670 2.396 . S
C642 Sm640 2.846 . S
C642 C643 1.506 . S
C642 O660 1.261 . S
C642 O661 1.242 . S
C643 C642 1.506 . S
C643 C644 1.358 . S
C643 C648 1.382 . S
C644 C643 1.358 . S
C644 C645 1.385 . S
C644 H672 0.930 . S
C645 C644 1.385 . S
C645 C646 1.395 . S
C645 H673 0.929 . S
C646 C645 1.395 . S
C646 C647 1.335 . S
C647 C646 1.335 . S
C647 C648 1.398 . S
C647 H674 0.930 . S
C648 C643 1.382 . S
C648 C647 1.398 . S
C648 H675 0.929 . S
C649 O662 1.271 . S
C649 O663 1.251 . S
C650 O664 1.252 . S
C650 O665 1.272 . S
C651 Sm641 2.846 . S
C651 C652 1.506 . S
C651 O666 1.261 . S
C651 O667 1.242 . S
C652 C651 1.506 . S
C652 C653 1.358 . S
C652 C657 1.382 . S
C653 C652 1.358 . S
C653 C654 1.385 1_556 S
C653 H676 0.930 . S
C654 C653 1.385 1_554 S
C654 C655 1.395 . S
C654 H677 0.929 . S
C655 C654 1.395 . S
C655 C656 1.335 . S
C656 C655 1.335 . S
C656 C657 1.398 1_554 S
C656 H678 0.930 . S
C657 C652 1.382 . S
C657 C656 1.398 1_556 S
C657 H679 0.929 . S
C658 O668 1.271 . S
C658 O669 1.251 . S
C659 O670 1.252 . S
C659 O671 1.272 . S
O660 Sm640 2.543 . S
O660 C642 1.261 . S
O661 Sm640 2.450 . S
O661 C642 1.242 . S
O662 Sm640 2.681 . S
O662 Sm641 2.386 . S
O662 C649 1.271 . S
O663 Sm640 2.464 . S
O663 C649 1.251 . S
O664 Sm640 2.396 . S
O664 C650 1.252 . S
O665 Sm641 2.408 . S
O665 C650 1.272 . S
O666 Sm641 2.543 . S
O666 C651 1.261 . S
O667 Sm641 2.450 . S
O667 C651 1.242 . S
O668 Sm640 2.386 . S
O668 Sm641 2.681 . S
O668 C658 1.271 . S
O669 Sm641 2.464 . S
O669 C658 1.251 . S
O670 Sm641 2.396 . S
O670 C659 1.252 . S
O671 Sm640 2.408 . S
O671 C659 1.272 . S
H672 C644 0.930 . S
H673 C645 0.929 . S
H674 C647 0.930 . S
H675 C648 0.929 . S
H676 C653 0.930 . S
H677 C654 0.929 . S
H678 C656 0.930 . S
H679 C657 0.929 . S
Sm680 C682 2.846 . S
Sm680 O700 2.543 1_565 S
Sm680 O701 2.450 . S
Sm680 O702 2.681 . S
Sm680 O703 2.464 . S
Sm680 O704 2.396 . S
Sm680 O708 2.386 1_565 S
Sm680 O711 2.408 . S
Sm681 C691 2.846 . S
Sm681 O702 2.386 1_545 S
Sm681 O705 2.408 . S
Sm681 O706 2.543 1_545 S
Sm681 O707 2.450 . S
Sm681 O708 2.681 . S
Sm681 O709 2.464 . S
Sm681 O710 2.396 . S
C682 Sm680 2.846 . S
C682 C683 1.506 . S
C682 O700 1.261 1_565 S
C682 O701 1.242 . S
C683 C682 1.506 . S
C683 C684 1.356 . S
C683 C688 1.382 . S
C684 C683 1.356 . S
C684 C685 1.385 . S
C684 H712 0.932 1_565 S
C685 C684 1.385 . S
C685 C686 1.395 . S
C685 H713 0.929 1_565 S
C686 C685 1.395 . S
C686 C687 1.335 . S
C687 C686 1.335 . S
C687 C688 1.398 . S
C687 H714 0.930 . S
C688 C683 1.382 . S
C688 C687 1.398 . S
C688 H715 0.929 . S
C689 O702 1.271 . S
C689 O703 1.251 . S
C690 O704 1.252 . S
C690 O705 1.272 1_565 S
C691 Sm681 2.846 . S
C691 C692 1.506 . S
C691 O706 1.261 1_545 S
C691 O707 1.242 . S
C692 C691 1.506 . S
C692 C693 1.356 1_545 S
C692 C697 1.382 . S
C693 C692 1.356 1_565 S
C693 C694 1.385 1_566 S
C693 H716 0.932 . S
C694 C693 1.385 1_544 S
C694 C695 1.395 . S
C694 H717 0.929 1_545 S
C695 C694 1.395 . S
C695 C696 1.335 . S
C696 C695 1.335 . S
C696 C697 1.398 1_554 S
C696 H718 0.930 . S
C697 C692 1.382 . S
C697 C696 1.398 1_556 S
C697 H719 0.929 . S
C698 O708 1.271 . S
C698 O709 1.251 . S
C699 O710 1.252 . S
C699 O711 1.272 1_545 S
O700 Sm680 2.543 1_545 S
O700 C682 1.261 1_545 S
O701 Sm680 2.450 . S
O701 C682 1.242 . S
O702 Sm680 2.681 . S
O702 Sm681 2.386 1_565 S
O702 C689 1.271 . S
O703 Sm680 2.464 . S
O703 C689 1.251 . S
O704 Sm680 2.396 . S
O704 C690 1.252 . S
O705 Sm681 2.408 . S
O705 C690 1.272 1_545 S
O706 Sm681 2.543 1_565 S
O706 C691 1.261 1_565 S
O707 Sm681 2.450 . S
O707 C691 1.242 . S
O708 Sm680 2.386 1_545 S
O708 Sm681 2.681 . S
O708 C698 1.271 . S
O709 Sm681 2.464 . S
O709 C698 1.251 . S
O710 Sm681 2.396 . S
O710 C699 1.252 . S
O711 Sm680 2.408 . S
O711 C699 1.272 1_565 S
H712 C684 0.932 1_545 S
H713 C685 0.929 1_545 S
H714 C687 0.930 . S
H715 C688 0.929 . S
H716 C693 0.932 . S
H717 C694 0.929 1_565 S
H718 C696 0.930 . S
H719 C697 0.929 . S
Sm720 C722 2.846 . S
Sm720 O740 2.543 1_565 S
Sm720 O741 2.450 . S
Sm720 O742 2.681 . S
Sm720 O743 2.464 . S
Sm720 O744 2.396 . S
Sm720 O748 2.386 1_565 S
Sm720 O751 2.408 . S
Sm721 C731 2.846 . S
Sm721 O742 2.386 1_545 S
Sm721 O745 2.408 . S
Sm721 O746 2.543 1_545 S
Sm721 O747 2.450 . S
Sm721 O748 2.681 . S
Sm721 O749 2.464 . S
Sm721 O750 2.396 . S
C722 Sm720 2.846 . S
C722 C723 1.506 . S
C722 O740 1.261 1_565 S
C722 O741 1.242 . S
C723 C722 1.506 . S
C723 C724 1.356 . S
C723 C728 1.382 . S
C724 C723 1.356 . S
C724 C725 1.385 . S
C724 H752 0.932 1_565 S
C725 C724 1.385 . S
C725 C726 1.395 . S
C725 H753 0.929 1_565 S
C726 C725 1.395 . S
C726 C727 1.335 . S
C727 C726 1.335 . S
C727 C728 1.398 . S
C727 H754 0.930 . S
C728 C723 1.382 . S
C728 C727 1.398 . S
C728 H755 0.929 . S
C729 O742 1.271 . S
C729 O743 1.251 . S
C730 O744 1.252 . S
C730 O745 1.272 1_565 S
C731 Sm721 2.846 . S
C731 C732 1.506 . S
C731 O746 1.261 1_545 S
C731 O747 1.242 . S
C732 C731 1.506 . S
C732 C733 1.356 1_545 S
C732 C737 1.382 . S
C733 C732 1.356 1_565 S
C733 C734 1.385 1_565 S
C733 H756 0.932 . S
C734 C733 1.385 1_545 S
C734 C735 1.395 . S
C734 H757 0.929 1_545 S
C735 C734 1.395 . S
C735 C736 1.335 . S
C736 C735 1.335 . S
C736 C737 1.398 . S
C736 H758 0.930 . S
C737 C732 1.382 . S
C737 C736 1.398 . S
C737 H759 0.929 . S
C738 O748 1.271 . S
C738 O749 1.251 . S
C739 O750 1.252 . S
C739 O751 1.272 1_545 S
O740 Sm720 2.543 1_545 S
O740 C722 1.261 1_545 S
O741 Sm720 2.450 . S
O741 C722 1.242 . S
O742 Sm720 2.681 . S
O742 Sm721 2.386 1_565 S
O742 C729 1.271 . S
O743 Sm720 2.464 . S
O743 C729 1.251 . S
O744 Sm720 2.396 . S
O744 C730 1.252 . S
O745 Sm721 2.408 . S
O745 C730 1.272 1_545 S
O746 Sm721 2.543 1_565 S
O746 C731 1.261 1_565 S
O747 Sm721 2.450 . S
O747 C731 1.242 . S
O748 Sm720 2.386 1_545 S
O748 Sm721 2.681 . S
O748 C738 1.271 . S
O749 Sm721 2.464 . S
O749 C738 1.251 . S
O750 Sm721 2.396 . S
O750 C739 1.252 . S
O751 Sm720 2.408 . S
O751 C739 1.272 1_565 S
H752 C724 0.932 1_545 S
H753 C725 0.929 1_545 S
H754 C727 0.930 . S
H755 C728 0.929 . S
H756 C733 0.932 . S
H757 C734 0.929 1_565 S
H758 C736 0.930 . S
H759 C737 0.929 . S
Sm760 C762 2.846 . S
Sm760 O780 2.543 . S
Sm760 O781 2.450 . S
Sm760 O782 2.681 . S
Sm760 O783 2.464 . S
Sm760 O784 2.396 . S
Sm760 O788 2.386 . S
Sm760 O791 2.408 . S
Sm761 C771 2.846 . S
Sm761 O782 2.386 . S
Sm761 O785 2.408 . S
Sm761 O786 2.543 . S
Sm761 O787 2.450 . S
Sm761 O788 2.681 . S
Sm761 O789 2.464 . S
Sm761 O790 2.396 . S
C762 Sm760 2.846 . S
C762 C763 1.506 . S
C762 O780 1.261 . S
C762 O781 1.242 . S
C763 C762 1.506 . S
C763 C764 1.358 . S
C763 C768 1.382 . S
C764 C763 1.358 . S
C764 C765 1.385 . S
C764 H792 0.930 . S
C765 C764 1.385 . S
C765 C766 1.395 . S
C765 H793 0.929 . S
C766 C765 1.395 . S
C766 C767 1.335 . S
C767 C766 1.335 . S
C767 C768 1.398 . S
C767 H794 0.930 . S
C768 C763 1.382 . S
C768 C767 1.398 . S
C768 H795 0.929 . S
C769 O782 1.271 . S
C769 O783 1.251 . S
C770 O784 1.252 . S
C770 O785 1.272 . S
C771 Sm761 2.846 . S
C771 C772 1.506 . S
C771 O786 1.261 . S
C771 O787 1.242 . S
C772 C771 1.506 . S
C772 C773 1.358 . S
C772 C777 1.382 . S
C773 C772 1.358 . S
C773 C774 1.385 . S
C773 H796 0.930 . S
C774 C773 1.385 . S
C774 C775 1.395 . S
C774 H797 0.929 . S
C775 C774 1.395 . S
C775 C776 1.335 . S
C776 C775 1.335 . S
C776 C777 1.398 . S
C776 H798 0.930 . S
C777 C772 1.382 . S
C777 C776 1.398 . S
C777 H799 0.929 . S
C778 O788 1.271 . S
C778 O789 1.251 . S
C779 O790 1.252 . S
C779 O791 1.272 . S
O780 Sm760 2.543 . S
O780 C762 1.261 . S
O781 Sm760 2.450 . S
O781 C762 1.242 . S
O782 Sm760 2.681 . S
O782 Sm761 2.386 . S
O782 C769 1.271 . S
O783 Sm760 2.464 . S
O783 C769 1.251 . S
O784 Sm760 2.396 . S
O784 C770 1.252 . S
O785 Sm761 2.408 . S
O785 C770 1.272 . S
O786 Sm761 2.543 . S
O786 C771 1.261 . S
O787 Sm761 2.450 . S
O787 C771 1.242 . S
O788 Sm760 2.386 . S
O788 Sm761 2.681 . S
O788 C778 1.271 . S
O789 Sm761 2.464 . S
O789 C778 1.251 . S
O790 Sm761 2.396 . S
O790 C779 1.252 . S
O791 Sm760 2.408 . S
O791 C779 1.272 . S
H792 C764 0.930 . S
H793 C765 0.929 . S
H794 C767 0.930 . S
H795 C768 0.929 . S
H796 C773 0.930 . S
H797 C774 0.929 . S
H798 C776 0.930 . S
H799 C777 0.929 . S
Sm800 C802 2.846 . S
Sm800 O820 2.543 . S
Sm800 O821 2.450 . S
Sm800 O822 2.681 . S
Sm800 O823 2.464 . S
Sm800 O824 2.396 . S
Sm800 O828 2.386 . S
Sm800 O831 2.408 . S
Sm801 C811 2.846 . S
Sm801 O822 2.386 . S
Sm801 O825 2.408 . S
Sm801 O826 2.543 . S
Sm801 O827 2.450 . S
Sm801 O828 2.681 . S
Sm801 O829 2.464 . S
Sm801 O830 2.396 . S
C802 Sm800 2.846 . S
C802 C803 1.506 . S
C802 O820 1.261 . S
C802 O821 1.242 . S
C803 C802 1.506 . S
C803 C804 1.358 . S
C803 C808 1.382 . S
C804 C803 1.358 . S
C804 C805 1.385 1_554 S
C804 H832 0.930 . S
C805 C804 1.385 1_556 S
C805 C806 1.395 . S
C805 H833 0.929 . S
C806 C805 1.395 . S
C806 C807 1.335 . S
C807 C806 1.335 . S
C807 C808 1.398 1_556 S
C807 H834 0.930 . S
C808 C803 1.382 . S
C808 C807 1.398 1_554 S
C808 H835 0.929 . S
C809 O822 1.271 . S
C809 O823 1.251 . S
C810 O824 1.252 . S
C810 O825 1.272 . S
C811 Sm801 2.846 . S
C811 C812 1.506 . S
C811 O826 1.261 . S
C811 O827 1.242 . S
C812 C811 1.506 . S
C812 C813 1.358 . S
C812 C817 1.382 . S
C813 C812 1.358 . S
C813 C814 1.385 . S
C813 H836 0.930 . S
C814 C813 1.385 . S
C814 C815 1.395 . S
C814 H837 0.929 . S
C815 C814 1.395 . S
C815 C816 1.335 . S
C816 C815 1.335 . S
C816 C817 1.398 . S
C816 H838 0.930 . S
C817 C812 1.382 . S
C817 C816 1.398 . S
C817 H839 0.929 . S
C818 O828 1.271 . S
C818 O829 1.251 . S
C819 O830 1.252 . S
C819 O831 1.272 . S
O820 Sm800 2.543 . S
O820 C802 1.261 . S
O821 Sm800 2.450 . S
O821 C802 1.242 . S
O822 Sm800 2.681 . S
O822 Sm801 2.386 . S
O822 C809 1.271 . S
O823 Sm800 2.464 . S
O823 C809 1.251 . S
O824 Sm800 2.396 . S
O824 C810 1.252 . S
O825 Sm801 2.408 . S
O825 C810 1.272 . S
O826 Sm801 2.543 . S
O826 C811 1.261 . S
O827 Sm801 2.450 . S
O827 C811 1.242 . S
O828 Sm800 2.386 . S
O828 Sm801 2.681 . S
O828 C818 1.271 . S
O829 Sm801 2.464 . S
O829 C818 1.251 . S
O830 Sm801 2.396 . S
O830 C819 1.252 . S
O831 Sm800 2.408 . S
O831 C819 1.272 . S
H832 C804 0.930 . S
H833 C805 0.929 . S
H834 C807 0.930 . S
H835 C808 0.929 . S
H836 C813 0.930 . S
H837 C814 0.929 . S
H838 C816 0.930 . S
H839 C817 0.929 . S
Sm840 C842 2.846 . S
Sm840 O860 2.543 1_565 S
Sm840 O861 2.450 . S
Sm840 O862 2.681 . S
Sm840 O863 2.464 . S
Sm840 O864 2.396 . S
Sm840 O868 2.386 1_565 S
Sm840 O871 2.408 . S
Sm841 C851 2.846 . S
Sm841 O862 2.386 1_545 S
Sm841 O865 2.408 . S
Sm841 O866 2.543 1_545 S
Sm841 O867 2.450 . S
Sm841 O868 2.681 . S
Sm841 O869 2.464 . S
Sm841 O870 2.396 . S
C842 Sm840 2.846 . S
C842 C843 1.506 . S
C842 O860 1.261 1_565 S
C842 O861 1.242 . S
C843 C842 1.506 . S
C843 C844 1.356 1_565 S
C843 C848 1.382 . S
C844 C843 1.356 1_545 S
C844 C845 1.385 1_544 S
C844 H872 0.932 . S
C845 C844 1.385 1_566 S
C845 C846 1.395 . S
C845 H873 0.929 1_565 S
C846 C845 1.395 . S
C846 C847 1.335 . S
C847 C846 1.335 . S
C847 C848 1.398 1_556 S
C847 H874 0.930 . S
C848 C843 1.382 . S
C848 C847 1.398 1_554 S
C848 H875 0.929 . S
C849 O862 1.271 . S
C849 O863 1.251 . S
C850 O864 1.252 . S
C850 O865 1.272 1_565 S
C851 Sm841 2.846 . S
C851 C852 1.506 . S
C851 O866 1.261 1_545 S
C851 O867 1.242 . S
C852 C851 1.506 . S
C852 C853 1.356 . S
C852 C857 1.382 . S
C853 C852 1.356 . S
C853 C854 1.385 . S
C853 H876 0.932 1_545 S
C854 C853 1.385 . S
C854 C855 1.395 . S
C854 H877 0.929 1_545 S
C855 C854 1.395 . S
C855 C856 1.335 . S
C856 C855 1.335 . S
C856 C857 1.398 . S
C856 H878 0.930 . S
C857 C852 1.382 . S
C857 C856 1.398 . S
C857 H879 0.929 . S
C858 O868 1.271 . S
C858 O869 1.251 . S
C859 O870 1.252 . S
C859 O871 1.272 1_545 S
O860 Sm840 2.543 1_545 S
O860 C842 1.261 1_545 S
O861 Sm840 2.450 . S
O861 C842 1.242 . S
O862 Sm840 2.681 . S
O862 Sm841 2.386 1_565 S
O862 C849 1.271 . S
O863 Sm840 2.464 . S
O863 C849 1.251 . S
O864 Sm840 2.396 . S
O864 C850 1.252 . S
O865 Sm841 2.408 . S
O865 C850 1.272 1_545 S
O866 Sm841 2.543 1_565 S
O866 C851 1.261 1_565 S
O867 Sm841 2.450 . S
O867 C851 1.242 . S
O868 Sm840 2.386 1_545 S
O868 Sm841 2.681 . S
O868 C858 1.271 . S
O869 Sm841 2.464 . S
O869 C858 1.251 . S
O870 Sm841 2.396 . S
O870 C859 1.252 . S
O871 Sm840 2.408 . S
O871 C859 1.272 1_565 S
H872 C844 0.932 . S
H873 C845 0.929 1_545 S
H874 C847 0.930 . S
H875 C848 0.929 . S
H876 C853 0.932 1_565 S
H877 C854 0.929 1_565 S
H878 C856 0.930 . S
H879 C857 0.929 . S
Sm880 C882 2.846 . S
Sm880 O900 2.543 1_565 S
Sm880 O901 2.450 . S
Sm880 O902 2.681 . S
Sm880 O903 2.464 . S
Sm880 O904 2.396 . S
Sm880 O908 2.386 1_565 S
Sm880 O911 2.408 . S
Sm881 C891 2.846 . S
Sm881 O902 2.386 1_545 S
Sm881 O905 2.408 . S
Sm881 O906 2.543 1_545 S
Sm881 O907 2.450 . S
Sm881 O908 2.681 . S
Sm881 O909 2.464 . S
Sm881 O910 2.396 . S
C882 Sm880 2.846 . S
C882 C883 1.506 . S
C882 O900 1.261 1_565 S
C882 O901 1.242 . S
C883 C882 1.506 . S
C883 C884 1.356 1_565 S
C883 C888 1.382 . S
C884 C883 1.356 1_545 S
C884 C885 1.385 1_545 S
C884 H912 0.932 . S
C885 C884 1.385 1_565 S
C885 C886 1.395 . S
C885 H913 0.929 1_565 S
C886 C885 1.395 . S
C886 C887 1.335 . S
C887 C886 1.335 . S
C887 C888 1.398 . S
C887 H914 0.930 . S
C888 C883 1.382 . S
C888 C887 1.398 . S
C888 H915 0.929 . S
C889 O902 1.271 . S
C889 O903 1.251 . S
C890 O904 1.252 . S
C890 O905 1.272 1_565 S
C891 Sm881 2.846 . S
C891 C892 1.506 . S
C891 O906 1.261 1_545 S
C891 O907 1.242 . S
C892 C891 1.506 . S
C892 C893 1.356 . S
C892 C897 1.382 . S
C893 C892 1.356 . S
C893 C894 1.385 . S
C893 H916 0.932 1_545 S
C894 C893 1.385 . S
C894 C895 1.395 . S
C894 H917 0.929 1_545 S
C895 C894 1.395 . S
C895 C896 1.335 . S
C896 C895 1.335 . S
C896 C897 1.398 . S
C896 H918 0.930 . S
C897 C892 1.382 . S
C897 C896 1.398 . S
C897 H919 0.929 . S
C898 O908 1.271 . S
C898 O909 1.251 . S
C899 O910 1.252 . S
C899 O911 1.272 1_545 S
O900 Sm880 2.543 1_545 S
O900 C882 1.261 1_545 S
O901 Sm880 2.450 . S
O901 C882 1.242 . S
O902 Sm880 2.681 . S
O902 Sm881 2.386 1_565 S
O902 C889 1.271 . S
O903 Sm880 2.464 . S
O903 C889 1.251 . S
O904 Sm880 2.396 . S
O904 C890 1.252 . S
O905 Sm881 2.408 . S
O905 C890 1.272 1_545 S
O906 Sm881 2.543 1_565 S
O906 C891 1.261 1_565 S
O907 Sm881 2.450 . S
O907 C891 1.242 . S
O908 Sm880 2.386 1_545 S
O908 Sm881 2.681 . S
O908 C898 1.271 . S
O909 Sm881 2.464 . S
O909 C898 1.251 . S
O910 Sm881 2.396 . S
O910 C899 1.252 . S
O911 Sm880 2.408 . S
O911 C899 1.272 1_565 S
H912 C884 0.932 . S
H913 C885 0.929 1_545 S
H914 C887 0.930 . S
H915 C888 0.929 . S
H916 C893 0.932 1_565 S
H917 C894 0.929 1_565 S
H918 C896 0.930 . S
H919 C897 0.929 . S
Sm920 C922 2.846 . S
Sm920 O940 2.543 . S
Sm920 O941 2.450 . S
Sm920 O942 2.681 . S
Sm920 O943 2.464 . S
Sm920 O944 2.396 . S
Sm920 O948 2.386 . S
Sm920 O951 2.408 . S
Sm921 C931 2.846 . S
Sm921 O942 2.386 . S
Sm921 O945 2.408 . S
Sm921 O946 2.543 . S
Sm921 O947 2.450 . S
Sm921 O948 2.681 . S
Sm921 O949 2.464 . S
Sm921 O950 2.396 . S
C922 Sm920 2.846 . S
C922 C923 1.506 . S
C922 O940 1.261 . S
C922 O941 1.242 . S
C923 C922 1.506 . S
C923 C924 1.358 . S
C923 C928 1.382 . S
C924 C923 1.358 . S
C924 C925 1.385 . S
C924 H952 0.930 . S
C925 C924 1.385 . S
C925 C926 1.395 . S
C925 H953 0.929 . S
C926 C925 1.395 . S
C926 C927 1.335 . S
C927 C926 1.335 . S
C927 C928 1.398 . S
C927 H954 0.930 . S
C928 C923 1.382 . S
C928 C927 1.398 . S
C928 H955 0.929 . S
C929 O942 1.271 . S
C929 O943 1.251 . S
C930 O944 1.252 . S
C930 O945 1.272 . S
C931 Sm921 2.846 . S
C931 C932 1.506 . S
C931 O946 1.261 . S
C931 O947 1.242 . S
C932 C931 1.506 . S
C932 C933 1.358 . S
C932 C937 1.382 . S
C933 C932 1.358 . S
C933 C934 1.385 . S
C933 H956 0.930 . S
C934 C933 1.385 . S
C934 C935 1.395 . S
C934 H957 0.929 . S
C935 C934 1.395 . S
C935 C936 1.335 . S
C936 C935 1.335 . S
C936 C937 1.398 . S
C936 H958 0.930 . S
C937 C932 1.382 . S
C937 C936 1.398 . S
C937 H959 0.929 . S
C938 O948 1.271 . S
C938 O949 1.251 . S
C939 O950 1.252 . S
C939 O951 1.272 . S
O940 Sm920 2.543 . S
O940 C922 1.261 . S
O941 Sm920 2.450 . S
O941 C922 1.242 . S
O942 Sm920 2.681 . S
O942 Sm921 2.386 . S
O942 C929 1.271 . S
O943 Sm920 2.464 . S
O943 C929 1.251 . S
O944 Sm920 2.396 . S
O944 C930 1.252 . S
O945 Sm921 2.408 . S
O945 C930 1.272 . S
O946 Sm921 2.543 . S
O946 C931 1.261 . S
O947 Sm921 2.450 . S
O947 C931 1.242 . S
O948 Sm920 2.386 . S
O948 Sm921 2.681 . S
O948 C938 1.271 . S
O949 Sm921 2.464 . S
O949 C938 1.251 . S
O950 Sm921 2.396 . S
O950 C939 1.252 . S
O951 Sm920 2.408 . S
O951 C939 1.272 . S
H952 C924 0.930 . S
H953 C925 0.929 . S
H954 C927 0.930 . S
H955 C928 0.929 . S
H956 C933 0.930 . S
H957 C934 0.929 . S
H958 C936 0.930 . S
H959 C937 0.929 . S
Sm960 C962 2.846 . S
Sm960 O980 2.543 . S
Sm960 O981 2.450 . S
Sm960 O982 2.681 . S
Sm960 O983 2.464 . S
Sm960 O984 2.396 . S
Sm960 O988 2.386 . S
Sm960 O991 2.408 . S
Sm961 C971 2.846 . S
Sm961 O982 2.386 . S
Sm961 O985 2.408 . S
Sm961 O986 2.543 . S
Sm961 O987 2.450 . S
Sm961 O988 2.681 . S
Sm961 O989 2.464 . S
Sm961 O990 2.396 . S
C962 Sm960 2.846 . S
C962 C963 1.506 . S
C962 O980 1.261 . S
C962 O981 1.242 . S
C963 C962 1.506 . S
C963 C964 1.358 1_554 S
C963 C968 1.382 1_554 S
C964 C963 1.358 1_556 S
C964 C965 1.385 . S
C964 H992 0.930 . S
C965 C964 1.385 . S
C965 C966 1.395 . S
C965 H993 0.929 . S
C966 C965 1.395 . S
C966 C967 1.335 . S
C967 C966 1.335 . S
C967 C968 1.398 . S
C967 H994 0.930 . S
C968 C963 1.382 1_556 S
C968 C967 1.398 . S
C968 H995 0.929 . S
C969 O982 1.271 . S
C969 O983 1.251 . S
C970 O984 1.252 . S
C970 O985 1.272 . S
C971 Sm961 2.846 . S
C971 C972 1.506 . S
C971 O986 1.261 . S
C971 O987 1.242 . S
C972 C971 1.506 . S
C972 C973 1.358 . S
C972 C977 1.382 . S
C973 C972 1.358 . S
C973 C974 1.385 . S
C973 H996 0.930 . S
C974 C973 1.385 . S
C974 C975 1.395 . S
C974 H997 0.929 . S
C975 C974 1.395 . S
C975 C976 1.335 . S
C976 C975 1.335 . S
C976 C977 1.398 . S
C976 H998 0.930 . S
C977 C972 1.382 . S
C977 C976 1.398 . S
C977 H999 0.929 . S
C978 O988 1.271 . S
C978 O989 1.251 . S
C979 O990 1.252 . S
C979 O991 1.272 . S
O980 Sm960 2.543 . S
O980 C962 1.261 . S
O981 Sm960 2.450 . S
O981 C962 1.242 . S
O982 Sm960 2.681 . S
O982 Sm961 2.386 . S
O982 C969 1.271 . S
O983 Sm960 2.464 . S
O983 C969 1.251 . S
O984 Sm960 2.396 . S
O984 C970 1.252 . S
O985 Sm961 2.408 . S
O985 C970 1.272 . S
O986 Sm961 2.543 . S
O986 C971 1.261 . S
O987 Sm961 2.450 . S
O987 C971 1.242 . S
O988 Sm960 2.386 . S
O988 Sm961 2.681 . S
O988 C978 1.271 . S
O989 Sm961 2.464 . S
O989 C978 1.251 . S
O990 Sm961 2.396 . S
O990 C979 1.252 . S
O991 Sm960 2.408 . S
O991 C979 1.272 . S
H992 C964 0.930 . S
H993 C965 0.929 . S
H994 C967 0.930 . S
H995 C968 0.929 . S
H996 C973 0.930 . S
H997 C974 0.929 . S
H998 C976 0.930 . S
H999 C977 0.929 . S
Sm1000 C1002 2.846 . S
Sm1000 O1020 2.543 . S
Sm1000 O1021 2.450 . S
Sm1000 O1022 2.681 . S
Sm1000 O1023 2.464 . S
Sm1000 O1024 2.396 . S
Sm1000 O1028 2.386 . S
Sm1000 O1031 2.408 . S
Sm1001 C1011 2.846 . S
Sm1001 O1022 2.386 . S
Sm1001 O1025 2.408 . S
Sm1001 O1026 2.543 . S
Sm1001 O1027 2.450 . S
Sm1001 O1028 2.681 . S
Sm1001 O1029 2.464 . S
Sm1001 O1030 2.396 . S
C1002 Sm1000 2.846 . S
C1002 C1003 1.523 . S
C1002 O1020 1.261 . S
C1002 O1021 1.242 . S
C1003 C1002 1.523 . S
C1003 C1004 1.348 1_554 S
C1003 C1008 1.374 1_554 S
C1004 C1003 1.348 1_556 S
C1004 C1005 1.385 . S
C1004 H1032 0.930 . S
C1005 C1004 1.385 . S
C1005 C1006 1.395 . S
C1005 H1033 0.929 . S
C1006 C1005 1.395 . S
C1006 C1007 1.335 . S
C1007 C1006 1.335 . S
C1007 C1008 1.398 . S
C1007 H1034 0.930 . S
C1008 C1003 1.374 1_556 S
C1008 C1007 1.398 . S
C1008 H1035 0.929 . S
C1009 O1022 1.271 . S
C1009 O1023 1.251 . S
C1010 O1024 1.252 . S
C1010 O1025 1.272 . S
C1011 Sm1001 2.846 . S
C1011 C1012 1.506 . S
C1011 O1026 1.261 . S
C1011 O1027 1.242 . S
C1012 C1011 1.506 . S
C1012 C1013 1.358 . S
C1012 C1017 1.382 . S
C1013 C1012 1.358 . S
C1013 C1014 1.385 . S
C1013 H1036 0.930 . S
C1014 C1013 1.385 . S
C1014 C1015 1.395 . S
C1014 H1037 0.929 . S
C1015 C1014 1.395 . S
C1015 C1016 1.335 . S
C1016 C1015 1.335 . S
C1016 C1017 1.398 . S
C1016 H1038 0.930 . S
C1017 C1012 1.382 . S
C1017 C1016 1.398 . S
C1017 H1039 0.929 . S
C1018 O1028 1.271 . S
C1018 O1029 1.251 . S
C1019 O1030 1.252 . S
C1019 O1031 1.272 . S
O1020 Sm1000 2.543 . S
O1020 C1002 1.261 . S
O1021 Sm1000 2.450 . S
O1021 C1002 1.242 . S
O1022 Sm1000 2.681 . S
O1022 Sm1001 2.386 . S
O1022 C1009 1.271 . S
O1023 Sm1000 2.464 . S
O1023 C1009 1.251 . S
O1024 Sm1000 2.396 . S
O1024 C1010 1.252 . S
O1025 Sm1001 2.408 . S
O1025 C1010 1.272 . S
O1026 Sm1001 2.543 . S
O1026 C1011 1.261 . S
O1027 Sm1001 2.450 . S
O1027 C1011 1.242 . S
O1028 Sm1000 2.386 . S
O1028 Sm1001 2.681 . S
O1028 C1018 1.271 . S
O1029 Sm1001 2.464 . S
O1029 C1018 1.251 . S
O1030 Sm1001 2.396 . S
O1030 C1019 1.252 . S
O1031 Sm1000 2.408 . S
O1031 C1019 1.272 . S
H1032 C1004 0.930 . S
H1033 C1005 0.929 . S
H1034 C1007 0.930 . S
H1035 C1008 0.929 . S
H1036 C1013 0.930 . S
H1037 C1014 0.929 . S
H1038 C1016 0.930 . S
H1039 C1017 0.929 . S
Sm1040 C1042 2.846 . S
Sm1040 O1060 2.543 . S
Sm1040 O1061 2.450 . S
Sm1040 O1062 2.684 . S
Sm1040 O1063 2.464 . S
Sm1040 O1064 2.396 . S
Sm1040 O1068 2.386 . S
Sm1040 O1071 2.408 . S
Sm1041 C1051 2.846 . S
Sm1041 O1062 2.385 1_556 S
Sm1041 O1065 2.408 1_556 S
Sm1041 O1066 2.543 . S
Sm1041 O1067 2.450 . S
Sm1041 O1068 2.681 1_556 S
Sm1041 O1069 2.458 1_556 S
Sm1041 O1070 2.396 . S
C1042 Sm1040 2.846 . S
C1042 C1043 1.506 . S
C1042 O1060 1.261 . S
C1042 O1061 1.242 . S
C1043 C1042 1.506 . S
C1043 C1044 1.358 . S
C1043 C1048 1.382 . S
C1044 C1043 1.358 . S
C1044 C1045 1.385 . S
C1044 H1072 0.930 . S
C1045 C1044 1.385 . S
C1045 C1046 1.395 . S
C1045 H1073 0.929 . S
C1046 C1045 1.395 . S
C1046 C1047 1.335 . S
C1047 C1046 1.335 . S
C1047 C1048 1.398 . S
C1047 H1074 0.930 . S
C1048 C1043 1.382 . S
C1048 C1047 1.398 . S
C1048 H1075 0.929 . S
C1049 O1062 1.272 . S
C1049 O1063 1.251 . S
C1050 O1064 1.252 . S
C1050 O1065 1.272 . S
C1051 Sm1041 2.846 . S
C1051 C1052 1.506 . S
C1051 O1066 1.261 . S
C1051 O1067 1.242 . S
C1052 C1051 1.506 . S
C1052 C1053 1.358 . S
C1052 C1057 1.382 . S
C1053 C1052 1.358 . S
C1053 C1054 1.385 . S
C1053 H1076 0.930 . S
C1054 C1053 1.385 . S
C1054 C1055 1.395 . S
C1054 H1077 0.929 . S
C1055 C1054 1.395 . S
C1055 C1056 1.335 . S
C1056 C1055 1.335 . S
C1056 C1057 1.398 . S
C1056 H1078 0.930 . S
C1057 C1052 1.382 . S
C1057 C1056 1.398 . S
C1057 H1079 0.929 . S
C1058 O1068 1.271 . S
C1058 O1069 1.265 . S
C1059 O1070 1.252 . S
C1059 O1071 1.272 1_556 S
O1060 Sm1040 2.543 . S
O1060 C1042 1.261 . S
O1061 Sm1040 2.450 . S
O1061 C1042 1.242 . S
O1062 Sm1040 2.684 . S
O1062 Sm1041 2.385 1_554 S
O1062 C1049 1.272 . S
O1063 Sm1040 2.464 . S
O1063 C1049 1.251 . S
O1064 Sm1040 2.396 . S
O1064 C1050 1.252 . S
O1065 Sm1041 2.408 1_554 S
O1065 C1050 1.272 . S
O1066 Sm1041 2.543 . S
O1066 C1051 1.261 . S
O1067 Sm1041 2.450 . S
O1067 C1051 1.242 . S
O1068 Sm1040 2.386 . S
O1068 Sm1041 2.681 1_554 S
O1068 C1058 1.271 . S
O1069 Sm1041 2.458 1_554 S
O1069 C1058 1.265 . S
O1070 Sm1041 2.396 . S
O1070 C1059 1.252 . S
O1071 Sm1040 2.408 . S
O1071 C1059 1.272 1_554 S
H1072 C1044 0.930 . S
H1073 C1045 0.929 . S
H1074 C1047 0.930 . S
H1075 C1048 0.929 . S
H1076 C1053 0.930 . S
H1077 C1054 0.929 . S
H1078 C1056 0.930 . S
H1079 C1057 0.929 . S
Sm1080 C1082 2.846 . S
Sm1080 O1100 2.543 . S
Sm1080 O1101 2.450 . S
Sm1080 O1102 2.680 1_554 S
Sm1080 O1103 2.464 . S
Sm1080 O1104 2.396 . S
Sm1080 O1108 2.386 . S
Sm1080 O1111 2.408 . S
Sm1081 C1091 2.846 . S
Sm1081 O1102 2.387 . S
Sm1081 O1105 2.408 1_556 S
Sm1081 O1106 2.543 . S
Sm1081 O1107 2.450 . S
Sm1081 O1108 2.681 1_556 S
Sm1081 O1109 2.458 1_556 S
Sm1081 O1110 2.396 . S
C1082 Sm1080 2.846 . S
C1082 C1083 1.506 . S
C1082 O1100 1.261 . S
C1082 O1101 1.242 . S
C1083 C1082 1.506 . S
C1083 C1084 1.358 . S
C1083 C1088 1.382 . S
C1084 C1083 1.358 . S
C1084 C1085 1.385 . S
C1084 H1112 0.930 . S
C1085 C1084 1.385 . S
C1085 C1086 1.395 . S
C1085 H1113 0.929 . S
C1086 C1085 1.395 . S
C1086 C1087 1.335 . S
C1087 C1086 1.335 . S
C1087 C1088 1.398 . S
C1087 H1114 0.930 . S
C1088 C1083 1.382 . S
C1088 C1087 1.398 . S
C1088 H1115 0.929 . S
C1089 O1102 1.271 1_554 S
C1089 O1103 1.251 . S
C1090 O1104 1.252 . S
C1090 O1105 1.272 . S
C1091 Sm1081 2.846 . S
C1091 C1092 1.506 . S
C1091 O1106 1.261 . S
C1091 O1107 1.242 . S
C1092 C1091 1.506 . S
C1092 C1093 1.358 . S
C1092 C1097 1.382 . S
C1093 C1092 1.358 . S
C1093 C1094 1.385 . S
C1093 H1116 0.930 . S
C1094 C1093 1.385 . S
C1094 C1095 1.395 . S
C1094 H1117 0.929 . S
C1095 C1094 1.395 . S
C1095 C1096 1.335 . S
C1096 C1095 1.335 . S
C1096 C1097 1.398 . S
C1096 H1118 0.930 . S
C1097 C1092 1.382 . S
C1097 C1096 1.398 . S
C1097 H1119 0.929 . S
C1098 O1108 1.271 . S
C1098 O1109 1.264 . S
C1099 O1110 1.252 . S
C1099 O1111 1.272 1_556 S
O1100 Sm1080 2.543 . S
O1100 C1082 1.261 . S
O1101 Sm1080 2.450 . S
O1101 C1082 1.242 . S
O1102 Sm1080 2.680 1_556 S
O1102 Sm1081 2.387 . S
O1102 C1089 1.271 1_556 S
O1103 Sm1080 2.464 . S
O1103 C1089 1.251 . S
O1104 Sm1080 2.396 . S
O1104 C1090 1.252 . S
O1105 Sm1081 2.408 1_554 S
O1105 C1090 1.272 . S
O1106 Sm1081 2.543 . S
O1106 C1091 1.261 . S
O1107 Sm1081 2.450 . S
O1107 C1091 1.242 . S
O1108 Sm1080 2.386 . S
O1108 Sm1081 2.681 1_554 S
O1108 C1098 1.271 . S
O1109 Sm1081 2.458 1_554 S
O1109 C1098 1.264 . S
O1110 Sm1081 2.396 . S
O1110 C1099 1.252 . S
O1111 Sm1080 2.408 . S
O1111 C1099 1.272 1_554 S
H1112 C1084 0.930 . S
H1113 C1085 0.929 . S
H1114 C1087 0.930 . S
H1115 C1088 0.929 . S
H1116 C1093 0.930 . S
H1117 C1094 0.929 . S
H1118 C1096 0.930 . S
H1119 C1097 0.929 . S
Sm1120 C1122 2.846 . S
Sm1120 O1140 2.543 . S
Sm1120 O1141 2.450 . S
Sm1120 O1142 2.681 . S
Sm1120 O1143 2.464 . S
Sm1120 O1144 2.396 . S
Sm1120 O1148 2.386 . S
Sm1120 O1151 2.408 . S
Sm1121 C1131 2.846 . S
Sm1121 O1142 2.386 . S
Sm1121 O1145 2.408 . S
Sm1121 O1146 2.543 . S
Sm1121 O1147 2.450 . S
Sm1121 O1148 2.681 . S
Sm1121 O1149 2.464 . S
Sm1121 O1150 2.396 . S
C1122 Sm1120 2.846 . S
C1122 C1123 1.506 . S
C1122 O1140 1.261 . S
C1122 O1141 1.242 . S
C1123 C1122 1.506 . S
C1123 C1124 1.358 . S
C1123 C1128 1.382 . S
C1124 C1123 1.358 . S
C1124 C1125 1.385 . S
C1124 H1152 0.930 . S
C1125 C1124 1.385 . S
C1125 C1126 1.395 . S
C1125 H1153 0.929 . S
C1126 C1125 1.395 . S
C1126 C1127 1.335 . S
C1127 C1126 1.335 . S
C1127 C1128 1.398 . S
C1127 H1154 0.930 . S
C1128 C1123 1.382 . S
C1128 C1127 1.398 . S
C1128 H1155 0.929 . S
C1129 O1142 1.271 . S
C1129 O1143 1.251 . S
C1130 O1144 1.252 . S
C1130 O1145 1.272 . S
C1131 Sm1121 2.846 . S
C1131 C1132 1.506 . S
C1131 O1146 1.261 . S
C1131 O1147 1.242 . S
C1132 C1131 1.506 . S
C1132 C1133 1.358 1_556 S
C1132 C1137 1.382 1_556 S
C1133 C1132 1.358 1_554 S
C1133 C1134 1.385 . S
C1133 H1156 0.930 . S
C1134 C1133 1.385 . S
C1134 C1135 1.395 . S
C1134 H1157 0.929 . S
C1135 C1134 1.395 . S
C1135 C1136 1.335 . S
C1136 C1135 1.335 . S
C1136 C1137 1.398 . S
C1136 H1158 0.930 . S
C1137 C1132 1.382 1_554 S
C1137 C1136 1.398 . S
C1137 H1159 0.929 . S
C1138 O1148 1.271 . S
C1138 O1149 1.251 . S
C1139 O1150 1.252 . S
C1139 O1151 1.272 . S
O1140 Sm1120 2.543 . S
O1140 C1122 1.261 . S
O1141 Sm1120 2.450 . S
O1141 C1122 1.242 . S
O1142 Sm1120 2.681 . S
O1142 Sm1121 2.386 . S
O1142 C1129 1.271 . S
O1143 Sm1120 2.464 . S
O1143 C1129 1.251 . S
O1144 Sm1120 2.396 . S
O1144 C1130 1.252 . S
O1145 Sm1121 2.408 . S
O1145 C1130 1.272 . S
O1146 Sm1121 2.543 . S
O1146 C1131 1.261 . S
O1147 Sm1121 2.450 . S
O1147 C1131 1.242 . S
O1148 Sm1120 2.386 . S
O1148 Sm1121 2.681 . S
O1148 C1138 1.271 . S
O1149 Sm1121 2.464 . S
O1149 C1138 1.251 . S
O1150 Sm1121 2.396 . S
O1150 C1139 1.252 . S
O1151 Sm1120 2.408 . S
O1151 C1139 1.272 . S
H1152 C1124 0.930 . S
H1153 C1125 0.929 . S
H1154 C1127 0.930 . S
H1155 C1128 0.929 . S
H1156 C1133 0.930 . S
H1157 C1134 0.929 . S
H1158 C1136 0.930 . S
H1159 C1137 0.929 . S
Sm1160 C1162 2.846 . S
Sm1160 O1180 2.543 . S
Sm1160 O1181 2.450 . S
Sm1160 O1182 2.681 . S
Sm1160 O1183 2.464 . S
Sm1160 O1184 2.396 . S
Sm1160 O1188 2.386 . S
Sm1160 O1191 2.408 . S
Sm1161 C1171 2.846 . S
Sm1161 O1182 2.386 . S
Sm1161 O1185 2.408 . S
Sm1161 O1186 2.543 . S
Sm1161 O1187 2.450 . S
Sm1161 O1188 2.681 . S
Sm1161 O1189 2.464 . S
Sm1161 O1190 2.396 . S
C1162 Sm1160 2.846 . S
C1162 C1163 1.506 . S
C1162 O1180 1.261 . S
C1162 O1181 1.242 . S
C1163 C1162 1.506 . S
C1163 C1164 1.358 . S
C1163 C1168 1.382 . S
C1164 C1163 1.358 . S
C1164 C1165 1.385 . S
C1164 H1192 0.930 . S
C1165 C1164 1.385 . S
C1165 C1166 1.395 . S
C1165 H1193 0.929 . S
C1166 C1165 1.395 . S
C1166 C1167 1.335 . S
C1167 C1166 1.335 . S
C1167 C1168 1.398 . S
C1167 H1194 0.930 . S
C1168 C1163 1.382 . S
C1168 C1167 1.398 . S
C1168 H1195 0.929 . S
C1169 O1182 1.271 . S
C1169 O1183 1.251 . S
C1170 O1184 1.252 . S
C1170 O1185 1.272 . S
C1171 Sm1161 2.846 . S
C1171 C1172 1.523 . S
C1171 O1186 1.261 . S
C1171 O1187 1.242 . S
C1172 C1171 1.523 . S
C1172 C1173 1.348 1_556 S
C1172 C1177 1.374 1_556 S
C1173 C1172 1.348 1_554 S
C1173 C1174 1.385 . S
C1173 H1196 0.930 . S
C1174 C1173 1.385 . S
C1174 C1175 1.395 . S
C1174 H1197 0.929 . S
C1175 C1174 1.395 . S
C1175 C1176 1.335 . S
C1176 C1175 1.335 . S
C1176 C1177 1.398 . S
C1176 H1198 0.930 . S
C1177 C1172 1.374 1_554 S
C1177 C1176 1.398 . S
C1177 H1199 0.929 . S
C1178 O1188 1.271 . S
C1178 O1189 1.251 . S
C1179 O1190 1.252 . S
C1179 O1191 1.272 . S
O1180 Sm1160 2.543 . S
O1180 C1162 1.261 . S
O1181 Sm1160 2.450 . S
O1181 C1162 1.242 . S
O1182 Sm1160 2.681 . S
O1182 Sm1161 2.386 . S
O1182 C1169 1.271 . S
O1183 Sm1160 2.464 . S
O1183 C1169 1.251 . S
O1184 Sm1160 2.396 . S
O1184 C1170 1.252 . S
O1185 Sm1161 2.408 . S
O1185 C1170 1.272 . S
O1186 Sm1161 2.543 . S
O1186 C1171 1.261 . S
O1187 Sm1161 2.450 . S
O1187 C1171 1.242 . S
O1188 Sm1160 2.386 . S
O1188 Sm1161 2.681 . S
O1188 C1178 1.271 . S
O1189 Sm1161 2.464 . S
O1189 C1178 1.251 . S
O1190 Sm1161 2.396 . S
O1190 C1179 1.252 . S
O1191 Sm1160 2.408 . S
O1191 C1179 1.272 . S
H1192 C1164 0.930 . S
H1193 C1165 0.929 . S
H1194 C1167 0.930 . S
H1195 C1168 0.929 . S
H1196 C1173 0.930 . S
H1197 C1174 0.929 . S
H1198 C1176 0.930 . S
H1199 C1177 0.929 . S
Sm1200 C1202 2.846 . S
Sm1200 O1220 2.543 . S
Sm1200 O1221 2.450 . S
Sm1200 O1222 2.681 1_554 S
Sm1200 O1223 2.458 1_554 S
Sm1200 O1224 2.396 . S
Sm1200 O1228 2.385 1_554 S
Sm1200 O1231 2.408 1_554 S
Sm1201 C1211 2.846 . S
Sm1201 O1222 2.386 . S
Sm1201 O1225 2.408 . S
Sm1201 O1226 2.543 . S
Sm1201 O1227 2.450 . S
Sm1201 O1228 2.684 . S
Sm1201 O1229 2.464 . S
Sm1201 O1230 2.396 . S
C1202 Sm1200 2.846 . S
C1202 C1203 1.506 . S
C1202 O1220 1.261 . S
C1202 O1221 1.242 . S
C1203 C1202 1.506 . S
C1203 C1204 1.358 . S
C1203 C1208 1.382 . S
C1204 C1203 1.358 . S
C1204 C1205 1.385 . S
C1204 H1232 0.930 . S
C1205 C1204 1.385 . S
C1205 C1206 1.395 . S
C1205 H1233 0.929 . S
C1206 C1205 1.395 . S
C1206 C1207 1.335 . S
C1207 C1206 1.335 . S
C1207 C1208 1.398 . S
C1207 H1234 0.930 . S
C1208 C1203 1.382 . S
C1208 C1207 1.398 . S
C1208 H1235 0.929 . S
C1209 O1222 1.271 . S
C1209 O1223 1.265 . S
C1210 O1224 1.252 . S
C1210 O1225 1.272 1_554 S
C1211 Sm1201 2.846 . S
C1211 C1212 1.506 . S
C1211 O1226 1.261 . S
C1211 O1227 1.242 . S
C1212 C1211 1.506 . S
C1212 C1213 1.358 . S
C1212 C1217 1.382 . S
C1213 C1212 1.358 . S
C1213 C1214 1.385 . S
C1213 H1236 0.930 . S
C1214 C1213 1.385 . S
C1214 C1215 1.395 . S
C1214 H1237 0.929 . S
C1215 C1214 1.395 . S
C1215 C1216 1.335 . S
C1216 C1215 1.335 . S
C1216 C1217 1.398 . S
C1216 H1238 0.930 . S
C1217 C1212 1.382 . S
C1217 C1216 1.398 . S
C1217 H1239 0.929 . S
C1218 O1228 1.272 . S
C1218 O1229 1.251 . S
C1219 O1230 1.252 . S
C1219 O1231 1.272 . S
O1220 Sm1200 2.543 . S
O1220 C1202 1.261 . S
O1221 Sm1200 2.450 . S
O1221 C1202 1.242 . S
O1222 Sm1200 2.681 1_556 S
O1222 Sm1201 2.386 . S
O1222 C1209 1.271 . S
O1223 Sm1200 2.458 1_556 S
O1223 C1209 1.265 . S
O1224 Sm1200 2.396 . S
O1224 C1210 1.252 . S
O1225 Sm1201 2.408 . S
O1225 C1210 1.272 1_556 S
O1226 Sm1201 2.543 . S
O1226 C1211 1.261 . S
O1227 Sm1201 2.450 . S
O1227 C1211 1.242 . S
O1228 Sm1200 2.385 1_556 S
O1228 Sm1201 2.684 . S
O1228 C1218 1.272 . S
O1229 Sm1201 2.464 . S
O1229 C1218 1.251 . S
O1230 Sm1201 2.396 . S
O1230 C1219 1.252 . S
O1231 Sm1200 2.408 1_556 S
O1231 C1219 1.272 . S
H1232 C1204 0.930 . S
H1233 C1205 0.929 . S
H1234 C1207 0.930 . S
H1235 C1208 0.929 . S
H1236 C1213 0.930 . S
H1237 C1214 0.929 . S
H1238 C1216 0.930 . S
H1239 C1217 0.929 . S
Sm1240 C1242 2.846 . S
Sm1240 O1260 2.543 . S
Sm1240 O1261 2.450 . S
Sm1240 O1262 2.681 1_554 S
Sm1240 O1263 2.458 1_554 S
Sm1240 O1264 2.396 . S
Sm1240 O1268 2.387 . S
Sm1240 O1271 2.408 1_554 S
Sm1241 C1251 2.846 . S
Sm1241 O1262 2.386 . S
Sm1241 O1265 2.408 . S
Sm1241 O1266 2.543 . S
Sm1241 O1267 2.450 . S
Sm1241 O1268 2.680 1_556 S
Sm1241 O1269 2.464 . S
Sm1241 O1270 2.396 . S
C1242 Sm1240 2.846 . S
C1242 C1243 1.506 . S
C1242 O1260 1.261 . S
C1242 O1261 1.242 . S
C1243 C1242 1.506 . S
C1243 C1244 1.358 . S
C1243 C1248 1.382 . S
C1244 C1243 1.358 . S
C1244 C1245 1.385 . S
C1244 H1272 0.930 . S
C1245 C1244 1.385 . S
C1245 C1246 1.395 . S
C1245 H1273 0.929 . S
C1246 C1245 1.395 . S
C1246 C1247 1.335 . S
C1247 C1246 1.335 . S
C1247 C1248 1.398 . S
C1247 H1274 0.930 . S
C1248 C1243 1.382 . S
C1248 C1247 1.398 . S
C1248 H1275 0.929 . S
C1249 O1262 1.271 . S
C1249 O1263 1.264 . S
C1250 O1264 1.252 . S
C1250 O1265 1.272 1_554 S
C1251 Sm1241 2.846 . S
C1251 C1252 1.506 . S
C1251 O1266 1.261 . S
C1251 O1267 1.242 . S
C1252 C1251 1.506 . S
C1252 C1253 1.358 . S
C1252 C1257 1.382 . S
C1253 C1252 1.358 . S
C1253 C1254 1.385 . S
C1253 H1276 0.930 . S
C1254 C1253 1.385 . S
C1254 C1255 1.395 . S
C1254 H1277 0.929 . S
C1255 C1254 1.395 . S
C1255 C1256 1.335 . S
C1256 C1255 1.335 . S
C1256 C1257 1.398 . S
C1256 H1278 0.930 . S
C1257 C1252 1.382 . S
C1257 C1256 1.398 . S
C1257 H1279 0.929 . S
C1258 O1268 1.271 1_556 S
C1258 O1269 1.251 . S
C1259 O1270 1.252 . S
C1259 O1271 1.272 . S
O1260 Sm1240 2.543 . S
O1260 C1242 1.261 . S
O1261 Sm1240 2.450 . S
O1261 C1242 1.242 . S
O1262 Sm1240 2.681 1_556 S
O1262 Sm1241 2.386 . S
O1262 C1249 1.271 . S
O1263 Sm1240 2.458 1_556 S
O1263 C1249 1.264 . S
O1264 Sm1240 2.396 . S
O1264 C1250 1.252 . S
O1265 Sm1241 2.408 . S
O1265 C1250 1.272 1_556 S
O1266 Sm1241 2.543 . S
O1266 C1251 1.261 . S
O1267 Sm1241 2.450 . S
O1267 C1251 1.242 . S
O1268 Sm1240 2.387 . S
O1268 Sm1241 2.680 1_554 S
O1268 C1258 1.271 1_554 S
O1269 Sm1241 2.464 . S
O1269 C1258 1.251 . S
O1270 Sm1241 2.396 . S
O1270 C1259 1.252 . S
O1271 Sm1240 2.408 1_556 S
O1271 C1259 1.272 . S
H1272 C1244 0.930 . S
H1273 C1245 0.929 . S
H1274 C1247 0.930 . S
H1275 C1248 0.929 . S
H1276 C1253 0.930 . S
H1277 C1254 0.929 . S
H1278 C1256 0.930 . S
H1279 C1257 0.929 . S
H1280 C1288 0.950 . S
H1281 C1293 0.950 . S
H1282 C1290 0.950 . S
H1283 C1292 0.950 . S
H1284 C1294 0.950 . S
H1285 C1296 0.950 . S
H1286 C1298 0.950 . S
H1287 C1299 0.950 . S
C1288 H1280 0.950 . S
C1288 C1289 1.386 . S
C1288 C1290 1.391 . S
C1289 C1288 1.386 . S
C1289 C1293 1.393 . S
C1290 H1282 0.950 . S
C1290 C1288 1.391 . S
C1290 C1291 1.400 . S
C1291 C1290 1.400 . S
C1291 C1292 1.398 . S
C1291 C1297 1.491 1_556 S
C1292 H1283 0.950 . S
C1292 C1291 1.398 . S
C1292 C1293 1.391 . S
C1293 H1281 0.950 . S
C1293 C1289 1.393 . S
C1293 C1292 1.391 . S
C1294 H1284 0.950 . S
C1294 C1295 1.386 . S
C1294 C1296 1.391 . S
C1295 C1294 1.386 . S
C1295 C1299 1.393 . S
C1296 H1285 0.950 . S
C1296 C1294 1.391 . S
C1296 C1297 1.400 . S
C1297 C1291 1.491 1_554 S
C1297 C1296 1.400 . S
C1297 C1298 1.398 . S
C1298 H1286 0.950 . S
C1298 C1297 1.398 . S
C1298 C1299 1.391 . S
C1299 H1287 0.950 . S
C1299 C1295 1.393 . S
C1299 C1298 1.391 . S
H1300 C1308 0.950 . S
H1301 C1313 0.950 . S
H1302 C1310 0.950 1_554 S
H1303 C1312 0.950 . S
H1304 C1314 0.950 . S
H1305 C1316 0.950 1_556 S
H1306 C1318 0.950 . S
H1307 C1319 0.950 . S
C1308 H1300 0.950 . S
C1308 C1309 1.386 . S
C1308 C1310 1.391 . S
C1309 C1308 1.386 . S
C1309 C1313 1.393 1_545 S
C1310 H1302 0.950 1_556 S
C1310 C1308 1.391 . S
C1310 C1311 1.400 . S
C1311 C1310 1.400 . S
C1311 C1312 1.398 1_445 S
C1311 C1317 1.488 1_446 S
C1312 H1303 0.950 . S
C1312 C1311 1.398 1_665 S
C1312 C1313 1.391 1_655 S
C1313 H1301 0.950 . S
C1313 C1309 1.393 1_565 S
C1313 C1312 1.391 1_455 S
C1314 H1304 0.950 . S
C1314 C1315 1.386 . S
C1314 C1316 1.391 . S
C1315 C1314 1.386 . S
C1315 C1319 1.393 1_565 S
C1316 H1305 0.950 1_554 S
C1316 C1314 1.391 . S
C1316 C1317 1.415 . S
C1317 C1311 1.488 1_664 S
C1317 C1316 1.415 . S
C1317 C1318 1.388 1_665 S
C1318 H1306 0.950 . S
C1318 C1317 1.388 1_445 S
C1318 C1319 1.391 1_455 S
C1319 H1307 0.950 . S
C1319 C1315 1.393 1_545 S
C1319 C1318 1.391 1_655 S
H1320 C1328 0.950 . S
H1321 C1333 0.950 . S
H1322 C1330 0.950 . S
H1323 C1332 0.950 . S
H1324 C1334 0.950 . S
H1325 C1336 0.950 . S
H1326 C1338 0.950 . S
H1327 C1339 0.950 . S
C1328 H1320 0.950 . S
C1328 C1329 1.386 . S
C1328 C1330 1.391 . S
C1329 C1328 1.386 . S
C1329 C1333 1.393 1_545 S
C1330 H1322 0.950 . S
C1330 C1328 1.391 . S
C1330 C1331 1.422 . S
C1331 C1330 1.422 . S
C1331 C1332 1.377 1_545 S
C1331 C1337 1.490 1_545 S
C1332 H1323 0.950 . S
C1332 C1331 1.377 1_565 S
C1332 C1333 1.391 . S
C1333 H1321 0.950 . S
C1333 C1329 1.393 1_565 S
C1333 C1332 1.391 . S
C1334 H1324 0.950 . S
C1334 C1335 1.386 . S
C1334 C1336 1.391 . S
C1335 C1334 1.386 . S
C1335 C1339 1.393 1_565 S
C1336 H1325 0.950 . S
C1336 C1334 1.391 . S
C1336 C1337 1.413 . S
C1337 C1331 1.490 1_565 S
C1337 C1336 1.413 . S
C1337 C1338 1.386 1_565 S
C1338 H1326 0.950 . S
C1338 C1337 1.386 1_545 S
C1338 C1339 1.391 . S
C1339 H1327 0.950 . S
C1339 C1335 1.393 1_545 S
C1339 C1338 1.391 . S
H1340 C1348 0.950 . S
H1341 C1353 0.950 . S
H1342 C1350 0.950 . S
H1343 C1352 0.950 . S
H1344 C1354 0.950 . S
H1345 C1356 0.950 . S
H1346 C1358 0.950 . S
H1347 C1359 0.950 . S
C1348 H1340 0.950 . S
C1348 C1349 1.386 . S
C1348 C1350 1.391 1_455 S
C1349 C1348 1.386 . S
C1349 C1353 1.393 . S
C1350 H1342 0.950 . S
C1350 C1348 1.391 1_655 S
C1350 C1351 1.400 1_655 S
C1351 C1350 1.400 1_455 S
C1351 C1352 1.398 . S
C1351 C1357 1.491 1_455 S
C1352 H1343 0.950 . S
C1352 C1351 1.398 . S
C1352 C1353 1.391 . S
C1353 H1341 0.950 . S
C1353 C1349 1.393 . S
C1353 C1352 1.391 . S
C1354 H1344 0.950 . S
C1354 C1355 1.386 . S
C1354 C1356 1.391 1_655 S
C1355 C1354 1.386 . S
C1355 C1359 1.393 . S
C1356 H1345 0.950 . S
C1356 C1354 1.391 1_455 S
C1356 C1357 1.400 1_455 S
C1357 C1351 1.491 1_655 S
C1357 C1356 1.400 1_655 S
C1357 C1358 1.398 . S
C1358 H1346 0.950 . S
C1358 C1357 1.398 . S
C1358 C1359 1.391 . S
C1359 H1347 0.950 . S
C1359 C1355 1.393 . S
C1359 C1358 1.391 . S
H1360 C1368 0.950 . S
H1361 C1373 0.950 . S
H1362 C1370 0.950 . S
H1363 C1372 0.950 . S
H1364 C1374 0.950 . S
H1365 C1376 0.950 . S
H1366 C1378 0.950 . S
H1367 C1379 0.950 . S
C1368 H1360 0.950 . S
C1368 C1369 1.386 . S
C1368 C1370 1.391 . S
C1369 C1368 1.386 . S
C1369 C1373 1.393 . S
C1370 H1362 0.950 . S
C1370 C1368 1.391 . S
C1370 C1371 1.400 . S
C1371 C1370 1.400 . S
C1371 C1372 1.398 . S
C1371 C1377 1.491 1_556 S
C1372 H1363 0.950 . S
C1372 C1371 1.398 . S
C1372 C1373 1.391 . S
C1373 H1361 0.950 . S
C1373 C1369 1.393 . S
C1373 C1372 1.391 . S
C1374 H1364 0.950 . S
C1374 C1375 1.386 . S
C1374 C1376 1.391 . S
C1375 C1374 1.386 . S
C1375 C1379 1.393 . S
C1376 H1365 0.950 . S
C1376 C1374 1.391 . S
C1376 C1377 1.400 . S
C1377 C1371 1.491 1_554 S
C1377 C1376 1.400 . S
C1377 C1378 1.398 . S
C1378 H1366 0.950 . S
C1378 C1377 1.398 . S
C1378 C1379 1.391 . S
C1379 H1367 0.950 . S
C1379 C1375 1.393 . S
C1379 C1378 1.391 . S
H1380 C1388 0.950 . S
H1381 C1393 0.950 . S
H1382 C1390 0.950 . S
H1383 C1392 0.950 . S
H1384 C1394 0.950 . S
H1385 C1396 0.950 . S
H1386 C1398 0.950 . S
H1387 C1399 0.950 . S
C1388 H1380 0.950 . S
C1388 C1389 1.386 1_545 S
C1388 C1390 1.391 . S
C1389 C1388 1.386 1_565 S
C1389 C1393 1.393 . S
C1390 H1382 0.950 . S
C1390 C1388 1.391 . S
C1390 C1391 1.400 1_545 S
C1391 C1390 1.400 1_565 S
C1391 C1392 1.398 . S
C1391 C1397 1.488 1_565 S
C1392 H1383 0.950 . S
C1392 C1391 1.398 . S
C1392 C1393 1.391 . S
C1393 H1381 0.950 . S
C1393 C1389 1.393 . S
C1393 C1392 1.391 . S
C1394 H1384 0.950 . S
C1394 C1395 1.386 1_565 S
C1394 C1396 1.391 . S
C1395 C1394 1.386 1_545 S
C1395 C1399 1.393 . S
C1396 H1385 0.950 . S
C1396 C1394 1.391 . S
C1396 C1397 1.380 1_565 S
C1397 C1391 1.488 1_545 S
C1397 C1396 1.380 1_545 S
C1397 C1398 1.422 . S
C1398 H1386 0.950 . S
C1398 C1397 1.422 . S
C1398 C1399 1.391 . S
C1399 H1387 0.950 . S
C1399 C1395 1.393 . S
C1399 C1398 1.391 . S
H1400 C1408 0.950 . S
H1401 C1413 0.950 . S
H1402 C1410 0.950 . S
H1403 C1412 0.950 . S
H1404 C1414 0.950 . S
H1405 C1416 0.950 . S
H1406 C1418 0.950 . S
H1407 C1419 0.950 . S
C1408 H1400 0.950 . S
C1408 C1409 1.386 . S
C1408 C1410 1.391 1_655 S
C1409 C1408 1.386 . S
C1409 C1413 1.393 . S
C1410 H1402 0.950 . S
C1410 C1408 1.391 1_455 S
C1410 C1411 1.400 1_455 S
C1411 C1410 1.400 1_655 S
C1411 C1412 1.398 . S
C1411 C1417 1.491 1_655 S
C1412 H1403 0.950 . S
C1412 C1411 1.398 . S
C1412 C1413 1.391 . S
C1413 H1401 0.950 . S
C1413 C1409 1.393 . S
C1413 C1412 1.391 . S
C1414 H1404 0.950 . S
C1414 C1415 1.386 . S
C1414 C1416 1.391 1_455 S
C1415 C1414 1.386 . S
C1415 C1419 1.393 . S
C1416 H1405 0.950 . S
C1416 C1414 1.391 1_655 S
C1416 C1417 1.400 1_655 S
C1417 C1411 1.491 1_455 S
C1417 C1416 1.400 1_455 S
C1417 C1418 1.398 . S
C1418 H1406 0.950 . S
C1418 C1417 1.398 . S
C1418 C1419 1.391 . S
C1419 H1407 0.950 . S
C1419 C1415 1.393 . S
C1419 C1418 1.391 . S
H1420 C1428 0.950 . S
H1421 C1433 0.950 . S
H1422 C1430 0.950 . S
H1423 C1432 0.950 . S
H1424 C1434 0.950 . S
H1425 C1436 0.950 . S
H1426 C1438 0.950 . S
H1427 C1439 0.950 . S
C1428 H1420 0.950 . S
C1428 C1429 1.386 . S
C1428 C1430 1.391 . S
C1429 C1428 1.386 . S
C1429 C1433 1.393 . S
C1430 H1422 0.950 . S
C1430 C1428 1.391 . S
C1430 C1431 1.400 . S
C1431 C1430 1.400 . S
C1431 C1432 1.398 . S
C1431 C1437 1.491 . S
C1432 H1423 0.950 . S
C1432 C1431 1.398 . S
C1432 C1433 1.391 . S
C1433 H1421 0.950 . S
C1433 C1429 1.393 . S
C1433 C1432 1.391 . S
C1434 H1424 0.950 . S
C1434 C1435 1.386 . S
C1434 C1436 1.391 . S
C1435 C1434 1.386 . S
C1435 C1439 1.393 . S
C1436 H1425 0.950 . S
C1436 C1434 1.391 . S
C1436 C1437 1.400 . S
C1437 C1431 1.491 . S
C1437 C1436 1.400 . S
C1437 C1438 1.398 . S
C1438 H1426 0.950 . S
C1438 C1437 1.398 . S
C1438 C1439 1.391 . S
C1439 H1427 0.950 . S
C1439 C1435 1.393 . S
C1439 C1438 1.391 . S
H1440 C1448 0.950 . S
H1441 C1453 0.950 . S
H1442 C1450 0.950 1_455 S
H1443 C1452 0.950 . S
H1444 C1454 0.950 . S
H1445 C1456 0.950 1_655 S
H1446 C1458 0.950 . S
H1447 C1459 0.950 . S
C1448 H1440 0.950 . S
C1448 C1449 1.386 . S
C1448 C1450 1.391 . S
C1449 C1448 1.386 . S
C1449 C1453 1.393 . S
C1450 H1442 0.950 1_655 S
C1450 C1448 1.391 . S
C1450 C1451 1.400 . S
C1451 C1450 1.400 . S
C1451 C1452 1.398 . S
C1451 C1457 1.491 1_655 S
C1452 H1443 0.950 . S
C1452 C1451 1.398 . S
C1452 C1453 1.391 . S
C1453 H1441 0.950 . S
C1453 C1449 1.393 . S
C1453 C1452 1.391 . S
C1454 H1444 0.950 . S
C1454 C1455 1.386 . S
C1454 C1456 1.391 . S
C1455 C1454 1.386 . S
C1455 C1459 1.393 . S
C1456 H1445 0.950 1_455 S
C1456 C1454 1.391 . S
C1456 C1457 1.400 . S
C1457 C1451 1.491 1_455 S
C1457 C1456 1.400 . S
C1457 C1458 1.398 . S
C1458 H1446 0.950 . S
C1458 C1457 1.398 . S
C1458 C1459 1.391 . S
C1459 H1447 0.950 . S
C1459 C1455 1.393 . S
C1459 C1458 1.391 . S
H1460 C1468 0.950 . S
H1461 C1473 0.950 . S
H1462 C1470 0.950 . S
H1463 C1472 0.950 . S
H1464 C1474 0.950 . S
H1465 C1476 0.950 . S
H1466 C1478 0.950 . S
H1467 C1479 0.950 . S
C1468 H1460 0.950 . S
C1468 C1469 1.386 . S
C1468 C1470 1.391 . S
C1469 C1468 1.386 . S
C1469 C1473 1.393 . S
C1470 H1462 0.950 . S
C1470 C1468 1.391 . S
C1470 C1471 1.400 . S
C1471 C1470 1.400 . S
C1471 C1472 1.398 . S
C1471 C1477 1.491 . S
C1472 H1463 0.950 . S
C1472 C1471 1.398 . S
C1472 C1473 1.391 . S
C1473 H1461 0.950 . S
C1473 C1469 1.393 . S
C1473 C1472 1.391 . S
C1474 H1464 0.950 . S
C1474 C1475 1.386 . S
C1474 C1476 1.391 . S
C1475 C1474 1.386 . S
C1475 C1479 1.393 . S
C1476 H1465 0.950 . S
C1476 C1474 1.391 . S
C1476 C1477 1.400 . S
C1477 C1471 1.491 . S
C1477 C1476 1.400 . S
C1477 C1478 1.398 . S
C1478 H1466 0.950 . S
C1478 C1477 1.398 . S
C1478 C1479 1.391 . S
C1479 H1467 0.950 . S
C1479 C1475 1.393 . S
C1479 C1478 1.391 . S
H1480 C1488 0.950 . S
H1481 C1493 0.950 . S
H1482 C1490 0.950 . S
H1483 C1492 0.950 . S
H1484 C1494 0.950 . S
H1485 C1496 0.950 . S
H1486 C1498 0.950 . S
H1487 C1499 0.950 . S
C1488 H1480 0.950 . S
C1488 C1489 1.386 . S
C1488 C1490 1.391 . S
C1489 C1488 1.386 . S
C1489 C1493 1.393 . S
C1490 H1482 0.950 . S
C1490 C1488 1.391 . S
C1490 C1491 1.400 . S
C1491 C1490 1.400 . S
C1491 C1492 1.398 . S
C1491 C1497 1.491 . S
C1492 H1483 0.950 . S
C1492 C1491 1.398 . S
C1492 C1493 1.391 . S
C1493 H1481 0.950 . S
C1493 C1489 1.393 . S
C1493 C1492 1.391 . S
C1494 H1484 0.950 . S
C1494 C1495 1.386 . S
C1494 C1496 1.391 . S
C1495 C1494 1.386 . S
C1495 C1499 1.393 . S
C1496 H1485 0.950 . S
C1496 C1494 1.391 . S
C1496 C1497 1.400 . S
C1497 C1491 1.491 . S
C1497 C1496 1.400 . S
C1497 C1498 1.398 . S
C1498 H1486 0.950 . S
C1498 C1497 1.398 . S
C1498 C1499 1.391 . S
C1499 H1487 0.950 . S
C1499 C1495 1.393 . S
C1499 C1498 1.391 . S
H1500 C1508 0.950 . S
H1501 C1513 0.950 . S
H1502 C1510 0.950 . S
H1503 C1512 0.950 . S
H1504 C1514 0.950 . S
H1505 C1516 0.950 . S
H1506 C1518 0.950 . S
H1507 C1519 0.950 . S
C1508 H1500 0.950 . S
C1508 C1509 1.386 . S
C1508 C1510 1.391 . S
C1509 C1508 1.386 . S
C1509 C1513 1.393 . S
C1510 H1502 0.950 . S
C1510 C1508 1.391 . S
C1510 C1511 1.400 . S
C1511 C1510 1.400 . S
C1511 C1512 1.398 . S
C1511 C1517 1.491 . S
C1512 H1503 0.950 . S
C1512 C1511 1.398 . S
C1512 C1513 1.391 . S
C1513 H1501 0.950 . S
C1513 C1509 1.393 . S
C1513 C1512 1.391 . S
C1514 H1504 0.950 . S
C1514 C1515 1.386 . S
C1514 C1516 1.391 . S
C1515 C1514 1.386 . S
C1515 C1519 1.393 . S
C1516 H1505 0.950 . S
C1516 C1514 1.391 . S
C1516 C1517 1.400 . S
C1517 C1511 1.491 . S
C1517 C1516 1.400 . S
C1517 C1518 1.398 . S
C1518 H1506 0.950 . S
C1518 C1517 1.398 . S
C1518 C1519 1.391 . S
C1519 H1507 0.950 . S
C1519 C1515 1.393 . S
C1519 C1518 1.391 . S
H1520 C1528 0.950 . S
H1521 C1533 0.950 . S
H1522 C1530 0.950 . S
H1523 C1532 0.950 . S
H1524 C1534 0.950 . S
H1525 C1536 0.950 . S
H1526 C1538 0.950 . S
H1527 C1539 0.950 . S
C1528 H1520 0.950 . S
C1528 C1529 1.386 1_545 S
C1528 C1530 1.391 . S
C1529 C1528 1.386 1_565 S
C1529 C1533 1.393 . S
C1530 H1522 0.950 . S
C1530 C1528 1.391 . S
C1530 C1531 1.394 1_545 S
C1531 C1530 1.394 1_565 S
C1531 C1532 1.405 . S
C1531 C1537 1.490 1_565 S
C1532 H1523 0.950 . S
C1532 C1531 1.405 . S
C1532 C1533 1.391 . S
C1533 H1521 0.950 . S
C1533 C1529 1.393 . S
C1533 C1532 1.391 . S
C1534 H1524 0.950 . S
C1534 C1535 1.386 1_565 S
C1534 C1536 1.391 . S
C1535 C1534 1.386 1_545 S
C1535 C1539 1.393 . S
C1536 H1525 0.950 . S
C1536 C1534 1.391 . S
C1536 C1537 1.399 1_565 S
C1537 C1531 1.490 1_545 S
C1537 C1536 1.399 1_545 S
C1537 C1538 1.399 . S
C1538 H1526 0.950 . S
C1538 C1537 1.399 . S
C1538 C1539 1.391 . S
C1539 H1527 0.950 . S
C1539 C1535 1.393 . S
C1539 C1538 1.391 . S
H1540 C1548 0.950 . S
H1541 C1553 0.950 . S
H1542 C1550 0.950 . S
H1543 C1552 0.950 . S
H1544 C1554 0.950 . S
H1545 C1556 0.950 . S
H1546 C1558 0.950 . S
H1547 C1559 0.950 . S
C1548 H1540 0.950 . S
C1548 C1549 1.386 . S
C1548 C1550 1.391 . S
C1549 C1548 1.386 . S
C1549 C1553 1.393 . S
C1550 H1542 0.950 . S
C1550 C1548 1.391 . S
C1550 C1551 1.400 . S
C1551 C1550 1.400 . S
C1551 C1552 1.398 . S
C1551 C1557 1.491 . S
C1552 H1543 0.950 . S
C1552 C1551 1.398 . S
C1552 C1553 1.391 . S
C1553 H1541 0.950 . S
C1553 C1549 1.393 . S
C1553 C1552 1.391 . S
C1554 H1544 0.950 . S
C1554 C1555 1.386 . S
C1554 C1556 1.391 . S
C1555 C1554 1.386 . S
C1555 C1559 1.393 . S
C1556 H1545 0.950 . S
C1556 C1554 1.391 . S
C1556 C1557 1.400 . S
C1557 C1551 1.491 . S
C1557 C1556 1.400 . S
C1557 C1558 1.398 . S
C1558 H1546 0.950 . S
C1558 C1557 1.398 . S
C1558 C1559 1.391 . S
C1559 H1547 0.950 . S
C1559 C1555 1.393 . S
C1559 C1558 1.391 . S
H1560 C1568 0.950 . S
H1561 C1573 0.950 . S
H1562 C1570 0.950 . S
H1563 C1572 0.950 . S
H1564 C1574 0.950 . S
H1565 C1576 0.950 . S
H1566 C1578 0.950 . S
H1567 C1579 0.950 . S
C1568 H1560 0.950 . S
C1568 C1569 1.386 . S
C1568 C1570 1.391 . S
C1569 C1568 1.386 . S
C1569 C1573 1.393 . S
C1570 H1562 0.950 . S
C1570 C1568 1.391 . S
C1570 C1571 1.400 . S
C1571 C1570 1.400 . S
C1571 C1572 1.398 . S
C1571 C1577 1.491 . S
C1572 H1563 0.950 . S
C1572 C1571 1.398 . S
C1572 C1573 1.391 . S
C1573 H1561 0.950 . S
C1573 C1569 1.393 . S
C1573 C1572 1.391 . S
C1574 H1564 0.950 . S
C1574 C1575 1.386 . S
C1574 C1576 1.391 . S
C1575 C1574 1.386 . S
C1575 C1579 1.393 . S
C1576 H1565 0.950 . S
C1576 C1574 1.391 . S
C1576 C1577 1.400 . S
C1577 C1571 1.491 . S
C1577 C1576 1.400 . S
C1577 C1578 1.398 . S
C1578 H1566 0.950 . S
C1578 C1577 1.398 . S
C1578 C1579 1.391 . S
C1579 H1567 0.950 . S
C1579 C1575 1.393 . S
C1579 C1578 1.391 . S
H1580 C1588 0.950 . S
H1581 C1593 0.950 . S
H1582 C1590 0.950 . S
H1583 C1592 0.950 . S
H1584 C1594 0.950 . S
H1585 C1596 0.950 . S
H1586 C1598 0.950 . S
H1587 C1599 0.950 . S
C1588 H1580 0.950 . S
C1588 C1589 1.386 . S
C1588 C1590 1.391 . S
C1589 C1588 1.386 . S
C1589 C1593 1.393 . S
C1590 H1582 0.950 . S
C1590 C1588 1.391 . S
C1590 C1591 1.400 . S
C1591 C1590 1.400 . S
C1591 C1592 1.398 . S
C1591 C1597 1.491 1_556 S
C1592 H1583 0.950 . S
C1592 C1591 1.398 . S
C1592 C1593 1.391 . S
C1593 H1581 0.950 . S
C1593 C1589 1.393 . S
C1593 C1592 1.391 . S
C1594 H1584 0.950 . S
C1594 C1595 1.386 . S
C1594 C1596 1.391 . S
C1595 C1594 1.386 . S
C1595 C1599 1.393 . S
C1596 H1585 0.950 . S
C1596 C1594 1.391 . S
C1596 C1597 1.400 . S
C1597 C1591 1.491 1_554 S
C1597 C1596 1.400 . S
C1597 C1598 1.398 . S
C1598 H1586 0.950 . S
C1598 C1597 1.398 . S
C1598 C1599 1.391 . S
C1599 H1587 0.950 . S
C1599 C1595 1.393 . S
C1599 C1598 1.391 . S
H1600 C1608 0.950 . S
H1601 C1613 0.950 . S
H1602 C1610 0.950 . S
H1603 C1612 0.950 . S
H1604 C1614 0.950 . S
H1605 C1616 0.950 . S
H1606 C1618 0.950 . S
H1607 C1619 0.950 . S
C1608 H1600 0.950 . S
C1608 C1609 1.386 . S
C1608 C1610 1.391 . S
C1609 C1608 1.386 . S
C1609 C1613 1.393 . S
C1610 H1602 0.950 . S
C1610 C1608 1.391 . S
C1610 C1611 1.400 . S
C1611 C1610 1.400 . S
C1611 C1612 1.398 . S
C1611 C1617 1.491 . S
C1612 H1603 0.950 . S
C1612 C1611 1.398 . S
C1612 C1613 1.391 . S
C1613 H1601 0.950 . S
C1613 C1609 1.393 . S
C1613 C1612 1.391 . S
C1614 H1604 0.950 . S
C1614 C1615 1.386 . S
C1614 C1616 1.391 . S
C1615 C1614 1.386 . S
C1615 C1619 1.393 . S
C1616 H1605 0.950 . S
C1616 C1614 1.391 . S
C1616 C1617 1.400 . S
C1617 C1611 1.491 . S
C1617 C1616 1.400 . S
C1617 C1618 1.398 . S
C1618 H1606 0.950 . S
C1618 C1617 1.398 . S
C1618 C1619 1.391 . S
C1619 H1607 0.950 . S
C1619 C1615 1.393 . S
C1619 C1618 1.391 . S
H1620 C1628 0.950 . S
H1621 C1633 0.950 . S
H1622 C1630 0.950 . S
H1623 C1632 0.950 . S
H1624 C1634 0.950 . S
H1625 C1636 0.950 . S
H1626 C1638 0.950 . S
H1627 C1639 0.950 . S
C1628 H1620 0.950 . S
C1628 C1629 1.386 . S
C1628 C1630 1.391 . S
C1629 C1628 1.386 . S
C1629 C1633 1.393 1_545 S
C1630 H1622 0.950 . S
C1630 C1628 1.391 . S
C1630 C1631 1.400 . S
C1631 C1630 1.400 . S
C1631 C1632 1.398 1_545 S
C1631 C1637 1.491 . S
C1632 H1623 0.950 . S
C1632 C1631 1.398 1_565 S
C1632 C1633 1.391 . S
C1633 H1621 0.950 . S
C1633 C1629 1.393 1_565 S
C1633 C1632 1.391 . S
C1634 H1624 0.950 . S
C1634 C1635 1.386 1_565 S
C1634 C1636 1.391 . S
C1635 C1634 1.386 1_545 S
C1635 C1639 1.393 . S
C1636 H1625 0.950 . S
C1636 C1634 1.391 . S
C1636 C1637 1.400 1_565 S
C1637 C1631 1.491 . S
C1637 C1636 1.400 1_545 S
C1637 C1638 1.398 . S
C1638 H1626 0.950 . S
C1638 C1637 1.398 . S
C1638 C1639 1.391 . S
C1639 H1627 0.950 . S
C1639 C1635 1.393 . S
C1639 C1638 1.391 . S
H1640 C1648 0.950 . S
H1641 C1653 0.950 . S
H1642 C1650 0.950 . S
H1643 C1652 0.950 . S
H1644 C1654 0.950 . S
H1645 C1656 0.950 . S
H1646 C1658 0.950 . S
H1647 C1659 0.950 . S
C1648 H1640 0.950 . S
C1648 C1649 1.386 . S
C1648 C1650 1.391 . S
C1649 C1648 1.386 . S
C1649 C1653 1.393 1_545 S
C1650 H1642 0.950 . S
C1650 C1648 1.391 . S
C1650 C1651 1.400 . S
C1651 C1650 1.400 . S
C1651 C1652 1.398 1_545 S
C1651 C1657 1.491 . S
C1652 H1643 0.950 . S
C1652 C1651 1.398 1_565 S
C1652 C1653 1.391 . S
C1653 H1641 0.950 . S
C1653 C1649 1.393 1_565 S
C1653 C1652 1.391 . S
C1654 H1644 0.950 . S
C1654 C1655 1.386 1_565 S
C1654 C1656 1.391 . S
C1655 C1654 1.386 1_545 S
C1655 C1659 1.393 . S
C1656 H1645 0.950 . S
C1656 C1654 1.391 . S
C1656 C1657 1.400 1_565 S
C1657 C1651 1.491 . S
C1657 C1656 1.400 1_545 S
C1657 C1658 1.398 . S
C1658 H1646 0.950 . S
C1658 C1657 1.398 . S
C1658 C1659 1.391 . S
C1659 H1647 0.950 . S
C1659 C1655 1.393 . S
C1659 C1658 1.391 . S
H1660 C1668 0.950 . S
H1661 C1673 0.950 . S
H1662 C1670 0.950 . S
H1663 C1672 0.950 . S
H1664 C1674 0.950 . S
H1665 C1676 0.950 . S
H1666 C1678 0.950 . S
H1667 C1679 0.950 . S
C1668 H1660 0.950 . S
C1668 C1669 1.386 . S
C1668 C1670 1.391 . S
C1669 C1668 1.386 . S
C1669 C1673 1.393 . S
C1670 H1662 0.950 . S
C1670 C1668 1.391 . S
C1670 C1671 1.400 . S
C1671 C1670 1.400 . S
C1671 C1672 1.398 . S
C1671 C1677 1.491 . S
C1672 H1663 0.950 . S
C1672 C1671 1.398 . S
C1672 C1673 1.391 . S
C1673 H1661 0.950 . S
C1673 C1669 1.393 . S
C1673 C1672 1.391 . S
C1674 H1664 0.950 . S
C1674 C1675 1.386 . S
C1674 C1676 1.391 . S
C1675 C1674 1.386 . S
C1675 C1679 1.393 . S
C1676 H1665 0.950 . S
C1676 C1674 1.391 . S
C1676 C1677 1.400 . S
C1677 C1671 1.491 . S
C1677 C1676 1.400 . S
C1677 C1678 1.398 . S
C1678 H1666 0.950 . S
C1678 C1677 1.398 . S
C1678 C1679 1.391 . S
C1679 H1667 0.950 . S
C1679 C1675 1.393 . S
C1679 C1678 1.391 . S
H1680 C1688 0.950 . S
H1681 C1693 0.950 . S
H1682 C1690 0.950 . S
H1683 C1692 0.950 . S
H1684 C1694 0.950 . S
H1685 C1696 0.950 . S
H1686 C1698 0.950 . S
H1687 C1699 0.950 . S
C1688 H1680 0.950 . S
C1688 C1689 1.386 . S
C1688 C1690 1.391 . S
C1689 C1688 1.386 . S
C1689 C1693 1.393 . S
C1690 H1682 0.950 . S
C1690 C1688 1.391 . S
C1690 C1691 1.400 . S
C1691 C1690 1.400 . S
C1691 C1692 1.398 . S
C1691 C1697 1.491 . S
C1692 H1683 0.950 . S
C1692 C1691 1.398 . S
C1692 C1693 1.391 . S
C1693 H1681 0.950 . S
C1693 C1689 1.393 . S
C1693 C1692 1.391 . S
C1694 H1684 0.950 . S
C1694 C1695 1.386 . S
C1694 C1696 1.391 . S
C1695 C1694 1.386 . S
C1695 C1699 1.393 . S
C1696 H1685 0.950 . S
C1696 C1694 1.391 . S
C1696 C1697 1.400 . S
C1697 C1691 1.491 . S
C1697 C1696 1.400 . S
C1697 C1698 1.398 . S
C1698 H1686 0.950 . S
C1698 C1697 1.398 . S
C1698 C1699 1.391 . S
C1699 H1687 0.950 . S
C1699 C1695 1.393 . S
C1699 C1698 1.391 . S
H1700 C1708 0.950 . S
H1701 C1713 0.950 . S
H1702 C1710 0.950 . S
H1703 C1712 0.950 . S
H1704 C1714 0.950 . S
H1705 C1716 0.950 . S
H1706 C1718 0.950 . S
H1707 C1719 0.950 . S
C1708 H1700 0.950 . S
C1708 C1709 1.386 1_545 S
C1708 C1710 1.391 . S
C1709 C1708 1.386 1_565 S
C1709 C1713 1.393 . S
C1710 H1702 0.950 . S
C1710 C1708 1.391 . S
C1710 C1711 1.400 1_545 S
C1711 C1710 1.400 1_565 S
C1711 C1712 1.398 . S
C1711 C1717 1.491 . S
C1712 H1703 0.950 . S
C1712 C1711 1.398 . S
C1712 C1713 1.391 . S
C1713 H1701 0.950 . S
C1713 C1709 1.393 . S
C1713 C1712 1.391 . S
C1714 H1704 0.950 . S
C1714 C1715 1.386 . S
C1714 C1716 1.391 . S
C1715 C1714 1.386 . S
C1715 C1719 1.393 1_565 S
C1716 H1705 0.950 . S
C1716 C1714 1.391 . S
C1716 C1717 1.400 . S
C1717 C1711 1.491 . S
C1717 C1716 1.400 . S
C1717 C1718 1.398 1_565 S
C1718 H1706 0.950 . S
C1718 C1717 1.398 1_545 S
C1718 C1719 1.391 . S
C1719 H1707 0.950 . S
C1719 C1715 1.393 1_545 S
C1719 C1718 1.391 . S
H1720 C1728 0.948 1_545 S
H1721 C1733 0.951 1_556 S
H1722 C1730 0.947 1_545 S
H1723 C1732 0.950 . S
H1724 C1734 0.950 . S
H1725 C1736 0.950 . S
H1726 C1738 0.950 . S
H1727 C1739 0.950 . S
C1728 H1720 0.948 1_565 S
C1728 C1729 1.387 . S
C1728 C1730 1.391 . S
C1729 C1728 1.387 . S
C1729 C1733 1.393 . S
C1730 H1722 0.947 1_565 S
C1730 C1728 1.391 . S
C1730 C1731 1.404 . S
C1731 C1730 1.404 . S
C1731 C1732 1.398 . S
C1731 C1737 1.491 . S
C1732 H1723 0.950 . S
C1732 C1731 1.398 . S
C1732 C1733 1.391 . S
C1733 H1721 0.951 1_554 S
C1733 C1729 1.393 . S
C1733 C1732 1.391 . S
C1734 H1724 0.950 . S
C1734 C1735 1.386 . S
C1734 C1736 1.391 . S
C1735 C1734 1.386 . S
C1735 C1739 1.393 . S
C1736 H1725 0.950 . S
C1736 C1734 1.391 . S
C1736 C1737 1.400 . S
C1737 C1731 1.491 . S
C1737 C1736 1.400 . S
C1737 C1738 1.398 . S
C1738 H1726 0.950 . S
C1738 C1737 1.398 . S
C1738 C1739 1.391 . S
C1739 H1727 0.950 . S
C1739 C1735 1.393 . S
C1739 C1738 1.391 . S
H1740 C1748 0.950 . S
H1741 C1753 0.950 . S
H1742 C1750 0.950 . S
H1743 C1752 0.950 . S
H1744 C1754 0.950 . S
H1745 C1756 0.950 . S
H1746 C1758 0.950 . S
H1747 C1759 0.950 . S
C1748 H1740 0.950 . S
C1748 C1749 1.386 . S
C1748 C1750 1.391 . S
C1749 C1748 1.386 . S
C1749 C1753 1.393 . S
C1750 H1742 0.950 . S
C1750 C1748 1.391 . S
C1750 C1751 1.400 . S
C1751 C1750 1.400 . S
C1751 C1752 1.398 . S
C1751 C1757 1.491 . S
C1752 H1743 0.950 . S
C1752 C1751 1.398 . S
C1752 C1753 1.391 . S
C1753 H1741 0.950 . S
C1753 C1749 1.393 . S
C1753 C1752 1.391 . S
C1754 H1744 0.950 . S
C1754 C1755 1.386 . S
C1754 C1756 1.391 . S
C1755 C1754 1.386 . S
C1755 C1759 1.393 . S
C1756 H1745 0.950 . S
C1756 C1754 1.391 . S
C1756 C1757 1.400 . S
C1757 C1751 1.491 . S
C1757 C1756 1.400 . S
C1757 C1758 1.398 . S
C1758 H1746 0.950 . S
C1758 C1757 1.398 . S
C1758 C1759 1.391 . S
C1759 H1747 0.950 . S
C1759 C1755 1.393 . S
C1759 C1758 1.391 . S
H1760 C1768 0.950 . S
H1761 C1773 0.950 . S
H1762 C1770 0.950 . S
H1763 C1772 0.950 . S
H1764 C1774 0.950 . S
H1765 C1776 0.950 . S
H1766 C1778 0.950 . S
H1767 C1779 0.950 . S
C1768 H1760 0.950 . S
C1768 C1769 1.386 . S
C1768 C1770 1.391 . S
C1769 C1768 1.386 . S
C1769 C1773 1.393 . S
C1770 H1762 0.950 . S
C1770 C1768 1.391 . S
C1770 C1771 1.400 . S
C1771 C1770 1.400 . S
C1771 C1772 1.398 . S
C1771 C1777 1.491 . S
C1772 H1763 0.950 . S
C1772 C1771 1.398 . S
C1772 C1773 1.391 . S
C1773 H1761 0.950 . S
C1773 C1769 1.393 . S
C1773 C1772 1.391 . S
C1774 H1764 0.950 . S
C1774 C1775 1.386 . S
C1774 C1776 1.391 . S
C1775 C1774 1.386 . S
C1775 C1779 1.393 . S
C1776 H1765 0.950 . S
C1776 C1774 1.391 . S
C1776 C1777 1.400 . S
C1777 C1771 1.491 . S
C1777 C1776 1.400 . S
C1777 C1778 1.398 . S
C1778 H1766 0.950 . S
C1778 C1777 1.398 . S
C1778 C1779 1.391 . S
C1779 H1767 0.950 . S
C1779 C1775 1.393 . S
C1779 C1778 1.391 . S
H1780 C1788 0.950 . S
H1781 C1793 0.950 . S
H1782 C1790 0.950 . S
H1783 C1792 0.950 . S
H1784 C1794 0.950 . S
H1785 C1796 0.950 . S
H1786 C1798 0.950 . S
H1787 C1799 0.950 . S
C1788 H1780 0.950 . S
C1788 C1789 1.386 . S
C1788 C1790 1.391 . S
C1789 C1788 1.386 . S
C1789 C1793 1.393 . S
C1790 H1782 0.950 . S
C1790 C1788 1.391 . S
C1790 C1791 1.400 . S
C1791 C1790 1.400 . S
C1791 C1792 1.398 . S
C1791 C1797 1.491 . S
C1792 H1783 0.950 . S
C1792 C1791 1.398 . S
C1792 C1793 1.391 . S
C1793 H1781 0.950 . S
C1793 C1789 1.393 . S
C1793 C1792 1.391 . S
C1794 H1784 0.950 . S
C1794 C1795 1.386 . S
C1794 C1796 1.391 . S
C1795 C1794 1.386 . S
C1795 C1799 1.393 . S
C1796 H1785 0.950 . S
C1796 C1794 1.391 . S
C1796 C1797 1.400 . S
C1797 C1791 1.491 . S
C1797 C1796 1.400 . S
C1797 C1798 1.398 . S
C1798 H1786 0.950 . S
C1798 C1797 1.398 . S
C1798 C1799 1.391 . S
C1799 H1787 0.950 . S
C1799 C1795 1.393 . S
C1799 C1798 1.391 . S
H1800 C1808 0.950 . S
H1801 C1813 0.950 . S
H1802 C1810 0.950 . S
H1803 C1812 0.950 . S
H1804 C1814 0.950 . S
H1805 C1816 0.950 . S
H1806 C1818 0.950 . S
H1807 C1819 0.950 . S
C1808 H1800 0.950 . S
C1808 C1809 1.386 . S
C1808 C1810 1.391 . S
C1809 C1808 1.386 . S
C1809 C1813 1.393 . S
C1810 H1802 0.950 . S
C1810 C1808 1.391 . S
C1810 C1811 1.400 . S
C1811 C1810 1.400 . S
C1811 C1812 1.398 . S
C1811 C1817 1.491 . S
C1812 H1803 0.950 . S
C1812 C1811 1.398 . S
C1812 C1813 1.391 . S
C1813 H1801 0.950 . S
C1813 C1809 1.393 . S
C1813 C1812 1.391 . S
C1814 H1804 0.950 . S
C1814 C1815 1.386 . S
C1814 C1816 1.391 . S
C1815 C1814 1.386 . S
C1815 C1819 1.393 . S
C1816 H1805 0.950 . S
C1816 C1814 1.391 . S
C1816 C1817 1.400 . S
C1817 C1811 1.491 . S
C1817 C1816 1.400 . S
C1817 C1818 1.398 . S
C1818 H1806 0.950 . S
C1818 C1817 1.398 . S
C1818 C1819 1.391 . S
C1819 H1807 0.950 . S
C1819 C1815 1.393 . S
C1819 C1818 1.391 . S
H1820 C1828 0.950 . S
H1821 C1833 0.950 . S
H1822 C1830 0.950 . S
H1823 C1832 0.950 . S
H1824 C1834 0.950 . S
H1825 C1836 0.950 . S
H1826 C1838 0.950 . S
H1827 C1839 0.950 . S
C1828 H1820 0.950 . S
C1828 C1829 1.386 . S
C1828 C1830 1.391 . S
C1829 C1828 1.386 . S
C1829 C1833 1.393 . S
C1830 H1822 0.950 . S
C1830 C1828 1.391 . S
C1830 C1831 1.400 . S
C1831 C1830 1.400 . S
C1831 C1832 1.398 . S
C1831 C1837 1.491 . S
C1832 H1823 0.950 . S
C1832 C1831 1.398 . S
C1832 C1833 1.391 . S
C1833 H1821 0.950 . S
C1833 C1829 1.393 . S
C1833 C1832 1.391 . S
C1834 H1824 0.950 . S
C1834 C1835 1.386 . S
C1834 C1836 1.391 . S
C1835 C1834 1.386 . S
C1835 C1839 1.393 . S
C1836 H1825 0.950 . S
C1836 C1834 1.391 . S
C1836 C1837 1.400 . S
C1837 C1831 1.491 . S
C1837 C1836 1.400 . S
C1837 C1838 1.398 . S
C1838 H1826 0.950 . S
C1838 C1837 1.398 . S
C1838 C1839 1.391 . S
C1839 H1827 0.950 . S
C1839 C1835 1.393 . S
C1839 C1838 1.391 . S
H1840 C1848 0.950 . S
H1841 C1853 0.950 . S
H1842 C1850 0.950 . S
H1843 C1852 0.950 . S
H1844 C1854 0.950 . S
H1845 C1856 0.950 . S
H1846 C1858 0.950 . S
H1847 C1859 0.950 . S
C1848 H1840 0.950 . S
C1848 C1849 1.386 . S
C1848 C1850 1.391 . S
C1849 C1848 1.386 . S
C1849 C1853 1.393 . S
C1850 H1842 0.950 . S
C1850 C1848 1.391 . S
C1850 C1851 1.400 . S
C1851 C1850 1.400 . S
C1851 C1852 1.398 . S
C1851 C1857 1.491 . S
C1852 H1843 0.950 . S
C1852 C1851 1.398 . S
C1852 C1853 1.391 . S
C1853 H1841 0.950 . S
C1853 C1849 1.393 . S
C1853 C1852 1.391 . S
C1854 H1844 0.950 . S
C1854 C1855 1.386 . S
C1854 C1856 1.391 . S
C1855 C1854 1.386 . S
C1855 C1859 1.393 . S
C1856 H1845 0.950 . S
C1856 C1854 1.391 . S
C1856 C1857 1.400 . S
C1857 C1851 1.491 . S
C1857 C1856 1.400 . S
C1857 C1858 1.398 . S
C1858 H1846 0.950 . S
C1858 C1857 1.398 . S
C1858 C1859 1.391 . S
C1859 H1847 0.950 . S
C1859 C1855 1.393 . S
C1859 C1858 1.391 . S
H1860 C1868 0.950 . S
H1861 C1873 0.950 . S
H1862 C1870 0.950 . S
H1863 C1872 0.950 . S
H1864 C1874 0.950 . S
H1865 C1876 0.950 . S
H1866 C1878 0.950 . S
H1867 C1879 0.950 . S
C1868 H1860 0.950 . S
C1868 C1869 1.386 . S
C1868 C1870 1.391 . S
C1869 C1868 1.386 . S
C1869 C1873 1.393 . S
C1870 H1862 0.950 . S
C1870 C1868 1.391 . S
C1870 C1871 1.400 . S
C1871 C1870 1.400 . S
C1871 C1872 1.398 . S
C1871 C1877 1.491 . S
C1872 H1863 0.950 . S
C1872 C1871 1.398 . S
C1872 C1873 1.391 . S
C1873 H1861 0.950 . S
C1873 C1869 1.393 . S
C1873 C1872 1.391 . S
C1874 H1864 0.950 . S
C1874 C1875 1.386 . S
C1874 C1876 1.391 . S
C1875 C1874 1.386 . S
C1875 C1879 1.393 . S
C1876 H1865 0.950 . S
C1876 C1874 1.391 . S
C1876 C1877 1.400 . S
C1877 C1871 1.491 . S
C1877 C1876 1.400 . S
C1877 C1878 1.398 . S
C1878 H1866 0.950 . S
C1878 C1877 1.398 . S
C1878 C1879 1.391 . S
C1879 H1867 0.950 . S
C1879 C1875 1.393 . S
C1879 C1878 1.391 . S
H1880 C1888 0.950 . S
H1881 C1893 0.950 . S
H1882 C1890 0.950 . S
H1883 C1892 0.950 . S
H1884 C1894 0.950 . S
H1885 C1896 0.950 . S
H1886 C1898 0.950 . S
H1887 C1899 0.950 . S
C1888 H1880 0.950 . S
C1888 C1889 1.386 . S
C1888 C1890 1.391 . S
C1889 C1888 1.386 . S
C1889 C1893 1.393 . S
C1890 H1882 0.950 . S
C1890 C1888 1.391 . S
C1890 C1891 1.400 . S
C1891 C1890 1.400 . S
C1891 C1892 1.398 . S
C1891 C1897 1.491 . S
C1892 H1883 0.950 . S
C1892 C1891 1.398 . S
C1892 C1893 1.391 . S
C1893 H1881 0.950 . S
C1893 C1889 1.393 . S
C1893 C1892 1.391 . S
C1894 H1884 0.950 . S
C1894 C1895 1.386 . S
C1894 C1896 1.391 . S
C1895 C1894 1.386 . S
C1895 C1899 1.393 . S
C1896 H1885 0.950 . S
C1896 C1894 1.391 . S
C1896 C1897 1.400 . S
C1897 C1891 1.491 . S
C1897 C1896 1.400 . S
C1897 C1898 1.398 . S
C1898 H1886 0.950 . S
C1898 C1897 1.398 . S
C1898 C1899 1.391 . S
C1899 H1887 0.950 . S
C1899 C1895 1.393 . S
C1899 C1898 1.391 . S
H1900 C1908 0.950 . S
H1901 C1913 0.950 . S
H1902 C1910 0.950 . S
H1903 C1912 0.950 . S
H1904 C1914 0.950 . S
H1905 C1916 0.950 . S
H1906 C1918 0.950 . S
H1907 C1919 0.950 . S
C1908 H1900 0.950 . S
C1908 C1909 1.386 . S
C1908 C1910 1.391 . S
C1909 C1908 1.386 . S
C1909 C1913 1.393 . S
C1910 H1902 0.950 . S
C1910 C1908 1.391 . S
C1910 C1911 1.400 . S
C1911 C1910 1.400 . S
C1911 C1912 1.398 . S
C1911 C1917 1.491 . S
C1912 H1903 0.950 . S
C1912 C1911 1.398 . S
C1912 C1913 1.391 . S
C1913 H1901 0.950 . S
C1913 C1909 1.393 . S
C1913 C1912 1.391 . S
C1914 H1904 0.950 . S
C1914 C1915 1.386 . S
C1914 C1916 1.391 . S
C1915 C1914 1.386 . S
C1915 C1919 1.393 . S
C1916 H1905 0.950 . S
C1916 C1914 1.391 . S
C1916 C1917 1.400 . S
C1917 C1911 1.491 . S
C1917 C1916 1.400 . S
C1917 C1918 1.398 . S
C1918 H1906 0.950 . S
C1918 C1917 1.398 . S
C1918 C1919 1.391 . S
C1919 H1907 0.950 . S
C1919 C1915 1.393 . S
C1919 C1918 1.391 . S
H1920 C1928 0.950 . S
H1921 C1933 0.950 . S
H1922 C1930 0.950 . S
H1923 C1932 0.950 . S
H1924 C1934 0.950 . S
H1925 C1936 0.950 . S
H1926 C1938 0.950 . S
H1927 C1939 0.950 . S
C1928 H1920 0.950 . S
C1928 C1929 1.386 . S
C1928 C1930 1.391 . S
C1929 C1928 1.386 . S
C1929 C1933 1.393 . S
C1930 H1922 0.950 . S
C1930 C1928 1.391 . S
C1930 C1931 1.400 . S
C1931 C1930 1.400 . S
C1931 C1932 1.398 . S
C1931 C1937 1.491 . S
C1932 H1923 0.950 . S
C1932 C1931 1.398 . S
C1932 C1933 1.391 . S
C1933 H1921 0.950 . S
C1933 C1929 1.393 . S
C1933 C1932 1.391 . S
C1934 H1924 0.950 . S
C1934 C1935 1.386 . S
C1934 C1936 1.391 . S
C1935 C1934 1.386 . S
C1935 C1939 1.393 . S
C1936 H1925 0.950 . S
C1936 C1934 1.391 . S
C1936 C1937 1.400 . S
C1937 C1931 1.491 . S
C1937 C1936 1.400 . S
C1937 C1938 1.398 . S
C1938 H1926 0.950 . S
C1938 C1937 1.398 . S
C1938 C1939 1.391 . S
C1939 H1927 0.950 . S
C1939 C1935 1.393 . S
C1939 C1938 1.391 . S
H1940 C1948 0.950 . S
H1941 C1953 0.950 . S
H1942 C1950 0.950 . S
H1943 C1952 0.950 . S
H1944 C1954 0.950 . S
H1945 C1956 0.950 . S
H1946 C1958 0.950 . S
H1947 C1959 0.950 . S
C1948 H1940 0.950 . S
C1948 C1949 1.386 . S
C1948 C1950 1.391 . S
C1949 C1948 1.386 . S
C1949 C1953 1.393 . S
C1950 H1942 0.950 . S
C1950 C1948 1.391 . S
C1950 C1951 1.400 . S
C1951 C1950 1.400 . S
C1951 C1952 1.398 1_545 S
C1951 C1957 1.491 1_545 S
C1952 H1943 0.950 . S
C1952 C1951 1.398 1_565 S
C1952 C1953 1.391 1_565 S
C1953 H1941 0.950 . S
C1953 C1949 1.393 . S
C1953 C1952 1.391 1_545 S
C1954 H1944 0.950 . S
C1954 C1955 1.386 . S
C1954 C1956 1.391 . S
C1955 C1954 1.386 . S
C1955 C1959 1.393 . S
C1956 H1945 0.950 . S
C1956 C1954 1.391 . S
C1956 C1957 1.400 . S
C1957 C1951 1.491 1_565 S
C1957 C1956 1.400 . S
C1957 C1958 1.398 1_565 S
C1958 H1946 0.950 . S
C1958 C1957 1.398 1_545 S
C1958 C1959 1.391 1_545 S
C1959 H1947 0.950 . S
C1959 C1955 1.393 . S
C1959 C1958 1.391 1_565 S
H1960 C1968 0.950 . S
H1961 C1973 0.950 . S
H1962 C1970 0.950 . S
H1963 C1972 0.950 . S
H1964 C1974 0.950 . S
H1965 C1976 0.950 . S
H1966 C1978 0.950 . S
H1967 C1979 0.950 . S
C1968 H1960 0.950 . S
C1968 C1969 1.386 . S
C1968 C1970 1.391 . S
C1969 C1968 1.386 . S
C1969 C1973 1.393 . S
C1970 H1962 0.950 . S
C1970 C1968 1.391 . S
C1970 C1971 1.400 . S
C1971 C1970 1.400 . S
C1971 C1972 1.398 . S
C1971 C1977 1.491 1_565 S
C1972 H1963 0.950 . S
C1972 C1971 1.398 . S
C1972 C1973 1.391 . S
C1973 H1961 0.950 . S
C1973 C1969 1.393 . S
C1973 C1972 1.391 . S
C1974 H1964 0.950 . S
C1974 C1975 1.386 . S
C1974 C1976 1.391 . S
C1975 C1974 1.386 . S
C1975 C1979 1.393 . S
C1976 H1965 0.950 . S
C1976 C1974 1.391 . S
C1976 C1977 1.400 . S
C1977 C1971 1.491 1_545 S
C1977 C1976 1.400 . S
C1977 C1978 1.398 . S
C1978 H1966 0.950 . S
C1978 C1977 1.398 . S
C1978 C1979 1.391 . S
C1979 H1967 0.950 . S
C1979 C1975 1.393 . S
C1979 C1978 1.391 . S
H1980 C1988 0.950 . S
H1981 C1993 0.950 . S
H1982 C1990 0.950 . S
H1983 C1992 0.950 . S
H1984 C1994 0.950 . S
H1985 C1996 0.950 . S
H1986 C1998 0.950 . S
H1987 C1999 0.950 . S
C1988 H1980 0.950 . S
C1988 C1989 1.386 . S
C1988 C1990 1.391 . S
C1989 C1988 1.386 . S
C1989 C1993 1.393 . S
C1990 H1982 0.950 . S
C1990 C1988 1.391 . S
C1990 C1991 1.400 . S
C1991 C1990 1.400 . S
C1991 C1992 1.398 . S
C1991 C1997 1.491 . S
C1992 H1983 0.950 . S
C1992 C1991 1.398 . S
C1992 C1993 1.391 . S
C1993 H1981 0.950 . S
C1993 C1989 1.393 . S
C1993 C1992 1.391 . S
C1994 H1984 0.950 . S
C1994 C1995 1.386 . S
C1994 C1996 1.391 . S
C1995 C1994 1.386 . S
C1995 C1999 1.393 . S
C1996 H1985 0.950 . S
C1996 C1994 1.391 . S
C1996 C1997 1.400 . S
C1997 C1991 1.491 . S
C1997 C1996 1.400 . S
C1997 C1998 1.398 . S
C1998 H1986 0.950 . S
C1998 C1997 1.398 . S
C1998 C1999 1.391 . S
C1999 H1987 0.950 . S
C1999 C1995 1.393 . S
C1999 C1998 1.391 . S
H2000 C2008 0.950 . S
H2001 C2013 0.950 . S
H2002 C2010 0.950 . S
H2003 C2012 0.950 . S
H2004 C2014 0.950 . S
H2005 C2016 0.950 . S
H2006 C2018 0.950 . S
H2007 C2019 0.950 . S
C2008 H2000 0.950 . S
C2008 C2009 1.386 . S
C2008 C2010 1.391 . S
C2009 C2008 1.386 . S
C2009 C2013 1.393 . S
C2010 H2002 0.950 . S
C2010 C2008 1.391 . S
C2010 C2011 1.400 . S
C2011 C2010 1.400 . S
C2011 C2012 1.398 . S
C2011 C2017 1.491 . S
C2012 H2003 0.950 . S
C2012 C2011 1.398 . S
C2012 C2013 1.391 . S
C2013 H2001 0.950 . S
C2013 C2009 1.393 . S
C2013 C2012 1.391 . S
C2014 H2004 0.950 . S
C2014 C2015 1.386 . S
C2014 C2016 1.391 . S
C2015 C2014 1.386 . S
C2015 C2019 1.393 . S
C2016 H2005 0.950 . S
C2016 C2014 1.391 . S
C2016 C2017 1.400 . S
C2017 C2011 1.491 . S
C2017 C2016 1.400 . S
C2017 C2018 1.398 . S
C2018 H2006 0.950 . S
C2018 C2017 1.398 . S
C2018 C2019 1.391 . S
C2019 H2007 0.950 . S
C2019 C2015 1.393 . S
C2019 C2018 1.391 . S
H2020 C2028 0.950 . S
H2021 C2033 0.950 . S
H2022 C2030 0.950 . S
H2023 C2032 0.950 . S
H2024 C2034 0.950 . S
H2025 C2036 0.950 . S
H2026 C2038 0.963 . S
H2027 C2039 0.950 . S
C2028 H2020 0.950 . S
C2028 C2029 1.386 . S
C2028 C2030 1.391 . S
C2029 C2028 1.386 . S
C2029 C2033 1.393 . S
C2030 H2022 0.950 . S
C2030 C2028 1.391 . S
C2030 C2031 1.400 . S
C2031 C2030 1.400 . S
C2031 C2032 1.398 . S
C2031 C2037 1.491 1_545 S
C2032 H2023 0.950 . S
C2032 C2031 1.398 . S
C2032 C2033 1.391 . S
C2033 H2021 0.950 . S
C2033 C2029 1.393 . S
C2033 C2032 1.391 . S
C2034 H2024 0.950 . S
C2034 C2035 1.386 . S
C2034 C2036 1.391 . S
C2035 C2034 1.386 . S
C2035 C2039 1.393 . S
C2036 H2025 0.950 . S
C2036 C2034 1.391 . S
C2036 C2037 1.400 . S
C2037 C2031 1.491 1_565 S
C2037 C2036 1.400 . S
C2037 C2038 1.398 . S
C2038 H2026 0.963 . S
C2038 C2037 1.398 . S
C2038 C2039 1.391 . S
C2039 H2027 0.950 . S
C2039 C2035 1.393 . S
C2039 C2038 1.391 . S
H2040 C2048 0.950 . S
H2041 C2053 0.950 1_565 S
H2042 C2050 0.950 . S
H2043 C2052 0.950 . S
H2044 C2054 0.950 . S
H2045 C2056 0.950 . S
H2046 C2058 0.950 . S
H2047 C2059 0.926 1_545 S
C2048 H2040 0.950 . S
C2048 C2049 1.386 . S
C2048 C2050 1.391 . S
C2049 C2048 1.386 . S
C2049 C2053 1.393 . S
C2050 H2042 0.950 . S
C2050 C2048 1.391 . S
C2050 C2051 1.400 . S
C2051 C2050 1.400 . S
C2051 C2052 1.398 1_545 S
C2051 C2057 1.491 1_545 S
C2052 H2043 0.950 . S
C2052 C2051 1.398 1_565 S
C2052 C2053 1.391 1_565 S
C2053 H2041 0.950 1_545 S
C2053 C2049 1.393 . S
C2053 C2052 1.391 1_545 S
C2054 H2044 0.950 . S
C2054 C2055 1.386 . S
C2054 C2056 1.391 . S
C2055 C2054 1.386 . S
C2055 C2059 1.433 . S
C2056 H2045 0.950 . S
C2056 C2054 1.391 . S
C2056 C2057 1.400 . S
C2057 C2051 1.491 1_565 S
C2057 C2056 1.400 . S
C2057 C2058 1.398 1_565 S
C2058 H2046 0.950 . S
C2058 C2057 1.398 1_545 S
C2058 C2059 1.375 1_545 S
C2059 H2047 0.926 1_565 S
C2059 C2055 1.433 . S
C2059 C2058 1.375 1_565 S
H2060 C2068 0.950 . S
H2061 C2073 0.950 . S
H2062 C2070 0.950 . S
H2063 C2072 0.950 . S
H2064 C2074 0.950 . S
H2065 C2076 0.950 . S
H2066 C2078 0.950 . S
H2067 C2079 0.950 . S
C2068 H2060 0.950 . S
C2068 C2069 1.386 . S
C2068 C2070 1.391 . S
C2069 C2068 1.386 . S
C2069 C2073 1.393 . S
C2070 H2062 0.950 . S
C2070 C2068 1.391 . S
C2070 C2071 1.400 . S
C2071 C2070 1.400 . S
C2071 C2072 1.398 . S
C2071 C2077 1.491 . S
C2072 H2063 0.950 . S
C2072 C2071 1.398 . S
C2072 C2073 1.391 . S
C2073 H2061 0.950 . S
C2073 C2069 1.393 . S
C2073 C2072 1.391 . S
C2074 H2064 0.950 . S
C2074 C2075 1.386 . S
C2074 C2076 1.391 . S
C2075 C2074 1.386 . S
C2075 C2079 1.393 . S
C2076 H2065 0.950 . S
C2076 C2074 1.391 . S
C2076 C2077 1.400 . S
C2077 C2071 1.491 . S
C2077 C2076 1.400 . S
C2077 C2078 1.398 . S
C2078 H2066 0.950 . S
C2078 C2077 1.398 . S
C2078 C2079 1.391 . S
C2079 H2067 0.950 . S
C2079 C2075 1.393 . S
C2079 C2078 1.391 . S
H2080 C2088 0.950 . S
H2081 C2093 0.950 . S
H2082 C2090 0.950 . S
H2083 C2092 0.950 . S
H2084 C2094 0.950 . S
H2085 C2096 0.950 . S
H2086 C2098 0.950 . S
H2087 C2099 0.950 . S
C2088 H2080 0.950 . S
C2088 C2089 1.386 . S
C2088 C2090 1.391 . S
C2089 C2088 1.386 . S
C2089 C2093 1.393 . S
C2090 H2082 0.950 . S
C2090 C2088 1.391 . S
C2090 C2091 1.400 . S
C2091 C2090 1.400 . S
C2091 C2092 1.398 . S
C2091 C2097 1.491 . S
C2092 H2083 0.950 . S
C2092 C2091 1.398 . S
C2092 C2093 1.391 . S
C2093 H2081 0.950 . S
C2093 C2089 1.393 . S
C2093 C2092 1.391 . S
C2094 H2084 0.950 . S
C2094 C2095 1.386 . S
C2094 C2096 1.391 . S
C2095 C2094 1.386 . S
C2095 C2099 1.393 . S
C2096 H2085 0.950 . S
C2096 C2094 1.391 . S
C2096 C2097 1.400 . S
C2097 C2091 1.491 . S
C2097 C2096 1.400 . S
C2097 C2098 1.398 . S
C2098 H2086 0.950 . S
C2098 C2097 1.398 . S
C2098 C2099 1.391 . S
C2099 H2087 0.950 . S
C2099 C2095 1.393 . S
C2099 C2098 1.391 . S
H2100 C2108 0.950 . S
H2101 C2113 0.950 . S
H2102 C2110 0.950 . S
H2103 C2112 0.950 . S
H2104 C2114 0.950 . S
H2105 C2116 0.950 . S
H2106 C2118 0.950 . S
H2107 C2119 0.950 . S
C2108 H2100 0.950 . S
C2108 C2109 1.386 . S
C2108 C2110 1.391 . S
C2109 C2108 1.386 . S
C2109 C2113 1.393 . S
C2110 H2102 0.950 . S
C2110 C2108 1.391 . S
C2110 C2111 1.400 . S
C2111 C2110 1.400 . S
C2111 C2112 1.398 . S
C2111 C2117 1.491 . S
C2112 H2103 0.950 . S
C2112 C2111 1.398 . S
C2112 C2113 1.391 . S
C2113 H2101 0.950 . S
C2113 C2109 1.393 . S
C2113 C2112 1.391 . S
C2114 H2104 0.950 . S
C2114 C2115 1.386 . S
C2114 C2116 1.391 . S
C2115 C2114 1.386 . S
C2115 C2119 1.393 . S
C2116 H2105 0.950 . S
C2116 C2114 1.391 . S
C2116 C2117 1.400 . S
C2117 C2111 1.491 . S
C2117 C2116 1.400 . S
C2117 C2118 1.398 . S
C2118 H2106 0.950 . S
C2118 C2117 1.398 . S
C2118 C2119 1.391 . S
C2119 H2107 0.950 . S
C2119 C2115 1.393 . S
C2119 C2118 1.391 . S
H2120 C2128 0.950 . S
H2121 C2133 0.950 . S
H2122 C2130 0.950 1_554 S
H2123 C2132 0.950 . S
H2124 C2134 0.950 . S
H2125 C2136 0.950 . S
H2126 C2138 0.950 . S
H2127 C2139 0.950 . S
C2128 H2120 0.950 . S
C2128 C2129 1.386 . S
C2128 C2130 1.391 . S
C2129 C2128 1.386 . S
C2129 C2133 1.393 . S
C2130 H2122 0.950 1_556 S
C2130 C2128 1.391 . S
C2130 C2131 1.400 1_556 S
C2131 C2130 1.400 1_554 S
C2131 C2132 1.398 1_554 S
C2131 C2137 1.491 . S
C2132 H2123 0.950 . S
C2132 C2131 1.398 1_556 S
C2132 C2133 1.391 . S
C2133 H2121 0.950 . S
C2133 C2129 1.393 . S
C2133 C2132 1.391 . S
C2134 H2124 0.950 . S
C2134 C2135 1.386 . S
C2134 C2136 1.391 . S
C2135 C2134 1.386 . S
C2135 C2139 1.393 . S
C2136 H2125 0.950 . S
C2136 C2134 1.391 . S
C2136 C2137 1.400 . S
C2137 C2131 1.491 . S
C2137 C2136 1.400 . S
C2137 C2138 1.398 . S
C2138 H2126 0.950 . S
C2138 C2137 1.398 . S
C2138 C2139 1.391 . S
C2139 H2127 0.950 . S
C2139 C2135 1.393 . S
C2139 C2138 1.391 . S
H2140 C2148 0.950 . S
H2141 C2153 0.950 . S
H2142 C2150 0.950 1_554 S
H2143 C2152 0.950 . S
H2144 C2154 0.950 . S
H2145 C2156 0.950 . S
H2146 C2158 0.950 . S
H2147 C2159 0.950 . S
C2148 H2140 0.950 . S
C2148 C2149 1.386 . S
C2148 C2150 1.391 . S
C2149 C2148 1.386 . S
C2149 C2153 1.393 . S
C2150 H2142 0.950 1_556 S
C2150 C2148 1.391 . S
C2150 C2151 1.393 1_556 S
C2151 C2150 1.393 1_554 S
C2151 C2152 1.386 1_554 S
C2151 C2157 1.510 . S
C2152 H2143 0.950 . S
C2152 C2151 1.386 1_556 S
C2152 C2153 1.391 . S
C2153 H2141 0.950 . S
C2153 C2149 1.393 . S
C2153 C2152 1.391 . S
C2154 H2144 0.950 . S
C2154 C2155 1.386 . S
C2154 C2156 1.391 . S
C2155 C2154 1.386 . S
C2155 C2159 1.393 . S
C2156 H2145 0.950 . S
C2156 C2154 1.391 . S
C2156 C2157 1.400 . S
C2157 C2151 1.510 . S
C2157 C2156 1.400 . S
C2157 C2158 1.398 . S
C2158 H2146 0.950 . S
C2158 C2157 1.398 . S
C2158 C2159 1.391 . S
C2159 H2147 0.950 . S
C2159 C2155 1.393 . S
C2159 C2158 1.391 . S
H2160 C2168 0.950 . S
H2161 C2173 0.950 . S
H2162 C2170 0.950 . S
H2163 C2172 0.950 . S
H2164 C2174 0.950 . S
H2165 C2176 0.950 . S
H2166 C2178 0.950 . S
H2167 C2179 0.950 . S
C2168 H2160 0.950 . S
C2168 C2169 1.386 . S
C2168 C2170 1.391 . S
C2169 C2168 1.386 . S
C2169 C2173 1.393 . S
C2170 H2162 0.950 . S
C2170 C2168 1.391 . S
C2170 C2171 1.400 . S
C2171 C2170 1.400 . S
C2171 C2172 1.398 . S
C2171 C2177 1.491 . S
C2172 H2163 0.950 . S
C2172 C2171 1.398 . S
C2172 C2173 1.391 . S
C2173 H2161 0.950 . S
C2173 C2169 1.393 . S
C2173 C2172 1.391 . S
C2174 H2164 0.950 . S
C2174 C2175 1.386 . S
C2174 C2176 1.391 . S
C2175 C2174 1.386 . S
C2175 C2179 1.393 . S
C2176 H2165 0.950 . S
C2176 C2174 1.391 . S
C2176 C2177 1.400 . S
C2177 C2171 1.491 . S
C2177 C2176 1.400 . S
C2177 C2178 1.398 . S
C2178 H2166 0.950 . S
C2178 C2177 1.398 . S
C2178 C2179 1.391 . S
C2179 H2167 0.950 . S
C2179 C2175 1.393 . S
C2179 C2178 1.391 . S
H2180 C2188 0.950 . S
H2181 C2193 0.950 . S
H2182 C2190 0.950 . S
H2183 C2192 0.950 . S
H2184 C2194 0.950 . S
H2185 C2196 0.950 . S
H2186 C2198 0.950 . S
H2187 C2199 0.950 . S
C2188 H2180 0.950 . S
C2188 C2189 1.386 . S
C2188 C2190 1.391 . S
C2189 C2188 1.386 . S
C2189 C2193 1.393 . S
C2190 H2182 0.950 . S
C2190 C2188 1.391 . S
C2190 C2191 1.400 . S
C2191 C2190 1.400 . S
C2191 C2192 1.398 . S
C2191 C2197 1.491 . S
C2192 H2183 0.950 . S
C2192 C2191 1.398 . S
C2192 C2193 1.391 . S
C2193 H2181 0.950 . S
C2193 C2189 1.393 . S
C2193 C2192 1.391 . S
C2194 H2184 0.950 . S
C2194 C2195 1.386 . S
C2194 C2196 1.391 . S
C2195 C2194 1.386 . S
C2195 C2199 1.393 . S
C2196 H2185 0.950 . S
C2196 C2194 1.391 . S
C2196 C2197 1.400 . S
C2197 C2191 1.491 . S
C2197 C2196 1.400 . S
C2197 C2198 1.398 . S
C2198 H2186 0.950 . S
C2198 C2197 1.398 . S
C2198 C2199 1.391 . S
C2199 H2187 0.950 . S
C2199 C2195 1.393 . S
C2199 C2198 1.391 . S
H2200 C2208 0.950 . S
H2201 C2213 0.950 . S
H2202 C2210 0.950 1_556 S
H2203 C2212 0.950 . S
H2204 C2214 0.950 . S
H2205 C2216 0.950 . S
H2206 C2218 0.950 . S
H2207 C2219 0.950 . S
C2208 H2200 0.950 . S
C2208 C2209 1.386 . S
C2208 C2210 1.391 . S
C2209 C2208 1.386 . S
C2209 C2213 1.393 . S
C2210 H2202 0.950 1_554 S
C2210 C2208 1.391 . S
C2210 C2211 1.400 1_554 S
C2211 C2210 1.400 1_556 S
C2211 C2212 1.398 1_556 S
C2211 C2217 1.491 . S
C2212 H2203 0.950 . S
C2212 C2211 1.398 1_554 S
C2212 C2213 1.391 . S
C2213 H2201 0.950 . S
C2213 C2209 1.393 . S
C2213 C2212 1.391 . S
C2214 H2204 0.950 . S
C2214 C2215 1.386 . S
C2214 C2216 1.391 . S
C2215 C2214 1.386 . S
C2215 C2219 1.393 . S
C2216 H2205 0.950 . S
C2216 C2214 1.391 . S
C2216 C2217 1.400 . S
C2217 C2211 1.491 . S
C2217 C2216 1.400 . S
C2217 C2218 1.398 . S
C2218 H2206 0.950 . S
C2218 C2217 1.398 . S
C2218 C2219 1.391 . S
C2219 H2207 0.950 . S
C2219 C2215 1.393 . S
C2219 C2218 1.391 . S
H2220 C2228 0.950 . S
H2221 C2233 0.950 . S
H2222 C2230 0.950 . S
H2223 C2232 0.950 . S
H2224 C2234 0.950 . S
H2225 C2236 0.950 1_556 S
H2226 C2238 0.950 . S
H2227 C2239 0.950 . S
C2228 H2220 0.950 . S
C2228 C2229 1.386 . S
C2228 C2230 1.391 . S
C2229 C2228 1.386 . S
C2229 C2233 1.393 . S
C2230 H2222 0.950 . S
C2230 C2228 1.391 . S
C2230 C2231 1.400 . S
C2231 C2230 1.400 . S
C2231 C2232 1.398 . S
C2231 C2237 1.491 . S
C2232 H2223 0.950 . S
C2232 C2231 1.398 . S
C2232 C2233 1.391 . S
C2233 H2221 0.950 . S
C2233 C2229 1.393 . S
C2233 C2232 1.391 . S
C2234 H2224 0.950 . S
C2234 C2235 1.386 . S
C2234 C2236 1.391 . S
C2235 C2234 1.386 . S
C2235 C2239 1.393 . S
C2236 H2225 0.950 1_554 S
C2236 C2234 1.391 . S
C2236 C2237 1.400 1_554 S
C2237 C2231 1.491 . S
C2237 C2236 1.400 1_556 S
C2237 C2238 1.398 1_556 S
C2238 H2226 0.950 . S
C2238 C2237 1.398 1_554 S
C2238 C2239 1.391 . S
C2239 H2227 0.950 . S
C2239 C2235 1.393 . S
C2239 C2238 1.391 . S
H2240 C2248 0.950 . S
H2241 C2253 0.950 . S
H2242 C2250 0.950 . S
H2243 C2252 0.950 . S
H2244 C2254 0.950 . S
H2245 C2256 0.950 . S
H2246 C2258 0.950 . S
H2247 C2259 0.950 . S
C2248 H2240 0.950 . S
C2248 C2249 1.386 . S
C2248 C2250 1.391 . S
C2249 C2248 1.386 . S
C2249 C2253 1.393 . S
C2250 H2242 0.950 . S
C2250 C2248 1.391 . S
C2250 C2251 1.400 . S
C2251 C2250 1.400 . S
C2251 C2252 1.398 . S
C2251 C2257 1.491 . S
C2252 H2243 0.950 . S
C2252 C2251 1.398 . S
C2252 C2253 1.391 . S
C2253 H2241 0.950 . S
C2253 C2249 1.393 . S
C2253 C2252 1.391 . S
C2254 H2244 0.950 . S
C2254 C2255 1.386 . S
C2254 C2256 1.391 . S
C2255 C2254 1.386 . S
C2255 C2259 1.393 . S
C2256 H2245 0.950 . S
C2256 C2254 1.391 . S
C2256 C2257 1.400 . S
C2257 C2251 1.491 . S
C2257 C2256 1.400 . S
C2257 C2258 1.398 . S
C2258 H2246 0.950 . S
C2258 C2257 1.398 . S
C2258 C2259 1.391 . S
C2259 H2247 0.950 . S
C2259 C2255 1.393 . S
C2259 C2258 1.391 . S
H2260 C2268 0.950 . S
H2261 C2273 0.950 . S
H2262 C2270 0.950 . S
H2263 C2272 0.925 1_545 S
H2264 C2274 0.950 . S
H2265 C2276 0.950 . S
H2266 C2278 0.931 1_565 S
H2267 C2279 0.950 . S
C2268 H2260 0.950 . S
C2268 C2269 1.386 . S
C2268 C2270 1.391 . S
C2269 C2268 1.386 . S
C2269 C2273 1.393 . S
C2270 H2262 0.950 . S
C2270 C2268 1.391 . S
C2270 C2271 1.400 . S
C2271 C2270 1.400 . S
C2271 C2272 1.407 . S
C2271 C2277 1.491 1_565 S
C2272 H2263 0.925 1_565 S
C2272 C2271 1.407 . S
C2272 C2273 1.408 . S
C2273 H2261 0.950 . S
C2273 C2269 1.393 . S
C2273 C2272 1.408 . S
C2274 H2264 0.950 . S
C2274 C2275 1.386 . S
C2274 C2276 1.391 . S
C2275 C2274 1.386 . S
C2275 C2279 1.393 . S
C2276 H2265 0.950 . S
C2276 C2274 1.391 . S
C2276 C2277 1.400 . S
C2277 C2271 1.491 1_545 S
C2277 C2276 1.400 . S
C2277 C2278 1.405 . S
C2278 H2266 0.931 1_545 S
C2278 C2277 1.405 . S
C2278 C2279 1.404 . S
C2279 H2267 0.950 . S
C2279 C2275 1.393 . S
C2279 C2278 1.404 . S
H2280 C2288 0.950 . S
H2281 C2293 0.950 . S
H2282 C2290 0.950 1_554 S
H2283 C2292 0.950 . S
H2284 C2294 0.950 . S
H2285 C2296 0.950 . S
H2286 C2298 0.950 . S
H2287 C2299 0.950 . S
C2288 H2280 0.950 . S
C2288 C2289 1.386 . S
C2288 C2290 1.391 . S
C2289 C2288 1.386 . S
C2289 C2293 1.393 1_565 S
C2290 H2282 0.950 1_556 S
C2290 C2288 1.391 . S
C2290 C2291 1.400 1_556 S
C2291 C2290 1.400 1_554 S
C2291 C2292 1.398 1_564 S
C2291 C2297 1.491 1_565 S
C2292 H2283 0.950 . S
C2292 C2291 1.398 1_546 S
C2292 C2293 1.391 . S
C2293 H2281 0.950 . S
C2293 C2289 1.393 1_545 S
C2293 C2292 1.391 . S
C2294 H2284 0.950 . S
C2294 C2295 1.386 . S
C2294 C2296 1.391 . S
C2295 C2294 1.386 . S
C2295 C2299 1.393 1_545 S
C2296 H2285 0.950 . S
C2296 C2294 1.391 . S
C2296 C2297 1.400 . S
C2297 C2291 1.491 1_545 S
C2297 C2296 1.400 . S
C2297 C2298 1.398 1_545 S
C2298 H2286 0.950 . S
C2298 C2297 1.398 1_565 S
C2298 C2299 1.391 . S
C2299 H2287 0.950 . S
C2299 C2295 1.393 1_565 S
C2299 C2298 1.391 . S
H2300 C2308 0.950 . S
H2301 C2313 0.950 . S
H2302 C2310 0.950 1_554 S
H2303 C2312 0.950 . S
H2304 C2314 0.950 . S
H2305 C2316 0.950 . S
H2306 C2318 0.950 . S
H2307 C2319 0.950 . S
C2308 H2300 0.950 . S
C2308 C2309 1.386 . S
C2308 C2310 1.391 . S
C2309 C2308 1.386 . S
C2309 C2313 1.393 . S
C2310 H2302 0.950 1_556 S
C2310 C2308 1.391 . S
C2310 C2311 1.400 1_556 S
C2311 C2310 1.400 1_554 S
C2311 C2312 1.398 1_554 S
C2311 C2317 1.491 . S
C2312 H2303 0.950 . S
C2312 C2311 1.398 1_556 S
C2312 C2313 1.391 . S
C2313 H2301 0.950 . S
C2313 C2309 1.393 . S
C2313 C2312 1.391 . S
C2314 H2304 0.950 . S
C2314 C2315 1.386 . S
C2314 C2316 1.391 . S
C2315 C2314 1.386 . S
C2315 C2319 1.393 . S
C2316 H2305 0.950 . S
C2316 C2314 1.391 . S
C2316 C2317 1.400 . S
C2317 C2311 1.491 . S
C2317 C2316 1.400 . S
C2317 C2318 1.398 . S
C2318 H2306 0.950 . S
C2318 C2317 1.398 . S
C2318 C2319 1.391 . S
C2319 H2307 0.950 . S
C2319 C2315 1.393 . S
C2319 C2318 1.391 . S
H2320 C2328 0.950 . S
H2321 C2333 0.950 . S
H2322 C2330 0.950 . S
H2323 C2332 0.950 . S
H2324 C2334 0.950 . S
H2325 C2336 0.950 . S
H2326 C2338 0.950 . S
H2327 C2339 0.950 . S
C2328 H2320 0.950 . S
C2328 C2329 1.386 . S
C2328 C2330 1.391 . S
C2329 C2328 1.386 . S
C2329 C2333 1.393 . S
C2330 H2322 0.950 . S
C2330 C2328 1.391 . S
C2330 C2331 1.400 . S
C2331 C2330 1.400 . S
C2331 C2332 1.398 . S
C2331 C2337 1.491 . S
C2332 H2323 0.950 . S
C2332 C2331 1.398 . S
C2332 C2333 1.391 . S
C2333 H2321 0.950 . S
C2333 C2329 1.393 . S
C2333 C2332 1.391 . S
C2334 H2324 0.950 . S
C2334 C2335 1.386 . S
C2334 C2336 1.391 . S
C2335 C2334 1.386 . S
C2335 C2339 1.393 . S
C2336 H2325 0.950 . S
C2336 C2334 1.391 . S
C2336 C2337 1.400 . S
C2337 C2331 1.491 . S
C2337 C2336 1.400 . S
C2337 C2338 1.398 . S
C2338 H2326 0.950 . S
C2338 C2337 1.398 . S
C2338 C2339 1.391 . S
C2339 H2327 0.950 . S
C2339 C2335 1.393 . S
C2339 C2338 1.391 . S
H2340 C2348 0.950 . S
H2341 C2353 0.950 1_565 S
H2342 C2350 0.950 . S
H2343 C2352 0.950 . S
H2344 C2354 0.950 . S
H2345 C2356 0.950 . S
H2346 C2358 0.950 . S
H2347 C2359 0.950 1_545 S
C2348 H2340 0.950 . S
C2348 C2349 1.386 . S
C2348 C2350 1.391 . S
C2349 C2348 1.386 . S
C2349 C2353 1.393 . S
C2350 H2342 0.950 . S
C2350 C2348 1.391 . S
C2350 C2351 1.400 . S
C2351 C2350 1.400 . S
C2351 C2352 1.398 1_545 S
C2351 C2357 1.491 1_545 S
C2352 H2343 0.950 . S
C2352 C2351 1.398 1_565 S
C2352 C2353 1.391 1_565 S
C2353 H2341 0.950 1_545 S
C2353 C2349 1.393 . S
C2353 C2352 1.391 1_545 S
C2354 H2344 0.950 . S
C2354 C2355 1.386 . S
C2354 C2356 1.391 . S
C2355 C2354 1.386 . S
C2355 C2359 1.393 . S
C2356 H2345 0.950 . S
C2356 C2354 1.391 . S
C2356 C2357 1.400 . S
C2357 C2351 1.491 1_565 S
C2357 C2356 1.400 . S
C2357 C2358 1.398 1_565 S
C2358 H2346 0.950 . S
C2358 C2357 1.398 1_545 S
C2358 C2359 1.391 1_545 S
C2359 H2347 0.950 1_565 S
C2359 C2355 1.393 . S
C2359 C2358 1.391 1_565 S
H2360 C2368 0.950 . S
H2361 C2373 0.950 . S
H2362 C2370 0.950 . S
H2363 C2372 0.950 . S
H2364 C2374 0.950 . S
H2365 C2376 0.950 1_556 S
H2366 C2378 0.950 . S
H2367 C2379 0.950 . S
C2368 H2360 0.950 . S
C2368 C2369 1.386 . S
C2368 C2370 1.391 . S
C2369 C2368 1.386 . S
C2369 C2373 1.393 1_565 S
C2370 H2362 0.950 . S
C2370 C2368 1.391 . S
C2370 C2371 1.400 . S
C2371 C2370 1.400 . S
C2371 C2372 1.398 1_565 S
C2371 C2377 1.491 1_565 S
C2372 H2363 0.950 . S
C2372 C2371 1.398 1_545 S
C2372 C2373 1.391 . S
C2373 H2361 0.950 . S
C2373 C2369 1.393 1_545 S
C2373 C2372 1.391 . S
C2374 H2364 0.950 . S
C2374 C2375 1.386 . S
C2374 C2376 1.391 . S
C2375 C2374 1.386 . S
C2375 C2379 1.393 1_545 S
C2376 H2365 0.950 1_554 S
C2376 C2374 1.391 . S
C2376 C2377 1.400 1_554 S
C2377 C2371 1.491 1_545 S
C2377 C2376 1.400 1_556 S
C2377 C2378 1.398 1_546 S
C2378 H2366 0.950 . S
C2378 C2377 1.398 1_564 S
C2378 C2379 1.391 . S
C2379 H2367 0.950 . S
C2379 C2375 1.393 1_565 S
C2379 C2378 1.391 . S
H2380 C2388 0.950 . S
H2381 C2393 0.950 . S
H2382 C2390 0.950 . S
H2383 C2392 0.950 . S
H2384 C2394 0.950 . S
H2385 C2396 0.950 . S
H2386 C2398 0.950 . S
H2387 C2399 0.950 . S
C2388 H2380 0.950 . S
C2388 C2389 1.386 . S
C2388 C2390 1.391 . S
C2389 C2388 1.386 . S
C2389 C2393 1.393 . S
C2390 H2382 0.950 . S
C2390 C2388 1.391 . S
C2390 C2391 1.400 . S
C2391 C2390 1.400 . S
C2391 C2392 1.398 . S
C2391 C2397 1.491 . S
C2392 H2383 0.950 . S
C2392 C2391 1.398 . S
C2392 C2393 1.391 . S
C2393 H2381 0.950 . S
C2393 C2389 1.393 . S
C2393 C2392 1.391 . S
C2394 H2384 0.950 . S
C2394 C2395 1.386 . S
C2394 C2396 1.391 . S
C2395 C2394 1.386 . S
C2395 C2399 1.393 . S
C2396 H2385 0.950 . S
C2396 C2394 1.391 . S
C2396 C2397 1.400 1_554 S
C2397 C2391 1.491 . S
C2397 C2396 1.400 1_556 S
C2397 C2398 1.398 1_556 S
C2398 H2386 0.950 . S
C2398 C2397 1.398 1_554 S
C2398 C2399 1.391 . S
C2399 H2387 0.950 . S
C2399 C2395 1.393 . S
C2399 C2398 1.391 . S
H2400 C2408 0.950 . S
H2401 C2413 0.950 . S
H2402 C2410 0.950 . S
H2403 C2412 0.950 . S
H2404 C2414 0.950 . S
H2405 C2416 0.950 . S
H2406 C2418 0.950 . S
H2407 C2419 0.950 . S
C2408 H2400 0.950 . S
C2408 C2409 1.386 . S
C2408 C2410 1.391 . S
C2409 C2408 1.386 . S
C2409 C2413 1.393 . S
C2410 H2402 0.950 . S
C2410 C2408 1.391 . S
C2410 C2411 1.400 . S
C2411 C2410 1.400 . S
C2411 C2412 1.398 . S
C2411 C2417 1.491 . S
C2412 H2403 0.950 . S
C2412 C2411 1.398 . S
C2412 C2413 1.391 . S
C2413 H2401 0.950 . S
C2413 C2409 1.393 . S
C2413 C2412 1.391 . S
C2414 H2404 0.950 . S
C2414 C2415 1.386 . S
C2414 C2416 1.391 . S
C2415 C2414 1.386 . S
C2415 C2419 1.393 . S
C2416 H2405 0.950 . S
C2416 C2414 1.391 . S
C2416 C2417 1.400 . S
C2417 C2411 1.491 . S
C2417 C2416 1.400 . S
C2417 C2418 1.398 . S
C2418 H2406 0.950 . S
C2418 C2417 1.398 . S
C2418 C2419 1.391 . S
C2419 H2407 0.950 . S
C2419 C2415 1.393 . S
C2419 C2418 1.391 . S
H2420 C2428 0.950 . S
H2421 C2433 0.950 . S
H2422 C2430 0.950 . S
H2423 C2432 0.950 . S
H2424 C2434 0.950 . S
H2425 C2436 0.950 . S
H2426 C2438 0.950 . S
H2427 C2439 0.950 . S
C2428 H2420 0.950 . S
C2428 C2429 1.386 . S
C2428 C2430 1.391 . S
C2429 C2428 1.386 . S
C2429 C2433 1.393 . S
C2430 H2422 0.950 . S
C2430 C2428 1.391 . S
C2430 C2431 1.400 . S
C2431 C2430 1.400 . S
C2431 C2432 1.398 . S
C2431 C2437 1.491 . S
C2432 H2423 0.950 . S
C2432 C2431 1.398 . S
C2432 C2433 1.391 . S
C2433 H2421 0.950 . S
C2433 C2429 1.393 . S
C2433 C2432 1.391 . S
C2434 H2424 0.950 . S
C2434 C2435 1.386 . S
C2434 C2436 1.391 . S
C2435 C2434 1.386 . S
C2435 C2439 1.393 . S
C2436 H2425 0.950 . S
C2436 C2434 1.391 . S
C2436 C2437 1.400 . S
C2437 C2431 1.491 . S
C2437 C2436 1.400 . S
C2437 C2438 1.398 . S
C2438 H2426 0.950 . S
C2438 C2437 1.398 . S
C2438 C2439 1.391 . S
C2439 H2427 0.950 . S
C2439 C2435 1.393 . S
C2439 C2438 1.391 . S
H2440 C2448 0.950 . S
H2441 C2453 0.950 . S
H2442 C2450 0.950 . S
H2443 C2452 0.950 . S
H2444 C2454 0.950 . S
H2445 C2456 0.950 . S
H2446 C2458 0.950 . S
H2447 C2459 0.950 . S
C2448 H2440 0.950 . S
C2448 C2449 1.386 . S
C2448 C2450 1.391 . S
C2449 C2448 1.386 . S
C2449 C2453 1.393 . S
C2450 H2442 0.950 . S
C2450 C2448 1.391 . S
C2450 C2451 1.400 . S
C2451 C2450 1.400 . S
C2451 C2452 1.398 . S
C2451 C2457 1.491 . S
C2452 H2443 0.950 . S
C2452 C2451 1.398 . S
C2452 C2453 1.391 . S
C2453 H2441 0.950 . S
C2453 C2449 1.393 . S
C2453 C2452 1.391 . S
C2454 H2444 0.950 . S
C2454 C2455 1.386 . S
C2454 C2456 1.391 . S
C2455 C2454 1.386 . S
C2455 C2459 1.393 . S
C2456 H2445 0.950 . S
C2456 C2454 1.391 . S
C2456 C2457 1.400 . S
C2457 C2451 1.491 . S
C2457 C2456 1.400 . S
C2457 C2458 1.398 . S
C2458 H2446 0.950 . S
C2458 C2457 1.398 . S
C2458 C2459 1.391 . S
C2459 H2447 0.950 . S
C2459 C2455 1.393 . S
C2459 C2458 1.391 . S
H2460 C2468 0.950 . S
H2461 C2473 0.950 . S
H2462 C2470 0.950 . S
H2463 C2472 0.950 . S
H2464 C2474 0.950 . S
H2465 C2476 0.950 . S
H2466 C2478 0.950 . S
H2467 C2479 0.950 . S
C2468 H2460 0.950 . S
C2468 C2469 1.386 . S
C2468 C2470 1.391 . S
C2469 C2468 1.386 . S
C2469 C2473 1.393 . S
C2470 H2462 0.950 . S
C2470 C2468 1.391 . S
C2470 C2471 1.400 . S
C2471 C2470 1.400 . S
C2471 C2472 1.398 . S
C2471 C2477 1.491 . S
C2472 H2463 0.950 . S
C2472 C2471 1.398 . S
C2472 C2473 1.391 . S
C2473 H2461 0.950 . S
C2473 C2469 1.393 . S
C2473 C2472 1.391 . S
C2474 H2464 0.950 . S
C2474 C2475 1.386 . S
C2474 C2476 1.391 . S
C2475 C2474 1.386 . S
C2475 C2479 1.393 . S
C2476 H2465 0.950 . S
C2476 C2474 1.391 . S
C2476 C2477 1.400 . S
C2477 C2471 1.491 . S
C2477 C2476 1.400 . S
C2477 C2478 1.398 . S
C2478 H2466 0.950 . S
C2478 C2477 1.398 . S
C2478 C2479 1.391 . S
C2479 H2467 0.950 . S
C2479 C2475 1.393 . S
C2479 C2478 1.391 . S
H2480 C2488 0.950 . S
H2481 C2493 0.950 . S
H2482 C2490 0.950 . S
H2483 C2492 0.950 . S
H2484 C2494 0.950 . S
H2485 C2496 0.950 . S
H2486 C2498 0.950 . S
H2487 C2499 0.950 . S
C2488 H2480 0.950 . S
C2488 C2489 1.386 . S
C2488 C2490 1.391 . S
C2489 C2488 1.386 . S
C2489 C2493 1.393 . S
C2490 H2482 0.950 . S
C2490 C2488 1.391 . S
C2490 C2491 1.400 . S
C2491 C2490 1.400 . S
C2491 C2492 1.398 . S
C2491 C2497 1.491 . S
C2492 H2483 0.950 . S
C2492 C2491 1.398 . S
C2492 C2493 1.391 . S
C2493 H2481 0.950 . S
C2493 C2489 1.393 . S
C2493 C2492 1.391 . S
C2494 H2484 0.950 . S
C2494 C2495 1.386 . S
C2494 C2496 1.391 . S
C2495 C2494 1.386 . S
C2495 C2499 1.393 . S
C2496 H2485 0.950 . S
C2496 C2494 1.391 . S
C2496 C2497 1.400 . S
C2497 C2491 1.491 . S
C2497 C2496 1.400 . S
C2497 C2498 1.398 . S
C2498 H2486 0.950 . S
C2498 C2497 1.398 . S
C2498 C2499 1.391 . S
C2499 H2487 0.950 . S
C2499 C2495 1.393 . S
C2499 C2498 1.391 . S
H2500 C2508 0.950 . S
H2501 C2513 0.950 . S
H2502 C2510 0.950 . S
H2503 C2512 0.950 . S
H2504 C2514 0.950 . S
H2505 C2516 0.950 . S
H2506 C2518 0.950 . S
H2507 C2519 0.950 . S
C2508 H2500 0.950 . S
C2508 C2509 1.386 . S
C2508 C2510 1.391 . S
C2509 C2508 1.386 . S
C2509 C2513 1.393 . S
C2510 H2502 0.950 . S
C2510 C2508 1.391 . S
C2510 C2511 1.400 . S
C2511 C2510 1.400 . S
C2511 C2512 1.398 . S
C2511 C2517 1.491 . S
C2512 H2503 0.950 . S
C2512 C2511 1.398 . S
C2512 C2513 1.391 . S
C2513 H2501 0.950 . S
C2513 C2509 1.393 . S
C2513 C2512 1.391 . S
C2514 H2504 0.950 . S
C2514 C2515 1.386 . S
C2514 C2516 1.391 . S
C2515 C2514 1.386 . S
C2515 C2519 1.393 . S
C2516 H2505 0.950 . S
C2516 C2514 1.391 . S
C2516 C2517 1.400 . S
C2517 C2511 1.491 . S
C2517 C2516 1.400 . S
C2517 C2518 1.398 . S
C2518 H2506 0.950 . S
C2518 C2517 1.398 . S
C2518 C2519 1.391 . S
C2519 H2507 0.950 . S
C2519 C2515 1.393 . S
C2519 C2518 1.391 . S
H2520 C2528 0.950 . S
H2521 C2533 0.950 . S
H2522 C2530 0.950 . S
H2523 C2532 0.950 . S
H2524 C2534 0.950 . S
H2525 C2536 0.950 . S
H2526 C2538 0.950 . S
H2527 C2539 0.950 . S
C2528 H2520 0.950 . S
C2528 C2529 1.386 . S
C2528 C2530 1.391 . S
C2529 C2528 1.386 . S
C2529 C2533 1.393 . S
C2530 H2522 0.950 . S
C2530 C2528 1.391 . S
C2530 C2531 1.400 . S
C2531 C2530 1.400 . S
C2531 C2532 1.398 . S
C2531 C2537 1.491 . S
C2532 H2523 0.950 . S
C2532 C2531 1.398 . S
C2532 C2533 1.391 . S
C2533 H2521 0.950 . S
C2533 C2529 1.393 . S
C2533 C2532 1.391 . S
C2534 H2524 0.950 . S
C2534 C2535 1.386 . S
C2534 C2536 1.391 . S
C2535 C2534 1.386 . S
C2535 C2539 1.393 . S
C2536 H2525 0.950 . S
C2536 C2534 1.391 . S
C2536 C2537 1.400 . S
C2537 C2531 1.491 . S
C2537 C2536 1.400 . S
C2537 C2538 1.398 . S
C2538 H2526 0.950 . S
C2538 C2537 1.398 . S
C2538 C2539 1.391 . S
C2539 H2527 0.950 . S
C2539 C2535 1.393 . S
C2539 C2538 1.391 . S
H2540 C2548 0.950 . S
H2541 C2553 0.950 . S
H2542 C2550 0.950 . S
H2543 C2552 0.950 . S
H2544 C2554 0.950 . S
H2545 C2556 0.950 . S
H2546 C2558 0.950 . S
H2547 C2559 0.950 . S
C2548 H2540 0.950 . S
C2548 C2549 1.386 . S
C2548 C2550 1.391 . S
C2549 C2548 1.386 . S
C2549 C2553 1.393 . S
C2550 H2542 0.950 . S
C2550 C2548 1.391 . S
C2550 C2551 1.400 . S
C2551 C2550 1.400 . S
C2551 C2552 1.398 . S
C2551 C2557 1.491 . S
C2552 H2543 0.950 . S
C2552 C2551 1.398 . S
C2552 C2553 1.391 . S
C2553 H2541 0.950 . S
C2553 C2549 1.393 . S
C2553 C2552 1.391 . S
C2554 H2544 0.950 . S
C2554 C2555 1.386 . S
C2554 C2556 1.391 . S
C2555 C2554 1.386 . S
C2555 C2559 1.393 . S
C2556 H2545 0.950 . S
C2556 C2554 1.391 . S
C2556 C2557 1.400 . S
C2557 C2551 1.491 . S
C2557 C2556 1.400 . S
C2557 C2558 1.398 . S
C2558 H2546 0.950 . S
C2558 C2557 1.398 . S
C2558 C2559 1.391 . S
C2559 H2547 0.950 . S
C2559 C2555 1.393 . S
C2559 C2558 1.391 . S
H2560 C2568 0.950 . S
H2561 C2573 0.950 . S
H2562 C2570 0.950 . S
H2563 C2572 0.950 . S
H2564 C2574 0.950 . S
H2565 C2576 0.950 . S
H2566 C2578 0.950 . S
H2567 C2579 0.950 . S
C2568 H2560 0.950 . S
C2568 C2569 1.386 . S
C2568 C2570 1.391 . S
C2569 C2568 1.386 . S
C2569 C2573 1.393 . S
C2570 H2562 0.950 . S
C2570 C2568 1.391 . S
C2570 C2571 1.400 . S
C2571 C2570 1.400 . S
C2571 C2572 1.398 . S
C2571 C2577 1.491 . S
C2572 H2563 0.950 . S
C2572 C2571 1.398 . S
C2572 C2573 1.391 . S
C2573 H2561 0.950 . S
C2573 C2569 1.393 . S
C2573 C2572 1.391 . S
C2574 H2564 0.950 . S
C2574 C2575 1.386 . S
C2574 C2576 1.391 . S
C2575 C2574 1.386 . S
C2575 C2579 1.393 . S
C2576 H2565 0.950 . S
C2576 C2574 1.391 . S
C2576 C2577 1.400 . S
C2577 C2571 1.491 . S
C2577 C2576 1.400 . S
C2577 C2578 1.398 . S
C2578 H2566 0.950 . S
C2578 C2577 1.398 . S
C2578 C2579 1.391 . S
C2579 H2567 0.950 . S
C2579 C2575 1.393 . S
C2579 C2578 1.391 . S
H2580 C2588 0.950 . S
H2581 C2593 0.950 . S
H2582 C2590 0.950 . S
H2583 C2592 0.950 . S
H2584 C2594 0.950 . S
H2585 C2596 0.950 . S
H2586 C2598 0.950 . S
H2587 C2599 0.950 . S
C2588 H2580 0.950 . S
C2588 C2589 1.386 . S
C2588 C2590 1.391 . S
C2589 C2588 1.386 . S
C2589 C2593 1.393 . S
C2590 H2582 0.950 . S
C2590 C2588 1.391 . S
C2590 C2591 1.400 . S
C2591 C2590 1.400 . S
C2591 C2592 1.398 . S
C2591 C2597 1.491 . S
C2592 H2583 0.950 . S
C2592 C2591 1.398 . S
C2592 C2593 1.391 . S
C2593 H2581 0.950 . S
C2593 C2589 1.393 . S
C2593 C2592 1.391 . S
C2594 H2584 0.950 . S
C2594 C2595 1.386 . S
C2594 C2596 1.391 . S
C2595 C2594 1.386 . S
C2595 C2599 1.393 . S
C2596 H2585 0.950 . S
C2596 C2594 1.391 . S
C2596 C2597 1.400 . S
C2597 C2591 1.491 . S
C2597 C2596 1.400 . S
C2597 C2598 1.398 . S
C2598 H2586 0.950 . S
C2598 C2597 1.398 . S
C2598 C2599 1.391 . S
C2599 H2587 0.950 . S
C2599 C2595 1.393 . S
C2599 C2598 1.391 . S
H2600 C2608 0.950 . S
H2601 C2613 0.950 . S
H2602 C2610 0.950 . S
H2603 C2612 0.950 . S
H2604 C2614 0.950 . S
H2605 C2616 0.950 . S
H2606 C2618 0.950 . S
H2607 C2619 0.950 . S
C2608 H2600 0.950 . S
C2608 C2609 1.386 . S
C2608 C2610 1.391 . S
C2609 C2608 1.386 . S
C2609 C2613 1.393 . S
C2610 H2602 0.950 . S
C2610 C2608 1.391 . S
C2610 C2611 1.400 . S
C2611 C2610 1.400 . S
C2611 C2612 1.398 . S
C2611 C2617 1.491 . S
C2612 H2603 0.950 . S
C2612 C2611 1.398 . S
C2612 C2613 1.391 . S
C2613 H2601 0.950 . S
C2613 C2609 1.393 . S
C2613 C2612 1.391 . S
C2614 H2604 0.950 . S
C2614 C2615 1.386 . S
C2614 C2616 1.391 . S
C2615 C2614 1.386 . S
C2615 C2619 1.393 . S
C2616 H2605 0.950 . S
C2616 C2614 1.391 . S
C2616 C2617 1.400 . S
C2617 C2611 1.491 . S
C2617 C2616 1.400 . S
C2617 C2618 1.398 . S
C2618 H2606 0.950 . S
C2618 C2617 1.398 . S
C2618 C2619 1.391 . S
C2619 H2607 0.950 . S
C2619 C2615 1.393 . S
C2619 C2618 1.391 . S
H2620 C2628 0.950 . S
H2621 C2633 0.950 . S
H2622 C2630 0.950 . S
H2623 C2632 0.950 . S
H2624 C2634 0.950 1_554 S
H2625 C2636 0.950 . S
H2626 C2638 0.950 . S
H2627 C2639 0.950 . S
C2628 H2620 0.950 . S
C2628 C2629 1.386 . S
C2628 C2630 1.391 . S
C2629 C2628 1.386 . S
C2629 C2633 1.393 . S
C2630 H2622 0.950 . S
C2630 C2628 1.391 . S
C2630 C2631 1.400 . S
C2631 C2630 1.400 . S
C2631 C2632 1.398 . S
C2631 C2637 1.491 . S
C2632 H2623 0.950 . S
C2632 C2631 1.398 . S
C2632 C2633 1.391 . S
C2633 H2621 0.950 . S
C2633 C2629 1.393 . S
C2633 C2632 1.391 . S
C2634 H2624 0.950 1_556 S
C2634 C2635 1.386 . S
C2634 C2636 1.391 . S
C2635 C2634 1.386 . S
C2635 C2639 1.393 . S
C2636 H2625 0.950 . S
C2636 C2634 1.391 . S
C2636 C2637 1.400 . S
C2637 C2631 1.491 . S
C2637 C2636 1.400 . S
C2637 C2638 1.398 . S
C2638 H2626 0.950 . S
C2638 C2637 1.398 . S
C2638 C2639 1.391 . S
C2639 H2627 0.950 . S
C2639 C2635 1.393 . S
C2639 C2638 1.391 . S
H2640 C2648 0.950 . S
H2641 C2653 0.950 . S
H2642 C2650 0.950 . S
H2643 C2652 0.950 . S
H2644 C2654 0.950 . S
H2645 C2656 0.950 . S
H2646 C2658 0.950 . S
H2647 C2659 0.950 . S
C2648 H2640 0.950 . S
C2648 C2649 1.386 . S
C2648 C2650 1.391 . S
C2649 C2648 1.386 . S
C2649 C2653 1.393 . S
C2650 H2642 0.950 . S
C2650 C2648 1.391 . S
C2650 C2651 1.400 . S
C2651 C2650 1.400 . S
C2651 C2652 1.398 . S
C2651 C2657 1.491 . S
C2652 H2643 0.950 . S
C2652 C2651 1.398 . S
C2652 C2653 1.391 . S
C2653 H2641 0.950 . S
C2653 C2649 1.393 . S
C2653 C2652 1.391 . S
C2654 H2644 0.950 . S
C2654 C2655 1.386 . S
C2654 C2656 1.391 . S
C2655 C2654 1.386 . S
C2655 C2659 1.393 . S
C2656 H2645 0.950 . S
C2656 C2654 1.391 . S
C2656 C2657 1.400 . S
C2657 C2651 1.491 . S
C2657 C2656 1.400 . S
C2657 C2658 1.398 . S
C2658 H2646 0.950 . S
C2658 C2657 1.398 . S
C2658 C2659 1.391 . S
C2659 H2647 0.950 . S
C2659 C2655 1.393 . S
C2659 C2658 1.391 . S
H2660 C2668 0.950 . S
H2661 C2673 0.950 . S
H2662 C2670 0.950 . S
H2663 C2672 0.950 . S
H2664 C2674 0.950 . S
H2665 C2676 0.950 . S
H2666 C2678 0.950 . S
H2667 C2679 0.950 . S
C2668 H2660 0.950 . S
C2668 C2669 1.386 . S
C2668 C2670 1.391 . S
C2669 C2668 1.386 . S
C2669 C2673 1.393 . S
C2670 H2662 0.950 . S
C2670 C2668 1.391 . S
C2670 C2671 1.400 . S
C2671 C2670 1.400 . S
C2671 C2672 1.398 . S
C2671 C2677 1.491 . S
C2672 H2663 0.950 . S
C2672 C2671 1.398 . S
C2672 C2673 1.391 . S
C2673 H2661 0.950 . S
C2673 C2669 1.393 . S
C2673 C2672 1.391 . S
C2674 H2664 0.950 . S
C2674 C2675 1.386 . S
C2674 C2676 1.391 . S
C2675 C2674 1.386 . S
C2675 C2679 1.393 . S
C2676 H2665 0.950 . S
C2676 C2674 1.391 . S
C2676 C2677 1.400 . S
C2677 C2671 1.491 . S
C2677 C2676 1.400 . S
C2677 C2678 1.398 . S
C2678 H2666 0.950 . S
C2678 C2677 1.398 . S
C2678 C2679 1.391 . S
C2679 H2667 0.950 . S
C2679 C2675 1.393 . S
C2679 C2678 1.391 . S
H2680 C2688 0.950 . S
H2681 C2693 0.950 . S
H2682 C2690 0.950 . S
H2683 C2692 0.950 . S
H2684 C2694 0.950 . S
H2685 C2696 0.950 . S
H2686 C2698 0.950 . S
H2687 C2699 0.950 . S
C2688 H2680 0.950 . S
C2688 C2689 1.386 . S
C2688 C2690 1.391 . S
C2689 C2688 1.386 . S
C2689 C2693 1.393 . S
C2690 H2682 0.950 . S
C2690 C2688 1.391 . S
C2690 C2691 1.400 . S
C2691 C2690 1.400 . S
C2691 C2692 1.398 . S
C2691 C2697 1.491 . S
C2692 H2683 0.950 . S
C2692 C2691 1.398 . S
C2692 C2693 1.391 . S
C2693 H2681 0.950 . S
C2693 C2689 1.393 . S
C2693 C2692 1.391 . S
C2694 H2684 0.950 . S
C2694 C2695 1.386 . S
C2694 C2696 1.391 . S
C2695 C2694 1.386 . S
C2695 C2699 1.393 . S
C2696 H2685 0.950 . S
C2696 C2694 1.391 . S
C2696 C2697 1.400 . S
C2697 C2691 1.491 . S
C2697 C2696 1.400 . S
C2697 C2698 1.398 . S
C2698 H2686 0.950 . S
C2698 C2697 1.398 . S
C2698 C2699 1.391 . S
C2699 H2687 0.950 . S
C2699 C2695 1.393 . S
C2699 C2698 1.391 . S
H2700 C2708 0.950 . S
H2701 C2713 0.950 1_556 S
H2702 C2710 0.950 . S
H2703 C2712 0.950 . S
H2704 C2714 0.950 . S
H2705 C2716 0.950 . S
H2706 C2718 0.950 . S
H2707 C2719 0.950 . S
C2708 H2700 0.950 . S
C2708 C2709 1.386 . S
C2708 C2710 1.391 . S
C2709 C2708 1.386 . S
C2709 C2713 1.393 . S
C2710 H2702 0.950 . S
C2710 C2708 1.391 . S
C2710 C2711 1.400 . S
C2711 C2710 1.400 . S
C2711 C2712 1.398 . S
C2711 C2717 1.491 . S
C2712 H2703 0.950 . S
C2712 C2711 1.398 . S
C2712 C2713 1.391 . S
C2713 H2701 0.950 1_554 S
C2713 C2709 1.393 . S
C2713 C2712 1.391 . S
C2714 H2704 0.950 . S
C2714 C2715 1.386 . S
C2714 C2716 1.391 . S
C2715 C2714 1.386 . S
C2715 C2719 1.393 . S
C2716 H2705 0.950 . S
C2716 C2714 1.391 . S
C2716 C2717 1.400 . S
C2717 C2711 1.491 . S
C2717 C2716 1.400 . S
C2717 C2718 1.398 . S
C2718 H2706 0.950 . S
C2718 C2717 1.398 . S
C2718 C2719 1.391 . S
C2719 H2707 0.950 . S
C2719 C2715 1.393 . S
C2719 C2718 1.391 . S
H2720 C2728 0.950 . S
H2721 C2733 0.950 . S
H2722 C2730 0.950 . S
H2723 C2732 0.950 . S
H2724 C2734 0.950 . S
H2725 C2736 0.950 . S
H2726 C2738 0.950 . S
H2727 C2739 0.950 . S
C2728 H2720 0.950 . S
C2728 C2729 1.386 . S
C2728 C2730 1.391 . S
C2729 C2728 1.386 . S
C2729 C2733 1.393 . S
C2730 H2722 0.950 . S
C2730 C2728 1.391 . S
C2730 C2731 1.400 . S
C2731 C2730 1.400 . S
C2731 C2732 1.398 . S
C2731 C2737 1.491 . S
C2732 H2723 0.950 . S
C2732 C2731 1.398 . S
C2732 C2733 1.391 . S
C2733 H2721 0.950 . S
C2733 C2729 1.393 . S
C2733 C2732 1.391 . S
C2734 H2724 0.950 . S
C2734 C2735 1.386 . S
C2734 C2736 1.391 . S
C2735 C2734 1.386 . S
C2735 C2739 1.393 . S
C2736 H2725 0.950 . S
C2736 C2734 1.391 . S
C2736 C2737 1.400 . S
C2737 C2731 1.491 . S
C2737 C2736 1.400 . S
C2737 C2738 1.398 . S
C2738 H2726 0.950 . S
C2738 C2737 1.398 . S
C2738 C2739 1.391 . S
C2739 H2727 0.950 . S
C2739 C2735 1.393 . S
C2739 C2738 1.391 . S
H2740 C2748 0.950 . S
H2741 C2753 0.950 . S
H2742 C2750 0.950 . S
H2743 C2752 0.950 . S
H2744 C2754 0.950 1_554 S
H2745 C2756 0.950 . S
H2746 C2758 0.950 . S
H2747 C2759 0.950 . S
C2748 H2740 0.950 . S
C2748 C2749 1.386 . S
C2748 C2750 1.391 . S
C2749 C2748 1.386 . S
C2749 C2753 1.393 . S
C2750 H2742 0.950 . S
C2750 C2748 1.391 . S
C2750 C2751 1.400 . S
C2751 C2750 1.400 . S
C2751 C2752 1.398 . S
C2751 C2757 1.491 . S
C2752 H2743 0.950 . S
C2752 C2751 1.398 . S
C2752 C2753 1.391 . S
C2753 H2741 0.950 . S
C2753 C2749 1.393 . S
C2753 C2752 1.391 . S
C2754 H2744 0.950 1_556 S
C2754 C2755 1.386 . S
C2754 C2756 1.391 . S
C2755 C2754 1.386 . S
C2755 C2759 1.393 . S
C2756 H2745 0.950 . S
C2756 C2754 1.391 . S
C2756 C2757 1.400 . S
C2757 C2751 1.491 . S
C2757 C2756 1.400 . S
C2757 C2758 1.398 . S
C2758 H2746 0.950 . S
C2758 C2757 1.398 . S
C2758 C2759 1.391 . S
C2759 H2747 0.950 . S
C2759 C2755 1.393 . S
C2759 C2758 1.391 . S
H2760 C2768 0.950 . S
H2761 C2773 0.950 . S
H2762 C2770 0.950 . S
H2763 C2772 0.950 . S
H2764 C2774 0.950 . S
H2765 C2776 0.950 . S
H2766 C2778 0.950 . S
H2767 C2779 0.950 . S
C2768 H2760 0.950 . S
C2768 C2769 1.386 . S
C2768 C2770 1.391 . S
C2769 C2768 1.386 . S
C2769 C2773 1.393 . S
C2770 H2762 0.950 . S
C2770 C2768 1.391 . S
C2770 C2771 1.400 . S
C2771 C2770 1.400 . S
C2771 C2772 1.398 . S
C2771 C2777 1.491 . S
C2772 H2763 0.950 . S
C2772 C2771 1.398 . S
C2772 C2773 1.391 . S
C2773 H2761 0.950 . S
C2773 C2769 1.393 . S
C2773 C2772 1.391 . S
C2774 H2764 0.950 . S
C2774 C2775 1.386 . S
C2774 C2776 1.391 . S
C2775 C2774 1.386 . S
C2775 C2779 1.393 . S
C2776 H2765 0.950 . S
C2776 C2774 1.391 . S
C2776 C2777 1.400 . S
C2777 C2771 1.491 . S
C2777 C2776 1.400 . S
C2777 C2778 1.398 . S
C2778 H2766 0.950 . S
C2778 C2777 1.398 . S
C2778 C2779 1.391 . S
C2779 H2767 0.950 . S
C2779 C2775 1.393 . S
C2779 C2778 1.391 . S
H2780 C2788 0.950 . S
H2781 C2793 0.950 . S
H2782 C2790 0.950 . S
H2783 C2792 0.950 . S
H2784 C2794 0.950 . S
H2785 C2796 0.950 . S
H2786 C2798 0.950 . S
H2787 C2799 0.950 . S
C2788 H2780 0.950 . S
C2788 C2789 1.386 . S
C2788 C2790 1.391 . S
C2789 C2788 1.386 . S
C2789 C2793 1.393 . S
C2790 H2782 0.950 . S
C2790 C2788 1.391 . S
C2790 C2791 1.400 . S
C2791 C2790 1.400 . S
C2791 C2792 1.398 . S
C2791 C2797 1.491 . S
C2792 H2783 0.950 . S
C2792 C2791 1.398 . S
C2792 C2793 1.391 . S
C2793 H2781 0.950 . S
C2793 C2789 1.393 . S
C2793 C2792 1.391 . S
C2794 H2784 0.950 . S
C2794 C2795 1.386 . S
C2794 C2796 1.391 . S
C2795 C2794 1.386 . S
C2795 C2799 1.393 . S
C2796 H2785 0.950 . S
C2796 C2794 1.391 . S
C2796 C2797 1.400 . S
C2797 C2791 1.491 . S
C2797 C2796 1.400 . S
C2797 C2798 1.398 . S
C2798 H2786 0.950 . S
C2798 C2797 1.398 . S
C2798 C2799 1.391 . S
C2799 H2787 0.950 . S
C2799 C2795 1.393 . S
C2799 C2798 1.391 . S
H2800 C2808 0.950 . S
H2801 C2813 0.950 1_556 S
H2802 C2810 0.950 . S
H2803 C2812 0.950 . S
H2804 C2814 0.950 . S
H2805 C2816 0.950 . S
H2806 C2818 0.950 . S
H2807 C2819 0.950 . S
C2808 H2800 0.950 . S
C2808 C2809 1.386 . S
C2808 C2810 1.391 . S
C2809 C2808 1.386 . S
C2809 C2813 1.393 . S
C2810 H2802 0.950 . S
C2810 C2808 1.391 . S
C2810 C2811 1.400 . S
C2811 C2810 1.400 . S
C2811 C2812 1.398 . S
C2811 C2817 1.491 . S
C2812 H2803 0.950 . S
C2812 C2811 1.398 . S
C2812 C2813 1.391 . S
C2813 H2801 0.950 1_554 S
C2813 C2809 1.393 . S
C2813 C2812 1.391 . S
C2814 H2804 0.950 . S
C2814 C2815 1.386 . S
C2814 C2816 1.391 . S
C2815 C2814 1.386 . S
C2815 C2819 1.393 . S
C2816 H2805 0.950 . S
C2816 C2814 1.391 . S
C2816 C2817 1.400 . S
C2817 C2811 1.491 . S
C2817 C2816 1.400 . S
C2817 C2818 1.398 . S
C2818 H2806 0.950 . S
C2818 C2817 1.398 . S
C2818 C2819 1.391 . S
C2819 H2807 0.950 . S
C2819 C2815 1.393 . S
C2819 C2818 1.391 . S
H2820 C2828 0.950 . S
H2821 C2833 0.950 . S
H2822 C2830 0.950 . S
H2823 C2832 0.950 . S
H2824 C2834 0.950 . S
H2825 C2836 0.950 . S
H2826 C2838 0.950 . S
H2827 C2839 0.950 . S
C2828 H2820 0.950 . S
C2828 C2829 1.386 . S
C2828 C2830 1.391 . S
C2829 C2828 1.386 . S
C2829 C2833 1.393 . S
C2830 H2822 0.950 . S
C2830 C2828 1.391 . S
C2830 C2831 1.400 . S
C2831 C2830 1.400 . S
C2831 C2832 1.398 . S
C2831 C2837 1.491 . S
C2832 H2823 0.950 . S
C2832 C2831 1.398 . S
C2832 C2833 1.391 . S
C2833 H2821 0.950 . S
C2833 C2829 1.393 . S
C2833 C2832 1.391 . S
C2834 H2824 0.950 . S
C2834 C2835 1.386 . S
C2834 C2836 1.391 . S
C2835 C2834 1.386 . S
C2835 C2839 1.393 . S
C2836 H2825 0.950 . S
C2836 C2834 1.391 . S
C2836 C2837 1.400 . S
C2837 C2831 1.491 . S
C2837 C2836 1.400 . S
C2837 C2838 1.398 . S
C2838 H2826 0.950 . S
C2838 C2837 1.398 . S
C2838 C2839 1.391 . S
C2839 H2827 0.950 . S
C2839 C2835 1.393 . S
C2839 C2838 1.391 . S
H2840 C2848 0.950 . S
H2841 C2853 0.950 . S
H2842 C2850 0.950 . S
H2843 C2852 0.950 . S
H2844 C2854 0.950 . S
H2845 C2856 0.950 . S
H2846 C2858 0.950 . S
H2847 C2859 0.950 . S
C2848 H2840 0.950 . S
C2848 C2849 1.386 . S
C2848 C2850 1.391 . S
C2849 C2848 1.386 . S
C2849 C2853 1.393 . S
C2850 H2842 0.950 . S
C2850 C2848 1.391 . S
C2850 C2851 1.400 . S
C2851 C2850 1.400 . S
C2851 C2852 1.398 . S
C2851 C2857 1.491 . S
C2852 H2843 0.950 . S
C2852 C2851 1.398 . S
C2852 C2853 1.391 . S
C2853 H2841 0.950 . S
C2853 C2849 1.393 . S
C2853 C2852 1.391 . S
C2854 H2844 0.950 . S
C2854 C2855 1.386 . S
C2854 C2856 1.391 . S
C2855 C2854 1.386 . S
C2855 C2859 1.393 . S
C2856 H2845 0.950 . S
C2856 C2854 1.391 . S
C2856 C2857 1.400 . S
C2857 C2851 1.491 . S
C2857 C2856 1.400 . S
C2857 C2858 1.398 . S
C2858 H2846 0.950 . S
C2858 C2857 1.398 . S
C2858 C2859 1.391 . S
C2859 H2847 0.950 . S
C2859 C2855 1.393 . S
C2859 C2858 1.391 . S
H2860 C2868 0.950 . S
H2861 C2873 0.950 . S
H2862 C2870 0.950 . S
H2863 C2872 0.950 . S
H2864 C2874 0.950 . S
H2865 C2876 0.950 . S
H2866 C2878 0.950 . S
H2867 C2879 0.950 . S
C2868 H2860 0.950 . S
C2868 C2869 1.386 . S
C2868 C2870 1.391 . S
C2869 C2868 1.386 . S
C2869 C2873 1.393 . S
C2870 H2862 0.950 . S
C2870 C2868 1.391 . S
C2870 C2871 1.400 . S
C2871 C2870 1.400 . S
C2871 C2872 1.398 . S
C2871 C2877 1.491 . S
C2872 H2863 0.950 . S
C2872 C2871 1.398 . S
C2872 C2873 1.391 . S
C2873 H2861 0.950 . S
C2873 C2869 1.393 . S
C2873 C2872 1.391 . S
C2874 H2864 0.950 . S
C2874 C2875 1.386 . S
C2874 C2876 1.391 . S
C2875 C2874 1.386 . S
C2875 C2879 1.393 . S
C2876 H2865 0.950 . S
C2876 C2874 1.391 . S
C2876 C2877 1.400 . S
C2877 C2871 1.491 . S
C2877 C2876 1.400 . S
C2877 C2878 1.398 . S
C2878 H2866 0.950 . S
C2878 C2877 1.398 . S
C2878 C2879 1.391 . S
C2879 H2867 0.950 . S
C2879 C2875 1.393 . S
C2879 C2878 1.391 . S
H2880 C2888 0.950 . S
H2881 C2893 0.950 . S
H2882 C2890 0.950 . S
H2883 C2892 0.950 . S
H2884 C2894 0.950 . S
H2885 C2896 0.950 . S
H2886 C2898 0.950 . S
H2887 C2899 0.950 . S
C2888 H2880 0.950 . S
C2888 C2889 1.386 . S
C2888 C2890 1.391 . S
C2889 C2888 1.386 . S
C2889 C2893 1.393 . S
C2890 H2882 0.950 . S
C2890 C2888 1.391 . S
C2890 C2891 1.400 . S
C2891 C2890 1.400 . S
C2891 C2892 1.398 . S
C2891 C2897 1.491 . S
C2892 H2883 0.950 . S
C2892 C2891 1.398 . S
C2892 C2893 1.391 . S
C2893 H2881 0.950 . S
C2893 C2889 1.393 . S
C2893 C2892 1.391 . S
C2894 H2884 0.950 . S
C2894 C2895 1.386 . S
C2894 C2896 1.391 . S
C2895 C2894 1.386 . S
C2895 C2899 1.393 . S
C2896 H2885 0.950 . S
C2896 C2894 1.391 . S
C2896 C2897 1.400 . S
C2897 C2891 1.491 . S
C2897 C2896 1.400 . S
C2897 C2898 1.398 . S
C2898 H2886 0.950 . S
C2898 C2897 1.398 . S
C2898 C2899 1.391 . S
C2899 H2887 0.950 . S
C2899 C2895 1.393 . S
C2899 C2898 1.391 . S
H2900 C2908 0.950 . S
H2901 C2913 0.950 . S
H2902 C2910 0.950 . S
H2903 C2912 0.950 . S
H2904 C2914 0.950 . S
H2905 C2916 0.950 . S
H2906 C2918 0.950 . S
H2907 C2919 0.950 . S
C2908 H2900 0.950 . S
C2908 C2909 1.386 . S
C2908 C2910 1.391 . S
C2909 C2908 1.386 . S
C2909 C2913 1.393 . S
C2910 H2902 0.950 . S
C2910 C2908 1.391 . S
C2910 C2911 1.400 . S
C2911 C2910 1.400 . S
C2911 C2912 1.398 . S
C2911 C2917 1.491 . S
C2912 H2903 0.950 . S
C2912 C2911 1.398 . S
C2912 C2913 1.391 . S
C2913 H2901 0.950 . S
C2913 C2909 1.393 . S
C2913 C2912 1.391 . S
C2914 H2904 0.950 . S
C2914 C2915 1.386 . S
C2914 C2916 1.391 . S
C2915 C2914 1.386 . S
C2915 C2919 1.393 . S
C2916 H2905 0.950 . S
C2916 C2914 1.391 . S
C2916 C2917 1.400 . S
C2917 C2911 1.491 . S
C2917 C2916 1.400 . S
C2917 C2918 1.398 . S
C2918 H2906 0.950 . S
C2918 C2917 1.398 . S
C2918 C2919 1.391 . S
C2919 H2907 0.950 . S
C2919 C2915 1.393 . S
C2919 C2918 1.391 . S
H2920 C2928 0.950 . S
H2921 C2933 0.950 . S
H2922 C2930 0.950 . S
H2923 C2932 0.950 . S
H2924 C2934 0.950 . S
H2925 C2936 0.950 . S
H2926 C2938 0.950 . S
H2927 C2939 0.950 . S
C2928 H2920 0.950 . S
C2928 C2929 1.386 . S
C2928 C2930 1.391 . S
C2929 C2928 1.386 . S
C2929 C2933 1.393 . S
C2930 H2922 0.950 . S
C2930 C2928 1.391 . S
C2930 C2931 1.400 . S
C2931 C2930 1.400 . S
C2931 C2932 1.398 . S
C2931 C2937 1.491 . S
C2932 H2923 0.950 . S
C2932 C2931 1.398 . S
C2932 C2933 1.391 . S
C2933 H2921 0.950 . S
C2933 C2929 1.393 . S
C2933 C2932 1.391 . S
C2934 H2924 0.950 . S
C2934 C2935 1.386 . S
C2934 C2936 1.391 . S
C2935 C2934 1.386 . S
C2935 C2939 1.393 . S
C2936 H2925 0.950 . S
C2936 C2934 1.391 . S
C2936 C2937 1.400 . S
C2937 C2931 1.491 . S
C2937 C2936 1.400 . S
C2937 C2938 1.398 . S
C2938 H2926 0.950 . S
C2938 C2937 1.398 . S
C2938 C2939 1.391 . S
C2939 H2927 0.950 . S
C2939 C2935 1.393 . S
C2939 C2938 1.391 . S
H2940 C2948 0.950 . S
H2941 C2953 0.950 . S
H2942 C2950 0.950 . S
H2943 C2952 0.950 . S
H2944 C2954 0.950 . S
H2945 C2956 0.950 . S
H2946 C2958 0.950 . S
H2947 C2959 0.950 . S
C2948 H2940 0.950 . S
C2948 C2949 1.386 . S
C2948 C2950 1.391 . S
C2949 C2948 1.386 . S
C2949 C2953 1.393 . S
C2950 H2942 0.950 . S
C2950 C2948 1.391 . S
C2950 C2951 1.400 . S
C2951 C2950 1.400 . S
C2951 C2952 1.398 . S
C2951 C2957 1.491 . S
C2952 H2943 0.950 . S
C2952 C2951 1.398 . S
C2952 C2953 1.391 . S
C2953 H2941 0.950 . S
C2953 C2949 1.393 . S
C2953 C2952 1.391 . S
C2954 H2944 0.950 . S
C2954 C2955 1.386 . S
C2954 C2956 1.391 . S
C2955 C2954 1.386 . S
C2955 C2959 1.393 . S
C2956 H2945 0.950 . S
C2956 C2954 1.391 . S
C2956 C2957 1.400 . S
C2957 C2951 1.491 . S
C2957 C2956 1.400 . S
C2957 C2958 1.398 . S
C2958 H2946 0.950 . S
C2958 C2957 1.398 . S
C2958 C2959 1.391 . S
C2959 H2947 0.950 . S
C2959 C2955 1.393 . S
C2959 C2958 1.391 . S
H2960 C2968 0.950 . S
H2961 C2973 0.950 . S
H2962 C2970 0.950 . S
H2963 C2972 0.950 . S
H2964 C2974 0.950 . S
H2965 C2976 0.950 . S
H2966 C2978 0.950 . S
H2967 C2979 0.950 . S
C2968 H2960 0.950 . S
C2968 C2969 1.386 . S
C2968 C2970 1.391 . S
C2969 C2968 1.386 . S
C2969 C2973 1.393 . S
C2970 H2962 0.950 . S
C2970 C2968 1.391 . S
C2970 C2971 1.400 . S
C2971 C2970 1.400 . S
C2971 C2972 1.398 . S
C2971 C2977 1.491 . S
C2972 H2963 0.950 . S
C2972 C2971 1.398 . S
C2972 C2973 1.391 . S
C2973 H2961 0.950 . S
C2973 C2969 1.393 . S
C2973 C2972 1.391 . S
C2974 H2964 0.950 . S
C2974 C2975 1.386 . S
C2974 C2976 1.391 . S
C2975 C2974 1.386 . S
C2975 C2979 1.393 . S
C2976 H2965 0.950 . S
C2976 C2974 1.391 . S
C2976 C2977 1.400 . S
C2977 C2971 1.491 . S
C2977 C2976 1.400 . S
C2977 C2978 1.398 . S
C2978 H2966 0.950 . S
C2978 C2977 1.398 . S
C2978 C2979 1.391 . S
C2979 H2967 0.950 . S
C2979 C2975 1.393 . S
C2979 C2978 1.391 . S
H2980 C2988 0.950 . S
H2981 C2993 0.950 . S
H2982 C2990 0.950 . S
H2983 C2992 0.950 . S
H2984 C2994 0.950 . S
H2985 C2996 0.950 . S
H2986 C2998 0.950 . S
H2987 C2999 0.950 . S
C2988 H2980 0.950 . S
C2988 C2989 1.386 . S
C2988 C2990 1.391 . S
C2989 C2988 1.386 . S
C2989 C2993 1.393 . S
C2990 H2982 0.950 . S
C2990 C2988 1.391 . S
C2990 C2991 1.400 . S
C2991 C2990 1.400 . S
C2991 C2992 1.398 . S
C2991 C2997 1.491 . S
C2992 H2983 0.950 . S
C2992 C2991 1.398 . S
C2992 C2993 1.391 . S
C2993 H2981 0.950 . S
C2993 C2989 1.393 . S
C2993 C2992 1.391 . S
C2994 H2984 0.950 . S
C2994 C2995 1.386 . S
C2994 C2996 1.391 . S
C2995 C2994 1.386 . S
C2995 C2999 1.393 . S
C2996 H2985 0.950 . S
C2996 C2994 1.391 . S
C2996 C2997 1.400 . S
C2997 C2991 1.491 . S
C2997 C2996 1.400 . S
C2997 C2998 1.398 . S
C2998 H2986 0.950 . S
C2998 C2997 1.398 . S
C2998 C2999 1.391 . S
C2999 H2987 0.950 . S
C2999 C2995 1.393 . S
C2999 C2998 1.391 . S
H3000 C3008 0.950 . S
H3001 C3013 0.950 . S
H3002 C3010 0.950 . S
H3003 C3012 0.950 . S
H3004 C3014 0.950 . S
H3005 C3016 0.950 . S
H3006 C3018 0.950 . S
H3007 C3019 0.950 . S
C3008 H3000 0.950 . S
C3008 C3009 1.386 . S
C3008 C3010 1.391 . S
C3009 C3008 1.386 . S
C3009 C3013 1.393 . S
C3010 H3002 0.950 . S
C3010 C3008 1.391 . S
C3010 C3011 1.400 . S
C3011 C3010 1.400 . S
C3011 C3012 1.398 . S
C3011 C3017 1.491 . S
C3012 H3003 0.950 . S
C3012 C3011 1.398 . S
C3012 C3013 1.391 . S
C3013 H3001 0.950 . S
C3013 C3009 1.393 . S
C3013 C3012 1.391 . S
C3014 H3004 0.950 . S
C3014 C3015 1.386 . S
C3014 C3016 1.391 . S
C3015 C3014 1.386 . S
C3015 C3019 1.393 . S
C3016 H3005 0.950 . S
C3016 C3014 1.391 . S
C3016 C3017 1.400 . S
C3017 C3011 1.491 . S
C3017 C3016 1.400 . S
C3017 C3018 1.398 . S
C3018 H3006 0.950 . S
C3018 C3017 1.398 . S
C3018 C3019 1.391 . S
C3019 H3007 0.950 . S
C3019 C3015 1.393 . S
C3019 C3018 1.391 . S
H3020 C3028 0.950 . S
H3021 C3033 0.950 . S
H3022 C3030 0.950 . S
H3023 C3032 0.950 . S
H3024 C3034 0.950 . S
H3025 C3036 0.950 . S
H3026 C3038 0.950 . S
H3027 C3039 0.950 . S
C3028 H3020 0.950 . S
C3028 C3029 1.386 . S
C3028 C3030 1.391 . S
C3029 C3028 1.386 . S
C3029 C3033 1.393 . S
C3030 H3022 0.950 . S
C3030 C3028 1.391 . S
C3030 C3031 1.400 . S
C3031 C3030 1.400 . S
C3031 C3032 1.398 . S
C3031 C3037 1.491 . S
C3032 H3023 0.950 . S
C3032 C3031 1.398 . S
C3032 C3033 1.391 . S
C3033 H3021 0.950 . S
C3033 C3029 1.393 . S
C3033 C3032 1.391 . S
C3034 H3024 0.950 . S
C3034 C3035 1.386 . S
C3034 C3036 1.391 . S
C3035 C3034 1.386 . S
C3035 C3039 1.393 . S
C3036 H3025 0.950 . S
C3036 C3034 1.391 . S
C3036 C3037 1.400 . S
C3037 C3031 1.491 . S
C3037 C3036 1.400 . S
C3037 C3038 1.398 . S
C3038 H3026 0.950 . S
C3038 C3037 1.398 . S
C3038 C3039 1.391 . S
C3039 H3027 0.950 . S
C3039 C3035 1.393 . S
C3039 C3038 1.391 . S
H3040 C3048 0.950 . S
H3041 C3053 0.950 . S
H3042 C3050 0.950 . S
H3043 C3052 0.950 . S
H3044 C3054 0.950 . S
H3045 C3056 0.950 . S
H3046 C3058 0.950 . S
H3047 C3059 0.950 . S
C3048 H3040 0.950 . S
C3048 C3049 1.386 . S
C3048 C3050 1.391 . S
C3049 C3048 1.386 . S
C3049 C3053 1.393 . S
C3050 H3042 0.950 . S
C3050 C3048 1.391 . S
C3050 C3051 1.400 . S
C3051 C3050 1.400 . S
C3051 C3052 1.398 . S
C3051 C3057 1.491 . S
C3052 H3043 0.950 . S
C3052 C3051 1.398 . S
C3052 C3053 1.391 . S
C3053 H3041 0.950 . S
C3053 C3049 1.393 . S
C3053 C3052 1.391 . S
C3054 H3044 0.950 . S
C3054 C3055 1.386 . S
C3054 C3056 1.391 . S
C3055 C3054 1.386 . S
C3055 C3059 1.393 . S
C3056 H3045 0.950 . S
C3056 C3054 1.391 . S
C3056 C3057 1.400 . S
C3057 C3051 1.491 . S
C3057 C3056 1.400 . S
C3057 C3058 1.398 . S
C3058 H3046 0.950 . S
C3058 C3057 1.398 . S
C3058 C3059 1.391 . S
C3059 H3047 0.950 . S
C3059 C3055 1.393 . S
C3059 C3058 1.391 . S
H3060 C3068 0.950 . S
H3061 C3073 0.950 . S
H3062 C3070 0.950 . S
H3063 C3072 0.950 . S
H3064 C3074 0.950 . S
H3065 C3076 0.950 . S
H3066 C3078 0.950 . S
H3067 C3079 0.950 . S
C3068 H3060 0.950 . S
C3068 C3069 1.386 . S
C3068 C3070 1.391 . S
C3069 C3068 1.386 . S
C3069 C3073 1.393 . S
C3070 H3062 0.950 . S
C3070 C3068 1.391 . S
C3070 C3071 1.400 . S
C3071 C3070 1.400 . S
C3071 C3072 1.398 . S
C3071 C3077 1.491 . S
C3072 H3063 0.950 . S
C3072 C3071 1.398 . S
C3072 C3073 1.391 . S
C3073 H3061 0.950 . S
C3073 C3069 1.393 . S
C3073 C3072 1.391 . S
C3074 H3064 0.950 . S
C3074 C3075 1.386 . S
C3074 C3076 1.391 . S
C3075 C3074 1.386 . S
C3075 C3079 1.393 . S
C3076 H3065 0.950 . S
C3076 C3074 1.391 . S
C3076 C3077 1.400 . S
C3077 C3071 1.491 . S
C3077 C3076 1.400 . S
C3077 C3078 1.398 . S
C3078 H3066 0.950 . S
C3078 C3077 1.398 . S
C3078 C3079 1.391 . S
C3079 H3067 0.950 . S
C3079 C3075 1.393 . S
C3079 C3078 1.391 . S
H3080 C3088 0.950 . S
H3081 C3093 0.950 . S
H3082 C3090 0.950 . S
H3083 C3092 0.950 . S
H3084 C3094 0.950 . S
H3085 C3096 0.950 . S
H3086 C3098 0.950 . S
H3087 C3099 0.950 . S
C3088 H3080 0.950 . S
C3088 C3089 1.386 . S
C3088 C3090 1.391 . S
C3089 C3088 1.386 . S
C3089 C3093 1.393 . S
C3090 H3082 0.950 . S
C3090 C3088 1.391 . S
C3090 C3091 1.400 . S
C3091 C3090 1.400 . S
C3091 C3092 1.398 . S
C3091 C3097 1.491 . S
C3092 H3083 0.950 . S
C3092 C3091 1.398 . S
C3092 C3093 1.391 . S
C3093 H3081 0.950 . S
C3093 C3089 1.393 . S
C3093 C3092 1.391 . S
C3094 H3084 0.950 . S
C3094 C3095 1.386 . S
C3094 C3096 1.391 . S
C3095 C3094 1.386 . S
C3095 C3099 1.393 . S
C3096 H3085 0.950 . S
C3096 C3094 1.391 . S
C3096 C3097 1.400 . S
C3097 C3091 1.491 . S
C3097 C3096 1.400 . S
C3097 C3098 1.398 . S
C3098 H3086 0.950 . S
C3098 C3097 1.398 . S
C3098 C3099 1.391 . S
C3099 H3087 0.950 . S
C3099 C3095 1.393 . S
C3099 C3098 1.391 . S
H3100 C3108 0.950 . S
H3101 C3113 0.950 . S
H3102 C3110 0.950 . S
H3103 C3112 0.950 . S
H3104 C3114 0.950 . S
H3105 C3116 0.950 . S
H3106 C3118 0.950 . S
H3107 C3119 0.950 . S
C3108 H3100 0.950 . S
C3108 C3109 1.386 . S
C3108 C3110 1.391 . S
C3109 C3108 1.386 . S
C3109 C3113 1.393 . S
C3110 H3102 0.950 . S
C3110 C3108 1.391 . S
C3110 C3111 1.400 . S
C3111 C3110 1.400 . S
C3111 C3112 1.398 . S
C3111 C3117 1.491 . S
C3112 H3103 0.950 . S
C3112 C3111 1.398 . S
C3112 C3113 1.391 . S
C3113 H3101 0.950 . S
C3113 C3109 1.393 . S
C3113 C3112 1.391 . S
C3114 H3104 0.950 . S
C3114 C3115 1.386 . S
C3114 C3116 1.391 . S
C3115 C3114 1.386 . S
C3115 C3119 1.393 . S
C3116 H3105 0.950 . S
C3116 C3114 1.391 . S
C3116 C3117 1.400 . S
C3117 C3111 1.491 . S
C3117 C3116 1.400 . S
C3117 C3118 1.398 . S
C3118 H3106 0.950 . S
C3118 C3117 1.398 . S
C3118 C3119 1.391 . S
C3119 H3107 0.950 . S
C3119 C3115 1.393 . S
C3119 C3118 1.391 . S
H3120 C3128 0.950 . S
H3121 C3133 0.950 . S
H3122 C3130 0.950 . S
H3123 C3132 0.950 . S
H3124 C3134 0.950 . S
H3125 C3136 0.950 . S
H3126 C3138 0.950 . S
H3127 C3139 0.950 . S
C3128 H3120 0.950 . S
C3128 C3129 1.386 . S
C3128 C3130 1.391 . S
C3129 C3128 1.386 . S
C3129 C3133 1.393 . S
C3130 H3122 0.950 . S
C3130 C3128 1.391 . S
C3130 C3131 1.400 . S
C3131 C3130 1.400 . S
C3131 C3132 1.398 . S
C3131 C3137 1.491 . S
C3132 H3123 0.950 . S
C3132 C3131 1.398 . S
C3132 C3133 1.391 . S
C3133 H3121 0.950 . S
C3133 C3129 1.393 . S
C3133 C3132 1.391 . S
C3134 H3124 0.950 . S
C3134 C3135 1.386 . S
C3134 C3136 1.391 . S
C3135 C3134 1.386 . S
C3135 C3139 1.393 . S
C3136 H3125 0.950 . S
C3136 C3134 1.391 . S
C3136 C3137 1.400 . S
C3137 C3131 1.491 . S
C3137 C3136 1.400 . S
C3137 C3138 1.398 . S
C3138 H3126 0.950 . S
C3138 C3137 1.398 . S
C3138 C3139 1.391 . S
C3139 H3127 0.950 . S
C3139 C3135 1.393 . S
C3139 C3138 1.391 . S
H3140 C3148 0.950 . S
H3141 C3153 0.950 . S
H3142 C3150 0.950 . S
H3143 C3152 0.950 . S
H3144 C3154 0.950 . S
H3145 C3156 0.950 . S
H3146 C3158 0.950 . S
H3147 C3159 0.950 . S
C3148 H3140 0.950 . S
C3148 C3149 1.386 . S
C3148 C3150 1.391 . S
C3149 C3148 1.386 . S
C3149 C3153 1.393 . S
C3150 H3142 0.950 . S
C3150 C3148 1.391 . S
C3150 C3151 1.400 . S
C3151 C3150 1.400 . S
C3151 C3152 1.398 . S
C3151 C3157 1.491 . S
C3152 H3143 0.950 . S
C3152 C3151 1.398 . S
C3152 C3153 1.391 . S
C3153 H3141 0.950 . S
C3153 C3149 1.393 . S
C3153 C3152 1.391 . S
C3154 H3144 0.950 . S
C3154 C3155 1.386 . S
C3154 C3156 1.391 . S
C3155 C3154 1.386 . S
C3155 C3159 1.393 . S
C3156 H3145 0.950 . S
C3156 C3154 1.391 . S
C3156 C3157 1.400 . S
C3157 C3151 1.491 . S
C3157 C3156 1.400 . S
C3157 C3158 1.398 . S
C3158 H3146 0.950 . S
C3158 C3157 1.398 . S
C3158 C3159 1.391 . S
C3159 H3147 0.950 . S
C3159 C3155 1.393 . S
C3159 C3158 1.391 . S
H3160 C3168 0.950 . S
H3161 C3173 0.950 . S
H3162 C3170 0.950 . S
H3163 C3172 0.950 . S
H3164 C3174 0.950 . S
H3165 C3176 0.950 . S
H3166 C3178 0.950 . S
H3167 C3179 0.950 . S
C3168 H3160 0.950 . S
C3168 C3169 1.386 . S
C3168 C3170 1.391 . S
C3169 C3168 1.386 . S
C3169 C3173 1.393 . S
C3170 H3162 0.950 . S
C3170 C3168 1.391 . S
C3170 C3171 1.400 . S
C3171 C3170 1.400 . S
C3171 C3172 1.398 . S
C3171 C3177 1.491 . S
C3172 H3163 0.950 . S
C3172 C3171 1.398 . S
C3172 C3173 1.391 . S
C3173 H3161 0.950 . S
C3173 C3169 1.393 . S
C3173 C3172 1.391 . S
C3174 H3164 0.950 . S
C3174 C3175 1.386 . S
C3174 C3176 1.391 . S
C3175 C3174 1.386 . S
C3175 C3179 1.393 . S
C3176 H3165 0.950 . S
C3176 C3174 1.391 . S
C3176 C3177 1.400 . S
C3177 C3171 1.491 . S
C3177 C3176 1.400 . S
C3177 C3178 1.398 . S
C3178 H3166 0.950 . S
C3178 C3177 1.398 . S
C3178 C3179 1.391 . S
C3179 H3167 0.950 . S
C3179 C3175 1.393 . S
C3179 C3178 1.391 . S
H3180 C3188 0.950 . S
H3181 C3193 0.950 . S
H3182 C3190 0.950 . S
H3183 C3192 0.950 . S
H3184 C3194 0.950 . S
H3185 C3196 0.950 . S
H3186 C3198 0.950 . S
H3187 C3199 0.950 . S
C3188 H3180 0.950 . S
C3188 C3189 1.386 . S
C3188 C3190 1.391 . S
C3189 C3188 1.386 . S
C3189 C3193 1.393 . S
C3190 H3182 0.950 . S
C3190 C3188 1.391 . S
C3190 C3191 1.400 . S
C3191 C3190 1.400 . S
C3191 C3192 1.398 . S
C3191 C3197 1.491 . S
C3192 H3183 0.950 . S
C3192 C3191 1.398 . S
C3192 C3193 1.391 . S
C3193 H3181 0.950 . S
C3193 C3189 1.393 . S
C3193 C3192 1.391 . S
C3194 H3184 0.950 . S
C3194 C3195 1.386 . S
C3194 C3196 1.391 . S
C3195 C3194 1.386 . S
C3195 C3199 1.393 . S
C3196 H3185 0.950 . S
C3196 C3194 1.391 . S
C3196 C3197 1.400 . S
C3197 C3191 1.491 . S
C3197 C3196 1.400 . S
C3197 C3198 1.398 . S
C3198 H3186 0.950 . S
C3198 C3197 1.398 . S
C3198 C3199 1.391 . S
C3199 H3187 0.950 . S
C3199 C3195 1.393 . S
C3199 C3198 1.391 . S
C1289 C1139 1.683 . S
C1295 C10 1.683 . S
C1309 C219 1.670 . S
C1315 C50 1.670 . S
C1329 C899 1.674 . S
C1335 C90 1.675 . S
C1349 C619 1.681 . S
C1355 C130 1.681 . S
C1369 C179 1.674 . S
C1375 C970 1.674 . S
C1389 C730 1.670 . S
C1395 C259 1.671 . S
C1409 C450 1.674 . S
C1415 C299 1.674 . S
C1429 C819 1.677 . S
C1435 C330 1.677 . S
C1449 C370 1.667 . S
C1455 C539 1.667 . S
C1469 C410 1.668 . S
C1475 C1219 1.668 . S
C1489 C650 1.674 . S
C1495 C499 1.674 . S
C1509 C579 1.674 . S
C1515 C1050 1.674 . S
C1529 C690 1.674 . S
C1535 C859 1.675 . S
C1549 C770 1.676 . S
C1555 C1259 1.676 . S
C1569 C1090 1.682 . S
C1575 C939 1.682 . S
C1589 C1179 1.669 . S
C1595 C1010 1.669 . S
C1609 C779 1.558 . S
C1615 C19 1.554 . S
C1629 C739 1.553 . S
C1635 C59 1.550 . S
C1649 C699 1.550 . S
C1655 C99 1.553 . S
C1669 C659 1.554 . S
C1675 C139 1.559 . S
C1689 C930 1.559 . S
C1695 C170 1.554 . S
C1709 C210 1.557 . S
C1715 C890 1.552 . S
C1729 C250 1.560 . S
C1735 C850 1.554 . S
C1749 C290 1.561 . S
C1755 C810 1.556 . S
C1769 C339 1.580 . S
C1775 C1099 1.575 . S
C1789 C379 1.555 . S
C1795 C1059 1.560 . S
C1809 C419 1.556 . S
C1815 C1019 1.561 . S
C1829 C979 1.581 . S
C1835 C459 1.577 . S
C1849 C490 1.570 . S
C1855 C1250 1.577 . S
C1869 C530 1.557 . S
C1875 C1210 1.554 . S
C1889 C570 1.562 . S
C1895 C1170 1.568 . S
C1909 C1130 1.576 . S
C1915 C610 1.581 . S
C1929 C15 1.300 . S
C1935 C6 1.300 . S
C1949 C55 1.266 . S
C1955 C46 1.266 . S
C1969 C86 1.291 . S
C1975 C95 1.291 . S
C1989 C126 1.300 . S
C1995 C135 1.300 . S
C2009 C175 1.273 . S
C2015 C166 1.273 . S
C2029 C215 1.265 . S
C2035 C206 1.265 . S
C2049 C255 1.283 . S
C2055 C246 1.283 . S
C2069 C286 1.299 . S
C2075 C295 1.299 . S
C2089 C335 1.306 . S
C2095 C326 1.306 . S
C2109 C366 1.289 . S
C2115 C375 1.289 . S
C2129 C406 1.272 . S
C2135 C415 1.272 . S
C2149 C446 1.280 . S
C2155 C455 1.280 . S
C2169 C495 1.280 . S
C2175 C486 1.280 . S
C2189 C526 1.290 . S
C2195 C535 1.290 . S
C2209 C575 1.294 . S
C2215 C566 1.294 . S
C2229 C606 1.299 . S
C2235 C615 1.299 . S
C2249 C655 1.276 . S
C2255 C646 1.276 . S
C2269 C686 1.289 . S
C2275 C695 1.289 . S
C2289 C726 1.276 . S
C2295 C735 1.276 . S
C2309 C766 1.288 . S
C2315 C775 1.288 . S
C2329 C806 1.273 . S
C2335 C815 1.273 . S
C2349 C855 1.285 . S
C2355 C846 1.285 . S
C2369 C886 1.278 . S
C2375 C895 1.278 . S
C2389 C926 1.299 . S
C2395 C935 1.299 . S
C2409 C975 1.305 . S
C2415 C966 1.305 . S
C2429 C1006 1.295 . S
C2435 C1015 1.295 . S
C2449 C1046 1.270 . S
C2455 C1055 1.270 . S
C2469 C1095 1.305 . S
C2475 C1086 1.305 . S
C2489 C1135 1.281 . S
C2495 C1126 1.281 . S
C2509 C1166 1.292 . S
C2515 C1175 1.292 . S
C2529 C1206 1.297 . S
C2535 C1215 1.297 . S
C2549 C1246 1.303 . S
C2555 C1255 1.303 . S
C2569 C409 2.156 . S
C2575 C9 2.167 . S
C2589 C449 2.120 . S
C2595 C49 2.115 . S
C2609 C89 2.118 1_556 S
C2615 C329 2.119 . S
C2629 C369 2.166 . S
C2635 C129 2.158 1_556 S
C2649 C178 2.157 . S
C2655 C578 2.167 . S
C2669 C218 2.115 . S
C2675 C618 2.121 . S
C2689 C258 2.116 1_554 S
C2695 C498 2.120 . S
C2709 C298 2.167 1_554 S
C2715 C538 2.157 . S
C2729 C1049 2.158 1_556 S
C2735 C649 2.165 . S
C2749 C689 2.125 . S
C2755 C1089 2.111 1_556 S
C2769 C969 2.124 . S
C2775 C729 2.111 . S
C2789 C769 2.160 . S
C2795 C1009 2.163 . S
C2809 C1218 2.167 1_554 S
C2815 C818 2.157 . S
C2829 C858 2.117 . S
C2835 C1258 2.119 1_554 S
C2849 C898 2.120 . S
C2855 C1138 2.115 . S
C2869 C1178 2.162 . S
C2875 C938 2.162 . S
C2889 C18 1.105 . S
C2895 C98 1.092 . S
C2909 C138 1.101 . S
C2915 C58 1.116 . S
C2929 C249 1.091 . S
C2935 C169 1.117 . S
C2949 C209 1.095 . S
C2955 C289 1.118 . S
C2969 C338 1.043 . S
C2975 C418 1.063 . S
C2989 C458 1.053 . S
C2995 C378 1.061 . S
C3009 C569 1.043 . S
C3015 C489 1.063 . S
C3029 C609 1.054 . S
C3035 C529 1.037 . S
C3049 C738 1.091 . S
C3055 C658 1.101 . S
C3069 C778 1.092 . S
C3075 C698 1.100 . S
C3089 C889 1.112 . S
C3095 C809 1.096 . S
C3109 C929 1.098 . S
C3115 C849 1.095 . S
C3129 C978 1.053 . S
C3135 C1058 1.060 . S
C3149 C1018 1.049 . S
C3155 C1098 1.040 . S
C3169 C1129 1.044 . S
C3175 C1209 1.042 . S
C3189 C1249 1.055 . S
C3195 C1169 1.059 . S
