# Generated by pormake.
# Topology atn, (4)-cn, num edge types: 1
# Building blocks:
#     Node 0, Type 0, BuildingBlock: AZAVOO_clean_sbu_0, # of connection points: 4
#     Node 1, Type 0, BuildingBlock: AZAVOO_clean_sbu_0, # of connection points: 4
#     Node 2, Type 0, BuildingBlock: AZAVOO_clean_sbu_0, # of connection points: 4
#     Node 3, Type 0, BuildingBlock: AZAVOO_clean_sbu_0, # of connection points: 4
#     Node 4, Type 0, BuildingBlock: AZAVOO_clean_sbu_0, # of connection points: 4
#     Node 5, Type 0, BuildingBlock: AZAVOO_clean_sbu_0, # of connection points: 4
#     Node 6, Type 0, BuildingBlock: AZAVOO_clean_sbu_0, # of connection points: 4
#     Node 7, Type 0, BuildingBlock: AZAVOO_clean_sbu_0, # of connection points: 4
#     Node 8, Type 0, BuildingBlock: AZAVOO_clean_sbu_0, # of connection points: 4
#     Node 9, Type 0, BuildingBlock: AZAVOO_clean_sbu_0, # of connection points: 4
#     Node 10, Type 0, BuildingBlock: AZAVOO_clean_sbu_0, # of connection points: 4
#     Node 11, Type 0, BuildingBlock: AZAVOO_clean_sbu_0, # of connection points: 4
#     Node 12, Type 0, BuildingBlock: AZAVOO_clean_sbu_0, # of connection points: 4
#     Node 13, Type 0, BuildingBlock: AZAVOO_clean_sbu_0, # of connection points: 4
#     Node 14, Type 0, BuildingBlock: AZAVOO_clean_sbu_0, # of connection points: 4
#     Node 15, Type 0, BuildingBlock: AZAVOO_clean_sbu_0, # of connection points: 4
#     Edge 16, Type (0, 0), BuildingBlock: CIFDUS_clean_linker_0, # of connection points: 2
#     Edge 17, Type (0, 0), BuildingBlock: CIFDUS_clean_linker_0, # of connection points: 2
#     Edge 18, Type (0, 0), BuildingBlock: CIFDUS_clean_linker_0, # of connection points: 2
#     Edge 19, Type (0, 0), BuildingBlock: CIFDUS_clean_linker_0, # of connection points: 2
#     Edge 20, Type (0, 0), BuildingBlock: CIFDUS_clean_linker_0, # of connection points: 2
#     Edge 21, Type (0, 0), BuildingBlock: CIFDUS_clean_linker_0, # of connection points: 2
#     Edge 22, Type (0, 0), BuildingBlock: CIFDUS_clean_linker_0, # of connection points: 2
#     Edge 23, Type (0, 0), BuildingBlock: CIFDUS_clean_linker_0, # of connection points: 2
#     Edge 24, Type (0, 0), BuildingBlock: CIFDUS_clean_linker_0, # of connection points: 2
#     Edge 25, Type (0, 0), BuildingBlock: CIFDUS_clean_linker_0, # of connection points: 2
#     Edge 26, Type (0, 0), BuildingBlock: CIFDUS_clean_linker_0, # of connection points: 2
#     Edge 27, Type (0, 0), BuildingBlock: CIFDUS_clean_linker_0, # of connection points: 2
#     Edge 28, Type (0, 0), BuildingBlock: CIFDUS_clean_linker_0, # of connection points: 2
#     Edge 29, Type (0, 0), BuildingBlock: CIFDUS_clean_linker_0, # of connection points: 2
#     Edge 30, Type (0, 0), BuildingBlock: CIFDUS_clean_linker_0, # of connection points: 2
#     Edge 31, Type (0, 0), BuildingBlock: CIFDUS_clean_linker_0, # of connection points: 2
#     Edge 32, Type (0, 0), BuildingBlock: CIFDUS_clean_linker_0, # of connection points: 2
#     Edge 33, Type (0, 0), BuildingBlock: CIFDUS_clean_linker_0, # of connection points: 2
#     Edge 34, Type (0, 0), BuildingBlock: CIFDUS_clean_linker_0, # of connection points: 2
#     Edge 35, Type (0, 0), BuildingBlock: CIFDUS_clean_linker_0, # of connection points: 2
#     Edge 36, Type (0, 0), BuildingBlock: CIFDUS_clean_linker_0, # of connection points: 2
#     Edge 37, Type (0, 0), BuildingBlock: CIFDUS_clean_linker_0, # of connection points: 2
#     Edge 38, Type (0, 0), BuildingBlock: CIFDUS_clean_linker_0, # of connection points: 2
#     Edge 39, Type (0, 0), BuildingBlock: CIFDUS_clean_linker_0, # of connection points: 2
#     Edge 40, Type (0, 0), BuildingBlock: CIFDUS_clean_linker_0, # of connection points: 2
#     Edge 41, Type (0, 0), BuildingBlock: CIFDUS_clean_linker_0, # of connection points: 2
#     Edge 42, Type (0, 0), BuildingBlock: CIFDUS_clean_linker_0, # of connection points: 2
#     Edge 43, Type (0, 0), BuildingBlock: CIFDUS_clean_linker_0, # of connection points: 2
#     Edge 44, Type (0, 0), BuildingBlock: CIFDUS_clean_linker_0, # of connection points: 2
#     Edge 45, Type (0, 0), BuildingBlock: CIFDUS_clean_linker_0, # of connection points: 2
#     Edge 46, Type (0, 0), BuildingBlock: CIFDUS_clean_linker_0, # of connection points: 2
#     Edge 47, Type (0, 0), BuildingBlock: CIFDUS_clean_linker_0, # of connection points: 2
# Relax obj value: 0.123
# Max RMSD: 0.132
# Mean RMSD: 0.132
data_MOF--net-atn--node1-AZAVOO_clean_sbu_0--edge1-CIFDUS_clean_linker_0
_symmetry_space_group_name_H-M    P1
_symmetry_Int_Tables_number       1
_symmetry_cell_setting            triclinic
loop_
_symmetry_equiv_pos_as_xyz
'x, y, z'
_cell_length_a     54.761741
_cell_length_b     54.799106
_cell_length_c     23.505815
_cell_angle_alpha  89.98911
_cell_angle_beta   90.331648
_cell_angle_gamma 89.837092
loop_
_atom_site_label
_atom_site_type_symbol
_atom_site_fract_x
_atom_site_fract_y
_atom_site_fract_z
_atom_type_partial_charge
Mg0 Mg 0.18009 0.36208 0.97502 0.0
O1 O 0.21736 0.34361 0.9824 0.0
O2 O 0.2361 0.34662 0.89849 0.0
Mg3 Mg 0.21051 0.36665 0.83663 0.0
C4 C 0.23564 0.33963 0.95029 0.0
C5 C 0.15547 0.35039 0.0876 0.0
O6 O 0.13875 0.34525 0.04916 0.0
O7 O 0.19828 0.39953 0.97669 0.0
O8 O 0.21283 0.4021 0.88789 0.0
O9 O 0.16306 0.32751 0.94466 0.0
O10 O 0.1792 0.35525 0.88813 0.0
C11 C 0.20856 0.41144 0.9366 0.0
C12 C 0.16881 0.33438 0.89381 0.0
O13 O 0.17558 0.35955 0.07129 0.0
Mg14 Mg 0.60693 0.18208 0.00238 0.0
O15 O 0.62888 0.21744 0.00814 0.0
O16 O 0.62222 0.23908 0.92892 0.0
Mg17 Mg 0.59605 0.21772 0.8717 0.0
C18 C 0.63238 0.23633 0.97752 0.0
C19 C 0.62763 0.15684 0.11258 0.0
O20 O 0.63697 0.14263 0.07325 0.0
O21 O 0.57179 0.20328 0.02025 0.0
O22 O 0.56528 0.22173 0.93646 0.0
O23 O 0.63735 0.16344 0.95544 0.0
O24 O 0.60746 0.18375 0.91366 0.0
C25 C 0.55869 0.21647 0.98703 0.0
C26 C 0.62741 0.17158 0.90902 0.0
O27 O 0.61426 0.17477 0.09733 0.0
Mg28 Mg 0.78072 0.60767 0.03625 0.0
O29 O 0.74407 0.62824 0.03823 0.0
O30 O 0.72426 0.61928 0.95737 0.0
Mg31 Mg 0.7468 0.59274 0.90483 0.0
C32 C 0.72571 0.63053 0.00479 0.0
C33 C 0.811 0.6213 0.14177 0.0
O34 O 0.82732 0.61775 0.10183 0.0
O35 O 0.76188 0.57137 0.05753 0.0
O36 O 0.74471 0.56341 0.97306 0.0
O37 O 0.79782 0.63837 0.98806 0.0
O38 O 0.77939 0.60722 0.94705 0.0
C39 C 0.74992 0.55728 0.02409 0.0
C40 C 0.79021 0.62787 0.94196 0.0
O41 O 0.78858 0.61768 0.1297 0.0
Mg42 Mg 0.35736 0.76928 0.96295 0.0
O43 O 0.33817 0.7323 0.96141 0.0
O44 O 0.34706 0.71373 0.87926 0.0
Mg45 Mg 0.37221 0.73866 0.82808 0.0
C46 C 0.33626 0.71428 0.92724 0.0
C47 C 0.33889 0.79348 0.07391 0.0
O48 O 0.33392 0.81024 0.03555 0.0
O49 O 0.39396 0.75072 0.98011 0.0
O50 O 0.40303 0.73575 0.89415 0.0
O51 O 0.32569 0.78689 0.91845 0.0
O52 O 0.3569 0.76988 0.87431 0.0
C53 C 0.40863 0.74006 0.94601 0.0
C54 C 0.33596 0.78048 0.87126 0.0
O55 O 0.34911 0.77375 0.058 0.0
Mg56 Mg 0.18525 0.59962 0.02111 0.0
O57 O 0.22242 0.61879 0.02277 0.0
O58 O 0.24075 0.61078 0.106 0.0
Mg59 Mg 0.21637 0.58543 0.15724 0.0
C60 C 0.24031 0.62115 0.05742 0.0
C61 C 0.162 0.62156 0.91026 0.0
O62 O 0.14588 0.62801 0.94865 0.0
O63 O 0.20379 0.56253 0.00447 0.0
O64 O 0.21963 0.55547 0.09095 0.0
O65 O 0.16814 0.63108 0.06886 0.0
O66 O 0.18469 0.59879 0.10956 0.0
C67 C 0.21519 0.54877 0.03994 0.0
C68 C 0.17429 0.6196 0.11495 0.0
O69 O 0.1806 0.60918 0.92604 0.0
Mg70 Mg 0.36726 0.19097 0.00863 0.0
O71 O 0.34579 0.22638 -0.0012 0.0
O72 O 0.35169 0.24944 0.07602 0.0
Mg73 Mg 0.37718 0.22847 0.13645 0.0
C74 C 0.34204 0.24585 0.02719 0.0
C75 C 0.34628 0.16588 0.89917 0.0
O76 O 0.33571 0.15286 0.93891 0.0
O77 O 0.40278 0.21106 -0.0087 0.0
O78 O 0.40917 0.23039 0.07403 0.0
O79 O 0.33612 0.17358 0.05473 0.0
O80 O 0.36576 0.19389 0.09715 0.0
C81 C 0.41602 0.22413 0.02424 0.0
C82 C 0.34559 0.18214 0.10121 0.0
O83 O 0.36076 0.18291 0.91392 0.0
Mg84 Mg 0.78456 0.36547 0.00971 0.0
O85 O 0.74863 0.34452 0.00605 0.0
O86 O 0.73043 0.34751 0.09065 0.0
Mg87 Mg 0.75461 0.37097 0.14843 0.0
C88 C 0.73108 0.33964 0.03957 0.0
C89 C 0.80838 0.35217 0.89688 0.0
O90 O 0.82571 0.34805 0.93458 0.0
O91 O 0.7639 0.4016 0.00421 0.0
O92 O 0.74917 0.40493 0.09262 0.0
O93 O 0.80364 0.33246 0.04253 0.0
O94 O 0.78646 0.3603 0.09742 0.0
C95 C 0.75266 0.41355 0.04284 0.0
C96 C 0.79763 0.33969 0.09295 0.0
O97 O 0.78826 0.36124 0.91366 0.0
Mg98 Mg 0.59915 0.78679 0.98457 0.0
O99 O 0.62043 0.75082 0.99019 0.0
O100 O 0.61207 0.73304 0.07353 0.0
Mg101 Mg 0.58401 0.75649 0.11995 0.0
C102 C 0.6233 0.73355 0.02613 0.0
C103 C 0.62657 0.80497 0.87547 0.0
O104 O 0.63879 0.81663 0.91525 0.0
O105 O 0.56411 0.76575 0.96444 0.0
O106 O 0.55562 0.74994 0.04989 0.0
O107 O 0.62899 0.80568 0.03334 0.0
O108 O 0.59707 0.78828 0.07295 0.0
C109 C 0.55029 0.75351 -0.00244 0.0
C110 C 0.61757 0.79926 0.079 0.0
O111 O 0.60925 0.79084 0.89004 0.0
Mg112 Mg 0.69595 0.86257 0.45335 0.0
O113 O 0.73139 0.84053 0.45819 0.0
O114 O 0.75184 0.84586 0.37701 0.0
Mg115 Mg 0.72954 0.87135 0.3194 0.0
C116 C 0.74976 0.83638 0.42637 0.0
C117 C 0.67187 0.84318 0.56437 0.0
O118 O 0.65787 0.8335 0.52488 0.0
O119 O 0.71698 0.89815 0.46676 0.0
O120 O 0.73353 0.90355 0.38075 0.0
O121 O 0.67646 0.83154 0.41066 0.0
O122 O 0.69655 0.86021 0.36476 0.0
C123 C 0.72898 0.91099 0.43109 0.0
C124 C 0.68422 0.84034 0.363 0.0
O125 O 0.68959 0.85668 0.54918 0.0
Mg126 Mg 0.10021 0.68826 0.48602 0.0
O127 O 0.11924 0.72518 0.49392 0.0
O128 O 0.11347 0.74526 0.41193 0.0
Mg129 Mg 0.09079 0.72181 0.35106 0.0
C130 C 0.12234 0.74382 0.4622 0.0
C131 C 0.12433 0.67032 0.5999 0.0
O132 O 0.14106 0.6644 0.56252 0.0
O133 O 0.06275 0.70657 0.4957 0.0
O134 O 0.05755 0.72289 0.40896 0.0
O135 O 0.13351 0.6717 0.44595 0.0
O136 O 0.10406 0.68991 0.39764 0.0
C137 C 0.04965 0.71764 0.45844 0.0
C138 C 0.12504 0.67943 0.39773 0.0
O139 O 0.10499 0.68108 0.58255 0.0
Mg140 Mg 0.27891 0.10425 0.47312 0.0
O141 O 0.24373 0.12628 0.48126 0.0
O142 O 0.22105 0.12051 0.40306 0.0
Mg143 Mg 0.242 0.09487 0.34386 0.0
C144 C 0.22447 0.13017 0.45186 0.0
C145 C 0.30197 0.12606 0.5882 0.0
O146 O 0.28638 0.10934 0.5722 0.0
O147 O 0.25787 0.06935 0.4899 0.0
O148 O 0.23871 0.06304 0.40676 0.0
O149 O 0.29727 0.13512 0.42806 0.0
O150 O 0.27642 0.10609 0.38478 0.0
C151 C 0.24452 0.05635 0.45713 0.0
C152 C 0.2886 0.12603 0.38125 0.0
O153 O 0.28687 0.10992 0.57092 0.0
Mg154 Mg 0.8644 0.28064 0.47992 0.0
O155 O 0.84294 0.24531 0.49193 0.0
O156 O 0.84446 0.22447 0.41026 0.0
Mg157 Mg 0.86587 0.24672 0.34509 0.0
C158 C 0.83763 0.22666 0.46187 0.0
C159 C 0.84278 0.29453 0.59554 0.0
O160 O 0.82367 0.29444 0.56156 0.0
O161 O 0.90015 0.25932 0.48378 0.0
O162 O 0.9013 0.24259 0.39681 0.0
O163 O 0.8315 0.30021 0.44686 0.0
O164 O 0.8574 0.28001 0.39285 0.0
C165 C 0.91111 0.24713 0.44509 0.0
C166 C 0.83766 0.29263 0.39687 0.0
O167 O 0.86341 0.28813 0.57571 0.0
Mg168 Mg 0.69259 0.09245 0.53588 0.0
O169 O 0.72678 0.11538 0.52325 0.0
O170 O 0.75087 0.11158 0.59981 0.0
Mg171 Mg 0.73193 0.086 0.66271 0.0
C172 C 0.74629 0.12042 0.55063 0.0
C173 C 0.66936 0.11507 0.4253 0.0
O174 O 0.66045 0.12976 0.46418 0.0
O175 O 0.71432 0.05745 0.52002 0.0
O176 O 0.7347 0.05326 0.6024 0.0
O177 O 0.67401 0.12329 0.58141 0.0
O178 O 0.69636 0.09525 0.62437 0.0
C179 C 0.7283 0.0453 0.55347 0.0
C180 C 0.68356 0.11486 0.62795 0.0
O181 O 0.68316 0.09752 0.44093 0.0
Mg182 Mg 0.86475 0.68866 0.56003 0.0
O183 O 0.84338 0.72458 0.55293 0.0
O184 O 0.85044 0.74646 0.63158 0.0
Mg185 Mg 0.87669 0.7253 0.68907 0.0
C186 C 0.84012 0.74363 0.58324 0.0
C187 C 0.83318 0.67747 0.4531 0.0
O188 O 0.81671 0.68222 0.492 0.0
O189 O 0.90061 0.70847 0.54029 0.0
O190 O 0.90716 0.72727 0.6236 0.0
O191 O 0.83446 0.6712 0.60961 0.0
O192 O 0.86501 0.69132 0.64861 0.0
C193 C 0.91398 0.72134 0.5736 0.0
C194 C 0.845 0.67957 0.65497 0.0
O195 O 0.85568 0.67947 0.46644 0.0
Mg196 Mg 0.28108 0.86516 0.49408 0.0
O197 O 0.2448 0.84479 0.48991 0.0
O198 O 0.22383 0.85257 0.56927 0.0
Mg199 Mg 0.24637 0.87859 0.62424 0.0
C200 C 0.22598 0.84211 0.52105 0.0
C201 C 0.29718 0.83668 0.38418 0.0
O202 O 0.30235 0.82018 0.42301 0.0
O203 O 0.26116 0.90073 0.47395 0.0
O204 O 0.24286 0.90862 0.55694 0.0
O205 O 0.29835 0.83429 0.5426 0.0
O206 O 0.27961 0.8655 0.58255 0.0
C207 C 0.24824 0.91447 0.50591 0.0
C208 C 0.29061 0.84493 0.58829 0.0
O209 O 0.28788 0.85692 0.39967 0.0
Mg210 Mg 0.09571 0.28334 0.50648 0.0
O211 O 0.11796 0.24826 0.49611 0.0
O212 O 0.11654 0.22792 0.57853 0.0
Mg213 Mg 0.09353 0.24955 0.64169 0.0
C214 C 0.12372 0.23001 0.52719 0.0
C215 C 0.11828 0.29733 0.39163 0.0
O216 O 0.13701 0.29794 0.42671 0.0
O217 O 0.06028 0.26165 0.50075 0.0
O218 O 0.05906 0.2446 0.58733 0.0
O219 O 0.12828 0.30281 0.54084 0.0
O220 O 0.10203 0.28279 0.59405 0.0
C221 C 0.04943 0.24904 0.53877 0.0
C222 C 0.12201 0.29494 0.59048 0.0
O223 O 0.09762 0.29058 0.41052 0.0
H224 H 0.2114 0.5261 0.93627 0.0
H225 H 0.23017 0.51296 0.11254 0.0
H226 H 0.23102 0.46937 0.0956 0.0
H227 H 0.22217 0.43453 0.03361 0.0
H228 H 0.20563 0.44701 0.85642 0.0
H229 H 0.20834 0.49107 0.87084 0.0
C230 C 0.21608 0.51373 0.9707 0.0
C231 C 0.22024 0.52292 0.0257 0.0
C232 C 0.2167 0.48843 0.9608 0.0
C233 C 0.22663 0.50656 0.0697 0.0
C234 C 0.22704 0.48149 0.06027 0.0
C235 C 0.21945 0.44693 -0.00187 0.0
C236 C 0.2134 0.43765 0.94438 0.0
C237 C 0.22137 0.47219 0.00648 0.0
C238 C 0.21029 0.45381 0.89837 0.0
C239 C 0.21174 0.479 0.90657 0.0
H240 H 0.45477 0.22857 0.09487 0.0
H241 H 0.43444 0.22957 0.91723 0.0
H242 H 0.47756 0.23092 0.89065 0.0
H243 H 0.52051 0.22675 0.91775 0.0
H244 H 0.5407 0.22093 0.09506 0.0
H245 H 0.49799 0.22678 0.12218 0.0
C246 C 0.45976 0.22964 0.05034 0.0
C247 C 0.44151 0.229 0.00796 0.0
C248 C 0.4845 0.22926 0.03547 0.0
C249 C 0.44821 0.22999 0.95049 0.0
C250 C 0.47282 0.23069 0.93535 0.0
C251 C 0.51568 0.22722 0.96243 0.0
C252 C 0.53373 0.22335 0.00441 0.0
C253 C 0.49108 0.22956 0.97747 0.0
C254 C 0.52711 0.22374 0.06201 0.0
C255 C 0.50272 0.22704 0.07747 0.0
H256 H 0.75099 0.45017 0.11992 0.0
H257 H 0.74019 0.43461 0.94157 0.0
H258 H 0.73446 0.47811 0.92229 0.0
H259 H 0.73722 0.52022 0.95414 0.0
H260 H 0.75269 0.53641 0.13052 0.0
H261 H 0.75147 0.49277 0.15291 0.0
C262 C 0.74691 0.45627 0.077 0.0
C263 C 0.74601 0.43926 0.03211 0.0
C264 C 0.74466 0.48135 0.06597 0.0
C265 C 0.74107 0.44741 0.97664 0.0
C266 C 0.73782 0.47224 0.96568 0.0
C267 C 0.73992 0.51437 -0.00219 0.0
C268 C 0.74518 0.53164 0.04061 0.0
C269 C 0.74028 0.48936 0.00975 0.0
C270 C 0.74871 0.52355 0.09677 0.0
C271 C 0.74811 0.4986 0.10949 0.0
H272 H 0.51174 0.74053 0.06234 0.0
H273 H 0.53388 0.74934 0.8875 0.0
H274 H 0.4919 0.742 0.85589 0.0
H275 H 0.4485 0.73816 0.87882 0.0
H276 H 0.42605 0.73365 0.05424 0.0
H277 H 0.46881 0.7339 0.08486 0.0
C278 C 0.50755 0.74044 0.01718 0.0
C279 C 0.52592 0.74565 0.9773 0.0
C280 C 0.48331 0.73714 -0.00043 0.0
C281 C 0.52006 0.74556 0.91905 0.0
C282 C 0.49607 0.7414 0.90101 0.0
C283 C 0.45295 0.73669 0.92372 0.0
C284 C 0.43415 0.73595 0.9643 0.0
C285 C 0.47745 0.73791 0.94102 0.0
C286 C 0.44021 0.73435 0.02229 0.0
C287 C 0.46462 0.73456 0.03976 0.0
H288 H 0.73297 0.02514 0.44821 0.0
H289 H 0.73677 0.00804 0.62724 0.0
H290 H 0.73944 0.96464 0.60548 0.0
H291 H 0.73585 0.93129 0.53584 0.0
H292 H 0.73419 0.94851 0.35667 0.0
H293 H 0.73589 -0.00808 0.37824 0.0
C294 C 0.73479 0.01191 0.48233 0.0
C295 C 0.73433 0.01976 0.53913 0.0
C296 C 0.73653 -0.01306 0.46959 0.0
C297 C 0.73706 0.00248 0.58303 0.0
C298 C 0.73844 0.97761 0.57071 0.0
C299 C 0.73627 0.94456 0.5016 0.0
C300 C 0.73454 0.93669 0.4449 0.0
C301 C 0.73745 0.96959 0.51419 0.0
C302 C 0.73547 0.95406 0.40082 0.0
C303 C 0.73629 0.97894 0.41304 0.0
H304 H 0.93502 0.71923 0.46854 0.0
H305 H 0.95082 0.73479 0.64509 0.0
H306 H -0.00577 0.73621 0.62493 0.0
H307 H 0.02821 0.72889 0.55919 0.0
H308 H 0.01258 0.71567 0.38183 0.0
H309 H 0.96885 0.71758 0.40028 0.0
C310 C 0.94793 0.7233 0.50237 0.0
C311 C 0.93962 0.72649 0.55826 0.0
C312 C 0.97303 0.72426 0.49058 0.0
C313 C 0.95662 0.73211 0.60155 0.0
C314 C 0.98155 0.7328 0.59025 0.0
C315 C 0.01518 0.72671 0.52463 0.0
C316 C 0.02353 0.72187 0.46955 0.0
C317 C -0.00998 0.72821 0.53528 0.0
C318 C 0.00654 0.71943 0.42476 0.0
C319 C 0.98152 0.72041 0.43523 0.0
H320 H 0.2393 0.01703 0.38914 0.0
H321 H 0.23734 0.03951 0.56498 0.0
H322 H 0.23445 -0.00314 0.59489 0.0
H323 H 0.23794 0.95358 0.57154 0.0
H324 H 0.2447 0.93109 0.3963 0.0
H325 H 0.24 0.97349 0.3654 0.0
C326 C 0.23767 0.01261 0.43395 0.0
C327 C 0.23856 0.0313 0.47491 0.0
C328 C 0.23719 -0.0119 0.45081 0.0
C329 C 0.2368 0.02536 0.53281 0.0
C330 C 0.23522 0.00102 0.54986 0.0
C331 C 0.23791 0.95785 0.52647 0.0
C332 C 0.24179 0.93925 0.48621 0.0
C333 C 0.23623 0.98226 0.5093 0.0
C334 C 0.24192 0.94513 0.42807 0.0
C335 C 0.23926 0.96934 0.41044 0.0
H336 H 0.02532 0.24296 0.43811 0.0
H337 H 0.01548 0.24018 0.62008 0.0
H338 H 0.97148 0.23673 0.60723 0.0
H339 H 0.93552 0.23996 0.54476 0.0
H340 H 0.94529 0.24122 0.36274 0.0
H341 H -0.01053 0.23942 0.37521 0.0
C342 C 0.01356 0.24119 0.47484 0.0
C343 C 0.02361 0.24227 0.52985 0.0
C344 C -0.01179 0.23912 0.46726 0.0
C345 C 0.00821 0.23951 0.57715 0.0
C346 C 0.983 0.23767 0.56994 0.0
C347 C 0.94733 0.23941 0.50789 0.0
C348 C 0.93719 0.24114 0.45308 0.0
C349 C 0.97275 0.2383 0.51527 0.0
C350 C 0.95265 0.23999 0.40553 0.0
C351 C 0.97795 0.23911 0.41255 0.0
H352 H 0.2681 0.31233 0.89097 0.0
H353 H 0.24949 0.33466 0.06138 0.0
H354 H 0.28219 0.30902 0.09999 0.0
H355 H 0.31454 0.27851 0.08565 0.0
H356 H 0.33101 0.25398 0.91566 0.0
H357 H 0.30077 0.28232 0.87653 0.0
C358 C 0.27139 0.31181 0.9365 0.0
C359 C 0.25644 0.3254 0.97324 0.0
C360 C 0.28977 0.29654 0.95849 0.0
C361 C 0.2607 0.32428 0.03222 0.0
C362 C 0.2794 0.30964 0.05433 0.0
C363 C 0.31171 0.2796 0.04 0.0
C364 C 0.325 0.26423 0.00359 0.0
C365 C 0.29383 0.29544 0.01791 0.0
C366 C 0.32092 0.26558 0.94458 0.0
C367 C 0.30365 0.28177 0.92218 0.0
H368 H 0.70322 0.30944 0.10327 0.0
H369 H 0.71579 0.33241 0.93033 0.0
H370 H 0.68538 0.30325 0.89614 0.0
H371 H 0.65648 0.27014 0.91506 0.0
H372 H 0.64598 0.24527 0.08742 0.0
H373 H 0.67435 0.27626 0.12218 0.0
C374 C 0.69908 0.30825 0.05817 0.0
C375 C 0.71161 0.32313 0.0194 0.0
C376 C 0.68209 0.291 0.0387 0.0
C377 C 0.70639 0.32112 0.96099 0.0
C378 C 0.68902 0.30445 0.94142 0.0
C379 C 0.66026 0.27162 0.96028 0.0
C380 C 0.6491 0.25547 -0.0014 0.0
C381 C 0.67696 0.28913 0.97984 0.0
C382 C 0.65441 0.25742 0.057 0.0
C383 C 0.67059 0.27516 0.07694 0.0
H384 H 0.69653 0.65493 0.93121 0.0
H385 H 0.71167 0.646 0.11037 0.0
H386 H 0.68024 0.67633 0.13294 0.0
H387 H 0.64934 0.70618 0.10125 0.0
H388 H 0.63669 0.71704 0.92162 0.0
H389 H 0.66632 0.68504 0.89961 0.0
C390 C 0.69279 0.65943 0.97526 0.0
C391 C 0.70622 0.64811 0.01913 0.0
C392 C 0.67525 0.67727 0.98772 0.0
C393 C 0.70152 0.65447 0.0759 0.0
C394 C 0.68358 0.67178 0.08878 0.0
C395 C 0.65295 0.70138 0.05732 0.0
C396 C 0.64077 0.71382 0.01309 0.0
C397 C 0.67045 0.6834 0.04498 0.0
C398 C 0.64589 0.70774 0.95635 0.0
C399 C 0.66278 0.68944 0.94376 0.0
H400 H 0.25597 0.63286 0.9514 0.0
H401 H 0.27019 0.64612 0.12949 0.0
H402 H 0.3018 0.67556 0.10498 0.0
H403 H 0.32391 0.69909 0.03297 0.0
H404 H 0.31124 0.68446 0.8549 0.0
H405 H 0.28066 0.65386 0.87935 0.0
C406 C 0.26608 0.64213 0.98477 0.0
C407 C 0.26061 0.63751 0.04211 0.0
C408 C 0.28447 0.65879 0.97041 0.0
C409 C 0.27408 0.64936 0.08499 0.0
C410 C 0.2921 0.66626 0.07105 0.0
C411 C 0.31455 0.68908 -0.00042 0.0
C412 C 0.31964 0.69415 0.94228 0.0
C413 C 0.29722 0.67134 0.01392 0.0
C414 C 0.30766 0.68083 0.89938 0.0
C415 C 0.29009 0.66342 0.9133 0.0
H416 H 0.82921 0.75514 0.47358 0.0
H417 H 0.81317 0.77501 0.64704 0.0
H418 H 0.78389 0.80561 0.61383 0.0
H419 H 0.76212 0.82605 0.53561 0.0
H420 H 0.77982 0.80799 0.36198 0.0
H421 H 0.80929 0.77748 0.3951 0.0
C422 C 0.8193 0.76621 0.50402 0.0
C423 C 0.82321 0.76274 0.56262 0.0
C424 C 0.80284 0.7841 0.48462 0.0
C425 C 0.81052 0.7774 0.60167 0.0
C426 C 0.79373 0.79485 0.58275 0.0
C427 C 0.77249 0.81547 0.50506 0.0
C428 C 0.7687 0.81914 0.4465 0.0
C429 C 0.78965 0.79826 0.52436 0.0
C430 C 0.78248 0.80555 0.40734 0.0
C431 C 0.79925 0.78803 0.42621 0.0
H432 H 0.19313 0.81759 0.58526 0.0
H433 H 0.21478 0.83027 0.41151 0.0
H434 H 0.18305 0.80248 0.37788 0.0
H435 H 0.15055 0.77319 0.39802 0.0
H436 H 0.13099 0.75786 0.57189 0.0
H437 H 0.16039 0.78828 0.60542 0.0
C438 C 0.19074 0.81442 0.54002 0.0
C439 C 0.20622 0.82597 0.50091 0.0
C440 C 0.17287 0.79796 0.52108 0.0
C441 C 0.20315 0.82148 0.44245 0.0
C442 C 0.18499 0.80565 0.42319 0.0
C443 C 0.15249 0.77676 0.44322 0.0
C444 C 0.13855 0.76347 0.48245 0.0
C445 C 0.16992 0.79362 0.46215 0.0
C446 C 0.14155 0.76791 0.54093 0.0
C447 C 0.15835 0.78525 0.56008 0.0
H448 H 0.19157 0.15729 0.39225 0.0
H449 H 0.2157 0.14066 0.56307 0.0
H450 H 0.18566 0.16916 0.60146 0.0
H451 H 0.15351 0.19965 0.58643 0.0
H452 H 0.13117 0.21848 0.41557 0.0
H453 H 0.15953 0.1882 0.37717 0.0
C454 C 0.1901 0.15978 0.43788 0.0
C455 C 0.20574 0.14685 0.47479 0.0
C456 C 0.17318 0.17661 0.45959 0.0
C457 C 0.2039 0.15048 0.53379 0.0
C458 C 0.18671 0.16673 0.55577 0.0
C459 C 0.15468 0.19698 0.5408 0.0
C460 C 0.14018 0.21116 0.50389 0.0
C461 C 0.1714 0.18001 0.51906 0.0
C462 C 0.14218 0.20778 0.44484 0.0
C463 C 0.15837 0.19047 0.42288 0.0
H464 H 0.80998 0.19309 0.40651 0.0
H465 H 0.83165 0.2165 0.57464 0.0
H466 H 0.80647 0.18461 0.61689 0.0
H467 H 0.77733 0.15086 0.6061 0.0
H468 H 0.75358 0.1294 0.4381 0.0
H469 H 0.78067 0.15965 0.39572 0.0
C470 C 0.80932 0.19111 0.45239 0.0
C471 C 0.82273 0.20708 0.48736 0.0
C472 C 0.79443 0.1731 0.4764 0.0
C473 C 0.82144 0.20448 0.54677 0.0
C474 C 0.80709 0.18623 0.57097 0.0
C475 C 0.77829 0.15266 0.56021 0.0
C476 C 0.7636 0.13786 0.52525 0.0
C477 C 0.7934 0.17053 0.5362 0.0
C478 C 0.76471 0.14064 0.46588 0.0
C479 C 0.78017 0.15791 0.44164 0.0
H480 H 0.15767 0.31987 0.34639 0.0
H481 H 0.08526 0.29456 0.30377 0.0
H482 H 0.09013 0.3096 0.20649 0.0
H483 H 0.11516 0.32944 0.13352 0.0
H484 H 0.18744 0.35499 0.17684 0.0
H485 H 0.18225 0.34053 0.2743 0.0
C486 C 0.14294 0.31754 0.31585 0.0
C487 C 0.12117 0.30595 0.33231 0.0
C488 C 0.14579 0.32641 0.26028 0.0
C489 C 0.10222 0.30334 0.29223 0.0
C490 C 0.10499 0.31197 0.23662 0.0
C491 C 0.12976 0.33199 0.1643 0.0
C492 C 0.1517 0.34327 0.14775 0.0
C493 C 0.1267 0.32351 0.2202 0.0
C494 C 0.17037 0.34641 0.18833 0.0
C495 C 0.16745 0.33807 0.24405 0.0
H496 H 0.64014 0.15041 0.37987 0.0
H497 H 0.68577 0.08935 0.33303 0.0
H498 H 0.67677 0.09683 0.23255 0.0
H499 H 0.65622 0.12087 0.15791 0.0
H500 H 0.6107 0.18199 0.20499 0.0
H501 H 0.61941 0.17426 0.30541 0.0
C502 C 0.64812 0.13868 0.34777 0.0
C503 C 0.66364 0.11932 0.36419 0.0
C504 C 0.6429 0.1431 0.29003 0.0
C505 C 0.67376 0.10435 0.3218 0.0
C506 C 0.66864 0.10863 0.26425 0.0
C507 C 0.64816 0.13251 0.19007 0.0
C508 C 0.63281 0.15202 0.1737 0.0
C509 C 0.65327 0.12798 0.24786 0.0
C510 C 0.62258 0.16688 0.21617 0.0
C511 C 0.62755 0.16246 0.27369 0.0
H512 H 0.86183 0.66091 0.36603 0.0
H513 H 0.78664 0.67322 0.41239 0.0
H514 H 0.77306 0.65649 0.32154 0.0
H515 H 0.78234 0.63801 0.22862 0.0
H516 H 0.85753 0.62595 0.18204 0.0
H517 H 0.87112 0.6427 0.27288 0.0
C518 C 0.84248 0.66006 0.35618 0.0
C519 C 0.82535 0.66836 0.39624 0.0
C520 C 0.8347 0.65026 0.30371 0.0
C521 C 0.80032 0.66699 0.38258 0.0
C522 C 0.79247 0.65736 0.33054 0.0
C523 C 0.80168 0.63893 0.23845 0.0
C524 C 0.81882 0.63063 0.19841 0.0
C525 C 0.80947 0.64881 0.29083 0.0
C526 C 0.84386 0.63216 0.21189 0.0
C527 C 0.8517 0.64179 0.26392 0.0
H528 H 0.31829 0.7961 0.33847 0.0
H529 H 0.28907 0.86679 0.29313 0.0
H530 H 0.29935 0.85957 0.19362 0.0
H531 H 0.31694 0.83346 0.11959 0.0
H532 H 0.3463 0.7628 0.16455 0.0
H533 H 0.33565 0.7698 0.26408 0.0
C534 C 0.3141 0.80994 0.30687 0.0
C535 C 0.30291 0.83199 0.32346 0.0
C536 C 0.32014 0.8057 0.24961 0.0
C537 C 0.29766 0.84966 0.28174 0.0
C538 C 0.30356 0.84556 0.22475 0.0
C539 C 0.32104 0.81955 0.15107 0.0
C540 C 0.33246 0.79763 0.13445 0.0
C541 C 0.31486 0.82369 0.20823 0.0
C542 C 0.33756 0.77985 0.17601 0.0
C543 C 0.33146 0.78383 0.233 0.0
H544 H 0.16266 0.64571 0.64698 0.0
H545 H 0.09394 0.6796 0.68992 0.0
H546 H 0.09959 0.66754 0.78937 0.0
H547 H 0.12388 0.64705 0.86397 0.0
H548 H 0.19244 0.61295 0.82037 0.0
H549 H 0.18693 0.62541 0.72132 0.0
C550 C 0.14889 0.65054 0.678 0.0
C551 C 0.12787 0.66358 0.66075 0.0
C552 C 0.15221 0.64345 0.73506 0.0
C553 C 0.11028 0.66961 0.7018 0.0
C554 C 0.1135 0.66268 0.75874 0.0
C555 C 0.13765 0.64231 0.83287 0.0
C556 C 0.15856 0.629 0.84983 0.0
C557 C 0.13436 0.64953 0.77583 0.0
C558 C 0.17616 0.6231 0.80872 0.0
C559 C 0.17303 0.63025 0.75199 0.0
H560 H 0.33267 0.15906 0.63184 0.0
H561 H 0.28358 0.10155 0.68166 0.0
H562 H 0.29339 0.10883 0.78162 0.0
H563 H 0.31565 0.13165 0.85509 0.0
H564 H 0.36469 0.18939 0.80597 0.0
H565 H 0.3552 0.18188 0.70579 0.0
C566 C 0.32416 0.14816 0.66472 0.0
C567 C 0.30746 0.12988 0.6493 0.0
C568 C 0.32987 0.15246 0.72228 0.0
C569 C 0.29651 0.11579 0.69221 0.0
C570 C 0.30211 0.11993 0.74948 0.0
C571 C 0.32433 0.1426 0.82255 0.0
C572 C 0.34088 0.16107 0.83821 0.0
C573 C 0.31874 0.13823 0.76502 0.0
C574 C 0.3519 0.17504 0.79528 0.0
C575 C 0.34646 0.17077 0.73791 0.0
H576 H 0.84849 0.33092 0.85023 0.0
H577 H 0.77516 0.35467 0.80969 0.0
H578 H 0.77936 0.3385 0.71343 0.0
H579 H 0.80342 0.31698 0.64163 0.0
H580 H 0.87689 0.29352 0.68133 0.0
H581 H 0.87294 0.31009 0.77749 0.0
C582 C 0.83345 0.3327 0.8203 0.0
C583 C 0.81152 0.34399 0.83728 0.0
C584 C 0.83593 0.32324 0.7651 0.0
C585 C 0.79225 0.34612 0.79782 0.0
C586 C 0.7946 0.33679 0.74281 0.0
C587 C 0.81858 0.31537 0.67131 0.0
C588 C 0.84039 0.30387 0.65437 0.0
C589 C 0.81627 0.32515 0.72619 0.0
C590 C 0.85989 0.3022 0.6933 0.0
C591 C 0.85765 0.31172 0.74824 0.0
H592 H 0.66279 0.83324 0.83171 0.0
H593 H 0.60352 0.78588 0.78193 0.0
H594 H 0.61243 0.7935 0.6818 0.0
H595 H 0.63661 0.81396 0.60839 0.0
H596 H 0.69598 0.86123 0.65782 0.0
H597 H 0.68742 0.85325 0.75809 0.0
C598 C 0.65182 0.82452 0.79903 0.0
C599 C 0.63246 0.80902 0.81454 0.0
C600 C 0.65703 0.829 0.74142 0.0
C601 C 0.61852 0.79788 0.77142 0.0
C602 C 0.62359 0.80225 0.71406 0.0
C603 C 0.64772 0.82255 0.641 0.0
C604 C 0.6669 0.83826 0.6254 0.0
C605 C 0.64272 0.81785 0.69858 0.0
C606 C 0.6811 0.84911 0.66845 0.0
C607 C 0.67621 0.84455 0.72586 0.0
H608 H 0.80434 0.65403 0.68354 0.0
H609 H 0.864 0.69513 0.75618 0.0
H610 H 0.85034 0.68527 0.85137 0.0
H611 H 0.82392 0.66173 0.91435 0.0
H612 H 0.76617 0.61815 0.84179 0.0
H613 H 0.7765 0.63219 0.74707 0.0
C614 C 0.81415 0.66109 0.7202 0.0
C615 C 0.83504 0.67546 0.71246 0.0
C616 C 0.80667 0.65468 0.77522 0.0
C617 C 0.84765 0.68433 0.76051 0.0
C618 C 0.83996 0.67854 0.81526 0.0
C619 C 0.81335 0.65561 0.8779 0.0
C620 C 0.79443 0.63872 0.88535 0.0
C621 C 0.81982 0.6633 0.82312 0.0
C622 C 0.78101 0.63086 0.8376 0.0
C623 C 0.78691 0.63893 0.78313 0.0
H624 H 0.31063 0.8008 0.61467 0.0
H625 H 0.27874 0.86511 0.69043 0.0
H626 H 0.28698 0.84908 0.78498 0.0
H627 H 0.30674 0.81872 0.8464 0.0
H628 H 0.34068 0.75553 0.77118 0.0
H629 H 0.32806 0.76903 0.67668 0.0
C630 C 0.30527 0.81117 0.65187 0.0
C631 C 0.29402 0.83407 0.64531 0.0
C632 C 0.31059 0.80211 0.70644 0.0
C633 C 0.28719 0.84731 0.69401 0.0
C634 C 0.29201 0.83822 0.74831 0.0
C635 C 0.31095 0.8077 0.80937 0.0
C636 C 0.32493 0.78637 0.81562 0.0
C637 C 0.30412 0.81588 0.75503 0.0
C638 C 0.33041 0.7723 0.76739 0.0
C639 C 0.32313 0.77998 0.71327 0.0
H640 H 0.11387 0.27977 0.69879 0.0
H641 H 0.16342 0.32229 0.5968 0.0
H642 H 0.18456 0.33586 0.68272 0.0
H643 H 0.18558 0.33938 0.78607 0.0
H644 H 0.1361 0.29704 0.88833 0.0
H645 H 0.11864 0.27896 0.8023 0.0
C646 C 0.12959 0.29156 0.69505 0.0
C647 C 0.13687 0.30021 0.64146 0.0
C648 C 0.14158 0.29935 0.74453 0.0
C649 C 0.15732 0.31552 0.6376 0.0
C650 C 0.1694 0.32332 0.68668 0.0
C651 C 0.17128 0.32594 0.78982 0.0
C652 C 0.16187 0.31991 0.84345 0.0
C653 C 0.16118 0.31593 0.74035 0.0
C654 C 0.14358 0.30209 0.84744 0.0
C655 C 0.13348 0.29187 0.79829 0.0
H656 H 0.66699 0.14349 0.88423 0.0
H657 H 0.61093 0.1879 0.80585 0.0
H658 H 0.6254 0.17665 0.71203 0.0
H659 H 0.65138 0.15114 0.65179 0.0
H660 H 0.70514 0.10404 0.73023 0.0
H661 H 0.69439 0.11952 0.82364 0.0
C662 C 0.65816 0.15098 0.84664 0.0
C663 C 0.63798 0.16664 0.85237 0.0
C664 C 0.6661 0.1438 0.79242 0.0
C665 C 0.62665 0.17603 0.80309 0.0
C666 C 0.63482 0.16947 0.74913 0.0
C667 C 0.66101 0.14454 0.68922 0.0
C668 C 0.67909 0.12648 0.68373 0.0
C669 C 0.65418 0.15295 0.74326 0.0
C670 C 0.69125 0.11801 0.73283 0.0
C671 C 0.68501 0.12677 0.78656 0.0
H672 H 0.84485 0.27738 0.2883 0.0
H673 H 0.79948 0.3245 0.39043 0.0
H674 H 0.78143 0.34194 0.30438 0.0
H675 H 0.7823 0.34702 0.20135 0.0
H676 H 0.8272 0.29964 0.09882 0.0
H677 H 0.84171 0.27885 0.18451 0.0
C678 C 0.83068 0.29108 0.29193 0.0
C679 C 0.82374 0.29981 0.3457 0.0
C680 C 0.82055 0.30114 0.24238 0.0
C681 C 0.80524 0.31754 0.34951 0.0
C682 C 0.795 0.32761 0.30034 0.0
C683 C 0.79488 0.33189 0.19738 0.0
C684 C 0.80381 0.32509 0.14376 0.0
C685 C 0.80309 0.32006 0.24666 0.0
C686 C 0.82012 0.30534 0.13967 0.0
C687 C 0.82847 0.29347 0.18862 0.0
H688 H 0.66335 0.81468 0.10701 0.0
H689 H 0.59465 0.79283 0.18017 0.0
H690 H 0.61057 0.80036 0.27528 0.0
H691 H 0.64275 0.81633 0.33755 0.0
H692 H 0.71074 0.84004 0.26487 0.0
H693 H 0.69654 0.82842 0.17018 0.0
C694 C 0.65194 0.81146 0.1438 0.0
C695 C 0.6279 0.80315 0.13641 0.0
C696 C 0.66107 0.8162 0.19863 0.0
C697 C 0.61333 0.79898 0.18454 0.0
C698 C 0.62237 0.80337 0.23909 0.0
C699 C 0.65461 0.81847 0.30108 0.0
C700 C 0.6776 0.8293 0.30797 0.0
C701 C 0.64608 0.8123 0.24661 0.0
C702 C 0.69276 0.8322 0.26046 0.0
C703 C 0.68466 0.82552 0.20627 0.0
H704 H 0.15296 0.64059 0.37265 0.0
H705 H 0.12563 0.70795 0.30205 0.0
H706 H 0.14005 0.69621 0.20789 0.0
H707 H 0.15672 0.66468 0.14382 0.0
H708 H 0.18156 0.59637 0.21566 0.0
H709 H 0.17224 0.61068 0.31051 0.0
C710 C 0.15065 0.6529 0.33685 0.0
C711 C 0.13786 0.67483 0.34394 0.0
C712 C 0.15842 0.64575 0.28267 0.0
C713 C 0.13484 0.69063 0.2973 0.0
C714 C 0.14316 0.68396 0.24343 0.0
C715 C 0.16031 0.65308 0.18032 0.0
C716 C 0.16999 0.62958 0.17241 0.0
C717 C 0.15426 0.66117 0.23523 0.0
C718 C 0.1745 0.61471 0.22022 0.0
C719 C 0.16902 0.62279 0.27476 0.0
H720 H 0.31942 0.16342 0.35778 0.0
H721 H 0.26875 0.11361 0.27826 0.0
H722 H 0.27979 0.12881 0.18495 0.0
H723 H 0.30678 0.15324 0.12502 0.0
H724 H 0.35989 0.20056 0.20422 0.0
H725 H 0.34484 0.18958 0.29781 0.0
C726 C 0.31052 0.15616 0.3201 0.0
C727 C 0.29323 0.13742 0.32531 0.0
C728 C 0.31754 0.16445 0.2661 0.0
C729 C 0.28201 0.12811 0.27591 0.0
C730 C 0.28841 0.13672 0.22223 0.0
C731 C 0.31481 0.16145 0.1627 0.0
C732 C 0.3344 0.17774 0.15737 0.0
C733 C 0.30659 0.15445 0.21673 0.0
C734 C 0.34469 0.18808 0.20675 0.0
C735 C 0.33618 0.1817 0.26054 0.0
loop_
_geom_bond_atom_site_label_1
_geom_bond_atom_site_label_2
_geom_bond_distance
_geom_bond_site_symmetry_2
_ccdc_geom_bond_type
Mg0 O1 2.028 . S
Mg0 O7 1.986 . S
Mg0 O9 2.114 1_554 S
Mg0 O10 2.251 1_554 S
Mg0 O13 2.010 . S
O1 Mg0 2.028 . S
O1 C4 1.250 1_554 S
O2 Mg3 2.028 . S
O2 C4 1.248 . S
Mg3 O2 2.028 . S
Mg3 O8 2.032 . S
Mg3 O10 2.079 . S
C4 O1 1.250 1_556 S
C4 O2 1.248 . S
C5 O6 1.264 . S
C5 O13 1.249 . S
O6 C5 1.264 . S
O7 Mg0 1.986 . S
O7 C11 1.246 1_554 S
O8 Mg3 2.032 . S
O8 C11 1.259 . S
O9 Mg0 2.114 1_556 S
O9 C12 1.252 . S
O10 Mg0 2.251 1_556 S
O10 Mg3 2.079 . S
O10 C12 1.273 . S
C11 O7 1.246 1_556 S
C11 O8 1.259 . S
C12 O9 1.252 . S
C12 O10 1.273 . S
O13 Mg0 2.010 . S
O13 C5 1.249 . S
Mg14 O15 2.028 . S
Mg14 O21 1.986 . S
Mg14 O23 2.114 1_554 S
Mg14 O24 2.251 1_554 S
Mg14 O27 2.010 . S
O15 Mg14 2.028 . S
O15 C18 1.250 1_554 S
O16 Mg17 2.028 . S
O16 C18 1.248 . S
Mg17 O16 2.028 . S
Mg17 O22 2.032 . S
Mg17 O24 2.079 . S
C18 O15 1.250 1_556 S
C18 O16 1.248 . S
C19 O20 1.264 . S
C19 O27 1.249 . S
O20 C19 1.264 . S
O21 Mg14 1.986 . S
O21 C25 1.246 1_554 S
O22 Mg17 2.032 . S
O22 C25 1.259 . S
O23 Mg14 2.114 1_556 S
O23 C26 1.252 . S
O24 Mg14 2.251 1_556 S
O24 Mg17 2.079 . S
O24 C26 1.273 . S
C25 O21 1.246 1_556 S
C25 O22 1.259 . S
C26 O23 1.252 . S
C26 O24 1.273 . S
O27 Mg14 2.010 . S
O27 C19 1.249 . S
Mg28 O29 2.028 . S
Mg28 O35 1.986 . S
Mg28 O37 2.114 1_554 S
Mg28 O38 2.251 1_554 S
Mg28 O41 2.010 . S
O29 Mg28 2.028 . S
O29 C32 1.250 1_554 S
O30 Mg31 2.028 . S
O30 C32 1.248 . S
Mg31 O30 2.028 . S
Mg31 O36 2.032 . S
Mg31 O38 2.079 . S
C32 O29 1.250 1_556 S
C32 O30 1.248 . S
C33 O34 1.264 . S
C33 O41 1.249 . S
O34 C33 1.264 . S
O35 Mg28 1.986 . S
O35 C39 1.246 1_554 S
O36 Mg31 2.032 . S
O36 C39 1.259 . S
O37 Mg28 2.114 1_556 S
O37 C40 1.252 . S
O38 Mg28 2.251 1_556 S
O38 Mg31 2.079 . S
O38 C40 1.273 . S
C39 O35 1.246 1_556 S
C39 O36 1.259 . S
C40 O37 1.252 . S
C40 O38 1.273 . S
O41 Mg28 2.010 . S
O41 C33 1.249 . S
Mg42 O43 2.028 . S
Mg42 O49 1.986 . S
Mg42 O51 2.114 1_554 S
Mg42 O52 2.251 1_554 S
Mg42 O55 2.010 . S
O43 Mg42 2.028 . S
O43 C46 1.250 1_554 S
O44 Mg45 2.028 . S
O44 C46 1.248 . S
Mg45 O44 2.028 . S
Mg45 O50 2.032 . S
Mg45 O52 2.079 . S
C46 O43 1.250 1_556 S
C46 O44 1.248 . S
C47 O48 1.264 . S
C47 O55 1.249 . S
O48 C47 1.264 . S
O49 Mg42 1.986 . S
O49 C53 1.246 1_554 S
O50 Mg45 2.032 . S
O50 C53 1.259 . S
O51 Mg42 2.114 1_556 S
O51 C54 1.252 . S
O52 Mg42 2.251 1_556 S
O52 Mg45 2.079 . S
O52 C54 1.273 . S
C53 O49 1.246 1_556 S
C53 O50 1.259 . S
C54 O51 1.252 . S
C54 O52 1.273 . S
O55 Mg42 2.010 . S
O55 C47 1.249 . S
Mg56 O57 2.028 1_554 S
Mg56 O63 1.986 1_554 S
Mg56 O65 2.114 . S
Mg56 O66 2.251 . S
Mg56 O69 2.010 1_554 S
O57 Mg56 2.028 1_556 S
O57 C60 1.250 1_556 S
O58 Mg59 2.028 . S
O58 C60 1.248 . S
Mg59 O58 2.028 . S
Mg59 O64 2.032 . S
Mg59 O66 2.079 . S
C60 O57 1.250 1_554 S
C60 O58 1.248 . S
C61 O62 1.264 . S
C61 O69 1.249 . S
O62 C61 1.264 . S
O63 Mg56 1.986 1_556 S
O63 C67 1.246 1_556 S
O64 Mg59 2.032 . S
O64 C67 1.259 . S
O65 Mg56 2.114 . S
O65 C68 1.252 . S
O66 Mg56 2.251 . S
O66 Mg59 2.079 . S
O66 C68 1.273 . S
C67 O63 1.246 1_554 S
C67 O64 1.259 . S
C68 O65 1.252 . S
C68 O66 1.273 . S
O69 Mg56 2.010 1_556 S
O69 C61 1.249 . S
Mg70 O71 2.028 1_554 S
Mg70 O77 1.986 1_554 S
Mg70 O79 2.114 . S
Mg70 O80 2.251 . S
Mg70 O83 2.010 1_554 S
O71 Mg70 2.028 1_556 S
O71 C74 1.250 1_556 S
O72 Mg73 2.028 . S
O72 C74 1.248 . S
Mg73 O72 2.028 . S
Mg73 O78 2.032 . S
Mg73 O80 2.079 . S
C74 O71 1.250 1_554 S
C74 O72 1.248 . S
C75 O76 1.264 . S
C75 O83 1.249 . S
O76 C75 1.264 . S
O77 Mg70 1.986 1_556 S
O77 C81 1.246 1_556 S
O78 Mg73 2.032 . S
O78 C81 1.259 . S
O79 Mg70 2.114 . S
O79 C82 1.252 . S
O80 Mg70 2.251 . S
O80 Mg73 2.079 . S
O80 C82 1.273 . S
C81 O77 1.246 1_554 S
C81 O78 1.259 . S
C82 O79 1.252 . S
C82 O80 1.273 . S
O83 Mg70 2.010 1_556 S
O83 C75 1.249 . S
Mg84 O85 2.028 1_554 S
Mg84 O91 1.986 1_554 S
Mg84 O93 2.114 . S
Mg84 O94 2.251 . S
Mg84 O97 2.010 1_554 S
O85 Mg84 2.028 1_556 S
O85 C88 1.250 1_556 S
O86 Mg87 2.028 . S
O86 C88 1.248 . S
Mg87 O86 2.028 . S
Mg87 O92 2.032 . S
Mg87 O94 2.079 . S
C88 O85 1.250 1_554 S
C88 O86 1.248 . S
C89 O90 1.264 . S
C89 O97 1.249 . S
O90 C89 1.264 . S
O91 Mg84 1.986 1_556 S
O91 C95 1.246 1_556 S
O92 Mg87 2.032 . S
O92 C95 1.259 . S
O93 Mg84 2.114 . S
O93 C96 1.252 . S
O94 Mg84 2.251 . S
O94 Mg87 2.079 . S
O94 C96 1.273 . S
C95 O91 1.246 1_554 S
C95 O92 1.259 . S
C96 O93 1.252 . S
C96 O94 1.273 . S
O97 Mg84 2.010 1_556 S
O97 C89 1.249 . S
Mg98 O99 2.028 1_554 S
Mg98 O105 1.986 1_554 S
Mg98 O107 2.114 . S
Mg98 O108 2.251 . S
Mg98 O111 2.010 1_554 S
O99 Mg98 2.028 1_556 S
O99 C102 1.250 1_556 S
O100 Mg101 2.028 . S
O100 C102 1.248 . S
Mg101 O100 2.028 . S
Mg101 O106 2.032 . S
Mg101 O108 2.079 . S
C102 O99 1.250 1_554 S
C102 O100 1.248 . S
C103 O104 1.264 . S
C103 O111 1.249 . S
O104 C103 1.264 . S
O105 Mg98 1.986 1_556 S
O105 C109 1.246 1_556 S
O106 Mg101 2.032 . S
O106 C109 1.259 . S
O107 Mg98 2.114 . S
O107 C110 1.252 . S
O108 Mg98 2.251 . S
O108 Mg101 2.079 . S
O108 C110 1.273 . S
C109 O105 1.246 1_554 S
C109 O106 1.259 . S
C110 O107 1.252 . S
C110 O108 1.273 . S
O111 Mg98 2.010 1_556 S
O111 C103 1.249 . S
Mg112 O113 2.028 . S
Mg112 O119 1.986 . S
Mg112 O121 2.114 . S
Mg112 O122 2.251 . S
Mg112 O125 2.010 . S
O113 Mg112 2.028 . S
O113 C116 1.250 . S
O114 Mg115 2.028 . S
O114 C116 1.248 . S
Mg115 O114 2.028 . S
Mg115 O120 2.032 . S
Mg115 O122 2.079 . S
C116 O113 1.250 . S
C116 O114 1.248 . S
C117 O118 1.264 . S
C117 O125 1.249 . S
O118 C117 1.264 . S
O119 Mg112 1.986 . S
O119 C123 1.246 . S
O120 Mg115 2.032 . S
O120 C123 1.259 . S
O121 Mg112 2.114 . S
O121 C124 1.252 . S
O122 Mg112 2.251 . S
O122 Mg115 2.079 . S
O122 C124 1.273 . S
C123 O119 1.246 . S
C123 O120 1.259 . S
C124 O121 1.252 . S
C124 O122 1.273 . S
O125 Mg112 2.010 . S
O125 C117 1.249 . S
Mg126 O127 2.028 . S
Mg126 O133 1.986 . S
Mg126 O135 2.114 . S
Mg126 O136 2.251 . S
Mg126 O139 2.010 . S
O127 Mg126 2.028 . S
O127 C130 1.250 . S
O128 Mg129 2.028 . S
O128 C130 1.248 . S
Mg129 O128 2.028 . S
Mg129 O134 2.032 . S
Mg129 O136 2.079 . S
C130 O127 1.250 . S
C130 O128 1.248 . S
C131 O132 1.264 . S
C131 O139 1.249 . S
O132 C131 1.264 . S
O133 Mg126 1.986 . S
O133 C137 1.246 . S
O134 Mg129 2.032 . S
O134 C137 1.259 . S
O135 Mg126 2.114 . S
O135 C138 1.252 . S
O136 Mg126 2.251 . S
O136 Mg129 2.079 . S
O136 C138 1.273 . S
C137 O133 1.246 . S
C137 O134 1.259 . S
C138 O135 1.252 . S
C138 O136 1.273 . S
O139 Mg126 2.010 . S
O139 C131 1.249 . S
Mg140 O141 2.028 . S
Mg140 O147 1.986 . S
Mg140 O149 2.114 . S
Mg140 O150 2.251 . S
Mg140 O153 2.010 . S
O141 Mg140 2.028 . S
O141 C144 1.250 . S
O142 Mg143 2.028 . S
O142 C144 1.248 . S
Mg143 O142 2.028 . S
Mg143 O148 2.032 . S
Mg143 O150 2.079 . S
C144 O141 1.250 . S
C144 O142 1.248 . S
C145 O146 1.264 . S
C145 O153 1.249 . S
O146 C145 1.264 . S
O147 Mg140 1.986 . S
O147 C151 1.246 . S
O148 Mg143 2.032 . S
O148 C151 1.259 . S
O149 Mg140 2.114 . S
O149 C152 1.252 . S
O150 Mg140 2.251 . S
O150 Mg143 2.079 . S
O150 C152 1.273 . S
C151 O147 1.246 . S
C151 O148 1.259 . S
C152 O149 1.252 . S
C152 O150 1.273 . S
O153 Mg140 2.010 . S
O153 C145 1.249 . S
Mg154 O155 2.028 . S
Mg154 O161 1.986 . S
Mg154 O163 2.114 . S
Mg154 O164 2.251 . S
Mg154 O167 2.010 . S
O155 Mg154 2.028 . S
O155 C158 1.250 . S
O156 Mg157 2.028 . S
O156 C158 1.248 . S
Mg157 O156 2.028 . S
Mg157 O162 2.032 . S
Mg157 O164 2.079 . S
C158 O155 1.250 . S
C158 O156 1.248 . S
C159 O160 1.264 . S
C159 O167 1.249 . S
O160 C159 1.264 . S
O161 Mg154 1.986 . S
O161 C165 1.246 . S
O162 Mg157 2.032 . S
O162 C165 1.259 . S
O163 Mg154 2.114 . S
O163 C166 1.252 . S
O164 Mg154 2.251 . S
O164 Mg157 2.079 . S
O164 C166 1.273 . S
C165 O161 1.246 . S
C165 O162 1.259 . S
C166 O163 1.252 . S
C166 O164 1.273 . S
O167 Mg154 2.010 . S
O167 C159 1.249 . S
Mg168 O169 2.028 . S
Mg168 O175 1.986 . S
Mg168 O177 2.114 . S
Mg168 O178 2.251 . S
Mg168 O181 2.010 . S
O169 Mg168 2.028 . S
O169 C172 1.250 . S
O170 Mg171 2.028 . S
O170 C172 1.248 . S
Mg171 O170 2.028 . S
Mg171 O176 2.032 . S
Mg171 O178 2.079 . S
C172 O169 1.250 . S
C172 O170 1.248 . S
C173 O174 1.264 . S
C173 O181 1.249 . S
O174 C173 1.264 . S
O175 Mg168 1.986 . S
O175 C179 1.246 . S
O176 Mg171 2.032 . S
O176 C179 1.259 . S
O177 Mg168 2.114 . S
O177 C180 1.252 . S
O178 Mg168 2.251 . S
O178 Mg171 2.079 . S
O178 C180 1.273 . S
C179 O175 1.246 . S
C179 O176 1.259 . S
C180 O177 1.252 . S
C180 O178 1.273 . S
O181 Mg168 2.010 . S
O181 C173 1.249 . S
Mg182 O183 2.028 . S
Mg182 O189 1.986 . S
Mg182 O191 2.114 . S
Mg182 O192 2.251 . S
Mg182 O195 2.010 . S
O183 Mg182 2.028 . S
O183 C186 1.250 . S
O184 Mg185 2.028 . S
O184 C186 1.248 . S
Mg185 O184 2.028 . S
Mg185 O190 2.032 . S
Mg185 O192 2.079 . S
C186 O183 1.250 . S
C186 O184 1.248 . S
C187 O188 1.264 . S
C187 O195 1.249 . S
O188 C187 1.264 . S
O189 Mg182 1.986 . S
O189 C193 1.246 . S
O190 Mg185 2.032 . S
O190 C193 1.259 . S
O191 Mg182 2.114 . S
O191 C194 1.252 . S
O192 Mg182 2.251 . S
O192 Mg185 2.079 . S
O192 C194 1.273 . S
C193 O189 1.246 . S
C193 O190 1.259 . S
C194 O191 1.252 . S
C194 O192 1.273 . S
O195 Mg182 2.010 . S
O195 C187 1.249 . S
Mg196 O197 2.028 . S
Mg196 O203 1.986 . S
Mg196 O205 2.114 . S
Mg196 O206 2.251 . S
Mg196 O209 2.010 . S
O197 Mg196 2.028 . S
O197 C200 1.250 . S
O198 Mg199 2.028 . S
O198 C200 1.248 . S
Mg199 O198 2.028 . S
Mg199 O204 2.032 . S
Mg199 O206 2.079 . S
C200 O197 1.250 . S
C200 O198 1.248 . S
C201 O202 1.264 . S
C201 O209 1.249 . S
O202 C201 1.264 . S
O203 Mg196 1.986 . S
O203 C207 1.246 . S
O204 Mg199 2.032 . S
O204 C207 1.259 . S
O205 Mg196 2.114 . S
O205 C208 1.252 . S
O206 Mg196 2.251 . S
O206 Mg199 2.079 . S
O206 C208 1.273 . S
C207 O203 1.246 . S
C207 O204 1.259 . S
C208 O205 1.252 . S
C208 O206 1.273 . S
O209 Mg196 2.010 . S
O209 C201 1.249 . S
Mg210 O211 2.028 . S
Mg210 O217 1.986 . S
Mg210 O219 2.114 . S
Mg210 O220 2.251 . S
Mg210 O223 2.010 . S
O211 Mg210 2.028 . S
O211 C214 1.250 . S
O212 Mg213 2.028 . S
O212 C214 1.248 . S
Mg213 O212 2.028 . S
Mg213 O218 2.032 . S
Mg213 O220 2.079 . S
C214 O211 1.250 . S
C214 O212 1.248 . S
C215 O216 1.264 . S
C215 O223 1.249 . S
O216 C215 1.264 . S
O217 Mg210 1.986 . S
O217 C221 1.246 . S
O218 Mg213 2.032 . S
O218 C221 1.259 . S
O219 Mg210 2.114 . S
O219 C222 1.252 . S
O220 Mg210 2.251 . S
O220 Mg213 2.079 . S
O220 C222 1.273 . S
C221 O217 1.246 . S
C221 O218 1.259 . S
C222 O219 1.252 . S
C222 O220 1.273 . S
O223 Mg210 2.010 . S
O223 C215 1.249 . S
H224 C230 0.930 . S
H225 C233 0.930 . S
H226 C234 0.930 . S
H227 C235 0.930 . S
H228 C238 0.930 . S
H229 C239 0.930 . S
C230 H224 0.930 . S
C230 C231 1.355 1_556 S
C230 C232 1.415 . S
C231 C230 1.355 1_554 S
C231 C233 1.419 . S
C232 C230 1.415 . S
C232 C237 1.425 1_556 S
C232 C239 1.409 . S
C233 H225 0.930 . S
C233 C231 1.419 . S
C233 C234 1.362 . S
C234 H226 0.930 . S
C234 C233 1.362 . S
C234 C237 1.409 . S
C235 H227 0.930 . S
C235 C236 1.351 1_554 S
C235 C237 1.415 . S
C236 C235 1.351 1_556 S
C236 C238 1.424 . S
C237 C232 1.425 1_554 S
C237 C234 1.409 . S
C237 C235 1.415 . S
C238 H228 0.930 . S
C238 C236 1.424 . S
C238 C239 1.362 . S
C239 H229 0.930 . S
C239 C232 1.409 . S
C239 C238 1.362 . S
H240 C246 0.930 . S
H241 C249 0.930 . S
H242 C250 0.930 . S
H243 C251 0.930 . S
H244 C254 0.930 . S
H245 C255 0.930 . S
C246 H240 0.930 . S
C246 C247 1.355 . S
C246 C248 1.415 . S
C247 C246 1.355 . S
C247 C249 1.419 1_554 S
C248 C246 1.415 . S
C248 C253 1.425 1_554 S
C248 C255 1.409 . S
C249 H241 0.930 . S
C249 C247 1.419 1_556 S
C249 C250 1.362 . S
C250 H242 0.930 . S
C250 C249 1.362 . S
C250 C253 1.409 . S
C251 H243 0.930 . S
C251 C252 1.355 1_556 S
C251 C253 1.415 . S
C252 C251 1.355 1_554 S
C252 C254 1.419 . S
C253 C248 1.425 1_556 S
C253 C250 1.409 . S
C253 C251 1.415 . S
C254 H244 0.930 . S
C254 C252 1.419 . S
C254 C255 1.362 . S
C255 H245 0.930 . S
C255 C248 1.409 . S
C255 C254 1.362 . S
H256 C262 0.930 . S
H257 C265 0.930 . S
H258 C266 0.930 . S
H259 C267 0.930 . S
H260 C270 0.930 . S
H261 C271 0.930 . S
C262 H256 0.930 . S
C262 C263 1.355 . S
C262 C264 1.415 . S
C263 C262 1.355 . S
C263 C265 1.419 1_554 S
C264 C262 1.415 . S
C264 C269 1.425 1_554 S
C264 C271 1.409 . S
C265 H257 0.930 . S
C265 C263 1.419 1_556 S
C265 C266 1.362 . S
C266 H258 0.930 . S
C266 C265 1.362 . S
C266 C269 1.409 . S
C267 H259 0.930 . S
C267 C268 1.355 1_556 S
C267 C269 1.415 . S
C268 C267 1.355 1_554 S
C268 C270 1.419 . S
C269 C264 1.425 1_556 S
C269 C266 1.409 . S
C269 C267 1.415 . S
C270 H260 0.930 . S
C270 C268 1.419 . S
C270 C271 1.362 . S
C271 H261 0.930 . S
C271 C264 1.409 . S
C271 C270 1.362 . S
H272 C278 0.930 . S
H273 C281 0.930 . S
H274 C282 0.930 . S
H275 C283 0.930 . S
H276 C286 0.930 . S
H277 C287 0.930 . S
C278 H272 0.930 . S
C278 C279 1.355 . S
C278 C280 1.415 . S
C279 C278 1.355 . S
C279 C281 1.419 1_554 S
C280 C278 1.415 . S
C280 C285 1.425 1_554 S
C280 C287 1.409 . S
C281 H273 0.930 . S
C281 C279 1.419 1_556 S
C281 C282 1.362 . S
C282 H274 0.930 . S
C282 C281 1.362 . S
C282 C285 1.409 . S
C283 H275 0.930 . S
C283 C284 1.355 1_556 S
C283 C285 1.415 . S
C284 C283 1.355 1_554 S
C284 C286 1.419 . S
C285 C280 1.425 1_556 S
C285 C282 1.409 . S
C285 C283 1.415 . S
C286 H276 0.930 . S
C286 C284 1.419 . S
C286 C287 1.362 . S
C287 H277 0.930 . S
C287 C280 1.409 . S
C287 C286 1.362 . S
H288 C294 0.930 . S
H289 C297 0.930 . S
H290 C298 0.930 . S
H291 C299 0.930 . S
H292 C302 0.930 . S
H293 C303 0.930 . S
C294 H288 0.930 . S
C294 C295 1.355 . S
C294 C296 1.415 . S
C295 C294 1.355 . S
C295 C297 1.419 . S
C296 C294 1.415 . S
C296 C301 1.425 1_545 S
C296 C303 1.409 1_545 S
C297 H289 0.930 . S
C297 C295 1.419 . S
C297 C298 1.362 . S
C298 H290 0.930 . S
C298 C297 1.362 . S
C298 C301 1.409 1_545 S
C299 H291 0.930 . S
C299 C300 1.355 . S
C299 C301 1.415 . S
C300 C299 1.355 . S
C300 C302 1.419 . S
C301 C296 1.425 1_565 S
C301 C298 1.409 1_565 S
C301 C299 1.415 . S
C302 H292 0.930 . S
C302 C300 1.419 . S
C302 C303 1.362 . S
C303 H293 0.930 . S
C303 C296 1.409 1_565 S
C303 C302 1.362 . S
H304 C310 0.930 . S
H305 C313 0.930 . S
H306 C314 0.930 . S
H307 C315 0.930 . S
H308 C318 0.930 . S
H309 C319 0.930 . S
C310 H304 0.930 . S
C310 C311 1.355 . S
C310 C312 1.415 . S
C311 C310 1.355 . S
C311 C313 1.419 . S
C312 C310 1.415 . S
C312 C317 1.425 1_655 S
C312 C319 1.409 1_655 S
C313 H305 0.930 . S
C313 C311 1.419 . S
C313 C314 1.362 . S
C314 H306 0.930 . S
C314 C313 1.362 . S
C314 C317 1.409 1_655 S
C315 H307 0.930 . S
C315 C316 1.355 . S
C315 C317 1.415 . S
C316 C315 1.355 . S
C316 C318 1.419 . S
C317 C312 1.425 1_455 S
C317 C314 1.409 1_455 S
C317 C315 1.415 . S
C318 H308 0.930 . S
C318 C316 1.419 . S
C318 C319 1.362 . S
C319 H309 0.930 . S
C319 C312 1.409 1_455 S
C319 C318 1.362 . S
H320 C326 0.930 . S
H321 C329 0.930 . S
H322 C330 0.930 . S
H323 C331 0.930 . S
H324 C334 0.930 . S
H325 C335 0.930 . S
C326 H320 0.930 . S
C326 C327 1.355 . S
C326 C328 1.415 . S
C327 C326 1.355 . S
C327 C329 1.419 . S
C328 C326 1.415 . S
C328 C333 1.425 1_545 S
C328 C335 1.409 1_545 S
C329 H321 0.930 . S
C329 C327 1.419 . S
C329 C330 1.362 . S
C330 H322 0.930 . S
C330 C329 1.362 . S
C330 C333 1.409 1_545 S
C331 H323 0.930 . S
C331 C332 1.355 . S
C331 C333 1.415 . S
C332 C331 1.355 . S
C332 C334 1.419 . S
C333 C328 1.425 1_565 S
C333 C330 1.409 1_565 S
C333 C331 1.415 . S
C334 H324 0.930 . S
C334 C332 1.419 . S
C334 C335 1.362 . S
C335 H325 0.930 . S
C335 C328 1.409 1_565 S
C335 C334 1.362 . S
H336 C342 0.930 . S
H337 C345 0.930 . S
H338 C346 0.930 . S
H339 C347 0.930 . S
H340 C350 0.930 . S
H341 C351 0.930 . S
C342 H336 0.930 . S
C342 C343 1.355 . S
C342 C344 1.415 . S
C343 C342 1.355 . S
C343 C345 1.419 . S
C344 C342 1.415 . S
C344 C349 1.425 1_455 S
C344 C351 1.409 1_455 S
C345 H337 0.930 . S
C345 C343 1.419 . S
C345 C346 1.362 . S
C346 H338 0.930 . S
C346 C345 1.362 . S
C346 C349 1.409 1_455 S
C347 H339 0.930 . S
C347 C348 1.355 . S
C347 C349 1.415 . S
C348 C347 1.355 . S
C348 C350 1.419 . S
C349 C344 1.425 1_655 S
C349 C346 1.409 1_655 S
C349 C347 1.415 . S
C350 H340 0.930 . S
C350 C348 1.419 . S
C350 C351 1.362 . S
C351 H341 0.930 . S
C351 C344 1.409 1_655 S
C351 C350 1.362 . S
H352 C358 0.930 . S
H353 C361 0.930 . S
H354 C362 0.930 . S
H355 C363 0.930 . S
H356 C366 0.930 . S
H357 C367 0.930 . S
C358 H352 0.930 . S
C358 C359 1.355 1_556 S
C358 C360 1.415 . S
C359 C358 1.355 1_554 S
C359 C361 1.419 . S
C360 C358 1.415 . S
C360 C365 1.425 1_556 S
C360 C367 1.409 . S
C361 H353 0.930 . S
C361 C359 1.419 . S
C361 C362 1.362 . S
C362 H354 0.930 . S
C362 C361 1.362 . S
C362 C365 1.409 . S
C363 H355 0.930 . S
C363 C364 1.355 . S
C363 C365 1.415 . S
C364 C363 1.355 . S
C364 C366 1.419 1_554 S
C365 C360 1.425 1_554 S
C365 C362 1.409 . S
C365 C363 1.415 . S
C366 H356 0.930 . S
C366 C364 1.419 1_556 S
C366 C367 1.362 . S
C367 H357 0.930 . S
C367 C360 1.409 . S
C367 C366 1.362 . S
H368 C374 0.930 1_556 S
H369 C377 0.930 . S
H370 C378 0.930 . S
H371 C379 0.930 . S
H372 C382 0.930 . S
H373 C383 0.930 . S
C374 H368 0.930 1_554 S
C374 C375 1.355 . S
C374 C376 1.415 . S
C375 C374 1.355 . S
C375 C377 1.419 . S
C376 C374 1.415 . S
C376 C381 1.425 . S
C376 C383 1.409 1_554 S
C377 H369 0.930 . S
C377 C375 1.419 . S
C377 C378 1.362 . S
C378 H370 0.930 . S
C378 C377 1.362 . S
C378 C381 1.409 . S
C379 H371 0.930 . S
C379 C380 1.355 . S
C379 C381 1.415 . S
C380 C379 1.355 . S
C380 C382 1.419 1_554 S
C381 C376 1.425 . S
C381 C378 1.409 . S
C381 C379 1.415 . S
C382 H372 0.930 . S
C382 C380 1.419 1_556 S
C382 C383 1.362 . S
C383 H373 0.930 . S
C383 C376 1.409 1_556 S
C383 C382 1.362 . S
H384 C390 0.930 . S
H385 C393 0.930 . S
H386 C394 0.930 . S
H387 C395 0.930 . S
H388 C398 0.930 . S
H389 C399 0.930 . S
C390 H384 0.930 . S
C390 C391 1.355 1_556 S
C390 C392 1.415 . S
C391 C390 1.355 1_554 S
C391 C393 1.419 . S
C392 C390 1.415 . S
C392 C397 1.425 1_556 S
C392 C399 1.409 . S
C393 H385 0.930 . S
C393 C391 1.419 . S
C393 C394 1.362 . S
C394 H386 0.930 . S
C394 C393 1.362 . S
C394 C397 1.409 . S
C395 H387 0.930 . S
C395 C396 1.355 . S
C395 C397 1.415 . S
C396 C395 1.355 . S
C396 C398 1.419 1_554 S
C397 C392 1.425 1_554 S
C397 C394 1.409 . S
C397 C395 1.415 . S
C398 H388 0.930 . S
C398 C396 1.419 1_556 S
C398 C399 1.362 . S
C399 H389 0.930 . S
C399 C392 1.409 . S
C399 C398 1.362 . S
H400 C406 0.930 . S
H401 C409 0.930 . S
H402 C410 0.930 . S
H403 C411 0.930 . S
H404 C414 0.930 . S
H405 C415 0.930 . S
C406 H400 0.930 . S
C406 C407 1.355 1_556 S
C406 C408 1.415 . S
C407 C406 1.355 1_554 S
C407 C409 1.419 . S
C408 C406 1.415 . S
C408 C413 1.425 1_556 S
C408 C415 1.409 . S
C409 H401 0.930 . S
C409 C407 1.419 . S
C409 C410 1.362 . S
C410 H402 0.930 . S
C410 C409 1.362 . S
C410 C413 1.409 . S
C411 H403 0.930 . S
C411 C412 1.355 . S
C411 C413 1.415 . S
C412 C411 1.355 . S
C412 C414 1.419 1_554 S
C413 C408 1.425 1_554 S
C413 C410 1.409 . S
C413 C411 1.415 . S
C414 H404 0.930 . S
C414 C412 1.419 1_556 S
C414 C415 1.362 . S
C415 H405 0.930 . S
C415 C408 1.409 . S
C415 C414 1.362 . S
H416 C422 0.930 . S
H417 C425 0.930 . S
H418 C426 0.930 . S
H419 C427 0.930 . S
H420 C430 0.930 . S
H421 C431 0.930 . S
C422 H416 0.930 . S
C422 C423 1.355 . S
C422 C424 1.415 . S
C423 C422 1.355 . S
C423 C425 1.419 . S
C424 C422 1.415 . S
C424 C429 1.425 . S
C424 C431 1.409 . S
C425 H417 0.930 . S
C425 C423 1.419 . S
C425 C426 1.362 . S
C426 H418 0.930 . S
C426 C425 1.362 . S
C426 C429 1.409 . S
C427 H419 0.930 . S
C427 C428 1.355 . S
C427 C429 1.415 . S
C428 C427 1.355 . S
C428 C430 1.419 . S
C429 C424 1.425 . S
C429 C426 1.409 . S
C429 C427 1.415 . S
C430 H420 0.930 . S
C430 C428 1.419 . S
C430 C431 1.362 . S
C431 H421 0.930 . S
C431 C424 1.409 . S
C431 C430 1.362 . S
H432 C438 0.930 . S
H433 C441 0.930 . S
H434 C442 0.930 . S
H435 C443 0.930 . S
H436 C446 0.930 . S
H437 C447 0.930 . S
C438 H432 0.930 . S
C438 C439 1.355 . S
C438 C440 1.415 . S
C439 C438 1.355 . S
C439 C441 1.419 . S
C440 C438 1.415 . S
C440 C445 1.425 . S
C440 C447 1.409 . S
C441 H433 0.930 . S
C441 C439 1.419 . S
C441 C442 1.362 . S
C442 H434 0.930 . S
C442 C441 1.362 . S
C442 C445 1.409 . S
C443 H435 0.930 . S
C443 C444 1.355 . S
C443 C445 1.415 . S
C444 C443 1.355 . S
C444 C446 1.419 . S
C445 C440 1.425 . S
C445 C442 1.409 . S
C445 C443 1.415 . S
C446 H436 0.930 . S
C446 C444 1.419 . S
C446 C447 1.362 . S
C447 H437 0.930 . S
C447 C440 1.409 . S
C447 C446 1.362 . S
H448 C454 0.930 . S
H449 C457 0.930 . S
H450 C458 0.930 . S
H451 C459 0.930 . S
H452 C462 0.930 . S
H453 C463 0.930 . S
C454 H448 0.930 . S
C454 C455 1.355 . S
C454 C456 1.415 . S
C455 C454 1.355 . S
C455 C457 1.419 . S
C456 C454 1.415 . S
C456 C461 1.425 . S
C456 C463 1.409 . S
C457 H449 0.930 . S
C457 C455 1.419 . S
C457 C458 1.362 . S
C458 H450 0.930 . S
C458 C457 1.362 . S
C458 C461 1.409 . S
C459 H451 0.930 . S
C459 C460 1.355 . S
C459 C461 1.415 . S
C460 C459 1.355 . S
C460 C462 1.419 . S
C461 C456 1.425 . S
C461 C458 1.409 . S
C461 C459 1.415 . S
C462 H452 0.930 . S
C462 C460 1.419 . S
C462 C463 1.362 . S
C463 H453 0.930 . S
C463 C456 1.409 . S
C463 C462 1.362 . S
H464 C470 0.930 . S
H465 C473 0.930 . S
H466 C474 0.930 . S
H467 C475 0.930 . S
H468 C478 0.930 . S
H469 C479 0.930 . S
C470 H464 0.930 . S
C470 C471 1.355 . S
C470 C472 1.415 . S
C471 C470 1.355 . S
C471 C473 1.419 . S
C472 C470 1.415 . S
C472 C477 1.425 . S
C472 C479 1.409 . S
C473 H465 0.930 . S
C473 C471 1.419 . S
C473 C474 1.362 . S
C474 H466 0.930 . S
C474 C473 1.362 . S
C474 C477 1.409 . S
C475 H467 0.930 . S
C475 C476 1.355 . S
C475 C477 1.415 . S
C476 C475 1.355 . S
C476 C478 1.419 . S
C477 C472 1.425 . S
C477 C474 1.409 . S
C477 C475 1.415 . S
C478 H468 0.930 . S
C478 C476 1.419 . S
C478 C479 1.362 . S
C479 H469 0.930 . S
C479 C472 1.409 . S
C479 C478 1.362 . S
H480 C486 0.930 . S
H481 C489 0.930 . S
H482 C490 0.930 . S
H483 C491 0.930 . S
H484 C494 0.930 . S
H485 C495 0.930 . S
C486 H480 0.930 . S
C486 C487 1.355 . S
C486 C488 1.415 . S
C487 C486 1.355 . S
C487 C489 1.419 . S
C488 C486 1.415 . S
C488 C493 1.425 . S
C488 C495 1.409 . S
C489 H481 0.930 . S
C489 C487 1.419 . S
C489 C490 1.362 . S
C490 H482 0.930 . S
C490 C489 1.362 . S
C490 C493 1.409 . S
C491 H483 0.930 . S
C491 C492 1.355 . S
C491 C493 1.415 . S
C492 C491 1.355 . S
C492 C494 1.419 . S
C493 C488 1.425 . S
C493 C490 1.409 . S
C493 C491 1.415 . S
C494 H484 0.930 . S
C494 C492 1.419 . S
C494 C495 1.362 . S
C495 H485 0.930 . S
C495 C488 1.409 . S
C495 C494 1.362 . S
H496 C502 0.930 . S
H497 C505 0.930 . S
H498 C506 0.930 . S
H499 C507 0.930 . S
H500 C510 0.930 . S
H501 C511 0.930 . S
C502 H496 0.930 . S
C502 C503 1.355 . S
C502 C504 1.415 . S
C503 C502 1.355 . S
C503 C505 1.419 . S
C504 C502 1.415 . S
C504 C509 1.425 . S
C504 C511 1.409 . S
C505 H497 0.930 . S
C505 C503 1.419 . S
C505 C506 1.362 . S
C506 H498 0.930 . S
C506 C505 1.362 . S
C506 C509 1.409 . S
C507 H499 0.930 . S
C507 C508 1.355 . S
C507 C509 1.415 . S
C508 C507 1.355 . S
C508 C510 1.419 . S
C509 C504 1.425 . S
C509 C506 1.409 . S
C509 C507 1.415 . S
C510 H500 0.930 . S
C510 C508 1.419 . S
C510 C511 1.362 . S
C511 H501 0.930 . S
C511 C504 1.409 . S
C511 C510 1.362 . S
H512 C518 0.930 . S
H513 C521 0.930 . S
H514 C522 0.930 . S
H515 C523 0.930 . S
H516 C526 0.930 . S
H517 C527 0.930 . S
C518 H512 0.930 . S
C518 C519 1.355 . S
C518 C520 1.415 . S
C519 C518 1.355 . S
C519 C521 1.419 . S
C520 C518 1.415 . S
C520 C525 1.425 . S
C520 C527 1.409 . S
C521 H513 0.930 . S
C521 C519 1.419 . S
C521 C522 1.362 . S
C522 H514 0.930 . S
C522 C521 1.362 . S
C522 C525 1.409 . S
C523 H515 0.930 . S
C523 C524 1.355 . S
C523 C525 1.415 . S
C524 C523 1.355 . S
C524 C526 1.419 . S
C525 C520 1.425 . S
C525 C522 1.409 . S
C525 C523 1.415 . S
C526 H516 0.930 . S
C526 C524 1.419 . S
C526 C527 1.362 . S
C527 H517 0.930 . S
C527 C520 1.409 . S
C527 C526 1.362 . S
H528 C534 0.930 . S
H529 C537 0.930 . S
H530 C538 0.930 . S
H531 C539 0.930 . S
H532 C542 0.930 . S
H533 C543 0.930 . S
C534 H528 0.930 . S
C534 C535 1.355 . S
C534 C536 1.415 . S
C535 C534 1.355 . S
C535 C537 1.419 . S
C536 C534 1.415 . S
C536 C541 1.425 . S
C536 C543 1.409 . S
C537 H529 0.930 . S
C537 C535 1.419 . S
C537 C538 1.362 . S
C538 H530 0.930 . S
C538 C537 1.362 . S
C538 C541 1.409 . S
C539 H531 0.930 . S
C539 C540 1.355 . S
C539 C541 1.415 . S
C540 C539 1.355 . S
C540 C542 1.419 . S
C541 C536 1.425 . S
C541 C538 1.409 . S
C541 C539 1.415 . S
C542 H532 0.930 . S
C542 C540 1.419 . S
C542 C543 1.362 . S
C543 H533 0.930 . S
C543 C536 1.409 . S
C543 C542 1.362 . S
H544 C550 0.930 . S
H545 C553 0.930 . S
H546 C554 0.930 . S
H547 C555 0.930 . S
H548 C558 0.930 . S
H549 C559 0.930 . S
C550 H544 0.930 . S
C550 C551 1.355 . S
C550 C552 1.415 . S
C551 C550 1.355 . S
C551 C553 1.419 . S
C552 C550 1.415 . S
C552 C557 1.425 . S
C552 C559 1.409 . S
C553 H545 0.930 . S
C553 C551 1.419 . S
C553 C554 1.362 . S
C554 H546 0.930 . S
C554 C553 1.362 . S
C554 C557 1.409 . S
C555 H547 0.930 . S
C555 C556 1.355 . S
C555 C557 1.415 . S
C556 C555 1.355 . S
C556 C558 1.419 . S
C557 C552 1.425 . S
C557 C554 1.409 . S
C557 C555 1.415 . S
C558 H548 0.930 . S
C558 C556 1.419 . S
C558 C559 1.362 . S
C559 H549 0.930 . S
C559 C552 1.409 . S
C559 C558 1.362 . S
H560 C566 0.930 . S
H561 C569 0.930 . S
H562 C570 0.930 . S
H563 C571 0.930 . S
H564 C574 0.930 . S
H565 C575 0.930 . S
C566 H560 0.930 . S
C566 C567 1.355 . S
C566 C568 1.415 . S
C567 C566 1.355 . S
C567 C569 1.419 . S
C568 C566 1.415 . S
C568 C573 1.425 . S
C568 C575 1.409 . S
C569 H561 0.930 . S
C569 C567 1.419 . S
C569 C570 1.362 . S
C570 H562 0.930 . S
C570 C569 1.362 . S
C570 C573 1.409 . S
C571 H563 0.930 . S
C571 C572 1.355 . S
C571 C573 1.415 . S
C572 C571 1.355 . S
C572 C574 1.419 . S
C573 C568 1.425 . S
C573 C570 1.409 . S
C573 C571 1.415 . S
C574 H564 0.930 . S
C574 C572 1.419 . S
C574 C575 1.362 . S
C575 H565 0.930 . S
C575 C568 1.409 . S
C575 C574 1.362 . S
H576 C582 0.930 . S
H577 C585 0.930 . S
H578 C586 0.930 . S
H579 C587 0.930 . S
H580 C590 0.930 . S
H581 C591 0.930 . S
C582 H576 0.930 . S
C582 C583 1.355 . S
C582 C584 1.415 . S
C583 C582 1.355 . S
C583 C585 1.419 . S
C584 C582 1.415 . S
C584 C589 1.425 . S
C584 C591 1.409 . S
C585 H577 0.930 . S
C585 C583 1.419 . S
C585 C586 1.362 . S
C586 H578 0.930 . S
C586 C585 1.362 . S
C586 C589 1.409 . S
C587 H579 0.930 . S
C587 C588 1.355 . S
C587 C589 1.415 . S
C588 C587 1.355 . S
C588 C590 1.419 . S
C589 C584 1.425 . S
C589 C586 1.409 . S
C589 C587 1.415 . S
C590 H580 0.930 . S
C590 C588 1.419 . S
C590 C591 1.362 . S
C591 H581 0.930 . S
C591 C584 1.409 . S
C591 C590 1.362 . S
H592 C598 0.930 . S
H593 C601 0.930 . S
H594 C602 0.930 . S
H595 C603 0.930 . S
H596 C606 0.930 . S
H597 C607 0.930 . S
C598 H592 0.930 . S
C598 C599 1.355 . S
C598 C600 1.415 . S
C599 C598 1.355 . S
C599 C601 1.419 . S
C600 C598 1.415 . S
C600 C605 1.425 . S
C600 C607 1.409 . S
C601 H593 0.930 . S
C601 C599 1.419 . S
C601 C602 1.362 . S
C602 H594 0.930 . S
C602 C601 1.362 . S
C602 C605 1.409 . S
C603 H595 0.930 . S
C603 C604 1.355 . S
C603 C605 1.415 . S
C604 C603 1.355 . S
C604 C606 1.419 . S
C605 C600 1.425 . S
C605 C602 1.409 . S
C605 C603 1.415 . S
C606 H596 0.930 . S
C606 C604 1.419 . S
C606 C607 1.362 . S
C607 H597 0.930 . S
C607 C600 1.409 . S
C607 C606 1.362 . S
H608 C614 0.930 . S
H609 C617 0.930 . S
H610 C618 0.930 . S
H611 C619 0.930 . S
H612 C622 0.930 . S
H613 C623 0.930 . S
C614 H608 0.930 . S
C614 C615 1.355 . S
C614 C616 1.415 . S
C615 C614 1.355 . S
C615 C617 1.419 . S
C616 C614 1.415 . S
C616 C621 1.425 . S
C616 C623 1.409 . S
C617 H609 0.930 . S
C617 C615 1.419 . S
C617 C618 1.362 . S
C618 H610 0.930 . S
C618 C617 1.362 . S
C618 C621 1.409 . S
C619 H611 0.930 . S
C619 C620 1.355 . S
C619 C621 1.415 . S
C620 C619 1.355 . S
C620 C622 1.419 . S
C621 C616 1.425 . S
C621 C618 1.409 . S
C621 C619 1.415 . S
C622 H612 0.930 . S
C622 C620 1.419 . S
C622 C623 1.362 . S
C623 H613 0.930 . S
C623 C616 1.409 . S
C623 C622 1.362 . S
H624 C630 0.930 . S
H625 C633 0.930 . S
H626 C634 0.930 . S
H627 C635 0.930 . S
H628 C638 0.930 . S
H629 C639 0.930 . S
C630 H624 0.930 . S
C630 C631 1.355 . S
C630 C632 1.415 . S
C631 C630 1.355 . S
C631 C633 1.419 . S
C632 C630 1.415 . S
C632 C637 1.425 . S
C632 C639 1.409 . S
C633 H625 0.930 . S
C633 C631 1.419 . S
C633 C634 1.362 . S
C634 H626 0.930 . S
C634 C633 1.362 . S
C634 C637 1.409 . S
C635 H627 0.930 . S
C635 C636 1.355 . S
C635 C637 1.415 . S
C636 C635 1.355 . S
C636 C638 1.419 . S
C637 C632 1.425 . S
C637 C634 1.409 . S
C637 C635 1.415 . S
C638 H628 0.930 . S
C638 C636 1.419 . S
C638 C639 1.362 . S
C639 H629 0.930 . S
C639 C632 1.409 . S
C639 C638 1.362 . S
H640 C646 0.930 . S
H641 C649 0.930 . S
H642 C650 0.930 . S
H643 C651 0.930 . S
H644 C654 0.930 . S
H645 C655 0.930 . S
C646 H640 0.930 . S
C646 C647 1.355 . S
C646 C648 1.415 . S
C647 C646 1.355 . S
C647 C649 1.419 . S
C648 C646 1.415 . S
C648 C653 1.425 . S
C648 C655 1.409 . S
C649 H641 0.930 . S
C649 C647 1.419 . S
C649 C650 1.362 . S
C650 H642 0.930 . S
C650 C649 1.362 . S
C650 C653 1.409 . S
C651 H643 0.930 . S
C651 C652 1.355 . S
C651 C653 1.415 . S
C652 C651 1.355 . S
C652 C654 1.419 . S
C653 C648 1.425 . S
C653 C650 1.409 . S
C653 C651 1.415 . S
C654 H644 0.930 . S
C654 C652 1.419 . S
C654 C655 1.362 . S
C655 H645 0.930 . S
C655 C648 1.409 . S
C655 C654 1.362 . S
H656 C662 0.930 . S
H657 C665 0.930 . S
H658 C666 0.930 . S
H659 C667 0.930 . S
H660 C670 0.930 . S
H661 C671 0.930 . S
C662 H656 0.930 . S
C662 C663 1.355 . S
C662 C664 1.415 . S
C663 C662 1.355 . S
C663 C665 1.419 . S
C664 C662 1.415 . S
C664 C669 1.425 . S
C664 C671 1.409 . S
C665 H657 0.930 . S
C665 C663 1.419 . S
C665 C666 1.362 . S
C666 H658 0.930 . S
C666 C665 1.362 . S
C666 C669 1.409 . S
C667 H659 0.930 . S
C667 C668 1.355 . S
C667 C669 1.415 . S
C668 C667 1.355 . S
C668 C670 1.419 . S
C669 C664 1.425 . S
C669 C666 1.409 . S
C669 C667 1.415 . S
C670 H660 0.930 . S
C670 C668 1.419 . S
C670 C671 1.362 . S
C671 H661 0.930 . S
C671 C664 1.409 . S
C671 C670 1.362 . S
H672 C678 0.930 . S
H673 C681 0.930 . S
H674 C682 0.930 . S
H675 C683 0.930 . S
H676 C686 0.930 . S
H677 C687 0.930 . S
C678 H672 0.930 . S
C678 C679 1.355 . S
C678 C680 1.415 . S
C679 C678 1.355 . S
C679 C681 1.419 . S
C680 C678 1.415 . S
C680 C685 1.425 . S
C680 C687 1.409 . S
C681 H673 0.930 . S
C681 C679 1.419 . S
C681 C682 1.362 . S
C682 H674 0.930 . S
C682 C681 1.362 . S
C682 C685 1.409 . S
C683 H675 0.930 . S
C683 C684 1.355 . S
C683 C685 1.415 . S
C684 C683 1.355 . S
C684 C686 1.419 . S
C685 C680 1.425 . S
C685 C682 1.409 . S
C685 C683 1.415 . S
C686 H676 0.930 . S
C686 C684 1.419 . S
C686 C687 1.362 . S
C687 H677 0.930 . S
C687 C680 1.409 . S
C687 C686 1.362 . S
H688 C694 0.930 . S
H689 C697 0.930 . S
H690 C698 0.930 . S
H691 C699 0.930 . S
H692 C702 0.930 . S
H693 C703 0.930 . S
C694 H688 0.930 . S
C694 C695 1.355 . S
C694 C696 1.415 . S
C695 C694 1.355 . S
C695 C697 1.419 . S
C696 C694 1.415 . S
C696 C701 1.425 . S
C696 C703 1.409 . S
C697 H689 0.930 . S
C697 C695 1.419 . S
C697 C698 1.362 . S
C698 H690 0.930 . S
C698 C697 1.362 . S
C698 C701 1.409 . S
C699 H691 0.930 . S
C699 C700 1.355 . S
C699 C701 1.415 . S
C700 C699 1.355 . S
C700 C702 1.419 . S
C701 C696 1.425 . S
C701 C698 1.409 . S
C701 C699 1.415 . S
C702 H692 0.930 . S
C702 C700 1.419 . S
C702 C703 1.362 . S
C703 H693 0.930 . S
C703 C696 1.409 . S
C703 C702 1.362 . S
H704 C710 0.930 . S
H705 C713 0.930 . S
H706 C714 0.930 . S
H707 C715 0.930 . S
H708 C718 0.930 . S
H709 C719 0.930 . S
C710 H704 0.930 . S
C710 C711 1.355 . S
C710 C712 1.415 . S
C711 C710 1.355 . S
C711 C713 1.419 . S
C712 C710 1.415 . S
C712 C717 1.425 . S
C712 C719 1.409 . S
C713 H705 0.930 . S
C713 C711 1.419 . S
C713 C714 1.362 . S
C714 H706 0.930 . S
C714 C713 1.362 . S
C714 C717 1.409 . S
C715 H707 0.930 . S
C715 C716 1.355 . S
C715 C717 1.415 . S
C716 C715 1.355 . S
C716 C718 1.419 . S
C717 C712 1.425 . S
C717 C714 1.409 . S
C717 C715 1.415 . S
C718 H708 0.930 . S
C718 C716 1.419 . S
C718 C719 1.362 . S
C719 H709 0.930 . S
C719 C712 1.409 . S
C719 C718 1.362 . S
H720 C726 0.930 . S
H721 C729 0.930 . S
H722 C730 0.930 . S
H723 C731 0.930 . S
H724 C734 0.930 . S
H725 C735 0.930 . S
C726 H720 0.930 . S
C726 C727 1.355 . S
C726 C728 1.415 . S
C727 C726 1.355 . S
C727 C729 1.419 . S
C728 C726 1.415 . S
C728 C733 1.425 . S
C728 C735 1.409 . S
C729 H721 0.930 . S
C729 C727 1.419 . S
C729 C730 1.362 . S
C730 H722 0.930 . S
C730 C729 1.362 . S
C730 C733 1.409 . S
C731 H723 0.930 . S
C731 C732 1.355 . S
C731 C733 1.415 . S
C732 C731 1.355 . S
C732 C734 1.419 . S
C733 C728 1.425 . S
C733 C730 1.409 . S
C733 C731 1.415 . S
C734 H724 0.930 . S
C734 C732 1.419 . S
C734 C735 1.362 . S
C735 H725 0.930 . S
C735 C728 1.409 . S
C735 C734 1.362 . S
C231 C67 1.236 . S
C236 C11 1.234 . S
C247 C81 1.254 . S
C252 C25 1.252 1_554 S
C263 C95 1.255 . S
C268 C39 1.257 1_554 S
C279 C109 1.257 . S
C284 C53 1.258 1_554 S
C295 C179 1.235 . S
C300 C123 1.232 . S
C311 C193 1.226 . S
C316 C137 1.225 . S
C327 C151 1.237 . S
C332 C207 1.240 . S
C343 C221 1.236 . S
C348 C165 1.233 . S
C359 C4 1.186 1_554 S
C364 C74 1.181 . S
C375 C88 1.167 . S
C380 C18 1.155 1_554 S
C391 C32 1.185 1_554 S
C396 C102 1.187 . S
C407 C60 1.156 . S
C412 C46 1.144 1_554 S
C423 C186 1.139 . S
C428 C116 1.129 . S
C439 C200 1.182 . S
C444 C130 1.187 . S
C455 C144 1.146 . S
C460 C214 1.159 . S
C471 C158 1.144 . S
C476 C172 1.157 . S
C487 C215 1.145 . S
C492 C5 1.274 . S
C503 C173 1.253 . S
C508 C19 1.193 . S
C519 C187 1.252 . S
C524 C33 1.128 . S
C535 C201 1.142 . S
C540 C47 1.274 . S
C551 C131 1.127 . S
C556 C61 1.262 . S
C567 C145 1.132 . S
C572 C75 1.240 . S
C583 C89 1.234 . S
C588 C159 1.217 . S
C599 C103 1.146 . S
C604 C117 1.274 . S
C615 C194 1.666 . S
C620 C40 1.663 . S
C631 C208 1.665 . S
C636 C54 1.664 . S
C647 C222 1.653 . S
C652 C12 1.664 . S
C663 C26 1.656 . S
C668 C180 1.667 . S
C679 C166 1.653 . S
C684 C96 1.660 . S
C695 C110 1.667 . S
C700 C124 1.660 . S
C711 C138 1.661 . S
C716 C68 1.667 . S
C727 C152 1.666 . S
C732 C82 1.663 . S
