# Generated by pormake.
# Topology npo, (4)-cn, num edge types: 1
# Building blocks:
#     Node 0, Type 0, BuildingBlock: QUQFOY_clean_sbu_3, # of connection points: 4
#     Node 1, Type 0, BuildingBlock: QUQFOY_clean_sbu_3, # of connection points: 4
#     Node 2, Type 0, BuildingBlock: QUQFOY_clean_sbu_3, # of connection points: 4
#     Node 3, Type 0, BuildingBlock: QUQFOY_clean_sbu_3, # of connection points: 4
#     Node 4, Type 0, BuildingBlock: QUQFOY_clean_sbu_3, # of connection points: 4
#     Node 5, Type 0, BuildingBlock: QUQFOY_clean_sbu_3, # of connection points: 4
#     Edge 6, Type (0, 0), BuildingBlock: TEMPAE_clean_linker_10, # of connection points: 2
#     Edge 7, Type (0, 0), BuildingBlock: TEMPAE_clean_linker_10, # of connection points: 2
#     Edge 8, Type (0, 0), BuildingBlock: TEMPAE_clean_linker_10, # of connection points: 2
#     Edge 9, Type (0, 0), BuildingBlock: TEMPAE_clean_linker_10, # of connection points: 2
#     Edge 10, Type (0, 0), BuildingBlock: TEMPAE_clean_linker_10, # of connection points: 2
#     Edge 11, Type (0, 0), BuildingBlock: TEMPAE_clean_linker_10, # of connection points: 2
#     Edge 12, Type (0, 0), BuildingBlock: TEMPAE_clean_linker_10, # of connection points: 2
#     Edge 13, Type (0, 0), BuildingBlock: TEMPAE_clean_linker_10, # of connection points: 2
#     Edge 14, Type (0, 0), BuildingBlock: TEMPAE_clean_linker_10, # of connection points: 2
#     Edge 15, Type (0, 0), BuildingBlock: TEMPAE_clean_linker_10, # of connection points: 2
#     Edge 16, Type (0, 0), BuildingBlock: TEMPAE_clean_linker_10, # of connection points: 2
#     Edge 17, Type (0, 0), BuildingBlock: TEMPAE_clean_linker_10, # of connection points: 2
# Relax obj value: 0.289
# Max RMSD: 0.250
# Mean RMSD: 0.240
data_MOF--net-npo--node1-QUQFOY_clean_sbu_3--edge1-TEMPAE_clean_linker_10
_symmetry_space_group_name_H-M    P1
_symmetry_Int_Tables_number       1
_symmetry_cell_setting            triclinic
loop_
_symmetry_equiv_pos_as_xyz
'x, y, z'
_cell_length_a     46.13698
_cell_length_b     45.584762
_cell_length_c     25.629068
_cell_angle_alpha  92.356383
_cell_angle_beta   89.934658
_cell_angle_gamma 120.31074
loop_
_atom_site_label
_atom_site_type_symbol
_atom_site_fract_x
_atom_site_fract_y
_atom_site_fract_z
_atom_type_partial_charge
C0 C 0.49355 0.15582 0.19162 0.0
O1 O 0.49517 0.15047 0.14299 0.0
Cd2 Cd 0.52392 0.12379 0.10718 0.0
O3 O 0.5032 0.14249 0.22537 0.0
Cd4 Cd 0.52179 0.09931 0.22739 0.0
C5 C 0.59565 0.16339 0.18801 0.0
O6 O 0.49729 0.07073 0.14574 0.0
O7 O 0.53396 0.05947 0.17553 0.0
O8 O 0.47737 0.06251 0.28531 0.0
C9 C 0.51281 0.05464 0.13979 0.0
O10 O 0.58096 0.1601 0.14421 0.0
C11 C 0.49704 0.06328 0.32066 0.0
O12 O 0.58008 0.14451 0.2255 0.0
O13 O 0.52836 0.08163 0.31326 0.0
C14 C 0.33857 0.48078 0.66561 0.0
O15 O 0.35425 0.49207 0.62361 0.0
Cd16 Cd 0.41432 0.52278 0.61574 0.0
O17 O 0.3543 0.48655 0.70908 0.0
Cd18 Cd 0.41275 0.51865 0.74232 0.0
C19 C 0.4269 0.59205 0.68917 0.0
O20 O 0.43539 0.4988 0.67544 0.0
O21 O 0.47287 0.53941 0.72517 0.0
O22 O 0.4015 0.48014 0.8126 0.0
C23 C 0.46612 0.51784 0.68762 0.0
O24 O 0.4311 0.5812 0.64485 0.0
C25 C 0.41079 0.5032 0.84882 0.0
O26 O 0.41756 0.57333 0.72834 0.0
O27 O 0.42043 0.53317 0.83518 0.0
C28 C 0.82757 0.48117 0.26486 0.0
O29 O 0.8326 0.47454 0.31052 0.0
Cd30 Cd 0.86453 0.44885 0.33323 0.0
O31 O 0.84012 0.47447 0.22489 0.0
Cd32 Cd 0.87541 0.44879 0.20394 0.0
C33 C 0.81683 0.37509 0.25832 0.0
O34 O 0.91144 0.4751 0.27795 0.0
O35 O 0.92147 0.44 0.23449 0.0
O36 O 0.90359 0.48696 0.13343 0.0
C37 C 0.92889 0.46096 0.27319 0.0
O38 O 0.82545 0.38997 0.30351 0.0
C39 C 0.89502 0.46316 0.09866 0.0
O40 O 0.83054 0.39084 0.21733 0.0
O41 O 0.87678 0.43291 0.11292 0.0
C42 C 0.33318 0.81175 0.75659 0.0
O43 O 0.34284 0.81492 0.80394 0.0
Cd44 Cd 0.39922 0.84626 0.83644 0.0
O45 O 0.35371 0.82832 0.72099 0.0
Cd46 Cd 0.41435 0.87342 0.71604 0.0
C47 C 0.43169 0.81216 0.74718 0.0
O48 O 0.41806 0.89916 0.79998 0.0
O49 O 0.46633 0.91572 0.76658 0.0
O50 O 0.40385 0.90922 0.65968 0.0
C51 C 0.44953 0.9179 0.8042 0.0
O52 O 0.42508 0.81589 0.79448 0.0
C53 C 0.42333 0.90991 0.62403 0.0
O54 O 0.42833 0.82873 0.7112 0.0
O55 O 0.4377 0.89274 0.63059 0.0
C56 C 0.61931 0.4825 0.18415 0.0
O57 O 0.60621 0.47415 0.13846 0.0
Cd58 Cd 0.5486 0.45361 0.11714 0.0
O59 O 0.60177 0.47985 0.22412 0.0
Cd60 Cd 0.54247 0.46073 0.24529 0.0
C61 C 0.5167 0.38198 0.18861 0.0
O62 O 0.53608 0.48857 0.17351 0.0
O63 O 0.49093 0.46064 0.21636 0.0
O64 O 0.56368 0.49991 0.32256 0.0
C65 C 0.50548 0.47941 0.17863 0.0
O66 O 0.52279 0.39483 0.1439 0.0
C67 C 0.54257 0.47817 0.35276 0.0
O68 O 0.52245 0.40045 0.23021 0.0
O69 O 0.52209 0.44891 0.33262 0.0
C70 C 0.13159 0.47702 0.75488 0.0
O71 O 0.12965 0.48599 0.80175 0.0
Cd72 Cd 0.09633 0.50991 0.8308 0.0
O73 O 0.1156 0.48081 0.71774 0.0
Cd74 Cd 0.07779 0.50379 0.70502 0.0
C75 C 0.13481 0.5818 0.76025 0.0
O76 O 0.04546 0.47861 0.78017 0.0
O77 O 0.03062 0.50953 0.73965 0.0
O78 O 0.04763 0.46348 0.63188 0.0
C79 C 0.02611 0.49064 0.7774 0.0
O80 O 0.12996 0.56861 0.80459 0.0
C81 C 0.05627 0.48643 0.59898 0.0
O82 O 0.11969 0.56382 0.71922 0.0
O83 O 0.07472 0.51706 0.61575 0.0
C84 C 0.46134 0.18542 0.18068 0.0
C85 C 0.48617 0.18266 0.20767 0.0
C86 C 0.46022 0.21561 0.18439 0.0
C87 C 0.48539 0.24396 0.21406 0.0
C88 C 0.50882 0.2403 0.24473 0.0
C89 C 0.50856 0.20936 0.24177 0.0
C90 C 0.43397 0.21805 0.15286 0.0
C91 C 0.53651 0.27005 0.27605 0.0
C92 C 0.51741 0.3301 0.15711 0.0
C93 C 0.50578 0.3457 0.19274 0.0
C94 C 0.5107 0.29691 0.16363 0.0
C95 C 0.4909 0.27847 0.20585 0.0
C96 C 0.47771 0.29353 0.24055 0.0
C97 C 0.48587 0.3273 0.23416 0.0
C98 C 0.52587 0.28206 0.12633 0.0
C99 C 0.45551 0.27421 0.28476 0.0
H100 H 0.44397 0.16464 0.15439 0.0
H101 H 0.528 0.2073 0.26213 0.0
H102 H 0.42436 0.23259 0.1753 0.0
H103 H 0.44533 0.23174 0.11688 0.0
H104 H 0.4125 0.1925 0.14118 0.0
H105 H 0.54979 0.26198 0.30291 0.0
H106 H 0.55507 0.28823 0.24895 0.0
H107 H 0.52645 0.28385 0.29927 0.0
H108 H 0.53309 0.34443 0.1254 0.0
H109 H 0.47673 0.33936 0.26159 0.0
H110 H 0.50574 0.25855 0.10616 0.0
H111 H 0.54198 0.27498 0.14832 0.0
H112 H 0.54129 0.30008 0.0963 0.0
H113 H 0.43499 0.24891 0.27002 0.0
H114 H 0.44426 0.28815 0.30451 0.0
H115 H 0.47034 0.26977 0.31413 0.0
C116 C 0.28785 0.48163 0.63692 0.0
C117 C 0.30202 0.46657 0.66621 0.0
C118 C 0.25567 0.47587 0.64761 0.0
C119 C 0.23692 0.45352 0.68714 0.0
C120 C 0.24952 0.43494 0.71199 0.0
C121 C 0.2824 0.44234 0.70218 0.0
C122 C 0.24344 0.49664 0.62075 0.0
C123 C 0.22938 0.40934 0.75196 0.0
C124 C 0.18758 0.48342 0.76822 0.0
C125 C 0.15631 0.46662 0.74228 0.0
C126 C 0.21372 0.47846 0.75153 0.0
C127 C 0.20792 0.45498 0.70921 0.0
C128 C 0.17554 0.43594 0.68551 0.0
C129 C 0.15024 0.44266 0.70147 0.0
C130 C 0.2481 0.50003 0.77707 0.0
C131 C 0.16786 0.40952 0.64204 0.0
H132 H 0.3031 0.50045 0.60918 0.0
H133 H 0.29328 0.43036 0.72434 0.0
H134 H 0.21748 0.48008 0.60517 0.0
H135 H 0.243 0.51531 0.64948 0.0
H136 H 0.25975 0.51076 0.5881 0.0
H137 H 0.239 0.39178 0.7583 0.0
H138 H 0.2309 0.42282 0.78979 0.0
H139 H 0.20251 0.39419 0.73962 0.0
H140 H 0.1923 0.50216 0.7995 0.0
H141 H 0.12589 0.4295 0.68168 0.0
H142 H 0.26644 0.51575 0.74756 0.0
H143 H 0.25688 0.48359 0.7932 0.0
H144 H 0.24832 0.51725 0.80922 0.0
H145 H 0.1754 0.42209 0.60428 0.0
H146 H 0.14057 0.39054 0.63915 0.0
H147 H 0.18188 0.39599 0.64784 0.0
C148 C 0.65231 0.18821 0.23108 0.0
C149 C 0.63053 0.19138 0.19672 0.0
C150 C 0.6849 0.21559 0.24176 0.0
C151 C 0.69533 0.24708 0.21897 0.0
C152 C 0.67346 0.25023 0.18391 0.0
C153 C 0.64151 0.22215 0.17257 0.0
C154 C 0.70796 0.211 0.27795 0.0
C155 C 0.68328 0.28364 0.15988 0.0
C156 C 0.76098 0.32975 0.28664 0.0
C157 C 0.78792 0.34016 0.2527 0.0
C158 C 0.73098 0.29884 0.27712 0.0
C159 C 0.72835 0.27742 0.23356 0.0
C160 C 0.75633 0.28677 0.20127 0.0
C161 C 0.78564 0.31839 0.21068 0.0
C162 C 0.70144 0.29022 0.31167 0.0
C163 C 0.75482 0.26406 0.15552 0.0
H164 H 0.64385 0.1643 0.24949 0.0
H165 H 0.62455 0.22471 0.1464 0.0
H166 H 0.73256 0.21959 0.25945 0.0
H167 H 0.71279 0.22692 0.31439 0.0
H168 H 0.69722 0.18411 0.28844 0.0
H169 H 0.66329 0.2818 0.13347 0.0
H170 H 0.6887 0.30342 0.19117 0.0
H171 H 0.70652 0.29236 0.13731 0.0
H172 H 0.76261 0.34672 0.31888 0.0
H173 H 0.80659 0.32636 0.18464 0.0
H174 H 0.69117 0.26436 0.32641 0.0
H175 H 0.6811 0.29021 0.28857 0.0
H176 H 0.7082 0.30863 0.34561 0.0
H177 H 0.74403 0.23746 0.16742 0.0
H178 H 0.78 0.27264 0.13905 0.0
H179 H 0.73819 0.26399 0.12424 0.0
C180 C 0.42543 0.76538 0.68636 0.0
C181 C 0.43892 0.78489 0.73301 0.0
C182 C 0.42668 0.7356 0.6762 0.0
C183 C 0.44277 0.72581 0.71287 0.0
C184 C 0.45867 0.74687 0.75814 0.0
C185 C 0.45599 0.77589 0.76821 0.0
C186 C 0.40854 0.71334 0.62826 0.0
C187 C 0.47704 0.73785 0.79724 0.0
C188 C 0.40932 0.6317 0.72576 0.0
C189 C 0.43151 0.62639 0.69508 0.0
C190 C 0.41256 0.6639 0.73126 0.0
C191 C 0.43942 0.6917 0.70701 0.0
C192 C 0.46237 0.68661 0.67681 0.0
C193 C 0.45775 0.65375 0.67036 0.0
C194 C 0.38691 0.66803 0.76241 0.0
C195 C 0.4919 0.71587 0.65184 0.0
H196 H 0.41192 0.77216 0.65935 0.0
H197 H 0.46661 0.79115 0.80413 0.0
H198 H 0.42501 0.70618 0.60652 0.0
H199 H 0.38635 0.68945 0.64037 0.0
H200 H 0.39984 0.726 0.60144 0.0
H201 H 0.49232 0.75933 0.82573 0.0
H202 H 0.45864 0.7158 0.81915 0.0
H203 H 0.49375 0.73034 0.777 0.0
H204 H 0.38885 0.61038 0.74445 0.0
H205 H 0.47504 0.64956 0.64697 0.0
H206 H 0.37516 0.67894 0.73798 0.0
H207 H 0.39934 0.68601 0.79646 0.0
H208 H 0.36677 0.64353 0.77689 0.0
H209 H 0.48295 0.72746 0.6235 0.0
H210 H 0.50811 0.70783 0.63118 0.0
H211 H 0.50733 0.73595 0.68212 0.0
C212 C 0.67534 0.51659 0.22902 0.0
C213 C 0.65442 0.49144 0.19161 0.0
C214 C 0.70771 0.52246 0.2399 0.0
C215 C 0.7184 0.50146 0.2146 0.0
C216 C 0.69765 0.4768 0.17553 0.0
C217 C 0.66614 0.4726 0.16378 0.0
C218 C 0.7298 0.55007 0.27993 0.0
C219 C 0.70759 0.4531 0.14883 0.0
C220 C 0.8056 0.51302 0.21742 0.0
C221 C 0.80254 0.49161 0.25732 0.0
C222 C 0.77934 0.51904 0.20593 0.0
C223 C 0.74897 0.50183 0.2333 0.0
C224 C 0.74638 0.48123 0.27496 0.0
C225 C 0.77351 0.47696 0.28712 0.0
C226 C 0.78355 0.54248 0.163 0.0
C227 C 0.71407 0.46151 0.30404 0.0
H228 H 0.66625 0.53136 0.25011 0.0
H229 H 0.64975 0.453 0.13509 0.0
H230 H 0.72992 0.53852 0.31712 0.0
H231 H 0.7561 0.5643 0.26662 0.0
H232 H 0.72083 0.56828 0.2879 0.0
H233 H 0.68898 0.43602 0.11825 0.0
H234 H 0.73237 0.46783 0.13052 0.0
H235 H 0.70998 0.43716 0.1782 0.0
H236 H 0.82823 0.52455 0.19469 0.0
H237 H 0.77107 0.46015 0.31769 0.0
H238 H 0.7728 0.55873 0.17437 0.0
H239 H 0.76988 0.52722 0.1272 0.0
H240 H 0.81037 0.55907 0.15339 0.0
H241 H 0.70572 0.47885 0.32037 0.0
H242 H 0.71666 0.44751 0.33651 0.0
H243 H 0.69399 0.44286 0.27662 0.0
C244 C 0.2723 0.77886 0.77461 0.0
C245 C 0.299 0.78419 0.74265 0.0
C246 C 0.24176 0.74793 0.77124 0.0
C247 C 0.23857 0.72139 0.73664 0.0
C248 C 0.26461 0.72765 0.70151 0.0
C249 C 0.29444 0.75931 0.70442 0.0
C250 C 0.21411 0.74272 0.80792 0.0
C251 C 0.26259 0.69985 0.66486 0.0
C252 C 0.18913 0.6328 0.78762 0.0
C253 C 0.16015 0.61801 0.75572 0.0
C254 C 0.21486 0.66635 0.78137 0.0
C255 C 0.21096 0.68597 0.74348 0.0
C256 C 0.18121 0.67151 0.71229 0.0
C257 C 0.15635 0.63739 0.71812 0.0
C258 C 0.24654 0.68052 0.81461 0.0
C259 C 0.17572 0.69203 0.67286 0.0
H260 H 0.27594 0.79822 0.80416 0.0
H261 H 0.31534 0.76336 0.68023 0.0
H262 H 0.18922 0.72842 0.78766 0.0
H263 H 0.21389 0.72755 0.84084 0.0
H264 H 0.21766 0.76729 0.82431 0.0
H265 H 0.28256 0.70999 0.63528 0.0
H266 H 0.26545 0.68129 0.68777 0.0
H267 H 0.2378 0.68583 0.64434 0.0
H268 H 0.19223 0.61769 0.81629 0.0
H269 H 0.1338 0.62594 0.69362 0.0
H270 H 0.25005 0.70278 0.83903 0.0
H271 H 0.26868 0.68943 0.78925 0.0
H272 H 0.24607 0.66145 0.84076 0.0
H273 H 0.17885 0.71575 0.6921 0.0
H274 H 0.15036 0.67765 0.65395 0.0
H275 H 0.1948 0.69965 0.64209 0.0
C276 C 0.49792 0.96455 0.85649 0.0
C277 C 0.46521 0.93651 0.85408 0.0
C278 C 0.51114 -0.01586 0.90338 0.0
C279 C 0.49122 0.975 0.94853 0.0
C280 C 0.4591 0.94534 0.94689 0.0
C281 C 0.4464 0.92665 0.89961 0.0
C282 C 0.54547 0.01568 0.90376 0.0
C283 C 0.4372 0.93442 -0.00569 0.0
C284 C 0.52278 0.01382 0.0851 0.0
C285 C 0.51013 0.03601 0.08994 0.0
C286 C 0.51844 -0.00515 0.03815 0.0
C287 C 0.50134 -0.00145 -0.00467 0.0
C288 C 0.49005 0.02219 -0.00061 0.0
C289 C 0.4944 0.04044 0.0467 0.0
C290 C 0.53065 0.96975 0.0352 0.0
C291 C 0.47193 0.0271 0.9545 0.0
H292 H 0.51253 0.97204 0.82132 0.0
H293 H 0.4213 0.90459 0.89812 0.0
H294 H 0.54273 0.03853 0.9053 0.0
H295 H 0.5603 0.0173 0.93891 0.0
H296 H 0.5597 0.01638 0.86837 0.0
H297 H 0.41469 0.9087 -0.01189 0.0
H298 H 0.45162 0.93432 0.02882 0.0
H299 H 0.42865 0.95281 0.00356 0.0
H300 H 0.53515 0.01053 0.11842 0.0
H301 H 0.48502 0.05796 0.04994 0.0
H302 H 0.54431 0.97215 -0.00149 0.0
H303 H 0.50879 0.94348 0.03484 0.0
H304 H 0.54742 0.97328 0.06889 0.0
H305 H 0.4864 0.03152 0.9182 0.0
H306 H 0.46775 0.04883 0.96232 0.0
H307 H 0.44714 0.00372 0.94731 0.0
C308 C 0.56608 0.51631 0.43348 0.0
C309 C 0.54026 0.48675 0.4081 0.0
C310 C 0.56243 0.5256 0.48498 0.0
C311 C 0.53192 0.50534 0.51064 0.0
C312 C 0.50637 0.47482 0.48575 0.0
C313 C 0.51105 0.46573 0.43505 0.0
C314 C 0.59062 0.5577 0.51094 0.0
C315 C 0.47319 0.45265 0.5114 0.0
C316 C 0.50992 0.50675 0.65195 0.0
C317 C 0.49118 0.52297 0.64865 0.0
C318 C 0.52711 0.50421 0.60831 0.0
C319 C 0.52441 0.51741 0.56061 0.0
C320 C 0.50803 0.53657 0.55901 0.0
C321 C 0.49172 0.53924 0.60336 0.0
C322 C 0.54542 0.48474 0.61193 0.0
C323 C 0.50434 0.5509 0.50898 0.0
H324 H 0.5889 0.53239 0.41292 0.0
H325 H 0.49106 0.44281 0.41565 0.0
H326 H 0.58473 0.57842 0.50928 0.0
H327 H 0.59363 0.55403 0.55271 0.0
H328 H 0.61485 0.56603 0.49126 0.0
H329 H 0.45642 0.42922 0.48727 0.0
H330 H 0.47742 0.44508 0.54994 0.0
H331 H 0.46003 0.46716 0.51823 0.0
H332 H 0.50938 0.49424 0.68733 0.0
H333 H 0.47728 0.55198 0.60143 0.0
H334 H 0.56877 0.49674 0.58913 0.0
H335 H 0.52919 0.45845 0.59532 0.0
H336 H 0.55189 0.4832 0.65309 0.0
H337 H 0.52876 0.56471 0.48933 0.0
H338 H 0.49453 0.5685 0.51587 0.0
H339 H 0.48665 0.52972 0.48184 0.0
C340 C 0.00532 0.47304 0.86674 0.0
C341 C 0.00299 0.48664 0.81994 0.0
C342 C -0.01505 0.47047 0.90881 0.0
C343 C 0.96128 0.48129 0.90373 0.0
C344 C 0.95824 0.49439 0.85622 0.0
C345 C -0.02062 0.49716 0.81487 0.0
C346 C -0.01081 0.45662 0.95903 0.0
C347 C 0.93287 0.50564 0.84928 0.0
C348 C 0.89487 0.44389 0.00612 0.0
C349 C 0.90817 0.46997 0.0453 0.0
C350 C 0.91045 0.44822 0.95779 0.0
C351 C 0.9403 0.47916 0.94895 0.0
C352 C 0.95254 0.50636 -0.01296 0.0
C353 C 0.93614 0.50151 0.03473 0.0
C354 C 0.89628 0.41886 0.9177 0.0
C355 C -0.01557 0.53967 -0.02081 0.0
H356 H 0.02362 0.46499 0.87097 0.0
H357 H -0.02257 0.50757 0.77863 0.0
H358 H -0.0041 0.47588 -0.00834 0.0
H359 H 0.96518 0.43379 0.96883 0.0
H360 H 0.00896 0.44956 0.95662 0.0
H361 H 0.93269 0.51389 0.80915 0.0
H362 H 0.90734 0.48457 0.85769 0.0
H363 H 0.93851 0.52708 0.87747 0.0
H364 H 0.87297 0.41959 0.0139 0.0
H365 H 0.94644 0.52179 0.06485 0.0
H366 H 0.91244 0.40729 0.91638 0.0
H367 H 0.896 0.42781 0.8782 0.0
H368 H 0.87037 0.39882 0.92693 0.0
H369 H 0.00624 0.5357 -0.01894 0.0
H370 H -0.01176 0.55956 0.0094 0.0
H371 H -0.01584 0.54912 0.94012 0.0
C372 C 0.50536 0.04823 0.40994 0.0
C373 C 0.4841 0.04235 0.3669 0.0
C374 C 0.49394 0.02716 0.45261 0.0
C375 C 0.46065 -0.00081 0.4517 0.0
C376 C 0.43889 -0.00652 0.40874 0.0
C377 C 0.4508 0.01533 0.36703 0.0
C378 C 0.5177 0.03442 0.49818 0.0
C379 C 0.40339 0.96366 0.40603 0.0
C380 C 0.44591 0.926 0.53464 0.0
C381 C 0.43053 0.93119 0.57841 0.0
C382 C 0.455 0.94742 0.49251 0.0
C383 C 0.44914 0.97509 0.49468 0.0
C384 C 0.43319 0.98019 0.53847 0.0
C385 C 0.42378 0.95796 0.57965 0.0
C386 C 0.47138 0.94077 0.44603 0.0
C387 C 0.42699 0.0097 0.54252 0.0
H388 H 0.53106 0.0692 0.41015 0.0
H389 H 0.43429 0.01057 0.33373 0.0
H390 H 0.50608 0.03618 0.53523 0.0
H391 H 0.52281 0.01322 0.50108 0.0
H392 H 0.542 0.05844 0.49443 0.0
H393 H 0.38928 0.96351 0.37083 0.0
H394 H 0.40384 0.93954 0.40538 0.0
H395 H 0.38961 0.96414 0.44124 0.0
H396 H 0.45103 0.90524 0.53342 0.0
H397 H 0.4121 0.96221 0.61359 0.0
H398 H 0.49734 0.9624 0.44248 0.0
H399 H 0.4574 0.9387 0.40956 0.0
H400 H 0.47245 0.9171 0.44913 0.0
H401 H 0.4513 0.03401 0.54262 0.0
H402 H 0.41345 0.00955 0.57848 0.0
H403 H 0.41211 0.00909 0.50811 0.0
C404 C 0.41248 0.46611 0.91606 0.0
C405 C 0.41366 0.49635 0.90375 0.0
C406 C 0.42189 0.46213 0.96606 0.0
C407 C 0.43229 0.4889 0.00457 0.0
C408 C 0.43027 0.51801 -0.00619 0.0
C409 C 0.42121 0.52153 0.94327 0.0
C410 C 0.42372 0.43068 -0.02397 0.0
C411 C 0.44038 0.54672 0.03427 0.0
C412 C 0.45204 0.47173 0.13997 0.0
C413 C 0.48674 0.48464 0.13695 0.0
C414 C 0.43388 0.474 0.09787 0.0
C415 C 0.4509 0.48912 0.05183 0.0
C416 C 0.48609 0.50321 0.04943 0.0
C417 C 0.50357 0.50098 0.09212 0.0
C418 C 0.39647 0.45928 0.10203 0.0
C419 C 0.50522 0.51956 0.00097 0.0
H420 H 0.40637 0.44643 0.88575 0.0
H421 H 0.4216 0.54473 0.93414 0.0
H422 H 0.45042 0.43739 -0.02234 0.0
H423 H 0.41269 0.42041 0.01417 0.0
H424 H 0.41048 0.41039 0.94492 0.0
H425 H 0.4313 0.5641 0.02341 0.0
H426 H 0.43047 0.5367 0.07305 0.0
H427 H 0.46817 0.56173 0.03814 0.0
H428 H 0.43896 0.45923 0.17471 0.0
H429 H 0.53041 0.51117 0.08962 0.0
H430 H 0.38311 0.43587 0.07639 0.0
H431 H 0.38912 0.47749 0.08856 0.0
H432 H 0.38787 0.45271 0.14263 0.0
H433 H 0.49587 0.50058 0.96754 0.0
H434 H 0.53266 0.52993 0.006 0.0
H435 H 0.50108 0.54057 -0.00941 0.0
C436 C 0.05883 0.5029 0.507 0.0
C437 C 0.04348 0.4784 0.54456 0.0
C438 C 0.04395 0.49803 0.45741 0.0
C439 C 0.01271 0.46828 0.44575 0.0
C440 C -0.00158 0.44234 0.48214 0.0
C441 C 0.01418 0.44762 0.53115 0.0
C442 C 0.06033 0.52594 0.41919 0.0
C443 C 0.96498 0.41037 0.47125 0.0
C444 C 0.95169 0.47989 0.36364 0.0
C445 C 0.95178 0.46393 0.31579 0.0
C446 C 0.97147 0.48139 0.40601 0.0
C447 C -0.00765 0.46707 0.40019 0.0
C448 C -0.00673 0.45164 0.35163 0.0
C449 C 0.97268 0.44999 0.30993 0.0
C450 C 0.96957 0.49787 0.45734 0.0
C451 C 0.01575 0.43672 0.34396 0.0
H452 H 0.08183 0.52651 0.51703 0.0
H453 H 0.00236 0.42857 0.56008 0.0
H454 H 0.05913 0.51514 0.37912 0.0
H455 H 0.04666 0.54014 0.41828 0.0
H456 H 0.08701 0.54423 0.43013 0.0
H457 H 0.95976 0.39075 0.49992 0.0
H458 H 0.94469 0.41667 0.47325 0.0
H459 H 0.96402 0.39943 0.4314 0.0
H460 H 0.93553 0.49065 0.36846 0.0
H461 H 0.97287 0.43775 0.27286 0.0
H462 H -0.00529 0.51959 0.46886 0.0
H463 H 0.96164 0.47933 0.48857 0.0
H464 H 0.95164 0.50733 0.45542 0.0
H465 H 0.04211 0.45615 0.35456 0.0
H466 H 0.01477 0.42715 0.30305 0.0
H467 H 0.00818 0.41538 0.37019 0.0
loop_
_geom_bond_atom_site_label_1
_geom_bond_atom_site_label_2
_geom_bond_distance
_geom_bond_site_symmetry_2
_ccdc_geom_bond_type
C0 O1 1.306 . S
C0 O3 1.160 . S
O1 C0 1.306 . S
O1 Cd2 2.228 . S
Cd2 O1 2.228 . S
Cd2 O6 2.273 . S
Cd2 O10 2.277 . S
O3 C0 1.160 . S
O3 Cd4 2.203 . S
Cd4 O3 2.203 . S
Cd4 O6 2.411 . S
Cd4 O7 2.333 . S
Cd4 O8 2.352 . S
Cd4 O12 2.277 . S
Cd4 O13 2.356 . S
C5 O10 1.209 . S
C5 O12 1.226 . S
O6 Cd2 2.273 . S
O6 Cd4 2.411 . S
O6 C9 1.320 . S
O7 Cd4 2.333 . S
O7 C9 1.214 . S
O8 Cd4 2.352 . S
O8 C11 1.258 . S
C9 O6 1.320 . S
C9 O7 1.214 . S
O10 Cd2 2.277 . S
O10 C5 1.209 . S
C11 O8 1.258 . S
C11 O13 1.282 . S
O12 Cd4 2.277 . S
O12 C5 1.226 . S
O13 Cd4 2.356 . S
O13 C11 1.282 . S
C14 O15 1.306 . S
C14 O17 1.160 . S
O15 C14 1.306 . S
O15 Cd16 2.228 . S
Cd16 O15 2.228 . S
Cd16 O20 2.273 . S
Cd16 O24 2.277 . S
O17 C14 1.160 . S
O17 Cd18 2.203 . S
Cd18 O17 2.203 . S
Cd18 O20 2.411 . S
Cd18 O21 2.333 . S
Cd18 O22 2.352 . S
Cd18 O26 2.277 . S
Cd18 O27 2.356 . S
C19 O24 1.209 . S
C19 O26 1.226 . S
O20 Cd16 2.273 . S
O20 Cd18 2.411 . S
O20 C23 1.320 . S
O21 Cd18 2.333 . S
O21 C23 1.214 . S
O22 Cd18 2.352 . S
O22 C25 1.258 . S
C23 O20 1.320 . S
C23 O21 1.214 . S
O24 Cd16 2.277 . S
O24 C19 1.209 . S
C25 O22 1.258 . S
C25 O27 1.282 . S
O26 Cd18 2.277 . S
O26 C19 1.226 . S
O27 Cd18 2.356 . S
O27 C25 1.282 . S
C28 O29 1.306 . S
C28 O31 1.160 . S
O29 C28 1.306 . S
O29 Cd30 2.228 . S
Cd30 O29 2.228 . S
Cd30 O34 2.273 . S
Cd30 O38 2.277 . S
O31 C28 1.160 . S
O31 Cd32 2.203 . S
Cd32 O31 2.203 . S
Cd32 O34 2.411 . S
Cd32 O35 2.333 . S
Cd32 O36 2.352 . S
Cd32 O40 2.277 . S
Cd32 O41 2.356 . S
C33 O38 1.209 . S
C33 O40 1.226 . S
O34 Cd30 2.273 . S
O34 Cd32 2.411 . S
O34 C37 1.320 . S
O35 Cd32 2.333 . S
O35 C37 1.214 . S
O36 Cd32 2.352 . S
O36 C39 1.258 . S
C37 O34 1.320 . S
C37 O35 1.214 . S
O38 Cd30 2.277 . S
O38 C33 1.209 . S
C39 O36 1.258 . S
C39 O41 1.282 . S
O40 Cd32 2.277 . S
O40 C33 1.226 . S
O41 Cd32 2.356 . S
O41 C39 1.282 . S
C42 O43 1.306 . S
C42 O45 1.160 . S
O43 C42 1.306 . S
O43 Cd44 2.228 . S
Cd44 O43 2.228 . S
Cd44 O48 2.273 . S
Cd44 O52 2.277 . S
O45 C42 1.160 . S
O45 Cd46 2.203 . S
Cd46 O45 2.203 . S
Cd46 O48 2.411 . S
Cd46 O49 2.333 . S
Cd46 O50 2.352 . S
Cd46 O54 2.277 . S
Cd46 O55 2.356 . S
C47 O52 1.209 . S
C47 O54 1.226 . S
O48 Cd44 2.273 . S
O48 Cd46 2.411 . S
O48 C51 1.320 . S
O49 Cd46 2.333 . S
O49 C51 1.214 . S
O50 Cd46 2.352 . S
O50 C53 1.258 . S
C51 O48 1.320 . S
C51 O49 1.214 . S
O52 Cd44 2.277 . S
O52 C47 1.209 . S
C53 O50 1.258 . S
C53 O55 1.282 . S
O54 Cd46 2.277 . S
O54 C47 1.226 . S
O55 Cd46 2.356 . S
O55 C53 1.282 . S
C56 O57 1.306 . S
C56 O59 1.160 . S
O57 C56 1.306 . S
O57 Cd58 2.228 . S
Cd58 O57 2.228 . S
Cd58 O62 2.273 . S
Cd58 O66 2.277 . S
O59 C56 1.160 . S
O59 Cd60 2.203 . S
Cd60 O59 2.203 . S
Cd60 O62 2.411 . S
Cd60 O63 2.333 . S
Cd60 O64 2.352 . S
Cd60 O68 2.277 . S
Cd60 O69 2.356 . S
C61 O66 1.209 . S
C61 O68 1.226 . S
O62 Cd58 2.273 . S
O62 Cd60 2.411 . S
O62 C65 1.320 . S
O63 Cd60 2.333 . S
O63 C65 1.214 . S
O64 Cd60 2.352 . S
O64 C67 1.258 . S
C65 O62 1.320 . S
C65 O63 1.214 . S
O66 Cd58 2.277 . S
O66 C61 1.209 . S
C67 O64 1.258 . S
C67 O69 1.282 . S
O68 Cd60 2.277 . S
O68 C61 1.226 . S
O69 Cd60 2.356 . S
O69 C67 1.282 . S
C70 O71 1.306 . S
C70 O73 1.160 . S
O71 C70 1.306 . S
O71 Cd72 2.228 . S
Cd72 O71 2.228 . S
Cd72 O76 2.273 . S
Cd72 O80 2.277 . S
O73 C70 1.160 . S
O73 Cd74 2.203 . S
Cd74 O73 2.203 . S
Cd74 O76 2.411 . S
Cd74 O77 2.333 . S
Cd74 O78 2.352 . S
Cd74 O82 2.277 . S
Cd74 O83 2.356 . S
C75 O80 1.209 . S
C75 O82 1.226 . S
O76 Cd72 2.273 . S
O76 Cd74 2.411 . S
O76 C79 1.320 . S
O77 Cd74 2.333 . S
O77 C79 1.214 . S
O78 Cd74 2.352 . S
O78 C81 1.258 . S
C79 O76 1.320 . S
C79 O77 1.214 . S
O80 Cd72 2.277 . S
O80 C75 1.209 . S
C81 O78 1.258 . S
C81 O83 1.282 . S
O82 Cd74 2.277 . S
O82 C75 1.226 . S
O83 Cd74 2.356 . S
O83 C81 1.282 . S
C84 C85 1.391 . S
C84 C86 1.394 . S
C84 H100 0.931 . S
C85 C84 1.391 . S
C85 C89 1.376 . S
C86 C84 1.394 . S
C86 C87 1.369 . S
C86 C90 1.531 . S
C87 C86 1.369 . S
C87 C88 1.410 . S
C87 C95 1.503 . S
C88 C87 1.410 . S
C88 C89 1.392 . S
C88 C91 1.511 . S
C89 C85 1.376 . S
C89 C88 1.392 . S
C89 H101 0.929 . S
C90 C86 1.531 . S
C90 H102 0.960 . S
C90 H103 0.962 . S
C90 H104 0.960 . S
C91 C88 1.511 . S
C91 H105 0.961 . S
C91 H106 0.961 . S
C91 H107 0.961 . S
C92 C93 1.370 . S
C92 C94 1.363 . S
C92 H108 0.931 . S
C93 C92 1.370 . S
C93 C97 1.408 . S
C94 C92 1.363 . S
C94 C95 1.370 . S
C94 C98 1.524 . S
C95 C87 1.503 . S
C95 C94 1.370 . S
C95 C96 1.403 . S
C96 C95 1.403 . S
C96 C97 1.404 . S
C96 C99 1.539 . S
C97 C93 1.408 . S
C97 C96 1.404 . S
C97 H109 0.930 . S
C98 C94 1.524 . S
C98 H110 0.956 . S
C98 H111 0.961 . S
C98 H112 0.961 . S
C99 C96 1.539 . S
C99 H113 0.958 . S
C99 H114 0.961 . S
C99 H115 0.960 . S
H100 C84 0.931 . S
H101 C89 0.929 . S
H102 C90 0.960 . S
H103 C90 0.962 . S
H104 C90 0.960 . S
H105 C91 0.961 . S
H106 C91 0.961 . S
H107 C91 0.961 . S
H108 C92 0.931 . S
H109 C97 0.930 . S
H110 C98 0.956 . S
H111 C98 0.961 . S
H112 C98 0.961 . S
H113 C99 0.958 . S
H114 C99 0.961 . S
H115 C99 0.960 . S
C116 C117 1.391 . S
C116 C118 1.394 . S
C116 H132 0.931 . S
C117 C116 1.391 . S
C117 C121 1.376 . S
C118 C116 1.394 . S
C118 C119 1.369 . S
C118 C122 1.531 . S
C119 C118 1.369 . S
C119 C120 1.410 . S
C119 C127 1.503 . S
C120 C119 1.410 . S
C120 C121 1.392 . S
C120 C123 1.511 . S
C121 C117 1.376 . S
C121 C120 1.392 . S
C121 H133 0.929 . S
C122 C118 1.531 . S
C122 H134 0.960 . S
C122 H135 0.962 . S
C122 H136 0.960 . S
C123 C120 1.511 . S
C123 H137 0.961 . S
C123 H138 0.961 . S
C123 H139 0.961 . S
C124 C125 1.370 . S
C124 C126 1.363 . S
C124 H140 0.931 . S
C125 C124 1.370 . S
C125 C129 1.408 . S
C126 C124 1.363 . S
C126 C127 1.370 . S
C126 C130 1.524 . S
C127 C119 1.503 . S
C127 C126 1.370 . S
C127 C128 1.403 . S
C128 C127 1.403 . S
C128 C129 1.404 . S
C128 C131 1.539 . S
C129 C125 1.408 . S
C129 C128 1.404 . S
C129 H141 0.930 . S
C130 C126 1.524 . S
C130 H142 0.956 . S
C130 H143 0.961 . S
C130 H144 0.961 . S
C131 C128 1.539 . S
C131 H145 0.958 . S
C131 H146 0.961 . S
C131 H147 0.960 . S
H132 C116 0.931 . S
H133 C121 0.929 . S
H134 C122 0.960 . S
H135 C122 0.962 . S
H136 C122 0.960 . S
H137 C123 0.961 . S
H138 C123 0.961 . S
H139 C123 0.961 . S
H140 C124 0.931 . S
H141 C129 0.930 . S
H142 C130 0.956 . S
H143 C130 0.961 . S
H144 C130 0.961 . S
H145 C131 0.958 . S
H146 C131 0.961 . S
H147 C131 0.960 . S
C148 C149 1.391 . S
C148 C150 1.394 . S
C148 H164 0.931 . S
C149 C148 1.391 . S
C149 C153 1.376 . S
C150 C148 1.394 . S
C150 C151 1.369 . S
C150 C154 1.531 . S
C151 C150 1.369 . S
C151 C152 1.410 . S
C151 C159 1.503 . S
C152 C151 1.410 . S
C152 C153 1.392 . S
C152 C155 1.511 . S
C153 C149 1.376 . S
C153 C152 1.392 . S
C153 H165 0.929 . S
C154 C150 1.531 . S
C154 H166 0.960 . S
C154 H167 0.962 . S
C154 H168 0.960 . S
C155 C152 1.511 . S
C155 H169 0.961 . S
C155 H170 0.961 . S
C155 H171 0.961 . S
C156 C157 1.370 . S
C156 C158 1.363 . S
C156 H172 0.931 . S
C157 C156 1.370 . S
C157 C161 1.408 . S
C158 C156 1.363 . S
C158 C159 1.370 . S
C158 C162 1.524 . S
C159 C151 1.503 . S
C159 C158 1.370 . S
C159 C160 1.403 . S
C160 C159 1.403 . S
C160 C161 1.404 . S
C160 C163 1.539 . S
C161 C157 1.408 . S
C161 C160 1.404 . S
C161 H173 0.930 . S
C162 C158 1.524 . S
C162 H174 0.956 . S
C162 H175 0.961 . S
C162 H176 0.961 . S
C163 C160 1.539 . S
C163 H177 0.958 . S
C163 H178 0.961 . S
C163 H179 0.960 . S
H164 C148 0.931 . S
H165 C153 0.929 . S
H166 C154 0.960 . S
H167 C154 0.962 . S
H168 C154 0.960 . S
H169 C155 0.961 . S
H170 C155 0.961 . S
H171 C155 0.961 . S
H172 C156 0.931 . S
H173 C161 0.930 . S
H174 C162 0.956 . S
H175 C162 0.961 . S
H176 C162 0.961 . S
H177 C163 0.958 . S
H178 C163 0.961 . S
H179 C163 0.960 . S
C180 C181 1.391 . S
C180 C182 1.394 . S
C180 H196 0.931 . S
C181 C180 1.391 . S
C181 C185 1.376 . S
C182 C180 1.394 . S
C182 C183 1.369 . S
C182 C186 1.531 . S
C183 C182 1.369 . S
C183 C184 1.410 . S
C183 C191 1.503 . S
C184 C183 1.410 . S
C184 C185 1.392 . S
C184 C187 1.511 . S
C185 C181 1.376 . S
C185 C184 1.392 . S
C185 H197 0.929 . S
C186 C182 1.531 . S
C186 H198 0.960 . S
C186 H199 0.962 . S
C186 H200 0.960 . S
C187 C184 1.511 . S
C187 H201 0.961 . S
C187 H202 0.961 . S
C187 H203 0.961 . S
C188 C189 1.370 . S
C188 C190 1.363 . S
C188 H204 0.931 . S
C189 C188 1.370 . S
C189 C193 1.408 . S
C190 C188 1.363 . S
C190 C191 1.370 . S
C190 C194 1.524 . S
C191 C183 1.503 . S
C191 C190 1.370 . S
C191 C192 1.403 . S
C192 C191 1.403 . S
C192 C193 1.404 . S
C192 C195 1.539 . S
C193 C189 1.408 . S
C193 C192 1.404 . S
C193 H205 0.930 . S
C194 C190 1.524 . S
C194 H206 0.956 . S
C194 H207 0.961 . S
C194 H208 0.961 . S
C195 C192 1.539 . S
C195 H209 0.958 . S
C195 H210 0.961 . S
C195 H211 0.960 . S
H196 C180 0.931 . S
H197 C185 0.929 . S
H198 C186 0.960 . S
H199 C186 0.962 . S
H200 C186 0.960 . S
H201 C187 0.961 . S
H202 C187 0.961 . S
H203 C187 0.961 . S
H204 C188 0.931 . S
H205 C193 0.930 . S
H206 C194 0.956 . S
H207 C194 0.961 . S
H208 C194 0.961 . S
H209 C195 0.958 . S
H210 C195 0.961 . S
H211 C195 0.960 . S
C212 C213 1.391 . S
C212 C214 1.394 . S
C212 H228 0.931 . S
C213 C212 1.391 . S
C213 C217 1.376 . S
C214 C212 1.394 . S
C214 C215 1.369 . S
C214 C218 1.531 . S
C215 C214 1.369 . S
C215 C216 1.410 . S
C215 C223 1.503 . S
C216 C215 1.410 . S
C216 C217 1.392 . S
C216 C219 1.511 . S
C217 C213 1.376 . S
C217 C216 1.392 . S
C217 H229 0.929 . S
C218 C214 1.531 . S
C218 H230 0.960 . S
C218 H231 0.962 . S
C218 H232 0.960 . S
C219 C216 1.511 . S
C219 H233 0.961 . S
C219 H234 0.961 . S
C219 H235 0.961 . S
C220 C221 1.370 . S
C220 C222 1.363 . S
C220 H236 0.931 . S
C221 C220 1.370 . S
C221 C225 1.408 . S
C222 C220 1.363 . S
C222 C223 1.370 . S
C222 C226 1.524 . S
C223 C215 1.503 . S
C223 C222 1.370 . S
C223 C224 1.403 . S
C224 C223 1.403 . S
C224 C225 1.404 . S
C224 C227 1.539 . S
C225 C221 1.408 . S
C225 C224 1.404 . S
C225 H237 0.930 . S
C226 C222 1.524 . S
C226 H238 0.956 . S
C226 H239 0.961 . S
C226 H240 0.961 . S
C227 C224 1.539 . S
C227 H241 0.958 . S
C227 H242 0.961 . S
C227 H243 0.960 . S
H228 C212 0.931 . S
H229 C217 0.929 . S
H230 C218 0.960 . S
H231 C218 0.962 . S
H232 C218 0.960 . S
H233 C219 0.961 . S
H234 C219 0.961 . S
H235 C219 0.961 . S
H236 C220 0.931 . S
H237 C225 0.930 . S
H238 C226 0.956 . S
H239 C226 0.961 . S
H240 C226 0.961 . S
H241 C227 0.958 . S
H242 C227 0.961 . S
H243 C227 0.960 . S
C244 C245 1.391 . S
C244 C246 1.394 . S
C244 H260 0.931 . S
C245 C244 1.391 . S
C245 C249 1.376 . S
C246 C244 1.394 . S
C246 C247 1.369 . S
C246 C250 1.531 . S
C247 C246 1.369 . S
C247 C248 1.410 . S
C247 C255 1.503 . S
C248 C247 1.410 . S
C248 C249 1.392 . S
C248 C251 1.511 . S
C249 C245 1.376 . S
C249 C248 1.392 . S
C249 H261 0.929 . S
C250 C246 1.531 . S
C250 H262 0.960 . S
C250 H263 0.962 . S
C250 H264 0.960 . S
C251 C248 1.511 . S
C251 H265 0.961 . S
C251 H266 0.961 . S
C251 H267 0.961 . S
C252 C253 1.370 . S
C252 C254 1.363 . S
C252 H268 0.931 . S
C253 C252 1.370 . S
C253 C257 1.408 . S
C254 C252 1.363 . S
C254 C255 1.370 . S
C254 C258 1.524 . S
C255 C247 1.503 . S
C255 C254 1.370 . S
C255 C256 1.403 . S
C256 C255 1.403 . S
C256 C257 1.404 . S
C256 C259 1.539 . S
C257 C253 1.408 . S
C257 C256 1.404 . S
C257 H269 0.930 . S
C258 C254 1.524 . S
C258 H270 0.956 . S
C258 H271 0.961 . S
C258 H272 0.961 . S
C259 C256 1.539 . S
C259 H273 0.958 . S
C259 H274 0.961 . S
C259 H275 0.960 . S
H260 C244 0.931 . S
H261 C249 0.929 . S
H262 C250 0.960 . S
H263 C250 0.962 . S
H264 C250 0.960 . S
H265 C251 0.961 . S
H266 C251 0.961 . S
H267 C251 0.961 . S
H268 C252 0.931 . S
H269 C257 0.930 . S
H270 C258 0.956 . S
H271 C258 0.961 . S
H272 C258 0.961 . S
H273 C259 0.958 . S
H274 C259 0.961 . S
H275 C259 0.960 . S
C276 C277 1.391 . S
C276 C278 1.393 1_565 S
C276 H292 0.931 . S
C277 C276 1.391 . S
C277 C281 1.376 . S
C278 C276 1.393 1_545 S
C278 C279 1.369 1_545 S
C278 C282 1.531 . S
C279 C278 1.369 1_565 S
C279 C280 1.410 . S
C279 C287 1.503 1_566 S
C280 C279 1.410 . S
C280 C281 1.392 . S
C280 C283 1.511 1_556 S
C281 C277 1.376 . S
C281 C280 1.392 . S
C281 H293 0.929 . S
C282 C278 1.531 . S
C282 H294 0.960 . S
C282 H295 0.962 . S
C282 H296 0.960 . S
C283 C280 1.511 1_554 S
C283 H297 0.961 . S
C283 H298 0.961 . S
C283 H299 0.961 . S
C284 C285 1.370 . S
C284 C286 1.363 . S
C284 H300 0.931 . S
C285 C284 1.370 . S
C285 C289 1.408 . S
C286 C284 1.363 . S
C286 C287 1.370 . S
C286 C290 1.524 1_545 S
C287 C279 1.503 1_544 S
C287 C286 1.370 . S
C287 C288 1.403 . S
C288 C287 1.403 . S
C288 C289 1.404 . S
C288 C291 1.539 1_554 S
C289 C285 1.408 . S
C289 C288 1.404 . S
C289 H301 0.930 . S
C290 C286 1.524 1_565 S
C290 H302 0.956 . S
C290 H303 0.961 . S
C290 H304 0.961 . S
C291 C288 1.539 1_556 S
C291 H305 0.958 . S
C291 H306 0.961 1_556 S
C291 H307 0.960 . S
H292 C276 0.931 . S
H293 C281 0.929 . S
H294 C282 0.960 . S
H295 C282 0.962 . S
H296 C282 0.960 . S
H297 C283 0.961 . S
H298 C283 0.961 . S
H299 C283 0.961 . S
H300 C284 0.931 . S
H301 C289 0.930 . S
H302 C290 0.956 . S
H303 C290 0.961 . S
H304 C290 0.961 . S
H305 C291 0.958 . S
H306 C291 0.961 1_554 S
H307 C291 0.960 . S
C308 C309 1.391 . S
C308 C310 1.394 . S
C308 H324 0.931 . S
C309 C308 1.391 . S
C309 C313 1.376 . S
C310 C308 1.394 . S
C310 C311 1.369 . S
C310 C314 1.531 . S
C311 C310 1.369 . S
C311 C312 1.410 . S
C311 C319 1.503 . S
C312 C311 1.410 . S
C312 C313 1.392 . S
C312 C315 1.511 . S
C313 C309 1.376 . S
C313 C312 1.392 . S
C313 H325 0.929 . S
C314 C310 1.531 . S
C314 H326 0.960 . S
C314 H327 0.962 . S
C314 H328 0.960 . S
C315 C312 1.511 . S
C315 H329 0.961 . S
C315 H330 0.961 . S
C315 H331 0.961 . S
C316 C317 1.370 . S
C316 C318 1.363 . S
C316 H332 0.931 . S
C317 C316 1.370 . S
C317 C321 1.408 . S
C318 C316 1.363 . S
C318 C319 1.370 . S
C318 C322 1.524 . S
C319 C311 1.503 . S
C319 C318 1.370 . S
C319 C320 1.403 . S
C320 C319 1.403 . S
C320 C321 1.404 . S
C320 C323 1.539 . S
C321 C317 1.408 . S
C321 C320 1.404 . S
C321 H333 0.930 . S
C322 C318 1.524 . S
C322 H334 0.956 . S
C322 H335 0.961 . S
C322 H336 0.961 . S
C323 C320 1.539 . S
C323 H337 0.958 . S
C323 H338 0.961 . S
C323 H339 0.960 . S
H324 C308 0.931 . S
H325 C313 0.929 . S
H326 C314 0.960 . S
H327 C314 0.962 . S
H328 C314 0.960 . S
H329 C315 0.961 . S
H330 C315 0.961 . S
H331 C315 0.961 . S
H332 C316 0.931 . S
H333 C321 0.930 . S
H334 C322 0.956 . S
H335 C322 0.961 . S
H336 C322 0.961 . S
H337 C323 0.958 . S
H338 C323 0.961 . S
H339 C323 0.960 . S
C340 C341 1.391 . S
C340 C342 1.394 . S
C340 H356 0.931 . S
C341 C340 1.391 . S
C341 C345 1.376 . S
C342 C340 1.394 . S
C342 C343 1.369 . S
C342 C346 1.531 1_556 S
C343 C342 1.369 . S
C343 C344 1.410 . S
C343 C351 1.503 1_456 S
C344 C343 1.410 . S
C344 C345 1.392 . S
C344 C347 1.511 1_455 S
C345 C341 1.376 . S
C345 C344 1.392 . S
C345 H357 0.929 . S
C346 C342 1.531 1_554 S
C346 H358 0.960 . S
C346 H359 0.962 . S
C346 H360 0.960 . S
C347 C344 1.511 1_655 S
C347 H361 0.961 . S
C347 H362 0.961 . S
C347 H363 0.961 . S
C348 C349 1.370 . S
C348 C350 1.363 . S
C348 H364 0.931 . S
C349 C348 1.370 . S
C349 C353 1.408 . S
C350 C348 1.363 . S
C350 C351 1.370 . S
C350 C354 1.524 1_554 S
C351 C343 1.503 1_654 S
C351 C350 1.370 . S
C351 C352 1.403 1_655 S
C352 C351 1.403 1_455 S
C352 C353 1.404 1_455 S
C352 C355 1.539 . S
C353 C349 1.408 . S
C353 C352 1.404 1_655 S
C353 H365 0.930 . S
C354 C350 1.524 1_556 S
C354 H366 0.956 . S
C354 H367 0.961 . S
C354 H368 0.961 . S
C355 C352 1.539 . S
C355 H369 0.958 . S
C355 H370 0.961 . S
C355 H371 0.960 . S
H356 C340 0.931 . S
H357 C345 0.929 . S
H358 C346 0.960 . S
H359 C346 0.962 . S
H360 C346 0.960 . S
H361 C347 0.961 . S
H362 C347 0.961 . S
H363 C347 0.961 . S
H364 C348 0.931 . S
H365 C353 0.930 . S
H366 C354 0.956 . S
H367 C354 0.961 . S
H368 C354 0.961 . S
H369 C355 0.958 . S
H370 C355 0.961 . S
H371 C355 0.960 . S
C372 C373 1.391 . S
C372 C374 1.394 . S
C372 H388 0.931 . S
C373 C372 1.391 . S
C373 C377 1.376 . S
C374 C372 1.394 . S
C374 C375 1.369 . S
C374 C378 1.531 . S
C375 C374 1.369 . S
C375 C376 1.410 . S
C375 C383 1.503 1_545 S
C376 C375 1.410 . S
C376 C377 1.392 . S
C376 C379 1.511 1_545 S
C377 C373 1.376 . S
C377 C376 1.392 . S
C377 H389 0.929 . S
C378 C374 1.531 . S
C378 H390 0.960 . S
C378 H391 0.962 . S
C378 H392 0.960 . S
C379 C376 1.511 1_565 S
C379 H393 0.961 . S
C379 H394 0.961 . S
C379 H395 0.961 1_565 S
C380 C381 1.370 . S
C380 C382 1.363 . S
C380 H396 0.931 . S
C381 C380 1.370 . S
C381 C385 1.408 . S
C382 C380 1.363 . S
C382 C383 1.370 . S
C382 C386 1.524 . S
C383 C375 1.503 1_565 S
C383 C382 1.370 . S
C383 C384 1.403 1_565 S
C384 C383 1.403 1_545 S
C384 C385 1.404 1_545 S
C384 C387 1.539 . S
C385 C381 1.408 . S
C385 C384 1.404 1_565 S
C385 H397 0.930 . S
C386 C382 1.524 . S
C386 H398 0.956 . S
C386 H399 0.961 . S
C386 H400 0.961 . S
C387 C384 1.539 . S
C387 H401 0.958 . S
C387 H402 0.961 . S
C387 H403 0.960 . S
H388 C372 0.931 . S
H389 C377 0.929 . S
H390 C378 0.960 . S
H391 C378 0.962 . S
H392 C378 0.960 . S
H393 C379 0.961 . S
H394 C379 0.961 . S
H395 C379 0.961 1_545 S
H396 C380 0.931 . S
H397 C385 0.930 . S
H398 C386 0.956 . S
H399 C386 0.961 . S
H400 C386 0.961 . S
H401 C387 0.958 . S
H402 C387 0.961 . S
H403 C387 0.960 . S
C404 C405 1.391 . S
C404 C406 1.394 . S
C404 H420 0.931 . S
C405 C404 1.391 . S
C405 C409 1.376 . S
C406 C404 1.394 . S
C406 C407 1.369 . S
C406 C410 1.532 1_556 S
C407 C406 1.369 . S
C407 C408 1.410 . S
C407 C415 1.503 1_556 S
C408 C407 1.410 . S
C408 C409 1.392 . S
C408 C411 1.511 . S
C409 C405 1.376 . S
C409 C408 1.392 . S
C409 H421 0.929 . S
C410 C406 1.532 1_554 S
C410 H422 0.959 . S
C410 H423 0.960 . S
C410 H424 0.962 1_554 S
C411 C408 1.511 . S
C411 H425 0.961 . S
C411 H426 0.961 1_556 S
C411 H427 0.961 . S
C412 C413 1.370 . S
C412 C414 1.363 . S
C412 H428 0.931 . S
C413 C412 1.370 . S
C413 C417 1.408 . S
C414 C412 1.363 . S
C414 C415 1.370 . S
C414 C418 1.524 . S
C415 C407 1.503 1_554 S
C415 C414 1.370 . S
C415 C416 1.403 . S
C416 C415 1.403 . S
C416 C417 1.404 . S
C416 C419 1.539 1_554 S
C417 C413 1.408 . S
C417 C416 1.404 . S
C417 H429 0.930 . S
C418 C414 1.524 . S
C418 H430 0.956 . S
C418 H431 0.961 . S
C418 H432 0.961 . S
C419 C416 1.539 1_556 S
C419 H433 0.958 . S
C419 H434 0.961 . S
C419 H435 0.960 . S
H420 C404 0.931 . S
H421 C409 0.929 . S
H422 C410 0.959 . S
H423 C410 0.960 . S
H424 C410 0.962 1_556 S
H425 C411 0.961 . S
H426 C411 0.961 1_554 S
H427 C411 0.961 . S
H428 C412 0.931 . S
H429 C417 0.930 . S
H430 C418 0.956 . S
H431 C418 0.961 . S
H432 C418 0.961 . S
H433 C419 0.958 . S
H434 C419 0.961 . S
H435 C419 0.960 . S
C436 C437 1.391 . S
C436 C438 1.394 . S
C436 H452 0.931 . S
C437 C436 1.391 . S
C437 C441 1.376 . S
C438 C436 1.394 . S
C438 C439 1.369 . S
C438 C442 1.531 1_455 S
C439 C438 1.369 . S
C439 C440 1.410 . S
C439 C447 1.503 1_455 S
C440 C439 1.410 . S
C440 C441 1.392 . S
C440 C443 1.511 . S
C441 C437 1.376 . S
C441 C440 1.392 . S
C441 H453 0.929 . S
C442 C438 1.531 1_655 S
C442 H454 0.960 . S
C442 H455 0.962 . S
C442 H456 0.960 1_655 S
C443 C440 1.511 . S
C443 H457 0.961 . S
C443 H458 0.961 . S
C443 H459 0.961 . S
C444 C445 1.370 . S
C444 C446 1.363 . S
C444 H460 0.931 . S
C445 C444 1.370 . S
C445 C449 1.408 . S
C446 C444 1.363 . S
C446 C447 1.370 . S
C446 C450 1.524 . S
C447 C439 1.503 1_655 S
C447 C446 1.370 . S
C447 C448 1.401 1_655 S
C448 C447 1.401 1_455 S
C448 C449 1.391 1_455 S
C448 C451 1.554 . S
C449 C445 1.408 . S
C449 C448 1.391 1_655 S
C449 H461 0.930 . S
C450 C446 1.524 . S
C450 H462 0.956 . S
C450 H463 0.961 . S
C450 H464 0.961 . S
C451 C448 1.554 . S
C451 H465 0.958 . S
C451 H466 0.961 . S
C451 H467 0.960 . S
H452 C436 0.931 . S
H453 C441 0.929 . S
H454 C442 0.960 . S
H455 C442 0.962 . S
H456 C442 0.960 1_455 S
H457 C443 0.961 . S
H458 C443 0.961 . S
H459 C443 0.961 . S
H460 C444 0.931 . S
H461 C449 0.930 . S
H462 C450 0.956 . S
H463 C450 0.961 . S
H464 C450 0.961 . S
H465 C451 0.958 . S
H466 C451 0.961 . S
H467 C451 0.960 . S
C85 C0 1.088 . S
C93 C61 1.056 . S
C117 C14 1.023 . S
C125 C70 1.074 . S
C149 C5 1.074 . S
C157 C33 1.049 . S
C181 C47 1.072 . S
C189 C19 1.074 . S
C213 C56 1.018 . S
C221 C28 1.043 . S
C245 C42 1.088 . S
C253 C75 1.056 . S
C277 C51 1.367 . S
C285 C9 1.376 . S
C309 C67 1.401 . S
C317 C23 1.419 . S
C341 C79 1.403 . S
C349 C39 1.397 . S
C373 C11 1.392 . S
C381 C53 1.401 . S
C405 C25 1.394 . S
C413 C65 1.403 . S
C437 C81 1.383 . S
C445 C37 1.416 . S
