# Generated by pormake.
# Topology utp, (3)-cn, num edge types: 1
# Building blocks:
#     Node 0, Type 0, BuildingBlock: WUSLED_clean_sbu_0, # of connection points: 3
#     Node 1, Type 0, BuildingBlock: WUSLED_clean_sbu_0, # of connection points: 3
#     Node 2, Type 0, BuildingBlock: WUSLED_clean_sbu_0, # of connection points: 3
#     Node 3, Type 0, BuildingBlock: WUSLED_clean_sbu_0, # of connection points: 3
#     Node 4, Type 0, BuildingBlock: WUSLED_clean_sbu_0, # of connection points: 3
#     Node 5, Type 0, BuildingBlock: WUSLED_clean_sbu_0, # of connection points: 3
#     Node 6, Type 0, BuildingBlock: WUSLED_clean_sbu_0, # of connection points: 3
#     Node 7, Type 0, BuildingBlock: WUSLED_clean_sbu_0, # of connection points: 3
#     Edge 8, Type (0, 0), BuildingBlock: AJUNOK_clean_linker_0, # of connection points: 2
#     Edge 9, Type (0, 0), BuildingBlock: AJUNOK_clean_linker_0, # of connection points: 2
#     Edge 10, Type (0, 0), BuildingBlock: AJUNOK_clean_linker_0, # of connection points: 2
#     Edge 11, Type (0, 0), BuildingBlock: AJUNOK_clean_linker_0, # of connection points: 2
#     Edge 12, Type (0, 0), BuildingBlock: AJUNOK_clean_linker_0, # of connection points: 2
#     Edge 13, Type (0, 0), BuildingBlock: AJUNOK_clean_linker_0, # of connection points: 2
#     Edge 14, Type (0, 0), BuildingBlock: AJUNOK_clean_linker_0, # of connection points: 2
#     Edge 15, Type (0, 0), BuildingBlock: AJUNOK_clean_linker_0, # of connection points: 2
#     Edge 16, Type (0, 0), BuildingBlock: AJUNOK_clean_linker_0, # of connection points: 2
#     Edge 17, Type (0, 0), BuildingBlock: AJUNOK_clean_linker_0, # of connection points: 2
#     Edge 18, Type (0, 0), BuildingBlock: AJUNOK_clean_linker_0, # of connection points: 2
#     Edge 19, Type (0, 0), BuildingBlock: AJUNOK_clean_linker_0, # of connection points: 2
# Relax obj value: 0.000
# Max RMSD: 0.002
# Mean RMSD: 0.002
data_MOF--net-utp--node1-WUSLED_clean_sbu_0--edge1-AJUNOK_clean_linker_0
_symmetry_space_group_name_H-M    P1
_symmetry_Int_Tables_number       1
_symmetry_cell_setting            triclinic
loop_
_symmetry_equiv_pos_as_xyz
'x, y, z'
_cell_length_a     63.880899
_cell_length_b     56.094512
_cell_length_c     16.48439
_cell_angle_alpha  90.168663
_cell_angle_beta   90.525992
_cell_angle_gamma 90.141515
loop_
_atom_site_label
_atom_site_type_symbol
_atom_site_fract_x
_atom_site_fract_y
_atom_site_fract_z
_atom_type_partial_charge
C0 C 0.09265 0.09536 0.07165 0.0
C1 C 0.09782 0.07142 0.05714 0.0
C2 C 0.06109 0.062 0.02903 0.0
C3 C 0.08217 0.05487 0.03616 0.0
C4 C 0.05604 0.08597 0.04442 0.0
C5 C 0.07167 0.10247 0.06535 0.0
U6 U 0.14976 0.11421 0.11215 0.0
O7 O 0.16634 0.14677 0.07451 0.0
O8 O 0.1627 0.13895 0.20389 0.0
C9 C 0.16881 0.15451 0.14938 0.0
C10 C 0.10882 0.11319 0.09282 0.0
C11 C 0.16403 0.1801 0.16462 0.0
C12 C 0.15508 0.21253 0.25718 0.0
C13 C 0.15724 0.1881 0.24105 0.0
C14 C 0.16615 0.22154 0.12075 0.0
C15 C 0.15971 0.22956 0.19744 0.0
C16 C 0.16832 0.19716 0.10463 0.0
C17 C 0.19347 0.0667 0.09444 0.0
C18 C 0.22874 0.06732 0.152 0.0
C19 C 0.21996 0.03929 0.04498 0.0
C20 C 0.19956 0.04826 0.04218 0.0
C21 C 0.23474 0.04845 0.10074 0.0
C22 C 0.20828 0.07636 0.14899 0.0
C23 C 0.1715 0.07489 0.0919 0.0
O24 O 0.11821 0.11037 0.16342 0.0
O25 O 0.12183 0.11876 0.03453 0.0
O26 O 0.16643 0.08923 0.03202 0.0
O27 O 0.16314 0.08111 0.16142 0.0
H28 H 0.11393 0.06557 0.06206 0.0
H29 H 0.08652 0.03645 0.02628 0.0
H30 H 0.04001 0.09205 0.03917 0.0
H31 H 0.06738 0.12087 0.07629 0.0
H32 H 0.15051 0.2181 0.31742 0.0
H33 H 0.15414 0.17554 0.28928 0.0
H34 H 0.1698 0.23419 0.07337 0.0
H35 H 0.17389 0.19169 0.04556 0.0
H36 H 0.23979 0.07483 0.19536 0.0
H37 H 0.22421 1.02526 0.00306 0.0
H38 H 0.18843 0.04065 -0.00075 0.0
H39 H 0.20398 0.09069 0.18969 0.0
C40 C 0.46321 0.96704 0.07413 0.0
C41 C 0.45845 0.9914 0.06822 0.0
C42 C 0.49452 1.00024 0.03009 0.0
C43 C 0.47399 1.00786 0.0466 0.0
C44 C 0.49915 0.97581 0.03637 0.0
C45 C 0.48364 0.95939 0.05803 0.0
U46 U 0.40642 0.94836 0.11781 0.0
O47 O 0.3898 0.9152 0.08598 0.0
O48 O 0.39419 0.925 0.21404 0.0
C49 C 0.3876 0.90876 0.16209 0.0
C50 C 0.44723 0.94936 0.09749 0.0
C51 C 0.39238 0.88363 0.18222 0.0
C52 C 0.40892 0.84547 0.15272 0.0
C53 C 0.40621 0.86979 0.13585 0.0
C54 C 0.38449 0.84862 0.26356 0.0
C55 C 0.39801 0.83458 0.21661 0.0
C56 C 0.38174 0.87284 0.24656 0.0
C57 C 0.36215 0.99485 0.09654 0.0
C58 C 0.32735 0.99336 0.1555 0.0
C59 C 0.3345 1.02082 0.04614 0.0
C60 C 0.35518 1.01269 0.04341 0.0
C61 C 0.3203 1.01126 0.10213 0.0
C62 C 0.34805 0.98515 0.1525 0.0
C63 C 0.38426 0.9872 0.09331 0.0
O64 O 0.43824 0.95295 0.16788 0.0
O65 O 0.43392 0.943 0.04011 0.0
O66 O 0.38897 0.97212 0.03516 0.0
O67 O 0.39334 0.98208 0.163 0.0
H68 H 0.44278 0.99767 0.08073 0.0
H69 H 0.46999 1.0266 0.04386 0.0
H70 H 0.51475 0.96934 0.02373 0.0
H71 H 0.48762 0.94067 0.06225 0.0
H72 H 0.41943 0.83511 0.11546 0.0
H73 H 0.41462 0.87764 0.08577 0.0
H74 H 0.37548 0.84071 0.31193 0.0
H75 H 0.37085 0.88307 0.28263 0.0
H76 H 0.31695 0.98595 0.20046 0.0
H77 H 0.32957 0.03451 0.00393 0.0
H78 H 0.36579 1.02043 -0.0002 0.0
H79 H 0.35308 0.9714 0.1943 0.0
C80 C 0.09363 0.46381 0.41598 0.0
C81 C 0.09647 0.48848 0.40624 0.0
C82 C 0.06123 0.4959 0.45657 0.0
C83 C 0.08041 0.50438 0.42647 0.0
C84 C 0.0587 0.47122 0.46786 0.0
C85 C 0.07472 0.45536 0.44754 0.0
U86 U 0.1505 0.44628 0.36667 0.0
O87 O 0.16778 0.41366 0.39848 0.0
O88 O 0.16217 0.4225 0.27054 0.0
C89 C 0.16925 0.40664 0.32251 0.0
C90 C 0.1099 0.44653 0.39234 0.0
C91 C 0.16449 0.38125 0.30393 0.0
C92 C 0.15521 0.34093 0.34617 0.0
C93 C 0.15744 0.36531 0.36365 0.0
C94 C 0.16658 0.34801 0.20875 0.0
C95 C 0.15996 0.33195 0.26868 0.0
C96 C 0.16884 0.37231 0.22622 0.0
C97 C 0.19426 0.49427 0.37688 0.0
C98 C 0.23137 0.49186 0.41176 0.0
C99 C 0.21855 0.52496 0.33187 0.0
C100 C 0.19827 0.5155 0.33489 0.0
C101 C 0.23529 0.51349 0.37152 0.0
C102 C 0.21107 0.48234 0.4145 0.0
C103 C 0.17236 0.48582 0.38406 0.0
O104 O 0.11823 0.44964 0.32048 0.0
O105 O 0.12378 0.44111 0.44862 0.0
O106 O 0.16823 0.47125 0.44427 0.0
O107 O 0.16275 0.47987 0.31607 0.0
H108 H 0.111 0.49539 0.38229 0.0
H109 H 0.08285 0.52329 0.41721 0.0
H110 H 0.04435 0.46414 0.49277 0.0
H111 H 0.07227 0.43642 0.45608 0.0
H112 H 0.15046 0.329 0.39418 0.0
H113 H 0.15413 0.37152 0.42445 0.0
H114 H 0.17028 0.34171 0.14839 0.0
H115 H 0.17449 0.38409 0.17921 0.0
H116 H 0.24393 0.48257 0.44282 0.0
H117 H 0.2211 0.54132 0.29862 0.0
H118 H 0.1856 0.525 0.3052 0.0
H119 H 0.2085 0.46588 0.44718 0.0
C120 C 0.4623 0.60023 0.40753 0.0
C121 C 0.45694 0.57822 0.44208 0.0
C122 C 0.49389 0.56757 0.45373 0.0
C123 C 0.47259 0.56203 0.46498 0.0
C124 C 0.49912 0.58951 0.41803 0.0
C125 C 0.48347 0.60568 0.39537 0.0
U126 U 0.40525 0.61804 0.36383 0.0
O127 O 0.38836 0.65075 0.39663 0.0
O128 O 0.39236 0.64143 0.26834 0.0
C129 C 0.38569 0.65733 0.32075 0.0
C130 C 0.44615 0.61776 0.38425 0.0
C131 C 0.39025 0.68255 0.30209 0.0
C132 C 0.41098 0.71878 0.31914 0.0
C133 C 0.4079 0.6944 0.33416 0.0
C134 C 0.37915 0.71955 0.23835 0.0
C135 C 0.39646 0.73171 0.27187 0.0
C136 C 0.37607 0.69527 0.25346 0.0
C137 C 0.36185 0.57031 0.38363 0.0
C138 C 0.32567 0.57445 0.33825 0.0
C139 C 0.3359 0.5404 0.41924 0.0
C140 C 0.35648 0.54898 0.42244 0.0
C141 C 0.32022 0.55302 0.37725 0.0
C142 C 0.34631 0.58306 0.34158 0.0
C143 C 0.3838 0.57856 0.38711 0.0
O144 O 0.43693 0.61415 0.31367 0.0
O145 O 0.433 0.62386 0.44152 0.0
O146 O 0.3885 0.59367 0.44559 0.0
O147 O 0.39233 0.58419 0.31745 0.0
H148 H 0.44066 0.57359 0.45139 0.0
H149 H 0.46803 0.54508 0.49078 0.0
H150 H 0.51535 0.59431 0.4087 0.0
H151 H 0.48793 0.62256 0.36867 0.0
H152 H 0.42468 0.72752 0.34455 0.0
H153 H 0.41913 0.68489 0.37148 0.0
H154 H 0.36765 0.72897 0.20202 0.0
H155 H 0.36235 0.68648 0.2282 0.0
H156 H 0.31405 0.58439 0.30423 0.0
H157 H 0.33221 0.52395 0.4503 0.0
H158 H 0.36825 0.53889 0.45523 0.0
H159 H 0.35015 0.59954 0.31099 0.0
C160 C 0.9617 0.96225 0.90347 0.0
C161 C 0.95715 0.98636 0.91785 0.0
C162 C 0.9942 0.99473 0.94298 0.0
C163 C 0.97327 1.00246 0.93765 0.0
C164 C 0.99856 0.97048 0.92949 0.0
C165 C 0.98248 0.95444 0.90977 0.0
U166 U 0.90416 0.94508 0.86307 0.0
O167 O 0.8907 0.92188 0.76761 0.0
O168 O 0.88717 0.91238 0.8958 0.0
C169 C 0.88414 0.90593 0.81984 0.0
C170 C 0.94513 0.94499 0.88142 0.0
C171 C 0.88843 0.88073 0.79968 0.0
C172 C 0.90871 0.84421 0.81431 0.0
C173 C 0.90582 0.86851 0.83163 0.0
C174 C 0.87717 0.84427 0.73175 0.0
C175 C 0.89427 0.83176 0.76475 0.0
C176 C 0.87428 0.86845 0.74916 0.0
C177 C 0.86112 0.99288 0.88497 0.0
C178 C 0.8252 0.98975 0.83518 0.0
C179 C 0.83504 1.02196 0.92604 0.0
C180 C 0.85557 1.01331 0.92892 0.0
C181 C 0.81959 1.0103 0.8792 0.0
C182 C 0.84578 0.98107 0.83823 0.0
C183 C 0.88305 0.98464 0.88784 0.0
O184 O 0.93213 0.93924 0.93957 0.0
O185 O 0.93567 0.94862 0.81142 0.0
O186 O 0.89148 0.97903 0.8179 0.0
O187 O 0.88778 0.96953 0.94593 0.0
H188 H 0.94118 0.99272 0.91339 0.0
H189 H 0.96941 1.02102 0.9477 0.0
H190 H 1.01442 0.96385 0.93493 0.0
H191 H 0.98628 0.93587 0.8994 0.0
H192 H 0.92224 0.83519 0.8395 0.0
H193 H 0.91702 0.87768 0.87043 0.0
H194 H 0.86572 0.83521 0.69377 0.0
H195 H 0.86076 0.87752 0.72398 0.0
H196 H 0.81378 0.9806 0.7974 0.0
H197 H 0.83122 0.03771 0.961 0.0
H198 H 0.86717 1.02268 0.96537 0.0
H199 H 0.84974 0.96529 0.80365 0.0
C200 C 0.59331 0.09995 0.90561 0.0
C201 C 0.59749 0.07543 0.91053 0.0
C202 C 0.56102 0.06748 0.94502 0.0
C203 C 0.58148 0.05933 0.93025 0.0
C204 C 0.55707 0.09211 0.94121 0.0
C205 C 0.57305 0.10815 0.92152 0.0
U206 U 0.65047 0.11736 0.86154 0.0
O207 O 0.66289 0.14082 0.76608 0.0
O208 O 0.66771 0.15007 0.89441 0.0
C209 C 0.66988 0.15672 0.81849 0.0
C210 C 0.6097 0.11726 0.88331 0.0
C211 C 0.66563 0.18204 0.79905 0.0
C212 C 0.65102 0.22103 0.83155 0.0
C213 C 0.65312 0.19661 0.8484 0.0
C214 C 0.67343 0.21649 0.71497 0.0
C215 C 0.66135 0.2313 0.76503 0.0
C216 C 0.67553 0.19219 0.73182 0.0
C217 C 0.69397 0.06941 0.87564 0.0
C218 C 0.73069 0.07087 0.91723 0.0
C219 C 0.71855 0.03957 0.82699 0.0
C220 C 0.69831 0.04904 0.82908 0.0
C221 C 0.73493 0.05011 0.87215 0.0
C222 C 0.71043 0.08042 0.91908 0.0
C223 C 0.67204 0.07787 0.8812 0.0
O224 O 0.62327 0.12281 0.94076 0.0
O225 O 0.61846 0.1139 0.81235 0.0
O226 O 0.66277 0.0836 0.81247 0.0
O227 O 0.66763 0.09258 0.94092 0.0
H228 H 0.61307 0.06875 0.89866 0.0
H229 H 0.58502 0.04048 0.93278 0.0
H230 H 0.54164 0.09903 0.95411 0.0
H231 H 0.56955 0.12702 0.91857 0.0
H232 H 0.64186 0.23199 0.87203 0.0
H233 H 0.64534 0.18929 0.90087 0.0
H234 H 0.68145 0.22378 0.66297 0.0
H235 H 0.6853 0.18136 0.69301 0.0
H236 H 0.74295 0.07943 0.95265 0.0
H237 H 0.72138 1.02393 0.79004 0.0
H238 H 0.68593 0.04024 0.79496 0.0
H239 H 0.70762 0.09617 0.9555 0.0
C240 C 0.96276 0.59613 0.57732 0.0
C241 C 0.95925 0.57161 0.58768 0.0
C242 C 0.9943 0.56281 0.53779 0.0
C243 C 0.97491 0.5551 0.56839 0.0
C244 C 0.9977 0.58741 0.52784 0.0
C245 C 0.98208 0.60387 0.5473 0.0
U246 U 0.9058 0.61436 0.61839 0.0
O247 O 0.89322 0.63974 0.70741 0.0
O248 O 0.8885 0.64616 0.57722 0.0
C249 C 0.88621 0.6544 0.65133 0.0
C250 C 0.94658 0.61392 0.59712 0.0
C251 C 0.89039 0.68014 0.66366 0.0
C252 C 0.91014 0.71302 0.7243 0.0
C253 C 0.90767 0.68853 0.70894 0.0
C254 C 0.87844 0.72105 0.64771 0.0
C255 C 0.89539 0.72954 0.69465 0.0
C256 C 0.87596 0.69665 0.63263 0.0
C257 C 0.86232 0.56657 0.60929 0.0
C258 C 0.82494 0.57481 0.60528 0.0
C259 C 0.83709 0.53412 0.61778 0.0
C260 C 0.85784 0.54219 0.61667 0.0
C261 C 0.82039 0.55029 0.61105 0.0
C262 C 0.84573 0.58289 0.60438 0.0
C263 C 0.88434 0.57441 0.60455 0.0
O264 O 0.93307 0.61865 0.53878 0.0
O265 O 0.93777 0.61181 0.66856 0.0
O266 O 0.89307 0.58158 0.67292 0.0
O267 O 0.88898 0.58811 0.54269 0.0
H268 H 0.94444 0.56526 0.61089 0.0
H269 H 0.97192 0.53633 0.57829 0.0
H270 H 1.01239 0.59392 0.50406 0.0
H271 H 0.98508 0.62271 0.53872 0.0
H272 H 0.92356 0.71903 0.75943 0.0
H273 H 0.91911 0.67617 0.73328 0.0
H274 H 0.86675 0.73325 0.62435 0.0
H275 H 0.86248 0.69061 0.59783 0.0
H276 H 0.81242 0.58775 0.60164 0.0
H277 H 0.83411 0.51515 0.62214 0.0
H278 H 0.87043 0.52932 0.62057 0.0
H279 H 0.84887 0.60181 0.59919 0.0
C280 C 0.59217 0.46751 0.58189 0.0
C281 C 0.59726 0.48984 0.54912 0.0
C282 C 0.56028 0.50073 0.54439 0.0
C283 C 0.58144 0.50627 0.53023 0.0
C284 C 0.55531 0.47833 0.57729 0.0
C285 C 0.57111 0.46192 0.59592 0.0
U286 U 0.64941 0.44905 0.61885 0.0
O287 O 0.6627 0.42394 0.70771 0.0
O288 O 0.66619 0.41699 0.57743 0.0
C289 C 0.66896 0.40892 0.65155 0.0
C290 C 0.60845 0.44967 0.60063 0.0
C291 C 0.66467 0.38318 0.66449 0.0
C292 C 0.65025 0.35047 0.74402 0.0
C293 C 0.65215 0.37497 0.72856 0.0
C294 C 0.67288 0.34194 0.63075 0.0
C295 C 0.66079 0.33366 0.69578 0.0
C296 C 0.67481 0.36637 0.61544 0.0
C297 C 0.69261 0.49729 0.60626 0.0
C298 C 0.73009 0.48983 0.61491 0.0
C299 C 0.71734 0.53026 0.6014 0.0
C300 C 0.69674 0.52177 0.6005 0.0
C301 C 0.73429 0.5144 0.60766 0.0
C302 C 0.70941 0.48133 0.61399 0.0
C303 C 0.6707 0.48897 0.60286 0.0
O304 O 0.6214 0.44465 0.54152 0.0
O305 O 0.6179 0.45199 0.67139 0.0
O306 O 0.66262 0.48197 0.67188 0.0
O307 O 0.66573 0.47493 0.54165 0.0
H308 H 0.61344 0.49452 0.5379 0.0
H309 H 0.58576 0.5234 0.50509 0.0
H310 H 0.53917 0.47331 0.58739 0.0
H311 H 0.56685 0.44473 0.62076 0.0
H312 H 0.64111 0.34473 0.79543 0.0
H313 H 0.64425 0.38745 0.76799 0.0
H314 H 0.6811 0.32949 0.59216 0.0
H315 H 0.68468 0.37216 0.5661 0.0
H316 H 0.74282 0.47719 0.6199 0.0
H317 H 0.72001 0.5493 0.59765 0.0
H318 H 0.68398 0.53437 0.59502 0.0
H319 H 0.70652 0.46234 0.61869 0.0
C320 C 0.17609 0.27028 0.19468 0.0
C321 C 0.15908 0.25564 0.216 0.0
C322 C 0.17616 0.2948 0.21184 0.0
C323 C 0.15922 0.30581 0.25108 0.0
H324 H 0.18965 0.26267 0.16546 0.0
H325 H 0.18978 0.30518 0.1952 0.0
S326 S 0.11023 0.27581 0.31484 0.0
N327 N 0.12443 0.25417 0.27546 0.0
N328 N 0.12454 0.30026 0.30763 0.0
C329 C 0.14202 0.29144 0.27216 0.0
C330 C 0.14195 0.2664 0.25468 0.0
C331 C 0.39691 0.79221 0.16678 0.0
C332 C 0.39967 0.80841 0.23142 0.0
C333 C 0.39639 0.76748 0.18014 0.0
C334 C 0.39885 0.7579 0.25856 0.0
H335 H 0.39441 0.79871 0.10565 0.0
H336 H 0.3938 0.75576 0.12866 0.0
S337 S 0.40774 0.79259 0.44789 0.0
N338 N 0.40596 0.81303 0.37626 0.0
N339 N 0.40474 0.76666 0.40149 0.0
C340 C 0.40227 0.77387 0.32338 0.0
C341 C 0.4027 0.79906 0.30981 0.0
C342 C 0.89414 0.797 0.66815 0.0
C343 C 0.89658 0.80572 0.74789 0.0
C344 C 0.89441 0.77245 0.6513 0.0
C345 C 0.89714 0.75553 0.71344 0.0
H346 H 0.89176 0.80926 0.6183 0.0
H347 H 0.89222 0.76664 0.58906 0.0
S348 S 0.90375 0.76894 0.93281 0.0
N349 N 0.90166 0.79539 0.8898 0.0
N350 N 0.90218 0.7493 0.85816 0.0
C351 C 0.90001 0.764 0.79328 0.0
C352 C 0.89973 0.78904 0.81046 0.0
C353 C 0.67904 0.29459 0.71737 0.0
C354 C 0.66025 0.30767 0.7152 0.0
C355 C 0.67918 0.27009 0.73407 0.0
C356 C 0.66053 0.2575 0.74942 0.0
H357 H 0.69385 0.30343 0.70666 0.0
H358 H 0.69409 0.26094 0.73555 0.0
S359 S 0.607 0.28306 0.74749 0.0
N360 N 0.62239 0.30599 0.72778 0.0
N361 N 0.62265 0.2599 0.75925 0.0
C362 C 0.64161 0.27032 0.74769 0.0
C363 C 0.64147 0.29536 0.7306 0.0
C364 C 0.29437 0.04495 0.1038 0.0
C365 C 0.29832 1.02025 0.10476 0.0
C366 C 0.27384 0.05391 0.10397 0.0
C367 C 0.2564 0.03853 0.10444 0.0
H368 H 0.30727 0.05753 0.10304 0.0
H369 H 0.27163 0.07303 0.10209 0.0
S370 S 0.25812 0.97239 0.10896 0.0
N371 N 0.28295 0.98057 0.10674 0.0
N372 N 0.24448 0.99735 0.10886 0.0
C373 C 0.26012 1.0138 0.10654 0.0
C374 C 0.28102 1.00468 0.10644 0.0
C375 C 0.29463 0.5194 0.35558 0.0
C376 C 0.29835 0.54359 0.37407 0.0
C377 C 0.27427 0.50987 0.35444 0.0
C378 C 0.25675 0.52413 0.37172 0.0
H379 H 0.30758 0.50772 0.34137 0.0
H380 H 0.27222 0.4912 0.33931 0.0
S381 S 0.25807 0.58817 0.42938 0.0
N382 N 0.28282 0.58134 0.41348 0.0
N383 N 0.24463 0.56349 0.41154 0.0
C384 C 0.26026 0.54833 0.39076 0.0
C385 C 0.281 0.55802 0.39185 0.0
C386 C 0.77408 0.05398 0.86208 0.0
C387 C 0.75633 0.03944 0.87288 0.0
C388 C 0.79438 0.0444 0.86358 0.0
C389 C 0.7978 1.01987 0.87599 0.0
H390 H 0.77226 0.07292 0.85168 0.0
H391 H 0.80751 0.0563 0.85434 0.0
S392 S 0.75678 0.97436 0.91337 0.0
N393 N 0.74363 0.99938 0.90028 0.0
N394 N 0.78171 0.98143 0.90294 0.0
C395 C 0.78021 1.00515 0.8874 0.0
C396 C 0.75953 1.0149 0.88593 0.0
C397 C 0.77082 0.51608 0.66604 0.0
C398 C 0.75625 0.52354 0.60681 0.0
C399 C 0.79145 0.52486 0.66721 0.0
C400 C 0.79834 0.54145 0.60923 0.0
H401 H 0.76615 0.50361 0.71261 0.0
H402 H 0.80204 0.51879 0.7145 0.0
S403 S 0.76695 0.56492 0.43676 0.0
N404 N 0.7506 0.54735 0.48563 0.0
N405 N 0.78926 0.56382 0.48795 0.0
C406 C 0.78403 0.54874 0.5489 0.0
C407 C 0.76305 0.53979 0.54765 0.0
C408 C 1.00946 1.02762 0.02938 0.0
C409 C 1.01141 1.01185 0.96331 0.0
C410 C 1.02558 0.04366 0.05032 0.0
C411 C 0.04432 0.0446 0.00602 0.0
H412 H 0.99546 1.02736 0.06597 0.0
H413 H 1.02343 0.05524 0.10225 0.0
S414 S 0.05651 1.00858 0.82335 0.0
N415 N 0.03312 0.99917 0.85086 0.0
N416 N 0.06334 1.02925 0.8901 0.0
C417 C 0.04635 1.02916 0.93912 0.0
C418 C 0.02994 1.01284 0.9178 0.0
C419 C 0.53105 1.0167 0.04511 0.0
C420 C 0.5112 1.01761 0.00723 0.0
C421 C 0.54705 0.03274 0.02441 0.0
C422 C 0.54388 0.05038 0.96502 0.0
H423 H 0.53417 1.00364 0.09195 0.0
H424 H 0.56195 0.03153 0.05607 0.0
S425 S 0.49544 0.05904 0.84265 0.0
N426 N 0.48973 0.03678 0.90401 0.0
N427 N 0.51973 0.06688 0.86525 0.0
C428 C 0.52422 0.05127 0.92582 0.0
C429 C 0.50793 0.03493 0.94687 0.0
C430 C 0.03185 0.54932 0.54265 0.0
C431 C 1.01105 0.54538 0.51663 0.0
C432 C 0.04794 0.53335 0.52285 0.0
C433 C 0.04391 0.51274 0.47627 0.0
H434 H 0.03571 0.56478 0.57945 0.0
H435 H 0.06363 0.53701 0.54512 0.0
S436 S 0.99253 0.4952 0.38726 0.0
N437 N 0.98759 0.51997 0.43785 0.0
N438 N 1.01774 0.48999 0.40082 0.0
C439 C 1.02324 0.50874 0.44895 0.0
C440 C 1.00686 0.52501 0.46908 0.0
C441 C 0.52696 0.54493 0.42465 0.0
C442 C 0.51068 0.55054 0.4785 0.0
C443 C 0.54297 0.52901 0.4466 0.0
C444 C 0.54338 0.51804 0.52331 0.0
H445 H 0.52717 0.55268 0.36454 0.0
H446 H 0.55496 0.52497 0.40261 0.0
S447 S 0.50557 0.52837 0.68928 0.0
N448 N 0.49673 0.54494 0.6138 0.0
N449 N 0.52677 0.51507 0.65497 0.0
C450 C 0.52741 0.5238 0.57822 0.0
C451 C 0.5111 0.54001 0.55587 0.0
loop_
_geom_bond_atom_site_label_1
_geom_bond_atom_site_label_2
_geom_bond_distance
_geom_bond_site_symmetry_2
_ccdc_geom_bond_type
C0 C1 1.264 . S
C0 C5 1.479 . S
C0 C10 1.465 . S
C1 C0 1.264 . S
C1 C3 1.339 . S
C1 H28 0.931 . S
C2 C3 1.395 . S
C2 C4 1.320 . S
C3 C1 1.339 . S
C3 C2 1.395 . S
C3 H29 0.929 . S
C4 C2 1.320 . S
C4 C5 1.405 . S
C4 H30 0.930 . S
C5 C0 1.479 . S
C5 C4 1.405 . S
C5 H31 0.931 . S
U6 O7 2.454 . S
U6 O8 2.458 . S
U6 C9 2.984 . S
U6 C10 2.847 . S
U6 C23 2.882 . S
U6 O24 2.441 . S
U6 O25 2.420 . S
U6 O26 2.455 . S
U6 O27 2.449 . S
O7 U6 2.454 . S
O7 C9 1.353 . S
O8 U6 2.458 . S
O8 C9 1.286 . S
C9 U6 2.984 . S
C9 O7 1.353 . S
C9 O8 1.286 . S
C9 C11 1.363 . S
C10 C0 1.465 . S
C10 U6 2.847 . S
C10 O24 1.249 . S
C10 O25 1.202 . S
C11 C9 1.363 . S
C11 C13 1.408 . S
C11 C16 1.342 . S
C12 C13 1.310 . S
C12 C15 1.461 . S
C12 H32 0.932 . S
C13 C11 1.408 . S
C13 C12 1.310 . S
C13 H33 0.930 . S
C14 C15 1.474 . S
C14 C16 1.285 . S
C14 H34 0.929 . S
C15 C12 1.461 . S
C15 C14 1.474 . S
C16 C11 1.342 . S
C16 C14 1.285 . S
C16 H35 0.930 . S
C17 C20 1.424 . S
C17 C22 1.245 . S
C17 C23 1.428 . S
C18 C21 1.260 . S
C18 C22 1.477 . S
C18 H36 0.932 . S
C19 C20 1.384 . S
C19 C21 1.479 . S
C19 H37 0.920 1_545 S
C20 C17 1.424 . S
C20 C19 1.384 . S
C20 H38 0.928 . S
C21 C18 1.260 . S
C21 C19 1.479 . S
C22 C17 1.245 . S
C22 C18 1.477 . S
C22 H39 0.932 . S
C23 U6 2.882 . S
C23 C17 1.428 . S
C23 O26 1.301 . S
C23 O27 1.282 . S
O24 U6 2.441 . S
O24 C10 1.249 . S
O25 U6 2.420 . S
O25 C10 1.202 . S
O26 U6 2.455 . S
O26 C23 1.301 . S
O27 U6 2.449 . S
O27 C23 1.282 . S
H28 C1 0.931 . S
H29 C3 0.929 . S
H30 C4 0.930 . S
H31 C5 0.931 . S
H32 C12 0.932 . S
H33 C13 0.930 . S
H34 C14 0.929 . S
H35 C16 0.930 . S
H36 C18 0.932 . S
H37 C19 0.920 1_565 S
H38 C20 0.928 . S
H39 C22 0.932 . S
C40 C41 1.264 . S
C40 C45 1.479 . S
C40 C50 1.465 . S
C41 C40 1.264 . S
C41 C43 1.339 . S
C41 H68 0.931 . S
C42 C43 1.395 . S
C42 C44 1.320 . S
C43 C41 1.339 . S
C43 C42 1.395 . S
C43 H69 0.929 . S
C44 C42 1.320 . S
C44 C45 1.405 . S
C44 H70 0.930 . S
C45 C40 1.479 . S
C45 C44 1.405 . S
C45 H71 0.931 . S
U46 O47 2.454 . S
U46 O48 2.458 . S
U46 C49 2.984 . S
U46 C50 2.847 . S
U46 C63 2.882 . S
U46 O64 2.441 . S
U46 O65 2.420 . S
U46 O66 2.455 . S
U46 O67 2.449 . S
O47 U46 2.454 . S
O47 C49 1.353 . S
O48 U46 2.458 . S
O48 C49 1.286 . S
C49 U46 2.984 . S
C49 O47 1.353 . S
C49 O48 1.286 . S
C49 C51 1.363 . S
C50 C40 1.465 . S
C50 U46 2.847 . S
C50 O64 1.249 . S
C50 O65 1.202 . S
C51 C49 1.363 . S
C51 C53 1.408 . S
C51 C56 1.342 . S
C52 C53 1.310 . S
C52 C55 1.461 . S
C52 H72 0.932 . S
C53 C51 1.408 . S
C53 C52 1.310 . S
C53 H73 0.930 . S
C54 C55 1.474 . S
C54 C56 1.285 . S
C54 H74 0.929 . S
C55 C52 1.461 . S
C55 C54 1.474 . S
C56 C51 1.342 . S
C56 C54 1.285 . S
C56 H75 0.930 . S
C57 C60 1.424 . S
C57 C62 1.245 . S
C57 C63 1.428 . S
C58 C61 1.260 . S
C58 C62 1.477 . S
C58 H76 0.932 . S
C59 C60 1.384 . S
C59 C61 1.479 . S
C59 H77 0.920 1_565 S
C60 C57 1.424 . S
C60 C59 1.384 . S
C60 H78 0.928 . S
C61 C58 1.260 . S
C61 C59 1.479 . S
C62 C57 1.245 . S
C62 C58 1.477 . S
C62 H79 0.932 . S
C63 U46 2.882 . S
C63 C57 1.428 . S
C63 O66 1.301 . S
C63 O67 1.282 . S
O64 U46 2.441 . S
O64 C50 1.249 . S
O65 U46 2.420 . S
O65 C50 1.202 . S
O66 U46 2.455 . S
O66 C63 1.301 . S
O67 U46 2.449 . S
O67 C63 1.282 . S
H68 C41 0.931 . S
H69 C43 0.929 . S
H70 C44 0.930 . S
H71 C45 0.931 . S
H72 C52 0.932 . S
H73 C53 0.930 . S
H74 C54 0.929 . S
H75 C56 0.930 . S
H76 C58 0.932 . S
H77 C59 0.920 1_545 S
H78 C60 0.928 . S
H79 C62 0.932 . S
C80 C81 1.264 . S
C80 C85 1.479 . S
C80 C90 1.465 . S
C81 C80 1.264 . S
C81 C83 1.339 . S
C81 H108 0.931 . S
C82 C83 1.395 . S
C82 C84 1.320 . S
C83 C81 1.339 . S
C83 C82 1.395 . S
C83 H109 0.929 . S
C84 C82 1.320 . S
C84 C85 1.405 . S
C84 H110 0.930 . S
C85 C80 1.479 . S
C85 C84 1.405 . S
C85 H111 0.931 . S
U86 O87 2.454 . S
U86 O88 2.458 . S
U86 C89 2.984 . S
U86 C90 2.847 . S
U86 C103 2.882 . S
U86 O104 2.441 . S
U86 O105 2.420 . S
U86 O106 2.455 . S
U86 O107 2.449 . S
O87 U86 2.454 . S
O87 C89 1.353 . S
O88 U86 2.458 . S
O88 C89 1.286 . S
C89 U86 2.984 . S
C89 O87 1.353 . S
C89 O88 1.286 . S
C89 C91 1.363 . S
C90 C80 1.465 . S
C90 U86 2.847 . S
C90 O104 1.249 . S
C90 O105 1.202 . S
C91 C89 1.363 . S
C91 C93 1.408 . S
C91 C96 1.342 . S
C92 C93 1.310 . S
C92 C95 1.461 . S
C92 H112 0.932 . S
C93 C91 1.408 . S
C93 C92 1.310 . S
C93 H113 0.930 . S
C94 C95 1.474 . S
C94 C96 1.285 . S
C94 H114 0.929 . S
C95 C92 1.461 . S
C95 C94 1.474 . S
C96 C91 1.342 . S
C96 C94 1.285 . S
C96 H115 0.930 . S
C97 C100 1.424 . S
C97 C102 1.245 . S
C97 C103 1.428 . S
C98 C101 1.260 . S
C98 C102 1.477 . S
C98 H116 0.932 . S
C99 C100 1.384 . S
C99 C101 1.479 . S
C99 H117 0.929 . S
C100 C97 1.424 . S
C100 C99 1.384 . S
C100 H118 0.928 . S
C101 C98 1.260 . S
C101 C99 1.479 . S
C102 C97 1.245 . S
C102 C98 1.477 . S
C102 H119 0.932 . S
C103 U86 2.882 . S
C103 C97 1.428 . S
C103 O106 1.301 . S
C103 O107 1.282 . S
O104 U86 2.441 . S
O104 C90 1.249 . S
O105 U86 2.420 . S
O105 C90 1.202 . S
O106 U86 2.455 . S
O106 C103 1.301 . S
O107 U86 2.449 . S
O107 C103 1.282 . S
H108 C81 0.931 . S
H109 C83 0.929 . S
H110 C84 0.930 . S
H111 C85 0.931 . S
H112 C92 0.932 . S
H113 C93 0.930 . S
H114 C94 0.929 . S
H115 C96 0.930 . S
H116 C98 0.932 . S
H117 C99 0.929 . S
H118 C100 0.928 . S
H119 C102 0.932 . S
C120 C121 1.264 . S
C120 C125 1.479 . S
C120 C130 1.465 . S
C121 C120 1.264 . S
C121 C123 1.339 . S
C121 H148 0.931 . S
C122 C123 1.395 . S
C122 C124 1.320 . S
C123 C121 1.339 . S
C123 C122 1.395 . S
C123 H149 0.929 . S
C124 C122 1.320 . S
C124 C125 1.405 . S
C124 H150 0.930 . S
C125 C120 1.479 . S
C125 C124 1.405 . S
C125 H151 0.931 . S
U126 O127 2.454 . S
U126 O128 2.458 . S
U126 C129 2.984 . S
U126 C130 2.847 . S
U126 C143 2.882 . S
U126 O144 2.441 . S
U126 O145 2.420 . S
U126 O146 2.455 . S
U126 O147 2.449 . S
O127 U126 2.454 . S
O127 C129 1.353 . S
O128 U126 2.458 . S
O128 C129 1.286 . S
C129 U126 2.984 . S
C129 O127 1.353 . S
C129 O128 1.286 . S
C129 C131 1.363 . S
C130 C120 1.465 . S
C130 U126 2.847 . S
C130 O144 1.249 . S
C130 O145 1.202 . S
C131 C129 1.363 . S
C131 C133 1.408 . S
C131 C136 1.342 . S
C132 C133 1.310 . S
C132 C135 1.461 . S
C132 H152 0.932 . S
C133 C131 1.408 . S
C133 C132 1.310 . S
C133 H153 0.930 . S
C134 C135 1.474 . S
C134 C136 1.285 . S
C134 H154 0.929 . S
C135 C132 1.461 . S
C135 C134 1.474 . S
C136 C131 1.342 . S
C136 C134 1.285 . S
C136 H155 0.930 . S
C137 C140 1.424 . S
C137 C142 1.245 . S
C137 C143 1.428 . S
C138 C141 1.260 . S
C138 C142 1.477 . S
C138 H156 0.932 . S
C139 C140 1.384 . S
C139 C141 1.479 . S
C139 H157 0.929 . S
C140 C137 1.424 . S
C140 C139 1.384 . S
C140 H158 0.928 . S
C141 C138 1.260 . S
C141 C139 1.479 . S
C142 C137 1.245 . S
C142 C138 1.477 . S
C142 H159 0.932 . S
C143 U126 2.882 . S
C143 C137 1.428 . S
C143 O146 1.301 . S
C143 O147 1.282 . S
O144 U126 2.441 . S
O144 C130 1.249 . S
O145 U126 2.420 . S
O145 C130 1.202 . S
O146 U126 2.455 . S
O146 C143 1.301 . S
O147 U126 2.449 . S
O147 C143 1.282 . S
H148 C121 0.931 . S
H149 C123 0.929 . S
H150 C124 0.930 . S
H151 C125 0.931 . S
H152 C132 0.932 . S
H153 C133 0.930 . S
H154 C134 0.929 . S
H155 C136 0.930 . S
H156 C138 0.932 . S
H157 C139 0.929 . S
H158 C140 0.928 . S
H159 C142 0.932 . S
C160 C161 1.264 . S
C160 C165 1.479 . S
C160 C170 1.465 . S
C161 C160 1.264 . S
C161 C163 1.339 . S
C161 H188 0.931 . S
C162 C163 1.395 . S
C162 C164 1.320 . S
C163 C161 1.339 . S
C163 C162 1.395 . S
C163 H189 0.888 1_565 S
C164 C162 1.320 . S
C164 C165 1.405 . S
C164 H190 0.930 . S
C165 C160 1.479 . S
C165 C164 1.405 . S
C165 H191 0.931 . S
U166 O167 2.454 . S
U166 O168 2.458 . S
U166 C169 2.984 . S
U166 C170 2.847 . S
U166 C183 2.882 . S
U166 O184 2.441 . S
U166 O185 2.420 . S
U166 O186 2.455 . S
U166 O187 2.449 . S
O167 U166 2.454 . S
O167 C169 1.353 . S
O168 U166 2.458 . S
O168 C169 1.286 . S
C169 U166 2.984 . S
C169 O167 1.353 . S
C169 O168 1.286 . S
C169 C171 1.363 . S
C170 C160 1.465 . S
C170 U166 2.847 . S
C170 O184 1.249 . S
C170 O185 1.202 . S
C171 C169 1.363 . S
C171 C173 1.408 . S
C171 C176 1.342 . S
C172 C173 1.310 . S
C172 C175 1.461 . S
C172 H192 0.932 . S
C173 C171 1.408 . S
C173 C172 1.310 . S
C173 H193 0.930 . S
C174 C175 1.474 . S
C174 C176 1.285 . S
C174 H194 0.929 . S
C175 C172 1.461 . S
C175 C174 1.474 . S
C176 C171 1.342 . S
C176 C174 1.285 . S
C176 H195 0.930 . S
C177 C180 1.424 . S
C177 C182 1.245 . S
C177 C183 1.428 . S
C178 C181 1.260 . S
C178 C182 1.477 . S
C178 H196 0.932 . S
C179 C180 1.384 . S
C179 C181 1.479 . S
C179 H197 0.929 1_565 S
C180 C177 1.424 . S
C180 C179 1.384 . S
C180 H198 0.928 . S
C181 C178 1.260 . S
C181 C179 1.479 . S
C182 C177 1.245 . S
C182 C178 1.477 . S
C182 H199 0.932 . S
C183 U166 2.882 . S
C183 C177 1.428 . S
C183 O186 1.301 . S
C183 O187 1.282 . S
O184 U166 2.441 . S
O184 C170 1.249 . S
O185 U166 2.420 . S
O185 C170 1.202 . S
O186 U166 2.455 . S
O186 C183 1.301 . S
O187 U166 2.449 . S
O187 C183 1.282 . S
H188 C161 0.931 . S
H189 C163 0.888 1_545 S
H190 C164 0.930 . S
H191 C165 0.931 . S
H192 C172 0.932 . S
H193 C173 0.930 . S
H194 C174 0.929 . S
H195 C176 0.930 . S
H196 C178 0.932 . S
H197 C179 0.929 1_545 S
H198 C180 0.928 . S
H199 C182 0.932 . S
C200 C201 1.264 . S
C200 C205 1.479 . S
C200 C210 1.465 . S
C201 C200 1.264 . S
C201 C203 1.339 . S
C201 H228 0.931 . S
C202 C203 1.395 . S
C202 C204 1.320 . S
C203 C201 1.339 . S
C203 C202 1.395 . S
C203 H229 0.888 1_545 S
C204 C202 1.320 . S
C204 C205 1.405 . S
C204 H230 0.930 . S
C205 C200 1.479 . S
C205 C204 1.405 . S
C205 H231 0.931 . S
U206 O207 2.454 . S
U206 O208 2.458 . S
U206 C209 2.984 . S
U206 C210 2.847 . S
U206 C223 2.882 . S
U206 O224 2.441 . S
U206 O225 2.420 . S
U206 O226 2.455 . S
U206 O227 2.449 . S
O207 U206 2.454 . S
O207 C209 1.353 . S
O208 U206 2.458 . S
O208 C209 1.286 . S
C209 U206 2.984 . S
C209 O207 1.353 . S
C209 O208 1.286 . S
C209 C211 1.363 . S
C210 C200 1.465 . S
C210 U206 2.847 . S
C210 O224 1.249 . S
C210 O225 1.202 . S
C211 C209 1.363 . S
C211 C213 1.408 . S
C211 C216 1.342 . S
C212 C213 1.310 . S
C212 C215 1.461 . S
C212 H232 0.932 . S
C213 C211 1.408 . S
C213 C212 1.310 . S
C213 H233 0.930 . S
C214 C215 1.474 . S
C214 C216 1.285 . S
C214 H234 0.929 . S
C215 C212 1.461 . S
C215 C214 1.474 . S
C216 C211 1.342 . S
C216 C214 1.285 . S
C216 H235 0.930 . S
C217 C220 1.424 . S
C217 C222 1.245 . S
C217 C223 1.428 . S
C218 C221 1.260 . S
C218 C222 1.477 . S
C218 H236 0.932 . S
C219 C220 1.384 . S
C219 C221 1.479 . S
C219 H237 0.929 1_545 S
C220 C217 1.424 . S
C220 C219 1.384 . S
C220 H238 0.928 . S
C221 C218 1.260 . S
C221 C219 1.479 . S
C222 C217 1.245 . S
C222 C218 1.477 . S
C222 H239 0.932 . S
C223 U206 2.882 . S
C223 C217 1.428 . S
C223 O226 1.301 . S
C223 O227 1.282 . S
O224 U206 2.441 . S
O224 C210 1.249 . S
O225 U206 2.420 . S
O225 C210 1.202 . S
O226 U206 2.455 . S
O226 C223 1.301 . S
O227 U206 2.449 . S
O227 C223 1.282 . S
H228 C201 0.931 . S
H229 C203 0.888 1_565 S
H230 C204 0.930 . S
H231 C205 0.931 . S
H232 C212 0.932 . S
H233 C213 0.930 . S
H234 C214 0.929 . S
H235 C216 0.930 . S
H236 C218 0.932 . S
H237 C219 0.929 1_565 S
H238 C220 0.928 . S
H239 C222 0.932 . S
C240 C241 1.264 . S
C240 C245 1.479 . S
C240 C250 1.465 . S
C241 C240 1.264 . S
C241 C243 1.339 . S
C241 H268 0.931 . S
C242 C243 1.395 . S
C242 C244 1.320 . S
C243 C241 1.339 . S
C243 C242 1.395 . S
C243 H269 0.929 . S
C244 C242 1.320 . S
C244 C245 1.405 . S
C244 H270 0.930 . S
C245 C240 1.479 . S
C245 C244 1.405 . S
C245 H271 0.931 . S
U246 O247 2.454 . S
U246 O248 2.458 . S
U246 C249 2.984 . S
U246 C250 2.847 . S
U246 C263 2.882 . S
U246 O264 2.441 . S
U246 O265 2.420 . S
U246 O266 2.455 . S
U246 O267 2.449 . S
O247 U246 2.454 . S
O247 C249 1.353 . S
O248 U246 2.458 . S
O248 C249 1.286 . S
C249 U246 2.984 . S
C249 O247 1.353 . S
C249 O248 1.286 . S
C249 C251 1.363 . S
C250 C240 1.465 . S
C250 U246 2.847 . S
C250 O264 1.249 . S
C250 O265 1.202 . S
C251 C249 1.363 . S
C251 C253 1.408 . S
C251 C256 1.342 . S
C252 C253 1.310 . S
C252 C255 1.461 . S
C252 H272 0.932 . S
C253 C251 1.408 . S
C253 C252 1.310 . S
C253 H273 0.930 . S
C254 C255 1.474 . S
C254 C256 1.285 . S
C254 H274 0.929 . S
C255 C252 1.461 . S
C255 C254 1.474 . S
C256 C251 1.342 . S
C256 C254 1.285 . S
C256 H275 0.930 . S
C257 C260 1.424 . S
C257 C262 1.245 . S
C257 C263 1.428 . S
C258 C261 1.260 . S
C258 C262 1.477 . S
C258 H276 0.932 . S
C259 C260 1.384 . S
C259 C261 1.479 . S
C259 H277 0.929 . S
C260 C257 1.424 . S
C260 C259 1.384 . S
C260 H278 0.928 . S
C261 C258 1.260 . S
C261 C259 1.479 . S
C262 C257 1.245 . S
C262 C258 1.477 . S
C262 H279 0.932 . S
C263 U246 2.882 . S
C263 C257 1.428 . S
C263 O266 1.301 . S
C263 O267 1.282 . S
O264 U246 2.441 . S
O264 C250 1.249 . S
O265 U246 2.420 . S
O265 C250 1.202 . S
O266 U246 2.455 . S
O266 C263 1.301 . S
O267 U246 2.449 . S
O267 C263 1.282 . S
H268 C241 0.931 . S
H269 C243 0.929 . S
H270 C244 0.930 . S
H271 C245 0.931 . S
H272 C252 0.932 . S
H273 C253 0.930 . S
H274 C254 0.929 . S
H275 C256 0.930 . S
H276 C258 0.932 . S
H277 C259 0.929 . S
H278 C260 0.928 . S
H279 C262 0.932 . S
C280 C281 1.264 . S
C280 C285 1.479 . S
C280 C290 1.465 . S
C281 C280 1.264 . S
C281 C283 1.339 . S
C281 H308 0.931 . S
C282 C283 1.395 . S
C282 C284 1.320 . S
C283 C281 1.339 . S
C283 C282 1.395 . S
C283 H309 0.929 . S
C284 C282 1.320 . S
C284 C285 1.405 . S
C284 H310 0.930 . S
C285 C280 1.479 . S
C285 C284 1.405 . S
C285 H311 0.931 . S
U286 O287 2.454 . S
U286 O288 2.458 . S
U286 C289 2.984 . S
U286 C290 2.847 . S
U286 C303 2.882 . S
U286 O304 2.441 . S
U286 O305 2.420 . S
U286 O306 2.455 . S
U286 O307 2.449 . S
O287 U286 2.454 . S
O287 C289 1.353 . S
O288 U286 2.458 . S
O288 C289 1.286 . S
C289 U286 2.984 . S
C289 O287 1.353 . S
C289 O288 1.286 . S
C289 C291 1.363 . S
C290 C280 1.465 . S
C290 U286 2.847 . S
C290 O304 1.249 . S
C290 O305 1.202 . S
C291 C289 1.363 . S
C291 C293 1.408 . S
C291 C296 1.342 . S
C292 C293 1.310 . S
C292 C295 1.461 . S
C292 H312 0.932 . S
C293 C291 1.408 . S
C293 C292 1.310 . S
C293 H313 0.930 . S
C294 C295 1.474 . S
C294 C296 1.285 . S
C294 H314 0.929 . S
C295 C292 1.461 . S
C295 C294 1.474 . S
C296 C291 1.342 . S
C296 C294 1.285 . S
C296 H315 0.930 . S
C297 C300 1.424 . S
C297 C302 1.245 . S
C297 C303 1.428 . S
C298 C301 1.260 . S
C298 C302 1.477 . S
C298 H316 0.932 . S
C299 C300 1.384 . S
C299 C301 1.479 . S
C299 H317 0.929 . S
C300 C297 1.424 . S
C300 C299 1.384 . S
C300 H318 0.928 . S
C301 C298 1.260 . S
C301 C299 1.479 . S
C302 C297 1.245 . S
C302 C298 1.477 . S
C302 H319 0.932 . S
C303 U286 2.882 . S
C303 C297 1.428 . S
C303 O306 1.301 . S
C303 O307 1.282 . S
O304 U286 2.441 . S
O304 C290 1.249 . S
O305 U286 2.420 . S
O305 C290 1.202 . S
O306 U286 2.455 . S
O306 C303 1.301 . S
O307 U286 2.449 . S
O307 C303 1.282 . S
H308 C281 0.931 . S
H309 C283 0.929 . S
H310 C284 0.930 . S
H311 C285 0.931 . S
H312 C292 0.932 . S
H313 C293 0.930 . S
H314 C294 0.929 . S
H315 C296 0.930 . S
H316 C298 0.932 . S
H317 C299 0.929 . S
H318 C300 0.928 . S
H319 C302 0.932 . S
C320 C321 1.369 . S
C320 C322 1.419 . S
C320 H324 0.930 . S
C321 C320 1.369 . S
C321 C330 1.429 . S
C322 C320 1.419 . S
C322 C323 1.363 . S
C322 H325 0.929 . S
C323 C322 1.363 . S
C323 C329 1.428 . S
H324 C320 0.930 . S
H325 C322 0.929 . S
S326 N327 1.613 . S
S326 N328 1.610 . S
N327 S326 1.613 . S
N327 C330 1.350 . S
N328 S326 1.610 . S
N328 C329 1.351 . S
C329 C323 1.428 . S
C329 N328 1.351 . S
C329 C330 1.434 . S
C330 C321 1.429 . S
C330 N327 1.350 . S
C330 C329 1.434 . S
C331 C332 1.369 . S
C331 C333 1.419 . S
C331 H335 0.930 . S
C332 C331 1.369 . S
C332 C341 1.429 . S
C333 C331 1.419 . S
C333 C334 1.363 . S
C333 H336 0.929 . S
C334 C333 1.363 . S
C334 C340 1.428 . S
H335 C331 0.930 . S
H336 C333 0.929 . S
S337 N338 1.613 . S
S337 N339 1.610 . S
N338 S337 1.613 . S
N338 C341 1.350 . S
N339 S337 1.610 . S
N339 C340 1.351 . S
C340 C334 1.428 . S
C340 N339 1.351 . S
C340 C341 1.434 . S
C341 C332 1.429 . S
C341 N338 1.350 . S
C341 C340 1.434 . S
C342 C343 1.369 . S
C342 C344 1.419 . S
C342 H346 0.930 . S
C343 C342 1.369 . S
C343 C352 1.429 . S
C344 C342 1.419 . S
C344 C345 1.363 . S
C344 H347 0.929 . S
C345 C344 1.363 . S
C345 C351 1.428 . S
H346 C342 0.930 . S
H347 C344 0.929 . S
S348 N349 1.613 . S
S348 N350 1.610 . S
N349 S348 1.613 . S
N349 C352 1.350 . S
N350 S348 1.610 . S
N350 C351 1.351 . S
C351 C345 1.428 . S
C351 N350 1.351 . S
C351 C352 1.434 . S
C352 C343 1.429 . S
C352 N349 1.350 . S
C352 C351 1.434 . S
C353 C354 1.369 . S
C353 C355 1.419 . S
C353 H357 0.930 . S
C354 C353 1.369 . S
C354 C363 1.429 . S
C355 C353 1.419 . S
C355 C356 1.363 . S
C355 H358 0.929 . S
C356 C355 1.363 . S
C356 C362 1.428 . S
H357 C353 0.930 . S
H358 C355 0.929 . S
S359 N360 1.613 . S
S359 N361 1.610 . S
N360 S359 1.613 . S
N360 C363 1.350 . S
N361 S359 1.610 . S
N361 C362 1.351 . S
C362 C356 1.428 . S
C362 N361 1.351 . S
C362 C363 1.434 . S
C363 C354 1.429 . S
C363 N360 1.350 . S
C363 C362 1.434 . S
C364 C365 1.369 1_545 S
C364 C366 1.419 . S
C364 H368 0.930 . S
C365 C364 1.369 1_565 S
C365 C374 1.429 . S
C366 C364 1.419 . S
C366 C367 1.363 . S
C366 H369 0.929 . S
C367 C366 1.363 . S
C367 C373 1.428 1_545 S
H368 C364 0.930 . S
H369 C366 0.929 . S
S370 N371 1.613 . S
S370 N372 1.610 . S
N371 S370 1.613 . S
N371 C374 1.350 . S
N372 S370 1.610 . S
N372 C373 1.351 . S
C373 C367 1.428 1_565 S
C373 N372 1.351 . S
C373 C374 1.434 . S
C374 C365 1.429 . S
C374 N371 1.350 . S
C374 C373 1.434 . S
C375 C376 1.369 . S
C375 C377 1.419 . S
C375 H379 0.930 . S
C376 C375 1.369 . S
C376 C385 1.429 . S
C377 C375 1.419 . S
C377 C378 1.363 . S
C377 H380 0.929 . S
C378 C377 1.363 . S
C378 C384 1.428 . S
H379 C375 0.930 . S
H380 C377 0.929 . S
S381 N382 1.613 . S
S381 N383 1.610 . S
N382 S381 1.613 . S
N382 C385 1.350 . S
N383 S381 1.610 . S
N383 C384 1.351 . S
C384 C378 1.428 . S
C384 N383 1.351 . S
C384 C385 1.434 . S
C385 C376 1.429 . S
C385 N382 1.350 . S
C385 C384 1.434 . S
C386 C387 1.369 . S
C386 C388 1.419 . S
C386 H390 0.930 . S
C387 C386 1.369 . S
C387 C396 1.429 1_545 S
C388 C386 1.419 . S
C388 C389 1.363 1_545 S
C388 H391 0.929 . S
C389 C388 1.363 1_565 S
C389 C395 1.428 . S
H390 C386 0.930 . S
H391 C388 0.929 . S
S392 N393 1.613 . S
S392 N394 1.610 . S
N393 S392 1.613 . S
N393 C396 1.350 . S
N394 S392 1.610 . S
N394 C395 1.351 . S
C395 C389 1.428 . S
C395 N394 1.351 . S
C395 C396 1.434 . S
C396 C387 1.429 1_565 S
C396 N393 1.350 . S
C396 C395 1.434 . S
C397 C398 1.369 . S
C397 C399 1.419 . S
C397 H401 0.930 . S
C398 C397 1.369 . S
C398 C407 1.429 . S
C399 C397 1.419 . S
C399 C400 1.363 . S
C399 H402 0.929 . S
C400 C399 1.363 . S
C400 C406 1.428 . S
H401 C397 0.930 . S
H402 C399 0.929 . S
S403 N404 1.613 . S
S403 N405 1.610 . S
N404 S403 1.613 . S
N404 C407 1.350 . S
N405 S403 1.610 . S
N405 C406 1.351 . S
C406 C400 1.428 . S
C406 N405 1.351 . S
C406 C407 1.434 . S
C407 C398 1.429 . S
C407 N404 1.350 . S
C407 C406 1.434 . S
C408 C409 1.369 1_544 S
C408 C410 1.385 1_655 S
C408 H412 0.930 . S
C409 C408 1.369 1_566 S
C409 C418 1.424 1_655 S
C410 C408 1.385 1_455 S
C410 C411 1.398 . S
C410 H413 0.929 . S
C411 C410 1.398 . S
C411 C417 1.428 1_544 S
H412 C408 0.930 . S
H413 C410 0.929 . S
S414 N415 1.613 . S
S414 N416 1.610 . S
N415 S414 1.613 . S
N415 C418 1.351 . S
N416 S414 1.610 . S
N416 C417 1.351 . S
C417 C411 1.428 1_566 S
C417 N416 1.351 . S
C417 C418 1.438 . S
C418 C409 1.424 1_455 S
C418 N415 1.351 . S
C418 C417 1.438 . S
C419 C420 1.369 . S
C419 C421 1.419 . S
C419 H423 0.930 . S
C420 C419 1.369 . S
C420 C429 1.429 1_564 S
C421 C419 1.419 . S
C421 C422 1.363 1_564 S
C421 H424 0.929 . S
C422 C421 1.363 1_546 S
C422 C428 1.428 . S
H423 C419 0.930 . S
H424 C421 0.929 . S
S425 N426 1.613 . S
S425 N427 1.610 . S
N426 S425 1.613 . S
N426 C429 1.350 . S
N427 S425 1.610 . S
N427 C428 1.351 . S
C428 C422 1.428 . S
C428 N427 1.351 . S
C428 C429 1.434 . S
C429 C420 1.429 1_546 S
C429 N426 1.350 . S
C429 C428 1.434 . S
C430 C431 1.352 1_455 S
C430 C432 1.434 . S
C430 H434 0.932 . S
C431 C430 1.352 1_655 S
C431 C440 1.429 . S
C432 C430 1.434 . S
C432 C433 1.363 . S
C432 H435 0.929 . S
C433 C432 1.363 . S
C433 C439 1.428 1_455 S
H434 C430 0.932 . S
H435 C432 0.929 . S
S436 N437 1.613 . S
S436 N438 1.610 . S
N437 S436 1.613 . S
N437 C440 1.350 . S
N438 S436 1.610 . S
N438 C439 1.351 . S
C439 C433 1.428 1_655 S
C439 N438 1.351 . S
C439 C440 1.434 . S
C440 C431 1.429 . S
C440 N437 1.350 . S
C440 C439 1.434 . S
C441 C442 1.369 . S
C441 C443 1.419 . S
C441 H445 0.930 . S
C442 C441 1.369 . S
C442 C451 1.429 . S
C443 C441 1.419 . S
C443 C444 1.363 . S
C443 H446 0.929 . S
C444 C443 1.363 . S
C444 C450 1.428 . S
H445 C441 0.930 . S
H446 C443 0.929 . S
S447 N448 1.613 . S
S447 N449 1.610 . S
N448 S447 1.613 . S
N448 C451 1.350 . S
N449 S447 1.610 . S
N449 C450 1.351 . S
C450 C444 1.428 . S
C450 N449 1.351 . S
C450 C451 1.434 . S
C451 C442 1.429 . S
C451 N448 1.350 . S
C451 C450 1.434 . S
C321 C15 1.500 . S
C323 C95 1.501 . S
C332 C55 1.501 . S
C334 C135 1.500 . S
C343 C175 1.501 . S
C345 C255 1.501 . S
C354 C295 1.501 . S
C356 C215 1.501 . S
C365 C61 1.487 . S
C367 C21 1.488 . S
C376 C141 1.486 . S
C378 C101 1.487 . S
C387 C221 1.490 . S
C389 C181 1.491 . S
C398 C301 1.491 . S
C400 C261 1.491 . S
C409 C162 1.489 . S
C411 C2 1.485 . S
C420 C42 1.484 . S
C422 C202 1.489 . S
C431 C242 1.492 . S
C433 C82 1.484 . S
C442 C122 1.482 . S
C444 C282 1.489 . S
