# Generated by pormake.
# Topology som, (6)-cn, num edge types: 1
# Building blocks:
#     Node 0, Type 0, BuildingBlock: BETFEN_clean_sbu_0, # of connection points: 6
#     Node 1, Type 0, BuildingBlock: BETFEN_clean_sbu_0, # of connection points: 6
#     Node 2, Type 0, BuildingBlock: BETFEN_clean_sbu_0, # of connection points: 6
#     Node 3, Type 0, BuildingBlock: BETFEN_clean_sbu_0, # of connection points: 6
#     Node 4, Type 0, BuildingBlock: BETFEN_clean_sbu_0, # of connection points: 6
#     Node 5, Type 0, BuildingBlock: BETFEN_clean_sbu_0, # of connection points: 6
#     Node 6, Type 0, BuildingBlock: BETFEN_clean_sbu_0, # of connection points: 6
#     Node 7, Type 0, BuildingBlock: BETFEN_clean_sbu_0, # of connection points: 6
#     Node 8, Type 0, BuildingBlock: BETFEN_clean_sbu_0, # of connection points: 6
#     Node 9, Type 0, BuildingBlock: BETFEN_clean_sbu_0, # of connection points: 6
#     Node 10, Type 0, BuildingBlock: BETFEN_clean_sbu_0, # of connection points: 6
#     Node 11, Type 0, BuildingBlock: BETFEN_clean_sbu_0, # of connection points: 6
#     Node 12, Type 0, BuildingBlock: BETFEN_clean_sbu_0, # of connection points: 6
#     Node 13, Type 0, BuildingBlock: BETFEN_clean_sbu_0, # of connection points: 6
#     Node 14, Type 0, BuildingBlock: BETFEN_clean_sbu_0, # of connection points: 6
#     Node 15, Type 0, BuildingBlock: BETFEN_clean_sbu_0, # of connection points: 6
#     Node 16, Type 0, BuildingBlock: BETFEN_clean_sbu_0, # of connection points: 6
#     Node 17, Type 0, BuildingBlock: BETFEN_clean_sbu_0, # of connection points: 6
#     Node 18, Type 0, BuildingBlock: BETFEN_clean_sbu_0, # of connection points: 6
#     Node 19, Type 0, BuildingBlock: BETFEN_clean_sbu_0, # of connection points: 6
#     Node 20, Type 0, BuildingBlock: BETFEN_clean_sbu_0, # of connection points: 6
#     Node 21, Type 0, BuildingBlock: BETFEN_clean_sbu_0, # of connection points: 6
#     Node 22, Type 0, BuildingBlock: BETFEN_clean_sbu_0, # of connection points: 6
#     Node 23, Type 0, BuildingBlock: BETFEN_clean_sbu_0, # of connection points: 6
#     Node 24, Type 0, BuildingBlock: BETFEN_clean_sbu_0, # of connection points: 6
#     Node 25, Type 0, BuildingBlock: BETFEN_clean_sbu_0, # of connection points: 6
#     Node 26, Type 0, BuildingBlock: BETFEN_clean_sbu_0, # of connection points: 6
#     Node 27, Type 0, BuildingBlock: BETFEN_clean_sbu_0, # of connection points: 6
#     Node 28, Type 0, BuildingBlock: BETFEN_clean_sbu_0, # of connection points: 6
#     Node 29, Type 0, BuildingBlock: BETFEN_clean_sbu_0, # of connection points: 6
#     Node 30, Type 0, BuildingBlock: BETFEN_clean_sbu_0, # of connection points: 6
#     Node 31, Type 0, BuildingBlock: BETFEN_clean_sbu_0, # of connection points: 6
#     Edge 32, Type (0, 0), None
#     Edge 33, Type (0, 0), None
#     Edge 34, Type (0, 0), None
#     Edge 35, Type (0, 0), None
#     Edge 36, Type (0, 0), None
#     Edge 37, Type (0, 0), None
#     Edge 38, Type (0, 0), None
#     Edge 39, Type (0, 0), None
#     Edge 40, Type (0, 0), None
#     Edge 41, Type (0, 0), None
#     Edge 42, Type (0, 0), None
#     Edge 43, Type (0, 0), None
#     Edge 44, Type (0, 0), None
#     Edge 45, Type (0, 0), None
#     Edge 46, Type (0, 0), None
#     Edge 47, Type (0, 0), None
#     Edge 48, Type (0, 0), None
#     Edge 49, Type (0, 0), None
#     Edge 50, Type (0, 0), None
#     Edge 51, Type (0, 0), None
#     Edge 52, Type (0, 0), None
#     Edge 53, Type (0, 0), None
#     Edge 54, Type (0, 0), None
#     Edge 55, Type (0, 0), None
#     Edge 56, Type (0, 0), None
#     Edge 57, Type (0, 0), None
#     Edge 58, Type (0, 0), None
#     Edge 59, Type (0, 0), None
#     Edge 60, Type (0, 0), None
#     Edge 61, Type (0, 0), None
#     Edge 62, Type (0, 0), None
#     Edge 63, Type (0, 0), None
#     Edge 64, Type (0, 0), None
#     Edge 65, Type (0, 0), None
#     Edge 66, Type (0, 0), None
#     Edge 67, Type (0, 0), None
#     Edge 68, Type (0, 0), None
#     Edge 69, Type (0, 0), None
#     Edge 70, Type (0, 0), None
#     Edge 71, Type (0, 0), None
#     Edge 72, Type (0, 0), None
#     Edge 73, Type (0, 0), None
#     Edge 74, Type (0, 0), None
#     Edge 75, Type (0, 0), None
#     Edge 76, Type (0, 0), None
#     Edge 77, Type (0, 0), None
#     Edge 78, Type (0, 0), None
#     Edge 79, Type (0, 0), None
#     Edge 80, Type (0, 0), None
#     Edge 81, Type (0, 0), None
#     Edge 82, Type (0, 0), None
#     Edge 83, Type (0, 0), None
#     Edge 84, Type (0, 0), None
#     Edge 85, Type (0, 0), None
#     Edge 86, Type (0, 0), None
#     Edge 87, Type (0, 0), None
#     Edge 88, Type (0, 0), None
#     Edge 89, Type (0, 0), None
#     Edge 90, Type (0, 0), None
#     Edge 91, Type (0, 0), None
#     Edge 92, Type (0, 0), None
#     Edge 93, Type (0, 0), None
#     Edge 94, Type (0, 0), None
#     Edge 95, Type (0, 0), None
#     Edge 96, Type (0, 0), None
#     Edge 97, Type (0, 0), None
#     Edge 98, Type (0, 0), None
#     Edge 99, Type (0, 0), None
#     Edge 100, Type (0, 0), None
#     Edge 101, Type (0, 0), None
#     Edge 102, Type (0, 0), None
#     Edge 103, Type (0, 0), None
#     Edge 104, Type (0, 0), None
#     Edge 105, Type (0, 0), None
#     Edge 106, Type (0, 0), None
#     Edge 107, Type (0, 0), None
#     Edge 108, Type (0, 0), None
#     Edge 109, Type (0, 0), None
#     Edge 110, Type (0, 0), None
#     Edge 111, Type (0, 0), None
#     Edge 112, Type (0, 0), None
#     Edge 113, Type (0, 0), None
#     Edge 114, Type (0, 0), None
#     Edge 115, Type (0, 0), None
#     Edge 116, Type (0, 0), None
#     Edge 117, Type (0, 0), None
#     Edge 118, Type (0, 0), None
#     Edge 119, Type (0, 0), None
#     Edge 120, Type (0, 0), None
#     Edge 121, Type (0, 0), None
#     Edge 122, Type (0, 0), None
#     Edge 123, Type (0, 0), None
#     Edge 124, Type (0, 0), None
#     Edge 125, Type (0, 0), None
#     Edge 126, Type (0, 0), None
#     Edge 127, Type (0, 0), None
# Relax obj value: 0.101
# Max RMSD: 0.184
# Mean RMSD: 0.184
data_MOF--net-som--node1-BETFEN_clean_sbu_0--edge1-none
_symmetry_space_group_name_H-M    P1
_symmetry_Int_Tables_number       1
_symmetry_cell_setting            triclinic
loop_
_symmetry_equiv_pos_as_xyz
'x, y, z'
_cell_length_a     16.355618
_cell_length_b     24.022526
_cell_length_c     46.796946
_cell_angle_alpha  90.000391
_cell_angle_beta   89.999988
_cell_angle_gamma 89.998146
loop_
_atom_site_label
_atom_site_type_symbol
_atom_site_fract_x
_atom_site_fract_y
_atom_site_fract_z
_atom_type_partial_charge
Pr0 Pr 1.01856 0.4701 0.09481 0.0
Pr1 Pr 0.16326 0.39078 0.07743 0.0
C2 C 0.87079 0.51407 0.09588 0.0
C3 C 0.79121 0.48932 0.08867 0.0
C4 C 0.7274 0.50171 0.10667 0.0
C5 C 0.65017 0.47944 0.10261 0.0
C6 C 0.63622 0.44011 0.0812 0.0
C7 C 0.7008 0.42676 0.0624 0.0
C8 C 0.77826 0.45159 0.06605 0.0
C9 C 0.15067 0.46106 0.13435 0.0
C10 C 0.97504 0.33433 0.08803 0.0
C11 C 0.31176 0.34474 0.07997 0.0
C12 C 0.39506 0.36846 0.07974 0.0
C13 C 0.43562 0.3805 0.05391 0.0
C14 C 0.51497 0.40228 0.05414 0.0
C15 C 0.55485 0.4128 0.08013 0.0
C16 C 0.51461 0.39944 0.10586 0.0
C17 C 0.43559 0.37812 0.10567 0.0
C18 C 0.0866 0.42425 0.02816 0.0
C19 C 0.17093 0.53476 0.07121 0.0
O20 O 0.921 0.52295 0.07458 0.0
O21 O 0.90577 0.49504 0.11926 0.0
O22 O 0.1178 0.42158 0.12044 0.0
O23 O 0.1084 0.50638 0.13025 0.0
O24 O 1.05485 0.32367 0.08428 0.0
O25 O 0.94838 0.3853 0.09182 0.0
O26 O 0.26757 0.35415 0.10278 0.0
O27 O 0.26996 0.34759 0.05623 0.0
O28 O 1.06773 0.43719 0.05329 0.0
O29 O 0.14661 0.38902 0.02754 0.0
O30 O 0.09126 0.53805 0.0723 0.0
O31 O 0.21061 0.48656 0.07558 0.0
H32 H 0.73946 0.52919 0.12402 0.0
H33 H 0.60097 0.49256 0.11647 0.0
H34 H 0.69216 0.39641 0.04556 0.0
H35 H 0.82788 0.44034 0.05185 0.0
H36 H 0.40637 0.37284 0.03352 0.0
H37 H 0.54448 0.41142 0.03408 0.0
H38 H 0.54443 0.40516 0.12632 0.0
H39 H 0.40678 0.3683 0.1259 0.0
Pr40 Pr 0.36844 0.65262 0.09481 0.0
Pr41 Pr 0.22372 0.73194 0.07743 0.0
C42 C 0.51621 0.60865 0.09588 0.0
C43 C 0.59579 0.63338 0.08864 0.0
C44 C 0.65969 0.62086 0.10658 0.0
C45 C 0.73692 0.64312 0.10251 0.0
C46 C 0.75078 0.68258 0.08115 0.0
C47 C 0.68613 0.69603 0.0624 0.0
C48 C 0.60867 0.67121 0.06606 0.0
C49 C 0.23634 0.66167 0.13435 0.0
C50 C 0.41195 0.78839 0.08803 0.0
C51 C 0.07521 0.77798 0.07998 0.0
C52 C 0.9919 0.75426 0.07974 0.0
C53 C 0.95136 0.74226 0.0539 0.0
C54 C 0.87201 0.72048 0.05412 0.0
C55 C 0.83213 0.70992 0.0801 0.0
C56 C 0.87235 0.72324 0.10583 0.0
C57 C 0.95136 0.74457 0.10566 0.0
C58 C 0.30037 0.69847 0.02816 0.0
C59 C 0.21606 0.58797 0.0712 0.0
O60 O 0.46598 0.59975 0.07458 0.0
O61 O 0.48126 0.62772 0.11926 0.0
O62 O 0.2692 0.70114 0.12044 0.0
O63 O 0.2786 0.61635 0.13025 0.0
O64 O 0.33214 0.79905 0.08428 0.0
O65 O 0.43861 0.73742 0.09181 0.0
O66 O 0.11939 0.76854 0.10279 0.0
O67 O 0.11702 0.77516 0.05624 0.0
O68 O 0.31925 0.68553 0.05329 0.0
O69 O 0.24036 0.73369 0.02754 0.0
O70 O 0.29573 0.58467 0.0723 0.0
O71 O 0.17638 0.63616 0.07558 0.0
H72 H 0.64767 0.59332 0.12392 0.0
H73 H 0.78618 0.62994 0.11632 0.0
H74 H 0.69471 0.72647 0.0456 0.0
H75 H 0.55899 0.68255 0.05191 0.0
H76 H 0.98062 0.74995 0.03351 0.0
H77 H 0.84249 0.71138 0.03405 0.0
H78 H 0.84252 0.71746 0.12629 0.0
H79 H 0.98016 0.75437 0.12589 0.0
Pr80 Pr 1.01862 0.65264 0.18639 0.0
Pr81 Pr 0.16328 0.73196 0.20381 0.0
C82 C 0.87086 0.60868 0.18529 0.0
C83 C 0.79128 0.63343 0.19251 0.0
C84 C 0.72744 0.62101 0.17453 0.0
C85 C 0.6502 0.64327 0.17859 0.0
C86 C 0.63628 0.68263 0.2 0.0
C87 C 0.70088 0.69599 0.21879 0.0
C88 C 0.77835 0.67117 0.21513 0.0
C89 C 0.15083 0.66166 0.14691 0.0
C90 C 0.97505 0.7884 0.1932 0.0
C91 C 0.31179 0.77798 0.20128 0.0
C92 C 0.3951 0.75425 0.2015 0.0
C93 C 0.43571 0.74223 0.22732 0.0
C94 C 0.51506 0.72045 0.22707 0.0
C95 C 0.55489 0.70993 0.20108 0.0
C96 C 0.5146 0.72327 0.17536 0.0
C97 C 0.43558 0.74458 0.17556 0.0
C98 C 0.08659 0.69848 0.25306 0.0
C99 C 0.17094 0.58797 0.21003 0.0
O100 O 0.92105 0.59975 0.20659 0.0
O101 O 0.90585 0.62776 0.16192 0.0
O102 O 0.11792 0.70115 0.16079 0.0
O103 O 0.10851 0.61635 0.15097 0.0
O104 O 1.05486 0.79906 0.19696 0.0
O105 O 0.94841 0.73743 0.1894 0.0
O106 O 0.26759 0.76864 0.17847 0.0
O107 O 0.27001 0.77508 0.22503 0.0
O108 O 1.06773 0.68554 0.22793 0.0
O109 O 0.14658 0.73372 0.25369 0.0
O110 O 0.09127 0.58469 0.20893 0.0
O111 O 0.21062 0.63617 0.20566 0.0
H112 H 0.73948 0.59351 0.15718 0.0
H113 H 0.60099 0.63015 0.16474 0.0
H114 H 0.69226 0.72635 0.23562 0.0
H115 H 0.82799 0.68244 0.22931 0.0
H116 H 0.40649 0.7499 0.24772 0.0
H117 H 0.54462 0.71133 0.24713 0.0
H118 H 0.54439 0.71753 0.15489 0.0
H119 H 0.40674 0.7544 0.15534 0.0
Pr120 Pr 0.36837 0.47008 0.18639 0.0
Pr121 Pr 0.22369 0.39077 0.20381 0.0
C122 C 0.51614 0.51404 0.18529 0.0
C123 C 0.59572 0.48932 0.19254 0.0
C124 C 0.65965 0.50187 0.17461 0.0
C125 C 0.73688 0.47961 0.17869 0.0
C126 C 0.75072 0.44013 0.20005 0.0
C127 C 0.68605 0.42666 0.21878 0.0
C128 C 0.60858 0.45148 0.21511 0.0
C129 C 0.23617 0.46106 0.14691 0.0
C130 C 0.41193 0.33433 0.1932 0.0
C131 C 0.07518 0.34474 0.20128 0.0
C132 C 0.99187 0.36847 0.2015 0.0
C133 C 0.95127 0.38045 0.22733 0.0
C134 C 0.87191 0.40222 0.2271 0.0
C135 C 0.83208 0.4128 0.20111 0.0
C136 C 0.87235 0.3995 0.17538 0.0
C137 C 0.95137 0.37817 0.17557 0.0
C138 C 0.30038 0.42425 0.25306 0.0
C139 C 0.21606 0.53475 0.21004 0.0
O140 O 0.46593 0.523 0.20658 0.0
O141 O 0.48118 0.49492 0.16193 0.0
O142 O 0.26908 0.42157 0.16079 0.0
O143 O 0.27849 0.50637 0.15097 0.0
O144 O 0.33212 0.32367 0.19696 0.0
O145 O 0.43857 0.3853 0.18941 0.0
O146 O 0.11937 0.35412 0.17846 0.0
O147 O 0.11697 0.34762 0.22502 0.0
O148 O 0.31925 0.43719 0.22793 0.0
O149 O 0.24039 0.38901 0.2537 0.0
O150 O 0.29573 0.53804 0.20893 0.0
O151 O 0.17636 0.48656 0.20566 0.0
H152 H 0.64765 0.52943 0.15728 0.0
H153 H 0.78616 0.49281 0.16489 0.0
H154 H 0.69461 0.39621 0.23558 0.0
H155 H 0.55888 0.44012 0.22925 0.0
H156 H 0.9805 0.37275 0.24773 0.0
H157 H 0.84235 0.4113 0.24717 0.0
H158 H 0.84256 0.4053 0.15492 0.0
H159 H 0.9802 0.36839 0.15535 0.0
Pr160 Pr 0.97367 0.48192 0.95365 0.0
Pr161 Pr 0.11861 0.4026 0.93638 0.0
C162 C 0.82523 0.528 0.951 0.0
C163 C 0.74193 0.50429 0.95132 0.0
C164 C 0.70155 0.49226 0.97719 0.0
C165 C 0.62221 0.47046 0.97702 0.0
C166 C 0.58218 0.45992 0.95106 0.0
C167 C 0.62225 0.47327 0.9253 0.0
C168 C 0.70124 0.49461 0.92542 0.0
C169 C 1.05018 0.44848 1.00296 0.0
C170 C 0.96605 0.33796 0.95994 0.0
C171 C 0.26631 0.35854 0.93543 0.0
C172 C 0.3459 0.3833 0.94263 0.0
C173 C 0.40971 0.37085 0.92464 0.0
C174 C 0.48694 0.39312 0.92869 0.0
C175 C 0.50086 0.43255 0.95006 0.0
C176 C 0.4363 0.44593 0.96886 0.0
C177 C 0.35884 0.42108 0.96523 0.0
C178 C 0.98641 0.41166 0.89683 0.0
C179 C 0.16198 0.53837 0.94309 0.0
O180 O 0.86936 0.51832 0.92821 0.0
O181 O 0.86707 0.52543 0.97475 0.0
O182 O 0.06917 0.43562 0.97783 0.0
O183 O 0.99012 0.48368 1.00357 0.0
O184 O 1.04573 0.33468 0.95888 0.0
O185 O 0.92635 0.38615 0.95554 0.0
O186 O 0.21604 0.3498 0.95673 0.0
O187 O 0.23142 0.37746 0.91201 0.0
O188 O 1.01955 0.45105 0.91071 0.0
O189 O 1.02861 0.36632 0.90095 0.0
O190 O 0.08214 0.54901 0.94681 0.0
O191 O 0.18871 0.48741 0.93935 0.0
H192 H 0.73094 0.49993 0.99755 0.0
H193 H 0.59282 0.46133 0.99711 0.0
H194 H 0.5923 0.46751 0.90487 0.0
H195 H 0.72992 0.50443 0.90517 0.0
H196 H 0.39765 0.34335 0.9073 0.0
H197 H 0.53615 0.37998 0.91484 0.0
H198 H 0.44494 0.47634 0.98567 0.0
H199 H 0.30922 0.43237 0.97941 0.0
Pr200 Pr 0.91332 0.1408 0.95365 0.0
Pr201 Pr 0.7684 0.22012 0.93638 0.0
C202 C 1.06176 0.09472 0.95102 0.0
C203 C 0.14505 0.11843 0.95132 0.0
C204 C 0.18546 0.13047 0.97718 0.0
C205 C 0.2648 0.15227 0.977 0.0
C206 C 0.3048 0.1628 0.95104 0.0
C207 C 0.26471 0.14944 0.92529 0.0
C208 C 0.1857 0.12811 0.92542 0.0
C209 C 0.83676 0.17421 1.00296 0.0
C210 C 0.92094 0.28475 0.95995 0.0
C211 C 0.62069 0.26418 0.93542 0.0
C212 C 0.54111 0.23941 0.94261 0.0
C213 C 0.47735 0.25176 0.92458 0.0
C214 C 0.40012 0.22949 0.92862 0.0
C215 C 0.38614 0.19015 0.95002 0.0
C216 C 0.45066 0.17683 0.96885 0.0
C217 C 0.52811 0.20169 0.96523 0.0
C218 C 0.90061 0.21106 0.89683 0.0
C219 C 0.72502 0.08434 0.94309 0.0
O220 O 1.01761 0.10436 0.92823 0.0
O221 O 1.01993 0.09733 0.97477 0.0
O222 O 0.8178 0.18708 0.97783 0.0
O223 O 0.89684 0.13903 1.00357 0.0
O224 O 0.84126 0.28804 0.95889 0.0
O225 O 0.96064 0.23657 0.95555 0.0
O226 O 0.67094 0.2729 0.95673 0.0
O227 O 0.65561 0.24528 0.912 0.0
O228 O 0.86746 0.17167 0.91071 0.0
O229 O 0.85841 0.25641 0.90095 0.0
O230 O 0.80486 0.07371 0.94681 0.0
O231 O 0.69829 0.13531 0.93934 0.0
H232 H 0.1561 0.1228 0.99755 0.0
H233 H 0.2942 0.16141 0.99709 0.0
H234 H 0.29463 0.15517 0.90484 0.0
H235 H 0.157 0.11829 0.90518 0.0
H236 H 0.48945 0.27923 0.90722 0.0
H237 H 0.35096 0.24259 0.91474 0.0
H238 H 0.44199 0.14648 0.98569 0.0
H239 H 0.5777 0.19046 0.97945 0.0
Pr240 Pr 0.97364 0.14079 0.82756 0.0
Pr241 Pr 0.11853 0.22011 0.84486 0.0
C242 C 0.82519 0.09472 0.83018 0.0
C243 C 0.74189 0.11844 0.82989 0.0
C244 C 0.70146 0.13047 0.80403 0.0
C245 C 0.62212 0.15226 0.80421 0.0
C246 C 0.58213 0.16281 0.83017 0.0
C247 C 0.62224 0.14946 0.85593 0.0
C248 C 0.70124 0.12812 0.85579 0.0
C249 C 1.05022 0.1742 0.77826 0.0
C250 C 0.96605 0.28475 0.82126 0.0
C251 C 0.26624 0.26415 0.84586 0.0
C252 C 0.34583 0.23941 0.83864 0.0
C253 C 0.40967 0.25188 0.85661 0.0
C254 C 0.4869 0.22961 0.85256 0.0
C255 C 0.5008 0.19017 0.8312 0.0
C256 C 0.43621 0.17676 0.81241 0.0
C257 C 0.35875 0.20161 0.81605 0.0
C258 C 0.98624 0.21107 0.88436 0.0
C259 C 0.16196 0.08435 0.83812 0.0
O260 O 0.86934 0.10434 0.85298 0.0
O261 O 0.86701 0.09736 0.80643 0.0
O262 O 0.06918 0.18708 0.80339 0.0
O263 O 0.99015 0.13902 0.77765 0.0
O264 O 1.04573 0.28803 0.82233 0.0
O265 O 0.92634 0.23657 0.82566 0.0
O266 O 0.21599 0.27295 0.82456 0.0
O267 O 0.23133 0.24518 0.86926 0.0
O268 O 1.01943 0.17167 0.87051 0.0
O269 O 1.02848 0.25641 0.88028 0.0
O270 O 0.08212 0.07371 0.8344 0.0
O271 O 0.18867 0.13531 0.84188 0.0
H272 H 0.73082 0.1228 0.78366 0.0
H273 H 0.59269 0.1614 0.78413 0.0
H274 H 0.59233 0.15523 0.87637 0.0
H275 H 0.72995 0.11831 0.87603 0.0
H276 H 0.39762 0.2794 0.87395 0.0
H277 H 0.53612 0.24277 0.86639 0.0
H278 H 0.44483 0.14634 0.7956 0.0
H279 H 0.30911 0.1903 0.80188 0.0
Pr280 Pr 0.91335 0.48194 0.82755 0.0
Pr281 Pr 0.76847 0.40262 0.84486 0.0
C282 C 1.0618 0.528 0.83017 0.0
C283 C 0.14509 0.50428 0.82988 0.0
C284 C 0.18555 0.49225 0.80403 0.0
C285 C 0.26489 0.47045 0.80422 0.0
C286 C 0.30486 0.45992 0.8302 0.0
C287 C 0.26471 0.47327 0.85594 0.0
C288 C 0.18571 0.4946 0.85579 0.0
C289 C 0.83676 0.44852 0.77826 0.0
C290 C 0.92095 0.33798 0.82125 0.0
C291 C 0.62077 0.35858 0.84586 0.0
C292 C 0.54118 0.38334 0.83866 0.0
C293 C 0.4774 0.37096 0.85667 0.0
C294 C 0.40017 0.39322 0.85263 0.0
C295 C 0.38621 0.43258 0.83123 0.0
C296 C 0.45075 0.44592 0.81241 0.0
C297 C 0.52821 0.42107 0.81604 0.0
C298 C 0.90078 0.41166 0.88436 0.0
C299 C 0.72504 0.53839 0.83813 0.0
O300 O 1.01764 0.51843 0.85296 0.0
O301 O 1.01998 0.52533 0.80642 0.0
O302 O 0.81781 0.43564 0.80339 0.0
O303 O 0.89682 0.48371 0.77765 0.0
O304 O 0.84127 0.3347 0.82233 0.0
O305 O 0.96066 0.38616 0.82565 0.0
O306 O 0.67101 0.34979 0.82456 0.0
O307 O 0.6557 0.37753 0.86927 0.0
O308 O 0.86759 0.45106 0.87051 0.0
O309 O 0.85854 0.36632 0.88028 0.0
O310 O 0.80488 0.54903 0.8344 0.0
O311 O 0.69833 0.48742 0.84188 0.0
H312 H 0.15622 0.49992 0.78365 0.0
H313 H 0.29433 0.46131 0.78415 0.0
H314 H 0.29461 0.46753 0.87639 0.0
H315 H 0.15697 0.50441 0.87603 0.0
H316 H 0.48947 0.34347 0.87403 0.0
H317 H 0.35099 0.38011 0.8665 0.0
H318 H 0.44209 0.47628 0.79558 0.0
H319 H 0.57781 0.43231 0.80184 0.0
Pr320 Pr 1.01858 -0.0299 0.59481 0.0
Pr321 Pr 0.16326 0.89078 0.57742 0.0
C322 C 0.87082 0.01407 0.59589 0.0
C323 C 0.79124 -0.01071 0.5887 0.0
C324 C 0.72753 0.00151 0.60677 0.0
C325 C 0.6503 -0.02076 0.60274 0.0
C326 C 0.63624 -0.05995 0.58126 0.0
C327 C 0.70074 0.92684 0.56239 0.0
C328 C 0.7782 -0.04832 0.56603 0.0
C329 C 0.1507 -0.03894 0.63434 0.0
C330 C 0.97504 0.83433 0.58803 0.0
C331 C 0.31175 0.84473 0.57996 0.0
C332 C 0.39505 0.86846 0.57974 0.0
C333 C 0.43563 0.88053 0.55392 0.0
C334 C 0.51497 0.90232 0.55417 0.0
C335 C 0.55484 0.91278 0.58017 0.0
C336 C 0.51457 0.89937 0.60589 0.0
C337 C 0.43555 0.87808 0.60568 0.0
C338 C 0.08659 0.92425 0.52815 0.0
C339 C 0.17095 0.03476 0.57121 0.0
O340 O 0.92099 0.02292 0.57457 0.0
O341 O 0.90584 -0.00491 0.61927 0.0
O342 O 0.11782 0.92158 0.62043 0.0
O343 O 0.10844 0.00638 0.63024 0.0
O344 O 1.05485 0.82367 0.58427 0.0
O345 O 0.94838 0.8853 0.59183 0.0
O346 O 0.26754 0.8541 0.60277 0.0
O347 O 0.26997 0.84762 0.55621 0.0
O348 O 1.06772 -0.06281 0.55328 0.0
O349 O 0.14659 0.88901 0.52753 0.0
O350 O 0.09128 0.03805 0.57229 0.0
O351 O 0.21062 -0.01345 0.57558 0.0
H352 H 0.73964 0.02893 0.62415 0.0
H353 H 0.60119 -0.00774 0.61666 0.0
H354 H 0.69204 0.8966 0.54551 0.0
H355 H 0.82775 -0.05946 0.55178 0.0
H356 H 0.40639 0.87291 0.53353 0.0
H357 H 0.5445 0.91149 0.53411 0.0
H358 H 0.54438 0.90503 0.62635 0.0
H359 H 0.40672 0.86822 0.6259 0.0
Pr360 Pr 0.36845 0.15263 0.59481 0.0
Pr361 Pr 0.22371 0.23194 0.57743 0.0
C362 C 0.51623 0.10866 0.59588 0.0
C363 C 0.59581 0.13336 0.58861 0.0
C364 C 0.65981 0.12067 0.60648 0.0
C365 C 0.73704 0.14292 0.60238 0.0
C366 C 0.7508 0.18253 0.58109 0.0
C367 C 0.68606 0.19612 0.56241 0.0
C368 C 0.60859 0.17131 0.56608 0.0
C369 C 0.23635 0.16167 0.63435 0.0
C370 C 0.41195 0.28839 0.58803 0.0
C371 C 0.0752 0.27798 0.57999 0.0
C372 C 0.99189 0.25426 0.57972 0.0
C373 C 0.95135 0.24231 0.55388 0.0
C374 C 0.872 0.22053 0.55408 0.0
C375 C 0.83212 0.2099 0.58005 0.0
C376 C 0.87233 0.22316 0.6058 0.0
C377 C 0.95133 0.24451 0.60564 0.0
C378 C 0.30038 0.19847 0.52816 0.0
C379 C 0.21608 0.08797 0.5712 0.0
O380 O 0.46597 0.09972 0.5746 0.0
O381 O 0.48131 0.12778 0.61925 0.0
O382 O 0.26921 0.20114 0.62044 0.0
O383 O 0.27863 0.11635 0.63026 0.0
O384 O 0.33213 0.29905 0.58428 0.0
O385 O 0.43862 0.23742 0.59181 0.0
O386 O 0.11936 0.2685 0.60279 0.0
O387 O 0.11702 0.27519 0.55624 0.0
O388 O 0.31925 0.18554 0.55329 0.0
O389 O 0.24035 0.23369 0.52754 0.0
O390 O 0.29575 0.08467 0.5723 0.0
O391 O 0.17639 0.13616 0.57558 0.0
H392 H 0.64785 0.09305 0.62379 0.0
H393 H 0.78639 0.12964 0.61614 0.0
H394 H 0.69457 0.22666 0.54565 0.0
H395 H 0.55884 0.18276 0.55199 0.0
H396 H 0.98062 0.25004 0.5335 0.0
H397 H 0.84248 0.21148 0.53401 0.0
H398 H 0.8425 0.21731 0.62625 0.0
H399 H 0.98012 0.25427 0.62588 0.0
Pr400 Pr 1.01864 0.15264 0.68639 0.0
Pr401 Pr 0.16328 0.23195 0.70381 0.0
C402 C 0.87088 0.10867 0.68529 0.0
C403 C 0.7913 0.13345 0.69248 0.0
C404 C 0.72757 0.12121 0.67442 0.0
C405 C 0.65033 0.14347 0.67846 0.0
C406 C 0.63629 0.18267 0.69994 0.0
C407 C 0.70081 0.1959 0.71879 0.0
C408 C 0.77827 0.17107 0.71515 0.0
C409 C 0.15084 0.16166 0.64691 0.0
C410 C 0.97504 0.28839 0.6932 0.0
C411 C 0.31178 0.27799 0.70129 0.0
C412 C 0.39508 0.25425 0.70149 0.0
C413 C 0.4357 0.24218 0.7273 0.0
C414 C 0.51505 0.2204 0.72704 0.0
C415 C 0.55489 0.20994 0.70104 0.0
C416 C 0.51458 0.22334 0.67533 0.0
C417 C 0.43555 0.24463 0.67554 0.0
C418 C 0.08663 0.19845 0.75306 0.0
C419 C 0.17095 0.08797 0.71002 0.0
O420 O 0.92104 0.09978 0.7066 0.0
O421 O 0.90591 0.1277 0.66191 0.0
O422 O 0.11793 0.20115 0.66079 0.0
O423 O 0.10853 0.11635 0.65097 0.0
O424 O 1.05485 0.29906 0.69697 0.0
O425 O 0.94841 0.23742 0.6894 0.0
O426 O 0.26756 0.26867 0.67847 0.0
O427 O 0.27001 0.27506 0.72504 0.0
O428 O 1.06775 0.18551 0.72793 0.0
O429 O 0.14658 0.23372 0.7537 0.0
O430 O 0.09128 0.08468 0.70893 0.0
O431 O 0.21063 0.13617 0.70566 0.0
H432 H 0.73966 0.09377 0.65705 0.0
H433 H 0.60121 0.13044 0.66455 0.0
H434 H 0.69212 0.22615 0.73567 0.0
H435 H 0.82784 0.18222 0.72938 0.0
H436 H 0.40648 0.2498 0.7477 0.0
H437 H 0.5446 0.21123 0.74709 0.0
H438 H 0.54437 0.21768 0.65485 0.0
H439 H 0.4067 0.25449 0.65533 0.0
Pr440 Pr 0.36839 -0.02992 0.68639 0.0
Pr441 Pr 0.22369 0.89077 0.7038 0.0
C442 C 0.51617 0.01404 0.68529 0.0
C443 C 0.59575 -0.01065 0.69257 0.0
C444 C 0.65978 0.00206 0.67472 0.0
C445 C 0.73701 -0.02019 0.67882 0.0
C446 C 0.75075 -0.05981 0.7001 0.0
C447 C 0.68599 0.92658 0.71878 0.0
C448 C 0.60852 -0.04861 0.71509 0.0
C449 C 0.23621 -0.03894 0.6469 0.0
C450 C 0.41194 0.83433 0.6932 0.0
C451 C 0.07517 0.84475 0.70126 0.0
C452 C 0.99185 0.86847 0.70151 0.0
C453 C 0.95128 0.88042 0.72735 0.0
C454 C 0.87193 0.9022 0.72713 0.0
C455 C 0.83208 0.91283 0.70115 0.0
C456 C 0.87232 0.89957 0.67541 0.0
C457 C 0.95133 0.87822 0.67558 0.0
C458 C 0.30037 0.92425 0.75305 0.0
C459 C 0.21608 0.03475 0.71003 0.0
O460 O 0.46592 0.02303 0.70657 0.0
O461 O 0.48124 -0.00513 0.66193 0.0
O462 O 0.2691 0.92157 0.66079 0.0
O463 O 0.27853 0.00637 0.65095 0.0
O464 O 0.33213 0.82366 0.69695 0.0
O465 O 0.43859 0.8853 0.68941 0.0
O466 O 0.11934 0.85417 0.67845 0.0
O467 O 0.11698 0.84758 0.725 0.0
O468 O 0.31924 -0.06282 0.72792 0.0
O469 O 0.24037 0.88902 0.75369 0.0
O470 O 0.29575 0.03804 0.70892 0.0
O471 O 0.17638 -0.01344 0.70565 0.0
H472 H 0.64783 0.02969 0.65741 0.0
H473 H 0.78637 -0.0069 0.66507 0.0
H474 H 0.69449 0.89603 0.73553 0.0
H475 H 0.55875 -0.06008 0.72918 0.0
H476 H 0.98053 0.87269 0.74773 0.0
H477 H 0.84238 0.91124 0.7472 0.0
H478 H 0.84251 0.90542 0.65496 0.0
H479 H 0.98014 0.86846 0.65535 0.0
Pr480 Pr 0.97366 -0.01808 0.45364 0.0
Pr481 Pr 0.11861 0.9026 0.43638 0.0
C482 C 0.82522 0.028 0.45099 0.0
C483 C 0.74191 0.00429 0.45132 0.0
C484 C 0.70155 -0.00773 0.47719 0.0
C485 C 0.62221 -0.02953 0.47703 0.0
C486 C 0.58217 -0.04009 0.45108 0.0
C487 C 0.62222 -0.02675 0.42531 0.0
C488 C 0.70121 -0.00539 0.42543 0.0
C489 C 1.05017 -0.05152 0.50295 0.0
C490 C 0.96606 0.83797 0.45994 0.0
C491 C 0.26632 0.85854 0.43542 0.0
C492 C 0.3459 0.88328 0.44264 0.0
C493 C 0.40977 0.87076 0.42469 0.0
C494 C 0.487 0.89303 0.42874 0.0
C495 C 0.50087 0.93252 0.45008 0.0
C496 C 0.43626 -0.05403 0.46885 0.0
C497 C 0.35881 0.92112 0.46522 0.0
C498 C 0.98642 0.91167 0.39682 0.0
C499 C 0.16198 0.03837 0.44309 0.0
O500 O 0.86934 0.0183 0.4282 0.0
O501 O 0.86706 0.02544 0.47474 0.0
O502 O 0.06916 0.93562 0.47783 0.0
O503 O 0.99011 -0.01633 0.50356 0.0
O504 O 1.04574 0.83468 0.45888 0.0
O505 O 0.92635 0.88615 0.45554 0.0
O506 O 0.21604 0.84979 0.45672 0.0
O507 O 0.23144 0.87749 0.412 0.0
O508 O 1.01956 -0.04895 0.4107 0.0
O509 O 1.02862 0.86632 0.40094 0.0
O510 O 0.08213 0.04901 0.4468 0.0
O511 O 0.18871 -0.01259 0.43935 0.0
H512 H 0.73095 -6e-05 0.49755 0.0
H513 H 0.59283 -0.03866 0.49712 0.0
H514 H 0.59226 -0.03254 0.40488 0.0
H515 H 0.72987 0.00442 0.40517 0.0
H516 H 0.39773 0.84322 0.40735 0.0
H517 H 0.53625 0.87984 0.41492 0.0
H518 H 0.44487 -0.02357 0.48564 0.0
H519 H 0.30915 0.93247 0.47938 0.0
Pr520 Pr 0.91332 0.6408 0.45366 0.0
Pr521 Pr 0.76841 0.72012 0.43638 0.0
C522 C 1.06176 0.59472 0.45103 0.0
C523 C 0.14505 0.61844 0.45132 0.0
C524 C 0.18547 0.63049 0.47718 0.0
C525 C 0.26481 0.65229 0.47699 0.0
C526 C 0.3048 0.6628 0.45102 0.0
C527 C 0.26469 0.64942 0.42527 0.0
C528 C 0.18568 0.6281 0.42542 0.0
C529 C 0.83676 0.6742 0.50296 0.0
C530 C 0.92094 0.78475 0.45995 0.0
C531 C 0.62071 0.76417 0.43541 0.0
C532 C 0.54113 0.73939 0.44259 0.0
C533 C 0.47742 0.75167 0.42453 0.0
C534 C 0.40019 0.7294 0.42856 0.0
C535 C 0.38616 0.69013 0.44999 0.0
C536 C 0.45064 0.67688 0.46885 0.0
C537 C 0.52809 0.70173 0.46524 0.0
C538 C 0.90063 0.71106 0.39683 0.0
C539 C 0.72503 0.58434 0.44309 0.0
O540 O 1.01761 0.60433 0.42823 0.0
O541 O 1.01994 0.59735 0.47478 0.0
O542 O 0.8178 0.68708 0.47783 0.0
O543 O 0.89683 0.63903 0.50357 0.0
O544 O 0.84126 0.78803 0.45889 0.0
O545 O 0.96065 0.73657 0.45555 0.0
O546 O 0.67095 0.77289 0.45673 0.0
O547 O 0.65565 0.74529 0.41199 0.0
O548 O 0.86748 0.67167 0.41071 0.0
O549 O 0.85844 0.75641 0.40095 0.0
O550 O 0.80487 0.5737 0.44681 0.0
O551 O 0.6983 0.6353 0.43934 0.0
H552 H 0.15612 0.62284 0.49755 0.0
H553 H 0.29422 0.66146 0.49707 0.0
H554 H 0.29461 0.65512 0.40483 0.0
H555 H 0.15697 0.61827 0.40517 0.0
H556 H 0.48953 0.77911 0.40716 0.0
H557 H 0.35106 0.74246 0.41465 0.0
H558 H 0.44193 0.64657 0.48571 0.0
H559 H 0.57764 0.69055 0.47948 0.0
Pr560 Pr 0.97364 0.64079 0.32756 0.0
Pr561 Pr 0.11855 0.72012 0.34486 0.0
C562 C 0.82519 0.59473 0.33019 0.0
C563 C 0.74189 0.61844 0.32989 0.0
C564 C 0.70147 0.63045 0.30402 0.0
C565 C 0.62213 0.65224 0.30419 0.0
C566 C 0.58213 0.66281 0.33015 0.0
C567 C 0.62223 0.64949 0.35591 0.0
C568 C 0.70122 0.62813 0.35578 0.0
C569 C 1.05018 0.67424 0.27826 0.0
C570 C 0.96605 0.78476 0.32127 0.0
C571 C 0.26626 0.76416 0.34585 0.0
C572 C 0.34584 0.73942 0.33862 0.0
C573 C 0.40973 0.75197 0.35656 0.0
C574 C 0.48696 0.7297 0.3525 0.0
C575 C 0.50082 0.69019 0.33116 0.0
C576 C 0.43619 0.67672 0.31241 0.0
C577 C 0.35873 0.70157 0.31605 0.0
C578 C 0.98626 0.71107 0.38437 0.0
C579 C 0.16197 0.58435 0.33812 0.0
O580 O 0.86933 0.60437 0.35299 0.0
O581 O 0.86702 0.59734 0.30644 0.0
O582 O 0.06916 0.6871 0.30339 0.0
O583 O 0.99014 0.63903 0.27765 0.0
O584 O 1.04573 0.78803 0.32234 0.0
O585 O 0.92634 0.73657 0.32566 0.0
O586 O 0.21599 0.77296 0.32455 0.0
O587 O 0.23137 0.74517 0.36925 0.0
O588 O 1.01945 0.67167 0.37051 0.0
O589 O 1.02851 0.7564 0.38029 0.0
O590 O 0.08213 0.57371 0.3344 0.0
O591 O 0.18868 0.63532 0.34187 0.0
H592 H 0.73084 0.62277 0.28365 0.0
H593 H 0.59271 0.66135 0.28411 0.0
H594 H 0.5923 0.65529 0.37635 0.0
H595 H 0.72992 0.61833 0.37603 0.0
H596 H 0.39771 0.77952 0.37389 0.0
H597 H 0.53623 0.7429 0.36631 0.0
H598 H 0.44478 0.64626 0.29562 0.0
H599 H 0.30906 0.69021 0.3019 0.0
Pr600 Pr 0.91334 -0.01806 0.32755 0.0
Pr601 Pr 0.76847 0.90262 0.34485 0.0
C602 C 1.06178 0.02801 0.33016 0.0
C603 C 0.14508 0.00428 0.32988 0.0
C604 C 0.18555 -0.00776 0.30404 0.0
C605 C 0.26489 -0.02956 0.30424 0.0
C606 C 0.30484 -0.04007 0.33021 0.0
C607 C 0.26468 -0.02671 0.35595 0.0
C608 C 0.18567 -0.00539 0.3558 0.0
C609 C 0.83675 -0.05147 0.27826 0.0
C610 C 0.92095 0.83798 0.32125 0.0
C611 C 0.62077 0.85858 0.34586 0.0
C612 C 0.54119 0.88335 0.33867 0.0
C613 C 0.47745 0.87105 0.35672 0.0
C614 C 0.40022 0.89332 0.35268 0.0
C615 C 0.38621 0.93261 0.33125 0.0
C616 C 0.45071 -0.05412 0.31241 0.0
C617 C 0.52817 0.92103 0.31603 0.0
C618 C 0.90079 0.91166 0.38435 0.0
C619 C 0.72504 0.03839 0.33813 0.0
O620 O 1.01762 0.01845 0.35296 0.0
O621 O 1.01998 0.02532 0.30641 0.0
O622 O 0.8178 0.93564 0.30338 0.0
O623 O 0.8968 -0.01628 0.27764 0.0
O624 O 0.84127 0.8347 0.32233 0.0
O625 O 0.96066 0.88616 0.32565 0.0
O626 O 0.67099 0.84981 0.32455 0.0
O627 O 0.65572 0.87751 0.36927 0.0
O628 O 0.86759 -0.04894 0.3705 0.0
O629 O 0.85854 0.86632 0.38027 0.0
O630 O 0.80487 0.04903 0.3344 0.0
O631 O 0.69833 -0.01258 0.34188 0.0
H632 H 0.15623 -0.0001 0.28366 0.0
H633 H 0.29434 -0.0387 0.28416 0.0
H634 H 0.29456 -0.03242 0.37641 0.0
H635 H 0.15692 0.00443 0.37603 0.0
H636 H 0.48955 0.84359 0.37408 0.0
H637 H 0.35108 0.88025 0.36658 0.0
H638 H 0.44202 -0.02381 0.29555 0.0
H639 H 0.57774 0.93223 0.3018 0.0
Pr640 Pr 0.51853 0.47009 0.59482 0.0
Pr641 Pr 0.66327 0.39078 0.57745 0.0
C642 C 0.37075 0.51407 0.59588 0.0
C643 C 0.29118 0.48937 0.58862 0.0
C644 C 0.22718 0.50204 0.60649 0.0
C645 C 0.14995 0.47979 0.6024 0.0
C646 C 0.13619 0.4402 0.5811 0.0
C647 C 0.20091 0.42662 0.5624 0.0
C648 C 0.27838 0.45143 0.56608 0.0
C649 C 0.65063 0.46105 0.63436 0.0
C650 C 0.47503 0.33433 0.58803 0.0
C651 C 0.81179 0.34475 0.58 0.0
C652 C 0.8951 0.36847 0.57973 0.0
C653 C 0.93561 0.38045 0.55389 0.0
C654 C 1.01496 0.40224 0.55409 0.0
C655 C 1.05486 0.41283 0.58006 0.0
C656 C 1.01468 0.39954 0.60581 0.0
C657 C 0.93568 0.37819 0.60565 0.0
C658 C 0.58663 0.42425 0.52818 0.0
C659 C 0.67091 0.53476 0.57122 0.0
O660 O 0.42102 0.523 0.5746 0.0
O661 O 0.40567 0.49495 0.61926 0.0
O662 O 0.61777 0.42158 0.62045 0.0
O663 O 0.60835 0.50637 0.63027 0.0
O664 O 0.55485 0.32367 0.58429 0.0
O665 O 0.44837 0.3853 0.59181 0.0
O666 O 0.76763 0.35423 0.60281 0.0
O667 O 0.76996 0.34753 0.55625 0.0
O668 O 0.56774 0.43718 0.55331 0.0
O669 O 0.64665 0.38903 0.52755 0.0
O670 O 0.59124 0.53805 0.57231 0.0
O671 O 0.71059 0.48656 0.57559 0.0
H672 H 0.23915 0.52965 0.6238 0.0
H673 H 0.10061 0.49306 0.61616 0.0
H674 H 0.19239 0.39609 0.54564 0.0
H675 H 0.32813 0.43999 0.55198 0.0
H676 H 0.90632 0.37275 0.53351 0.0
H677 H 1.04446 0.41133 0.53401 0.0
H678 H 1.04453 0.40537 0.62625 0.0
H679 H 0.9069 0.36841 0.62589 0.0
Pr680 Pr 0.86841 0.65262 0.59481 0.0
Pr681 Pr 0.72372 0.73195 0.57743 0.0
C682 C 1.01617 0.60864 0.59588 0.0
C683 C 0.09575 0.63343 0.58869 0.0
C684 C 0.15947 0.62119 0.60676 0.0
C685 C 0.2367 0.64346 0.60272 0.0
C686 C 0.25074 0.68266 0.58125 0.0
C687 C 0.18625 0.69588 0.56239 0.0
C688 C 0.10879 0.67104 0.56603 0.0
C689 C 0.7363 0.66167 0.63434 0.0
C690 C 0.91195 0.78839 0.58803 0.0
C691 C 0.57523 0.77799 0.57997 0.0
C692 C 0.49193 0.75426 0.57975 0.0
C693 C 0.45136 0.74218 0.55393 0.0
C694 C 0.37202 0.72039 0.55417 0.0
C695 C 0.33214 0.70994 0.58017 0.0
C696 C 0.37239 0.72335 0.60589 0.0
C697 C 0.45142 0.74465 0.60568 0.0
C698 C 0.80034 0.69845 0.52816 0.0
C699 C 0.71604 0.58797 0.57121 0.0
O700 O 0.96599 0.5998 0.57456 0.0
O701 O 0.98116 0.62762 0.61927 0.0
O702 O 0.76918 0.70114 0.62043 0.0
O703 O 0.77856 0.61634 0.63024 0.0
O704 O 0.83214 0.79905 0.58427 0.0
O705 O 0.9386 0.73742 0.59182 0.0
O706 O 0.61943 0.76861 0.60278 0.0
O707 O 0.61701 0.77512 0.55622 0.0
O708 O 0.81923 0.68552 0.55329 0.0
O709 O 0.74037 0.7337 0.52753 0.0
O710 O 0.79571 0.58467 0.57229 0.0
O711 O 0.67636 0.63617 0.57559 0.0
H712 H 0.14736 0.59377 0.62414 0.0
H713 H 0.28581 0.63043 0.61664 0.0
H714 H 0.19495 0.72613 0.54551 0.0
H715 H 1.05923 0.68219 0.55178 0.0
H716 H 0.48061 0.7498 0.53353 0.0
H717 H 0.34251 0.71121 0.53411 0.0
H718 H 0.34257 0.71769 0.62635 0.0
H719 H 0.48023 0.75451 0.62591 0.0
Pr720 Pr 0.5186 0.65264 0.68638 0.0
Pr721 Pr 0.66329 0.73196 0.70379 0.0
C722 C 0.37082 0.60868 0.68529 0.0
C723 C 0.29124 0.63337 0.69256 0.0
C724 C 0.22722 0.62068 0.67471 0.0
C725 C 0.14999 0.64293 0.67881 0.0
C726 C 0.13624 0.68253 0.7001 0.0
C727 C 0.20099 0.69613 0.71878 0.0
C728 C 0.27846 0.67133 0.71509 0.0
C729 C 0.65079 0.66166 0.6469 0.0
C730 C 0.47505 0.7884 0.6932 0.0
C731 C 0.81182 0.77797 0.70126 0.0
C732 C 0.89513 0.75424 0.7015 0.0
C733 C 0.9357 0.74228 0.72734 0.0
C734 C 1.01505 0.7205 0.72713 0.0
C735 C 1.05491 0.70989 0.70115 0.0
C736 C 1.01467 0.72316 0.67541 0.0
C737 C 0.93567 0.74452 0.67558 0.0
C738 C 0.58662 0.69847 0.75305 0.0
C739 C 0.67091 0.58796 0.71002 0.0
O740 O 0.42107 0.5997 0.70657 0.0
O741 O 0.40575 0.62785 0.66193 0.0
O742 O 0.61789 0.70115 0.66078 0.0
O743 O 0.60846 0.61636 0.65095 0.0
O744 O 0.55486 0.79906 0.69695 0.0
O745 O 0.4484 0.73742 0.68941 0.0
O746 O 0.76765 0.76855 0.67845 0.0
O747 O 0.77 0.77513 0.725 0.0
O748 O 0.56774 0.68554 0.72792 0.0
O749 O 0.64662 0.73371 0.75368 0.0
O750 O 0.59124 0.58468 0.70892 0.0
O751 O 0.7106 0.63616 0.70565 0.0
H752 H 0.23917 0.59305 0.6574 0.0
H753 H 0.10063 0.62965 0.66506 0.0
H754 H 0.19248 0.72667 0.73553 0.0
H755 H 0.32823 0.68278 0.72918 0.0
H756 H 0.90644 0.74999 0.74773 0.0
H757 H 1.04459 0.71143 0.7472 0.0
H758 H 1.04449 0.71732 0.65496 0.0
H759 H 0.90686 0.75428 0.65535 0.0
Pr760 Pr 0.86835 0.47009 0.68639 0.0
Pr761 Pr 0.7237 0.39076 0.70381 0.0
C762 C 1.01611 0.51405 0.68529 0.0
C763 C 0.09569 0.48927 0.69249 0.0
C764 C 0.15943 0.50153 0.67443 0.0
C765 C 0.23666 0.47927 0.67848 0.0
C766 C 0.25069 0.44005 0.69995 0.0
C767 C 0.18617 0.42681 0.71879 0.0
C768 C 0.1087 0.45165 0.71515 0.0
C769 C 0.73614 0.46106 0.64692 0.0
C770 C 0.91193 0.33433 0.6932 0.0
C771 C 0.5752 0.34473 0.70129 0.0
C772 C 0.4919 0.36847 0.70149 0.0
C773 C 0.45128 0.38054 0.7273 0.0
C774 C 0.37193 0.40232 0.72705 0.0
C775 C 0.33209 0.41278 0.70104 0.0
C776 C 0.37239 0.39939 0.67533 0.0
C777 C 0.45142 0.37809 0.67555 0.0
C778 C 0.80035 0.42427 0.75306 0.0
C779 C 0.71603 0.53475 0.71003 0.0
O780 O 0.96594 0.52295 0.7066 0.0
O781 O 0.98108 0.49502 0.66192 0.0
O782 O 0.76906 0.42157 0.6608 0.0
O783 O 0.77845 0.50637 0.65097 0.0
O784 O 0.83213 0.32366 0.69697 0.0
O785 O 0.93857 0.3853 0.6894 0.0
O786 O 0.61941 0.35405 0.67847 0.0
O787 O 0.61696 0.34766 0.72504 0.0
O788 O 0.81922 0.4372 0.72793 0.0
O789 O 0.7404 0.389 0.7537 0.0
O790 O 0.7957 0.53804 0.70893 0.0
O791 O 0.67635 0.48655 0.70566 0.0
H792 H 0.14734 0.52897 0.65706 0.0
H793 H 0.28579 0.4923 0.66457 0.0
H794 H 0.19485 0.39655 0.73567 0.0
H795 H 1.05913 0.44048 0.72938 0.0
H796 H 0.48049 0.37291 0.74771 0.0
H797 H 0.34238 0.41148 0.7471 0.0
H798 H 0.34261 0.40506 0.65486 0.0
H799 H 0.48027 0.36824 0.65533 0.0
Pr800 Pr 0.47369 0.48192 0.45367 0.0
Pr801 Pr 0.61857 0.40259 0.43639 0.0
C802 C 0.32527 0.52802 0.45103 0.0
C803 C 0.24198 0.5043 0.4513 0.0
C804 C 0.20155 0.49218 0.47715 0.0
C805 C 0.12221 0.47038 0.47694 0.0
C806 C 0.08221 0.45997 0.45096 0.0
C807 C 0.12233 0.47343 0.42523 0.0
C808 C 0.20135 0.49472 0.42539 0.0
C809 C 0.55021 0.44849 0.50297 0.0
C810 C 0.46602 0.33797 0.45994 0.0
C811 C 0.76627 0.35854 0.43542 0.0
C812 C 0.84585 0.38337 0.44256 0.0
C813 C 0.90941 0.37132 0.4244 0.0
C814 C 0.98664 0.3936 0.42839 0.0
C815 C 1.00082 0.43267 0.44991 0.0
C816 C 0.93646 0.44574 0.46886 0.0
C817 C 0.85901 0.42086 0.46527 0.0
C818 C 0.48636 0.41166 0.39684 0.0
C819 C 0.66199 0.53837 0.44309 0.0
O820 O 0.36945 0.51843 0.42824 0.0
O821 O 0.36706 0.52536 0.47479 0.0
O822 O 0.56919 0.43561 0.47785 0.0
O823 O 0.49017 0.4837 0.50358 0.0
O824 O 0.5457 0.33468 0.45889 0.0
O825 O 0.42634 0.38616 0.45555 0.0
O826 O 0.71607 0.34987 0.45675 0.0
O827 O 0.73128 0.37734 0.41199 0.0
O828 O 0.51952 0.45105 0.41072 0.0
O829 O 0.52853 0.36631 0.40096 0.0
O830 O 0.58215 0.54901 0.44682 0.0
O831 O 0.68871 0.4874 0.43933 0.0
H832 H 0.2309 0.49976 0.49753 0.0
H833 H 0.09281 0.46116 0.49702 0.0
H834 H 0.09242 0.46782 0.40478 0.0
H835 H 0.23007 0.50462 0.40516 0.0
H836 H 0.89723 0.34397 0.40699 0.0
H837 H 1.03565 0.38067 0.41441 0.0
H838 H 0.94525 0.4759 0.48578 0.0
H839 H 0.80956 0.4319 0.47958 0.0
Pr840 Pr 0.41333 0.1408 0.45365 0.0
Pr841 Pr 0.26836 0.22012 0.43638 0.0
C842 C 0.56179 0.09474 0.451 0.0
C843 C 0.64509 0.11845 0.45134 0.0
C844 C 0.68548 0.13036 0.47722 0.0
C845 C 0.76482 0.15216 0.47708 0.0
C846 C 0.80482 0.16285 0.45114 0.0
C847 C 0.76477 0.14961 0.42536 0.0
C848 C 0.68578 0.12824 0.42546 0.0
C849 C 0.33681 0.17424 0.50296 0.0
C850 C 0.42091 0.28475 0.45995 0.0
C851 C 0.12064 0.26417 0.43542 0.0
C852 C 1.04106 0.23948 0.44268 0.0
C853 C 0.97706 0.25222 0.42483 0.0
C854 C 0.89983 0.22997 0.42891 0.0
C855 C 0.8861 0.19027 0.45016 0.0
C856 C 0.95082 0.17663 0.46884 0.0
C857 C 1.02828 0.20147 0.46519 0.0
C858 C 0.40056 0.21105 0.39682 0.0
C859 C 0.22502 0.08434 0.44309 0.0
O860 O 0.51768 0.10446 0.42821 0.0
O861 O 0.51992 0.09727 0.47475 0.0
O862 O 0.31782 0.1871 0.47783 0.0
O863 O 0.39687 0.13905 0.50357 0.0
O864 O 0.34123 0.28804 0.45887 0.0
O865 O 0.46062 0.23657 0.45555 0.0
O866 O 0.17097 0.27297 0.4567 0.0
O867 O 0.15548 0.24515 0.41201 0.0
O868 O 0.36743 0.17167 0.41071 0.0
O869 O 0.35834 0.2564 0.40094 0.0
O870 O 0.30487 0.07371 0.4468 0.0
O871 O 0.19828 0.1353 0.43936 0.0
H872 H 0.65609 0.1226 0.49758 0.0
H873 H 0.79422 0.16119 0.49718 0.0
H874 H 0.79471 0.15552 0.40493 0.0
H875 H 0.65711 0.11851 0.4052 0.0
H876 H 0.98903 0.27985 0.40753 0.0
H877 H 0.85047 0.24328 0.41518 0.0
H878 H 0.9423 0.14603 0.48557 0.0
H879 H 0.07803 0.18998 0.47927 0.0
Pr880 Pr 0.47366 0.14079 0.32754 0.0
Pr881 Pr 0.6185 0.22012 0.34485 0.0
C882 C 0.32523 0.09471 0.33016 0.0
C883 C 0.24194 0.11843 0.3299 0.0
C884 C 0.20146 0.13055 0.30407 0.0
C885 C 0.12212 0.15235 0.30429 0.0
C886 C 0.08216 0.16276 0.33027 0.0
C887 C 0.12233 0.14931 0.356 0.0
C888 C 0.20135 0.12801 0.35582 0.0
C889 C 0.55024 0.1742 0.27825 0.0
C890 C 0.46602 0.28475 0.32126 0.0
C891 C 0.7662 0.26416 0.34586 0.0
C892 C 0.84578 0.23934 0.33871 0.0
C893 C 0.90937 0.25142 0.35686 0.0
C894 C 0.9866 0.22913 0.35285 0.0
C895 C 1.00076 0.19005 0.33134 0.0
C896 C 0.93637 0.17696 0.31241 0.0
C897 C 0.85892 0.20183 0.31601 0.0
C898 C 0.48619 0.21107 0.38435 0.0
C899 C 0.66197 0.08435 0.33813 0.0
O900 O 0.36942 0.10423 0.35295 0.0
O901 O 0.36701 0.09744 0.3064 0.0
O902 O 0.5692 0.18709 0.30338 0.0
O903 O 0.4902 0.13901 0.27764 0.0
O904 O 0.5457 0.28803 0.32232 0.0
O905 O 0.42632 0.23657 0.32565 0.0
O906 O 0.71601 0.27288 0.32453 0.0
O907 O 0.73119 0.2453 0.36928 0.0
O908 O 0.51939 0.17167 0.3705 0.0
O909 O 0.52841 0.25642 0.38026 0.0
O910 O 0.58214 0.07371 0.33439 0.0
O911 O 0.68867 0.13532 0.34189 0.0
H912 H 0.23078 0.12297 0.28368 0.0
H913 H 0.09268 0.16156 0.28422 0.0
H914 H 0.09245 0.15492 0.37646 0.0
H915 H 0.2301 0.11812 0.37605 0.0
H916 H 0.89721 0.27878 0.37426 0.0
H917 H 1.03563 0.24208 0.36683 0.0
H918 H 0.94515 0.14679 0.29549 0.0
H919 H 0.80945 0.19078 0.30171 0.0
Pr920 Pr 0.41336 0.48194 0.32756 0.0
Pr921 Pr 0.26844 0.40263 0.34486 0.0
C922 C 0.56183 0.52799 0.33019 0.0
C923 C 0.64513 0.50427 0.32986 0.0
C924 C 0.68556 0.49235 0.30399 0.0
C925 C 0.76491 0.47056 0.30415 0.0
C926 C 0.80487 0.45987 0.3301 0.0
C927 C 0.76477 0.4731 0.35587 0.0
C928 C 0.68579 0.49447 0.35576 0.0
C929 C 0.3368 0.4485 0.27826 0.0
C930 C 0.42092 0.33798 0.32126 0.0
C931 C 0.12072 0.35858 0.34586 0.0
C932 C 1.04114 0.38327 0.33859 0.0
C933 C 0.97711 0.3705 0.35642 0.0
C934 C 0.89987 0.39275 0.35233 0.0
C935 C 0.88616 0.43246 0.33109 0.0
C936 C 0.95091 0.44612 0.31242 0.0
C937 C 1.02837 0.42129 0.31609 0.0
C938 C 0.40073 0.41167 0.38437 0.0
C939 C 0.22504 0.53839 0.33812 0.0
O940 O 0.51771 0.51833 0.35298 0.0
O941 O 0.51997 0.5254 0.30644 0.0
O942 O 0.31782 0.43563 0.30339 0.0
O943 O 0.39685 0.48369 0.27765 0.0
O944 O 0.34124 0.3347 0.32234 0.0
O945 O 0.46064 0.38616 0.32565 0.0
O946 O 0.17103 0.34973 0.32458 0.0
O947 O 0.15556 0.37766 0.36925 0.0
O948 O 0.36755 0.45107 0.37051 0.0
O949 O 0.35847 0.36633 0.38029 0.0
O950 O 0.30488 0.54903 0.33441 0.0
O951 O 0.19832 0.48743 0.34186 0.0
H952 H 0.65621 0.50012 0.28363 0.0
H953 H 0.79435 0.46154 0.28405 0.0
H954 H 0.79468 0.46719 0.3763 0.0
H955 H 0.65708 0.5042 0.37601 0.0
H956 H 0.98905 0.34285 0.37372 0.0
H957 H 0.85049 0.37943 0.36606 0.0
H958 H 0.9424 0.47672 0.2957 0.0
H959 H 0.07814 0.4328 0.30201 0.0
Pr960 Pr 0.51854 -0.02991 0.09482 0.0
Pr961 Pr 0.66327 0.89078 0.07744 0.0
C962 C 0.37077 0.01407 0.09588 0.0
C963 C 0.29119 -0.01065 0.08864 0.0
C964 C 0.22727 0.0019 0.10656 0.0
C965 C 0.15004 -0.02035 0.10248 0.0
C966 C 0.1362 -0.05984 0.08114 0.0
C967 C 0.20087 0.92668 0.0624 0.0
C968 C 0.27834 -0.04851 0.06607 0.0
C969 C 0.65065 -0.03895 0.13435 0.0
C970 C 0.47504 0.83433 0.08803 0.0
C971 C 0.81178 0.84475 0.07998 0.0
C972 C 0.89509 0.86847 0.07973 0.0
C973 C 0.93562 0.88047 0.05389 0.0
C974 C 1.01497 0.90225 0.05411 0.0
C975 C 1.05486 0.91282 0.08009 0.0
C976 C 1.01464 0.8995 0.10582 0.0
C977 C 0.93564 0.87817 0.10565 0.0
C978 C 0.58662 0.92425 0.02817 0.0
C979 C 0.67092 0.03476 0.07122 0.0
O980 O 0.42101 0.02298 0.07459 0.0
O981 O 0.40571 -0.00502 0.11926 0.0
O982 O 0.61779 0.92158 0.12044 0.0
O983 O 0.60838 0.00637 0.13026 0.0
O984 O 0.55485 0.82367 0.08428 0.0
O985 O 0.44837 0.8853 0.09182 0.0
O986 O 0.76761 0.85419 0.10279 0.0
O987 O 0.76996 0.84756 0.05624 0.0
O988 O 0.56774 -0.06281 0.0533 0.0
O989 O 0.64663 0.88903 0.02754 0.0
O990 O 0.59124 0.03805 0.0723 0.0
O991 O 0.7106 -0.01344 0.07559 0.0
H992 H 0.23927 0.02946 0.12389 0.0
H993 H 0.10076 -0.00714 0.11628 0.0
H994 H 0.1923 0.89622 0.04561 0.0
H995 H 0.32803 -0.05987 0.05193 0.0
H996 H 0.90635 0.87278 0.03351 0.0
H997 H 1.04448 0.91136 0.03404 0.0
H998 H 1.04448 0.90529 0.12628 0.0
H999 H 0.90685 0.86838 0.12589 0.0
Pr1000 Pr 0.86842 0.15262 0.09481 0.0
Pr1001 Pr 0.72372 0.23195 0.07743 0.0
C1002 C 1.01618 0.10865 0.09588 0.0
C1003 C 0.09576 0.13341 0.08867 0.0
C1004 C 0.15955 0.12106 0.10669 0.0
C1005 C 0.23679 0.14332 0.10264 0.0
C1006 C 0.25075 0.18263 0.08121 0.0
C1007 C 0.18619 0.19594 0.06239 0.0
C1008 C 0.10873 0.17111 0.06604 0.0
C1009 C 0.73631 0.16167 0.13434 0.0
C1010 C 0.91195 0.28839 0.08803 0.0
C1011 C 0.57522 0.27799 0.07997 0.0
C1012 C 0.49192 0.25426 0.07974 0.0
C1013 C 0.45136 0.24221 0.05391 0.0
C1014 C 0.37201 0.22043 0.05415 0.0
C1015 C 0.33213 0.20993 0.08014 0.0
C1016 C 0.37237 0.22331 0.10586 0.0
C1017 C 0.45139 0.24462 0.10567 0.0
C1018 C 0.80034 0.19845 0.02816 0.0
C1019 C 0.71605 0.08797 0.07121 0.0
O1020 O 0.96598 0.09978 0.07457 0.0
O1021 O 0.98119 0.12766 0.11926 0.0
O1022 O 0.76918 0.20114 0.12043 0.0
O1023 O 0.77857 0.11635 0.13025 0.0
O1024 O 0.83214 0.29905 0.08427 0.0
O1025 O 0.9386 0.23742 0.09182 0.0
O1026 O 0.61941 0.26858 0.10278 0.0
O1027 O 0.61701 0.27514 0.05622 0.0
O1028 O 0.81923 0.18552 0.05329 0.0
O1029 O 0.74036 0.2337 0.02753 0.0
O1030 O 0.79572 0.08467 0.0723 0.0
O1031 O 0.67637 0.13617 0.07558 0.0
H1032 H 0.14749 0.09358 0.12405 0.0
H1033 H 0.28596 0.13023 0.11651 0.0
H1034 H 0.19484 0.22627 0.04554 0.0
H1035 H 1.05913 0.18234 0.05184 0.0
H1036 H 0.48062 0.24986 0.03352 0.0
H1037 H 0.3425 0.21127 0.03408 0.0
H1038 H 0.34255 0.2176 0.12632 0.0
H1039 H 0.4802 0.25445 0.1259 0.0
Pr1040 Pr 0.5186 0.15264 0.18638 0.0
Pr1041 Pr 0.66329 0.23196 0.20379 0.0
C1042 C 0.37083 0.10868 0.18529 0.0
C1043 C 0.29125 0.13339 0.19254 0.0
C1044 C 0.22731 0.12081 0.17463 0.0
C1045 C 0.15007 0.14306 0.17872 0.0
C1046 C 0.13625 0.18256 0.20006 0.0
C1047 C 0.20094 0.19607 0.21878 0.0
C1048 C 0.27841 0.17126 0.21511 0.0
C1049 C 0.65079 0.16167 0.1469 0.0
C1050 C 0.47504 0.2884 0.1932 0.0
C1051 C 0.81181 0.27797 0.20126 0.0
C1052 C 0.89512 0.25424 0.2015 0.0
C1053 C 0.93569 0.24224 0.22733 0.0
C1054 C 1.01504 0.22046 0.2271 0.0
C1055 C 1.0549 0.2099 0.20112 0.0
C1056 C 1.01465 0.22321 0.17539 0.0
C1057 C 0.93564 0.24455 0.17557 0.0
C1058 C 0.58665 0.19845 0.25305 0.0
C1059 C 0.67092 0.08797 0.21001 0.0
O1060 O 0.42106 0.09972 0.20658 0.0
O1061 O 0.40579 0.12781 0.16192 0.0
O1062 O 0.61789 0.20115 0.16078 0.0
O1063 O 0.60847 0.11636 0.15095 0.0
O1064 O 0.55485 0.29906 0.19695 0.0
O1065 O 0.4484 0.23743 0.18941 0.0
O1066 O 0.76763 0.26858 0.17845 0.0
O1067 O 0.77 0.27512 0.22501 0.0
O1068 O 0.56776 0.18552 0.22792 0.0
O1069 O 0.64662 0.23371 0.25368 0.0
O1070 O 0.59125 0.08468 0.20892 0.0
O1071 O 0.71061 0.13617 0.20565 0.0
H1072 H 0.2393 0.09324 0.15731 0.0
H1073 H 0.10078 0.12985 0.16492 0.0
H1074 H 0.19238 0.22653 0.23557 0.0
H1075 H 0.32812 0.18264 0.22924 0.0
H1076 H 0.90644 0.24993 0.24772 0.0
H1077 H 1.04457 0.21135 0.24717 0.0
H1078 H 1.04447 0.21742 0.15493 0.0
H1079 H 0.90683 0.25434 0.15534 0.0
Pr1080 Pr 0.86836 -0.02991 0.18639 0.0
Pr1081 Pr 0.7237 0.89076 0.2038 0.0
C1082 C 1.01613 0.01405 0.18529 0.0
C1083 C 0.09571 -0.0107 0.19251 0.0
C1084 C 0.15952 0.00167 0.17451 0.0
C1085 C 0.23675 -0.02059 0.17856 0.0
C1086 C 0.2507 -0.05991 0.19999 0.0
C1087 C 0.18612 0.92676 0.21879 0.0
C1088 C 0.10866 -0.04841 0.21513 0.0
C1089 C 0.73616 -0.03894 0.14691 0.0
C1090 C 0.91194 0.83433 0.1932 0.0
C1091 C 0.57519 0.84474 0.20127 0.0
C1092 C 0.49189 0.86847 0.20149 0.0
C1093 C 0.45129 0.88052 0.22731 0.0
C1094 C 0.37194 0.9023 0.22707 0.0
C1095 C 0.33209 0.9128 0.20107 0.0
C1096 C 0.37237 0.89942 0.17535 0.0
C1097 C 0.45139 0.87811 0.17555 0.0
C1098 C 0.80034 0.92428 0.25306 0.0
C1099 C 0.71604 0.03475 0.21003 0.0
O1100 O 0.96593 0.02297 0.2066 0.0
O1101 O 0.98113 -0.00501 0.16192 0.0
O1102 O 0.76908 0.92157 0.16079 0.0
O1103 O 0.77848 0.00637 0.15096 0.0
O1104 O 0.83213 0.82367 0.19696 0.0
O1105 O 0.93858 0.8853 0.1894 0.0
O1106 O 0.61939 0.85409 0.17846 0.0
O1107 O 0.61697 0.84763 0.22502 0.0
O1108 O 0.81922 -0.06279 0.22793 0.0
O1109 O 0.74038 0.88901 0.25369 0.0
O1110 O 0.79571 0.03804 0.20893 0.0
O1111 O 0.67636 -0.01345 0.20565 0.0
H1112 H 0.14746 0.02916 0.15715 0.0
H1113 H 0.28594 -0.00749 0.1647 0.0
H1114 H 0.19476 0.89642 0.23564 0.0
H1115 H 1.05904 -0.05966 0.22933 0.0
H1116 H 0.48052 0.87287 0.24771 0.0
H1117 H 0.3424 0.91145 0.24712 0.0
H1118 H 0.34257 0.90514 0.15488 0.0
H1119 H 0.48022 0.86828 0.15533 0.0
Pr1120 Pr 0.47368 -0.01808 0.95366 0.0
Pr1121 Pr 0.61858 0.9026 0.93638 0.0
C1122 C 0.32525 0.02801 0.95102 0.0
C1123 C 0.24195 0.00429 0.95131 0.0
C1124 C 0.20154 -0.00778 0.97716 0.0
C1125 C 0.1222 -0.02958 0.97697 0.0
C1126 C 0.08219 -0.04006 0.95101 0.0
C1127 C 0.1223 -0.02665 0.92526 0.0
C1128 C 0.20131 -0.00533 0.92541 0.0
C1129 C 0.55019 -0.05151 1.00297 0.0
C1130 C 0.46604 0.83797 0.95994 0.0
C1131 C 0.76628 0.85855 0.93542 0.0
C1132 C 0.84586 0.88334 0.94259 0.0
C1133 C 0.90954 0.87112 0.9245 0.0
C1134 C 0.98677 0.89339 0.92852 0.0
C1135 C 1.00083 0.93262 0.94997 0.0
C1136 C 0.93638 -0.05418 0.96885 0.0
C1137 C 0.85893 0.92096 0.96525 0.0
C1138 C 0.48637 0.91167 0.89683 0.0
C1139 C 0.66198 0.03837 0.94309 0.0
O1140 O 0.36941 0.01838 0.92823 0.0
O1141 O 0.36706 0.02538 0.97477 0.0
O1142 O 0.56918 0.93562 0.97784 0.0
O1143 O 0.49015 -0.01631 1.00357 0.0
O1144 O 0.54572 0.83468 0.95888 0.0
O1145 O 0.42634 0.88615 0.95554 0.0
O1146 O 0.71605 0.84984 0.95674 0.0
O1147 O 0.73133 0.8774 0.91199 0.0
O1148 O 0.51952 -0.04895 0.91071 0.0
O1149 O 0.52855 0.86631 0.90095 0.0
O1150 O 0.58214 0.04901 0.94682 0.0
O1151 O 0.6887 -0.01259 0.93934 0.0
H1152 H 0.2309 -0.00016 0.99754 0.0
H1153 H 0.0928 -0.03876 0.99705 0.0
H1154 H 0.09237 -0.03233 0.90481 0.0
H1155 H 0.23001 0.00452 0.90517 0.0
H1156 H 0.8974 0.8437 0.90712 0.0
H1157 H 1.03586 0.88037 0.91459 0.0
H1158 H 0.94511 -0.02391 0.98573 0.0
H1159 H 0.80941 0.9321 0.9795 0.0
Pr1160 Pr 0.41333 0.6408 0.95365 0.0
Pr1161 Pr 0.26838 0.72012 0.93638 0.0
C1162 C 0.56178 0.59473 0.95101 0.0
C1163 C 0.64508 0.61844 0.95133 0.0
C1164 C 0.68547 0.63041 0.97721 0.0
C1165 C 0.76481 0.65221 0.97705 0.0
C1166 C 0.80482 0.66283 0.9511 0.0
C1167 C 0.76475 0.64954 0.92533 0.0
C1168 C 0.68575 0.62818 0.92544 0.0
C1169 C 0.3368 0.67423 1.00296 0.0
C1170 C 0.42092 0.78475 0.95995 0.0
C1171 C 0.12067 0.76417 0.93542 0.0
C1172 C 1.04109 0.73945 0.94265 0.0
C1173 C 0.97719 0.75202 0.92472 0.0
C1174 C 0.89996 0.72976 0.92878 0.0
C1175 C 0.88612 0.69022 0.9501 0.0
C1176 C 0.95076 0.67672 0.96885 0.0
C1177 C 1.02821 0.70156 0.96521 0.0
C1178 C 0.40059 0.71105 0.89682 0.0
C1179 C 0.22502 0.58434 0.94309 0.0
O1180 O 0.51765 0.60442 0.92822 0.0
O1181 O 0.51993 0.5973 0.97476 0.0
O1182 O 0.31782 0.6871 0.97783 0.0
O1183 O 0.39686 0.63905 1.00357 0.0
O1184 O 0.34124 0.78804 0.95888 0.0
O1185 O 0.46063 0.73657 0.95555 0.0
O1186 O 0.17096 0.77294 0.95671 0.0
O1187 O 0.15554 0.7452 0.912 0.0
O1188 O 0.36745 0.67167 0.91071 0.0
O1189 O 0.35838 0.7564 0.90094 0.0
O1190 O 0.30487 0.57371 0.94681 0.0
O1191 O 0.19829 0.6353 0.93935 0.0
H1192 H 0.6561 0.62269 0.99757 0.0
H1193 H 0.79422 0.66129 0.99714 0.0
H1194 H 0.79468 0.65536 0.9049 0.0
H1195 H 0.65707 0.61841 0.90519 0.0
H1196 H 0.98921 0.77959 0.90739 0.0
H1197 H 0.85068 0.74298 0.91499 0.0
H1198 H 0.94217 0.64623 0.98562 0.0
H1199 H 0.0779 0.69018 0.97935 0.0
Pr1200 Pr 0.47366 0.64079 0.82755 0.0
Pr1201 Pr 0.61852 0.72011 0.84485 0.0
C1202 C 0.32522 0.59471 0.83017 0.0
C1203 C 0.24193 0.61844 0.82989 0.0
C1204 C 0.20146 0.6305 0.80405 0.0
C1205 C 0.12212 0.65229 0.80425 0.0
C1206 C 0.08215 0.66278 0.83023 0.0
C1207 C 0.1223 0.64938 0.85597 0.0
C1208 C 0.20132 0.62807 0.85581 0.0
C1209 C 0.55021 0.67423 0.77825 0.0
C1210 C 0.46603 0.78475 0.82126 0.0
C1211 C 0.76622 0.76415 0.84585 0.0
C1212 C 0.8458 0.73936 0.83867 0.0
C1213 C 0.9095 0.75161 0.85675 0.0
C1214 C 0.98673 0.72933 0.85272 0.0
C1215 C 1.00078 0.6901 0.83127 0.0
C1216 C 0.93631 0.67687 0.8124 0.0
C1217 C 0.85885 0.70173 0.81602 0.0
C1218 C 0.48622 0.71106 0.88435 0.0
C1219 C 0.66197 0.58435 0.83812 0.0
O1220 O 0.3694 0.60428 0.85296 0.0
O1221 O 0.36702 0.5974 0.80641 0.0
O1222 O 0.56918 0.68711 0.80338 0.0
O1223 O 0.49018 0.63902 0.77764 0.0
O1224 O 0.54571 0.78803 0.82233 0.0
O1225 O 0.42633 0.73657 0.82565 0.0
O1226 O 0.71601 0.7729 0.82454 0.0
O1227 O 0.73125 0.74525 0.86927 0.0
O1228 O 0.51941 0.67166 0.8705 0.0
O1229 O 0.52845 0.75641 0.88027 0.0
O1230 O 0.58214 0.5737 0.83439 0.0
O1231 O 0.68867 0.63531 0.84189 0.0
H1232 H 0.23079 0.62287 0.78367 0.0
H1233 H 0.09268 0.66146 0.78418 0.0
H1234 H 0.09241 0.65507 0.87642 0.0
H1235 H 0.23006 0.61822 0.87604 0.0
H1236 H 0.89738 0.77904 0.87412 0.0
H1237 H 1.03584 0.74237 0.86664 0.0
H1238 H 0.94502 0.64659 0.79554 0.0
H1239 H 0.80931 0.69057 0.80178 0.0
Pr1240 Pr 0.41334 -0.01806 0.82755 0.0
Pr1241 Pr 0.26844 0.90262 0.84485 0.0
C1242 C 0.5618 0.02799 0.83018 0.0
C1243 C 0.6451 0.00427 0.82987 0.0
C1244 C 0.68555 -0.00768 0.80401 0.0
C1245 C 0.76489 -0.02948 0.80418 0.0
C1246 C 0.80486 -0.0401 0.83014 0.0
C1247 C 0.76474 -0.02683 0.8559 0.0
C1248 C 0.68574 -0.00547 0.85577 0.0
C1249 C 0.33679 -0.05151 0.77826 0.0
C1250 C 0.42092 0.83798 0.82126 0.0
C1251 C 0.12073 0.85858 0.84585 0.0
C1252 C 1.04115 0.8833 0.83861 0.0
C1253 C 0.97722 0.8707 0.85653 0.0
C1254 C 0.89999 0.89296 0.85246 0.0
C1255 C 0.88617 0.93251 0.83115 0.0
C1256 C 0.95083 -0.05397 0.81241 0.0
C1257 C 1.02829 0.9212 0.81606 0.0
C1258 C 0.40074 0.91166 0.88436 0.0
C1259 C 0.22503 0.03839 0.83812 0.0
O1260 O 0.51766 0.01836 0.85297 0.0
O1261 O 0.51996 0.02537 0.80643 0.0
O1262 O 0.31781 0.93563 0.80338 0.0
O1263 O 0.39683 -0.0163 0.77764 0.0
O1264 O 0.34125 0.83469 0.82234 0.0
O1265 O 0.46064 0.88616 0.82565 0.0
O1266 O 0.17101 0.84976 0.82456 0.0
O1267 O 0.15561 0.8776 0.86925 0.0
O1268 O 0.36756 -0.04893 0.8705 0.0
O1269 O 0.35848 0.86633 0.88028 0.0
O1270 O 0.30486 0.04903 0.8344 0.0
O1271 O 0.19831 -0.01258 0.84187 0.0
H1272 H 0.6562 4e-05 0.78364 0.0
H1273 H 0.79434 -0.03854 0.78409 0.0
H1274 H 0.79464 -0.03266 0.87634 0.0
H1275 H 0.65702 0.00429 0.87602 0.0
H1276 H 0.98923 0.84312 0.87385 0.0
H1277 H 0.8507 0.87972 0.86624 0.0
H1278 H 0.94226 -0.02346 0.79564 0.0
H1279 H 0.07799 0.93259 0.80193 0.0
loop_
_geom_bond_atom_site_label_1
_geom_bond_atom_site_label_2
_geom_bond_distance
_geom_bond_site_symmetry_2
_ccdc_geom_bond_type
Pr0 C2 2.880 . S
Pr0 O20 2.562 . S
Pr0 O21 2.490 . S
Pr0 O22 2.695 1_655 S
Pr0 O23 2.512 . S
Pr0 O25 2.437 . S
Pr0 O28 2.436 . S
Pr0 O30 2.438 1_655 S
Pr1 C11 2.880 . S
Pr1 O22 2.436 . S
Pr1 O24 2.438 . S
Pr1 O26 2.562 . S
Pr1 O27 2.490 . S
Pr1 O28 2.695 1_455 S
Pr1 O29 2.512 . S
Pr1 O31 2.437 . S
C2 Pr0 2.880 . S
C2 C3 1.491 . S
C2 O20 1.254 . S
C2 O21 1.225 . S
C3 C2 1.491 . S
C3 C4 1.392 . S
C3 C8 1.356 . S
C4 C3 1.392 . S
C4 C5 1.368 . S
C4 H32 0.929 . S
C5 C4 1.368 . S
C5 C6 1.386 . S
C5 H33 0.929 . S
C6 C5 1.386 . S
C6 C7 1.373 . S
C7 C6 1.373 . S
C7 C8 1.409 . S
C7 H34 0.931 . S
C8 C3 1.356 . S
C8 C7 1.409 . S
C8 H35 0.930 . S
C9 O22 1.270 . S
C9 O23 1.248 1_455 S
C10 O24 1.267 1_655 S
C10 O25 1.278 . S
C11 Pr1 2.880 . S
C11 C12 1.491 . S
C11 O26 1.254 . S
C11 O27 1.225 . S
C12 C11 1.491 . S
C12 C13 1.392 . S
C12 C17 1.356 . S
C13 C12 1.392 . S
C13 C14 1.368 . S
C13 H36 0.929 . S
C14 C13 1.368 . S
C14 C15 1.386 . S
C14 H37 0.929 . S
C15 C14 1.386 . S
C15 C16 1.373 . S
C16 C15 1.373 . S
C16 C17 1.409 . S
C16 H38 0.931 . S
C17 C12 1.356 . S
C17 C16 1.409 . S
C17 H39 0.930 . S
C18 O28 1.270 1_455 S
C18 O29 1.248 . S
C19 O30 1.267 . S
C19 O31 1.278 . S
O20 Pr0 2.562 . S
O20 C2 1.254 . S
O21 Pr0 2.490 . S
O21 C2 1.225 . S
O22 Pr0 2.695 1_455 S
O22 Pr1 2.436 . S
O22 C9 1.270 . S
O23 Pr0 2.512 . S
O23 C9 1.248 1_655 S
O24 Pr1 2.438 . S
O24 C10 1.267 1_455 S
O25 Pr0 2.437 . S
O25 C10 1.278 . S
O26 Pr1 2.562 . S
O26 C11 1.254 . S
O27 Pr1 2.490 . S
O27 C11 1.225 . S
O28 Pr0 2.436 . S
O28 Pr1 2.695 1_655 S
O28 C18 1.270 1_655 S
O29 Pr1 2.512 . S
O29 C18 1.248 . S
O30 Pr0 2.438 1_455 S
O30 C19 1.267 . S
O31 Pr1 2.437 . S
O31 C19 1.278 . S
H32 C4 0.929 . S
H33 C5 0.929 . S
H34 C7 0.931 . S
H35 C8 0.930 . S
H36 C13 0.929 . S
H37 C14 0.929 . S
H38 C16 0.931 . S
H39 C17 0.930 . S
Pr40 C42 2.880 . S
Pr40 O60 2.562 . S
Pr40 O61 2.490 . S
Pr40 O62 2.695 . S
Pr40 O63 2.512 . S
Pr40 O65 2.437 . S
Pr40 O68 2.436 . S
Pr40 O70 2.438 . S
Pr41 C51 2.880 1_455 S
Pr41 O62 2.436 . S
Pr41 O64 2.438 . S
Pr41 O66 2.562 . S
Pr41 O67 2.490 . S
Pr41 O68 2.695 . S
Pr41 O69 2.512 . S
Pr41 O71 2.437 . S
C42 Pr40 2.880 . S
C42 C43 1.491 . S
C42 O60 1.254 . S
C42 O61 1.225 . S
C43 C42 1.491 . S
C43 C44 1.392 . S
C43 C48 1.356 . S
C44 C43 1.392 . S
C44 C45 1.368 . S
C44 H72 0.929 . S
C45 C44 1.368 . S
C45 C46 1.386 . S
C45 H73 0.929 . S
C46 C45 1.386 . S
C46 C47 1.373 . S
C47 C46 1.373 . S
C47 C48 1.409 . S
C47 H74 0.931 . S
C48 C43 1.356 . S
C48 C47 1.409 . S
C48 H75 0.930 . S
C49 O62 1.270 . S
C49 O63 1.248 . S
C50 O64 1.267 . S
C50 O65 1.278 . S
C51 Pr41 2.880 1_655 S
C51 C52 1.491 . S
C51 O66 1.254 1_655 S
C51 O67 1.225 1_655 S
C52 C51 1.491 . S
C52 C53 1.392 . S
C52 C57 1.356 . S
C53 C52 1.392 . S
C53 C54 1.368 . S
C53 H76 0.929 . S
C54 C53 1.368 . S
C54 C55 1.386 . S
C54 H77 0.929 . S
C55 C54 1.386 . S
C55 C56 1.373 . S
C56 C55 1.373 . S
C56 C57 1.409 . S
C56 H78 0.931 . S
C57 C52 1.356 . S
C57 C56 1.409 . S
C57 H79 0.930 . S
C58 O68 1.270 . S
C58 O69 1.248 . S
C59 O70 1.267 . S
C59 O71 1.278 . S
O60 Pr40 2.562 . S
O60 C42 1.254 . S
O61 Pr40 2.490 . S
O61 C42 1.225 . S
O62 Pr40 2.695 . S
O62 Pr41 2.436 . S
O62 C49 1.270 . S
O63 Pr40 2.512 . S
O63 C49 1.248 . S
O64 Pr41 2.438 . S
O64 C50 1.267 . S
O65 Pr40 2.437 . S
O65 C50 1.278 . S
O66 Pr41 2.562 . S
O66 C51 1.254 1_455 S
O67 Pr41 2.490 . S
O67 C51 1.225 1_455 S
O68 Pr40 2.436 . S
O68 Pr41 2.695 . S
O68 C58 1.270 . S
O69 Pr41 2.512 . S
O69 C58 1.248 . S
O70 Pr40 2.438 . S
O70 C59 1.267 . S
O71 Pr41 2.437 . S
O71 C59 1.278 . S
H72 C44 0.929 . S
H73 C45 0.929 . S
H74 C47 0.931 . S
H75 C48 0.930 . S
H76 C53 0.929 . S
H77 C54 0.929 . S
H78 C56 0.931 . S
H79 C57 0.930 . S
Pr80 C82 2.880 . S
Pr80 O100 2.562 . S
Pr80 O101 2.490 . S
Pr80 O102 2.695 1_655 S
Pr80 O103 2.512 . S
Pr80 O105 2.437 . S
Pr80 O108 2.436 . S
Pr80 O110 2.438 1_655 S
Pr81 C91 2.880 . S
Pr81 O102 2.436 . S
Pr81 O104 2.438 . S
Pr81 O106 2.562 . S
Pr81 O107 2.490 . S
Pr81 O108 2.695 1_455 S
Pr81 O109 2.512 . S
Pr81 O111 2.437 . S
C82 Pr80 2.880 . S
C82 C83 1.491 . S
C82 O100 1.254 . S
C82 O101 1.225 . S
C83 C82 1.491 . S
C83 C84 1.392 . S
C83 C88 1.356 . S
C84 C83 1.392 . S
C84 C85 1.368 . S
C84 H112 0.929 . S
C85 C84 1.368 . S
C85 C86 1.386 . S
C85 H113 0.929 . S
C86 C85 1.386 . S
C86 C87 1.373 . S
C87 C86 1.373 . S
C87 C88 1.409 . S
C87 H114 0.931 . S
C88 C83 1.356 . S
C88 C87 1.409 . S
C88 H115 0.930 . S
C89 O102 1.270 . S
C89 O103 1.248 1_455 S
C90 O104 1.267 1_655 S
C90 O105 1.278 . S
C91 Pr81 2.880 . S
C91 C92 1.491 . S
C91 O106 1.254 . S
C91 O107 1.225 . S
C92 C91 1.491 . S
C92 C93 1.392 . S
C92 C97 1.356 . S
C93 C92 1.392 . S
C93 C94 1.368 . S
C93 H116 0.929 . S
C94 C93 1.368 . S
C94 C95 1.386 . S
C94 H117 0.929 . S
C95 C94 1.386 . S
C95 C96 1.373 . S
C96 C95 1.373 . S
C96 C97 1.409 . S
C96 H118 0.931 . S
C97 C92 1.356 . S
C97 C96 1.409 . S
C97 H119 0.930 . S
C98 O108 1.270 1_455 S
C98 O109 1.248 . S
C99 O110 1.267 . S
C99 O111 1.278 . S
O100 Pr80 2.562 . S
O100 C82 1.254 . S
O101 Pr80 2.490 . S
O101 C82 1.225 . S
O102 Pr80 2.695 1_455 S
O102 Pr81 2.436 . S
O102 C89 1.270 . S
O103 Pr80 2.512 . S
O103 C89 1.248 1_655 S
O104 Pr81 2.438 . S
O104 C90 1.267 1_455 S
O105 Pr80 2.437 . S
O105 C90 1.278 . S
O106 Pr81 2.562 . S
O106 C91 1.254 . S
O107 Pr81 2.490 . S
O107 C91 1.225 . S
O108 Pr80 2.436 . S
O108 Pr81 2.695 1_655 S
O108 C98 1.270 1_655 S
O109 Pr81 2.512 . S
O109 C98 1.248 . S
O110 Pr80 2.438 1_455 S
O110 C99 1.267 . S
O111 Pr81 2.437 . S
O111 C99 1.278 . S
H112 C84 0.929 . S
H113 C85 0.929 . S
H114 C87 0.931 . S
H115 C88 0.930 . S
H116 C93 0.929 . S
H117 C94 0.929 . S
H118 C96 0.931 . S
H119 C97 0.930 . S
Pr120 C122 2.880 . S
Pr120 O140 2.562 . S
Pr120 O141 2.490 . S
Pr120 O142 2.695 . S
Pr120 O143 2.512 . S
Pr120 O145 2.437 . S
Pr120 O148 2.436 . S
Pr120 O150 2.438 . S
Pr121 C131 2.880 1_455 S
Pr121 O142 2.436 . S
Pr121 O144 2.438 . S
Pr121 O146 2.562 . S
Pr121 O147 2.490 . S
Pr121 O148 2.695 . S
Pr121 O149 2.512 . S
Pr121 O151 2.437 . S
C122 Pr120 2.880 . S
C122 C123 1.491 . S
C122 O140 1.254 . S
C122 O141 1.225 . S
C123 C122 1.491 . S
C123 C124 1.392 . S
C123 C128 1.356 . S
C124 C123 1.392 . S
C124 C125 1.368 . S
C124 H152 0.929 . S
C125 C124 1.368 . S
C125 C126 1.386 . S
C125 H153 0.929 . S
C126 C125 1.386 . S
C126 C127 1.373 . S
C127 C126 1.373 . S
C127 C128 1.409 . S
C127 H154 0.931 . S
C128 C123 1.356 . S
C128 C127 1.409 . S
C128 H155 0.930 . S
C129 O142 1.270 . S
C129 O143 1.248 . S
C130 O144 1.267 . S
C130 O145 1.278 . S
C131 Pr121 2.880 1_655 S
C131 C132 1.491 . S
C131 O146 1.254 1_655 S
C131 O147 1.225 1_655 S
C132 C131 1.491 . S
C132 C133 1.392 . S
C132 C137 1.356 . S
C133 C132 1.392 . S
C133 C134 1.368 . S
C133 H156 0.929 . S
C134 C133 1.368 . S
C134 C135 1.386 . S
C134 H157 0.929 . S
C135 C134 1.386 . S
C135 C136 1.373 . S
C136 C135 1.373 . S
C136 C137 1.409 . S
C136 H158 0.931 . S
C137 C132 1.356 . S
C137 C136 1.409 . S
C137 H159 0.930 . S
C138 O148 1.270 . S
C138 O149 1.248 . S
C139 O150 1.267 . S
C139 O151 1.278 . S
O140 Pr120 2.562 . S
O140 C122 1.254 . S
O141 Pr120 2.490 . S
O141 C122 1.225 . S
O142 Pr120 2.695 . S
O142 Pr121 2.436 . S
O142 C129 1.270 . S
O143 Pr120 2.512 . S
O143 C129 1.248 . S
O144 Pr121 2.438 . S
O144 C130 1.267 . S
O145 Pr120 2.437 . S
O145 C130 1.278 . S
O146 Pr121 2.562 . S
O146 C131 1.254 1_455 S
O147 Pr121 2.490 . S
O147 C131 1.225 1_455 S
O148 Pr120 2.436 . S
O148 Pr121 2.695 . S
O148 C138 1.270 . S
O149 Pr121 2.512 . S
O149 C138 1.248 . S
O150 Pr120 2.438 . S
O150 C139 1.267 . S
O151 Pr121 2.437 . S
O151 C139 1.278 . S
H152 C124 0.929 . S
H153 C125 0.929 . S
H154 C127 0.931 . S
H155 C128 0.930 . S
H156 C133 0.929 . S
H157 C134 0.929 . S
H158 C136 0.931 . S
H159 C137 0.930 . S
Pr160 C162 2.880 . S
Pr160 O180 2.562 . S
Pr160 O181 2.490 . S
Pr160 O182 2.695 1_655 S
Pr160 O183 2.512 . S
Pr160 O185 2.437 . S
Pr160 O188 2.436 . S
Pr160 O190 2.438 . S
Pr161 C171 2.880 . S
Pr161 O182 2.436 . S
Pr161 O184 2.438 1_455 S
Pr161 O186 2.562 . S
Pr161 O187 2.490 . S
Pr161 O188 2.695 1_455 S
Pr161 O189 2.512 . S
Pr161 O191 2.437 . S
C162 Pr160 2.880 . S
C162 C163 1.491 . S
C162 O180 1.254 . S
C162 O181 1.225 . S
C163 C162 1.491 . S
C163 C164 1.392 . S
C163 C168 1.356 . S
C164 C163 1.392 . S
C164 C165 1.368 . S
C164 H192 0.929 . S
C165 C164 1.368 . S
C165 C166 1.386 . S
C165 H193 0.929 . S
C166 C165 1.386 . S
C166 C167 1.373 . S
C167 C166 1.373 . S
C167 C168 1.409 . S
C167 H194 0.931 . S
C168 C163 1.356 . S
C168 C167 1.409 . S
C168 H195 0.930 . S
C169 O182 1.270 1_655 S
C169 O183 1.248 . S
C170 O184 1.267 . S
C170 O185 1.278 . S
C171 Pr161 2.880 . S
C171 C172 1.491 . S
C171 O186 1.254 . S
C171 O187 1.225 . S
C172 C171 1.491 . S
C172 C173 1.392 . S
C172 C177 1.356 . S
C173 C172 1.392 . S
C173 C174 1.368 . S
C173 H196 0.929 . S
C174 C173 1.368 . S
C174 C175 1.386 . S
C174 H197 0.929 . S
C175 C174 1.386 . S
C175 C176 1.373 . S
C176 C175 1.373 . S
C176 C177 1.409 . S
C176 H198 0.931 . S
C177 C172 1.356 . S
C177 C176 1.409 . S
C177 H199 0.930 . S
C178 O188 1.270 . S
C178 O189 1.248 1_655 S
C179 O190 1.267 1_455 S
C179 O191 1.278 . S
O180 Pr160 2.562 . S
O180 C162 1.254 . S
O181 Pr160 2.490 . S
O181 C162 1.225 . S
O182 Pr160 2.695 1_455 S
O182 Pr161 2.436 . S
O182 C169 1.270 1_455 S
O183 Pr160 2.512 . S
O183 C169 1.248 . S
O184 Pr161 2.438 1_655 S
O184 C170 1.267 . S
O185 Pr160 2.437 . S
O185 C170 1.278 . S
O186 Pr161 2.562 . S
O186 C171 1.254 . S
O187 Pr161 2.490 . S
O187 C171 1.225 . S
O188 Pr160 2.436 . S
O188 Pr161 2.695 1_655 S
O188 C178 1.270 . S
O189 Pr161 2.512 . S
O189 C178 1.248 1_455 S
O190 Pr160 2.438 . S
O190 C179 1.267 1_655 S
O191 Pr161 2.437 . S
O191 C179 1.278 . S
H192 C164 0.929 . S
H193 C165 0.929 . S
H194 C167 0.931 . S
H195 C168 0.930 . S
H196 C173 0.929 . S
H197 C174 0.929 . S
H198 C176 0.931 . S
H199 C177 0.930 . S
Pr200 C202 2.880 1_655 S
Pr200 O220 2.562 . S
Pr200 O221 2.490 . S
Pr200 O222 2.695 . S
Pr200 O223 2.512 . S
Pr200 O225 2.437 . S
Pr200 O228 2.436 . S
Pr200 O230 2.438 . S
Pr201 C211 2.880 . S
Pr201 O222 2.436 . S
Pr201 O224 2.438 . S
Pr201 O226 2.562 . S
Pr201 O227 2.490 . S
Pr201 O228 2.695 . S
Pr201 O229 2.512 . S
Pr201 O231 2.437 . S
C202 Pr200 2.880 1_455 S
C202 C203 1.491 . S
C202 O220 1.254 1_455 S
C202 O221 1.225 1_455 S
C203 C202 1.491 . S
C203 C204 1.392 . S
C203 C208 1.356 . S
C204 C203 1.392 . S
C204 C205 1.368 . S
C204 H232 0.929 . S
C205 C204 1.368 . S
C205 C206 1.386 . S
C205 H233 0.929 . S
C206 C205 1.386 . S
C206 C207 1.373 . S
C207 C206 1.373 . S
C207 C208 1.409 . S
C207 H234 0.931 . S
C208 C203 1.356 . S
C208 C207 1.409 . S
C208 H235 0.930 . S
C209 O222 1.270 . S
C209 O223 1.248 . S
C210 O224 1.267 . S
C210 O225 1.278 . S
C211 Pr201 2.880 . S
C211 C212 1.491 . S
C211 O226 1.254 . S
C211 O227 1.225 . S
C212 C211 1.491 . S
C212 C213 1.392 . S
C212 C217 1.356 . S
C213 C212 1.392 . S
C213 C214 1.368 . S
C213 H236 0.929 . S
C214 C213 1.368 . S
C214 C215 1.386 . S
C214 H237 0.929 . S
C215 C214 1.386 . S
C215 C216 1.373 . S
C216 C215 1.373 . S
C216 C217 1.409 . S
C216 H238 0.931 . S
C217 C212 1.356 . S
C217 C216 1.409 . S
C217 H239 0.930 . S
C218 O228 1.270 . S
C218 O229 1.248 . S
C219 O230 1.267 . S
C219 O231 1.278 . S
O220 Pr200 2.562 . S
O220 C202 1.254 1_655 S
O221 Pr200 2.490 . S
O221 C202 1.225 1_655 S
O222 Pr200 2.695 . S
O222 Pr201 2.436 . S
O222 C209 1.270 . S
O223 Pr200 2.512 . S
O223 C209 1.248 . S
O224 Pr201 2.438 . S
O224 C210 1.267 . S
O225 Pr200 2.437 . S
O225 C210 1.278 . S
O226 Pr201 2.562 . S
O226 C211 1.254 . S
O227 Pr201 2.490 . S
O227 C211 1.225 . S
O228 Pr200 2.436 . S
O228 Pr201 2.695 . S
O228 C218 1.270 . S
O229 Pr201 2.512 . S
O229 C218 1.248 . S
O230 Pr200 2.438 . S
O230 C219 1.267 . S
O231 Pr201 2.437 . S
O231 C219 1.278 . S
H232 C204 0.929 . S
H233 C205 0.929 . S
H234 C207 0.931 . S
H235 C208 0.930 . S
H236 C213 0.929 . S
H237 C214 0.929 . S
H238 C216 0.931 . S
H239 C217 0.930 . S
Pr240 C242 2.880 . S
Pr240 O260 2.562 . S
Pr240 O261 2.490 . S
Pr240 O262 2.695 1_655 S
Pr240 O263 2.512 . S
Pr240 O265 2.437 . S
Pr240 O268 2.436 . S
Pr240 O270 2.438 . S
Pr241 C251 2.880 . S
Pr241 O262 2.436 . S
Pr241 O264 2.438 1_455 S
Pr241 O266 2.562 . S
Pr241 O267 2.490 . S
Pr241 O268 2.695 1_455 S
Pr241 O269 2.512 . S
Pr241 O271 2.437 . S
C242 Pr240 2.880 . S
C242 C243 1.491 . S
C242 O260 1.254 . S
C242 O261 1.225 . S
C243 C242 1.491 . S
C243 C244 1.392 . S
C243 C248 1.356 . S
C244 C243 1.392 . S
C244 C245 1.368 . S
C244 H272 0.929 . S
C245 C244 1.368 . S
C245 C246 1.386 . S
C245 H273 0.929 . S
C246 C245 1.386 . S
C246 C247 1.373 . S
C247 C246 1.373 . S
C247 C248 1.409 . S
C247 H274 0.931 . S
C248 C243 1.356 . S
C248 C247 1.409 . S
C248 H275 0.930 . S
C249 O262 1.270 1_655 S
C249 O263 1.248 . S
C250 O264 1.267 . S
C250 O265 1.278 . S
C251 Pr241 2.880 . S
C251 C252 1.491 . S
C251 O266 1.254 . S
C251 O267 1.225 . S
C252 C251 1.491 . S
C252 C253 1.392 . S
C252 C257 1.356 . S
C253 C252 1.392 . S
C253 C254 1.368 . S
C253 H276 0.929 . S
C254 C253 1.368 . S
C254 C255 1.386 . S
C254 H277 0.929 . S
C255 C254 1.386 . S
C255 C256 1.373 . S
C256 C255 1.373 . S
C256 C257 1.409 . S
C256 H278 0.931 . S
C257 C252 1.356 . S
C257 C256 1.409 . S
C257 H279 0.930 . S
C258 O268 1.270 . S
C258 O269 1.248 1_655 S
C259 O270 1.267 1_455 S
C259 O271 1.278 . S
O260 Pr240 2.562 . S
O260 C242 1.254 . S
O261 Pr240 2.490 . S
O261 C242 1.225 . S
O262 Pr240 2.695 1_455 S
O262 Pr241 2.436 . S
O262 C249 1.270 1_455 S
O263 Pr240 2.512 . S
O263 C249 1.248 . S
O264 Pr241 2.438 1_655 S
O264 C250 1.267 . S
O265 Pr240 2.437 . S
O265 C250 1.278 . S
O266 Pr241 2.562 . S
O266 C251 1.254 . S
O267 Pr241 2.490 . S
O267 C251 1.225 . S
O268 Pr240 2.436 . S
O268 Pr241 2.695 1_655 S
O268 C258 1.270 . S
O269 Pr241 2.512 . S
O269 C258 1.248 1_455 S
O270 Pr240 2.438 . S
O270 C259 1.267 1_655 S
O271 Pr241 2.437 . S
O271 C259 1.278 . S
H272 C244 0.929 . S
H273 C245 0.929 . S
H274 C247 0.931 . S
H275 C248 0.930 . S
H276 C253 0.929 . S
H277 C254 0.929 . S
H278 C256 0.931 . S
H279 C257 0.930 . S
Pr280 C282 2.880 1_655 S
Pr280 O300 2.562 . S
Pr280 O301 2.490 . S
Pr280 O302 2.695 . S
Pr280 O303 2.512 . S
Pr280 O305 2.437 . S
Pr280 O308 2.436 . S
Pr280 O310 2.438 . S
Pr281 C291 2.880 . S
Pr281 O302 2.436 . S
Pr281 O304 2.438 . S
Pr281 O306 2.562 . S
Pr281 O307 2.490 . S
Pr281 O308 2.695 . S
Pr281 O309 2.512 . S
Pr281 O311 2.437 . S
C282 Pr280 2.880 1_455 S
C282 C283 1.491 . S
C282 O300 1.254 1_455 S
C282 O301 1.225 1_455 S
C283 C282 1.491 . S
C283 C284 1.392 . S
C283 C288 1.356 . S
C284 C283 1.392 . S
C284 C285 1.368 . S
C284 H312 0.929 . S
C285 C284 1.368 . S
C285 C286 1.386 . S
C285 H313 0.929 . S
C286 C285 1.386 . S
C286 C287 1.373 . S
C287 C286 1.373 . S
C287 C288 1.409 . S
C287 H314 0.931 . S
C288 C283 1.356 . S
C288 C287 1.409 . S
C288 H315 0.930 . S
C289 O302 1.270 . S
C289 O303 1.248 . S
C290 O304 1.267 . S
C290 O305 1.278 . S
C291 Pr281 2.880 . S
C291 C292 1.491 . S
C291 O306 1.254 . S
C291 O307 1.225 . S
C292 C291 1.491 . S
C292 C293 1.392 . S
C292 C297 1.356 . S
C293 C292 1.392 . S
C293 C294 1.368 . S
C293 H316 0.929 . S
C294 C293 1.368 . S
C294 C295 1.386 . S
C294 H317 0.929 . S
C295 C294 1.386 . S
C295 C296 1.373 . S
C296 C295 1.373 . S
C296 C297 1.409 . S
C296 H318 0.931 . S
C297 C292 1.356 . S
C297 C296 1.409 . S
C297 H319 0.930 . S
C298 O308 1.270 . S
C298 O309 1.248 . S
C299 O310 1.267 . S
C299 O311 1.278 . S
O300 Pr280 2.562 . S
O300 C282 1.254 1_655 S
O301 Pr280 2.490 . S
O301 C282 1.225 1_655 S
O302 Pr280 2.695 . S
O302 Pr281 2.436 . S
O302 C289 1.270 . S
O303 Pr280 2.512 . S
O303 C289 1.248 . S
O304 Pr281 2.438 . S
O304 C290 1.267 . S
O305 Pr280 2.437 . S
O305 C290 1.278 . S
O306 Pr281 2.562 . S
O306 C291 1.254 . S
O307 Pr281 2.490 . S
O307 C291 1.225 . S
O308 Pr280 2.436 . S
O308 Pr281 2.695 . S
O308 C298 1.270 . S
O309 Pr281 2.512 . S
O309 C298 1.248 . S
O310 Pr280 2.438 . S
O310 C299 1.267 . S
O311 Pr281 2.437 . S
O311 C299 1.278 . S
H312 C284 0.929 . S
H313 C285 0.929 . S
H314 C287 0.931 . S
H315 C288 0.930 . S
H316 C293 0.929 . S
H317 C294 0.929 . S
H318 C296 0.931 . S
H319 C297 0.930 . S
Pr320 C322 2.880 . S
Pr320 O340 2.562 . S
Pr320 O341 2.490 . S
Pr320 O342 2.695 1_645 S
Pr320 O343 2.512 . S
Pr320 O345 2.437 1_545 S
Pr320 O348 2.436 1_545 S
Pr320 O350 2.438 1_655 S
Pr321 C331 2.880 . S
Pr321 O342 2.436 . S
Pr321 O344 2.438 . S
Pr321 O346 2.562 . S
Pr321 O347 2.490 . S
Pr321 O348 2.695 1_455 S
Pr321 O349 2.512 . S
Pr321 O351 2.437 1_565 S
C322 Pr320 2.880 . S
C322 C323 1.491 . S
C322 O340 1.254 . S
C322 O341 1.225 . S
C323 C322 1.491 . S
C323 C324 1.392 . S
C323 C328 1.356 1_545 S
C324 C323 1.392 . S
C324 C325 1.368 . S
C324 H352 0.929 . S
C325 C324 1.368 . S
C325 C326 1.386 1_545 S
C325 H353 0.929 . S
C326 C325 1.386 1_565 S
C326 C327 1.373 . S
C327 C326 1.373 . S
C327 C328 1.409 . S
C327 H354 0.931 . S
C328 C323 1.356 1_565 S
C328 C327 1.409 . S
C328 H355 0.930 . S
C329 O342 1.270 . S
C329 O343 1.248 1_465 S
C330 O344 1.267 1_655 S
C330 O345 1.278 . S
C331 Pr321 2.880 . S
C331 C332 1.491 . S
C331 O346 1.254 . S
C331 O347 1.225 . S
C332 C331 1.491 . S
C332 C333 1.392 . S
C332 C337 1.356 . S
C333 C332 1.392 . S
C333 C334 1.368 . S
C333 H356 0.929 . S
C334 C333 1.368 . S
C334 C335 1.386 . S
C334 H357 0.929 . S
C335 C334 1.386 . S
C335 C336 1.373 . S
C336 C335 1.373 . S
C336 C337 1.409 . S
C336 H358 0.931 . S
C337 C332 1.356 . S
C337 C336 1.409 . S
C337 H359 0.930 . S
C338 O348 1.270 1_455 S
C338 O349 1.248 . S
C339 O350 1.267 . S
C339 O351 1.278 . S
O340 Pr320 2.562 . S
O340 C322 1.254 . S
O341 Pr320 2.490 . S
O341 C322 1.225 . S
O342 Pr320 2.695 1_465 S
O342 Pr321 2.436 . S
O342 C329 1.270 . S
O343 Pr320 2.512 . S
O343 C329 1.248 1_645 S
O344 Pr321 2.438 . S
O344 C330 1.267 1_455 S
O345 Pr320 2.437 1_565 S
O345 C330 1.278 . S
O346 Pr321 2.562 . S
O346 C331 1.254 . S
O347 Pr321 2.490 . S
O347 C331 1.225 . S
O348 Pr320 2.436 1_565 S
O348 Pr321 2.695 1_655 S
O348 C338 1.270 1_655 S
O349 Pr321 2.512 . S
O349 C338 1.248 . S
O350 Pr320 2.438 1_455 S
O350 C339 1.267 . S
O351 Pr321 2.437 1_545 S
O351 C339 1.278 . S
H352 C324 0.929 . S
H353 C325 0.929 . S
H354 C327 0.931 . S
H355 C328 0.930 . S
H356 C333 0.929 . S
H357 C334 0.929 . S
H358 C336 0.931 . S
H359 C337 0.930 . S
Pr360 C362 2.880 . S
Pr360 O380 2.562 . S
Pr360 O381 2.490 . S
Pr360 O382 2.695 . S
Pr360 O383 2.512 . S
Pr360 O385 2.437 . S
Pr360 O388 2.436 . S
Pr360 O390 2.438 . S
Pr361 C371 2.880 1_455 S
Pr361 O382 2.436 . S
Pr361 O384 2.438 . S
Pr361 O386 2.562 . S
Pr361 O387 2.490 . S
Pr361 O388 2.695 . S
Pr361 O389 2.512 . S
Pr361 O391 2.437 . S
C362 Pr360 2.880 . S
C362 C363 1.491 . S
C362 O380 1.254 . S
C362 O381 1.225 . S
C363 C362 1.491 . S
C363 C364 1.392 . S
C363 C368 1.356 . S
C364 C363 1.392 . S
C364 C365 1.368 . S
C364 H392 0.929 . S
C365 C364 1.368 . S
C365 C366 1.386 . S
C365 H393 0.929 . S
C366 C365 1.386 . S
C366 C367 1.373 . S
C367 C366 1.373 . S
C367 C368 1.409 . S
C367 H394 0.931 . S
C368 C363 1.356 . S
C368 C367 1.409 . S
C368 H395 0.930 . S
C369 O382 1.270 . S
C369 O383 1.248 . S
C370 O384 1.267 . S
C370 O385 1.278 . S
C371 Pr361 2.880 1_655 S
C371 C372 1.491 . S
C371 O386 1.254 1_655 S
C371 O387 1.225 1_655 S
C372 C371 1.491 . S
C372 C373 1.392 . S
C372 C377 1.356 . S
C373 C372 1.392 . S
C373 C374 1.368 . S
C373 H396 0.929 . S
C374 C373 1.368 . S
C374 C375 1.386 . S
C374 H397 0.929 . S
C375 C374 1.386 . S
C375 C376 1.373 . S
C376 C375 1.373 . S
C376 C377 1.409 . S
C376 H398 0.931 . S
C377 C372 1.356 . S
C377 C376 1.409 . S
C377 H399 0.930 . S
C378 O388 1.270 . S
C378 O389 1.248 . S
C379 O390 1.267 . S
C379 O391 1.278 . S
O380 Pr360 2.562 . S
O380 C362 1.254 . S
O381 Pr360 2.490 . S
O381 C362 1.225 . S
O382 Pr360 2.695 . S
O382 Pr361 2.436 . S
O382 C369 1.270 . S
O383 Pr360 2.512 . S
O383 C369 1.248 . S
O384 Pr361 2.438 . S
O384 C370 1.267 . S
O385 Pr360 2.437 . S
O385 C370 1.278 . S
O386 Pr361 2.562 . S
O386 C371 1.254 1_455 S
O387 Pr361 2.490 . S
O387 C371 1.225 1_455 S
O388 Pr360 2.436 . S
O388 Pr361 2.695 . S
O388 C378 1.270 . S
O389 Pr361 2.512 . S
O389 C378 1.248 . S
O390 Pr360 2.438 . S
O390 C379 1.267 . S
O391 Pr361 2.437 . S
O391 C379 1.278 . S
H392 C364 0.929 . S
H393 C365 0.929 . S
H394 C367 0.931 . S
H395 C368 0.930 . S
H396 C373 0.929 . S
H397 C374 0.929 . S
H398 C376 0.931 . S
H399 C377 0.930 . S
Pr400 C402 2.880 . S
Pr400 O420 2.562 . S
Pr400 O421 2.490 . S
Pr400 O422 2.695 1_655 S
Pr400 O423 2.512 . S
Pr400 O425 2.437 . S
Pr400 O428 2.436 . S
Pr400 O430 2.438 1_655 S
Pr401 C411 2.880 . S
Pr401 O422 2.436 . S
Pr401 O424 2.438 . S
Pr401 O426 2.562 . S
Pr401 O427 2.490 . S
Pr401 O428 2.695 1_455 S
Pr401 O429 2.512 . S
Pr401 O431 2.437 . S
C402 Pr400 2.880 . S
C402 C403 1.491 . S
C402 O420 1.254 . S
C402 O421 1.225 . S
C403 C402 1.491 . S
C403 C404 1.392 . S
C403 C408 1.356 . S
C404 C403 1.392 . S
C404 C405 1.368 . S
C404 H432 0.929 . S
C405 C404 1.368 . S
C405 C406 1.386 . S
C405 H433 0.929 . S
C406 C405 1.386 . S
C406 C407 1.373 . S
C407 C406 1.373 . S
C407 C408 1.409 . S
C407 H434 0.931 . S
C408 C403 1.356 . S
C408 C407 1.409 . S
C408 H435 0.930 . S
C409 O422 1.270 . S
C409 O423 1.248 1_455 S
C410 O424 1.267 1_655 S
C410 O425 1.278 . S
C411 Pr401 2.880 . S
C411 C412 1.491 . S
C411 O426 1.254 . S
C411 O427 1.225 . S
C412 C411 1.491 . S
C412 C413 1.392 . S
C412 C417 1.356 . S
C413 C412 1.392 . S
C413 C414 1.368 . S
C413 H436 0.929 . S
C414 C413 1.368 . S
C414 C415 1.386 . S
C414 H437 0.929 . S
C415 C414 1.386 . S
C415 C416 1.373 . S
C416 C415 1.373 . S
C416 C417 1.409 . S
C416 H438 0.931 . S
C417 C412 1.356 . S
C417 C416 1.409 . S
C417 H439 0.930 . S
C418 O428 1.270 1_455 S
C418 O429 1.248 . S
C419 O430 1.267 . S
C419 O431 1.278 . S
O420 Pr400 2.562 . S
O420 C402 1.254 . S
O421 Pr400 2.490 . S
O421 C402 1.225 . S
O422 Pr400 2.695 1_455 S
O422 Pr401 2.436 . S
O422 C409 1.270 . S
O423 Pr400 2.512 . S
O423 C409 1.248 1_655 S
O424 Pr401 2.438 . S
O424 C410 1.267 1_455 S
O425 Pr400 2.437 . S
O425 C410 1.278 . S
O426 Pr401 2.562 . S
O426 C411 1.254 . S
O427 Pr401 2.490 . S
O427 C411 1.225 . S
O428 Pr400 2.436 . S
O428 Pr401 2.695 1_655 S
O428 C418 1.270 1_655 S
O429 Pr401 2.512 . S
O429 C418 1.248 . S
O430 Pr400 2.438 1_455 S
O430 C419 1.267 . S
O431 Pr401 2.437 . S
O431 C419 1.278 . S
H432 C404 0.929 . S
H433 C405 0.929 . S
H434 C407 0.931 . S
H435 C408 0.930 . S
H436 C413 0.929 . S
H437 C414 0.929 . S
H438 C416 0.931 . S
H439 C417 0.930 . S
Pr440 C442 2.880 . S
Pr440 O460 2.562 . S
Pr440 O461 2.490 . S
Pr440 O462 2.695 1_545 S
Pr440 O463 2.512 . S
Pr440 O465 2.437 1_545 S
Pr440 O468 2.436 1_545 S
Pr440 O470 2.438 . S
Pr441 C451 2.880 1_455 S
Pr441 O462 2.436 . S
Pr441 O464 2.438 . S
Pr441 O466 2.562 . S
Pr441 O467 2.490 . S
Pr441 O468 2.695 . S
Pr441 O469 2.512 . S
Pr441 O471 2.437 1_565 S
C442 Pr440 2.880 . S
C442 C443 1.491 . S
C442 O460 1.254 . S
C442 O461 1.225 . S
C443 C442 1.491 . S
C443 C444 1.392 . S
C443 C448 1.356 1_545 S
C444 C443 1.392 . S
C444 C445 1.368 . S
C444 H472 0.929 . S
C445 C444 1.368 . S
C445 C446 1.386 1_545 S
C445 H473 0.929 . S
C446 C445 1.386 1_565 S
C446 C447 1.373 . S
C447 C446 1.373 . S
C447 C448 1.409 . S
C447 H474 0.931 . S
C448 C443 1.356 1_565 S
C448 C447 1.409 . S
C448 H475 0.930 . S
C449 O462 1.270 . S
C449 O463 1.248 1_565 S
C450 O464 1.267 . S
C450 O465 1.278 . S
C451 Pr441 2.880 1_655 S
C451 C452 1.491 . S
C451 O466 1.254 1_655 S
C451 O467 1.225 1_655 S
C452 C451 1.491 . S
C452 C453 1.392 . S
C452 C457 1.356 . S
C453 C452 1.392 . S
C453 C454 1.368 . S
C453 H476 0.929 . S
C454 C453 1.368 . S
C454 C455 1.386 . S
C454 H477 0.929 . S
C455 C454 1.386 . S
C455 C456 1.373 . S
C456 C455 1.373 . S
C456 C457 1.409 . S
C456 H478 0.931 . S
C457 C452 1.356 . S
C457 C456 1.409 . S
C457 H479 0.930 . S
C458 O468 1.270 . S
C458 O469 1.248 . S
C459 O470 1.267 . S
C459 O471 1.278 . S
O460 Pr440 2.562 . S
O460 C442 1.254 . S
O461 Pr440 2.490 . S
O461 C442 1.225 . S
O462 Pr440 2.695 1_565 S
O462 Pr441 2.436 . S
O462 C449 1.270 . S
O463 Pr440 2.512 . S
O463 C449 1.248 1_545 S
O464 Pr441 2.438 . S
O464 C450 1.267 . S
O465 Pr440 2.437 1_565 S
O465 C450 1.278 . S
O466 Pr441 2.562 . S
O466 C451 1.254 1_455 S
O467 Pr441 2.490 . S
O467 C451 1.225 1_455 S
O468 Pr440 2.436 1_565 S
O468 Pr441 2.695 . S
O468 C458 1.270 . S
O469 Pr441 2.512 . S
O469 C458 1.248 . S
O470 Pr440 2.438 . S
O470 C459 1.267 . S
O471 Pr441 2.437 1_545 S
O471 C459 1.278 . S
H472 C444 0.929 . S
H473 C445 0.929 . S
H474 C447 0.931 . S
H475 C448 0.930 . S
H476 C453 0.929 . S
H477 C454 0.929 . S
H478 C456 0.931 . S
H479 C457 0.930 . S
Pr480 C482 2.880 . S
Pr480 O500 2.562 . S
Pr480 O501 2.490 . S
Pr480 O502 2.695 1_655 S
Pr480 O503 2.512 . S
Pr480 O505 2.437 1_545 S
Pr480 O508 2.436 . S
Pr480 O510 2.438 . S
Pr481 C491 2.880 . S
Pr481 O502 2.436 1_565 S
Pr481 O504 2.438 1_455 S
Pr481 O506 2.562 . S
Pr481 O507 2.490 . S
Pr481 O508 2.695 1_465 S
Pr481 O509 2.512 . S
Pr481 O511 2.437 1_565 S
C482 Pr480 2.880 . S
C482 C483 1.491 . S
C482 O500 1.254 . S
C482 O501 1.225 . S
C483 C482 1.491 . S
C483 C484 1.392 . S
C483 C488 1.356 . S
C484 C483 1.392 . S
C484 C485 1.368 . S
C484 H512 0.929 . S
C485 C484 1.368 . S
C485 C486 1.386 . S
C485 H513 0.929 . S
C486 C485 1.386 . S
C486 C487 1.373 . S
C487 C486 1.373 . S
C487 C488 1.409 . S
C487 H514 0.931 . S
C488 C483 1.356 . S
C488 C487 1.409 . S
C488 H515 0.930 . S
C489 O502 1.270 1_655 S
C489 O503 1.248 . S
C490 O504 1.267 . S
C490 O505 1.278 . S
C491 Pr481 2.880 . S
C491 C492 1.491 . S
C491 O506 1.254 . S
C491 O507 1.225 . S
C492 C491 1.491 . S
C492 C493 1.392 . S
C492 C497 1.356 1_565 S
C493 C492 1.392 . S
C493 C494 1.368 . S
C493 H516 0.929 . S
C494 C493 1.368 . S
C494 C495 1.386 1_565 S
C494 H517 0.929 . S
C495 C494 1.386 1_545 S
C495 C496 1.373 . S
C496 C495 1.373 . S
C496 C497 1.409 . S
C496 H518 0.931 . S
C497 C492 1.356 1_545 S
C497 C496 1.409 . S
C497 H519 0.930 . S
C498 O508 1.270 . S
C498 O509 1.248 1_645 S
C499 O510 1.267 1_455 S
C499 O511 1.278 . S
O500 Pr480 2.562 . S
O500 C482 1.254 . S
O501 Pr480 2.490 . S
O501 C482 1.225 . S
O502 Pr480 2.695 1_455 S
O502 Pr481 2.436 1_545 S
O502 C489 1.270 1_455 S
O503 Pr480 2.512 . S
O503 C489 1.248 . S
O504 Pr481 2.438 1_655 S
O504 C490 1.267 . S
O505 Pr480 2.437 1_565 S
O505 C490 1.278 . S
O506 Pr481 2.562 . S
O506 C491 1.254 . S
O507 Pr481 2.490 . S
O507 C491 1.225 . S
O508 Pr480 2.436 . S
O508 Pr481 2.695 1_645 S
O508 C498 1.270 . S
O509 Pr481 2.512 . S
O509 C498 1.248 1_465 S
O510 Pr480 2.438 . S
O510 C499 1.267 1_655 S
O511 Pr481 2.437 1_545 S
O511 C499 1.278 . S
H512 C484 0.929 . S
H513 C485 0.929 . S
H514 C487 0.931 . S
H515 C488 0.930 . S
H516 C493 0.929 . S
H517 C494 0.929 . S
H518 C496 0.931 . S
H519 C497 0.930 . S
Pr520 C522 2.880 1_655 S
Pr520 O540 2.562 . S
Pr520 O541 2.490 . S
Pr520 O542 2.695 . S
Pr520 O543 2.512 . S
Pr520 O545 2.437 . S
Pr520 O548 2.436 . S
Pr520 O550 2.438 . S
Pr521 C531 2.880 . S
Pr521 O542 2.436 . S
Pr521 O544 2.438 . S
Pr521 O546 2.562 . S
Pr521 O547 2.490 . S
Pr521 O548 2.695 . S
Pr521 O549 2.512 . S
Pr521 O551 2.437 . S
C522 Pr520 2.880 1_455 S
C522 C523 1.491 . S
C522 O540 1.254 1_455 S
C522 O541 1.225 1_455 S
C523 C522 1.491 . S
C523 C524 1.392 . S
C523 C528 1.356 . S
C524 C523 1.392 . S
C524 C525 1.368 . S
C524 H552 0.929 . S
C525 C524 1.368 . S
C525 C526 1.386 . S
C525 H553 0.929 . S
C526 C525 1.386 . S
C526 C527 1.373 . S
C527 C526 1.373 . S
C527 C528 1.409 . S
C527 H554 0.931 . S
C528 C523 1.356 . S
C528 C527 1.409 . S
C528 H555 0.930 . S
C529 O542 1.270 . S
C529 O543 1.248 . S
C530 O544 1.267 . S
C530 O545 1.278 . S
C531 Pr521 2.880 . S
C531 C532 1.491 . S
C531 O546 1.254 . S
C531 O547 1.225 . S
C532 C531 1.491 . S
C532 C533 1.392 . S
C532 C537 1.356 . S
C533 C532 1.392 . S
C533 C534 1.368 . S
C533 H556 0.929 . S
C534 C533 1.368 . S
C534 C535 1.386 . S
C534 H557 0.929 . S
C535 C534 1.386 . S
C535 C536 1.373 . S
C536 C535 1.373 . S
C536 C537 1.409 . S
C536 H558 0.931 . S
C537 C532 1.356 . S
C537 C536 1.409 . S
C537 H559 0.930 . S
C538 O548 1.270 . S
C538 O549 1.248 . S
C539 O550 1.267 . S
C539 O551 1.278 . S
O540 Pr520 2.562 . S
O540 C522 1.254 1_655 S
O541 Pr520 2.490 . S
O541 C522 1.225 1_655 S
O542 Pr520 2.695 . S
O542 Pr521 2.436 . S
O542 C529 1.270 . S
O543 Pr520 2.512 . S
O543 C529 1.248 . S
O544 Pr521 2.438 . S
O544 C530 1.267 . S
O545 Pr520 2.437 . S
O545 C530 1.278 . S
O546 Pr521 2.562 . S
O546 C531 1.254 . S
O547 Pr521 2.490 . S
O547 C531 1.225 . S
O548 Pr520 2.436 . S
O548 Pr521 2.695 . S
O548 C538 1.270 . S
O549 Pr521 2.512 . S
O549 C538 1.248 . S
O550 Pr520 2.438 . S
O550 C539 1.267 . S
O551 Pr521 2.437 . S
O551 C539 1.278 . S
H552 C524 0.929 . S
H553 C525 0.929 . S
H554 C527 0.931 . S
H555 C528 0.930 . S
H556 C533 0.929 . S
H557 C534 0.929 . S
H558 C536 0.931 . S
H559 C537 0.930 . S
Pr560 C562 2.880 . S
Pr560 O580 2.562 . S
Pr560 O581 2.490 . S
Pr560 O582 2.695 1_655 S
Pr560 O583 2.512 . S
Pr560 O585 2.437 . S
Pr560 O588 2.436 . S
Pr560 O590 2.438 . S
Pr561 C571 2.880 . S
Pr561 O582 2.436 . S
Pr561 O584 2.438 1_455 S
Pr561 O586 2.562 . S
Pr561 O587 2.490 . S
Pr561 O588 2.695 1_455 S
Pr561 O589 2.512 . S
Pr561 O591 2.437 . S
C562 Pr560 2.880 . S
C562 C563 1.491 . S
C562 O580 1.254 . S
C562 O581 1.225 . S
C563 C562 1.491 . S
C563 C564 1.392 . S
C563 C568 1.356 . S
C564 C563 1.392 . S
C564 C565 1.368 . S
C564 H592 0.929 . S
C565 C564 1.368 . S
C565 C566 1.386 . S
C565 H593 0.929 . S
C566 C565 1.386 . S
C566 C567 1.373 . S
C567 C566 1.373 . S
C567 C568 1.409 . S
C567 H594 0.931 . S
C568 C563 1.356 . S
C568 C567 1.409 . S
C568 H595 0.930 . S
C569 O582 1.270 1_655 S
C569 O583 1.248 . S
C570 O584 1.267 . S
C570 O585 1.278 . S
C571 Pr561 2.880 . S
C571 C572 1.491 . S
C571 O586 1.254 . S
C571 O587 1.225 . S
C572 C571 1.491 . S
C572 C573 1.392 . S
C572 C577 1.356 . S
C573 C572 1.392 . S
C573 C574 1.368 . S
C573 H596 0.929 . S
C574 C573 1.368 . S
C574 C575 1.386 . S
C574 H597 0.929 . S
C575 C574 1.386 . S
C575 C576 1.373 . S
C576 C575 1.373 . S
C576 C577 1.409 . S
C576 H598 0.931 . S
C577 C572 1.356 . S
C577 C576 1.409 . S
C577 H599 0.930 . S
C578 O588 1.270 . S
C578 O589 1.248 1_655 S
C579 O590 1.267 1_455 S
C579 O591 1.278 . S
O580 Pr560 2.562 . S
O580 C562 1.254 . S
O581 Pr560 2.490 . S
O581 C562 1.225 . S
O582 Pr560 2.695 1_455 S
O582 Pr561 2.436 . S
O582 C569 1.270 1_455 S
O583 Pr560 2.512 . S
O583 C569 1.248 . S
O584 Pr561 2.438 1_655 S
O584 C570 1.267 . S
O585 Pr560 2.437 . S
O585 C570 1.278 . S
O586 Pr561 2.562 . S
O586 C571 1.254 . S
O587 Pr561 2.490 . S
O587 C571 1.225 . S
O588 Pr560 2.436 . S
O588 Pr561 2.695 1_655 S
O588 C578 1.270 . S
O589 Pr561 2.512 . S
O589 C578 1.248 1_455 S
O590 Pr560 2.438 . S
O590 C579 1.267 1_655 S
O591 Pr561 2.437 . S
O591 C579 1.278 . S
H592 C564 0.929 . S
H593 C565 0.929 . S
H594 C567 0.931 . S
H595 C568 0.930 . S
H596 C573 0.929 . S
H597 C574 0.929 . S
H598 C576 0.931 . S
H599 C577 0.930 . S
Pr600 C602 2.880 1_655 S
Pr600 O620 2.562 . S
Pr600 O621 2.490 . S
Pr600 O622 2.695 . S
Pr600 O623 2.512 . S
Pr600 O625 2.437 1_545 S
Pr600 O628 2.436 . S
Pr600 O630 2.438 . S
Pr601 C611 2.880 . S
Pr601 O622 2.436 1_565 S
Pr601 O624 2.438 . S
Pr601 O626 2.562 . S
Pr601 O627 2.490 . S
Pr601 O628 2.695 1_565 S
Pr601 O629 2.512 . S
Pr601 O631 2.437 1_565 S
C602 Pr600 2.880 1_455 S
C602 C603 1.491 . S
C602 O620 1.254 1_455 S
C602 O621 1.225 1_455 S
C603 C602 1.491 . S
C603 C604 1.392 . S
C603 C608 1.356 . S
C604 C603 1.392 . S
C604 C605 1.368 . S
C604 H632 0.929 . S
C605 C604 1.368 . S
C605 C606 1.386 . S
C605 H633 0.929 . S
C606 C605 1.386 . S
C606 C607 1.373 . S
C607 C606 1.373 . S
C607 C608 1.409 . S
C607 H634 0.931 . S
C608 C603 1.356 . S
C608 C607 1.409 . S
C608 H635 0.930 . S
C609 O622 1.270 . S
C609 O623 1.248 . S
C610 O624 1.267 . S
C610 O625 1.278 . S
C611 Pr601 2.880 . S
C611 C612 1.491 . S
C611 O626 1.254 . S
C611 O627 1.225 . S
C612 C611 1.491 . S
C612 C613 1.392 . S
C612 C617 1.356 1_565 S
C613 C612 1.392 . S
C613 C614 1.368 . S
C613 H636 0.929 . S
C614 C613 1.368 . S
C614 C615 1.386 1_565 S
C614 H637 0.929 . S
C615 C614 1.386 1_545 S
C615 C616 1.373 . S
C616 C615 1.373 . S
C616 C617 1.409 . S
C616 H638 0.931 . S
C617 C612 1.356 1_545 S
C617 C616 1.409 . S
C617 H639 0.930 . S
C618 O628 1.270 . S
C618 O629 1.248 1_545 S
C619 O630 1.267 . S
C619 O631 1.278 . S
O620 Pr600 2.562 . S
O620 C602 1.254 1_655 S
O621 Pr600 2.490 . S
O621 C602 1.225 1_655 S
O622 Pr600 2.695 . S
O622 Pr601 2.436 1_545 S
O622 C609 1.270 . S
O623 Pr600 2.512 . S
O623 C609 1.248 . S
O624 Pr601 2.438 . S
O624 C610 1.267 . S
O625 Pr600 2.437 1_565 S
O625 C610 1.278 . S
O626 Pr601 2.562 . S
O626 C611 1.254 . S
O627 Pr601 2.490 . S
O627 C611 1.225 . S
O628 Pr600 2.436 . S
O628 Pr601 2.695 1_545 S
O628 C618 1.270 . S
O629 Pr601 2.512 . S
O629 C618 1.248 1_565 S
O630 Pr600 2.438 . S
O630 C619 1.267 . S
O631 Pr601 2.437 1_545 S
O631 C619 1.278 . S
H632 C604 0.929 . S
H633 C605 0.929 . S
H634 C607 0.931 . S
H635 C608 0.930 . S
H636 C613 0.929 . S
H637 C614 0.929 . S
H638 C616 0.931 . S
H639 C617 0.930 . S
Pr640 C642 2.880 . S
Pr640 O660 2.562 . S
Pr640 O661 2.490 . S
Pr640 O662 2.695 . S
Pr640 O663 2.512 . S
Pr640 O665 2.437 . S
Pr640 O668 2.436 . S
Pr640 O670 2.438 . S
Pr641 C651 2.880 . S
Pr641 O662 2.436 . S
Pr641 O664 2.438 . S
Pr641 O666 2.562 . S
Pr641 O667 2.490 . S
Pr641 O668 2.695 . S
Pr641 O669 2.512 . S
Pr641 O671 2.437 . S
C642 Pr640 2.880 . S
C642 C643 1.491 . S
C642 O660 1.254 . S
C642 O661 1.225 . S
C643 C642 1.491 . S
C643 C644 1.392 . S
C643 C648 1.356 . S
C644 C643 1.392 . S
C644 C645 1.368 . S
C644 H672 0.929 . S
C645 C644 1.368 . S
C645 C646 1.386 . S
C645 H673 0.929 . S
C646 C645 1.386 . S
C646 C647 1.373 . S
C647 C646 1.373 . S
C647 C648 1.409 . S
C647 H674 0.931 . S
C648 C643 1.356 . S
C648 C647 1.409 . S
C648 H675 0.930 . S
C649 O662 1.270 . S
C649 O663 1.248 . S
C650 O664 1.267 . S
C650 O665 1.278 . S
C651 Pr641 2.880 . S
C651 C652 1.491 . S
C651 O666 1.254 . S
C651 O667 1.225 . S
C652 C651 1.491 . S
C652 C653 1.392 . S
C652 C657 1.356 . S
C653 C652 1.392 . S
C653 C654 1.368 . S
C653 H676 0.929 . S
C654 C653 1.368 . S
C654 C655 1.386 . S
C654 H677 0.929 . S
C655 C654 1.386 . S
C655 C656 1.373 . S
C656 C655 1.373 . S
C656 C657 1.409 . S
C656 H678 0.931 . S
C657 C652 1.356 . S
C657 C656 1.409 . S
C657 H679 0.930 . S
C658 O668 1.270 . S
C658 O669 1.248 . S
C659 O670 1.267 . S
C659 O671 1.278 . S
O660 Pr640 2.562 . S
O660 C642 1.254 . S
O661 Pr640 2.490 . S
O661 C642 1.225 . S
O662 Pr640 2.695 . S
O662 Pr641 2.436 . S
O662 C649 1.270 . S
O663 Pr640 2.512 . S
O663 C649 1.248 . S
O664 Pr641 2.438 . S
O664 C650 1.267 . S
O665 Pr640 2.437 . S
O665 C650 1.278 . S
O666 Pr641 2.562 . S
O666 C651 1.254 . S
O667 Pr641 2.490 . S
O667 C651 1.225 . S
O668 Pr640 2.436 . S
O668 Pr641 2.695 . S
O668 C658 1.270 . S
O669 Pr641 2.512 . S
O669 C658 1.248 . S
O670 Pr640 2.438 . S
O670 C659 1.267 . S
O671 Pr641 2.437 . S
O671 C659 1.278 . S
H672 C644 0.929 . S
H673 C645 0.929 . S
H674 C647 0.931 . S
H675 C648 0.930 . S
H676 C653 0.929 . S
H677 C654 0.929 . S
H678 C656 0.931 . S
H679 C657 0.930 . S
Pr680 C682 2.880 . S
Pr680 O700 2.562 . S
Pr680 O701 2.490 . S
Pr680 O702 2.695 . S
Pr680 O703 2.512 . S
Pr680 O705 2.437 . S
Pr680 O708 2.436 . S
Pr680 O710 2.438 . S
Pr681 C691 2.880 . S
Pr681 O702 2.436 . S
Pr681 O704 2.438 . S
Pr681 O706 2.562 . S
Pr681 O707 2.490 . S
Pr681 O708 2.695 . S
Pr681 O709 2.512 . S
Pr681 O711 2.437 . S
C682 Pr680 2.880 . S
C682 C683 1.491 1_655 S
C682 O700 1.254 . S
C682 O701 1.225 . S
C683 C682 1.491 1_455 S
C683 C684 1.392 . S
C683 C688 1.356 . S
C684 C683 1.392 . S
C684 C685 1.368 . S
C684 H712 0.929 . S
C685 C684 1.368 . S
C685 C686 1.386 . S
C685 H713 0.929 . S
C686 C685 1.386 . S
C686 C687 1.373 . S
C687 C686 1.373 . S
C687 C688 1.409 . S
C687 H714 0.931 . S
C688 C683 1.356 . S
C688 C687 1.409 . S
C688 H715 0.930 . S
C689 O702 1.270 . S
C689 O703 1.248 . S
C690 O704 1.267 . S
C690 O705 1.278 . S
C691 Pr681 2.880 . S
C691 C692 1.491 . S
C691 O706 1.254 . S
C691 O707 1.225 . S
C692 C691 1.491 . S
C692 C693 1.392 . S
C692 C697 1.356 . S
C693 C692 1.392 . S
C693 C694 1.368 . S
C693 H716 0.929 . S
C694 C693 1.368 . S
C694 C695 1.386 . S
C694 H717 0.929 . S
C695 C694 1.386 . S
C695 C696 1.373 . S
C696 C695 1.373 . S
C696 C697 1.409 . S
C696 H718 0.931 . S
C697 C692 1.356 . S
C697 C696 1.409 . S
C697 H719 0.930 . S
C698 O708 1.270 . S
C698 O709 1.248 . S
C699 O710 1.267 . S
C699 O711 1.278 . S
O700 Pr680 2.562 . S
O700 C682 1.254 . S
O701 Pr680 2.490 . S
O701 C682 1.225 . S
O702 Pr680 2.695 . S
O702 Pr681 2.436 . S
O702 C689 1.270 . S
O703 Pr680 2.512 . S
O703 C689 1.248 . S
O704 Pr681 2.438 . S
O704 C690 1.267 . S
O705 Pr680 2.437 . S
O705 C690 1.278 . S
O706 Pr681 2.562 . S
O706 C691 1.254 . S
O707 Pr681 2.490 . S
O707 C691 1.225 . S
O708 Pr680 2.436 . S
O708 Pr681 2.695 . S
O708 C698 1.270 . S
O709 Pr681 2.512 . S
O709 C698 1.248 . S
O710 Pr680 2.438 . S
O710 C699 1.267 . S
O711 Pr681 2.437 . S
O711 C699 1.278 . S
H712 C684 0.929 . S
H713 C685 0.929 . S
H714 C687 0.931 . S
H715 C688 0.930 . S
H716 C693 0.929 . S
H717 C694 0.929 . S
H718 C696 0.931 . S
H719 C697 0.930 . S
Pr720 C722 2.880 . S
Pr720 O740 2.562 . S
Pr720 O741 2.490 . S
Pr720 O742 2.695 . S
Pr720 O743 2.512 . S
Pr720 O745 2.437 . S
Pr720 O748 2.436 . S
Pr720 O750 2.438 . S
Pr721 C731 2.880 . S
Pr721 O742 2.436 . S
Pr721 O744 2.438 . S
Pr721 O746 2.562 . S
Pr721 O747 2.490 . S
Pr721 O748 2.695 . S
Pr721 O749 2.512 . S
Pr721 O751 2.437 . S
C722 Pr720 2.880 . S
C722 C723 1.491 . S
C722 O740 1.254 . S
C722 O741 1.225 . S
C723 C722 1.491 . S
C723 C724 1.392 . S
C723 C728 1.356 . S
C724 C723 1.392 . S
C724 C725 1.368 . S
C724 H752 0.929 . S
C725 C724 1.368 . S
C725 C726 1.386 . S
C725 H753 0.929 . S
C726 C725 1.386 . S
C726 C727 1.373 . S
C727 C726 1.373 . S
C727 C728 1.409 . S
C727 H754 0.931 . S
C728 C723 1.356 . S
C728 C727 1.409 . S
C728 H755 0.930 . S
C729 O742 1.270 . S
C729 O743 1.248 . S
C730 O744 1.267 . S
C730 O745 1.278 . S
C731 Pr721 2.880 . S
C731 C732 1.491 . S
C731 O746 1.254 . S
C731 O747 1.225 . S
C732 C731 1.491 . S
C732 C733 1.392 . S
C732 C737 1.356 . S
C733 C732 1.392 . S
C733 C734 1.368 . S
C733 H756 0.929 . S
C734 C733 1.368 . S
C734 C735 1.386 . S
C734 H757 0.929 . S
C735 C734 1.386 . S
C735 C736 1.373 . S
C736 C735 1.373 . S
C736 C737 1.409 . S
C736 H758 0.931 . S
C737 C732 1.356 . S
C737 C736 1.409 . S
C737 H759 0.930 . S
C738 O748 1.270 . S
C738 O749 1.248 . S
C739 O750 1.267 . S
C739 O751 1.278 . S
O740 Pr720 2.562 . S
O740 C722 1.254 . S
O741 Pr720 2.490 . S
O741 C722 1.225 . S
O742 Pr720 2.695 . S
O742 Pr721 2.436 . S
O742 C729 1.270 . S
O743 Pr720 2.512 . S
O743 C729 1.248 . S
O744 Pr721 2.438 . S
O744 C730 1.267 . S
O745 Pr720 2.437 . S
O745 C730 1.278 . S
O746 Pr721 2.562 . S
O746 C731 1.254 . S
O747 Pr721 2.490 . S
O747 C731 1.225 . S
O748 Pr720 2.436 . S
O748 Pr721 2.695 . S
O748 C738 1.270 . S
O749 Pr721 2.512 . S
O749 C738 1.248 . S
O750 Pr720 2.438 . S
O750 C739 1.267 . S
O751 Pr721 2.437 . S
O751 C739 1.278 . S
H752 C724 0.929 . S
H753 C725 0.929 . S
H754 C727 0.931 . S
H755 C728 0.930 . S
H756 C733 0.929 . S
H757 C734 0.929 . S
H758 C736 0.931 . S
H759 C737 0.930 . S
Pr760 C762 2.880 . S
Pr760 O780 2.562 . S
Pr760 O781 2.490 . S
Pr760 O782 2.695 . S
Pr760 O783 2.512 . S
Pr760 O785 2.437 . S
Pr760 O788 2.436 . S
Pr760 O790 2.438 . S
Pr761 C771 2.880 . S
Pr761 O782 2.436 . S
Pr761 O784 2.438 . S
Pr761 O786 2.562 . S
Pr761 O787 2.490 . S
Pr761 O788 2.695 . S
Pr761 O789 2.512 . S
Pr761 O791 2.437 . S
C762 Pr760 2.880 . S
C762 C763 1.491 1_655 S
C762 O780 1.254 . S
C762 O781 1.225 . S
C763 C762 1.491 1_455 S
C763 C764 1.392 . S
C763 C768 1.356 . S
C764 C763 1.392 . S
C764 C765 1.368 . S
C764 H792 0.929 . S
C765 C764 1.368 . S
C765 C766 1.386 . S
C765 H793 0.929 . S
C766 C765 1.386 . S
C766 C767 1.373 . S
C767 C766 1.373 . S
C767 C768 1.409 . S
C767 H794 0.931 . S
C768 C763 1.356 . S
C768 C767 1.409 . S
C768 H795 0.930 . S
C769 O782 1.270 . S
C769 O783 1.248 . S
C770 O784 1.267 . S
C770 O785 1.278 . S
C771 Pr761 2.880 . S
C771 C772 1.491 . S
C771 O786 1.254 . S
C771 O787 1.225 . S
C772 C771 1.491 . S
C772 C773 1.392 . S
C772 C777 1.356 . S
C773 C772 1.392 . S
C773 C774 1.368 . S
C773 H796 0.929 . S
C774 C773 1.368 . S
C774 C775 1.386 . S
C774 H797 0.929 . S
C775 C774 1.386 . S
C775 C776 1.373 . S
C776 C775 1.373 . S
C776 C777 1.409 . S
C776 H798 0.931 . S
C777 C772 1.356 . S
C777 C776 1.409 . S
C777 H799 0.930 . S
C778 O788 1.270 . S
C778 O789 1.248 . S
C779 O790 1.267 . S
C779 O791 1.278 . S
O780 Pr760 2.562 . S
O780 C762 1.254 . S
O781 Pr760 2.490 . S
O781 C762 1.225 . S
O782 Pr760 2.695 . S
O782 Pr761 2.436 . S
O782 C769 1.270 . S
O783 Pr760 2.512 . S
O783 C769 1.248 . S
O784 Pr761 2.438 . S
O784 C770 1.267 . S
O785 Pr760 2.437 . S
O785 C770 1.278 . S
O786 Pr761 2.562 . S
O786 C771 1.254 . S
O787 Pr761 2.490 . S
O787 C771 1.225 . S
O788 Pr760 2.436 . S
O788 Pr761 2.695 . S
O788 C778 1.270 . S
O789 Pr761 2.512 . S
O789 C778 1.248 . S
O790 Pr760 2.438 . S
O790 C779 1.267 . S
O791 Pr761 2.437 . S
O791 C779 1.278 . S
H792 C764 0.929 . S
H793 C765 0.929 . S
H794 C767 0.931 . S
H795 C768 0.930 . S
H796 C773 0.929 . S
H797 C774 0.929 . S
H798 C776 0.931 . S
H799 C777 0.930 . S
Pr800 C802 2.880 . S
Pr800 O820 2.562 . S
Pr800 O821 2.490 . S
Pr800 O822 2.695 . S
Pr800 O823 2.512 . S
Pr800 O825 2.437 . S
Pr800 O828 2.436 . S
Pr800 O830 2.438 . S
Pr801 C811 2.880 . S
Pr801 O822 2.436 . S
Pr801 O824 2.438 . S
Pr801 O826 2.562 . S
Pr801 O827 2.490 . S
Pr801 O828 2.695 . S
Pr801 O829 2.512 . S
Pr801 O831 2.437 . S
C802 Pr800 2.880 . S
C802 C803 1.491 . S
C802 O820 1.254 . S
C802 O821 1.225 . S
C803 C802 1.491 . S
C803 C804 1.392 . S
C803 C808 1.356 . S
C804 C803 1.392 . S
C804 C805 1.368 . S
C804 H832 0.929 . S
C805 C804 1.368 . S
C805 C806 1.386 . S
C805 H833 0.929 . S
C806 C805 1.386 . S
C806 C807 1.373 . S
C807 C806 1.373 . S
C807 C808 1.409 . S
C807 H834 0.931 . S
C808 C803 1.356 . S
C808 C807 1.409 . S
C808 H835 0.930 . S
C809 O822 1.270 . S
C809 O823 1.248 . S
C810 O824 1.267 . S
C810 O825 1.278 . S
C811 Pr801 2.880 . S
C811 C812 1.491 . S
C811 O826 1.254 . S
C811 O827 1.225 . S
C812 C811 1.491 . S
C812 C813 1.392 . S
C812 C817 1.356 . S
C813 C812 1.392 . S
C813 C814 1.368 . S
C813 H836 0.929 . S
C814 C813 1.368 . S
C814 C815 1.386 . S
C814 H837 0.929 . S
C815 C814 1.386 . S
C815 C816 1.373 . S
C816 C815 1.373 . S
C816 C817 1.409 . S
C816 H838 0.931 . S
C817 C812 1.356 . S
C817 C816 1.409 . S
C817 H839 0.930 . S
C818 O828 1.270 . S
C818 O829 1.248 . S
C819 O830 1.267 . S
C819 O831 1.278 . S
O820 Pr800 2.562 . S
O820 C802 1.254 . S
O821 Pr800 2.490 . S
O821 C802 1.225 . S
O822 Pr800 2.695 . S
O822 Pr801 2.436 . S
O822 C809 1.270 . S
O823 Pr800 2.512 . S
O823 C809 1.248 . S
O824 Pr801 2.438 . S
O824 C810 1.267 . S
O825 Pr800 2.437 . S
O825 C810 1.278 . S
O826 Pr801 2.562 . S
O826 C811 1.254 . S
O827 Pr801 2.490 . S
O827 C811 1.225 . S
O828 Pr800 2.436 . S
O828 Pr801 2.695 . S
O828 C818 1.270 . S
O829 Pr801 2.512 . S
O829 C818 1.248 . S
O830 Pr800 2.438 . S
O830 C819 1.267 . S
O831 Pr801 2.437 . S
O831 C819 1.278 . S
H832 C804 0.929 . S
H833 C805 0.929 . S
H834 C807 0.931 . S
H835 C808 0.930 . S
H836 C813 0.929 . S
H837 C814 0.929 . S
H838 C816 0.931 . S
H839 C817 0.930 . S
Pr840 C842 2.880 . S
Pr840 O860 2.562 . S
Pr840 O861 2.490 . S
Pr840 O862 2.695 . S
Pr840 O863 2.512 . S
Pr840 O865 2.437 . S
Pr840 O868 2.436 . S
Pr840 O870 2.438 . S
Pr841 C851 2.880 . S
Pr841 O862 2.436 . S
Pr841 O864 2.438 . S
Pr841 O866 2.562 . S
Pr841 O867 2.490 . S
Pr841 O868 2.695 . S
Pr841 O869 2.512 . S
Pr841 O871 2.437 . S
C842 Pr840 2.880 . S
C842 C843 1.491 . S
C842 O860 1.254 . S
C842 O861 1.225 . S
C843 C842 1.491 . S
C843 C844 1.392 . S
C843 C848 1.356 . S
C844 C843 1.392 . S
C844 C845 1.368 . S
C844 H872 0.929 . S
C845 C844 1.368 . S
C845 C846 1.386 . S
C845 H873 0.929 . S
C846 C845 1.386 . S
C846 C847 1.373 . S
C847 C846 1.373 . S
C847 C848 1.409 . S
C847 H874 0.931 . S
C848 C843 1.356 . S
C848 C847 1.409 . S
C848 H875 0.930 . S
C849 O862 1.270 . S
C849 O863 1.248 . S
C850 O864 1.267 . S
C850 O865 1.278 . S
C851 Pr841 2.880 . S
C851 C852 1.491 1_455 S
C851 O866 1.254 . S
C851 O867 1.225 . S
C852 C851 1.491 1_655 S
C852 C853 1.392 . S
C852 C857 1.356 . S
C853 C852 1.392 . S
C853 C854 1.368 . S
C853 H876 0.929 . S
C854 C853 1.368 . S
C854 C855 1.386 . S
C854 H877 0.929 . S
C855 C854 1.386 . S
C855 C856 1.373 . S
C856 C855 1.373 . S
C856 C857 1.409 . S
C856 H878 0.931 . S
C857 C852 1.356 . S
C857 C856 1.409 . S
C857 H879 0.930 . S
C858 O868 1.270 . S
C858 O869 1.248 . S
C859 O870 1.267 . S
C859 O871 1.278 . S
O860 Pr840 2.562 . S
O860 C842 1.254 . S
O861 Pr840 2.490 . S
O861 C842 1.225 . S
O862 Pr840 2.695 . S
O862 Pr841 2.436 . S
O862 C849 1.270 . S
O863 Pr840 2.512 . S
O863 C849 1.248 . S
O864 Pr841 2.438 . S
O864 C850 1.267 . S
O865 Pr840 2.437 . S
O865 C850 1.278 . S
O866 Pr841 2.562 . S
O866 C851 1.254 . S
O867 Pr841 2.490 . S
O867 C851 1.225 . S
O868 Pr840 2.436 . S
O868 Pr841 2.695 . S
O868 C858 1.270 . S
O869 Pr841 2.512 . S
O869 C858 1.248 . S
O870 Pr840 2.438 . S
O870 C859 1.267 . S
O871 Pr841 2.437 . S
O871 C859 1.278 . S
H872 C844 0.929 . S
H873 C845 0.929 . S
H874 C847 0.931 . S
H875 C848 0.930 . S
H876 C853 0.929 . S
H877 C854 0.929 . S
H878 C856 0.931 . S
H879 C857 0.930 . S
Pr880 C882 2.880 . S
Pr880 O900 2.562 . S
Pr880 O901 2.490 . S
Pr880 O902 2.695 . S
Pr880 O903 2.512 . S
Pr880 O905 2.437 . S
Pr880 O908 2.436 . S
Pr880 O910 2.438 . S
Pr881 C891 2.880 . S
Pr881 O902 2.436 . S
Pr881 O904 2.438 . S
Pr881 O906 2.562 . S
Pr881 O907 2.490 . S
Pr881 O908 2.695 . S
Pr881 O909 2.512 . S
Pr881 O911 2.437 . S
C882 Pr880 2.880 . S
C882 C883 1.491 . S
C882 O900 1.254 . S
C882 O901 1.225 . S
C883 C882 1.491 . S
C883 C884 1.392 . S
C883 C888 1.356 . S
C884 C883 1.392 . S
C884 C885 1.368 . S
C884 H912 0.929 . S
C885 C884 1.368 . S
C885 C886 1.386 . S
C885 H913 0.929 . S
C886 C885 1.386 . S
C886 C887 1.373 . S
C887 C886 1.373 . S
C887 C888 1.409 . S
C887 H914 0.931 . S
C888 C883 1.356 . S
C888 C887 1.409 . S
C888 H915 0.930 . S
C889 O902 1.270 . S
C889 O903 1.248 . S
C890 O904 1.267 . S
C890 O905 1.278 . S
C891 Pr881 2.880 . S
C891 C892 1.491 . S
C891 O906 1.254 . S
C891 O907 1.225 . S
C892 C891 1.491 . S
C892 C893 1.392 . S
C892 C897 1.356 . S
C893 C892 1.392 . S
C893 C894 1.368 . S
C893 H916 0.929 . S
C894 C893 1.368 . S
C894 C895 1.386 . S
C894 H917 0.929 . S
C895 C894 1.386 . S
C895 C896 1.373 . S
C896 C895 1.373 . S
C896 C897 1.409 . S
C896 H918 0.931 . S
C897 C892 1.356 . S
C897 C896 1.409 . S
C897 H919 0.930 . S
C898 O908 1.270 . S
C898 O909 1.248 . S
C899 O910 1.267 . S
C899 O911 1.278 . S
O900 Pr880 2.562 . S
O900 C882 1.254 . S
O901 Pr880 2.490 . S
O901 C882 1.225 . S
O902 Pr880 2.695 . S
O902 Pr881 2.436 . S
O902 C889 1.270 . S
O903 Pr880 2.512 . S
O903 C889 1.248 . S
O904 Pr881 2.438 . S
O904 C890 1.267 . S
O905 Pr880 2.437 . S
O905 C890 1.278 . S
O906 Pr881 2.562 . S
O906 C891 1.254 . S
O907 Pr881 2.490 . S
O907 C891 1.225 . S
O908 Pr880 2.436 . S
O908 Pr881 2.695 . S
O908 C898 1.270 . S
O909 Pr881 2.512 . S
O909 C898 1.248 . S
O910 Pr880 2.438 . S
O910 C899 1.267 . S
O911 Pr881 2.437 . S
O911 C899 1.278 . S
H912 C884 0.929 . S
H913 C885 0.929 . S
H914 C887 0.931 . S
H915 C888 0.930 . S
H916 C893 0.929 . S
H917 C894 0.929 . S
H918 C896 0.931 . S
H919 C897 0.930 . S
Pr920 C922 2.880 . S
Pr920 O940 2.562 . S
Pr920 O941 2.490 . S
Pr920 O942 2.695 . S
Pr920 O943 2.512 . S
Pr920 O945 2.437 . S
Pr920 O948 2.436 . S
Pr920 O950 2.438 . S
Pr921 C931 2.880 . S
Pr921 O942 2.436 . S
Pr921 O944 2.438 . S
Pr921 O946 2.562 . S
Pr921 O947 2.490 . S
Pr921 O948 2.695 . S
Pr921 O949 2.512 . S
Pr921 O951 2.437 . S
C922 Pr920 2.880 . S
C922 C923 1.491 . S
C922 O940 1.254 . S
C922 O941 1.225 . S
C923 C922 1.491 . S
C923 C924 1.392 . S
C923 C928 1.356 . S
C924 C923 1.392 . S
C924 C925 1.368 . S
C924 H952 0.929 . S
C925 C924 1.368 . S
C925 C926 1.386 . S
C925 H953 0.929 . S
C926 C925 1.386 . S
C926 C927 1.373 . S
C927 C926 1.373 . S
C927 C928 1.409 . S
C927 H954 0.931 . S
C928 C923 1.356 . S
C928 C927 1.409 . S
C928 H955 0.930 . S
C929 O942 1.270 . S
C929 O943 1.248 . S
C930 O944 1.267 . S
C930 O945 1.278 . S
C931 Pr921 2.880 . S
C931 C932 1.491 1_455 S
C931 O946 1.254 . S
C931 O947 1.225 . S
C932 C931 1.491 1_655 S
C932 C933 1.392 . S
C932 C937 1.356 . S
C933 C932 1.392 . S
C933 C934 1.368 . S
C933 H956 0.929 . S
C934 C933 1.368 . S
C934 C935 1.386 . S
C934 H957 0.929 . S
C935 C934 1.386 . S
C935 C936 1.373 . S
C936 C935 1.373 . S
C936 C937 1.409 . S
C936 H958 0.931 . S
C937 C932 1.356 . S
C937 C936 1.409 . S
C937 H959 0.930 . S
C938 O948 1.270 . S
C938 O949 1.248 . S
C939 O950 1.267 . S
C939 O951 1.278 . S
O940 Pr920 2.562 . S
O940 C922 1.254 . S
O941 Pr920 2.490 . S
O941 C922 1.225 . S
O942 Pr920 2.695 . S
O942 Pr921 2.436 . S
O942 C929 1.270 . S
O943 Pr920 2.512 . S
O943 C929 1.248 . S
O944 Pr921 2.438 . S
O944 C930 1.267 . S
O945 Pr920 2.437 . S
O945 C930 1.278 . S
O946 Pr921 2.562 . S
O946 C931 1.254 . S
O947 Pr921 2.490 . S
O947 C931 1.225 . S
O948 Pr920 2.436 . S
O948 Pr921 2.695 . S
O948 C938 1.270 . S
O949 Pr921 2.512 . S
O949 C938 1.248 . S
O950 Pr920 2.438 . S
O950 C939 1.267 . S
O951 Pr921 2.437 . S
O951 C939 1.278 . S
H952 C924 0.929 . S
H953 C925 0.929 . S
H954 C927 0.931 . S
H955 C928 0.930 . S
H956 C933 0.929 . S
H957 C934 0.929 . S
H958 C936 0.931 . S
H959 C937 0.930 . S
Pr960 C962 2.880 . S
Pr960 O980 2.562 . S
Pr960 O981 2.490 . S
Pr960 O982 2.695 1_545 S
Pr960 O983 2.512 . S
Pr960 O985 2.437 1_545 S
Pr960 O988 2.436 1_545 S
Pr960 O990 2.438 . S
Pr961 C971 2.880 . S
Pr961 O982 2.436 . S
Pr961 O984 2.438 . S
Pr961 O986 2.562 . S
Pr961 O987 2.490 . S
Pr961 O988 2.695 . S
Pr961 O989 2.512 . S
Pr961 O991 2.437 1_565 S
C962 Pr960 2.880 . S
C962 C963 1.491 . S
C962 O980 1.254 . S
C962 O981 1.225 . S
C963 C962 1.491 . S
C963 C964 1.392 . S
C963 C968 1.356 1_545 S
C964 C963 1.392 . S
C964 C965 1.368 . S
C964 H992 0.929 . S
C965 C964 1.368 . S
C965 C966 1.386 1_545 S
C965 H993 0.929 . S
C966 C965 1.386 1_565 S
C966 C967 1.373 . S
C967 C966 1.373 . S
C967 C968 1.409 . S
C967 H994 0.931 . S
C968 C963 1.356 1_565 S
C968 C967 1.409 . S
C968 H995 0.930 . S
C969 O982 1.270 . S
C969 O983 1.248 1_565 S
C970 O984 1.267 . S
C970 O985 1.278 . S
C971 Pr961 2.880 . S
C971 C972 1.491 . S
C971 O986 1.254 . S
C971 O987 1.225 . S
C972 C971 1.491 . S
C972 C973 1.392 . S
C972 C977 1.356 . S
C973 C972 1.392 . S
C973 C974 1.368 . S
C973 H996 0.929 . S
C974 C973 1.368 . S
C974 C975 1.386 . S
C974 H997 0.929 . S
C975 C974 1.386 . S
C975 C976 1.373 . S
C976 C975 1.373 . S
C976 C977 1.409 . S
C976 H998 0.931 . S
C977 C972 1.356 . S
C977 C976 1.409 . S
C977 H999 0.930 . S
C978 O988 1.270 . S
C978 O989 1.248 . S
C979 O990 1.267 . S
C979 O991 1.278 . S
O980 Pr960 2.562 . S
O980 C962 1.254 . S
O981 Pr960 2.490 . S
O981 C962 1.225 . S
O982 Pr960 2.695 1_565 S
O982 Pr961 2.436 . S
O982 C969 1.270 . S
O983 Pr960 2.512 . S
O983 C969 1.248 1_545 S
O984 Pr961 2.438 . S
O984 C970 1.267 . S
O985 Pr960 2.437 1_565 S
O985 C970 1.278 . S
O986 Pr961 2.562 . S
O986 C971 1.254 . S
O987 Pr961 2.490 . S
O987 C971 1.225 . S
O988 Pr960 2.436 1_565 S
O988 Pr961 2.695 . S
O988 C978 1.270 . S
O989 Pr961 2.512 . S
O989 C978 1.248 . S
O990 Pr960 2.438 . S
O990 C979 1.267 . S
O991 Pr961 2.437 1_545 S
O991 C979 1.278 . S
H992 C964 0.929 . S
H993 C965 0.929 . S
H994 C967 0.931 . S
H995 C968 0.930 . S
H996 C973 0.929 . S
H997 C974 0.929 . S
H998 C976 0.931 . S
H999 C977 0.930 . S
Pr1000 C1002 2.880 . S
Pr1000 O1020 2.562 . S
Pr1000 O1021 2.490 . S
Pr1000 O1022 2.695 . S
Pr1000 O1023 2.512 . S
Pr1000 O1025 2.437 . S
Pr1000 O1028 2.436 . S
Pr1000 O1030 2.438 . S
Pr1001 C1011 2.880 . S
Pr1001 O1022 2.436 . S
Pr1001 O1024 2.438 . S
Pr1001 O1026 2.562 . S
Pr1001 O1027 2.490 . S
Pr1001 O1028 2.695 . S
Pr1001 O1029 2.512 . S
Pr1001 O1031 2.437 . S
C1002 Pr1000 2.880 . S
C1002 C1003 1.491 1_655 S
C1002 O1020 1.254 . S
C1002 O1021 1.225 . S
C1003 C1002 1.491 1_455 S
C1003 C1004 1.392 . S
C1003 C1008 1.356 . S
C1004 C1003 1.392 . S
C1004 C1005 1.368 . S
C1004 H1032 0.929 . S
C1005 C1004 1.368 . S
C1005 C1006 1.386 . S
C1005 H1033 0.929 . S
C1006 C1005 1.386 . S
C1006 C1007 1.373 . S
C1007 C1006 1.373 . S
C1007 C1008 1.409 . S
C1007 H1034 0.931 . S
C1008 C1003 1.356 . S
C1008 C1007 1.409 . S
C1008 H1035 0.930 . S
C1009 O1022 1.270 . S
C1009 O1023 1.248 . S
C1010 O1024 1.267 . S
C1010 O1025 1.278 . S
C1011 Pr1001 2.880 . S
C1011 C1012 1.491 . S
C1011 O1026 1.254 . S
C1011 O1027 1.225 . S
C1012 C1011 1.491 . S
C1012 C1013 1.392 . S
C1012 C1017 1.356 . S
C1013 C1012 1.392 . S
C1013 C1014 1.368 . S
C1013 H1036 0.929 . S
C1014 C1013 1.368 . S
C1014 C1015 1.386 . S
C1014 H1037 0.929 . S
C1015 C1014 1.386 . S
C1015 C1016 1.373 . S
C1016 C1015 1.373 . S
C1016 C1017 1.409 . S
C1016 H1038 0.931 . S
C1017 C1012 1.356 . S
C1017 C1016 1.409 . S
C1017 H1039 0.930 . S
C1018 O1028 1.270 . S
C1018 O1029 1.248 . S
C1019 O1030 1.267 . S
C1019 O1031 1.278 . S
O1020 Pr1000 2.562 . S
O1020 C1002 1.254 . S
O1021 Pr1000 2.490 . S
O1021 C1002 1.225 . S
O1022 Pr1000 2.695 . S
O1022 Pr1001 2.436 . S
O1022 C1009 1.270 . S
O1023 Pr1000 2.512 . S
O1023 C1009 1.248 . S
O1024 Pr1001 2.438 . S
O1024 C1010 1.267 . S
O1025 Pr1000 2.437 . S
O1025 C1010 1.278 . S
O1026 Pr1001 2.562 . S
O1026 C1011 1.254 . S
O1027 Pr1001 2.490 . S
O1027 C1011 1.225 . S
O1028 Pr1000 2.436 . S
O1028 Pr1001 2.695 . S
O1028 C1018 1.270 . S
O1029 Pr1001 2.512 . S
O1029 C1018 1.248 . S
O1030 Pr1000 2.438 . S
O1030 C1019 1.267 . S
O1031 Pr1001 2.437 . S
O1031 C1019 1.278 . S
H1032 C1004 0.929 . S
H1033 C1005 0.929 . S
H1034 C1007 0.931 . S
H1035 C1008 0.930 . S
H1036 C1013 0.929 . S
H1037 C1014 0.929 . S
H1038 C1016 0.931 . S
H1039 C1017 0.930 . S
Pr1040 C1042 2.880 . S
Pr1040 O1060 2.562 . S
Pr1040 O1061 2.490 . S
Pr1040 O1062 2.695 . S
Pr1040 O1063 2.512 . S
Pr1040 O1065 2.437 . S
Pr1040 O1068 2.436 . S
Pr1040 O1070 2.438 . S
Pr1041 C1051 2.880 . S
Pr1041 O1062 2.436 . S
Pr1041 O1064 2.438 . S
Pr1041 O1066 2.562 . S
Pr1041 O1067 2.490 . S
Pr1041 O1068 2.695 . S
Pr1041 O1069 2.512 . S
Pr1041 O1071 2.437 . S
C1042 Pr1040 2.880 . S
C1042 C1043 1.491 . S
C1042 O1060 1.254 . S
C1042 O1061 1.225 . S
C1043 C1042 1.491 . S
C1043 C1044 1.392 . S
C1043 C1048 1.356 . S
C1044 C1043 1.392 . S
C1044 C1045 1.368 . S
C1044 H1072 0.929 . S
C1045 C1044 1.368 . S
C1045 C1046 1.386 . S
C1045 H1073 0.929 . S
C1046 C1045 1.386 . S
C1046 C1047 1.373 . S
C1047 C1046 1.373 . S
C1047 C1048 1.409 . S
C1047 H1074 0.931 . S
C1048 C1043 1.356 . S
C1048 C1047 1.409 . S
C1048 H1075 0.930 . S
C1049 O1062 1.270 . S
C1049 O1063 1.248 . S
C1050 O1064 1.267 . S
C1050 O1065 1.278 . S
C1051 Pr1041 2.880 . S
C1051 C1052 1.491 . S
C1051 O1066 1.254 . S
C1051 O1067 1.225 . S
C1052 C1051 1.491 . S
C1052 C1053 1.392 . S
C1052 C1057 1.356 . S
C1053 C1052 1.392 . S
C1053 C1054 1.368 . S
C1053 H1076 0.929 . S
C1054 C1053 1.368 . S
C1054 C1055 1.386 . S
C1054 H1077 0.929 . S
C1055 C1054 1.386 . S
C1055 C1056 1.373 . S
C1056 C1055 1.373 . S
C1056 C1057 1.409 . S
C1056 H1078 0.931 . S
C1057 C1052 1.356 . S
C1057 C1056 1.409 . S
C1057 H1079 0.930 . S
C1058 O1068 1.270 . S
C1058 O1069 1.248 . S
C1059 O1070 1.267 . S
C1059 O1071 1.278 . S
O1060 Pr1040 2.562 . S
O1060 C1042 1.254 . S
O1061 Pr1040 2.490 . S
O1061 C1042 1.225 . S
O1062 Pr1040 2.695 . S
O1062 Pr1041 2.436 . S
O1062 C1049 1.270 . S
O1063 Pr1040 2.512 . S
O1063 C1049 1.248 . S
O1064 Pr1041 2.438 . S
O1064 C1050 1.267 . S
O1065 Pr1040 2.437 . S
O1065 C1050 1.278 . S
O1066 Pr1041 2.562 . S
O1066 C1051 1.254 . S
O1067 Pr1041 2.490 . S
O1067 C1051 1.225 . S
O1068 Pr1040 2.436 . S
O1068 Pr1041 2.695 . S
O1068 C1058 1.270 . S
O1069 Pr1041 2.512 . S
O1069 C1058 1.248 . S
O1070 Pr1040 2.438 . S
O1070 C1059 1.267 . S
O1071 Pr1041 2.437 . S
O1071 C1059 1.278 . S
H1072 C1044 0.929 . S
H1073 C1045 0.929 . S
H1074 C1047 0.931 . S
H1075 C1048 0.930 . S
H1076 C1053 0.929 . S
H1077 C1054 0.929 . S
H1078 C1056 0.931 . S
H1079 C1057 0.930 . S
Pr1080 C1082 2.880 . S
Pr1080 O1100 2.562 . S
Pr1080 O1101 2.490 . S
Pr1080 O1102 2.695 1_545 S
Pr1080 O1103 2.512 . S
Pr1080 O1105 2.437 1_545 S
Pr1080 O1108 2.436 1_545 S
Pr1080 O1110 2.438 . S
Pr1081 C1091 2.880 . S
Pr1081 O1102 2.436 . S
Pr1081 O1104 2.438 . S
Pr1081 O1106 2.562 . S
Pr1081 O1107 2.490 . S
Pr1081 O1108 2.695 . S
Pr1081 O1109 2.512 . S
Pr1081 O1111 2.437 1_565 S
C1082 Pr1080 2.880 . S
C1082 C1083 1.491 1_655 S
C1082 O1100 1.254 . S
C1082 O1101 1.225 . S
C1083 C1082 1.491 1_455 S
C1083 C1084 1.392 . S
C1083 C1088 1.356 1_545 S
C1084 C1083 1.392 . S
C1084 C1085 1.368 . S
C1084 H1112 0.929 . S
C1085 C1084 1.368 . S
C1085 C1086 1.386 1_545 S
C1085 H1113 0.929 . S
C1086 C1085 1.386 1_565 S
C1086 C1087 1.373 . S
C1087 C1086 1.373 . S
C1087 C1088 1.409 . S
C1087 H1114 0.931 . S
C1088 C1083 1.356 1_565 S
C1088 C1087 1.409 . S
C1088 H1115 0.930 . S
C1089 O1102 1.270 . S
C1089 O1103 1.248 1_565 S
C1090 O1104 1.267 . S
C1090 O1105 1.278 . S
C1091 Pr1081 2.880 . S
C1091 C1092 1.491 . S
C1091 O1106 1.254 . S
C1091 O1107 1.225 . S
C1092 C1091 1.491 . S
C1092 C1093 1.392 . S
C1092 C1097 1.356 . S
C1093 C1092 1.392 . S
C1093 C1094 1.368 . S
C1093 H1116 0.929 . S
C1094 C1093 1.368 . S
C1094 C1095 1.386 . S
C1094 H1117 0.929 . S
C1095 C1094 1.386 . S
C1095 C1096 1.373 . S
C1096 C1095 1.373 . S
C1096 C1097 1.409 . S
C1096 H1118 0.931 . S
C1097 C1092 1.356 . S
C1097 C1096 1.409 . S
C1097 H1119 0.930 . S
C1098 O1108 1.270 . S
C1098 O1109 1.248 . S
C1099 O1110 1.267 . S
C1099 O1111 1.278 . S
O1100 Pr1080 2.562 . S
O1100 C1082 1.254 . S
O1101 Pr1080 2.490 . S
O1101 C1082 1.225 . S
O1102 Pr1080 2.695 1_565 S
O1102 Pr1081 2.436 . S
O1102 C1089 1.270 . S
O1103 Pr1080 2.512 . S
O1103 C1089 1.248 1_545 S
O1104 Pr1081 2.438 . S
O1104 C1090 1.267 . S
O1105 Pr1080 2.437 1_565 S
O1105 C1090 1.278 . S
O1106 Pr1081 2.562 . S
O1106 C1091 1.254 . S
O1107 Pr1081 2.490 . S
O1107 C1091 1.225 . S
O1108 Pr1080 2.436 1_565 S
O1108 Pr1081 2.695 . S
O1108 C1098 1.270 . S
O1109 Pr1081 2.512 . S
O1109 C1098 1.248 . S
O1110 Pr1080 2.438 . S
O1110 C1099 1.267 . S
O1111 Pr1081 2.437 1_545 S
O1111 C1099 1.278 . S
H1112 C1084 0.929 . S
H1113 C1085 0.929 . S
H1114 C1087 0.931 . S
H1115 C1088 0.930 . S
H1116 C1093 0.929 . S
H1117 C1094 0.929 . S
H1118 C1096 0.931 . S
H1119 C1097 0.930 . S
Pr1120 C1122 2.880 . S
Pr1120 O1140 2.562 . S
Pr1120 O1141 2.490 . S
Pr1120 O1142 2.695 . S
Pr1120 O1143 2.512 . S
Pr1120 O1145 2.437 1_545 S
Pr1120 O1148 2.436 . S
Pr1120 O1150 2.438 . S
Pr1121 C1131 2.880 . S
Pr1121 O1142 2.436 1_565 S
Pr1121 O1144 2.438 . S
Pr1121 O1146 2.562 . S
Pr1121 O1147 2.490 . S
Pr1121 O1148 2.695 1_565 S
Pr1121 O1149 2.512 . S
Pr1121 O1151 2.437 1_565 S
C1122 Pr1120 2.880 . S
C1122 C1123 1.491 . S
C1122 O1140 1.254 . S
C1122 O1141 1.225 . S
C1123 C1122 1.491 . S
C1123 C1124 1.392 . S
C1123 C1128 1.356 . S
C1124 C1123 1.392 . S
C1124 C1125 1.368 . S
C1124 H1152 0.929 . S
C1125 C1124 1.368 . S
C1125 C1126 1.386 . S
C1125 H1153 0.929 . S
C1126 C1125 1.386 . S
C1126 C1127 1.373 . S
C1127 C1126 1.373 . S
C1127 C1128 1.409 . S
C1127 H1154 0.931 . S
C1128 C1123 1.356 . S
C1128 C1127 1.409 . S
C1128 H1155 0.930 . S
C1129 O1142 1.270 . S
C1129 O1143 1.248 . S
C1130 O1144 1.267 . S
C1130 O1145 1.278 . S
C1131 Pr1121 2.880 . S
C1131 C1132 1.491 . S
C1131 O1146 1.254 . S
C1131 O1147 1.225 . S
C1132 C1131 1.491 . S
C1132 C1133 1.392 . S
C1132 C1137 1.356 1_565 S
C1133 C1132 1.392 . S
C1133 C1134 1.368 . S
C1133 H1156 0.929 . S
C1134 C1133 1.368 . S
C1134 C1135 1.386 1_565 S
C1134 H1157 0.929 . S
C1135 C1134 1.386 1_545 S
C1135 C1136 1.373 . S
C1136 C1135 1.373 . S
C1136 C1137 1.409 . S
C1136 H1158 0.931 . S
C1137 C1132 1.356 1_545 S
C1137 C1136 1.409 . S
C1137 H1159 0.930 . S
C1138 O1148 1.270 . S
C1138 O1149 1.248 1_545 S
C1139 O1150 1.267 . S
C1139 O1151 1.278 . S
O1140 Pr1120 2.562 . S
O1140 C1122 1.254 . S
O1141 Pr1120 2.490 . S
O1141 C1122 1.225 . S
O1142 Pr1120 2.695 . S
O1142 Pr1121 2.436 1_545 S
O1142 C1129 1.270 . S
O1143 Pr1120 2.512 . S
O1143 C1129 1.248 . S
O1144 Pr1121 2.438 . S
O1144 C1130 1.267 . S
O1145 Pr1120 2.437 1_565 S
O1145 C1130 1.278 . S
O1146 Pr1121 2.562 . S
O1146 C1131 1.254 . S
O1147 Pr1121 2.490 . S
O1147 C1131 1.225 . S
O1148 Pr1120 2.436 . S
O1148 Pr1121 2.695 1_545 S
O1148 C1138 1.270 . S
O1149 Pr1121 2.512 . S
O1149 C1138 1.248 1_565 S
O1150 Pr1120 2.438 . S
O1150 C1139 1.267 . S
O1151 Pr1121 2.437 1_545 S
O1151 C1139 1.278 . S
H1152 C1124 0.929 . S
H1153 C1125 0.929 . S
H1154 C1127 0.931 . S
H1155 C1128 0.930 . S
H1156 C1133 0.929 . S
H1157 C1134 0.929 . S
H1158 C1136 0.931 . S
H1159 C1137 0.930 . S
Pr1160 C1162 2.880 . S
Pr1160 O1180 2.562 . S
Pr1160 O1181 2.490 . S
Pr1160 O1182 2.695 . S
Pr1160 O1183 2.512 . S
Pr1160 O1185 2.437 . S
Pr1160 O1188 2.436 . S
Pr1160 O1190 2.438 . S
Pr1161 C1171 2.880 . S
Pr1161 O1182 2.436 . S
Pr1161 O1184 2.438 . S
Pr1161 O1186 2.562 . S
Pr1161 O1187 2.490 . S
Pr1161 O1188 2.695 . S
Pr1161 O1189 2.512 . S
Pr1161 O1191 2.437 . S
C1162 Pr1160 2.880 . S
C1162 C1163 1.491 . S
C1162 O1180 1.254 . S
C1162 O1181 1.225 . S
C1163 C1162 1.491 . S
C1163 C1164 1.392 . S
C1163 C1168 1.356 . S
C1164 C1163 1.392 . S
C1164 C1165 1.368 . S
C1164 H1192 0.929 . S
C1165 C1164 1.368 . S
C1165 C1166 1.386 . S
C1165 H1193 0.929 . S
C1166 C1165 1.386 . S
C1166 C1167 1.373 . S
C1167 C1166 1.373 . S
C1167 C1168 1.409 . S
C1167 H1194 0.931 . S
C1168 C1163 1.356 . S
C1168 C1167 1.409 . S
C1168 H1195 0.930 . S
C1169 O1182 1.270 . S
C1169 O1183 1.248 . S
C1170 O1184 1.267 . S
C1170 O1185 1.278 . S
C1171 Pr1161 2.880 . S
C1171 C1172 1.491 1_455 S
C1171 O1186 1.254 . S
C1171 O1187 1.225 . S
C1172 C1171 1.491 1_655 S
C1172 C1173 1.392 . S
C1172 C1177 1.356 . S
C1173 C1172 1.392 . S
C1173 C1174 1.368 . S
C1173 H1196 0.929 . S
C1174 C1173 1.368 . S
C1174 C1175 1.386 . S
C1174 H1197 0.929 . S
C1175 C1174 1.386 . S
C1175 C1176 1.373 . S
C1176 C1175 1.373 . S
C1176 C1177 1.409 . S
C1176 H1198 0.931 . S
C1177 C1172 1.356 . S
C1177 C1176 1.409 . S
C1177 H1199 0.930 . S
C1178 O1188 1.270 . S
C1178 O1189 1.248 . S
C1179 O1190 1.267 . S
C1179 O1191 1.278 . S
O1180 Pr1160 2.562 . S
O1180 C1162 1.254 . S
O1181 Pr1160 2.490 . S
O1181 C1162 1.225 . S
O1182 Pr1160 2.695 . S
O1182 Pr1161 2.436 . S
O1182 C1169 1.270 . S
O1183 Pr1160 2.512 . S
O1183 C1169 1.248 . S
O1184 Pr1161 2.438 . S
O1184 C1170 1.267 . S
O1185 Pr1160 2.437 . S
O1185 C1170 1.278 . S
O1186 Pr1161 2.562 . S
O1186 C1171 1.254 . S
O1187 Pr1161 2.490 . S
O1187 C1171 1.225 . S
O1188 Pr1160 2.436 . S
O1188 Pr1161 2.695 . S
O1188 C1178 1.270 . S
O1189 Pr1161 2.512 . S
O1189 C1178 1.248 . S
O1190 Pr1160 2.438 . S
O1190 C1179 1.267 . S
O1191 Pr1161 2.437 . S
O1191 C1179 1.278 . S
H1192 C1164 0.929 . S
H1193 C1165 0.929 . S
H1194 C1167 0.931 . S
H1195 C1168 0.930 . S
H1196 C1173 0.929 . S
H1197 C1174 0.929 . S
H1198 C1176 0.931 . S
H1199 C1177 0.930 . S
Pr1200 C1202 2.880 . S
Pr1200 O1220 2.562 . S
Pr1200 O1221 2.490 . S
Pr1200 O1222 2.695 . S
Pr1200 O1223 2.512 . S
Pr1200 O1225 2.437 . S
Pr1200 O1228 2.436 . S
Pr1200 O1230 2.438 . S
Pr1201 C1211 2.880 . S
Pr1201 O1222 2.436 . S
Pr1201 O1224 2.438 . S
Pr1201 O1226 2.562 . S
Pr1201 O1227 2.490 . S
Pr1201 O1228 2.695 . S
Pr1201 O1229 2.512 . S
Pr1201 O1231 2.437 . S
C1202 Pr1200 2.880 . S
C1202 C1203 1.491 . S
C1202 O1220 1.254 . S
C1202 O1221 1.225 . S
C1203 C1202 1.491 . S
C1203 C1204 1.392 . S
C1203 C1208 1.356 . S
C1204 C1203 1.392 . S
C1204 C1205 1.368 . S
C1204 H1232 0.929 . S
C1205 C1204 1.368 . S
C1205 C1206 1.386 . S
C1205 H1233 0.929 . S
C1206 C1205 1.386 . S
C1206 C1207 1.373 . S
C1207 C1206 1.373 . S
C1207 C1208 1.409 . S
C1207 H1234 0.931 . S
C1208 C1203 1.356 . S
C1208 C1207 1.409 . S
C1208 H1235 0.930 . S
C1209 O1222 1.270 . S
C1209 O1223 1.248 . S
C1210 O1224 1.267 . S
C1210 O1225 1.278 . S
C1211 Pr1201 2.880 . S
C1211 C1212 1.491 . S
C1211 O1226 1.254 . S
C1211 O1227 1.225 . S
C1212 C1211 1.491 . S
C1212 C1213 1.392 . S
C1212 C1217 1.356 . S
C1213 C1212 1.392 . S
C1213 C1214 1.368 . S
C1213 H1236 0.929 . S
C1214 C1213 1.368 . S
C1214 C1215 1.386 . S
C1214 H1237 0.929 . S
C1215 C1214 1.386 . S
C1215 C1216 1.373 . S
C1216 C1215 1.373 . S
C1216 C1217 1.409 . S
C1216 H1238 0.931 . S
C1217 C1212 1.356 . S
C1217 C1216 1.409 . S
C1217 H1239 0.930 . S
C1218 O1228 1.270 . S
C1218 O1229 1.248 . S
C1219 O1230 1.267 . S
C1219 O1231 1.278 . S
O1220 Pr1200 2.562 . S
O1220 C1202 1.254 . S
O1221 Pr1200 2.490 . S
O1221 C1202 1.225 . S
O1222 Pr1200 2.695 . S
O1222 Pr1201 2.436 . S
O1222 C1209 1.270 . S
O1223 Pr1200 2.512 . S
O1223 C1209 1.248 . S
O1224 Pr1201 2.438 . S
O1224 C1210 1.267 . S
O1225 Pr1200 2.437 . S
O1225 C1210 1.278 . S
O1226 Pr1201 2.562 . S
O1226 C1211 1.254 . S
O1227 Pr1201 2.490 . S
O1227 C1211 1.225 . S
O1228 Pr1200 2.436 . S
O1228 Pr1201 2.695 . S
O1228 C1218 1.270 . S
O1229 Pr1201 2.512 . S
O1229 C1218 1.248 . S
O1230 Pr1200 2.438 . S
O1230 C1219 1.267 . S
O1231 Pr1201 2.437 . S
O1231 C1219 1.278 . S
H1232 C1204 0.929 . S
H1233 C1205 0.929 . S
H1234 C1207 0.931 . S
H1235 C1208 0.930 . S
H1236 C1213 0.929 . S
H1237 C1214 0.929 . S
H1238 C1216 0.931 . S
H1239 C1217 0.930 . S
Pr1240 C1242 2.880 . S
Pr1240 O1260 2.562 . S
Pr1240 O1261 2.490 . S
Pr1240 O1262 2.695 . S
Pr1240 O1263 2.512 . S
Pr1240 O1265 2.437 1_545 S
Pr1240 O1268 2.436 . S
Pr1240 O1270 2.438 . S
Pr1241 C1251 2.880 . S
Pr1241 O1262 2.436 1_565 S
Pr1241 O1264 2.438 . S
Pr1241 O1266 2.562 . S
Pr1241 O1267 2.490 . S
Pr1241 O1268 2.695 1_565 S
Pr1241 O1269 2.512 . S
Pr1241 O1271 2.437 1_565 S
C1242 Pr1240 2.880 . S
C1242 C1243 1.491 . S
C1242 O1260 1.254 . S
C1242 O1261 1.225 . S
C1243 C1242 1.491 . S
C1243 C1244 1.392 . S
C1243 C1248 1.356 . S
C1244 C1243 1.392 . S
C1244 C1245 1.368 . S
C1244 H1272 0.929 . S
C1245 C1244 1.368 . S
C1245 C1246 1.386 . S
C1245 H1273 0.929 . S
C1246 C1245 1.386 . S
C1246 C1247 1.373 . S
C1247 C1246 1.373 . S
C1247 C1248 1.409 . S
C1247 H1274 0.931 . S
C1248 C1243 1.356 . S
C1248 C1247 1.409 . S
C1248 H1275 0.930 . S
C1249 O1262 1.270 . S
C1249 O1263 1.248 . S
C1250 O1264 1.267 . S
C1250 O1265 1.278 . S
C1251 Pr1241 2.880 . S
C1251 C1252 1.491 1_455 S
C1251 O1266 1.254 . S
C1251 O1267 1.225 . S
C1252 C1251 1.491 1_655 S
C1252 C1253 1.392 . S
C1252 C1257 1.356 1_565 S
C1253 C1252 1.392 . S
C1253 C1254 1.368 . S
C1253 H1276 0.929 . S
C1254 C1253 1.368 . S
C1254 C1255 1.386 1_565 S
C1254 H1277 0.929 . S
C1255 C1254 1.386 1_545 S
C1255 C1256 1.373 . S
C1256 C1255 1.373 . S
C1256 C1257 1.409 . S
C1256 H1278 0.931 . S
C1257 C1252 1.356 1_545 S
C1257 C1256 1.409 . S
C1257 H1279 0.930 . S
C1258 O1268 1.270 . S
C1258 O1269 1.248 1_545 S
C1259 O1270 1.267 . S
C1259 O1271 1.278 . S
O1260 Pr1240 2.562 . S
O1260 C1242 1.254 . S
O1261 Pr1240 2.490 . S
O1261 C1242 1.225 . S
O1262 Pr1240 2.695 . S
O1262 Pr1241 2.436 1_545 S
O1262 C1249 1.270 . S
O1263 Pr1240 2.512 . S
O1263 C1249 1.248 . S
O1264 Pr1241 2.438 . S
O1264 C1250 1.267 . S
O1265 Pr1240 2.437 1_565 S
O1265 C1250 1.278 . S
O1266 Pr1241 2.562 . S
O1266 C1251 1.254 . S
O1267 Pr1241 2.490 . S
O1267 C1251 1.225 . S
O1268 Pr1240 2.436 . S
O1268 Pr1241 2.695 1_545 S
O1268 C1258 1.270 . S
O1269 Pr1241 2.512 . S
O1269 C1258 1.248 1_565 S
O1270 Pr1240 2.438 . S
O1270 C1259 1.267 . S
O1271 Pr1241 2.437 1_545 S
O1271 C1259 1.278 . S
H1272 C1244 0.929 . S
H1273 C1245 0.929 . S
H1274 C1247 0.931 . S
H1275 C1248 0.930 . S
H1276 C1253 0.929 . S
H1277 C1254 0.929 . S
H1278 C1256 0.931 . S
H1279 C1257 0.930 . S
C10 C1010 2.561 . S
C970 C50 2.561 . S
C1090 C90 2.561 . S
C130 C1050 2.561 . S
C179 C1179 2.561 . S
C219 C1139 2.561 . S
C259 C1259 2.561 . S
C1219 C299 2.561 . S
C330 C690 2.561 . S
C370 C650 2.561 . S
C410 C770 2.561 . S
C730 C450 2.561 . S
C499 C859 2.561 . S
C539 C819 2.561 . S
C939 C579 2.561 . S
C619 C899 2.561 . S
C9 C129 2.920 . S
C49 C89 2.920 . S
C298 C178 2.920 . S
C258 C218 2.920 . S
C329 C449 2.920 . S
C369 C409 2.920 . S
C498 C618 2.920 . S
C578 C538 2.920 . S
C649 C769 2.920 . S
C689 C729 2.920 . S
C938 C818 2.920 . S
C858 C898 2.920 . S
C1089 C969 2.920 . S
C1009 C1049 2.920 . S
C1258 C1138 2.920 . S
C1218 C1178 2.920 . S
C59 C19 1.605 . S
C99 C139 1.605 . S
C210 C170 1.605 . S
C290 C250 1.605 . S
C339 C379 1.606 . S
C419 C459 1.606 . S
C530 C490 1.606 . S
C570 C610 1.606 . S
C659 C699 1.605 . S
C779 C739 1.605 . S
C810 C850 1.605 . S
C890 C930 1.605 . S
C979 C1019 1.606 . S
C1059 C1099 1.606 . S
C1170 C1130 1.606 . S
C1210 C1250 1.606 . S
C6 C15 2.778 . S
C46 C55 2.778 . S
C86 C95 2.778 . S
C135 C126 2.778 . S
C166 C175 2.778 . S
C215 C206 2.778 . S
C246 C255 2.778 . S
C286 C295 2.778 . S
C335 C326 2.777 . S
C366 C375 2.778 . S
C406 C415 2.778 . S
C455 C446 2.777 . S
C486 C495 2.777 . S
C535 C526 2.778 . S
C575 C566 2.778 . S
C606 C615 2.777 . S
C646 C655 2.778 1_455 S
C695 C686 2.778 . S
C735 C726 2.778 1_655 S
C766 C775 2.778 . S
C815 C806 2.778 1_655 S
C855 C846 2.778 . S
C886 C895 2.778 1_455 S
C935 C926 2.778 . S
C975 C966 2.777 1_655 S
C1006 C1015 2.778 . S
C1055 C1046 2.778 1_655 S
C1095 C1086 2.777 . S
C1135 C1126 2.777 1_655 S
C1175 C1166 2.778 . S
C1206 C1215 2.778 1_455 S
C1246 C1255 2.777 . S
C18 C169 1.614 1_454 S
C1169 C58 1.613 1_556 S
C569 C98 1.613 1_655 S
C138 C929 1.614 . S
C209 C1018 1.613 1_556 S
C249 C418 1.613 1_655 S
C289 C778 1.614 . S
C338 C489 1.613 1_465 S
C849 C378 1.613 . S
C1249 C458 1.613 1_545 S
C529 C698 1.613 . S
C1098 C609 1.613 1_565 S
C658 C809 1.614 . S
C1209 C738 1.613 . S
C889 C1058 1.613 . S
C978 C1129 1.613 1_564 S
