# Generated by pormake.
# Topology yfz, (5)-cn, num edge types: 1
# Building blocks:
#     Node 0, Type 0, BuildingBlock: XOMCOT_clean_sbu_0, # of connection points: 5
#     Node 1, Type 0, BuildingBlock: XOMCOT_clean_sbu_0, # of connection points: 5
#     Node 2, Type 0, BuildingBlock: XOMCOT_clean_sbu_0, # of connection points: 5
#     Node 3, Type 0, BuildingBlock: XOMCOT_clean_sbu_0, # of connection points: 5
#     Node 4, Type 0, BuildingBlock: XOMCOT_clean_sbu_0, # of connection points: 5
#     Node 5, Type 0, BuildingBlock: XOMCOT_clean_sbu_0, # of connection points: 5
#     Node 6, Type 0, BuildingBlock: XOMCOT_clean_sbu_0, # of connection points: 5
#     Node 7, Type 0, BuildingBlock: XOMCOT_clean_sbu_0, # of connection points: 5
#     Edge 8, Type (0, 0), BuildingBlock: AJUNOK_clean_linker_0, # of connection points: 2
#     Edge 9, Type (0, 0), BuildingBlock: AJUNOK_clean_linker_0, # of connection points: 2
#     Edge 10, Type (0, 0), BuildingBlock: AJUNOK_clean_linker_0, # of connection points: 2
#     Edge 11, Type (0, 0), BuildingBlock: AJUNOK_clean_linker_0, # of connection points: 2
#     Edge 12, Type (0, 0), BuildingBlock: AJUNOK_clean_linker_0, # of connection points: 2
#     Edge 13, Type (0, 0), BuildingBlock: AJUNOK_clean_linker_0, # of connection points: 2
#     Edge 14, Type (0, 0), BuildingBlock: AJUNOK_clean_linker_0, # of connection points: 2
#     Edge 15, Type (0, 0), BuildingBlock: AJUNOK_clean_linker_0, # of connection points: 2
#     Edge 16, Type (0, 0), BuildingBlock: AJUNOK_clean_linker_0, # of connection points: 2
#     Edge 17, Type (0, 0), BuildingBlock: AJUNOK_clean_linker_0, # of connection points: 2
#     Edge 18, Type (0, 0), BuildingBlock: AJUNOK_clean_linker_0, # of connection points: 2
#     Edge 19, Type (0, 0), BuildingBlock: AJUNOK_clean_linker_0, # of connection points: 2
#     Edge 20, Type (0, 0), BuildingBlock: AJUNOK_clean_linker_0, # of connection points: 2
#     Edge 21, Type (0, 0), BuildingBlock: AJUNOK_clean_linker_0, # of connection points: 2
#     Edge 22, Type (0, 0), BuildingBlock: AJUNOK_clean_linker_0, # of connection points: 2
#     Edge 23, Type (0, 0), BuildingBlock: AJUNOK_clean_linker_0, # of connection points: 2
#     Edge 24, Type (0, 0), BuildingBlock: AJUNOK_clean_linker_0, # of connection points: 2
#     Edge 25, Type (0, 0), BuildingBlock: AJUNOK_clean_linker_0, # of connection points: 2
#     Edge 26, Type (0, 0), BuildingBlock: AJUNOK_clean_linker_0, # of connection points: 2
#     Edge 27, Type (0, 0), BuildingBlock: AJUNOK_clean_linker_0, # of connection points: 2
# Relax obj value: 0.171
# Max RMSD: 0.156
# Mean RMSD: 0.156
data_MOF--net-yfz--node1-XOMCOT_clean_sbu_0--edge1-AJUNOK_clean_linker_0
_symmetry_space_group_name_H-M    P1
_symmetry_Int_Tables_number       1
_symmetry_cell_setting            triclinic
loop_
_symmetry_equiv_pos_as_xyz
'x, y, z'
_cell_length_a     38.179593
_cell_length_b     38.300109
_cell_length_c     13.520714
_cell_angle_alpha  90.137625
_cell_angle_beta   89.89667
_cell_angle_gamma 90.226611
loop_
_atom_site_label
_atom_site_type_symbol
_atom_site_fract_x
_atom_site_fract_y
_atom_site_fract_z
_atom_type_partial_charge
Co0 Co 0.56461 0.11217 0.33569 0.0
C1 C 0.55997 0.11368 0.11569 0.0
C2 C 0.51951 0.08196 0.17856 0.0
C3 C 0.51577 0.08178 0.07724 0.0
N4 N 0.548 0.1011 0.20286 0.0
N5 N 0.54157 0.10144 0.03781 0.0
H6 H 0.58115 0.1322 0.1085 0.0
H7 H 0.5017 0.06982 0.2303 0.0
C8 C 0.53491 0.04003 0.38401 0.0
O9 O 0.55472 0.02501 0.3169 0.0
N10 N 0.57966 0.12337 0.46802 0.0
C11 C 0.61058 0.13669 0.4982 0.0
C12 C 0.61043 0.13822 0.60037 0.0
C13 C 0.56113 0.11736 0.55107 0.0
N14 N 0.57944 0.12563 0.63282 0.0
C15 C 0.62885 0.09307 0.24468 0.0
C16 C 0.6499 0.04189 0.37415 0.0
C17 C 0.67305 0.05217 0.29805 0.0
C18 C 0.6616 0.07805 0.23301 0.0
C19 C 0.61711 0.05838 0.38449 0.0
N20 N 0.60641 0.08307 0.31804 0.0
H21 H 0.62306 0.11486 0.19833 0.0
H22 H 0.60097 0.05206 0.44773 0.0
H23 H 0.63196 0.14388 0.44963 0.0
H24 H 0.53478 0.10688 0.55205 0.0
O25 O 0.58504 0.15501 0.28944 0.0
O26 O 0.5304 0.15012 0.34241 0.0
O27 O 0.53507 0.07319 0.39454 0.0
C28 C 0.55541 0.17003 0.30794 0.0
H29 H 0.49496 0.06907 0.0364 0.0
H30 H 0.63182 0.14667 0.64723 0.0
H31 H 0.65718 0.02201 0.42686 0.0
H32 H 0.67869 0.08853 0.17628 0.0
Co33 Co 0.38235 0.56342 0.81765 0.0
C34 C 0.37814 0.55728 0.599 0.0
C35 C 0.41575 0.52146 0.65642 0.0
C36 C 0.4148 0.51792 0.55483 0.0
N37 N 0.39343 0.547 0.68421 0.0
N38 N 0.39126 0.54072 0.51942 0.0
H39 H 0.35746 0.57639 0.59416 0.0
H40 H 0.43148 0.50588 0.70544 0.0
C41 C 0.45384 0.53378 0.87277 0.0
O42 O 0.46999 0.55533 0.81237 0.0
N43 N 0.37074 0.57831 0.95014 0.0
C44 C 0.35489 0.60797 0.97899 0.0
C45 C 0.35178 0.60757 0.0807 0.0
C46 C 0.37683 0.56029 0.03378 0.0
N47 N 0.36554 0.57747 0.11491 0.0
C48 C 0.40592 0.62525 0.72244 0.0
C49 C 0.45074 0.64983 0.86636 0.0
C50 C 0.4439 0.67106 0.78367 0.0
C51 C 0.42115 0.65797 0.71158 0.0
C52 C 0.43457 0.61676 0.87463 0.0
N53 N 0.41275 0.60451 0.80196 0.0
H54 H 0.38619 0.61825 0.66992 0.0
H55 H 0.43857 0.60167 0.94112 0.0
H56 H 0.34652 0.62853 0.92978 0.0
H57 H 0.39027 0.53557 0.03539 0.0
O58 O 0.34033 0.58484 0.77018 0.0
O59 O 0.34317 0.53024 0.82182 0.0
O60 O 0.4204 0.53306 0.87675 0.0
C61 C 0.32416 0.55556 0.78635 0.0
H62 H 0.43069 0.50052 0.51047 0.0
H63 H 0.3404 0.62796 0.12589 0.0
H64 H 0.46731 0.65917 0.92575 0.0
H65 H 0.41276 0.67391 0.65005 0.0
Co66 Co 0.93146 0.375 0.34151 0.0
C67 C 0.93399 0.3762 0.12159 0.0
C68 C 0.97998 0.39889 0.18569 0.0
C69 C 0.98353 0.39935 0.08417 0.0
N70 N 0.94851 0.38506 0.20915 0.0
N71 N 0.95442 0.38519 0.04425 0.0
H72 H 0.90951 0.36254 0.11334 0.0
H73 H 0.99956 0.40709 0.23863 0.0
C74 C 0.96092 0.44854 0.37515 0.0
O75 O 0.9446 0.4612 0.29774 0.0
N76 N 0.91578 0.36506 0.47376 0.0
C77 C 0.88445 0.3529 0.50426 0.0
C78 C 0.88441 0.3521 0.60643 0.0
C79 C 0.93438 0.37112 0.55652 0.0
N80 N 0.91572 0.36398 0.63865 0.0
C81 C 0.86448 0.38536 0.25516 0.0
C82 C 0.84558 0.44655 0.34808 0.0
C83 C 0.82251 0.43165 0.27843 0.0
C84 C 0.8323 0.4002 0.23414 0.0
C85 C 0.87806 0.43045 0.36762 0.0
N86 N 0.88799 0.401 0.31729 0.0
H87 H 0.86941 0.36013 0.22364 0.0
H88 H 0.89443 0.44114 0.42525 0.0
H89 H 0.86301 0.34585 0.45591 0.0
H90 H 0.96111 0.38061 0.55656 0.0
O91 O 0.91492 0.32993 0.29905 0.0
O92 O 0.96837 0.33998 0.35542 0.0
O93 O 0.958 0.41635 0.3977 0.0
C94 C 0.94544 0.31775 0.32127 0.0
H95 H 1.0063 0.40818 0.04336 0.0
H96 H 0.86274 0.34439 0.65341 0.0
H97 H 0.83835 0.46992 0.38827 0.0
H98 H 0.81449 0.38598 0.18636 0.0
Co99 Co 0.11116 0.92816 0.82196 0.0
C100 C 0.11376 0.93312 0.60301 0.0
C101 C 0.07759 0.97017 0.66242 0.0
C102 C 0.07806 0.97349 0.56078 0.0
N103 N 0.09934 0.94406 0.68902 0.0
N104 N 0.10074 0.94995 0.52412 0.0
H105 H 0.13421 0.91379 0.59717 0.0
H106 H 0.06278 0.98641 0.71242 0.0
C107 C 0.03928 0.95734 0.87795 0.0
O108 O 0.02301 0.93642 0.81596 0.0
N109 N 0.12333 0.91362 0.95395 0.0
C110 C 0.13918 0.88396 0.98226 0.0
C111 C 0.14202 0.88425 0.08401 0.0
C112 C 0.11696 0.93151 0.03793 0.0
N113 N 0.12805 0.91426 0.11878 0.0
C114 C 0.09003 0.86475 0.73065 0.0
C115 C 0.04204 0.84219 0.86909 0.0
C116 C 0.05097 0.81957 0.79055 0.0
C117 C 0.07517 0.83183 0.72083 0.0
C118 C 0.05843 0.87513 0.87751 0.0
N119 N 0.08163 0.88646 0.80711 0.0
H120 H 0.11051 0.87133 0.67984 0.0
H121 H 0.05322 0.89096 0.94213 0.0
H122 H 0.14757 0.86342 0.93268 0.0
H123 H 0.10331 0.95613 0.04001 0.0
O124 O 0.15356 0.90772 0.77297 0.0
O125 O 0.14959 0.96224 0.82517 0.0
O126 O 0.07271 0.95775 0.88239 0.0
C127 C 0.16905 0.9374 0.78842 0.0
H128 H 0.0626 0.99143 0.51735 0.0
H129 H 0.15323 0.86379 0.12888 0.0
H130 H 0.02331 0.83442 0.92502 0.0
H131 H 0.08457 0.81529 0.66146 0.0
Co132 Co 0.56503 0.37743 0.19866 0.0
C133 C 0.55893 0.37315 0.41763 0.0
C134 C 0.52271 0.41024 0.35969 0.0
C135 C 0.51855 0.40874 0.46092 0.0
N136 N 0.54888 0.38863 0.33242 0.0
N137 N 0.54138 0.38531 0.49712 0.0
H138 H 0.57896 0.35344 0.42198 0.0
H139 H 0.50678 0.4255 0.31034 0.0
C140 C 0.53618 0.4491 0.14606 0.0
O141 O 0.55793 0.46448 0.20757 0.0
N142 N 0.57957 0.36566 0.06591 0.0
C143 C 0.60943 0.3501 0.03637 0.0
C144 C 0.60882 0.34694 0.93456 0.0
C145 C 0.56123 0.37158 0.98257 0.0
N146 N 0.5785 0.36056 0.90151 0.0
C147 C 0.6277 0.40037 0.29226 0.0
C148 C 0.65197 0.44492 0.14756 0.0
C149 C 0.674 0.43724 0.22816 0.0
C150 C 0.66083 0.41507 0.30146 0.0
C151 C 0.61864 0.42911 0.14061 0.0
N152 N 0.6066 0.40732 0.21346 0.0
H153 H 0.62059 0.38103 0.34553 0.0
H154 H 0.60309 0.43347 0.07507 0.0
H155 H 0.63035 0.34216 0.08515 0.0
H156 H 0.5357 0.3837 0.98068 0.0
O157 O 0.58618 0.33537 0.24604 0.0
O158 O 0.53134 0.33871 0.19519 0.0
O159 O 0.53496 0.41579 0.13996 0.0
C160 C 0.55658 0.31958 0.23086 0.0
H161 H 0.49984 0.42344 0.50435 0.0
H162 H 0.62945 0.33649 0.88826 0.0
H163 H 0.66065 0.46206 0.08886 0.0
H164 H 0.67694 0.40691 0.36301 0.0
Co165 Co 0.1152 0.5647 0.69238 0.0
C166 C 0.11951 0.55946 0.91089 0.0
C167 C 0.0846 0.52068 0.85335 0.0
C168 C 0.08466 0.51832 0.9553 0.0
N169 N 0.10562 0.5474 0.82548 0.0
N170 N 0.10625 0.54319 0.99067 0.0
H171 H 0.13949 0.5794 0.91592 0.0
H172 H 0.07016 0.50378 0.80404 0.0
C173 C 0.04253 0.53507 0.64663 0.0
O174 O 0.02769 0.55469 0.71446 0.0
N175 N 0.12507 0.58101 0.56038 0.0
C176 C 0.13984 0.61158 0.53398 0.0
C177 C 0.14142 0.61294 0.43217 0.0
C178 C 0.11808 0.56414 0.47504 0.0
N179 N 0.12738 0.58319 0.39536 0.0
C180 C 0.09655 0.62767 0.78969 0.0
C181 C 0.04333 0.64938 0.66747 0.0
C182 C 0.05337 0.67102 0.74713 0.0
C183 C 0.08079 0.65962 0.80709 0.0
C184 C 0.06048 0.61725 0.6516 0.0
N185 N 0.08595 0.60603 0.71516 0.0
H186 H 0.11926 0.62192 0.83272 0.0
H187 H 0.05396 0.60203 0.58675 0.0
H188 H 0.14871 0.63148 0.5851 0.0
H189 H 0.10587 0.53864 0.47101 0.0
O190 O 0.15851 0.585 0.73646 0.0
O191 O 0.15347 0.53092 0.68076 0.0
O192 O 0.07576 0.5353 0.63501 0.0
C193 C 0.17361 0.55569 0.71547 0.0
H194 H 0.06937 0.50043 0.99995 0.0
H195 H 0.15247 0.63403 0.389 0.0
H196 H 0.02326 0.6576 0.61622 0.0
H197 H 0.09193 0.67622 0.86392 0.0
Co198 Co 0.93134 0.1124 0.21467 0.0
C199 C 0.93563 0.11268 0.43469 0.0
C200 C 0.97581 0.08108 0.37077 0.0
C201 C 0.97971 0.08093 0.47214 0.0
N202 N 0.94744 0.10022 0.3471 0.0
N203 N 0.95411 0.10058 0.51224 0.0
H204 H 0.91469 0.13127 0.44241 0.0
H205 H 0.99352 0.06914 0.31849 0.0
C206 C 0.95935 0.0398 0.16326 0.0
O207 O 0.93929 0.02455 0.22942 0.0
N208 N 0.91685 0.12464 0.08279 0.0
C209 C 0.88599 0.13761 0.05213 0.0
C210 C 0.8864 0.13908 0.94992 0.0
C211 C 0.93563 0.11883 0.99998 0.0
N212 N 0.91751 0.12681 0.91785 0.0
C213 C 0.86634 0.09521 0.30458 0.0
C214 C 0.84428 0.04312 0.17819 0.0
C215 C 0.82216 0.05314 0.25682 0.0
C216 C 0.83373 0.08001 0.31884 0.0
C217 C 0.87717 0.05957 0.1658 0.0
N218 N 0.88849 0.08447 0.2314 0.0
H219 H 0.87237 0.11749 0.34929 0.0
H220 H 0.89291 0.053 0.10195 0.0
H221 H 0.86438 0.14435 0.10029 0.0
H222 H 0.96195 0.10845 0.99952 0.0
O223 O 0.91289 0.15556 0.26419 0.0
O224 O 0.9671 0.14916 0.20973 0.0
O225 O 0.95933 0.07296 0.15378 0.0
C226 C 0.94334 0.1695 0.24825 0.0
H227 H 1.00064 0.06842 0.51242 0.0
H228 H 0.86502 0.14709 0.90274 0.0
H229 H 0.83591 0.02352 0.12536 0.0
H230 H 0.81684 0.09102 0.3752 0.0
Co231 Co 0.37738 0.9272 0.69579 0.0
C232 C 0.37866 0.92964 0.91577 0.0
C233 C 0.4006 0.97589 0.85192 0.0
C234 C 0.40102 0.97941 0.95343 0.0
N235 N 0.38733 0.94426 0.82827 0.0
N236 N 0.38732 0.95015 0.9932 0.0
H237 H 0.36523 0.90509 0.92391 0.0
H238 H 0.40837 0.99564 0.79917 0.0
C239 C 0.44981 0.95918 0.66078 0.0
O240 O 0.46307 0.94291 0.73741 0.0
N241 N 0.36749 0.91154 0.56348 0.0
C242 C 0.35623 0.87995 0.53291 0.0
C243 C 0.35542 0.87987 0.43076 0.0
C244 C 0.37302 0.93024 0.48075 0.0
N245 N 0.36641 0.91141 0.39862 0.0
C246 C 0.39157 0.86081 0.78015 0.0
C247 C 0.45161 0.84405 0.67759 0.0
C248 C 0.4377 0.81954 0.74483 0.0
C249 C 0.40715 0.82864 0.7956 0.0
C250 C 0.43461 0.8763 0.66311 0.0
N251 N 0.40558 0.88502 0.71734 0.0
H252 H 0.36676 0.86492 0.81543 0.0
H253 H 0.44419 0.89342 0.6058 0.0
H254 H 0.34991 0.85834 0.58121 0.0
H255 H 0.38183 0.95712 0.48065 0.0
O256 O 0.33331 0.90835 0.73942 0.0
O257 O 0.34021 0.96222 0.68454 0.0
O258 O 0.41748 0.95564 0.639 0.0
C259 C 0.31925 0.93809 0.71852 0.0
H260 H 0.40942 1.00227 0.99433 0.0
H261 H 0.34841 0.85803 0.38372 0.0
H262 H 0.47491 0.83826 0.63505 0.0
H263 H 0.39399 0.81025 0.84391 0.0
C264 C 0.45915 1.00972 0.54609 0.0
C265 C 0.47256 0.97985 0.59313 0.0
C266 C 0.4795 0.02908 0.4788 0.0
C267 C 0.51359 0.01859 0.45309 0.0
H268 H 0.43277 0.01842 0.56212 0.0
H269 H 0.46827 0.05216 0.44551 0.0
S270 S 0.56097 0.94236 0.55454 0.0
N271 N 0.52238 0.94105 0.60989 0.0
N272 N 0.56008 0.97666 0.48078 0.0
C273 C 0.52723 0.98865 0.49878 0.0
C274 C 0.50688 0.9695 0.56946 0.0
C275 C 0.52758 0.5019 0.03943 0.0
C276 C 0.5143 0.47047 0.07846 0.0
C277 C 0.50824 0.52168 0.97122 0.0
C278 C 0.47448 0.51126 0.9409 0.0
H279 H 0.55343 0.511 0.06032 0.0
H280 H 0.51964 0.54567 0.94336 0.0
S281 S 0.42739 0.43143 0.02357 0.0
N282 N 0.46527 0.42989 0.08215 0.0
N283 N 0.42851 0.46745 0.95672 0.0
C284 C 0.46074 0.48006 0.98046 0.0
C285 C 0.48075 0.45957 0.04831 0.0
C286 C 1.01215 0.45886 0.48709 0.0
C287 C 0.98159 0.47165 0.44178 0.0
C288 C 0.03171 0.47955 0.55309 0.0
C289 C 0.02078 0.51336 0.57926 0.0
H290 H 0.02125 0.43273 0.47055 0.0
H291 H 0.05534 0.4688 0.58493 0.0
S292 S 0.94229 0.55885 0.48357 0.0
N293 N 0.9414 0.5204 0.42794 0.0
N294 N 0.97739 0.55874 0.55486 0.0
C295 C 0.99003 0.5263 0.53574 0.0
C296 C 0.97066 0.50561 0.46623 0.0
C297 C 0.96759 0.98672 0.05623 0.0
C298 C 0.98057 0.01862 0.09322 0.0
C299 C 0.98624 0.96754 0.9846 0.0
C300 C 0.01896 0.97913 0.94886 0.0
H301 H 0.94248 0.97684 0.08126 0.0
H302 H 0.97521 0.94313 0.95833 0.0
S303 S 0.06472 0.06071 0.02341 0.0
N304 N 0.02811 0.06094 0.08861 0.0
N305 N 0.06354 0.02455 0.95676 0.0
C306 C 0.03236 1.01081 0.9862 0.0
C307 C 1.01307 0.03064 0.05747 0.0
C308 C 0.5827 0.2286 0.30969 0.0
C309 C 0.55245 0.2083 0.29497 0.0
C310 C 0.58307 0.26437 0.29045 0.0
C311 C 0.55329 0.28172 0.25424 0.0
H312 H 0.60665 0.21666 0.33578 0.0
H313 H 0.6074 0.27834 0.30284 0.0
S314 S 0.46682 0.24058 0.20541 0.0
N315 N 0.49138 0.20803 0.2449 0.0
N316 N 0.49207 0.27576 0.20702 0.0
C317 C 0.52242 0.26194 0.24103 0.0
C318 C 0.52198 0.22516 0.26195 0.0
C319 C 0.23211 0.58349 0.72141 0.0
C320 C 0.21208 0.55273 0.72768 0.0
C321 C 0.26807 0.58354 0.73937 0.0
C322 C 0.28596 0.55287 0.76562 0.0
H323 H 0.21985 0.60808 0.7028 0.0
H324 H 0.2818 0.60827 0.73382 0.0
S325 S 0.24578 0.46491 0.7906 0.0
N326 N 0.21267 0.49035 0.75988 0.0
N327 N 0.2808 0.4904 0.79512 0.0
C328 C 0.26644 0.5216 0.77098 0.0
C329 C 0.22944 0.52152 0.7514 0.0
C330 C 0.92607 0.22212 0.34341 0.0
C331 C 0.94937 0.20658 0.27568 0.0
C332 C 0.92688 0.25797 0.36231 0.0
C333 C 0.9513 0.27982 0.31548 0.0
H334 H 0.90606 0.20666 0.3799 0.0
H335 H 0.90726 0.26893 0.4113 0.0
S336 S 0.01955 0.25247 0.13675 0.0
N337 N 0.99894 0.21579 0.16534 0.0
N338 N 1.00049 0.28366 0.20201 0.0
C339 C 0.9761 0.26468 0.2518 0.0
C340 C 0.97518 0.22788 0.23179 0.0
C341 C 0.26005 0.91278 0.703 0.0
C342 C 0.28082 0.94186 0.7271 0.0
C343 C 0.22404 0.91248 0.72062 0.0
C344 C 0.20696 0.94113 0.76459 0.0
H345 H 0.27188 0.88958 0.67147 0.0
H346 H 0.20969 0.88899 0.70129 0.0
S347 S 0.24945 0.0245 0.83864 0.0
N348 N 0.28192 1.0008 0.79365 0.0
N349 N 0.2137 1.00024 0.82853 0.0
C350 C 0.22722 0.97102 0.78647 0.0
C351 C 0.26426 0.9714 0.76723 0.0
C352 C 0.44925 0.76689 0.85067 0.0
C353 C 0.45131 0.7831 0.75699 0.0
C354 C 0.45053 0.73044 0.86082 0.0
C355 C 0.45482 0.70863 0.77795 0.0
H356 H 0.44374 0.78233 0.91606 0.0
H357 H 0.44504 0.71937 0.93285 0.0
S358 S 0.47216 0.73802 0.5208 0.0
N359 N 0.46437 0.77443 0.58247 0.0
N360 N 0.46967 0.70629 0.60297 0.0
C361 C 0.46226 0.72473 0.68641 0.0
C362 C 0.45991 0.76184 0.67551 0.0
C363 C 0.76402 0.45278 0.33913 0.0
C364 C 0.78642 0.4451 0.25948 0.0
C365 C 0.72756 0.45437 0.32592 0.0
C366 C 0.71192 0.44758 0.23305 0.0
H367 H 0.77433 0.45461 0.41355 0.0
H368 H 0.71131 0.45821 0.39078 0.0
S369 S 0.76006 0.4349 0.99676 0.0
N370 N 0.79109 0.43852 0.08103 0.0
N371 N 0.72268 0.43884 0.05724 0.0
C372 C 0.73439 0.44402 0.15099 0.0
C373 C 0.77156 0.44335 0.16412 0.0
C374 C 0.03583 0.76608 0.69014 0.0
C375 C 0.03946 0.78206 0.78403 0.0
C376 C 0.03681 0.72966 0.67854 0.0
C377 C 0.04018 0.70753 0.76071 0.0
H378 H 0.03509 0.78191 0.62389 0.0
H379 H 0.03791 0.71914 0.60419 0.0
S380 S 0.03869 0.7351 0.0243 0.0
N381 N 0.03959 0.77207 0.96189 0.0
N382 N 0.03758 0.70381 0.94024 0.0
C383 C 0.03789 0.72289 0.85555 0.0
C384 C 0.03835 0.76005 0.86734 0.0
C385 C 0.76312 0.03864 0.18512 0.0
C386 C 0.78523 0.04037 0.26799 0.0
C387 C 0.72653 0.03806 0.1961 0.0
C388 C 0.71042 0.0403 0.29023 0.0
H389 H 0.77388 0.04074 0.11121 0.0
H390 H 0.71073 0.03873 0.12968 0.0
S391 S 0.75708 0.03544 0.53071 0.0
N392 N 0.7886 0.03529 0.44704 0.0
N393 N 0.72011 0.03758 0.46798 0.0
C394 C 0.73232 0.03763 0.37355 0.0
C395 C 0.76961 0.03695 0.36222 0.0
C396 C 0.57466 0.14512 0.80619 0.0
C397 C 0.56895 0.11952 0.73352 0.0
C398 C 0.56474 0.13941 0.9048 0.0
C399 C 0.54915 0.10768 0.93461 0.0
H400 H 0.58659 0.16983 0.78625 0.0
H401 H 0.56931 0.16006 0.95805 0.0
S402 S 0.5311 0.03129 0.77246 0.0
N403 N 0.54798 0.06091 0.69758 0.0
N404 N 0.53007 0.04972 0.88295 0.0
C405 C 0.54354 0.08177 0.86221 0.0
C406 C 0.55332 0.08777 0.76173 0.0
C407 C 0.38165 0.58416 0.38865 0.0
C408 C 0.38406 0.54906 0.41786 0.0
C409 C 0.37514 0.59316 0.29011 0.0
C410 C 0.3704 0.56739 0.2169 0.0
H411 H 0.38563 0.60486 0.44224 0.0
H412 H 0.37464 0.62056 0.2709 0.0
S413 S 0.37066 0.47144 0.25853 0.0
N414 N 0.37944 0.48837 0.36819 0.0
N415 N 0.3659 0.50495 0.18318 0.0
C416 C 0.37177 0.53205 0.24607 0.0
C417 C 0.37894 0.52297 0.34643 0.0
C418 C 0.9272 0.35 0.91149 0.0
C419 C 0.94646 0.37967 0.94112 0.0
C420 C 0.9173 0.34503 0.81267 0.0
C421 C 0.92649 0.36939 0.73957 0.0
H422 H 0.91978 0.33036 0.96513 0.0
H423 H 0.90259 0.32181 0.79302 0.0
S424 S 0.97493 0.45249 0.77884 0.0
N425 N 0.97312 0.43445 0.88956 0.0
N426 N 0.95475 0.42498 0.70375 0.0
C427 C 0.94577 0.39917 0.76789 0.0
C428 C 0.95574 0.40431 0.86863 0.0
C429 C 0.11753 0.89812 0.29312 0.0
C430 C 0.12261 0.92407 0.22093 0.0
C431 C 0.11055 0.90687 0.39178 0.0
C432 C 0.10802 0.9419 0.42218 0.0
H433 H 0.11816 0.87077 0.27301 0.0
H434 H 0.10639 0.88603 0.44458 0.0
S435 S 0.12202 0.01991 0.26559 0.0
N436 N 0.12712 0.98658 0.1893 0.0
N437 N 0.11282 1.00272 0.37451 0.0
C438 C 0.11341 0.96817 0.35168 0.0
C439 C 0.12103 0.95934 0.2512 0.0
C440 C 0.54504 0.40394 0.67185 0.0
C441 C 0.54832 0.37757 0.59973 0.0
C442 C 0.55447 0.398 0.77051 0.0
C443 C 0.5679 0.36561 0.80058 0.0
H444 H 0.53611 0.42972 0.6514 0.0
H445 H 0.55218 0.4192 0.82327 0.0
S446 S 0.57725 0.28648 0.64506 0.0
N447 N 0.56238 0.31652 0.56859 0.0
N448 N 0.58125 0.306 0.75355 0.0
C449 C 0.57034 0.33869 0.73048 0.0
C450 C 0.56025 0.3445 0.6302 0.0
C451 C 0.11849 0.52837 0.16476 0.0
C452 C 0.11129 0.55339 0.09203 0.0
C453 C 0.12409 0.53834 0.2635 0.0
C454 C 0.1223 0.57365 0.29301 0.0
H455 H 0.12034 0.50105 0.14468 0.0
H456 H 0.13021 0.51829 0.31694 0.0
S457 S 0.09983 0.64849 0.13129 0.0
N458 N 0.10015 0.61441 0.05634 0.0
N459 N 0.10982 0.63318 0.24172 0.0
C460 C 0.11417 0.59875 0.22086 0.0
C461 C 0.10882 0.5886 0.12047 0.0
C462 C 0.93137 0.13911 0.6449 0.0
C463 C 0.94707 0.10743 0.61563 0.0
C464 C 0.9218 0.1453 0.74362 0.0
C465 C 0.92801 0.1203 0.81717 0.0
H466 H 0.92637 0.15937 0.59114 0.0
H467 H 0.90967 0.16991 0.7629 0.0
S468 S 0.96674 0.03255 0.78024 0.0
N469 N 0.96705 0.05024 0.66902 0.0
N470 N 0.94986 0.06234 0.85455 0.0
C471 C 0.94392 0.08868 0.7896 0.0
C472 C 0.95332 0.08216 0.68894 0.0
C473 C 0.3475 0.91256 0.22451 0.0
C474 C 0.37171 0.92221 0.29776 0.0
C475 C 0.35239 0.92245 0.12571 0.0
C476 C 0.38185 0.94215 0.09628 0.0
H477 H 0.32446 0.89749 0.24403 0.0
H478 H 0.33287 0.91469 0.07194 0.0
S479 S 0.45427 0.97187 0.25907 0.0
N480 N 0.42694 0.95135 0.33401 0.0
N481 N 0.4363 0.96969 0.14819 0.0
C482 C 0.40634 0.95187 0.16894 0.0
C483 C 0.40127 0.94192 0.26966 0.0
loop_
_geom_bond_atom_site_label_1
_geom_bond_atom_site_label_2
_geom_bond_distance
_geom_bond_site_symmetry_2
_ccdc_geom_bond_type
Co0 N4 2.148 . S
Co0 N10 2.128 . S
Co0 N20 2.194 . S
Co0 O25 2.351 . S
Co0 O26 2.155 . S
Co0 O27 2.096 . S
C1 N4 1.301 . S
C1 N5 1.328 . S
C1 H6 0.930 . S
C2 C3 1.333 . S
C2 N4 1.317 . S
C2 H7 0.930 . S
C3 C2 1.333 . S
C3 N5 1.350 . S
C3 H29 0.931 1_554 S
N4 Co0 2.148 . S
N4 C1 1.301 . S
N4 C2 1.317 . S
N5 C1 1.328 . S
N5 C3 1.350 . S
H6 C1 0.930 . S
H7 C2 0.930 . S
C8 O9 1.224 . S
C8 O27 1.247 . S
O9 C8 1.224 . S
N10 Co0 2.128 . S
N10 C11 1.355 . S
N10 C13 1.311 . S
C11 N10 1.355 . S
C11 C12 1.363 . S
C11 H23 0.929 . S
C12 C11 1.363 . S
C12 N14 1.375 . S
C12 H30 0.931 . S
C13 N10 1.311 . S
C13 N14 1.347 . S
C13 H24 0.929 . S
N14 C12 1.375 . S
N14 C13 1.347 . S
C15 C18 1.365 . S
C15 N20 1.328 . S
C15 H21 0.929 . S
C16 C17 1.362 . S
C16 C19 1.378 . S
C16 H31 0.929 . S
C17 C16 1.362 . S
C17 C18 1.366 . S
C18 C15 1.365 . S
C18 C17 1.366 . S
C18 H32 0.930 . S
C19 C16 1.378 . S
C19 N20 1.315 . S
C19 H22 0.930 . S
N20 Co0 2.194 . S
N20 C15 1.328 . S
N20 C19 1.315 . S
H21 C15 0.929 . S
H22 C19 0.930 . S
H23 C11 0.929 . S
H24 C13 0.929 . S
O25 Co0 2.351 . S
O25 C28 1.244 . S
O26 Co0 2.155 . S
O26 C28 1.240 . S
O27 Co0 2.096 . S
O27 C8 1.247 . S
C28 O25 1.244 . S
C28 O26 1.240 . S
H29 C3 0.931 1_556 S
H30 C12 0.931 . S
H31 C16 0.929 . S
H32 C18 0.930 . S
Co33 N37 2.148 . S
Co33 N43 2.128 . S
Co33 N53 2.194 . S
Co33 O58 2.351 . S
Co33 O59 2.155 . S
Co33 O60 2.096 . S
C34 N37 1.301 . S
C34 N38 1.328 . S
C34 H39 0.930 . S
C35 C36 1.333 . S
C35 N37 1.317 . S
C35 H40 0.930 . S
C36 C35 1.333 . S
C36 N38 1.350 . S
C36 H62 0.931 . S
N37 Co33 2.148 . S
N37 C34 1.301 . S
N37 C35 1.317 . S
N38 C34 1.328 . S
N38 C36 1.350 . S
H39 C34 0.930 . S
H40 C35 0.930 . S
C41 O42 1.224 . S
C41 O60 1.247 . S
O42 C41 1.224 . S
N43 Co33 2.128 . S
N43 C44 1.355 . S
N43 C46 1.311 1_556 S
C44 N43 1.355 . S
C44 C45 1.363 1_556 S
C44 H56 0.929 . S
C45 C44 1.363 1_554 S
C45 N47 1.375 . S
C45 H63 0.931 . S
C46 N43 1.311 1_554 S
C46 N47 1.347 . S
C46 H57 0.929 . S
N47 C45 1.375 . S
N47 C46 1.347 . S
C48 C51 1.365 . S
C48 N53 1.328 . S
C48 H54 0.929 . S
C49 C50 1.362 . S
C49 C52 1.378 . S
C49 H64 0.929 . S
C50 C49 1.362 . S
C50 C51 1.366 . S
C51 C48 1.365 . S
C51 C50 1.366 . S
C51 H65 0.930 . S
C52 C49 1.378 . S
C52 N53 1.315 . S
C52 H55 0.930 . S
N53 Co33 2.194 . S
N53 C48 1.328 . S
N53 C52 1.315 . S
H54 C48 0.929 . S
H55 C52 0.930 . S
H56 C44 0.929 . S
H57 C46 0.929 . S
O58 Co33 2.351 . S
O58 C61 1.244 . S
O59 Co33 2.155 . S
O59 C61 1.240 . S
O60 Co33 2.096 . S
O60 C41 1.247 . S
C61 O58 1.244 . S
C61 O59 1.240 . S
H62 C36 0.931 . S
H63 C45 0.931 . S
H64 C49 0.929 . S
H65 C51 0.930 . S
Co66 N70 2.148 . S
Co66 N76 2.128 . S
Co66 N86 2.194 . S
Co66 O91 2.351 . S
Co66 O92 2.155 . S
Co66 O93 2.096 . S
C67 N70 1.301 . S
C67 N71 1.328 . S
C67 H72 0.930 . S
C68 C69 1.333 . S
C68 N70 1.317 . S
C68 H73 0.930 . S
C69 C68 1.333 . S
C69 N71 1.350 . S
C69 H95 0.931 1_554 S
N70 Co66 2.148 . S
N70 C67 1.301 . S
N70 C68 1.317 . S
N71 C67 1.328 . S
N71 C69 1.350 . S
H72 C67 0.930 . S
H73 C68 0.930 . S
C74 O75 1.224 . S
C74 O93 1.247 . S
O75 C74 1.224 . S
N76 Co66 2.128 . S
N76 C77 1.355 . S
N76 C79 1.311 . S
C77 N76 1.355 . S
C77 C78 1.363 . S
C77 H89 0.929 . S
C78 C77 1.363 . S
C78 N80 1.375 . S
C78 H96 0.931 . S
C79 N76 1.311 . S
C79 N80 1.347 . S
C79 H90 0.929 . S
N80 C78 1.375 . S
N80 C79 1.347 . S
C81 C84 1.365 . S
C81 N86 1.328 . S
C81 H87 0.929 . S
C82 C83 1.362 . S
C82 C85 1.378 . S
C82 H97 0.929 . S
C83 C82 1.362 . S
C83 C84 1.366 . S
C84 C81 1.365 . S
C84 C83 1.366 . S
C84 H98 0.930 . S
C85 C82 1.378 . S
C85 N86 1.315 . S
C85 H88 0.930 . S
N86 Co66 2.194 . S
N86 C81 1.328 . S
N86 C85 1.315 . S
H87 C81 0.929 . S
H88 C85 0.930 . S
H89 C77 0.929 . S
H90 C79 0.929 . S
O91 Co66 2.351 . S
O91 C94 1.244 . S
O92 Co66 2.155 . S
O92 C94 1.240 . S
O93 Co66 2.096 . S
O93 C74 1.247 . S
C94 O91 1.244 . S
C94 O92 1.240 . S
H95 C69 0.931 1_556 S
H96 C78 0.931 . S
H97 C82 0.929 . S
H98 C84 0.930 . S
Co99 N103 2.148 . S
Co99 N109 2.128 . S
Co99 N119 2.194 . S
Co99 O124 2.351 . S
Co99 O125 2.155 . S
Co99 O126 2.096 . S
C100 N103 1.301 . S
C100 N104 1.328 . S
C100 H105 0.930 . S
C101 C102 1.333 . S
C101 N103 1.317 . S
C101 H106 0.930 . S
C102 C101 1.333 . S
C102 N104 1.350 . S
C102 H128 0.931 . S
N103 Co99 2.148 . S
N103 C100 1.301 . S
N103 C101 1.317 . S
N104 C100 1.328 . S
N104 C102 1.350 . S
H105 C100 0.930 . S
H106 C101 0.930 . S
C107 O108 1.224 . S
C107 O126 1.247 . S
O108 C107 1.224 . S
N109 Co99 2.128 . S
N109 C110 1.355 . S
N109 C112 1.311 1_556 S
C110 N109 1.355 . S
C110 C111 1.363 1_556 S
C110 H122 0.929 . S
C111 C110 1.363 1_554 S
C111 N113 1.375 . S
C111 H129 0.931 . S
C112 N109 1.311 1_554 S
C112 N113 1.347 . S
C112 H123 0.929 . S
N113 C111 1.375 . S
N113 C112 1.347 . S
C114 C117 1.365 . S
C114 N119 1.328 . S
C114 H120 0.929 . S
C115 C116 1.362 . S
C115 C118 1.378 . S
C115 H130 0.929 . S
C116 C115 1.362 . S
C116 C117 1.366 . S
C117 C114 1.365 . S
C117 C116 1.366 . S
C117 H131 0.930 . S
C118 C115 1.378 . S
C118 N119 1.315 . S
C118 H121 0.930 . S
N119 Co99 2.194 . S
N119 C114 1.328 . S
N119 C118 1.315 . S
H120 C114 0.929 . S
H121 C118 0.930 . S
H122 C110 0.929 . S
H123 C112 0.929 . S
O124 Co99 2.351 . S
O124 C127 1.244 . S
O125 Co99 2.155 . S
O125 C127 1.240 . S
O126 Co99 2.096 . S
O126 C107 1.247 . S
C127 O124 1.244 . S
C127 O125 1.240 . S
H128 C102 0.931 . S
H129 C111 0.931 . S
H130 C115 0.929 . S
H131 C117 0.930 . S
Co132 N136 2.148 . S
Co132 N142 2.128 . S
Co132 N152 2.194 . S
Co132 O157 2.351 . S
Co132 O158 2.155 . S
Co132 O159 2.096 . S
C133 N136 1.301 . S
C133 N137 1.328 . S
C133 H138 0.930 . S
C134 C135 1.333 . S
C134 N136 1.317 . S
C134 H139 0.930 . S
C135 C134 1.333 . S
C135 N137 1.350 . S
C135 H161 0.931 . S
N136 Co132 2.148 . S
N136 C133 1.301 . S
N136 C134 1.317 . S
N137 C133 1.328 . S
N137 C135 1.350 . S
H138 C133 0.930 . S
H139 C134 0.930 . S
C140 O141 1.224 . S
C140 O159 1.247 . S
O141 C140 1.224 . S
N142 Co132 2.128 . S
N142 C143 1.355 . S
N142 C145 1.311 1_554 S
C143 N142 1.355 . S
C143 C144 1.363 1_554 S
C143 H155 0.929 . S
C144 C143 1.363 1_556 S
C144 N146 1.375 . S
C144 H162 0.931 . S
C145 N142 1.311 1_556 S
C145 N146 1.347 . S
C145 H156 0.929 . S
N146 C144 1.375 . S
N146 C145 1.347 . S
C147 C150 1.365 . S
C147 N152 1.328 . S
C147 H153 0.929 . S
C148 C149 1.362 . S
C148 C151 1.378 . S
C148 H163 0.929 . S
C149 C148 1.362 . S
C149 C150 1.366 . S
C150 C147 1.365 . S
C150 C149 1.366 . S
C150 H164 0.930 . S
C151 C148 1.378 . S
C151 N152 1.315 . S
C151 H154 0.930 . S
N152 Co132 2.194 . S
N152 C147 1.328 . S
N152 C151 1.315 . S
H153 C147 0.929 . S
H154 C151 0.930 . S
H155 C143 0.929 . S
H156 C145 0.929 . S
O157 Co132 2.351 . S
O157 C160 1.244 . S
O158 Co132 2.155 . S
O158 C160 1.240 . S
O159 Co132 2.096 . S
O159 C140 1.247 . S
C160 O157 1.244 . S
C160 O158 1.240 . S
H161 C135 0.931 . S
H162 C144 0.931 . S
H163 C148 0.929 . S
H164 C150 0.930 . S
Co165 N169 2.148 . S
Co165 N175 2.128 . S
Co165 N185 2.194 . S
Co165 O190 2.351 . S
Co165 O191 2.155 . S
Co165 O192 2.096 . S
C166 N169 1.301 . S
C166 N170 1.328 . S
C166 H171 0.930 . S
C167 C168 1.333 . S
C167 N169 1.317 . S
C167 H172 0.930 . S
C168 C167 1.333 . S
C168 N170 1.350 . S
C168 H194 0.931 1_556 S
N169 Co165 2.148 . S
N169 C166 1.301 . S
N169 C167 1.317 . S
N170 C166 1.328 . S
N170 C168 1.350 . S
H171 C166 0.930 . S
H172 C167 0.930 . S
C173 O174 1.224 . S
C173 O192 1.247 . S
O174 C173 1.224 . S
N175 Co165 2.128 . S
N175 C176 1.355 . S
N175 C178 1.311 . S
C176 N175 1.355 . S
C176 C177 1.363 . S
C176 H188 0.929 . S
C177 C176 1.363 . S
C177 N179 1.375 . S
C177 H195 0.931 . S
C178 N175 1.311 . S
C178 N179 1.347 . S
C178 H189 0.929 . S
N179 C177 1.375 . S
N179 C178 1.347 . S
C180 C183 1.365 . S
C180 N185 1.328 . S
C180 H186 0.929 . S
C181 C182 1.362 . S
C181 C184 1.378 . S
C181 H196 0.929 . S
C182 C181 1.362 . S
C182 C183 1.366 . S
C183 C180 1.365 . S
C183 C182 1.366 . S
C183 H197 0.930 . S
C184 C181 1.378 . S
C184 N185 1.315 . S
C184 H187 0.930 . S
N185 Co165 2.194 . S
N185 C180 1.328 . S
N185 C184 1.315 . S
H186 C180 0.929 . S
H187 C184 0.930 . S
H188 C176 0.929 . S
H189 C178 0.929 . S
O190 Co165 2.351 . S
O190 C193 1.244 . S
O191 Co165 2.155 . S
O191 C193 1.240 . S
O192 Co165 2.096 . S
O192 C173 1.247 . S
C193 O190 1.244 . S
C193 O191 1.240 . S
H194 C168 0.931 1_554 S
H195 C177 0.931 . S
H196 C181 0.929 . S
H197 C183 0.930 . S
Co198 N202 2.148 . S
Co198 N208 2.128 . S
Co198 N218 2.194 . S
Co198 O223 2.351 . S
Co198 O224 2.155 . S
Co198 O225 2.096 . S
C199 N202 1.301 . S
C199 N203 1.328 . S
C199 H204 0.930 . S
C200 C201 1.333 . S
C200 N202 1.317 . S
C200 H205 0.930 . S
C201 C200 1.333 . S
C201 N203 1.350 . S
C201 H227 0.931 . S
N202 Co198 2.148 . S
N202 C199 1.301 . S
N202 C200 1.317 . S
N203 C199 1.328 . S
N203 C201 1.350 . S
H204 C199 0.930 . S
H205 C200 0.930 . S
C206 O207 1.224 . S
C206 O225 1.247 . S
O207 C206 1.224 . S
N208 Co198 2.128 . S
N208 C209 1.355 . S
N208 C211 1.311 1_554 S
C209 N208 1.355 . S
C209 C210 1.363 1_554 S
C209 H221 0.929 . S
C210 C209 1.363 1_556 S
C210 N212 1.375 . S
C210 H228 0.931 . S
C211 N208 1.311 1_556 S
C211 N212 1.347 . S
C211 H222 0.929 . S
N212 C210 1.375 . S
N212 C211 1.347 . S
C213 C216 1.365 . S
C213 N218 1.328 . S
C213 H219 0.929 . S
C214 C215 1.362 . S
C214 C217 1.378 . S
C214 H229 0.929 . S
C215 C214 1.362 . S
C215 C216 1.366 . S
C216 C213 1.365 . S
C216 C215 1.366 . S
C216 H230 0.930 . S
C217 C214 1.378 . S
C217 N218 1.315 . S
C217 H220 0.930 . S
N218 Co198 2.194 . S
N218 C213 1.328 . S
N218 C217 1.315 . S
H219 C213 0.929 . S
H220 C217 0.930 . S
H221 C209 0.929 . S
H222 C211 0.929 . S
O223 Co198 2.351 . S
O223 C226 1.244 . S
O224 Co198 2.155 . S
O224 C226 1.240 . S
O225 Co198 2.096 . S
O225 C206 1.247 . S
C226 O223 1.244 . S
C226 O224 1.240 . S
H227 C201 0.931 . S
H228 C210 0.931 . S
H229 C214 0.929 . S
H230 C216 0.930 . S
Co231 N235 2.148 . S
Co231 N241 2.128 . S
Co231 N251 2.194 . S
Co231 O256 2.351 . S
Co231 O257 2.155 . S
Co231 O258 2.096 . S
C232 N235 1.301 . S
C232 N236 1.328 . S
C232 H237 0.930 . S
C233 C234 1.333 . S
C233 N235 1.317 . S
C233 H238 0.930 . S
C234 C233 1.333 . S
C234 N236 1.350 . S
C234 H260 0.931 1_556 S
N235 Co231 2.148 . S
N235 C232 1.301 . S
N235 C233 1.317 . S
N236 C232 1.328 . S
N236 C234 1.350 . S
H237 C232 0.930 . S
H238 C233 0.930 . S
C239 O240 1.224 . S
C239 O258 1.247 . S
O240 C239 1.224 . S
N241 Co231 2.128 . S
N241 C242 1.355 . S
N241 C244 1.311 . S
C242 N241 1.355 . S
C242 C243 1.363 . S
C242 H254 0.929 . S
C243 C242 1.363 . S
C243 N245 1.375 . S
C243 H261 0.931 . S
C244 N241 1.311 . S
C244 N245 1.347 . S
C244 H255 0.929 . S
N245 C243 1.375 . S
N245 C244 1.347 . S
C246 C249 1.365 . S
C246 N251 1.328 . S
C246 H252 0.929 . S
C247 C248 1.362 . S
C247 C250 1.378 . S
C247 H262 0.929 . S
C248 C247 1.362 . S
C248 C249 1.366 . S
C249 C246 1.365 . S
C249 C248 1.366 . S
C249 H263 0.930 . S
C250 C247 1.378 . S
C250 N251 1.315 . S
C250 H253 0.930 . S
N251 Co231 2.194 . S
N251 C246 1.328 . S
N251 C250 1.315 . S
H252 C246 0.929 . S
H253 C250 0.930 . S
H254 C242 0.929 . S
H255 C244 0.929 . S
O256 Co231 2.351 . S
O256 C259 1.244 . S
O257 Co231 2.155 . S
O257 C259 1.240 . S
O258 Co231 2.096 . S
O258 C239 1.247 . S
C259 O256 1.244 . S
C259 O257 1.240 . S
H260 C234 0.931 1_554 S
H261 C243 0.931 . S
H262 C247 0.929 . S
H263 C249 0.930 . S
C264 C265 1.369 . S
C264 C266 1.419 1_565 S
C264 H268 0.930 . S
C265 C264 1.369 . S
C265 C274 1.429 . S
C266 C264 1.419 1_545 S
C266 C267 1.363 . S
C266 H269 0.929 . S
C267 C266 1.363 . S
C267 C273 1.428 . S
H268 C264 0.930 . S
H269 C266 0.929 . S
S270 N271 1.613 . S
S270 N272 1.610 1_565 S
N271 S270 1.613 . S
N271 C274 1.350 . S
N272 S270 1.610 1_545 S
N272 C273 1.351 . S
C273 C267 1.428 . S
C273 N272 1.351 . S
C273 C274 1.434 1_545 S
C274 C265 1.429 . S
C274 N271 1.350 . S
C274 C273 1.434 1_565 S
C275 C276 1.369 . S
C275 C277 1.419 . S
C275 H279 0.930 . S
C276 C275 1.369 . S
C276 C285 1.429 1_554 S
C277 C275 1.419 . S
C277 C278 1.363 1_554 S
C277 H280 0.929 . S
C278 C277 1.363 1_556 S
C278 C284 1.428 . S
H279 C275 0.930 . S
H280 C277 0.929 . S
S281 N282 1.613 . S
S281 N283 1.610 . S
N282 S281 1.613 . S
N282 C285 1.350 . S
N283 S281 1.610 . S
N283 C284 1.351 . S
C284 C278 1.428 . S
C284 N283 1.351 . S
C284 C285 1.434 . S
C285 C276 1.429 1_556 S
C285 N282 1.350 . S
C285 C284 1.434 . S
C286 C287 1.369 . S
C286 C288 1.419 1_655 S
C286 H290 0.930 . S
C287 C286 1.369 . S
C287 C296 1.429 . S
C288 C286 1.419 1_455 S
C288 C289 1.363 . S
C288 H291 0.929 . S
C289 C288 1.363 . S
C289 C295 1.428 . S
H290 C286 0.930 . S
H291 C288 0.929 . S
S292 N293 1.613 1_455 S
S292 N294 1.610 . S
N293 S292 1.613 1_655 S
N293 C296 1.350 . S
N294 S292 1.610 . S
N294 C295 1.351 . S
C295 C289 1.428 . S
C295 N294 1.351 . S
C295 C296 1.434 1_455 S
C296 C287 1.429 . S
C296 N293 1.350 . S
C296 C295 1.434 1_655 S
C297 C298 1.369 1_565 S
C297 C299 1.419 1_554 S
C297 H301 0.930 . S
C298 C297 1.369 1_545 S
C298 C307 1.429 1_655 S
C299 C297 1.419 1_556 S
C299 C300 1.363 1_655 S
C299 H302 0.929 . S
C300 C299 1.363 1_455 S
C300 C306 1.428 1_565 S
H301 C297 0.930 . S
H302 C299 0.929 . S
S303 N304 1.613 . S
S303 N305 1.610 1_554 S
N304 S303 1.613 . S
N304 C307 1.350 . S
N305 S303 1.610 1_556 S
N305 C306 1.351 . S
C306 C300 1.428 1_545 S
C306 N305 1.351 . S
C306 C307 1.434 1_556 S
C307 C298 1.429 1_455 S
C307 N304 1.350 . S
C307 C306 1.434 1_554 S
C308 C309 1.369 . S
C308 C310 1.419 . S
C308 H312 0.930 . S
C309 C308 1.369 . S
C309 C318 1.429 . S
C310 C308 1.419 . S
C310 C311 1.363 . S
C310 H313 0.929 . S
C311 C310 1.363 . S
C311 C317 1.428 . S
H312 C308 0.930 . S
H313 C310 0.929 . S
S314 N315 1.613 . S
S314 N316 1.610 . S
N315 S314 1.613 . S
N315 C318 1.350 . S
N316 S314 1.610 . S
N316 C317 1.351 . S
C317 C311 1.428 . S
C317 N316 1.351 . S
C317 C318 1.434 . S
C318 C309 1.429 . S
C318 N315 1.350 . S
C318 C317 1.434 . S
C319 C320 1.369 . S
C319 C321 1.419 . S
C319 H323 0.930 . S
C320 C319 1.369 . S
C320 C329 1.429 . S
C321 C319 1.419 . S
C321 C322 1.363 . S
C321 H324 0.929 . S
C322 C321 1.363 . S
C322 C328 1.428 . S
H323 C319 0.930 . S
H324 C321 0.929 . S
S325 N326 1.613 . S
S325 N327 1.610 . S
N326 S325 1.613 . S
N326 C329 1.350 . S
N327 S325 1.610 . S
N327 C328 1.351 . S
C328 C322 1.428 . S
C328 N327 1.351 . S
C328 C329 1.434 . S
C329 C320 1.429 . S
C329 N326 1.350 . S
C329 C328 1.434 . S
C330 C331 1.369 . S
C330 C332 1.419 . S
C330 H334 0.930 . S
C331 C330 1.369 . S
C331 C340 1.429 . S
C332 C330 1.419 . S
C332 C333 1.363 . S
C332 H335 0.929 . S
C333 C332 1.363 . S
C333 C339 1.428 . S
H334 C330 0.930 . S
H335 C332 0.929 . S
S336 N337 1.613 . S
S336 N338 1.610 . S
N337 S336 1.613 . S
N337 C340 1.350 . S
N338 S336 1.610 . S
N338 C339 1.351 . S
C339 C333 1.428 . S
C339 N338 1.351 . S
C339 C340 1.434 . S
C340 C331 1.429 . S
C340 N337 1.350 . S
C340 C339 1.434 . S
C341 C342 1.369 . S
C341 C343 1.419 . S
C341 H345 0.930 . S
C342 C341 1.369 . S
C342 C351 1.429 . S
C343 C341 1.419 . S
C343 C344 1.363 . S
C343 H346 0.929 . S
C344 C343 1.363 . S
C344 C350 1.428 . S
H345 C341 0.930 . S
H346 C343 0.929 . S
S347 N348 1.613 . S
S347 N349 1.610 . S
N348 S347 1.613 . S
N348 C351 1.350 1_545 S
N349 S347 1.610 . S
N349 C350 1.351 1_545 S
C350 C344 1.428 . S
C350 N349 1.351 1_565 S
C350 C351 1.434 . S
C351 C342 1.429 . S
C351 N348 1.350 1_565 S
C351 C350 1.434 . S
C352 C353 1.369 . S
C352 C354 1.419 . S
C352 H356 0.930 . S
C353 C352 1.369 . S
C353 C362 1.429 . S
C354 C352 1.419 . S
C354 C355 1.363 . S
C354 H357 0.929 . S
C355 C354 1.363 . S
C355 C361 1.428 . S
H356 C352 0.930 . S
H357 C354 0.929 . S
S358 N359 1.613 . S
S358 N360 1.610 . S
N359 S358 1.613 . S
N359 C362 1.350 . S
N360 S358 1.610 . S
N360 C361 1.351 . S
C361 C355 1.428 . S
C361 N360 1.351 . S
C361 C362 1.434 . S
C362 C353 1.429 . S
C362 N359 1.350 . S
C362 C361 1.434 . S
C363 C364 1.369 . S
C363 C365 1.419 . S
C363 H367 0.930 . S
C364 C363 1.369 . S
C364 C373 1.429 . S
C365 C363 1.419 . S
C365 C366 1.363 . S
C365 H368 0.929 . S
C366 C365 1.363 . S
C366 C372 1.428 . S
H367 C363 0.930 . S
H368 C365 0.929 . S
S369 N370 1.613 . S
S369 N371 1.610 . S
N370 S369 1.613 . S
N370 C373 1.350 . S
N371 S369 1.610 . S
N371 C372 1.351 . S
C372 C366 1.428 . S
C372 N371 1.351 . S
C372 C373 1.434 . S
C373 C364 1.429 . S
C373 N370 1.350 . S
C373 C372 1.434 . S
C374 C375 1.369 . S
C374 C376 1.419 . S
C374 H378 0.930 . S
C375 C374 1.369 . S
C375 C384 1.429 . S
C376 C374 1.419 . S
C376 C377 1.363 . S
C376 H379 0.929 . S
C377 C376 1.363 . S
C377 C383 1.428 . S
H378 C374 0.930 . S
H379 C376 0.929 . S
S380 N381 1.613 1_655 S
S380 N382 1.596 1_655 S
N381 S380 1.613 1_455 S
N381 C384 1.350 . S
N382 S380 1.596 1_455 S
N382 C383 1.373 . S
C383 C377 1.428 . S
C383 N382 1.373 . S
C383 C384 1.434 . S
C384 C375 1.429 . S
C384 N381 1.350 . S
C384 C383 1.434 . S
C385 C386 1.369 . S
C385 C387 1.419 . S
C385 H389 0.930 . S
C386 C385 1.369 . S
C386 C395 1.429 . S
C387 C385 1.419 . S
C387 C388 1.363 . S
C387 H390 0.929 . S
C388 C387 1.363 . S
C388 C394 1.428 . S
H389 C385 0.930 . S
H390 C387 0.929 . S
S391 N392 1.613 . S
S391 N393 1.610 . S
N392 S391 1.613 . S
N392 C395 1.350 . S
N393 S391 1.610 . S
N393 C394 1.351 . S
C394 C388 1.428 . S
C394 N393 1.351 . S
C394 C395 1.434 . S
C395 C386 1.429 . S
C395 N392 1.350 . S
C395 C394 1.434 . S
C396 C397 1.369 . S
C396 C398 1.419 . S
C396 H400 0.930 . S
C397 C396 1.369 . S
C397 C406 1.429 . S
C398 C396 1.419 . S
C398 C399 1.363 . S
C398 H401 0.929 . S
C399 C398 1.363 . S
C399 C405 1.428 . S
H400 C396 0.930 . S
H401 C398 0.929 . S
S402 N403 1.608 1_565 S
S402 N404 1.606 1_565 S
N403 S402 1.608 1_545 S
N403 C406 1.350 . S
N404 S402 1.606 1_545 S
N404 C405 1.351 . S
C405 C399 1.428 . S
C405 N404 1.351 . S
C405 C406 1.434 . S
C406 C397 1.429 . S
C406 N403 1.350 . S
C406 C405 1.434 . S
C407 C408 1.369 . S
C407 C409 1.419 . S
C407 H411 0.930 . S
C408 C407 1.369 . S
C408 C417 1.429 . S
C409 C407 1.419 . S
C409 C410 1.363 . S
C409 H412 0.929 . S
C410 C409 1.363 . S
C410 C416 1.428 . S
H411 C407 0.930 . S
H412 C409 0.929 . S
S413 N414 1.613 . S
S413 N415 1.610 . S
N414 S413 1.613 . S
N414 C417 1.350 . S
N415 S413 1.610 . S
N415 C416 1.351 . S
C416 C410 1.428 . S
C416 N415 1.351 . S
C416 C417 1.434 . S
C417 C408 1.429 . S
C417 N414 1.350 . S
C417 C416 1.434 . S
C418 C419 1.369 . S
C418 C420 1.419 . S
C418 H422 0.930 . S
C419 C418 1.369 . S
C419 C428 1.429 . S
C420 C418 1.419 . S
C420 C421 1.363 . S
C420 H423 0.929 . S
C421 C420 1.363 . S
C421 C427 1.428 . S
H422 C418 0.930 . S
H423 C420 0.929 . S
S424 N425 1.613 . S
S424 N426 1.610 . S
N425 S424 1.613 . S
N425 C428 1.350 . S
N426 S424 1.610 . S
N426 C427 1.351 . S
C427 C421 1.428 . S
C427 N426 1.351 . S
C427 C428 1.434 . S
C428 C419 1.429 . S
C428 N425 1.350 . S
C428 C427 1.434 . S
C429 C430 1.369 . S
C429 C431 1.419 . S
C429 H433 0.930 . S
C430 C429 1.369 . S
C430 C439 1.429 . S
C431 C429 1.419 . S
C431 C432 1.363 . S
C431 H434 0.929 . S
C432 C431 1.363 . S
C432 C438 1.428 . S
H433 C429 0.930 . S
H434 C431 0.929 . S
S435 N436 1.613 1_545 S
S435 N437 1.610 1_545 S
N436 S435 1.613 1_565 S
N436 C439 1.350 . S
N437 S435 1.610 1_565 S
N437 C438 1.351 . S
C438 C432 1.428 . S
C438 N437 1.351 . S
C438 C439 1.434 . S
C439 C430 1.429 . S
C439 N436 1.350 . S
C439 C438 1.434 . S
C440 C441 1.369 . S
C440 C442 1.419 . S
C440 H444 0.930 . S
C441 C440 1.369 . S
C441 C450 1.429 . S
C442 C440 1.419 . S
C442 C443 1.363 . S
C442 H445 0.929 . S
C443 C442 1.363 . S
C443 C449 1.428 . S
H444 C440 0.930 . S
H445 C442 0.929 . S
S446 N447 1.613 . S
S446 N448 1.610 . S
N447 S446 1.613 . S
N447 C450 1.350 . S
N448 S446 1.610 . S
N448 C449 1.351 . S
C449 C443 1.428 . S
C449 N448 1.351 . S
C449 C450 1.434 . S
C450 C441 1.429 . S
C450 N447 1.350 . S
C450 C449 1.434 . S
C451 C452 1.369 . S
C451 C453 1.419 . S
C451 H455 0.930 . S
C452 C451 1.369 . S
C452 C461 1.429 . S
C453 C451 1.419 . S
C453 C454 1.363 . S
C453 H456 0.929 . S
C454 C453 1.363 . S
C454 C460 1.428 . S
H455 C451 0.930 . S
H456 C453 0.929 . S
S457 N458 1.613 . S
S457 N459 1.610 . S
N458 S457 1.613 . S
N458 C461 1.350 . S
N459 S457 1.610 . S
N459 C460 1.351 . S
C460 C454 1.428 . S
C460 N459 1.351 . S
C460 C461 1.434 . S
C461 C452 1.429 . S
C461 N458 1.350 . S
C461 C460 1.434 . S
C462 C463 1.369 . S
C462 C464 1.419 . S
C462 H466 0.930 . S
C463 C462 1.369 . S
C463 C472 1.429 . S
C464 C462 1.419 . S
C464 C465 1.363 . S
C464 H467 0.929 . S
C465 C464 1.363 . S
C465 C471 1.428 . S
H466 C462 0.930 . S
H467 C464 0.929 . S
S468 N469 1.613 . S
S468 N470 1.610 . S
N469 S468 1.613 . S
N469 C472 1.350 . S
N470 S468 1.610 . S
N470 C471 1.351 . S
C471 C465 1.428 . S
C471 N470 1.351 . S
C471 C472 1.434 . S
C472 C463 1.429 . S
C472 N469 1.350 . S
C472 C471 1.434 . S
C473 C474 1.369 . S
C473 C475 1.419 . S
C473 H477 0.930 . S
C474 C473 1.369 . S
C474 C483 1.429 . S
C475 C473 1.419 . S
C475 C476 1.363 . S
C475 H478 0.929 . S
C476 C475 1.363 . S
C476 C482 1.428 . S
H477 C473 0.930 . S
H478 C475 0.929 . S
S479 N480 1.613 . S
S479 N481 1.610 . S
N480 S479 1.613 . S
N480 C483 1.350 . S
N481 S479 1.610 . S
N481 C482 1.351 . S
C482 C476 1.428 . S
C482 N481 1.351 . S
C482 C483 1.434 . S
C483 C474 1.429 . S
C483 N480 1.350 . S
C483 C482 1.434 . S
C265 C239 1.259 . S
C267 C8 1.249 . S
C276 C140 1.247 . S
C278 C41 1.258 . S
C287 C74 1.259 . S
C289 C173 1.248 . S
C298 C206 1.252 . S
C300 C107 1.254 . S
C309 C28 1.544 . S
C311 C160 1.542 . S
C320 C193 1.545 . S
C322 C61 1.543 . S
C331 C226 1.543 . S
C333 C94 1.544 . S
C342 C259 1.545 . S
C344 C127 1.543 . S
C353 C248 1.587 . S
C355 C50 1.584 . S
C364 C83 1.582 . S
C366 C149 1.585 . S
C375 C116 1.587 . S
C377 C182 1.584 . S
C386 C215 1.585 . S
C388 C17 1.587 . S
C397 N14 1.349 . S
C399 N5 1.346 1_556 S
C408 N38 1.348 . S
C410 N47 1.347 . S
C419 N71 1.346 1_556 S
C421 N80 1.348 . S
C430 N113 1.347 . S
C432 N104 1.348 . S
C441 N137 1.350 . S
C443 N146 1.345 . S
C452 N170 1.348 1_554 S
C454 N179 1.346 . S
C463 N203 1.346 . S
C465 N212 1.348 . S
C474 N245 1.348 . S
C476 N236 1.347 1_554 S
