# Generated by pormake.
# Topology vbm, (6)-cn, num edge types: 1
# Building blocks:
#     Node 0, Type 0, BuildingBlock: INOVEN_clean_sbu_0, # of connection points: 6
#     Node 1, Type 0, BuildingBlock: INOVEN_clean_sbu_0, # of connection points: 6
#     Node 2, Type 0, BuildingBlock: INOVEN_clean_sbu_0, # of connection points: 6
#     Node 3, Type 0, BuildingBlock: INOVEN_clean_sbu_0, # of connection points: 6
#     Node 4, Type 0, BuildingBlock: INOVEN_clean_sbu_0, # of connection points: 6
#     Node 5, Type 0, BuildingBlock: INOVEN_clean_sbu_0, # of connection points: 6
#     Node 6, Type 0, BuildingBlock: INOVEN_clean_sbu_0, # of connection points: 6
#     Node 7, Type 0, BuildingBlock: INOVEN_clean_sbu_0, # of connection points: 6
#     Node 8, Type 0, BuildingBlock: INOVEN_clean_sbu_0, # of connection points: 6
#     Node 9, Type 0, BuildingBlock: INOVEN_clean_sbu_0, # of connection points: 6
#     Node 10, Type 0, BuildingBlock: INOVEN_clean_sbu_0, # of connection points: 6
#     Node 11, Type 0, BuildingBlock: INOVEN_clean_sbu_0, # of connection points: 6
#     Node 12, Type 0, BuildingBlock: INOVEN_clean_sbu_0, # of connection points: 6
#     Node 13, Type 0, BuildingBlock: INOVEN_clean_sbu_0, # of connection points: 6
#     Node 14, Type 0, BuildingBlock: INOVEN_clean_sbu_0, # of connection points: 6
#     Node 15, Type 0, BuildingBlock: INOVEN_clean_sbu_0, # of connection points: 6
#     Edge 16, Type (0, 0), BuildingBlock: OJICUG_clean_linker_0, # of connection points: 2
#     Edge 17, Type (0, 0), BuildingBlock: OJICUG_clean_linker_0, # of connection points: 2
#     Edge 18, Type (0, 0), BuildingBlock: OJICUG_clean_linker_0, # of connection points: 2
#     Edge 19, Type (0, 0), BuildingBlock: OJICUG_clean_linker_0, # of connection points: 2
#     Edge 20, Type (0, 0), BuildingBlock: OJICUG_clean_linker_0, # of connection points: 2
#     Edge 21, Type (0, 0), BuildingBlock: OJICUG_clean_linker_0, # of connection points: 2
#     Edge 22, Type (0, 0), BuildingBlock: OJICUG_clean_linker_0, # of connection points: 2
#     Edge 23, Type (0, 0), BuildingBlock: OJICUG_clean_linker_0, # of connection points: 2
#     Edge 24, Type (0, 0), BuildingBlock: OJICUG_clean_linker_0, # of connection points: 2
#     Edge 25, Type (0, 0), BuildingBlock: OJICUG_clean_linker_0, # of connection points: 2
#     Edge 26, Type (0, 0), BuildingBlock: OJICUG_clean_linker_0, # of connection points: 2
#     Edge 27, Type (0, 0), BuildingBlock: OJICUG_clean_linker_0, # of connection points: 2
#     Edge 28, Type (0, 0), BuildingBlock: OJICUG_clean_linker_0, # of connection points: 2
#     Edge 29, Type (0, 0), BuildingBlock: OJICUG_clean_linker_0, # of connection points: 2
#     Edge 30, Type (0, 0), BuildingBlock: OJICUG_clean_linker_0, # of connection points: 2
#     Edge 31, Type (0, 0), BuildingBlock: OJICUG_clean_linker_0, # of connection points: 2
#     Edge 32, Type (0, 0), BuildingBlock: OJICUG_clean_linker_0, # of connection points: 2
#     Edge 33, Type (0, 0), BuildingBlock: OJICUG_clean_linker_0, # of connection points: 2
#     Edge 34, Type (0, 0), BuildingBlock: OJICUG_clean_linker_0, # of connection points: 2
#     Edge 35, Type (0, 0), BuildingBlock: OJICUG_clean_linker_0, # of connection points: 2
#     Edge 36, Type (0, 0), BuildingBlock: OJICUG_clean_linker_0, # of connection points: 2
#     Edge 37, Type (0, 0), BuildingBlock: OJICUG_clean_linker_0, # of connection points: 2
#     Edge 38, Type (0, 0), BuildingBlock: OJICUG_clean_linker_0, # of connection points: 2
#     Edge 39, Type (0, 0), BuildingBlock: OJICUG_clean_linker_0, # of connection points: 2
#     Edge 40, Type (0, 0), BuildingBlock: OJICUG_clean_linker_0, # of connection points: 2
#     Edge 41, Type (0, 0), BuildingBlock: OJICUG_clean_linker_0, # of connection points: 2
#     Edge 42, Type (0, 0), BuildingBlock: OJICUG_clean_linker_0, # of connection points: 2
#     Edge 43, Type (0, 0), BuildingBlock: OJICUG_clean_linker_0, # of connection points: 2
#     Edge 44, Type (0, 0), BuildingBlock: OJICUG_clean_linker_0, # of connection points: 2
#     Edge 45, Type (0, 0), BuildingBlock: OJICUG_clean_linker_0, # of connection points: 2
#     Edge 46, Type (0, 0), BuildingBlock: OJICUG_clean_linker_0, # of connection points: 2
#     Edge 47, Type (0, 0), BuildingBlock: OJICUG_clean_linker_0, # of connection points: 2
#     Edge 48, Type (0, 0), BuildingBlock: OJICUG_clean_linker_0, # of connection points: 2
#     Edge 49, Type (0, 0), BuildingBlock: OJICUG_clean_linker_0, # of connection points: 2
#     Edge 50, Type (0, 0), BuildingBlock: OJICUG_clean_linker_0, # of connection points: 2
#     Edge 51, Type (0, 0), BuildingBlock: OJICUG_clean_linker_0, # of connection points: 2
#     Edge 52, Type (0, 0), BuildingBlock: OJICUG_clean_linker_0, # of connection points: 2
#     Edge 53, Type (0, 0), BuildingBlock: OJICUG_clean_linker_0, # of connection points: 2
#     Edge 54, Type (0, 0), BuildingBlock: OJICUG_clean_linker_0, # of connection points: 2
#     Edge 55, Type (0, 0), BuildingBlock: OJICUG_clean_linker_0, # of connection points: 2
#     Edge 56, Type (0, 0), BuildingBlock: OJICUG_clean_linker_0, # of connection points: 2
#     Edge 57, Type (0, 0), BuildingBlock: OJICUG_clean_linker_0, # of connection points: 2
#     Edge 58, Type (0, 0), BuildingBlock: OJICUG_clean_linker_0, # of connection points: 2
#     Edge 59, Type (0, 0), BuildingBlock: OJICUG_clean_linker_0, # of connection points: 2
#     Edge 60, Type (0, 0), BuildingBlock: OJICUG_clean_linker_0, # of connection points: 2
#     Edge 61, Type (0, 0), BuildingBlock: OJICUG_clean_linker_0, # of connection points: 2
#     Edge 62, Type (0, 0), BuildingBlock: OJICUG_clean_linker_0, # of connection points: 2
#     Edge 63, Type (0, 0), BuildingBlock: OJICUG_clean_linker_0, # of connection points: 2
# Relax obj value: 0.060
# Max RMSD: 0.147
# Mean RMSD: 0.147
data_MOF--net-vbm--node1-INOVEN_clean_sbu_0--edge1-OJICUG_clean_linker_0
_symmetry_space_group_name_H-M    P1
_symmetry_Int_Tables_number       1
_symmetry_cell_setting            triclinic
loop_
_symmetry_equiv_pos_as_xyz
'x, y, z'
_cell_length_a     39.682834
_cell_length_b     21.357969
_cell_length_c     39.263686
_cell_angle_alpha  89.942515
_cell_angle_beta   89.889309
_cell_angle_gamma 89.752095
loop_
_atom_site_label
_atom_site_type_symbol
_atom_site_fract_x
_atom_site_fract_y
_atom_site_fract_z
_atom_type_partial_charge
Gd0 Gd 0.13077 0.09204 0.1592 0.0
Gd1 Gd 0.09204 0.20895 0.17071 0.0
C2 C 0.04878 0.09481 0.15024 0.0
C3 C 0.1547 0.97842 0.15925 0.0
C4 C 0.14408 0.91211 0.16053 0.0
C5 C 0.16286 0.86741 0.1424 0.0
C6 C 0.11644 0.89226 0.18012 0.0
C7 C 0.12705 0.78336 0.16376 0.0
C8 C 0.10805 0.8285 0.18176 0.0
C9 C 0.15449 0.80388 0.14395 0.0
C10 C 0.1294 0.16674 0.10315 0.0
C11 C 0.17288 0.21393 0.1752 0.0
C12 C 0.06764 0.32191 0.17498 0.0
C13 C 0.07831 0.3882 0.17418 0.0
C14 C 0.05945 0.43275 0.19234 0.0
C15 C 0.10628 0.40809 0.15511 0.0
C16 C 0.09571 0.51681 0.17177 0.0
C17 C 0.11485 0.47177 0.15387 0.0
C18 C 0.06802 0.49625 0.1912 0.0
C19 C 0.09308 0.12736 0.22448 0.0
O20 O 0.07588 0.06111 0.1579 0.0
O21 O 0.04994 0.1561 0.14848 0.0
O22 O 0.14777 1.00958 0.13149 0.0
O23 O 0.15062 1.012 0.1868 0.0
O24 O 0.1557 0.13683 0.11425 0.0
O25 O 0.10459 0.15666 0.12288 0.0
O26 O 0.14493 0.24427 0.16786 0.0
O27 O 0.1735 0.15219 0.17752 0.0
O28 O 0.0768 0.28889 0.20144 0.0
O29 O 0.06964 0.29036 0.14651 0.0
O30 O 0.06665 0.15854 0.21487 0.0
O31 O 0.11774 0.14217 0.20588 0.0
H32 H 0.18438 0.88161 0.12727 0.0
H33 H 0.10147 0.9259 0.19428 0.0
H34 H 0.08652 0.81464 0.19694 0.0
H35 H 0.17001 0.77067 0.13014 0.0
H36 H 0.03773 0.41848 0.20715 0.0
H37 H 0.12135 0.37451 0.14102 0.0
H38 H 0.1366 0.48567 0.13903 0.0
H39 H 0.05243 0.52941 0.20497 0.0
Gd40 Gd 0.83691 0.97937 0.16061 0.0
Gd41 Gd 0.87564 0.86239 0.17146 0.0
C42 C 0.91888 0.9769 0.15114 0.0
C43 C 0.81278 0.09287 0.16151 0.0
C44 C 0.82324 0.15926 0.16263 0.0
C45 C 0.80277 0.20451 0.14697 0.0
C46 C 0.85254 0.17855 0.1796 0.0
C47 C 0.84019 0.28807 0.16572 0.0
C48 C 0.86093 0.24231 0.18113 0.0
C49 C 0.81111 0.26806 0.14843 0.0
C50 C 0.83845 0.90597 0.10414 0.0
C51 C 0.79482 0.85688 0.1755 0.0
C52 C 0.90032 0.74954 0.17544 0.0
C53 C 0.89 0.68308 0.17448 0.0
C54 C 0.9101 0.63819 0.19091 0.0
C55 C 0.861 0.66346 0.15711 0.0
C56 C 0.87291 0.55432 0.17211 0.0
C57 C 0.85251 0.59973 0.15598 0.0
C58 C 0.90171 0.57463 0.18976 0.0
C59 C 0.87428 0.94272 0.22573 0.0
O60 O 0.89177 1.01049 0.15898 0.0
O61 O 0.91775 0.91563 0.1493 0.0
O62 O 0.8192 0.06205 0.13353 0.0
O63 O 0.81764 0.0591 0.18888 0.0
O64 O 0.81214 0.93575 0.11538 0.0
O65 O 0.86323 0.91559 0.12388 0.0
O66 O 0.82286 0.82692 0.16796 0.0
O67 O 0.79419 0.91852 0.17852 0.0
O68 O 0.89084 0.78209 0.20194 0.0
O69 O 0.89828 0.78138 0.14704 0.0
O70 O 0.90082 0.91217 0.21579 0.0
O71 O 0.84969 0.9282 0.20707 0.0
H72 H 0.78009 0.19068 0.13366 0.0
H73 H 0.86875 0.14446 0.19192 0.0
H74 H 0.88334 0.25581 0.19494 0.0
H75 H 0.79483 0.30149 0.13573 0.0
H76 H 0.93252 0.65232 0.20457 0.0
H77 H 0.84513 0.69728 0.14417 0.0
H78 H 0.83031 0.58593 0.1419 0.0
H79 H 0.91772 0.54141 0.20297 0.0
Gd80 Gd 0.13092 0.98823 0.39586 0.0
Gd81 Gd 0.0915 0.86197 0.38826 0.0
C82 C 0.04971 0.9801 0.41039 0.0
C83 C 0.15298 0.09832 0.38013 0.0
C84 C 0.14592 0.16429 0.38904 0.0
C85 C 0.17261 0.20668 0.39228 0.0
C86 C 0.11267 0.18644 0.39206 0.0
C87 C 0.13285 0.29332 0.39936 0.0
C88 C 0.10621 0.25018 0.397 0.0
C89 C 0.16618 0.27051 0.39751 0.0
C90 C 0.12255 0.93817 0.45899 0.0
C91 C 0.17305 0.8608 0.38626 0.0
C92 C 0.06757 0.74927 0.38768 0.0
C93 C 0.07833 0.68413 0.3935 0.0
C94 C 0.05469 0.63601 0.39017 0.0
C95 C 0.11192 0.66906 0.40113 0.0
C96 C 0.09832 0.55783 0.40072 0.0
C97 C 0.12192 0.60635 0.40446 0.0
C98 C 0.06453 0.57346 0.39388 0.0
C99 C 0.09283 0.94048 0.33337 0.0
O100 O 0.07577 1.01524 0.4013 0.0
O101 O 0.05139 0.91866 0.41219 0.0
O102 O 0.16733 0.06306 0.40335 0.0
O103 O 0.12926 0.06932 0.36328 0.0
O104 O 0.1383 0.99001 0.45281 0.0
O105 O 0.11235 0.9152 0.43114 0.0
O106 O 0.14496 0.82941 0.39157 0.0
O107 O 0.17382 0.92266 0.38359 0.0
O108 O 0.08019 0.77689 0.36078 0.0
O109 O 0.06622 0.7859 0.4144 0.0
O110 O 0.06649 0.909 0.34276 0.0
O111 O 0.11698 0.92777 0.3531 0.0
H112 H 0.19846 0.19061 0.39008 0.0
H113 H 0.09155 0.15477 0.38967 0.0
H114 H 0.08023 0.26576 0.39777 0.0
H115 H 0.18737 0.302 0.39979 0.0
H116 H 0.02865 0.64679 0.38422 0.0
H117 H 0.13036 0.7057 0.40427 0.0
H118 H 0.14806 0.59579 0.41005 0.0
H119 H 0.04584 0.5372 0.39049 0.0
Gd120 Gd 0.83696 0.09217 0.40164 0.0
Gd121 Gd 0.8752 0.20837 0.3897 0.0
C122 C 0.9188 0.09497 0.41142 0.0
C123 C 0.81328 0.97877 0.4015 0.0
C124 C 0.82402 0.91235 0.40025 0.0
C125 C 0.80605 0.86812 0.41937 0.0
C126 C 0.85086 0.89188 0.37961 0.0
C127 C 0.84098 0.78334 0.39688 0.0
C128 C 0.85921 0.828 0.3779 0.0
C129 C 0.8144 0.80446 0.41775 0.0
C130 C 0.83804 0.16681 0.45761 0.0
C131 C 0.79455 0.21464 0.38667 0.0
C132 C 0.89943 0.32088 0.38397 0.0
C133 C 0.88896 0.38737 0.38528 0.0
C134 C 0.90694 0.43147 0.36609 0.0
C135 C 0.862 0.40787 0.40572 0.0
C136 C 0.87183 0.51629 0.38825 0.0
C137 C 0.85356 0.47171 0.40723 0.0
C138 C 0.89851 0.49512 0.36752 0.0
C139 C 0.87423 0.12641 0.33612 0.0
O140 O 0.89199 0.06109 0.4035 0.0
O141 O 0.91725 0.15623 0.41281 0.0
O142 O 0.82003 1.00975 0.42929 0.0
O143 O 0.81737 1.01244 0.37397 0.0
O144 O 0.81189 0.13674 0.44663 0.0
O145 O 0.86289 0.15682 0.43786 0.0
O146 O 0.82248 0.24435 0.39416 0.0
O147 O 0.79409 0.15303 0.38362 0.0
O148 O 0.88874 0.2881 0.35813 0.0
O149 O 0.89895 0.28935 0.41254 0.0
O150 O 0.9007 0.1568 0.3459 0.0
O151 O 0.84955 0.14173 0.35464 0.0
H152 H 0.78513 0.88278 0.43531 0.0
H153 H 0.86521 0.92511 0.36466 0.0
H154 H 0.88009 0.81365 0.36188 0.0
H155 H 0.79948 0.77161 0.43235 0.0
H156 H 0.92788 0.4167 0.35021 0.0
H157 H 0.84762 0.37463 0.42063 0.0
H158 H 0.83258 0.48609 0.42312 0.0
H159 H 0.91343 0.52793 0.35289 0.0
Gd160 Gd 0.87548 0.8618 0.89013 0.0
Gd161 Gd 0.8368 0.97877 0.90096 0.0
C162 C 0.79466 0.85638 0.88621 0.0
C163 C 0.90019 0.74892 0.88642 0.0
C164 C 0.88987 0.68247 0.88736 0.0
C165 C 0.9104 0.63746 0.87154 0.0
C166 C 0.86043 0.66297 0.90413 0.0
C167 C 0.8726 0.55373 0.88956 0.0
C168 C 0.85187 0.59926 0.9052 0.0
C169 C 0.90193 0.57391 0.87263 0.0
C170 C 0.87422 0.94185 0.83569 0.0
C171 C 0.91876 0.97624 0.91005 0.0
C172 C 0.81267 0.09228 0.90015 0.0
C173 C 0.82315 0.15865 0.8991 0.0
C174 C 0.80216 0.20403 0.91398 0.0
C175 C 0.85304 0.17778 0.88301 0.0
C176 C 0.84038 0.28733 0.89642 0.0
C177 C 0.86153 0.24152 0.88162 0.0
C178 C 0.81063 0.26753 0.91269 0.0
C179 C 0.83841 0.9052 0.9575 0.0
O180 O 0.82268 0.82636 0.89366 0.0
O181 O 0.79404 0.91804 0.88321 0.0
O182 O 0.891 0.78151 0.85982 0.0
O183 O 0.8978 0.78072 0.91478 0.0
O184 O 0.90072 0.91118 0.84558 0.0
O185 O 0.84959 0.9277 0.85451 0.0
O186 O 0.89167 1.00985 0.90225 0.0
O187 O 0.91758 0.91499 0.91206 0.0
O188 O 0.81898 0.06126 0.9281 0.0
O189 O 0.81765 0.05872 0.87275 0.0
O190 O 0.81204 0.93476 0.94627 0.0
O191 O 0.86317 0.91521 0.93769 0.0
H192 H 0.9333 0.65144 0.85858 0.0
H193 H 0.84418 0.6969 0.91651 0.0
H194 H 0.82887 0.58577 0.91809 0.0
H195 H 0.91881 0.54046 0.86073 0.0
H196 H 0.7789 0.19035 0.92637 0.0
H197 H 0.86971 0.14356 0.87143 0.0
H198 H 0.88482 0.25486 0.86922 0.0
H199 H 0.79347 0.30127 0.92392 0.0
Gd200 Gd 0.09221 0.20741 0.8891 0.0
Gd201 Gd 0.1308 0.09036 0.90086 0.0
C202 C 0.17312 0.21219 0.88484 0.0
C203 C 0.06768 0.32032 0.88473 0.0
C204 C 0.07806 0.38673 0.8857 0.0
C205 C 0.0575 0.43197 0.87016 0.0
C206 C 0.10757 0.40595 0.90229 0.0
C207 C 0.09533 0.5154 0.88823 0.0
C208 C 0.11612 0.46964 0.90356 0.0
C209 C 0.06598 0.4955 0.87139 0.0
C210 C 0.09311 0.12567 0.83551 0.0
C211 C 0.04882 0.09348 0.90993 0.0
C212 C 0.15483 0.97678 0.9011 0.0
C213 C 0.14442 0.91043 0.89961 0.0
C214 C 0.16516 0.86486 0.91462 0.0
C215 C 0.11483 0.89152 0.88302 0.0
C216 C 0.12728 0.78177 0.89624 0.0
C217 C 0.10638 0.82779 0.8813 0.0
C218 C 0.15675 0.80137 0.91299 0.0
C219 C 0.12939 0.1657 0.95665 0.0
O220 O 0.1451 0.24264 0.89187 0.0
O221 O 0.17373 0.15042 0.88269 0.0
O222 O 0.07734 0.28758 0.85835 0.0
O223 O 0.06949 0.28866 0.9132 0.0
O224 O 0.06678 0.15723 0.84509 0.0
O225 O 0.11781 0.1401 0.85406 0.0
O226 O 0.07588 0.05963 0.90227 0.0
O227 O 0.05006 0.15476 0.91156 0.0
O228 O 0.14723 1.00771 0.92876 0.0
O229 O 0.1511 1.01041 0.87351 0.0
O230 O 0.15567 0.13554 0.94563 0.0
O231 O 0.10461 0.15526 0.93706 0.0
H232 H 0.03455 0.41819 0.85732 0.0
H233 H 0.12389 0.37181 0.91441 0.0
H234 H 0.13914 0.48297 0.91636 0.0
H235 H 0.04908 0.52915 0.85971 0.0
H236 H 0.18818 0.87838 0.92741 0.0
H237 H 0.09836 0.92591 0.87132 0.0
H238 H 0.08331 0.81463 0.86854 0.0
H239 H 0.17374 0.7675 0.92434 0.0
Gd240 Gd 0.87536 0.20787 0.67163 0.0
Gd241 Gd 0.837 0.09154 0.66007 0.0
C242 C 0.79469 0.21407 0.67554 0.0
C243 C 0.89992 0.32028 0.67652 0.0
C244 C 0.88971 0.38692 0.67527 0.0
C245 C 0.90987 0.43154 0.69153 0.0
C246 C 0.86078 0.40695 0.65776 0.0
C247 C 0.87283 0.51598 0.67232 0.0
C248 C 0.85238 0.47084 0.65635 0.0
C249 C 0.90158 0.49527 0.69009 0.0
C250 C 0.87439 0.12624 0.72542 0.0
C251 C 0.91883 0.09408 0.65002 0.0
C252 C 0.81302 0.97832 0.66036 0.0
C253 C 0.82349 0.9118 0.66156 0.0
C254 C 0.80306 0.86686 0.64592 0.0
C255 C 0.85276 0.89209 0.67863 0.0
C256 C 0.8404 0.78274 0.66496 0.0
C257 C 0.86113 0.82819 0.68031 0.0
C258 C 0.81137 0.80317 0.64755 0.0
C259 C 0.83811 0.16658 0.60411 0.0
O260 O 0.8226 0.24391 0.66796 0.0
O261 O 0.79421 0.15241 0.67839 0.0
O262 O 0.88957 0.28774 0.70267 0.0
O263 O 0.89872 0.2887 0.64803 0.0
O264 O 0.90083 0.15677 0.71555 0.0
O265 O 0.84972 0.14119 0.70687 0.0
O266 O 0.89199 0.06027 0.65805 0.0
O267 O 0.91734 0.15534 0.64854 0.0
O268 O 0.81987 1.00932 0.63253 0.0
O269 O 0.81741 1.01174 0.68786 0.0
O270 O 0.81192 0.13668 0.61525 0.0
O271 O 0.86296 0.15605 0.62367 0.0
H272 H 0.93224 0.41708 0.70529 0.0
H273 H 0.84489 0.37332 0.64493 0.0
H274 H 0.83023 0.48496 0.64218 0.0
H275 H 0.91761 0.52829 0.70319 0.0
H276 H 0.78041 0.88103 0.63254 0.0
H277 H 0.86894 0.92595 0.69093 0.0
H278 H 0.88349 0.81436 0.69421 0.0
H279 H 0.79511 0.76997 0.63489 0.0
Gd280 Gd 0.09105 0.86023 0.67203 0.0
Gd281 Gd 0.13083 0.986 0.66456 0.0
C282 C 0.17254 0.85813 0.6742 0.0
C283 C 0.06683 0.74771 0.67286 0.0
C284 C 0.07718 0.68235 0.66696 0.0
C285 C 0.05421 0.63427 0.6737 0.0
C286 C 0.10981 0.66709 0.65583 0.0
C287 C 0.0967 0.55582 0.65952 0.0
C288 C 0.11962 0.60426 0.65243 0.0
C289 C 0.06379 0.5716 0.66987 0.0
C290 C 0.09243 0.9382 0.72707 0.0
C291 C 0.04959 0.97855 0.65007 0.0
C292 C 0.15252 0.09635 0.68013 0.0
C293 C 0.14491 0.16228 0.67129 0.0
C294 C 0.1713 0.20442 0.66535 0.0
C295 C 0.11156 0.1847 0.67097 0.0
C296 C 0.13123 0.29121 0.66083 0.0
C297 C 0.10483 0.24834 0.66599 0.0
C298 C 0.16456 0.26816 0.66003 0.0
C299 C 0.12265 0.9366 0.60134 0.0
O300 O 0.14444 0.82731 0.66818 0.0
O301 O 0.17339 0.91994 0.67739 0.0
O302 O 0.07979 0.77503 0.6996 0.0
O303 O 0.06542 0.78447 0.64617 0.0
O304 O 0.06601 0.90723 0.71758 0.0
O305 O 0.11663 0.92553 0.70731 0.0
O306 O 0.0757 1.01334 0.65928 0.0
O307 O 0.05117 0.91716 0.64805 0.0
O308 O 0.16692 0.06143 0.65676 0.0
O309 O 0.1292 0.06671 0.69732 0.0
O310 O 0.13867 0.98805 0.60766 0.0
O311 O 0.11223 0.9134 0.62912 0.0
H312 H 0.02892 0.64518 0.68236 0.0
H313 H 0.12764 0.70371 0.64997 0.0
H314 H 0.14504 0.59355 0.64411 0.0
H315 H 0.04568 0.53541 0.67586 0.0
H316 H 0.19721 0.18822 0.66544 0.0
H317 H 0.09062 0.15336 0.67549 0.0
H318 H 0.07889 0.26406 0.66735 0.0
H319 H 0.18554 0.29938 0.65557 0.0
Gd320 Gd 0.63081 0.58366 0.1656 0.0
Gd321 Gd 0.59089 0.71045 0.173 0.0
C322 C 0.54962 0.59248 0.1507 0.0
C323 C 0.6526 0.47296 0.18111 0.0
C324 C 0.64534 0.40721 0.17205 0.0
C325 C 0.67193 0.36441 0.16788 0.0
C326 C 0.61202 0.3856 0.16988 0.0
C327 C 0.63201 0.27848 0.1616 0.0
C328 C 0.60545 0.32203 0.16488 0.0
C329 C 0.66537 0.30075 0.16258 0.0
C330 C 0.62287 0.6342 0.10253 0.0
C331 C 0.67253 0.71081 0.17619 0.0
C332 C 0.56672 0.82336 0.17315 0.0
C333 C 0.57744 0.88843 0.16751 0.0
C334 C 0.55392 0.93692 0.17171 0.0
C335 C 0.61087 0.90303 0.15909 0.0
C336 C 0.59735 1.01451 0.16036 0.0
C337 C 0.62084 0.96562 0.1558 0.0
C338 C 0.56372 0.99936 0.16803 0.0
C339 C 0.59162 0.63152 0.22771 0.0
O340 O 0.57574 0.55719 0.15985 0.0
O341 O 0.55114 0.65392 0.14888 0.0
O342 O 0.66716 0.50807 0.158 0.0
O343 O 0.62891 0.50245 0.19802 0.0
O344 O 0.63878 0.58228 0.10867 0.0
O345 O 0.61238 0.65698 0.13038 0.0
O346 O 0.64443 0.74244 0.17059 0.0
O347 O 0.67341 0.64885 0.17861 0.0
O348 O 0.57883 0.79565 0.20028 0.0
O349 O 0.56603 0.78673 0.14641 0.0
O350 O 0.5654 0.66367 0.2183 0.0
O351 O 0.61599 0.64408 0.20821 0.0
H352 H 0.69783 0.38003 0.16941 0.0
H353 H 0.59096 0.41753 0.17301 0.0
H354 H 0.57945 0.30688 0.1648 0.0
H355 H 0.68649 0.26896 0.15956 0.0
H356 H 0.52801 0.92651 0.17827 0.0
H357 H 0.62921 0.86609 0.15529 0.0
H358 H 0.64685 0.9758 0.14956 0.0
H359 H 0.54512 0.03589 0.17207 0.0
Gd360 Gd 0.33715 0.48238 0.16093 0.0
Gd361 Gd 0.37568 0.36533 0.17286 0.0
C362 C 0.41895 0.47847 0.1505 0.0
C363 C 0.31331 0.59608 0.16091 0.0
C364 C 0.32381 0.66238 0.16249 0.0
C365 C 0.30367 0.70789 0.14662 0.0
C366 C 0.35282 0.68135 0.18009 0.0
C367 C 0.34078 0.79107 0.16643 0.0
C368 C 0.36122 0.74508 0.18202 0.0
C369 C 0.31201 0.77139 0.14852 0.0
C370 C 0.33794 0.40675 0.10534 0.0
C371 C 0.29481 0.36058 0.177 0.0
C372 C 0.40028 0.25259 0.17799 0.0
C373 C 0.39004 0.18613 0.17694 0.0
C374 C 0.41032 0.14116 0.19308 0.0
C375 C 0.36096 0.16658 0.1597 0.0
C376 C 0.37317 0.0573 0.17417 0.0
C377 C 0.35259 0.10281 0.15835 0.0
C378 C 0.40203 0.07756 0.19174 0.0
C379 C 0.37524 0.44819 0.22601 0.0
O380 O 0.39213 0.51272 0.15854 0.0
O381 O 0.41751 0.41719 0.14928 0.0
O382 O 0.32078 0.56525 0.13318 0.0
O383 O 0.31702 0.56227 0.18845 0.0
O384 O 0.31187 0.43755 0.11635 0.0
O385 O 0.36287 0.41673 0.12482 0.0
O386 O 0.32282 0.33008 0.17 0.0
O387 O 0.29421 0.42234 0.17914 0.0
O388 O 0.39002 0.28546 0.2041 0.0
O389 O 0.399 0.28403 0.14942 0.0
O390 O 0.40155 0.41674 0.21627 0.0
O391 O 0.35041 0.43309 0.20783 0.0
H392 H 0.28124 0.69429 0.13283 0.0
H393 H 0.36877 0.64704 0.19257 0.0
H394 H 0.38339 0.75837 0.19628 0.0
H395 H 0.29598 0.80505 0.13567 0.0
H396 H 0.4328 0.15525 0.20664 0.0
H397 H 0.34493 0.20049 0.14701 0.0
H398 H 0.33035 0.08909 0.14432 0.0
H399 H 0.41816 0.04429 0.20475 0.0
Gd400 Gd 0.63013 0.48877 0.39799 0.0
Gd401 Gd 0.59034 0.36285 0.38994 0.0
C402 C 0.5492 0.48066 0.41383 0.0
C403 C 0.65217 0.59908 0.38267 0.0
C404 C 0.64424 0.66472 0.39132 0.0
C405 C 0.66988 0.70973 0.39112 0.0
C406 C 0.61079 0.68389 0.39697 0.0
C407 C 0.62839 0.79288 0.39922 0.0
C408 C 0.60294 0.74735 0.40073 0.0
C409 C 0.66206 0.77332 0.39521 0.0
C410 C 0.62252 0.43691 0.46073 0.0
C411 C 0.67193 0.36122 0.38655 0.0
C412 C 0.56537 0.25099 0.38912 0.0
C413 C 0.57517 0.18517 0.3942 0.0
C414 C 0.55026 0.13901 0.39349 0.0
C415 C 0.60896 0.16751 0.39846 0.0
C416 C 0.593 0.05726 0.39914 0.0
C417 C 0.61787 0.10409 0.40074 0.0
C418 C 0.55901 0.07576 0.39612 0.0
C419 C 0.59108 0.44298 0.33574 0.0
O420 O 0.57508 0.51598 0.4044 0.0
O421 O 0.55096 0.41923 0.41526 0.0
O422 O 0.66602 0.56421 0.40636 0.0
O423 O 0.62902 0.56965 0.36531 0.0
O424 O 0.63833 0.48881 0.45483 0.0
O425 O 0.61194 0.41484 0.43283 0.0
O426 O 0.64384 0.32969 0.39182 0.0
O427 O 0.67276 0.42321 0.38469 0.0
O428 O 0.57782 0.27874 0.36218 0.0
O429 O 0.56504 0.28688 0.41615 0.0
O430 O 0.56477 0.41145 0.34518 0.0
O431 O 0.61543 0.42949 0.35503 0.0
H432 H 0.69582 0.69591 0.3867 0.0
H433 H 0.59056 0.65002 0.39742 0.0
H434 H 0.57683 0.76093 0.40427 0.0
H435 H 0.68217 0.80735 0.39378 0.0
H436 H 0.52398 0.15186 0.39049 0.0
H437 H 0.62841 0.2027 0.39949 0.0
H438 H 0.64428 0.09185 0.40283 0.0
H439 H 0.53906 0.04135 0.39563 0.0
Gd440 Gd 0.33702 0.58547 0.39672 0.0
Gd441 Gd 0.37675 0.71126 0.39066 0.0
C442 C 0.41798 0.59348 0.41342 0.0
C443 C 0.31473 0.47659 0.37898 0.0
C444 C 0.3191 0.4103 0.38828 0.0
C445 C 0.34511 0.39115 0.41014 0.0
C446 C 0.29887 0.36506 0.3727 0.0
C447 C 0.33189 0.28154 0.39899 0.0
C448 C 0.30513 0.30129 0.37802 0.0
C449 C 0.35144 0.32733 0.41547 0.0
C450 C 0.34405 0.63327 0.46036 0.0
C451 C 0.29551 0.71365 0.3881 0.0
C452 C 0.39885 0.82509 0.39012 0.0
C453 C 0.38625 0.88964 0.39541 0.0
C454 C 0.35693 0.91166 0.37922 0.0
C455 C 0.40491 0.931 0.41561 0.0
C456 C 0.36627 1.01651 0.40189 0.0
C457 C 0.39502 0.99367 0.41889 0.0
C458 C 0.34706 0.97441 0.38242 0.0
C459 C 0.37585 0.6343 0.33515 0.0
O460 O 0.39217 0.55856 0.4034 0.0
O461 O 0.41628 0.65488 0.41543 0.0
O462 O 0.29897 0.51285 0.40081 0.0
O463 O 0.34118 0.50313 0.36526 0.0
O464 O 0.32821 0.58185 0.45344 0.0
O465 O 0.35493 0.65717 0.43294 0.0
O466 O 0.3235 0.74391 0.39512 0.0
O467 O 0.29479 0.65216 0.38356 0.0
O468 O 0.3883 0.79581 0.36288 0.0
O469 O 0.40067 0.78877 0.41699 0.0
O470 O 0.40231 0.66456 0.34523 0.0
O471 O 0.3515 0.64707 0.35465 0.0
H472 H 0.36107 0.42551 0.42233 0.0
H473 H 0.27886 0.37903 0.35551 0.0
H474 H 0.28984 0.26751 0.36459 0.0
H475 H 0.37193 0.31384 0.43214 0.0
H476 H 0.34203 0.88083 0.36344 0.0
H477 H 0.42755 0.91505 0.42841 0.0
H478 H 0.4101 1.02437 0.43458 0.0
H479 H 0.32499 0.99032 0.36868 0.0
Gd480 Gd 0.37593 0.3633 0.89175 0.0
Gd481 Gd 0.33717 0.48044 0.90301 0.0
C482 C 0.29511 0.3586 0.88646 0.0
C483 C 0.40066 0.25047 0.88792 0.0
C484 C 0.39034 0.18403 0.88875 0.0
C485 C 0.41153 0.13878 0.87406 0.0
C486 C 0.3603 0.16479 0.90446 0.0
C487 C 0.37319 0.05529 0.89118 0.0
C488 C 0.3518 0.10106 0.90567 0.0
C489 C 0.40311 0.07521 0.87525 0.0
C490 C 0.37555 0.44496 0.83803 0.0
C491 C 0.41896 0.47715 0.91332 0.0
C492 C 0.31316 0.59403 0.90278 0.0
C493 C 0.3237 0.66034 0.90168 0.0
C494 C 0.3024 0.70597 0.91585 0.0
C495 C 0.35396 0.67915 0.88621 0.0
C496 C 0.34106 0.78894 0.89879 0.0
C497 C 0.36253 0.74285 0.88473 0.0
C498 C 0.31092 0.76944 0.91445 0.0
C499 C 0.338 0.40518 0.9589 0.0
O500 O 0.32299 0.32808 0.8939 0.0
O501 O 0.29456 0.42037 0.88431 0.0
O502 O 0.39159 0.28322 0.86133 0.0
O503 O 0.39811 0.28206 0.91633 0.0
O504 O 0.40183 0.41357 0.84785 0.0
O505 O 0.35068 0.43047 0.85644 0.0
O506 O 0.39209 0.51114 0.90519 0.0
O507 O 0.41761 0.41587 0.91488 0.0
O508 O 0.31985 0.56281 0.93059 0.0
O509 O 0.31776 0.56066 0.87525 0.0
O510 O 0.31181 0.43525 0.94767 0.0
O511 O 0.36294 0.41563 0.93944 0.0
H512 H 0.4349 0.15258 0.86193 0.0
H513 H 0.34353 0.19893 0.91595 0.0
H514 H 0.32835 0.08772 0.91775 0.0
H515 H 0.42046 0.04156 0.86425 0.0
H516 H 0.27885 0.69252 0.92776 0.0
H517 H 0.37087 0.6447 0.87518 0.0
H518 H 0.38611 0.75594 0.87283 0.0
H519 H 0.29351 0.80337 0.9251 0.0
Gd520 Gd 0.59071 0.70984 0.88994 0.0
Gd521 Gd 0.63068 0.58317 0.89743 0.0
C522 C 0.67236 0.71032 0.88637 0.0
C523 C 0.56656 0.82278 0.88984 0.0
C524 C 0.57728 0.88782 0.89549 0.0
C525 C 0.55374 0.93633 0.89154 0.0
C526 C 0.61073 0.90238 0.90369 0.0
C527 C 0.59719 1.01387 0.90267 0.0
C528 C 0.6207 0.96496 0.90699 0.0
C529 C 0.56353 0.99876 0.89524 0.0
C530 C 0.59149 0.63103 0.8353 0.0
C531 C 0.54946 0.59184 0.91251 0.0
C532 C 0.65249 0.47244 0.882 0.0
C533 C 0.64524 0.40667 0.89111 0.0
C534 C 0.67182 0.36378 0.89498 0.0
C535 C 0.61191 0.38512 0.89359 0.0
C536 C 0.63187 0.27787 0.90152 0.0
C537 C 0.60532 0.32151 0.89857 0.0
C538 C 0.66525 0.30009 0.90026 0.0
C539 C 0.62274 0.63386 0.96043 0.0
O540 O 0.64424 0.74191 0.89204 0.0
O541 O 0.67325 0.64836 0.88408 0.0
O542 O 0.57873 0.79517 0.86269 0.0
O543 O 0.56579 0.78602 0.91656 0.0
O544 O 0.56527 0.66318 0.84476 0.0
O545 O 0.61587 0.64339 0.85472 0.0
O546 O 0.57563 0.55659 0.90339 0.0
O547 O 0.55092 0.65329 0.9142 0.0
O548 O 0.667 0.50754 0.90505 0.0
O549 O 0.62883 0.50193 0.86511 0.0
O550 O 0.63869 0.58196 0.95431 0.0
O551 O 0.61224 0.65655 0.93258 0.0
H552 H 0.5278 0.92596 0.88516 0.0
H553 H 0.62909 0.86544 0.90733 0.0
H554 H 0.64673 0.97511 0.91305 0.0
H555 H 0.54491 1.03531 0.89139 0.0
H556 H 0.69771 0.37934 0.89321 0.0
H557 H 0.59086 0.41713 0.8907 0.0
H558 H 0.57931 0.30642 0.89888 0.0
H559 H 0.68636 0.26822 0.90303 0.0
Gd560 Gd 0.3768 0.70859 0.67327 0.0
Gd561 Gd 0.33693 0.58326 0.66627 0.0
C562 C 0.29526 0.71126 0.676 0.0
C563 C 0.40196 0.82038 0.67419 0.0
C564 C 0.39238 0.8864 0.66942 0.0
C565 C 0.41687 0.9327 0.67354 0.0
C566 C 0.35908 0.90407 0.66228 0.0
C567 C 0.37449 1.01447 0.66561 0.0
C568 C 0.35012 0.96755 0.66058 0.0
C569 C 0.40812 0.99602 0.67145 0.0
C570 C 0.37606 0.63013 0.72819 0.0
C571 C 0.41773 0.5907 0.64966 0.0
C572 C 0.31514 0.47319 0.6825 0.0
C573 C 0.3234 0.40735 0.67444 0.0
C574 C 0.29761 0.36279 0.67231 0.0
C575 C 0.3571 0.38756 0.67142 0.0
C576 C 0.33918 0.279 0.66692 0.0
C577 C 0.36489 0.32405 0.66786 0.0
C578 C 0.30541 0.29912 0.66839 0.0
C579 C 0.3442 0.63282 0.60298 0.0
O580 O 0.32346 0.74223 0.67048 0.0
O581 O 0.29431 0.64939 0.67878 0.0
O582 O 0.3895 0.79256 0.7011 0.0
O583 O 0.40206 0.78468 0.64709 0.0
O584 O 0.40249 0.66051 0.71807 0.0
O585 O 0.35159 0.64325 0.70895 0.0
O586 O 0.39194 0.5557 0.65969 0.0
O587 O 0.41594 0.65206 0.64779 0.0
O588 O 0.30129 0.50719 0.65844 0.0
O589 O 0.33795 0.50357 0.69984 0.0
O590 O 0.32831 0.58132 0.60962 0.0
O591 O 0.35508 0.65607 0.63052 0.0
H592 H 0.4428 0.91988 0.6788 0.0
H593 H 0.34001 0.86878 0.65854 0.0
H594 H 0.32396 0.97969 0.65622 0.0
H595 H 0.4278 1.03049 0.67457 0.0
H596 H 0.27147 0.37702 0.67465 0.0
H597 H 0.37751 0.42099 0.67276 0.0
H598 H 0.39112 0.31003 0.66631 0.0
H599 H 0.28508 0.26545 0.66787 0.0
Gd600 Gd 0.59061 0.36179 0.67368 0.0
Gd601 Gd 0.63006 0.48784 0.66528 0.0
C602 C 0.6721 0.36071 0.67633 0.0
C603 C 0.56667 0.24912 0.67505 0.0
C604 C 0.57726 0.18402 0.66887 0.0
C605 C 0.55368 0.1359 0.67269 0.0
C606 C 0.61065 0.16902 0.66023 0.0
C607 C 0.597 0.05782 0.66066 0.0
C608 C 0.62054 0.10634 0.65644 0.0
C609 C 0.56339 0.07339 0.66848 0.0
C610 C 0.59119 0.44172 0.72787 0.0
C611 C 0.54913 0.47884 0.64959 0.0
C612 C 0.65163 0.5985 0.6803 0.0
C613 C 0.64451 0.66428 0.67096 0.0
C614 C 0.67118 0.70658 0.6671 0.0
C615 C 0.61123 0.68649 0.66838 0.0
C616 C 0.6314 0.7933 0.66054 0.0
C617 C 0.60476 0.75022 0.66341 0.0
C618 C 0.66473 0.77038 0.6618 0.0
C619 C 0.62262 0.43612 0.6026 0.0
O620 O 0.64412 0.32929 0.67063 0.0
O621 O 0.67278 0.42262 0.67877 0.0
O622 O 0.57999 0.27665 0.70155 0.0
O623 O 0.56465 0.28582 0.64838 0.0
O624 O 0.56498 0.40993 0.71857 0.0
O625 O 0.61558 0.42866 0.70846 0.0
O626 O 0.57493 0.51441 0.65885 0.0
O627 O 0.55101 0.41741 0.64839 0.0
O628 O 0.66635 0.5629 0.65744 0.0
O629 O 0.62781 0.56963 0.69717 0.0
O630 O 0.63831 0.48812 0.60845 0.0
O631 O 0.61207 0.41378 0.63053 0.0
H632 H 0.52778 0.14664 0.67937 0.0
H633 H 0.62902 0.20568 0.65666 0.0
H634 H 0.64653 0.09582 0.65009 0.0
H635 H 0.54476 0.0371 0.67225 0.0
H636 H 0.69704 0.69047 0.66895 0.0
H637 H 0.59012 0.65492 0.67125 0.0
H638 H 0.57878 0.76586 0.66308 0.0
H639 H 0.68591 0.80181 0.65909 0.0
C640 C 0.20243 0.31703 0.17911 0.0
C641 C 0.20409 0.25105 0.17884 0.0
H642 H 0.22964 0.40348 0.179 0.0
C643 C 0.23573 0.22179 0.18045 0.0
H644 H 0.17841 0.34124 0.17819 0.0
C645 C 0.26509 0.25768 0.18093 0.0
C646 C 0.26346 0.32363 0.17993 0.0
H647 H 0.23791 0.17122 0.18041 0.0
H648 H 0.28912 0.23347 0.18142 0.0
C649 C 0.23179 0.35292 0.17972 0.0
C650 C 0.76504 0.75375 0.17607 0.0
C651 C 0.76358 0.81959 0.17849 0.0
H652 H 0.73761 0.66772 0.17351 0.0
C653 C 0.7321 0.84871 0.1824 0.0
H654 H 0.78892 0.72955 0.17336 0.0
C655 C 0.70268 0.81298 0.18266 0.0
C656 C 0.70405 0.74737 0.1789 0.0
H657 H 0.73007 0.89914 0.1846 0.0
H658 H 0.67881 0.83706 0.18548 0.0
C659 C 0.73561 0.71805 0.17629 0.0
C660 C 0.233 0.72285 0.37972 0.0
C661 C 0.26419 0.75129 0.38572 0.0
H662 H 0.1799 0.73545 0.37437 0.0
C663 C 0.26535 0.81681 0.39001 0.0
H664 H 0.23121 0.67272 0.37602 0.0
C665 C 0.23593 0.85282 0.38918 0.0
C666 C 0.20465 0.82411 0.38424 0.0
H667 H 0.28897 0.84053 0.39455 0.0
H668 H 0.23763 0.90285 0.39331 0.0
C669 C 0.20356 0.7589 0.37895 0.0
C670 C 0.73197 0.22344 0.37886 0.0
C671 C 0.76325 0.25215 0.3839 0.0
H672 H 0.67875 0.23565 0.37487 0.0
C673 C 0.76445 0.31779 0.38753 0.0
H674 H 0.73018 0.17319 0.37566 0.0
C675 C 0.73493 0.35361 0.38739 0.0
C676 C 0.70355 0.32463 0.38366 0.0
H677 H 0.78818 0.3417 0.39117 0.0
H678 H 0.7367 0.40373 0.39115 0.0
C679 C 0.70246 0.25934 0.37866 0.0
C680 C 0.73543 0.71758 0.88577 0.0
C681 C 0.70386 0.74691 0.88342 0.0
H682 H 0.78875 0.72905 0.88825 0.0
C683 C 0.70248 0.81254 0.87967 0.0
H684 H 0.73744 0.66724 0.88851 0.0
C685 C 0.7319 0.84827 0.87971 0.0
C686 C 0.7634 0.81913 0.88338 0.0
H687 H 0.6786 0.83664 0.87703 0.0
H688 H 0.72987 0.89871 0.87754 0.0
C689 C 0.76486 0.75327 0.88575 0.0
C690 C 0.23223 0.35097 0.88156 0.0
C691 C 0.26387 0.32163 0.88268 0.0
H692 H 0.17883 0.33939 0.88107 0.0
C693 C 0.26549 0.25567 0.88194 0.0
H694 H 0.23008 0.40154 0.88196 0.0
C695 C 0.23611 0.21983 0.88146 0.0
C696 C 0.20445 0.24917 0.88181 0.0
H697 H 0.28951 0.23142 0.8824 0.0
H698 H 0.23825 0.16926 0.88183 0.0
C699 C 0.20285 0.31514 0.88117 0.0
C700 C 0.7025 0.25845 0.683 0.0
C701 C 0.70369 0.32401 0.67909 0.0
H702 H 0.73015 0.17214 0.685 0.0
C703 C 0.73515 0.35318 0.67637 0.0
H704 H 0.67871 0.23452 0.68595 0.0
C705 C 0.76466 0.31733 0.67613 0.0
C706 C 0.76338 0.25151 0.67864 0.0
H707 H 0.73698 0.4035 0.67349 0.0
H708 H 0.78846 0.34139 0.67331 0.0
C709 C 0.73201 0.22255 0.68271 0.0
C710 C 0.2027 0.75489 0.67665 0.0
C711 C 0.20398 0.82085 0.67693 0.0
H712 H 0.23028 0.66851 0.67611 0.0
C713 C 0.23545 0.85008 0.67911 0.0
H714 H 0.17889 0.7306 0.67571 0.0
C715 C 0.26495 0.81421 0.67979 0.0
C716 C 0.26372 0.74834 0.67811 0.0
H717 H 0.23739 0.90064 0.67975 0.0
H718 H 0.28875 0.83839 0.68136 0.0
C719 C 0.23221 0.71905 0.67716 0.0
C720 C 0.12384 1.01007 0.29152 0.0
C721 C 0.09333 0.98802 0.30536 0.0
H722 H 0.14781 0.07087 0.25507 0.0
C723 C 0.06297 1.01192 0.29212 0.0
H724 H 0.14768 0.99249 0.30103 0.0
C725 C 0.06304 0.05723 0.26613 0.0
C726 C 0.09348 0.07932 0.25224 0.0
H727 H 0.03902 0.99606 0.30213 0.0
H728 H 0.03914 0.07472 0.25674 0.0
C729 C 0.12391 0.05491 0.26515 0.0
C730 C 0.90409 0.05652 0.29408 0.0
C731 C 0.8737 0.07932 0.30791 0.0
H732 H 0.92804 0.99556 0.25783 0.0
C733 C 0.84322 0.05664 0.29445 0.0
H734 H 0.92803 0.07274 0.30384 0.0
C735 C 0.84323 1.01272 0.26764 0.0
C736 C 0.87371 0.98968 0.25401 0.0
H737 H 0.81935 0.07323 0.30445 0.0
H738 H 0.81936 0.99644 0.25775 0.0
C739 C 0.9041 1.01206 0.26771 0.0
C740 C 0.84337 0.05629 0.76716 0.0
C741 C 0.87387 0.07903 0.75363 0.0
H742 H 0.81943 0.9959 0.80385 0.0
C743 C 0.90424 0.0561 0.76736 0.0
H744 H 0.81951 0.07297 0.75723 0.0
C745 C 0.90419 1.01143 0.79369 0.0
C746 C 0.87376 0.98899 0.80744 0.0
H747 H 0.92819 0.07235 0.75755 0.0
H748 H 0.92811 0.99481 0.80349 0.0
C749 C 0.84332 1.0122 0.79392 0.0
C750 C 0.12371 0.05233 0.79509 0.0
C751 C 0.09335 0.07741 0.8079 0.0
H752 H 0.14732 0.98927 0.75943 0.0
C753 C 0.06286 0.05576 0.79404 0.0
H754 H 0.14764 0.06792 0.80514 0.0
C755 C 0.06267 1.01027 0.76818 0.0
C756 C 0.09297 0.98575 0.75504 0.0
H757 H 0.03901 0.07376 0.80335 0.0
H758 H 0.03869 0.99481 0.75817 0.0
C759 C 0.12353 1.00732 0.76886 0.0
C760 C 0.62204 0.51386 0.29461 0.0
C761 C 0.5915 0.49109 0.30802 0.0
H762 H 0.64611 0.57594 0.25893 0.0
C763 C 0.56116 0.51493 0.29467 0.0
H764 H 0.64587 0.49638 0.3042 0.0
C765 C 0.5613 0.56071 0.26891 0.0
C766 C 0.59179 0.58338 0.25542 0.0
H767 H 0.53719 0.49855 0.30438 0.0
H768 H 0.53743 0.57801 0.25933 0.0
C769 C 0.62218 0.55941 0.26865 0.0
C770 C 0.34482 0.56518 0.29334 0.0
C771 C 0.37537 0.58719 0.30695 0.0
H772 H 0.3207 0.50456 0.25708 0.0
C773 C 0.40569 0.56346 0.29342 0.0
H774 H 0.321 0.58257 0.30309 0.0
C775 C 0.40551 0.51832 0.26737 0.0
C776 C 0.37501 0.49623 0.25374 0.0
H777 H 0.42967 0.57928 0.30325 0.0
H778 H 0.42937 0.5009 0.25776 0.0
C779 C 0.34464 0.52052 0.26694 0.0
C780 C 0.34497 0.51772 0.79737 0.0
C781 C 0.37533 0.4926 0.81004 0.0
H782 H 0.32129 0.58035 0.76158 0.0
C783 C 0.40579 0.51363 0.7957 0.0
H784 H 0.32105 0.5026 0.80778 0.0
C785 C 0.40594 0.55854 0.76948 0.0
C786 C 0.37562 0.58314 0.7565 0.0
H787 H 0.42966 0.49556 0.80488 0.0
H788 H 0.4299 0.57353 0.75909 0.0
C789 C 0.34511 0.56222 0.77085 0.0
C790 C 0.62207 0.55908 0.7943 0.0
C791 C 0.59165 0.58273 0.80772 0.0
H792 H 0.64584 0.4962 0.75872 0.0
C793 C 0.56119 0.55955 0.79458 0.0
H794 H 0.64598 0.576 0.80375 0.0
C795 C 0.56111 0.51353 0.76898 0.0
C796 C 0.59149 0.49002 0.75544 0.0
H797 H 0.5373 0.57659 0.80433 0.0
H798 H 0.53716 0.49673 0.75954 0.0
C799 C 0.62199 0.51337 0.76848 0.0
C800 C 0.09631 0.17416 1.01196 0.0
C801 C 0.12668 0.18083 0.99364 0.0
H802 H 0.07304 0.16504 0.06141 0.0
C803 C 0.15636 0.19274 1.01196 0.0
H804 H 0.07303 0.1646 0.99863 0.0
C805 C 0.15636 0.19298 0.04759 0.0
C806 C 0.12669 0.18134 0.06609 0.0
H807 H 0.18012 0.19842 0.99869 0.0
H808 H 0.18013 0.19885 0.06073 0.0
C809 C 0.09632 0.17442 0.04793 0.0
C810 C 0.81143 0.87943 1.01312 0.0
C811 C 0.84112 0.8909 0.99461 0.0
H812 H 0.78767 0.874 0.06201 0.0
C813 C 0.8715 0.89773 1.01277 0.0
H814 H 0.78766 0.87364 0.99998 0.0
C815 C 0.87151 0.89791 0.04876 0.0
C816 C 0.84114 0.8913 0.06708 0.0
H817 H 0.89479 0.90697 0.99929 0.0
H818 H 0.89481 0.9073 0.06209 0.0
C819 C 0.81144 0.87964 0.04875 0.0
C820 C 0.14987 0.90278 0.51217 0.0
C821 C 0.11986 0.91208 0.49394 0.0
H822 H 0.17387 0.90097 0.56098 0.0
C823 C 0.08933 0.91525 0.51221 0.0
H824 H 0.17382 0.90171 0.49887 0.0
C825 C 0.08935 0.9148 0.5482 0.0
C826 C 0.11991 0.91121 0.56628 0.0
H827 H 0.06595 0.92451 0.49889 0.0
H828 H 0.06599 0.92375 0.5617 0.0
C829 C 0.14989 0.90234 0.54783 0.0
C830 C 0.81101 0.19334 0.54874 0.0
C831 C 0.84074 0.18147 0.56707 0.0
H832 H 0.78719 0.19924 0.49996 0.0
C833 C 0.87113 0.17463 0.54876 0.0
H834 H 0.78723 0.19915 0.562 0.0
C835 C 0.87111 0.1747 0.51279 0.0
C836 C 0.84071 0.18159 0.49463 0.0
H837 H 0.89445 0.16509 0.5621 0.0
H838 H 0.89442 0.1652 0.49933 0.0
C839 C 0.81099 0.1934 0.5131 0.0
C840 C 0.65003 0.66903 0.04918 0.0
C841 C 0.62007 0.6602 0.0676 0.0
H842 H 0.67396 0.66987 1.00024 0.0
C843 C 0.58951 0.65714 0.04953 0.0
H844 H 0.67401 0.67002 0.06235 0.0
C845 C 0.58948 0.65705 1.01355 0.0
C846 C 0.62001 0.66002 0.99531 0.0
H847 H 0.56617 0.64826 0.06302 0.0
H848 H 0.56612 0.6481 1.00022 0.0
C849 C 0.65 0.66895 1.01354 0.0
C850 C 0.37094 0.39677 1.01413 0.0
C851 C 0.34053 0.39062 0.99597 0.0
H852 H 0.39429 0.40611 0.06342 0.0
C853 C 0.31075 0.37979 1.01446 0.0
H854 H 0.3943 0.40547 1.00066 0.0
C855 C 0.31075 0.38017 0.05009 0.0
C856 C 0.34051 0.39135 0.06839 0.0
H857 H 0.28695 0.37451 1.00131 0.0
H858 H 0.28693 0.37517 0.06336 0.0
C859 C 0.37093 0.39713 0.05009 0.0
C860 C 0.58919 0.41409 0.51375 0.0
C861 C 0.61971 0.41037 0.49552 0.0
H862 H 0.5659 0.42342 0.56319 0.0
C863 C 0.64967 0.40047 0.51374 0.0
H864 H 0.56586 0.4238 0.50041 0.0
C865 C 0.64969 0.40023 0.54939 0.0
C866 C 0.61975 0.40989 0.56779 0.0
H867 H 0.67362 0.39896 0.50045 0.0
H868 H 0.67366 0.39857 0.56256 0.0
C869 C 0.58921 0.41386 0.54972 0.0
C870 C 0.31602 0.66424 0.54963 0.0
C871 C 0.34625 0.65831 0.56787 0.0
H872 H 0.29196 0.66299 0.50087 0.0
C873 C 0.37683 0.65808 0.54961 0.0
H874 H 0.29207 0.66315 0.56294 0.0
C875 C 0.37677 0.65803 0.51361 0.0
C876 C 0.34613 0.65813 0.49558 0.0
H877 H 0.40046 0.65153 0.56296 0.0
H878 H 0.40036 0.65153 0.5001 0.0
C879 C 0.31595 0.6641 0.51401 0.0
C880 C 0.95449 0.07274 0.14675 0.0
C881 C 0.95192 1.00734 0.14731 0.0
H882 H -0.01279 0.1517 0.14672 0.0
C883 C 0.98152 0.97077 0.1463 0.0
H884 H 0.93217 0.10211 0.1474 0.0
C885 C 0.01312 0.99907 0.14624 0.0
C886 C 0.0157 0.06446 0.1468 0.0
H887 H 0.98041 0.92011 0.14669 0.0
H888 H 0.03544 0.96969 0.14651 0.0
C889 C -0.01391 0.10104 0.1463 0.0
C890 C 0.95529 0.99973 0.41559 0.0
C891 C 0.95203 0.06505 0.41556 0.0
H892 H -0.01115 0.92154 0.41455 0.0
C893 C 0.98122 0.10223 0.4171 0.0
H894 H 0.93329 0.96993 0.4146 0.0
C895 C 0.0131 0.07467 0.41676 0.0
C896 C 0.01639 1.00941 0.41526 0.0
H897 H 0.97958 0.15287 0.41726 0.0
H898 H 0.03509 0.10456 0.41672 0.0
C899 C -0.01281 0.97213 0.41565 0.0
C900 C -0.01385 0.10007 0.91409 0.0
C901 C 0.0157 0.06332 0.91358 0.0
H902 H 0.93222 0.1014 0.91327 0.0
C903 C 0.01302 0.99795 0.91437 0.0
H904 H -0.01266 0.15071 0.91349 0.0
C905 C 0.98139 0.96983 0.91458 0.0
C906 C 0.95184 1.00655 0.9136 0.0
H907 H 0.03531 0.96846 0.91409 0.0
H908 H 0.98021 0.91918 0.91437 0.0
C909 C 0.9545 0.07193 0.91391 0.0
C910 C 0.98127 0.10113 0.64423 0.0
C911 C 0.95203 0.06407 0.64572 0.0
H912 H 0.03514 0.1032 0.64439 0.0
C913 C 0.9552 0.99873 0.64539 0.0
H914 H 0.9797 0.15178 0.64431 0.0
C915 C -0.01294 0.97099 0.64505 0.0
C916 C 0.01632 1.00812 0.64546 0.0
H917 H 0.93315 0.96902 0.64635 0.0
H918 H -0.01135 0.92037 0.64592 0.0
C919 C 0.01311 0.07342 0.6443 0.0
C920 C 0.48142 0.47071 0.1445 0.0
C921 C 0.45213 0.50809 0.14606 0.0
H922 H 0.5353 0.46804 0.14468 0.0
C923 C 0.45523 0.5734 0.14579 0.0
H924 H 0.47991 0.42009 0.14453 0.0
C925 C 0.48707 0.6008 0.1455 0.0
C926 C 0.51638 0.56334 0.1459 0.0
H927 H 0.43315 0.60337 0.14679 0.0
H928 H 0.48859 0.65139 0.14645 0.0
C929 C 0.51324 0.49808 0.14462 0.0
C930 C 0.48024 0.60186 0.42074 0.0
C931 C 0.45122 0.56423 0.41892 0.0
H932 H 0.53411 0.60497 0.42056 0.0
C933 C 0.45477 0.49896 0.41937 0.0
H934 H 0.47841 0.65247 0.42061 0.0
C935 C 0.48679 0.47186 0.41972 0.0
C936 C 0.51584 0.50957 0.41918 0.0
H937 H 0.43292 0.46879 0.41828 0.0
H938 H 0.48864 0.42128 0.41875 0.0
C939 C 0.51225 0.57477 0.42064 0.0
C940 C 0.45508 0.57235 0.9175 0.0
C941 C 0.45208 0.50702 0.91756 0.0
H942 H 0.48832 0.65049 0.91645 0.0
C943 C 0.48142 0.46981 0.91929 0.0
H944 H 0.43296 0.60219 0.91636 0.0
C945 C 0.51319 0.49734 0.91903 0.0
C946 C 0.51624 0.5626 0.91743 0.0
H947 H 0.47999 0.41918 0.91952 0.0
H948 H 0.5353 0.46742 0.91912 0.0
C949 C 0.48687 0.59991 0.91764 0.0
C950 C 0.47999 0.59954 0.64244 0.0
C951 C 0.45104 0.56169 0.64413 0.0
H952 H 0.53385 0.60305 0.64287 0.0
C953 C 0.45473 0.49646 0.64364 0.0
H954 H 0.47806 0.65014 0.64261 0.0
C955 C 0.4868 0.46959 0.64341 0.0
C956 C 0.51576 0.50751 0.64411 0.0
H957 H 0.43294 0.46613 0.64463 0.0
H958 H 0.48875 0.41902 0.64435 0.0
C959 C 0.51206 0.57269 0.64266 0.0
C960 C 0.12133 0.67649 0.13686 0.0
C961 C 0.11871 0.71514 0.1658 0.0
H962 H 0.11592 0.58449 0.1159 0.0
C963 C 0.10863 0.68776 0.19678 0.0
H964 H 0.12849 0.69594 0.11243 0.0
C965 C 0.10143 0.62364 0.19877 0.0
C966 C 0.10408 0.585 0.16983 0.0
H967 H 0.10687 0.71565 0.21974 0.0
H968 H 0.09422 0.60416 0.22318 0.0
C969 C 0.11416 0.61239 0.13886 0.0
C970 C 0.8231 0.40178 0.17156 0.0
C971 C 0.84864 0.3563 0.16762 0.0
H972 H 0.81057 0.4991 0.17643 0.0
C973 C 0.88223 0.37674 0.16519 0.0
H974 H 0.79698 0.388 0.17412 0.0
C975 C 0.89002 0.44065 0.16658 0.0
C976 C 0.86447 0.48611 0.17044 0.0
H977 H 0.90256 0.3434 0.16159 0.0
H978 H 0.91613 0.45448 0.16404 0.0
C979 C 0.83089 0.4657 0.17289 0.0
C980 C 0.09766 0.38384 0.42072 0.0
C981 C 0.12569 0.36188 0.40214 0.0
H982 H 0.06723 0.4627 0.43503 0.0
C983 C 0.14582 0.40583 0.38482 0.0
H984 H 0.08197 0.35179 0.435 0.0
C985 C 0.13757 0.46962 0.38528 0.0
C986 C 0.10883 0.491 0.40279 0.0
H987 H 0.1673 0.39084 0.36982 0.0
H988 H 0.15298 0.50193 0.37083 0.0
C989 C 0.08924 0.4475 0.42087 0.0
C990 C 0.85499 0.61239 0.42172 0.0
C991 C 0.86358 0.58462 0.39039 0.0
H992 H 0.84192 0.69639 0.44851 0.0
C993 C 0.86487 0.62299 0.36122 0.0
H994 H 0.85431 0.58469 0.44483 0.0
C995 C 0.8578 0.68724 0.36334 0.0
C996 C 0.84921 0.71501 0.39468 0.0
H997 H 0.8709 0.60321 0.33655 0.0
H998 H 0.85848 0.71495 0.34024 0.0
C999 C 0.84793 0.67663 0.42384 0.0
C1000 C 0.84295 0.3951 0.92274 0.0
C1001 C 0.84897 0.35546 0.89472 0.0
H1002 H 0.84597 0.48775 0.94334 0.0
C1003 C 0.86267 0.38177 0.86492 0.0
H1004 H 0.83289 0.37648 0.94631 0.0
C1005 C 0.87007 0.44584 0.86316 0.0
C1006 C 0.86407 0.48551 0.8912 0.0
H1007 H 0.86714 0.35305 0.84263 0.0
H1008 H 0.88006 0.46443 0.83957 0.0
C1009 C 0.85039 0.45914 0.92101 0.0
C1010 C 0.11722 0.6095 0.92012 0.0
C1011 C 0.10381 0.5836 0.89015 0.0
H1012 H 0.13438 0.69177 0.94583 0.0
C1013 C 0.09798 0.6237 0.86224 0.0
H1014 H 0.1215 0.5805 0.94235 0.0
C1015 C 0.10532 0.68777 0.86427 0.0
C1016 C 0.11876 0.71363 0.89424 0.0
H1017 H 0.08816 0.60546 0.83855 0.0
H1018 H 0.10102 0.71682 0.84207 0.0
C1019 C 0.12456 0.67353 0.92214 0.0
C1020 C 0.82319 0.66945 0.67119 0.0
C1021 C 0.84878 0.71439 0.66709 0.0
H1022 H 0.81056 0.57244 0.67642 0.0
C1023 C 0.88235 0.69328 0.66474 0.0
H1024 H 0.79709 0.68377 0.6737 0.0
C1025 C 0.89007 0.62924 0.66636 0.0
C1026 C 0.86447 0.58433 0.67039 0.0
H1027 H 0.90271 0.7262 0.66102 0.0
H1028 H 0.91616 0.61487 0.66388 0.0
C1029 C 0.83091 0.6054 0.67276 0.0
C1030 C 0.09432 0.38116 0.64178 0.0
C1031 C 0.12392 0.35975 0.65784 0.0
H1032 H 0.06268 0.45957 0.62958 0.0
C1033 C 0.14555 0.40431 0.67253 0.0
H1034 H 0.0774 0.34868 0.62947 0.0
C1035 C 0.1373 0.46814 0.67205 0.0
C1036 C 0.10707 0.48893 0.6572 0.0
H1037 H 0.16832 0.38984 0.68555 0.0
H1038 H 0.15397 0.50096 0.68449 0.0
C1039 C 0.08591 0.44483 0.64168 0.0
C1040 C 0.63702 0.1019 0.17493 0.0
C1041 C 0.60784 0.08121 0.15822 0.0
H1042 H 0.66717 0.18 0.18975 0.0
C1043 C 0.58781 0.12526 0.14088 0.0
H1044 H 0.65278 0.06917 0.18881 0.0
C1045 C 0.59626 0.18877 0.14099 0.0
C1046 C 0.62477 0.21006 0.15879 0.0
H1047 H 0.56544 0.11061 0.12733 0.0
H1048 H 0.58022 0.22125 0.12729 0.0
C1049 C 0.6453 0.16556 0.17535 0.0
C1050 C 0.32355 0.90455 0.17279 0.0
C1051 C 0.34917 0.85924 0.1688 0.0
H1052 H 0.31088 1.00171 0.17804 0.0
C1053 C 0.38275 0.8798 0.1667 0.0
H1054 H 0.29744 0.89062 0.1751 0.0
C1055 C 0.39046 0.94373 0.16837 0.0
C1056 C 0.36483 0.98905 0.17226 0.0
H1057 H 0.40312 0.84656 0.1631 0.0
H1058 H 0.41657 0.95766 0.16602 0.0
C1059 C 0.33126 0.96847 0.17446 0.0
C1060 C 0.58447 0.9465 0.37935 0.0
C1061 C 0.6023 0.98945 0.39956 0.0
H1062 H 0.57878 0.85139 0.36341 0.0
C1063 C 0.62907 0.96697 0.41974 0.0
H1064 H 0.5643 0.96203 0.3628 0.0
C1065 C 0.63767 0.90324 0.4197 0.0
C1066 C 0.61948 0.86053 0.39976 0.0
H1067 H 0.64314 0.9984 0.43593 0.0
H1068 H 0.65823 0.88723 0.43562 0.0
C1069 C 0.59283 0.88294 0.3796 0.0
C1070 C 0.38263 0.13023 0.40182 0.0
C1071 C 0.35728 0.08442 0.40316 0.0
H1072 H 0.39458 0.22766 0.39914 0.0
C1073 C 0.32343 0.10417 0.4045 0.0
H1074 H 0.40894 0.11692 0.40012 0.0
C1075 C 0.31516 0.168 0.4039 0.0
C1076 C 0.34053 0.2137 0.40197 0.0
H1077 H 0.30325 0.0703 0.40606 0.0
H1078 H 0.28884 0.18153 0.40492 0.0
C1079 C 0.37438 0.19394 0.40126 0.0
C1080 C 0.34279 0.8973 0.9245 0.0
C1081 C 0.34967 0.85705 0.89693 0.0
H1082 H 0.34504 0.99044 0.94455 0.0
C1083 C 0.36426 0.88275 0.86739 0.0
H1084 H 0.33206 0.87918 0.94788 0.0
C1085 C 0.37164 0.94681 0.86545 0.0
C1086 C 0.36472 0.98708 0.89302 0.0
H1087 H 0.36941 0.85357 0.84544 0.0
H1088 H 0.38234 0.96493 0.84207 0.0
C1089 C 0.35019 0.96132 0.92257 0.0
C1090 C 0.59618 0.18799 0.92229 0.0
C1091 C 0.62461 0.20943 0.90428 0.0
H1092 H 0.56543 0.10971 0.9361 0.0
C1093 C 0.64506 0.16506 0.88746 0.0
H1094 H 0.58022 0.22036 0.93619 0.0
C1095 C 0.63677 0.1014 0.88786 0.0
C1096 C 0.60767 0.08056 0.9048 0.0
H1097 H 0.66685 0.17962 0.87289 0.0
H1098 H 0.65246 0.06879 0.8738 0.0
C1099 C 0.58773 0.12447 0.92238 0.0
C1100 C 0.38092 0.12394 0.68826 0.0
C1101 C 0.36499 0.08224 0.66575 0.0
H1102 H 0.38523 0.2181 0.70622 0.0
C1103 C 0.34 0.10599 0.64375 0.0
H1104 H 0.3996 0.10742 0.70625 0.0
C1105 C 0.33138 0.16972 0.64416 0.0
C1106 C 0.34782 0.21121 0.6663 0.0
H1107 H 0.32741 0.0756 0.6258 0.0
H1108 H 0.31228 0.18675 0.62675 0.0
C1109 C 0.3726 0.18752 0.68837 0.0
C1110 C 0.5959 0.88415 0.64012 0.0
C1111 C 0.62426 0.8619 0.65801 0.0
H1112 H 0.56523 0.96325 0.62676 0.0
C1113 C 0.64471 0.90559 0.675 0.0
H1114 H 0.57994 0.85231 0.6261 0.0
C1115 C 0.63648 0.96939 0.67491 0.0
C1116 C 0.60744 0.99103 0.65812 0.0
H1117 H 0.66644 0.89039 0.68949 0.0
H1118 H 0.65216 1.00148 0.68911 0.0
C1119 C 0.5875 0.94782 0.64036 0.0
loop_
_geom_bond_atom_site_label_1
_geom_bond_atom_site_label_2
_geom_bond_distance
_geom_bond_site_symmetry_2
_ccdc_geom_bond_type
Gd0 C3 2.818 1_545 S
Gd0 O20 2.377 . S
Gd0 O22 2.448 1_545 S
Gd0 O23 2.506 1_545 S
Gd0 O24 2.435 . S
Gd0 O25 2.717 . S
Gd0 O27 2.395 . S
Gd0 O31 2.327 . S
Gd1 C12 2.818 . S
Gd1 O21 2.395 . S
Gd1 O25 2.327 . S
Gd1 O26 2.377 . S
Gd1 O28 2.448 . S
Gd1 O29 2.506 . S
Gd1 O30 2.435 . S
Gd1 O31 2.717 . S
C2 O20 1.240 . S
C2 O21 1.240 . S
C3 Gd0 2.818 1_565 S
C3 C4 1.510 . S
C3 O22 1.249 . S
C3 O23 1.252 . S
C4 C3 1.510 . S
C4 C5 1.404 . S
C4 C6 1.352 . S
C5 C4 1.404 . S
C5 C9 1.389 . S
C5 H32 0.930 . S
C6 C4 1.352 . S
C6 C8 1.374 . S
C6 H33 0.931 . S
C7 C8 1.359 . S
C7 C9 1.364 . S
C8 C6 1.374 . S
C8 C7 1.359 . S
C8 H34 0.931 . S
C9 C5 1.389 . S
C9 C7 1.364 . S
C9 H35 0.931 . S
C10 O24 1.256 . S
C10 O25 1.257 . S
C11 O26 1.240 . S
C11 O27 1.240 . S
C12 Gd1 2.818 . S
C12 C13 1.510 . S
C12 O28 1.249 . S
C12 O29 1.252 . S
C13 C12 1.510 . S
C13 C14 1.404 . S
C13 C15 1.352 . S
C14 C13 1.404 . S
C14 C18 1.389 . S
C14 H36 0.930 . S
C15 C13 1.352 . S
C15 C17 1.374 . S
C15 H37 0.931 . S
C16 C17 1.359 . S
C16 C18 1.364 . S
C17 C15 1.374 . S
C17 C16 1.359 . S
C17 H38 0.931 . S
C18 C14 1.389 . S
C18 C16 1.364 . S
C18 H39 0.931 . S
C19 O30 1.256 . S
C19 O31 1.257 . S
O20 Gd0 2.377 . S
O20 C2 1.240 . S
O21 Gd1 2.395 . S
O21 C2 1.240 . S
O22 Gd0 2.448 1_565 S
O22 C3 1.249 . S
O23 Gd0 2.506 1_565 S
O23 C3 1.252 . S
O24 Gd0 2.435 . S
O24 C10 1.256 . S
O25 Gd0 2.717 . S
O25 Gd1 2.327 . S
O25 C10 1.257 . S
O26 Gd1 2.377 . S
O26 C11 1.240 . S
O27 Gd0 2.395 . S
O27 C11 1.240 . S
O28 Gd1 2.448 . S
O28 C12 1.249 . S
O29 Gd1 2.506 . S
O29 C12 1.252 . S
O30 Gd1 2.435 . S
O30 C19 1.256 . S
O31 Gd0 2.327 . S
O31 Gd1 2.717 . S
O31 C19 1.257 . S
H32 C5 0.930 . S
H33 C6 0.931 . S
H34 C8 0.931 . S
H35 C9 0.931 . S
H36 C14 0.930 . S
H37 C15 0.931 . S
H38 C17 0.931 . S
H39 C18 0.931 . S
Gd40 C43 2.818 1_565 S
Gd40 O60 2.377 . S
Gd40 O62 2.448 1_565 S
Gd40 O63 2.506 1_565 S
Gd40 O64 2.435 . S
Gd40 O65 2.717 . S
Gd40 O67 2.395 . S
Gd40 O71 2.327 . S
Gd41 C52 2.818 . S
Gd41 O61 2.395 . S
Gd41 O65 2.327 . S
Gd41 O66 2.377 . S
Gd41 O68 2.448 . S
Gd41 O69 2.506 . S
Gd41 O70 2.435 . S
Gd41 O71 2.717 . S
C42 O60 1.240 . S
C42 O61 1.240 . S
C43 Gd40 2.818 1_545 S
C43 C44 1.510 . S
C43 O62 1.249 . S
C43 O63 1.252 . S
C44 C43 1.510 . S
C44 C45 1.404 . S
C44 C46 1.352 . S
C45 C44 1.404 . S
C45 C49 1.389 . S
C45 H72 0.930 . S
C46 C44 1.352 . S
C46 C48 1.374 . S
C46 H73 0.931 . S
C47 C48 1.359 . S
C47 C49 1.364 . S
C48 C46 1.374 . S
C48 C47 1.359 . S
C48 H74 0.931 . S
C49 C45 1.389 . S
C49 C47 1.364 . S
C49 H75 0.931 . S
C50 O64 1.256 . S
C50 O65 1.257 . S
C51 O66 1.240 . S
C51 O67 1.240 . S
C52 Gd41 2.818 . S
C52 C53 1.510 . S
C52 O68 1.249 . S
C52 O69 1.252 . S
C53 C52 1.510 . S
C53 C54 1.404 . S
C53 C55 1.352 . S
C54 C53 1.404 . S
C54 C58 1.389 . S
C54 H76 0.930 . S
C55 C53 1.352 . S
C55 C57 1.374 . S
C55 H77 0.931 . S
C56 C57 1.359 . S
C56 C58 1.364 . S
C57 C55 1.374 . S
C57 C56 1.359 . S
C57 H78 0.931 . S
C58 C54 1.389 . S
C58 C56 1.364 . S
C58 H79 0.931 . S
C59 O70 1.256 . S
C59 O71 1.257 . S
O60 Gd40 2.377 . S
O60 C42 1.240 . S
O61 Gd41 2.395 . S
O61 C42 1.240 . S
O62 Gd40 2.448 1_545 S
O62 C43 1.249 . S
O63 Gd40 2.506 1_545 S
O63 C43 1.252 . S
O64 Gd40 2.435 . S
O64 C50 1.256 . S
O65 Gd40 2.717 . S
O65 Gd41 2.327 . S
O65 C50 1.257 . S
O66 Gd41 2.377 . S
O66 C51 1.240 . S
O67 Gd40 2.395 . S
O67 C51 1.240 . S
O68 Gd41 2.448 . S
O68 C52 1.249 . S
O69 Gd41 2.506 . S
O69 C52 1.252 . S
O70 Gd41 2.435 . S
O70 C59 1.256 . S
O71 Gd40 2.327 . S
O71 Gd41 2.717 . S
O71 C59 1.257 . S
H72 C45 0.930 . S
H73 C46 0.931 . S
H74 C48 0.931 . S
H75 C49 0.931 . S
H76 C54 0.930 . S
H77 C55 0.931 . S
H78 C57 0.931 . S
H79 C58 0.931 . S
Gd80 C83 2.818 1_565 S
Gd80 O100 2.377 . S
Gd80 O102 2.448 1_565 S
Gd80 O103 2.506 1_565 S
Gd80 O104 2.435 . S
Gd80 O105 2.717 . S
Gd80 O107 2.395 . S
Gd80 O111 2.327 . S
Gd81 C92 2.818 . S
Gd81 O101 2.395 . S
Gd81 O105 2.327 . S
Gd81 O106 2.377 . S
Gd81 O108 2.448 . S
Gd81 O109 2.506 . S
Gd81 O110 2.435 . S
Gd81 O111 2.717 . S
C82 O100 1.240 . S
C82 O101 1.240 . S
C83 Gd80 2.818 1_545 S
C83 C84 1.510 . S
C83 O102 1.249 . S
C83 O103 1.252 . S
C84 C83 1.510 . S
C84 C85 1.404 . S
C84 C86 1.352 . S
C85 C84 1.404 . S
C85 C89 1.389 . S
C85 H112 0.930 . S
C86 C84 1.352 . S
C86 C88 1.374 . S
C86 H113 0.931 . S
C87 C88 1.359 . S
C87 C89 1.364 . S
C88 C86 1.374 . S
C88 C87 1.359 . S
C88 H114 0.931 . S
C89 C85 1.389 . S
C89 C87 1.364 . S
C89 H115 0.931 . S
C90 O104 1.256 . S
C90 O105 1.257 . S
C91 O106 1.240 . S
C91 O107 1.240 . S
C92 Gd81 2.818 . S
C92 C93 1.510 . S
C92 O108 1.249 . S
C92 O109 1.252 . S
C93 C92 1.510 . S
C93 C94 1.404 . S
C93 C95 1.352 . S
C94 C93 1.404 . S
C94 C98 1.389 . S
C94 H116 0.930 . S
C95 C93 1.352 . S
C95 C97 1.374 . S
C95 H117 0.931 . S
C96 C97 1.359 . S
C96 C98 1.364 . S
C97 C95 1.374 . S
C97 C96 1.359 . S
C97 H118 0.931 . S
C98 C94 1.389 . S
C98 C96 1.364 . S
C98 H119 0.931 . S
C99 O110 1.256 . S
C99 O111 1.257 . S
O100 Gd80 2.377 . S
O100 C82 1.240 . S
O101 Gd81 2.395 . S
O101 C82 1.240 . S
O102 Gd80 2.448 1_545 S
O102 C83 1.249 . S
O103 Gd80 2.506 1_545 S
O103 C83 1.252 . S
O104 Gd80 2.435 . S
O104 C90 1.256 . S
O105 Gd80 2.717 . S
O105 Gd81 2.327 . S
O105 C90 1.257 . S
O106 Gd81 2.377 . S
O106 C91 1.240 . S
O107 Gd80 2.395 . S
O107 C91 1.240 . S
O108 Gd81 2.448 . S
O108 C92 1.249 . S
O109 Gd81 2.506 . S
O109 C92 1.252 . S
O110 Gd81 2.435 . S
O110 C99 1.256 . S
O111 Gd80 2.327 . S
O111 Gd81 2.717 . S
O111 C99 1.257 . S
H112 C85 0.930 . S
H113 C86 0.931 . S
H114 C88 0.931 . S
H115 C89 0.931 . S
H116 C94 0.930 . S
H117 C95 0.931 . S
H118 C97 0.931 . S
H119 C98 0.931 . S
Gd120 C123 2.818 1_545 S
Gd120 O140 2.377 . S
Gd120 O142 2.448 1_545 S
Gd120 O143 2.506 1_545 S
Gd120 O144 2.435 . S
Gd120 O145 2.717 . S
Gd120 O147 2.395 . S
Gd120 O151 2.327 . S
Gd121 C132 2.818 . S
Gd121 O141 2.395 . S
Gd121 O145 2.327 . S
Gd121 O146 2.377 . S
Gd121 O148 2.448 . S
Gd121 O149 2.506 . S
Gd121 O150 2.435 . S
Gd121 O151 2.717 . S
C122 O140 1.240 . S
C122 O141 1.240 . S
C123 Gd120 2.818 1_565 S
C123 C124 1.510 . S
C123 O142 1.249 . S
C123 O143 1.252 . S
C124 C123 1.510 . S
C124 C125 1.404 . S
C124 C126 1.352 . S
C125 C124 1.404 . S
C125 C129 1.389 . S
C125 H152 0.930 . S
C126 C124 1.352 . S
C126 C128 1.374 . S
C126 H153 0.931 . S
C127 C128 1.359 . S
C127 C129 1.364 . S
C128 C126 1.374 . S
C128 C127 1.359 . S
C128 H154 0.931 . S
C129 C125 1.389 . S
C129 C127 1.364 . S
C129 H155 0.931 . S
C130 O144 1.256 . S
C130 O145 1.257 . S
C131 O146 1.240 . S
C131 O147 1.240 . S
C132 Gd121 2.818 . S
C132 C133 1.510 . S
C132 O148 1.249 . S
C132 O149 1.252 . S
C133 C132 1.510 . S
C133 C134 1.404 . S
C133 C135 1.352 . S
C134 C133 1.404 . S
C134 C138 1.389 . S
C134 H156 0.930 . S
C135 C133 1.352 . S
C135 C137 1.374 . S
C135 H157 0.931 . S
C136 C137 1.359 . S
C136 C138 1.364 . S
C137 C135 1.374 . S
C137 C136 1.359 . S
C137 H158 0.931 . S
C138 C134 1.389 . S
C138 C136 1.364 . S
C138 H159 0.931 . S
C139 O150 1.256 . S
C139 O151 1.257 . S
O140 Gd120 2.377 . S
O140 C122 1.240 . S
O141 Gd121 2.395 . S
O141 C122 1.240 . S
O142 Gd120 2.448 1_565 S
O142 C123 1.249 . S
O143 Gd120 2.506 1_565 S
O143 C123 1.252 . S
O144 Gd120 2.435 . S
O144 C130 1.256 . S
O145 Gd120 2.717 . S
O145 Gd121 2.327 . S
O145 C130 1.257 . S
O146 Gd121 2.377 . S
O146 C131 1.240 . S
O147 Gd120 2.395 . S
O147 C131 1.240 . S
O148 Gd121 2.448 . S
O148 C132 1.249 . S
O149 Gd121 2.506 . S
O149 C132 1.252 . S
O150 Gd121 2.435 . S
O150 C139 1.256 . S
O151 Gd120 2.327 . S
O151 Gd121 2.717 . S
O151 C139 1.257 . S
H152 C125 0.930 . S
H153 C126 0.931 . S
H154 C128 0.931 . S
H155 C129 0.931 . S
H156 C134 0.930 . S
H157 C135 0.931 . S
H158 C137 0.931 . S
H159 C138 0.931 . S
Gd160 C163 2.818 . S
Gd160 O180 2.377 . S
Gd160 O182 2.448 . S
Gd160 O183 2.506 . S
Gd160 O184 2.435 . S
Gd160 O185 2.717 . S
Gd160 O187 2.395 . S
Gd160 O191 2.327 . S
Gd161 C172 2.818 1_565 S
Gd161 O181 2.395 . S
Gd161 O185 2.327 . S
Gd161 O186 2.377 . S
Gd161 O188 2.448 1_565 S
Gd161 O189 2.506 1_565 S
Gd161 O190 2.435 . S
Gd161 O191 2.717 . S
C162 O180 1.240 . S
C162 O181 1.240 . S
C163 Gd160 2.818 . S
C163 C164 1.510 . S
C163 O182 1.249 . S
C163 O183 1.252 . S
C164 C163 1.510 . S
C164 C165 1.404 . S
C164 C166 1.352 . S
C165 C164 1.404 . S
C165 C169 1.389 . S
C165 H192 0.930 . S
C166 C164 1.352 . S
C166 C168 1.374 . S
C166 H193 0.931 . S
C167 C168 1.359 . S
C167 C169 1.364 . S
C168 C166 1.374 . S
C168 C167 1.359 . S
C168 H194 0.931 . S
C169 C165 1.389 . S
C169 C167 1.364 . S
C169 H195 0.931 . S
C170 O184 1.256 . S
C170 O185 1.257 . S
C171 O186 1.240 . S
C171 O187 1.240 . S
C172 Gd161 2.818 1_545 S
C172 C173 1.510 . S
C172 O188 1.249 . S
C172 O189 1.252 . S
C173 C172 1.510 . S
C173 C174 1.404 . S
C173 C175 1.352 . S
C174 C173 1.404 . S
C174 C178 1.389 . S
C174 H196 0.930 . S
C175 C173 1.352 . S
C175 C177 1.374 . S
C175 H197 0.931 . S
C176 C177 1.359 . S
C176 C178 1.364 . S
C177 C175 1.374 . S
C177 C176 1.359 . S
C177 H198 0.931 . S
C178 C174 1.389 . S
C178 C176 1.364 . S
C178 H199 0.931 . S
C179 O190 1.256 . S
C179 O191 1.257 . S
O180 Gd160 2.377 . S
O180 C162 1.240 . S
O181 Gd161 2.395 . S
O181 C162 1.240 . S
O182 Gd160 2.448 . S
O182 C163 1.249 . S
O183 Gd160 2.506 . S
O183 C163 1.252 . S
O184 Gd160 2.435 . S
O184 C170 1.256 . S
O185 Gd160 2.717 . S
O185 Gd161 2.327 . S
O185 C170 1.257 . S
O186 Gd161 2.377 . S
O186 C171 1.240 . S
O187 Gd160 2.395 . S
O187 C171 1.240 . S
O188 Gd161 2.448 1_545 S
O188 C172 1.249 . S
O189 Gd161 2.506 1_545 S
O189 C172 1.252 . S
O190 Gd161 2.435 . S
O190 C179 1.256 . S
O191 Gd160 2.327 . S
O191 Gd161 2.717 . S
O191 C179 1.257 . S
H192 C165 0.930 . S
H193 C166 0.931 . S
H194 C168 0.931 . S
H195 C169 0.931 . S
H196 C174 0.930 . S
H197 C175 0.931 . S
H198 C177 0.931 . S
H199 C178 0.931 . S
Gd200 C203 2.818 . S
Gd200 O220 2.377 . S
Gd200 O222 2.448 . S
Gd200 O223 2.506 . S
Gd200 O224 2.435 . S
Gd200 O225 2.717 . S
Gd200 O227 2.395 . S
Gd200 O231 2.327 . S
Gd201 C212 2.818 1_545 S
Gd201 O221 2.395 . S
Gd201 O225 2.327 . S
Gd201 O226 2.377 . S
Gd201 O228 2.448 1_545 S
Gd201 O229 2.506 1_545 S
Gd201 O230 2.435 . S
Gd201 O231 2.717 . S
C202 O220 1.240 . S
C202 O221 1.240 . S
C203 Gd200 2.818 . S
C203 C204 1.510 . S
C203 O222 1.249 . S
C203 O223 1.252 . S
C204 C203 1.510 . S
C204 C205 1.404 . S
C204 C206 1.352 . S
C205 C204 1.404 . S
C205 C209 1.389 . S
C205 H232 0.930 . S
C206 C204 1.352 . S
C206 C208 1.374 . S
C206 H233 0.931 . S
C207 C208 1.359 . S
C207 C209 1.364 . S
C208 C206 1.374 . S
C208 C207 1.359 . S
C208 H234 0.931 . S
C209 C205 1.389 . S
C209 C207 1.364 . S
C209 H235 0.931 . S
C210 O224 1.256 . S
C210 O225 1.257 . S
C211 O226 1.240 . S
C211 O227 1.240 . S
C212 Gd201 2.818 1_565 S
C212 C213 1.510 . S
C212 O228 1.249 . S
C212 O229 1.252 . S
C213 C212 1.510 . S
C213 C214 1.404 . S
C213 C215 1.352 . S
C214 C213 1.404 . S
C214 C218 1.389 . S
C214 H236 0.930 . S
C215 C213 1.352 . S
C215 C217 1.374 . S
C215 H237 0.931 . S
C216 C217 1.359 . S
C216 C218 1.364 . S
C217 C215 1.374 . S
C217 C216 1.359 . S
C217 H238 0.931 . S
C218 C214 1.389 . S
C218 C216 1.364 . S
C218 H239 0.931 . S
C219 O230 1.256 . S
C219 O231 1.257 . S
O220 Gd200 2.377 . S
O220 C202 1.240 . S
O221 Gd201 2.395 . S
O221 C202 1.240 . S
O222 Gd200 2.448 . S
O222 C203 1.249 . S
O223 Gd200 2.506 . S
O223 C203 1.252 . S
O224 Gd200 2.435 . S
O224 C210 1.256 . S
O225 Gd200 2.717 . S
O225 Gd201 2.327 . S
O225 C210 1.257 . S
O226 Gd201 2.377 . S
O226 C211 1.240 . S
O227 Gd200 2.395 . S
O227 C211 1.240 . S
O228 Gd201 2.448 1_565 S
O228 C212 1.249 . S
O229 Gd201 2.506 1_565 S
O229 C212 1.252 . S
O230 Gd201 2.435 . S
O230 C219 1.256 . S
O231 Gd200 2.327 . S
O231 Gd201 2.717 . S
O231 C219 1.257 . S
H232 C205 0.930 . S
H233 C206 0.931 . S
H234 C208 0.931 . S
H235 C209 0.931 . S
H236 C214 0.930 . S
H237 C215 0.931 . S
H238 C217 0.931 . S
H239 C218 0.931 . S
Gd240 C243 2.818 . S
Gd240 O260 2.377 . S
Gd240 O262 2.448 . S
Gd240 O263 2.506 . S
Gd240 O264 2.435 . S
Gd240 O265 2.717 . S
Gd240 O267 2.395 . S
Gd240 O271 2.327 . S
Gd241 C252 2.818 1_545 S
Gd241 O261 2.395 . S
Gd241 O265 2.327 . S
Gd241 O266 2.377 . S
Gd241 O268 2.448 1_545 S
Gd241 O269 2.506 1_545 S
Gd241 O270 2.435 . S
Gd241 O271 2.717 . S
C242 O260 1.240 . S
C242 O261 1.240 . S
C243 Gd240 2.818 . S
C243 C244 1.510 . S
C243 O262 1.249 . S
C243 O263 1.252 . S
C244 C243 1.510 . S
C244 C245 1.404 . S
C244 C246 1.352 . S
C245 C244 1.404 . S
C245 C249 1.389 . S
C245 H272 0.930 . S
C246 C244 1.352 . S
C246 C248 1.374 . S
C246 H273 0.931 . S
C247 C248 1.359 . S
C247 C249 1.364 . S
C248 C246 1.374 . S
C248 C247 1.359 . S
C248 H274 0.931 . S
C249 C245 1.389 . S
C249 C247 1.364 . S
C249 H275 0.931 . S
C250 O264 1.256 . S
C250 O265 1.257 . S
C251 O266 1.240 . S
C251 O267 1.240 . S
C252 Gd241 2.818 1_565 S
C252 C253 1.510 . S
C252 O268 1.249 . S
C252 O269 1.252 . S
C253 C252 1.510 . S
C253 C254 1.404 . S
C253 C255 1.352 . S
C254 C253 1.404 . S
C254 C258 1.389 . S
C254 H276 0.930 . S
C255 C253 1.352 . S
C255 C257 1.374 . S
C255 H277 0.931 . S
C256 C257 1.359 . S
C256 C258 1.364 . S
C257 C255 1.374 . S
C257 C256 1.359 . S
C257 H278 0.931 . S
C258 C254 1.389 . S
C258 C256 1.364 . S
C258 H279 0.931 . S
C259 O270 1.256 . S
C259 O271 1.257 . S
O260 Gd240 2.377 . S
O260 C242 1.240 . S
O261 Gd241 2.395 . S
O261 C242 1.240 . S
O262 Gd240 2.448 . S
O262 C243 1.249 . S
O263 Gd240 2.506 . S
O263 C243 1.252 . S
O264 Gd240 2.435 . S
O264 C250 1.256 . S
O265 Gd240 2.717 . S
O265 Gd241 2.327 . S
O265 C250 1.257 . S
O266 Gd241 2.377 . S
O266 C251 1.240 . S
O267 Gd240 2.395 . S
O267 C251 1.240 . S
O268 Gd241 2.448 1_565 S
O268 C252 1.249 . S
O269 Gd241 2.506 1_565 S
O269 C252 1.252 . S
O270 Gd241 2.435 . S
O270 C259 1.256 . S
O271 Gd240 2.327 . S
O271 Gd241 2.717 . S
O271 C259 1.257 . S
H272 C245 0.930 . S
H273 C246 0.931 . S
H274 C248 0.931 . S
H275 C249 0.931 . S
H276 C254 0.930 . S
H277 C255 0.931 . S
H278 C257 0.931 . S
H279 C258 0.931 . S
Gd280 C283 2.818 . S
Gd280 O300 2.377 . S
Gd280 O302 2.448 . S
Gd280 O303 2.506 . S
Gd280 O304 2.435 . S
Gd280 O305 2.717 . S
Gd280 O307 2.395 . S
Gd280 O311 2.327 . S
Gd281 C292 2.818 1_565 S
Gd281 O301 2.395 . S
Gd281 O305 2.327 . S
Gd281 O306 2.377 . S
Gd281 O308 2.448 1_565 S
Gd281 O309 2.506 1_565 S
Gd281 O310 2.435 . S
Gd281 O311 2.717 . S
C282 O300 1.240 . S
C282 O301 1.240 . S
C283 Gd280 2.818 . S
C283 C284 1.510 . S
C283 O302 1.249 . S
C283 O303 1.252 . S
C284 C283 1.510 . S
C284 C285 1.404 . S
C284 C286 1.352 . S
C285 C284 1.404 . S
C285 C289 1.389 . S
C285 H312 0.930 . S
C286 C284 1.352 . S
C286 C288 1.374 . S
C286 H313 0.931 . S
C287 C288 1.359 . S
C287 C289 1.364 . S
C288 C286 1.374 . S
C288 C287 1.359 . S
C288 H314 0.931 . S
C289 C285 1.389 . S
C289 C287 1.364 . S
C289 H315 0.931 . S
C290 O304 1.256 . S
C290 O305 1.257 . S
C291 O306 1.240 . S
C291 O307 1.240 . S
C292 Gd281 2.818 1_545 S
C292 C293 1.510 . S
C292 O308 1.249 . S
C292 O309 1.252 . S
C293 C292 1.510 . S
C293 C294 1.404 . S
C293 C295 1.352 . S
C294 C293 1.404 . S
C294 C298 1.389 . S
C294 H316 0.930 . S
C295 C293 1.352 . S
C295 C297 1.374 . S
C295 H317 0.931 . S
C296 C297 1.359 . S
C296 C298 1.364 . S
C297 C295 1.374 . S
C297 C296 1.359 . S
C297 H318 0.931 . S
C298 C294 1.389 . S
C298 C296 1.364 . S
C298 H319 0.931 . S
C299 O310 1.256 . S
C299 O311 1.257 . S
O300 Gd280 2.377 . S
O300 C282 1.240 . S
O301 Gd281 2.395 . S
O301 C282 1.240 . S
O302 Gd280 2.448 . S
O302 C283 1.249 . S
O303 Gd280 2.506 . S
O303 C283 1.252 . S
O304 Gd280 2.435 . S
O304 C290 1.256 . S
O305 Gd280 2.717 . S
O305 Gd281 2.327 . S
O305 C290 1.257 . S
O306 Gd281 2.377 . S
O306 C291 1.240 . S
O307 Gd280 2.395 . S
O307 C291 1.240 . S
O308 Gd281 2.448 1_545 S
O308 C292 1.249 . S
O309 Gd281 2.506 1_545 S
O309 C292 1.252 . S
O310 Gd281 2.435 . S
O310 C299 1.256 . S
O311 Gd280 2.327 . S
O311 Gd281 2.717 . S
O311 C299 1.257 . S
H312 C285 0.930 . S
H313 C286 0.931 . S
H314 C288 0.931 . S
H315 C289 0.931 . S
H316 C294 0.930 . S
H317 C295 0.931 . S
H318 C297 0.931 . S
H319 C298 0.931 . S
Gd320 C323 2.818 . S
Gd320 O340 2.377 . S
Gd320 O342 2.448 . S
Gd320 O343 2.506 . S
Gd320 O344 2.435 . S
Gd320 O345 2.717 . S
Gd320 O347 2.395 . S
Gd320 O351 2.327 . S
Gd321 C332 2.818 . S
Gd321 O341 2.395 . S
Gd321 O345 2.327 . S
Gd321 O346 2.377 . S
Gd321 O348 2.448 . S
Gd321 O349 2.506 . S
Gd321 O350 2.435 . S
Gd321 O351 2.717 . S
C322 O340 1.240 . S
C322 O341 1.240 . S
C323 Gd320 2.818 . S
C323 C324 1.510 . S
C323 O342 1.249 . S
C323 O343 1.252 . S
C324 C323 1.510 . S
C324 C325 1.404 . S
C324 C326 1.352 . S
C325 C324 1.404 . S
C325 C329 1.389 . S
C325 H352 0.930 . S
C326 C324 1.352 . S
C326 C328 1.374 . S
C326 H353 0.931 . S
C327 C328 1.359 . S
C327 C329 1.364 . S
C328 C326 1.374 . S
C328 C327 1.359 . S
C328 H354 0.931 . S
C329 C325 1.389 . S
C329 C327 1.364 . S
C329 H355 0.931 . S
C330 O344 1.256 . S
C330 O345 1.257 . S
C331 O346 1.240 . S
C331 O347 1.240 . S
C332 Gd321 2.818 . S
C332 C333 1.510 . S
C332 O348 1.249 . S
C332 O349 1.252 . S
C333 C332 1.510 . S
C333 C334 1.404 . S
C333 C335 1.352 . S
C334 C333 1.404 . S
C334 C338 1.389 . S
C334 H356 0.930 . S
C335 C333 1.352 . S
C335 C337 1.374 . S
C335 H357 0.931 . S
C336 C337 1.359 . S
C336 C338 1.364 . S
C337 C335 1.374 . S
C337 C336 1.359 . S
C337 H358 0.931 . S
C338 C334 1.389 . S
C338 C336 1.364 . S
C338 H359 0.931 . S
C339 O350 1.256 . S
C339 O351 1.257 . S
O340 Gd320 2.377 . S
O340 C322 1.240 . S
O341 Gd321 2.395 . S
O341 C322 1.240 . S
O342 Gd320 2.448 . S
O342 C323 1.249 . S
O343 Gd320 2.506 . S
O343 C323 1.252 . S
O344 Gd320 2.435 . S
O344 C330 1.256 . S
O345 Gd320 2.717 . S
O345 Gd321 2.327 . S
O345 C330 1.257 . S
O346 Gd321 2.377 . S
O346 C331 1.240 . S
O347 Gd320 2.395 . S
O347 C331 1.240 . S
O348 Gd321 2.448 . S
O348 C332 1.249 . S
O349 Gd321 2.506 . S
O349 C332 1.252 . S
O350 Gd321 2.435 . S
O350 C339 1.256 . S
O351 Gd320 2.327 . S
O351 Gd321 2.717 . S
O351 C339 1.257 . S
H352 C325 0.930 . S
H353 C326 0.931 . S
H354 C328 0.931 . S
H355 C329 0.931 . S
H356 C334 0.930 . S
H357 C335 0.931 . S
H358 C337 0.931 . S
H359 C338 0.931 . S
Gd360 C363 2.818 . S
Gd360 O380 2.377 . S
Gd360 O382 2.448 . S
Gd360 O383 2.506 . S
Gd360 O384 2.435 . S
Gd360 O385 2.717 . S
Gd360 O387 2.395 . S
Gd360 O391 2.327 . S
Gd361 C372 2.818 . S
Gd361 O381 2.395 . S
Gd361 O385 2.327 . S
Gd361 O386 2.377 . S
Gd361 O388 2.448 . S
Gd361 O389 2.506 . S
Gd361 O390 2.435 . S
Gd361 O391 2.717 . S
C362 O380 1.240 . S
C362 O381 1.240 . S
C363 Gd360 2.818 . S
C363 C364 1.510 . S
C363 O382 1.249 . S
C363 O383 1.252 . S
C364 C363 1.510 . S
C364 C365 1.404 . S
C364 C366 1.352 . S
C365 C364 1.404 . S
C365 C369 1.389 . S
C365 H392 0.930 . S
C366 C364 1.352 . S
C366 C368 1.374 . S
C366 H393 0.931 . S
C367 C368 1.359 . S
C367 C369 1.364 . S
C368 C366 1.374 . S
C368 C367 1.359 . S
C368 H394 0.931 . S
C369 C365 1.389 . S
C369 C367 1.364 . S
C369 H395 0.931 . S
C370 O384 1.256 . S
C370 O385 1.257 . S
C371 O386 1.240 . S
C371 O387 1.240 . S
C372 Gd361 2.818 . S
C372 C373 1.510 . S
C372 O388 1.249 . S
C372 O389 1.252 . S
C373 C372 1.510 . S
C373 C374 1.404 . S
C373 C375 1.352 . S
C374 C373 1.404 . S
C374 C378 1.389 . S
C374 H396 0.930 . S
C375 C373 1.352 . S
C375 C377 1.374 . S
C375 H397 0.931 . S
C376 C377 1.359 . S
C376 C378 1.364 . S
C377 C375 1.374 . S
C377 C376 1.359 . S
C377 H398 0.931 . S
C378 C374 1.389 . S
C378 C376 1.364 . S
C378 H399 0.931 . S
C379 O390 1.256 . S
C379 O391 1.257 . S
O380 Gd360 2.377 . S
O380 C362 1.240 . S
O381 Gd361 2.395 . S
O381 C362 1.240 . S
O382 Gd360 2.448 . S
O382 C363 1.249 . S
O383 Gd360 2.506 . S
O383 C363 1.252 . S
O384 Gd360 2.435 . S
O384 C370 1.256 . S
O385 Gd360 2.717 . S
O385 Gd361 2.327 . S
O385 C370 1.257 . S
O386 Gd361 2.377 . S
O386 C371 1.240 . S
O387 Gd360 2.395 . S
O387 C371 1.240 . S
O388 Gd361 2.448 . S
O388 C372 1.249 . S
O389 Gd361 2.506 . S
O389 C372 1.252 . S
O390 Gd361 2.435 . S
O390 C379 1.256 . S
O391 Gd360 2.327 . S
O391 Gd361 2.717 . S
O391 C379 1.257 . S
H392 C365 0.930 . S
H393 C366 0.931 . S
H394 C368 0.931 . S
H395 C369 0.931 . S
H396 C374 0.930 . S
H397 C375 0.931 . S
H398 C377 0.931 . S
H399 C378 0.931 . S
Gd400 C403 2.818 . S
Gd400 O420 2.377 . S
Gd400 O422 2.448 . S
Gd400 O423 2.506 . S
Gd400 O424 2.435 . S
Gd400 O425 2.717 . S
Gd400 O427 2.395 . S
Gd400 O431 2.327 . S
Gd401 C412 2.818 . S
Gd401 O421 2.395 . S
Gd401 O425 2.327 . S
Gd401 O426 2.377 . S
Gd401 O428 2.448 . S
Gd401 O429 2.506 . S
Gd401 O430 2.435 . S
Gd401 O431 2.717 . S
C402 O420 1.240 . S
C402 O421 1.240 . S
C403 Gd400 2.818 . S
C403 C404 1.510 . S
C403 O422 1.249 . S
C403 O423 1.252 . S
C404 C403 1.510 . S
C404 C405 1.404 . S
C404 C406 1.352 . S
C405 C404 1.404 . S
C405 C409 1.389 . S
C405 H432 0.930 . S
C406 C404 1.352 . S
C406 C408 1.374 . S
C406 H433 0.931 . S
C407 C408 1.359 . S
C407 C409 1.364 . S
C408 C406 1.374 . S
C408 C407 1.359 . S
C408 H434 0.931 . S
C409 C405 1.389 . S
C409 C407 1.364 . S
C409 H435 0.931 . S
C410 O424 1.256 . S
C410 O425 1.257 . S
C411 O426 1.240 . S
C411 O427 1.240 . S
C412 Gd401 2.818 . S
C412 C413 1.510 . S
C412 O428 1.249 . S
C412 O429 1.252 . S
C413 C412 1.510 . S
C413 C414 1.404 . S
C413 C415 1.352 . S
C414 C413 1.404 . S
C414 C418 1.389 . S
C414 H436 0.930 . S
C415 C413 1.352 . S
C415 C417 1.374 . S
C415 H437 0.931 . S
C416 C417 1.359 . S
C416 C418 1.364 . S
C417 C415 1.374 . S
C417 C416 1.359 . S
C417 H438 0.931 . S
C418 C414 1.389 . S
C418 C416 1.364 . S
C418 H439 0.931 . S
C419 O430 1.256 . S
C419 O431 1.257 . S
O420 Gd400 2.377 . S
O420 C402 1.240 . S
O421 Gd401 2.395 . S
O421 C402 1.240 . S
O422 Gd400 2.448 . S
O422 C403 1.249 . S
O423 Gd400 2.506 . S
O423 C403 1.252 . S
O424 Gd400 2.435 . S
O424 C410 1.256 . S
O425 Gd400 2.717 . S
O425 Gd401 2.327 . S
O425 C410 1.257 . S
O426 Gd401 2.377 . S
O426 C411 1.240 . S
O427 Gd400 2.395 . S
O427 C411 1.240 . S
O428 Gd401 2.448 . S
O428 C412 1.249 . S
O429 Gd401 2.506 . S
O429 C412 1.252 . S
O430 Gd401 2.435 . S
O430 C419 1.256 . S
O431 Gd400 2.327 . S
O431 Gd401 2.717 . S
O431 C419 1.257 . S
H432 C405 0.930 . S
H433 C406 0.931 . S
H434 C408 0.931 . S
H435 C409 0.931 . S
H436 C414 0.930 . S
H437 C415 0.931 . S
H438 C417 0.931 . S
H439 C418 0.931 . S
Gd440 C443 2.818 . S
Gd440 O460 2.377 . S
Gd440 O462 2.448 . S
Gd440 O463 2.506 . S
Gd440 O464 2.435 . S
Gd440 O465 2.717 . S
Gd440 O467 2.395 . S
Gd440 O471 2.327 . S
Gd441 C452 2.818 . S
Gd441 O461 2.395 . S
Gd441 O465 2.327 . S
Gd441 O466 2.377 . S
Gd441 O468 2.448 . S
Gd441 O469 2.506 . S
Gd441 O470 2.435 . S
Gd441 O471 2.717 . S
C442 O460 1.240 . S
C442 O461 1.240 . S
C443 Gd440 2.818 . S
C443 C444 1.510 . S
C443 O462 1.249 . S
C443 O463 1.252 . S
C444 C443 1.510 . S
C444 C445 1.404 . S
C444 C446 1.352 . S
C445 C444 1.404 . S
C445 C449 1.389 . S
C445 H472 0.930 . S
C446 C444 1.352 . S
C446 C448 1.374 . S
C446 H473 0.931 . S
C447 C448 1.359 . S
C447 C449 1.364 . S
C448 C446 1.374 . S
C448 C447 1.359 . S
C448 H474 0.931 . S
C449 C445 1.389 . S
C449 C447 1.364 . S
C449 H475 0.931 . S
C450 O464 1.256 . S
C450 O465 1.257 . S
C451 O466 1.240 . S
C451 O467 1.240 . S
C452 Gd441 2.818 . S
C452 C453 1.510 . S
C452 O468 1.249 . S
C452 O469 1.252 . S
C453 C452 1.510 . S
C453 C454 1.404 . S
C453 C455 1.352 . S
C454 C453 1.404 . S
C454 C458 1.389 . S
C454 H476 0.930 . S
C455 C453 1.352 . S
C455 C457 1.374 . S
C455 H477 0.931 . S
C456 C457 1.359 . S
C456 C458 1.364 . S
C457 C455 1.374 . S
C457 C456 1.359 . S
C457 H478 0.931 . S
C458 C454 1.389 . S
C458 C456 1.364 . S
C458 H479 0.931 . S
C459 O470 1.256 . S
C459 O471 1.257 . S
O460 Gd440 2.377 . S
O460 C442 1.240 . S
O461 Gd441 2.395 . S
O461 C442 1.240 . S
O462 Gd440 2.448 . S
O462 C443 1.249 . S
O463 Gd440 2.506 . S
O463 C443 1.252 . S
O464 Gd440 2.435 . S
O464 C450 1.256 . S
O465 Gd440 2.717 . S
O465 Gd441 2.327 . S
O465 C450 1.257 . S
O466 Gd441 2.377 . S
O466 C451 1.240 . S
O467 Gd440 2.395 . S
O467 C451 1.240 . S
O468 Gd441 2.448 . S
O468 C452 1.249 . S
O469 Gd441 2.506 . S
O469 C452 1.252 . S
O470 Gd441 2.435 . S
O470 C459 1.256 . S
O471 Gd440 2.327 . S
O471 Gd441 2.717 . S
O471 C459 1.257 . S
H472 C445 0.930 . S
H473 C446 0.931 . S
H474 C448 0.931 . S
H475 C449 0.931 . S
H476 C454 0.930 . S
H477 C455 0.931 . S
H478 C457 0.931 . S
H479 C458 0.931 . S
Gd480 C483 2.818 . S
Gd480 O500 2.377 . S
Gd480 O502 2.448 . S
Gd480 O503 2.506 . S
Gd480 O504 2.435 . S
Gd480 O505 2.717 . S
Gd480 O507 2.395 . S
Gd480 O511 2.327 . S
Gd481 C492 2.818 . S
Gd481 O501 2.395 . S
Gd481 O505 2.327 . S
Gd481 O506 2.377 . S
Gd481 O508 2.448 . S
Gd481 O509 2.506 . S
Gd481 O510 2.435 . S
Gd481 O511 2.717 . S
C482 O500 1.240 . S
C482 O501 1.240 . S
C483 Gd480 2.818 . S
C483 C484 1.510 . S
C483 O502 1.249 . S
C483 O503 1.252 . S
C484 C483 1.510 . S
C484 C485 1.404 . S
C484 C486 1.352 . S
C485 C484 1.404 . S
C485 C489 1.389 . S
C485 H512 0.930 . S
C486 C484 1.352 . S
C486 C488 1.374 . S
C486 H513 0.931 . S
C487 C488 1.359 . S
C487 C489 1.364 . S
C488 C486 1.374 . S
C488 C487 1.359 . S
C488 H514 0.931 . S
C489 C485 1.389 . S
C489 C487 1.364 . S
C489 H515 0.931 . S
C490 O504 1.256 . S
C490 O505 1.257 . S
C491 O506 1.240 . S
C491 O507 1.240 . S
C492 Gd481 2.818 . S
C492 C493 1.510 . S
C492 O508 1.249 . S
C492 O509 1.252 . S
C493 C492 1.510 . S
C493 C494 1.404 . S
C493 C495 1.352 . S
C494 C493 1.404 . S
C494 C498 1.389 . S
C494 H516 0.930 . S
C495 C493 1.352 . S
C495 C497 1.374 . S
C495 H517 0.931 . S
C496 C497 1.359 . S
C496 C498 1.364 . S
C497 C495 1.374 . S
C497 C496 1.359 . S
C497 H518 0.931 . S
C498 C494 1.389 . S
C498 C496 1.364 . S
C498 H519 0.931 . S
C499 O510 1.256 . S
C499 O511 1.257 . S
O500 Gd480 2.377 . S
O500 C482 1.240 . S
O501 Gd481 2.395 . S
O501 C482 1.240 . S
O502 Gd480 2.448 . S
O502 C483 1.249 . S
O503 Gd480 2.506 . S
O503 C483 1.252 . S
O504 Gd480 2.435 . S
O504 C490 1.256 . S
O505 Gd480 2.717 . S
O505 Gd481 2.327 . S
O505 C490 1.257 . S
O506 Gd481 2.377 . S
O506 C491 1.240 . S
O507 Gd480 2.395 . S
O507 C491 1.240 . S
O508 Gd481 2.448 . S
O508 C492 1.249 . S
O509 Gd481 2.506 . S
O509 C492 1.252 . S
O510 Gd481 2.435 . S
O510 C499 1.256 . S
O511 Gd480 2.327 . S
O511 Gd481 2.717 . S
O511 C499 1.257 . S
H512 C485 0.930 . S
H513 C486 0.931 . S
H514 C488 0.931 . S
H515 C489 0.931 . S
H516 C494 0.930 . S
H517 C495 0.931 . S
H518 C497 0.931 . S
H519 C498 0.931 . S
Gd520 C523 2.818 . S
Gd520 O540 2.377 . S
Gd520 O542 2.448 . S
Gd520 O543 2.506 . S
Gd520 O544 2.435 . S
Gd520 O545 2.717 . S
Gd520 O547 2.395 . S
Gd520 O551 2.327 . S
Gd521 C532 2.818 . S
Gd521 O541 2.395 . S
Gd521 O545 2.327 . S
Gd521 O546 2.377 . S
Gd521 O548 2.448 . S
Gd521 O549 2.506 . S
Gd521 O550 2.435 . S
Gd521 O551 2.717 . S
C522 O540 1.240 . S
C522 O541 1.240 . S
C523 Gd520 2.818 . S
C523 C524 1.510 . S
C523 O542 1.249 . S
C523 O543 1.252 . S
C524 C523 1.510 . S
C524 C525 1.404 . S
C524 C526 1.352 . S
C525 C524 1.404 . S
C525 C529 1.389 . S
C525 H552 0.930 . S
C526 C524 1.352 . S
C526 C528 1.374 . S
C526 H553 0.931 . S
C527 C528 1.359 . S
C527 C529 1.364 . S
C528 C526 1.374 . S
C528 C527 1.359 . S
C528 H554 0.931 . S
C529 C525 1.389 . S
C529 C527 1.364 . S
C529 H555 0.931 . S
C530 O544 1.256 . S
C530 O545 1.257 . S
C531 O546 1.240 . S
C531 O547 1.240 . S
C532 Gd521 2.818 . S
C532 C533 1.510 . S
C532 O548 1.249 . S
C532 O549 1.252 . S
C533 C532 1.510 . S
C533 C534 1.404 . S
C533 C535 1.352 . S
C534 C533 1.404 . S
C534 C538 1.389 . S
C534 H556 0.930 . S
C535 C533 1.352 . S
C535 C537 1.374 . S
C535 H557 0.931 . S
C536 C537 1.359 . S
C536 C538 1.364 . S
C537 C535 1.374 . S
C537 C536 1.359 . S
C537 H558 0.931 . S
C538 C534 1.389 . S
C538 C536 1.364 . S
C538 H559 0.931 . S
C539 O550 1.256 . S
C539 O551 1.257 . S
O540 Gd520 2.377 . S
O540 C522 1.240 . S
O541 Gd521 2.395 . S
O541 C522 1.240 . S
O542 Gd520 2.448 . S
O542 C523 1.249 . S
O543 Gd520 2.506 . S
O543 C523 1.252 . S
O544 Gd520 2.435 . S
O544 C530 1.256 . S
O545 Gd520 2.717 . S
O545 Gd521 2.327 . S
O545 C530 1.257 . S
O546 Gd521 2.377 . S
O546 C531 1.240 . S
O547 Gd520 2.395 . S
O547 C531 1.240 . S
O548 Gd521 2.448 . S
O548 C532 1.249 . S
O549 Gd521 2.506 . S
O549 C532 1.252 . S
O550 Gd521 2.435 . S
O550 C539 1.256 . S
O551 Gd520 2.327 . S
O551 Gd521 2.717 . S
O551 C539 1.257 . S
H552 C525 0.930 . S
H553 C526 0.931 . S
H554 C528 0.931 . S
H555 C529 0.931 . S
H556 C534 0.930 . S
H557 C535 0.931 . S
H558 C537 0.931 . S
H559 C538 0.931 . S
Gd560 C563 2.818 . S
Gd560 O580 2.377 . S
Gd560 O582 2.448 . S
Gd560 O583 2.506 . S
Gd560 O584 2.435 . S
Gd560 O585 2.717 . S
Gd560 O587 2.395 . S
Gd560 O591 2.327 . S
Gd561 C572 2.818 . S
Gd561 O581 2.395 . S
Gd561 O585 2.327 . S
Gd561 O586 2.377 . S
Gd561 O588 2.448 . S
Gd561 O589 2.506 . S
Gd561 O590 2.435 . S
Gd561 O591 2.717 . S
C562 O580 1.240 . S
C562 O581 1.240 . S
C563 Gd560 2.818 . S
C563 C564 1.510 . S
C563 O582 1.249 . S
C563 O583 1.252 . S
C564 C563 1.510 . S
C564 C565 1.404 . S
C564 C566 1.352 . S
C565 C564 1.404 . S
C565 C569 1.389 . S
C565 H592 0.930 . S
C566 C564 1.352 . S
C566 C568 1.374 . S
C566 H593 0.931 . S
C567 C568 1.359 . S
C567 C569 1.364 . S
C568 C566 1.374 . S
C568 C567 1.359 . S
C568 H594 0.931 . S
C569 C565 1.389 . S
C569 C567 1.364 . S
C569 H595 0.931 . S
C570 O584 1.256 . S
C570 O585 1.257 . S
C571 O586 1.240 . S
C571 O587 1.240 . S
C572 Gd561 2.818 . S
C572 C573 1.510 . S
C572 O588 1.249 . S
C572 O589 1.252 . S
C573 C572 1.510 . S
C573 C574 1.404 . S
C573 C575 1.352 . S
C574 C573 1.404 . S
C574 C578 1.389 . S
C574 H596 0.930 . S
C575 C573 1.352 . S
C575 C577 1.374 . S
C575 H597 0.931 . S
C576 C577 1.359 . S
C576 C578 1.364 . S
C577 C575 1.374 . S
C577 C576 1.359 . S
C577 H598 0.931 . S
C578 C574 1.389 . S
C578 C576 1.364 . S
C578 H599 0.931 . S
C579 O590 1.256 . S
C579 O591 1.257 . S
O580 Gd560 2.377 . S
O580 C562 1.240 . S
O581 Gd561 2.395 . S
O581 C562 1.240 . S
O582 Gd560 2.448 . S
O582 C563 1.249 . S
O583 Gd560 2.506 . S
O583 C563 1.252 . S
O584 Gd560 2.435 . S
O584 C570 1.256 . S
O585 Gd560 2.717 . S
O585 Gd561 2.327 . S
O585 C570 1.257 . S
O586 Gd561 2.377 . S
O586 C571 1.240 . S
O587 Gd560 2.395 . S
O587 C571 1.240 . S
O588 Gd561 2.448 . S
O588 C572 1.249 . S
O589 Gd561 2.506 . S
O589 C572 1.252 . S
O590 Gd561 2.435 . S
O590 C579 1.256 . S
O591 Gd560 2.327 . S
O591 Gd561 2.717 . S
O591 C579 1.257 . S
H592 C565 0.930 . S
H593 C566 0.931 . S
H594 C568 0.931 . S
H595 C569 0.931 . S
H596 C574 0.930 . S
H597 C575 0.931 . S
H598 C577 0.931 . S
H599 C578 0.931 . S
Gd600 C603 2.818 . S
Gd600 O620 2.377 . S
Gd600 O622 2.448 . S
Gd600 O623 2.506 . S
Gd600 O624 2.435 . S
Gd600 O625 2.717 . S
Gd600 O627 2.395 . S
Gd600 O631 2.327 . S
Gd601 C612 2.818 . S
Gd601 O621 2.395 . S
Gd601 O625 2.327 . S
Gd601 O626 2.377 . S
Gd601 O628 2.448 . S
Gd601 O629 2.506 . S
Gd601 O630 2.435 . S
Gd601 O631 2.717 . S
C602 O620 1.240 . S
C602 O621 1.240 . S
C603 Gd600 2.818 . S
C603 C604 1.510 . S
C603 O622 1.249 . S
C603 O623 1.252 . S
C604 C603 1.510 . S
C604 C605 1.404 . S
C604 C606 1.352 . S
C605 C604 1.404 . S
C605 C609 1.389 . S
C605 H632 0.930 . S
C606 C604 1.352 . S
C606 C608 1.374 . S
C606 H633 0.931 . S
C607 C608 1.359 . S
C607 C609 1.364 . S
C608 C606 1.374 . S
C608 C607 1.359 . S
C608 H634 0.931 . S
C609 C605 1.389 . S
C609 C607 1.364 . S
C609 H635 0.931 . S
C610 O624 1.256 . S
C610 O625 1.257 . S
C611 O626 1.240 . S
C611 O627 1.240 . S
C612 Gd601 2.818 . S
C612 C613 1.510 . S
C612 O628 1.249 . S
C612 O629 1.252 . S
C613 C612 1.510 . S
C613 C614 1.404 . S
C613 C615 1.352 . S
C614 C613 1.404 . S
C614 C618 1.389 . S
C614 H636 0.930 . S
C615 C613 1.352 . S
C615 C617 1.374 . S
C615 H637 0.931 . S
C616 C617 1.359 . S
C616 C618 1.364 . S
C617 C615 1.374 . S
C617 C616 1.359 . S
C617 H638 0.931 . S
C618 C614 1.389 . S
C618 C616 1.364 . S
C618 H639 0.931 . S
C619 O630 1.256 . S
C619 O631 1.257 . S
O620 Gd600 2.377 . S
O620 C602 1.240 . S
O621 Gd601 2.395 . S
O621 C602 1.240 . S
O622 Gd600 2.448 . S
O622 C603 1.249 . S
O623 Gd600 2.506 . S
O623 C603 1.252 . S
O624 Gd600 2.435 . S
O624 C610 1.256 . S
O625 Gd600 2.717 . S
O625 Gd601 2.327 . S
O625 C610 1.257 . S
O626 Gd601 2.377 . S
O626 C611 1.240 . S
O627 Gd600 2.395 . S
O627 C611 1.240 . S
O628 Gd601 2.448 . S
O628 C612 1.249 . S
O629 Gd601 2.506 . S
O629 C612 1.252 . S
O630 Gd601 2.435 . S
O630 C619 1.256 . S
O631 Gd600 2.327 . S
O631 Gd601 2.717 . S
O631 C619 1.257 . S
H632 C605 0.930 . S
H633 C606 0.931 . S
H634 C608 0.931 . S
H635 C609 0.931 . S
H636 C614 0.930 . S
H637 C615 0.931 . S
H638 C617 0.931 . S
H639 C618 0.931 . S
C640 C641 1.387 . S
C640 H644 0.950 . S
C640 C649 1.390 . S
C641 C640 1.387 . S
C641 C643 1.387 . S
H642 C649 0.950 . S
C643 C641 1.387 . S
C643 C645 1.390 . S
C643 H647 0.950 . S
H644 C640 0.950 . S
C645 C643 1.390 . S
C645 C646 1.387 . S
C645 H648 0.950 . S
C646 C645 1.387 . S
C646 C649 1.387 . S
H647 C643 0.950 . S
H648 C645 0.950 . S
C649 C640 1.390 . S
C649 H642 0.950 . S
C649 C646 1.387 . S
C650 C651 1.387 . S
C650 H654 0.950 . S
C650 C659 1.390 . S
C651 C650 1.387 . S
C651 C653 1.387 . S
H652 C659 0.950 . S
C653 C651 1.387 . S
C653 C655 1.390 . S
C653 H657 0.950 . S
H654 C650 0.950 . S
C655 C653 1.390 . S
C655 C656 1.387 . S
C655 H658 0.950 . S
C656 C655 1.387 . S
C656 C659 1.387 . S
H657 C653 0.950 . S
H658 C655 0.950 . S
C659 C650 1.390 . S
C659 H652 0.950 . S
C659 C656 1.387 . S
C660 C661 1.387 . S
C660 H664 0.950 . S
C660 C669 1.390 . S
C661 C660 1.387 . S
C661 C663 1.387 . S
H662 C669 0.950 . S
C663 C661 1.387 . S
C663 C665 1.390 . S
C663 H667 0.950 . S
H664 C660 0.950 . S
C665 C663 1.390 . S
C665 C666 1.387 . S
C665 H668 0.950 . S
C666 C665 1.387 . S
C666 C669 1.387 . S
H667 C663 0.950 . S
H668 C665 0.950 . S
C669 C660 1.390 . S
C669 H662 0.950 . S
C669 C666 1.387 . S
C670 C671 1.387 . S
C670 H674 0.950 . S
C670 C679 1.390 . S
C671 C670 1.387 . S
C671 C673 1.387 . S
H672 C679 0.950 . S
C673 C671 1.387 . S
C673 C675 1.390 . S
C673 H677 0.950 . S
H674 C670 0.950 . S
C675 C673 1.390 . S
C675 C676 1.387 . S
C675 H678 0.950 . S
C676 C675 1.387 . S
C676 C679 1.387 . S
H677 C673 0.950 . S
H678 C675 0.950 . S
C679 C670 1.390 . S
C679 H672 0.950 . S
C679 C676 1.387 . S
C680 C681 1.387 . S
C680 H684 0.950 . S
C680 C689 1.390 . S
C681 C680 1.387 . S
C681 C683 1.387 . S
H682 C689 0.950 . S
C683 C681 1.387 . S
C683 C685 1.390 . S
C683 H687 0.950 . S
H684 C680 0.950 . S
C685 C683 1.390 . S
C685 C686 1.387 . S
C685 H688 0.950 . S
C686 C685 1.387 . S
C686 C689 1.387 . S
H687 C683 0.950 . S
H688 C685 0.950 . S
C689 C680 1.390 . S
C689 H682 0.950 . S
C689 C686 1.387 . S
C690 C691 1.387 . S
C690 H694 0.950 . S
C690 C699 1.390 . S
C691 C690 1.387 . S
C691 C693 1.387 . S
H692 C699 0.950 . S
C693 C691 1.387 . S
C693 C695 1.390 . S
C693 H697 0.950 . S
H694 C690 0.950 . S
C695 C693 1.390 . S
C695 C696 1.387 . S
C695 H698 0.950 . S
C696 C695 1.387 . S
C696 C699 1.387 . S
H697 C693 0.950 . S
H698 C695 0.950 . S
C699 C690 1.390 . S
C699 H692 0.950 . S
C699 C696 1.387 . S
C700 C701 1.387 . S
C700 H704 0.950 . S
C700 C709 1.390 . S
C701 C700 1.387 . S
C701 C703 1.387 . S
H702 C709 0.950 . S
C703 C701 1.387 . S
C703 C705 1.390 . S
C703 H707 0.950 . S
H704 C700 0.950 . S
C705 C703 1.390 . S
C705 C706 1.387 . S
C705 H708 0.950 . S
C706 C705 1.387 . S
C706 C709 1.387 . S
H707 C703 0.950 . S
H708 C705 0.950 . S
C709 C700 1.390 . S
C709 H702 0.950 . S
C709 C706 1.387 . S
C710 C711 1.387 . S
C710 H714 0.950 . S
C710 C719 1.390 . S
C711 C710 1.387 . S
C711 C713 1.387 . S
H712 C719 0.950 . S
C713 C711 1.387 . S
C713 C715 1.390 . S
C713 H717 0.950 . S
H714 C710 0.950 . S
C715 C713 1.390 . S
C715 C716 1.387 . S
C715 H718 0.950 . S
C716 C715 1.387 . S
C716 C719 1.387 . S
H717 C713 0.950 . S
H718 C715 0.950 . S
C719 C710 1.390 . S
C719 H712 0.950 . S
C719 C716 1.387 . S
C720 C721 1.387 . S
C720 H724 0.950 . S
C720 C729 1.390 1_565 S
C721 C720 1.387 . S
C721 C723 1.387 . S
H722 C729 0.950 . S
C723 C721 1.387 . S
C723 C725 1.390 1_565 S
C723 H727 0.950 . S
H724 C720 0.950 . S
C725 C723 1.390 1_545 S
C725 C726 1.387 . S
C725 H728 0.950 . S
C726 C725 1.387 . S
C726 C729 1.387 . S
H727 C723 0.950 . S
H728 C725 0.950 . S
C729 C720 1.390 1_545 S
C729 H722 0.950 . S
C729 C726 1.387 . S
C730 C731 1.387 . S
C730 H734 0.950 . S
C730 C739 1.390 1_545 S
C731 C730 1.387 . S
C731 C733 1.387 . S
H732 C739 0.950 . S
C733 C731 1.387 . S
C733 C735 1.390 1_545 S
C733 H737 0.950 . S
H734 C730 0.950 . S
C735 C733 1.390 1_565 S
C735 C736 1.387 . S
C735 H738 0.950 . S
C736 C735 1.387 . S
C736 C739 1.387 . S
H737 C733 0.950 . S
H738 C735 0.950 . S
C739 C730 1.390 1_565 S
C739 H732 0.950 . S
C739 C736 1.387 . S
C740 C741 1.387 . S
C740 H744 0.950 . S
C740 C749 1.390 1_545 S
C741 C740 1.387 . S
C741 C743 1.387 . S
H742 C749 0.950 . S
C743 C741 1.387 . S
C743 C745 1.390 1_545 S
C743 H747 0.950 . S
H744 C740 0.950 . S
C745 C743 1.390 1_565 S
C745 C746 1.387 . S
C745 H748 0.950 . S
C746 C745 1.387 . S
C746 C749 1.387 . S
H747 C743 0.950 . S
H748 C745 0.950 . S
C749 C740 1.390 1_565 S
C749 H742 0.950 . S
C749 C746 1.387 . S
C750 C751 1.387 . S
C750 H754 0.950 . S
C750 C759 1.390 1_545 S
C751 C750 1.387 . S
C751 C753 1.387 . S
H752 C759 0.950 . S
C753 C751 1.387 . S
C753 C755 1.390 1_545 S
C753 H757 0.950 . S
H754 C750 0.950 . S
C755 C753 1.390 1_565 S
C755 C756 1.387 . S
C755 H758 0.950 . S
C756 C755 1.387 . S
C756 C759 1.387 . S
H757 C753 0.950 . S
H758 C755 0.950 . S
C759 C750 1.390 1_565 S
C759 H752 0.950 . S
C759 C756 1.387 . S
C760 C761 1.387 . S
C760 H764 0.950 . S
C760 C769 1.390 . S
C761 C760 1.387 . S
C761 C763 1.387 . S
H762 C769 0.950 . S
C763 C761 1.387 . S
C763 C765 1.390 . S
C763 H767 0.950 . S
H764 C760 0.950 . S
C765 C763 1.390 . S
C765 C766 1.387 . S
C765 H768 0.950 . S
C766 C765 1.387 . S
C766 C769 1.387 . S
H767 C763 0.950 . S
H768 C765 0.950 . S
C769 C760 1.390 . S
C769 H762 0.950 . S
C769 C766 1.387 . S
C770 C771 1.387 . S
C770 H774 0.950 . S
C770 C779 1.390 . S
C771 C770 1.387 . S
C771 C773 1.387 . S
H772 C779 0.950 . S
C773 C771 1.387 . S
C773 C775 1.390 . S
C773 H777 0.950 . S
H774 C770 0.950 . S
C775 C773 1.390 . S
C775 C776 1.387 . S
C775 H778 0.950 . S
C776 C775 1.387 . S
C776 C779 1.387 . S
H777 C773 0.950 . S
H778 C775 0.950 . S
C779 C770 1.390 . S
C779 H772 0.950 . S
C779 C776 1.387 . S
C780 C781 1.387 . S
C780 H784 0.950 . S
C780 C789 1.390 . S
C781 C780 1.387 . S
C781 C783 1.387 . S
H782 C789 0.950 . S
C783 C781 1.387 . S
C783 C785 1.390 . S
C783 H787 0.950 . S
H784 C780 0.950 . S
C785 C783 1.390 . S
C785 C786 1.387 . S
C785 H788 0.950 . S
C786 C785 1.387 . S
C786 C789 1.387 . S
H787 C783 0.950 . S
H788 C785 0.950 . S
C789 C780 1.390 . S
C789 H782 0.950 . S
C789 C786 1.387 . S
C790 C791 1.387 . S
C790 H794 0.950 . S
C790 C799 1.390 . S
C791 C790 1.387 . S
C791 C793 1.387 . S
H792 C799 0.950 . S
C793 C791 1.387 . S
C793 C795 1.390 . S
C793 H797 0.950 . S
H794 C790 0.950 . S
C795 C793 1.390 . S
C795 C796 1.387 . S
C795 H798 0.950 . S
C796 C795 1.387 . S
C796 C799 1.387 . S
H797 C793 0.950 . S
H798 C795 0.950 . S
C799 C790 1.390 . S
C799 H792 0.950 . S
C799 C796 1.387 . S
C800 C801 1.387 . S
C800 H804 0.950 . S
C800 C809 1.390 1_556 S
C801 C800 1.387 . S
C801 C803 1.387 . S
H802 C809 0.950 . S
C803 C801 1.387 . S
C803 C805 1.390 1_556 S
C803 H807 0.950 . S
H804 C800 0.950 . S
C805 C803 1.390 1_554 S
C805 C806 1.387 . S
C805 H808 0.950 . S
C806 C805 1.387 . S
C806 C809 1.387 . S
H807 C803 0.950 . S
H808 C805 0.950 . S
C809 C800 1.390 1_554 S
C809 H802 0.950 . S
C809 C806 1.387 . S
C810 C811 1.387 . S
C810 H814 0.950 . S
C810 C819 1.390 1_556 S
C811 C810 1.387 . S
C811 C813 1.387 . S
H812 C819 0.950 . S
C813 C811 1.387 . S
C813 C815 1.390 1_556 S
C813 H817 0.950 . S
H814 C810 0.950 . S
C815 C813 1.390 1_554 S
C815 C816 1.387 . S
C815 H818 0.950 . S
C816 C815 1.387 . S
C816 C819 1.387 . S
H817 C813 0.950 . S
H818 C815 0.950 . S
C819 C810 1.390 1_554 S
C819 H812 0.950 . S
C819 C816 1.387 . S
C820 C821 1.387 . S
C820 H824 0.950 . S
C820 C829 1.390 . S
C821 C820 1.387 . S
C821 C823 1.387 . S
H822 C829 0.950 . S
C823 C821 1.387 . S
C823 C825 1.390 . S
C823 H827 0.950 . S
H824 C820 0.950 . S
C825 C823 1.390 . S
C825 C826 1.387 . S
C825 H828 0.950 . S
C826 C825 1.387 . S
C826 C829 1.387 . S
H827 C823 0.950 . S
H828 C825 0.950 . S
C829 C820 1.390 . S
C829 H822 0.950 . S
C829 C826 1.387 . S
C830 C831 1.387 . S
C830 H834 0.950 . S
C830 C839 1.390 . S
C831 C830 1.387 . S
C831 C833 1.387 . S
H832 C839 0.950 . S
C833 C831 1.387 . S
C833 C835 1.390 . S
C833 H837 0.950 . S
H834 C830 0.950 . S
C835 C833 1.390 . S
C835 C836 1.387 . S
C835 H838 0.950 . S
C836 C835 1.387 . S
C836 C839 1.387 . S
H837 C833 0.950 . S
H838 C835 0.950 . S
C839 C830 1.390 . S
C839 H832 0.950 . S
C839 C836 1.387 . S
C840 C841 1.387 . S
C840 H844 0.950 . S
C840 C849 1.390 1_554 S
C841 C840 1.387 . S
C841 C843 1.387 . S
H842 C849 0.950 . S
C843 C841 1.387 . S
C843 C845 1.390 1_554 S
C843 H847 0.950 . S
H844 C840 0.950 . S
C845 C843 1.390 1_556 S
C845 C846 1.387 . S
C845 H848 0.950 . S
C846 C845 1.387 . S
C846 C849 1.387 . S
H847 C843 0.950 . S
H848 C845 0.950 . S
C849 C840 1.390 1_556 S
C849 H842 0.950 . S
C849 C846 1.387 . S
C850 C851 1.387 . S
C850 H854 0.950 . S
C850 C859 1.390 1_556 S
C851 C850 1.387 . S
C851 C853 1.387 . S
H852 C859 0.950 . S
C853 C851 1.387 . S
C853 C855 1.390 1_556 S
C853 H857 0.950 . S
H854 C850 0.950 . S
C855 C853 1.390 1_554 S
C855 C856 1.387 . S
C855 H858 0.950 . S
C856 C855 1.387 . S
C856 C859 1.387 . S
H857 C853 0.950 . S
H858 C855 0.950 . S
C859 C850 1.390 1_554 S
C859 H852 0.950 . S
C859 C856 1.387 . S
C860 C861 1.387 . S
C860 H864 0.950 . S
C860 C869 1.390 . S
C861 C860 1.387 . S
C861 C863 1.387 . S
H862 C869 0.950 . S
C863 C861 1.387 . S
C863 C865 1.390 . S
C863 H867 0.950 . S
H864 C860 0.950 . S
C865 C863 1.390 . S
C865 C866 1.387 . S
C865 H868 0.950 . S
C866 C865 1.387 . S
C866 C869 1.387 . S
H867 C863 0.950 . S
H868 C865 0.950 . S
C869 C860 1.390 . S
C869 H862 0.950 . S
C869 C866 1.387 . S
C870 C871 1.387 . S
C870 H874 0.950 . S
C870 C879 1.390 . S
C871 C870 1.387 . S
C871 C873 1.387 . S
H872 C879 0.950 . S
C873 C871 1.387 . S
C873 C875 1.390 . S
C873 H877 0.950 . S
H874 C870 0.950 . S
C875 C873 1.390 . S
C875 C876 1.387 . S
C875 H878 0.950 . S
C876 C875 1.387 . S
C876 C879 1.387 . S
H877 C873 0.950 . S
H878 C875 0.950 . S
C879 C870 1.390 . S
C879 H872 0.950 . S
C879 C876 1.387 . S
C880 C881 1.387 . S
C880 H884 0.950 . S
C880 C889 1.390 1_665 S
C881 C880 1.387 . S
C881 C883 1.387 . S
H882 C889 0.950 . S
C883 C881 1.387 . S
C883 C885 1.390 1_665 S
C883 H887 0.950 . S
H884 C880 0.950 . S
C885 C883 1.390 1_445 S
C885 C886 1.387 . S
C885 H888 0.950 . S
C886 C885 1.387 . S
C886 C889 1.387 . S
H887 C883 0.950 . S
H888 C885 0.950 . S
C889 C880 1.390 1_445 S
C889 H882 0.950 . S
C889 C886 1.387 . S
C890 C891 1.387 . S
C890 H894 0.950 . S
C890 C899 1.390 1_645 S
C891 C890 1.387 . S
C891 C893 1.387 . S
H892 C899 0.950 . S
C893 C891 1.387 . S
C893 C895 1.390 1_645 S
C893 H897 0.950 . S
H894 C890 0.950 . S
C895 C893 1.390 1_465 S
C895 C896 1.387 . S
C895 H898 0.950 . S
C896 C895 1.387 . S
C896 C899 1.387 . S
H897 C893 0.950 . S
H898 C895 0.950 . S
C899 C890 1.390 1_465 S
C899 H892 0.950 . S
C899 C896 1.387 . S
C900 C901 1.387 . S
C900 H904 0.950 . S
C900 C909 1.390 1_445 S
C901 C900 1.387 . S
C901 C903 1.387 . S
H902 C909 0.950 . S
C903 C901 1.387 . S
C903 C905 1.390 1_445 S
C903 H907 0.950 . S
H904 C900 0.950 . S
C905 C903 1.390 1_665 S
C905 C906 1.387 . S
C905 H908 0.950 . S
C906 C905 1.387 . S
C906 C909 1.387 . S
H907 C903 0.950 . S
H908 C905 0.950 . S
C909 C900 1.390 1_665 S
C909 H902 0.950 . S
C909 C906 1.387 . S
C910 C911 1.387 . S
C910 H914 0.950 . S
C910 C919 1.390 1_645 S
C911 C910 1.387 . S
C911 C913 1.387 . S
H912 C919 0.950 . S
C913 C911 1.387 . S
C913 C915 1.390 1_645 S
C913 H917 0.950 . S
H914 C910 0.950 . S
C915 C913 1.390 1_465 S
C915 C916 1.387 . S
C915 H918 0.950 . S
C916 C915 1.387 . S
C916 C919 1.387 . S
H917 C913 0.950 . S
H918 C915 0.950 . S
C919 C910 1.390 1_465 S
C919 H912 0.950 . S
C919 C916 1.387 . S
C920 C921 1.387 . S
C920 H924 0.950 . S
C920 C929 1.390 . S
C921 C920 1.387 . S
C921 C923 1.387 . S
H922 C929 0.950 . S
C923 C921 1.387 . S
C923 C925 1.390 . S
C923 H927 0.950 . S
H924 C920 0.950 . S
C925 C923 1.390 . S
C925 C926 1.387 . S
C925 H928 0.950 . S
C926 C925 1.387 . S
C926 C929 1.387 . S
H927 C923 0.950 . S
H928 C925 0.950 . S
C929 C920 1.390 . S
C929 H922 0.950 . S
C929 C926 1.387 . S
C930 C931 1.387 . S
C930 H934 0.950 . S
C930 C939 1.390 . S
C931 C930 1.387 . S
C931 C933 1.387 . S
H932 C939 0.950 . S
C933 C931 1.387 . S
C933 C935 1.390 . S
C933 H937 0.950 . S
H934 C930 0.950 . S
C935 C933 1.390 . S
C935 C936 1.387 . S
C935 H938 0.950 . S
C936 C935 1.387 . S
C936 C939 1.387 . S
H937 C933 0.950 . S
H938 C935 0.950 . S
C939 C930 1.390 . S
C939 H932 0.950 . S
C939 C936 1.387 . S
C940 C941 1.387 . S
C940 H944 0.950 . S
C940 C949 1.390 . S
C941 C940 1.387 . S
C941 C943 1.387 . S
H942 C949 0.950 . S
C943 C941 1.387 . S
C943 C945 1.390 . S
C943 H947 0.950 . S
H944 C940 0.950 . S
C945 C943 1.390 . S
C945 C946 1.387 . S
C945 H948 0.950 . S
C946 C945 1.387 . S
C946 C949 1.387 . S
H947 C943 0.950 . S
H948 C945 0.950 . S
C949 C940 1.390 . S
C949 H942 0.950 . S
C949 C946 1.387 . S
C950 C951 1.387 . S
C950 H954 0.950 . S
C950 C959 1.390 . S
C951 C950 1.387 . S
C951 C953 1.387 . S
H952 C959 0.950 . S
C953 C951 1.387 . S
C953 C955 1.390 . S
C953 H957 0.950 . S
H954 C950 0.950 . S
C955 C953 1.390 . S
C955 C956 1.387 . S
C955 H958 0.950 . S
C956 C955 1.387 . S
C956 C959 1.387 . S
H957 C953 0.950 . S
H958 C955 0.950 . S
C959 C950 1.390 . S
C959 H952 0.950 . S
C959 C956 1.387 . S
C960 C961 1.387 . S
C960 H964 0.950 . S
C960 C969 1.390 . S
C961 C960 1.387 . S
C961 C963 1.387 . S
H962 C969 0.950 . S
C963 C961 1.387 . S
C963 C965 1.390 . S
C963 H967 0.950 . S
H964 C960 0.950 . S
C965 C963 1.390 . S
C965 C966 1.387 . S
C965 H968 0.950 . S
C966 C965 1.387 . S
C966 C969 1.387 . S
H967 C963 0.950 . S
H968 C965 0.950 . S
C969 C960 1.390 . S
C969 H962 0.950 . S
C969 C966 1.387 . S
C970 C971 1.387 . S
C970 H974 0.950 . S
C970 C979 1.390 . S
C971 C970 1.387 . S
C971 C973 1.387 . S
H972 C979 0.950 . S
C973 C971 1.387 . S
C973 C975 1.390 . S
C973 H977 0.950 . S
H974 C970 0.950 . S
C975 C973 1.390 . S
C975 C976 1.387 . S
C975 H978 0.950 . S
C976 C975 1.387 . S
C976 C979 1.387 . S
H977 C973 0.950 . S
H978 C975 0.950 . S
C979 C970 1.390 . S
C979 H972 0.950 . S
C979 C976 1.387 . S
C980 C981 1.387 . S
C980 H984 0.950 . S
C980 C989 1.390 . S
C981 C980 1.387 . S
C981 C983 1.387 . S
H982 C989 0.950 . S
C983 C981 1.387 . S
C983 C985 1.390 . S
C983 H987 0.950 . S
H984 C980 0.950 . S
C985 C983 1.390 . S
C985 C986 1.387 . S
C985 H988 0.950 . S
C986 C985 1.387 . S
C986 C989 1.387 . S
H987 C983 0.950 . S
H988 C985 0.950 . S
C989 C980 1.390 . S
C989 H982 0.950 . S
C989 C986 1.387 . S
C990 C991 1.387 . S
C990 H994 0.950 . S
C990 C999 1.390 . S
C991 C990 1.387 . S
C991 C993 1.387 . S
H992 C999 0.950 . S
C993 C991 1.387 . S
C993 C995 1.390 . S
C993 H997 0.950 . S
H994 C990 0.950 . S
C995 C993 1.390 . S
C995 C996 1.387 . S
C995 H998 0.950 . S
C996 C995 1.387 . S
C996 C999 1.387 . S
H997 C993 0.950 . S
H998 C995 0.950 . S
C999 C990 1.390 . S
C999 H992 0.950 . S
C999 C996 1.387 . S
C1000 C1001 1.387 . S
C1000 H1004 0.950 . S
C1000 C1009 1.390 . S
C1001 C1000 1.387 . S
C1001 C1003 1.387 . S
H1002 C1009 0.950 . S
C1003 C1001 1.387 . S
C1003 C1005 1.390 . S
C1003 H1007 0.950 . S
H1004 C1000 0.950 . S
C1005 C1003 1.390 . S
C1005 C1006 1.387 . S
C1005 H1008 0.950 . S
C1006 C1005 1.387 . S
C1006 C1009 1.387 . S
H1007 C1003 0.950 . S
H1008 C1005 0.950 . S
C1009 C1000 1.390 . S
C1009 H1002 0.950 . S
C1009 C1006 1.387 . S
C1010 C1011 1.387 . S
C1010 H1014 0.950 . S
C1010 C1019 1.390 . S
C1011 C1010 1.387 . S
C1011 C1013 1.387 . S
H1012 C1019 0.950 . S
C1013 C1011 1.387 . S
C1013 C1015 1.390 . S
C1013 H1017 0.950 . S
H1014 C1010 0.950 . S
C1015 C1013 1.390 . S
C1015 C1016 1.387 . S
C1015 H1018 0.950 . S
C1016 C1015 1.387 . S
C1016 C1019 1.387 . S
H1017 C1013 0.950 . S
H1018 C1015 0.950 . S
C1019 C1010 1.390 . S
C1019 H1012 0.950 . S
C1019 C1016 1.387 . S
C1020 C1021 1.387 . S
C1020 H1024 0.950 . S
C1020 C1029 1.390 . S
C1021 C1020 1.387 . S
C1021 C1023 1.387 . S
H1022 C1029 0.950 . S
C1023 C1021 1.387 . S
C1023 C1025 1.390 . S
C1023 H1027 0.950 . S
H1024 C1020 0.950 . S
C1025 C1023 1.390 . S
C1025 C1026 1.387 . S
C1025 H1028 0.950 . S
C1026 C1025 1.387 . S
C1026 C1029 1.387 . S
H1027 C1023 0.950 . S
H1028 C1025 0.950 . S
C1029 C1020 1.390 . S
C1029 H1022 0.950 . S
C1029 C1026 1.387 . S
C1030 C1031 1.387 . S
C1030 H1034 0.950 . S
C1030 C1039 1.390 . S
C1031 C1030 1.387 . S
C1031 C1033 1.387 . S
H1032 C1039 0.950 . S
C1033 C1031 1.387 . S
C1033 C1035 1.390 . S
C1033 H1037 0.950 . S
H1034 C1030 0.950 . S
C1035 C1033 1.390 . S
C1035 C1036 1.387 . S
C1035 H1038 0.950 . S
C1036 C1035 1.387 . S
C1036 C1039 1.387 . S
H1037 C1033 0.950 . S
H1038 C1035 0.950 . S
C1039 C1030 1.390 . S
C1039 H1032 0.950 . S
C1039 C1036 1.387 . S
C1040 C1041 1.387 . S
C1040 H1044 0.950 . S
C1040 C1049 1.390 . S
C1041 C1040 1.387 . S
C1041 C1043 1.387 . S
H1042 C1049 0.950 . S
C1043 C1041 1.387 . S
C1043 C1045 1.390 . S
C1043 H1047 0.950 . S
H1044 C1040 0.950 . S
C1045 C1043 1.390 . S
C1045 C1046 1.387 . S
C1045 H1048 0.950 . S
C1046 C1045 1.387 . S
C1046 C1049 1.387 . S
H1047 C1043 0.950 . S
H1048 C1045 0.950 . S
C1049 C1040 1.390 . S
C1049 H1042 0.950 . S
C1049 C1046 1.387 . S
C1050 C1051 1.387 . S
C1050 H1054 0.950 . S
C1050 C1059 1.390 . S
C1051 C1050 1.387 . S
C1051 C1053 1.387 . S
H1052 C1059 0.950 . S
C1053 C1051 1.387 . S
C1053 C1055 1.390 . S
C1053 H1057 0.950 . S
H1054 C1050 0.950 . S
C1055 C1053 1.390 . S
C1055 C1056 1.387 . S
C1055 H1058 0.950 . S
C1056 C1055 1.387 . S
C1056 C1059 1.387 . S
H1057 C1053 0.950 . S
H1058 C1055 0.950 . S
C1059 C1050 1.390 . S
C1059 H1052 0.950 . S
C1059 C1056 1.387 . S
C1060 C1061 1.387 . S
C1060 H1064 0.950 . S
C1060 C1069 1.390 . S
C1061 C1060 1.387 . S
C1061 C1063 1.387 . S
H1062 C1069 0.950 . S
C1063 C1061 1.387 . S
C1063 C1065 1.390 . S
C1063 H1067 0.950 . S
H1064 C1060 0.950 . S
C1065 C1063 1.390 . S
C1065 C1066 1.387 . S
C1065 H1068 0.950 . S
C1066 C1065 1.387 . S
C1066 C1069 1.387 . S
H1067 C1063 0.950 . S
H1068 C1065 0.950 . S
C1069 C1060 1.390 . S
C1069 H1062 0.950 . S
C1069 C1066 1.387 . S
C1070 C1071 1.387 . S
C1070 H1074 0.950 . S
C1070 C1079 1.390 . S
C1071 C1070 1.387 . S
C1071 C1073 1.387 . S
H1072 C1079 0.950 . S
C1073 C1071 1.387 . S
C1073 C1075 1.390 . S
C1073 H1077 0.950 . S
H1074 C1070 0.950 . S
C1075 C1073 1.390 . S
C1075 C1076 1.387 . S
C1075 H1078 0.950 . S
C1076 C1075 1.387 . S
C1076 C1079 1.387 . S
H1077 C1073 0.950 . S
H1078 C1075 0.950 . S
C1079 C1070 1.390 . S
C1079 H1072 0.950 . S
C1079 C1076 1.387 . S
C1080 C1081 1.387 . S
C1080 H1084 0.950 . S
C1080 C1089 1.390 . S
C1081 C1080 1.387 . S
C1081 C1083 1.387 . S
H1082 C1089 0.950 . S
C1083 C1081 1.387 . S
C1083 C1085 1.390 . S
C1083 H1087 0.950 . S
H1084 C1080 0.950 . S
C1085 C1083 1.390 . S
C1085 C1086 1.387 . S
C1085 H1088 0.950 . S
C1086 C1085 1.387 . S
C1086 C1089 1.387 . S
H1087 C1083 0.950 . S
H1088 C1085 0.950 . S
C1089 C1080 1.390 . S
C1089 H1082 0.950 . S
C1089 C1086 1.387 . S
C1090 C1091 1.387 . S
C1090 H1094 0.950 . S
C1090 C1099 1.390 . S
C1091 C1090 1.387 . S
C1091 C1093 1.387 . S
H1092 C1099 0.950 . S
C1093 C1091 1.387 . S
C1093 C1095 1.390 . S
C1093 H1097 0.950 . S
H1094 C1090 0.950 . S
C1095 C1093 1.390 . S
C1095 C1096 1.387 . S
C1095 H1098 0.950 . S
C1096 C1095 1.387 . S
C1096 C1099 1.387 . S
H1097 C1093 0.950 . S
H1098 C1095 0.950 . S
C1099 C1090 1.390 . S
C1099 H1092 0.950 . S
C1099 C1096 1.387 . S
C1100 C1101 1.387 . S
C1100 H1104 0.950 . S
C1100 C1109 1.390 . S
C1101 C1100 1.387 . S
C1101 C1103 1.387 . S
H1102 C1109 0.950 . S
C1103 C1101 1.387 . S
C1103 C1105 1.390 . S
C1103 H1107 0.950 . S
H1104 C1100 0.950 . S
C1105 C1103 1.390 . S
C1105 C1106 1.387 . S
C1105 H1108 0.950 . S
C1106 C1105 1.387 . S
C1106 C1109 1.387 . S
H1107 C1103 0.950 . S
H1108 C1105 0.950 . S
C1109 C1100 1.390 . S
C1109 H1102 0.950 . S
C1109 C1106 1.387 . S
C1110 C1111 1.387 . S
C1110 H1114 0.950 . S
C1110 C1119 1.390 . S
C1111 C1110 1.387 . S
C1111 C1113 1.387 . S
H1112 C1119 0.950 . S
C1113 C1111 1.387 . S
C1113 C1115 1.390 . S
C1113 H1117 0.950 . S
H1114 C1110 0.950 . S
C1115 C1113 1.390 . S
C1115 C1116 1.387 . S
C1115 H1118 0.950 . S
C1116 C1115 1.387 . S
C1116 C1119 1.387 . S
H1117 C1113 0.950 . S
H1118 C1115 0.950 . S
C1119 C1110 1.390 . S
C1119 H1112 0.950 . S
C1119 C1116 1.387 . S
C641 C11 1.593 . S
C646 C371 1.593 . S
C651 C51 1.593 . S
C656 C331 1.593 . S
C661 C451 1.592 . S
C666 C91 1.592 . S
C671 C131 1.592 . S
C676 C411 1.592 . S
C681 C522 1.592 . S
C686 C162 1.592 . S
C691 C482 1.593 . S
C696 C202 1.593 . S
C701 C602 1.593 . S
C706 C242 1.593 . S
C711 C282 1.592 . S
C716 C562 1.592 . S
C721 C99 1.776 . S
C726 C19 1.776 . S
C731 C139 1.777 . S
C736 C59 1.777 . S
C741 C250 1.777 . S
C746 C170 1.777 . S
C751 C210 1.777 . S
C756 C290 1.777 . S
C761 C419 1.776 . S
C766 C339 1.776 . S
C771 C459 1.776 . S
C776 C379 1.776 . S
C781 C490 1.777 . S
C786 C570 1.777 . S
C791 C530 1.777 . S
C796 C610 1.777 . S
C801 C219 1.533 . S
C806 C10 1.533 . S
C811 C179 1.531 . S
C816 C50 1.534 . S
C821 C90 1.535 . S
C826 C299 1.531 . S
C831 C259 1.532 . S
C836 C130 1.534 . S
C841 C330 1.535 . S
C846 C539 1.531 . S
C851 C499 1.533 . S
C856 C370 1.533 . S
C861 C410 1.532 . S
C866 C619 1.534 . S
C871 C579 1.531 . S
C876 C450 1.535 . S
C881 C42 1.631 . S
C886 C2 1.631 . S
C891 C122 1.631 . S
C896 C82 1.631 . S
C901 C211 1.634 . S
C906 C171 1.634 . S
C911 C251 1.631 . S
C916 C291 1.631 . S
C921 C362 1.634 . S
C926 C322 1.634 . S
C931 C442 1.634 . S
C936 C402 1.634 . S
C941 C491 1.634 . S
C946 C531 1.634 . S
C951 C571 1.631 . S
C956 C611 1.631 . S
C961 C7 1.514 . S
C966 C16 1.514 . S
C971 C47 1.516 . S
C976 C56 1.516 . S
C981 C87 1.513 . S
C986 C96 1.513 . S
C991 C136 1.514 . S
C996 C127 1.514 . S
C1001 C176 1.513 . S
C1006 C167 1.513 . S
C1011 C207 1.514 . S
C1016 C216 1.514 . S
C1021 C256 1.513 . S
C1026 C247 1.513 . S
C1031 C296 1.515 . S
C1036 C287 1.515 . S
C1041 C336 1.516 1_545 S
C1046 C327 1.516 . S
C1051 C367 1.516 . S
C1056 C376 1.516 1_565 S
C1061 C416 1.513 1_565 S
C1066 C407 1.513 . S
C1071 C456 1.515 1_545 S
C1076 C447 1.515 . S
C1081 C496 1.513 . S
C1086 C487 1.513 1_565 S
C1091 C536 1.516 . S
C1096 C527 1.516 1_545 S
C1101 C567 1.516 1_545 S
C1106 C576 1.516 . S
C1111 C616 1.516 . S
C1116 C607 1.516 1_565 S
