# Generated by pormake.
# Topology wgq, (5)-cn, num edge types: 1
# Building blocks:
#     Node 0, Type 0, BuildingBlock: BEQFEK_clean_sbu_0, # of connection points: 5
#     Node 1, Type 0, BuildingBlock: BEQFEK_clean_sbu_0, # of connection points: 5
#     Node 2, Type 0, BuildingBlock: BEQFEK_clean_sbu_0, # of connection points: 5
#     Node 3, Type 0, BuildingBlock: BEQFEK_clean_sbu_0, # of connection points: 5
#     Node 4, Type 0, BuildingBlock: BEQFEK_clean_sbu_0, # of connection points: 5
#     Node 5, Type 0, BuildingBlock: BEQFEK_clean_sbu_0, # of connection points: 5
#     Node 6, Type 0, BuildingBlock: BEQFEK_clean_sbu_0, # of connection points: 5
#     Node 7, Type 0, BuildingBlock: BEQFEK_clean_sbu_0, # of connection points: 5
#     Node 8, Type 0, BuildingBlock: BEQFEK_clean_sbu_0, # of connection points: 5
#     Node 9, Type 0, BuildingBlock: BEQFEK_clean_sbu_0, # of connection points: 5
#     Node 10, Type 0, BuildingBlock: BEQFEK_clean_sbu_0, # of connection points: 5
#     Node 11, Type 0, BuildingBlock: BEQFEK_clean_sbu_0, # of connection points: 5
#     Node 12, Type 0, BuildingBlock: BEQFEK_clean_sbu_0, # of connection points: 5
#     Node 13, Type 0, BuildingBlock: BEQFEK_clean_sbu_0, # of connection points: 5
#     Node 14, Type 0, BuildingBlock: BEQFEK_clean_sbu_0, # of connection points: 5
#     Node 15, Type 0, BuildingBlock: BEQFEK_clean_sbu_0, # of connection points: 5
#     Node 16, Type 0, BuildingBlock: BEQFEK_clean_sbu_0, # of connection points: 5
#     Node 17, Type 0, BuildingBlock: BEQFEK_clean_sbu_0, # of connection points: 5
#     Node 18, Type 0, BuildingBlock: BEQFEK_clean_sbu_0, # of connection points: 5
#     Node 19, Type 0, BuildingBlock: BEQFEK_clean_sbu_0, # of connection points: 5
#     Node 20, Type 0, BuildingBlock: BEQFEK_clean_sbu_0, # of connection points: 5
#     Node 21, Type 0, BuildingBlock: BEQFEK_clean_sbu_0, # of connection points: 5
#     Node 22, Type 0, BuildingBlock: BEQFEK_clean_sbu_0, # of connection points: 5
#     Node 23, Type 0, BuildingBlock: BEQFEK_clean_sbu_0, # of connection points: 5
#     Node 24, Type 0, BuildingBlock: BEQFEK_clean_sbu_0, # of connection points: 5
#     Node 25, Type 0, BuildingBlock: BEQFEK_clean_sbu_0, # of connection points: 5
#     Node 26, Type 0, BuildingBlock: BEQFEK_clean_sbu_0, # of connection points: 5
#     Node 27, Type 0, BuildingBlock: BEQFEK_clean_sbu_0, # of connection points: 5
#     Node 28, Type 0, BuildingBlock: BEQFEK_clean_sbu_0, # of connection points: 5
#     Node 29, Type 0, BuildingBlock: BEQFEK_clean_sbu_0, # of connection points: 5
#     Node 30, Type 0, BuildingBlock: BEQFEK_clean_sbu_0, # of connection points: 5
#     Node 31, Type 0, BuildingBlock: BEQFEK_clean_sbu_0, # of connection points: 5
#     Edge 32, Type (0, 0), BuildingBlock: ZUJKAS_clean_linker_0, # of connection points: 2
#     Edge 33, Type (0, 0), BuildingBlock: ZUJKAS_clean_linker_0, # of connection points: 2
#     Edge 34, Type (0, 0), BuildingBlock: ZUJKAS_clean_linker_0, # of connection points: 2
#     Edge 35, Type (0, 0), BuildingBlock: ZUJKAS_clean_linker_0, # of connection points: 2
#     Edge 36, Type (0, 0), BuildingBlock: ZUJKAS_clean_linker_0, # of connection points: 2
#     Edge 37, Type (0, 0), BuildingBlock: ZUJKAS_clean_linker_0, # of connection points: 2
#     Edge 38, Type (0, 0), BuildingBlock: ZUJKAS_clean_linker_0, # of connection points: 2
#     Edge 39, Type (0, 0), BuildingBlock: ZUJKAS_clean_linker_0, # of connection points: 2
#     Edge 40, Type (0, 0), BuildingBlock: ZUJKAS_clean_linker_0, # of connection points: 2
#     Edge 41, Type (0, 0), BuildingBlock: ZUJKAS_clean_linker_0, # of connection points: 2
#     Edge 42, Type (0, 0), BuildingBlock: ZUJKAS_clean_linker_0, # of connection points: 2
#     Edge 43, Type (0, 0), BuildingBlock: ZUJKAS_clean_linker_0, # of connection points: 2
#     Edge 44, Type (0, 0), BuildingBlock: ZUJKAS_clean_linker_0, # of connection points: 2
#     Edge 45, Type (0, 0), BuildingBlock: ZUJKAS_clean_linker_0, # of connection points: 2
#     Edge 46, Type (0, 0), BuildingBlock: ZUJKAS_clean_linker_0, # of connection points: 2
#     Edge 47, Type (0, 0), BuildingBlock: ZUJKAS_clean_linker_0, # of connection points: 2
#     Edge 48, Type (0, 0), BuildingBlock: ZUJKAS_clean_linker_0, # of connection points: 2
#     Edge 49, Type (0, 0), BuildingBlock: ZUJKAS_clean_linker_0, # of connection points: 2
#     Edge 50, Type (0, 0), BuildingBlock: ZUJKAS_clean_linker_0, # of connection points: 2
#     Edge 51, Type (0, 0), BuildingBlock: ZUJKAS_clean_linker_0, # of connection points: 2
#     Edge 52, Type (0, 0), BuildingBlock: ZUJKAS_clean_linker_0, # of connection points: 2
#     Edge 53, Type (0, 0), BuildingBlock: ZUJKAS_clean_linker_0, # of connection points: 2
#     Edge 54, Type (0, 0), BuildingBlock: ZUJKAS_clean_linker_0, # of connection points: 2
#     Edge 55, Type (0, 0), BuildingBlock: ZUJKAS_clean_linker_0, # of connection points: 2
#     Edge 56, Type (0, 0), BuildingBlock: ZUJKAS_clean_linker_0, # of connection points: 2
#     Edge 57, Type (0, 0), BuildingBlock: ZUJKAS_clean_linker_0, # of connection points: 2
#     Edge 58, Type (0, 0), BuildingBlock: ZUJKAS_clean_linker_0, # of connection points: 2
#     Edge 59, Type (0, 0), BuildingBlock: ZUJKAS_clean_linker_0, # of connection points: 2
#     Edge 60, Type (0, 0), BuildingBlock: ZUJKAS_clean_linker_0, # of connection points: 2
#     Edge 61, Type (0, 0), BuildingBlock: ZUJKAS_clean_linker_0, # of connection points: 2
#     Edge 62, Type (0, 0), BuildingBlock: ZUJKAS_clean_linker_0, # of connection points: 2
#     Edge 63, Type (0, 0), BuildingBlock: ZUJKAS_clean_linker_0, # of connection points: 2
#     Edge 64, Type (0, 0), BuildingBlock: ZUJKAS_clean_linker_0, # of connection points: 2
#     Edge 65, Type (0, 0), BuildingBlock: ZUJKAS_clean_linker_0, # of connection points: 2
#     Edge 66, Type (0, 0), BuildingBlock: ZUJKAS_clean_linker_0, # of connection points: 2
#     Edge 67, Type (0, 0), BuildingBlock: ZUJKAS_clean_linker_0, # of connection points: 2
#     Edge 68, Type (0, 0), BuildingBlock: ZUJKAS_clean_linker_0, # of connection points: 2
#     Edge 69, Type (0, 0), BuildingBlock: ZUJKAS_clean_linker_0, # of connection points: 2
#     Edge 70, Type (0, 0), BuildingBlock: ZUJKAS_clean_linker_0, # of connection points: 2
#     Edge 71, Type (0, 0), BuildingBlock: ZUJKAS_clean_linker_0, # of connection points: 2
#     Edge 72, Type (0, 0), BuildingBlock: ZUJKAS_clean_linker_0, # of connection points: 2
#     Edge 73, Type (0, 0), BuildingBlock: ZUJKAS_clean_linker_0, # of connection points: 2
#     Edge 74, Type (0, 0), BuildingBlock: ZUJKAS_clean_linker_0, # of connection points: 2
#     Edge 75, Type (0, 0), BuildingBlock: ZUJKAS_clean_linker_0, # of connection points: 2
#     Edge 76, Type (0, 0), BuildingBlock: ZUJKAS_clean_linker_0, # of connection points: 2
#     Edge 77, Type (0, 0), BuildingBlock: ZUJKAS_clean_linker_0, # of connection points: 2
#     Edge 78, Type (0, 0), BuildingBlock: ZUJKAS_clean_linker_0, # of connection points: 2
#     Edge 79, Type (0, 0), BuildingBlock: ZUJKAS_clean_linker_0, # of connection points: 2
#     Edge 80, Type (0, 0), BuildingBlock: ZUJKAS_clean_linker_0, # of connection points: 2
#     Edge 81, Type (0, 0), BuildingBlock: ZUJKAS_clean_linker_0, # of connection points: 2
#     Edge 82, Type (0, 0), BuildingBlock: ZUJKAS_clean_linker_0, # of connection points: 2
#     Edge 83, Type (0, 0), BuildingBlock: ZUJKAS_clean_linker_0, # of connection points: 2
#     Edge 84, Type (0, 0), BuildingBlock: ZUJKAS_clean_linker_0, # of connection points: 2
#     Edge 85, Type (0, 0), BuildingBlock: ZUJKAS_clean_linker_0, # of connection points: 2
#     Edge 86, Type (0, 0), BuildingBlock: ZUJKAS_clean_linker_0, # of connection points: 2
#     Edge 87, Type (0, 0), BuildingBlock: ZUJKAS_clean_linker_0, # of connection points: 2
#     Edge 88, Type (0, 0), BuildingBlock: ZUJKAS_clean_linker_0, # of connection points: 2
#     Edge 89, Type (0, 0), BuildingBlock: ZUJKAS_clean_linker_0, # of connection points: 2
#     Edge 90, Type (0, 0), BuildingBlock: ZUJKAS_clean_linker_0, # of connection points: 2
#     Edge 91, Type (0, 0), BuildingBlock: ZUJKAS_clean_linker_0, # of connection points: 2
#     Edge 92, Type (0, 0), BuildingBlock: ZUJKAS_clean_linker_0, # of connection points: 2
#     Edge 93, Type (0, 0), BuildingBlock: ZUJKAS_clean_linker_0, # of connection points: 2
#     Edge 94, Type (0, 0), BuildingBlock: ZUJKAS_clean_linker_0, # of connection points: 2
#     Edge 95, Type (0, 0), BuildingBlock: ZUJKAS_clean_linker_0, # of connection points: 2
#     Edge 96, Type (0, 0), BuildingBlock: ZUJKAS_clean_linker_0, # of connection points: 2
#     Edge 97, Type (0, 0), BuildingBlock: ZUJKAS_clean_linker_0, # of connection points: 2
#     Edge 98, Type (0, 0), BuildingBlock: ZUJKAS_clean_linker_0, # of connection points: 2
#     Edge 99, Type (0, 0), BuildingBlock: ZUJKAS_clean_linker_0, # of connection points: 2
#     Edge 100, Type (0, 0), BuildingBlock: ZUJKAS_clean_linker_0, # of connection points: 2
#     Edge 101, Type (0, 0), BuildingBlock: ZUJKAS_clean_linker_0, # of connection points: 2
#     Edge 102, Type (0, 0), BuildingBlock: ZUJKAS_clean_linker_0, # of connection points: 2
#     Edge 103, Type (0, 0), BuildingBlock: ZUJKAS_clean_linker_0, # of connection points: 2
#     Edge 104, Type (0, 0), BuildingBlock: ZUJKAS_clean_linker_0, # of connection points: 2
#     Edge 105, Type (0, 0), BuildingBlock: ZUJKAS_clean_linker_0, # of connection points: 2
#     Edge 106, Type (0, 0), BuildingBlock: ZUJKAS_clean_linker_0, # of connection points: 2
#     Edge 107, Type (0, 0), BuildingBlock: ZUJKAS_clean_linker_0, # of connection points: 2
#     Edge 108, Type (0, 0), BuildingBlock: ZUJKAS_clean_linker_0, # of connection points: 2
#     Edge 109, Type (0, 0), BuildingBlock: ZUJKAS_clean_linker_0, # of connection points: 2
#     Edge 110, Type (0, 0), BuildingBlock: ZUJKAS_clean_linker_0, # of connection points: 2
#     Edge 111, Type (0, 0), BuildingBlock: ZUJKAS_clean_linker_0, # of connection points: 2
# Relax obj value: 0.092
# Max RMSD: 0.135
# Mean RMSD: 0.135
data_MOF--net-wgq--node1-BEQFEK_clean_sbu_0--edge1-ZUJKAS_clean_linker_0
_symmetry_space_group_name_H-M    P1
_symmetry_Int_Tables_number       1
_symmetry_cell_setting            triclinic
loop_
_symmetry_equiv_pos_as_xyz
'x, y, z'
_cell_length_a     39.320536
_cell_length_b     39.320797
_cell_length_c     189.23502
_cell_angle_alpha  90.000726
_cell_angle_beta   89.998016
_cell_angle_gamma 89.997282
loop_
_atom_site_label
_atom_site_type_symbol
_atom_site_fract_x
_atom_site_fract_y
_atom_site_fract_z
_atom_type_partial_charge
Co0 Co 0.14982 0.05683 0.176 0.0
Co1 Co 0.14761 0.06587 0.19245 0.0
C2 C 0.10071 0.01741 0.18496 0.0
O3 O 0.11368 0.02429 0.17894 0.0
O4 O 0.1121 0.03099 0.1906 0.0
C5 C 0.13744 0.04625 0.16118 0.0
O6 O 0.10572 0.04179 0.16316 0.0
C7 C 0.14914 0.04942 0.20758 0.0
C8 C 0.16243 0.09919 0.21225 0.0
C9 C 0.15497 0.06576 0.21397 0.0
N10 N 0.15285 0.07222 0.20235 0.0
N11 N 0.16065 0.10194 0.20518 0.0
C12 C 0.1423 0.01246 0.20635 0.0
H13 H 0.15209 0.00465 0.2011 0.0
H14 H 0.15426 0.99672 0.21054 0.0
H15 H 0.11443 0.00807 0.20644 0.0
C16 C 0.22296 0.04671 0.17916 0.0
N17 N 0.19059 0.05167 0.18125 0.0
N18 N 0.18988 0.05514 0.18816 0.0
C19 C 0.22184 0.05238 0.1907 0.0
C20 C 0.24392 0.04709 0.18507 0.0
C21 C 0.23343 0.04169 0.17163 0.0
H22 H 0.21712 0.02196 0.16917 0.0
H23 H 0.26044 0.03381 0.17119 0.0
H24 H 0.22958 0.06579 0.16868 0.0
O25 O 0.1304 0.10294 0.17714 0.0
O26 O 0.12936 0.10914 0.18879 0.0
H27 H 0.25896 0.05526 0.19918 0.0
H28 H 0.21759 0.03881 0.2016 0.0
C29 C 0.2312 0.05766 0.19828 0.0
H30 H 0.22301 0.08341 0.19996 0.0
H31 H 0.16489 0.12408 0.20227 0.0
O32 O 0.16 0.05191 0.16583 0.0
C33 C 0.12321 0.12037 0.18261 0.0
Co34 Co 0.19884 0.9003 0.4259 0.0
Co35 Co 0.19033 0.89803 0.44241 0.0
C36 C 0.23767 0.85049 0.43472 0.0
O37 O 0.23098 0.86377 0.42873 0.0
O38 O 0.22423 0.86185 0.44037 0.0
C39 C 0.19571 0.88874 0.4111 0.0
O40 O 0.18441 0.85886 0.41314 0.0
C41 C 0.20686 0.90168 0.45771 0.0
C42 C 0.15569 0.91041 0.46219 0.0
C43 C 0.1895 0.90623 0.46406 0.0
N44 N 0.18426 0.9034 0.45238 0.0
N45 N 0.15378 0.90868 0.45511 0.0
C46 C 0.24395 0.89445 0.45674 0.0
H47 H 0.2488 0.88221 0.45158 0.0
H48 H 0.25825 0.91876 0.45686 0.0
H49 H 0.25354 0.87789 0.46105 0.0
C50 C 0.20897 0.97327 0.42904 0.0
N51 N 0.20449 0.94088 0.43116 0.0
N52 N 0.20115 0.94019 0.43808 0.0
C53 C 0.20349 0.97223 0.44058 0.0
C54 C 0.20849 0.9943 0.43494 0.0
C55 C 0.2101 0.9839 0.42144 0.0
H56 H 0.18773 0.97325 0.41864 0.0
H57 H 0.2333 0.97328 0.41894 0.0
H58 H 0.20999 0.01193 0.42083 0.0
O59 O 0.15248 0.88161 0.42711 0.0
O60 O 0.14665 0.88044 0.43877 0.0
H61 H 0.17469 0.97596 0.45013 0.0
H62 H 0.20687 0.00858 0.44918 0.0
C63 C 0.20083 0.9814 0.44824 0.0
H64 H 0.21874 0.96555 0.45133 0.0
H65 H 0.13157 0.91081 0.45213 0.0
O66 O 0.20457 0.9103 0.41574 0.0
C67 C 0.13513 0.87459 0.4326 0.0
Co68 Co 0.34864 0.94291 0.67609 0.0
Co69 Co 0.35078 0.93379 0.69253 0.0
C70 C 0.39805 0.98186 0.68507 0.0
O71 O 0.38502 0.97504 0.67906 0.0
O72 O 0.38661 0.96833 0.69072 0.0
C73 C 0.36221 0.95112 0.66134 0.0
O74 O 0.39412 0.95117 0.6634 0.0
C75 C 0.35007 0.95007 0.70768 0.0
C76 C 0.33283 0.90144 0.71231 0.0
C77 C 0.34253 0.93426 0.71405 0.0
N78 N 0.34519 0.92753 0.70244 0.0
N79 N 0.33506 0.89847 0.70524 0.0
C80 C 0.35901 0.9866 0.70648 0.0
H81 H 0.3498 0.99502 0.70122 0.0
H82 H 0.34783 0.00299 0.71065 0.0
H83 H 0.38708 0.98941 0.70661 0.0
C84 C 0.27554 0.95301 0.6792 0.0
N85 N 0.30789 0.94818 0.68131 0.0
N86 N 0.3086 0.94495 0.68823 0.0
C87 C 0.27665 0.94795 0.69075 0.0
C88 C 0.25455 0.95303 0.68511 0.0
C89 C 0.26489 0.95413 0.6716 0.0
H90 H 0.27596 0.93206 0.66877 0.0
H91 H 0.27506 0.97761 0.66913 0.0
H92 H 0.23686 0.95349 0.67099 0.0
O93 O 0.36737 0.89658 0.67717 0.0
O94 O 0.36863 0.89026 0.68882 0.0
H95 H 0.27009 0.91973 0.7003 0.0
H96 H 0.24119 0.95522 0.69939 0.0
C97 C 0.26756 0.94633 0.69842 0.0
H98 H 0.28531 0.96242 0.7015 0.0
H99 H 0.32934 0.87672 0.70232 0.0
O100 O 0.33882 0.9489 0.66594 0.0
C101 C 0.37446 0.87901 0.68263 0.0
Co102 Co 0.31462 0.09972 0.92576 0.0
Co103 Co 0.31892 0.10233 0.94229 0.0
C104 C 0.27255 0.14892 0.93415 0.0
O105 O 0.28118 0.13577 0.92825 0.0
O106 O 0.28454 0.13778 0.93997 0.0
C107 C 0.28806 0.09227 0.91142 0.0
O108 O 0.25827 0.10074 0.91402 0.0
C109 C 0.29767 0.09951 0.95719 0.0
C110 C 0.34633 0.08757 0.96249 0.0
C111 C 0.31217 0.09358 0.96377 0.0
N112 N 0.3222 0.09715 0.95227 0.0
N113 N 0.35124 0.09021 0.95548 0.0
C114 C 0.26094 0.10508 0.95549 0.0
H115 H 0.25529 0.09593 0.95006 0.0
H116 H 0.2444 0.09177 0.95935 0.0
H117 H 0.25535 0.13272 0.95571 0.0
C118 C 0.30353 0.02647 0.92884 0.0
N119 N 0.30801 0.05891 0.93095 0.0
N120 N 0.30962 0.05985 0.93789 0.0
C121 C 0.3061 0.02797 0.94043 0.0
C122 C 0.30221 0.0057 0.93478 0.0
C123 C 0.30007 0.01585 0.92128 0.0
H124 H 0.27899 0.03031 0.91881 0.0
H125 H 0.29468 0.98829 0.92076 0.0
H126 H 0.32382 0.02215 0.9184 0.0
O127 O 0.36017 0.11917 0.92754 0.0
O128 O 0.36327 0.12069 0.93923 0.0
H129 H 0.33397 0.02807 0.95012 0.0
H130 H 0.30771 0.99099 0.94895 0.0
C131 C 0.30923 0.01882 0.94808 0.0
H132 H 0.28872 0.03158 0.9511 0.0
H133 H 0.37437 0.08697 0.95286 0.0
O134 O 0.31365 0.09036 0.9155 0.0
C135 C 0.37612 0.12659 0.93318 0.0
Co136 Co 0.15152 0.94569 0.32328 0.0
Co137 Co 0.15001 0.93972 0.30676 0.0
C138 C 0.10212 0.9861 0.31451 0.0
O139 O 0.1149 0.97817 0.32049 0.0
O140 O 0.11396 0.97381 0.30878 0.0
C141 C 0.14854 0.96956 0.33791 0.0
O142 O 0.1271 0.9929 0.33571 0.0
C143 C 0.15015 0.95681 0.29161 0.0
C144 C 0.16974 0.90907 0.28697 0.0
C145 C 0.15841 0.94137 0.28524 0.0
N146 N 0.15619 0.93454 0.29685 0.0
N147 N 0.16775 0.90603 0.29404 0.0
C148 C 0.13912 0.99276 0.2928 0.0
H149 H 0.14814 0.00181 0.29803 0.0
H150 H 0.14905 0.0097 0.28859 0.0
H151 H 0.11093 0.99389 0.29275 0.0
C152 C 0.22479 0.95697 0.32034 0.0
N153 N 0.19249 0.95224 0.31816 0.0
N154 N 0.19196 0.95025 0.31123 0.0
C155 C 0.22393 0.95397 0.30876 0.0
C156 C 0.2459 0.95816 0.31445 0.0
C157 C 0.23528 0.95713 0.32795 0.0
H158 H 0.22476 0.93431 0.33062 0.0
H159 H 0.22441 0.97989 0.33058 0.0
H160 H 0.26331 0.95718 0.32858 0.0
O161 O 0.13297 0.89956 0.32175 0.0
O162 O 0.1321 0.8956 0.31007 0.0
H163 H 0.23187 0.92755 0.29904 0.0
H164 H 0.25922 0.96402 0.30022 0.0
C165 C 0.2332 0.95394 0.30109 0.0
H166 H 0.21487 0.96976 0.2981 0.0
H167 H 0.17449 0.88456 0.29696 0.0
O168 O 0.16106 0.94862 0.33352 0.0
C169 C 0.12609 0.88309 0.31614 0.0
Co170 Co 0.30404 0.90205 0.57333 0.0
Co171 Co 0.31396 0.8998 0.5569 0.0
C172 C 0.2655 0.85259 0.56434 0.0
O173 O 0.27184 0.86577 0.57035 0.0
O174 O 0.27941 0.86395 0.55872 0.0
C175 C 0.29368 0.88913 0.5881 0.0
O176 O 0.29038 0.85735 0.58607 0.0
C177 C 0.29737 0.90121 0.54178 0.0
C178 C 0.34655 0.91642 0.53709 0.0
C179 C 0.31331 0.90809 0.53538 0.0
N180 N 0.32022 0.90518 0.54699 0.0
N181 N 0.3496 0.9141 0.54415 0.0
C182 C 0.26057 0.89368 0.54303 0.0
H183 H 0.25277 0.90293 0.54833 0.0
H184 H 0.24446 0.90573 0.53891 0.0
H185 H 0.25661 0.86575 0.54285 0.0
C186 C 0.29439 0.97518 0.57018 0.0
N187 N 0.29899 0.94277 0.56808 0.0
N188 N 0.30293 0.94206 0.56118 0.0
C189 C 0.30087 0.9741 0.55866 0.0
C190 C 0.29549 0.9962 0.56429 0.0
C191 C 0.29257 0.98581 0.57777 0.0
H192 H 0.31511 0.97581 0.58062 0.0
H193 H 0.26958 0.9745 0.58023 0.0
H194 H 0.29183 0.01383 0.57838 0.0
O195 O 0.35033 0.88306 0.57226 0.0
O196 O 0.35736 0.882 0.56063 0.0
H197 H 0.33084 0.97919 0.54931 0.0
H198 H 0.29711 0.01026 0.55005 0.0
C199 C 0.30419 0.98335 0.55103 0.0
H200 H 0.28749 0.96673 0.54782 0.0
H201 H 0.37164 0.91892 0.54705 0.0
O202 O 0.29844 0.91206 0.58348 0.0
C203 C 0.36822 0.87605 0.56685 0.0
Co204 Co 0.34892 0.0522 0.8231 0.0
Co205 Co 0.35213 0.06185 0.80666 0.0
C206 C 0.39777 0.01243 0.81409 0.0
O207 O 0.38483 0.01951 0.8201 0.0
O208 O 0.38674 0.02623 0.80845 0.0
C209 C 0.36106 0.04607 0.83795 0.0
O210 O 0.39297 0.05033 0.83609 0.0
C211 C 0.35163 0.04656 0.79147 0.0
C212 C 0.33603 0.09594 0.78693 0.0
C213 C 0.34481 0.06294 0.78513 0.0
N214 N 0.34723 0.06892 0.79676 0.0
N215 N 0.3381 0.09844 0.79401 0.0
C216 C 0.35937 0.00969 0.79259 0.0
H217 H 0.34982 0.00129 0.79782 0.0
H218 H 0.3477 0.9939 0.78837 0.0
H219 H 0.38733 0.00596 0.79246 0.0
C220 C 0.27574 0.04422 0.81978 0.0
N221 N 0.30834 0.04829 0.81775 0.0
N222 N 0.30954 0.05164 0.81085 0.0
C223 C 0.2777 0.0494 0.80823 0.0
C224 C 0.25515 0.04477 0.81381 0.0
C225 C 0.26457 0.04315 0.82734 0.0
H226 H 0.2765 0.06449 0.83027 0.0
H227 H 0.27341 0.01904 0.82977 0.0
H228 H 0.23657 0.0451 0.82788 0.0
O229 O 0.36889 0.09814 0.82219 0.0
O230 O 0.37113 0.10448 0.81055 0.0
H231 H 0.27236 0.07769 0.79866 0.0
H232 H 0.24273 0.04275 0.79949 0.0
C233 C 0.26918 0.05115 0.80054 0.0
H234 H 0.28683 0.0347 0.79751 0.0
H235 H 0.33289 0.12018 0.79698 0.0
O236 O 0.33828 0.04517 0.8332 0.0
C237 C 0.3769 0.1155 0.81676 0.0
Co238 Co 0.1976 0.09649 0.07312 0.0
Co239 Co 0.18914 0.09951 0.05661 0.0
C240 C 0.23665 0.1466 0.06439 0.0
O241 O 0.22994 0.13304 0.07035 0.0
O242 O 0.22316 0.13555 0.05871 0.0
C243 C 0.20424 0.10973 0.08787 0.0
O244 O 0.20418 0.14158 0.08576 0.0
C245 C 0.20484 0.09693 0.04124 0.0
C246 C 0.15347 0.08773 0.0369 0.0
C247 C 0.18707 0.09253 0.03494 0.0
N248 N 0.18266 0.09457 0.04664 0.0
N249 N 0.15207 0.08901 0.04399 0.0
C250 C 0.24188 0.10464 0.04212 0.0
H251 H 0.25651 0.08054 0.04192 0.0
H252 H 0.25094 0.1215 0.03781 0.0
H253 H 0.24691 0.11677 0.04728 0.0
C254 C 0.20774 0.02356 0.06983 0.0
N255 N 0.20318 0.05606 0.06778 0.0
N256 N 0.1999 0.05711 0.06087 0.0
C257 C 0.20232 0.02522 0.05829 0.0
C258 C 0.20732 0.00283 0.06388 0.0
C259 C 0.20898 0.01256 0.0774 0.0
H260 H 0.18648 0.02281 0.08022 0.0
H261 H 0.23203 0.02336 0.07993 0.0
H262 H 0.20922 0.98449 0.07795 0.0
O263 O 0.15133 0.11543 0.07195 0.0
O264 O 0.14551 0.11698 0.0603 0.0
H265 H 0.17358 0.0216 0.04873 0.0
H266 H 0.20628 0.98945 0.0496 0.0
C267 C 0.19982 0.01647 0.05061 0.0
H268 H 0.21746 0.0328 0.04756 0.0
H269 H 0.1301 0.08638 0.04704 0.0
O270 O 0.20275 0.0862 0.08329 0.0
C271 C 0.13399 0.12264 0.06647 0.0
Co272 Co 0.84873 0.9477 0.82289 0.0
Co273 Co 0.85125 0.9368 0.80649 0.0
C274 C 0.89822 0.98571 0.81373 0.0
O275 O 0.88521 0.97938 0.81976 0.0
O276 O 0.88684 0.97167 0.80814 0.0
C277 C 0.86117 0.94988 0.83766 0.0
O278 O 0.89174 0.94031 0.83567 0.0
C279 C 0.85137 0.95097 0.79125 0.0
C280 C 0.83467 0.90166 0.78685 0.0
C281 C 0.84453 0.93423 0.78495 0.0
N282 N 0.846 0.9292 0.79661 0.0
N283 N 0.83615 0.89974 0.79394 0.0
C284 C 0.86024 0.98765 0.79226 0.0
H285 H 0.8505 0.99683 0.79743 0.0
H286 H 0.84949 0.00344 0.78794 0.0
H287 H 0.88831 0.99043 0.79224 0.0
C288 C 0.77562 0.95671 0.81965 0.0
N289 N 0.80809 0.95219 0.81759 0.0
N290 N 0.80901 0.94831 0.81069 0.0
C291 C 0.77709 0.95063 0.80812 0.0
C292 C 0.75479 0.95588 0.81372 0.0
C293 C 0.76475 0.9582 0.82723 0.0
H294 H 0.77666 0.93693 0.83018 0.0
H295 H 0.77383 0.98236 0.8296 0.0
H296 H 0.73675 0.95645 0.82782 0.0
O297 O 0.86742 0.90117 0.82208 0.0
O298 O 0.86905 0.89385 0.81046 0.0
H299 H 0.77074 0.92121 0.79873 0.0
H300 H 0.74191 0.95687 0.79941 0.0
C301 C 0.76823 0.94805 0.80045 0.0
H302 H 0.78611 0.9637 0.7973 0.0
H303 H 0.83024 0.87839 0.79698 0.0
O304 O 0.83877 0.95562 0.83298 0.0
C305 C 0.87466 0.88313 0.8167 0.0
Co306 Co 0.80514 0.10187 0.573 0.0
Co307 Co 0.81528 0.10458 0.55657 0.0
C308 C 0.76676 0.15167 0.56411 0.0
O309 O 0.77298 0.13833 0.57012 0.0
O310 O 0.78077 0.14044 0.5585 0.0
C311 C 0.79949 0.11496 0.58776 0.0
O312 O 0.80128 0.14682 0.5857 0.0
C313 C 0.79885 0.09836 0.54141 0.0
C314 C 0.85034 0.09912 0.53672 0.0
C315 C 0.81614 0.09748 0.535 0.0
N316 N 0.8219 0.10026 0.54664 0.0
N317 N 0.85259 0.10056 0.5438 0.0
C318 C 0.76121 0.09956 0.54255 0.0
H319 H 0.75514 0.10918 0.54791 0.0
H320 H 0.75063 0.07353 0.54208 0.0
H321 H 0.74893 0.11585 0.5385 0.0
C322 C 0.79479 0.0289 0.56969 0.0
N323 N 0.79992 0.06132 0.56765 0.0
N324 N 0.80447 0.06212 0.56077 0.0
C325 C 0.80275 0.03012 0.55821 0.0
C326 C 0.79652 0.00796 0.56379 0.0
C327 C 0.78836 0.0184 0.57718 0.0
H328 H 0.76909 0.03548 0.57957 0.0
H329 H 0.7792 0.99177 0.57752 0.0
H330 H 0.81225 0.02098 0.58025 0.0
O331 O 0.85153 0.12103 0.57197 0.0
O332 O 0.85846 0.12211 0.56035 0.0
H333 H 0.83358 0.03423 0.54892 0.0
H334 H 0.81447 0.99292 0.55011 0.0
C335 C 0.81043 0.02068 0.55072 0.0
H336 H 0.78893 0.0286 0.54731 0.0
H337 H 0.87511 0.10225 0.54669 0.0
O338 O 0.79964 0.09153 0.58314 0.0
C339 C 0.86939 0.12804 0.56655 0.0
Co340 Co 0.65084 0.06254 0.32316 0.0
Co341 Co 0.64968 0.06937 0.30667 0.0
C342 C 0.60236 0.02183 0.31427 0.0
O343 O 0.61485 0.02968 0.32027 0.0
O344 O 0.61419 0.03456 0.30857 0.0
C345 C 0.65022 0.03509 0.33748 0.0
O346 O 0.63233 0.00974 0.3349 0.0
C347 C 0.65247 0.05111 0.29164 0.0
C348 C 0.66582 0.1004 0.28675 0.0
C349 C 0.65868 0.06673 0.28517 0.0
N350 N 0.65566 0.07457 0.29676 0.0
N351 N 0.66355 0.10397 0.29381 0.0
C352 C 0.64618 0.01422 0.29307 0.0
H353 H 0.65511 0.00747 0.29846 0.0
H354 H 0.65933 0.99808 0.28911 0.0
H355 H 0.61845 0.00917 0.29279 0.0
C356 C 0.72433 0.0522 0.32029 0.0
N357 N 0.69206 0.05687 0.31808 0.0
N358 N 0.69173 0.05948 0.31116 0.0
C359 C 0.72383 0.05641 0.30872 0.0
C360 C 0.74564 0.05179 0.31443 0.0
C361 C 0.73456 0.05114 0.3279 0.0
H362 H 0.72368 0.07345 0.33069 0.0
H363 H 0.7239 0.02789 0.33038 0.0
H364 H 0.76257 0.05134 0.32857 0.0
O365 O 0.63148 0.10844 0.32172 0.0
O366 O 0.63077 0.11298 0.31004 0.0
H367 H 0.72928 0.08351 0.299 0.0
H368 H 0.76012 0.04984 0.30019 0.0
C369 C 0.73327 0.05741 0.30106 0.0
H370 H 0.71659 0.0399 0.29806 0.0
H371 H 0.66748 0.12646 0.29662 0.0
O372 O 0.65999 0.0588 0.3334 0.0
C373 C 0.62434 0.12504 0.31614 0.0
Co374 Co 0.69437 0.89971 0.07385 0.0
Co375 Co 0.69347 0.89866 0.05726 0.0
C376 C 0.7387 0.85176 0.06549 0.0
O377 O 0.72828 0.86399 0.07135 0.0
O378 O 0.72821 0.86361 0.0596 0.0
C379 C 0.72067 0.91054 0.0881 0.0
O380 O 0.75121 0.90814 0.08533 0.0
C381 C 0.71024 0.89568 0.04199 0.0
C382 C 0.66713 0.92451 0.03748 0.0
C383 C 0.69667 0.90747 0.03566 0.0
N384 N 0.68989 0.90591 0.0473 0.0
N385 N 0.66406 0.92284 0.04455 0.0
C386 C 0.73975 0.87217 0.043 0.0
H387 H 0.73154 0.85043 0.04631 0.0
H388 H 0.76037 0.88572 0.04585 0.0
H389 H 0.74945 0.86199 0.03793 0.0
C390 C 0.70442 0.97354 0.07118 0.0
N391 N 0.70118 0.94117 0.06892 0.0
N392 N 0.702 0.94071 0.06197 0.0
C393 C 0.70667 0.97277 0.0596 0.0
C394 C 0.70804 0.99469 0.06535 0.0
C395 C 0.70102 0.9842 0.07874 0.0
H396 H 0.68029 0.96963 0.08131 0.0
H397 H 0.72513 0.97861 0.08156 0.0
H398 H 0.69541 0.01175 0.07922 0.0
O399 O 0.64928 0.88054 0.07177 0.0
O400 O 0.64897 0.87915 0.06007 0.0
H401 H 0.68564 0.98503 0.04951 0.0
H402 H 0.72488 0.00667 0.05145 0.0
C403 C 0.71103 0.98221 0.05199 0.0
H404 H 0.72534 0.96209 0.04917 0.0
H405 H 0.64429 0.93334 0.04752 0.0
O406 O 0.69471 0.90759 0.08416 0.0
C407 C 0.63476 0.87305 0.06598 0.0
Co408 Co 0.84897 0.05651 0.67585 0.0
Co409 Co 0.85101 0.0634 0.69235 0.0
C410 C 0.89785 0.01583 0.68466 0.0
O411 O 0.88505 0.0236 0.67868 0.0
O412 O 0.88639 0.02868 0.69037 0.0
C413 C 0.86129 0.04514 0.66101 0.0
O414 O 0.89259 0.03851 0.66301 0.0
C415 C 0.85073 0.04609 0.70747 0.0
C416 C 0.8332 0.09435 0.71223 0.0
C417 C 0.84335 0.06157 0.71389 0.0
N418 N 0.84535 0.06879 0.70228 0.0
N419 N 0.835 0.0976 0.70516 0.0
C420 C 0.86017 0.00976 0.70619 0.0
H421 H 0.85072 0.00137 0.70095 0.0
H422 H 0.84954 0.99305 0.71037 0.0
H423 H 0.88828 0.00739 0.70623 0.0
C424 C 0.77569 0.04663 0.6789 0.0
N425 N 0.80809 0.051 0.68104 0.0
N426 N 0.80883 0.05324 0.68797 0.0
C427 C 0.77689 0.04998 0.69048 0.0
C428 C 0.75474 0.04585 0.68482 0.0
C429 C 0.76501 0.0465 0.67131 0.0
H430 H 0.7762 0.06885 0.66859 0.0
H431 H 0.77503 0.02328 0.66871 0.0
H432 H 0.73698 0.04739 0.67071 0.0
O433 O 0.86827 0.10244 0.67721 0.0
O434 O 0.8695 0.10708 0.68889 0.0
H435 H 0.76998 0.07661 0.70021 0.0
H436 H 0.74168 0.0408 0.69908 0.0
C437 C 0.76789 0.05026 0.69816 0.0
H438 H 0.78594 0.03401 0.70113 0.0
H439 H 0.82896 0.11943 0.70229 0.0
O440 O 0.83906 0.05227 0.66565 0.0
C441 C 0.87555 0.11913 0.68277 0.0
Co442 Co 0.69628 0.09603 0.42583 0.0
Co443 Co 0.68829 0.09739 0.44228 0.0
C444 C 0.73595 0.145 0.43473 0.0
O445 O 0.72869 0.13229 0.42872 0.0
O446 O 0.72288 0.1332 0.44039 0.0
C447 C 0.69066 0.10746 0.41104 0.0
O448 O 0.67784 0.13663 0.41314 0.0
C449 C 0.70711 0.09256 0.45722 0.0
C450 C 0.65703 0.08494 0.46228 0.0
C451 C 0.69142 0.08824 0.46375 0.0
N452 N 0.68304 0.09198 0.45219 0.0
N453 N 0.65317 0.08751 0.45524 0.0
C454 C 0.74431 0.09511 0.45565 0.0
H455 H 0.7496 0.08592 0.45021 0.0
H456 H 0.75934 0.08013 0.45952 0.0
H457 H 0.75222 0.12215 0.45598 0.0
C458 C 0.7072 0.02278 0.4288 0.0
N459 N 0.70217 0.05501 0.43098 0.0
N460 N 0.69872 0.05529 0.43789 0.0
C461 C 0.7013 0.02315 0.44033 0.0
C462 C 0.7067 0.00141 0.43464 0.0
C463 C 0.71256 0.01289 0.42124 0.0
H464 H 0.68843 0.01638 0.41829 0.0
H465 H 0.73196 0.02978 0.41884 0.0
H466 H 0.72108 0.98611 0.42073 0.0
O467 O 0.64992 0.11493 0.42716 0.0
O468 O 0.64466 0.11546 0.43882 0.0
H469 H 0.67128 0.02447 0.44975 0.0
H470 H 0.69438 0.9853 0.44856 0.0
C471 C 0.69552 0.01327 0.44788 0.0
H472 H 0.71639 0.02366 0.45118 0.0
H473 H 0.63014 0.08614 0.45251 0.0
O474 O 0.7013 0.08648 0.41564 0.0
C475 C 0.63287 0.12174 0.4327 0.0
Co476 Co 0.65166 0.94821 0.17627 0.0
Co477 Co 0.64656 0.93706 0.19263 0.0
C478 C 0.60052 0.98597 0.1849 0.0
O479 O 0.61479 0.98014 0.17897 0.0
O480 O 0.61088 0.97161 0.19055 0.0
C481 C 0.64177 0.95065 0.16137 0.0
O482 O 0.61031 0.94301 0.16309 0.0
C483 C 0.65159 0.95394 0.20777 0.0
C484 C 0.64804 0.90292 0.21261 0.0
C485 C 0.65098 0.93715 0.21423 0.0
N486 N 0.64932 0.9306 0.20259 0.0
N487 N 0.64733 0.90017 0.20553 0.0
C488 C 0.65202 0.99151 0.2065 0.0
H489 H 0.67835 0.00116 0.20711 0.0
H490 H 0.63564 0.0047 0.21041 0.0
H491 H 0.64345 0.99751 0.20106 0.0
C492 C 0.72404 0.95828 0.18002 0.0
N493 N 0.69136 0.95319 0.18188 0.0
N494 N 0.68968 0.94803 0.18874 0.0
C495 C 0.72141 0.94922 0.19146 0.0
C496 C 0.74427 0.95579 0.18602 0.0
C497 C 0.73547 0.96535 0.17262 0.0
H498 H 0.71887 0.98504 0.17023 0.0
H499 H 0.76221 0.9743 0.17245 0.0
H500 H 0.73303 0.94181 0.16943 0.0
O501 O 0.63253 0.90164 0.17706 0.0
O502 O 0.62974 0.89391 0.18866 0.0
H503 H 0.71527 0.91796 0.20065 0.0
H504 H 0.7575 0.93526 0.19961 0.0
C505 C 0.72998 0.94058 0.19895 0.0
H506 H 0.72291 0.96221 0.20241 0.0
H507 H 0.645 0.87754 0.2027 0.0
O508 O 0.66359 0.9549 0.16624 0.0
C509 C 0.6248 0.88339 0.18238 0.0
Co510 Co 0.81175 0.90251 0.92561 0.0
Co511 Co 0.81327 0.90221 0.9422 0.0
C512 C 0.7672 0.85549 0.93418 0.0
O513 O 0.7776 0.86723 0.92827 0.0
O514 O 0.77798 0.86757 0.94002 0.0
C515 C 0.78532 0.9134 0.91134 0.0
O516 O 0.75476 0.91328 0.91414 0.0
C517 C 0.79849 0.89847 0.95755 0.0
C518 C 0.84102 0.92886 0.96185 0.0
C519 C 0.81249 0.91052 0.96382 0.0
N520 N 0.8176 0.90977 0.95214 0.0
N521 N 0.84311 0.92764 0.95476 0.0
C522 C 0.77001 0.87358 0.95669 0.0
H523 H 0.7787 0.85243 0.95326 0.0
H524 H 0.7483 0.88627 0.95402 0.0
H525 H 0.76163 0.8627 0.9618 0.0
C526 C 0.8025 0.97664 0.92817 0.0
N527 N 0.80558 0.94433 0.93048 0.0
N528 N 0.80491 0.94412 0.93743 0.0
C529 C 0.80039 0.97626 0.93976 0.0
C530 C 0.79909 0.99801 0.93398 0.0
C531 C 0.80574 0.98703 0.92059 0.0
H532 H 0.82587 0.97182 0.91798 0.0
H533 H 0.78129 0.98212 0.91785 0.0
H534 H 0.81208 0.01441 0.92008 0.0
O535 O 0.85675 0.88298 0.92764 0.0
O536 O 0.85738 0.88205 0.93934 0.0
H537 H 0.82115 0.98959 0.94981 0.0
H538 H 0.78139 0.01009 0.94783 0.0
C539 C 0.79583 0.98595 0.94734 0.0
H540 H 0.78204 0.96563 0.95022 0.0
H541 H 0.86207 0.93895 0.9517 0.0
O542 O 0.81116 0.90946 0.91528 0.0
C543 C 0.87136 0.87556 0.93343 0.0
Co544 Co 0.65218 0.55484 0.6755 0.0
Co545 Co 0.6486 0.5621 0.692 0.0
C546 C 0.60276 0.51403 0.68418 0.0
O547 O 0.61615 0.52181 0.67825 0.0
O548 O 0.61362 0.52694 0.68993 0.0
C549 C 0.63974 0.54657 0.66067 0.0
O550 O 0.60788 0.54383 0.66268 0.0
C551 C 0.65016 0.54452 0.70713 0.0
C552 C 0.66167 0.59439 0.71195 0.0
C553 C 0.65536 0.56061 0.71359 0.0
N554 N 0.65316 0.56781 0.70196 0.0
N555 N 0.65991 0.59756 0.70488 0.0
C556 C 0.64501 0.50741 0.70575 0.0
H557 H 0.65418 0.50074 0.70038 0.0
H558 H 0.65861 0.49183 0.70974 0.0
H559 H 0.61744 0.50152 0.70603 0.0
C560 C 0.72526 0.54575 0.67883 0.0
N561 N 0.69265 0.54982 0.68085 0.0
N562 N 0.69137 0.55255 0.68777 0.0
C563 C 0.72322 0.55021 0.69038 0.0
C564 C 0.74582 0.54588 0.6848 0.0
C565 C 0.73646 0.545 0.67127 0.0
H566 H 0.72574 0.56732 0.66846 0.0
H567 H 0.7263 0.52176 0.6687 0.0
H568 H 0.76454 0.54547 0.67075 0.0
O569 O 0.63227 0.60064 0.67674 0.0
O570 O 0.62981 0.60539 0.68841 0.0
H571 H 0.72671 0.57795 0.70006 0.0
H572 H 0.75867 0.54516 0.6991 0.0
C573 C 0.73172 0.55188 0.69808 0.0
H574 H 0.7152 0.53403 0.70104 0.0
H575 H 0.66351 0.62001 0.70204 0.0
O576 O 0.66274 0.55031 0.66531 0.0
C577 C 0.62419 0.61728 0.68227 0.0
Co578 Co 0.69863 0.40512 0.92618 0.0
Co579 Co 0.69191 0.40312 0.94273 0.0
C580 C 0.73875 0.35567 0.93497 0.0
O581 O 0.7311 0.36872 0.92901 0.0
O582 O 0.72621 0.36725 0.94071 0.0
C583 C 0.70043 0.39139 0.91137 0.0
O584 O 0.69662 0.35979 0.91349 0.0
C585 C 0.70918 0.40384 0.95791 0.0
C586 C 0.66078 0.42146 0.96259 0.0
C587 C 0.69356 0.41155 0.9643 0.0
N588 N 0.68656 0.40887 0.95268 0.0
N589 N 0.65765 0.41923 0.95552 0.0
C590 C 0.74554 0.39434 0.95668 0.0
H591 H 0.75393 0.40329 0.9514 0.0
H592 H 0.76219 0.40539 0.96082 0.0
H593 H 0.74795 0.36624 0.95683 0.0
C594 C 0.70887 0.47828 0.92922 0.0
N595 N 0.70458 0.4459 0.93138 0.0
N596 N 0.70215 0.44528 0.93831 0.0
C597 C 0.70498 0.47732 0.94079 0.0
C598 C 0.70921 0.49936 0.93511 0.0
C599 C 0.7092 0.48883 0.92162 0.0
H600 H 0.68647 0.47827 0.91893 0.0
H601 H 0.73205 0.47803 0.91901 0.0
H602 H 0.70921 0.51686 0.921 0.0
O603 O 0.65255 0.38614 0.9276 0.0
O604 O 0.64813 0.38491 0.93928 0.0
H605 H 0.67718 0.4839 0.95039 0.0
H606 H 0.71226 0.51317 0.94935 0.0
C607 C 0.70366 0.48665 0.94845 0.0
H608 H 0.7201 0.46917 0.95152 0.0
H609 H 0.63586 0.42507 0.95262 0.0
O610 O 0.70304 0.41481 0.91596 0.0
C611 C 0.63595 0.37892 0.93317 0.0
Co612 Co 0.84849 0.44566 0.17526 0.0
Co613 Co 0.84944 0.43956 0.19181 0.0
C614 C 0.89697 0.48658 0.1842 0.0
O615 O 0.88453 0.47854 0.17819 0.0
O616 O 0.88506 0.47409 0.1899 0.0
C617 C 0.83477 0.47598 0.16144 0.0
O618 O 0.83397 0.50544 0.1647 0.0
C619 C 0.84811 0.45654 0.20701 0.0
C620 C 0.82948 0.40828 0.21158 0.0
C621 C 0.83982 0.44084 0.21337 0.0
N622 N 0.84299 0.43416 0.20174 0.0
N623 N 0.83203 0.40534 0.20452 0.0
C624 C 0.85819 0.49279 0.20586 0.0
H625 H 0.84965 0.5015 0.20057 0.0
H626 H 0.84716 0.50947 0.20999 0.0
H627 H 0.88632 0.4948 0.20608 0.0
C628 C 0.77447 0.45485 0.17813 0.0
N629 N 0.80695 0.45118 0.18031 0.0
N630 N 0.80751 0.44967 0.18725 0.0
C631 C 0.77549 0.45303 0.18972 0.0
C632 C 0.75342 0.45628 0.18402 0.0
C633 C 0.76347 0.45352 0.17056 0.0
H634 H 0.77867 0.43433 0.16766 0.0
H635 H 0.76772 0.47875 0.1681 0.0
H636 H 0.73614 0.44692 0.17008 0.0
O637 O 0.8674 0.39979 0.17679 0.0
O638 O 0.86809 0.39563 0.18847 0.0
H639 H 0.7678 0.42756 0.19956 0.0
H640 H 0.74029 0.4638 0.19824 0.0
C641 C 0.76633 0.45373 0.19739 0.0
H642 H 0.78461 0.46994 0.20031 0.0
H643 H 0.82601 0.38373 0.20157 0.0
O644 O 0.84064 0.44907 0.16495 0.0
C645 C 0.87432 0.38329 0.18238 0.0
Co646 Co 0.81206 0.59606 0.42491 0.0
Co647 Co 0.81631 0.59851 0.44148 0.0
C648 C 0.76948 0.64466 0.43352 0.0
O649 O 0.77854 0.6319 0.42761 0.0
O650 O 0.78124 0.63328 0.43934 0.0
C651 C 0.78206 0.58191 0.41114 0.0
O652 O 0.75268 0.58196 0.41444 0.0
C653 C 0.79761 0.59689 0.45657 0.0
C654 C 0.84676 0.58324 0.46147 0.0
C655 C 0.81319 0.59083 0.46306 0.0
N656 N 0.821 0.59314 0.45145 0.0
N657 N 0.85032 0.58509 0.45441 0.0
C658 C 0.7608 0.60359 0.45514 0.0
H659 H 0.75392 0.59468 0.44976 0.0
H660 H 0.74451 0.59067 0.4591 0.0
H661 H 0.75606 0.63138 0.45541 0.0
C662 C 0.80332 0.52222 0.42802 0.0
N663 N 0.80664 0.55489 0.43009 0.0
N664 N 0.80756 0.55603 0.43703 0.0
C665 C 0.80432 0.52419 0.4396 0.0
C666 C 0.80163 0.50164 0.43398 0.0
C667 C 0.8049 0.51068 0.42048 0.0
H668 H 0.82427 0.52562 0.41757 0.0
H669 H 0.77979 0.51492 0.41796 0.0
H670 H 0.81138 0.48329 0.42009 0.0
O671 O 0.85747 0.61601 0.42653 0.0
O672 O 0.85997 0.61804 0.43822 0.0
H673 H 0.82882 0.519 0.44962 0.0
H674 H 0.79436 0.48928 0.44823 0.0
C675 C 0.8031 0.51572 0.44731 0.0
H676 H 0.78549 0.53336 0.45004 0.0
H677 H 0.87275 0.58075 0.45161 0.0
O678 O 0.80917 0.5874 0.41461 0.0
C679 C 0.87298 0.62401 0.43219 0.0
Co680 Co 0.64943 0.44524 0.82313 0.0
Co681 Co 0.64568 0.43523 0.80666 0.0
C682 C 0.59923 0.4838 0.81439 0.0
O683 O 0.61285 0.47759 0.82037 0.0
O684 O 0.6101 0.46971 0.80876 0.0
C685 C 0.63874 0.4585 0.83794 0.0
O686 O 0.60767 0.46618 0.83595 0.0
C687 C 0.65055 0.45282 0.7915 0.0
C688 C 0.64857 0.40175 0.78663 0.0
C689 C 0.65026 0.43608 0.78502 0.0
N690 N 0.64918 0.42936 0.79667 0.0
N691 N 0.6482 0.39892 0.79371 0.0
C692 C 0.64982 0.49037 0.79277 0.0
H693 H 0.64151 0.49608 0.79824 0.0
H694 H 0.67577 0.50086 0.79207 0.0
H695 H 0.63268 0.50302 0.78892 0.0
C696 C 0.72213 0.45549 0.81962 0.0
N697 N 0.68959 0.45044 0.81766 0.0
N698 N 0.68837 0.44595 0.81077 0.0
C699 C 0.72023 0.44771 0.80814 0.0
C700 C 0.74272 0.45381 0.81366 0.0
C701 C 0.73309 0.46178 0.82708 0.0
H702 H 0.71612 0.48096 0.82954 0.0
H703 H 0.75973 0.47097 0.82736 0.0
H704 H 0.73075 0.43782 0.83014 0.0
O705 O 0.6302 0.39897 0.82207 0.0
O706 O 0.62827 0.39184 0.81045 0.0
H707 H 0.75692 0.43638 0.79991 0.0
H708 H 0.72099 0.46195 0.79725 0.0
C709 C 0.72919 0.44033 0.80061 0.0
H710 H 0.71553 0.41724 0.79881 0.0
H711 H 0.64663 0.37618 0.79654 0.0
O712 O 0.66049 0.44995 0.83331 0.0
C713 C 0.62279 0.38103 0.81668 0.0
Co714 Co 0.81102 0.4001 0.07411 0.0
Co715 Co 0.81682 0.39909 0.05755 0.0
C716 C 0.76965 0.35189 0.0652 0.0
O717 O 0.77787 0.36435 0.07119 0.0
O718 O 0.78205 0.36371 0.05948 0.0
C719 C 0.78014 0.4138 0.08782 0.0
O720 O 0.75094 0.414 0.08445 0.0
C721 C 0.7995 0.40072 0.04236 0.0
C722 C 0.84782 0.41895 0.03775 0.0
C723 C 0.8151 0.40897 0.036 0.0
N724 N 0.82208 0.40552 0.04761 0.0
N725 N 0.85093 0.41624 0.04481 0.0
C726 C 0.76318 0.39097 0.04355 0.0
H727 H 0.75468 0.39961 0.04885 0.0
H728 H 0.74651 0.40214 0.03943 0.0
H729 H 0.76092 0.36286 0.04334 0.0
C730 C 0.80223 0.47411 0.07125 0.0
N731 N 0.80575 0.44163 0.06906 0.0
N732 N 0.80723 0.44111 0.06212 0.0
C733 C 0.8041 0.47318 0.05966 0.0
C734 C 0.80094 0.4952 0.06537 0.0
C735 C 0.80348 0.48506 0.07882 0.0
H736 H 0.82272 0.46992 0.08172 0.0
H737 H 0.77825 0.48068 0.08128 0.0
H738 H 0.80994 0.51242 0.07932 0.0
O739 O 0.85667 0.38062 0.07256 0.0
O740 O 0.86051 0.37984 0.06087 0.0
H741 H 0.82974 0.48051 0.04983 0.0
H742 H 0.79404 0.50871 0.05117 0.0
C743 C 0.8036 0.48246 0.052 0.0
H744 H 0.78706 0.46452 0.04907 0.0
H745 H 0.87268 0.42201 0.04773 0.0
O746 O 0.8074 0.40814 0.08441 0.0
C747 C 0.87289 0.37339 0.06694 0.0
Co748 Co 0.84798 0.55954 0.32323 0.0
Co749 Co 0.84911 0.56396 0.30664 0.0
C750 C 0.8954 0.51661 0.31441 0.0
O751 O 0.88324 0.52569 0.32037 0.0
O752 O 0.8837 0.52862 0.30864 0.0
C753 C 0.83398 0.52948 0.337 0.0
O754 O 0.83284 0.50026 0.33364 0.0
C755 C 0.8476 0.54626 0.29147 0.0
C756 C 0.82944 0.59449 0.28681 0.0
C757 C 0.83947 0.56175 0.28508 0.0
N758 N 0.8427 0.56891 0.29669 0.0
N759 N 0.83201 0.59771 0.29386 0.0
C760 C 0.85736 0.50996 0.29269 0.0
H761 H 0.84853 0.50149 0.29797 0.0
H762 H 0.84637 0.49323 0.28855 0.0
H763 H 0.88548 0.50774 0.29252 0.0
C764 C 0.77383 0.55182 0.32037 0.0
N765 N 0.80638 0.55463 0.31819 0.0
N766 N 0.80701 0.55537 0.31124 0.0
C767 C 0.77496 0.55233 0.30878 0.0
C768 C 0.7528 0.55016 0.31448 0.0
C769 C 0.76283 0.55399 0.32793 0.0
H770 H 0.77854 0.57295 0.33078 0.0
H771 H 0.76638 0.52882 0.33047 0.0
H772 H 0.73568 0.56135 0.32838 0.0
O773 O 0.86816 0.60475 0.32155 0.0
O774 O 0.86921 0.60745 0.30985 0.0
H775 H 0.76749 0.57662 0.2988 0.0
H776 H 0.73976 0.54072 0.30031 0.0
C777 C 0.76586 0.55073 0.30111 0.0
H778 H 0.78407 0.53405 0.29829 0.0
H779 H 0.8262 0.61952 0.29677 0.0
O780 O 0.84012 0.55654 0.33355 0.0
C781 C 0.87578 0.6203 0.31587 0.0
Co782 Co 0.69643 0.6012 0.57251 0.0
Co783 Co 0.68694 0.60582 0.55604 0.0
C784 C 0.73599 0.65118 0.5639 0.0
O785 O 0.72934 0.63731 0.56983 0.0
O786 O 0.72203 0.64079 0.55821 0.0
C787 C 0.70389 0.61302 0.58731 0.0
O788 O 0.70535 0.64497 0.5853 0.0
C789 C 0.70443 0.6006 0.54088 0.0
C790 C 0.65345 0.60386 0.53601 0.0
C791 C 0.6877 0.60117 0.5344 0.0
N792 N 0.68102 0.60273 0.54605 0.0
N793 N 0.65063 0.60452 0.54309 0.0
C794 C 0.74199 0.60033 0.54216 0.0
H795 H 0.74791 0.60899 0.54759 0.0
H796 H 0.75171 0.57401 0.54156 0.0
H797 H 0.75516 0.61671 0.53825 0.0
C798 C 0.70577 0.52854 0.56891 0.0
N799 N 0.70111 0.56119 0.56698 0.0
N800 N 0.6967 0.5627 0.5601 0.0
C801 C 0.69802 0.5309 0.55743 0.0
C802 C 0.70383 0.50815 0.56293 0.0
C803 C 0.71218 0.51734 0.57635 0.0
H804 H 0.68825 0.51954 0.57942 0.0
H805 H 0.73137 0.53423 0.57882 0.0
H806 H 0.72142 0.49071 0.57658 0.0
O807 O 0.65056 0.62137 0.57146 0.0
O808 O 0.64391 0.62408 0.55983 0.0
H809 H 0.66802 0.53676 0.54805 0.0
H810 H 0.68551 0.49468 0.54919 0.0
C811 C 0.69051 0.52224 0.54989 0.0
H812 H 0.71255 0.52954 0.54656 0.0
H813 H 0.62793 0.60674 0.54591 0.0
O814 O 0.70112 0.58992 0.58266 0.0
C815 C 0.63301 0.62952 0.56606 0.0
Co816 Co 0.34696 0.44967 0.32284 0.0
Co817 Co 0.34868 0.44228 0.3063 0.0
C818 C 0.39584 0.48981 0.3139 0.0
O819 O 0.38311 0.48216 0.3199 0.0
O820 O 0.38421 0.47697 0.3082 0.0
C821 C 0.35816 0.44343 0.33763 0.0
O822 O 0.38665 0.42937 0.33548 0.0
C823 C 0.34828 0.45886 0.29111 0.0
C824 C 0.33037 0.41046 0.28648 0.0
C825 C 0.34074 0.44305 0.28473 0.0
N826 N 0.34278 0.43652 0.29636 0.0
N827 N 0.33219 0.40762 0.29356 0.0
C828 C 0.35811 0.49517 0.29229 0.0
H829 H 0.34873 0.50398 0.29751 0.0
H830 H 0.34768 0.51173 0.28806 0.0
H831 H 0.38625 0.49723 0.29225 0.0
C832 C 0.27367 0.45912 0.31985 0.0
N833 N 0.30604 0.45506 0.31767 0.0
N834 N 0.30658 0.45255 0.31074 0.0
C835 C 0.27451 0.45533 0.30828 0.0
C836 C 0.25251 0.45942 0.31397 0.0
C837 C 0.26323 0.45922 0.32746 0.0
H838 H 0.2752 0.43737 0.33021 0.0
H839 H 0.27258 0.48288 0.33 0.0
H840 H 0.23526 0.45751 0.3281 0.0
O841 O 0.36588 0.40354 0.32151 0.0
O842 O 0.36729 0.39871 0.30983 0.0
H843 H 0.26727 0.42785 0.29866 0.0
H844 H 0.23891 0.46365 0.29971 0.0
C845 C 0.2652 0.45436 0.30061 0.0
H846 H 0.28308 0.47041 0.29755 0.0
H847 H 0.32604 0.386 0.29649 0.0
O848 O 0.33758 0.4552 0.33306 0.0
C849 C 0.37324 0.38676 0.31596 0.0
Co850 Co 0.30764 0.59905 0.07393 0.0
Co851 Co 0.31195 0.59903 0.05737 0.0
C852 C 0.26508 0.64634 0.06497 0.0
O853 O 0.27412 0.63454 0.07097 0.0
O854 O 0.27694 0.63411 0.05924 0.0
C855 C 0.27733 0.58502 0.08766 0.0
O856 O 0.24827 0.58317 0.08425 0.0
C857 C 0.29541 0.59729 0.04216 0.0
C858 C 0.34349 0.57743 0.03772 0.0
C859 C 0.31126 0.58841 0.03586 0.0
N860 N 0.31741 0.5919 0.04748 0.0
N861 N 0.34612 0.58019 0.04479 0.0
C862 C 0.25936 0.60832 0.04321 0.0
H863 H 0.25815 0.6365 0.04302 0.0
H864 H 0.25001 0.59983 0.04845 0.0
H865 H 0.2427 0.5979 0.039 0.0
C866 C 0.29934 0.52459 0.07125 0.0
N867 N 0.3023 0.55706 0.06901 0.0
N868 N 0.30285 0.55735 0.06206 0.0
C869 C 0.29953 0.52523 0.05966 0.0
C870 C 0.29742 0.50334 0.0654 0.0
C871 C 0.30169 0.51382 0.07882 0.0
H872 H 0.32056 0.52974 0.08165 0.0
H873 H 0.27651 0.51719 0.08137 0.0
H874 H 0.30924 0.48672 0.0793 0.0
O875 O 0.35319 0.61863 0.07224 0.0
O876 O 0.35559 0.61864 0.06054 0.0
H877 H 0.32362 0.51656 0.0497 0.0
H878 H 0.28701 0.48991 0.05128 0.0
C879 C 0.29769 0.51579 0.05201 0.0
H880 H 0.28149 0.53427 0.04914 0.0
H881 H 0.36746 0.57387 0.04779 0.0
O882 O 0.30439 0.59169 0.08426 0.0
C883 C 0.36871 0.6255 0.06651 0.0
Co884 Co 0.14808 0.55569 0.8231 0.0
Co885 Co 0.14573 0.56476 0.80663 0.0
C886 C 0.09887 0.51638 0.81405 0.0
O887 O 0.11187 0.5235 0.82005 0.0
O888 O 0.11023 0.52974 0.80838 0.0
C889 C 0.13442 0.55279 0.83785 0.0
O890 O 0.10314 0.55867 0.83573 0.0
C891 C 0.14685 0.55002 0.79137 0.0
C892 C 0.16473 0.59907 0.78704 0.0
C893 C 0.15495 0.56654 0.7851 0.0
N894 N 0.15155 0.57188 0.79675 0.0
N895 N 0.16202 0.60119 0.79412 0.0
C896 C 0.13757 0.51342 0.79235 0.0
H897 H 0.10949 0.51084 0.79213 0.0
H898 H 0.14636 0.5043 0.79759 0.0
H899 H 0.1489 0.49746 0.78812 0.0
C900 C 0.22122 0.54621 0.81998 0.0
N901 N 0.18883 0.55083 0.81786 0.0
N902 N 0.18803 0.55392 0.81095 0.0
C903 C 0.21999 0.55097 0.80842 0.0
C904 C 0.24216 0.54612 0.81406 0.0
C905 C 0.23192 0.54522 0.82757 0.0
H906 H 0.22023 0.5669 0.83043 0.0
H907 H 0.22246 0.52139 0.83002 0.0
H908 H 0.25992 0.54666 0.82817 0.0
O909 O 0.12906 0.60188 0.82207 0.0
O910 O 0.12719 0.60788 0.81042 0.0
H911 H 0.22687 0.57884 0.79884 0.0
H912 H 0.25522 0.54293 0.79977 0.0
C913 C 0.229 0.55224 0.80074 0.0
H914 H 0.21097 0.53634 0.79769 0.0
H915 H 0.16775 0.62254 0.79717 0.0
O916 O 0.15773 0.54935 0.83326 0.0
C917 C 0.12147 0.61921 0.81661 0.0
Co918 Co 0.19787 0.4003 0.57414 0.0
Co919 Co 0.19403 0.39825 0.55753 0.0
C920 C 0.24128 0.35252 0.56548 0.0
O921 O 0.23164 0.36477 0.57139 0.0
O922 O 0.22969 0.36402 0.55965 0.0
C923 C 0.22678 0.41643 0.58798 0.0
O924 O 0.25605 0.42001 0.58471 0.0
C925 C 0.20791 0.39412 0.54213 0.0
C926 C 0.16407 0.42272 0.53787 0.0
C927 C 0.19324 0.4055 0.53587 0.0
N928 N 0.18855 0.40478 0.54756 0.0
N929 N 0.16226 0.42156 0.54496 0.0
C930 C 0.23753 0.3706 0.54297 0.0
H931 H 0.22996 0.34919 0.54644 0.0
H932 H 0.25875 0.38435 0.54558 0.0
H933 H 0.24616 0.35992 0.53786 0.0
C934 C 0.20557 0.47432 0.57114 0.0
N935 N 0.20292 0.44165 0.56903 0.0
N936 N 0.20291 0.44062 0.56207 0.0
C937 C 0.20673 0.47252 0.55956 0.0
C938 C 0.20821 0.49498 0.56521 0.0
C939 C 0.20212 0.48584 0.57865 0.0
H940 H 0.18364 0.46953 0.58149 0.0
H941 H 0.22719 0.48385 0.5813 0.0
H942 H 0.19343 0.51265 0.57895 0.0
O943 O 0.15264 0.38056 0.57249 0.0
O944 O 0.15036 0.37837 0.5608 0.0
H945 H 0.18462 0.484 0.54953 0.0
H946 H 0.22408 0.50571 0.55121 0.0
C947 C 0.21027 0.48131 0.5519 0.0
H948 H 0.22425 0.46094 0.54908 0.0
H949 H 0.14306 0.4323 0.54805 0.0
O950 O 0.20049 0.40831 0.58446 0.0
C951 C 0.13722 0.37255 0.56683 0.0
Co952 Co 0.3477 0.55988 0.17513 0.0
Co953 Co 0.34997 0.56687 0.19166 0.0
C954 C 0.39645 0.51897 0.18398 0.0
O955 O 0.38363 0.52679 0.178 0.0
O956 O 0.38506 0.53185 0.1897 0.0
C957 C 0.33379 0.5288 0.16141 0.0
O958 O 0.33451 0.49943 0.16472 0.0
C959 C 0.34976 0.55023 0.20687 0.0
C960 C 0.33219 0.59877 0.21149 0.0
C961 C 0.34233 0.56611 0.21325 0.0
N962 N 0.34439 0.5726 0.20161 0.0
N963 N 0.33403 0.60158 0.20441 0.0
C964 C 0.3593 0.51384 0.20569 0.0
H965 H 0.38742 0.51153 0.20576 0.0
H966 H 0.34998 0.50513 0.20046 0.0
H967 H 0.34862 0.49737 0.2099 0.0
C968 C 0.27391 0.55104 0.17826 0.0
N969 N 0.30653 0.55495 0.18033 0.0
N970 N 0.30759 0.55705 0.18726 0.0
C971 C 0.27573 0.55401 0.18984 0.0
C972 C 0.25328 0.55023 0.18422 0.0
C973 C 0.26244 0.55127 0.17072 0.0
H974 H 0.2769 0.57063 0.16771 0.0
H975 H 0.26741 0.52596 0.16835 0.0
H976 H 0.23489 0.55695 0.17027 0.0
O977 O 0.36741 0.60557 0.1765 0.0
O978 O 0.36909 0.61032 0.18817 0.0
H979 H 0.26926 0.58032 0.19962 0.0
H980 H 0.24092 0.54456 0.19849 0.0
C981 C 0.26709 0.55404 0.19754 0.0
H982 H 0.28527 0.53767 0.20045 0.0
H983 H 0.328 0.62323 0.20148 0.0
O984 O 0.33891 0.55603 0.16486 0.0
C985 C 0.37512 0.62221 0.18204 0.0
Co986 Co 0.19577 0.59965 0.92598 0.0
Co987 Co 0.19055 0.60085 0.94251 0.0
C988 C 0.23659 0.64886 0.93469 0.0
O989 O 0.22844 0.63602 0.92873 0.0
O990 O 0.22455 0.63705 0.94045 0.0
C991 C 0.20905 0.61074 0.91107 0.0
O992 O 0.22091 0.6405 0.91304 0.0
C993 C 0.20905 0.59816 0.95759 0.0
C994 C 0.16005 0.58308 0.96239 0.0
C995 C 0.19347 0.59098 0.96401 0.0
N996 N 0.18581 0.59469 0.95244 0.0
N997 N 0.15655 0.58588 0.95534 0.0
C998 C 0.24571 0.60604 0.95627 0.0
H999 H 0.25318 0.59742 0.9509 0.0
H1000 H 0.26214 0.59367 0.96029 0.0
H1001 H 0.24951 0.63396 0.95657 0.0
C1002 C 0.20749 0.5265 0.92883 0.0
N1003 N 0.20266 0.55867 0.93106 0.0
N1004 N 0.20083 0.55894 0.938 0.0
C1005 C 0.20456 0.52685 0.94041 0.0
C1006 C 0.20874 0.50517 0.93467 0.0
C1007 C 0.21088 0.51659 0.92123 0.0
H1008 H 0.2298 0.53332 0.91862 0.0
H1009 H 0.21902 0.48972 0.92063 0.0
H1010 H 0.18608 0.52029 0.91854 0.0
O1011 O 0.14972 0.61831 0.92762 0.0
O1012 O 0.14632 0.61874 0.93931 0.0
H1013 H 0.17555 0.5243 0.94994 0.0
H1014 H 0.2045 0.48923 0.94882 0.0
C1015 C 0.20115 0.51695 0.94802 0.0
H1016 H 0.22028 0.53092 0.9512 0.0
H1017 H 0.13424 0.58151 0.9525 0.0
O1018 O 0.19824 0.59012 0.91573 0.0
C1019 C 0.13352 0.62498 0.93327 0.0
Co1020 Co 0.15062 0.44582 0.67555 0.0
Co1021 Co 0.14972 0.43973 0.69208 0.0
C1022 C 0.10262 0.48728 0.6844 0.0
O1023 O 0.11495 0.47923 0.67839 0.0
O1024 O 0.11445 0.4746 0.6901 0.0
C1025 C 0.16066 0.47521 0.66151 0.0
O1026 O 0.15634 0.50502 0.66452 0.0
C1027 C 0.15257 0.45867 0.70712 0.0
C1028 C 0.16676 0.40972 0.71205 0.0
C1029 C 0.15931 0.44335 0.71359 0.0
N1030 N 0.15581 0.4351 0.70202 0.0
N1031 N 0.16411 0.40587 0.70501 0.0
C1032 C 0.14533 0.49538 0.70571 0.0
H1033 H 0.15444 0.5025 0.70036 0.0
H1034 H 0.15767 0.5118 0.70974 0.0
H1035 H 0.11745 0.49961 0.70592 0.0
C1036 C 0.22455 0.4549 0.6784 0.0
N1037 N 0.19214 0.45116 0.6806 0.0
N1038 N 0.19176 0.44918 0.68754 0.0
C1039 C 0.2239 0.45201 0.68998 0.0
C1040 C 0.24578 0.45558 0.68426 0.0
C1041 C 0.23483 0.45795 0.67081 0.0
H1042 H 0.22314 0.48116 0.66854 0.0
H1043 H 0.26279 0.45977 0.67018 0.0
H1044 H 0.22518 0.43569 0.66782 0.0
O1045 O 0.13086 0.40024 0.67716 0.0
O1046 O 0.13057 0.396 0.68884 0.0
H1047 H 0.26135 0.45168 0.69841 0.0
H1048 H 0.21976 0.46782 0.70076 0.0
C1049 C 0.23361 0.44854 0.69759 0.0
H1050 H 0.22603 0.423 0.69951 0.0
H1051 H 0.16819 0.38333 0.70223 0.0
O1052 O 0.15908 0.44841 0.66525 0.0
C1053 C 0.12386 0.38382 0.68277 0.0
Co1054 Co 0.3099 0.39882 0.42565 0.0
Co1055 Co 0.31223 0.39694 0.44229 0.0
C1056 C 0.26605 0.35081 0.4341 0.0
O1057 O 0.27619 0.36306 0.42822 0.0
O1058 O 0.27702 0.3624 0.43997 0.0
C1059 C 0.28402 0.40109 0.4112 0.0
O1060 O 0.2566 0.38621 0.41369 0.0
C1061 C 0.29582 0.3936 0.4576 0.0
C1062 C 0.33935 0.42171 0.46212 0.0
C1063 C 0.30956 0.40508 0.46394 0.0
N1064 N 0.31629 0.40363 0.45229 0.0
N1065 N 0.34238 0.42012 0.45505 0.0
C1066 C 0.26593 0.37058 0.45658 0.0
H1067 H 0.27372 0.34887 0.45322 0.0
H1068 H 0.24544 0.38458 0.45378 0.0
H1069 H 0.25622 0.36031 0.46164 0.0
C1070 C 0.29998 0.47213 0.42852 0.0
N1071 N 0.30353 0.43978 0.43075 0.0
N1072 N 0.30357 0.43917 0.4377 0.0
C1073 C 0.2993 0.47119 0.44011 0.0
C1074 C 0.2972 0.49319 0.43438 0.0
C1075 C 0.30225 0.48266 0.42093 0.0
H1076 H 0.32453 0.47023 0.41843 0.0
H1077 H 0.27908 0.47398 0.4181 0.0
H1078 H 0.30481 0.51059 0.42034 0.0
O1079 O 0.35516 0.37943 0.42753 0.0
O1080 O 0.35636 0.37732 0.43924 0.0
H1081 H 0.32182 0.4828 0.45009 0.0
H1082 H 0.28276 0.50524 0.44839 0.0
C1083 C 0.29608 0.48054 0.44775 0.0
H1084 H 0.28176 0.46061 0.45063 0.0
H1085 H 0.36225 0.43044 0.45208 0.0
O1086 O 0.30835 0.40811 0.41537 0.0
C1087 C 0.37009 0.37153 0.43326 0.0
H1088 H 0.10805 0.98099 0.27954 0.0
H1089 H 0.10394 0.00152 0.26735 0.0
H1090 H 0.19936 0.95282 0.26241 0.0
H1091 H 0.20332 0.93188 0.27455 0.0
H1092 H 0.14489 0.04276 0.25979 0.0
H1093 H 0.13877 0.91639 0.24699 0.0
H1094 H 0.13404 0.92194 0.2564 0.0
H1095 H 0.17572 0.92082 0.25246 0.0
C1096 C 0.12834 0.97506 0.27588 0.0
C1097 C 0.15621 0.95519 0.278 0.0
C1098 C 0.12583 0.98655 0.2689 0.0
C1099 C 0.15105 0.9782 0.26394 0.0
C1100 C 0.17916 0.95882 0.2661 0.0
H1101 H 0.19725 0.08059 0.22485 0.0
H1102 H 0.19445 0.05942 0.23699 0.0
C1103 C 0.18152 0.94708 0.27304 0.0
C1104 C 0.14843 0.99036 0.25656 0.0
H1105 H 0.15062 0.96366 0.2394 0.0
C1106 C 0.14585 0.02546 0.25533 0.0
C1107 C 0.14898 0.96771 0.25074 0.0
C1108 C 0.14915 0.92961 0.25171 0.0
C1109 C 0.14498 0.03862 0.24844 0.0
C1110 C 0.1477 0.0161 0.24264 0.0
C1111 C 0.14907 0.98093 0.24386 0.0
C1112 C 0.14965 0.0285 0.23525 0.0
C1113 C 0.14084 0.07649 0.24747 0.0
C1114 C 0.12615 0.01721 0.23019 0.0
C1115 C 0.12806 0.02885 0.22322 0.0
C1116 C 0.15363 0.05184 0.22121 0.0
C1117 C 0.17724 0.06293 0.22627 0.0
C1118 C 0.17551 0.05106 0.23321 0.0
H1119 H 0.12848 0.08839 0.25214 0.0
H1120 H 0.16628 0.0883 0.24683 0.0
H1121 H 0.12545 0.08239 0.2427 0.0
H1122 H 0.10601 0.99977 0.23165 0.0
H1123 H 0.109 0.02055 0.21947 0.0
H1124 H 0.15676 0.883 0.47573 0.0
H1125 H 0.17702 0.88299 0.48797 0.0
H1126 H 0.27132 0.92861 0.48129 0.0
H1127 H 0.25092 0.92989 0.46909 0.0
H1128 H 0.26744 0.8605 0.49141 0.0
H1129 H 0.20038 0.97921 0.49954 0.0
H1130 H 0.17875 0.94895 0.49395 0.0
H1131 H 0.21418 0.9724 0.49054 0.0
C1132 C 0.18184 0.89301 0.47686 0.0
C1133 C 0.20256 0.90567 0.4714 0.0
C1134 C 0.19334 0.89289 0.48384 0.0
C1135 C 0.22567 0.90557 0.48548 0.0
C1136 C 0.24641 0.91837 0.48008 0.0
H1137 H 0.32734 0.95184 0.52469 0.0
H1138 H 0.30544 0.95047 0.51257 0.0
C1139 C 0.23486 0.91868 0.4731 0.0
C1140 C 0.23764 0.90585 0.49286 0.0
H1141 H 0.23208 0.95054 0.50827 0.0
C1142 C 0.25972 0.88007 0.49512 0.0
C1143 C 0.22748 0.93155 0.49762 0.0
C1144 C 0.20396 0.95979 0.49534 0.0
C1145 C 0.27196 0.87934 0.50209 0.0
C1146 C 0.26167 0.90499 0.50687 0.0
C1147 C 0.23971 0.93086 0.50458 0.0
C1148 C 0.27424 0.90588 0.51422 0.0
C1149 C 0.29622 0.85155 0.50428 0.0
C1150 C 0.26364 0.88139 0.51914 0.0
C1151 C 0.27595 0.88222 0.52606 0.0
C1152 C 0.29897 0.90762 0.52817 0.0
C1153 C 0.30952 0.93206 0.52321 0.0
C1154 C 0.29702 0.93137 0.51631 0.0
H1155 H 0.30594 0.83696 0.49967 0.0
H1156 H 0.31815 0.86242 0.5072 0.0
H1157 H 0.28292 0.83363 0.50787 0.0
H1158 H 0.24598 0.86158 0.5176 0.0
H1159 H 0.26807 0.86254 0.52971 0.0
H1160 H 0.29744 0.92286 0.72463 0.0
H1161 H 0.29879 0.94557 0.73667 0.0
H1162 H 0.39206 0.99865 0.7319 0.0
H1163 H 0.39048 0.97643 0.71983 0.0
H1164 H 0.34511 0.93713 0.74692 0.0
H1165 H 0.33525 0.07413 0.74024 0.0
H1166 H 0.32764 0.04101 0.73383 0.0
H1167 H 0.37044 0.05326 0.73604 0.0
C1168 C 0.31808 0.9396 0.72615 0.0
C1169 C 0.34342 0.94855 0.72126 0.0
C1170 C 0.31885 0.95252 0.73301 0.0
C1171 C 0.34515 0.97437 0.73514 0.0
C1172 C 0.37095 0.98271 0.73031 0.0
H1173 H 0.39146 0.01952 0.77929 0.0
H1174 H 0.39229 0.99752 0.76719 0.0
C1175 C 0.37 0.97005 0.72341 0.0
C1176 C 0.34592 0.98757 0.74248 0.0
H1177 H 0.34731 0.06065 0.75221 0.0
C1178 C 0.34551 0.96414 0.74808 0.0
C1179 C 0.34605 0.02282 0.74398 0.0
C1180 C 0.34453 0.04928 0.73821 0.0
C1181 C 0.3453 0.97498 0.75514 0.0
C1182 C 0.34643 0.01021 0.75664 0.0
C1183 C 0.34675 0.03364 0.75104 0.0
C1184 C 0.3462 0.02341 0.76398 0.0
C1185 C 0.34293 0.94858 0.76091 0.0
C1186 C 0.32066 0.0461 0.76613 0.0
C1187 C 0.32033 0.05889 0.77301 0.0
C1188 C 0.34534 0.04896 0.77789 0.0
C1189 C 0.37121 0.02667 0.77571 0.0
C1190 C 0.37174 0.01414 0.7688 0.0
H1191 H 0.33277 0.92407 0.75889 0.0
H1192 H 0.36871 0.9437 0.76307 0.0
H1193 H 0.32639 0.95743 0.7653 0.0
H1194 H 0.30083 0.05377 0.76249 0.0
H1195 H 0.30024 0.07625 0.77455 0.0
H1196 H 0.26283 0.13632 0.96892 0.0
H1197 H 0.23897 0.13698 0.98089 0.0
H1198 H 0.30249 0.05193 0.9866 0.0
H1199 H 0.32624 0.05092 0.97463 0.0
H1200 H 0.22704 0.04983 0.99056 0.0
H1201 H 0.29878 0.16524 0.99896 0.0
H1202 H 0.27683 0.16658 0.9906 0.0
H1203 H 0.31259 0.13879 0.99169 0.0
C1204 C 0.27117 0.11732 0.97268 0.0
C1205 C 0.29601 0.09322 0.97082 0.0
C1206 C 0.25781 0.11798 0.97952 0.0
C1207 C 0.26911 0.09455 0.9846 0.0
C1208 C 0.29349 0.07018 0.98273 0.0
H1209 H 0.24843 0.07008 0.02964 0.0
H1210 H 0.26769 0.07208 0.01736 0.0
C1211 C 0.30705 0.06969 0.97592 0.0
C1212 C 0.25611 0.09575 0.99191 0.0
H1213 H 0.26196 0.14041 0.00734 0.0
C1214 C 0.23448 0.06969 0.99423 0.0
C1215 C 0.26619 0.1216 0.99666 0.0
C1216 C 0.29003 0.14964 0.99441 0.0
C1217 C 0.22251 0.06891 0.00121 0.0
C1218 C 0.23266 0.0947 0.00596 0.0
C1219 C 0.25427 0.12076 0.00365 0.0
C1220 C 0.22135 0.09463 0.01339 0.0
C1221 C 0.19945 0.0404 0.00355 0.0
C1222 C 0.18902 0.10682 0.01517 0.0
C1223 C 0.17816 0.10629 0.0222 0.0
C1224 C 0.19953 0.09369 0.02756 0.0
C1225 C 0.23185 0.08122 0.02571 0.0
C1226 C 0.24276 0.08194 0.01869 0.0
H1227 H 0.19566 0.02108 0.99934 0.0
H1228 H 0.21023 0.02772 0.00829 0.0
H1229 H 0.17428 0.05096 0.00505 0.0
H1230 H 0.17219 0.11664 0.01112 0.0
H1231 H 0.15304 0.11589 0.02344 0.0
H1232 H 0.80112 0.92114 0.77415 0.0
H1233 H 0.8043 0.94209 0.76199 0.0
H1234 H 0.89645 0.99647 0.76705 0.0
H1235 H 0.89313 0.97588 0.77924 0.0
H1236 H 0.85289 0.03549 0.75964 0.0
H1237 H 0.86697 0.91068 0.74643 0.0
H1238 H 0.82982 0.91252 0.75192 0.0
H1239 H 0.87135 0.91584 0.75586 0.0
C1240 C 0.82208 0.93752 0.77265 0.0
C1241 C 0.84658 0.94732 0.77765 0.0
C1242 C 0.824 0.94927 0.7657 0.0
C1243 C 0.8509 0.97041 0.76359 0.0
C1244 C 0.87547 0.98018 0.76857 0.0
H1245 H 0.89215 0.01939 0.71938 0.0
H1246 H 0.89573 0.99769 0.73149 0.0
C1247 C 0.87339 0.96865 0.77555 0.0
C1248 C 0.85275 0.98322 0.75623 0.0
H1249 H 0.8527 0.95778 0.73898 0.0
C1250 C 0.85313 0.0185 0.75512 0.0
C1251 C 0.85371 0.96103 0.75035 0.0
C1252 C 0.85582 0.92292 0.75119 0.0
C1253 C 0.85335 0.03223 0.74828 0.0
C1254 C 0.85226 0.01004 0.7424 0.0
C1255 C 0.85302 0.97476 0.7435 0.0
C1256 C 0.8499 0.02291 0.73506 0.0
C1257 C 0.85509 0.07036 0.74744 0.0
C1258 C 0.82268 0.04382 0.73302 0.0
C1259 C 0.8206 0.05621 0.72612 0.0
C1260 C 0.84529 0.04728 0.72109 0.0
C1261 C 0.87229 0.02598 0.7231 0.0
C1262 C 0.87451 0.0138 0.73003 0.0
H1263 H 0.86631 0.0827 0.75218 0.0
H1264 H 0.8704 0.07757 0.74274 0.0
H1265 H 0.82898 0.08054 0.74675 0.0
H1266 H 0.80296 0.0505 0.73677 0.0
H1267 H 0.79949 0.07253 0.7247 0.0
H1268 H 0.74571 0.12505 0.4688 0.0
H1269 H 0.76814 0.12523 0.48084 0.0
H1270 H 0.69204 0.05219 0.48707 0.0
H1271 H 0.66979 0.05139 0.475 0.0
H1272 H 0.69708 0.11064 0.49591 0.0
H1273 H 0.82285 0.05013 0.4912 0.0
H1274 H 0.81274 0.08531 0.48551 0.0
H1275 H 0.78813 0.04692 0.48499 0.0
C1276 C 0.73441 0.10821 0.47266 0.0
C1277 C 0.70652 0.08751 0.4709 0.0
C1278 C 0.7471 0.10856 0.47956 0.0
C1279 C 0.73206 0.08832 0.4848 0.0
C1280 C 0.70413 0.0678 0.48307 0.0
H1281 H 0.76103 0.06196 0.52998 0.0
H1282 H 0.73976 0.0606 0.51784 0.0
C1283 C 0.69147 0.06739 0.47618 0.0
C1284 C 0.74437 0.08972 0.49217 0.0
H1285 H 0.81301 0.07274 0.50262 0.0
C1286 C 0.72236 0.10224 0.4974 0.0
C1287 C 0.77741 0.07887 0.49406 0.0
C1288 C 0.80164 0.06428 0.48867 0.0
C1289 C 0.73272 0.1047 0.50447 0.0
C1290 C 0.7657 0.09365 0.50637 0.0
C1291 C 0.78772 0.08116 0.50114 0.0
C1292 C 0.77798 0.09499 0.51375 0.0
C1293 C 0.70856 0.11981 0.50981 0.0
C1294 C 0.80693 0.11414 0.51544 0.0
C1295 C 0.81907 0.11501 0.52236 0.0
C1296 C 0.80237 0.09685 0.52774 0.0
C1297 C 0.77363 0.0773 0.52602 0.0
C1298 C 0.76156 0.07634 0.51908 0.0
H1299 H 0.68824 0.13504 0.50723 0.0
H1300 H 0.69618 0.09898 0.51282 0.0
H1301 H 0.7223 0.13631 0.51363 0.0
H1302 H 0.8201 0.12851 0.51139 0.0
H1303 H 0.84142 0.13011 0.52353 0.0
H1304 H 0.69847 0.08476 0.27407 0.0
H1305 H 0.69648 0.06296 0.26197 0.0
H1306 H 0.61596 0.99409 0.26787 0.0
H1307 H 0.6168 0.01674 0.27989 0.0
H1308 H 0.70668 0.99734 0.25706 0.0
H1309 H 0.57648 0.04265 0.25071 0.0
H1310 H 0.59969 0.05725 0.25836 0.0
H1311 H 0.57882 0.01657 0.25848 0.0
C1312 C 0.68031 0.06498 0.27279 0.0
C1313 C 0.65821 0.05206 0.27797 0.0
C1314 C 0.67928 0.05251 0.26588 0.0
C1315 C 0.65587 0.02716 0.26402 0.0
C1316 C 0.63394 0.01397 0.26919 0.0
H1317 H 0.61531 0.91501 0.22559 0.0
H1318 H 0.61699 0.93711 0.23769 0.0
C1319 C 0.6349 0.02651 0.27609 0.0
C1320 C 0.65467 0.01441 0.25666 0.0
H1321 H 0.60279 0.00639 0.24229 0.0
C1322 C 0.68403 0.99944 0.25381 0.0
C1323 C 0.62507 0.01728 0.25245 0.0
C1324 C 0.59331 0.03459 0.25512 0.0
C1325 C 0.68442 0.98671 0.24689 0.0
C1326 C 0.65478 0.98943 0.2427 0.0
C1327 C 0.62543 0.00438 0.24554 0.0
C1328 C 0.65366 0.97656 0.23537 0.0
C1329 C 0.71627 0.96988 0.24414 0.0
C1330 C 0.67351 0.99168 0.23007 0.0
C1331 C 0.67254 0.97918 0.22316 0.0
C1332 C 0.65153 0.95149 0.22144 0.0
C1333 C 0.63167 0.93645 0.22677 0.0
C1334 C 0.63252 0.94906 0.23366 0.0
H1335 H 0.73427 0.96349 0.24847 0.0
H1336 H 0.70994 0.94625 0.2412 0.0
H1337 H 0.72933 0.98742 0.24043 0.0
H1338 H 0.68984 0.01308 0.23129 0.0
H1339 H 0.68887 0.99067 0.21923 0.0
H1340 H 0.85151 0.90228 0.97552 0.0
H1341 H 0.8326 0.89807 0.98783 0.0
H1342 H 0.72819 0.90557 0.98105 0.0
H1343 H 0.74692 0.91079 0.96876 0.0
H1344 H 0.78966 0.94934 0.99484 0.0
H1345 H 0.73259 0.81988 0.99449 0.0
H1346 H 0.76376 0.83356 0.98807 0.0
H1347 H 0.72059 0.848 0.98741 0.0
C1348 C 0.82451 0.90271 0.97666 0.0
C1349 C 0.80064 0.90588 0.97117 0.0
C1350 C 0.81379 0.90025 0.98367 0.0
C1351 C 0.77903 0.90087 0.98531 0.0
C1352 C 0.7551 0.90418 0.97986 0.0
H1353 H 0.66006 0.89834 0.02366 0.0
H1354 H 0.68107 0.89638 0.01149 0.0
C1355 C 0.76583 0.90687 0.97284 0.0
C1356 C 0.7679 0.90015 0.99277 0.0
H1357 H 0.72466 0.85254 0.00486 0.0
C1358 C 0.77562 0.92814 0.99706 0.0
C1359 C 0.74943 0.87251 0.99559 0.0
C1360 C 0.74121 0.8416 0.99119 0.0
C1361 C 0.76468 0.92959 0.00411 0.0
C1362 C 0.74636 0.90182 0.00697 0.0
C1363 C 0.73881 0.87373 0.00266 0.0
C1364 C 0.73405 0.90184 0.01437 0.0
C1365 C 0.77193 0.96132 0.00834 0.0
C1366 C 0.7569 0.90515 0.02003 0.0
C1367 C 0.74492 0.90666 0.02697 0.0
C1368 C 0.70994 0.904 0.02839 0.0
C1369 C 0.68718 0.9002 0.02272 0.0
C1370 C 0.69914 0.89896 0.01578 0.0
H1371 H 0.77757 0.9834 0.00487 0.0
H1372 H 0.7501 0.96796 0.0118 0.0
H1373 H 0.7945 0.95689 0.01174 0.0
H1374 H 0.78399 0.90697 0.01907 0.0
H1375 H 0.76298 0.91081 0.0312 0.0
H1376 H 0.69333 0.58118 0.72478 0.0
H1377 H 0.69187 0.55967 0.7369 0.0
H1378 H 0.61446 0.48739 0.73101 0.0
H1379 H 0.61525 0.50917 0.71891 0.0
H1380 H 0.63397 0.55725 0.74608 0.0
H1381 H 0.68843 0.42908 0.74096 0.0
H1382 H 0.69256 0.46382 0.73477 0.0
H1383 H 0.65313 0.44103 0.73546 0.0
C1384 C 0.67613 0.56055 0.72605 0.0
C1385 C 0.65506 0.54628 0.72083 0.0
C1386 C 0.67535 0.54832 0.73298 0.0
C1387 C 0.6535 0.52158 0.73481 0.0
C1388 C 0.63212 0.50749 0.72965 0.0
H1389 H 0.61519 0.41199 0.77374 0.0
H1390 H 0.61492 0.43391 0.76165 0.0
C1391 C 0.63283 0.51978 0.72271 0.0
C1392 C 0.6524 0.50921 0.7422 0.0
H1393 H 0.66835 0.43987 0.75252 0.0
C1394 C 0.64155 0.53162 0.74751 0.0
C1395 C 0.66221 0.47576 0.74401 0.0
C1396 C 0.67501 0.45102 0.73852 0.0
C1397 C 0.63978 0.52129 0.7546 0.0
C1398 C 0.64987 0.48789 0.75643 0.0
C1399 C 0.66065 0.46547 0.7511 0.0
C1400 C 0.64934 0.47554 0.76383 0.0
C1401 C 0.6264 0.54598 0.76004 0.0
C1402 C 0.66903 0.49148 0.76906 0.0
C1403 C 0.66911 0.47908 0.77599 0.0
C1404 C 0.64962 0.45041 0.77779 0.0
C1405 C 0.63031 0.43426 0.77252 0.0
C1406 C 0.63011 0.44675 0.76561 0.0
H1407 H 0.61122 0.56662 0.75756 0.0
H1408 H 0.61032 0.5328 0.76401 0.0
H1409 H 0.64814 0.55789 0.76284 0.0
H1410 H 0.68489 0.51311 0.76776 0.0
H1411 H 0.68525 0.49132 0.77985 0.0
H1412 H 0.68123 0.45596 0.97496 0.0
H1413 H 0.70257 0.45385 0.98709 0.0
H1414 H 0.75718 0.36155 0.98227 0.0
H1415 H 0.73624 0.36383 0.9701 0.0
H1416 H 0.693 0.40619 0.99709 0.0
H1417 H 0.83085 0.41842 0.99134 0.0
H1418 H 0.7986 0.42637 0.98477 0.0
H1419 H 0.81081 0.38348 0.98688 0.0
C1420 C 0.69805 0.43539 0.97647 0.0
C1421 C 0.70771 0.4105 0.97154 0.0
C1422 C 0.71018 0.43418 0.9834 0.0
C1423 C 0.73197 0.40789 0.98556 0.0
C1424 C 0.74122 0.38264 0.98067 0.0
H1425 H 0.7727 0.36148 0.03004 0.0
H1426 H 0.75175 0.36007 0.01786 0.0
C1427 C 0.72932 0.38401 0.97371 0.0
C1428 C 0.74408 0.40658 0.99298 0.0
H1429 H 0.81565 0.40628 0.0032 0.0
C1430 C 0.71983 0.40624 0.99843 0.0
C1431 C 0.77908 0.40698 0.99472 0.0
C1432 C 0.80637 0.40916 0.98913 0.0
C1433 C 0.72957 0.40639 0.00557 0.0
C1434 C 0.76457 0.40605 0.00731 0.0
C1435 C 0.78883 0.40629 0.00186 0.0
C1436 C 0.77669 0.40681 0.01473 0.0
C1437 C 0.70228 0.40795 0.01117 0.0
C1438 C 0.79832 0.43305 0.01698 0.0
C1439 C 0.81046 0.43376 0.02391 0.0
C1440 C 0.80096 0.40842 0.02875 0.0
C1441 C 0.7795 0.38199 0.0265 0.0
C1442 C 0.76759 0.38111 0.01953 0.0
H1443 H 0.67774 0.41725 0.00899 0.0
H1444 H 0.69799 0.38207 0.01333 0.0
H1445 H 0.70995 0.42485 0.01559 0.0
H1446 H 0.80581 0.45306 0.01336 0.0
H1447 H 0.82716 0.4543 0.0255 0.0
H1448 H 0.79453 0.57368 0.27451 0.0
H1449 H 0.79632 0.55231 0.26238 0.0
H1450 H 0.88915 0.49833 0.26705 0.0
H1451 H 0.88723 0.51934 0.27922 0.0
H1452 H 0.84385 0.56227 0.25232 0.0
H1453 H 0.83222 0.42434 0.25805 0.0
H1454 H 0.82422 0.45654 0.26464 0.0
H1455 H 0.86714 0.44457 0.26249 0.0
C1456 C 0.81515 0.55699 0.27296 0.0
C1457 C 0.84031 0.54754 0.27785 0.0
C1458 C 0.81617 0.54485 0.26603 0.0
C1459 C 0.84253 0.52324 0.26384 0.0
C1460 C 0.86803 0.51416 0.26868 0.0
H1461 H 0.88778 0.48275 0.21931 0.0
H1462 H 0.88962 0.50348 0.2315 0.0
C1463 C 0.86685 0.5261 0.27564 0.0
C1464 C 0.84367 0.51116 0.25641 0.0
H1465 H 0.84379 0.43966 0.24618 0.0
C1466 C 0.84382 0.53546 0.25097 0.0
C1467 C 0.8433 0.47618 0.25467 0.0
C1468 C 0.84139 0.44887 0.26026 0.0
C1469 C 0.84348 0.52575 0.24383 0.0
C1470 C 0.84382 0.49077 0.24209 0.0
C1471 C 0.84379 0.46647 0.24753 0.0
C1472 C 0.84283 0.47872 0.23466 0.0
C1473 C 0.84175 0.55307 0.23824 0.0
C1474 C 0.81642 0.45726 0.23243 0.0
C1475 C 0.81544 0.44529 0.22549 0.0
C1476 C 0.8407 0.45476 0.22062 0.0
C1477 C 0.86733 0.476 0.22287 0.0
C1478 C 0.86846 0.48777 0.22984 0.0
H1479 H 0.8326 0.57763 0.24044 0.0
H1480 H 0.86755 0.5573 0.23604 0.0
H1481 H 0.82465 0.54544 0.23385 0.0
H1482 H 0.79647 0.44982 0.23606 0.0
H1483 H 0.79476 0.42875 0.22391 0.0
H1484 H 0.66475 0.63626 0.52302 0.0
H1485 H 0.68624 0.63442 0.51089 0.0
H1486 H 0.76373 0.56311 0.51724 0.0
H1487 H 0.74194 0.56424 0.52935 0.0
H1488 H 0.75459 0.64937 0.50594 0.0
H1489 H 0.71369 0.51665 0.50039 0.0
H1490 H 0.69676 0.54116 0.50766 0.0
H1491 H 0.73838 0.52261 0.50829 0.0
C1492 C 0.68642 0.62022 0.52184 0.0
C1493 C 0.70199 0.60079 0.52717 0.0
C1494 C 0.69868 0.61929 0.51491 0.0
C1495 C 0.72639 0.59849 0.51317 0.0
C1496 C 0.74215 0.57917 0.51848 0.0
H1497 H 0.83181 0.55189 0.47424 0.0
H1498 H 0.8107 0.55465 0.48638 0.0
C1499 C 0.72999 0.58023 0.52542 0.0
C1500 C 0.73867 0.59702 0.50579 0.0
H1501 H 0.74617 0.54417 0.49157 0.0
C1502 C 0.75271 0.62644 0.50278 0.0
C1503 C 0.73612 0.56703 0.50171 0.0
C1504 C 0.72019 0.53507 0.50463 0.0
C1505 C 0.76493 0.62649 0.49581 0.0
C1506 C 0.76224 0.59652 0.4917 0.0
C1507 C 0.74813 0.56712 0.49473 0.0
C1508 C 0.77451 0.59487 0.48431 0.0
C1509 C 0.78135 0.65838 0.49297 0.0
C1510 C 0.76089 0.61631 0.47909 0.0
C1511 C 0.77306 0.61494 0.47215 0.0
C1512 C 0.79869 0.59168 0.47028 0.0
C1513 C 0.81198 0.57002 0.47551 0.0
C1514 C 0.7999 0.57149 0.48244 0.0
H1515 H 0.78955 0.67566 0.49729 0.0
H1516 H 0.80381 0.65218 0.48965 0.0
H1517 H 0.76272 0.67229 0.48965 0.0
H1518 H 0.74095 0.63424 0.4804 0.0
H1519 H 0.76298 0.63271 0.46833 0.0
H1520 H 0.29711 0.43107 0.27391 0.0
H1521 H 0.30084 0.4518 0.26175 0.0
H1522 H 0.39339 0.5053 0.26688 0.0
H1523 H 0.38956 0.48489 0.27908 0.0
H1524 H 0.35075 0.54434 0.25915 0.0
H1525 H 0.36419 0.41817 0.2465 0.0
H1526 H 0.32676 0.42087 0.25189 0.0
H1527 H 0.36812 0.42418 0.25591 0.0
C1528 C 0.31824 0.44728 0.27244 0.0
C1529 C 0.34277 0.45675 0.27746 0.0
C1530 C 0.32047 0.4589 0.26548 0.0
C1531 C 0.34771 0.47962 0.26337 0.0
C1532 C 0.37216 0.48931 0.26839 0.0
H1533 H 0.39059 0.52373 0.21894 0.0
H1534 H 0.39389 0.50323 0.23114 0.0
C1535 C 0.36978 0.47789 0.27538 0.0
C1536 C 0.35017 0.49175 0.25597 0.0
H1537 H 0.35062 0.46464 0.23882 0.0
C1538 C 0.351 0.52691 0.25471 0.0
C1539 C 0.3512 0.469 0.25017 0.0
C1540 C 0.35289 0.43096 0.25118 0.0
C1541 C 0.35164 0.53996 0.2478 0.0
C1542 C 0.35054 0.51723 0.24201 0.0
C1543 C 0.35093 0.48206 0.24327 0.0
C1544 C 0.3484 0.52939 0.2346 0.0
C1545 C 0.35379 0.57798 0.2468 0.0
C1546 C 0.32143 0.5504 0.23246 0.0
C1547 C 0.3195 0.56207 0.22551 0.0
C1548 C 0.34407 0.55236 0.22051 0.0
C1549 C 0.3708 0.53093 0.22262 0.0
C1550 C 0.37288 0.51945 0.22961 0.0
H1551 H 0.3651 0.59064 0.2515 0.0
H1552 H 0.36921 0.58459 0.24208 0.0
H1553 H 0.32779 0.58837 0.24606 0.0
H1554 H 0.30178 0.5577 0.23617 0.0
H1555 H 0.29857 0.5785 0.22402 0.0
H1556 H 0.27165 0.63773 0.02976 0.0
H1557 H 0.25183 0.64002 0.0175 0.0
H1558 H 0.3019 0.54458 0.01322 0.0
H1559 H 0.32214 0.54245 0.02543 0.0
H1560 H 0.31468 0.59103 0.00308 0.0
H1561 H 0.17601 0.58586 0.00846 0.0
H1562 H 0.19745 0.62015 0.01285 0.0
H1563 H 0.2074 0.5769 0.01515 0.0
C1564 C 0.27779 0.61691 0.02624 0.0
C1565 C 0.29779 0.58952 0.02858 0.0
C1566 C 0.26655 0.61829 0.01924 0.0
C1567 C 0.27485 0.59215 0.01448 0.0
C1568 C 0.29505 0.56494 0.01681 0.0
H1569 H 0.17972 0.54665 0.97458 0.0
H1570 H 0.20103 0.54774 0.98672 0.0
C1571 C 0.30654 0.56372 0.02378 0.0
C1572 C 0.26335 0.59338 0.00703 0.0
H1573 H 0.19258 0.59609 0.99661 0.0
C1574 C 0.28798 0.59211 0.00166 0.0
C1575 C 0.2285 0.59447 0.00519 0.0
C1576 C 0.20077 0.5941 0.01071 0.0
C1577 C 0.27872 0.59173 0.9945 0.0
C1578 C 0.2439 0.59351 0.99266 0.0
C1579 C 0.21928 0.59495 0.99803 0.0
C1580 C 0.23223 0.59253 0.98522 0.0
C1581 C 0.30627 0.58841 0.98899 0.0
C1582 C 0.24264 0.61738 0.98034 0.0
C1583 C 0.23077 0.61656 0.97338 0.0
C1584 C 0.20803 0.59106 0.97121 0.0
C1585 C 0.1974 0.56646 0.97611 0.0
C1586 C 0.20951 0.5671 0.98304 0.0
H1587 H 0.33024 0.57827 0.99128 0.0
H1588 H 0.29813 0.57142 0.98462 0.0
H1589 H 0.31183 0.61386 0.98673 0.0
H1590 H 0.25939 0.63781 0.98196 0.0
H1591 H 0.23849 0.6365 0.96978 0.0
H1592 H 0.11365 0.48875 0.71914 0.0
H1593 H 0.11196 0.51066 0.73124 0.0
H1594 H 0.2019 0.45275 0.73633 0.0
H1595 H 0.20327 0.4303 0.72428 0.0
H1596 H 0.15416 0.44526 0.74622 0.0
H1597 H 0.17027 0.58253 0.74037 0.0
H1598 H 0.13477 0.5637 0.73588 0.0
H1599 H 0.17727 0.54996 0.73382 0.0
C1600 C 0.13347 0.48131 0.7228 0.0
C1601 C 0.15902 0.45838 0.72074 0.0
C1602 C 0.13245 0.4938 0.72972 0.0
C1603 C 0.15719 0.48387 0.73466 0.0
C1604 C 0.18265 0.4609 0.7326 0.0
H1605 H 0.20112 0.5792 0.77479 0.0
H1606 H 0.20097 0.55819 0.76263 0.0
C1607 C 0.18345 0.44814 0.72572 0.0
C1608 C 0.15592 0.49623 0.74206 0.0
H1609 H 0.15607 0.56804 0.75219 0.0
C1610 C 0.15467 0.47212 0.74753 0.0
C1611 C 0.15693 0.53125 0.74376 0.0
C1612 C 0.16022 0.55836 0.73816 0.0
C1613 C 0.15441 0.48202 0.75465 0.0
C1614 C 0.15446 0.51707 0.75635 0.0
C1615 C 0.15574 0.54119 0.75088 0.0
C1616 C 0.15441 0.52931 0.76376 0.0
C1617 C 0.15508 0.45481 0.76028 0.0
C1618 C 0.12812 0.52033 0.76843 0.0
C1619 C 0.12841 0.532 0.77541 0.0
C1620 C 0.15478 0.55314 0.77781 0.0
C1621 C 0.18062 0.56272 0.77309 0.0
C1622 C 0.18053 0.55078 0.76614 0.0
H1623 H 0.16454 0.4302 0.75817 0.0
H1624 H 0.17141 0.46244 0.7648 0.0
H1625 H 0.12888 0.45065 0.76228 0.0
H1626 H 0.10716 0.50467 0.76666 0.0
H1627 H 0.10758 0.52515 0.77887 0.0
H1628 H 0.15447 0.39631 0.52414 0.0
H1629 H 0.17344 0.39308 0.51182 0.0
H1630 H 0.27756 0.40392 0.51858 0.0
H1631 H 0.25874 0.40829 0.53088 0.0
H1632 H 0.21589 0.44627 0.50484 0.0
H1633 H 0.27461 0.3175 0.5051 0.0
H1634 H 0.24269 0.33039 0.51143 0.0
H1635 H 0.2855 0.34562 0.51226 0.0
C1636 C 0.18144 0.3977 0.523 0.0
C1637 C 0.20521 0.40151 0.5285 0.0
C1638 C 0.1922 0.39581 0.51598 0.0
C1639 C 0.2269 0.39764 0.51433 0.0
C1640 C 0.25072 0.40164 0.51978 0.0
H1641 H 0.34605 0.39576 0.47596 0.0
H1642 H 0.32501 0.39385 0.48813 0.0
C1643 C 0.23995 0.40379 0.52681 0.0
C1644 C 0.23806 0.39724 0.50687 0.0
H1645 H 0.28177 0.35027 0.49473 0.0
C1646 C 0.23014 0.42525 0.5026 0.0
C1647 C 0.2568 0.36984 0.50402 0.0
C1648 C 0.26532 0.33894 0.5084 0.0
C1649 C 0.24112 0.42697 0.49555 0.0
C1650 C 0.2597 0.39942 0.49266 0.0
C1651 C 0.26745 0.3713 0.49695 0.0
C1652 C 0.27205 0.39966 0.48525 0.0
C1653 C 0.23366 0.45876 0.49136 0.0
C1654 C 0.24925 0.40318 0.47959 0.0
C1655 C 0.26127 0.40468 0.47264 0.0
C1656 C 0.29623 0.40177 0.47122 0.0
C1657 C 0.31894 0.39781 0.4769 0.0
C1658 C 0.30695 0.3966 0.48384 0.0
H1659 H 0.22802 0.48074 0.49486 0.0
H1660 H 0.25538 0.46558 0.48788 0.0
H1661 H 0.21102 0.45434 0.48798 0.0
H1662 H 0.22217 0.40512 0.48054 0.0
H1663 H 0.24323 0.40898 0.46841 0.0
H1664 H 0.09806 0.14865 0.17044 0.0
H1665 H 0.05532 0.19364 0.16954 0.0
H1666 H 0.05843 0.20747 0.19213 0.0
H1667 H 0.10104 0.1626 0.19311 0.0
H1668 H 0.99202 0.19264 0.18597 0.0
H1669 H 0.05958 0.29904 0.17254 0.0
H1670 H 0.06417 0.25733 0.16874 0.0
H1671 H 0.0819 0.26598 0.17729 0.0
C1672 C 0.09031 0.1618 0.1752 0.0
C1673 C 0.10282 0.15181 0.18186 0.0
C1674 C 0.06589 0.18751 0.17467 0.0
C1675 C 0.05378 0.20373 0.18077 0.0
C1676 C 0.06749 0.19513 0.18736 0.0
H1677 H 0.89894 0.34414 0.19318 0.0
H1678 H 0.9397 0.29764 0.1923 0.0
C1679 C 0.09193 0.16954 0.18791 0.0
C1680 C 0.02471 0.22743 0.18039 0.0
H1681 H 0.001 0.30629 0.17475 0.0
C1682 C 0.9939 0.2175 0.18351 0.0
C1683 C 0.02726 0.25953 0.17709 0.0
C1684 C 0.06001 0.27139 0.17375 0.0
C1685 C 0.96551 0.23906 0.18349 0.0
C1686 C 0.96833 0.27166 0.18039 0.0
C1687 C 0.99893 0.28125 0.17712 0.0
C1688 C 0.94063 0.29704 0.18086 0.0
C1689 C 0.93275 0.22664 0.18674 0.0
C1690 C 0.92747 0.31204 0.17472 0.0
C1691 C 0.90426 0.33885 0.1752 0.0
C1692 C 0.89401 0.3513 0.18184 0.0
C1693 C 0.90614 0.33515 0.18798 0.0
C1694 C 0.92938 0.30842 0.18749 0.0
H1695 H 0.93146 0.19841 0.18678 0.0
H1696 H 0.9313 0.23552 0.1923 0.0
H1697 H 0.91029 0.23663 0.18385 0.0
H1698 H 0.9359 0.30363 0.16956 0.0
H1699 H 0.89546 0.35068 0.17036 0.0
H1700 H 0.09296 0.85244 0.44312 0.0
H1701 H 0.04737 0.81067 0.4421 0.0
H1702 H 0.05953 0.80956 0.41946 0.0
H1703 H 0.10568 0.851 0.42041 0.0
H1704 H 0.98574 0.80865 0.4347 0.0
H1705 H 0.07629 0.71011 0.42515 0.0
H1706 H 0.09027 0.74986 0.42893 0.0
H1707 H 0.07482 0.74846 0.42 0.0
C1708 C 0.08566 0.84377 0.43791 0.0
C1709 C 0.10334 0.85474 0.43186 0.0
C1710 C 0.0596 0.81985 0.43734 0.0
C1711 C 0.05073 0.80645 0.43073 0.0
C1712 C 0.06662 0.81903 0.42463 0.0
H1713 H 0.90597 0.64627 0.42029 0.0
H1714 H 0.9504 0.68975 0.41967 0.0
C1715 C 0.09278 0.84294 0.42518 0.0
C1716 C 0.026 0.77818 0.43031 0.0
H1717 H 0.01871 0.69389 0.42617 0.0
C1718 C 0.99288 0.7836 0.43281 0.0
C1719 C 0.03553 0.7455 0.42786 0.0
C1720 C 0.07122 0.73789 0.42538 0.0
C1721 C 0.96897 0.75716 0.43295 0.0
C1722 C 0.97867 0.72441 0.43061 0.0
C1723 C 0.01153 0.71908 0.42797 0.0
C1724 C 0.95498 0.69533 0.43099 0.0
C1725 C 0.93347 0.76443 0.43557 0.0
C1726 C 0.94412 0.68312 0.43757 0.0
C1727 C 0.91892 0.6582 0.43796 0.0
C1728 C 0.9041 0.64511 0.43176 0.0
C1729 C 0.9167 0.65589 0.42517 0.0
C1730 C 0.94201 0.68079 0.42479 0.0
H1731 H 0.92793 0.79214 0.43567 0.0
H1732 H 0.91423 0.7516 0.4322 0.0
H1733 H 0.93074 0.75448 0.44103 0.0
H1734 H 0.95436 0.6937 0.44241 0.0
H1735 H 0.91002 0.65037 0.44313 0.0
H1736 H 0.39745 0.84989 0.67036 0.0
H1737 H 0.43784 0.80292 0.66925 0.0
H1738 H 0.43757 0.79008 0.69188 0.0
H1739 H 0.39687 0.83645 0.69305 0.0
H1740 H 0.50201 0.80376 0.67498 0.0
H1741 H 0.43033 0.69272 0.68504 0.0
H1742 H 0.4097 0.73177 0.68243 0.0
H1743 H 0.42897 0.72809 0.69102 0.0
C1744 C 0.40531 0.83654 0.67509 0.0
C1745 C 0.39397 0.84704 0.6818 0.0
C1746 C 0.42851 0.80979 0.67444 0.0
C1747 C 0.44053 0.7929 0.68047 0.0
C1748 C 0.42814 0.80233 0.68714 0.0
H1749 H 0.59918 0.65733 0.69287 0.0
H1750 H 0.55625 0.70187 0.69183 0.0
C1751 C 0.40495 0.829 0.6878 0.0
C1752 C 0.46829 0.76762 0.6799 0.0
H1753 H 0.49114 0.68734 0.68481 0.0
C1754 C 0.49953 0.77812 0.67703 0.0
C1755 C 0.46495 0.73424 0.68259 0.0
C1756 C 0.43156 0.72091 0.68538 0.0
C1757 C 0.52794 0.7565 0.67703 0.0
C1758 C 0.52485 0.72362 0.67995 0.0
C1759 C 0.49342 0.71279 0.68264 0.0
C1760 C 0.55403 0.70008 0.68042 0.0
C1761 C 0.56135 0.76927 0.67415 0.0
C1762 C 0.56758 0.68507 0.67432 0.0
C1763 C 0.59218 0.65954 0.67488 0.0
C1764 C 0.60345 0.64854 0.68156 0.0
C1765 C 0.59107 0.66506 0.68764 0.0
C1766 C 0.56645 0.69046 0.68706 0.0
H1767 H 0.56089 0.7971 0.67313 0.0
H1768 H 0.58233 0.76351 0.67789 0.0
H1769 H 0.567 0.75608 0.6691 0.0
H1770 H 0.55804 0.69201 0.66914 0.0
H1771 H 0.6011 0.64733 0.67009 0.0
H1772 H 0.40893 0.14843 0.92124 0.0
H1773 H 0.45518 0.18983 0.92056 0.0
H1774 H 0.46022 0.19317 0.94331 0.0
H1775 H 0.4145 0.15148 0.94407 0.0
H1776 H 0.45066 0.25486 0.92589 0.0
H1777 H 0.55989 0.18717 0.93789 0.0
H1778 H 0.52227 0.16529 0.93485 0.0
H1779 H 0.52254 0.186 0.94333 0.0
C1780 C 0.42041 0.15732 0.9261 0.0
C1781 C 0.40789 0.14669 0.93271 0.0
C1782 C 0.44675 0.18109 0.9257 0.0
C1783 C 0.46122 0.19442 0.93188 0.0
C1784 C 0.44983 0.18275 0.93847 0.0
H1785 H 0.59537 0.35626 0.94392 0.0
H1786 H 0.5506 0.31342 0.94316 0.0
C1787 C 0.42356 0.15897 0.93889 0.0
C1788 C 0.48598 0.2227 0.93148 0.0
H1789 H 0.56463 0.2477 0.93702 0.0
C1790 C 0.47575 0.25321 0.92825 0.0
C1791 C 0.51862 0.22044 0.93457 0.0
C1792 C 0.53165 0.18785 0.93779 0.0
C1793 C 0.49695 0.28193 0.92823 0.0
C1794 C 0.52919 0.27988 0.93149 0.0
C1795 C 0.53968 0.2492 0.93459 0.0
C1796 C 0.55264 0.3092 0.93177 0.0
C1797 C 0.48438 0.31452 0.92494 0.0
C1798 C 0.56785 0.32165 0.92559 0.0
C1799 C 0.59347 0.34621 0.92599 0.0
C1800 C 0.60442 0.35852 0.9326 0.0
C1801 C 0.58767 0.34731 0.93875 0.0
C1802 C 0.56215 0.32274 0.93833 0.0
H1803 H 0.45656 0.31388 0.92392 0.0
H1804 H 0.49022 0.33658 0.92839 0.0
H1805 H 0.49755 0.31853 0.91982 0.0
H1806 H 0.56106 0.31121 0.92048 0.0
H1807 H 0.60585 0.35419 0.92116 0.0
H1808 H 0.10348 0.84303 0.3053 0.0
H1809 H 0.06182 0.79717 0.30602 0.0
H1810 H 0.06178 0.80482 0.32875 0.0
H1811 H 0.10312 0.85117 0.32811 0.0
H1812 H 0.06018 0.73401 0.31296 0.0
H1813 H 0.96207 0.82285 0.32334 0.0
H1814 H 0.00165 0.83746 0.31959 0.0
H1815 H 0.00063 0.82061 0.32841 0.0
C1816 C 0.09507 0.83467 0.31047 0.0
C1817 C 0.10629 0.85116 0.31665 0.0
C1818 C 0.07121 0.80847 0.31086 0.0
C1819 C 0.05815 0.79827 0.31742 0.0
C1820 C 0.071 0.81295 0.32362 0.0
H1821 H 0.89879 0.6531 0.32772 0.0
H1822 H 0.94229 0.69748 0.32827 0.0
C1823 C 0.09484 0.83924 0.32325 0.0
C1824 C 0.02989 0.77349 0.31769 0.0
H1825 H 0.94596 0.76534 0.32205 0.0
C1826 C 0.03523 0.74079 0.31496 0.0
C1827 C 0.99736 0.78257 0.32029 0.0
C1828 C 0.98984 0.81785 0.32302 0.0
C1829 C 0.00886 0.7168 0.31476 0.0
C1830 C 0.97626 0.72603 0.31727 0.0
C1831 C 0.97102 0.75851 0.32012 0.0
C1832 C 0.9473 0.70218 0.31693 0.0
C1833 C 0.01612 0.68168 0.31192 0.0
C1834 C 0.93475 0.69138 0.31037 0.0
C1835 C 0.90981 0.66617 0.31003 0.0
C1836 C 0.89703 0.65133 0.31625 0.0
C1837 C 0.90817 0.66384 0.32283 0.0
C1838 C 0.93309 0.68913 0.32316 0.0
H1839 H 0.04384 0.67626 0.31173 0.0
H1840 H 0.00353 0.66195 0.31521 0.0
H1841 H 0.00592 0.67964 0.30647 0.0
H1842 H 0.94502 0.70171 0.30551 0.0
H1843 H 0.90169 0.65733 0.30488 0.0
H1844 H 0.59143 0.65493 0.55577 0.0
H1845 H 0.54695 0.69768 0.55717 0.0
H1846 H 0.55969 0.69456 0.57978 0.0
H1847 H 0.60448 0.65173 0.57847 0.0
H1848 H 0.48735 0.69703 0.57364 0.0
H1849 H 0.57652 0.79694 0.56419 0.0
H1850 H 0.57423 0.75896 0.55891 0.0
H1851 H 0.59091 0.75675 0.56772 0.0
C1852 C 0.58445 0.66279 0.56106 0.0
C1853 C 0.60184 0.65014 0.567 0.0
C1854 C 0.55912 0.68733 0.56184 0.0
C1855 C 0.55063 0.69956 0.56857 0.0
C1856 C 0.5662 0.6855 0.57455 0.0
H1857 H 0.39681 0.853 0.57917 0.0
H1858 H 0.44359 0.81238 0.58036 0.0
C1859 C 0.5917 0.66098 0.57378 0.0
C1860 C 0.52687 0.7284 0.56926 0.0
H1861 H 0.51859 0.8127 0.56536 0.0
C1862 C 0.49416 0.72244 0.57191 0.0
C1863 C 0.53612 0.7614 0.56702 0.0
C1864 C 0.57143 0.76916 0.56434 0.0
C1865 C 0.46976 0.7485 0.57208 0.0
C1866 C 0.47875 0.7814 0.56967 0.0
C1867 C 0.51185 0.78749 0.56722 0.0
C1868 C 0.45341 0.80908 0.56913 0.0
C1869 C 0.43417 0.74023 0.57453 0.0
C1870 C 0.44482 0.82206 0.56246 0.0
C1871 C 0.4184 0.8455 0.56177 0.0
C1872 C 0.40006 0.8564 0.56773 0.0
C1873 C 0.41022 0.84497 0.57446 0.0
C1874 C 0.43675 0.82154 0.57515 0.0
H1875 H 0.42967 0.71236 0.57481 0.0
H1876 H 0.43016 0.75099 0.57989 0.0
H1877 H 0.41498 0.75163 0.57093 0.0
H1878 H 0.45762 0.81296 0.55776 0.0
H1879 H 0.41142 0.85389 0.55651 0.0
H1880 H 0.40158 0.15699 0.80638 0.0
H1881 H 0.44443 0.20147 0.80762 0.0
H1882 H 0.44312 0.18882 0.83024 0.0
H1883 H 0.40018 0.14402 0.82909 0.0
H1884 H 0.445 0.26087 0.8242 0.0
H1885 H 0.54426 0.17254 0.81414 0.0
H1886 H 0.50587 0.17499 0.809 0.0
H1887 H 0.50439 0.15785 0.81778 0.0
C1888 C 0.40987 0.16397 0.81164 0.0
C1889 C 0.39769 0.14662 0.81763 0.0
C1890 C 0.43448 0.1893 0.81233 0.0
C1891 C 0.44724 0.19783 0.81901 0.0
C1892 C 0.43365 0.18227 0.82504 0.0
H1893 H 0.60101 0.35221 0.82909 0.0
H1894 H 0.56074 0.30522 0.83041 0.0
C1895 C 0.40907 0.15678 0.82436 0.0
C1896 C 0.47605 0.22169 0.8196 0.0
H1897 H 0.55984 0.23055 0.8153 0.0
C1898 C 0.47025 0.25427 0.82234 0.0
C1899 C 0.50884 0.2127 0.81718 0.0
C1900 C 0.51647 0.17754 0.81441 0.0
C1901 C 0.49619 0.27879 0.82242 0.0
C1902 C 0.52885 0.27006 0.81983 0.0
C1903 C 0.53481 0.2371 0.81729 0.0
C1904 C 0.55634 0.29557 0.8192 0.0
C1905 C 0.48801 0.31424 0.82497 0.0
C1906 C 0.56862 0.30433 0.81248 0.0
C1907 C 0.59187 0.33085 0.8117 0.0
C1908 C 0.60329 0.34914 0.81763 0.0
C1909 C 0.59256 0.33884 0.8244 0.0
C1910 C 0.56932 0.31219 0.82517 0.0
H1911 H 0.46016 0.3186 0.82538 0.0
H1912 H 0.49929 0.31808 0.83029 0.0
H1913 H 0.49896 0.33363 0.82136 0.0
H1914 H 0.55911 0.29156 0.80781 0.0
H1915 H 0.59971 0.33794 0.80641 0.0
H1916 H 0.1049 0.14659 0.07866 0.0
H1917 H 0.05813 0.18733 0.07963 0.0
H1918 H 0.04532 0.18528 0.057 0.0
H1919 H 0.09144 0.14424 0.05598 0.0
H1920 H 0.05967 0.25101 0.07364 0.0
H1921 H 0.94787 0.17951 0.06386 0.0
H1922 H 0.98673 0.15875 0.06655 0.0
H1923 H 0.98326 0.17739 0.05789 0.0
C1924 C 0.09157 0.15412 0.07391 0.0
C1925 C 0.10203 0.14221 0.06724 0.0
C1926 C 0.06495 0.17752 0.07447 0.0
C1927 C 0.04815 0.18916 0.06839 0.0
C1928 C 0.0575 0.17617 0.06177 0.0
H1929 H 0.9109 0.34759 0.05609 0.0
H1930 H 0.95561 0.30467 0.0569 0.0
C1931 C 0.08404 0.15278 0.0612 0.0
C1932 C 0.02315 0.21721 0.06886 0.0
H1933 H 0.94288 0.24029 0.06399 0.0
C1934 C 0.03397 0.24858 0.07162 0.0
C1935 C 0.9897 0.21395 0.06621 0.0
C1936 C 0.97607 0.18048 0.06353 0.0
C1937 C 0.01257 0.27714 0.07156 0.0
C1938 C 0.97953 0.27407 0.06871 0.0
C1939 C 0.96843 0.24256 0.0661 0.0
C1940 C 0.95592 0.30323 0.06832 0.0
C1941 C 0.02572 0.31063 0.07432 0.0
C1942 C 0.94202 0.31721 0.07449 0.0
C1943 C 0.91644 0.34179 0.07406 0.0
C1944 C 0.90424 0.35264 0.06744 0.0
C1945 C 0.91962 0.33983 0.06127 0.0
C1946 C 0.94509 0.31521 0.06172 0.0
H1947 H 0.05373 0.3103 0.0751 0.0
H1948 H 0.01912 0.33163 0.07064 0.0
H1949 H 0.01357 0.31618 0.07949 0.0
H1950 H 0.94987 0.30801 0.07964 0.0
H1951 H 0.90516 0.35106 0.07891 0.0
H1952 H 0.09601 0.65993 0.80616 0.0
H1953 H 0.05367 0.7049 0.80744 0.0
H1954 H 0.05739 0.69423 0.8301 0.0
H1955 H 0.09981 0.64907 0.82891 0.0
H1956 H 0.98878 0.69005 0.815 0.0
H1957 H 0.06114 0.79995 0.82594 0.0
H1958 H 0.08152 0.76658 0.82092 0.0
H1959 H 0.06806 0.75869 0.82982 0.0
C1960 C 0.08846 0.66757 0.81144 0.0
C1961 C 0.10117 0.65067 0.81744 0.0
C1962 C 0.06418 0.69321 0.81214 0.0
C1963 C 0.05246 0.70271 0.81885 0.0
C1964 C 0.06637 0.68734 0.82488 0.0
H1965 H 0.89885 0.85574 0.82905 0.0
H1966 H 0.9388 0.80841 0.83027 0.0
C1967 C 0.09061 0.66155 0.82418 0.0
C1968 C 0.02355 0.72647 0.81947 0.0
H1969 H 0.00228 0.8073 0.82424 0.0
C1970 C 0.99162 0.71566 0.81704 0.0
C1971 C 0.02739 0.75956 0.82224 0.0
C1972 C 0.06135 0.77218 0.82486 0.0
C1973 C 0.96338 0.73741 0.8172 0.0
C1974 C 0.96748 0.77105 0.81969 0.0
C1975 C 0.99922 0.78148 0.82233 0.0
C1976 C 0.94002 0.79663 0.81911 0.0
C1977 C 0.92947 0.72413 0.81469 0.0
C1978 C 0.927 0.80523 0.81244 0.0
C1979 C 0.90407 0.83207 0.81172 0.0
C1980 C 0.89399 0.85114 0.81765 0.0
C1981 C 0.90599 0.84155 0.82437 0.0
C1982 C 0.92894 0.81461 0.82508 0.0
H1983 H 0.92792 0.69603 0.81522 0.0
H1984 H 0.90814 0.73574 0.81769 0.0
H1985 H 0.92623 0.73047 0.80901 0.0
H1986 H 0.93571 0.79215 0.80774 0.0
H1987 H 0.89546 0.83879 0.80647 0.0
H1988 H 0.89621 0.155 0.57871 0.0
H1989 H 0.94201 0.19702 0.57956 0.0
H1990 H 0.95947 0.18884 0.55714 0.0
H1991 H 0.91393 0.14694 0.5562 0.0
H1992 H 0.01456 0.19577 0.57453 0.0
H1993 H 0.93192 0.29098 0.56122 0.0
H1994 H 0.91529 0.25288 0.56529 0.0
H1995 H 0.9357 0.25066 0.55681 0.0
C1996 C 0.91025 0.16157 0.57398 0.0
C1997 C 0.90109 0.14792 0.56737 0.0
C1998 C 0.93632 0.18565 0.57448 0.0
C1999 C 0.95347 0.1964 0.56838 0.0
C2000 C 0.94602 0.18117 0.56187 0.0
H2001 H 0.10077 0.34462 0.55596 0.0
H2002 H 0.05447 0.30348 0.55687 0.0
C2003 C 0.92008 0.15712 0.56137 0.0
C2004 C 0.97776 0.22495 0.56871 0.0
H2005 H 0.98956 0.30643 0.563 0.0
C2006 C 0.00911 0.2201 0.57207 0.0
C2007 C 0.97029 0.25657 0.56551 0.0
C2008 C 0.93638 0.26336 0.56205 0.0
C2009 C 0.03388 0.2458 0.57209 0.0
C2010 C 0.02665 0.27727 0.56877 0.0
C2011 C 0.99497 0.28229 0.56554 0.0
C2012 C 0.0523 0.30465 0.56829 0.0
C2013 C 0.06803 0.23861 0.57541 0.0
C2014 C 0.06539 0.31993 0.5744 0.0
C2015 C 0.09189 0.34347 0.57391 0.0
C2016 C 0.1056 0.35224 0.56729 0.0
C2017 C 0.09094 0.33838 0.56115 0.0
C2018 C 0.06452 0.31479 0.56165 0.0
H2019 H 0.07205 0.21098 0.57632 0.0
H2020 H 0.08898 0.24835 0.57204 0.0
H2021 H 0.06952 0.25167 0.5806 0.0
H2022 H 0.0557 0.31301 0.57956 0.0
H2023 H 0.10238 0.35386 0.57875 0.0
H2024 H 0.39585 0.356 0.32809 0.0
H2025 H 0.43766 0.31016 0.32899 0.0
H2026 H 0.43941 0.30107 0.30628 0.0
H2027 H 0.39728 0.34638 0.30531 0.0
H2028 H 0.44085 0.23857 0.3133 0.0
H2029 H 0.53769 0.32793 0.324 0.0
H2030 H 0.4987 0.32557 0.32893 0.0
H2031 H 0.49838 0.34234 0.3201 0.0
C2032 C 0.40464 0.34387 0.32329 0.0
C2033 C 0.3935 0.35518 0.31662 0.0
C2034 C 0.42876 0.31788 0.32381 0.0
C2035 C 0.44223 0.30293 0.3177 0.0
C2036 C 0.42955 0.31258 0.31107 0.0
H2037 H 0.60047 0.1647 0.30535 0.0
H2038 H 0.55732 0.20919 0.30613 0.0
C2039 C 0.40541 0.33847 0.31053 0.0
C2040 C 0.47055 0.27824 0.31813 0.0
H2041 H 0.55421 0.27049 0.32276 0.0
C2042 C 0.4656 0.24549 0.31538 0.0
C2043 C 0.50283 0.28748 0.32084 0.0
C2044 C 0.50997 0.32281 0.32358 0.0
C2045 C 0.49211 0.22167 0.31527 0.0
C2046 C 0.52447 0.23107 0.31788 0.0
C2047 C 0.52932 0.26355 0.32075 0.0
C2048 C 0.55363 0.20748 0.31752 0.0
C2049 C 0.48536 0.18656 0.31237 0.0
C2050 C 0.56696 0.19314 0.32371 0.0
C2051 C 0.59173 0.16771 0.3233 0.0
C2052 C 0.60359 0.15637 0.31669 0.0
C2053 C 0.59178 0.1726 0.31053 0.0
C2054 C 0.56698 0.19791 0.31095 0.0
H2055 H 0.4577 0.18103 0.31201 0.0
H2056 H 0.49632 0.18462 0.30698 0.0
H2057 H 0.4976 0.16685 0.31571 0.0
H2058 H 0.55709 0.20051 0.32883 0.0
H2059 H 0.60035 0.15588 0.32815 0.0
H2060 H 0.59805 0.85345 0.07758 0.0
H2061 H 0.5519 0.8119 0.07795 0.0
H2062 H 0.55418 0.8041 0.05523 0.0
H2063 H 0.60008 0.84593 0.05477 0.0
H2064 H 0.48791 0.80516 0.06115 0.0
H2065 H 0.57178 0.71041 0.07426 0.0
H2066 H 0.56845 0.75064 0.07871 0.0
H2067 H 0.58806 0.74848 0.07015 0.0
C2068 C 0.58843 0.84334 0.07264 0.0
C2069 C 0.60308 0.85273 0.06614 0.0
C2070 C 0.56222 0.81941 0.07288 0.0
C2071 C 0.55033 0.80437 0.06664 0.0
C2072 C 0.56333 0.81522 0.06012 0.0
H2073 H 0.40807 0.64583 0.05537 0.0
H2074 H 0.45358 0.68806 0.05555 0.0
C2075 C 0.58951 0.83919 0.05986 0.0
C2076 C 0.52532 0.77635 0.0669 0.0
H2077 H 0.51423 0.69473 0.07264 0.0
C2078 C 0.49362 0.781 0.06365 0.0
C2079 C 0.53301 0.74487 0.07016 0.0
C2080 C 0.56726 0.73804 0.07347 0.0
C2081 C 0.46914 0.75507 0.06365 0.0
C2082 C 0.47691 0.72355 0.06687 0.0
C2083 C 0.5085 0.71895 0.07016 0.0
C2084 C 0.45235 0.69513 0.06688 0.0
C2085 C 0.43497 0.76177 0.06029 0.0
C2086 C 0.43797 0.68388 0.07324 0.0
C2087 C 0.41205 0.65956 0.07318 0.0
C2088 C 0.40021 0.64609 0.06674 0.0
C2089 C 0.41633 0.65587 0.06042 0.0
C2090 C 0.4422 0.68016 0.06049 0.0
H2091 H 0.43027 0.7894 0.05954 0.0
H2092 H 0.4341 0.74938 0.05503 0.0
H2093 H 0.41413 0.751 0.06356 0.0
H2094 H 0.44578 0.69497 0.07822 0.0
H2095 H 0.40029 0.65253 0.07814 0.0
H2096 H 0.89835 0.15021 0.6707 0.0
H2097 H 0.93964 0.19655 0.66988 0.0
H2098 H 0.94064 0.20529 0.69259 0.0
H2099 H 0.89902 0.15949 0.69348 0.0
H2100 H 0.94132 0.26793 0.68561 0.0
H2101 H 0.03979 0.18017 0.67498 0.0
H2102 H 0.00092 0.182 0.67001 0.0
H2103 H 0.00059 0.16512 0.67883 0.0
C2104 C 0.90688 0.16236 0.67552 0.0
C2105 C 0.89566 0.15082 0.68216 0.0
C2106 C 0.9307 0.18863 0.67504 0.0
C2107 C 0.94379 0.20366 0.68118 0.0
C2108 C 0.93106 0.19373 0.68779 0.0
H2109 H 0.09958 0.34482 0.69362 0.0
H2110 H 0.05688 0.29987 0.69288 0.0
C2111 C 0.90722 0.16756 0.68828 0.0
C2112 C 0.97175 0.22877 0.6808 0.0
H2113 H 0.05537 0.23785 0.67625 0.0
C2114 C 0.96622 0.26141 0.68355 0.0
C2115 C 0.00423 0.22006 0.67812 0.0
C2116 C 0.01199 0.18487 0.67537 0.0
C2117 C 0.99235 0.28566 0.6837 0.0
C2118 C 0.02491 0.27678 0.68112 0.0
C2119 C 0.03034 0.2444 0.67824 0.0
C2120 C 0.05367 0.30085 0.68148 0.0
C2121 C 0.98494 0.32065 0.68659 0.0
C2122 C 0.06713 0.31496 0.67528 0.0
C2123 C 0.09165 0.34063 0.67567 0.0
C2124 C 0.10314 0.35245 0.68227 0.0
C2125 C 0.09116 0.33654 0.68845 0.0
C2126 C 0.06662 0.31098 0.68805 0.0
H2127 H 0.95718 0.32576 0.68689 0.0
H2128 H 0.99561 0.32274 0.692 0.0
H2129 H 0.99703 0.34056 0.68327 0.0
H2130 H 0.05759 0.30717 0.67016 0.0
H2131 H 0.10041 0.35221 0.6708 0.0
H2132 H 0.40524 0.34329 0.44428 0.0
H2133 H 0.45125 0.30184 0.44357 0.0
H2134 H 0.45245 0.31153 0.42087 0.0
H2135 H 0.40598 0.35268 0.4215 0.0
H2136 H 0.44713 0.24505 0.42536 0.0
H2137 H 0.55223 0.31027 0.43939 0.0
H2138 H 0.5134 0.30944 0.44437 0.0
H2139 H 0.51521 0.33262 0.43618 0.0
C2140 C 0.41573 0.33723 0.43914 0.0
C2141 C 0.40178 0.35125 0.43294 0.0
C2142 C 0.44214 0.31357 0.43875 0.0
C2143 C 0.45539 0.30379 0.43217 0.0
C2144 C 0.44256 0.31879 0.426 0.0
H2145 H 0.60463 0.14945 0.42077 0.0
H2146 H 0.55923 0.19189 0.42026 0.0
C2147 C 0.41609 0.3424 0.42637 0.0
C2148 C 0.48055 0.27589 0.43171 0.0
H2149 H 0.55831 0.25037 0.43768 0.0
C2150 C 0.47161 0.2463 0.42798 0.0
C2151 C 0.51239 0.27764 0.43516 0.0
C2152 C 0.52407 0.30933 0.43894 0.0
C2153 C 0.4933 0.21797 0.42779 0.0
C2154 C 0.52477 0.21949 0.43137 0.0
C2155 C 0.53396 0.24925 0.43499 0.0
C2156 C 0.54871 0.19053 0.43148 0.0
C2157 C 0.48206 0.18631 0.42394 0.0
C2158 C 0.55727 0.17528 0.43793 0.0
C2159 C 0.58314 0.15105 0.43825 0.0
C2160 C 0.60116 0.14185 0.43211 0.0
C2161 C 0.59122 0.15584 0.42558 0.0
C2162 C 0.56526 0.18011 0.42528 0.0
H2163 H 0.45442 0.18675 0.42272 0.0
H2164 H 0.49619 0.18429 0.41888 0.0
H2165 H 0.48777 0.16326 0.42712 0.0
H2166 H 0.54469 0.18301 0.44276 0.0
H2167 H 0.59003 0.14075 0.44336 0.0
H2168 H 0.60492 0.83783 0.19246 0.0
H2169 H 0.56434 0.79156 0.19111 0.0
H2170 H 0.55945 0.81034 0.16868 0.0
H2171 H 0.59977 0.85734 0.16998 0.0
H2172 H 0.49652 0.80935 0.17496 0.0
H2173 H 0.57019 0.69618 0.18317 0.0
H2174 H 0.57294 0.72991 0.18952 0.0
H2175 H 0.59027 0.73588 0.1808 0.0
C2176 C 0.59586 0.83174 0.1872 0.0
C2177 C 0.60552 0.85145 0.18133 0.0
C2178 C 0.57275 0.80509 0.18644 0.0
C2179 C 0.5591 0.79733 0.17978 0.0
C2180 C 0.56981 0.81589 0.17385 0.0
H2181 H 0.39573 0.65404 0.16988 0.0
H2182 H 0.43881 0.69861 0.16881 0.0
C2183 C 0.59298 0.84263 0.17461 0.0
C2184 C 0.53125 0.77215 0.17919 0.0
H2185 H 0.50927 0.691 0.18364 0.0
C2186 C 0.4994 0.78329 0.17675 0.0
C2187 C 0.53511 0.73822 0.18153 0.0
C2188 C 0.56908 0.72423 0.18383 0.0
C2189 C 0.47092 0.76178 0.17687 0.0
C2190 C 0.47456 0.72835 0.17948 0.0
C2191 C 0.50658 0.71686 0.18172 0.0
C2192 C 0.4454 0.70486 0.18008 0.0
C2193 C 0.43689 0.77519 0.17447 0.0
C2194 C 0.43442 0.69427 0.18678 0.0
C2195 C 0.40975 0.66893 0.18742 0.0
C2196 C 0.39593 0.65344 0.18136 0.0
C2197 C 0.40581 0.66541 0.17465 0.0
C2198 C 0.43041 0.69088 0.17403 0.0
H2199 H 0.43728 0.80315 0.17363 0.0
H2200 H 0.42976 0.7628 0.16942 0.0
H2201 H 0.41692 0.76899 0.17842 0.0
H2202 H 0.44576 0.70486 0.19151 0.0
H2203 H 0.40278 0.6604 0.19266 0.0
H2204 H 0.90602 0.84862 0.94465 0.0
H2205 H 0.95157 0.80656 0.94424 0.0
H2206 H 0.95328 0.81297 0.92149 0.0
H2207 H 0.90732 0.85475 0.92182 0.0
H2208 H 0.94663 0.74705 0.9265 0.0
H2209 H 0.05288 0.81329 0.93998 0.0
H2210 H 0.01392 0.81379 0.94492 0.0
H2211 H 0.01623 0.83558 0.93658 0.0
C2212 C 0.91653 0.8417 0.93956 0.0
C2213 C 0.90287 0.85498 0.93327 0.0
C2214 C 0.94268 0.81769 0.93934 0.0
C2215 C 0.95589 0.80681 0.93284 0.0
C2216 C 0.94339 0.82109 0.92656 0.0
H2217 H 0.10259 0.65109 0.92148 0.0
H2218 H 0.05688 0.69315 0.92117 0.0
C2219 C 0.91721 0.84506 0.92677 0.0
C2220 C 0.98067 0.77854 0.93256 0.0
H2221 H 0.05867 0.75339 0.93846 0.0
C2222 C 0.97127 0.74849 0.92905 0.0
C2223 C 0.01268 0.78053 0.93593 0.0
C2224 C 0.02472 0.81264 0.93951 0.0
C2225 C 0.99277 0.72002 0.92897 0.0
C2226 C 0.02455 0.72188 0.93242 0.0
C2227 C 0.03409 0.75202 0.93587 0.0
C2228 C 0.04868 0.69307 0.93248 0.0
C2229 C 0.98103 0.68793 0.92534 0.0
C2230 C 0.05872 0.67869 0.93893 0.0
C2231 C 0.08483 0.65468 0.93913 0.0
C2232 C 0.10161 0.64486 0.93289 0.0
C2233 C 0.09018 0.65798 0.92639 0.0
C2234 C 0.06401 0.68201 0.92619 0.0
H2235 H 0.95314 0.68803 0.92439 0.0
H2236 H 0.99397 0.6857 0.92015 0.0
H2237 H 0.98768 0.66516 0.92852 0.0
H2238 H 0.04711 0.68692 0.94383 0.0
H2239 H 0.09289 0.64505 0.94423 0.0
H2240 H 0.28869 0.08786 0.17812 0.0
H2241 H 0.35109 0.08414 0.17814 0.0
H2242 H 0.34588 0.99876 0.1924 0.0
H2243 H 0.28345 0.00244 0.19238 0.0
H2244 H 0.39837 0.08428 0.1908 0.0
H2245 H 0.40184 0.96714 0.17431 0.0
H2246 H 0.36537 0.99507 0.17456 0.0
H2247 H 0.3735 0.96661 0.18178 0.0
C2248 C 0.30098 0.06835 0.18125 0.0
C2249 C 0.28149 0.04533 0.18523 0.0
C2250 C 0.33649 0.06635 0.18129 0.0
C2251 C 0.35299 0.04109 0.18524 0.0
C2252 C 0.33355 0.01832 0.18929 0.0
H2253 H 0.56174 0.00268 0.19644 0.0
H2254 H 0.50254 0.02155 0.1964 0.0
C2255 C 0.29803 0.02047 0.18929 0.0
C2256 C 0.3905 0.0379 0.18498 0.0
H2257 H 0.45407 0.98625 0.17903 0.0
C2258 C 0.41065 0.06295 0.18821 0.0
C2259 C 0.40632 0.01025 0.18153 0.0
C2260 C 0.38579 0.98327 0.17779 0.0
C2261 C 0.44635 0.06059 0.18822 0.0
C2262 C 0.46213 0.03243 0.18492 0.0
C2263 C 0.44192 0.00782 0.18156 0.0
C2264 C 0.49948 0.0271 0.18505 0.0
C2265 C 0.46694 0.08823 0.1917 0.0
C2266 C 0.5177 0.02473 0.17869 0.0
C2267 C 0.5516 0.01398 0.17869 0.0
C2268 C 0.56783 0.00493 0.18505 0.0
C2269 C 0.55011 0.00941 0.19145 0.0
C2270 C 0.51623 0.02031 0.19144 0.0
H2271 H 0.45183 0.11185 0.19244 0.0
H2272 H 0.4754 0.07934 0.19699 0.0
H2273 H 0.48995 0.09429 0.18854 0.0
H2274 H 0.50521 0.02981 0.17369 0.0
H2275 H 0.56436 0.01084 0.17365 0.0
H2276 H 0.23706 0.31804 0.44541 0.0
H2277 H 0.21861 0.25874 0.44581 0.0
H2278 H 0.23256 0.2506 0.42328 0.0
H2279 H 0.25101 0.30987 0.42281 0.0
H2280 H 0.17489 0.21307 0.42888 0.0
H2281 H 0.29613 0.18772 0.44309 0.0
H2282 H 0.26889 0.21913 0.44704 0.0
H2283 H 0.28791 0.2273 0.43858 0.0
C2284 C 0.23559 0.30393 0.44051 0.0
C2285 C 0.24635 0.31858 0.43411 0.0
C2286 C 0.22505 0.26999 0.44076 0.0
C2287 C 0.22508 0.25011 0.4346 0.0
C2288 C 0.23266 0.26547 0.4281 0.0
H2289 H 0.25759 0.03486 0.42937 0.0
H2290 H 0.25953 0.09725 0.42931 0.0
C2291 C 0.24316 0.29944 0.42785 0.0
C2292 C 0.22092 0.21269 0.43502 0.0
H2293 H 0.26016 0.14089 0.44108 0.0
C2294 C 0.19335 0.19723 0.43158 0.0
C2295 C 0.24544 0.19213 0.43845 0.0
C2296 C 0.27645 0.20725 0.44196 0.0
C2297 C 0.18958 0.16166 0.43151 0.0
C2298 C 0.21391 0.14118 0.43501 0.0
C2299 C 0.24145 0.15669 0.43844 0.0
C2300 C 0.21211 0.10351 0.43497 0.0
C2301 C 0.16018 0.1462 0.42752 0.0
C2302 C 0.18502 0.0864 0.43824 0.0
C2303 C 0.18393 0.05083 0.43828 0.0
C2304 C 0.20997 0.03188 0.43507 0.0
C2305 C 0.23717 0.04901 0.43185 0.0
C2306 C 0.23829 0.08453 0.43182 0.0
H2307 H 0.14811 0.16476 0.42387 0.0
H2308 H 0.16865 0.12376 0.42442 0.0
H2309 H 0.14061 0.13754 0.43134 0.0
H2310 H 0.16486 0.10054 0.44081 0.0
H2311 H 0.16261 0.03811 0.44076 0.0
H2312 H 0.93282 0.99415 0.69636 0.0
H2313 H 0.99205 0.97548 0.69679 0.0
H2314 H 0.9966 0.97668 0.67403 0.0
H2315 H 0.93725 0.99491 0.67352 0.0
H2316 H 0.03434 0.9227 0.68036 0.0
H2317 H 0.06388 0.04874 0.69217 0.0
H2318 H 0.03312 0.02395 0.69694 0.0
H2319 H 0.02324 0.0392 0.68823 0.0
C2320 C 0.94608 0.98966 0.69143 0.0
C2321 C 0.93035 0.99662 0.6849 0.0
C2322 C 0.98004 0.97917 0.69169 0.0
C2323 C 0.99893 0.97558 0.68545 0.0
C2324 C 0.98253 0.97959 0.67892 0.0
H2325 H 0.2148 0.00186 0.67915 0.0
H2326 H 0.15251 0.00535 0.67922 0.0
C2327 C 0.94852 0.98998 0.67864 0.0
C2328 C 0.03636 0.97094 0.68571 0.0
H2329 H 0.10968 0.01069 0.69077 0.0
C2330 C 0.05086 0.9418 0.68267 0.0
C2331 C 0.05785 0.99626 0.68861 0.0
C2332 C 0.04388 0.02896 0.69162 0.0
C2333 C 0.08633 0.93721 0.68248 0.0
C2334 C 0.10774 0.96227 0.68549 0.0
C2335 C 0.0932 0.99141 0.68851 0.0
C2336 C 0.14538 0.95946 0.68536 0.0
C2337 C 0.10062 0.90607 0.67889 0.0
C2338 C 0.16204 0.93272 0.68885 0.0
C2339 C 0.19757 0.93068 0.6888 0.0
C2340 C 0.21699 0.95544 0.68528 0.0
C2341 C 0.20033 0.98234 0.68185 0.0
C2342 C 0.16483 0.98437 0.6819 0.0
H2343 H 0.08154 0.89364 0.67541 0.0
H2344 H 0.12332 0.91265 0.67568 0.0
H2345 H 0.10851 0.88738 0.68297 0.0
H2346 H 0.14759 0.91359 0.69167 0.0
H2347 H 0.20989 0.90961 0.69145 0.0
H2348 H 0.25456 0.68695 0.94626 0.0
H2349 H 0.27265 0.74646 0.94628 0.0
H2350 H 0.27828 0.74535 0.92354 0.0
H2351 H 0.26009 0.68594 0.92342 0.0
H2352 H 0.32975 0.78475 0.94 0.0
H2353 H 0.20305 0.81673 0.92874 0.0
H2354 H 0.2122 0.77592 0.93267 0.0
H2355 H 0.22724 0.78556 0.92394 0.0
C2356 C 0.26042 0.69903 0.94126 0.0
C2357 C 0.25533 0.68169 0.93483 0.0
C2358 C 0.27074 0.7331 0.94129 0.0
C2359 C 0.2761 0.75044 0.93491 0.0
C2360 C 0.27374 0.73252 0.92852 0.0
H2361 H 0.34322 0.95956 0.92825 0.0
H2362 H 0.33831 0.89731 0.92845 0.0
C2363 C 0.26349 0.69845 0.92847 0.0
C2364 C 0.28093 0.78786 0.93491 0.0
H2365 H 0.24156 0.86208 0.9303 0.0
C2366 C 0.31058 0.80171 0.93787 0.0
C2367 C 0.25556 0.80989 0.93222 0.0
C2368 C 0.22255 0.79644 0.92926 0.0
C2369 C 0.31572 0.83711 0.93812 0.0
C2370 C 0.29062 0.85908 0.9353 0.0
C2371 C 0.26084 0.84517 0.93242 0.0
C2372 C 0.29443 0.89664 0.93535 0.0
C2373 C 0.34762 0.85078 0.94151 0.0
C2374 C 0.27106 0.91691 0.93907 0.0
C2375 C 0.27373 0.95239 0.93892 0.0
C2376 C 0.29963 0.96815 0.93501 0.0
C2377 C 0.32297 0.9479 0.93129 0.0
C2378 C 0.32037 0.91242 0.93145 0.0
H2379 H 0.36041 0.83131 0.94484 0.0
H2380 H 0.36566 0.85879 0.93732 0.0
H2381 H 0.34183 0.87333 0.94484 0.0
H2382 H 0.25071 0.90525 0.94207 0.0
H2383 H 0.25535 0.96755 0.9418 0.0
H2384 H 0.28588 0.00619 0.32067 0.0
H2385 H 0.34817 0.01035 0.32033 0.0
H2386 H 0.35266 0.91992 0.30746 0.0
H2387 H 0.2904 0.91542 0.3079 0.0
H2388 H 0.40075 0.92126 0.31878 0.0
H2389 H 0.40357 0.0396 0.3028 0.0
H2390 H 0.37773 0.04218 0.31061 0.0
H2391 H 0.36594 0.01357 0.30362 0.0
C2392 C 0.30026 0.98718 0.3178 0.0
C2393 C 0.28348 0.96061 0.31428 0.0
C2394 C 0.33574 0.98966 0.31757 0.0
C2395 C 0.355 0.96567 0.31379 0.0
C2396 C 0.33827 0.93878 0.31037 0.0
H2397 H 0.56624 0.00284 0.30252 0.0
H2398 H 0.50729 0.98337 0.30215 0.0
C2399 C 0.30278 0.93635 0.31059 0.0
C2400 C 0.39256 0.96879 0.31339 0.0
H2401 H 0.45593 0.02163 0.3078 0.0
C2402 C 0.41289 0.94308 0.31634 0.0
C2403 C 0.40831 0.997 0.31011 0.0
C2404 C 0.38784 0.02455 0.30654 0.0
C2405 C 0.4486 0.94539 0.31629 0.0
C2406 C 0.46429 0.97431 0.31327 0.0
C2407 C 0.44392 0.9995 0.31014 0.0
C2408 C 0.50165 0.97993 0.31349 0.0
C2409 C 0.46918 0.91681 0.31945 0.0
C2410 C 0.5185 0.98337 0.32 0.0
C2411 C 0.55233 0.99438 0.32024 0.0
C2412 C 0.56988 0.00253 0.31397 0.0
C2413 C 0.55357 0.99692 0.30745 0.0
C2414 C 0.51978 0.98587 0.30722 0.0
H2415 H 0.45445 0.8927 0.31961 0.0
H2416 H 0.49295 0.91248 0.31641 0.0
H2417 H 0.47621 0.92352 0.32495 0.0
H2418 H 0.50493 0.97948 0.32491 0.0
H2419 H 0.56396 0.99849 0.32535 0.0
H2420 H 0.24614 0.03761 0.56953 0.0
H2421 H 0.2448 0.10004 0.56939 0.0
H2422 H 0.3414 0.10169 0.5586 0.0
H2423 H 0.34291 0.0392 0.55879 0.0
H2424 H 0.33531 0.14818 0.57053 0.0
H2425 H 0.22877 0.15902 0.55139 0.0
H2426 H 0.22065 0.13142 0.55877 0.0
H2427 H 0.25309 0.12042 0.55249 0.0
C2428 C 0.26704 0.05139 0.56713 0.0
C2429 C 0.29452 0.0338 0.56413 0.0
C2430 C 0.26621 0.08694 0.56703 0.0
C2431 C 0.29286 0.10543 0.56393 0.0
C2432 C 0.32055 0.08787 0.561 0.0
H2433 H 0.26963 0.32023 0.55405 0.0
H2434 H 0.28875 0.26121 0.55352 0.0
C2435 C 0.32129 0.05229 0.56107 0.0
C2436 C 0.29168 0.14309 0.56373 0.0
H2437 H 0.24524 0.20958 0.55733 0.0
C2438 C 0.31581 0.1617 0.5676 0.0
C2439 C 0.26652 0.1606 0.55983 0.0
C2440 C 0.24093 0.14194 0.55533 0.0
C2441 C 0.31468 0.19743 0.56787 0.0
C2442 C 0.2886 0.21486 0.56421 0.0
C2443 C 0.2652 0.19622 0.56015 0.0
C2444 C 0.28374 0.25223 0.56475 0.0
C2445 C 0.34135 0.2162 0.57206 0.0
C2446 C 0.27579 0.26721 0.57127 0.0
C2447 C 0.26481 0.30103 0.5716 0.0
C2448 C 0.26118 0.32039 0.56538 0.0
C2449 C 0.27165 0.30603 0.55893 0.0
C2450 C 0.28263 0.27224 0.55861 0.0
H2451 H 0.36467 0.20059 0.57276 0.0
H2452 H 0.34839 0.2405 0.56945 0.0
H2453 H 0.33111 0.22214 0.57738 0.0
H2454 H 0.27595 0.25217 0.57607 0.0
H2455 H 0.25692 0.31114 0.57667 0.0
H2456 H 0.21175 0.08872 0.80725 0.0
H2457 H 0.14946 0.08563 0.80677 0.0
H2458 H 0.15181 0.99437 0.81942 0.0
H2459 H 0.21412 0.9969 0.81972 0.0
H2460 H 0.11015 0.98889 0.80777 0.0
H2461 H 0.08207 0.10753 0.8226 0.0
H2462 H 0.10964 0.11292 0.81511 0.0
H2463 H 0.12368 0.08811 0.82253 0.0
C2464 C 0.19888 0.06795 0.80989 0.0
C2465 C 0.21758 0.04303 0.81352 0.0
C2466 C 0.16334 0.06642 0.80968 0.0
C2467 C 0.14596 0.04008 0.81315 0.0
C2468 C 0.1647 0.01505 0.81674 0.0
H2469 H 0.93746 0.00855 0.82472 0.0
H2470 H 0.99685 0.02643 0.82411 0.0
C2471 C 0.2002 0.01654 0.81693 0.0
C2472 C 0.10832 0.03778 0.81287 0.0
H2473 H 0.03498 0.07857 0.81759 0.0
C2474 C 0.09371 0.00854 0.8099 0.0
C2475 C 0.08695 0.06335 0.8157 0.0
C2476 C 0.10128 0.09464 0.81923 0.0
C2477 C 0.05833 0.00402 0.80972 0.0
C2478 C 0.03689 0.0298 0.81245 0.0
C2479 C 0.05146 0.0591 0.81541 0.0
C2480 C 0.99944 0.0254 0.8127 0.0
C2481 C 0.04429 0.97112 0.80681 0.0
C2482 C 0.98066 0.02075 0.80647 0.0
C2483 C 0.94668 0.01038 0.80678 0.0
C2484 C 0.9308 0.00471 0.81335 0.0
C2485 C 0.94885 0.01248 0.81957 0.0
C2486 C 0.98288 0.02267 0.81924 0.0
H2487 H 0.06416 0.95112 0.80641 0.0
H2488 H 0.02333 0.96141 0.81019 0.0
H2489 H 0.03396 0.97564 0.80144 0.0
H2490 H 0.99278 0.02349 0.80136 0.0
H2491 H 0.93349 0.00502 0.80189 0.0
H2492 H 0.24528 0.68698 0.07602 0.0
H2493 H 0.22632 0.74595 0.0753 0.0
H2494 H 0.2225 0.73872 0.05258 0.0
H2495 H 0.24191 0.67982 0.05322 0.0
H2496 H 0.26307 0.79048 0.05712 0.0
H2497 H 0.13883 0.79688 0.07086 0.0
H2498 H 0.17107 0.7758 0.07595 0.0
H2499 H 0.1569 0.75734 0.06776 0.0
C2500 C 0.23943 0.69751 0.07087 0.0
C2501 C 0.24549 0.67864 0.06467 0.0
C2502 C 0.22845 0.73132 0.07047 0.0
C2503 C 0.22293 0.7468 0.06389 0.0
C2504 C 0.22664 0.72731 0.05772 0.0
H2505 H 0.16147 0.95927 0.05798 0.0
H2506 H 0.16413 0.89684 0.05765 0.0
C2507 C 0.23767 0.69355 0.0581 0.0
C2508 C 0.21776 0.78417 0.06339 0.0
H2509 H 0.16818 0.84982 0.06922 0.0
C2510 C 0.24209 0.80339 0.0597 0.0
C2511 C 0.19032 0.80103 0.06673 0.0
C2512 C 0.1626 0.78169 0.07049 0.0
C2513 C 0.24029 0.839 0.05943 0.0
C2514 C 0.21374 0.85595 0.06303 0.0
C2515 C 0.18875 0.83677 0.06653 0.0
C2516 C 0.21189 0.89362 0.06329 0.0
C2517 C 0.26687 0.85822 0.05529 0.0
C2518 C 0.23768 0.91241 0.06662 0.0
C2519 C 0.23624 0.94794 0.06679 0.0
C2520 C 0.20894 0.96524 0.06364 0.0
C2521 C 0.18297 0.94644 0.06037 0.0
C2522 C 0.18436 0.91088 0.06022 0.0
H2523 H 0.28003 0.84156 0.05141 0.0
H2524 H 0.25537 0.88 0.05242 0.0
H2525 H 0.28628 0.86837 0.05899 0.0
H2526 H 0.2589 0.89957 0.06911 0.0
H2527 H 0.25651 0.96194 0.06935 0.0
H2528 H 0.43719 0.99089 0.82517 0.0
H2529 H 0.49665 0.97316 0.82459 0.0
H2530 H 0.4918 0.97282 0.80183 0.0
H2531 H 0.43245 0.99108 0.80233 0.0
H2532 H 0.53527 0.92034 0.81823 0.0
H2533 H 0.5623 0.04708 0.80647 0.0
H2534 H 0.52182 0.03666 0.8104 0.0
H2535 H 0.53211 0.02172 0.80168 0.0
C2536 C 0.44841 0.98621 0.82003 0.0
C2537 C 0.43015 0.99307 0.81379 0.0
C2538 C 0.48249 0.97611 0.81972 0.0
C2539 C 0.49884 0.97257 0.81317 0.0
C2540 C 0.47982 0.97618 0.80694 0.0
H2541 H 0.71137 0.91112 0.80741 0.0
H2542 H 0.64903 0.91362 0.8071 0.0
C2543 C 0.44581 0.98644 0.80724 0.0
C2544 C 0.53633 0.96864 0.81288 0.0
H2545 H 0.60883 0.01 0.80788 0.0
C2546 C 0.55141 0.9398 0.81593 0.0
C2547 C 0.55731 0.99443 0.81001 0.0
C2548 C 0.5427 0.02688 0.80701 0.0
C2549 C 0.58696 0.936 0.81615 0.0
C2550 C 0.60786 0.96155 0.81316 0.0
C2551 C 0.59274 0.99035 0.81012 0.0
C2552 C 0.64554 0.95964 0.81334 0.0
C2553 C 0.60186 0.9052 0.81976 0.0
C2554 C 0.66429 0.98516 0.81678 0.0
C2555 C 0.69981 0.984 0.81687 0.0
C2556 C 0.7172 0.95738 0.8135 0.0
C2557 C 0.69849 0.93201 0.81001 0.0
C2558 C 0.66293 0.93319 0.80991 0.0
H2559 H 0.58301 0.89243 0.82324 0.0
H2560 H 0.61016 0.88663 0.8157 0.0
H2561 H 0.6244 0.91228 0.82298 0.0
H2562 H 0.65139 0.00593 0.81942 0.0
H2563 H 0.71373 0.00397 0.81955 0.0
H2564 H 0.75894 0.68832 0.57519 0.0
H2565 H 0.77689 0.74781 0.57507 0.0
H2566 H 0.7731 0.7483 0.55231 0.0
H2567 H 0.75507 0.68875 0.55235 0.0
H2568 H 0.83109 0.78747 0.55967 0.0
H2569 H 0.69923 0.81745 0.56844 0.0
H2570 H 0.72192 0.78564 0.57339 0.0
H2571 H 0.7103 0.77735 0.56439 0.0
C2572 C 0.76282 0.70067 0.57014 0.0
C2573 C 0.75507 0.68379 0.56378 0.0
C2574 C 0.77296 0.73476 0.57009 0.0
C2575 C 0.77578 0.75248 0.56369 0.0
C2576 C 0.77092 0.73502 0.55731 0.0
H2577 H 0.75596 0.96853 0.55551 0.0
H2578 H 0.75277 0.90613 0.55526 0.0
C2579 C 0.76062 0.70096 0.55735 0.0
C2580 C 0.77994 0.78992 0.56367 0.0
H2581 H 0.73703 0.86351 0.56719 0.0
C2582 C 0.81064 0.80417 0.56133 0.0
C2583 C 0.75297 0.81152 0.56575 0.0
C2584 C 0.71909 0.79741 0.5681 0.0
C2585 C 0.8152 0.83965 0.5611 0.0
C2586 C 0.78837 0.86121 0.56329 0.0
C2587 C 0.75758 0.84688 0.56555 0.0
C2588 C 0.7915 0.89878 0.56324 0.0
C2589 C 0.84839 0.85387 0.55842 0.0
C2590 C 0.81414 0.91524 0.56784 0.0
C2591 C 0.81585 0.95077 0.568 0.0
C2592 C 0.79492 0.97037 0.56357 0.0
C2593 C 0.77242 0.95389 0.55894 0.0
C2594 C 0.77058 0.91837 0.55881 0.0
H2595 H 0.86363 0.83437 0.55559 0.0
H2596 H 0.84382 0.87568 0.55482 0.0
H2597 H 0.8636 0.86323 0.56296 0.0
H2598 H 0.83014 0.90062 0.57137 0.0
H2599 H 0.83356 0.96296 0.57158 0.0
H2600 H 0.79081 0.09521 0.30826 0.0
H2601 H 0.85307 0.09024 0.30792 0.0
H2602 H 0.84717 0.99793 0.32018 0.0
H2603 H 0.78492 0.00256 0.32041 0.0
H2604 H 0.90065 0.0868 0.31928 0.0
H2605 H 0.90314 0.97066 0.30262 0.0
H2606 H 0.86568 0.99685 0.30354 0.0
H2607 H 0.87698 0.96716 0.31037 0.0
C2608 C 0.8029 0.07377 0.31084 0.0
C2609 C 0.78321 0.0491 0.31432 0.0
C2610 C 0.83838 0.07106 0.31068 0.0
C2611 C 0.85471 0.04351 0.31395 0.0
C2612 C 0.83506 0.01913 0.31753 0.0
H2613 H 0.06326 0.00782 0.32568 0.0
H2614 H 0.00425 0.02696 0.32527 0.0
C2615 C 0.79959 0.02187 0.31769 0.0
C2616 C 0.89227 0.04009 0.3136 0.0
H2617 H 0.95541 0.98736 0.30785 0.0
C2618 C 0.9127 0.06519 0.31675 0.0
C2619 C 0.90792 0.01215 0.3102 0.0
C2620 C 0.88737 0.9853 0.30643 0.0
C2621 C 0.94839 0.06253 0.31676 0.0
C2622 C 0.96396 0.03386 0.31361 0.0
C2623 C 0.9435 0.00929 0.3103 0.0
C2624 C 0.00128 0.02792 0.31385 0.0
C2625 C 0.96908 0.0905 0.32011 0.0
C2626 C 0.01954 0.02264 0.30757 0.0
C2627 C 0.05332 0.01152 0.30778 0.0
C2628 C 0.06948 0.00516 0.31429 0.0
C2629 C 0.05176 0.01253 0.32057 0.0
C2630 C 0.01794 0.02362 0.32035 0.0
H2631 H 0.95455 0.11471 0.32039 0.0
H2632 H 0.97582 0.083 0.32559 0.0
H2633 H 0.99301 0.09501 0.31714 0.0
H2634 H 0.00721 0.0258 0.3025 0.0
H2635 H 0.06611 0.0062 0.30284 0.0
H2636 H 0.75123 0.03477 0.07294 0.0
H2637 H 0.75485 0.09709 0.07287 0.0
H2638 H 0.6744 0.10148 0.05741 0.0
H2639 H 0.67031 0.03922 0.05756 0.0
H2640 H 0.76894 0.13917 0.06115 0.0
H2641 H 0.64284 0.1686 0.07291 0.0
H2642 H 0.66221 0.12704 0.07351 0.0
H2643 H 0.64202 0.14027 0.06545 0.0
C2644 C 0.73417 0.04912 0.06958 0.0
C2645 C 0.71048 0.0323 0.06526 0.0
C2646 C 0.73629 0.08463 0.06953 0.0
C2647 C 0.71458 0.10393 0.06521 0.0
C2648 C 0.691 0.08713 0.06087 0.0
H2649 H 0.75193 0.31461 0.05352 0.0
H2650 H 0.7341 0.2551 0.05332 0.0
C2651 C 0.68894 0.0516 0.0609 0.0
C2652 C 0.71761 0.14154 0.06505 0.0
H2653 H 0.67497 0.21537 0.06863 0.0
C2654 C 0.74839 0.15583 0.06277 0.0
C2655 C 0.69082 0.16319 0.06723 0.0
C2656 C 0.65766 0.14912 0.06998 0.0
C2657 C 0.75309 0.1912 0.06257 0.0
C2658 C 0.72612 0.21289 0.06463 0.0
C2659 C 0.6954 0.19866 0.06697 0.0
C2660 C 0.73034 0.25038 0.06467 0.0
C2661 C 0.78719 0.20509 0.06031 0.0
C2662 C 0.73212 0.26797 0.07111 0.0
C2663 C 0.74219 0.3021 0.07126 0.0
C2664 C 0.75066 0.31922 0.06496 0.0
C2665 C 0.74592 0.30224 0.05848 0.0
C2666 C 0.73588 0.26813 0.05835 0.0
H2667 H 0.80719 0.18513 0.06026 0.0
H2668 H 0.78503 0.21562 0.05489 0.0
H2669 H 0.79542 0.22596 0.06387 0.0
H2670 H 0.7277 0.25475 0.07605 0.0
H2671 H 0.74537 0.31434 0.07634 0.0
H2672 H 0.71479 0.9981 0.67853 0.0
H2673 H 0.65252 0.99429 0.67875 0.0
H2674 H 0.64802 0.08373 0.69192 0.0
H2675 H 0.71026 0.08807 0.69155 0.0
H2676 H 0.61076 0.98651 0.69039 0.0
H2677 H 0.58035 0.10615 0.67612 0.0
H2678 H 0.62231 0.08749 0.67608 0.0
H2679 H 0.60792 0.11126 0.68362 0.0
C2680 C 0.7004 0.01709 0.68141 0.0
C2681 C 0.71717 0.04341 0.68501 0.0
C2682 C 0.66492 0.01486 0.68155 0.0
C2683 C 0.64559 0.03901 0.68526 0.0
C2684 C 0.66236 0.06521 0.68891 0.0
H2685 H 0.43421 0.00072 0.69683 0.0
H2686 H 0.49346 0.01942 0.6972 0.0
C2687 C 0.69787 0.06745 0.68876 0.0
C2688 C 0.60799 0.03589 0.68552 0.0
H2689 H 0.53384 0.07593 0.68106 0.0
C2690 C 0.59394 0.0061 0.68836 0.0
C2691 C 0.58612 0.06137 0.68282 0.0
C2692 C 0.59984 0.09327 0.67943 0.0
C2693 C 0.55864 0.001 0.68858 0.0
C2694 C 0.5367 0.02671 0.68599 0.0
C2695 C 0.5507 0.05651 0.68313 0.0
C2696 C 0.49928 0.02187 0.68584 0.0
C2697 C 0.54518 0.96764 0.69137 0.0
C2698 C 0.48228 0.01925 0.67935 0.0
C2699 C 0.44827 0.00887 0.67911 0.0
C2700 C 0.43067 0.00084 0.68537 0.0
C2701 C 0.44702 0.00632 0.6919 0.0
C2702 C 0.48098 0.01682 0.69212 0.0
H2703 H 0.56536 0.9479 0.69167 0.0
H2704 H 0.53499 0.97154 0.69678 0.0
H2705 H 0.52423 0.95795 0.68799 0.0
H2706 H 0.49587 0.02331 0.67444 0.0
H2707 H 0.43652 0.0051 0.67399 0.0
H2708 H 0.74885 0.68272 0.42216 0.0
H2709 H 0.73068 0.74216 0.42233 0.0
H2710 H 0.72957 0.74068 0.4451 0.0
H2711 H 0.74767 0.68119 0.44501 0.0
H2712 H 0.67431 0.78027 0.43807 0.0
H2713 H 0.80538 0.81194 0.42914 0.0
H2714 H 0.78274 0.78134 0.42387 0.0
H2715 H 0.79442 0.77095 0.43278 0.0
C2716 C 0.74388 0.69465 0.42721 0.0
C2717 C 0.75026 0.67721 0.43358 0.0
C2718 C 0.73365 0.72872 0.42729 0.0
C2719 C 0.72946 0.74593 0.43373 0.0
C2720 C 0.7329 0.72787 0.44008 0.0
H2721 H 0.7496 0.96163 0.44234 0.0
H2722 H 0.75331 0.89925 0.44234 0.0
C2723 C 0.74323 0.69381 0.44001 0.0
C2724 C 0.72503 0.78338 0.43386 0.0
H2725 H 0.76706 0.8576 0.43043 0.0
C2726 C 0.69447 0.79724 0.43638 0.0
C2727 C 0.75167 0.80538 0.43176 0.0
C2728 C 0.78555 0.79182 0.42928 0.0
C2729 C 0.68969 0.83266 0.43676 0.0
C2730 C 0.71612 0.85463 0.43453 0.0
C2731 C 0.74678 0.8407 0.43209 0.0
C2732 C 0.71275 0.8922 0.43475 0.0
C2733 C 0.65669 0.84635 0.43966 0.0
C2734 C 0.68891 0.90887 0.43045 0.0
C2735 C 0.68686 0.9444 0.43044 0.0
C2736 C 0.70865 0.96381 0.43472 0.0
C2737 C 0.73242 0.94714 0.43903 0.0
C2738 C 0.73457 0.91162 0.43902 0.0
H2739 H 0.64223 0.82659 0.44259 0.0
H2740 H 0.66141 0.86823 0.44324 0.0
H2741 H 0.64062 0.8554 0.43522 0.0
H2742 H 0.67222 0.89443 0.42702 0.0
H2743 H 0.66822 0.95673 0.42709 0.0
H2744 H 0.78954 0.91902 0.17825 0.0
H2745 H 0.85183 0.92249 0.17854 0.0
H2746 H 0.84584 0.99826 0.19497 0.0
H2747 H 0.78343 0.99501 0.19465 0.0
H2748 H 0.88784 0.01566 0.18306 0.0
H2749 H 0.91917 0.88829 0.19402 0.0
H2750 H 0.88998 0.88854 0.18671 0.0
H2751 H 0.87763 0.90745 0.19495 0.0
C2752 C 0.8016 0.93633 0.18193 0.0
C2753 C 0.78185 0.9569 0.1864 0.0
C2754 C 0.83711 0.93806 0.18214 0.0
C2755 C 0.85343 0.96035 0.18683 0.0
C2756 C 0.83371 0.98073 0.19135 0.0
H2757 H 0.06486 0.99804 0.19673 0.0
H2758 H 0.00542 0.97977 0.19713 0.0
C2759 C 0.79818 0.97885 0.19117 0.0
C2760 C 0.89097 0.96395 0.18673 0.0
H2761 H 0.96543 0.92148 0.1898 0.0
C2762 C 0.9048 0.9951 0.18455 0.0
C2763 C 0.91299 0.9371 0.1887 0.0
C2764 C 0.89933 0.90349 0.19128 0.0
C2765 C 0.9401 1.00001 0.1842 0.0
C2766 C 0.96214 0.973 0.18604 0.0
C2767 C 0.9484 0.94197 0.18832 0.0
C2768 C 0.99952 0.97739 0.18578 0.0
C2769 C 0.95368 0.0342 0.18191 0.0
C2770 C 0.01625 0.9805 0.17927 0.0
C2771 C 0.05027 0.99078 0.17901 0.0
C2772 C 0.0681 0.99838 0.18527 0.0
C2773 C 0.05192 0.99261 0.1918 0.0
C2774 C 0.01792 0.98216 0.19205 0.0
H2775 H 0.93347 0.05393 0.18175 0.0
H2776 H 0.9741 0.0428 0.18555 0.0
H2777 H 0.96487 0.03193 0.17655 0.0
H2778 H 0.00245 0.97667 0.17438 0.0
H2779 H 0.06185 0.99483 0.17388 0.0
H2780 H 0.76348 0.31897 0.92376 0.0
H2781 H 0.78063 0.25922 0.92385 0.0
H2782 H 0.77224 0.25723 0.94655 0.0
H2783 H 0.75491 0.31691 0.94655 0.0
H2784 H 0.83248 0.21898 0.93121 0.0
H2785 H 0.69974 0.1881 0.93909 0.0
H2786 H 0.71182 0.22931 0.93572 0.0
H2787 H 0.72157 0.21791 0.94468 0.0
C2788 C 0.7661 0.30617 0.9288 0.0
C2789 C 0.75726 0.32272 0.93514 0.0
C2790 C 0.77587 0.27195 0.92883 0.0
C2791 C 0.77697 0.25367 0.93519 0.0
C2792 C 0.77098 0.27079 0.94157 0.0
H2793 H 0.83683 0.0424 0.94178 0.0
H2794 H 0.83271 0.10461 0.94201 0.0
C2795 C 0.76124 0.30501 0.94156 0.0
C2796 C 0.78111 0.21618 0.93508 0.0
H2797 H 0.73806 0.14218 0.93816 0.0
C2798 C 0.81194 0.20214 0.93275 0.0
C2799 C 0.754 0.19432 0.93697 0.0
C2800 C 0.71978 0.20802 0.9392 0.0
C2801 C 0.81653 0.1667 0.93236 0.0
C2802 C 0.78962 0.14487 0.93439 0.0
C2803 C 0.7587 0.15897 0.93664 0.0
C2804 C 0.79276 0.10727 0.93416 0.0
C2805 C 0.84983 0.15288 0.92964 0.0
C2806 C 0.77121 0.08808 0.92978 0.0
C2807 C 0.77334 0.05257 0.9297 0.0
C2808 C 0.79686 0.03564 0.93403 0.0
C2809 C 0.8183 0.05485 0.93843 0.0
C2810 C 0.81624 0.09036 0.9385 0.0
H2811 H 0.86465 0.17255 0.92676 0.0
H2812 H 0.86538 0.14395 0.93417 0.0
H2813 H 0.84552 0.13091 0.92606 0.0
H2814 H 0.75272 0.10063 0.92643 0.0
H2815 H 0.75634 0.03829 0.92631 0.0
H2816 H 0.06284 0.50873 0.67336 0.0
H2817 H 0.00376 0.52747 0.67398 0.0
H2818 H 0.00897 0.52751 0.69674 0.0
H2819 H 0.06796 0.5083 0.69618 0.0
H2820 H 0.95747 0.48794 0.69173 0.0
H2821 H 0.95268 0.61432 0.67884 0.0
H2822 H 0.97406 0.58282 0.67361 0.0
H2823 H 0.99189 0.59561 0.68195 0.0
C2824 C 0.05183 0.51369 0.6785 0.0
C2825 C 0.07019 0.50666 0.68472 0.0
C2826 C 0.01796 0.52454 0.67884 0.0
C2827 C 0.00189 0.52897 0.68541 0.0
C2828 C 0.02084 0.52423 0.69162 0.0
H2829 H 0.78934 0.59077 0.69104 0.0
H2830 H 0.85173 0.5877 0.6915 0.0
C2831 C 0.05466 0.51333 0.69128 0.0
C2832 C 0.96448 0.53418 0.6858 0.0
H2833 H 0.8995 0.58502 0.68011 0.0
C2834 C 0.94486 0.50938 0.68925 0.0
C2835 C 0.94799 0.56222 0.6826 0.0
C2836 C 0.96775 0.59045 0.6791 0.0
C2837 C 0.90923 0.51133 0.68942 0.0
C2838 C 0.89267 0.53854 0.68596 0.0
C2839 C 0.91225 0.56395 0.68269 0.0
C2840 C 0.85502 0.54068 0.6856 0.0
C2841 C 0.8896 0.48422 0.69333 0.0
C2842 C 0.83627 0.51546 0.68208 0.0
C2843 C 0.80076 0.51714 0.68183 0.0
C2844 C 0.78342 0.5441 0.68509 0.0
C2845 C 0.80218 0.56953 0.68855 0.0
C2846 C 0.83773 0.5679 0.68879 0.0
H2847 H 0.9059 0.47042 0.69717 0.0
H2848 H 0.86763 0.49537 0.6962 0.0
H2849 H 0.87967 0.46542 0.68947 0.0
H2850 H 0.84913 0.49449 0.6795 0.0
H2851 H 0.7868 0.49727 0.67912 0.0
H2852 H 0.7576 0.54019 0.92931 0.0
H2853 H 0.75985 0.60262 0.92947 0.0
H2854 H 0.66627 0.60542 0.94134 0.0
H2855 H 0.66389 0.54295 0.94116 0.0
H2856 H 0.6707 0.65215 0.92916 0.0
H2857 H 0.78051 0.66076 0.94755 0.0
H2858 H 0.78637 0.6328 0.94013 0.0
H2859 H 0.75494 0.62282 0.9467 0.0
C2860 C 0.73755 0.55423 0.93194 0.0
C2861 C 0.71069 0.53696 0.93525 0.0
C2862 C 0.73889 0.58976 0.93205 0.0
C2863 C 0.71335 0.60856 0.93546 0.0
C2864 C 0.68626 0.59134 0.9387 0.0
H2865 H 0.73957 0.82269 0.94562 0.0
H2866 H 0.72018 0.76375 0.94609 0.0
C2867 C 0.68503 0.55578 0.93863 0.0
C2868 C 0.71516 0.6462 0.93568 0.0
H2869 H 0.76339 0.71179 0.94191 0.0
C2870 C 0.69079 0.66529 0.93198 0.0
C2871 C 0.74112 0.66319 0.93945 0.0
C2872 C 0.76712 0.64395 0.94374 0.0
C2873 C 0.69241 0.70102 0.93176 0.0
C2874 C 0.71919 0.71794 0.9353 0.0
C2875 C 0.74289 0.69881 0.93918 0.0
C2876 C 0.72438 0.75528 0.93483 0.0
C2877 C 0.66549 0.72034 0.92775 0.0
C2878 C 0.73201 0.77051 0.92831 0.0
C2879 C 0.74318 0.80427 0.92802 0.0
C2880 C 0.74728 0.82335 0.93427 0.0
C2881 C 0.73716 0.80874 0.94072 0.0
C2882 C 0.72603 0.77498 0.941 0.0
H2883 H 0.642 0.70498 0.92707 0.0
H2884 H 0.65889 0.74444 0.93048 0.0
H2885 H 0.67532 0.72674 0.92242 0.0
H2886 H 0.73138 0.75569 0.92349 0.0
H2887 H 0.75075 0.81458 0.92295 0.0
H2888 H 0.43279 0.49944 0.19566 0.0
H2889 H 0.49212 0.48106 0.19596 0.0
H2890 H 0.49412 0.4779 0.1732 0.0
H2891 H 0.43467 0.49599 0.17282 0.0
H2892 H 0.53269 0.42451 0.18009 0.0
H2893 H 0.56317 0.55403 0.19005 0.0
H2894 H 0.53258 0.53073 0.19518 0.0
H2895 H 0.52232 0.54339 0.18631 0.0
C2896 C 0.44549 0.49404 0.19071 0.0
C2897 C 0.429 0.49978 0.18421 0.0
C2898 C 0.47951 0.4837 0.1909 0.0
C2899 C 0.4977 0.47893 0.1846 0.0
C2900 C 0.48058 0.48171 0.17812 0.0
H2901 H 0.71341 0.50206 0.17715 0.0
H2902 H 0.65112 0.5056 0.17722 0.0
C2903 C 0.44652 0.49203 0.17792 0.0
C2904 C 0.53517 0.47442 0.18473 0.0
H2905 H 0.60891 0.51569 0.18893 0.0
C2906 C 0.5494 0.44432 0.18205 0.0
C2907 C 0.5569 0.50061 0.18717 0.0
C2908 C 0.54312 0.53416 0.18979 0.0
C2909 C 0.58486 0.43962 0.18182 0.0
C2910 C 0.60653 0.4656 0.18438 0.0
C2911 C 0.59224 0.49573 0.18701 0.0
C2912 C 0.64416 0.46258 0.18421 0.0
C2913 C 0.59889 0.40727 0.17867 0.0
C2914 C 0.66091 0.43742 0.18816 0.0
C2915 C 0.69645 0.43538 0.18812 0.0
C2916 C 0.7158 0.45857 0.18415 0.0
C2917 C 0.69902 0.48378 0.18022 0.0
C2918 C 0.66352 0.48585 0.18027 0.0
H2919 H 0.57952 0.39355 0.17549 0.0
H2920 H 0.62124 0.41272 0.17527 0.0
H2921 H 0.6073 0.39018 0.183 0.0
H2922 H 0.64652 0.41957 0.19133 0.0
H2923 H 0.70881 0.41554 0.19114 0.0
H2924 H 0.75351 0.18189 0.44649 0.0
H2925 H 0.77225 0.24115 0.44679 0.0
H2926 H 0.77882 0.24219 0.42406 0.0
H2927 H 0.76045 0.18287 0.42367 0.0
H2928 H 0.83135 0.2802 0.43104 0.0
H2929 H 0.70159 0.31318 0.44051 0.0
H2930 H 0.72408 0.28271 0.44582 0.0
H2931 H 0.71194 0.27189 0.43695 0.0
C2932 C 0.75969 0.19439 0.44155 0.0
C2933 C 0.75491 0.17767 0.43504 0.0
C2934 C 0.77023 0.22837 0.44174 0.0
C2935 C 0.77611 0.24627 0.43544 0.0
C2936 C 0.77414 0.2289 0.42898 0.0
H2937 H 0.75586 0.46136 0.42717 0.0
H2938 H 0.75171 0.39914 0.42751 0.0
C2939 C 0.76366 0.19491 0.42878 0.0
C2940 C 0.78118 0.28368 0.43552 0.0
H2941 H 0.74061 0.35829 0.43935 0.0
C2942 C 0.81164 0.29732 0.43289 0.0
C2943 C 0.75513 0.30595 0.43782 0.0
C2944 C 0.7212 0.29284 0.44038 0.0
C2945 C 0.81681 0.33269 0.43254 0.0
C2946 C 0.79094 0.3549 0.43494 0.0
C2947 C 0.76049 0.34121 0.43755 0.0
C2948 C 0.79438 0.39247 0.43461 0.0
C2949 C 0.84951 0.34602 0.42942 0.0
C2950 C 0.81958 0.40938 0.43852 0.0
C2951 C 0.82199 0.44488 0.43831 0.0
C2952 C 0.79912 0.46405 0.43423 0.0
C2953 C 0.7739 0.44712 0.43033 0.0
C2954 C 0.77147 0.41165 0.43054 0.0
H2955 H 0.86317 0.32619 0.42635 0.0
H2956 H 0.84456 0.36813 0.42592 0.0
H2957 H 0.86646 0.3546 0.43376 0.0
H2958 H 0.83716 0.39515 0.44178 0.0
H2959 H 0.84183 0.45737 0.44132 0.0
H2960 H 0.78789 0.41597 0.82122 0.0
H2961 H 0.85026 0.41981 0.82103 0.0
H2962 H 0.84435 0.49868 0.80525 0.0
H2963 H 0.78193 0.49488 0.80543 0.0
H2964 H 0.8977 0.41612 0.80786 0.0
H2965 H 0.89951 0.53657 0.82335 0.0
H2966 H 0.864 0.50744 0.82361 0.0
H2967 H 0.87038 0.53401 0.81602 0.0
C2968 C 0.8 0.43408 0.81771 0.0
C2969 C 0.7803 0.45534 0.81337 0.0
C2970 C 0.8355 0.4361 0.81758 0.0
C2971 C 0.85178 0.45958 0.81315 0.0
C2972 C 0.83217 0.48045 0.80872 0.0
H2973 H 0.06146 0.49858 0.80237 0.0
H2974 H 0.00234 0.47941 0.8022 0.0
C2975 C 0.79665 0.47826 0.80881 0.0
C2976 C 0.88924 0.46326 0.81337 0.0
H2977 H 0.9521 0.51625 0.81912 0.0
C2978 C 0.90971 0.43794 0.81032 0.0
C2979 C 0.90465 0.49158 0.81665 0.0
C2980 C 0.88367 0.51897 0.82014 0.0
C2981 C 0.9454 0.44059 0.81038 0.0
C2982 C 0.96079 0.46928 0.81355 0.0
C2983 C 0.94023 0.49425 0.81669 0.0
C2984 C 0.99813 0.47465 0.81356 0.0
C2985 C 0.9664 0.41265 0.8071 0.0
C2986 C 0.01567 0.47751 0.81999 0.0
C2987 C 0.04951 0.48841 0.82011 0.0
C2988 C 0.06637 0.49713 0.8138 0.0
C2989 C 0.04935 0.49211 0.80733 0.0
C2990 C 0.01551 0.48105 0.80722 0.0
H2991 H 0.95138 0.38899 0.80635 0.0
H2992 H 0.97563 0.42114 0.80185 0.0
H2993 H 0.98894 0.40684 0.81042 0.0
H2994 H 0.00269 0.47272 0.82494 0.0
H2995 H 0.06172 0.49194 0.82519 0.0
H2996 H 0.76524 0.81714 0.05416 0.0
H2997 H 0.78365 0.75782 0.05397 0.0
H2998 H 0.77418 0.75286 0.07663 0.0
H2999 H 0.75562 0.81216 0.0769 0.0
H3000 H 0.83229 0.71522 0.07038 0.0
H3001 H 0.70668 0.68638 0.05822 0.0
H3002 H 0.73191 0.71815 0.05383 0.0
H3003 H 0.7156 0.72636 0.06252 0.0
C3004 C 0.76769 0.80377 0.05912 0.0
C3005 C 0.75818 0.81935 0.06552 0.0
C3006 C 0.77821 0.76979 0.059 0.0
C3007 C 0.77954 0.75081 0.06527 0.0
C3008 C 0.77307 0.76705 0.07172 0.0
H3009 H 0.75457 0.53512 0.07207 0.0
H3010 H 0.75131 0.59746 0.07207 0.0
C3011 C 0.7625 0.80103 0.07186 0.0
C3012 C 0.78405 0.71339 0.06503 0.0
H3013 H 0.74397 0.64028 0.05996 0.0
C3014 C 0.81314 0.69879 0.06807 0.0
C3015 C 0.75869 0.69206 0.06211 0.0
C3016 C 0.72629 0.70635 0.05903 0.0
C3017 C 0.81763 0.66329 0.06822 0.0
C3018 C 0.79243 0.64203 0.06522 0.0
C3019 C 0.76332 0.65668 0.06221 0.0
C3020 C 0.79518 0.60441 0.06532 0.0
C3021 C 0.84885 0.64871 0.07172 0.0
C3022 C 0.8207 0.5877 0.06146 0.0
C3023 C 0.8225 0.55215 0.06144 0.0
C3024 C 0.79878 0.5328 0.06527 0.0
C3025 C 0.77323 0.54954 0.06911 0.0
C3026 C 0.77134 0.58505 0.0691 0.0
H3027 H 0.86227 0.66791 0.075 0.0
H3028 H 0.84201 0.62668 0.0751 0.0
H3029 H 0.86672 0.63959 0.06759 0.0
H3030 H 0.83903 0.60215 0.05842 0.0
H3031 H 0.84259 0.53978 0.05849 0.0
H3032 H 0.43286 0.50789 0.30221 0.0
H3033 H 0.49225 0.52613 0.30197 0.0
H3034 H 0.49296 0.53182 0.32471 0.0
H3035 H 0.43348 0.51389 0.32503 0.0
H3036 H 0.53204 0.58435 0.31764 0.0
H3037 H 0.56257 0.45347 0.30846 0.0
H3038 H 0.53238 0.4763 0.30314 0.0
H3039 H 0.52155 0.46474 0.31204 0.0
C3040 C 0.44529 0.51383 0.30716 0.0
C3041 C 0.42845 0.50884 0.31365 0.0
C3042 C 0.47933 0.5241 0.30701 0.0
C3043 C 0.49716 0.52953 0.31333 0.0
C3044 C 0.47968 0.52749 0.31978 0.0
H3045 H 0.712 0.50587 0.32157 0.0
H3046 H 0.64969 0.50295 0.32137 0.0
C3047 C 0.44562 0.51726 0.31994 0.0
C3048 C 0.53462 0.53387 0.31328 0.0
H3049 H 0.60842 0.49165 0.30957 0.0
C3050 C 0.5488 0.56421 0.31584 0.0
C3051 C 0.55637 0.50725 0.31106 0.0
C3052 C 0.5426 0.47345 0.30857 0.0
C3053 C 0.58425 0.56873 0.31618 0.0
C3054 C 0.60595 0.5423 0.31385 0.0
C3055 C 0.59172 0.51194 0.31132 0.0
C3056 C 0.64355 0.54511 0.31413 0.0
C3057 C 0.59823 0.60137 0.3192 0.0
C3058 C 0.66075 0.56962 0.31009 0.0
C3059 C 0.69629 0.57131 0.31021 0.0
C3060 C 0.71518 0.54842 0.31434 0.0
C3061 C 0.69796 0.52392 0.31838 0.0
C3062 C 0.66245 0.5222 0.31825 0.0
H3063 H 0.57868 0.61559 0.32224 0.0
H3064 H 0.62026 0.59621 0.32272 0.0
H3065 H 0.6071 0.61787 0.31482 0.0
H3066 H 0.64671 0.58716 0.30678 0.0
H3067 H 0.70901 0.59061 0.30709 0.0
H3068 H 0.744 0.46909 0.55447 0.0
H3069 H 0.74764 0.40672 0.55418 0.0
H3070 H 0.67071 0.40048 0.57038 0.0
H3071 H 0.66682 0.46276 0.57062 0.0
H3072 H 0.76453 0.36485 0.56606 0.0
H3073 H 0.63776 0.33288 0.55489 0.0
H3074 H 0.65663 0.37458 0.55404 0.0
H3075 H 0.63746 0.3619 0.56224 0.0
C3076 C 0.72766 0.4543 0.5579 0.0
C3077 C 0.70523 0.47056 0.56258 0.0
C3078 C 0.72977 0.41878 0.55775 0.0
C3079 C 0.70917 0.39899 0.5622 0.0
C3080 C 0.68645 0.41524 0.56682 0.0
H3081 H 0.74415 0.19059 0.57517 0.0
H3082 H 0.72598 0.24999 0.57467 0.0
C3083 C 0.68448 0.45075 0.567 0.0
C3084 C 0.71295 0.36147 0.56232 0.0
H3085 H 0.67098 0.28678 0.55919 0.0
C3086 C 0.74411 0.34779 0.56454 0.0
C3087 C 0.68628 0.33931 0.56031 0.0
C3088 C 0.65269 0.35278 0.55768 0.0
C3089 C 0.74921 0.31252 0.56489 0.0
C3090 C 0.72237 0.29034 0.56302 0.0
C3091 C 0.69133 0.30392 0.5607 0.0
C3092 C 0.72694 0.25297 0.56326 0.0
C3093 C 0.7834 0.2991 0.56721 0.0
C3094 C 0.7319 0.23462 0.557 0.0
C3095 C 0.74235 0.20061 0.55725 0.0
C3096 C 0.74793 0.18439 0.56379 0.0
C3097 C 0.74022 0.2022 0.57004 0.0
C3098 C 0.72994 0.23623 0.56978 0.0
H3099 H 0.80302 0.31942 0.5674 0.0
H3100 H 0.78106 0.28787 0.57257 0.0
H3101 H 0.79222 0.27876 0.56358 0.0
H3102 H 0.7296 0.24714 0.55192 0.0
H3103 H 0.74787 0.18768 0.55233 0.0
H3104 H 0.21181 0.50659 0.32023 0.0
H3105 H 0.14944 0.50877 0.32021 0.0
H3106 H 0.1463 0.41844 0.30729 0.0
H3107 H 0.20867 0.4158 0.30744 0.0
H3108 H 0.10654 0.51436 0.30857 0.0
H3109 H 0.08068 0.39559 0.32353 0.0
H3110 H 0.122 0.41563 0.32339 0.0
H3111 H 0.10803 0.39064 0.31599 0.0
C3112 C 0.19771 0.4871 0.31744 0.0
C3113 C 0.21489 0.46101 0.31385 0.0
C3114 C 0.16218 0.48838 0.31741 0.0
C3115 C 0.14322 0.46349 0.31383 0.0
C3116 C 0.16039 0.43754 0.31019 0.0
H3117 H 0.93031 0.49418 0.30276 0.0
H3118 H 0.98972 0.47606 0.30238 0.0
C3119 C 0.19596 0.43626 0.31022 0.0
C3120 C 0.10554 0.46557 0.31371 0.0
H3121 H 0.03291 0.42416 0.31869 0.0
C3122 C 0.09043 0.4946 0.31076 0.0
C3123 C 0.08462 0.43987 0.31663 0.0
C3124 C 0.09955 0.40877 0.32013 0.0
C3125 C 0.055 0.4987 0.31066 0.0
C3126 C 0.03401 0.47276 0.31347 0.0
C3127 C 0.04906 0.44374 0.31645 0.0
C3128 C 0.99651 0.47665 0.31372 0.0
C3129 C 0.04034 0.53124 0.30771 0.0
C3130 C 0.98003 0.48071 0.32024 0.0
C3131 C 0.94594 0.49084 0.32049 0.0
C3132 C 0.92777 0.49715 0.31422 0.0
C3133 C 0.94356 0.48995 0.3077 0.0
C3134 C 0.97761 0.47975 0.30747 0.0
H3135 H 0.05996 0.55141 0.30716 0.0
H3136 H 0.02947 0.52621 0.3024 0.0
H3137 H 0.01962 0.54097 0.31115 0.0
H3138 H 0.99412 0.47816 0.32513 0.0
H3139 H 0.93462 0.49593 0.3256 0.0
H3140 H 0.25374 0.18449 0.05277 0.0
H3141 H 0.27279 0.2436 0.05264 0.0
H3142 H 0.27991 0.24278 0.07537 0.0
H3143 H 0.2612 0.1836 0.07557 0.0
H3144 H 0.23441 0.2937 0.05904 0.0
H3145 H 0.36591 0.29461 0.06964 0.0
H3146 H 0.34595 0.25658 0.06625 0.0
H3147 H 0.33622 0.27141 0.075 0.0
C3148 C 0.26026 0.1965 0.05774 0.0
C3149 C 0.25563 0.17926 0.06419 0.0
C3150 C 0.27108 0.23037 0.05765 0.0
C3151 C 0.27781 0.24762 0.06399 0.0
C3152 C 0.27537 0.22987 0.0704 0.0
H3153 H 0.25313 0.46255 0.07253 0.0
H3154 H 0.24962 0.40023 0.07217 0.0
C3155 C 0.26455 0.19597 0.0705 0.0
C3156 C 0.28308 0.28502 0.06395 0.0
H3157 H 0.33717 0.34819 0.0692 0.0
C3158 C 0.25702 0.30558 0.06121 0.0
C3159 C 0.31261 0.3005 0.06676 0.0
C3160 C 0.34194 0.27967 0.06952 0.0
C3161 C 0.25935 0.34118 0.06134 0.0
C3162 C 0.28832 0.35668 0.06437 0.0
C3163 C 0.3148 0.3362 0.06695 0.0
C3164 C 0.29146 0.39418 0.06485 0.0
C3165 C 0.23082 0.36195 0.0582 0.0
C3166 C 0.31661 0.4113 0.06097 0.0
C3167 C 0.31863 0.44681 0.06118 0.0
C3168 C 0.2957 0.46571 0.0653 0.0
C3169 C 0.27106 0.4485 0.06931 0.0
C3170 C 0.26895 0.41301 0.06908 0.0
H3171 H 0.21437 0.34647 0.05467 0.0
H3172 H 0.21475 0.37218 0.06253 0.0
H3173 H 0.24101 0.38381 0.05514 0.0
H3174 H 0.3343 0.39722 0.0577 0.0
H3175 H 0.33817 0.4595 0.05812 0.0
H3176 H 0.28195 0.4977 0.82015 0.0
H3177 H 0.34423 0.49412 0.82007 0.0
H3178 H 0.34911 0.58487 0.8073 0.0
H3179 H 0.28683 0.58897 0.80754 0.0
H3180 H 0.38691 0.48768 0.80856 0.0
H3181 H 0.41547 0.60615 0.82339 0.0
H3182 H 0.37362 0.58727 0.82321 0.0
H3183 H 0.38848 0.61181 0.81582 0.0
C3184 C 0.29641 0.517 0.81738 0.0
C3185 C 0.27973 0.54365 0.81387 0.0
C3186 C 0.3319 0.51491 0.81732 0.0
C3187 C 0.35135 0.53951 0.81376 0.0
C3188 C 0.33467 0.56599 0.81019 0.0
H3189 H 0.56359 0.50371 0.80265 0.0
H3190 H 0.50423 0.52204 0.80223 0.0
C3191 C 0.29914 0.56809 0.81026 0.0
C3192 C 0.38899 0.53663 0.81362 0.0
H3193 H 0.46255 0.57667 0.81849 0.0
C3194 C 0.40345 0.50717 0.81071 0.0
C3195 C 0.4105 0.56197 0.8165 0.0
C3196 C 0.39632 0.59347 0.81997 0.0
C3197 C 0.4388 0.50229 0.81061 0.0
C3198 C 0.46038 0.52789 0.81336 0.0
C3199 C 0.44597 0.55734 0.8163 0.0
C3200 C 0.49783 0.52332 0.81358 0.0
C3201 C 0.45267 0.46926 0.80773 0.0
C3202 C 0.51454 0.52019 0.8201 0.0
C3203 C 0.54862 0.51002 0.82037 0.0
C3204 C 0.56656 0.50271 0.81411 0.0
C3205 C 0.55049 0.50873 0.80758 0.0
C3206 C 0.51647 0.51902 0.80732 0.0
H3207 H 0.43266 0.44941 0.80731 0.0
H3208 H 0.46316 0.47368 0.80236 0.0
H3209 H 0.47348 0.45943 0.81113 0.0
H3210 H 0.50068 0.52367 0.825 0.0
H3211 H 0.56015 0.5058 0.82549 0.0
H3212 H 0.23966 0.81535 0.57536 0.0
H3213 H 0.22253 0.75563 0.57505 0.0
H3214 H 0.23271 0.75503 0.55238 0.0
H3215 H 0.25012 0.81468 0.5526 0.0
H3216 H 0.17179 0.71545 0.56755 0.0
H3217 H 0.305 0.68606 0.55977 0.0
H3218 H 0.29244 0.72709 0.56315 0.0
H3219 H 0.28306 0.71577 0.55417 0.0
C3220 C 0.23743 0.80287 0.57028 0.0
C3221 C 0.24687 0.81976 0.56401 0.0
C3222 C 0.22766 0.76866 0.57012 0.0
C3223 C 0.22712 0.75077 0.56371 0.0
C3224 C 0.23358 0.76829 0.55739 0.0
H3225 H 0.16979 0.53822 0.55724 0.0
H3226 H 0.17299 0.60048 0.55683 0.0
C3227 C 0.24336 0.80247 0.55754 0.0
C3228 C 0.22326 0.71326 0.56372 0.0
H3229 H 0.26714 0.63979 0.5606 0.0
C3230 C 0.19252 0.69885 0.566 0.0
C3231 C 0.25062 0.69172 0.56182 0.0
C3232 C 0.28478 0.7058 0.55964 0.0
C3233 C 0.18832 0.66336 0.56637 0.0
C3234 C 0.21551 0.64187 0.56434 0.0
C3235 C 0.24628 0.65634 0.56211 0.0
C3236 C 0.21298 0.60425 0.56465 0.0
C3237 C 0.15515 0.64913 0.56907 0.0
C3238 C 0.23489 0.58569 0.56906 0.0
C3239 C 0.23332 0.55018 0.56925 0.0
C3240 C 0.21 0.53261 0.56498 0.0
C3241 C 0.18821 0.55117 0.56054 0.0
C3242 C 0.18973 0.58671 0.56036 0.0
H3243 H 0.13998 0.66865 0.57192 0.0
H3244 H 0.13984 0.63985 0.56454 0.0
H3245 H 0.1597 0.62733 0.57268 0.0
H3246 H 0.2532 0.59873 0.57238 0.0
H3247 H 0.25057 0.53641 0.57268 0.0
H3248 H 0.20906 0.5923 0.19108 0.0
H3249 H 0.14676 0.58802 0.19153 0.0
H3250 H 0.15071 0.49908 0.17822 0.0
H3251 H 0.21298 0.50305 0.17784 0.0
H3252 H 0.0986 0.58753 0.17994 0.0
H3253 H 0.09532 0.4689 0.19584 0.0
H3254 H 0.1328 0.49525 0.19518 0.0
H3255 H 0.12173 0.46687 0.1881 0.0
C3256 C 0.19655 0.57171 0.18831 0.0
C3257 C 0.21569 0.5478 0.18448 0.0
C3258 C 0.16105 0.56943 0.18852 0.0
C3259 C 0.14417 0.54304 0.18497 0.0
C3260 C 0.16327 0.51939 0.18107 0.0
H3261 H 0.93583 0.50932 0.17312 0.0
H3262 H 0.99481 0.52855 0.17363 0.0
C3263 C 0.19874 0.52175 0.18083 0.0
C3264 C 0.10661 0.54003 0.18535 0.0
H3265 H 0.0431 0.48711 0.19083 0.0
C3266 C 0.08639 0.56571 0.18236 0.0
C3267 C 0.09078 0.51179 0.1886 0.0
C3268 C 0.11119 0.48423 0.19218 0.0
C3269 C 0.05068 0.56333 0.18233 0.0
C3270 C 0.03491 0.5344 0.18534 0.0
C3271 C 0.05518 0.50925 0.18851 0.0
C3272 C 0.99757 0.52872 0.18505 0.0
C3273 C 0.03017 0.59181 0.17912 0.0
C3274 C 0.9792 0.52308 0.1913 0.0
C3275 C 0.94544 0.51196 0.19103 0.0
C3276 C 0.92942 0.50592 0.18449 0.0
C3277 C 0.94723 0.51375 0.17824 0.0
C3278 C 0.98103 0.52488 0.17852 0.0
H3279 H 0.04491 0.6159 0.17893 0.0
H3280 H 0.02318 0.58488 0.17363 0.0
H3281 H 0.00636 0.59625 0.18214 0.0
H3282 H 0.99146 0.52589 0.19639 0.0
H3283 H 0.93258 0.5063 0.19595 0.0
H3284 H 0.25518 0.46553 0.94147 0.0
H3285 H 0.2593 0.40315 0.9413 0.0
H3286 H 0.17126 0.39811 0.92775 0.0
H3287 H 0.16701 0.46046 0.92795 0.0
H3288 H 0.17227 0.35023 0.93977 0.0
H3289 H 0.28968 0.34792 0.92341 0.0
H3290 H 0.29118 0.37497 0.93107 0.0
H3291 H 0.26247 0.38482 0.92398 0.0
C3292 C 0.23667 0.45099 0.9385 0.0
C3293 C 0.21088 0.46759 0.9347 0.0
C3294 C 0.23909 0.4155 0.93838 0.0
C3295 C 0.21573 0.39609 0.93447 0.0
C3296 C 0.18956 0.41265 0.93079 0.0
H3297 H 0.24969 0.18523 0.92273 0.0
H3298 H 0.23018 0.2442 0.92268 0.0
C3299 C 0.18725 0.44815 0.93087 0.0
C3300 C 0.21904 0.35857 0.93411 0.0
H3301 H 0.27136 0.29544 0.92821 0.0
C3302 C 0.19383 0.33817 0.93722 0.0
C3303 C 0.24695 0.34298 0.9307 0.0
C3304 C 0.27404 0.36369 0.92704 0.0
C3305 C 0.19631 0.30247 0.93716 0.0
C3306 C 0.2248 0.28692 0.93394 0.0
C3307 C 0.24954 0.30739 0.93068 0.0
C3308 C 0.23041 0.24957 0.93406 0.0
C3309 C 0.16839 0.28168 0.9405 0.0
C3310 C 0.23594 0.23262 0.94048 0.0
C3311 C 0.24708 0.19882 0.94054 0.0
C3312 C 0.25316 0.18138 0.93416 0.0
C3313 C 0.24536 0.19778 0.92775 0.0
C3314 C 0.2343 0.23159 0.9277 0.0
H3315 H 0.14447 0.29652 0.94102 0.0
H3316 H 0.16314 0.25839 0.93736 0.0
H3317 H 0.17648 0.27374 0.94587 0.0
H3318 H 0.23356 0.24611 0.94545 0.0
H3319 H 0.25282 0.18708 0.94558 0.0
H3320 H 0.56389 0.49629 0.69564 0.0
H3321 H 0.50465 0.47772 0.6955 0.0
H3322 H 0.50773 0.4708 0.67277 0.0
H3323 H 0.5669 0.48963 0.67283 0.0
H3324 H 0.45685 0.51343 0.67785 0.0
H3325 H 0.45303 0.38888 0.6916 0.0
H3326 H 0.47593 0.42135 0.69628 0.0
H3327 H 0.49169 0.40638 0.68793 0.0
C3328 C 0.55236 0.48988 0.69062 0.0
C3329 C 0.5702 0.4948 0.68424 0.0
C3330 C 0.51842 0.47914 0.69055 0.0
C3331 C 0.50174 0.47285 0.68413 0.0
C3332 C 0.52012 0.47552 0.67779 0.0
H3333 H 0.29008 0.41153 0.67808 0.0
H3334 H 0.35253 0.41465 0.678 0.0
C3335 C 0.55405 0.48619 0.67785 0.0
C3336 C 0.46431 0.46779 0.68395 0.0
H3337 H 0.39983 0.41732 0.69002 0.0
C3338 C 0.44442 0.49225 0.68046 0.0
C3339 C 0.44812 0.44013 0.68735 0.0
C3340 C 0.46826 0.41248 0.69095 0.0
C3341 C 0.40879 0.49021 0.6804 0.0
C3342 C 0.39255 0.46318 0.68399 0.0
C3343 C 0.41238 0.43822 0.68733 0.0
C3344 C 0.35495 0.46055 0.68428 0.0
C3345 C 0.38875 0.51695 0.67648 0.0
C3346 C 0.33574 0.48508 0.68792 0.0
C3347 C 0.3002 0.48331 0.68796 0.0
C3348 C 0.28337 0.45703 0.68436 0.0
C3349 C 0.3026 0.43219 0.68083 0.0
C3350 C 0.33815 0.43386 0.68081 0.0
H3351 H 0.40496 0.53153 0.67274 0.0
H3352 H 0.36749 0.50521 0.67348 0.0
H3353 H 0.3777 0.53511 0.68034 0.0
H3354 H 0.34826 0.50568 0.69069 0.0
H3355 H 0.28582 0.50267 0.69073 0.0
H3356 H 0.26159 0.81263 0.4236 0.0
H3357 H 0.279 0.75299 0.42394 0.0
H3358 H 0.27273 0.75372 0.44667 0.0
H3359 H 0.25503 0.81328 0.44642 0.0
H3360 H 0.3311 0.71359 0.43109 0.0
H3361 H 0.19974 0.6839 0.44008 0.0
H3362 H 0.21139 0.72482 0.43651 0.0
H3363 H 0.22255 0.71398 0.44543 0.0
C3364 C 0.26472 0.80045 0.4287 0.0
C3365 C 0.25631 0.81767 0.43498 0.0
C3366 C 0.27465 0.7663 0.42887 0.0
C3367 C 0.27637 0.7488 0.43532 0.0
C3368 C 0.27092 0.76666 0.44163 0.0
H3369 H 0.33676 0.53725 0.44186 0.0
H3370 H 0.33306 0.59952 0.44212 0.0
C3371 C 0.26096 0.80078 0.44147 0.0
C3372 C 0.28046 0.71133 0.43537 0.0
H3373 H 0.23777 0.63781 0.43908 0.0
C3374 C 0.31081 0.69696 0.43286 0.0
C3375 C 0.25365 0.68975 0.43757 0.0
C3376 C 0.21985 0.70375 0.44 0.0
C3377 C 0.31518 0.66149 0.43256 0.0
C3378 C 0.28858 0.63997 0.43489 0.0
C3379 C 0.25818 0.65438 0.43735 0.0
C3380 C 0.29134 0.60236 0.43468 0.0
C3381 C 0.34786 0.64731 0.4296 0.0
C3382 C 0.2686 0.5833 0.43055 0.0
C3383 C 0.27049 0.54779 0.43045 0.0
C3384 C 0.295 0.53077 0.43452 0.0
C3385 C 0.31754 0.54983 0.4387 0.0
C3386 C 0.31569 0.58535 0.43879 0.0
H3387 H 0.36221 0.6667 0.42655 0.0
H3388 H 0.36423 0.63858 0.43402 0.0
H3389 H 0.34275 0.62515 0.42612 0.0
H3390 H 0.24943 0.59594 0.42738 0.0
H3391 H 0.25263 0.5336 0.42724 0.0
H3392 H 0.20952 0.15331 0.09908 0.0
H3393 H 0.20241 0.1399 0.11161 0.0
H3394 H 0.1869 0.03424 0.10639 0.0
H3395 H 0.19483 0.04723 0.09389 0.0
H3396 H 0.14608 0.11463 0.11776 0.0
H3397 H 0.25406 0.02696 0.12247 0.0
H3398 H 0.25105 0.05319 0.11467 0.0
H3399 H 0.22758 0.014 0.11523 0.0
C3400 C 0.2051 0.12713 0.1006 0.0
C3401 C 0.20275 0.10134 0.09548 0.0
C3402 C 0.201 0.11952 0.10777 0.0
C3403 C 0.1945 0.08601 0.10995 0.0
C3404 C 0.19267 0.06013 0.10485 0.0
H3405 H 0.09638 0.03391 0.14977 0.0
H3406 H 0.11044 0.04153 0.13727 0.0
C3407 C 0.197 0.06767 0.0977 0.0
C3408 C 0.1873 0.07859 0.11748 0.0
H3409 H 0.21147 0.02918 0.13144 0.0
C3410 C 0.16049 0.09607 0.12077 0.0
C3411 C 0.20631 0.05457 0.1214 0.0
C3412 C 0.23657 0.03634 0.11829 0.0
C3413 C 0.15193 0.08999 0.12785 0.0
C3414 C 0.17013 0.06509 0.1317 0.0
C3415 C 0.19723 0.04789 0.12845 0.0
C3416 C 0.16227 0.0576 0.1392 0.0
C3417 C 0.12396 0.11088 0.13117 0.0
C3418 C 0.18721 0.06258 0.1444 0.0
C3419 C 0.1794 0.05783 0.15153 0.0
C3420 C 0.14645 0.04806 0.1536 0.0
C3421 C 0.12188 0.04179 0.14836 0.0
C3422 C 0.12981 0.04633 0.14122 0.0
H3423 H 0.11898 0.13459 0.12815 0.0
H3424 H 0.10013 0.09578 0.13124 0.0
H3425 H 0.13041 0.11783 0.1367 0.0
H3426 H 0.21248 0.07106 0.14295 0.0
H3427 H 0.19899 0.06272 0.15542 0.0
H3428 H 0.19258 0.92459 0.34397 0.0
H3429 H 0.20268 0.91508 0.35653 0.0
H3430 H 0.13369 0.99666 0.36167 0.0
H3431 H 0.12289 0.00609 0.34907 0.0
H3432 H 0.2269 0.95766 0.3672 0.0
H3433 H 0.09448 0.9148 0.37241 0.0
H3434 H 0.11127 0.9194 0.36358 0.0
H3435 H 0.09826 0.95627 0.3685 0.0
C3436 C 0.17958 0.94065 0.34775 0.0
C3437 C 0.15658 0.96586 0.34551 0.0
C3438 C 0.1855 0.93522 0.35493 0.0
C3439 C 0.16854 0.95479 0.36002 0.0
C3440 C 0.14655 0.98086 0.35782 0.0
H3441 H 0.21249 0.95013 0.40524 0.0
H3442 H 0.20736 0.96708 0.39286 0.0
C3443 C 0.14054 0.98632 0.35062 0.0
C3444 C 0.17324 0.94695 0.36761 0.0
H3445 H 0.13147 0.91767 0.3822 0.0
C3446 C 0.20605 0.94906 0.3705 0.0
C3447 C 0.14603 0.93526 0.37185 0.0
C3448 C 0.11056 0.93096 0.36894 0.0
C3449 C 0.21241 0.93973 0.37754 0.0
C3450 C 0.18511 0.92845 0.3818 0.0
C3451 C 0.1523 0.92646 0.37892 0.0
C3452 C 0.19 0.91784 0.38924 0.0
C3453 C 0.2484 0.9411 0.38029 0.0
C3454 C 0.18166 0.88462 0.39132 0.0
C3455 C 0.18434 0.87488 0.3984 0.0
C3456 C 0.19529 0.89828 0.40353 0.0
C3457 C 0.20414 0.93142 0.40141 0.0
C3458 C 0.20138 0.94114 0.39433 0.0
H3459 H 0.26728 0.94219 0.37593 0.0
H3460 H 0.25159 0.96426 0.38358 0.0
H3461 H 0.25408 0.91863 0.38364 0.0
H3462 H 0.17274 0.86629 0.38747 0.0
H3463 H 0.1773 0.84919 0.39985 0.0
H3464 H 0.30945 0.95069 0.59393 0.0
H3465 H 0.31883 0.96362 0.60639 0.0
H3466 H 0.29121 0.86089 0.61195 0.0
H3467 H 0.28264 0.84738 0.59945 0.0
H3468 H 0.27862 0.96166 0.61807 0.0
H3469 H 0.38502 0.86981 0.62064 0.0
H3470 H 0.36713 0.88143 0.6122 0.0
H3471 H 0.34604 0.8507 0.61772 0.0
C3472 C 0.30517 0.93084 0.59779 0.0
C3473 C 0.29572 0.89784 0.59569 0.0
C3474 C 0.31052 0.93832 0.60492 0.0
C3475 C 0.30645 0.91302 0.61007 0.0
C3476 C 0.29537 0.88053 0.60803 0.0
H3477 H 0.29947 0.94221 0.65542 0.0
H3478 H 0.28586 0.93544 0.64292 0.0
C3479 C 0.29026 0.87292 0.60089 0.0
C3480 C 0.31472 0.92053 0.61755 0.0
H3481 H 0.3658 0.89594 0.6312 0.0
C3482 C 0.29773 0.94736 0.62094 0.0
C3483 C 0.34016 0.90229 0.62124 0.0
C3484 C 0.3609 0.87468 0.61775 0.0
C3485 C 0.30508 0.95607 0.62797 0.0
C3486 C 0.32956 0.93693 0.63175 0.0
C3487 C 0.34689 0.91045 0.62831 0.0
C3488 C 0.33742 0.94349 0.63928 0.0
C3489 C 0.28702 0.98606 0.63124 0.0
C3490 C 0.37105 0.94982 0.64141 0.0
C3491 C 0.37903 0.95323 0.64857 0.0
C3492 C 0.35351 0.95035 0.65374 0.0
C3493 C 0.31973 0.94477 0.65157 0.0
C3494 C 0.31182 0.94112 0.64442 0.0
H3495 H 0.27742 0.00388 0.62714 0.0
H3496 H 0.26483 0.97681 0.63431 0.0
H3497 H 0.30405 1.00025 0.63488 0.0
H3498 H 0.39122 0.95161 0.63753 0.0
H3499 H 0.40528 0.95753 0.65006 0.0
H3500 H 0.34712 0.07889 0.90441 0.0
H3501 H 0.35472 0.0674 0.89186 0.0
H3502 H 0.24646 0.07575 0.88862 0.0
H3503 H 0.23861 0.08811 0.90121 0.0
H3504 H 0.32953 0.01582 0.88364 0.0
H3505 H 0.28401 0.14134 0.87396 0.0
H3506 H 0.29354 0.1335 0.88314 0.0
H3507 H 0.25427 0.11861 0.87939 0.0
C3508 C 0.32485 0.0784 0.90104 0.0
C3509 C 0.29225 0.08469 0.90381 0.0
C3510 C 0.32927 0.07173 0.89386 0.0
C3511 C 0.30124 0.07117 0.88929 0.0
C3512 C 0.26853 0.07677 0.89204 0.0
H3513 H 0.29688 0.04394 0.8435 0.0
H3514 H 0.28068 0.04674 0.85597 0.0
C3515 C 0.26408 0.08367 0.89923 0.0
C3516 C 0.30665 0.06469 0.88166 0.0
H3517 H 0.29931 0.10086 0.86532 0.0
C3518 C 0.32282 0.03436 0.87963 0.0
C3519 C 0.29785 0.08892 0.87644 0.0
C3520 C 0.28172 0.12256 0.87832 0.0
C3521 C 0.33069 0.02773 0.87253 0.0
C3522 C 0.32244 0.05222 0.86734 0.0
C3523 C 0.30554 0.08215 0.86933 0.0
C3524 C 0.33237 0.04801 0.85985 0.0
C3525 C 0.34776 0.99462 0.87062 0.0
C3526 C 0.36683 0.04773 0.85793 0.0
C3527 C 0.37623 0.04627 0.85081 0.0
C3528 C 0.35128 0.04512 0.8455 0.0
C3529 C 0.31676 0.04475 0.84746 0.0
C3530 C 0.30741 0.04638 0.85458 0.0
H3531 H 0.34461 0.97524 0.87485 0.0
H3532 H 0.33737 0.98427 0.86561 0.0
H3533 H 0.37539 0.99912 0.86988 0.0
H3534 H 0.38646 0.04954 0.86193 0.0
H3535 H 0.40302 0.04668 0.84948 0.0
H3536 H 0.73695 0.92684 0.90123 0.0
H3537 H 0.74615 0.93476 0.8885 0.0
H3538 H 0.85385 0.91988 0.89143 0.0
H3539 H 0.84509 0.9119 0.90407 0.0
H3540 H 0.79148 0.98422 0.88152 0.0
H3541 H 0.8256 0.84983 0.87598 0.0
H3542 H 0.80301 0.86261 0.88386 0.0
H3543 H 0.84823 0.86857 0.88325 0.0
C3544 C 0.76256 0.92519 0.89916 0.0
C3545 C 0.79024 0.91852 0.90366 0.0
C3546 C 0.76775 0.92979 0.8919 0.0
C3547 C 0.80061 0.92745 0.88904 0.0
C3548 C 0.82825 0.92126 0.89353 0.0
H3549 H 0.90243 0.93768 0.849 0.0
H3550 H 0.88606 0.9347 0.86145 0.0
C3551 C 0.82315 0.91681 0.90076 0.0
C3552 C 0.80648 0.93159 0.88138 0.0
H3553 H 0.83771 0.89005 0.86695 0.0
C3554 C 0.80123 0.96361 0.8783 0.0
C3555 C 0.81924 0.90459 0.87722 0.0
C3556 C 0.8241 0.86935 0.88021 0.0
C3557 C 0.80967 0.9697 0.87119 0.0
C3558 C 0.82316 0.94285 0.86708 0.0
C3559 C 0.82762 0.91064 0.87013 0.0
C3560 C 0.83327 0.94749 0.8596 0.0
C3561 C 0.80523 0.00503 0.86822 0.0
C3562 C 0.80904 0.95591 0.85446 0.0
C3563 C 0.81833 0.95773 0.84734 0.0
C3564 C 0.85199 0.95088 0.84524 0.0
C3565 C 0.87632 0.9431 0.85043 0.0
C3566 C 0.86701 0.94134 0.85755 0.0
H3567 H 0.80246 0.02436 0.87247 0.0
H3568 H 0.82718 0.01212 0.86484 0.0
H3569 H 0.78194 0.00573 0.86492 0.0
H3570 H 0.78274 0.96012 0.85592 0.0
H3571 H 0.79892 0.96365 0.84347 0.0
H3572 H 0.80458 0.05174 0.59368 0.0
H3573 H 0.81167 0.0378 0.60616 0.0
H3574 H 0.80379 0.14411 0.61154 0.0
H3575 H 0.7975 0.15842 0.59903 0.0
H3576 H 0.85835 0.11444 0.61763 0.0
H3577 H 0.74403 0.03507 0.62225 0.0
H3578 H 0.76941 0.0205 0.61498 0.0
H3579 H 0.74893 0.06135 0.6145 0.0
C3580 C 0.80392 0.07216 0.59752 0.0
C3581 C 0.80053 0.10623 0.59536 0.0
C3582 C 0.80776 0.06409 0.60467 0.0
C3583 C 0.80782 0.08986 0.60979 0.0
C3584 C 0.80371 0.12382 0.60767 0.0
H3585 H 0.80124 0.06619 0.65522 0.0
H3586 H 0.78861 0.07562 0.64274 0.0
C3587 C 0.80007 0.13195 0.60052 0.0
C3588 C 0.81448 0.08168 0.61731 0.0
H3589 H 0.78659 0.03395 0.63123 0.0
C3590 C 0.84256 0.09696 0.62061 0.0
C3591 C 0.7937 0.05909 0.62121 0.0
C3592 C 0.76214 0.0433 0.61808 0.0
C3593 C 0.85063 0.09009 0.62769 0.0
C3594 C 0.83056 0.06659 0.63152 0.0
C3595 C 0.80223 0.05158 0.62825 0.0
C3596 C 0.83773 0.05845 0.63902 0.0
C3597 C 0.88012 0.10869 0.63103 0.0
C3598 C 0.86922 0.04475 0.64105 0.0
C3599 C 0.87668 0.03959 0.6482 0.0
C3600 C 0.85257 0.04764 0.65342 0.0
C3601 C 0.82047 0.05986 0.65133 0.0
C3602 C 0.81316 0.06524 0.6442 0.0
H3603 H 0.88695 0.13198 0.62802 0.0
H3604 H 0.8742 0.11605 0.63656 0.0
H3605 H 0.90271 0.09178 0.63109 0.0
H3606 H 0.88824 0.03853 0.63712 0.0
H3607 H 0.90149 0.02981 0.64963 0.0
H3608 H 0.66718 0.14511 0.39993 0.0
H3609 H 0.66263 0.12763 0.38757 0.0
H3610 H 0.70749 0.03064 0.39269 0.0
H3611 H 0.71249 0.04797 0.40506 0.0
H3612 H 0.73383 0.06052 0.38032 0.0
H3613 H 0.59277 0.05808 0.38022 0.0
H3614 H 0.61043 0.09763 0.38323 0.0
H3615 H 0.61738 0.05949 0.38827 0.0
C3616 C 0.67624 0.12011 0.39843 0.0
C3617 C 0.68999 0.09785 0.40349 0.0
C3618 C 0.67342 0.1101 0.39137 0.0
C3619 C 0.68413 0.07762 0.38926 0.0
C3620 C 0.69884 0.05572 0.39424 0.0
H3621 H 0.62794 0.99307 0.34808 0.0
H3622 H 0.63829 0.99918 0.36079 0.0
C3623 C 0.70168 0.06569 0.4013 0.0
C3624 C 0.67989 0.06657 0.38184 0.0
H3625 H 0.62013 0.05468 0.369 0.0
C3626 C 0.70898 0.05895 0.37785 0.0
C3627 C 0.64739 0.06392 0.37868 0.0
C3628 C 0.61516 0.06987 0.38283 0.0
C3629 C 0.70649 0.05008 0.37068 0.0
C3630 C 0.67411 0.04929 0.36743 0.0
C3631 C 0.64495 0.05556 0.37149 0.0
C3632 C 0.66996 0.0439 0.35973 0.0
C3633 C 0.73854 0.04173 0.36665 0.0
C3634 C 0.6843 0.06703 0.35495 0.0
C3635 C 0.67845 0.06365 0.34772 0.0
C3636 C 0.65789 0.03717 0.34512 0.0
C3637 C 0.64392 0.0137 0.34991 0.0
C3638 C 0.64978 0.01715 0.35717 0.0
H3639 H 0.75925 0.03342 0.37026 0.0
H3640 H 0.73395 0.02141 0.36269 0.0
H3641 H 0.74741 0.0648 0.36382 0.0
H3642 H 0.69934 0.08827 0.35683 0.0
H3643 H 0.68959 0.0822 0.34417 0.0
H3644 H 0.60186 0.94256 0.14966 0.0
H3645 H 0.62024 0.94049 0.13732 0.0
H3646 H 0.72376 0.9591 0.14375 0.0
H3647 H 0.70575 0.96107 0.15612 0.0
H3648 H 0.65723 0.99119 0.12912 0.0
H3649 H 0.72751 0.86908 0.13214 0.0
H3650 H 0.6965 0.88341 0.13852 0.0
H3651 H 0.73798 0.90241 0.13827 0.0
C3652 C 0.62852 0.94639 0.14846 0.0
C3653 C 0.65237 0.95173 0.15388 0.0
C3654 C 0.63894 0.94523 0.1414 0.0
C3655 C 0.67338 0.94918 0.13965 0.0
C3656 C 0.69714 0.95548 0.14502 0.0
H3657 H 0.76973 0.92109 0.0982 0.0
H3658 H 0.76092 0.93365 0.11077 0.0
C3659 C 0.68674 0.95674 0.15207 0.0
C3660 C 0.68436 0.94604 0.13221 0.0
H3661 H 0.72771 0.89431 0.12086 0.0
C3662 C 0.6728 0.97014 0.12731 0.0
C3663 C 0.70488 0.91867 0.1299 0.0
C3664 C 0.71734 0.89171 0.13495 0.0
C3665 C 0.68085 0.96735 0.12011 0.0
C3666 C 0.70033 0.93929 0.11775 0.0
C3667 C 0.71278 0.91577 0.12269 0.0
C3668 C 0.70598 0.93258 0.11015 0.0
C3669 C 0.6684 0.99447 0.1151 0.0
C3670 C 0.67805 0.92728 0.10568 0.0
C3671 C 0.68295 0.92015 0.09854 0.0
C3672 C 0.71597 0.91784 0.09571 0.0
C3673 C 0.744 0.92276 0.10021 0.0
C3674 C 0.73902 0.92997 0.10739 0.0
H3675 H 0.66364 0.01887 0.11789 0.0
H3676 H 0.68699 0.99903 0.11078 0.0
H3677 H 0.64404 0.98612 0.1127 0.0
H3678 H 0.65236 0.9283 0.10774 0.0
H3679 H 0.66077 0.91631 0.09524 0.0
H3680 H 0.71185 0.65552 0.59863 0.0
H3681 H 0.7052 0.64158 0.61114 0.0
H3682 H 0.68456 0.53708 0.60569 0.0
H3683 H 0.69199 0.55058 0.59319 0.0
H3684 H 0.64849 0.61846 0.61748 0.0
H3685 H 0.75282 0.52569 0.62147 0.0
H3686 H 0.75023 0.55256 0.61375 0.0
H3687 H 0.72506 0.51444 0.61431 0.0
C3688 C 0.70637 0.62946 0.6001 0.0
C3689 C 0.70247 0.60417 0.59491 0.0
C3690 C 0.70254 0.62155 0.60725 0.0
C3691 C 0.69477 0.58821 0.60936 0.0
C3692 C 0.69133 0.5628 0.6042 0.0
H3693 H 0.59764 0.53726 0.64931 0.0
H3694 H 0.61131 0.54551 0.63682 0.0
C3695 C 0.69538 0.57064 0.59705 0.0
C3696 C 0.68798 0.5806 0.61691 0.0
H3697 H 0.71125 0.52919 0.63064 0.0
C3698 C 0.66235 0.59906 0.62037 0.0
C3699 C 0.70628 0.5555 0.62069 0.0
C3700 C 0.73537 0.53614 0.61739 0.0
C3701 C 0.65421 0.59288 0.62747 0.0
C3702 C 0.67162 0.56689 0.63117 0.0
C3703 C 0.69761 0.54875 0.62775 0.0
C3704 C 0.66392 0.55904 0.63867 0.0
C3705 C 0.62754 0.61476 0.63097 0.0
C3706 C 0.68935 0.56234 0.64382 0.0
C3707 C 0.68175 0.55721 0.65095 0.0
C3708 C 0.6485 0.54873 0.65307 0.0
C3709 C 0.62339 0.54413 0.64787 0.0
C3710 C 0.63111 0.54903 0.64073 0.0
H3711 H 0.62349 0.63896 0.62806 0.0
H3712 H 0.60301 0.60082 0.63106 0.0
H3713 H 0.63473 0.62088 0.6365 0.0
H3714 H 0.7149 0.56982 0.64234 0.0
H3715 H 0.70174 0.56082 0.65482 0.0
H3716 H 0.69898 0.45474 0.90539 0.0
H3717 H 0.69032 0.46894 0.89294 0.0
H3718 H 0.68926 0.36223 0.88767 0.0
H3719 H 0.69713 0.34773 0.90013 0.0
H3720 H 0.72667 0.45539 0.88093 0.0
H3721 H 0.5994 0.39503 0.87958 0.0
H3722 H 0.62118 0.40241 0.88783 0.0
H3723 H 0.63222 0.36641 0.88242 0.0
C3724 C 0.69706 0.43425 0.90158 0.0
C3725 C 0.69836 0.40006 0.90377 0.0
C3726 C 0.69213 0.44244 0.89447 0.0
C3727 C 0.68842 0.41664 0.88941 0.0
C3728 C 0.69119 0.38253 0.89152 0.0
H3729 H 0.69759 0.4348 0.84386 0.0
H3730 H 0.71015 0.42735 0.85639 0.0
C3731 C 0.69591 0.37429 0.89864 0.0
C3732 C 0.68107 0.42544 0.88194 0.0
H3733 H 0.6236 0.41277 0.86868 0.0
C3734 C 0.70407 0.44621 0.87825 0.0
C3735 C 0.65123 0.414 0.8785 0.0
C3736 C 0.6244 0.39352 0.8823 0.0
C3737 C 0.69843 0.45519 0.87116 0.0
C3738 C 0.66936 0.44245 0.86763 0.0
C3739 C 0.64602 0.4223 0.87137 0.0
C3740 C 0.66274 0.44917 0.86004 0.0
C3741 C 0.7234 0.47864 0.86757 0.0
C3742 C 0.63167 0.46345 0.85789 0.0
C3743 C 0.62417 0.4673 0.85071 0.0
C3744 C 0.64763 0.45691 0.84554 0.0
C3745 C 0.67903 0.44326 0.8477 0.0
C3746 C 0.68638 0.4392 0.85488 0.0
H3747 H 0.73766 0.49423 0.87147 0.0
H3748 H 0.74215 0.46322 0.86458 0.0
H3749 H 0.71036 0.49596 0.86381 0.0
H3750 H 0.61299 0.4712 0.86178 0.0
H3751 H 0.59978 0.47791 0.84923 0.0
H3752 H 0.72847 0.43493 0.09654 0.0
H3753 H 0.7328 0.45158 0.109 0.0
H3754 H 0.84005 0.42868 0.10872 0.0
H3755 H 0.83615 0.41264 0.09631 0.0
H3756 H 0.75266 0.41456 0.12051 0.0
H3757 H 0.83921 0.52403 0.11689 0.0
H3758 H 0.81699 0.50435 0.10961 0.0
H3759 H 0.8558 0.48605 0.11294 0.0
C3760 C 0.75297 0.4335 0.09913 0.0
C3761 C 0.782 0.42264 0.09542 0.0
C3762 C 0.75541 0.44308 0.10624 0.0
C3763 C 0.7869 0.4421 0.10974 0.0
C3764 C 0.81569 0.43057 0.10608 0.0
H3765 H 0.83817 0.41943 0.15313 0.0
H3766 H 0.8233 0.41416 0.14069 0.0
C3767 C 0.81333 0.42113 0.09899 0.0
C3768 C 0.78972 0.4518 0.11729 0.0
H3769 H 0.83583 0.50101 0.12866 0.0
C3770 C 0.77049 0.43379 0.12229 0.0
C3771 C 0.81248 0.47738 0.1196 0.0
C3772 C 0.83201 0.49931 0.11447 0.0
C3773 C 0.77477 0.43939 0.12956 0.0
C3774 C 0.79944 0.46311 0.13188 0.0
C3775 C 0.8173 0.48245 0.12688 0.0
C3776 C 0.80843 0.46681 0.13945 0.0
C3777 C 0.75298 0.41963 0.13468 0.0
C3778 C 0.80626 0.49852 0.14284 0.0
C3779 C 0.81518 0.50176 0.14997 0.0
C3780 C 0.82655 0.47334 0.15382 0.0
C3781 C 0.82925 0.4418 0.15036 0.0
C3782 C 0.82048 0.43864 0.14324 0.0
H3783 H 0.72869 0.41154 0.1322 0.0
H3784 H 0.76679 0.39636 0.13634 0.0
H3785 H 0.74712 0.43488 0.13947 0.0
H3786 H 0.79735 0.52067 0.13998 0.0
H3787 H 0.81284 0.5264 0.15248 0.0
H3788 H 0.81239 0.47844 0.34581 0.0
H3789 H 0.798 0.48302 0.35839 0.0
H3790 H 0.82433 0.58948 0.35803 0.0
H3791 H 0.83808 0.58535 0.3455 0.0
H3792 H 0.83745 0.50112 0.36962 0.0
H3793 H 0.73068 0.59177 0.36693 0.0
H3794 H 0.74839 0.56927 0.35947 0.0
H3795 H 0.76865 0.60717 0.36276 0.0
C3796 C 0.81502 0.50284 0.34841 0.0
C3797 C 0.8262 0.53157 0.34464 0.0
C3798 C 0.80674 0.50541 0.35559 0.0
C3799 C 0.80938 0.53676 0.35911 0.0
C3800 C 0.82117 0.56526 0.35538 0.0
H3801 H 0.83842 0.58345 0.40274 0.0
H3802 H 0.84246 0.56955 0.39021 0.0
C3803 C 0.82929 0.56276 0.34822 0.0
C3804 C 0.80109 0.53966 0.36673 0.0
H3805 H 0.75505 0.58654 0.37853 0.0
C3806 C 0.81913 0.51949 0.37157 0.0
C3807 C 0.77668 0.56315 0.36927 0.0
C3808 C 0.75473 0.5838 0.36433 0.0
C3809 C 0.81463 0.52337 0.37888 0.0
C3810 C 0.79202 0.5486 0.38142 0.0
C3811 C 0.77274 0.56756 0.37658 0.0
C3812 C 0.78921 0.55679 0.38905 0.0
C3813 C 0.83424 0.50047 0.38381 0.0
C3814 C 0.75766 0.55541 0.39251 0.0
C3815 C 0.75515 0.56378 0.39969 0.0
C3816 C 0.78416 0.5738 0.4035 0.0
C3817 C 0.8156 0.57558 0.39998 0.0
C3818 C 0.81804 0.56736 0.39282 0.0
H3819 H 0.84131 0.47619 0.38119 0.0
H3820 H 0.8581 0.5134 0.38542 0.0
H3821 H 0.81933 0.49459 0.38865 0.0
H3822 H 0.73503 0.54761 0.38968 0.0
H3823 H 0.73056 0.56218 0.40224 0.0
H3824 H 0.39462 0.41676 0.3486 0.0
H3825 H 0.37742 0.41227 0.36097 0.0
H3826 H 0.28336 0.46377 0.35622 0.0
H3827 H 0.30038 0.4686 0.34381 0.0
H3828 H 0.31684 0.4869 0.36876 0.0
H3829 H 0.30251 0.34652 0.36807 0.0
H3830 H 0.34292 0.36159 0.36493 0.0
H3831 H 0.30482 0.37211 0.36016 0.0
C3832 C 0.37034 0.4273 0.35018 0.0
C3833 C 0.34879 0.44286 0.3452 0.0
C3834 C 0.36048 0.42453 0.35724 0.0
C3835 C 0.32889 0.43716 0.35947 0.0
C3836 C 0.30775 0.45366 0.35458 0.0
H3837 H 0.24037 0.38411 0.40046 0.0
H3838 H 0.24773 0.39513 0.3878 0.0
C3839 C 0.31754 0.45639 0.3475 0.0
C3840 C 0.31794 0.4329 0.3669 0.0
H3841 H 0.3016 0.3726 0.37943 0.0
C3842 C 0.31323 0.46195 0.37109 0.0
C3843 C 0.31269 0.40032 0.36988 0.0
C3844 C 0.31566 0.36832 0.36552 0.0
C3845 C 0.30468 0.45922 0.37828 0.0
C3846 C 0.30115 0.42658 0.38134 0.0
C3847 C 0.30458 0.39759 0.37708 0.0
C3848 C 0.29549 0.42183 0.38901 0.0
C3849 C 0.29956 0.49127 0.38253 0.0
C3850 C 0.31997 0.43307 0.39387 0.0
C3851 C 0.3159 0.42678 0.40108 0.0
C3852 C 0.28732 0.40893 0.40358 0.0
C3853 C 0.26262 0.39798 0.39871 0.0
C3854 C 0.26678 0.40423 0.39148 0.0
H3855 H 0.2934 0.5133 0.37908 0.0
H3856 H 0.27885 0.48806 0.38646 0.0
H3857 H 0.32337 0.49729 0.38542 0.0
H3858 H 0.34265 0.44607 0.39207 0.0
H3859 H 0.33543 0.43557 0.40468 0.0
H3860 H 0.33298 0.58538 0.15308 0.0
H3861 H 0.31785 0.58941 0.14063 0.0
H3862 H 0.29931 0.48135 0.14 0.0
H3863 H 0.31506 0.4769 0.15251 0.0
H3864 H 0.33688 0.50339 0.12873 0.0
H3865 H 0.22364 0.58529 0.13196 0.0
H3866 H 0.2604 0.60316 0.13617 0.0
H3867 H 0.24329 0.56343 0.13929 0.0
C3868 C 0.32561 0.5624 0.15032 0.0
C3869 C 0.32511 0.5308 0.1538 0.0
C3870 C 0.31668 0.56483 0.14321 0.0
C3871 C 0.30669 0.53583 0.13943 0.0
C3872 C 0.30662 0.50411 0.14284 0.0
H3873 H 0.22676 0.56096 0.09632 0.0
H3874 H 0.23161 0.54519 0.10882 0.0
C3875 C 0.31567 0.50161 0.14998 0.0
C3876 C 0.29779 0.53873 0.13184 0.0
H3877 H 0.24833 0.5837 0.12032 0.0
C3878 C 0.3172 0.52058 0.12689 0.0
C3879 C 0.27166 0.56064 0.12944 0.0
C3880 C 0.24831 0.57895 0.1345 0.0
C3881 C 0.3124 0.52516 0.1196 0.0
C3882 C 0.28804 0.54906 0.11722 0.0
C3883 C 0.26737 0.5658 0.12216 0.0
C3884 C 0.2849 0.55836 0.10965 0.0
C3885 C 0.33366 0.50452 0.11453 0.0
C3886 C 0.31302 0.57168 0.10603 0.0
C3887 C 0.31037 0.58061 0.09891 0.0
C3888 C 0.27939 0.5768 0.09528 0.0
C3889 C 0.25098 0.56419 0.09896 0.0
C3890 C 0.25372 0.5551 0.1061 0.0
H3891 H 0.34242 0.48041 0.117 0.0
H3892 H 0.31927 0.49836 0.10965 0.0
H3893 H 0.35655 0.51937 0.11304 0.0
H3894 H 0.33706 0.57533 0.10871 0.0
H3895 H 0.33269 0.5905 0.09626 0.0
H3896 H 0.19764 0.55014 0.84385 0.0
H3897 H 0.2121 0.55676 0.85632 0.0
H3898 H 0.10555 0.56368 0.86155 0.0
H3899 H 0.09084 0.55787 0.84905 0.0
H3900 H 0.14227 0.61454 0.86744 0.0
H3901 H 0.20512 0.4909 0.8727 0.0
H3902 H 0.22311 0.5134 0.86534 0.0
H3903 H 0.1799 0.49853 0.86489 0.0
C3904 C 0.17722 0.55263 0.84766 0.0
C3905 C 0.14305 0.55351 0.84546 0.0
C3906 C 0.18556 0.55622 0.8548 0.0
C3907 C 0.1599 0.56029 0.85988 0.0
C3908 C 0.12575 0.56047 0.85771 0.0
H3909 H 0.17964 0.55417 0.90535 0.0
H3910 H 0.16921 0.54228 0.89288 0.0
C3911 C 0.11738 0.55708 0.85057 0.0
C3912 C 0.16867 0.56656 0.86739 0.0
H3913 H 0.21128 0.53361 0.88154 0.0
C3914 C 0.15724 0.59678 0.87054 0.0
C3915 C 0.18799 0.54323 0.87142 0.0
C3916 C 0.19948 0.50954 0.86844 0.0
C3917 C 0.16476 0.60446 0.8776 0.0
C3918 C 0.18499 0.58166 0.88158 0.0
C3919 C 0.19617 0.55127 0.87845 0.0
C3920 C 0.19344 0.58819 0.88909 0.0
C3921 C 0.15025 0.63654 0.88079 0.0
C3922 C 0.21133 0.61756 0.89109 0.0
C3923 C 0.21712 0.62462 0.89824 0.0
C3924 C 0.20545 0.6022 0.90349 0.0
C3925 C 0.18883 0.57209 0.90144 0.0
C3926 C 0.18288 0.56519 0.89431 0.0
H3927 H 0.12841 0.64638 0.87767 0.0
H3928 H 0.14167 0.63214 0.8863 0.0
H3929 H 0.17018 0.65651 0.88086 0.0
H3930 H 0.22044 0.63524 0.88714 0.0
H3931 H 0.2303 0.64785 0.89964 0.0
H3932 H 0.17498 0.52671 0.65217 0.0
H3933 H 0.19036 0.52123 0.63967 0.0
H3934 H 0.18061 0.41222 0.64119 0.0
H3935 H 0.16602 0.41734 0.65366 0.0
H3936 H 0.23854 0.43131 0.63425 0.0
H3937 H 0.12605 0.4994 0.62345 0.0
H3938 H 0.1509 0.52326 0.62969 0.0
H3939 H 0.12855 0.48585 0.63255 0.0
C3940 C 0.17597 0.5016 0.64983 0.0
C3941 C 0.16911 0.47249 0.65391 0.0
C3942 C 0.18465 0.49852 0.64268 0.0
C3943 C 0.18623 0.46633 0.63948 0.0
C3944 C 0.17953 0.4373 0.64356 0.0
H3945 H 0.17201 0.4042 0.59641 0.0
H3946 H 0.16523 0.41808 0.60889 0.0
C3947 C 0.17108 0.44031 0.65069 0.0
C3948 C 0.19493 0.46245 0.6319 0.0
H3949 H 0.16685 0.48026 0.61524 0.0
C3950 C 0.22301 0.44217 0.63008 0.0
C3951 C 0.17444 0.47644 0.62649 0.0
C3952 C 0.14312 0.49722 0.62811 0.0
C3953 C 0.23075 0.43486 0.623 0.0
C3954 C 0.21024 0.44884 0.61759 0.0
C3955 C 0.18262 0.46974 0.6194 0.0
C3956 C 0.21534 0.44014 0.61004 0.0
C3957 C 0.25991 0.41112 0.6214 0.0
C3958 C 0.24585 0.4479 0.60653 0.0
C3959 C 0.24997 0.43966 0.59938 0.0
C3960 C 0.22346 0.42393 0.59561 0.0
C3961 C 0.19295 0.41632 0.59915 0.0
C3962 C 0.18898 0.42432 0.60628 0.0
H3963 H 0.26799 0.39656 0.62614 0.0
H3964 H 0.2529 0.39283 0.61717 0.0
H3965 H 0.28201 0.42618 0.61953 0.0
H3966 H 0.2663 0.46069 0.60929 0.0
H3967 H 0.27364 0.44614 0.59678 0.0
loop_
_geom_bond_atom_site_label_1
_geom_bond_atom_site_label_2
_geom_bond_distance
_geom_bond_site_symmetry_2
_ccdc_geom_bond_type
Co0 O3 1.970 . S
Co0 N17 1.989 . S
Co0 O25 1.967 . S
Co0 O32 1.920 . S
Co1 O4 1.966 . S
Co1 N10 2.022 . S
Co1 N18 1.993 . S
Co1 O26 1.941 . S
C2 O3 1.258 . S
C2 O4 1.263 . S
O3 Co0 1.970 . S
O3 C2 1.258 . S
O4 Co1 1.966 . S
O4 C2 1.263 . S
C5 O6 1.235 . S
C5 O32 1.289 . S
O6 C5 1.235 . S
C7 C9 1.400 . S
C7 N10 1.351 . S
C7 C12 1.501 . S
C8 C9 1.387 . S
C8 N11 1.341 . S
C9 C7 1.400 . S
C9 C8 1.387 . S
N10 Co1 2.022 . S
N10 C7 1.351 . S
N10 N11 1.365 . S
N11 C8 1.341 . S
N11 N10 1.365 . S
N11 H31 0.862 . S
C12 C7 1.501 . S
C12 H13 0.961 . S
C12 H14 0.961 1_545 S
C12 H15 0.960 . S
H13 C12 0.961 . S
H14 C12 0.961 1_565 S
H15 C12 0.960 . S
C16 N17 1.342 . S
C16 C20 1.401 . S
C16 C21 1.499 . S
N17 Co0 1.989 . S
N17 C16 1.342 . S
N17 N18 1.388 . S
N18 Co1 1.993 . S
N18 N17 1.388 . S
N18 C19 1.346 . S
C19 N18 1.346 . S
C19 C20 1.396 . S
C19 C29 1.510 . S
C20 C16 1.401 . S
C20 C19 1.396 . S
C21 C16 1.499 . S
C21 H22 0.959 . S
C21 H23 0.960 . S
C21 H24 0.961 . S
H22 C21 0.959 . S
H23 C21 0.960 . S
H24 C21 0.961 . S
O25 Co0 1.967 . S
O25 C33 1.258 . S
O26 Co1 1.941 . S
O26 C33 1.266 . S
H27 C29 0.959 . S
H28 C29 0.961 . S
C29 C19 1.510 . S
C29 H27 0.959 . S
C29 H28 0.961 . S
C29 H30 0.960 . S
H30 C29 0.960 . S
H31 N11 0.862 . S
O32 Co0 1.920 . S
O32 C5 1.289 . S
C33 O25 1.258 . S
C33 O26 1.266 . S
Co34 O37 1.970 . S
Co34 N51 1.989 . S
Co34 O59 1.967 . S
Co34 O66 1.920 . S
Co35 O38 1.966 . S
Co35 N44 2.022 . S
Co35 N52 1.993 . S
Co35 O60 1.941 . S
C36 O37 1.258 . S
C36 O38 1.263 . S
O37 Co34 1.970 . S
O37 C36 1.258 . S
O38 Co35 1.966 . S
O38 C36 1.263 . S
C39 O40 1.235 . S
C39 O66 1.289 . S
O40 C39 1.235 . S
C41 C43 1.400 . S
C41 N44 1.351 . S
C41 C46 1.501 . S
C42 C43 1.387 . S
C42 N45 1.341 . S
C43 C41 1.400 . S
C43 C42 1.387 . S
N44 Co35 2.022 . S
N44 C41 1.351 . S
N44 N45 1.365 . S
N45 C42 1.341 . S
N45 N44 1.365 . S
N45 H65 0.862 . S
C46 C41 1.501 . S
C46 H47 0.961 . S
C46 H48 0.961 . S
C46 H49 0.960 . S
H47 C46 0.961 . S
H48 C46 0.961 . S
H49 C46 0.960 . S
C50 N51 1.342 . S
C50 C54 1.401 . S
C50 C55 1.499 . S
N51 Co34 1.989 . S
N51 C50 1.342 . S
N51 N52 1.388 . S
N52 Co35 1.993 . S
N52 N51 1.388 . S
N52 C53 1.346 . S
C53 N52 1.346 . S
C53 C54 1.396 . S
C53 C63 1.510 . S
C54 C50 1.401 . S
C54 C53 1.396 . S
C55 C50 1.499 . S
C55 H56 0.959 . S
C55 H57 0.960 . S
C55 H58 0.961 . S
H56 C55 0.959 . S
H57 C55 0.960 . S
H58 C55 0.961 . S
O59 Co34 1.967 . S
O59 C67 1.258 . S
O60 Co35 1.941 . S
O60 C67 1.266 . S
H61 C63 0.959 . S
H62 C63 0.961 . S
C63 C53 1.510 . S
C63 H61 0.959 . S
C63 H62 0.961 . S
C63 H64 0.960 . S
H64 C63 0.960 . S
H65 N45 0.862 . S
O66 Co34 1.920 . S
O66 C39 1.289 . S
C67 O59 1.258 . S
C67 O60 1.266 . S
Co68 O71 1.970 . S
Co68 N85 1.989 . S
Co68 O93 1.967 . S
Co68 O100 1.920 . S
Co69 O72 1.966 . S
Co69 N78 2.022 . S
Co69 N86 1.993 . S
Co69 O94 1.941 . S
C70 O71 1.258 . S
C70 O72 1.263 . S
O71 Co68 1.970 . S
O71 C70 1.258 . S
O72 Co69 1.966 . S
O72 C70 1.263 . S
C73 O74 1.235 . S
C73 O100 1.289 . S
O74 C73 1.235 . S
C75 C77 1.400 . S
C75 N78 1.351 . S
C75 C80 1.501 . S
C76 C77 1.387 . S
C76 N79 1.341 . S
C77 C75 1.400 . S
C77 C76 1.387 . S
N78 Co69 2.022 . S
N78 C75 1.351 . S
N78 N79 1.365 . S
N79 C76 1.341 . S
N79 N78 1.365 . S
N79 H99 0.862 . S
C80 C75 1.501 . S
C80 H81 0.961 . S
C80 H82 0.961 1_565 S
C80 H83 0.960 . S
H81 C80 0.961 . S
H82 C80 0.961 1_545 S
H83 C80 0.960 . S
C84 N85 1.342 . S
C84 C88 1.401 . S
C84 C89 1.499 . S
N85 Co68 1.989 . S
N85 C84 1.342 . S
N85 N86 1.388 . S
N86 Co69 1.993 . S
N86 N85 1.388 . S
N86 C87 1.346 . S
C87 N86 1.346 . S
C87 C88 1.396 . S
C87 C97 1.510 . S
C88 C84 1.401 . S
C88 C87 1.396 . S
C89 C84 1.499 . S
C89 H90 0.959 . S
C89 H91 0.960 . S
C89 H92 0.961 . S
H90 C89 0.959 . S
H91 C89 0.960 . S
H92 C89 0.961 . S
O93 Co68 1.967 . S
O93 C101 1.258 . S
O94 Co69 1.941 . S
O94 C101 1.266 . S
H95 C97 0.959 . S
H96 C97 0.961 . S
C97 C87 1.510 . S
C97 H95 0.959 . S
C97 H96 0.961 . S
C97 H98 0.960 . S
H98 C97 0.960 . S
H99 N79 0.862 . S
O100 Co68 1.920 . S
O100 C73 1.289 . S
C101 O93 1.258 . S
C101 O94 1.266 . S
Co102 O105 1.970 . S
Co102 N119 1.989 . S
Co102 O127 1.967 . S
Co102 O134 1.920 . S
Co103 O106 1.966 . S
Co103 N112 2.022 . S
Co103 N120 1.993 . S
Co103 O128 1.941 . S
C104 O105 1.258 . S
C104 O106 1.263 . S
O105 Co102 1.970 . S
O105 C104 1.258 . S
O106 Co103 1.966 . S
O106 C104 1.263 . S
C107 O108 1.235 . S
C107 O134 1.289 . S
O108 C107 1.235 . S
C109 C111 1.400 . S
C109 N112 1.351 . S
C109 C114 1.501 . S
C110 C111 1.387 . S
C110 N113 1.341 . S
C111 C109 1.400 . S
C111 C110 1.387 . S
N112 Co103 2.022 . S
N112 C109 1.351 . S
N112 N113 1.365 . S
N113 C110 1.341 . S
N113 N112 1.365 . S
N113 H133 0.862 . S
C114 C109 1.501 . S
C114 H115 0.961 . S
C114 H116 0.961 . S
C114 H117 0.960 . S
H115 C114 0.961 . S
H116 C114 0.961 . S
H117 C114 0.960 . S
C118 N119 1.342 . S
C118 C122 1.401 . S
C118 C123 1.499 . S
N119 Co102 1.989 . S
N119 C118 1.342 . S
N119 N120 1.388 . S
N120 Co103 1.993 . S
N120 N119 1.388 . S
N120 C121 1.346 . S
C121 N120 1.346 . S
C121 C122 1.396 . S
C121 C131 1.510 . S
C122 C118 1.401 . S
C122 C121 1.396 . S
C123 C118 1.499 . S
C123 H124 0.959 . S
C123 H125 0.960 . S
C123 H126 0.961 . S
H124 C123 0.959 . S
H125 C123 0.960 . S
H126 C123 0.961 . S
O127 Co102 1.967 . S
O127 C135 1.258 . S
O128 Co103 1.941 . S
O128 C135 1.266 . S
H129 C131 0.959 . S
H130 C131 0.961 . S
C131 C121 1.510 . S
C131 H129 0.959 . S
C131 H130 0.961 . S
C131 H132 0.960 . S
H132 C131 0.960 . S
H133 N113 0.862 . S
O134 Co102 1.920 . S
O134 C107 1.289 . S
C135 O127 1.258 . S
C135 O128 1.266 . S
Co136 O139 1.970 . S
Co136 N153 1.989 . S
Co136 O161 1.967 . S
Co136 O168 1.920 . S
Co137 O140 1.966 . S
Co137 N146 2.022 . S
Co137 N154 1.993 . S
Co137 O162 1.941 . S
C138 O139 1.258 . S
C138 O140 1.263 . S
O139 Co136 1.970 . S
O139 C138 1.258 . S
O140 Co137 1.966 . S
O140 C138 1.263 . S
C141 O142 1.235 . S
C141 O168 1.289 . S
O142 C141 1.235 . S
C143 C145 1.400 . S
C143 N146 1.351 . S
C143 C148 1.501 . S
C144 C145 1.387 . S
C144 N147 1.341 . S
C145 C143 1.400 . S
C145 C144 1.387 . S
N146 Co137 2.022 . S
N146 C143 1.351 . S
N146 N147 1.365 . S
N147 C144 1.341 . S
N147 N146 1.365 . S
N147 H167 0.862 . S
C148 C143 1.501 . S
C148 H149 0.961 . S
C148 H150 0.961 1_565 S
C148 H151 0.960 . S
H149 C148 0.961 . S
H150 C148 0.961 1_545 S
H151 C148 0.960 . S
C152 N153 1.342 . S
C152 C156 1.401 . S
C152 C157 1.499 . S
N153 Co136 1.989 . S
N153 C152 1.342 . S
N153 N154 1.388 . S
N154 Co137 1.993 . S
N154 N153 1.388 . S
N154 C155 1.346 . S
C155 N154 1.346 . S
C155 C156 1.396 . S
C155 C165 1.510 . S
C156 C152 1.401 . S
C156 C155 1.396 . S
C157 C152 1.499 . S
C157 H158 0.959 . S
C157 H159 0.960 . S
C157 H160 0.961 . S
H158 C157 0.959 . S
H159 C157 0.960 . S
H160 C157 0.961 . S
O161 Co136 1.967 . S
O161 C169 1.258 . S
O162 Co137 1.941 . S
O162 C169 1.266 . S
H163 C165 0.959 . S
H164 C165 0.961 . S
C165 C155 1.510 . S
C165 H163 0.959 . S
C165 H164 0.961 . S
C165 H166 0.960 . S
H166 C165 0.960 . S
H167 N147 0.862 . S
O168 Co136 1.920 . S
O168 C141 1.289 . S
C169 O161 1.258 . S
C169 O162 1.266 . S
Co170 O173 1.970 . S
Co170 N187 1.989 . S
Co170 O195 1.967 . S
Co170 O202 1.920 . S
Co171 O174 1.966 . S
Co171 N180 2.022 . S
Co171 N188 1.993 . S
Co171 O196 1.941 . S
C172 O173 1.258 . S
C172 O174 1.263 . S
O173 Co170 1.970 . S
O173 C172 1.258 . S
O174 Co171 1.966 . S
O174 C172 1.263 . S
C175 O176 1.235 . S
C175 O202 1.289 . S
O176 C175 1.235 . S
C177 C179 1.400 . S
C177 N180 1.351 . S
C177 C182 1.501 . S
C178 C179 1.387 . S
C178 N181 1.341 . S
C179 C177 1.400 . S
C179 C178 1.387 . S
N180 Co171 2.022 . S
N180 C177 1.351 . S
N180 N181 1.365 . S
N181 C178 1.341 . S
N181 N180 1.365 . S
N181 H201 0.862 . S
C182 C177 1.501 . S
C182 H183 0.961 . S
C182 H184 0.961 . S
C182 H185 0.960 . S
H183 C182 0.961 . S
H184 C182 0.961 . S
H185 C182 0.960 . S
C186 N187 1.342 . S
C186 C190 1.401 . S
C186 C191 1.499 . S
N187 Co170 1.989 . S
N187 C186 1.342 . S
N187 N188 1.388 . S
N188 Co171 1.993 . S
N188 N187 1.388 . S
N188 C189 1.346 . S
C189 N188 1.346 . S
C189 C190 1.396 . S
C189 C199 1.510 . S
C190 C186 1.401 . S
C190 C189 1.396 . S
C191 C186 1.499 . S
C191 H192 0.959 . S
C191 H193 0.960 . S
C191 H194 0.961 . S
H192 C191 0.959 . S
H193 C191 0.960 . S
H194 C191 0.961 . S
O195 Co170 1.967 . S
O195 C203 1.258 . S
O196 Co171 1.941 . S
O196 C203 1.266 . S
H197 C199 0.959 . S
H198 C199 0.961 . S
C199 C189 1.510 . S
C199 H197 0.959 . S
C199 H198 0.961 . S
C199 H200 0.960 . S
H200 C199 0.960 . S
H201 N181 0.862 . S
O202 Co170 1.920 . S
O202 C175 1.289 . S
C203 O195 1.258 . S
C203 O196 1.266 . S
Co204 O207 1.970 . S
Co204 N221 1.989 . S
Co204 O229 1.967 . S
Co204 O236 1.920 . S
Co205 O208 1.966 . S
Co205 N214 2.022 . S
Co205 N222 1.993 . S
Co205 O230 1.941 . S
C206 O207 1.258 . S
C206 O208 1.263 . S
O207 Co204 1.970 . S
O207 C206 1.258 . S
O208 Co205 1.966 . S
O208 C206 1.263 . S
C209 O210 1.235 . S
C209 O236 1.289 . S
O210 C209 1.235 . S
C211 C213 1.400 . S
C211 N214 1.351 . S
C211 C216 1.501 . S
C212 C213 1.387 . S
C212 N215 1.341 . S
C213 C211 1.400 . S
C213 C212 1.387 . S
N214 Co205 2.022 . S
N214 C211 1.351 . S
N214 N215 1.365 . S
N215 C212 1.341 . S
N215 N214 1.365 . S
N215 H235 0.862 . S
C216 C211 1.501 . S
C216 H217 0.961 . S
C216 H218 0.961 1_545 S
C216 H219 0.960 . S
H217 C216 0.961 . S
H218 C216 0.961 1_565 S
H219 C216 0.960 . S
C220 N221 1.342 . S
C220 C224 1.401 . S
C220 C225 1.499 . S
N221 Co204 1.989 . S
N221 C220 1.342 . S
N221 N222 1.388 . S
N222 Co205 1.993 . S
N222 N221 1.388 . S
N222 C223 1.346 . S
C223 N222 1.346 . S
C223 C224 1.396 . S
C223 C233 1.510 . S
C224 C220 1.401 . S
C224 C223 1.396 . S
C225 C220 1.499 . S
C225 H226 0.959 . S
C225 H227 0.960 . S
C225 H228 0.961 . S
H226 C225 0.959 . S
H227 C225 0.960 . S
H228 C225 0.961 . S
O229 Co204 1.967 . S
O229 C237 1.258 . S
O230 Co205 1.941 . S
O230 C237 1.266 . S
H231 C233 0.959 . S
H232 C233 0.961 . S
C233 C223 1.510 . S
C233 H231 0.959 . S
C233 H232 0.961 . S
C233 H234 0.960 . S
H234 C233 0.960 . S
H235 N215 0.862 . S
O236 Co204 1.920 . S
O236 C209 1.289 . S
C237 O229 1.258 . S
C237 O230 1.266 . S
Co238 O241 1.970 . S
Co238 N255 1.989 . S
Co238 O263 1.967 . S
Co238 O270 1.920 . S
Co239 O242 1.966 . S
Co239 N248 2.022 . S
Co239 N256 1.993 . S
Co239 O264 1.941 . S
C240 O241 1.258 . S
C240 O242 1.263 . S
O241 Co238 1.970 . S
O241 C240 1.258 . S
O242 Co239 1.966 . S
O242 C240 1.263 . S
C243 O244 1.235 . S
C243 O270 1.289 . S
O244 C243 1.235 . S
C245 C247 1.400 . S
C245 N248 1.351 . S
C245 C250 1.501 . S
C246 C247 1.387 . S
C246 N249 1.341 . S
C247 C245 1.400 . S
C247 C246 1.387 . S
N248 Co239 2.022 . S
N248 C245 1.351 . S
N248 N249 1.365 . S
N249 C246 1.341 . S
N249 N248 1.365 . S
N249 H269 0.862 . S
C250 C245 1.501 . S
C250 H251 0.961 . S
C250 H252 0.961 . S
C250 H253 0.960 . S
H251 C250 0.961 . S
H252 C250 0.961 . S
H253 C250 0.960 . S
C254 N255 1.342 . S
C254 C258 1.401 . S
C254 C259 1.499 . S
N255 Co238 1.989 . S
N255 C254 1.342 . S
N255 N256 1.388 . S
N256 Co239 1.993 . S
N256 N255 1.388 . S
N256 C257 1.346 . S
C257 N256 1.346 . S
C257 C258 1.396 . S
C257 C267 1.510 . S
C258 C254 1.401 . S
C258 C257 1.396 . S
C259 C254 1.499 . S
C259 H260 0.959 . S
C259 H261 0.960 . S
C259 H262 0.961 . S
H260 C259 0.959 . S
H261 C259 0.960 . S
H262 C259 0.961 . S
O263 Co238 1.967 . S
O263 C271 1.258 . S
O264 Co239 1.941 . S
O264 C271 1.266 . S
H265 C267 0.959 . S
H266 C267 0.961 . S
C267 C257 1.510 . S
C267 H265 0.959 . S
C267 H266 0.961 . S
C267 H268 0.960 . S
H268 C267 0.960 . S
H269 N249 0.862 . S
O270 Co238 1.920 . S
O270 C243 1.289 . S
C271 O263 1.258 . S
C271 O264 1.266 . S
Co272 O275 1.970 . S
Co272 N289 1.989 . S
Co272 O297 1.967 . S
Co272 O304 1.920 . S
Co273 O276 1.966 . S
Co273 N282 2.022 . S
Co273 N290 1.993 . S
Co273 O298 1.941 . S
C274 O275 1.258 . S
C274 O276 1.263 . S
O275 Co272 1.970 . S
O275 C274 1.258 . S
O276 Co273 1.966 . S
O276 C274 1.263 . S
C277 O278 1.235 . S
C277 O304 1.289 . S
O278 C277 1.235 . S
C279 C281 1.400 . S
C279 N282 1.351 . S
C279 C284 1.501 . S
C280 C281 1.387 . S
C280 N283 1.341 . S
C281 C279 1.400 . S
C281 C280 1.387 . S
N282 Co273 2.022 . S
N282 C279 1.351 . S
N282 N283 1.365 . S
N283 C280 1.341 . S
N283 N282 1.365 . S
N283 H303 0.862 . S
C284 C279 1.501 . S
C284 H285 0.961 . S
C284 H286 0.961 1_565 S
C284 H287 0.960 . S
H285 C284 0.961 . S
H286 C284 0.961 1_545 S
H287 C284 0.960 . S
C288 N289 1.342 . S
C288 C292 1.401 . S
C288 C293 1.499 . S
N289 Co272 1.989 . S
N289 C288 1.342 . S
N289 N290 1.388 . S
N290 Co273 1.993 . S
N290 N289 1.388 . S
N290 C291 1.346 . S
C291 N290 1.346 . S
C291 C292 1.396 . S
C291 C301 1.510 . S
C292 C288 1.401 . S
C292 C291 1.396 . S
C293 C288 1.499 . S
C293 H294 0.959 . S
C293 H295 0.960 . S
C293 H296 0.961 . S
H294 C293 0.959 . S
H295 C293 0.960 . S
H296 C293 0.961 . S
O297 Co272 1.967 . S
O297 C305 1.258 . S
O298 Co273 1.941 . S
O298 C305 1.266 . S
H299 C301 0.959 . S
H300 C301 0.961 . S
C301 C291 1.510 . S
C301 H299 0.959 . S
C301 H300 0.961 . S
C301 H302 0.960 . S
H302 C301 0.960 . S
H303 N283 0.862 . S
O304 Co272 1.920 . S
O304 C277 1.289 . S
C305 O297 1.258 . S
C305 O298 1.266 . S
Co306 O309 1.970 . S
Co306 N323 1.989 . S
Co306 O331 1.967 . S
Co306 O338 1.920 . S
Co307 O310 1.966 . S
Co307 N316 2.022 . S
Co307 N324 1.993 . S
Co307 O332 1.941 . S
C308 O309 1.258 . S
C308 O310 1.263 . S
O309 Co306 1.970 . S
O309 C308 1.258 . S
O310 Co307 1.966 . S
O310 C308 1.263 . S
C311 O312 1.235 . S
C311 O338 1.289 . S
O312 C311 1.235 . S
C313 C315 1.400 . S
C313 N316 1.351 . S
C313 C318 1.501 . S
C314 C315 1.387 . S
C314 N317 1.341 . S
C315 C313 1.400 . S
C315 C314 1.387 . S
N316 Co307 2.022 . S
N316 C313 1.351 . S
N316 N317 1.365 . S
N317 C314 1.341 . S
N317 N316 1.365 . S
N317 H337 0.862 . S
C318 C313 1.501 . S
C318 H319 0.961 . S
C318 H320 0.961 . S
C318 H321 0.960 . S
H319 C318 0.961 . S
H320 C318 0.961 . S
H321 C318 0.960 . S
C322 N323 1.342 . S
C322 C326 1.401 . S
C322 C327 1.499 . S
N323 Co306 1.989 . S
N323 C322 1.342 . S
N323 N324 1.388 . S
N324 Co307 1.993 . S
N324 N323 1.388 . S
N324 C325 1.346 . S
C325 N324 1.346 . S
C325 C326 1.396 . S
C325 C335 1.510 . S
C326 C322 1.401 . S
C326 C325 1.396 . S
C327 C322 1.499 . S
C327 H328 0.959 . S
C327 H329 0.960 . S
C327 H330 0.961 . S
H328 C327 0.959 . S
H329 C327 0.960 . S
H330 C327 0.961 . S
O331 Co306 1.967 . S
O331 C339 1.258 . S
O332 Co307 1.941 . S
O332 C339 1.266 . S
H333 C335 0.959 . S
H334 C335 0.961 . S
C335 C325 1.510 . S
C335 H333 0.959 . S
C335 H334 0.961 . S
C335 H336 0.960 . S
H336 C335 0.960 . S
H337 N317 0.862 . S
O338 Co306 1.920 . S
O338 C311 1.289 . S
C339 O331 1.258 . S
C339 O332 1.266 . S
Co340 O343 1.970 . S
Co340 N357 1.989 . S
Co340 O365 1.967 . S
Co340 O372 1.920 . S
Co341 O344 1.966 . S
Co341 N350 2.022 . S
Co341 N358 1.993 . S
Co341 O366 1.941 . S
C342 O343 1.258 . S
C342 O344 1.263 . S
O343 Co340 1.970 . S
O343 C342 1.258 . S
O344 Co341 1.966 . S
O344 C342 1.263 . S
C345 O346 1.235 . S
C345 O372 1.289 . S
O346 C345 1.235 . S
C347 C349 1.400 . S
C347 N350 1.351 . S
C347 C352 1.501 . S
C348 C349 1.387 . S
C348 N351 1.341 . S
C349 C347 1.400 . S
C349 C348 1.387 . S
N350 Co341 2.022 . S
N350 C347 1.351 . S
N350 N351 1.365 . S
N351 C348 1.341 . S
N351 N350 1.365 . S
N351 H371 0.862 . S
C352 C347 1.501 . S
C352 H353 0.961 . S
C352 H354 0.961 1_545 S
C352 H355 0.960 . S
H353 C352 0.961 . S
H354 C352 0.961 1_565 S
H355 C352 0.960 . S
C356 N357 1.342 . S
C356 C360 1.401 . S
C356 C361 1.499 . S
N357 Co340 1.989 . S
N357 C356 1.342 . S
N357 N358 1.388 . S
N358 Co341 1.993 . S
N358 N357 1.388 . S
N358 C359 1.346 . S
C359 N358 1.346 . S
C359 C360 1.396 . S
C359 C369 1.510 . S
C360 C356 1.401 . S
C360 C359 1.396 . S
C361 C356 1.499 . S
C361 H362 0.959 . S
C361 H363 0.960 . S
C361 H364 0.961 . S
H362 C361 0.959 . S
H363 C361 0.960 . S
H364 C361 0.961 . S
O365 Co340 1.967 . S
O365 C373 1.258 . S
O366 Co341 1.941 . S
O366 C373 1.266 . S
H367 C369 0.959 . S
H368 C369 0.961 . S
C369 C359 1.510 . S
C369 H367 0.959 . S
C369 H368 0.961 . S
C369 H370 0.960 . S
H370 C369 0.960 . S
H371 N351 0.862 . S
O372 Co340 1.920 . S
O372 C345 1.289 . S
C373 O365 1.258 . S
C373 O366 1.266 . S
Co374 O377 1.970 . S
Co374 N391 1.989 . S
Co374 O399 1.967 . S
Co374 O406 1.920 . S
Co375 O378 1.966 . S
Co375 N384 2.022 . S
Co375 N392 1.993 . S
Co375 O400 1.941 . S
C376 O377 1.258 . S
C376 O378 1.263 . S
O377 Co374 1.970 . S
O377 C376 1.258 . S
O378 Co375 1.966 . S
O378 C376 1.263 . S
C379 O380 1.235 . S
C379 O406 1.289 . S
O380 C379 1.235 . S
C381 C383 1.400 . S
C381 N384 1.351 . S
C381 C386 1.501 . S
C382 C383 1.387 . S
C382 N385 1.341 . S
C383 C381 1.400 . S
C383 C382 1.387 . S
N384 Co375 2.022 . S
N384 C381 1.351 . S
N384 N385 1.365 . S
N385 C382 1.341 . S
N385 N384 1.365 . S
N385 H405 0.862 . S
C386 C381 1.501 . S
C386 H387 0.961 . S
C386 H388 0.961 . S
C386 H389 0.960 . S
H387 C386 0.961 . S
H388 C386 0.961 . S
H389 C386 0.960 . S
C390 N391 1.342 . S
C390 C394 1.401 . S
C390 C395 1.499 . S
N391 Co374 1.989 . S
N391 C390 1.342 . S
N391 N392 1.388 . S
N392 Co375 1.993 . S
N392 N391 1.388 . S
N392 C393 1.346 . S
C393 N392 1.346 . S
C393 C394 1.396 . S
C393 C403 1.510 . S
C394 C390 1.401 . S
C394 C393 1.396 . S
C395 C390 1.499 . S
C395 H396 0.959 . S
C395 H397 0.960 . S
C395 H398 0.961 . S
H396 C395 0.959 . S
H397 C395 0.960 . S
H398 C395 0.961 . S
O399 Co374 1.967 . S
O399 C407 1.258 . S
O400 Co375 1.941 . S
O400 C407 1.266 . S
H401 C403 0.959 . S
H402 C403 0.961 . S
C403 C393 1.510 . S
C403 H401 0.959 . S
C403 H402 0.961 . S
C403 H404 0.960 . S
H404 C403 0.960 . S
H405 N385 0.862 . S
O406 Co374 1.920 . S
O406 C379 1.289 . S
C407 O399 1.258 . S
C407 O400 1.266 . S
Co408 O411 1.970 . S
Co408 N425 1.989 . S
Co408 O433 1.967 . S
Co408 O440 1.920 . S
Co409 O412 1.966 . S
Co409 N418 2.022 . S
Co409 N426 1.993 . S
Co409 O434 1.941 . S
C410 O411 1.258 . S
C410 O412 1.263 . S
O411 Co408 1.970 . S
O411 C410 1.258 . S
O412 Co409 1.966 . S
O412 C410 1.263 . S
C413 O414 1.235 . S
C413 O440 1.289 . S
O414 C413 1.235 . S
C415 C417 1.400 . S
C415 N418 1.351 . S
C415 C420 1.501 . S
C416 C417 1.387 . S
C416 N419 1.341 . S
C417 C415 1.400 . S
C417 C416 1.387 . S
N418 Co409 2.022 . S
N418 C415 1.351 . S
N418 N419 1.365 . S
N419 C416 1.341 . S
N419 N418 1.365 . S
N419 H439 0.862 . S
C420 C415 1.501 . S
C420 H421 0.961 . S
C420 H422 0.961 1_545 S
C420 H423 0.960 . S
H421 C420 0.961 . S
H422 C420 0.961 1_565 S
H423 C420 0.960 . S
C424 N425 1.342 . S
C424 C428 1.401 . S
C424 C429 1.499 . S
N425 Co408 1.989 . S
N425 C424 1.342 . S
N425 N426 1.388 . S
N426 Co409 1.993 . S
N426 N425 1.388 . S
N426 C427 1.346 . S
C427 N426 1.346 . S
C427 C428 1.396 . S
C427 C437 1.510 . S
C428 C424 1.401 . S
C428 C427 1.396 . S
C429 C424 1.499 . S
C429 H430 0.959 . S
C429 H431 0.960 . S
C429 H432 0.961 . S
H430 C429 0.959 . S
H431 C429 0.960 . S
H432 C429 0.961 . S
O433 Co408 1.967 . S
O433 C441 1.258 . S
O434 Co409 1.941 . S
O434 C441 1.266 . S
H435 C437 0.959 . S
H436 C437 0.961 . S
C437 C427 1.510 . S
C437 H435 0.959 . S
C437 H436 0.961 . S
C437 H438 0.960 . S
H438 C437 0.960 . S
H439 N419 0.862 . S
O440 Co408 1.920 . S
O440 C413 1.289 . S
C441 O433 1.258 . S
C441 O434 1.266 . S
Co442 O445 1.970 . S
Co442 N459 1.989 . S
Co442 O467 1.967 . S
Co442 O474 1.920 . S
Co443 O446 1.966 . S
Co443 N452 2.022 . S
Co443 N460 1.993 . S
Co443 O468 1.941 . S
C444 O445 1.258 . S
C444 O446 1.263 . S
O445 Co442 1.970 . S
O445 C444 1.258 . S
O446 Co443 1.966 . S
O446 C444 1.263 . S
C447 O448 1.235 . S
C447 O474 1.289 . S
O448 C447 1.235 . S
C449 C451 1.400 . S
C449 N452 1.351 . S
C449 C454 1.501 . S
C450 C451 1.387 . S
C450 N453 1.341 . S
C451 C449 1.400 . S
C451 C450 1.387 . S
N452 Co443 2.022 . S
N452 C449 1.351 . S
N452 N453 1.365 . S
N453 C450 1.341 . S
N453 N452 1.365 . S
N453 H473 0.862 . S
C454 C449 1.501 . S
C454 H455 0.961 . S
C454 H456 0.961 . S
C454 H457 0.960 . S
H455 C454 0.961 . S
H456 C454 0.961 . S
H457 C454 0.960 . S
C458 N459 1.342 . S
C458 C462 1.401 . S
C458 C463 1.499 . S
N459 Co442 1.989 . S
N459 C458 1.342 . S
N459 N460 1.388 . S
N460 Co443 1.993 . S
N460 N459 1.388 . S
N460 C461 1.346 . S
C461 N460 1.346 . S
C461 C462 1.396 . S
C461 C471 1.510 . S
C462 C458 1.401 . S
C462 C461 1.396 . S
C463 C458 1.499 . S
C463 H464 0.959 . S
C463 H465 0.960 . S
C463 H466 0.961 . S
H464 C463 0.959 . S
H465 C463 0.960 . S
H466 C463 0.961 . S
O467 Co442 1.967 . S
O467 C475 1.258 . S
O468 Co443 1.941 . S
O468 C475 1.266 . S
H469 C471 0.959 . S
H470 C471 0.961 . S
C471 C461 1.510 . S
C471 H469 0.959 . S
C471 H470 0.961 . S
C471 H472 0.960 . S
H472 C471 0.960 . S
H473 N453 0.862 . S
O474 Co442 1.920 . S
O474 C447 1.289 . S
C475 O467 1.258 . S
C475 O468 1.266 . S
Co476 O479 1.970 . S
Co476 N493 1.989 . S
Co476 O501 1.967 . S
Co476 O508 1.920 . S
Co477 O480 1.966 . S
Co477 N486 2.022 . S
Co477 N494 1.993 . S
Co477 O502 1.941 . S
C478 O479 1.258 . S
C478 O480 1.263 . S
O479 Co476 1.970 . S
O479 C478 1.258 . S
O480 Co477 1.966 . S
O480 C478 1.263 . S
C481 O482 1.235 . S
C481 O508 1.289 . S
O482 C481 1.235 . S
C483 C485 1.400 . S
C483 N486 1.351 . S
C483 C488 1.501 . S
C484 C485 1.387 . S
C484 N487 1.341 . S
C485 C483 1.400 . S
C485 C484 1.387 . S
N486 Co477 2.022 . S
N486 C483 1.351 . S
N486 N487 1.365 . S
N487 C484 1.341 . S
N487 N486 1.365 . S
N487 H507 0.862 . S
C488 C483 1.501 . S
C488 H489 0.961 . S
C488 H490 0.961 1_565 S
C488 H491 0.960 . S
H489 C488 0.961 . S
H490 C488 0.961 1_545 S
H491 C488 0.960 . S
C492 N493 1.342 . S
C492 C496 1.401 . S
C492 C497 1.499 . S
N493 Co476 1.989 . S
N493 C492 1.342 . S
N493 N494 1.388 . S
N494 Co477 1.993 . S
N494 N493 1.388 . S
N494 C495 1.346 . S
C495 N494 1.346 . S
C495 C496 1.396 . S
C495 C505 1.510 . S
C496 C492 1.401 . S
C496 C495 1.396 . S
C497 C492 1.499 . S
C497 H498 0.959 . S
C497 H499 0.960 . S
C497 H500 0.961 . S
H498 C497 0.959 . S
H499 C497 0.960 . S
H500 C497 0.961 . S
O501 Co476 1.967 . S
O501 C509 1.258 . S
O502 Co477 1.941 . S
O502 C509 1.266 . S
H503 C505 0.959 . S
H504 C505 0.961 . S
C505 C495 1.510 . S
C505 H503 0.959 . S
C505 H504 0.961 . S
C505 H506 0.960 . S
H506 C505 0.960 . S
H507 N487 0.862 . S
O508 Co476 1.920 . S
O508 C481 1.289 . S
C509 O501 1.258 . S
C509 O502 1.266 . S
Co510 O513 1.970 . S
Co510 N527 1.989 . S
Co510 O535 1.967 . S
Co510 O542 1.920 . S
Co511 O514 1.966 . S
Co511 N520 2.022 . S
Co511 N528 1.993 . S
Co511 O536 1.941 . S
C512 O513 1.258 . S
C512 O514 1.263 . S
O513 Co510 1.970 . S
O513 C512 1.258 . S
O514 Co511 1.966 . S
O514 C512 1.263 . S
C515 O516 1.235 . S
C515 O542 1.289 . S
O516 C515 1.235 . S
C517 C519 1.400 . S
C517 N520 1.351 . S
C517 C522 1.501 . S
C518 C519 1.387 . S
C518 N521 1.341 . S
C519 C517 1.400 . S
C519 C518 1.387 . S
N520 Co511 2.022 . S
N520 C517 1.351 . S
N520 N521 1.365 . S
N521 C518 1.341 . S
N521 N520 1.365 . S
N521 H541 0.862 . S
C522 C517 1.501 . S
C522 H523 0.961 . S
C522 H524 0.961 . S
C522 H525 0.960 . S
H523 C522 0.961 . S
H524 C522 0.961 . S
H525 C522 0.960 . S
C526 N527 1.342 . S
C526 C530 1.401 . S
C526 C531 1.499 . S
N527 Co510 1.989 . S
N527 C526 1.342 . S
N527 N528 1.388 . S
N528 Co511 1.993 . S
N528 N527 1.388 . S
N528 C529 1.346 . S
C529 N528 1.346 . S
C529 C530 1.396 . S
C529 C539 1.510 . S
C530 C526 1.401 . S
C530 C529 1.396 . S
C531 C526 1.499 . S
C531 H532 0.959 . S
C531 H533 0.960 . S
C531 H534 0.961 . S
H532 C531 0.959 . S
H533 C531 0.960 . S
H534 C531 0.961 . S
O535 Co510 1.967 . S
O535 C543 1.258 . S
O536 Co511 1.941 . S
O536 C543 1.266 . S
H537 C539 0.959 . S
H538 C539 0.961 . S
C539 C529 1.510 . S
C539 H537 0.959 . S
C539 H538 0.961 . S
C539 H540 0.960 . S
H540 C539 0.960 . S
H541 N521 0.862 . S
O542 Co510 1.920 . S
O542 C515 1.289 . S
C543 O535 1.258 . S
C543 O536 1.266 . S
Co544 O547 1.970 . S
Co544 N561 1.989 . S
Co544 O569 1.967 . S
Co544 O576 1.920 . S
Co545 O548 1.966 . S
Co545 N554 2.022 . S
Co545 N562 1.993 . S
Co545 O570 1.941 . S
C546 O547 1.258 . S
C546 O548 1.263 . S
O547 Co544 1.970 . S
O547 C546 1.258 . S
O548 Co545 1.966 . S
O548 C546 1.263 . S
C549 O550 1.235 . S
C549 O576 1.289 . S
O550 C549 1.235 . S
C551 C553 1.400 . S
C551 N554 1.351 . S
C551 C556 1.501 . S
C552 C553 1.387 . S
C552 N555 1.341 . S
C553 C551 1.400 . S
C553 C552 1.387 . S
N554 Co545 2.022 . S
N554 C551 1.351 . S
N554 N555 1.365 . S
N555 C552 1.341 . S
N555 N554 1.365 . S
N555 H575 0.862 . S
C556 C551 1.501 . S
C556 H557 0.961 . S
C556 H558 0.961 . S
C556 H559 0.960 . S
H557 C556 0.961 . S
H558 C556 0.961 . S
H559 C556 0.960 . S
C560 N561 1.342 . S
C560 C564 1.401 . S
C560 C565 1.499 . S
N561 Co544 1.989 . S
N561 C560 1.342 . S
N561 N562 1.388 . S
N562 Co545 1.993 . S
N562 N561 1.388 . S
N562 C563 1.346 . S
C563 N562 1.346 . S
C563 C564 1.396 . S
C563 C573 1.510 . S
C564 C560 1.401 . S
C564 C563 1.396 . S
C565 C560 1.499 . S
C565 H566 0.959 . S
C565 H567 0.960 . S
C565 H568 0.961 . S
H566 C565 0.959 . S
H567 C565 0.960 . S
H568 C565 0.961 . S
O569 Co544 1.967 . S
O569 C577 1.258 . S
O570 Co545 1.941 . S
O570 C577 1.266 . S
H571 C573 0.959 . S
H572 C573 0.961 . S
C573 C563 1.510 . S
C573 H571 0.959 . S
C573 H572 0.961 . S
C573 H574 0.960 . S
H574 C573 0.960 . S
H575 N555 0.862 . S
O576 Co544 1.920 . S
O576 C549 1.289 . S
C577 O569 1.258 . S
C577 O570 1.266 . S
Co578 O581 1.970 . S
Co578 N595 1.989 . S
Co578 O603 1.967 . S
Co578 O610 1.920 . S
Co579 O582 1.966 . S
Co579 N588 2.022 . S
Co579 N596 1.993 . S
Co579 O604 1.941 . S
C580 O581 1.258 . S
C580 O582 1.263 . S
O581 Co578 1.970 . S
O581 C580 1.258 . S
O582 Co579 1.966 . S
O582 C580 1.263 . S
C583 O584 1.235 . S
C583 O610 1.289 . S
O584 C583 1.235 . S
C585 C587 1.400 . S
C585 N588 1.351 . S
C585 C590 1.501 . S
C586 C587 1.387 . S
C586 N589 1.341 . S
C587 C585 1.400 . S
C587 C586 1.387 . S
N588 Co579 2.022 . S
N588 C585 1.351 . S
N588 N589 1.365 . S
N589 C586 1.341 . S
N589 N588 1.365 . S
N589 H609 0.862 . S
C590 C585 1.501 . S
C590 H591 0.961 . S
C590 H592 0.961 . S
C590 H593 0.960 . S
H591 C590 0.961 . S
H592 C590 0.961 . S
H593 C590 0.960 . S
C594 N595 1.342 . S
C594 C598 1.401 . S
C594 C599 1.499 . S
N595 Co578 1.989 . S
N595 C594 1.342 . S
N595 N596 1.388 . S
N596 Co579 1.993 . S
N596 N595 1.388 . S
N596 C597 1.346 . S
C597 N596 1.346 . S
C597 C598 1.396 . S
C597 C607 1.510 . S
C598 C594 1.401 . S
C598 C597 1.396 . S
C599 C594 1.499 . S
C599 H600 0.959 . S
C599 H601 0.960 . S
C599 H602 0.961 . S
H600 C599 0.959 . S
H601 C599 0.960 . S
H602 C599 0.961 . S
O603 Co578 1.967 . S
O603 C611 1.258 . S
O604 Co579 1.941 . S
O604 C611 1.266 . S
H605 C607 0.959 . S
H606 C607 0.961 . S
C607 C597 1.510 . S
C607 H605 0.959 . S
C607 H606 0.961 . S
C607 H608 0.960 . S
H608 C607 0.960 . S
H609 N589 0.862 . S
O610 Co578 1.920 . S
O610 C583 1.289 . S
C611 O603 1.258 . S
C611 O604 1.266 . S
Co612 O615 1.970 . S
Co612 N629 1.989 . S
Co612 O637 1.967 . S
Co612 O644 1.920 . S
Co613 O616 1.966 . S
Co613 N622 2.022 . S
Co613 N630 1.993 . S
Co613 O638 1.941 . S
C614 O615 1.258 . S
C614 O616 1.263 . S
O615 Co612 1.970 . S
O615 C614 1.258 . S
O616 Co613 1.966 . S
O616 C614 1.263 . S
C617 O618 1.235 . S
C617 O644 1.289 . S
O618 C617 1.235 . S
C619 C621 1.400 . S
C619 N622 1.351 . S
C619 C624 1.501 . S
C620 C621 1.387 . S
C620 N623 1.341 . S
C621 C619 1.400 . S
C621 C620 1.387 . S
N622 Co613 2.022 . S
N622 C619 1.351 . S
N622 N623 1.365 . S
N623 C620 1.341 . S
N623 N622 1.365 . S
N623 H643 0.862 . S
C624 C619 1.501 . S
C624 H625 0.961 . S
C624 H626 0.961 . S
C624 H627 0.960 . S
H625 C624 0.961 . S
H626 C624 0.961 . S
H627 C624 0.960 . S
C628 N629 1.342 . S
C628 C632 1.401 . S
C628 C633 1.499 . S
N629 Co612 1.989 . S
N629 C628 1.342 . S
N629 N630 1.388 . S
N630 Co613 1.993 . S
N630 N629 1.388 . S
N630 C631 1.346 . S
C631 N630 1.346 . S
C631 C632 1.396 . S
C631 C641 1.510 . S
C632 C628 1.401 . S
C632 C631 1.396 . S
C633 C628 1.499 . S
C633 H634 0.959 . S
C633 H635 0.960 . S
C633 H636 0.961 . S
H634 C633 0.959 . S
H635 C633 0.960 . S
H636 C633 0.961 . S
O637 Co612 1.967 . S
O637 C645 1.258 . S
O638 Co613 1.941 . S
O638 C645 1.266 . S
H639 C641 0.959 . S
H640 C641 0.961 . S
C641 C631 1.510 . S
C641 H639 0.959 . S
C641 H640 0.961 . S
C641 H642 0.960 . S
H642 C641 0.960 . S
H643 N623 0.862 . S
O644 Co612 1.920 . S
O644 C617 1.289 . S
C645 O637 1.258 . S
C645 O638 1.266 . S
Co646 O649 1.970 . S
Co646 N663 1.989 . S
Co646 O671 1.967 . S
Co646 O678 1.920 . S
Co647 O650 1.966 . S
Co647 N656 2.022 . S
Co647 N664 1.993 . S
Co647 O672 1.941 . S
C648 O649 1.258 . S
C648 O650 1.263 . S
O649 Co646 1.970 . S
O649 C648 1.258 . S
O650 Co647 1.966 . S
O650 C648 1.263 . S
C651 O652 1.235 . S
C651 O678 1.289 . S
O652 C651 1.235 . S
C653 C655 1.400 . S
C653 N656 1.351 . S
C653 C658 1.501 . S
C654 C655 1.387 . S
C654 N657 1.341 . S
C655 C653 1.400 . S
C655 C654 1.387 . S
N656 Co647 2.022 . S
N656 C653 1.351 . S
N656 N657 1.365 . S
N657 C654 1.341 . S
N657 N656 1.365 . S
N657 H677 0.862 . S
C658 C653 1.501 . S
C658 H659 0.961 . S
C658 H660 0.961 . S
C658 H661 0.960 . S
H659 C658 0.961 . S
H660 C658 0.961 . S
H661 C658 0.960 . S
C662 N663 1.342 . S
C662 C666 1.401 . S
C662 C667 1.499 . S
N663 Co646 1.989 . S
N663 C662 1.342 . S
N663 N664 1.388 . S
N664 Co647 1.993 . S
N664 N663 1.388 . S
N664 C665 1.346 . S
C665 N664 1.346 . S
C665 C666 1.396 . S
C665 C675 1.510 . S
C666 C662 1.401 . S
C666 C665 1.396 . S
C667 C662 1.499 . S
C667 H668 0.959 . S
C667 H669 0.960 . S
C667 H670 0.961 . S
H668 C667 0.959 . S
H669 C667 0.960 . S
H670 C667 0.961 . S
O671 Co646 1.967 . S
O671 C679 1.258 . S
O672 Co647 1.941 . S
O672 C679 1.266 . S
H673 C675 0.959 . S
H674 C675 0.961 . S
C675 C665 1.510 . S
C675 H673 0.959 . S
C675 H674 0.961 . S
C675 H676 0.960 . S
H676 C675 0.960 . S
H677 N657 0.862 . S
O678 Co646 1.920 . S
O678 C651 1.289 . S
C679 O671 1.258 . S
C679 O672 1.266 . S
Co680 O683 1.970 . S
Co680 N697 1.989 . S
Co680 O705 1.967 . S
Co680 O712 1.920 . S
Co681 O684 1.966 . S
Co681 N690 2.022 . S
Co681 N698 1.993 . S
Co681 O706 1.941 . S
C682 O683 1.258 . S
C682 O684 1.263 . S
O683 Co680 1.970 . S
O683 C682 1.258 . S
O684 Co681 1.966 . S
O684 C682 1.263 . S
C685 O686 1.235 . S
C685 O712 1.289 . S
O686 C685 1.235 . S
C687 C689 1.400 . S
C687 N690 1.351 . S
C687 C692 1.501 . S
C688 C689 1.387 . S
C688 N691 1.341 . S
C689 C687 1.400 . S
C689 C688 1.387 . S
N690 Co681 2.022 . S
N690 C687 1.351 . S
N690 N691 1.365 . S
N691 C688 1.341 . S
N691 N690 1.365 . S
N691 H711 0.862 . S
C692 C687 1.501 . S
C692 H693 0.961 . S
C692 H694 0.961 . S
C692 H695 0.960 . S
H693 C692 0.961 . S
H694 C692 0.961 . S
H695 C692 0.960 . S
C696 N697 1.342 . S
C696 C700 1.401 . S
C696 C701 1.499 . S
N697 Co680 1.989 . S
N697 C696 1.342 . S
N697 N698 1.388 . S
N698 Co681 1.993 . S
N698 N697 1.388 . S
N698 C699 1.346 . S
C699 N698 1.346 . S
C699 C700 1.396 . S
C699 C709 1.510 . S
C700 C696 1.401 . S
C700 C699 1.396 . S
C701 C696 1.499 . S
C701 H702 0.959 . S
C701 H703 0.960 . S
C701 H704 0.961 . S
H702 C701 0.959 . S
H703 C701 0.960 . S
H704 C701 0.961 . S
O705 Co680 1.967 . S
O705 C713 1.258 . S
O706 Co681 1.941 . S
O706 C713 1.266 . S
H707 C709 0.959 . S
H708 C709 0.961 . S
C709 C699 1.510 . S
C709 H707 0.959 . S
C709 H708 0.961 . S
C709 H710 0.960 . S
H710 C709 0.960 . S
H711 N691 0.862 . S
O712 Co680 1.920 . S
O712 C685 1.289 . S
C713 O705 1.258 . S
C713 O706 1.266 . S
Co714 O717 1.970 . S
Co714 N731 1.989 . S
Co714 O739 1.967 . S
Co714 O746 1.920 . S
Co715 O718 1.966 . S
Co715 N724 2.022 . S
Co715 N732 1.993 . S
Co715 O740 1.941 . S
C716 O717 1.258 . S
C716 O718 1.263 . S
O717 Co714 1.970 . S
O717 C716 1.258 . S
O718 Co715 1.966 . S
O718 C716 1.263 . S
C719 O720 1.235 . S
C719 O746 1.289 . S
O720 C719 1.235 . S
C721 C723 1.400 . S
C721 N724 1.351 . S
C721 C726 1.501 . S
C722 C723 1.387 . S
C722 N725 1.341 . S
C723 C721 1.400 . S
C723 C722 1.387 . S
N724 Co715 2.022 . S
N724 C721 1.351 . S
N724 N725 1.365 . S
N725 C722 1.341 . S
N725 N724 1.365 . S
N725 H745 0.862 . S
C726 C721 1.501 . S
C726 H727 0.961 . S
C726 H728 0.961 . S
C726 H729 0.960 . S
H727 C726 0.961 . S
H728 C726 0.961 . S
H729 C726 0.960 . S
C730 N731 1.342 . S
C730 C734 1.401 . S
C730 C735 1.499 . S
N731 Co714 1.989 . S
N731 C730 1.342 . S
N731 N732 1.388 . S
N732 Co715 1.993 . S
N732 N731 1.388 . S
N732 C733 1.346 . S
C733 N732 1.346 . S
C733 C734 1.396 . S
C733 C743 1.510 . S
C734 C730 1.401 . S
C734 C733 1.396 . S
C735 C730 1.499 . S
C735 H736 0.959 . S
C735 H737 0.960 . S
C735 H738 0.961 . S
H736 C735 0.959 . S
H737 C735 0.960 . S
H738 C735 0.961 . S
O739 Co714 1.967 . S
O739 C747 1.258 . S
O740 Co715 1.941 . S
O740 C747 1.266 . S
H741 C743 0.959 . S
H742 C743 0.961 . S
C743 C733 1.510 . S
C743 H741 0.959 . S
C743 H742 0.961 . S
C743 H744 0.960 . S
H744 C743 0.960 . S
H745 N725 0.862 . S
O746 Co714 1.920 . S
O746 C719 1.289 . S
C747 O739 1.258 . S
C747 O740 1.266 . S
Co748 O751 1.970 . S
Co748 N765 1.989 . S
Co748 O773 1.967 . S
Co748 O780 1.920 . S
Co749 O752 1.966 . S
Co749 N758 2.022 . S
Co749 N766 1.993 . S
Co749 O774 1.941 . S
C750 O751 1.258 . S
C750 O752 1.263 . S
O751 Co748 1.970 . S
O751 C750 1.258 . S
O752 Co749 1.966 . S
O752 C750 1.263 . S
C753 O754 1.235 . S
C753 O780 1.289 . S
O754 C753 1.235 . S
C755 C757 1.400 . S
C755 N758 1.351 . S
C755 C760 1.501 . S
C756 C757 1.387 . S
C756 N759 1.341 . S
C757 C755 1.400 . S
C757 C756 1.387 . S
N758 Co749 2.022 . S
N758 C755 1.351 . S
N758 N759 1.365 . S
N759 C756 1.341 . S
N759 N758 1.365 . S
N759 H779 0.862 . S
C760 C755 1.501 . S
C760 H761 0.961 . S
C760 H762 0.961 . S
C760 H763 0.960 . S
H761 C760 0.961 . S
H762 C760 0.961 . S
H763 C760 0.960 . S
C764 N765 1.342 . S
C764 C768 1.401 . S
C764 C769 1.499 . S
N765 Co748 1.989 . S
N765 C764 1.342 . S
N765 N766 1.388 . S
N766 Co749 1.993 . S
N766 N765 1.388 . S
N766 C767 1.346 . S
C767 N766 1.346 . S
C767 C768 1.396 . S
C767 C777 1.510 . S
C768 C764 1.401 . S
C768 C767 1.396 . S
C769 C764 1.499 . S
C769 H770 0.959 . S
C769 H771 0.960 . S
C769 H772 0.961 . S
H770 C769 0.959 . S
H771 C769 0.960 . S
H772 C769 0.961 . S
O773 Co748 1.967 . S
O773 C781 1.258 . S
O774 Co749 1.941 . S
O774 C781 1.266 . S
H775 C777 0.959 . S
H776 C777 0.961 . S
C777 C767 1.510 . S
C777 H775 0.959 . S
C777 H776 0.961 . S
C777 H778 0.960 . S
H778 C777 0.960 . S
H779 N759 0.862 . S
O780 Co748 1.920 . S
O780 C753 1.289 . S
C781 O773 1.258 . S
C781 O774 1.266 . S
Co782 O785 1.970 . S
Co782 N799 1.989 . S
Co782 O807 1.967 . S
Co782 O814 1.920 . S
Co783 O786 1.966 . S
Co783 N792 2.022 . S
Co783 N800 1.993 . S
Co783 O808 1.941 . S
C784 O785 1.258 . S
C784 O786 1.263 . S
O785 Co782 1.970 . S
O785 C784 1.258 . S
O786 Co783 1.966 . S
O786 C784 1.263 . S
C787 O788 1.235 . S
C787 O814 1.289 . S
O788 C787 1.235 . S
C789 C791 1.400 . S
C789 N792 1.351 . S
C789 C794 1.501 . S
C790 C791 1.387 . S
C790 N793 1.341 . S
C791 C789 1.400 . S
C791 C790 1.387 . S
N792 Co783 2.022 . S
N792 C789 1.351 . S
N792 N793 1.365 . S
N793 C790 1.341 . S
N793 N792 1.365 . S
N793 H813 0.862 . S
C794 C789 1.501 . S
C794 H795 0.961 . S
C794 H796 0.961 . S
C794 H797 0.960 . S
H795 C794 0.961 . S
H796 C794 0.961 . S
H797 C794 0.960 . S
C798 N799 1.342 . S
C798 C802 1.401 . S
C798 C803 1.499 . S
N799 Co782 1.989 . S
N799 C798 1.342 . S
N799 N800 1.388 . S
N800 Co783 1.993 . S
N800 N799 1.388 . S
N800 C801 1.346 . S
C801 N800 1.346 . S
C801 C802 1.396 . S
C801 C811 1.510 . S
C802 C798 1.401 . S
C802 C801 1.396 . S
C803 C798 1.499 . S
C803 H804 0.959 . S
C803 H805 0.960 . S
C803 H806 0.961 . S
H804 C803 0.959 . S
H805 C803 0.960 . S
H806 C803 0.961 . S
O807 Co782 1.967 . S
O807 C815 1.258 . S
O808 Co783 1.941 . S
O808 C815 1.266 . S
H809 C811 0.959 . S
H810 C811 0.961 . S
C811 C801 1.510 . S
C811 H809 0.959 . S
C811 H810 0.961 . S
C811 H812 0.960 . S
H812 C811 0.960 . S
H813 N793 0.862 . S
O814 Co782 1.920 . S
O814 C787 1.289 . S
C815 O807 1.258 . S
C815 O808 1.266 . S
Co816 O819 1.970 . S
Co816 N833 1.989 . S
Co816 O841 1.967 . S
Co816 O848 1.920 . S
Co817 O820 1.966 . S
Co817 N826 2.022 . S
Co817 N834 1.993 . S
Co817 O842 1.941 . S
C818 O819 1.258 . S
C818 O820 1.263 . S
O819 Co816 1.970 . S
O819 C818 1.258 . S
O820 Co817 1.966 . S
O820 C818 1.263 . S
C821 O822 1.235 . S
C821 O848 1.289 . S
O822 C821 1.235 . S
C823 C825 1.400 . S
C823 N826 1.351 . S
C823 C828 1.501 . S
C824 C825 1.387 . S
C824 N827 1.341 . S
C825 C823 1.400 . S
C825 C824 1.387 . S
N826 Co817 2.022 . S
N826 C823 1.351 . S
N826 N827 1.365 . S
N827 C824 1.341 . S
N827 N826 1.365 . S
N827 H847 0.862 . S
C828 C823 1.501 . S
C828 H829 0.961 . S
C828 H830 0.961 . S
C828 H831 0.960 . S
H829 C828 0.961 . S
H830 C828 0.961 . S
H831 C828 0.960 . S
C832 N833 1.342 . S
C832 C836 1.401 . S
C832 C837 1.499 . S
N833 Co816 1.989 . S
N833 C832 1.342 . S
N833 N834 1.388 . S
N834 Co817 1.993 . S
N834 N833 1.388 . S
N834 C835 1.346 . S
C835 N834 1.346 . S
C835 C836 1.396 . S
C835 C845 1.510 . S
C836 C832 1.401 . S
C836 C835 1.396 . S
C837 C832 1.499 . S
C837 H838 0.959 . S
C837 H839 0.960 . S
C837 H840 0.961 . S
H838 C837 0.959 . S
H839 C837 0.960 . S
H840 C837 0.961 . S
O841 Co816 1.967 . S
O841 C849 1.258 . S
O842 Co817 1.941 . S
O842 C849 1.266 . S
H843 C845 0.959 . S
H844 C845 0.961 . S
C845 C835 1.510 . S
C845 H843 0.959 . S
C845 H844 0.961 . S
C845 H846 0.960 . S
H846 C845 0.960 . S
H847 N827 0.862 . S
O848 Co816 1.920 . S
O848 C821 1.289 . S
C849 O841 1.258 . S
C849 O842 1.266 . S
Co850 O853 1.970 . S
Co850 N867 1.989 . S
Co850 O875 1.967 . S
Co850 O882 1.920 . S
Co851 O854 1.966 . S
Co851 N860 2.022 . S
Co851 N868 1.993 . S
Co851 O876 1.941 . S
C852 O853 1.258 . S
C852 O854 1.263 . S
O853 Co850 1.970 . S
O853 C852 1.258 . S
O854 Co851 1.966 . S
O854 C852 1.263 . S
C855 O856 1.235 . S
C855 O882 1.289 . S
O856 C855 1.235 . S
C857 C859 1.400 . S
C857 N860 1.351 . S
C857 C862 1.501 . S
C858 C859 1.387 . S
C858 N861 1.341 . S
C859 C857 1.400 . S
C859 C858 1.387 . S
N860 Co851 2.022 . S
N860 C857 1.351 . S
N860 N861 1.365 . S
N861 C858 1.341 . S
N861 N860 1.365 . S
N861 H881 0.862 . S
C862 C857 1.501 . S
C862 H863 0.961 . S
C862 H864 0.961 . S
C862 H865 0.960 . S
H863 C862 0.961 . S
H864 C862 0.961 . S
H865 C862 0.960 . S
C866 N867 1.342 . S
C866 C870 1.401 . S
C866 C871 1.499 . S
N867 Co850 1.989 . S
N867 C866 1.342 . S
N867 N868 1.388 . S
N868 Co851 1.993 . S
N868 N867 1.388 . S
N868 C869 1.346 . S
C869 N868 1.346 . S
C869 C870 1.396 . S
C869 C879 1.510 . S
C870 C866 1.401 . S
C870 C869 1.396 . S
C871 C866 1.499 . S
C871 H872 0.959 . S
C871 H873 0.960 . S
C871 H874 0.961 . S
H872 C871 0.959 . S
H873 C871 0.960 . S
H874 C871 0.961 . S
O875 Co850 1.967 . S
O875 C883 1.258 . S
O876 Co851 1.941 . S
O876 C883 1.266 . S
H877 C879 0.959 . S
H878 C879 0.961 . S
C879 C869 1.510 . S
C879 H877 0.959 . S
C879 H878 0.961 . S
C879 H880 0.960 . S
H880 C879 0.960 . S
H881 N861 0.862 . S
O882 Co850 1.920 . S
O882 C855 1.289 . S
C883 O875 1.258 . S
C883 O876 1.266 . S
Co884 O887 1.970 . S
Co884 N901 1.989 . S
Co884 O909 1.967 . S
Co884 O916 1.920 . S
Co885 O888 1.966 . S
Co885 N894 2.022 . S
Co885 N902 1.993 . S
Co885 O910 1.941 . S
C886 O887 1.258 . S
C886 O888 1.263 . S
O887 Co884 1.970 . S
O887 C886 1.258 . S
O888 Co885 1.966 . S
O888 C886 1.263 . S
C889 O890 1.235 . S
C889 O916 1.289 . S
O890 C889 1.235 . S
C891 C893 1.400 . S
C891 N894 1.351 . S
C891 C896 1.501 . S
C892 C893 1.387 . S
C892 N895 1.341 . S
C893 C891 1.400 . S
C893 C892 1.387 . S
N894 Co885 2.022 . S
N894 C891 1.351 . S
N894 N895 1.365 . S
N895 C892 1.341 . S
N895 N894 1.365 . S
N895 H915 0.862 . S
C896 C891 1.501 . S
C896 H897 0.961 . S
C896 H898 0.961 . S
C896 H899 0.960 . S
H897 C896 0.961 . S
H898 C896 0.961 . S
H899 C896 0.960 . S
C900 N901 1.342 . S
C900 C904 1.401 . S
C900 C905 1.499 . S
N901 Co884 1.989 . S
N901 C900 1.342 . S
N901 N902 1.388 . S
N902 Co885 1.993 . S
N902 N901 1.388 . S
N902 C903 1.346 . S
C903 N902 1.346 . S
C903 C904 1.396 . S
C903 C913 1.510 . S
C904 C900 1.401 . S
C904 C903 1.396 . S
C905 C900 1.499 . S
C905 H906 0.959 . S
C905 H907 0.960 . S
C905 H908 0.961 . S
H906 C905 0.959 . S
H907 C905 0.960 . S
H908 C905 0.961 . S
O909 Co884 1.967 . S
O909 C917 1.258 . S
O910 Co885 1.941 . S
O910 C917 1.266 . S
H911 C913 0.959 . S
H912 C913 0.961 . S
C913 C903 1.510 . S
C913 H911 0.959 . S
C913 H912 0.961 . S
C913 H914 0.960 . S
H914 C913 0.960 . S
H915 N895 0.862 . S
O916 Co884 1.920 . S
O916 C889 1.289 . S
C917 O909 1.258 . S
C917 O910 1.266 . S
Co918 O921 1.970 . S
Co918 N935 1.989 . S
Co918 O943 1.967 . S
Co918 O950 1.920 . S
Co919 O922 1.966 . S
Co919 N928 2.022 . S
Co919 N936 1.993 . S
Co919 O944 1.941 . S
C920 O921 1.258 . S
C920 O922 1.263 . S
O921 Co918 1.970 . S
O921 C920 1.258 . S
O922 Co919 1.966 . S
O922 C920 1.263 . S
C923 O924 1.235 . S
C923 O950 1.289 . S
O924 C923 1.235 . S
C925 C927 1.400 . S
C925 N928 1.351 . S
C925 C930 1.501 . S
C926 C927 1.387 . S
C926 N929 1.341 . S
C927 C925 1.400 . S
C927 C926 1.387 . S
N928 Co919 2.022 . S
N928 C925 1.351 . S
N928 N929 1.365 . S
N929 C926 1.341 . S
N929 N928 1.365 . S
N929 H949 0.862 . S
C930 C925 1.501 . S
C930 H931 0.961 . S
C930 H932 0.961 . S
C930 H933 0.960 . S
H931 C930 0.961 . S
H932 C930 0.961 . S
H933 C930 0.960 . S
C934 N935 1.342 . S
C934 C938 1.401 . S
C934 C939 1.499 . S
N935 Co918 1.989 . S
N935 C934 1.342 . S
N935 N936 1.388 . S
N936 Co919 1.993 . S
N936 N935 1.388 . S
N936 C937 1.346 . S
C937 N936 1.346 . S
C937 C938 1.396 . S
C937 C947 1.510 . S
C938 C934 1.401 . S
C938 C937 1.396 . S
C939 C934 1.499 . S
C939 H940 0.959 . S
C939 H941 0.960 . S
C939 H942 0.961 . S
H940 C939 0.959 . S
H941 C939 0.960 . S
H942 C939 0.961 . S
O943 Co918 1.967 . S
O943 C951 1.258 . S
O944 Co919 1.941 . S
O944 C951 1.266 . S
H945 C947 0.959 . S
H946 C947 0.961 . S
C947 C937 1.510 . S
C947 H945 0.959 . S
C947 H946 0.961 . S
C947 H948 0.960 . S
H948 C947 0.960 . S
H949 N929 0.862 . S
O950 Co918 1.920 . S
O950 C923 1.289 . S
C951 O943 1.258 . S
C951 O944 1.266 . S
Co952 O955 1.970 . S
Co952 N969 1.989 . S
Co952 O977 1.967 . S
Co952 O984 1.920 . S
Co953 O956 1.966 . S
Co953 N962 2.022 . S
Co953 N970 1.993 . S
Co953 O978 1.941 . S
C954 O955 1.258 . S
C954 O956 1.263 . S
O955 Co952 1.970 . S
O955 C954 1.258 . S
O956 Co953 1.966 . S
O956 C954 1.263 . S
C957 O958 1.235 . S
C957 O984 1.289 . S
O958 C957 1.235 . S
C959 C961 1.400 . S
C959 N962 1.351 . S
C959 C964 1.501 . S
C960 C961 1.387 . S
C960 N963 1.341 . S
C961 C959 1.400 . S
C961 C960 1.387 . S
N962 Co953 2.022 . S
N962 C959 1.351 . S
N962 N963 1.365 . S
N963 C960 1.341 . S
N963 N962 1.365 . S
N963 H983 0.862 . S
C964 C959 1.501 . S
C964 H965 0.961 . S
C964 H966 0.961 . S
C964 H967 0.960 . S
H965 C964 0.961 . S
H966 C964 0.961 . S
H967 C964 0.960 . S
C968 N969 1.342 . S
C968 C972 1.401 . S
C968 C973 1.499 . S
N969 Co952 1.989 . S
N969 C968 1.342 . S
N969 N970 1.388 . S
N970 Co953 1.993 . S
N970 N969 1.388 . S
N970 C971 1.346 . S
C971 N970 1.346 . S
C971 C972 1.396 . S
C971 C981 1.510 . S
C972 C968 1.401 . S
C972 C971 1.396 . S
C973 C968 1.499 . S
C973 H974 0.959 . S
C973 H975 0.960 . S
C973 H976 0.961 . S
H974 C973 0.959 . S
H975 C973 0.960 . S
H976 C973 0.961 . S
O977 Co952 1.967 . S
O977 C985 1.258 . S
O978 Co953 1.941 . S
O978 C985 1.266 . S
H979 C981 0.959 . S
H980 C981 0.961 . S
C981 C971 1.510 . S
C981 H979 0.959 . S
C981 H980 0.961 . S
C981 H982 0.960 . S
H982 C981 0.960 . S
H983 N963 0.862 . S
O984 Co952 1.920 . S
O984 C957 1.289 . S
C985 O977 1.258 . S
C985 O978 1.266 . S
Co986 O989 1.970 . S
Co986 N1003 1.989 . S
Co986 O1011 1.967 . S
Co986 O1018 1.920 . S
Co987 O990 1.966 . S
Co987 N996 2.022 . S
Co987 N1004 1.993 . S
Co987 O1012 1.941 . S
C988 O989 1.258 . S
C988 O990 1.263 . S
O989 Co986 1.970 . S
O989 C988 1.258 . S
O990 Co987 1.966 . S
O990 C988 1.263 . S
C991 O992 1.235 . S
C991 O1018 1.289 . S
O992 C991 1.235 . S
C993 C995 1.400 . S
C993 N996 1.351 . S
C993 C998 1.501 . S
C994 C995 1.387 . S
C994 N997 1.341 . S
C995 C993 1.400 . S
C995 C994 1.387 . S
N996 Co987 2.022 . S
N996 C993 1.351 . S
N996 N997 1.365 . S
N997 C994 1.341 . S
N997 N996 1.365 . S
N997 H1017 0.862 . S
C998 C993 1.501 . S
C998 H999 0.961 . S
C998 H1000 0.961 . S
C998 H1001 0.960 . S
H999 C998 0.961 . S
H1000 C998 0.961 . S
H1001 C998 0.960 . S
C1002 N1003 1.342 . S
C1002 C1006 1.401 . S
C1002 C1007 1.499 . S
N1003 Co986 1.989 . S
N1003 C1002 1.342 . S
N1003 N1004 1.388 . S
N1004 Co987 1.993 . S
N1004 N1003 1.388 . S
N1004 C1005 1.346 . S
C1005 N1004 1.346 . S
C1005 C1006 1.396 . S
C1005 C1015 1.510 . S
C1006 C1002 1.401 . S
C1006 C1005 1.396 . S
C1007 C1002 1.499 . S
C1007 H1008 0.959 . S
C1007 H1009 0.960 . S
C1007 H1010 0.961 . S
H1008 C1007 0.959 . S
H1009 C1007 0.960 . S
H1010 C1007 0.961 . S
O1011 Co986 1.967 . S
O1011 C1019 1.258 . S
O1012 Co987 1.941 . S
O1012 C1019 1.266 . S
H1013 C1015 0.959 . S
H1014 C1015 0.961 . S
C1015 C1005 1.510 . S
C1015 H1013 0.959 . S
C1015 H1014 0.961 . S
C1015 H1016 0.960 . S
H1016 C1015 0.960 . S
H1017 N997 0.862 . S
O1018 Co986 1.920 . S
O1018 C991 1.289 . S
C1019 O1011 1.258 . S
C1019 O1012 1.266 . S
Co1020 O1023 1.970 . S
Co1020 N1037 1.989 . S
Co1020 O1045 1.967 . S
Co1020 O1052 1.920 . S
Co1021 O1024 1.966 . S
Co1021 N1030 2.022 . S
Co1021 N1038 1.993 . S
Co1021 O1046 1.941 . S
C1022 O1023 1.258 . S
C1022 O1024 1.263 . S
O1023 Co1020 1.970 . S
O1023 C1022 1.258 . S
O1024 Co1021 1.966 . S
O1024 C1022 1.263 . S
C1025 O1026 1.235 . S
C1025 O1052 1.289 . S
O1026 C1025 1.235 . S
C1027 C1029 1.400 . S
C1027 N1030 1.351 . S
C1027 C1032 1.501 . S
C1028 C1029 1.387 . S
C1028 N1031 1.341 . S
C1029 C1027 1.400 . S
C1029 C1028 1.387 . S
N1030 Co1021 2.022 . S
N1030 C1027 1.351 . S
N1030 N1031 1.365 . S
N1031 C1028 1.341 . S
N1031 N1030 1.365 . S
N1031 H1051 0.862 . S
C1032 C1027 1.501 . S
C1032 H1033 0.961 . S
C1032 H1034 0.961 . S
C1032 H1035 0.960 . S
H1033 C1032 0.961 . S
H1034 C1032 0.961 . S
H1035 C1032 0.960 . S
C1036 N1037 1.342 . S
C1036 C1040 1.401 . S
C1036 C1041 1.499 . S
N1037 Co1020 1.989 . S
N1037 C1036 1.342 . S
N1037 N1038 1.388 . S
N1038 Co1021 1.993 . S
N1038 N1037 1.388 . S
N1038 C1039 1.346 . S
C1039 N1038 1.346 . S
C1039 C1040 1.396 . S
C1039 C1049 1.510 . S
C1040 C1036 1.401 . S
C1040 C1039 1.396 . S
C1041 C1036 1.499 . S
C1041 H1042 0.959 . S
C1041 H1043 0.960 . S
C1041 H1044 0.961 . S
H1042 C1041 0.959 . S
H1043 C1041 0.960 . S
H1044 C1041 0.961 . S
O1045 Co1020 1.967 . S
O1045 C1053 1.258 . S
O1046 Co1021 1.941 . S
O1046 C1053 1.266 . S
H1047 C1049 0.959 . S
H1048 C1049 0.961 . S
C1049 C1039 1.510 . S
C1049 H1047 0.959 . S
C1049 H1048 0.961 . S
C1049 H1050 0.960 . S
H1050 C1049 0.960 . S
H1051 N1031 0.862 . S
O1052 Co1020 1.920 . S
O1052 C1025 1.289 . S
C1053 O1045 1.258 . S
C1053 O1046 1.266 . S
Co1054 O1057 1.970 . S
Co1054 N1071 1.989 . S
Co1054 O1079 1.967 . S
Co1054 O1086 1.920 . S
Co1055 O1058 1.966 . S
Co1055 N1064 2.022 . S
Co1055 N1072 1.993 . S
Co1055 O1080 1.941 . S
C1056 O1057 1.258 . S
C1056 O1058 1.263 . S
O1057 Co1054 1.970 . S
O1057 C1056 1.258 . S
O1058 Co1055 1.966 . S
O1058 C1056 1.263 . S
C1059 O1060 1.235 . S
C1059 O1086 1.289 . S
O1060 C1059 1.235 . S
C1061 C1063 1.400 . S
C1061 N1064 1.351 . S
C1061 C1066 1.501 . S
C1062 C1063 1.387 . S
C1062 N1065 1.341 . S
C1063 C1061 1.400 . S
C1063 C1062 1.387 . S
N1064 Co1055 2.022 . S
N1064 C1061 1.351 . S
N1064 N1065 1.365 . S
N1065 C1062 1.341 . S
N1065 N1064 1.365 . S
N1065 H1085 0.862 . S
C1066 C1061 1.501 . S
C1066 H1067 0.961 . S
C1066 H1068 0.961 . S
C1066 H1069 0.960 . S
H1067 C1066 0.961 . S
H1068 C1066 0.961 . S
H1069 C1066 0.960 . S
C1070 N1071 1.342 . S
C1070 C1074 1.401 . S
C1070 C1075 1.499 . S
N1071 Co1054 1.989 . S
N1071 C1070 1.342 . S
N1071 N1072 1.388 . S
N1072 Co1055 1.993 . S
N1072 N1071 1.388 . S
N1072 C1073 1.346 . S
C1073 N1072 1.346 . S
C1073 C1074 1.396 . S
C1073 C1083 1.510 . S
C1074 C1070 1.401 . S
C1074 C1073 1.396 . S
C1075 C1070 1.499 . S
C1075 H1076 0.959 . S
C1075 H1077 0.960 . S
C1075 H1078 0.961 . S
H1076 C1075 0.959 . S
H1077 C1075 0.960 . S
H1078 C1075 0.961 . S
O1079 Co1054 1.967 . S
O1079 C1087 1.258 . S
O1080 Co1055 1.941 . S
O1080 C1087 1.266 . S
H1081 C1083 0.959 . S
H1082 C1083 0.961 . S
C1083 C1073 1.510 . S
C1083 H1081 0.959 . S
C1083 H1082 0.961 . S
C1083 H1084 0.960 . S
H1084 C1083 0.960 . S
H1085 N1065 0.862 . S
O1086 Co1054 1.920 . S
O1086 C1059 1.289 . S
C1087 O1079 1.258 . S
C1087 O1080 1.266 . S
H1088 C1096 0.929 . S
H1089 C1098 0.930 1_545 S
H1090 C1100 0.930 . S
H1091 C1103 0.929 . S
H1092 C1106 0.930 . S
H1093 C1108 0.960 . S
H1094 C1108 0.960 . S
H1095 C1108 0.960 . S
C1096 H1088 0.929 . S
C1096 C1097 1.377 . S
C1096 C1098 1.384 . S
C1097 C1096 1.377 . S
C1097 C1103 1.390 . S
C1098 H1089 0.930 1_565 S
C1098 C1096 1.384 . S
C1098 C1099 1.372 . S
C1099 C1098 1.372 . S
C1099 C1100 1.400 . S
C1099 C1104 1.490 . S
C1100 H1090 0.930 . S
C1100 C1099 1.400 . S
C1100 C1103 1.386 . S
H1101 C1117 0.930 . S
H1102 C1118 0.931 . S
C1103 H1091 0.929 . S
C1103 C1097 1.390 . S
C1103 C1100 1.386 . S
C1104 C1099 1.490 . S
C1104 C1106 1.395 1_565 S
C1104 C1107 1.403 . S
H1105 C1111 0.930 . S
C1106 H1092 0.930 . S
C1106 C1104 1.395 1_545 S
C1106 C1109 1.403 . S
C1107 C1104 1.403 . S
C1107 C1108 1.524 . S
C1107 C1111 1.400 . S
C1108 H1093 0.960 . S
C1108 H1094 0.960 . S
C1108 H1095 0.960 . S
C1108 C1107 1.524 . S
C1109 C1106 1.403 . S
C1109 C1110 1.392 . S
C1109 C1113 1.495 . S
C1110 C1109 1.392 . S
C1110 C1111 1.385 1_545 S
C1110 C1112 1.478 . S
C1111 H1105 0.930 . S
C1111 C1107 1.400 . S
C1111 C1110 1.385 1_565 S
C1112 C1110 1.478 . S
C1112 C1114 1.381 . S
C1112 C1118 1.383 . S
C1113 C1109 1.495 . S
C1113 H1119 0.959 . S
C1113 H1120 0.961 . S
C1113 H1121 0.960 . S
C1114 C1112 1.381 . S
C1114 C1115 1.394 . S
C1114 H1122 0.930 . S
C1115 C1114 1.394 . S
C1115 C1116 1.383 . S
C1115 H1123 0.929 . S
C1116 C1115 1.383 . S
C1116 C1117 1.377 . S
C1117 H1101 0.930 . S
C1117 C1116 1.377 . S
C1117 C1118 1.379 . S
C1118 H1102 0.931 . S
C1118 C1112 1.383 . S
C1118 C1117 1.379 . S
H1119 C1113 0.959 . S
H1120 C1113 0.961 . S
H1121 C1113 0.960 . S
H1122 C1114 0.930 . S
H1123 C1115 0.929 . S
H1124 C1132 0.929 . S
H1125 C1134 0.930 . S
H1126 C1136 0.930 . S
H1127 C1139 0.929 . S
H1128 C1142 0.930 . S
H1129 C1144 0.960 . S
H1130 C1144 0.960 . S
H1131 C1144 0.960 . S
C1132 H1124 0.929 . S
C1132 C1133 1.377 . S
C1132 C1134 1.384 . S
C1133 C1132 1.377 . S
C1133 C1139 1.390 . S
C1134 H1125 0.930 . S
C1134 C1132 1.384 . S
C1134 C1135 1.372 . S
C1135 C1134 1.372 . S
C1135 C1136 1.400 . S
C1135 C1140 1.490 . S
C1136 H1126 0.930 . S
C1136 C1135 1.400 . S
C1136 C1139 1.386 . S
H1137 C1153 0.930 . S
H1138 C1154 0.931 . S
C1139 H1127 0.929 . S
C1139 C1133 1.390 . S
C1139 C1136 1.386 . S
C1140 C1135 1.490 . S
C1140 C1142 1.395 . S
C1140 C1143 1.403 . S
H1141 C1147 0.930 . S
C1142 H1128 0.930 . S
C1142 C1140 1.395 . S
C1142 C1145 1.403 . S
C1143 C1140 1.403 . S
C1143 C1144 1.524 . S
C1143 C1147 1.400 . S
C1144 H1129 0.960 . S
C1144 H1130 0.960 . S
C1144 H1131 0.960 . S
C1144 C1143 1.524 . S
C1145 C1142 1.403 . S
C1145 C1146 1.392 . S
C1145 C1149 1.495 . S
C1146 C1145 1.392 . S
C1146 C1147 1.385 . S
C1146 C1148 1.478 . S
C1147 H1141 0.930 . S
C1147 C1143 1.400 . S
C1147 C1146 1.385 . S
C1148 C1146 1.478 . S
C1148 C1150 1.381 . S
C1148 C1154 1.383 . S
C1149 C1145 1.495 . S
C1149 H1155 0.959 . S
C1149 H1156 0.961 . S
C1149 H1157 0.960 . S
C1150 C1148 1.381 . S
C1150 C1151 1.394 . S
C1150 H1158 0.930 . S
C1151 C1150 1.394 . S
C1151 C1152 1.383 . S
C1151 H1159 0.929 . S
C1152 C1151 1.383 . S
C1152 C1153 1.377 . S
C1153 H1137 0.930 . S
C1153 C1152 1.377 . S
C1153 C1154 1.379 . S
C1154 H1138 0.931 . S
C1154 C1148 1.383 . S
C1154 C1153 1.379 . S
H1155 C1149 0.959 . S
H1156 C1149 0.961 . S
H1157 C1149 0.960 . S
H1158 C1150 0.930 . S
H1159 C1151 0.929 . S
H1160 C1168 0.929 . S
H1161 C1170 0.930 . S
H1162 C1172 0.930 1_545 S
H1163 C1175 0.929 . S
H1164 C1178 0.930 . S
H1165 C1180 0.960 . S
H1166 C1180 0.960 . S
H1167 C1180 0.960 . S
C1168 H1160 0.929 . S
C1168 C1169 1.377 . S
C1168 C1170 1.384 . S
C1169 C1168 1.377 . S
C1169 C1175 1.390 . S
C1170 H1161 0.930 . S
C1170 C1168 1.384 . S
C1170 C1171 1.372 . S
C1171 C1170 1.372 . S
C1171 C1172 1.400 . S
C1171 C1176 1.490 . S
C1172 H1162 0.930 1_565 S
C1172 C1171 1.400 . S
C1172 C1175 1.386 . S
H1173 C1189 0.930 . S
H1174 C1190 0.931 . S
C1175 H1163 0.929 . S
C1175 C1169 1.390 . S
C1175 C1172 1.386 . S
C1176 C1171 1.490 . S
C1176 C1178 1.395 . S
C1176 C1179 1.403 1_565 S
H1177 C1183 0.930 . S
C1178 H1164 0.930 . S
C1178 C1176 1.395 . S
C1178 C1181 1.403 . S
C1179 C1176 1.403 1_545 S
C1179 C1180 1.524 . S
C1179 C1183 1.400 . S
C1180 H1165 0.960 . S
C1180 H1166 0.960 . S
C1180 H1167 0.960 . S
C1180 C1179 1.524 . S
C1181 C1178 1.403 . S
C1181 C1182 1.392 . S
C1181 C1185 1.495 . S
C1182 C1181 1.392 . S
C1182 C1183 1.385 1_565 S
C1182 C1184 1.478 1_565 S
C1183 H1177 0.930 . S
C1183 C1179 1.400 . S
C1183 C1182 1.385 1_545 S
C1184 C1182 1.478 1_545 S
C1184 C1186 1.381 . S
C1184 C1190 1.383 . S
C1185 C1181 1.495 . S
C1185 H1191 0.959 . S
C1185 H1192 0.961 . S
C1185 H1193 0.960 . S
C1186 C1184 1.381 . S
C1186 C1187 1.394 . S
C1186 H1194 0.930 1_545 S
C1187 C1186 1.394 . S
C1187 C1188 1.383 . S
C1187 H1195 0.929 . S
C1188 C1187 1.383 . S
C1188 C1189 1.377 . S
C1189 H1173 0.930 . S
C1189 C1188 1.377 . S
C1189 C1190 1.379 . S
C1190 H1174 0.931 . S
C1190 C1184 1.383 . S
C1190 C1189 1.379 . S
H1191 C1185 0.959 . S
H1192 C1185 0.961 . S
H1193 C1185 0.960 . S
H1194 C1186 0.930 1_565 S
H1195 C1187 0.929 . S
H1196 C1204 0.929 . S
H1197 C1206 0.930 . S
H1198 C1208 0.930 . S
H1199 C1211 0.929 . S
H1200 C1214 0.930 . S
H1201 C1216 0.960 . S
H1202 C1216 0.960 . S
H1203 C1216 0.960 . S
C1204 H1196 0.929 . S
C1204 C1205 1.377 . S
C1204 C1206 1.384 . S
C1205 C1204 1.377 . S
C1205 C1211 1.390 . S
C1206 H1197 0.930 . S
C1206 C1204 1.384 . S
C1206 C1207 1.372 . S
C1207 C1206 1.372 . S
C1207 C1208 1.400 . S
C1207 C1212 1.490 . S
C1208 H1198 0.930 . S
C1208 C1207 1.400 . S
C1208 C1211 1.386 . S
H1209 C1225 0.930 . S
H1210 C1226 0.931 . S
C1211 H1199 0.929 . S
C1211 C1205 1.390 . S
C1211 C1208 1.386 . S
C1212 C1207 1.490 . S
C1212 C1214 1.395 . S
C1212 C1215 1.403 . S
H1213 C1219 0.930 . S
C1214 H1200 0.930 . S
C1214 C1212 1.395 . S
C1214 C1217 1.403 1_556 S
C1215 C1212 1.403 . S
C1215 C1216 1.524 . S
C1215 C1219 1.400 1_556 S
C1216 H1201 0.960 . S
C1216 H1202 0.960 . S
C1216 H1203 0.960 . S
C1216 C1215 1.524 . S
C1217 C1214 1.403 1_554 S
C1217 C1218 1.392 . S
C1217 C1221 1.495 . S
C1218 C1217 1.392 . S
C1218 C1219 1.385 . S
C1218 C1220 1.478 . S
C1219 H1213 0.930 . S
C1219 C1215 1.400 1_554 S
C1219 C1218 1.385 . S
C1220 C1218 1.478 . S
C1220 C1222 1.381 . S
C1220 C1226 1.383 . S
C1221 C1217 1.495 . S
C1221 H1227 0.959 . S
C1221 H1228 0.961 . S
C1221 H1229 0.960 . S
C1222 C1220 1.381 . S
C1222 C1223 1.394 . S
C1222 H1230 0.930 . S
C1223 C1222 1.394 . S
C1223 C1224 1.383 . S
C1223 H1231 0.929 . S
C1224 C1223 1.383 . S
C1224 C1225 1.377 . S
C1225 H1209 0.930 . S
C1225 C1224 1.377 . S
C1225 C1226 1.379 . S
C1226 H1210 0.931 . S
C1226 C1220 1.383 . S
C1226 C1225 1.379 . S
H1227 C1221 0.959 . S
H1228 C1221 0.961 . S
H1229 C1221 0.960 . S
H1230 C1222 0.930 . S
H1231 C1223 0.929 . S
H1232 C1240 0.929 1_545 S
H1233 C1242 0.930 . S
H1234 C1244 0.930 . S
H1235 C1247 0.929 . S
H1236 C1250 0.930 . S
H1237 C1252 0.960 . S
H1238 C1252 0.960 . S
H1239 C1252 0.960 . S
C1240 H1232 0.929 1_565 S
C1240 C1241 1.377 . S
C1240 C1242 1.384 1_565 S
C1241 C1240 1.377 . S
C1241 C1247 1.390 . S
C1242 H1233 0.930 . S
C1242 C1240 1.384 1_545 S
C1242 C1243 1.372 1_545 S
C1243 C1242 1.372 1_565 S
C1243 C1244 1.400 . S
C1243 C1248 1.490 . S
C1244 H1234 0.930 . S
C1244 C1243 1.400 . S
C1244 C1247 1.386 . S
H1245 C1261 0.930 . S
H1246 C1262 0.931 . S
C1247 H1235 0.929 . S
C1247 C1241 1.390 . S
C1247 C1244 1.386 . S
C1248 C1243 1.490 . S
C1248 C1250 1.395 1_565 S
C1248 C1251 1.403 . S
H1249 C1255 0.930 . S
C1250 H1236 0.930 . S
C1250 C1248 1.395 1_545 S
C1250 C1253 1.403 . S
C1251 C1248 1.403 . S
C1251 C1252 1.524 . S
C1251 C1255 1.400 . S
C1252 H1237 0.960 . S
C1252 H1238 0.960 . S
C1252 H1239 0.960 . S
C1252 C1251 1.524 . S
C1253 C1250 1.403 . S
C1253 C1254 1.392 . S
C1253 C1257 1.495 . S
C1254 C1253 1.392 . S
C1254 C1255 1.385 1_545 S
C1254 C1256 1.478 . S
C1255 H1249 0.930 . S
C1255 C1251 1.400 . S
C1255 C1254 1.385 1_565 S
C1256 C1254 1.478 . S
C1256 C1258 1.381 . S
C1256 C1262 1.383 . S
C1257 C1253 1.495 . S
C1257 H1263 0.959 . S
C1257 H1264 0.961 . S
C1257 H1265 0.960 . S
C1258 C1256 1.381 . S
C1258 C1259 1.394 . S
C1258 H1266 0.930 . S
C1259 C1258 1.394 . S
C1259 C1260 1.383 . S
C1259 H1267 0.929 . S
C1260 C1259 1.383 . S
C1260 C1261 1.377 . S
C1261 H1245 0.930 . S
C1261 C1260 1.377 . S
C1261 C1262 1.379 . S
C1262 H1246 0.931 . S
C1262 C1256 1.383 . S
C1262 C1261 1.379 . S
H1263 C1257 0.959 . S
H1264 C1257 0.961 . S
H1265 C1257 0.960 . S
H1266 C1258 0.930 . S
H1267 C1259 0.929 . S
H1268 C1276 0.929 . S
H1269 C1278 0.930 . S
H1270 C1280 0.930 . S
H1271 C1283 0.929 . S
H1272 C1286 0.930 . S
H1273 C1288 0.960 . S
H1274 C1288 0.960 . S
H1275 C1288 0.960 . S
C1276 H1268 0.929 . S
C1276 C1277 1.377 . S
C1276 C1278 1.384 . S
C1277 C1276 1.377 . S
C1277 C1283 1.390 . S
C1278 H1269 0.930 . S
C1278 C1276 1.384 . S
C1278 C1279 1.372 . S
C1279 C1278 1.372 . S
C1279 C1280 1.400 . S
C1279 C1284 1.490 . S
C1280 H1270 0.930 . S
C1280 C1279 1.400 . S
C1280 C1283 1.386 . S
H1281 C1297 0.930 . S
H1282 C1298 0.931 . S
C1283 H1271 0.929 . S
C1283 C1277 1.390 . S
C1283 C1280 1.386 . S
C1284 C1279 1.490 . S
C1284 C1286 1.395 . S
C1284 C1287 1.403 . S
H1285 C1291 0.930 . S
C1286 H1272 0.930 . S
C1286 C1284 1.395 . S
C1286 C1289 1.403 . S
C1287 C1284 1.403 . S
C1287 C1288 1.524 . S
C1287 C1291 1.400 . S
C1288 H1273 0.960 . S
C1288 H1274 0.960 . S
C1288 H1275 0.960 . S
C1288 C1287 1.524 . S
C1289 C1286 1.403 . S
C1289 C1290 1.392 . S
C1289 C1293 1.495 . S
C1290 C1289 1.392 . S
C1290 C1291 1.385 . S
C1290 C1292 1.478 . S
C1291 H1285 0.930 . S
C1291 C1287 1.400 . S
C1291 C1290 1.385 . S
C1292 C1290 1.478 . S
C1292 C1294 1.381 . S
C1292 C1298 1.383 . S
C1293 C1289 1.495 . S
C1293 H1299 0.959 . S
C1293 H1300 0.961 . S
C1293 H1301 0.960 . S
C1294 C1292 1.381 . S
C1294 C1295 1.394 . S
C1294 H1302 0.930 . S
C1295 C1294 1.394 . S
C1295 C1296 1.383 . S
C1295 H1303 0.929 . S
C1296 C1295 1.383 . S
C1296 C1297 1.377 . S
C1297 H1281 0.930 . S
C1297 C1296 1.377 . S
C1297 C1298 1.379 . S
C1298 H1282 0.931 . S
C1298 C1292 1.383 . S
C1298 C1297 1.379 . S
H1299 C1293 0.959 . S
H1300 C1293 0.961 . S
H1301 C1293 0.960 . S
H1302 C1294 0.930 . S
H1303 C1295 0.929 . S
H1304 C1312 0.929 . S
H1305 C1314 0.930 . S
H1306 C1316 0.930 . S
H1307 C1319 0.929 . S
H1308 C1322 0.930 . S
H1309 C1324 0.960 . S
H1310 C1324 0.960 . S
H1311 C1324 0.960 . S
C1312 H1304 0.929 . S
C1312 C1313 1.377 . S
C1312 C1314 1.384 . S
C1313 C1312 1.377 . S
C1313 C1319 1.390 1_545 S
C1314 H1305 0.930 . S
C1314 C1312 1.384 . S
C1314 C1315 1.372 . S
C1315 C1314 1.372 . S
C1315 C1316 1.400 1_545 S
C1315 C1320 1.490 . S
C1316 H1306 0.930 . S
C1316 C1315 1.400 1_565 S
C1316 C1319 1.386 . S
H1317 C1333 0.930 . S
H1318 C1334 0.931 . S
C1319 H1307 0.929 . S
C1319 C1313 1.390 1_565 S
C1319 C1316 1.386 . S
C1320 C1315 1.490 . S
C1320 C1322 1.395 1_545 S
C1320 C1323 1.403 . S
H1321 C1327 0.930 . S
C1322 H1308 0.930 . S
C1322 C1320 1.395 1_565 S
C1322 C1325 1.403 . S
C1323 C1320 1.403 . S
C1323 C1324 1.524 . S
C1323 C1327 1.400 . S
C1324 H1309 0.960 . S
C1324 H1310 0.960 . S
C1324 H1311 0.960 . S
C1324 C1323 1.524 . S
C1325 C1322 1.403 . S
C1325 C1326 1.392 . S
C1325 C1329 1.495 . S
C1326 C1325 1.392 . S
C1326 C1327 1.385 1_565 S
C1326 C1328 1.478 . S
C1327 H1321 0.930 . S
C1327 C1323 1.400 . S
C1327 C1326 1.385 1_545 S
C1328 C1326 1.478 . S
C1328 C1330 1.381 1_565 S
C1328 C1334 1.383 . S
C1329 C1325 1.495 . S
C1329 H1335 0.959 . S
C1329 H1336 0.961 . S
C1329 H1337 0.960 . S
C1330 C1328 1.381 1_545 S
C1330 C1331 1.394 . S
C1330 H1338 0.930 . S
C1331 C1330 1.394 . S
C1331 C1332 1.383 1_545 S
C1331 H1339 0.929 . S
C1332 C1331 1.383 1_565 S
C1332 C1333 1.377 . S
C1333 H1317 0.930 . S
C1333 C1332 1.377 . S
C1333 C1334 1.379 . S
C1334 H1318 0.931 . S
C1334 C1328 1.383 . S
C1334 C1333 1.379 . S
H1335 C1329 0.959 . S
H1336 C1329 0.961 . S
H1337 C1329 0.960 . S
H1338 C1330 0.930 . S
H1339 C1331 0.929 . S
H1340 C1348 0.929 . S
H1341 C1350 0.930 . S
H1342 C1352 0.930 . S
H1343 C1355 0.929 . S
H1344 C1358 0.930 . S
H1345 C1360 0.960 . S
H1346 C1360 0.960 . S
H1347 C1360 0.960 . S
C1348 H1340 0.929 . S
C1348 C1349 1.377 . S
C1348 C1350 1.384 . S
C1349 C1348 1.377 . S
C1349 C1355 1.390 . S
C1350 H1341 0.930 . S
C1350 C1348 1.384 . S
C1350 C1351 1.372 . S
C1351 C1350 1.372 . S
C1351 C1352 1.400 . S
C1351 C1356 1.490 . S
C1352 H1342 0.930 . S
C1352 C1351 1.400 . S
C1352 C1355 1.386 . S
H1353 C1369 0.930 . S
H1354 C1370 0.931 . S
C1355 H1343 0.929 . S
C1355 C1349 1.390 . S
C1355 C1352 1.386 . S
C1356 C1351 1.490 . S
C1356 C1358 1.395 . S
C1356 C1359 1.403 . S
H1357 C1363 0.930 . S
C1358 H1344 0.930 . S
C1358 C1356 1.395 . S
C1358 C1361 1.403 1_556 S
C1359 C1356 1.403 . S
C1359 C1360 1.524 . S
C1359 C1363 1.400 1_556 S
C1360 H1345 0.960 . S
C1360 H1346 0.960 . S
C1360 H1347 0.960 . S
C1360 C1359 1.524 . S
C1361 C1358 1.403 1_554 S
C1361 C1362 1.392 . S
C1361 C1365 1.495 . S
C1362 C1361 1.392 . S
C1362 C1363 1.385 . S
C1362 C1364 1.478 . S
C1363 H1357 0.930 . S
C1363 C1359 1.400 1_554 S
C1363 C1362 1.385 . S
C1364 C1362 1.478 . S
C1364 C1366 1.381 . S
C1364 C1370 1.383 . S
C1365 C1361 1.495 . S
C1365 H1371 0.959 . S
C1365 H1372 0.961 . S
C1365 H1373 0.960 . S
C1366 C1364 1.381 . S
C1366 C1367 1.394 . S
C1366 H1374 0.930 . S
C1367 C1366 1.394 . S
C1367 C1368 1.383 . S
C1367 H1375 0.929 . S
C1368 C1367 1.383 . S
C1368 C1369 1.377 . S
C1369 H1353 0.930 . S
C1369 C1368 1.377 . S
C1369 C1370 1.379 . S
C1370 H1354 0.931 . S
C1370 C1364 1.383 . S
C1370 C1369 1.379 . S
H1371 C1365 0.959 . S
H1372 C1365 0.961 . S
H1373 C1365 0.960 . S
H1374 C1366 0.930 . S
H1375 C1367 0.929 . S
H1376 C1384 0.929 . S
H1377 C1386 0.930 . S
H1378 C1388 0.930 . S
H1379 C1391 0.929 . S
H1380 C1394 0.930 . S
H1381 C1396 0.960 . S
H1382 C1396 0.960 . S
H1383 C1396 0.960 . S
C1384 H1376 0.929 . S
C1384 C1385 1.377 . S
C1384 C1386 1.384 . S
C1385 C1384 1.377 . S
C1385 C1391 1.390 . S
C1386 H1377 0.930 . S
C1386 C1384 1.384 . S
C1386 C1387 1.372 . S
C1387 C1386 1.372 . S
C1387 C1388 1.400 . S
C1387 C1392 1.490 . S
C1388 H1378 0.930 . S
C1388 C1387 1.400 . S
C1388 C1391 1.386 . S
H1389 C1405 0.930 . S
H1390 C1406 0.931 . S
C1391 H1379 0.929 . S
C1391 C1385 1.390 . S
C1391 C1388 1.386 . S
C1392 C1387 1.490 . S
C1392 C1394 1.395 . S
C1392 C1395 1.403 . S
H1393 C1399 0.930 . S
C1394 H1380 0.930 . S
C1394 C1392 1.395 . S
C1394 C1397 1.403 . S
C1395 C1392 1.403 . S
C1395 C1396 1.524 . S
C1395 C1399 1.400 . S
C1396 H1381 0.960 . S
C1396 H1382 0.960 . S
C1396 H1383 0.960 . S
C1396 C1395 1.524 . S
C1397 C1394 1.403 . S
C1397 C1398 1.392 . S
C1397 C1401 1.495 . S
C1398 C1397 1.392 . S
C1398 C1399 1.385 . S
C1398 C1400 1.478 . S
C1399 H1393 0.930 . S
C1399 C1395 1.400 . S
C1399 C1398 1.385 . S
C1400 C1398 1.478 . S
C1400 C1402 1.381 . S
C1400 C1406 1.383 . S
C1401 C1397 1.495 . S
C1401 H1407 0.959 . S
C1401 H1408 0.961 . S
C1401 H1409 0.960 . S
C1402 C1400 1.381 . S
C1402 C1403 1.394 . S
C1402 H1410 0.930 . S
C1403 C1402 1.394 . S
C1403 C1404 1.383 . S
C1403 H1411 0.929 . S
C1404 C1403 1.383 . S
C1404 C1405 1.377 . S
C1405 H1389 0.930 . S
C1405 C1404 1.377 . S
C1405 C1406 1.379 . S
C1406 H1390 0.931 . S
C1406 C1400 1.383 . S
C1406 C1405 1.379 . S
H1407 C1401 0.959 . S
H1408 C1401 0.961 . S
H1409 C1401 0.960 . S
H1410 C1402 0.930 . S
H1411 C1403 0.929 . S
H1412 C1420 0.929 . S
H1413 C1422 0.930 . S
H1414 C1424 0.930 . S
H1415 C1427 0.929 . S
H1416 C1430 0.930 . S
H1417 C1432 0.960 . S
H1418 C1432 0.960 . S
H1419 C1432 0.960 . S
C1420 H1412 0.929 . S
C1420 C1421 1.377 . S
C1420 C1422 1.384 . S
C1421 C1420 1.377 . S
C1421 C1427 1.390 . S
C1422 H1413 0.930 . S
C1422 C1420 1.384 . S
C1422 C1423 1.372 . S
C1423 C1422 1.372 . S
C1423 C1424 1.400 . S
C1423 C1428 1.490 . S
C1424 H1414 0.930 . S
C1424 C1423 1.400 . S
C1424 C1427 1.386 . S
H1425 C1441 0.930 . S
H1426 C1442 0.931 . S
C1427 H1415 0.929 . S
C1427 C1421 1.390 . S
C1427 C1424 1.386 . S
C1428 C1423 1.490 . S
C1428 C1430 1.395 . S
C1428 C1431 1.403 . S
H1429 C1435 0.930 . S
C1430 H1416 0.930 . S
C1430 C1428 1.395 . S
C1430 C1433 1.403 1_556 S
C1431 C1428 1.403 . S
C1431 C1432 1.524 . S
C1431 C1435 1.400 1_556 S
C1432 H1417 0.960 . S
C1432 H1418 0.960 . S
C1432 H1419 0.960 . S
C1432 C1431 1.524 . S
C1433 C1430 1.403 1_554 S
C1433 C1434 1.392 . S
C1433 C1437 1.495 . S
C1434 C1433 1.392 . S
C1434 C1435 1.385 . S
C1434 C1436 1.478 . S
C1435 H1429 0.930 . S
C1435 C1431 1.400 1_554 S
C1435 C1434 1.385 . S
C1436 C1434 1.478 . S
C1436 C1438 1.381 . S
C1436 C1442 1.383 . S
C1437 C1433 1.495 . S
C1437 H1443 0.959 . S
C1437 H1444 0.961 . S
C1437 H1445 0.960 . S
C1438 C1436 1.381 . S
C1438 C1439 1.394 . S
C1438 H1446 0.930 . S
C1439 C1438 1.394 . S
C1439 C1440 1.383 . S
C1439 H1447 0.929 . S
C1440 C1439 1.383 . S
C1440 C1441 1.377 . S
C1441 H1425 0.930 . S
C1441 C1440 1.377 . S
C1441 C1442 1.379 . S
C1442 H1426 0.931 . S
C1442 C1436 1.383 . S
C1442 C1441 1.379 . S
H1443 C1437 0.959 . S
H1444 C1437 0.961 . S
H1445 C1437 0.960 . S
H1446 C1438 0.930 . S
H1447 C1439 0.929 . S
H1448 C1456 0.929 . S
H1449 C1458 0.930 . S
H1450 C1460 0.930 . S
H1451 C1463 0.929 . S
H1452 C1466 0.930 . S
H1453 C1468 0.960 . S
H1454 C1468 0.960 . S
H1455 C1468 0.960 . S
C1456 H1448 0.929 . S
C1456 C1457 1.377 . S
C1456 C1458 1.384 . S
C1457 C1456 1.377 . S
C1457 C1463 1.390 . S
C1458 H1449 0.930 . S
C1458 C1456 1.384 . S
C1458 C1459 1.372 . S
C1459 C1458 1.372 . S
C1459 C1460 1.400 . S
C1459 C1464 1.490 . S
C1460 H1450 0.930 . S
C1460 C1459 1.400 . S
C1460 C1463 1.386 . S
H1461 C1477 0.930 . S
H1462 C1478 0.931 . S
C1463 H1451 0.929 . S
C1463 C1457 1.390 . S
C1463 C1460 1.386 . S
C1464 C1459 1.490 . S
C1464 C1466 1.395 . S
C1464 C1467 1.403 . S
H1465 C1471 0.930 . S
C1466 H1452 0.930 . S
C1466 C1464 1.395 . S
C1466 C1469 1.403 . S
C1467 C1464 1.403 . S
C1467 C1468 1.524 . S
C1467 C1471 1.400 . S
C1468 H1453 0.960 . S
C1468 H1454 0.960 . S
C1468 H1455 0.960 . S
C1468 C1467 1.524 . S
C1469 C1466 1.403 . S
C1469 C1470 1.392 . S
C1469 C1473 1.495 . S
C1470 C1469 1.392 . S
C1470 C1471 1.385 . S
C1470 C1472 1.478 . S
C1471 H1465 0.930 . S
C1471 C1467 1.400 . S
C1471 C1470 1.385 . S
C1472 C1470 1.478 . S
C1472 C1474 1.381 . S
C1472 C1478 1.383 . S
C1473 C1469 1.495 . S
C1473 H1479 0.959 . S
C1473 H1480 0.961 . S
C1473 H1481 0.960 . S
C1474 C1472 1.381 . S
C1474 C1475 1.394 . S
C1474 H1482 0.930 . S
C1475 C1474 1.394 . S
C1475 C1476 1.383 . S
C1475 H1483 0.929 . S
C1476 C1475 1.383 . S
C1476 C1477 1.377 . S
C1477 H1461 0.930 . S
C1477 C1476 1.377 . S
C1477 C1478 1.379 . S
C1478 H1462 0.931 . S
C1478 C1472 1.383 . S
C1478 C1477 1.379 . S
H1479 C1473 0.959 . S
H1480 C1473 0.961 . S
H1481 C1473 0.960 . S
H1482 C1474 0.930 . S
H1483 C1475 0.929 . S
H1484 C1492 0.929 . S
H1485 C1494 0.930 . S
H1486 C1496 0.930 . S
H1487 C1499 0.929 . S
H1488 C1502 0.930 . S
H1489 C1504 0.960 . S
H1490 C1504 0.960 . S
H1491 C1504 0.960 . S
C1492 H1484 0.929 . S
C1492 C1493 1.377 . S
C1492 C1494 1.384 . S
C1493 C1492 1.377 . S
C1493 C1499 1.390 . S
C1494 H1485 0.930 . S
C1494 C1492 1.384 . S
C1494 C1495 1.372 . S
C1495 C1494 1.372 . S
C1495 C1496 1.400 . S
C1495 C1500 1.490 . S
C1496 H1486 0.930 . S
C1496 C1495 1.400 . S
C1496 C1499 1.386 . S
H1497 C1513 0.930 . S
H1498 C1514 0.931 . S
C1499 H1487 0.929 . S
C1499 C1493 1.390 . S
C1499 C1496 1.386 . S
C1500 C1495 1.490 . S
C1500 C1502 1.395 . S
C1500 C1503 1.403 . S
H1501 C1507 0.930 . S
C1502 H1488 0.930 . S
C1502 C1500 1.395 . S
C1502 C1505 1.403 . S
C1503 C1500 1.403 . S
C1503 C1504 1.524 . S
C1503 C1507 1.400 . S
C1504 H1489 0.960 . S
C1504 H1490 0.960 . S
C1504 H1491 0.960 . S
C1504 C1503 1.524 . S
C1505 C1502 1.403 . S
C1505 C1506 1.392 . S
C1505 C1509 1.495 . S
C1506 C1505 1.392 . S
C1506 C1507 1.385 . S
C1506 C1508 1.478 . S
C1507 H1501 0.930 . S
C1507 C1503 1.400 . S
C1507 C1506 1.385 . S
C1508 C1506 1.478 . S
C1508 C1510 1.381 . S
C1508 C1514 1.383 . S
C1509 C1505 1.495 . S
C1509 H1515 0.959 . S
C1509 H1516 0.961 . S
C1509 H1517 0.960 . S
C1510 C1508 1.381 . S
C1510 C1511 1.394 . S
C1510 H1518 0.930 . S
C1511 C1510 1.394 . S
C1511 C1512 1.383 . S
C1511 H1519 0.929 . S
C1512 C1511 1.383 . S
C1512 C1513 1.377 . S
C1513 H1497 0.930 . S
C1513 C1512 1.377 . S
C1513 C1514 1.379 . S
C1514 H1498 0.931 . S
C1514 C1508 1.383 . S
C1514 C1513 1.379 . S
H1515 C1509 0.959 . S
H1516 C1509 0.961 . S
H1517 C1509 0.960 . S
H1518 C1510 0.930 . S
H1519 C1511 0.929 . S
H1520 C1528 0.929 . S
H1521 C1530 0.930 . S
H1522 C1532 0.930 . S
H1523 C1535 0.929 . S
H1524 C1538 0.930 . S
H1525 C1540 0.960 . S
H1526 C1540 0.960 . S
H1527 C1540 0.960 . S
C1528 H1520 0.929 . S
C1528 C1529 1.377 . S
C1528 C1530 1.384 . S
C1529 C1528 1.377 . S
C1529 C1535 1.390 . S
C1530 H1521 0.930 . S
C1530 C1528 1.384 . S
C1530 C1531 1.372 . S
C1531 C1530 1.372 . S
C1531 C1532 1.400 . S
C1531 C1536 1.490 . S
C1532 H1522 0.930 . S
C1532 C1531 1.400 . S
C1532 C1535 1.386 . S
H1533 C1549 0.930 . S
H1534 C1550 0.931 . S
C1535 H1523 0.929 . S
C1535 C1529 1.390 . S
C1535 C1532 1.386 . S
C1536 C1531 1.490 . S
C1536 C1538 1.395 . S
C1536 C1539 1.403 . S
H1537 C1543 0.930 . S
C1538 H1524 0.930 . S
C1538 C1536 1.395 . S
C1538 C1541 1.403 . S
C1539 C1536 1.403 . S
C1539 C1540 1.524 . S
C1539 C1543 1.400 . S
C1540 H1525 0.960 . S
C1540 H1526 0.960 . S
C1540 H1527 0.960 . S
C1540 C1539 1.524 . S
C1541 C1538 1.403 . S
C1541 C1542 1.392 . S
C1541 C1545 1.495 . S
C1542 C1541 1.392 . S
C1542 C1543 1.385 . S
C1542 C1544 1.478 . S
C1543 H1537 0.930 . S
C1543 C1539 1.400 . S
C1543 C1542 1.385 . S
C1544 C1542 1.478 . S
C1544 C1546 1.381 . S
C1544 C1550 1.383 . S
C1545 C1541 1.495 . S
C1545 H1551 0.959 . S
C1545 H1552 0.961 . S
C1545 H1553 0.960 . S
C1546 C1544 1.381 . S
C1546 C1547 1.394 . S
C1546 H1554 0.930 . S
C1547 C1546 1.394 . S
C1547 C1548 1.383 . S
C1547 H1555 0.929 . S
C1548 C1547 1.383 . S
C1548 C1549 1.377 . S
C1549 H1533 0.930 . S
C1549 C1548 1.377 . S
C1549 C1550 1.379 . S
C1550 H1534 0.931 . S
C1550 C1544 1.383 . S
C1550 C1549 1.379 . S
H1551 C1545 0.959 . S
H1552 C1545 0.961 . S
H1553 C1545 0.960 . S
H1554 C1546 0.930 . S
H1555 C1547 0.929 . S
H1556 C1564 0.929 . S
H1557 C1566 0.930 . S
H1558 C1568 0.930 . S
H1559 C1571 0.929 . S
H1560 C1574 0.930 . S
H1561 C1576 0.960 . S
H1562 C1576 0.960 . S
H1563 C1576 0.960 . S
C1564 H1556 0.929 . S
C1564 C1565 1.377 . S
C1564 C1566 1.384 . S
C1565 C1564 1.377 . S
C1565 C1571 1.390 . S
C1566 H1557 0.930 . S
C1566 C1564 1.384 . S
C1566 C1567 1.372 . S
C1567 C1566 1.372 . S
C1567 C1568 1.400 . S
C1567 C1572 1.490 . S
C1568 H1558 0.930 . S
C1568 C1567 1.400 . S
C1568 C1571 1.386 . S
H1569 C1585 0.930 . S
H1570 C1586 0.931 . S
C1571 H1559 0.929 . S
C1571 C1565 1.390 . S
C1571 C1568 1.386 . S
C1572 C1567 1.490 . S
C1572 C1574 1.395 . S
C1572 C1575 1.403 . S
H1573 C1579 0.930 . S
C1574 H1560 0.930 . S
C1574 C1572 1.395 . S
C1574 C1577 1.403 1_554 S
C1575 C1572 1.403 . S
C1575 C1576 1.524 . S
C1575 C1579 1.400 1_554 S
C1576 H1561 0.960 . S
C1576 H1562 0.960 . S
C1576 H1563 0.960 . S
C1576 C1575 1.524 . S
C1577 C1574 1.403 1_556 S
C1577 C1578 1.392 . S
C1577 C1581 1.495 . S
C1578 C1577 1.392 . S
C1578 C1579 1.385 . S
C1578 C1580 1.478 . S
C1579 H1573 0.930 . S
C1579 C1575 1.400 1_556 S
C1579 C1578 1.385 . S
C1580 C1578 1.478 . S
C1580 C1582 1.381 . S
C1580 C1586 1.383 . S
C1581 C1577 1.495 . S
C1581 H1587 0.959 . S
C1581 H1588 0.961 . S
C1581 H1589 0.960 . S
C1582 C1580 1.381 . S
C1582 C1583 1.394 . S
C1582 H1590 0.930 . S
C1583 C1582 1.394 . S
C1583 C1584 1.383 . S
C1583 H1591 0.929 . S
C1584 C1583 1.383 . S
C1584 C1585 1.377 . S
C1585 H1569 0.930 . S
C1585 C1584 1.377 . S
C1585 C1586 1.379 . S
C1586 H1570 0.931 . S
C1586 C1580 1.383 . S
C1586 C1585 1.379 . S
H1587 C1581 0.959 . S
H1588 C1581 0.961 . S
H1589 C1581 0.960 . S
H1590 C1582 0.930 . S
H1591 C1583 0.929 . S
H1592 C1600 0.929 . S
H1593 C1602 0.930 . S
H1594 C1604 0.930 . S
H1595 C1607 0.929 . S
H1596 C1610 0.930 . S
H1597 C1612 0.960 . S
H1598 C1612 0.960 . S
H1599 C1612 0.960 . S
C1600 H1592 0.929 . S
C1600 C1601 1.377 . S
C1600 C1602 1.384 . S
C1601 C1600 1.377 . S
C1601 C1607 1.390 . S
C1602 H1593 0.930 . S
C1602 C1600 1.384 . S
C1602 C1603 1.372 . S
C1603 C1602 1.372 . S
C1603 C1604 1.400 . S
C1603 C1608 1.490 . S
C1604 H1594 0.930 . S
C1604 C1603 1.400 . S
C1604 C1607 1.386 . S
H1605 C1621 0.930 . S
H1606 C1622 0.931 . S
C1607 H1595 0.929 . S
C1607 C1601 1.390 . S
C1607 C1604 1.386 . S
C1608 C1603 1.490 . S
C1608 C1610 1.395 . S
C1608 C1611 1.403 . S
H1609 C1615 0.930 . S
C1610 H1596 0.930 . S
C1610 C1608 1.395 . S
C1610 C1613 1.403 . S
C1611 C1608 1.403 . S
C1611 C1612 1.524 . S
C1611 C1615 1.400 . S
C1612 H1597 0.960 . S
C1612 H1598 0.960 . S
C1612 H1599 0.960 . S
C1612 C1611 1.524 . S
C1613 C1610 1.403 . S
C1613 C1614 1.392 . S
C1613 C1617 1.495 . S
C1614 C1613 1.392 . S
C1614 C1615 1.385 . S
C1614 C1616 1.478 . S
C1615 H1609 0.930 . S
C1615 C1611 1.400 . S
C1615 C1614 1.385 . S
C1616 C1614 1.478 . S
C1616 C1618 1.381 . S
C1616 C1622 1.383 . S
C1617 C1613 1.495 . S
C1617 H1623 0.959 . S
C1617 H1624 0.961 . S
C1617 H1625 0.960 . S
C1618 C1616 1.381 . S
C1618 C1619 1.394 . S
C1618 H1626 0.930 . S
C1619 C1618 1.394 . S
C1619 C1620 1.383 . S
C1619 H1627 0.929 . S
C1620 C1619 1.383 . S
C1620 C1621 1.377 . S
C1621 H1605 0.930 . S
C1621 C1620 1.377 . S
C1621 C1622 1.379 . S
C1622 H1606 0.931 . S
C1622 C1616 1.383 . S
C1622 C1621 1.379 . S
H1623 C1617 0.959 . S
H1624 C1617 0.961 . S
H1625 C1617 0.960 . S
H1626 C1618 0.930 . S
H1627 C1619 0.929 . S
H1628 C1636 0.929 . S
H1629 C1638 0.930 . S
H1630 C1640 0.930 . S
H1631 C1643 0.929 . S
H1632 C1646 0.930 . S
H1633 C1648 0.960 . S
H1634 C1648 0.960 . S
H1635 C1648 0.960 . S
C1636 H1628 0.929 . S
C1636 C1637 1.377 . S
C1636 C1638 1.384 . S
C1637 C1636 1.377 . S
C1637 C1643 1.390 . S
C1638 H1629 0.930 . S
C1638 C1636 1.384 . S
C1638 C1639 1.372 . S
C1639 C1638 1.372 . S
C1639 C1640 1.400 . S
C1639 C1644 1.490 . S
C1640 H1630 0.930 . S
C1640 C1639 1.400 . S
C1640 C1643 1.386 . S
H1641 C1657 0.930 . S
H1642 C1658 0.931 . S
C1643 H1631 0.929 . S
C1643 C1637 1.390 . S
C1643 C1640 1.386 . S
C1644 C1639 1.490 . S
C1644 C1646 1.395 . S
C1644 C1647 1.403 . S
H1645 C1651 0.930 . S
C1646 H1632 0.930 . S
C1646 C1644 1.395 . S
C1646 C1649 1.403 . S
C1647 C1644 1.403 . S
C1647 C1648 1.524 . S
C1647 C1651 1.400 . S
C1648 H1633 0.960 . S
C1648 H1634 0.960 . S
C1648 H1635 0.960 . S
C1648 C1647 1.524 . S
C1649 C1646 1.403 . S
C1649 C1650 1.392 . S
C1649 C1653 1.495 . S
C1650 C1649 1.392 . S
C1650 C1651 1.385 . S
C1650 C1652 1.478 . S
C1651 H1645 0.930 . S
C1651 C1647 1.400 . S
C1651 C1650 1.385 . S
C1652 C1650 1.478 . S
C1652 C1654 1.381 . S
C1652 C1658 1.383 . S
C1653 C1649 1.495 . S
C1653 H1659 0.959 . S
C1653 H1660 0.961 . S
C1653 H1661 0.960 . S
C1654 C1652 1.381 . S
C1654 C1655 1.394 . S
C1654 H1662 0.930 . S
C1655 C1654 1.394 . S
C1655 C1656 1.383 . S
C1655 H1663 0.929 . S
C1656 C1655 1.383 . S
C1656 C1657 1.377 . S
C1657 H1641 0.930 . S
C1657 C1656 1.377 . S
C1657 C1658 1.379 . S
C1658 H1642 0.931 . S
C1658 C1652 1.383 . S
C1658 C1657 1.379 . S
H1659 C1653 0.959 . S
H1660 C1653 0.961 . S
H1661 C1653 0.960 . S
H1662 C1654 0.930 . S
H1663 C1655 0.929 . S
H1664 C1672 0.929 . S
H1665 C1674 0.930 . S
H1666 C1676 0.930 . S
H1667 C1679 0.929 . S
H1668 C1682 0.930 . S
H1669 C1684 0.960 . S
H1670 C1684 0.960 . S
H1671 C1684 0.960 . S
C1672 H1664 0.929 . S
C1672 C1673 1.377 . S
C1672 C1674 1.384 . S
C1673 C1672 1.377 . S
C1673 C1679 1.390 . S
C1674 H1665 0.930 . S
C1674 C1672 1.384 . S
C1674 C1675 1.372 . S
C1675 C1674 1.372 . S
C1675 C1676 1.400 . S
C1675 C1680 1.490 . S
C1676 H1666 0.930 . S
C1676 C1675 1.400 . S
C1676 C1679 1.386 . S
H1677 C1693 0.930 . S
H1678 C1694 0.931 . S
C1679 H1667 0.929 . S
C1679 C1673 1.390 . S
C1679 C1676 1.386 . S
C1680 C1675 1.490 . S
C1680 C1682 1.395 1_455 S
C1680 C1683 1.403 . S
H1681 C1687 0.930 . S
C1682 H1668 0.930 . S
C1682 C1680 1.395 1_655 S
C1682 C1685 1.403 . S
C1683 C1680 1.403 . S
C1683 C1684 1.524 . S
C1683 C1687 1.400 . S
C1684 H1669 0.960 . S
C1684 H1670 0.960 . S
C1684 H1671 0.960 . S
C1684 C1683 1.524 . S
C1685 C1682 1.403 . S
C1685 C1686 1.392 . S
C1685 C1689 1.495 . S
C1686 C1685 1.392 . S
C1686 C1687 1.385 1_655 S
C1686 C1688 1.478 . S
C1687 H1681 0.930 . S
C1687 C1683 1.400 . S
C1687 C1686 1.385 1_455 S
C1688 C1686 1.478 . S
C1688 C1690 1.381 . S
C1688 C1694 1.383 . S
C1689 C1685 1.495 . S
C1689 H1695 0.959 . S
C1689 H1696 0.961 . S
C1689 H1697 0.960 . S
C1690 C1688 1.381 . S
C1690 C1691 1.394 . S
C1690 H1698 0.930 . S
C1691 C1690 1.394 . S
C1691 C1692 1.383 . S
C1691 H1699 0.929 . S
C1692 C1691 1.383 . S
C1692 C1693 1.377 . S
C1693 H1677 0.930 . S
C1693 C1692 1.377 . S
C1693 C1694 1.379 . S
C1694 H1678 0.931 . S
C1694 C1688 1.383 . S
C1694 C1693 1.379 . S
H1695 C1689 0.959 . S
H1696 C1689 0.961 . S
H1697 C1689 0.960 . S
H1698 C1690 0.930 . S
H1699 C1691 0.929 . S
H1700 C1708 0.929 . S
H1701 C1710 0.930 . S
H1702 C1712 0.930 . S
H1703 C1715 0.929 . S
H1704 C1718 0.930 . S
H1705 C1720 0.960 . S
H1706 C1720 0.960 . S
H1707 C1720 0.960 . S
C1708 H1700 0.929 . S
C1708 C1709 1.377 . S
C1708 C1710 1.384 . S
C1709 C1708 1.377 . S
C1709 C1715 1.390 . S
C1710 H1701 0.930 . S
C1710 C1708 1.384 . S
C1710 C1711 1.372 . S
C1711 C1710 1.372 . S
C1711 C1712 1.400 . S
C1711 C1716 1.490 . S
C1712 H1702 0.930 . S
C1712 C1711 1.400 . S
C1712 C1715 1.386 . S
H1713 C1729 0.930 . S
H1714 C1730 0.931 . S
C1715 H1703 0.929 . S
C1715 C1709 1.390 . S
C1715 C1712 1.386 . S
C1716 C1711 1.490 . S
C1716 C1718 1.395 1_455 S
C1716 C1719 1.403 . S
H1717 C1723 0.929 1_455 S
C1718 H1704 0.930 . S
C1718 C1716 1.395 1_655 S
C1718 C1721 1.403 . S
C1719 C1716 1.403 . S
C1719 C1720 1.524 . S
C1719 C1723 1.386 1_455 S
C1720 H1705 0.960 . S
C1720 H1706 0.960 . S
C1720 H1707 0.960 . S
C1720 C1719 1.524 . S
C1721 C1718 1.403 . S
C1721 C1722 1.392 . S
C1721 C1725 1.495 . S
C1722 C1721 1.392 . S
C1722 C1723 1.400 . S
C1722 C1724 1.478 . S
C1723 H1717 0.929 1_655 S
C1723 C1719 1.386 1_655 S
C1723 C1722 1.400 . S
C1724 C1722 1.478 . S
C1724 C1726 1.381 . S
C1724 C1730 1.383 . S
C1725 C1721 1.495 . S
C1725 H1731 0.959 . S
C1725 H1732 0.961 . S
C1725 H1733 0.960 . S
C1726 C1724 1.381 . S
C1726 C1727 1.394 . S
C1726 H1734 0.930 . S
C1727 C1726 1.394 . S
C1727 C1728 1.383 . S
C1727 H1735 0.929 . S
C1728 C1727 1.383 . S
C1728 C1729 1.377 . S
C1729 H1713 0.930 . S
C1729 C1728 1.377 . S
C1729 C1730 1.379 . S
C1730 H1714 0.931 . S
C1730 C1724 1.383 . S
C1730 C1729 1.379 . S
H1731 C1725 0.959 . S
H1732 C1725 0.961 . S
H1733 C1725 0.960 . S
H1734 C1726 0.930 . S
H1735 C1727 0.929 . S
H1736 C1744 0.929 . S
H1737 C1746 0.930 . S
H1738 C1748 0.930 . S
H1739 C1751 0.929 . S
H1740 C1754 0.930 . S
H1741 C1756 0.960 . S
H1742 C1756 0.960 . S
H1743 C1756 0.960 . S
C1744 H1736 0.929 . S
C1744 C1745 1.377 . S
C1744 C1746 1.384 . S
C1745 C1744 1.377 . S
C1745 C1751 1.390 . S
C1746 H1737 0.930 . S
C1746 C1744 1.384 . S
C1746 C1747 1.372 . S
C1747 C1746 1.372 . S
C1747 C1748 1.400 . S
C1747 C1752 1.490 . S
C1748 H1738 0.930 . S
C1748 C1747 1.400 . S
C1748 C1751 1.386 . S
H1749 C1765 0.930 . S
H1750 C1766 0.931 . S
C1751 H1739 0.929 . S
C1751 C1745 1.390 . S
C1751 C1748 1.386 . S
C1752 C1747 1.490 . S
C1752 C1754 1.395 . S
C1752 C1755 1.403 . S
H1753 C1759 0.930 . S
C1754 H1740 0.930 . S
C1754 C1752 1.395 . S
C1754 C1757 1.403 . S
C1755 C1752 1.403 . S
C1755 C1756 1.524 . S
C1755 C1759 1.400 . S
C1756 H1741 0.960 . S
C1756 H1742 0.960 . S
C1756 H1743 0.960 . S
C1756 C1755 1.524 . S
C1757 C1754 1.403 . S
C1757 C1758 1.392 . S
C1757 C1761 1.495 . S
C1758 C1757 1.392 . S
C1758 C1759 1.385 . S
C1758 C1760 1.478 . S
C1759 H1753 0.930 . S
C1759 C1755 1.400 . S
C1759 C1758 1.385 . S
C1760 C1758 1.478 . S
C1760 C1762 1.381 . S
C1760 C1766 1.383 . S
C1761 C1757 1.495 . S
C1761 H1767 0.959 . S
C1761 H1768 0.961 . S
C1761 H1769 0.960 . S
C1762 C1760 1.381 . S
C1762 C1763 1.394 . S
C1762 H1770 0.930 . S
C1763 C1762 1.394 . S
C1763 C1764 1.383 . S
C1763 H1771 0.929 . S
C1764 C1763 1.383 . S
C1764 C1765 1.377 . S
C1765 H1749 0.930 . S
C1765 C1764 1.377 . S
C1765 C1766 1.379 . S
C1766 H1750 0.931 . S
C1766 C1760 1.383 . S
C1766 C1765 1.379 . S
H1767 C1761 0.959 . S
H1768 C1761 0.961 . S
H1769 C1761 0.960 . S
H1770 C1762 0.930 . S
H1771 C1763 0.929 . S
H1772 C1780 0.929 . S
H1773 C1782 0.930 . S
H1774 C1784 0.930 . S
H1775 C1787 0.929 . S
H1776 C1790 0.930 . S
H1777 C1792 0.960 . S
H1778 C1792 0.960 . S
H1779 C1792 0.960 . S
C1780 H1772 0.929 . S
C1780 C1781 1.377 . S
C1780 C1782 1.384 . S
C1781 C1780 1.377 . S
C1781 C1787 1.390 . S
C1782 H1773 0.930 . S
C1782 C1780 1.384 . S
C1782 C1783 1.372 . S
C1783 C1782 1.372 . S
C1783 C1784 1.400 . S
C1783 C1788 1.490 . S
C1784 H1774 0.930 . S
C1784 C1783 1.400 . S
C1784 C1787 1.386 . S
H1785 C1801 0.930 . S
H1786 C1802 0.931 . S
C1787 H1775 0.929 . S
C1787 C1781 1.390 . S
C1787 C1784 1.386 . S
C1788 C1783 1.490 . S
C1788 C1790 1.395 . S
C1788 C1791 1.403 . S
H1789 C1795 0.930 . S
C1790 H1776 0.930 . S
C1790 C1788 1.395 . S
C1790 C1793 1.403 . S
C1791 C1788 1.403 . S
C1791 C1792 1.524 . S
C1791 C1795 1.400 . S
C1792 H1777 0.960 . S
C1792 H1778 0.960 . S
C1792 H1779 0.960 . S
C1792 C1791 1.524 . S
C1793 C1790 1.403 . S
C1793 C1794 1.392 . S
C1793 C1797 1.495 . S
C1794 C1793 1.392 . S
C1794 C1795 1.385 . S
C1794 C1796 1.478 . S
C1795 H1789 0.930 . S
C1795 C1791 1.400 . S
C1795 C1794 1.385 . S
C1796 C1794 1.478 . S
C1796 C1798 1.381 . S
C1796 C1802 1.383 . S
C1797 C1793 1.495 . S
C1797 H1803 0.959 . S
C1797 H1804 0.961 . S
C1797 H1805 0.960 . S
C1798 C1796 1.381 . S
C1798 C1799 1.394 . S
C1798 H1806 0.930 . S
C1799 C1798 1.394 . S
C1799 C1800 1.383 . S
C1799 H1807 0.929 . S
C1800 C1799 1.383 . S
C1800 C1801 1.377 . S
C1801 H1785 0.930 . S
C1801 C1800 1.377 . S
C1801 C1802 1.379 . S
C1802 H1786 0.931 . S
C1802 C1796 1.383 . S
C1802 C1801 1.379 . S
H1803 C1797 0.959 . S
H1804 C1797 0.961 . S
H1805 C1797 0.960 . S
H1806 C1798 0.930 . S
H1807 C1799 0.929 . S
H1808 C1816 0.929 . S
H1809 C1818 0.930 . S
H1810 C1820 0.930 . S
H1811 C1823 0.929 . S
H1812 C1826 0.930 . S
H1813 C1828 0.960 . S
H1814 C1828 0.960 . S
H1815 C1828 0.960 1_455 S
C1816 H1808 0.929 . S
C1816 C1817 1.377 . S
C1816 C1818 1.384 . S
C1817 C1816 1.377 . S
C1817 C1823 1.390 . S
C1818 H1809 0.930 . S
C1818 C1816 1.384 . S
C1818 C1819 1.372 . S
C1819 C1818 1.372 . S
C1819 C1820 1.400 . S
C1819 C1824 1.490 . S
C1820 H1810 0.930 . S
C1820 C1819 1.400 . S
C1820 C1823 1.386 . S
H1821 C1837 0.930 . S
H1822 C1838 0.931 . S
C1823 H1811 0.929 . S
C1823 C1817 1.390 . S
C1823 C1820 1.386 . S
C1824 C1819 1.490 . S
C1824 C1826 1.395 . S
C1824 C1827 1.403 1_455 S
H1825 C1831 0.930 . S
C1826 H1812 0.930 . S
C1826 C1824 1.395 . S
C1826 C1829 1.403 . S
C1827 C1824 1.403 1_655 S
C1827 C1828 1.524 . S
C1827 C1831 1.400 . S
C1828 H1813 0.960 . S
C1828 H1814 0.960 . S
C1828 H1815 0.960 1_655 S
C1828 C1827 1.524 . S
C1829 C1826 1.403 . S
C1829 C1830 1.392 1_455 S
C1829 C1833 1.495 . S
C1830 C1829 1.392 1_655 S
C1830 C1831 1.385 . S
C1830 C1832 1.478 . S
C1831 H1825 0.930 . S
C1831 C1827 1.400 . S
C1831 C1830 1.385 . S
C1832 C1830 1.478 . S
C1832 C1834 1.381 . S
C1832 C1838 1.383 . S
C1833 C1829 1.495 . S
C1833 H1839 0.959 . S
C1833 H1840 0.961 . S
C1833 H1841 0.960 1_455 S
C1834 C1832 1.381 . S
C1834 C1835 1.394 . S
C1834 H1842 0.930 . S
C1835 C1834 1.394 . S
C1835 C1836 1.383 . S
C1835 H1843 0.929 . S
C1836 C1835 1.383 . S
C1836 C1837 1.377 . S
C1837 H1821 0.930 . S
C1837 C1836 1.377 . S
C1837 C1838 1.379 . S
C1838 H1822 0.931 . S
C1838 C1832 1.383 . S
C1838 C1837 1.379 . S
H1839 C1833 0.959 . S
H1840 C1833 0.961 . S
H1841 C1833 0.960 1_655 S
H1842 C1834 0.930 . S
H1843 C1835 0.929 . S
H1844 C1852 0.929 . S
H1845 C1854 0.930 . S
H1846 C1856 0.930 . S
H1847 C1859 0.929 . S
H1848 C1862 0.930 . S
H1849 C1864 0.960 . S
H1850 C1864 0.960 . S
H1851 C1864 0.960 . S
C1852 H1844 0.929 . S
C1852 C1853 1.377 . S
C1852 C1854 1.384 . S
C1853 C1852 1.377 . S
C1853 C1859 1.390 . S
C1854 H1845 0.930 . S
C1854 C1852 1.384 . S
C1854 C1855 1.372 . S
C1855 C1854 1.372 . S
C1855 C1856 1.400 . S
C1855 C1860 1.490 . S
C1856 H1846 0.930 . S
C1856 C1855 1.400 . S
C1856 C1859 1.386 . S
H1857 C1873 0.930 . S
H1858 C1874 0.931 . S
C1859 H1847 0.929 . S
C1859 C1853 1.390 . S
C1859 C1856 1.386 . S
C1860 C1855 1.490 . S
C1860 C1862 1.395 . S
C1860 C1863 1.403 . S
H1861 C1867 0.930 . S
C1862 H1848 0.930 . S
C1862 C1860 1.395 . S
C1862 C1865 1.403 . S
C1863 C1860 1.403 . S
C1863 C1864 1.524 . S
C1863 C1867 1.400 . S
C1864 H1849 0.960 . S
C1864 H1850 0.960 . S
C1864 H1851 0.960 . S
C1864 C1863 1.524 . S
C1865 C1862 1.403 . S
C1865 C1866 1.392 . S
C1865 C1869 1.495 . S
C1866 C1865 1.392 . S
C1866 C1867 1.385 . S
C1866 C1868 1.478 . S
C1867 H1861 0.930 . S
C1867 C1863 1.400 . S
C1867 C1866 1.385 . S
C1868 C1866 1.478 . S
C1868 C1870 1.381 . S
C1868 C1874 1.383 . S
C1869 C1865 1.495 . S
C1869 H1875 0.959 . S
C1869 H1876 0.961 . S
C1869 H1877 0.960 . S
C1870 C1868 1.381 . S
C1870 C1871 1.394 . S
C1870 H1878 0.930 . S
C1871 C1870 1.394 . S
C1871 C1872 1.383 . S
C1871 H1879 0.929 . S
C1872 C1871 1.383 . S
C1872 C1873 1.377 . S
C1873 H1857 0.930 . S
C1873 C1872 1.377 . S
C1873 C1874 1.379 . S
C1874 H1858 0.931 . S
C1874 C1868 1.383 . S
C1874 C1873 1.379 . S
H1875 C1869 0.959 . S
H1876 C1869 0.961 . S
H1877 C1869 0.960 . S
H1878 C1870 0.930 . S
H1879 C1871 0.929 . S
H1880 C1888 0.929 . S
H1881 C1890 0.930 . S
H1882 C1892 0.930 . S
H1883 C1895 0.929 . S
H1884 C1898 0.930 . S
H1885 C1900 0.960 . S
H1886 C1900 0.960 . S
H1887 C1900 0.960 . S
C1888 H1880 0.929 . S
C1888 C1889 1.377 . S
C1888 C1890 1.384 . S
C1889 C1888 1.377 . S
C1889 C1895 1.390 . S
C1890 H1881 0.930 . S
C1890 C1888 1.384 . S
C1890 C1891 1.372 . S
C1891 C1890 1.372 . S
C1891 C1892 1.400 . S
C1891 C1896 1.490 . S
C1892 H1882 0.930 . S
C1892 C1891 1.400 . S
C1892 C1895 1.386 . S
H1893 C1909 0.930 . S
H1894 C1910 0.931 . S
C1895 H1883 0.929 . S
C1895 C1889 1.390 . S
C1895 C1892 1.386 . S
C1896 C1891 1.490 . S
C1896 C1898 1.395 . S
C1896 C1899 1.403 . S
H1897 C1903 0.930 . S
C1898 H1884 0.930 . S
C1898 C1896 1.395 . S
C1898 C1901 1.403 . S
C1899 C1896 1.403 . S
C1899 C1900 1.524 . S
C1899 C1903 1.400 . S
C1900 H1885 0.960 . S
C1900 H1886 0.960 . S
C1900 H1887 0.960 . S
C1900 C1899 1.524 . S
C1901 C1898 1.403 . S
C1901 C1902 1.392 . S
C1901 C1905 1.495 . S
C1902 C1901 1.392 . S
C1902 C1903 1.385 . S
C1902 C1904 1.478 . S
C1903 H1897 0.930 . S
C1903 C1899 1.400 . S
C1903 C1902 1.385 . S
C1904 C1902 1.478 . S
C1904 C1906 1.381 . S
C1904 C1910 1.383 . S
C1905 C1901 1.495 . S
C1905 H1911 0.959 . S
C1905 H1912 0.961 . S
C1905 H1913 0.960 . S
C1906 C1904 1.381 . S
C1906 C1907 1.394 . S
C1906 H1914 0.930 . S
C1907 C1906 1.394 . S
C1907 C1908 1.383 . S
C1907 H1915 0.929 . S
C1908 C1907 1.383 . S
C1908 C1909 1.377 . S
C1909 H1893 0.930 . S
C1909 C1908 1.377 . S
C1909 C1910 1.379 . S
C1910 H1894 0.931 . S
C1910 C1904 1.383 . S
C1910 C1909 1.379 . S
H1911 C1905 0.959 . S
H1912 C1905 0.961 . S
H1913 C1905 0.960 . S
H1914 C1906 0.930 . S
H1915 C1907 0.929 . S
H1916 C1924 0.929 . S
H1917 C1926 0.930 . S
H1918 C1928 0.930 . S
H1919 C1931 0.929 . S
H1920 C1934 0.930 . S
H1921 C1936 0.974 . S
H1922 C1936 0.961 . S
H1923 C1936 0.946 1_455 S
C1924 H1916 0.929 . S
C1924 C1925 1.377 . S
C1924 C1926 1.384 . S
C1925 C1924 1.377 . S
C1925 C1931 1.390 . S
C1926 H1917 0.930 . S
C1926 C1924 1.384 . S
C1926 C1927 1.372 . S
C1927 C1926 1.372 . S
C1927 C1928 1.400 . S
C1927 C1932 1.490 . S
C1928 H1918 0.930 . S
C1928 C1927 1.400 . S
C1928 C1931 1.386 . S
H1929 C1945 0.930 . S
H1930 C1946 0.931 . S
C1931 H1919 0.929 . S
C1931 C1925 1.390 . S
C1931 C1928 1.386 . S
C1932 C1927 1.490 . S
C1932 C1934 1.395 . S
C1932 C1935 1.403 . S
H1933 C1939 0.930 . S
C1934 H1920 0.930 . S
C1934 C1932 1.395 . S
C1934 C1937 1.390 1_455 S
C1935 C1932 1.403 . S
C1935 C1936 1.523 1_455 S
C1935 C1939 1.400 1_455 S
C1936 H1921 0.974 . S
C1936 H1922 0.961 . S
C1936 H1923 0.946 1_655 S
C1936 C1935 1.523 1_655 S
C1937 C1934 1.390 1_655 S
C1937 C1938 1.406 . S
C1937 C1941 1.495 . S
C1938 C1937 1.406 . S
C1938 C1939 1.385 . S
C1938 C1940 1.478 . S
C1939 H1933 0.930 . S
C1939 C1935 1.400 1_655 S
C1939 C1938 1.385 . S
C1940 C1938 1.478 . S
C1940 C1942 1.381 . S
C1940 C1946 1.383 . S
C1941 C1937 1.495 . S
C1941 H1947 0.957 1_655 S
C1941 H1948 0.960 1_655 S
C1941 H1949 0.962 . S
C1942 C1940 1.381 . S
C1942 C1943 1.394 . S
C1942 H1950 0.930 . S
C1943 C1942 1.394 . S
C1943 C1944 1.383 . S
C1943 H1951 0.929 . S
C1944 C1943 1.383 . S
C1944 C1945 1.377 . S
C1945 H1929 0.930 . S
C1945 C1944 1.377 . S
C1945 C1946 1.379 . S
C1946 H1930 0.931 . S
C1946 C1940 1.383 . S
C1946 C1945 1.379 . S
H1947 C1941 0.957 1_455 S
H1948 C1941 0.960 1_455 S
H1949 C1941 0.962 . S
H1950 C1942 0.930 . S
H1951 C1943 0.929 . S
H1952 C1960 0.929 . S
H1953 C1962 0.930 . S
H1954 C1964 0.930 . S
H1955 C1967 0.929 . S
H1956 C1970 0.930 . S
H1957 C1972 0.960 . S
H1958 C1972 0.960 . S
H1959 C1972 0.960 . S
C1960 H1952 0.929 . S
C1960 C1961 1.377 . S
C1960 C1962 1.384 . S
C1961 C1960 1.377 . S
C1961 C1967 1.390 . S
C1962 H1953 0.930 . S
C1962 C1960 1.384 . S
C1962 C1963 1.372 . S
C1963 C1962 1.372 . S
C1963 C1964 1.400 . S
C1963 C1968 1.490 . S
C1964 H1954 0.930 . S
C1964 C1963 1.400 . S
C1964 C1967 1.386 . S
H1965 C1981 0.930 . S
H1966 C1982 0.931 . S
C1967 H1955 0.929 . S
C1967 C1961 1.390 . S
C1967 C1964 1.386 . S
C1968 C1963 1.490 . S
C1968 C1970 1.395 . S
C1968 C1971 1.403 . S
H1969 C1975 0.930 . S
C1970 H1956 0.930 . S
C1970 C1968 1.395 . S
C1970 C1973 1.403 1_455 S
C1971 C1968 1.403 . S
C1971 C1972 1.524 . S
C1971 C1975 1.400 1_455 S
C1972 H1957 0.960 . S
C1972 H1958 0.960 . S
C1972 H1959 0.960 . S
C1972 C1971 1.524 . S
C1973 C1970 1.403 1_655 S
C1973 C1974 1.392 . S
C1973 C1977 1.495 . S
C1974 C1973 1.392 . S
C1974 C1975 1.385 . S
C1974 C1976 1.478 . S
C1975 H1969 0.930 . S
C1975 C1971 1.400 1_655 S
C1975 C1974 1.385 . S
C1976 C1974 1.478 . S
C1976 C1978 1.381 . S
C1976 C1982 1.383 . S
C1977 C1973 1.495 . S
C1977 H1983 0.959 . S
C1977 H1984 0.961 . S
C1977 H1985 0.960 . S
C1978 C1976 1.381 . S
C1978 C1979 1.394 . S
C1978 H1986 0.930 . S
C1979 C1978 1.394 . S
C1979 C1980 1.383 . S
C1979 H1987 0.929 . S
C1980 C1979 1.383 . S
C1980 C1981 1.377 . S
C1981 H1965 0.930 . S
C1981 C1980 1.377 . S
C1981 C1982 1.379 . S
C1982 H1966 0.931 . S
C1982 C1976 1.383 . S
C1982 C1981 1.379 . S
H1983 C1977 0.959 . S
H1984 C1977 0.961 . S
H1985 C1977 0.960 . S
H1986 C1978 0.930 . S
H1987 C1979 0.929 . S
H1988 C1996 0.929 . S
H1989 C1998 0.930 . S
H1990 C2000 0.930 . S
H1991 C2003 0.929 . S
H1992 C2006 0.930 . S
H1993 C2008 0.960 . S
H1994 C2008 0.960 . S
H1995 C2008 0.960 . S
C1996 H1988 0.929 . S
C1996 C1997 1.377 . S
C1996 C1998 1.384 . S
C1997 C1996 1.377 . S
C1997 C2003 1.390 . S
C1998 H1989 0.930 . S
C1998 C1996 1.384 . S
C1998 C1999 1.372 . S
C1999 C1998 1.372 . S
C1999 C2000 1.400 . S
C1999 C2004 1.490 . S
C2000 H1990 0.930 . S
C2000 C1999 1.400 . S
C2000 C2003 1.386 . S
H2001 C2017 0.930 . S
H2002 C2018 0.931 . S
C2003 H1991 0.929 . S
C2003 C1997 1.390 . S
C2003 C2000 1.386 . S
C2004 C1999 1.490 . S
C2004 C2006 1.395 . S
C2004 C2007 1.403 . S
H2005 C2011 0.930 . S
C2006 H1992 0.930 . S
C2006 C2004 1.395 . S
C2006 C2009 1.403 1_655 S
C2007 C2004 1.403 . S
C2007 C2008 1.524 . S
C2007 C2011 1.400 1_655 S
C2008 H1993 0.960 . S
C2008 H1994 0.960 . S
C2008 H1995 0.960 . S
C2008 C2007 1.524 . S
C2009 C2006 1.403 1_455 S
C2009 C2010 1.392 . S
C2009 C2013 1.495 . S
C2010 C2009 1.392 . S
C2010 C2011 1.385 . S
C2010 C2012 1.478 . S
C2011 H2005 0.930 . S
C2011 C2007 1.400 1_455 S
C2011 C2010 1.385 . S
C2012 C2010 1.478 . S
C2012 C2014 1.381 . S
C2012 C2018 1.383 . S
C2013 C2009 1.495 . S
C2013 H2019 0.959 . S
C2013 H2020 0.961 . S
C2013 H2021 0.960 . S
C2014 C2012 1.381 . S
C2014 C2015 1.394 . S
C2014 H2022 0.930 . S
C2015 C2014 1.394 . S
C2015 C2016 1.383 . S
C2015 H2023 0.929 . S
C2016 C2015 1.383 . S
C2016 C2017 1.377 . S
C2017 H2001 0.930 . S
C2017 C2016 1.377 . S
C2017 C2018 1.379 . S
C2018 H2002 0.931 . S
C2018 C2012 1.383 . S
C2018 C2017 1.379 . S
H2019 C2013 0.959 . S
H2020 C2013 0.961 . S
H2021 C2013 0.960 . S
H2022 C2014 0.930 . S
H2023 C2015 0.929 . S
H2024 C2032 0.929 . S
H2025 C2034 0.930 . S
H2026 C2036 0.930 . S
H2027 C2039 0.929 . S
H2028 C2042 0.930 . S
H2029 C2044 0.960 . S
H2030 C2044 0.960 . S
H2031 C2044 0.960 . S
C2032 H2024 0.929 . S
C2032 C2033 1.377 . S
C2032 C2034 1.384 . S
C2033 C2032 1.377 . S
C2033 C2039 1.390 . S
C2034 H2025 0.930 . S
C2034 C2032 1.384 . S
C2034 C2035 1.372 . S
C2035 C2034 1.372 . S
C2035 C2036 1.400 . S
C2035 C2040 1.490 . S
C2036 H2026 0.930 . S
C2036 C2035 1.400 . S
C2036 C2039 1.386 . S
H2037 C2053 0.930 . S
H2038 C2054 0.931 . S
C2039 H2027 0.929 . S
C2039 C2033 1.390 . S
C2039 C2036 1.386 . S
C2040 C2035 1.490 . S
C2040 C2042 1.395 . S
C2040 C2043 1.403 . S
H2041 C2047 0.930 . S
C2042 H2028 0.930 . S
C2042 C2040 1.395 . S
C2042 C2045 1.403 . S
C2043 C2040 1.403 . S
C2043 C2044 1.524 . S
C2043 C2047 1.400 . S
C2044 H2029 0.960 . S
C2044 H2030 0.960 . S
C2044 H2031 0.960 . S
C2044 C2043 1.524 . S
C2045 C2042 1.403 . S
C2045 C2046 1.392 . S
C2045 C2049 1.495 . S
C2046 C2045 1.392 . S
C2046 C2047 1.385 . S
C2046 C2048 1.478 . S
C2047 H2041 0.930 . S
C2047 C2043 1.400 . S
C2047 C2046 1.385 . S
C2048 C2046 1.478 . S
C2048 C2050 1.381 . S
C2048 C2054 1.383 . S
C2049 C2045 1.495 . S
C2049 H2055 0.959 . S
C2049 H2056 0.961 . S
C2049 H2057 0.960 . S
C2050 C2048 1.381 . S
C2050 C2051 1.394 . S
C2050 H2058 0.930 . S
C2051 C2050 1.394 . S
C2051 C2052 1.383 . S
C2051 H2059 0.929 . S
C2052 C2051 1.383 . S
C2052 C2053 1.377 . S
C2053 H2037 0.930 . S
C2053 C2052 1.377 . S
C2053 C2054 1.379 . S
C2054 H2038 0.931 . S
C2054 C2048 1.383 . S
C2054 C2053 1.379 . S
H2055 C2049 0.959 . S
H2056 C2049 0.961 . S
H2057 C2049 0.960 . S
H2058 C2050 0.930 . S
H2059 C2051 0.929 . S
H2060 C2068 0.929 . S
H2061 C2070 0.930 . S
H2062 C2072 0.930 . S
H2063 C2075 0.929 . S
H2064 C2078 0.930 . S
H2065 C2080 0.960 . S
H2066 C2080 0.960 . S
H2067 C2080 0.960 . S
C2068 H2060 0.929 . S
C2068 C2069 1.377 . S
C2068 C2070 1.384 . S
C2069 C2068 1.377 . S
C2069 C2075 1.390 . S
C2070 H2061 0.930 . S
C2070 C2068 1.384 . S
C2070 C2071 1.372 . S
C2071 C2070 1.372 . S
C2071 C2072 1.400 . S
C2071 C2076 1.490 . S
C2072 H2062 0.930 . S
C2072 C2071 1.400 . S
C2072 C2075 1.386 . S
H2073 C2089 0.930 . S
H2074 C2090 0.931 . S
C2075 H2063 0.929 . S
C2075 C2069 1.390 . S
C2075 C2072 1.386 . S
C2076 C2071 1.490 . S
C2076 C2078 1.395 . S
C2076 C2079 1.403 . S
H2077 C2083 0.930 . S
C2078 H2064 0.930 . S
C2078 C2076 1.395 . S
C2078 C2081 1.403 . S
C2079 C2076 1.403 . S
C2079 C2080 1.524 . S
C2079 C2083 1.400 . S
C2080 H2065 0.960 . S
C2080 H2066 0.960 . S
C2080 H2067 0.960 . S
C2080 C2079 1.524 . S
C2081 C2078 1.403 . S
C2081 C2082 1.392 . S
C2081 C2085 1.495 . S
C2082 C2081 1.392 . S
C2082 C2083 1.385 . S
C2082 C2084 1.478 . S
C2083 H2077 0.930 . S
C2083 C2079 1.400 . S
C2083 C2082 1.385 . S
C2084 C2082 1.478 . S
C2084 C2086 1.381 . S
C2084 C2090 1.383 . S
C2085 C2081 1.495 . S
C2085 H2091 0.959 . S
C2085 H2092 0.961 . S
C2085 H2093 0.960 . S
C2086 C2084 1.381 . S
C2086 C2087 1.394 . S
C2086 H2094 0.930 . S
C2087 C2086 1.394 . S
C2087 C2088 1.383 . S
C2087 H2095 0.929 . S
C2088 C2087 1.383 . S
C2088 C2089 1.377 . S
C2089 H2073 0.930 . S
C2089 C2088 1.377 . S
C2089 C2090 1.379 . S
C2090 H2074 0.931 . S
C2090 C2084 1.383 . S
C2090 C2089 1.379 . S
H2091 C2085 0.959 . S
H2092 C2085 0.961 . S
H2093 C2085 0.960 . S
H2094 C2086 0.930 . S
H2095 C2087 0.929 . S
H2096 C2104 0.929 . S
H2097 C2106 0.930 . S
H2098 C2108 0.930 . S
H2099 C2111 0.929 . S
H2100 C2114 0.930 . S
H2101 C2116 0.960 . S
H2102 C2116 0.960 1_655 S
H2103 C2116 0.960 . S
C2104 H2096 0.929 . S
C2104 C2105 1.377 . S
C2104 C2106 1.384 . S
C2105 C2104 1.377 . S
C2105 C2111 1.390 . S
C2106 H2097 0.930 . S
C2106 C2104 1.384 . S
C2106 C2107 1.372 . S
C2107 C2106 1.372 . S
C2107 C2108 1.400 . S
C2107 C2112 1.490 . S
C2108 H2098 0.930 . S
C2108 C2107 1.400 . S
C2108 C2111 1.386 . S
H2109 C2125 0.930 . S
H2110 C2126 0.931 . S
C2111 H2099 0.929 . S
C2111 C2105 1.390 . S
C2111 C2108 1.386 . S
C2112 C2107 1.490 . S
C2112 C2114 1.395 . S
C2112 C2115 1.403 1_655 S
H2113 C2119 0.930 . S
C2114 H2100 0.930 . S
C2114 C2112 1.395 . S
C2114 C2117 1.403 . S
C2115 C2112 1.403 1_455 S
C2115 C2116 1.524 . S
C2115 C2119 1.400 . S
C2116 H2101 0.960 . S
C2116 H2102 0.960 1_455 S
C2116 H2103 0.960 . S
C2116 C2115 1.524 . S
C2117 C2114 1.403 . S
C2117 C2118 1.392 1_655 S
C2117 C2121 1.495 . S
C2118 C2117 1.392 1_455 S
C2118 C2119 1.385 . S
C2118 C2120 1.478 . S
C2119 H2113 0.930 . S
C2119 C2115 1.400 . S
C2119 C2118 1.385 . S
C2120 C2118 1.478 . S
C2120 C2122 1.381 . S
C2120 C2126 1.383 . S
C2121 C2117 1.495 . S
C2121 H2127 0.959 . S
C2121 H2128 0.955 1_655 S
C2121 H2129 0.960 . S
C2122 C2120 1.381 . S
C2122 C2123 1.394 . S
C2122 H2130 0.930 . S
C2123 C2122 1.394 . S
C2123 C2124 1.383 . S
C2123 H2131 0.929 . S
C2124 C2123 1.383 . S
C2124 C2125 1.377 . S
C2125 H2109 0.930 . S
C2125 C2124 1.377 . S
C2125 C2126 1.379 . S
C2126 H2110 0.931 . S
C2126 C2120 1.383 . S
C2126 C2125 1.379 . S
H2127 C2121 0.959 . S
H2128 C2121 0.955 1_455 S
H2129 C2121 0.960 . S
H2130 C2122 0.930 . S
H2131 C2123 0.929 . S
H2132 C2140 0.929 . S
H2133 C2142 0.930 . S
H2134 C2144 0.930 . S
H2135 C2147 0.929 . S
H2136 C2150 0.930 . S
H2137 C2152 0.960 . S
H2138 C2152 0.960 . S
H2139 C2152 0.960 . S
C2140 H2132 0.929 . S
C2140 C2141 1.377 . S
C2140 C2142 1.384 . S
C2141 C2140 1.377 . S
C2141 C2147 1.390 . S
C2142 H2133 0.930 . S
C2142 C2140 1.384 . S
C2142 C2143 1.372 . S
C2143 C2142 1.372 . S
C2143 C2144 1.400 . S
C2143 C2148 1.490 . S
C2144 H2134 0.930 . S
C2144 C2143 1.400 . S
C2144 C2147 1.386 . S
H2145 C2161 0.930 . S
H2146 C2162 0.931 . S
C2147 H2135 0.929 . S
C2147 C2141 1.390 . S
C2147 C2144 1.386 . S
C2148 C2143 1.490 . S
C2148 C2150 1.395 . S
C2148 C2151 1.403 . S
H2149 C2155 0.930 . S
C2150 H2136 0.930 . S
C2150 C2148 1.395 . S
C2150 C2153 1.403 . S
C2151 C2148 1.403 . S
C2151 C2152 1.524 . S
C2151 C2155 1.400 . S
C2152 H2137 0.960 . S
C2152 H2138 0.960 . S
C2152 H2139 0.960 . S
C2152 C2151 1.524 . S
C2153 C2150 1.403 . S
C2153 C2154 1.392 . S
C2153 C2157 1.495 . S
C2154 C2153 1.392 . S
C2154 C2155 1.385 . S
C2154 C2156 1.478 . S
C2155 H2149 0.930 . S
C2155 C2151 1.400 . S
C2155 C2154 1.385 . S
C2156 C2154 1.478 . S
C2156 C2158 1.381 . S
C2156 C2162 1.383 . S
C2157 C2153 1.495 . S
C2157 H2163 0.959 . S
C2157 H2164 0.961 . S
C2157 H2165 0.960 . S
C2158 C2156 1.381 . S
C2158 C2159 1.394 . S
C2158 H2166 0.930 . S
C2159 C2158 1.394 . S
C2159 C2160 1.383 . S
C2159 H2167 0.929 . S
C2160 C2159 1.383 . S
C2160 C2161 1.377 . S
C2161 H2145 0.930 . S
C2161 C2160 1.377 . S
C2161 C2162 1.379 . S
C2162 H2146 0.931 . S
C2162 C2156 1.383 . S
C2162 C2161 1.379 . S
H2163 C2157 0.959 . S
H2164 C2157 0.961 . S
H2165 C2157 0.960 . S
H2166 C2158 0.930 . S
H2167 C2159 0.929 . S
H2168 C2176 0.929 . S
H2169 C2178 0.930 . S
H2170 C2180 0.930 . S
H2171 C2183 0.929 . S
H2172 C2186 0.930 . S
H2173 C2188 0.960 . S
H2174 C2188 0.960 . S
H2175 C2188 0.960 . S
C2176 H2168 0.929 . S
C2176 C2177 1.377 . S
C2176 C2178 1.384 . S
C2177 C2176 1.377 . S
C2177 C2183 1.390 . S
C2178 H2169 0.930 . S
C2178 C2176 1.384 . S
C2178 C2179 1.372 . S
C2179 C2178 1.372 . S
C2179 C2180 1.400 . S
C2179 C2184 1.490 . S
C2180 H2170 0.930 . S
C2180 C2179 1.400 . S
C2180 C2183 1.386 . S
H2181 C2197 0.930 . S
H2182 C2198 0.931 . S
C2183 H2171 0.929 . S
C2183 C2177 1.390 . S
C2183 C2180 1.386 . S
C2184 C2179 1.490 . S
C2184 C2186 1.395 . S
C2184 C2187 1.403 . S
H2185 C2191 0.930 . S
C2186 H2172 0.930 . S
C2186 C2184 1.395 . S
C2186 C2189 1.403 . S
C2187 C2184 1.403 . S
C2187 C2188 1.524 . S
C2187 C2191 1.400 . S
C2188 H2173 0.960 . S
C2188 H2174 0.960 . S
C2188 H2175 0.960 . S
C2188 C2187 1.524 . S
C2189 C2186 1.403 . S
C2189 C2190 1.392 . S
C2189 C2193 1.495 . S
C2190 C2189 1.392 . S
C2190 C2191 1.385 . S
C2190 C2192 1.478 . S
C2191 H2185 0.930 . S
C2191 C2187 1.400 . S
C2191 C2190 1.385 . S
C2192 C2190 1.478 . S
C2192 C2194 1.381 . S
C2192 C2198 1.383 . S
C2193 C2189 1.495 . S
C2193 H2199 0.959 . S
C2193 H2200 0.961 . S
C2193 H2201 0.960 . S
C2194 C2192 1.381 . S
C2194 C2195 1.394 . S
C2194 H2202 0.930 . S
C2195 C2194 1.394 . S
C2195 C2196 1.383 . S
C2195 H2203 0.929 . S
C2196 C2195 1.383 . S
C2196 C2197 1.377 . S
C2197 H2181 0.930 . S
C2197 C2196 1.377 . S
C2197 C2198 1.379 . S
C2198 H2182 0.931 . S
C2198 C2192 1.383 . S
C2198 C2197 1.379 . S
H2199 C2193 0.959 . S
H2200 C2193 0.961 . S
H2201 C2193 0.960 . S
H2202 C2194 0.930 . S
H2203 C2195 0.929 . S
H2204 C2212 0.929 . S
H2205 C2214 0.930 . S
H2206 C2216 0.930 . S
H2207 C2219 0.929 . S
H2208 C2222 0.930 . S
H2209 C2224 0.960 . S
H2210 C2224 0.960 1_655 S
H2211 C2224 0.960 . S
C2212 H2204 0.929 . S
C2212 C2213 1.377 . S
C2212 C2214 1.384 . S
C2213 C2212 1.377 . S
C2213 C2219 1.390 . S
C2214 H2205 0.930 . S
C2214 C2212 1.384 . S
C2214 C2215 1.372 . S
C2215 C2214 1.372 . S
C2215 C2216 1.400 . S
C2215 C2220 1.490 . S
C2216 H2206 0.930 . S
C2216 C2215 1.400 . S
C2216 C2219 1.386 . S
H2217 C2233 0.930 . S
H2218 C2234 0.931 . S
C2219 H2207 0.929 . S
C2219 C2213 1.390 . S
C2219 C2216 1.386 . S
C2220 C2215 1.490 . S
C2220 C2222 1.395 . S
C2220 C2223 1.403 1_655 S
H2221 C2227 0.930 . S
C2222 H2208 0.930 . S
C2222 C2220 1.395 . S
C2222 C2225 1.403 . S
C2223 C2220 1.403 1_455 S
C2223 C2224 1.524 . S
C2223 C2227 1.400 . S
C2224 H2209 0.960 . S
C2224 H2210 0.960 1_455 S
C2224 H2211 0.960 . S
C2224 C2223 1.524 . S
C2225 C2222 1.403 . S
C2225 C2226 1.392 1_655 S
C2225 C2229 1.495 . S
C2226 C2225 1.392 1_455 S
C2226 C2227 1.385 . S
C2226 C2228 1.478 . S
C2227 H2221 0.930 . S
C2227 C2223 1.400 . S
C2227 C2226 1.385 . S
C2228 C2226 1.478 . S
C2228 C2230 1.381 . S
C2228 C2234 1.383 . S
C2229 C2225 1.495 . S
C2229 H2235 0.959 . S
C2229 H2236 0.961 . S
C2229 H2237 0.960 . S
C2230 C2228 1.381 . S
C2230 C2231 1.394 . S
C2230 H2238 0.930 . S
C2231 C2230 1.394 . S
C2231 C2232 1.383 . S
C2231 H2239 0.929 . S
C2232 C2231 1.383 . S
C2232 C2233 1.377 . S
C2233 H2217 0.930 . S
C2233 C2232 1.377 . S
C2233 C2234 1.379 . S
C2234 H2218 0.931 . S
C2234 C2228 1.383 . S
C2234 C2233 1.379 . S
H2235 C2229 0.959 . S
H2236 C2229 0.961 . S
H2237 C2229 0.960 . S
H2238 C2230 0.930 . S
H2239 C2231 0.929 . S
H2240 C2248 0.929 . S
H2241 C2250 0.930 . S
H2242 C2252 0.930 . S
H2243 C2255 0.929 . S
H2244 C2258 0.930 . S
H2245 C2260 0.960 . S
H2246 C2260 0.960 . S
H2247 C2260 0.960 . S
C2248 H2240 0.929 . S
C2248 C2249 1.377 . S
C2248 C2250 1.384 . S
C2249 C2248 1.377 . S
C2249 C2255 1.390 . S
C2250 H2241 0.930 . S
C2250 C2248 1.384 . S
C2250 C2251 1.372 . S
C2251 C2250 1.372 . S
C2251 C2252 1.400 . S
C2251 C2256 1.490 . S
C2252 H2242 0.930 . S
C2252 C2251 1.400 . S
C2252 C2255 1.386 . S
H2253 C2269 0.930 . S
H2254 C2270 0.931 . S
C2255 H2243 0.929 . S
C2255 C2249 1.390 . S
C2255 C2252 1.386 . S
C2256 C2251 1.490 . S
C2256 C2258 1.395 . S
C2256 C2259 1.403 1_545 S
H2257 C2263 0.930 . S
C2258 H2244 0.930 . S
C2258 C2256 1.395 . S
C2258 C2261 1.403 . S
C2259 C2256 1.403 1_565 S
C2259 C2260 1.524 . S
C2259 C2263 1.400 . S
C2260 H2245 0.960 . S
C2260 H2246 0.960 . S
C2260 H2247 0.960 . S
C2260 C2259 1.524 . S
C2261 C2258 1.403 . S
C2261 C2262 1.392 . S
C2261 C2265 1.495 . S
C2262 C2261 1.392 . S
C2262 C2263 1.385 1_545 S
C2262 C2264 1.478 1_545 S
C2263 H2257 0.930 . S
C2263 C2259 1.400 . S
C2263 C2262 1.385 1_565 S
C2264 C2262 1.478 1_565 S
C2264 C2266 1.380 1_565 S
C2264 C2270 1.383 . S
C2265 C2261 1.495 . S
C2265 H2271 0.959 . S
C2265 H2272 0.961 . S
C2265 H2273 0.960 . S
C2266 C2264 1.380 1_545 S
C2266 C2267 1.390 1_545 S
C2266 H2274 0.935 . S
C2267 C2266 1.390 1_565 S
C2267 C2268 1.383 . S
C2267 H2275 0.929 . S
C2268 C2267 1.383 . S
C2268 C2269 1.377 . S
C2269 H2253 0.930 . S
C2269 C2268 1.377 . S
C2269 C2270 1.379 . S
C2270 H2254 0.931 . S
C2270 C2264 1.383 . S
C2270 C2269 1.379 . S
H2271 C2265 0.959 . S
H2272 C2265 0.961 . S
H2273 C2265 0.960 . S
H2274 C2266 0.935 . S
H2275 C2267 0.929 . S
H2276 C2284 0.929 . S
H2277 C2286 0.930 . S
H2278 C2288 0.930 . S
H2279 C2291 0.929 . S
H2280 C2294 0.930 . S
H2281 C2296 0.960 . S
H2282 C2296 0.960 . S
H2283 C2296 0.960 . S
C2284 H2276 0.929 . S
C2284 C2285 1.377 . S
C2284 C2286 1.384 . S
C2285 C2284 1.377 . S
C2285 C2291 1.390 . S
C2286 H2277 0.930 . S
C2286 C2284 1.384 . S
C2286 C2287 1.372 . S
C2287 C2286 1.372 . S
C2287 C2288 1.400 . S
C2287 C2292 1.490 . S
C2288 H2278 0.930 . S
C2288 C2287 1.400 . S
C2288 C2291 1.386 . S
H2289 C2305 0.930 1_565 S
H2290 C2306 0.931 . S
C2291 H2279 0.929 . S
C2291 C2285 1.390 . S
C2291 C2288 1.386 . S
C2292 C2287 1.490 . S
C2292 C2294 1.395 . S
C2292 C2295 1.403 . S
H2293 C2299 0.930 . S
C2294 H2280 0.930 . S
C2294 C2292 1.395 . S
C2294 C2297 1.403 . S
C2295 C2292 1.403 . S
C2295 C2296 1.524 . S
C2295 C2299 1.400 . S
C2296 H2281 0.960 . S
C2296 H2282 0.960 . S
C2296 H2283 0.960 . S
C2296 C2295 1.524 . S
C2297 C2294 1.403 . S
C2297 C2298 1.392 . S
C2297 C2301 1.495 . S
C2298 C2297 1.392 . S
C2298 C2299 1.385 . S
C2298 C2300 1.478 . S
C2299 H2293 0.930 . S
C2299 C2295 1.400 . S
C2299 C2298 1.385 . S
C2300 C2298 1.478 . S
C2300 C2302 1.381 . S
C2300 C2306 1.383 . S
C2301 C2297 1.495 . S
C2301 H2307 0.959 . S
C2301 H2308 0.961 . S
C2301 H2309 0.960 . S
C2302 C2300 1.381 . S
C2302 C2303 1.394 . S
C2302 H2310 0.930 . S
C2303 C2302 1.394 . S
C2303 C2304 1.383 1_545 S
C2303 H2311 0.929 . S
C2304 C2303 1.383 1_565 S
C2304 C2305 1.377 1_565 S
C2305 H2289 0.930 1_545 S
C2305 C2304 1.377 1_545 S
C2305 C2306 1.379 . S
C2306 H2290 0.931 . S
C2306 C2300 1.383 . S
C2306 C2305 1.379 . S
H2307 C2301 0.959 . S
H2308 C2301 0.961 . S
H2309 C2301 0.960 . S
H2310 C2302 0.930 . S
H2311 C2303 0.929 . S
H2312 C2320 0.929 1_565 S
H2313 C2322 0.930 . S
H2314 C2324 0.930 . S
H2315 C2327 0.929 1_655 S
H2316 C2330 0.930 . S
H2317 C2332 0.960 . S
H2318 C2332 0.960 . S
H2319 C2332 0.960 . S
C2320 H2312 0.929 1_545 S
C2320 C2321 1.377 . S
C2320 C2322 1.384 1_645 S
C2321 C2320 1.377 . S
C2321 C2327 1.390 1_655 S
C2322 H2313 0.930 . S
C2322 C2320 1.384 1_465 S
C2322 C2323 1.372 1_565 S
C2323 C2322 1.372 1_545 S
C2323 C2324 1.400 . S
C2323 C2328 1.490 1_545 S
C2324 H2314 0.930 . S
C2324 C2323 1.400 . S
C2324 C2327 1.386 . S
H2325 C2341 0.930 . S
H2326 C2342 0.931 . S
C2327 H2315 0.929 1_455 S
C2327 C2321 1.390 1_455 S
C2327 C2324 1.386 . S
C2328 C2323 1.490 1_565 S
C2328 C2330 1.395 . S
C2328 C2331 1.403 1_565 S
H2329 C2335 0.930 . S
C2330 H2316 0.930 . S
C2330 C2328 1.395 . S
C2330 C2333 1.403 . S
C2331 C2328 1.403 1_545 S
C2331 C2332 1.524 . S
C2331 C2335 1.400 . S
C2332 H2317 0.960 . S
C2332 H2318 0.960 . S
C2332 H2319 0.960 . S
C2332 C2331 1.524 . S
C2333 C2330 1.403 . S
C2333 C2334 1.392 . S
C2333 C2337 1.495 . S
C2334 C2333 1.392 . S
C2334 C2335 1.385 1_565 S
C2334 C2336 1.478 . S
C2335 H2329 0.930 . S
C2335 C2331 1.400 . S
C2335 C2334 1.385 1_545 S
C2336 C2334 1.478 . S
C2336 C2338 1.381 . S
C2336 C2342 1.383 . S
C2337 C2333 1.495 . S
C2337 H2343 0.959 . S
C2337 H2344 0.961 . S
C2337 H2345 0.960 . S
C2338 C2336 1.381 . S
C2338 C2339 1.394 . S
C2338 H2346 0.930 . S
C2339 C2338 1.394 . S
C2339 C2340 1.383 . S
C2339 H2347 0.929 . S
C2340 C2339 1.383 . S
C2340 C2341 1.377 . S
C2341 H2325 0.930 . S
C2341 C2340 1.377 . S
C2341 C2342 1.379 . S
C2342 H2326 0.931 . S
C2342 C2336 1.383 . S
C2342 C2341 1.379 . S
H2343 C2337 0.959 . S
H2344 C2337 0.961 . S
H2345 C2337 0.960 . S
H2346 C2338 0.930 . S
H2347 C2339 0.929 . S
H2348 C2356 0.929 . S
H2349 C2358 0.930 . S
H2350 C2360 0.930 . S
H2351 C2363 0.929 . S
H2352 C2366 0.930 . S
H2353 C2368 0.960 . S
H2354 C2368 0.960 . S
H2355 C2368 0.960 . S
C2356 H2348 0.929 . S
C2356 C2357 1.377 . S
C2356 C2358 1.384 . S
C2357 C2356 1.377 . S
C2357 C2363 1.390 . S
C2358 H2349 0.930 . S
C2358 C2356 1.384 . S
C2358 C2359 1.372 . S
C2359 C2358 1.372 . S
C2359 C2360 1.400 . S
C2359 C2364 1.490 . S
C2360 H2350 0.930 . S
C2360 C2359 1.400 . S
C2360 C2363 1.386 . S
H2361 C2377 0.930 1_545 S
H2362 C2378 0.931 . S
C2363 H2351 0.929 . S
C2363 C2357 1.390 . S
C2363 C2360 1.386 . S
C2364 C2359 1.490 . S
C2364 C2366 1.395 . S
C2364 C2367 1.403 . S
H2365 C2371 0.930 . S
C2366 H2352 0.930 . S
C2366 C2364 1.395 . S
C2366 C2369 1.403 . S
C2367 C2364 1.403 . S
C2367 C2368 1.524 . S
C2367 C2371 1.400 . S
C2368 H2353 0.960 . S
C2368 H2354 0.960 . S
C2368 H2355 0.960 . S
C2368 C2367 1.524 . S
C2369 C2366 1.403 . S
C2369 C2370 1.392 . S
C2369 C2373 1.495 . S
C2370 C2369 1.392 . S
C2370 C2371 1.385 . S
C2370 C2372 1.478 . S
C2371 H2365 0.930 . S
C2371 C2367 1.400 . S
C2371 C2370 1.385 . S
C2372 C2370 1.478 . S
C2372 C2374 1.381 . S
C2372 C2378 1.383 . S
C2373 C2369 1.495 . S
C2373 H2379 0.959 . S
C2373 H2380 0.961 . S
C2373 H2381 0.960 . S
C2374 C2372 1.381 . S
C2374 C2375 1.394 . S
C2374 H2382 0.930 . S
C2375 C2374 1.394 . S
C2375 C2376 1.383 1_565 S
C2375 H2383 0.929 1_565 S
C2376 C2375 1.383 1_545 S
C2376 C2377 1.377 1_545 S
C2377 H2361 0.930 1_565 S
C2377 C2376 1.377 1_565 S
C2377 C2378 1.379 . S
C2378 H2362 0.931 . S
C2378 C2372 1.383 . S
C2378 C2377 1.379 . S
H2379 C2373 0.959 . S
H2380 C2373 0.961 . S
H2381 C2373 0.960 . S
H2382 C2374 0.930 . S
H2383 C2375 0.929 1_545 S
H2384 C2392 0.929 . S
H2385 C2394 0.930 . S
H2386 C2396 0.930 . S
H2387 C2399 0.929 . S
H2388 C2402 0.930 . S
H2389 C2404 0.960 . S
H2390 C2404 0.960 . S
H2391 C2404 0.960 . S
C2392 H2384 0.929 . S
C2392 C2393 1.377 . S
C2392 C2394 1.384 . S
C2393 C2392 1.377 . S
C2393 C2399 1.390 . S
C2394 H2385 0.930 . S
C2394 C2392 1.384 . S
C2394 C2395 1.372 . S
C2395 C2394 1.372 . S
C2395 C2396 1.400 . S
C2395 C2400 1.490 . S
C2396 H2386 0.930 . S
C2396 C2395 1.400 . S
C2396 C2399 1.386 . S
H2397 C2413 0.930 . S
H2398 C2414 0.931 . S
C2399 H2387 0.929 . S
C2399 C2393 1.390 . S
C2399 C2396 1.386 . S
C2400 C2395 1.490 . S
C2400 C2402 1.395 . S
C2400 C2403 1.403 1_565 S
H2401 C2407 0.930 . S
C2402 H2388 0.930 . S
C2402 C2400 1.395 . S
C2402 C2405 1.403 . S
C2403 C2400 1.403 1_545 S
C2403 C2404 1.524 . S
C2403 C2407 1.400 . S
C2404 H2389 0.960 . S
C2404 H2390 0.960 . S
C2404 H2391 0.960 . S
C2404 C2403 1.524 . S
C2405 C2402 1.403 . S
C2405 C2406 1.392 . S
C2405 C2409 1.495 . S
C2406 C2405 1.392 . S
C2406 C2407 1.385 1_565 S
C2406 C2408 1.478 1_565 S
C2407 H2401 0.930 . S
C2407 C2403 1.400 . S
C2407 C2406 1.385 1_545 S
C2408 C2406 1.478 1_545 S
C2408 C2410 1.381 . S
C2408 C2414 1.383 . S
C2409 C2405 1.495 . S
C2409 H2415 0.959 . S
C2409 H2416 0.961 . S
C2409 H2417 0.960 . S
C2410 C2408 1.381 . S
C2410 C2411 1.394 . S
C2410 H2418 0.930 . S
C2411 C2410 1.394 . S
C2411 C2412 1.383 . S
C2411 H2419 0.929 . S
C2412 C2411 1.383 . S
C2412 C2413 1.377 . S
C2413 H2397 0.930 . S
C2413 C2412 1.377 . S
C2413 C2414 1.379 . S
C2414 H2398 0.931 . S
C2414 C2408 1.383 . S
C2414 C2413 1.379 . S
H2415 C2409 0.959 . S
H2416 C2409 0.961 . S
H2417 C2409 0.960 . S
H2418 C2410 0.930 . S
H2419 C2411 0.929 . S
H2420 C2428 0.912 1_565 S
H2421 C2430 0.930 . S
H2422 C2432 0.930 . S
H2423 C2435 0.929 . S
H2424 C2438 0.930 . S
H2425 C2440 0.960 . S
H2426 C2440 0.960 . S
H2427 C2440 0.960 . S
C2428 H2420 0.912 1_545 S
C2428 C2429 1.368 1_545 S
C2428 C2430 1.410 . S
C2429 C2428 1.368 1_565 S
C2429 C2435 1.390 1_565 S
C2430 H2421 0.930 . S
C2430 C2428 1.410 . S
C2430 C2431 1.372 . S
C2431 C2430 1.372 . S
C2431 C2432 1.400 . S
C2431 C2436 1.490 . S
C2432 H2422 0.930 . S
C2432 C2431 1.400 . S
C2432 C2435 1.386 . S
H2433 C2449 0.930 . S
H2434 C2450 0.931 . S
C2435 H2423 0.929 . S
C2435 C2429 1.390 1_545 S
C2435 C2432 1.386 . S
C2436 C2431 1.490 . S
C2436 C2438 1.395 . S
C2436 C2439 1.403 . S
H2437 C2443 0.930 . S
C2438 H2424 0.930 . S
C2438 C2436 1.395 . S
C2438 C2441 1.403 . S
C2439 C2436 1.403 . S
C2439 C2440 1.524 . S
C2439 C2443 1.400 . S
C2440 H2425 0.960 . S
C2440 H2426 0.960 . S
C2440 H2427 0.960 . S
C2440 C2439 1.524 . S
C2441 C2438 1.403 . S
C2441 C2442 1.392 . S
C2441 C2445 1.495 . S
C2442 C2441 1.392 . S
C2442 C2443 1.385 . S
C2442 C2444 1.478 . S
C2443 H2437 0.930 . S
C2443 C2439 1.400 . S
C2443 C2442 1.385 . S
C2444 C2442 1.478 . S
C2444 C2446 1.381 . S
C2444 C2450 1.383 . S
C2445 C2441 1.495 . S
C2445 H2451 0.959 . S
C2445 H2452 0.961 . S
C2445 H2453 0.960 . S
C2446 C2444 1.381 . S
C2446 C2447 1.394 . S
C2446 H2454 0.930 . S
C2447 C2446 1.394 . S
C2447 C2448 1.383 . S
C2447 H2455 0.929 . S
C2448 C2447 1.383 . S
C2448 C2449 1.377 . S
C2449 H2433 0.930 . S
C2449 C2448 1.377 . S
C2449 C2450 1.379 . S
C2450 H2434 0.931 . S
C2450 C2444 1.383 . S
C2450 C2449 1.379 . S
H2451 C2445 0.959 . S
H2452 C2445 0.961 . S
H2453 C2445 0.960 . S
H2454 C2446 0.930 . S
H2455 C2447 0.929 . S
H2456 C2464 0.929 . S
H2457 C2466 0.930 . S
H2458 C2468 0.930 . S
H2459 C2471 0.929 . S
H2460 C2474 0.930 . S
H2461 C2476 0.960 . S
H2462 C2476 0.960 . S
H2463 C2476 0.960 . S
C2464 H2456 0.929 . S
C2464 C2465 1.377 . S
C2464 C2466 1.384 . S
C2465 C2464 1.377 . S
C2465 C2471 1.390 . S
C2466 H2457 0.930 . S
C2466 C2464 1.384 . S
C2466 C2467 1.372 . S
C2467 C2466 1.372 . S
C2467 C2468 1.400 . S
C2467 C2472 1.490 . S
C2468 H2458 0.930 . S
C2468 C2467 1.400 . S
C2468 C2471 1.386 . S
H2469 C2485 0.930 1_655 S
H2470 C2486 0.931 . S
C2471 H2459 0.929 . S
C2471 C2465 1.390 . S
C2471 C2468 1.386 . S
C2472 C2467 1.490 . S
C2472 C2474 1.395 1_545 S
C2472 C2475 1.403 . S
H2473 C2479 0.930 . S
C2474 H2460 0.930 . S
C2474 C2472 1.395 1_565 S
C2474 C2477 1.403 . S
C2475 C2472 1.403 . S
C2475 C2476 1.524 . S
C2475 C2479 1.400 . S
C2476 H2461 0.960 . S
C2476 H2462 0.960 . S
C2476 H2463 0.960 . S
C2476 C2475 1.524 . S
C2477 C2474 1.403 . S
C2477 C2478 1.392 . S
C2477 C2481 1.495 . S
C2478 C2477 1.392 . S
C2478 C2479 1.385 1_565 S
C2478 C2480 1.478 . S
C2479 H2473 0.930 . S
C2479 C2475 1.400 . S
C2479 C2478 1.385 1_545 S
C2480 C2478 1.478 . S
C2480 C2482 1.381 1_565 S
C2480 C2486 1.383 . S
C2481 C2477 1.495 . S
C2481 H2487 0.959 . S
C2481 H2488 0.961 . S
C2481 H2489 0.960 . S
C2482 C2480 1.381 1_545 S
C2482 C2483 1.394 1_445 S
C2482 H2490 0.930 . S
C2483 C2482 1.394 1_665 S
C2483 C2484 1.383 . S
C2483 H2491 0.929 1_565 S
C2484 C2483 1.383 . S
C2484 C2485 1.377 1_655 S
C2485 H2469 0.930 1_455 S
C2485 C2484 1.377 1_455 S
C2485 C2486 1.379 . S
C2486 H2470 0.931 . S
C2486 C2480 1.383 . S
C2486 C2485 1.379 . S
H2487 C2481 0.959 . S
H2488 C2481 0.961 . S
H2489 C2481 0.960 . S
H2490 C2482 0.930 . S
H2491 C2483 0.929 1_545 S
H2492 C2500 0.929 . S
H2493 C2502 0.930 . S
H2494 C2504 0.930 . S
H2495 C2507 0.929 . S
H2496 C2510 0.930 . S
H2497 C2512 0.960 . S
H2498 C2512 0.960 . S
H2499 C2512 0.960 . S
C2500 H2492 0.929 . S
C2500 C2501 1.377 . S
C2500 C2502 1.384 . S
C2501 C2500 1.377 . S
C2501 C2507 1.390 . S
C2502 H2493 0.930 . S
C2502 C2500 1.384 . S
C2502 C2503 1.372 . S
C2503 C2502 1.372 . S
C2503 C2504 1.400 . S
C2503 C2508 1.490 . S
C2504 H2494 0.930 . S
C2504 C2503 1.400 . S
C2504 C2507 1.386 . S
H2505 C2521 0.930 . S
H2506 C2522 0.931 . S
C2507 H2495 0.929 . S
C2507 C2501 1.390 . S
C2507 C2504 1.386 . S
C2508 C2503 1.490 . S
C2508 C2510 1.395 . S
C2508 C2511 1.403 . S
H2509 C2515 0.930 . S
C2510 H2496 0.930 . S
C2510 C2508 1.395 . S
C2510 C2513 1.403 . S
C2511 C2508 1.403 . S
C2511 C2512 1.524 . S
C2511 C2515 1.400 . S
C2512 H2497 0.960 . S
C2512 H2498 0.960 . S
C2512 H2499 0.960 . S
C2512 C2511 1.524 . S
C2513 C2510 1.403 . S
C2513 C2514 1.392 . S
C2513 C2517 1.495 . S
C2514 C2513 1.392 . S
C2514 C2515 1.385 . S
C2514 C2516 1.478 . S
C2515 H2509 0.930 . S
C2515 C2511 1.400 . S
C2515 C2514 1.385 . S
C2516 C2514 1.478 . S
C2516 C2518 1.381 . S
C2516 C2522 1.383 . S
C2517 C2513 1.495 . S
C2517 H2523 0.959 . S
C2517 H2524 0.961 . S
C2517 H2525 0.960 . S
C2518 C2516 1.381 . S
C2518 C2519 1.394 1_565 S
C2518 H2526 0.930 . S
C2519 C2518 1.394 1_545 S
C2519 C2520 1.383 . S
C2519 H2527 0.929 . S
C2520 C2519 1.383 . S
C2520 C2521 1.377 1_545 S
C2521 H2505 0.930 . S
C2521 C2520 1.377 1_565 S
C2521 C2522 1.379 . S
C2522 H2506 0.931 . S
C2522 C2516 1.383 . S
C2522 C2521 1.379 . S
H2523 C2517 0.959 . S
H2524 C2517 0.961 . S
H2525 C2517 0.960 . S
H2526 C2518 0.930 . S
H2527 C2519 0.929 . S
H2528 C2536 0.929 . S
H2529 C2538 0.930 . S
H2530 C2540 0.930 . S
H2531 C2543 0.929 . S
H2532 C2546 0.930 . S
H2533 C2548 0.960 . S
H2534 C2548 0.960 1_545 S
H2535 C2548 0.960 . S
C2536 H2528 0.929 . S
C2536 C2537 1.377 . S
C2536 C2538 1.384 . S
C2537 C2536 1.377 . S
C2537 C2543 1.390 1_545 S
C2538 H2529 0.930 . S
C2538 C2536 1.384 . S
C2538 C2539 1.372 . S
C2539 C2538 1.372 . S
C2539 C2540 1.400 1_545 S
C2539 C2544 1.490 . S
C2540 H2530 0.930 . S
C2540 C2539 1.400 1_565 S
C2540 C2543 1.386 . S
H2541 C2557 0.930 . S
H2542 C2558 0.931 . S
C2543 H2531 0.929 . S
C2543 C2537 1.390 1_565 S
C2543 C2540 1.386 . S
C2544 C2539 1.490 . S
C2544 C2546 1.395 . S
C2544 C2547 1.403 1_545 S
H2545 C2551 0.930 . S
C2546 H2532 0.930 . S
C2546 C2544 1.395 . S
C2546 C2549 1.403 1_545 S
C2547 C2544 1.403 1_565 S
C2547 C2548 1.524 . S
C2547 C2551 1.400 . S
C2548 H2533 0.960 . S
C2548 H2534 0.960 1_565 S
C2548 H2535 0.960 . S
C2548 C2547 1.524 . S
C2549 C2546 1.403 1_565 S
C2549 C2550 1.392 . S
C2549 C2553 1.495 1_565 S
C2550 C2549 1.392 . S
C2550 C2551 1.385 . S
C2550 C2552 1.478 . S
C2551 H2545 0.930 . S
C2551 C2547 1.400 . S
C2551 C2550 1.385 . S
C2552 C2550 1.478 . S
C2552 C2554 1.381 1_565 S
C2552 C2558 1.383 . S
C2553 C2549 1.495 1_545 S
C2553 H2559 0.959 . S
C2553 H2560 0.961 1_545 S
C2553 H2561 0.960 . S
C2554 C2552 1.381 1_545 S
C2554 C2555 1.394 1_545 S
C2554 H2562 0.930 . S
C2555 C2554 1.394 1_565 S
C2555 C2556 1.383 . S
C2555 H2563 0.929 1_565 S
C2556 C2555 1.383 . S
C2556 C2557 1.377 . S
C2557 H2541 0.930 . S
C2557 C2556 1.377 . S
C2557 C2558 1.379 . S
C2558 H2542 0.931 . S
C2558 C2552 1.383 . S
C2558 C2557 1.379 . S
H2559 C2553 0.959 . S
H2560 C2553 0.961 1_565 S
H2561 C2553 0.960 . S
H2562 C2554 0.930 . S
H2563 C2555 0.929 1_545 S
H2564 C2572 0.929 . S
H2565 C2574 0.930 . S
H2566 C2576 0.930 . S
H2567 C2579 0.929 . S
H2568 C2582 0.930 . S
H2569 C2584 0.960 . S
H2570 C2584 0.960 . S
H2571 C2584 0.960 . S
C2572 H2564 0.929 . S
C2572 C2573 1.377 . S
C2572 C2574 1.384 . S
C2573 C2572 1.377 . S
C2573 C2579 1.390 . S
C2574 H2565 0.930 . S
C2574 C2572 1.384 . S
C2574 C2575 1.372 . S
C2575 C2574 1.372 . S
C2575 C2576 1.400 . S
C2575 C2580 1.490 . S
C2576 H2566 0.930 . S
C2576 C2575 1.400 . S
C2576 C2579 1.386 . S
H2577 C2593 0.930 1_545 S
H2578 C2594 0.931 . S
C2579 H2567 0.929 . S
C2579 C2573 1.390 . S
C2579 C2576 1.386 . S
C2580 C2575 1.490 . S
C2580 C2582 1.395 . S
C2580 C2583 1.403 . S
H2581 C2587 0.930 . S
C2582 H2568 0.930 . S
C2582 C2580 1.395 . S
C2582 C2585 1.403 . S
C2583 C2580 1.403 . S
C2583 C2584 1.524 . S
C2583 C2587 1.400 . S
C2584 H2569 0.960 . S
C2584 H2570 0.960 . S
C2584 H2571 0.960 . S
C2584 C2583 1.524 . S
C2585 C2582 1.403 . S
C2585 C2586 1.392 . S
C2585 C2589 1.495 . S
C2586 C2585 1.392 . S
C2586 C2587 1.385 . S
C2586 C2588 1.478 . S
C2587 H2581 0.930 . S
C2587 C2583 1.400 . S
C2587 C2586 1.385 . S
C2588 C2586 1.478 . S
C2588 C2590 1.381 . S
C2588 C2594 1.383 . S
C2589 C2585 1.495 . S
C2589 H2595 0.959 . S
C2589 H2596 0.961 . S
C2589 H2597 0.960 . S
C2590 C2588 1.381 . S
C2590 C2591 1.394 . S
C2590 H2598 0.930 . S
C2591 C2590 1.394 . S
C2591 C2592 1.383 1_565 S
C2591 H2599 0.929 . S
C2592 C2591 1.383 1_545 S
C2592 C2593 1.377 1_545 S
C2593 H2577 0.930 1_565 S
C2593 C2592 1.377 1_565 S
C2593 C2594 1.379 . S
C2594 H2578 0.931 . S
C2594 C2588 1.383 . S
C2594 C2593 1.379 . S
H2595 C2589 0.959 . S
H2596 C2589 0.961 . S
H2597 C2589 0.960 . S
H2598 C2590 0.930 . S
H2599 C2591 0.929 . S
H2600 C2608 0.929 . S
H2601 C2610 0.930 . S
H2602 C2612 0.930 . S
H2603 C2615 0.929 . S
H2604 C2618 0.930 . S
H2605 C2620 0.960 . S
H2606 C2620 0.960 . S
H2607 C2620 0.960 . S
C2608 H2600 0.929 . S
C2608 C2609 1.377 . S
C2608 C2610 1.384 . S
C2609 C2608 1.377 . S
C2609 C2615 1.390 . S
C2610 H2601 0.930 . S
C2610 C2608 1.384 . S
C2610 C2611 1.372 . S
C2611 C2610 1.372 . S
C2611 C2612 1.400 . S
C2611 C2616 1.490 . S
C2612 H2602 0.930 . S
C2612 C2611 1.400 . S
C2612 C2615 1.386 . S
H2613 C2629 0.939 . S
H2614 C2630 0.931 . S
C2615 H2603 0.929 . S
C2615 C2609 1.390 . S
C2615 C2612 1.386 . S
C2616 C2611 1.490 . S
C2616 C2618 1.395 . S
C2616 C2619 1.403 1_545 S
H2617 C2623 0.930 . S
C2618 H2604 0.930 . S
C2618 C2616 1.395 . S
C2618 C2621 1.403 . S
C2619 C2616 1.403 1_565 S
C2619 C2620 1.524 . S
C2619 C2623 1.400 . S
C2620 H2605 0.960 . S
C2620 H2606 0.960 . S
C2620 H2607 0.960 . S
C2620 C2619 1.524 . S
C2621 C2618 1.403 . S
C2621 C2622 1.392 . S
C2621 C2625 1.495 . S
C2622 C2621 1.392 . S
C2622 C2623 1.385 1_545 S
C2622 C2624 1.478 1_545 S
C2623 H2617 0.930 . S
C2623 C2619 1.400 . S
C2623 C2622 1.385 1_565 S
C2624 C2622 1.478 1_565 S
C2624 C2626 1.381 1_565 S
C2624 C2630 1.383 . S
C2625 C2621 1.495 . S
C2625 H2631 0.959 . S
C2625 H2632 0.961 . S
C2625 H2633 0.960 . S
C2626 C2624 1.381 1_545 S
C2626 C2627 1.394 1_645 S
C2626 H2634 0.930 . S
C2627 C2626 1.394 1_465 S
C2627 C2628 1.383 . S
C2627 H2635 0.929 . S
C2628 C2627 1.383 . S
C2628 C2629 1.391 . S
C2629 H2613 0.939 . S
C2629 C2628 1.391 . S
C2629 C2630 1.356 1_455 S
C2630 H2614 0.931 . S
C2630 C2624 1.383 . S
C2630 C2629 1.356 1_655 S
H2631 C2625 0.959 . S
H2632 C2625 0.961 . S
H2633 C2625 0.960 . S
H2634 C2626 0.930 . S
H2635 C2627 0.929 . S
H2636 C2644 0.915 1_565 S
H2637 C2646 0.930 . S
H2638 C2648 0.930 . S
H2639 C2651 0.929 . S
H2640 C2654 0.930 . S
H2641 C2656 0.960 . S
H2642 C2656 0.960 . S
H2643 C2656 0.960 . S
C2644 H2636 0.915 1_545 S
C2644 C2645 1.370 1_545 S
C2644 C2646 1.405 . S
C2645 C2644 1.370 1_565 S
C2645 C2651 1.390 1_565 S
C2646 H2637 0.930 . S
C2646 C2644 1.405 . S
C2646 C2647 1.372 . S
C2647 C2646 1.372 . S
C2647 C2648 1.400 . S
C2647 C2652 1.490 . S
C2648 H2638 0.930 . S
C2648 C2647 1.400 . S
C2648 C2651 1.386 . S
H2649 C2665 0.930 . S
H2650 C2666 0.931 . S
C2651 H2639 0.929 . S
C2651 C2645 1.390 1_545 S
C2651 C2648 1.386 . S
C2652 C2647 1.490 . S
C2652 C2654 1.395 . S
C2652 C2655 1.403 . S
H2653 C2659 0.930 . S
C2654 H2640 0.930 . S
C2654 C2652 1.395 . S
C2654 C2657 1.403 . S
C2655 C2652 1.403 . S
C2655 C2656 1.524 . S
C2655 C2659 1.400 . S
C2656 H2641 0.960 . S
C2656 H2642 0.960 . S
C2656 H2643 0.960 . S
C2656 C2655 1.524 . S
C2657 C2654 1.403 . S
C2657 C2658 1.392 . S
C2657 C2661 1.495 . S
C2658 C2657 1.392 . S
C2658 C2659 1.385 . S
C2658 C2660 1.478 . S
C2659 H2653 0.930 . S
C2659 C2655 1.400 . S
C2659 C2658 1.385 . S
C2660 C2658 1.478 . S
C2660 C2662 1.381 . S
C2660 C2666 1.383 . S
C2661 C2657 1.495 . S
C2661 H2667 0.959 . S
C2661 H2668 0.961 . S
C2661 H2669 0.960 . S
C2662 C2660 1.381 . S
C2662 C2663 1.394 . S
C2662 H2670 0.930 . S
C2663 C2662 1.394 . S
C2663 C2664 1.383 . S
C2663 H2671 0.929 . S
C2664 C2663 1.383 . S
C2664 C2665 1.377 . S
C2665 H2649 0.930 . S
C2665 C2664 1.377 . S
C2665 C2666 1.379 . S
C2666 H2650 0.931 . S
C2666 C2660 1.383 . S
C2666 C2665 1.379 . S
H2667 C2661 0.959 . S
H2668 C2661 0.961 . S
H2669 C2661 0.960 . S
H2670 C2662 0.930 . S
H2671 C2663 0.929 . S
H2672 C2680 0.929 . S
H2673 C2682 0.930 1_565 S
H2674 C2684 0.930 . S
H2675 C2687 0.929 . S
H2676 C2690 0.930 . S
H2677 C2692 0.960 . S
H2678 C2692 0.960 . S
H2679 C2692 0.960 . S
C2680 H2672 0.929 . S
C2680 C2681 1.377 . S
C2680 C2682 1.384 . S
C2681 C2680 1.377 . S
C2681 C2687 1.390 . S
C2682 H2673 0.930 1_545 S
C2682 C2680 1.384 . S
C2682 C2683 1.372 . S
C2683 C2682 1.372 . S
C2683 C2684 1.400 . S
C2683 C2688 1.490 . S
C2684 H2674 0.930 . S
C2684 C2683 1.400 . S
C2684 C2687 1.386 . S
H2685 C2701 0.931 . S
H2686 C2702 0.931 1_545 S
C2687 H2675 0.929 . S
C2687 C2681 1.390 . S
C2687 C2684 1.386 . S
C2688 C2683 1.490 . S
C2688 C2690 1.395 1_545 S
C2688 C2691 1.403 . S
H2689 C2695 0.930 . S
C2690 H2676 0.930 . S
C2690 C2688 1.395 1_565 S
C2690 C2693 1.403 . S
C2691 C2688 1.403 . S
C2691 C2692 1.524 . S
C2691 C2695 1.400 . S
C2692 H2677 0.960 . S
C2692 H2678 0.960 . S
C2692 H2679 0.960 . S
C2692 C2691 1.524 . S
C2693 C2690 1.403 . S
C2693 C2694 1.392 . S
C2693 C2697 1.495 . S
C2694 C2693 1.392 . S
C2694 C2695 1.385 1_565 S
C2694 C2696 1.478 . S
C2695 H2689 0.930 . S
C2695 C2691 1.400 . S
C2695 C2694 1.385 1_545 S
C2696 C2694 1.478 . S
C2696 C2698 1.381 . S
C2696 C2702 1.383 . S
C2697 C2693 1.495 . S
C2697 H2703 0.959 . S
C2697 H2704 0.961 . S
C2697 H2705 0.960 . S
C2698 C2696 1.381 . S
C2698 C2699 1.394 . S
C2698 H2706 0.930 . S
C2699 C2698 1.394 . S
C2699 C2700 1.383 . S
C2699 H2707 0.929 . S
C2700 C2699 1.383 . S
C2700 C2701 1.377 . S
C2701 H2685 0.931 . S
C2701 C2700 1.377 . S
C2701 C2702 1.379 . S
C2702 H2686 0.931 1_565 S
C2702 C2696 1.383 . S
C2702 C2701 1.379 . S
H2703 C2697 0.959 . S
H2704 C2697 0.961 . S
H2705 C2697 0.960 . S
H2706 C2698 0.930 . S
H2707 C2699 0.929 . S
H2708 C2716 0.929 . S
H2709 C2718 0.930 . S
H2710 C2720 0.930 . S
H2711 C2723 0.929 . S
H2712 C2726 0.930 . S
H2713 C2728 0.960 . S
H2714 C2728 0.960 . S
H2715 C2728 0.960 . S
C2716 H2708 0.929 . S
C2716 C2717 1.377 . S
C2716 C2718 1.384 . S
C2717 C2716 1.377 . S
C2717 C2723 1.390 . S
C2718 H2709 0.930 . S
C2718 C2716 1.384 . S
C2718 C2719 1.372 . S
C2719 C2718 1.372 . S
C2719 C2720 1.400 . S
C2719 C2724 1.490 . S
C2720 H2710 0.930 . S
C2720 C2719 1.400 . S
C2720 C2723 1.386 . S
H2721 C2737 0.930 1_545 S
H2722 C2738 0.931 . S
C2723 H2711 0.929 . S
C2723 C2717 1.390 . S
C2723 C2720 1.386 . S
C2724 C2719 1.490 . S
C2724 C2726 1.395 . S
C2724 C2727 1.403 . S
H2725 C2731 0.930 . S
C2726 H2712 0.930 . S
C2726 C2724 1.395 . S
C2726 C2729 1.403 . S
C2727 C2724 1.403 . S
C2727 C2728 1.524 . S
C2727 C2731 1.400 . S
C2728 H2713 0.960 . S
C2728 H2714 0.960 . S
C2728 H2715 0.960 . S
C2728 C2727 1.524 . S
C2729 C2726 1.403 . S
C2729 C2730 1.392 . S
C2729 C2733 1.495 . S
C2730 C2729 1.392 . S
C2730 C2731 1.385 . S
C2730 C2732 1.478 . S
C2731 H2725 0.930 . S
C2731 C2727 1.400 . S
C2731 C2730 1.385 . S
C2732 C2730 1.478 . S
C2732 C2734 1.381 . S
C2732 C2738 1.383 . S
C2733 C2729 1.495 . S
C2733 H2739 0.959 . S
C2733 H2740 0.961 . S
C2733 H2741 0.960 . S
C2734 C2732 1.381 . S
C2734 C2735 1.394 . S
C2734 H2742 0.930 . S
C2735 C2734 1.394 . S
C2735 C2736 1.383 1_565 S
C2735 H2743 0.929 . S
C2736 C2735 1.383 1_545 S
C2736 C2737 1.377 1_545 S
C2737 H2721 0.930 1_565 S
C2737 C2736 1.377 1_565 S
C2737 C2738 1.379 . S
C2738 H2722 0.931 . S
C2738 C2732 1.383 . S
C2738 C2737 1.379 . S
H2739 C2733 0.959 . S
H2740 C2733 0.961 . S
H2741 C2733 0.960 . S
H2742 C2734 0.930 . S
H2743 C2735 0.929 . S
H2744 C2752 0.929 . S
H2745 C2754 0.930 . S
H2746 C2756 0.930 . S
H2747 C2759 0.929 . S
H2748 C2762 0.930 . S
H2749 C2764 0.960 . S
H2750 C2764 0.960 . S
H2751 C2764 0.960 . S
C2752 H2744 0.929 . S
C2752 C2753 1.377 . S
C2752 C2754 1.384 . S
C2753 C2752 1.377 . S
C2753 C2759 1.390 . S
C2754 H2745 0.930 . S
C2754 C2752 1.384 . S
C2754 C2755 1.372 . S
C2755 C2754 1.372 . S
C2755 C2756 1.400 . S
C2755 C2760 1.490 . S
C2756 H2746 0.930 . S
C2756 C2755 1.400 . S
C2756 C2759 1.386 . S
H2757 C2773 0.927 1_455 S
H2758 C2774 0.931 . S
C2759 H2747 0.929 . S
C2759 C2753 1.390 . S
C2759 C2756 1.386 . S
C2760 C2755 1.490 . S
C2760 C2762 1.395 1_565 S
C2760 C2763 1.403 . S
H2761 C2767 0.930 . S
C2762 H2748 0.930 . S
C2762 C2760 1.395 1_545 S
C2762 C2765 1.403 . S
C2763 C2760 1.403 . S
C2763 C2764 1.524 . S
C2763 C2767 1.400 . S
C2764 H2749 0.960 . S
C2764 H2750 0.960 . S
C2764 H2751 0.960 . S
C2764 C2763 1.524 . S
C2765 C2762 1.403 . S
C2765 C2766 1.392 . S
C2765 C2769 1.495 . S
C2766 C2765 1.392 . S
C2766 C2767 1.385 1_545 S
C2766 C2768 1.478 . S
C2767 H2761 0.930 . S
C2767 C2763 1.400 . S
C2767 C2766 1.385 1_565 S
C2768 C2766 1.478 . S
C2768 C2770 1.389 . S
C2768 C2774 1.383 . S
C2769 C2765 1.495 . S
C2769 H2775 0.959 . S
C2769 H2776 0.961 . S
C2769 H2777 0.960 . S
C2770 C2768 1.389 . S
C2770 C2771 1.398 1_655 S
C2770 H2778 0.919 1_545 S
C2771 C2770 1.398 1_455 S
C2771 C2772 1.383 . S
C2771 H2779 0.929 1_545 S
C2772 C2771 1.383 . S
C2772 C2773 1.372 1_455 S
C2773 H2757 0.927 1_655 S
C2773 C2772 1.372 1_655 S
C2773 C2774 1.387 . S
C2774 H2758 0.931 . S
C2774 C2768 1.383 . S
C2774 C2773 1.387 . S
H2775 C2769 0.959 . S
H2776 C2769 0.961 . S
H2777 C2769 0.960 . S
H2778 C2770 0.919 1_565 S
H2779 C2771 0.929 1_565 S
H2780 C2788 0.929 . S
H2781 C2790 0.930 . S
H2782 C2792 0.930 . S
H2783 C2795 0.929 . S
H2784 C2798 0.930 . S
H2785 C2800 0.960 . S
H2786 C2800 0.960 . S
H2787 C2800 0.960 . S
C2788 H2780 0.929 . S
C2788 C2789 1.377 . S
C2788 C2790 1.384 . S
C2789 C2788 1.377 . S
C2789 C2795 1.390 . S
C2790 H2781 0.930 . S
C2790 C2788 1.384 . S
C2790 C2791 1.372 . S
C2791 C2790 1.372 . S
C2791 C2792 1.400 . S
C2791 C2796 1.490 . S
C2792 H2782 0.930 . S
C2792 C2791 1.400 . S
C2792 C2795 1.386 . S
H2793 C2809 0.930 1_565 S
H2794 C2810 0.931 . S
C2795 H2783 0.929 . S
C2795 C2789 1.390 . S
C2795 C2792 1.386 . S
C2796 C2791 1.490 . S
C2796 C2798 1.395 . S
C2796 C2799 1.403 . S
H2797 C2803 0.930 . S
C2798 H2784 0.930 . S
C2798 C2796 1.395 . S
C2798 C2801 1.403 . S
C2799 C2796 1.403 . S
C2799 C2800 1.524 . S
C2799 C2803 1.400 . S
C2800 H2785 0.960 . S
C2800 H2786 0.960 . S
C2800 H2787 0.960 . S
C2800 C2799 1.524 . S
C2801 C2798 1.403 . S
C2801 C2802 1.392 . S
C2801 C2805 1.495 . S
C2802 C2801 1.392 . S
C2802 C2803 1.385 . S
C2802 C2804 1.478 . S
C2803 H2797 0.930 . S
C2803 C2799 1.400 . S
C2803 C2802 1.385 . S
C2804 C2802 1.478 . S
C2804 C2806 1.381 . S
C2804 C2810 1.383 . S
C2805 C2801 1.495 . S
C2805 H2811 0.959 . S
C2805 H2812 0.961 . S
C2805 H2813 0.960 . S
C2806 C2804 1.381 . S
C2806 C2807 1.394 . S
C2806 H2814 0.930 . S
C2807 C2806 1.394 . S
C2807 C2808 1.383 1_545 S
C2807 H2815 0.929 1_545 S
C2808 C2807 1.383 1_565 S
C2808 C2809 1.377 1_565 S
C2809 H2793 0.930 1_545 S
C2809 C2808 1.377 1_545 S
C2809 C2810 1.379 . S
C2810 H2794 0.931 . S
C2810 C2804 1.383 . S
C2810 C2809 1.379 . S
H2811 C2805 0.959 . S
H2812 C2805 0.961 . S
H2813 C2805 0.960 . S
H2814 C2806 0.930 . S
H2815 C2807 0.929 1_565 S
H2816 C2824 0.922 1_455 S
H2817 C2826 0.930 . S
H2818 C2828 0.930 . S
H2819 C2831 0.929 . S
H2820 C2834 0.930 . S
H2821 C2836 0.960 . S
H2822 C2836 0.960 . S
H2823 C2836 0.960 . S
C2824 H2816 0.922 1_655 S
C2824 C2825 1.366 1_655 S
C2824 C2826 1.402 . S
C2825 C2824 1.366 1_455 S
C2825 C2831 1.390 . S
C2826 H2817 0.930 . S
C2826 C2824 1.402 . S
C2826 C2827 1.372 . S
C2827 C2826 1.372 . S
C2827 C2828 1.400 . S
C2827 C2832 1.490 . S
C2828 H2818 0.930 . S
C2828 C2827 1.400 . S
C2828 C2831 1.386 1_655 S
H2829 C2845 0.930 . S
H2830 C2846 0.931 . S
C2831 H2819 0.929 . S
C2831 C2825 1.390 . S
C2831 C2828 1.386 1_455 S
C2832 C2827 1.490 . S
C2832 C2834 1.395 . S
C2832 C2835 1.403 . S
H2833 C2839 0.930 . S
C2834 H2820 0.930 . S
C2834 C2832 1.395 . S
C2834 C2837 1.403 . S
C2835 C2832 1.403 . S
C2835 C2836 1.524 . S
C2835 C2839 1.400 . S
C2836 H2821 0.960 . S
C2836 H2822 0.960 . S
C2836 H2823 0.960 . S
C2836 C2835 1.524 . S
C2837 C2834 1.403 . S
C2837 C2838 1.392 . S
C2837 C2841 1.495 . S
C2838 C2837 1.392 . S
C2838 C2839 1.385 . S
C2838 C2840 1.478 . S
C2839 H2833 0.930 . S
C2839 C2835 1.400 . S
C2839 C2838 1.385 . S
C2840 C2838 1.478 . S
C2840 C2842 1.381 . S
C2840 C2846 1.383 . S
C2841 C2837 1.495 . S
C2841 H2847 0.959 . S
C2841 H2848 0.961 . S
C2841 H2849 0.960 . S
C2842 C2840 1.381 . S
C2842 C2843 1.394 . S
C2842 H2850 0.930 . S
C2843 C2842 1.394 . S
C2843 C2844 1.383 . S
C2843 H2851 0.929 . S
C2844 C2843 1.383 . S
C2844 C2845 1.377 . S
C2845 H2829 0.930 . S
C2845 C2844 1.377 . S
C2845 C2846 1.379 . S
C2846 H2830 0.931 . S
C2846 C2840 1.383 . S
C2846 C2845 1.379 . S
H2847 C2841 0.959 . S
H2848 C2841 0.961 . S
H2849 C2841 0.960 . S
H2850 C2842 0.930 . S
H2851 C2843 0.929 . S
H2852 C2860 0.929 . S
H2853 C2862 0.930 . S
H2854 C2864 0.930 . S
H2855 C2867 0.929 . S
H2856 C2870 0.930 . S
H2857 C2872 0.960 . S
H2858 C2872 0.960 . S
H2859 C2872 0.960 . S
C2860 H2852 0.929 . S
C2860 C2861 1.377 . S
C2860 C2862 1.384 . S
C2861 C2860 1.377 . S
C2861 C2867 1.390 . S
C2862 H2853 0.930 . S
C2862 C2860 1.384 . S
C2862 C2863 1.372 . S
C2863 C2862 1.372 . S
C2863 C2864 1.400 . S
C2863 C2868 1.490 . S
C2864 H2854 0.930 . S
C2864 C2863 1.400 . S
C2864 C2867 1.386 . S
H2865 C2881 0.930 . S
H2866 C2882 0.931 . S
C2867 H2855 0.929 . S
C2867 C2861 1.390 . S
C2867 C2864 1.386 . S
C2868 C2863 1.490 . S
C2868 C2870 1.395 . S
C2868 C2871 1.403 . S
H2869 C2875 0.930 . S
C2870 H2856 0.930 . S
C2870 C2868 1.395 . S
C2870 C2873 1.403 . S
C2871 C2868 1.403 . S
C2871 C2872 1.524 . S
C2871 C2875 1.400 . S
C2872 H2857 0.960 . S
C2872 H2858 0.960 . S
C2872 H2859 0.960 . S
C2872 C2871 1.524 . S
C2873 C2870 1.403 . S
C2873 C2874 1.392 . S
C2873 C2877 1.495 . S
C2874 C2873 1.392 . S
C2874 C2875 1.385 . S
C2874 C2876 1.478 . S
C2875 H2869 0.930 . S
C2875 C2871 1.400 . S
C2875 C2874 1.385 . S
C2876 C2874 1.478 . S
C2876 C2878 1.381 . S
C2876 C2882 1.383 . S
C2877 C2873 1.495 . S
C2877 H2883 0.959 . S
C2877 H2884 0.961 . S
C2877 H2885 0.960 . S
C2878 C2876 1.381 . S
C2878 C2879 1.394 . S
C2878 H2886 0.930 . S
C2879 C2878 1.394 . S
C2879 C2880 1.383 . S
C2879 H2887 0.929 . S
C2880 C2879 1.383 . S
C2880 C2881 1.377 . S
C2881 H2865 0.930 . S
C2881 C2880 1.377 . S
C2881 C2882 1.379 . S
C2882 H2866 0.931 . S
C2882 C2876 1.383 . S
C2882 C2881 1.379 . S
H2883 C2877 0.959 . S
H2884 C2877 0.961 . S
H2885 C2877 0.960 . S
H2886 C2878 0.930 . S
H2887 C2879 0.929 . S
H2888 C2896 0.929 . S
H2889 C2898 0.930 . S
H2890 C2900 0.930 . S
H2891 C2903 0.929 . S
H2892 C2906 0.930 . S
H2893 C2908 0.960 . S
H2894 C2908 0.960 . S
H2895 C2908 0.960 . S
C2896 H2888 0.929 . S
C2896 C2897 1.377 . S
C2896 C2898 1.384 . S
C2897 C2896 1.377 . S
C2897 C2903 1.390 . S
C2898 H2889 0.930 . S
C2898 C2896 1.384 . S
C2898 C2899 1.372 . S
C2899 C2898 1.372 . S
C2899 C2900 1.400 . S
C2899 C2904 1.490 . S
C2900 H2890 0.930 . S
C2900 C2899 1.400 . S
C2900 C2903 1.386 . S
H2901 C2917 0.930 . S
H2902 C2918 0.931 . S
C2903 H2891 0.929 . S
C2903 C2897 1.390 . S
C2903 C2900 1.386 . S
C2904 C2899 1.490 . S
C2904 C2906 1.395 . S
C2904 C2907 1.403 . S
H2905 C2911 0.930 . S
C2906 H2892 0.930 . S
C2906 C2904 1.395 . S
C2906 C2909 1.403 . S
C2907 C2904 1.403 . S
C2907 C2908 1.524 . S
C2907 C2911 1.400 . S
C2908 H2893 0.960 . S
C2908 H2894 0.960 . S
C2908 H2895 0.960 . S
C2908 C2907 1.524 . S
C2909 C2906 1.403 . S
C2909 C2910 1.392 . S
C2909 C2913 1.495 . S
C2910 C2909 1.392 . S
C2910 C2911 1.385 . S
C2910 C2912 1.478 . S
C2911 H2905 0.930 . S
C2911 C2907 1.400 . S
C2911 C2910 1.385 . S
C2912 C2910 1.478 . S
C2912 C2914 1.381 . S
C2912 C2918 1.383 . S
C2913 C2909 1.495 . S
C2913 H2919 0.959 . S
C2913 H2920 0.961 . S
C2913 H2921 0.960 . S
C2914 C2912 1.381 . S
C2914 C2915 1.394 . S
C2914 H2922 0.930 . S
C2915 C2914 1.394 . S
C2915 C2916 1.383 . S
C2915 H2923 0.929 . S
C2916 C2915 1.383 . S
C2916 C2917 1.377 . S
C2917 H2901 0.930 . S
C2917 C2916 1.377 . S
C2917 C2918 1.379 . S
C2918 H2902 0.931 . S
C2918 C2912 1.383 . S
C2918 C2917 1.379 . S
H2919 C2913 0.959 . S
H2920 C2913 0.961 . S
H2921 C2913 0.960 . S
H2922 C2914 0.930 . S
H2923 C2915 0.929 . S
H2924 C2932 0.929 . S
H2925 C2934 0.930 . S
H2926 C2936 0.930 . S
H2927 C2939 0.929 . S
H2928 C2942 0.930 . S
H2929 C2944 0.960 . S
H2930 C2944 0.960 . S
H2931 C2944 0.960 . S
C2932 H2924 0.929 . S
C2932 C2933 1.377 . S
C2932 C2934 1.384 . S
C2933 C2932 1.377 . S
C2933 C2939 1.390 . S
C2934 H2925 0.930 . S
C2934 C2932 1.384 . S
C2934 C2935 1.372 . S
C2935 C2934 1.372 . S
C2935 C2936 1.400 . S
C2935 C2940 1.490 . S
C2936 H2926 0.930 . S
C2936 C2935 1.400 . S
C2936 C2939 1.386 . S
H2937 C2953 0.930 . S
H2938 C2954 0.931 . S
C2939 H2927 0.929 . S
C2939 C2933 1.390 . S
C2939 C2936 1.386 . S
C2940 C2935 1.490 . S
C2940 C2942 1.395 . S
C2940 C2943 1.403 . S
H2941 C2947 0.930 . S
C2942 H2928 0.930 . S
C2942 C2940 1.395 . S
C2942 C2945 1.403 . S
C2943 C2940 1.403 . S
C2943 C2944 1.524 . S
C2943 C2947 1.400 . S
C2944 H2929 0.960 . S
C2944 H2930 0.960 . S
C2944 H2931 0.960 . S
C2944 C2943 1.524 . S
C2945 C2942 1.403 . S
C2945 C2946 1.392 . S
C2945 C2949 1.495 . S
C2946 C2945 1.392 . S
C2946 C2947 1.385 . S
C2946 C2948 1.478 . S
C2947 H2941 0.930 . S
C2947 C2943 1.400 . S
C2947 C2946 1.385 . S
C2948 C2946 1.478 . S
C2948 C2950 1.381 . S
C2948 C2954 1.383 . S
C2949 C2945 1.495 . S
C2949 H2955 0.959 . S
C2949 H2956 0.961 . S
C2949 H2957 0.960 . S
C2950 C2948 1.381 . S
C2950 C2951 1.394 . S
C2950 H2958 0.930 . S
C2951 C2950 1.394 . S
C2951 C2952 1.383 . S
C2951 H2959 0.929 . S
C2952 C2951 1.383 . S
C2952 C2953 1.377 . S
C2953 H2937 0.930 . S
C2953 C2952 1.377 . S
C2953 C2954 1.379 . S
C2954 H2938 0.931 . S
C2954 C2948 1.383 . S
C2954 C2953 1.379 . S
H2955 C2949 0.959 . S
H2956 C2949 0.961 . S
H2957 C2949 0.960 . S
H2958 C2950 0.930 . S
H2959 C2951 0.929 . S
H2960 C2968 0.929 . S
H2961 C2970 0.930 . S
H2962 C2972 0.930 . S
H2963 C2975 0.929 . S
H2964 C2978 0.930 . S
H2965 C2980 0.960 . S
H2966 C2980 0.960 . S
H2967 C2980 0.960 . S
C2968 H2960 0.929 . S
C2968 C2969 1.377 . S
C2968 C2970 1.384 . S
C2969 C2968 1.377 . S
C2969 C2975 1.390 . S
C2970 H2961 0.930 . S
C2970 C2968 1.384 . S
C2970 C2971 1.372 . S
C2971 C2970 1.372 . S
C2971 C2972 1.400 . S
C2971 C2976 1.490 . S
C2972 H2962 0.930 . S
C2972 C2971 1.400 . S
C2972 C2975 1.386 . S
H2973 C2989 0.941 . S
H2974 C2990 0.931 . S
C2975 H2963 0.929 . S
C2975 C2969 1.390 . S
C2975 C2972 1.386 . S
C2976 C2971 1.490 . S
C2976 C2978 1.395 . S
C2976 C2979 1.403 . S
H2977 C2983 0.930 . S
C2978 H2964 0.930 . S
C2978 C2976 1.395 . S
C2978 C2981 1.403 . S
C2979 C2976 1.403 . S
C2979 C2980 1.524 . S
C2979 C2983 1.400 . S
C2980 H2965 0.960 . S
C2980 H2966 0.960 . S
C2980 H2967 0.960 . S
C2980 C2979 1.524 . S
C2981 C2978 1.403 . S
C2981 C2982 1.392 . S
C2981 C2985 1.495 . S
C2982 C2981 1.392 . S
C2982 C2983 1.385 . S
C2982 C2984 1.478 . S
C2983 H2977 0.930 . S
C2983 C2979 1.400 . S
C2983 C2982 1.385 . S
C2984 C2982 1.478 . S
C2984 C2986 1.381 . S
C2984 C2990 1.383 . S
C2985 C2981 1.495 . S
C2985 H2991 0.959 . S
C2985 H2992 0.961 . S
C2985 H2993 0.960 . S
C2986 C2984 1.381 . S
C2986 C2987 1.394 1_655 S
C2986 H2994 0.930 . S
C2987 C2986 1.394 1_455 S
C2987 C2988 1.383 . S
C2987 H2995 0.929 . S
C2988 C2987 1.383 . S
C2988 C2989 1.394 . S
C2989 H2973 0.941 . S
C2989 C2988 1.394 . S
C2989 C2990 1.352 1_455 S
C2990 H2974 0.931 . S
C2990 C2984 1.383 . S
C2990 C2989 1.352 1_655 S
H2991 C2985 0.959 . S
H2992 C2985 0.961 . S
H2993 C2985 0.960 . S
H2994 C2986 0.930 . S
H2995 C2987 0.929 . S
H2996 C3004 0.929 . S
H2997 C3006 0.930 . S
H2998 C3008 0.930 . S
H2999 C3011 0.929 . S
H3000 C3014 0.930 . S
H3001 C3016 0.960 . S
H3002 C3016 0.960 . S
H3003 C3016 0.960 . S
C3004 H2996 0.929 . S
C3004 C3005 1.377 . S
C3004 C3006 1.384 . S
C3005 C3004 1.377 . S
C3005 C3011 1.390 . S
C3006 H2997 0.930 . S
C3006 C3004 1.384 . S
C3006 C3007 1.372 . S
C3007 C3006 1.372 . S
C3007 C3008 1.400 . S
C3007 C3012 1.490 . S
C3008 H2998 0.930 . S
C3008 C3007 1.400 . S
C3008 C3011 1.386 . S
H3009 C3025 0.930 . S
H3010 C3026 0.931 . S
C3011 H2999 0.929 . S
C3011 C3005 1.390 . S
C3011 C3008 1.386 . S
C3012 C3007 1.490 . S
C3012 C3014 1.395 . S
C3012 C3015 1.403 . S
H3013 C3019 0.930 . S
C3014 H3000 0.930 . S
C3014 C3012 1.395 . S
C3014 C3017 1.403 . S
C3015 C3012 1.403 . S
C3015 C3016 1.524 . S
C3015 C3019 1.400 . S
C3016 H3001 0.960 . S
C3016 H3002 0.960 . S
C3016 H3003 0.960 . S
C3016 C3015 1.524 . S
C3017 C3014 1.403 . S
C3017 C3018 1.392 . S
C3017 C3021 1.495 . S
C3018 C3017 1.392 . S
C3018 C3019 1.385 . S
C3018 C3020 1.478 . S
C3019 H3013 0.930 . S
C3019 C3015 1.400 . S
C3019 C3018 1.385 . S
C3020 C3018 1.478 . S
C3020 C3022 1.381 . S
C3020 C3026 1.383 . S
C3021 C3017 1.495 . S
C3021 H3027 0.959 . S
C3021 H3028 0.961 . S
C3021 H3029 0.960 . S
C3022 C3020 1.381 . S
C3022 C3023 1.394 . S
C3022 H3030 0.930 . S
C3023 C3022 1.394 . S
C3023 C3024 1.383 . S
C3023 H3031 0.929 . S
C3024 C3023 1.383 . S
C3024 C3025 1.377 . S
C3025 H3009 0.930 . S
C3025 C3024 1.377 . S
C3025 C3026 1.379 . S
C3026 H3010 0.931 . S
C3026 C3020 1.383 . S
C3026 C3025 1.379 . S
H3027 C3021 0.959 . S
H3028 C3021 0.961 . S
H3029 C3021 0.960 . S
H3030 C3022 0.930 . S
H3031 C3023 0.929 . S
H3032 C3040 0.929 . S
H3033 C3042 0.930 . S
H3034 C3044 0.930 . S
H3035 C3047 0.929 . S
H3036 C3050 0.930 . S
H3037 C3052 0.960 . S
H3038 C3052 0.960 . S
H3039 C3052 0.960 . S
C3040 H3032 0.929 . S
C3040 C3041 1.377 . S
C3040 C3042 1.384 . S
C3041 C3040 1.377 . S
C3041 C3047 1.390 . S
C3042 H3033 0.930 . S
C3042 C3040 1.384 . S
C3042 C3043 1.372 . S
C3043 C3042 1.372 . S
C3043 C3044 1.400 . S
C3043 C3048 1.490 . S
C3044 H3034 0.930 . S
C3044 C3043 1.400 . S
C3044 C3047 1.386 . S
H3045 C3061 0.930 . S
H3046 C3062 0.931 . S
C3047 H3035 0.929 . S
C3047 C3041 1.390 . S
C3047 C3044 1.386 . S
C3048 C3043 1.490 . S
C3048 C3050 1.395 . S
C3048 C3051 1.403 . S
H3049 C3055 0.930 . S
C3050 H3036 0.930 . S
C3050 C3048 1.395 . S
C3050 C3053 1.403 . S
C3051 C3048 1.403 . S
C3051 C3052 1.524 . S
C3051 C3055 1.400 . S
C3052 H3037 0.960 . S
C3052 H3038 0.960 . S
C3052 H3039 0.960 . S
C3052 C3051 1.524 . S
C3053 C3050 1.403 . S
C3053 C3054 1.392 . S
C3053 C3057 1.495 . S
C3054 C3053 1.392 . S
C3054 C3055 1.385 . S
C3054 C3056 1.478 . S
C3055 H3049 0.930 . S
C3055 C3051 1.400 . S
C3055 C3054 1.385 . S
C3056 C3054 1.478 . S
C3056 C3058 1.381 . S
C3056 C3062 1.383 . S
C3057 C3053 1.495 . S
C3057 H3063 0.959 . S
C3057 H3064 0.961 . S
C3057 H3065 0.960 . S
C3058 C3056 1.381 . S
C3058 C3059 1.394 . S
C3058 H3066 0.930 . S
C3059 C3058 1.394 . S
C3059 C3060 1.383 . S
C3059 H3067 0.929 . S
C3060 C3059 1.383 . S
C3060 C3061 1.377 . S
C3061 H3045 0.930 . S
C3061 C3060 1.377 . S
C3061 C3062 1.379 . S
C3062 H3046 0.931 . S
C3062 C3056 1.383 . S
C3062 C3061 1.379 . S
H3063 C3057 0.959 . S
H3064 C3057 0.961 . S
H3065 C3057 0.960 . S
H3066 C3058 0.930 . S
H3067 C3059 0.929 . S
H3068 C3076 0.929 . S
H3069 C3078 0.930 . S
H3070 C3080 0.930 . S
H3071 C3083 0.929 . S
H3072 C3086 0.930 . S
H3073 C3088 0.960 . S
H3074 C3088 0.960 . S
H3075 C3088 0.960 . S
C3076 H3068 0.929 . S
C3076 C3077 1.377 . S
C3076 C3078 1.384 . S
C3077 C3076 1.377 . S
C3077 C3083 1.390 . S
C3078 H3069 0.930 . S
C3078 C3076 1.384 . S
C3078 C3079 1.372 . S
C3079 C3078 1.372 . S
C3079 C3080 1.400 . S
C3079 C3084 1.490 . S
C3080 H3070 0.930 . S
C3080 C3079 1.400 . S
C3080 C3083 1.386 . S
H3081 C3097 0.930 . S
H3082 C3098 0.931 . S
C3083 H3071 0.929 . S
C3083 C3077 1.390 . S
C3083 C3080 1.386 . S
C3084 C3079 1.490 . S
C3084 C3086 1.395 . S
C3084 C3087 1.403 . S
H3085 C3091 0.930 . S
C3086 H3072 0.930 . S
C3086 C3084 1.395 . S
C3086 C3089 1.403 . S
C3087 C3084 1.403 . S
C3087 C3088 1.524 . S
C3087 C3091 1.400 . S
C3088 H3073 0.960 . S
C3088 H3074 0.960 . S
C3088 H3075 0.960 . S
C3088 C3087 1.524 . S
C3089 C3086 1.403 . S
C3089 C3090 1.392 . S
C3089 C3093 1.495 . S
C3090 C3089 1.392 . S
C3090 C3091 1.385 . S
C3090 C3092 1.478 . S
C3091 H3085 0.930 . S
C3091 C3087 1.400 . S
C3091 C3090 1.385 . S
C3092 C3090 1.478 . S
C3092 C3094 1.381 . S
C3092 C3098 1.383 . S
C3093 C3089 1.495 . S
C3093 H3099 0.959 . S
C3093 H3100 0.961 . S
C3093 H3101 0.960 . S
C3094 C3092 1.381 . S
C3094 C3095 1.394 . S
C3094 H3102 0.930 . S
C3095 C3094 1.394 . S
C3095 C3096 1.383 . S
C3095 H3103 0.929 . S
C3096 C3095 1.383 . S
C3096 C3097 1.377 . S
C3097 H3081 0.930 . S
C3097 C3096 1.377 . S
C3097 C3098 1.379 . S
C3098 H3082 0.931 . S
C3098 C3092 1.383 . S
C3098 C3097 1.379 . S
H3099 C3093 0.959 . S
H3100 C3093 0.961 . S
H3101 C3093 0.960 . S
H3102 C3094 0.930 . S
H3103 C3095 0.929 . S
H3104 C3112 0.929 . S
H3105 C3114 0.930 . S
H3106 C3116 0.930 . S
H3107 C3119 0.929 . S
H3108 C3122 0.930 . S
H3109 C3124 0.960 . S
H3110 C3124 0.960 . S
H3111 C3124 0.960 . S
C3112 H3104 0.929 . S
C3112 C3113 1.377 . S
C3112 C3114 1.384 . S
C3113 C3112 1.377 . S
C3113 C3119 1.390 . S
C3114 H3105 0.930 . S
C3114 C3112 1.384 . S
C3114 C3115 1.372 . S
C3115 C3114 1.372 . S
C3115 C3116 1.400 . S
C3115 C3120 1.490 . S
C3116 H3106 0.930 . S
C3116 C3115 1.400 . S
C3116 C3119 1.386 . S
H3117 C3133 0.930 . S
H3118 C3134 0.931 . S
C3119 H3107 0.929 . S
C3119 C3113 1.390 . S
C3119 C3116 1.386 . S
C3120 C3115 1.490 . S
C3120 C3122 1.395 . S
C3120 C3123 1.403 . S
H3121 C3127 0.930 . S
C3122 H3108 0.930 . S
C3122 C3120 1.395 . S
C3122 C3125 1.403 . S
C3123 C3120 1.403 . S
C3123 C3124 1.524 . S
C3123 C3127 1.400 . S
C3124 H3109 0.960 . S
C3124 H3110 0.960 . S
C3124 H3111 0.960 . S
C3124 C3123 1.524 . S
C3125 C3122 1.403 . S
C3125 C3126 1.392 . S
C3125 C3129 1.495 . S
C3126 C3125 1.392 . S
C3126 C3127 1.385 . S
C3126 C3128 1.478 . S
C3127 H3121 0.930 . S
C3127 C3123 1.400 . S
C3127 C3126 1.385 . S
C3128 C3126 1.478 . S
C3128 C3130 1.381 . S
C3128 C3134 1.383 . S
C3129 C3125 1.495 . S
C3129 H3135 0.959 . S
C3129 H3136 0.961 . S
C3129 H3137 0.960 . S
C3130 C3128 1.381 . S
C3130 C3131 1.394 1_455 S
C3130 H3138 0.930 . S
C3131 C3130 1.394 1_655 S
C3131 C3132 1.383 . S
C3131 H3139 0.929 . S
C3132 C3131 1.383 . S
C3132 C3133 1.377 . S
C3133 H3117 0.930 . S
C3133 C3132 1.377 . S
C3133 C3134 1.379 1_655 S
C3134 H3118 0.931 . S
C3134 C3128 1.383 . S
C3134 C3133 1.379 1_455 S
H3135 C3129 0.959 . S
H3136 C3129 0.961 . S
H3137 C3129 0.960 . S
H3138 C3130 0.930 . S
H3139 C3131 0.929 . S
H3140 C3148 0.929 . S
H3141 C3150 0.930 . S
H3142 C3152 0.930 . S
H3143 C3155 0.929 . S
H3144 C3158 0.930 . S
H3145 C3160 0.960 . S
H3146 C3160 0.960 . S
H3147 C3160 0.960 . S
C3148 H3140 0.929 . S
C3148 C3149 1.377 . S
C3148 C3150 1.384 . S
C3149 C3148 1.377 . S
C3149 C3155 1.390 . S
C3150 H3141 0.930 . S
C3150 C3148 1.384 . S
C3150 C3151 1.372 . S
C3151 C3150 1.372 . S
C3151 C3152 1.400 . S
C3151 C3156 1.490 . S
C3152 H3142 0.930 . S
C3152 C3151 1.400 . S
C3152 C3155 1.386 . S
H3153 C3169 0.930 . S
H3154 C3170 0.931 . S
C3155 H3143 0.929 . S
C3155 C3149 1.390 . S
C3155 C3152 1.386 . S
C3156 C3151 1.490 . S
C3156 C3158 1.395 . S
C3156 C3159 1.403 . S
H3157 C3163 0.930 . S
C3158 H3144 0.930 . S
C3158 C3156 1.395 . S
C3158 C3161 1.403 . S
C3159 C3156 1.403 . S
C3159 C3160 1.524 . S
C3159 C3163 1.400 . S
C3160 H3145 0.960 . S
C3160 H3146 0.960 . S
C3160 H3147 0.960 . S
C3160 C3159 1.524 . S
C3161 C3158 1.403 . S
C3161 C3162 1.392 . S
C3161 C3165 1.495 . S
C3162 C3161 1.392 . S
C3162 C3163 1.385 . S
C3162 C3164 1.478 . S
C3163 H3157 0.930 . S
C3163 C3159 1.400 . S
C3163 C3162 1.385 . S
C3164 C3162 1.478 . S
C3164 C3166 1.381 . S
C3164 C3170 1.383 . S
C3165 C3161 1.495 . S
C3165 H3171 0.959 . S
C3165 H3172 0.961 . S
C3165 H3173 0.960 . S
C3166 C3164 1.381 . S
C3166 C3167 1.394 . S
C3166 H3174 0.930 . S
C3167 C3166 1.394 . S
C3167 C3168 1.383 . S
C3167 H3175 0.929 . S
C3168 C3167 1.383 . S
C3168 C3169 1.377 . S
C3169 H3153 0.930 . S
C3169 C3168 1.377 . S
C3169 C3170 1.379 . S
C3170 H3154 0.931 . S
C3170 C3164 1.383 . S
C3170 C3169 1.379 . S
H3171 C3165 0.959 . S
H3172 C3165 0.961 . S
H3173 C3165 0.960 . S
H3174 C3166 0.930 . S
H3175 C3167 0.929 . S
H3176 C3184 0.929 . S
H3177 C3186 0.930 . S
H3178 C3188 0.930 . S
H3179 C3191 0.929 . S
H3180 C3194 0.930 . S
H3181 C3196 0.960 . S
H3182 C3196 0.960 . S
H3183 C3196 0.960 . S
C3184 H3176 0.929 . S
C3184 C3185 1.377 . S
C3184 C3186 1.384 . S
C3185 C3184 1.377 . S
C3185 C3191 1.390 . S
C3186 H3177 0.930 . S
C3186 C3184 1.384 . S
C3186 C3187 1.372 . S
C3187 C3186 1.372 . S
C3187 C3188 1.400 . S
C3187 C3192 1.490 . S
C3188 H3178 0.930 . S
C3188 C3187 1.400 . S
C3188 C3191 1.386 . S
H3189 C3205 0.930 . S
H3190 C3206 0.931 . S
C3191 H3179 0.929 . S
C3191 C3185 1.390 . S
C3191 C3188 1.386 . S
C3192 C3187 1.490 . S
C3192 C3194 1.395 . S
C3192 C3195 1.403 . S
H3193 C3199 0.930 . S
C3194 H3180 0.930 . S
C3194 C3192 1.395 . S
C3194 C3197 1.403 . S
C3195 C3192 1.403 . S
C3195 C3196 1.524 . S
C3195 C3199 1.400 . S
C3196 H3181 0.960 . S
C3196 H3182 0.960 . S
C3196 H3183 0.960 . S
C3196 C3195 1.524 . S
C3197 C3194 1.403 . S
C3197 C3198 1.392 . S
C3197 C3201 1.495 . S
C3198 C3197 1.392 . S
C3198 C3199 1.385 . S
C3198 C3200 1.478 . S
C3199 H3193 0.930 . S
C3199 C3195 1.400 . S
C3199 C3198 1.385 . S
C3200 C3198 1.478 . S
C3200 C3202 1.381 . S
C3200 C3206 1.383 . S
C3201 C3197 1.495 . S
C3201 H3207 0.959 . S
C3201 H3208 0.961 . S
C3201 H3209 0.960 . S
C3202 C3200 1.381 . S
C3202 C3203 1.394 . S
C3202 H3210 0.930 . S
C3203 C3202 1.394 . S
C3203 C3204 1.383 . S
C3203 H3211 0.929 . S
C3204 C3203 1.383 . S
C3204 C3205 1.377 . S
C3205 H3189 0.930 . S
C3205 C3204 1.377 . S
C3205 C3206 1.379 . S
C3206 H3190 0.931 . S
C3206 C3200 1.383 . S
C3206 C3205 1.379 . S
H3207 C3201 0.959 . S
H3208 C3201 0.961 . S
H3209 C3201 0.960 . S
H3210 C3202 0.930 . S
H3211 C3203 0.929 . S
H3212 C3220 0.929 . S
H3213 C3222 0.930 . S
H3214 C3224 0.930 . S
H3215 C3227 0.929 . S
H3216 C3230 0.930 . S
H3217 C3232 0.960 . S
H3218 C3232 0.960 . S
H3219 C3232 0.960 . S
C3220 H3212 0.929 . S
C3220 C3221 1.377 . S
C3220 C3222 1.384 . S
C3221 C3220 1.377 . S
C3221 C3227 1.390 . S
C3222 H3213 0.930 . S
C3222 C3220 1.384 . S
C3222 C3223 1.372 . S
C3223 C3222 1.372 . S
C3223 C3224 1.400 . S
C3223 C3228 1.490 . S
C3224 H3214 0.930 . S
C3224 C3223 1.400 . S
C3224 C3227 1.386 . S
H3225 C3241 0.930 . S
H3226 C3242 0.931 . S
C3227 H3215 0.929 . S
C3227 C3221 1.390 . S
C3227 C3224 1.386 . S
C3228 C3223 1.490 . S
C3228 C3230 1.395 . S
C3228 C3231 1.403 . S
H3229 C3235 0.930 . S
C3230 H3216 0.930 . S
C3230 C3228 1.395 . S
C3230 C3233 1.403 . S
C3231 C3228 1.403 . S
C3231 C3232 1.524 . S
C3231 C3235 1.400 . S
C3232 H3217 0.960 . S
C3232 H3218 0.960 . S
C3232 H3219 0.960 . S
C3232 C3231 1.524 . S
C3233 C3230 1.403 . S
C3233 C3234 1.392 . S
C3233 C3237 1.495 . S
C3234 C3233 1.392 . S
C3234 C3235 1.385 . S
C3234 C3236 1.478 . S
C3235 H3229 0.930 . S
C3235 C3231 1.400 . S
C3235 C3234 1.385 . S
C3236 C3234 1.478 . S
C3236 C3238 1.381 . S
C3236 C3242 1.383 . S
C3237 C3233 1.495 . S
C3237 H3243 0.959 . S
C3237 H3244 0.961 . S
C3237 H3245 0.960 . S
C3238 C3236 1.381 . S
C3238 C3239 1.394 . S
C3238 H3246 0.930 . S
C3239 C3238 1.394 . S
C3239 C3240 1.383 . S
C3239 H3247 0.929 . S
C3240 C3239 1.383 . S
C3240 C3241 1.377 . S
C3241 H3225 0.930 . S
C3241 C3240 1.377 . S
C3241 C3242 1.379 . S
C3242 H3226 0.931 . S
C3242 C3236 1.383 . S
C3242 C3241 1.379 . S
H3243 C3237 0.959 . S
H3244 C3237 0.961 . S
H3245 C3237 0.960 . S
H3246 C3238 0.930 . S
H3247 C3239 0.929 . S
H3248 C3256 0.929 . S
H3249 C3258 0.930 . S
H3250 C3260 0.930 . S
H3251 C3263 0.929 . S
H3252 C3266 0.930 . S
H3253 C3268 0.960 . S
H3254 C3268 0.960 . S
H3255 C3268 0.960 . S
C3256 H3248 0.929 . S
C3256 C3257 1.377 . S
C3256 C3258 1.384 . S
C3257 C3256 1.377 . S
C3257 C3263 1.390 . S
C3258 H3249 0.930 . S
C3258 C3256 1.384 . S
C3258 C3259 1.372 . S
C3259 C3258 1.372 . S
C3259 C3260 1.400 . S
C3259 C3264 1.490 . S
C3260 H3250 0.930 . S
C3260 C3259 1.400 . S
C3260 C3263 1.386 . S
H3261 C3277 0.930 1_655 S
H3262 C3278 0.931 . S
C3263 H3251 0.929 . S
C3263 C3257 1.390 . S
C3263 C3260 1.386 . S
C3264 C3259 1.490 . S
C3264 C3266 1.395 . S
C3264 C3267 1.403 . S
H3265 C3271 0.930 . S
C3266 H3252 0.930 . S
C3266 C3264 1.395 . S
C3266 C3269 1.403 . S
C3267 C3264 1.403 . S
C3267 C3268 1.524 . S
C3267 C3271 1.400 . S
C3268 H3253 0.960 . S
C3268 H3254 0.960 . S
C3268 H3255 0.960 . S
C3268 C3267 1.524 . S
C3269 C3266 1.403 . S
C3269 C3270 1.392 . S
C3269 C3273 1.495 . S
C3270 C3269 1.392 . S
C3270 C3271 1.385 . S
C3270 C3272 1.478 . S
C3271 H3265 0.930 . S
C3271 C3267 1.400 . S
C3271 C3270 1.385 . S
C3272 C3270 1.478 . S
C3272 C3274 1.381 . S
C3272 C3278 1.383 . S
C3273 C3269 1.495 . S
C3273 H3279 0.959 . S
C3273 H3280 0.961 . S
C3273 H3281 0.960 . S
C3274 C3272 1.381 . S
C3274 C3275 1.394 1_455 S
C3274 H3282 0.930 . S
C3275 C3274 1.394 1_655 S
C3275 C3276 1.383 . S
C3275 H3283 0.929 . S
C3276 C3275 1.383 . S
C3276 C3277 1.377 1_655 S
C3277 H3261 0.930 1_455 S
C3277 C3276 1.377 1_455 S
C3277 C3278 1.379 . S
C3278 H3262 0.931 . S
C3278 C3272 1.383 . S
C3278 C3277 1.379 . S
H3279 C3273 0.959 . S
H3280 C3273 0.961 . S
H3281 C3273 0.960 . S
H3282 C3274 0.930 . S
H3283 C3275 0.929 . S
H3284 C3292 0.929 . S
H3285 C3294 0.930 . S
H3286 C3296 0.930 . S
H3287 C3299 0.929 . S
H3288 C3302 0.930 . S
H3289 C3304 0.960 . S
H3290 C3304 0.960 . S
H3291 C3304 0.960 . S
C3292 H3284 0.929 . S
C3292 C3293 1.377 . S
C3292 C3294 1.384 . S
C3293 C3292 1.377 . S
C3293 C3299 1.390 . S
C3294 H3285 0.930 . S
C3294 C3292 1.384 . S
C3294 C3295 1.372 . S
C3295 C3294 1.372 . S
C3295 C3296 1.400 . S
C3295 C3300 1.490 . S
C3296 H3286 0.930 . S
C3296 C3295 1.400 . S
C3296 C3299 1.386 . S
H3297 C3313 0.930 . S
H3298 C3314 0.931 . S
C3299 H3287 0.929 . S
C3299 C3293 1.390 . S
C3299 C3296 1.386 . S
C3300 C3295 1.490 . S
C3300 C3302 1.395 . S
C3300 C3303 1.403 . S
H3301 C3307 0.930 . S
C3302 H3288 0.930 . S
C3302 C3300 1.395 . S
C3302 C3305 1.403 . S
C3303 C3300 1.403 . S
C3303 C3304 1.524 . S
C3303 C3307 1.400 . S
C3304 H3289 0.960 . S
C3304 H3290 0.960 . S
C3304 H3291 0.960 . S
C3304 C3303 1.524 . S
C3305 C3302 1.403 . S
C3305 C3306 1.392 . S
C3305 C3309 1.495 . S
C3306 C3305 1.392 . S
C3306 C3307 1.385 . S
C3306 C3308 1.478 . S
C3307 H3301 0.930 . S
C3307 C3303 1.400 . S
C3307 C3306 1.385 . S
C3308 C3306 1.478 . S
C3308 C3310 1.381 . S
C3308 C3314 1.383 . S
C3309 C3305 1.495 . S
C3309 H3315 0.959 . S
C3309 H3316 0.961 . S
C3309 H3317 0.960 . S
C3310 C3308 1.381 . S
C3310 C3311 1.394 . S
C3310 H3318 0.930 . S
C3311 C3310 1.394 . S
C3311 C3312 1.383 . S
C3311 H3319 0.929 . S
C3312 C3311 1.383 . S
C3312 C3313 1.377 . S
C3313 H3297 0.930 . S
C3313 C3312 1.377 . S
C3313 C3314 1.379 . S
C3314 H3298 0.931 . S
C3314 C3308 1.383 . S
C3314 C3313 1.379 . S
H3315 C3309 0.959 . S
H3316 C3309 0.961 . S
H3317 C3309 0.960 . S
H3318 C3310 0.930 . S
H3319 C3311 0.929 . S
H3320 C3328 0.929 . S
H3321 C3330 0.930 . S
H3322 C3332 0.930 . S
H3323 C3335 0.929 . S
H3324 C3338 0.930 . S
H3325 C3340 0.960 . S
H3326 C3340 0.960 . S
H3327 C3340 0.960 . S
C3328 H3320 0.929 . S
C3328 C3329 1.377 . S
C3328 C3330 1.384 . S
C3329 C3328 1.377 . S
C3329 C3335 1.390 . S
C3330 H3321 0.930 . S
C3330 C3328 1.384 . S
C3330 C3331 1.372 . S
C3331 C3330 1.372 . S
C3331 C3332 1.400 . S
C3331 C3336 1.490 . S
C3332 H3322 0.930 . S
C3332 C3331 1.400 . S
C3332 C3335 1.386 . S
H3333 C3349 0.930 . S
H3334 C3350 0.931 . S
C3335 H3323 0.929 . S
C3335 C3329 1.390 . S
C3335 C3332 1.386 . S
C3336 C3331 1.490 . S
C3336 C3338 1.395 . S
C3336 C3339 1.403 . S
H3337 C3343 0.930 . S
C3338 H3324 0.930 . S
C3338 C3336 1.395 . S
C3338 C3341 1.403 . S
C3339 C3336 1.403 . S
C3339 C3340 1.524 . S
C3339 C3343 1.400 . S
C3340 H3325 0.960 . S
C3340 H3326 0.960 . S
C3340 H3327 0.960 . S
C3340 C3339 1.524 . S
C3341 C3338 1.403 . S
C3341 C3342 1.392 . S
C3341 C3345 1.495 . S
C3342 C3341 1.392 . S
C3342 C3343 1.385 . S
C3342 C3344 1.478 . S
C3343 H3337 0.930 . S
C3343 C3339 1.400 . S
C3343 C3342 1.385 . S
C3344 C3342 1.478 . S
C3344 C3346 1.381 . S
C3344 C3350 1.383 . S
C3345 C3341 1.495 . S
C3345 H3351 0.959 . S
C3345 H3352 0.961 . S
C3345 H3353 0.960 . S
C3346 C3344 1.381 . S
C3346 C3347 1.394 . S
C3346 H3354 0.930 . S
C3347 C3346 1.394 . S
C3347 C3348 1.383 . S
C3347 H3355 0.929 . S
C3348 C3347 1.383 . S
C3348 C3349 1.377 . S
C3349 H3333 0.930 . S
C3349 C3348 1.377 . S
C3349 C3350 1.379 . S
C3350 H3334 0.931 . S
C3350 C3344 1.383 . S
C3350 C3349 1.379 . S
H3351 C3345 0.959 . S
H3352 C3345 0.961 . S
H3353 C3345 0.960 . S
H3354 C3346 0.930 . S
H3355 C3347 0.929 . S
H3356 C3364 0.929 . S
H3357 C3366 0.930 . S
H3358 C3368 0.930 . S
H3359 C3371 0.929 . S
H3360 C3374 0.930 . S
H3361 C3376 0.960 . S
H3362 C3376 0.960 . S
H3363 C3376 0.960 . S
C3364 H3356 0.929 . S
C3364 C3365 1.377 . S
C3364 C3366 1.384 . S
C3365 C3364 1.377 . S
C3365 C3371 1.390 . S
C3366 H3357 0.930 . S
C3366 C3364 1.384 . S
C3366 C3367 1.372 . S
C3367 C3366 1.372 . S
C3367 C3368 1.400 . S
C3367 C3372 1.490 . S
C3368 H3358 0.930 . S
C3368 C3367 1.400 . S
C3368 C3371 1.386 . S
H3369 C3385 0.930 . S
H3370 C3386 0.931 . S
C3371 H3359 0.929 . S
C3371 C3365 1.390 . S
C3371 C3368 1.386 . S
C3372 C3367 1.490 . S
C3372 C3374 1.395 . S
C3372 C3375 1.403 . S
H3373 C3379 0.930 . S
C3374 H3360 0.930 . S
C3374 C3372 1.395 . S
C3374 C3377 1.403 . S
C3375 C3372 1.403 . S
C3375 C3376 1.524 . S
C3375 C3379 1.400 . S
C3376 H3361 0.960 . S
C3376 H3362 0.960 . S
C3376 H3363 0.960 . S
C3376 C3375 1.524 . S
C3377 C3374 1.403 . S
C3377 C3378 1.392 . S
C3377 C3381 1.495 . S
C3378 C3377 1.392 . S
C3378 C3379 1.385 . S
C3378 C3380 1.478 . S
C3379 H3373 0.930 . S
C3379 C3375 1.400 . S
C3379 C3378 1.385 . S
C3380 C3378 1.478 . S
C3380 C3382 1.381 . S
C3380 C3386 1.383 . S
C3381 C3377 1.495 . S
C3381 H3387 0.959 . S
C3381 H3388 0.961 . S
C3381 H3389 0.960 . S
C3382 C3380 1.381 . S
C3382 C3383 1.394 . S
C3382 H3390 0.930 . S
C3383 C3382 1.394 . S
C3383 C3384 1.383 . S
C3383 H3391 0.929 . S
C3384 C3383 1.383 . S
C3384 C3385 1.377 . S
C3385 H3369 0.930 . S
C3385 C3384 1.377 . S
C3385 C3386 1.379 . S
C3386 H3370 0.931 . S
C3386 C3380 1.383 . S
C3386 C3385 1.379 . S
H3387 C3381 0.959 . S
H3388 C3381 0.961 . S
H3389 C3381 0.960 . S
H3390 C3382 0.930 . S
H3391 C3383 0.929 . S
H3392 C3400 0.929 . S
H3393 C3402 0.930 . S
H3394 C3404 0.930 . S
H3395 C3407 0.929 . S
H3396 C3410 0.930 . S
H3397 C3412 0.960 . S
H3398 C3412 0.960 . S
H3399 C3412 0.960 . S
C3400 H3392 0.929 . S
C3400 C3401 1.377 . S
C3400 C3402 1.384 . S
C3401 C3400 1.377 . S
C3401 C3407 1.390 . S
C3402 H3393 0.930 . S
C3402 C3400 1.384 . S
C3402 C3403 1.372 . S
C3403 C3402 1.372 . S
C3403 C3404 1.400 . S
C3403 C3408 1.490 . S
C3404 H3394 0.930 . S
C3404 C3403 1.400 . S
C3404 C3407 1.386 . S
H3405 C3421 0.930 . S
H3406 C3422 0.931 . S
C3407 H3395 0.929 . S
C3407 C3401 1.390 . S
C3407 C3404 1.386 . S
C3408 C3403 1.490 . S
C3408 C3410 1.395 . S
C3408 C3411 1.403 . S
H3409 C3415 0.930 . S
C3410 H3396 0.930 . S
C3410 C3408 1.395 . S
C3410 C3413 1.403 . S
C3411 C3408 1.403 . S
C3411 C3412 1.524 . S
C3411 C3415 1.400 . S
C3412 H3397 0.960 . S
C3412 H3398 0.960 . S
C3412 H3399 0.960 . S
C3412 C3411 1.524 . S
C3413 C3410 1.403 . S
C3413 C3414 1.392 . S
C3413 C3417 1.495 . S
C3414 C3413 1.392 . S
C3414 C3415 1.385 . S
C3414 C3416 1.478 . S
C3415 H3409 0.930 . S
C3415 C3411 1.400 . S
C3415 C3414 1.385 . S
C3416 C3414 1.478 . S
C3416 C3418 1.381 . S
C3416 C3422 1.383 . S
C3417 C3413 1.495 . S
C3417 H3423 0.959 . S
C3417 H3424 0.961 . S
C3417 H3425 0.960 . S
C3418 C3416 1.381 . S
C3418 C3419 1.394 . S
C3418 H3426 0.930 . S
C3419 C3418 1.394 . S
C3419 C3420 1.383 . S
C3419 H3427 0.929 . S
C3420 C3419 1.383 . S
C3420 C3421 1.377 . S
C3421 H3405 0.930 . S
C3421 C3420 1.377 . S
C3421 C3422 1.379 . S
C3422 H3406 0.931 . S
C3422 C3416 1.383 . S
C3422 C3421 1.379 . S
H3423 C3417 0.959 . S
H3424 C3417 0.961 . S
H3425 C3417 0.960 . S
H3426 C3418 0.930 . S
H3427 C3419 0.929 . S
H3428 C3436 0.929 . S
H3429 C3438 0.930 . S
H3430 C3440 0.930 . S
H3431 C3443 0.929 . S
H3432 C3446 0.930 . S
H3433 C3448 0.960 . S
H3434 C3448 0.960 . S
H3435 C3448 0.960 . S
C3436 H3428 0.929 . S
C3436 C3437 1.377 . S
C3436 C3438 1.384 . S
C3437 C3436 1.377 . S
C3437 C3443 1.390 . S
C3438 H3429 0.930 . S
C3438 C3436 1.384 . S
C3438 C3439 1.372 . S
C3439 C3438 1.372 . S
C3439 C3440 1.400 . S
C3439 C3444 1.490 . S
C3440 H3430 0.930 . S
C3440 C3439 1.400 . S
C3440 C3443 1.386 . S
H3441 C3457 0.930 . S
H3442 C3458 0.931 . S
C3443 H3431 0.929 . S
C3443 C3437 1.390 . S
C3443 C3440 1.386 . S
C3444 C3439 1.490 . S
C3444 C3446 1.395 . S
C3444 C3447 1.403 . S
H3445 C3451 0.930 . S
C3446 H3432 0.930 . S
C3446 C3444 1.395 . S
C3446 C3449 1.403 . S
C3447 C3444 1.403 . S
C3447 C3448 1.524 . S
C3447 C3451 1.400 . S
C3448 H3433 0.960 . S
C3448 H3434 0.960 . S
C3448 H3435 0.960 . S
C3448 C3447 1.524 . S
C3449 C3446 1.403 . S
C3449 C3450 1.392 . S
C3449 C3453 1.495 . S
C3450 C3449 1.392 . S
C3450 C3451 1.385 . S
C3450 C3452 1.478 . S
C3451 H3445 0.930 . S
C3451 C3447 1.400 . S
C3451 C3450 1.385 . S
C3452 C3450 1.478 . S
C3452 C3454 1.381 . S
C3452 C3458 1.383 . S
C3453 C3449 1.495 . S
C3453 H3459 0.959 . S
C3453 H3460 0.961 . S
C3453 H3461 0.960 . S
C3454 C3452 1.381 . S
C3454 C3455 1.394 . S
C3454 H3462 0.930 . S
C3455 C3454 1.394 . S
C3455 C3456 1.383 . S
C3455 H3463 0.929 . S
C3456 C3455 1.383 . S
C3456 C3457 1.377 . S
C3457 H3441 0.930 . S
C3457 C3456 1.377 . S
C3457 C3458 1.379 . S
C3458 H3442 0.931 . S
C3458 C3452 1.383 . S
C3458 C3457 1.379 . S
H3459 C3453 0.959 . S
H3460 C3453 0.961 . S
H3461 C3453 0.960 . S
H3462 C3454 0.930 . S
H3463 C3455 0.929 . S
H3464 C3472 0.929 . S
H3465 C3474 0.930 . S
H3466 C3476 0.930 . S
H3467 C3479 0.929 . S
H3468 C3482 0.930 . S
H3469 C3484 0.960 . S
H3470 C3484 0.960 . S
H3471 C3484 0.960 . S
C3472 H3464 0.929 . S
C3472 C3473 1.377 . S
C3472 C3474 1.384 . S
C3473 C3472 1.377 . S
C3473 C3479 1.390 . S
C3474 H3465 0.930 . S
C3474 C3472 1.384 . S
C3474 C3475 1.372 . S
C3475 C3474 1.372 . S
C3475 C3476 1.400 . S
C3475 C3480 1.490 . S
C3476 H3466 0.930 . S
C3476 C3475 1.400 . S
C3476 C3479 1.386 . S
H3477 C3493 0.930 . S
H3478 C3494 0.931 . S
C3479 H3467 0.929 . S
C3479 C3473 1.390 . S
C3479 C3476 1.386 . S
C3480 C3475 1.490 . S
C3480 C3482 1.395 . S
C3480 C3483 1.403 . S
H3481 C3487 0.930 . S
C3482 H3468 0.930 . S
C3482 C3480 1.395 . S
C3482 C3485 1.403 . S
C3483 C3480 1.403 . S
C3483 C3484 1.524 . S
C3483 C3487 1.400 . S
C3484 H3469 0.960 . S
C3484 H3470 0.960 . S
C3484 H3471 0.960 . S
C3484 C3483 1.524 . S
C3485 C3482 1.403 . S
C3485 C3486 1.392 . S
C3485 C3489 1.495 . S
C3486 C3485 1.392 . S
C3486 C3487 1.385 . S
C3486 C3488 1.478 . S
C3487 H3481 0.930 . S
C3487 C3483 1.400 . S
C3487 C3486 1.385 . S
C3488 C3486 1.478 . S
C3488 C3490 1.381 . S
C3488 C3494 1.383 . S
C3489 C3485 1.495 . S
C3489 H3495 0.959 . S
C3489 H3496 0.961 . S
C3489 H3497 0.960 . S
C3490 C3488 1.381 . S
C3490 C3491 1.394 . S
C3490 H3498 0.930 . S
C3491 C3490 1.394 . S
C3491 C3492 1.383 . S
C3491 H3499 0.929 . S
C3492 C3491 1.383 . S
C3492 C3493 1.377 . S
C3493 H3477 0.930 . S
C3493 C3492 1.377 . S
C3493 C3494 1.379 . S
C3494 H3478 0.931 . S
C3494 C3488 1.383 . S
C3494 C3493 1.379 . S
H3495 C3489 0.959 . S
H3496 C3489 0.961 . S
H3497 C3489 0.960 . S
H3498 C3490 0.930 . S
H3499 C3491 0.929 . S
H3500 C3508 0.929 . S
H3501 C3510 0.930 . S
H3502 C3512 0.930 . S
H3503 C3515 0.929 . S
H3504 C3518 0.930 . S
H3505 C3520 0.960 . S
H3506 C3520 0.960 . S
H3507 C3520 0.960 . S
C3508 H3500 0.929 . S
C3508 C3509 1.377 . S
C3508 C3510 1.384 . S
C3509 C3508 1.377 . S
C3509 C3515 1.390 . S
C3510 H3501 0.930 . S
C3510 C3508 1.384 . S
C3510 C3511 1.372 . S
C3511 C3510 1.372 . S
C3511 C3512 1.400 . S
C3511 C3516 1.490 . S
C3512 H3502 0.930 . S
C3512 C3511 1.400 . S
C3512 C3515 1.386 . S
H3513 C3529 0.930 . S
H3514 C3530 0.931 . S
C3515 H3503 0.929 . S
C3515 C3509 1.390 . S
C3515 C3512 1.386 . S
C3516 C3511 1.490 . S
C3516 C3518 1.395 . S
C3516 C3519 1.403 . S
H3517 C3523 0.930 . S
C3518 H3504 0.930 . S
C3518 C3516 1.395 . S
C3518 C3521 1.403 . S
C3519 C3516 1.403 . S
C3519 C3520 1.524 . S
C3519 C3523 1.400 . S
C3520 H3505 0.960 . S
C3520 H3506 0.960 . S
C3520 H3507 0.960 . S
C3520 C3519 1.524 . S
C3521 C3518 1.403 . S
C3521 C3522 1.392 . S
C3521 C3525 1.495 . S
C3522 C3521 1.392 . S
C3522 C3523 1.385 . S
C3522 C3524 1.478 . S
C3523 H3517 0.930 . S
C3523 C3519 1.400 . S
C3523 C3522 1.385 . S
C3524 C3522 1.478 . S
C3524 C3526 1.381 . S
C3524 C3530 1.383 . S
C3525 C3521 1.495 . S
C3525 H3531 0.959 . S
C3525 H3532 0.961 . S
C3525 H3533 0.960 . S
C3526 C3524 1.381 . S
C3526 C3527 1.394 . S
C3526 H3534 0.930 . S
C3527 C3526 1.394 . S
C3527 C3528 1.383 . S
C3527 H3535 0.929 . S
C3528 C3527 1.383 . S
C3528 C3529 1.377 . S
C3529 H3513 0.930 . S
C3529 C3528 1.377 . S
C3529 C3530 1.379 . S
C3530 H3514 0.931 . S
C3530 C3524 1.383 . S
C3530 C3529 1.379 . S
H3531 C3525 0.959 . S
H3532 C3525 0.961 . S
H3533 C3525 0.960 . S
H3534 C3526 0.930 . S
H3535 C3527 0.929 . S
H3536 C3544 0.929 . S
H3537 C3546 0.930 . S
H3538 C3548 0.930 . S
H3539 C3551 0.929 . S
H3540 C3554 0.930 . S
H3541 C3556 0.960 . S
H3542 C3556 0.960 . S
H3543 C3556 0.960 . S
C3544 H3536 0.929 . S
C3544 C3545 1.377 . S
C3544 C3546 1.384 . S
C3545 C3544 1.377 . S
C3545 C3551 1.390 . S
C3546 H3537 0.930 . S
C3546 C3544 1.384 . S
C3546 C3547 1.372 . S
C3547 C3546 1.372 . S
C3547 C3548 1.400 . S
C3547 C3552 1.490 . S
C3548 H3538 0.930 . S
C3548 C3547 1.400 . S
C3548 C3551 1.386 . S
H3549 C3565 0.930 . S
H3550 C3566 0.931 . S
C3551 H3539 0.929 . S
C3551 C3545 1.390 . S
C3551 C3548 1.386 . S
C3552 C3547 1.490 . S
C3552 C3554 1.395 . S
C3552 C3555 1.403 . S
H3553 C3559 0.930 . S
C3554 H3540 0.930 . S
C3554 C3552 1.395 . S
C3554 C3557 1.403 . S
C3555 C3552 1.403 . S
C3555 C3556 1.524 . S
C3555 C3559 1.400 . S
C3556 H3541 0.960 . S
C3556 H3542 0.960 . S
C3556 H3543 0.960 . S
C3556 C3555 1.524 . S
C3557 C3554 1.403 . S
C3557 C3558 1.392 . S
C3557 C3561 1.495 . S
C3558 C3557 1.392 . S
C3558 C3559 1.385 . S
C3558 C3560 1.478 . S
C3559 H3553 0.930 . S
C3559 C3555 1.400 . S
C3559 C3558 1.385 . S
C3560 C3558 1.478 . S
C3560 C3562 1.381 . S
C3560 C3566 1.383 . S
C3561 C3557 1.495 . S
C3561 H3567 0.959 . S
C3561 H3568 0.961 . S
C3561 H3569 0.960 . S
C3562 C3560 1.381 . S
C3562 C3563 1.394 . S
C3562 H3570 0.930 . S
C3563 C3562 1.394 . S
C3563 C3564 1.383 . S
C3563 H3571 0.929 . S
C3564 C3563 1.383 . S
C3564 C3565 1.377 . S
C3565 H3549 0.930 . S
C3565 C3564 1.377 . S
C3565 C3566 1.379 . S
C3566 H3550 0.931 . S
C3566 C3560 1.383 . S
C3566 C3565 1.379 . S
H3567 C3561 0.959 . S
H3568 C3561 0.961 . S
H3569 C3561 0.960 . S
H3570 C3562 0.930 . S
H3571 C3563 0.929 . S
H3572 C3580 0.929 . S
H3573 C3582 0.930 . S
H3574 C3584 0.930 . S
H3575 C3587 0.929 . S
H3576 C3590 0.930 . S
H3577 C3592 0.960 . S
H3578 C3592 0.960 . S
H3579 C3592 0.960 . S
C3580 H3572 0.929 . S
C3580 C3581 1.377 . S
C3580 C3582 1.384 . S
C3581 C3580 1.377 . S
C3581 C3587 1.390 . S
C3582 H3573 0.930 . S
C3582 C3580 1.384 . S
C3582 C3583 1.372 . S
C3583 C3582 1.372 . S
C3583 C3584 1.400 . S
C3583 C3588 1.490 . S
C3584 H3574 0.930 . S
C3584 C3583 1.400 . S
C3584 C3587 1.386 . S
H3585 C3601 0.930 . S
H3586 C3602 0.931 . S
C3587 H3575 0.929 . S
C3587 C3581 1.390 . S
C3587 C3584 1.386 . S
C3588 C3583 1.490 . S
C3588 C3590 1.395 . S
C3588 C3591 1.403 . S
H3589 C3595 0.930 . S
C3590 H3576 0.930 . S
C3590 C3588 1.395 . S
C3590 C3593 1.403 . S
C3591 C3588 1.403 . S
C3591 C3592 1.524 . S
C3591 C3595 1.400 . S
C3592 H3577 0.960 . S
C3592 H3578 0.960 . S
C3592 H3579 0.960 . S
C3592 C3591 1.524 . S
C3593 C3590 1.403 . S
C3593 C3594 1.392 . S
C3593 C3597 1.495 . S
C3594 C3593 1.392 . S
C3594 C3595 1.385 . S
C3594 C3596 1.478 . S
C3595 H3589 0.930 . S
C3595 C3591 1.400 . S
C3595 C3594 1.385 . S
C3596 C3594 1.478 . S
C3596 C3598 1.381 . S
C3596 C3602 1.383 . S
C3597 C3593 1.495 . S
C3597 H3603 0.959 . S
C3597 H3604 0.961 . S
C3597 H3605 0.960 . S
C3598 C3596 1.381 . S
C3598 C3599 1.394 . S
C3598 H3606 0.930 . S
C3599 C3598 1.394 . S
C3599 C3600 1.383 . S
C3599 H3607 0.929 . S
C3600 C3599 1.383 . S
C3600 C3601 1.377 . S
C3601 H3585 0.930 . S
C3601 C3600 1.377 . S
C3601 C3602 1.379 . S
C3602 H3586 0.931 . S
C3602 C3596 1.383 . S
C3602 C3601 1.379 . S
H3603 C3597 0.959 . S
H3604 C3597 0.961 . S
H3605 C3597 0.960 . S
H3606 C3598 0.930 . S
H3607 C3599 0.929 . S
H3608 C3616 0.929 . S
H3609 C3618 0.930 . S
H3610 C3620 0.930 . S
H3611 C3623 0.929 . S
H3612 C3626 0.930 . S
H3613 C3628 0.960 . S
H3614 C3628 0.960 . S
H3615 C3628 0.960 . S
C3616 H3608 0.929 . S
C3616 C3617 1.377 . S
C3616 C3618 1.384 . S
C3617 C3616 1.377 . S
C3617 C3623 1.390 . S
C3618 H3609 0.930 . S
C3618 C3616 1.384 . S
C3618 C3619 1.372 . S
C3619 C3618 1.372 . S
C3619 C3620 1.400 . S
C3619 C3624 1.490 . S
C3620 H3610 0.930 . S
C3620 C3619 1.400 . S
C3620 C3623 1.386 . S
H3621 C3637 0.930 . S
H3622 C3638 0.931 . S
C3623 H3611 0.929 . S
C3623 C3617 1.390 . S
C3623 C3620 1.386 . S
C3624 C3619 1.490 . S
C3624 C3626 1.395 . S
C3624 C3627 1.403 . S
H3625 C3631 0.930 . S
C3626 H3612 0.930 . S
C3626 C3624 1.395 . S
C3626 C3629 1.403 . S
C3627 C3624 1.403 . S
C3627 C3628 1.524 . S
C3627 C3631 1.400 . S
C3628 H3613 0.960 . S
C3628 H3614 0.960 . S
C3628 H3615 0.960 . S
C3628 C3627 1.524 . S
C3629 C3626 1.403 . S
C3629 C3630 1.392 . S
C3629 C3633 1.495 . S
C3630 C3629 1.392 . S
C3630 C3631 1.385 . S
C3630 C3632 1.478 . S
C3631 H3625 0.930 . S
C3631 C3627 1.400 . S
C3631 C3630 1.385 . S
C3632 C3630 1.478 . S
C3632 C3634 1.381 . S
C3632 C3638 1.383 . S
C3633 C3629 1.495 . S
C3633 H3639 0.959 . S
C3633 H3640 0.961 . S
C3633 H3641 0.960 . S
C3634 C3632 1.381 . S
C3634 C3635 1.394 . S
C3634 H3642 0.930 . S
C3635 C3634 1.394 . S
C3635 C3636 1.383 . S
C3635 H3643 0.929 . S
C3636 C3635 1.383 . S
C3636 C3637 1.377 . S
C3637 H3621 0.930 . S
C3637 C3636 1.377 . S
C3637 C3638 1.379 . S
C3638 H3622 0.931 . S
C3638 C3632 1.383 . S
C3638 C3637 1.379 . S
H3639 C3633 0.959 . S
H3640 C3633 0.961 . S
H3641 C3633 0.960 . S
H3642 C3634 0.930 . S
H3643 C3635 0.929 . S
H3644 C3652 0.929 . S
H3645 C3654 0.930 . S
H3646 C3656 0.930 . S
H3647 C3659 0.929 . S
H3648 C3662 0.930 . S
H3649 C3664 0.960 . S
H3650 C3664 0.960 . S
H3651 C3664 0.960 . S
C3652 H3644 0.929 . S
C3652 C3653 1.377 . S
C3652 C3654 1.384 . S
C3653 C3652 1.377 . S
C3653 C3659 1.390 . S
C3654 H3645 0.930 . S
C3654 C3652 1.384 . S
C3654 C3655 1.372 . S
C3655 C3654 1.372 . S
C3655 C3656 1.400 . S
C3655 C3660 1.490 . S
C3656 H3646 0.930 . S
C3656 C3655 1.400 . S
C3656 C3659 1.386 . S
H3657 C3673 0.930 . S
H3658 C3674 0.931 . S
C3659 H3647 0.929 . S
C3659 C3653 1.390 . S
C3659 C3656 1.386 . S
C3660 C3655 1.490 . S
C3660 C3662 1.395 . S
C3660 C3663 1.403 . S
H3661 C3667 0.930 . S
C3662 H3648 0.930 . S
C3662 C3660 1.395 . S
C3662 C3665 1.403 . S
C3663 C3660 1.403 . S
C3663 C3664 1.524 . S
C3663 C3667 1.400 . S
C3664 H3649 0.960 . S
C3664 H3650 0.960 . S
C3664 H3651 0.960 . S
C3664 C3663 1.524 . S
C3665 C3662 1.403 . S
C3665 C3666 1.392 . S
C3665 C3669 1.495 . S
C3666 C3665 1.392 . S
C3666 C3667 1.385 . S
C3666 C3668 1.478 . S
C3667 H3661 0.930 . S
C3667 C3663 1.400 . S
C3667 C3666 1.385 . S
C3668 C3666 1.478 . S
C3668 C3670 1.381 . S
C3668 C3674 1.383 . S
C3669 C3665 1.495 . S
C3669 H3675 0.959 . S
C3669 H3676 0.961 . S
C3669 H3677 0.960 . S
C3670 C3668 1.381 . S
C3670 C3671 1.394 . S
C3670 H3678 0.930 . S
C3671 C3670 1.394 . S
C3671 C3672 1.383 . S
C3671 H3679 0.929 . S
C3672 C3671 1.383 . S
C3672 C3673 1.377 . S
C3673 H3657 0.930 . S
C3673 C3672 1.377 . S
C3673 C3674 1.379 . S
C3674 H3658 0.931 . S
C3674 C3668 1.383 . S
C3674 C3673 1.379 . S
H3675 C3669 0.959 . S
H3676 C3669 0.961 . S
H3677 C3669 0.960 . S
H3678 C3670 0.930 . S
H3679 C3671 0.929 . S
H3680 C3688 0.929 . S
H3681 C3690 0.930 . S
H3682 C3692 0.930 . S
H3683 C3695 0.929 . S
H3684 C3698 0.930 . S
H3685 C3700 0.960 . S
H3686 C3700 0.960 . S
H3687 C3700 0.960 . S
C3688 H3680 0.929 . S
C3688 C3689 1.377 . S
C3688 C3690 1.384 . S
C3689 C3688 1.377 . S
C3689 C3695 1.390 . S
C3690 H3681 0.930 . S
C3690 C3688 1.384 . S
C3690 C3691 1.372 . S
C3691 C3690 1.372 . S
C3691 C3692 1.400 . S
C3691 C3696 1.490 . S
C3692 H3682 0.930 . S
C3692 C3691 1.400 . S
C3692 C3695 1.386 . S
H3693 C3709 0.930 . S
H3694 C3710 0.931 . S
C3695 H3683 0.929 . S
C3695 C3689 1.390 . S
C3695 C3692 1.386 . S
C3696 C3691 1.490 . S
C3696 C3698 1.395 . S
C3696 C3699 1.403 . S
H3697 C3703 0.930 . S
C3698 H3684 0.930 . S
C3698 C3696 1.395 . S
C3698 C3701 1.403 . S
C3699 C3696 1.403 . S
C3699 C3700 1.524 . S
C3699 C3703 1.400 . S
C3700 H3685 0.960 . S
C3700 H3686 0.960 . S
C3700 H3687 0.960 . S
C3700 C3699 1.524 . S
C3701 C3698 1.403 . S
C3701 C3702 1.392 . S
C3701 C3705 1.495 . S
C3702 C3701 1.392 . S
C3702 C3703 1.385 . S
C3702 C3704 1.478 . S
C3703 H3697 0.930 . S
C3703 C3699 1.400 . S
C3703 C3702 1.385 . S
C3704 C3702 1.478 . S
C3704 C3706 1.381 . S
C3704 C3710 1.383 . S
C3705 C3701 1.495 . S
C3705 H3711 0.959 . S
C3705 H3712 0.961 . S
C3705 H3713 0.960 . S
C3706 C3704 1.381 . S
C3706 C3707 1.394 . S
C3706 H3714 0.930 . S
C3707 C3706 1.394 . S
C3707 C3708 1.383 . S
C3707 H3715 0.929 . S
C3708 C3707 1.383 . S
C3708 C3709 1.377 . S
C3709 H3693 0.930 . S
C3709 C3708 1.377 . S
C3709 C3710 1.379 . S
C3710 H3694 0.931 . S
C3710 C3704 1.383 . S
C3710 C3709 1.379 . S
H3711 C3705 0.959 . S
H3712 C3705 0.961 . S
H3713 C3705 0.960 . S
H3714 C3706 0.930 . S
H3715 C3707 0.929 . S
H3716 C3724 0.929 . S
H3717 C3726 0.930 . S
H3718 C3728 0.930 . S
H3719 C3731 0.929 . S
H3720 C3734 0.930 . S
H3721 C3736 0.960 . S
H3722 C3736 0.960 . S
H3723 C3736 0.960 . S
C3724 H3716 0.929 . S
C3724 C3725 1.377 . S
C3724 C3726 1.384 . S
C3725 C3724 1.377 . S
C3725 C3731 1.390 . S
C3726 H3717 0.930 . S
C3726 C3724 1.384 . S
C3726 C3727 1.372 . S
C3727 C3726 1.372 . S
C3727 C3728 1.400 . S
C3727 C3732 1.490 . S
C3728 H3718 0.930 . S
C3728 C3727 1.400 . S
C3728 C3731 1.386 . S
H3729 C3745 0.930 . S
H3730 C3746 0.931 . S
C3731 H3719 0.929 . S
C3731 C3725 1.390 . S
C3731 C3728 1.386 . S
C3732 C3727 1.490 . S
C3732 C3734 1.395 . S
C3732 C3735 1.403 . S
H3733 C3739 0.930 . S
C3734 H3720 0.930 . S
C3734 C3732 1.395 . S
C3734 C3737 1.403 . S
C3735 C3732 1.403 . S
C3735 C3736 1.524 . S
C3735 C3739 1.400 . S
C3736 H3721 0.960 . S
C3736 H3722 0.960 . S
C3736 H3723 0.960 . S
C3736 C3735 1.524 . S
C3737 C3734 1.403 . S
C3737 C3738 1.392 . S
C3737 C3741 1.495 . S
C3738 C3737 1.392 . S
C3738 C3739 1.385 . S
C3738 C3740 1.478 . S
C3739 H3733 0.930 . S
C3739 C3735 1.400 . S
C3739 C3738 1.385 . S
C3740 C3738 1.478 . S
C3740 C3742 1.381 . S
C3740 C3746 1.383 . S
C3741 C3737 1.495 . S
C3741 H3747 0.959 . S
C3741 H3748 0.961 . S
C3741 H3749 0.960 . S
C3742 C3740 1.381 . S
C3742 C3743 1.394 . S
C3742 H3750 0.930 . S
C3743 C3742 1.394 . S
C3743 C3744 1.383 . S
C3743 H3751 0.929 . S
C3744 C3743 1.383 . S
C3744 C3745 1.377 . S
C3745 H3729 0.930 . S
C3745 C3744 1.377 . S
C3745 C3746 1.379 . S
C3746 H3730 0.931 . S
C3746 C3740 1.383 . S
C3746 C3745 1.379 . S
H3747 C3741 0.959 . S
H3748 C3741 0.961 . S
H3749 C3741 0.960 . S
H3750 C3742 0.930 . S
H3751 C3743 0.929 . S
H3752 C3760 0.929 . S
H3753 C3762 0.930 . S
H3754 C3764 0.930 . S
H3755 C3767 0.929 . S
H3756 C3770 0.930 . S
H3757 C3772 0.960 . S
H3758 C3772 0.960 . S
H3759 C3772 0.960 . S
C3760 H3752 0.929 . S
C3760 C3761 1.377 . S
C3760 C3762 1.384 . S
C3761 C3760 1.377 . S
C3761 C3767 1.390 . S
C3762 H3753 0.930 . S
C3762 C3760 1.384 . S
C3762 C3763 1.372 . S
C3763 C3762 1.372 . S
C3763 C3764 1.400 . S
C3763 C3768 1.490 . S
C3764 H3754 0.930 . S
C3764 C3763 1.400 . S
C3764 C3767 1.386 . S
H3765 C3781 0.930 . S
H3766 C3782 0.931 . S
C3767 H3755 0.929 . S
C3767 C3761 1.390 . S
C3767 C3764 1.386 . S
C3768 C3763 1.490 . S
C3768 C3770 1.395 . S
C3768 C3771 1.403 . S
H3769 C3775 0.930 . S
C3770 H3756 0.930 . S
C3770 C3768 1.395 . S
C3770 C3773 1.403 . S
C3771 C3768 1.403 . S
C3771 C3772 1.524 . S
C3771 C3775 1.400 . S
C3772 H3757 0.960 . S
C3772 H3758 0.960 . S
C3772 H3759 0.960 . S
C3772 C3771 1.524 . S
C3773 C3770 1.403 . S
C3773 C3774 1.392 . S
C3773 C3777 1.495 . S
C3774 C3773 1.392 . S
C3774 C3775 1.385 . S
C3774 C3776 1.478 . S
C3775 H3769 0.930 . S
C3775 C3771 1.400 . S
C3775 C3774 1.385 . S
C3776 C3774 1.478 . S
C3776 C3778 1.381 . S
C3776 C3782 1.383 . S
C3777 C3773 1.495 . S
C3777 H3783 0.959 . S
C3777 H3784 0.961 . S
C3777 H3785 0.960 . S
C3778 C3776 1.381 . S
C3778 C3779 1.394 . S
C3778 H3786 0.930 . S
C3779 C3778 1.394 . S
C3779 C3780 1.383 . S
C3779 H3787 0.929 . S
C3780 C3779 1.383 . S
C3780 C3781 1.377 . S
C3781 H3765 0.930 . S
C3781 C3780 1.377 . S
C3781 C3782 1.379 . S
C3782 H3766 0.931 . S
C3782 C3776 1.383 . S
C3782 C3781 1.379 . S
H3783 C3777 0.959 . S
H3784 C3777 0.961 . S
H3785 C3777 0.960 . S
H3786 C3778 0.930 . S
H3787 C3779 0.929 . S
H3788 C3796 0.929 . S
H3789 C3798 0.930 . S
H3790 C3800 0.930 . S
H3791 C3803 0.929 . S
H3792 C3806 0.930 . S
H3793 C3808 0.960 . S
H3794 C3808 0.960 . S
H3795 C3808 0.960 . S
C3796 H3788 0.929 . S
C3796 C3797 1.377 . S
C3796 C3798 1.384 . S
C3797 C3796 1.377 . S
C3797 C3803 1.390 . S
C3798 H3789 0.930 . S
C3798 C3796 1.384 . S
C3798 C3799 1.372 . S
C3799 C3798 1.372 . S
C3799 C3800 1.400 . S
C3799 C3804 1.490 . S
C3800 H3790 0.930 . S
C3800 C3799 1.400 . S
C3800 C3803 1.386 . S
H3801 C3817 0.930 . S
H3802 C3818 0.931 . S
C3803 H3791 0.929 . S
C3803 C3797 1.390 . S
C3803 C3800 1.386 . S
C3804 C3799 1.490 . S
C3804 C3806 1.395 . S
C3804 C3807 1.403 . S
H3805 C3811 0.930 . S
C3806 H3792 0.930 . S
C3806 C3804 1.395 . S
C3806 C3809 1.403 . S
C3807 C3804 1.403 . S
C3807 C3808 1.524 . S
C3807 C3811 1.400 . S
C3808 H3793 0.960 . S
C3808 H3794 0.960 . S
C3808 H3795 0.960 . S
C3808 C3807 1.524 . S
C3809 C3806 1.403 . S
C3809 C3810 1.392 . S
C3809 C3813 1.495 . S
C3810 C3809 1.392 . S
C3810 C3811 1.385 . S
C3810 C3812 1.478 . S
C3811 H3805 0.930 . S
C3811 C3807 1.400 . S
C3811 C3810 1.385 . S
C3812 C3810 1.478 . S
C3812 C3814 1.381 . S
C3812 C3818 1.383 . S
C3813 C3809 1.495 . S
C3813 H3819 0.959 . S
C3813 H3820 0.961 . S
C3813 H3821 0.960 . S
C3814 C3812 1.381 . S
C3814 C3815 1.394 . S
C3814 H3822 0.930 . S
C3815 C3814 1.394 . S
C3815 C3816 1.383 . S
C3815 H3823 0.929 . S
C3816 C3815 1.383 . S
C3816 C3817 1.377 . S
C3817 H3801 0.930 . S
C3817 C3816 1.377 . S
C3817 C3818 1.379 . S
C3818 H3802 0.931 . S
C3818 C3812 1.383 . S
C3818 C3817 1.379 . S
H3819 C3813 0.959 . S
H3820 C3813 0.961 . S
H3821 C3813 0.960 . S
H3822 C3814 0.930 . S
H3823 C3815 0.929 . S
H3824 C3832 0.929 . S
H3825 C3834 0.930 . S
H3826 C3836 0.930 . S
H3827 C3839 0.929 . S
H3828 C3842 0.930 . S
H3829 C3844 0.960 . S
H3830 C3844 0.960 . S
H3831 C3844 0.960 . S
C3832 H3824 0.929 . S
C3832 C3833 1.377 . S
C3832 C3834 1.384 . S
C3833 C3832 1.377 . S
C3833 C3839 1.390 . S
C3834 H3825 0.930 . S
C3834 C3832 1.384 . S
C3834 C3835 1.372 . S
C3835 C3834 1.372 . S
C3835 C3836 1.400 . S
C3835 C3840 1.490 . S
C3836 H3826 0.930 . S
C3836 C3835 1.400 . S
C3836 C3839 1.386 . S
H3837 C3853 0.930 . S
H3838 C3854 0.931 . S
C3839 H3827 0.929 . S
C3839 C3833 1.390 . S
C3839 C3836 1.386 . S
C3840 C3835 1.490 . S
C3840 C3842 1.395 . S
C3840 C3843 1.403 . S
H3841 C3847 0.930 . S
C3842 H3828 0.930 . S
C3842 C3840 1.395 . S
C3842 C3845 1.403 . S
C3843 C3840 1.403 . S
C3843 C3844 1.524 . S
C3843 C3847 1.400 . S
C3844 H3829 0.960 . S
C3844 H3830 0.960 . S
C3844 H3831 0.960 . S
C3844 C3843 1.524 . S
C3845 C3842 1.403 . S
C3845 C3846 1.392 . S
C3845 C3849 1.495 . S
C3846 C3845 1.392 . S
C3846 C3847 1.385 . S
C3846 C3848 1.478 . S
C3847 H3841 0.930 . S
C3847 C3843 1.400 . S
C3847 C3846 1.385 . S
C3848 C3846 1.478 . S
C3848 C3850 1.381 . S
C3848 C3854 1.383 . S
C3849 C3845 1.495 . S
C3849 H3855 0.959 . S
C3849 H3856 0.961 . S
C3849 H3857 0.960 . S
C3850 C3848 1.381 . S
C3850 C3851 1.394 . S
C3850 H3858 0.930 . S
C3851 C3850 1.394 . S
C3851 C3852 1.383 . S
C3851 H3859 0.929 . S
C3852 C3851 1.383 . S
C3852 C3853 1.377 . S
C3853 H3837 0.930 . S
C3853 C3852 1.377 . S
C3853 C3854 1.379 . S
C3854 H3838 0.931 . S
C3854 C3848 1.383 . S
C3854 C3853 1.379 . S
H3855 C3849 0.959 . S
H3856 C3849 0.961 . S
H3857 C3849 0.960 . S
H3858 C3850 0.930 . S
H3859 C3851 0.929 . S
H3860 C3868 0.929 . S
H3861 C3870 0.930 . S
H3862 C3872 0.930 . S
H3863 C3875 0.929 . S
H3864 C3878 0.930 . S
H3865 C3880 0.960 . S
H3866 C3880 0.960 . S
H3867 C3880 0.960 . S
C3868 H3860 0.929 . S
C3868 C3869 1.377 . S
C3868 C3870 1.384 . S
C3869 C3868 1.377 . S
C3869 C3875 1.390 . S
C3870 H3861 0.930 . S
C3870 C3868 1.384 . S
C3870 C3871 1.372 . S
C3871 C3870 1.372 . S
C3871 C3872 1.400 . S
C3871 C3876 1.490 . S
C3872 H3862 0.930 . S
C3872 C3871 1.400 . S
C3872 C3875 1.386 . S
H3873 C3889 0.930 . S
H3874 C3890 0.931 . S
C3875 H3863 0.929 . S
C3875 C3869 1.390 . S
C3875 C3872 1.386 . S
C3876 C3871 1.490 . S
C3876 C3878 1.395 . S
C3876 C3879 1.403 . S
H3877 C3883 0.930 . S
C3878 H3864 0.930 . S
C3878 C3876 1.395 . S
C3878 C3881 1.403 . S
C3879 C3876 1.403 . S
C3879 C3880 1.524 . S
C3879 C3883 1.400 . S
C3880 H3865 0.960 . S
C3880 H3866 0.960 . S
C3880 H3867 0.960 . S
C3880 C3879 1.524 . S
C3881 C3878 1.403 . S
C3881 C3882 1.392 . S
C3881 C3885 1.495 . S
C3882 C3881 1.392 . S
C3882 C3883 1.385 . S
C3882 C3884 1.478 . S
C3883 H3877 0.930 . S
C3883 C3879 1.400 . S
C3883 C3882 1.385 . S
C3884 C3882 1.478 . S
C3884 C3886 1.381 . S
C3884 C3890 1.383 . S
C3885 C3881 1.495 . S
C3885 H3891 0.959 . S
C3885 H3892 0.961 . S
C3885 H3893 0.960 . S
C3886 C3884 1.381 . S
C3886 C3887 1.394 . S
C3886 H3894 0.930 . S
C3887 C3886 1.394 . S
C3887 C3888 1.383 . S
C3887 H3895 0.929 . S
C3888 C3887 1.383 . S
C3888 C3889 1.377 . S
C3889 H3873 0.930 . S
C3889 C3888 1.377 . S
C3889 C3890 1.379 . S
C3890 H3874 0.931 . S
C3890 C3884 1.383 . S
C3890 C3889 1.379 . S
H3891 C3885 0.959 . S
H3892 C3885 0.961 . S
H3893 C3885 0.960 . S
H3894 C3886 0.930 . S
H3895 C3887 0.929 . S
H3896 C3904 0.929 . S
H3897 C3906 0.930 . S
H3898 C3908 0.930 . S
H3899 C3911 0.929 . S
H3900 C3914 0.930 . S
H3901 C3916 0.960 . S
H3902 C3916 0.960 . S
H3903 C3916 0.960 . S
C3904 H3896 0.929 . S
C3904 C3905 1.377 . S
C3904 C3906 1.384 . S
C3905 C3904 1.377 . S
C3905 C3911 1.390 . S
C3906 H3897 0.930 . S
C3906 C3904 1.384 . S
C3906 C3907 1.372 . S
C3907 C3906 1.372 . S
C3907 C3908 1.400 . S
C3907 C3912 1.490 . S
C3908 H3898 0.930 . S
C3908 C3907 1.400 . S
C3908 C3911 1.386 . S
H3909 C3925 0.930 . S
H3910 C3926 0.931 . S
C3911 H3899 0.929 . S
C3911 C3905 1.390 . S
C3911 C3908 1.386 . S
C3912 C3907 1.490 . S
C3912 C3914 1.395 . S
C3912 C3915 1.403 . S
H3913 C3919 0.930 . S
C3914 H3900 0.930 . S
C3914 C3912 1.395 . S
C3914 C3917 1.403 . S
C3915 C3912 1.403 . S
C3915 C3916 1.524 . S
C3915 C3919 1.400 . S
C3916 H3901 0.960 . S
C3916 H3902 0.960 . S
C3916 H3903 0.960 . S
C3916 C3915 1.524 . S
C3917 C3914 1.403 . S
C3917 C3918 1.392 . S
C3917 C3921 1.495 . S
C3918 C3917 1.392 . S
C3918 C3919 1.385 . S
C3918 C3920 1.478 . S
C3919 H3913 0.930 . S
C3919 C3915 1.400 . S
C3919 C3918 1.385 . S
C3920 C3918 1.478 . S
C3920 C3922 1.381 . S
C3920 C3926 1.383 . S
C3921 C3917 1.495 . S
C3921 H3927 0.959 . S
C3921 H3928 0.961 . S
C3921 H3929 0.960 . S
C3922 C3920 1.381 . S
C3922 C3923 1.394 . S
C3922 H3930 0.930 . S
C3923 C3922 1.394 . S
C3923 C3924 1.383 . S
C3923 H3931 0.929 . S
C3924 C3923 1.383 . S
C3924 C3925 1.377 . S
C3925 H3909 0.930 . S
C3925 C3924 1.377 . S
C3925 C3926 1.379 . S
C3926 H3910 0.931 . S
C3926 C3920 1.383 . S
C3926 C3925 1.379 . S
H3927 C3921 0.959 . S
H3928 C3921 0.961 . S
H3929 C3921 0.960 . S
H3930 C3922 0.930 . S
H3931 C3923 0.929 . S
H3932 C3940 0.929 . S
H3933 C3942 0.930 . S
H3934 C3944 0.930 . S
H3935 C3947 0.929 . S
H3936 C3950 0.930 . S
H3937 C3952 0.960 . S
H3938 C3952 0.960 . S
H3939 C3952 0.960 . S
C3940 H3932 0.929 . S
C3940 C3941 1.377 . S
C3940 C3942 1.384 . S
C3941 C3940 1.377 . S
C3941 C3947 1.390 . S
C3942 H3933 0.930 . S
C3942 C3940 1.384 . S
C3942 C3943 1.372 . S
C3943 C3942 1.372 . S
C3943 C3944 1.400 . S
C3943 C3948 1.490 . S
C3944 H3934 0.930 . S
C3944 C3943 1.400 . S
C3944 C3947 1.386 . S
H3945 C3961 0.930 . S
H3946 C3962 0.931 . S
C3947 H3935 0.929 . S
C3947 C3941 1.390 . S
C3947 C3944 1.386 . S
C3948 C3943 1.490 . S
C3948 C3950 1.395 . S
C3948 C3951 1.403 . S
H3949 C3955 0.930 . S
C3950 H3936 0.930 . S
C3950 C3948 1.395 . S
C3950 C3953 1.403 . S
C3951 C3948 1.403 . S
C3951 C3952 1.524 . S
C3951 C3955 1.400 . S
C3952 H3937 0.960 . S
C3952 H3938 0.960 . S
C3952 H3939 0.960 . S
C3952 C3951 1.524 . S
C3953 C3950 1.403 . S
C3953 C3954 1.392 . S
C3953 C3957 1.495 . S
C3954 C3953 1.392 . S
C3954 C3955 1.385 . S
C3954 C3956 1.478 . S
C3955 H3949 0.930 . S
C3955 C3951 1.400 . S
C3955 C3954 1.385 . S
C3956 C3954 1.478 . S
C3956 C3958 1.381 . S
C3956 C3962 1.383 . S
C3957 C3953 1.495 . S
C3957 H3963 0.959 . S
C3957 H3964 0.961 . S
C3957 H3965 0.960 . S
C3958 C3956 1.381 . S
C3958 C3959 1.394 . S
C3958 H3966 0.930 . S
C3959 C3958 1.394 . S
C3959 C3960 1.383 . S
C3959 H3967 0.929 . S
C3960 C3959 1.383 . S
C3960 C3961 1.377 . S
C3961 H3945 0.930 . S
C3961 C3960 1.377 . S
C3961 C3962 1.379 . S
C3962 H3946 0.931 . S
C3962 C3956 1.383 . S
C3962 C3961 1.379 . S
H3963 C3957 0.959 . S
H3964 C3957 0.961 . S
H3965 C3957 0.960 . S
H3966 C3958 0.930 . S
H3967 C3959 0.929 . S
C1097 C145 1.401 . S
C1116 C9 1.369 . S
C1133 C43 1.398 . S
C1152 C179 1.391 . S
C1169 C77 1.409 . S
C1188 C213 1.434 . S
C1205 C111 1.407 . S
C1224 C247 1.371 . S
C1241 C281 1.401 . S
C1260 C417 1.367 . S
C1277 C451 1.412 . S
C1296 C315 1.419 . S
C1313 C349 1.398 . S
C1332 C485 1.382 . S
C1349 C519 1.399 . S
C1368 C383 1.396 . S
C1385 C553 1.404 . S
C1404 C689 1.435 . S
C1421 C587 1.411 . S
C1440 C723 1.429 . S
C1457 C757 1.408 . S
C1476 C621 1.436 . S
C1493 C791 1.398 . S
C1512 C655 1.392 . S
C1529 C825 1.398 . S
C1548 C961 1.374 . S
C1565 C859 1.409 . S
C1584 C995 1.436 . S
C1601 C1029 1.412 . S
C1620 C893 1.430 . S
C1637 C927 1.400 . S
C1656 C1063 1.399 . S
C1673 C33 0.419 . S
C1692 C645 0.470 . S
C1709 C67 0.411 . S
C1728 C679 0.352 . S
C1745 C101 0.437 . S
C1764 C577 0.459 . S
C1781 C135 0.432 . S
C1800 C611 0.495 . S
C1817 C169 0.407 . S
C1836 C781 0.370 . S
C1853 C815 0.419 . S
C1872 C203 0.360 . S
C1889 C237 0.420 . S
C1908 C713 0.363 . S
C1925 C271 0.437 . S
C1944 C747 0.478 . S
C1961 C917 0.437 . S
C1980 C305 0.452 . S
C1997 C339 0.408 . S
C2016 C951 0.434 . S
C2033 C849 0.420 . S
C2052 C373 0.352 . S
C2069 C407 0.423 . S
C2088 C883 0.355 . S
C2105 C441 0.430 . S
C2124 C1053 0.377 . S
C2141 C1087 0.419 . S
C2160 C475 0.488 . S
C2177 C509 0.419 . S
C2196 C985 0.487 . S
C2213 C543 0.421 . S
C2232 C1019 0.491 . S
C2249 C20 1.420 . S
C2268 C478 1.423 . S
C2285 C1056 1.414 . S
C2304 C54 1.417 . S
C2321 C410 1.412 . S
C2340 C88 1.421 . S
C2357 C988 1.411 . S
C2376 C122 1.425 . S
C2393 C156 1.420 . S
C2412 C342 1.423 . S
C2429 C190 1.421 . S
C2448 C920 1.418 . S
C2465 C224 1.422 . S
C2484 C274 1.400 . S
C2501 C852 1.412 . S
C2520 C258 1.422 . S
C2537 C206 1.411 . S
C2556 C292 1.413 . S
C2573 C784 1.415 . S
C2592 C326 1.425 . S
C2609 C360 1.421 . S
C2628 C138 1.423 . S
C2645 C394 1.421 . S
C2664 C716 1.398 . S
C2681 C428 1.421 . S
C2700 C70 1.397 . S
C2717 C648 1.415 . S
C2736 C462 1.425 . S
C2753 C496 1.421 . S
C2772 C2 1.403 . S
C2789 C580 1.412 . S
C2808 C530 1.422 . S
C2825 C1022 1.414 . S
C2844 C564 1.415 . S
C2861 C598 1.422 . S
C2880 C512 1.408 . S
C2897 C954 1.413 . S
C2916 C632 1.419 . S
C2933 C444 1.415 . S
C2952 C666 1.416 . S
C2969 C700 1.420 . S
C2988 C886 1.422 . S
C3005 C376 1.415 . S
C3024 C734 1.416 . S
C3041 C818 1.414 . S
C3060 C768 1.418 . S
C3077 C802 1.422 . S
C3096 C308 1.407 . S
C3113 C836 1.421 . S
C3132 C750 1.398 . S
C3149 C240 1.416 . S
C3168 C870 1.419 . S
C3185 C904 1.421 . S
C3204 C682 1.399 . S
C3221 C172 1.413 . S
C3240 C938 1.423 . S
C3257 C972 1.422 . S
C3276 C614 1.423 . S
C3293 C1006 1.421 . S
C3312 C104 1.419 . S
C3329 C546 1.413 . S
C3348 C1040 1.413 . S
C3365 C36 1.411 . S
C3384 C1074 1.415 . S
C3401 C243 1.564 . S
C3420 C5 1.568 . S
C3437 C141 1.565 . S
C3456 C39 1.557 . S
C3473 C175 1.565 . S
C3492 C73 1.555 . S
C3509 C107 1.565 . S
C3528 C209 1.562 . S
C3545 C515 1.564 . S
C3564 C277 1.555 . S
C3581 C311 1.562 . S
C3600 C413 1.569 . S
C3617 C447 1.565 . S
C3636 C345 1.552 . S
C3653 C481 1.565 . S
C3672 C379 1.554 . S
C3689 C787 1.564 . S
C3708 C549 1.568 . S
C3725 C583 1.563 . S
C3744 C685 1.552 . S
C3761 C719 1.562 . S
C3780 C617 1.559 . S
C3797 C753 1.562 . S
C3816 C651 1.557 . S
C3833 C821 1.565 . S
C3852 C1059 1.553 . S
C3869 C957 1.563 . S
C3888 C855 1.562 . S
C3905 C889 1.562 . S
C3924 C991 1.569 . S
C3941 C1025 1.563 . S
C3960 C923 1.559 . S
