# Generated by pormake.
# Topology wkf, (6)-cn, num edge types: 1
# Building blocks:
#     Node 0, Type 0, BuildingBlock: KUMBOL_clean_sbu_1, # of connection points: 6
#     Node 1, Type 0, BuildingBlock: KUMBOL_clean_sbu_1, # of connection points: 6
#     Node 2, Type 0, BuildingBlock: KUMBOL_clean_sbu_1, # of connection points: 6
#     Node 3, Type 0, BuildingBlock: KUMBOL_clean_sbu_1, # of connection points: 6
#     Node 4, Type 0, BuildingBlock: KUMBOL_clean_sbu_1, # of connection points: 6
#     Node 5, Type 0, BuildingBlock: KUMBOL_clean_sbu_1, # of connection points: 6
#     Node 6, Type 0, BuildingBlock: KUMBOL_clean_sbu_1, # of connection points: 6
#     Node 7, Type 0, BuildingBlock: KUMBOL_clean_sbu_1, # of connection points: 6
#     Node 8, Type 0, BuildingBlock: KUMBOL_clean_sbu_1, # of connection points: 6
#     Node 9, Type 0, BuildingBlock: KUMBOL_clean_sbu_1, # of connection points: 6
#     Node 10, Type 0, BuildingBlock: KUMBOL_clean_sbu_1, # of connection points: 6
#     Node 11, Type 0, BuildingBlock: KUMBOL_clean_sbu_1, # of connection points: 6
#     Edge 12, Type (0, 0), BuildingBlock: OJICUG_clean_linker_0, # of connection points: 2
#     Edge 13, Type (0, 0), BuildingBlock: OJICUG_clean_linker_0, # of connection points: 2
#     Edge 14, Type (0, 0), BuildingBlock: OJICUG_clean_linker_0, # of connection points: 2
#     Edge 15, Type (0, 0), BuildingBlock: OJICUG_clean_linker_0, # of connection points: 2
#     Edge 16, Type (0, 0), BuildingBlock: OJICUG_clean_linker_0, # of connection points: 2
#     Edge 17, Type (0, 0), BuildingBlock: OJICUG_clean_linker_0, # of connection points: 2
#     Edge 18, Type (0, 0), BuildingBlock: OJICUG_clean_linker_0, # of connection points: 2
#     Edge 19, Type (0, 0), BuildingBlock: OJICUG_clean_linker_0, # of connection points: 2
#     Edge 20, Type (0, 0), BuildingBlock: OJICUG_clean_linker_0, # of connection points: 2
#     Edge 21, Type (0, 0), BuildingBlock: OJICUG_clean_linker_0, # of connection points: 2
#     Edge 22, Type (0, 0), BuildingBlock: OJICUG_clean_linker_0, # of connection points: 2
#     Edge 23, Type (0, 0), BuildingBlock: OJICUG_clean_linker_0, # of connection points: 2
#     Edge 24, Type (0, 0), BuildingBlock: OJICUG_clean_linker_0, # of connection points: 2
#     Edge 25, Type (0, 0), BuildingBlock: OJICUG_clean_linker_0, # of connection points: 2
#     Edge 26, Type (0, 0), BuildingBlock: OJICUG_clean_linker_0, # of connection points: 2
#     Edge 27, Type (0, 0), BuildingBlock: OJICUG_clean_linker_0, # of connection points: 2
#     Edge 28, Type (0, 0), BuildingBlock: OJICUG_clean_linker_0, # of connection points: 2
#     Edge 29, Type (0, 0), BuildingBlock: OJICUG_clean_linker_0, # of connection points: 2
#     Edge 30, Type (0, 0), BuildingBlock: OJICUG_clean_linker_0, # of connection points: 2
#     Edge 31, Type (0, 0), BuildingBlock: OJICUG_clean_linker_0, # of connection points: 2
#     Edge 32, Type (0, 0), BuildingBlock: OJICUG_clean_linker_0, # of connection points: 2
#     Edge 33, Type (0, 0), BuildingBlock: OJICUG_clean_linker_0, # of connection points: 2
#     Edge 34, Type (0, 0), BuildingBlock: OJICUG_clean_linker_0, # of connection points: 2
#     Edge 35, Type (0, 0), BuildingBlock: OJICUG_clean_linker_0, # of connection points: 2
#     Edge 36, Type (0, 0), BuildingBlock: OJICUG_clean_linker_0, # of connection points: 2
#     Edge 37, Type (0, 0), BuildingBlock: OJICUG_clean_linker_0, # of connection points: 2
#     Edge 38, Type (0, 0), BuildingBlock: OJICUG_clean_linker_0, # of connection points: 2
#     Edge 39, Type (0, 0), BuildingBlock: OJICUG_clean_linker_0, # of connection points: 2
#     Edge 40, Type (0, 0), BuildingBlock: OJICUG_clean_linker_0, # of connection points: 2
#     Edge 41, Type (0, 0), BuildingBlock: OJICUG_clean_linker_0, # of connection points: 2
#     Edge 42, Type (0, 0), BuildingBlock: OJICUG_clean_linker_0, # of connection points: 2
#     Edge 43, Type (0, 0), BuildingBlock: OJICUG_clean_linker_0, # of connection points: 2
#     Edge 44, Type (0, 0), BuildingBlock: OJICUG_clean_linker_0, # of connection points: 2
#     Edge 45, Type (0, 0), BuildingBlock: OJICUG_clean_linker_0, # of connection points: 2
#     Edge 46, Type (0, 0), BuildingBlock: OJICUG_clean_linker_0, # of connection points: 2
#     Edge 47, Type (0, 0), BuildingBlock: OJICUG_clean_linker_0, # of connection points: 2
# Relax obj value: 0.328
# Max RMSD: 0.290
# Mean RMSD: 0.279
data_MOF--net-wkf--node1-KUMBOL_clean_sbu_1--edge1-OJICUG_clean_linker_0
_symmetry_space_group_name_H-M    P1
_symmetry_Int_Tables_number       1
_symmetry_cell_setting            triclinic
loop_
_symmetry_equiv_pos_as_xyz
'x, y, z'
_cell_length_a     22.294998
_cell_length_b     22.271547
_cell_length_c     68.793949
_cell_angle_alpha  90.075121
_cell_angle_beta   89.890823
_cell_angle_gamma 119.41148
loop_
_atom_site_label
_atom_site_type_symbol
_atom_site_fract_x
_atom_site_fract_y
_atom_site_fract_z
_atom_type_partial_charge
C0 C 0.75834 1.00278 0.37017 0.0
C1 C 0.75465 1.02235 0.33578 0.0
C2 C 0.7252 1.0118 0.35453 0.0
C3 C 0.82029 1.02914 0.33342 0.0
C4 C 0.82254 1.00561 0.36777 0.0
C5 C 0.85443 1.02123 0.34944 0.0
N6 N 0.72522 0.98595 0.38748 0.0
C7 C 0.75063 0.9657 0.40264 0.0
C8 C 0.85152 0.99032 0.38371 0.0
C9 C 0.81458 0.96863 0.4011 0.0
Gd10 Gd 0.45981 0.93181 0.36144 0.0
Gd11 Gd 0.62541 0.9961 0.39036 0.0
N12 N 0.66144 1.00392 0.35739 0.0
C13 C 0.71599 1.02261 0.31987 0.0
C14 C 0.62213 0.99924 0.34171 0.0
C15 C 0.64873 1.00926 0.32281 0.0
H16 H 0.5696 0.98569 0.34362 0.0
H17 H 0.61707 1.00572 0.31049 0.0
H18 H 0.32264 0.85351 0.39177 0.0
H19 H 0.7223 0.94858 0.41611 0.0
H20 H 0.22007 0.863 0.39989 0.0
H21 H 0.7364 1.02993 0.30522 0.0
H22 H 0.84409 1.03827 0.31919 0.0
H23 H 0.52441 1.02564 0.32001 0.0
H24 H 0.901 0.99245 0.38252 0.0
H25 H 0.83531 0.95415 0.41331 0.0
H26 H 0.22527 1.02916 0.35496 0.0
H27 H 0.9043 1.02493 0.34736 0.0
H28 H 0.40001 0.1166 0.30613 0.0
H29 H 0.49685 0.09645 0.29825 0.0
N30 N 0.44546 1.00732 0.34043 0.0
C31 C 0.38877 1.01365 0.34431 0.0
C32 C 0.48194 1.03382 0.32358 0.0
C33 C 0.41186 0.08537 0.31576 0.0
C34 C 0.46654 0.07413 0.31124 0.0
C35 C 0.37157 1.05425 0.33224 0.0
H36 H 0.29947 0.09134 0.32733 0.0
N37 N 0.35766 0.93107 0.36985 0.0
C38 C 0.3448 0.97587 0.3596 0.0
C39 C 0.24071 0.94065 0.37833 0.0
C40 C 0.28525 0.98103 0.36349 0.0
C41 C 0.31302 0.8898 0.38391 0.0
C42 C 0.25458 0.89476 0.38852 0.0
O43 O 0.59273 0.88547 0.38288 0.0
O44 O 0.51941 0.86765 0.3572 0.0
O45 O 0.36213 0.85969 0.34703 0.0
O46 O 0.45948 0.87752 0.33519 0.0
O47 O 0.6352 0.09413 0.37514 0.0
O48 O 0.53202 1.05321 0.35858 0.0
O49 O 0.45301 0.96879 0.39254 0.0
O50 O 0.56583 1.04957 0.39757 0.0
O51 O 0.71454 0.07408 0.40595 0.0
O52 O 0.63361 0.98796 0.42147 0.0
O53 O 0.43378 0.85912 0.3873 0.0
O54 O 0.53365 0.90667 0.40592 0.0
C55 C 0.55922 0.84938 0.36752 0.0
C56 C 0.59321 0.10579 0.3639 0.0
C57 C 0.36977 0.85263 0.31193 0.0
C58 C 0.28181 0.81432 0.28566 0.0
C59 C 0.401 0.90091 0.27929 0.0
C60 C 0.4193 0.89561 0.29826 0.0
C61 C 0.33333 0.86121 0.27307 0.0
C62 C 0.30056 0.81049 0.30534 0.0
C63 C 0.39289 0.84903 0.33232 0.0
C64 C 0.27069 1.02459 0.35213 0.0
C65 C 0.31324 1.06041 0.33645 0.0
H66 H 0.19472 0.94351 0.38179 0.0
C67 C 0.50101 1.02296 0.40204 0.0
C68 C 0.46786 0.86056 0.4032 0.0
C69 C 0.67985 0.09618 0.43669 0.0
C70 C 0.70876 0.21308 0.44613 0.0
C71 C 0.629 0.11547 0.46569 0.0
C72 C 0.63586 0.0704 0.4529 0.0
C73 C 0.66581 0.18652 0.46247 0.0
C74 C 0.7158 0.16734 0.43347 0.0
C75 C 0.68697 1.04914 0.42288 0.0
H76 H 0.44011 0.93493 0.26913 0.0
H77 H 0.47317 0.92491 0.30205 0.0
H78 H 0.32219 0.86508 0.25795 0.0
H79 H 0.26205 0.77458 0.31532 0.0
H80 H 0.5955 0.09532 0.47822 0.0
H81 H 0.60698 1.01553 0.45574 0.0
H82 H 0.66151 0.22061 0.47288 0.0
H83 H 0.75138 0.18737 0.42136 0.0
C84 C 0.82721 0.71024 0.53785 0.0
C85 C 0.80377 0.71741 0.50385 0.0
C86 C 0.78344 0.68401 0.52204 0.0
C87 C 0.86544 0.78034 0.50228 0.0
C88 C 0.8908 0.7716 0.53613 0.0
C89 C 0.9087 0.80761 0.51844 0.0
N90 N 0.80977 0.67309 0.55453 0.0
C91 C 0.85528 0.69169 0.5696 0.0
C92 C 0.93525 0.79391 0.55211 0.0
C93 C 0.91826 0.75283 0.56872 0.0
Gd94 Gd 0.59451 0.41478 0.52867 0.0
Gd95 Gd 0.69535 0.5844 0.55658 0.0
N96 N 0.72447 0.62254 0.52401 0.0
C97 C 0.76327 0.68489 0.48757 0.0
C98 C 0.68948 0.58784 0.50783 0.0
C99 C 0.70699 0.61884 0.48949 0.0
H100 H 0.65079 0.53524 0.5088 0.0
H101 H 0.67804 0.59123 0.47678 0.0
H102 H 0.51279 0.30361 0.5656 0.0
H103 H 0.8428 0.66012 0.58249 0.0
H104 H 0.39334 0.21535 0.57361 0.0
H105 H 0.77722 0.70853 0.47332 0.0
H106 H 0.88127 0.80713 0.48849 0.0
H107 H 0.58902 0.46976 0.48285 0.0
H108 H 0.98342 0.84187 0.55165 0.0
H109 H 0.95344 0.76849 0.5809 0.0
H110 H 0.26184 0.21244 0.51834 0.0
H111 H 0.95701 0.85523 0.51689 0.0
H112 H 0.37869 0.35956 0.46462 0.0
H113 H 0.5002 0.4449 0.45793 0.0
N114 N 0.51755 0.4024 0.50387 0.0
C115 C 0.451 0.35359 0.50777 0.0
C116 C 0.53577 0.43412 0.48612 0.0
C117 C 0.41721 0.37104 0.47574 0.0
C118 C 0.48576 0.41945 0.47191 0.0
C119 C 0.39919 0.33705 0.4937 0.0
H120 H 0.2913 0.27235 0.48693 0.0
N121 N 0.48521 0.33108 0.53876 0.0
C122 C 0.43443 0.3182 0.52564 0.0
C123 C 0.35117 0.23073 0.54713 0.0
C124 C 0.36592 0.26704 0.52955 0.0
C125 C 0.47164 0.29394 0.55561 0.0
C126 C 0.40423 0.24406 0.56017 0.0
O127 O 0.77369 0.55286 0.54752 0.0
O128 O 0.71651 0.47901 0.52189 0.0
O129 O 0.58207 0.31168 0.52813 0.0
O130 O 0.60124 0.36681 0.50114 0.0
O131 O 0.59892 0.58271 0.54286 0.0
O132 O 0.54618 0.48672 0.52285 0.0
O133 O 0.52948 0.431 0.55232 0.0
O134 O 0.60951 0.50394 0.57404 0.0
O135 O 0.69059 0.67541 0.56579 0.0
O136 O 0.72222 0.62299 0.58602 0.0
O137 O 0.63668 0.39439 0.55651 0.0
O138 O 0.69956 0.4976 0.57337 0.0
C139 C 0.77526 0.51914 0.53191 0.0
C140 C 0.54935 0.5437 0.53036 0.0
C141 C 0.5262 0.24213 0.50003 0.0
C142 C 0.47643 0.15464 0.47343 0.0
C143 C 0.4134 0.13994 0.50365 0.0
C144 C 0.46819 0.19907 0.51133 0.0
C145 C 0.41685 0.11852 0.48493 0.0
C146 C 0.5302 0.21907 0.48087 0.0
C147 C 0.58309 0.30721 0.5092 0.0
C148 C 0.31457 0.25187 0.5156 0.0
C149 C 0.33126 0.28624 0.49773 0.0
H150 H 0.29913 0.1912 0.5506 0.0
C151 C 0.54578 0.46303 0.56926 0.0
C152 C 0.67441 0.43004 0.5715 0.0
C153 C 0.64917 0.66276 0.59813 0.0
C154 C 0.55531 0.6855 0.60649 0.0
C155 C 0.58647 0.61977 0.62846 0.0
C156 C 0.6385 0.62703 0.61576 0.0
C157 C 0.54435 0.64771 0.62377 0.0
C158 C 0.60816 0.69254 0.59382 0.0
C159 C 0.70146 0.66769 0.58397 0.0
H160 H 0.36818 0.10957 0.51248 0.0
H161 H 0.46459 0.21041 0.52634 0.0
H162 H 0.37237 0.07235 0.47968 0.0
H163 H 0.57549 0.25009 0.47219 0.0
H164 H 0.57851 0.59203 0.64198 0.0
H165 H 0.66976 0.604 0.61967 0.0
H166 H 0.50458 0.64118 0.63394 0.0
H167 H 0.61964 0.72352 0.58079 0.0
C168 C 0.15354 0.7749 0.69608 0.0
C169 C 0.13781 0.74139 0.66224 0.0
C170 C 0.14706 0.72858 0.68183 0.0
C171 C 0.13052 0.79886 0.65758 0.0
C172 C 0.15005 0.83476 0.69136 0.0
C173 C 0.13655 0.84548 0.67213 0.0
N174 N 0.1686 0.7641 0.71433 0.0
C175 C 0.18607 0.81368 0.72828 0.0
C176 C 0.16256 0.88317 0.70598 0.0
C177 C 0.18215 0.87328 0.72443 0.0
Gd178 Gd 0.23018 0.5512 0.69692 0.0
Gd179 Gd 0.15991 0.65652 0.72097 0.0
N180 N 0.15617 0.67461 0.68687 0.0
C181 C 0.13944 0.69799 0.64783 0.0
C182 C 0.16373 0.63626 0.67257 0.0
C183 C 0.15413 0.64617 0.653 0.0
H184 H 0.17968 0.59957 0.67593 0.0
H185 H 0.15932 0.61455 0.64189 0.0
H186 H 0.3115 0.51179 0.73252 0.0
H187 H 0.2019 0.80698 0.74255 0.0
H188 H 0.29261 0.40796 0.75029 0.0
H189 H 0.13283 0.70616 0.63264 0.0
H190 H 0.12264 0.809 0.64266 0.0
H191 H 0.14876 0.49431 0.65371 0.0
H192 H 0.15975 0.92948 0.70299 0.0
H193 H 0.19441 0.9116 0.73567 0.0
H194 H 0.10936 0.22171 0.71588 0.0
H195 H 0.13307 0.89082 0.66826 0.0
H196 H 1.0426 0.27373 0.65517 0.0
H197 H 1.07666 0.38235 0.63749 0.0
N198 N 0.15423 0.44919 0.68048 0.0
C199 C 0.14042 0.39002 0.69001 0.0
C200 C 0.13436 0.44704 0.66152 0.0
C201 C 1.07424 0.3226 0.66238 0.0
C202 C 1.09353 0.38383 0.6523 0.0
C203 C 0.09829 0.32507 0.68132 0.0
H204 H 1.05208 0.21462 0.68492 0.0
N205 N 0.22622 0.45704 0.71347 0.0
C206 C 0.17614 0.39418 0.70717 0.0
C207 C 0.20697 0.33881 0.73248 0.0
C208 C 0.166 0.33333 0.71644 0.0
C209 C 0.27017 0.46216 0.7281 0.0
C210 C 0.25976 0.40341 0.73818 0.0
O211 O 0.27115 0.73248 0.71413 0.0
O212 O 0.29313 0.67378 0.68996 0.0
O213 O 0.31368 0.53057 0.68989 0.0
O214 O 0.27129 0.56395 0.66703 0.0
O215 O 1.06365 0.5657 0.70639 0.0
O216 O 0.10827 0.50191 0.69206 0.0
O217 O 0.18576 0.51425 0.72789 0.0
O218 O 0.10364 0.54684 0.73068 0.0
O219 O 1.0789 0.67036 0.73429 0.0
O220 O 0.16672 0.68533 0.75126 0.0
O221 O 0.30533 0.61408 0.72068 0.0
O222 O 0.24325 0.65081 0.73949 0.0
C223 C 0.30942 0.73331 0.69942 0.0
C224 C 1.05404 0.51058 0.69623 0.0
C225 C 0.31356 0.48569 0.65818 0.0
C226 C 0.35329 0.44749 0.62933 0.0
C227 C 0.27517 0.36382 0.65259 0.0
C228 C 0.27823 0.41653 0.66417 0.0
C229 C 0.31182 0.37901 0.63525 0.0
C230 C 0.3531 0.50129 0.64068 0.0
C231 C 0.31304 0.54022 0.67121 0.0
C232 C 0.1182 0.26886 0.70883 0.0
C233 C 1.0852 0.26477 0.69121 0.0
H234 H 0.20013 0.29326 0.74007 0.0
C235 C 0.12925 0.50815 0.73606 0.0
C236 C 0.29571 0.63913 0.73704 0.0
C237 C 1.0583 0.62236 0.76611 0.0
C238 C 0.94337 0.53176 0.77547 0.0
C239 C 1.04264 0.55323 0.795 0.0
C240 C 1.08581 0.6058 0.78232 0.0
C241 C 0.97176 0.5166 0.79169 0.0
C242 C 0.9872 0.58548 0.76296 0.0
C243 C 0.10374 0.67414 0.75172 0.0
H244 H 0.24642 0.31092 0.65751 0.0
H245 H 0.25483 0.40282 0.67822 0.0
H246 H 0.31127 0.3372 0.62702 0.0
H247 H 0.38481 0.55444 0.6363 0.0
H248 H 1.06419 0.54075 0.80742 0.0
H249 H 0.14068 0.63294 0.78512 0.0
H250 H 0.93928 0.47677 0.80184 0.0
H251 H 0.96584 0.59985 0.75086 0.0
C252 C 0.43616 0.13416 0.87042 0.0
C253 C 0.43629 0.10954 0.83625 0.0
C254 C 0.46718 0.12205 0.8548 0.0
C255 C 0.37123 0.10434 0.83414 0.0
C256 C 0.37269 0.13295 0.86827 0.0
C257 C 0.33927 0.11572 0.85018 0.0
N258 N 0.47077 0.15223 0.88745 0.0
C259 C 0.44758 0.17514 0.90257 0.0
C260 C 0.34596 0.1512 0.8842 0.0
C261 C 0.38442 0.17399 0.9013 0.0
Gd262 Gd 0.74159 0.20614 0.86367 0.0
Gd263 Gd 0.5685 0.13844 0.89018 0.0
N264 N 0.53053 0.12886 0.85743 0.0
C265 C 0.47302 0.10568 0.82028 0.0
C266 C 0.56841 0.13097 0.84163 0.0
C267 C 0.54009 0.11806 0.82293 0.0
H268 H 0.62101 0.14452 0.84336 0.0
H269 H 0.57025 0.11861 0.81053 0.0
H270 H 0.86092 0.23374 0.89829 0.0
H271 H 0.47702 0.19288 0.91584 0.0
H272 H 0.94248 0.19245 0.90596 0.0
H273 H 0.45137 0.09639 0.80578 0.0
H274 H 0.34628 0.09379 0.82008 0.0
H275 H 0.68828 0.15311 0.81783 0.0
H276 H 0.29697 0.15016 0.88325 0.0
H277 H 0.36538 0.19054 0.91349 0.0
H278 H 0.926 1.0506 0.85181 0.0
H279 H 0.28992 0.11331 0.84827 0.0
H280 H 0.78348 1.03747 0.79842 0.0
H281 H 0.70671 0.0861 0.79225 0.0
N282 N 0.74814 0.13652 0.83896 0.0
C283 C 0.79367 0.11338 0.84234 0.0
C284 C 0.71903 0.12918 0.82099 0.0
C285 C 0.77427 1.06545 0.80986 0.0
C286 C 0.73058 0.09248 0.80635 0.0
C287 C 0.80709 0.07644 0.82789 0.0
H288 H 0.86535 1.02543 0.82057 0.0
N289 N 0.82145 0.17119 0.87292 0.0
C290 C 0.82936 0.12923 0.85997 0.0
C291 C 0.91708 0.12822 0.8805 0.0
C292 C 0.87791 0.10706 0.86344 0.0
C293 C 0.86364 0.19626 0.88883 0.0
C294 C 0.91048 0.17365 0.89313 0.0
O295 O 0.60771 0.2504 0.88227 0.0
O296 O 0.67705 0.2635 0.85585 0.0
O297 O 0.84696 0.29106 0.86271 0.0
O298 O 0.78733 0.26475 0.83659 0.0
O299 O 0.56558 1.04296 0.87476 0.0
O300 O 0.66922 0.08549 0.858 0.0
O301 O 0.73477 0.1627 0.89481 0.0
O302 O 0.62225 0.07989 0.89764 0.0
O303 O 0.47649 1.06037 0.9048 0.0
O304 O 0.55706 0.14379 0.92123 0.0
O305 O 0.75964 0.27459 0.88999 0.0
O306 O 0.65689 0.22625 0.90732 0.0
C307 C 0.63871 0.28392 0.86629 0.0
C308 C 0.6079 1.03227 0.8632 0.0
C309 C 0.90995 0.3049 0.83317 0.0
C310 C 0.99471 0.34476 0.80587 0.0
C311 C 1.00487 0.27986 0.83292 0.0
C312 C 0.94894 0.27876 0.84215 0.0
C313 C 1.02695 0.31148 0.81496 0.0
C314 C 0.93371 0.33872 0.81482 0.0
C315 C 0.84873 0.3007 0.844 0.0
C316 C 0.88878 0.06774 0.84938 0.0
C317 C 0.85409 1.05318 0.8316 0.0
H318 H 0.95464 0.11207 0.88365 0.0
C319 C 0.68597 0.10579 0.90296 0.0
C320 C 0.72315 0.27227 0.90541 0.0
C321 C 0.507 1.03413 0.93558 0.0
C322 C 0.4757 0.91585 0.94417 0.0
C323 C 0.55598 1.01129 0.96431 0.0
C324 C 0.55035 1.0579 0.95193 0.0
C325 C 0.51859 0.94064 0.96056 0.0
C326 C 0.46987 0.96323 0.93191 0.0
C327 C 0.50254 0.0832 0.92201 0.0
H328 H 1.03239 0.25722 0.83999 0.0
H329 H 0.93734 0.25805 0.85661 0.0
H330 H 1.07065 0.31066 0.80836 0.0
H331 H 0.90622 0.36168 0.80798 0.0
H332 H 0.58927 1.02995 0.9769 0.0
H333 H 0.58001 0.11246 0.95515 0.0
H334 H 0.52267 0.90551 0.97057 0.0
H335 H 0.43463 0.94486 0.91973 0.0
C336 C 0.36859 0.41597 0.03802 0.0
C337 C 0.39226 0.41683 1.00372 0.0
C338 C 0.41112 0.44701 1.02237 0.0
C339 C 0.33243 0.35264 1.00149 0.0
C340 C 0.3065 0.35334 0.03575 0.0
C341 C 0.28967 0.32079 1.01752 0.0
N342 N 0.38553 0.44979 0.05521 0.0
C343 C 0.3402 0.42654 0.07041 0.0
C344 C 0.26232 0.32654 0.05173 0.0
C345 C 0.27849 0.36416 0.06901 0.0
Gd346 Gd 0.59789 0.71919 0.03125 0.0
Gd347 Gd 0.49588 0.5468 0.05793 0.0
N348 N 0.4676 0.50969 0.02509 0.0
C349 C 0.43237 0.45346 0.98778 0.0
C350 C 0.50302 0.54758 1.00931 0.0
C351 C 0.48712 0.51987 0.99055 0.0
H352 H 0.54199 0.59995 1.01105 0.0
H353 H 0.51635 0.55013 0.97818 0.0
H354 H 0.67834 0.83963 0.06641 0.0
H355 H 0.35194 0.4554 0.08381 0.0
H356 H 0.79741 0.92515 0.07535 0.0
H357 H 0.41961 0.43234 0.97322 0.0
H358 H 0.31763 0.32834 0.98734 0.0
H359 H 0.60805 0.66634 0.98586 0.0
H360 H 0.21476 0.278 0.05073 0.0
H361 H 0.24353 0.3451 0.08126 0.0
H362 H 0.93479 0.91322 1.02369 0.0
H363 H 0.24266 0.27224 1.01551 0.0
H364 H 0.82039 0.7687 0.96937 0.0
H365 H 0.69835 0.68856 0.96162 0.0
N366 N 0.67873 0.72862 1.00774 0.0
C367 C 0.74542 0.77573 1.012 0.0
C368 C 0.66135 0.69929 0.98965 0.0
C369 C 0.78109 0.75814 0.98021 0.0
C370 C 0.71228 0.71265 0.97579 0.0
C371 C 0.79833 0.79093 0.99834 0.0
H372 H 0.90734 0.85242 0.99243 0.0
N373 N 0.7083 0.80222 0.04176 0.0
C374 C 0.76066 0.81173 0.02963 0.0
C375 C 0.84248 0.90156 0.05085 0.0
C376 C 0.82922 0.86217 0.03389 0.0
C377 C 0.72066 0.84436 0.05757 0.0
C378 C 0.78789 0.89315 0.06261 0.0
O379 O 0.42231 0.58591 0.05008 0.0
O380 O 0.47713 0.6548 1.02358 0.0
O381 O 0.61265 0.82316 0.02967 0.0
O382 O 0.58795 0.76377 1.00347 0.0
O383 O 0.5871 0.54223 0.04227 0.0
O384 O 0.64754 0.64655 0.02589 0.0
O385 O 0.63739 0.71265 0.06184 0.0
O386 O 0.60707 0.59933 0.06538 0.0
O387 O 0.48467 0.45512 0.07252 0.0
O388 O 0.47722 0.53427 0.08888 0.0
O389 O 0.54654 0.7374 0.05749 0.0
O390 O 0.50059 0.63677 0.07569 0.0
C391 C 0.4191 0.61624 0.03398 0.0
C392 C 0.63987 0.58475 0.0309 0.0
C393 C 0.66584 0.88739 1.00068 0.0
C394 C 0.71301 0.97269 0.97357 0.0
C395 C 0.78231 0.98534 1.00222 0.0
C396 C 0.72752 0.92838 1.01078 0.0
C397 C 0.77568 1.00665 0.98381 0.0
C398 C 0.6587 0.9104 0.98186 0.0
C399 C 0.60884 0.8249 1.01081 0.0
C400 C 0.88201 0.87464 1.02065 0.0
C401 C 0.86647 0.83977 1.00286 0.0
H402 H 0.89444 0.94058 0.05456 0.0
C403 C 0.64603 0.66368 0.06992 0.0
C404 C 0.51774 0.70244 0.07354 0.0
C405 C 0.541 0.48815 0.10329 0.0
C406 C 0.63258 0.46269 0.11171 0.0
C407 C 0.61324 0.5418 0.13158 0.0
C408 C 0.55929 0.53268 0.11942 0.0
C409 C 0.6494 0.5066 0.12787 0.0
C410 C 0.57782 0.45344 0.09964 0.0
C411 C 0.48648 0.48106 0.08972 0.0
H412 H 0.83001 1.01428 1.01017 0.0
H413 H 0.73388 0.91754 0.02558 0.0
H414 H 0.82012 1.05118 0.97778 0.0
H415 H 0.61082 0.88118 0.97411 0.0
H416 H 0.62689 0.57605 0.14396 0.0
H417 H 0.53217 0.56072 0.12259 0.0
H418 H 0.68988 0.51314 0.13772 0.0
H419 H 0.56245 0.41756 0.08759 0.0
C420 C 1.01912 0.35859 0.19017 0.0
C421 C 1.03739 0.40125 0.15719 0.0
C422 C 1.02942 0.40997 0.17722 0.0
C423 C 1.03977 0.34257 0.15076 0.0
C424 C 1.0173 0.29758 0.18364 0.0
C425 C 1.02973 0.29077 0.16398 0.0
N426 N 1.00533 0.36589 0.20891 0.0
C427 C 0.9851 0.31237 0.22168 0.0
C428 C 1.00096 0.24437 0.19697 0.0
C429 C 0.98398 0.25154 0.21603 0.0
Gd430 Gd 0.95422 0.58655 0.19817 0.0
Gd431 Gd 1.0226 0.47469 0.21855 0.0
N432 N 1.02467 0.46497 0.18393 0.0
C433 C 1.03897 0.44979 0.14408 0.0
C434 C 1.01915 0.50801 0.17083 0.0
C435 C 1.02787 0.50236 0.15091 0.0
H436 H 1.00438 0.54452 0.17538 0.0
H437 H 1.02426 0.53757 0.14077 0.0
H438 H 0.8782 0.62158 0.23622 0.0
H439 H 0.97062 0.31661 0.23638 0.0
H440 H 0.89443 0.7243 0.25419 0.0
H441 H 1.04467 0.44485 0.12861 0.0
H442 H 1.04664 0.33554 0.13549 0.0
H443 H 1.03309 0.64577 0.15463 0.0
H444 H 0.99963 0.19702 0.19255 0.0
H445 H 0.97027 0.21043 0.22642 0.0
H446 H 1.06758 0.91394 0.21816 0.0
H447 H 1.0293 0.24464 0.15875 0.0
H448 H 0.13093 0.86569 0.15625 0.0
H449 H 0.10075 0.75836 0.13841 0.0
N450 N 1.02597 0.68931 0.18154 0.0
C451 C 1.03853 0.74773 0.19131 0.0
C452 C 1.04596 0.69245 0.16255 0.0
C453 C 0.10156 0.81662 0.16351 0.0
C454 C 1.08425 0.75605 0.15332 0.0
C455 C 1.07834 0.81309 0.18263 0.0
H456 H 0.12142 0.92321 0.18644 0.0
N457 N 0.95881 0.67872 0.21596 0.0
C458 C 1.00561 0.7423 0.20916 0.0
C459 C 0.97602 0.7954 0.23549 0.0
C460 C 1.01486 0.80235 0.21877 0.0
C461 C 0.91718 0.67188 0.23144 0.0
C462 C 0.92626 0.72997 0.24166 0.0
O463 O 0.91035 0.40284 0.21251 0.0
O464 O 0.89107 0.46589 0.18931 0.0
O465 O 0.86659 0.6024 0.19391 0.0
O466 O 0.91165 0.58155 0.16885 0.0
O467 O 0.11914 0.56954 0.2055 0.0
O468 O 1.07555 0.63693 0.19296 0.0
O469 O 1.00774 0.62673 0.22801 0.0
O470 O 1.07815 0.57892 0.23198 0.0
O471 O 0.10169 0.45155 0.22822 0.0
O472 O 1.01952 0.43753 0.24778 0.0
O473 O 0.88162 0.52047 0.22168 0.0
O474 O 0.94469 0.48202 0.23912 0.0
C475 C 0.87332 0.40489 0.19798 0.0
C476 C 0.12921 0.62708 0.19666 0.0
C477 C 0.86224 0.65642 0.1644 0.0
C478 C 0.81892 0.69928 0.13758 0.0
C479 C 0.88339 0.77465 0.16442 0.0
C480 C 0.88676 0.72075 0.17349 0.0
C481 C 0.85067 0.76445 0.1466 0.0
C482 C 0.82768 0.64575 0.14625 0.0
C483 C 0.86743 0.59997 0.17497 0.0
C484 C 1.05948 0.86738 0.21087 0.0
C485 C 1.09043 0.87269 0.19279 0.0
H486 H 0.98202 0.84035 0.24327 0.0
C487 C 1.05872 0.62339 0.23692 0.0
C488 C 0.89284 0.49491 0.23758 0.0
C489 C 0.12893 0.48172 0.26144 0.0
C490 C 0.24458 0.5701 0.271 0.0
C491 C 0.15835 0.50149 0.29552 0.0
C492 C 0.1112 0.46456 0.28097 0.0
C493 C 0.22482 0.55274 0.29067 0.0
C494 C 0.19346 0.53744 0.2567 0.0
C495 C 1.07947 0.44163 0.24614 0.0
H496 H 0.90461 0.82432 0.17154 0.0
H497 H 0.90711 0.7295 0.18795 0.0
H498 H 0.84898 0.80786 0.14012 0.0
H499 H 0.8058 0.59568 0.1394 0.0
H500 H 0.14443 0.48818 0.31062 0.0
H501 H 1.06088 0.42273 0.28494 0.0
H502 H 0.26072 0.57537 0.30251 0.0
H503 H 0.20402 0.55287 0.24166 0.0
C504 C 0.17457 0.41544 0.51064 0.0
C505 C 0.15476 0.42807 0.54457 0.0
C506 C 0.16399 0.45189 0.52516 0.0
C507 C 0.15173 0.36494 0.54876 0.0
C508 C 0.17548 0.35393 0.51492 0.0
C509 C 0.16204 0.32786 0.53394 0.0
N510 N 0.18924 0.44293 0.49257 0.0
C511 C 0.21002 0.41413 0.47838 0.0
C512 C 0.19212 0.32168 0.50008 0.0
C513 C 0.21095 0.35274 0.48183 0.0
Gd514 Gd 0.24417 0.71283 0.51063 0.0
Gd515 Gd 0.17428 0.53873 0.48662 0.0
N516 N 0.16934 0.51371 0.52059 0.0
C517 C 0.15232 0.46995 0.55931 0.0
C518 C 0.17342 0.55692 0.53528 0.0
C519 C 0.16344 0.53544 0.55467 0.0
H520 H 0.18773 0.60925 0.5324 0.0
H521 H 0.16591 0.5701 0.56608 0.0
H522 H 0.31276 0.82893 0.47374 0.0
H523 H 0.22525 0.43786 0.46424 0.0
H524 H 0.29192 0.91701 0.45838 0.0
H525 H 0.1456 0.45375 0.57438 0.0
H526 H 0.14398 0.34563 0.56353 0.0
H527 H 0.16887 0.68349 0.55501 0.0
H528 H 0.19235 0.2739 0.50275 0.0
H529 H 0.22603 0.3294 0.4704 0.0
H530 H 0.12384 0.92778 0.49912 0.0
H531 H 0.16192 0.28038 0.53746 0.0
H532 H 1.07033 0.80615 0.55932 0.0
H533 H 0.10243 0.72503 0.57406 0.0
N534 N 0.17213 0.73905 0.52947 0.0
C535 C 0.15773 0.78639 0.52132 0.0
C536 C 0.1544 0.71848 0.54839 0.0
C537 C 0.09852 0.78746 0.55076 0.0
C538 C 0.11696 0.74196 0.5592 0.0
C539 C 0.11909 0.81057 0.5317 0.0
H540 H 1.07619 0.87923 0.53097 0.0
N541 N 0.23361 0.80085 0.49498 0.0
C542 C 0.18726 0.81616 0.50336 0.0
C543 C 0.21243 0.90298 0.47867 0.0
C544 C 0.17613 0.86836 0.49541 0.0
C545 C 0.27361 0.83893 0.47965 0.0
C546 C 0.26205 0.88889 0.47093 0.0
O547 O 0.28657 0.5765 0.49334 0.0
O548 O 0.30191 0.64905 0.51898 0.0
O549 O 0.33411 0.814 0.51413 0.0
O550 O 0.28994 0.75195 0.53958 0.0
O551 O 1.07864 0.53576 0.50156 0.0
O552 O 0.12229 0.64327 0.51608 0.0
O553 O 0.19569 0.70485 0.4804 0.0
O554 O 0.11579 0.59076 0.47719 0.0
O555 O 1.09321 0.4441 0.47381 0.0
O556 O 0.1797 0.51547 0.45637 0.0
O557 O 0.31717 0.72281 0.4863 0.0
O558 O 0.2529 0.62694 0.46719 0.0
C559 C 0.32106 0.60888 0.50902 0.0
C560 C 1.06849 0.58097 0.51185 0.0
C561 C 0.33931 0.87592 0.54303 0.0
C562 C 0.37722 0.9616 0.56992 0.0
C563 C 0.31811 0.97324 0.54167 0.0
C564 C 0.3174 0.91662 0.53301 0.0
C565 C 0.34644 0.9948 0.56 0.0
C566 C 0.37056 0.89953 0.56162 0.0
C567 C 0.33408 0.8131 0.53306 0.0
C568 C 0.13305 0.88799 0.50507 0.0
C569 C 0.10551 0.85997 0.52324 0.0
H570 H 0.20488 0.94304 0.47214 0.0
C571 C 0.13927 0.65496 0.47245 0.0
C572 C 0.30549 0.68999 0.4696 0.0
C573 C 1.07049 0.47129 0.44215 0.0
C574 C 0.95506 0.44897 0.43353 0.0
C575 C 1.05332 0.52692 0.41391 0.0
C576 C 0.09713 0.51605 0.4261 0.0
C577 C 0.98258 0.49337 0.41752 0.0
C578 C 0.99949 0.43766 0.44557 0.0
C579 C 0.11687 0.46444 0.45625 0.0
H580 H 0.29805 1.00176 0.53387 0.0
H581 H 0.30085 0.90605 0.51818 0.0
H582 H 0.34554 1.03911 0.56614 0.0
H583 H 0.39162 0.87129 0.56907 0.0
H584 H 1.07429 0.56163 0.40166 0.0
H585 H 0.15188 0.54339 0.42309 0.0
H586 H 0.94952 0.50203 0.4078 0.0
H587 H 0.9787 0.40164 0.45756 0.0
C588 C 0.80197 0.11327 0.67932 0.0
C589 C 0.76809 0.09898 0.71312 0.0
C590 C 0.75659 0.10941 0.69351 0.0
C591 C 0.82299 0.08765 0.71785 0.0
C592 C 0.85993 0.10657 0.68415 0.0
C593 C 0.86892 0.09147 0.70337 0.0
N594 N 0.79286 0.12988 0.66107 0.0
C595 C 0.84307 0.14664 0.64734 0.0
C596 C 0.90858 0.11809 0.66969 0.0
C597 C 0.90093 0.13986 0.65132 0.0
Gd598 Gd 0.58214 0.19993 0.67761 0.0
Gd599 Gd 0.68825 0.12791 0.65432 0.0
N600 N 0.70554 0.12293 0.68843 0.0
C601 C 0.7264 0.1039 0.7275 0.0
C602 C 0.66958 0.13421 0.70271 0.0
C603 C 0.67803 0.12331 0.72229 0.0
H604 H 0.63559 0.15359 0.69934 0.0
H605 H 0.64801 0.13117 0.73336 0.0
H606 H 0.55812 0.29289 0.64206 0.0
H607 H 0.83852 0.16452 0.63315 0.0
H608 H 0.46315 0.28038 0.62111 0.0
H609 H 0.7336 0.09644 0.7427 0.0
H610 H 0.83202 0.07875 0.73278 0.0
H611 H 0.50525 0.11625 0.71936 0.0
H612 H 0.9533 0.11264 0.67274 0.0
H613 H 0.9396 0.15151 0.64023 0.0
H614 H 0.26366 0.08487 0.6472 0.0
H615 H 0.91267 0.08539 0.70731 0.0
H616 H 0.28827 1.00551 0.70937 0.0
H617 H 0.38712 1.03988 0.7313 0.0
N618 N 0.47307 0.1237 0.69073 0.0
C619 C 0.41876 0.11067 0.67901 0.0
C620 C 0.46212 0.10216 0.70971 0.0
C621 C 0.33973 1.03856 0.70396 0.0
C622 C 0.39544 1.05856 0.71648 0.0
C623 C 0.35062 1.06583 0.68516 0.0
H624 H 0.24276 1.01875 0.67737 0.0
N625 N 0.49561 0.20171 0.65836 0.0
C626 C 0.43038 0.15054 0.66231 0.0
C627 C 0.38696 0.18858 0.63555 0.0
C628 C 0.37435 0.14276 0.65094 0.0
C629 C 0.50719 0.25006 0.64439 0.0
C630 C 0.4534 0.24324 0.63252 0.0
O631 O 0.76559 0.23713 0.66294 0.0
O632 O 0.70375 0.26449 0.68492 0.0
O633 O 0.56494 0.28581 0.68407 0.0
O634 O 0.58688 0.2368 0.70773 0.0
O635 O 0.59493 1.03216 0.66825 0.0
O636 O 0.53647 0.07903 0.68461 0.0
O637 O 0.54808 0.1551 0.64672 0.0
O638 O 0.57808 0.07093 0.64517 0.0
O639 O 0.69897 1.04732 0.63946 0.0
O640 O 0.72134 0.14131 0.62432 0.0
O641 O 0.65235 0.27644 0.65498 0.0
O642 O 0.68204 0.21024 0.63568 0.0
C643 C 0.76433 0.27738 0.67682 0.0
C644 C 0.54292 1.02388 0.67969 0.0
C645 C 0.51121 0.28412 0.71416 0.0
C646 C 0.46785 0.32908 0.7406 0.0
C647 C 0.38969 0.25079 0.71613 0.0
C648 C 0.44428 0.2503 0.70653 0.0
C649 C 0.40102 0.28896 0.73304 0.0
C650 C 0.52301 0.32434 0.73135 0.0
C651 C 0.56815 0.28198 0.70289 0.0
C652 C 0.30718 0.0922 0.65592 0.0
C653 C 0.29527 1.05424 0.67307 0.0
H654 H 0.34525 0.18407 0.62648 0.0
C655 C 0.54034 0.09703 0.63932 0.0
C656 C 0.67418 0.26479 0.63833 0.0
C657 C 0.65673 1.03801 0.6071 0.0
C658 C 0.56253 0.92884 0.59525 0.0
C659 C 0.59674 1.03437 0.5772 0.0
C660 C 0.64751 0.07169 0.59103 0.0
C661 C 0.55477 0.96317 0.57917 0.0
C662 C 0.61432 0.96679 0.60895 0.0
C663 C 0.70689 0.07739 0.62258 0.0
H664 H 0.33828 0.22261 0.71013 0.0
H665 H 0.43392 0.22467 0.69277 0.0
H666 H 0.35687 0.28775 0.74002 0.0
H667 H 0.57481 0.35337 0.73698 0.0
H668 H 0.59004 1.06071 0.56489 0.0
H669 H 0.67916 0.12688 0.58919 0.0
H670 H 0.51663 0.93512 0.56813 0.0
H671 H 0.6228 0.94054 0.62099 0.0
C672 C 0.74135 0.77875 0.84399 0.0
C673 C 0.72723 0.74744 0.87797 0.0
C674 C 0.70327 0.73377 0.85858 0.0
C675 C 0.79203 0.80425 0.88207 0.0
C676 C 0.8046 0.83825 0.84817 0.0
C677 C 0.83071 0.84965 0.86718 0.0
N678 N 0.71381 0.76728 0.82595 0.0
C679 C 0.7441 0.81598 0.81175 0.0
C680 C 0.83849 0.8857 0.83327 0.0
C681 C 0.80735 0.87518 0.81507 0.0
Gd682 Gd 0.44102 0.55791 0.84442 0.0
Gd683 Gd 0.61489 0.66037 0.82013 0.0
N684 N 0.63998 0.68062 0.85409 0.0
C685 C 0.68398 0.70574 0.89278 0.0
C686 C 0.59575 0.64442 0.86883 0.0
C687 C 0.61726 0.65506 0.88821 0.0
H688 H 0.54286 0.609 0.86603 0.0
H689 H 0.58178 0.62499 0.89965 0.0
H690 H 0.32374 0.51839 0.80794 0.0
H691 H 0.72028 0.80893 0.79768 0.0
H692 H 0.2426 0.41465 0.78971 0.0
H693 H 0.70028 0.71458 0.90784 0.0
H694 H 0.81149 0.81499 0.89682 0.0
H695 H 0.45889 0.50038 0.88843 0.0
H696 H 0.88751 0.93157 0.83583 0.0
H697 H 0.83199 0.91258 0.80358 0.0
H698 H 0.24194 0.22844 0.82441 0.0
H699 H 0.87951 0.89468 0.87063 0.0
H700 H 0.35022 0.28026 0.88653 0.0
H701 H 0.41829 0.38825 0.90475 0.0
N702 N 0.41358 0.45566 0.86116 0.0
C703 C 0.37134 0.3966 0.85129 0.0
C704 C 0.42809 0.45325 0.88041 0.0
C705 C 0.36771 0.32903 0.87923 0.0
C706 C 0.40556 0.38997 0.88966 0.0
C707 C 0.34914 0.33162 0.85995 0.0
H708 H 0.28806 0.22118 0.85609 0.0
N709 N 0.35489 0.46373 0.82714 0.0
C710 C 0.34271 0.40083 0.83358 0.0
C711 C 0.26023 0.34563 0.80762 0.0
C712 C 0.29445 0.34006 0.82398 0.0
C713 C 0.31654 0.46879 0.81231 0.0
C714 C 0.27046 0.41013 0.80197 0.0
O715 O 0.57942 0.737 0.82734 0.0
O716 O 0.50139 0.67984 0.85193 0.0
O717 O 0.33817 0.54283 0.84938 0.0
O718 O 0.40562 0.56651 0.87384 0.0
O719 O 0.61854 0.56766 0.83472 0.0
O720 O 0.5142 0.50899 0.85102 0.0
O721 O 0.45051 0.51903 0.81387 0.0
O722 O 0.56416 0.55009 0.81139 0.0
O723 O 0.70736 0.67153 0.80605 0.0
O724 O 0.6338 0.688 0.78973 0.0
O725 O 0.43006 0.62238 0.82072 0.0
O726 O 0.52576 0.65319 0.80146 0.0
C727 C 0.54417 0.73895 0.84246 0.0
C728 C 0.57558 0.51544 0.84608 0.0
C729 C 0.28334 0.49004 0.87931 0.0
C730 C 0.19762 0.44555 0.90628 0.0
C731 C 0.19422 0.36927 0.88039 0.0
C732 C 0.24836 0.42415 0.87093 0.0
C733 C 0.1698 0.37944 0.89795 0.0
C734 C 0.25695 0.50083 0.89714 0.0
C735 C 0.34264 0.54688 0.86826 0.0
C736 C 0.27832 0.27555 0.83169 0.0
C737 C 0.3049 0.27136 0.84973 0.0
H738 H 0.22329 0.30013 0.79981 0.0
C739 C 0.50051 0.51093 0.80624 0.0
C740 C 0.46282 0.64385 0.80404 0.0
C741 C 0.67668 0.62252 0.77435 0.0
C742 C 0.7005 0.53103 0.76436 0.0
C743 C 0.62008 0.55225 0.74592 0.0
C744 C 0.63067 0.60551 0.75866 0.0
C745 C 0.65518 0.51543 0.74863 0.0
C746 C 0.71148 0.58529 0.77694 0.0
C747 C 0.68477 0.67526 0.78881 0.0
H748 H 0.16984 0.31857 0.8738 0.0
H749 H 0.26145 0.41478 0.85671 0.0
H750 H 0.12771 0.33491 0.9048 0.0
H751 H 0.28091 0.552 0.90338 0.0
H752 H 0.58459 0.53951 0.7339 0.0
H753 H 0.60243 0.63291 0.75629 0.0
H754 H 0.6471 0.47513 0.73844 0.0
H755 H 0.74844 0.59967 0.78866 0.0
C756 C 1.02406 0.71504 1.01378 0.0
C757 C 1.04165 0.6981 0.04752 0.0
C758 C 1.03163 0.67571 0.02796 0.0
C759 C 1.04863 0.76263 0.05221 0.0
C760 C 1.02672 0.77796 1.01856 0.0
C761 C 1.04115 0.80254 0.03773 0.0
N762 N 1.00844 0.68901 0.99556 0.0
C763 C 0.98956 0.72057 0.98174 0.0
C764 C 1.01237 0.81305 1.00408 0.0
C765 C 0.99226 0.78344 0.98569 0.0
Gd766 Gd 0.9492 0.41602 1.0125 0.0
Gd767 Gd 1.01808 0.59047 0.98875 0.0
N768 N 1.02248 0.61273 1.02291 0.0
C769 C 1.04086 0.6536 0.06192 0.0
C770 C 1.0153 0.56728 0.03726 0.0
C771 C 1.02588 0.5872 0.05679 0.0
H772 H 0.99875 0.51463 0.03402 0.0
H773 H 1.02107 0.55076 0.06792 0.0
H774 H 0.87593 0.29989 0.97568 0.0
H775 H 0.97321 0.69799 0.96752 0.0
H776 H 0.89749 0.21485 0.95862 0.0
H777 H 1.04812 0.66866 0.07709 0.0
H778 H 1.05714 0.78089 0.0671 0.0
H779 H 1.025 0.43884 0.05659 0.0
H780 H 1.01456 0.8618 1.00715 0.0
H781 H 0.97888 0.80899 0.97453 0.0
H782 H 1.07551 0.20852 0.9956 0.0
H783 H 1.04414 0.85109 0.04164 0.0
H784 H 0.13001 0.32177 0.0571 0.0
H785 H 1.0935 0.39625 0.07402 0.0
N786 N 1.02294 0.38865 0.03 0.0
C787 C 1.03856 0.34374 1.02077 0.0
C788 C 1.04029 0.40576 0.04912 0.0
C789 C 0.10009 0.34021 0.04933 0.0
C790 C 1.07911 0.38187 0.05901 0.0
C791 C 1.07942 0.32008 0.0301 0.0
H792 H 0.12634 0.25532 0.02737 0.0
N793 N 0.95861 0.32903 0.9957 0.0
C794 C 1.00733 0.31497 1.00291 0.0
C795 C 0.98102 0.23042 0.97743 0.0
C796 C 1.01927 0.26468 0.99394 0.0
C797 C 0.91683 0.29105 0.98065 0.0
C798 C 0.92884 0.24282 0.97097 0.0
O799 O 0.9067 0.55505 0.99575 0.0
O800 O 0.88697 0.47675 1.02023 0.0
O801 O 0.86204 0.31353 1.01696 0.0
O802 O 0.90551 0.37889 0.04184 0.0
O803 O 0.1144 0.59407 1.00319 0.0
O804 O 1.07094 0.4877 1.01834 0.0
O805 O 0.99752 0.42528 0.98196 0.0
O806 O 1.07748 0.53941 0.97922 0.0
O807 O 0.09808 0.68371 0.97507 0.0
O808 O 1.00863 0.61212 0.95863 0.0
O809 O 0.87442 0.40555 0.98877 0.0
O810 O 0.93809 0.5018 0.96976 0.0
C811 C 0.87002 0.5197 1.01082 0.0
C812 C 0.12471 0.54979 1.01382 0.0
C813 C 0.85956 0.25539 0.04641 0.0
C814 C 0.82029 0.16933 0.07334 0.0
C815 C 0.88456 0.16043 0.04586 0.0
C816 C 0.8851 0.2166 0.03697 0.0
C817 C 0.85362 0.13768 0.06388 0.0
C818 C 0.8263 0.23087 0.06478 0.0
C819 C 0.86262 0.31649 0.03587 0.0
C820 C 1.06534 0.24655 1.0024 0.0
C821 C 1.0946 0.27348 1.02051 0.0
H822 H 0.98909 0.19181 0.97013 0.0
C823 C 1.054 0.47561 0.97406 0.0
C824 C 0.88537 0.43884 0.9722 0.0
C825 C 0.11554 0.65519 0.94293 0.0
C826 C 0.22957 0.67821 0.93244 0.0
C827 C 0.12851 0.59979 0.91393 0.0
C828 C 1.08648 0.61024 0.92702 0.0
C829 C 0.19981 0.63393 0.91651 0.0
C830 C 0.18696 0.68917 0.94536 0.0
C831 C 1.07161 0.66275 0.95779 0.0
H832 H 0.90684 0.13309 0.03844 0.0
H833 H 0.9043 0.22826 1.02239 0.0
H834 H 0.85496 0.09387 0.07019 0.0
H835 H 0.80362 0.25821 0.0719 0.0
H836 H 0.10573 0.56508 0.90175 0.0
H837 H 1.03131 0.58267 0.92476 0.0
H838 H 0.23151 0.62578 0.9061 0.0
H839 H 0.20955 0.72534 0.95726 0.0
C840 C 0.37041 1.00733 0.17545 0.0
C841 C 0.39461 1.02334 0.20988 0.0
C842 C 0.41383 1.01646 0.19076 0.0
C843 C 0.33353 1.0257 0.21302 0.0
C844 C 0.30736 1.00634 0.17861 0.0
C845 C 0.29008 1.0175 0.19738 0.0
N846 N 0.38737 0.99406 0.15767 0.0
C847 C 0.3414 0.97463 0.14268 0.0
C848 C 0.2625 0.99173 0.16291 0.0
C849 C 0.27894 0.97432 0.14497 0.0
Gd850 Gd 0.60064 0.9404 0.1822 0.0
Gd851 Gd 0.49765 1.0059 0.15396 0.0
N852 N 0.47165 1.01231 0.18719 0.0
C853 C 0.43557 1.02428 0.22535 0.0
C854 C 0.50865 1.0085 0.20239 0.0
C855 C 0.49207 1.01531 0.22159 0.0
H856 H 0.54923 0.99748 0.19981 0.0
H857 H 0.5221 1.01231 0.23351 0.0
H858 H 0.65344 0.85727 0.15119 0.0
H859 H 0.35287 0.95994 0.12881 0.0
H860 H 0.76236 0.86156 0.14231 0.0
H861 H 0.42231 1.02876 0.24024 0.0
H862 H 0.31838 1.03162 0.22757 0.0
H863 H 0.63897 1.04759 0.2216 0.0
H864 H 0.2142 0.99167 0.16462 0.0
H865 H 0.24345 0.96046 0.13291 0.0
H866 H 0.92746 1.02343 0.18659 0.0
H867 H 0.24215 1.01745 0.20007 0.0
H868 H 0.85178 0.12689 0.23441 0.0
H869 H 0.73981 0.11836 0.24207 0.0
N870 N 0.69364 1.01847 0.20172 0.0
C871 C 0.75441 1.02006 0.19773 0.0
C872 C 0.68776 1.05152 0.21788 0.0
C873 C 0.80795 0.09639 0.22514 0.0
C874 C 0.7448 0.09164 0.22956 0.0
C875 C 0.81339 1.06016 0.20922 0.0
H876 H 0.92091 0.09132 0.21371 0.0
N877 N 0.69896 0.93512 0.17293 0.0
C878 C 0.75743 0.97873 0.18278 0.0
C879 C 0.82171 0.93778 0.16378 0.0
C880 C 0.82015 0.98004 0.17862 0.0
C881 C 0.69985 0.89224 0.15883 0.0
C882 C 0.76141 0.89401 0.15382 0.0
O883 O 0.42004 0.89619 0.16199 0.0
O884 O 0.47789 0.87503 0.18654 0.0
O885 O 0.62378 0.86458 0.19577 0.0
O886 O 0.55977 0.8978 0.2108 0.0
O887 O 0.58479 0.10438 0.16885 0.0
O888 O 0.65028 1.06257 0.18345 0.0
O889 O 0.64518 0.97866 0.15141 0.0
O890 O 0.60845 1.05691 0.14527 0.0
O891 O 0.48594 0.08556 0.13902 0.0
O892 O 0.47614 0.9973 0.12313 0.0
O893 O 0.55013 0.8658 0.15693 0.0
O894 O 0.50383 0.91885 0.13778 0.0
C895 C 0.41907 0.85894 0.17697 0.0
C896 C 0.64065 0.11572 0.17885 0.0
C897 C 0.63033 0.86865 0.23092 0.0
C898 C 0.68525 0.82709 0.25477 0.0
C899 C 0.6811 0.93227 0.26086 0.0
C900 C 0.64223 0.92169 0.24409 0.0
C901 C 0.70347 0.88613 0.266 0.0
C902 C 0.64974 0.81913 0.23684 0.0
C903 C 0.59297 0.86293 0.2121 0.0
C904 C 0.87909 1.02213 0.18958 0.0
C905 C 0.87547 1.06123 0.20496 0.0
H906 H 0.86904 0.93794 0.16006 0.0
C907 C 0.64929 1.03186 0.14164 0.0
C908 C 0.52124 0.87052 0.14061 0.0
C909 C 0.54006 0.10503 0.10799 0.0
C910 C 0.63176 0.21971 0.09888 0.0
C911 C 0.61089 0.12019 0.07947 0.0
C912 C 0.55743 0.07722 0.09196 0.0
C913 C 0.64747 0.19119 0.08276 0.0
C914 C 0.57741 0.17613 0.11124 0.0
C915 C 0.48617 1.05985 0.12194 0.0
H916 H 0.69106 0.97475 0.27045 0.0
H917 H 0.61991 0.9544 0.24181 0.0
H918 H 0.72952 0.89318 0.2798 0.0
H919 H 0.63465 0.77345 0.2281 0.0
H920 H 0.62377 0.09844 0.06713 0.0
H921 H 0.52994 1.02231 0.08911 0.0
H922 H 0.68738 0.22373 0.07264 0.0
H923 H 0.56282 0.19788 0.12324 0.0
C924 C 0.45379 0.35366 0.34821 0.0
C925 C 0.47388 0.38985 0.38181 0.0
C926 C 0.49434 0.40069 0.36207 0.0
C927 C 0.41002 0.33364 0.38703 0.0
C928 C 0.39178 0.29441 0.35356 0.0
C929 C 0.36904 0.28586 0.37291 0.0
N930 N 0.47807 0.36261 0.32979 0.0
C931 C 0.44554 0.31138 0.31633 0.0
C932 C 0.35593 0.24412 0.33947 0.0
C933 C 0.38372 0.25203 0.32087 0.0
Gd934 Gd 0.75381 0.57889 0.34437 0.0
Gd935 Gd 0.57635 0.46882 0.32218 0.0
N936 N 0.55681 0.45294 0.35652 0.0
C937 C 0.51966 0.4336 0.39585 0.0
C938 C 0.60357 0.49106 0.37053 0.0
C939 C 0.58549 0.48338 0.3902 0.0
H940 H 0.65582 0.52608 0.36692 0.0
H941 H 0.62296 0.51506 0.40102 0.0
H942 H 0.86738 0.61259 0.30728 0.0
H943 H 0.46667 0.31576 0.30196 0.0
H944 H 0.94975 0.71387 0.28838 0.0
H945 H 0.50604 0.42698 0.41113 0.0
H946 H 0.39324 0.32509 0.40206 0.0
H947 H 0.73936 0.64264 0.38786 0.0
H948 H 0.30813 0.19803 0.34301 0.0
H949 H 0.35768 0.21237 0.31001 0.0
H950 H 0.95259 0.90521 0.32098 0.0
H951 H 0.32116 0.24117 0.37723 0.0
H952 H 0.84542 0.86217 0.38326 0.0
H953 H 0.77903 0.75697 0.40274 0.0
N954 N 0.78255 0.68335 0.36007 0.0
C955 C 0.82392 0.74094 0.34952 0.0
C956 C 0.76925 0.68856 0.37928 0.0
C957 C 0.82809 0.81242 0.37658 0.0
C958 C 0.7912 0.75309 0.38771 0.0
C959 C 0.84619 0.8071 0.35742 0.0
H960 H 0.90698 0.91692 0.35237 0.0
N961 N 0.83878 0.67037 0.32609 0.0
C962 C 0.85203 0.73426 0.33196 0.0
C963 C 0.93357 0.78566 0.30555 0.0
C964 C 0.90003 0.79361 0.32177 0.0
C965 C 0.87547 0.66289 0.3112 0.0
C966 C 0.92223 0.72019 0.30048 0.0
O967 O 0.61512 0.39553 0.32917 0.0
O968 O 0.69769 0.45733 0.35232 0.0
O969 O 0.85741 0.59657 0.34933 0.0
O970 O 0.78929 0.57231 0.37384 0.0
O971 O 0.57256 0.56219 0.33632 0.0
O972 O 0.67845 0.62376 0.35168 0.0
O973 O 0.74072 0.61943 0.31424 0.0
O974 O 0.62439 0.57722 0.31252 0.0
O975 O 0.48443 0.45873 0.30794 0.0
O976 O 0.55262 0.43141 0.2927 0.0
O977 O 0.76219 0.5111 0.32147 0.0
O978 O 0.66568 0.48024 0.30278 0.0
C979 C 0.6535 0.39671 0.34377 0.0
C980 C 0.61621 0.61546 0.34726 0.0
C981 C 0.91104 0.64903 0.37932 0.0
C982 C 0.99649 0.69169 0.40613 0.0
C983 C 0.99953 0.76987 0.38096 0.0
C984 C 0.94534 0.71556 0.37134 0.0
C985 C 1.02434 0.75842 0.39825 0.0
C986 C 0.93749 0.63707 0.39685 0.0
C987 C 0.85241 0.59238 0.36822 0.0
C988 C 0.91641 0.85917 0.32873 0.0
C989 C 0.89012 0.86589 0.34659 0.0
H990 H 0.97059 0.83003 0.29736 0.0
C991 C 0.68656 0.62085 0.30686 0.0
C992 C 0.72869 0.48965 0.30501 0.0
C993 C 0.51329 0.49518 0.27494 0.0
C994 C 0.49029 0.58192 0.26062 0.0
C995 C 0.57214 0.55513 0.24526 0.0
C996 C 0.56007 0.50641 0.25971 0.0
C997 C 0.5371 0.59258 0.24561 0.0
C998 C 0.47841 0.53298 0.27515 0.0
C999 C 0.50396 0.44726 0.29105 0.0
H1000 H 1.02369 0.82106 0.3747 0.0
H1001 H 0.93175 0.72583 0.35731 0.0
H1002 H 1.06669 0.80232 0.40523 0.0
H1003 H 0.91388 0.58543 0.40273 0.0
H1004 H 0.60836 0.56346 0.23369 0.0
H1005 H 0.5877 0.47787 0.25898 0.0
H1006 H 0.54603 0.62936 0.23414 0.0
H1007 H 0.441 0.52356 0.28651 0.0
C1008 C 0.1251 0.64924 0.26817 0.0
C1009 C 0.10101 0.67297 0.25261 0.0
H1010 H 0.19957 0.67439 0.29097 0.0
C1011 C 0.12873 0.74442 0.25052 0.0
H1012 H 0.1042 0.59447 0.27038 0.0
C1013 C 0.18328 0.79055 0.26254 0.0
C1014 C 0.21192 0.76662 0.27695 0.0
H1015 H 0.11218 0.76475 0.23868 0.0
H1016 H 0.20597 0.84525 0.25972 0.0
C1017 C 0.17953 0.69519 0.28017 0.0
C1018 C 0.51964 0.16096 0.4384 0.0
C1019 C 0.48051 0.12174 0.45439 0.0
H1020 H 0.55583 0.16059 0.40941 0.0
C1021 C 0.44426 1.04888 0.45206 0.0
H1022 H 0.54846 0.21662 0.43927 0.0
C1023 C 0.44592 1.01689 0.43456 0.0
C1024 C 0.48584 1.05619 0.41886 0.0
H1025 H 0.41598 1.01544 0.46403 0.0
H1026 H 0.41924 0.96111 0.43375 0.0
C1027 C 0.52292 0.12866 0.42107 0.0
C1028 C 0.38355 0.44809 0.59359 0.0
C1029 C 0.40357 0.4593 0.61332 0.0
H1030 H 0.41198 0.43953 0.56404 0.0
C1031 C 0.46746 0.46572 0.61823 0.0
H1032 H 0.33317 0.43964 0.58943 0.0
C1033 C 0.51151 0.4641 0.60393 0.0
C1034 C 0.49291 0.45479 0.58413 0.0
H1035 H 0.48276 0.47037 0.63334 0.0
H1036 H 0.5607 0.47016 0.60847 0.0
C1037 C 0.42794 0.4463 0.57911 0.0
C1038 C 1.02245 0.42955 0.75531 0.0
C1039 C 1.09468 0.46131 0.75295 0.0
H1040 H 0.93406 0.36735 0.77327 0.0
C1041 C 0.13321 0.45532 0.76811 0.0
H1042 H 0.99117 0.43423 0.74403 0.0
C1043 C 0.10073 0.41964 0.78524 0.0
C1044 C 1.02813 0.38631 0.78762 0.0
H1045 H 0.18887 0.48092 0.76712 0.0
H1046 H 0.13334 0.41952 0.79684 0.0
C1047 C 0.98959 0.39185 0.77225 0.0
C1048 C 0.74151 0.11064 0.93525 0.0
C1049 C 0.69891 0.0717 0.91993 0.0
H1050 H 0.77516 0.11157 0.96426 0.0
C1051 C 0.66016 0.99939 0.92226 0.0
H1052 H 0.77007 0.16638 0.93429 0.0
C1053 C 0.66463 0.96683 0.93935 0.0
C1054 C 0.70662 1.00575 0.95493 0.0
H1055 H 0.6256 0.9678 0.91084 0.0
H1056 H 0.63476 0.91124 0.94034 0.0
C1057 C 0.74432 0.07847 0.95254 0.0
C1058 C 0.77073 0.64628 0.10429 0.0
C1059 C 0.77509 0.68935 0.11984 0.0
H1060 H 0.72678 0.60483 0.07632 0.0
C1061 C 0.73767 0.72531 0.11823 0.0
H1062 H 0.79809 0.61743 0.10484 0.0
C1063 C 0.69969 0.72081 0.10153 0.0
C1064 C 0.69529 0.67776 0.08615 0.0
H1065 H 0.73624 0.75607 0.13016 0.0
H1066 H 0.67099 0.7484 0.10109 0.0
C1067 C 0.73059 0.63988 0.0878 0.0
C1068 C 0.46167 0.98985 0.62038 0.0
C1069 C 0.49371 1.06213 0.62254 0.0
H1070 H 0.39895 0.90117 0.60269 0.0
C1071 C 0.48725 0.10058 0.60744 0.0
H1072 H 0.46652 0.95871 0.63169 0.0
C1073 C 0.45107 0.06795 0.59046 0.0
C1074 C 0.41769 0.99524 0.58822 0.0
H1075 H 0.51288 0.15631 0.60835 0.0
H1076 H 0.45092 0.10067 0.57887 0.0
C1077 C 0.42347 0.95678 0.6036 0.0
C1078 C 0.43519 0.40714 0.75947 0.0
C1079 C 0.47727 0.37608 0.7576 0.0
H1080 H 0.40749 0.47141 0.77631 0.0
C1081 C 0.52552 0.38879 0.77239 0.0
H1082 H 0.39897 0.40109 0.74818 0.0
C1083 C 0.53138 0.43096 0.78837 0.0
C1084 C 0.48829 0.46059 0.79029 0.0
H1085 H 0.55874 0.36615 0.77169 0.0
H1086 H 0.57012 0.44065 0.79927 0.0
C1087 C 0.43986 0.44776 0.77566 0.0
C1088 C 0.1628 0.50678 0.9553 0.0
C1089 C 1.09104 0.46366 0.95766 0.0
H1090 H 0.25285 0.5348 0.9378 0.0
C1091 C 1.05496 0.41583 0.94299 0.0
H1092 H 0.19217 0.54514 0.96622 0.0
C1093 C 1.08936 0.41184 0.92632 0.0
C1094 C 0.16161 0.45399 0.92395 0.0
H1095 H 0.99959 0.38347 0.94399 0.0
H1096 H 1.05841 0.37603 0.91507 0.0
C1097 C 0.19768 0.50153 0.93883 0.0
C1098 C 0.70966 1.02924 0.11086 0.0
C1099 C 0.70011 0.06704 0.12561 0.0
H1100 H 0.74964 1.02994 0.08266 0.0
C1101 C 0.73041 0.13919 0.12319 0.0
H1102 H 0.68504 0.97358 0.11185 0.0
C1103 C 0.76957 0.17268 0.10655 0.0
C1104 C 0.77846 0.13492 0.09149 0.0
H1105 H 0.72287 0.1699 0.13414 0.0
H1106 H 0.79237 0.2281 0.10549 0.0
C1107 C 0.74714 1.06233 0.094 0.0
C1108 C 0.75026 0.71871 0.28176 0.0
C1109 C 0.6908 0.67378 0.2924 0.0
H1110 H 0.79576 0.80267 0.26103 0.0
C1111 C 0.63048 0.67802 0.28899 0.0
H1112 H 0.79771 0.71755 0.2839 0.0
C1113 C 0.62884 0.72408 0.27558 0.0
C1114 C 0.68725 0.76874 0.26496 0.0
H1115 H 0.58361 0.64633 0.29702 0.0
H1116 H 0.58217 0.72733 0.27419 0.0
C1117 C 0.74872 0.7665 0.26836 0.0
C1118 C 0.13889 0.71643 0.44189 0.0
C1119 C 0.10242 0.66832 0.45645 0.0
H1120 H 0.1354 0.75773 0.41426 0.0
C1121 C 1.03045 0.62664 0.45436 0.0
H1122 H 0.19442 0.74767 0.44271 0.0
C1123 C 0.99567 0.63366 0.43821 0.0
C1124 C 1.03217 0.6815 0.42344 0.0
H1125 H 1.00089 0.58816 0.46524 0.0
H1126 H 0.94031 0.60158 0.43733 0.0
C1127 C 0.10453 0.72207 0.42552 0.0
C1128 C 0.55391 0.68803 0.34113 0.0
C1129 C 0.59798 0.67291 0.35265 0.0
H1130 H 0.50732 0.75269 0.33606 0.0
C1131 C 0.62633 0.71589 0.36907 0.0
H1132 H 0.53008 0.65726 0.32832 0.0
C1133 C 0.61345 0.77119 0.37352 0.0
C1134 C 0.57053 0.78748 0.36194 0.0
H1135 H 0.65775 0.70592 0.37896 0.0
H1136 H 0.63771 0.80148 0.38638 0.0
C1137 C 0.54075 0.74376 0.34559 0.0
C1138 C 0.8633 0.48885 0.51399 0.0
C1139 C 0.84902 0.53361 0.52544 0.0
H1140 H 0.93952 0.46636 0.50122 0.0
C1141 C 0.90896 0.59384 0.53203 0.0
H1142 H 0.82072 0.44166 0.50843 0.0
C1143 C 0.97763 0.60858 0.52764 0.0
C1144 C 0.99252 0.56359 0.51672 0.0
H1145 H 0.90324 0.63109 0.54074 0.0
H1146 H 1.01948 0.65618 0.53294 0.0
C1147 C 0.93276 0.50317 0.5099 0.0
C1148 C 0.44064 0.93344 0.70108 0.0
C1149 C 0.48508 0.94847 0.68492 0.0
H1150 H 0.3546 0.85947 0.71801 0.0
C1151 C 0.47164 0.88944 0.67351 0.0
H1152 H 0.44903 0.97437 0.71096 0.0
C1153 C 0.41657 0.82069 0.67779 0.0
C1154 C 0.37133 0.80632 0.69388 0.0
H1155 H 0.50346 0.89644 0.66089 0.0
H1156 H 0.40937 0.77883 0.66832 0.0
C1157 C 0.38587 0.86544 0.70533 0.0
C1158 C 0.56296 0.41115 0.86687 0.0
C1159 C 0.59399 0.45752 0.85125 0.0
H1160 H 0.55113 0.32425 0.88356 0.0
C1161 C 0.64185 0.44578 0.8403 0.0
H1162 H 0.52781 0.41749 0.87621 0.0
C1163 C 0.65657 0.39081 0.84461 0.0
C1164 C 0.62479 0.34427 0.86033 0.0
H1165 H 0.66779 0.47897 0.82806 0.0
H1166 H 0.69329 0.38513 0.83558 0.0
C1167 C 0.57761 0.35685 0.87125 0.0
C1168 C 0.21659 0.52664 0.03096 0.0
C1169 C 0.20093 0.56819 1.01876 0.0
H1170 H 0.29196 0.50777 0.04509 0.0
C1171 C 0.26027 0.62641 1.01079 0.0
H1172 H 0.17517 0.48113 0.03729 0.0
C1173 C 0.32996 0.64182 1.01496 0.0
C1174 C 0.34495 0.60052 0.02764 0.0
H1175 H 0.25302 0.66052 1.00108 0.0
H1176 H 0.37217 0.68711 1.00844 0.0
C1177 C 0.28552 0.54243 0.0354 0.0
C1178 C 0.818 0.27261 0.1947 0.0
C1179 C 0.8133 0.33309 0.19125 0.0
H1180 H 0.77342 0.1625 0.19298 0.0
C1181 C 0.74974 0.32061 0.18298 0.0
H1182 H 0.86479 0.27731 0.20071 0.0
C1183 C 0.69425 0.25172 0.17907 0.0
C1184 C 0.69925 0.19135 0.18303 0.0
H1185 H 0.7419 0.36395 0.17996 0.0
H1186 H 0.64696 0.24592 0.17298 0.0
C1187 C 0.7638 0.20482 0.19048 0.0
C1188 C 0.38779 0.54089 0.50618 0.0
C1189 C 0.38032 0.5942 0.51538 0.0
H1190 H 0.44235 0.48382 0.50324 0.0
C1191 C 0.43076 0.63128 0.52983 0.0
H1192 H 0.3515 0.50977 0.49505 0.0
C1193 C 0.48512 0.61615 0.53446 0.0
C1194 C 0.49216 0.56268 0.5251 0.0
H1195 H 0.42881 0.67271 0.53753 0.0
H1196 H 0.52178 0.6465 0.54559 0.0
C1197 C 0.44121 0.52554 0.51091 0.0
C1198 C 0.84923 0.40143 0.69161 0.0
C1199 C 0.83658 0.3379 0.68314 0.0
H1200 H 0.92374 0.50386 0.70195 0.0
C1201 C 0.89703 0.33335 0.67949 0.0
H1202 H 0.80597 0.40915 0.69485 0.0
C1203 C 0.9648 0.38776 0.68377 0.0
C1204 C 0.97851 0.45208 0.69154 0.0
H1205 H 0.89222 0.2864 0.67334 0.0
H1206 H 1.00697 0.37854 0.68121 0.0
C1207 C 0.91807 0.45684 0.69561 0.0
C1208 C 0.62773 0.94132 0.84435 0.0
C1209 C 0.58903 0.95622 0.8579 0.0
H1210 H 0.64544 0.86683 0.8292 0.0
C1211 C 0.53392 0.89661 0.86681 0.0
H1212 H 0.67023 0.98323 0.83697 0.0
C1213 C 0.51901 0.82715 0.86238 0.0
C1214 C 0.55799 0.8128 0.8486 0.0
H1215 H 0.50214 0.90352 0.8775 0.0
H1216 H 0.47638 0.78463 0.86973 0.0
C1217 C 0.61277 0.87265 0.83982 0.0
C1218 C 0.75318 0.60684 1.01335 0.0
C1219 C 0.69738 0.56569 0.02581 0.0
H1220 H 0.84712 0.62609 0.99919 0.0
C1221 C 0.70005 0.50797 0.03394 0.0
H1222 H 0.75565 0.65177 1.00675 0.0
C1223 C 0.7548 0.49277 0.02974 0.0
C1224 C 0.81012 0.53403 1.01695 0.0
H1225 H 0.65962 0.47419 0.04379 0.0
H1226 H 0.7531 0.44798 0.03641 0.0
C1227 C 0.80697 0.59151 1.009 0.0
C1228 C 0.33387 0.73766 0.19298 0.0
C1229 C 0.34642 0.79906 0.18321 0.0
H1230 H 0.25953 0.63701 0.20441 0.0
C1231 C 0.28593 0.802 0.17839 0.0
H1232 H 0.37725 0.73138 0.19716 0.0
C1233 C 0.21808 0.748 0.18287 0.0
C1234 C 0.20463 0.68562 0.19197 0.0
H1235 H 0.29076 0.8473 0.17115 0.0
H1236 H 0.17567 0.75589 0.17921 0.0
C1237 C 0.26511 0.68247 0.19708 0.0
C1238 C 0.57751 0.26449 0.34561 0.0
C1239 C 0.64068 0.3242 0.35046 0.0
H1240 H 0.51295 0.15439 0.34626 0.0
C1241 C 0.68865 0.3105 0.36031 0.0
H1242 H 0.53762 0.27023 0.33834 0.0
C1243 C 0.67435 0.24116 0.3645 0.0
C1244 C 0.61118 0.18162 0.3592 0.0
H1245 H 0.73802 0.35324 0.36449 0.0
H1246 H 0.71334 0.23434 0.37193 0.0
C1247 C 0.56312 0.19619 0.35 0.0
C1248 C 0.32464 0.71269 0.4331 0.0
C1249 C 0.34959 0.72911 0.45232 0.0
H1250 H 0.34098 0.74057 0.40277 0.0
C1251 C 0.41513 0.78743 0.45495 0.0
H1252 H 0.27413 0.66907 0.43037 0.0
C1253 C 0.45401 0.82801 0.43906 0.0
C1254 C 0.42845 0.8128 0.41987 0.0
H1255 H 0.43625 0.80248 0.46944 0.0
H1256 H 0.50348 0.8729 0.44195 0.0
C1257 C 0.36305 0.75414 0.41719 0.0
C1258 C 0.69401 0.41759 0.60743 0.0
C1259 C 0.68147 0.39045 0.58838 0.0
H1260 H 0.70112 0.40003 0.63792 0.0
C1261 C 0.67039 0.32282 0.58597 0.0
H1262 H 0.70186 0.46892 0.61006 0.0
C1263 C 0.6712 0.28365 0.60199 0.0
C1264 C 0.68162 0.31001 0.6211 0.0
H1265 H 0.66007 0.29954 0.57166 0.0
H1266 H 0.6609 0.23143 0.59945 0.0
C1267 C 0.69339 0.37786 0.62351 0.0
C1268 C 0.44512 0.64902 0.76759 0.0
C1269 C 0.42402 0.65046 0.78686 0.0
H1270 H 0.4223 0.64432 0.73707 0.0
C1271 C 0.3621 0.65237 0.78941 0.0
H1272 H 0.49179 0.6467 0.76486 0.0
C1273 C 0.32222 0.65154 0.77336 0.0
C1274 C 0.34224 0.64795 0.75411 0.0
H1275 H 0.34349 0.65311 0.80391 0.0
H1276 H 0.27426 0.65133 0.77611 0.0
C1277 C 0.40483 0.64738 0.75155 0.0
C1278 C 0.82601 0.37857 0.91977 0.0
C1279 C 0.76116 0.31908 0.92234 0.0
H1280 H 0.91472 0.46314 0.93304 0.0
C1281 C 0.73608 0.30195 0.94154 0.0
H1282 H 0.84769 0.3936 0.90533 0.0
C1283 C 0.77528 0.34152 0.95756 0.0
C1284 C 0.84048 0.40055 0.95499 0.0
H1285 H 0.68707 0.25627 0.94431 0.0
H1286 H 0.7548 0.32508 0.97206 0.0
C1287 C 0.86459 0.41889 0.93576 0.0
C1288 C 0.51116 0.84375 0.10436 0.0
C1289 C 0.51456 0.82395 0.12365 0.0
H1290 H 0.51004 0.82245 0.07379 0.0
C1291 C 0.51579 0.76166 0.12621 0.0
H1292 H 0.51107 0.89156 0.10157 0.0
C1293 C 0.51378 0.72095 0.11012 0.0
C1294 C 0.51208 0.74177 0.09082 0.0
H1295 H 0.51892 0.7445 0.14071 0.0
H1296 H 0.51604 0.6742 0.11281 0.0
C1297 C 0.51074 0.80395 0.08829 0.0
C1298 C 0.82819 0.47985 0.29009 0.0
C1299 C 0.76633 0.48202 0.28776 0.0
H1300 H 0.9158 0.48125 0.2764 0.0
C1301 C 0.74423 0.48282 0.26866 0.0
H1302 H 0.84726 0.47925 0.30452 0.0
C1303 C 0.78386 0.48434 0.2525 0.0
C1304 C 0.84684 0.4845 0.25482 0.0
H1305 H 0.69749 0.48503 0.26614 0.0
H1306 H 0.76576 0.48718 0.23811 0.0
C1307 C 0.86761 0.48075 0.2739 0.0
C1308 C 0.83592 0.37391 0.4211 0.0
C1309 C 0.87984 0.40771 0.43679 0.0
H1310 H 0.74274 0.28575 0.41197 0.0
C1311 C 0.85405 0.38942 0.45583 0.0
H1312 H 0.8533 0.38769 0.40623 0.0
C1313 C 0.79197 0.32923 0.45912 0.0
C1314 C 0.75428 0.2881 0.44333 0.0
H1315 H 0.88558 0.41688 0.46822 0.0
H1316 H 0.77835 0.31116 0.47393 0.0
C1317 C 0.77278 0.31492 0.4244 0.0
C1318 C 0.51981 0.81198 0.58097 0.0
C1319 C 0.52395 0.85279 0.597 0.0
H1320 H 0.52045 0.72115 0.57147 0.0
C1321 C 0.50909 0.82267 0.61557 0.0
H1322 H 0.52818 0.83241 0.56633 0.0
C1323 C 0.50923 0.76096 0.61867 0.0
C1324 C 0.52106 0.7275 0.60299 0.0
H1325 H 0.5079 0.85163 0.62809 0.0
H1326 H 0.50941 0.74542 0.63355 0.0
C1327 C 0.5167 0.74858 0.58398 0.0
C1328 C 0.7623 0.48848 0.78553 0.0
C1329 C 0.7435 0.49785 0.76675 0.0
H1330 H 0.84283 0.49348 0.80327 0.0
C1331 C 0.77954 0.49238 0.75073 0.0
H1332 H 0.73333 0.48916 0.7981 0.0
C1333 C 0.84107 0.49171 0.75366 0.0
C1334 C 0.86791 0.49891 0.77256 0.0
H1335 H 0.76532 0.49738 0.73602 0.0
H1336 H 0.8716 0.49437 0.74108 0.0
C1337 C 0.82491 0.4902 0.78849 0.0
C1338 C 0.3947 0.79793 0.95671 0.0
C1339 C 0.42966 0.84102 0.94093 0.0
H1340 H 0.30373 0.70792 0.96613 0.0
C1341 C 0.40904 0.81562 0.92194 0.0
H1342 H 0.40983 0.81463 0.97156 0.0
C1343 C 0.34635 0.75583 0.91887 0.0
C1344 C 0.30507 0.71987 0.93483 0.0
H1345 H 0.43716 0.84598 0.90944 0.0
H1346 H 0.32701 0.7429 0.90416 0.0
C1347 C 0.33327 0.73694 0.95362 0.0
C1348 C 0.67328 0.32176 0.12082 0.0
C1349 C 0.66453 0.29514 0.10184 0.0
H1350 H 0.66872 0.39691 0.13905 0.0
C1351 C 0.67077 0.33788 0.0861 0.0
H1352 H 0.67196 0.29108 0.1332 0.0
C1353 C 0.67191 0.40016 0.08946 0.0
C1354 C 0.66466 0.41893 0.1085 0.0
H1355 H 0.6661 0.31983 0.07126 0.0
H1356 H 0.66966 0.42906 0.0771 0.0
C1357 C 0.67224 0.38296 0.12418 0.0
C1358 C 0.40304 0.60078 0.24416 0.0
C1359 C 0.44621 0.61391 0.26014 0.0
H1360 H 0.30529 0.57887 0.23443 0.0
C1361 C 0.43325 0.63993 0.27726 0.0
H1362 H 0.41315 0.58271 0.23056 0.0
C1363 C 0.37084 0.63939 0.27957 0.0
C1364 C 0.31926 0.60847 0.26527 0.0
H1365 H 0.46763 0.65322 0.28959 0.0
H1366 H 0.36078 0.6555 0.29344 0.0
C1367 C 0.33987 0.59811 0.24664 0.0
loop_
_geom_bond_atom_site_label_1
_geom_bond_atom_site_label_2
_geom_bond_distance
_geom_bond_site_symmetry_2
_ccdc_geom_bond_type
C0 C2 1.422 . S
C0 C4 1.415 . S
C0 N6 1.369 . S
C1 C2 1.421 . S
C1 C3 1.417 . S
C1 C13 1.422 1_565 S
C2 C0 1.422 . S
C2 C1 1.421 . S
C2 N12 1.359 1_565 S
C3 C1 1.417 . S
C3 C5 1.329 . S
C3 H22 0.930 . S
C4 C0 1.415 . S
C4 C5 1.437 . S
C4 C8 1.413 . S
C5 C3 1.329 . S
C5 C4 1.437 . S
C5 H27 0.929 . S
N6 C0 1.369 . S
N6 C7 1.338 . S
N6 Gd11 2.622 1_565 S
C7 N6 1.338 . S
C7 C9 1.378 . S
C7 H19 0.929 . S
C8 C4 1.413 . S
C8 C9 1.348 . S
C8 H24 0.931 . S
C9 C7 1.378 . S
C9 C8 1.348 . S
C9 H25 0.930 . S
Gd10 N30 2.622 1_565 S
Gd10 N37 2.570 . S
Gd10 O44 2.353 . S
Gd10 O45 2.468 . S
Gd10 O46 2.427 . S
Gd10 O48 2.388 1_565 S
Gd10 O49 2.386 1_565 S
Gd10 O53 2.307 . S
Gd10 C63 2.805 . S
Gd11 N6 2.622 1_545 S
Gd11 N12 2.570 . S
Gd11 O43 2.386 1_545 S
Gd11 O47 2.307 . S
Gd11 O50 2.353 . S
Gd11 O51 2.468 . S
Gd11 O52 2.427 . S
Gd11 O54 2.388 1_545 S
Gd11 C75 2.805 . S
N12 C2 1.359 1_545 S
N12 Gd11 2.570 . S
N12 C14 1.343 . S
C13 C1 1.422 1_545 S
C13 C15 1.321 . S
C13 H21 0.931 . S
C14 N12 1.343 . S
C14 C15 1.390 . S
C14 H16 0.931 . S
C15 C13 1.321 . S
C15 C14 1.390 . S
C15 H17 0.930 . S
H16 C14 0.931 . S
H17 C15 0.930 . S
H18 C41 0.931 . S
H19 C7 0.929 . S
H20 C42 0.930 . S
H21 C13 0.931 . S
H22 C3 0.930 . S
H23 C32 0.929 . S
H24 C8 0.931 . S
H25 C9 0.930 . S
H26 C64 0.930 . S
H27 C5 0.929 . S
H28 C33 0.931 . S
H29 C34 0.930 . S
N30 Gd10 2.622 1_545 S
N30 C31 1.369 . S
N30 C32 1.338 . S
C31 N30 1.369 . S
C31 C35 1.415 . S
C31 C38 1.422 . S
C32 H23 0.929 . S
C32 N30 1.338 . S
C32 C34 1.378 . S
C33 H28 0.931 . S
C33 C34 1.348 . S
C33 C35 1.413 . S
C34 H29 0.930 . S
C34 C32 1.378 . S
C34 C33 1.348 . S
C35 C31 1.415 . S
C35 C33 1.413 . S
C35 C65 1.437 . S
H36 C65 0.929 . S
N37 Gd10 2.570 . S
N37 C38 1.359 1_565 S
N37 C41 1.343 . S
C38 C31 1.422 . S
C38 N37 1.359 1_545 S
C38 C40 1.421 . S
C39 C40 1.422 1_565 S
C39 C42 1.321 . S
C39 H66 0.931 . S
C40 C38 1.421 . S
C40 C39 1.422 1_545 S
C40 C64 1.417 . S
C41 H18 0.931 . S
C41 N37 1.343 . S
C41 C42 1.390 . S
C42 H20 0.930 . S
C42 C39 1.321 . S
C42 C41 1.390 . S
O43 Gd11 2.386 1_565 S
O43 C55 1.265 . S
O44 Gd10 2.353 . S
O44 C55 1.242 . S
O45 Gd10 2.468 . S
O45 C63 1.263 . S
O46 Gd10 2.427 . S
O46 C63 1.252 . S
O47 Gd11 2.307 . S
O47 C56 1.261 . S
O48 Gd10 2.388 1_545 S
O48 C56 1.252 . S
O49 Gd10 2.386 1_545 S
O49 C67 1.265 . S
O50 Gd11 2.353 . S
O50 C67 1.242 . S
O51 Gd11 2.468 . S
O51 C75 1.263 . S
O52 Gd11 2.427 . S
O52 C75 1.252 . S
O53 Gd10 2.307 . S
O53 C68 1.261 . S
O54 Gd11 2.388 1_565 S
O54 C68 1.252 . S
C55 O43 1.265 . S
C55 O44 1.242 . S
C56 O47 1.261 . S
C56 O48 1.252 . S
C57 C60 1.394 . S
C57 C62 1.370 . S
C57 C63 1.500 . S
C58 C61 1.383 . S
C58 C62 1.395 . S
C59 C60 1.396 . S
C59 C61 1.365 . S
C59 H76 0.929 . S
C60 C57 1.394 . S
C60 C59 1.396 . S
C60 H77 0.930 . S
C61 C58 1.383 . S
C61 C59 1.365 . S
C61 H78 0.931 . S
C62 C57 1.370 . S
C62 C58 1.395 . S
C62 H79 0.930 . S
C63 Gd10 2.805 . S
C63 O45 1.263 . S
C63 O46 1.252 . S
C63 C57 1.500 . S
C64 H26 0.930 . S
C64 C40 1.417 . S
C64 C65 1.329 . S
C65 C35 1.437 . S
C65 H36 0.929 . S
C65 C64 1.329 . S
H66 C39 0.931 . S
C67 O49 1.265 . S
C67 O50 1.242 . S
C68 O53 1.261 . S
C68 O54 1.252 . S
C69 C72 1.394 . S
C69 C74 1.370 . S
C69 C75 1.500 . S
C70 C73 1.383 . S
C70 C74 1.395 . S
C71 C72 1.396 . S
C71 C73 1.365 . S
C71 H80 0.929 . S
C72 C69 1.394 . S
C72 C71 1.396 . S
C72 H81 0.930 . S
C73 C70 1.383 . S
C73 C71 1.365 . S
C73 H82 0.931 . S
C74 C69 1.370 . S
C74 C70 1.395 . S
C74 H83 0.930 . S
C75 Gd11 2.805 . S
C75 O51 1.263 . S
C75 O52 1.252 . S
C75 C69 1.500 . S
H76 C59 0.929 . S
H77 C60 0.930 . S
H78 C61 0.931 . S
H79 C62 0.930 . S
H80 C71 0.929 . S
H81 C72 0.930 . S
H82 C73 0.931 . S
H83 C74 0.930 . S
C84 C86 1.422 . S
C84 C88 1.415 . S
C84 N90 1.369 . S
C85 C86 1.421 . S
C85 C87 1.417 . S
C85 C97 1.422 . S
C86 C84 1.422 . S
C86 C85 1.421 . S
C86 N96 1.359 . S
C87 C85 1.417 . S
C87 C89 1.329 . S
C87 H106 0.930 . S
C88 C84 1.415 . S
C88 C89 1.437 . S
C88 C92 1.413 . S
C89 C87 1.329 . S
C89 C88 1.437 . S
C89 H111 0.929 . S
N90 C84 1.369 . S
N90 C91 1.338 . S
N90 Gd95 2.622 . S
C91 N90 1.338 . S
C91 C93 1.378 . S
C91 H103 0.929 . S
C92 C88 1.413 . S
C92 C93 1.348 . S
C92 H108 0.931 . S
C93 C91 1.378 . S
C93 C92 1.348 . S
C93 H109 0.930 . S
Gd94 N114 2.622 . S
Gd94 N121 2.570 . S
Gd94 O128 2.353 . S
Gd94 O129 2.468 . S
Gd94 O130 2.427 . S
Gd94 O132 2.388 . S
Gd94 O133 2.386 . S
Gd94 O137 2.307 . S
Gd94 C147 2.805 . S
Gd95 N90 2.622 . S
Gd95 N96 2.570 . S
Gd95 O127 2.386 . S
Gd95 O131 2.307 . S
Gd95 O134 2.353 . S
Gd95 O135 2.468 . S
Gd95 O136 2.427 . S
Gd95 O138 2.388 . S
Gd95 C159 2.805 . S
N96 C86 1.359 . S
N96 Gd95 2.570 . S
N96 C98 1.343 . S
C97 C85 1.422 . S
C97 C99 1.321 . S
C97 H105 0.931 . S
C98 N96 1.343 . S
C98 C99 1.390 . S
C98 H100 0.931 . S
C99 C97 1.321 . S
C99 C98 1.390 . S
C99 H101 0.930 . S
H100 C98 0.931 . S
H101 C99 0.930 . S
H102 C125 0.931 . S
H103 C91 0.929 . S
H104 C126 0.930 . S
H105 C97 0.931 . S
H106 C87 0.930 . S
H107 C116 0.929 . S
H108 C92 0.931 . S
H109 C93 0.930 . S
H110 C148 0.930 . S
H111 C89 0.929 . S
H112 C117 0.931 . S
H113 C118 0.930 . S
N114 Gd94 2.622 . S
N114 C115 1.369 . S
N114 C116 1.338 . S
C115 N114 1.369 . S
C115 C119 1.415 . S
C115 C122 1.422 . S
C116 H107 0.929 . S
C116 N114 1.338 . S
C116 C118 1.378 . S
C117 H112 0.931 . S
C117 C118 1.348 . S
C117 C119 1.413 . S
C118 H113 0.930 . S
C118 C116 1.378 . S
C118 C117 1.348 . S
C119 C115 1.415 . S
C119 C117 1.413 . S
C119 C149 1.437 . S
H120 C149 0.929 . S
N121 Gd94 2.570 . S
N121 C122 1.359 . S
N121 C125 1.343 . S
C122 C115 1.422 . S
C122 N121 1.359 . S
C122 C124 1.421 . S
C123 C124 1.422 . S
C123 C126 1.321 . S
C123 H150 0.931 . S
C124 C122 1.421 . S
C124 C123 1.422 . S
C124 C148 1.417 . S
C125 H102 0.931 . S
C125 N121 1.343 . S
C125 C126 1.390 . S
C126 H104 0.930 . S
C126 C123 1.321 . S
C126 C125 1.390 . S
O127 Gd95 2.386 . S
O127 C139 1.265 . S
O128 Gd94 2.353 . S
O128 C139 1.242 . S
O129 Gd94 2.468 . S
O129 C147 1.263 . S
O130 Gd94 2.427 . S
O130 C147 1.252 . S
O131 Gd95 2.307 . S
O131 C140 1.261 . S
O132 Gd94 2.388 . S
O132 C140 1.252 . S
O133 Gd94 2.386 . S
O133 C151 1.265 . S
O134 Gd95 2.353 . S
O134 C151 1.242 . S
O135 Gd95 2.468 . S
O135 C159 1.263 . S
O136 Gd95 2.427 . S
O136 C159 1.252 . S
O137 Gd94 2.307 . S
O137 C152 1.261 . S
O138 Gd95 2.388 . S
O138 C152 1.252 . S
C139 O127 1.265 . S
C139 O128 1.242 . S
C140 O131 1.261 . S
C140 O132 1.252 . S
C141 C144 1.394 . S
C141 C146 1.370 . S
C141 C147 1.500 . S
C142 C145 1.383 . S
C142 C146 1.395 . S
C143 C144 1.396 . S
C143 C145 1.365 . S
C143 H160 0.929 . S
C144 C141 1.394 . S
C144 C143 1.396 . S
C144 H161 0.930 . S
C145 C142 1.383 . S
C145 C143 1.365 . S
C145 H162 0.931 . S
C146 C141 1.370 . S
C146 C142 1.395 . S
C146 H163 0.930 . S
C147 Gd94 2.805 . S
C147 O129 1.263 . S
C147 O130 1.252 . S
C147 C141 1.500 . S
C148 H110 0.930 . S
C148 C124 1.417 . S
C148 C149 1.329 . S
C149 C119 1.437 . S
C149 H120 0.929 . S
C149 C148 1.329 . S
H150 C123 0.931 . S
C151 O133 1.265 . S
C151 O134 1.242 . S
C152 O137 1.261 . S
C152 O138 1.252 . S
C153 C156 1.394 . S
C153 C158 1.370 . S
C153 C159 1.500 . S
C154 C157 1.383 . S
C154 C158 1.395 . S
C155 C156 1.396 . S
C155 C157 1.365 . S
C155 H164 0.929 . S
C156 C153 1.394 . S
C156 C155 1.396 . S
C156 H165 0.930 . S
C157 C154 1.383 . S
C157 C155 1.365 . S
C157 H166 0.931 . S
C158 C153 1.370 . S
C158 C154 1.395 . S
C158 H167 0.930 . S
C159 Gd95 2.805 . S
C159 O135 1.263 . S
C159 O136 1.252 . S
C159 C153 1.500 . S
H160 C143 0.929 . S
H161 C144 0.930 . S
H162 C145 0.931 . S
H163 C146 0.930 . S
H164 C155 0.929 . S
H165 C156 0.930 . S
H166 C157 0.931 . S
H167 C158 0.930 . S
C168 C170 1.422 . S
C168 C172 1.415 . S
C168 N174 1.369 . S
C169 C170 1.421 . S
C169 C171 1.417 . S
C169 C181 1.422 1_455 S
C170 C168 1.422 . S
C170 C169 1.421 . S
C170 N180 1.359 1_455 S
C171 C169 1.417 . S
C171 C173 1.329 . S
C171 H190 0.930 . S
C172 C168 1.415 . S
C172 C173 1.437 . S
C172 C176 1.413 . S
C173 C171 1.329 . S
C173 C172 1.437 . S
C173 H195 0.929 . S
N174 C168 1.369 . S
N174 C175 1.338 . S
N174 Gd179 2.622 1_455 S
C175 N174 1.338 . S
C175 C177 1.378 . S
C175 H187 0.929 . S
C176 C172 1.413 . S
C176 C177 1.348 . S
C176 H192 0.931 . S
C177 C175 1.378 . S
C177 C176 1.348 . S
C177 H193 0.930 . S
Gd178 N198 2.622 1_455 S
Gd178 N205 2.570 . S
Gd178 O212 2.353 . S
Gd178 O213 2.468 . S
Gd178 O214 2.427 . S
Gd178 O216 2.388 1_455 S
Gd178 O217 2.386 1_455 S
Gd178 O221 2.307 . S
Gd178 C231 2.805 . S
Gd179 N174 2.622 1_655 S
Gd179 N180 2.570 . S
Gd179 O211 2.386 1_655 S
Gd179 O215 2.307 . S
Gd179 O218 2.353 . S
Gd179 O219 2.468 . S
Gd179 O220 2.427 . S
Gd179 O222 2.388 1_655 S
Gd179 C243 2.805 . S
N180 C170 1.359 1_655 S
N180 Gd179 2.570 . S
N180 C182 1.343 . S
C181 C169 1.422 1_655 S
C181 C183 1.321 . S
C181 H189 0.931 . S
C182 N180 1.343 . S
C182 C183 1.390 . S
C182 H184 0.931 . S
C183 C181 1.321 . S
C183 C182 1.390 . S
C183 H185 0.930 . S
H184 C182 0.931 . S
H185 C183 0.930 . S
H186 C209 0.931 . S
H187 C175 0.929 . S
H188 C210 0.930 . S
H189 C181 0.931 . S
H190 C171 0.930 . S
H191 C200 0.929 . S
H192 C176 0.931 . S
H193 C177 0.930 . S
H194 C232 0.930 . S
H195 C173 0.929 . S
H196 C201 0.931 . S
H197 C202 0.930 . S
N198 Gd178 2.622 1_655 S
N198 C199 1.369 . S
N198 C200 1.338 . S
C199 N198 1.369 . S
C199 C203 1.415 . S
C199 C206 1.422 . S
C200 H191 0.929 . S
C200 N198 1.338 . S
C200 C202 1.378 . S
C201 H196 0.931 . S
C201 C202 1.348 . S
C201 C203 1.413 . S
C202 H197 0.930 . S
C202 C200 1.378 . S
C202 C201 1.348 . S
C203 C199 1.415 . S
C203 C201 1.413 . S
C203 C233 1.437 . S
H204 C233 0.929 . S
N205 Gd178 2.570 . S
N205 C206 1.359 1_455 S
N205 C209 1.343 . S
C206 C199 1.422 . S
C206 N205 1.359 1_655 S
C206 C208 1.421 . S
C207 C208 1.422 1_455 S
C207 C210 1.321 . S
C207 H234 0.931 . S
C208 C206 1.421 . S
C208 C207 1.422 1_655 S
C208 C232 1.417 . S
C209 H186 0.931 . S
C209 N205 1.343 . S
C209 C210 1.390 . S
C210 H188 0.930 . S
C210 C207 1.321 . S
C210 C209 1.390 . S
O211 Gd179 2.386 1_455 S
O211 C223 1.265 . S
O212 Gd178 2.353 . S
O212 C223 1.242 . S
O213 Gd178 2.468 . S
O213 C231 1.263 . S
O214 Gd178 2.427 . S
O214 C231 1.252 . S
O215 Gd179 2.307 . S
O215 C224 1.261 . S
O216 Gd178 2.388 1_655 S
O216 C224 1.252 . S
O217 Gd178 2.386 1_655 S
O217 C235 1.265 . S
O218 Gd179 2.353 . S
O218 C235 1.242 . S
O219 Gd179 2.468 . S
O219 C243 1.263 . S
O220 Gd179 2.427 . S
O220 C243 1.252 . S
O221 Gd178 2.307 . S
O221 C236 1.261 . S
O222 Gd179 2.388 1_455 S
O222 C236 1.252 . S
C223 O211 1.265 . S
C223 O212 1.242 . S
C224 O215 1.261 . S
C224 O216 1.252 . S
C225 C228 1.394 . S
C225 C230 1.370 . S
C225 C231 1.500 . S
C226 C229 1.383 . S
C226 C230 1.395 . S
C227 C228 1.396 . S
C227 C229 1.365 . S
C227 H244 0.929 . S
C228 C225 1.394 . S
C228 C227 1.396 . S
C228 H245 0.930 . S
C229 C226 1.383 . S
C229 C227 1.365 . S
C229 H246 0.931 . S
C230 C225 1.370 . S
C230 C226 1.395 . S
C230 H247 0.930 . S
C231 Gd178 2.805 . S
C231 O213 1.263 . S
C231 O214 1.252 . S
C231 C225 1.500 . S
C232 H194 0.930 . S
C232 C208 1.417 . S
C232 C233 1.329 . S
C233 C203 1.437 . S
C233 H204 0.929 . S
C233 C232 1.329 . S
H234 C207 0.931 . S
C235 O217 1.265 . S
C235 O218 1.242 . S
C236 O221 1.261 . S
C236 O222 1.252 . S
C237 C240 1.394 . S
C237 C242 1.370 . S
C237 C243 1.500 . S
C238 C241 1.383 . S
C238 C242 1.395 . S
C239 C240 1.396 . S
C239 C241 1.365 . S
C239 H248 0.929 . S
C240 C237 1.394 . S
C240 C239 1.396 . S
C240 H249 0.930 . S
C241 C238 1.383 . S
C241 C239 1.365 . S
C241 H250 0.931 . S
C242 C237 1.370 . S
C242 C238 1.395 . S
C242 H251 0.930 . S
C243 Gd179 2.805 . S
C243 O219 1.263 . S
C243 O220 1.252 . S
C243 C237 1.500 . S
H244 C227 0.929 . S
H245 C228 0.930 . S
H246 C229 0.931 . S
H247 C230 0.930 . S
H248 C239 0.929 . S
H249 C240 0.930 . S
H250 C241 0.931 . S
H251 C242 0.930 . S
C252 C254 1.422 . S
C252 C256 1.415 . S
C252 N258 1.369 . S
C253 C254 1.421 . S
C253 C255 1.417 . S
C253 C265 1.422 1_545 S
C254 C252 1.422 . S
C254 C253 1.421 . S
C254 N264 1.359 1_545 S
C255 C253 1.417 . S
C255 C257 1.329 . S
C255 H274 0.930 . S
C256 C252 1.415 . S
C256 C257 1.437 . S
C256 C260 1.413 . S
C257 C255 1.329 . S
C257 C256 1.437 . S
C257 H279 0.929 . S
N258 C252 1.369 . S
N258 C259 1.338 . S
N258 Gd263 2.622 1_545 S
C259 N258 1.338 . S
C259 C261 1.378 . S
C259 H271 0.929 . S
C260 C256 1.413 . S
C260 C261 1.348 . S
C260 H276 0.931 . S
C261 C259 1.378 . S
C261 C260 1.348 . S
C261 H277 0.930 . S
Gd262 N282 2.622 1_545 S
Gd262 N289 2.570 . S
Gd262 O296 2.353 . S
Gd262 O297 2.468 . S
Gd262 O298 2.427 . S
Gd262 O300 2.388 1_545 S
Gd262 O301 2.386 1_545 S
Gd262 O305 2.307 . S
Gd262 C315 2.805 . S
Gd263 N258 2.622 1_565 S
Gd263 N264 2.570 . S
Gd263 O295 2.386 1_565 S
Gd263 O299 2.307 . S
Gd263 O302 2.353 . S
Gd263 O303 2.468 . S
Gd263 O304 2.427 . S
Gd263 O306 2.388 1_565 S
Gd263 C327 2.805 . S
N264 C254 1.359 1_565 S
N264 Gd263 2.570 . S
N264 C266 1.343 . S
C265 C253 1.422 1_565 S
C265 C267 1.321 . S
C265 H273 0.931 . S
C266 N264 1.343 . S
C266 C267 1.390 . S
C266 H268 0.931 . S
C267 C265 1.321 . S
C267 C266 1.390 . S
C267 H269 0.930 . S
H268 C266 0.931 . S
H269 C267 0.930 . S
H270 C293 0.931 . S
H271 C259 0.929 . S
H272 C294 0.930 . S
H273 C265 0.931 . S
H274 C255 0.930 . S
H275 C284 0.929 . S
H276 C260 0.931 . S
H277 C261 0.930 . S
H278 C316 0.930 . S
H279 C257 0.929 . S
H280 C285 0.931 . S
H281 C286 0.930 . S
N282 Gd262 2.622 1_565 S
N282 C283 1.369 . S
N282 C284 1.338 . S
C283 N282 1.369 . S
C283 C287 1.415 . S
C283 C290 1.422 . S
C284 H275 0.929 . S
C284 N282 1.338 . S
C284 C286 1.378 . S
C285 H280 0.931 . S
C285 C286 1.348 . S
C285 C287 1.413 . S
C286 H281 0.930 . S
C286 C284 1.378 . S
C286 C285 1.348 . S
C287 C283 1.415 . S
C287 C285 1.413 . S
C287 C317 1.437 . S
H288 C317 0.929 . S
N289 Gd262 2.570 . S
N289 C290 1.359 1_545 S
N289 C293 1.343 . S
C290 C283 1.422 . S
C290 N289 1.359 1_565 S
C290 C292 1.421 . S
C291 C292 1.422 1_545 S
C291 C294 1.321 . S
C291 H318 0.931 . S
C292 C290 1.421 . S
C292 C291 1.422 1_565 S
C292 C316 1.417 . S
C293 H270 0.931 . S
C293 N289 1.343 . S
C293 C294 1.390 . S
C294 H272 0.930 . S
C294 C291 1.321 . S
C294 C293 1.390 . S
O295 Gd263 2.386 1_545 S
O295 C307 1.265 . S
O296 Gd262 2.353 . S
O296 C307 1.242 . S
O297 Gd262 2.468 . S
O297 C315 1.263 . S
O298 Gd262 2.427 . S
O298 C315 1.252 . S
O299 Gd263 2.307 . S
O299 C308 1.261 . S
O300 Gd262 2.388 1_565 S
O300 C308 1.252 . S
O301 Gd262 2.386 1_565 S
O301 C319 1.265 . S
O302 Gd263 2.353 . S
O302 C319 1.242 . S
O303 Gd263 2.468 . S
O303 C327 1.263 . S
O304 Gd263 2.427 . S
O304 C327 1.252 . S
O305 Gd262 2.307 . S
O305 C320 1.261 . S
O306 Gd263 2.388 1_545 S
O306 C320 1.252 . S
C307 O295 1.265 . S
C307 O296 1.242 . S
C308 O299 1.261 . S
C308 O300 1.252 . S
C309 C312 1.394 . S
C309 C314 1.370 . S
C309 C315 1.500 . S
C310 C313 1.383 . S
C310 C314 1.395 . S
C311 C312 1.396 . S
C311 C313 1.365 . S
C311 H328 0.929 . S
C312 C309 1.394 . S
C312 C311 1.396 . S
C312 H329 0.930 . S
C313 C310 1.383 . S
C313 C311 1.365 . S
C313 H330 0.931 . S
C314 C309 1.370 . S
C314 C310 1.395 . S
C314 H331 0.930 . S
C315 Gd262 2.805 . S
C315 O297 1.263 . S
C315 O298 1.252 . S
C315 C309 1.500 . S
C316 H278 0.930 . S
C316 C292 1.417 . S
C316 C317 1.329 . S
C317 C287 1.437 . S
C317 H288 0.929 . S
C317 C316 1.329 . S
H318 C291 0.931 . S
C319 O301 1.265 . S
C319 O302 1.242 . S
C320 O305 1.261 . S
C320 O306 1.252 . S
C321 C324 1.394 . S
C321 C326 1.370 . S
C321 C327 1.500 . S
C322 C325 1.383 . S
C322 C326 1.395 . S
C323 C324 1.396 . S
C323 C325 1.365 . S
C323 H332 0.929 . S
C324 C321 1.394 . S
C324 C323 1.396 . S
C324 H333 0.930 . S
C325 C322 1.383 . S
C325 C323 1.365 . S
C325 H334 0.931 . S
C326 C321 1.370 . S
C326 C322 1.395 . S
C326 H335 0.930 . S
C327 Gd263 2.805 . S
C327 O303 1.263 . S
C327 O304 1.252 . S
C327 C321 1.500 . S
H328 C311 0.929 . S
H329 C312 0.930 . S
H330 C313 0.931 . S
H331 C314 0.930 . S
H332 C323 0.929 . S
H333 C324 0.930 . S
H334 C325 0.931 . S
H335 C326 0.930 . S
C336 C338 1.422 . S
C336 C340 1.415 . S
C336 N342 1.369 . S
C337 C338 1.421 . S
C337 C339 1.417 . S
C337 C349 1.422 . S
C338 C336 1.422 . S
C338 C337 1.421 . S
C338 N348 1.359 . S
C339 C337 1.417 . S
C339 C341 1.329 . S
C339 H358 0.930 . S
C340 C336 1.415 . S
C340 C341 1.437 . S
C340 C344 1.413 . S
C341 C339 1.329 . S
C341 C340 1.437 . S
C341 H363 0.929 . S
N342 C336 1.369 . S
N342 C343 1.338 . S
N342 Gd347 2.622 . S
C343 N342 1.338 . S
C343 C345 1.378 . S
C343 H355 0.929 . S
C344 C340 1.413 . S
C344 C345 1.348 . S
C344 H360 0.931 . S
C345 C343 1.378 . S
C345 C344 1.348 . S
C345 H361 0.930 . S
Gd346 N366 2.622 1_554 S
Gd346 N373 2.570 . S
Gd346 O380 2.353 . S
Gd346 O381 2.474 . S
Gd346 O382 2.427 1_554 S
Gd346 O384 2.388 1_554 S
Gd346 O385 2.386 . S
Gd346 O389 2.307 . S
Gd346 C399 2.805 1_554 S
Gd347 N342 2.622 . S
Gd347 N348 2.570 . S
Gd347 O379 2.386 . S
Gd347 O383 2.307 . S
Gd347 O386 2.353 . S
Gd347 O387 2.468 . S
Gd347 O388 2.427 . S
Gd347 O390 2.388 . S
Gd347 C411 2.805 . S
N348 C338 1.359 . S
N348 Gd347 2.570 . S
N348 C350 1.343 . S
C349 C337 1.422 . S
C349 C351 1.321 . S
C349 H357 0.931 . S
C350 N348 1.343 . S
C350 C351 1.390 . S
C350 H352 0.931 . S
C351 C349 1.321 . S
C351 C350 1.390 . S
C351 H353 0.930 . S
H352 C350 0.931 . S
H353 C351 0.930 . S
H354 C377 0.931 . S
H355 C343 0.929 . S
H356 C378 0.930 . S
H357 C349 0.931 . S
H358 C339 0.930 . S
H359 C368 0.929 . S
H360 C344 0.931 . S
H361 C345 0.930 . S
H362 C400 0.930 . S
H363 C341 0.929 . S
H364 C369 0.931 . S
H365 C370 0.930 . S
N366 Gd346 2.622 1_556 S
N366 C367 1.369 1_556 S
N366 C368 1.338 . S
C367 N366 1.369 1_554 S
C367 C371 1.420 . S
C367 C374 1.422 . S
C368 H359 0.929 . S
C368 N366 1.338 . S
C368 C370 1.378 . S
C369 H364 0.931 . S
C369 C370 1.348 . S
C369 C371 1.400 1_556 S
C370 H365 0.930 . S
C370 C368 1.378 . S
C370 C369 1.348 . S
C371 C367 1.420 . S
C371 C369 1.400 1_554 S
C371 C401 1.446 . S
H372 C401 0.929 . S
N373 Gd346 2.570 . S
N373 C374 1.359 . S
N373 C377 1.343 . S
C374 C367 1.422 . S
C374 N373 1.359 . S
C374 C376 1.421 . S
C375 C376 1.422 . S
C375 C378 1.321 . S
C375 H402 0.931 . S
C376 C374 1.421 . S
C376 C375 1.422 . S
C376 C400 1.417 . S
C377 H354 0.931 . S
C377 N373 1.343 . S
C377 C378 1.390 . S
C378 H356 0.930 . S
C378 C375 1.321 . S
C378 C377 1.390 . S
O379 Gd347 2.386 . S
O379 C391 1.265 . S
O380 Gd346 2.353 . S
O380 C391 1.242 . S
O381 Gd346 2.474 . S
O381 C399 1.244 1_554 S
O382 Gd346 2.427 1_556 S
O382 C399 1.252 . S
O383 Gd347 2.307 . S
O383 C392 1.261 . S
O384 Gd346 2.388 1_556 S
O384 C392 1.252 1_556 S
O385 Gd346 2.386 . S
O385 C403 1.265 . S
O386 Gd347 2.353 . S
O386 C403 1.242 . S
O387 Gd347 2.468 . S
O387 C411 1.263 . S
O388 Gd347 2.427 . S
O388 C411 1.252 . S
O389 Gd346 2.307 . S
O389 C404 1.261 . S
O390 Gd347 2.388 . S
O390 C404 1.252 . S
C391 O379 1.265 . S
C391 O380 1.242 . S
C392 O383 1.261 . S
C392 O384 1.252 1_554 S
C393 C396 1.394 . S
C393 C398 1.370 . S
C393 C399 1.500 . S
C394 C397 1.383 . S
C394 C398 1.395 . S
C395 C396 1.396 . S
C395 C397 1.365 . S
C395 H412 0.929 . S
C396 C393 1.394 . S
C396 C395 1.396 . S
C396 H413 0.930 . S
C397 C394 1.383 . S
C397 C395 1.365 . S
C397 H414 0.931 . S
C398 C393 1.370 . S
C398 C394 1.395 . S
C398 H415 0.930 . S
C399 Gd346 2.805 1_556 S
C399 O381 1.244 1_556 S
C399 O382 1.252 . S
C399 C393 1.500 . S
C400 H362 0.930 . S
C400 C376 1.417 . S
C400 C401 1.329 . S
C401 C371 1.446 . S
C401 H372 0.929 . S
C401 C400 1.329 . S
H402 C375 0.931 . S
C403 O385 1.265 . S
C403 O386 1.242 . S
C404 O389 1.261 . S
C404 O390 1.252 . S
C405 C408 1.394 . S
C405 C410 1.370 . S
C405 C411 1.500 . S
C406 C409 1.383 . S
C406 C410 1.395 . S
C407 C408 1.396 . S
C407 C409 1.365 . S
C407 H416 0.929 . S
C408 C405 1.394 . S
C408 C407 1.396 . S
C408 H417 0.930 . S
C409 C406 1.383 . S
C409 C407 1.365 . S
C409 H418 0.931 . S
C410 C405 1.370 . S
C410 C406 1.395 . S
C410 H419 0.930 . S
C411 Gd347 2.805 . S
C411 O387 1.263 . S
C411 O388 1.252 . S
C411 C405 1.500 . S
H412 C395 0.929 . S
H413 C396 0.930 . S
H414 C397 0.931 . S
H415 C398 0.930 . S
H416 C407 0.929 . S
H417 C408 0.930 . S
H418 C409 0.931 . S
H419 C410 0.930 . S
C420 C422 1.422 . S
C420 C424 1.415 . S
C420 N426 1.369 . S
C421 C422 1.421 . S
C421 C423 1.417 . S
C421 C433 1.422 1_655 S
C422 C420 1.422 . S
C422 C421 1.421 . S
C422 N432 1.359 1_655 S
C423 C421 1.417 . S
C423 C425 1.329 . S
C423 H442 0.930 . S
C424 C420 1.415 . S
C424 C425 1.437 . S
C424 C428 1.413 . S
C425 C423 1.329 . S
C425 C424 1.437 . S
C425 H447 0.929 . S
N426 C420 1.369 . S
N426 C427 1.338 . S
N426 Gd431 2.622 1_655 S
C427 N426 1.338 . S
C427 C429 1.378 . S
C427 H439 0.929 . S
C428 C424 1.413 . S
C428 C429 1.348 . S
C428 H444 0.931 . S
C429 C427 1.378 . S
C429 C428 1.348 . S
C429 H445 0.930 . S
Gd430 N450 2.622 1_655 S
Gd430 N457 2.570 . S
Gd430 O464 2.353 . S
Gd430 O465 2.468 . S
Gd430 O466 2.427 . S
Gd430 O468 2.388 1_655 S
Gd430 O469 2.386 1_655 S
Gd430 O473 2.307 . S
Gd430 C483 2.805 . S
Gd431 N426 2.622 1_455 S
Gd431 N432 2.570 . S
Gd431 O463 2.386 1_455 S
Gd431 O467 2.307 . S
Gd431 O470 2.353 . S
Gd431 O471 2.468 . S
Gd431 O472 2.427 . S
Gd431 O474 2.388 1_455 S
Gd431 C495 2.805 . S
N432 C422 1.359 1_455 S
N432 Gd431 2.570 . S
N432 C434 1.343 . S
C433 C421 1.422 1_455 S
C433 C435 1.321 . S
C433 H441 0.931 . S
C434 N432 1.343 . S
C434 C435 1.390 . S
C434 H436 0.931 . S
C435 C433 1.321 . S
C435 C434 1.390 . S
C435 H437 0.930 . S
H436 C434 0.931 . S
H437 C435 0.930 . S
H438 C461 0.931 . S
H439 C427 0.929 . S
H440 C462 0.930 . S
H441 C433 0.931 . S
H442 C423 0.930 . S
H443 C452 0.929 . S
H444 C428 0.931 . S
H445 C429 0.930 . S
H446 C484 0.930 . S
H447 C425 0.929 . S
H448 C453 0.931 . S
H449 C454 0.930 . S
N450 Gd430 2.622 1_455 S
N450 C451 1.369 . S
N450 C452 1.338 . S
C451 N450 1.369 . S
C451 C455 1.415 . S
C451 C458 1.422 . S
C452 H443 0.929 . S
C452 N450 1.338 . S
C452 C454 1.378 . S
C453 H448 0.931 . S
C453 C454 1.348 . S
C453 C455 1.413 . S
C454 H449 0.930 . S
C454 C452 1.378 . S
C454 C453 1.348 . S
C455 C451 1.415 . S
C455 C453 1.413 . S
C455 C485 1.437 . S
H456 C485 0.929 . S
N457 Gd430 2.570 . S
N457 C458 1.359 1_655 S
N457 C461 1.343 . S
C458 C451 1.422 . S
C458 N457 1.359 1_455 S
C458 C460 1.421 . S
C459 C460 1.422 1_655 S
C459 C462 1.321 . S
C459 H486 0.931 . S
C460 C458 1.421 . S
C460 C459 1.422 1_455 S
C460 C484 1.417 . S
C461 H438 0.931 . S
C461 N457 1.343 . S
C461 C462 1.390 . S
C462 H440 0.930 . S
C462 C459 1.321 . S
C462 C461 1.390 . S
O463 Gd431 2.386 1_655 S
O463 C475 1.265 . S
O464 Gd430 2.353 . S
O464 C475 1.242 . S
O465 Gd430 2.468 . S
O465 C483 1.263 . S
O466 Gd430 2.427 . S
O466 C483 1.252 . S
O467 Gd431 2.307 . S
O467 C476 1.261 . S
O468 Gd430 2.388 1_455 S
O468 C476 1.252 . S
O469 Gd430 2.386 1_455 S
O469 C487 1.265 . S
O470 Gd431 2.353 . S
O470 C487 1.242 . S
O471 Gd431 2.468 . S
O471 C495 1.263 . S
O472 Gd431 2.427 . S
O472 C495 1.252 . S
O473 Gd430 2.307 . S
O473 C488 1.261 . S
O474 Gd431 2.388 1_655 S
O474 C488 1.252 . S
C475 O463 1.265 . S
C475 O464 1.242 . S
C476 O467 1.261 . S
C476 O468 1.252 . S
C477 C480 1.394 . S
C477 C482 1.370 . S
C477 C483 1.500 . S
C478 C481 1.383 . S
C478 C482 1.395 . S
C479 C480 1.396 . S
C479 C481 1.365 . S
C479 H496 0.929 . S
C480 C477 1.394 . S
C480 C479 1.396 . S
C480 H497 0.930 . S
C481 C478 1.383 . S
C481 C479 1.365 . S
C481 H498 0.931 . S
C482 C477 1.370 . S
C482 C478 1.395 . S
C482 H499 0.930 . S
C483 Gd430 2.805 . S
C483 O465 1.263 . S
C483 O466 1.252 . S
C483 C477 1.500 . S
C484 H446 0.930 . S
C484 C460 1.417 . S
C484 C485 1.329 . S
C485 C455 1.437 . S
C485 H456 0.929 . S
C485 C484 1.329 . S
H486 C459 0.931 . S
C487 O469 1.265 . S
C487 O470 1.242 . S
C488 O473 1.261 . S
C488 O474 1.252 . S
C489 C492 1.394 . S
C489 C494 1.370 . S
C489 C495 1.500 . S
C490 C493 1.383 . S
C490 C494 1.395 . S
C491 C492 1.396 . S
C491 C493 1.365 . S
C491 H500 0.929 . S
C492 C489 1.394 . S
C492 C491 1.396 . S
C492 H501 0.930 . S
C493 C490 1.383 . S
C493 C491 1.365 . S
C493 H502 0.931 . S
C494 C489 1.370 . S
C494 C490 1.395 . S
C494 H503 0.930 . S
C495 Gd431 2.805 . S
C495 O471 1.263 . S
C495 O472 1.252 . S
C495 C489 1.500 . S
H496 C479 0.929 . S
H497 C480 0.930 . S
H498 C481 0.931 . S
H499 C482 0.930 . S
H500 C491 0.929 . S
H501 C492 0.930 . S
H502 C493 0.931 . S
H503 C494 0.930 . S
C504 C506 1.422 . S
C504 C508 1.415 . S
C504 N510 1.369 . S
C505 C506 1.421 . S
C505 C507 1.417 . S
C505 C517 1.422 1_455 S
C506 C504 1.422 . S
C506 C505 1.421 . S
C506 N516 1.359 1_455 S
C507 C505 1.417 . S
C507 C509 1.329 . S
C507 H526 0.930 . S
C508 C504 1.415 . S
C508 C509 1.437 . S
C508 C512 1.413 . S
C509 C507 1.329 . S
C509 C508 1.437 . S
C509 H531 0.929 . S
N510 C504 1.369 . S
N510 C511 1.338 . S
N510 Gd515 2.622 1_455 S
C511 N510 1.338 . S
C511 C513 1.378 . S
C511 H523 0.929 . S
C512 C508 1.413 . S
C512 C513 1.348 . S
C512 H528 0.931 . S
C513 C511 1.378 . S
C513 C512 1.348 . S
C513 H529 0.930 . S
Gd514 N534 2.622 1_455 S
Gd514 N541 2.570 . S
Gd514 O548 2.353 . S
Gd514 O549 2.468 . S
Gd514 O550 2.427 . S
Gd514 O552 2.388 1_455 S
Gd514 O553 2.386 1_455 S
Gd514 O557 2.307 . S
Gd514 C567 2.805 . S
Gd515 N510 2.622 1_655 S
Gd515 N516 2.570 . S
Gd515 O547 2.386 1_655 S
Gd515 O551 2.307 . S
Gd515 O554 2.353 . S
Gd515 O555 2.468 . S
Gd515 O556 2.427 . S
Gd515 O558 2.388 1_655 S
Gd515 C579 2.805 . S
N516 C506 1.359 1_655 S
N516 Gd515 2.570 . S
N516 C518 1.343 . S
C517 C505 1.422 1_655 S
C517 C519 1.321 . S
C517 H525 0.931 . S
C518 N516 1.343 . S
C518 C519 1.390 . S
C518 H520 0.931 . S
C519 C517 1.321 . S
C519 C518 1.390 . S
C519 H521 0.930 . S
H520 C518 0.931 . S
H521 C519 0.930 . S
H522 C545 0.931 . S
H523 C511 0.929 . S
H524 C546 0.930 . S
H525 C517 0.931 . S
H526 C507 0.930 . S
H527 C536 0.929 . S
H528 C512 0.931 . S
H529 C513 0.930 . S
H530 C568 0.930 . S
H531 C509 0.929 . S
H532 C537 0.931 . S
H533 C538 0.930 . S
N534 Gd514 2.622 1_655 S
N534 C535 1.369 . S
N534 C536 1.338 . S
C535 N534 1.369 . S
C535 C539 1.415 . S
C535 C542 1.422 . S
C536 H527 0.929 . S
C536 N534 1.338 . S
C536 C538 1.378 . S
C537 H532 0.931 . S
C537 C538 1.348 . S
C537 C539 1.413 . S
C538 H533 0.930 . S
C538 C536 1.378 . S
C538 C537 1.348 . S
C539 C535 1.415 . S
C539 C537 1.413 . S
C539 C569 1.437 . S
H540 C569 0.929 . S
N541 Gd514 2.570 . S
N541 C542 1.359 1_455 S
N541 C545 1.343 . S
C542 C535 1.422 . S
C542 N541 1.359 1_655 S
C542 C544 1.421 . S
C543 C544 1.422 1_455 S
C543 C546 1.321 . S
C543 H570 0.931 . S
C544 C542 1.421 . S
C544 C543 1.422 1_655 S
C544 C568 1.417 . S
C545 H522 0.931 . S
C545 N541 1.343 . S
C545 C546 1.390 . S
C546 H524 0.930 . S
C546 C543 1.321 . S
C546 C545 1.390 . S
O547 Gd515 2.386 1_455 S
O547 C559 1.265 . S
O548 Gd514 2.353 . S
O548 C559 1.242 . S
O549 Gd514 2.468 . S
O549 C567 1.263 . S
O550 Gd514 2.427 . S
O550 C567 1.252 . S
O551 Gd515 2.307 . S
O551 C560 1.261 . S
O552 Gd514 2.388 1_655 S
O552 C560 1.252 . S
O553 Gd514 2.386 1_655 S
O553 C571 1.265 . S
O554 Gd515 2.353 . S
O554 C571 1.242 . S
O555 Gd515 2.468 . S
O555 C579 1.263 . S
O556 Gd515 2.427 . S
O556 C579 1.252 . S
O557 Gd514 2.307 . S
O557 C572 1.261 . S
O558 Gd515 2.388 1_455 S
O558 C572 1.252 . S
C559 O547 1.265 . S
C559 O548 1.242 . S
C560 O551 1.261 . S
C560 O552 1.252 . S
C561 C564 1.394 . S
C561 C566 1.370 . S
C561 C567 1.500 . S
C562 C565 1.383 . S
C562 C566 1.395 . S
C563 C564 1.396 . S
C563 C565 1.365 . S
C563 H580 0.929 . S
C564 C561 1.394 . S
C564 C563 1.396 . S
C564 H581 0.930 . S
C565 C562 1.383 . S
C565 C563 1.365 . S
C565 H582 0.931 . S
C566 C561 1.370 . S
C566 C562 1.395 . S
C566 H583 0.930 . S
C567 Gd514 2.805 . S
C567 O549 1.263 . S
C567 O550 1.252 . S
C567 C561 1.500 . S
C568 H530 0.930 . S
C568 C544 1.417 . S
C568 C569 1.329 . S
C569 C539 1.437 . S
C569 H540 0.929 . S
C569 C568 1.329 . S
H570 C543 0.931 . S
C571 O553 1.265 . S
C571 O554 1.242 . S
C572 O557 1.261 . S
C572 O558 1.252 . S
C573 C576 1.394 . S
C573 C578 1.370 . S
C573 C579 1.500 . S
C574 C577 1.383 . S
C574 C578 1.395 . S
C575 C576 1.396 . S
C575 C577 1.365 . S
C575 H584 0.929 . S
C576 C573 1.394 . S
C576 C575 1.396 . S
C576 H585 0.930 . S
C577 C574 1.383 . S
C577 C575 1.365 . S
C577 H586 0.931 . S
C578 C573 1.370 . S
C578 C574 1.395 . S
C578 H587 0.930 . S
C579 Gd515 2.805 . S
C579 O555 1.263 . S
C579 O556 1.252 . S
C579 C573 1.500 . S
H580 C563 0.929 . S
H581 C564 0.930 . S
H582 C565 0.931 . S
H583 C566 0.930 . S
H584 C575 0.929 . S
H585 C576 0.930 . S
H586 C577 0.931 . S
H587 C578 0.930 . S
C588 C590 1.422 . S
C588 C592 1.415 . S
C588 N594 1.369 . S
C589 C590 1.421 . S
C589 C591 1.417 . S
C589 C601 1.422 1_545 S
C590 C588 1.422 . S
C590 C589 1.421 . S
C590 N600 1.359 1_545 S
C591 C589 1.417 . S
C591 C593 1.329 . S
C591 H610 0.930 . S
C592 C588 1.415 . S
C592 C593 1.437 . S
C592 C596 1.413 . S
C593 C591 1.329 . S
C593 C592 1.437 . S
C593 H615 0.929 . S
N594 C588 1.369 . S
N594 C595 1.338 . S
N594 Gd599 2.622 1_545 S
C595 N594 1.338 . S
C595 C597 1.378 . S
C595 H607 0.929 . S
C596 C592 1.413 . S
C596 C597 1.348 . S
C596 H612 0.931 . S
C597 C595 1.378 . S
C597 C596 1.348 . S
C597 H613 0.930 . S
Gd598 N618 2.622 1_545 S
Gd598 N625 2.570 . S
Gd598 O632 2.353 . S
Gd598 O633 2.468 . S
Gd598 O634 2.427 . S
Gd598 O636 2.388 1_545 S
Gd598 O637 2.386 1_545 S
Gd598 O641 2.307 . S
Gd598 C651 2.805 . S
Gd599 N594 2.622 1_565 S
Gd599 N600 2.570 . S
Gd599 O631 2.386 1_565 S
Gd599 O635 2.307 . S
Gd599 O638 2.353 . S
Gd599 O639 2.468 . S
Gd599 O640 2.427 . S
Gd599 O642 2.388 1_565 S
Gd599 C663 2.805 . S
N600 C590 1.359 1_565 S
N600 Gd599 2.570 . S
N600 C602 1.343 . S
C601 C589 1.422 1_565 S
C601 C603 1.321 . S
C601 H609 0.931 . S
C602 N600 1.343 . S
C602 C603 1.390 . S
C602 H604 0.931 . S
C603 C601 1.321 . S
C603 C602 1.390 . S
C603 H605 0.930 . S
H604 C602 0.931 . S
H605 C603 0.930 . S
H606 C629 0.931 . S
H607 C595 0.929 . S
H608 C630 0.930 . S
H609 C601 0.931 . S
H610 C591 0.930 . S
H611 C620 0.929 . S
H612 C596 0.931 . S
H613 C597 0.930 . S
H614 C652 0.930 . S
H615 C593 0.929 . S
H616 C621 0.931 . S
H617 C622 0.930 . S
N618 Gd598 2.622 1_565 S
N618 C619 1.369 . S
N618 C620 1.338 . S
C619 N618 1.369 . S
C619 C623 1.415 . S
C619 C626 1.422 . S
C620 H611 0.929 . S
C620 N618 1.338 . S
C620 C622 1.378 . S
C621 H616 0.931 . S
C621 C622 1.348 . S
C621 C623 1.413 . S
C622 H617 0.930 . S
C622 C620 1.378 . S
C622 C621 1.348 . S
C623 C619 1.415 . S
C623 C621 1.413 . S
C623 C653 1.437 . S
H624 C653 0.929 . S
N625 Gd598 2.570 . S
N625 C626 1.359 1_545 S
N625 C629 1.343 . S
C626 C619 1.422 . S
C626 N625 1.359 1_565 S
C626 C628 1.421 . S
C627 C628 1.422 1_545 S
C627 C630 1.321 . S
C627 H654 0.931 . S
C628 C626 1.421 . S
C628 C627 1.422 1_565 S
C628 C652 1.417 . S
C629 H606 0.931 . S
C629 N625 1.343 . S
C629 C630 1.390 . S
C630 H608 0.930 . S
C630 C627 1.321 . S
C630 C629 1.390 . S
O631 Gd599 2.386 1_545 S
O631 C643 1.265 . S
O632 Gd598 2.353 . S
O632 C643 1.242 . S
O633 Gd598 2.468 . S
O633 C651 1.263 . S
O634 Gd598 2.427 . S
O634 C651 1.252 . S
O635 Gd599 2.307 . S
O635 C644 1.261 . S
O636 Gd598 2.388 1_565 S
O636 C644 1.252 . S
O637 Gd598 2.386 1_565 S
O637 C655 1.265 . S
O638 Gd599 2.353 . S
O638 C655 1.242 . S
O639 Gd599 2.468 . S
O639 C663 1.263 . S
O640 Gd599 2.427 . S
O640 C663 1.252 . S
O641 Gd598 2.307 . S
O641 C656 1.261 . S
O642 Gd599 2.388 1_545 S
O642 C656 1.252 . S
C643 O631 1.265 . S
C643 O632 1.242 . S
C644 O635 1.261 . S
C644 O636 1.252 . S
C645 C648 1.394 . S
C645 C650 1.370 . S
C645 C651 1.500 . S
C646 C649 1.383 . S
C646 C650 1.395 . S
C647 C648 1.396 . S
C647 C649 1.365 . S
C647 H664 0.929 . S
C648 C645 1.394 . S
C648 C647 1.396 . S
C648 H665 0.930 . S
C649 C646 1.383 . S
C649 C647 1.365 . S
C649 H666 0.931 . S
C650 C645 1.370 . S
C650 C646 1.395 . S
C650 H667 0.930 . S
C651 Gd598 2.805 . S
C651 O633 1.263 . S
C651 O634 1.252 . S
C651 C645 1.500 . S
C652 H614 0.930 . S
C652 C628 1.417 . S
C652 C653 1.329 . S
C653 C623 1.437 . S
C653 H624 0.929 . S
C653 C652 1.329 . S
H654 C627 0.931 . S
C655 O637 1.265 . S
C655 O638 1.242 . S
C656 O641 1.261 . S
C656 O642 1.252 . S
C657 C660 1.394 . S
C657 C662 1.370 . S
C657 C663 1.500 . S
C658 C661 1.383 . S
C658 C662 1.395 . S
C659 C660 1.396 . S
C659 C661 1.365 . S
C659 H668 0.929 . S
C660 C657 1.394 . S
C660 C659 1.396 . S
C660 H669 0.930 . S
C661 C658 1.383 . S
C661 C659 1.365 . S
C661 H670 0.931 . S
C662 C657 1.370 . S
C662 C658 1.395 . S
C662 H671 0.930 . S
C663 Gd599 2.805 . S
C663 O639 1.263 . S
C663 O640 1.252 . S
C663 C657 1.500 . S
H664 C647 0.929 . S
H665 C648 0.930 . S
H666 C649 0.931 . S
H667 C650 0.930 . S
H668 C659 0.929 . S
H669 C660 0.930 . S
H670 C661 0.931 . S
H671 C662 0.930 . S
C672 C674 1.422 . S
C672 C676 1.415 . S
C672 N678 1.369 . S
C673 C674 1.421 . S
C673 C675 1.417 . S
C673 C685 1.422 . S
C674 C672 1.422 . S
C674 C673 1.421 . S
C674 N684 1.359 . S
C675 C673 1.417 . S
C675 C677 1.329 . S
C675 H694 0.930 . S
C676 C672 1.415 . S
C676 C677 1.437 . S
C676 C680 1.413 . S
C677 C675 1.329 . S
C677 C676 1.437 . S
C677 H699 0.929 . S
N678 C672 1.369 . S
N678 C679 1.338 . S
N678 Gd683 2.622 . S
C679 N678 1.338 . S
C679 C681 1.378 . S
C679 H691 0.929 . S
C680 C676 1.413 . S
C680 C681 1.348 . S
C680 H696 0.931 . S
C681 C679 1.378 . S
C681 C680 1.348 . S
C681 H697 0.930 . S
Gd682 N702 2.622 . S
Gd682 N709 2.570 . S
Gd682 O716 2.353 . S
Gd682 O717 2.468 . S
Gd682 O718 2.427 . S
Gd682 O720 2.388 . S
Gd682 O721 2.386 . S
Gd682 O725 2.307 . S
Gd682 C735 2.805 . S
Gd683 N678 2.622 . S
Gd683 N684 2.570 . S
Gd683 O715 2.386 . S
Gd683 O719 2.307 . S
Gd683 O722 2.353 . S
Gd683 O723 2.468 . S
Gd683 O724 2.427 . S
Gd683 O726 2.388 . S
Gd683 C747 2.805 . S
N684 C674 1.359 . S
N684 Gd683 2.570 . S
N684 C686 1.343 . S
C685 C673 1.422 . S
C685 C687 1.321 . S
C685 H693 0.931 . S
C686 N684 1.343 . S
C686 C687 1.390 . S
C686 H688 0.931 . S
C687 C685 1.321 . S
C687 C686 1.390 . S
C687 H689 0.930 . S
H688 C686 0.931 . S
H689 C687 0.930 . S
H690 C713 0.931 . S
H691 C679 0.929 . S
H692 C714 0.930 . S
H693 C685 0.931 . S
H694 C675 0.930 . S
H695 C704 0.929 . S
H696 C680 0.931 . S
H697 C681 0.930 . S
H698 C736 0.930 . S
H699 C677 0.929 . S
H700 C705 0.931 . S
H701 C706 0.930 . S
N702 Gd682 2.622 . S
N702 C703 1.369 . S
N702 C704 1.338 . S
C703 N702 1.369 . S
C703 C707 1.415 . S
C703 C710 1.422 . S
C704 H695 0.929 . S
C704 N702 1.338 . S
C704 C706 1.378 . S
C705 H700 0.931 . S
C705 C706 1.348 . S
C705 C707 1.413 . S
C706 H701 0.930 . S
C706 C704 1.378 . S
C706 C705 1.348 . S
C707 C703 1.415 . S
C707 C705 1.413 . S
C707 C737 1.437 . S
H708 C737 0.929 . S
N709 Gd682 2.570 . S
N709 C710 1.359 . S
N709 C713 1.343 . S
C710 C703 1.422 . S
C710 N709 1.359 . S
C710 C712 1.421 . S
C711 C712 1.422 . S
C711 C714 1.321 . S
C711 H738 0.931 . S
C712 C710 1.421 . S
C712 C711 1.422 . S
C712 C736 1.417 . S
C713 H690 0.931 . S
C713 N709 1.343 . S
C713 C714 1.390 . S
C714 H692 0.930 . S
C714 C711 1.321 . S
C714 C713 1.390 . S
O715 Gd683 2.386 . S
O715 C727 1.265 . S
O716 Gd682 2.353 . S
O716 C727 1.242 . S
O717 Gd682 2.468 . S
O717 C735 1.263 . S
O718 Gd682 2.427 . S
O718 C735 1.252 . S
O719 Gd683 2.307 . S
O719 C728 1.261 . S
O720 Gd682 2.388 . S
O720 C728 1.252 . S
O721 Gd682 2.386 . S
O721 C739 1.265 . S
O722 Gd683 2.353 . S
O722 C739 1.242 . S
O723 Gd683 2.468 . S
O723 C747 1.263 . S
O724 Gd683 2.427 . S
O724 C747 1.252 . S
O725 Gd682 2.307 . S
O725 C740 1.261 . S
O726 Gd683 2.388 . S
O726 C740 1.252 . S
C727 O715 1.265 . S
C727 O716 1.242 . S
C728 O719 1.261 . S
C728 O720 1.252 . S
C729 C732 1.394 . S
C729 C734 1.370 . S
C729 C735 1.500 . S
C730 C733 1.383 . S
C730 C734 1.395 . S
C731 C732 1.396 . S
C731 C733 1.365 . S
C731 H748 0.929 . S
C732 C729 1.394 . S
C732 C731 1.396 . S
C732 H749 0.930 . S
C733 C730 1.383 . S
C733 C731 1.365 . S
C733 H750 0.931 . S
C734 C729 1.370 . S
C734 C730 1.395 . S
C734 H751 0.930 . S
C735 Gd682 2.805 . S
C735 O717 1.263 . S
C735 O718 1.252 . S
C735 C729 1.500 . S
C736 H698 0.930 . S
C736 C712 1.417 . S
C736 C737 1.329 . S
C737 C707 1.437 . S
C737 H708 0.929 . S
C737 C736 1.329 . S
H738 C711 0.931 . S
C739 O721 1.265 . S
C739 O722 1.242 . S
C740 O725 1.261 . S
C740 O726 1.252 . S
C741 C744 1.394 . S
C741 C746 1.370 . S
C741 C747 1.500 . S
C742 C745 1.383 . S
C742 C746 1.395 . S
C743 C744 1.396 . S
C743 C745 1.365 . S
C743 H752 0.929 . S
C744 C741 1.394 . S
C744 C743 1.396 . S
C744 H753 0.930 . S
C745 C742 1.383 . S
C745 C743 1.365 . S
C745 H754 0.931 . S
C746 C741 1.370 . S
C746 C742 1.395 . S
C746 H755 0.930 . S
C747 Gd683 2.805 . S
C747 O723 1.263 . S
C747 O724 1.252 . S
C747 C741 1.500 . S
H748 C731 0.929 . S
H749 C732 0.930 . S
H750 C733 0.931 . S
H751 C734 0.930 . S
H752 C743 0.929 . S
H753 C744 0.930 . S
H754 C745 0.931 . S
H755 C746 0.930 . S
C756 C758 1.422 . S
C756 C760 1.415 . S
C756 N762 1.369 . S
C757 C758 1.421 . S
C757 C759 1.417 . S
C757 C769 1.422 1_655 S
C758 C756 1.422 . S
C758 C757 1.421 . S
C758 N768 1.359 1_655 S
C759 C757 1.417 . S
C759 C761 1.329 . S
C759 H778 0.930 . S
C760 C756 1.415 . S
C760 C761 1.437 . S
C760 C764 1.413 . S
C761 C759 1.329 . S
C761 C760 1.437 . S
C761 H783 0.929 . S
N762 C756 1.369 . S
N762 C763 1.338 . S
N762 Gd767 2.622 1_655 S
C763 N762 1.338 . S
C763 C765 1.378 . S
C763 H775 0.929 . S
C764 C760 1.413 . S
C764 C765 1.348 . S
C764 H780 0.931 . S
C765 C763 1.378 . S
C765 C764 1.348 . S
C765 H781 0.930 . S
Gd766 N786 2.622 1_656 S
Gd766 N793 2.570 . S
Gd766 O800 2.368 . S
Gd766 O801 2.463 1_556 S
Gd766 O802 2.427 1_556 S
Gd766 O804 2.388 1_656 S
Gd766 O805 2.386 1_655 S
Gd766 O809 2.307 . S
Gd766 C819 2.805 1_556 S
Gd767 N762 2.622 1_455 S
Gd767 N768 2.570 . S
Gd767 O799 2.386 1_455 S
Gd767 O803 2.307 . S
Gd767 O806 2.353 . S
Gd767 O807 2.468 . S
Gd767 O808 2.427 . S
Gd767 O810 2.388 1_455 S
Gd767 C831 2.805 . S
N768 C758 1.359 1_455 S
N768 Gd767 2.570 . S
N768 C770 1.343 . S
C769 C757 1.422 1_455 S
C769 C771 1.321 . S
C769 H777 0.931 . S
C770 N768 1.343 . S
C770 C771 1.390 . S
C770 H772 0.931 . S
C771 C769 1.321 . S
C771 C770 1.390 . S
C771 H773 0.930 . S
H772 C770 0.931 . S
H773 C771 0.930 . S
H774 C797 0.931 . S
H775 C763 0.929 . S
H776 C798 0.930 . S
H777 C769 0.931 . S
H778 C759 0.930 . S
H779 C788 0.929 . S
H780 C764 0.931 . S
H781 C765 0.930 . S
H782 C820 0.930 . S
H783 C761 0.929 . S
H784 C789 0.931 . S
H785 C790 0.930 . S
N786 Gd766 2.622 1_454 S
N786 C787 1.369 1_554 S
N786 C788 1.338 . S
C787 N786 1.369 1_556 S
C787 C791 1.425 . S
C787 C794 1.422 . S
C788 H779 0.929 . S
C788 N786 1.338 . S
C788 C790 1.378 . S
C789 H784 0.931 . S
C789 C790 1.348 . S
C789 C791 1.388 1_554 S
C790 H785 0.930 . S
C790 C788 1.378 . S
C790 C789 1.348 . S
C791 C787 1.425 . S
C791 C789 1.388 1_556 S
C791 C821 1.456 . S
H792 C821 0.929 . S
N793 Gd766 2.570 . S
N793 C794 1.359 1_655 S
N793 C797 1.343 . S
C794 C787 1.422 . S
C794 N793 1.359 1_455 S
C794 C796 1.421 . S
C795 C796 1.422 1_655 S
C795 C798 1.321 . S
C795 H822 0.931 . S
C796 C794 1.421 . S
C796 C795 1.422 1_455 S
C796 C820 1.417 . S
C797 H774 0.931 . S
C797 N793 1.343 . S
C797 C798 1.390 . S
C798 H776 0.930 . S
C798 C795 1.321 . S
C798 C797 1.390 . S
O799 Gd767 2.386 1_655 S
O799 C811 1.265 . S
O800 Gd766 2.368 . S
O800 C811 1.258 . S
O801 Gd766 2.463 1_554 S
O801 C819 1.278 . S
O802 Gd766 2.427 1_554 S
O802 C819 1.252 . S
O803 Gd767 2.307 . S
O803 C812 1.261 . S
O804 Gd766 2.388 1_454 S
O804 C812 1.252 1_554 S
O805 Gd766 2.386 1_455 S
O805 C823 1.265 . S
O806 Gd767 2.353 . S
O806 C823 1.242 . S
O807 Gd767 2.468 . S
O807 C831 1.263 . S
O808 Gd767 2.427 . S
O808 C831 1.252 . S
O809 Gd766 2.307 . S
O809 C824 1.261 . S
O810 Gd767 2.388 1_655 S
O810 C824 1.252 . S
C811 O799 1.265 . S
C811 O800 1.258 . S
C812 O803 1.261 . S
C812 O804 1.252 1_556 S
C813 C816 1.394 . S
C813 C818 1.370 . S
C813 C819 1.500 . S
C814 C817 1.383 . S
C814 C818 1.395 . S
C815 C816 1.396 . S
C815 C817 1.365 . S
C815 H832 0.929 . S
C816 C813 1.394 . S
C816 C815 1.396 . S
C816 H833 0.930 . S
C817 C814 1.383 . S
C817 C815 1.365 . S
C817 H834 0.931 . S
C818 C813 1.370 . S
C818 C814 1.395 . S
C818 H835 0.930 . S
C819 Gd766 2.805 1_554 S
C819 O801 1.278 . S
C819 O802 1.252 . S
C819 C813 1.500 . S
C820 H782 0.930 . S
C820 C796 1.417 . S
C820 C821 1.329 . S
C821 C791 1.456 . S
C821 H792 0.929 . S
C821 C820 1.329 . S
H822 C795 0.931 . S
C823 O805 1.265 . S
C823 O806 1.242 . S
C824 O809 1.261 . S
C824 O810 1.252 . S
C825 C828 1.394 . S
C825 C830 1.370 . S
C825 C831 1.500 . S
C826 C829 1.383 . S
C826 C830 1.395 . S
C827 C828 1.396 . S
C827 C829 1.365 . S
C827 H836 0.929 . S
C828 C825 1.394 . S
C828 C827 1.396 . S
C828 H837 0.930 . S
C829 C826 1.383 . S
C829 C827 1.365 . S
C829 H838 0.931 . S
C830 C825 1.370 . S
C830 C826 1.395 . S
C830 H839 0.930 . S
C831 Gd767 2.805 . S
C831 O807 1.263 . S
C831 O808 1.252 . S
C831 C825 1.500 . S
H832 C815 0.929 . S
H833 C816 0.930 . S
H834 C817 0.931 . S
H835 C818 0.930 . S
H836 C827 0.929 . S
H837 C828 0.930 . S
H838 C829 0.931 . S
H839 C830 0.930 . S
C840 C842 1.422 . S
C840 C844 1.415 . S
C840 N846 1.369 . S
C841 C842 1.421 . S
C841 C843 1.417 . S
C841 C853 1.422 1_565 S
C842 C840 1.422 . S
C842 C841 1.421 . S
C842 N852 1.359 1_565 S
C843 C841 1.417 . S
C843 C845 1.329 . S
C843 H862 0.930 . S
C844 C840 1.415 . S
C844 C845 1.437 . S
C844 C848 1.413 . S
C845 C843 1.329 . S
C845 C844 1.437 . S
C845 H867 0.929 . S
N846 C840 1.369 . S
N846 C847 1.338 . S
N846 Gd851 2.622 1_565 S
C847 N846 1.338 . S
C847 C849 1.378 . S
C847 H859 0.929 . S
C848 C844 1.413 . S
C848 C849 1.348 . S
C848 H864 0.931 . S
C849 C847 1.378 . S
C849 C848 1.348 . S
C849 H865 0.930 . S
Gd850 N870 2.622 1_565 S
Gd850 N877 2.570 . S
Gd850 O884 2.353 . S
Gd850 O885 2.468 . S
Gd850 O886 2.427 . S
Gd850 O888 2.388 1_565 S
Gd850 O889 2.386 1_565 S
Gd850 O893 2.307 . S
Gd850 C903 2.805 . S
Gd851 N846 2.622 1_545 S
Gd851 N852 2.570 . S
Gd851 O883 2.386 1_545 S
Gd851 O887 2.307 . S
Gd851 O890 2.353 . S
Gd851 O891 2.468 . S
Gd851 O892 2.427 . S
Gd851 O894 2.388 1_545 S
Gd851 C915 2.805 . S
N852 C842 1.359 1_545 S
N852 Gd851 2.570 . S
N852 C854 1.343 . S
C853 C841 1.422 1_545 S
C853 C855 1.321 . S
C853 H861 0.931 . S
C854 N852 1.343 . S
C854 C855 1.390 . S
C854 H856 0.931 . S
C855 C853 1.321 . S
C855 C854 1.390 . S
C855 H857 0.930 . S
H856 C854 0.931 . S
H857 C855 0.930 . S
H858 C881 0.931 . S
H859 C847 0.929 . S
H860 C882 0.930 . S
H861 C853 0.931 . S
H862 C843 0.930 . S
H863 C872 0.929 . S
H864 C848 0.931 . S
H865 C849 0.930 . S
H866 C904 0.930 . S
H867 C845 0.929 . S
H868 C873 0.931 . S
H869 C874 0.930 . S
N870 Gd850 2.622 1_545 S
N870 C871 1.369 . S
N870 C872 1.338 . S
C871 N870 1.369 . S
C871 C875 1.415 . S
C871 C878 1.422 . S
C872 H863 0.929 . S
C872 N870 1.338 . S
C872 C874 1.378 . S
C873 H868 0.931 . S
C873 C874 1.348 . S
C873 C875 1.413 . S
C874 H869 0.930 . S
C874 C872 1.378 . S
C874 C873 1.348 . S
C875 C871 1.415 . S
C875 C873 1.413 . S
C875 C905 1.437 . S
H876 C905 0.929 . S
N877 Gd850 2.570 . S
N877 C878 1.359 1_565 S
N877 C881 1.343 . S
C878 C871 1.422 . S
C878 N877 1.359 1_545 S
C878 C880 1.421 . S
C879 C880 1.422 1_565 S
C879 C882 1.321 . S
C879 H906 0.931 . S
C880 C878 1.421 . S
C880 C879 1.422 1_545 S
C880 C904 1.417 . S
C881 H858 0.931 . S
C881 N877 1.343 . S
C881 C882 1.390 . S
C882 H860 0.930 . S
C882 C879 1.321 . S
C882 C881 1.390 . S
O883 Gd851 2.386 1_565 S
O883 C895 1.265 . S
O884 Gd850 2.353 . S
O884 C895 1.242 . S
O885 Gd850 2.468 . S
O885 C903 1.263 . S
O886 Gd850 2.427 . S
O886 C903 1.252 . S
O887 Gd851 2.307 . S
O887 C896 1.261 . S
O888 Gd850 2.388 1_545 S
O888 C896 1.252 . S
O889 Gd850 2.386 1_545 S
O889 C907 1.265 . S
O890 Gd851 2.353 . S
O890 C907 1.242 . S
O891 Gd851 2.468 . S
O891 C915 1.263 . S
O892 Gd851 2.427 . S
O892 C915 1.252 . S
O893 Gd850 2.307 . S
O893 C908 1.261 . S
O894 Gd851 2.388 1_565 S
O894 C908 1.252 . S
C895 O883 1.265 . S
C895 O884 1.242 . S
C896 O887 1.261 . S
C896 O888 1.252 . S
C897 C900 1.394 . S
C897 C902 1.370 . S
C897 C903 1.500 . S
C898 C901 1.383 . S
C898 C902 1.395 . S
C899 C900 1.396 . S
C899 C901 1.365 . S
C899 H916 0.929 . S
C900 C897 1.394 . S
C900 C899 1.396 . S
C900 H917 0.930 . S
C901 C898 1.383 . S
C901 C899 1.365 . S
C901 H918 0.931 . S
C902 C897 1.370 . S
C902 C898 1.395 . S
C902 H919 0.930 . S
C903 Gd850 2.805 . S
C903 O885 1.263 . S
C903 O886 1.252 . S
C903 C897 1.500 . S
C904 H866 0.930 . S
C904 C880 1.417 . S
C904 C905 1.329 . S
C905 C875 1.437 . S
C905 H876 0.929 . S
C905 C904 1.329 . S
H906 C879 0.931 . S
C907 O889 1.265 . S
C907 O890 1.242 . S
C908 O893 1.261 . S
C908 O894 1.252 . S
C909 C912 1.394 . S
C909 C914 1.370 . S
C909 C915 1.500 . S
C910 C913 1.383 . S
C910 C914 1.395 . S
C911 C912 1.396 . S
C911 C913 1.365 . S
C911 H920 0.929 . S
C912 C909 1.394 . S
C912 C911 1.396 . S
C912 H921 0.930 . S
C913 C910 1.383 . S
C913 C911 1.365 . S
C913 H922 0.931 . S
C914 C909 1.370 . S
C914 C910 1.395 . S
C914 H923 0.930 . S
C915 Gd851 2.805 . S
C915 O891 1.263 . S
C915 O892 1.252 . S
C915 C909 1.500 . S
H916 C899 0.929 . S
H917 C900 0.930 . S
H918 C901 0.931 . S
H919 C902 0.930 . S
H920 C911 0.929 . S
H921 C912 0.930 . S
H922 C913 0.931 . S
H923 C914 0.930 . S
C924 C926 1.422 . S
C924 C928 1.415 . S
C924 N930 1.369 . S
C925 C926 1.421 . S
C925 C927 1.417 . S
C925 C937 1.422 . S
C926 C924 1.422 . S
C926 C925 1.421 . S
C926 N936 1.359 . S
C927 C925 1.417 . S
C927 C929 1.329 . S
C927 H946 0.930 . S
C928 C924 1.415 . S
C928 C929 1.437 . S
C928 C932 1.413 . S
C929 C927 1.329 . S
C929 C928 1.437 . S
C929 H951 0.929 . S
N930 C924 1.369 . S
N930 C931 1.338 . S
N930 Gd935 2.622 . S
C931 N930 1.338 . S
C931 C933 1.378 . S
C931 H943 0.929 . S
C932 C928 1.413 . S
C932 C933 1.348 . S
C932 H948 0.931 . S
C933 C931 1.378 . S
C933 C932 1.348 . S
C933 H949 0.930 . S
Gd934 N954 2.622 . S
Gd934 N961 2.570 . S
Gd934 O968 2.353 . S
Gd934 O969 2.468 . S
Gd934 O970 2.427 . S
Gd934 O972 2.388 . S
Gd934 O973 2.386 . S
Gd934 O977 2.307 . S
Gd934 C987 2.805 . S
Gd935 N930 2.622 . S
Gd935 N936 2.570 . S
Gd935 O967 2.386 . S
Gd935 O971 2.307 . S
Gd935 O974 2.353 . S
Gd935 O975 2.468 . S
Gd935 O976 2.427 . S
Gd935 O978 2.388 . S
Gd935 C999 2.805 . S
N936 C926 1.359 . S
N936 Gd935 2.570 . S
N936 C938 1.343 . S
C937 C925 1.422 . S
C937 C939 1.321 . S
C937 H945 0.931 . S
C938 N936 1.343 . S
C938 C939 1.390 . S
C938 H940 0.931 . S
C939 C937 1.321 . S
C939 C938 1.390 . S
C939 H941 0.930 . S
H940 C938 0.931 . S
H941 C939 0.930 . S
H942 C965 0.931 . S
H943 C931 0.929 . S
H944 C966 0.930 . S
H945 C937 0.931 . S
H946 C927 0.930 . S
H947 C956 0.929 . S
H948 C932 0.931 . S
H949 C933 0.930 . S
H950 C988 0.930 . S
H951 C929 0.929 . S
H952 C957 0.931 . S
H953 C958 0.930 . S
N954 Gd934 2.622 . S
N954 C955 1.369 . S
N954 C956 1.338 . S
C955 N954 1.369 . S
C955 C959 1.415 . S
C955 C962 1.422 . S
C956 H947 0.929 . S
C956 N954 1.338 . S
C956 C958 1.378 . S
C957 H952 0.931 . S
C957 C958 1.348 . S
C957 C959 1.413 . S
C958 H953 0.930 . S
C958 C956 1.378 . S
C958 C957 1.348 . S
C959 C955 1.415 . S
C959 C957 1.413 . S
C959 C989 1.437 . S
H960 C989 0.929 . S
N961 Gd934 2.570 . S
N961 C962 1.359 . S
N961 C965 1.343 . S
C962 C955 1.422 . S
C962 N961 1.359 . S
C962 C964 1.421 . S
C963 C964 1.422 . S
C963 C966 1.321 . S
C963 H990 0.931 . S
C964 C962 1.421 . S
C964 C963 1.422 . S
C964 C988 1.417 . S
C965 H942 0.931 . S
C965 N961 1.343 . S
C965 C966 1.390 . S
C966 H944 0.930 . S
C966 C963 1.321 . S
C966 C965 1.390 . S
O967 Gd935 2.386 . S
O967 C979 1.265 . S
O968 Gd934 2.353 . S
O968 C979 1.242 . S
O969 Gd934 2.468 . S
O969 C987 1.263 . S
O970 Gd934 2.427 . S
O970 C987 1.252 . S
O971 Gd935 2.307 . S
O971 C980 1.261 . S
O972 Gd934 2.388 . S
O972 C980 1.252 . S
O973 Gd934 2.386 . S
O973 C991 1.265 . S
O974 Gd935 2.353 . S
O974 C991 1.242 . S
O975 Gd935 2.468 . S
O975 C999 1.263 . S
O976 Gd935 2.427 . S
O976 C999 1.252 . S
O977 Gd934 2.307 . S
O977 C992 1.261 . S
O978 Gd935 2.388 . S
O978 C992 1.252 . S
C979 O967 1.265 . S
C979 O968 1.242 . S
C980 O971 1.261 . S
C980 O972 1.252 . S
C981 C984 1.394 . S
C981 C986 1.370 . S
C981 C987 1.500 . S
C982 C985 1.383 . S
C982 C986 1.395 . S
C983 C984 1.396 . S
C983 C985 1.365 . S
C983 H1000 0.929 . S
C984 C981 1.394 . S
C984 C983 1.396 . S
C984 H1001 0.930 . S
C985 C982 1.383 . S
C985 C983 1.365 . S
C985 H1002 0.931 . S
C986 C981 1.370 . S
C986 C982 1.395 . S
C986 H1003 0.930 . S
C987 Gd934 2.805 . S
C987 O969 1.263 . S
C987 O970 1.252 . S
C987 C981 1.500 . S
C988 H950 0.930 . S
C988 C964 1.417 . S
C988 C989 1.329 . S
C989 C959 1.437 . S
C989 H960 0.929 . S
C989 C988 1.329 . S
H990 C963 0.931 . S
C991 O973 1.265 . S
C991 O974 1.242 . S
C992 O977 1.261 . S
C992 O978 1.252 . S
C993 C996 1.394 . S
C993 C998 1.370 . S
C993 C999 1.500 . S
C994 C997 1.383 . S
C994 C998 1.395 . S
C995 C996 1.396 . S
C995 C997 1.365 . S
C995 H1004 0.929 . S
C996 C993 1.394 . S
C996 C995 1.396 . S
C996 H1005 0.930 . S
C997 C994 1.383 . S
C997 C995 1.365 . S
C997 H1006 0.931 . S
C998 C993 1.370 . S
C998 C994 1.395 . S
C998 H1007 0.930 . S
C999 Gd935 2.805 . S
C999 O975 1.263 . S
C999 O976 1.252 . S
C999 C993 1.500 . S
H1000 C983 0.929 . S
H1001 C984 0.930 . S
H1002 C985 0.931 . S
H1003 C986 0.930 . S
H1004 C995 0.929 . S
H1005 C996 0.930 . S
H1006 C997 0.931 . S
H1007 C998 0.930 . S
C1008 C1009 1.387 . S
C1008 H1012 0.950 . S
C1008 C1017 1.390 . S
C1009 C1008 1.387 . S
C1009 C1011 1.387 . S
H1010 C1017 0.950 . S
C1011 C1009 1.387 . S
C1011 C1013 1.390 . S
C1011 H1015 0.950 . S
H1012 C1008 0.950 . S
C1013 C1011 1.390 . S
C1013 C1014 1.387 . S
C1013 H1016 0.950 . S
C1014 C1013 1.387 . S
C1014 C1017 1.387 . S
H1015 C1011 0.950 . S
H1016 C1013 0.950 . S
C1017 C1008 1.390 . S
C1017 H1010 0.950 . S
C1017 C1014 1.387 . S
C1018 C1019 1.387 . S
C1018 H1022 0.950 . S
C1018 C1027 1.390 . S
C1019 C1018 1.387 . S
C1019 C1021 1.387 . S
H1020 C1027 0.950 . S
C1021 C1019 1.387 . S
C1021 C1023 1.390 . S
C1021 H1025 0.950 1_545 S
H1022 C1018 0.950 . S
C1023 C1021 1.390 . S
C1023 C1024 1.387 . S
C1023 H1026 0.950 1_545 S
C1024 C1023 1.387 . S
C1024 C1027 1.387 . S
H1025 C1021 0.950 1_565 S
H1026 C1023 0.950 1_565 S
C1027 C1018 1.390 . S
C1027 H1020 0.950 . S
C1027 C1024 1.387 . S
C1028 C1029 1.387 . S
C1028 H1032 0.950 . S
C1028 C1037 1.390 . S
C1029 C1028 1.387 . S
C1029 C1031 1.387 . S
H1030 C1037 0.950 . S
C1031 C1029 1.387 . S
C1031 C1033 1.390 . S
C1031 H1035 0.950 . S
H1032 C1028 0.950 . S
C1033 C1031 1.390 . S
C1033 C1034 1.387 . S
C1033 H1036 0.950 . S
C1034 C1033 1.387 . S
C1034 C1037 1.387 . S
H1035 C1031 0.950 . S
H1036 C1033 0.950 . S
C1037 C1028 1.390 . S
C1037 H1030 0.950 . S
C1037 C1034 1.387 . S
C1038 C1039 1.387 . S
C1038 H1042 0.950 . S
C1038 C1047 1.390 . S
C1039 C1038 1.387 . S
C1039 C1041 1.387 . S
H1040 C1047 0.950 . S
C1041 C1039 1.387 . S
C1041 C1043 1.390 . S
C1041 H1045 0.950 . S
H1042 C1038 0.950 . S
C1043 C1041 1.390 . S
C1043 C1044 1.387 . S
C1043 H1046 0.950 . S
C1044 C1043 1.387 . S
C1044 C1047 1.387 . S
H1045 C1041 0.950 . S
H1046 C1043 0.950 . S
C1047 C1038 1.390 . S
C1047 H1040 0.950 . S
C1047 C1044 1.387 . S
C1048 C1049 1.387 . S
C1048 H1052 0.950 1_565 S
C1048 C1057 1.390 . S
C1049 C1048 1.387 . S
C1049 C1051 1.387 . S
H1050 C1057 0.950 1_545 S
C1051 C1049 1.387 . S
C1051 C1053 1.390 . S
C1051 H1055 0.950 . S
H1052 C1048 0.950 1_545 S
C1053 C1051 1.390 . S
C1053 C1054 1.387 . S
C1053 H1056 0.950 . S
C1054 C1053 1.387 . S
C1054 C1057 1.387 . S
H1055 C1051 0.950 . S
H1056 C1053 0.950 . S
C1057 C1048 1.390 . S
C1057 H1050 0.950 1_565 S
C1057 C1054 1.387 . S
C1058 C1059 1.387 . S
C1058 H1062 0.950 . S
C1058 C1067 1.390 . S
C1059 C1058 1.387 . S
C1059 C1061 1.387 . S
H1060 C1067 0.950 . S
C1061 C1059 1.387 . S
C1061 C1063 1.390 . S
C1061 H1065 0.950 . S
H1062 C1058 0.950 . S
C1063 C1061 1.390 . S
C1063 C1064 1.387 . S
C1063 H1066 0.950 . S
C1064 C1063 1.387 . S
C1064 C1067 1.387 . S
H1065 C1061 0.950 . S
H1066 C1063 0.950 . S
C1067 C1058 1.390 . S
C1067 H1060 0.950 . S
C1067 C1064 1.387 . S
C1068 C1069 1.387 . S
C1068 H1072 0.950 . S
C1068 C1077 1.390 . S
C1069 C1068 1.387 . S
C1069 C1071 1.387 . S
H1070 C1077 0.950 . S
C1071 C1069 1.387 . S
C1071 C1073 1.390 . S
C1071 H1075 0.950 . S
H1072 C1068 0.950 . S
C1073 C1071 1.390 . S
C1073 C1074 1.387 . S
C1073 H1076 0.950 . S
C1074 C1073 1.387 . S
C1074 C1077 1.387 . S
H1075 C1071 0.950 . S
H1076 C1073 0.950 . S
C1077 C1068 1.390 . S
C1077 H1070 0.950 . S
C1077 C1074 1.387 . S
C1078 C1079 1.387 . S
C1078 H1082 0.950 . S
C1078 C1087 1.390 . S
C1079 C1078 1.387 . S
C1079 C1081 1.387 . S
H1080 C1087 0.950 . S
C1081 C1079 1.387 . S
C1081 C1083 1.390 . S
C1081 H1085 0.950 . S
H1082 C1078 0.950 . S
C1083 C1081 1.390 . S
C1083 C1084 1.387 . S
C1083 H1086 0.950 . S
C1084 C1083 1.387 . S
C1084 C1087 1.387 . S
H1085 C1081 0.950 . S
H1086 C1083 0.950 . S
C1087 C1078 1.390 . S
C1087 H1080 0.950 . S
C1087 C1084 1.387 . S
C1088 C1089 1.387 . S
C1088 H1092 0.950 . S
C1088 C1097 1.390 . S
C1089 C1088 1.387 . S
C1089 C1091 1.387 . S
H1090 C1097 0.950 . S
C1091 C1089 1.387 . S
C1091 C1093 1.390 . S
C1091 H1095 0.950 . S
H1092 C1088 0.950 . S
C1093 C1091 1.390 . S
C1093 C1094 1.387 . S
C1093 H1096 0.950 . S
C1094 C1093 1.387 . S
C1094 C1097 1.387 . S
H1095 C1091 0.950 . S
H1096 C1093 0.950 . S
C1097 C1088 1.390 . S
C1097 H1090 0.950 . S
C1097 C1094 1.387 . S
C1098 C1099 1.387 . S
C1098 H1102 0.950 . S
C1098 C1107 1.390 . S
C1099 C1098 1.387 . S
C1099 C1101 1.387 . S
H1100 C1107 0.950 . S
C1101 C1099 1.387 . S
C1101 C1103 1.390 . S
C1101 H1105 0.950 . S
H1102 C1098 0.950 . S
C1103 C1101 1.390 . S
C1103 C1104 1.387 . S
C1103 H1106 0.950 . S
C1104 C1103 1.387 . S
C1104 C1107 1.387 . S
H1105 C1101 0.950 . S
H1106 C1103 0.950 . S
C1107 C1098 1.390 . S
C1107 H1100 0.950 . S
C1107 C1104 1.387 . S
C1108 C1109 1.387 . S
C1108 H1112 0.950 . S
C1108 C1117 1.390 . S
C1109 C1108 1.387 . S
C1109 C1111 1.387 . S
H1110 C1117 0.950 . S
C1111 C1109 1.387 . S
C1111 C1113 1.390 . S
C1111 H1115 0.950 . S
H1112 C1108 0.950 . S
C1113 C1111 1.390 . S
C1113 C1114 1.387 . S
C1113 H1116 0.950 . S
C1114 C1113 1.387 . S
C1114 C1117 1.387 . S
H1115 C1111 0.950 . S
H1116 C1113 0.950 . S
C1117 C1108 1.390 . S
C1117 H1110 0.950 . S
C1117 C1114 1.387 . S
C1118 C1119 1.387 . S
C1118 H1122 0.950 . S
C1118 C1127 1.390 . S
C1119 C1118 1.387 . S
C1119 C1121 1.387 . S
H1120 C1127 0.950 1_455 S
C1121 C1119 1.387 . S
C1121 C1123 1.390 . S
C1121 H1125 0.950 . S
H1122 C1118 0.950 . S
C1123 C1121 1.390 . S
C1123 C1124 1.387 . S
C1123 H1126 0.950 . S
C1124 C1123 1.387 . S
C1124 C1127 1.387 . S
H1125 C1121 0.950 . S
H1126 C1123 0.950 . S
C1127 C1118 1.390 . S
C1127 H1120 0.950 1_655 S
C1127 C1124 1.387 . S
C1128 C1129 1.387 . S
C1128 H1132 0.950 . S
C1128 C1137 1.390 . S
C1129 C1128 1.387 . S
C1129 C1131 1.387 . S
H1130 C1137 0.950 . S
C1131 C1129 1.387 . S
C1131 C1133 1.390 . S
C1131 H1135 0.950 . S
H1132 C1128 0.950 . S
C1133 C1131 1.390 . S
C1133 C1134 1.387 . S
C1133 H1136 0.950 . S
C1134 C1133 1.387 . S
C1134 C1137 1.387 . S
H1135 C1131 0.950 . S
H1136 C1133 0.950 . S
C1137 C1128 1.390 . S
C1137 H1130 0.950 . S
C1137 C1134 1.387 . S
C1138 C1139 1.387 . S
C1138 H1142 0.950 . S
C1138 C1147 1.390 . S
C1139 C1138 1.387 . S
C1139 C1141 1.387 . S
H1140 C1147 0.950 . S
C1141 C1139 1.387 . S
C1141 C1143 1.390 . S
C1141 H1145 0.950 . S
H1142 C1138 0.950 . S
C1143 C1141 1.390 . S
C1143 C1144 1.387 . S
C1143 H1146 0.950 . S
C1144 C1143 1.387 . S
C1144 C1147 1.387 . S
H1145 C1141 0.950 . S
H1146 C1143 0.950 . S
C1147 C1138 1.390 . S
C1147 H1140 0.950 . S
C1147 C1144 1.387 . S
C1148 C1149 1.387 . S
C1148 H1152 0.950 . S
C1148 C1157 1.390 . S
C1149 C1148 1.387 . S
C1149 C1151 1.387 . S
H1150 C1157 0.950 . S
C1151 C1149 1.387 . S
C1151 C1153 1.390 . S
C1151 H1155 0.950 . S
H1152 C1148 0.950 . S
C1153 C1151 1.390 . S
C1153 C1154 1.387 . S
C1153 H1156 0.950 . S
C1154 C1153 1.387 . S
C1154 C1157 1.387 . S
H1155 C1151 0.950 . S
H1156 C1153 0.950 . S
C1157 C1148 1.390 . S
C1157 H1150 0.950 . S
C1157 C1154 1.387 . S
C1158 C1159 1.387 . S
C1158 H1162 0.950 . S
C1158 C1167 1.390 . S
C1159 C1158 1.387 . S
C1159 C1161 1.387 . S
H1160 C1167 0.950 . S
C1161 C1159 1.387 . S
C1161 C1163 1.390 . S
C1161 H1165 0.950 . S
H1162 C1158 0.950 . S
C1163 C1161 1.390 . S
C1163 C1164 1.387 . S
C1163 H1166 0.950 . S
C1164 C1163 1.387 . S
C1164 C1167 1.387 . S
H1165 C1161 0.950 . S
H1166 C1163 0.950 . S
C1167 C1158 1.390 . S
C1167 H1160 0.950 . S
C1167 C1164 1.387 . S
C1168 C1169 1.387 1_554 S
C1168 H1172 0.950 . S
C1168 C1177 1.390 . S
C1169 C1168 1.387 1_556 S
C1169 C1171 1.387 . S
H1170 C1177 0.950 . S
C1171 C1169 1.387 . S
C1171 C1173 1.390 . S
C1171 H1175 0.950 . S
H1172 C1168 0.950 . S
C1173 C1171 1.390 . S
C1173 C1174 1.387 . S
C1173 H1176 0.950 . S
C1174 C1173 1.387 . S
C1174 C1177 1.387 1_556 S
H1175 C1171 0.950 . S
H1176 C1173 0.950 . S
C1177 C1168 1.390 . S
C1177 H1170 0.950 . S
C1177 C1174 1.387 1_554 S
C1178 C1179 1.387 . S
C1178 H1182 0.950 . S
C1178 C1187 1.390 . S
C1179 C1178 1.387 . S
C1179 C1181 1.387 . S
H1180 C1187 0.950 . S
C1181 C1179 1.387 . S
C1181 C1183 1.390 . S
C1181 H1185 0.950 . S
H1182 C1178 0.950 . S
C1183 C1181 1.390 . S
C1183 C1184 1.387 . S
C1183 H1186 0.950 . S
C1184 C1183 1.387 . S
C1184 C1187 1.387 . S
H1185 C1181 0.950 . S
H1186 C1183 0.950 . S
C1187 C1178 1.390 . S
C1187 H1180 0.950 . S
C1187 C1184 1.387 . S
C1188 C1189 1.387 . S
C1188 H1192 0.950 . S
C1188 C1197 1.390 . S
C1189 C1188 1.387 . S
C1189 C1191 1.387 . S
H1190 C1197 0.950 . S
C1191 C1189 1.387 . S
C1191 C1193 1.390 . S
C1191 H1195 0.950 . S
H1192 C1188 0.950 . S
C1193 C1191 1.390 . S
C1193 C1194 1.387 . S
C1193 H1196 0.950 . S
C1194 C1193 1.387 . S
C1194 C1197 1.387 . S
H1195 C1191 0.950 . S
H1196 C1193 0.950 . S
C1197 C1188 1.390 . S
C1197 H1190 0.950 . S
C1197 C1194 1.387 . S
C1198 C1199 1.387 . S
C1198 H1202 0.950 . S
C1198 C1207 1.390 . S
C1199 C1198 1.387 . S
C1199 C1201 1.387 . S
H1200 C1207 0.950 . S
C1201 C1199 1.387 . S
C1201 C1203 1.390 . S
C1201 H1205 0.950 . S
H1202 C1198 0.950 . S
C1203 C1201 1.390 . S
C1203 C1204 1.387 . S
C1203 H1206 0.950 . S
C1204 C1203 1.387 . S
C1204 C1207 1.387 . S
H1205 C1201 0.950 . S
H1206 C1203 0.950 . S
C1207 C1198 1.390 . S
C1207 H1200 0.950 . S
C1207 C1204 1.387 . S
C1208 C1209 1.387 . S
C1208 H1212 0.950 . S
C1208 C1217 1.390 . S
C1209 C1208 1.387 . S
C1209 C1211 1.387 . S
H1210 C1217 0.950 . S
C1211 C1209 1.387 . S
C1211 C1213 1.390 . S
C1211 H1215 0.950 . S
H1212 C1208 0.950 . S
C1213 C1211 1.390 . S
C1213 C1214 1.387 . S
C1213 H1216 0.950 . S
C1214 C1213 1.387 . S
C1214 C1217 1.387 . S
H1215 C1211 0.950 . S
H1216 C1213 0.950 . S
C1217 C1208 1.390 . S
C1217 H1210 0.950 . S
C1217 C1214 1.387 . S
C1218 C1219 1.387 1_556 S
C1218 H1222 0.950 . S
C1218 C1227 1.390 . S
C1219 C1218 1.387 1_554 S
C1219 C1221 1.387 . S
H1220 C1227 0.950 . S
C1221 C1219 1.387 . S
C1221 C1223 1.390 . S
C1221 H1225 0.950 . S
H1222 C1218 0.950 . S
C1223 C1221 1.390 . S
C1223 C1224 1.387 . S
C1223 H1226 0.950 . S
C1224 C1223 1.387 . S
C1224 C1227 1.387 1_554 S
H1225 C1221 0.950 . S
H1226 C1223 0.950 . S
C1227 C1218 1.390 . S
C1227 H1220 0.950 . S
C1227 C1224 1.387 1_556 S
C1228 C1229 1.387 . S
C1228 H1232 0.950 . S
C1228 C1237 1.390 . S
C1229 C1228 1.387 . S
C1229 C1231 1.387 . S
H1230 C1237 0.950 . S
C1231 C1229 1.387 . S
C1231 C1233 1.390 . S
C1231 H1235 0.950 . S
H1232 C1228 0.950 . S
C1233 C1231 1.390 . S
C1233 C1234 1.387 . S
C1233 H1236 0.950 . S
C1234 C1233 1.387 . S
C1234 C1237 1.387 . S
H1235 C1231 0.950 . S
H1236 C1233 0.950 . S
C1237 C1228 1.390 . S
C1237 H1230 0.950 . S
C1237 C1234 1.387 . S
C1238 C1239 1.387 . S
C1238 H1242 0.950 . S
C1238 C1247 1.390 . S
C1239 C1238 1.387 . S
C1239 C1241 1.387 . S
H1240 C1247 0.950 . S
C1241 C1239 1.387 . S
C1241 C1243 1.390 . S
C1241 H1245 0.950 . S
H1242 C1238 0.950 . S
C1243 C1241 1.390 . S
C1243 C1244 1.387 . S
C1243 H1246 0.950 . S
C1244 C1243 1.387 . S
C1244 C1247 1.387 . S
H1245 C1241 0.950 . S
H1246 C1243 0.950 . S
C1247 C1238 1.390 . S
C1247 H1240 0.950 . S
C1247 C1244 1.387 . S
C1248 C1249 1.387 . S
C1248 H1252 0.950 . S
C1248 C1257 1.390 . S
C1249 C1248 1.387 . S
C1249 C1251 1.387 . S
H1250 C1257 0.950 . S
C1251 C1249 1.387 . S
C1251 C1253 1.390 . S
C1251 H1255 0.950 . S
H1252 C1248 0.950 . S
C1253 C1251 1.390 . S
C1253 C1254 1.387 . S
C1253 H1256 0.950 . S
C1254 C1253 1.387 . S
C1254 C1257 1.387 . S
H1255 C1251 0.950 . S
H1256 C1253 0.950 . S
C1257 C1248 1.390 . S
C1257 H1250 0.950 . S
C1257 C1254 1.387 . S
C1258 C1259 1.387 . S
C1258 H1262 0.950 . S
C1258 C1267 1.390 . S
C1259 C1258 1.387 . S
C1259 C1261 1.387 . S
H1260 C1267 0.950 . S
C1261 C1259 1.387 . S
C1261 C1263 1.390 . S
C1261 H1265 0.950 . S
H1262 C1258 0.950 . S
C1263 C1261 1.390 . S
C1263 C1264 1.387 . S
C1263 H1266 0.950 . S
C1264 C1263 1.387 . S
C1264 C1267 1.387 . S
H1265 C1261 0.950 . S
H1266 C1263 0.950 . S
C1267 C1258 1.390 . S
C1267 H1260 0.950 . S
C1267 C1264 1.387 . S
C1268 C1269 1.387 . S
C1268 H1272 0.950 . S
C1268 C1277 1.390 . S
C1269 C1268 1.387 . S
C1269 C1271 1.387 . S
H1270 C1277 0.950 . S
C1271 C1269 1.387 . S
C1271 C1273 1.390 . S
C1271 H1275 0.950 . S
H1272 C1268 0.950 . S
C1273 C1271 1.390 . S
C1273 C1274 1.387 . S
C1273 H1276 0.950 . S
C1274 C1273 1.387 . S
C1274 C1277 1.387 . S
H1275 C1271 0.950 . S
H1276 C1273 0.950 . S
C1277 C1268 1.390 . S
C1277 H1270 0.950 . S
C1277 C1274 1.387 . S
C1278 C1279 1.387 . S
C1278 H1282 0.950 . S
C1278 C1287 1.390 . S
C1279 C1278 1.387 . S
C1279 C1281 1.387 . S
H1280 C1287 0.950 . S
C1281 C1279 1.387 . S
C1281 C1283 1.390 . S
C1281 H1285 0.950 . S
H1282 C1278 0.950 . S
C1283 C1281 1.390 . S
C1283 C1284 1.387 . S
C1283 H1286 0.950 . S
C1284 C1283 1.387 . S
C1284 C1287 1.387 . S
H1285 C1281 0.950 . S
H1286 C1283 0.950 . S
C1287 C1278 1.390 . S
C1287 H1280 0.950 . S
C1287 C1284 1.387 . S
C1288 C1289 1.387 . S
C1288 H1292 0.950 . S
C1288 C1297 1.390 . S
C1289 C1288 1.387 . S
C1289 C1291 1.387 . S
H1290 C1297 0.950 . S
C1291 C1289 1.387 . S
C1291 C1293 1.390 . S
C1291 H1295 0.950 . S
H1292 C1288 0.950 . S
C1293 C1291 1.390 . S
C1293 C1294 1.387 . S
C1293 H1296 0.950 . S
C1294 C1293 1.387 . S
C1294 C1297 1.387 . S
H1295 C1291 0.950 . S
H1296 C1293 0.950 . S
C1297 C1288 1.390 . S
C1297 H1290 0.950 . S
C1297 C1294 1.387 . S
C1298 C1299 1.387 . S
C1298 H1302 0.950 . S
C1298 C1307 1.390 . S
C1299 C1298 1.387 . S
C1299 C1301 1.387 . S
H1300 C1307 0.950 . S
C1301 C1299 1.387 . S
C1301 C1303 1.390 . S
C1301 H1305 0.950 . S
H1302 C1298 0.950 . S
C1303 C1301 1.390 . S
C1303 C1304 1.387 . S
C1303 H1306 0.950 . S
C1304 C1303 1.387 . S
C1304 C1307 1.387 . S
H1305 C1301 0.950 . S
H1306 C1303 0.950 . S
C1307 C1298 1.390 . S
C1307 H1300 0.950 . S
C1307 C1304 1.387 . S
C1308 C1309 1.387 . S
C1308 H1312 0.950 . S
C1308 C1317 1.390 . S
C1309 C1308 1.387 . S
C1309 C1311 1.387 . S
H1310 C1317 0.950 . S
C1311 C1309 1.387 . S
C1311 C1313 1.390 . S
C1311 H1315 0.950 . S
H1312 C1308 0.950 . S
C1313 C1311 1.390 . S
C1313 C1314 1.387 . S
C1313 H1316 0.950 . S
C1314 C1313 1.387 . S
C1314 C1317 1.387 . S
H1315 C1311 0.950 . S
H1316 C1313 0.950 . S
C1317 C1308 1.390 . S
C1317 H1310 0.950 . S
C1317 C1314 1.387 . S
C1318 C1319 1.387 . S
C1318 H1322 0.950 . S
C1318 C1327 1.390 . S
C1319 C1318 1.387 . S
C1319 C1321 1.387 . S
H1320 C1327 0.950 . S
C1321 C1319 1.387 . S
C1321 C1323 1.390 . S
C1321 H1325 0.950 . S
H1322 C1318 0.950 . S
C1323 C1321 1.390 . S
C1323 C1324 1.387 . S
C1323 H1326 0.950 . S
C1324 C1323 1.387 . S
C1324 C1327 1.387 . S
H1325 C1321 0.950 . S
H1326 C1323 0.950 . S
C1327 C1318 1.390 . S
C1327 H1320 0.950 . S
C1327 C1324 1.387 . S
C1328 C1329 1.387 . S
C1328 H1332 0.950 . S
C1328 C1337 1.390 . S
C1329 C1328 1.387 . S
C1329 C1331 1.387 . S
H1330 C1337 0.950 . S
C1331 C1329 1.387 . S
C1331 C1333 1.390 . S
C1331 H1335 0.950 . S
H1332 C1328 0.950 . S
C1333 C1331 1.390 . S
C1333 C1334 1.387 . S
C1333 H1336 0.950 . S
C1334 C1333 1.387 . S
C1334 C1337 1.387 . S
H1335 C1331 0.950 . S
H1336 C1333 0.950 . S
C1337 C1328 1.390 . S
C1337 H1330 0.950 . S
C1337 C1334 1.387 . S
C1338 C1339 1.387 . S
C1338 H1342 0.950 . S
C1338 C1347 1.390 . S
C1339 C1338 1.387 . S
C1339 C1341 1.387 . S
H1340 C1347 0.950 . S
C1341 C1339 1.387 . S
C1341 C1343 1.390 . S
C1341 H1345 0.950 . S
H1342 C1338 0.950 . S
C1343 C1341 1.390 . S
C1343 C1344 1.387 . S
C1343 H1346 0.950 . S
C1344 C1343 1.387 . S
C1344 C1347 1.387 . S
H1345 C1341 0.950 . S
H1346 C1343 0.950 . S
C1347 C1338 1.390 . S
C1347 H1340 0.950 . S
C1347 C1344 1.387 . S
C1348 C1349 1.387 . S
C1348 H1352 0.950 . S
C1348 C1357 1.390 . S
C1349 C1348 1.387 . S
C1349 C1351 1.387 . S
H1350 C1357 0.950 . S
C1351 C1349 1.387 . S
C1351 C1353 1.390 . S
C1351 H1355 0.950 . S
H1352 C1348 0.950 . S
C1353 C1351 1.390 . S
C1353 C1354 1.387 . S
C1353 H1356 0.950 . S
C1354 C1353 1.387 . S
C1354 C1357 1.387 . S
H1355 C1351 0.950 . S
H1356 C1353 0.950 . S
C1357 C1348 1.390 . S
C1357 H1350 0.950 . S
C1357 C1354 1.387 . S
C1358 C1359 1.387 . S
C1358 H1362 0.950 . S
C1358 C1367 1.390 . S
C1359 C1358 1.387 . S
C1359 C1361 1.387 . S
H1360 C1367 0.950 . S
C1361 C1359 1.387 . S
C1361 C1363 1.390 . S
C1361 H1365 0.950 . S
H1362 C1358 0.950 . S
C1363 C1361 1.390 . S
C1363 C1364 1.387 . S
C1363 H1366 0.950 . S
C1364 C1363 1.387 . S
C1364 C1367 1.387 . S
H1365 C1361 0.950 . S
H1366 C1363 0.950 . S
C1367 C1358 1.390 . S
C1367 H1360 0.950 . S
C1367 C1364 1.387 . S
C1009 C487 1.734 . S
C1014 C58 1.250 . S
C1019 C142 1.423 . S
C1024 C67 2.045 . S
C1029 C226 1.366 . S
C1034 C151 1.865 . S
C1039 C235 1.732 . S
C1044 C310 1.248 . S
C1049 C319 2.048 . S
C1054 C394 1.425 . S
C1059 C478 1.367 . S
C1064 C403 1.865 . S
C1069 C655 1.733 . S
C1074 C562 1.251 . S
C1079 C646 1.369 . S
C1084 C739 1.867 . S
C1089 C823 2.046 . S
C1094 C730 1.422 . S
C1099 C907 1.735 . S
C1104 C814 1.254 . S
C1109 C991 1.865 . S
C1114 C898 1.371 . S
C1119 C571 2.049 . S
C1124 C982 1.427 . S
C1129 C980 3.696 . S
C1134 C55 3.607 . S
C1139 C139 3.011 . S
C1144 C560 3.096 . S
C1149 C644 3.421 . S
C1154 C223 3.317 . S
C1159 C728 3.697 . S
C1164 C307 3.608 . S
C1169 C812 3.100 . S
C1174 C391 3.010 1_556 S
C1179 C475 3.318 . S
C1184 C896 3.420 . S
C1189 C559 3.605 . S
C1194 C140 3.699 . S
C1199 C643 3.318 . S
C1204 C224 3.419 . S
C1209 C308 3.100 . S
C1214 C727 3.009 . S
C1219 C392 3.697 . S
C1224 C811 3.608 1_554 S
C1229 C895 3.318 . S
C1234 C476 3.419 . S
C1239 C979 3.012 . S
C1244 C56 3.098 . S
C1249 C572 2.844 . S
C1254 C68 2.845 . S
C1259 C152 1.962 . S
C1264 C656 1.994 . S
C1269 C740 1.965 . S
C1274 C236 1.996 . S
C1279 C320 2.844 . S
C1284 C824 2.847 . S
C1289 C908 1.993 . S
C1294 C404 1.963 . S
C1299 C992 1.964 . S
C1304 C488 1.997 . S
C1309 C574 0.568 . S
C1314 C70 0.568 . S
C1319 C658 0.562 . S
C1324 C154 0.547 . S
C1329 C742 0.547 . S
C1334 C238 0.553 . S
C1339 C322 0.561 . S
C1344 C826 0.557 . S
C1349 C910 0.557 . S
C1354 C406 0.551 . S
C1359 C994 0.553 . S
C1364 C490 0.559 . S
