# Generated by pormake.
# Topology sml, (6)-cn, num edge types: 1
# Building blocks:
#     Node 0, Type 0, BuildingBlock: OJICUG_clean_sbu_0, # of connection points: 6
#     Node 1, Type 0, BuildingBlock: OJICUG_clean_sbu_0, # of connection points: 6
#     Node 2, Type 0, BuildingBlock: OJICUG_clean_sbu_0, # of connection points: 6
#     Node 3, Type 0, BuildingBlock: OJICUG_clean_sbu_0, # of connection points: 6
#     Node 4, Type 0, BuildingBlock: OJICUG_clean_sbu_0, # of connection points: 6
#     Node 5, Type 0, BuildingBlock: OJICUG_clean_sbu_0, # of connection points: 6
#     Edge 6, Type (0, 0), BuildingBlock: MIFKUJ_clean_linker_0, # of connection points: 2
#     Edge 7, Type (0, 0), BuildingBlock: MIFKUJ_clean_linker_0, # of connection points: 2
#     Edge 8, Type (0, 0), BuildingBlock: MIFKUJ_clean_linker_0, # of connection points: 2
#     Edge 9, Type (0, 0), BuildingBlock: MIFKUJ_clean_linker_0, # of connection points: 2
#     Edge 10, Type (0, 0), BuildingBlock: MIFKUJ_clean_linker_0, # of connection points: 2
#     Edge 11, Type (0, 0), BuildingBlock: MIFKUJ_clean_linker_0, # of connection points: 2
#     Edge 12, Type (0, 0), BuildingBlock: MIFKUJ_clean_linker_0, # of connection points: 2
#     Edge 13, Type (0, 0), BuildingBlock: MIFKUJ_clean_linker_0, # of connection points: 2
#     Edge 14, Type (0, 0), BuildingBlock: MIFKUJ_clean_linker_0, # of connection points: 2
#     Edge 15, Type (0, 0), BuildingBlock: MIFKUJ_clean_linker_0, # of connection points: 2
#     Edge 16, Type (0, 0), BuildingBlock: MIFKUJ_clean_linker_0, # of connection points: 2
#     Edge 17, Type (0, 0), BuildingBlock: MIFKUJ_clean_linker_0, # of connection points: 2
#     Edge 18, Type (0, 0), BuildingBlock: MIFKUJ_clean_linker_0, # of connection points: 2
#     Edge 19, Type (0, 0), BuildingBlock: MIFKUJ_clean_linker_0, # of connection points: 2
#     Edge 20, Type (0, 0), BuildingBlock: MIFKUJ_clean_linker_0, # of connection points: 2
#     Edge 21, Type (0, 0), BuildingBlock: MIFKUJ_clean_linker_0, # of connection points: 2
#     Edge 22, Type (0, 0), BuildingBlock: MIFKUJ_clean_linker_0, # of connection points: 2
#     Edge 23, Type (0, 0), BuildingBlock: MIFKUJ_clean_linker_0, # of connection points: 2
# Relax obj value: 0.230
# Max RMSD: 0.261
# Mean RMSD: 0.261
data_MOF--net-sml--node1-OJICUG_clean_sbu_0--edge1-MIFKUJ_clean_linker_0
_symmetry_space_group_name_H-M    P1
_symmetry_Int_Tables_number       1
_symmetry_cell_setting            triclinic
loop_
_symmetry_equiv_pos_as_xyz
'x, y, z'
_cell_length_a     53.148375
_cell_length_b     53.148175
_cell_length_c     19.725896
_cell_angle_alpha  90.120152
_cell_angle_beta   90.039254
_cell_angle_gamma 119.99987
loop_
_atom_site_label
_atom_site_type_symbol
_atom_site_fract_x
_atom_site_fract_y
_atom_site_fract_z
_atom_type_partial_charge
Sc0 Sc 0.19421 0.38326 0.00155 0.0
Sc1 Sc 0.25815 0.44506 0.05884 0.0
Sc2 Sc 0.20957 0.453 0.95105 0.0
O3 O 0.22066 0.42717 0.00388 0.0
C4 C 0.19133 0.4005 0.84832 0.0
C5 C 0.25748 0.39076 0.98815 0.0
C6 C 0.27823 0.48738 0.93129 0.0
C7 C 0.21505 0.39278 0.15472 0.0
C8 C 0.14826 0.40484 0.00946 0.0
C9 C 0.23361 0.4875 0.09027 0.0
O10 O 0.18828 0.3825 0.89421 0.0
O11 O 0.27096 0.41609 0.01409 0.0
O12 O 0.25278 0.48072 0.9123 0.0
O13 O 0.19677 0.37856 0.10857 0.0
O14 O 0.16518 0.42965 0.98434 0.0
O15 O 0.2493 0.47656 0.10646 0.0
O16 O 0.15574 0.38588 0.01939 0.0
O17 O 0.23817 0.41671 0.14379 0.0
O18 O 0.21847 0.48107 0.03648 0.0
O19 O 0.22997 0.37619 0.98265 0.0
O20 O 0.19945 0.42699 0.86057 0.0
O21 O 0.28306 0.47594 0.98232 0.0
Sc22 Sc 0.75465 0.20487 0.24543 0.0
Sc23 Sc 0.80894 0.26214 0.34339 0.0
Sc24 Sc 0.81885 0.20464 0.28956 0.0
O25 O 0.79409 0.22394 0.2926 0.0
C26 C 0.75528 0.15044 0.31095 0.0
C27 C 0.74164 0.23 0.37953 0.0
C28 C 0.82794 0.22701 0.44159 0.0
C29 C 0.77839 0.27178 0.21453 0.0
C30 C 0.79312 0.19301 0.14048 0.0
C31 C 0.86647 0.27139 0.27099 0.0
O32 O 0.74177 0.16278 0.28826 0.0
O33 O 0.76798 0.24808 0.39394 0.0
O34 O 0.82747 0.20993 0.39604 0.0
O35 O 0.76223 0.24503 0.19967 0.0
O36 O 0.81275 0.19697 0.18276 0.0
O37 O 0.85136 0.28127 0.29746 0.0
O38 O 0.77077 0.19467 0.15572 0.0
O39 O 0.79629 0.28071 0.26362 0.0
O40 O 0.8576 0.24441 0.26634 0.0
O41 O 0.73405 0.21314 0.32855 0.0
O42 O 0.78279 0.16275 0.31277 0.0
O43 O 0.8224 0.24723 0.42966 0.0
Sc44 Sc 0.62751 0.80344 0.55656 0.0
Sc45 Sc 0.56504 0.80176 0.62215 0.0
Sc46 Sc 0.55823 0.74465 0.51803 0.0
O47 O 0.58353 0.78333 0.56539 0.0
C48 C 0.60678 0.778 0.40735 0.0
C49 C 0.61533 0.85592 0.54305 0.0
C50 C 0.51963 0.77501 0.50098 0.0
C51 C 0.62056 0.81658 0.71099 0.0
C52 C 0.611 0.73781 0.57475 0.0
C53 C 0.52682 0.73461 0.6605 0.0
O54 O 0.62581 0.79408 0.45051 0.0
O55 O 0.59213 0.84403 0.57797 0.0
O56 O 0.52615 0.7558 0.48453 0.0
O57 O 0.63528 0.81504 0.66221 0.0
O58 O 0.58574 0.72757 0.54935 0.0
O59 O 0.53569 0.76131 0.67257 0.0
O60 O 0.62845 0.76483 0.58217 0.0
O61 O 0.59477 0.81168 0.70421 0.0
O62 O 0.5338 0.72585 0.60771 0.0
O63 O 0.63013 0.84377 0.52962 0.0
O64 O 0.58066 0.75993 0.42318 0.0
O65 O 0.53285 0.79377 0.54711 0.0
Sc66 Sc 0.79529 0.56237 0.98158 0.0
Sc67 Sc 0.73804 0.56371 0.06946 0.0
Sc68 Sc 0.80091 0.62913 0.02662 0.0
O69 O 0.77805 0.58499 0.02587 0.0
C70 C 0.85036 0.61362 0.05718 0.0
C71 C 0.76453 0.52333 0.11049 0.0
C72 C 0.77366 0.61469 0.17486 0.0
C73 C 0.7282 0.52569 0.93749 0.0
C74 C 0.81366 0.61438 0.87831 0.0
C75 C 0.73711 0.61688 -0.00375 0.0
O76 O 0.83761 0.58906 0.02747 0.0
O77 O 0.74565 0.53125 0.1168 0.0
O78 O 0.7916 0.6317 0.13119 0.0
O79 O 0.75465 0.53211 0.93192 0.0
O80 O 0.81266 0.63149 0.9218 0.0
O81 O 0.72452 0.59225 0.02523 0.0
O82 O 0.80775 0.58865 0.89194 0.0
O83 O 0.71936 0.5364 0.98285 0.0
O84 O 0.76453 0.63244 0.99251 0.0
O85 O 0.7845 0.53383 0.06624 0.0
O86 O 0.83959 0.63016 0.06118 0.0
O87 O 0.75333 0.5892 0.1606 0.0
Sc88 Sc 0.18788 0.81131 0.36866 0.0
Sc89 Sc 0.19027 0.74918 0.42046 0.0
Sc90 Sc 0.24688 0.80294 0.32178 0.0
O91 O 0.20834 0.78773 0.37031 0.0
C92 C 0.21213 0.81934 0.21754 0.0
C93 C 0.13528 0.74724 0.34859 0.0
C94 C 0.21584 0.73444 0.29145 0.0
C95 C 0.17686 0.7876 0.52074 0.0
C96 C 0.25335 0.86075 0.38912 0.0
C97 C 0.25808 0.77683 0.45477 0.0
O98 O 0.19661 0.82177 0.26309 0.0
O99 O 0.14698 0.73525 0.38184 0.0
O100 O 0.23579 0.76062 0.28174 0.0
O101 O 0.17656 0.80393 0.47422 0.0
O102 O 0.26363 0.84691 0.35803 0.0
O103 O 0.2315 0.75765 0.46351 0.0
O104 O 0.22632 0.85024 0.39917 0.0
O105 O 0.18268 0.7675 0.50981 0.0
O106 O 0.26656 0.79588 0.40845 0.0
O107 O 0.14784 0.77437 0.33757 0.0
O108 O 0.23052 0.81134 0.23018 0.0
O109 O 0.1964 0.72725 0.33657 0.0
Sc110 Sc 0.4408 0.23048 0.6598 0.0
Sc111 Sc 0.443 0.18775 0.79305 0.0
Sc112 Sc 0.3756 0.17219 0.7225 0.0
O113 O 0.41984 0.19682 0.72515 0.0
C114 C 0.38607 0.2362 0.70464 0.0
C115 C 0.47698 0.25679 0.79641 0.0
C116 C 0.38733 0.17485 0.88038 0.0
C117 C 0.48481 0.2064 0.66455 0.0
C118 C 0.39044 0.18369 0.56552 0.0
C119 C 0.39517 0.12491 0.73961 0.0
O120 O 0.41156 0.24658 0.68069 0.0
O121 O 0.46924 0.23257 0.82524 0.0
O122 O 0.37091 0.17103 0.83023 0.0
O123 O 0.47332 0.21904 0.63312 0.0
O124 O 0.37374 0.16957 0.61406 0.0
O125 O 0.42007 0.14222 0.76469 0.0
O126 O 0.41541 0.2058 0.57446 0.0
O127 O 0.47582 0.19427 0.72162 0.0
O128 O 0.37688 0.13261 0.72334 0.0
O129 O 0.46843 0.2589 0.73769 0.0
O130 O 0.3705 0.20976 0.72193 0.0
O131 O 0.41357 0.181 0.87448 0.0
H132 H 0.41572 0.29577 0.70016 0.0
H133 H 0.39792 0.32832 0.73487 0.0
H134 H 0.31336 0.25433 0.77415 0.0
H135 H 0.33071 0.2217 0.73906 0.0
H136 H 0.31003 0.29882 0.71301 0.0
H137 H 0.36224 0.2856 0.9005 0.0
H138 H 0.4058 0.28833 0.9523 0.0
H139 H 0.45385 0.38031 0.91709 0.0
H140 H 0.41062 0.37805 0.86418 0.0
H141 H 0.2378 0.3342 0.95411 0.0
H142 H 0.26404 0.31423 0.89461 0.0
H143 H 0.34124 0.39887 0.89273 0.0
H144 H 0.31522 0.41905 0.95396 0.0
H145 H 0.35444 0.35773 0.9203 0.0
H146 H 0.29915 0.37186 0.74925 0.0
H147 H 0.25566 0.36856 0.69538 0.0
H148 H 0.21377 0.27546 0.6969 0.0
H149 H 0.25678 0.27814 0.75151 0.0
C150 C 0.39319 0.28643 0.71512 0.0
C151 C 0.3747 0.2561 0.71749 0.0
C152 C 0.38313 0.30507 0.73515 0.0
C153 C 0.35446 0.29366 0.75783 0.0
C154 C 0.33559 0.26353 0.7569 0.0
C155 C 0.3456 0.24491 0.73712 0.0
C156 C 0.34429 0.31267 0.78681 0.0
C157 C 0.31966 0.31171 0.75836 0.0
C158 C 0.35754 0.33016 0.84468 0.0
C159 C 0.38332 0.3316 0.8777 0.0
C160 C 0.38215 0.30638 0.90344 0.0
C161 C 0.40676 0.30784 0.93303 0.0
C162 C 0.43261 0.33446 0.93776 0.0
C163 C 0.43384 0.3597 0.91323 0.0
C164 C 0.40928 0.35834 0.88348 0.0
C165 C 0.26042 0.3486 0.9415 0.0
C166 C 0.27436 0.37827 0.95838 0.0
C167 C 0.27533 0.33718 0.90702 0.0
C168 C 0.30436 0.35524 0.88764 0.0
C169 C 0.31875 0.38464 0.90666 0.0
C170 C 0.30388 0.39608 0.94183 0.0
C171 C 0.31944 0.34307 0.84789 0.0
C172 C 0.34508 0.34539 0.87415 0.0
C173 C 0.30714 0.32686 0.78778 0.0
C174 C 0.28119 0.32522 0.75487 0.0
C175 C 0.2806 0.35068 0.73852 0.0
C176 C 0.25604 0.34892 0.70777 0.0
C177 C 0.23198 0.32182 0.69287 0.0
C178 C 0.23243 0.29643 0.7085 0.0
C179 C 0.25691 0.29806 0.73924 0.0
H180 H 0.21297 0.32042 0.66921 0.0
H181 H 0.45166 0.33554 0.96054 0.0
H182 H 0.10147 0.35111 0.02986 0.0
H183 H 0.05255 0.33911 0.06295 0.0
H184 H 0.07867 0.43011 0.0657 0.0
H185 H 0.12796 0.44247 0.0319 0.0
H186 H 0.04773 0.39798 0.18378 0.0
H187 H 0.03624 0.39416 0.94528 0.0
H188 H 0.04151 0.38191 0.82752 0.0
H189 H 0.99117 0.29098 0.87374 0.0
H190 H 0.98599 0.30265 0.9921 0.0
H191 H 0.89401 0.33115 0.26553 0.0
H192 H 0.94079 0.36399 0.21175 0.0
H193 H 0.95012 0.29051 0.15635 0.0
H194 H 0.90387 0.25779 0.20892 0.0
H195 H 0.96171 0.32772 0.0506 0.0
H196 H 0.98544 0.33246 0.29218 0.0
H197 H 0.9819 0.34362 0.41208 0.0
H198 H 0.00981 0.43214 0.35984 0.0
H199 H 0.01319 0.42138 0.23944 0.0
C200 C 0.09686 0.36862 0.03724 0.0
C201 C 0.11855 0.39772 0.02821 0.0
C202 C 0.06888 0.36172 0.05576 0.0
C203 C 0.06206 0.38375 0.06597 0.0
C204 C 0.08359 0.41287 0.05752 0.0
C205 C 0.11163 0.41982 0.03809 0.0
C206 C 0.03251 0.37576 0.08814 0.0
C207 C 0.0288 0.38329 0.15405 0.0
C208 C 0.00799 0.35655 0.04918 0.0
C209 C 0.0108 0.34932 0.97777 0.0
C210 C 0.02644 0.37154 0.9305 0.0
C211 C 0.0294 0.3647 0.86359 0.0
C212 C 0.0167 0.33569 0.84317 0.0
C213 C 0.00098 0.31345 0.88961 0.0
C214 C 0.99798 0.32018 0.95662 0.0
C215 C 0.9061 0.32204 0.24207 0.0
C216 C 0.89516 0.29181 0.24162 0.0
C217 C 0.93276 0.34082 0.21135 0.0
C218 C 0.94875 0.3296 0.17991 0.0
C219 C 0.93794 0.29956 0.17981 0.0
C220 C 0.91151 0.28088 0.21036 0.0
C221 C 0.97709 0.34863 0.14752 0.0
C222 C 0.98053 0.34324 0.07948 0.0
C223 C 0.00132 0.36966 0.18463 0.0
C224 C 0.99916 0.37603 0.25682 0.0
C225 C 0.99056 0.35423 0.30622 0.0
C226 C 0.98864 0.36049 0.37426 0.0
C227 C 0.99552 0.38854 0.39353 0.0
C228 C 0.00441 0.41041 0.34481 0.0
C229 C 0.00633 0.40424 0.27669 0.0
H230 H 0.99404 0.39336 0.44623 0.0
H231 H 0.01903 0.33044 0.79135 0.0
H232 H 0.69873 0.10933 0.2836 0.0
H233 H 0.67248 0.05912 0.32429 0.0
H234 H 0.74769 0.07448 0.44073 0.0
H235 H 0.77419 0.12412 0.39882 0.0
H236 H 0.72848 0.02639 0.37872 0.0
H237 H 0.68613 0.06787 0.51808 0.0
H238 H 0.66169 0.0953 0.54785 0.0
H239 H 0.58704 0.03605 0.43083 0.0
H240 H 0.61121 0.00825 0.40006 0.0
H241 H 0.61651 0.90133 0.60951 0.0
H242 H 0.63841 0.9516 0.57023 0.0
H243 H 0.65771 0.92638 0.37756 0.0
H244 H 0.63777 0.87662 0.41866 0.0
H245 H 0.62996 0.97987 0.47989 0.0
H246 H 0.71983 0.97968 0.31096 0.0
H247 H 0.74868 0.95504 0.30524 0.0
H248 H 0.73618 0.93712 0.51851 0.0
H249 H 0.70778 0.96216 0.52581 0.0
C250 C 0.70956 0.10199 0.31812 0.0
C251 C 0.73858 0.12056 0.33751 0.0
C252 C 0.69452 0.07335 0.34156 0.0
C253 C 0.7081 0.06306 0.38572 0.0
C254 C 0.73685 0.08184 0.40621 0.0
C255 C 0.75197 0.11023 0.38219 0.0
C256 C 0.6929 0.03245 0.40886 0.0
C257 C 0.70692 0.01621 0.40078 0.0
C258 C 0.66508 0.01935 0.43907 0.0
C259 C 0.6506 0.0362 0.45614 0.0
C260 C 0.66461 0.06085 0.49813 0.0
C261 C 0.65076 0.07642 0.51535 0.0
C262 C 0.62284 0.06752 0.49103 0.0
C263 C 0.60869 0.04296 0.44952 0.0
C264 C 0.62243 0.02725 0.43227 0.0
C265 C 0.62542 0.90663 0.55876 0.0
C266 C 0.62593 0.88542 0.51734 0.0
C267 C 0.63782 0.93527 0.53623 0.0
C268 C 0.65032 0.94293 0.4714 0.0
C269 C 0.64911 0.92122 0.42853 0.0
C270 C 0.63759 0.89281 0.45183 0.0
C271 C 0.66553 0.97376 0.4497 0.0
C272 C 0.65147 0.98999 0.45761 0.0
C273 C 0.69398 0.98731 0.42236 0.0
C274 C 0.71134 0.97248 0.41869 0.0
C275 C 0.72336 0.97061 0.3567 0.0
C276 C 0.73963 0.95657 0.35318 0.0
C277 C 0.74412 0.94439 0.41139 0.0
C278 C 0.73255 0.94642 0.47337 0.0
C279 C 0.71636 0.96054 0.47723 0.0
H280 H 0.75666 0.93345 0.4085 0.0
H281 H 0.61211 0.07958 0.50454 0.0
H282 H 0.66592 0.74793 0.59558 0.0
H283 H 0.68031 0.71782 0.65902 0.0
H284 H 0.59027 0.65237 0.68414 0.0
H285 H 0.5756 0.68246 0.6202 0.0
H286 H 0.6201 0.66954 0.80438 0.0
H287 H 0.63204 0.63622 0.59097 0.0
H288 H 0.64785 0.63902 0.47246 0.0
H289 H 0.73712 0.6878 0.53511 0.0
H290 H 0.72187 0.6858 0.65388 0.0
H291 H 0.67755 0.58953 0.98489 0.0
H292 H 0.64949 0.60291 0.90935 0.0
H293 H 0.72851 0.67905 0.84629 0.0
H294 H 0.75661 0.6662 0.9212 0.0
H295 H 0.69525 0.64489 0.73888 0.0
H296 H 0.68386 0.68649 0.94576 0.0
H297 H 0.66917 0.68744 0.06378 0.0
H298 H 0.58052 0.62624 0.01301 0.0
H299 H 0.59477 0.62462 0.89475 0.0
C300 C 0.64918 0.72686 0.61333 0.0
C301 C 0.61965 0.71756 0.60298 0.0
C302 C 0.65744 0.70961 0.64928 0.0
C303 C 0.63634 0.6828 0.67583 0.0
C304 C 0.60684 0.67293 0.66359 0.0
C305 C 0.59854 0.69006 0.62681 0.0
C306 C 0.64536 0.66694 0.72222 0.0
C307 C 0.63602 0.66347 0.78983 0.0
C308 C 0.6664 0.65945 0.70307 0.0
C309 C 0.67576 0.661 0.63147 0.0
C310 C 0.65504 0.6478 0.57947 0.0
C311 C 0.66391 0.6492 0.51221 0.0
C312 C 0.69347 0.66362 0.49624 0.0
C313 C 0.71422 0.67666 0.54753 0.0
C314 C 0.70547 0.67537 0.61487 0.0
C315 C 0.6889 0.60939 0.95581 0.0
C316 C 0.71938 0.62668 0.9589 0.0
C317 C 0.67283 0.61694 0.91265 0.0
C318 C 0.68703 0.64179 0.87194 0.0
C319 C 0.71722 0.65963 0.87694 0.0
C320 C 0.73323 0.65228 0.92017 0.0
C321 C 0.67097 0.64884 0.82147 0.0
C322 C 0.67891 0.65045 0.7531 0.0
C323 C 0.64889 0.65493 0.84006 0.0
C324 C 0.64048 0.65496 0.91171 0.0
C325 C 0.66132 0.67283 0.96001 0.0
C326 C 0.65304 0.67362 0.02687 0.0
C327 C 0.62395 0.65679 0.04598 0.0
C328 C 0.60307 0.63917 -0.00179 0.0
C329 C 0.61123 0.63829 0.93127 0.0
H330 H 0.61758 0.6575 0.09773 0.0
H331 H 0.70029 0.66465 0.44414 0.0
H332 H 0.11545 0.7556 0.22928 0.0
H333 H 0.06653 0.728 0.1826 0.0
H334 H 0.03976 0.67093 0.35583 0.0
H335 H 0.08948 0.69781 0.40122 0.0
H336 H 0.01277 0.64067 0.24771 0.0
H337 H 0.02636 0.72856 0.34639 0.0
H338 H 0.05095 0.78135 0.36762 0.0
H339 H 0.04105 0.7963 0.15798 0.0
H340 H 0.01672 0.7436 0.13531 0.0
H341 H 0.87114 0.64803 0.16843 0.0
H342 H 0.91775 0.66534 0.22459 0.0
H343 H 0.94024 0.61919 0.07854 0.0
H344 H 0.89272 0.60062 0.02383 0.0
H345 H 0.96794 0.69965 0.18303 0.0
H346 H 0.99066 0.60422 0.14418 0.0
H347 H 0.96328 0.55068 0.13805 0.0
H348 H 0.89451 0.54887 0.25596 0.0
H349 H 0.92165 0.60235 0.26365 0.0
C350 C 0.09918 0.73704 0.25724 0.0
C351 C 0.10605 0.72908 0.31939 0.0
C352 C 0.07121 0.72131 0.23058 0.0
C353 C 0.04923 0.69788 0.2666 0.0
C354 C 0.05632 0.68905 0.32736 0.0
C355 C 0.08464 0.70444 0.35337 0.0
C356 C 0.01872 0.6838 0.24219 0.0
C357 C 0.00289 0.6535 0.23366 0.0
C358 C 0.00551 0.70044 0.22558 0.0
C359 C 0.01991 0.73215 0.23908 0.0
C360 C 0.02957 0.74313 0.30475 0.0
C361 C 0.04345 0.77303 0.31705 0.0
C362 C 0.04761 0.79217 0.26416 0.0
C363 C 0.03783 0.78144 0.19889 0.0
C364 C 0.02396 0.75156 0.1863 0.0
C365 C 0.88595 0.64144 0.14842 0.0
C366 C 0.87844 0.62319 0.09138 0.0
C367 C 0.91261 0.65133 0.18065 0.0
C368 C 0.93259 0.64358 0.15604 0.0
C369 C 0.92503 0.62508 0.09933 0.0
C370 C 0.89798 0.61463 0.06779 0.0
C371 C 0.96188 0.65643 0.18758 0.0
C372 C 0.97761 0.68664 0.19727 0.0
C373 C 0.97443 0.63953 0.20753 0.0
C374 C 0.95809 0.60732 0.20385 0.0
C375 C 0.96975 0.59239 0.16902 0.0
C376 C 0.95426 0.56205 0.16525 0.0
C377 C 0.92713 0.54639 0.1964 0.0
C378 C 0.91548 0.56103 0.23163 0.0
C379 C 0.93089 0.59136 0.23563 0.0
H380 H 0.91516 0.52291 0.19336 0.0
H381 H 0.05837 0.81531 0.27377 0.0
H382 H 0.43111 0.10609 0.69141 0.0
H383 H 0.41587 0.05888 0.63752 0.0
H384 H 0.32695 0.02982 0.69264 0.0
H385 H 0.34194 0.07678 0.74553 0.0
H386 H 0.34091 0.98599 0.70206 0.0
H387 H 0.34926 0.06019 0.54531 0.0
H388 H 0.37565 0.10767 0.48804 0.0
H389 H 0.43726 0.08522 0.40958 0.0
H390 H 0.41138 0.03771 0.46723 0.0
H391 H 0.23974 0.89475 0.46707 0.0
H392 H 0.27292 0.93856 0.5293 0.0
H393 H 0.34621 0.93561 0.44497 0.0
H394 H 0.31306 0.89135 0.38205 0.0
H395 H 0.35065 0.99359 0.45147 0.0
H396 H 0.33118 0.91236 0.59268 0.0
H397 H 0.29853 0.86465 0.64399 0.0
H398 H 0.25332 0.90084 0.74993 0.0
H399 H 0.28528 0.94852 0.6983 0.0
C400 C 0.40848 0.08925 0.69382 0.0
C401 C 0.38761 0.09501 0.7221 0.0
C402 C 0.39981 0.06243 0.66277 0.0
C403 C 0.37027 0.04107 0.66059 0.0
C404 C 0.34984 0.04603 0.69384 0.0
C405 C 0.3584 0.07286 0.72384 0.0
C406 C 0.35977 0.01496 0.6174 0.0
C407 C 0.34329 0.98758 0.64736 0.0
C408 C 0.36313 0.01713 0.54606 0.0
C409 C 0.37866 0.04561 0.5113 0.0
C410 C 0.36859 0.0655 0.51633 0.0
C411 C 0.38341 0.09238 0.48373 0.0
C412 C 0.40818 0.0995 0.4454 0.0
C413 C 0.41811 0.0797 0.43945 0.0
C414 C 0.40338 0.0528 0.47207 0.0
C415 C 0.26288 0.90348 0.46081 0.0
C416 C 0.27369 0.88931 0.41989 0.0
C417 C 0.2818 0.92852 0.49662 0.0
C418 C 0.31191 0.93997 0.49232 0.0
C419 C 0.32298 0.92692 0.44901 0.0
C420 C 0.30399 0.90165 0.41324 0.0
C421 C 0.33131 0.96475 0.53616 0.0
C422 C 0.34927 0.99186 0.5063 0.0
C423 C 0.32897 0.9624 0.60758 0.0
C424 C 0.31055 0.934 0.64127 0.0
C425 C 0.3142 0.9101 0.62675 0.0
C426 C 0.29579 0.88303 0.65585 0.0
C427 C 0.27376 0.87963 0.69995 0.0
C428 C 0.2703 0.90339 0.71562 0.0
C429 C 0.28861 0.93048 0.68655 0.0
H430 H 0.2594 0.85858 0.7219 0.0
H431 H 0.41962 0.12031 0.42016 0.0
H432 H 0.19182 0.43044 0.7352 0.0
H433 H 0.18541 0.41387 0.61779 0.0
H434 H 0.17143 0.33048 0.6835 0.0
H435 H 0.17822 0.34687 0.80111 0.0
H436 H 0.21204 0.35372 0.58633 0.0
H437 H 0.11575 0.33344 0.61659 0.0
H438 H 0.07616 0.3419 0.65244 0.0
H439 H 0.10594 0.4132 0.51346 0.0
H440 H 0.14601 0.40551 0.47754 0.0
H441 H 0.16467 0.34688 0.20273 0.0
H442 H 0.15239 0.33192 0.32075 0.0
H443 H 0.23799 0.39868 0.38285 0.0
H444 H 0.25059 0.41361 0.26545 0.0
H445 H 0.14958 0.36529 0.41707 0.0
H446 H 0.25893 0.379 0.52532 0.0
H447 H 0.29644 0.36719 0.49153 0.0
H448 H 0.23622 0.30162 0.35505 0.0
H449 H 0.19811 0.31258 0.38893 0.0
C450 C 0.18715 0.40849 0.72486 0.0
C451 C 0.18571 0.39007 0.77753 0.0
C452 C 0.18324 0.39897 0.6578 0.0
C453 C 0.17771 0.37088 0.64232 0.0
C454 C 0.17564 0.35221 0.69469 0.0
C455 C 0.17952 0.36167 0.76179 0.0
C456 C 0.17693 0.36226 0.57099 0.0
C457 C 0.19811 0.35572 0.54922 0.0
C458 C 0.15813 0.36417 0.52329 0.0
C459 C 0.13399 0.36893 0.54452 0.0
C460 C 0.114 0.35106 0.59398 0.0
C461 C 0.09144 0.3557 0.61428 0.0
C462 C 0.08855 0.37808 0.58528 0.0
C463 C 0.10819 0.39585 0.53585 0.0
C464 C 0.13081 0.39133 0.51541 0.0
C465 C 0.18107 0.35806 0.24136 0.0
C466 C 0.20854 0.38166 0.22478 0.0
C467 C 0.17399 0.34944 0.30868 0.0
C468 C 0.19434 0.36404 0.36027 0.0
C469 C 0.22213 0.38678 0.34359 0.0
C470 C 0.2292 0.39548 0.27646 0.0
C471 C 0.18578 0.35826 0.43216 0.0
C472 C 0.16289 0.36223 0.45415 0.0
C473 C 0.20271 0.35348 0.48015 0.0
C474 C 0.22564 0.34679 0.4594 0.0
C475 C 0.25358 0.36194 0.48836 0.0
C476 C 0.27499 0.3554 0.46916 0.0
C477 C 0.26875 0.33372 0.42104 0.0
C478 C 0.24106 0.31849 0.39214 0.0
C479 C 0.21955 0.32489 0.41126 0.0
H480 H 0.28536 0.3287 0.40622 0.0
H481 H 0.07107 0.38164 0.60106 0.0
H482 H 0.75163 0.156 0.05259 0.0
H483 H 0.75787 0.14923 0.93227 0.0
H484 H 0.84933 0.21247 0.94891 0.0
H485 H 0.8434 0.21754 0.0697 0.0
H486 H 0.76911 0.18427 0.84087 0.0
H487 H 0.88998 0.20925 0.82887 0.0
H488 H 0.92203 0.19658 0.89244 0.0
H489 H 0.84765 0.12027 0.97027 0.0
H490 H 0.81512 0.13224 0.90645 0.0
H491 H 0.83312 0.25968 0.55328 0.0
H492 H 0.82827 0.24438 0.67112 0.0
H493 H 0.8248 0.16478 0.60956 0.0
H494 H 0.82988 0.17991 0.49113 0.0
H495 H 0.85426 0.1865 0.73151 0.0
H496 H 0.76331 0.15968 0.63391 0.0
H497 H 0.72694 0.16501 0.56744 0.0
H498 H 0.73412 0.23106 0.7047 0.0
H499 H 0.77087 0.22645 0.7716 0.0
C500 C 0.77311 0.16793 0.03045 0.0
C501 C 0.79704 0.18733 0.06974 0.0
C502 C 0.7767 0.16405 0.96195 0.0
C503 C 0.80413 0.18011 0.93142 0.0
C504 C 0.82812 0.1991 0.97138 0.0
C505 C 0.82469 0.20228 0.04026 0.0
C506 C 0.80706 0.18006 0.85679 0.0
C507 C 0.78753 0.18429 0.81719 0.0
C508 C 0.83059 0.17927 0.82509 0.0
C509 C 0.85008 0.17175 0.86302 0.0
C510 C 0.88044 0.18966 0.85914 0.0
C511 C 0.8987 0.18262 0.89535 0.0
C512 C 0.88688 0.15766 0.93545 0.0
C513 C 0.85677 0.13965 0.93933 0.0
C514 C 0.83841 0.14657 0.90322 0.0
C515 C 0.83195 0.23919 0.56468 0.0
C516 C 0.83134 0.22078 0.51273 0.0
C517 C 0.82913 0.23048 0.632 0.0
C518 C 0.82552 0.20321 0.64838 0.0
C519 C 0.82736 0.18582 0.59749 0.0
C520 C 0.83025 0.19454 0.52994 0.0
C521 C 0.81721 0.1921 0.71782 0.0
C522 C 0.83561 0.18577 0.75581 0.0
C523 C 0.79198 0.18973 0.74776 0.0
C524 C 0.77003 0.19285 0.70753 0.0
C525 C 0.75735 0.17554 0.64961 0.0
C526 C 0.73665 0.17841 0.6119 0.0
C527 C 0.72832 0.19842 0.63178 0.0
C528 C 0.74065 0.2156 0.68939 0.0
C529 C 0.76139 0.21284 0.72728 0.0
H530 H 0.7122 0.20049 0.60276 0.0
H531 H 0.90106 0.15227 0.96347 0.0
H532 H 0.66176 0.80824 0.35589 0.0
H533 H 0.67589 0.8168 0.23686 0.0
H534 H 0.58608 0.76406 0.17736 0.0
H535 H 0.5717 0.75491 0.29622 0.0
H536 H 0.62143 0.75512 0.0948 0.0
H537 H 0.61707 0.83705 0.19191 0.0
H538 H 0.63108 0.87688 0.27442 0.0
H539 H 0.72003 0.91534 0.21126 0.0
H540 H 0.7066 0.87548 0.12909 0.0
H541 H 0.606 0.83903 0.81767 0.0
H542 H 0.6178 0.83773 0.93648 0.0
H543 H 0.67372 0.80401 0.87987 0.0
H544 H 0.66194 0.8052 0.7602 0.0
H545 H 0.66595 0.85782 0.02053 0.0
H546 H 0.65447 0.74654 0.98393 0.0
H547 H 0.63518 0.7066 0.90034 0.0
H548 H 0.56903 0.72629 0.84239 0.0
H549 H 0.58801 0.76641 0.92566 0.0
C550 C 0.64499 0.79821 0.31753 0.0
C551 C 0.61552 0.7812 0.3355 0.0
C552 C 0.65316 0.80309 0.2496 0.0
C553 C 0.63199 0.79133 0.1986 0.0
C554 C 0.60274 0.77328 0.21619 0.0
C555 C 0.59454 0.76821 0.28411 0.0
C556 C 0.63974 0.79965 0.12714 0.0
C557 C 0.63163 0.7776 0.07863 0.0
C558 C 0.6529 0.829 0.10622 0.0
C559 C 0.66089 0.85314 0.15497 0.0
C560 C 0.63964 0.85391 0.19597 0.0
C561 C 0.64747 0.87648 0.24264 0.0
C562 C 0.67643 0.89856 0.24819 0.0
C563 C 0.69762 0.89818 0.207 0.0
C564 C 0.68991 0.87561 0.16038 0.0
C565 C 0.62136 0.83201 0.83034 0.0
C566 C 0.63268 0.82175 0.77999 0.0
C567 C 0.62827 0.83151 0.89815 0.0
C568 C 0.64634 0.82048 0.91668 0.0
C569 C 0.65962 0.81248 0.86624 0.0
C570 C 0.6529 0.81321 0.79807 0.0
C571 C 0.64723 0.81326 0.98837 0.0
C572 C 0.65684 0.83547 0.03695 0.0
C573 C 0.6348 0.78402 0.00941 0.0
C574 C 0.62284 0.75959 0.96037 0.0
C575 C 0.63577 0.74227 0.95343 0.0
C576 C 0.62489 0.71961 0.9061 0.0
C577 C 0.6009 0.71389 0.86599 0.0
C578 C 0.58767 0.73079 0.8733 0.0
C579 C 0.59851 0.75352 0.92044 0.0
H580 H 0.59255 0.69637 0.82931 0.0
H581 H 0.68244 0.91601 0.28422 0.0
H582 H 0.84222 0.60117 0.78269 0.0
H583 H 0.84468 0.61114 0.66107 0.0
H584 H 0.79628 0.65566 0.69233 0.0
H585 H 0.79564 0.64748 0.81381 0.0
H586 H 0.8038 0.59032 0.57997 0.0
H587 H 0.8022 0.69955 0.5685 0.0
H588 H 0.82499 0.74684 0.62754 0.0
H589 H 0.8958 0.73503 0.69006 0.0
H590 H 0.87366 0.68785 0.63067 0.0
H591 H 0.73677 0.58994 0.2819 0.0
H592 H 0.74941 0.59867 0.40199 0.0
H593 H 0.83545 0.66742 0.35029 0.0
H594 H 0.82286 0.65942 0.2303 0.0
H595 H 0.81762 0.67963 0.46661 0.0
H596 H 0.82516 0.60145 0.37255 0.0
H597 H 0.80871 0.55622 0.30731 0.0
H598 H 0.73942 0.50979 0.44916 0.0
H599 H 0.75515 0.55488 0.51463 0.0
C600 C 0.83287 0.61379 0.76347 0.0
C601 C 0.81883 0.62365 0.80721 0.0
C602 C 0.83418 0.6194 0.69413 0.0
C603 C 0.82081 0.63431 0.66733 0.0
C604 C 0.80751 0.64487 0.71161 0.0
C605 C 0.80697 0.64002 0.78109 0.0
C606 C 0.81769 0.6358 0.593 0.0
C607 C 0.80717 0.61 0.55536 0.0
C608 C 0.82252 0.66153 0.56013 0.0
C609 C 0.83615 0.69005 0.59544 0.0
C610 C 0.82272 0.70711 0.5945 0.0
C611 C 0.83551 0.73388 0.62813 0.0
C612 C 0.86179 0.7439 0.66264 0.0
C613 C 0.87539 0.7272 0.66348 0.0
C614 C 0.86271 0.70042 0.62993 0.0
C615 C 0.75815 0.60736 0.29611 0.0
C616 C 0.77897 0.62363 0.24663 0.0
C617 C 0.76535 0.61229 0.36465 0.0
C618 C 0.79357 0.63319 0.38459 0.0
C619 C 0.81361 0.65109 0.33573 0.0
C620 C 0.80635 0.64641 0.26716 0.0
C621 C 0.80302 0.63408 0.45529 0.0
C622 C 0.81468 0.6602 0.49174 0.0
C623 C 0.80043 0.60898 0.48657 0.0
C624 C 0.7912 0.58161 0.44821 0.0
C625 C 0.80631 0.58163 0.38964 0.0
C626 C 0.79712 0.55602 0.3526 0.0
C627 C 0.773 0.53016 0.37399 0.0
C628 C 0.75808 0.52985 0.43261 0.0
C629 C 0.76714 0.55542 0.46974 0.0
H630 H 0.76589 0.51037 0.34518 0.0
H631 H 0.87165 0.76463 0.68867 0.0
H632 H 0.16517 0.75247 0.63096 0.0
H633 H 0.16339 0.76483 0.74931 0.0
H634 H 0.17652 0.84855 0.68908 0.0
H635 H 0.17842 0.83644 0.57032 0.0
H636 H 0.21528 0.85311 0.7824 0.0
H637 H 0.11324 0.80118 0.75982 0.0
H638 H 0.06504 0.76089 0.72689 0.0
H639 H 0.07595 0.70347 0.86088 0.0
H640 H 0.12441 0.74329 0.89388 0.0
H641 H 0.1702 0.82996 0.16802 0.0
H642 H 0.15931 0.83356 0.04932 0.0
H643 H 0.2314 0.82308 0.98752 0.0
H644 H 0.2427 0.81978 0.10571 0.0
H645 H 0.14323 0.79157 0.95558 0.0
H646 H 0.26011 0.85726 0.84853 0.0
H647 H 0.30744 0.8996 0.87893 0.0
H648 H 0.26453 0.93287 0.00406 0.0
H649 H 0.21691 0.89103 0.97311 0.0
C650 C 0.16721 0.77333 0.64271 0.0
C651 C 0.17212 0.79354 0.59131 0.0
C652 C 0.16594 0.78027 0.71033 0.0
C653 C 0.16959 0.8075 0.72772 0.0
C654 C 0.17347 0.82734 0.67646 0.0
C655 C 0.17452 0.82035 0.6087 0.0
C656 C 0.17283 0.81628 0.79966 0.0
C657 C 0.1994 0.83997 0.82027 0.0
C658 C 0.15175 0.79937 0.8487 0.0
C659 C 0.12257 0.77526 0.82912 0.0
C660 C 0.10547 0.77992 0.78192 0.0
C661 C 0.07807 0.75716 0.76329 0.0
C662 C 0.06745 0.72963 0.79172 0.0
C663 C 0.0842 0.72482 0.83892 0.0
C664 C 0.11162 0.74749 0.85769 0.0
C665 C 0.18407 0.82891 0.12926 0.0
C666 C 0.20727 0.82445 0.14637 0.0
C667 C 0.17775 0.83093 0.06151 0.0
C668 C 0.19468 0.82882 0.00987 0.0
C669 C 0.21837 0.82527 0.02677 0.0
C670 C 0.22467 0.82318 0.09439 0.0
C671 C 0.18628 0.82762 0.93811 0.0
C672 C 0.15881 0.80526 0.9176 0.0
C673 C 0.20639 0.84596 0.88902 0.0
C674 C 0.23496 0.87107 0.90826 0.0
C675 C 0.26077 0.87376 0.882 0.0
C676 C 0.28765 0.89763 0.89944 0.0
C677 C 0.28899 0.91892 0.9434 0.0
C678 C 0.26346 0.91636 0.97003 0.0
C679 C 0.23652 0.89256 0.95254 0.0
H680 H 0.30982 0.93738 0.95689 0.0
H681 H 0.04623 0.71204 0.77724 0.0
H682 H 0.41773 0.21124 0.44915 0.0
H683 H 0.3981 0.20091 0.33485 0.0
H684 H 0.31899 0.12738 0.4074 0.0
H685 H 0.3385 0.1375 0.52322 0.0
H686 H 0.34213 0.11734 0.28515 0.0
H687 H 0.31141 0.1808 0.36603 0.0
H688 H 0.31454 0.2225 0.42845 0.0
H689 H 0.38349 0.28141 0.29794 0.0
H690 H 0.38116 0.24011 0.23542 0.0
H691 H 0.33154 0.13881 0.92172 0.0
H692 H 0.31298 0.13195 0.03845 0.0
H693 H 0.39765 0.19779 0.10815 0.0
H694 H 0.41643 0.20421 0.99282 0.0
H695 H 0.3458 0.20019 0.16057 0.0
H696 H 0.38614 0.13423 0.11947 0.0
H697 H 0.38463 0.09288 0.05858 0.0
H698 H 0.29525 0.03856 0.11498 0.0
H699 H 0.29621 0.07977 0.17555 0.0
C700 C 0.39623 0.19274 0.44119 0.0
C701 C 0.37956 0.17542 0.49553 0.0
C702 C 0.38497 0.18699 0.37584 0.0
C703 C 0.35686 0.16387 0.36341 0.0
C704 C 0.34057 0.14558 0.41658 0.0
C705 C 0.35179 0.15142 0.48247 0.0
C706 C 0.34538 0.15931 0.29384 0.0
C707 C 0.34175 0.1349 0.25808 0.0
C708 C 0.3446 0.18213 0.25901 0.0
C709 C 0.34604 0.20726 0.29589 0.0
C710 C 0.32734 0.20264 0.35079 0.0
C711 C 0.32897 0.22622 0.38622 0.0
C712 C 0.34918 0.25458 0.36714 0.0
C713 C 0.36779 0.25942 0.31256 0.0
C714 C 0.36627 0.23591 0.27699 0.0
C715 C 0.34602 0.15198 0.96207 0.0
C716 C 0.37543 0.1719 0.94881 0.0
C717 C 0.33539 0.14805 0.02829 0.0
C718 C 0.35399 0.1645 0.08117 0.0
C719 C 0.38302 0.1851 0.0675 0.0
C720 C 0.39376 0.18858 0.00193 0.0
C721 C 0.3446 0.15926 0.1522 0.0
C722 C 0.34436 0.18187 0.18811 0.0
C723 C 0.34157 0.13474 0.18714 0.0
C724 C 0.34113 0.11008 0.15115 0.0
C725 C 0.36612 0.11351 0.11837 0.0
C726 C 0.36538 0.09011 0.08404 0.0
C727 C 0.33983 0.06313 0.08271 0.0
C728 C 0.315 0.05948 0.1159 0.0
C729 C 0.31562 0.08285 0.15021 0.0
H730 H 0.33929 0.04503 0.05613 0.0
H731 H 0.35043 0.27281 0.39466 0.0
H732 H 0.18941 0.48819 0.15633 0.0
H733 H 0.18855 0.53164 0.1943 0.0
H734 H 0.27932 0.58438 0.14298 0.0
H735 H 0.28052 0.5406 0.10922 0.0
H736 H 0.26781 0.60756 0.24592 0.0
H737 H 0.22306 0.5712 0.02836 0.0
H738 H 0.18867 0.53332 0.95 0.0
H739 H 0.11684 0.52513 0.06695 0.0
H740 H 0.15082 0.56269 0.14654 0.0
H741 H 0.26182 0.73731 0.22159 0.0
H742 H 0.26689 0.69628 0.18305 0.0
H743 H 0.17873 0.6369 0.24428 0.0
H744 H 0.17328 0.67761 0.28177 0.0
H745 H 0.19141 0.61903 0.12906 0.0
H746 H 0.23582 0.65199 0.34997 0.0
H747 H 0.26966 0.68662 0.43398 0.0
H748 H 0.34219 0.70079 0.31074 0.0
H749 H 0.30856 0.66611 0.22558 0.0
C750 C 0.20939 0.50897 0.15603 0.0
C751 C 0.23507 0.51129 0.13061 0.0
C752 C 0.20882 0.53379 0.17663 0.0
C753 C 0.23361 0.56136 0.16906 0.0
C754 C 0.25988 0.56337 0.14869 0.0
C755 C 0.26063 0.53841 0.12987 0.0
C756 C 0.23156 0.58803 0.17685 0.0
C757 C 0.2514 0.61025 0.21951 0.0
C758 C 0.20998 0.59148 0.14277 0.0
C759 C 0.18949 0.56963 0.09361 0.0
C760 C 0.19993 0.56128 0.03741 0.0
C761 C 0.18052 0.53985 0.99283 0.0
C762 C 0.1506 0.52679 0.00356 0.0
C763 C 0.14002 0.53525 0.05871 0.0
C764 C 0.15935 0.55664 0.10352 0.0
C765 C 0.24327 0.71558 0.22527 0.0
C766 C 0.21724 0.71071 0.25547 0.0
C767 C 0.2463 0.69214 0.20378 0.0
C768 C 0.22339 0.66353 0.2122 0.0
C769 C 0.19675 0.65879 0.23774 0.0
C770 C 0.19371 0.68212 0.25927 0.0
C771 C 0.22744 0.63836 0.19878 0.0
C772 C 0.20803 0.61646 0.15479 0.0
C773 C 0.24949 0.63526 0.23131 0.0
C774 C 0.2697 0.65674 0.2812 0.0
C775 C 0.25897 0.66272 0.34047 0.0
C776 C 0.27815 0.68231 0.3884 0.0
C777 C 0.30813 0.69596 0.37776 0.0
C778 C 0.31897 0.69017 0.31892 0.0
C779 C 0.29986 0.67052 0.27085 0.0
H780 H 0.32301 0.71095 0.41509 0.0
H781 H 0.1356 0.51014 0.96912 0.0
H782 H 0.74207 0.24507 0.5133 0.0
H783 H 0.70217 0.24594 0.57503 0.0
H784 H 0.6501 0.21931 0.39307 0.0
H785 H 0.68894 0.21743 0.33226 0.0
H786 H 0.65501 0.27093 0.47851 0.0
H787 H 0.63622 0.16965 0.48347 0.0
H788 H 0.65115 0.13433 0.51552 0.0
H789 H 0.65682 0.15978 0.7243 0.0
H790 H 0.64283 0.19608 0.69288 0.0
H791 H 0.5068 0.21887 0.53507 0.0
H792 H 0.55413 0.22682 0.49737 0.0
H793 H 0.57248 0.20993 0.70019 0.0
H794 H 0.52504 0.20059 0.73702 0.0
H795 H 0.59071 0.18616 0.62164 0.0
H796 H 0.60458 0.28089 0.63198 0.0
H797 H 0.59533 0.3214 0.6131 0.0
H798 H 0.60464 0.3154 0.39838 0.0
H799 H 0.61368 0.27464 0.41592 0.0
C800 C 0.72204 0.23935 0.48682 0.0
C801 C 0.71835 0.23066 0.41848 0.0
C802 C 0.69946 0.24002 0.52184 0.0
C803 C 0.67343 0.23279 0.48814 0.0
C804 C 0.67014 0.22503 0.4196 0.0
C805 C 0.69222 0.22365 0.38528 0.0
C806 C 0.64854 0.23141 0.52407 0.0
C807 C 0.64085 0.25251 0.50999 0.0
C808 C 0.63092 0.20793 0.56698 0.0
C809 C 0.63884 0.1858 0.58572 0.0
C810 C 0.64095 0.16794 0.53609 0.0
C811 C 0.64916 0.14766 0.55421 0.0
C812 C 0.65481 0.14467 0.62203 0.0
C813 C 0.65235 0.16205 0.67183 0.0
C814 C 0.64438 0.18255 0.65385 0.0
C815 C 0.52084 0.21656 0.57126 0.0
C816 C 0.51209 0.20896 0.63883 0.0
C817 C 0.54802 0.22143 0.54997 0.0
C818 C 0.56717 0.21957 0.59633 0.0
C819 C 0.55817 0.21151 0.66342 0.0
C820 C 0.53091 0.20608 0.68432 0.0
C821 C 0.59634 0.22538 0.57481 0.0
C822 C 0.6049 0.20504 0.59145 0.0
C823 C 0.61529 0.25022 0.53636 0.0
C824 C 0.60955 0.27452 0.52525 0.0
C825 C 0.60441 0.28804 0.58068 0.0
C826 C 0.59927 0.31109 0.57023 0.0
C827 C 0.59931 0.32091 0.50456 0.0
C828 C 0.60458 0.30774 0.44922 0.0
C829 C 0.60976 0.28469 0.45939 0.0
H830 H 0.59533 0.33877 0.49657 0.0
H831 H 0.66121 0.12899 0.63604 0.0
H832 H 0.2786 0.52656 0.84029 0.0
H833 H 0.32107 0.57095 0.79966 0.0
H834 H 0.37747 0.54824 0.90772 0.0
H835 H 0.33539 0.50407 0.9488 0.0
H836 H 0.39174 0.60437 0.93201 0.0
H837 H 0.36992 0.54007 0.73878 0.0
H838 H 0.33886 0.50743 0.64766 0.0
H839 H 0.32789 0.57613 0.5656 0.0
H840 H 0.35859 0.60905 0.65685 0.0
H841 H 0.51382 0.67845 0.66845 0.0
H842 H 0.47171 0.63858 0.72251 0.0
H843 H 0.44863 0.69892 0.80873 0.0
H844 H 0.49092 0.73939 0.75364 0.0
H845 H 0.41548 0.62707 0.68866 0.0
H846 H 0.41008 0.66175 0.96148 0.0
H847 H 0.44304 0.69371 0.05118 0.0
H848 H 0.51198 0.68234 0.97215 0.0
H849 H 0.47931 0.64993 0.88282 0.0
C850 C 0.30005 0.53076 0.85451 0.0
C851 C 0.30357 0.51178 0.89798 0.0
C852 C 0.32426 0.5562 0.83156 0.0
C853 C 0.35233 0.56292 0.85128 0.0
C854 C 0.35594 0.54358 0.89269 0.0
C855 C 0.33184 0.51823 0.91566 0.0
C856 C 0.37814 0.59012 0.82915 0.0
C857 C 0.39689 0.60943 0.87879 0.0
C858 C 0.38472 0.5967 0.75982 0.0
C859 C 0.36624 0.5769 0.70508 0.0
C860 C 0.36066 0.54812 0.70166 0.0
C861 C 0.34317 0.52959 0.64992 0.0
C862 C 0.33133 0.53967 0.601 0.0
C863 C 0.33702 0.56833 0.60361 0.0
C864 C 0.35447 0.58693 0.65529 0.0
C865 C 0.50008 0.68342 0.69966 0.0
C866 C 0.50531 0.71201 0.70563 0.0
C867 C 0.47603 0.66058 0.7304 0.0
C868 C 0.45691 0.66586 0.76835 0.0
C869 C 0.4632 0.69454 0.77921 0.0
C870 C 0.48735 0.71757 0.74797 0.0
C871 C 0.42938 0.6409 0.79144 0.0
C872 C 0.41014 0.62217 0.74189 0.0
C873 C 0.4226 0.63472 0.86073 0.0
C874 C 0.44234 0.65373 0.91496 0.0
C875 C 0.43225 0.666 0.96342 0.0
C876 C 0.45087 0.68419 0.01421 0.0
C877 C 0.47962 0.69014 0.0172 0.0
C878 C 0.48975 0.67781 0.96962 0.0
C879 C 0.47119 0.65956 0.91884 0.0
H880 H 0.49401 0.70426 0.05649 0.0
H881 H 0.3178 0.52529 0.56097 0.0
H882 H 0.81753 0.32719 0.17957 0.0
H883 H 0.8072 0.36693 0.16934 0.0
H884 H 0.71525 0.30556 0.17909 0.0
H885 H 0.72554 0.26559 0.18668 0.0
H886 H 0.72481 0.35079 0.10321 0.0
H887 H 0.75139 0.33767 0.32244 0.0
H888 H 0.78032 0.33011 0.40923 0.0
H889 H 0.8538 0.41369 0.36437 0.0
H890 H 0.82546 0.42155 0.27637 0.0
H891 H 0.71455 0.47731 0.16044 0.0
H892 H 0.70836 0.43015 0.19445 0.0
H893 H 0.80087 0.46492 0.17712 0.0
H894 H 0.80718 0.51186 0.14487 0.0
H895 H 0.77929 0.42635 0.27766 0.0
H896 H 0.75073 0.42983 0.03742 0.0
H897 H 0.71899 0.43367 0.95199 0.0
H898 H 0.64381 0.36487 0.04922 0.0
H899 H 0.67526 0.36051 0.13505 0.0
C900 C 0.79512 0.32212 0.17654 0.0
C901 C 0.77234 0.29343 0.18409 0.0
C902 C 0.78921 0.34481 0.17167 0.0
C903 C 0.76049 0.33923 0.17616 0.0
C904 C 0.73757 0.31035 0.17642 0.0
C905 C 0.74348 0.28752 0.18006 0.0
C906 C 0.75489 0.36362 0.18672 0.0
C907 C 0.73632 0.36705 0.14211 0.0
C908 C 0.76926 0.38444 0.2387 0.0
C909 C 0.78632 0.38013 0.2925 0.0
C910 C 0.77376 0.35439 0.33082 0.0
C911 C 0.79006 0.35004 0.38023 0.0
C912 C 0.81889 0.3714 0.39226 0.0
C913 C 0.83146 0.39717 0.35499 0.0
C914 C 0.81527 0.40159 0.30537 0.0
C915 C 0.73363 0.47512 0.16634 0.0
C916 C 0.76131 0.49809 0.14898 0.0
C917 C 0.73003 0.44809 0.18502 0.0
C918 C 0.75407 0.44381 0.18645 0.0
C919 C 0.78196 0.4676 0.17577 0.0
C920 C 0.78555 0.49445 0.15718 0.0
C921 C 0.75065 0.41441 0.1915 0.0
C922 C 0.76733 0.40979 0.23967 0.0
C923 C 0.73398 0.39218 0.14393 0.0
C924 C 0.71525 0.39509 0.09285 0.0
C925 C 0.72742 0.41566 0.04068 0.0
C926 C 0.70946 0.4179 0.99218 0.0
C927 C 0.67933 0.39967 -0.00462 0.0
C928 C 0.66712 0.37904 0.04692 0.0
C929 C 0.68499 0.37663 0.09538 0.0
H930 H 0.66539 0.40137 0.95791 0.0
H931 H 0.83149 0.36799 0.43052 0.0
H932 H 0.31137 0.8207 0.49159 0.0
H933 H 0.35433 0.81601 0.50771 0.0
H934 H 0.30047 0.7228 0.51266 0.0
H935 H 0.25716 0.72728 0.49608 0.0
H936 H 0.34966 0.73852 0.57849 0.0
H937 H 0.32394 0.75691 0.36155 0.0
H938 H 0.30981 0.78194 0.27787 0.0
H939 H 0.39151 0.8604 0.30643 0.0
H940 H 0.40596 0.83592 0.39127 0.0
H941 H 0.46987 0.72612 0.46116 0.0
H942 H 0.42161 0.72123 0.45114 0.0
H943 H 0.45981 0.81387 0.47627 0.0
H944 H 0.50787 0.81891 0.486 0.0
H945 H 0.41418 0.7907 0.38432 0.0
H946 H 0.43556 0.76778 0.61262 0.0
H947 H 0.4465 0.73815 0.69028 0.0
H948 H 0.36871 0.66127 0.62672 0.0
H949 H 0.35749 0.69043 0.54815 0.0
C950 C 0.30855 0.79922 0.49855 0.0
C951 C 0.28107 0.77433 0.49065 0.0
C952 C 0.33312 0.79655 0.50739 0.0
C953 C 0.33061 0.76897 0.50713 0.0
C954 C 0.30286 0.74422 0.51005 0.0
C955 C 0.27812 0.74684 0.50145 0.0
C956 C 0.35649 0.76616 0.49258 0.0
C957 C 0.36361 0.74971 0.53573 0.0
C958 C 0.37425 0.77997 0.43542 0.0
C959 C 0.36598 0.7946 0.38311 0.0
C960 C 0.33888 0.77951 0.35015 0.0
C961 C 0.33079 0.79361 0.30255 0.0
C962 C 0.34974 0.82275 0.28687 0.0
C963 C 0.37685 0.83782 0.31865 0.0
C964 C 0.38502 0.82384 0.36648 0.0
C965 C 0.46807 0.74554 0.46197 0.0
C966 C 0.49259 0.77289 0.47482 0.0
C967 C 0.44046 0.74266 0.45705 0.0
C968 C 0.43713 0.76712 0.46454 0.0
C969 C 0.46189 0.7947 0.47091 0.0
C970 C 0.48936 0.79756 0.47631 0.0
C971 C 0.40808 0.76426 0.47202 0.0
C972 C 0.40013 0.7794 0.42688 0.0
C973 C 0.38918 0.74851 0.52606 0.0
C974 C 0.39584 0.73122 0.57411 0.0
C975 C 0.42089 0.74454 0.61498 0.0
C976 C 0.42713 0.72782 0.65916 0.0
C977 C 0.40836 0.69782 0.66326 0.0
C978 C 0.38326 0.68449 0.6234 0.0
C979 C 0.37693 0.7011 0.5791 0.0
H980 H 0.41318 0.68488 0.69741 0.0
H981 H 0.34343 0.83365 0.25006 0.0
H982 H 0.72841 0.47759 0.89006 0.0
H983 H 0.68566 0.43199 0.85715 0.0
H984 H 0.63405 0.47406 0.85947 0.0
H985 H 0.67652 0.51923 0.89573 0.0
H986 H 0.60869 0.43171 0.93334 0.0
H987 H 0.64812 0.44045 0.71206 0.0
H988 H 0.68399 0.44781 0.62383 0.0
H989 H 0.68731 0.37327 0.69534 0.0
H990 H 0.65181 0.36574 0.78474 0.0
H991 H 0.48169 0.30998 0.79217 0.0
H992 H 0.52543 0.35656 0.81551 0.0
H993 H 0.56902 0.3116 0.88683 0.0
H994 H 0.52504 0.26478 0.86441 0.0
H995 H 0.59763 0.35354 0.77748 0.0
H996 H 0.55524 0.34689 -0.0008 0.0
H997 H 0.51478 0.33909 0.07396 0.0
H998 H 0.5129 0.41138 0.98252 0.0
H999 H 0.5532 0.41945 0.9068 0.0
C1000 C 0.7081 0.47724 0.88159 0.0
C1001 C 0.70558 0.50168 0.89688 0.0
C1002 C 0.68355 0.45109 0.86275 0.0
C1003 C 0.65624 0.44918 0.85734 0.0
C1004 C 0.65461 0.47463 0.86496 0.0
C1005 C 0.67896 0.50054 0.88516 0.0
C1006 C 0.62902 0.42044 0.853 0.0
C1007 C 0.60629 0.41495 0.89813 0.0
C1008 C 0.62578 0.39798 0.80865 0.0
C1009 C 0.6475 0.40271 0.75557 0.0
C1010 C 0.65671 0.4258 0.70943 0.0
C1011 C 0.67695 0.42997 0.65912 0.0
C1012 C 0.68798 0.41107 0.6541 0.0
C1013 C 0.67878 0.38793 0.69936 0.0
C1014 C 0.6586 0.38369 0.74984 0.0
C1015 C 0.50031 0.31006 0.81483 0.0
C1016 C 0.50003 0.28387 0.82682 0.0
C1017 C 0.52528 0.33663 0.82782 0.0
C1018 C 0.55043 0.33741 0.85231 0.0
C1019 C 0.54976 0.31132 0.86773 0.0
C1020 C 0.52458 0.28467 0.85576 0.0
C1021 C 0.57787 0.36546 0.85693 0.0
C1022 C 0.60045 0.37062 0.81223 0.0
C1023 C 0.58069 0.38792 0.90004 0.0
C1024 C 0.55714 0.38368 0.94715 0.0
C1025 C 0.54614 0.36107 -0.00507 0.0
C1026 C 0.52325 0.35661 0.0375 0.0
C1027 C 0.51127 0.37472 0.03296 0.0
C1028 C 0.52224 0.3974 0.98605 0.0
C1029 C 0.54515 0.40197 0.94342 0.0
H1030 H 0.49348 0.37116 0.06577 0.0
H1031 H 0.70361 0.41431 0.61505 0.0
loop_
_geom_bond_atom_site_label_1
_geom_bond_atom_site_label_2
_geom_bond_distance
_geom_bond_site_symmetry_2
_ccdc_geom_bond_type
Sc0 O3 2.025 . S
Sc0 O10 2.105 1_554 S
Sc0 O13 2.105 . S
Sc0 O16 2.105 . S
Sc0 O19 2.105 1_554 S
Sc1 O3 2.025 . S
Sc1 O11 2.105 . S
Sc1 O15 2.105 . S
Sc1 O17 2.105 . S
Sc1 O21 2.105 1_554 S
Sc2 O3 2.025 1_556 S
Sc2 O12 2.105 . S
Sc2 O14 2.105 . S
Sc2 O18 2.105 1_556 S
Sc2 O20 2.105 . S
O3 Sc0 2.025 . S
O3 Sc1 2.025 . S
O3 Sc2 2.025 1_554 S
C4 O10 1.268 . S
C4 O20 1.268 . S
C5 O11 1.262 1_556 S
C5 O19 1.270 . S
C6 O12 1.268 . S
C6 O21 1.268 . S
C7 O13 1.268 . S
C7 O17 1.268 . S
C8 O14 1.268 1_554 S
C8 O16 1.268 . S
C9 O15 1.268 . S
C9 O18 1.268 . S
O10 Sc0 2.105 1_556 S
O10 C4 1.268 . S
O11 Sc1 2.105 . S
O11 C5 1.262 1_554 S
O12 Sc2 2.105 . S
O12 C6 1.268 . S
O13 Sc0 2.105 . S
O13 C7 1.268 . S
O14 Sc2 2.105 . S
O14 C8 1.268 1_556 S
O15 Sc1 2.105 . S
O15 C9 1.268 . S
O16 Sc0 2.105 . S
O16 C8 1.268 . S
O17 Sc1 2.105 . S
O17 C7 1.268 . S
O18 Sc2 2.105 1_554 S
O18 C9 1.268 . S
O19 Sc0 2.105 1_556 S
O19 C5 1.270 . S
O20 Sc2 2.105 . S
O20 C4 1.268 . S
O21 Sc1 2.105 1_556 S
O21 C6 1.268 . S
Sc22 O25 2.025 . S
Sc22 O32 2.105 . S
Sc22 O35 2.105 . S
Sc22 O38 2.105 . S
Sc22 O41 2.105 . S
Sc23 O25 2.025 . S
Sc23 O33 2.105 . S
Sc23 O37 2.105 . S
Sc23 O39 2.105 . S
Sc23 O43 2.105 . S
Sc24 O25 2.025 . S
Sc24 O34 2.105 . S
Sc24 O36 2.105 . S
Sc24 O40 2.105 . S
Sc24 O42 2.105 . S
O25 Sc22 2.025 . S
O25 Sc23 2.025 . S
O25 Sc24 2.025 . S
C26 O32 1.268 . S
C26 O42 1.268 . S
C27 O33 1.268 . S
C27 O41 1.268 . S
C28 O34 1.268 . S
C28 O43 1.268 . S
C29 O35 1.268 . S
C29 O39 1.268 . S
C30 O36 1.268 . S
C30 O38 1.268 . S
C31 O37 1.268 . S
C31 O40 1.268 . S
O32 Sc22 2.105 . S
O32 C26 1.268 . S
O33 Sc23 2.105 . S
O33 C27 1.268 . S
O34 Sc24 2.105 . S
O34 C28 1.268 . S
O35 Sc22 2.105 . S
O35 C29 1.268 . S
O36 Sc24 2.105 . S
O36 C30 1.268 . S
O37 Sc23 2.105 . S
O37 C31 1.268 . S
O38 Sc22 2.105 . S
O38 C30 1.268 . S
O39 Sc23 2.105 . S
O39 C29 1.268 . S
O40 Sc24 2.105 . S
O40 C31 1.268 . S
O41 Sc22 2.105 . S
O41 C27 1.268 . S
O42 Sc24 2.105 . S
O42 C26 1.268 . S
O43 Sc23 2.105 . S
O43 C28 1.268 . S
Sc44 O47 2.025 . S
Sc44 O54 2.105 . S
Sc44 O57 2.105 . S
Sc44 O60 2.105 . S
Sc44 O63 2.105 . S
Sc45 O47 2.025 . S
Sc45 O55 2.105 . S
Sc45 O59 2.105 . S
Sc45 O61 2.105 . S
Sc45 O65 2.105 . S
Sc46 O47 2.025 . S
Sc46 O56 2.105 . S
Sc46 O58 2.105 . S
Sc46 O62 2.105 . S
Sc46 O64 2.105 . S
O47 Sc44 2.025 . S
O47 Sc45 2.025 . S
O47 Sc46 2.025 . S
C48 O54 1.268 . S
C48 O64 1.268 . S
C49 O55 1.268 . S
C49 O63 1.268 . S
C50 O56 1.268 . S
C50 O65 1.268 . S
C51 O57 1.268 . S
C51 O61 1.268 . S
C52 O58 1.268 . S
C52 O60 1.268 . S
C53 O59 1.268 . S
C53 O62 1.268 . S
O54 Sc44 2.105 . S
O54 C48 1.268 . S
O55 Sc45 2.105 . S
O55 C49 1.268 . S
O56 Sc46 2.105 . S
O56 C50 1.268 . S
O57 Sc44 2.105 . S
O57 C51 1.268 . S
O58 Sc46 2.105 . S
O58 C52 1.268 . S
O59 Sc45 2.105 . S
O59 C53 1.268 . S
O60 Sc44 2.105 . S
O60 C52 1.268 . S
O61 Sc45 2.105 . S
O61 C51 1.268 . S
O62 Sc46 2.105 . S
O62 C53 1.268 . S
O63 Sc44 2.105 . S
O63 C49 1.268 . S
O64 Sc46 2.105 . S
O64 C48 1.268 . S
O65 Sc45 2.105 . S
O65 C50 1.268 . S
Sc66 O69 2.025 1_556 S
Sc66 O76 2.105 . S
Sc66 O79 2.105 . S
Sc66 O82 2.105 . S
Sc66 O85 2.105 1_556 S
Sc67 O69 2.025 . S
Sc67 O77 2.105 . S
Sc67 O81 2.105 . S
Sc67 O83 2.105 1_554 S
Sc67 O87 2.105 . S
Sc68 O69 2.025 . S
Sc68 O78 2.105 . S
Sc68 O80 2.105 1_554 S
Sc68 O84 2.105 1_554 S
Sc68 O86 2.105 . S
O69 Sc66 2.025 1_554 S
O69 Sc67 2.025 . S
O69 Sc68 2.025 . S
C70 O76 1.268 1_554 S
C70 O86 1.268 . S
C71 O77 1.268 . S
C71 O85 1.268 . S
C72 O78 1.268 . S
C72 O87 1.268 . S
C73 O79 1.268 . S
C73 O83 1.268 . S
C74 O80 1.268 . S
C74 O82 1.268 . S
C75 O81 1.262 1_556 S
C75 O84 1.270 . S
O76 Sc66 2.105 . S
O76 C70 1.268 1_556 S
O77 Sc67 2.105 . S
O77 C71 1.268 . S
O78 Sc68 2.105 . S
O78 C72 1.268 . S
O79 Sc66 2.105 . S
O79 C73 1.268 . S
O80 Sc68 2.105 1_556 S
O80 C74 1.268 . S
O81 Sc67 2.105 . S
O81 C75 1.262 1_554 S
O82 Sc66 2.105 . S
O82 C74 1.268 . S
O83 Sc67 2.105 1_556 S
O83 C73 1.268 . S
O84 Sc68 2.105 1_556 S
O84 C75 1.270 . S
O85 Sc66 2.105 1_554 S
O85 C71 1.268 . S
O86 Sc68 2.105 . S
O86 C70 1.268 . S
O87 Sc67 2.105 . S
O87 C72 1.268 . S
Sc88 O91 2.025 . S
Sc88 O98 2.105 . S
Sc88 O101 2.105 . S
Sc88 O104 2.105 . S
Sc88 O107 2.105 . S
Sc89 O91 2.025 . S
Sc89 O99 2.105 . S
Sc89 O103 2.105 . S
Sc89 O105 2.105 . S
Sc89 O109 2.105 . S
Sc90 O91 2.025 . S
Sc90 O100 2.105 . S
Sc90 O102 2.105 . S
Sc90 O106 2.105 . S
Sc90 O108 2.105 . S
O91 Sc88 2.025 . S
O91 Sc89 2.025 . S
O91 Sc90 2.025 . S
C92 O98 1.268 . S
C92 O108 1.268 . S
C93 O99 1.268 . S
C93 O107 1.268 . S
C94 O100 1.268 . S
C94 O109 1.268 . S
C95 O101 1.268 . S
C95 O105 1.268 . S
C96 O102 1.268 . S
C96 O104 1.268 . S
C97 O103 1.268 . S
C97 O106 1.268 . S
O98 Sc88 2.105 . S
O98 C92 1.268 . S
O99 Sc89 2.105 . S
O99 C93 1.268 . S
O100 Sc90 2.105 . S
O100 C94 1.268 . S
O101 Sc88 2.105 . S
O101 C95 1.268 . S
O102 Sc90 2.105 . S
O102 C96 1.268 . S
O103 Sc89 2.105 . S
O103 C97 1.268 . S
O104 Sc88 2.105 . S
O104 C96 1.268 . S
O105 Sc89 2.105 . S
O105 C95 1.268 . S
O106 Sc90 2.105 . S
O106 C97 1.268 . S
O107 Sc88 2.105 . S
O107 C93 1.268 . S
O108 Sc90 2.105 . S
O108 C92 1.268 . S
O109 Sc89 2.105 . S
O109 C94 1.268 . S
Sc110 O113 2.025 . S
Sc110 O120 2.105 . S
Sc110 O123 2.105 . S
Sc110 O126 2.105 . S
Sc110 O129 2.105 . S
Sc111 O113 2.025 . S
Sc111 O121 2.105 . S
Sc111 O125 2.105 . S
Sc111 O127 2.105 . S
Sc111 O131 2.105 . S
Sc112 O113 2.025 . S
Sc112 O122 2.105 . S
Sc112 O124 2.105 . S
Sc112 O128 2.105 . S
Sc112 O130 2.105 . S
O113 Sc110 2.025 . S
O113 Sc111 2.025 . S
O113 Sc112 2.025 . S
C114 O120 1.268 . S
C114 O130 1.268 . S
C115 O121 1.268 . S
C115 O129 1.268 . S
C116 O122 1.268 . S
C116 O131 1.268 . S
C117 O123 1.268 . S
C117 O127 1.268 . S
C118 O124 1.268 . S
C118 O126 1.268 . S
C119 O125 1.268 . S
C119 O128 1.268 . S
O120 Sc110 2.105 . S
O120 C114 1.268 . S
O121 Sc111 2.105 . S
O121 C115 1.268 . S
O122 Sc112 2.105 . S
O122 C116 1.268 . S
O123 Sc110 2.105 . S
O123 C117 1.268 . S
O124 Sc112 2.105 . S
O124 C118 1.268 . S
O125 Sc111 2.105 . S
O125 C119 1.268 . S
O126 Sc110 2.105 . S
O126 C118 1.268 . S
O127 Sc111 2.105 . S
O127 C117 1.268 . S
O128 Sc112 2.105 . S
O128 C119 1.268 . S
O129 Sc110 2.105 . S
O129 C115 1.268 . S
O130 Sc112 2.105 . S
O130 C114 1.268 . S
O131 Sc111 2.105 . S
O131 C116 1.268 . S
H132 C150 0.951 . S
H133 C152 0.951 . S
H134 C154 0.950 . S
H135 C155 0.950 . S
H136 C157 0.950 . S
H137 C160 0.950 . S
H138 C161 0.950 . S
H139 C163 0.950 . S
H140 C164 0.950 . S
H141 C165 0.951 1_554 S
H142 C167 0.951 . S
H143 C169 0.950 . S
H144 C170 0.950 . S
H145 C172 0.950 . S
H146 C175 0.950 . S
H147 C176 0.950 . S
H148 C178 0.950 . S
H149 C179 0.950 . S
C150 H132 0.951 . S
C150 C151 1.366 . S
C150 C152 1.388 . S
C151 C150 1.366 . S
C151 C155 1.385 . S
C152 H133 0.951 . S
C152 C150 1.388 . S
C152 C153 1.366 . S
C153 C152 1.366 . S
C153 C154 1.414 . S
C153 C156 1.499 . S
C154 H134 0.950 . S
C154 C153 1.414 . S
C154 C155 1.374 . S
C155 H135 0.950 . S
C155 C151 1.385 . S
C155 C154 1.374 . S
C156 C153 1.499 . S
C156 C157 1.373 . S
C156 C158 1.389 . S
C157 H136 0.950 . S
C157 C156 1.373 . S
C157 C173 1.377 . S
C158 C156 1.389 . S
C158 C159 1.524 . S
C158 C172 1.377 . S
C159 C158 1.524 . S
C159 C160 1.397 . S
C159 C164 1.363 . S
C160 H137 0.950 . S
C160 C159 1.397 . S
C160 C161 1.334 . S
C161 H138 0.950 . S
C161 C160 1.334 . S
C161 C162 1.287 . S
C162 C161 1.287 . S
C162 C163 1.524 . S
C162 H181 0.913 . S
C163 H139 0.950 . S
C163 C162 1.524 . S
C163 C164 1.415 . S
C164 H140 0.950 . S
C164 C159 1.363 . S
C164 C163 1.415 . S
C165 H141 0.951 1_556 S
C165 C166 1.366 . S
C165 C167 1.388 . S
C166 C165 1.366 . S
C166 C170 1.385 . S
C167 H142 0.951 . S
C167 C165 1.388 . S
C167 C168 1.366 . S
C168 C167 1.366 . S
C168 C169 1.414 . S
C168 C171 1.499 . S
C169 H143 0.950 . S
C169 C168 1.414 . S
C169 C170 1.374 . S
C170 H144 0.950 . S
C170 C166 1.385 . S
C170 C169 1.374 . S
C171 C168 1.499 . S
C171 C172 1.373 . S
C171 C173 1.389 . S
C172 H145 0.950 . S
C172 C158 1.377 . S
C172 C171 1.373 . S
C173 C157 1.377 . S
C173 C171 1.389 . S
C173 C174 1.524 . S
C174 C173 1.524 . S
C174 C175 1.397 . S
C174 C179 1.363 . S
C175 H146 0.950 . S
C175 C174 1.397 . S
C175 C176 1.334 . S
C176 H147 0.950 . S
C176 C175 1.334 . S
C176 C177 1.287 . S
C177 C176 1.287 . S
C177 C178 1.524 . S
C177 H180 0.999 . S
C178 H148 0.950 . S
C178 C177 1.524 . S
C178 C179 1.415 . S
C179 H149 0.950 . S
C179 C174 1.363 . S
C179 C178 1.415 . S
H180 C177 0.999 . S
H181 C162 0.913 . S
H182 C200 0.951 . S
H183 C202 0.951 . S
H184 C204 0.950 . S
H185 C205 0.950 1_556 S
H186 C207 0.950 . S
H187 C210 0.950 . S
H188 C211 0.950 1_556 S
H189 C213 0.950 . S
H190 C214 0.950 . S
H191 C215 0.951 . S
H192 C217 0.951 . S
H193 C219 0.950 . S
H194 C220 0.950 . S
H195 C222 0.950 . S
H196 C225 0.950 . S
H197 C226 0.950 . S
H198 C228 0.950 . S
H199 C229 0.950 . S
C200 H182 0.951 . S
C200 C201 1.366 . S
C200 C202 1.388 . S
C201 C200 1.366 . S
C201 C205 1.385 . S
C202 H183 0.951 . S
C202 C200 1.388 . S
C202 C203 1.366 . S
C203 C202 1.366 . S
C203 C204 1.414 . S
C203 C206 1.499 . S
C204 H184 0.950 . S
C204 C203 1.414 . S
C204 C205 1.374 . S
C205 H185 0.950 1_554 S
C205 C201 1.385 . S
C205 C204 1.374 . S
C206 C203 1.499 . S
C206 C207 1.373 . S
C206 C208 1.389 . S
C207 H186 0.950 . S
C207 C206 1.373 . S
C207 C223 1.377 1_455 S
C208 C206 1.389 . S
C208 C209 1.524 . S
C208 C222 1.377 1_455 S
C209 C208 1.524 . S
C209 C210 1.397 . S
C209 C214 1.363 . S
C210 H187 0.950 . S
C210 C209 1.397 . S
C210 C211 1.334 . S
C211 H188 0.950 1_554 S
C211 C210 1.334 . S
C211 C212 1.287 . S
C212 C211 1.287 . S
C212 C213 1.524 . S
C212 H231 0.913 . S
C213 H189 0.950 . S
C213 C212 1.524 . S
C213 C214 1.415 . S
C214 H190 0.950 . S
C214 C209 1.363 . S
C214 C213 1.415 . S
C215 H191 0.951 . S
C215 C216 1.366 . S
C215 C217 1.388 . S
C216 C215 1.366 . S
C216 C220 1.385 . S
C217 H192 0.951 . S
C217 C215 1.388 . S
C217 C218 1.366 . S
C218 C217 1.366 . S
C218 C219 1.414 . S
C218 C221 1.499 . S
C219 H193 0.950 . S
C219 C218 1.414 . S
C219 C220 1.374 . S
C220 H194 0.950 . S
C220 C216 1.385 . S
C220 C219 1.374 . S
C221 C218 1.499 . S
C221 C222 1.373 . S
C221 C223 1.389 . S
C222 H195 0.950 . S
C222 C208 1.377 1_655 S
C222 C221 1.373 . S
C223 C207 1.377 1_655 S
C223 C221 1.389 . S
C223 C224 1.524 . S
C224 C223 1.524 . S
C224 C225 1.397 . S
C224 C229 1.363 . S
C225 H196 0.950 . S
C225 C224 1.397 . S
C225 C226 1.334 . S
C226 H197 0.950 . S
C226 C225 1.334 . S
C226 C227 1.287 . S
C227 C226 1.287 . S
C227 C228 1.524 . S
C227 H230 0.999 . S
C228 H198 0.950 . S
C228 C227 1.524 . S
C228 C229 1.415 . S
C229 H199 0.950 . S
C229 C224 1.363 . S
C229 C228 1.415 . S
H230 C227 0.999 . S
H231 C212 0.913 . S
H232 C250 0.951 . S
H233 C252 0.951 . S
H234 C254 0.950 . S
H235 C255 0.950 . S
H236 C257 0.950 . S
H237 C260 0.950 . S
H238 C261 0.950 . S
H239 C263 0.950 . S
H240 C264 0.950 1_565 S
H241 C265 0.951 . S
H242 C267 0.951 . S
H243 C269 0.950 . S
H244 C270 0.950 . S
H245 C272 0.950 . S
H246 C275 0.950 . S
H247 C276 0.950 . S
H248 C278 0.950 . S
H249 C279 0.950 1_545 S
C250 H232 0.951 . S
C250 C251 1.366 . S
C250 C252 1.388 . S
C251 C250 1.366 . S
C251 C255 1.385 . S
C252 H233 0.951 . S
C252 C250 1.388 . S
C252 C253 1.366 . S
C253 C252 1.366 . S
C253 C254 1.414 . S
C253 C256 1.499 . S
C254 H234 0.950 . S
C254 C253 1.414 . S
C254 C255 1.374 . S
C255 H235 0.950 . S
C255 C251 1.385 . S
C255 C254 1.374 . S
C256 C253 1.499 . S
C256 C257 1.373 . S
C256 C258 1.389 . S
C257 H236 0.950 . S
C257 C256 1.373 . S
C257 C273 1.377 1_545 S
C258 C256 1.389 . S
C258 C259 1.524 . S
C258 C272 1.377 1_545 S
C259 C258 1.524 . S
C259 C260 1.397 . S
C259 C264 1.363 . S
C260 H237 0.950 . S
C260 C259 1.397 . S
C260 C261 1.334 . S
C261 H238 0.950 . S
C261 C260 1.334 . S
C261 C262 1.287 . S
C262 C261 1.287 . S
C262 C263 1.524 . S
C262 H281 0.913 . S
C263 H239 0.950 . S
C263 C262 1.524 . S
C263 C264 1.415 . S
C264 H240 0.950 1_545 S
C264 C259 1.363 . S
C264 C263 1.415 . S
C265 H241 0.951 . S
C265 C266 1.366 . S
C265 C267 1.388 . S
C266 C265 1.366 . S
C266 C270 1.385 . S
C267 H242 0.951 . S
C267 C265 1.388 . S
C267 C268 1.366 . S
C268 C267 1.366 . S
C268 C269 1.414 . S
C268 C271 1.499 . S
C269 H243 0.950 . S
C269 C268 1.414 . S
C269 C270 1.374 . S
C270 H244 0.950 . S
C270 C266 1.385 . S
C270 C269 1.374 . S
C271 C268 1.499 . S
C271 C272 1.373 . S
C271 C273 1.389 . S
C272 H245 0.950 . S
C272 C258 1.377 1_565 S
C272 C271 1.373 . S
C273 C257 1.377 1_565 S
C273 C271 1.389 . S
C273 C274 1.524 . S
C274 C273 1.524 . S
C274 C275 1.397 . S
C274 C279 1.363 . S
C275 H246 0.950 . S
C275 C274 1.397 . S
C275 C276 1.334 . S
C276 H247 0.950 . S
C276 C275 1.334 . S
C276 C277 1.287 . S
C277 C276 1.287 . S
C277 C278 1.524 . S
C277 H280 0.999 . S
C278 H248 0.950 . S
C278 C277 1.524 . S
C278 C279 1.415 . S
C279 H249 0.950 1_565 S
C279 C274 1.363 . S
C279 C278 1.415 . S
H280 C277 0.999 . S
H281 C262 0.913 . S
H282 C300 0.951 . S
H283 C302 0.951 . S
H284 C304 0.950 . S
H285 C305 0.950 . S
H286 C307 0.950 . S
H287 C310 0.950 . S
H288 C311 0.950 . S
H289 C313 0.950 . S
H290 C314 0.950 . S
H291 C315 0.951 1_554 S
H292 C317 0.951 . S
H293 C319 0.950 . S
H294 C320 0.950 . S
H295 C322 0.950 . S
H296 C325 0.950 . S
H297 C326 0.950 . S
H298 C328 0.950 . S
H299 C329 0.950 . S
C300 H282 0.951 . S
C300 C301 1.366 . S
C300 C302 1.388 . S
C301 C300 1.366 . S
C301 C305 1.385 . S
C302 H283 0.951 . S
C302 C300 1.388 . S
C302 C303 1.366 . S
C303 C302 1.366 . S
C303 C304 1.414 . S
C303 C306 1.499 . S
C304 H284 0.950 . S
C304 C303 1.414 . S
C304 C305 1.374 . S
C305 H285 0.950 . S
C305 C301 1.385 . S
C305 C304 1.374 . S
C306 C303 1.499 . S
C306 C307 1.373 . S
C306 C308 1.389 . S
C307 H286 0.950 . S
C307 C306 1.373 . S
C307 C323 1.377 . S
C308 C306 1.389 . S
C308 C309 1.524 . S
C308 C322 1.377 . S
C309 C308 1.524 . S
C309 C310 1.397 . S
C309 C314 1.363 . S
C310 H287 0.950 . S
C310 C309 1.397 . S
C310 C311 1.334 . S
C311 H288 0.950 . S
C311 C310 1.334 . S
C311 C312 1.287 . S
C312 C311 1.287 . S
C312 C313 1.524 . S
C312 H331 0.913 . S
C313 H289 0.950 . S
C313 C312 1.524 . S
C313 C314 1.415 . S
C314 H290 0.950 . S
C314 C309 1.363 . S
C314 C313 1.415 . S
C315 H291 0.951 1_556 S
C315 C316 1.366 . S
C315 C317 1.388 . S
C316 C315 1.366 . S
C316 C320 1.385 . S
C317 H292 0.951 . S
C317 C315 1.388 . S
C317 C318 1.366 . S
C318 C317 1.366 . S
C318 C319 1.414 . S
C318 C321 1.499 . S
C319 H293 0.950 . S
C319 C318 1.414 . S
C319 C320 1.374 . S
C320 H294 0.950 . S
C320 C316 1.385 . S
C320 C319 1.374 . S
C321 C318 1.499 . S
C321 C322 1.373 . S
C321 C323 1.389 . S
C322 H295 0.950 . S
C322 C308 1.377 . S
C322 C321 1.373 . S
C323 C307 1.377 . S
C323 C321 1.389 . S
C323 C324 1.524 . S
C324 C323 1.524 . S
C324 C325 1.397 . S
C324 C329 1.363 1_556 S
C325 H296 0.950 . S
C325 C324 1.397 . S
C325 C326 1.334 1_556 S
C326 H297 0.950 . S
C326 C325 1.334 1_554 S
C326 C327 1.287 . S
C327 C326 1.287 . S
C327 C328 1.524 . S
C327 H330 0.999 . S
C328 H298 0.950 . S
C328 C327 1.524 . S
C328 C329 1.415 . S
C329 H299 0.950 . S
C329 C324 1.363 1_554 S
C329 C328 1.415 . S
H330 C327 0.999 . S
H331 C312 0.913 . S
H332 C350 0.951 . S
H333 C352 0.951 . S
H334 C354 0.950 . S
H335 C355 0.950 . S
H336 C357 0.950 . S
H337 C360 0.950 . S
H338 C361 0.950 . S
H339 C363 0.950 . S
H340 C364 0.950 . S
H341 C365 0.951 . S
H342 C367 0.951 . S
H343 C369 0.950 . S
H344 C370 0.950 1_556 S
H345 C372 0.950 . S
H346 C375 0.950 . S
H347 C376 0.950 . S
H348 C378 0.950 . S
H349 C379 0.950 . S
C350 H332 0.951 . S
C350 C351 1.366 . S
C350 C352 1.388 . S
C351 C350 1.366 . S
C351 C355 1.385 . S
C352 H333 0.951 . S
C352 C350 1.388 . S
C352 C353 1.366 . S
C353 C352 1.366 . S
C353 C354 1.414 . S
C353 C356 1.499 . S
C354 H334 0.950 . S
C354 C353 1.414 . S
C354 C355 1.374 . S
C355 H335 0.950 . S
C355 C351 1.385 . S
C355 C354 1.374 . S
C356 C353 1.499 . S
C356 C357 1.373 . S
C356 C358 1.389 . S
C357 H336 0.950 . S
C357 C356 1.373 . S
C357 C373 1.377 1_455 S
C358 C356 1.389 . S
C358 C359 1.524 . S
C358 C372 1.377 1_455 S
C359 C358 1.524 . S
C359 C360 1.397 . S
C359 C364 1.363 . S
C360 H337 0.950 . S
C360 C359 1.397 . S
C360 C361 1.334 . S
C361 H338 0.950 . S
C361 C360 1.334 . S
C361 C362 1.287 . S
C362 C361 1.287 . S
C362 C363 1.524 . S
C362 H381 0.913 . S
C363 H339 0.950 . S
C363 C362 1.524 . S
C363 C364 1.415 . S
C364 H340 0.950 . S
C364 C359 1.363 . S
C364 C363 1.415 . S
C365 H341 0.951 . S
C365 C366 1.366 . S
C365 C367 1.388 . S
C366 C365 1.366 . S
C366 C370 1.385 . S
C367 H342 0.951 . S
C367 C365 1.388 . S
C367 C368 1.366 . S
C368 C367 1.366 . S
C368 C369 1.414 . S
C368 C371 1.499 . S
C369 H343 0.950 . S
C369 C368 1.414 . S
C369 C370 1.374 . S
C370 H344 0.950 1_554 S
C370 C366 1.385 . S
C370 C369 1.374 . S
C371 C368 1.499 . S
C371 C372 1.373 . S
C371 C373 1.389 . S
C372 H345 0.950 . S
C372 C358 1.377 1_655 S
C372 C371 1.373 . S
C373 C357 1.377 1_655 S
C373 C371 1.389 . S
C373 C374 1.524 . S
C374 C373 1.524 . S
C374 C375 1.397 . S
C374 C379 1.363 . S
C375 H346 0.950 . S
C375 C374 1.397 . S
C375 C376 1.334 . S
C376 H347 0.950 . S
C376 C375 1.334 . S
C376 C377 1.287 . S
C377 C376 1.287 . S
C377 C378 1.524 . S
C377 H380 0.999 . S
C378 H348 0.950 . S
C378 C377 1.524 . S
C378 C379 1.415 . S
C379 H349 0.950 . S
C379 C374 1.363 . S
C379 C378 1.415 . S
H380 C377 0.999 . S
H381 C362 0.913 . S
H382 C400 0.951 . S
H383 C402 0.951 . S
H384 C404 0.950 . S
H385 C405 0.950 . S
H386 C407 0.950 . S
H387 C410 0.950 . S
H388 C411 0.950 . S
H389 C413 0.950 . S
H390 C414 0.950 . S
H391 C415 0.951 . S
H392 C417 0.951 . S
H393 C419 0.950 . S
H394 C420 0.950 . S
H395 C422 0.950 . S
H396 C425 0.950 . S
H397 C426 0.950 . S
H398 C428 0.950 . S
H399 C429 0.950 . S
C400 H382 0.951 . S
C400 C401 1.366 . S
C400 C402 1.388 . S
C401 C400 1.366 . S
C401 C405 1.385 . S
C402 H383 0.951 . S
C402 C400 1.388 . S
C402 C403 1.366 . S
C403 C402 1.366 . S
C403 C404 1.414 . S
C403 C406 1.499 . S
C404 H384 0.950 . S
C404 C403 1.414 . S
C404 C405 1.374 . S
C405 H385 0.950 . S
C405 C401 1.385 . S
C405 C404 1.374 . S
C406 C403 1.499 . S
C406 C407 1.373 . S
C406 C408 1.389 . S
C407 H386 0.950 . S
C407 C406 1.373 . S
C407 C423 1.377 1_545 S
C408 C406 1.389 . S
C408 C409 1.524 . S
C408 C422 1.377 1_545 S
C409 C408 1.524 . S
C409 C410 1.397 . S
C409 C414 1.363 . S
C410 H387 0.950 . S
C410 C409 1.397 . S
C410 C411 1.334 . S
C411 H388 0.950 . S
C411 C410 1.334 . S
C411 C412 1.287 . S
C412 C411 1.287 . S
C412 C413 1.524 . S
C412 H431 0.913 . S
C413 H389 0.950 . S
C413 C412 1.524 . S
C413 C414 1.415 . S
C414 H390 0.950 . S
C414 C409 1.363 . S
C414 C413 1.415 . S
C415 H391 0.951 . S
C415 C416 1.366 . S
C415 C417 1.388 . S
C416 C415 1.366 . S
C416 C420 1.385 . S
C417 H392 0.951 . S
C417 C415 1.388 . S
C417 C418 1.366 . S
C418 C417 1.366 . S
C418 C419 1.414 . S
C418 C421 1.499 . S
C419 H393 0.950 . S
C419 C418 1.414 . S
C419 C420 1.374 . S
C420 H394 0.950 . S
C420 C416 1.385 . S
C420 C419 1.374 . S
C421 C418 1.499 . S
C421 C422 1.373 . S
C421 C423 1.389 . S
C422 H395 0.950 . S
C422 C408 1.377 1_565 S
C422 C421 1.373 . S
C423 C407 1.377 1_565 S
C423 C421 1.389 . S
C423 C424 1.524 . S
C424 C423 1.524 . S
C424 C425 1.397 . S
C424 C429 1.363 . S
C425 H396 0.950 . S
C425 C424 1.397 . S
C425 C426 1.334 . S
C426 H397 0.950 . S
C426 C425 1.334 . S
C426 C427 1.287 . S
C427 C426 1.287 . S
C427 C428 1.524 . S
C427 H430 0.999 . S
C428 H398 0.950 . S
C428 C427 1.524 . S
C428 C429 1.415 . S
C429 H399 0.950 . S
C429 C424 1.363 . S
C429 C428 1.415 . S
H430 C427 0.999 . S
H431 C412 0.913 . S
H432 C450 0.951 . S
H433 C452 0.951 . S
H434 C454 0.950 . S
H435 C455 0.950 . S
H436 C457 0.950 . S
H437 C460 0.950 . S
H438 C461 0.950 . S
H439 C463 0.950 . S
H440 C464 0.950 . S
H441 C465 0.951 . S
H442 C467 0.951 . S
H443 C469 0.950 . S
H444 C470 0.950 . S
H445 C472 0.950 . S
H446 C475 0.950 . S
H447 C476 0.950 . S
H448 C478 0.950 . S
H449 C479 0.950 . S
C450 H432 0.951 . S
C450 C451 1.366 . S
C450 C452 1.388 . S
C451 C450 1.366 . S
C451 C455 1.385 . S
C452 H433 0.951 . S
C452 C450 1.388 . S
C452 C453 1.366 . S
C453 C452 1.366 . S
C453 C454 1.414 . S
C453 C456 1.499 . S
C454 H434 0.950 . S
C454 C453 1.414 . S
C454 C455 1.374 . S
C455 H435 0.950 . S
C455 C451 1.385 . S
C455 C454 1.374 . S
C456 C453 1.499 . S
C456 C457 1.373 . S
C456 C458 1.389 . S
C457 H436 0.950 . S
C457 C456 1.373 . S
C457 C473 1.377 . S
C458 C456 1.389 . S
C458 C459 1.524 . S
C458 C472 1.377 . S
C459 C458 1.524 . S
C459 C460 1.397 . S
C459 C464 1.363 . S
C460 H437 0.950 . S
C460 C459 1.397 . S
C460 C461 1.334 . S
C461 H438 0.950 . S
C461 C460 1.334 . S
C461 C462 1.287 . S
C462 C461 1.287 . S
C462 C463 1.524 . S
C462 H481 0.913 . S
C463 H439 0.950 . S
C463 C462 1.524 . S
C463 C464 1.415 . S
C464 H440 0.950 . S
C464 C459 1.363 . S
C464 C463 1.415 . S
C465 H441 0.951 . S
C465 C466 1.366 . S
C465 C467 1.388 . S
C466 C465 1.366 . S
C466 C470 1.385 . S
C467 H442 0.951 . S
C467 C465 1.388 . S
C467 C468 1.366 . S
C468 C467 1.366 . S
C468 C469 1.414 . S
C468 C471 1.499 . S
C469 H443 0.950 . S
C469 C468 1.414 . S
C469 C470 1.374 . S
C470 H444 0.950 . S
C470 C466 1.385 . S
C470 C469 1.374 . S
C471 C468 1.499 . S
C471 C472 1.373 . S
C471 C473 1.389 . S
C472 H445 0.950 . S
C472 C458 1.377 . S
C472 C471 1.373 . S
C473 C457 1.377 . S
C473 C471 1.389 . S
C473 C474 1.524 . S
C474 C473 1.524 . S
C474 C475 1.397 . S
C474 C479 1.363 . S
C475 H446 0.950 . S
C475 C474 1.397 . S
C475 C476 1.334 . S
C476 H447 0.950 . S
C476 C475 1.334 . S
C476 C477 1.287 . S
C477 C476 1.287 . S
C477 C478 1.524 . S
C477 H480 0.999 . S
C478 H448 0.950 . S
C478 C477 1.524 . S
C478 C479 1.415 . S
C479 H449 0.950 . S
C479 C474 1.363 . S
C479 C478 1.415 . S
H480 C477 0.999 . S
H481 C462 0.913 . S
H482 C500 0.951 . S
H483 C502 0.951 1_556 S
H484 C504 0.950 . S
H485 C505 0.950 . S
H486 C507 0.950 . S
H487 C510 0.950 . S
H488 C511 0.950 1_554 S
H489 C513 0.950 . S
H490 C514 0.950 . S
H491 C515 0.951 . S
H492 C517 0.951 . S
H493 C519 0.950 . S
H494 C520 0.950 . S
H495 C522 0.950 . S
H496 C525 0.950 . S
H497 C526 0.950 . S
H498 C528 0.950 . S
H499 C529 0.950 . S
C500 H482 0.951 . S
C500 C501 1.366 . S
C500 C502 1.388 . S
C501 C500 1.366 . S
C501 C505 1.385 . S
C502 H483 0.951 1_554 S
C502 C500 1.388 . S
C502 C503 1.366 1_554 S
C503 C502 1.366 1_556 S
C503 C504 1.414 1_556 S
C503 C506 1.499 . S
C504 H484 0.950 . S
C504 C503 1.414 1_554 S
C504 C505 1.374 . S
C505 H485 0.950 . S
C505 C501 1.385 . S
C505 C504 1.374 . S
C506 C503 1.499 . S
C506 C507 1.373 . S
C506 C508 1.389 . S
C507 H486 0.950 . S
C507 C506 1.373 . S
C507 C523 1.377 . S
C508 C506 1.389 . S
C508 C509 1.524 . S
C508 C522 1.377 . S
C509 C508 1.524 . S
C509 C510 1.397 . S
C509 C514 1.363 . S
C510 H487 0.950 . S
C510 C509 1.397 . S
C510 C511 1.334 . S
C511 H488 0.950 1_556 S
C511 C510 1.334 . S
C511 C512 1.287 . S
C512 C511 1.287 . S
C512 C513 1.524 . S
C512 H531 0.913 . S
C513 H489 0.950 . S
C513 C512 1.524 . S
C513 C514 1.415 . S
C514 H490 0.950 . S
C514 C509 1.363 . S
C514 C513 1.415 . S
C515 H491 0.951 . S
C515 C516 1.366 . S
C515 C517 1.388 . S
C516 C515 1.366 . S
C516 C520 1.385 . S
C517 H492 0.951 . S
C517 C515 1.388 . S
C517 C518 1.366 . S
C518 C517 1.366 . S
C518 C519 1.414 . S
C518 C521 1.499 . S
C519 H493 0.950 . S
C519 C518 1.414 . S
C519 C520 1.374 . S
C520 H494 0.950 . S
C520 C516 1.385 . S
C520 C519 1.374 . S
C521 C518 1.499 . S
C521 C522 1.373 . S
C521 C523 1.389 . S
C522 H495 0.950 . S
C522 C508 1.377 . S
C522 C521 1.373 . S
C523 C507 1.377 . S
C523 C521 1.389 . S
C523 C524 1.524 . S
C524 C523 1.524 . S
C524 C525 1.397 . S
C524 C529 1.363 . S
C525 H496 0.950 . S
C525 C524 1.397 . S
C525 C526 1.334 . S
C526 H497 0.950 . S
C526 C525 1.334 . S
C526 C527 1.287 . S
C527 C526 1.287 . S
C527 C528 1.524 . S
C527 H530 0.999 . S
C528 H498 0.950 . S
C528 C527 1.524 . S
C528 C529 1.415 . S
C529 H499 0.950 . S
C529 C524 1.363 . S
C529 C528 1.415 . S
H530 C527 0.999 . S
H531 C512 0.913 . S
H532 C550 0.951 . S
H533 C552 0.951 . S
H534 C554 0.950 . S
H535 C555 0.950 . S
H536 C557 0.950 . S
H537 C560 0.950 . S
H538 C561 0.950 . S
H539 C563 0.950 . S
H540 C564 0.950 . S
H541 C565 0.951 . S
H542 C567 0.951 1_554 S
H543 C569 0.950 1_554 S
H544 C570 0.950 . S
H545 C572 0.950 . S
H546 C575 0.950 . S
H547 C576 0.950 1_556 S
H548 C578 0.950 . S
H549 C579 0.950 . S
C550 H532 0.951 . S
C550 C551 1.366 . S
C550 C552 1.388 . S
C551 C550 1.366 . S
C551 C555 1.385 . S
C552 H533 0.951 . S
C552 C550 1.388 . S
C552 C553 1.366 . S
C553 C552 1.366 . S
C553 C554 1.414 . S
C553 C556 1.499 . S
C554 H534 0.950 . S
C554 C553 1.414 . S
C554 C555 1.374 . S
C555 H535 0.950 . S
C555 C551 1.385 . S
C555 C554 1.374 . S
C556 C553 1.499 . S
C556 C557 1.373 . S
C556 C558 1.389 . S
C557 H536 0.950 . S
C557 C556 1.373 . S
C557 C573 1.377 . S
C558 C556 1.389 . S
C558 C559 1.524 . S
C558 C572 1.377 . S
C559 C558 1.524 . S
C559 C560 1.397 . S
C559 C564 1.363 . S
C560 H537 0.950 . S
C560 C559 1.397 . S
C560 C561 1.334 . S
C561 H538 0.950 . S
C561 C560 1.334 . S
C561 C562 1.287 . S
C562 C561 1.287 . S
C562 C563 1.524 . S
C562 H581 0.913 . S
C563 H539 0.950 . S
C563 C562 1.524 . S
C563 C564 1.415 . S
C564 H540 0.950 . S
C564 C559 1.363 . S
C564 C563 1.415 . S
C565 H541 0.951 . S
C565 C566 1.366 . S
C565 C567 1.388 . S
C566 C565 1.366 . S
C566 C570 1.385 . S
C567 H542 0.951 1_556 S
C567 C565 1.388 . S
C567 C568 1.366 1_556 S
C568 C567 1.366 1_554 S
C568 C569 1.414 1_554 S
C568 C571 1.499 . S
C569 H543 0.950 1_556 S
C569 C568 1.414 1_556 S
C569 C570 1.374 . S
C570 H544 0.950 . S
C570 C566 1.385 . S
C570 C569 1.374 . S
C571 C568 1.499 . S
C571 C572 1.373 . S
C571 C573 1.389 . S
C572 H545 0.950 . S
C572 C558 1.377 . S
C572 C571 1.373 . S
C573 C557 1.377 . S
C573 C571 1.389 . S
C573 C574 1.524 . S
C574 C573 1.524 . S
C574 C575 1.397 . S
C574 C579 1.363 . S
C575 H546 0.950 . S
C575 C574 1.397 . S
C575 C576 1.334 . S
C576 H547 0.950 1_554 S
C576 C575 1.334 . S
C576 C577 1.287 . S
C577 C576 1.287 . S
C577 C578 1.524 . S
C577 H580 0.999 . S
C578 H548 0.950 . S
C578 C577 1.524 . S
C578 C579 1.415 . S
C579 H549 0.950 . S
C579 C574 1.363 . S
C579 C578 1.415 . S
H580 C577 0.999 . S
H581 C562 0.913 . S
H582 C600 0.951 . S
H583 C602 0.951 . S
H584 C604 0.950 . S
H585 C605 0.950 . S
H586 C607 0.950 . S
H587 C610 0.950 . S
H588 C611 0.950 . S
H589 C613 0.950 . S
H590 C614 0.950 . S
H591 C615 0.951 . S
H592 C617 0.951 . S
H593 C619 0.950 . S
H594 C620 0.950 . S
H595 C622 0.950 . S
H596 C625 0.950 . S
H597 C626 0.950 . S
H598 C628 0.950 . S
H599 C629 0.950 . S
C600 H582 0.951 . S
C600 C601 1.366 . S
C600 C602 1.388 . S
C601 C600 1.366 . S
C601 C605 1.385 . S
C602 H583 0.951 . S
C602 C600 1.388 . S
C602 C603 1.366 . S
C603 C602 1.366 . S
C603 C604 1.414 . S
C603 C606 1.499 . S
C604 H584 0.950 . S
C604 C603 1.414 . S
C604 C605 1.374 . S
C605 H585 0.950 . S
C605 C601 1.385 . S
C605 C604 1.374 . S
C606 C603 1.499 . S
C606 C607 1.373 . S
C606 C608 1.389 . S
C607 H586 0.950 . S
C607 C606 1.373 . S
C607 C623 1.377 . S
C608 C606 1.389 . S
C608 C609 1.524 . S
C608 C622 1.377 . S
C609 C608 1.524 . S
C609 C610 1.397 . S
C609 C614 1.363 . S
C610 H587 0.950 . S
C610 C609 1.397 . S
C610 C611 1.334 . S
C611 H588 0.950 . S
C611 C610 1.334 . S
C611 C612 1.287 . S
C612 C611 1.287 . S
C612 C613 1.524 . S
C612 H631 0.913 . S
C613 H589 0.950 . S
C613 C612 1.524 . S
C613 C614 1.415 . S
C614 H590 0.950 . S
C614 C609 1.363 . S
C614 C613 1.415 . S
C615 H591 0.951 . S
C615 C616 1.366 . S
C615 C617 1.388 . S
C616 C615 1.366 . S
C616 C620 1.385 . S
C617 H592 0.951 . S
C617 C615 1.388 . S
C617 C618 1.366 . S
C618 C617 1.366 . S
C618 C619 1.414 . S
C618 C621 1.499 . S
C619 H593 0.950 . S
C619 C618 1.414 . S
C619 C620 1.374 . S
C620 H594 0.950 . S
C620 C616 1.385 . S
C620 C619 1.374 . S
C621 C618 1.499 . S
C621 C622 1.373 . S
C621 C623 1.389 . S
C622 H595 0.950 . S
C622 C608 1.377 . S
C622 C621 1.373 . S
C623 C607 1.377 . S
C623 C621 1.389 . S
C623 C624 1.524 . S
C624 C623 1.524 . S
C624 C625 1.397 . S
C624 C629 1.363 . S
C625 H596 0.950 . S
C625 C624 1.397 . S
C625 C626 1.334 . S
C626 H597 0.950 . S
C626 C625 1.334 . S
C626 C627 1.287 . S
C627 C626 1.287 . S
C627 C628 1.524 . S
C627 H630 0.999 . S
C628 H598 0.950 . S
C628 C627 1.524 . S
C628 C629 1.415 . S
C629 H599 0.950 . S
C629 C624 1.363 . S
C629 C628 1.415 . S
H630 C627 0.999 . S
H631 C612 0.913 . S
H632 C650 0.951 . S
H633 C652 0.951 . S
H634 C654 0.950 . S
H635 C655 0.950 . S
H636 C657 0.950 . S
H637 C660 0.950 . S
H638 C661 0.950 . S
H639 C663 0.950 . S
H640 C664 0.950 . S
H641 C665 0.951 . S
H642 C667 0.951 1_556 S
H643 C669 0.950 . S
H644 C670 0.950 . S
H645 C672 0.950 . S
H646 C675 0.950 . S
H647 C676 0.950 . S
H648 C678 0.950 . S
H649 C679 0.950 . S
C650 H632 0.951 . S
C650 C651 1.366 . S
C650 C652 1.388 . S
C651 C650 1.366 . S
C651 C655 1.385 . S
C652 H633 0.951 . S
C652 C650 1.388 . S
C652 C653 1.366 . S
C653 C652 1.366 . S
C653 C654 1.414 . S
C653 C656 1.499 . S
C654 H634 0.950 . S
C654 C653 1.414 . S
C654 C655 1.374 . S
C655 H635 0.950 . S
C655 C651 1.385 . S
C655 C654 1.374 . S
C656 C653 1.499 . S
C656 C657 1.373 . S
C656 C658 1.389 . S
C657 H636 0.950 . S
C657 C656 1.373 . S
C657 C673 1.377 . S
C658 C656 1.389 . S
C658 C659 1.524 . S
C658 C672 1.377 . S
C659 C658 1.524 . S
C659 C660 1.397 . S
C659 C664 1.363 . S
C660 H637 0.950 . S
C660 C659 1.397 . S
C660 C661 1.334 . S
C661 H638 0.950 . S
C661 C660 1.334 . S
C661 C662 1.287 . S
C662 C661 1.287 . S
C662 C663 1.524 . S
C662 H681 0.913 . S
C663 H639 0.950 . S
C663 C662 1.524 . S
C663 C664 1.415 . S
C664 H640 0.950 . S
C664 C659 1.363 . S
C664 C663 1.415 . S
C665 H641 0.951 . S
C665 C666 1.366 . S
C665 C667 1.388 . S
C666 C665 1.366 . S
C666 C670 1.385 . S
C667 H642 0.951 1_554 S
C667 C665 1.388 . S
C667 C668 1.366 1_554 S
C668 C667 1.366 1_556 S
C668 C669 1.414 1_556 S
C668 C671 1.499 . S
C669 H643 0.950 . S
C669 C668 1.414 1_554 S
C669 C670 1.374 . S
C670 H644 0.950 . S
C670 C666 1.385 . S
C670 C669 1.374 . S
C671 C668 1.499 . S
C671 C672 1.373 . S
C671 C673 1.389 . S
C672 H645 0.950 . S
C672 C658 1.377 . S
C672 C671 1.373 . S
C673 C657 1.377 . S
C673 C671 1.389 . S
C673 C674 1.524 . S
C674 C673 1.524 . S
C674 C675 1.397 . S
C674 C679 1.363 . S
C675 H646 0.950 . S
C675 C674 1.397 . S
C675 C676 1.334 . S
C676 H647 0.950 . S
C676 C675 1.334 . S
C676 C677 1.287 . S
C677 C676 1.287 . S
C677 C678 1.524 . S
C677 H680 0.999 . S
C678 H648 0.950 . S
C678 C677 1.524 . S
C678 C679 1.415 . S
C679 H649 0.950 . S
C679 C674 1.363 . S
C679 C678 1.415 . S
H680 C677 0.999 . S
H681 C662 0.913 . S
H682 C700 0.951 . S
H683 C702 0.951 . S
H684 C704 0.950 . S
H685 C705 0.950 . S
H686 C707 0.950 . S
H687 C710 0.950 . S
H688 C711 0.950 . S
H689 C713 0.950 . S
H690 C714 0.950 . S
H691 C715 0.951 . S
H692 C717 0.951 1_554 S
H693 C719 0.950 1_554 S
H694 C720 0.950 . S
H695 C722 0.950 . S
H696 C725 0.950 . S
H697 C726 0.950 . S
H698 C728 0.950 . S
H699 C729 0.950 . S
C700 H682 0.951 . S
C700 C701 1.366 . S
C700 C702 1.388 . S
C701 C700 1.366 . S
C701 C705 1.385 . S
C702 H683 0.951 . S
C702 C700 1.388 . S
C702 C703 1.366 . S
C703 C702 1.366 . S
C703 C704 1.414 . S
C703 C706 1.499 . S
C704 H684 0.950 . S
C704 C703 1.414 . S
C704 C705 1.374 . S
C705 H685 0.950 . S
C705 C701 1.385 . S
C705 C704 1.374 . S
C706 C703 1.499 . S
C706 C707 1.373 . S
C706 C708 1.389 . S
C707 H686 0.950 . S
C707 C706 1.373 . S
C707 C723 1.377 . S
C708 C706 1.389 . S
C708 C709 1.524 . S
C708 C722 1.377 . S
C709 C708 1.524 . S
C709 C710 1.397 . S
C709 C714 1.363 . S
C710 H687 0.950 . S
C710 C709 1.397 . S
C710 C711 1.334 . S
C711 H688 0.950 . S
C711 C710 1.334 . S
C711 C712 1.287 . S
C712 C711 1.287 . S
C712 C713 1.524 . S
C712 H731 0.913 . S
C713 H689 0.950 . S
C713 C712 1.524 . S
C713 C714 1.415 . S
C714 H690 0.950 . S
C714 C709 1.363 . S
C714 C713 1.415 . S
C715 H691 0.951 . S
C715 C716 1.366 . S
C715 C717 1.388 . S
C716 C715 1.366 . S
C716 C720 1.385 . S
C717 H692 0.951 1_556 S
C717 C715 1.388 . S
C717 C718 1.366 1_556 S
C718 C717 1.366 1_554 S
C718 C719 1.414 1_554 S
C718 C721 1.499 . S
C719 H693 0.950 1_556 S
C719 C718 1.414 1_556 S
C719 C720 1.374 . S
C720 H694 0.950 . S
C720 C716 1.385 . S
C720 C719 1.374 . S
C721 C718 1.499 . S
C721 C722 1.373 . S
C721 C723 1.389 . S
C722 H695 0.950 . S
C722 C708 1.377 . S
C722 C721 1.373 . S
C723 C707 1.377 . S
C723 C721 1.389 . S
C723 C724 1.524 . S
C724 C723 1.524 . S
C724 C725 1.397 . S
C724 C729 1.363 . S
C725 H696 0.950 . S
C725 C724 1.397 . S
C725 C726 1.334 . S
C726 H697 0.950 . S
C726 C725 1.334 . S
C726 C727 1.287 . S
C727 C726 1.287 . S
C727 C728 1.524 . S
C727 H730 0.999 . S
C728 H698 0.950 . S
C728 C727 1.524 . S
C728 C729 1.415 . S
C729 H699 0.950 . S
C729 C724 1.363 . S
C729 C728 1.415 . S
H730 C727 0.999 . S
H731 C712 0.913 . S
H732 C750 0.951 . S
H733 C752 0.951 . S
H734 C754 0.950 . S
H735 C755 0.950 . S
H736 C757 0.950 . S
H737 C760 0.950 . S
H738 C761 0.950 . S
H739 C763 0.950 . S
H740 C764 0.950 . S
H741 C765 0.951 . S
H742 C767 0.951 . S
H743 C769 0.950 . S
H744 C770 0.950 . S
H745 C772 0.950 . S
H746 C775 0.950 . S
H747 C776 0.950 . S
H748 C778 0.950 1_556 S
H749 C779 0.950 . S
C750 H732 0.951 . S
C750 C751 1.366 . S
C750 C752 1.388 . S
C751 C750 1.366 . S
C751 C755 1.385 . S
C752 H733 0.951 . S
C752 C750 1.388 . S
C752 C753 1.366 . S
C753 C752 1.366 . S
C753 C754 1.414 . S
C753 C756 1.499 . S
C754 H734 0.950 . S
C754 C753 1.414 . S
C754 C755 1.374 . S
C755 H735 0.950 . S
C755 C751 1.385 . S
C755 C754 1.374 . S
C756 C753 1.499 . S
C756 C757 1.373 . S
C756 C758 1.389 . S
C757 H736 0.950 . S
C757 C756 1.373 . S
C757 C773 1.377 . S
C758 C756 1.389 . S
C758 C759 1.524 . S
C758 C772 1.377 . S
C759 C758 1.524 . S
C759 C760 1.397 . S
C759 C764 1.363 . S
C760 H737 0.950 . S
C760 C759 1.397 . S
C760 C761 1.334 . S
C761 H738 0.950 . S
C761 C760 1.334 . S
C761 C762 1.287 . S
C762 C761 1.287 . S
C762 C763 1.524 . S
C762 H781 0.913 . S
C763 H739 0.950 . S
C763 C762 1.524 . S
C763 C764 1.415 . S
C764 H740 0.950 . S
C764 C759 1.363 . S
C764 C763 1.415 . S
C765 H741 0.951 . S
C765 C766 1.366 . S
C765 C767 1.388 . S
C766 C765 1.366 . S
C766 C770 1.385 . S
C767 H742 0.951 . S
C767 C765 1.388 . S
C767 C768 1.366 . S
C768 C767 1.366 . S
C768 C769 1.414 . S
C768 C771 1.499 . S
C769 H743 0.950 . S
C769 C768 1.414 . S
C769 C770 1.374 . S
C770 H744 0.950 . S
C770 C766 1.385 . S
C770 C769 1.374 . S
C771 C768 1.499 . S
C771 C772 1.373 . S
C771 C773 1.389 . S
C772 H745 0.950 . S
C772 C758 1.377 . S
C772 C771 1.373 . S
C773 C757 1.377 . S
C773 C771 1.389 . S
C773 C774 1.524 . S
C774 C773 1.524 . S
C774 C775 1.397 . S
C774 C779 1.363 . S
C775 H746 0.950 . S
C775 C774 1.397 . S
C775 C776 1.334 . S
C776 H747 0.950 . S
C776 C775 1.334 . S
C776 C777 1.287 . S
C777 C776 1.287 . S
C777 C778 1.524 . S
C777 H780 0.999 . S
C778 H748 0.950 1_554 S
C778 C777 1.524 . S
C778 C779 1.415 . S
C779 H749 0.950 . S
C779 C774 1.363 . S
C779 C778 1.415 . S
H780 C777 0.999 . S
H781 C762 0.913 . S
H782 C800 0.951 . S
H783 C802 0.951 . S
H784 C804 0.950 . S
H785 C805 0.950 . S
H786 C807 0.950 . S
H787 C810 0.950 . S
H788 C811 0.950 . S
H789 C813 0.950 . S
H790 C814 0.950 . S
H791 C815 0.951 . S
H792 C817 0.951 . S
H793 C819 0.950 . S
H794 C820 0.950 . S
H795 C822 0.950 . S
H796 C825 0.950 . S
H797 C826 0.950 . S
H798 C828 0.950 . S
H799 C829 0.950 . S
C800 H782 0.951 . S
C800 C801 1.366 . S
C800 C802 1.388 . S
C801 C800 1.366 . S
C801 C805 1.385 . S
C802 H783 0.951 . S
C802 C800 1.388 . S
C802 C803 1.366 . S
C803 C802 1.366 . S
C803 C804 1.414 . S
C803 C806 1.499 . S
C804 H784 0.950 . S
C804 C803 1.414 . S
C804 C805 1.374 . S
C805 H785 0.950 . S
C805 C801 1.385 . S
C805 C804 1.374 . S
C806 C803 1.499 . S
C806 C807 1.373 . S
C806 C808 1.389 . S
C807 H786 0.950 . S
C807 C806 1.373 . S
C807 C823 1.377 . S
C808 C806 1.389 . S
C808 C809 1.524 . S
C808 C822 1.377 . S
C809 C808 1.524 . S
C809 C810 1.397 . S
C809 C814 1.363 . S
C810 H787 0.950 . S
C810 C809 1.397 . S
C810 C811 1.334 . S
C811 H788 0.950 . S
C811 C810 1.334 . S
C811 C812 1.287 . S
C812 C811 1.287 . S
C812 C813 1.524 . S
C812 H831 0.913 . S
C813 H789 0.950 . S
C813 C812 1.524 . S
C813 C814 1.415 . S
C814 H790 0.950 . S
C814 C809 1.363 . S
C814 C813 1.415 . S
C815 H791 0.951 . S
C815 C816 1.366 . S
C815 C817 1.388 . S
C816 C815 1.366 . S
C816 C820 1.385 . S
C817 H792 0.951 . S
C817 C815 1.388 . S
C817 C818 1.366 . S
C818 C817 1.366 . S
C818 C819 1.414 . S
C818 C821 1.499 . S
C819 H793 0.950 . S
C819 C818 1.414 . S
C819 C820 1.374 . S
C820 H794 0.950 . S
C820 C816 1.385 . S
C820 C819 1.374 . S
C821 C818 1.499 . S
C821 C822 1.373 . S
C821 C823 1.389 . S
C822 H795 0.950 . S
C822 C808 1.377 . S
C822 C821 1.373 . S
C823 C807 1.377 . S
C823 C821 1.389 . S
C823 C824 1.524 . S
C824 C823 1.524 . S
C824 C825 1.397 . S
C824 C829 1.363 . S
C825 H796 0.950 . S
C825 C824 1.397 . S
C825 C826 1.334 . S
C826 H797 0.950 . S
C826 C825 1.334 . S
C826 C827 1.287 . S
C827 C826 1.287 . S
C827 C828 1.524 . S
C827 H830 0.999 . S
C828 H798 0.950 . S
C828 C827 1.524 . S
C828 C829 1.415 . S
C829 H799 0.950 . S
C829 C824 1.363 . S
C829 C828 1.415 . S
H830 C827 0.999 . S
H831 C812 0.913 . S
H832 C850 0.951 . S
H833 C852 0.951 . S
H834 C854 0.950 . S
H835 C855 0.950 . S
H836 C857 0.950 . S
H837 C860 0.950 . S
H838 C861 0.950 . S
H839 C863 0.950 . S
H840 C864 0.950 . S
H841 C865 0.951 . S
H842 C867 0.951 . S
H843 C869 0.950 . S
H844 C870 0.950 . S
H845 C872 0.950 . S
H846 C875 0.950 . S
H847 C876 0.950 . S
H848 C878 0.950 . S
H849 C879 0.950 . S
C850 H832 0.951 . S
C850 C851 1.366 . S
C850 C852 1.388 . S
C851 C850 1.366 . S
C851 C855 1.385 . S
C852 H833 0.951 . S
C852 C850 1.388 . S
C852 C853 1.366 . S
C853 C852 1.366 . S
C853 C854 1.414 . S
C853 C856 1.499 . S
C854 H834 0.950 . S
C854 C853 1.414 . S
C854 C855 1.374 . S
C855 H835 0.950 . S
C855 C851 1.385 . S
C855 C854 1.374 . S
C856 C853 1.499 . S
C856 C857 1.373 . S
C856 C858 1.389 . S
C857 H836 0.950 . S
C857 C856 1.373 . S
C857 C873 1.377 . S
C858 C856 1.389 . S
C858 C859 1.524 . S
C858 C872 1.377 . S
C859 C858 1.524 . S
C859 C860 1.397 . S
C859 C864 1.363 . S
C860 H837 0.950 . S
C860 C859 1.397 . S
C860 C861 1.334 . S
C861 H838 0.950 . S
C861 C860 1.334 . S
C861 C862 1.287 . S
C862 C861 1.287 . S
C862 C863 1.524 . S
C862 H881 0.913 . S
C863 H839 0.950 . S
C863 C862 1.524 . S
C863 C864 1.415 . S
C864 H840 0.950 . S
C864 C859 1.363 . S
C864 C863 1.415 . S
C865 H841 0.951 . S
C865 C866 1.366 . S
C865 C867 1.388 . S
C866 C865 1.366 . S
C866 C870 1.385 . S
C867 H842 0.951 . S
C867 C865 1.388 . S
C867 C868 1.366 . S
C868 C867 1.366 . S
C868 C869 1.414 . S
C868 C871 1.499 . S
C869 H843 0.950 . S
C869 C868 1.414 . S
C869 C870 1.374 . S
C870 H844 0.950 . S
C870 C866 1.385 . S
C870 C869 1.374 . S
C871 C868 1.499 . S
C871 C872 1.373 . S
C871 C873 1.389 . S
C872 H845 0.950 . S
C872 C858 1.377 . S
C872 C871 1.373 . S
C873 C857 1.377 . S
C873 C871 1.389 . S
C873 C874 1.524 . S
C874 C873 1.524 . S
C874 C875 1.397 . S
C874 C879 1.363 1_556 S
C875 H846 0.950 . S
C875 C874 1.397 . S
C875 C876 1.334 . S
C876 H847 0.950 . S
C876 C875 1.334 . S
C876 C877 1.287 1_556 S
C877 C876 1.287 1_554 S
C877 C878 1.524 . S
C877 H880 0.999 . S
C878 H848 0.950 . S
C878 C877 1.524 . S
C878 C879 1.415 . S
C879 H849 0.950 . S
C879 C874 1.363 1_554 S
C879 C878 1.415 . S
H880 C877 0.999 . S
H881 C862 0.913 . S
H882 C900 0.951 . S
H883 C902 0.951 . S
H884 C904 0.950 . S
H885 C905 0.950 . S
H886 C907 0.950 . S
H887 C910 0.950 . S
H888 C911 0.950 . S
H889 C913 0.950 . S
H890 C914 0.950 . S
H891 C915 0.951 . S
H892 C917 0.951 . S
H893 C919 0.950 . S
H894 C920 0.950 . S
H895 C922 0.950 . S
H896 C925 0.950 . S
H897 C926 0.950 1_556 S
H898 C928 0.950 . S
H899 C929 0.950 . S
C900 H882 0.951 . S
C900 C901 1.366 . S
C900 C902 1.388 . S
C901 C900 1.366 . S
C901 C905 1.385 . S
C902 H883 0.951 . S
C902 C900 1.388 . S
C902 C903 1.366 . S
C903 C902 1.366 . S
C903 C904 1.414 . S
C903 C906 1.499 . S
C904 H884 0.950 . S
C904 C903 1.414 . S
C904 C905 1.374 . S
C905 H885 0.950 . S
C905 C901 1.385 . S
C905 C904 1.374 . S
C906 C903 1.499 . S
C906 C907 1.373 . S
C906 C908 1.389 . S
C907 H886 0.950 . S
C907 C906 1.373 . S
C907 C923 1.377 . S
C908 C906 1.389 . S
C908 C909 1.524 . S
C908 C922 1.377 . S
C909 C908 1.524 . S
C909 C910 1.397 . S
C909 C914 1.363 . S
C910 H887 0.950 . S
C910 C909 1.397 . S
C910 C911 1.334 . S
C911 H888 0.950 . S
C911 C910 1.334 . S
C911 C912 1.287 . S
C912 C911 1.287 . S
C912 C913 1.524 . S
C912 H931 0.913 . S
C913 H889 0.950 . S
C913 C912 1.524 . S
C913 C914 1.415 . S
C914 H890 0.950 . S
C914 C909 1.363 . S
C914 C913 1.415 . S
C915 H891 0.951 . S
C915 C916 1.366 . S
C915 C917 1.388 . S
C916 C915 1.366 . S
C916 C920 1.385 . S
C917 H892 0.951 . S
C917 C915 1.388 . S
C917 C918 1.366 . S
C918 C917 1.366 . S
C918 C919 1.414 . S
C918 C921 1.499 . S
C919 H893 0.950 . S
C919 C918 1.414 . S
C919 C920 1.374 . S
C920 H894 0.950 . S
C920 C916 1.385 . S
C920 C919 1.374 . S
C921 C918 1.499 . S
C921 C922 1.373 . S
C921 C923 1.389 . S
C922 H895 0.950 . S
C922 C908 1.377 . S
C922 C921 1.373 . S
C923 C907 1.377 . S
C923 C921 1.389 . S
C923 C924 1.524 . S
C924 C923 1.524 . S
C924 C925 1.397 . S
C924 C929 1.363 . S
C925 H896 0.950 . S
C925 C924 1.397 . S
C925 C926 1.334 . S
C926 H897 0.950 1_554 S
C926 C925 1.334 . S
C926 C927 1.287 . S
C927 C926 1.287 . S
C927 C928 1.524 . S
C927 H930 0.999 . S
C928 H898 0.950 . S
C928 C927 1.524 . S
C928 C929 1.415 . S
C929 H899 0.950 . S
C929 C924 1.363 . S
C929 C928 1.415 . S
H930 C927 0.999 . S
H931 C912 0.913 . S
H932 C950 0.951 . S
H933 C952 0.951 . S
H934 C954 0.950 . S
H935 C955 0.950 . S
H936 C957 0.950 . S
H937 C960 0.950 . S
H938 C961 0.950 . S
H939 C963 0.950 . S
H940 C964 0.950 . S
H941 C965 0.951 . S
H942 C967 0.951 . S
H943 C969 0.950 . S
H944 C970 0.950 . S
H945 C972 0.950 . S
H946 C975 0.950 . S
H947 C976 0.950 . S
H948 C978 0.950 . S
H949 C979 0.950 . S
C950 H932 0.951 . S
C950 C951 1.366 . S
C950 C952 1.388 . S
C951 C950 1.366 . S
C951 C955 1.385 . S
C952 H933 0.951 . S
C952 C950 1.388 . S
C952 C953 1.366 . S
C953 C952 1.366 . S
C953 C954 1.414 . S
C953 C956 1.499 . S
C954 H934 0.950 . S
C954 C953 1.414 . S
C954 C955 1.374 . S
C955 H935 0.950 . S
C955 C951 1.385 . S
C955 C954 1.374 . S
C956 C953 1.499 . S
C956 C957 1.373 . S
C956 C958 1.389 . S
C957 H936 0.950 . S
C957 C956 1.373 . S
C957 C973 1.377 . S
C958 C956 1.389 . S
C958 C959 1.524 . S
C958 C972 1.377 . S
C959 C958 1.524 . S
C959 C960 1.397 . S
C959 C964 1.363 . S
C960 H937 0.950 . S
C960 C959 1.397 . S
C960 C961 1.334 . S
C961 H938 0.950 . S
C961 C960 1.334 . S
C961 C962 1.287 . S
C962 C961 1.287 . S
C962 C963 1.524 . S
C962 H981 0.913 . S
C963 H939 0.950 . S
C963 C962 1.524 . S
C963 C964 1.415 . S
C964 H940 0.950 . S
C964 C959 1.363 . S
C964 C963 1.415 . S
C965 H941 0.951 . S
C965 C966 1.366 . S
C965 C967 1.388 . S
C966 C965 1.366 . S
C966 C970 1.385 . S
C967 H942 0.951 . S
C967 C965 1.388 . S
C967 C968 1.366 . S
C968 C967 1.366 . S
C968 C969 1.414 . S
C968 C971 1.499 . S
C969 H943 0.950 . S
C969 C968 1.414 . S
C969 C970 1.374 . S
C970 H944 0.950 . S
C970 C966 1.385 . S
C970 C969 1.374 . S
C971 C968 1.499 . S
C971 C972 1.373 . S
C971 C973 1.389 . S
C972 H945 0.950 . S
C972 C958 1.377 . S
C972 C971 1.373 . S
C973 C957 1.377 . S
C973 C971 1.389 . S
C973 C974 1.524 . S
C974 C973 1.524 . S
C974 C975 1.397 . S
C974 C979 1.363 . S
C975 H946 0.950 . S
C975 C974 1.397 . S
C975 C976 1.334 . S
C976 H947 0.950 . S
C976 C975 1.334 . S
C976 C977 1.287 . S
C977 C976 1.287 . S
C977 C978 1.524 . S
C977 H980 0.999 . S
C978 H948 0.950 . S
C978 C977 1.524 . S
C978 C979 1.415 . S
C979 H949 0.950 . S
C979 C974 1.363 . S
C979 C978 1.415 . S
H980 C977 0.999 . S
H981 C962 0.913 . S
H982 C1000 0.951 . S
H983 C1002 0.951 . S
H984 C1004 0.950 . S
H985 C1005 0.950 . S
H986 C1007 0.950 . S
H987 C1010 0.950 . S
H988 C1011 0.950 . S
H989 C1013 0.950 . S
H990 C1014 0.950 . S
H991 C1015 0.951 . S
H992 C1017 0.951 . S
H993 C1019 0.950 . S
H994 C1020 0.950 . S
H995 C1022 0.950 . S
H996 C1025 0.950 . S
H997 C1026 0.950 . S
H998 C1028 0.950 . S
H999 C1029 0.950 . S
C1000 H982 0.951 . S
C1000 C1001 1.366 . S
C1000 C1002 1.388 . S
C1001 C1000 1.366 . S
C1001 C1005 1.385 . S
C1002 H983 0.951 . S
C1002 C1000 1.388 . S
C1002 C1003 1.366 . S
C1003 C1002 1.366 . S
C1003 C1004 1.414 . S
C1003 C1006 1.499 . S
C1004 H984 0.950 . S
C1004 C1003 1.414 . S
C1004 C1005 1.374 . S
C1005 H985 0.950 . S
C1005 C1001 1.385 . S
C1005 C1004 1.374 . S
C1006 C1003 1.499 . S
C1006 C1007 1.373 . S
C1006 C1008 1.389 . S
C1007 H986 0.950 . S
C1007 C1006 1.373 . S
C1007 C1023 1.377 . S
C1008 C1006 1.389 . S
C1008 C1009 1.524 . S
C1008 C1022 1.377 . S
C1009 C1008 1.524 . S
C1009 C1010 1.397 . S
C1009 C1014 1.363 . S
C1010 H987 0.950 . S
C1010 C1009 1.397 . S
C1010 C1011 1.334 . S
C1011 H988 0.950 . S
C1011 C1010 1.334 . S
C1011 C1012 1.287 . S
C1012 C1011 1.287 . S
C1012 C1013 1.524 . S
C1012 H1031 0.913 . S
C1013 H989 0.950 . S
C1013 C1012 1.524 . S
C1013 C1014 1.415 . S
C1014 H990 0.950 . S
C1014 C1009 1.363 . S
C1014 C1013 1.415 . S
C1015 H991 0.951 . S
C1015 C1016 1.366 . S
C1015 C1017 1.388 . S
C1016 C1015 1.366 . S
C1016 C1020 1.385 . S
C1017 H992 0.951 . S
C1017 C1015 1.388 . S
C1017 C1018 1.366 . S
C1018 C1017 1.366 . S
C1018 C1019 1.414 . S
C1018 C1021 1.499 . S
C1019 H993 0.950 . S
C1019 C1018 1.414 . S
C1019 C1020 1.374 . S
C1020 H994 0.950 . S
C1020 C1016 1.385 . S
C1020 C1019 1.374 . S
C1021 C1018 1.499 . S
C1021 C1022 1.373 . S
C1021 C1023 1.389 . S
C1022 H995 0.950 . S
C1022 C1008 1.377 . S
C1022 C1021 1.373 . S
C1023 C1007 1.377 . S
C1023 C1021 1.389 . S
C1023 C1024 1.524 . S
C1024 C1023 1.524 . S
C1024 C1025 1.397 . S
C1024 C1029 1.363 . S
C1025 H996 0.950 . S
C1025 C1024 1.397 . S
C1025 C1026 1.334 . S
C1026 H997 0.950 . S
C1026 C1025 1.334 . S
C1026 C1027 1.287 . S
C1027 C1026 1.287 . S
C1027 C1028 1.524 . S
C1027 H1030 0.999 . S
C1028 H998 0.950 . S
C1028 C1027 1.524 . S
C1028 C1029 1.415 . S
C1029 H999 0.950 . S
C1029 C1024 1.363 . S
C1029 C1028 1.415 . S
H1030 C1027 0.999 . S
H1031 C1012 0.913 . S
C151 C114 1.655 . S
C166 C5 1.661 . S
C201 C8 1.655 . S
C216 C31 1.655 . S
C251 C26 1.655 . S
C266 C49 1.655 . S
C301 C52 1.655 . S
C316 C75 1.661 . S
C351 C93 1.655 . S
C366 C70 1.655 . S
C401 C119 1.655 . S
C416 C96 1.655 . S
C451 C4 1.095 . S
C466 C7 1.095 . S
C501 C30 1.094 . S
C516 C28 1.095 . S
C551 C48 1.094 . S
C566 C51 1.094 . S
C601 C74 1.094 . S
C616 C72 1.095 . S
C651 C95 1.095 . S
C666 C92 1.095 . S
C701 C118 1.094 . S
C716 C116 1.095 . S
C751 C9 1.068 . S
C766 C94 1.069 . S
C801 C27 1.068 . S
C816 C117 1.069 . S
C851 C6 1.068 . S
C866 C53 1.068 . S
C901 C29 1.069 . S
C916 C71 1.069 . S
C951 C97 1.068 . S
C966 C50 1.069 . S
C1001 C73 1.068 . S
C1016 C115 1.068 . S
