# Generated by pormake.
# Topology vbn, (6)-cn, num edge types: 1
# Building blocks:
#     Node 0, Type 0, BuildingBlock: OJICUG_clean_sbu_0, # of connection points: 6
#     Node 1, Type 0, BuildingBlock: OJICUG_clean_sbu_0, # of connection points: 6
#     Node 2, Type 0, BuildingBlock: OJICUG_clean_sbu_0, # of connection points: 6
#     Node 3, Type 0, BuildingBlock: OJICUG_clean_sbu_0, # of connection points: 6
#     Node 4, Type 0, BuildingBlock: OJICUG_clean_sbu_0, # of connection points: 6
#     Node 5, Type 0, BuildingBlock: OJICUG_clean_sbu_0, # of connection points: 6
#     Node 6, Type 0, BuildingBlock: OJICUG_clean_sbu_0, # of connection points: 6
#     Node 7, Type 0, BuildingBlock: OJICUG_clean_sbu_0, # of connection points: 6
#     Edge 8, Type (0, 0), BuildingBlock: UVAHIK_clean_linker_0, # of connection points: 2
#     Edge 9, Type (0, 0), BuildingBlock: UVAHIK_clean_linker_0, # of connection points: 2
#     Edge 10, Type (0, 0), BuildingBlock: UVAHIK_clean_linker_0, # of connection points: 2
#     Edge 11, Type (0, 0), BuildingBlock: UVAHIK_clean_linker_0, # of connection points: 2
#     Edge 12, Type (0, 0), BuildingBlock: UVAHIK_clean_linker_0, # of connection points: 2
#     Edge 13, Type (0, 0), BuildingBlock: UVAHIK_clean_linker_0, # of connection points: 2
#     Edge 14, Type (0, 0), BuildingBlock: UVAHIK_clean_linker_0, # of connection points: 2
#     Edge 15, Type (0, 0), BuildingBlock: UVAHIK_clean_linker_0, # of connection points: 2
#     Edge 16, Type (0, 0), BuildingBlock: UVAHIK_clean_linker_0, # of connection points: 2
#     Edge 17, Type (0, 0), BuildingBlock: UVAHIK_clean_linker_0, # of connection points: 2
#     Edge 18, Type (0, 0), BuildingBlock: UVAHIK_clean_linker_0, # of connection points: 2
#     Edge 19, Type (0, 0), BuildingBlock: UVAHIK_clean_linker_0, # of connection points: 2
#     Edge 20, Type (0, 0), BuildingBlock: UVAHIK_clean_linker_0, # of connection points: 2
#     Edge 21, Type (0, 0), BuildingBlock: UVAHIK_clean_linker_0, # of connection points: 2
#     Edge 22, Type (0, 0), BuildingBlock: UVAHIK_clean_linker_0, # of connection points: 2
#     Edge 23, Type (0, 0), BuildingBlock: UVAHIK_clean_linker_0, # of connection points: 2
#     Edge 24, Type (0, 0), BuildingBlock: UVAHIK_clean_linker_0, # of connection points: 2
#     Edge 25, Type (0, 0), BuildingBlock: UVAHIK_clean_linker_0, # of connection points: 2
#     Edge 26, Type (0, 0), BuildingBlock: UVAHIK_clean_linker_0, # of connection points: 2
#     Edge 27, Type (0, 0), BuildingBlock: UVAHIK_clean_linker_0, # of connection points: 2
#     Edge 28, Type (0, 0), BuildingBlock: UVAHIK_clean_linker_0, # of connection points: 2
#     Edge 29, Type (0, 0), BuildingBlock: UVAHIK_clean_linker_0, # of connection points: 2
#     Edge 30, Type (0, 0), BuildingBlock: UVAHIK_clean_linker_0, # of connection points: 2
#     Edge 31, Type (0, 0), BuildingBlock: UVAHIK_clean_linker_0, # of connection points: 2
# Relax obj value: 0.292
# Max RMSD: 0.267
# Mean RMSD: 0.267
data_MOF--net-vbn--node1-OJICUG_clean_sbu_0--edge1-UVAHIK_clean_linker_0
_symmetry_space_group_name_H-M    P1
_symmetry_Int_Tables_number       1
_symmetry_cell_setting            triclinic
loop_
_symmetry_equiv_pos_as_xyz
'x, y, z'
_cell_length_a     33.012192
_cell_length_b     37.135559
_cell_length_c     59.993797
_cell_angle_alpha  89.963299
_cell_angle_beta   89.960045
_cell_angle_gamma 89.906332
loop_
_atom_site_label
_atom_site_type_symbol
_atom_site_fract_x
_atom_site_fract_y
_atom_site_fract_z
_atom_type_partial_charge
Sc0 Sc 0.31854 0.27552 0.37684 0.0
Sc1 Sc 0.35817 0.26642 0.4301 0.0
Sc2 Sc 0.40889 0.31741 0.39099 0.0
O3 O 0.36205 0.28612 0.39914 0.0
C4 C 0.40038 0.27136 0.34789 0.0
C5 C 0.32218 0.20197 0.4003 0.0
C6 C 0.44892 0.25555 0.42179 0.0
C7 C 0.26971 0.28948 0.42236 0.0
C8 C 0.33404 0.35764 0.36836 0.0
C9 C 0.39455 0.3449 0.43861 0.0
O10 O 0.36175 0.2706 0.34932 0.0
O11 O 0.32815 0.21694 0.41917 0.0
O12 O 0.45093 0.28528 0.41106 0.0
O13 O 0.27059 0.27861 0.40213 0.0
O14 O 0.37213 0.3542 0.37124 0.0
O15 O 0.38721 0.31318 0.4457 0.0
O16 O 0.30949 0.33172 0.37107 0.0
O17 O 0.30133 0.29227 0.43425 0.0
O18 O 0.39677 0.35231 0.41809 0.0
O19 O 0.32509 0.21897 0.38203 0.0
O20 O 0.42266 0.28431 0.36312 0.0
O21 O 0.41543 0.2406 0.42657 0.0
Sc22 Sc 0.18082 0.23436 0.88147 0.0
Sc23 Sc 0.11769 0.23392 0.92791 0.0
Sc24 Sc 0.09526 0.17968 0.88283 0.0
O25 O 0.13155 0.21585 0.89742 0.0
C26 C 0.11294 0.23281 0.84373 0.0
C27 C 0.15096 0.30496 0.9038 0.0
C28 C 0.03217 0.23164 0.90773 0.0
C29 C 0.21058 0.22457 0.93222 0.0
C30 C 0.18413 0.15293 0.86901 0.0
C31 C 0.0949 0.14976 0.93069 0.0
O32 O 0.14993 0.23705 0.84928 0.0
O33 O 0.139 0.28855 0.92128 0.0
O34 O 0.04004 0.2026 0.89721 0.0
O35 O 0.21689 0.23458 0.91211 0.0
O36 O 0.14565 0.15081 0.86748 0.0
O37 O 0.09453 0.18151 0.93891 0.0
O38 O 0.20198 0.18109 0.87571 0.0
O39 O 0.17546 0.21843 0.93989 0.0
O40 O 0.10113 0.14379 0.91018 0.0
O41 O 0.16247 0.28859 0.88639 0.0
O42 O 0.08781 0.21484 0.8552 0.0
O43 O 0.05948 0.25047 0.91687 0.0
Sc44 Sc 0.81888 0.20152 0.61766 0.0
Sc45 Sc 0.86004 0.2144 0.56478 0.0
Sc46 Sc 0.90945 0.15989 0.60297 0.0
O47 O 0.86278 0.19214 0.59524 0.0
C48 C 0.9007 0.20517 0.64654 0.0
C49 C 0.8245 0.27727 0.59612 0.0
C50 C 0.95113 0.22252 0.57368 0.0
C51 C 0.77058 0.19095 0.5716 0.0
C52 C 0.83467 0.1193 0.62535 0.0
C53 C 0.8946 0.13532 0.55469 0.0
O54 O 0.86211 0.2066 0.64504 0.0
O55 O 0.8325 0.26452 0.57685 0.0
O56 O 0.95243 0.19225 0.5838 0.0
O57 O 0.77112 0.19853 0.59239 0.0
O58 O 0.87261 0.12225 0.62191 0.0
O59 O 0.88731 0.16745 0.54821 0.0
O60 O 0.81036 0.14547 0.62305 0.0
O61 O 0.8021 0.19115 0.55948 0.0
O62 O 0.89737 0.12685 0.57506 0.0
O63 O 0.82417 0.25792 0.6135 0.0
O64 O 0.92293 0.19144 0.63151 0.0
O65 O 0.91803 0.23824 0.56906 0.0
Sc66 Sc 0.59278 0.33385 0.10639 0.0
Sc67 Sc 0.6176 0.27865 0.06197 0.0
Sc68 Sc 0.67958 0.28031 0.10904 0.0
O69 O 0.63022 0.29764 0.09246 0.0
C70 C 0.68036 0.36266 0.12021 0.0
C71 C 0.59373 0.36252 0.05805 0.0
C72 C 0.7108 0.28882 0.05838 0.0
C73 C 0.53127 0.28046 0.08175 0.0
C74 C 0.61029 0.28185 0.14624 0.0
C75 C 0.65159 0.2085 0.08711 0.0
O76 O 0.64186 0.3642 0.1214 0.0
O77 O 0.5946 0.33066 0.05002 0.0
O78 O 0.71681 0.28015 0.07875 0.0
O79 O 0.53843 0.30954 0.09232 0.0
O80 O 0.64743 0.27736 0.14095 0.0
O81 O 0.63887 0.22432 0.06958 0.0
O82 O 0.58556 0.29983 0.1345 0.0
O83 O 0.55896 0.26224 0.07241 0.0
O84 O 0.66323 0.22544 0.10428 0.0
O85 O 0.59831 0.36889 0.07864 0.0
O86 O 0.69916 0.33431 0.11452 0.0
O87 O 0.67572 0.29377 0.05031 0.0
Sc88 Sc 0.55782 0.66051 0.59837 0.0
Sc89 Sc 0.61529 0.71398 0.56299 0.0
Sc90 Sc 0.64663 0.70022 0.61787 0.0
O91 O 0.60645 0.69187 0.5932 0.0
C92 C 0.56032 0.70496 0.64266 0.0
C93 C 0.52294 0.72446 0.56734 0.0
C94 C 0.64635 0.77619 0.59618 0.0
C95 C 0.58137 0.63577 0.55084 0.0
C96 C 0.62789 0.61793 0.6239 0.0
C97 C 0.70241 0.6878 0.57476 0.0
O98 O 0.5404 0.69145 0.62664 0.0
O99 O 0.55721 0.73875 0.56374 0.0
O100 O 0.64399 0.75682 0.61351 0.0
O101 O 0.57314 0.62769 0.57081 0.0
O102 O 0.65255 0.64402 0.62355 0.0
O103 O 0.67333 0.68958 0.561 0.0
O104 O 0.59085 0.62131 0.61831 0.0
O105 O 0.59111 0.66754 0.5448 0.0
O106 O 0.69876 0.69564 0.59539 0.0
O107 O 0.51893 0.69461 0.57773 0.0
O108 O 0.59899 0.70629 0.64287 0.0
O109 O 0.64093 0.7636 0.57661 0.0
Sc110 Sc 0.8307 0.77849 0.10042 0.0
Sc111 Sc 0.90342 0.7678 0.05823 0.0
Sc112 Sc 0.92013 0.82884 0.10147 0.0
O113 O 0.88462 0.79175 0.08665 0.0
C114 C 0.83119 0.86237 0.10751 0.0
C115 C 0.81144 0.78064 0.04782 0.0
C116 C 0.93166 0.85006 0.05151 0.0
C117 C 0.86179 0.70261 0.08479 0.0
C118 C 0.88961 0.78389 0.14261 0.0
C119 C 0.9848 0.77032 0.08472 0.0
O120 O 0.81249 0.83356 0.1028 0.0
O121 O 0.84825 0.78087 0.04173 0.0
O122 O 0.92527 0.85898 0.07159 0.0
O123 O 0.84468 0.72262 0.09908 0.0
O124 O 0.91732 0.80055 0.13222 0.0
O125 O 0.95978 0.75287 0.07291 0.0
O126 O 0.85484 0.77765 0.13423 0.0
O127 O 0.8806 0.71492 0.06787 0.0
O128 O 0.97597 0.80002 0.09417 0.0
O129 O 0.80051 0.7769 0.06811 0.0
O130 O 0.86951 0.86359 0.10985 0.0
O131 O 0.92901 0.8176 0.04466 0.0
Sc132 Sc 0.05508 0.81495 0.39916 0.0
Sc133 Sc 0.11938 0.76465 0.43341 0.0
Sc134 Sc 0.14747 0.78321 0.37805 0.0
O135 O 0.10718 0.78726 0.40349 0.0
C136 C 0.06152 0.77436 0.35343 0.0
C137 C 0.02639 0.74877 0.4301 0.0
C138 C 0.15232 0.70532 0.39838 0.0
C139 C 0.0801 0.84042 0.44701 0.0
C140 C 0.12048 0.86446 0.37444 0.0
C141 C 0.20494 0.79504 0.42035 0.0
O142 O 0.0406 0.78556 0.36975 0.0
O143 O 0.06195 0.73857 0.43507 0.0
O144 O 0.15112 0.72613 0.38159 0.0
O145 O 0.06592 0.84664 0.42782 0.0
O146 O 0.14756 0.84025 0.37319 0.0
O147 O 0.1772 0.78949 0.43452 0.0
O148 O 0.08448 0.85809 0.38096 0.0
O149 O 0.09661 0.81065 0.45248 0.0
O150 O 0.20014 0.79035 0.39948 0.0
O151 O 0.01936 0.77663 0.41826 0.0
O152 O 0.10015 0.77498 0.35332 0.0
O153 O 0.14432 0.71597 0.41816 0.0
Sc154 Sc 0.41977 0.68745 0.89033 0.0
Sc155 Sc 0.40195 0.74816 0.93415 0.0
Sc156 Sc 0.32662 0.73296 0.89349 0.0
O157 O 0.38277 0.72298 0.90601 0.0
C158 C 0.3838 0.73303 0.85034 0.0
C159 C 0.48355 0.74676 0.90686 0.0
C160 C 0.35294 0.81102 0.90956 0.0
C161 C 0.43273 0.66642 0.94069 0.0
C162 C 0.33344 0.64942 0.88436 0.0
C163 C 0.31036 0.72948 0.94603 0.0
O164 O 0.41195 0.71503 0.85952 0.0
O165 O 0.4592 0.76216 0.92014 0.0
O166 O 0.33253 0.7893 0.89783 0.0
O167 O 0.42974 0.65832 0.92023 0.0
O168 O 0.31321 0.67766 0.88826 0.0
O169 O 0.34669 0.73671 0.95125 0.0
O170 O 0.37188 0.64929 0.88341 0.0
O171 O 0.42634 0.69813 0.94819 0.0
O172 O 0.29819 0.72755 0.92591 0.0
O173 O 0.47413 0.71876 0.89584 0.0
O174 O 0.34999 0.73983 0.85977 0.0
O175 O 0.37983 0.80084 0.92344 0.0
C176 C 0.16809 0.91074 0.35928 0.0
C177 C 0.13361 0.90229 0.372 0.0
C178 C 0.18609 0.94467 0.36098 0.0
C179 C 0.20326 0.01359 0.4021 0.0
H180 H 0.23785 0.07348 0.35276 0.0
C181 C 0.27878 0.15257 0.41547 0.0
C182 C 0.30624 0.16489 0.39932 0.0
C183 C 0.25793 0.12019 0.41232 0.0
C184 C 0.22915 0.0568 0.36676 0.0
H185 H 0.08999 0.92327 0.39577 0.0
H186 H 0.12194 0.98236 0.39896 0.0
H187 H 0.19864 0.01919 0.34547 0.0
H188 H 0.33554 0.15205 0.368 0.0
H189 H 0.30117 0.09469 0.3631 0.0
H190 H 0.23498 0.04999 0.42341 0.0
C191 C 0.13473 0.96276 0.38758 0.0
C192 C 0.20629 0.0259 0.36253 0.0
C193 C 0.11623 0.92909 0.38554 0.0
C194 C 0.31428 0.14327 0.38064 0.0
C195 C 0.29412 0.11059 0.37772 0.0
C196 C 0.22674 0.04412 0.40633 0.0
C197 C 0.1704 0.97048 0.37576 0.0
C198 C 0.19307 0.00409 0.38016 0.0
C199 C 0.26467 0.09912 0.39313 0.0
C200 C 0.24006 0.06619 0.38872 0.0
H201 H 0.18222 0.89056 0.34879 0.0
H202 H 0.21364 0.94998 0.35173 0.0
H203 H 0.19393 0.99684 0.41597 0.0
H204 H 0.27162 0.16896 0.42988 0.0
H205 H 0.23527 0.11259 0.42448 0.0
C206 C 0.16501 0.3631 0.92355 0.0
C207 C 0.15568 0.34444 0.90387 0.0
C208 C 0.17772 0.39902 0.92255 0.0
C209 C 0.18603 0.47832 0.88484 0.0
H210 H 0.28553 0.49612 0.9173 0.0
C211 C 0.26841 0.61517 0.88332 0.0
C212 C 0.31104 0.61498 0.88329 0.0
C213 C 0.24675 0.58323 0.88574 0.0
C214 C 0.25794 0.49143 0.90799 0.0
H215 H 0.14881 0.34939 0.86803 0.0
H216 H 0.17091 0.41153 0.86629 0.0
H217 H 0.24878 0.44013 0.92337 0.0
H218 H 0.36427 0.5807 0.88471 0.0
H219 H 0.32628 0.52468 0.88843 0.0
H220 H 0.19604 0.52895 0.86879 0.0
C221 C 0.1686 0.39878 0.88248 0.0
C222 C 0.23647 0.45966 0.91178 0.0
C223 C 0.15619 0.36302 0.88347 0.0
C224 C 0.33148 0.58183 0.88467 0.0
C225 C 0.30973 0.54979 0.88707 0.0
C226 C 0.20754 0.51005 0.88101 0.0
C227 C 0.18086 0.41681 0.90189 0.0
C228 C 0.20057 0.45253 0.90002 0.0
C229 C 0.26715 0.55027 0.88811 0.0
C230 C 0.24401 0.51675 0.89234 0.0
H231 H 0.16489 0.3494 0.93949 0.0
H232 H 0.18645 0.41246 0.93782 0.0
H233 H 0.15831 0.47371 0.87563 0.0
H234 H 0.2516 0.64019 0.88226 0.0
H235 H 0.21401 0.5846 0.88662 0.0
C236 C 0.6861 0.57796 0.63342 0.0
C237 C 0.64509 0.58152 0.62747 0.0
C238 C 0.70579 0.54491 0.63158 0.0
C239 C 0.69751 0.4587 0.60108 0.0
H240 H 0.78879 0.43314 0.63848 0.0
C241 C 0.80608 0.32908 0.62044 0.0
C242 C 0.81132 0.31518 0.59882 0.0
C243 C 0.78803 0.36247 0.62379 0.0
C244 C 0.76317 0.4396 0.62794 0.0
H245 H 0.59175 0.55224 0.61673 0.0
H246 H 0.62579 0.49397 0.6145 0.0
H247 H 0.74881 0.4859 0.64744 0.0
H248 H 0.80372 0.32667 0.56363 0.0
H249 H 0.77326 0.3861 0.56947 0.0
H250 H 0.71075 0.41118 0.58228 0.0
C251 C 0.64308 0.5172 0.61978 0.0
C252 C 0.74045 0.47022 0.63295 0.0
C253 C 0.62337 0.5505 0.6214 0.0
C254 C 0.80005 0.33655 0.5805 0.0
C255 C 0.78216 0.3704 0.58387 0.0
C256 C 0.71988 0.42765 0.59628 0.0
C257 C 0.6849 0.5143 0.62408 0.0
C258 C 0.7074 0.48031 0.61955 0.0
C259 C 0.77518 0.38339 0.60561 0.0
C260 C 0.75297 0.41766 0.60969 0.0
H261 H 0.70384 0.60119 0.63826 0.0
H262 H 0.73801 0.544 0.63488 0.0
H263 H 0.67279 0.46595 0.5901 0.0
H264 H 0.81457 0.31356 0.63501 0.0
H265 H 0.78272 0.37113 0.64077 0.0
C266 C 0.65805 0.15073 0.10788 0.0
C267 C 0.65645 0.16896 0.08737 0.0
C268 C 0.66946 0.11463 0.10884 0.0
C269 C 0.68328 0.03404 0.10604 0.0
H270 H 0.78218 0.01441 0.07328 0.0
C271 C 0.76516 0.89574 0.10676 0.0
C272 C 0.80773 0.8964 0.108 0.0
C273 C 0.74316 0.92761 0.10413 0.0
C274 C 0.75465 0.01955 0.08259 0.0
H275 H 0.66309 0.1631 0.05161 0.0
H276 H 0.6833 0.09964 0.05328 0.0
H277 H 0.74663 0.07121 0.06744 0.0
H278 H 0.86037 0.93136 0.10831 0.0
H279 H 0.82186 0.98696 0.10395 0.0
H280 H 0.69207 0.98276 0.12169 0.0
C281 C 0.67592 0.11354 0.06863 0.0
C282 C 0.73394 0.05183 0.07898 0.0
C283 C 0.66407 0.14973 0.06765 0.0
C284 C 0.82765 0.92982 0.10743 0.0
C285 C 0.80563 0.96166 0.10469 0.0
C286 C 0.70391 0.00165 0.10957 0.0
C287 C 0.6798 0.09596 0.08931 0.0
C288 C 0.69842 0.0597 0.09095 0.0
C289 C 0.76324 0.96081 0.10258 0.0
C290 C 0.74021 0.99438 0.09817 0.0
H291 H 0.652 0.16477 0.12336 0.0
H292 H 0.67242 0.10198 0.12503 0.0
H293 H 0.65585 0.03931 0.11541 0.0
H294 H 0.74879 0.87049 0.10717 0.0
H295 H 0.71053 0.9261 0.1025 0.0
C296 C 0.83999 0.05185 0.6254 0.0
C297 C 0.81694 0.08318 0.62899 0.0
C298 C 0.82104 0.01826 0.62402 0.0
C299 C 0.72313 0.97101 0.63396 0.0
H300 H 0.7606 0.90976 0.58582 0.0
C301 C 0.66249 0.82796 0.62105 0.0
C302 C 0.65931 0.81401 0.59932 0.0
C303 C 0.67961 0.86161 0.6248 0.0
C304 C 0.74939 0.9268 0.59912 0.0
H305 H 0.75631 0.10334 0.63566 0.0
H306 H 0.72352 0.04536 0.63285 0.0
H307 H 0.79645 0.96541 0.59402 0.0
H308 H 0.66977 0.82553 0.56435 0.0
H309 H 0.69886 0.88515 0.57089 0.0
H310 H 0.67511 0.93325 0.63848 0.0
C311 C 0.75616 0.04642 0.63124 0.0
C312 C 0.77046 0.95836 0.60413 0.0
C313 C 0.77505 0.07984 0.63275 0.0
C314 C 0.67188 0.83542 0.58129 0.0
C315 C 0.68893 0.8694 0.58506 0.0
C316 C 0.70185 0.93968 0.62881 0.0
C317 C 0.77871 0.01538 0.62615 0.0
C318 C 0.75762 0.98082 0.62164 0.0
C319 C 0.69369 0.88254 0.60693 0.0
C320 C 0.71483 0.91707 0.6114 0.0
H321 H 0.87232 0.05341 0.62249 0.0
H322 H 0.83941 0.99472 0.6206 0.0
H323 H 0.71253 0.98749 0.64766 0.0
H324 H 0.65296 0.81238 0.63539 0.0
H325 H 0.68318 0.87054 0.64186 0.0
C326 C 0.8526 0.64017 0.0697 0.0
C327 C 0.85741 0.66342 0.08794 0.0
C328 C 0.84092 0.60435 0.07316 0.0
C329 C 0.7812 0.54555 0.08667 0.0
H330 H 0.81899 0.48518 0.13524 0.0
C331 C 0.68441 0.42994 0.12035 0.0
C332 C 0.70394 0.39639 0.12217 0.0
C333 C 0.70694 0.46132 0.1172 0.0
C334 C 0.80828 0.50167 0.12155 0.0
H335 H 0.85721 0.66696 0.12403 0.0
H336 H 0.83735 0.60471 0.13002 0.0
H337 H 0.85604 0.54013 0.1257 0.0
H338 H 0.76259 0.36996 0.12384 0.0
H339 H 0.8018 0.42491 0.11864 0.0
H340 H 0.73315 0.50752 0.08271 0.0
C341 C 0.84226 0.61392 0.1131 0.0
C342 C 0.82941 0.53308 0.11612 0.0
C343 C 0.85334 0.64966 0.10965 0.0
C344 C 0.74657 0.39533 0.12241 0.0
C345 C 0.76908 0.4268 0.11944 0.0
C346 C 0.75993 0.51437 0.09222 0.0
C347 C 0.83457 0.59122 0.0949 0.0
C348 C 0.81575 0.55557 0.0988 0.0
C349 C 0.74942 0.45988 0.11602 0.0
C350 C 0.77288 0.49242 0.10993 0.0
H351 H 0.85551 0.65016 0.05281 0.0
H352 H 0.83551 0.58727 0.05885 0.0
H353 H 0.76966 0.56255 0.07343 0.0
H354 H 0.65167 0.43179 0.12005 0.0
H355 H 0.69105 0.48663 0.11503 0.0
C356 C 0.27489 0.39845 0.3615 0.0
C357 C 0.31678 0.39415 0.36494 0.0
C358 C 0.25688 0.43241 0.36295 0.0
C359 C 0.2733 0.52016 0.38988 0.0
H360 H 0.18137 0.54956 0.35402 0.0
C361 C 0.17652 0.64497 0.41238 0.0
C362 C 0.16616 0.66776 0.39454 0.0
C363 C 0.19334 0.61092 0.40833 0.0
C364 C 0.20714 0.54186 0.36412 0.0
H365 H 0.37293 0.42278 0.37112 0.0
H366 H 0.34153 0.48218 0.37317 0.0
H367 H 0.21633 0.4934 0.3455 0.0
H368 H 0.16404 0.67187 0.35841 0.0
H369 H 0.19351 0.61315 0.35149 0.0
H370 H 0.26461 0.56899 0.40822 0.0
C371 C 0.32252 0.45905 0.36985 0.0
C372 C 0.227 0.50951 0.35933 0.0
C373 C 0.3406 0.42502 0.36839 0.0
C374 C 0.17174 0.65519 0.37262 0.0
C375 C 0.18845 0.6213 0.36859 0.0
C376 C 0.25346 0.55254 0.39465 0.0
C377 C 0.28029 0.46298 0.36782 0.0
C378 C 0.26032 0.49824 0.37216 0.0
C379 C 0.2 0.59892 0.38636 0.0
C380 C 0.22014 0.5638 0.38183 0.0
H381 H 0.25555 0.37533 0.35877 0.0
H382 H 0.22427 0.43437 0.3614 0.0
H383 H 0.29844 0.51203 0.40033 0.0
H384 H 0.17261 0.65373 0.42946 0.0
H385 H 0.20138 0.59409 0.4224 0.0
C386 C 0.25142 0.12175 0.86838 0.0
C387 C 0.20908 0.12019 0.86557 0.0
C388 C 0.27442 0.09024 0.86955 0.0
C389 C 0.27213 0.99217 0.85931 0.0
H390 H 0.33916 0.98605 0.91235 0.0
C391 C 0.30324 0.8586 0.90057 0.0
C392 C 0.34304 0.84948 0.90664 0.0
C393 C 0.29352 0.89347 0.89422 0.0
C394 C 0.32127 0.98758 0.89725 0.0
H395 H 0.15829 0.08424 0.86016 0.0
H396 H 0.19848 0.02931 0.86209 0.0
H397 H 0.30997 0.04399 0.90132 0.0
H398 H 0.40349 0.87024 0.91215 0.0
H399 H 0.38614 0.93238 0.90104 0.0
H400 H 0.28212 0.93561 0.85569 0.0
C401 C 0.21385 0.05497 0.86341 0.0
C402 C 0.30455 0.02068 0.89091 0.0
C403 C 0.19076 0.08648 0.86234 0.0
C404 C 0.37259 0.87664 0.90753 0.0
C405 C 0.36273 0.91198 0.90109 0.0
C406 C 0.28883 0.95922 0.86562 0.0
C407 C 0.25569 0.05651 0.86774 0.0
C408 C 0.27872 0.02301 0.87228 0.0
C409 C 0.32332 0.92028 0.8937 0.0
C410 C 0.3123 0.95635 0.88509 0.0
H411 H 0.26669 0.14726 0.87074 0.0
H412 H 0.3067 0.09224 0.87255 0.0
H413 H 0.25301 0.9933 0.84466 0.0
H414 H 0.27958 0.8384 0.90016 0.0
H415 H 0.2626 0.89934 0.88933 0.0
C416 C 0.43188 0.3669 0.47221 0.0
C417 C 0.40632 0.37388 0.45403 0.0
C418 C 0.45151 0.39536 0.48303 0.0
C419 C 0.4864 0.48741 0.47053 0.0
H420 H 0.5076 0.49267 0.53392 0.0
C421 C 0.55032 0.61328 0.5156 0.0
C422 C 0.57468 0.60714 0.53437 0.0
C423 C 0.5337 0.58411 0.504 0.0
C424 C 0.50249 0.49128 0.51611 0.0
H425 H 0.37821 0.41581 0.43417 0.0
H426 H 0.41129 0.46532 0.45343 0.0
H427 H 0.46694 0.44337 0.51929 0.0
H428 H 0.60423 0.56636 0.55447 0.0
H429 H 0.57653 0.51563 0.53381 0.0
H430 H 0.52175 0.53548 0.46739 0.0
C431 C 0.41737 0.43804 0.45891 0.0
C432 C 0.47904 0.46309 0.50777 0.0
C433 C 0.39808 0.40973 0.44806 0.0
C434 C 0.58532 0.57169 0.54006 0.0
C435 C 0.56908 0.54269 0.52842 0.0
C436 C 0.50984 0.51562 0.47887 0.0
C437 C 0.4456 0.43112 0.47587 0.0
C438 C 0.47052 0.46096 0.48491 0.0
C439 C 0.54149 0.54854 0.511 0.0
C440 C 0.51811 0.51789 0.50176 0.0
H441 H 0.43905 0.33947 0.47695 0.0
H442 H 0.4731 0.38919 0.49607 0.0
H443 H 0.48108 0.4861 0.45274 0.0
H444 H 0.54133 0.6404 0.51111 0.0
H445 H 0.51252 0.58949 0.49062 0.0
C446 C 0.9374 0.91511 0.04219 0.0
C447 C 0.94495 0.87907 0.03629 0.0
C448 C 0.9545 0.94321 0.03009 0.0
C449 C 0.00205 0.9683 0.97709 0.0
H450 H 0.05037 0.04396 0.01287 0.0
C451 C 0.0927 0.08339 0.93707 0.0
C452 C 0.08442 0.11842 0.94478 0.0
C453 C 0.07849 0.05339 0.94863 0.0
C454 C 0.03672 0.02325 0.00264 0.0
H455 H 0.97459 0.84431 0.01226 0.0
H456 H 0.00467 0.89389 0.99087 0.0
H457 H 0.01847 0.99268 0.03112 0.0
H458 H 0.05613 0.14933 0.9712 0.0
H459 H 0.03093 0.09677 0.99138 0.0
H460 H 0.01983 -0.00089 0.94859 0.0
C461 C 0.98546 0.90014 0.005 0.0
C462 C 0.01847 0.99386 0.01308 0.0
C463 C 0.96821 0.87179 0.01718 0.0
C464 C 0.06314 0.12272 0.96488 0.0
C465 C 0.04874 0.09259 0.97644 0.0
C466 C 0.02023 0.99779 0.96662 0.0
C467 C 0.97963 0.93608 0.01176 0.0
C468 C 0.00057 0.96627 0.00043 0.0
C469 C 0.05554 0.05762 0.96815 0.0
C470 C 0.03752 0.02572 0.9793 0.0
H471 H 0.91903 0.92172 0.05659 0.0
H472 H 0.94855 0.97063 0.03533 0.0
H473 H 0.9882 0.9476 0.96693 0.0
H474 H 0.10948 0.07908 0.92178 0.0
H475 H 0.08508 0.02683 0.94209 0.0
C476 C 0.9334 0.11384 0.52146 0.0
C477 C 0.9058 0.10691 0.53874 0.0
C478 C 0.95334 0.08522 0.51087 0.0
C479 C 0.98551 0.99288 0.52407 0.0
H480 H 0.01217 0.98641 0.46134 0.0
C481 C 0.04972 0.86473 0.48184 0.0
C482 C 0.07491 0.86951 0.46328 0.0
C483 C 0.03352 0.89476 0.49282 0.0
C484 C 0.00562 0.98814 0.479 0.0
H485 H 0.8744 0.0651 0.55707 0.0
H486 H 0.90812 0.01538 0.53821 0.0
H487 H 0.97124 0.03666 0.4747 0.0
H488 H 0.10589 0.90862 0.44266 0.0
H489 H 0.07923 0.96092 0.46236 0.0
H490 H 0.01977 0.94437 0.5284 0.0
C491 C 0.91541 0.04268 0.53326 0.0
C492 C 0.98195 0.01685 0.48659 0.0
C493 C 0.89575 0.07111 0.54385 0.0
C494 C 0.08664 0.90441 0.45708 0.0
C495 C 0.07087 0.9343 0.46813 0.0
C496 C 0.00926 0.96423 0.5165 0.0
C497 C 0.94577 0.04942 0.51742 0.0
C498 C 0.97129 0.01932 0.50916 0.0
C499 C 0.0425 0.92986 0.48537 0.0
C500 C 0.01943 0.9614 0.49385 0.0
H501 H 0.94202 0.14122 0.51744 0.0
H502 H 0.97654 0.09122 0.49866 0.0
H503 H 0.97852 0.99448 0.54169 0.0
H504 H 0.0397 0.83803 0.48658 0.0
H505 H 0.01166 0.89039 0.50601 0.0
C506 C 0.46741 0.64333 0.97528 0.0
C507 C 0.44492 0.63693 0.95582 0.0
C508 C 0.48326 0.61433 0.9875 0.0
C509 C 0.47402 0.5154 0.99526 0.0
H510 H 0.58729 0.52035 0.01197 0.0
C511 C 0.56105 0.38926 0.02404 0.0
C512 C 0.5836 0.39361 0.04369 0.0
C513 C 0.546 0.41943 0.01272 0.0
C514 C 0.55556 0.51865 0.00752 0.0
H515 H 0.41933 0.59534 0.93467 0.0
H516 H 0.44677 0.54539 0.95575 0.0
H517 H 0.55423 0.57317 0.99585 0.0
H518 H 0.61049 0.43292 0.06599 0.0
H519 H 0.58436 0.48516 0.04632 0.0
H520 H 0.47534 0.46089 0.00677 0.0
C521 C 0.45234 0.57247 0.9617 0.0
C522 C 0.53656 0.54897 -0.00155 0.0
C523 C 0.43685 0.6012 0.9495 0.0
C524 C 0.59289 0.42864 0.05099 0.0
C525 C 0.57811 0.45866 0.03964 0.0
C526 C 0.493 0.48511 0.00428 0.0
C527 C 0.47637 0.57861 0.98059 0.0
C528 C 0.49565 0.54759 0.99207 0.0
C529 C 0.55359 0.45441 0.02074 0.0
C530 C 0.53404 0.48631 0.01039 0.0
H531 H 0.47414 0.67058 0.98049 0.0
H532 H 0.50136 0.61984 0.00216 0.0
H533 H 0.4423 0.51361 0.99079 0.0
H534 H 0.55339 0.36264 0.01802 0.0
H535 H 0.52767 0.41538 -0.00203 0.0
C536 C 0.55421 0.25036 0.16522 0.0
C537 C 0.59349 0.26468 0.16632 0.0
C538 C 0.53422 0.2395 0.18448 0.0
C539 C 0.54418 0.2217 0.24488 0.0
H540 H 0.43769 0.266 0.24698 0.0
C541 C 0.4635 0.2581 0.32642 0.0
C542 C 0.42089 0.25835 0.32744 0.0
C543 C 0.48354 0.2494 0.30672 0.0
C544 C 0.46686 0.25262 0.24659 0.0
H545 H 0.64401 0.27648 0.18806 0.0
H546 H 0.60845 0.25817 0.22225 0.0
H547 H 0.47636 0.26756 0.21267 0.0
H548 H 0.36604 0.24731 0.3088 0.0
H549 H 0.40124 0.23162 0.27427 0.0
H550 H 0.53484 0.20756 0.27911 0.0
C551 C 0.59336 0.255 0.20635 0.0
C552 C 0.48918 0.25363 0.22689 0.0
C553 C 0.61369 0.26555 0.18687 0.0
C554 C 0.39884 0.24776 0.30853 0.0
C555 C 0.41902 0.2389 0.28874 0.0
C556 C 0.52167 0.2205 0.26464 0.0
C557 C 0.55284 0.24319 0.20536 0.0
C558 C 0.52834 0.23875 0.2259 0.0
C559 C 0.4616 0.2405 0.28748 0.0
C560 C 0.48309 0.23667 0.26584 0.0
H561 H 0.53829 0.24878 0.14945 0.0
H562 H 0.50344 0.22967 0.18312 0.0
H563 H 0.57409 0.20968 0.24452 0.0
H564 H 0.48163 0.26576 0.34068 0.0
H565 H 0.51626 0.2514 0.30635 0.0
C566 C 0.11598 0.244 0.80266 0.0
C567 C 0.09716 0.24947 0.82332 0.0
C568 C 0.09528 0.25258 0.78298 0.0
C569 C 0.99001 0.25504 0.76476 0.0
H570 H 0.03621 0.28111 0.70763 0.0
C571 C 0.89956 0.23759 0.68343 0.0
C572 C 0.92129 0.22023 0.66637 0.0
C573 C 0.91984 0.25134 0.70206 0.0
C574 C 0.02286 0.27385 0.7235 0.0
H575 H 0.04458 0.27162 0.84006 0.0
H576 H 0.00914 0.28768 0.80588 0.0
H577 H 0.07636 0.28869 0.74153 0.0
H578 H 0.9816 0.20453 0.65537 0.0
H579 H 0.01631 0.22754 0.68777 0.0
H580 H 0.9374 0.23852 0.74684 0.0
C581 C 0.03904 0.27576 0.80467 0.0
C582 C 0.04585 0.27822 0.74287 0.0
C583 C 0.05936 0.26674 0.8242 0.0
C584 C 0.9637 0.21762 0.66816 0.0
C585 C 0.98382 0.23126 0.68668 0.0
C586 C 0.96715 0.25057 0.74545 0.0
C587 C 0.0558 0.26703 0.78385 0.0
C588 C 0.03001 0.26797 0.76364 0.0
C589 C 0.96219 0.24801 0.70394 0.0
C590 C 0.98374 0.25888 0.72454 0.0
H591 H 0.1451 0.2306 0.80168 0.0
H592 H 0.10896 0.24542 0.76717 0.0
H593 H 0.97706 0.2463 0.78045 0.0
H594 H 0.86694 0.24037 0.68248 0.0
H595 H 0.90236 0.26433 0.71506 0.0
C596 C 0.36229 0.74764 0.81118 0.0
C597 C 0.39219 0.74685 0.8278 0.0
C598 C 0.37305 0.75504 0.78904 0.0
C599 C 0.45853 0.78631 0.75306 0.0
H600 H 0.42432 0.70875 0.71425 0.0
C601 C 0.55635 0.73146 0.68121 0.0
C602 C 0.53694 0.71943 0.66176 0.0
C603 C 0.53356 0.74352 0.69942 0.0
C604 C 0.43364 0.73109 0.72464 0.0
H605 H 0.45567 0.75639 0.8349 0.0
H606 H 0.47429 0.76915 0.79667 0.0
H607 H 0.39072 0.71727 0.7499 0.0
H608 H 0.47827 0.71236 0.64588 0.0
H609 H 0.43896 0.73339 0.6775 0.0
H610 H 0.50292 0.79887 0.72819 0.0
C611 C 0.4427 0.76409 0.80041 0.0
C612 C 0.41419 0.73608 0.74507 0.0
C613 C 0.43211 0.75634 0.82232 0.0
C614 C 0.49435 0.72091 0.66068 0.0
C615 C 0.47168 0.73297 0.67881 0.0
C616 C 0.47808 0.78124 0.73265 0.0
C617 C 0.41366 0.76229 0.78338 0.0
C618 C 0.42742 0.76289 0.75985 0.0
C619 C 0.49096 0.74385 0.69851 0.0
C620 C 0.46671 0.75281 0.71857 0.0
H621 H 0.33127 0.74053 0.81506 0.0
H622 H 0.34998 0.75373 0.77624 0.0
H623 H 0.46898 0.80756 0.76399 0.0
H624 H 0.58905 0.73083 0.68258 0.0
H625 H 0.54929 0.75137 0.71449 0.0
C626 C 0.86976 0.76333 0.18115 0.0
C627 C 0.89971 0.7702 0.16505 0.0
C628 C 0.88085 0.75255 0.2027 0.0
C629 C 0.96748 0.71733 0.23581 0.0
H630 H 0.92635 0.77922 0.28264 0.0
C631 C 0.05974 0.75536 0.31326 0.0
C632 C 0.03944 0.76151 0.33349 0.0
C633 C 0.03793 0.74665 0.29404 0.0
C634 C 0.93758 0.76108 0.26993 0.0
H635 H 0.96441 0.76904 0.15845 0.0
H636 H 0.98346 0.75056 0.19565 0.0
H637 H 0.89453 0.78035 0.24607 0.0
H638 H 0.98052 0.7609 0.3497 0.0
H639 H 0.9428 0.74556 0.31626 0.0
H640 H 0.01178 0.69934 0.25939 0.0
C641 C 0.95153 0.75337 0.19183 0.0
C642 C 0.91923 0.76169 0.24897 0.0
C643 C 0.94059 0.76448 0.17055 0.0
C644 C -0.00286 0.75693 0.33432 0.0
C645 C 0.97542 0.74816 0.31515 0.0
C646 C 0.98584 0.71673 0.25676 0.0
C647 C 0.92195 0.74785 0.20826 0.0
C648 C 0.93502 0.74087 0.23148 0.0
C649 C 0.99544 0.74377 0.2947 0.0
C650 C 0.972 0.73957 0.27379 0.0
H651 H 0.83802 0.76734 0.1773 0.0
H652 H 0.85745 0.74842 0.2151 0.0
H653 H 0.97986 0.70057 0.22268 0.0
H654 H 0.09227 0.75856 0.31205 0.0
H655 H 0.05423 0.74381 0.27847 0.0
C656 C 0.48426 0.20725 0.44335 0.0
C657 C 0.48574 0.24087 0.43255 0.0
C658 C 0.51509 0.19676 0.45788 0.0
C659 C 0.59013 0.23835 0.49458 0.0
H660 H 0.62911 0.14062 0.50247 0.0
C661 C 0.6965 0.20349 0.56685 0.0
C662 C 0.73173 0.18543 0.55998 0.0
C663 C 0.66275 0.20503 0.55276 0.0
C664 C 0.6184 0.16802 0.50049 0.0
H665 H 0.52255 0.28842 0.42705 0.0
H666 H 0.57678 0.26973 0.45212 0.0
H667 H 0.58219 0.15428 0.47214 0.0
H668 H 0.75803 0.15189 0.53413 0.0
H669 H 0.69957 0.1546 0.5097 0.0
H670 H 0.62711 0.25238 0.52245 0.0
C671 C 0.55119 0.25193 0.44975 0.0
C672 C 0.59148 0.17581 0.48317 0.0
C673 C 0.52034 0.26244 0.43517 0.0
C674 C 0.73137 0.16632 0.53976 0.0
C675 C 0.69772 0.16769 0.5258 0.0
C676 C 0.61698 0.23056 0.51187 0.0
C677 C 0.5481 0.21963 0.46189 0.0
C678 C 0.57737 0.21115 0.4799 0.0
C679 C 0.66369 0.18828 0.53171 0.0
C680 C 0.6317 0.19538 0.51492 0.0
H681 H 0.45819 0.18982 0.44157 0.0
H682 H 0.51179 0.17171 0.46695 0.0
H683 H 0.57918 0.2657 0.49279 0.0
H684 H 0.69597 0.21844 0.58234 0.0
H685 H 0.63661 0.22061 0.55791 0.0
C686 C 0.96084 0.2139 0.91632 0.0
C687 C 0.98999 0.241 0.91344 0.0
C688 C 0.9254 0.22106 0.92834 0.0
C689 C 0.866 0.29436 0.95592 0.0
H690 H 0.84783 0.22115 0.00093 0.0
C691 C 0.73861 0.30459 0.02105 0.0
C692 C 0.74495 0.29004 0.04243 0.0
C693 C 0.76767 0.30072 0.00441 0.0
C694 C 0.85288 0.24205 0.98865 0.0
H695 H 0.00284 0.29769 0.91834 0.0
H696 H 0.94172 0.31005 0.93933 0.0
H697 H 0.89534 0.20957 0.97081 0.0
H698 H 0.78805 0.26203 0.06349 0.0
H699 H 0.83968 0.25614 0.03444 0.0
H700 H 0.82506 0.32751 0.97438 0.0
C701 C 0.94582 0.28329 0.93252 0.0
C702 C 0.87946 0.2351 0.97106 0.0
C703 C 0.98106 0.27617 0.92054 0.0
C704 C 0.78221 0.27345 0.04719 0.0
C705 C 0.81153 0.26969 0.03046 0.0
C706 C 0.83969 0.30142 0.97361 0.0
C707 C 0.91861 0.25541 0.93756 0.0
C708 C 0.8866 0.26128 0.95458 0.0
C709 C 0.80407 0.28248 0.00873 0.0
C710 C 0.83299 0.27542 0.99026 0.0
H711 H 0.96687 0.18655 0.91099 0.0
H712 H 0.90446 0.19922 0.93148 0.0
H713 H 0.87061 0.31504 0.94344 0.0
H714 H 0.71038 0.31784 0.01681 0.0
H715 H 0.76068 0.31067 0.98788 0.0
C716 C 0.02285 0.21544 0.56066 0.0
C717 C 0.98831 0.23717 0.56333 0.0
C718 C 0.05389 0.22601 0.54622 0.0
C719 C 0.09304 0.30246 0.51233 0.0
H720 H 0.13006 0.22559 0.47359 0.0
C721 C 0.22963 0.31508 0.45362 0.0
C722 C 0.23073 0.29447 0.43398 0.0
C723 C 0.19659 0.31304 0.46799 0.0
C724 C 0.1195 0.2475 0.484 0.0
H725 H 0.96117 0.28864 0.55467 0.0
H726 H 0.01476 0.30668 0.52942 0.0
H727 H 0.08328 0.21209 0.50372 0.0
H728 H 0.19652 0.2582 0.41293 0.0
H729 H 0.13803 0.25518 0.43792 0.0
H730 H 0.12858 0.33801 0.49221 0.0
C731 C 0.01805 0.28151 0.53837 0.0
C732 C 0.09336 0.23962 0.50161 0.0
C733 C 0.98716 0.27104 0.55282 0.0
C734 C 0.19651 0.27433 0.42797 0.0
C735 C 0.16329 0.27226 0.44242 0.0
C736 C 0.11905 0.31039 0.49463 0.0
C737 C 0.05096 0.25848 0.53421 0.0
C738 C 0.08005 0.26693 0.51609 0.0
C739 C 0.1638 0.29042 0.46302 0.0
C740 C 0.13282 0.28295 0.48035 0.0
H741 H 0.02483 0.18929 0.5686 0.0
H742 H 0.07943 0.20809 0.5438 0.0
H743 H 0.08343 0.32413 0.5232 0.0
H744 H 0.25547 0.33115 0.45859 0.0
H745 H 0.19815 0.3273 0.48371 0.0
C746 C 0.48121 0.23528 0.06876 0.0
C747 C 0.48923 0.27025 0.0765 0.0
C748 C 0.4455 0.22789 0.05735 0.0
C749 C 0.37645 0.27677 0.02092 0.0
H750 H 0.3248 0.18349 0.0158 0.0
C751 C 0.28139 0.24029 0.94401 0.0
C752 C 0.24436 0.22312 0.94835 0.0
C753 C 0.31034 0.24364 0.96089 0.0
C754 C 0.33868 0.2098 0.0171 0.0
H755 H 0.46408 0.32376 0.08086 0.0
H756 H 0.40097 0.31059 0.06129 0.0
H757 H 0.37043 0.19515 0.04683 0.0
H758 H 0.20985 0.19383 0.97334 0.0
H759 H 0.25964 0.20026 0.00259 0.0
H760 H 0.34421 0.29167 0.99145 0.0
C761 C 0.42293 0.28919 0.0635 0.0
C762 C 0.36496 0.21642 0.03484 0.0
C763 C 0.45883 0.29661 0.07494 0.0
C764 C 0.2379 0.20757 0.96945 0.0
C765 C 0.26663 0.21102 0.98625 0.0
C766 C 0.34997 0.27025 0.00329 0.0
C767 C 0.41696 0.2553 0.05354 0.0
C768 C 0.3846 0.24981 0.03677 0.0
C769 C 0.30274 0.22985 0.98237 0.0
C770 C 0.33119 0.23654 0.00101 0.0
H771 H 0.50392 0.21427 0.07 0.0
H772 H 0.44197 0.2015 0.04994 0.0
H773 H 0.3916 0.30259 0.02166 0.0
H774 H 0.28731 0.25244 0.92792 0.0
H775 H 0.33832 0.25767 0.95727 0.0
C776 C 0.4527 0.7201 0.55182 0.0
C777 C 0.48771 0.74054 0.55579 0.0
C778 C 0.42363 0.73215 0.53661 0.0
C779 C 0.38853 0.74904 0.49132 0.0
H780 H 0.35304 0.84807 0.48482 0.0
C781 C 0.27992 0.78628 0.4213 0.0
C782 C 0.24514 0.80352 0.42948 0.0
C783 C 0.31528 0.78552 0.43416 0.0
C784 C 0.36289 0.82035 0.48636 0.0
H785 H 0.51781 0.79118 0.54848 0.0
H786 H 0.46736 0.81192 0.52197 0.0
H787 H 0.39848 0.8318 0.51532 0.0
H788 H 0.22108 0.837 0.45595 0.0
H789 H 0.28231 0.83576 0.47826 0.0
H790 H 0.35179 0.73718 0.46301 0.0
C791 C 0.46236 0.78658 0.53047 0.0
C792 C 0.38894 0.81104 0.50379 0.0
C793 C 0.49137 0.77457 0.54564 0.0
C794 C 0.24752 0.82327 0.44939 0.0
C795 C 0.28273 0.82269 0.46213 0.0
C796 C 0.36249 0.75831 0.47395 0.0
C797 C 0.42898 0.76488 0.52516 0.0
C798 C 0.40149 0.77515 0.50667 0.0
C799 C 0.31624 0.8022 0.45524 0.0
C800 C 0.34886 0.79396 0.47146 0.0
H801 H 0.44884 0.69385 0.55941 0.0
H802 H 0.39764 0.71524 0.53325 0.0
H803 H 0.39839 0.7213 0.49278 0.0
H804 H 0.27877 0.77082 0.40601 0.0
H805 H 0.34097 0.77005 0.42826 0.0
C806 C 0.05842 0.78348 0.0815 0.0
C807 C 0.02723 0.75817 0.08391 0.0
C808 C 0.09611 0.7728 0.07319 0.0
C809 C 0.1312 0.70398 0.03438 0.0
H810 H 0.23269 0.75548 0.03967 0.0
C811 C 0.23932 0.72331 0.96049 0.0
C812 C 0.28121 0.72397 0.96446 0.0
C813 C 0.2121 0.72073 0.97826 0.0
C814 C 0.20482 0.74034 0.03817 0.0
H815 H 0.01238 0.7014 0.08278 0.0
H816 H 0.07865 0.6825 0.06916 0.0
H817 H 0.18142 0.76197 0.06866 0.0
H818 H 0.32741 0.72059 0.9902 0.0
H819 H 0.27995 0.71568 0.02102 0.0
H820 H 0.1543 0.68272 0.0038 0.0
C821 C 0.07366 0.71074 0.07275 0.0
C822 C 0.17532 0.74431 0.0547 0.0
C823 C 0.03585 0.7215 0.08071 0.0
C824 C 0.29529 0.72066 0.98652 0.0
C825 C 0.26812 0.71793 0.00424 0.0
C826 C 0.16071 0.69991 0.01794 0.0
C827 C 0.10323 0.73657 0.06746 0.0
C828 C 0.13767 0.72704 0.05264 0.0
C829 C 0.22623 0.71852 0.00036 0.0
C830 C 0.1973 0.71893 0.01928 0.0
H831 H 0.05252 0.81195 0.08381 0.0
H832 H 0.11813 0.79346 0.06933 0.0
H833 H 0.10241 0.69058 0.03202 0.0
H834 H 0.22747 0.72584 0.94372 0.0
H835 H 0.17996 0.72172 0.97472 0.0
C836 C -8e-05 0.7008 0.45551 0.0
C837 C 0.99225 0.73023 0.4413 0.0
C838 C 0.96982 0.68785 0.46972 0.0
C839 C 0.86032 0.68884 0.48131 0.0
H840 H 0.89332 0.68187 0.54328 0.0
C841 C 0.74427 0.65408 0.54766 0.0
C842 C 0.74227 0.679 0.56522 0.0
C843 C 0.77843 0.6523 0.5341 0.0
C844 C 0.88376 0.68355 0.52604 0.0
H845 H 0.94582 0.76719 0.4297 0.0
H846 H 0.89315 0.74426 0.4544 0.0
H847 H 0.94396 0.69405 0.51447 0.0
H848 H 0.77546 0.71936 0.58369 0.0
H849 H 0.83555 0.71653 0.55974 0.0
H850 H 0.80002 0.67964 0.49283 0.0
C851 C 0.92263 0.73142 0.45459 0.0
C852 C 0.91271 0.69021 0.50954 0.0
C853 C 0.95284 0.74456 0.44043 0.0
C854 C 0.77647 0.69978 0.57032 0.0
C855 C 0.81075 0.69819 0.55657 0.0
C856 C 0.83147 0.68194 0.49775 0.0
C857 C 0.93128 0.70377 0.4699 0.0
C858 C 0.90115 0.69344 0.48705 0.0
C859 C 0.81115 0.67565 0.5377 0.0
C860 C 0.84278 0.67965 0.52032 0.0
H861 H 0.02978 0.68878 0.4565 0.0
H862 H 0.97705 0.66605 0.48106 0.0
H863 H 0.8506 0.69105 0.46411 0.0
H864 H 0.71832 0.63751 0.54356 0.0
H865 H 0.7783 0.63406 0.52001 0.0
C866 C 0.74103 0.77013 0.0336 0.0
C867 C 0.78045 0.78311 0.03011 0.0
C868 C 0.71341 0.76902 0.01597 0.0
C869 C 0.6896 0.80678 0.96099 0.0
H870 H 0.63047 0.71749 0.95347 0.0
C871 C 0.53631 0.79149 0.91742 0.0
C872 C 0.52641 0.75794 0.90805 0.0
C873 C 0.57489 0.79751 0.92609 0.0
C874 C 0.64731 0.74237 0.95502 0.0
H875 H 0.82115 0.80685 0.00573 0.0
H876 H 0.77271 0.80519 0.97513 0.0
H877 H 0.68045 0.7225 0.98307 0.0
H878 H 0.55076 0.70642 0.89746 0.0
H879 H 0.61827 0.71708 0.91254 0.0
H880 H 0.65544 0.82692 0.93323 0.0
C881 C 0.76334 0.79565 0.9914 0.0
C882 C 0.67541 0.74541 0.97223 0.0
C883 C 0.79107 0.7964 0.00892 0.0
C884 C 0.55732 0.73243 0.90477 0.0
C885 C 0.59591 0.7384 0.91357 0.0
C886 C 0.66112 0.80385 0.94384 0.0
C887 C 0.72455 0.78126 0.99463 0.0
C888 C 0.69624 0.77783 0.97565 0.0
C889 C 0.60417 0.77006 0.92556 0.0
C890 C 0.63924 0.77176 0.94091 0.0
H891 H 0.73196 0.75971 0.04971 0.0
H892 H 0.68342 0.75824 0.01895 0.0
H893 H 0.70537 0.83206 0.96327 0.0
H894 H 0.51323 0.81189 0.91988 0.0
H895 H 0.58035 0.82226 0.93514 0.0
loop_
_geom_bond_atom_site_label_1
_geom_bond_atom_site_label_2
_geom_bond_distance
_geom_bond_site_symmetry_2
_ccdc_geom_bond_type
Sc0 O3 2.025 . S
Sc0 O10 2.105 . S
Sc0 O13 2.105 . S
Sc0 O16 2.105 . S
Sc0 O19 2.105 . S
Sc1 O3 2.025 . S
Sc1 O11 2.105 . S
Sc1 O15 2.105 . S
Sc1 O17 2.105 . S
Sc1 O21 2.105 . S
Sc2 O3 2.025 . S
Sc2 O12 2.105 . S
Sc2 O14 2.105 . S
Sc2 O18 2.105 . S
Sc2 O20 2.105 . S
O3 Sc0 2.025 . S
O3 Sc1 2.025 . S
O3 Sc2 2.025 . S
C4 O10 1.268 . S
C4 O20 1.268 . S
C5 O11 1.268 . S
C5 O19 1.268 . S
C6 O12 1.268 . S
C6 O21 1.268 . S
C7 O13 1.268 . S
C7 O17 1.268 . S
C8 O14 1.268 . S
C8 O16 1.268 . S
C9 O15 1.268 . S
C9 O18 1.268 . S
O10 Sc0 2.105 . S
O10 C4 1.268 . S
O11 Sc1 2.105 . S
O11 C5 1.268 . S
O12 Sc2 2.105 . S
O12 C6 1.268 . S
O13 Sc0 2.105 . S
O13 C7 1.268 . S
O14 Sc2 2.105 . S
O14 C8 1.268 . S
O15 Sc1 2.105 . S
O15 C9 1.268 . S
O16 Sc0 2.105 . S
O16 C8 1.268 . S
O17 Sc1 2.105 . S
O17 C7 1.268 . S
O18 Sc2 2.105 . S
O18 C9 1.268 . S
O19 Sc0 2.105 . S
O19 C5 1.268 . S
O20 Sc2 2.105 . S
O20 C4 1.268 . S
O21 Sc1 2.105 . S
O21 C6 1.268 . S
Sc22 O25 2.025 . S
Sc22 O32 2.105 . S
Sc22 O35 2.105 . S
Sc22 O38 2.105 . S
Sc22 O41 2.105 . S
Sc23 O25 2.025 . S
Sc23 O33 2.105 . S
Sc23 O37 2.105 . S
Sc23 O39 2.105 . S
Sc23 O43 2.105 . S
Sc24 O25 2.025 . S
Sc24 O34 2.105 . S
Sc24 O36 2.105 . S
Sc24 O40 2.105 . S
Sc24 O42 2.105 . S
O25 Sc22 2.025 . S
O25 Sc23 2.025 . S
O25 Sc24 2.025 . S
C26 O32 1.268 . S
C26 O42 1.268 . S
C27 O33 1.268 . S
C27 O41 1.268 . S
C28 O34 1.268 . S
C28 O43 1.268 . S
C29 O35 1.268 . S
C29 O39 1.268 . S
C30 O36 1.268 . S
C30 O38 1.268 . S
C31 O37 1.268 . S
C31 O40 1.268 . S
O32 Sc22 2.105 . S
O32 C26 1.268 . S
O33 Sc23 2.105 . S
O33 C27 1.268 . S
O34 Sc24 2.105 . S
O34 C28 1.268 . S
O35 Sc22 2.105 . S
O35 C29 1.268 . S
O36 Sc24 2.105 . S
O36 C30 1.268 . S
O37 Sc23 2.105 . S
O37 C31 1.268 . S
O38 Sc22 2.105 . S
O38 C30 1.268 . S
O39 Sc23 2.105 . S
O39 C29 1.268 . S
O40 Sc24 2.105 . S
O40 C31 1.268 . S
O41 Sc22 2.105 . S
O41 C27 1.268 . S
O42 Sc24 2.105 . S
O42 C26 1.268 . S
O43 Sc23 2.105 . S
O43 C28 1.268 . S
Sc44 O47 2.025 . S
Sc44 O54 2.105 . S
Sc44 O57 2.105 . S
Sc44 O60 2.105 . S
Sc44 O63 2.105 . S
Sc45 O47 2.025 . S
Sc45 O55 2.105 . S
Sc45 O59 2.105 . S
Sc45 O61 2.105 . S
Sc45 O65 2.105 . S
Sc46 O47 2.025 . S
Sc46 O56 2.105 . S
Sc46 O58 2.105 . S
Sc46 O62 2.105 . S
Sc46 O64 2.105 . S
O47 Sc44 2.025 . S
O47 Sc45 2.025 . S
O47 Sc46 2.025 . S
C48 O54 1.268 . S
C48 O64 1.268 . S
C49 O55 1.268 . S
C49 O63 1.268 . S
C50 O56 1.268 . S
C50 O65 1.268 . S
C51 O57 1.268 . S
C51 O61 1.268 . S
C52 O58 1.268 . S
C52 O60 1.268 . S
C53 O59 1.268 . S
C53 O62 1.268 . S
O54 Sc44 2.105 . S
O54 C48 1.268 . S
O55 Sc45 2.105 . S
O55 C49 1.268 . S
O56 Sc46 2.105 . S
O56 C50 1.268 . S
O57 Sc44 2.105 . S
O57 C51 1.268 . S
O58 Sc46 2.105 . S
O58 C52 1.268 . S
O59 Sc45 2.105 . S
O59 C53 1.268 . S
O60 Sc44 2.105 . S
O60 C52 1.268 . S
O61 Sc45 2.105 . S
O61 C51 1.268 . S
O62 Sc46 2.105 . S
O62 C53 1.268 . S
O63 Sc44 2.105 . S
O63 C49 1.268 . S
O64 Sc46 2.105 . S
O64 C48 1.268 . S
O65 Sc45 2.105 . S
O65 C50 1.268 . S
Sc66 O69 2.025 . S
Sc66 O76 2.105 . S
Sc66 O79 2.105 . S
Sc66 O82 2.105 . S
Sc66 O85 2.105 . S
Sc67 O69 2.025 . S
Sc67 O77 2.105 . S
Sc67 O81 2.105 . S
Sc67 O83 2.105 . S
Sc67 O87 2.105 . S
Sc68 O69 2.025 . S
Sc68 O78 2.105 . S
Sc68 O80 2.105 . S
Sc68 O84 2.105 . S
Sc68 O86 2.105 . S
O69 Sc66 2.025 . S
O69 Sc67 2.025 . S
O69 Sc68 2.025 . S
C70 O76 1.268 . S
C70 O86 1.268 . S
C71 O77 1.268 . S
C71 O85 1.268 . S
C72 O78 1.268 . S
C72 O87 1.268 . S
C73 O79 1.268 . S
C73 O83 1.268 . S
C74 O80 1.268 . S
C74 O82 1.268 . S
C75 O81 1.268 . S
C75 O84 1.268 . S
O76 Sc66 2.105 . S
O76 C70 1.268 . S
O77 Sc67 2.105 . S
O77 C71 1.268 . S
O78 Sc68 2.105 . S
O78 C72 1.268 . S
O79 Sc66 2.105 . S
O79 C73 1.268 . S
O80 Sc68 2.105 . S
O80 C74 1.268 . S
O81 Sc67 2.105 . S
O81 C75 1.268 . S
O82 Sc66 2.105 . S
O82 C74 1.268 . S
O83 Sc67 2.105 . S
O83 C73 1.268 . S
O84 Sc68 2.105 . S
O84 C75 1.268 . S
O85 Sc66 2.105 . S
O85 C71 1.268 . S
O86 Sc68 2.105 . S
O86 C70 1.268 . S
O87 Sc67 2.105 . S
O87 C72 1.268 . S
Sc88 O91 2.025 . S
Sc88 O98 2.105 . S
Sc88 O101 2.105 . S
Sc88 O104 2.105 . S
Sc88 O107 2.105 . S
Sc89 O91 2.025 . S
Sc89 O99 2.105 . S
Sc89 O103 2.105 . S
Sc89 O105 2.105 . S
Sc89 O109 2.105 . S
Sc90 O91 2.025 . S
Sc90 O100 2.105 . S
Sc90 O102 2.105 . S
Sc90 O106 2.105 . S
Sc90 O108 2.105 . S
O91 Sc88 2.025 . S
O91 Sc89 2.025 . S
O91 Sc90 2.025 . S
C92 O98 1.268 . S
C92 O108 1.268 . S
C93 O99 1.268 . S
C93 O107 1.268 . S
C94 O100 1.268 . S
C94 O109 1.268 . S
C95 O101 1.268 . S
C95 O105 1.268 . S
C96 O102 1.268 . S
C96 O104 1.268 . S
C97 O103 1.268 . S
C97 O106 1.268 . S
O98 Sc88 2.105 . S
O98 C92 1.268 . S
O99 Sc89 2.105 . S
O99 C93 1.268 . S
O100 Sc90 2.105 . S
O100 C94 1.268 . S
O101 Sc88 2.105 . S
O101 C95 1.268 . S
O102 Sc90 2.105 . S
O102 C96 1.268 . S
O103 Sc89 2.105 . S
O103 C97 1.268 . S
O104 Sc88 2.105 . S
O104 C96 1.268 . S
O105 Sc89 2.105 . S
O105 C95 1.268 . S
O106 Sc90 2.105 . S
O106 C97 1.268 . S
O107 Sc88 2.105 . S
O107 C93 1.268 . S
O108 Sc90 2.105 . S
O108 C92 1.268 . S
O109 Sc89 2.105 . S
O109 C94 1.268 . S
Sc110 O113 2.025 . S
Sc110 O120 2.105 . S
Sc110 O123 2.105 . S
Sc110 O126 2.105 . S
Sc110 O129 2.105 . S
Sc111 O113 2.025 . S
Sc111 O121 2.105 . S
Sc111 O125 2.105 . S
Sc111 O127 2.105 . S
Sc111 O131 2.105 . S
Sc112 O113 2.025 . S
Sc112 O122 2.105 . S
Sc112 O124 2.105 . S
Sc112 O128 2.105 . S
Sc112 O130 2.105 . S
O113 Sc110 2.025 . S
O113 Sc111 2.025 . S
O113 Sc112 2.025 . S
C114 O120 1.268 . S
C114 O130 1.268 . S
C115 O121 1.268 . S
C115 O129 1.268 . S
C116 O122 1.268 . S
C116 O131 1.268 . S
C117 O123 1.268 . S
C117 O127 1.268 . S
C118 O124 1.268 . S
C118 O126 1.268 . S
C119 O125 1.268 . S
C119 O128 1.268 . S
O120 Sc110 2.105 . S
O120 C114 1.268 . S
O121 Sc111 2.105 . S
O121 C115 1.268 . S
O122 Sc112 2.105 . S
O122 C116 1.268 . S
O123 Sc110 2.105 . S
O123 C117 1.268 . S
O124 Sc112 2.105 . S
O124 C118 1.268 . S
O125 Sc111 2.105 . S
O125 C119 1.268 . S
O126 Sc110 2.105 . S
O126 C118 1.268 . S
O127 Sc111 2.105 . S
O127 C117 1.268 . S
O128 Sc112 2.105 . S
O128 C119 1.268 . S
O129 Sc110 2.105 . S
O129 C115 1.268 . S
O130 Sc112 2.105 . S
O130 C114 1.268 . S
O131 Sc111 2.105 . S
O131 C116 1.268 . S
Sc132 O135 2.025 . S
Sc132 O142 2.105 . S
Sc132 O145 2.105 . S
Sc132 O148 2.105 . S
Sc132 O151 2.105 . S
Sc133 O135 2.025 . S
Sc133 O143 2.105 . S
Sc133 O147 2.105 . S
Sc133 O149 2.105 . S
Sc133 O153 2.105 . S
Sc134 O135 2.025 . S
Sc134 O144 2.105 . S
Sc134 O146 2.105 . S
Sc134 O150 2.105 . S
Sc134 O152 2.105 . S
O135 Sc132 2.025 . S
O135 Sc133 2.025 . S
O135 Sc134 2.025 . S
C136 O142 1.268 . S
C136 O152 1.268 . S
C137 O143 1.268 . S
C137 O151 1.268 . S
C138 O144 1.268 . S
C138 O153 1.268 . S
C139 O145 1.268 . S
C139 O149 1.268 . S
C140 O146 1.268 . S
C140 O148 1.268 . S
C141 O147 1.268 . S
C141 O150 1.268 . S
O142 Sc132 2.105 . S
O142 C136 1.268 . S
O143 Sc133 2.105 . S
O143 C137 1.268 . S
O144 Sc134 2.105 . S
O144 C138 1.268 . S
O145 Sc132 2.105 . S
O145 C139 1.268 . S
O146 Sc134 2.105 . S
O146 C140 1.268 . S
O147 Sc133 2.105 . S
O147 C141 1.268 . S
O148 Sc132 2.105 . S
O148 C140 1.268 . S
O149 Sc133 2.105 . S
O149 C139 1.268 . S
O150 Sc134 2.105 . S
O150 C141 1.268 . S
O151 Sc132 2.105 . S
O151 C137 1.268 . S
O152 Sc134 2.105 . S
O152 C136 1.268 . S
O153 Sc133 2.105 . S
O153 C138 1.268 . S
Sc154 O157 2.025 . S
Sc154 O164 2.105 . S
Sc154 O167 2.105 . S
Sc154 O170 2.105 . S
Sc154 O173 2.105 . S
Sc155 O157 2.025 . S
Sc155 O165 2.105 . S
Sc155 O169 2.105 . S
Sc155 O171 2.105 . S
Sc155 O175 2.105 . S
Sc156 O157 2.025 . S
Sc156 O166 2.105 . S
Sc156 O168 2.105 . S
Sc156 O172 2.105 . S
Sc156 O174 2.105 . S
O157 Sc154 2.025 . S
O157 Sc155 2.025 . S
O157 Sc156 2.025 . S
C158 O164 1.268 . S
C158 O174 1.268 . S
C159 O165 1.268 . S
C159 O173 1.268 . S
C160 O166 1.268 . S
C160 O175 1.268 . S
C161 O167 1.268 . S
C161 O171 1.268 . S
C162 O168 1.268 . S
C162 O170 1.268 . S
C163 O169 1.268 . S
C163 O172 1.268 . S
O164 Sc154 2.105 . S
O164 C158 1.268 . S
O165 Sc155 2.105 . S
O165 C159 1.268 . S
O166 Sc156 2.105 . S
O166 C160 1.268 . S
O167 Sc154 2.105 . S
O167 C161 1.268 . S
O168 Sc156 2.105 . S
O168 C162 1.268 . S
O169 Sc155 2.105 . S
O169 C163 1.268 . S
O170 Sc154 2.105 . S
O170 C162 1.268 . S
O171 Sc155 2.105 . S
O171 C161 1.268 . S
O172 Sc156 2.105 . S
O172 C163 1.268 . S
O173 Sc154 2.105 . S
O173 C159 1.268 . S
O174 Sc156 2.105 . S
O174 C158 1.268 . S
O175 Sc155 2.105 . S
O175 C160 1.268 . S
C176 C177 1.349 . S
C176 C178 1.327 . S
C176 H201 0.950 . S
C177 C176 1.349 . S
C177 C193 1.349 . S
C178 C176 1.327 . S
C178 C197 1.429 . S
C178 H202 0.968 . S
C179 C196 1.574 . S
C179 C198 1.368 . S
C179 H203 0.949 . S
H180 C184 0.949 . S
C181 C182 1.349 . S
C181 C183 1.327 . S
C181 H204 0.950 . S
C182 C181 1.349 . S
C182 C194 1.349 . S
C183 C181 1.327 . S
C183 C199 1.429 . S
C183 H205 0.950 . S
C184 H180 0.949 . S
C184 C192 1.574 . S
C184 C200 1.368 . S
H185 C193 0.950 . S
H186 C191 0.950 . S
H187 C192 0.949 . S
H188 C194 0.950 . S
H189 C195 0.950 . S
H190 C196 0.949 . S
C191 H186 0.950 . S
C191 C193 1.327 . S
C191 C197 1.429 . S
C192 C184 1.574 . S
C192 H187 0.949 . S
C192 C198 1.368 . S
C193 C177 1.349 . S
C193 H185 0.950 . S
C193 C191 1.327 . S
C194 C182 1.349 . S
C194 H188 0.950 . S
C194 C195 1.327 . S
C195 H189 0.950 . S
C195 C194 1.327 . S
C195 C199 1.429 . S
C196 C179 1.574 . S
C196 H190 0.949 . S
C196 C200 1.368 . S
C197 C178 1.429 . S
C197 C191 1.429 . S
C197 C198 1.523 1_565 S
C198 C179 1.368 . S
C198 C192 1.368 . S
C198 C197 1.523 1_545 S
C199 C183 1.429 . S
C199 C195 1.429 . S
C199 C200 1.523 . S
C200 C184 1.368 . S
C200 C196 1.368 . S
C200 C199 1.523 . S
H201 C176 0.950 . S
H202 C178 0.968 . S
H203 C179 0.949 . S
H204 C181 0.950 . S
H205 C183 0.950 . S
C206 C207 1.349 . S
C206 C208 1.327 . S
C206 H231 0.950 . S
C207 C206 1.349 . S
C207 C223 1.349 . S
C208 C206 1.327 . S
C208 C227 1.429 . S
C208 H232 0.950 . S
C209 C226 1.574 . S
C209 C228 1.368 . S
C209 H233 0.949 . S
H210 C214 0.949 . S
C211 C212 1.349 . S
C211 C213 1.327 . S
C211 H234 0.950 . S
C212 C211 1.349 . S
C212 C224 1.349 . S
C213 C211 1.327 . S
C213 C229 1.429 . S
C213 H235 0.950 . S
C214 H210 0.949 . S
C214 C222 1.574 . S
C214 C230 1.368 . S
H215 C223 0.950 . S
H216 C221 0.950 . S
H217 C222 0.949 . S
H218 C224 0.950 . S
H219 C225 0.950 . S
H220 C226 0.949 . S
C221 H216 0.950 . S
C221 C223 1.327 . S
C221 C227 1.429 . S
C222 C214 1.574 . S
C222 H217 0.949 . S
C222 C228 1.368 . S
C223 C207 1.349 . S
C223 H215 0.950 . S
C223 C221 1.327 . S
C224 C212 1.349 . S
C224 H218 0.950 . S
C224 C225 1.327 . S
C225 H219 0.950 . S
C225 C224 1.327 . S
C225 C229 1.429 . S
C226 C209 1.574 . S
C226 H220 0.949 . S
C226 C230 1.368 . S
C227 C208 1.429 . S
C227 C221 1.429 . S
C227 C228 1.523 . S
C228 C209 1.368 . S
C228 C222 1.368 . S
C228 C227 1.523 . S
C229 C213 1.429 . S
C229 C225 1.429 . S
C229 C230 1.523 . S
C230 C214 1.368 . S
C230 C226 1.368 . S
C230 C229 1.523 . S
H231 C206 0.950 . S
H232 C208 0.950 . S
H233 C209 0.949 . S
H234 C211 0.950 . S
H235 C213 0.950 . S
C236 C237 1.349 . S
C236 C238 1.327 . S
C236 H261 0.950 . S
C237 C236 1.349 . S
C237 C253 1.349 . S
C238 C236 1.327 . S
C238 C257 1.429 . S
C238 H262 0.950 . S
C239 C256 1.574 . S
C239 C258 1.368 . S
C239 H263 0.949 . S
H240 C244 0.949 . S
C241 C242 1.349 . S
C241 C243 1.327 . S
C241 H264 0.950 . S
C242 C241 1.349 . S
C242 C254 1.349 . S
C243 C241 1.327 . S
C243 C259 1.429 . S
C243 H265 0.950 . S
C244 H240 0.949 . S
C244 C252 1.574 . S
C244 C260 1.368 . S
H245 C253 0.950 . S
H246 C251 0.950 . S
H247 C252 0.949 . S
H248 C254 0.950 . S
H249 C255 0.950 . S
H250 C256 0.949 . S
C251 H246 0.950 . S
C251 C253 1.327 . S
C251 C257 1.429 . S
C252 C244 1.574 . S
C252 H247 0.949 . S
C252 C258 1.368 . S
C253 C237 1.349 . S
C253 H245 0.950 . S
C253 C251 1.327 . S
C254 C242 1.349 . S
C254 H248 0.950 . S
C254 C255 1.327 . S
C255 H249 0.950 . S
C255 C254 1.327 . S
C255 C259 1.429 . S
C256 C239 1.574 . S
C256 H250 0.949 . S
C256 C260 1.368 . S
C257 C238 1.429 . S
C257 C251 1.429 . S
C257 C258 1.523 . S
C258 C239 1.368 . S
C258 C252 1.368 . S
C258 C257 1.523 . S
C259 C243 1.429 . S
C259 C255 1.429 . S
C259 C260 1.523 . S
C260 C244 1.368 . S
C260 C256 1.368 . S
C260 C259 1.523 . S
H261 C236 0.950 . S
H262 C238 0.950 . S
H263 C239 0.949 . S
H264 C241 0.950 . S
H265 C243 0.950 . S
C266 C267 1.349 . S
C266 C268 1.327 . S
C266 H291 0.950 . S
C267 C266 1.349 . S
C267 C283 1.349 . S
C268 C266 1.327 . S
C268 C287 1.429 . S
C268 H292 0.950 . S
C269 C286 1.574 . S
C269 C288 1.368 . S
C269 H293 0.949 . S
H270 C274 0.949 . S
C271 C272 1.349 . S
C271 C273 1.327 . S
C271 H294 0.950 . S
C272 C271 1.349 . S
C272 C284 1.349 . S
C273 C271 1.327 . S
C273 C289 1.429 . S
C273 H295 0.950 . S
C274 H270 0.949 . S
C274 C282 1.574 . S
C274 C290 1.368 . S
H275 C283 0.950 . S
H276 C281 0.950 . S
H277 C282 0.949 . S
H278 C284 0.950 . S
H279 C285 0.945 1_545 S
H280 C286 0.949 . S
C281 H276 0.950 . S
C281 C283 1.327 . S
C281 C287 1.429 . S
C282 C274 1.574 . S
C282 H277 0.949 . S
C282 C288 1.368 . S
C283 C267 1.349 . S
C283 H275 0.950 . S
C283 C281 1.327 . S
C284 C272 1.349 . S
C284 H278 0.950 . S
C284 C285 1.327 . S
C285 H279 0.945 1_565 S
C285 C284 1.327 . S
C285 C289 1.429 . S
C286 C269 1.574 . S
C286 H280 0.949 . S
C286 C290 1.368 . S
C287 C268 1.429 . S
C287 C281 1.429 . S
C287 C288 1.523 . S
C288 C269 1.368 . S
C288 C282 1.368 . S
C288 C287 1.523 . S
C289 C273 1.429 . S
C289 C285 1.429 . S
C289 C290 1.523 1_565 S
C290 C274 1.368 . S
C290 C286 1.368 . S
C290 C289 1.523 1_545 S
H291 C266 0.950 . S
H292 C268 0.950 . S
H293 C269 0.949 . S
H294 C271 0.950 . S
H295 C273 0.950 . S
C296 C297 1.349 . S
C296 C298 1.327 . S
C296 H321 0.950 . S
C297 C296 1.349 . S
C297 C313 1.349 . S
C298 C296 1.327 . S
C298 C317 1.429 . S
C298 H322 0.950 . S
C299 C316 1.574 . S
C299 C318 1.368 . S
C299 H323 0.949 . S
H300 C304 0.949 . S
C301 C302 1.349 . S
C301 C303 1.327 . S
C301 H324 0.950 . S
C302 C301 1.349 . S
C302 C314 1.349 . S
C303 C301 1.327 . S
C303 C319 1.429 . S
C303 H325 0.950 . S
C304 H300 0.949 . S
C304 C312 1.574 . S
C304 C320 1.368 . S
H305 C313 0.950 . S
H306 C311 0.950 . S
H307 C312 0.949 . S
H308 C314 0.950 . S
H309 C315 0.950 . S
H310 C316 0.949 . S
C311 H306 0.950 . S
C311 C313 1.327 . S
C311 C317 1.429 . S
C312 C304 1.574 . S
C312 H307 0.949 . S
C312 C318 1.368 . S
C313 C297 1.349 . S
C313 H305 0.950 . S
C313 C311 1.327 . S
C314 C302 1.349 . S
C314 H308 0.950 . S
C314 C315 1.327 . S
C315 H309 0.950 . S
C315 C314 1.327 . S
C315 C319 1.429 . S
C316 C299 1.574 . S
C316 H310 0.949 . S
C316 C320 1.368 . S
C317 C298 1.429 . S
C317 C311 1.429 . S
C317 C318 1.523 1_545 S
C318 C299 1.368 . S
C318 C312 1.368 . S
C318 C317 1.523 1_565 S
C319 C303 1.429 . S
C319 C315 1.429 . S
C319 C320 1.523 . S
C320 C304 1.368 . S
C320 C316 1.368 . S
C320 C319 1.523 . S
H321 C296 0.950 . S
H322 C298 0.950 . S
H323 C299 0.949 . S
H324 C301 0.950 . S
H325 C303 0.950 . S
C326 C327 1.349 . S
C326 C328 1.327 . S
C326 H351 0.950 . S
C327 C326 1.349 . S
C327 C343 1.349 . S
C328 C326 1.327 . S
C328 C347 1.429 . S
C328 H352 0.950 . S
C329 C346 1.574 . S
C329 C348 1.368 . S
C329 H353 0.949 . S
H330 C334 0.949 . S
C331 C332 1.349 . S
C331 C333 1.327 . S
C331 H354 0.950 . S
C332 C331 1.349 . S
C332 C344 1.349 . S
C333 C331 1.327 . S
C333 C349 1.429 . S
C333 H355 0.950 . S
C334 H330 0.949 . S
C334 C342 1.574 . S
C334 C350 1.368 . S
H335 C343 0.950 . S
H336 C341 0.950 . S
H337 C342 0.949 . S
H338 C344 0.950 . S
H339 C345 0.950 . S
H340 C346 0.949 . S
C341 H336 0.950 . S
C341 C343 1.327 . S
C341 C347 1.429 . S
C342 C334 1.574 . S
C342 H337 0.949 . S
C342 C348 1.368 . S
C343 C327 1.349 . S
C343 H335 0.950 . S
C343 C341 1.327 . S
C344 C332 1.349 . S
C344 H338 0.950 . S
C344 C345 1.327 . S
C345 H339 0.950 . S
C345 C344 1.327 . S
C345 C349 1.429 . S
C346 C329 1.574 . S
C346 H340 0.949 . S
C346 C350 1.368 . S
C347 C328 1.429 . S
C347 C341 1.429 . S
C347 C348 1.523 . S
C348 C329 1.368 . S
C348 C342 1.368 . S
C348 C347 1.523 . S
C349 C333 1.429 . S
C349 C345 1.429 . S
C349 C350 1.523 . S
C350 C334 1.368 . S
C350 C346 1.368 . S
C350 C349 1.523 . S
H351 C326 0.950 . S
H352 C328 0.950 . S
H353 C329 0.949 . S
H354 C331 0.950 . S
H355 C333 0.950 . S
C356 C357 1.349 . S
C356 C358 1.327 . S
C356 H381 0.950 . S
C357 C356 1.349 . S
C357 C373 1.349 . S
C358 C356 1.327 . S
C358 C377 1.429 . S
C358 H382 0.950 . S
C359 C376 1.574 . S
C359 C378 1.368 . S
C359 H383 0.949 . S
H360 C364 0.949 . S
C361 C362 1.349 . S
C361 C363 1.327 . S
C361 H384 0.950 . S
C362 C361 1.349 . S
C362 C374 1.349 . S
C363 C361 1.327 . S
C363 C379 1.429 . S
C363 H385 0.950 . S
C364 H360 0.949 . S
C364 C372 1.574 . S
C364 C380 1.368 . S
H365 C373 0.950 . S
H366 C371 0.950 . S
H367 C372 0.949 . S
H368 C374 0.950 . S
H369 C375 0.950 . S
H370 C376 0.949 . S
C371 H366 0.950 . S
C371 C373 1.327 . S
C371 C377 1.429 . S
C372 C364 1.574 . S
C372 H367 0.949 . S
C372 C378 1.368 . S
C373 C357 1.349 . S
C373 H365 0.950 . S
C373 C371 1.327 . S
C374 C362 1.349 . S
C374 H368 0.950 . S
C374 C375 1.327 . S
C375 H369 0.950 . S
C375 C374 1.327 . S
C375 C379 1.429 . S
C376 C359 1.574 . S
C376 H370 0.949 . S
C376 C380 1.368 . S
C377 C358 1.429 . S
C377 C371 1.429 . S
C377 C378 1.523 . S
C378 C359 1.368 . S
C378 C372 1.368 . S
C378 C377 1.523 . S
C379 C363 1.429 . S
C379 C375 1.429 . S
C379 C380 1.523 . S
C380 C364 1.368 . S
C380 C376 1.368 . S
C380 C379 1.523 . S
H381 C356 0.950 . S
H382 C358 0.950 . S
H383 C359 0.949 . S
H384 C361 0.950 . S
H385 C363 0.950 . S
C386 C387 1.349 . S
C386 C388 1.327 . S
C386 H411 0.950 . S
C387 C386 1.349 . S
C387 C403 1.349 . S
C388 C386 1.327 . S
C388 C407 1.429 . S
C388 H412 0.950 . S
C389 C406 1.574 . S
C389 C408 1.368 . S
C389 H413 0.949 . S
H390 C394 0.949 . S
C391 C392 1.349 . S
C391 C393 1.327 . S
C391 H414 0.950 . S
C392 C391 1.349 . S
C392 C404 1.349 . S
C393 C391 1.327 . S
C393 C409 1.429 . S
C393 H415 0.950 . S
C394 H390 0.949 . S
C394 C402 1.574 . S
C394 C410 1.368 . S
H395 C403 0.950 . S
H396 C401 0.950 . S
H397 C402 0.949 . S
H398 C404 0.950 . S
H399 C405 0.950 . S
H400 C406 0.949 . S
C401 H396 0.950 . S
C401 C403 1.327 . S
C401 C407 1.429 . S
C402 C394 1.574 . S
C402 H397 0.949 . S
C402 C408 1.368 . S
C403 C387 1.349 . S
C403 H395 0.950 . S
C403 C401 1.327 . S
C404 C392 1.349 . S
C404 H398 0.950 . S
C404 C405 1.327 . S
C405 H399 0.950 . S
C405 C404 1.327 . S
C405 C409 1.429 . S
C406 C389 1.574 . S
C406 H400 0.949 . S
C406 C410 1.368 . S
C407 C388 1.429 . S
C407 C401 1.429 . S
C407 C408 1.523 1_545 S
C408 C389 1.368 . S
C408 C402 1.368 . S
C408 C407 1.523 1_565 S
C409 C393 1.429 . S
C409 C405 1.429 . S
C409 C410 1.523 . S
C410 C394 1.368 . S
C410 C406 1.368 . S
C410 C409 1.523 . S
H411 C386 0.950 . S
H412 C388 0.950 . S
H413 C389 0.949 . S
H414 C391 0.950 . S
H415 C393 0.950 . S
C416 C417 1.349 . S
C416 C418 1.327 . S
C416 H441 0.950 . S
C417 C416 1.349 . S
C417 C433 1.349 . S
C418 C416 1.327 . S
C418 C437 1.429 . S
C418 H442 0.950 . S
C419 C436 1.574 . S
C419 C438 1.368 . S
C419 H443 0.949 . S
H420 C424 0.949 . S
C421 C422 1.349 . S
C421 C423 1.327 . S
C421 H444 0.950 . S
C422 C421 1.349 . S
C422 C434 1.349 . S
C423 C421 1.327 . S
C423 C439 1.429 . S
C423 H445 0.950 . S
C424 H420 0.949 . S
C424 C432 1.574 . S
C424 C440 1.368 . S
H425 C433 0.950 . S
H426 C431 0.950 . S
H427 C432 0.949 . S
H428 C434 0.950 . S
H429 C435 0.950 . S
H430 C436 0.949 . S
C431 H426 0.950 . S
C431 C433 1.327 . S
C431 C437 1.429 . S
C432 C424 1.574 . S
C432 H427 0.949 . S
C432 C438 1.368 . S
C433 C417 1.349 . S
C433 H425 0.950 . S
C433 C431 1.327 . S
C434 C422 1.349 . S
C434 H428 0.950 . S
C434 C435 1.327 . S
C435 H429 0.950 . S
C435 C434 1.327 . S
C435 C439 1.429 . S
C436 C419 1.574 . S
C436 H430 0.949 . S
C436 C440 1.368 . S
C437 C418 1.429 . S
C437 C431 1.429 . S
C437 C438 1.523 . S
C438 C419 1.368 . S
C438 C432 1.368 . S
C438 C437 1.523 . S
C439 C423 1.429 . S
C439 C435 1.429 . S
C439 C440 1.523 . S
C440 C424 1.368 . S
C440 C436 1.368 . S
C440 C439 1.523 . S
H441 C416 0.950 . S
H442 C418 0.950 . S
H443 C419 0.949 . S
H444 C421 0.950 . S
H445 C423 0.950 . S
C446 C447 1.349 . S
C446 C448 1.327 . S
C446 H471 0.950 . S
C447 C446 1.349 . S
C447 C463 1.349 . S
C448 C446 1.327 . S
C448 C467 1.429 . S
C448 H472 0.950 . S
C449 C466 1.574 1_565 S
C449 C468 1.368 1_556 S
C449 H473 0.949 . S
H450 C454 0.949 . S
C451 C452 1.349 . S
C451 C453 1.327 . S
C451 H474 0.950 . S
C452 C451 1.349 . S
C452 C464 1.349 . S
C453 C451 1.327 . S
C453 C469 1.429 . S
C453 H475 0.950 . S
C454 H450 0.949 . S
C454 C462 1.574 1_545 S
C454 C470 1.368 1_554 S
H455 C463 0.950 . S
H456 C461 0.950 1_556 S
H457 C462 0.949 . S
H458 C464 0.950 . S
H459 C465 0.950 1_554 S
H460 C466 0.949 . S
C461 H456 0.950 1_554 S
C461 C463 1.327 . S
C461 C467 1.429 . S
C462 C454 1.574 1_565 S
C462 H457 0.949 . S
C462 C468 1.368 1_455 S
C463 C447 1.349 . S
C463 H455 0.950 . S
C463 C461 1.327 . S
C464 C452 1.349 . S
C464 H458 0.950 . S
C464 C465 1.327 . S
C465 H459 0.950 1_556 S
C465 C464 1.327 . S
C465 C469 1.429 . S
C466 C449 1.574 1_545 S
C466 H460 0.949 . S
C466 C470 1.368 1_655 S
C467 C448 1.429 . S
C467 C461 1.429 . S
C467 C468 1.523 . S
C468 C449 1.368 1_554 S
C468 C462 1.368 1_655 S
C468 C467 1.523 . S
C469 C453 1.429 . S
C469 C465 1.429 . S
C469 C470 1.523 . S
C470 C454 1.368 1_556 S
C470 C466 1.368 1_455 S
C470 C469 1.523 . S
H471 C446 0.950 . S
H472 C448 0.950 . S
H473 C449 0.949 . S
H474 C451 0.950 . S
H475 C453 0.950 . S
C476 C477 1.349 . S
C476 C478 1.327 . S
C476 H501 0.950 . S
C477 C476 1.349 . S
C477 C493 1.349 . S
C478 C476 1.327 . S
C478 C497 1.429 . S
C478 H502 0.950 . S
C479 C496 1.574 . S
C479 C498 1.368 1_565 S
C479 H503 0.949 . S
H480 C484 0.949 . S
C481 C482 1.349 . S
C481 C483 1.327 . S
C481 H504 0.950 . S
C482 C481 1.349 . S
C482 C494 1.349 . S
C483 C481 1.327 . S
C483 C499 1.429 . S
C483 H505 0.950 . S
C484 H480 0.949 . S
C484 C492 1.574 . S
C484 C500 1.368 1_545 S
H485 C493 0.950 . S
H486 C491 0.950 . S
H487 C492 0.949 . S
H488 C494 0.950 . S
H489 C495 0.950 . S
H490 C496 0.949 . S
C491 H486 0.950 . S
C491 C493 1.327 . S
C491 C497 1.429 . S
C492 C484 1.574 . S
C492 H487 0.949 . S
C492 C498 1.368 1_455 S
C493 C477 1.349 . S
C493 H485 0.950 . S
C493 C491 1.327 . S
C494 C482 1.349 . S
C494 H488 0.950 . S
C494 C495 1.327 . S
C495 H489 0.950 . S
C495 C494 1.327 . S
C495 C499 1.429 . S
C496 C479 1.574 . S
C496 H490 0.949 . S
C496 C500 1.368 1_655 S
C497 C478 1.429 . S
C497 C491 1.429 . S
C497 C498 1.523 . S
C498 C479 1.368 1_545 S
C498 C492 1.368 1_655 S
C498 C497 1.523 . S
C499 C483 1.429 . S
C499 C495 1.429 . S
C499 C500 1.523 . S
C500 C484 1.368 1_565 S
C500 C496 1.368 1_455 S
C500 C499 1.523 . S
H501 C476 0.950 . S
H502 C478 0.950 . S
H503 C479 0.949 . S
H504 C481 0.950 . S
H505 C483 0.950 . S
C506 C507 1.349 . S
C506 C508 1.327 . S
C506 H531 0.950 . S
C507 C506 1.349 . S
C507 C523 1.349 . S
C508 C506 1.327 . S
C508 C527 1.429 . S
C508 H532 0.950 . S
C509 C526 1.574 . S
C509 C528 1.368 1_554 S
C509 H533 0.949 . S
H510 C514 0.949 . S
C511 C512 1.349 . S
C511 C513 1.327 . S
C511 H534 0.950 . S
C512 C511 1.349 . S
C512 C524 1.349 . S
C513 C511 1.327 . S
C513 C529 1.429 . S
C513 H535 0.950 . S
C514 H510 0.949 . S
C514 C522 1.574 . S
C514 C530 1.368 1_556 S
H515 C523 0.950 . S
H516 C521 0.950 1_554 S
H517 C522 0.949 . S
H518 C524 0.950 . S
H519 C525 0.950 1_556 S
H520 C526 0.949 . S
C521 H516 0.950 1_556 S
C521 C523 1.327 . S
C521 C527 1.429 . S
C522 C514 1.574 . S
C522 H517 0.949 . S
C522 C528 1.368 . S
C523 C507 1.349 . S
C523 H515 0.950 . S
C523 C521 1.327 . S
C524 C512 1.349 . S
C524 H518 0.950 . S
C524 C525 1.327 . S
C525 H519 0.950 1_554 S
C525 C524 1.327 . S
C525 C529 1.429 . S
C526 C509 1.574 . S
C526 H520 0.949 . S
C526 C530 1.368 . S
C527 C508 1.429 . S
C527 C521 1.429 . S
C527 C528 1.523 . S
C528 C509 1.368 1_556 S
C528 C522 1.368 . S
C528 C527 1.523 . S
C529 C513 1.429 . S
C529 C525 1.429 . S
C529 C530 1.523 . S
C530 C514 1.368 1_554 S
C530 C526 1.368 . S
C530 C529 1.523 . S
H531 C506 0.950 . S
H532 C508 0.950 . S
H533 C509 0.949 . S
H534 C511 0.950 . S
H535 C513 0.950 . S
C536 C537 1.349 . S
C536 C538 1.327 . S
C536 H561 0.950 . S
C537 C536 1.349 . S
C537 C553 1.349 . S
C538 C536 1.327 . S
C538 C557 1.429 . S
C538 H562 0.950 . S
C539 C556 1.574 . S
C539 C558 1.368 . S
C539 H563 0.949 . S
H540 C544 0.949 . S
C541 C542 1.349 . S
C541 C543 1.327 . S
C541 H564 0.950 . S
C542 C541 1.349 . S
C542 C554 1.349 . S
C543 C541 1.327 . S
C543 C559 1.429 . S
C543 H565 0.950 . S
C544 H540 0.949 . S
C544 C552 1.574 . S
C544 C560 1.368 . S
H545 C553 0.950 . S
H546 C551 0.950 . S
H547 C552 0.949 . S
H548 C554 0.950 . S
H549 C555 0.950 . S
H550 C556 0.949 . S
C551 H546 0.950 . S
C551 C553 1.327 . S
C551 C557 1.429 . S
C552 C544 1.574 . S
C552 H547 0.949 . S
C552 C558 1.368 . S
C553 C537 1.349 . S
C553 H545 0.950 . S
C553 C551 1.327 . S
C554 C542 1.349 . S
C554 H548 0.950 . S
C554 C555 1.327 . S
C555 H549 0.950 . S
C555 C554 1.327 . S
C555 C559 1.429 . S
C556 C539 1.574 . S
C556 H550 0.949 . S
C556 C560 1.368 . S
C557 C538 1.429 . S
C557 C551 1.429 . S
C557 C558 1.523 . S
C558 C539 1.368 . S
C558 C552 1.368 . S
C558 C557 1.523 . S
C559 C543 1.429 . S
C559 C555 1.429 . S
C559 C560 1.523 . S
C560 C544 1.368 . S
C560 C556 1.368 . S
C560 C559 1.523 . S
H561 C536 0.950 . S
H562 C538 0.950 . S
H563 C539 0.949 . S
H564 C541 0.950 . S
H565 C543 0.950 . S
C566 C567 1.349 . S
C566 C568 1.327 . S
C566 H591 0.950 . S
C567 C566 1.349 . S
C567 C583 1.349 . S
C568 C566 1.327 . S
C568 C587 1.429 . S
C568 H592 0.950 . S
C569 C586 1.574 . S
C569 C588 1.368 1_655 S
C569 H593 0.949 . S
H570 C574 0.949 . S
C571 C572 1.349 . S
C571 C573 1.327 . S
C571 H594 0.950 . S
C572 C571 1.349 . S
C572 C584 1.349 . S
C573 C571 1.327 . S
C573 C589 1.429 . S
C573 H595 0.950 . S
C574 H570 0.949 . S
C574 C582 1.574 . S
C574 C590 1.368 1_455 S
H575 C583 0.950 . S
H576 C581 0.950 . S
H577 C582 0.949 . S
H578 C584 0.950 . S
H579 C585 0.950 . S
H580 C586 0.949 . S
C581 H576 0.950 . S
C581 C583 1.327 . S
C581 C587 1.429 . S
C582 C574 1.574 . S
C582 H577 0.949 . S
C582 C588 1.368 . S
C583 C567 1.349 . S
C583 H575 0.950 . S
C583 C581 1.327 . S
C584 C572 1.349 . S
C584 H578 0.950 . S
C584 C585 1.327 . S
C585 H579 0.950 . S
C585 C584 1.327 . S
C585 C589 1.429 . S
C586 C569 1.574 . S
C586 H580 0.949 . S
C586 C590 1.368 . S
C587 C568 1.429 . S
C587 C581 1.429 . S
C587 C588 1.523 . S
C588 C569 1.368 1_455 S
C588 C582 1.368 . S
C588 C587 1.523 . S
C589 C573 1.429 . S
C589 C585 1.429 . S
C589 C590 1.523 . S
C590 C574 1.368 1_655 S
C590 C586 1.368 . S
C590 C589 1.523 . S
H591 C566 0.950 . S
H592 C568 0.950 . S
H593 C569 0.949 . S
H594 C571 0.950 . S
H595 C573 0.950 . S
C596 C597 1.349 . S
C596 C598 1.327 . S
C596 H621 0.950 . S
C597 C596 1.349 . S
C597 C613 1.349 . S
C598 C596 1.327 . S
C598 C617 1.429 . S
C598 H622 0.950 . S
C599 C616 1.574 . S
C599 C618 1.368 . S
C599 H623 0.949 . S
H600 C604 0.949 . S
C601 C602 1.349 . S
C601 C603 1.327 . S
C601 H624 0.950 . S
C602 C601 1.349 . S
C602 C614 1.349 . S
C603 C601 1.327 . S
C603 C619 1.429 . S
C603 H625 0.950 . S
C604 H600 0.949 . S
C604 C612 1.574 . S
C604 C620 1.368 . S
H605 C613 0.950 . S
H606 C611 0.950 . S
H607 C612 0.949 . S
H608 C614 0.950 . S
H609 C615 0.950 . S
H610 C616 0.949 . S
C611 H606 0.950 . S
C611 C613 1.327 . S
C611 C617 1.429 . S
C612 C604 1.574 . S
C612 H607 0.949 . S
C612 C618 1.368 . S
C613 C597 1.349 . S
C613 H605 0.950 . S
C613 C611 1.327 . S
C614 C602 1.349 . S
C614 H608 0.950 . S
C614 C615 1.327 . S
C615 H609 0.950 . S
C615 C614 1.327 . S
C615 C619 1.429 . S
C616 C599 1.574 . S
C616 H610 0.949 . S
C616 C620 1.368 . S
C617 C598 1.429 . S
C617 C611 1.429 . S
C617 C618 1.523 . S
C618 C599 1.368 . S
C618 C612 1.368 . S
C618 C617 1.523 . S
C619 C603 1.429 . S
C619 C615 1.429 . S
C619 C620 1.523 . S
C620 C604 1.368 . S
C620 C616 1.368 . S
C620 C619 1.523 . S
H621 C596 0.950 . S
H622 C598 0.950 . S
H623 C599 0.949 . S
H624 C601 0.950 . S
H625 C603 0.950 . S
C626 C627 1.349 . S
C626 C628 1.327 . S
C626 H651 0.950 . S
C627 C626 1.349 . S
C627 C643 1.349 . S
C628 C626 1.327 . S
C628 C647 1.429 . S
C628 H652 0.950 . S
C629 C646 1.574 . S
C629 C648 1.368 1_455 S
C629 H653 0.949 . S
H630 C634 0.949 . S
C631 C632 1.349 . S
C631 C633 1.327 . S
C631 H654 0.950 . S
C632 C631 1.349 . S
C632 C644 1.349 . S
C633 C631 1.327 . S
C633 C649 1.429 . S
C633 H655 0.950 . S
C634 H630 0.949 . S
C634 C642 1.574 . S
C634 C650 1.368 1_655 S
H635 C643 0.950 . S
H636 C641 0.950 . S
H637 C642 0.949 . S
H638 C644 0.950 . S
H639 C645 0.950 . S
H640 C646 0.949 . S
C641 H636 0.950 . S
C641 C643 1.327 . S
C641 C647 1.429 . S
C642 C634 1.574 . S
C642 H637 0.949 . S
C642 C648 1.368 . S
C643 C627 1.349 . S
C643 H635 0.950 . S
C643 C641 1.327 . S
C644 C632 1.349 . S
C644 H638 0.950 . S
C644 C645 1.327 . S
C645 H639 0.950 . S
C645 C644 1.327 . S
C645 C649 1.429 . S
C646 C629 1.574 . S
C646 H640 0.949 . S
C646 C650 1.368 . S
C647 C628 1.429 . S
C647 C641 1.429 . S
C647 C648 1.523 . S
C648 C629 1.368 1_655 S
C648 C642 1.368 . S
C648 C647 1.523 . S
C649 C633 1.429 . S
C649 C645 1.429 . S
C649 C650 1.523 . S
C650 C634 1.368 1_455 S
C650 C646 1.368 . S
C650 C649 1.523 . S
H651 C626 0.950 . S
H652 C628 0.950 . S
H653 C629 0.949 . S
H654 C631 0.950 . S
H655 C633 0.950 . S
C656 C657 1.349 . S
C656 C658 1.327 . S
C656 H681 0.950 . S
C657 C656 1.349 . S
C657 C673 1.349 . S
C658 C656 1.327 . S
C658 C677 1.429 . S
C658 H682 0.950 . S
C659 C676 1.574 . S
C659 C678 1.368 . S
C659 H683 0.949 . S
H660 C664 0.949 . S
C661 C662 1.349 . S
C661 C663 1.327 . S
C661 H684 0.950 . S
C662 C661 1.349 . S
C662 C674 1.349 . S
C663 C661 1.327 . S
C663 C679 1.429 . S
C663 H685 0.950 . S
C664 H660 0.949 . S
C664 C672 1.574 . S
C664 C680 1.368 . S
H665 C673 0.950 . S
H666 C671 0.950 . S
H667 C672 0.949 . S
H668 C674 0.950 . S
H669 C675 0.950 . S
H670 C676 0.949 . S
C671 H666 0.950 . S
C671 C673 1.327 . S
C671 C677 1.429 . S
C672 C664 1.574 . S
C672 H667 0.949 . S
C672 C678 1.368 . S
C673 C657 1.349 . S
C673 H665 0.950 . S
C673 C671 1.327 . S
C674 C662 1.349 . S
C674 H668 0.950 . S
C674 C675 1.327 . S
C675 H669 0.950 . S
C675 C674 1.327 . S
C675 C679 1.429 . S
C676 C659 1.574 . S
C676 H670 0.949 . S
C676 C680 1.368 . S
C677 C658 1.429 . S
C677 C671 1.429 . S
C677 C678 1.523 . S
C678 C659 1.368 . S
C678 C672 1.368 . S
C678 C677 1.523 . S
C679 C663 1.429 . S
C679 C675 1.429 . S
C679 C680 1.523 . S
C680 C664 1.368 . S
C680 C676 1.368 . S
C680 C679 1.523 . S
H681 C656 0.950 . S
H682 C658 0.950 . S
H683 C659 0.949 . S
H684 C661 0.950 . S
H685 C663 0.950 . S
C686 C687 1.349 . S
C686 C688 1.327 . S
C686 H711 0.950 1_655 S
C687 C686 1.349 . S
C687 C703 1.349 . S
C688 C686 1.327 . S
C688 C707 1.429 . S
C688 H712 0.950 . S
C689 C706 1.574 . S
C689 C708 1.368 . S
C689 H713 0.949 . S
H690 C694 0.949 . S
C691 C692 1.349 . S
C691 C693 1.327 . S
C691 H714 0.950 . S
C692 C691 1.349 . S
C692 C704 1.349 . S
C693 C691 1.327 . S
C693 C709 1.429 . S
C693 H715 0.973 . S
C694 H690 0.949 . S
C694 C702 1.574 1_554 S
C694 C710 1.368 . S
H695 C703 0.950 . S
H696 C701 0.950 . S
H697 C702 0.949 . S
H698 C704 0.950 . S
H699 C705 0.950 . S
H700 C706 0.949 . S
C701 H696 0.950 . S
C701 C703 1.327 . S
C701 C707 1.429 . S
C702 C694 1.574 1_556 S
C702 H697 0.949 . S
C702 C708 1.368 . S
C703 C687 1.349 . S
C703 H695 0.950 . S
C703 C701 1.327 . S
C704 C692 1.349 . S
C704 H698 0.950 . S
C704 C705 1.327 . S
C705 H699 0.950 . S
C705 C704 1.327 . S
C705 C709 1.429 . S
C706 C689 1.574 . S
C706 H700 0.949 . S
C706 C710 1.368 1_556 S
C707 C688 1.429 . S
C707 C701 1.429 . S
C707 C708 1.523 . S
C708 C689 1.368 . S
C708 C702 1.368 . S
C708 C707 1.523 . S
C709 C693 1.429 . S
C709 C705 1.429 . S
C709 C710 1.523 . S
C710 C694 1.368 . S
C710 C706 1.368 1_554 S
C710 C709 1.523 . S
H711 C686 0.950 1_455 S
H712 C688 0.950 . S
H713 C689 0.949 . S
H714 C691 0.950 . S
H715 C693 0.973 . S
C716 C717 1.349 . S
C716 C718 1.327 . S
C716 H741 0.950 1_455 S
C717 C716 1.349 . S
C717 C733 1.349 . S
C718 C716 1.327 . S
C718 C737 1.429 . S
C718 H742 0.950 . S
C719 C736 1.574 . S
C719 C738 1.368 . S
C719 H743 0.949 . S
H720 C724 0.949 . S
C721 C722 1.349 . S
C721 C723 1.327 . S
C721 H744 0.950 . S
C722 C721 1.349 . S
C722 C734 1.349 . S
C723 C721 1.327 . S
C723 C739 1.429 . S
C723 H745 0.950 . S
C724 H720 0.949 . S
C724 C732 1.574 . S
C724 C740 1.368 . S
H725 C733 0.950 . S
H726 C731 0.950 . S
H727 C732 0.949 . S
H728 C734 0.950 . S
H729 C735 0.950 . S
H730 C736 0.949 . S
C731 H726 0.950 . S
C731 C733 1.327 . S
C731 C737 1.429 . S
C732 C724 1.574 . S
C732 H727 0.949 . S
C732 C738 1.368 . S
C733 C717 1.349 . S
C733 H725 0.950 . S
C733 C731 1.327 . S
C734 C722 1.349 . S
C734 H728 0.950 . S
C734 C735 1.327 . S
C735 H729 0.950 . S
C735 C734 1.327 . S
C735 C739 1.429 . S
C736 C719 1.574 . S
C736 H730 0.949 . S
C736 C740 1.368 . S
C737 C718 1.429 . S
C737 C731 1.429 . S
C737 C738 1.523 . S
C738 C719 1.368 . S
C738 C732 1.368 . S
C738 C737 1.523 . S
C739 C723 1.429 . S
C739 C735 1.429 . S
C739 C740 1.523 . S
C740 C724 1.368 . S
C740 C736 1.368 . S
C740 C739 1.523 . S
H741 C716 0.950 1_655 S
H742 C718 0.950 . S
H743 C719 0.949 . S
H744 C721 0.950 . S
H745 C723 0.950 . S
C746 C747 1.349 . S
C746 C748 1.327 . S
C746 H771 0.950 . S
C747 C746 1.349 . S
C747 C763 1.349 . S
C748 C746 1.327 . S
C748 C767 1.429 . S
C748 H772 0.950 . S
C749 C766 1.574 1_554 S
C749 C768 1.368 . S
C749 H773 0.957 . S
H750 C754 0.949 . S
C751 C752 1.349 . S
C751 C753 1.327 . S
C751 H774 0.950 . S
C752 C751 1.349 . S
C752 C764 1.349 . S
C753 C751 1.327 . S
C753 C769 1.429 . S
C753 H775 0.950 . S
C754 H750 0.949 . S
C754 C762 1.574 . S
C754 C770 1.368 1_554 S
H755 C763 0.950 . S
H756 C761 0.950 . S
H757 C762 0.949 . S
H758 C764 0.950 . S
H759 C765 0.950 1_554 S
H760 C766 0.949 . S
C761 H756 0.950 . S
C761 C763 1.327 . S
C761 C767 1.429 . S
C762 C754 1.574 . S
C762 H757 0.949 . S
C762 C768 1.368 . S
C763 C747 1.349 . S
C763 H755 0.950 . S
C763 C761 1.327 . S
C764 C752 1.349 . S
C764 H758 0.950 . S
C764 C765 1.327 . S
C765 H759 0.950 1_556 S
C765 C764 1.327 . S
C765 C769 1.429 . S
C766 C749 1.574 1_556 S
C766 H760 0.949 . S
C766 C770 1.368 . S
C767 C748 1.429 . S
C767 C761 1.429 . S
C767 C768 1.523 . S
C768 C749 1.368 . S
C768 C762 1.368 . S
C768 C767 1.523 . S
C769 C753 1.429 . S
C769 C765 1.429 . S
C769 C770 1.523 . S
C770 C754 1.368 1_556 S
C770 C766 1.368 . S
C770 C769 1.523 . S
H771 C746 0.950 . S
H772 C748 0.950 . S
H773 C749 0.957 . S
H774 C751 0.950 . S
H775 C753 0.950 . S
C776 C777 1.349 . S
C776 C778 1.327 . S
C776 H801 0.950 . S
C777 C776 1.349 . S
C777 C793 1.349 . S
C778 C776 1.327 . S
C778 C797 1.429 . S
C778 H802 0.950 . S
C779 C796 1.574 . S
C779 C798 1.368 . S
C779 H803 0.949 . S
H780 C784 0.949 . S
C781 C782 1.349 . S
C781 C783 1.327 . S
C781 H804 0.950 . S
C782 C781 1.349 . S
C782 C794 1.349 . S
C783 C781 1.327 . S
C783 C799 1.429 . S
C783 H805 0.950 . S
C784 H780 0.949 . S
C784 C792 1.574 . S
C784 C800 1.368 . S
H785 C793 0.950 . S
H786 C791 0.950 . S
H787 C792 0.949 . S
H788 C794 0.950 . S
H789 C795 0.950 . S
H790 C796 0.949 . S
C791 H786 0.950 . S
C791 C793 1.327 . S
C791 C797 1.429 . S
C792 C784 1.574 . S
C792 H787 0.949 . S
C792 C798 1.368 . S
C793 C777 1.349 . S
C793 H785 0.950 . S
C793 C791 1.327 . S
C794 C782 1.349 . S
C794 H788 0.950 . S
C794 C795 1.327 . S
C795 H789 0.950 . S
C795 C794 1.327 . S
C795 C799 1.429 . S
C796 C779 1.574 . S
C796 H790 0.949 . S
C796 C800 1.368 . S
C797 C778 1.429 . S
C797 C791 1.429 . S
C797 C798 1.523 . S
C798 C779 1.368 . S
C798 C792 1.368 . S
C798 C797 1.523 . S
C799 C783 1.429 . S
C799 C795 1.429 . S
C799 C800 1.523 . S
C800 C784 1.368 . S
C800 C796 1.368 . S
C800 C799 1.523 . S
H801 C776 0.950 . S
H802 C778 0.950 . S
H803 C779 0.949 . S
H804 C781 0.950 . S
H805 C783 0.950 . S
C806 C807 1.349 . S
C806 C808 1.327 . S
C806 H831 0.950 . S
C807 C806 1.349 . S
C807 C823 1.349 . S
C808 C806 1.327 . S
C808 C827 1.429 . S
C808 H832 0.950 . S
C809 C826 1.574 1_554 S
C809 C828 1.368 . S
C809 H833 0.949 . S
H810 C814 0.949 . S
C811 C812 1.349 . S
C811 C813 1.327 . S
C811 H834 0.950 . S
C812 C811 1.349 . S
C812 C824 1.349 . S
C813 C811 1.327 . S
C813 C829 1.429 . S
C813 H835 0.950 . S
C814 H810 0.949 . S
C814 C822 1.574 . S
C814 C830 1.368 1_554 S
H815 C823 0.950 1_655 S
H816 C821 0.950 . S
H817 C822 0.949 . S
H818 C824 0.950 . S
H819 C825 0.950 1_554 S
H820 C826 0.949 . S
C821 H816 0.950 . S
C821 C823 1.327 . S
C821 C827 1.429 . S
C822 C814 1.574 . S
C822 H817 0.949 . S
C822 C828 1.368 . S
C823 C807 1.349 . S
C823 H815 0.950 1_455 S
C823 C821 1.327 . S
C824 C812 1.349 . S
C824 H818 0.950 . S
C824 C825 1.327 . S
C825 H819 0.950 1_556 S
C825 C824 1.327 . S
C825 C829 1.429 . S
C826 C809 1.574 1_556 S
C826 H820 0.949 . S
C826 C830 1.368 . S
C827 C808 1.429 . S
C827 C821 1.429 . S
C827 C828 1.523 . S
C828 C809 1.368 . S
C828 C822 1.368 . S
C828 C827 1.523 . S
C829 C813 1.429 . S
C829 C825 1.429 . S
C829 C830 1.523 . S
C830 C814 1.368 1_556 S
C830 C826 1.368 . S
C830 C829 1.523 . S
H831 C806 0.950 . S
H832 C808 0.950 . S
H833 C809 0.949 . S
H834 C811 0.950 . S
H835 C813 0.950 . S
C836 C837 1.349 . S
C836 C838 1.327 . S
C836 H861 0.950 1_655 S
C837 C836 1.349 . S
C837 C853 1.349 . S
C838 C836 1.327 . S
C838 C857 1.429 . S
C838 H862 0.950 . S
C839 C856 1.574 . S
C839 C858 1.368 . S
C839 H863 0.949 . S
H840 C844 0.949 . S
C841 C842 1.349 . S
C841 C843 1.327 . S
C841 H864 0.950 . S
C842 C841 1.349 . S
C842 C854 1.349 . S
C843 C841 1.327 . S
C843 C859 1.429 . S
C843 H865 0.950 . S
C844 H840 0.949 . S
C844 C852 1.574 . S
C844 C860 1.368 . S
H845 C853 0.950 . S
H846 C851 0.950 . S
H847 C852 0.949 . S
H848 C854 0.950 . S
H849 C855 0.950 . S
H850 C856 0.949 . S
C851 H846 0.950 . S
C851 C853 1.327 . S
C851 C857 1.429 . S
C852 C844 1.574 . S
C852 H847 0.949 . S
C852 C858 1.368 . S
C853 C837 1.349 . S
C853 H845 0.950 . S
C853 C851 1.327 . S
C854 C842 1.349 . S
C854 H848 0.950 . S
C854 C855 1.327 . S
C855 H849 0.950 . S
C855 C854 1.327 . S
C855 C859 1.429 . S
C856 C839 1.574 . S
C856 H850 0.949 . S
C856 C860 1.368 . S
C857 C838 1.429 . S
C857 C851 1.429 . S
C857 C858 1.523 . S
C858 C839 1.368 . S
C858 C852 1.368 . S
C858 C857 1.523 . S
C859 C843 1.429 . S
C859 C855 1.429 . S
C859 C860 1.523 . S
C860 C844 1.368 . S
C860 C856 1.368 . S
C860 C859 1.523 . S
H861 C836 0.950 1_455 S
H862 C838 0.950 . S
H863 C839 0.949 . S
H864 C841 0.950 . S
H865 C843 0.950 . S
C866 C867 1.349 . S
C866 C868 1.327 . S
C866 H891 0.950 . S
C867 C866 1.349 . S
C867 C883 1.349 . S
C868 C866 1.327 . S
C868 C887 1.429 . S
C868 H892 0.950 . S
C869 C886 1.574 . S
C869 C888 1.368 1_556 S
C869 H893 0.949 . S
H870 C874 0.949 . S
C871 C872 1.349 . S
C871 C873 1.327 . S
C871 H894 0.950 . S
C872 C871 1.349 . S
C872 C884 1.349 . S
C873 C871 1.327 . S
C873 C889 1.429 . S
C873 H895 0.950 . S
C874 H870 0.949 . S
C874 C882 1.574 1_556 S
C874 C890 1.368 . S
H875 C883 0.950 . S
H876 C881 0.945 1_556 S
H877 C882 0.949 . S
H878 C884 0.950 . S
H879 C885 0.950 . S
H880 C886 0.949 . S
C881 H876 0.945 1_554 S
C881 C883 1.327 . S
C881 C887 1.429 . S
C882 C874 1.574 1_554 S
C882 H877 0.949 . S
C882 C888 1.368 . S
C883 C867 1.349 . S
C883 H875 0.950 . S
C883 C881 1.327 . S
C884 C872 1.349 . S
C884 H878 0.950 . S
C884 C885 1.327 . S
C885 H879 0.950 . S
C885 C884 1.327 . S
C885 C889 1.429 . S
C886 C869 1.574 . S
C886 H880 0.949 . S
C886 C890 1.368 . S
C887 C868 1.429 . S
C887 C881 1.429 . S
C887 C888 1.523 . S
C888 C869 1.368 1_554 S
C888 C882 1.368 . S
C888 C887 1.523 . S
C889 C873 1.429 . S
C889 C885 1.429 . S
C889 C890 1.523 . S
C890 C874 1.368 . S
C890 C886 1.368 . S
C890 C889 1.523 . S
H891 C866 0.950 . S
H892 C868 0.950 . S
H893 C869 0.949 . S
H894 C871 0.950 . S
H895 C873 0.950 . S
C177 C140 1.587 . S
C182 C5 1.505 . S
C207 C27 1.505 . S
C212 C162 1.587 . S
C237 C96 1.587 . S
C242 C49 1.505 . S
C267 C75 1.505 . S
C272 C114 1.587 . S
C297 C52 1.587 . S
C302 C94 1.505 . S
C327 C117 1.505 . S
C332 C70 1.587 . S
C357 C8 1.587 . S
C362 C138 1.505 . S
C387 C30 1.587 . S
C392 C160 1.505 . S
C417 C9 0.904 . S
C422 C95 0.904 . S
C447 C116 0.904 . S
C452 C31 0.904 . S
C477 C53 0.904 . S
C482 C139 0.904 . S
C507 C161 0.904 . S
C512 C71 0.904 . S
C537 C74 1.527 . S
C542 C4 1.527 . S
C567 C26 1.527 . S
C572 C48 1.527 . S
C597 C158 1.527 . S
C602 C92 1.527 . S
C627 C118 1.527 . S
C632 C136 1.527 . S
C657 C6 1.239 . S
C662 C51 1.298 . S
C687 C28 1.239 1_655 S
C692 C72 1.298 . S
C717 C50 1.239 1_455 S
C722 C7 1.298 . S
C747 C73 1.239 . S
C752 C29 1.298 . S
C777 C93 1.239 . S
C782 C141 1.298 . S
C807 C119 1.239 1_455 S
C812 C163 1.298 . S
C837 C137 1.239 1_655 S
C842 C97 1.298 . S
C867 C115 1.298 . S
C872 C159 1.239 . S
