# Generated by pormake.
# Topology uki, (4)-cn, num edge types: 1
# Building blocks:
#     Node 0, Type 0, BuildingBlock: GALJAG_clean_sbu_0, # of connection points: 4
#     Node 1, Type 0, BuildingBlock: GALJAG_clean_sbu_0, # of connection points: 4
#     Node 2, Type 0, BuildingBlock: GALJAG_clean_sbu_0, # of connection points: 4
#     Node 3, Type 0, BuildingBlock: GALJAG_clean_sbu_0, # of connection points: 4
#     Node 4, Type 0, BuildingBlock: GALJAG_clean_sbu_0, # of connection points: 4
#     Node 5, Type 0, BuildingBlock: GALJAG_clean_sbu_0, # of connection points: 4
#     Node 6, Type 0, BuildingBlock: GALJAG_clean_sbu_0, # of connection points: 4
#     Node 7, Type 0, BuildingBlock: GALJAG_clean_sbu_0, # of connection points: 4
#     Node 8, Type 0, BuildingBlock: GALJAG_clean_sbu_0, # of connection points: 4
#     Node 9, Type 0, BuildingBlock: GALJAG_clean_sbu_0, # of connection points: 4
#     Node 10, Type 0, BuildingBlock: GALJAG_clean_sbu_0, # of connection points: 4
#     Node 11, Type 0, BuildingBlock: GALJAG_clean_sbu_0, # of connection points: 4
#     Node 12, Type 0, BuildingBlock: GALJAG_clean_sbu_0, # of connection points: 4
#     Node 13, Type 0, BuildingBlock: GALJAG_clean_sbu_0, # of connection points: 4
#     Node 14, Type 0, BuildingBlock: GALJAG_clean_sbu_0, # of connection points: 4
#     Node 15, Type 0, BuildingBlock: GALJAG_clean_sbu_0, # of connection points: 4
#     Edge 16, Type (0, 0), BuildingBlock: EZIPEK_clean_linker_0, # of connection points: 2
#     Edge 17, Type (0, 0), BuildingBlock: EZIPEK_clean_linker_0, # of connection points: 2
#     Edge 18, Type (0, 0), BuildingBlock: EZIPEK_clean_linker_0, # of connection points: 2
#     Edge 19, Type (0, 0), BuildingBlock: EZIPEK_clean_linker_0, # of connection points: 2
#     Edge 20, Type (0, 0), BuildingBlock: EZIPEK_clean_linker_0, # of connection points: 2
#     Edge 21, Type (0, 0), BuildingBlock: EZIPEK_clean_linker_0, # of connection points: 2
#     Edge 22, Type (0, 0), BuildingBlock: EZIPEK_clean_linker_0, # of connection points: 2
#     Edge 23, Type (0, 0), BuildingBlock: EZIPEK_clean_linker_0, # of connection points: 2
#     Edge 24, Type (0, 0), BuildingBlock: EZIPEK_clean_linker_0, # of connection points: 2
#     Edge 25, Type (0, 0), BuildingBlock: EZIPEK_clean_linker_0, # of connection points: 2
#     Edge 26, Type (0, 0), BuildingBlock: EZIPEK_clean_linker_0, # of connection points: 2
#     Edge 27, Type (0, 0), BuildingBlock: EZIPEK_clean_linker_0, # of connection points: 2
#     Edge 28, Type (0, 0), BuildingBlock: EZIPEK_clean_linker_0, # of connection points: 2
#     Edge 29, Type (0, 0), BuildingBlock: EZIPEK_clean_linker_0, # of connection points: 2
#     Edge 30, Type (0, 0), BuildingBlock: EZIPEK_clean_linker_0, # of connection points: 2
#     Edge 31, Type (0, 0), BuildingBlock: EZIPEK_clean_linker_0, # of connection points: 2
#     Edge 32, Type (0, 0), BuildingBlock: EZIPEK_clean_linker_0, # of connection points: 2
#     Edge 33, Type (0, 0), BuildingBlock: EZIPEK_clean_linker_0, # of connection points: 2
#     Edge 34, Type (0, 0), BuildingBlock: EZIPEK_clean_linker_0, # of connection points: 2
#     Edge 35, Type (0, 0), BuildingBlock: EZIPEK_clean_linker_0, # of connection points: 2
#     Edge 36, Type (0, 0), BuildingBlock: EZIPEK_clean_linker_0, # of connection points: 2
#     Edge 37, Type (0, 0), BuildingBlock: EZIPEK_clean_linker_0, # of connection points: 2
#     Edge 38, Type (0, 0), BuildingBlock: EZIPEK_clean_linker_0, # of connection points: 2
#     Edge 39, Type (0, 0), BuildingBlock: EZIPEK_clean_linker_0, # of connection points: 2
#     Edge 40, Type (0, 0), BuildingBlock: EZIPEK_clean_linker_0, # of connection points: 2
#     Edge 41, Type (0, 0), BuildingBlock: EZIPEK_clean_linker_0, # of connection points: 2
#     Edge 42, Type (0, 0), BuildingBlock: EZIPEK_clean_linker_0, # of connection points: 2
#     Edge 43, Type (0, 0), BuildingBlock: EZIPEK_clean_linker_0, # of connection points: 2
#     Edge 44, Type (0, 0), BuildingBlock: EZIPEK_clean_linker_0, # of connection points: 2
#     Edge 45, Type (0, 0), BuildingBlock: EZIPEK_clean_linker_0, # of connection points: 2
#     Edge 46, Type (0, 0), BuildingBlock: EZIPEK_clean_linker_0, # of connection points: 2
#     Edge 47, Type (0, 0), BuildingBlock: EZIPEK_clean_linker_0, # of connection points: 2
# Relax obj value: 0.105
# Max RMSD: 0.179
# Mean RMSD: 0.179
data_MOF--net-uki--node1-GALJAG_clean_sbu_0--edge1-EZIPEK_clean_linker_0
_symmetry_space_group_name_H-M    P1
_symmetry_Int_Tables_number       1
_symmetry_cell_setting            triclinic
loop_
_symmetry_equiv_pos_as_xyz
'x, y, z'
_cell_length_a     22.384152
_cell_length_b     22.40099
_cell_length_c     56.096446
_cell_angle_alpha  89.933684
_cell_angle_beta   90.10398
_cell_angle_gamma 90.073213
loop_
_atom_site_label
_atom_site_type_symbol
_atom_site_fract_x
_atom_site_fract_y
_atom_site_fract_z
_atom_type_partial_charge
In0 In 0.08396 0.23725 0.30203 0.0
O1 O 0.11546 0.27812 0.33765 0.0
O2 O 0.17135 0.21496 0.32049 0.0
C3 C 0.97816 0.29347 0.29691 0.0
C4 C 0.04865 0.12291 0.30229 0.0
C5 C 0.1306 0.27644 0.26097 0.0
O6 O 0.02587 0.31301 0.28809 0.0
O7 O 0.98465 0.25 0.31093 0.0
O8 O 0.10374 0.22682 0.26218 0.0
O9 O 0.13564 0.30439 0.2804 0.0
C10 C 0.16373 0.24901 0.33802 0.0
O11 O 0.09009 0.14112 0.2888 0.0
O12 O 0.02648 0.16193 0.31579 0.0
In13 In 0.21455 0.89904 0.70213 0.0
O14 O 0.24991 0.88463 0.66424 0.0
O15 O 0.19417 0.81774 0.67997 0.0
C16 C 0.25701 -0.00067 0.72162 0.0
C17 C 0.10323 0.93883 0.69701 0.0
C18 C 0.27431 0.82964 0.73274 0.0
O19 O 0.2792 0.97857 0.70254 0.0
O20 O 0.21319 0.9705 0.72988 0.0
O21 O 0.21792 0.83378 0.73383 0.0
O22 O 0.29876 0.85886 0.71618 0.0
C23 C 0.22452 0.83424 0.66222 0.0
O24 O 0.11561 0.89457 0.71025 0.0
O25 O 0.1468 0.96125 0.68581 0.0
In26 In 0.90986 0.77212 0.29919 0.0
O27 O 0.90692 0.86941 0.28768 0.0
O28 O 0.96885 0.8442 0.31486 0.0
C29 C 0.85731 0.71364 0.26316 0.0
C30 C 0.83265 0.76512 0.33585 0.0
C31 C 0.01446 0.71933 0.29074 0.0
O32 O 0.86407 0.76964 0.26258 0.0
O33 O 0.87452 0.68838 0.28203 0.0
O34 O 0.98426 0.7065 0.30913 0.0
O35 O 0.99323 0.76005 0.27775 0.0
C36 C 0.94848 0.88504 0.30164 0.0
O37 O 0.88372 0.74124 0.33667 0.0
O38 O 0.82069 0.79222 0.31672 0.0
In39 In 0.75545 0.08145 0.69828 0.0
O40 O 0.85225 0.08519 0.71002 0.0
O41 O 0.82935 0.02868 0.6807 0.0
C42 C 0.69791 0.13104 0.73515 0.0
C43 C 0.74297 0.16047 0.66224 0.0
C44 C 0.71228 0.97206 0.70662 0.0
O45 O 0.75426 0.12944 0.7343 0.0
O46 O 0.6713 0.10998 0.71722 0.0
O47 O 0.69709 0.00105 0.68817 0.0
O48 O 0.74972 -0.0025 0.71997 0.0
C49 C 0.86916 0.04696 0.69491 0.0
O50 O 0.7156 0.11108 0.66249 0.0
O51 O 0.77603 0.16981 0.68008 0.0
In52 In 0.07507 0.27176 0.95431 0.0
O53 O 0.10546 0.23703 0.91788 0.0
O54 O 0.16266 0.29673 0.93692 0.0
C55 C 0.96843 0.22531 0.96467 0.0
C56 C 0.03818 0.38457 0.95016 0.0
C57 C 0.13376 0.20923 0.98738 0.0
O58 O 0.99328 0.21519 0.94478 0.0
O59 O -0.00299 0.25875 0.97874 0.0
O60 O 0.12533 0.26476 0.98983 0.0
O61 O 0.11377 0.1866 0.96839 0.0
C62 C 0.15459 0.26512 0.91861 0.0
O63 O 0.07761 0.36928 0.96518 0.0
O64 O 0.01882 0.34322 0.93697 0.0
In65 In 0.26538 0.90501 0.05032 0.0
O66 O 0.23082 0.88064 0.08763 0.0
O67 O 0.26731 0.81185 0.06577 0.0
C68 C 0.23513 0.01927 0.04184 0.0
C69 C 0.38336 0.91546 0.0575 0.0
C70 C 0.20741 0.86457 0.01165 0.0
O71 O 0.19848 0.98253 0.05075 0.0
O72 O 0.28769 0.00016 0.04011 0.0
O73 O 0.26393 0.86648 0.01229 0.0
O74 O 0.18152 0.8812 0.03041 0.0
C75 C 0.24484 0.82615 0.08554 0.0
O76 O 0.36162 0.89161 0.03889 0.0
O77 O 0.34456 0.93525 0.07184 0.0
In78 In 0.9102 0.73867 0.94774 0.0
O79 O 0.90222 0.6423 0.95978 0.0
O80 O 0.96411 0.66278 0.93206 0.0
C81 C 0.863 0.79834 0.98449 0.0
C82 C 0.82883 0.74698 0.91233 0.0
C83 C 0.0196 0.78394 0.95448 0.0
O84 O 0.8681 0.74223 0.98476 0.0
O85 O 0.87982 0.82371 0.96558 0.0
O86 O 0.9888 0.79826 0.93637 0.0
O87 O -0.00413 0.74639 0.96827 0.0
C88 C 0.9423 0.6238 0.94579 0.0
O89 O 0.88007 0.77038 0.91062 0.0
O90 O 0.8189 0.72014 0.93167 0.0
In91 In 0.71987 0.0792 0.05477 0.0
O92 O 0.62294 0.06875 0.04284 0.0
O93 O 0.65271 0.02063 0.07359 0.0
C94 C 0.77918 0.13404 0.01961 0.0
C95 C 0.72565 0.15965 0.09021 0.0
C96 C 0.7715 0.97523 0.04494 0.0
O97 O 0.72271 0.13029 0.01928 0.0
O98 O 0.80439 0.11251 0.03779 0.0
O99 O 0.78411 0.003 0.064 0.0
O100 O 0.73268 -0.0008 0.03179 0.0
C101 C 0.61108 0.03092 0.05895 0.0
O102 O 0.75413 0.11095 0.091 0.0
O103 O 0.69407 0.16734 0.07179 0.0
In104 In 0.58338 0.71492 0.79846 0.0
O105 O 0.60292 0.75151 0.8359 0.0
O106 O 0.67453 0.71398 0.81565 0.0
C107 C 0.4697 0.73437 0.78524 0.0
C108 C 0.5743 0.59798 0.80736 0.0
C109 C 0.62771 0.78054 0.76269 0.0
O110 O 0.49678 0.76985 0.79919 0.0
O111 O 0.49815 0.68773 0.78014 0.0
O112 O 0.63037 0.72403 0.76231 0.0
O113 O 0.60447 0.80277 0.7811 0.0
C114 C 0.65779 0.73761 0.83492 0.0
O115 O 0.60205 0.61823 0.78936 0.0
O116 O 0.55059 0.63769 0.82029 0.0
In117 In 0.72444 0.41649 0.201 0.0
O118 O 0.75378 0.38735 0.16368 0.0
O119 O 0.70706 0.32476 0.18546 0.0
C120 C 0.76864 0.52562 0.20792 0.0
C121 C 0.60926 0.44717 0.19764 0.0
C122 C 0.78858 0.37031 0.23689 0.0
O123 O 0.78261 0.49557 0.18962 0.0
O124 O 0.73156 0.50136 0.22178 0.0
O125 O 0.7325 0.37586 0.23832 0.0
O126 O 0.81147 0.38574 0.21731 0.0
C127 C 0.73162 0.33562 0.16571 0.0
O128 O 0.62718 0.40782 0.21218 0.0
O129 O 0.64918 0.46956 0.18454 0.0
In130 In 0.41506 0.25983 0.80923 0.0
O131 O 0.42351 0.35468 0.79479 0.0
O132 O 0.47115 0.33076 0.82657 0.0
C133 C 0.35651 0.18868 0.77905 0.0
C134 C 0.33613 0.25883 0.84519 0.0
C135 C 0.52005 0.21414 0.7971 0.0
O136 O 0.35415 0.24504 0.77687 0.0
O137 O 0.38696 0.16981 0.79647 0.0
O138 O 0.498 0.20404 0.81758 0.0
O139 O 0.48936 0.24674 0.78342 0.0
C140 C 0.46056 0.36972 0.81085 0.0
O141 O 0.38624 0.2328 0.84687 0.0
O142 O 0.32683 0.28563 0.82572 0.0
In143 In 0.25214 0.5687 0.19621 0.0
O144 O 0.34858 0.57585 0.20847 0.0
O145 O 0.32818 0.5154 0.18024 0.0
C146 C 0.19097 0.61768 0.2322 0.0
C147 C 0.24303 0.64998 0.16096 0.0
C148 C 0.20809 0.45913 0.2031 0.0
O149 O 0.24708 0.61209 0.23297 0.0
O150 O 0.16636 0.60001 0.21323 0.0
O151 O 0.19617 0.48809 0.18426 0.0
O152 O 0.24233 0.485 0.21765 0.0
C153 C 0.36717 0.53652 0.19416 0.0
O154 O 0.21784 0.59954 0.15961 0.0
O155 O 0.27241 0.65898 0.1798 0.0
In156 In 0.5844 0.77002 0.44969 0.0
O157 O 0.59273 0.86759 0.46036 0.0
O158 O 0.52908 0.84415 0.43359 0.0
C159 C 0.63079 0.70978 0.48673 0.0
C160 C 0.66402 0.76189 0.41392 0.0
C161 C 0.47544 0.72447 0.45594 0.0
O162 O 0.62399 0.76573 0.48732 0.0
O163 O 0.61638 0.68503 0.46738 0.0
O164 O 0.50668 0.71025 0.438 0.0
O165 O 0.49857 0.76221 0.46982 0.0
C166 C 0.55171 0.88456 0.44639 0.0
O167 O 0.61287 0.73815 0.41264 0.0
O168 O 0.67514 0.78858 0.43321 0.0
In169 In 0.76328 0.41503 0.55058 0.0
O170 O 0.71288 0.38038 0.58348 0.0
O171 O 0.78986 0.33304 0.57207 0.0
C172 C 0.71376 0.52239 0.54308 0.0
C173 C 0.87669 0.452 0.55324 0.0
C174 C 0.71635 0.36057 0.51242 0.0
O175 O 0.74105 0.49326 0.52736 0.0
O176 O 0.7113 0.4979 0.5634 0.0
O177 O 0.77146 0.37171 0.51381 0.0
O178 O 0.68584 0.37468 0.53042 0.0
C179 C 0.74762 0.33678 0.5868 0.0
O180 O 0.8608 0.40913 0.54008 0.0
O181 O 0.83596 0.47422 0.56596 0.0
In182 In 0.42378 0.23841 0.44773 0.0
O183 O 0.41691 0.14191 0.45993 0.0
O184 O 0.47508 0.16262 0.43094 0.0
C185 C 0.37719 0.30263 0.4833 0.0
C186 C 0.3419 0.24875 0.41289 0.0
C187 C 0.53435 0.27856 0.45493 0.0
O188 O 0.38054 0.24635 0.4844 0.0
O189 O 0.39583 0.32584 0.46419 0.0
O190 O 0.50673 0.29019 0.43572 0.0
O191 O 0.50641 0.24669 0.46972 0.0
C192 C 0.45515 0.12358 0.44507 0.0
O193 O 0.39313 0.27226 0.41115 0.0
O194 O 0.33239 0.2207 0.43202 0.0
In195 In 0.22727 0.59014 0.54726 0.0
O196 O 0.12973 0.59317 0.53603 0.0
O197 O 0.15502 0.53311 0.56384 0.0
C198 C 0.28598 0.63911 0.51062 0.0
C199 C 0.23312 0.67074 0.5827 0.0
C200 C 0.27951 0.48474 0.54007 0.0
O201 O 0.22998 0.63195 0.50998 0.0
O202 O 0.31114 0.62402 0.52981 0.0
O203 O 0.29319 0.51662 0.55792 0.0
O204 O 0.23831 0.50486 0.52701 0.0
C205 C 0.11401 0.553 0.5506 0.0
O206 O 0.25576 0.61931 0.58468 0.0
O207 O 0.2085 0.68153 0.56293 0.0
C208 C 0.20691 0.30907 0.23146 0.0
C209 C 0.14632 0.30572 0.23832 0.0
C210 C 0.12193 0.39306 0.21405 0.0
C211 C 0.18362 0.39969 0.20892 0.0
N212 N 0.28113 0.35564 0.20588 0.0
N213 N 0.04359 0.33 0.23034 0.0
C214 C 0.2248 0.35429 0.2152 0.0
C215 C 0.10286 0.34257 0.22737 0.0
N216 N 0.24741 0.27098 0.24149 0.0
N217 N 0.08257 0.43718 0.20803 0.0
H218 H 0.02893 0.29286 0.23994 0.0
H219 H 0.00949 0.35252 0.22148 0.0
H220 H 0.09454 0.47416 0.19781 0.0
H221 H 0.03869 0.43875 0.21412 0.0
H222 H 0.29343 0.27509 0.23944 0.0
H223 H 0.23443 0.23589 0.25262 0.0
H224 H 0.31252 0.32199 0.20842 0.0
H225 H 0.29447 0.38844 0.19374 0.0
C226 C 0.40666 0.73922 0.74801 0.0
C227 C 0.41274 0.74954 0.77301 0.0
C228 C 0.31626 0.80168 0.77308 0.0
C229 C 0.31112 0.79096 0.74826 0.0
N230 N 0.33859 0.73092 0.71461 0.0
N231 N 0.36527 0.77493 0.81023 0.0
C232 C 0.3519 0.75287 0.73672 0.0
C233 C 0.36492 0.77589 0.78588 0.0
N234 N 0.45419 0.7216 0.73442 0.0
N235 N 0.27644 0.83831 0.78422 0.0
H236 H 0.39916 0.75456 0.82008 0.0
H237 H 0.32926 0.7888 0.82056 0.0
H238 H 0.23867 0.85524 0.77571 0.0
H239 H 0.28239 0.85406 0.80153 0.0
H240 H 0.4526 0.71992 0.71587 0.0
H241 H 0.49732 0.71564 0.74088 0.0
H242 H 0.36434 0.69856 0.70614 0.0
H243 H 0.29819 0.74026 0.70604 0.0
C244 C 0.85737 0.58652 0.2202 0.0
C245 C 0.79577 0.58344 0.21434 0.0
C246 C 0.77691 0.67699 0.23559 0.0
C247 C 0.83771 0.67805 0.24249 0.0
N248 N 0.93889 0.64765 0.23485 0.0
N249 N 0.70105 0.63286 0.21004 0.0
C250 C 0.879 0.6374 0.23248 0.0
C251 C 0.75699 0.63151 0.21981 0.0
N252 N 0.89424 0.53917 0.21586 0.0
N253 N 0.73782 0.71703 0.24522 0.0
H254 H 0.68606 0.60003 0.19825 0.0
H255 H 0.67189 0.66875 0.2118 0.0
H256 H 0.75157 0.75173 0.25635 0.0
H257 H 0.69169 0.71431 0.24312 0.0
H258 H 0.93737 0.53593 0.22274 0.0
H259 H 0.88078 0.50115 0.20663 0.0
H260 H 0.97145 0.62236 0.2263 0.0
H261 H 0.95561 0.68547 0.24341 0.0
C262 C 0.58057 0.12759 0.78292 0.0
C263 C 0.57692 0.18908 0.78857 0.0
C264 C 0.66285 0.21108 0.76307 0.0
C265 C 0.66437 0.15014 0.75641 0.0
N266 N 0.63866 0.04798 0.76514 0.0
N267 N 0.62322 0.28583 0.79013 0.0
C268 C 0.62783 0.10754 0.76815 0.0
C269 C 0.62143 0.22958 0.78074 0.0
N270 N 0.53673 0.08922 0.79022 0.0
N271 N 0.69808 0.25163 0.75148 0.0
H272 H 0.59336 0.29975 0.80328 0.0
H273 H 0.65702 0.31652 0.7866 0.0
H274 H 0.72948 0.23938 0.73869 0.0
H275 H 0.69403 0.29762 0.75354 0.0
H276 H 0.53258 0.04564 0.784 0.0
H277 H 0.50237 0.10186 0.80166 0.0
H278 H 0.61691 0.01458 0.77472 0.0
H279 H 0.67371 0.03217 0.7547 0.0
C280 C 0.23648 0.08815 0.00636 0.0
C281 C 0.21596 0.0752 0.02988 0.0
C282 C 0.14568 0.15891 0.02725 0.0
C283 C 0.16823 0.17245 0.00428 0.0
N284 N 0.24738 0.16319 0.97563 0.0
N285 N 0.16227 0.10758 0.0648 0.0
C286 C 0.21818 0.1417 0.99523 0.0
C287 C 0.17408 0.11365 0.04104 0.0
N288 N 0.26863 0.04738 0.99354 0.0
N289 N 0.09554 0.1869 0.03539 0.0
H290 H 0.18359 0.07594 0.07549 0.0
H291 H 0.13604 0.13759 0.07432 0.0
H292 H 0.07435 0.221 0.02595 0.0
H293 H 0.07296 0.17378 0.05075 0.0
H294 H 0.27881 0.05316 0.97556 0.0
H295 H 0.27873 0.00454 0.99944 0.0
H296 H 0.28756 0.14544 0.96952 0.0
H297 H 0.23481 0.20274 0.96712 0.0
C298 C 0.13032 0.8912 0.9816 0.0
C299 C 0.1721 0.84878 0.99024 0.0
C300 C 0.12647 0.77211 0.96509 0.0
C301 C 0.0777 0.81098 0.96081 0.0
N302 N 0.03267 0.90843 0.96431 0.0
N303 N 0.21261 0.74916 0.98976 0.0
C304 C 0.08015 0.87137 0.96827 0.0
C305 C 0.17201 0.78958 0.98137 0.0
N306 N 0.13865 0.95042 0.98642 0.0
N307 N 0.12825 0.71821 0.95374 0.0
H308 H 0.24717 0.76075 0.00135 0.0
H309 H 0.21046 0.70361 0.9862 0.0
H310 H 0.09519 0.70508 0.94166 0.0
H311 H 0.16458 0.68931 0.95451 0.0
H312 H 0.11304 0.98437 0.97891 0.0
H313 H 0.17506 0.96586 0.99626 0.0
H314 H 0.02827 0.95024 0.9722 0.0
H315 H -0.00424 0.89626 0.95407 0.0
C316 C 0.88418 0.8758 0.01501 0.0
C317 C 0.84391 0.83325 0.00539 0.0
C318 C 0.76484 0.87061 0.03134 0.0
C319 C 0.8014 0.92031 0.03698 0.0
N320 N 0.89596 0.97181 0.03415 0.0
N321 N 0.74592 0.78841 0.00427 0.0
C322 C 0.86164 0.92276 0.02931 0.0
C323 C 0.7845 0.82913 0.01392 0.0
N324 N 0.94398 0.87089 0.01052 0.0
N325 N 0.71098 0.86409 0.0425 0.0
H326 H 0.75891 0.75701 0.9916 0.0
H327 H 0.70025 0.78785 0.00773 0.0
H328 H 0.69613 0.89418 0.0554 0.0
H329 H 0.68385 0.8266 0.04067 0.0
H330 H 0.97629 0.89749 0.01866 0.0
H331 H 0.96179 0.83609 0.00045 0.0
H332 H 0.93719 0.97979 0.02618 0.0
H333 H 0.88182 0.00648 0.04513 0.0
C334 C 0.85407 0.11534 0.98801 0.0
C335 C 0.81517 0.15612 0.99943 0.0
C336 C 0.86455 0.23918 0.97917 0.0
C337 C 0.91051 0.19961 0.97193 0.0
N338 N 0.95064 0.09971 0.96974 0.0
N339 N 0.78101 0.25667 0.00579 0.0
C340 C 0.90516 0.13732 0.9759 0.0
C341 C 0.81882 0.21801 0.99458 0.0
N342 N 0.84193 0.05558 0.98887 0.0
N343 N 0.86517 0.29695 0.9713 0.0
H344 H 0.7461 0.24227 0.01668 0.0
H345 H 0.7859 0.30287 0.00529 0.0
H346 H 0.89804 0.31312 0.95979 0.0
H347 H 0.83061 0.32705 0.97431 0.0
H348 H 0.86572 0.02365 0.97933 0.0
H349 H 0.80399 0.03865 0.99729 0.0
H350 H 0.95258 0.05516 0.97501 0.0
H351 H 0.9886 0.11375 0.96058 0.0
C352 C 0.70632 0.8206 0.73474 0.0
C353 C 0.64616 0.81942 0.74264 0.0
C354 C 0.6251 0.91238 0.72116 0.0
C355 C 0.68565 0.91457 0.71388 0.0
N356 N 0.77917 0.86434 0.70779 0.0
N357 N 0.54463 0.85326 0.7377 0.0
C358 C 0.72456 0.86611 0.71861 0.0
C359 C 0.60433 0.86168 0.73384 0.0
N360 N 0.74692 0.7812 0.74391 0.0
N361 N 0.58857 0.9605 0.71766 0.0
H362 H 0.52797 0.81681 0.74714 0.0
H363 H 0.51152 0.87907 0.72968 0.0
H364 H 0.60132 -0.00175 0.70807 0.0
H365 H 0.54674 0.9647 0.72558 0.0
H366 H 0.79273 0.78448 0.74102 0.0
H367 H 0.73543 0.74717 0.75572 0.0
H368 H 0.80792 0.82792 0.70881 0.0
H369 H 0.79315 0.8973 0.69585 0.0
C370 C 0.88563 0.26871 0.27347 0.0
C371 C 0.91976 0.31107 0.28672 0.0
C372 C 0.86013 0.39262 0.26997 0.0
C373 C 0.82623 0.35018 0.25693 0.0
N374 N 0.79543 0.24848 0.25083 0.0
N375 N 0.93148 0.41081 0.30185 0.0
C376 C 0.83491 0.28838 0.26044 0.0
C377 C 0.90418 0.37234 0.28637 0.0
N378 N 0.9044 0.21083 0.27142 0.0
N379 N 0.85151 0.45224 0.26605 0.0
H380 H 0.96343 0.39665 0.3142 0.0
H381 H 0.91893 0.45521 0.30395 0.0
H382 H 0.81739 0.46854 0.25516 0.0
H383 H 0.87967 0.48541 0.27263 0.0
H384 H 0.88556 0.1805 0.25952 0.0
H385 H 0.94197 0.19373 0.27993 0.0
H386 H 0.79596 0.20302 0.25477 0.0
H387 H 0.75862 0.26165 0.24068 0.0
C388 C 0.28685 0.04444 0.76042 0.0
C389 C 0.28324 0.04969 0.73526 0.0
C390 C 0.32902 0.14901 0.73802 0.0
C391 C 0.32493 0.14594 0.7633 0.0
N392 N 0.28106 0.09764 0.79759 0.0
N393 N 0.2895 0.11301 0.70042 0.0
C394 C 0.29764 0.09589 0.77417 0.0
C395 C 0.30098 0.10377 0.72405 0.0
N396 N 0.28368 0.98986 0.77125 0.0
N397 N 0.36183 0.19285 0.72729 0.0
H398 H 0.26754 0.08183 0.68976 0.0
H399 H 0.29652 0.15397 0.69205 0.0
H400 H 0.38432 0.22601 0.73673 0.0
H401 H 0.3711 0.19302 0.70909 0.0
H402 H 0.29073 0.98398 0.78948 0.0
H403 H 0.28229 0.95003 0.76169 0.0
H404 H 0.257 0.0633 0.80571 0.0
H405 H 0.28479 0.13619 0.80791 0.0
C406 C 0.0633 0.62641 0.27553 0.0
C407 C 0.06822 0.68668 0.28306 0.0
C408 C 0.16151 0.69852 0.26086 0.0
C409 C 0.15519 0.63914 0.25251 0.0
N410 N 0.11221 0.54123 0.25749 0.0
N411 N 0.12898 0.77383 0.28911 0.0
C412 C 0.11003 0.60127 0.26178 0.0
C413 C 0.12009 0.72046 0.27787 0.0
N414 N 0.01237 0.59453 0.27997 0.0
N415 N 0.20427 0.73511 0.2514 0.0
H416 H 0.09907 0.79029 0.30176 0.0
H417 H 0.16818 0.79864 0.2877 0.0
H418 H 0.23553 0.72069 0.23892 0.0
H419 H 0.2065 0.78076 0.25472 0.0
H420 H 0.00292 0.55357 0.27204 0.0
H421 H 0.97758 0.61042 0.29048 0.0
H422 H 0.08362 0.51046 0.26548 0.0
H423 H 0.14656 0.52143 0.24776 0.0
C424 C 0.7309 0.62605 0.52923 0.0
C425 C 0.69007 0.58217 0.53739 0.0
C426 C 0.60721 0.63447 0.51818 0.0
C427 C 0.64917 0.6741 0.50764 0.0
N428 N 0.74713 0.71848 0.50736 0.0
N429 N 0.58914 0.55208 0.54563 0.0
C430 C 0.70986 0.67386 0.51483 0.0
C431 C 0.6278 0.58934 0.53405 0.0
N432 N 0.79035 0.61972 0.53439 0.0
N433 N 0.54805 0.63905 0.51226 0.0
H434 H 0.60369 0.51894 0.55729 0.0
H435 H 0.5428 0.55636 0.54518 0.0
H436 H 0.53143 0.67407 0.50193 0.0
H437 H 0.5155 0.60825 0.51707 0.0
H438 H 0.82412 0.64533 0.5269 0.0
H439 H 0.80599 0.58716 0.54618 0.0
H440 H 0.79106 0.72361 0.51319 0.0
H441 H 0.73301 0.7532 0.49638 0.0
C442 C 0.68014 0.27765 0.48651 0.0
C443 C 0.68733 0.33945 0.49049 0.0
C444 C 0.60549 0.36265 0.46327 0.0
C445 C 0.59462 0.30052 0.46088 0.0
N446 N 0.63207 0.20005 0.46309 0.0
N447 N 0.67444 0.43974 0.47622 0.0
C448 C 0.6361 0.2584 0.47 0.0
C449 C 0.65604 0.38159 0.47649 0.0
N450 N 0.71303 0.23779 0.49948 0.0
N451 N 0.56528 0.40332 0.45478 0.0
H452 H 0.71252 0.45373 0.48541 0.0
H453 H 0.65631 0.47199 0.46499 0.0
H454 H 0.52817 0.39168 0.44462 0.0
H455 H 0.56706 0.44866 0.45893 0.0
H456 H 0.70524 0.19198 0.49947 0.0
H457 H 0.74708 0.25129 0.51101 0.0
H458 H 0.66314 0.16754 0.46782 0.0
H459 H 0.60027 0.18561 0.45075 0.0
C460 C 0.37158 0.43332 0.52529 0.0
C461 C 0.3114 0.42993 0.53308 0.0
C462 C 0.29756 0.3353 0.512 0.0
C463 C 0.35685 0.34003 0.50336 0.0
N464 N 0.45565 0.38166 0.50761 0.0
N465 N 0.22367 0.37081 0.54028 0.0
C466 C 0.39569 0.38519 0.51202 0.0
C467 C 0.27677 0.37817 0.52866 0.0
N468 N 0.40437 0.48401 0.52901 0.0
N469 N 0.25987 0.2927 0.50311 0.0
H470 H 0.20805 0.40181 0.55267 0.0
H471 H 0.19834 0.33182 0.53946 0.0
H472 H 0.27326 0.26049 0.49084 0.0
H473 H 0.21426 0.29157 0.50665 0.0
H474 H 0.44532 0.49217 0.52085 0.0
H475 H 0.38925 0.51981 0.53916 0.0
H476 H 0.48705 0.4103 0.51521 0.0
H477 H 0.4747 0.34626 0.49826 0.0
C478 C 0.4137 0.63623 0.468 0.0
C479 C 0.41718 0.69754 0.46181 0.0
C480 C 0.32291 0.71757 0.48236 0.0
C481 C 0.32172 0.65726 0.48981 0.0
N482 N 0.35218 0.5557 0.48326 0.0
N483 N 0.36797 0.79194 0.45643 0.0
C484 C 0.36253 0.61537 0.48032 0.0
C485 C 0.36891 0.73658 0.46667 0.0
N486 N 0.46093 0.59901 0.46392 0.0
N487 N 0.2825 0.75714 0.49142 0.0
H488 H 0.40123 0.80619 0.44469 0.0
H489 H 0.33206 0.82123 0.45775 0.0
H490 H 0.24741 0.74401 0.50246 0.0
H491 H 0.28524 0.80311 0.48891 0.0
H492 H 0.46397 0.55614 0.47103 0.0
H493 H 0.49898 0.61194 0.45459 0.0
H494 H 0.37758 0.52257 0.47513 0.0
H495 H 0.31422 0.53958 0.49192 0.0
C496 C 0.27554 0.30539 0.38442 0.0
C497 C 0.29702 0.25018 0.39346 0.0
C498 C 0.22395 0.19638 0.36909 0.0
C499 C 0.20702 0.25082 0.35805 0.0
N500 N 0.22323 0.35646 0.35248 0.0
N501 N 0.30031 0.14264 0.3907 0.0
C502 C 0.23443 0.30531 0.365 0.0
C503 C 0.27361 0.19551 0.38478 0.0
N504 N 0.29256 0.35776 0.39493 0.0
N505 N 0.19114 0.14575 0.36532 0.0
H506 H 0.33789 0.13993 0.40166 0.0
H507 H 0.28904 0.10209 0.38281 0.0
H508 H 0.15321 0.14486 0.35453 0.0
H509 H 0.1977 0.10632 0.37484 0.0
H510 H 0.27341 0.39883 0.39078 0.0
H511 H 0.32211 0.35964 0.40931 0.0
H512 H 0.24688 0.39601 0.35507 0.0
H513 H 0.1938 0.35819 0.33807 0.0
C514 C 0.286 0.73548 0.61266 0.0
C515 C 0.23185 0.71418 0.60256 0.0
C516 C 0.17466 0.78024 0.62874 0.0
C517 C 0.22825 0.79669 0.64057 0.0
N518 N 0.33425 0.78328 0.64636 0.0
N519 N 0.12412 0.70838 0.60363 0.0
C520 C 0.28391 0.77279 0.63317 0.0
C521 C 0.17598 0.73461 0.61123 0.0
N522 N 0.33934 0.72165 0.60221 0.0
N523 N 0.12258 0.80935 0.63384 0.0
H524 H 0.12289 0.67414 0.59107 0.0
H525 H 0.08268 0.7166 0.61135 0.0
H526 H 0.11983 0.8431 0.64655 0.0
H527 H 0.08348 0.80404 0.62397 0.0
H528 H 0.37977 0.74098 0.60722 0.0
H529 H 0.34262 0.69476 0.5871 0.0
H530 H 0.37463 0.76146 0.64343 0.0
H531 H 0.3346 0.81017 0.66152 0.0
C532 C 0.72923 0.70739 0.38468 0.0
C533 C 0.70676 0.762 0.39379 0.0
C534 C 0.77184 0.81803 0.36666 0.0
C535 C 0.79032 0.7636 0.3561 0.0
N536 N 0.77974 0.65687 0.35225 0.0
N537 N 0.69817 0.86917 0.39062 0.0
C538 C 0.76726 0.70828 0.36437 0.0
C539 C 0.7258 0.81734 0.38403 0.0
N540 N 0.71611 0.65489 0.39598 0.0
N541 N 0.79983 0.87027 0.36073 0.0
H542 H 0.66387 0.87074 0.40314 0.0
H543 H 0.70536 0.9099 0.38212 0.0
H544 H 0.83396 0.87276 0.34815 0.0
H545 H 0.79308 0.91024 0.36979 0.0
H546 H 0.73636 0.61443 0.39179 0.0
H547 H 0.68871 0.65248 0.41097 0.0
H548 H 0.75898 0.61621 0.35581 0.0
H549 H 0.80717 0.65572 0.33724 0.0
C550 C 0.74664 0.18721 0.61856 0.0
C551 C 0.73739 0.20469 0.64259 0.0
C552 C 0.73383 0.30977 0.63018 0.0
C553 C 0.73919 0.29186 0.60601 0.0
N554 N 0.73343 0.21269 0.57694 0.0
N555 N 0.70628 0.28089 0.67031 0.0
C556 C 0.74024 0.23027 0.60012 0.0
C557 C 0.72609 0.26551 0.64812 0.0
N558 N 0.76494 0.13055 0.6133 0.0
N559 N 0.73927 0.36859 0.63627 0.0
H560 H 0.69807 0.24955 0.68369 0.0
H561 H 0.69187 0.32374 0.67462 0.0
H562 H 0.74639 0.40249 0.62386 0.0
H563 H 0.74229 0.38314 0.65387 0.0
H564 H 0.77844 0.11765 0.5963 0.0
H565 H 0.77248 0.09791 0.6262 0.0
H566 H 0.72807 0.16822 0.57194 0.0
H567 H 0.72648 0.2428 0.563 0.0
C568 C 0.22717 0.20724 0.89342 0.0
C569 C 0.19986 0.26236 0.8994 0.0
C570 C 0.26819 0.31509 0.87255 0.0
C571 C 0.29128 0.25953 0.86466 0.0
N572 N 0.28562 0.15182 0.86467 0.0
N573 N 0.18712 0.36758 0.89175 0.0
C574 C 0.26898 0.20525 0.87433 0.0
C575 C 0.21839 0.31598 0.88816 0.0
N576 N 0.2152 0.15726 0.90659 0.0
N577 N 0.29541 0.36718 0.86594 0.0
H578 H 0.15019 0.3701 0.90297 0.0
H579 H 0.19426 0.40644 0.88194 0.0
H580 H 0.33274 0.36852 0.85491 0.0
H581 H 0.28477 0.40856 0.87323 0.0
H582 H 0.23881 0.11749 0.90478 0.0
H583 H 0.18531 0.15691 0.92083 0.0
H584 H 0.26557 0.11139 0.86918 0.0
H585 H 0.31581 0.14821 0.85063 0.0
C586 C 0.2969 0.71152 0.13069 0.0
C587 C 0.2421 0.69433 0.14136 0.0
C588 C 0.18776 0.76295 0.1149 0.0
C589 C 0.24308 0.78322 0.1056 0.0
N590 N 0.35077 0.78548 0.10774 0.0
N591 N 0.13623 0.70936 0.14643 0.0
C592 C 0.2978 0.75993 0.11438 0.0
C593 C 0.18762 0.72148 0.1342 0.0
N594 N 0.34785 0.67999 0.13542 0.0
N595 N 0.1355 0.78176 0.10476 0.0
H596 H 0.13445 0.67922 0.1606 0.0
H597 H 0.09642 0.73244 0.1438 0.0
H598 H 0.13405 0.8127 0.09085 0.0
H599 H 0.09393 0.76366 0.10891 0.0
H600 H 0.38766 0.68598 0.12613 0.0
H601 H 0.34908 0.64383 0.14711 0.0
H602 H 0.3916 0.775 0.11561 0.0
H603 H 0.35349 0.82129 0.09591 0.0
C604 C 0.76877 0.69009 0.8824 0.0
C605 C 0.78512 0.74587 0.89245 0.0
C606 C 0.71796 0.79747 0.86451 0.0
C607 C 0.69875 0.74131 0.85566 0.0
N608 N 0.69728 0.63392 0.85902 0.0
N609 N 0.76964 0.85197 0.89581 0.0
C610 C 0.72175 0.68755 0.86543 0.0
C611 C 0.75824 0.7995 0.88424 0.0
N612 N 0.79992 0.6397 0.88833 0.0
N613 N 0.69944 0.8487 0.85351 0.0
H614 H 0.79909 0.85509 0.9102 0.0
H615 H 0.74669 0.89147 0.8924 0.0
H616 H 0.66937 0.84879 0.83928 0.0
H617 H 0.71691 0.89072 0.85733 0.0
H618 H 0.79488 0.59908 0.87955 0.0
H619 H 0.83483 0.63952 0.90064 0.0
H620 H 0.7072 0.59381 0.86754 0.0
H621 H 0.66287 0.63 0.84658 0.0
C622 C 0.78309 0.23105 0.11621 0.0
C623 C 0.72788 0.20437 0.10965 0.0
C624 C 0.67512 0.26927 0.13773 0.0
C625 C 0.73079 0.29168 0.14598 0.0
N626 N 0.83845 0.28717 0.14589 0.0
N627 N 0.62263 0.19031 0.11703 0.0
C628 C 0.78506 0.27087 0.13596 0.0
C629 C 0.6742 0.22142 0.12117 0.0
N630 N 0.83318 0.22028 0.10299 0.0
N631 N 0.62297 0.29522 0.14501 0.0
H632 H 0.62015 0.15457 0.10521 0.0
H633 H 0.58375 0.19622 0.12692 0.0
H634 H 0.62147 0.3307 0.15699 0.0
H635 H 0.58153 0.28536 0.1375 0.0
H636 H 0.87314 0.24344 0.1053 0.0
H637 H 0.83347 0.19196 0.08824 0.0
H638 H 0.87913 0.26826 0.14104 0.0
H639 H 0.84174 0.31587 0.16046 0.0
C640 C 0.98353 0.97599 0.32362 0.0
C641 C 0.97408 0.94592 0.3017 0.0
C642 C 0.00943 0.03387 0.27997 0.0
C643 C 0.02549 0.06106 0.3019 0.0
N644 N 0.03985 0.05178 0.34446 0.0
N645 N 0.99289 0.94085 0.25928 0.0
C646 C 0.01602 0.03034 0.32372 0.0
C647 C 0.99122 0.97324 0.2799 0.0
N648 N 0.95953 0.95413 0.34425 0.0
N649 N 0.00853 0.06635 0.25932 0.0
H650 H 0.98282 0.89546 0.2585 0.0
H651 H 0.01075 0.95754 0.24346 0.0
H652 H 0.01879 0.1117 0.25857 0.0
H653 H 0.99126 0.04973 0.24339 0.0
H654 H 0.95994 0.97775 0.36025 0.0
H655 H 0.9338 0.91538 0.34493 0.0
H656 H 0.03937 0.02785 0.3604 0.0
H657 H 0.06565 0.09045 0.34524 0.0
C658 C 0.95242 -0.0029 0.71704 0.0
C659 C 0.92951 0.02057 0.69538 0.0
C660 C 0.01709 0.983 0.67416 0.0
C661 C 0.04313 0.96622 0.6963 0.0
N662 N 0.04133 0.97344 0.73938 0.0
N663 N 0.94518 0.04622 0.65407 0.0
C664 C 0.0125 0.97776 0.71794 0.0
C665 C 0.96327 0.01647 0.6741 0.0
N666 N 0.91637 0.99053 0.73652 0.0
N667 N 0.04228 0.96518 0.65318 0.0
H668 H 0.9068 0.07257 0.65351 0.0
H669 H 0.97132 0.04965 0.63878 0.0
H670 H 0.08095 0.93951 0.65234 0.0
H671 H 0.0216 0.9709 0.63668 0.0
H672 H 0.92991 0.96802 0.75188 0.0
H673 H 0.8711 0.00134 0.73649 0.0
H674 H 0.02206 0.9871 0.75537 0.0
H675 H 0.08654 0.96314 0.74101 0.0
C676 C -0.00343 0.47537 0.97018 0.0
C677 C 0.01367 0.44579 0.94892 0.0
C678 C 0.97516 0.52963 0.92545 0.0
C679 C 0.96583 0.56221 0.94679 0.0
N680 N 0.98343 0.57076 0.98928 0.0
N681 N 0.02976 0.45014 0.90631 0.0
C682 C 0.98092 0.5365 0.96915 0.0
C683 C 0.00588 0.47434 0.92651 0.0
N684 N 0.99239 0.44478 0.99121 0.0
N685 N 0.95291 0.55016 0.90428 0.0
H686 H 0.05392 0.41048 0.90625 0.0
H687 H 0.03076 0.47251 0.89002 0.0
H688 H 0.92886 0.58975 0.90275 0.0
H689 H 0.95307 0.52492 0.88869 0.0
H690 H 0.97461 0.46359 0.00663 0.0
H691 H -0.00013 0.39899 0.99265 0.0
H692 H -0.00024 0.5547 0.00547 0.0
H693 H 0.97609 0.61669 0.98928 0.0
C694 C 0.48919 0.92017 0.04167 0.0
C695 C 0.44837 0.92913 0.0606 0.0
C696 C 0.51863 -0.00276 0.0801 0.0
C697 C 0.55507 -0.00415 0.05946 0.0
N698 N 0.57774 0.95396 0.02079 0.0
N699 N 0.44053 0.9485 0.10268 0.0
C700 C 0.54128 0.95652 0.0403 0.0
C701 C 0.46786 0.95947 0.08136 0.0
N702 N 0.4811 0.87324 0.02646 0.0
N703 N 0.53069 0.03679 0.09801 0.0
H704 H 0.40804 0.91547 0.10462 0.0
H705 H 0.4557 0.96549 0.11888 0.0
H706 H 0.56731 0.06554 0.09772 0.0
H707 H 0.50169 0.04475 0.11214 0.0
H708 H 0.51116 0.86138 0.01317 0.0
H709 H 0.44867 0.84059 0.02939 0.0
H710 H 0.56614 0.93245 0.005 0.0
H711 H 0.61869 0.97587 0.01979 0.0
C712 C 0.53408 0.43922 0.7915 0.0
C713 C 0.49403 0.42664 0.81054 0.0
C714 C 0.529 0.51554 0.83171 0.0
C715 C 0.56084 0.53325 0.81107 0.0
N716 N 0.61859 0.49782 0.77784 0.0
N717 N 0.45082 0.45395 0.84837 0.0
C718 C 0.57069 0.49113 0.79267 0.0
C719 C 0.49142 0.46467 0.8307 0.0
N720 N 0.53712 0.40184 0.77229 0.0
N721 N 0.53821 0.54492 0.85272 0.0
H722 H 0.4221 0.41735 0.84824 0.0
H723 H 0.44193 0.48398 0.86206 0.0
H724 H 0.57054 0.57816 0.85452 0.0
H725 H 0.52031 0.53111 0.86894 0.0
H726 H 0.55938 0.41253 0.75657 0.0
H727 H 0.51474 0.36115 0.77138 0.0
H728 H 0.63104 0.46666 0.76505 0.0
H729 H 0.6514 0.53009 0.78075 0.0
C730 C 0.51638 0.48295 0.21814 0.0
C731 C 0.54668 0.46823 0.19674 0.0
C732 C 0.46173 0.50544 0.17353 0.0
C733 C 0.42895 0.51322 0.19493 0.0
N734 N 0.42039 0.49273 0.23717 0.0
N735 N 0.54258 0.45348 0.15406 0.0
C736 C 0.45483 0.4972 0.21715 0.0
C737 C 0.51779 0.47602 0.17439 0.0
N738 N 0.54662 0.48642 0.23929 0.0
N739 N 0.44074 0.5281 0.1525 0.0
H740 H 0.58274 0.43006 0.1539 0.0
H741 H 0.52023 0.45261 0.13775 0.0
H742 H 0.40061 0.55131 0.1511 0.0
H743 H 0.46602 0.5291 0.13692 0.0
H744 H 0.52716 0.50264 0.25485 0.0
H745 H 0.59255 0.47986 0.24079 0.0
H746 H 0.43659 0.4757 0.25323 0.0
H747 H 0.37428 0.49917 0.23712 0.0
C748 C 0.49839 0.03657 0.46726 0.0
C749 C 0.47913 0.06216 0.44541 0.0
C750 C 0.51727 0.9752 0.42396 0.0
C751 C 0.52853 0.94633 0.44605 0.0
N752 N 0.51446 0.94491 0.48886 0.0
N753 N 0.45985 0.05052 0.40326 0.0
C754 C 0.51485 0.97561 0.46779 0.0
C755 C 0.48564 0.03002 0.4238 0.0
N756 N 0.50394 0.07079 0.48731 0.0
N757 N 0.53862 0.95166 0.40319 0.0
H758 H 0.43468 0.08957 0.40248 0.0
H759 H 0.45825 0.0256 0.3876 0.0
H760 H 0.5638 0.91261 0.40255 0.0
H761 H 0.53675 0.97419 0.38695 0.0
H762 H 0.52333 0.0549 0.50299 0.0
H763 H 0.49586 0.11659 0.48756 0.0
H764 H 0.49915 0.96354 0.50474 0.0
H765 H 0.52259 0.89922 0.4901 0.0
C766 C 0.96891 0.48793 0.57413 0.0
C767 C 0.9376 0.47724 0.55258 0.0
C768 C 0.02454 0.51016 0.52975 0.0
C769 C 0.05282 0.52817 0.55124 0.0
N770 N 0.04625 0.54518 0.59371 0.0
N771 N 0.93044 0.49234 0.50993 0.0
C772 C 0.02345 0.52016 0.57343 0.0
C773 C 0.96385 0.49234 0.53035 0.0
N774 N 0.94797 0.46535 0.59517 0.0
N775 N 0.05607 0.50709 0.50893 0.0
H776 H 0.88495 0.48246 0.50959 0.0
H777 H 0.94647 0.50869 0.49373 0.0
H778 H 0.10158 0.51658 0.50778 0.0
H779 H 0.03856 0.48858 0.49338 0.0
H780 H 0.9723 0.46682 0.61099 0.0
H781 H 0.90917 0.43962 0.59634 0.0
H782 H 0.02327 0.54566 0.60986 0.0
H783 H 0.0851 0.57083 0.59392 0.0
loop_
_geom_bond_atom_site_label_1
_geom_bond_atom_site_label_2
_geom_bond_distance
_geom_bond_site_symmetry_2
_ccdc_geom_bond_type
In0 O1 2.294 . S
In0 O2 2.326 . S
In0 O6 2.266 1_455 S
In0 O7 2.326 . S
In0 O8 2.266 . S
In0 O9 2.326 . S
In0 O11 2.294 . S
In0 O12 2.326 . S
O1 In0 2.294 . S
O1 C10 1.240 . S
O2 In0 2.326 . S
O2 C10 1.252 . S
C3 O6 1.252 . S
C3 O7 1.260 1_655 S
C4 O11 1.240 . S
C4 O12 1.252 . S
C5 O8 1.252 . S
C5 O9 1.260 . S
O6 In0 2.266 1_655 S
O6 C3 1.252 . S
O7 In0 2.326 . S
O7 C3 1.260 1_455 S
O8 In0 2.266 . S
O8 C5 1.252 . S
O9 In0 2.326 . S
O9 C5 1.260 . S
C10 O1 1.240 . S
C10 O2 1.252 . S
O11 In0 2.294 . S
O11 C4 1.240 . S
O12 In0 2.326 . S
O12 C4 1.252 . S
In13 O14 2.294 . S
In13 O15 2.326 . S
In13 O19 2.266 1_565 S
In13 O20 2.326 . S
In13 O21 2.266 . S
In13 O22 2.326 . S
In13 O24 2.294 . S
In13 O25 2.326 . S
O14 In13 2.294 . S
O14 C23 1.240 . S
O15 In13 2.326 . S
O15 C23 1.252 . S
C16 O19 1.252 . S
C16 O20 1.260 1_545 S
C17 O24 1.240 . S
C17 O25 1.252 . S
C18 O21 1.252 . S
C18 O22 1.260 . S
O19 In13 2.266 1_545 S
O19 C16 1.252 . S
O20 In13 2.326 . S
O20 C16 1.260 1_565 S
O21 In13 2.266 . S
O21 C18 1.252 . S
O22 In13 2.326 . S
O22 C18 1.260 . S
C23 O14 1.240 . S
C23 O15 1.252 . S
O24 In13 2.294 . S
O24 C17 1.240 . S
O25 In13 2.326 . S
O25 C17 1.252 . S
In26 O27 2.294 . S
In26 O28 2.326 . S
In26 O32 2.266 . S
In26 O33 2.326 . S
In26 O34 2.266 1_655 S
In26 O35 2.326 . S
In26 O37 2.294 . S
In26 O38 2.326 . S
O27 In26 2.294 . S
O27 C36 1.240 . S
O28 In26 2.326 . S
O28 C36 1.252 . S
C29 O32 1.252 . S
C29 O33 1.260 . S
C30 O37 1.240 . S
C30 O38 1.252 . S
C31 O34 1.252 . S
C31 O35 1.260 1_455 S
O32 In26 2.266 . S
O32 C29 1.252 . S
O33 In26 2.326 . S
O33 C29 1.260 . S
O34 In26 2.266 1_455 S
O34 C31 1.252 . S
O35 In26 2.326 . S
O35 C31 1.260 1_655 S
C36 O27 1.240 . S
C36 O28 1.252 . S
O37 In26 2.294 . S
O37 C30 1.240 . S
O38 In26 2.326 . S
O38 C30 1.252 . S
In39 O40 2.294 . S
In39 O41 2.326 . S
In39 O45 2.266 . S
In39 O46 2.326 . S
In39 O47 2.266 1_545 S
In39 O48 2.326 . S
In39 O50 2.294 . S
In39 O51 2.326 . S
O40 In39 2.294 . S
O40 C49 1.240 . S
O41 In39 2.326 . S
O41 C49 1.252 . S
C42 O45 1.252 . S
C42 O46 1.260 . S
C43 O50 1.240 . S
C43 O51 1.252 . S
C44 O47 1.252 . S
C44 O48 1.260 1_565 S
O45 In39 2.266 . S
O45 C42 1.252 . S
O46 In39 2.326 . S
O46 C42 1.260 . S
O47 In39 2.266 1_565 S
O47 C44 1.252 . S
O48 In39 2.326 . S
O48 C44 1.260 1_545 S
C49 O40 1.240 . S
C49 O41 1.252 . S
O50 In39 2.294 . S
O50 C43 1.240 . S
O51 In39 2.326 . S
O51 C43 1.252 . S
In52 O53 2.294 . S
In52 O54 2.326 . S
In52 O58 2.266 1_455 S
In52 O59 2.326 . S
In52 O60 2.266 . S
In52 O61 2.326 . S
In52 O63 2.294 . S
In52 O64 2.326 . S
O53 In52 2.294 . S
O53 C62 1.240 . S
O54 In52 2.326 . S
O54 C62 1.252 . S
C55 O58 1.252 . S
C55 O59 1.260 1_655 S
C56 O63 1.240 . S
C56 O64 1.252 . S
C57 O60 1.252 . S
C57 O61 1.260 . S
O58 In52 2.266 1_655 S
O58 C55 1.252 . S
O59 In52 2.326 . S
O59 C55 1.260 1_455 S
O60 In52 2.266 . S
O60 C57 1.252 . S
O61 In52 2.326 . S
O61 C57 1.260 . S
C62 O53 1.240 . S
C62 O54 1.252 . S
O63 In52 2.294 . S
O63 C56 1.240 . S
O64 In52 2.326 . S
O64 C56 1.252 . S
In65 O66 2.294 . S
In65 O67 2.326 . S
In65 O71 2.266 1_565 S
In65 O72 2.326 . S
In65 O73 2.266 . S
In65 O74 2.326 . S
In65 O76 2.294 . S
In65 O77 2.326 . S
O66 In65 2.294 . S
O66 C75 1.240 . S
O67 In65 2.326 . S
O67 C75 1.252 . S
C68 O71 1.252 . S
C68 O72 1.260 1_545 S
C69 O76 1.240 . S
C69 O77 1.252 . S
C70 O73 1.252 . S
C70 O74 1.260 . S
O71 In65 2.266 1_545 S
O71 C68 1.252 . S
O72 In65 2.326 . S
O72 C68 1.260 1_565 S
O73 In65 2.266 . S
O73 C70 1.252 . S
O74 In65 2.326 . S
O74 C70 1.260 . S
C75 O66 1.240 . S
C75 O67 1.252 . S
O76 In65 2.294 . S
O76 C69 1.240 . S
O77 In65 2.326 . S
O77 C69 1.252 . S
In78 O79 2.294 . S
In78 O80 2.326 . S
In78 O84 2.266 . S
In78 O85 2.326 . S
In78 O86 2.266 1_655 S
In78 O87 2.326 . S
In78 O89 2.294 . S
In78 O90 2.326 . S
O79 In78 2.294 . S
O79 C88 1.240 . S
O80 In78 2.326 . S
O80 C88 1.252 . S
C81 O84 1.252 . S
C81 O85 1.260 . S
C82 O89 1.240 . S
C82 O90 1.252 . S
C83 O86 1.252 . S
C83 O87 1.260 1_455 S
O84 In78 2.266 . S
O84 C81 1.252 . S
O85 In78 2.326 . S
O85 C81 1.260 . S
O86 In78 2.266 1_455 S
O86 C83 1.252 . S
O87 In78 2.326 . S
O87 C83 1.260 1_655 S
C88 O79 1.240 . S
C88 O80 1.252 . S
O89 In78 2.294 . S
O89 C82 1.240 . S
O90 In78 2.326 . S
O90 C82 1.252 . S
In91 O92 2.294 . S
In91 O93 2.326 . S
In91 O97 2.266 . S
In91 O98 2.326 . S
In91 O99 2.266 1_545 S
In91 O100 2.326 . S
In91 O102 2.294 . S
In91 O103 2.326 . S
O92 In91 2.294 . S
O92 C101 1.240 . S
O93 In91 2.326 . S
O93 C101 1.252 . S
C94 O97 1.252 . S
C94 O98 1.260 . S
C95 O102 1.240 . S
C95 O103 1.252 . S
C96 O99 1.252 . S
C96 O100 1.260 1_565 S
O97 In91 2.266 . S
O97 C94 1.252 . S
O98 In91 2.326 . S
O98 C94 1.260 . S
O99 In91 2.266 1_565 S
O99 C96 1.252 . S
O100 In91 2.326 . S
O100 C96 1.260 1_545 S
C101 O92 1.240 . S
C101 O93 1.252 . S
O102 In91 2.294 . S
O102 C95 1.240 . S
O103 In91 2.326 . S
O103 C95 1.252 . S
In104 O105 2.294 . S
In104 O106 2.326 . S
In104 O110 2.266 . S
In104 O111 2.326 . S
In104 O112 2.266 . S
In104 O113 2.326 . S
In104 O115 2.294 . S
In104 O116 2.326 . S
O105 In104 2.294 . S
O105 C114 1.240 . S
O106 In104 2.326 . S
O106 C114 1.252 . S
C107 O110 1.252 . S
C107 O111 1.260 . S
C108 O115 1.240 . S
C108 O116 1.252 . S
C109 O112 1.252 . S
C109 O113 1.260 . S
O110 In104 2.266 . S
O110 C107 1.252 . S
O111 In104 2.326 . S
O111 C107 1.260 . S
O112 In104 2.266 . S
O112 C109 1.252 . S
O113 In104 2.326 . S
O113 C109 1.260 . S
C114 O105 1.240 . S
C114 O106 1.252 . S
O115 In104 2.294 . S
O115 C108 1.240 . S
O116 In104 2.326 . S
O116 C108 1.252 . S
In117 O118 2.294 . S
In117 O119 2.326 . S
In117 O123 2.266 . S
In117 O124 2.326 . S
In117 O125 2.266 . S
In117 O126 2.326 . S
In117 O128 2.294 . S
In117 O129 2.326 . S
O118 In117 2.294 . S
O118 C127 1.240 . S
O119 In117 2.326 . S
O119 C127 1.252 . S
C120 O123 1.252 . S
C120 O124 1.260 . S
C121 O128 1.240 . S
C121 O129 1.252 . S
C122 O125 1.252 . S
C122 O126 1.260 . S
O123 In117 2.266 . S
O123 C120 1.252 . S
O124 In117 2.326 . S
O124 C120 1.260 . S
O125 In117 2.266 . S
O125 C122 1.252 . S
O126 In117 2.326 . S
O126 C122 1.260 . S
C127 O118 1.240 . S
C127 O119 1.252 . S
O128 In117 2.294 . S
O128 C121 1.240 . S
O129 In117 2.326 . S
O129 C121 1.252 . S
In130 O131 2.294 . S
In130 O132 2.326 . S
In130 O136 2.266 . S
In130 O137 2.326 . S
In130 O138 2.266 . S
In130 O139 2.326 . S
In130 O141 2.294 . S
In130 O142 2.326 . S
O131 In130 2.294 . S
O131 C140 1.240 . S
O132 In130 2.326 . S
O132 C140 1.252 . S
C133 O136 1.252 . S
C133 O137 1.260 . S
C134 O141 1.240 . S
C134 O142 1.252 . S
C135 O138 1.252 . S
C135 O139 1.260 . S
O136 In130 2.266 . S
O136 C133 1.252 . S
O137 In130 2.326 . S
O137 C133 1.260 . S
O138 In130 2.266 . S
O138 C135 1.252 . S
O139 In130 2.326 . S
O139 C135 1.260 . S
C140 O131 1.240 . S
C140 O132 1.252 . S
O141 In130 2.294 . S
O141 C134 1.240 . S
O142 In130 2.326 . S
O142 C134 1.252 . S
In143 O144 2.294 . S
In143 O145 2.326 . S
In143 O149 2.266 . S
In143 O150 2.326 . S
In143 O151 2.266 . S
In143 O152 2.326 . S
In143 O154 2.294 . S
In143 O155 2.326 . S
O144 In143 2.294 . S
O144 C153 1.240 . S
O145 In143 2.326 . S
O145 C153 1.252 . S
C146 O149 1.252 . S
C146 O150 1.260 . S
C147 O154 1.240 . S
C147 O155 1.252 . S
C148 O151 1.252 . S
C148 O152 1.260 . S
O149 In143 2.266 . S
O149 C146 1.252 . S
O150 In143 2.326 . S
O150 C146 1.260 . S
O151 In143 2.266 . S
O151 C148 1.252 . S
O152 In143 2.326 . S
O152 C148 1.260 . S
C153 O144 1.240 . S
C153 O145 1.252 . S
O154 In143 2.294 . S
O154 C147 1.240 . S
O155 In143 2.326 . S
O155 C147 1.252 . S
In156 O157 2.294 . S
In156 O158 2.326 . S
In156 O162 2.266 . S
In156 O163 2.326 . S
In156 O164 2.266 . S
In156 O165 2.326 . S
In156 O167 2.294 . S
In156 O168 2.326 . S
O157 In156 2.294 . S
O157 C166 1.240 . S
O158 In156 2.326 . S
O158 C166 1.252 . S
C159 O162 1.252 . S
C159 O163 1.260 . S
C160 O167 1.240 . S
C160 O168 1.252 . S
C161 O164 1.252 . S
C161 O165 1.260 . S
O162 In156 2.266 . S
O162 C159 1.252 . S
O163 In156 2.326 . S
O163 C159 1.260 . S
O164 In156 2.266 . S
O164 C161 1.252 . S
O165 In156 2.326 . S
O165 C161 1.260 . S
C166 O157 1.240 . S
C166 O158 1.252 . S
O167 In156 2.294 . S
O167 C160 1.240 . S
O168 In156 2.326 . S
O168 C160 1.252 . S
In169 O170 2.294 . S
In169 O171 2.326 . S
In169 O175 2.266 . S
In169 O176 2.326 . S
In169 O177 2.266 . S
In169 O178 2.326 . S
In169 O180 2.294 . S
In169 O181 2.326 . S
O170 In169 2.294 . S
O170 C179 1.240 . S
O171 In169 2.326 . S
O171 C179 1.252 . S
C172 O175 1.252 . S
C172 O176 1.260 . S
C173 O180 1.240 . S
C173 O181 1.252 . S
C174 O177 1.252 . S
C174 O178 1.260 . S
O175 In169 2.266 . S
O175 C172 1.252 . S
O176 In169 2.326 . S
O176 C172 1.260 . S
O177 In169 2.266 . S
O177 C174 1.252 . S
O178 In169 2.326 . S
O178 C174 1.260 . S
C179 O170 1.240 . S
C179 O171 1.252 . S
O180 In169 2.294 . S
O180 C173 1.240 . S
O181 In169 2.326 . S
O181 C173 1.252 . S
In182 O183 2.294 . S
In182 O184 2.326 . S
In182 O188 2.266 . S
In182 O189 2.326 . S
In182 O190 2.266 . S
In182 O191 2.326 . S
In182 O193 2.294 . S
In182 O194 2.326 . S
O183 In182 2.294 . S
O183 C192 1.240 . S
O184 In182 2.326 . S
O184 C192 1.252 . S
C185 O188 1.252 . S
C185 O189 1.260 . S
C186 O193 1.240 . S
C186 O194 1.252 . S
C187 O190 1.252 . S
C187 O191 1.260 . S
O188 In182 2.266 . S
O188 C185 1.252 . S
O189 In182 2.326 . S
O189 C185 1.260 . S
O190 In182 2.266 . S
O190 C187 1.252 . S
O191 In182 2.326 . S
O191 C187 1.260 . S
C192 O183 1.240 . S
C192 O184 1.252 . S
O193 In182 2.294 . S
O193 C186 1.240 . S
O194 In182 2.326 . S
O194 C186 1.252 . S
In195 O196 2.294 . S
In195 O197 2.326 . S
In195 O201 2.266 . S
In195 O202 2.326 . S
In195 O203 2.266 . S
In195 O204 2.326 . S
In195 O206 2.294 . S
In195 O207 2.326 . S
O196 In195 2.294 . S
O196 C205 1.240 . S
O197 In195 2.326 . S
O197 C205 1.252 . S
C198 O201 1.252 . S
C198 O202 1.260 . S
C199 O206 1.240 . S
C199 O207 1.252 . S
C200 O203 1.252 . S
C200 O204 1.260 . S
O201 In195 2.266 . S
O201 C198 1.252 . S
O202 In195 2.326 . S
O202 C198 1.260 . S
O203 In195 2.266 . S
O203 C200 1.252 . S
O204 In195 2.326 . S
O204 C200 1.260 . S
C205 O196 1.240 . S
C205 O197 1.252 . S
O206 In195 2.294 . S
O206 C199 1.240 . S
O207 In195 2.326 . S
O207 C199 1.252 . S
C208 C209 1.363 . S
C208 C214 1.379 . S
C208 N216 1.356 . S
C209 C208 1.363 . S
C209 C215 1.363 . S
C210 C211 1.363 . S
C210 C215 1.379 . S
C210 N217 1.356 . S
C211 C210 1.363 . S
C211 C214 1.363 . S
N212 C214 1.356 . S
N212 H224 0.984 . S
N212 H225 0.985 . S
N213 C215 1.356 . S
N213 H218 0.984 . S
N213 H219 0.985 . S
C214 C208 1.379 . S
C214 C211 1.363 . S
C214 N212 1.356 . S
C215 C209 1.363 . S
C215 C210 1.379 . S
C215 N213 1.356 . S
N216 C208 1.356 . S
N216 H222 0.984 . S
N216 H223 0.984 . S
N217 C210 1.356 . S
N217 H220 0.984 . S
N217 H221 0.985 . S
H218 N213 0.984 . S
H219 N213 0.985 . S
H220 N217 0.984 . S
H221 N217 0.985 . S
H222 N216 0.984 . S
H223 N216 0.984 . S
H224 N212 0.984 . S
H225 N212 0.985 . S
C226 C227 1.363 . S
C226 C232 1.379 . S
C226 N234 1.356 . S
C227 C226 1.363 . S
C227 C233 1.363 . S
C228 C229 1.363 . S
C228 C233 1.379 . S
C228 N235 1.356 . S
C229 C228 1.363 . S
C229 C232 1.363 . S
N230 C232 1.356 . S
N230 H242 0.984 . S
N230 H243 0.985 . S
N231 C233 1.356 . S
N231 H236 0.984 . S
N231 H237 0.985 . S
C232 C226 1.379 . S
C232 C229 1.363 . S
C232 N230 1.356 . S
C233 C227 1.363 . S
C233 C228 1.379 . S
C233 N231 1.356 . S
N234 C226 1.356 . S
N234 H240 0.984 . S
N234 H241 0.984 . S
N235 C228 1.356 . S
N235 H238 0.984 . S
N235 H239 0.985 . S
H236 N231 0.984 . S
H237 N231 0.985 . S
H238 N235 0.984 . S
H239 N235 0.985 . S
H240 N234 0.984 . S
H241 N234 0.984 . S
H242 N230 0.984 . S
H243 N230 0.985 . S
C244 C245 1.363 . S
C244 C250 1.379 . S
C244 N252 1.356 . S
C245 C244 1.363 . S
C245 C251 1.363 . S
C246 C247 1.363 . S
C246 C251 1.379 . S
C246 N253 1.356 . S
C247 C246 1.363 . S
C247 C250 1.363 . S
N248 C250 1.356 . S
N248 H260 0.984 . S
N248 H261 0.985 . S
N249 C251 1.356 . S
N249 H254 0.984 . S
N249 H255 0.985 . S
C250 C244 1.379 . S
C250 C247 1.363 . S
C250 N248 1.356 . S
C251 C245 1.363 . S
C251 C246 1.379 . S
C251 N249 1.356 . S
N252 C244 1.356 . S
N252 H258 0.984 . S
N252 H259 0.984 . S
N253 C246 1.356 . S
N253 H256 0.984 . S
N253 H257 0.985 . S
H254 N249 0.984 . S
H255 N249 0.985 . S
H256 N253 0.984 . S
H257 N253 0.985 . S
H258 N252 0.984 . S
H259 N252 0.984 . S
H260 N248 0.984 . S
H261 N248 0.985 . S
C262 C263 1.363 . S
C262 C268 1.379 . S
C262 N270 1.356 . S
C263 C262 1.363 . S
C263 C269 1.363 . S
C264 C265 1.363 . S
C264 C269 1.379 . S
C264 N271 1.356 . S
C265 C264 1.363 . S
C265 C268 1.363 . S
N266 C268 1.356 . S
N266 H278 0.984 . S
N266 H279 0.985 . S
N267 C269 1.356 . S
N267 H272 0.984 . S
N267 H273 0.985 . S
C268 C262 1.379 . S
C268 C265 1.363 . S
C268 N266 1.356 . S
C269 C263 1.363 . S
C269 C264 1.379 . S
C269 N267 1.356 . S
N270 C262 1.356 . S
N270 H276 0.984 . S
N270 H277 0.984 . S
N271 C264 1.356 . S
N271 H274 0.984 . S
N271 H275 0.985 . S
H272 N267 0.984 . S
H273 N267 0.985 . S
H274 N271 0.984 . S
H275 N271 0.985 . S
H276 N270 0.984 . S
H277 N270 0.984 . S
H278 N266 0.984 . S
H279 N266 0.985 . S
C280 C281 1.363 . S
C280 C286 1.379 1_554 S
C280 N288 1.356 1_545 S
C281 C280 1.363 . S
C281 C287 1.363 . S
C282 C283 1.363 1_554 S
C282 C287 1.379 . S
C282 N289 1.356 . S
C283 C282 1.363 1_556 S
C283 C286 1.363 . S
N284 C286 1.356 . S
N284 H296 0.984 . S
N284 H297 0.985 . S
N285 C287 1.356 . S
N285 H290 0.984 . S
N285 H291 0.985 . S
C286 C280 1.379 1_556 S
C286 C283 1.363 . S
C286 N284 1.356 . S
C287 C281 1.363 . S
C287 C282 1.379 . S
C287 N285 1.356 . S
N288 C280 1.356 1_565 S
N288 H294 0.984 1_554 S
N288 H295 0.984 . S
N289 C282 1.356 . S
N289 H292 0.984 1_554 S
N289 H293 0.985 . S
H290 N285 0.984 . S
H291 N285 0.985 . S
H292 N289 0.984 1_556 S
H293 N289 0.985 . S
H294 N288 0.984 1_556 S
H295 N288 0.984 . S
H296 N284 0.984 . S
H297 N284 0.985 . S
C298 C299 1.363 . S
C298 C304 1.379 1_554 S
C298 N306 1.356 . S
C299 C298 1.363 . S
C299 C305 1.363 1_554 S
C300 C301 1.363 . S
C300 C305 1.379 . S
C300 N307 1.356 . S
C301 C300 1.363 . S
C301 C304 1.363 . S
N302 C304 1.356 1_655 S
N302 H314 0.984 . S
N302 H315 0.985 . S
N303 C305 1.356 . S
N303 H308 0.984 1_556 S
N303 H309 0.985 . S
C304 C298 1.379 1_556 S
C304 C301 1.363 . S
C304 N302 1.356 1_455 S
C305 C299 1.363 1_556 S
C305 C300 1.379 . S
C305 N303 1.356 . S
N306 C298 1.356 . S
N306 H312 0.984 . S
N306 H313 0.984 . S
N307 C300 1.356 . S
N307 H310 0.984 . S
N307 H311 0.985 . S
H308 N303 0.984 1_554 S
H309 N303 0.985 . S
H310 N307 0.984 . S
H311 N307 0.985 . S
H312 N306 0.984 . S
H313 N306 0.984 . S
H314 N302 0.984 . S
H315 N302 0.985 . S
C316 C317 1.363 1_554 S
C316 C322 1.379 . S
C316 N324 1.356 . S
C317 C316 1.363 1_556 S
C317 C323 1.363 . S
C318 C319 1.363 . S
C318 C323 1.379 1_554 S
C318 N325 1.356 . S
C319 C318 1.363 . S
C319 C322 1.363 . S
N320 C322 1.356 . S
N320 H332 0.984 . S
N320 H333 0.985 . S
N321 C323 1.356 . S
N321 H326 0.984 . S
N321 H327 0.985 . S
C322 C316 1.379 . S
C322 C319 1.363 . S
C322 N320 1.356 . S
C323 C317 1.363 . S
C323 C318 1.379 1_556 S
C323 N321 1.356 . S
N324 C316 1.356 . S
N324 H330 0.984 . S
N324 H331 0.984 1_554 S
N325 C318 1.356 . S
N325 H328 0.984 . S
N325 H329 0.985 . S
H326 N321 0.984 . S
H327 N321 0.985 . S
H328 N325 0.984 . S
H329 N325 0.985 . S
H330 N324 0.984 . S
H331 N324 0.984 1_556 S
H332 N320 0.984 . S
H333 N320 0.985 . S
C334 C335 1.363 . S
C334 C340 1.379 1_554 S
C334 N342 1.356 . S
C335 C334 1.363 . S
C335 C341 1.363 1_554 S
C336 C337 1.363 . S
C336 C341 1.379 . S
C336 N343 1.356 . S
C337 C336 1.363 . S
C337 C340 1.363 . S
N338 C340 1.356 . S
N338 H350 0.984 1_655 S
N338 H351 0.985 1_655 S
N339 C341 1.356 1_554 S
N339 H344 0.984 . S
N339 H345 0.985 1_554 S
C340 C334 1.379 1_556 S
C340 C337 1.363 . S
C340 N338 1.356 . S
C341 C335 1.363 1_556 S
C341 C336 1.379 . S
C341 N339 1.356 1_556 S
N342 C334 1.356 . S
N342 H348 0.984 . S
N342 H349 0.984 . S
N343 C336 1.356 . S
N343 H346 0.984 . S
N343 H347 0.985 . S
H344 N339 0.984 . S
H345 N339 0.985 1_556 S
H346 N343 0.984 . S
H347 N343 0.985 . S
H348 N342 0.984 . S
H349 N342 0.984 . S
H350 N338 0.984 1_455 S
H351 N338 0.985 1_455 S
C352 C353 1.363 . S
C352 C358 1.379 . S
C352 N360 1.356 . S
C353 C352 1.363 . S
C353 C359 1.363 . S
C354 C355 1.363 . S
C354 C359 1.379 . S
C354 N361 1.356 . S
C355 C354 1.363 . S
C355 C358 1.363 . S
N356 C358 1.356 . S
N356 H368 0.984 . S
N356 H369 0.985 . S
N357 C359 1.356 . S
N357 H362 0.984 . S
N357 H363 0.985 . S
C358 C352 1.379 . S
C358 C355 1.363 . S
C358 N356 1.356 . S
C359 C353 1.363 . S
C359 C354 1.379 . S
C359 N357 1.356 . S
N360 C352 1.356 . S
N360 H366 0.984 . S
N360 H367 0.984 . S
N361 C354 1.356 . S
N361 H364 0.984 . S
N361 H365 0.985 . S
H362 N357 0.984 . S
H363 N357 0.985 . S
H364 N361 0.984 . S
H365 N361 0.985 . S
H366 N360 0.984 . S
H367 N360 0.984 . S
H368 N356 0.984 . S
H369 N356 0.985 . S
C370 C371 1.363 . S
C370 C376 1.379 . S
C370 N378 1.356 . S
C371 C370 1.363 . S
C371 C377 1.363 . S
C372 C373 1.363 . S
C372 C377 1.379 . S
C372 N379 1.356 . S
C373 C372 1.363 . S
C373 C376 1.363 . S
N374 C376 1.356 . S
N374 H386 0.984 . S
N374 H387 0.985 . S
N375 C377 1.356 . S
N375 H380 0.984 . S
N375 H381 0.985 . S
C376 C370 1.379 . S
C376 C373 1.363 . S
C376 N374 1.356 . S
C377 C371 1.363 . S
C377 C372 1.379 . S
C377 N375 1.356 . S
N378 C370 1.356 . S
N378 H384 0.984 1_655 S
N378 H385 0.984 1_655 S
N379 C372 1.356 . S
N379 H382 0.984 . S
N379 H383 0.985 . S
H380 N375 0.984 . S
H381 N375 0.985 . S
H382 N379 0.984 . S
H383 N379 0.985 . S
H384 N378 0.984 1_455 S
H385 N378 0.984 1_455 S
H386 N374 0.984 . S
H387 N374 0.985 . S
C388 C389 1.363 . S
C388 C394 1.379 . S
C388 N396 1.356 1_545 S
C389 C388 1.363 . S
C389 C395 1.363 . S
C390 C391 1.363 . S
C390 C395 1.379 . S
C390 N397 1.356 . S
C391 C390 1.363 . S
C391 C394 1.363 . S
N392 C394 1.356 . S
N392 H404 0.984 . S
N392 H405 0.985 . S
N393 C395 1.356 . S
N393 H398 0.984 . S
N393 H399 0.985 . S
C394 C388 1.379 . S
C394 C391 1.363 . S
C394 N392 1.356 . S
C395 C389 1.363 . S
C395 C390 1.379 . S
C395 N393 1.356 . S
N396 C388 1.356 1_565 S
N396 H402 0.984 . S
N396 H403 0.984 . S
N397 C390 1.356 . S
N397 H400 0.984 . S
N397 H401 0.985 . S
H398 N393 0.984 . S
H399 N393 0.985 . S
H400 N397 0.984 . S
H401 N397 0.985 . S
H402 N396 0.984 . S
H403 N396 0.984 . S
H404 N392 0.984 . S
H405 N392 0.985 . S
C406 C407 1.363 . S
C406 C412 1.379 . S
C406 N414 1.356 . S
C407 C406 1.363 . S
C407 C413 1.363 . S
C408 C409 1.363 . S
C408 C413 1.379 . S
C408 N415 1.356 . S
C409 C408 1.363 . S
C409 C412 1.363 . S
N410 C412 1.356 . S
N410 H422 0.984 . S
N410 H423 0.985 . S
N411 C413 1.356 . S
N411 H416 0.984 . S
N411 H417 0.985 . S
C412 C406 1.379 . S
C412 C409 1.363 . S
C412 N410 1.356 . S
C413 C407 1.363 . S
C413 C408 1.379 . S
C413 N411 1.356 . S
N414 C406 1.356 . S
N414 H420 0.981 1_455 S
N414 H421 0.984 1_455 S
N415 C408 1.356 . S
N415 H418 0.984 . S
N415 H419 0.985 . S
H416 N411 0.984 . S
H417 N411 0.985 . S
H418 N415 0.984 . S
H419 N415 0.985 . S
H420 N414 0.981 1_655 S
H421 N414 0.984 1_655 S
H422 N410 0.984 . S
H423 N410 0.985 . S
C424 C425 1.363 . S
C424 C430 1.379 . S
C424 N432 1.356 . S
C425 C424 1.363 . S
C425 C431 1.363 . S
C426 C427 1.363 . S
C426 C431 1.379 . S
C426 N433 1.356 . S
C427 C426 1.363 . S
C427 C430 1.363 . S
N428 C430 1.356 . S
N428 H440 0.984 . S
N428 H441 0.985 . S
N429 C431 1.356 . S
N429 H434 0.984 . S
N429 H435 0.985 . S
C430 C424 1.379 . S
C430 C427 1.363 . S
C430 N428 1.356 . S
C431 C425 1.363 . S
C431 C426 1.379 . S
C431 N429 1.356 . S
N432 C424 1.356 . S
N432 H438 0.984 . S
N432 H439 0.984 . S
N433 C426 1.356 . S
N433 H436 0.984 . S
N433 H437 0.985 . S
H434 N429 0.984 . S
H435 N429 0.985 . S
H436 N433 0.984 . S
H437 N433 0.985 . S
H438 N432 0.984 . S
H439 N432 0.984 . S
H440 N428 0.984 . S
H441 N428 0.985 . S
C442 C443 1.363 . S
C442 C448 1.379 . S
C442 N450 1.356 . S
C443 C442 1.363 . S
C443 C449 1.363 . S
C444 C445 1.363 . S
C444 C449 1.379 . S
C444 N451 1.356 . S
C445 C444 1.363 . S
C445 C448 1.363 . S
N446 C448 1.356 . S
N446 H458 0.984 . S
N446 H459 0.985 . S
N447 C449 1.356 . S
N447 H452 0.984 . S
N447 H453 0.985 . S
C448 C442 1.379 . S
C448 C445 1.363 . S
C448 N446 1.356 . S
C449 C443 1.363 . S
C449 C444 1.379 . S
C449 N447 1.356 . S
N450 C442 1.356 . S
N450 H456 0.984 . S
N450 H457 0.984 . S
N451 C444 1.356 . S
N451 H454 0.984 . S
N451 H455 0.985 . S
H452 N447 0.984 . S
H453 N447 0.985 . S
H454 N451 0.984 . S
H455 N451 0.985 . S
H456 N450 0.984 . S
H457 N450 0.984 . S
H458 N446 0.984 . S
H459 N446 0.985 . S
C460 C461 1.363 . S
C460 C466 1.379 . S
C460 N468 1.356 . S
C461 C460 1.363 . S
C461 C467 1.363 . S
C462 C463 1.363 . S
C462 C467 1.379 . S
C462 N469 1.356 . S
C463 C462 1.363 . S
C463 C466 1.363 . S
N464 C466 1.356 . S
N464 H476 0.984 . S
N464 H477 0.985 . S
N465 C467 1.356 . S
N465 H470 0.984 . S
N465 H471 0.985 . S
C466 C460 1.379 . S
C466 C463 1.363 . S
C466 N464 1.356 . S
C467 C461 1.363 . S
C467 C462 1.379 . S
C467 N465 1.356 . S
N468 C460 1.356 . S
N468 H474 0.984 . S
N468 H475 0.984 . S
N469 C462 1.356 . S
N469 H472 0.984 . S
N469 H473 0.985 . S
H470 N465 0.984 . S
H471 N465 0.985 . S
H472 N469 0.984 . S
H473 N469 0.985 . S
H474 N468 0.984 . S
H475 N468 0.984 . S
H476 N464 0.984 . S
H477 N464 0.985 . S
C478 C479 1.363 . S
C478 C484 1.379 . S
C478 N486 1.356 . S
C479 C478 1.363 . S
C479 C485 1.363 . S
C480 C481 1.363 . S
C480 C485 1.379 . S
C480 N487 1.356 . S
C481 C480 1.363 . S
C481 C484 1.363 . S
N482 C484 1.356 . S
N482 H494 0.984 . S
N482 H495 0.985 . S
N483 C485 1.356 . S
N483 H488 0.984 . S
N483 H489 0.985 . S
C484 C478 1.379 . S
C484 C481 1.363 . S
C484 N482 1.356 . S
C485 C479 1.363 . S
C485 C480 1.379 . S
C485 N483 1.356 . S
N486 C478 1.356 . S
N486 H492 0.984 . S
N486 H493 0.984 . S
N487 C480 1.356 . S
N487 H490 0.984 . S
N487 H491 0.985 . S
H488 N483 0.984 . S
H489 N483 0.985 . S
H490 N487 0.984 . S
H491 N487 0.985 . S
H492 N486 0.984 . S
H493 N486 0.984 . S
H494 N482 0.984 . S
H495 N482 0.985 . S
C496 C497 1.363 . S
C496 C502 1.379 . S
C496 N504 1.356 . S
C497 C496 1.363 . S
C497 C503 1.363 . S
C498 C499 1.363 . S
C498 C503 1.379 . S
C498 N505 1.356 . S
C499 C498 1.363 . S
C499 C502 1.363 . S
N500 C502 1.356 . S
N500 H512 0.984 . S
N500 H513 0.985 . S
N501 C503 1.356 . S
N501 H506 0.984 . S
N501 H507 0.985 . S
C502 C496 1.379 . S
C502 C499 1.363 . S
C502 N500 1.356 . S
C503 C497 1.363 . S
C503 C498 1.379 . S
C503 N501 1.356 . S
N504 C496 1.356 . S
N504 H510 0.984 . S
N504 H511 0.984 . S
N505 C498 1.356 . S
N505 H508 0.984 . S
N505 H509 0.985 . S
H506 N501 0.984 . S
H507 N501 0.985 . S
H508 N505 0.984 . S
H509 N505 0.985 . S
H510 N504 0.984 . S
H511 N504 0.984 . S
H512 N500 0.984 . S
H513 N500 0.985 . S
C514 C515 1.363 . S
C514 C520 1.379 . S
C514 N522 1.356 . S
C515 C514 1.363 . S
C515 C521 1.363 . S
C516 C517 1.363 . S
C516 C521 1.379 . S
C516 N523 1.356 . S
C517 C516 1.363 . S
C517 C520 1.363 . S
N518 C520 1.356 . S
N518 H530 0.984 . S
N518 H531 0.985 . S
N519 C521 1.356 . S
N519 H524 0.984 . S
N519 H525 0.985 . S
C520 C514 1.379 . S
C520 C517 1.363 . S
C520 N518 1.356 . S
C521 C515 1.363 . S
C521 C516 1.379 . S
C521 N519 1.356 . S
N522 C514 1.356 . S
N522 H528 0.984 . S
N522 H529 0.984 . S
N523 C516 1.356 . S
N523 H526 0.984 . S
N523 H527 0.985 . S
H524 N519 0.984 . S
H525 N519 0.985 . S
H526 N523 0.984 . S
H527 N523 0.985 . S
H528 N522 0.984 . S
H529 N522 0.984 . S
H530 N518 0.984 . S
H531 N518 0.985 . S
C532 C533 1.363 . S
C532 C538 1.379 . S
C532 N540 1.356 . S
C533 C532 1.363 . S
C533 C539 1.363 . S
C534 C535 1.363 . S
C534 C539 1.379 . S
C534 N541 1.356 . S
C535 C534 1.363 . S
C535 C538 1.363 . S
N536 C538 1.356 . S
N536 H548 0.984 . S
N536 H549 0.985 . S
N537 C539 1.356 . S
N537 H542 0.984 . S
N537 H543 0.985 . S
C538 C532 1.379 . S
C538 C535 1.363 . S
C538 N536 1.356 . S
C539 C533 1.363 . S
C539 C534 1.379 . S
C539 N537 1.356 . S
N540 C532 1.356 . S
N540 H546 0.984 . S
N540 H547 0.984 . S
N541 C534 1.356 . S
N541 H544 0.984 . S
N541 H545 0.985 . S
H542 N537 0.984 . S
H543 N537 0.985 . S
H544 N541 0.984 . S
H545 N541 0.985 . S
H546 N540 0.984 . S
H547 N540 0.984 . S
H548 N536 0.984 . S
H549 N536 0.985 . S
C550 C551 1.363 . S
C550 C556 1.379 . S
C550 N558 1.356 . S
C551 C550 1.363 . S
C551 C557 1.363 . S
C552 C553 1.363 . S
C552 C557 1.379 . S
C552 N559 1.356 . S
C553 C552 1.363 . S
C553 C556 1.363 . S
N554 C556 1.356 . S
N554 H566 0.984 . S
N554 H567 0.985 . S
N555 C557 1.356 . S
N555 H560 0.984 . S
N555 H561 0.985 . S
C556 C550 1.379 . S
C556 C553 1.363 . S
C556 N554 1.356 . S
C557 C551 1.363 . S
C557 C552 1.379 . S
C557 N555 1.356 . S
N558 C550 1.356 . S
N558 H564 0.984 . S
N558 H565 0.984 . S
N559 C552 1.356 . S
N559 H562 0.984 . S
N559 H563 0.985 . S
H560 N555 0.984 . S
H561 N555 0.985 . S
H562 N559 0.984 . S
H563 N559 0.985 . S
H564 N558 0.984 . S
H565 N558 0.984 . S
H566 N554 0.984 . S
H567 N554 0.985 . S
C568 C569 1.363 . S
C568 C574 1.379 . S
C568 N576 1.356 . S
C569 C568 1.363 . S
C569 C575 1.363 . S
C570 C571 1.363 . S
C570 C575 1.379 . S
C570 N577 1.356 . S
C571 C570 1.363 . S
C571 C574 1.363 . S
N572 C574 1.356 . S
N572 H584 0.984 . S
N572 H585 0.985 . S
N573 C575 1.356 . S
N573 H578 0.984 . S
N573 H579 0.985 . S
C574 C568 1.379 . S
C574 C571 1.363 . S
C574 N572 1.356 . S
C575 C569 1.363 . S
C575 C570 1.379 . S
C575 N573 1.356 . S
N576 C568 1.356 . S
N576 H582 0.984 . S
N576 H583 0.984 . S
N577 C570 1.356 . S
N577 H580 0.984 . S
N577 H581 0.985 . S
H578 N573 0.984 . S
H579 N573 0.985 . S
H580 N577 0.984 . S
H581 N577 0.985 . S
H582 N576 0.984 . S
H583 N576 0.984 . S
H584 N572 0.984 . S
H585 N572 0.985 . S
C586 C587 1.363 . S
C586 C592 1.379 . S
C586 N594 1.356 . S
C587 C586 1.363 . S
C587 C593 1.363 . S
C588 C589 1.363 . S
C588 C593 1.379 . S
C588 N595 1.356 . S
C589 C588 1.363 . S
C589 C592 1.363 . S
N590 C592 1.356 . S
N590 H602 0.984 . S
N590 H603 0.985 . S
N591 C593 1.356 . S
N591 H596 0.984 . S
N591 H597 0.985 . S
C592 C586 1.379 . S
C592 C589 1.363 . S
C592 N590 1.356 . S
C593 C587 1.363 . S
C593 C588 1.379 . S
C593 N591 1.356 . S
N594 C586 1.356 . S
N594 H600 0.984 . S
N594 H601 0.984 . S
N595 C588 1.356 . S
N595 H598 0.984 . S
N595 H599 0.985 . S
H596 N591 0.984 . S
H597 N591 0.985 . S
H598 N595 0.984 . S
H599 N595 0.985 . S
H600 N594 0.984 . S
H601 N594 0.984 . S
H602 N590 0.984 . S
H603 N590 0.985 . S
C604 C605 1.363 . S
C604 C610 1.379 . S
C604 N612 1.356 . S
C605 C604 1.363 . S
C605 C611 1.363 . S
C606 C607 1.363 . S
C606 C611 1.379 . S
C606 N613 1.356 . S
C607 C606 1.363 . S
C607 C610 1.363 . S
N608 C610 1.356 . S
N608 H620 0.984 . S
N608 H621 0.985 . S
N609 C611 1.356 . S
N609 H614 0.984 . S
N609 H615 0.985 . S
C610 C604 1.379 . S
C610 C607 1.363 . S
C610 N608 1.356 . S
C611 C605 1.363 . S
C611 C606 1.379 . S
C611 N609 1.356 . S
N612 C604 1.356 . S
N612 H618 0.984 . S
N612 H619 0.984 . S
N613 C606 1.356 . S
N613 H616 0.984 . S
N613 H617 0.985 . S
H614 N609 0.984 . S
H615 N609 0.985 . S
H616 N613 0.984 . S
H617 N613 0.985 . S
H618 N612 0.984 . S
H619 N612 0.984 . S
H620 N608 0.984 . S
H621 N608 0.985 . S
C622 C623 1.363 . S
C622 C628 1.379 . S
C622 N630 1.356 . S
C623 C622 1.363 . S
C623 C629 1.363 . S
C624 C625 1.363 . S
C624 C629 1.379 . S
C624 N631 1.356 . S
C625 C624 1.363 . S
C625 C628 1.363 . S
N626 C628 1.356 . S
N626 H638 0.984 . S
N626 H639 0.985 . S
N627 C629 1.356 . S
N627 H632 0.984 . S
N627 H633 0.985 . S
C628 C622 1.379 . S
C628 C625 1.363 . S
C628 N626 1.356 . S
C629 C623 1.363 . S
C629 C624 1.379 . S
C629 N627 1.356 . S
N630 C622 1.356 . S
N630 H636 0.984 . S
N630 H637 0.984 . S
N631 C624 1.356 . S
N631 H634 0.984 . S
N631 H635 0.985 . S
H632 N627 0.984 . S
H633 N627 0.985 . S
H634 N631 0.984 . S
H635 N631 0.985 . S
H636 N630 0.984 . S
H637 N630 0.984 . S
H638 N626 0.984 . S
H639 N626 0.985 . S
C640 C641 1.363 . S
C640 C646 1.379 1_565 S
C640 N648 1.356 . S
C641 C640 1.363 . S
C641 C647 1.363 1_655 S
C642 C643 1.363 . S
C642 C647 1.379 1_545 S
C642 N649 1.356 . S
C643 C642 1.363 . S
C643 C646 1.363 1_455 S
N644 C646 1.356 . S
N644 H656 0.984 . S
N644 H657 0.985 1_655 S
N645 C647 1.356 . S
N645 H650 0.984 1_455 S
N645 H651 0.985 . S
C646 C640 1.379 1_545 S
C646 C643 1.363 1_655 S
C646 N644 1.356 . S
C647 C641 1.363 1_455 S
C647 C642 1.379 1_565 S
C647 N645 1.356 . S
N648 C640 1.356 . S
N648 H654 0.984 . S
N648 H655 0.984 . S
N649 C642 1.356 . S
N649 H652 0.984 . S
N649 H653 0.985 . S
H650 N645 0.984 1_655 S
H651 N645 0.985 . S
H652 N649 0.984 . S
H653 N649 0.985 . S
H654 N648 0.984 . S
H655 N648 0.984 . S
H656 N644 0.984 . S
H657 N644 0.985 1_455 S
C658 C659 1.363 . S
C658 C664 1.379 1_655 S
C658 N666 1.356 . S
C659 C658 1.363 . S
C659 C665 1.363 1_545 S
C660 C661 1.363 . S
C660 C665 1.379 1_455 S
C660 N667 1.356 . S
C661 C660 1.363 . S
C661 C664 1.363 1_565 S
N662 C664 1.356 . S
N662 H674 0.984 . S
N662 H675 0.985 1_545 S
N663 C665 1.356 . S
N663 H668 0.984 1_565 S
N663 H669 0.985 . S
C664 C658 1.379 1_455 S
C664 C661 1.363 1_545 S
C664 N662 1.356 . S
C665 C659 1.363 1_565 S
C665 C660 1.379 1_655 S
C665 N663 1.356 . S
N666 C658 1.356 . S
N666 H672 0.984 . S
N666 H673 0.984 . S
N667 C660 1.356 . S
N667 H670 0.984 . S
N667 H671 0.985 . S
H668 N663 0.984 1_545 S
H669 N663 0.985 . S
H670 N667 0.984 . S
H671 N667 0.985 . S
H672 N666 0.984 . S
H673 N666 0.984 . S
H674 N662 0.984 . S
H675 N662 0.985 1_565 S
C676 C677 1.363 1_655 S
C676 C682 1.379 . S
C676 N684 1.356 . S
C677 C676 1.363 1_455 S
C677 C683 1.363 . S
C678 C679 1.363 1_455 S
C678 C683 1.379 . S
C678 N685 1.356 . S
C679 C678 1.363 1_655 S
C679 C682 1.363 . S
N680 C682 1.356 . S
N680 H692 0.984 . S
N680 H693 0.985 . S
N681 C683 1.356 . S
N681 H686 0.984 . S
N681 H687 0.985 . S
C682 C676 1.379 . S
C682 C679 1.363 . S
C682 N680 1.356 . S
C683 C677 1.363 . S
C683 C678 1.379 . S
C683 N681 1.356 . S
N684 C676 1.356 . S
N684 H690 0.984 . S
N684 H691 0.984 1_655 S
N685 C678 1.356 . S
N685 H688 0.984 1_455 S
N685 H689 0.985 . S
H686 N681 0.984 . S
H687 N681 0.985 . S
H688 N685 0.984 1_655 S
H689 N685 0.985 . S
H690 N684 0.984 . S
H691 N684 0.984 1_455 S
H692 N680 0.984 . S
H693 N680 0.985 . S
C694 C695 1.363 . S
C694 C700 1.379 . S
C694 N702 1.356 . S
C695 C694 1.363 . S
C695 C701 1.363 1_565 S
C696 C697 1.363 . S
C696 C701 1.379 . S
C696 N703 1.356 . S
C697 C696 1.363 . S
C697 C700 1.363 1_545 S
N698 C700 1.356 . S
N698 H710 0.984 . S
N698 H711 0.985 1_565 S
N699 C701 1.356 . S
N699 H704 0.984 1_545 S
N699 H705 0.985 . S
C700 C694 1.379 . S
C700 C697 1.363 1_565 S
C700 N698 1.356 . S
C701 C695 1.363 1_545 S
C701 C696 1.379 . S
C701 N699 1.356 . S
N702 C694 1.356 . S
N702 H708 0.984 . S
N702 H709 0.984 . S
N703 C696 1.356 . S
N703 H706 0.984 . S
N703 H707 0.985 . S
H704 N699 0.984 1_565 S
H705 N699 0.985 . S
H706 N703 0.984 . S
H707 N703 0.985 . S
H708 N702 0.984 . S
H709 N702 0.984 . S
H710 N698 0.984 . S
H711 N698 0.985 1_545 S
C712 C713 1.363 . S
C712 C718 1.379 . S
C712 N720 1.356 . S
C713 C712 1.363 . S
C713 C719 1.363 . S
C714 C715 1.363 . S
C714 C719 1.379 . S
C714 N721 1.356 . S
C715 C714 1.363 . S
C715 C718 1.363 . S
N716 C718 1.356 . S
N716 H728 0.984 . S
N716 H729 0.985 . S
N717 C719 1.356 . S
N717 H722 0.984 . S
N717 H723 0.985 . S
C718 C712 1.379 . S
C718 C715 1.363 . S
C718 N716 1.356 . S
C719 C713 1.363 . S
C719 C714 1.379 . S
C719 N717 1.356 . S
N720 C712 1.356 . S
N720 H726 0.984 . S
N720 H727 0.984 . S
N721 C714 1.356 . S
N721 H724 0.984 . S
N721 H725 0.985 . S
H722 N717 0.984 . S
H723 N717 0.985 . S
H724 N721 0.984 . S
H725 N721 0.985 . S
H726 N720 0.984 . S
H727 N720 0.984 . S
H728 N716 0.984 . S
H729 N716 0.985 . S
C730 C731 1.363 . S
C730 C736 1.379 . S
C730 N738 1.356 . S
C731 C730 1.363 . S
C731 C737 1.363 . S
C732 C733 1.363 . S
C732 C737 1.379 . S
C732 N739 1.356 . S
C733 C732 1.363 . S
C733 C736 1.363 . S
N734 C736 1.356 . S
N734 H746 0.984 . S
N734 H747 0.985 . S
N735 C737 1.356 . S
N735 H740 0.984 . S
N735 H741 0.985 . S
C736 C730 1.379 . S
C736 C733 1.363 . S
C736 N734 1.356 . S
C737 C731 1.363 . S
C737 C732 1.379 . S
C737 N735 1.356 . S
N738 C730 1.356 . S
N738 H744 0.984 . S
N738 H745 0.984 . S
N739 C732 1.356 . S
N739 H742 0.984 . S
N739 H743 0.985 . S
H740 N735 0.984 . S
H741 N735 0.985 . S
H742 N739 0.984 . S
H743 N739 0.985 . S
H744 N738 0.984 . S
H745 N738 0.984 . S
H746 N734 0.984 . S
H747 N734 0.985 . S
C748 C749 1.363 . S
C748 C754 1.379 1_545 S
C748 N756 1.356 . S
C749 C748 1.363 . S
C749 C755 1.363 . S
C750 C751 1.363 . S
C750 C755 1.379 1_565 S
C750 N757 1.356 . S
C751 C750 1.363 . S
C751 C754 1.363 . S
N752 C754 1.356 . S
N752 H764 0.984 . S
N752 H765 0.985 . S
N753 C755 1.356 . S
N753 H758 0.984 . S
N753 H759 0.985 . S
C754 C748 1.379 1_565 S
C754 C751 1.363 . S
C754 N752 1.356 . S
C755 C749 1.363 . S
C755 C750 1.379 1_545 S
C755 N753 1.356 . S
N756 C748 1.356 . S
N756 H762 0.984 . S
N756 H763 0.984 . S
N757 C750 1.356 . S
N757 H760 0.984 . S
N757 H761 0.985 . S
H758 N753 0.984 . S
H759 N753 0.985 . S
H760 N757 0.984 . S
H761 N757 0.985 . S
H762 N756 0.984 . S
H763 N756 0.984 . S
H764 N752 0.984 . S
H765 N752 0.985 . S
C766 C767 1.363 . S
C766 C772 1.379 1_655 S
C766 N774 1.356 . S
C767 C766 1.363 . S
C767 C773 1.363 . S
C768 C769 1.363 . S
C768 C773 1.379 1_455 S
C768 N775 1.356 . S
C769 C768 1.363 . S
C769 C772 1.363 . S
N770 C772 1.356 . S
N770 H782 0.984 . S
N770 H783 0.985 . S
N771 C773 1.356 . S
N771 H776 0.984 . S
N771 H777 0.985 . S
C772 C766 1.379 1_455 S
C772 C769 1.363 . S
C772 N770 1.356 . S
C773 C767 1.363 . S
C773 C768 1.379 1_655 S
C773 N771 1.356 . S
N774 C766 1.356 . S
N774 H780 0.984 . S
N774 H781 0.984 . S
N775 C768 1.356 . S
N775 H778 0.984 . S
N775 H779 0.985 . S
H776 N771 0.984 . S
H777 N771 0.985 . S
H778 N775 0.984 . S
H779 N775 0.985 . S
H780 N774 0.984 . S
H781 N774 0.984 . S
H782 N770 0.984 . S
H783 N770 0.985 . S
C209 C5 1.316 . S
C211 C148 1.285 . S
C227 C107 1.285 . S
C229 C18 1.316 . S
C245 C120 1.285 . S
C247 C29 1.316 . S
C263 C135 1.285 . S
C265 C42 1.316 . S
C281 C68 1.286 . S
C283 C57 1.316 . S
C299 C70 1.316 . S
C301 C83 1.286 . S
C317 C81 1.316 . S
C319 C96 1.286 . S
C335 C94 1.316 . S
C337 C55 1.286 . S
C353 C109 1.316 . S
C355 C44 1.285 . S
C371 C3 1.285 . S
C373 C122 1.316 . S
C389 C16 1.285 . S
C391 C133 1.316 . S
C407 C31 1.285 . S
C409 C146 1.316 . S
C425 C172 1.286 . S
C427 C159 1.316 . S
C443 C174 1.316 . S
C445 C187 1.286 . S
C461 C200 1.286 . S
C463 C185 1.316 . S
C479 C161 1.286 . S
C481 C198 1.316 . S
C497 C186 1.736 . S
C499 C10 1.736 . S
C515 C199 1.736 . S
C517 C23 1.736 . S
C533 C160 1.736 . S
C535 C30 1.736 . S
C551 C43 1.736 . S
C553 C179 1.736 . S
C569 C62 1.736 . S
C571 C134 1.736 . S
C587 C147 1.736 . S
C589 C75 1.736 . S
C605 C82 1.736 . S
C607 C114 1.736 . S
C623 C95 1.736 . S
C625 C127 1.736 . S
C641 C36 1.437 . S
C643 C4 1.437 . S
C659 C49 1.437 . S
C661 C17 1.437 . S
C677 C56 1.437 . S
C679 C88 1.437 . S
C695 C69 1.437 . S
C697 C101 1.437 . S
C713 C140 1.437 . S
C715 C108 1.437 . S
C731 C121 1.437 . S
C733 C153 1.437 . S
C749 C192 1.437 . S
C751 C166 1.437 . S
C767 C173 1.437 . S
C769 C205 1.437 . S
