# Generated by pormake.
# Topology zfo, (5)-cn, num edge types: 1
# Building blocks:
#     Node 0, Type 0, BuildingBlock: BEQFEK_clean_sbu_0, # of connection points: 5
#     Node 1, Type 0, BuildingBlock: BEQFEK_clean_sbu_0, # of connection points: 5
#     Node 2, Type 0, BuildingBlock: BEQFEK_clean_sbu_0, # of connection points: 5
#     Node 3, Type 0, BuildingBlock: BEQFEK_clean_sbu_0, # of connection points: 5
#     Node 4, Type 0, BuildingBlock: BEQFEK_clean_sbu_0, # of connection points: 5
#     Node 5, Type 0, BuildingBlock: BEQFEK_clean_sbu_0, # of connection points: 5
#     Node 6, Type 0, BuildingBlock: BEQFEK_clean_sbu_0, # of connection points: 5
#     Node 7, Type 0, BuildingBlock: BEQFEK_clean_sbu_0, # of connection points: 5
#     Node 8, Type 0, BuildingBlock: BEQFEK_clean_sbu_0, # of connection points: 5
#     Node 9, Type 0, BuildingBlock: BEQFEK_clean_sbu_0, # of connection points: 5
#     Node 10, Type 0, BuildingBlock: BEQFEK_clean_sbu_0, # of connection points: 5
#     Node 11, Type 0, BuildingBlock: BEQFEK_clean_sbu_0, # of connection points: 5
#     Node 12, Type 0, BuildingBlock: BEQFEK_clean_sbu_0, # of connection points: 5
#     Node 13, Type 0, BuildingBlock: BEQFEK_clean_sbu_0, # of connection points: 5
#     Node 14, Type 0, BuildingBlock: BEQFEK_clean_sbu_0, # of connection points: 5
#     Node 15, Type 0, BuildingBlock: BEQFEK_clean_sbu_0, # of connection points: 5
#     Edge 16, Type (0, 0), BuildingBlock: UVAHIK_clean_linker_0, # of connection points: 2
#     Edge 17, Type (0, 0), BuildingBlock: UVAHIK_clean_linker_0, # of connection points: 2
#     Edge 18, Type (0, 0), BuildingBlock: UVAHIK_clean_linker_0, # of connection points: 2
#     Edge 19, Type (0, 0), BuildingBlock: UVAHIK_clean_linker_0, # of connection points: 2
#     Edge 20, Type (0, 0), BuildingBlock: UVAHIK_clean_linker_0, # of connection points: 2
#     Edge 21, Type (0, 0), BuildingBlock: UVAHIK_clean_linker_0, # of connection points: 2
#     Edge 22, Type (0, 0), BuildingBlock: UVAHIK_clean_linker_0, # of connection points: 2
#     Edge 23, Type (0, 0), BuildingBlock: UVAHIK_clean_linker_0, # of connection points: 2
#     Edge 24, Type (0, 0), BuildingBlock: UVAHIK_clean_linker_0, # of connection points: 2
#     Edge 25, Type (0, 0), BuildingBlock: UVAHIK_clean_linker_0, # of connection points: 2
#     Edge 26, Type (0, 0), BuildingBlock: UVAHIK_clean_linker_0, # of connection points: 2
#     Edge 27, Type (0, 0), BuildingBlock: UVAHIK_clean_linker_0, # of connection points: 2
#     Edge 28, Type (0, 0), BuildingBlock: UVAHIK_clean_linker_0, # of connection points: 2
#     Edge 29, Type (0, 0), BuildingBlock: UVAHIK_clean_linker_0, # of connection points: 2
#     Edge 30, Type (0, 0), BuildingBlock: UVAHIK_clean_linker_0, # of connection points: 2
#     Edge 31, Type (0, 0), BuildingBlock: UVAHIK_clean_linker_0, # of connection points: 2
#     Edge 32, Type (0, 0), BuildingBlock: UVAHIK_clean_linker_0, # of connection points: 2
#     Edge 33, Type (0, 0), BuildingBlock: UVAHIK_clean_linker_0, # of connection points: 2
#     Edge 34, Type (0, 0), BuildingBlock: UVAHIK_clean_linker_0, # of connection points: 2
#     Edge 35, Type (0, 0), BuildingBlock: UVAHIK_clean_linker_0, # of connection points: 2
#     Edge 36, Type (0, 0), BuildingBlock: UVAHIK_clean_linker_0, # of connection points: 2
#     Edge 37, Type (0, 0), BuildingBlock: UVAHIK_clean_linker_0, # of connection points: 2
#     Edge 38, Type (0, 0), BuildingBlock: UVAHIK_clean_linker_0, # of connection points: 2
#     Edge 39, Type (0, 0), BuildingBlock: UVAHIK_clean_linker_0, # of connection points: 2
#     Edge 40, Type (0, 0), BuildingBlock: UVAHIK_clean_linker_0, # of connection points: 2
#     Edge 41, Type (0, 0), BuildingBlock: UVAHIK_clean_linker_0, # of connection points: 2
#     Edge 42, Type (0, 0), BuildingBlock: UVAHIK_clean_linker_0, # of connection points: 2
#     Edge 43, Type (0, 0), BuildingBlock: UVAHIK_clean_linker_0, # of connection points: 2
#     Edge 44, Type (0, 0), BuildingBlock: UVAHIK_clean_linker_0, # of connection points: 2
#     Edge 45, Type (0, 0), BuildingBlock: UVAHIK_clean_linker_0, # of connection points: 2
#     Edge 46, Type (0, 0), BuildingBlock: UVAHIK_clean_linker_0, # of connection points: 2
#     Edge 47, Type (0, 0), BuildingBlock: UVAHIK_clean_linker_0, # of connection points: 2
#     Edge 48, Type (0, 0), BuildingBlock: UVAHIK_clean_linker_0, # of connection points: 2
#     Edge 49, Type (0, 0), BuildingBlock: UVAHIK_clean_linker_0, # of connection points: 2
#     Edge 50, Type (0, 0), BuildingBlock: UVAHIK_clean_linker_0, # of connection points: 2
#     Edge 51, Type (0, 0), BuildingBlock: UVAHIK_clean_linker_0, # of connection points: 2
#     Edge 52, Type (0, 0), BuildingBlock: UVAHIK_clean_linker_0, # of connection points: 2
#     Edge 53, Type (0, 0), BuildingBlock: UVAHIK_clean_linker_0, # of connection points: 2
#     Edge 54, Type (0, 0), BuildingBlock: UVAHIK_clean_linker_0, # of connection points: 2
#     Edge 55, Type (0, 0), BuildingBlock: UVAHIK_clean_linker_0, # of connection points: 2
# Relax obj value: 0.164
# Max RMSD: 0.174
# Mean RMSD: 0.165
data_MOF--net-zfo--node1-BEQFEK_clean_sbu_0--edge1-UVAHIK_clean_linker_0
_symmetry_space_group_name_H-M    P1
_symmetry_Int_Tables_number       1
_symmetry_cell_setting            triclinic
loop_
_symmetry_equiv_pos_as_xyz
'x, y, z'
_cell_length_a     41.086168
_cell_length_b     41.051228
_cell_length_c     83.996984
_cell_angle_alpha  90.004815
_cell_angle_beta   89.980829
_cell_angle_gamma 90.012174
loop_
_atom_site_label
_atom_site_type_symbol
_atom_site_fract_x
_atom_site_fract_y
_atom_site_fract_z
_atom_type_partial_charge
Co0 Co 0.1152 0.20684 0.09833 0.0
Co1 Co 0.11465 0.20193 0.13571 0.0
C2 C 0.07721 0.2536 0.11826 0.0
O3 O 0.08616 0.24332 0.10464 0.0
O4 O 0.08679 0.2399 0.13101 0.0
C5 C 0.10413 0.22305 0.06546 0.0
O6 O 0.077 0.23564 0.071 0.0
C7 C 0.1288 0.22539 0.16775 0.0
C8 C 0.12839 0.18008 0.18193 0.0
C9 C 0.13393 0.21333 0.18296 0.0
N10 N 0.12072 0.20045 0.15818 0.0
N11 N 0.12 0.17348 0.16676 0.0
C12 C 0.13476 0.25933 0.16193 0.0
H13 H 0.13916 0.25938 0.14889 0.0
H14 H 0.15588 0.27033 0.16817 0.0
H15 H 0.11296 0.27443 0.16443 0.0
C16 C 0.18627 0.21094 0.10442 0.0
N17 N 0.15527 0.20855 0.10953 0.0
N18 N 0.15516 0.20516 0.12511 0.0
C19 C 0.18611 0.2045 0.13037 0.0
C20 C 0.20686 0.20847 0.11747 0.0
C21 C 0.19564 0.21659 0.08742 0.0
H22 H 0.19192 0.19376 0.08058 0.0
H23 H 0.17974 0.23562 0.08219 0.0
H24 H 0.22141 0.22434 0.08631 0.0
O25 O 0.09263 0.16474 0.10261 0.0
O26 O 0.09207 0.16184 0.12903 0.0
H27 H 0.17951 0.17831 0.15224 0.0
H28 H 0.2212 0.18825 0.1479 0.0
C29 C 0.19576 0.19718 0.14719 0.0
H30 H 0.19363 0.21964 0.15445 0.0
H31 H 0.11492 0.15043 0.16215 0.0
O32 O 0.12378 0.20942 0.07506 0.0
C33 C 0.08497 0.15001 0.11545 0.0
Co34 Co 0.7886 0.11222 0.59632 0.0
Co35 Co 0.78689 0.11028 0.63373 0.0
C36 C 0.73974 0.072 0.61376 0.0
O37 O 0.75165 0.08265 0.60078 0.0
O38 O 0.7512 0.08089 0.62714 0.0
C39 C 0.76392 0.1272 0.56532 0.0
O40 O 0.73631 0.13094 0.57301 0.0
C41 C 0.75856 0.1224 0.66543 0.0
C42 C 0.80248 0.12338 0.68059 0.0
C43 C 0.76905 0.12783 0.68093 0.0
N44 N 0.78472 0.11596 0.6563 0.0
N45 N 0.81081 0.11611 0.6655 0.0
C46 C 0.72425 0.12272 0.65937 0.0
H47 H 0.72106 0.10435 0.64988 0.0
H48 H 0.71869 0.14694 0.65421 0.0
H49 H 0.70672 0.11756 0.6691 0.0
C50 C 0.78692 0.1834 0.60274 0.0
N51 N 0.78543 0.15213 0.60761 0.0
N52 N 0.78503 0.15136 0.62329 0.0
C53 C 0.7865 0.18213 0.62887 0.0
C54 C 0.78764 0.20335 0.61604 0.0
C55 C 0.79086 0.19385 0.58578 0.0
H56 H 0.8089 0.17802 0.57974 0.0
H57 H 0.76719 0.19133 0.57957 0.0
H58 H 0.79895 0.21958 0.58491 0.0
O59 O 0.82971 0.08994 0.60214 0.0
O60 O 0.82877 0.08886 0.6286 0.0
H61 H 0.80822 0.17847 0.65196 0.0
H62 H 0.78981 0.21763 0.64803 0.0
C63 C 0.7875 0.19102 0.64615 0.0
H64 H 0.76472 0.18292 0.65195 0.0
H65 H 0.83445 0.11207 0.66139 0.0
O66 O 0.78941 0.11966 0.57306 0.0
C67 C 0.84265 0.08226 0.61541 0.0
Co68 Co 0.88223 0.78962 0.09557 0.0
Co69 Co 0.88158 0.79135 0.13302 0.0
C70 C 0.92188 0.74304 0.11462 0.0
O71 O 0.91238 0.75369 0.10118 0.0
O72 O 0.91162 0.75547 0.12755 0.0
C73 C 0.87064 0.76198 0.06479 0.0
O74 O 0.86921 0.73457 0.07284 0.0
C75 C 0.86661 0.76467 0.16474 0.0
C76 C 0.86827 0.80878 0.17978 0.0
C77 C 0.86192 0.77563 0.18022 0.0
N78 N 0.87461 0.79032 0.15554 0.0
N79 N 0.87589 0.81653 0.16466 0.0
C80 C 0.86441 0.7303 0.15882 0.0
H81 H 0.8803 0.72664 0.14835 0.0
H82 H 0.83908 0.72497 0.15509 0.0
H83 H 0.87136 0.71286 0.16832 0.0
C84 C 0.8107 0.78724 0.10098 0.0
N85 N 0.84163 0.78665 0.10636 0.0
N86 N 0.84136 0.78824 0.12202 0.0
C87 C 0.81028 0.79042 0.12708 0.0
C88 C 0.78991 0.7897 0.11393 0.0
C89 C 0.80138 0.78876 0.08378 0.0
H90 H 0.81638 0.80734 0.07762 0.0
H91 H 0.80619 0.76478 0.07818 0.0
H92 H 0.77526 0.79485 0.08224 0.0
O93 O 0.90335 0.83174 0.10092 0.0
O94 O 0.90284 0.8331 0.12739 0.0
H95 H 0.8141 0.81473 0.14957 0.0
H96 H 0.77394 0.79881 0.14548 0.0
C97 C 0.80038 0.79431 0.14414 0.0
H98 H 0.80627 0.77175 0.15071 0.0
H99 H 0.88145 0.83983 0.1605 0.0
O100 O 0.87576 0.78848 0.07221 0.0
C101 C 0.91 0.84596 0.11402 0.0
Co102 Co 0.20401 0.88172 0.59761 0.0
Co103 Co 0.20315 0.88284 0.63498 0.0
C104 C 0.25067 0.92271 0.6158 0.0
O105 O 0.23979 0.91254 0.60252 0.0
O106 O 0.23865 0.91288 0.6289 0.0
C107 C 0.2298 0.87142 0.56627 0.0
O108 O 0.25795 0.87214 0.57368 0.0
C109 C 0.23149 0.86626 0.66584 0.0
C110 C 0.19005 0.87326 0.68225 0.0
C111 C 0.22228 0.86326 0.6817 0.0
N112 N 0.20573 0.87684 0.65745 0.0
N113 N 0.18111 0.88127 0.66733 0.0
C114 C 0.26439 0.86032 0.65871 0.0
H115 H 0.26765 0.87487 0.64773 0.0
H116 H 0.26668 0.83427 0.6554 0.0
H117 H 0.28389 0.86645 0.66734 0.0
C118 C 0.20818 0.81033 0.60383 0.0
N119 N 0.20805 0.84159 0.6088 0.0
N120 N 0.20608 0.84214 0.62444 0.0
C121 C 0.20393 0.81135 0.62989 0.0
C122 C 0.20565 0.79014 0.61706 0.0
C123 C 0.21048 0.80026 0.58675 0.0
H124 H 0.23246 0.81137 0.58138 0.0
H125 H 0.2122 0.77346 0.58539 0.0
H126 H 0.18891 0.80943 0.58018 0.0
O127 O 0.16184 0.90277 0.60324 0.0
O128 O 0.16121 0.90343 0.62972 0.0
H129 H 0.18313 0.77837 0.64726 0.0
H130 H 0.21765 0.80145 0.65399 0.0
C131 C 0.19524 0.80249 0.64667 0.0
H132 H 0.17856 0.82093 0.65177 0.0
H133 H 0.15807 0.88925 0.66386 0.0
O134 O 0.20371 0.87445 0.57427 0.0
C135 C 0.14794 0.9099 0.61638 0.0
Co136 Co 0.61399 0.28651 0.90439 0.0
Co137 Co 0.61148 0.29094 0.86705 0.0
C138 C 0.5727 0.24133 0.88555 0.0
O139 O 0.58326 0.25099 0.89898 0.0
O140 O 0.58186 0.25475 0.87266 0.0
C141 C 0.60424 0.27169 0.9374 0.0
O142 O 0.57658 0.25958 0.93225 0.0
C143 C 0.62649 0.26515 0.83546 0.0
C144 C 0.61797 0.30769 0.8199 0.0
C145 C 0.62804 0.27544 0.81971 0.0
N146 N 0.61654 0.2903 0.84449 0.0
N147 N 0.61129 0.3156 0.83511 0.0
C148 C 0.63294 0.2317 0.84185 0.0
H149 H 0.61997 0.22784 0.85325 0.0
H150 H 0.65933 0.22882 0.8442 0.0
H151 H 0.62537 0.21288 0.83312 0.0
C152 C 0.68456 0.28074 0.89739 0.0
N153 N 0.65331 0.28301 0.89266 0.0
N154 N 0.65243 0.28682 0.87712 0.0
C155 C 0.68311 0.28835 0.87151 0.0
C156 C 0.70452 0.28408 0.88412 0.0
C157 C 0.69481 0.27518 0.91426 0.0
H158 H 0.69268 0.29837 0.92097 0.0
H159 H 0.67848 0.25704 0.91992 0.0
H160 H 0.72028 0.26631 0.91497 0.0
O161 O 0.59279 0.3293 0.89998 0.0
O162 O 0.5912 0.33231 0.87355 0.0
H163 H 0.6735 0.31556 0.85015 0.0
H164 H 0.71606 0.31037 0.85455 0.0
C165 C 0.69186 0.29838 0.8549 0.0
H166 H 0.69278 0.27657 0.84714 0.0
H167 H 0.60343 0.33835 0.83912 0.0
O168 O 0.62376 0.28461 0.92751 0.0
C169 C 0.58523 0.34438 0.88722 0.0
Co170 Co 0.70493 0.61379 0.40526 0.0
Co171 Co 0.70411 0.61571 0.3678 0.0
C172 C 0.75213 0.575 0.38602 0.0
O173 O 0.74107 0.58405 0.39947 0.0
O174 O 0.74005 0.58563 0.37309 0.0
C175 C 0.73157 0.6254 0.43634 0.0
O176 O 0.75889 0.62951 0.42846 0.0
C177 C 0.73022 0.6308 0.33588 0.0
C178 C 0.68557 0.62967 0.32124 0.0
C179 C 0.71878 0.63541 0.32047 0.0
N180 N 0.70481 0.62334 0.34533 0.0
N181 N 0.67826 0.62245 0.33645 0.0
C182 C 0.76483 0.63241 0.34145 0.0
H183 H 0.76838 0.61751 0.35227 0.0
H184 H 0.77115 0.65793 0.34447 0.0
H185 H 0.78161 0.62393 0.33195 0.0
C186 C 0.70683 0.68561 0.40045 0.0
N187 N 0.70781 0.65482 0.39485 0.0
N188 N 0.70691 0.65558 0.37918 0.0
C189 C 0.70498 0.68683 0.37434 0.0
C190 C 0.70497 0.7068 0.38764 0.0
C191 C 0.70437 0.69442 0.4177 0.0
H192 H 0.68644 0.67836 0.42367 0.0
H193 H 0.72842 0.69076 0.42342 0.0
H194 H 0.69695 0.72019 0.41932 0.0
O195 O 0.66312 0.59266 0.39959 0.0
O196 O 0.66245 0.594 0.37314 0.0
H197 H 0.68142 0.68466 0.35162 0.0
H198 H 0.69916 0.72394 0.35606 0.0
C199 C 0.70228 0.69726 0.3573 0.0
H200 H 0.72474 0.69032 0.3509 0.0
H201 H 0.65506 0.61725 0.34083 0.0
O202 O 0.70563 0.61896 0.42872 0.0
C203 C 0.6493 0.58635 0.38636 0.0
Co204 Co 0.3826 0.70653 0.90437 0.0
Co205 Co 0.38441 0.70153 0.86705 0.0
C206 C 0.42328 0.75167 0.88509 0.0
O207 O 0.41299 0.74219 0.89861 0.0
O208 O 0.41391 0.73802 0.8723 0.0
C209 C 0.39376 0.72124 0.93722 0.0
O210 O 0.42186 0.73184 0.93184 0.0
C211 C 0.3687 0.72634 0.83538 0.0
C212 C 0.3766 0.68325 0.8201 0.0
C213 C 0.36657 0.7155 0.81973 0.0
N214 N 0.37889 0.70148 0.84452 0.0
N215 N 0.3838 0.67585 0.83531 0.0
C216 C 0.36245 0.75998 0.84159 0.0
H217 H 0.37592 0.76424 0.8528 0.0
H218 H 0.33616 0.76284 0.84422 0.0
H219 H 0.36958 0.77855 0.83264 0.0
C220 C 0.31175 0.71074 0.89774 0.0
N221 N 0.34296 0.70927 0.89284 0.0
N222 N 0.3436 0.70544 0.8773 0.0
C223 C 0.31283 0.70322 0.87186 0.0
C224 C 0.29159 0.70694 0.88459 0.0
C225 C 0.3017 0.71563 0.9147 0.0
H226 H 0.3173 0.73449 0.92028 0.0
H227 H 0.27586 0.72323 0.9156 0.0
H228 H 0.30518 0.69251 0.92133 0.0
O229 O 0.40427 0.6639 0.90009 0.0
O230 O 0.40534 0.66058 0.87366 0.0
H231 H 0.27986 0.68074 0.85503 0.0
H232 H 0.30289 0.71461 0.84748 0.0
C233 C 0.30397 0.69291 0.8553 0.0
H234 H 0.32239 0.67577 0.85057 0.0
H235 H 0.39171 0.65323 0.83944 0.0
O236 O 0.37337 0.70912 0.92751 0.0
C237 C 0.41179 0.64878 0.88733 0.0
Co238 Co 0.29013 0.38205 0.40456 0.0
Co239 Co 0.29132 0.38176 0.36716 0.0
C240 C 0.24191 0.42031 0.38514 0.0
O241 O 0.25352 0.41092 0.39843 0.0
O242 O 0.25397 0.41053 0.37202 0.0
C243 C 0.26237 0.36848 0.43532 0.0
O244 O 0.23558 0.36331 0.42717 0.0
C245 C 0.26898 0.36933 0.33443 0.0
C246 C 0.31577 0.36376 0.32174 0.0
C247 C 0.28236 0.36198 0.31967 0.0
N248 N 0.29343 0.37484 0.34473 0.0
N249 N 0.3213 0.37206 0.337 0.0
C250 C 0.23392 0.3676 0.3392 0.0
H251 H 0.23168 0.36367 0.35222 0.0
H252 H 0.22133 0.34768 0.33272 0.0
H253 H 0.22188 0.39097 0.33613 0.0
C254 C 0.28964 0.31044 0.39914 0.0
N255 N 0.28853 0.34142 0.39382 0.0
N256 N 0.28876 0.34127 0.37814 0.0
C257 C 0.28995 0.31017 0.373 0.0
C258 C 0.29061 0.28969 0.38613 0.0
C259 C 0.29262 0.30101 0.41628 0.0
H260 H 0.30957 0.3178 0.42245 0.0
H261 H 0.26839 0.3029 0.42202 0.0
H262 H 0.30156 0.27564 0.41759 0.0
O263 O 0.33165 0.40438 0.39962 0.0
O264 O 0.33198 0.4045 0.37319 0.0
H265 H 0.31229 0.31014 0.34999 0.0
H266 H 0.28975 0.27341 0.35438 0.0
C267 C 0.29023 0.30023 0.35585 0.0
H268 H 0.26853 0.3104 0.34985 0.0
H269 H 0.34413 0.37461 0.34229 0.0
O270 O 0.28829 0.37622 0.42798 0.0
C271 C 0.34512 0.4118 0.38645 0.0
Co272 Co 0.90134 0.78137 0.86542 0.0
Co273 Co 0.83676 0.82194 0.86573 0.0
C274 C 0.85959 0.7856 0.8946 0.0
O275 O 0.88465 0.7752 0.88729 0.0
O276 O 0.83886 0.80379 0.88767 0.0
C277 C 0.94809 0.73045 0.87171 0.0
O278 O 0.9276 0.7213 0.88286 0.0
C279 C 0.76716 0.83475 0.86926 0.0
C280 C 0.76073 0.87985 0.85525 0.0
C281 C 0.74403 0.85738 0.86447 0.0
N282 N 0.79611 0.8436 0.86324 0.0
N283 N 0.79219 0.87069 0.85497 0.0
C284 C 0.76171 0.80361 0.87814 0.0
H285 H 0.78099 0.78568 0.87516 0.0
H286 H 0.73749 0.79319 0.87527 0.0
H287 H 0.76278 0.80857 0.89112 0.0
C288 C 0.86986 0.75237 0.8371 0.0
N289 N 0.86925 0.77187 0.84999 0.0
N290 N 0.84216 0.78897 0.84997 0.0
C291 C 0.82465 0.78094 0.83699 0.0
C292 C 0.84162 0.75753 0.82838 0.0
C293 C 0.89868 0.73224 0.83243 0.0
H294 H 0.9206 0.748 0.8319 0.0
H295 H 0.90305 0.71348 0.8417 0.0
H296 H 0.89519 0.72019 0.82074 0.0
O297 O 0.91643 0.82677 0.86287 0.0
O298 O 0.8708 0.85561 0.86315 0.0
H299 H 0.79658 0.82258 0.83029 0.0
H300 H 0.78183 0.78464 0.82198 0.0
C301 C 0.79282 0.79625 0.83262 0.0
H302 H 0.77565 0.79384 0.84272 0.0
H303 H 0.81093 0.8827 0.84897 0.0
O304 O 0.94064 0.75412 0.86266 0.0
C305 C 0.90167 0.85398 0.86217 0.0
Co306 Co 0.21375 0.89785 0.36576 0.0
Co307 Co 0.17237 0.83372 0.3671 0.0
C308 C 0.20755 0.85891 0.39582 0.0
O309 O 0.21863 0.88305 0.38801 0.0
O310 O 0.18942 0.83766 0.38922 0.0
C311 C 0.26431 0.94512 0.37179 0.0
O312 O 0.27291 0.9255 0.38341 0.0
C313 C 0.1578 0.76469 0.37222 0.0
C314 C 0.11586 0.75672 0.35621 0.0
C315 C 0.13619 0.74109 0.36692 0.0
N316 N 0.15045 0.79299 0.36505 0.0
N317 N 0.12518 0.78816 0.35561 0.0
C318 C 0.18694 0.75994 0.38264 0.0
H319 H 0.20596 0.7782 0.37975 0.0
H320 H 0.19706 0.73505 0.38121 0.0
H321 H 0.17962 0.76325 0.39525 0.0
C322 C 0.24281 0.86404 0.3382 0.0
N323 N 0.22336 0.86445 0.3511 0.0
N324 N 0.20627 0.83735 0.35163 0.0
C325 C 0.21459 0.81862 0.33909 0.0
C326 C 0.23784 0.83496 0.33009 0.0
C327 C 0.26232 0.89281 0.33282 0.0
H328 H 0.24649 0.91469 0.33251 0.0
H329 H 0.28198 0.89751 0.34158 0.0
H330 H 0.27316 0.88904 0.32087 0.0
O331 O 0.16884 0.91307 0.3625 0.0
O332 O 0.13909 0.86804 0.36348 0.0
H333 H 0.174 0.78954 0.33193 0.0
H334 H 0.21302 0.77331 0.32586 0.0
C335 C 0.19976 0.78613 0.33551 0.0
H336 H 0.20034 0.77076 0.34634 0.0
H337 H 0.1147 0.80619 0.34851 0.0
O338 O 0.24129 0.9368 0.36254 0.0
C339 C 0.1414 0.8988 0.36186 0.0
Co340 Co 0.0986 0.21767 0.86606 0.0
Co341 Co 0.16132 0.1745 0.86704 0.0
C342 C 0.13805 0.21106 0.89585 0.0
O343 O 0.1141 0.22293 0.88819 0.0
O344 O 0.15837 0.19208 0.88913 0.0
C345 C 0.05067 0.2677 0.8723 0.0
O346 O 0.0689 0.27514 0.88462 0.0
C347 C 0.23021 0.15916 0.87121 0.0
C348 C 0.23546 0.11377 0.85729 0.0
C349 C 0.25268 0.13571 0.86659 0.0
N350 N 0.20115 0.15128 0.86501 0.0
N351 N 0.20435 0.12399 0.85682 0.0
C352 C 0.23645 0.19019 0.88006 0.0
H353 H 0.21766 0.20861 0.87705 0.0
H354 H 0.26094 0.19995 0.87719 0.0
H355 H 0.2352 0.18534 0.89304 0.0
C356 C 0.13252 0.24563 0.83821 0.0
N357 N 0.13183 0.22612 0.85109 0.0
N358 N 0.1582 0.20794 0.85133 0.0
C359 C 0.17656 0.2153 0.83851 0.0
C360 C 0.16089 0.23939 0.82975 0.0
C361 C 0.10454 0.26663 0.83323 0.0
H362 H 0.08227 0.25144 0.83228 0.0
H363 H 0.10004 0.28528 0.84254 0.0
H364 H 0.10902 0.27882 0.82166 0.0
O365 O 0.08199 0.1729 0.86319 0.0
O366 O 0.12628 0.14213 0.86383 0.0
H367 H 0.20308 0.1725 0.83205 0.0
H368 H 0.21974 0.20977 0.82388 0.0
C369 C 0.20786 0.19864 0.83442 0.0
H370 H 0.22474 0.20033 0.84466 0.0
H371 H 0.18538 0.11262 0.8507 0.0
O372 O 0.06018 0.24579 0.86268 0.0
C373 C 0.09558 0.1451 0.86252 0.0
Co374 Co 0.78003 0.0976 0.36525 0.0
Co375 Co 0.82234 0.16104 0.36603 0.0
C376 C 0.7866 0.13723 0.39494 0.0
O377 O 0.77527 0.11292 0.38736 0.0
O378 O 0.80501 0.15797 0.38815 0.0
C379 C 0.7295 0.0508 0.37181 0.0
O380 O 0.72152 0.07075 0.3834 0.0
C381 C 0.83459 0.23057 0.36971 0.0
C382 C 0.88167 0.23704 0.35737 0.0
C383 C 0.85778 0.25377 0.36568 0.0
N384 N 0.84446 0.20157 0.36415 0.0
N385 N 0.87272 0.2055 0.35688 0.0
C386 C 0.80236 0.23589 0.37759 0.0
H387 H 0.78507 0.21629 0.37421 0.0
H388 H 0.79212 0.25996 0.37425 0.0
H389 H 0.80563 0.2352 0.3907 0.0
C390 C 0.7496 0.13217 0.33821 0.0
N391 N 0.77046 0.13099 0.35054 0.0
N392 N 0.78855 0.15746 0.35056 0.0
C393 C 0.78002 0.1762 0.33805 0.0
C394 C 0.75495 0.16083 0.32982 0.0
C395 C 0.72547 0.10594 0.33451 0.0
H396 H 0.71314 0.09814 0.34562 0.0
H397 H 0.70692 0.11435 0.32584 0.0
H398 H 0.7385 0.08454 0.32956 0.0
O399 O 0.82497 0.08172 0.36203 0.0
O400 O 0.85514 0.12649 0.36261 0.0
H401 H 0.79217 0.21355 0.32072 0.0
H402 H 0.79212 0.22638 0.34128 0.0
C403 C 0.79819 0.20613 0.33306 0.0
H404 H 0.82472 0.20157 0.33379 0.0
H405 H 0.88569 0.18672 0.35141 0.0
O406 O 0.75217 0.05877 0.36227 0.0
C407 C 0.85255 0.09572 0.36125 0.0
Co408 Co 0.39882 0.71737 0.13613 0.0
Co409 Co 0.33507 0.67549 0.13506 0.0
C410 C 0.35877 0.71189 0.10642 0.0
O411 O 0.38307 0.72305 0.11407 0.0
O412 O 0.33808 0.69326 0.1131 0.0
C413 C 0.44576 0.76805 0.12985 0.0
O414 O 0.42599 0.77631 0.11824 0.0
C415 C 0.26588 0.66149 0.13077 0.0
C416 C 0.25954 0.61629 0.14472 0.0
C417 C 0.24287 0.63853 0.13536 0.0
N418 N 0.29471 0.65307 0.13706 0.0
N419 N 0.29085 0.62589 0.14528 0.0
C420 C 0.26036 0.6926 0.12188 0.0
H421 H 0.27936 0.71073 0.125 0.0
H422 H 0.23596 0.70276 0.12461 0.0
H423 H 0.26185 0.68771 0.10891 0.0
C424 C 0.3659 0.74496 0.16434 0.0
N425 N 0.36592 0.72611 0.15122 0.0
N426 N 0.33903 0.7087 0.15082 0.0
C427 C 0.32091 0.71604 0.16371 0.0
C428 C 0.33738 0.73913 0.17276 0.0
C429 C 0.39461 0.76467 0.16959 0.0
H430 H 0.41656 0.74892 0.16982 0.0
H431 H 0.39909 0.78432 0.16078 0.0
H432 H 0.39096 0.77555 0.18153 0.0
O433 O 0.41461 0.67231 0.13883 0.0
O434 O 0.36962 0.6425 0.13813 0.0
H435 H 0.29313 0.67402 0.17015 0.0
H436 H 0.2771 0.71184 0.17799 0.0
C437 C 0.28907 0.70022 0.16761 0.0
H438 H 0.27257 0.70213 0.15723 0.0
H439 H 0.30951 0.61416 0.15146 0.0
O440 O 0.43764 0.74519 0.13925 0.0
C441 C 0.4004 0.6448 0.13943 0.0
Co442 Co 0.27662 0.40097 0.63581 0.0
Co443 Co 0.31884 0.33754 0.63433 0.0
C444 C 0.28146 0.36143 0.60594 0.0
O445 O 0.27046 0.38565 0.61371 0.0
O446 O 0.30031 0.34073 0.61246 0.0
C447 C 0.22453 0.44699 0.63054 0.0
O448 O 0.21515 0.42674 0.61933 0.0
C449 C 0.33234 0.26826 0.6299 0.0
C450 C 0.37829 0.26179 0.6432 0.0
C451 C 0.35541 0.24514 0.6342 0.0
N452 N 0.3413 0.29713 0.63601 0.0
N453 N 0.36892 0.29319 0.64383 0.0
C454 C 0.30069 0.26283 0.62148 0.0
H455 H 0.28294 0.28207 0.62476 0.0
H456 H 0.2905 0.23855 0.62447 0.0
H457 H 0.30483 0.26399 0.60844 0.0
C458 C 0.24931 0.36722 0.66388 0.0
N459 N 0.26828 0.36772 0.6508 0.0
N460 N 0.28609 0.34109 0.65035 0.0
C461 C 0.27902 0.32275 0.66322 0.0
C462 C 0.25553 0.3387 0.67224 0.0
C463 C 0.22886 0.39543 0.6691 0.0
H464 H 0.24419 0.41766 0.66967 0.0
H465 H 0.20957 0.39982 0.66011 0.0
H466 H 0.21752 0.39121 0.6809 0.0
O467 O 0.32162 0.41698 0.63837 0.0
O468 O 0.35182 0.37226 0.63731 0.0
H469 H 0.32174 0.29556 0.66909 0.0
H470 H 0.28474 0.27949 0.6778 0.0
C471 C 0.29541 0.29118 0.66711 0.0
H472 H 0.29284 0.27427 0.65691 0.0
H473 H 0.38109 0.31185 0.64981 0.0
O474 O 0.24869 0.43956 0.63925 0.0
C475 C 0.34926 0.40303 0.63875 0.0
Co476 Co 0.60053 0.28358 0.13597 0.0
Co477 Co 0.66359 0.3264 0.135 0.0
C478 C 0.63977 0.28887 0.10636 0.0
O479 O 0.61586 0.277 0.11402 0.0
O480 O 0.6598 0.30824 0.11301 0.0
C481 C 0.55264 0.23331 0.13043 0.0
O482 O 0.57188 0.22408 0.11878 0.0
C483 C 0.73414 0.33555 0.13313 0.0
C484 C 0.74013 0.38624 0.14151 0.0
C485 C 0.75734 0.35928 0.13627 0.0
N486 N 0.70466 0.34774 0.13661 0.0
N487 N 0.70836 0.37811 0.14153 0.0
C488 C 0.73964 0.3023 0.12627 0.0
H489 H 0.71736 0.29316 0.12037 0.0
H490 H 0.74591 0.28504 0.13594 0.0
H491 H 0.7601 0.30276 0.11764 0.0
C492 C 0.63348 0.25603 0.16405 0.0
N493 N 0.63345 0.27508 0.15101 0.0
N494 N 0.65945 0.29383 0.15112 0.0
C495 C 0.67651 0.28779 0.16451 0.0
C496 C 0.66074 0.26348 0.17307 0.0
C497 C 0.60565 0.23452 0.16869 0.0
H498 H 0.58363 0.2497 0.17057 0.0
H499 H 0.60034 0.21733 0.15883 0.0
H500 H 0.61084 0.22063 0.17973 0.0
O501 O 0.58505 0.32891 0.13842 0.0
O502 O 0.62942 0.35971 0.13801 0.0
H503 H 0.70086 0.33321 0.16859 0.0
H504 H 0.71321 0.30094 0.182 0.0
C505 C 0.70585 0.30674 0.16963 0.0
H506 H 0.7265 0.30077 0.16169 0.0
H507 H 0.68921 0.39326 0.14496 0.0
O508 O 0.56148 0.25645 0.1395 0.0
C509 C 0.59866 0.35673 0.13912 0.0
Co510 Co 0.71393 0.5949 0.63701 0.0
Co511 Co 0.67388 0.65972 0.63556 0.0
C512 C 0.70921 0.6339 0.60695 0.0
O513 O 0.71968 0.60952 0.61478 0.0
O514 O 0.69132 0.65541 0.6135 0.0
C515 C 0.76456 0.54751 0.63153 0.0
O516 O 0.77397 0.56728 0.62012 0.0
C517 C 0.65995 0.72862 0.62991 0.0
C518 C 0.61756 0.73733 0.64554 0.0
C519 C 0.63806 0.75239 0.63471 0.0
N520 N 0.65254 0.70073 0.63742 0.0
N521 N 0.62706 0.70601 0.64669 0.0
C522 C 0.68918 0.7328 0.61947 0.0
H523 H 0.7083 0.71494 0.62275 0.0
H524 H 0.69908 0.75787 0.62047 0.0
H525 H 0.68203 0.72845 0.60691 0.0
C526 C 0.74392 0.62859 0.66439 0.0
N527 N 0.72405 0.62822 0.65166 0.0
N528 N 0.70732 0.65554 0.65116 0.0
C529 C 0.71609 0.67425 0.66364 0.0
C530 C 0.7395 0.65779 0.67246 0.0
C531 C 0.76366 0.59987 0.66961 0.0
H532 H 0.7477 0.57812 0.6704 0.0
H533 H 0.78256 0.59474 0.66051 0.0
H534 H 0.77547 0.60398 0.6813 0.0
O535 O 0.66855 0.58032 0.64003 0.0
O536 O 0.64 0.62609 0.63902 0.0
H537 H 0.67569 0.70357 0.67079 0.0
H538 H 0.71477 0.71932 0.67707 0.0
C539 C 0.70154 0.70681 0.66731 0.0
H540 H 0.70235 0.72234 0.65653 0.0
H541 H 0.61638 0.68831 0.65391 0.0
O542 O 0.7409 0.55569 0.64041 0.0
C543 C 0.64146 0.59528 0.64056 0.0
C544 C 0.05835 0.10488 0.09998 0.0
C545 C 0.06697 0.11878 0.11469 0.0
C546 C 0.0408 0.07571 0.09941 0.0
C547 C 0.98657 0.02402 0.12368 0.0
H548 H 0.01053 0.95613 0.09379 0.0
C549 C 0.93512 0.89376 0.12797 0.0
C550 C 0.92682 0.87788 0.1137 0.0
C551 C 0.95148 0.92358 0.12768 0.0
C552 C 0.00327 0.97501 0.10207 0.0
H553 H 0.06412 0.11262 0.14034 0.0
H554 H 0.03383 0.0618 0.1393 0.0
H555 H 0.04059 0.00741 0.09392 0.0
H556 H 0.92903 0.88114 0.08792 0.0
H557 H 0.95727 0.93332 0.08745 0.0
H558 H 0.94935 0.99166 0.13186 0.0
C559 C 0.04024 0.07366 0.12821 0.0
C560 C 0.0205 0.00438 0.10214 0.0
C561 C 0.05781 0.10273 0.12879 0.0
C562 C 0.93512 0.89263 0.09914 0.0
C563 C 0.95148 0.92246 0.09886 0.0
C564 C 0.96935 0.9947 0.12359 0.0
C565 C 0.03142 0.05988 0.11353 0.0
C566 C 0.01249 0.0291 0.11303 0.0
C567 C 0.9599 0.93825 0.11312 0.0
C568 C 0.97763 0.96977 0.11287 0.0
H569 H 0.06496 0.11661 0.08889 0.0
H570 H 0.03411 0.06581 0.08791 0.0
H571 H 0.97944 0.04282 0.13202 0.0
H572 H 0.92922 0.88308 0.1394 0.0
H573 H 0.95801 0.93489 0.13888 0.0
C574 C 0.10114 0.93514 0.60169 0.0
C575 C 0.11601 0.92662 0.61618 0.0
C576 C 0.07141 0.95167 0.60156 0.0
C577 C 0.01923 0.00367 0.62665 0.0
H578 H 0.95198 0.98011 0.59638 0.0
C579 C 0.88906 0.05599 0.62993 0.0
C580 C 0.87424 0.06489 0.61549 0.0
C581 C 0.91859 0.03914 0.62998 0.0
C582 C 0.97066 0.98721 0.60479 0.0
H583 H 0.11099 0.92845 0.6419 0.0
H584 H 0.05907 0.95696 0.64164 0.0
H585 H 0.00333 0.95031 0.59651 0.0
H586 H 0.87906 0.06322 0.58975 0.0
H587 H 0.93069 0.03412 0.58989 0.0
H588 H 0.98658 0.04057 0.63493 0.0
C589 C 0.07063 0.95127 0.63038 0.0
C590 C 6e-05 0.97014 0.60487 0.0
C591 C 0.10032 0.93474 0.63052 0.0
C592 C 0.88972 0.05668 0.6011 0.0
C593 C 0.91923 0.03981 0.60116 0.0
C594 C 0.98984 0.02074 0.62658 0.0
C595 C 0.05592 0.96006 0.61591 0.0
C596 C 0.02466 0.97816 0.61581 0.0
C597 C 0.93396 0.0308 0.6156 0.0
C598 C 0.96522 0.01269 0.61565 0.0
H599 H 0.11257 0.92933 0.59042 0.0
H600 H 0.06086 0.95841 0.59022 0.0
H601 H 0.03791 0.0108 0.63506 0.0
H602 H 0.87778 0.06184 0.64124 0.0
H603 H 0.92914 0.03221 0.6413 0.0
C604 C 0.43867 0.601 0.87431 0.0
C605 C 0.42927 0.61728 0.88831 0.0
C606 C 0.45624 0.57198 0.87509 0.0
C607 C 0.47606 0.50304 0.9013 0.0
H608 H 0.54792 0.49133 0.87189 0.0
C609 C 0.56089 0.39029 0.90303 0.0
C610 C 0.56876 0.37641 0.88821 0.0
C611 C 0.54487 0.4203 0.90384 0.0
C612 C 0.52776 0.49411 0.88009 0.0
H613 H 0.43061 0.61545 0.91413 0.0
H614 H 0.46144 0.56465 0.91545 0.0
H615 H 0.51767 0.54234 0.87186 0.0
H616 H 0.56592 0.38331 0.86261 0.0
H617 H 0.53783 0.43528 0.86405 0.0
H618 H 0.48599 0.45457 0.9094 0.0
C619 C 0.455 0.57439 0.90389 0.0
C620 C 0.51043 0.52333 0.88007 0.0
C621 C 0.43745 0.60354 0.90312 0.0
C622 C 0.56037 0.39328 0.87424 0.0
C623 C 0.54441 0.42323 0.87505 0.0
C624 C 0.4934 0.47372 0.9013 0.0
C625 C 0.46483 0.55847 0.88987 0.0
C626 C 0.48414 0.52797 0.89053 0.0
C627 C 0.53647 0.43709 0.88985 0.0
C628 C 0.51919 0.46881 0.89055 0.0
H629 H 0.43269 0.61076 0.8627 0.0
H630 H 0.46297 0.56 0.86408 0.0
H631 H 0.45574 0.50581 0.9094 0.0
H632 H 0.56703 0.37797 0.91403 0.0
H633 H 0.53934 0.43051 0.91542 0.0
C634 C 0.60252 0.56045 0.40078 0.0
C635 C 0.61752 0.56931 0.38636 0.0
C636 C 0.57288 0.5438 0.40078 0.0
C637 C 0.52114 0.49184 0.37554 0.0
H638 H 0.45354 0.51507 0.40571 0.0
C639 C 0.39152 0.43841 0.37209 0.0
C640 C 0.37649 0.42958 0.3865 0.0
C641 C 0.4209 0.45551 0.3721 0.0
C642 C 0.47232 0.50805 0.39733 0.0
H643 H 0.61284 0.56785 0.36062 0.0
H644 H 0.56101 0.53902 0.36066 0.0
H645 H 0.50472 0.54518 0.40562 0.0
H646 H 0.38074 0.4317 0.41224 0.0
H647 H 0.43218 0.46124 0.41223 0.0
H648 H 0.48881 0.45467 0.36727 0.0
C649 C 0.57242 0.54462 0.37196 0.0
C650 C 0.50162 0.52531 0.39727 0.0
C651 C 0.60205 0.56132 0.37195 0.0
C652 C 0.39159 0.43817 0.40092 0.0
C653 C 0.42099 0.45529 0.40092 0.0
C654 C 0.49186 0.47456 0.3756 0.0
C655 C 0.55757 0.53559 0.38637 0.0
C656 C 0.52635 0.5174 0.38638 0.0
C657 C 0.43595 0.46418 0.38651 0.0
C658 C 0.46712 0.48247 0.3865 0.0
H659 H 0.61377 0.56614 0.4121 0.0
H660 H 0.56223 0.53685 0.41207 0.0
H661 H 0.53992 0.48482 0.36716 0.0
H662 H 0.38054 0.43228 0.36076 0.0
H663 H 0.43159 0.46236 0.3608 0.0
C664 C 0.0894 0.08454 0.86005 0.0
C665 C 0.07517 0.11567 0.86053 0.0
C666 C 0.06998 0.05673 0.85879 0.0
C667 C 0.98686 0.02792 0.86676 0.0
H668 H 0.01238 0.95461 0.84044 0.0
C669 C 0.90521 0.91472 0.85949 0.0
C670 C 0.92083 0.88431 0.86041 0.0
C671 C 0.92339 0.94337 0.85829 0.0
C672 C 0.00507 0.9748 0.84793 0.0
H673 H 0.02934 0.14197 0.85965 0.0
H674 H 0.99558 0.09346 0.85733 0.0
H675 H 0.04547 0.00401 0.84046 0.0
H676 H 0.96787 0.86019 0.86056 0.0
H677 H -0.00052 0.91017 0.85866 0.0
H678 H 0.94673 -0.00135 0.87438 0.0
C679 C 0.02173 0.09057 0.85816 0.0
C680 C 0.02401 0.00307 0.84794 0.0
C681 C 0.04112 0.11837 0.85942 0.0
C682 C 0.95502 0.88318 0.85986 0.0
C683 C 0.97317 0.91183 0.85867 0.0
C684 C 0.96795 -0.00033 0.86675 0.0
C685 C 0.03592 0.05943 0.85797 0.0
C686 C 0.01522 0.02985 0.85744 0.0
C687 C 0.95757 0.94225 0.85798 0.0
C688 C 0.97696 0.97272 0.85742 0.0
H689 H 0.11554 0.08156 0.86088 0.0
H690 H 0.08162 0.03305 0.85884 0.0
H691 H 0.97972 0.04794 0.87439 0.0
H692 H 0.87891 0.91647 0.85978 0.0
H693 H 0.91065 0.96642 0.85757 0.0
C694 C 0.11408 0.95266 0.35792 0.0
C695 C 0.11168 0.91867 0.35965 0.0
C696 C 0.08616 0.97178 0.35662 0.0
C697 C -0.0016 0.96901 0.34743 0.0
H698 H 0.99576 0.04793 0.37279 0.0
C699 C 0.88017 0.04151 0.35884 0.0
C700 C 0.88221 0.07571 0.35916 0.0
C701 C 0.90827 0.02255 0.35763 0.0
C702 C 0.99626 0.02625 0.36544 0.0
H703 H 0.07794 0.87806 0.36096 0.0
H704 H 0.02909 0.91161 0.35882 0.0
H705 H 0.04449 0.01428 0.37295 0.0
H706 H 0.91541 0.11678 0.35796 0.0
H707 H 0.96438 0.08367 0.35567 0.0
H708 H 0.94999 0.98095 0.34001 0.0
C709 C 0.05268 0.92336 0.35835 0.0
C710 C 0.02418 0.00693 0.36555 0.0
C711 C 0.08066 0.90417 0.35967 0.0
C712 C 0.91296 0.09051 0.35787 0.0
C713 C 0.94105 0.07153 0.35664 0.0
C714 C 0.97043 0.98839 0.3473 0.0
C715 C 0.05515 0.95741 0.35702 0.0
C716 C 0.02555 0.97807 0.35658 0.0
C717 C 0.93906 0.03734 0.35669 0.0
C718 C 0.96903 0.01718 0.35635 0.0
H719 H 0.13756 0.96466 0.35774 0.0
H720 H 0.08887 -0.0021 0.35534 0.0
H721 H -0.00111 0.9471 0.34025 0.0
H722 H 0.85689 0.02929 0.35982 0.0
H723 H 0.90592 0.99628 0.35788 0.0
C724 C 0.5441 0.38315 0.1421 0.0
C725 C 0.57812 0.3861 0.14098 0.0
C726 C 0.52451 0.4108 0.14329 0.0
C727 C 0.52585 0.49823 0.15345 0.0
H728 H 0.44842 0.50151 0.1271 0.0
C729 C 0.45432 0.61682 0.14195 0.0
C730 C 0.42017 0.61493 0.14132 0.0
C731 C 0.47308 0.58858 0.14312 0.0
C732 C 0.46968 0.5008 0.13471 0.0
H733 H 0.61826 0.42048 0.14054 0.0
H734 H 0.58394 0.46879 0.14248 0.0
H735 H 0.48227 0.45285 0.12694 0.0
H736 H 0.37894 0.58185 0.14185 0.0
H737 H 0.41175 0.53261 0.14404 0.0
H738 H 0.51334 0.54636 0.16112 0.0
C739 C 0.5725 0.44502 0.14258 0.0
C740 C 0.4891 0.47293 0.13461 0.0
C741 C 0.59214 0.41734 0.14137 0.0
C742 C 0.40519 0.58418 0.1422 0.0
C743 C 0.42399 0.55594 0.14338 0.0
C744 C 0.50639 0.52613 0.15357 0.0
C745 C 0.53846 0.44203 0.14341 0.0
C746 C 0.51747 0.47139 0.14392 0.0
C747 C 0.45814 0.55782 0.14371 0.0
C748 C 0.47818 0.52778 0.14413 0.0
H749 H 0.53247 0.35947 0.14193 0.0
H750 H 0.49838 0.4077 0.14415 0.0
H751 H 0.54733 0.49758 0.16092 0.0
H752 H 0.46667 0.64009 0.14129 0.0
H753 H 0.49935 0.59083 0.14316 0.0
C754 C 0.4099 0.40859 0.64117 0.0
C755 C 0.37893 0.42313 0.64069 0.0
C756 C 0.43787 0.42776 0.64256 0.0
C757 C 0.46759 0.51084 0.63507 0.0
H758 H 0.5397 0.48469 0.66195 0.0
C759 C 0.58073 0.59209 0.64323 0.0
C760 C 0.61107 0.57632 0.64252 0.0
C761 C 0.55199 0.57402 0.64432 0.0
C762 C 0.51986 0.49218 0.6543 0.0
H763 H 0.35311 0.46926 0.6416 0.0
H764 H 0.40186 0.50255 0.64411 0.0
H765 H 0.49027 0.45171 0.66133 0.0
H766 H 0.63496 0.52914 0.64272 0.0
H767 H 0.58489 0.49773 0.64441 0.0
H768 H 0.49723 0.55102 0.62785 0.0
C769 C 0.40451 0.47636 0.64321 0.0
C770 C 0.49157 0.47329 0.65395 0.0
C771 C 0.37657 0.45723 0.64185 0.0
C772 C 0.61203 0.54211 0.64325 0.0
C773 C 0.58331 0.52406 0.64432 0.0
C774 C 0.49587 0.52968 0.6354 0.0
C775 C 0.43548 0.46187 0.64347 0.0
C776 C 0.4652 0.48234 0.64426 0.0
C777 C 0.55295 0.53979 0.64471 0.0
C778 C 0.5224 0.52048 0.64495 0.0
H779 H 0.41261 0.3824 0.64031 0.0
H780 H 0.46141 0.4159 0.64256 0.0
H781 H 0.44789 0.51819 0.62729 0.0
H782 H 0.5791 0.61841 0.6428 0.0
H783 H 0.529 0.58687 0.64483 0.0
C784 C 0.13999 0.20998 0.04212 0.0
C785 C 0.11165 0.22458 0.04823 0.0
C786 C 0.14671 0.21098 0.0258 0.0
C787 C 0.1262 0.25514 0.98875 0.0
H788 H 0.15348 0.17543 0.96788 0.0
C789 C 0.11696 0.23642 0.92096 0.0
C790 C 0.14072 0.21756 0.91318 0.0
C791 C 0.11734 0.23988 0.93749 0.0
C792 C 0.14646 0.19807 0.97354 0.0
H793 H 0.06837 0.25202 0.04198 0.0
H794 H 0.08003 0.2536 0.01355 0.0
H795 H 0.14658 0.17629 0.99669 0.0
H796 H 0.18442 0.18877 0.91671 0.0
H797 H 0.18529 0.19519 0.94559 0.0
H798 H 0.12569 0.27684 0.96558 0.0
C799 C 0.0972 0.24164 0.02139 0.0
C800 C 0.14244 0.19853 0.99006 0.0
C801 C 0.09041 0.24053 0.03768 0.0
C802 C 0.16562 0.2033 0.92231 0.0
C803 C 0.16601 0.2068 0.93888 0.0
C804 C 0.13032 0.25472 0.97223 0.0
C805 C 0.12534 0.22674 0.01525 0.0
C806 C 0.13179 0.22693 0.99783 0.0
C807 C 0.14154 0.22467 0.94669 0.0
C808 C 0.14002 0.22604 0.96439 0.0
H809 H 0.15695 0.19762 0.04993 0.0
H810 H 0.16875 0.19955 0.02146 0.0
H811 H 0.11851 0.27756 0.99441 0.0
H812 H 0.09739 0.24776 0.91434 0.0
H813 H 0.09789 0.25349 0.9431 0.0
C814 C 0.79073 0.16703 0.42103 0.0
C815 C 0.77988 0.13997 0.41222 0.0
C816 C 0.78675 0.16796 0.43758 0.0
C817 C 0.78043 0.11282 0.47145 0.0
H818 H 0.75039 0.18826 0.49507 0.0
C819 C 0.79348 0.12224 0.53941 0.0
C820 C 0.76543 0.13148 0.54786 0.0
C821 C 0.79462 0.12505 0.52286 0.0
C822 C 0.75872 0.16702 0.4886 0.0
H823 H 0.7552 0.09327 0.41388 0.0
H824 H 0.74855 0.09493 0.44263 0.0
H825 H 0.75221 0.19011 0.46589 0.0
H826 H 0.7169 0.15177 0.5456 0.0
H827 H 0.71906 0.1569 0.5166 0.0
H828 H 0.78712 0.08973 0.49404 0.0
C829 C 0.76032 0.11526 0.43676 0.0
C830 C 0.75996 0.16815 0.47195 0.0
C831 C 0.76402 0.11444 0.42026 0.0
C832 C 0.73881 0.14431 0.53942 0.0
C833 C 0.74009 0.14744 0.52285 0.0
C834 C 0.77956 0.11183 0.48804 0.0
C835 C 0.77213 0.14174 0.44561 0.0
C836 C 0.7707 0.14098 0.46323 0.0
C837 C 0.76787 0.13745 0.51441 0.0
C838 C 0.76869 0.13887 0.49679 0.0
H839 H 0.80293 0.18716 0.4152 0.0
H840 H 0.79617 0.18862 0.44414 0.0
H841 H 0.78913 0.09164 0.46504 0.0
H842 H 0.81445 0.11235 0.54555 0.0
H843 H 0.81647 0.11748 0.51666 0.0
C844 C 0.82786 0.78814 0.92015 0.0
C845 C 0.85567 0.77799 0.91174 0.0
C846 C 0.82555 0.78324 0.93659 0.0
C847 C 0.86294 0.73805 0.97045 0.0
H848 H 0.82992 0.81042 0.99531 0.0
C849 C 0.85666 0.73365 0.03923 0.0
C850 C 0.86571 0.7622 0.04734 0.0
C851 C 0.85223 0.73393 0.02272 0.0
C852 C 0.83938 0.79004 0.98856 0.0
H853 H 0.90244 0.75382 0.91401 0.0
H854 H 0.89871 0.74593 0.94259 0.0
H855 H 0.82817 0.81303 0.9664 0.0
H856 H 0.8772 0.81344 0.04446 0.0
H857 H 0.87023 0.81379 0.01572 0.0
H858 H 0.87556 0.71574 0.99262 0.0
C859 C 0.8784 0.7572 0.9365 0.0
C860 C 0.83793 0.79133 0.97195 0.0
C861 C 0.88063 0.76193 0.92008 0.0
C862 C 0.87011 0.79104 0.0386 0.0
C863 C 0.86586 0.79129 0.02211 0.0
C864 C 0.86455 0.73684 0.98706 0.0
C865 C 0.85105 0.7682 0.94501 0.0
C866 C 0.8501 0.76554 0.96268 0.0
C867 C 0.85689 0.76275 0.01394 0.0
C868 C 0.8532 0.76303 0.99632 0.0
H869 H 0.80807 0.80037 0.91409 0.0
H870 H 0.8039 0.79152 0.94272 0.0
H871 H 0.87213 0.71755 0.96369 0.0
H872 H 0.85289 0.71105 0.04563 0.0
H873 H 0.84492 0.71161 0.01685 0.0
C874 C 0.22802 0.88369 0.42113 0.0
C875 C 0.21412 0.85697 0.41314 0.0
C876 C 0.23151 0.88338 0.43765 0.0
C877 C 0.2362 0.83117 0.47289 0.0
H878 H 0.20198 0.90675 0.49502 0.0
C879 C 0.25615 0.8576 0.5402 0.0
C880 C 0.22839 0.86719 0.54879 0.0
C881 C 0.2549 0.8544 0.52363 0.0
C882 C 0.21153 0.88546 0.489 0.0
H883 H 0.19431 0.80838 0.41624 0.0
H884 H 0.20088 0.80776 0.4452 0.0
H885 H 0.20004 0.90462 0.46599 0.0
H886 H 0.17748 0.8806 0.54678 0.0
H887 H 0.17551 0.87551 0.51785 0.0
H888 H 0.24786 0.81216 0.496 0.0
C889 C 0.20886 0.82896 0.43858 0.0
C890 C 0.21068 0.88435 0.4724 0.0
C891 C 0.205 0.82939 0.42203 0.0
C892 C 0.1993 0.87321 0.54051 0.0
C893 C 0.19818 0.87043 0.52395 0.0
C894 C 0.23749 0.83248 0.48953 0.0
C895 C 0.22154 0.85624 0.44656 0.0
C896 C 0.22293 0.85719 0.46418 0.0
C897 C 0.22599 0.86116 0.51534 0.0
C898 C 0.225 0.85959 0.49773 0.0
H899 H 0.2354 0.90532 0.41468 0.0
H900 H 0.24171 0.90458 0.4435 0.0
H901 H 0.24591 0.81001 0.46681 0.0
H902 H 0.27889 0.85267 0.54625 0.0
H903 H 0.27673 0.84741 0.51726 0.0
C904 C 0.6678 0.29581 0.07997 0.0
C905 C 0.6428 0.28175 0.08912 0.0
C906 C 0.66856 0.29158 0.06345 0.0
C907 C 0.63365 0.24213 0.03046 0.0
H908 H 0.64898 0.31994 0.00538 0.0
C909 C 0.59158 0.25484 0.96537 0.0
C910 C 0.61248 0.27044 0.95454 0.0
C911 C 0.59904 0.25401 0.98158 0.0
C912 C 0.64512 0.29787 0.01219 0.0
H913 H 0.59973 0.25115 0.08809 0.0
H914 H 0.60083 0.24421 0.05941 0.0
H915 H 0.65615 0.32176 0.03416 0.0
H916 H 0.65789 0.29705 0.95223 0.0
H917 H 0.67083 0.29568 0.98059 0.0
H918 H 0.62172 0.21853 0.00849 0.0
C919 C 0.62009 0.25819 0.06496 0.0
C920 C 0.6493 0.29887 0.02869 0.0
C921 C 0.61935 0.26236 0.08145 0.0
C922 C 0.64119 0.28495 0.96027 0.0
C923 C 0.64857 0.28427 0.97652 0.0
C924 C 0.62935 0.24116 0.01397 0.0
C925 C 0.64437 0.27319 0.05572 0.0
C926 C 0.64311 0.27116 0.03806 0.0
C927 C 0.62752 0.26887 0.98735 0.0
C928 C 0.63455 0.26916 0.00469 0.0
H929 H 0.68638 0.31072 0.08551 0.0
H930 H 0.68787 0.30306 0.0567 0.0
H931 H 0.62923 0.22019 0.03729 0.0
H932 H 0.56929 0.2434 0.96135 0.0
H933 H 0.58212 0.24233 0.98966 0.0
C934 C 0.73172 0.60985 0.58186 0.0
C935 C 0.71632 0.63595 0.58967 0.0
C936 C 0.73583 0.61021 0.56536 0.0
C937 C 0.738 0.66282 0.52996 0.0
H938 H 0.71021 0.58469 0.5078 0.0
C939 C 0.75779 0.64057 0.46228 0.0
C940 C 0.73082 0.62833 0.4539 0.0
C941 C 0.75708 0.64283 0.4789 0.0
C942 C 0.71798 0.60669 0.51382 0.0
H943 H 0.69442 0.68355 0.58627 0.0
H944 H 0.7019 0.68421 0.55741 0.0
H945 H 0.70806 0.58658 0.53681 0.0
H946 H 0.68187 0.6091 0.45637 0.0
H947 H 0.68084 0.61274 0.48534 0.0
H948 H 0.74778 0.68291 0.50687 0.0
C949 C 0.71069 0.66347 0.56412 0.0
C950 C 0.71704 0.60767 0.53042 0.0
C951 C 0.70629 0.66301 0.58064 0.0
C952 C 0.70308 0.61859 0.46246 0.0
C953 C 0.70252 0.62052 0.47906 0.0
C954 C 0.7393 0.6617 0.51332 0.0
C955 C 0.72492 0.63677 0.5563 0.0
C956 C 0.72689 0.63577 0.53867 0.0
C957 C 0.72954 0.63254 0.48745 0.0
C958 C 0.72906 0.63369 0.50509 0.0
H959 H 0.73988 0.58865 0.58841 0.0
H960 H 0.74727 0.58948 0.55966 0.0
H961 H 0.74587 0.68473 0.53603 0.0
H962 H 0.77948 0.64837 0.45602 0.0
H963 H 0.77832 0.65202 0.48509 0.0
C964 C 0.38045 0.73671 0.08133 0.0
C965 C 0.35605 0.71877 0.08915 0.0
C966 C 0.37994 0.74034 0.06481 0.0
C967 C 0.34869 0.69975 0.02891 0.0
H968 H 0.38036 0.77768 0.00791 0.0
C969 C 0.35665 0.71059 0.96036 0.0
C970 C 0.38596 0.72341 0.95439 0.0
C971 C 0.3496 0.71224 0.97663 0.0
C972 C 0.37159 0.75571 0.01361 0.0
H973 H 0.31107 0.69193 0.08575 0.0
H974 H 0.30997 0.6987 0.05689 0.0
H975 H 0.37295 0.77759 0.03673 0.0
H976 H 0.43062 0.7484 0.9608 0.0
H977 H 0.41835 0.75113 0.98914 0.0
H978 H 0.34773 0.67776 0.00581 0.0
C979 C 0.32984 0.70941 0.06355 0.0
C980 C 0.36734 0.75564 0.03012 0.0
C981 C 0.33037 0.70571 0.0801 0.0
C982 C 0.40784 0.73827 0.965 0.0
C983 C 0.40071 0.74005 0.98124 0.0
C984 C 0.35281 0.69987 0.0124 0.0
C985 C 0.35496 0.72624 0.05568 0.0
C986 C 0.35637 0.72748 0.038 0.0
C987 C 0.3716 0.72692 0.98725 0.0
C988 C 0.36482 0.72767 0.0046 0.0
H989 H 0.40062 0.74711 0.08789 0.0
H990 H 0.39989 0.75312 0.05915 0.0
H991 H 0.34066 0.67748 0.0346 0.0
H992 H 0.3392 0.69911 0.9525 0.0
H993 H 0.32684 0.70216 0.98089 0.0
C994 C 0.25761 0.3842 0.58086 0.0
C995 C 0.27403 0.35878 0.58871 0.0
C996 C 0.25347 0.38354 0.56437 0.0
C997 C 0.25389 0.33081 0.52893 0.0
H998 H 0.27915 0.40997 0.50692 0.0
C999 C 0.23573 0.35212 0.46101 0.0
C1000 C 0.26252 0.36547 0.45288 0.0
C1001 C 0.23585 0.34988 0.47764 0.0
C1002 C 0.27208 0.38768 0.5129 0.0
H1003 H 0.29758 0.31194 0.5854 0.0
H1004 H 0.2901 0.31077 0.55653 0.0
H1005 H 0.28055 0.4082 0.53593 0.0
H1006 H 0.31054 0.38668 0.45583 0.0
H1007 H 0.31053 0.38307 0.48479 0.0
H1008 H 0.24563 0.3103 0.50578 0.0
C1009 C 0.28053 0.33122 0.56321 0.0
C1010 C 0.27258 0.38676 0.5295 0.0
C1011 C 0.28494 0.33198 0.57973 0.0
C1012 C 0.28948 0.37632 0.46172 0.0
C1013 C 0.28943 0.37441 0.47831 0.0
C1014 C 0.25303 0.33186 0.51228 0.0
C1015 C 0.26539 0.35734 0.55534 0.0
C1016 C 0.26367 0.35828 0.5377 0.0
C1017 C 0.26259 0.36131 0.48645 0.0
C1018 C 0.2624 0.36024 0.5041 0.0
H1019 H 0.24874 0.40517 0.58738 0.0
H1020 H 0.2413 0.4038 0.55864 0.0
H1021 H 0.24676 0.3086 0.53496 0.0
H1022 H 0.21464 0.34345 0.45455 0.0
H1023 H 0.21476 0.33984 0.48363 0.0
C1024 C 0.13534 0.26158 0.2013 0.0
C1025 C 0.14704 0.23068 0.19696 0.0
C1026 C 0.14864 0.27802 0.21437 0.0
C1027 C 0.22331 0.28464 0.23737 0.0
H1028 H 0.16965 0.31758 0.27178 0.0
C1029 C 0.27973 0.32377 0.29673 0.0
C1030 C 0.26585 0.34968 0.30524 0.0
C1031 C 0.26446 0.31138 0.2832 0.0
C1032 C 0.18499 0.30909 0.26215 0.0
H1033 H 0.18131 0.19248 0.2029 0.0
H1034 H 0.20499 0.22145 0.22553 0.0
H1035 H 0.14398 0.29228 0.24861 0.0
H1036 H 0.2257 0.38381 0.30598 0.0
H1037 H 0.1992 0.36269 0.28205 0.0
H1038 H 0.26428 0.30179 0.25054 0.0
C1039 C 0.18556 0.23293 0.21886 0.0
C1040 C 0.17024 0.29449 0.24893 0.0
C1041 C 0.1719 0.2163 0.206 0.0
C1042 C 0.23659 0.36338 0.29981 0.0
C1043 C 0.22143 0.35124 0.28611 0.0
C1044 C 0.23801 0.29963 0.25043 0.0
C1045 C 0.17417 0.26398 0.22312 0.0
C1046 C 0.18934 0.2816 0.23658 0.0
C1047 C 0.23518 0.325 0.27764 0.0
C1048 C 0.21913 0.31146 0.26316 0.0
H1049 H 0.1158 0.27292 0.19467 0.0
H1050 H 0.13944 0.30193 0.21746 0.0
H1051 H 0.23853 0.27535 0.22787 0.0
H1052 H 0.30217 0.31258 0.30074 0.0
H1053 H 0.27546 0.29071 0.27727 0.0
C1054 C 0.7593 0.12978 0.71027 0.0
C1055 C 0.75028 0.13946 0.69486 0.0
C1056 C 0.74331 0.14247 0.72359 0.0
C1057 C 0.69443 0.21362 0.73604 0.0
H1058 H 0.67754 0.16118 0.77354 0.0
C1059 C 0.62511 0.26396 0.79054 0.0
C1060 C 0.63906 0.25731 0.80546 0.0
C1061 C 0.6363 0.24809 0.77687 0.0
C1062 C 0.68224 0.17613 0.76317 0.0
H1063 H 0.71826 0.17121 0.6814 0.0
H1064 H 0.68941 0.19211 0.70448 0.0
H1065 H 0.70106 0.13579 0.7499 0.0
H1066 H 0.67697 0.23001 0.81752 0.0
H1067 H 0.69584 0.2018 0.79381 0.0
H1068 H 0.67565 0.25393 0.74932 0.0
C1069 C 0.70887 0.17473 0.70633 0.0
C1070 C 0.69578 0.16163 0.74964 0.0
C1071 C 0.72499 0.16218 0.69304 0.0
C1072 C 0.66462 0.23465 0.80639 0.0
C1073 C 0.67567 0.21865 0.79275 0.0
C1074 C 0.68071 0.22804 0.74952 0.0
C1075 C 0.71804 0.1653 0.72178 0.0
C1076 C 0.70229 0.18026 0.73595 0.0
C1077 C 0.66176 0.22532 0.77783 0.0
C1078 C 0.67473 0.20953 0.76327 0.0
H1079 H 0.779 0.11262 0.71204 0.0
H1080 H 0.75141 0.13508 0.73531 0.0
H1081 H 0.69965 0.22886 0.72583 0.0
H1082 H 0.6055 0.28145 0.78944 0.0
H1083 H 0.625 0.25362 0.76554 0.0
C1084 C 0.72729 0.63427 0.29104 0.0
C1085 C 0.7367 0.64594 0.30607 0.0
C1086 C 0.74263 0.64553 0.27724 0.0
C1087 C 0.81632 0.68804 0.26266 0.0
H1088 H 0.76108 0.7109 0.22695 0.0
C1089 C 0.86134 0.76576 0.20958 0.0
C1090 C 0.85019 0.7574 0.19431 0.0
C1091 C 0.84901 0.75001 0.22306 0.0
C1092 C 0.77695 0.70419 0.23671 0.0
H1093 H 0.76869 0.67972 0.3183 0.0
H1094 H 0.79576 0.69893 0.29432 0.0
H1095 H 0.73702 0.68684 0.25067 0.0
H1096 H 0.81624 0.72691 0.18131 0.0
H1097 H 0.79569 0.69865 0.20465 0.0
H1098 H 0.85624 0.70565 0.2487 0.0
C1099 C 0.77713 0.6804 0.29322 0.0
C1100 C 0.76314 0.6904 0.25032 0.0
C1101 C 0.76174 0.66917 0.30701 0.0
C1102 C 0.82631 0.73311 0.1928 0.0
C1103 C 0.81403 0.71732 0.20625 0.0
C1104 C 0.83017 0.70178 0.24901 0.0
C1105 C 0.76757 0.6689 0.27817 0.0
C1106 C 0.78261 0.68232 0.26348 0.0
C1107 C 0.82502 0.72575 0.22155 0.0
C1108 C 0.81062 0.71018 0.2359 0.0
H1109 H 0.70795 0.61646 0.28994 0.0
H1110 H 0.73489 0.63598 0.26583 0.0
H1111 H 0.83202 0.68171 0.27254 0.0
H1112 H 0.87947 0.78466 0.21111 0.0
H1113 H 0.85766 0.75747 0.23468 0.0
C1114 C 0.33004 0.75639 0.80642 0.0
C1115 C 0.35504 0.73312 0.80541 0.0
C1116 C 0.31866 0.77205 0.79276 0.0
C1117 C 0.30991 0.7608 0.74996 0.0
H1118 H 0.29531 0.85413 0.7492 0.0
C1119 C 0.264 0.82543 0.69344 0.0
C1120 C 0.24107 0.85049 0.6954 0.0
C1121 C 0.28039 0.81253 0.70656 0.0
C1122 C 0.2989 0.828 0.74927 0.0
H1123 H 0.38705 0.70736 0.7892 0.0
H1124 H 0.36674 0.73442 0.76525 0.0
H1125 H 0.31931 0.82888 0.77274 0.0
H1126 H 0.21673 0.88106 0.71274 0.0
H1127 H 0.24452 0.85787 0.73571 0.0
H1128 H 0.28861 0.75953 0.72678 0.0
C1129 C 0.35631 0.7408 0.77668 0.0
C1130 C 0.31277 0.8136 0.76273 0.0
C1131 C 0.36794 0.72537 0.79038 0.0
C1132 C 0.23456 0.86203 0.71082 0.0
C1133 C 0.25073 0.84892 0.72397 0.0
C1134 C 0.29575 0.77512 0.73657 0.0
C1135 C 0.33156 0.76431 0.77775 0.0
C1136 C 0.31826 0.77984 0.76323 0.0
C1137 C 0.27377 0.82389 0.72202 0.0
C1138 C 0.28992 0.80889 0.73608 0.0
H1139 H 0.31837 0.76185 0.81763 0.0
H1140 H 0.29903 0.78951 0.79388 0.0
H1141 H 0.31345 0.73466 0.75012 0.0
H1142 H 0.2687 0.81491 0.68188 0.0
H1143 H 0.29811 0.79343 0.70457 0.0
C1144 C 0.8311 0.71175 0.80943 0.0
C1145 C 0.83403 0.74528 0.81229 0.0
C1146 C 0.82327 0.70038 0.7942 0.0
C1147 C 0.82362 0.72396 0.75178 0.0
H1148 H 0.75524 0.6594 0.74761 0.0
C1149 C 0.73059 0.6729 0.70087 0.0
C1150 C 0.75222 0.6666 0.68833 0.0
C1151 C 0.74237 0.68067 0.71599 0.0
C1152 C 0.77436 0.67746 0.74859 0.0
H1153 H 0.83205 0.79324 0.80165 0.0
H1154 H 0.81827 0.77351 0.77502 0.0
H1155 H 0.77301 0.67644 0.77407 0.0
H1156 H 0.8029 0.66334 0.68154 0.0
H1157 H 0.82375 0.67718 0.70808 0.0
H1158 H 0.82452 0.72544 0.72629 0.0
C1159 C 0.82206 0.75594 0.78446 0.0
C1160 C 0.78475 0.68697 0.76374 0.0
C1161 C 0.82964 0.76726 0.79969 0.0
C1162 C 0.78585 0.66819 0.69109 0.0
C1163 C 0.79769 0.67622 0.70621 0.0
C1164 C 0.81341 0.71426 0.73663 0.0
C1165 C 0.81859 0.72239 0.78156 0.0
C1166 C 0.80918 0.71065 0.76549 0.0
C1167 C 0.77604 0.68245 0.71883 0.0
C1168 C 0.78835 0.69124 0.73488 0.0
H1169 H 0.83451 0.69443 0.81901 0.0
H1170 H 0.82101 0.67439 0.79228 0.0
H1171 H 0.84273 0.74204 0.75277 0.0
H1172 H 0.70454 0.67154 0.699 0.0
H1173 H 0.7251 0.68571 0.72542 0.0
C1174 C 0.22703 0.81884 0.30199 0.0
C1175 C 0.24952 0.82628 0.314 0.0
C1176 C 0.2377 0.81031 0.28678 0.0
C1177 C 0.30773 0.81557 0.25943 0.0
H1178 H 0.26448 0.74346 0.23839 0.0
C1179 C 0.32757 0.78315 0.19283 0.0
C1180 C 0.32939 0.74991 0.18908 0.0
C1181 C 0.31928 0.79307 0.20825 0.0
C1182 C 0.27699 0.7635 0.24414 0.0
H1183 H 0.30064 0.83126 0.31965 0.0
H1184 H 0.31957 0.81616 0.29294 0.0
H1185 H 0.24761 0.75941 0.26504 0.0
H1186 H 0.32536 0.70094 0.19841 0.0
H1187 H 0.31085 0.71808 0.22532 0.0
H1188 H 0.3374 0.8193 0.23851 0.0
C1189 C 0.29365 0.81711 0.29526 0.0
C1190 C 0.26707 0.77287 0.25935 0.0
C1191 C 0.2829 0.8256 0.31052 0.0
C1192 C 0.32349 0.72674 0.20099 0.0
C1193 C 0.31518 0.73657 0.21636 0.0
C1194 C 0.31761 0.80623 0.24415 0.0
C1195 C 0.27113 0.80912 0.28326 0.0
C1196 C 0.28224 0.79906 0.26716 0.0
C1197 C 0.31266 0.76984 0.22015 0.0
C1198 C 0.30235 0.78005 0.23635 0.0
H1199 H 0.20112 0.81981 0.30434 0.0
H1200 H 0.21972 0.8049 0.27773 0.0
H1201 H 0.31973 0.83601 0.2651 0.0
H1202 H 0.33206 0.8014 0.18378 0.0
H1203 H 0.31729 0.81887 0.21077 0.0
C1204 C 0.17282 0.28468 0.81069 0.0
C1205 C 0.16942 0.25125 0.81367 0.0
C1206 C 0.18065 0.29575 0.7954 0.0
C1207 C 0.17881 0.27123 0.75308 0.0
H1208 H 0.24509 0.33764 0.74789 0.0
C1209 C 0.26688 0.32553 0.70069 0.0
C1210 C 0.24423 0.33019 0.68841 0.0
C1211 C 0.25642 0.31757 0.71603 0.0
C1212 C 0.22659 0.31902 0.74914 0.0
H1213 H 0.17088 0.20312 0.80319 0.0
H1214 H 0.18485 0.22228 0.7765 0.0
H1215 H 0.22936 0.32025 0.7746 0.0
H1216 H 0.19307 0.33064 0.68237 0.0
H1217 H 0.17454 0.31666 0.70929 0.0
H1218 H 0.1765 0.26952 0.72763 0.0
C1219 C 0.18133 0.24004 0.78588 0.0
C1220 C 0.21735 0.3093 0.76445 0.0
C1221 C 0.17367 0.22903 0.80116 0.0
C1222 C 0.21092 0.32702 0.6917 0.0
C1223 C 0.2004 0.31889 0.70704 0.0
C1224 C 0.18791 0.28108 0.73778 0.0
C1225 C 0.18495 0.27353 0.78282 0.0
C1226 C 0.19361 0.28504 0.76658 0.0
C1227 C 0.22307 0.31406 0.71938 0.0
C1228 C 0.21216 0.30483 0.73564 0.0
H1229 H 0.16954 0.3022 0.8202 0.0
H1230 H 0.18299 0.3217 0.79339 0.0
H1231 H 0.16017 0.25274 0.75434 0.0
H1232 H 0.29271 0.32815 0.69842 0.0
H1233 H 0.27451 0.31366 0.72521 0.0
C1234 C 0.7288 0.20228 0.31217 0.0
C1235 C 0.7407 0.17059 0.31438 0.0
C1236 C 0.71738 0.21216 0.29726 0.0
C1237 C 0.68816 0.18135 0.25845 0.0
H1238 H 0.71815 0.26495 0.24275 0.0
C1239 C 0.67509 0.21986 0.19253 0.0
C1240 C 0.66777 0.25258 0.18943 0.0
C1241 C 0.68211 0.20969 0.20804 0.0
C1242 C 0.70914 0.24175 0.24702 0.0
H1243 H 0.74979 0.1242 0.30294 0.0
H1244 H 0.72958 0.14128 0.2769 0.0
H1245 H 0.73284 0.2476 0.26951 0.0
H1246 H 0.66071 0.3002 0.1999 0.0
H1247 H 0.67257 0.28255 0.22707 0.0
H1248 H 0.66449 0.17547 0.23593 0.0
C1249 C 0.72874 0.15845 0.28668 0.0
C1250 C 0.71758 0.23181 0.26237 0.0
C1251 C 0.74029 0.14866 0.30157 0.0
C1252 C 0.66684 0.27491 0.20205 0.0
C1253 C 0.67373 0.26479 0.21755 0.0
C1254 C 0.67959 0.19135 0.2431 0.0
C1255 C 0.71754 0.19044 0.28431 0.0
C1256 C 0.70733 0.20144 0.26823 0.0
C1257 C 0.6817 0.2321 0.22073 0.0
C1258 C 0.69011 0.22162 0.23717 0.0
H1259 H 0.72867 0.21951 0.32194 0.0
H1260 H 0.70851 0.23684 0.29585 0.0
H1261 H 0.67959 0.15796 0.2627 0.0
H1262 H 0.6758 0.20229 0.18291 0.0
H1263 H 0.68848 0.18442 0.21003 0.0
C1264 C 0.50571 0.20211 0.11892 0.0
C1265 C 0.51851 0.22193 0.13106 0.0
C1266 C 0.47215 0.19672 0.11788 0.0
C1267 C 0.39733 0.23941 0.12748 0.0
H1268 H 0.35323 0.15814 0.11814 0.0
C1269 C 0.25835 0.22974 0.12907 0.0
C1270 C 0.24275 0.2098 0.11788 0.0
C1271 C 0.29216 0.22977 0.13031 0.0
C1272 C 0.36526 0.1811 0.12051 0.0
H1273 H 0.50648 0.24919 0.15242 0.0
H1274 H 0.44813 0.23977 0.15056 0.0
H1275 H 0.41235 0.15856 0.12183 0.0
H1276 H 0.24998 0.17448 0.09907 0.0
H1277 H 0.30948 0.17531 0.10081 0.0
H1278 H 0.35082 0.26225 0.12585 0.0
C1279 C 0.46396 0.22892 0.1417 0.0
C1280 C 0.39903 0.18126 0.12271 0.0
C1281 C 0.4974 0.23417 0.14279 0.0
C1282 C 0.26156 0.19029 0.1077 0.0
C1283 C 0.29553 0.19046 0.10886 0.0
C1284 C 0.36378 0.23932 0.12513 0.0
C1285 C 0.45092 0.21116 0.12892 0.0
C1286 C 0.41527 0.21038 0.12642 0.0
C1287 C 0.31121 0.2101 0.12025 0.0
C1288 C 0.34722 0.21014 0.12183 0.0
H1289 H 0.52135 0.1922 0.10974 0.0
H1290 H 0.46268 0.18288 0.10792 0.0
H1291 H 0.40936 0.26235 0.12994 0.0
H1292 H 0.24431 0.24511 0.137 0.0
H1293 H 0.30331 0.24482 0.13939 0.0
C1294 C 0.81661 0.25399 0.62439 0.0
C1295 C 0.79049 0.2391 0.61648 0.0
C1296 C 0.81797 0.28787 0.6258 0.0
C1297 C 0.8211 0.36177 0.6203 0.0
H1298 H 0.74032 0.40277 0.63329 0.0
C1299 C 0.79645 0.50121 0.61989 0.0
C1300 C 0.77684 0.51369 0.63219 0.0
C1301 C 0.80281 0.46779 0.61895 0.0
C1302 C 0.76316 0.39166 0.62982 0.0
H1303 H 0.74621 0.24734 0.60317 0.0
H1304 H 0.74842 0.30676 0.6056 0.0
H1305 H 0.74173 0.34429 0.62867 0.0
H1306 H 0.75106 0.50137 0.65393 0.0
H1307 H 0.76234 0.44325 0.65232 0.0
H1308 H 0.84244 0.40945 0.62147 0.0
C1309 C 0.76764 0.29231 0.6109 0.0
C1310 C 0.76384 0.35824 0.62696 0.0
C1311 C 0.76642 0.25846 0.60943 0.0
C1312 C 0.76585 0.49248 0.64417 0.0
C1313 C 0.77217 0.45917 0.64323 0.0
C1314 C 0.82035 0.3954 0.62304 0.0
C1315 C 0.79312 0.30732 0.61934 0.0
C1316 C 0.79275 0.34294 0.62213 0.0
C1317 C 0.78966 0.44634 0.6303 0.0
C1318 C 0.79135 0.41062 0.62788 0.0
H1319 H 0.83562 0.23935 0.62975 0.0
H1320 H 0.83781 0.29876 0.63241 0.0
H1321 H 0.8437 0.35058 0.61654 0.0
H1322 H 0.8054 0.51693 0.6105 0.0
H1323 H 0.81635 0.45857 0.60885 0.0
C1324 C 0.49195 0.79858 0.1173 0.0
C1325 C 0.47963 0.78027 0.1301 0.0
C1326 C 0.52536 0.80465 0.11604 0.0
C1327 C 0.60178 0.76621 0.12777 0.0
H1328 H 0.64228 0.84495 0.11168 0.0
C1329 C 0.73892 0.82003 0.12034 0.0
C1330 C 0.75417 0.79256 0.11377 0.0
C1331 C 0.70504 0.82134 0.12154 0.0
C1332 C 0.63126 0.82285 0.11623 0.0
H1333 H 0.49225 0.75656 0.15235 0.0
H1334 H 0.55034 0.76746 0.15022 0.0
H1335 H 0.58359 0.84414 0.11687 0.0
H1336 H 0.74656 0.74583 0.10251 0.0
H1337 H 0.68711 0.74803 0.1045 0.0
H1338 H 0.64919 0.74489 0.12724 0.0
C1339 C 0.53432 0.77642 0.14096 0.0
C1340 C 0.59771 0.82235 0.11912 0.0
C1341 C 0.50101 0.77035 0.14222 0.0
C1342 C 0.73515 0.7671 0.10773 0.0
C1343 C 0.70128 0.76832 0.10897 0.0
C1344 C 0.63515 0.76665 0.1248 0.0
C1345 C 0.54698 0.79256 0.12757 0.0
C1346 C 0.58266 0.79401 0.12497 0.0
C1347 C 0.68591 0.79516 0.11619 0.0
C1348 C 0.65027 0.79492 0.11897 0.0
H1349 H 0.47611 0.80667 0.10779 0.0
H1350 H 0.5344 0.81714 0.10557 0.0
H1351 H 0.59084 0.74383 0.13203 0.0
H1352 H 0.7533 0.84009 0.1249 0.0
H1353 H 0.69392 0.84227 0.12721 0.0
C1354 C 0.22334 0.50273 0.64245 0.0
C1355 C 0.21118 0.48044 0.63124 0.0
C1356 C 0.21511 0.53563 0.64155 0.0
C1357 C 0.19029 0.59634 0.61185 0.0
H1358 H 0.18751 0.65289 0.6488 0.0
C1359 C 0.18014 0.73761 0.60823 0.0
C1360 C 0.20286 0.75428 0.6177 0.0
C1361 C 0.17624 0.7039 0.60981 0.0
C1362 C 0.18823 0.63735 0.63838 0.0
H1363 H 0.1789 0.47482 0.61099 0.0
H1364 H 0.16404 0.53233 0.6096 0.0
H1365 H 0.18648 0.59394 0.65241 0.0
H1366 H 0.23945 0.74911 0.63606 0.0
H1367 H 0.23244 0.69034 0.63896 0.0
H1368 H 0.19239 0.63997 0.59786 0.0
C1369 C 0.18056 0.52442 0.61886 0.0
C1370 C 0.18768 0.60362 0.64043 0.0
C1371 C 0.18889 0.49142 0.61974 0.0
C1372 C 0.22169 0.73676 0.62868 0.0
C1373 C 0.21755 0.70324 0.63039 0.0
C1374 C 0.19053 0.63013 0.6098 0.0
C1375 C 0.19435 0.54706 0.62948 0.0
C1376 C 0.18966 0.58268 0.62722 0.0
C1377 C 0.19464 0.68649 0.62106 0.0
C1378 C 0.19044 0.65091 0.62307 0.0
H1379 H 0.24046 0.49509 0.65152 0.0
H1380 H 0.22649 0.55234 0.64984 0.0
H1381 H 0.19225 0.58099 0.60141 0.0
H1382 H 0.16486 0.75073 0.59992 0.0
H1383 H 0.15831 0.69156 0.60253 0.0
C1384 C 0.99649 0.26876 0.85887 0.0
C1385 C 0.01662 0.27925 0.87139 0.0
C1386 C 0.96294 0.2737 0.85955 0.0
C1387 C 0.89616 0.3175 0.87934 0.0
H1388 H 0.84952 0.2364 0.87288 0.0
C1389 C 0.75895 0.30312 0.89395 0.0
C1390 C 0.74045 0.28431 0.88333 0.0
C1391 C 0.79287 0.30421 0.89257 0.0
C1392 C 0.86201 0.2594 0.8745 0.0
H1393 H 0.01766 0.30573 0.89375 0.0
H1394 H 0.95885 0.31448 0.89486 0.0
H1395 H 0.90812 0.23797 0.86918 0.0
H1396 H 0.74258 0.25176 0.86308 0.0
H1397 H 0.80144 0.25442 0.86029 0.0
H1398 H 0.84984 0.33903 0.88449 0.0
C1399 C 0.96914 0.30226 0.88459 0.0
C1400 C 0.89563 0.26027 0.87238 0.0
C1401 C 0.00279 0.29719 0.88396 0.0
C1402 C 0.75634 0.26656 0.87138 0.0
C1403 C 0.7901 0.26784 0.8699 0.0
C1404 C 0.86233 0.31673 0.88131 0.0
C1405 C 0.94883 0.28939 0.8727 0.0
C1406 C 0.91303 0.28931 0.8747 0.0
C1407 C 0.80884 0.28664 0.88049 0.0
C1408 C 0.84485 0.28765 0.87884 0.0
H1409 H 0.00638 0.25524 0.84891 0.0
H1410 H 0.94786 0.2641 0.85007 0.0
H1411 H 0.90905 0.3402 0.8812 0.0
H1412 H 0.74719 0.3174 0.90314 0.0
H1413 H 0.80657 0.31866 0.90103 0.0
C1414 C 0.67528 0.75805 0.38101 0.0
C1415 C 0.70211 0.74256 0.38803 0.0
C1416 C 0.67415 0.79199 0.38 0.0
C1417 C 0.67268 0.8658 0.38559 0.0
H1418 H 0.75282 0.9056 0.37086 0.0
C1419 C 0.69833 0.00508 0.38441 0.0
C1420 C 0.71706 0.01699 0.37166 0.0
C1421 C 0.69193 0.97173 0.38578 0.0
C1422 C 0.73016 0.89483 0.37483 0.0
H1423 H 0.74782 0.74977 0.40028 0.0
H1424 H 0.74596 0.80932 0.39857 0.0
H1425 H 0.75109 0.84724 0.37575 0.0
H1426 H 0.74125 0.00369 0.34962 0.0
H1427 H 0.72986 0.94569 0.35198 0.0
H1428 H 0.6518 0.91368 0.38457 0.0
C1429 C 0.72602 0.7953 0.39365 0.0
C1430 C 0.72931 0.86147 0.37785 0.0
C1431 C 0.72705 0.76137 0.39472 0.0
C1432 C 0.72713 0.99526 0.35971 0.0
C1433 C 0.72076 0.96201 0.36109 0.0
C1434 C 0.6736 0.89936 0.38267 0.0
C1435 C 0.6999 0.81091 0.38597 0.0
C1436 C 0.70061 0.84658 0.38327 0.0
C1437 C 0.70415 0.94977 0.37443 0.0
C1438 C 0.70234 0.91415 0.37718 0.0
H1439 H 0.65563 0.74383 0.37595 0.0
H1440 H 0.65379 0.80333 0.37397 0.0
H1441 H 0.65025 0.85494 0.3898 0.0
H1442 H 0.69011 0.0212 0.39379 0.0
H1443 H 0.67907 0.96298 0.3962 0.0
C1444 C 0.00383 0.72843 0.85985 0.0
C1445 C 0.98158 0.71724 0.87132 0.0
C1446 C 0.03669 0.72015 0.86086 0.0
C1447 C 0.09759 0.69775 0.89082 0.0
H1448 H 0.15327 0.68907 0.85378 0.0
C1449 C 0.23835 0.68498 0.89455 0.0
C1450 C 0.25568 0.7051 0.88402 0.0
C1451 C 0.20455 0.68188 0.89318 0.0
C1452 C 0.138 0.69151 0.86423 0.0
H1453 H 0.97602 0.68676 0.89225 0.0
H1454 H 0.03347 0.67192 0.89388 0.0
H1455 H 0.0943 0.68911 0.85045 0.0
H1456 H 0.25151 0.73829 0.8641 0.0
H1457 H 0.19259 0.73279 0.86161 0.0
H1458 H 0.14146 0.70064 0.90454 0.0
C1459 C 0.02553 0.68765 0.88429 0.0
C1460 C 0.10425 0.69153 0.86233 0.0
C1461 C 0.99258 0.69596 0.88328 0.0
C1462 C 0.23869 0.72236 0.87225 0.0
C1463 C 0.20505 0.71909 0.87079 0.0
C1464 C 0.13139 0.69753 0.89272 0.0
C1465 C 0.0481 0.70037 0.87333 0.0
C1466 C 0.08365 0.69551 0.87556 0.0
C1467 C 0.18764 0.69863 0.88115 0.0
C1468 C 0.15191 0.69527 0.8794 0.0
H1469 H 0.99616 0.74475 0.85044 0.0
H1470 H 0.05338 0.73066 0.85231 0.0
H1471 H 0.08248 0.70126 0.90125 0.0
H1472 H 0.25101 0.67102 0.90357 0.0
H1473 H 0.19174 0.66584 0.90128 0.0
C1474 C 0.31857 0.23829 0.3781 0.0
C1475 C 0.29304 0.25387 0.38617 0.0
C1476 C 0.31947 0.20434 0.37706 0.0
C1477 C 0.32196 0.13065 0.38319 0.0
H1478 H 0.24026 0.0903 0.3711 0.0
C1479 C 0.29623 0.99124 0.38362 0.0
C1480 C 0.27651 0.97902 0.37131 0.0
C1481 C 0.30264 0.02464 0.38471 0.0
C1482 C 0.26333 0.10123 0.37434 0.0
H1483 H 0.2493 0.24676 0.40006 0.0
H1484 H 0.25069 0.18721 0.39826 0.0
H1485 H 0.24244 0.14885 0.37557 0.0
H1486 H 0.25043 0.99186 0.34973 0.0
H1487 H 0.26173 0.04994 0.35162 0.0
H1488 H 0.34275 0.08275 0.38192 0.0
C1489 C 0.26984 0.20118 0.3926 0.0
C1490 C 0.26447 0.13469 0.37711 0.0
C1491 C 0.2691 0.23512 0.39372 0.0
C1492 C 0.26534 0.00051 0.35948 0.0
C1493 C 0.27167 0.03381 0.3606 0.0
C1494 C 0.32075 0.097 0.38055 0.0
C1495 C 0.29472 0.18549 0.38403 0.0
C1496 C 0.29376 0.14977 0.38156 0.0
C1497 C 0.28939 0.04635 0.37352 0.0
C1498 C 0.29142 0.08202 0.37602 0.0
H1499 H 0.33746 0.25244 0.37233 0.0
H1500 H 0.33883 0.19292 0.37032 0.0
H1501 H 0.34484 0.14168 0.38665 0.0
H1502 H 0.30531 0.97531 0.39289 0.0
H1503 H 0.31637 0.03365 0.39479 0.0
C1504 C 0.47023 0.78159 0.89717 0.0
C1505 C 0.4494 0.77634 0.88416 0.0
C1506 C 0.49872 0.79982 0.89531 0.0
C1507 C 0.55615 0.82063 0.86331 0.0
H1508 H 0.60089 0.86697 0.89705 0.0
C1509 C 0.68713 0.86638 0.85511 0.0
C1510 C 0.70853 0.85704 0.8673 0.0
C1511 C 0.6535 0.864 0.85727 0.0
C1512 C 0.58862 0.85413 0.88752 0.0
H1513 H 0.44029 0.78873 0.85946 0.0
H1514 H 0.48932 0.82146 0.85637 0.0
H1515 H 0.54405 0.85093 0.90066 0.0
H1516 H 0.71162 0.84079 0.89181 0.0
H1517 H 0.65292 0.83592 0.89549 0.0
H1518 H 0.60076 0.8232 0.85031 0.0
C1519 C 0.48438 0.81052 0.86785 0.0
C1520 C 0.55611 0.84489 0.88958 0.0
C1521 C 0.45617 0.79193 0.86964 0.0
C1522 C 0.69571 0.84709 0.88202 0.0
C1523 C 0.66208 0.84486 0.88422 0.0
C1524 C 0.58847 0.83005 0.86121 0.0
C1525 C 0.50673 0.81349 0.88045 0.0
C1526 C 0.53969 0.82739 0.87763 0.0
C1527 C 0.64065 0.85261 0.87174 0.0
C1528 C 0.60527 0.84628 0.87341 0.0
H1529 H 0.46568 0.76987 0.90851 0.0
H1530 H 0.51538 0.80138 0.90526 0.0
H1531 H 0.54464 0.80661 0.85395 0.0
H1532 H 0.69638 0.8745 0.8437 0.0
H1533 H 0.63755 0.87055 0.84751 0.0
C1534 C 0.20557 0.45908 0.37045 0.0
C1535 C 0.21691 0.44632 0.38497 0.0
C1536 C 0.18719 0.48773 0.37018 0.0
C1537 C 0.18152 0.56231 0.39306 0.0
H1538 H 0.11299 0.5848 0.36332 0.0
C1539 C 0.14066 0.69506 0.38628 0.0
C1540 C 0.13618 0.70596 0.37061 0.0
C1541 C 0.14299 0.66178 0.38954 0.0
C1542 C 0.13224 0.57895 0.37164 0.0
H1543 H 0.21518 0.45199 0.41066 0.0
H1544 H 0.18317 0.50192 0.41013 0.0
H1545 H 0.12954 0.52791 0.36628 0.0
H1546 H 0.12901 0.69093 0.34617 0.0
H1547 H 0.13427 0.63286 0.35169 0.0
H1548 H 0.18572 0.61312 0.39787 0.0
C1549 C 0.18895 0.49002 0.39897 0.0
C1550 C 0.14157 0.54636 0.37338 0.0
C1551 C 0.2072 0.46133 0.39925 0.0
C1552 C 0.13258 0.68305 0.35835 0.0
C1553 C 0.13537 0.64977 0.36156 0.0
C1554 C 0.17246 0.59482 0.39122 0.0
C1555 C 0.17986 0.50418 0.38441 0.0
C1556 C 0.16668 0.5378 0.38393 0.0
C1557 C 0.14125 0.63872 0.37717 0.0
C1558 C 0.14811 0.60369 0.38029 0.0
H1559 H 0.21236 0.448 0.35923 0.0
H1560 H 0.18062 0.4981 0.35877 0.0
H1561 H 0.20137 0.5566 0.40107 0.0
H1562 H 0.14257 0.71227 0.39601 0.0
H1563 H 0.14665 0.65418 0.40176 0.0
C1564 C 0.52611 0.2114 0.89794 0.0
C1565 C 0.54673 0.2165 0.88484 0.0
C1566 C 0.49785 0.19275 0.8963 0.0
C1567 C 0.44039 0.17035 0.86463 0.0
H1568 H 0.39633 0.12488 0.89888 0.0
C1569 C 0.30929 0.12505 0.85724 0.0
C1570 C 0.28816 0.13513 0.86942 0.0
C1571 C 0.34296 0.12692 0.85931 0.0
C1572 C 0.40842 0.13745 0.88921 0.0
H1573 H 0.55577 0.20344 0.86021 0.0
H1574 H 0.50714 0.16998 0.8575 0.0
H1575 H 0.45315 0.1413 0.90216 0.0
H1576 H 0.28555 0.15201 0.89384 0.0
H1577 H 0.34435 0.15603 0.89734 0.0
H1578 H 0.39562 0.1672 0.85182 0.0
C1579 C 0.51204 0.18136 0.86888 0.0
C1580 C 0.44091 0.14691 0.89108 0.0
C1581 C 0.54002 0.20038 0.87046 0.0
C1582 C 0.30126 0.14516 0.88406 0.0
C1583 C 0.33494 0.1469 0.88616 0.0
C1584 C 0.4081 0.1607 0.86273 0.0
C1585 C 0.48988 0.17849 0.88157 0.0
C1586 C 0.45706 0.16415 0.87894 0.0
C1587 C 0.35612 0.13856 0.87366 0.0
C1588 C 0.39153 0.14482 0.87511 0.0
H1589 H 0.53064 0.22352 0.90918 0.0
H1590 H 0.4813 0.19131 0.90631 0.0
H1591 H 0.45168 0.18415 0.85514 0.0
H1592 H 0.29981 0.11685 0.8459 0.0
H1593 H 0.35871 0.11991 0.84955 0.0
C1594 C 0.86771 0.31079 0.35664 0.0
C1595 C 0.85701 0.28926 0.36853 0.0
C1596 C 0.86522 0.34443 0.35882 0.0
C1597 C 0.85326 0.4089 0.38904 0.0
H1598 H 0.80878 0.45401 0.35485 0.0
C1599 C 0.781 0.52748 0.39817 0.0
C1600 C 0.77669 0.54873 0.38524 0.0
C1601 C 0.79917 0.49893 0.3964 0.0
C1602 C 0.82197 0.44219 0.36439 0.0
H1603 H 0.83796 0.28594 0.39253 0.0
H1604 H 0.83306 0.34468 0.39627 0.0
H1605 H 0.82522 0.39776 0.35122 0.0
H1606 H 0.79068 0.55844 0.3608 0.0
H1607 H 0.8233 0.50929 0.35787 0.0
H1608 H 0.84947 0.45325 0.40233 0.0
C1609 C 0.84314 0.33559 0.38521 0.0
C1610 C 0.83129 0.4098 0.36231 0.0
C1611 C 0.84541 0.30195 0.38297 0.0
C1612 C 0.79314 0.54227 0.37092 0.0
C1613 C 0.81166 0.51397 0.36921 0.0
C1614 C 0.84418 0.44147 0.39109 0.0
C1615 C 0.85241 0.35716 0.37304 0.0
C1616 C 0.84635 0.39259 0.37472 0.0
C1617 C 0.81374 0.49125 0.38171 0.0
C1618 C 0.82772 0.45829 0.37892 0.0
H1619 H 0.87707 0.30161 0.34544 0.0
H1620 H 0.87289 0.3605 0.3493 0.0
H1621 H 0.86523 0.3963 0.39874 0.0
H1622 H 0.76863 0.53176 0.40937 0.0
H1623 H 0.79999 0.48198 0.40626 0.0
C1624 C 0.96924 0.71395 0.10241 0.0
C1625 C 0.94815 0.71848 0.11539 0.0
C1626 C -0.00221 0.69579 0.10417 0.0
C1627 C 0.0548 0.67389 0.13613 0.0
H1628 H 0.10025 0.62909 0.10211 0.0
C1629 C 0.18587 0.62875 0.14441 0.0
C1630 C 0.20743 0.63853 0.13235 0.0
C1631 C 0.15227 0.63094 0.14214 0.0
C1632 C 0.08779 0.64151 0.11172 0.0
H1633 H 0.9387 0.70484 0.13991 0.0
H1634 H 0.98784 0.67228 0.14282 0.0
H1635 H 0.0434 0.64504 0.09846 0.0
H1636 H 0.21081 0.65535 0.10794 0.0
H1637 H 0.15215 0.65995 0.10408 0.0
H1638 H 0.09922 0.67104 0.14925 0.0
C1639 C 0.98303 0.68373 0.13145 0.0
C1640 C 0.05527 0.65068 0.10963 0.0
C1641 C 0.95474 0.70223 0.12975 0.0
C1642 C 0.19479 0.64871 0.11764 0.0
C1643 C 0.16118 0.65079 0.11533 0.0
C1644 C 0.08713 0.66455 0.13824 0.0
C1645 C 0.00561 0.68146 0.11891 0.0
C1646 C 0.03859 0.66762 0.1217 0.0
C1647 C 0.13958 0.64263 0.12769 0.0
C1648 C 0.1042 0.64887 0.12595 0.0
H1649 H 0.96483 0.72617 0.09118 0.0
H1650 H 0.01464 0.69478 0.09427 0.0
H1651 H 0.04308 0.68748 0.14558 0.0
H1652 H 0.19497 0.62044 0.15581 0.0
H1653 H 0.13621 0.62405 0.15179 0.0
C1654 C 0.34386 0.19685 0.61677 0.0
C1655 C 0.35497 0.20963 0.63129 0.0
C1656 C 0.34148 0.16319 0.61458 0.0
C1657 C 0.32883 0.08932 0.63783 0.0
H1658 H 0.34652 0.045 0.59798 0.0
C1659 C 0.29174 0.95635 0.63033 0.0
C1660 C 0.27496 0.94926 0.61617 0.0
C1661 C 0.30999 0.9849 0.6317 0.0
C1662 C 0.34137 0.05703 0.60918 0.0
H1663 H 0.37431 0.19735 0.65453 0.0
H1664 H 0.37014 0.1385 0.65073 0.0
H1665 H 0.36241 0.10202 0.60124 0.0
H1666 H 0.26603 0.96536 0.59198 0.0
H1667 H 0.29698 0.01562 0.5945 0.0
H1668 H 0.30646 0.04526 0.6456 0.0
C1669 C 0.36279 0.1545 0.64112 0.0
C1670 C 0.35051 0.08965 0.61104 0.0
C1671 C 0.3653 0.18814 0.64327 0.0
C1672 C 0.27868 0.97015 0.60305 0.0
C1673 C 0.29658 -0.00104 0.60449 0.0
C1674 C 0.3195 0.05689 0.63594 0.0
C1675 C 0.35023 0.14168 0.62688 0.0
C1676 C 0.34384 0.10626 0.6253 0.0
C1677 C 0.31146 0.00726 0.61903 0.0
C1678 C 0.32515 0.04045 0.62151 0.0
H1679 H 0.33676 0.21281 0.60713 0.0
H1680 H 0.33165 0.15407 0.60348 0.0
H1681 H 0.32287 0.10157 0.64888 0.0
H1682 H 0.28974 0.94045 0.64058 0.0
H1683 H 0.32188 0.99006 0.64292 0.0
C1684 C 0.8117 0.38288 0.12941 0.0
C1685 C 0.79309 0.35667 0.13514 0.0
C1686 C 0.8456 0.38025 0.12828 0.0
C1687 C 0.9134 0.35729 0.11761 0.0
H1688 H 0.95972 0.31041 0.15064 0.0
C1689 C 0.03103 0.2853 0.10661 0.0
C1690 C 0.05221 0.27935 0.11941 0.0
C1691 C 0.00318 0.30432 0.10878 0.0
C1692 C 0.94753 0.32421 0.14141 0.0
H1693 H 0.79539 0.3081 0.14518 0.0
H1694 H 0.85405 0.30308 0.14281 0.0
H1695 H 0.90321 0.32513 0.15471 0.0
H1696 H 0.06289 0.29159 0.14397 0.0
H1697 H 0.01491 0.32563 0.14761 0.0
H1698 H 0.9578 0.35601 0.10424 0.0
C1699 C 0.84267 0.32564 0.13912 0.0
C1700 C 0.9149 0.33221 0.14368 0.0
C1701 C 0.80894 0.32824 0.14018 0.0
C1702 C 0.04667 0.29527 0.13397 0.0
C1703 C 0.01909 0.31464 0.13607 0.0
C1704 C 0.94621 0.34936 0.11535 0.0
C1705 C 0.8614 0.35154 0.13311 0.0
C1706 C 0.89718 0.34782 0.1316 0.0
C1707 C 0.99619 0.31809 0.12374 0.0
C1708 C 0.96338 0.33183 0.12704 0.0
H1709 H 0.80001 0.40521 0.12561 0.0
H1710 H 0.85943 0.4007 0.12373 0.0
H1711 H 0.90037 0.36936 0.10809 0.0
H1712 H 0.03466 0.27341 0.09524 0.0
H1713 H 0.98605 0.30624 0.09903 0.0
C1714 C 0.70712 0.03032 0.5989 0.0
C1715 C 0.71495 0.04583 0.61333 0.0
C1716 C 0.68885 0.00161 0.59887 0.0
C1717 C 0.63865 0.94616 0.62378 0.0
H1718 H 0.68609 0.87842 0.60151 0.0
C1719 C 0.6325 0.81109 0.6418 0.0
C1720 C 0.63739 0.78709 0.63017 0.0
C1721 C 0.63443 0.84407 0.63781 0.0
C1722 C 0.67194 0.89698 0.60751 0.0
H1723 H 0.70709 0.04502 0.63889 0.0
H1724 H 0.67539 0.99499 0.63881 0.0
H1725 H 0.70117 0.93494 0.59763 0.0
H1726 H 0.64508 0.77843 0.60502 0.0
H1727 H 0.64793 0.83597 0.59791 0.0
H1728 H 0.60991 0.90796 0.63397 0.0
C1729 C 0.68339 0.00494 0.62752 0.0
C1730 C 0.68064 0.92949 0.60527 0.0
C1731 C 0.70178 0.03354 0.62757 0.0
C1732 C 0.64228 0.79652 0.6143 0.0
C1733 C 0.64383 0.82948 0.61025 0.0
C1734 C 0.62974 0.91356 0.62593 0.0
C1735 C 0.67786 0.98799 0.61325 0.0
C1736 C 0.66468 0.95437 0.61369 0.0
C1737 C 0.64078 0.85367 0.62202 0.0
C1738 C 0.64689 0.88851 0.61815 0.0
H1739 H 0.71661 0.03928 0.58769 0.0
H1740 H 0.68453 0.98928 0.58767 0.0
H1741 H 0.62572 0.96488 0.6303 0.0
H1742 H 0.62853 0.80436 0.65413 0.0
H1743 H 0.63233 0.86193 0.64724 0.0
loop_
_geom_bond_atom_site_label_1
_geom_bond_atom_site_label_2
_geom_bond_distance
_geom_bond_site_symmetry_2
_ccdc_geom_bond_type
Co0 O3 1.970 . S
Co0 N17 1.989 . S
Co0 O25 1.967 . S
Co0 O32 1.920 . S
Co1 O4 1.966 . S
Co1 N10 2.022 . S
Co1 N18 1.993 . S
Co1 O26 1.941 . S
C2 O3 1.258 . S
C2 O4 1.263 . S
O3 Co0 1.970 . S
O3 C2 1.258 . S
O4 Co1 1.966 . S
O4 C2 1.263 . S
C5 O6 1.235 . S
C5 O32 1.289 . S
O6 C5 1.235 . S
C7 C9 1.400 . S
C7 N10 1.351 . S
C7 C12 1.501 . S
C8 C9 1.387 . S
C8 N11 1.341 . S
C9 C7 1.400 . S
C9 C8 1.387 . S
N10 Co1 2.022 . S
N10 C7 1.351 . S
N10 N11 1.365 . S
N11 C8 1.341 . S
N11 N10 1.365 . S
N11 H31 0.862 . S
C12 C7 1.501 . S
C12 H13 0.961 . S
C12 H14 0.961 . S
C12 H15 0.960 . S
H13 C12 0.961 . S
H14 C12 0.961 . S
H15 C12 0.960 . S
C16 N17 1.342 . S
C16 C20 1.401 . S
C16 C21 1.499 . S
N17 Co0 1.989 . S
N17 C16 1.342 . S
N17 N18 1.388 . S
N18 Co1 1.993 . S
N18 N17 1.388 . S
N18 C19 1.346 . S
C19 N18 1.346 . S
C19 C20 1.396 . S
C19 C29 1.510 . S
C20 C16 1.401 . S
C20 C19 1.396 . S
C21 C16 1.499 . S
C21 H22 0.959 . S
C21 H23 0.960 . S
C21 H24 0.961 . S
H22 C21 0.959 . S
H23 C21 0.960 . S
H24 C21 0.961 . S
O25 Co0 1.967 . S
O25 C33 1.258 . S
O26 Co1 1.941 . S
O26 C33 1.266 . S
H27 C29 0.959 . S
H28 C29 0.961 . S
C29 C19 1.510 . S
C29 H27 0.959 . S
C29 H28 0.961 . S
C29 H30 0.960 . S
H30 C29 0.960 . S
H31 N11 0.862 . S
O32 Co0 1.920 . S
O32 C5 1.289 . S
C33 O25 1.258 . S
C33 O26 1.266 . S
Co34 O37 1.970 . S
Co34 N51 1.989 . S
Co34 O59 1.967 . S
Co34 O66 1.920 . S
Co35 O38 1.966 . S
Co35 N44 2.022 . S
Co35 N52 1.993 . S
Co35 O60 1.941 . S
C36 O37 1.258 . S
C36 O38 1.263 . S
O37 Co34 1.970 . S
O37 C36 1.258 . S
O38 Co35 1.966 . S
O38 C36 1.263 . S
C39 O40 1.235 . S
C39 O66 1.289 . S
O40 C39 1.235 . S
C41 C43 1.400 . S
C41 N44 1.351 . S
C41 C46 1.501 . S
C42 C43 1.387 . S
C42 N45 1.341 . S
C43 C41 1.400 . S
C43 C42 1.387 . S
N44 Co35 2.022 . S
N44 C41 1.351 . S
N44 N45 1.365 . S
N45 C42 1.341 . S
N45 N44 1.365 . S
N45 H65 0.862 . S
C46 C41 1.501 . S
C46 H47 0.961 . S
C46 H48 0.961 . S
C46 H49 0.960 . S
H47 C46 0.961 . S
H48 C46 0.961 . S
H49 C46 0.960 . S
C50 N51 1.342 . S
C50 C54 1.401 . S
C50 C55 1.499 . S
N51 Co34 1.989 . S
N51 C50 1.342 . S
N51 N52 1.388 . S
N52 Co35 1.993 . S
N52 N51 1.388 . S
N52 C53 1.346 . S
C53 N52 1.346 . S
C53 C54 1.396 . S
C53 C63 1.510 . S
C54 C50 1.401 . S
C54 C53 1.396 . S
C55 C50 1.499 . S
C55 H56 0.959 . S
C55 H57 0.960 . S
C55 H58 0.961 . S
H56 C55 0.959 . S
H57 C55 0.960 . S
H58 C55 0.961 . S
O59 Co34 1.967 . S
O59 C67 1.258 . S
O60 Co35 1.941 . S
O60 C67 1.266 . S
H61 C63 0.959 . S
H62 C63 0.961 . S
C63 C53 1.510 . S
C63 H61 0.959 . S
C63 H62 0.961 . S
C63 H64 0.960 . S
H64 C63 0.960 . S
H65 N45 0.862 . S
O66 Co34 1.920 . S
O66 C39 1.289 . S
C67 O59 1.258 . S
C67 O60 1.266 . S
Co68 O71 1.970 . S
Co68 N85 1.989 . S
Co68 O93 1.967 . S
Co68 O100 1.920 . S
Co69 O72 1.966 . S
Co69 N78 2.022 . S
Co69 N86 1.993 . S
Co69 O94 1.941 . S
C70 O71 1.258 . S
C70 O72 1.263 . S
O71 Co68 1.970 . S
O71 C70 1.258 . S
O72 Co69 1.966 . S
O72 C70 1.263 . S
C73 O74 1.235 . S
C73 O100 1.289 . S
O74 C73 1.235 . S
C75 C77 1.400 . S
C75 N78 1.351 . S
C75 C80 1.501 . S
C76 C77 1.387 . S
C76 N79 1.341 . S
C77 C75 1.400 . S
C77 C76 1.387 . S
N78 Co69 2.022 . S
N78 C75 1.351 . S
N78 N79 1.365 . S
N79 C76 1.341 . S
N79 N78 1.365 . S
N79 H99 0.862 . S
C80 C75 1.501 . S
C80 H81 0.961 . S
C80 H82 0.961 . S
C80 H83 0.960 . S
H81 C80 0.961 . S
H82 C80 0.961 . S
H83 C80 0.960 . S
C84 N85 1.342 . S
C84 C88 1.401 . S
C84 C89 1.499 . S
N85 Co68 1.989 . S
N85 C84 1.342 . S
N85 N86 1.388 . S
N86 Co69 1.993 . S
N86 N85 1.388 . S
N86 C87 1.346 . S
C87 N86 1.346 . S
C87 C88 1.396 . S
C87 C97 1.510 . S
C88 C84 1.401 . S
C88 C87 1.396 . S
C89 C84 1.499 . S
C89 H90 0.959 . S
C89 H91 0.960 . S
C89 H92 0.961 . S
H90 C89 0.959 . S
H91 C89 0.960 . S
H92 C89 0.961 . S
O93 Co68 1.967 . S
O93 C101 1.258 . S
O94 Co69 1.941 . S
O94 C101 1.266 . S
H95 C97 0.959 . S
H96 C97 0.961 . S
C97 C87 1.510 . S
C97 H95 0.959 . S
C97 H96 0.961 . S
C97 H98 0.960 . S
H98 C97 0.960 . S
H99 N79 0.862 . S
O100 Co68 1.920 . S
O100 C73 1.289 . S
C101 O93 1.258 . S
C101 O94 1.266 . S
Co102 O105 1.970 . S
Co102 N119 1.989 . S
Co102 O127 1.967 . S
Co102 O134 1.920 . S
Co103 O106 1.966 . S
Co103 N112 2.022 . S
Co103 N120 1.993 . S
Co103 O128 1.941 . S
C104 O105 1.258 . S
C104 O106 1.263 . S
O105 Co102 1.970 . S
O105 C104 1.258 . S
O106 Co103 1.966 . S
O106 C104 1.263 . S
C107 O108 1.235 . S
C107 O134 1.289 . S
O108 C107 1.235 . S
C109 C111 1.400 . S
C109 N112 1.351 . S
C109 C114 1.501 . S
C110 C111 1.387 . S
C110 N113 1.341 . S
C111 C109 1.400 . S
C111 C110 1.387 . S
N112 Co103 2.022 . S
N112 C109 1.351 . S
N112 N113 1.365 . S
N113 C110 1.341 . S
N113 N112 1.365 . S
N113 H133 0.862 . S
C114 C109 1.501 . S
C114 H115 0.961 . S
C114 H116 0.961 . S
C114 H117 0.960 . S
H115 C114 0.961 . S
H116 C114 0.961 . S
H117 C114 0.960 . S
C118 N119 1.342 . S
C118 C122 1.401 . S
C118 C123 1.499 . S
N119 Co102 1.989 . S
N119 C118 1.342 . S
N119 N120 1.388 . S
N120 Co103 1.993 . S
N120 N119 1.388 . S
N120 C121 1.346 . S
C121 N120 1.346 . S
C121 C122 1.396 . S
C121 C131 1.510 . S
C122 C118 1.401 . S
C122 C121 1.396 . S
C123 C118 1.499 . S
C123 H124 0.959 . S
C123 H125 0.960 . S
C123 H126 0.961 . S
H124 C123 0.959 . S
H125 C123 0.960 . S
H126 C123 0.961 . S
O127 Co102 1.967 . S
O127 C135 1.258 . S
O128 Co103 1.941 . S
O128 C135 1.266 . S
H129 C131 0.959 . S
H130 C131 0.961 . S
C131 C121 1.510 . S
C131 H129 0.959 . S
C131 H130 0.961 . S
C131 H132 0.960 . S
H132 C131 0.960 . S
H133 N113 0.862 . S
O134 Co102 1.920 . S
O134 C107 1.289 . S
C135 O127 1.258 . S
C135 O128 1.266 . S
Co136 O139 1.970 . S
Co136 N153 1.989 . S
Co136 O161 1.967 . S
Co136 O168 1.920 . S
Co137 O140 1.966 . S
Co137 N146 2.022 . S
Co137 N154 1.993 . S
Co137 O162 1.941 . S
C138 O139 1.258 . S
C138 O140 1.263 . S
O139 Co136 1.970 . S
O139 C138 1.258 . S
O140 Co137 1.966 . S
O140 C138 1.263 . S
C141 O142 1.235 . S
C141 O168 1.289 . S
O142 C141 1.235 . S
C143 C145 1.400 . S
C143 N146 1.351 . S
C143 C148 1.501 . S
C144 C145 1.387 . S
C144 N147 1.341 . S
C145 C143 1.400 . S
C145 C144 1.387 . S
N146 Co137 2.022 . S
N146 C143 1.351 . S
N146 N147 1.365 . S
N147 C144 1.341 . S
N147 N146 1.365 . S
N147 H167 0.862 . S
C148 C143 1.501 . S
C148 H149 0.961 . S
C148 H150 0.961 . S
C148 H151 0.960 . S
H149 C148 0.961 . S
H150 C148 0.961 . S
H151 C148 0.960 . S
C152 N153 1.342 . S
C152 C156 1.401 . S
C152 C157 1.499 . S
N153 Co136 1.989 . S
N153 C152 1.342 . S
N153 N154 1.388 . S
N154 Co137 1.993 . S
N154 N153 1.388 . S
N154 C155 1.346 . S
C155 N154 1.346 . S
C155 C156 1.396 . S
C155 C165 1.510 . S
C156 C152 1.401 . S
C156 C155 1.396 . S
C157 C152 1.499 . S
C157 H158 0.959 . S
C157 H159 0.960 . S
C157 H160 0.961 . S
H158 C157 0.959 . S
H159 C157 0.960 . S
H160 C157 0.961 . S
O161 Co136 1.967 . S
O161 C169 1.258 . S
O162 Co137 1.941 . S
O162 C169 1.266 . S
H163 C165 0.959 . S
H164 C165 0.961 . S
C165 C155 1.510 . S
C165 H163 0.959 . S
C165 H164 0.961 . S
C165 H166 0.960 . S
H166 C165 0.960 . S
H167 N147 0.862 . S
O168 Co136 1.920 . S
O168 C141 1.289 . S
C169 O161 1.258 . S
C169 O162 1.266 . S
Co170 O173 1.970 . S
Co170 N187 1.989 . S
Co170 O195 1.967 . S
Co170 O202 1.920 . S
Co171 O174 1.966 . S
Co171 N180 2.022 . S
Co171 N188 1.993 . S
Co171 O196 1.941 . S
C172 O173 1.258 . S
C172 O174 1.263 . S
O173 Co170 1.970 . S
O173 C172 1.258 . S
O174 Co171 1.966 . S
O174 C172 1.263 . S
C175 O176 1.235 . S
C175 O202 1.289 . S
O176 C175 1.235 . S
C177 C179 1.400 . S
C177 N180 1.351 . S
C177 C182 1.501 . S
C178 C179 1.387 . S
C178 N181 1.341 . S
C179 C177 1.400 . S
C179 C178 1.387 . S
N180 Co171 2.022 . S
N180 C177 1.351 . S
N180 N181 1.365 . S
N181 C178 1.341 . S
N181 N180 1.365 . S
N181 H201 0.862 . S
C182 C177 1.501 . S
C182 H183 0.961 . S
C182 H184 0.961 . S
C182 H185 0.960 . S
H183 C182 0.961 . S
H184 C182 0.961 . S
H185 C182 0.960 . S
C186 N187 1.342 . S
C186 C190 1.401 . S
C186 C191 1.499 . S
N187 Co170 1.989 . S
N187 C186 1.342 . S
N187 N188 1.388 . S
N188 Co171 1.993 . S
N188 N187 1.388 . S
N188 C189 1.346 . S
C189 N188 1.346 . S
C189 C190 1.396 . S
C189 C199 1.510 . S
C190 C186 1.401 . S
C190 C189 1.396 . S
C191 C186 1.499 . S
C191 H192 0.959 . S
C191 H193 0.960 . S
C191 H194 0.961 . S
H192 C191 0.959 . S
H193 C191 0.960 . S
H194 C191 0.961 . S
O195 Co170 1.967 . S
O195 C203 1.258 . S
O196 Co171 1.941 . S
O196 C203 1.266 . S
H197 C199 0.959 . S
H198 C199 0.961 . S
C199 C189 1.510 . S
C199 H197 0.959 . S
C199 H198 0.961 . S
C199 H200 0.960 . S
H200 C199 0.960 . S
H201 N181 0.862 . S
O202 Co170 1.920 . S
O202 C175 1.289 . S
C203 O195 1.258 . S
C203 O196 1.266 . S
Co204 O207 1.970 . S
Co204 N221 1.989 . S
Co204 O229 1.967 . S
Co204 O236 1.920 . S
Co205 O208 1.966 . S
Co205 N214 2.022 . S
Co205 N222 1.993 . S
Co205 O230 1.941 . S
C206 O207 1.258 . S
C206 O208 1.263 . S
O207 Co204 1.970 . S
O207 C206 1.258 . S
O208 Co205 1.966 . S
O208 C206 1.263 . S
C209 O210 1.235 . S
C209 O236 1.289 . S
O210 C209 1.235 . S
C211 C213 1.400 . S
C211 N214 1.351 . S
C211 C216 1.501 . S
C212 C213 1.387 . S
C212 N215 1.341 . S
C213 C211 1.400 . S
C213 C212 1.387 . S
N214 Co205 2.022 . S
N214 C211 1.351 . S
N214 N215 1.365 . S
N215 C212 1.341 . S
N215 N214 1.365 . S
N215 H235 0.862 . S
C216 C211 1.501 . S
C216 H217 0.961 . S
C216 H218 0.961 . S
C216 H219 0.960 . S
H217 C216 0.961 . S
H218 C216 0.961 . S
H219 C216 0.960 . S
C220 N221 1.342 . S
C220 C224 1.401 . S
C220 C225 1.499 . S
N221 Co204 1.989 . S
N221 C220 1.342 . S
N221 N222 1.388 . S
N222 Co205 1.993 . S
N222 N221 1.388 . S
N222 C223 1.346 . S
C223 N222 1.346 . S
C223 C224 1.396 . S
C223 C233 1.510 . S
C224 C220 1.401 . S
C224 C223 1.396 . S
C225 C220 1.499 . S
C225 H226 0.959 . S
C225 H227 0.960 . S
C225 H228 0.961 . S
H226 C225 0.959 . S
H227 C225 0.960 . S
H228 C225 0.961 . S
O229 Co204 1.967 . S
O229 C237 1.258 . S
O230 Co205 1.941 . S
O230 C237 1.266 . S
H231 C233 0.959 . S
H232 C233 0.961 . S
C233 C223 1.510 . S
C233 H231 0.959 . S
C233 H232 0.961 . S
C233 H234 0.960 . S
H234 C233 0.960 . S
H235 N215 0.862 . S
O236 Co204 1.920 . S
O236 C209 1.289 . S
C237 O229 1.258 . S
C237 O230 1.266 . S
Co238 O241 1.970 . S
Co238 N255 1.989 . S
Co238 O263 1.967 . S
Co238 O270 1.920 . S
Co239 O242 1.966 . S
Co239 N248 2.022 . S
Co239 N256 1.993 . S
Co239 O264 1.941 . S
C240 O241 1.258 . S
C240 O242 1.263 . S
O241 Co238 1.970 . S
O241 C240 1.258 . S
O242 Co239 1.966 . S
O242 C240 1.263 . S
C243 O244 1.235 . S
C243 O270 1.289 . S
O244 C243 1.235 . S
C245 C247 1.400 . S
C245 N248 1.351 . S
C245 C250 1.501 . S
C246 C247 1.387 . S
C246 N249 1.341 . S
C247 C245 1.400 . S
C247 C246 1.387 . S
N248 Co239 2.022 . S
N248 C245 1.351 . S
N248 N249 1.365 . S
N249 C246 1.341 . S
N249 N248 1.365 . S
N249 H269 0.862 . S
C250 C245 1.501 . S
C250 H251 0.961 . S
C250 H252 0.961 . S
C250 H253 0.960 . S
H251 C250 0.961 . S
H252 C250 0.961 . S
H253 C250 0.960 . S
C254 N255 1.342 . S
C254 C258 1.401 . S
C254 C259 1.499 . S
N255 Co238 1.989 . S
N255 C254 1.342 . S
N255 N256 1.388 . S
N256 Co239 1.993 . S
N256 N255 1.388 . S
N256 C257 1.346 . S
C257 N256 1.346 . S
C257 C258 1.396 . S
C257 C267 1.510 . S
C258 C254 1.401 . S
C258 C257 1.396 . S
C259 C254 1.499 . S
C259 H260 0.959 . S
C259 H261 0.960 . S
C259 H262 0.961 . S
H260 C259 0.959 . S
H261 C259 0.960 . S
H262 C259 0.961 . S
O263 Co238 1.967 . S
O263 C271 1.258 . S
O264 Co239 1.941 . S
O264 C271 1.266 . S
H265 C267 0.959 . S
H266 C267 0.961 . S
C267 C257 1.510 . S
C267 H265 0.959 . S
C267 H266 0.961 . S
C267 H268 0.960 . S
H268 C267 0.960 . S
H269 N249 0.862 . S
O270 Co238 1.920 . S
O270 C243 1.289 . S
C271 O263 1.258 . S
C271 O264 1.266 . S
Co272 O275 1.970 . S
Co272 N289 1.989 . S
Co272 O297 1.967 . S
Co272 O304 1.920 1_655 S
Co273 O276 1.966 . S
Co273 N282 2.022 . S
Co273 N290 1.993 . S
Co273 O298 1.941 . S
C274 O275 1.258 . S
C274 O276 1.263 . S
O275 Co272 1.970 . S
O275 C274 1.258 . S
O276 Co273 1.966 . S
O276 C274 1.263 . S
C277 O278 1.235 . S
C277 O304 1.289 . S
O278 C277 1.235 . S
C279 C281 1.400 . S
C279 N282 1.351 . S
C279 C284 1.501 . S
C280 C281 1.387 . S
C280 N283 1.341 . S
C281 C279 1.400 . S
C281 C280 1.387 . S
N282 Co273 2.022 . S
N282 C279 1.351 . S
N282 N283 1.365 . S
N283 C280 1.341 . S
N283 N282 1.365 . S
N283 H303 0.862 . S
C284 C279 1.501 . S
C284 H285 0.961 . S
C284 H286 0.961 . S
C284 H287 0.960 . S
H285 C284 0.961 . S
H286 C284 0.961 . S
H287 C284 0.960 . S
C288 N289 1.342 . S
C288 C292 1.401 . S
C288 C293 1.499 . S
N289 Co272 1.989 . S
N289 C288 1.342 . S
N289 N290 1.388 . S
N290 Co273 1.993 . S
N290 N289 1.388 . S
N290 C291 1.346 . S
C291 N290 1.346 . S
C291 C292 1.396 . S
C291 C301 1.510 . S
C292 C288 1.401 . S
C292 C291 1.396 . S
C293 C288 1.499 . S
C293 H294 0.959 . S
C293 H295 0.960 . S
C293 H296 0.961 . S
H294 C293 0.959 . S
H295 C293 0.960 . S
H296 C293 0.961 . S
O297 Co272 1.967 . S
O297 C305 1.258 . S
O298 Co273 1.941 . S
O298 C305 1.266 . S
H299 C301 0.959 . S
H300 C301 0.961 . S
C301 C291 1.510 . S
C301 H299 0.959 . S
C301 H300 0.961 . S
C301 H302 0.960 . S
H302 C301 0.960 . S
H303 N283 0.862 . S
O304 Co272 1.920 1_455 S
O304 C277 1.289 . S
C305 O297 1.258 . S
C305 O298 1.266 . S
Co306 O309 1.970 . S
Co306 N323 1.989 . S
Co306 O331 1.967 . S
Co306 O338 1.920 1_565 S
Co307 O310 1.966 . S
Co307 N316 2.022 . S
Co307 N324 1.993 . S
Co307 O332 1.941 . S
C308 O309 1.258 . S
C308 O310 1.263 . S
O309 Co306 1.970 . S
O309 C308 1.258 . S
O310 Co307 1.966 . S
O310 C308 1.263 . S
C311 O312 1.235 . S
C311 O338 1.289 . S
O312 C311 1.235 . S
C313 C315 1.400 . S
C313 N316 1.351 . S
C313 C318 1.501 . S
C314 C315 1.387 . S
C314 N317 1.341 . S
C315 C313 1.400 . S
C315 C314 1.387 . S
N316 Co307 2.022 . S
N316 C313 1.351 . S
N316 N317 1.365 . S
N317 C314 1.341 . S
N317 N316 1.365 . S
N317 H337 0.862 . S
C318 C313 1.501 . S
C318 H319 0.961 . S
C318 H320 0.961 . S
C318 H321 0.960 . S
H319 C318 0.961 . S
H320 C318 0.961 . S
H321 C318 0.960 . S
C322 N323 1.342 . S
C322 C326 1.401 . S
C322 C327 1.499 . S
N323 Co306 1.989 . S
N323 C322 1.342 . S
N323 N324 1.388 . S
N324 Co307 1.993 . S
N324 N323 1.388 . S
N324 C325 1.346 . S
C325 N324 1.346 . S
C325 C326 1.396 . S
C325 C335 1.510 . S
C326 C322 1.401 . S
C326 C325 1.396 . S
C327 C322 1.499 . S
C327 H328 0.959 . S
C327 H329 0.960 . S
C327 H330 0.961 . S
H328 C327 0.959 . S
H329 C327 0.960 . S
H330 C327 0.961 . S
O331 Co306 1.967 . S
O331 C339 1.258 . S
O332 Co307 1.941 . S
O332 C339 1.266 . S
H333 C335 0.959 . S
H334 C335 0.961 . S
C335 C325 1.510 . S
C335 H333 0.959 . S
C335 H334 0.961 . S
C335 H336 0.960 . S
H336 C335 0.960 . S
H337 N317 0.862 . S
O338 Co306 1.920 1_545 S
O338 C311 1.289 . S
C339 O331 1.258 . S
C339 O332 1.266 . S
Co340 O343 1.970 . S
Co340 N357 1.989 . S
Co340 O365 1.967 . S
Co340 O372 1.920 1_455 S
Co341 O344 1.966 . S
Co341 N350 2.022 . S
Co341 N358 1.993 . S
Co341 O366 1.941 . S
C342 O343 1.258 . S
C342 O344 1.263 . S
O343 Co340 1.970 . S
O343 C342 1.258 . S
O344 Co341 1.966 . S
O344 C342 1.263 . S
C345 O346 1.235 . S
C345 O372 1.289 . S
O346 C345 1.235 . S
C347 C349 1.400 . S
C347 N350 1.351 . S
C347 C352 1.501 . S
C348 C349 1.387 . S
C348 N351 1.341 . S
C349 C347 1.400 . S
C349 C348 1.387 . S
N350 Co341 2.022 . S
N350 C347 1.351 . S
N350 N351 1.365 . S
N351 C348 1.341 . S
N351 N350 1.365 . S
N351 H371 0.862 . S
C352 C347 1.501 . S
C352 H353 0.961 . S
C352 H354 0.961 . S
C352 H355 0.960 . S
H353 C352 0.961 . S
H354 C352 0.961 . S
H355 C352 0.960 . S
C356 N357 1.342 . S
C356 C360 1.401 . S
C356 C361 1.499 . S
N357 Co340 1.989 . S
N357 C356 1.342 . S
N357 N358 1.388 . S
N358 Co341 1.993 . S
N358 N357 1.388 . S
N358 C359 1.346 . S
C359 N358 1.346 . S
C359 C360 1.396 . S
C359 C369 1.510 . S
C360 C356 1.401 . S
C360 C359 1.396 . S
C361 C356 1.499 . S
C361 H362 0.959 . S
C361 H363 0.960 . S
C361 H364 0.961 . S
H362 C361 0.959 . S
H363 C361 0.960 . S
H364 C361 0.961 . S
O365 Co340 1.967 . S
O365 C373 1.258 . S
O366 Co341 1.941 . S
O366 C373 1.266 . S
H367 C369 0.959 . S
H368 C369 0.961 . S
C369 C359 1.510 . S
C369 H367 0.959 . S
C369 H368 0.961 . S
C369 H370 0.960 . S
H370 C369 0.960 . S
H371 N351 0.862 . S
O372 Co340 1.920 1_655 S
O372 C345 1.289 . S
C373 O365 1.258 . S
C373 O366 1.266 . S
Co374 O377 1.970 . S
Co374 N391 1.989 . S
Co374 O399 1.967 . S
Co374 O406 1.920 1_545 S
Co375 O378 1.966 . S
Co375 N384 2.022 . S
Co375 N392 1.993 . S
Co375 O400 1.941 . S
C376 O377 1.258 . S
C376 O378 1.263 . S
O377 Co374 1.970 . S
O377 C376 1.258 . S
O378 Co375 1.966 . S
O378 C376 1.263 . S
C379 O380 1.235 . S
C379 O406 1.289 . S
O380 C379 1.235 . S
C381 C383 1.400 . S
C381 N384 1.351 . S
C381 C386 1.501 . S
C382 C383 1.387 . S
C382 N385 1.341 . S
C383 C381 1.400 . S
C383 C382 1.387 . S
N384 Co375 2.022 . S
N384 C381 1.351 . S
N384 N385 1.365 . S
N385 C382 1.341 . S
N385 N384 1.365 . S
N385 H405 0.862 . S
C386 C381 1.501 . S
C386 H387 0.961 . S
C386 H388 0.961 . S
C386 H389 0.960 . S
H387 C386 0.961 . S
H388 C386 0.961 . S
H389 C386 0.960 . S
C390 N391 1.342 . S
C390 C394 1.401 . S
C390 C395 1.499 . S
N391 Co374 1.989 . S
N391 C390 1.342 . S
N391 N392 1.388 . S
N392 Co375 1.993 . S
N392 N391 1.388 . S
N392 C393 1.346 . S
C393 N392 1.346 . S
C393 C394 1.396 . S
C393 C403 1.510 . S
C394 C390 1.401 . S
C394 C393 1.396 . S
C395 C390 1.499 . S
C395 H396 0.959 . S
C395 H397 0.960 . S
C395 H398 0.961 . S
H396 C395 0.959 . S
H397 C395 0.960 . S
H398 C395 0.961 . S
O399 Co374 1.967 . S
O399 C407 1.258 . S
O400 Co375 1.941 . S
O400 C407 1.266 . S
H401 C403 0.959 . S
H402 C403 0.961 . S
C403 C393 1.510 . S
C403 H401 0.959 . S
C403 H402 0.961 . S
C403 H404 0.960 . S
H404 C403 0.960 . S
H405 N385 0.862 . S
O406 Co374 1.920 1_565 S
O406 C379 1.289 . S
C407 O399 1.258 . S
C407 O400 1.266 . S
Co408 O411 1.970 . S
Co408 N425 1.989 . S
Co408 O433 1.967 . S
Co408 O440 1.920 . S
Co409 O412 1.966 . S
Co409 N418 2.022 . S
Co409 N426 1.993 . S
Co409 O434 1.941 . S
C410 O411 1.258 . S
C410 O412 1.263 . S
O411 Co408 1.970 . S
O411 C410 1.258 . S
O412 Co409 1.966 . S
O412 C410 1.263 . S
C413 O414 1.235 . S
C413 O440 1.289 . S
O414 C413 1.235 . S
C415 C417 1.400 . S
C415 N418 1.351 . S
C415 C420 1.501 . S
C416 C417 1.387 . S
C416 N419 1.341 . S
C417 C415 1.400 . S
C417 C416 1.387 . S
N418 Co409 2.022 . S
N418 C415 1.351 . S
N418 N419 1.365 . S
N419 C416 1.341 . S
N419 N418 1.365 . S
N419 H439 0.862 . S
C420 C415 1.501 . S
C420 H421 0.961 . S
C420 H422 0.961 . S
C420 H423 0.960 . S
H421 C420 0.961 . S
H422 C420 0.961 . S
H423 C420 0.960 . S
C424 N425 1.342 . S
C424 C428 1.401 . S
C424 C429 1.499 . S
N425 Co408 1.989 . S
N425 C424 1.342 . S
N425 N426 1.388 . S
N426 Co409 1.993 . S
N426 N425 1.388 . S
N426 C427 1.346 . S
C427 N426 1.346 . S
C427 C428 1.396 . S
C427 C437 1.510 . S
C428 C424 1.401 . S
C428 C427 1.396 . S
C429 C424 1.499 . S
C429 H430 0.959 . S
C429 H431 0.960 . S
C429 H432 0.961 . S
H430 C429 0.959 . S
H431 C429 0.960 . S
H432 C429 0.961 . S
O433 Co408 1.967 . S
O433 C441 1.258 . S
O434 Co409 1.941 . S
O434 C441 1.266 . S
H435 C437 0.959 . S
H436 C437 0.961 . S
C437 C427 1.510 . S
C437 H435 0.959 . S
C437 H436 0.961 . S
C437 H438 0.960 . S
H438 C437 0.960 . S
H439 N419 0.862 . S
O440 Co408 1.920 . S
O440 C413 1.289 . S
C441 O433 1.258 . S
C441 O434 1.266 . S
Co442 O445 1.970 . S
Co442 N459 1.989 . S
Co442 O467 1.967 . S
Co442 O474 1.920 . S
Co443 O446 1.966 . S
Co443 N452 2.022 . S
Co443 N460 1.993 . S
Co443 O468 1.941 . S
C444 O445 1.258 . S
C444 O446 1.263 . S
O445 Co442 1.970 . S
O445 C444 1.258 . S
O446 Co443 1.966 . S
O446 C444 1.263 . S
C447 O448 1.235 . S
C447 O474 1.289 . S
O448 C447 1.235 . S
C449 C451 1.400 . S
C449 N452 1.351 . S
C449 C454 1.501 . S
C450 C451 1.387 . S
C450 N453 1.341 . S
C451 C449 1.400 . S
C451 C450 1.387 . S
N452 Co443 2.022 . S
N452 C449 1.351 . S
N452 N453 1.365 . S
N453 C450 1.341 . S
N453 N452 1.365 . S
N453 H473 0.862 . S
C454 C449 1.501 . S
C454 H455 0.961 . S
C454 H456 0.961 . S
C454 H457 0.960 . S
H455 C454 0.961 . S
H456 C454 0.961 . S
H457 C454 0.960 . S
C458 N459 1.342 . S
C458 C462 1.401 . S
C458 C463 1.499 . S
N459 Co442 1.989 . S
N459 C458 1.342 . S
N459 N460 1.388 . S
N460 Co443 1.993 . S
N460 N459 1.388 . S
N460 C461 1.346 . S
C461 N460 1.346 . S
C461 C462 1.396 . S
C461 C471 1.510 . S
C462 C458 1.401 . S
C462 C461 1.396 . S
C463 C458 1.499 . S
C463 H464 0.959 . S
C463 H465 0.960 . S
C463 H466 0.961 . S
H464 C463 0.959 . S
H465 C463 0.960 . S
H466 C463 0.961 . S
O467 Co442 1.967 . S
O467 C475 1.258 . S
O468 Co443 1.941 . S
O468 C475 1.266 . S
H469 C471 0.959 . S
H470 C471 0.961 . S
C471 C461 1.510 . S
C471 H469 0.959 . S
C471 H470 0.961 . S
C471 H472 0.960 . S
H472 C471 0.960 . S
H473 N453 0.862 . S
O474 Co442 1.920 . S
O474 C447 1.289 . S
C475 O467 1.258 . S
C475 O468 1.266 . S
Co476 O479 1.970 . S
Co476 N493 1.989 . S
Co476 O501 1.967 . S
Co476 O508 1.920 . S
Co477 O480 1.966 . S
Co477 N486 2.022 . S
Co477 N494 1.993 . S
Co477 O502 1.941 . S
C478 O479 1.258 . S
C478 O480 1.263 . S
O479 Co476 1.970 . S
O479 C478 1.258 . S
O480 Co477 1.966 . S
O480 C478 1.263 . S
C481 O482 1.235 . S
C481 O508 1.289 . S
O482 C481 1.235 . S
C483 C485 1.400 . S
C483 N486 1.351 . S
C483 C488 1.501 . S
C484 C485 1.387 . S
C484 N487 1.341 . S
C485 C483 1.400 . S
C485 C484 1.387 . S
N486 Co477 2.022 . S
N486 C483 1.351 . S
N486 N487 1.365 . S
N487 C484 1.341 . S
N487 N486 1.365 . S
N487 H507 0.862 . S
C488 C483 1.501 . S
C488 H489 0.961 . S
C488 H490 0.961 . S
C488 H491 0.960 . S
H489 C488 0.961 . S
H490 C488 0.961 . S
H491 C488 0.960 . S
C492 N493 1.342 . S
C492 C496 1.401 . S
C492 C497 1.499 . S
N493 Co476 1.989 . S
N493 C492 1.342 . S
N493 N494 1.388 . S
N494 Co477 1.993 . S
N494 N493 1.388 . S
N494 C495 1.346 . S
C495 N494 1.346 . S
C495 C496 1.396 . S
C495 C505 1.510 . S
C496 C492 1.401 . S
C496 C495 1.396 . S
C497 C492 1.499 . S
C497 H498 0.959 . S
C497 H499 0.960 . S
C497 H500 0.961 . S
H498 C497 0.959 . S
H499 C497 0.960 . S
H500 C497 0.961 . S
O501 Co476 1.967 . S
O501 C509 1.258 . S
O502 Co477 1.941 . S
O502 C509 1.266 . S
H503 C505 0.959 . S
H504 C505 0.961 . S
C505 C495 1.510 . S
C505 H503 0.959 . S
C505 H504 0.961 . S
C505 H506 0.960 . S
H506 C505 0.960 . S
H507 N487 0.862 . S
O508 Co476 1.920 . S
O508 C481 1.289 . S
C509 O501 1.258 . S
C509 O502 1.266 . S
Co510 O513 1.970 . S
Co510 N527 1.989 . S
Co510 O535 1.967 . S
Co510 O542 1.920 . S
Co511 O514 1.966 . S
Co511 N520 2.022 . S
Co511 N528 1.993 . S
Co511 O536 1.941 . S
C512 O513 1.258 . S
C512 O514 1.263 . S
O513 Co510 1.970 . S
O513 C512 1.258 . S
O514 Co511 1.966 . S
O514 C512 1.263 . S
C515 O516 1.235 . S
C515 O542 1.289 . S
O516 C515 1.235 . S
C517 C519 1.400 . S
C517 N520 1.351 . S
C517 C522 1.501 . S
C518 C519 1.387 . S
C518 N521 1.341 . S
C519 C517 1.400 . S
C519 C518 1.387 . S
N520 Co511 2.022 . S
N520 C517 1.351 . S
N520 N521 1.365 . S
N521 C518 1.341 . S
N521 N520 1.365 . S
N521 H541 0.862 . S
C522 C517 1.501 . S
C522 H523 0.961 . S
C522 H524 0.961 . S
C522 H525 0.960 . S
H523 C522 0.961 . S
H524 C522 0.961 . S
H525 C522 0.960 . S
C526 N527 1.342 . S
C526 C530 1.401 . S
C526 C531 1.499 . S
N527 Co510 1.989 . S
N527 C526 1.342 . S
N527 N528 1.388 . S
N528 Co511 1.993 . S
N528 N527 1.388 . S
N528 C529 1.346 . S
C529 N528 1.346 . S
C529 C530 1.396 . S
C529 C539 1.510 . S
C530 C526 1.401 . S
C530 C529 1.396 . S
C531 C526 1.499 . S
C531 H532 0.959 . S
C531 H533 0.960 . S
C531 H534 0.961 . S
H532 C531 0.959 . S
H533 C531 0.960 . S
H534 C531 0.961 . S
O535 Co510 1.967 . S
O535 C543 1.258 . S
O536 Co511 1.941 . S
O536 C543 1.266 . S
H537 C539 0.959 . S
H538 C539 0.961 . S
C539 C529 1.510 . S
C539 H537 0.959 . S
C539 H538 0.961 . S
C539 H540 0.960 . S
H540 C539 0.960 . S
H541 N521 0.862 . S
O542 Co510 1.920 . S
O542 C515 1.289 . S
C543 O535 1.258 . S
C543 O536 1.266 . S
C544 C545 1.349 . S
C544 C546 1.327 . S
C544 H569 0.950 . S
C545 C544 1.349 . S
C545 C561 1.349 . S
C546 C544 1.327 . S
C546 C565 1.429 . S
C546 H570 0.950 . S
C547 C564 1.574 1_545 S
C547 C566 1.368 1_655 S
C547 H571 0.949 . S
H548 C552 0.949 . S
C549 C550 1.349 . S
C549 C551 1.327 . S
C549 H572 0.950 . S
C550 C549 1.349 . S
C550 C562 1.349 . S
C551 C549 1.327 . S
C551 C567 1.429 . S
C551 H573 0.950 . S
C552 H548 0.949 . S
C552 C560 1.574 1_565 S
C552 C568 1.368 1_455 S
H553 C561 0.950 . S
H554 C559 0.950 . S
H555 C560 0.949 . S
H556 C562 0.950 . S
H557 C563 0.950 . S
H558 C564 0.949 . S
C559 H554 0.950 . S
C559 C561 1.327 . S
C559 C565 1.429 . S
C560 C552 1.574 1_545 S
C560 H555 0.949 . S
C560 C566 1.368 . S
C561 C545 1.349 . S
C561 H553 0.950 . S
C561 C559 1.327 . S
C562 C550 1.349 . S
C562 H556 0.950 . S
C562 C563 1.327 . S
C563 H557 0.950 . S
C563 C562 1.327 . S
C563 C567 1.429 . S
C564 C547 1.574 1_565 S
C564 H558 0.949 . S
C564 C568 1.368 . S
C565 C546 1.429 . S
C565 C559 1.429 . S
C565 C566 1.523 . S
C566 C547 1.368 1_455 S
C566 C560 1.368 . S
C566 C565 1.523 . S
C567 C551 1.429 . S
C567 C563 1.429 . S
C567 C568 1.523 . S
C568 C552 1.368 1_655 S
C568 C564 1.368 . S
C568 C567 1.523 . S
H569 C544 0.950 . S
H570 C546 0.950 . S
H571 C547 0.949 . S
H572 C549 0.950 . S
H573 C551 0.950 . S
C574 C575 1.349 . S
C574 C576 1.327 . S
C574 H599 0.950 . S
C575 C574 1.349 . S
C575 C591 1.349 . S
C576 C574 1.327 . S
C576 C595 1.429 . S
C576 H600 0.950 . S
C577 C594 1.574 1_455 S
C577 C596 1.368 1_545 S
C577 H601 0.949 . S
H578 C582 0.949 . S
C579 C580 1.349 . S
C579 C581 1.327 . S
C579 H602 0.950 . S
C580 C579 1.349 . S
C580 C592 1.349 . S
C581 C579 1.327 . S
C581 C597 1.429 . S
C581 H603 0.950 . S
C582 H578 0.949 . S
C582 C590 1.574 1_655 S
C582 C598 1.368 1_565 S
H583 C591 0.950 . S
H584 C589 0.950 . S
H585 C590 0.949 . S
H586 C592 0.950 . S
H587 C593 0.950 . S
H588 C594 0.949 . S
C589 H584 0.950 . S
C589 C591 1.327 . S
C589 C595 1.429 . S
C590 C582 1.574 1_455 S
C590 H585 0.949 . S
C590 C596 1.368 . S
C591 C575 1.349 . S
C591 H583 0.950 . S
C591 C589 1.327 . S
C592 C580 1.349 . S
C592 H586 0.950 . S
C592 C593 1.327 . S
C593 H587 0.950 . S
C593 C592 1.327 . S
C593 C597 1.429 . S
C594 C577 1.574 1_655 S
C594 H588 0.949 . S
C594 C598 1.368 . S
C595 C576 1.429 . S
C595 C589 1.429 . S
C595 C596 1.523 . S
C596 C577 1.368 1_565 S
C596 C590 1.368 . S
C596 C595 1.523 . S
C597 C581 1.429 . S
C597 C593 1.429 . S
C597 C598 1.523 . S
C598 C582 1.368 1_545 S
C598 C594 1.368 . S
C598 C597 1.523 . S
H599 C574 0.950 . S
H600 C576 0.950 . S
H601 C577 0.949 . S
H602 C579 0.950 . S
H603 C581 0.950 . S
C604 C605 1.349 . S
C604 C606 1.327 . S
C604 H629 0.950 . S
C605 C604 1.349 . S
C605 C621 1.349 . S
C606 C604 1.327 . S
C606 C625 1.429 . S
C606 H630 0.950 . S
C607 C624 1.574 . S
C607 C626 1.368 . S
C607 H631 0.949 . S
H608 C612 0.949 . S
C609 C610 1.349 . S
C609 C611 1.327 . S
C609 H632 0.950 . S
C610 C609 1.349 . S
C610 C622 1.349 . S
C611 C609 1.327 . S
C611 C627 1.429 . S
C611 H633 0.950 . S
C612 H608 0.949 . S
C612 C620 1.574 . S
C612 C628 1.368 . S
H613 C621 0.950 . S
H614 C619 0.950 . S
H615 C620 0.949 . S
H616 C622 0.950 . S
H617 C623 0.950 . S
H618 C624 0.949 . S
C619 H614 0.950 . S
C619 C621 1.327 . S
C619 C625 1.429 . S
C620 C612 1.574 . S
C620 H615 0.949 . S
C620 C626 1.368 . S
C621 C605 1.349 . S
C621 H613 0.950 . S
C621 C619 1.327 . S
C622 C610 1.349 . S
C622 H616 0.950 . S
C622 C623 1.327 . S
C623 H617 0.950 . S
C623 C622 1.327 . S
C623 C627 1.429 . S
C624 C607 1.574 . S
C624 H618 0.949 . S
C624 C628 1.368 . S
C625 C606 1.429 . S
C625 C619 1.429 . S
C625 C626 1.523 . S
C626 C607 1.368 . S
C626 C620 1.368 . S
C626 C625 1.523 . S
C627 C611 1.429 . S
C627 C623 1.429 . S
C627 C628 1.523 . S
C628 C612 1.368 . S
C628 C624 1.368 . S
C628 C627 1.523 . S
H629 C604 0.950 . S
H630 C606 0.950 . S
H631 C607 0.949 . S
H632 C609 0.950 . S
H633 C611 0.950 . S
C634 C635 1.349 . S
C634 C636 1.327 . S
C634 H659 0.950 . S
C635 C634 1.349 . S
C635 C651 1.349 . S
C636 C634 1.327 . S
C636 C655 1.429 . S
C636 H660 0.950 . S
C637 C654 1.574 . S
C637 C656 1.368 . S
C637 H661 0.949 . S
H638 C642 0.949 . S
C639 C640 1.349 . S
C639 C641 1.327 . S
C639 H662 0.950 . S
C640 C639 1.349 . S
C640 C652 1.349 . S
C641 C639 1.327 . S
C641 C657 1.429 . S
C641 H663 0.950 . S
C642 H638 0.949 . S
C642 C650 1.574 . S
C642 C658 1.368 . S
H643 C651 0.950 . S
H644 C649 0.950 . S
H645 C650 0.949 . S
H646 C652 0.950 . S
H647 C653 0.950 . S
H648 C654 0.949 . S
C649 H644 0.950 . S
C649 C651 1.327 . S
C649 C655 1.429 . S
C650 C642 1.574 . S
C650 H645 0.949 . S
C650 C656 1.368 . S
C651 C635 1.349 . S
C651 H643 0.950 . S
C651 C649 1.327 . S
C652 C640 1.349 . S
C652 H646 0.950 . S
C652 C653 1.327 . S
C653 H647 0.950 . S
C653 C652 1.327 . S
C653 C657 1.429 . S
C654 C637 1.574 . S
C654 H648 0.949 . S
C654 C658 1.368 . S
C655 C636 1.429 . S
C655 C649 1.429 . S
C655 C656 1.523 . S
C656 C637 1.368 . S
C656 C650 1.368 . S
C656 C655 1.523 . S
C657 C641 1.429 . S
C657 C653 1.429 . S
C657 C658 1.523 . S
C658 C642 1.368 . S
C658 C654 1.368 . S
C658 C657 1.523 . S
H659 C634 0.950 . S
H660 C636 0.950 . S
H661 C637 0.949 . S
H662 C639 0.950 . S
H663 C641 0.950 . S
C664 C665 1.349 . S
C664 C666 1.327 . S
C664 H689 0.950 . S
C665 C664 1.349 . S
C665 C681 1.349 . S
C666 C664 1.327 . S
C666 C685 1.429 . S
C666 H690 0.950 . S
C667 C684 1.574 1_545 S
C667 C686 1.368 1_655 S
C667 H691 0.949 . S
H668 C672 0.949 . S
C669 C670 1.349 . S
C669 C671 1.327 . S
C669 H692 0.950 . S
C670 C669 1.349 . S
C670 C682 1.349 . S
C671 C669 1.327 . S
C671 C687 1.429 . S
C671 H693 0.950 . S
C672 H668 0.949 . S
C672 C680 1.574 1_565 S
C672 C688 1.368 1_455 S
H673 C681 0.950 . S
H674 C679 0.950 . S
H675 C680 0.949 . S
H676 C682 0.950 . S
H677 C683 0.950 . S
H678 C684 0.949 . S
C679 H674 0.950 . S
C679 C681 1.327 . S
C679 C685 1.429 . S
C680 C672 1.574 1_545 S
C680 H675 0.949 . S
C680 C686 1.368 . S
C681 C665 1.349 . S
C681 H673 0.950 . S
C681 C679 1.327 . S
C682 C670 1.349 . S
C682 H676 0.950 . S
C682 C683 1.327 . S
C683 H677 0.950 . S
C683 C682 1.327 . S
C683 C687 1.429 . S
C684 C667 1.574 1_565 S
C684 H678 0.949 . S
C684 C688 1.368 . S
C685 C666 1.429 . S
C685 C679 1.429 . S
C685 C686 1.523 . S
C686 C667 1.368 1_455 S
C686 C680 1.368 . S
C686 C685 1.523 . S
C687 C671 1.429 . S
C687 C683 1.429 . S
C687 C688 1.523 . S
C688 C672 1.368 1_655 S
C688 C684 1.368 . S
C688 C687 1.523 . S
H689 C664 0.950 . S
H690 C666 0.950 . S
H691 C667 0.949 . S
H692 C669 0.950 . S
H693 C671 0.950 . S
C694 C695 1.349 . S
C694 C696 1.327 . S
C694 H719 0.950 . S
C695 C694 1.349 . S
C695 C711 1.349 . S
C696 C694 1.327 . S
C696 C715 1.429 . S
C696 H720 0.950 . S
C697 C714 1.574 1_455 S
C697 C716 1.368 . S
C697 H721 0.949 . S
H698 C702 0.949 . S
C699 C700 1.349 . S
C699 C701 1.327 . S
C699 H722 0.950 . S
C700 C699 1.349 . S
C700 C712 1.349 . S
C701 C699 1.327 . S
C701 C717 1.429 . S
C701 H723 0.950 . S
C702 H698 0.949 . S
C702 C710 1.574 1_655 S
C702 C718 1.368 . S
H703 C711 0.950 . S
H704 C709 0.950 . S
H705 C710 0.949 . S
H706 C712 0.950 . S
H707 C713 0.950 . S
H708 C714 0.949 . S
C709 H704 0.950 . S
C709 C711 1.327 . S
C709 C715 1.429 . S
C710 C702 1.574 1_455 S
C710 H705 0.949 . S
C710 C716 1.368 1_545 S
C711 C695 1.349 . S
C711 H703 0.950 . S
C711 C709 1.327 . S
C712 C700 1.349 . S
C712 H706 0.950 . S
C712 C713 1.327 . S
C713 H707 0.950 . S
C713 C712 1.327 . S
C713 C717 1.429 . S
C714 C697 1.574 1_655 S
C714 H708 0.949 . S
C714 C718 1.368 1_565 S
C715 C696 1.429 . S
C715 C709 1.429 . S
C715 C716 1.523 . S
C716 C697 1.368 . S
C716 C710 1.368 1_565 S
C716 C715 1.523 . S
C717 C701 1.429 . S
C717 C713 1.429 . S
C717 C718 1.523 . S
C718 C702 1.368 . S
C718 C714 1.368 1_545 S
C718 C717 1.523 . S
H719 C694 0.950 . S
H720 C696 0.950 . S
H721 C697 0.949 . S
H722 C699 0.950 . S
H723 C701 0.950 . S
C724 C725 1.349 . S
C724 C726 1.327 . S
C724 H749 0.950 . S
C725 C724 1.349 . S
C725 C741 1.349 . S
C726 C724 1.327 . S
C726 C745 1.429 . S
C726 H750 0.950 . S
C727 C744 1.574 . S
C727 C746 1.368 . S
C727 H751 0.949 . S
H728 C732 0.949 . S
C729 C730 1.349 . S
C729 C731 1.327 . S
C729 H752 0.950 . S
C730 C729 1.349 . S
C730 C742 1.349 . S
C731 C729 1.327 . S
C731 C747 1.429 . S
C731 H753 0.950 . S
C732 H728 0.949 . S
C732 C740 1.574 . S
C732 C748 1.368 . S
H733 C741 0.950 . S
H734 C739 0.950 . S
H735 C740 0.949 . S
H736 C742 0.950 . S
H737 C743 0.950 . S
H738 C744 0.949 . S
C739 H734 0.950 . S
C739 C741 1.327 . S
C739 C745 1.429 . S
C740 C732 1.574 . S
C740 H735 0.949 . S
C740 C746 1.368 . S
C741 C725 1.349 . S
C741 H733 0.950 . S
C741 C739 1.327 . S
C742 C730 1.349 . S
C742 H736 0.950 . S
C742 C743 1.327 . S
C743 H737 0.950 . S
C743 C742 1.327 . S
C743 C747 1.429 . S
C744 C727 1.574 . S
C744 H738 0.949 . S
C744 C748 1.368 . S
C745 C726 1.429 . S
C745 C739 1.429 . S
C745 C746 1.523 . S
C746 C727 1.368 . S
C746 C740 1.368 . S
C746 C745 1.523 . S
C747 C731 1.429 . S
C747 C743 1.429 . S
C747 C748 1.523 . S
C748 C732 1.368 . S
C748 C744 1.368 . S
C748 C747 1.523 . S
H749 C724 0.950 . S
H750 C726 0.950 . S
H751 C727 0.949 . S
H752 C729 0.950 . S
H753 C731 0.950 . S
C754 C755 1.349 . S
C754 C756 1.327 . S
C754 H779 0.950 . S
C755 C754 1.349 . S
C755 C771 1.349 . S
C756 C754 1.327 . S
C756 C775 1.429 . S
C756 H780 0.950 . S
C757 C774 1.574 . S
C757 C776 1.368 . S
C757 H781 0.949 . S
H758 C762 0.949 . S
C759 C760 1.349 . S
C759 C761 1.327 . S
C759 H782 0.950 . S
C760 C759 1.349 . S
C760 C772 1.349 . S
C761 C759 1.327 . S
C761 C777 1.429 . S
C761 H783 0.950 . S
C762 H758 0.949 . S
C762 C770 1.574 . S
C762 C778 1.368 . S
H763 C771 0.950 . S
H764 C769 0.950 . S
H765 C770 0.949 . S
H766 C772 0.950 . S
H767 C773 0.950 . S
H768 C774 0.949 . S
C769 H764 0.950 . S
C769 C771 1.327 . S
C769 C775 1.429 . S
C770 C762 1.574 . S
C770 H765 0.949 . S
C770 C776 1.368 . S
C771 C755 1.349 . S
C771 H763 0.950 . S
C771 C769 1.327 . S
C772 C760 1.349 . S
C772 H766 0.950 . S
C772 C773 1.327 . S
C773 H767 0.950 . S
C773 C772 1.327 . S
C773 C777 1.429 . S
C774 C757 1.574 . S
C774 H768 0.949 . S
C774 C778 1.368 . S
C775 C756 1.429 . S
C775 C769 1.429 . S
C775 C776 1.523 . S
C776 C757 1.368 . S
C776 C770 1.368 . S
C776 C775 1.523 . S
C777 C761 1.429 . S
C777 C773 1.429 . S
C777 C778 1.523 . S
C778 C762 1.368 . S
C778 C774 1.368 . S
C778 C777 1.523 . S
H779 C754 0.950 . S
H780 C756 0.950 . S
H781 C757 0.949 . S
H782 C759 0.950 . S
H783 C761 0.950 . S
C784 C785 1.349 . S
C784 C786 1.327 . S
C784 H809 0.950 . S
C785 C784 1.349 . S
C785 C801 1.349 . S
C786 C784 1.327 . S
C786 C805 1.429 . S
C786 H810 0.950 . S
C787 C804 1.574 . S
C787 C806 1.368 . S
C787 H811 0.949 . S
H788 C792 0.949 . S
C789 C790 1.349 . S
C789 C791 1.327 . S
C789 H812 0.950 . S
C790 C789 1.349 . S
C790 C802 1.349 . S
C791 C789 1.327 . S
C791 C807 1.429 . S
C791 H813 0.950 . S
C792 H788 0.949 . S
C792 C800 1.574 . S
C792 C808 1.368 . S
H793 C801 0.950 . S
H794 C799 0.950 . S
H795 C800 0.949 . S
H796 C802 0.950 . S
H797 C803 0.950 . S
H798 C804 0.949 . S
C799 H794 0.950 . S
C799 C801 1.327 . S
C799 C805 1.429 . S
C800 C792 1.574 . S
C800 H795 0.949 . S
C800 C806 1.368 . S
C801 C785 1.349 . S
C801 H793 0.950 . S
C801 C799 1.327 . S
C802 C790 1.349 . S
C802 H796 0.950 . S
C802 C803 1.327 . S
C803 H797 0.950 . S
C803 C802 1.327 . S
C803 C807 1.429 . S
C804 C787 1.574 . S
C804 H798 0.949 . S
C804 C808 1.368 . S
C805 C786 1.429 . S
C805 C799 1.429 . S
C805 C806 1.523 1_554 S
C806 C787 1.368 . S
C806 C800 1.368 . S
C806 C805 1.523 1_556 S
C807 C791 1.429 . S
C807 C803 1.429 . S
C807 C808 1.523 . S
C808 C792 1.368 . S
C808 C804 1.368 . S
C808 C807 1.523 . S
H809 C784 0.950 . S
H810 C786 0.950 . S
H811 C787 0.949 . S
H812 C789 0.950 . S
H813 C791 0.950 . S
C814 C815 1.349 . S
C814 C816 1.327 . S
C814 H839 0.950 . S
C815 C814 1.349 . S
C815 C831 1.349 . S
C816 C814 1.327 . S
C816 C835 1.429 . S
C816 H840 0.950 . S
C817 C834 1.574 . S
C817 C836 1.368 . S
C817 H841 0.949 . S
H818 C822 0.949 . S
C819 C820 1.349 . S
C819 C821 1.327 . S
C819 H842 0.950 . S
C820 C819 1.349 . S
C820 C832 1.349 . S
C821 C819 1.327 . S
C821 C837 1.429 . S
C821 H843 0.950 . S
C822 H818 0.949 . S
C822 C830 1.574 . S
C822 C838 1.368 . S
H823 C831 0.950 . S
H824 C829 0.950 . S
H825 C830 0.949 . S
H826 C832 0.950 . S
H827 C833 0.950 . S
H828 C834 0.949 . S
C829 H824 0.950 . S
C829 C831 1.327 . S
C829 C835 1.429 . S
C830 C822 1.574 . S
C830 H825 0.949 . S
C830 C836 1.368 . S
C831 C815 1.349 . S
C831 H823 0.950 . S
C831 C829 1.327 . S
C832 C820 1.349 . S
C832 H826 0.950 . S
C832 C833 1.327 . S
C833 H827 0.950 . S
C833 C832 1.327 . S
C833 C837 1.429 . S
C834 C817 1.574 . S
C834 H828 0.949 . S
C834 C838 1.368 . S
C835 C816 1.429 . S
C835 C829 1.429 . S
C835 C836 1.523 . S
C836 C817 1.368 . S
C836 C830 1.368 . S
C836 C835 1.523 . S
C837 C821 1.429 . S
C837 C833 1.429 . S
C837 C838 1.523 . S
C838 C822 1.368 . S
C838 C834 1.368 . S
C838 C837 1.523 . S
H839 C814 0.950 . S
H840 C816 0.950 . S
H841 C817 0.949 . S
H842 C819 0.950 . S
H843 C821 0.950 . S
C844 C845 1.349 . S
C844 C846 1.327 . S
C844 H869 0.950 . S
C845 C844 1.349 . S
C845 C861 1.349 . S
C846 C844 1.327 . S
C846 C865 1.429 . S
C846 H870 0.950 . S
C847 C864 1.574 . S
C847 C866 1.368 . S
C847 H871 0.949 . S
H848 C852 0.949 . S
C849 C850 1.349 . S
C849 C851 1.327 . S
C849 H872 0.950 . S
C850 C849 1.349 . S
C850 C862 1.349 . S
C851 C849 1.327 . S
C851 C867 1.429 . S
C851 H873 0.950 . S
C852 H848 0.949 . S
C852 C860 1.574 . S
C852 C868 1.368 . S
H853 C861 0.950 . S
H854 C859 0.950 . S
H855 C860 0.949 . S
H856 C862 0.950 . S
H857 C863 0.950 . S
H858 C864 0.949 . S
C859 H854 0.950 . S
C859 C861 1.327 . S
C859 C865 1.429 . S
C860 C852 1.574 . S
C860 H855 0.949 . S
C860 C866 1.368 . S
C861 C845 1.349 . S
C861 H853 0.950 . S
C861 C859 1.327 . S
C862 C850 1.349 . S
C862 H856 0.950 . S
C862 C863 1.327 . S
C863 H857 0.950 . S
C863 C862 1.327 . S
C863 C867 1.429 . S
C864 C847 1.574 . S
C864 H858 0.949 . S
C864 C868 1.368 . S
C865 C846 1.429 . S
C865 C859 1.429 . S
C865 C866 1.523 . S
C866 C847 1.368 . S
C866 C860 1.368 . S
C866 C865 1.523 . S
C867 C851 1.429 . S
C867 C863 1.429 . S
C867 C868 1.523 1_554 S
C868 C852 1.368 . S
C868 C864 1.368 . S
C868 C867 1.523 1_556 S
H869 C844 0.950 . S
H870 C846 0.950 . S
H871 C847 0.949 . S
H872 C849 0.950 . S
H873 C851 0.950 . S
C874 C875 1.349 . S
C874 C876 1.327 . S
C874 H899 0.950 . S
C875 C874 1.349 . S
C875 C891 1.349 . S
C876 C874 1.327 . S
C876 C895 1.429 . S
C876 H900 0.950 . S
C877 C894 1.574 . S
C877 C896 1.368 . S
C877 H901 0.949 . S
H878 C882 0.949 . S
C879 C880 1.349 . S
C879 C881 1.327 . S
C879 H902 0.950 . S
C880 C879 1.349 . S
C880 C892 1.349 . S
C881 C879 1.327 . S
C881 C897 1.429 . S
C881 H903 0.950 . S
C882 H878 0.949 . S
C882 C890 1.574 . S
C882 C898 1.368 . S
H883 C891 0.950 . S
H884 C889 0.950 . S
H885 C890 0.949 . S
H886 C892 0.950 . S
H887 C893 0.950 . S
H888 C894 0.949 . S
C889 H884 0.950 . S
C889 C891 1.327 . S
C889 C895 1.429 . S
C890 C882 1.574 . S
C890 H885 0.949 . S
C890 C896 1.368 . S
C891 C875 1.349 . S
C891 H883 0.950 . S
C891 C889 1.327 . S
C892 C880 1.349 . S
C892 H886 0.950 . S
C892 C893 1.327 . S
C893 H887 0.950 . S
C893 C892 1.327 . S
C893 C897 1.429 . S
C894 C877 1.574 . S
C894 H888 0.949 . S
C894 C898 1.368 . S
C895 C876 1.429 . S
C895 C889 1.429 . S
C895 C896 1.523 . S
C896 C877 1.368 . S
C896 C890 1.368 . S
C896 C895 1.523 . S
C897 C881 1.429 . S
C897 C893 1.429 . S
C897 C898 1.523 . S
C898 C882 1.368 . S
C898 C894 1.368 . S
C898 C897 1.523 . S
H899 C874 0.950 . S
H900 C876 0.950 . S
H901 C877 0.949 . S
H902 C879 0.950 . S
H903 C881 0.950 . S
C904 C905 1.349 . S
C904 C906 1.327 . S
C904 H929 0.950 . S
C905 C904 1.349 . S
C905 C921 1.349 . S
C906 C904 1.327 . S
C906 C925 1.429 . S
C906 H930 0.950 . S
C907 C924 1.574 . S
C907 C926 1.368 . S
C907 H931 0.949 . S
H908 C912 0.949 . S
C909 C910 1.349 . S
C909 C911 1.327 . S
C909 H932 0.950 . S
C910 C909 1.349 . S
C910 C922 1.349 . S
C911 C909 1.327 . S
C911 C927 1.429 . S
C911 H933 0.950 . S
C912 H908 0.949 . S
C912 C920 1.574 . S
C912 C928 1.368 . S
H913 C921 0.950 . S
H914 C919 0.950 . S
H915 C920 0.949 . S
H916 C922 0.950 . S
H917 C923 0.950 . S
H918 C924 0.949 . S
C919 H914 0.950 . S
C919 C921 1.327 . S
C919 C925 1.429 . S
C920 C912 1.574 . S
C920 H915 0.949 . S
C920 C926 1.368 . S
C921 C905 1.349 . S
C921 H913 0.950 . S
C921 C919 1.327 . S
C922 C910 1.349 . S
C922 H916 0.950 . S
C922 C923 1.327 . S
C923 H917 0.950 . S
C923 C922 1.327 . S
C923 C927 1.429 . S
C924 C907 1.574 . S
C924 H918 0.949 . S
C924 C928 1.368 . S
C925 C906 1.429 . S
C925 C919 1.429 . S
C925 C926 1.523 . S
C926 C907 1.368 . S
C926 C920 1.368 . S
C926 C925 1.523 . S
C927 C911 1.429 . S
C927 C923 1.429 . S
C927 C928 1.523 1_556 S
C928 C912 1.368 . S
C928 C924 1.368 . S
C928 C927 1.523 1_554 S
H929 C904 0.950 . S
H930 C906 0.950 . S
H931 C907 0.949 . S
H932 C909 0.950 . S
H933 C911 0.950 . S
C934 C935 1.349 . S
C934 C936 1.327 . S
C934 H959 0.950 . S
C935 C934 1.349 . S
C935 C951 1.349 . S
C936 C934 1.327 . S
C936 C955 1.429 . S
C936 H960 0.950 . S
C937 C954 1.574 . S
C937 C956 1.368 . S
C937 H961 0.949 . S
H938 C942 0.949 . S
C939 C940 1.349 . S
C939 C941 1.327 . S
C939 H962 0.950 . S
C940 C939 1.349 . S
C940 C952 1.349 . S
C941 C939 1.327 . S
C941 C957 1.429 . S
C941 H963 0.950 . S
C942 H938 0.949 . S
C942 C950 1.574 . S
C942 C958 1.368 . S
H943 C951 0.950 . S
H944 C949 0.950 . S
H945 C950 0.949 . S
H946 C952 0.950 . S
H947 C953 0.950 . S
H948 C954 0.949 . S
C949 H944 0.950 . S
C949 C951 1.327 . S
C949 C955 1.429 . S
C950 C942 1.574 . S
C950 H945 0.949 . S
C950 C956 1.368 . S
C951 C935 1.349 . S
C951 H943 0.950 . S
C951 C949 1.327 . S
C952 C940 1.349 . S
C952 H946 0.950 . S
C952 C953 1.327 . S
C953 H947 0.950 . S
C953 C952 1.327 . S
C953 C957 1.429 . S
C954 C937 1.574 . S
C954 H948 0.949 . S
C954 C958 1.368 . S
C955 C936 1.429 . S
C955 C949 1.429 . S
C955 C956 1.523 . S
C956 C937 1.368 . S
C956 C950 1.368 . S
C956 C955 1.523 . S
C957 C941 1.429 . S
C957 C953 1.429 . S
C957 C958 1.523 . S
C958 C942 1.368 . S
C958 C954 1.368 . S
C958 C957 1.523 . S
H959 C934 0.950 . S
H960 C936 0.950 . S
H961 C937 0.949 . S
H962 C939 0.950 . S
H963 C941 0.950 . S
C964 C965 1.349 . S
C964 C966 1.327 . S
C964 H989 0.950 . S
C965 C964 1.349 . S
C965 C981 1.349 . S
C966 C964 1.327 . S
C966 C985 1.429 . S
C966 H990 0.950 . S
C967 C984 1.574 . S
C967 C986 1.368 . S
C967 H991 0.949 . S
H968 C972 0.949 . S
C969 C970 1.349 . S
C969 C971 1.327 . S
C969 H992 0.950 . S
C970 C969 1.349 . S
C970 C982 1.349 . S
C971 C969 1.327 . S
C971 C987 1.429 . S
C971 H993 0.950 . S
C972 H968 0.949 . S
C972 C980 1.574 . S
C972 C988 1.368 . S
H973 C981 0.950 . S
H974 C979 0.950 . S
H975 C980 0.949 . S
H976 C982 0.950 . S
H977 C983 0.950 . S
H978 C984 0.949 . S
C979 H974 0.950 . S
C979 C981 1.327 . S
C979 C985 1.429 . S
C980 C972 1.574 . S
C980 H975 0.949 . S
C980 C986 1.368 . S
C981 C965 1.349 . S
C981 H973 0.950 . S
C981 C979 1.327 . S
C982 C970 1.349 . S
C982 H976 0.950 . S
C982 C983 1.327 . S
C983 H977 0.950 . S
C983 C982 1.327 . S
C983 C987 1.429 . S
C984 C967 1.574 . S
C984 H978 0.949 . S
C984 C988 1.368 . S
C985 C966 1.429 . S
C985 C979 1.429 . S
C985 C986 1.523 . S
C986 C967 1.368 . S
C986 C980 1.368 . S
C986 C985 1.523 . S
C987 C971 1.429 . S
C987 C983 1.429 . S
C987 C988 1.523 1_556 S
C988 C972 1.368 . S
C988 C984 1.368 . S
C988 C987 1.523 1_554 S
H989 C964 0.950 . S
H990 C966 0.950 . S
H991 C967 0.949 . S
H992 C969 0.950 . S
H993 C971 0.950 . S
C994 C995 1.349 . S
C994 C996 1.327 . S
C994 H1019 0.950 . S
C995 C994 1.349 . S
C995 C1011 1.349 . S
C996 C994 1.327 . S
C996 C1015 1.429 . S
C996 H1020 0.950 . S
C997 C1014 1.574 . S
C997 C1016 1.368 . S
C997 H1021 0.949 . S
H998 C1002 0.949 . S
C999 C1000 1.349 . S
C999 C1001 1.327 . S
C999 H1022 0.950 . S
C1000 C999 1.349 . S
C1000 C1012 1.349 . S
C1001 C999 1.327 . S
C1001 C1017 1.429 . S
C1001 H1023 0.950 . S
C1002 H998 0.949 . S
C1002 C1010 1.574 . S
C1002 C1018 1.368 . S
H1003 C1011 0.950 . S
H1004 C1009 0.950 . S
H1005 C1010 0.949 . S
H1006 C1012 0.950 . S
H1007 C1013 0.950 . S
H1008 C1014 0.949 . S
C1009 H1004 0.950 . S
C1009 C1011 1.327 . S
C1009 C1015 1.429 . S
C1010 C1002 1.574 . S
C1010 H1005 0.949 . S
C1010 C1016 1.368 . S
C1011 C995 1.349 . S
C1011 H1003 0.950 . S
C1011 C1009 1.327 . S
C1012 C1000 1.349 . S
C1012 H1006 0.950 . S
C1012 C1013 1.327 . S
C1013 H1007 0.950 . S
C1013 C1012 1.327 . S
C1013 C1017 1.429 . S
C1014 C997 1.574 . S
C1014 H1008 0.949 . S
C1014 C1018 1.368 . S
C1015 C996 1.429 . S
C1015 C1009 1.429 . S
C1015 C1016 1.523 . S
C1016 C997 1.368 . S
C1016 C1010 1.368 . S
C1016 C1015 1.523 . S
C1017 C1001 1.429 . S
C1017 C1013 1.429 . S
C1017 C1018 1.523 . S
C1018 C1002 1.368 . S
C1018 C1014 1.368 . S
C1018 C1017 1.523 . S
H1019 C994 0.950 . S
H1020 C996 0.950 . S
H1021 C997 0.949 . S
H1022 C999 0.950 . S
H1023 C1001 0.950 . S
C1024 C1025 1.349 . S
C1024 C1026 1.327 . S
C1024 H1049 0.950 . S
C1025 C1024 1.349 . S
C1025 C1041 1.349 . S
C1026 C1024 1.327 . S
C1026 C1045 1.429 . S
C1026 H1050 0.950 . S
C1027 C1044 1.574 . S
C1027 C1046 1.368 . S
C1027 H1051 0.949 . S
H1028 C1032 0.949 . S
C1029 C1030 1.349 . S
C1029 C1031 1.327 . S
C1029 H1052 0.950 . S
C1030 C1029 1.349 . S
C1030 C1042 1.349 . S
C1031 C1029 1.327 . S
C1031 C1047 1.429 . S
C1031 H1053 0.950 . S
C1032 H1028 0.949 . S
C1032 C1040 1.574 . S
C1032 C1048 1.368 . S
H1033 C1041 0.950 . S
H1034 C1039 0.950 . S
H1035 C1040 0.949 . S
H1036 C1042 0.950 . S
H1037 C1043 0.950 . S
H1038 C1044 0.949 . S
C1039 H1034 0.950 . S
C1039 C1041 1.327 . S
C1039 C1045 1.429 . S
C1040 C1032 1.574 . S
C1040 H1035 0.949 . S
C1040 C1046 1.368 . S
C1041 C1025 1.349 . S
C1041 H1033 0.950 . S
C1041 C1039 1.327 . S
C1042 C1030 1.349 . S
C1042 H1036 0.950 . S
C1042 C1043 1.327 . S
C1043 H1037 0.950 . S
C1043 C1042 1.327 . S
C1043 C1047 1.429 . S
C1044 C1027 1.574 . S
C1044 H1038 0.949 . S
C1044 C1048 1.368 . S
C1045 C1026 1.429 . S
C1045 C1039 1.429 . S
C1045 C1046 1.523 . S
C1046 C1027 1.368 . S
C1046 C1040 1.368 . S
C1046 C1045 1.523 . S
C1047 C1031 1.429 . S
C1047 C1043 1.429 . S
C1047 C1048 1.523 . S
C1048 C1032 1.368 . S
C1048 C1044 1.368 . S
C1048 C1047 1.523 . S
H1049 C1024 0.950 . S
H1050 C1026 0.950 . S
H1051 C1027 0.949 . S
H1052 C1029 0.950 . S
H1053 C1031 0.950 . S
C1054 C1055 1.349 . S
C1054 C1056 1.327 . S
C1054 H1079 0.950 . S
C1055 C1054 1.349 . S
C1055 C1071 1.349 . S
C1056 C1054 1.327 . S
C1056 C1075 1.429 . S
C1056 H1080 0.950 . S
C1057 C1074 1.574 . S
C1057 C1076 1.368 . S
C1057 H1081 0.949 . S
H1058 C1062 0.949 . S
C1059 C1060 1.349 . S
C1059 C1061 1.327 . S
C1059 H1082 0.950 . S
C1060 C1059 1.349 . S
C1060 C1072 1.349 . S
C1061 C1059 1.327 . S
C1061 C1077 1.429 . S
C1061 H1083 0.950 . S
C1062 H1058 0.949 . S
C1062 C1070 1.574 . S
C1062 C1078 1.368 . S
H1063 C1071 0.950 . S
H1064 C1069 0.950 . S
H1065 C1070 0.949 . S
H1066 C1072 0.950 . S
H1067 C1073 0.950 . S
H1068 C1074 0.949 . S
C1069 H1064 0.950 . S
C1069 C1071 1.327 . S
C1069 C1075 1.429 . S
C1070 C1062 1.574 . S
C1070 H1065 0.949 . S
C1070 C1076 1.368 . S
C1071 C1055 1.349 . S
C1071 H1063 0.950 . S
C1071 C1069 1.327 . S
C1072 C1060 1.349 . S
C1072 H1066 0.950 . S
C1072 C1073 1.327 . S
C1073 H1067 0.950 . S
C1073 C1072 1.327 . S
C1073 C1077 1.429 . S
C1074 C1057 1.574 . S
C1074 H1068 0.949 . S
C1074 C1078 1.368 . S
C1075 C1056 1.429 . S
C1075 C1069 1.429 . S
C1075 C1076 1.523 . S
C1076 C1057 1.368 . S
C1076 C1070 1.368 . S
C1076 C1075 1.523 . S
C1077 C1061 1.429 . S
C1077 C1073 1.429 . S
C1077 C1078 1.523 . S
C1078 C1062 1.368 . S
C1078 C1074 1.368 . S
C1078 C1077 1.523 . S
H1079 C1054 0.950 . S
H1080 C1056 0.950 . S
H1081 C1057 0.949 . S
H1082 C1059 0.950 . S
H1083 C1061 0.950 . S
C1084 C1085 1.349 . S
C1084 C1086 1.327 . S
C1084 H1109 0.950 . S
C1085 C1084 1.349 . S
C1085 C1101 1.349 . S
C1086 C1084 1.327 . S
C1086 C1105 1.429 . S
C1086 H1110 0.950 . S
C1087 C1104 1.574 . S
C1087 C1106 1.368 . S
C1087 H1111 0.949 . S
H1088 C1092 0.949 . S
C1089 C1090 1.349 . S
C1089 C1091 1.327 . S
C1089 H1112 0.950 . S
C1090 C1089 1.349 . S
C1090 C1102 1.349 . S
C1091 C1089 1.327 . S
C1091 C1107 1.429 . S
C1091 H1113 0.950 . S
C1092 H1088 0.949 . S
C1092 C1100 1.574 . S
C1092 C1108 1.368 . S
H1093 C1101 0.950 . S
H1094 C1099 0.950 . S
H1095 C1100 0.949 . S
H1096 C1102 0.950 . S
H1097 C1103 0.950 . S
H1098 C1104 0.949 . S
C1099 H1094 0.950 . S
C1099 C1101 1.327 . S
C1099 C1105 1.429 . S
C1100 C1092 1.574 . S
C1100 H1095 0.949 . S
C1100 C1106 1.368 . S
C1101 C1085 1.349 . S
C1101 H1093 0.950 . S
C1101 C1099 1.327 . S
C1102 C1090 1.349 . S
C1102 H1096 0.950 . S
C1102 C1103 1.327 . S
C1103 H1097 0.950 . S
C1103 C1102 1.327 . S
C1103 C1107 1.429 . S
C1104 C1087 1.574 . S
C1104 H1098 0.949 . S
C1104 C1108 1.368 . S
C1105 C1086 1.429 . S
C1105 C1099 1.429 . S
C1105 C1106 1.523 . S
C1106 C1087 1.368 . S
C1106 C1100 1.368 . S
C1106 C1105 1.523 . S
C1107 C1091 1.429 . S
C1107 C1103 1.429 . S
C1107 C1108 1.523 . S
C1108 C1092 1.368 . S
C1108 C1104 1.368 . S
C1108 C1107 1.523 . S
H1109 C1084 0.950 . S
H1110 C1086 0.950 . S
H1111 C1087 0.949 . S
H1112 C1089 0.950 . S
H1113 C1091 0.950 . S
C1114 C1115 1.349 . S
C1114 C1116 1.327 . S
C1114 H1139 0.950 . S
C1115 C1114 1.349 . S
C1115 C1131 1.349 . S
C1116 C1114 1.327 . S
C1116 C1135 1.429 . S
C1116 H1140 0.950 . S
C1117 C1134 1.574 . S
C1117 C1136 1.368 . S
C1117 H1141 0.949 . S
H1118 C1122 0.949 . S
C1119 C1120 1.349 . S
C1119 C1121 1.327 . S
C1119 H1142 0.950 . S
C1120 C1119 1.349 . S
C1120 C1132 1.349 . S
C1121 C1119 1.327 . S
C1121 C1137 1.429 . S
C1121 H1143 0.950 . S
C1122 H1118 0.949 . S
C1122 C1130 1.574 . S
C1122 C1138 1.368 . S
H1123 C1131 0.950 . S
H1124 C1129 0.950 . S
H1125 C1130 0.949 . S
H1126 C1132 0.950 . S
H1127 C1133 0.950 . S
H1128 C1134 0.949 . S
C1129 H1124 0.950 . S
C1129 C1131 1.327 . S
C1129 C1135 1.429 . S
C1130 C1122 1.574 . S
C1130 H1125 0.949 . S
C1130 C1136 1.368 . S
C1131 C1115 1.349 . S
C1131 H1123 0.950 . S
C1131 C1129 1.327 . S
C1132 C1120 1.349 . S
C1132 H1126 0.950 . S
C1132 C1133 1.327 . S
C1133 H1127 0.950 . S
C1133 C1132 1.327 . S
C1133 C1137 1.429 . S
C1134 C1117 1.574 . S
C1134 H1128 0.949 . S
C1134 C1138 1.368 . S
C1135 C1116 1.429 . S
C1135 C1129 1.429 . S
C1135 C1136 1.523 . S
C1136 C1117 1.368 . S
C1136 C1130 1.368 . S
C1136 C1135 1.523 . S
C1137 C1121 1.429 . S
C1137 C1133 1.429 . S
C1137 C1138 1.523 . S
C1138 C1122 1.368 . S
C1138 C1134 1.368 . S
C1138 C1137 1.523 . S
H1139 C1114 0.950 . S
H1140 C1116 0.950 . S
H1141 C1117 0.949 . S
H1142 C1119 0.950 . S
H1143 C1121 0.950 . S
C1144 C1145 1.349 . S
C1144 C1146 1.327 . S
C1144 H1169 0.950 . S
C1145 C1144 1.349 . S
C1145 C1161 1.349 . S
C1146 C1144 1.327 . S
C1146 C1165 1.429 . S
C1146 H1170 0.950 . S
C1147 C1164 1.574 . S
C1147 C1166 1.368 . S
C1147 H1171 0.949 . S
H1148 C1152 0.949 . S
C1149 C1150 1.349 . S
C1149 C1151 1.327 . S
C1149 H1172 0.950 . S
C1150 C1149 1.349 . S
C1150 C1162 1.349 . S
C1151 C1149 1.327 . S
C1151 C1167 1.429 . S
C1151 H1173 0.950 . S
C1152 H1148 0.949 . S
C1152 C1160 1.574 . S
C1152 C1168 1.368 . S
H1153 C1161 0.950 . S
H1154 C1159 0.950 . S
H1155 C1160 0.949 . S
H1156 C1162 0.950 . S
H1157 C1163 0.950 . S
H1158 C1164 0.949 . S
C1159 H1154 0.950 . S
C1159 C1161 1.327 . S
C1159 C1165 1.429 . S
C1160 C1152 1.574 . S
C1160 H1155 0.949 . S
C1160 C1166 1.368 . S
C1161 C1145 1.349 . S
C1161 H1153 0.950 . S
C1161 C1159 1.327 . S
C1162 C1150 1.349 . S
C1162 H1156 0.950 . S
C1162 C1163 1.327 . S
C1163 H1157 0.950 . S
C1163 C1162 1.327 . S
C1163 C1167 1.429 . S
C1164 C1147 1.574 . S
C1164 H1158 0.949 . S
C1164 C1168 1.368 . S
C1165 C1146 1.429 . S
C1165 C1159 1.429 . S
C1165 C1166 1.523 . S
C1166 C1147 1.368 . S
C1166 C1160 1.368 . S
C1166 C1165 1.523 . S
C1167 C1151 1.429 . S
C1167 C1163 1.429 . S
C1167 C1168 1.523 . S
C1168 C1152 1.368 . S
C1168 C1164 1.368 . S
C1168 C1167 1.523 . S
H1169 C1144 0.950 . S
H1170 C1146 0.950 . S
H1171 C1147 0.949 . S
H1172 C1149 0.950 . S
H1173 C1151 0.950 . S
C1174 C1175 1.349 . S
C1174 C1176 1.327 . S
C1174 H1199 0.950 . S
C1175 C1174 1.349 . S
C1175 C1191 1.349 . S
C1176 C1174 1.327 . S
C1176 C1195 1.429 . S
C1176 H1200 0.950 . S
C1177 C1194 1.574 . S
C1177 C1196 1.368 . S
C1177 H1201 0.949 . S
H1178 C1182 0.949 . S
C1179 C1180 1.349 . S
C1179 C1181 1.327 . S
C1179 H1202 0.950 . S
C1180 C1179 1.349 . S
C1180 C1192 1.349 . S
C1181 C1179 1.327 . S
C1181 C1197 1.429 . S
C1181 H1203 0.950 . S
C1182 H1178 0.949 . S
C1182 C1190 1.574 . S
C1182 C1198 1.368 . S
H1183 C1191 0.950 . S
H1184 C1189 0.950 . S
H1185 C1190 0.949 . S
H1186 C1192 0.950 . S
H1187 C1193 0.950 . S
H1188 C1194 0.949 . S
C1189 H1184 0.950 . S
C1189 C1191 1.327 . S
C1189 C1195 1.429 . S
C1190 C1182 1.574 . S
C1190 H1185 0.949 . S
C1190 C1196 1.368 . S
C1191 C1175 1.349 . S
C1191 H1183 0.950 . S
C1191 C1189 1.327 . S
C1192 C1180 1.349 . S
C1192 H1186 0.950 . S
C1192 C1193 1.327 . S
C1193 H1187 0.950 . S
C1193 C1192 1.327 . S
C1193 C1197 1.429 . S
C1194 C1177 1.574 . S
C1194 H1188 0.949 . S
C1194 C1198 1.368 . S
C1195 C1176 1.429 . S
C1195 C1189 1.429 . S
C1195 C1196 1.523 . S
C1196 C1177 1.368 . S
C1196 C1190 1.368 . S
C1196 C1195 1.523 . S
C1197 C1181 1.429 . S
C1197 C1193 1.429 . S
C1197 C1198 1.523 . S
C1198 C1182 1.368 . S
C1198 C1194 1.368 . S
C1198 C1197 1.523 . S
H1199 C1174 0.950 . S
H1200 C1176 0.950 . S
H1201 C1177 0.949 . S
H1202 C1179 0.950 . S
H1203 C1181 0.950 . S
C1204 C1205 1.349 . S
C1204 C1206 1.327 . S
C1204 H1229 0.950 . S
C1205 C1204 1.349 . S
C1205 C1221 1.349 . S
C1206 C1204 1.327 . S
C1206 C1225 1.429 . S
C1206 H1230 0.950 . S
C1207 C1224 1.574 . S
C1207 C1226 1.368 . S
C1207 H1231 0.949 . S
H1208 C1212 0.949 . S
C1209 C1210 1.349 . S
C1209 C1211 1.327 . S
C1209 H1232 0.950 . S
C1210 C1209 1.349 . S
C1210 C1222 1.349 . S
C1211 C1209 1.327 . S
C1211 C1227 1.429 . S
C1211 H1233 0.950 . S
C1212 H1208 0.949 . S
C1212 C1220 1.574 . S
C1212 C1228 1.368 . S
H1213 C1221 0.950 . S
H1214 C1219 0.950 . S
H1215 C1220 0.949 . S
H1216 C1222 0.950 . S
H1217 C1223 0.950 . S
H1218 C1224 0.949 . S
C1219 H1214 0.950 . S
C1219 C1221 1.327 . S
C1219 C1225 1.429 . S
C1220 C1212 1.574 . S
C1220 H1215 0.949 . S
C1220 C1226 1.368 . S
C1221 C1205 1.349 . S
C1221 H1213 0.950 . S
C1221 C1219 1.327 . S
C1222 C1210 1.349 . S
C1222 H1216 0.950 . S
C1222 C1223 1.327 . S
C1223 H1217 0.950 . S
C1223 C1222 1.327 . S
C1223 C1227 1.429 . S
C1224 C1207 1.574 . S
C1224 H1218 0.949 . S
C1224 C1228 1.368 . S
C1225 C1206 1.429 . S
C1225 C1219 1.429 . S
C1225 C1226 1.523 . S
C1226 C1207 1.368 . S
C1226 C1220 1.368 . S
C1226 C1225 1.523 . S
C1227 C1211 1.429 . S
C1227 C1223 1.429 . S
C1227 C1228 1.523 . S
C1228 C1212 1.368 . S
C1228 C1224 1.368 . S
C1228 C1227 1.523 . S
H1229 C1204 0.950 . S
H1230 C1206 0.950 . S
H1231 C1207 0.949 . S
H1232 C1209 0.950 . S
H1233 C1211 0.950 . S
C1234 C1235 1.349 . S
C1234 C1236 1.327 . S
C1234 H1259 0.950 . S
C1235 C1234 1.349 . S
C1235 C1251 1.349 . S
C1236 C1234 1.327 . S
C1236 C1255 1.429 . S
C1236 H1260 0.950 . S
C1237 C1254 1.574 . S
C1237 C1256 1.368 . S
C1237 H1261 0.949 . S
H1238 C1242 0.949 . S
C1239 C1240 1.349 . S
C1239 C1241 1.327 . S
C1239 H1262 0.950 . S
C1240 C1239 1.349 . S
C1240 C1252 1.349 . S
C1241 C1239 1.327 . S
C1241 C1257 1.429 . S
C1241 H1263 0.950 . S
C1242 H1238 0.949 . S
C1242 C1250 1.574 . S
C1242 C1258 1.368 . S
H1243 C1251 0.950 . S
H1244 C1249 0.950 . S
H1245 C1250 0.949 . S
H1246 C1252 0.950 . S
H1247 C1253 0.950 . S
H1248 C1254 0.949 . S
C1249 H1244 0.950 . S
C1249 C1251 1.327 . S
C1249 C1255 1.429 . S
C1250 C1242 1.574 . S
C1250 H1245 0.949 . S
C1250 C1256 1.368 . S
C1251 C1235 1.349 . S
C1251 H1243 0.950 . S
C1251 C1249 1.327 . S
C1252 C1240 1.349 . S
C1252 H1246 0.950 . S
C1252 C1253 1.327 . S
C1253 H1247 0.950 . S
C1253 C1252 1.327 . S
C1253 C1257 1.429 . S
C1254 C1237 1.574 . S
C1254 H1248 0.949 . S
C1254 C1258 1.368 . S
C1255 C1236 1.429 . S
C1255 C1249 1.429 . S
C1255 C1256 1.523 . S
C1256 C1237 1.368 . S
C1256 C1250 1.368 . S
C1256 C1255 1.523 . S
C1257 C1241 1.429 . S
C1257 C1253 1.429 . S
C1257 C1258 1.523 . S
C1258 C1242 1.368 . S
C1258 C1254 1.368 . S
C1258 C1257 1.523 . S
H1259 C1234 0.950 . S
H1260 C1236 0.950 . S
H1261 C1237 0.949 . S
H1262 C1239 0.950 . S
H1263 C1241 0.950 . S
C1264 C1265 1.349 . S
C1264 C1266 1.327 . S
C1264 H1289 0.950 . S
C1265 C1264 1.349 . S
C1265 C1281 1.349 . S
C1266 C1264 1.327 . S
C1266 C1285 1.429 . S
C1266 H1290 0.950 . S
C1267 C1284 1.574 . S
C1267 C1286 1.368 . S
C1267 H1291 0.949 . S
H1268 C1272 0.949 . S
C1269 C1270 1.349 . S
C1269 C1271 1.327 . S
C1269 H1292 0.950 . S
C1270 C1269 1.349 . S
C1270 C1282 1.349 . S
C1271 C1269 1.327 . S
C1271 C1287 1.429 . S
C1271 H1293 0.950 . S
C1272 H1268 0.949 . S
C1272 C1280 1.574 . S
C1272 C1288 1.368 . S
H1273 C1281 0.950 . S
H1274 C1279 0.950 . S
H1275 C1280 0.949 . S
H1276 C1282 0.950 . S
H1277 C1283 0.950 . S
H1278 C1284 0.949 . S
C1279 H1274 0.950 . S
C1279 C1281 1.327 . S
C1279 C1285 1.429 . S
C1280 C1272 1.574 . S
C1280 H1275 0.949 . S
C1280 C1286 1.368 . S
C1281 C1265 1.349 . S
C1281 H1273 0.950 . S
C1281 C1279 1.327 . S
C1282 C1270 1.349 . S
C1282 H1276 0.950 . S
C1282 C1283 1.327 . S
C1283 H1277 0.950 . S
C1283 C1282 1.327 . S
C1283 C1287 1.429 . S
C1284 C1267 1.574 . S
C1284 H1278 0.949 . S
C1284 C1288 1.368 . S
C1285 C1266 1.429 . S
C1285 C1279 1.429 . S
C1285 C1286 1.523 . S
C1286 C1267 1.368 . S
C1286 C1280 1.368 . S
C1286 C1285 1.523 . S
C1287 C1271 1.429 . S
C1287 C1283 1.429 . S
C1287 C1288 1.523 . S
C1288 C1272 1.368 . S
C1288 C1284 1.368 . S
C1288 C1287 1.523 . S
H1289 C1264 0.950 . S
H1290 C1266 0.950 . S
H1291 C1267 0.949 . S
H1292 C1269 0.950 . S
H1293 C1271 0.950 . S
C1294 C1295 1.349 . S
C1294 C1296 1.327 . S
C1294 H1319 0.950 . S
C1295 C1294 1.349 . S
C1295 C1311 1.349 . S
C1296 C1294 1.327 . S
C1296 C1315 1.429 . S
C1296 H1320 0.950 . S
C1297 C1314 1.574 . S
C1297 C1316 1.368 . S
C1297 H1321 0.949 . S
H1298 C1302 0.949 . S
C1299 C1300 1.349 . S
C1299 C1301 1.327 . S
C1299 H1322 0.950 . S
C1300 C1299 1.349 . S
C1300 C1312 1.349 . S
C1301 C1299 1.327 . S
C1301 C1317 1.429 . S
C1301 H1323 0.950 . S
C1302 H1298 0.949 . S
C1302 C1310 1.574 . S
C1302 C1318 1.368 . S
H1303 C1311 0.950 . S
H1304 C1309 0.950 . S
H1305 C1310 0.949 . S
H1306 C1312 0.950 . S
H1307 C1313 0.950 . S
H1308 C1314 0.949 . S
C1309 H1304 0.950 . S
C1309 C1311 1.327 . S
C1309 C1315 1.429 . S
C1310 C1302 1.574 . S
C1310 H1305 0.949 . S
C1310 C1316 1.368 . S
C1311 C1295 1.349 . S
C1311 H1303 0.950 . S
C1311 C1309 1.327 . S
C1312 C1300 1.349 . S
C1312 H1306 0.950 . S
C1312 C1313 1.327 . S
C1313 H1307 0.950 . S
C1313 C1312 1.327 . S
C1313 C1317 1.429 . S
C1314 C1297 1.574 . S
C1314 H1308 0.949 . S
C1314 C1318 1.368 . S
C1315 C1296 1.429 . S
C1315 C1309 1.429 . S
C1315 C1316 1.523 . S
C1316 C1297 1.368 . S
C1316 C1310 1.368 . S
C1316 C1315 1.523 . S
C1317 C1301 1.429 . S
C1317 C1313 1.429 . S
C1317 C1318 1.523 . S
C1318 C1302 1.368 . S
C1318 C1314 1.368 . S
C1318 C1317 1.523 . S
H1319 C1294 0.950 . S
H1320 C1296 0.950 . S
H1321 C1297 0.949 . S
H1322 C1299 0.950 . S
H1323 C1301 0.950 . S
C1324 C1325 1.349 . S
C1324 C1326 1.327 . S
C1324 H1349 0.950 . S
C1325 C1324 1.349 . S
C1325 C1341 1.349 . S
C1326 C1324 1.327 . S
C1326 C1345 1.429 . S
C1326 H1350 0.950 . S
C1327 C1344 1.574 . S
C1327 C1346 1.368 . S
C1327 H1351 0.949 . S
H1328 C1332 0.949 . S
C1329 C1330 1.349 . S
C1329 C1331 1.327 . S
C1329 H1352 0.950 . S
C1330 C1329 1.349 . S
C1330 C1342 1.349 . S
C1331 C1329 1.327 . S
C1331 C1347 1.429 . S
C1331 H1353 0.950 . S
C1332 H1328 0.949 . S
C1332 C1340 1.574 . S
C1332 C1348 1.368 . S
H1333 C1341 0.950 . S
H1334 C1339 0.950 . S
H1335 C1340 0.949 . S
H1336 C1342 0.950 . S
H1337 C1343 0.950 . S
H1338 C1344 0.949 . S
C1339 H1334 0.950 . S
C1339 C1341 1.327 . S
C1339 C1345 1.429 . S
C1340 C1332 1.574 . S
C1340 H1335 0.949 . S
C1340 C1346 1.368 . S
C1341 C1325 1.349 . S
C1341 H1333 0.950 . S
C1341 C1339 1.327 . S
C1342 C1330 1.349 . S
C1342 H1336 0.950 . S
C1342 C1343 1.327 . S
C1343 H1337 0.950 . S
C1343 C1342 1.327 . S
C1343 C1347 1.429 . S
C1344 C1327 1.574 . S
C1344 H1338 0.949 . S
C1344 C1348 1.368 . S
C1345 C1326 1.429 . S
C1345 C1339 1.429 . S
C1345 C1346 1.523 . S
C1346 C1327 1.368 . S
C1346 C1340 1.368 . S
C1346 C1345 1.523 . S
C1347 C1331 1.429 . S
C1347 C1343 1.429 . S
C1347 C1348 1.523 . S
C1348 C1332 1.368 . S
C1348 C1344 1.368 . S
C1348 C1347 1.523 . S
H1349 C1324 0.950 . S
H1350 C1326 0.950 . S
H1351 C1327 0.949 . S
H1352 C1329 0.950 . S
H1353 C1331 0.950 . S
C1354 C1355 1.349 . S
C1354 C1356 1.327 . S
C1354 H1379 0.950 . S
C1355 C1354 1.349 . S
C1355 C1371 1.349 . S
C1356 C1354 1.327 . S
C1356 C1375 1.429 . S
C1356 H1380 0.950 . S
C1357 C1374 1.574 . S
C1357 C1376 1.368 . S
C1357 H1381 0.949 . S
H1358 C1362 0.949 . S
C1359 C1360 1.349 . S
C1359 C1361 1.327 . S
C1359 H1382 0.950 . S
C1360 C1359 1.349 . S
C1360 C1372 1.349 . S
C1361 C1359 1.327 . S
C1361 C1377 1.429 . S
C1361 H1383 0.950 . S
C1362 H1358 0.949 . S
C1362 C1370 1.574 . S
C1362 C1378 1.368 . S
H1363 C1371 0.950 . S
H1364 C1369 0.950 . S
H1365 C1370 0.949 . S
H1366 C1372 0.950 . S
H1367 C1373 0.950 . S
H1368 C1374 0.949 . S
C1369 H1364 0.950 . S
C1369 C1371 1.327 . S
C1369 C1375 1.429 . S
C1370 C1362 1.574 . S
C1370 H1365 0.949 . S
C1370 C1376 1.368 . S
C1371 C1355 1.349 . S
C1371 H1363 0.950 . S
C1371 C1369 1.327 . S
C1372 C1360 1.349 . S
C1372 H1366 0.950 . S
C1372 C1373 1.327 . S
C1373 H1367 0.950 . S
C1373 C1372 1.327 . S
C1373 C1377 1.429 . S
C1374 C1357 1.574 . S
C1374 H1368 0.949 . S
C1374 C1378 1.368 . S
C1375 C1356 1.429 . S
C1375 C1369 1.429 . S
C1375 C1376 1.523 . S
C1376 C1357 1.368 . S
C1376 C1370 1.368 . S
C1376 C1375 1.523 . S
C1377 C1361 1.429 . S
C1377 C1373 1.429 . S
C1377 C1378 1.523 . S
C1378 C1362 1.368 . S
C1378 C1374 1.368 . S
C1378 C1377 1.523 . S
H1379 C1354 0.950 . S
H1380 C1356 0.950 . S
H1381 C1357 0.949 . S
H1382 C1359 0.950 . S
H1383 C1361 0.950 . S
C1384 C1385 1.349 . S
C1384 C1386 1.327 . S
C1384 H1409 0.950 . S
C1385 C1384 1.349 . S
C1385 C1401 1.349 . S
C1386 C1384 1.327 . S
C1386 C1405 1.429 . S
C1386 H1410 0.950 . S
C1387 C1404 1.574 . S
C1387 C1406 1.368 . S
C1387 H1411 0.949 . S
H1388 C1392 0.949 . S
C1389 C1390 1.349 . S
C1389 C1391 1.327 . S
C1389 H1412 0.950 . S
C1390 C1389 1.349 . S
C1390 C1402 1.349 . S
C1391 C1389 1.327 . S
C1391 C1407 1.429 . S
C1391 H1413 0.950 . S
C1392 H1388 0.949 . S
C1392 C1400 1.574 . S
C1392 C1408 1.368 . S
H1393 C1401 0.950 . S
H1394 C1399 0.950 . S
H1395 C1400 0.949 . S
H1396 C1402 0.950 . S
H1397 C1403 0.950 . S
H1398 C1404 0.949 . S
C1399 H1394 0.950 . S
C1399 C1401 1.327 . S
C1399 C1405 1.429 . S
C1400 C1392 1.574 . S
C1400 H1395 0.949 . S
C1400 C1406 1.368 . S
C1401 C1385 1.349 . S
C1401 H1393 0.950 . S
C1401 C1399 1.327 . S
C1402 C1390 1.349 . S
C1402 H1396 0.950 . S
C1402 C1403 1.327 . S
C1403 H1397 0.950 . S
C1403 C1402 1.327 . S
C1403 C1407 1.429 . S
C1404 C1387 1.574 . S
C1404 H1398 0.949 . S
C1404 C1408 1.368 . S
C1405 C1386 1.429 . S
C1405 C1399 1.429 . S
C1405 C1406 1.523 . S
C1406 C1387 1.368 . S
C1406 C1400 1.368 . S
C1406 C1405 1.523 . S
C1407 C1391 1.429 . S
C1407 C1403 1.429 . S
C1407 C1408 1.523 . S
C1408 C1392 1.368 . S
C1408 C1404 1.368 . S
C1408 C1407 1.523 . S
H1409 C1384 0.950 . S
H1410 C1386 0.950 . S
H1411 C1387 0.949 . S
H1412 C1389 0.950 . S
H1413 C1391 0.950 . S
C1414 C1415 1.349 . S
C1414 C1416 1.327 . S
C1414 H1439 0.950 . S
C1415 C1414 1.349 . S
C1415 C1431 1.349 . S
C1416 C1414 1.327 . S
C1416 C1435 1.429 . S
C1416 H1440 0.950 . S
C1417 C1434 1.574 . S
C1417 C1436 1.368 . S
C1417 H1441 0.949 . S
H1418 C1422 0.949 . S
C1419 C1420 1.349 . S
C1419 C1421 1.327 . S
C1419 H1442 0.950 . S
C1420 C1419 1.349 . S
C1420 C1432 1.349 . S
C1421 C1419 1.327 . S
C1421 C1437 1.429 . S
C1421 H1443 0.950 . S
C1422 H1418 0.949 . S
C1422 C1430 1.574 . S
C1422 C1438 1.368 . S
H1423 C1431 0.950 . S
H1424 C1429 0.950 . S
H1425 C1430 0.949 . S
H1426 C1432 0.950 . S
H1427 C1433 0.950 . S
H1428 C1434 0.949 . S
C1429 H1424 0.950 . S
C1429 C1431 1.327 . S
C1429 C1435 1.429 . S
C1430 C1422 1.574 . S
C1430 H1425 0.949 . S
C1430 C1436 1.368 . S
C1431 C1415 1.349 . S
C1431 H1423 0.950 . S
C1431 C1429 1.327 . S
C1432 C1420 1.349 . S
C1432 H1426 0.950 . S
C1432 C1433 1.327 . S
C1433 H1427 0.950 . S
C1433 C1432 1.327 . S
C1433 C1437 1.429 . S
C1434 C1417 1.574 . S
C1434 H1428 0.949 . S
C1434 C1438 1.368 . S
C1435 C1416 1.429 . S
C1435 C1429 1.429 . S
C1435 C1436 1.523 . S
C1436 C1417 1.368 . S
C1436 C1430 1.368 . S
C1436 C1435 1.523 . S
C1437 C1421 1.429 . S
C1437 C1433 1.429 . S
C1437 C1438 1.523 . S
C1438 C1422 1.368 . S
C1438 C1434 1.368 . S
C1438 C1437 1.523 . S
H1439 C1414 0.950 . S
H1440 C1416 0.950 . S
H1441 C1417 0.949 . S
H1442 C1419 0.950 . S
H1443 C1421 0.950 . S
C1444 C1445 1.349 . S
C1444 C1446 1.327 . S
C1444 H1469 0.950 . S
C1445 C1444 1.349 . S
C1445 C1461 1.349 . S
C1446 C1444 1.327 . S
C1446 C1465 1.429 . S
C1446 H1470 0.950 . S
C1447 C1464 1.574 . S
C1447 C1466 1.368 . S
C1447 H1471 0.949 . S
H1448 C1452 0.949 . S
C1449 C1450 1.349 . S
C1449 C1451 1.327 . S
C1449 H1472 0.950 . S
C1450 C1449 1.349 . S
C1450 C1462 1.349 . S
C1451 C1449 1.327 . S
C1451 C1467 1.429 . S
C1451 H1473 0.950 . S
C1452 H1448 0.949 . S
C1452 C1460 1.574 . S
C1452 C1468 1.368 . S
H1453 C1461 0.950 . S
H1454 C1459 0.950 . S
H1455 C1460 0.949 . S
H1456 C1462 0.950 . S
H1457 C1463 0.950 . S
H1458 C1464 0.949 . S
C1459 H1454 0.950 . S
C1459 C1461 1.327 . S
C1459 C1465 1.429 . S
C1460 C1452 1.574 . S
C1460 H1455 0.949 . S
C1460 C1466 1.368 . S
C1461 C1445 1.349 . S
C1461 H1453 0.950 . S
C1461 C1459 1.327 . S
C1462 C1450 1.349 . S
C1462 H1456 0.950 . S
C1462 C1463 1.327 . S
C1463 H1457 0.950 . S
C1463 C1462 1.327 . S
C1463 C1467 1.429 . S
C1464 C1447 1.574 . S
C1464 H1458 0.949 . S
C1464 C1468 1.368 . S
C1465 C1446 1.429 . S
C1465 C1459 1.429 . S
C1465 C1466 1.523 . S
C1466 C1447 1.368 . S
C1466 C1460 1.368 . S
C1466 C1465 1.523 . S
C1467 C1451 1.429 . S
C1467 C1463 1.429 . S
C1467 C1468 1.523 . S
C1468 C1452 1.368 . S
C1468 C1464 1.368 . S
C1468 C1467 1.523 . S
H1469 C1444 0.950 . S
H1470 C1446 0.950 . S
H1471 C1447 0.949 . S
H1472 C1449 0.950 . S
H1473 C1451 0.950 . S
C1474 C1475 1.349 . S
C1474 C1476 1.327 . S
C1474 H1499 0.950 . S
C1475 C1474 1.349 . S
C1475 C1491 1.349 . S
C1476 C1474 1.327 . S
C1476 C1495 1.429 . S
C1476 H1500 0.950 . S
C1477 C1494 1.574 . S
C1477 C1496 1.368 . S
C1477 H1501 0.949 . S
H1478 C1482 0.949 . S
C1479 C1480 1.349 . S
C1479 C1481 1.327 . S
C1479 H1502 0.950 . S
C1480 C1479 1.349 . S
C1480 C1492 1.349 . S
C1481 C1479 1.327 . S
C1481 C1497 1.429 . S
C1481 H1503 0.950 . S
C1482 H1478 0.949 . S
C1482 C1490 1.574 . S
C1482 C1498 1.368 . S
H1483 C1491 0.950 . S
H1484 C1489 0.950 . S
H1485 C1490 0.949 . S
H1486 C1492 0.950 . S
H1487 C1493 0.950 . S
H1488 C1494 0.949 . S
C1489 H1484 0.950 . S
C1489 C1491 1.327 . S
C1489 C1495 1.429 . S
C1490 C1482 1.574 . S
C1490 H1485 0.949 . S
C1490 C1496 1.368 . S
C1491 C1475 1.349 . S
C1491 H1483 0.950 . S
C1491 C1489 1.327 . S
C1492 C1480 1.349 . S
C1492 H1486 0.950 . S
C1492 C1493 1.327 . S
C1493 H1487 0.950 . S
C1493 C1492 1.327 . S
C1493 C1497 1.429 . S
C1494 C1477 1.574 . S
C1494 H1488 0.949 . S
C1494 C1498 1.368 . S
C1495 C1476 1.429 . S
C1495 C1489 1.429 . S
C1495 C1496 1.523 . S
C1496 C1477 1.368 . S
C1496 C1490 1.368 . S
C1496 C1495 1.523 . S
C1497 C1481 1.429 . S
C1497 C1493 1.429 . S
C1497 C1498 1.523 . S
C1498 C1482 1.368 . S
C1498 C1494 1.368 . S
C1498 C1497 1.523 . S
H1499 C1474 0.950 . S
H1500 C1476 0.950 . S
H1501 C1477 0.949 . S
H1502 C1479 0.950 . S
H1503 C1481 0.950 . S
C1504 C1505 1.349 . S
C1504 C1506 1.327 . S
C1504 H1529 0.950 . S
C1505 C1504 1.349 . S
C1505 C1521 1.349 . S
C1506 C1504 1.327 . S
C1506 C1525 1.429 . S
C1506 H1530 0.950 . S
C1507 C1524 1.574 . S
C1507 C1526 1.368 . S
C1507 H1531 0.949 . S
H1508 C1512 0.949 . S
C1509 C1510 1.349 . S
C1509 C1511 1.327 . S
C1509 H1532 0.950 . S
C1510 C1509 1.349 . S
C1510 C1522 1.349 . S
C1511 C1509 1.327 . S
C1511 C1527 1.429 . S
C1511 H1533 0.950 . S
C1512 H1508 0.949 . S
C1512 C1520 1.574 . S
C1512 C1528 1.368 . S
H1513 C1521 0.950 . S
H1514 C1519 0.950 . S
H1515 C1520 0.949 . S
H1516 C1522 0.950 . S
H1517 C1523 0.950 . S
H1518 C1524 0.949 . S
C1519 H1514 0.950 . S
C1519 C1521 1.327 . S
C1519 C1525 1.429 . S
C1520 C1512 1.574 . S
C1520 H1515 0.949 . S
C1520 C1526 1.368 . S
C1521 C1505 1.349 . S
C1521 H1513 0.950 . S
C1521 C1519 1.327 . S
C1522 C1510 1.349 . S
C1522 H1516 0.950 . S
C1522 C1523 1.327 . S
C1523 H1517 0.950 . S
C1523 C1522 1.327 . S
C1523 C1527 1.429 . S
C1524 C1507 1.574 . S
C1524 H1518 0.949 . S
C1524 C1528 1.368 . S
C1525 C1506 1.429 . S
C1525 C1519 1.429 . S
C1525 C1526 1.523 . S
C1526 C1507 1.368 . S
C1526 C1520 1.368 . S
C1526 C1525 1.523 . S
C1527 C1511 1.429 . S
C1527 C1523 1.429 . S
C1527 C1528 1.523 . S
C1528 C1512 1.368 . S
C1528 C1524 1.368 . S
C1528 C1527 1.523 . S
H1529 C1504 0.950 . S
H1530 C1506 0.950 . S
H1531 C1507 0.949 . S
H1532 C1509 0.950 . S
H1533 C1511 0.950 . S
C1534 C1535 1.349 . S
C1534 C1536 1.327 . S
C1534 H1559 0.950 . S
C1535 C1534 1.349 . S
C1535 C1551 1.349 . S
C1536 C1534 1.327 . S
C1536 C1555 1.429 . S
C1536 H1560 0.950 . S
C1537 C1554 1.574 . S
C1537 C1556 1.368 . S
C1537 H1561 0.949 . S
H1538 C1542 0.949 . S
C1539 C1540 1.349 . S
C1539 C1541 1.327 . S
C1539 H1562 0.950 . S
C1540 C1539 1.349 . S
C1540 C1552 1.349 . S
C1541 C1539 1.327 . S
C1541 C1557 1.429 . S
C1541 H1563 0.950 . S
C1542 H1538 0.949 . S
C1542 C1550 1.574 . S
C1542 C1558 1.368 . S
H1543 C1551 0.950 . S
H1544 C1549 0.950 . S
H1545 C1550 0.949 . S
H1546 C1552 0.950 . S
H1547 C1553 0.950 . S
H1548 C1554 0.949 . S
C1549 H1544 0.950 . S
C1549 C1551 1.327 . S
C1549 C1555 1.429 . S
C1550 C1542 1.574 . S
C1550 H1545 0.949 . S
C1550 C1556 1.368 . S
C1551 C1535 1.349 . S
C1551 H1543 0.950 . S
C1551 C1549 1.327 . S
C1552 C1540 1.349 . S
C1552 H1546 0.950 . S
C1552 C1553 1.327 . S
C1553 H1547 0.950 . S
C1553 C1552 1.327 . S
C1553 C1557 1.429 . S
C1554 C1537 1.574 . S
C1554 H1548 0.949 . S
C1554 C1558 1.368 . S
C1555 C1536 1.429 . S
C1555 C1549 1.429 . S
C1555 C1556 1.523 . S
C1556 C1537 1.368 . S
C1556 C1550 1.368 . S
C1556 C1555 1.523 . S
C1557 C1541 1.429 . S
C1557 C1553 1.429 . S
C1557 C1558 1.523 . S
C1558 C1542 1.368 . S
C1558 C1554 1.368 . S
C1558 C1557 1.523 . S
H1559 C1534 0.950 . S
H1560 C1536 0.950 . S
H1561 C1537 0.949 . S
H1562 C1539 0.950 . S
H1563 C1541 0.950 . S
C1564 C1565 1.349 . S
C1564 C1566 1.327 . S
C1564 H1589 0.950 . S
C1565 C1564 1.349 . S
C1565 C1581 1.349 . S
C1566 C1564 1.327 . S
C1566 C1585 1.429 . S
C1566 H1590 0.950 . S
C1567 C1584 1.574 . S
C1567 C1586 1.368 . S
C1567 H1591 0.949 . S
H1568 C1572 0.949 . S
C1569 C1570 1.349 . S
C1569 C1571 1.327 . S
C1569 H1592 0.950 . S
C1570 C1569 1.349 . S
C1570 C1582 1.349 . S
C1571 C1569 1.327 . S
C1571 C1587 1.429 . S
C1571 H1593 0.950 . S
C1572 H1568 0.949 . S
C1572 C1580 1.574 . S
C1572 C1588 1.368 . S
H1573 C1581 0.950 . S
H1574 C1579 0.950 . S
H1575 C1580 0.949 . S
H1576 C1582 0.950 . S
H1577 C1583 0.950 . S
H1578 C1584 0.949 . S
C1579 H1574 0.950 . S
C1579 C1581 1.327 . S
C1579 C1585 1.429 . S
C1580 C1572 1.574 . S
C1580 H1575 0.949 . S
C1580 C1586 1.368 . S
C1581 C1565 1.349 . S
C1581 H1573 0.950 . S
C1581 C1579 1.327 . S
C1582 C1570 1.349 . S
C1582 H1576 0.950 . S
C1582 C1583 1.327 . S
C1583 H1577 0.950 . S
C1583 C1582 1.327 . S
C1583 C1587 1.429 . S
C1584 C1567 1.574 . S
C1584 H1578 0.949 . S
C1584 C1588 1.368 . S
C1585 C1566 1.429 . S
C1585 C1579 1.429 . S
C1585 C1586 1.523 . S
C1586 C1567 1.368 . S
C1586 C1580 1.368 . S
C1586 C1585 1.523 . S
C1587 C1571 1.429 . S
C1587 C1583 1.429 . S
C1587 C1588 1.523 . S
C1588 C1572 1.368 . S
C1588 C1584 1.368 . S
C1588 C1587 1.523 . S
H1589 C1564 0.950 . S
H1590 C1566 0.950 . S
H1591 C1567 0.949 . S
H1592 C1569 0.950 . S
H1593 C1571 0.950 . S
C1594 C1595 1.349 . S
C1594 C1596 1.327 . S
C1594 H1619 0.950 . S
C1595 C1594 1.349 . S
C1595 C1611 1.349 . S
C1596 C1594 1.327 . S
C1596 C1615 1.429 . S
C1596 H1620 0.950 . S
C1597 C1614 1.574 . S
C1597 C1616 1.368 . S
C1597 H1621 0.949 . S
H1598 C1602 0.949 . S
C1599 C1600 1.349 . S
C1599 C1601 1.327 . S
C1599 H1622 0.950 . S
C1600 C1599 1.349 . S
C1600 C1612 1.349 . S
C1601 C1599 1.327 . S
C1601 C1617 1.429 . S
C1601 H1623 0.950 . S
C1602 H1598 0.949 . S
C1602 C1610 1.574 . S
C1602 C1618 1.368 . S
H1603 C1611 0.950 . S
H1604 C1609 0.950 . S
H1605 C1610 0.949 . S
H1606 C1612 0.950 . S
H1607 C1613 0.950 . S
H1608 C1614 0.949 . S
C1609 H1604 0.950 . S
C1609 C1611 1.327 . S
C1609 C1615 1.429 . S
C1610 C1602 1.574 . S
C1610 H1605 0.949 . S
C1610 C1616 1.368 . S
C1611 C1595 1.349 . S
C1611 H1603 0.950 . S
C1611 C1609 1.327 . S
C1612 C1600 1.349 . S
C1612 H1606 0.950 . S
C1612 C1613 1.327 . S
C1613 H1607 0.950 . S
C1613 C1612 1.327 . S
C1613 C1617 1.429 . S
C1614 C1597 1.574 . S
C1614 H1608 0.949 . S
C1614 C1618 1.368 . S
C1615 C1596 1.429 . S
C1615 C1609 1.429 . S
C1615 C1616 1.523 . S
C1616 C1597 1.368 . S
C1616 C1610 1.368 . S
C1616 C1615 1.523 . S
C1617 C1601 1.429 . S
C1617 C1613 1.429 . S
C1617 C1618 1.523 . S
C1618 C1602 1.368 . S
C1618 C1614 1.368 . S
C1618 C1617 1.523 . S
H1619 C1594 0.950 . S
H1620 C1596 0.950 . S
H1621 C1597 0.949 . S
H1622 C1599 0.950 . S
H1623 C1601 0.950 . S
C1624 C1625 1.349 1_455 S
C1624 C1626 1.327 . S
C1624 H1649 0.950 1_455 S
C1625 C1624 1.349 1_655 S
C1625 C1641 1.349 1_655 S
C1626 C1624 1.327 . S
C1626 C1645 1.429 . S
C1626 H1650 0.950 . S
C1627 C1644 1.574 . S
C1627 C1646 1.368 . S
C1627 H1651 0.949 . S
H1628 C1632 0.949 . S
C1629 C1630 1.349 . S
C1629 C1631 1.327 . S
C1629 H1652 0.950 . S
C1630 C1629 1.349 . S
C1630 C1642 1.349 . S
C1631 C1629 1.327 . S
C1631 C1647 1.429 . S
C1631 H1653 0.950 . S
C1632 H1628 0.949 . S
C1632 C1640 1.574 . S
C1632 C1648 1.368 . S
H1633 C1641 0.950 1_655 S
H1634 C1639 0.950 . S
H1635 C1640 0.949 . S
H1636 C1642 0.950 . S
H1637 C1643 0.950 . S
H1638 C1644 0.949 . S
C1639 H1634 0.950 . S
C1639 C1641 1.327 . S
C1639 C1645 1.429 . S
C1640 C1632 1.574 . S
C1640 H1635 0.949 . S
C1640 C1646 1.368 . S
C1641 C1625 1.349 1_455 S
C1641 H1633 0.950 1_455 S
C1641 C1639 1.327 . S
C1642 C1630 1.349 . S
C1642 H1636 0.950 . S
C1642 C1643 1.327 . S
C1643 H1637 0.950 . S
C1643 C1642 1.327 . S
C1643 C1647 1.429 . S
C1644 C1627 1.574 . S
C1644 H1638 0.949 . S
C1644 C1648 1.368 . S
C1645 C1626 1.429 . S
C1645 C1639 1.429 . S
C1645 C1646 1.523 . S
C1646 C1627 1.368 . S
C1646 C1640 1.368 . S
C1646 C1645 1.523 . S
C1647 C1631 1.429 . S
C1647 C1643 1.429 . S
C1647 C1648 1.523 . S
C1648 C1632 1.368 . S
C1648 C1644 1.368 . S
C1648 C1647 1.523 . S
H1649 C1624 0.950 1_655 S
H1650 C1626 0.950 . S
H1651 C1627 0.949 . S
H1652 C1629 0.950 . S
H1653 C1631 0.950 . S
C1654 C1655 1.349 . S
C1654 C1656 1.327 . S
C1654 H1679 0.950 . S
C1655 C1654 1.349 . S
C1655 C1671 1.349 . S
C1656 C1654 1.327 . S
C1656 C1675 1.429 . S
C1656 H1680 0.950 . S
C1657 C1674 1.574 . S
C1657 C1676 1.368 . S
C1657 H1681 0.949 . S
H1658 C1662 0.949 . S
C1659 C1660 1.349 1_545 S
C1659 C1661 1.327 . S
C1659 H1682 0.950 1_545 S
C1660 C1659 1.349 1_565 S
C1660 C1672 1.349 1_565 S
C1661 C1659 1.327 . S
C1661 C1677 1.429 . S
C1661 H1683 0.950 . S
C1662 H1658 0.949 . S
C1662 C1670 1.574 . S
C1662 C1678 1.368 . S
H1663 C1671 0.950 . S
H1664 C1669 0.950 . S
H1665 C1670 0.949 . S
H1666 C1672 0.950 1_565 S
H1667 C1673 0.950 . S
H1668 C1674 0.949 . S
C1669 H1664 0.950 . S
C1669 C1671 1.327 . S
C1669 C1675 1.429 . S
C1670 C1662 1.574 . S
C1670 H1665 0.949 . S
C1670 C1676 1.368 . S
C1671 C1655 1.349 . S
C1671 H1663 0.950 . S
C1671 C1669 1.327 . S
C1672 C1660 1.349 1_545 S
C1672 H1666 0.950 1_545 S
C1672 C1673 1.327 . S
C1673 H1667 0.950 . S
C1673 C1672 1.327 . S
C1673 C1677 1.429 . S
C1674 C1657 1.574 . S
C1674 H1668 0.949 . S
C1674 C1678 1.368 . S
C1675 C1656 1.429 . S
C1675 C1669 1.429 . S
C1675 C1676 1.523 . S
C1676 C1657 1.368 . S
C1676 C1670 1.368 . S
C1676 C1675 1.523 . S
C1677 C1661 1.429 . S
C1677 C1673 1.429 . S
C1677 C1678 1.523 . S
C1678 C1662 1.368 . S
C1678 C1674 1.368 . S
C1678 C1677 1.523 . S
H1679 C1654 0.950 . S
H1680 C1656 0.950 . S
H1681 C1657 0.949 . S
H1682 C1659 0.950 1_565 S
H1683 C1661 0.950 . S
C1684 C1685 1.349 . S
C1684 C1686 1.327 . S
C1684 H1709 0.950 . S
C1685 C1684 1.349 . S
C1685 C1701 1.349 . S
C1686 C1684 1.327 . S
C1686 C1705 1.429 . S
C1686 H1710 0.950 . S
C1687 C1704 1.574 . S
C1687 C1706 1.368 . S
C1687 H1711 0.949 . S
H1688 C1692 0.949 . S
C1689 C1690 1.349 1_655 S
C1689 C1691 1.327 . S
C1689 H1712 0.950 1_655 S
C1690 C1689 1.349 1_455 S
C1690 C1702 1.349 1_455 S
C1691 C1689 1.327 . S
C1691 C1707 1.429 . S
C1691 H1713 0.950 . S
C1692 H1688 0.949 . S
C1692 C1700 1.574 . S
C1692 C1708 1.368 . S
H1693 C1701 0.950 . S
H1694 C1699 0.950 . S
H1695 C1700 0.949 . S
H1696 C1702 0.950 1_455 S
H1697 C1703 0.950 . S
H1698 C1704 0.949 . S
C1699 H1694 0.950 . S
C1699 C1701 1.327 . S
C1699 C1705 1.429 . S
C1700 C1692 1.574 . S
C1700 H1695 0.949 . S
C1700 C1706 1.368 . S
C1701 C1685 1.349 . S
C1701 H1693 0.950 . S
C1701 C1699 1.327 . S
C1702 C1690 1.349 1_655 S
C1702 H1696 0.950 1_655 S
C1702 C1703 1.327 . S
C1703 H1697 0.950 . S
C1703 C1702 1.327 . S
C1703 C1707 1.429 . S
C1704 C1687 1.574 . S
C1704 H1698 0.949 . S
C1704 C1708 1.368 . S
C1705 C1686 1.429 . S
C1705 C1699 1.429 . S
C1705 C1706 1.523 . S
C1706 C1687 1.368 . S
C1706 C1700 1.368 . S
C1706 C1705 1.523 . S
C1707 C1691 1.429 . S
C1707 C1703 1.429 . S
C1707 C1708 1.523 . S
C1708 C1692 1.368 . S
C1708 C1704 1.368 . S
C1708 C1707 1.523 . S
H1709 C1684 0.950 . S
H1710 C1686 0.950 . S
H1711 C1687 0.949 . S
H1712 C1689 0.950 1_455 S
H1713 C1691 0.950 . S
C1714 C1715 1.349 1_565 S
C1714 C1716 1.327 . S
C1714 H1739 0.950 1_565 S
C1715 C1714 1.349 1_545 S
C1715 C1731 1.349 1_545 S
C1716 C1714 1.327 . S
C1716 C1735 1.429 . S
C1716 H1740 0.950 . S
C1717 C1734 1.574 . S
C1717 C1736 1.368 . S
C1717 H1741 0.949 . S
H1718 C1722 0.949 . S
C1719 C1720 1.349 . S
C1719 C1721 1.327 . S
C1719 H1742 0.950 . S
C1720 C1719 1.349 . S
C1720 C1732 1.349 . S
C1721 C1719 1.327 . S
C1721 C1737 1.429 . S
C1721 H1743 0.950 . S
C1722 H1718 0.949 . S
C1722 C1730 1.574 . S
C1722 C1738 1.368 . S
H1723 C1731 0.950 1_545 S
H1724 C1729 0.950 . S
H1725 C1730 0.949 . S
H1726 C1732 0.950 . S
H1727 C1733 0.950 . S
H1728 C1734 0.949 . S
C1729 H1724 0.950 . S
C1729 C1731 1.327 . S
C1729 C1735 1.429 . S
C1730 C1722 1.574 . S
C1730 H1725 0.949 . S
C1730 C1736 1.368 . S
C1731 C1715 1.349 1_565 S
C1731 H1723 0.950 1_565 S
C1731 C1729 1.327 . S
C1732 C1720 1.349 . S
C1732 H1726 0.950 . S
C1732 C1733 1.327 . S
C1733 H1727 0.950 . S
C1733 C1732 1.327 . S
C1733 C1737 1.429 . S
C1734 C1717 1.574 . S
C1734 H1728 0.949 . S
C1734 C1738 1.368 . S
C1735 C1716 1.429 . S
C1735 C1729 1.429 . S
C1735 C1736 1.523 . S
C1736 C1717 1.368 . S
C1736 C1730 1.368 . S
C1736 C1735 1.523 . S
C1737 C1721 1.429 . S
C1737 C1733 1.429 . S
C1737 C1738 1.523 . S
C1738 C1722 1.368 . S
C1738 C1734 1.368 . S
C1738 C1737 1.523 . S
H1739 C1714 0.950 1_545 S
H1740 C1716 0.950 . S
H1741 C1717 0.949 . S
H1742 C1719 0.950 . S
H1743 C1721 0.950 . S
C545 C33 1.736 . S
C550 C101 1.736 . S
C575 C135 1.736 . S
C580 C67 1.736 . S
C605 C237 1.736 . S
C610 C169 1.736 . S
C635 C203 1.736 . S
C640 C271 1.736 . S
C665 C373 1.708 . S
C670 C305 1.708 . S
C695 C339 1.708 . S
C700 C407 1.708 . S
C725 C509 1.708 . S
C730 C441 1.708 . S
C755 C475 1.708 . S
C760 C543 1.708 . S
C785 C5 1.524 . S
C790 C342 1.536 . S
C815 C376 1.536 . S
C820 C39 1.525 . S
C845 C274 1.536 . S
C850 C73 1.524 . S
C875 C308 1.536 . S
C880 C107 1.524 . S
C905 C478 1.536 . S
C910 C141 1.524 . S
C935 C512 1.536 . S
C940 C175 1.524 . S
C965 C410 1.536 . S
C970 C209 1.525 . S
C995 C444 1.536 . S
C1000 C243 1.524 . S
C1025 C9 1.335 . S
C1030 C247 1.335 . S
C1055 C43 1.335 . S
C1060 C145 1.335 . S
C1085 C179 1.335 . S
C1090 C77 1.335 . S
C1115 C213 1.335 . S
C1120 C111 1.335 . S
C1145 C292 2.092 . S
C1150 C530 2.092 . S
C1175 C326 2.092 . S
C1180 C428 2.092 . S
C1205 C360 2.092 . S
C1210 C462 2.092 . S
C1235 C394 2.092 . S
C1240 C496 2.092 . S
C1265 C481 0.827 . S
C1270 C20 0.827 . S
C1295 C54 0.827 . S
C1300 C515 0.827 . S
C1325 C413 0.827 . S
C1330 C88 0.827 . S
C1355 C447 0.827 . S
C1360 C122 0.827 . S
C1385 C345 0.827 . S
C1390 C156 0.827 . S
C1415 C190 0.827 . S
C1420 C379 0.827 . S
C1445 C277 0.827 . S
C1450 C224 0.827 . S
C1475 C258 0.827 . S
C1480 C311 0.827 . S
C1505 C206 0.797 . S
C1510 C281 0.794 . S
C1535 C240 0.797 . S
C1540 C315 0.794 . S
C1565 C138 0.797 . S
C1570 C349 0.794 . S
C1595 C383 0.794 . S
C1600 C172 0.797 . S
C1625 C70 0.797 . S
C1630 C417 0.794 . S
C1655 C451 0.794 . S
C1660 C104 0.797 . S
C1685 C485 0.794 . S
C1690 C2 0.797 . S
C1715 C36 0.797 . S
C1720 C519 0.794 . S
