# Generated by pormake.
# Topology yfq, (5)-cn, num edge types: 1
# Building blocks:
#     Node 0, Type 0, BuildingBlock: XOMCOT_clean_sbu_1, # of connection points: 5
#     Node 1, Type 0, BuildingBlock: XOMCOT_clean_sbu_1, # of connection points: 5
#     Node 2, Type 0, BuildingBlock: XOMCOT_clean_sbu_1, # of connection points: 5
#     Node 3, Type 0, BuildingBlock: XOMCOT_clean_sbu_1, # of connection points: 5
#     Node 4, Type 0, BuildingBlock: XOMCOT_clean_sbu_1, # of connection points: 5
#     Node 5, Type 0, BuildingBlock: XOMCOT_clean_sbu_1, # of connection points: 5
#     Node 6, Type 0, BuildingBlock: XOMCOT_clean_sbu_1, # of connection points: 5
#     Node 7, Type 0, BuildingBlock: XOMCOT_clean_sbu_1, # of connection points: 5
#     Node 8, Type 0, BuildingBlock: XOMCOT_clean_sbu_1, # of connection points: 5
#     Node 9, Type 0, BuildingBlock: XOMCOT_clean_sbu_1, # of connection points: 5
#     Node 10, Type 0, BuildingBlock: XOMCOT_clean_sbu_1, # of connection points: 5
#     Node 11, Type 0, BuildingBlock: XOMCOT_clean_sbu_1, # of connection points: 5
#     Node 12, Type 0, BuildingBlock: XOMCOT_clean_sbu_1, # of connection points: 5
#     Node 13, Type 0, BuildingBlock: XOMCOT_clean_sbu_1, # of connection points: 5
#     Node 14, Type 0, BuildingBlock: XOMCOT_clean_sbu_1, # of connection points: 5
#     Node 15, Type 0, BuildingBlock: XOMCOT_clean_sbu_1, # of connection points: 5
#     Node 16, Type 0, BuildingBlock: XOMCOT_clean_sbu_1, # of connection points: 5
#     Node 17, Type 0, BuildingBlock: XOMCOT_clean_sbu_1, # of connection points: 5
#     Node 18, Type 0, BuildingBlock: XOMCOT_clean_sbu_1, # of connection points: 5
#     Node 19, Type 0, BuildingBlock: XOMCOT_clean_sbu_1, # of connection points: 5
#     Node 20, Type 0, BuildingBlock: XOMCOT_clean_sbu_1, # of connection points: 5
#     Node 21, Type 0, BuildingBlock: XOMCOT_clean_sbu_1, # of connection points: 5
#     Node 22, Type 0, BuildingBlock: XOMCOT_clean_sbu_1, # of connection points: 5
#     Node 23, Type 0, BuildingBlock: XOMCOT_clean_sbu_1, # of connection points: 5
#     Node 24, Type 0, BuildingBlock: XOMCOT_clean_sbu_1, # of connection points: 5
#     Node 25, Type 0, BuildingBlock: XOMCOT_clean_sbu_1, # of connection points: 5
#     Node 26, Type 0, BuildingBlock: XOMCOT_clean_sbu_1, # of connection points: 5
#     Node 27, Type 0, BuildingBlock: XOMCOT_clean_sbu_1, # of connection points: 5
#     Node 28, Type 0, BuildingBlock: XOMCOT_clean_sbu_1, # of connection points: 5
#     Node 29, Type 0, BuildingBlock: XOMCOT_clean_sbu_1, # of connection points: 5
#     Node 30, Type 0, BuildingBlock: XOMCOT_clean_sbu_1, # of connection points: 5
#     Node 31, Type 0, BuildingBlock: XOMCOT_clean_sbu_1, # of connection points: 5
#     Edge 32, Type (0, 0), BuildingBlock: EZIPEK_clean_linker_0, # of connection points: 2
#     Edge 33, Type (0, 0), BuildingBlock: EZIPEK_clean_linker_0, # of connection points: 2
#     Edge 34, Type (0, 0), BuildingBlock: EZIPEK_clean_linker_0, # of connection points: 2
#     Edge 35, Type (0, 0), BuildingBlock: EZIPEK_clean_linker_0, # of connection points: 2
#     Edge 36, Type (0, 0), BuildingBlock: EZIPEK_clean_linker_0, # of connection points: 2
#     Edge 37, Type (0, 0), BuildingBlock: EZIPEK_clean_linker_0, # of connection points: 2
#     Edge 38, Type (0, 0), BuildingBlock: EZIPEK_clean_linker_0, # of connection points: 2
#     Edge 39, Type (0, 0), BuildingBlock: EZIPEK_clean_linker_0, # of connection points: 2
#     Edge 40, Type (0, 0), BuildingBlock: EZIPEK_clean_linker_0, # of connection points: 2
#     Edge 41, Type (0, 0), BuildingBlock: EZIPEK_clean_linker_0, # of connection points: 2
#     Edge 42, Type (0, 0), BuildingBlock: EZIPEK_clean_linker_0, # of connection points: 2
#     Edge 43, Type (0, 0), BuildingBlock: EZIPEK_clean_linker_0, # of connection points: 2
#     Edge 44, Type (0, 0), BuildingBlock: EZIPEK_clean_linker_0, # of connection points: 2
#     Edge 45, Type (0, 0), BuildingBlock: EZIPEK_clean_linker_0, # of connection points: 2
#     Edge 46, Type (0, 0), BuildingBlock: EZIPEK_clean_linker_0, # of connection points: 2
#     Edge 47, Type (0, 0), BuildingBlock: EZIPEK_clean_linker_0, # of connection points: 2
#     Edge 48, Type (0, 0), BuildingBlock: EZIPEK_clean_linker_0, # of connection points: 2
#     Edge 49, Type (0, 0), BuildingBlock: EZIPEK_clean_linker_0, # of connection points: 2
#     Edge 50, Type (0, 0), BuildingBlock: EZIPEK_clean_linker_0, # of connection points: 2
#     Edge 51, Type (0, 0), BuildingBlock: EZIPEK_clean_linker_0, # of connection points: 2
#     Edge 52, Type (0, 0), BuildingBlock: EZIPEK_clean_linker_0, # of connection points: 2
#     Edge 53, Type (0, 0), BuildingBlock: EZIPEK_clean_linker_0, # of connection points: 2
#     Edge 54, Type (0, 0), BuildingBlock: EZIPEK_clean_linker_0, # of connection points: 2
#     Edge 55, Type (0, 0), BuildingBlock: EZIPEK_clean_linker_0, # of connection points: 2
#     Edge 56, Type (0, 0), BuildingBlock: EZIPEK_clean_linker_0, # of connection points: 2
#     Edge 57, Type (0, 0), BuildingBlock: EZIPEK_clean_linker_0, # of connection points: 2
#     Edge 58, Type (0, 0), BuildingBlock: EZIPEK_clean_linker_0, # of connection points: 2
#     Edge 59, Type (0, 0), BuildingBlock: EZIPEK_clean_linker_0, # of connection points: 2
#     Edge 60, Type (0, 0), BuildingBlock: EZIPEK_clean_linker_0, # of connection points: 2
#     Edge 61, Type (0, 0), BuildingBlock: EZIPEK_clean_linker_0, # of connection points: 2
#     Edge 62, Type (0, 0), BuildingBlock: EZIPEK_clean_linker_0, # of connection points: 2
#     Edge 63, Type (0, 0), BuildingBlock: EZIPEK_clean_linker_0, # of connection points: 2
#     Edge 64, Type (0, 0), BuildingBlock: EZIPEK_clean_linker_0, # of connection points: 2
#     Edge 65, Type (0, 0), BuildingBlock: EZIPEK_clean_linker_0, # of connection points: 2
#     Edge 66, Type (0, 0), BuildingBlock: EZIPEK_clean_linker_0, # of connection points: 2
#     Edge 67, Type (0, 0), BuildingBlock: EZIPEK_clean_linker_0, # of connection points: 2
#     Edge 68, Type (0, 0), BuildingBlock: EZIPEK_clean_linker_0, # of connection points: 2
#     Edge 69, Type (0, 0), BuildingBlock: EZIPEK_clean_linker_0, # of connection points: 2
#     Edge 70, Type (0, 0), BuildingBlock: EZIPEK_clean_linker_0, # of connection points: 2
#     Edge 71, Type (0, 0), BuildingBlock: EZIPEK_clean_linker_0, # of connection points: 2
#     Edge 72, Type (0, 0), BuildingBlock: EZIPEK_clean_linker_0, # of connection points: 2
#     Edge 73, Type (0, 0), BuildingBlock: EZIPEK_clean_linker_0, # of connection points: 2
#     Edge 74, Type (0, 0), BuildingBlock: EZIPEK_clean_linker_0, # of connection points: 2
#     Edge 75, Type (0, 0), BuildingBlock: EZIPEK_clean_linker_0, # of connection points: 2
#     Edge 76, Type (0, 0), BuildingBlock: EZIPEK_clean_linker_0, # of connection points: 2
#     Edge 77, Type (0, 0), BuildingBlock: EZIPEK_clean_linker_0, # of connection points: 2
#     Edge 78, Type (0, 0), BuildingBlock: EZIPEK_clean_linker_0, # of connection points: 2
#     Edge 79, Type (0, 0), BuildingBlock: EZIPEK_clean_linker_0, # of connection points: 2
#     Edge 80, Type (0, 0), BuildingBlock: EZIPEK_clean_linker_0, # of connection points: 2
#     Edge 81, Type (0, 0), BuildingBlock: EZIPEK_clean_linker_0, # of connection points: 2
#     Edge 82, Type (0, 0), BuildingBlock: EZIPEK_clean_linker_0, # of connection points: 2
#     Edge 83, Type (0, 0), BuildingBlock: EZIPEK_clean_linker_0, # of connection points: 2
#     Edge 84, Type (0, 0), BuildingBlock: EZIPEK_clean_linker_0, # of connection points: 2
#     Edge 85, Type (0, 0), BuildingBlock: EZIPEK_clean_linker_0, # of connection points: 2
#     Edge 86, Type (0, 0), BuildingBlock: EZIPEK_clean_linker_0, # of connection points: 2
#     Edge 87, Type (0, 0), BuildingBlock: EZIPEK_clean_linker_0, # of connection points: 2
#     Edge 88, Type (0, 0), BuildingBlock: EZIPEK_clean_linker_0, # of connection points: 2
#     Edge 89, Type (0, 0), BuildingBlock: EZIPEK_clean_linker_0, # of connection points: 2
#     Edge 90, Type (0, 0), BuildingBlock: EZIPEK_clean_linker_0, # of connection points: 2
#     Edge 91, Type (0, 0), BuildingBlock: EZIPEK_clean_linker_0, # of connection points: 2
#     Edge 92, Type (0, 0), BuildingBlock: EZIPEK_clean_linker_0, # of connection points: 2
#     Edge 93, Type (0, 0), BuildingBlock: EZIPEK_clean_linker_0, # of connection points: 2
#     Edge 94, Type (0, 0), BuildingBlock: EZIPEK_clean_linker_0, # of connection points: 2
#     Edge 95, Type (0, 0), BuildingBlock: EZIPEK_clean_linker_0, # of connection points: 2
#     Edge 96, Type (0, 0), BuildingBlock: EZIPEK_clean_linker_0, # of connection points: 2
#     Edge 97, Type (0, 0), BuildingBlock: EZIPEK_clean_linker_0, # of connection points: 2
#     Edge 98, Type (0, 0), BuildingBlock: EZIPEK_clean_linker_0, # of connection points: 2
#     Edge 99, Type (0, 0), BuildingBlock: EZIPEK_clean_linker_0, # of connection points: 2
#     Edge 100, Type (0, 0), BuildingBlock: EZIPEK_clean_linker_0, # of connection points: 2
#     Edge 101, Type (0, 0), BuildingBlock: EZIPEK_clean_linker_0, # of connection points: 2
#     Edge 102, Type (0, 0), BuildingBlock: EZIPEK_clean_linker_0, # of connection points: 2
#     Edge 103, Type (0, 0), BuildingBlock: EZIPEK_clean_linker_0, # of connection points: 2
#     Edge 104, Type (0, 0), BuildingBlock: EZIPEK_clean_linker_0, # of connection points: 2
#     Edge 105, Type (0, 0), BuildingBlock: EZIPEK_clean_linker_0, # of connection points: 2
#     Edge 106, Type (0, 0), BuildingBlock: EZIPEK_clean_linker_0, # of connection points: 2
#     Edge 107, Type (0, 0), BuildingBlock: EZIPEK_clean_linker_0, # of connection points: 2
#     Edge 108, Type (0, 0), BuildingBlock: EZIPEK_clean_linker_0, # of connection points: 2
#     Edge 109, Type (0, 0), BuildingBlock: EZIPEK_clean_linker_0, # of connection points: 2
#     Edge 110, Type (0, 0), BuildingBlock: EZIPEK_clean_linker_0, # of connection points: 2
#     Edge 111, Type (0, 0), BuildingBlock: EZIPEK_clean_linker_0, # of connection points: 2
# Relax obj value: 0.555
# Max RMSD: 0.297
# Mean RMSD: 0.297
data_MOF--net-yfq--node1-XOMCOT_clean_sbu_1--edge1-EZIPEK_clean_linker_0
_symmetry_space_group_name_H-M    P1
_symmetry_Int_Tables_number       1
_symmetry_cell_setting            triclinic
loop_
_symmetry_equiv_pos_as_xyz
'x, y, z'
_cell_length_a     39.24162
_cell_length_b     39.18239
_cell_length_c     46.546437
_cell_angle_alpha  89.938208
_cell_angle_beta   89.913681
_cell_angle_gamma 89.829948
loop_
_atom_site_label
_atom_site_type_symbol
_atom_site_fract_x
_atom_site_fract_y
_atom_site_fract_z
_atom_type_partial_charge
C0 C 0.18457 0.19865 0.28963 0.0
C1 C 0.20001 0.21161 0.31374 0.0
N2 N 0.18256 0.23955 0.32194 0.0
N3 N 0.1578 0.21857 0.28238 0.0
C4 C 0.15771 0.24386 0.30217 0.0
H5 H 0.19185 0.17558 0.27844 0.0
Co6 Co 0.13006 0.20915 0.25044 0.0
C7 C 0.06525 0.24577 0.27068 0.0
O8 O 0.05052 0.21677 0.27718 0.0
N9 N 0.10437 0.19943 0.21643 0.0
C10 C 0.06416 0.19671 0.18268 0.0
C11 C 0.07083 0.20399 0.21085 0.0
C12 C 0.11711 0.18783 0.19103 0.0
N13 N 0.0932 0.18644 0.17005 0.0
O14 O 0.15678 0.24165 0.22992 0.0
H15 H 0.05166 0.21207 0.22572 0.0
H16 H 0.14349 0.1808 0.18781 0.0
O17 O 0.09608 0.24615 0.26093 0.0
C18 C 0.18608 0.23012 0.223 0.0
O19 O 0.19004 0.19683 0.22415 0.0
N20 N 0.10615 0.17555 0.27209 0.0
C21 C 0.07005 0.12886 0.30514 0.0
C22 C 0.08327 0.15819 0.31758 0.0
C23 C 0.10107 0.18109 0.30084 0.0
C24 C 0.09624 0.14522 0.2602 0.0
C25 C 0.07737 0.12157 0.27633 0.0
H26 H 0.10754 0.20488 0.31082 0.0
H27 H 0.10204 0.13951 0.23802 0.0
H28 H 0.13871 0.26391 0.30307 0.0
H29 H 0.22118 0.20041 0.32532 0.0
H30 H 0.0396 0.19855 0.1722 0.0
H31 H 0.0778 0.16456 0.33979 0.0
H32 H 0.06767 0.09867 0.26629 0.0
C33 C 0.98869 0.89123 0.51395 0.0
C34 C 0.96209 0.89445 0.53284 0.0
N35 N 0.97251 0.88198 0.55813 0.0
N36 N 0.01628 0.87794 0.52745 0.0
C37 C 1.00479 0.87112 0.55427 0.0
H38 H 0.98737 0.89718 0.49141 0.0
Co39 Co 0.05806 0.86956 0.50827 0.0
C40 C 0.03948 0.80831 0.49707 0.0
O41 O 0.06024 0.80809 0.51917 0.0
N42 N 0.09754 0.85903 0.48674 0.0
C43 C 0.14161 0.8292 0.46946 0.0
C44 C 0.12246 0.8364 0.49351 0.0
C45 C 0.10118 0.86382 0.45814 0.0
N46 N 0.12778 0.84623 0.44729 0.0
O47 O 0.04775 0.90925 0.48382 0.0
H48 H 0.12545 0.82452 0.51435 0.0
H49 H 0.08299 0.87749 0.44497 0.0
O50 O 0.03357 0.83708 0.48492 0.0
C51 C 0.06463 0.93676 0.47969 0.0
O52 O 0.09669 0.93738 0.48765 0.0
N53 N 0.08364 0.89894 0.53489 0.0
C54 C 0.10531 0.88541 0.58976 0.0
C55 C 0.07563 0.90479 0.58552 0.0
C56 C 0.06651 0.91359 0.55731 0.0
C57 C 0.11731 0.89158 0.53946 0.0
C58 C 0.12841 0.8828 0.56699 0.0
H59 H 0.04269 0.92668 0.55363 0.0
H60 H 0.13491 0.88885 0.52187 0.0
H61 H 0.01973 0.85926 0.57094 0.0
H62 H 0.93694 0.90456 0.52836 0.0
H63 H 0.16224 0.8109 0.46785 0.0
H64 H 0.05797 0.90942 0.603 0.0
H65 H 0.15292 0.87044 0.56976 0.0
C66 C 0.32912 0.83977 0.81515 0.0
C67 C 0.3256 0.81555 0.83624 0.0
N68 N 0.34592 0.78905 0.82948 0.0
N69 N 0.35122 0.82839 0.79514 0.0
C70 C 0.36098 0.79719 0.80433 0.0
H71 H 0.3171 0.86464 0.81471 0.0
Co72 Co 0.36162 0.85449 0.7633 0.0
C73 C 0.43063 0.83581 0.74288 0.0
O74 O 0.43443 0.86849 0.73761 0.0
N75 N 0.36948 0.88153 0.72987 0.0
C76 C 0.37686 0.92286 0.69734 0.0
C77 C 0.37138 0.91573 0.72595 0.0
C78 C 0.3729 0.86866 0.70292 0.0
N79 N 0.37785 0.8932 0.68298 0.0
O80 O 0.33005 0.8268 0.74251 0.0
H81 H 0.36866 0.93486 0.7423 0.0
H82 H 0.37215 0.84168 0.69801 0.0
O83 O 0.40156 0.82468 0.75203 0.0
C84 C 0.29902 0.83667 0.74286 0.0
O85 O 0.29229 0.8689 0.74821 0.0
N86 N 0.39095 0.88077 0.78732 0.0
C87 C 0.42825 0.91126 0.83149 0.0
C88 C 0.43329 0.87714 0.82449 0.0
C89 C 0.41456 0.8625 0.80269 0.0
C90 C 0.38342 0.91339 0.79573 0.0
C91 C 0.4029 0.92979 0.81699 0.0
H92 H 0.41843 0.8356 0.79933 0.0
H93 H 0.3612 0.92621 0.78735 0.0
H94 H 0.37973 0.78142 0.79355 0.0
H95 H 0.31089 0.81792 0.85583 0.0
H96 H 0.37961 0.94788 0.68773 0.0
H97 H 0.45181 0.86167 0.83591 0.0
H98 H 0.39745 0.95601 0.82275 0.0
C99 C 0.50193 0.13929 0.02269 0.0
C100 C 0.52515 0.14522 0.04397 0.0
N101 N 0.50824 0.15832 0.0664 0.0
N102 N 0.47021 0.14797 0.03173 0.0
C103 C 0.47539 0.16106 0.05828 0.0
H104 H 0.50785 0.12825 0.00199 0.0
Co105 Co 0.43239 0.13882 0.00771 0.0
C106 C 0.44232 0.19545 0.9779 0.0
O107 O 0.41143 0.19855 0.98841 0.0
N108 N 0.39709 0.13035 0.98037 0.0
C109 C 0.35525 0.14299 0.94945 0.0
C110 C 0.36613 0.14547 0.9774 0.0
C111 C 0.40466 0.11993 0.9533 0.0
N112 N 0.3799 0.12761 0.93421 0.0
O113 O 0.45453 0.0945 -0.00133 0.0
H114 H 0.3547 0.16264 0.99284 0.0
H115 H 0.42981 0.11138 0.94693 0.0
O116 O 0.45641 0.16586 0.9788 0.0
C117 C 0.44234 0.06419 0.00021 0.0
O118 O 0.40917 0.05985 0.00121 0.0
N119 N 0.4074 0.11687 0.03926 0.0
C120 C 0.38797 0.13805 0.09346 0.0
C121 C 0.41747 0.11813 0.09008 0.0
C122 C 0.42585 0.10604 0.06249 0.0
C123 C 0.37425 0.12608 0.0442 0.0
C124 C 0.36408 0.13772 0.07126 0.0
H125 H 0.45054 0.0944 0.05926 0.0
H126 H 0.35592 0.12715 0.02738 0.0
H127 H 0.45558 0.17068 0.0721 0.0
H128 H 0.55205 0.13901 0.0436 0.0
H129 H 0.33348 0.15605 0.94025 0.0
H130 H 0.43586 0.11591 0.10732 0.0
H131 H 0.3396 0.15024 0.07372 0.0
C132 C 0.19408 0.7869 0.19979 0.0
C133 C 0.19961 0.76489 0.1775 0.0
N134 N 0.17252 0.74409 0.17571 0.0
N135 N 0.16433 0.77936 0.21273 0.0
C136 C 0.1514 0.7532 0.19739 0.0
H137 H 0.21036 0.8077 0.20605 0.0
Co138 Co 0.15311 0.80344 0.24533 0.0
C139 C 0.08365 0.78258 0.26456 0.0
O140 O 0.07831 0.81537 0.26819 0.0
N141 N 0.14423 0.82895 0.27916 0.0
C142 C 0.12964 0.86882 0.31111 0.0
C143 C 0.13256 0.86131 0.2824 0.0
C144 C 0.14882 0.81776 0.30645 0.0
N145 N 0.13993 0.84143 0.32614 0.0
O146 O 0.18443 0.77394 0.26527 0.0
H147 H 0.12548 0.8785 0.26536 0.0
H148 H 0.15792 0.79251 0.31197 0.0
O149 O 0.11301 0.77315 0.25469 0.0
C150 C 0.21496 0.7848 0.268 0.0
O151 O 0.21974 0.81762 0.27178 0.0
N152 N 0.12596 0.83199 0.22234 0.0
C153 C 0.1022 0.86636 0.17414 0.0
C154 C 0.08631 0.83659 0.1834 0.0
C155 C 0.09902 0.81935 0.20708 0.0
C156 C 0.14126 0.86161 0.21385 0.0
C157 C 0.12924 0.87979 0.19004 0.0
H158 H 0.08929 0.79408 0.21074 0.0
H159 H 0.16434 0.86988 0.22442 0.0
H160 H 0.12699 0.74147 0.20161 0.0
H161 H 0.22094 0.76523 0.16271 0.0
H162 H 0.12059 0.89254 0.32032 0.0
H163 H 0.06613 0.82509 0.17084 0.0
H164 H 0.1426 0.90233 0.18272 0.0
C165 C 0.45781 0.8938 0.42508 0.0
C166 C 0.48453 0.89569 0.40606 0.0
N167 N 0.51287 0.88514 0.41967 0.0
N168 N 0.46922 0.88165 0.45044 0.0
C169 C 0.50306 0.87687 0.44659 0.0
H170 H 0.43153 0.90027 0.42063 0.0
Co171 Co 0.44172 0.87472 0.48252 0.0
C172 C 0.46119 0.80613 0.50528 0.0
O173 O 0.42842 0.80009 0.50696 0.0
N174 N 0.41323 0.86924 0.51616 0.0
C175 C 0.37295 0.85399 0.54777 0.0
C176 C 0.3834 0.85224 0.51967 0.0
C177 C 0.41967 0.88158 0.54292 0.0
N178 N 0.39572 0.87251 0.5624 0.0
O179 O 0.46911 0.9086 0.50164 0.0
H180 H 0.37037 0.83754 0.50359 0.0
H181 H 0.44185 0.89633 0.54845 0.0
O182 O 0.47152 0.83551 0.49624 0.0
C183 C 0.4574 0.93878 0.49766 0.0
O184 O 0.42557 0.94217 0.48939 0.0
N185 N 0.4148 0.84472 0.46004 0.0
C186 C 0.38032 0.80746 0.4182 0.0
C187 C 0.41422 0.80017 0.42477 0.0
C188 C 0.43093 0.81914 0.44541 0.0
C189 C 0.38242 0.85394 0.45236 0.0
C190 C 0.36405 0.83464 0.43227 0.0
H191 H 0.45761 0.81456 0.44819 0.0
H192 H 0.37079 0.87631 0.46186 0.0
H193 H 0.51999 0.86673 0.46283 0.0
H194 H 0.48314 0.90299 0.38365 0.0
H195 H 0.35042 0.84231 0.5569 0.0
H196 H 0.42797 0.78012 0.41362 0.0
H197 H 0.33794 0.84134 0.42725 0.0
C198 C 0.33626 0.15439 0.68183 0.0
C199 C 0.32212 0.17146 0.65899 0.0
N200 N 0.33652 0.20251 0.65765 0.0
N201 N 0.35858 0.175 0.69522 0.0
C202 C 0.35817 0.20429 0.6801 0.0
H203 H 0.32998 0.12886 0.68888 0.0
Co204 Co 0.37845 0.16232 0.72939 0.0
C205 C 0.44799 0.19655 0.72967 0.0
O206 O 0.46136 0.16628 0.7336 0.0
N207 N 0.39661 0.14749 0.76573 0.0
C208 C 0.42529 0.11992 0.80036 0.0
C209 C 0.42333 0.12642 0.77149 0.0
C210 C 0.38265 0.15296 0.79206 0.0
N211 N 0.39964 0.1365 0.81318 0.0
O212 O 0.34632 0.19365 0.74765 0.0
H213 H 0.44043 0.11528 0.75597 0.0
H214 H 0.35999 0.16791 0.7959 0.0
O215 O 0.41521 0.19977 0.72721 0.0
C216 C 0.31555 0.18303 0.75032 0.0
O217 O 0.31024 0.14995 0.75107 0.0
N218 N 0.40628 0.13155 0.70845 0.0
C219 C 0.44542 0.08952 0.67346 0.0
C220 C 0.44292 0.1243 0.66778 0.0
C221 C 0.42304 0.14466 0.6852 0.0
C222 C 0.4052 0.09695 0.71237 0.0
C223 C 0.42578 0.07529 0.6956 0.0
H224 H 0.42126 0.17128 0.67987 0.0
H225 H 0.38936 0.08627 0.72914 0.0
H226 H 0.37296 0.2266 0.68557 0.0
H227 H 0.3032 0.16176 0.64422 0.0
H228 H 0.44371 0.10375 0.81113 0.0
H229 H 0.45701 0.13588 0.65025 0.0
H230 H 0.42664 0.04815 0.69997 0.0
C231 C 0.01275 0.08777 0.9345 0.0
C232 C 0.98467 0.07501 0.92124 0.0
N233 N 0.95758 0.09469 0.92789 0.0
N234 N 1.0046 0.1164 0.94913 0.0
C235 C 0.97068 0.11985 0.94468 0.0
H236 H 0.03776 0.07651 0.93347 0.0
Co237 Co 0.03457 0.13733 0.97618 0.0
C238 C 0.9955 0.18745 0.9836 0.0
O239 O 0.01369 0.19123 0.96008 0.0
N240 N 0.06308 0.15555 0.00476 0.0
C241 C 0.08686 0.19546 0.03188 0.0
C242 C 0.07496 0.18777 0.00486 0.0
C243 C 0.06945 0.14368 0.0316 0.0
N244 N 0.08314 0.16782 0.04891 0.0
O245 O 0.02963 0.09264 0.99519 0.0
H246 H 0.07267 0.2054 0.98708 0.0
H247 H 0.06201 0.1186 0.03897 0.0
O248 O 0.9964 0.15816 0.99624 0.0
C249 C 0.04665 0.06484 0.99763 0.0
O250 O 0.07998 0.06531 -0.00106 0.0
N251 N 0.0733 0.12579 0.95348 0.0
C252 C 0.12859 0.14334 0.91873 0.0
C253 C 0.09549 0.14574 0.90835 0.0
C254 C 0.06849 0.13843 0.92635 0.0
C255 C 0.10588 0.12048 0.96318 0.0
C256 C 0.13409 0.1287 0.94584 0.0
H257 H 0.04376 0.14705 0.91928 0.0
H258 H 0.11069 0.11476 0.98545 0.0
H259 H 0.95609 0.14012 0.95409 0.0
H260 H 0.98487 0.0534 0.90681 0.0
H261 H 0.09581 0.22018 0.03894 0.0
H262 H 0.09031 0.15792 0.88787 0.0
H263 H 0.15952 0.12766 0.95482 0.0
C264 C 0.81966 0.76749 0.69961 0.0
C265 C 0.81868 0.74583 0.67659 0.0
N266 N 0.85087 0.73779 0.66956 0.0
N267 N 0.85216 0.77258 0.70798 0.0
C268 C 0.87077 0.75402 0.68893 0.0
H269 H 0.79784 0.77957 0.70914 0.0
Co270 Co 0.86099 0.80175 0.73939 0.0
C271 C 0.93143 0.78864 0.76022 0.0
O272 O 0.93441 0.82197 0.7599 0.0
N273 N 0.86819 0.83097 0.77168 0.0
C274 C 0.88597 0.87161 0.80153 0.0
C275 C 0.879 0.86367 0.77334 0.0
C276 C 0.86709 0.82052 0.79949 0.0
N277 N 0.87865 0.84433 0.81801 0.0
O278 O 0.83011 0.77353 0.76159 0.0
H279 H 0.88378 0.88031 0.75532 0.0
H280 H 0.85872 0.79543 0.80606 0.0
O281 O 0.90307 0.77521 0.75167 0.0
C282 C 0.80095 0.78614 0.76829 0.0
O283 O 0.79823 0.81927 0.77196 0.0
N284 N 0.88668 0.82973 0.71461 0.0
C285 C 0.90957 0.86343 0.66579 0.0
C286 C 0.92815 0.83632 0.67716 0.0
C287 C 0.91595 0.81935 0.70113 0.0
C288 C 0.86878 0.85697 0.70416 0.0
C289 C 0.88007 0.87467 0.67983 0.0
H290 H 0.92883 0.79614 0.70686 0.0
H291 H 0.84452 0.86362 0.71373 0.0
H292 H 0.89822 0.75274 0.68859 0.0
H293 H 0.79619 0.73795 0.66492 0.0
H294 H 0.89607 0.89553 0.80937 0.0
H295 H 0.95053 0.82656 0.66618 0.0
H296 H 0.8648 0.89518 0.67095 0.0
C297 C 0.94777 0.09743 0.43125 0.0
C298 C 0.95778 0.08949 0.40389 0.0
N299 N 0.989 0.10256 0.39988 0.0
N300 N 0.97267 0.1151 0.44449 0.0
C301 C 0.99779 0.11778 0.42482 0.0
H302 H 0.92365 0.09088 0.44105 0.0
Co303 Co 0.96605 0.12661 0.48247 0.0
C304 C 1.00442 0.18832 0.49801 0.0
O305 O 0.97547 0.19765 0.50986 0.0
N306 N 0.95792 0.13492 0.5219 0.0
C307 C 0.97027 0.13529 0.56862 0.0
C308 C 0.98264 0.12934 0.5416 0.0
C309 C 0.93036 0.14409 0.53783 0.0
N310 N 0.93745 0.14441 0.56623 0.0
O311 O 0.99479 0.08815 0.49258 0.0
H312 H 0.0085 0.1219 0.53664 0.0
H313 H 0.90562 0.1503 0.52924 0.0
O314 O 0.00642 0.15929 0.48479 0.0
C315 C 0.98164 0.05842 0.49248 0.0
O316 O 0.94889 0.05671 0.48703 0.0
N317 N 0.93749 0.16319 0.46942 0.0
C318 C 0.89905 0.20952 0.43711 0.0
C319 C 0.93426 0.20883 0.43488 0.0
C320 C 0.95264 0.18508 0.45035 0.0
C321 C 0.90272 0.163 0.47157 0.0
C322 C 0.88284 0.18658 0.45589 0.0
H323 H 0.97897 0.18258 0.44481 0.0
H324 H 0.89012 0.14314 0.48365 0.0
H325 H 0.02163 0.1309 0.42846 0.0
H326 H 0.943 0.07619 0.3878 0.0
H327 H 0.98429 0.13333 0.58858 0.0
H328 H 0.94745 0.22515 0.41969 0.0
H329 H 0.85531 0.18565 0.45713 0.0
C330 C 0.6631 0.25963 0.18487 0.0
C331 C 0.6573 0.2846 0.16471 0.0
N332 N 0.6305 0.3034 0.17336 0.0
N333 N 0.63972 0.26224 0.20608 0.0
C334 C 0.62041 0.28962 0.19854 0.0
H335 H 0.68363 0.2412 0.18433 0.0
Co336 Co 0.63829 0.23451 0.23919 0.0
C337 C 0.57246 0.2557 0.26965 0.0
O338 O 0.57308 0.22979 0.28747 0.0
N339 N 0.63771 0.20689 0.2727 0.0
C340 C 0.62796 0.1635 0.30237 0.0
C341 C 0.63013 0.17333 0.27415 0.0
C342 C 0.64227 0.2162 0.30055 0.0
N343 N 0.63507 0.19052 0.31913 0.0
O344 O 0.66807 0.26675 0.25755 0.0
H345 H 0.62544 0.15689 0.25598 0.0
H346 H 0.64945 0.24167 0.30707 0.0
O347 O 0.59645 0.25959 0.25126 0.0
C348 C 0.69885 0.25788 0.25232 0.0
O349 O 0.70443 0.22797 0.24047 0.0
N350 N 0.61233 0.20204 0.2186 0.0
C351 C 0.57688 0.17301 0.17373 0.0
C352 C 0.55999 0.18105 0.19927 0.0
C353 C 0.57858 0.19468 0.222 0.0
C354 C 0.62987 0.18789 0.19625 0.0
C355 C 0.6125 0.17362 0.17311 0.0
H356 H 0.56508 0.20132 0.24118 0.0
H357 H 0.65722 0.19048 0.19514 0.0
H358 H 0.59959 0.29969 0.21121 0.0
H359 H 0.67164 0.28872 0.14512 0.0
H360 H 0.62082 0.13843 0.31009 0.0
H361 H 0.53251 0.17918 0.20085 0.0
H362 H 0.62639 0.16619 0.15397 0.0
C363 C 0.56842 0.93384 0.94794 0.0
C364 C 0.55091 0.94455 0.92417 0.0
N365 N 0.52147 0.92721 0.92316 0.0
N366 N 0.54998 0.9103 0.96224 0.0
C367 C 0.52113 0.90698 0.94672 0.0
H368 H 0.59318 0.94284 0.95461 0.0
Co369 Co 0.56694 0.8938 0.99675 0.0
C370 C 0.54452 0.82089 0.00351 0.0
O371 O 0.57619 0.81466 0.01083 0.0
N372 N 0.58609 0.87957 0.03294 0.0
C373 C 0.622 0.8596 0.06631 0.0
C374 C 0.6166 0.86411 0.03747 0.0
C375 C 0.57377 0.88453 0.06 0.0
N376 N 0.59519 0.87248 0.08051 0.0
O377 O 0.53247 0.92153 0.01539 0.0
H378 H 0.63407 0.85557 0.02113 0.0
H379 H 0.54976 0.89695 0.06473 0.0
O380 O 0.53585 0.85195 0.99723 0.0
C381 C 0.54009 0.95279 0.02007 0.0
O382 O 0.57225 0.96058 0.02419 0.0
N383 N 0.6005 0.87028 0.97489 0.0
C384 C 0.642 0.8526 0.9285 0.0
C385 C 0.61029 0.8374 0.93225 0.0
C386 C 0.58966 0.84735 0.95478 0.0
C387 C 0.63198 0.88491 0.97199 0.0
C388 C 0.65348 0.87614 0.94892 0.0
H389 H 0.56363 0.83938 0.95355 0.0
H390 H 0.6394 0.90523 0.98637 0.0
H391 H 0.50011 0.8907 0.95262 0.0
H392 H 0.55952 0.9628 0.90827 0.0
H393 H 0.64411 0.84793 0.07621 0.0
H394 H 0.6001 0.82016 0.91621 0.0
H395 H 0.67761 0.88905 0.94608 0.0
C396 C 0.81768 0.21018 0.80047 0.0
C397 C 0.81541 0.22421 0.82719 0.0
N398 N 0.84708 0.2311 0.83686 0.0
N399 N 0.85035 0.20965 0.792 0.0
C400 C 0.86767 0.22337 0.81418 0.0
H401 H 0.79683 0.20015 0.78825 0.0
Co402 Co 0.86267 0.18772 0.75823 0.0
C403 C 0.93612 0.20462 0.74519 0.0
O404 O 0.93961 0.1722 0.73872 0.0
N405 N 0.87328 0.16481 0.72361 0.0
C406 C 0.8902 0.12663 0.69124 0.0
C407 C 0.88251 0.13188 0.71969 0.0
C408 C 0.87436 0.17859 0.69689 0.0
N409 N 0.88521 0.15607 0.6769 0.0
O410 O 0.83566 0.22145 0.73791 0.0
H411 H 0.88466 0.11287 0.73639 0.0
H412 H 0.86777 0.20483 0.69217 0.0
O413 O 0.90658 0.21498 0.75414 0.0
C414 C 0.80629 0.21167 0.72912 0.0
O415 O 0.80171 0.17914 0.72368 0.0
N416 N 0.88378 0.15411 0.78091 0.0
C417 C 0.89237 0.11707 0.83134 0.0
C418 C 0.91764 0.13949 0.82194 0.0
C419 C 0.91247 0.15852 0.79714 0.0
C420 C 0.86029 0.1301 0.78858 0.0
C421 C 0.86388 0.11144 0.81402 0.0
H422 H 0.92954 0.17947 0.79382 0.0
H423 H 0.83678 0.12822 0.77657 0.0
H424 H 0.89469 0.22709 0.81324 0.0
H425 H 0.79177 0.22909 0.83844 0.0
H426 H 0.899 0.10298 0.68173 0.0
H427 H 0.93946 0.14502 0.83539 0.0
H428 H 0.84356 0.09477 0.82111 0.0
C429 C 0.58466 0.08689 0.55919 0.0
C430 C 0.57273 0.07282 0.58426 0.0
N431 N 0.54046 0.08354 0.58805 0.0
N432 N 0.55981 0.10581 0.54701 0.0
C433 C 0.53304 0.10334 0.56508 0.0
H434 H 0.60944 0.08247 0.54968 0.0
Co435 Co 0.5651 0.12324 0.51031 0.0
C436 C 0.53162 0.19129 0.50624 0.0
O437 O 0.56093 0.20078 0.49523 0.0
N438 N 0.57084 0.13841 0.47173 0.0
C439 C 0.55462 0.14915 0.42665 0.0
C440 C 0.54428 0.1382 0.45322 0.0
C441 C 0.5973 0.14987 0.45549 0.0
N442 N 0.58796 0.15634 0.42809 0.0
O443 O 0.5328 0.08904 0.49787 0.0
H444 H 0.51859 0.13084 0.45873 0.0
H445 H 0.62286 0.15383 0.46305 0.0
O446 O 0.52773 0.15987 0.51457 0.0
C447 C 0.54502 0.05916 0.49367 0.0
O448 O 0.57822 0.0554 0.49176 0.0
N449 N 0.5978 0.15385 0.52545 0.0
C450 C 0.64272 0.19509 0.55571 0.0
C451 C 0.60874 0.1929 0.56388 0.0
C452 C 0.587 0.17193 0.54887 0.0
C453 C 0.63183 0.15271 0.51913 0.0
C454 C 0.65483 0.17434 0.53338 0.0
H455 H 0.56127 0.16965 0.55678 0.0
H456 H 0.64146 0.13434 0.50386 0.0
H457 H 0.50842 0.11498 0.56117 0.0
H458 H 0.58649 0.05591 0.59858 0.0
H459 H 0.53884 0.15206 0.40774 0.0
H460 H 0.59896 0.20752 0.58189 0.0
H461 H 0.68154 0.1744 0.52751 0.0
C462 C 0.67045 0.74281 0.28553 0.0
C463 C 0.67594 0.71927 0.30673 0.0
N464 N 0.65591 0.7275 0.32896 0.0
N465 N 0.64761 0.76667 0.29447 0.0
C466 C 0.63826 0.7556 0.32095 0.0
H467 H 0.68217 0.74161 0.26456 0.0
Co468 Co 0.63272 0.8038 0.27098 0.0
C469 C 0.57769 0.77337 0.26056 0.0
O470 O 0.57365 0.79647 0.2807 0.0
N471 N 0.61681 0.83792 0.24492 0.0
C472 C 0.58074 0.87353 0.2228 0.0
C473 C 0.58954 0.85877 0.2486 0.0
C474 C 0.62305 0.83943 0.21626 0.0
N475 N 0.60157 0.86096 0.20246 0.0
O476 O 0.67541 0.79835 0.2495 0.0
H477 H 0.57586 0.8619 0.26863 0.0
H478 H 0.64121 0.82315 0.20532 0.0
O479 O 0.60729 0.77074 0.24899 0.0
C480 C 0.70228 0.81678 0.2489 0.0
O481 O 0.70028 0.84969 0.25394 0.0
N482 N 0.65373 0.83776 0.2966 0.0
C483 C 0.62854 0.86538 0.34681 0.0
C484 C 0.65227 0.83863 0.34806 0.0
C485 C 0.66638 0.82651 0.32231 0.0
C486 C 0.64067 0.87018 0.29627 0.0
C487 C 0.62583 0.88374 0.32112 0.0
H488 H 0.68343 0.80491 0.32313 0.0
H489 H 0.63817 0.88421 0.27647 0.0
H490 H 0.61947 0.76803 0.33432 0.0
H491 H 0.69287 0.69742 0.30583 0.0
H492 H 0.55928 0.89031 0.21889 0.0
H493 H 0.65696 0.82506 0.36795 0.0
H494 H 0.60981 0.90624 0.31967 0.0
C495 C 0.03868 0.89593 0.01744 0.0
C496 C 0.06182 0.89976 0.03915 0.0
N497 N 0.04854 0.88544 0.06277 0.0
N498 N 0.0103 0.88016 0.02745 0.0
C499 C 0.01786 0.87295 0.05517 0.0
H500 H 0.04282 0.90402 0.99552 0.0
Co501 Co 0.97179 0.87107 0.00415 0.0
C502 C 0.99494 0.81081 0.99593 0.0
O503 O 0.97196 0.81088 0.0165 0.0
N504 N 0.93571 0.86018 0.97885 0.0
C505 C 0.89403 0.82967 0.95895 0.0
C506 C 0.91226 0.83552 0.98361 0.0
C507 C 0.93221 0.86771 0.95058 0.0
N508 N 0.90672 0.84985 0.93823 0.0
O509 O 0.98449 0.91155 0.9822 0.0
H510 H 0.90911 0.82201 0.00371 0.0
H511 H 0.9494 0.88409 0.93876 0.0
O512 O 1.0006 0.8392 0.98299 0.0
C513 C 0.96844 0.93973 0.97888 0.0
O514 O 0.93505 0.93959 0.97698 0.0
N515 N 0.9419 0.89933 0.0284 0.0
C516 C 0.91351 0.89015 0.08188 0.0
C517 C 0.94315 0.90966 0.07904 0.0
C518 C 0.95588 0.9159 0.05136 0.0
C519 C 0.90813 0.89099 0.0305 0.0
C520 C 0.89365 0.88477 0.05742 0.0
H521 H 0.97979 0.92918 0.04908 0.0
H522 H 0.89298 0.88577 0.01183 0.0
H523 H 1.00111 0.85962 0.06973 0.0
H524 H 0.0866 0.91172 0.03776 0.0
H525 H 0.8744 0.81067 0.95592 0.0
H526 H 0.95812 0.91636 0.09768 0.0
H527 H 0.86925 0.87202 0.05886 0.0
C528 C 0.57557 0.76302 0.81634 0.0
C529 C 0.58663 0.78705 0.83556 0.0
N530 N 0.62052 0.78985 0.8327 0.0
N531 N 0.60246 0.74974 0.80189 0.0
C532 C 0.62937 0.76819 0.81152 0.0
H533 H 0.54954 0.75456 0.81408 0.0
Co534 Co 0.59698 0.71431 0.77436 0.0
C535 C 0.54554 0.74536 0.75161 0.0
O536 O 0.53347 0.7213 0.76844 0.0
N537 N 0.58958 0.68072 0.74641 0.0
C538 C 0.56212 0.63975 0.72296 0.0
C539 C 0.56681 0.65516 0.74919 0.0
C540 C 0.59856 0.68031 0.71833 0.0
N541 N 0.58201 0.65566 0.70359 0.0
O542 O 0.64485 0.72136 0.7607 0.0
H543 H 0.55308 0.6494 0.76877 0.0
H544 H 0.61505 0.6991 0.70848 0.0
O545 O 0.57795 0.74757 0.74868 0.0
C546 C 0.67319 0.71592 0.77392 0.0
O547 O 0.67235 0.7055 0.80075 0.0
N548 N 0.61061 0.68006 0.80093 0.0
C549 C 0.61166 0.6236 0.83732 0.0
C550 C 0.59626 0.65412 0.84589 0.0
C551 C 0.59513 0.68149 0.82714 0.0
C552 C 0.62852 0.65137 0.79319 0.0
C553 C 0.62952 0.62275 0.81127 0.0
H554 H 0.57878 0.70232 0.83292 0.0
H555 H 0.64025 0.64971 0.77219 0.0
H556 H 0.6551 0.76627 0.80377 0.0
H557 H 0.5712 0.80071 0.85109 0.0
H558 H 0.54451 0.61933 0.71817 0.0
H559 H 0.58139 0.65545 0.86552 0.0
H560 H 0.64157 0.59944 0.80392 0.0
C561 C 0.48537 0.40734 0.00536 0.0
C562 C 0.46244 0.4131 0.02705 0.0
N563 N 0.47168 0.39353 0.04932 0.0
N564 N 0.50985 0.38522 0.0143 0.0
C565 C 0.49995 0.37652 0.0411 0.0
H566 H 0.48399 0.41877 0.98426 0.0
Co567 Co 0.54775 0.37237 0.99145 0.0
C568 C 0.51368 0.32171 0.97706 0.0
O569 O 0.53056 0.3164 0.00105 0.0
N570 N 0.58355 0.35943 0.96623 0.0
C571 C 0.60444 0.32151 0.93532 0.0
C572 C 0.59176 0.32624 0.9624 0.0
C573 C 0.59366 0.37462 0.94148 0.0
N574 N 0.60535 0.35187 0.92181 0.0
O575 O 0.54442 0.41835 0.97482 0.0
H576 H 0.58554 0.30588 0.97713 0.0
H577 H 0.58914 0.40121 0.9367 0.0
O578 O 0.51596 0.35123 0.96515 0.0
C579 C 0.56254 0.44524 0.97794 0.0
O580 O 0.59546 0.44224 0.98229 0.0
N581 N 0.57907 0.38739 0.02043 0.0
C582 C 0.60333 0.38158 0.0763 0.0
C583 C 0.58098 0.40809 0.06904 0.0
C584 C 0.56973 0.41112 0.04057 0.0
C585 C 0.60508 0.36522 0.02658 0.0
C586 C 0.61796 0.3623 0.05433 0.0
H587 H 0.54988 0.42943 0.03591 0.0
H588 H 0.6133 0.34626 0.01147 0.0
H589 H 0.51322 0.35856 0.05448 0.0
H590 H 0.44066 0.43012 0.02658 0.0
H591 H 0.60961 0.29701 0.92547 0.0
H592 H 0.56976 0.42391 0.0856 0.0
H593 H 0.63556 0.34175 0.05927 0.0
C594 C 0.83373 0.33846 0.32117 0.0
C595 C 0.831 0.31739 0.34455 0.0
N596 N 0.86151 0.30282 0.34894 0.0
N597 N 0.86573 0.33696 0.31037 0.0
C598 C 0.88225 0.31495 0.32804 0.0
H599 H 0.81344 0.3542 0.31278 0.0
Co600 Co 0.87844 0.36113 0.27683 0.0
C601 C 0.94844 0.33417 0.25852 0.0
O602 O 0.95162 0.35835 0.23928 0.0
N603 N 0.8886 0.38583 0.24272 0.0
C604 C 0.89763 0.42855 0.2119 0.0
C605 C 0.89344 0.41989 0.24034 0.0
C606 C 0.88855 0.37465 0.2151 0.0
N607 N 0.8944 0.40008 0.19607 0.0
O608 O 0.85274 0.32876 0.25526 0.0
H609 H 0.89303 0.43771 0.25805 0.0
H610 H 0.88418 0.3484 0.20895 0.0
O611 O 0.92105 0.33223 0.27368 0.0
C612 C 0.82172 0.33819 0.25393 0.0
O613 O 0.81441 0.36993 0.26079 0.0
N614 N 0.9012 0.39365 0.29979 0.0
C615 C 0.93568 0.42009 0.34601 0.0
C616 C 0.95278 0.41461 0.32013 0.0
C617 C 0.93483 0.40167 0.29697 0.0
C618 C 0.88312 0.40625 0.32258 0.0
C619 C 0.90011 0.4191 0.34656 0.0
H620 H 0.94869 0.39618 0.27778 0.0
H621 H 0.85585 0.40297 0.32357 0.0
H622 H 0.90862 0.30749 0.32555 0.0
H623 H 0.80851 0.31328 0.35759 0.0
H624 H 0.90156 0.45395 0.20335 0.0
H625 H 0.98027 0.4167 0.31879 0.0
H626 H 0.88614 0.42431 0.36617 0.0
C627 C 0.97831 0.56583 0.5393 0.0
C628 C 0.98884 0.56754 0.56725 0.0
N629 N 0.98989 0.60059 0.57539 0.0
N630 N 0.97449 0.59766 0.52887 0.0
C631 C 0.98283 0.61811 0.551 0.0
H632 H 0.97196 0.54258 0.52825 0.0
Co633 Co 0.95142 0.61009 0.49547 0.0
C634 C 0.98235 0.67623 0.47375 0.0
O635 O 0.95411 0.6829 0.4599 0.0
N636 N 0.92627 0.62098 0.46169 0.0
C637 C 0.88237 0.63662 0.43421 0.0
C638 C 0.89285 0.62962 0.46168 0.0
C639 C 0.93515 0.62173 0.43341 0.0
N640 N 0.9089 0.63178 0.41641 0.0
O641 O 0.98185 0.5802 0.47416 0.0
H642 H 0.87663 0.63076 0.4804 0.0
H643 H 0.96041 0.61571 0.42551 0.0
O644 O 0.9839 0.64905 0.48923 0.0
C645 C 0.97485 0.54845 0.47215 0.0
O646 O 0.94342 0.5396 0.47842 0.0
N647 N 0.92171 0.63716 0.51885 0.0
C648 C 0.89041 0.66573 0.56715 0.0
C649 C 0.90958 0.68592 0.54844 0.0
C650 C 0.92472 0.67133 0.52433 0.0
C651 C 0.90071 0.61771 0.53561 0.0
C652 C 0.88455 0.63156 0.55985 0.0
H653 H 0.94069 0.68764 0.51194 0.0
H654 H 0.89848 0.59068 0.53132 0.0
H655 H 0.98221 0.64528 0.54897 0.0
H656 H 0.99478 0.54567 0.58054 0.0
H657 H 0.85702 0.64429 0.42764 0.0
H658 H 0.91415 0.7126 0.55317 0.0
H659 H 0.86924 0.61537 0.57359 0.0
C660 C 0.668 0.33674 0.66665 0.0
C661 C 0.67926 0.3217 0.64182 0.0
N662 N 0.66438 0.29098 0.63986 0.0
N663 N 0.64671 0.31536 0.68053 0.0
C664 C 0.64488 0.28747 0.66365 0.0
H665 H 0.67498 0.3618 0.67434 0.0
Co666 Co 0.62866 0.3284 0.71558 0.0
C667 C 0.55779 0.29381 0.71622 0.0
O668 O 0.54262 0.32353 0.71495 0.0
N669 N 0.61211 0.34348 0.75183 0.0
C670 C 0.57808 0.36342 0.78622 0.0
C671 C 0.5819 0.35873 0.75737 0.0
C672 C 0.62738 0.342 0.77797 0.0
N673 N 0.60691 0.3535 0.79942 0.0
O674 O 0.66023 0.29658 0.7331 0.0
H675 H 0.56409 0.36795 0.74161 0.0
H676 H 0.65316 0.33309 0.78125 0.0
O677 O 0.59082 0.29164 0.71523 0.0
C678 C 0.69099 0.30733 0.73503 0.0
O679 O 0.69625 0.34043 0.73478 0.0
N680 N 0.6019 0.36034 0.69587 0.0
C681 C 0.57808 0.40683 0.65534 0.0
C682 C 0.56975 0.37221 0.65353 0.0
C683 C 0.58328 0.3494 0.67298 0.0
C684 C 0.60974 0.39414 0.69864 0.0
C685 C 0.59827 0.41803 0.67828 0.0
H686 H 0.58042 0.32261 0.66857 0.0
H687 H 0.62685 0.4022 0.71551 0.0
H688 H 0.62935 0.26538 0.66839 0.0
H689 H 0.69626 0.33269 0.626 0.0
H690 H 0.556 0.37452 0.79664 0.0
H691 H 0.55462 0.36238 0.63594 0.0
H692 H 0.6061 0.44443 0.67985 0.0
C693 C 0.93404 0.43025 0.93827 0.0
C694 C 0.95498 0.43345 0.91484 0.0
N695 N 0.97688 0.40712 0.91523 0.0
N696 N 0.94241 0.4019 0.95323 0.0
C697 C 0.96918 0.38851 0.93878 0.0
H698 H 0.91402 0.44777 0.94429 0.0
Co699 Co 0.92308 0.3932 0.98911 0.0
C700 C 0.95336 0.32566 0.011 0.0
O701 O 0.93534 0.32735 0.03466 0.0
N702 N 0.90279 0.38758 0.02596 0.0
C703 C 0.86339 0.3806 0.06005 0.0
C704 C 0.86955 0.38068 0.03104 0.0
C705 C 0.91583 0.39345 0.05255 0.0
N706 N 0.89242 0.38879 0.07361 0.0
O707 O 0.95846 0.42205 0.00432 0.0
H708 H 0.85033 0.377 0.01476 0.0
H709 H 0.94187 0.40115 0.05646 0.0
O710 O 0.95229 0.35083 0.99323 0.0
C711 C 0.95287 0.45416 0.00581 0.0
O712 O 0.92141 0.4648 0.00946 0.0
N713 N 0.8884 0.36605 0.97133 0.0
C714 C 0.86173 0.32188 0.93097 0.0
C715 C 0.87063 0.30979 0.95814 0.0
C716 C 0.8833 0.33257 0.97834 0.0
C717 C 0.87272 0.37899 0.94745 0.0
C718 C 0.85992 0.35711 0.92638 0.0
H719 H 0.89074 0.3226 -0.00118 0.0
H720 H 0.87273 0.40603 0.94335 0.0
H721 H 0.98366 0.3665 0.94573 0.0
H722 H 0.95439 0.4535 0.89883 0.0
H723 H 0.83908 0.37624 0.07043 0.0
H724 H 0.8704 0.28271 0.96292 0.0
H725 H 0.85138 0.36733 0.90599 0.0
C726 C 0.85364 0.74178 0.17321 0.0
C727 C 0.85569 0.76937 0.15518 0.0
N728 N 0.87876 0.79112 0.16598 0.0
N729 N 0.87538 0.74599 0.1953 0.0
C730 C 0.89039 0.7765 0.19041 0.0
H731 H 0.83881 0.71903 0.16951 0.0
Co732 Co 0.88144 0.71243 0.223 0.0
C733 C 0.95408 0.71568 0.24202 0.0
O734 O 0.95383 0.68221 0.2409 0.0
N735 N 0.88645 0.67757 0.25197 0.0
C736 C 0.8964 0.62902 0.27596 0.0
C737 C 0.89172 0.6434 0.24945 0.0
C738 C 0.88754 0.68279 0.28082 0.0
N739 N 0.8936 0.65369 0.2957 0.0
O740 O 0.85481 0.74063 0.24846 0.0
H741 H 0.89378 0.62897 0.22998 0.0
H742 H 0.88487 0.70761 0.29077 0.0
O743 O 0.92657 0.73251 0.23595 0.0
C744 C 0.8238 0.7311 0.25134 0.0
O745 O 0.81675 0.69848 0.24881 0.0
N746 N 0.90303 0.68595 0.19493 0.0
C747 C 0.93031 0.64799 0.1503 0.0
C748 C 0.94494 0.67913 0.15805 0.0
C749 C 0.9307 0.69789 0.18032 0.0
C750 C 0.88532 0.65885 0.18428 0.0
C751 C 0.89955 0.63815 0.16299 0.0
H752 H 0.94188 0.7222 0.1856 0.0
H753 H 0.86079 0.65235 0.19338 0.0
H754 H 0.91086 0.78675 0.20332 0.0
H755 H 0.84297 0.77226 0.13469 0.0
H756 H 0.90187 0.60244 0.28046 0.0
H757 H 0.96792 0.68822 0.14764 0.0
H758 H 0.88695 0.61477 0.15671 0.0
C759 C 0.56041 0.56754 0.45272 0.0
C760 C 0.54416 0.55831 0.42798 0.0
N761 N 0.5189 0.58084 0.42332 0.0
N762 N 0.54513 0.5952 0.46417 0.0
C763 C 0.51971 0.60293 0.44567 0.0
H764 H 0.58241 0.55504 0.46189 0.0
Co765 Co 0.56137 0.60921 0.49943 0.0
C766 C 0.53168 0.67745 0.515 0.0
O767 O 0.56105 0.68443 0.52705 0.0
N768 N 0.57992 0.6203 0.53589 0.0
C769 C 0.61809 0.63058 0.57027 0.0
C770 C 0.61349 0.62426 0.54158 0.0
C771 C 0.56466 0.62353 0.56199 0.0
N772 N 0.58746 0.63026 0.58304 0.0
O773 O 0.52811 0.57927 0.51654 0.0
H774 H 0.63388 0.6223 0.52618 0.0
H775 H 0.53751 0.62108 0.56549 0.0
O776 O 0.5278 0.64861 0.50205 0.0
C777 C 0.53614 0.54822 0.52158 0.0
O778 O 0.56834 0.54055 0.52579 0.0
N779 N 0.59447 0.636 0.47954 0.0
C780 C 0.6348 0.661 0.43483 0.0
C781 C 0.60678 0.67937 0.44459 0.0
C782 C 0.58691 0.66637 0.46656 0.0
C783 C 0.62326 0.6187 0.47141 0.0
C784 C 0.64432 0.63112 0.44935 0.0
H785 H 0.56403 0.6798 0.47047 0.0
H786 H 0.62859 0.59389 0.4806 0.0
H787 H 0.50212 0.62393 0.44845 0.0
H788 H 0.55108 0.5375 0.41382 0.0
H789 H 0.64212 0.6348 0.58109 0.0
H790 H 0.59861 0.70247 0.4337 0.0
H791 H 0.66602 0.61624 0.44221 0.0
C792 C 0.34 0.29407 0.18613 0.0
C793 C 0.3405 0.26782 0.16666 0.0
N794 N 0.36514 0.2458 0.17443 0.0
N795 N 0.36426 0.28887 0.20617 0.0
C796 C 0.37934 0.25913 0.19836 0.0
H797 H 0.3232 0.31597 0.18555 0.0
Co798 Co 0.36888 0.31992 0.2365 0.0
C799 C 0.43666 0.31058 0.26304 0.0
O800 O 0.4389 0.34385 0.26069 0.0
N801 N 0.37142 0.35147 0.26762 0.0
C802 C 0.38451 0.39404 0.29737 0.0
C803 C 0.38142 0.38449 0.26904 0.0
C804 C 0.36682 0.34244 0.29549 0.0
N805 N 0.37558 0.36741 0.31395 0.0
O806 O 0.33663 0.29323 0.25722 0.0
H807 H 0.38853 0.40028 0.25104 0.0
H808 H 0.35896 0.31727 0.30235 0.0
O809 O 0.40968 0.2956 0.25333 0.0
C810 C 0.30728 0.30549 0.25132 0.0
O811 O 0.30637 0.33575 0.23908 0.0
N812 N 0.39672 0.34614 0.21268 0.0
C813 C 0.422 0.37478 0.16265 0.0
C814 C 0.43891 0.3474 0.17544 0.0
C815 C 0.42537 0.33283 0.2001 0.0
C816 C 0.38049 0.37346 0.20069 0.0
C817 C 0.39307 0.38867 0.17577 0.0
H818 H 0.43606 0.30885 0.20705 0.0
H819 H 0.3562 0.38176 0.20924 0.0
H820 H 0.40059 0.24776 0.20933 0.0
H821 H 0.32476 0.26553 0.14768 0.0
H822 H 0.39334 0.41844 0.30525 0.0
H823 H 0.46053 0.33541 0.16496 0.0
H824 H 0.37894 0.40916 0.16561 0.0
C825 C 0.46512 0.57458 0.92683 0.0
C826 C 0.4886 0.56156 0.90797 0.0
N827 N 0.51611 0.58193 0.90844 0.0
N828 N 0.47823 0.60204 0.94013 0.0
C829 C 0.5095 0.60603 0.92851 0.0
H830 H 0.43989 0.56469 0.93082 0.0
Co831 Co 0.45435 0.62086 0.97048 0.0
C832 C 0.47577 0.69332 0.97771 0.0
O833 O 0.44328 0.70075 0.9758 0.0
N834 N 0.42864 0.63772 0.00307 0.0
C835 C 0.38955 0.66104 0.03236 0.0
C836 C 0.39915 0.65599 0.00436 0.0
C837 C 0.43638 0.63261 0.03124 0.0
N838 N 0.41295 0.64631 0.04917 0.0
O839 O 0.48322 0.59321 0.99463 0.0
H840 H 0.38547 0.6668 0.98657 0.0
H841 H 0.45869 0.61905 0.03874 0.0
O842 O 0.48583 0.66195 0.97497 0.0
C843 C 0.47378 0.56266 7e-05 0.0
O844 O 0.44126 0.55694 0.00456 0.0
N845 N 0.42709 0.64444 0.94327 0.0
C846 C 0.39109 0.68115 0.90225 0.0
C847 C 0.42657 0.68208 0.90266 0.0
C848 C 0.44403 0.66316 0.92302 0.0
C849 C 0.39306 0.63843 0.93976 0.0
C850 C 0.37404 0.658 0.92019 0.0
H851 H 0.47142 0.66416 0.92292 0.0
H852 H 0.38028 0.62018 0.95347 0.0
H853 H 0.52696 0.62614 0.93448 0.0
H854 H 0.48529 0.53966 0.89408 0.0
H855 H 0.36733 0.67483 0.03988 0.0
H856 H 0.44061 0.69868 0.88827 0.0
H857 H 0.34654 0.6559 0.91966 0.0
C858 C 0.15068 0.72544 0.67444 0.0
C859 C 0.14828 0.75209 0.65545 0.0
N860 N 0.12914 0.77651 0.66765 0.0
N861 N 0.13264 0.73269 0.69842 0.0
C862 C 0.11986 0.76435 0.6936 0.0
H863 H 0.16588 0.70282 0.67111 0.0
Co864 Co 0.1311 0.7061 0.73191 0.0
C865 C 0.06758 0.73091 0.76404 0.0
O866 O 0.06902 0.70596 0.78278 0.0
N867 N 0.13074 0.67906 0.76576 0.0
C868 C 0.1221 0.63524 0.79535 0.0
C869 C 0.12177 0.64579 0.76734 0.0
C870 C 0.13833 0.68747 0.79331 0.0
N871 N 0.13251 0.66136 0.81179 0.0
O872 O 0.16265 0.73813 0.74856 0.0
H873 H 0.11521 0.62964 0.74943 0.0
H874 H 0.1469 0.71246 0.79986 0.0
O875 O 0.09069 0.73337 0.74466 0.0
C876 C 0.19384 0.73131 0.7428 0.0
O877 O 0.20155 0.70059 0.7335 0.0
N878 N 0.10273 0.6742 0.71299 0.0
C879 C 0.06451 0.63845 0.6735 0.0
C880 C 0.04895 0.65209 0.69781 0.0
C881 C 0.06871 0.66934 0.7177 0.0
C882 C 0.11881 0.65572 0.69212 0.0
C883 C 0.10001 0.63828 0.6714 0.0
H884 H 0.05594 0.67929 0.73608 0.0
H885 H 0.14624 0.65598 0.69067 0.0
H886 H 0.10426 0.77845 0.70867 0.0
H887 H 0.15964 0.75353 0.63428 0.0
H888 H 0.11566 0.61001 0.80313 0.0
H889 H 0.02152 0.65122 0.70051 0.0
H890 H 0.11277 0.62665 0.65322 0.0
C891 C 0.10076 0.40337 0.43008 0.0
C892 C 0.07703 0.41172 0.40958 0.0
N893 N 0.04609 0.40484 0.42052 0.0
N894 N 0.08458 0.39081 0.4534 0.0
C895 C 0.05121 0.39215 0.44701 0.0
H896 H 0.12801 0.40698 0.42846 0.0
Co897 Co 0.10532 0.38124 0.48791 0.0
C898 C 0.0807 0.3124 0.50485 0.0
O899 O 0.11274 0.30573 0.51087 0.0
N900 N 0.12733 0.37422 0.52368 0.0
C901 C 0.16585 0.3787 0.5587 0.0
C902 C 0.15907 0.38498 0.5302 0.0
C903 C 0.11457 0.3635 0.54929 0.0
N904 N 0.13783 0.36515 0.57067 0.0
O905 O 0.07467 0.41476 0.50546 0.0
H906 H 0.17551 0.39907 0.51595 0.0
H907 H 0.08833 0.35608 0.55255 0.0
O908 O 0.07242 0.34265 0.49631 0.0
C909 C 0.07883 0.44568 0.49722 0.0
O910 O 0.10715 0.45268 0.4833 0.0
N911 N 0.13492 0.34988 0.46763 0.0
C912 C 0.17015 0.31288 0.4254 0.0
C913 C 0.13539 0.30842 0.42944 0.0
C914 C 0.11843 0.32731 0.45003 0.0
C915 C 0.16929 0.35439 0.4641 0.0
C916 C 0.18763 0.33555 0.44341 0.0
H917 H 0.09123 0.32592 0.44966 0.0
H918 H 0.18246 0.37423 0.47539 0.0
H919 H 0.03107 0.38466 0.46157 0.0
H920 H 0.08188 0.4225 0.38855 0.0
H921 H 0.18884 0.38542 0.57019 0.0
H922 H 0.12085 0.29183 0.41545 0.0
H923 H 0.2146 0.34009 0.44035 0.0
C924 C 0.34483 0.66699 0.30425 0.0
C925 C 0.33472 0.68491 0.32806 0.0
N926 N 0.35198 0.71448 0.32836 0.0
N927 N 0.36767 0.68545 0.28922 0.0
C928 C 0.37121 0.71461 0.30426 0.0
H929 H 0.33649 0.64169 0.29832 0.0
Co930 Co 0.3842 0.66796 0.25503 0.0
C931 C 0.45305 0.6972 0.24299 0.0
O932 O 0.46225 0.66567 0.2376 0.0
N933 N 0.39843 0.64846 0.21918 0.0
C934 C 0.42203 0.61577 0.18521 0.0
C935 C 0.41675 0.61968 0.21416 0.0
C936 C 0.39203 0.66081 0.1924 0.0
N937 N 0.40648 0.6416 0.17148 0.0
O938 O 0.35236 0.69768 0.23633 0.0
H939 H 0.42716 0.60287 0.23023 0.0
H940 H 0.37731 0.68362 0.18813 0.0
O941 O 0.42197 0.70334 0.25092 0.0
C942 C 0.32153 0.68745 0.23484 0.0
O943 O 0.31581 0.65475 0.23124 0.0
N944 N 0.41279 0.63918 0.2773 0.0
C945 C 0.44245 0.60307 0.32249 0.0
C946 C 0.44975 0.63738 0.31829 0.0
C947 C 0.43427 0.65496 0.29618 0.0
C948 C 0.40438 0.6057 0.28164 0.0
C949 C 0.41969 0.58672 0.30385 0.0
H950 H 0.4374 0.68208 0.29624 0.0
H951 H 0.38486 0.59404 0.26855 0.0
H952 H 0.38731 0.7355 0.29791 0.0
H953 H 0.31749 0.67623 0.3447 0.0
H954 H 0.43605 0.59532 0.17489 0.0
H955 H 0.46632 0.65102 0.33293 0.0
H956 H 0.41305 0.56019 0.30704 0.0
C957 C 0.06405 0.56339 0.05026 0.0
C958 C 0.04023 0.55846 0.07148 0.0
N959 N 0.01657 0.58316 0.06887 0.0
N960 N 0.05493 0.59051 0.03415 0.0
C961 C 0.02545 0.6015 0.0456 0.0
H962 H 0.08772 0.54955 0.0478 0.0
Co963 Co 0.08232 0.60682 0.00534 0.0
C964 C 0.05996 0.67856 0.99 0.0
O965 O 0.09243 0.68576 0.98721 0.0
N966 N 0.11199 0.62114 0.97542 0.0
C967 C 0.15826 0.63553 0.9502 0.0
C968 C 0.14616 0.62596 0.97663 0.0
C969 C 0.10418 0.62741 0.94753 0.0
N970 N 0.13189 0.63634 0.93199 0.0
O971 O 0.05615 0.57945 0.97956 0.0
H972 H 0.16212 0.62255 0.99512 0.0
H973 H 0.07873 0.62542 0.93876 0.0
O974 O 0.05119 0.64801 0.99749 0.0
C975 C 0.06434 0.54794 0.97781 0.0
O976 O 0.0968 0.53993 0.97682 0.0
N977 N 0.1072 0.63065 0.03373 0.0
C978 C 0.13814 0.6581 0.08223 0.0
C979 C 0.10704 0.67072 0.0726 0.0
C980 C 0.09185 0.65625 0.04882 0.0
C981 C 0.13618 0.61595 0.04446 0.0
C982 C 0.15291 0.63009 0.06825 0.0
H983 H 0.06668 0.66431 0.04407 0.0
H984 H 0.14609 0.59285 0.03482 0.0
H985 H 0.01147 0.62331 0.03801 0.0
H986 H 0.04193 0.5405 0.08912 0.0
H987 H 0.18448 0.64096 0.94457 0.0
H988 H 0.09427 0.69144 0.08372 0.0
H989 H 0.1766 0.61912 0.07585 0.0
C990 C 0.18073 0.28933 0.81877 0.0
C991 C 0.19017 0.26801 0.84077 0.0
N992 N 0.17069 0.23989 0.83933 0.0
N993 N 0.15602 0.27446 0.80314 0.0
C994 C 0.15047 0.24409 0.81609 0.0
H995 H 0.19035 0.31473 0.81488 0.0
Co996 Co 0.13865 0.29655 0.77099 0.0
C997 C 0.06561 0.27284 0.76557 0.0
O998 O 0.05697 0.30501 0.76765 0.0
N999 N 0.12307 0.32029 0.73674 0.0
C1000 C 0.09614 0.35485 0.70572 0.0
C1001 C 0.09886 0.34491 0.73383 0.0
C1002 C 0.1351 0.31665 0.70942 0.0
N1003 N 0.11914 0.33735 0.69034 0.0
O1004 O 0.16849 0.26693 0.74886 0.0
H1005 H 0.08375 0.35591 0.75079 0.0
H1006 H 0.15552 0.29958 0.70337 0.0
O1007 O 0.09753 0.26407 0.76712 0.0
C1008 C 0.19908 0.27816 0.74653 0.0
O1009 O 0.20378 0.31133 0.74707 0.0
N1010 N 0.11374 0.32553 0.79611 0.0
C1011 C 0.07786 0.36463 0.83573 0.0
C1012 C 0.07695 0.3292 0.83718 0.0
C1013 C 0.09551 0.3102 0.81758 0.0
C1014 C 0.11845 0.36008 0.79673 0.0
C1015 C 0.09961 0.38046 0.81586 0.0
H1016 H 0.09442 0.28283 0.81924 0.0
H1017 H 0.13565 0.37197 0.78157 0.0
H1018 H 0.13103 0.2262 0.8095 0.0
H1019 H 0.20815 0.27365 0.85772 0.0
H1020 H 0.07934 0.37441 0.69729 0.0
H1021 H 0.06114 0.31626 0.85287 0.0
H1022 H 0.10145 0.408 0.81484 0.0
C1023 C 0.43096 0.38617 0.57896 0.0
C1024 C 0.45628 0.39708 0.5969 0.0
N1025 N 0.48333 0.4061 0.58084 0.0
N1026 N 0.44221 0.38684 0.5515 0.0
C1027 C 0.47405 0.39995 0.55342 0.0
H1028 H 0.40562 0.37916 0.58577 0.0
Co1029 Co 0.41709 0.3774 0.51797 0.0
C1030 C 0.4435 0.3105 0.49575 0.0
O1031 O 0.41147 0.30297 0.4908 0.0
N1032 N 0.39149 0.36958 0.48355 0.0
C1033 C 0.35272 0.35402 0.45094 0.0
C1034 C 0.36038 0.35522 0.4796 0.0
C1035 C 0.40183 0.37711 0.45641 0.0
N1036 N 0.37877 0.3677 0.43642 0.0
O1037 O 0.44385 0.41181 0.499 0.0
H1038 H 0.34416 0.34449 0.49582 0.0
H1039 H 0.42624 0.38825 0.45115 0.0
O1040 O 0.45003 0.34014 0.50648 0.0
C1041 C 0.43354 0.44263 0.5014 0.0
O1042 O 0.40094 0.44829 0.50589 0.0
N1043 N 0.3907 0.34593 0.53922 0.0
C1044 C 0.35372 0.30511 0.57679 0.0
C1045 C 0.38796 0.29808 0.57113 0.0
C1046 C 0.40608 0.31894 0.55267 0.0
C1047 C 0.35817 0.35497 0.54662 0.0
C1048 C 0.33854 0.33396 0.56445 0.0
H1049 H 0.43311 0.31448 0.55087 0.0
H1050 H 0.34729 0.37837 0.53829 0.0
H1051 H 0.48977 0.40604 0.53502 0.0
H1052 H 0.45456 0.3994 0.62004 0.0
H1053 H 0.33006 0.34322 0.44134 0.0
H1054 H 0.40081 0.27675 0.58133 0.0
H1055 H 0.31224 0.34045 0.56901 0.0
C1056 C 0.06424 0.15331 0.0992 0.0
C1057 C 0.0889 0.16689 0.07982 0.0
C1058 C 0.11945 0.19142 0.12104 0.0
C1059 C 0.09601 0.17589 0.14025 0.0
N1060 N 0.05436 0.13182 0.14726 0.0
N1061 N 0.14612 0.18812 0.07416 0.0
C1062 C 0.07133 0.15321 0.1291 0.0
C1063 C 0.11857 0.18242 0.09139 0.0
N1064 N 0.03289 0.14322 0.0899 0.0
N1065 N 0.14101 0.21627 0.13038 0.0
H1066 H 0.14694 0.17992 0.05285 0.0
H1067 H 0.16928 0.19711 0.08201 0.0
H1068 H 0.14127 0.22511 0.15146 0.0
H1069 H 0.15625 0.23044 0.11644 0.0
H1070 H 0.01348 0.13606 0.10396 0.0
H1071 H 0.02454 0.14595 0.06888 0.0
H1072 H 0.03783 0.11293 0.13997 0.0
H1073 H 0.06004 0.13051 0.16914 0.0
C1074 C 0.12019 0.81433 0.40213 0.0
C1075 C 0.1352 0.84169 0.4173 0.0
C1076 C 0.1607 0.86269 0.37275 0.0
C1077 C 0.14109 0.83882 0.35702 0.0
N1078 N 0.0996 0.79353 0.35648 0.0
N1079 N 0.16897 0.89258 0.41789 0.0
C1080 C 0.12053 0.81465 0.37164 0.0
C1081 C 0.15545 0.866 0.40282 0.0
N1082 N 0.10566 0.78805 0.41694 0.0
N1083 N 0.18493 0.88144 0.35884 0.0
H1084 H 0.16636 0.8947 0.44014 0.0
H1085 H 0.18101 0.91329 0.40826 0.0
H1086 H 0.19005 0.87836 0.33699 0.0
H1087 H 0.20203 0.89742 0.36932 0.0
H1088 H 0.09781 0.76547 0.40724 0.0
H1089 H 0.10392 0.78768 0.43928 0.0
H1090 H 0.08106 0.77827 0.36602 0.0
H1091 H 0.09886 0.79314 0.33416 0.0
C1092 C 0.35764 0.8995 0.63297 0.0
C1093 C 0.38317 0.88891 0.6525 0.0
C1094 C 0.41844 0.86873 0.6123 0.0
C1095 C 0.39356 0.8809 0.59264 0.0
N1096 N 0.34368 0.91504 0.58392 0.0
N1097 N 0.44053 0.86995 0.66097 0.0
C1098 C 0.36436 0.89846 0.60295 0.0
C1099 C 0.41438 0.87537 0.6422 0.0
N1100 N 0.32652 0.90939 0.64319 0.0
N1101 N 0.44523 0.84971 0.60259 0.0
H1102 H 0.43832 0.87522 0.68282 0.0
H1103 H 0.46511 0.86326 0.65464 0.0
H1104 H 0.4496 0.84527 0.58089 0.0
H1105 H 0.46188 0.83657 0.61607 0.0
H1106 H 0.30562 0.91423 0.63002 0.0
H1107 H 0.32078 0.90982 0.66508 0.0
H1108 H 0.32359 0.93083 0.59013 0.0
H1109 H 0.34887 0.91578 0.56193 0.0
C1110 C 0.40349 0.16239 0.86122 0.0
C1111 C 0.39204 0.13561 0.84342 0.0
C1112 C 0.37394 0.10289 0.88576 0.0
C1113 C 0.38404 0.13032 0.9035 0.0
N1114 N 0.40364 0.18823 0.90847 0.0
N1115 N 0.36288 0.08241 0.83731 0.0
C1116 C 0.3974 0.16074 0.8913 0.0
C1117 C 0.37618 0.10639 0.85533 0.0
N1118 N 0.42143 0.18871 0.84934 0.0
N1119 N 0.36278 0.07342 0.89825 0.0
H1120 H 0.36426 0.0847 0.815 0.0
H1121 H 0.34858 0.06162 0.84418 0.0
H1122 H 0.3604 0.0708 0.92048 0.0
H1123 H 0.35774 0.05109 0.88697 0.0
H1124 H 0.43401 0.20721 0.86131 0.0
H1125 H 0.42567 0.19075 0.82727 0.0
H1126 H 0.40997 0.21231 0.90071 0.0
H1127 H 0.40024 0.1876 0.93062 0.0
C1128 C 0.87608 0.87146 0.89566 0.0
C1129 C 0.89868 0.84756 0.90811 0.0
C1130 C 0.90335 0.81703 0.86219 0.0
C1131 C 0.8824 0.84242 0.84901 0.0
N1132 N 0.8412 0.88738 0.85467 0.0
N1133 N 0.93629 0.79954 0.90389 0.0
C1134 C 0.86671 0.86797 0.86625 0.0
C1135 C 0.91265 0.82065 0.89159 0.0
N1136 N 0.86425 0.89787 0.91204 0.0
N1137 N 0.9135 0.78884 0.84717 0.0
H1138 H 0.94292 0.80111 0.92552 0.0
H1139 H 0.95119 0.78219 0.8925 0.0
H1140 H 0.90894 0.78516 0.82549 0.0
H1141 H 0.92474 0.76751 0.85657 0.0
H1142 H 0.85044 0.91843 0.90395 0.0
H1143 H 0.87008 0.90019 0.93383 0.0
H1144 H 0.82669 0.90488 0.86624 0.0
H1145 H 0.83219 0.88353 0.83386 0.0
C1146 C 0.91439 0.18485 0.63564 0.0
C1147 C 0.89042 0.16076 0.64635 0.0
C1148 C 0.89063 0.13107 0.60002 0.0
C1149 C 0.91599 0.15375 0.59006 0.0
N1150 N 0.94408 0.20763 0.5939 0.0
N1151 N 0.84696 0.11975 0.63571 0.0
C1152 C 0.92492 0.18267 0.60644 0.0
C1153 C 0.87551 0.13688 0.62732 0.0
N1154 N 0.92887 0.20822 0.65353 0.0
N1155 N 0.88274 0.10279 0.58432 0.0
H1156 H 0.83515 0.12453 0.65543 0.0
H1157 H 0.83322 0.10377 0.62215 0.0
H1158 H 0.89342 0.0979 0.56423 0.0
H1159 H 0.86727 0.08323 0.59198 0.0
H1160 H 0.94959 0.22328 0.64776 0.0
H1161 H 0.92159 0.21156 0.67477 0.0
H1162 H 0.94933 0.23096 0.6036 0.0
H1163 H 0.95194 0.20607 0.5725 0.0
C1164 C 0.60848 0.21128 0.36504 0.0
C1165 C 0.63243 0.19019 0.35027 0.0
C1166 C 0.63343 0.15065 0.39124 0.0
C1167 C 0.60793 0.17042 0.40492 0.0
N1168 N 0.57984 0.22433 0.41011 0.0
N1169 N 0.67641 0.14785 0.35369 0.0
C1170 C 0.59849 0.20246 0.39349 0.0
C1171 C 0.64801 0.1627 0.36515 0.0
N1172 N 0.59368 0.23845 0.35165 0.0
N1173 N 0.64194 0.11938 0.40203 0.0
H1174 H 0.68745 0.15693 0.33473 0.0
H1175 H 0.69069 0.12926 0.36427 0.0
H1176 H 0.63141 0.10972 0.42092 0.0
H1177 H 0.65769 0.10214 0.3913 0.0
H1178 H 0.57227 0.25108 0.3596 0.0
H1179 H 0.60228 0.24823 0.33233 0.0
H1180 H 0.57449 0.24946 0.40431 0.0
H1181 H 0.57266 0.2182 0.43109 0.0
C1182 C 0.61527 0.89435 0.12719 0.0
C1183 C 0.59226 0.87372 0.11149 0.0
C1184 C 0.57242 0.84764 0.15657 0.0
C1185 C 0.59801 0.86564 0.1718 0.0
N1186 N 0.64435 0.90535 0.17241 0.0
N1187 N 0.54964 0.82999 0.11039 0.0
C1188 C 0.61953 0.88892 0.15728 0.0
C1189 C 0.57067 0.85046 0.12604 0.0
N1190 N 0.63249 0.91954 0.11306 0.0
N1191 N 0.54978 0.82796 0.17145 0.0
H1192 H 0.54687 0.83273 0.08828 0.0
H1193 H 0.5361 0.80954 0.1189 0.0
H1194 H 0.55142 0.8242 0.19357 0.0
H1195 H 0.52832 0.81685 0.16233 0.0
H1196 H 0.64796 0.93741 0.12312 0.0
H1197 H 0.62902 0.92422 0.09117 0.0
H1198 H 0.6632 0.92031 0.16303 0.0
H1199 H 0.64708 0.90255 0.19458 0.0
C1200 C 0.57272 0.66848 0.62346 0.0
C1201 C 0.5818 0.63564 0.61331 0.0
C1202 C 0.59356 0.61708 0.66265 0.0
C1203 C 0.58244 0.64927 0.67301 0.0
N1204 N 0.55508 0.70331 0.66386 0.0
N1205 N 0.59556 0.57708 0.62278 0.0
C1206 C 0.57017 0.67437 0.65355 0.0
C1207 C 0.59046 0.60939 0.63288 0.0
N1208 N 0.56797 0.69439 0.60426 0.0
N1209 N 0.60859 0.59456 0.68116 0.0
H1210 H 0.59345 0.5711 0.601 0.0
H1211 H 0.59896 0.5559 0.636 0.0
H1212 H 0.61224 0.60006 0.70286 0.0
H1213 H 0.62008 0.57187 0.67466 0.0
H1214 H 0.56488 0.71982 0.6102 0.0
H1215 H 0.56962 0.69065 0.58214 0.0
H1216 H 0.54244 0.7209 0.65088 0.0
H1217 H 0.55268 0.70834 0.68572 0.0
C1218 C 0.59043 0.37952 0.87467 0.0
C1219 C 0.61051 0.35639 0.8911 0.0
C1220 C 0.6301 0.33052 0.84609 0.0
C1221 C 0.61325 0.35646 0.83005 0.0
N1222 N 0.59142 0.41419 0.83197 0.0
N1223 N 0.65989 0.31929 0.89051 0.0
C1224 C 0.59844 0.38405 0.84535 0.0
C1225 C 0.63401 0.33508 0.87618 0.0
N1226 N 0.56154 0.39421 0.88536 0.0
N1227 N 0.63979 0.30048 0.83375 0.0
H1228 H 0.66487 0.32417 0.91213 0.0
H1229 H 0.67852 0.30496 0.87994 0.0
H1230 H 0.63327 0.29369 0.81289 0.0
H1231 H 0.65024 0.28048 0.84569 0.0
H1232 H 0.54611 0.4101 0.87288 0.0
H1233 H 0.54996 0.38617 0.9043 0.0
H1234 H 0.58168 0.4352 0.84309 0.0
H1235 H 0.59929 0.41907 0.81093 0.0
C1236 C 0.87034 0.41598 0.14871 0.0
C1237 C 0.89495 0.39799 0.16506 0.0
C1238 C 0.91856 0.37367 0.12073 0.0
C1239 C 0.8958 0.39395 0.10426 0.0
N1240 N 0.85634 0.44102 0.10261 0.0
N1241 N 0.94767 0.36664 0.16616 0.0
C1242 C 0.87359 0.41717 0.11833 0.0
C1243 C 0.92061 0.37881 0.15091 0.0
N1244 N 0.84305 0.43069 0.16211 0.0
N1245 N 0.93707 0.34847 0.10786 0.0
H1246 H 0.95061 0.37178 0.18792 0.0
H1247 H 0.96875 0.35496 0.15669 0.0
H1248 H 0.93561 0.34351 0.08598 0.0
H1249 H 0.95139 0.3306 0.11927 0.0
H1250 H 0.82265 0.44146 0.151 0.0
H1251 H 0.83915 0.42895 0.18423 0.0
H1252 H 0.84194 0.46049 0.1119 0.0
H1253 H 0.85958 0.44353 0.08046 0.0
C1254 C 0.8767 0.62492 0.3408 0.0
C1255 C 0.89752 0.64892 0.32627 0.0
C1256 C 0.92568 0.66248 0.37166 0.0
C1257 C 0.90761 0.63579 0.38552 0.0
N1258 N 0.87096 0.58701 0.38169 0.0
N1259 N 0.94742 0.68458 0.32667 0.0
C1260 C 0.88466 0.61555 0.36951 0.0
C1261 C 0.92369 0.66601 0.34134 0.0
N1262 N 0.84848 0.61219 0.32752 0.0
N1263 N 0.94312 0.6857 0.38753 0.0
H1264 H 0.9476 0.68643 0.30434 0.0
H1265 H 0.96883 0.6951 0.33645 0.0
H1266 H 0.94334 0.68473 0.40977 0.0
H1267 H 0.95393 0.70766 0.3788 0.0
H1268 H 0.83066 0.59686 0.33793 0.0
H1269 H 0.84102 0.61997 0.30703 0.0
H1270 H 0.85631 0.56953 0.37028 0.0
H1271 H 0.87723 0.5791 0.40244 0.0
C1272 C 0.35967 0.39298 0.39084 0.0
C1273 C 0.38094 0.36969 0.40558 0.0
C1274 C 0.39745 0.34291 0.35999 0.0
C1275 C 0.37607 0.36643 0.34504 0.0
N1276 N 0.33142 0.4085 0.34634 0.0
N1277 N 0.42364 0.32582 0.4051 0.0
C1278 C 0.35589 0.39024 0.36054 0.0
C1279 C 0.40085 0.34559 0.39037 0.0
N1280 N 0.34387 0.41831 0.40603 0.0
N1281 N 0.41337 0.31713 0.34545 0.0
H1282 H 0.4261 0.32688 0.42733 0.0
H1283 H 0.44191 0.3103 0.39548 0.0
H1284 H 0.41244 0.31434 0.32332 0.0
H1285 H 0.42592 0.29684 0.35527 0.0
H1286 H 0.33039 0.43832 0.39666 0.0
H1287 H 0.34671 0.42084 0.42822 0.0
H1288 H 0.31368 0.42422 0.35643 0.0
H1289 H 0.32667 0.40543 0.32446 0.0
C1290 C 0.42305 0.67386 0.09603 0.0
C1291 C 0.41188 0.64527 0.08009 0.0
C1292 C 0.39029 0.61866 0.12413 0.0
C1293 C 0.40461 0.64546 0.14058 0.0
N1294 N 0.43461 0.69891 0.14263 0.0
N1295 N 0.38681 0.58957 0.07815 0.0
C1296 C 0.42074 0.67338 0.12661 0.0
C1297 C 0.39606 0.61737 0.09397 0.0
N1298 N 0.43526 0.70168 0.08164 0.0
N1299 N 0.36991 0.59528 0.13748 0.0
H1300 H 0.38988 0.58852 0.0559 0.0
H1301 H 0.37826 0.56679 0.0871 0.0
H1302 H 0.36404 0.59679 0.15932 0.0
H1303 H 0.35626 0.57653 0.1267 0.0
H1304 H 0.44076 0.72493 0.09133 0.0
H1305 H 0.43829 0.70202 0.05937 0.0
H1306 H 0.45057 0.71769 0.13439 0.0
H1307 H 0.43077 0.70088 0.16464 0.0
C1308 C 0.12149 0.67592 0.89167 0.0
C1309 C 0.13384 0.64428 0.90187 0.0
C1310 C 0.1556 0.63132 0.85394 0.0
C1311 C 0.13714 0.65942 0.84258 0.0
N1312 N 0.0996 0.7075 0.85122 0.0
N1313 N 0.16042 0.59007 0.89251 0.0
C1314 C 0.11956 0.6818 0.8616 0.0
C1315 C 0.15048 0.62149 0.88294 0.0
N1316 N 0.11278 0.70079 0.91081 0.0
N1317 N 0.17858 0.61458 0.83697 0.0
H1318 H 0.15636 0.582 0.91361 0.0
H1319 H 0.16984 0.5711 0.87897 0.0
H1320 H 0.18401 0.62258 0.81606 0.0
H1321 H 0.19478 0.59552 0.84461 0.0
H1322 H 0.1071 0.72575 0.90466 0.0
H1323 H 0.11456 0.69717 0.93296 0.0
H1324 H 0.08324 0.72181 0.86415 0.0
H1325 H 0.09752 0.71303 0.82953 0.0
C1326 C 0.13536 0.37644 0.65095 0.0
C1327 C 0.12674 0.34309 0.66028 0.0
C1328 C 0.12937 0.32345 0.61024 0.0
C1329 C 0.13309 0.35766 0.60082 0.0
N1330 N 0.13379 0.41753 0.61205 0.0
N1331 N 0.11048 0.28562 0.64832 0.0
C1332 C 0.13448 0.38442 0.62118 0.0
C1333 C 0.1225 0.31666 0.63979 0.0
N1334 N 0.14552 0.40016 0.67058 0.0
N1335 N 0.1337 0.29746 0.59111 0.0
H1336 H 0.10452 0.28011 0.66966 0.0
H1337 H 0.1037 0.26646 0.63393 0.0
H1338 H 0.13932 0.3018 0.5695 0.0
H1339 H 0.13456 0.27186 0.59716 0.0
H1340 H 0.15491 0.42407 0.66487 0.0
H1341 H 0.14812 0.39446 0.69237 0.0
H1342 H 0.13157 0.43819 0.62601 0.0
H1343 H 0.13197 0.42413 0.59039 0.0
C1344 C 0.9966 0.29933 0.23853 0.0
C1345 C 0.97878 0.31144 0.26315 0.0
C1346 C 0.02323 0.28566 0.29369 0.0
C1347 C 0.04191 0.27582 0.26884 0.0
N1348 N 0.0512 0.28389 0.2181 0.0
N1349 N 0.98039 0.32298 0.31426 0.0
C1350 C 0.03025 0.28628 0.24144 0.0
C1351 C 0.99351 0.30655 0.29085 0.0
N1352 N 0.98079 0.29871 0.21238 0.0
N1353 N 0.03377 0.27464 0.32008 0.0
H1354 H 0.95917 0.33883 0.31331 0.0
H1355 H 0.99237 0.32326 0.33422 0.0
H1356 H 0.05672 0.26156 0.32307 0.0
H1357 H 0.01906 0.27713 0.33863 0.0
H1358 H 0.99155 0.28732 0.19428 0.0
H1359 H 0.95538 0.30587 0.20958 0.0
H1360 H 0.04473 0.29363 0.19798 0.0
H1361 H 0.07651 0.27606 0.21964 0.0
C1362 C 0.01122 0.72893 0.45442 0.0
C1363 C 0.00612 0.70582 0.47768 0.0
C1364 C 0.01616 0.75183 0.51154 0.0
C1365 C 0.0235 0.77504 0.48885 0.0
N1366 N 0.03153 0.78424 0.4379 0.0
N1367 N 0.02163 0.69333 0.52653 0.0
C1368 C 0.02195 0.76328 0.45992 0.0
C1369 C 0.01412 0.71656 0.50571 0.0
N1370 N 0.00638 0.71748 0.42704 0.0
N1371 N 0.00994 0.76348 0.53871 0.0
H1372 H 0.0258 0.66771 0.52165 0.0
H1373 H 0.02939 0.70042 0.5471 0.0
H1374 H 0.00819 0.78944 0.54355 0.0
H1375 H 1.0023 0.74737 0.55537 0.0
H1376 H 0.00526 0.73321 0.40905 0.0
H1377 H 1.00305 0.69159 0.42259 0.0
H1378 H 0.0334 0.77648 0.4166 0.0
H1379 H 0.03958 0.80925 0.44086 0.0
C1380 C 0.49317 0.82497 0.75357 0.0
C1381 C 0.46169 0.81353 0.74147 0.0
C1382 C 0.48937 0.75931 0.72864 0.0
C1383 C 0.52064 0.77105 0.74057 0.0
N1384 N 0.55457 0.81938 0.75483 0.0
N1385 N 0.43327 0.77372 0.71022 0.0
C1386 C 0.52334 0.80535 0.74964 0.0
C1387 C 0.46081 0.78184 0.72678 0.0
N1388 N 0.49427 0.8534 0.77055 0.0
N1389 N 0.48674 0.72622 0.71971 0.0
H1390 H 0.41232 0.78989 0.70778 0.0
H1391 H 0.43258 0.75257 0.69671 0.0
H1392 H 0.50762 0.7097 0.71892 0.0
H1393 H 0.4637 0.71475 0.71439 0.0
H1394 H 0.51539 0.85987 0.78292 0.0
H1395 H 0.47344 0.86892 0.77483 0.0
H1396 H 0.55805 0.84528 0.7589 0.0
H1397 H 0.57739 0.80642 0.75151 0.0
C1398 C 0.45687 0.25296 0.99651 0.0
C1399 C 0.4621 0.22785 0.97496 0.0
C1400 C 0.49736 0.26938 0.94851 0.0
C1401 C 0.48884 0.29482 0.96908 0.0
N1402 N 0.45094 0.31299 0.00644 0.0
N1403 N 0.48387 0.21376 0.92799 0.0
C1404 C 0.46491 0.28726 0.99064 0.0
C1405 C 0.48131 0.23649 0.95006 0.0
N1406 N 0.44639 0.24384 0.02344 0.0
N1407 N 0.52144 0.27637 0.92822 0.0
H1408 H 0.47312 0.18947 0.92898 0.0
H1409 H 0.49482 0.21978 0.90823 0.0
H1410 H 0.53185 0.30072 0.92598 0.0
H1411 H 0.53165 0.25798 0.91452 0.0
H1412 H 0.44515 0.26109 0.04046 0.0
H1413 H 0.44341 0.21846 0.02966 0.0
H1414 H 0.43157 0.30881 0.02137 0.0
H1415 H 0.45609 0.33852 0.00183 0.0
C1416 C 0.01793 0.72142 0.23522 0.0
C1417 C 0.9874 0.73262 0.24915 0.0
C1418 C 0.02226 0.77027 0.27966 0.0
C1419 C 0.05249 0.75969 0.26481 0.0
N1420 N 0.07866 0.71256 0.23979 0.0
N1421 N 0.96205 0.76112 0.28977 0.0
C1422 C 0.0503 0.73143 0.24601 0.0
C1423 C 0.98997 0.75533 0.27281 0.0
N1424 N 0.01633 0.70186 0.211 0.0
N1425 N 0.02452 0.79413 0.30093 0.0
H1426 H 0.93822 0.75055 0.2857 0.0
H1427 H 0.96285 0.77416 0.30922 0.0
H1428 H 0.04767 0.80096 0.31017 0.0
H1429 H 1.00365 0.8072 0.30935 0.0
H1430 H 0.03758 0.69644 0.19832 0.0
H1431 H 0.99358 0.69384 0.20194 0.0
H1432 H 0.07793 0.69021 0.22769 0.0
H1433 H 0.10167 0.71584 0.25052 0.0
C1434 C 0.49554 0.72318 0.53751 0.0
C1435 C 0.50735 0.70677 0.51217 0.0
C1436 C 0.49996 0.76044 0.48585 0.0
C1437 C 0.4841 0.7759 0.50991 0.0
N1438 N 0.4632 0.76981 0.55842 0.0
N1439 N 0.50747 0.70742 0.46039 0.0
C1440 C 0.48084 0.75653 0.53572 0.0
C1441 C 0.50543 0.72462 0.48574 0.0
N1442 N 0.49842 0.70684 0.56333 0.0
N1443 N 0.51092 0.77979 0.46337 0.0
H1444 H 0.50817 0.68089 0.45965 0.0
H1445 H 0.50392 0.71926 0.44053 0.0
H1446 H 0.51082 0.80631 0.46421 0.0
H1447 H 0.52441 0.7696 0.44605 0.0
H1448 H 0.49437 0.71883 0.58301 0.0
H1449 H 0.5063 0.68144 0.56499 0.0
H1450 H 0.45648 0.7557 0.57653 0.0
H1451 H 0.45372 0.79465 0.55836 0.0
C1452 C 0.49531 0.23176 0.75097 0.0
C1453 C 0.47308 0.22541 0.72736 0.0
C1454 C 0.51358 0.25521 0.6955 0.0
C1455 C 0.53433 0.26392 0.71932 0.0
N1456 N 0.54317 0.26369 0.77041 0.0
N1457 N 0.4581 0.23723 0.67826 0.0
C1458 C 0.52476 0.25287 0.74726 0.0
C1459 C 0.48137 0.23902 0.69994 0.0
N1460 N 0.4883 0.21728 0.77705 0.0
N1461 N 0.52517 0.26196 0.66841 0.0
H1462 H 0.43383 0.22731 0.68137 0.0
H1463 H 0.46124 0.24902 0.65838 0.0
H1464 H 0.54913 0.27257 0.6647 0.0
H1465 H 0.51299 0.25377 0.64981 0.0
H1466 H 0.50533 0.21704 0.79417 0.0
H1467 H 0.46567 0.20424 0.78122 0.0
H1468 H 0.5354 0.26043 0.79163 0.0
H1469 H 0.56576 0.27747 0.7683 0.0
C1470 C 0.98942 0.23496 0.02048 0.0
C1471 C 0.97824 0.21909 0.99473 0.0
C1472 C 0.95831 0.27481 0.97674 0.0
C1473 C 0.96738 0.29087 0.00313 0.0
N1474 N 0.99235 0.28588 0.05029 0.0
N1475 N 0.9431 0.22232 0.9527 0.0
C1476 C 0.98303 0.27065 0.02508 0.0
C1477 C 0.95983 0.23865 0.97439 0.0
N1478 N 0.00713 0.21615 0.04012 0.0
N1479 N 0.94967 0.29356 0.95313 0.0
H1480 H 0.94331 0.19586 0.9507 0.0
H1481 H 0.92601 0.23452 0.93894 0.0
H1482 H 0.94832 0.31991 0.9526 0.0
H1483 H 0.94754 0.28284 0.93275 0.0
H1484 H 0.02013 0.22633 0.05757 0.0
H1485 H 0.00926 0.18979 0.03861 0.0
H1486 H 0.99942 0.27261 0.06872 0.0
H1487 H 0.99261 0.31232 0.05293 0.0
C1488 C 0.97661 0.74793 0.74189 0.0
C1489 C 0.96419 0.76919 0.76428 0.0
C1490 C 0.02145 0.7667 0.78644 0.0
C1491 C 0.03448 0.74982 0.76183 0.0
N1492 N 0.02517 0.73582 0.71178 0.0
N1493 N 0.97792 0.80344 0.80619 0.0
C1494 C 0.01238 0.74397 0.73817 0.0
C1495 C 0.98751 0.7798 0.78616 0.0
N1496 N 0.9547 0.73091 0.72432 0.0
N1497 N 0.04166 0.77072 0.81008 0.0
H1498 H 0.95347 0.81352 0.8076 0.0
H1499 H 0.99499 0.81504 0.82022 0.0
H1500 H 0.0676 0.7648 0.81006 0.0
H1501 H 0.03228 0.77847 0.83 0.0
H1502 H 0.96298 0.71352 0.70885 0.0
H1503 H 0.92859 0.73008 0.728 0.0
H1504 H 0.0099 0.7338 0.69355 0.0
H1505 H 0.05111 0.73571 0.70722 0.0
C1506 C 0.04338 0.27069 0.47813 0.0
C1507 C 0.05681 0.28251 0.50458 0.0
C1508 C 0.04199 0.22696 0.52628 0.0
C1509 C 0.03202 0.21444 0.49891 0.0
N1510 N 0.03524 0.22129 0.44779 0.0
N1511 N 0.06887 0.27154 0.55443 0.0
C1512 C 0.03662 0.23534 0.4745 0.0
C1513 C 0.05622 0.26034 0.52882 0.0
N1514 N 0.03514 0.29322 0.45694 0.0
N1515 N 0.03694 0.20699 0.54997 0.0
H1516 H 0.07546 0.29697 0.55778 0.0
H1517 H 0.07333 0.25577 0.57204 0.0
H1518 H 0.02959 0.18154 0.54831 0.0
H1519 H 0.03916 0.21565 0.57101 0.0
H1520 H 0.02322 0.28583 0.43795 0.0
H1521 H 0.03559 0.31947 0.46026 0.0
H1522 H 0.04034 0.23513 0.42912 0.0
H1523 H 0.03396 0.19493 0.44496 0.0
C1524 C 0.49323 0.30694 0.28955 0.0
C1525 C 0.46933 0.29227 0.26987 0.0
C1526 C 0.5165 0.26456 0.24523 0.0
C1527 C 0.53963 0.27455 0.26688 0.0
N1528 N 0.54903 0.30294 0.31194 0.0
N1529 N 0.45936 0.24456 0.23837 0.0
C1530 C 0.52758 0.29483 0.28993 0.0
C1531 C 0.4812 0.26712 0.2506 0.0
N1532 N 0.48366 0.33296 0.30734 0.0
N1533 N 0.52783 0.25386 0.21912 0.0
H1534 H 0.43474 0.24152 0.24633 0.0
H1535 H 0.46762 0.22522 0.2246 0.0
H1536 H 0.55336 0.25579 0.2133 0.0
H1537 H 0.51126 0.24794 0.20234 0.0
H1538 H 0.50092 0.34705 0.31945 0.0
H1539 H 0.45879 0.34195 0.30885 0.0
H1540 H 0.54073 0.31393 0.3311 0.0
H1541 H 0.57502 0.29727 0.31134 0.0
C1542 C 0.523 0.76274 0.01908 0.0
C1543 C 0.52244 0.78982 -0.0016 0.0
C1544 C 0.50098 0.749 0.96255 0.0
C1545 C 0.49896 0.72284 0.98355 0.0
N1546 N 0.5047 0.70564 0.03285 0.0
N1547 N 0.50113 0.8094 0.95253 0.0
C1548 C 0.50926 0.72992 0.01211 0.0
C1549 C 0.50849 0.78318 0.97078 0.0
N1550 N 0.53658 0.76853 0.04563 0.0
N1551 N 0.49652 0.74092 0.93431 0.0
H1552 H 0.50382 0.83473 0.95829 0.0
H1553 H 0.48807 0.80624 0.93325 0.0
H1554 H 0.4928 0.71592 0.92761 0.0
H1555 H 0.50083 0.75797 0.91751 0.0
H1556 H 0.54218 0.7493 0.06034 0.0
H1557 H 0.54327 0.79283 0.05262 0.0
H1558 H 0.50745 0.71023 0.05474 0.0
H1559 H 0.49651 0.68096 0.02817 0.0
C1560 C 0.99719 0.21848 0.7293 0.0
C1561 C 0.96885 0.2251 0.74816 0.0
C1562 C 0.00889 0.25178 0.78184 0.0
C1563 C 0.03626 0.24868 0.762 0.0
N1564 N 0.05487 0.23333 0.71454 0.0
N1565 N 0.94845 0.26057 0.78723 0.0
C1566 C 0.03003 0.23293 0.73515 0.0
C1567 C 0.97481 0.2454 0.77293 0.0
N1568 N 0.99284 0.19883 0.70539 0.0
N1569 N 0.01549 0.26107 0.8095 0.0
H1570 H 0.92382 0.26155 0.77914 0.0
H1571 H 0.95203 0.27716 0.80445 0.0
H1572 H 0.04026 0.26434 0.8169 0.0
H1573 H 0.99697 0.26112 0.82559 0.0
H1574 H 0.01305 0.18908 0.69337 0.0
H1575 H 0.96908 0.19132 0.69794 0.0
H1576 H 0.05064 0.22661 0.6932 0.0
H1577 H 0.0794 0.24237 0.71842 0.0
C1578 C 0.49815 0.28122 0.5139 0.0
C1579 C 0.46894 0.28104 0.49588 0.0
C1580 C 0.47707 0.21861 0.48877 0.0
C1581 C 0.50479 0.21874 0.50816 0.0
N1582 N 0.53557 0.24864 0.54484 0.0
N1583 N 0.43985 0.25141 0.45769 0.0
C1584 C 0.51339 0.24967 0.52235 0.0
C1585 C 0.46076 0.25008 0.48111 0.0
N1586 N 0.51362 0.31129 0.52081 0.0
N1587 N 0.46594 0.18823 0.478 0.0
H1588 H 0.43086 0.27433 0.44926 0.0
H1589 H 0.43509 0.23074 0.44428 0.0
H1590 H 0.47695 0.16499 0.48374 0.0
H1591 H 0.44373 0.18557 0.46602 0.0
H1592 H 0.5365 0.31261 0.53205 0.0
H1593 H 0.50727 0.33441 0.5112 0.0
H1594 H 0.54058 0.26946 0.55806 0.0
H1595 H 0.54529 0.22572 0.55253 0.0
C1596 C 0.49086 0.7359 0.27182 0.0
C1597 C 0.48162 0.72262 0.2447 0.0
C1598 C 0.53705 0.74305 0.22575 0.0
C1599 C 0.54763 0.75117 0.2541 0.0
N1600 N 0.53747 0.74255 0.30484 0.0
N1601 N 0.4993 0.70924 0.19617 0.0
C1602 C 0.5254 0.74358 0.27733 0.0
C1603 C 0.50579 0.72492 0.22173 0.0
N1604 N 0.46688 0.74202 0.29231 0.0
N1605 N 0.5559 0.75325 0.20264 0.0
H1606 H 0.47652 0.6967 0.19209 0.0
H1607 H 0.51742 0.70669 0.17992 0.0
H1608 H 0.57885 0.76629 0.20446 0.0
H1609 H 0.54731 0.75114 0.18155 0.0
H1610 H 0.47254 0.75352 0.31193 0.0
H1611 H 0.44109 0.7404 0.28783 0.0
H1612 H 0.52253 0.73475 0.32219 0.0
H1613 H 0.5633 0.74516 0.30963 0.0
C1614 C 0.03259 0.72808 0.96332 0.0
C1615 C 0.03569 0.70841 0.98897 0.0
C1616 C 0.02189 0.75919 0.01695 0.0
C1617 C 0.01479 0.77833 0.99178 0.0
N1618 N 0.01048 0.77942 0.94009 0.0
N1619 N 0.01677 0.70363 0.03791 0.0
C1620 C 0.0194 0.76239 0.96454 0.0
C1621 C 0.02552 0.72345 0.01514 0.0
N1622 N 0.04183 0.71364 0.93782 0.0
N1623 N 0.02551 0.77514 0.04283 0.0
H1624 H 0.01366 0.67755 0.03542 0.0
H1625 H 0.00732 0.71356 0.05713 0.0
H1626 H 0.0253 0.80166 0.0448 0.0
H1627 H 0.03282 0.76212 0.06141 0.0
H1628 H 0.04352 0.72712 0.91859 0.0
H1629 H 0.04864 0.68792 0.93629 0.0
H1630 H 0.00978 0.76809 0.91989 0.0
H1631 H 1.00221 0.80469 0.9402 0.0
C1632 C 0.18139 0.24054 0.37519 0.0
C1633 C 0.18619 0.25776 0.34867 0.0
C1634 C 0.19028 0.31233 0.37408 0.0
C1635 C 0.18586 0.29489 0.40059 0.0
N1636 N 0.1878 0.24226 0.42698 0.0
N1637 N 0.20373 0.30802 0.32328 0.0
C1638 C 0.18554 0.25881 0.40123 0.0
C1639 C 0.19355 0.29308 0.34831 0.0
N1640 N 0.16999 0.20764 0.37555 0.0
N1641 N 0.18911 0.34716 0.37323 0.0
H1642 H 0.20629 0.29415 0.30429 0.0
H1643 H 0.2125 0.33303 0.32202 0.0
H1644 H 0.18759 0.36217 0.39166 0.0
H1645 H 0.18787 0.3611 0.3542 0.0
H1646 H 0.16293 0.19497 0.39431 0.0
H1647 H 0.164 0.19417 0.35695 0.0
H1648 H 0.19032 0.21586 0.42878 0.0
H1649 H 0.19064 0.25548 0.44631 0.0
C1650 C 0.90748 0.85654 0.61297 0.0
C1651 C 0.9191 0.87554 0.6369 0.0
C1652 C 0.9608 0.90437 0.60648 0.0
C1653 C 0.95313 0.88113 0.58418 0.0
N1654 N 0.92132 0.8335 0.5661 0.0
N1655 N 0.95656 0.91751 0.6573 0.0
C1656 C 0.92667 0.85708 0.58721 0.0
C1657 C 0.94548 0.89983 0.63384 0.0
N1658 N 0.87833 0.83776 0.61507 0.0
N1659 N 0.98223 0.931 0.60114 0.0
H1660 H 0.94457 0.91578 0.67729 0.0
H1661 H 0.97832 0.93265 0.65729 0.0
H1662 H 0.9929 0.93513 0.58092 0.0
H1663 H 0.98696 0.9505 0.61576 0.0
H1664 H 0.86673 0.82633 0.59745 0.0
H1665 H 0.8639 0.83652 0.63387 0.0
H1666 H 0.90488 0.81285 0.56833 0.0
H1667 H 0.93546 0.83304 0.54711 0.0
C1668 C 0.35767 0.7002 0.85877 0.0
C1669 C 0.37312 0.70783 0.88553 0.0
C1670 C 0.37218 0.76867 0.87422 0.0
C1671 C 0.35492 0.76143 0.8483 0.0
N1672 N 0.32565 0.72174 0.81787 0.0
N1673 N 0.38676 0.74932 0.92197 0.0
C1674 C 0.34589 0.72753 0.84117 0.0
C1675 C 0.37746 0.74216 0.89434 0.0
N1676 N 0.35557 0.66713 0.84972 0.0
N1677 N 0.3853 0.80045 0.87882 0.0
H1678 H 0.39034 0.73034 0.93744 0.0
H1679 H 0.3875 0.77401 0.93023 0.0
H1680 H 0.38351 0.82008 0.86374 0.0
H1681 H 0.40108 0.80627 0.8961 0.0
H1682 H 0.34796 0.66023 0.82911 0.0
H1683 H 0.36339 0.64658 0.86238 0.0
H1684 H 0.3155 0.69794 0.81291 0.0
H1685 H 0.31684 0.74149 0.80475 0.0
C1686 C 0.52487 0.13416 0.11323 0.0
C1687 C 0.52204 0.16268 0.09461 0.0
C1688 C 0.55541 0.19748 0.12753 0.0
C1689 C 0.55735 0.16929 0.14678 0.0
N1690 N 0.54047 0.1124 0.16029 0.0
N1691 N 0.52926 0.22219 0.08503 0.0
C1692 C 0.54083 0.1381 0.1404 0.0
C1693 C 0.53568 0.1946 0.10216 0.0
N1694 N 0.51344 0.10307 0.10426 0.0
N1695 N 0.57321 0.22667 0.13309 0.0
H1696 H 0.51533 0.22039 0.06601 0.0
H1697 H 0.53535 0.24711 0.09064 0.0
H1698 H 0.58595 0.23112 0.15235 0.0
H1699 H 0.57713 0.24573 0.11785 0.0
H1700 H 0.51777 0.08035 0.11527 0.0
H1701 H 0.50126 0.09965 0.08462 0.0
H1702 H 0.52585 0.09042 0.15829 0.0
H1703 H 0.55333 0.11391 0.17984 0.0
C1704 C 0.15163 0.66389 0.13481 0.0
C1705 C 0.15461 0.67622 0.10625 0.0
C1706 C 0.16641 0.73334 0.12394 0.0
C1707 C 0.16588 0.72089 0.1525 0.0
N1708 N 0.16526 0.67317 0.18506 0.0
N1709 N 0.17383 0.71989 0.07366 0.0
C1710 C 0.16071 0.68571 0.15797 0.0
C1711 C 0.1654 0.71001 0.10092 0.0
N1712 N 0.13876 0.63209 0.13984 0.0
N1713 N 0.16538 0.76762 0.11884 0.0
H1714 H 0.17335 0.70304 0.0563 0.0
H1715 H 0.18453 0.74356 0.06894 0.0
H1716 H 0.16305 0.78544 0.13532 0.0
H1717 H 0.16269 0.77804 0.09837 0.0
H1718 H 0.13235 0.62331 0.16026 0.0
H1719 H 0.13262 0.61523 0.12332 0.0
H1720 H 0.16477 0.64721 0.18988 0.0
H1721 H 0.17254 0.68859 0.20223 0.0
C1722 C 0.57381 0.84486 0.36852 0.0
C1723 C 0.60123 0.86858 0.36892 0.0
C1724 C 0.57132 0.90204 0.4058 0.0
C1725 C 0.54479 0.87762 0.40583 0.0
N1726 N 0.52401 0.82231 0.39275 0.0
N1727 N 0.62888 0.91676 0.3907 0.0
C1728 C 0.54735 0.84775 0.38909 0.0
C1729 C 0.60092 0.89626 0.38856 0.0
N1730 N 0.57171 0.82104 0.34717 0.0
N1731 N 0.56739 0.93121 0.42147 0.0
H1732 H 0.65063 0.91309 0.37813 0.0
H1733 H 0.63154 0.93572 0.40617 0.0
H1734 H 0.54623 0.93533 0.43467 0.0
H1735 H 0.58398 0.95185 0.42038 0.0
H1736 H 0.55052 0.80557 0.34396 0.0
H1737 H 0.58969 0.81892 0.33083 0.0
H1738 H 0.52637 0.79828 0.38338 0.0
H1739 H 0.50387 0.82421 0.40731 0.0
C1740 C 0.33711 0.22041 0.60661 0.0
C1741 C 0.33143 0.22815 0.636 0.0
C1742 C 0.32896 0.289 0.62475 0.0
C1743 C 0.33517 0.28099 0.59551 0.0
N1744 N 0.33173 0.23985 0.55743 0.0
N1745 N 0.31034 0.26784 0.67119 0.0
C1746 C 0.33384 0.24678 0.5861 0.0
C1747 C 0.32329 0.26192 0.64443 0.0
N1748 N 0.34903 0.18908 0.5985 0.0
N1749 N 0.33077 0.32196 0.63407 0.0
H1750 H 0.30518 0.24803 0.68556 0.0
H1751 H 0.30154 0.29168 0.67784 0.0
H1752 H 0.33439 0.34251 0.62018 0.0
H1753 H 0.33044 0.32863 0.65573 0.0
H1754 H 0.35651 0.18351 0.57753 0.0
H1755 H 0.3552 0.16984 0.61302 0.0
H1756 H 0.32838 0.21526 0.54941 0.0
H1757 H 0.3298 0.25927 0.54212 0.0
C1758 C 0.90383 0.12176 0.91129 0.0
C1759 C 0.9244 0.09249 0.91414 0.0
C1760 C 0.90458 0.07139 0.8679 0.0
C1761 C 0.89379 0.10506 0.86145 0.0
N1762 N 0.87565 0.16043 0.87838 0.0
N1763 N 0.92358 0.03233 0.90533 0.0
C1764 C 0.89026 0.12948 0.88385 0.0
C1765 C 0.91754 0.06465 0.89577 0.0
N1766 N 0.89528 0.14012 0.93506 0.0
N1767 N 0.90498 0.04697 0.84703 0.0
H1768 H 0.93221 0.02795 0.92626 0.0
H1769 H 0.9172 0.01052 0.89377 0.0
H1770 H 0.89519 0.0513 0.82652 0.0
H1771 H 0.91607 0.02302 0.8498 0.0
H1772 H 0.87867 0.1609 0.93472 0.0
H1773 H 0.90141 0.13127 0.95559 0.0
H1774 H 0.87632 0.18072 0.8928 0.0
H1775 H 0.86375 0.16584 0.85886 0.0
C1776 C 0.87981 0.68832 0.64677 0.0
C1777 C 0.86116 0.71917 0.64422 0.0
C1778 C 0.85493 0.70945 0.5925 0.0
C1779 C 0.87739 0.68115 0.59432 0.0
N1780 N 0.91476 0.64572 0.62308 0.0
N1781 N 0.83676 0.76264 0.61391 0.0
C1782 C 0.89075 0.67098 0.62146 0.0
C1783 C 0.85025 0.73067 0.61684 0.0
N1784 N 0.88596 0.67495 0.67337 0.0
N1785 N 0.8376 0.71569 0.56758 0.0
H1786 H 0.83478 0.77965 0.63103 0.0
H1787 H 0.83102 0.77357 0.59408 0.0
H1788 H 0.83985 0.70009 0.54951 0.0
H1789 H 0.81846 0.73405 0.56583 0.0
H1790 H 0.89642 0.6508 0.67664 0.0
H1791 H 0.87774 0.68678 0.69221 0.0
H1792 H 0.92834 0.6402 0.64174 0.0
H1793 H 0.92307 0.63186 0.60532 0.0
C1794 C 0.99428 0.12334 0.35023 0.0
C1795 C 0.00713 0.10334 0.37316 0.0
C1796 C 0.05751 0.08847 0.34486 0.0
C1797 C 0.04518 0.10965 0.3225 0.0
N1798 N 0.99804 0.13796 0.29971 0.0
N1799 N 0.04591 0.06055 0.39052 0.0
C1800 C 0.01189 0.12342 0.32369 0.0
C1801 C 0.03715 0.08364 0.3698 0.0
N1802 N 0.96677 0.14418 0.35459 0.0
N1803 N 0.08943 0.07475 0.34269 0.0
H1804 H 0.0312 0.05689 0.40897 0.0
H1805 H 0.06611 0.04344 0.38852 0.0
H1806 H 0.10389 0.07697 0.32394 0.0
H1807 H 0.10178 0.06222 0.35945 0.0
H1808 H 0.95822 0.16193 0.33955 0.0
H1809 H 0.95425 0.14604 0.37429 0.0
H1810 H 0.97286 0.14629 0.29853 0.0
H1811 H 0.01095 0.13851 0.2801 0.0
C1812 C 0.62907 0.37964 0.12591 0.0
C1813 C 0.60453 0.36774 0.10603 0.0
C1814 C 0.58619 0.32405 0.14048 0.0
C1815 C 0.61542 0.33078 0.15695 0.0
N1816 N 0.6586 0.36977 0.17129 0.0
N1817 N 0.56022 0.3275 0.09373 0.0
C1818 C 0.63482 0.36047 0.15154 0.0
C1819 C 0.5826 0.34017 0.11343 0.0
N1820 N 0.64718 0.40848 0.11978 0.0
N1821 N 0.56222 0.30192 0.15055 0.0
H1822 H 0.55846 0.33685 0.07291 0.0
H1823 H 0.54565 0.30572 0.09702 0.0
H1824 H 0.56451 0.28975 0.17031 0.0
H1825 H 0.5386 0.29839 0.14084 0.0
H1826 H 0.6654 0.41904 0.13327 0.0
H1827 H 0.64311 0.42269 0.10112 0.0
H1828 H 0.6758 0.38968 0.16877 0.0
H1829 H 0.65958 0.35775 0.19127 0.0
C1830 C 0.50907 0.92034 0.87156 0.0
C1831 C 0.49756 0.92769 0.89975 0.0
C1832 C 0.43887 0.93168 0.88219 0.0
C1833 C 0.4509 0.92588 0.85381 0.0
N1834 N 0.49802 0.92574 0.82066 0.0
N1835 N 0.45334 0.94932 0.93066 0.0
C1836 C 0.48635 0.92446 0.84829 0.0
C1837 C 0.46295 0.93628 0.9047 0.0
N1838 N 0.5408 0.90684 0.8672 0.0
N1839 N 0.40477 0.93093 0.88798 0.0
H1840 H 0.47074 0.95366 0.94718 0.0
H1841 H 0.42898 0.95882 0.93472 0.0
H1842 H 0.38638 0.92804 0.87205 0.0
H1843 H 0.39493 0.93112 0.90878 0.0
H1844 H 0.54921 0.89818 0.84725 0.0
H1845 H 0.55719 0.9005 0.884 0.0
H1846 H 0.52383 0.9272 0.81548 0.0
H1847 H 0.4816 0.9289 0.80321 0.0
C1848 C 0.82994 0.27506 0.90635 0.0
C1849 C 0.85837 0.29722 0.90711 0.0
C1850 C 0.88615 0.26333 0.86957 0.0
C1851 C 0.85505 0.24629 0.86466 0.0
N1852 N 0.80861 0.22048 0.89036 0.0
N1853 N 0.91402 0.31302 0.88883 0.0
C1854 C 0.82992 0.24757 0.88658 0.0
C1855 C 0.88658 0.29167 0.88843 0.0
N1856 N 0.80252 0.28094 0.9238 0.0
N1857 N 0.91597 0.24885 0.86074 0.0
H1858 H 0.91652 0.33316 0.90327 0.0
H1859 H 0.93338 0.31182 0.87349 0.0
H1860 H 0.91689 0.22341 0.85418 0.0
H1861 H 0.93985 0.25906 0.86531 0.0
H1862 H 0.77967 0.26766 0.92198 0.0
H1863 H 0.80162 0.30109 0.93843 0.0
H1864 H 0.79171 0.21834 0.90754 0.0
H1865 H 0.81127 0.19815 0.87834 0.0
C1866 C 0.52801 0.08443 0.64018 0.0
C1867 C 0.51844 0.07539 0.61181 0.0
C1868 C 0.46173 0.05913 0.62877 0.0
C1869 C 0.47087 0.07035 0.65654 0.0
N1870 N 0.51482 0.08058 0.69105 0.0
N1871 N 0.48079 0.04425 0.58073 0.0
C1872 C 0.50516 0.07763 0.66302 0.0
C1873 C 0.48674 0.05925 0.60666 0.0
N1874 N 0.55719 0.10245 0.64499 0.0
N1875 N 0.42866 0.05067 0.62332 0.0
H1876 H 0.4991 0.0438 0.56448 0.0
H1877 H 0.45919 0.02981 0.5763 0.0
H1878 H 0.4105 0.04936 0.6397 0.0
H1879 H 0.41921 0.04611 0.60279 0.0
H1880 H 0.56364 0.11246 0.66497 0.0
H1881 H 0.57335 0.11044 0.62856 0.0
H1882 H 0.54005 0.08371 0.69742 0.0
H1883 H 0.49763 0.07639 0.70784 0.0
C1884 C 0.67153 0.72125 0.37997 0.0
C1885 C 0.65404 0.70902 0.35552 0.0
C1886 C 0.6381 0.65733 0.38159 0.0
C1887 C 0.65023 0.67226 0.40734 0.0
N1888 N 0.67976 0.7175 0.4316 0.0
N1889 N 0.61889 0.66698 0.33277 0.0
C1890 C 0.66781 0.70382 0.40659 0.0
C1891 C 0.63721 0.67723 0.35615 0.0
N1892 N 0.69207 0.74915 0.37743 0.0
N1893 N 0.62731 0.62425 0.38146 0.0
H1894 H 0.61741 0.68143 0.31397 0.0
H1895 H 0.60296 0.64578 0.33282 0.0
H1896 H 0.62695 0.60901 0.39979 0.0
H1897 H 0.62202 0.61089 0.36268 0.0
H1898 H 0.7079 0.75789 0.39374 0.0
H1899 H 0.69516 0.76211 0.35804 0.0
H1900 H 0.68917 0.74222 0.43334 0.0
H1901 H 0.67911 0.70412 0.451 0.0
C1902 C 0.0642 0.89962 0.14131 0.0
C1903 C 0.09355 0.87907 0.14523 0.0
C1904 C 0.09344 0.86348 0.0945 0.0
C1905 C 0.06432 0.88415 0.09047 0.0
N1906 N 0.02792 0.92929 0.10731 0.0
N1907 N 0.14186 0.84995 0.12447 0.0
C1908 C 0.05145 0.90455 0.11311 0.0
C1909 C 0.11019 0.86395 0.12137 0.0
N1910 N 0.04813 0.91354 0.16458 0.0
N1911 N 0.10388 0.84198 0.07313 0.0
H1912 H 0.1547 0.84933 0.14406 0.0
H1913 H 0.15668 0.84211 0.10709 0.0
H1914 H 0.0914 0.84036 0.05341 0.0
H1915 H 0.1229 0.82367 0.07586 0.0
H1916 H 0.02442 0.92547 0.16344 0.0
H1917 H 0.05801 0.91169 0.18534 0.0
H1918 H 0.0194 0.9469 0.12246 0.0
H1919 H 0.01947 0.93418 0.08649 0.0
C1920 C 0.63777 0.84541 0.85161 0.0
C1921 C 0.64222 0.80964 0.85114 0.0
C1922 C 0.67227 0.81278 0.89715 0.0
C1923 C 0.65917 0.846 0.90074 0.0
N1924 N 0.63835 0.8975 0.87824 0.0
N1925 N 0.66698 0.75887 0.87203 0.0
C1926 C 0.64611 0.86372 0.87667 0.0
C1927 C 0.66169 0.7933 0.87297 0.0
N1928 N 0.62312 0.86156 0.8288 0.0
N1929 N 0.69252 0.79952 0.91818 0.0
H1930 H 0.65934 0.74377 0.85486 0.0
H1931 H 0.67779 0.74493 0.88875 0.0
H1932 H 0.69906 0.81402 0.93617 0.0
H1933 H 0.70481 0.77601 0.9167 0.0
H1934 H 0.61835 0.8878 0.82867 0.0
H1935 H 0.61678 0.84852 0.80999 0.0
H1936 H 0.6434 0.91233 0.89636 0.0
H1937 H 0.6434 0.91233 0.89636 0.0
C1938 C 0.41533 0.36675 0.10994 0.0
C1939 C 0.43119 0.38421 0.13304 0.0
C1940 C 0.47131 0.41121 0.09997 0.0
C1941 C 0.45612 0.3929 0.07715 0.0
N1942 N 0.40909 0.36091 0.05841 0.0
N1943 N 0.47024 0.4265 0.15063 0.0
C1944 C 0.42658 0.3731 0.08154 0.0
C1945 C 0.45795 0.40769 0.1282 0.0
N1946 N 0.39064 0.34297 0.11531 0.0
N1947 N 0.49848 0.43183 0.09427 0.0
H1948 H 0.46067 0.4243 0.17148 0.0
H1949 H 0.4885 0.44553 0.14866 0.0
H1950 H 0.50679 0.43666 0.07338 0.0
H1951 H 0.51309 0.44386 0.10986 0.0
H1952 H 0.38126 0.32631 0.09985 0.0
H1953 H 0.38079 0.33826 0.13575 0.0
H1954 H 0.3855 0.34896 0.05985 0.0
H1955 H 0.41679 0.36549 0.03734 0.0
C1956 C 0.87871 0.26756 0.42292 0.0
C1957 C 0.88076 0.23219 0.41672 0.0
C1958 C 0.87123 0.24373 0.36553 0.0
C1959 C 0.8693 0.27908 0.37167 0.0
N1960 N 0.86733 0.32509 0.40573 0.0
N1961 N 0.87354 0.18557 0.38371 0.0
C1962 C 0.87165 0.29107 0.40033 0.0
C1963 C 0.87503 0.21998 0.38846 0.0
N1964 N 0.88509 0.27856 0.45025 0.0
N1965 N 0.87027 0.23313 0.3376 0.0
H1966 H 0.87646 0.16767 0.40013 0.0
H1967 H 0.8669 0.17458 0.36419 0.0
H1968 H 0.8671 0.25 0.32052 0.0
H1969 H 0.87474 0.20817 0.331 0.0
H1970 H 0.8881 0.30403 0.45594 0.0
H1971 H 0.88844 0.2617 0.46741 0.0
H1972 H 0.86521 0.33546 0.42621 0.0
H1973 H 0.86455 0.34313 0.3894 0.0
C1974 C 0.0094 0.64756 0.60776 0.0
C1975 C 0.99894 0.61342 0.60369 0.0
C1976 C 0.02592 0.59721 0.64897 0.0
C1977 C 0.04295 0.62901 0.64901 0.0
N1978 N 0.05086 0.68537 0.62862 0.0
N1979 N 0.978 0.56543 0.63038 0.0
C1980 C 0.03477 0.65448 0.6284 0.0
C1981 C 1.00153 0.59071 0.62727 0.0
N1982 N 0.9911 0.67366 0.59603 0.0
N1983 N 0.03371 0.57302 0.66909 0.0
H1984 H 0.95713 0.56356 0.61657 0.0
H1985 H 0.97659 0.54961 0.64834 0.0
H1986 H 0.05143 0.57715 0.68541 0.0
H1987 H 0.02453 0.54812 0.66825 0.0
H1988 H 0.99621 0.69931 0.6 0.0
H1989 H 0.96719 0.66954 0.58701 0.0
H1990 H 0.04807 0.70316 0.61211 0.0
H1991 H 0.06883 0.69221 0.64405 0.0
C1992 C 0.6539 0.27796 0.58879 0.0
C1993 C 0.66683 0.26799 0.61596 0.0
C1994 C 0.67815 0.21049 0.59793 0.0
C1995 C 0.66364 0.2202 0.57132 0.0
N1996 N 0.64905 0.26458 0.53806 0.0
N1997 N 0.69981 0.22877 0.64433 0.0
C1998 C 0.65612 0.25478 0.56556 0.0
C1999 C 0.68198 0.23547 0.6198 0.0
N2000 N 0.63693 0.30826 0.58583 0.0
N2001 N 0.68609 0.17703 0.60273 0.0
H2002 H 0.70298 0.247 0.66044 0.0
H2003 H 0.71369 0.20642 0.64763 0.0
H2004 H 0.68461 0.15875 0.58648 0.0
H2005 H 0.69299 0.16735 0.62274 0.0
H2006 H 0.62407 0.31534 0.56719 0.0
H2007 H 0.63285 0.32501 0.60288 0.0
H2008 H 0.64552 0.28993 0.53196 0.0
H2009 H 0.6501 0.2473 0.52101 0.0
C2010 C 0.01871 0.38356 0.84549 0.0
C2011 C 0.05343 0.38377 0.85382 0.0
C2012 C 0.03747 0.40554 0.90126 0.0
C2013 C 1.00281 0.40029 0.89425 0.0
N2014 N 0.95979 0.38191 0.86105 0.0
N2015 N 0.09664 0.39376 0.88949 0.0
C2016 C 0.9932 0.38904 0.86657 0.0
C2017 C 0.06313 0.39486 0.88161 0.0
N2018 N 0.01034 0.37779 0.81741 0.0
N2019 N 0.04555 0.42127 0.92651 0.0
H2020 H 0.11606 0.38725 0.87516 0.0
H2021 H 0.10501 0.39773 0.91043 0.0
H2022 H 0.02702 0.42937 0.94112 0.0
H2023 H 0.07016 0.42872 0.93192 0.0
H2024 H 0.98569 0.38013 0.80939 0.0
H2025 H 0.02866 0.37365 0.8015 0.0
H2026 H 0.95142 0.37012 0.84232 0.0
H2027 H 0.94055 0.38526 0.87627 0.0
C2028 C 0.87804 0.85152 0.15093 0.0
C2029 C 0.89338 0.8188 0.1499 0.0
C2030 C 0.9241 0.83417 0.10617 0.0
C2031 C 0.90887 0.8672 0.10702 0.0
N2032 N 0.87631 0.90966 0.13239 0.0
N2033 N 0.9365 0.78137 0.13121 0.0
C2034 C 0.88754 0.87673 0.13028 0.0
C2035 C 0.91852 0.81117 0.12916 0.0
N2036 N 0.85338 0.85769 0.17098 0.0
N2037 N 0.942 0.82385 0.08245 0.0
H2038 H 0.93198 0.76347 0.14729 0.0
H2039 H 0.95778 0.77576 0.11866 0.0
H2040 H 0.94644 0.8395 0.06478 0.0
H2041 H 0.95018 0.79887 0.0791 0.0
H2042 H 0.8384 0.87965 0.17139 0.0
H2043 H 0.84703 0.83976 0.1867 0.0
H2044 H 0.86283 0.91909 0.14995 0.0
H2045 H 0.88264 0.92828 0.11726 0.0
C2046 C 0.49509 0.58251 0.34531 0.0
C2047 C 0.45936 0.58615 0.34709 0.0
C2048 C 0.46252 0.57944 0.39939 0.0
C2049 C 0.49841 0.58252 0.39772 0.0
N2050 N 0.54846 0.59334 0.36914 0.0
N2051 N 0.40835 0.58988 0.37587 0.0
C2052 C 0.51469 0.58532 0.37063 0.0
C2053 C 0.44271 0.58462 0.37416 0.0
N2054 N 0.51019 0.57778 0.31915 0.0
N2055 N 0.44758 0.57095 0.4249 0.0
H2056 H 0.39305 0.59268 0.35772 0.0
H2057 H 0.39545 0.59317 0.39525 0.0
H2058 H 0.4617 0.56645 0.4435 0.0
H2059 H 0.42174 0.56543 0.42693 0.0
H2060 H 0.53605 0.57237 0.3167 0.0
H2061 H 0.496 0.57586 0.30026 0.0
H2062 H 0.56093 0.5987 0.3499 0.0
H2063 H 0.56294 0.59857 0.38733 0.0
C2064 C 0.37497 0.15662 0.14457 0.0
C2065 C 0.38561 0.16485 0.11621 0.0
C2066 C 0.39227 0.22483 0.13049 0.0
C2067 C 0.37686 0.21758 0.15714 0.0
N2068 N 0.35256 0.17746 0.19015 0.0
N2069 N 0.4 0.20839 0.0811 0.0
C2070 C 0.36832 0.18357 0.16453 0.0
C2071 C 0.39329 0.19937 0.10891 0.0
N2072 N 0.37091 0.12322 0.15223 0.0
N2073 N 0.40623 0.25629 0.12605 0.0
H2074 H 0.40182 0.19102 0.06428 0.0
H2075 H 0.40112 0.23367 0.07422 0.0
H2076 H 0.40609 0.27514 0.14188 0.0
H2077 H 0.4209 0.2624 0.1081 0.0
H2078 H 0.36619 0.11523 0.17319 0.0
H2079 H 0.37445 0.10317 0.13778 0.0
H2080 H 0.34211 0.15403 0.19588 0.0
H2081 H 0.34857 0.19672 0.20523 0.0
C2082 C 0.60586 0.58995 0.8819 0.0
C2083 C 0.59967 0.59238 0.85207 0.0
C2084 C 0.54 0.57971 0.85904 0.0
C2085 C 0.54493 0.58046 0.88929 0.0
N2086 N 0.58382 0.57393 0.92886 0.0
N2087 N 0.56671 0.57095 0.81271 0.0
C2088 C 0.57849 0.58119 0.90056 0.0
C2089 C 0.56893 0.57954 0.841 0.0
N2090 N 0.63702 0.59911 0.89215 0.0
N2091 N 0.50828 0.58313 0.84735 0.0
H2092 H 0.58801 0.57124 0.79928 0.0
H2093 H 0.54495 0.56002 0.80383 0.0
H2094 H 0.48649 0.58791 0.85946 0.0
H2095 H 0.50425 0.58553 0.82531 0.0
H2096 H 0.64247 0.60173 0.91393 0.0
H2097 H 0.65698 0.60513 0.87816 0.0
H2098 H 0.60799 0.57214 0.93797 0.0
H2099 H 0.56398 0.56659 0.94248 0.0
C2100 C 0.12934 0.86547 0.63729 0.0
C2101 C 0.10746 0.86009 0.61351 0.0
C2102 C 0.09211 0.80389 0.63257 0.0
C2103 C 0.1178 0.80698 0.65342 0.0
N2104 N 0.16204 0.83935 0.67599 0.0
N2105 N 0.0733 0.82091 0.58556 0.0
C2106 C 0.1365 0.83765 0.65618 0.0
C2107 C 0.08981 0.82859 0.61053 0.0
N2108 N 0.14336 0.89691 0.64152 0.0
N2109 N 0.07059 0.77659 0.6335 0.0
H2110 H 0.07293 0.83718 0.5679 0.0
H2111 H 0.06303 0.79698 0.58121 0.0
H2112 H 0.07228 0.75796 0.64948 0.0
H2113 H 0.04925 0.77435 0.62035 0.0
H2114 H 0.15744 0.90333 0.65966 0.0
H2115 H 0.13869 0.9174 0.62771 0.0
H2116 H 0.17916 0.85952 0.67733 0.0
H2117 H 0.16701 0.81942 0.69031 0.0
C2118 C 0.96422 0.38552 0.38315 0.0
C2119 C 0.95599 0.41846 0.37253 0.0
C2120 C 1.0027 0.44315 0.40006 0.0
C2121 C 0.01411 0.40966 0.40644 0.0
N2122 N 0.00883 0.34884 0.4014 0.0
N2123 N 0.96508 0.47901 0.37143 0.0
C2124 C 0.99534 0.38076 0.39781 0.0
C2125 C 0.97428 0.44758 0.38156 0.0
N2126 N 0.94289 0.35863 0.37828 0.0
N2127 N 0.01937 0.47039 0.41165 0.0
H2128 H 0.94328 0.48268 0.35896 0.0
H2129 H 0.9792 0.50111 0.37467 0.0
H2130 H 0.04009 0.46746 0.42547 0.0
H2131 H 0.01132 0.49558 0.40949 0.0
H2132 H 0.94603 0.33474 0.38776 0.0
H2133 H 0.92021 0.36098 0.36687 0.0
H2134 H 0.99811 0.32684 0.3928 0.0
H2135 H 0.03265 0.34461 0.41063 0.0
C2136 C 0.34708 0.77336 0.34701 0.0
C2137 C 0.35374 0.73828 0.35182 0.0
C2138 C 0.36248 0.7499 0.40272 0.0
C2139 C 0.3632 0.78532 0.39681 0.0
N2140 N 0.35861 0.83123 0.36226 0.0
N2141 N 0.37514 0.69427 0.3835 0.0
C2142 C 0.35565 0.79738 0.36872 0.0
C2143 C 0.36298 0.72664 0.37958 0.0
N2144 N 0.33234 0.78352 0.32187 0.0
N2145 N 0.36259 0.73864 0.4305 0.0
H2146 H 0.37938 0.67735 0.36662 0.0
H2147 H 0.385 0.68571 0.40301 0.0
H2148 H 0.36206 0.75543 0.44791 0.0
H2149 H 0.35958 0.71302 0.436 0.0
H2150 H 0.32424 0.80847 0.3181 0.0
H2151 H 0.32517 0.76618 0.306 0.0
H2152 H 0.35709 0.84067 0.34137 0.0
H2153 H 0.36486 0.84964 0.37748 0.0
C2154 C 0.93713 0.61738 0.10286 0.0
C2155 C 0.9494 0.62517 0.13076 0.0
C2156 C 0.00597 0.60486 0.11776 0.0
C2157 C 0.99335 0.59461 0.09062 0.0
N2158 N 0.9459 0.58441 0.05931 0.0
N2159 N 0.99205 0.61601 0.16735 0.0
C2160 C 0.95843 0.59856 0.08388 0.0
C2161 C 0.98264 0.61516 0.1391 0.0
N2162 N 0.90626 0.62954 0.0939 0.0
N2163 N 0.0402 0.6077 0.12247 0.0
H2164 H 0.97517 0.62283 0.18374 0.0
H2165 H 0.01532 0.60646 0.17461 0.0
H2166 H 0.05844 0.60375 0.10655 0.0
H2167 H 0.05027 0.61817 0.1412 0.0
H2168 H 0.89778 0.62753 0.07278 0.0
H2169 H 0.89021 0.64398 0.107 0.0
H2170 H 0.92004 0.58394 0.05433 0.0
H2171 H 0.96126 0.5704 0.04525 0.0
C2172 C 0.16629 0.15476 0.87663 0.0
C2173 C 0.154 0.16508 0.90391 0.0
C2174 C 0.15532 0.22473 0.8891 0.0
C2175 C 0.16708 0.21467 0.86158 0.0
N2176 N 0.19142 0.17173 0.83098 0.0
N2177 N 0.14883 0.20972 0.9392 0.0
C2178 C 0.17526 0.18008 0.85598 0.0
C2179 C 0.15333 0.20011 0.91126 0.0
N2180 N 0.16749 0.12082 0.8702 0.0
N2181 N 0.14322 0.25706 0.89339 0.0
H2182 H 0.14709 0.19211 0.95591 0.0
H2183 H 0.15062 0.23496 0.94604 0.0
H2184 H 0.14164 0.27519 0.87705 0.0
H2185 H 0.13118 0.26474 0.91228 0.0
H2186 H 0.17251 0.11137 0.84972 0.0
H2187 H 0.1623 0.10216 0.88563 0.0
H2188 H 0.20043 0.14731 0.82641 0.0
H2189 H 0.19807 0.19008 0.81571 0.0
C2190 C 0.57438 0.41671 0.60383 0.0
C2191 C 0.56658 0.42913 0.63148 0.0
C2192 C 0.51092 0.4463 0.61392 0.0
C2193 C 0.51409 0.4214 0.59191 0.0
N2194 N 0.55136 0.38319 0.56515 0.0
N2195 N 0.53078 0.46446 0.66082 0.0
C2196 C 0.54692 0.4077 0.58561 0.0
C2197 C 0.53634 0.44797 0.63547 0.0
N2198 N 0.60731 0.4087 0.5974 0.0
N2199 N 0.48296 0.46694 0.61461 0.0
H2200 H 0.54978 0.46656 0.67635 0.0
H2201 H 0.50743 0.47521 0.66654 0.0
H2202 H 0.46424 0.4655 0.59882 0.0
H2203 H 0.48005 0.48708 0.62901 0.0
H2204 H 0.61508 0.4006 0.57709 0.0
H2205 H 0.62684 0.41334 0.61212 0.0
H2206 H 0.5743 0.37018 0.56222 0.0
H2207 H 0.53175 0.37359 0.55266 0.0
C2208 C 0.24985 0.23637 0.22372 0.0
C2209 C 0.21735 0.25221 0.22521 0.0
C2210 C 0.2437 0.30142 0.24913 0.0
C2211 C 0.27567 0.28416 0.24944 0.0
N2212 N 0.30449 0.22958 0.24644 0.0
N2213 N 0.18706 0.30559 0.2285 0.0
C2214 C 0.27751 0.25001 0.23951 0.0
C2215 C 0.21515 0.28644 0.23503 0.0
N2216 N 0.25501 0.20957 0.20549 0.0
N2217 N 0.24048 0.3317 0.26345 0.0
H2218 H 0.16826 0.29695 0.2145 0.0
H2219 H 0.18468 0.33143 0.23324 0.0
H2220 H 0.26029 0.34183 0.27569 0.0
H2221 H 0.21747 0.34459 0.26612 0.0
H2222 H 0.279 0.19891 0.20178 0.0
H2223 H 0.23633 0.20156 0.19108 0.0
H2224 H 0.305 0.2036 0.24165 0.0
H2225 H 0.32334 0.23675 0.26089 0.0
C2226 C 0.00986 0.96888 0.47112 0.0
C2227 C 0.04541 0.96984 0.47545 0.0
C2228 C 0.03974 0.02851 0.4937 0.0
C2229 C 1.00357 0.02651 0.49138 0.0
N2230 N 0.95582 0.98731 0.48968 0.0
N2231 N 0.09415 0.00696 0.4769 0.0
C2232 C 0.98892 0.99471 0.48317 0.0
C2233 C 0.06049 1.00156 0.48267 0.0
N2234 N 0.99618 0.94418 0.45411 0.0
N2235 N 0.05436 0.05433 0.50897 0.0
H2236 H 0.10874 0.98949 0.46525 0.0
H2237 H 0.10592 0.03056 0.4795 0.0
H2238 H 0.04013 0.07136 0.52129 0.0
H2239 H 0.08039 0.05548 0.51323 0.0
H2240 H 0.97053 0.944 0.44827 0.0
H2241 H 0.01144 0.92649 0.44327 0.0
H2242 H 0.94505 0.9635 0.48558 0.0
H2243 H 0.94127 1.00224 0.50359 0.0
C2244 C 0.24062 0.76468 0.71754 0.0
C2245 C 0.22058 0.75858 0.7427 0.0
C2246 C 0.24869 0.80696 0.76635 0.0
C2247 C 0.27088 0.81099 0.7422 0.0
N2248 N 0.29006 0.79143 0.69584 0.0
N2249 N 0.21112 0.76939 0.79296 0.0
C2250 C 0.26753 0.78904 0.71821 0.0
C2251 C 0.226 0.77865 0.76754 0.0
N2252 N 0.23305 0.74848 0.69239 0.0
N2253 N 0.24897 0.83002 0.78835 0.0
H2254 H 0.19526 0.74826 0.79497 0.0
H2255 H 0.2173 0.78033 0.81265 0.0
H2256 H 0.26594 0.85019 0.78979 0.0
H2257 H 0.23038 0.83076 0.80433 0.0
H2258 H 0.24323 0.75544 0.67257 0.0
H2259 H 0.21464 0.72971 0.69065 0.0
H2260 H 0.29225 0.77304 0.6798 0.0
H2261 H 0.308 0.81089 0.69401 0.0
C2262 C 0.52004 1.00565 0.99266 0.0
C2263 C 0.51442 0.9808 0.01474 0.0
C2264 C 0.46151 0.01118 0.02795 0.0
C2265 C 0.46585 0.03416 0.00436 0.0
N2266 N 0.49488 0.04701 0.96014 0.0
N2267 N 0.47673 0.95738 0.0506 0.0
C2268 C 0.4939 0.02959 0.9856 0.0
C2269 C 0.48402 0.98263 0.03127 0.0
N2270 N 0.55047 0.0071 0.97841 0.0
N2271 N 0.43728 0.01759 0.04839 0.0
H2272 H 0.49357 0.9376 0.05547 0.0
H2273 H 0.45302 0.95484 0.06045 0.0
H2274 H 0.42035 0.03801 0.04746 0.0
H2275 H 0.43584 1.0044 0.06778 0.0
H2276 H 0.5572 0.02733 0.96503 0.0
H2277 H 0.57029 0.98992 0.98139 0.0
H2278 H 0.51248 0.0418 0.94394 0.0
H2279 H 0.47581 0.064 0.95379 0.0
C2280 C 0.29164 0.74392 0.22925 0.0
C2281 C 0.29315 0.71157 0.24281 0.0
C2282 C 0.24583 0.729 0.27499 0.0
C2283 C 0.24433 0.76131 0.26129 0.0
N2284 N 0.2725 0.80237 0.22993 0.0
N2285 N 0.26784 0.6714 0.27646 0.0
C2286 C 0.26918 0.76968 0.23987 0.0
C2287 C 0.26919 0.70354 0.26505 0.0
N2288 N 0.30984 0.74924 0.20453 0.0
N2289 N 0.22676 0.7237 0.29924 0.0
H2290 H 0.28556 0.65231 0.27251 0.0
H2291 H 0.24762 0.66256 0.28887 0.0
H2292 H 0.21051 0.74216 0.30786 0.0
H2293 H 0.22953 0.70269 0.31274 0.0
H2294 H 0.30646 0.7704 0.19127 0.0
H2295 H 0.32556 0.73073 0.19532 0.0
H2296 H 0.29346 0.81055 0.21805 0.0
H2297 H 0.25636 0.82245 0.23498 0.0
C2298 C 0.52632 1.00392 0.51729 0.0
C2299 C 0.52274 0.02825 0.49464 0.0
C2300 C 0.48005 0.99125 0.47218 0.0
C2301 C 0.48044 0.96923 0.49666 0.0
N2302 N 0.4997 0.95893 0.54503 0.0
N2303 N 0.4931 0.04681 0.45208 0.0
C2304 C 0.50252 0.97668 0.51986 0.0
C2305 C 0.49842 0.02257 0.47274 0.0
N2306 N 0.55256 0.00641 0.5364 0.0
N2307 N 0.464 0.98137 0.44752 0.0
H2308 H 0.50769 0.0689 0.45039 0.0
H2309 H 0.47271 0.04605 0.43779 0.0
H2310 H 0.45146 0.95821 0.44537 0.0
H2311 H 0.46622 0.99445 0.42812 0.0
H2312 H 0.55856 0.9873 0.55114 0.0
H2313 H 0.57018 0.0261 0.53611 0.0
H2314 H 0.51216 0.96597 0.56386 0.0
H2315 H 0.48229 0.93926 0.548 0.0
C2316 C 0.25656 0.2591 0.76728 0.0
C2317 C 0.22941 0.25433 0.74709 0.0
C2318 C 0.25864 0.20275 0.72902 0.0
C2319 C 0.28567 0.20739 0.74932 0.0
N2320 N 0.30624 0.23589 0.79157 0.0
N2321 N 0.20927 0.22636 0.70446 0.0
C2322 C 0.28369 0.23474 0.76918 0.0
C2323 C 0.23159 0.22721 0.72703 0.0
N2324 N 0.25724 0.28737 0.78446 0.0
N2325 N 0.25805 0.17448 0.71185 0.0
H2326 H 0.18972 0.24412 0.70171 0.0
H2327 H 0.212 0.21035 0.68678 0.0
H2328 H 0.27779 0.15697 0.71037 0.0
H2329 H 0.23674 0.16686 0.70024 0.0
H2330 H 0.27877 0.29525 0.79564 0.0
H2331 H 0.23734 0.30462 0.78648 0.0
H2332 H 0.30355 0.25191 0.80925 0.0
H2333 H 0.3261 0.21848 0.79417 0.0
C2334 C 0.97805 0.99626 0.00481 0.0
C2335 C 0.98757 0.97264 0.98274 0.0
C2336 C 0.03686 0.00914 0.97079 0.0
C2337 C 0.02827 0.0316 0.99386 0.0
N2338 N 0.99514 0.04259 0.03629 0.0
N2339 N 0.0277 0.95531 0.94624 0.0
C2340 C 0.99996 0.02413 0.01166 0.0
C2341 C 0.0176 0.97867 0.96638 0.0
N2342 N 0.94815 0.99238 0.01955 0.0
N2343 N 0.0622 0.01771 0.95191 0.0
H2344 H 0.0124 0.93514 0.93951 0.0
H2345 H 0.05187 0.95495 0.937 0.0
H2346 H 0.07745 0.03922 0.95396 0.0
H2347 H 0.06654 1.00509 0.93259 0.0
H2348 H 0.93758 0.01145 0.03237 0.0
H2349 H 0.93247 0.97119 0.01809 0.0
H2350 H 0.97767 0.03605 0.05221 0.0
H2351 H 0.01106 0.06259 0.04238 0.0
C2352 C 0.74103 0.77755 0.74849 0.0
C2353 C 0.76918 0.76515 0.76526 0.0
C2354 C 0.73682 0.71291 0.77526 0.0
C2355 C 0.70722 0.72787 0.76306 0.0
N2356 N 0.6861 0.76578 0.72655 0.0
N2357 N 0.79236 0.72162 0.79649 0.0
C2358 C 0.71058 0.75781 0.74633 0.0
C2359 C 0.76695 0.73262 0.77863 0.0
N2360 N 0.74306 0.80828 0.73461 0.0
N2361 N 0.73614 0.67921 0.78281 0.0
H2362 H 0.81422 0.73575 0.80074 0.0
H2363 H 0.79035 0.69993 0.80932 0.0
H2364 H 0.71479 0.66399 0.77911 0.0
H2365 H 0.75759 0.66559 0.78938 0.0
H2366 H 0.72188 0.82148 0.72695 0.0
H2367 H 0.76571 0.82133 0.73102 0.0
H2368 H 0.68788 0.7859 0.71204 0.0
H2369 H 0.66622 0.74934 0.72151 0.0
C2370 C 0.76494 0.32503 0.23291 0.0
C2371 C 0.7928 0.31395 0.24994 0.0
C2372 C 0.756 0.27087 0.27277 0.0
C2373 C 0.72841 0.28141 0.25534 0.0
N2374 N 0.70671 0.31737 0.21774 0.0
N2375 N 0.81686 0.26989 0.28045 0.0
C2376 C 0.73291 0.30834 0.23528 0.0
C2377 C 0.78902 0.28496 0.26821 0.0
N2378 N 0.76911 0.3521 0.21464 0.0
N2379 N 0.75022 0.24797 0.29441 0.0
H2380 H 0.84171 0.27794 0.27704 0.0
H2381 H 0.81578 0.24668 0.2913 0.0
H2382 H 0.72616 0.23767 0.29842 0.0
H2383 H 0.76813 0.24193 0.31012 0.0
H2384 H 0.74909 0.36499 0.20471 0.0
H2385 H 0.79302 0.36221 0.20974 0.0
H2386 H 0.71015 0.33052 0.19854 0.0
H2387 H 0.68165 0.31096 0.22237 0.0
C2388 C 0.77774 0.26714 0.71475 0.0
C2389 C 0.77619 0.23556 0.72961 0.0
C2390 C 0.72091 0.25315 0.75061 0.0
C2391 C 0.72082 0.28314 0.73364 0.0
N2392 N 0.74706 0.31487 0.69461 0.0
N2393 N 0.74128 0.19568 0.7571 0.0
C2394 C 0.74875 0.28925 0.7145 0.0
C2395 C 0.74623 0.22757 0.74593 0.0
N2396 N 0.80674 0.276 0.70025 0.0
N2397 N 0.69799 0.2498 0.7726 0.0
H2398 H 0.7591 0.17607 0.75662 0.0
H2399 H 0.71791 0.1878 0.76541 0.0
H2400 H 0.68001 0.26849 0.77767 0.0
H2401 H 0.69935 0.23037 0.78786 0.0
H2402 H 0.81136 0.30065 0.6928 0.0
H2403 H 0.82707 0.25931 0.69685 0.0
H2404 H 0.76426 0.31736 0.67768 0.0
H2405 H 0.72699 0.33199 0.69304 0.0
C2406 C 0.75939 0.801 0.27127 0.0
C2407 C 0.7363 0.79936 0.24761 0.0
C2408 C 0.77169 0.75456 0.22568 0.0
C2409 C 0.79511 0.75642 0.24915 0.0
N2410 N 0.81466 0.78609 0.29128 0.0
N2411 N 0.72505 0.78097 0.19939 0.0
C2412 C 0.79016 0.78136 0.27083 0.0
C2413 C 0.74387 0.77797 0.22399 0.0
N2414 N 0.75107 0.8196 0.29511 0.0
N2415 N 0.77558 0.73012 0.20499 0.0
H2416 H 0.70489 0.79822 0.19735 0.0
H2417 H 0.73138 0.76904 0.18012 0.0
H2418 H 0.79677 0.71427 0.20345 0.0
H2419 H 0.75684 0.72423 0.19 0.0
H2420 H 0.76416 0.81787 0.3145 0.0
H2421 H 0.7297 0.83523 0.29644 0.0
H2422 H 0.81469 0.80661 0.30547 0.0
H2423 H 0.83644 0.7709 0.29281 0.0
C2424 C 0.52956 0.53115 0.0087 0.0
C2425 C 0.49775 0.53333 0.99423 0.0
C2426 C 0.51568 0.48515 0.96364 0.0
C2427 C 0.54439 0.479 0.98123 0.0
N2428 N 0.57645 0.49535 0.02379 0.0
N2429 N 0.45829 0.50621 0.96092 0.0
C2430 C 0.55111 0.50201 0.00444 0.0
C2431 C 0.49007 0.50852 0.97269 0.0
N2432 N 0.53907 0.55648 0.02717 0.0
N2433 N 0.51322 0.46923 0.93761 0.0
H2434 H 0.43819 0.52254 0.96552 0.0
H2435 H 0.45101 0.48585 0.94792 0.0
H2436 H 0.53227 0.45309 0.92972 0.0
H2437 H 0.49451 0.4753 0.92255 0.0
H2438 H 0.56374 0.55874 0.03519 0.0
H2439 H 0.523 0.57647 0.0332 0.0
H2440 H 0.57886 0.50843 0.04315 0.0
H2441 H 0.59371 0.47537 0.02212 0.0
C2442 C 0.99378 0.48638 0.47604 0.0
C2443 C 1.00279 0.52149 0.47407 0.0
C2444 C 0.0595 0.5069 0.49337 0.0
C2445 C 0.05031 0.47192 0.49587 0.0
N2446 N 1.00358 0.43191 0.49907 0.0
N2447 N 0.0497 0.56074 0.46926 0.0
C2448 C 0.016 0.46257 0.48993 0.0
C2449 C 0.03719 0.53065 0.4796 0.0
N2450 N 0.96528 0.47507 0.46224 0.0
N2451 N 0.08912 0.51786 0.50561 0.0
H2452 H 0.036 0.57614 0.45509 0.0
H2453 H 0.07526 0.56761 0.47075 0.0
H2454 H 0.10481 0.50161 0.51752 0.0
H2455 H 0.09576 0.54353 0.5071 0.0
H2456 H 0.95908 0.44932 0.46037 0.0
H2457 H 0.95095 0.49084 0.44878 0.0
H2458 H 0.0172 0.41541 0.51228 0.0
H2459 H 0.97802 0.42515 0.49724 0.0
C2460 C 0.00639 0.5234 0.96791 0.0
C2461 C 0.03745 0.5213 0.98332 0.0
C2462 C 0.0124 0.47619 0.01412 0.0
C2463 C 0.98109 0.47891 -0.00089 0.0
N2464 N 0.94651 0.51031 0.96468 0.0
N2465 N 0.07223 0.48963 0.01754 0.0
C2466 C 0.97756 0.50395 0.97688 0.0
C2467 C 0.04119 0.4959 0.00529 0.0
N2468 N 0.00523 0.54225 0.94314 0.0
N2469 N 0.0138 0.45686 0.03863 0.0
H2470 H 0.09385 0.50428 0.01441 0.0
H2471 H 0.07745 0.46796 0.02974 0.0
H2472 H 0.99309 0.4431 0.04649 0.0
H2473 H 0.03408 0.45728 0.05301 0.0
H2474 H 0.98508 0.54153 0.92863 0.0
H2475 H 0.02611 0.55574 0.93521 0.0
H2476 H 0.9415 0.53157 0.95191 0.0
H2477 H 0.92462 0.49641 0.96876 0.0
C2478 C 0.48736 0.47366 0.4876 0.0
C2479 C 0.45897 0.4706 0.50617 0.0
C2480 C 0.47984 0.52017 0.53382 0.0
C2481 C 0.51027 0.52049 0.51725 0.0
N2482 N 0.54552 0.4917 0.48161 0.0
N2483 N 0.43228 0.48673 0.55117 0.0
C2484 C 0.51488 0.49544 0.49523 0.0
C2485 C 0.4561 0.4929 0.53033 0.0
N2486 N 0.48748 0.45689 0.46185 0.0
N2487 N 0.47401 0.54532 0.55357 0.0
H2488 H 0.41732 0.46486 0.55179 0.0
H2489 H 0.42995 0.50112 0.56984 0.0
H2490 H 0.49205 0.56374 0.55888 0.0
H2491 H 0.45049 0.54918 0.56346 0.0
H2492 H 0.50565 0.46122 0.44592 0.0
H2493 H 0.46737 0.44157 0.45503 0.0
H2494 H 0.55097 0.4713 0.468 0.0
H2495 H 0.56674 0.5066 0.48568 0.0
loop_
_geom_bond_atom_site_label_1
_geom_bond_atom_site_label_2
_geom_bond_distance
_geom_bond_site_symmetry_2
_ccdc_geom_bond_type
C0 C1 1.351 . S
C0 N3 1.368 . S
C0 H5 0.931 . S
C1 C0 1.351 . S
C1 N2 1.373 . S
C1 H29 0.930 . S
N2 C1 1.373 . S
N2 C4 1.340 . S
N3 C0 1.368 . S
N3 C4 1.321 . S
N3 Co6 2.135 . S
C4 N2 1.340 . S
C4 N3 1.321 . S
C4 H28 0.930 . S
H5 C0 0.931 . S
Co6 N3 2.135 . S
Co6 N9 2.121 . S
Co6 O14 2.055 . S
Co6 O17 2.039 . S
Co6 N20 2.140 . S
C7 O8 1.227 . S
C7 O17 1.265 . S
O8 C7 1.227 . S
N9 Co6 2.121 . S
N9 C11 1.375 . S
N9 C12 1.313 . S
C10 C11 1.338 . S
C10 N13 1.377 . S
C10 H30 0.930 . S
C11 N9 1.375 . S
C11 C10 1.338 . S
C11 H15 0.931 . S
C12 N9 1.313 . S
C12 N13 1.344 . S
C12 H16 0.930 . S
N13 C10 1.377 . S
N13 C12 1.344 . S
O14 Co6 2.055 . S
O14 C18 1.253 . S
H15 C11 0.931 . S
H16 C12 0.930 . S
O17 Co6 2.039 . S
O17 C7 1.265 . S
C18 O14 1.253 . S
C18 O19 1.227 . S
O19 C18 1.227 . S
N20 Co6 2.140 . S
N20 C23 1.346 . S
N20 C24 1.345 . S
C21 C22 1.387 . S
C21 C25 1.391 . S
C22 C21 1.387 . S
C22 C23 1.369 . S
C22 H31 0.929 . S
C23 N20 1.346 . S
C23 C22 1.369 . S
C23 H26 0.928 . S
C24 N20 1.345 . S
C24 C25 1.371 . S
C24 H27 0.931 . S
C25 C21 1.391 . S
C25 C24 1.371 . S
C25 H32 0.930 . S
H26 C23 0.928 . S
H27 C24 0.931 . S
H28 C4 0.930 . S
H29 C1 0.930 . S
H30 C10 0.930 . S
H31 C22 0.929 . S
H32 C25 0.930 . S
C33 C34 1.351 . S
C33 N36 1.368 . S
C33 H38 0.931 . S
C34 C33 1.351 . S
C34 N35 1.373 1_455 S
C34 H62 0.930 . S
N35 C34 1.373 1_655 S
N35 C37 1.340 . S
N36 C33 1.368 . S
N36 C37 1.321 1_455 S
N36 Co39 2.135 . S
C37 N35 1.340 . S
C37 N36 1.321 1_655 S
C37 H61 0.930 . S
H38 C33 0.931 . S
Co39 N36 2.135 . S
Co39 N42 2.121 . S
Co39 O47 2.055 . S
Co39 O50 2.039 . S
Co39 N53 2.140 . S
C40 O41 1.227 . S
C40 O50 1.265 . S
O41 C40 1.227 . S
N42 Co39 2.121 . S
N42 C44 1.375 . S
N42 C45 1.313 . S
C43 C44 1.338 . S
C43 N46 1.377 . S
C43 H63 0.930 . S
C44 N42 1.375 . S
C44 C43 1.338 . S
C44 H48 0.931 . S
C45 N42 1.313 . S
C45 N46 1.344 . S
C45 H49 0.930 . S
N46 C43 1.377 . S
N46 C45 1.344 . S
O47 Co39 2.055 . S
O47 C51 1.253 . S
H48 C44 0.931 . S
H49 C45 0.930 . S
O50 Co39 2.039 . S
O50 C40 1.265 . S
C51 O47 1.253 . S
C51 O52 1.227 . S
O52 C51 1.227 . S
N53 Co39 2.140 . S
N53 C56 1.346 . S
N53 C57 1.345 . S
C54 C55 1.387 . S
C54 C58 1.391 . S
C55 C54 1.387 . S
C55 C56 1.369 . S
C55 H64 0.929 . S
C56 N53 1.346 . S
C56 C55 1.369 . S
C56 H59 0.928 . S
C57 N53 1.345 . S
C57 C58 1.371 . S
C57 H60 0.931 . S
C58 C54 1.391 . S
C58 C57 1.371 . S
C58 H65 0.930 . S
H59 C56 0.928 . S
H60 C57 0.931 . S
H61 C37 0.930 . S
H62 C34 0.930 . S
H63 C43 0.930 . S
H64 C55 0.929 . S
H65 C58 0.930 . S
C66 C67 1.351 . S
C66 N69 1.368 . S
C66 H71 0.931 . S
C67 C66 1.351 . S
C67 N68 1.373 . S
C67 H95 0.930 . S
N68 C67 1.373 . S
N68 C70 1.340 . S
N69 C66 1.368 . S
N69 C70 1.321 . S
N69 Co72 2.135 . S
C70 N68 1.340 . S
C70 N69 1.321 . S
C70 H94 0.930 . S
H71 C66 0.931 . S
Co72 N69 2.135 . S
Co72 N75 2.121 . S
Co72 O80 2.055 . S
Co72 O83 2.039 . S
Co72 N86 2.140 . S
C73 O74 1.227 . S
C73 O83 1.265 . S
O74 C73 1.227 . S
N75 Co72 2.121 . S
N75 C77 1.375 . S
N75 C78 1.313 . S
C76 C77 1.338 . S
C76 N79 1.377 . S
C76 H96 0.930 . S
C77 N75 1.375 . S
C77 C76 1.338 . S
C77 H81 0.931 . S
C78 N75 1.313 . S
C78 N79 1.344 . S
C78 H82 0.930 . S
N79 C76 1.377 . S
N79 C78 1.344 . S
O80 Co72 2.055 . S
O80 C84 1.253 . S
H81 C77 0.931 . S
H82 C78 0.930 . S
O83 Co72 2.039 . S
O83 C73 1.265 . S
C84 O80 1.253 . S
C84 O85 1.227 . S
O85 C84 1.227 . S
N86 Co72 2.140 . S
N86 C89 1.346 . S
N86 C90 1.345 . S
C87 C88 1.387 . S
C87 C91 1.391 . S
C88 C87 1.387 . S
C88 C89 1.369 . S
C88 H97 0.929 . S
C89 N86 1.346 . S
C89 C88 1.369 . S
C89 H92 0.928 . S
C90 N86 1.345 . S
C90 C91 1.371 . S
C90 H93 0.931 . S
C91 C87 1.391 . S
C91 C90 1.371 . S
C91 H98 0.930 . S
H92 C89 0.928 . S
H93 C90 0.931 . S
H94 C70 0.930 . S
H95 C67 0.930 . S
H96 C76 0.930 . S
H97 C88 0.929 . S
H98 C91 0.930 . S
C99 C100 1.351 . S
C99 N102 1.368 . S
C99 H104 0.931 . S
C100 C99 1.351 . S
C100 N101 1.373 . S
C100 H128 0.930 . S
N101 C100 1.373 . S
N101 C103 1.340 . S
N102 C99 1.368 . S
N102 C103 1.321 . S
N102 Co105 2.135 . S
C103 N101 1.340 . S
C103 N102 1.321 . S
C103 H127 0.930 . S
H104 C99 0.931 . S
Co105 N102 2.135 . S
Co105 N108 2.121 1_554 S
Co105 O113 2.055 . S
Co105 O116 2.039 . S
Co105 N119 2.140 . S
C106 O107 1.227 . S
C106 O116 1.265 . S
O107 C106 1.227 . S
N108 Co105 2.121 1_556 S
N108 C110 1.375 . S
N108 C111 1.313 . S
C109 C110 1.338 . S
C109 N112 1.377 . S
C109 H129 0.930 . S
C110 N108 1.375 . S
C110 C109 1.338 . S
C110 H114 0.931 . S
C111 N108 1.313 . S
C111 N112 1.344 . S
C111 H115 0.930 . S
N112 C109 1.377 . S
N112 C111 1.344 . S
O113 Co105 2.055 . S
O113 C117 1.253 . S
H114 C110 0.931 . S
H115 C111 0.930 . S
O116 Co105 2.039 . S
O116 C106 1.265 . S
C117 O113 1.253 . S
C117 O118 1.227 . S
O118 C117 1.227 . S
N119 Co105 2.140 . S
N119 C122 1.346 . S
N119 C123 1.345 . S
C120 C121 1.387 . S
C120 C124 1.391 . S
C121 C120 1.387 . S
C121 C122 1.369 . S
C121 H130 0.929 . S
C122 N119 1.346 . S
C122 C121 1.369 . S
C122 H125 0.928 . S
C123 N119 1.345 . S
C123 C124 1.371 . S
C123 H126 0.931 . S
C124 C120 1.391 . S
C124 C123 1.371 . S
C124 H131 0.930 . S
H125 C122 0.928 . S
H126 C123 0.931 . S
H127 C103 0.930 . S
H128 C100 0.930 . S
H129 C109 0.930 . S
H130 C121 0.929 . S
H131 C124 0.930 . S
C132 C133 1.351 . S
C132 N135 1.368 . S
C132 H137 0.931 . S
C133 C132 1.351 . S
C133 N134 1.373 . S
C133 H161 0.930 . S
N134 C133 1.373 . S
N134 C136 1.340 . S
N135 C132 1.368 . S
N135 C136 1.321 . S
N135 Co138 2.135 . S
C136 N134 1.340 . S
C136 N135 1.321 . S
C136 H160 0.930 . S
H137 C132 0.931 . S
Co138 N135 2.135 . S
Co138 N141 2.121 . S
Co138 O146 2.055 . S
Co138 O149 2.039 . S
Co138 N152 2.140 . S
C139 O140 1.227 . S
C139 O149 1.265 . S
O140 C139 1.227 . S
N141 Co138 2.121 . S
N141 C143 1.375 . S
N141 C144 1.313 . S
C142 C143 1.338 . S
C142 N145 1.377 . S
C142 H162 0.930 . S
C143 N141 1.375 . S
C143 C142 1.338 . S
C143 H147 0.931 . S
C144 N141 1.313 . S
C144 N145 1.344 . S
C144 H148 0.930 . S
N145 C142 1.377 . S
N145 C144 1.344 . S
O146 Co138 2.055 . S
O146 C150 1.253 . S
H147 C143 0.931 . S
H148 C144 0.930 . S
O149 Co138 2.039 . S
O149 C139 1.265 . S
C150 O146 1.253 . S
C150 O151 1.227 . S
O151 C150 1.227 . S
N152 Co138 2.140 . S
N152 C155 1.346 . S
N152 C156 1.345 . S
C153 C154 1.387 . S
C153 C157 1.391 . S
C154 C153 1.387 . S
C154 C155 1.369 . S
C154 H163 0.929 . S
C155 N152 1.346 . S
C155 C154 1.369 . S
C155 H158 0.928 . S
C156 N152 1.345 . S
C156 C157 1.371 . S
C156 H159 0.931 . S
C157 C153 1.391 . S
C157 C156 1.371 . S
C157 H164 0.930 . S
H158 C155 0.928 . S
H159 C156 0.931 . S
H160 C136 0.930 . S
H161 C133 0.930 . S
H162 C142 0.930 . S
H163 C154 0.929 . S
H164 C157 0.930 . S
C165 C166 1.351 . S
C165 N168 1.368 . S
C165 H170 0.931 . S
C166 C165 1.351 . S
C166 N167 1.373 . S
C166 H194 0.930 . S
N167 C166 1.373 . S
N167 C169 1.340 . S
N168 C165 1.368 . S
N168 C169 1.321 . S
N168 Co171 2.135 . S
C169 N167 1.340 . S
C169 N168 1.321 . S
C169 H193 0.930 . S
H170 C165 0.931 . S
Co171 N168 2.135 . S
Co171 N174 2.121 . S
Co171 O179 2.055 . S
Co171 O182 2.039 . S
Co171 N185 2.140 . S
C172 O173 1.227 . S
C172 O182 1.265 . S
O173 C172 1.227 . S
N174 Co171 2.121 . S
N174 C176 1.375 . S
N174 C177 1.313 . S
C175 C176 1.338 . S
C175 N178 1.377 . S
C175 H195 0.930 . S
C176 N174 1.375 . S
C176 C175 1.338 . S
C176 H180 0.931 . S
C177 N174 1.313 . S
C177 N178 1.344 . S
C177 H181 0.930 . S
N178 C175 1.377 . S
N178 C177 1.344 . S
O179 Co171 2.055 . S
O179 C183 1.253 . S
H180 C176 0.931 . S
H181 C177 0.930 . S
O182 Co171 2.039 . S
O182 C172 1.265 . S
C183 O179 1.253 . S
C183 O184 1.227 . S
O184 C183 1.227 . S
N185 Co171 2.140 . S
N185 C188 1.346 . S
N185 C189 1.345 . S
C186 C187 1.387 . S
C186 C190 1.391 . S
C187 C186 1.387 . S
C187 C188 1.369 . S
C187 H196 0.929 . S
C188 N185 1.346 . S
C188 C187 1.369 . S
C188 H191 0.928 . S
C189 N185 1.345 . S
C189 C190 1.371 . S
C189 H192 0.931 . S
C190 C186 1.391 . S
C190 C189 1.371 . S
C190 H197 0.930 . S
H191 C188 0.928 . S
H192 C189 0.931 . S
H193 C169 0.930 . S
H194 C166 0.930 . S
H195 C175 0.930 . S
H196 C187 0.929 . S
H197 C190 0.930 . S
C198 C199 1.351 . S
C198 N201 1.368 . S
C198 H203 0.931 . S
C199 C198 1.351 . S
C199 N200 1.373 . S
C199 H227 0.930 . S
N200 C199 1.373 . S
N200 C202 1.340 . S
N201 C198 1.368 . S
N201 C202 1.321 . S
N201 Co204 2.135 . S
C202 N200 1.340 . S
C202 N201 1.321 . S
C202 H226 0.930 . S
H203 C198 0.931 . S
Co204 N201 2.135 . S
Co204 N207 2.121 . S
Co204 O212 2.055 . S
Co204 O215 2.039 . S
Co204 N218 2.140 . S
C205 O206 1.227 . S
C205 O215 1.265 . S
O206 C205 1.227 . S
N207 Co204 2.121 . S
N207 C209 1.375 . S
N207 C210 1.313 . S
C208 C209 1.338 . S
C208 N211 1.377 . S
C208 H228 0.930 . S
C209 N207 1.375 . S
C209 C208 1.338 . S
C209 H213 0.931 . S
C210 N207 1.313 . S
C210 N211 1.344 . S
C210 H214 0.930 . S
N211 C208 1.377 . S
N211 C210 1.344 . S
O212 Co204 2.055 . S
O212 C216 1.253 . S
H213 C209 0.931 . S
H214 C210 0.930 . S
O215 Co204 2.039 . S
O215 C205 1.265 . S
C216 O212 1.253 . S
C216 O217 1.227 . S
O217 C216 1.227 . S
N218 Co204 2.140 . S
N218 C221 1.346 . S
N218 C222 1.345 . S
C219 C220 1.387 . S
C219 C223 1.391 . S
C220 C219 1.387 . S
C220 C221 1.369 . S
C220 H229 0.929 . S
C221 N218 1.346 . S
C221 C220 1.369 . S
C221 H224 0.928 . S
C222 N218 1.345 . S
C222 C223 1.371 . S
C222 H225 0.931 . S
C223 C219 1.391 . S
C223 C222 1.371 . S
C223 H230 0.930 . S
H224 C221 0.928 . S
H225 C222 0.931 . S
H226 C202 0.930 . S
H227 C199 0.930 . S
H228 C208 0.930 . S
H229 C220 0.929 . S
H230 C223 0.930 . S
C231 C232 1.351 . S
C231 N234 1.368 . S
C231 H236 0.931 . S
C232 C231 1.351 . S
C232 N233 1.373 1_455 S
C232 H260 0.930 . S
N233 C232 1.373 1_655 S
N233 C235 1.340 . S
N234 C231 1.368 . S
N234 C235 1.321 1_455 S
N234 Co237 2.135 . S
C235 N233 1.340 . S
C235 N234 1.321 1_655 S
C235 H259 0.930 . S
H236 C231 0.931 . S
Co237 N234 2.135 . S
Co237 N240 2.121 1_556 S
Co237 O245 2.055 . S
Co237 O248 2.039 . S
Co237 N251 2.140 . S
C238 O239 1.227 . S
C238 O248 1.265 . S
O239 C238 1.227 . S
N240 Co237 2.121 1_554 S
N240 C242 1.375 . S
N240 C243 1.313 . S
C241 C242 1.338 . S
C241 N244 1.377 . S
C241 H261 0.930 . S
C242 N240 1.375 . S
C242 C241 1.338 . S
C242 H246 0.931 . S
C243 N240 1.313 . S
C243 N244 1.344 . S
C243 H247 0.930 . S
N244 C241 1.377 . S
N244 C243 1.344 . S
O245 Co237 2.055 . S
O245 C249 1.253 . S
H246 C242 0.931 . S
H247 C243 0.930 . S
O248 Co237 2.039 . S
O248 C238 1.265 . S
C249 O245 1.253 . S
C249 O250 1.227 . S
O250 C249 1.227 . S
N251 Co237 2.140 . S
N251 C254 1.346 . S
N251 C255 1.345 . S
C252 C253 1.387 . S
C252 C256 1.391 . S
C253 C252 1.387 . S
C253 C254 1.369 . S
C253 H262 0.929 . S
C254 N251 1.346 . S
C254 C253 1.369 . S
C254 H257 0.928 . S
C255 N251 1.345 . S
C255 C256 1.371 . S
C255 H258 0.931 . S
C256 C252 1.391 . S
C256 C255 1.371 . S
C256 H263 0.930 . S
H257 C254 0.928 . S
H258 C255 0.931 . S
H259 C235 0.930 . S
H260 C232 0.930 . S
H261 C241 0.930 . S
H262 C253 0.929 . S
H263 C256 0.930 . S
C264 C265 1.351 . S
C264 N267 1.368 . S
C264 H269 0.931 . S
C265 C264 1.351 . S
C265 N266 1.373 . S
C265 H293 0.930 . S
N266 C265 1.373 . S
N266 C268 1.340 . S
N267 C264 1.368 . S
N267 C268 1.321 . S
N267 Co270 2.135 . S
C268 N266 1.340 . S
C268 N267 1.321 . S
C268 H292 0.930 . S
H269 C264 0.931 . S
Co270 N267 2.135 . S
Co270 N273 2.121 . S
Co270 O278 2.055 . S
Co270 O281 2.039 . S
Co270 N284 2.140 . S
C271 O272 1.227 . S
C271 O281 1.265 . S
O272 C271 1.227 . S
N273 Co270 2.121 . S
N273 C275 1.375 . S
N273 C276 1.313 . S
C274 C275 1.338 . S
C274 N277 1.377 . S
C274 H294 0.930 . S
C275 N273 1.375 . S
C275 C274 1.338 . S
C275 H279 0.931 . S
C276 N273 1.313 . S
C276 N277 1.344 . S
C276 H280 0.930 . S
N277 C274 1.377 . S
N277 C276 1.344 . S
O278 Co270 2.055 . S
O278 C282 1.253 . S
H279 C275 0.931 . S
H280 C276 0.930 . S
O281 Co270 2.039 . S
O281 C271 1.265 . S
C282 O278 1.253 . S
C282 O283 1.227 . S
O283 C282 1.227 . S
N284 Co270 2.140 . S
N284 C287 1.346 . S
N284 C288 1.345 . S
C285 C286 1.387 . S
C285 C289 1.391 . S
C286 C285 1.387 . S
C286 C287 1.369 . S
C286 H295 0.929 . S
C287 N284 1.346 . S
C287 C286 1.369 . S
C287 H290 0.928 . S
C288 N284 1.345 . S
C288 C289 1.371 . S
C288 H291 0.931 . S
C289 C285 1.391 . S
C289 C288 1.371 . S
C289 H296 0.930 . S
H290 C287 0.928 . S
H291 C288 0.931 . S
H292 C268 0.930 . S
H293 C265 0.930 . S
H294 C274 0.930 . S
H295 C286 0.929 . S
H296 C289 0.930 . S
C297 C298 1.351 . S
C297 N300 1.368 . S
C297 H302 0.931 . S
C298 C297 1.351 . S
C298 N299 1.373 1_655 S
C298 H326 0.930 . S
N299 C298 1.373 1_455 S
N299 C301 1.340 . S
N300 C297 1.368 . S
N300 C301 1.321 1_655 S
N300 Co303 2.135 . S
C301 N299 1.340 . S
C301 N300 1.321 1_455 S
C301 H325 0.930 . S
H302 C297 0.931 . S
Co303 N300 2.135 . S
Co303 N306 2.121 . S
Co303 O311 2.055 . S
Co303 O314 2.039 . S
Co303 N317 2.140 . S
C304 O305 1.227 . S
C304 O314 1.265 . S
O305 C304 1.227 . S
N306 Co303 2.121 . S
N306 C308 1.375 . S
N306 C309 1.313 . S
C307 C308 1.338 . S
C307 N310 1.377 . S
C307 H327 0.930 . S
C308 N306 1.375 . S
C308 C307 1.338 . S
C308 H312 0.931 . S
C309 N306 1.313 . S
C309 N310 1.344 . S
C309 H313 0.930 . S
N310 C307 1.377 . S
N310 C309 1.344 . S
O311 Co303 2.055 . S
O311 C315 1.253 . S
H312 C308 0.931 . S
H313 C309 0.930 . S
O314 Co303 2.039 . S
O314 C304 1.265 . S
C315 O311 1.253 . S
C315 O316 1.227 . S
O316 C315 1.227 . S
N317 Co303 2.140 . S
N317 C320 1.346 . S
N317 C321 1.345 . S
C318 C319 1.387 . S
C318 C322 1.391 . S
C319 C318 1.387 . S
C319 C320 1.369 . S
C319 H328 0.929 . S
C320 N317 1.346 . S
C320 C319 1.369 . S
C320 H323 0.928 . S
C321 N317 1.345 . S
C321 C322 1.371 . S
C321 H324 0.931 . S
C322 C318 1.391 . S
C322 C321 1.371 . S
C322 H329 0.930 . S
H323 C320 0.928 . S
H324 C321 0.931 . S
H325 C301 0.930 . S
H326 C298 0.930 . S
H327 C307 0.930 . S
H328 C319 0.929 . S
H329 C322 0.930 . S
C330 C331 1.351 . S
C330 N333 1.368 . S
C330 H335 0.931 . S
C331 C330 1.351 . S
C331 N332 1.373 . S
C331 H359 0.930 . S
N332 C331 1.373 . S
N332 C334 1.340 . S
N333 C330 1.368 . S
N333 C334 1.321 . S
N333 Co336 2.135 . S
C334 N332 1.340 . S
C334 N333 1.321 . S
C334 H358 0.930 . S
H335 C330 0.931 . S
Co336 N333 2.135 . S
Co336 N339 2.121 . S
Co336 O344 2.055 . S
Co336 O347 2.039 . S
Co336 N350 2.140 . S
C337 O338 1.227 . S
C337 O347 1.265 . S
O338 C337 1.227 . S
N339 Co336 2.121 . S
N339 C341 1.375 . S
N339 C342 1.313 . S
C340 C341 1.338 . S
C340 N343 1.377 . S
C340 H360 0.930 . S
C341 N339 1.375 . S
C341 C340 1.338 . S
C341 H345 0.931 . S
C342 N339 1.313 . S
C342 N343 1.344 . S
C342 H346 0.930 . S
N343 C340 1.377 . S
N343 C342 1.344 . S
O344 Co336 2.055 . S
O344 C348 1.253 . S
H345 C341 0.931 . S
H346 C342 0.930 . S
O347 Co336 2.039 . S
O347 C337 1.265 . S
C348 O344 1.253 . S
C348 O349 1.227 . S
O349 C348 1.227 . S
N350 Co336 2.140 . S
N350 C353 1.346 . S
N350 C354 1.345 . S
C351 C352 1.387 . S
C351 C355 1.391 . S
C352 C351 1.387 . S
C352 C353 1.369 . S
C352 H361 0.929 . S
C353 N350 1.346 . S
C353 C352 1.369 . S
C353 H356 0.928 . S
C354 N350 1.345 . S
C354 C355 1.371 . S
C354 H357 0.931 . S
C355 C351 1.391 . S
C355 C354 1.371 . S
C355 H362 0.930 . S
H356 C353 0.928 . S
H357 C354 0.931 . S
H358 C334 0.930 . S
H359 C331 0.930 . S
H360 C340 0.930 . S
H361 C352 0.929 . S
H362 C355 0.930 . S
C363 C364 1.351 . S
C363 N366 1.368 . S
C363 H368 0.931 . S
C364 C363 1.351 . S
C364 N365 1.373 . S
C364 H392 0.930 . S
N365 C364 1.373 . S
N365 C367 1.340 . S
N366 C363 1.368 . S
N366 C367 1.321 . S
N366 Co369 2.135 . S
C367 N365 1.340 . S
C367 N366 1.321 . S
C367 H391 0.930 . S
H368 C363 0.931 . S
Co369 N366 2.135 . S
Co369 N372 2.121 1_556 S
Co369 O377 2.055 . S
Co369 O380 2.039 . S
Co369 N383 2.140 . S
C370 O371 1.227 . S
C370 O380 1.265 . S
O371 C370 1.227 . S
N372 Co369 2.121 1_554 S
N372 C374 1.375 . S
N372 C375 1.313 . S
C373 C374 1.338 . S
C373 N376 1.377 . S
C373 H393 0.930 . S
C374 N372 1.375 . S
C374 C373 1.338 . S
C374 H378 0.931 . S
C375 N372 1.313 . S
C375 N376 1.344 . S
C375 H379 0.930 . S
N376 C373 1.377 . S
N376 C375 1.344 . S
O377 Co369 2.055 . S
O377 C381 1.253 . S
H378 C374 0.931 . S
H379 C375 0.930 . S
O380 Co369 2.039 . S
O380 C370 1.265 . S
C381 O377 1.253 . S
C381 O382 1.227 . S
O382 C381 1.227 . S
N383 Co369 2.140 . S
N383 C386 1.346 . S
N383 C387 1.345 . S
C384 C385 1.387 . S
C384 C388 1.391 . S
C385 C384 1.387 . S
C385 C386 1.369 . S
C385 H394 0.929 . S
C386 N383 1.346 . S
C386 C385 1.369 . S
C386 H389 0.928 . S
C387 N383 1.345 . S
C387 C388 1.371 . S
C387 H390 0.931 . S
C388 C384 1.391 . S
C388 C387 1.371 . S
C388 H395 0.930 . S
H389 C386 0.928 . S
H390 C387 0.931 . S
H391 C367 0.930 . S
H392 C364 0.930 . S
H393 C373 0.930 . S
H394 C385 0.929 . S
H395 C388 0.930 . S
C396 C397 1.351 . S
C396 N399 1.368 . S
C396 H401 0.931 . S
C397 C396 1.351 . S
C397 N398 1.373 . S
C397 H425 0.930 . S
N398 C397 1.373 . S
N398 C400 1.340 . S
N399 C396 1.368 . S
N399 C400 1.321 . S
N399 Co402 2.135 . S
C400 N398 1.340 . S
C400 N399 1.321 . S
C400 H424 0.930 . S
H401 C396 0.931 . S
Co402 N399 2.135 . S
Co402 N405 2.121 . S
Co402 O410 2.055 . S
Co402 O413 2.039 . S
Co402 N416 2.140 . S
C403 O404 1.227 . S
C403 O413 1.265 . S
O404 C403 1.227 . S
N405 Co402 2.121 . S
N405 C407 1.375 . S
N405 C408 1.313 . S
C406 C407 1.338 . S
C406 N409 1.377 . S
C406 H426 0.930 . S
C407 N405 1.375 . S
C407 C406 1.338 . S
C407 H411 0.931 . S
C408 N405 1.313 . S
C408 N409 1.344 . S
C408 H412 0.930 . S
N409 C406 1.377 . S
N409 C408 1.344 . S
O410 Co402 2.055 . S
O410 C414 1.253 . S
H411 C407 0.931 . S
H412 C408 0.930 . S
O413 Co402 2.039 . S
O413 C403 1.265 . S
C414 O410 1.253 . S
C414 O415 1.227 . S
O415 C414 1.227 . S
N416 Co402 2.140 . S
N416 C419 1.346 . S
N416 C420 1.345 . S
C417 C418 1.387 . S
C417 C421 1.391 . S
C418 C417 1.387 . S
C418 C419 1.369 . S
C418 H427 0.929 . S
C419 N416 1.346 . S
C419 C418 1.369 . S
C419 H422 0.928 . S
C420 N416 1.345 . S
C420 C421 1.371 . S
C420 H423 0.931 . S
C421 C417 1.391 . S
C421 C420 1.371 . S
C421 H428 0.930 . S
H422 C419 0.928 . S
H423 C420 0.931 . S
H424 C400 0.930 . S
H425 C397 0.930 . S
H426 C406 0.930 . S
H427 C418 0.929 . S
H428 C421 0.930 . S
C429 C430 1.351 . S
C429 N432 1.368 . S
C429 H434 0.931 . S
C430 C429 1.351 . S
C430 N431 1.373 . S
C430 H458 0.930 . S
N431 C430 1.373 . S
N431 C433 1.340 . S
N432 C429 1.368 . S
N432 C433 1.321 . S
N432 Co435 2.135 . S
C433 N431 1.340 . S
C433 N432 1.321 . S
C433 H457 0.930 . S
H434 C429 0.931 . S
Co435 N432 2.135 . S
Co435 N438 2.121 . S
Co435 O443 2.055 . S
Co435 O446 2.039 . S
Co435 N449 2.140 . S
C436 O437 1.227 . S
C436 O446 1.265 . S
O437 C436 1.227 . S
N438 Co435 2.121 . S
N438 C440 1.375 . S
N438 C441 1.313 . S
C439 C440 1.338 . S
C439 N442 1.377 . S
C439 H459 0.930 . S
C440 N438 1.375 . S
C440 C439 1.338 . S
C440 H444 0.931 . S
C441 N438 1.313 . S
C441 N442 1.344 . S
C441 H445 0.930 . S
N442 C439 1.377 . S
N442 C441 1.344 . S
O443 Co435 2.055 . S
O443 C447 1.253 . S
H444 C440 0.931 . S
H445 C441 0.930 . S
O446 Co435 2.039 . S
O446 C436 1.265 . S
C447 O443 1.253 . S
C447 O448 1.227 . S
O448 C447 1.227 . S
N449 Co435 2.140 . S
N449 C452 1.346 . S
N449 C453 1.345 . S
C450 C451 1.387 . S
C450 C454 1.391 . S
C451 C450 1.387 . S
C451 C452 1.369 . S
C451 H460 0.929 . S
C452 N449 1.346 . S
C452 C451 1.369 . S
C452 H455 0.928 . S
C453 N449 1.345 . S
C453 C454 1.371 . S
C453 H456 0.931 . S
C454 C450 1.391 . S
C454 C453 1.371 . S
C454 H461 0.930 . S
H455 C452 0.928 . S
H456 C453 0.931 . S
H457 C433 0.930 . S
H458 C430 0.930 . S
H459 C439 0.930 . S
H460 C451 0.929 . S
H461 C454 0.930 . S
C462 C463 1.351 . S
C462 N465 1.368 . S
C462 H467 0.931 . S
C463 C462 1.351 . S
C463 N464 1.373 . S
C463 H491 0.930 . S
N464 C463 1.373 . S
N464 C466 1.340 . S
N465 C462 1.368 . S
N465 C466 1.321 . S
N465 Co468 2.135 . S
C466 N464 1.340 . S
C466 N465 1.321 . S
C466 H490 0.930 . S
H467 C462 0.931 . S
Co468 N465 2.135 . S
Co468 N471 2.121 . S
Co468 O476 2.055 . S
Co468 O479 2.039 . S
Co468 N482 2.140 . S
C469 O470 1.227 . S
C469 O479 1.265 . S
O470 C469 1.227 . S
N471 Co468 2.121 . S
N471 C473 1.375 . S
N471 C474 1.313 . S
C472 C473 1.338 . S
C472 N475 1.377 . S
C472 H492 0.930 . S
C473 N471 1.375 . S
C473 C472 1.338 . S
C473 H477 0.931 . S
C474 N471 1.313 . S
C474 N475 1.344 . S
C474 H478 0.930 . S
N475 C472 1.377 . S
N475 C474 1.344 . S
O476 Co468 2.055 . S
O476 C480 1.253 . S
H477 C473 0.931 . S
H478 C474 0.930 . S
O479 Co468 2.039 . S
O479 C469 1.265 . S
C480 O476 1.253 . S
C480 O481 1.227 . S
O481 C480 1.227 . S
N482 Co468 2.140 . S
N482 C485 1.346 . S
N482 C486 1.345 . S
C483 C484 1.387 . S
C483 C487 1.391 . S
C484 C483 1.387 . S
C484 C485 1.369 . S
C484 H493 0.929 . S
C485 N482 1.346 . S
C485 C484 1.369 . S
C485 H488 0.928 . S
C486 N482 1.345 . S
C486 C487 1.371 . S
C486 H489 0.931 . S
C487 C483 1.391 . S
C487 C486 1.371 . S
C487 H494 0.930 . S
H488 C485 0.928 . S
H489 C486 0.931 . S
H490 C466 0.930 . S
H491 C463 0.930 . S
H492 C472 0.930 . S
H493 C484 0.929 . S
H494 C487 0.930 . S
C495 C496 1.351 . S
C495 N498 1.368 . S
C495 H500 0.931 . S
C496 C495 1.351 . S
C496 N497 1.373 1_655 S
C496 H524 0.930 . S
N497 C496 1.373 1_455 S
N497 C499 1.340 . S
N498 C495 1.368 . S
N498 C499 1.321 1_655 S
N498 Co501 2.135 . S
C499 N497 1.340 . S
C499 N498 1.321 1_455 S
C499 H523 0.930 . S
H500 C495 0.931 . S
Co501 N498 2.135 . S
Co501 N504 2.121 1_554 S
Co501 O509 2.055 . S
Co501 O512 2.039 . S
Co501 N515 2.140 . S
C502 O503 1.227 . S
C502 O512 1.265 . S
O503 C502 1.227 . S
N504 Co501 2.121 1_556 S
N504 C506 1.375 . S
N504 C507 1.313 . S
C505 C506 1.338 . S
C505 N508 1.377 . S
C505 H525 0.930 . S
C506 N504 1.375 . S
C506 C505 1.338 . S
C506 H510 0.931 . S
C507 N504 1.313 . S
C507 N508 1.344 . S
C507 H511 0.930 . S
N508 C505 1.377 . S
N508 C507 1.344 . S
O509 Co501 2.055 . S
O509 C513 1.253 . S
H510 C506 0.931 . S
H511 C507 0.930 . S
O512 Co501 2.039 . S
O512 C502 1.265 . S
C513 O509 1.253 . S
C513 O514 1.227 . S
O514 C513 1.227 . S
N515 Co501 2.140 . S
N515 C518 1.346 . S
N515 C519 1.345 . S
C516 C517 1.387 . S
C516 C520 1.391 . S
C517 C516 1.387 . S
C517 C518 1.369 . S
C517 H526 0.929 . S
C518 N515 1.346 . S
C518 C517 1.369 . S
C518 H521 0.928 . S
C519 N515 1.345 . S
C519 C520 1.371 . S
C519 H522 0.931 . S
C520 C516 1.391 . S
C520 C519 1.371 . S
C520 H527 0.930 . S
H521 C518 0.928 . S
H522 C519 0.931 . S
H523 C499 0.930 . S
H524 C496 0.930 . S
H525 C505 0.930 . S
H526 C517 0.929 . S
H527 C520 0.930 . S
C528 C529 1.351 . S
C528 N531 1.368 . S
C528 H533 0.931 . S
C529 C528 1.351 . S
C529 N530 1.373 . S
C529 H557 0.930 . S
N530 C529 1.373 . S
N530 C532 1.340 . S
N531 C528 1.368 . S
N531 C532 1.321 . S
N531 Co534 2.135 . S
C532 N530 1.340 . S
C532 N531 1.321 . S
C532 H556 0.930 . S
H533 C528 0.931 . S
Co534 N531 2.135 . S
Co534 N537 2.121 . S
Co534 O542 2.055 . S
Co534 O545 2.039 . S
Co534 N548 2.140 . S
C535 O536 1.227 . S
C535 O545 1.265 . S
O536 C535 1.227 . S
N537 Co534 2.121 . S
N537 C539 1.375 . S
N537 C540 1.313 . S
C538 C539 1.338 . S
C538 N541 1.377 . S
C538 H558 0.930 . S
C539 N537 1.375 . S
C539 C538 1.338 . S
C539 H543 0.931 . S
C540 N537 1.313 . S
C540 N541 1.344 . S
C540 H544 0.930 . S
N541 C538 1.377 . S
N541 C540 1.344 . S
O542 Co534 2.055 . S
O542 C546 1.253 . S
H543 C539 0.931 . S
H544 C540 0.930 . S
O545 Co534 2.039 . S
O545 C535 1.265 . S
C546 O542 1.253 . S
C546 O547 1.227 . S
O547 C546 1.227 . S
N548 Co534 2.140 . S
N548 C551 1.346 . S
N548 C552 1.345 . S
C549 C550 1.387 . S
C549 C553 1.391 . S
C550 C549 1.387 . S
C550 C551 1.369 . S
C550 H559 0.929 . S
C551 N548 1.346 . S
C551 C550 1.369 . S
C551 H554 0.928 . S
C552 N548 1.345 . S
C552 C553 1.371 . S
C552 H555 0.931 . S
C553 C549 1.391 . S
C553 C552 1.371 . S
C553 H560 0.930 . S
H554 C551 0.928 . S
H555 C552 0.931 . S
H556 C532 0.930 . S
H557 C529 0.930 . S
H558 C538 0.930 . S
H559 C550 0.929 . S
H560 C553 0.930 . S
C561 C562 1.351 . S
C561 N564 1.368 . S
C561 H566 0.931 . S
C562 C561 1.351 . S
C562 N563 1.373 . S
C562 H590 0.930 . S
N563 C562 1.373 . S
N563 C565 1.340 . S
N564 C561 1.368 . S
N564 C565 1.321 . S
N564 Co567 2.135 . S
C565 N563 1.340 . S
C565 N564 1.321 . S
C565 H589 0.930 . S
H566 C561 0.931 . S
Co567 N564 2.135 . S
Co567 N570 2.121 1_554 S
Co567 O575 2.055 . S
Co567 O578 2.039 . S
Co567 N581 2.140 . S
C568 O569 1.227 . S
C568 O578 1.265 . S
O569 C568 1.227 . S
N570 Co567 2.121 1_556 S
N570 C572 1.375 . S
N570 C573 1.313 . S
C571 C572 1.338 . S
C571 N574 1.377 . S
C571 H591 0.930 . S
C572 N570 1.375 . S
C572 C571 1.338 . S
C572 H576 0.931 . S
C573 N570 1.313 . S
C573 N574 1.344 . S
C573 H577 0.930 . S
N574 C571 1.377 . S
N574 C573 1.344 . S
O575 Co567 2.055 . S
O575 C579 1.253 . S
H576 C572 0.931 . S
H577 C573 0.930 . S
O578 Co567 2.039 . S
O578 C568 1.265 . S
C579 O575 1.253 . S
C579 O580 1.227 . S
O580 C579 1.227 . S
N581 Co567 2.140 . S
N581 C584 1.346 . S
N581 C585 1.345 . S
C582 C583 1.387 . S
C582 C586 1.391 . S
C583 C582 1.387 . S
C583 C584 1.369 . S
C583 H592 0.929 . S
C584 N581 1.346 . S
C584 C583 1.369 . S
C584 H587 0.928 . S
C585 N581 1.345 . S
C585 C586 1.371 . S
C585 H588 0.931 . S
C586 C582 1.391 . S
C586 C585 1.371 . S
C586 H593 0.930 . S
H587 C584 0.928 . S
H588 C585 0.931 . S
H589 C565 0.930 . S
H590 C562 0.930 . S
H591 C571 0.930 . S
H592 C583 0.929 . S
H593 C586 0.930 . S
C594 C595 1.351 . S
C594 N597 1.368 . S
C594 H599 0.931 . S
C595 C594 1.351 . S
C595 N596 1.373 . S
C595 H623 0.930 . S
N596 C595 1.373 . S
N596 C598 1.340 . S
N597 C594 1.368 . S
N597 C598 1.321 . S
N597 Co600 2.135 . S
C598 N596 1.340 . S
C598 N597 1.321 . S
C598 H622 0.930 . S
H599 C594 0.931 . S
Co600 N597 2.135 . S
Co600 N603 2.121 . S
Co600 O608 2.055 . S
Co600 O611 2.039 . S
Co600 N614 2.140 . S
C601 O602 1.227 . S
C601 O611 1.265 . S
O602 C601 1.227 . S
N603 Co600 2.121 . S
N603 C605 1.375 . S
N603 C606 1.313 . S
C604 C605 1.338 . S
C604 N607 1.377 . S
C604 H624 0.930 . S
C605 N603 1.375 . S
C605 C604 1.338 . S
C605 H609 0.931 . S
C606 N603 1.313 . S
C606 N607 1.344 . S
C606 H610 0.930 . S
N607 C604 1.377 . S
N607 C606 1.344 . S
O608 Co600 2.055 . S
O608 C612 1.253 . S
H609 C605 0.931 . S
H610 C606 0.930 . S
O611 Co600 2.039 . S
O611 C601 1.265 . S
C612 O608 1.253 . S
C612 O613 1.227 . S
O613 C612 1.227 . S
N614 Co600 2.140 . S
N614 C617 1.346 . S
N614 C618 1.345 . S
C615 C616 1.387 . S
C615 C619 1.391 . S
C616 C615 1.387 . S
C616 C617 1.369 . S
C616 H625 0.929 . S
C617 N614 1.346 . S
C617 C616 1.369 . S
C617 H620 0.928 . S
C618 N614 1.345 . S
C618 C619 1.371 . S
C618 H621 0.931 . S
C619 C615 1.391 . S
C619 C618 1.371 . S
C619 H626 0.930 . S
H620 C617 0.928 . S
H621 C618 0.931 . S
H622 C598 0.930 . S
H623 C595 0.930 . S
H624 C604 0.930 . S
H625 C616 0.929 . S
H626 C619 0.930 . S
C627 C628 1.351 . S
C627 N630 1.368 . S
C627 H632 0.931 . S
C628 C627 1.351 . S
C628 N629 1.373 1_655 S
C628 H656 0.930 . S
N629 C628 1.373 1_455 S
N629 C631 1.340 . S
N630 C627 1.368 . S
N630 C631 1.321 1_655 S
N630 Co633 2.135 . S
C631 N629 1.340 . S
C631 N630 1.321 1_455 S
C631 H655 0.930 . S
H632 C627 0.931 . S
Co633 N630 2.135 . S
Co633 N636 2.121 . S
Co633 O641 2.055 . S
Co633 O644 2.039 . S
Co633 N647 2.140 . S
C634 O635 1.227 . S
C634 O644 1.265 . S
O635 C634 1.227 . S
N636 Co633 2.121 . S
N636 C638 1.375 . S
N636 C639 1.313 . S
C637 C638 1.338 . S
C637 N640 1.377 . S
C637 H657 0.930 . S
C638 N636 1.375 . S
C638 C637 1.338 . S
C638 H642 0.931 . S
C639 N636 1.313 . S
C639 N640 1.344 . S
C639 H643 0.930 . S
N640 C637 1.377 . S
N640 C639 1.344 . S
O641 Co633 2.055 . S
O641 C645 1.253 . S
H642 C638 0.931 . S
H643 C639 0.930 . S
O644 Co633 2.039 . S
O644 C634 1.265 . S
C645 O641 1.253 . S
C645 O646 1.227 . S
O646 C645 1.227 . S
N647 Co633 2.140 . S
N647 C650 1.346 . S
N647 C651 1.345 . S
C648 C649 1.387 . S
C648 C652 1.391 . S
C649 C648 1.387 . S
C649 C650 1.369 . S
C649 H658 0.929 . S
C650 N647 1.346 . S
C650 C649 1.369 . S
C650 H653 0.928 . S
C651 N647 1.345 . S
C651 C652 1.371 . S
C651 H654 0.931 . S
C652 C648 1.391 . S
C652 C651 1.371 . S
C652 H659 0.930 . S
H653 C650 0.928 . S
H654 C651 0.931 . S
H655 C631 0.930 . S
H656 C628 0.930 . S
H657 C637 0.930 . S
H658 C649 0.929 . S
H659 C652 0.930 . S
C660 C661 1.351 . S
C660 N663 1.368 . S
C660 H665 0.931 . S
C661 C660 1.351 . S
C661 N662 1.373 . S
C661 H689 0.930 . S
N662 C661 1.373 . S
N662 C664 1.340 . S
N663 C660 1.368 . S
N663 C664 1.321 . S
N663 Co666 2.135 . S
C664 N662 1.340 . S
C664 N663 1.321 . S
C664 H688 0.930 . S
H665 C660 0.931 . S
Co666 N663 2.135 . S
Co666 N669 2.121 . S
Co666 O674 2.055 . S
Co666 O677 2.039 . S
Co666 N680 2.140 . S
C667 O668 1.227 . S
C667 O677 1.265 . S
O668 C667 1.227 . S
N669 Co666 2.121 . S
N669 C671 1.375 . S
N669 C672 1.313 . S
C670 C671 1.338 . S
C670 N673 1.377 . S
C670 H690 0.930 . S
C671 N669 1.375 . S
C671 C670 1.338 . S
C671 H675 0.931 . S
C672 N669 1.313 . S
C672 N673 1.344 . S
C672 H676 0.930 . S
N673 C670 1.377 . S
N673 C672 1.344 . S
O674 Co666 2.055 . S
O674 C678 1.253 . S
H675 C671 0.931 . S
H676 C672 0.930 . S
O677 Co666 2.039 . S
O677 C667 1.265 . S
C678 O674 1.253 . S
C678 O679 1.227 . S
O679 C678 1.227 . S
N680 Co666 2.140 . S
N680 C683 1.346 . S
N680 C684 1.345 . S
C681 C682 1.387 . S
C681 C685 1.391 . S
C682 C681 1.387 . S
C682 C683 1.369 . S
C682 H691 0.929 . S
C683 N680 1.346 . S
C683 C682 1.369 . S
C683 H686 0.928 . S
C684 N680 1.345 . S
C684 C685 1.371 . S
C684 H687 0.931 . S
C685 C681 1.391 . S
C685 C684 1.371 . S
C685 H692 0.930 . S
H686 C683 0.928 . S
H687 C684 0.931 . S
H688 C664 0.930 . S
H689 C661 0.930 . S
H690 C670 0.930 . S
H691 C682 0.929 . S
H692 C685 0.930 . S
C693 C694 1.351 . S
C693 N696 1.368 . S
C693 H698 0.931 . S
C694 C693 1.351 . S
C694 N695 1.373 1_655 S
C694 H722 0.930 . S
N695 C694 1.373 1_455 S
N695 C697 1.340 . S
N696 C693 1.368 . S
N696 C697 1.321 1_655 S
N696 Co699 2.135 . S
C697 N695 1.340 . S
C697 N696 1.321 1_455 S
C697 H721 0.930 . S
H698 C693 0.931 . S
Co699 N696 2.135 . S
Co699 N702 2.121 1_556 S
Co699 O707 2.055 . S
Co699 O710 2.039 . S
Co699 N713 2.140 . S
C700 O701 1.227 . S
C700 O710 1.265 . S
O701 C700 1.227 . S
N702 Co699 2.121 1_554 S
N702 C704 1.375 . S
N702 C705 1.313 . S
C703 C704 1.338 . S
C703 N706 1.377 . S
C703 H723 0.930 . S
C704 N702 1.375 . S
C704 C703 1.338 . S
C704 H708 0.931 . S
C705 N702 1.313 . S
C705 N706 1.344 . S
C705 H709 0.930 . S
N706 C703 1.377 . S
N706 C705 1.344 . S
O707 Co699 2.055 . S
O707 C711 1.253 . S
H708 C704 0.931 . S
H709 C705 0.930 . S
O710 Co699 2.039 . S
O710 C700 1.265 . S
C711 O707 1.253 . S
C711 O712 1.227 . S
O712 C711 1.227 . S
N713 Co699 2.140 . S
N713 C716 1.346 . S
N713 C717 1.345 . S
C714 C715 1.387 . S
C714 C718 1.391 . S
C715 C714 1.387 . S
C715 C716 1.369 . S
C715 H724 0.929 . S
C716 N713 1.346 . S
C716 C715 1.369 . S
C716 H719 0.928 . S
C717 N713 1.345 . S
C717 C718 1.371 . S
C717 H720 0.931 . S
C718 C714 1.391 . S
C718 C717 1.371 . S
C718 H725 0.930 . S
H719 C716 0.928 . S
H720 C717 0.931 . S
H721 C697 0.930 . S
H722 C694 0.930 . S
H723 C703 0.930 . S
H724 C715 0.929 . S
H725 C718 0.930 . S
C726 C727 1.351 . S
C726 N729 1.368 . S
C726 H731 0.931 . S
C727 C726 1.351 . S
C727 N728 1.373 . S
C727 H755 0.930 . S
N728 C727 1.373 . S
N728 C730 1.340 . S
N729 C726 1.368 . S
N729 C730 1.321 . S
N729 Co732 2.135 . S
C730 N728 1.340 . S
C730 N729 1.321 . S
C730 H754 0.930 . S
H731 C726 0.931 . S
Co732 N729 2.135 . S
Co732 N735 2.121 . S
Co732 O740 2.055 . S
Co732 O743 2.039 . S
Co732 N746 2.140 . S
C733 O734 1.227 . S
C733 O743 1.265 . S
O734 C733 1.227 . S
N735 Co732 2.121 . S
N735 C737 1.375 . S
N735 C738 1.313 . S
C736 C737 1.338 . S
C736 N739 1.377 . S
C736 H756 0.930 . S
C737 N735 1.375 . S
C737 C736 1.338 . S
C737 H741 0.931 . S
C738 N735 1.313 . S
C738 N739 1.344 . S
C738 H742 0.930 . S
N739 C736 1.377 . S
N739 C738 1.344 . S
O740 Co732 2.055 . S
O740 C744 1.253 . S
H741 C737 0.931 . S
H742 C738 0.930 . S
O743 Co732 2.039 . S
O743 C733 1.265 . S
C744 O740 1.253 . S
C744 O745 1.227 . S
O745 C744 1.227 . S
N746 Co732 2.140 . S
N746 C749 1.346 . S
N746 C750 1.345 . S
C747 C748 1.387 . S
C747 C751 1.391 . S
C748 C747 1.387 . S
C748 C749 1.369 . S
C748 H757 0.929 . S
C749 N746 1.346 . S
C749 C748 1.369 . S
C749 H752 0.928 . S
C750 N746 1.345 . S
C750 C751 1.371 . S
C750 H753 0.931 . S
C751 C747 1.391 . S
C751 C750 1.371 . S
C751 H758 0.930 . S
H752 C749 0.928 . S
H753 C750 0.931 . S
H754 C730 0.930 . S
H755 C727 0.930 . S
H756 C736 0.930 . S
H757 C748 0.929 . S
H758 C751 0.930 . S
C759 C760 1.351 . S
C759 N762 1.368 . S
C759 H764 0.931 . S
C760 C759 1.351 . S
C760 N761 1.373 . S
C760 H788 0.930 . S
N761 C760 1.373 . S
N761 C763 1.340 . S
N762 C759 1.368 . S
N762 C763 1.321 . S
N762 Co765 2.135 . S
C763 N761 1.340 . S
C763 N762 1.321 . S
C763 H787 0.930 . S
H764 C759 0.931 . S
Co765 N762 2.135 . S
Co765 N768 2.121 . S
Co765 O773 2.055 . S
Co765 O776 2.039 . S
Co765 N779 2.140 . S
C766 O767 1.227 . S
C766 O776 1.265 . S
O767 C766 1.227 . S
N768 Co765 2.121 . S
N768 C770 1.375 . S
N768 C771 1.313 . S
C769 C770 1.338 . S
C769 N772 1.377 . S
C769 H789 0.930 . S
C770 N768 1.375 . S
C770 C769 1.338 . S
C770 H774 0.931 . S
C771 N768 1.313 . S
C771 N772 1.344 . S
C771 H775 0.930 . S
N772 C769 1.377 . S
N772 C771 1.344 . S
O773 Co765 2.055 . S
O773 C777 1.253 . S
H774 C770 0.931 . S
H775 C771 0.930 . S
O776 Co765 2.039 . S
O776 C766 1.265 . S
C777 O773 1.253 . S
C777 O778 1.227 . S
O778 C777 1.227 . S
N779 Co765 2.140 . S
N779 C782 1.346 . S
N779 C783 1.345 . S
C780 C781 1.387 . S
C780 C784 1.391 . S
C781 C780 1.387 . S
C781 C782 1.369 . S
C781 H790 0.929 . S
C782 N779 1.346 . S
C782 C781 1.369 . S
C782 H785 0.928 . S
C783 N779 1.345 . S
C783 C784 1.371 . S
C783 H786 0.931 . S
C784 C780 1.391 . S
C784 C783 1.371 . S
C784 H791 0.930 . S
H785 C782 0.928 . S
H786 C783 0.931 . S
H787 C763 0.930 . S
H788 C760 0.930 . S
H789 C769 0.930 . S
H790 C781 0.929 . S
H791 C784 0.930 . S
C792 C793 1.351 . S
C792 N795 1.368 . S
C792 H797 0.931 . S
C793 C792 1.351 . S
C793 N794 1.373 . S
C793 H821 0.930 . S
N794 C793 1.373 . S
N794 C796 1.340 . S
N795 C792 1.368 . S
N795 C796 1.321 . S
N795 Co798 2.135 . S
C796 N794 1.340 . S
C796 N795 1.321 . S
C796 H820 0.930 . S
H797 C792 0.931 . S
Co798 N795 2.135 . S
Co798 N801 2.121 . S
Co798 O806 2.055 . S
Co798 O809 2.039 . S
Co798 N812 2.140 . S
C799 O800 1.227 . S
C799 O809 1.265 . S
O800 C799 1.227 . S
N801 Co798 2.121 . S
N801 C803 1.375 . S
N801 C804 1.313 . S
C802 C803 1.338 . S
C802 N805 1.377 . S
C802 H822 0.930 . S
C803 N801 1.375 . S
C803 C802 1.338 . S
C803 H807 0.931 . S
C804 N801 1.313 . S
C804 N805 1.344 . S
C804 H808 0.930 . S
N805 C802 1.377 . S
N805 C804 1.344 . S
O806 Co798 2.055 . S
O806 C810 1.253 . S
H807 C803 0.931 . S
H808 C804 0.930 . S
O809 Co798 2.039 . S
O809 C799 1.265 . S
C810 O806 1.253 . S
C810 O811 1.227 . S
O811 C810 1.227 . S
N812 Co798 2.140 . S
N812 C815 1.346 . S
N812 C816 1.345 . S
C813 C814 1.387 . S
C813 C817 1.391 . S
C814 C813 1.387 . S
C814 C815 1.369 . S
C814 H823 0.929 . S
C815 N812 1.346 . S
C815 C814 1.369 . S
C815 H818 0.928 . S
C816 N812 1.345 . S
C816 C817 1.371 . S
C816 H819 0.931 . S
C817 C813 1.391 . S
C817 C816 1.371 . S
C817 H824 0.930 . S
H818 C815 0.928 . S
H819 C816 0.931 . S
H820 C796 0.930 . S
H821 C793 0.930 . S
H822 C802 0.930 . S
H823 C814 0.929 . S
H824 C817 0.930 . S
C825 C826 1.351 . S
C825 N828 1.368 . S
C825 H830 0.931 . S
C826 C825 1.351 . S
C826 N827 1.373 . S
C826 H854 0.930 . S
N827 C826 1.373 . S
N827 C829 1.340 . S
N828 C825 1.368 . S
N828 C829 1.321 . S
N828 Co831 2.135 . S
C829 N827 1.340 . S
C829 N828 1.321 . S
C829 H853 0.930 . S
H830 C825 0.931 . S
Co831 N828 2.135 . S
Co831 N834 2.121 1_556 S
Co831 O839 2.055 . S
Co831 O842 2.039 . S
Co831 N845 2.140 . S
C832 O833 1.227 . S
C832 O842 1.265 . S
O833 C832 1.227 . S
N834 Co831 2.121 1_554 S
N834 C836 1.375 . S
N834 C837 1.313 . S
C835 C836 1.338 . S
C835 N838 1.377 . S
C835 H855 0.930 . S
C836 N834 1.375 . S
C836 C835 1.338 . S
C836 H840 0.931 . S
C837 N834 1.313 . S
C837 N838 1.344 . S
C837 H841 0.930 . S
N838 C835 1.377 . S
N838 C837 1.344 . S
O839 Co831 2.055 . S
O839 C843 1.253 . S
H840 C836 0.931 . S
H841 C837 0.930 . S
O842 Co831 2.039 . S
O842 C832 1.265 . S
C843 O839 1.253 . S
C843 O844 1.227 . S
O844 C843 1.227 . S
N845 Co831 2.140 . S
N845 C848 1.346 . S
N845 C849 1.345 . S
C846 C847 1.387 . S
C846 C850 1.391 . S
C847 C846 1.387 . S
C847 C848 1.369 . S
C847 H856 0.929 . S
C848 N845 1.346 . S
C848 C847 1.369 . S
C848 H851 0.928 . S
C849 N845 1.345 . S
C849 C850 1.371 . S
C849 H852 0.931 . S
C850 C846 1.391 . S
C850 C849 1.371 . S
C850 H857 0.930 . S
H851 C848 0.928 . S
H852 C849 0.931 . S
H853 C829 0.930 . S
H854 C826 0.930 . S
H855 C835 0.930 . S
H856 C847 0.929 . S
H857 C850 0.930 . S
C858 C859 1.351 . S
C858 N861 1.368 . S
C858 H863 0.931 . S
C859 C858 1.351 . S
C859 N860 1.373 . S
C859 H887 0.930 . S
N860 C859 1.373 . S
N860 C862 1.340 . S
N861 C858 1.368 . S
N861 C862 1.321 . S
N861 Co864 2.135 . S
C862 N860 1.340 . S
C862 N861 1.321 . S
C862 H886 0.930 . S
H863 C858 0.931 . S
Co864 N861 2.135 . S
Co864 N867 2.121 . S
Co864 O872 2.055 . S
Co864 O875 2.039 . S
Co864 N878 2.140 . S
C865 O866 1.227 . S
C865 O875 1.265 . S
O866 C865 1.227 . S
N867 Co864 2.121 . S
N867 C869 1.375 . S
N867 C870 1.313 . S
C868 C869 1.338 . S
C868 N871 1.377 . S
C868 H888 0.930 . S
C869 N867 1.375 . S
C869 C868 1.338 . S
C869 H873 0.931 . S
C870 N867 1.313 . S
C870 N871 1.344 . S
C870 H874 0.930 . S
N871 C868 1.377 . S
N871 C870 1.344 . S
O872 Co864 2.055 . S
O872 C876 1.253 . S
H873 C869 0.931 . S
H874 C870 0.930 . S
O875 Co864 2.039 . S
O875 C865 1.265 . S
C876 O872 1.253 . S
C876 O877 1.227 . S
O877 C876 1.227 . S
N878 Co864 2.140 . S
N878 C881 1.346 . S
N878 C882 1.345 . S
C879 C880 1.387 . S
C879 C883 1.391 . S
C880 C879 1.387 . S
C880 C881 1.369 . S
C880 H889 0.929 . S
C881 N878 1.346 . S
C881 C880 1.369 . S
C881 H884 0.928 . S
C882 N878 1.345 . S
C882 C883 1.371 . S
C882 H885 0.931 . S
C883 C879 1.391 . S
C883 C882 1.371 . S
C883 H890 0.930 . S
H884 C881 0.928 . S
H885 C882 0.931 . S
H886 C862 0.930 . S
H887 C859 0.930 . S
H888 C868 0.930 . S
H889 C880 0.929 . S
H890 C883 0.930 . S
C891 C892 1.351 . S
C891 N894 1.368 . S
C891 H896 0.931 . S
C892 C891 1.351 . S
C892 N893 1.373 1_455 S
C892 H920 0.930 . S
N893 C892 1.373 1_655 S
N893 C895 1.340 . S
N894 C891 1.368 . S
N894 C895 1.321 1_455 S
N894 Co897 2.135 . S
C895 N893 1.340 . S
C895 N894 1.321 1_655 S
C895 H919 0.930 . S
H896 C891 0.931 . S
Co897 N894 2.135 . S
Co897 N900 2.121 . S
Co897 O905 2.055 . S
Co897 O908 2.039 . S
Co897 N911 2.140 . S
C898 O899 1.227 . S
C898 O908 1.265 . S
O899 C898 1.227 . S
N900 Co897 2.121 . S
N900 C902 1.375 . S
N900 C903 1.313 . S
C901 C902 1.338 . S
C901 N904 1.377 . S
C901 H921 0.930 . S
C902 N900 1.375 . S
C902 C901 1.338 . S
C902 H906 0.931 . S
C903 N900 1.313 . S
C903 N904 1.344 . S
C903 H907 0.930 . S
N904 C901 1.377 . S
N904 C903 1.344 . S
O905 Co897 2.055 . S
O905 C909 1.253 . S
H906 C902 0.931 . S
H907 C903 0.930 . S
O908 Co897 2.039 . S
O908 C898 1.265 . S
C909 O905 1.253 . S
C909 O910 1.227 . S
O910 C909 1.227 . S
N911 Co897 2.140 . S
N911 C914 1.346 . S
N911 C915 1.345 . S
C912 C913 1.387 . S
C912 C916 1.391 . S
C913 C912 1.387 . S
C913 C914 1.369 . S
C913 H922 0.929 . S
C914 N911 1.346 . S
C914 C913 1.369 . S
C914 H917 0.928 . S
C915 N911 1.345 . S
C915 C916 1.371 . S
C915 H918 0.931 . S
C916 C912 1.391 . S
C916 C915 1.371 . S
C916 H923 0.930 . S
H917 C914 0.928 . S
H918 C915 0.931 . S
H919 C895 0.930 . S
H920 C892 0.930 . S
H921 C901 0.930 . S
H922 C913 0.929 . S
H923 C916 0.930 . S
C924 C925 1.351 . S
C924 N927 1.368 . S
C924 H929 0.931 . S
C925 C924 1.351 . S
C925 N926 1.373 . S
C925 H953 0.930 . S
N926 C925 1.373 . S
N926 C928 1.340 . S
N927 C924 1.368 . S
N927 C928 1.321 . S
N927 Co930 2.135 . S
C928 N926 1.340 . S
C928 N927 1.321 . S
C928 H952 0.930 . S
H929 C924 0.931 . S
Co930 N927 2.135 . S
Co930 N933 2.121 . S
Co930 O938 2.055 . S
Co930 O941 2.039 . S
Co930 N944 2.140 . S
C931 O932 1.227 . S
C931 O941 1.265 . S
O932 C931 1.227 . S
N933 Co930 2.121 . S
N933 C935 1.375 . S
N933 C936 1.313 . S
C934 C935 1.338 . S
C934 N937 1.377 . S
C934 H954 0.930 . S
C935 N933 1.375 . S
C935 C934 1.338 . S
C935 H939 0.931 . S
C936 N933 1.313 . S
C936 N937 1.344 . S
C936 H940 0.930 . S
N937 C934 1.377 . S
N937 C936 1.344 . S
O938 Co930 2.055 . S
O938 C942 1.253 . S
H939 C935 0.931 . S
H940 C936 0.930 . S
O941 Co930 2.039 . S
O941 C931 1.265 . S
C942 O938 1.253 . S
C942 O943 1.227 . S
O943 C942 1.227 . S
N944 Co930 2.140 . S
N944 C947 1.346 . S
N944 C948 1.345 . S
C945 C946 1.387 . S
C945 C949 1.391 . S
C946 C945 1.387 . S
C946 C947 1.369 . S
C946 H955 0.929 . S
C947 N944 1.346 . S
C947 C946 1.369 . S
C947 H950 0.928 . S
C948 N944 1.345 . S
C948 C949 1.371 . S
C948 H951 0.931 . S
C949 C945 1.391 . S
C949 C948 1.371 . S
C949 H956 0.930 . S
H950 C947 0.928 . S
H951 C948 0.931 . S
H952 C928 0.930 . S
H953 C925 0.930 . S
H954 C934 0.930 . S
H955 C946 0.929 . S
H956 C949 0.930 . S
C957 C958 1.351 . S
C957 N960 1.368 . S
C957 H962 0.931 . S
C958 C957 1.351 . S
C958 N959 1.373 1_455 S
C958 H986 0.930 . S
N959 C958 1.373 1_655 S
N959 C961 1.340 . S
N960 C957 1.368 . S
N960 C961 1.321 1_455 S
N960 Co963 2.135 . S
C961 N959 1.340 . S
C961 N960 1.321 1_655 S
C961 H985 0.930 . S
H962 C957 0.931 . S
Co963 N960 2.135 . S
Co963 N966 2.121 1_554 S
Co963 O971 2.055 . S
Co963 O974 2.039 . S
Co963 N977 2.140 . S
C964 O965 1.227 . S
C964 O974 1.265 . S
O965 C964 1.227 . S
N966 Co963 2.121 1_556 S
N966 C968 1.375 . S
N966 C969 1.313 . S
C967 C968 1.338 . S
C967 N970 1.377 . S
C967 H987 0.930 . S
C968 N966 1.375 . S
C968 C967 1.338 . S
C968 H972 0.931 . S
C969 N966 1.313 . S
C969 N970 1.344 . S
C969 H973 0.930 . S
N970 C967 1.377 . S
N970 C969 1.344 . S
O971 Co963 2.055 . S
O971 C975 1.253 . S
H972 C968 0.931 . S
H973 C969 0.930 . S
O974 Co963 2.039 . S
O974 C964 1.265 . S
C975 O971 1.253 . S
C975 O976 1.227 . S
O976 C975 1.227 . S
N977 Co963 2.140 . S
N977 C980 1.346 . S
N977 C981 1.345 . S
C978 C979 1.387 . S
C978 C982 1.391 . S
C979 C978 1.387 . S
C979 C980 1.369 . S
C979 H988 0.929 . S
C980 N977 1.346 . S
C980 C979 1.369 . S
C980 H983 0.928 . S
C981 N977 1.345 . S
C981 C982 1.371 . S
C981 H984 0.931 . S
C982 C978 1.391 . S
C982 C981 1.371 . S
C982 H989 0.930 . S
H983 C980 0.928 . S
H984 C981 0.931 . S
H985 C961 0.930 . S
H986 C958 0.930 . S
H987 C967 0.930 . S
H988 C979 0.929 . S
H989 C982 0.930 . S
C990 C991 1.351 . S
C990 N993 1.368 . S
C990 H995 0.931 . S
C991 C990 1.351 . S
C991 N992 1.373 . S
C991 H1019 0.930 . S
N992 C991 1.373 . S
N992 C994 1.340 . S
N993 C990 1.368 . S
N993 C994 1.321 . S
N993 Co996 2.135 . S
C994 N992 1.340 . S
C994 N993 1.321 . S
C994 H1018 0.930 . S
H995 C990 0.931 . S
Co996 N993 2.135 . S
Co996 N999 2.121 . S
Co996 O1004 2.055 . S
Co996 O1007 2.039 . S
Co996 N1010 2.140 . S
C997 O998 1.227 . S
C997 O1007 1.265 . S
O998 C997 1.227 . S
N999 Co996 2.121 . S
N999 C1001 1.375 . S
N999 C1002 1.313 . S
C1000 C1001 1.338 . S
C1000 N1003 1.377 . S
C1000 H1020 0.930 . S
C1001 N999 1.375 . S
C1001 C1000 1.338 . S
C1001 H1005 0.931 . S
C1002 N999 1.313 . S
C1002 N1003 1.344 . S
C1002 H1006 0.930 . S
N1003 C1000 1.377 . S
N1003 C1002 1.344 . S
O1004 Co996 2.055 . S
O1004 C1008 1.253 . S
H1005 C1001 0.931 . S
H1006 C1002 0.930 . S
O1007 Co996 2.039 . S
O1007 C997 1.265 . S
C1008 O1004 1.253 . S
C1008 O1009 1.227 . S
O1009 C1008 1.227 . S
N1010 Co996 2.140 . S
N1010 C1013 1.346 . S
N1010 C1014 1.345 . S
C1011 C1012 1.387 . S
C1011 C1015 1.391 . S
C1012 C1011 1.387 . S
C1012 C1013 1.369 . S
C1012 H1021 0.929 . S
C1013 N1010 1.346 . S
C1013 C1012 1.369 . S
C1013 H1016 0.928 . S
C1014 N1010 1.345 . S
C1014 C1015 1.371 . S
C1014 H1017 0.931 . S
C1015 C1011 1.391 . S
C1015 C1014 1.371 . S
C1015 H1022 0.930 . S
H1016 C1013 0.928 . S
H1017 C1014 0.931 . S
H1018 C994 0.930 . S
H1019 C991 0.930 . S
H1020 C1000 0.930 . S
H1021 C1012 0.929 . S
H1022 C1015 0.930 . S
C1023 C1024 1.351 . S
C1023 N1026 1.368 . S
C1023 H1028 0.931 . S
C1024 C1023 1.351 . S
C1024 N1025 1.373 . S
C1024 H1052 0.930 . S
N1025 C1024 1.373 . S
N1025 C1027 1.340 . S
N1026 C1023 1.368 . S
N1026 C1027 1.321 . S
N1026 Co1029 2.135 . S
C1027 N1025 1.340 . S
C1027 N1026 1.321 . S
C1027 H1051 0.930 . S
H1028 C1023 0.931 . S
Co1029 N1026 2.135 . S
Co1029 N1032 2.121 . S
Co1029 O1037 2.055 . S
Co1029 O1040 2.039 . S
Co1029 N1043 2.140 . S
C1030 O1031 1.227 . S
C1030 O1040 1.265 . S
O1031 C1030 1.227 . S
N1032 Co1029 2.121 . S
N1032 C1034 1.375 . S
N1032 C1035 1.313 . S
C1033 C1034 1.338 . S
C1033 N1036 1.377 . S
C1033 H1053 0.930 . S
C1034 N1032 1.375 . S
C1034 C1033 1.338 . S
C1034 H1038 0.931 . S
C1035 N1032 1.313 . S
C1035 N1036 1.344 . S
C1035 H1039 0.930 . S
N1036 C1033 1.377 . S
N1036 C1035 1.344 . S
O1037 Co1029 2.055 . S
O1037 C1041 1.253 . S
H1038 C1034 0.931 . S
H1039 C1035 0.930 . S
O1040 Co1029 2.039 . S
O1040 C1030 1.265 . S
C1041 O1037 1.253 . S
C1041 O1042 1.227 . S
O1042 C1041 1.227 . S
N1043 Co1029 2.140 . S
N1043 C1046 1.346 . S
N1043 C1047 1.345 . S
C1044 C1045 1.387 . S
C1044 C1048 1.391 . S
C1045 C1044 1.387 . S
C1045 C1046 1.369 . S
C1045 H1054 0.929 . S
C1046 N1043 1.346 . S
C1046 C1045 1.369 . S
C1046 H1049 0.928 . S
C1047 N1043 1.345 . S
C1047 C1048 1.371 . S
C1047 H1050 0.931 . S
C1048 C1044 1.391 . S
C1048 C1047 1.371 . S
C1048 H1055 0.930 . S
H1049 C1046 0.928 . S
H1050 C1047 0.931 . S
H1051 C1027 0.930 . S
H1052 C1024 0.930 . S
H1053 C1033 0.930 . S
H1054 C1045 0.929 . S
H1055 C1048 0.930 . S
C1056 C1057 1.363 . S
C1056 C1062 1.379 . S
C1056 N1064 1.356 . S
C1057 C1056 1.363 . S
C1057 C1063 1.363 . S
C1058 C1059 1.363 . S
C1058 C1063 1.379 . S
C1058 N1065 1.356 . S
C1059 C1058 1.363 . S
C1059 C1062 1.363 . S
N1060 C1062 1.356 . S
N1060 H1072 0.984 . S
N1060 H1073 0.985 . S
N1061 C1063 1.356 . S
N1061 H1066 0.984 . S
N1061 H1067 0.985 . S
C1062 C1056 1.379 . S
C1062 C1059 1.363 . S
C1062 N1060 1.356 . S
C1063 C1057 1.363 . S
C1063 C1058 1.379 . S
C1063 N1061 1.356 . S
N1064 C1056 1.356 . S
N1064 H1070 0.984 . S
N1064 H1071 0.984 . S
N1065 C1058 1.356 . S
N1065 H1068 0.984 . S
N1065 H1069 0.985 . S
H1066 N1061 0.984 . S
H1067 N1061 0.985 . S
H1068 N1065 0.984 . S
H1069 N1065 0.985 . S
H1070 N1064 0.984 . S
H1071 N1064 0.984 . S
H1072 N1060 0.984 . S
H1073 N1060 0.985 . S
C1074 C1075 1.363 . S
C1074 C1080 1.379 . S
C1074 N1082 1.356 . S
C1075 C1074 1.363 . S
C1075 C1081 1.363 . S
C1076 C1077 1.363 . S
C1076 C1081 1.379 . S
C1076 N1083 1.356 . S
C1077 C1076 1.363 . S
C1077 C1080 1.363 . S
N1078 C1080 1.356 . S
N1078 H1090 0.984 . S
N1078 H1091 0.985 . S
N1079 C1081 1.356 . S
N1079 H1084 0.984 . S
N1079 H1085 0.985 . S
C1080 C1074 1.379 . S
C1080 C1077 1.363 . S
C1080 N1078 1.356 . S
C1081 C1075 1.363 . S
C1081 C1076 1.379 . S
C1081 N1079 1.356 . S
N1082 C1074 1.356 . S
N1082 H1088 0.984 . S
N1082 H1089 0.984 . S
N1083 C1076 1.356 . S
N1083 H1086 0.984 . S
N1083 H1087 0.985 . S
H1084 N1079 0.984 . S
H1085 N1079 0.985 . S
H1086 N1083 0.984 . S
H1087 N1083 0.985 . S
H1088 N1082 0.984 . S
H1089 N1082 0.984 . S
H1090 N1078 0.984 . S
H1091 N1078 0.985 . S
C1092 C1093 1.363 . S
C1092 C1098 1.379 . S
C1092 N1100 1.356 . S
C1093 C1092 1.363 . S
C1093 C1099 1.363 . S
C1094 C1095 1.363 . S
C1094 C1099 1.379 . S
C1094 N1101 1.356 . S
C1095 C1094 1.363 . S
C1095 C1098 1.363 . S
N1096 C1098 1.356 . S
N1096 H1108 0.984 . S
N1096 H1109 0.985 . S
N1097 C1099 1.356 . S
N1097 H1102 0.984 . S
N1097 H1103 0.985 . S
C1098 C1092 1.379 . S
C1098 C1095 1.363 . S
C1098 N1096 1.356 . S
C1099 C1093 1.363 . S
C1099 C1094 1.379 . S
C1099 N1097 1.356 . S
N1100 C1092 1.356 . S
N1100 H1106 0.984 . S
N1100 H1107 0.984 . S
N1101 C1094 1.356 . S
N1101 H1104 0.984 . S
N1101 H1105 0.985 . S
H1102 N1097 0.984 . S
H1103 N1097 0.985 . S
H1104 N1101 0.984 . S
H1105 N1101 0.985 . S
H1106 N1100 0.984 . S
H1107 N1100 0.984 . S
H1108 N1096 0.984 . S
H1109 N1096 0.985 . S
C1110 C1111 1.363 . S
C1110 C1116 1.379 . S
C1110 N1118 1.356 . S
C1111 C1110 1.363 . S
C1111 C1117 1.363 . S
C1112 C1113 1.363 . S
C1112 C1117 1.379 . S
C1112 N1119 1.356 . S
C1113 C1112 1.363 . S
C1113 C1116 1.363 . S
N1114 C1116 1.356 . S
N1114 H1126 0.984 . S
N1114 H1127 0.985 . S
N1115 C1117 1.356 . S
N1115 H1120 0.984 . S
N1115 H1121 0.985 . S
C1116 C1110 1.379 . S
C1116 C1113 1.363 . S
C1116 N1114 1.356 . S
C1117 C1111 1.363 . S
C1117 C1112 1.379 . S
C1117 N1115 1.356 . S
N1118 C1110 1.356 . S
N1118 H1124 0.984 . S
N1118 H1125 0.984 . S
N1119 C1112 1.356 . S
N1119 H1122 0.984 . S
N1119 H1123 0.985 . S
H1120 N1115 0.984 . S
H1121 N1115 0.985 . S
H1122 N1119 0.984 . S
H1123 N1119 0.985 . S
H1124 N1118 0.984 . S
H1125 N1118 0.984 . S
H1126 N1114 0.984 . S
H1127 N1114 0.985 . S
C1128 C1129 1.363 . S
C1128 C1134 1.379 . S
C1128 N1136 1.356 . S
C1129 C1128 1.363 . S
C1129 C1135 1.363 . S
C1130 C1131 1.363 . S
C1130 C1135 1.379 . S
C1130 N1137 1.356 . S
C1131 C1130 1.363 . S
C1131 C1134 1.363 . S
N1132 C1134 1.356 . S
N1132 H1144 0.984 . S
N1132 H1145 0.985 . S
N1133 C1135 1.356 . S
N1133 H1138 0.984 . S
N1133 H1139 0.985 . S
C1134 C1128 1.379 . S
C1134 C1131 1.363 . S
C1134 N1132 1.356 . S
C1135 C1129 1.363 . S
C1135 C1130 1.379 . S
C1135 N1133 1.356 . S
N1136 C1128 1.356 . S
N1136 H1142 0.984 . S
N1136 H1143 0.984 . S
N1137 C1130 1.356 . S
N1137 H1140 0.984 . S
N1137 H1141 0.985 . S
H1138 N1133 0.984 . S
H1139 N1133 0.985 . S
H1140 N1137 0.984 . S
H1141 N1137 0.985 . S
H1142 N1136 0.984 . S
H1143 N1136 0.984 . S
H1144 N1132 0.984 . S
H1145 N1132 0.985 . S
C1146 C1147 1.363 . S
C1146 C1152 1.379 . S
C1146 N1154 1.356 . S
C1147 C1146 1.363 . S
C1147 C1153 1.363 . S
C1148 C1149 1.363 . S
C1148 C1153 1.379 . S
C1148 N1155 1.356 . S
C1149 C1148 1.363 . S
C1149 C1152 1.363 . S
N1150 C1152 1.356 . S
N1150 H1162 0.984 . S
N1150 H1163 0.985 . S
N1151 C1153 1.356 . S
N1151 H1156 0.984 . S
N1151 H1157 0.985 . S
C1152 C1146 1.379 . S
C1152 C1149 1.363 . S
C1152 N1150 1.356 . S
C1153 C1147 1.363 . S
C1153 C1148 1.379 . S
C1153 N1151 1.356 . S
N1154 C1146 1.356 . S
N1154 H1160 0.984 . S
N1154 H1161 0.984 . S
N1155 C1148 1.356 . S
N1155 H1158 0.984 . S
N1155 H1159 0.985 . S
H1156 N1151 0.984 . S
H1157 N1151 0.985 . S
H1158 N1155 0.984 . S
H1159 N1155 0.985 . S
H1160 N1154 0.984 . S
H1161 N1154 0.984 . S
H1162 N1150 0.984 . S
H1163 N1150 0.985 . S
C1164 C1165 1.363 . S
C1164 C1170 1.379 . S
C1164 N1172 1.356 . S
C1165 C1164 1.363 . S
C1165 C1171 1.363 . S
C1166 C1167 1.363 . S
C1166 C1171 1.379 . S
C1166 N1173 1.356 . S
C1167 C1166 1.363 . S
C1167 C1170 1.363 . S
N1168 C1170 1.356 . S
N1168 H1180 0.984 . S
N1168 H1181 0.985 . S
N1169 C1171 1.356 . S
N1169 H1174 0.984 . S
N1169 H1175 0.985 . S
C1170 C1164 1.379 . S
C1170 C1167 1.363 . S
C1170 N1168 1.356 . S
C1171 C1165 1.363 . S
C1171 C1166 1.379 . S
C1171 N1169 1.356 . S
N1172 C1164 1.356 . S
N1172 H1178 0.984 . S
N1172 H1179 0.984 . S
N1173 C1166 1.356 . S
N1173 H1176 0.984 . S
N1173 H1177 0.985 . S
H1174 N1169 0.984 . S
H1175 N1169 0.985 . S
H1176 N1173 0.984 . S
H1177 N1173 0.985 . S
H1178 N1172 0.984 . S
H1179 N1172 0.984 . S
H1180 N1168 0.984 . S
H1181 N1168 0.985 . S
C1182 C1183 1.363 . S
C1182 C1188 1.379 . S
C1182 N1190 1.356 . S
C1183 C1182 1.363 . S
C1183 C1189 1.363 . S
C1184 C1185 1.363 . S
C1184 C1189 1.379 . S
C1184 N1191 1.356 . S
C1185 C1184 1.363 . S
C1185 C1188 1.363 . S
N1186 C1188 1.356 . S
N1186 H1198 0.984 . S
N1186 H1199 0.985 . S
N1187 C1189 1.356 . S
N1187 H1192 0.984 . S
N1187 H1193 0.985 . S
C1188 C1182 1.379 . S
C1188 C1185 1.363 . S
C1188 N1186 1.356 . S
C1189 C1183 1.363 . S
C1189 C1184 1.379 . S
C1189 N1187 1.356 . S
N1190 C1182 1.356 . S
N1190 H1196 0.984 . S
N1190 H1197 0.984 . S
N1191 C1184 1.356 . S
N1191 H1194 0.984 . S
N1191 H1195 0.985 . S
H1192 N1187 0.984 . S
H1193 N1187 0.985 . S
H1194 N1191 0.984 . S
H1195 N1191 0.985 . S
H1196 N1190 0.984 . S
H1197 N1190 0.984 . S
H1198 N1186 0.984 . S
H1199 N1186 0.985 . S
C1200 C1201 1.363 . S
C1200 C1206 1.379 . S
C1200 N1208 1.356 . S
C1201 C1200 1.363 . S
C1201 C1207 1.363 . S
C1202 C1203 1.363 . S
C1202 C1207 1.379 . S
C1202 N1209 1.356 . S
C1203 C1202 1.363 . S
C1203 C1206 1.363 . S
N1204 C1206 1.356 . S
N1204 H1216 0.984 . S
N1204 H1217 0.985 . S
N1205 C1207 1.356 . S
N1205 H1210 0.984 . S
N1205 H1211 0.985 . S
C1206 C1200 1.379 . S
C1206 C1203 1.363 . S
C1206 N1204 1.356 . S
C1207 C1201 1.363 . S
C1207 C1202 1.379 . S
C1207 N1205 1.356 . S
N1208 C1200 1.356 . S
N1208 H1214 0.984 . S
N1208 H1215 0.984 . S
N1209 C1202 1.356 . S
N1209 H1212 0.984 . S
N1209 H1213 0.985 . S
H1210 N1205 0.984 . S
H1211 N1205 0.985 . S
H1212 N1209 0.984 . S
H1213 N1209 0.985 . S
H1214 N1208 0.984 . S
H1215 N1208 0.984 . S
H1216 N1204 0.984 . S
H1217 N1204 0.985 . S
C1218 C1219 1.363 . S
C1218 C1224 1.379 . S
C1218 N1226 1.356 . S
C1219 C1218 1.363 . S
C1219 C1225 1.363 . S
C1220 C1221 1.363 . S
C1220 C1225 1.379 . S
C1220 N1227 1.356 . S
C1221 C1220 1.363 . S
C1221 C1224 1.363 . S
N1222 C1224 1.356 . S
N1222 H1234 0.984 . S
N1222 H1235 0.985 . S
N1223 C1225 1.356 . S
N1223 H1228 0.984 . S
N1223 H1229 0.985 . S
C1224 C1218 1.379 . S
C1224 C1221 1.363 . S
C1224 N1222 1.356 . S
C1225 C1219 1.363 . S
C1225 C1220 1.379 . S
C1225 N1223 1.356 . S
N1226 C1218 1.356 . S
N1226 H1232 0.984 . S
N1226 H1233 0.984 . S
N1227 C1220 1.356 . S
N1227 H1230 0.984 . S
N1227 H1231 0.985 . S
H1228 N1223 0.984 . S
H1229 N1223 0.985 . S
H1230 N1227 0.984 . S
H1231 N1227 0.985 . S
H1232 N1226 0.984 . S
H1233 N1226 0.984 . S
H1234 N1222 0.984 . S
H1235 N1222 0.985 . S
C1236 C1237 1.363 . S
C1236 C1242 1.379 . S
C1236 N1244 1.356 . S
C1237 C1236 1.363 . S
C1237 C1243 1.363 . S
C1238 C1239 1.363 . S
C1238 C1243 1.379 . S
C1238 N1245 1.356 . S
C1239 C1238 1.363 . S
C1239 C1242 1.363 . S
N1240 C1242 1.356 . S
N1240 H1252 0.984 . S
N1240 H1253 0.985 . S
N1241 C1243 1.356 . S
N1241 H1246 0.984 . S
N1241 H1247 0.985 . S
C1242 C1236 1.379 . S
C1242 C1239 1.363 . S
C1242 N1240 1.356 . S
C1243 C1237 1.363 . S
C1243 C1238 1.379 . S
C1243 N1241 1.356 . S
N1244 C1236 1.356 . S
N1244 H1250 0.984 . S
N1244 H1251 0.984 . S
N1245 C1238 1.356 . S
N1245 H1248 0.984 . S
N1245 H1249 0.985 . S
H1246 N1241 0.984 . S
H1247 N1241 0.985 . S
H1248 N1245 0.984 . S
H1249 N1245 0.985 . S
H1250 N1244 0.984 . S
H1251 N1244 0.984 . S
H1252 N1240 0.984 . S
H1253 N1240 0.985 . S
C1254 C1255 1.363 . S
C1254 C1260 1.379 . S
C1254 N1262 1.356 . S
C1255 C1254 1.363 . S
C1255 C1261 1.363 . S
C1256 C1257 1.363 . S
C1256 C1261 1.379 . S
C1256 N1263 1.356 . S
C1257 C1256 1.363 . S
C1257 C1260 1.363 . S
N1258 C1260 1.356 . S
N1258 H1270 0.984 . S
N1258 H1271 0.985 . S
N1259 C1261 1.356 . S
N1259 H1264 0.984 . S
N1259 H1265 0.985 . S
C1260 C1254 1.379 . S
C1260 C1257 1.363 . S
C1260 N1258 1.356 . S
C1261 C1255 1.363 . S
C1261 C1256 1.379 . S
C1261 N1259 1.356 . S
N1262 C1254 1.356 . S
N1262 H1268 0.984 . S
N1262 H1269 0.984 . S
N1263 C1256 1.356 . S
N1263 H1266 0.984 . S
N1263 H1267 0.985 . S
H1264 N1259 0.984 . S
H1265 N1259 0.985 . S
H1266 N1263 0.984 . S
H1267 N1263 0.985 . S
H1268 N1262 0.984 . S
H1269 N1262 0.984 . S
H1270 N1258 0.984 . S
H1271 N1258 0.985 . S
C1272 C1273 1.363 . S
C1272 C1278 1.379 . S
C1272 N1280 1.356 . S
C1273 C1272 1.363 . S
C1273 C1279 1.363 . S
C1274 C1275 1.363 . S
C1274 C1279 1.379 . S
C1274 N1281 1.356 . S
C1275 C1274 1.363 . S
C1275 C1278 1.363 . S
N1276 C1278 1.356 . S
N1276 H1288 0.984 . S
N1276 H1289 0.985 . S
N1277 C1279 1.356 . S
N1277 H1282 0.984 . S
N1277 H1283 0.985 . S
C1278 C1272 1.379 . S
C1278 C1275 1.363 . S
C1278 N1276 1.356 . S
C1279 C1273 1.363 . S
C1279 C1274 1.379 . S
C1279 N1277 1.356 . S
N1280 C1272 1.356 . S
N1280 H1286 0.984 . S
N1280 H1287 0.984 . S
N1281 C1274 1.356 . S
N1281 H1284 0.984 . S
N1281 H1285 0.985 . S
H1282 N1277 0.984 . S
H1283 N1277 0.985 . S
H1284 N1281 0.984 . S
H1285 N1281 0.985 . S
H1286 N1280 0.984 . S
H1287 N1280 0.984 . S
H1288 N1276 0.984 . S
H1289 N1276 0.985 . S
C1290 C1291 1.363 . S
C1290 C1296 1.379 . S
C1290 N1298 1.356 . S
C1291 C1290 1.363 . S
C1291 C1297 1.363 . S
C1292 C1293 1.363 . S
C1292 C1297 1.379 . S
C1292 N1299 1.356 . S
C1293 C1292 1.363 . S
C1293 C1296 1.363 . S
N1294 C1296 1.356 . S
N1294 H1306 0.984 . S
N1294 H1307 0.985 . S
N1295 C1297 1.356 . S
N1295 H1300 0.984 . S
N1295 H1301 0.985 . S
C1296 C1290 1.379 . S
C1296 C1293 1.363 . S
C1296 N1294 1.356 . S
C1297 C1291 1.363 . S
C1297 C1292 1.379 . S
C1297 N1295 1.356 . S
N1298 C1290 1.356 . S
N1298 H1304 0.984 . S
N1298 H1305 0.984 . S
N1299 C1292 1.356 . S
N1299 H1302 0.984 . S
N1299 H1303 0.985 . S
H1300 N1295 0.984 . S
H1301 N1295 0.985 . S
H1302 N1299 0.984 . S
H1303 N1299 0.985 . S
H1304 N1298 0.984 . S
H1305 N1298 0.984 . S
H1306 N1294 0.984 . S
H1307 N1294 0.985 . S
C1308 C1309 1.363 . S
C1308 C1314 1.379 . S
C1308 N1316 1.356 . S
C1309 C1308 1.363 . S
C1309 C1315 1.363 . S
C1310 C1311 1.363 . S
C1310 C1315 1.379 . S
C1310 N1317 1.356 . S
C1311 C1310 1.363 . S
C1311 C1314 1.363 . S
N1312 C1314 1.356 . S
N1312 H1324 0.984 . S
N1312 H1325 0.985 . S
N1313 C1315 1.356 . S
N1313 H1318 0.984 . S
N1313 H1319 0.985 . S
C1314 C1308 1.379 . S
C1314 C1311 1.363 . S
C1314 N1312 1.356 . S
C1315 C1309 1.363 . S
C1315 C1310 1.379 . S
C1315 N1313 1.356 . S
N1316 C1308 1.356 . S
N1316 H1322 0.984 . S
N1316 H1323 0.984 . S
N1317 C1310 1.356 . S
N1317 H1320 0.984 . S
N1317 H1321 0.985 . S
H1318 N1313 0.984 . S
H1319 N1313 0.985 . S
H1320 N1317 0.984 . S
H1321 N1317 0.985 . S
H1322 N1316 0.984 . S
H1323 N1316 0.984 . S
H1324 N1312 0.984 . S
H1325 N1312 0.985 . S
C1326 C1327 1.363 . S
C1326 C1332 1.379 . S
C1326 N1334 1.356 . S
C1327 C1326 1.363 . S
C1327 C1333 1.363 . S
C1328 C1329 1.363 . S
C1328 C1333 1.379 . S
C1328 N1335 1.356 . S
C1329 C1328 1.363 . S
C1329 C1332 1.363 . S
N1330 C1332 1.356 . S
N1330 H1342 0.984 . S
N1330 H1343 0.985 . S
N1331 C1333 1.356 . S
N1331 H1336 0.984 . S
N1331 H1337 0.985 . S
C1332 C1326 1.379 . S
C1332 C1329 1.363 . S
C1332 N1330 1.356 . S
C1333 C1327 1.363 . S
C1333 C1328 1.379 . S
C1333 N1331 1.356 . S
N1334 C1326 1.356 . S
N1334 H1340 0.984 . S
N1334 H1341 0.984 . S
N1335 C1328 1.356 . S
N1335 H1338 0.984 . S
N1335 H1339 0.985 . S
H1336 N1331 0.984 . S
H1337 N1331 0.985 . S
H1338 N1335 0.984 . S
H1339 N1335 0.985 . S
H1340 N1334 0.984 . S
H1341 N1334 0.984 . S
H1342 N1330 0.984 . S
H1343 N1330 0.985 . S
C1344 C1345 1.363 . S
C1344 C1350 1.379 1_655 S
C1344 N1352 1.356 . S
C1345 C1344 1.363 . S
C1345 C1351 1.363 . S
C1346 C1347 1.363 . S
C1346 C1351 1.379 1_455 S
C1346 N1353 1.356 . S
C1347 C1346 1.363 . S
C1347 C1350 1.363 . S
N1348 C1350 1.356 . S
N1348 H1360 0.984 . S
N1348 H1361 0.985 . S
N1349 C1351 1.356 . S
N1349 H1354 0.984 . S
N1349 H1355 0.985 . S
C1350 C1344 1.379 1_455 S
C1350 C1347 1.363 . S
C1350 N1348 1.356 . S
C1351 C1345 1.363 . S
C1351 C1346 1.379 1_655 S
C1351 N1349 1.356 . S
N1352 C1344 1.356 . S
N1352 H1358 0.984 . S
N1352 H1359 0.984 . S
N1353 C1346 1.356 . S
N1353 H1356 0.984 . S
N1353 H1357 0.985 . S
H1354 N1349 0.984 . S
H1355 N1349 0.985 . S
H1356 N1353 0.984 . S
H1357 N1353 0.985 . S
H1358 N1352 0.984 . S
H1359 N1352 0.984 . S
H1360 N1348 0.984 . S
H1361 N1348 0.985 . S
C1362 C1363 1.363 1_455 S
C1362 C1368 1.379 . S
C1362 N1370 1.356 . S
C1363 C1362 1.363 1_655 S
C1363 C1369 1.363 . S
C1364 C1365 1.363 1_655 S
C1364 C1369 1.379 . S
C1364 N1371 1.356 . S
C1365 C1364 1.363 1_455 S
C1365 C1368 1.363 . S
N1366 C1368 1.356 . S
N1366 H1378 0.984 . S
N1366 H1379 0.985 . S
N1367 C1369 1.356 . S
N1367 H1372 0.984 . S
N1367 H1373 0.985 . S
C1368 C1362 1.379 . S
C1368 C1365 1.363 . S
C1368 N1366 1.356 . S
C1369 C1363 1.363 . S
C1369 C1364 1.379 . S
C1369 N1367 1.356 . S
N1370 C1362 1.356 . S
N1370 H1376 0.984 . S
N1370 H1377 0.984 . S
N1371 C1364 1.356 . S
N1371 H1374 0.984 . S
N1371 H1375 0.985 . S
H1372 N1367 0.984 . S
H1373 N1367 0.985 . S
H1374 N1371 0.984 . S
H1375 N1371 0.985 . S
H1376 N1370 0.984 . S
H1377 N1370 0.984 . S
H1378 N1366 0.984 . S
H1379 N1366 0.985 . S
C1380 C1381 1.363 . S
C1380 C1386 1.379 . S
C1380 N1388 1.356 . S
C1381 C1380 1.363 . S
C1381 C1387 1.363 . S
C1382 C1383 1.363 . S
C1382 C1387 1.379 . S
C1382 N1389 1.356 . S
C1383 C1382 1.363 . S
C1383 C1386 1.363 . S
N1384 C1386 1.356 . S
N1384 H1396 0.984 . S
N1384 H1397 0.985 . S
N1385 C1387 1.356 . S
N1385 H1390 0.984 . S
N1385 H1391 0.985 . S
C1386 C1380 1.379 . S
C1386 C1383 1.363 . S
C1386 N1384 1.356 . S
C1387 C1381 1.363 . S
C1387 C1382 1.379 . S
C1387 N1385 1.356 . S
N1388 C1380 1.356 . S
N1388 H1394 0.984 . S
N1388 H1395 0.984 . S
N1389 C1382 1.356 . S
N1389 H1392 0.984 . S
N1389 H1393 0.985 . S
H1390 N1385 0.984 . S
H1391 N1385 0.985 . S
H1392 N1389 0.984 . S
H1393 N1389 0.985 . S
H1394 N1388 0.984 . S
H1395 N1388 0.984 . S
H1396 N1384 0.984 . S
H1397 N1384 0.985 . S
C1398 C1399 1.363 . S
C1398 C1404 1.379 . S
C1398 N1406 1.356 . S
C1399 C1398 1.363 . S
C1399 C1405 1.363 1_554 S
C1400 C1401 1.363 1_556 S
C1400 C1405 1.379 . S
C1400 N1407 1.356 . S
C1401 C1400 1.363 1_554 S
C1401 C1404 1.363 . S
N1402 C1404 1.356 . S
N1402 H1414 0.984 . S
N1402 H1415 0.985 . S
N1403 C1405 1.356 . S
N1403 H1408 0.984 . S
N1403 H1409 0.985 . S
C1404 C1398 1.379 . S
C1404 C1401 1.363 . S
C1404 N1402 1.356 . S
C1405 C1399 1.363 1_556 S
C1405 C1400 1.379 . S
C1405 N1403 1.356 . S
N1406 C1398 1.356 . S
N1406 H1412 0.984 . S
N1406 H1413 0.984 . S
N1407 C1400 1.356 . S
N1407 H1410 0.984 . S
N1407 H1411 0.985 . S
H1408 N1403 0.984 . S
H1409 N1403 0.985 . S
H1410 N1407 0.984 . S
H1411 N1407 0.985 . S
H1412 N1406 0.984 . S
H1413 N1406 0.984 . S
H1414 N1402 0.984 . S
H1415 N1402 0.985 . S
C1416 C1417 1.363 . S
C1416 C1422 1.379 1_655 S
C1416 N1424 1.356 . S
C1417 C1416 1.363 . S
C1417 C1423 1.363 . S
C1418 C1419 1.363 . S
C1418 C1423 1.379 1_455 S
C1418 N1425 1.356 . S
C1419 C1418 1.363 . S
C1419 C1422 1.363 . S
N1420 C1422 1.356 . S
N1420 H1432 0.984 . S
N1420 H1433 0.985 . S
N1421 C1423 1.356 . S
N1421 H1426 0.984 . S
N1421 H1427 0.985 . S
C1422 C1416 1.379 1_455 S
C1422 C1419 1.363 . S
C1422 N1420 1.356 . S
C1423 C1417 1.363 . S
C1423 C1418 1.379 1_655 S
C1423 N1421 1.356 . S
N1424 C1416 1.356 . S
N1424 H1430 0.984 . S
N1424 H1431 0.984 . S
N1425 C1418 1.356 . S
N1425 H1428 0.984 . S
N1425 H1429 0.985 . S
H1426 N1421 0.984 . S
H1427 N1421 0.985 . S
H1428 N1425 0.984 . S
H1429 N1425 0.985 . S
H1430 N1424 0.984 . S
H1431 N1424 0.984 . S
H1432 N1420 0.984 . S
H1433 N1420 0.985 . S
C1434 C1435 1.363 . S
C1434 C1440 1.379 . S
C1434 N1442 1.356 . S
C1435 C1434 1.363 . S
C1435 C1441 1.363 . S
C1436 C1437 1.363 . S
C1436 C1441 1.379 . S
C1436 N1443 1.356 . S
C1437 C1436 1.363 . S
C1437 C1440 1.363 . S
N1438 C1440 1.356 . S
N1438 H1450 0.984 . S
N1438 H1451 0.985 . S
N1439 C1441 1.356 . S
N1439 H1444 0.984 . S
N1439 H1445 0.985 . S
C1440 C1434 1.379 . S
C1440 C1437 1.363 . S
C1440 N1438 1.356 . S
C1441 C1435 1.363 . S
C1441 C1436 1.379 . S
C1441 N1439 1.356 . S
N1442 C1434 1.356 . S
N1442 H1448 0.984 . S
N1442 H1449 0.984 . S
N1443 C1436 1.356 . S
N1443 H1446 0.984 . S
N1443 H1447 0.985 . S
H1444 N1439 0.984 . S
H1445 N1439 0.985 . S
H1446 N1443 0.984 . S
H1447 N1443 0.985 . S
H1448 N1442 0.984 . S
H1449 N1442 0.984 . S
H1450 N1438 0.984 . S
H1451 N1438 0.985 . S
C1452 C1453 1.363 . S
C1452 C1458 1.379 . S
C1452 N1460 1.356 . S
C1453 C1452 1.363 . S
C1453 C1459 1.363 . S
C1454 C1455 1.363 . S
C1454 C1459 1.379 . S
C1454 N1461 1.356 . S
C1455 C1454 1.363 . S
C1455 C1458 1.363 . S
N1456 C1458 1.356 . S
N1456 H1468 0.984 . S
N1456 H1469 0.985 . S
N1457 C1459 1.356 . S
N1457 H1462 0.984 . S
N1457 H1463 0.985 . S
C1458 C1452 1.379 . S
C1458 C1455 1.363 . S
C1458 N1456 1.356 . S
C1459 C1453 1.363 . S
C1459 C1454 1.379 . S
C1459 N1457 1.356 . S
N1460 C1452 1.356 . S
N1460 H1466 0.984 . S
N1460 H1467 0.984 . S
N1461 C1454 1.356 . S
N1461 H1464 0.984 . S
N1461 H1465 0.985 . S
H1462 N1457 0.984 . S
H1463 N1457 0.985 . S
H1464 N1461 0.984 . S
H1465 N1461 0.985 . S
H1466 N1460 0.984 . S
H1467 N1460 0.984 . S
H1468 N1456 0.984 . S
H1469 N1456 0.985 . S
C1470 C1471 1.363 1_654 S
C1470 C1476 1.379 . S
C1470 N1478 1.356 . S
C1471 C1470 1.363 1_456 S
C1471 C1477 1.363 . S
C1472 C1473 1.363 1_455 S
C1472 C1477 1.379 . S
C1472 N1479 1.356 . S
C1473 C1472 1.363 1_655 S
C1473 C1476 1.363 1_556 S
N1474 C1476 1.356 . S
N1474 H1486 0.984 . S
N1474 H1487 0.985 . S
N1475 C1477 1.356 . S
N1475 H1480 0.984 . S
N1475 H1481 0.985 . S
C1476 C1470 1.379 . S
C1476 C1473 1.363 1_554 S
C1476 N1474 1.356 . S
C1477 C1471 1.363 . S
C1477 C1472 1.379 . S
C1477 N1475 1.356 . S
N1478 C1470 1.356 . S
N1478 H1484 0.984 . S
N1478 H1485 0.984 . S
N1479 C1472 1.356 . S
N1479 H1482 0.984 . S
N1479 H1483 0.985 . S
H1480 N1475 0.984 . S
H1481 N1475 0.985 . S
H1482 N1479 0.984 . S
H1483 N1479 0.985 . S
H1484 N1478 0.984 . S
H1485 N1478 0.984 . S
H1486 N1474 0.984 . S
H1487 N1474 0.985 . S
C1488 C1489 1.363 . S
C1488 C1494 1.379 1_655 S
C1488 N1496 1.356 . S
C1489 C1488 1.363 . S
C1489 C1495 1.363 . S
C1490 C1491 1.363 . S
C1490 C1495 1.379 1_455 S
C1490 N1497 1.356 . S
C1491 C1490 1.363 . S
C1491 C1494 1.363 . S
N1492 C1494 1.356 . S
N1492 H1504 0.984 . S
N1492 H1505 0.985 . S
N1493 C1495 1.356 . S
N1493 H1498 0.984 . S
N1493 H1499 0.985 . S
C1494 C1488 1.379 1_455 S
C1494 C1491 1.363 . S
C1494 N1492 1.356 . S
C1495 C1489 1.363 . S
C1495 C1490 1.379 1_655 S
C1495 N1493 1.356 . S
N1496 C1488 1.356 . S
N1496 H1502 0.984 . S
N1496 H1503 0.984 . S
N1497 C1490 1.356 . S
N1497 H1500 0.984 . S
N1497 H1501 0.985 . S
H1498 N1493 0.984 . S
H1499 N1493 0.985 . S
H1500 N1497 0.984 . S
H1501 N1497 0.985 . S
H1502 N1496 0.984 . S
H1503 N1496 0.984 . S
H1504 N1492 0.984 . S
H1505 N1492 0.985 . S
C1506 C1507 1.363 1_655 S
C1506 C1512 1.379 . S
C1506 N1514 1.356 . S
C1507 C1506 1.363 1_455 S
C1507 C1513 1.363 . S
C1508 C1509 1.363 1_455 S
C1508 C1513 1.379 . S
C1508 N1515 1.356 . S
C1509 C1508 1.363 1_655 S
C1509 C1512 1.363 . S
N1510 C1512 1.356 . S
N1510 H1522 0.984 . S
N1510 H1523 0.985 . S
N1511 C1513 1.356 . S
N1511 H1516 0.984 . S
N1511 H1517 0.985 . S
C1512 C1506 1.379 . S
C1512 C1509 1.363 . S
C1512 N1510 1.356 . S
C1513 C1507 1.363 . S
C1513 C1508 1.379 . S
C1513 N1511 1.356 . S
N1514 C1506 1.356 . S
N1514 H1520 0.984 . S
N1514 H1521 0.984 . S
N1515 C1508 1.356 . S
N1515 H1518 0.984 . S
N1515 H1519 0.985 . S
H1516 N1511 0.984 . S
H1517 N1511 0.985 . S
H1518 N1515 0.984 . S
H1519 N1515 0.985 . S
H1520 N1514 0.984 . S
H1521 N1514 0.984 . S
H1522 N1510 0.984 . S
H1523 N1510 0.985 . S
C1524 C1525 1.363 . S
C1524 C1530 1.379 . S
C1524 N1532 1.356 . S
C1525 C1524 1.363 . S
C1525 C1531 1.363 . S
C1526 C1527 1.363 . S
C1526 C1531 1.379 . S
C1526 N1533 1.356 . S
C1527 C1526 1.363 . S
C1527 C1530 1.363 . S
N1528 C1530 1.356 . S
N1528 H1540 0.984 . S
N1528 H1541 0.985 . S
N1529 C1531 1.356 . S
N1529 H1534 0.984 . S
N1529 H1535 0.985 . S
C1530 C1524 1.379 . S
C1530 C1527 1.363 . S
C1530 N1528 1.356 . S
C1531 C1525 1.363 . S
C1531 C1526 1.379 . S
C1531 N1529 1.356 . S
N1532 C1524 1.356 . S
N1532 H1538 0.984 . S
N1532 H1539 0.984 . S
N1533 C1526 1.356 . S
N1533 H1536 0.984 . S
N1533 H1537 0.985 . S
H1534 N1529 0.984 . S
H1535 N1529 0.985 . S
H1536 N1533 0.984 . S
H1537 N1533 0.985 . S
H1538 N1532 0.984 . S
H1539 N1532 0.984 . S
H1540 N1528 0.984 . S
H1541 N1528 0.985 . S
C1542 C1543 1.363 1_554 S
C1542 C1548 1.379 . S
C1542 N1550 1.356 . S
C1543 C1542 1.363 1_556 S
C1543 C1549 1.363 . S
C1544 C1545 1.363 . S
C1544 C1549 1.379 . S
C1544 N1551 1.356 . S
C1545 C1544 1.363 . S
C1545 C1548 1.363 1_556 S
N1546 C1548 1.356 . S
N1546 H1558 0.984 . S
N1546 H1559 0.985 . S
N1547 C1549 1.356 . S
N1547 H1552 0.984 . S
N1547 H1553 0.985 . S
C1548 C1542 1.379 . S
C1548 C1545 1.363 1_554 S
C1548 N1546 1.356 . S
C1549 C1543 1.363 . S
C1549 C1544 1.379 . S
C1549 N1547 1.356 . S
N1550 C1542 1.356 . S
N1550 H1556 0.984 . S
N1550 H1557 0.984 . S
N1551 C1544 1.356 . S
N1551 H1554 0.984 . S
N1551 H1555 0.985 . S
H1552 N1547 0.984 . S
H1553 N1547 0.985 . S
H1554 N1551 0.984 . S
H1555 N1551 0.985 . S
H1556 N1550 0.984 . S
H1557 N1550 0.984 . S
H1558 N1546 0.984 . S
H1559 N1546 0.985 . S
C1560 C1561 1.363 . S
C1560 C1566 1.379 1_655 S
C1560 N1568 1.356 . S
C1561 C1560 1.363 . S
C1561 C1567 1.363 . S
C1562 C1563 1.363 . S
C1562 C1567 1.379 1_455 S
C1562 N1569 1.356 . S
C1563 C1562 1.363 . S
C1563 C1566 1.363 . S
N1564 C1566 1.356 . S
N1564 H1576 0.984 . S
N1564 H1577 0.985 . S
N1565 C1567 1.356 . S
N1565 H1570 0.984 . S
N1565 H1571 0.985 . S
C1566 C1560 1.379 1_455 S
C1566 C1563 1.363 . S
C1566 N1564 1.356 . S
C1567 C1561 1.363 . S
C1567 C1562 1.379 1_655 S
C1567 N1565 1.356 . S
N1568 C1560 1.356 . S
N1568 H1574 0.984 . S
N1568 H1575 0.984 . S
N1569 C1562 1.356 . S
N1569 H1572 0.984 . S
N1569 H1573 0.985 . S
H1570 N1565 0.984 . S
H1571 N1565 0.985 . S
H1572 N1569 0.984 . S
H1573 N1569 0.985 . S
H1574 N1568 0.984 . S
H1575 N1568 0.984 . S
H1576 N1564 0.984 . S
H1577 N1564 0.985 . S
C1578 C1579 1.363 . S
C1578 C1584 1.379 . S
C1578 N1586 1.356 . S
C1579 C1578 1.363 . S
C1579 C1585 1.363 . S
C1580 C1581 1.363 . S
C1580 C1585 1.379 . S
C1580 N1587 1.356 . S
C1581 C1580 1.363 . S
C1581 C1584 1.363 . S
N1582 C1584 1.356 . S
N1582 H1594 0.984 . S
N1582 H1595 0.985 . S
N1583 C1585 1.356 . S
N1583 H1588 0.984 . S
N1583 H1589 0.985 . S
C1584 C1578 1.379 . S
C1584 C1581 1.363 . S
C1584 N1582 1.356 . S
C1585 C1579 1.363 . S
C1585 C1580 1.379 . S
C1585 N1583 1.356 . S
N1586 C1578 1.356 . S
N1586 H1592 0.984 . S
N1586 H1593 0.984 . S
N1587 C1580 1.356 . S
N1587 H1590 0.984 . S
N1587 H1591 0.985 . S
H1588 N1583 0.984 . S
H1589 N1583 0.985 . S
H1590 N1587 0.984 . S
H1591 N1587 0.985 . S
H1592 N1586 0.984 . S
H1593 N1586 0.984 . S
H1594 N1582 0.984 . S
H1595 N1582 0.985 . S
C1596 C1597 1.363 . S
C1596 C1602 1.379 . S
C1596 N1604 1.356 . S
C1597 C1596 1.363 . S
C1597 C1603 1.363 . S
C1598 C1599 1.363 . S
C1598 C1603 1.379 . S
C1598 N1605 1.356 . S
C1599 C1598 1.363 . S
C1599 C1602 1.363 . S
N1600 C1602 1.356 . S
N1600 H1612 0.984 . S
N1600 H1613 0.985 . S
N1601 C1603 1.356 . S
N1601 H1606 0.984 . S
N1601 H1607 0.985 . S
C1602 C1596 1.379 . S
C1602 C1599 1.363 . S
C1602 N1600 1.356 . S
C1603 C1597 1.363 . S
C1603 C1598 1.379 . S
C1603 N1601 1.356 . S
N1604 C1596 1.356 . S
N1604 H1610 0.984 . S
N1604 H1611 0.984 . S
N1605 C1598 1.356 . S
N1605 H1608 0.984 . S
N1605 H1609 0.985 . S
H1606 N1601 0.984 . S
H1607 N1601 0.985 . S
H1608 N1605 0.984 . S
H1609 N1605 0.985 . S
H1610 N1604 0.984 . S
H1611 N1604 0.984 . S
H1612 N1600 0.984 . S
H1613 N1600 0.985 . S
C1614 C1615 1.363 1_556 S
C1614 C1620 1.379 . S
C1614 N1622 1.356 . S
C1615 C1614 1.363 1_554 S
C1615 C1621 1.363 1_455 S
C1616 C1617 1.363 . S
C1616 C1621 1.379 . S
C1616 N1623 1.356 . S
C1617 C1616 1.363 . S
C1617 C1620 1.363 1_654 S
N1618 C1620 1.356 . S
N1618 H1630 0.984 . S
N1618 H1631 0.985 . S
N1619 C1621 1.356 . S
N1619 H1624 0.984 . S
N1619 H1625 0.985 . S
C1620 C1614 1.379 . S
C1620 C1617 1.363 1_456 S
C1620 N1618 1.356 . S
C1621 C1615 1.363 1_655 S
C1621 C1616 1.379 . S
C1621 N1619 1.356 . S
N1622 C1614 1.356 . S
N1622 H1628 0.984 . S
N1622 H1629 0.984 . S
N1623 C1616 1.356 . S
N1623 H1626 0.984 . S
N1623 H1627 0.985 . S
H1624 N1619 0.984 . S
H1625 N1619 0.985 . S
H1626 N1623 0.984 . S
H1627 N1623 0.985 . S
H1628 N1622 0.984 . S
H1629 N1622 0.984 . S
H1630 N1618 0.984 . S
H1631 N1618 0.985 . S
C1632 C1633 1.363 . S
C1632 C1638 1.379 . S
C1632 N1640 1.356 . S
C1633 C1632 1.363 . S
C1633 C1639 1.363 . S
C1634 C1635 1.363 . S
C1634 C1639 1.379 . S
C1634 N1641 1.356 . S
C1635 C1634 1.363 . S
C1635 C1638 1.363 . S
N1636 C1638 1.356 . S
N1636 H1648 0.984 . S
N1636 H1649 0.985 . S
N1637 C1639 1.356 . S
N1637 H1642 0.984 . S
N1637 H1643 0.985 . S
C1638 C1632 1.379 . S
C1638 C1635 1.363 . S
C1638 N1636 1.356 . S
C1639 C1633 1.363 . S
C1639 C1634 1.379 . S
C1639 N1637 1.356 . S
N1640 C1632 1.356 . S
N1640 H1646 0.984 . S
N1640 H1647 0.984 . S
N1641 C1634 1.356 . S
N1641 H1644 0.984 . S
N1641 H1645 0.985 . S
H1642 N1637 0.984 . S
H1643 N1637 0.985 . S
H1644 N1641 0.984 . S
H1645 N1641 0.985 . S
H1646 N1640 0.984 . S
H1647 N1640 0.984 . S
H1648 N1636 0.984 . S
H1649 N1636 0.985 . S
C1650 C1651 1.363 . S
C1650 C1656 1.379 . S
C1650 N1658 1.356 . S
C1651 C1650 1.363 . S
C1651 C1657 1.363 . S
C1652 C1653 1.363 . S
C1652 C1657 1.379 . S
C1652 N1659 1.356 . S
C1653 C1652 1.363 . S
C1653 C1656 1.363 . S
N1654 C1656 1.356 . S
N1654 H1666 0.984 . S
N1654 H1667 0.985 . S
N1655 C1657 1.356 . S
N1655 H1660 0.984 . S
N1655 H1661 0.985 . S
C1656 C1650 1.379 . S
C1656 C1653 1.363 . S
C1656 N1654 1.356 . S
C1657 C1651 1.363 . S
C1657 C1652 1.379 . S
C1657 N1655 1.356 . S
N1658 C1650 1.356 . S
N1658 H1664 0.984 . S
N1658 H1665 0.984 . S
N1659 C1652 1.356 . S
N1659 H1662 0.984 1_655 S
N1659 H1663 0.985 . S
H1660 N1655 0.984 . S
H1661 N1655 0.985 . S
H1662 N1659 0.984 1_455 S
H1663 N1659 0.985 . S
H1664 N1658 0.984 . S
H1665 N1658 0.984 . S
H1666 N1654 0.984 . S
H1667 N1654 0.985 . S
C1668 C1669 1.363 . S
C1668 C1674 1.379 . S
C1668 N1676 1.356 . S
C1669 C1668 1.363 . S
C1669 C1675 1.363 . S
C1670 C1671 1.363 . S
C1670 C1675 1.379 . S
C1670 N1677 1.356 . S
C1671 C1670 1.363 . S
C1671 C1674 1.363 . S
N1672 C1674 1.356 . S
N1672 H1684 0.984 . S
N1672 H1685 0.985 . S
N1673 C1675 1.356 . S
N1673 H1678 0.984 . S
N1673 H1679 0.985 . S
C1674 C1668 1.379 . S
C1674 C1671 1.363 . S
C1674 N1672 1.356 . S
C1675 C1669 1.363 . S
C1675 C1670 1.379 . S
C1675 N1673 1.356 . S
N1676 C1668 1.356 . S
N1676 H1682 0.984 . S
N1676 H1683 0.984 . S
N1677 C1670 1.356 . S
N1677 H1680 0.984 . S
N1677 H1681 0.985 . S
H1678 N1673 0.984 . S
H1679 N1673 0.985 . S
H1680 N1677 0.984 . S
H1681 N1677 0.985 . S
H1682 N1676 0.984 . S
H1683 N1676 0.984 . S
H1684 N1672 0.984 . S
H1685 N1672 0.985 . S
C1686 C1687 1.363 . S
C1686 C1692 1.379 . S
C1686 N1694 1.356 . S
C1687 C1686 1.363 . S
C1687 C1693 1.363 . S
C1688 C1689 1.363 . S
C1688 C1693 1.379 . S
C1688 N1695 1.356 . S
C1689 C1688 1.363 . S
C1689 C1692 1.363 . S
N1690 C1692 1.356 . S
N1690 H1702 0.984 . S
N1690 H1703 0.985 . S
N1691 C1693 1.356 . S
N1691 H1696 0.984 . S
N1691 H1697 0.985 . S
C1692 C1686 1.379 . S
C1692 C1689 1.363 . S
C1692 N1690 1.356 . S
C1693 C1687 1.363 . S
C1693 C1688 1.379 . S
C1693 N1691 1.356 . S
N1694 C1686 1.356 . S
N1694 H1700 0.984 . S
N1694 H1701 0.984 . S
N1695 C1688 1.356 . S
N1695 H1698 0.984 . S
N1695 H1699 0.985 . S
H1696 N1691 0.984 . S
H1697 N1691 0.985 . S
H1698 N1695 0.984 . S
H1699 N1695 0.985 . S
H1700 N1694 0.984 . S
H1701 N1694 0.984 . S
H1702 N1690 0.984 . S
H1703 N1690 0.985 . S
C1704 C1705 1.363 . S
C1704 C1710 1.379 . S
C1704 N1712 1.356 . S
C1705 C1704 1.363 . S
C1705 C1711 1.363 . S
C1706 C1707 1.363 . S
C1706 C1711 1.379 . S
C1706 N1713 1.356 . S
C1707 C1706 1.363 . S
C1707 C1710 1.363 . S
N1708 C1710 1.356 . S
N1708 H1720 0.984 . S
N1708 H1721 0.985 . S
N1709 C1711 1.356 . S
N1709 H1714 0.984 . S
N1709 H1715 0.985 . S
C1710 C1704 1.379 . S
C1710 C1707 1.363 . S
C1710 N1708 1.356 . S
C1711 C1705 1.363 . S
C1711 C1706 1.379 . S
C1711 N1709 1.356 . S
N1712 C1704 1.356 . S
N1712 H1718 0.984 . S
N1712 H1719 0.984 . S
N1713 C1706 1.356 . S
N1713 H1716 0.984 . S
N1713 H1717 0.985 . S
H1714 N1709 0.984 . S
H1715 N1709 0.985 . S
H1716 N1713 0.984 . S
H1717 N1713 0.985 . S
H1718 N1712 0.984 . S
H1719 N1712 0.984 . S
H1720 N1708 0.984 . S
H1721 N1708 0.985 . S
C1722 C1723 1.363 . S
C1722 C1728 1.379 . S
C1722 N1730 1.356 . S
C1723 C1722 1.363 . S
C1723 C1729 1.363 . S
C1724 C1725 1.363 . S
C1724 C1729 1.379 . S
C1724 N1731 1.356 . S
C1725 C1724 1.363 . S
C1725 C1728 1.363 . S
N1726 C1728 1.356 . S
N1726 H1738 0.984 . S
N1726 H1739 0.985 . S
N1727 C1729 1.356 . S
N1727 H1732 0.984 . S
N1727 H1733 0.985 . S
C1728 C1722 1.379 . S
C1728 C1725 1.363 . S
C1728 N1726 1.356 . S
C1729 C1723 1.363 . S
C1729 C1724 1.379 . S
C1729 N1727 1.356 . S
N1730 C1722 1.356 . S
N1730 H1736 0.984 . S
N1730 H1737 0.984 . S
N1731 C1724 1.356 . S
N1731 H1734 0.984 . S
N1731 H1735 0.985 . S
H1732 N1727 0.984 . S
H1733 N1727 0.985 . S
H1734 N1731 0.984 . S
H1735 N1731 0.985 . S
H1736 N1730 0.984 . S
H1737 N1730 0.984 . S
H1738 N1726 0.984 . S
H1739 N1726 0.985 . S
C1740 C1741 1.363 . S
C1740 C1746 1.379 . S
C1740 N1748 1.356 . S
C1741 C1740 1.363 . S
C1741 C1747 1.363 . S
C1742 C1743 1.363 . S
C1742 C1747 1.379 . S
C1742 N1749 1.356 . S
C1743 C1742 1.363 . S
C1743 C1746 1.363 . S
N1744 C1746 1.356 . S
N1744 H1756 0.984 . S
N1744 H1757 0.985 . S
N1745 C1747 1.356 . S
N1745 H1750 0.984 . S
N1745 H1751 0.985 . S
C1746 C1740 1.379 . S
C1746 C1743 1.363 . S
C1746 N1744 1.356 . S
C1747 C1741 1.363 . S
C1747 C1742 1.379 . S
C1747 N1745 1.356 . S
N1748 C1740 1.356 . S
N1748 H1754 0.984 . S
N1748 H1755 0.984 . S
N1749 C1742 1.356 . S
N1749 H1752 0.984 . S
N1749 H1753 0.985 . S
H1750 N1745 0.984 . S
H1751 N1745 0.985 . S
H1752 N1749 0.984 . S
H1753 N1749 0.985 . S
H1754 N1748 0.984 . S
H1755 N1748 0.984 . S
H1756 N1744 0.984 . S
H1757 N1744 0.985 . S
C1758 C1759 1.363 . S
C1758 C1764 1.379 . S
C1758 N1766 1.356 . S
C1759 C1758 1.363 . S
C1759 C1765 1.363 . S
C1760 C1761 1.363 . S
C1760 C1765 1.379 . S
C1760 N1767 1.356 . S
C1761 C1760 1.363 . S
C1761 C1764 1.363 . S
N1762 C1764 1.356 . S
N1762 H1774 0.984 . S
N1762 H1775 0.985 . S
N1763 C1765 1.356 . S
N1763 H1768 0.968 1_655 S
N1763 H1769 0.985 . S
C1764 C1758 1.379 . S
C1764 C1761 1.363 . S
C1764 N1762 1.356 . S
C1765 C1759 1.363 . S
C1765 C1760 1.379 . S
C1765 N1763 1.356 . S
N1766 C1758 1.356 . S
N1766 H1772 0.984 . S
N1766 H1773 0.984 . S
N1767 C1760 1.356 . S
N1767 H1770 0.984 . S
N1767 H1771 0.985 . S
H1768 N1763 0.968 1_455 S
H1769 N1763 0.985 . S
H1770 N1767 0.984 . S
H1771 N1767 0.985 . S
H1772 N1766 0.984 . S
H1773 N1766 0.984 . S
H1774 N1762 0.984 . S
H1775 N1762 0.985 . S
C1776 C1777 1.363 . S
C1776 C1782 1.379 . S
C1776 N1784 1.356 . S
C1777 C1776 1.363 . S
C1777 C1783 1.363 . S
C1778 C1779 1.363 . S
C1778 C1783 1.379 . S
C1778 N1785 1.356 . S
C1779 C1778 1.363 . S
C1779 C1782 1.363 . S
N1780 C1782 1.356 . S
N1780 H1792 0.984 . S
N1780 H1793 0.985 . S
N1781 C1783 1.356 . S
N1781 H1786 0.984 . S
N1781 H1787 0.985 . S
C1782 C1776 1.379 . S
C1782 C1779 1.363 . S
C1782 N1780 1.356 . S
C1783 C1777 1.363 . S
C1783 C1778 1.379 . S
C1783 N1781 1.356 . S
N1784 C1776 1.356 . S
N1784 H1790 0.984 . S
N1784 H1791 0.984 . S
N1785 C1778 1.356 . S
N1785 H1788 0.984 . S
N1785 H1789 0.985 . S
H1786 N1781 0.984 . S
H1787 N1781 0.985 . S
H1788 N1785 0.984 . S
H1789 N1785 0.985 . S
H1790 N1784 0.984 . S
H1791 N1784 0.984 . S
H1792 N1780 0.984 . S
H1793 N1780 0.985 . S
C1794 C1795 1.363 . S
C1794 C1800 1.379 . S
C1794 N1802 1.356 . S
C1795 C1794 1.363 . S
C1795 C1801 1.363 . S
C1796 C1797 1.363 . S
C1796 C1801 1.379 . S
C1796 N1803 1.356 . S
C1797 C1796 1.363 . S
C1797 C1800 1.363 . S
N1798 C1800 1.356 . S
N1798 H1810 0.984 . S
N1798 H1811 0.985 . S
N1799 C1801 1.356 . S
N1799 H1804 0.984 . S
N1799 H1805 0.985 . S
C1800 C1794 1.379 . S
C1800 C1797 1.363 . S
C1800 N1798 1.356 . S
C1801 C1795 1.363 . S
C1801 C1796 1.379 . S
C1801 N1799 1.356 . S
N1802 C1794 1.356 . S
N1802 H1808 0.984 . S
N1802 H1809 0.984 1_455 S
N1803 C1796 1.356 . S
N1803 H1806 0.984 . S
N1803 H1807 0.985 . S
H1804 N1799 0.984 . S
H1805 N1799 0.985 . S
H1806 N1803 0.984 . S
H1807 N1803 0.985 . S
H1808 N1802 0.984 . S
H1809 N1802 0.984 1_655 S
H1810 N1798 0.984 . S
H1811 N1798 0.985 . S
C1812 C1813 1.363 . S
C1812 C1818 1.379 . S
C1812 N1820 1.356 . S
C1813 C1812 1.363 . S
C1813 C1819 1.363 . S
C1814 C1815 1.363 . S
C1814 C1819 1.379 . S
C1814 N1821 1.356 . S
C1815 C1814 1.363 . S
C1815 C1818 1.363 . S
N1816 C1818 1.356 . S
N1816 H1828 0.984 . S
N1816 H1829 0.985 . S
N1817 C1819 1.356 . S
N1817 H1822 0.984 . S
N1817 H1823 0.985 . S
C1818 C1812 1.379 . S
C1818 C1815 1.363 . S
C1818 N1816 1.356 . S
C1819 C1813 1.363 . S
C1819 C1814 1.379 . S
C1819 N1817 1.356 . S
N1820 C1812 1.356 . S
N1820 H1826 0.984 . S
N1820 H1827 0.984 . S
N1821 C1814 1.356 . S
N1821 H1824 0.984 . S
N1821 H1825 0.985 . S
H1822 N1817 0.984 . S
H1823 N1817 0.985 . S
H1824 N1821 0.984 . S
H1825 N1821 0.985 . S
H1826 N1820 0.984 . S
H1827 N1820 0.984 . S
H1828 N1816 0.984 . S
H1829 N1816 0.985 . S
C1830 C1831 1.363 . S
C1830 C1836 1.379 . S
C1830 N1838 1.356 . S
C1831 C1830 1.363 . S
C1831 C1837 1.363 . S
C1832 C1833 1.363 . S
C1832 C1837 1.379 . S
C1832 N1839 1.356 . S
C1833 C1832 1.363 . S
C1833 C1836 1.363 . S
N1834 C1836 1.356 . S
N1834 H1846 0.984 . S
N1834 H1847 0.985 . S
N1835 C1837 1.356 . S
N1835 H1840 0.984 . S
N1835 H1841 0.985 . S
C1836 C1830 1.379 . S
C1836 C1833 1.363 . S
C1836 N1834 1.356 . S
C1837 C1831 1.363 . S
C1837 C1832 1.379 . S
C1837 N1835 1.356 . S
N1838 C1830 1.356 . S
N1838 H1844 0.984 . S
N1838 H1845 0.984 . S
N1839 C1832 1.356 . S
N1839 H1842 0.984 . S
N1839 H1843 0.985 . S
H1840 N1835 0.984 . S
H1841 N1835 0.985 . S
H1842 N1839 0.984 . S
H1843 N1839 0.985 . S
H1844 N1838 0.984 . S
H1845 N1838 0.984 . S
H1846 N1834 0.984 . S
H1847 N1834 0.985 . S
C1848 C1849 1.363 . S
C1848 C1854 1.379 . S
C1848 N1856 1.356 . S
C1849 C1848 1.363 . S
C1849 C1855 1.363 . S
C1850 C1851 1.363 . S
C1850 C1855 1.379 . S
C1850 N1857 1.356 . S
C1851 C1850 1.363 . S
C1851 C1854 1.363 . S
N1852 C1854 1.356 . S
N1852 H1864 0.984 . S
N1852 H1865 0.985 . S
N1853 C1855 1.356 . S
N1853 H1858 0.984 . S
N1853 H1859 0.985 . S
C1854 C1848 1.379 . S
C1854 C1851 1.363 . S
C1854 N1852 1.356 . S
C1855 C1849 1.363 . S
C1855 C1850 1.379 . S
C1855 N1853 1.356 . S
N1856 C1848 1.356 . S
N1856 H1862 0.984 . S
N1856 H1863 0.984 . S
N1857 C1850 1.356 . S
N1857 H1860 0.984 . S
N1857 H1861 0.985 . S
H1858 N1853 0.984 . S
H1859 N1853 0.985 . S
H1860 N1857 0.984 . S
H1861 N1857 0.985 . S
H1862 N1856 0.984 . S
H1863 N1856 0.984 . S
H1864 N1852 0.984 . S
H1865 N1852 0.985 . S
C1866 C1867 1.363 . S
C1866 C1872 1.379 . S
C1866 N1874 1.356 . S
C1867 C1866 1.363 . S
C1867 C1873 1.363 . S
C1868 C1869 1.363 . S
C1868 C1873 1.379 . S
C1868 N1875 1.356 . S
C1869 C1868 1.363 . S
C1869 C1872 1.363 . S
N1870 C1872 1.356 . S
N1870 H1882 0.984 . S
N1870 H1883 0.985 . S
N1871 C1873 1.356 . S
N1871 H1876 0.984 . S
N1871 H1877 0.985 . S
C1872 C1866 1.379 . S
C1872 C1869 1.363 . S
C1872 N1870 1.356 . S
C1873 C1867 1.363 . S
C1873 C1868 1.379 . S
C1873 N1871 1.356 . S
N1874 C1866 1.356 . S
N1874 H1880 0.984 . S
N1874 H1881 0.984 . S
N1875 C1868 1.356 . S
N1875 H1878 0.984 . S
N1875 H1879 0.985 . S
H1876 N1871 0.984 . S
H1877 N1871 0.985 . S
H1878 N1875 0.984 . S
H1879 N1875 0.985 . S
H1880 N1874 0.984 . S
H1881 N1874 0.984 . S
H1882 N1870 0.984 . S
H1883 N1870 0.985 . S
C1884 C1885 1.363 . S
C1884 C1890 1.379 . S
C1884 N1892 1.356 . S
C1885 C1884 1.363 . S
C1885 C1891 1.363 . S
C1886 C1887 1.363 . S
C1886 C1891 1.379 . S
C1886 N1893 1.356 . S
C1887 C1886 1.363 . S
C1887 C1890 1.363 . S
N1888 C1890 1.356 . S
N1888 H1900 0.984 . S
N1888 H1901 0.985 . S
N1889 C1891 1.356 . S
N1889 H1894 0.984 . S
N1889 H1895 0.985 . S
C1890 C1884 1.379 . S
C1890 C1887 1.363 . S
C1890 N1888 1.356 . S
C1891 C1885 1.363 . S
C1891 C1886 1.379 . S
C1891 N1889 1.356 . S
N1892 C1884 1.356 . S
N1892 H1898 0.984 . S
N1892 H1899 0.984 . S
N1893 C1886 1.356 . S
N1893 H1896 0.984 . S
N1893 H1897 0.985 . S
H1894 N1889 0.984 . S
H1895 N1889 0.985 . S
H1896 N1893 0.984 . S
H1897 N1893 0.985 . S
H1898 N1892 0.984 . S
H1899 N1892 0.984 . S
H1900 N1888 0.984 . S
H1901 N1888 0.985 . S
C1902 C1903 1.363 . S
C1902 C1908 1.379 . S
C1902 N1910 1.356 . S
C1903 C1902 1.363 . S
C1903 C1909 1.363 . S
C1904 C1905 1.363 . S
C1904 C1909 1.379 . S
C1904 N1911 1.356 . S
C1905 C1904 1.363 . S
C1905 C1908 1.363 . S
N1906 C1908 1.356 . S
N1906 H1918 0.984 1_455 S
N1906 H1919 0.985 1_455 S
N1907 C1909 1.356 . S
N1907 H1912 0.984 . S
N1907 H1913 0.985 . S
C1908 C1902 1.379 . S
C1908 C1905 1.363 . S
C1908 N1906 1.356 . S
C1909 C1903 1.363 . S
C1909 C1904 1.379 . S
C1909 N1907 1.356 . S
N1910 C1902 1.356 . S
N1910 H1916 0.984 . S
N1910 H1917 0.984 . S
N1911 C1904 1.356 . S
N1911 H1914 0.984 . S
N1911 H1915 0.985 . S
H1912 N1907 0.984 . S
H1913 N1907 0.985 . S
H1914 N1911 0.984 . S
H1915 N1911 0.985 . S
H1916 N1910 0.984 . S
H1917 N1910 0.984 . S
H1918 N1906 0.984 1_655 S
H1919 N1906 0.985 1_655 S
C1920 C1921 1.363 . S
C1920 C1926 1.379 . S
C1920 N1928 1.356 . S
C1921 C1920 1.363 . S
C1921 C1927 1.363 . S
C1922 C1923 1.363 . S
C1922 C1927 1.379 . S
C1922 N1929 1.356 . S
C1923 C1922 1.363 . S
C1923 C1926 1.363 . S
N1924 C1926 1.356 . S
N1924 H1936 0.984 . S
N1924 H1937 0.985 . S
N1925 C1927 1.356 . S
N1925 H1930 0.984 . S
N1925 H1931 0.985 . S
C1926 C1920 1.379 . S
C1926 C1923 1.363 . S
C1926 N1924 1.356 . S
C1927 C1921 1.363 . S
C1927 C1922 1.379 . S
C1927 N1925 1.356 . S
N1928 C1920 1.356 . S
N1928 H1934 0.984 . S
N1928 H1935 0.984 . S
N1929 C1922 1.356 . S
N1929 H1932 0.984 . S
N1929 H1933 0.985 . S
H1930 N1925 0.984 . S
H1931 N1925 0.985 . S
H1932 N1929 0.984 . S
H1933 N1929 0.985 . S
H1934 N1928 0.984 . S
H1935 N1928 0.984 . S
H1936 N1924 0.984 . S
H1937 N1924 0.985 . S
C1938 C1939 1.363 . S
C1938 C1944 1.379 . S
C1938 N1946 1.356 . S
C1939 C1938 1.363 . S
C1939 C1945 1.363 . S
C1940 C1941 1.363 . S
C1940 C1945 1.379 . S
C1940 N1947 1.356 . S
C1941 C1940 1.363 . S
C1941 C1944 1.363 . S
N1942 C1944 1.356 . S
N1942 H1954 0.984 . S
N1942 H1955 0.985 . S
N1943 C1945 1.356 . S
N1943 H1948 0.984 . S
N1943 H1949 0.985 . S
C1944 C1938 1.379 . S
C1944 C1941 1.363 . S
C1944 N1942 1.356 . S
C1945 C1939 1.363 . S
C1945 C1940 1.379 . S
C1945 N1943 1.356 . S
N1946 C1938 1.356 . S
N1946 H1952 0.984 . S
N1946 H1953 0.984 . S
N1947 C1940 1.356 . S
N1947 H1950 0.984 . S
N1947 H1951 0.985 . S
H1948 N1943 0.984 . S
H1949 N1943 0.985 . S
H1950 N1947 0.984 . S
H1951 N1947 0.985 . S
H1952 N1946 0.984 . S
H1953 N1946 0.984 . S
H1954 N1942 0.984 . S
H1955 N1942 0.985 . S
C1956 C1957 1.363 . S
C1956 C1962 1.379 . S
C1956 N1964 1.356 . S
C1957 C1956 1.363 . S
C1957 C1963 1.363 . S
C1958 C1959 1.363 . S
C1958 C1963 1.379 . S
C1958 N1965 1.356 . S
C1959 C1958 1.363 . S
C1959 C1962 1.363 . S
N1960 C1962 1.356 . S
N1960 H1972 0.984 . S
N1960 H1973 0.985 . S
N1961 C1963 1.356 . S
N1961 H1966 0.984 . S
N1961 H1967 0.985 . S
C1962 C1956 1.379 . S
C1962 C1959 1.363 . S
C1962 N1960 1.356 . S
C1963 C1957 1.363 . S
C1963 C1958 1.379 . S
C1963 N1961 1.356 . S
N1964 C1956 1.356 . S
N1964 H1970 0.984 . S
N1964 H1971 0.984 . S
N1965 C1958 1.356 . S
N1965 H1968 0.984 . S
N1965 H1969 0.985 . S
H1966 N1961 0.984 . S
H1967 N1961 0.985 . S
H1968 N1965 0.984 . S
H1969 N1965 0.985 . S
H1970 N1964 0.984 . S
H1971 N1964 0.984 . S
H1972 N1960 0.984 . S
H1973 N1960 0.985 . S
C1974 C1975 1.363 . S
C1974 C1980 1.379 . S
C1974 N1982 1.356 . S
C1975 C1974 1.363 . S
C1975 C1981 1.363 . S
C1976 C1977 1.363 . S
C1976 C1981 1.379 . S
C1976 N1983 1.356 . S
C1977 C1976 1.363 . S
C1977 C1980 1.363 . S
N1978 C1980 1.356 . S
N1978 H1990 0.984 . S
N1978 H1991 0.985 . S
N1979 C1981 1.356 . S
N1979 H1984 0.984 1_455 S
N1979 H1985 0.979 1_455 S
C1980 C1974 1.379 . S
C1980 C1977 1.363 . S
C1980 N1978 1.356 . S
C1981 C1975 1.363 . S
C1981 C1976 1.379 . S
C1981 N1979 1.356 . S
N1982 C1974 1.356 . S
N1982 H1988 0.984 . S
N1982 H1989 0.984 . S
N1983 C1976 1.356 . S
N1983 H1986 0.984 . S
N1983 H1987 0.985 . S
H1984 N1979 0.984 1_655 S
H1985 N1979 0.979 1_655 S
H1986 N1983 0.984 . S
H1987 N1983 0.985 . S
H1988 N1982 0.984 . S
H1989 N1982 0.984 . S
H1990 N1978 0.984 . S
H1991 N1978 0.985 . S
C1992 C1993 1.363 . S
C1992 C1998 1.379 . S
C1992 N2000 1.356 . S
C1993 C1992 1.363 . S
C1993 C1999 1.363 . S
C1994 C1995 1.363 . S
C1994 C1999 1.379 . S
C1994 N2001 1.356 . S
C1995 C1994 1.363 . S
C1995 C1998 1.363 . S
N1996 C1998 1.356 . S
N1996 H2008 0.984 . S
N1996 H2009 0.985 . S
N1997 C1999 1.356 . S
N1997 H2002 0.984 . S
N1997 H2003 0.985 . S
C1998 C1992 1.379 . S
C1998 C1995 1.363 . S
C1998 N1996 1.356 . S
C1999 C1993 1.363 . S
C1999 C1994 1.379 . S
C1999 N1997 1.356 . S
N2000 C1992 1.356 . S
N2000 H2006 0.984 . S
N2000 H2007 0.984 . S
N2001 C1994 1.356 . S
N2001 H2004 0.984 . S
N2001 H2005 0.985 . S
H2002 N1997 0.984 . S
H2003 N1997 0.985 . S
H2004 N2001 0.984 . S
H2005 N2001 0.985 . S
H2006 N2000 0.984 . S
H2007 N2000 0.984 . S
H2008 N1996 0.984 . S
H2009 N1996 0.985 . S
C2010 C2011 1.363 . S
C2010 C2016 1.379 . S
C2010 N2018 1.356 . S
C2011 C2010 1.363 . S
C2011 C2017 1.363 . S
C2012 C2013 1.363 . S
C2012 C2017 1.379 . S
C2012 N2019 1.356 . S
C2013 C2012 1.363 . S
C2013 C2016 1.363 . S
N2014 C2016 1.356 . S
N2014 H2026 0.987 . S
N2014 H2027 0.985 1_455 S
N2015 C2017 1.356 . S
N2015 H2020 0.984 . S
N2015 H2021 0.985 . S
C2016 C2010 1.379 . S
C2016 C2013 1.363 . S
C2016 N2014 1.356 . S
C2017 C2011 1.363 . S
C2017 C2012 1.379 . S
C2017 N2015 1.356 . S
N2018 C2010 1.356 . S
N2018 H2024 0.984 . S
N2018 H2025 0.984 . S
N2019 C2012 1.356 . S
N2019 H2022 0.984 . S
N2019 H2023 0.985 . S
H2020 N2015 0.984 . S
H2021 N2015 0.985 . S
H2022 N2019 0.984 . S
H2023 N2019 0.985 . S
H2024 N2018 0.984 . S
H2025 N2018 0.984 . S
H2026 N2014 0.987 . S
H2027 N2014 0.985 1_655 S
C2028 C2029 1.363 . S
C2028 C2034 1.379 . S
C2028 N2036 1.356 . S
C2029 C2028 1.363 . S
C2029 C2035 1.363 . S
C2030 C2031 1.363 . S
C2030 C2035 1.379 . S
C2030 N2037 1.356 . S
C2031 C2030 1.363 . S
C2031 C2034 1.363 . S
N2032 C2034 1.356 . S
N2032 H2044 0.984 . S
N2032 H2045 0.985 . S
N2033 C2035 1.356 . S
N2033 H2038 0.984 . S
N2033 H2039 0.985 . S
C2034 C2028 1.379 . S
C2034 C2031 1.363 . S
C2034 N2032 1.356 . S
C2035 C2029 1.363 . S
C2035 C2030 1.379 . S
C2035 N2033 1.356 . S
N2036 C2028 1.356 . S
N2036 H2042 0.984 . S
N2036 H2043 0.984 . S
N2037 C2030 1.356 . S
N2037 H2040 0.984 . S
N2037 H2041 0.985 . S
H2038 N2033 0.984 . S
H2039 N2033 0.985 . S
H2040 N2037 0.984 . S
H2041 N2037 0.985 . S
H2042 N2036 0.984 . S
H2043 N2036 0.984 . S
H2044 N2032 0.984 . S
H2045 N2032 0.985 . S
C2046 C2047 1.363 . S
C2046 C2052 1.379 . S
C2046 N2054 1.356 . S
C2047 C2046 1.363 . S
C2047 C2053 1.363 . S
C2048 C2049 1.363 . S
C2048 C2053 1.379 . S
C2048 N2055 1.356 . S
C2049 C2048 1.363 . S
C2049 C2052 1.363 . S
N2050 C2052 1.356 . S
N2050 H2062 0.984 . S
N2050 H2063 0.985 . S
N2051 C2053 1.356 . S
N2051 H2056 0.984 . S
N2051 H2057 0.985 . S
C2052 C2046 1.379 . S
C2052 C2049 1.363 . S
C2052 N2050 1.356 . S
C2053 C2047 1.363 . S
C2053 C2048 1.379 . S
C2053 N2051 1.356 . S
N2054 C2046 1.356 . S
N2054 H2060 0.984 . S
N2054 H2061 0.984 . S
N2055 C2048 1.356 . S
N2055 H2058 0.984 . S
N2055 H2059 0.985 . S
H2056 N2051 0.984 . S
H2057 N2051 0.985 . S
H2058 N2055 0.984 . S
H2059 N2055 0.985 . S
H2060 N2054 0.984 . S
H2061 N2054 0.984 . S
H2062 N2050 0.984 . S
H2063 N2050 0.985 . S
C2064 C2065 1.363 . S
C2064 C2070 1.379 . S
C2064 N2072 1.356 . S
C2065 C2064 1.363 . S
C2065 C2071 1.363 . S
C2066 C2067 1.363 . S
C2066 C2071 1.379 . S
C2066 N2073 1.356 . S
C2067 C2066 1.363 . S
C2067 C2070 1.363 . S
N2068 C2070 1.356 . S
N2068 H2080 0.984 . S
N2068 H2081 0.985 . S
N2069 C2071 1.356 . S
N2069 H2074 0.984 . S
N2069 H2075 0.985 . S
C2070 C2064 1.379 . S
C2070 C2067 1.363 . S
C2070 N2068 1.356 . S
C2071 C2065 1.363 . S
C2071 C2066 1.379 . S
C2071 N2069 1.356 . S
N2072 C2064 1.356 . S
N2072 H2078 0.984 . S
N2072 H2079 0.984 . S
N2073 C2066 1.356 . S
N2073 H2076 0.984 . S
N2073 H2077 0.985 . S
H2074 N2069 0.984 . S
H2075 N2069 0.985 . S
H2076 N2073 0.984 . S
H2077 N2073 0.985 . S
H2078 N2072 0.984 . S
H2079 N2072 0.984 . S
H2080 N2068 0.984 . S
H2081 N2068 0.985 . S
C2082 C2083 1.363 . S
C2082 C2088 1.379 . S
C2082 N2090 1.356 . S
C2083 C2082 1.363 . S
C2083 C2089 1.363 . S
C2084 C2085 1.363 . S
C2084 C2089 1.379 . S
C2084 N2091 1.356 . S
C2085 C2084 1.363 . S
C2085 C2088 1.363 . S
N2086 C2088 1.356 . S
N2086 H2098 0.984 . S
N2086 H2099 0.985 . S
N2087 C2089 1.356 . S
N2087 H2092 0.984 . S
N2087 H2093 0.985 . S
C2088 C2082 1.379 . S
C2088 C2085 1.363 . S
C2088 N2086 1.356 . S
C2089 C2083 1.363 . S
C2089 C2084 1.379 . S
C2089 N2087 1.356 . S
N2090 C2082 1.356 . S
N2090 H2096 0.984 . S
N2090 H2097 0.984 . S
N2091 C2084 1.356 . S
N2091 H2094 0.984 . S
N2091 H2095 0.985 . S
H2092 N2087 0.984 . S
H2093 N2087 0.985 . S
H2094 N2091 0.984 . S
H2095 N2091 0.985 . S
H2096 N2090 0.984 . S
H2097 N2090 0.984 . S
H2098 N2086 0.984 . S
H2099 N2086 0.985 . S
C2100 C2101 1.363 . S
C2100 C2106 1.379 . S
C2100 N2108 1.356 . S
C2101 C2100 1.363 . S
C2101 C2107 1.363 . S
C2102 C2103 1.363 . S
C2102 C2107 1.379 . S
C2102 N2109 1.356 . S
C2103 C2102 1.363 . S
C2103 C2106 1.363 . S
N2104 C2106 1.356 . S
N2104 H2116 0.984 . S
N2104 H2117 0.985 . S
N2105 C2107 1.356 . S
N2105 H2110 0.984 . S
N2105 H2111 0.985 . S
C2106 C2100 1.379 . S
C2106 C2103 1.363 . S
C2106 N2104 1.356 . S
C2107 C2101 1.363 . S
C2107 C2102 1.379 . S
C2107 N2105 1.356 . S
N2108 C2100 1.356 . S
N2108 H2114 0.984 . S
N2108 H2115 0.984 . S
N2109 C2102 1.356 . S
N2109 H2112 0.984 . S
N2109 H2113 0.985 . S
H2110 N2105 0.984 . S
H2111 N2105 0.985 . S
H2112 N2109 0.984 . S
H2113 N2109 0.985 . S
H2114 N2108 0.984 . S
H2115 N2108 0.984 . S
H2116 N2104 0.984 . S
H2117 N2104 0.985 . S
C2118 C2119 1.363 . S
C2118 C2124 1.379 . S
C2118 N2126 1.356 . S
C2119 C2118 1.363 . S
C2119 C2125 1.363 . S
C2120 C2121 1.363 . S
C2120 C2125 1.379 . S
C2120 N2127 1.372 . S
C2121 C2120 1.363 . S
C2121 C2124 1.363 . S
N2122 C2124 1.356 . S
N2122 H2134 0.984 . S
N2122 H2135 0.985 . S
N2123 C2125 1.356 . S
N2123 H2128 0.984 . S
N2123 H2129 0.985 . S
C2124 C2118 1.379 . S
C2124 C2121 1.363 . S
C2124 N2122 1.356 . S
C2125 C2119 1.363 . S
C2125 C2120 1.379 . S
C2125 N2123 1.356 . S
N2126 C2118 1.356 . S
N2126 H2132 0.984 . S
N2126 H2133 0.984 . S
N2127 C2120 1.372 . S
N2127 H2130 0.975 1_655 S
N2127 H2131 0.979 1_655 S
H2128 N2123 0.984 . S
H2129 N2123 0.985 . S
H2130 N2127 0.975 1_455 S
H2131 N2127 0.979 1_455 S
H2132 N2126 0.984 . S
H2133 N2126 0.984 . S
H2134 N2122 0.984 . S
H2135 N2122 0.985 . S
C2136 C2137 1.363 . S
C2136 C2142 1.379 . S
C2136 N2144 1.356 . S
C2137 C2136 1.363 . S
C2137 C2143 1.363 . S
C2138 C2139 1.363 . S
C2138 C2143 1.379 . S
C2138 N2145 1.356 . S
C2139 C2138 1.363 . S
C2139 C2142 1.363 . S
N2140 C2142 1.356 . S
N2140 H2152 0.984 . S
N2140 H2153 0.985 . S
N2141 C2143 1.356 . S
N2141 H2146 0.984 . S
N2141 H2147 0.985 . S
C2142 C2136 1.379 . S
C2142 C2139 1.363 . S
C2142 N2140 1.356 . S
C2143 C2137 1.363 . S
C2143 C2138 1.379 . S
C2143 N2141 1.356 . S
N2144 C2136 1.356 . S
N2144 H2150 0.984 . S
N2144 H2151 0.984 . S
N2145 C2138 1.356 . S
N2145 H2148 0.984 . S
N2145 H2149 0.985 . S
H2146 N2141 0.984 . S
H2147 N2141 0.985 . S
H2148 N2145 0.984 . S
H2149 N2145 0.985 . S
H2150 N2144 0.984 . S
H2151 N2144 0.984 . S
H2152 N2140 0.984 . S
H2153 N2140 0.985 . S
C2154 C2155 1.363 . S
C2154 C2160 1.379 . S
C2154 N2162 1.356 . S
C2155 C2154 1.363 . S
C2155 C2161 1.363 . S
C2156 C2157 1.363 . S
C2156 C2161 1.379 . S
C2156 N2163 1.356 . S
C2157 C2156 1.363 . S
C2157 C2160 1.363 . S
N2158 C2160 1.356 . S
N2158 H2170 0.984 . S
N2158 H2171 0.985 . S
N2159 C2161 1.356 . S
N2159 H2164 0.984 . S
N2159 H2165 0.985 . S
C2160 C2154 1.379 . S
C2160 C2157 1.363 . S
C2160 N2158 1.356 . S
C2161 C2155 1.363 . S
C2161 C2156 1.379 . S
C2161 N2159 1.356 . S
N2162 C2154 1.356 . S
N2162 H2168 0.984 . S
N2162 H2169 0.984 . S
N2163 C2156 1.356 . S
N2163 H2166 0.984 1_655 S
N2163 H2167 0.993 . S
H2164 N2159 0.984 . S
H2165 N2159 0.985 . S
H2166 N2163 0.984 1_455 S
H2167 N2163 0.993 . S
H2168 N2162 0.984 . S
H2169 N2162 0.984 . S
H2170 N2158 0.984 . S
H2171 N2158 0.985 . S
C2172 C2173 1.363 . S
C2172 C2178 1.379 . S
C2172 N2180 1.356 . S
C2173 C2172 1.363 . S
C2173 C2179 1.363 . S
C2174 C2175 1.363 . S
C2174 C2179 1.379 . S
C2174 N2181 1.356 . S
C2175 C2174 1.363 . S
C2175 C2178 1.363 . S
N2176 C2178 1.356 . S
N2176 H2188 0.984 . S
N2176 H2189 0.985 . S
N2177 C2179 1.356 . S
N2177 H2182 0.984 . S
N2177 H2183 0.985 . S
C2178 C2172 1.379 . S
C2178 C2175 1.363 . S
C2178 N2176 1.356 . S
C2179 C2173 1.363 . S
C2179 C2174 1.379 . S
C2179 N2177 1.356 . S
N2180 C2172 1.356 . S
N2180 H2186 0.984 . S
N2180 H2187 0.984 . S
N2181 C2174 1.356 . S
N2181 H2184 0.984 . S
N2181 H2185 0.985 . S
H2182 N2177 0.984 . S
H2183 N2177 0.985 . S
H2184 N2181 0.984 . S
H2185 N2181 0.985 . S
H2186 N2180 0.984 . S
H2187 N2180 0.984 . S
H2188 N2176 0.984 . S
H2189 N2176 0.985 . S
C2190 C2191 1.363 . S
C2190 C2196 1.379 . S
C2190 N2198 1.356 . S
C2191 C2190 1.363 . S
C2191 C2197 1.363 . S
C2192 C2193 1.363 . S
C2192 C2197 1.379 . S
C2192 N2199 1.356 . S
C2193 C2192 1.363 . S
C2193 C2196 1.363 . S
N2194 C2196 1.356 . S
N2194 H2206 0.984 . S
N2194 H2207 0.985 . S
N2195 C2197 1.356 . S
N2195 H2200 0.984 . S
N2195 H2201 0.985 . S
C2196 C2190 1.379 . S
C2196 C2193 1.363 . S
C2196 N2194 1.356 . S
C2197 C2191 1.363 . S
C2197 C2192 1.379 . S
C2197 N2195 1.356 . S
N2198 C2190 1.356 . S
N2198 H2204 0.984 . S
N2198 H2205 0.984 . S
N2199 C2192 1.356 . S
N2199 H2202 0.984 . S
N2199 H2203 0.985 . S
H2200 N2195 0.984 . S
H2201 N2195 0.985 . S
H2202 N2199 0.984 . S
H2203 N2199 0.985 . S
H2204 N2198 0.984 . S
H2205 N2198 0.984 . S
H2206 N2194 0.984 . S
H2207 N2194 0.985 . S
C2208 C2209 1.363 . S
C2208 C2214 1.379 . S
C2208 N2216 1.356 . S
C2209 C2208 1.363 . S
C2209 C2215 1.363 . S
C2210 C2211 1.363 . S
C2210 C2215 1.379 . S
C2210 N2217 1.356 . S
C2211 C2210 1.363 . S
C2211 C2214 1.363 . S
N2212 C2214 1.356 . S
N2212 H2224 0.984 . S
N2212 H2225 0.985 . S
N2213 C2215 1.356 . S
N2213 H2218 0.984 . S
N2213 H2219 0.985 . S
C2214 C2208 1.379 . S
C2214 C2211 1.363 . S
C2214 N2212 1.356 . S
C2215 C2209 1.363 . S
C2215 C2210 1.379 . S
C2215 N2213 1.356 . S
N2216 C2208 1.356 . S
N2216 H2222 0.984 . S
N2216 H2223 0.984 . S
N2217 C2210 1.356 . S
N2217 H2220 0.984 . S
N2217 H2221 0.985 . S
H2218 N2213 0.984 . S
H2219 N2213 0.985 . S
H2220 N2217 0.984 . S
H2221 N2217 0.985 . S
H2222 N2216 0.984 . S
H2223 N2216 0.984 . S
H2224 N2212 0.984 . S
H2225 N2212 0.985 . S
C2226 C2227 1.375 . S
C2226 C2232 1.367 1_455 S
C2226 N2234 1.360 . S
C2227 C2226 1.375 . S
C2227 C2233 1.363 1_565 S
C2228 C2229 1.375 . S
C2228 C2233 1.367 1_655 S
C2228 N2235 1.360 . S
C2229 C2228 1.375 . S
C2229 C2232 1.363 1_545 S
N2230 C2232 1.356 1_545 S
N2230 H2242 0.984 1_545 S
N2230 H2243 0.985 . S
N2231 C2233 1.356 1_565 S
N2231 H2236 0.984 . S
N2231 H2237 0.985 1_565 S
C2232 C2226 1.367 1_655 S
C2232 C2229 1.363 1_565 S
C2232 N2230 1.356 1_565 S
C2233 C2227 1.363 1_545 S
C2233 C2228 1.367 1_455 S
C2233 N2231 1.356 1_545 S
N2234 C2226 1.360 . S
N2234 H2240 0.984 1_455 S
N2234 H2241 0.984 . S
N2235 C2228 1.360 . S
N2235 H2238 0.984 . S
N2235 H2239 0.985 1_655 S
H2236 N2231 0.984 . S
H2237 N2231 0.985 1_545 S
H2238 N2235 0.984 . S
H2239 N2235 0.985 1_455 S
H2240 N2234 0.984 1_655 S
H2241 N2234 0.984 . S
H2242 N2230 0.984 1_565 S
H2243 N2230 0.985 . S
C2244 C2245 1.363 . S
C2244 C2250 1.379 . S
C2244 N2252 1.356 . S
C2245 C2244 1.363 . S
C2245 C2251 1.363 . S
C2246 C2247 1.363 . S
C2246 C2251 1.379 . S
C2246 N2253 1.356 . S
C2247 C2246 1.363 . S
C2247 C2250 1.363 . S
N2248 C2250 1.356 . S
N2248 H2260 0.984 . S
N2248 H2261 0.985 . S
N2249 C2251 1.356 . S
N2249 H2254 0.984 . S
N2249 H2255 0.985 . S
C2250 C2244 1.379 . S
C2250 C2247 1.363 . S
C2250 N2248 1.356 . S
C2251 C2245 1.363 . S
C2251 C2246 1.379 . S
C2251 N2249 1.356 . S
N2252 C2244 1.356 . S
N2252 H2258 0.984 . S
N2252 H2259 0.984 . S
N2253 C2246 1.356 . S
N2253 H2256 0.984 . S
N2253 H2257 0.985 . S
H2254 N2249 0.984 . S
H2255 N2249 0.985 . S
H2256 N2253 0.984 . S
H2257 N2253 0.985 . S
H2258 N2252 0.984 . S
H2259 N2252 0.984 . S
H2260 N2248 0.984 . S
H2261 N2248 0.985 . S
C2262 C2263 1.363 1_545 S
C2262 C2268 1.379 . S
C2262 N2270 1.356 1_545 S
C2263 C2262 1.363 1_565 S
C2263 C2269 1.363 1_556 S
C2264 C2265 1.363 1_565 S
C2264 C2269 1.379 . S
C2264 N2271 1.356 1_565 S
C2265 C2264 1.363 1_545 S
C2265 C2268 1.363 1_554 S
N2266 C2268 1.356 . S
N2266 H2278 0.984 . S
N2266 H2279 0.985 . S
N2267 C2269 1.356 . S
N2267 H2272 0.984 . S
N2267 H2273 0.985 . S
C2268 C2262 1.379 . S
C2268 C2265 1.363 1_556 S
C2268 N2266 1.356 . S
C2269 C2263 1.363 1_554 S
C2269 C2264 1.379 . S
C2269 N2267 1.356 . S
N2270 C2262 1.356 1_565 S
N2270 H2276 0.984 1_565 S
N2270 H2277 0.984 . S
N2271 C2264 1.356 1_545 S
N2271 H2274 0.984 . S
N2271 H2275 0.985 1_545 S
H2272 N2267 0.984 . S
H2273 N2267 0.985 . S
H2274 N2271 0.984 . S
H2275 N2271 0.985 1_565 S
H2276 N2270 0.984 1_545 S
H2277 N2270 0.984 . S
H2278 N2266 0.984 . S
H2279 N2266 0.985 . S
C2280 C2281 1.363 . S
C2280 C2286 1.379 . S
C2280 N2288 1.356 . S
C2281 C2280 1.363 . S
C2281 C2287 1.363 . S
C2282 C2283 1.363 . S
C2282 C2287 1.379 . S
C2282 N2289 1.356 . S
C2283 C2282 1.363 . S
C2283 C2286 1.363 . S
N2284 C2286 1.356 . S
N2284 H2296 0.984 . S
N2284 H2297 0.985 . S
N2285 C2287 1.356 . S
N2285 H2290 0.984 . S
N2285 H2291 0.985 . S
C2286 C2280 1.379 . S
C2286 C2283 1.363 . S
C2286 N2284 1.356 . S
C2287 C2281 1.363 . S
C2287 C2282 1.379 . S
C2287 N2285 1.356 . S
N2288 C2280 1.356 . S
N2288 H2294 0.984 . S
N2288 H2295 0.984 . S
N2289 C2282 1.356 . S
N2289 H2292 0.984 . S
N2289 H2293 0.985 . S
H2290 N2285 0.984 . S
H2291 N2285 0.985 . S
H2292 N2289 0.984 . S
H2293 N2289 0.985 . S
H2294 N2288 0.984 . S
H2295 N2288 0.984 . S
H2296 N2284 0.984 . S
H2297 N2284 0.985 . S
C2298 C2299 1.363 1_565 S
C2298 C2304 1.379 . S
C2298 N2306 1.356 1_565 S
C2299 C2298 1.363 1_545 S
C2299 C2305 1.363 . S
C2300 C2301 1.363 1_545 S
C2300 C2305 1.379 . S
C2300 N2307 1.356 1_545 S
C2301 C2300 1.363 1_565 S
C2301 C2304 1.363 . S
N2302 C2304 1.356 . S
N2302 H2314 0.984 . S
N2302 H2315 0.985 . S
N2303 C2305 1.356 . S
N2303 H2308 0.984 . S
N2303 H2309 0.985 . S
C2304 C2298 1.379 . S
C2304 C2301 1.363 . S
C2304 N2302 1.356 . S
C2305 C2299 1.363 . S
C2305 C2300 1.379 . S
C2305 N2303 1.356 . S
N2306 C2298 1.356 1_545 S
N2306 H2312 0.984 1_545 S
N2306 H2313 0.984 . S
N2307 C2300 1.356 1_565 S
N2307 H2310 0.984 . S
N2307 H2311 0.985 1_565 S
H2308 N2303 0.984 . S
H2309 N2303 0.985 . S
H2310 N2307 0.984 . S
H2311 N2307 0.985 1_545 S
H2312 N2306 0.984 1_565 S
H2313 N2306 0.984 . S
H2314 N2302 0.984 . S
H2315 N2302 0.985 . S
C2316 C2317 1.363 . S
C2316 C2322 1.379 . S
C2316 N2324 1.356 . S
C2317 C2316 1.363 . S
C2317 C2323 1.363 . S
C2318 C2319 1.363 . S
C2318 C2323 1.379 . S
C2318 N2325 1.356 . S
C2319 C2318 1.363 . S
C2319 C2322 1.363 . S
N2320 C2322 1.356 . S
N2320 H2332 0.984 . S
N2320 H2333 0.985 . S
N2321 C2323 1.356 . S
N2321 H2326 0.984 . S
N2321 H2327 0.985 . S
C2322 C2316 1.379 . S
C2322 C2319 1.363 . S
C2322 N2320 1.356 . S
C2323 C2317 1.363 . S
C2323 C2318 1.379 . S
C2323 N2321 1.356 . S
N2324 C2316 1.356 . S
N2324 H2330 0.984 . S
N2324 H2331 0.984 . S
N2325 C2318 1.356 . S
N2325 H2328 0.984 . S
N2325 H2329 0.985 . S
H2326 N2321 0.984 . S
H2327 N2321 0.985 . S
H2328 N2325 0.984 . S
H2329 N2325 0.985 . S
H2330 N2324 0.984 . S
H2331 N2324 0.984 . S
H2332 N2320 0.984 . S
H2333 N2320 0.985 . S
C2334 C2335 1.363 1_545 S
C2334 C2340 1.355 1_655 S
C2334 N2342 1.356 1_545 S
C2335 C2334 1.363 1_565 S
C2335 C2341 1.387 1_554 S
C2336 C2337 1.363 1_565 S
C2336 C2341 1.355 1_455 S
C2336 N2343 1.356 1_565 S
C2337 C2336 1.363 1_545 S
C2337 C2340 1.387 1_556 S
N2338 C2340 1.365 . S
N2338 H2350 0.984 1_455 S
N2338 H2351 0.985 . S
N2339 C2341 1.365 . S
N2339 H2344 0.984 . S
N2339 H2345 0.985 1_655 S
C2340 C2334 1.355 1_455 S
C2340 C2337 1.387 1_554 S
C2340 N2338 1.365 . S
C2341 C2335 1.387 1_556 S
C2341 C2336 1.355 1_655 S
C2341 N2339 1.365 . S
N2342 C2334 1.356 1_565 S
N2342 H2348 0.984 1_565 S
N2342 H2349 0.984 . S
N2343 C2336 1.356 1_545 S
N2343 H2346 0.984 . S
N2343 H2347 0.985 1_545 S
H2344 N2339 0.984 . S
H2345 N2339 0.985 1_455 S
H2346 N2343 0.984 . S
H2347 N2343 0.985 1_565 S
H2348 N2342 0.984 1_545 S
H2349 N2342 0.984 . S
H2350 N2338 0.984 1_655 S
H2351 N2338 0.985 . S
C2352 C2353 1.363 . S
C2352 C2358 1.379 . S
C2352 N2360 1.356 . S
C2353 C2352 1.363 . S
C2353 C2359 1.363 . S
C2354 C2355 1.363 . S
C2354 C2359 1.379 . S
C2354 N2361 1.356 . S
C2355 C2354 1.363 . S
C2355 C2358 1.363 . S
N2356 C2358 1.356 . S
N2356 H2368 0.984 . S
N2356 H2369 0.985 . S
N2357 C2359 1.356 . S
N2357 H2362 0.984 . S
N2357 H2363 0.985 . S
C2358 C2352 1.379 . S
C2358 C2355 1.363 . S
C2358 N2356 1.356 . S
C2359 C2353 1.363 . S
C2359 C2354 1.379 . S
C2359 N2357 1.356 . S
N2360 C2352 1.356 . S
N2360 H2366 0.984 . S
N2360 H2367 0.984 . S
N2361 C2354 1.356 . S
N2361 H2364 0.984 . S
N2361 H2365 0.985 . S
H2362 N2357 0.984 . S
H2363 N2357 0.985 . S
H2364 N2361 0.984 . S
H2365 N2361 0.985 . S
H2366 N2360 0.984 . S
H2367 N2360 0.984 . S
H2368 N2356 0.984 . S
H2369 N2356 0.985 . S
C2370 C2371 1.363 . S
C2370 C2376 1.379 . S
C2370 N2378 1.356 . S
C2371 C2370 1.363 . S
C2371 C2377 1.363 . S
C2372 C2373 1.363 . S
C2372 C2377 1.379 . S
C2372 N2379 1.356 . S
C2373 C2372 1.363 . S
C2373 C2376 1.363 . S
N2374 C2376 1.356 . S
N2374 H2386 0.984 . S
N2374 H2387 0.985 . S
N2375 C2377 1.356 . S
N2375 H2380 0.984 . S
N2375 H2381 0.985 . S
C2376 C2370 1.379 . S
C2376 C2373 1.363 . S
C2376 N2374 1.356 . S
C2377 C2371 1.363 . S
C2377 C2372 1.379 . S
C2377 N2375 1.356 . S
N2378 C2370 1.356 . S
N2378 H2384 0.984 . S
N2378 H2385 0.984 . S
N2379 C2372 1.356 . S
N2379 H2382 0.984 . S
N2379 H2383 0.985 . S
H2380 N2375 0.984 . S
H2381 N2375 0.985 . S
H2382 N2379 0.984 . S
H2383 N2379 0.985 . S
H2384 N2378 0.984 . S
H2385 N2378 0.984 . S
H2386 N2374 0.984 . S
H2387 N2374 0.985 . S
C2388 C2389 1.363 . S
C2388 C2394 1.379 . S
C2388 N2396 1.356 . S
C2389 C2388 1.363 . S
C2389 C2395 1.363 . S
C2390 C2391 1.363 . S
C2390 C2395 1.379 . S
C2390 N2397 1.356 . S
C2391 C2390 1.363 . S
C2391 C2394 1.363 . S
N2392 C2394 1.356 . S
N2392 H2404 0.984 . S
N2392 H2405 0.985 . S
N2393 C2395 1.356 . S
N2393 H2398 0.984 . S
N2393 H2399 0.985 . S
C2394 C2388 1.379 . S
C2394 C2391 1.363 . S
C2394 N2392 1.356 . S
C2395 C2389 1.363 . S
C2395 C2390 1.379 . S
C2395 N2393 1.356 . S
N2396 C2388 1.356 . S
N2396 H2402 0.984 . S
N2396 H2403 0.984 . S
N2397 C2390 1.356 . S
N2397 H2400 0.984 . S
N2397 H2401 0.985 . S
H2398 N2393 0.984 . S
H2399 N2393 0.985 . S
H2400 N2397 0.984 . S
H2401 N2397 0.985 . S
H2402 N2396 0.984 . S
H2403 N2396 0.984 . S
H2404 N2392 0.984 . S
H2405 N2392 0.985 . S
C2406 C2407 1.363 . S
C2406 C2412 1.379 . S
C2406 N2414 1.356 . S
C2407 C2406 1.363 . S
C2407 C2413 1.363 . S
C2408 C2409 1.363 . S
C2408 C2413 1.379 . S
C2408 N2415 1.356 . S
C2409 C2408 1.363 . S
C2409 C2412 1.363 . S
N2410 C2412 1.356 . S
N2410 H2422 0.984 . S
N2410 H2423 0.985 . S
N2411 C2413 1.356 . S
N2411 H2416 0.984 . S
N2411 H2417 0.985 . S
C2412 C2406 1.379 . S
C2412 C2409 1.363 . S
C2412 N2410 1.356 . S
C2413 C2407 1.363 . S
C2413 C2408 1.379 . S
C2413 N2411 1.356 . S
N2414 C2406 1.356 . S
N2414 H2420 0.984 . S
N2414 H2421 0.984 . S
N2415 C2408 1.356 . S
N2415 H2418 0.984 . S
N2415 H2419 0.985 . S
H2416 N2411 0.984 . S
H2417 N2411 0.985 . S
H2418 N2415 0.984 . S
H2419 N2415 0.985 . S
H2420 N2414 0.984 . S
H2421 N2414 0.984 . S
H2422 N2410 0.984 . S
H2423 N2410 0.985 . S
C2424 C2425 1.363 1_554 S
C2424 C2430 1.379 . S
C2424 N2432 1.356 . S
C2425 C2424 1.363 1_556 S
C2425 C2431 1.363 . S
C2426 C2427 1.363 1_556 S
C2426 C2431 1.379 . S
C2426 N2433 1.356 . S
C2427 C2426 1.363 1_554 S
C2427 C2430 1.363 . S
N2428 C2430 1.356 . S
N2428 H2440 0.984 . S
N2428 H2441 0.985 . S
N2429 C2431 1.356 . S
N2429 H2434 0.984 . S
N2429 H2435 0.985 . S
C2430 C2424 1.379 . S
C2430 C2427 1.363 . S
C2430 N2428 1.356 . S
C2431 C2425 1.363 . S
C2431 C2426 1.379 . S
C2431 N2429 1.356 . S
N2432 C2424 1.356 . S
N2432 H2438 0.984 . S
N2432 H2439 0.984 . S
N2433 C2426 1.356 . S
N2433 H2436 0.984 . S
N2433 H2437 0.985 . S
H2434 N2429 0.984 . S
H2435 N2429 0.985 . S
H2436 N2433 0.984 . S
H2437 N2433 0.985 . S
H2438 N2432 0.984 . S
H2439 N2432 0.984 . S
H2440 N2428 0.984 . S
H2441 N2428 0.985 . S
C2442 C2443 1.363 . S
C2442 C2448 1.379 1_655 S
C2442 N2450 1.356 . S
C2443 C2442 1.363 . S
C2443 C2449 1.363 . S
C2444 C2445 1.363 . S
C2444 C2449 1.379 1_455 S
C2444 N2451 1.356 . S
C2445 C2444 1.363 . S
C2445 C2448 1.363 . S
N2446 C2448 1.356 . S
N2446 H2458 0.984 1_455 S
N2446 H2459 0.985 . S
N2447 C2449 1.356 . S
N2447 H2452 0.984 . S
N2447 H2453 0.985 1_655 S
C2448 C2442 1.379 1_455 S
C2448 C2445 1.363 . S
C2448 N2446 1.356 . S
C2449 C2443 1.363 . S
C2449 C2444 1.379 1_655 S
C2449 N2447 1.356 . S
N2450 C2442 1.356 . S
N2450 H2456 0.984 . S
N2450 H2457 0.984 . S
N2451 C2444 1.356 . S
N2451 H2454 0.984 . S
N2451 H2455 0.985 . S
H2452 N2447 0.984 . S
H2453 N2447 0.985 1_455 S
H2454 N2451 0.984 . S
H2455 N2451 0.985 . S
H2456 N2450 0.984 . S
H2457 N2450 0.984 . S
H2458 N2446 0.984 1_655 S
H2459 N2446 0.985 . S
C2460 C2461 1.363 1_556 S
C2460 C2466 1.379 1_455 S
C2460 N2468 1.356 . S
C2461 C2460 1.363 1_554 S
C2461 C2467 1.363 . S
C2462 C2463 1.363 1_554 S
C2462 C2467 1.379 1_655 S
C2462 N2469 1.356 . S
C2463 C2462 1.363 1_556 S
C2463 C2466 1.363 . S
N2464 C2466 1.356 . S
N2464 H2476 0.984 . S
N2464 H2477 0.985 . S
N2465 C2467 1.356 . S
N2465 H2470 0.984 . S
N2465 H2471 0.985 . S
C2466 C2460 1.379 1_655 S
C2466 C2463 1.363 . S
C2466 N2464 1.356 . S
C2467 C2461 1.363 . S
C2467 C2462 1.379 1_455 S
C2467 N2465 1.356 . S
N2468 C2460 1.356 . S
N2468 H2474 0.984 1_455 S
N2468 H2475 0.984 . S
N2469 C2462 1.356 . S
N2469 H2472 0.984 . S
N2469 H2473 0.984 1_655 S
H2470 N2465 0.984 . S
H2471 N2465 0.985 . S
H2472 N2469 0.984 . S
H2473 N2469 0.984 1_455 S
H2474 N2468 0.984 1_655 S
H2475 N2468 0.984 . S
H2476 N2464 0.984 . S
H2477 N2464 0.985 . S
C2478 C2479 1.363 . S
C2478 C2484 1.379 . S
C2478 N2486 1.356 . S
C2479 C2478 1.363 . S
C2479 C2485 1.363 . S
C2480 C2481 1.363 . S
C2480 C2485 1.379 . S
C2480 N2487 1.356 . S
C2481 C2480 1.363 . S
C2481 C2484 1.363 . S
N2482 C2484 1.356 . S
N2482 H2494 0.984 . S
N2482 H2495 0.985 . S
N2483 C2485 1.356 . S
N2483 H2488 0.984 . S
N2483 H2489 0.985 . S
C2484 C2478 1.379 . S
C2484 C2481 1.363 . S
C2484 N2482 1.356 . S
C2485 C2479 1.363 . S
C2485 C2480 1.379 . S
C2485 N2483 1.356 . S
N2486 C2478 1.356 . S
N2486 H2492 0.984 . S
N2486 H2493 0.984 . S
N2487 C2480 1.356 . S
N2487 H2490 0.984 . S
N2487 H2491 0.985 . S
H2488 N2483 0.984 . S
H2489 N2483 0.985 . S
H2490 N2487 0.984 . S
H2491 N2487 0.985 . S
H2492 N2486 0.984 . S
H2493 N2486 0.984 . S
H2494 N2482 0.984 . S
H2495 N2482 0.985 . S
C1057 N244 1.861 . S
C1059 N13 1.861 . S
C1075 N46 1.861 . S
C1077 N145 1.861 . S
C1093 N79 1.861 . S
C1095 N178 1.861 . S
C1111 N211 1.861 . S
C1113 N112 1.861 . S
C1129 N508 1.861 . S
C1131 N277 1.861 . S
C1147 N409 1.861 . S
C1149 N310 1.861 . S
C1165 N343 1.861 . S
C1167 N442 1.861 . S
C1183 N376 1.861 . S
C1185 N475 1.861 . S
C1201 N772 1.861 . S
C1203 N541 1.861 . S
C1219 N574 1.861 . S
C1221 N673 1.861 . S
C1237 N607 1.861 . S
C1239 N706 1.861 . S
C1255 N739 1.861 . S
C1257 N640 1.861 . S
C1273 N1036 1.861 . S
C1275 N805 1.861 . S
C1291 N838 1.861 . S
C1293 N937 1.861 . S
C1309 N970 1.861 . S
C1311 N871 1.861 . S
C1327 N1003 1.861 . S
C1329 N904 1.861 . S
C1345 C601 1.297 . S
C1347 C7 1.297 . S
C1363 C634 1.297 . S
C1365 C40 1.297 . S
C1381 C73 1.297 . S
C1383 C535 1.297 . S
C1399 C106 1.297 . S
C1401 C568 1.297 . S
C1417 C733 1.297 . S
C1419 C139 1.297 . S
C1435 C766 1.297 . S
C1437 C172 1.297 . S
C1453 C205 1.297 . S
C1455 C667 1.297 . S
C1471 C238 1.297 . S
C1473 C700 1.297 . S
C1489 C271 1.297 . S
C1491 C865 1.297 . S
C1507 C898 1.297 . S
C1509 C304 1.297 . S
C1525 C799 1.297 . S
C1527 C337 1.297 . S
C1543 C370 1.297 . S
C1545 C832 1.297 . S
C1561 C403 1.297 . S
C1563 C997 1.297 . S
C1579 C1030 1.297 . S
C1581 C436 1.297 . S
C1597 C931 1.297 . S
C1599 C469 1.297 . S
C1615 C964 1.297 . S
C1617 C502 1.297 . S
C1633 N2 1.310 . S
C1635 C912 1.112 . S
C1651 C285 1.112 . S
C1653 N35 1.310 . S
C1669 C846 1.112 . S
C1671 N68 1.310 . S
C1687 N101 1.310 . S
C1689 C351 1.112 . S
C1705 C978 1.112 . S
C1707 N134 1.310 . S
C1723 C483 1.112 . S
C1725 N167 1.310 . S
C1741 N200 1.310 . S
C1743 C1044 1.112 . S
C1759 N233 1.310 . S
C1761 C417 1.112 . S
C1777 N266 1.310 . S
C1779 C648 1.112 . S
C1795 N299 1.310 . S
C1797 C21 1.112 . S
C1813 C582 1.112 . S
C1815 N332 1.310 . S
C1831 N365 1.310 . S
C1833 C87 1.112 . S
C1849 C714 1.112 . S
C1851 N398 1.310 . S
C1867 N431 1.310 . S
C1869 C219 1.112 . S
C1885 N464 1.310 . S
C1887 C780 1.112 . S
C1903 C153 1.112 . S
C1905 N497 1.310 . S
C1921 N530 1.310 . S
C1923 C384 1.112 . S
C1939 C813 1.112 . S
C1941 N563 1.310 . S
C1957 C318 1.112 . S
C1959 N596 1.310 . S
C1975 N629 1.310 . S
C1977 C879 1.112 . S
C1993 N662 1.310 . S
C1995 C450 1.112 . S
C2011 C1011 1.112 . S
C2013 N695 1.310 . S
C2029 N728 1.310 . S
C2031 C516 1.112 . S
C2047 C945 1.112 . S
C2049 N761 1.310 . S
C2065 C120 1.112 . S
C2067 N794 1.310 . S
C2083 C549 1.112 . S
C2085 N827 1.310 . S
C2101 C54 1.112 . S
C2103 N860 1.310 . S
C2119 C615 1.112 . S
C2121 N893 1.310 . S
C2137 N926 1.310 . S
C2139 C186 1.112 . S
C2155 C747 1.112 . S
C2157 N959 1.310 . S
C2173 C252 1.112 . S
C2175 N992 1.310 . S
C2191 C681 1.112 . S
C2193 N1025 1.310 . S
C2209 C18 1.487 . S
C2211 C810 1.487 . S
C2227 C51 1.487 . S
C2229 C315 1.487 . S
C2245 C876 1.487 . S
C2247 C84 1.487 . S
C2263 C381 1.487 . S
C2265 C117 1.487 . S
C2281 C942 1.487 . S
C2283 C150 1.487 . S
C2299 C447 1.487 . S
C2301 C183 1.487 . S
C2317 C1008 1.487 . S
C2319 C216 1.487 . S
C2335 C513 1.487 . S
C2337 C249 1.487 . S
C2353 C282 1.487 . S
C2355 C546 1.487 . S
C2371 C612 1.487 . S
C2373 C348 1.487 . S
C2389 C414 1.487 . S
C2391 C678 1.487 . S
C2407 C480 1.487 . S
C2409 C744 1.487 . S
C2425 C843 1.487 . S
C2427 C579 1.487 . S
C2443 C645 1.487 . S
C2445 C909 1.487 . S
C2461 C975 1.487 . S
C2463 C711 1.487 . S
C2479 C1041 1.487 . S
C2481 C777 1.487 . S
