# Generated by pormake.
# Topology mok, (4)-cn, num edge types: 1
# Building blocks:
#     Node 0, Type 0, BuildingBlock: ICAMEG_clean_sbu_1, # of connection points: 4
#     Node 1, Type 0, BuildingBlock: ICAMEG_clean_sbu_1, # of connection points: 4
#     Node 2, Type 0, BuildingBlock: ICAMEG_clean_sbu_1, # of connection points: 4
#     Node 3, Type 0, BuildingBlock: ICAMEG_clean_sbu_1, # of connection points: 4
#     Node 4, Type 0, BuildingBlock: ICAMEG_clean_sbu_1, # of connection points: 4
#     Node 5, Type 0, BuildingBlock: ICAMEG_clean_sbu_1, # of connection points: 4
#     Node 6, Type 0, BuildingBlock: ICAMEG_clean_sbu_1, # of connection points: 4
#     Node 7, Type 0, BuildingBlock: ICAMEG_clean_sbu_1, # of connection points: 4
#     Edge 8, Type (0, 0), BuildingBlock: XIVTED_clean_linker_0, # of connection points: 2
#     Edge 9, Type (0, 0), BuildingBlock: XIVTED_clean_linker_0, # of connection points: 2
#     Edge 10, Type (0, 0), BuildingBlock: XIVTED_clean_linker_0, # of connection points: 2
#     Edge 11, Type (0, 0), BuildingBlock: XIVTED_clean_linker_0, # of connection points: 2
#     Edge 12, Type (0, 0), BuildingBlock: XIVTED_clean_linker_0, # of connection points: 2
#     Edge 13, Type (0, 0), BuildingBlock: XIVTED_clean_linker_0, # of connection points: 2
#     Edge 14, Type (0, 0), BuildingBlock: XIVTED_clean_linker_0, # of connection points: 2
#     Edge 15, Type (0, 0), BuildingBlock: XIVTED_clean_linker_0, # of connection points: 2
#     Edge 16, Type (0, 0), BuildingBlock: XIVTED_clean_linker_0, # of connection points: 2
#     Edge 17, Type (0, 0), BuildingBlock: XIVTED_clean_linker_0, # of connection points: 2
#     Edge 18, Type (0, 0), BuildingBlock: XIVTED_clean_linker_0, # of connection points: 2
#     Edge 19, Type (0, 0), BuildingBlock: XIVTED_clean_linker_0, # of connection points: 2
#     Edge 20, Type (0, 0), BuildingBlock: XIVTED_clean_linker_0, # of connection points: 2
#     Edge 21, Type (0, 0), BuildingBlock: XIVTED_clean_linker_0, # of connection points: 2
#     Edge 22, Type (0, 0), BuildingBlock: XIVTED_clean_linker_0, # of connection points: 2
#     Edge 23, Type (0, 0), BuildingBlock: XIVTED_clean_linker_0, # of connection points: 2
# Relax obj value: 0.014
# Max RMSD: 0.052
# Mean RMSD: 0.052
data_MOF--net-mok--node1-ICAMEG_clean_sbu_1--edge1-XIVTED_clean_linker_0
_symmetry_space_group_name_H-M    P1
_symmetry_Int_Tables_number       1
_symmetry_cell_setting            triclinic
loop_
_symmetry_equiv_pos_as_xyz
'x, y, z'
_cell_length_a     58.708138
_cell_length_b     14.562082
_cell_length_c     30.259966
_cell_angle_alpha  89.993275
_cell_angle_beta   89.991371
_cell_angle_gamma 90.011398
loop_
_atom_site_label
_atom_site_type_symbol
_atom_site_fract_x
_atom_site_fract_y
_atom_site_fract_z
_atom_type_partial_charge
Co0 Co 0.62717 0.42801 0.04939 0.0
Co1 Co 0.62221 0.20423 0.01322 0.0
O2 O 0.61366 0.30481 0.05324 0.0
C3 C 0.63406 0.38692 0.14486 0.0
O4 O 0.642 0.30539 0.13452 0.0
C5 C 0.57137 0.20101 0.00615 0.0
O6 O 0.57108 0.29053 0.00089 0.0
O7 O 0.61637 0.28358 0.96024 0.0
O8 O 0.62777 0.42199 0.98393 0.0
H9 H 0.66286 0.06482 0.8834 0.0
H10 H 0.58493 0.39847 0.10083 0.0
O11 O 0.62681 0.44074 0.11497 0.0
H12 H 0.56464 0.62724 0.98732 0.0
H13 H 0.63501 0.76233 0.08991 0.0
H14 H 0.66458 0.51099 0.99695 0.0
H15 H 0.60371 0.56616 0.99198 0.0
H16 H 0.61841 0.60701 0.09463 0.0
O17 O 0.59011 0.15896 0.01169 0.0
H18 H 0.65188 0.18949 0.93432 0.0
H19 H 0.61015 0.00508 0.00696 0.0
H20 H 0.68155 0.6655 0.99091 0.0
H21 H 0.54565 0.45838 0.09765 0.0
H22 H 0.66669 0.79256 0.03751 0.0
H23 H 0.53528 0.57344 0.04049 0.0
O24 O 0.65855 0.375 0.05212 0.0
H25 H 0.60328 0.07191 0.16211 0.0
H26 H 0.65927 0.07516 0.04084 0.0
H27 H 0.66644 0.97897 0.10635 0.0
H28 H 0.63827 0.9767 0.16759 0.0
H29 H 0.5969 0.1676 0.096 0.0
H30 H 0.6206 0.87858 0.95677 0.0
H31 H 0.64721 0.90801 0.89452 0.0
O32 O 0.65477 0.24306 0.0144 0.0
C33 C 0.62141 0.36779 0.9534 0.0
C34 C 0.65128 0.05111 0.91044 0.0
C35 C 0.62753 0.94663 0.95155 0.0
N36 N 0.63046 0.10459 0.97368 0.0
C37 C 0.64503 0.1214 0.93941 0.0
C38 C 0.6216 0.01865 0.97978 0.0
C39 C 0.64248 0.96316 0.91667 0.0
C40 C 0.58058 0.44897 0.07605 0.0
N41 N 0.59661 0.47874 0.04663 0.0
C42 C 0.5583 0.48245 0.07433 0.0
C43 C 0.55248 0.54691 0.04221 0.0
C44 C 0.56893 0.57704 0.01234 0.0
C45 C 0.59102 0.54191 0.01501 0.0
C46 C 0.64161 0.70755 0.0694 0.0
C47 C 0.65802 0.56591 0.01732 0.0
C48 C 0.63234 0.61934 0.07204 0.0
N49 N 0.64046 0.55 0.04595 0.0
C50 C 0.66771 0.65325 0.01379 0.0
C51 C 0.65938 0.72448 0.03997 0.0
C52 C 0.66691 0.30379 0.03353 0.0
C53 C 0.6157 0.07239 0.13568 0.0
C54 C 0.64711 0.07555 0.06752 0.0
C55 C 0.65117 0.02045 0.10446 0.0
C56 C 0.63534 0.01907 0.13876 0.0
N57 N 0.62778 0.12751 0.06464 0.0
C58 C 0.61217 0.1264 0.09814 0.0
Co59 Co 0.37508 0.58277 0.05192 0.0
Co60 Co 0.37882 0.80883 0.01752 0.0
O61 O 0.3879 0.7071 0.05643 0.0
C62 C 0.36772 0.62407 0.14729 0.0
O63 O 0.36015 0.70592 0.13651 0.0
C64 C 0.42953 0.8133 0.00845 0.0
O65 O 0.42981 0.72396 0.00252 0.0
O66 O 0.38418 0.73187 0.96349 0.0
O67 O 0.37512 0.58996 0.9864 0.0
H68 H 0.33654 0.9525 0.89074 0.0
H69 H 0.41665 0.61587 0.10489 0.0
O70 O 0.37485 0.56934 0.11763 0.0
H71 H 0.43934 0.39022 0.99165 0.0
H72 H 0.36878 0.24733 0.09133 0.0
H73 H 0.33888 0.4967 0.99752 0.0
H74 H 0.39988 0.44749 0.9951 0.0
H75 H 0.38426 0.40432 0.09736 0.0
O76 O 0.41083 0.85497 0.01508 0.0
H77 H 0.34832 0.82596 0.93991 0.0
H78 H 0.39047 0.00853 0.01268 0.0
H79 H 0.32303 0.3405 0.99015 0.0
H80 H 0.4563 0.55982 0.10292 0.0
H81 H 0.33808 0.21442 0.03714 0.0
H82 H 0.46788 0.44635 0.04591 0.0
O83 O 0.34332 0.63241 0.0537 0.0
H84 H 0.39913 0.93624 0.1667 0.0
H85 H 0.34176 0.93514 0.04788 0.0
H86 H 0.33508 0.02832 0.11459 0.0
H87 H 0.36394 0.02947 0.1746 0.0
H88 H 0.40501 0.84351 0.09945 0.0
H89 H 0.37918 0.13691 0.9643 0.0
H90 H 0.35197 0.10934 0.90287 0.0
O91 O 0.34641 0.76889 0.01962 0.0
C92 C 0.38028 0.64685 0.95609 0.0
C93 C 0.34838 0.9654 0.91743 0.0
C94 C 0.37236 0.06886 0.95865 0.0
N95 N 0.37 0.90982 0.97924 0.0
C96 C 0.3551 0.89404 0.94541 0.0
C97 C 0.37875 0.99578 0.98585 0.0
C98 C 0.35707 0.05337 0.92423 0.0
C99 C 0.42153 0.56606 0.08016 0.0
N100 N 0.40595 0.53502 0.05013 0.0
C101 C 0.44402 0.53476 0.07913 0.0
C102 C 0.45051 0.47119 0.0471 0.0
C103 C 0.43452 0.43975 0.01662 0.0
C104 C 0.4122 0.47272 0.0186 0.0
C105 C 0.36211 0.30166 0.07062 0.0
C106 C 0.34552 0.4422 0.01808 0.0
C107 C 0.37075 0.3908 0.074 0.0
N108 N 0.36257 0.45958 0.04764 0.0
C109 C 0.33646 0.35391 0.01379 0.0
C110 C 0.34489 0.28323 0.0402 0.0
C111 C 0.3346 0.70483 0.03686 0.0
C112 C 0.38642 0.93624 0.14081 0.0
C113 C 0.35423 0.93428 0.07402 0.0
C114 C 0.35044 0.98769 0.11164 0.0
C115 C 0.36666 0.98844 0.14525 0.0
N116 N 0.37367 0.88337 0.06983 0.0
C117 C 0.38966 0.88393 0.10263 0.0
Co118 Co 0.62401 0.57623 0.55219 0.0
Co119 Co 0.62112 0.80209 0.58745 0.0
O120 O 0.61188 0.70168 0.54785 0.0
C121 C 0.63279 0.61763 0.45729 0.0
O122 O 0.64057 0.69911 0.46815 0.0
C123 C 0.5703 0.80937 0.59502 0.0
O124 O 0.56951 0.71971 0.59948 0.0
O125 O 0.61537 0.72443 0.6412 0.0
O126 O 0.62329 0.58208 0.61749 0.0
H127 H 0.66365 0.94129 0.71507 0.0
H128 H 0.58331 0.61434 0.49758 0.0
O129 O 0.62493 0.56387 0.48664 0.0
H130 H 0.55792 0.38816 0.60842 0.0
H131 H 0.62876 0.24082 0.5119 0.0
H132 H 0.65914 0.486 0.60766 0.0
H133 H 0.59774 0.44166 0.60706 0.0
H134 H 0.61431 0.39934 0.50571 0.0
O135 O 0.58928 0.84995 0.5898 0.0
H136 H 0.65149 0.81619 0.66539 0.0
H137 H 0.61016 1.00231 0.59296 0.0
H138 H 0.67391 0.32815 0.61527 0.0
H139 H 0.54334 0.56208 0.49742 0.0
H140 H 0.65861 0.20418 0.56729 0.0
H141 H 0.53039 0.44839 0.55323 0.0
O142 O 0.65609 0.62321 0.55192 0.0
H143 H 0.60159 0.93353 0.43867 0.0
H144 H 0.65868 0.92705 0.55796 0.0
H145 H 0.66581 0.02127 0.49176 0.0
H146 H 0.63709 0.02516 0.43152 0.0
H147 H 0.59526 0.83968 0.50541 0.0
H148 H 0.62183 0.12928 0.64185 0.0
H149 H 0.64883 0.0992 0.70336 0.0
O150 O 0.65336 0.76041 0.58546 0.0
C151 C 0.61855 0.63874 0.64807 0.0
C152 C 0.6519 0.95527 0.68835 0.0
C153 C 0.62838 0.06074 0.64733 0.0
N154 N 0.63019 0.90188 0.62623 0.0
C155 C 0.64497 0.88473 0.6601 0.0
C156 C 0.62177 0.98845 0.61985 0.0
C157 C 0.64356 0.04384 0.6818 0.0
C158 C 0.57784 0.56443 0.5218 0.0
N159 N 0.59286 0.53123 0.55236 0.0
C160 C 0.55517 0.53528 0.52162 0.0
C161 C 0.54791 0.47158 0.55298 0.0
C162 C 0.56334 0.43786 0.58398 0.0
C163 C 0.58586 0.46874 0.58321 0.0
C164 C 0.63554 0.29422 0.53303 0.0
C165 C 0.65241 0.43244 0.58666 0.0
C166 C 0.62749 0.38423 0.52955 0.0
N167 N 0.6358 0.45188 0.55644 0.0
C168 C 0.66085 0.34321 0.59108 0.0
C169 C 0.65229 0.2737 0.56412 0.0
C170 C 0.66501 0.69532 0.56871 0.0
C171 C 0.61425 0.93233 0.46466 0.0
C172 C 0.64627 0.92735 0.53171 0.0
C173 C 0.65032 0.98135 0.49438 0.0
C174 C 0.63418 0.98364 0.46064 0.0
N175 N 0.62666 0.87735 0.5355 0.0
C176 C 0.61075 0.87938 0.50256 0.0
Co177 Co 0.37423 0.43151 0.55498 0.0
Co178 Co 0.37777 0.20866 0.5922 0.0
O179 O 0.38684 0.30688 0.55129 0.0
C180 C 0.36726 0.3892 0.45955 0.0
O181 O 0.35916 0.3082 0.4704 0.0
C182 C 0.42851 0.19727 0.59715 0.0
O183 O 0.42954 0.28647 0.60328 0.0
O184 O 0.38524 0.28774 0.6443 0.0
O185 O 0.37369 0.42612 0.62079 0.0
H186 H 0.3379 0.07778 0.72504 0.0
H187 H 0.41618 0.39667 0.50353 0.0
O188 O 0.37457 0.44359 0.48919 0.0
H189 H 0.43815 0.625 0.61606 0.0
H190 H 0.3685 0.76613 0.51374 0.0
H191 H 0.33757 0.51893 0.60767 0.0
H192 H 0.39867 0.56809 0.61178 0.0
H193 H 0.38395 0.60893 0.50903 0.0
O194 O 0.40938 0.15789 0.59188 0.0
H195 H 0.34939 0.20003 0.67317 0.0
H196 H 0.38768 0.00775 0.5982 0.0
H197 H 0.32175 0.67542 0.61375 0.0
H198 H 0.45585 0.45231 0.50633 0.0
H199 H 0.33731 0.80039 0.56668 0.0
H200 H 0.46707 0.56714 0.56299 0.0
O201 O 0.34255 0.38136 0.55228 0.0
H202 H 0.39277 0.06713 0.44358 0.0
H203 H 0.3382 0.09031 0.56692 0.0
H204 H 0.32875 0.99408 0.50249 0.0
H205 H 0.35617 0.98175 0.44026 0.0
H206 H 0.40148 0.1631 0.5086 0.0
H207 H 0.37664 0.88354 0.64926 0.0
H208 H 0.35152 0.91817 0.71318 0.0
O209 O 0.3457 0.2534 0.59313 0.0
C210 C 0.38031 0.37198 0.65124 0.0
C211 C 0.34883 0.06181 0.69728 0.0
C212 C 0.37061 0.95283 0.6548 0.0
N213 N 0.36911 0.11107 0.63258 0.0
C214 C 0.35537 0.13073 0.66777 0.0
C215 C 0.37685 0.02354 0.62606 0.0
C216 C 0.35649 0.97228 0.69063 0.0
C217 C 0.42091 0.44706 0.5281 0.0
N218 N 0.40511 0.47903 0.55747 0.0
C219 C 0.44341 0.47813 0.5296 0.0
C220 C 0.44969 0.54246 0.56144 0.0
C221 C 0.43348 0.57486 0.59125 0.0
C222 C 0.41116 0.54209 0.5888 0.0
C223 C 0.3616 0.71229 0.53447 0.0
C224 C 0.34443 0.57296 0.5871 0.0
C225 C 0.37022 0.62303 0.53183 0.0
N226 N 0.36175 0.55486 0.55823 0.0
C227 C 0.33539 0.66141 0.59064 0.0
C228 C 0.3441 0.73148 0.56419 0.0
C229 C 0.33383 0.31286 0.57255 0.0
C230 C 0.38069 0.07184 0.47051 0.0
C231 C 0.35015 0.08597 0.53986 0.0
C232 C 0.34474 0.03103 0.50352 0.0
C233 C 0.36014 0.02405 0.46864 0.0
N234 N 0.37039 0.13229 0.54157 0.0
C235 C 0.38555 0.12592 0.50745 0.0
Co236 Co 0.1248 0.93275 0.04739 0.0
Co237 Co 0.12197 0.70663 0.01301 0.0
O238 O 0.11241 0.80775 0.05183 0.0
C239 C 0.13224 0.893 0.1427 0.0
O240 O 0.14037 0.81187 0.1322 0.0
C241 C 0.07126 0.69889 0.00432 0.0
O242 O 0.07058 0.78837 -0.00096 0.0
O243 O 0.11642 0.78327 0.95891 0.0
O244 O 0.12516 0.92528 0.98203 0.0
H245 H 0.16518 0.56536 0.88678 0.0
H246 H 0.08317 0.89798 0.09992 0.0
O247 O 0.12468 0.94646 0.11294 0.0
H248 H 0.06003 0.12038 0.98553 0.0
H249 H 0.12943 0.2689 0.08618 0.0
H250 H 0.16101 0.02082 0.99367 0.0
H251 H 0.09969 0.06552 0.98965 0.0
H252 H 0.11462 0.11087 0.09227 0.0
O253 O 0.09017 0.65834 0.01035 0.0
H254 H 0.1527 0.69133 0.93563 0.0
H255 H 0.11117 0.50618 0.00829 0.0
H256 H 0.17618 0.17811 0.98622 0.0
H257 H 0.04333 0.95162 0.09728 0.0
H258 H 0.16027 0.30354 0.03254 0.0
H259 H 0.03153 0.06346 0.03968 0.0
O260 O 0.15673 0.88494 0.04981 0.0
H261 H 0.10184 0.57815 0.1621 0.0
H262 H 0.15951 0.58306 0.04382 0.0
H263 H 0.16643 0.49059 0.11067 0.0
H264 H 0.13742 0.4875 0.1704 0.0
H265 H 0.09573 0.67027 0.09473 0.0
H266 H 0.12316 0.37834 0.96023 0.0
H267 H 0.15042 0.40749 0.89902 0.0
O268 O 0.15421 0.7487 0.01535 0.0
C269 C 0.12021 0.86842 0.95164 0.0
C270 C 0.15332 0.55178 0.91337 0.0
C271 C 0.12969 0.44685 0.95452 0.0
N272 N 0.13129 0.60616 0.97488 0.0
C273 C 0.14621 0.62281 0.94116 0.0
C274 C 0.1229 0.51962 0.98154 0.0
C275 C 0.14501 0.46323 0.92023 0.0
C276 C 0.07819 0.94713 0.07495 0.0
N277 N 0.09376 0.9786 0.045 0.0
C278 C 0.0556 0.97704 0.07354 0.0
C279 C 0.04898 0.03969 0.04118 0.0
C280 C 0.06496 0.07157 0.01076 0.0
C281 C 0.08739 0.03998 0.01313 0.0
C282 C 0.13647 0.21486 0.06576 0.0
C283 C 0.15401 0.07502 0.01396 0.0
C284 C 0.12822 0.12513 0.06919 0.0
N285 N 0.13686 0.05669 0.04318 0.0
C286 C 0.16268 0.16393 0.00962 0.0
C287 C 0.15378 0.23426 0.03566 0.0
C288 C 0.16575 0.81314 0.03295 0.0
C289 C 0.11462 0.57898 0.13632 0.0
C290 C 0.14696 0.58306 0.06983 0.0
C291 C 0.1509 0.53006 0.10753 0.0
C292 C 0.1346 0.52823 0.14099 0.0
N293 N 0.12731 0.63253 0.06541 0.0
C294 C 0.11124 0.63094 0.09808 0.0
Co295 Co 0.87606 0.07177 0.05083 0.0
Co296 Co 0.88007 0.29763 0.01635 0.0
O297 O 0.88895 0.19597 0.05545 0.0
C298 C 0.86826 0.11233 0.14612 0.0
O299 O 0.86061 0.19418 0.13553 0.0
C300 C 0.93087 0.30279 0.0077 0.0
O301 O 0.93134 0.21348 0.0017 0.0
O302 O 0.88559 0.22044 0.96242 0.0
O303 O 0.87626 0.07892 0.98541 0.0
H304 H 0.83818 0.44113 0.88905 0.0
H305 H 0.91746 0.10466 0.10428 0.0
O306 O 0.87564 0.05826 0.11644 0.0
H307 H 0.94049 0.87913 0.99125 0.0
H308 H 0.8697 0.73619 0.08989 0.0
H309 H 0.83993 0.9859 0.99613 0.0
H310 H 0.90102 0.93638 0.99427 0.0
H311 H 0.88513 0.8932 0.09623 0.0
O312 O 0.91208 0.34382 0.01429 0.0
H313 H 0.84987 0.31461 0.93832 0.0
H314 H 0.89169 0.4974 0.01166 0.0
H315 H 0.82416 0.82964 0.98843 0.0
H316 H 0.95711 0.04863 0.10274 0.0
H317 H 0.83915 0.70339 0.03539 0.0
H318 H 0.96886 0.93523 0.04583 0.0
O319 O 0.84427 0.1217 0.0523 0.0
H320 H 0.89992 0.42485 0.1658 0.0
H321 H 0.84298 0.42446 0.04621 0.0
H322 H 0.83611 0.5176 0.11284 0.0
H323 H 0.86475 0.51842 0.17325 0.0
H324 H 0.90598 0.33211 0.09862 0.0
H325 H 0.8805 0.62576 0.96318 0.0
H326 H 0.8535 0.59808 0.90142 0.0
O327 O 0.84768 0.25785 0.01804 0.0
C328 C 0.88159 0.13547 0.95511 0.0
C329 C 0.84994 0.45407 0.91588 0.0
C330 C 0.87374 0.55765 0.95741 0.0
N331 N 0.87139 0.39856 0.97792 0.0
C332 C 0.8566 0.38272 0.9439 0.0
C333 C 0.88008 0.48458 0.98466 0.0
C334 C 0.85856 0.5421 0.92281 0.0
C335 C 0.92242 0.05487 0.07959 0.0
N336 N 0.90692 0.02388 0.04938 0.0
C337 C 0.9449 0.02359 0.07881 0.0
C338 C 0.9515 0.96006 0.04683 0.0
C339 C 0.93559 0.92864 0.01617 0.0
C340 C 0.91327 0.9616 0.01791 0.0
C341 C 0.86305 0.7906 0.0692 0.0
C342 C 0.84653 0.93134 0.0167 0.0
C343 C 0.87166 0.87976 0.07277 0.0
N344 N 0.86351 0.94865 0.04642 0.0
C345 C 0.83752 0.84302 0.01222 0.0
C346 C 0.84591 0.77223 0.03861 0.0
C347 C 0.83571 0.19421 0.03522 0.0
C348 C 0.88729 0.42499 0.13974 0.0
C349 C 0.85535 0.4234 0.07252 0.0
C350 C 0.85145 0.47681 0.11009 0.0
C351 C 0.86755 0.47738 0.14393 0.0
N352 N 0.87477 0.37228 0.06858 0.0
C353 C 0.89064 0.37267 0.1016 0.0
Co354 Co 0.12398 0.07908 0.55077 0.0
Co355 Co 0.12237 0.30646 0.58526 0.0
O356 O 0.11215 0.20537 0.54688 0.0
C357 C 0.13168 0.12085 0.45563 0.0
O358 O 0.13963 0.20214 0.46639 0.0
C359 C 0.07176 0.31133 0.59742 0.0
O360 O 0.07123 0.22137 0.60026 0.0
O361 O 0.11847 0.22893 0.6397 0.0
O362 O 0.12407 0.0849 0.616 0.0
H363 H 0.16879 0.44626 0.70746 0.0
H364 H 0.08278 0.11802 0.49765 0.0
O365 O 0.12412 0.06683 0.48517 0.0
H366 H 0.05803 0.89546 0.61072 0.0
H367 H 0.12719 0.74356 0.51014 0.0
H368 H 0.15942 0.98678 0.60477 0.0
H369 H 0.09797 0.94728 0.60751 0.0
H370 H 0.11317 0.90284 0.50468 0.0
O371 O 0.09054 0.353 0.59161 0.0
H372 H 0.15544 0.32138 0.65879 0.0
H373 H 0.1108 0.50601 0.59319 0.0
H374 H 0.17377 0.82817 0.61161 0.0
H375 H 0.04268 0.06742 0.4994 0.0
H376 H 0.15754 0.70518 0.5642 0.0
H377 H 0.03007 0.95555 0.55633 0.0
O378 O 0.1562 0.12414 0.5491 0.0
H379 H 0.09817 0.4357 0.43861 0.0
H380 H 0.15797 0.43688 0.55293 0.0
H381 H 0.16271 0.53262 0.48634 0.0
H382 H 0.13263 0.53254 0.42861 0.0
H383 H 0.09422 0.34066 0.50568 0.0
H384 H 0.12361 0.63269 0.64117 0.0
H385 H 0.15287 0.60326 0.69872 0.0
O386 O 0.15459 0.26608 0.57861 0.0
C387 C 0.12079 0.14287 0.64668 0.0
C388 C 0.15606 0.45996 0.68246 0.0
C389 C 0.13065 0.56454 0.64534 0.0
N390 N 0.13243 0.40636 0.62308 0.0
C391 C 0.14846 0.38957 0.65478 0.0
C392 C 0.1234 0.4924 0.61838 0.0
C393 C 0.1471 0.54802 0.67758 0.0
C394 C 0.07745 0.0688 0.52232 0.0
N395 N 0.09272 0.03561 0.55241 0.0
C396 C 0.05471 0.04063 0.52323 0.0
C397 C 0.04764 0.97796 0.55522 0.0
C398 C 0.06331 0.9443 0.58578 0.0
C399 C 0.0859 0.97417 0.58391 0.0
C400 C 0.13437 0.79653 0.53101 0.0
C401 C 0.15228 0.93367 0.584 0.0
C402 C 0.12657 0.88696 0.52795 0.0
N403 N 0.1354 0.95409 0.5545 0.0
C404 C 0.16049 0.84399 0.588 0.0
C405 C 0.1514 0.77503 0.56136 0.0
C406 C 0.16554 0.1983 0.56254 0.0
C407 C 0.11143 0.4361 0.46346 0.0
C408 C 0.14499 0.43547 0.52767 0.0
C409 C 0.14768 0.49032 0.49017 0.0
C410 C 0.13078 0.49037 0.45785 0.0
N411 N 0.12599 0.38235 0.53295 0.0
C412 C 0.1093 0.38237 0.50148 0.0
Co413 Co 0.87458 0.9242 0.55472 0.0
Co414 Co 0.87804 0.69841 0.58926 0.0
O415 O 0.88721 0.79963 0.55013 0.0
C416 C 0.86711 0.88427 0.45927 0.0
O417 O 0.85919 0.80273 0.46969 0.0
C418 C 0.92876 0.69164 0.59809 0.0
O419 O 0.92929 0.78073 0.60478 0.0
O420 O 0.88384 0.77543 0.6431 0.0
O421 O 0.87448 0.91691 0.62016 0.0
H422 H 0.83599 0.55672 0.71688 0.0
H423 H 0.91617 0.89036 0.50195 0.0
O424 O 0.8745 0.93796 0.48911 0.0
H425 H 0.93908 0.11481 0.61557 0.0
H426 H 0.86897 0.26007 0.5158 0.0
H427 H 0.83834 0.01081 0.60882 0.0
H428 H 0.89952 0.0586 0.61186 0.0
H429 H 0.8842 0.10272 0.50966 0.0
O430 O 0.90994 0.65104 0.59112 0.0
H431 H 0.84786 0.68268 0.66742 0.0
H432 H 0.88923 0.49832 0.59403 0.0
H433 H 0.82275 0.1674 0.61631 0.0
H434 H 0.95591 0.94534 0.50418 0.0
H435 H 0.83818 0.29343 0.56972 0.0
H436 H 0.9676 0.05821 0.56139 0.0
O437 O 0.84277 0.87509 0.55268 0.0
H438 H 0.89736 0.56952 0.43987 0.0
H439 H 0.8405 0.57358 0.55963 0.0
H440 H 0.83329 0.48038 0.49315 0.0
H441 H 0.86189 0.47771 0.43267 0.0
H442 H 0.90377 0.66234 0.50691 0.0
H443 H 0.87785 0.3705 0.64268 0.0
H444 H 0.85098 0.39926 0.70457 0.0
O445 O 0.8457 0.73957 0.58769 0.0
C446 C 0.87987 0.8604 0.65044 0.0
C447 C 0.84768 0.5433 0.68999 0.0
C448 C 0.87121 0.43883 0.64842 0.0
N449 N 0.86915 0.59789 0.62776 0.0
C450 C 0.85444 0.61433 0.66185 0.0
C451 C 0.87766 0.51159 0.62106 0.0
C452 C 0.85612 0.45499 0.68309 0.0
C453 C 0.9211 0.93992 0.52676 0.0
N454 N 0.90552 0.97122 0.55673 0.0
C455 C 0.94364 0.97061 0.52794 0.0
C456 C 0.95019 0.03385 0.56008 0.0
C457 C 0.93421 0.06555 0.59052 0.0
C458 C 0.91184 0.03318 0.58838 0.0
C459 C 0.86214 0.20577 0.53633 0.0
C460 C 0.84513 0.06527 0.58843 0.0
C461 C 0.87063 0.11642 0.53288 0.0
N462 N 0.86224 0.04766 0.55903 0.0
C463 C 0.83622 0.15379 0.59278 0.0
C464 C 0.84486 0.22445 0.5666 0.0
C465 C 0.83396 0.80329 0.56998 0.0
C466 C 0.88475 0.57017 0.46597 0.0
C467 C 0.85287 0.57378 0.53329 0.0
C468 C 0.84877 0.52037 0.4958 0.0
C469 C 0.86484 0.51877 0.46192 0.0
N470 N 0.87245 0.6239 0.53711 0.0
C471 C 0.8883 0.62254 0.50403 0.0
H472 H 0.81252 0.35163 0.0151 0.0
H473 H 0.68993 0.14791 0.00957 0.0
H474 H 0.8015 0.07099 0.05627 0.0
H475 H 0.70111 0.42222 0.05949 0.0
H476 H 0.73067 0.11865 0.01412 0.0
H477 H 0.77177 0.37887 0.01873 0.0
C478 C 0.80165 0.29565 0.02534 0.0
C479 C 0.81069 0.20901 0.03622 0.0
C480 C 0.72413 0.18484 0.02442 0.0
C481 C 0.76367 0.23989 0.03879 0.0
C482 C 0.70083 0.20198 0.0219 0.0
C483 C 0.69186 0.28747 0.03491 0.0
C484 C 0.73878 0.25449 0.03862 0.0
C485 C 0.70716 0.35518 0.04943 0.0
C486 C 0.77832 0.31164 0.02732 0.0
C487 C 0.79539 0.13898 0.04799 0.0
N488 N 0.72994 0.33757 0.05043 0.0
N489 N 0.77254 0.15568 0.0485 0.0
H490 H 0.19892 0.93844 0.05659 0.0
H491 H 0.301 0.57927 0.0575 0.0
H492 H 0.19001 0.65828 0.01282 0.0
H493 H 0.31083 0.86165 0.01801 0.0
H494 H 0.25967 0.6067 0.05867 0.0
H495 H 0.24025 0.91147 0.05983 0.0
C496 C 0.20553 0.87132 0.04801 0.0
C497 C 0.19082 0.80039 0.03485 0.0
C498 C 0.27105 0.66248 0.05012 0.0
C499 C 0.23781 0.76889 0.03945 0.0
C500 C 0.29458 0.64698 0.04948 0.0
C501 C 0.30954 0.71834 0.03803 0.0
C502 C 0.26253 0.75029 0.04021 0.0
C503 C 0.30014 0.8047 0.02765 0.0
C504 C 0.22906 0.85608 0.04986 0.0
C505 C 0.20047 0.71483 0.02384 0.0
N506 N 0.2773 0.81841 0.02933 0.0
N507 N 0.22328 0.70129 0.02675 0.0
H508 H 0.80053 0.9275 0.54663 0.0
H509 H 0.69842 0.56862 0.54806 0.0
H510 H 0.80997 0.64801 0.59095 0.0
H511 H 0.68911 0.85099 0.58801 0.0
H512 H 0.73981 0.59528 0.54649 0.0
H513 H 0.75923 0.89983 0.54435 0.0
C514 C 0.79404 0.86036 0.55552 0.0
C515 C 0.80889 0.78986 0.56859 0.0
C516 C 0.72852 0.65119 0.55525 0.0
C517 C 0.7619 0.75754 0.5651 0.0
C518 C 0.70495 0.63613 0.55613 0.0
C519 C 0.69011 0.70778 0.56774 0.0
C520 C 0.73717 0.73888 0.56502 0.0
C521 C 0.69967 0.79384 0.57819 0.0
C522 C 0.77052 0.84472 0.55423 0.0
C523 C 0.79938 0.70424 0.58002 0.0
N524 N 0.72251 0.80715 0.57619 0.0
N525 N 0.77656 0.69028 0.57765 0.0
H526 H 0.18818 0.34642 0.53069 0.0
H527 H 0.30969 0.17481 0.61229 0.0
H528 H 0.19942 0.07666 0.58487 0.0
H529 H 0.30082 0.41348 0.52917 0.0
H530 H 0.26926 0.14198 0.60576 0.0
H531 H 0.22907 0.37476 0.53192 0.0
C532 C 0.19931 0.29316 0.54295 0.0
C533 C 0.19041 0.20974 0.5584 0.0
C534 C 0.27614 0.20135 0.58883 0.0
C535 C 0.23737 0.24147 0.55983 0.0
C536 C 0.29929 0.22064 0.59261 0.0
C537 C 0.30886 0.29707 0.57098 0.0
C538 C 0.26219 0.25931 0.56368 0.0
C539 C 0.29429 0.3539 0.54641 0.0
C540 C 0.22269 0.30914 0.54335 0.0
C541 C 0.20564 0.14195 0.57271 0.0
N542 N 0.27167 0.33395 0.54352 0.0
N543 N 0.22843 0.1597 0.57358 0.0
H544 H 0.62843 0.56317 0.17324 0.0
H545 H 0.62978 0.44045 0.4291 0.0
H546 H 0.64088 0.28873 0.22158 0.0
H547 H 0.63853 0.71706 0.38062 0.0
H548 H 0.63102 0.38369 0.35349 0.0
H549 H 0.62921 0.62008 0.24883 0.0
C550 C 0.63127 0.5146 0.19976 0.0
C551 C 0.6345 0.42068 0.19098 0.0
C552 C 0.63274 0.45674 0.35933 0.0
C553 C 0.63539 0.48609 0.27791 0.0
C554 C 0.6319 0.48949 0.40252 0.0
C555 C 0.63391 0.58396 0.41123 0.0
C556 C 0.63533 0.5188 0.32431 0.0
C557 C 0.63691 0.64381 0.3754 0.0
C558 C 0.63184 0.54749 0.24295 0.0
C559 C 0.6383 0.36153 0.2268 0.0
N560 N 0.63735 0.61025 0.33341 0.0
N561 N 0.63849 0.39517 0.26878 0.0
H562 H 0.36196 0.72564 0.2232 0.0
H563 H 0.361 0.28785 0.38369 0.0
H564 H 0.37211 0.44807 0.1771 0.0
H565 H 0.37263 0.56462 0.42959 0.0
H566 H 0.36055 0.34548 0.30744 0.0
H567 H 0.36132 0.66791 0.29942 0.0
C568 C 0.36402 0.65273 0.22906 0.0
C569 C 0.36721 0.59179 0.19372 0.0
C570 C 0.36323 0.39339 0.33431 0.0
C571 C 0.36629 0.52523 0.28057 0.0
C572 C 0.36344 0.36055 0.37778 0.0
C573 C 0.36698 0.4213 0.41308 0.0
C574 C 0.36625 0.48776 0.3262 0.0
C575 C 0.37003 0.51501 0.40345 0.0
C576 C 0.36371 0.61982 0.27252 0.0
C577 C 0.36979 0.49782 0.20328 0.0
N578 N 0.36951 0.54533 0.36103 0.0
N579 N 0.36919 0.46746 0.2457 0.0
H580 H 0.38653 0.74012 0.8773 0.0
H581 H 0.38869 0.28199 0.72991 0.0
H582 H 0.3772 0.46723 0.93044 0.0
H583 H 0.37546 0.55166 0.67616 0.0
H584 H 0.39027 0.35018 0.80398 0.0
H585 H 0.38815 0.67321 0.80281 0.0
C586 C 0.38498 0.66643 0.87348 0.0
C587 C 0.38182 0.60956 0.91044 0.0
C588 C 0.38715 0.39424 0.7758 0.0
C589 C 0.38383 0.53263 0.82551 0.0
C590 C 0.38629 0.35536 0.73352 0.0
C591 C 0.38202 0.41087 0.69653 0.0
C592 C 0.38394 0.4894 0.78109 0.0
C593 C 0.37894 0.50577 0.70343 0.0
C594 C 0.38587 0.62829 0.83099 0.0
C595 C 0.37982 0.51427 0.90327 0.0
N596 N 0.38001 0.54189 0.74474 0.0
N597 N 0.38092 0.47903 0.86183 0.0
H598 H 0.62833 0.5466 0.92911 0.0
H599 H 0.61922 0.45776 0.67182 0.0
H600 H 0.61086 0.28152 0.87454 0.0
H601 H 0.6148 0.72987 0.72813 0.0
H602 H 0.61794 0.39246 0.74531 0.0
H603 H 0.6254 0.61376 0.85601 0.0
C604 C 0.62372 0.50216 0.90188 0.0
C605 C 0.61968 0.40773 0.90835 0.0
C606 C 0.61703 0.46637 0.74169 0.0
C607 C 0.61665 0.48542 0.82382 0.0
C608 C 0.61773 0.50425 0.69954 0.0
C609 C 0.61693 0.60008 0.6934 0.0
C610 C 0.61595 0.52426 0.7785 0.0
C611 C 0.61536 0.65583 0.73111 0.0
C612 C 0.62204 0.5411 0.86001 0.0
C613 C 0.61407 0.35442 0.8713 0.0
N614 N 0.6151 0.61707 0.77212 0.0
N615 N 0.61286 0.39395 0.83056 0.0
H616 H 0.12711 0.06935 0.17126 0.0
H617 H 0.12746 0.94433 0.42692 0.0
H618 H 0.1387 0.79404 0.21922 0.0
H619 H 0.13773 0.22068 0.37917 0.0
H620 H 0.12845 0.88836 0.35116 0.0
H621 H 0.12787 0.12565 0.24702 0.0
C622 C 0.12975 0.02049 0.19774 0.0
C623 C 0.13275 0.92652 0.18884 0.0
C624 C 0.13055 0.96118 0.3572 0.0
C625 C 0.1336 0.99113 0.27589 0.0
C626 C 0.12986 0.99349 0.40048 0.0
C627 C 0.13241 0.08765 0.40945 0.0
C628 C 0.13353 0.02339 0.32236 0.0
C629 C 0.1357 0.14765 0.37377 0.0
C630 C 0.13031 0.053 0.24101 0.0
C631 C 0.13632 0.86691 0.22456 0.0
N632 N 0.13601 0.11454 0.33169 0.0
N633 N 0.1365 0.90018 0.26661 0.0
H634 H 0.87205 0.06074 0.43066 0.0
H635 H 0.87243 0.93564 0.17483 0.0
H636 H 0.86104 0.7851 0.38265 0.0
H637 H 0.86218 0.21191 0.22263 0.0
H638 H 0.87133 0.87954 0.25062 0.0
H639 H 0.87151 0.11693 0.35487 0.0
C640 C 0.86958 0.01179 0.40417 0.0
C641 C 0.86668 0.91776 0.41308 0.0
C642 C 0.86926 0.95237 0.24458 0.0
C643 C 0.86608 0.98226 0.32594 0.0
C644 C 0.87001 0.98475 0.20128 0.0
C645 C 0.86749 0.07893 0.19231 0.0
C646 C 0.86625 0.01453 0.27944 0.0
C647 C 0.86419 0.13886 0.22801 0.0
C648 C 0.86915 0.04422 0.36086 0.0
C649 C 0.86333 0.85803 0.37731 0.0
N650 N 0.86381 0.10569 0.27009 0.0
N651 N 0.86327 0.89124 0.33524 0.0
H652 H 0.88755 0.76861 0.7291 0.0
H653 H 0.88793 0.22778 0.8761 0.0
H654 H 0.87595 0.03995 0.67579 0.0
H655 H 0.87827 0.95566 0.92996 0.0
H656 H 0.88914 0.1601 0.80177 0.0
H657 H 0.88971 0.83647 0.80328 0.0
C658 C 0.8856 0.84216 0.73282 0.0
C659 C 0.88164 0.89829 0.69592 0.0
C660 C 0.88688 0.11549 0.83007 0.0
C661 C 0.88426 0.97639 0.78049 0.0
C662 C 0.88624 0.1541 0.87247 0.0
C663 C 0.88308 0.0977 0.90957 0.0
C664 C 0.88458 0.01984 0.82483 0.0
C665 C 0.88089 1.00237 0.90265 0.0
C666 C 0.8868 0.88088 0.77514 0.0
C667 C 0.87918 0.99347 0.70295 0.0
N668 N 0.88173 0.96667 0.86129 0.0
N669 N 0.88057 0.02932 0.74423 0.0
H670 H 0.11344 0.77642 0.87269 0.0
H671 H 0.11656 0.23622 0.7259 0.0
H672 H 0.12431 0.0479 0.92643 0.0
H673 H 0.12228 0.96258 0.67171 0.0
H674 H 0.11501 0.16876 0.80019 0.0
H675 H 0.11225 0.84415 0.79841 0.0
C676 C 0.11544 0.84997 0.86903 0.0
C677 C 0.11891 0.90616 0.90608 0.0
C678 C 0.11653 0.12375 0.77186 0.0
C679 C 0.11747 0.98415 0.82137 0.0
C680 C 0.11738 0.16228 0.72948 0.0
C681 C 0.11949 0.10539 0.69229 0.0
C682 C 0.11763 0.02772 0.77703 0.0
C683 C 0.12053 0.00971 0.69912 0.0
C684 C 0.1148 0.88864 0.82665 0.0
C685 C 0.12147 1.00134 0.89914 0.0
N686 N 0.11956 0.97413 0.74049 0.0
N687 N 0.12067 0.03709 0.85779 0.0
H688 H 0.47391 0.75294 0.00156 0.0
H689 H 0.52691 0.26188 0.0028 0.0
H690 H 0.43361 0.99997 0.01244 0.0
H691 H 0.56728 0.01425 0.00798 0.0
H692 H 0.49236 0.16715 0.00243 0.0
H693 H 0.50841 0.84781 1e-05 0.0
C694 C 0.47229 0.82691 0.00356 0.0
C695 C 0.4508 0.86829 0.00719 0.0
C696 C 0.50881 0.1337 0.00362 0.0
C697 C 0.49016 0.97738 0.00533 0.0
C698 C 0.52853 0.18782 0.00377 0.0
C699 C 0.55006 0.14621 0.00548 0.0
C700 C 0.51065 0.03733 0.00498 0.0
C701 C 0.5511 0.04969 0.00675 0.0
C702 C 0.49198 0.88112 0.00272 0.0
C703 C 0.44977 0.96471 0.0097 0.0
N704 N 0.53173 0.99874 0.00643 0.0
N705 N 0.46911 0.01578 0.00869 0.0
H706 H 0.56729 0.99646 0.59499 0.0
H707 H 0.43132 0.01039 0.59054 0.0
H708 H 0.52544 0.7526 0.59729 0.0
H709 H 0.47332 0.25242 0.60327 0.0
H710 H 0.46545 0.91551 0.59068 0.0
H711 H 0.53312 0.09058 0.59585 0.0
C712 C 0.5509 0.96241 0.59568 0.0
C713 C 0.54931 0.86604 0.59605 0.0
C714 C 0.46724 0.98929 0.59351 0.0
C715 C 0.50987 0.97453 0.59696 0.0
C716 C 0.44772 0.04385 0.59337 0.0
C717 C 0.44939 0.13993 0.59695 0.0
C718 C 0.48872 0.03073 0.59705 0.0
C719 C 0.47118 0.17881 0.6005 0.0
C720 C 0.53135 0.01656 0.59624 0.0
C721 C 0.52752 0.82647 0.59706 0.0
N722 N 0.48998 0.12407 0.60038 0.0
N723 N 0.50865 0.88091 0.59737 0.0
H724 H 0.02658 0.75665 0.00074 0.0
H725 H 0.97546 0.24453 0.00085 0.0
H726 H 0.06798 0.51182 0.00609 0.0
H727 H 0.9344 0.48958 0.01137 0.0
H728 H 0.00966 0.34127 -0.00113 0.0
H729 H 0.99243 0.65967 0.0006 0.0
C730 C 0.02851 0.68271 0.00177 0.0
C731 C 0.05021 0.64258 0.0035 0.0
C732 C 0.99313 0.3737 0.0016 0.0
C733 C 0.01126 0.53107 0.0033 0.0
C734 C 0.97361 0.31844 0.00268 0.0
C735 C 0.95199 0.35872 0.00632 0.0
C736 C 0.99099 0.46989 0.00396 0.0
C737 C 0.95065 0.45511 0.00863 0.0
C738 C 0.00902 0.6273 0.00177 0.0
C739 C 0.05165 0.54613 0.00486 0.0
N740 N 0.96982 0.50717 0.00736 0.0
N741 N 0.03249 0.49388 0.00471 0.0
H742 H 0.06824 0.49805 0.60208 0.0
H743 H 0.93237 0.50518 0.59091 0.0
H744 H 0.02709 0.2524 0.59812 0.0
H745 H 0.97328 0.74925 0.60747 0.0
H746 H 0.96677 0.41228 0.59253 0.0
H747 H 0.03377 0.59056 0.6034 0.0
C748 C 0.05195 0.46328 0.60156 0.0
C749 C 0.05063 0.3669 0.59987 0.0
C750 C 0.96828 0.48607 0.5959 0.0
C751 C 0.01087 0.47347 0.6013 0.0
C752 C 0.94859 0.53953 0.59491 0.0
C753 C 0.94986 0.63561 0.59906 0.0
C754 C 0.98954 0.52858 0.60089 0.0
C755 C 0.97144 0.6756 0.60418 0.0
C756 C 0.03222 0.51649 0.60238 0.0
C757 C 0.02896 0.3263 0.59947 0.0
N758 N 0.99044 0.62189 0.60485 0.0
N759 N 0.00993 0.37983 0.6 0.0
loop_
_geom_bond_atom_site_label_1
_geom_bond_atom_site_label_2
_geom_bond_distance
_geom_bond_site_symmetry_2
_ccdc_geom_bond_type
Co0 O2 2.143 . S
Co0 O8 2.074 1_554 S
Co0 O11 2.093 . S
Co0 O24 2.097 . S
Co0 N41 2.151 . S
Co0 N49 2.214 . S
Co1 O2 2.160 . S
Co1 O7 2.058 1_554 S
Co1 O17 2.057 . S
Co1 O32 2.037 . S
Co1 N36 2.145 1_554 S
Co1 N57 2.257 . S
O2 Co0 2.143 . S
O2 Co1 2.160 . S
C3 O4 1.278 . S
C3 O11 1.224 . S
O4 C3 1.278 . S
C5 O6 1.245 . S
C5 O17 1.232 . S
O6 C5 1.245 . S
O7 Co1 2.058 1_556 S
O7 C33 1.269 . S
O8 Co0 2.074 1_556 S
O8 C33 1.257 . S
H9 C34 0.930 . S
H10 C40 0.930 . S
O11 Co0 2.093 . S
O11 C3 1.224 . S
H12 C44 0.929 1_556 S
H13 C46 0.930 . S
H14 C47 0.938 . S
H15 C45 0.929 1_556 S
H16 C48 0.928 . S
O17 Co1 2.057 . S
O17 C5 1.232 . S
H18 C37 0.929 . S
H19 C38 0.929 . S
H20 C50 0.931 1_556 S
H21 C42 0.929 . S
H22 C51 0.930 . S
H23 C43 0.931 . S
O24 Co0 2.097 . S
O24 C52 1.214 . S
H25 C53 0.929 . S
H26 C54 0.929 . S
H27 C55 0.930 1_565 S
H28 C56 0.929 1_565 S
H29 C58 0.930 . S
H30 C35 0.930 . S
H31 C39 0.930 . S
O32 Co1 2.037 . S
O32 C52 1.234 . S
C33 O7 1.269 . S
C33 O8 1.257 . S
C34 H9 0.930 . S
C34 C37 1.388 . S
C34 C39 1.418 1_545 S
C35 H30 0.930 . S
C35 C38 1.404 1_565 S
C35 C39 1.353 . S
N36 Co1 2.145 1_556 S
N36 C37 1.397 . S
N36 C38 1.334 . S
C37 H18 0.929 . S
C37 C34 1.388 . S
C37 N36 1.397 . S
C38 H19 0.929 . S
C38 C35 1.404 1_545 S
C38 N36 1.334 . S
C39 H31 0.930 . S
C39 C34 1.418 1_565 S
C39 C35 1.353 . S
C40 H10 0.930 . S
C40 N41 1.330 . S
C40 C42 1.446 . S
N41 Co0 2.151 . S
N41 C40 1.330 . S
N41 C45 1.418 . S
C42 H21 0.929 . S
C42 C40 1.446 . S
C42 C43 1.332 . S
C43 H23 0.931 . S
C43 C42 1.332 . S
C43 C44 1.267 . S
C44 H12 0.929 1_554 S
C44 C43 1.267 . S
C44 C45 1.251 . S
C45 H15 0.929 1_554 S
C45 N41 1.418 . S
C45 C44 1.251 . S
C46 H13 0.930 . S
C46 C48 1.406 . S
C46 C51 1.261 . S
C47 H14 0.938 . S
C47 N49 1.325 . S
C47 C50 1.357 . S
C48 H16 0.928 . S
C48 C46 1.406 . S
C48 N49 1.261 . S
N49 Co0 2.214 . S
N49 C47 1.325 . S
N49 C48 1.261 . S
C50 H20 0.931 1_554 S
C50 C47 1.357 . S
C50 C51 1.312 . S
C51 H22 0.930 . S
C51 C46 1.261 . S
C51 C50 1.312 . S
C52 O24 1.214 . S
C52 O32 1.234 . S
C53 H25 0.929 . S
C53 C56 1.391 . S
C53 C58 1.391 . S
C54 H26 0.929 . S
C54 C55 1.390 . S
C54 N57 1.391 . S
C55 H27 0.930 1_545 S
C55 C54 1.390 . S
C55 C56 1.392 . S
C56 H28 0.929 1_545 S
C56 C53 1.391 . S
C56 C55 1.392 . S
N57 Co1 2.257 . S
N57 C54 1.391 . S
N57 C58 1.388 . S
C58 H29 0.930 . S
C58 C53 1.391 . S
C58 N57 1.388 . S
Co59 O61 2.143 . S
Co59 O67 2.074 1_554 S
Co59 O70 2.093 . S
Co59 O83 2.097 . S
Co59 N100 2.151 . S
Co59 N108 2.214 . S
Co60 O61 2.160 . S
Co60 O66 2.058 1_554 S
Co60 O76 2.057 . S
Co60 O91 2.037 . S
Co60 N95 2.145 1_554 S
Co60 N116 2.257 . S
O61 Co59 2.143 . S
O61 Co60 2.160 . S
C62 O63 1.278 . S
C62 O70 1.224 . S
O63 C62 1.278 . S
C64 O65 1.245 . S
C64 O76 1.232 . S
O65 C64 1.245 . S
O66 Co60 2.058 1_556 S
O66 C92 1.269 . S
O67 Co59 2.074 1_556 S
O67 C92 1.257 . S
H68 C93 0.930 . S
H69 C99 0.930 . S
O70 Co59 2.093 . S
O70 C62 1.224 . S
H71 C103 0.929 1_556 S
H72 C105 0.930 . S
H73 C106 0.938 . S
H74 C104 0.929 1_556 S
H75 C107 0.928 . S
O76 Co60 2.057 . S
O76 C64 1.232 . S
H77 C96 0.929 . S
H78 C97 0.929 . S
H79 C109 0.931 1_556 S
H80 C101 0.929 . S
H81 C110 0.930 . S
H82 C102 0.931 . S
O83 Co59 2.097 . S
O83 C111 1.214 . S
H84 C112 0.929 . S
H85 C113 0.929 . S
H86 C114 0.930 1_545 S
H87 C115 0.929 1_545 S
H88 C117 0.930 . S
H89 C94 0.930 . S
H90 C98 0.930 . S
O91 Co60 2.037 . S
O91 C111 1.234 . S
C92 O66 1.269 . S
C92 O67 1.257 . S
C93 H68 0.930 . S
C93 C96 1.388 . S
C93 C98 1.418 1_565 S
C94 H89 0.930 . S
C94 C97 1.404 1_545 S
C94 C98 1.353 . S
N95 Co60 2.145 1_556 S
N95 C96 1.397 . S
N95 C97 1.334 . S
C96 H77 0.929 . S
C96 C93 1.388 . S
C96 N95 1.397 . S
C97 H78 0.929 . S
C97 C94 1.404 1_565 S
C97 N95 1.334 . S
C98 H90 0.930 . S
C98 C93 1.418 1_545 S
C98 C94 1.353 . S
C99 H69 0.930 . S
C99 N100 1.330 . S
C99 C101 1.446 . S
N100 Co59 2.151 . S
N100 C99 1.330 . S
N100 C104 1.418 . S
C101 H80 0.929 . S
C101 C99 1.446 . S
C101 C102 1.332 . S
C102 H82 0.931 . S
C102 C101 1.332 . S
C102 C103 1.267 . S
C103 H71 0.929 1_554 S
C103 C102 1.267 . S
C103 C104 1.251 . S
C104 H74 0.929 1_554 S
C104 N100 1.418 . S
C104 C103 1.251 . S
C105 H72 0.930 . S
C105 C107 1.406 . S
C105 C110 1.261 . S
C106 H73 0.938 . S
C106 N108 1.325 . S
C106 C109 1.357 . S
C107 H75 0.928 . S
C107 C105 1.406 . S
C107 N108 1.261 . S
N108 Co59 2.214 . S
N108 C106 1.325 . S
N108 C107 1.261 . S
C109 H79 0.931 1_554 S
C109 C106 1.357 . S
C109 C110 1.312 . S
C110 H81 0.930 . S
C110 C105 1.261 . S
C110 C109 1.312 . S
C111 O83 1.214 . S
C111 O91 1.234 . S
C112 H84 0.929 . S
C112 C115 1.391 . S
C112 C117 1.391 . S
C113 H85 0.929 . S
C113 C114 1.390 . S
C113 N116 1.391 . S
C114 H86 0.930 1_565 S
C114 C113 1.390 . S
C114 C115 1.392 . S
C115 H87 0.929 1_565 S
C115 C112 1.391 . S
C115 C114 1.392 . S
N116 Co60 2.257 . S
N116 C113 1.391 . S
N116 C117 1.388 . S
C117 H88 0.930 . S
C117 C112 1.391 . S
C117 N116 1.388 . S
Co118 O120 2.143 . S
Co118 O126 2.074 . S
Co118 O129 2.093 . S
Co118 O142 2.097 . S
Co118 N159 2.151 . S
Co118 N167 2.214 . S
Co119 O120 2.160 . S
Co119 O125 2.058 . S
Co119 O135 2.057 . S
Co119 O150 2.037 . S
Co119 N154 2.145 . S
Co119 N175 2.257 . S
O120 Co118 2.143 . S
O120 Co119 2.160 . S
C121 O122 1.278 . S
C121 O129 1.224 . S
O122 C121 1.278 . S
C123 O124 1.245 . S
C123 O135 1.232 . S
O124 C123 1.245 . S
O125 Co119 2.058 . S
O125 C151 1.269 . S
O126 Co118 2.074 . S
O126 C151 1.257 . S
H127 C152 0.930 . S
H128 C158 0.930 . S
O129 Co118 2.093 . S
O129 C121 1.224 . S
H130 C162 0.929 . S
H131 C164 0.930 . S
H132 C165 0.930 . S
H133 C163 0.929 . S
H134 C166 0.928 . S
O135 Co119 2.057 . S
O135 C123 1.232 . S
H136 C155 0.929 . S
H137 C156 0.929 . S
H138 C168 0.931 . S
H139 C160 0.929 . S
H140 C169 0.930 . S
H141 C161 0.931 . S
O142 Co118 2.097 . S
O142 C170 1.214 . S
H143 C171 0.929 . S
H144 C172 0.929 . S
H145 C173 0.930 1_545 S
H146 C174 0.929 1_545 S
H147 C176 0.930 . S
H148 C153 0.930 . S
H149 C157 0.930 . S
O150 Co119 2.037 . S
O150 C170 1.234 . S
C151 O125 1.269 . S
C151 O126 1.257 . S
C152 H127 0.930 . S
C152 C155 1.388 . S
C152 C157 1.418 1_565 S
C153 H148 0.930 . S
C153 C156 1.404 1_545 S
C153 C157 1.353 . S
N154 Co119 2.145 . S
N154 C155 1.397 . S
N154 C156 1.334 . S
C155 H136 0.929 . S
C155 C152 1.388 . S
C155 N154 1.397 . S
C156 H137 0.929 . S
C156 C153 1.404 1_565 S
C156 N154 1.334 . S
C157 H149 0.930 . S
C157 C152 1.418 1_545 S
C157 C153 1.353 . S
C158 H128 0.930 . S
C158 N159 1.330 . S
C158 C160 1.446 . S
N159 Co118 2.151 . S
N159 C158 1.330 . S
N159 C163 1.418 . S
C160 H139 0.929 . S
C160 C158 1.446 . S
C160 C161 1.332 . S
C161 H141 0.931 . S
C161 C160 1.332 . S
C161 C162 1.267 . S
C162 H130 0.929 . S
C162 C161 1.267 . S
C162 C163 1.251 . S
C163 H133 0.929 . S
C163 N159 1.418 . S
C163 C162 1.251 . S
C164 H131 0.930 . S
C164 C166 1.406 . S
C164 C169 1.261 . S
C165 H132 0.930 . S
C165 N167 1.325 . S
C165 C168 1.357 . S
C166 H134 0.928 . S
C166 C164 1.406 . S
C166 N167 1.261 . S
N167 Co118 2.214 . S
N167 C165 1.325 . S
N167 C166 1.261 . S
C168 H138 0.931 . S
C168 C165 1.357 . S
C168 C169 1.312 . S
C169 H140 0.930 . S
C169 C164 1.261 . S
C169 C168 1.312 . S
C170 O142 1.214 . S
C170 O150 1.234 . S
C171 H143 0.929 . S
C171 C174 1.391 . S
C171 C176 1.391 . S
C172 H144 0.929 . S
C172 C173 1.390 . S
C172 N175 1.391 . S
C173 H145 0.930 1_565 S
C173 C172 1.390 . S
C173 C174 1.392 . S
C174 H146 0.929 1_565 S
C174 C171 1.391 . S
C174 C173 1.392 . S
N175 Co119 2.257 . S
N175 C172 1.391 . S
N175 C176 1.388 . S
C176 H147 0.930 . S
C176 C171 1.391 . S
C176 N175 1.388 . S
Co177 O179 2.143 . S
Co177 O185 2.074 . S
Co177 O188 2.093 . S
Co177 O201 2.097 . S
Co177 N218 2.151 . S
Co177 N226 2.214 . S
Co178 O179 2.160 . S
Co178 O184 2.058 . S
Co178 O194 2.057 . S
Co178 O209 2.037 . S
Co178 N213 2.145 . S
Co178 N234 2.257 . S
O179 Co177 2.143 . S
O179 Co178 2.160 . S
C180 O181 1.278 . S
C180 O188 1.224 . S
O181 C180 1.278 . S
C182 O183 1.245 . S
C182 O194 1.232 . S
O183 C182 1.245 . S
O184 Co178 2.058 . S
O184 C210 1.269 . S
O185 Co177 2.074 . S
O185 C210 1.257 . S
H186 C211 0.930 . S
H187 C217 0.930 . S
O188 Co177 2.093 . S
O188 C180 1.224 . S
H189 C221 0.929 . S
H190 C223 0.930 . S
H191 C224 0.930 . S
H192 C222 0.929 . S
H193 C225 0.928 . S
O194 Co178 2.057 . S
O194 C182 1.232 . S
H195 C214 0.929 . S
H196 C215 0.929 . S
H197 C227 0.931 . S
H198 C219 0.929 . S
H199 C228 0.930 . S
H200 C220 0.931 . S
O201 Co177 2.097 . S
O201 C229 1.214 . S
H202 C230 0.929 . S
H203 C231 0.929 . S
H204 C232 0.930 1_565 S
H205 C233 0.929 1_565 S
H206 C235 0.930 . S
H207 C212 0.930 . S
H208 C216 0.930 . S
O209 Co178 2.037 . S
O209 C229 1.234 . S
C210 O184 1.269 . S
C210 O185 1.257 . S
C211 H186 0.930 . S
C211 C214 1.388 . S
C211 C216 1.418 1_545 S
C212 H207 0.930 . S
C212 C215 1.404 1_565 S
C212 C216 1.353 . S
N213 Co178 2.145 . S
N213 C214 1.397 . S
N213 C215 1.334 . S
C214 H195 0.929 . S
C214 C211 1.388 . S
C214 N213 1.397 . S
C215 H196 0.929 . S
C215 C212 1.404 1_545 S
C215 N213 1.334 . S
C216 H208 0.930 . S
C216 C211 1.418 1_565 S
C216 C212 1.353 . S
C217 H187 0.930 . S
C217 N218 1.330 . S
C217 C219 1.446 . S
N218 Co177 2.151 . S
N218 C217 1.330 . S
N218 C222 1.418 . S
C219 H198 0.929 . S
C219 C217 1.446 . S
C219 C220 1.332 . S
C220 H200 0.931 . S
C220 C219 1.332 . S
C220 C221 1.267 . S
C221 H189 0.929 . S
C221 C220 1.267 . S
C221 C222 1.251 . S
C222 H192 0.929 . S
C222 N218 1.418 . S
C222 C221 1.251 . S
C223 H190 0.930 . S
C223 C225 1.406 . S
C223 C228 1.261 . S
C224 H191 0.930 . S
C224 N226 1.325 . S
C224 C227 1.357 . S
C225 H193 0.928 . S
C225 C223 1.406 . S
C225 N226 1.261 . S
N226 Co177 2.214 . S
N226 C224 1.325 . S
N226 C225 1.261 . S
C227 H197 0.931 . S
C227 C224 1.357 . S
C227 C228 1.312 . S
C228 H199 0.930 . S
C228 C223 1.261 . S
C228 C227 1.312 . S
C229 O201 1.214 . S
C229 O209 1.234 . S
C230 H202 0.929 . S
C230 C233 1.391 . S
C230 C235 1.391 . S
C231 H203 0.929 . S
C231 C232 1.390 . S
C231 N234 1.391 . S
C232 H204 0.930 1_545 S
C232 C231 1.390 . S
C232 C233 1.392 . S
C233 H205 0.929 1_545 S
C233 C230 1.391 . S
C233 C232 1.392 . S
N234 Co178 2.257 . S
N234 C231 1.391 . S
N234 C235 1.388 . S
C235 H206 0.930 . S
C235 C230 1.391 . S
C235 N234 1.388 . S
Co236 O238 2.143 . S
Co236 O244 2.074 1_554 S
Co236 O247 2.093 . S
Co236 O260 2.097 . S
Co236 N277 2.151 1_565 S
Co236 N285 2.214 1_565 S
Co237 O238 2.160 . S
Co237 O243 2.058 1_554 S
Co237 O253 2.057 . S
Co237 O268 2.037 . S
Co237 N272 2.145 1_554 S
Co237 N293 2.257 . S
O238 Co236 2.143 . S
O238 Co237 2.160 . S
C239 O240 1.278 . S
C239 O247 1.224 . S
O240 C239 1.278 . S
C241 O242 1.245 . S
C241 O253 1.232 . S
O242 C241 1.245 . S
O243 Co237 2.058 1_556 S
O243 C269 1.269 . S
O244 Co236 2.074 1_556 S
O244 C269 1.257 . S
H245 C270 0.930 . S
H246 C276 0.930 1_565 S
O247 Co236 2.093 . S
O247 C239 1.224 . S
H248 C280 0.929 1_556 S
H249 C282 0.930 . S
H250 C283 0.938 1_565 S
H251 C281 0.929 1_556 S
H252 C284 0.928 . S
O253 Co237 2.057 . S
O253 C241 1.232 . S
H254 C273 0.929 . S
H255 C274 0.929 . S
H256 C286 0.931 1_556 S
H257 C278 0.929 . S
H258 C287 0.930 . S
H259 C279 0.931 . S
O260 Co236 2.097 . S
O260 C288 1.214 . S
H261 C289 0.929 . S
H262 C290 0.929 . S
H263 C291 0.930 . S
H264 C292 0.929 . S
H265 C294 0.930 . S
H266 C271 0.930 . S
H267 C275 0.930 . S
O268 Co237 2.037 . S
O268 C288 1.234 . S
C269 O243 1.269 . S
C269 O244 1.257 . S
C270 H245 0.930 . S
C270 C273 1.388 . S
C270 C275 1.418 . S
C271 H266 0.930 . S
C271 C274 1.404 . S
C271 C275 1.353 . S
N272 Co237 2.145 1_556 S
N272 C273 1.397 . S
N272 C274 1.334 . S
C273 H254 0.929 . S
C273 C270 1.388 . S
C273 N272 1.397 . S
C274 H255 0.929 . S
C274 C271 1.404 . S
C274 N272 1.334 . S
C275 H267 0.930 . S
C275 C270 1.418 . S
C275 C271 1.353 . S
C276 H246 0.930 1_545 S
C276 N277 1.330 . S
C276 C278 1.446 . S
N277 Co236 2.151 1_545 S
N277 C276 1.330 . S
N277 C281 1.418 . S
C278 H257 0.929 . S
C278 C276 1.446 . S
C278 C279 1.332 . S
C279 H259 0.931 . S
C279 C278 1.332 . S
C279 C280 1.267 . S
C280 H248 0.929 1_554 S
C280 C279 1.267 . S
C280 C281 1.251 . S
C281 H251 0.929 1_554 S
C281 N277 1.418 . S
C281 C280 1.251 . S
C282 H249 0.930 . S
C282 C284 1.406 . S
C282 C287 1.261 . S
C283 H250 0.938 1_545 S
C283 N285 1.325 . S
C283 C286 1.357 . S
C284 H252 0.928 . S
C284 C282 1.406 . S
C284 N285 1.261 . S
N285 Co236 2.214 1_545 S
N285 C283 1.325 . S
N285 C284 1.261 . S
C286 H256 0.931 1_554 S
C286 C283 1.357 . S
C286 C287 1.312 . S
C287 H258 0.930 . S
C287 C282 1.261 . S
C287 C286 1.312 . S
C288 O260 1.214 . S
C288 O268 1.234 . S
C289 H261 0.929 . S
C289 C292 1.391 . S
C289 C294 1.391 . S
C290 H262 0.929 . S
C290 C291 1.390 . S
C290 N293 1.391 . S
C291 H263 0.930 . S
C291 C290 1.390 . S
C291 C292 1.392 . S
C292 H264 0.929 . S
C292 C289 1.391 . S
C292 C291 1.392 . S
N293 Co237 2.257 . S
N293 C290 1.391 . S
N293 C294 1.388 . S
C294 H265 0.930 . S
C294 C289 1.391 . S
C294 N293 1.388 . S
Co295 O297 2.143 . S
Co295 O303 2.074 1_554 S
Co295 O306 2.093 . S
Co295 O319 2.097 . S
Co295 N336 2.151 1_545 S
Co295 N344 2.214 1_545 S
Co296 O297 2.160 . S
Co296 O302 2.058 1_554 S
Co296 O312 2.057 . S
Co296 O327 2.037 . S
Co296 N331 2.145 1_554 S
Co296 N352 2.257 . S
O297 Co295 2.143 . S
O297 Co296 2.160 . S
C298 O299 1.278 . S
C298 O306 1.224 . S
O299 C298 1.278 . S
C300 O301 1.245 . S
C300 O312 1.232 . S
O301 C300 1.245 . S
O302 Co296 2.058 1_556 S
O302 C328 1.269 . S
O303 Co295 2.074 1_556 S
O303 C328 1.257 . S
H304 C329 0.930 . S
H305 C335 0.930 1_545 S
O306 Co295 2.093 . S
O306 C298 1.224 . S
H307 C339 0.929 1_556 S
H308 C341 0.930 . S
H309 C342 0.938 1_545 S
H310 C340 0.929 1_556 S
H311 C343 0.928 . S
O312 Co296 2.057 . S
O312 C300 1.232 . S
H313 C332 0.929 . S
H314 C333 0.929 . S
H315 C345 0.931 1_556 S
H316 C337 0.929 . S
H317 C346 0.930 . S
H318 C338 0.931 . S
O319 Co295 2.097 . S
O319 C347 1.214 . S
H320 C348 0.929 . S
H321 C349 0.929 . S
H322 C350 0.930 . S
H323 C351 0.929 . S
H324 C353 0.930 . S
H325 C330 0.930 . S
H326 C334 0.930 . S
O327 Co296 2.037 . S
O327 C347 1.234 . S
C328 O302 1.269 . S
C328 O303 1.257 . S
C329 H304 0.930 . S
C329 C332 1.388 . S
C329 C334 1.418 . S
C330 H325 0.930 . S
C330 C333 1.404 . S
C330 C334 1.353 . S
N331 Co296 2.145 1_556 S
N331 C332 1.397 . S
N331 C333 1.334 . S
C332 H313 0.929 . S
C332 C329 1.388 . S
C332 N331 1.397 . S
C333 H314 0.929 . S
C333 C330 1.404 . S
C333 N331 1.334 . S
C334 H326 0.930 . S
C334 C329 1.418 . S
C334 C330 1.353 . S
C335 H305 0.930 1_565 S
C335 N336 1.330 . S
C335 C337 1.446 . S
N336 Co295 2.151 1_565 S
N336 C335 1.330 . S
N336 C340 1.418 . S
C337 H316 0.929 . S
C337 C335 1.446 . S
C337 C338 1.332 . S
C338 H318 0.931 . S
C338 C337 1.332 . S
C338 C339 1.267 . S
C339 H307 0.929 1_554 S
C339 C338 1.267 . S
C339 C340 1.251 . S
C340 H310 0.929 1_554 S
C340 N336 1.418 . S
C340 C339 1.251 . S
C341 H308 0.930 . S
C341 C343 1.406 . S
C341 C346 1.261 . S
C342 H309 0.938 1_565 S
C342 N344 1.325 . S
C342 C345 1.357 . S
C343 H311 0.928 . S
C343 C341 1.406 . S
C343 N344 1.261 . S
N344 Co295 2.214 1_565 S
N344 C342 1.325 . S
N344 C343 1.261 . S
C345 H315 0.931 1_554 S
C345 C342 1.357 . S
C345 C346 1.312 . S
C346 H317 0.930 . S
C346 C341 1.261 . S
C346 C345 1.312 . S
C347 O319 1.214 . S
C347 O327 1.234 . S
C348 H320 0.929 . S
C348 C351 1.391 . S
C348 C353 1.391 . S
C349 H321 0.929 . S
C349 C350 1.390 . S
C349 N352 1.391 . S
C350 H322 0.930 . S
C350 C349 1.390 . S
C350 C351 1.392 . S
C351 H323 0.929 . S
C351 C348 1.391 . S
C351 C350 1.392 . S
N352 Co296 2.257 . S
N352 C349 1.391 . S
N352 C353 1.388 . S
C353 H324 0.930 . S
C353 C348 1.391 . S
C353 N352 1.388 . S
Co354 O356 2.143 . S
Co354 O362 2.074 . S
Co354 O365 2.093 . S
Co354 O378 2.097 . S
Co354 N395 2.151 1_545 S
Co354 N403 2.214 1_545 S
Co355 O356 2.160 . S
Co355 O361 2.058 . S
Co355 O371 2.057 . S
Co355 O386 2.037 . S
Co355 N390 2.145 . S
Co355 N411 2.257 . S
O356 Co354 2.143 . S
O356 Co355 2.160 . S
C357 O358 1.278 . S
C357 O365 1.224 . S
O358 C357 1.278 . S
C359 O360 1.245 . S
C359 O371 1.232 . S
O360 C359 1.245 . S
O361 Co355 2.058 . S
O361 C387 1.269 . S
O362 Co354 2.074 . S
O362 C387 1.257 . S
H363 C388 0.930 . S
H364 C394 0.930 1_545 S
O365 Co354 2.093 . S
O365 C357 1.224 . S
H366 C398 0.929 . S
H367 C400 0.930 . S
H368 C401 0.930 1_545 S
H369 C399 0.929 . S
H370 C402 0.928 . S
O371 Co355 2.057 . S
O371 C359 1.232 . S
H372 C391 0.929 . S
H373 C392 0.929 . S
H374 C404 0.931 . S
H375 C396 0.929 . S
H376 C405 0.930 . S
H377 C397 0.931 . S
O378 Co354 2.097 . S
O378 C406 1.214 . S
H379 C407 0.929 . S
H380 C408 0.929 . S
H381 C409 0.930 . S
H382 C410 0.929 . S
H383 C412 0.930 . S
H384 C389 0.930 . S
H385 C393 0.930 . S
O386 Co355 2.037 . S
O386 C406 1.234 . S
C387 O361 1.269 . S
C387 O362 1.257 . S
C388 H363 0.930 . S
C388 C391 1.388 . S
C388 C393 1.418 . S
C389 H384 0.930 . S
C389 C392 1.404 . S
C389 C393 1.353 . S
N390 Co355 2.145 . S
N390 C391 1.397 . S
N390 C392 1.334 . S
C391 H372 0.929 . S
C391 C388 1.388 . S
C391 N390 1.397 . S
C392 H373 0.929 . S
C392 C389 1.404 . S
C392 N390 1.334 . S
C393 H385 0.930 . S
C393 C388 1.418 . S
C393 C389 1.353 . S
C394 H364 0.930 1_565 S
C394 N395 1.330 . S
C394 C396 1.446 . S
N395 Co354 2.151 1_565 S
N395 C394 1.330 . S
N395 C399 1.418 . S
C396 H375 0.929 . S
C396 C394 1.446 . S
C396 C397 1.332 . S
C397 H377 0.931 . S
C397 C396 1.332 . S
C397 C398 1.267 . S
C398 H366 0.929 . S
C398 C397 1.267 . S
C398 C399 1.251 . S
C399 H369 0.929 . S
C399 N395 1.418 . S
C399 C398 1.251 . S
C400 H367 0.930 . S
C400 C402 1.406 . S
C400 C405 1.261 . S
C401 H368 0.930 1_565 S
C401 N403 1.325 . S
C401 C404 1.357 . S
C402 H370 0.928 . S
C402 C400 1.406 . S
C402 N403 1.261 . S
N403 Co354 2.214 1_565 S
N403 C401 1.325 . S
N403 C402 1.261 . S
C404 H374 0.931 . S
C404 C401 1.357 . S
C404 C405 1.312 . S
C405 H376 0.930 . S
C405 C400 1.261 . S
C405 C404 1.312 . S
C406 O378 1.214 . S
C406 O386 1.234 . S
C407 H379 0.929 . S
C407 C410 1.391 . S
C407 C412 1.391 . S
C408 H380 0.929 . S
C408 C409 1.390 . S
C408 N411 1.391 . S
C409 H381 0.930 . S
C409 C408 1.390 . S
C409 C410 1.392 . S
C410 H382 0.929 . S
C410 C407 1.391 . S
C410 C409 1.392 . S
N411 Co355 2.257 . S
N411 C408 1.391 . S
N411 C412 1.388 . S
C412 H383 0.930 . S
C412 C407 1.391 . S
C412 N411 1.388 . S
Co413 O415 2.143 . S
Co413 O421 2.074 . S
Co413 O424 2.093 . S
Co413 O437 2.097 . S
Co413 N454 2.151 1_565 S
Co413 N462 2.214 1_565 S
Co414 O415 2.160 . S
Co414 O420 2.058 . S
Co414 O430 2.057 . S
Co414 O445 2.037 . S
Co414 N449 2.145 . S
Co414 N470 2.257 . S
O415 Co413 2.143 . S
O415 Co414 2.160 . S
C416 O417 1.278 . S
C416 O424 1.224 . S
O417 C416 1.278 . S
C418 O419 1.245 . S
C418 O430 1.232 . S
O419 C418 1.245 . S
O420 Co414 2.058 . S
O420 C446 1.269 . S
O421 Co413 2.074 . S
O421 C446 1.257 . S
H422 C447 0.930 . S
H423 C453 0.930 1_565 S
O424 Co413 2.093 . S
O424 C416 1.224 . S
H425 C457 0.929 . S
H426 C459 0.930 . S
H427 C460 0.930 1_565 S
H428 C458 0.929 . S
H429 C461 0.928 . S
O430 Co414 2.057 . S
O430 C418 1.232 . S
H431 C450 0.929 . S
H432 C451 0.929 . S
H433 C463 0.931 . S
H434 C455 0.929 . S
H435 C464 0.930 . S
H436 C456 0.931 . S
O437 Co413 2.097 . S
O437 C465 1.214 . S
H438 C466 0.929 . S
H439 C467 0.929 . S
H440 C468 0.930 . S
H441 C469 0.929 . S
H442 C471 0.930 . S
H443 C448 0.930 . S
H444 C452 0.930 . S
O445 Co414 2.037 . S
O445 C465 1.234 . S
C446 O420 1.269 . S
C446 O421 1.257 . S
C447 H422 0.930 . S
C447 C450 1.388 . S
C447 C452 1.418 . S
C448 H443 0.930 . S
C448 C451 1.404 . S
C448 C452 1.353 . S
N449 Co414 2.145 . S
N449 C450 1.397 . S
N449 C451 1.334 . S
C450 H431 0.929 . S
C450 C447 1.388 . S
C450 N449 1.397 . S
C451 H432 0.929 . S
C451 C448 1.404 . S
C451 N449 1.334 . S
C452 H444 0.930 . S
C452 C447 1.418 . S
C452 C448 1.353 . S
C453 H423 0.930 1_545 S
C453 N454 1.330 . S
C453 C455 1.446 . S
N454 Co413 2.151 1_545 S
N454 C453 1.330 . S
N454 C458 1.418 . S
C455 H434 0.929 . S
C455 C453 1.446 . S
C455 C456 1.332 . S
C456 H436 0.931 . S
C456 C455 1.332 . S
C456 C457 1.267 . S
C457 H425 0.929 . S
C457 C456 1.267 . S
C457 C458 1.251 . S
C458 H428 0.929 . S
C458 N454 1.418 . S
C458 C457 1.251 . S
C459 H426 0.930 . S
C459 C461 1.406 . S
C459 C464 1.261 . S
C460 H427 0.930 1_545 S
C460 N462 1.325 . S
C460 C463 1.357 . S
C461 H429 0.928 . S
C461 C459 1.406 . S
C461 N462 1.261 . S
N462 Co413 2.214 1_545 S
N462 C460 1.325 . S
N462 C461 1.261 . S
C463 H433 0.931 . S
C463 C460 1.357 . S
C463 C464 1.312 . S
C464 H435 0.930 . S
C464 C459 1.261 . S
C464 C463 1.312 . S
C465 O437 1.214 . S
C465 O445 1.234 . S
C466 H438 0.929 . S
C466 C469 1.391 . S
C466 C471 1.391 . S
C467 H439 0.929 . S
C467 C468 1.390 . S
C467 N470 1.391 . S
C468 H440 0.930 . S
C468 C467 1.390 . S
C468 C469 1.392 . S
C469 H441 0.929 . S
C469 C466 1.391 . S
C469 C468 1.392 . S
N470 Co414 2.257 . S
N470 C467 1.391 . S
N470 C471 1.388 . S
C471 H442 0.930 . S
C471 C466 1.391 . S
C471 N470 1.388 . S
H472 C478 0.930 . S
H473 C482 0.930 . S
H474 C487 0.929 . S
H475 C485 0.929 . S
H476 C480 0.929 . S
H477 C486 0.929 . S
C478 H472 0.930 . S
C478 C479 1.367 . S
C478 C486 1.378 . S
C479 C478 1.367 . S
C479 C487 1.433 . S
C480 H476 0.929 . S
C480 C482 1.378 . S
C480 C484 1.350 . S
C481 C484 1.463 . S
C481 C486 1.350 . S
C481 N489 1.427 . S
C482 H473 0.930 . S
C482 C480 1.378 . S
C482 C483 1.367 . S
C483 C482 1.367 . S
C483 C485 1.433 . S
C484 C480 1.350 . S
C484 C481 1.463 . S
C484 N488 1.427 . S
C485 H475 0.929 . S
C485 C483 1.433 . S
C485 N488 1.384 . S
C486 H477 0.929 . S
C486 C478 1.378 . S
C486 C481 1.350 . S
C487 H474 0.929 . S
C487 C479 1.433 . S
C487 N489 1.384 . S
N488 C484 1.427 . S
N488 C485 1.384 . S
N489 C481 1.427 . S
N489 C487 1.384 . S
H490 C496 0.930 . S
H491 C500 0.930 . S
H492 C505 0.929 . S
H493 C503 0.929 . S
H494 C498 0.929 . S
H495 C504 0.929 . S
C496 H490 0.930 . S
C496 C497 1.367 . S
C496 C504 1.378 . S
C497 C496 1.367 . S
C497 C505 1.433 . S
C498 H494 0.929 . S
C498 C500 1.378 . S
C498 C502 1.350 . S
C499 C502 1.463 . S
C499 C504 1.350 . S
C499 N507 1.427 . S
C500 H491 0.930 . S
C500 C498 1.378 . S
C500 C501 1.367 . S
C501 C500 1.367 . S
C501 C503 1.433 . S
C502 C498 1.350 . S
C502 C499 1.463 . S
C502 N506 1.427 . S
C503 H493 0.929 . S
C503 C501 1.433 . S
C503 N506 1.384 . S
C504 H495 0.929 . S
C504 C496 1.378 . S
C504 C499 1.350 . S
C505 H492 0.929 . S
C505 C497 1.433 . S
C505 N507 1.384 . S
N506 C502 1.427 . S
N506 C503 1.384 . S
N507 C499 1.427 . S
N507 C505 1.384 . S
H508 C514 0.930 . S
H509 C518 0.930 . S
H510 C523 0.929 . S
H511 C521 0.929 . S
H512 C516 0.929 . S
H513 C522 0.929 . S
C514 H508 0.930 . S
C514 C515 1.367 . S
C514 C522 1.378 . S
C515 C514 1.367 . S
C515 C523 1.433 . S
C516 H512 0.929 . S
C516 C518 1.378 . S
C516 C520 1.350 . S
C517 C520 1.463 . S
C517 C522 1.350 . S
C517 N525 1.427 . S
C518 H509 0.930 . S
C518 C516 1.378 . S
C518 C519 1.367 . S
C519 C518 1.367 . S
C519 C521 1.433 . S
C520 C516 1.350 . S
C520 C517 1.463 . S
C520 N524 1.427 . S
C521 H511 0.929 . S
C521 C519 1.433 . S
C521 N524 1.384 . S
C522 H513 0.929 . S
C522 C514 1.378 . S
C522 C517 1.350 . S
C523 H510 0.929 . S
C523 C515 1.433 . S
C523 N525 1.384 . S
N524 C520 1.427 . S
N524 C521 1.384 . S
N525 C517 1.427 . S
N525 C523 1.384 . S
H526 C532 0.930 . S
H527 C536 0.930 . S
H528 C541 0.929 . S
H529 C539 0.929 . S
H530 C534 0.929 . S
H531 C540 0.929 . S
C532 H526 0.930 . S
C532 C533 1.367 . S
C532 C540 1.378 . S
C533 C532 1.367 . S
C533 C541 1.433 . S
C534 H530 0.929 . S
C534 C536 1.378 . S
C534 C538 1.350 . S
C535 C538 1.463 . S
C535 C540 1.350 . S
C535 N543 1.427 . S
C536 H527 0.930 . S
C536 C534 1.378 . S
C536 C537 1.367 . S
C537 C536 1.367 . S
C537 C539 1.433 . S
C538 C534 1.350 . S
C538 C535 1.463 . S
C538 N542 1.427 . S
C539 H529 0.929 . S
C539 C537 1.433 . S
C539 N542 1.384 . S
C540 H531 0.929 . S
C540 C532 1.378 . S
C540 C535 1.350 . S
C541 H528 0.929 . S
C541 C533 1.433 . S
C541 N543 1.384 . S
N542 C538 1.427 . S
N542 C539 1.384 . S
N543 C535 1.427 . S
N543 C541 1.384 . S
H544 C550 0.930 . S
H545 C554 0.930 . S
H546 C559 0.929 . S
H547 C557 0.929 . S
H548 C552 0.929 . S
H549 C558 0.929 . S
C550 H544 0.930 . S
C550 C551 1.367 . S
C550 C558 1.378 . S
C551 C550 1.367 . S
C551 C559 1.433 . S
C552 H548 0.929 . S
C552 C554 1.378 . S
C552 C556 1.350 . S
C553 C556 1.463 . S
C553 C558 1.350 . S
C553 N561 1.427 . S
C554 H545 0.930 . S
C554 C552 1.378 . S
C554 C555 1.367 . S
C555 C554 1.367 . S
C555 C557 1.433 . S
C556 C552 1.350 . S
C556 C553 1.463 . S
C556 N560 1.427 . S
C557 H547 0.929 . S
C557 C555 1.433 . S
C557 N560 1.384 . S
C558 H549 0.929 . S
C558 C550 1.378 . S
C558 C553 1.350 . S
C559 H546 0.929 . S
C559 C551 1.433 . S
C559 N561 1.384 . S
N560 C556 1.427 . S
N560 C557 1.384 . S
N561 C553 1.427 . S
N561 C559 1.384 . S
H562 C568 0.930 . S
H563 C572 0.930 . S
H564 C577 0.929 . S
H565 C575 0.929 . S
H566 C570 0.929 . S
H567 C576 0.929 . S
C568 H562 0.930 . S
C568 C569 1.367 . S
C568 C576 1.378 . S
C569 C568 1.367 . S
C569 C577 1.433 . S
C570 H566 0.929 . S
C570 C572 1.378 . S
C570 C574 1.350 . S
C571 C574 1.463 . S
C571 C576 1.350 . S
C571 N579 1.427 . S
C572 H563 0.930 . S
C572 C570 1.378 . S
C572 C573 1.367 . S
C573 C572 1.367 . S
C573 C575 1.433 . S
C574 C570 1.350 . S
C574 C571 1.463 . S
C574 N578 1.427 . S
C575 H565 0.929 . S
C575 C573 1.433 . S
C575 N578 1.384 . S
C576 H567 0.929 . S
C576 C568 1.378 . S
C576 C571 1.350 . S
C577 H564 0.929 . S
C577 C569 1.433 . S
C577 N579 1.384 . S
N578 C574 1.427 . S
N578 C575 1.384 . S
N579 C571 1.427 . S
N579 C577 1.384 . S
H580 C586 0.930 . S
H581 C590 0.930 . S
H582 C595 0.929 . S
H583 C593 0.929 . S
H584 C588 0.929 . S
H585 C594 0.929 . S
C586 H580 0.930 . S
C586 C587 1.367 . S
C586 C594 1.378 . S
C587 C586 1.367 . S
C587 C595 1.433 . S
C588 H584 0.929 . S
C588 C590 1.378 . S
C588 C592 1.350 . S
C589 C592 1.463 . S
C589 C594 1.350 . S
C589 N597 1.427 . S
C590 H581 0.930 . S
C590 C588 1.378 . S
C590 C591 1.367 . S
C591 C590 1.367 . S
C591 C593 1.433 . S
C592 C588 1.350 . S
C592 C589 1.463 . S
C592 N596 1.427 . S
C593 H583 0.929 . S
C593 C591 1.433 . S
C593 N596 1.384 . S
C594 H585 0.929 . S
C594 C586 1.378 . S
C594 C589 1.350 . S
C595 H582 0.929 . S
C595 C587 1.433 . S
C595 N597 1.384 . S
N596 C592 1.427 . S
N596 C593 1.384 . S
N597 C589 1.427 . S
N597 C595 1.384 . S
H598 C604 0.930 . S
H599 C608 0.930 . S
H600 C613 0.929 . S
H601 C611 0.929 . S
H602 C606 0.929 . S
H603 C612 0.929 . S
C604 H598 0.930 . S
C604 C605 1.367 . S
C604 C612 1.378 . S
C605 C604 1.367 . S
C605 C613 1.433 . S
C606 H602 0.929 . S
C606 C608 1.378 . S
C606 C610 1.350 . S
C607 C610 1.463 . S
C607 C612 1.350 . S
C607 N615 1.427 . S
C608 H599 0.930 . S
C608 C606 1.378 . S
C608 C609 1.367 . S
C609 C608 1.367 . S
C609 C611 1.433 . S
C610 C606 1.350 . S
C610 C607 1.463 . S
C610 N614 1.427 . S
C611 H601 0.929 . S
C611 C609 1.433 . S
C611 N614 1.384 . S
C612 H603 0.929 . S
C612 C604 1.378 . S
C612 C607 1.350 . S
C613 H600 0.929 . S
C613 C605 1.433 . S
C613 N615 1.384 . S
N614 C610 1.427 . S
N614 C611 1.384 . S
N615 C607 1.427 . S
N615 C613 1.384 . S
H616 C622 0.930 1_545 S
H617 C626 0.930 1_565 S
H618 C631 0.929 . S
H619 C629 0.929 . S
H620 C624 0.929 . S
H621 C630 0.929 . S
C622 H616 0.930 1_565 S
C622 C623 1.367 . S
C622 C630 1.378 1_565 S
C623 C622 1.367 . S
C623 C631 1.433 . S
C624 H620 0.929 . S
C624 C626 1.378 1_565 S
C624 C628 1.350 1_565 S
C625 C628 1.463 1_565 S
C625 C630 1.350 1_565 S
C625 N633 1.427 . S
C626 H617 0.930 1_545 S
C626 C624 1.378 1_545 S
C626 C627 1.367 . S
C627 C626 1.367 . S
C627 C629 1.433 . S
C628 C624 1.350 1_545 S
C628 C625 1.463 1_545 S
C628 N632 1.427 . S
C629 H619 0.929 . S
C629 C627 1.433 . S
C629 N632 1.384 . S
C630 H621 0.929 . S
C630 C622 1.378 1_545 S
C630 C625 1.350 1_545 S
C631 H618 0.929 . S
C631 C623 1.433 . S
C631 N633 1.384 . S
N632 C628 1.427 . S
N632 C629 1.384 . S
N633 C625 1.427 . S
N633 C631 1.384 . S
H634 C640 0.930 . S
H635 C644 0.930 . S
H636 C649 0.929 . S
H637 C647 0.929 . S
H638 C642 0.929 . S
H639 C648 0.929 . S
C640 H634 0.930 . S
C640 C641 1.367 1_545 S
C640 C648 1.378 . S
C641 C640 1.367 1_565 S
C641 C649 1.433 . S
C642 H638 0.929 . S
C642 C644 1.378 . S
C642 C646 1.350 1_565 S
C643 C646 1.463 1_565 S
C643 C648 1.350 1_565 S
C643 N651 1.427 . S
C644 H635 0.930 . S
C644 C642 1.378 . S
C644 C645 1.367 1_565 S
C645 C644 1.367 1_545 S
C645 C647 1.433 . S
C646 C642 1.350 1_545 S
C646 C643 1.463 1_545 S
C646 N650 1.427 . S
C647 H637 0.929 . S
C647 C645 1.433 . S
C647 N650 1.384 . S
C648 H639 0.929 . S
C648 C640 1.378 . S
C648 C643 1.350 1_545 S
C649 H636 0.929 . S
C649 C641 1.433 . S
C649 N651 1.384 . S
N650 C646 1.427 . S
N650 C647 1.384 . S
N651 C643 1.427 . S
N651 C649 1.384 . S
H652 C658 0.930 . S
H653 C662 0.930 . S
H654 C667 0.929 1_545 S
H655 C665 0.929 1_565 S
H656 C660 0.929 . S
H657 C666 0.929 . S
C658 H652 0.930 . S
C658 C659 1.367 . S
C658 C666 1.378 . S
C659 C658 1.367 . S
C659 C667 1.433 . S
C660 H656 0.929 . S
C660 C662 1.378 . S
C660 C664 1.350 . S
C661 C664 1.463 1_565 S
C661 C666 1.350 . S
C661 N669 1.427 1_565 S
C662 H653 0.930 . S
C662 C660 1.378 . S
C662 C663 1.367 . S
C663 C662 1.367 . S
C663 C665 1.433 . S
C664 C660 1.350 . S
C664 C661 1.463 1_545 S
C664 N668 1.427 1_545 S
C665 H655 0.929 1_545 S
C665 C663 1.433 . S
C665 N668 1.384 1_545 S
C666 H657 0.929 . S
C666 C658 1.378 . S
C666 C661 1.350 . S
C667 H654 0.929 1_565 S
C667 C659 1.433 . S
C667 N669 1.384 1_565 S
N668 C664 1.427 1_565 S
N668 C665 1.384 1_565 S
N669 C661 1.427 1_545 S
N669 C667 1.384 1_545 S
H670 C676 0.930 . S
H671 C680 0.930 . S
H672 C685 0.929 . S
H673 C683 0.929 . S
H674 C678 0.929 . S
H675 C684 0.929 . S
C676 H670 0.930 . S
C676 C677 1.367 . S
C676 C684 1.378 . S
C677 C676 1.367 . S
C677 C685 1.433 1_565 S
C678 H674 0.929 . S
C678 C680 1.378 . S
C678 C682 1.350 . S
C679 C682 1.463 1_565 S
C679 C684 1.350 . S
C679 N687 1.427 1_565 S
C680 H671 0.930 . S
C680 C678 1.378 . S
C680 C681 1.367 . S
C681 C680 1.367 . S
C681 C683 1.433 1_545 S
C682 C678 1.350 . S
C682 C679 1.463 1_545 S
C682 N686 1.427 1_545 S
C683 H673 0.929 . S
C683 C681 1.433 1_565 S
C683 N686 1.384 . S
C684 H675 0.929 . S
C684 C676 1.378 . S
C684 C679 1.350 . S
C685 H672 0.929 . S
C685 C677 1.433 1_545 S
C685 N687 1.384 . S
N686 C682 1.427 1_565 S
N686 C683 1.384 . S
N687 C679 1.427 1_545 S
N687 C685 1.384 . S
H688 C694 0.930 1_556 S
H689 C698 0.930 . S
H690 C703 0.929 . S
H691 C701 0.929 1_556 S
H692 C696 0.929 . S
H693 C702 0.929 1_556 S
C694 H688 0.930 1_554 S
C694 C695 1.367 . S
C694 C702 1.378 . S
C695 C694 1.367 . S
C695 C703 1.433 . S
C696 H692 0.929 . S
C696 C698 1.378 . S
C696 C700 1.350 . S
C697 C700 1.463 1_565 S
C697 C702 1.350 . S
C697 N705 1.427 . S
C698 H689 0.930 . S
C698 C696 1.378 . S
C698 C699 1.367 . S
C699 C698 1.367 . S
C699 C701 1.433 . S
C700 C696 1.350 . S
C700 C697 1.463 1_545 S
C700 N704 1.427 . S
C701 H691 0.929 1_554 S
C701 C699 1.433 . S
C701 N704 1.384 . S
C702 H693 0.929 1_554 S
C702 C694 1.378 . S
C702 C697 1.350 . S
C703 H690 0.929 . S
C703 C695 1.433 . S
C703 N705 1.384 . S
N704 C700 1.427 . S
N704 C701 1.384 . S
N705 C697 1.427 . S
N705 C703 1.384 . S
H706 C712 0.930 . S
H707 C716 0.930 . S
H708 C721 0.929 . S
H709 C719 0.929 . S
H710 C714 0.929 1_565 S
H711 C720 0.929 1_545 S
C712 H706 0.930 . S
C712 C713 1.367 . S
C712 C720 1.378 . S
C713 C712 1.367 . S
C713 C721 1.433 . S
C714 H710 0.929 1_545 S
C714 C716 1.378 . S
C714 C718 1.350 . S
C715 C718 1.463 1_565 S
C715 C720 1.350 . S
C715 N723 1.427 . S
C716 H707 0.930 . S
C716 C714 1.378 . S
C716 C717 1.367 . S
C717 C716 1.367 . S
C717 C719 1.433 . S
C718 C714 1.350 . S
C718 C715 1.463 1_545 S
C718 N722 1.427 . S
C719 H709 0.929 . S
C719 C717 1.433 . S
C719 N722 1.384 . S
C720 H711 0.929 1_565 S
C720 C712 1.378 . S
C720 C715 1.350 . S
C721 H708 0.929 . S
C721 C713 1.433 . S
C721 N723 1.384 . S
N722 C718 1.427 . S
N722 C719 1.384 . S
N723 C715 1.427 . S
N723 C721 1.384 . S
H724 C730 0.930 . S
H725 C734 0.930 . S
H726 C739 0.929 . S
H727 C737 0.929 . S
H728 C732 0.929 1_455 S
H729 C738 0.929 1_655 S
C730 H724 0.930 . S
C730 C731 1.367 . S
C730 C738 1.378 . S
C731 C730 1.367 . S
C731 C739 1.433 . S
C732 H728 0.929 1_655 S
C732 C734 1.378 . S
C732 C736 1.350 . S
C733 C736 1.463 1_455 S
C733 C738 1.350 . S
C733 N741 1.427 . S
C734 H725 0.930 . S
C734 C732 1.378 . S
C734 C735 1.367 . S
C735 C734 1.367 . S
C735 C737 1.433 . S
C736 C732 1.350 . S
C736 C733 1.463 1_655 S
C736 N740 1.427 . S
C737 H727 0.929 . S
C737 C735 1.433 . S
C737 N740 1.384 . S
C738 H729 0.929 1_455 S
C738 C730 1.378 . S
C738 C733 1.350 . S
C739 H726 0.929 . S
C739 C731 1.433 . S
C739 N741 1.384 . S
N740 C736 1.427 . S
N740 C737 1.384 . S
N741 C733 1.427 . S
N741 C739 1.384 . S
H742 C748 0.930 . S
H743 C752 0.930 . S
H744 C757 0.929 . S
H745 C755 0.929 . S
H746 C750 0.929 . S
H747 C756 0.929 . S
C748 H742 0.930 . S
C748 C749 1.367 . S
C748 C756 1.378 . S
C749 C748 1.367 . S
C749 C757 1.433 . S
C750 H746 0.929 . S
C750 C752 1.378 . S
C750 C754 1.350 . S
C751 C754 1.463 1_455 S
C751 C756 1.350 . S
C751 N759 1.427 . S
C752 H743 0.930 . S
C752 C750 1.378 . S
C752 C753 1.367 . S
C753 C752 1.367 . S
C753 C755 1.433 . S
C754 C750 1.350 . S
C754 C751 1.463 1_655 S
C754 N758 1.427 . S
C755 H745 0.929 . S
C755 C753 1.433 . S
C755 N758 1.384 . S
C756 H747 0.929 . S
C756 C748 1.378 . S
C756 C751 1.350 . S
C757 H744 0.929 . S
C757 C749 1.433 . S
C757 N759 1.384 . S
N758 C754 1.427 . S
N758 C755 1.384 . S
N759 C751 1.427 . S
N759 C757 1.384 . S
C479 C347 1.513 . S
C483 C52 1.513 . S
C497 C288 1.514 . S
C501 C111 1.513 . S
C515 C465 1.514 . S
C519 C170 1.513 . S
C533 C406 1.512 . S
C537 C229 1.515 . S
C551 C3 1.500 . S
C555 C121 1.494 . S
C569 C62 1.495 . S
C573 C180 1.498 . S
C587 C92 1.514 . S
C591 C210 1.513 . S
C605 C33 1.513 . S
C609 C151 1.514 . S
C623 C239 1.500 . S
C627 C357 1.494 . S
C641 C416 1.499 . S
C645 C298 1.495 . S
C659 C446 1.514 . S
C663 C328 1.513 . S
C677 C269 1.514 . S
C681 C387 1.514 . S
C695 C64 1.508 . S
C699 C5 1.508 . S
C713 C123 1.508 . S
C717 C182 1.509 . S
C731 C241 1.508 . S
C735 C300 1.508 . S
C749 C359 1.509 . S
C753 C418 1.508 . S
