# Generated by pormake.
# Topology ume, (4)-cn, num edge types: 1
# Building blocks:
#     Node 0, Type 0, BuildingBlock: ESEHIV_clean_sbu_0, # of connection points: 4
#     Node 1, Type 0, BuildingBlock: ESEHIV_clean_sbu_0, # of connection points: 4
#     Node 2, Type 0, BuildingBlock: ESEHIV_clean_sbu_0, # of connection points: 4
#     Node 3, Type 0, BuildingBlock: ESEHIV_clean_sbu_0, # of connection points: 4
#     Node 4, Type 0, BuildingBlock: ESEHIV_clean_sbu_0, # of connection points: 4
#     Node 5, Type 0, BuildingBlock: ESEHIV_clean_sbu_0, # of connection points: 4
#     Node 6, Type 0, BuildingBlock: ESEHIV_clean_sbu_0, # of connection points: 4
#     Node 7, Type 0, BuildingBlock: ESEHIV_clean_sbu_0, # of connection points: 4
#     Node 8, Type 0, BuildingBlock: ESEHIV_clean_sbu_0, # of connection points: 4
#     Node 9, Type 0, BuildingBlock: ESEHIV_clean_sbu_0, # of connection points: 4
#     Node 10, Type 0, BuildingBlock: ESEHIV_clean_sbu_0, # of connection points: 4
#     Node 11, Type 0, BuildingBlock: ESEHIV_clean_sbu_0, # of connection points: 4
#     Node 12, Type 0, BuildingBlock: ESEHIV_clean_sbu_0, # of connection points: 4
#     Node 13, Type 0, BuildingBlock: ESEHIV_clean_sbu_0, # of connection points: 4
#     Node 14, Type 0, BuildingBlock: ESEHIV_clean_sbu_0, # of connection points: 4
#     Node 15, Type 0, BuildingBlock: ESEHIV_clean_sbu_0, # of connection points: 4
#     Edge 16, Type (0, 0), BuildingBlock: UVAHIK_clean_linker_0, # of connection points: 2
#     Edge 17, Type (0, 0), BuildingBlock: UVAHIK_clean_linker_0, # of connection points: 2
#     Edge 18, Type (0, 0), BuildingBlock: UVAHIK_clean_linker_0, # of connection points: 2
#     Edge 19, Type (0, 0), BuildingBlock: UVAHIK_clean_linker_0, # of connection points: 2
#     Edge 20, Type (0, 0), BuildingBlock: UVAHIK_clean_linker_0, # of connection points: 2
#     Edge 21, Type (0, 0), BuildingBlock: UVAHIK_clean_linker_0, # of connection points: 2
#     Edge 22, Type (0, 0), BuildingBlock: UVAHIK_clean_linker_0, # of connection points: 2
#     Edge 23, Type (0, 0), BuildingBlock: UVAHIK_clean_linker_0, # of connection points: 2
#     Edge 24, Type (0, 0), BuildingBlock: UVAHIK_clean_linker_0, # of connection points: 2
#     Edge 25, Type (0, 0), BuildingBlock: UVAHIK_clean_linker_0, # of connection points: 2
#     Edge 26, Type (0, 0), BuildingBlock: UVAHIK_clean_linker_0, # of connection points: 2
#     Edge 27, Type (0, 0), BuildingBlock: UVAHIK_clean_linker_0, # of connection points: 2
#     Edge 28, Type (0, 0), BuildingBlock: UVAHIK_clean_linker_0, # of connection points: 2
#     Edge 29, Type (0, 0), BuildingBlock: UVAHIK_clean_linker_0, # of connection points: 2
#     Edge 30, Type (0, 0), BuildingBlock: UVAHIK_clean_linker_0, # of connection points: 2
#     Edge 31, Type (0, 0), BuildingBlock: UVAHIK_clean_linker_0, # of connection points: 2
#     Edge 32, Type (0, 0), BuildingBlock: UVAHIK_clean_linker_0, # of connection points: 2
#     Edge 33, Type (0, 0), BuildingBlock: UVAHIK_clean_linker_0, # of connection points: 2
#     Edge 34, Type (0, 0), BuildingBlock: UVAHIK_clean_linker_0, # of connection points: 2
#     Edge 35, Type (0, 0), BuildingBlock: UVAHIK_clean_linker_0, # of connection points: 2
#     Edge 36, Type (0, 0), BuildingBlock: UVAHIK_clean_linker_0, # of connection points: 2
#     Edge 37, Type (0, 0), BuildingBlock: UVAHIK_clean_linker_0, # of connection points: 2
#     Edge 38, Type (0, 0), BuildingBlock: UVAHIK_clean_linker_0, # of connection points: 2
#     Edge 39, Type (0, 0), BuildingBlock: UVAHIK_clean_linker_0, # of connection points: 2
#     Edge 40, Type (0, 0), BuildingBlock: UVAHIK_clean_linker_0, # of connection points: 2
#     Edge 41, Type (0, 0), BuildingBlock: UVAHIK_clean_linker_0, # of connection points: 2
#     Edge 42, Type (0, 0), BuildingBlock: UVAHIK_clean_linker_0, # of connection points: 2
#     Edge 43, Type (0, 0), BuildingBlock: UVAHIK_clean_linker_0, # of connection points: 2
#     Edge 44, Type (0, 0), BuildingBlock: UVAHIK_clean_linker_0, # of connection points: 2
#     Edge 45, Type (0, 0), BuildingBlock: UVAHIK_clean_linker_0, # of connection points: 2
#     Edge 46, Type (0, 0), BuildingBlock: UVAHIK_clean_linker_0, # of connection points: 2
#     Edge 47, Type (0, 0), BuildingBlock: UVAHIK_clean_linker_0, # of connection points: 2
# Relax obj value: 0.042
# Max RMSD: 0.155
# Mean RMSD: 0.134
data_MOF--net-ume--node1-ESEHIV_clean_sbu_0--edge1-UVAHIK_clean_linker_0
_symmetry_space_group_name_H-M    P1
_symmetry_Int_Tables_number       1
_symmetry_cell_setting            triclinic
loop_
_symmetry_equiv_pos_as_xyz
'x, y, z'
_cell_length_a     36.511083
_cell_length_b     42.535858
_cell_length_c     153.37908
_cell_angle_alpha  90.027343
_cell_angle_beta   89.798519
_cell_angle_gamma 89.93639
loop_
_atom_site_label
_atom_site_type_symbol
_atom_site_fract_x
_atom_site_fract_y
_atom_site_fract_z
_atom_type_partial_charge
Cu0 Cu 0.26378 0.10025 0.31044 0.0
N1 N 0.26112 0.12355 0.32082 0.0
N2 N 0.26407 0.13616 0.33497 0.0
C3 C 0.26591 0.1128 0.32902 0.0
C4 C 0.25832 0.16266 0.33036 0.0
C5 C 0.25656 0.15484 0.32165 0.0
O6 O 0.21967 0.07465 0.30909 0.0
C7 C 0.32274 0.05914 0.30497 0.0
O8 O 0.30367 0.05391 0.29787 0.0
H9 H 0.27167 0.08849 0.33057 0.0
H10 H 0.25277 0.17102 0.3163 0.0
N11 N 0.26461 0.12803 0.30096 0.0
N12 N 0.2785 0.15218 0.28843 0.0
C13 C 0.28832 0.12971 0.2942 0.0
C14 C 0.23889 0.1499 0.29933 0.0
C15 C 0.24751 0.16499 0.29166 0.0
C16 C 0.20354 0.05978 0.31521 0.0
O17 O 0.21878 0.05847 0.32293 0.0
H18 H 0.31219 0.11482 0.2935 0.0
H19 H 0.21508 0.15416 0.30338 0.0
O20 O 0.3094 0.07659 0.31093 0.0
H21 H 0.25532 0.18601 0.33308 0.0
H22 H 0.23158 0.18328 0.28855 0.0
Cu23 Cu 0.94466 0.76523 0.57448 0.0
N24 N 0.97738 0.79794 0.57654 0.0
N25 N 1.00332 0.84535 0.57686 0.0
C26 C 0.97965 0.8263 0.57267 0.0
C27 C 1.01683 0.82819 0.58351 0.0
C28 C 1.00089 0.79892 0.58326 0.0
O29 O 0.91408 0.77413 0.56435 0.0
C30 C 0.90619 0.78151 0.58975 0.0
O31 O 0.90891 0.80985 0.58642 0.0
H32 H 0.96286 0.83351 0.56723 0.0
H33 H 1.00476 0.78009 0.58791 0.0
N34 N 0.97242 0.72987 0.57171 0.0
N35 N 0.99157 0.6804 0.57004 0.0
C36 C 0.9672 0.69962 0.57402 0.0
C37 C 1.00107 0.72974 0.56618 0.0
C38 C 1.01289 0.69926 0.56511 0.0
C39 C 0.89541 0.79895 0.56299 0.0
O40 O 0.89337 0.82059 0.56907 0.0
H41 H 0.94518 0.69176 0.57823 0.0
H42 H 1.01195 0.75038 0.56297 0.0
O43 O 0.91796 0.75817 0.58534 0.0
H44 H 0.03589 0.83659 0.58837 0.0
H45 H 0.03517 0.6915 0.56096 0.0
Cu46 Cu 0.27135 0.42665 0.81022 0.0
N47 N 0.26647 0.40626 0.821 0.0
N48 N 0.26765 0.3944 0.83522 0.0
C49 C 0.27764 0.41528 0.829 0.0
C50 C 0.24965 0.37142 0.83095 0.0
C51 C 0.2489 0.37883 0.82222 0.0
O52 O 0.31786 0.44918 0.80948 0.0
C53 C 0.21067 0.46637 0.81418 0.0
O54 O 0.22492 0.46696 0.82203 0.0
H55 H 0.2927 0.43664 0.83026 0.0
H56 H 0.23597 0.36537 0.8171 0.0
N57 N 0.27334 0.39559 0.80162 0.0
N58 N 0.26391 0.36789 0.78942 0.0
C59 C 0.25482 0.39391 0.79404 0.0
C60 C 0.29492 0.36999 0.80179 0.0
C61 C 0.28916 0.35286 0.79431 0.0
C62 C 0.32886 0.47161 0.8143 0.0
O63 O 0.30675 0.4834 0.82023 0.0
H64 H 0.23491 0.41127 0.79201 0.0
H65 H 0.3137 0.36432 0.807 0.0
O66 O 0.22773 0.45208 0.8081 0.0
H67 H 0.23703 0.35108 0.83394 0.0
H68 H 0.30308 0.33129 0.79255 0.0
Cu69 Cu 0.52114 0.7495 0.06981 0.0
N70 N 0.48296 0.72085 0.07148 0.0
N71 N 0.45245 0.67541 0.07272 0.0
C72 C 0.48436 0.68938 0.07045 0.0
C73 C 0.4302 0.69913 0.07525 0.0
C74 C 0.44908 0.72708 0.07448 0.0
O75 O 0.55465 0.73179 0.0612 0.0
C76 C 0.5625 0.73441 0.0847 0.0
O77 O 0.56641 0.70745 0.08061 0.0
H78 H 0.50867 0.67696 0.06831 0.0
H79 H 0.43902 0.7503 0.0761 0.0
N80 N 0.50296 0.78745 0.06534 0.0
N81 N 0.48768 0.83803 0.06357 0.0
C82 C 0.49697 0.81533 0.06935 0.0
C83 C 0.49689 0.79275 0.05682 0.0
C84 C 0.48763 0.82385 0.05571 0.0
C85 C 0.58011 0.74806 0.05776 0.0
O86 O 0.58555 0.77688 0.06054 0.0
H87 H 0.50081 0.81922 0.07626 0.0
H88 H 0.50014 0.77533 0.05174 0.0
O89 O 0.54478 0.75643 0.08099 0.0
H90 H 0.40222 0.69655 0.07749 0.0
H91 H 0.48169 0.83529 0.04957 0.0
Cu92 Cu 0.2891 0.43124 0.95314 0.0
N93 N 0.29748 0.40997 0.94265 0.0
N94 N 0.29944 0.39731 0.9285 0.0
C95 C 0.28805 0.41854 0.9345 0.0
C96 C 0.31656 0.37459 0.93309 0.0
C97 C 0.31534 0.38249 0.94179 0.0
O98 O 0.24244 0.45346 0.95242 0.0
C99 C 0.34897 0.47237 0.9497 0.0
O100 O 0.33679 0.47209 0.94165 0.0
H101 H 0.27315 0.43988 0.93301 0.0
H102 H 0.32699 0.36929 0.94714 0.0
N103 N 0.28687 0.40136 0.96203 0.0
N104 N 0.3021 0.37256 0.97366 0.0
C105 C 0.3098 0.39836 0.96885 0.0
C106 C 0.26379 0.37682 0.96256 0.0
C107 C 0.27314 0.35898 0.96971 0.0
C108 C 0.22464 0.46213 0.95916 0.0
O109 O 0.23934 0.45804 0.96688 0.0
H110 H 0.33244 0.41414 0.97008 0.0
H111 H 0.2422 0.37194 0.95794 0.0
O112 O 0.3309 0.45813 0.9556 0.0
H113 H 0.32982 0.35405 0.93036 0.0
H114 H 0.25974 0.3376 0.97183 0.0
Cu115 Cu 0.58463 0.77317 0.19311 0.0
N116 N 0.55334 0.80748 0.19433 0.0
N117 N 0.53203 0.85553 0.19729 0.0
C118 C 0.56058 0.83551 0.19798 0.0
C119 C 0.50567 0.83926 0.1931 0.0
C120 C 0.51893 0.80963 0.19129 0.0
O121 O 0.62434 0.7773 0.20146 0.0
C122 C 0.61969 0.75204 0.17712 0.0
O123 O 0.63619 0.73031 0.18175 0.0
H124 H 0.58664 0.84149 0.20083 0.0
H125 H 0.50475 0.79106 0.18787 0.0
N126 N 0.55766 0.7378 0.19624 0.0
N127 N 0.53888 0.68845 0.19825 0.0
C128 C 0.56218 0.70751 0.1939 0.0
C129 C 0.53058 0.73783 0.20221 0.0
C130 C 0.51892 0.70746 0.20346 0.0
C131 C 0.64718 0.79986 0.20171 0.0
O132 O 0.64797 0.82033 0.1953 0.0
H133 H 0.58298 0.69943 0.18939 0.0
H134 H 0.52066 0.75851 0.20558 0.0
O135 O 0.59887 0.77186 0.18089 0.0
H136 H 0.4789 0.84815 0.19137 0.0
H137 H 0.49771 0.69989 0.20794 0.0
Cu138 Cu 0.27328 0.09109 0.45193 0.0
N139 N 0.27004 0.11737 0.44224 0.0
N140 N 0.2676 0.1328 0.42833 0.0
C141 C 0.27685 0.10948 0.43388 0.0
C142 C 0.25463 0.15626 0.43341 0.0
C143 C 0.25621 0.14667 0.44199 0.0
O144 O 0.31664 0.06495 0.4503 0.0
C145 C 0.2131 0.05341 0.4587 0.0
O146 O 0.23168 0.05055 0.46597 0.0
H147 H 0.28672 0.08656 0.43189 0.0
H148 H 0.24684 0.1597 0.44763 0.0
N149 N 0.27999 0.11572 0.46191 0.0
N150 N 0.27291 0.1396 0.47483 0.0
C151 C 0.25687 0.1218 0.46859 0.0
C152 C 0.31146 0.13026 0.46395 0.0
C153 C 0.30725 0.14494 0.47188 0.0
C154 C 0.33294 0.0513 0.45657 0.0
O155 O 0.31791 0.05178 0.46437 0.0
H156 H 0.22896 0.11338 0.46886 0.0
H157 H 0.33605 0.12963 0.46 0.0
O158 O 0.22719 0.06809 0.45228 0.0
H159 H 0.24423 0.17856 0.43108 0.0
H160 H 0.32833 0.15774 0.47532 0.0
Cu161 Cu 0.95829 0.75857 0.69719 0.0
N162 N 0.99339 0.72681 0.69662 0.0
N163 N 0.01849 0.679 0.6961 0.0
C164 C 0.98992 0.69641 0.69893 0.0
C165 C 0.04095 0.6992 0.69194 0.0
C166 C 0.02545 0.72871 0.6923 0.0
O167 O 0.92377 0.74941 0.70652 0.0
C168 C 0.91287 0.77913 0.68271 0.0
O169 O 0.89932 0.80107 0.68782 0.0
H170 H 0.96592 0.68676 0.70208 0.0
H171 H 0.03575 0.74979 0.68921 0.0
N172 N 0.98256 0.79568 0.7001 0.0
N173 N 1.00074 0.8456 0.70138 0.0
C174 C 0.9798 0.82508 0.69686 0.0
C175 C 1.00618 0.79771 0.70678 0.0
C176 C 1.01741 0.82837 0.70759 0.0
C177 C 0.90221 0.72594 0.70673 0.0
O178 O 0.90018 0.70722 0.69994 0.0
H179 H 0.9621 0.83151 0.69151 0.0
H180 H 1.01418 0.77818 0.71087 0.0
O181 O 0.93654 0.76 0.68567 0.0
H182 H 0.06596 0.69283 0.68856 0.0
H183 H 0.03632 0.83733 0.71241 0.0
Cu184 Cu 0.77214 0.59721 0.81534 0.0
N185 N 0.77588 0.6215 0.82544 0.0
N186 N 0.77919 0.63493 0.83951 0.0
C187 C 0.76869 0.61274 0.83372 0.0
C188 C 0.7933 0.65851 0.83468 0.0
C189 C 0.79122 0.65016 0.82602 0.0
O190 O 0.72747 0.57227 0.81624 0.0
C191 C 0.82934 0.55497 0.80887 0.0
O192 O 0.80827 0.54839 0.80219 0.0
H193 H 0.75777 0.58995 0.83549 0.0
H194 H 0.80143 0.66354 0.82053 0.0
N195 N 0.7683 0.62457 0.80582 0.0
N196 N 0.77546 0.64801 0.79287 0.0
C197 C 0.7853 0.62357 0.79799 0.0
C198 C 0.74699 0.65037 0.8056 0.0
C199 C 0.75143 0.66493 0.79765 0.0
C200 C 0.71055 0.56173 0.80961 0.0
O201 O 0.72544 0.56495 0.80185 0.0
H202 H 0.80488 0.6057 0.79613 0.0
H203 H 0.72946 0.65805 0.81089 0.0
O204 O 0.81767 0.57328 0.81483 0.0
H205 H 0.80493 0.68001 0.83723 0.0
H206 H 0.73763 0.68608 0.79551 0.0
Cu207 Cu 0.42584 0.25813 0.07092 0.0
N208 N 0.39406 0.2919 0.07282 0.0
N209 N 0.37908 0.34295 0.07362 0.0
C210 C 0.40334 0.32148 0.07063 0.0
C211 C 0.35332 0.32599 0.07787 0.0
C212 C 0.3627 0.29447 0.07739 0.0
O213 O 0.44829 0.26846 0.05968 0.0
C214 C 0.44398 0.24614 0.08791 0.0
O215 O 0.41064 0.2347 0.08756 0.0
H216 H 0.42875 0.32716 0.06735 0.0
H217 H 0.34854 0.27509 0.08047 0.0
N218 N 0.40267 0.21863 0.07036 0.0
N219 N 0.39694 0.16618 0.07047 0.0
C220 C 0.42031 0.19075 0.07064 0.0
C221 C 0.36679 0.21145 0.07008 0.0
C222 C 0.36318 0.17908 0.07017 0.0
C223 C 0.44711 0.25043 0.05304 0.0
O224 O 0.43863 0.22072 0.05413 0.0
H225 H 0.44981 0.18859 0.07101 0.0
H226 H 0.34483 0.2285 0.06984 0.0
O227 O 0.45815 0.25794 0.08103 0.0
H228 H 0.32985 0.33562 0.08128 0.0
H229 H 0.33776 0.16604 0.06989 0.0
Cu230 Cu 0.76287 0.92923 0.31035 0.0
N231 N 0.75436 0.90787 0.32082 0.0
N232 N 0.75057 0.89663 0.33507 0.0
C233 C 0.76211 0.9175 0.32899 0.0
C234 C 0.73526 0.87293 0.33048 0.0
C235 C 0.73758 0.87996 0.32173 0.0
O236 O 0.8078 0.95356 0.31155 0.0
C237 C 0.70306 0.97059 0.31343 0.0
O238 O 0.71784 0.97361 0.32118 0.0
H239 H 0.77506 0.93977 0.33042 0.0
H240 H 0.72746 0.86584 0.3164 0.0
N241 N 0.76918 0.89973 0.30142 0.0
N242 N 0.76505 0.87498 0.28859 0.0
C243 C 0.75565 0.90076 0.29325 0.0
C244 C 0.78789 0.87256 0.30193 0.0
C245 C 0.78531 0.85719 0.29404 0.0
C246 C 0.82639 0.96286 0.305 0.0
O247 O 0.81329 0.95847 0.29713 0.0
H248 H 0.73874 0.91976 0.29085 0.0
H249 H 0.80224 0.86444 0.30766 0.0
O250 O 0.71952 0.95417 0.30769 0.0
H251 H 0.72333 0.85184 0.33322 0.0
H252 H 0.79769 0.83479 0.29243 0.0
Cu253 Cu 0.07264 0.25987 0.56889 0.0
N254 N 0.03853 0.22749 0.56932 0.0
N255 N 1.0148 0.17925 0.56953 0.0
C256 C 0.04359 0.19714 0.56714 0.0
C257 C 0.99065 0.19906 0.57331 0.0
C258 C 1.00534 0.22887 0.57314 0.0
O259 O 0.10614 0.25182 0.55928 0.0
C260 C 0.11795 0.28041 0.58342 0.0
O261 O 0.13054 0.30307 0.57843 0.0
H262 H 0.0687 0.18799 0.56437 0.0
H263 H 0.99349 0.24986 0.57597 0.0
N264 N 0.04724 0.29668 0.56627 0.0
N265 N 0.02805 0.34641 0.56528 0.0
C266 C 0.04928 0.32584 0.56971 0.0
C267 C 0.02376 0.29894 0.55956 0.0
C268 C 1.01193 0.3295 0.55893 0.0
C269 C 0.13014 0.23016 0.55895 0.0
O270 O 0.13596 0.21268 0.56587 0.0
H271 H 0.0668 0.33211 0.5751 0.0
H272 H 1.01643 0.27967 0.55531 0.0
O273 O 0.09503 0.26084 0.58036 0.0
H274 H 0.96485 0.19227 0.57626 0.0
H275 H 0.99314 0.33867 0.55411 0.0
Cu276 Cu 0.77471 0.92155 0.45361 0.0
N277 N 0.78129 0.90182 0.44276 0.0
N278 N 0.78347 0.89177 0.42841 0.0
C279 C 0.77116 0.91143 0.43473 0.0
C280 C 0.80164 0.86883 0.43268 0.0
C281 C 0.80035 0.87515 0.44148 0.0
O282 O 0.72698 0.94205 0.45437 0.0
C283 C 0.83394 0.96336 0.44995 0.0
O284 O 0.8211 0.96308 0.44196 0.0
H285 H 0.75634 0.93296 0.43352 0.0
H286 H 0.81308 0.86153 0.44659 0.0
N287 N 0.77487 0.8906 0.46225 0.0
N288 N 0.78367 0.86585 0.47494 0.0
C289 C 0.78861 0.89272 0.47038 0.0
C290 C 0.76052 0.86157 0.46167 0.0
C291 C 0.76604 0.8462 0.46946 0.0
C292 C 0.71513 0.96468 0.44974 0.0
O293 O 0.73686 0.97781 0.44395 0.0
H294 H 0.80222 0.91347 0.47285 0.0
H295 H 0.74683 0.85231 0.45598 0.0
O296 O 0.81648 0.94888 0.45592 0.0
H297 H 0.81516 0.84888 0.4297 0.0
H298 H 0.75713 0.8226 0.47102 0.0
Cu299 Cu 0.08596 0.26431 0.69151 0.0
N300 N 0.05261 0.29636 0.68936 0.0
N301 N 0.02819 0.34435 0.68889 0.0
C302 C 0.05294 0.32549 0.69278 0.0
C303 C 1.01161 0.32638 0.68282 0.0
C304 C 0.02669 0.29669 0.68316 0.0
O305 O 0.1185 0.27878 0.7007 0.0
C306 C 0.12669 0.27835 0.67658 0.0
O307 O 0.12987 0.30553 0.68058 0.0
H308 H 0.07243 0.33322 0.69763 0.0
H309 H 0.02044 0.27711 0.67892 0.0
N310 N 0.06023 0.22915 0.69539 0.0
N311 N 0.04175 0.17981 0.69769 0.0
C312 C 0.06319 0.19893 0.69283 0.0
C313 C 0.036 0.22916 0.70201 0.0
C314 C 0.02461 0.19878 0.70346 0.0
C315 C 0.13395 0.26011 0.70603 0.0
O316 O 0.13086 0.22965 0.70483 0.0
H317 H 0.08166 0.19101 0.68774 0.0
H318 H 0.02785 0.24982 0.70565 0.0
O319 O 0.11056 0.25591 0.68051 0.0
H320 H 0.99085 0.3344 0.67832 0.0
H321 H 1.0054 0.19119 0.70842 0.0
Cu322 Cu 0.78629 0.60077 0.95717 0.0
N323 N 0.78941 0.62454 0.94693 0.0
N324 N 0.78666 0.63754 0.93282 0.0
C325 C 0.78306 0.61431 0.93875 0.0
C326 C 0.79526 0.66347 0.93744 0.0
C327 C 0.79697 0.65537 0.94614 0.0
O328 O 0.83089 0.57569 0.95845 0.0
C329 C 0.72649 0.56057 0.96237 0.0
O330 O 0.74318 0.55779 0.96991 0.0
H331 H 0.77533 0.5904 0.9372 0.0
H332 H 0.80317 0.67091 0.95152 0.0
N333 N 0.78379 0.62793 0.96678 0.0
N334 N 0.76637 0.65255 0.97904 0.0
C335 C 0.7567 0.63204 0.97269 0.0
C336 C 0.81136 0.64643 0.96947 0.0
C337 C 0.80074 0.66167 0.97698 0.0
C338 C 0.84623 0.56066 0.95225 0.0
O339 O 0.82984 0.55909 0.94466 0.0
H340 H 0.73056 0.62016 0.97238 0.0
H341 H 0.83771 0.64817 0.96626 0.0
O342 O 0.74156 0.57628 0.95629 0.0
H343 H 0.80048 0.68652 0.93472 0.0
H344 H 0.81758 0.67742 0.98079 0.0
Cu345 Cu 0.49444 0.26567 0.19714 0.0
N346 N 0.52931 0.23395 0.1982 0.0
N347 N 0.55439 0.18693 0.20066 0.0
C348 C 0.52455 0.2053 0.2017 0.0
C349 C 0.5791 0.20498 0.19642 0.0
C350 C 0.56353 0.23402 0.19493 0.0
O351 O 0.45399 0.25736 0.20513 0.0
C352 C 0.47916 0.24555 0.18 0.0
O353 O 0.4827 0.21752 0.18348 0.0
H354 H 0.49912 0.19753 0.20458 0.0
H355 H 0.5758 0.25351 0.19147 0.0
N356 N 0.51623 0.30269 0.20083 0.0
N357 N 0.53026 0.35333 0.20237 0.0
C358 C 0.51233 0.3318 0.19753 0.0
C359 C 0.53744 0.30584 0.20793 0.0
C360 C 0.5461 0.33711 0.20891 0.0
C361 C 0.43356 0.23313 0.2051 0.0
O362 O 0.43618 0.21288 0.19866 0.0
H363 H 0.49558 0.33721 0.19192 0.0
H364 H 0.54533 0.28675 0.21218 0.0
O365 O 0.48112 0.26967 0.18489 0.0
H366 H 0.60612 0.19756 0.19435 0.0
H367 H 0.56246 0.34719 0.21408 0.0
C368 C 0.88087 0.97527 0.31441 0.0
C369 C 0.86406 0.97544 0.30617 0.0
C370 C 0.91742 0.98465 0.31535 0.0
C371 C 1.00332 0.99516 0.30256 0.0
H372 H 0.0354 0.04043 0.32309 0.0
C373 C 0.14868 0.04929 0.30574 0.0
C374 C 0.16599 0.04712 0.3139 0.0
C375 C 0.11221 0.03976 0.30471 0.0
C376 C 0.02699 0.02748 0.31736 0.0
H377 H 0.87237 0.98659 0.29251 0.0
H378 H 0.93565 1.00356 0.29418 0.0
H379 H 0.97094 0.02681 0.3215 0.0
H380 H 0.15856 0.03242 0.32733 0.0
H381 H 0.0952 0.01571 0.32553 0.0
H382 H 0.05941 0.99612 0.29839 0.0
C383 C 0.92091 0.9955 0.2999 0.0
C384 C 0.98996 0.01964 0.31644 0.0
C385 C 0.88444 0.986 0.29895 0.0
C386 C 0.14616 0.03451 0.32095 0.0
C387 C 0.10968 0.02514 0.31994 0.0
C388 C 0.04033 1.00312 0.30345 0.0
C389 C 0.93811 0.99458 0.3081 0.0
C390 C 0.97757 1.00333 0.30903 0.0
C391 C 0.09207 0.02798 0.31184 0.0
C392 C 0.05268 0.01933 0.31087 0.0
H393 H 0.8661 0.96713 0.32011 0.0
H394 H 0.92973 0.98326 0.32175 0.0
H395 H 0.99503 0.98209 0.29683 0.0
H396 H 0.16304 0.05895 0.30016 0.0
H397 H 0.09946 0.04249 0.29839 0.0
C398 C 1.00162 0.62939 0.56282 0.0
C399 C 0.99299 0.64661 0.57037 0.0
C400 C 1.00322 0.59664 0.56305 0.0
C401 C 0.02134 0.5298 0.57697 0.0
H402 H 0.96864 0.48281 0.55936 0.0
C403 C 0.02485 0.39296 0.57497 0.0
C404 C 0.02475 0.37982 0.56657 0.0
C405 C 0.01952 0.42536 0.57613 0.0
C406 C 0.98395 0.49551 0.56426 0.0
H407 H 0.97964 0.64318 0.58409 0.0
H408 H 0.98329 0.58543 0.58456 0.0
H409 H 0.96191 0.53967 0.5601 0.0
H410 H 0.02109 0.39036 0.55279 0.0
H411 H 1.01301 0.44656 0.55473 0.0
H412 H 0.04465 0.48581 0.5809 0.0
C413 C 0.98845 0.5975 0.57846 0.0
C414 C 0.97983 0.52808 0.56471 0.0
C415 C 0.98615 0.63038 0.57818 0.0
C416 C 0.02044 0.39974 0.55935 0.0
C417 C 1.01562 0.43199 0.56049 0.0
C418 C 0.02592 0.49713 0.57644 0.0
C419 C 0.99679 0.58037 0.57087 0.0
C420 C 0.99887 0.54559 0.57098 0.0
C421 C 1.01442 0.44525 0.56889 0.0
C422 C 1.00776 0.47964 0.56997 0.0
H423 H 1.00667 0.64129 0.5567 0.0
H424 H 1.00992 0.58399 0.55712 0.0
H425 H 0.03647 0.54285 0.58183 0.0
H426 H 0.02797 0.37806 0.58064 0.0
H427 H 0.01856 0.43466 0.5827 0.0
C428 C 0.6553 0.53489 0.80335 0.0
C429 C 0.67261 0.54939 0.81047 0.0
C430 C 0.61853 0.52573 0.80388 0.0
C431 C 0.54163 0.51217 0.81965 0.0
H432 H 0.48194 0.52208 0.79897 0.0
C433 C 0.3831 0.50104 0.82025 0.0
C434 C 0.36747 0.48253 0.81364 0.0
C435 C 0.42019 0.50946 0.8199 0.0
C436 C 0.49829 0.51897 0.80479 0.0
H437 H 0.66479 0.56515 0.82379 0.0
H438 H 0.6006 0.54994 0.82465 0.0
H439 H 0.54678 0.53537 0.79841 0.0
H440 H 0.37855 0.45898 0.80136 0.0
H441 H 0.44297 0.47407 0.80069 0.0
H442 H 0.49267 0.49638 0.82605 0.0
C443 C 0.61552 0.54499 0.8187 0.0
C444 C 0.53561 0.52644 0.80446 0.0
C445 C 0.65243 0.55386 0.8182 0.0
C446 C 0.38964 0.47326 0.80657 0.0
C447 C 0.42657 0.482 0.80616 0.0
C448 C 0.50419 0.50502 0.81999 0.0
C449 C 0.59786 0.53112 0.81151 0.0
C450 C 0.55794 0.52302 0.81188 0.0
C451 C 0.44242 0.49993 0.81286 0.0
C452 C 0.48209 0.50822 0.81256 0.0
H453 H 0.67006 0.5309 0.79731 0.0
H454 H 0.60631 0.51447 0.79826 0.0
H455 H 0.55786 0.50871 0.82547 0.0
H456 H 0.36689 0.50852 0.82581 0.0
H457 H 0.43148 0.52355 0.82512 0.0
C458 C 0.38457 0.1109 0.07468 0.0
C459 C 0.40638 0.1332 0.07032 0.0
C460 C 0.39388 0.07889 0.07449 0.0
C461 C 0.44037 0.02033 0.0611 0.0
H462 H 0.44935 0.97069 0.08218 0.0
C463 C 0.49499 0.8936 0.05937 0.0
C464 C 0.48118 0.87099 0.06517 0.0
C465 C 0.48681 0.92547 0.06047 0.0
C466 C 0.44641 0.98394 0.0762 0.0
H467 H 0.45469 0.13938 0.06228 0.0
H468 H 0.47039 0.08345 0.06177 0.0
H469 H 0.43203 0.02612 0.08315 0.0
H470 H 0.44839 0.864 0.07676 0.0
H471 H 0.43257 0.91961 0.07854 0.0
H472 H 0.45312 0.97845 0.05406 0.0
C473 C 0.4464 0.09077 0.06541 0.0
C474 C 0.43664 0.01581 0.07678 0.0
C475 C 0.43755 0.12279 0.06575 0.0
C476 C 0.45955 0.88102 0.07223 0.0
C477 C 0.45064 0.91297 0.07325 0.0
C478 C 0.44941 0.98843 0.06049 0.0
C479 C 0.42471 0.06846 0.06979 0.0
C480 C 0.43391 0.0344 0.06924 0.0
C481 C 0.46377 0.9357 0.0673 0.0
C482 C 0.45307 0.96972 0.06803 0.0
H483 H 0.36055 0.1183 0.07829 0.0
H484 H 0.37658 0.0622 0.07789 0.0
H485 H 0.43793 0.03396 0.05516 0.0
H486 H 0.51226 0.88655 0.05396 0.0
H487 H 0.49863 0.94205 0.05591 0.0
C488 C 0.16728 0.48461 0.96581 0.0
C489 C 0.18654 0.47424 0.95838 0.0
C490 C 0.13066 0.49418 0.9652 0.0
C491 C 0.05937 0.51918 0.94929 0.0
H492 H 0.99242 0.49632 0.96792 0.0
C493 C 0.90273 0.53515 0.94607 0.0
C494 C 0.88397 0.54797 0.95327 0.0
C495 C 0.93929 0.52559 0.94679 0.0
C496 C 1.0108 0.50314 0.96269 0.0
H497 H 0.18229 0.4662 0.94446 0.0
H498 H 0.11841 0.48241 0.94342 0.0
H499 H 0.05684 0.48161 0.96891 0.0
H500 H 0.88893 0.55999 0.96696 0.0
H501 H 0.95268 0.54316 0.96822 0.0
H502 H 1.01318 0.54044 0.94304 0.0
C503 C 0.13172 0.48363 0.94971 0.0
C504 C 0.04785 0.49478 0.96327 0.0
C505 C 0.1684 0.47419 0.95031 0.0
C506 C 0.90246 0.55018 0.96128 0.0
C507 C 0.93902 0.54044 0.96201 0.0
C508 C 0.02231 0.52739 0.9487 0.0
C509 C 0.1122 0.49353 0.95716 0.0
C510 C 0.0727 0.50268 0.95657 0.0
C511 C 0.95806 0.52842 0.95475 0.0
C512 C 0.99752 0.51948 0.95539 0.0
H513 H 0.18039 0.48511 0.97213 0.0
H514 H 0.11686 0.50219 0.97106 0.0
H515 H 0.07768 0.52618 0.94407 0.0
H516 H 0.88942 0.53302 0.9398 0.0
H517 H 0.95291 0.51599 0.9411 0.0
C518 C 0.53002 0.4001 0.19282 0.0
C519 C 0.53024 0.38686 0.20122 0.0
C520 C 0.52996 0.43277 0.19175 0.0
C521 C 0.50325 0.50521 0.20277 0.0
H522 H 0.57648 0.54649 0.18844 0.0
C523 C 0.52849 0.63756 0.20548 0.0
C524 C 0.53729 0.65468 0.19794 0.0
C525 C 0.52663 0.60485 0.20524 0.0
C526 C 0.55542 0.53536 0.19234 0.0
H527 H 0.52993 0.39724 0.21505 0.0
H528 H 0.52934 0.45423 0.21319 0.0
H529 H 0.57441 0.48908 0.18903 0.0
H530 H 0.55101 0.65108 0.18423 0.0
H531 H 0.54692 0.59368 0.18373 0.0
H532 H 0.48379 0.55107 0.20604 0.0
C533 C 0.52948 0.43938 0.20745 0.0
C534 C 0.55435 0.5025 0.1927 0.0
C535 C 0.53014 0.40683 0.20851 0.0
C536 C 0.54441 0.63838 0.19015 0.0
C537 C 0.54214 0.60555 0.18988 0.0
C538 C 0.50398 0.53794 0.20234 0.0
C539 C 0.5294 0.45265 0.19907 0.0
C540 C 0.52871 0.48721 0.19805 0.0
C541 C 0.53307 0.58839 0.19743 0.0
C542 C 0.53057 0.55349 0.19727 0.0
H543 H 0.53032 0.38516 0.18711 0.0
H544 H 0.52981 0.44249 0.18523 0.0
H545 H 0.48283 0.49392 0.20684 0.0
H546 H 0.52364 0.64946 0.21161 0.0
H547 H 0.52058 0.59246 0.21124 0.0
C548 C 0.39072 0.04543 0.44775 0.0
C549 C 0.37068 0.03883 0.45538 0.0
C550 C 0.42758 0.0366 0.44701 0.0
C551 C 0.50772 0.01459 0.4607 0.0
H552 H 0.55038 0.9901 0.43853 0.0
C553 C 0.6544 0.96369 0.45748 0.0
C554 C 0.67623 0.97468 0.45055 0.0
C555 C 0.61732 0.97183 0.45807 0.0
C556 C 0.53894 0.99719 0.44476 0.0
H557 H 0.37341 0.01657 0.46807 0.0
H558 H 0.43715 1.00031 0.46668 0.0
H559 H 0.48506 1.00186 0.43945 0.0
H560 H 0.67602 1.00306 0.43881 0.0
H561 H 0.61116 0.01712 0.4398 0.0
H562 H 0.5616 1.00937 0.46602 0.0
C563 C 0.4248 0.01314 0.46135 0.0
C564 C 0.50143 1.00398 0.44529 0.0
C565 C 0.38805 0.02221 0.46212 0.0
C566 C 0.66007 0.99424 0.44424 0.0
C567 C 0.62283 1.00211 0.44478 0.0
C568 C 0.54512 1.00752 0.46018 0.0
C569 C 0.44533 0.02069 0.45385 0.0
C570 C 0.48525 0.01283 0.45327 0.0
C571 C 0.60098 0.99092 0.45168 0.0
C572 C 0.56122 0.99877 0.4522 0.0
H573 H 0.37832 0.05838 0.44244 0.0
H574 H 0.44242 0.04321 0.44117 0.0
H575 H 0.4966 0.02195 0.46693 0.0
H576 H 0.6659 0.94857 0.46245 0.0
H577 H 0.60122 0.9626 0.46343 0.0
C578 C 0.0341 0.1285 0.70493 0.0
C579 C 0.03927 0.14604 0.69727 0.0
C580 C 0.03149 0.09579 0.70461 0.0
C581 C 1.0063 0.02992 0.69068 0.0
H582 H 0.06248 0.981 0.70725 0.0
C583 C 1.00223 0.89286 0.69192 0.0
C584 C 1.00376 0.87914 0.70024 0.0
C585 C 1.00743 0.92532 0.69088 0.0
C586 C 0.04621 0.99425 0.70264 0.0
H587 H 0.04543 0.14311 0.68325 0.0
H588 H 0.0403 0.08554 0.68266 0.0
H589 H 0.07022 0.03776 0.70668 0.0
H590 H 1.00981 0.88883 0.71402 0.0
H591 H 1.01795 0.94509 0.71228 0.0
H592 H 0.98137 0.98648 0.68684 0.0
C593 C 0.03848 0.09729 0.68891 0.0
C594 C 0.05085 0.02679 0.70229 0.0
C595 C 0.04168 0.13012 0.68925 0.0
C596 C 1.00936 0.8986 0.70751 0.0
C597 C 1.01418 0.9309 0.70649 0.0
C598 C 1.00133 0.99728 0.69109 0.0
C599 C 0.03356 0.07983 0.69661 0.0
C600 C 0.03057 0.04503 0.6964 0.0
C601 C 1.01395 0.9447 0.69816 0.0
C602 C 0.02079 0.9791 0.6972 0.0
H603 H 0.03252 0.14007 0.71121 0.0
H604 H 0.02742 0.08297 0.71064 0.0
H605 H 0.99019 0.04348 0.68611 0.0
H606 H 0.9981 0.87836 0.6862 0.0
H607 H 1.00725 0.93508 0.68436 0.0
C608 C 0.6474 0.97638 0.30391 0.0
C609 C 0.66556 0.98284 0.31179 0.0
C610 C 0.61081 0.98535 0.30274 0.0
C611 C 0.5381 0.03787 0.31158 0.0
H612 H 0.47196 0.97808 0.30087 0.0
C613 C 0.38154 0.05405 0.31328 0.0
C614 C 0.36114 0.04779 0.30571 0.0
C615 C 0.41856 0.04579 0.31377 0.0
C616 C 0.4901 0.99521 0.30378 0.0
H617 H 0.65956 1.00458 0.32451 0.0
H618 H 0.59597 0.02003 0.32248 0.0
H619 H 0.53706 0.96564 0.30196 0.0
H620 H 0.3637 0.02717 0.29279 0.0
H621 H 0.42841 0.01283 0.29363 0.0
H622 H 0.49121 0.06735 0.31346 0.0
C623 C 0.61002 1.00827 0.31717 0.0
C624 C 0.52749 0.9881 0.3044 0.0
C625 C 0.64654 0.99927 0.31835 0.0
C626 C 0.37851 0.03228 0.29872 0.0
C627 C 0.41563 0.02398 0.29922 0.0
C628 C 0.50077 0.04496 0.31097 0.0
C629 C 0.59149 1.00109 0.30939 0.0
C630 C 0.55195 1.00925 0.30837 0.0
C631 C 0.43626 0.03104 0.3067 0.0
C632 C 0.4762 0.02362 0.30713 0.0
H633 H 0.6612 0.96378 0.29871 0.0
H634 H 0.59761 0.97984 0.29661 0.0
H635 H 0.55618 0.05497 0.31454 0.0
H636 H 0.36908 0.0658 0.31881 0.0
H637 H 0.43334 0.05102 0.3197 0.0
C638 C 1.00858 0.89089 0.56696 0.0
C639 C 1.00836 0.87846 0.57543 0.0
C640 C 1.01205 0.9233 0.56563 0.0
C641 C 0.03685 0.99753 0.57731 0.0
H642 H 0.9818 0.03711 0.55871 0.0
C643 C 0.9993 0.12897 0.57657 0.0
C644 C 1.01311 0.14552 0.56936 0.0
C645 C 1.0002 0.09618 0.57671 0.0
C646 C 0.99748 0.02622 0.56388 0.0
H647 H 1.01074 0.89004 0.58916 0.0
H648 H 1.01538 0.94636 0.58694 0.0
H649 H 0.9812 0.97988 0.56015 0.0
H650 H 0.03763 0.14103 0.55655 0.0
H651 H 0.03805 0.08319 0.55667 0.0
H652 H 0.05137 0.0442 0.58127 0.0
C653 C 1.01441 0.9313 0.58125 0.0
C654 C 0.9974 0.99346 0.56469 0.0
C655 C 1.01161 0.89895 0.58255 0.0
C656 C 0.02692 0.12868 0.56218 0.0
C657 C 0.02706 0.09579 0.56223 0.0
C658 C 0.03627 0.03022 0.5766 0.0
C659 C 1.01471 0.94399 0.57278 0.0
C660 C 1.01675 0.97868 0.57149 0.0
C661 C 1.01422 0.07938 0.56956 0.0
C662 C 1.01632 0.04479 0.56994 0.0
H663 H 1.0063 0.87547 0.56137 0.0
H664 H 1.01275 0.93207 0.55901 0.0
H665 H 0.05291 0.9871 0.58248 0.0
H666 H 0.98893 0.14144 0.58222 0.0
H667 H 0.9901 0.08389 0.58241 0.0
C668 C 0.15442 0.47308 0.80489 0.0
C669 C 0.17309 0.47881 0.81274 0.0
C670 C 0.11773 0.48215 0.80392 0.0
C671 C 0.04589 0.53417 0.81331 0.0
H672 H 0.97834 0.4747 0.80296 0.0
C673 C 0.88985 0.55029 0.81646 0.0
C674 C 0.86794 0.54379 0.80915 0.0
C675 C 0.92696 0.54214 0.81654 0.0
C676 C 0.99686 0.49177 0.80577 0.0
H677 H 0.16793 0.49939 0.82564 0.0
H678 H 0.10426 0.51513 0.82394 0.0
H679 H 0.04361 0.46229 0.80351 0.0
H680 H 0.86797 0.52294 0.79625 0.0
H681 H 0.9329 0.50889 0.79636 0.0
H682 H 0.99931 0.56362 0.8156 0.0
C683 C 0.11794 0.5038 0.8185 0.0
C684 C 0.03434 0.48466 0.80608 0.0
C685 C 0.1545 0.49463 0.81949 0.0
C686 C 0.88396 0.52821 0.802 0.0
C687 C 0.92122 0.52008 0.80207 0.0
C688 C 1.0085 0.5413 0.81299 0.0
C689 C 0.09889 0.49733 0.81075 0.0
C690 C 0.0593 0.50563 0.80994 0.0
C691 C 0.94333 0.52734 0.8093 0.0
C692 C 0.98338 0.52005 0.80931 0.0
H693 H 0.16786 0.46092 0.79956 0.0
H694 H 0.10406 0.47715 0.79782 0.0
H695 H 0.06436 0.55114 0.81619 0.0
H696 H 0.87847 0.56207 0.82212 0.0
H697 H 0.94285 0.54749 0.8223 0.0
C698 C 0.46188 0.62165 0.06685 0.0
C699 C 0.44414 0.64217 0.07269 0.0
C700 C 0.45368 0.58948 0.0668 0.0
C701 C 0.38328 0.53162 0.07419 0.0
H702 H 0.46121 0.47139 0.07009 0.0
C703 C 0.36608 0.39671 0.07926 0.0
C704 C 0.38272 0.37681 0.07306 0.0
C705 C 0.3721 0.42928 0.07905 0.0
C706 C 0.43903 0.4879 0.07116 0.0
H707 H 0.40435 0.64462 0.08319 0.0
H708 H 0.39047 0.58865 0.08321 0.0
H709 H 0.47503 0.52738 0.07013 0.0
H710 H 0.4172 0.37617 0.06151 0.0
H711 H 0.4279 0.43258 0.06122 0.0
H712 H 0.34744 0.49189 0.07534 0.0
C713 C 0.41009 0.59745 0.0785 0.0
C714 C 0.44695 0.52009 0.07116 0.0
C715 C 0.41812 0.62964 0.0785 0.0
C716 C 0.4046 0.39052 0.06651 0.0
C717 C 0.41076 0.42296 0.06634 0.0
C718 C 0.37542 0.49937 0.07424 0.0
C719 C 0.42771 0.57687 0.07264 0.0
C720 C 0.41919 0.54246 0.07266 0.0
C721 C 0.395 0.44273 0.07267 0.0
C722 C 0.40318 0.4771 0.07269 0.0
H723 H 0.48168 0.63053 0.0622 0.0
H724 H 0.46739 0.57457 0.06209 0.0
H725 H 0.36103 0.54806 0.07522 0.0
H726 H 0.34932 0.38711 0.08444 0.0
H727 H 0.3597 0.44381 0.08406 0.0
C728 C 0.40701 0.49904 0.94498 0.0
C729 C 0.38582 0.48532 0.95164 0.0
C730 C 0.44318 0.50823 0.94654 0.0
C731 C 0.52105 0.49195 0.96121 0.0
H732 H 0.56185 0.56702 0.95067 0.0
C733 C 0.66866 0.53629 0.96828 0.0
C734 C 0.68844 0.54899 0.96123 0.0
C735 C 0.63168 0.52818 0.96734 0.0
C736 C 0.55102 0.54577 0.95359 0.0
H737 H 0.38581 0.47145 0.96525 0.0
H738 H 0.44875 0.48785 0.96799 0.0
H739 H 0.49709 0.55517 0.94881 0.0
H740 H 0.68505 0.56204 0.94757 0.0
H741 H 0.62102 0.54754 0.94593 0.0
H742 H 0.57511 0.48252 0.96595 0.0
C743 C 0.43755 0.49105 0.96152 0.0
C744 C 0.51382 0.539 0.95253 0.0
C745 C 0.40133 0.4819 0.95997 0.0
C746 C 0.67066 0.5525 0.95316 0.0
C747 C 0.63379 0.54442 0.95224 0.0
C748 C 0.5583 0.49874 0.96227 0.0
C749 C 0.45912 0.50392 0.9548 0.0
C750 C 0.49838 0.51189 0.95627 0.0
C751 C 0.61364 0.53261 0.95934 0.0
C752 C 0.57383 0.5256 0.95841 0.0
H753 H 0.39603 0.50196 0.93848 0.0
H754 H 0.45904 0.51776 0.94118 0.0
H755 H 0.51024 0.47062 0.96408 0.0
H756 H 0.68143 0.53337 0.97459 0.0
H757 H 0.61695 0.51933 0.97297 0.0
C758 C 0.55597 0.89981 0.20603 0.0
C759 C 0.53165 0.88831 0.19969 0.0
C760 C 0.55826 0.93199 0.20774 0.0
C761 C 0.51005 1.00751 0.20496 0.0
H762 H 0.60784 0.04315 0.20471 0.0
C763 C 0.5794 0.13405 0.19753 0.0
C764 C 0.55668 0.15379 0.20253 0.0
C765 C 0.57814 0.10148 0.19862 0.0
C766 C 0.5804 0.0335 0.20482 0.0
H767 H 0.48979 0.90176 0.19039 0.0
H768 H 0.49352 0.95776 0.19344 0.0
H769 H 0.60008 0.98619 0.20396 0.0
H770 H 0.51674 0.15483 0.21304 0.0
H771 H 0.5143 0.09796 0.21487 0.0
H772 H 0.49032 0.05483 0.20553 0.0
C773 C 0.5107 0.9418 0.19712 0.0
C774 C 0.57595 1.00092 0.20447 0.0
C775 C 0.50855 0.90965 0.19538 0.0
C776 C 0.534 0.14029 0.20894 0.0
C777 C 0.53262 0.10773 0.21001 0.0
C778 C 0.5145 0.04006 0.20536 0.0
C779 C 0.53606 0.95334 0.20319 0.0
C780 C 0.54071 0.98764 0.20439 0.0
C781 C 0.55411 0.08797 0.20473 0.0
C782 C 0.54971 0.0534 0.20515 0.0
H783 H 0.5736 0.88402 0.20962 0.0
H784 H 0.57765 0.94021 0.21256 0.0
H785 H 0.4826 0.99788 0.20497 0.0
H786 H 0.5969 0.14356 0.19247 0.0
H787 H 0.59476 0.08681 0.19439 0.0
C788 C 0.89078 0.9913 0.44498 0.0
C789 C 0.8708 0.97672 0.4517 0.0
C790 C 0.92695 1.00096 0.44631 0.0
C791 C 1.00739 0.98499 0.46022 0.0
H792 H 0.04506 0.06097 0.44952 0.0
C793 C 0.15647 0.02972 0.46546 0.0
C794 C 0.17448 0.04251 0.45816 0.0
C795 C 0.11923 0.02177 0.46506 0.0
C796 C 0.0351 0.03949 0.45248 0.0
H797 H 0.87302 0.96178 0.46522 0.0
H798 H 0.93603 0.979 0.46756 0.0
H799 H 0.98018 0.0485 0.44833 0.0
H800 H 0.1675 0.0561 0.44463 0.0
H801 H 0.10307 0.04195 0.44391 0.0
H802 H 0.06248 0.97594 0.46432 0.0
C803 C 0.92384 0.98254 0.46121 0.0
C804 C 0.99782 0.03236 0.45181 0.0
C805 C 0.88758 0.97291 0.45988 0.0
C806 C 0.15456 0.04647 0.4504 0.0
C807 C 0.11745 0.03858 0.45001 0.0
C808 C 0.04473 0.99216 0.4609 0.0
C809 C 0.94417 0.99631 0.4544 0.0
C810 C 0.9835 1.00485 0.45558 0.0
C811 C 0.09913 0.0265 0.45736 0.0
C812 C 0.05915 0.01933 0.45696 0.0
H813 H 0.87883 0.99455 0.43859 0.0
H814 H 0.9418 1.01115 0.44088 0.0
H815 H 0.99747 0.96339 0.46311 0.0
H816 H 0.1709 0.02645 0.47155 0.0
H817 H 0.10598 0.0127 0.47086 0.0
C818 C 0.02652 0.39075 0.69853 0.0
C819 C 0.02404 0.37764 0.69016 0.0
C820 C 0.02387 0.42328 0.69972 0.0
C821 C 0.99692 0.49714 0.68809 0.0
H822 H 0.05596 0.53683 0.70596 0.0
C823 C 0.03256 0.62917 0.68862 0.0
C824 C 0.02081 0.64528 0.69612 0.0
C825 C 0.03205 0.59638 0.68836 0.0
C826 C 0.03921 0.52593 0.70099 0.0
H827 H 1.01751 0.38807 0.67645 0.0
H828 H 1.01443 0.44473 0.6784 0.0
H829 H 0.05642 0.47965 0.70452 0.0
H830 H 1.00032 0.63998 0.7093 0.0
H831 H 1.00068 0.58215 0.70895 0.0
H832 H 0.98137 0.5438 0.68433 0.0
C833 C 1.01694 0.4301 0.68414 0.0
C834 C 0.03919 0.49317 0.70018 0.0
C835 C 0.01886 0.39758 0.68299 0.0
C836 C 1.00947 0.62799 0.70345 0.0
C837 C 1.00975 0.5951 0.70326 0.0
C838 C 0.9976 0.52986 0.68879 0.0
C839 C 0.01942 0.44347 0.69252 0.0
C840 C 0.01822 0.4783 0.69368 0.0
C841 C 0.02051 0.57911 0.69566 0.0
C842 C 0.01887 0.54448 0.69521 0.0
H843 H 0.03025 0.37574 0.70416 0.0
H844 H 0.02518 0.4325 0.70629 0.0
H845 H 0.97966 0.4867 0.68316 0.0
H846 H 0.04097 0.64198 0.68286 0.0
H847 H 0.04055 0.58445 0.68245 0.0
C848 C 0.25347 0.10695 0.34869 0.0
C849 C 0.26715 0.1335 0.34431 0.0
C850 C 0.25483 0.10512 0.3578 0.0
C851 C 0.30285 0.13548 0.37705 0.0
H852 H 0.21348 0.11522 0.38958 0.0
C853 C 0.29648 0.11535 0.41453 0.0
C854 C 0.26864 0.13187 0.41893 0.0
C855 C 0.29734 0.11438 0.4054 0.0
C856 C 0.23863 0.12089 0.38616 0.0
H857 H 0.29403 0.17843 0.34601 0.0
H858 H 0.29692 0.17506 0.36192 0.0
H859 H 0.21374 0.11518 0.37362 0.0
H860 H 0.21953 0.15979 0.41723 0.0
H861 H 0.22074 0.15776 0.40131 0.0
H862 H 0.32773 0.1412 0.3896 0.0
C863 C 0.28491 0.15578 0.35831 0.0
C864 C 0.23885 0.12063 0.37704 0.0
C865 C 0.283 0.15783 0.34922 0.0
C866 C 0.24152 0.14716 0.41402 0.0
C867 C 0.24203 0.14576 0.40491 0.0
C868 C 0.30279 0.13525 0.38617 0.0
C869 C 0.27048 0.12957 0.3627 0.0
C870 C 0.27086 0.12825 0.37238 0.0
C871 C 0.26998 0.12943 0.40051 0.0
C872 C 0.27056 0.12829 0.39082 0.0
H873 H 0.24088 0.08796 0.34508 0.0
H874 H 0.24367 0.08457 0.36102 0.0
H875 H 0.32796 0.14128 0.37362 0.0
H876 H 0.31782 0.10351 0.41815 0.0
H877 H 0.31913 0.10151 0.40218 0.0
C878 C 0.87863 0.80312 0.60344 0.0
C879 C 0.89521 0.77789 0.59901 0.0
C880 C 0.87315 0.80194 0.61246 0.0
C881 C 0.87472 0.74872 0.63181 0.0
H882 H 0.89991 0.82547 0.64406 0.0
C883 C 0.91446 0.75193 0.66822 0.0
C884 C 0.90285 0.77755 0.67335 0.0
C885 C 0.90764 0.75121 0.65926 0.0
C886 C 0.89218 0.80398 0.64075 0.0
H887 H 0.91756 0.73099 0.60053 0.0
H888 H 0.90866 0.72909 0.6163 0.0
H889 H 0.89842 0.82516 0.62821 0.0
H890 H 0.874 0.82211 0.67307 0.0
H891 H 0.86215 0.82088 0.65738 0.0
H892 H 0.86968 0.72738 0.64442 0.0
C893 C 0.89936 0.74969 0.6128 0.0
C894 C 0.89126 0.80377 0.63164 0.0
C895 C 0.90456 0.75078 0.60374 0.0
C896 C 0.88336 0.80206 0.66932 0.0
C897 C 0.87676 0.80143 0.66033 0.0
C898 C 0.87583 0.7489 0.64094 0.0
C899 C 0.88443 0.7756 0.6173 0.0
C900 C 0.88289 0.77607 0.62703 0.0
C901 C 0.88921 0.77615 0.65518 0.0
C902 C 0.88497 0.77646 0.64552 0.0
H903 H 0.87076 0.82425 0.59998 0.0
H904 H 0.86075 0.82202 0.61566 0.0
H905 H 0.86761 0.72709 0.62851 0.0
H906 H 0.92947 0.73259 0.6711 0.0
H907 H 0.91798 0.73156 0.65549 0.0
C908 C 0.27558 0.369 0.84959 0.0
C909 C 0.27353 0.39645 0.84451 0.0
C910 C 0.27986 0.37076 0.85862 0.0
C911 C 0.26521 0.4233 0.87744 0.0
H912 H 0.32953 0.36444 0.88915 0.0
C913 C 0.29276 0.4277 0.91478 0.0
C914 C 0.29545 0.39869 0.91913 0.0
C915 C 0.29065 0.42886 0.90566 0.0
C916 C 0.31112 0.38084 0.886 0.0
H917 H 0.27447 0.44737 0.845 0.0
H918 H 0.28226 0.45048 0.86081 0.0
H919 H 0.32575 0.36402 0.87331 0.0
H920 H 0.29646 0.34817 0.9173 0.0
H921 H 0.29251 0.35012 0.90149 0.0
H922 H 0.25026 0.43986 0.89017 0.0
C923 C 0.28033 0.42755 0.85777 0.0
C924 C 0.30902 0.38063 0.87691 0.0
C925 C 0.27626 0.42578 0.8487 0.0
C926 C 0.29519 0.37092 0.91417 0.0
C927 C 0.29298 0.37206 0.90508 0.0
C928 C 0.26723 0.42346 0.88656 0.0
C929 C 0.2821 0.40004 0.86284 0.0
C930 C 0.28576 0.40161 0.87251 0.0
C931 C 0.2911 0.40103 0.90069 0.0
C932 C 0.28991 0.40197 0.89097 0.0
H933 H 0.27395 0.34604 0.84657 0.0
H934 H 0.28075 0.3491 0.86233 0.0
H935 H 0.24674 0.43957 0.87426 0.0
H936 H 0.29327 0.44955 0.91839 0.0
H937 H 0.28956 0.4516 0.9025 0.0
C938 C 0.59558 0.71368 0.09782 0.0
C939 C 0.57582 0.73803 0.09378 0.0
C940 C 0.6058 0.71595 0.10658 0.0
C941 C 0.61569 0.77247 0.12501 0.0
H942 H 0.60324 0.69788 0.13923 0.0
C943 C 0.60625 0.77647 0.1626 0.0
C944 C 0.62222 0.75199 0.16744 0.0
C945 C 0.60558 0.77534 0.15349 0.0
C946 C 0.60746 0.71881 0.13534 0.0
H947 H 0.55212 0.78426 0.09578 0.0
H948 H 0.56945 0.78803 0.11108 0.0
H949 H 0.59268 0.69498 0.12359 0.0
H950 H 0.65102 0.70751 0.16646 0.0
H951 H 0.64991 0.70557 0.15052 0.0
H952 H 0.62964 0.79643 0.13683 0.0
C953 C 0.57752 0.76731 0.10745 0.0
C954 C 0.6014 0.71717 0.12635 0.0
C955 C 0.56739 0.76508 0.09867 0.0
C956 C 0.63846 0.72675 0.16294 0.0
C957 C 0.6376 0.72553 0.1538 0.0
C958 C 0.62164 0.77413 0.13401 0.0
C959 C 0.59644 0.74258 0.11156 0.0
C960 C 0.60504 0.74405 0.12106 0.0
C961 C 0.62072 0.74963 0.14897 0.0
C962 C 0.6172 0.7474 0.13931 0.0
H963 H 0.60277 0.69258 0.09424 0.0
H964 H 0.62092 0.69669 0.10947 0.0
H965 H 0.6194 0.79352 0.12113 0.0
H966 H 0.5935 0.79631 0.16584 0.0
H967 H 0.59201 0.79414 0.15 0.0
C968 C 0.74956 0.61783 0.85326 0.0
C969 C 0.77853 0.63291 0.84889 0.0
C970 C 0.74879 0.61648 0.86239 0.0
C971 C 0.80811 0.61884 0.88161 0.0
H972 H 0.72167 0.64629 0.89428 0.0
C973 C 0.79383 0.60743 0.91912 0.0
C974 C 0.78309 0.63503 0.92348 0.0
C975 C 0.79177 0.60543 0.91002 0.0
C976 C 0.74595 0.63851 0.89082 0.0
H977 H 0.82983 0.65761 0.85065 0.0
H978 H 0.8288 0.65483 0.86655 0.0
H979 H 0.72119 0.64556 0.8783 0.0
H980 H 0.76078 0.6818 0.92176 0.0
H981 H 0.75666 0.67817 0.90586 0.0
H982 H 0.83292 0.61183 0.8941 0.0
C983 C 0.80653 0.64432 0.86293 0.0
C984 C 0.74559 0.63788 0.88169 0.0
C985 C 0.80697 0.64615 0.85383 0.0
C986 C 0.76952 0.66035 0.91856 0.0
C987 C 0.76689 0.65817 0.90948 0.0
C988 C 0.80826 0.61897 0.89073 0.0
C989 C 0.77737 0.62963 0.86731 0.0
C990 C 0.77683 0.62843 0.87699 0.0
C991 C 0.77834 0.63081 0.90511 0.0
C992 C 0.77735 0.62916 0.89543 0.0
H993 H 0.72724 0.60756 0.84961 0.0
H994 H 0.72604 0.6049 0.8656 0.0
H995 H 0.8325 0.61127 0.87815 0.0
H996 H 0.80467 0.58764 0.92272 0.0
H997 H 0.80063 0.58401 0.90682 0.0
C998 C 0.47285 0.22195 0.16514 0.0
C999 C 0.47743 0.24877 0.17037 0.0
C1000 C 0.47475 0.22408 0.15607 0.0
C1001 C 0.46982 0.27969 0.13751 0.0
H1002 H 0.51598 0.2104 0.12521 0.0
C1003 C 0.47784 0.27462 0.09971 0.0
C1004 C 0.46234 0.24682 0.09644 0.0
C1005 C 0.48704 0.27692 0.10857 0.0
C1006 C 0.50317 0.23 0.12855 0.0
H1007 H 0.48673 0.29912 0.17013 0.0
H1008 H 0.49039 0.3028 0.15424 0.0
H1009 H 0.51567 0.21103 0.1411 0.0
H1010 H 0.44623 0.19924 0.09964 0.0
H1011 H 0.46335 0.20279 0.11493 0.0
H1012 H 0.45696 0.29834 0.12489 0.0
C1013 C 0.48502 0.28011 0.15717 0.0
C1014 C 0.50271 0.23027 0.13766 0.0
C1015 C 0.48294 0.278 0.16629 0.0
C1016 C 0.45843 0.22083 0.102 0.0
C1017 C 0.46825 0.22289 0.11075 0.0
C1018 C 0.47051 0.27951 0.12837 0.0
C1019 C 0.48155 0.25305 0.15195 0.0
C1020 C 0.48511 0.25464 0.14227 0.0
C1021 C 0.48156 0.25123 0.11421 0.0
C1022 C 0.48635 0.25422 0.1238 0.0
H1023 H 0.46826 0.1991 0.16806 0.0
H1024 H 0.47094 0.20287 0.15227 0.0
H1025 H 0.4559 0.29877 0.14083 0.0
H1026 H 0.48054 0.29512 0.09557 0.0
H1027 H 0.49737 0.29901 0.11107 0.0
C1028 C 0.77917 0.91908 0.34837 0.0
C1029 C 0.75311 0.89925 0.34446 0.0
C1030 C 0.78186 0.92116 0.35746 0.0
C1031 C 0.73091 0.90357 0.37801 0.0
H1032 H 0.82742 0.90676 0.3884 0.0
C1033 C 0.75165 0.91351 0.41543 0.0
C1034 C 0.77988 0.89521 0.41906 0.0
C1035 C 0.74821 0.9165 0.40636 0.0
C1036 C 0.80023 0.9057 0.38562 0.0
H1037 H 0.70882 0.86666 0.3472 0.0
H1038 H 0.71423 0.86957 0.36294 0.0
H1039 H 0.82148 0.90679 0.37261 0.0
H1040 H 0.82712 0.8663 0.41587 0.0
H1041 H 0.82051 0.87074 0.4002 0.0
H1042 H 0.70975 0.9013 0.39103 0.0
C1043 C 0.73234 0.88387 0.35899 0.0
C1044 C 0.7968 0.90614 0.37654 0.0
C1045 C 0.7296 0.88184 0.34992 0.0
C1046 C 0.80469 0.88022 0.41337 0.0
C1047 C 0.80123 0.88316 0.40434 0.0
C1048 C 0.73435 0.90305 0.38709 0.0
C1049 C 0.75858 0.90346 0.3629 0.0
C1050 C 0.76211 0.90474 0.3726 0.0
C1051 C 0.77294 0.9013 0.4007 0.0
C1052 C 0.76909 0.90373 0.39103 0.0
H1053 H 0.79793 0.9327 0.34442 0.0
H1054 H 0.80214 0.93678 0.36023 0.0
H1055 H 0.70371 0.90294 0.37522 0.0
H1056 H 0.73187 0.92525 0.41957 0.0
H1057 H 0.72628 0.93092 0.4038 0.0
C1058 C 0.12554 0.24943 0.66228 0.0
C1059 C 0.1364 0.2757 0.6672 0.0
C1060 C 0.13033 0.24897 0.65322 0.0
C1061 C 0.14008 0.30367 0.63461 0.0
H1062 H 0.16019 0.22743 0.62159 0.0
C1063 C 0.14722 0.30305 0.59688 0.0
C1064 C 0.12791 0.2786 0.59279 0.0
C1065 C 0.15376 0.30221 0.60588 0.0
C1066 C 0.15441 0.24891 0.62513 0.0
H1067 H 0.16269 0.32134 0.66648 0.0
H1068 H 0.17166 0.32025 0.65074 0.0
H1069 H 0.1622 0.22649 0.6375 0.0
H1070 H 0.10145 0.23357 0.59493 0.0
H1071 H 0.11271 0.2322 0.61054 0.0
H1072 H 0.13174 0.32597 0.62227 0.0
C1073 C 0.15864 0.3003 0.65384 0.0
C1074 C 0.15551 0.24836 0.63426 0.0
C1075 C 0.15374 0.30082 0.66289 0.0
C1076 C 0.11635 0.25286 0.59786 0.0
C1077 C 0.12304 0.25195 0.60682 0.0
C1078 C 0.13908 0.30423 0.6255 0.0
C1079 C 0.14623 0.27471 0.64885 0.0
C1080 C 0.14787 0.27564 0.63913 0.0
C1081 C 0.14136 0.2768 0.61098 0.0
C1082 C 0.1457 0.27676 0.62064 0.0
H1083 H 0.11199 0.22972 0.66538 0.0
H1084 H 0.12012 0.22896 0.6496 0.0
H1085 H 0.13344 0.32503 0.63813 0.0
H1086 H 0.15654 0.3232 0.59318 0.0
H1087 H 0.1683 0.32158 0.60887 0.0
C1088 C 0.29568 0.19122 0.27724 0.0
C1089 C 0.2958 0.16002 0.28025 0.0
C1090 C 0.31061 0.19879 0.26911 0.0
C1091 C 0.32932 0.16611 0.24756 0.0
H1092 H 0.39618 0.23628 0.24508 0.0
C1093 C 0.4033 0.19379 0.21493 0.0
C1094 C 0.41222 0.22519 0.21304 0.0
C1095 C 0.38775 0.1857 0.22298 0.0
C1096 C 0.377 0.21697 0.24559 0.0
H1097 H 0.31166 0.11227 0.2771 0.0
H1098 H 0.33736 0.12544 0.26275 0.0
H1099 H 0.37289 0.22233 0.25946 0.0
H1100 H 0.41006 0.27294 0.21794 0.0
H1101 H 0.3814 0.25917 0.23177 0.0
H1102 H 0.3324 0.1612 0.23369 0.0
C1103 C 0.32586 0.14402 0.26675 0.0
C1104 C 0.3639 0.20885 0.25387 0.0
C1105 C 0.31148 0.13653 0.27497 0.0
C1106 C 0.40372 0.2485 0.21922 0.0
C1107 C 0.38764 0.24049 0.2272 0.0
C1108 C 0.34197 0.17452 0.23925 0.0
C1109 C 0.32546 0.17524 0.26372 0.0
C1110 C 0.33997 0.18332 0.25494 0.0
C1111 C 0.38024 0.20888 0.2293 0.0
C1112 C 0.36604 0.2001 0.23814 0.0
H1113 H 0.28398 0.20979 0.2812 0.0
H1114 H 0.30977 0.22301 0.26693 0.0
H1115 H 0.31053 0.14655 0.24819 0.0
H1116 H 0.40985 0.17521 0.21035 0.0
H1117 H 0.38296 0.16108 0.22434 0.0
C1118 C 0.79668 0.88365 0.49001 0.0
C1119 C 0.79449 0.85936 0.48381 0.0
C1120 C 0.8064 0.87712 0.49865 0.0
C1121 C 0.85414 0.81852 0.51222 0.0
H1122 H 0.79964 0.85606 0.53131 0.0
C1123 C 0.87979 0.78122 0.54783 0.0
C1124 C 0.87965 0.8049 0.55423 0.0
C1125 C 0.86771 0.78756 0.53936 0.0
C1126 C 0.81547 0.84565 0.52607 0.0
H1127 H 0.80154 0.80927 0.48181 0.0
H1128 H 0.81844 0.79789 0.49685 0.0
H1129 H 0.78297 0.86835 0.5163 0.0
H1130 H 0.86605 0.85372 0.55675 0.0
H1131 H 0.84569 0.86492 0.54198 0.0
H1132 H 0.88705 0.79621 0.52192 0.0
C1133 C 0.81263 0.82199 0.49504 0.0
C1134 C 0.80585 0.85269 0.51746 0.0
C1135 C 0.8026 0.82847 0.48644 0.0
C1136 C 0.86635 0.83486 0.55201 0.0
C1137 C 0.85452 0.84127 0.54352 0.0
C1138 C 0.86392 0.81165 0.52082 0.0
C1139 C 0.81454 0.8462 0.50126 0.0
C1140 C 0.82501 0.83913 0.51043 0.0
C1141 C 0.85545 0.8178 0.53704 0.0
C1142 C 0.84467 0.82502 0.52787 0.0
H1143 H 0.79031 0.90764 0.48822 0.0
H1144 H 0.80791 0.89634 0.50327 0.0
H1145 H 0.8698 0.80804 0.50696 0.0
H1146 H 0.88965 0.75782 0.54933 0.0
H1147 H 0.86813 0.76869 0.53462 0.0
C1148 C 0.1664 0.25172 0.72023 0.0
C1149 C 0.15131 0.27246 0.71408 0.0
C1150 C 0.17953 0.26291 0.72821 0.0
C1151 C 0.2093 0.33495 0.73987 0.0
H1152 H 0.18481 0.28619 0.76043 0.0
C1153 C 0.23628 0.38008 0.77503 0.0
C1154 C 0.25016 0.35806 0.78102 0.0
C1155 C 0.22397 0.37044 0.76681 0.0
C1156 C 0.19224 0.29995 0.75475 0.0
H1157 H 0.13923 0.32147 0.7114 0.0
H1158 H 0.162 0.34096 0.72533 0.0
H1159 H 0.16541 0.26792 0.74613 0.0
H1160 H 0.26105 0.30847 0.78306 0.0
H1161 H 0.24029 0.29182 0.76876 0.0
H1162 H 0.23618 0.367 0.74853 0.0
C1163 C 0.16391 0.31603 0.72397 0.0
C1164 C 0.18115 0.28943 0.74654 0.0
C1165 C 0.15075 0.30482 0.71598 0.0
C1166 C 0.25101 0.32617 0.7786 0.0
C1167 C 0.23866 0.31654 0.77042 0.0
C1168 C 0.22044 0.34549 0.7481 0.0
C1169 C 0.17791 0.29514 0.73024 0.0
C1170 C 0.18971 0.30667 0.73898 0.0
C1171 C 0.22505 0.33852 0.7644 0.0
C1172 C 0.21224 0.32801 0.75564 0.0
H1173 H 0.16744 0.22667 0.71898 0.0
H1174 H 0.19076 0.24622 0.73281 0.0
H1175 H 0.21666 0.34867 0.73418 0.0
H1176 H 0.23547 0.40485 0.77664 0.0
H1177 H 0.21333 0.38797 0.76237 0.0
C1178 C 0.71928 0.64145 0.99036 0.0
C1179 C 0.74576 0.6616 0.98671 0.0
C1180 C 0.70112 0.64955 0.99811 0.0
C1181 C 0.71079 0.70102 1.01753 0.0
H1182 H 0.60732 0.68441 0.02085 0.0
C1183 C 0.62815 0.75436 0.04614 0.0
C1184 C 0.60106 0.73581 0.05015 0.0
C1185 C 0.64627 0.74385 0.03863 0.0
C1186 C 0.63635 0.68884 1.02008 0.0
H1187 H 0.77253 0.70674 0.9882 0.0
H1188 H 0.74093 0.72088 1.00162 0.0
H1189 H 0.63708 0.6692 1.00721 0.0
H1190 H 0.57233 0.69126 0.04946 0.0
H1191 H 0.60423 0.67281 0.0364 0.0
H1192 H 0.71009 0.72079 0.03036 0.0
C1193 C 0.73478 0.69845 0.99863 0.0
C1194 C 0.65342 0.68013 1.01224 0.0
C1195 C 0.7529 0.69035 0.9909 0.0
C1196 C 0.59302 0.7062 0.04654 0.0
C1197 C 0.61111 0.69571 0.03901 0.0
C1198 C 0.69375 0.70972 0.02535 0.0
C1199 C 0.70898 0.67801 1.0024 0.0
C1200 C 0.69082 0.68636 1.01083 0.0
C1201 C 0.63779 0.71451 0.03491 0.0
C1202 C 0.65623 0.70398 0.02671 0.0
H1203 H 0.71333 0.61899 0.98737 0.0
H1204 H 0.68164 0.63311 1.00087 0.0
H1205 H 0.73979 0.70559 1.01676 0.0
H1206 H 0.635 0.77732 0.04871 0.0
H1207 H 0.66632 0.75915 0.03561 0.0
C1208 C 0.43994 0.24433 0.03692 0.0
C1209 C 0.44543 0.26412 0.04414 0.0
C1210 C 0.43002 0.2568 0.02883 0.0
C1211 C 0.42341 0.32879 1.01545 0.0
H1212 H 0.33717 0.2878 1.00614 0.0
C1213 C 0.33809 0.38197 0.98708 0.0
C1214 C 0.32157 0.36106 0.98118 0.0
C1215 C 0.35602 0.37068 0.99451 0.0
C1216 C 0.36163 0.29928 1.00852 0.0
H1217 H 0.44762 0.31285 0.04831 0.0
H1218 H 0.43064 0.3346 0.03414 0.0
H1219 H 0.36591 0.26715 1.01918 0.0
H1220 H 0.31236 0.3119 0.97827 0.0
H1221 H 0.34426 0.29213 0.99103 0.0
H1222 H 0.41928 0.36081 1.00471 0.0
C1223 C 0.43385 0.30939 0.03477 0.0
C1224 C 0.37808 0.28742 1.01603 0.0
C1225 C 0.44361 0.29689 0.0429 0.0
C1226 C 0.32414 0.32863 0.98278 0.0
C1227 C 0.3424 0.31733 0.99013 0.0
C1228 C 0.40714 0.34052 1.00784 0.0
C1229 C 0.42556 0.28938 0.02775 0.0
C1230 C 0.40917 0.30196 1.01959 0.0
C1231 C 0.35821 0.33816 0.99618 0.0
C1232 C 0.37599 0.32588 1.00426 0.0
H1233 H 0.44141 0.21901 0.0376 0.0
H1234 H 0.42453 0.24081 0.0235 0.0
H1235 H 0.44739 0.34045 1.01803 0.0
H1236 H 0.33632 0.4071 0.98605 0.0
H1237 H 0.36738 0.38751 0.99905 0.0
C1238 C 0.74974 0.89151 0.27353 0.0
C1239 C 0.75517 0.86756 0.27971 0.0
C1240 C 0.74059 0.88413 0.2649 0.0
C1241 C 0.69856 0.82203 0.25157 0.0
H1242 H 0.74744 0.86268 0.23214 0.0
C1243 C 0.67003 0.78273 0.21635 0.0
C1244 C 0.66701 0.80621 0.20996 0.0
C1245 C 0.68391 0.78976 0.22462 0.0
C1246 C 0.73318 0.85134 0.23748 0.0
H1247 H 0.75464 0.81711 0.28169 0.0
H1248 H 0.73853 0.80427 0.26668 0.0
H1249 H 0.76417 0.87658 0.24706 0.0
H1250 H 0.67731 0.85538 0.20716 0.0
H1251 H 0.7007 0.86785 0.22161 0.0
H1252 H 0.66689 0.79736 0.2421 0.0
C1253 C 0.74146 0.82875 0.26849 0.0
C1254 C 0.74284 0.8593 0.24604 0.0
C1255 C 0.751 0.8361 0.27708 0.0
C1256 C 0.67955 0.83665 0.21191 0.0
C1257 C 0.69304 0.84379 0.22022 0.0
C1258 C 0.68864 0.81429 0.24304 0.0
C1259 C 0.73618 0.85265 0.26229 0.0
C1260 C 0.72573 0.84464 0.25318 0.0
C1261 C 0.69469 0.82059 0.22676 0.0
C1262 C 0.7059 0.82871 0.23586 0.0
H1263 H 0.75305 0.91594 0.27533 0.0
H1264 H 0.73646 0.90309 0.26029 0.0
H1265 H 0.68444 0.81066 0.25693 0.0
H1266 H 0.66085 0.75898 0.21504 0.0
H1267 H 0.68563 0.77103 0.22938 0.0
C1268 C 0.22866 0.1332 0.48704 0.0
C1269 C 0.25769 0.14969 0.48309 0.0
C1270 C 0.21521 0.14228 0.49524 0.0
C1271 C 0.21365 0.20952 0.51075 0.0
H1272 H 0.187 0.14561 0.52762 0.0
C1273 C 0.13918 0.23974 0.54296 0.0
C1274 C 0.14809 0.22259 0.5505 0.0
C1275 C 0.15358 0.23123 0.53484 0.0
C1276 C 0.19467 0.16378 0.52302 0.0
H1277 H 0.29449 0.18931 0.48463 0.0
H1278 H 0.2718 0.20456 0.49891 0.0
H1279 H 0.2095 0.12999 0.51327 0.0
H1280 H 0.17998 0.18341 0.55541 0.0
H1281 H 0.20571 0.16891 0.54124 0.0
H1282 H 0.1997 0.24331 0.52055 0.0
C1283 C 0.25911 0.18477 0.49567 0.0
C1284 C 0.20708 0.15481 0.51474 0.0
C1285 C 0.27248 0.17575 0.48749 0.0
C1286 C 0.17248 0.19712 0.54974 0.0
C1287 C 0.18699 0.18864 0.5416 0.0
C1288 C 0.20134 0.21848 0.51903 0.0
C1289 C 0.23041 0.1681 0.49968 0.0
C1290 C 0.21671 0.17757 0.50848 0.0
C1291 C 0.17743 0.2054 0.53402 0.0
C1292 C 0.19158 0.19576 0.52528 0.0
H1293 H 0.21673 0.11289 0.4839 0.0
H1294 H 0.19277 0.12911 0.49807 0.0
H1295 H 0.22042 0.22774 0.50608 0.0
H1296 H 0.12035 0.25941 0.54328 0.0
H1297 H 0.14517 0.24446 0.52916 0.0
C1298 C 0.8798 0.74023 0.72168 0.0
C1299 C 0.88338 0.71777 0.715 0.0
C1300 C 0.86517 0.73188 0.7298 0.0
C1301 C 0.85551 0.66484 0.74445 0.0
H1302 H 0.78407 0.71696 0.75639 0.0
C1303 C 0.79558 0.63042 0.77822 0.0
C1304 C 0.78759 0.6548 0.78411 0.0
C1305 C 0.80579 0.63718 0.76961 0.0
C1306 C 0.80443 0.70233 0.75323 0.0
H1307 H 0.87385 0.66899 0.71158 0.0
H1308 H 0.84873 0.65433 0.72582 0.0
H1309 H 0.80365 0.73069 0.74168 0.0
H1310 H 0.78537 0.70534 0.78569 0.0
H1311 H 0.80425 0.71726 0.77083 0.0
H1312 H 0.85742 0.63706 0.75607 0.0
C1313 C 0.85718 0.67842 0.72474 0.0
C1314 C 0.81545 0.71014 0.74476 0.0
C1315 C 0.87129 0.68689 0.71657 0.0
C1316 C 0.79076 0.68605 0.78126 0.0
C1317 C 0.80141 0.69284 0.77271 0.0
C1318 C 0.84487 0.65722 0.75297 0.0
C1319 C 0.85428 0.70078 0.73146 0.0
C1320 C 0.84123 0.69158 0.74029 0.0
C1321 C 0.80872 0.66853 0.76671 0.0
C1322 C 0.81934 0.67599 0.75752 0.0
H1323 H 0.88886 0.76421 0.72069 0.0
H1324 H 0.86349 0.74957 0.73487 0.0
H1325 H 0.87577 0.6503 0.74121 0.0
H1326 H 0.79298 0.60611 0.78021 0.0
H1327 H 0.81066 0.61778 0.76518 0.0
loop_
_geom_bond_atom_site_label_1
_geom_bond_atom_site_label_2
_geom_bond_distance
_geom_bond_site_symmetry_2
_ccdc_geom_bond_type
Cu0 N1 1.999 . S
Cu0 O6 1.974 . S
Cu0 N11 1.985 . S
Cu0 O20 1.959 . S
N1 Cu0 1.999 . S
N1 C3 1.263 . S
N1 C5 1.389 . S
N2 C3 1.358 . S
N2 C4 1.400 . S
C3 N1 1.263 . S
C3 N2 1.358 . S
C3 H9 0.930 . S
C4 N2 1.400 . S
C4 C5 1.351 . S
C4 H21 0.930 . S
C5 N1 1.389 . S
C5 C4 1.351 . S
C5 H10 0.930 . S
O6 Cu0 1.974 . S
O6 C16 1.282 . S
C7 O8 1.261 . S
C7 O20 1.251 . S
O8 C7 1.261 . S
H9 C3 0.930 . S
H10 C5 0.930 . S
N11 Cu0 1.985 . S
N11 C13 1.335 . S
N11 C14 1.390 . S
N12 C13 1.345 . S
N12 C15 1.336 . S
C13 N11 1.335 . S
C13 N12 1.345 . S
C13 H18 0.930 . S
C14 N11 1.390 . S
C14 C15 1.346 . S
C14 H19 0.930 . S
C15 N12 1.336 . S
C15 C14 1.346 . S
C15 H22 0.929 . S
C16 O6 1.282 . S
C16 O17 1.216 . S
O17 C16 1.216 . S
H18 C13 0.930 . S
H19 C14 0.930 . S
O20 Cu0 1.959 . S
O20 C7 1.251 . S
H21 C4 0.930 . S
H22 C15 0.929 . S
Cu23 N24 1.999 . S
Cu23 O29 1.974 . S
Cu23 N34 1.985 . S
Cu23 O43 1.959 . S
N24 Cu23 1.999 . S
N24 C26 1.263 . S
N24 C28 1.389 . S
N25 C26 1.358 . S
N25 C27 1.400 . S
C26 N24 1.263 . S
C26 N25 1.358 . S
C26 H32 0.930 . S
C27 N25 1.400 . S
C27 C28 1.351 . S
C27 H44 0.947 . S
C28 N24 1.389 . S
C28 C27 1.351 . S
C28 H33 0.930 1_655 S
O29 Cu23 1.974 . S
O29 C39 1.282 . S
C30 O31 1.261 . S
C30 O43 1.251 . S
O31 C30 1.261 . S
H32 C26 0.930 . S
H33 C28 0.930 1_455 S
N34 Cu23 1.985 . S
N34 C36 1.335 . S
N34 C37 1.390 . S
N35 C36 1.345 . S
N35 C38 1.336 . S
C36 N34 1.335 . S
C36 N35 1.345 . S
C36 H41 0.930 . S
C37 N34 1.390 . S
C37 C38 1.346 . S
C37 H42 0.930 . S
C38 N35 1.336 . S
C38 C37 1.346 . S
C38 H45 0.929 . S
C39 O29 1.282 . S
C39 O40 1.216 . S
O40 C39 1.216 . S
H41 C36 0.930 . S
H42 C37 0.930 . S
O43 Cu23 1.959 . S
O43 C30 1.251 . S
H44 C27 0.947 . S
H45 C38 0.929 . S
Cu46 N47 1.999 . S
Cu46 O52 1.974 . S
Cu46 N57 1.985 . S
Cu46 O66 1.959 . S
N47 Cu46 1.999 . S
N47 C49 1.263 . S
N47 C51 1.389 . S
N48 C49 1.358 . S
N48 C50 1.400 . S
C49 N47 1.263 . S
C49 N48 1.358 . S
C49 H55 0.930 . S
C50 N48 1.400 . S
C50 C51 1.351 . S
C50 H67 0.930 . S
C51 N47 1.389 . S
C51 C50 1.351 . S
C51 H56 0.930 . S
O52 Cu46 1.974 . S
O52 C62 1.282 . S
C53 O54 1.261 . S
C53 O66 1.251 . S
O54 C53 1.261 . S
H55 C49 0.930 . S
H56 C51 0.930 . S
N57 Cu46 1.985 . S
N57 C59 1.335 . S
N57 C60 1.390 . S
N58 C59 1.345 . S
N58 C61 1.336 . S
C59 N57 1.335 . S
C59 N58 1.345 . S
C59 H64 0.930 . S
C60 N57 1.390 . S
C60 C61 1.346 . S
C60 H65 0.930 . S
C61 N58 1.336 . S
C61 C60 1.346 . S
C61 H68 0.929 . S
C62 O52 1.282 . S
C62 O63 1.216 . S
O63 C62 1.216 . S
H64 C59 0.930 . S
H65 C60 0.930 . S
O66 Cu46 1.959 . S
O66 C53 1.251 . S
H67 C50 0.930 . S
H68 C61 0.929 . S
Cu69 N70 1.999 . S
Cu69 O75 1.974 . S
Cu69 N80 1.985 . S
Cu69 O89 1.959 . S
N70 Cu69 1.999 . S
N70 C72 1.263 . S
N70 C74 1.389 . S
N71 C72 1.358 . S
N71 C73 1.400 . S
C72 N70 1.263 . S
C72 N71 1.358 . S
C72 H78 0.930 . S
C73 N71 1.400 . S
C73 C74 1.351 . S
C73 H90 0.930 . S
C74 N70 1.389 . S
C74 C73 1.351 . S
C74 H79 0.930 . S
O75 Cu69 1.974 . S
O75 C85 1.282 . S
C76 O77 1.261 . S
C76 O89 1.251 . S
O77 C76 1.261 . S
H78 C72 0.930 . S
H79 C74 0.930 . S
N80 Cu69 1.985 . S
N80 C82 1.335 . S
N80 C83 1.390 . S
N81 C82 1.345 . S
N81 C84 1.336 . S
C82 N80 1.335 . S
C82 N81 1.345 . S
C82 H87 0.930 . S
C83 N80 1.390 . S
C83 C84 1.346 . S
C83 H88 0.930 . S
C84 N81 1.336 . S
C84 C83 1.346 . S
C84 H91 0.929 . S
C85 O75 1.282 . S
C85 O86 1.216 . S
O86 C85 1.216 . S
H87 C82 0.930 . S
H88 C83 0.930 . S
O89 Cu69 1.959 . S
O89 C76 1.251 . S
H90 C73 0.930 . S
H91 C84 0.929 . S
Cu92 N93 1.999 . S
Cu92 O98 1.974 . S
Cu92 N103 1.985 . S
Cu92 O112 1.959 . S
N93 Cu92 1.999 . S
N93 C95 1.263 . S
N93 C97 1.389 . S
N94 C95 1.358 . S
N94 C96 1.400 . S
C95 N93 1.263 . S
C95 N94 1.358 . S
C95 H101 0.930 . S
C96 N94 1.400 . S
C96 C97 1.351 . S
C96 H113 0.930 . S
C97 N93 1.389 . S
C97 C96 1.351 . S
C97 H102 0.930 . S
O98 Cu92 1.974 . S
O98 C108 1.282 . S
C99 O100 1.261 . S
C99 O112 1.251 . S
O100 C99 1.261 . S
H101 C95 0.930 . S
H102 C97 0.930 . S
N103 Cu92 1.985 . S
N103 C105 1.335 . S
N103 C106 1.390 . S
N104 C105 1.345 . S
N104 C107 1.336 . S
C105 N103 1.335 . S
C105 N104 1.345 . S
C105 H110 0.930 . S
C106 N103 1.390 . S
C106 C107 1.346 . S
C106 H111 0.930 . S
C107 N104 1.336 . S
C107 C106 1.346 . S
C107 H114 0.929 . S
C108 O98 1.282 . S
C108 O109 1.216 . S
O109 C108 1.216 . S
H110 C105 0.930 . S
H111 C106 0.930 . S
O112 Cu92 1.959 . S
O112 C99 1.251 . S
H113 C96 0.930 . S
H114 C107 0.929 . S
Cu115 N116 1.999 . S
Cu115 O121 1.974 . S
Cu115 N126 1.985 . S
Cu115 O135 1.959 . S
N116 Cu115 1.999 . S
N116 C118 1.263 . S
N116 C120 1.389 . S
N117 C118 1.358 . S
N117 C119 1.400 . S
C118 N116 1.263 . S
C118 N117 1.358 . S
C118 H124 0.930 . S
C119 N117 1.400 . S
C119 C120 1.351 . S
C119 H136 0.930 . S
C120 N116 1.389 . S
C120 C119 1.351 . S
C120 H125 0.930 . S
O121 Cu115 1.974 . S
O121 C131 1.282 . S
C122 O123 1.261 . S
C122 O135 1.251 . S
O123 C122 1.261 . S
H124 C118 0.930 . S
H125 C120 0.930 . S
N126 Cu115 1.985 . S
N126 C128 1.335 . S
N126 C129 1.390 . S
N127 C128 1.345 . S
N127 C130 1.336 . S
C128 N126 1.335 . S
C128 N127 1.345 . S
C128 H133 0.930 . S
C129 N126 1.390 . S
C129 C130 1.346 . S
C129 H134 0.930 . S
C130 N127 1.336 . S
C130 C129 1.346 . S
C130 H137 0.929 . S
C131 O121 1.282 . S
C131 O132 1.216 . S
O132 C131 1.216 . S
H133 C128 0.930 . S
H134 C129 0.930 . S
O135 Cu115 1.959 . S
O135 C122 1.251 . S
H136 C119 0.930 . S
H137 C130 0.929 . S
Cu138 N139 1.999 . S
Cu138 O144 1.974 . S
Cu138 N149 1.985 . S
Cu138 O158 1.959 . S
N139 Cu138 1.999 . S
N139 C141 1.263 . S
N139 C143 1.389 . S
N140 C141 1.358 . S
N140 C142 1.400 . S
C141 N139 1.263 . S
C141 N140 1.358 . S
C141 H147 0.930 . S
C142 N140 1.400 . S
C142 C143 1.351 . S
C142 H159 0.930 . S
C143 N139 1.389 . S
C143 C142 1.351 . S
C143 H148 0.930 . S
O144 Cu138 1.974 . S
O144 C154 1.282 . S
C145 O146 1.261 . S
C145 O158 1.251 . S
O146 C145 1.261 . S
H147 C141 0.930 . S
H148 C143 0.930 . S
N149 Cu138 1.985 . S
N149 C151 1.335 . S
N149 C152 1.390 . S
N150 C151 1.345 . S
N150 C153 1.336 . S
C151 N149 1.335 . S
C151 N150 1.345 . S
C151 H156 0.930 . S
C152 N149 1.390 . S
C152 C153 1.346 . S
C152 H157 0.930 . S
C153 N150 1.336 . S
C153 C152 1.346 . S
C153 H160 0.929 . S
C154 O144 1.282 . S
C154 O155 1.216 . S
O155 C154 1.216 . S
H156 C151 0.930 . S
H157 C152 0.930 . S
O158 Cu138 1.959 . S
O158 C145 1.251 . S
H159 C142 0.930 . S
H160 C153 0.929 . S
Cu161 N162 1.999 . S
Cu161 O167 1.974 . S
Cu161 N172 1.985 . S
Cu161 O181 1.959 . S
N162 Cu161 1.999 . S
N162 C164 1.263 . S
N162 C166 1.389 . S
N163 C164 1.358 . S
N163 C165 1.400 . S
C164 N162 1.263 . S
C164 N163 1.358 . S
C164 H170 0.930 . S
C165 N163 1.400 . S
C165 C166 1.351 . S
C165 H182 0.947 . S
C166 N162 1.389 . S
C166 C165 1.351 . S
C166 H171 0.930 1_655 S
O167 Cu161 1.974 . S
O167 C177 1.282 . S
C168 O169 1.261 . S
C168 O181 1.251 . S
O169 C168 1.261 . S
H170 C164 0.930 . S
H171 C166 0.930 1_455 S
N172 Cu161 1.985 . S
N172 C174 1.335 . S
N172 C175 1.390 . S
N173 C174 1.345 . S
N173 C176 1.336 . S
C174 N172 1.335 . S
C174 N173 1.345 . S
C174 H179 0.930 . S
C175 N172 1.390 . S
C175 C176 1.346 . S
C175 H180 0.930 . S
C176 N173 1.336 . S
C176 C175 1.346 . S
C176 H183 0.929 . S
C177 O167 1.282 . S
C177 O178 1.216 . S
O178 C177 1.216 . S
H179 C174 0.930 . S
H180 C175 0.930 . S
O181 Cu161 1.959 . S
O181 C168 1.251 . S
H182 C165 0.947 . S
H183 C176 0.929 . S
Cu184 N185 1.999 . S
Cu184 O190 1.974 . S
Cu184 N195 1.985 . S
Cu184 O204 1.959 . S
N185 Cu184 1.999 . S
N185 C187 1.263 . S
N185 C189 1.389 . S
N186 C187 1.358 . S
N186 C188 1.400 . S
C187 N185 1.263 . S
C187 N186 1.358 . S
C187 H193 0.930 . S
C188 N186 1.400 . S
C188 C189 1.351 . S
C188 H205 0.930 . S
C189 N185 1.389 . S
C189 C188 1.351 . S
C189 H194 0.930 . S
O190 Cu184 1.974 . S
O190 C200 1.282 . S
C191 O192 1.261 . S
C191 O204 1.251 . S
O192 C191 1.261 . S
H193 C187 0.930 . S
H194 C189 0.930 . S
N195 Cu184 1.985 . S
N195 C197 1.335 . S
N195 C198 1.390 . S
N196 C197 1.345 . S
N196 C199 1.336 . S
C197 N195 1.335 . S
C197 N196 1.345 . S
C197 H202 0.930 . S
C198 N195 1.390 . S
C198 C199 1.346 . S
C198 H203 0.930 . S
C199 N196 1.336 . S
C199 C198 1.346 . S
C199 H206 0.929 . S
C200 O190 1.282 . S
C200 O201 1.216 . S
O201 C200 1.216 . S
H202 C197 0.930 . S
H203 C198 0.930 . S
O204 Cu184 1.959 . S
O204 C191 1.251 . S
H205 C188 0.930 . S
H206 C199 0.929 . S
Cu207 N208 1.999 . S
Cu207 O213 1.974 . S
Cu207 N218 1.985 . S
Cu207 O227 1.959 . S
N208 Cu207 1.999 . S
N208 C210 1.263 . S
N208 C212 1.389 . S
N209 C210 1.358 . S
N209 C211 1.400 . S
C210 N208 1.263 . S
C210 N209 1.358 . S
C210 H216 0.930 . S
C211 N209 1.400 . S
C211 C212 1.351 . S
C211 H228 0.930 . S
C212 N208 1.389 . S
C212 C211 1.351 . S
C212 H217 0.930 . S
O213 Cu207 1.974 . S
O213 C223 1.282 . S
C214 O215 1.261 . S
C214 O227 1.251 . S
O215 C214 1.261 . S
H216 C210 0.930 . S
H217 C212 0.930 . S
N218 Cu207 1.985 . S
N218 C220 1.335 . S
N218 C221 1.390 . S
N219 C220 1.345 . S
N219 C222 1.336 . S
C220 N218 1.335 . S
C220 N219 1.345 . S
C220 H225 0.930 . S
C221 N218 1.390 . S
C221 C222 1.346 . S
C221 H226 0.930 . S
C222 N219 1.336 . S
C222 C221 1.346 . S
C222 H229 0.929 . S
C223 O213 1.282 . S
C223 O224 1.216 . S
O224 C223 1.216 . S
H225 C220 0.930 . S
H226 C221 0.930 . S
O227 Cu207 1.959 . S
O227 C214 1.251 . S
H228 C211 0.930 . S
H229 C222 0.929 . S
Cu230 N231 1.999 . S
Cu230 O236 1.974 . S
Cu230 N241 1.985 . S
Cu230 O250 1.959 . S
N231 Cu230 1.999 . S
N231 C233 1.263 . S
N231 C235 1.389 . S
N232 C233 1.358 . S
N232 C234 1.400 . S
C233 N231 1.263 . S
C233 N232 1.358 . S
C233 H239 0.930 . S
C234 N232 1.400 . S
C234 C235 1.351 . S
C234 H251 0.930 . S
C235 N231 1.389 . S
C235 C234 1.351 . S
C235 H240 0.930 . S
O236 Cu230 1.974 . S
O236 C246 1.282 . S
C237 O238 1.261 . S
C237 O250 1.251 . S
O238 C237 1.261 . S
H239 C233 0.930 . S
H240 C235 0.930 . S
N241 Cu230 1.985 . S
N241 C243 1.335 . S
N241 C244 1.390 . S
N242 C243 1.345 . S
N242 C245 1.336 . S
C243 N241 1.335 . S
C243 N242 1.345 . S
C243 H248 0.930 . S
C244 N241 1.390 . S
C244 C245 1.346 . S
C244 H249 0.930 . S
C245 N242 1.336 . S
C245 C244 1.346 . S
C245 H252 0.929 . S
C246 O236 1.282 . S
C246 O247 1.216 . S
O247 C246 1.216 . S
H248 C243 0.930 . S
H249 C244 0.930 . S
O250 Cu230 1.959 . S
O250 C237 1.251 . S
H251 C234 0.930 . S
H252 C245 0.929 . S
Cu253 N254 1.999 . S
Cu253 O259 1.974 . S
Cu253 N264 1.985 . S
Cu253 O273 1.959 . S
N254 Cu253 1.999 . S
N254 C256 1.263 . S
N254 C258 1.389 . S
N255 C256 1.358 . S
N255 C257 1.400 . S
C256 N254 1.263 . S
C256 N255 1.358 . S
C256 H262 0.930 . S
C257 N255 1.400 . S
C257 C258 1.351 . S
C257 H274 0.941 . S
C258 N254 1.389 . S
C258 C257 1.351 . S
C258 H263 0.930 1_455 S
O259 Cu253 1.974 . S
O259 C269 1.282 . S
C260 O261 1.261 . S
C260 O273 1.251 . S
O261 C260 1.261 . S
H262 C256 0.930 . S
H263 C258 0.930 1_655 S
N264 Cu253 1.985 . S
N264 C266 1.335 . S
N264 C267 1.390 . S
N265 C266 1.345 . S
N265 C268 1.336 . S
C266 N264 1.335 . S
C266 N265 1.345 . S
C266 H271 0.930 . S
C267 N264 1.390 . S
C267 C268 1.346 . S
C267 H272 0.930 . S
C268 N265 1.336 . S
C268 C267 1.346 . S
C268 H275 0.929 . S
C269 O259 1.282 . S
C269 O270 1.216 . S
O270 C269 1.216 . S
H271 C266 0.930 . S
H272 C267 0.930 . S
O273 Cu253 1.959 . S
O273 C260 1.251 . S
H274 C257 0.941 . S
H275 C268 0.929 . S
Cu276 N277 1.999 . S
Cu276 O282 1.974 . S
Cu276 N287 1.985 . S
Cu276 O296 1.959 . S
N277 Cu276 1.999 . S
N277 C279 1.263 . S
N277 C281 1.389 . S
N278 C279 1.358 . S
N278 C280 1.400 . S
C279 N277 1.263 . S
C279 N278 1.358 . S
C279 H285 0.930 . S
C280 N278 1.400 . S
C280 C281 1.351 . S
C280 H297 0.930 . S
C281 N277 1.389 . S
C281 C280 1.351 . S
C281 H286 0.930 . S
O282 Cu276 1.974 . S
O282 C292 1.282 . S
C283 O284 1.261 . S
C283 O296 1.251 . S
O284 C283 1.261 . S
H285 C279 0.930 . S
H286 C281 0.930 . S
N287 Cu276 1.985 . S
N287 C289 1.335 . S
N287 C290 1.390 . S
N288 C289 1.345 . S
N288 C291 1.336 . S
C289 N287 1.335 . S
C289 N288 1.345 . S
C289 H294 0.930 . S
C290 N287 1.390 . S
C290 C291 1.346 . S
C290 H295 0.930 . S
C291 N288 1.336 . S
C291 C290 1.346 . S
C291 H298 0.929 . S
C292 O282 1.282 . S
C292 O293 1.216 . S
O293 C292 1.216 . S
H294 C289 0.930 . S
H295 C290 0.930 . S
O296 Cu276 1.959 . S
O296 C283 1.251 . S
H297 C280 0.930 . S
H298 C291 0.929 . S
Cu299 N300 1.999 . S
Cu299 O305 1.974 . S
Cu299 N310 1.985 . S
Cu299 O319 1.959 . S
N300 Cu299 1.999 . S
N300 C302 1.263 . S
N300 C304 1.389 . S
N301 C302 1.358 . S
N301 C303 1.400 . S
C302 N300 1.263 . S
C302 N301 1.358 . S
C302 H308 0.930 . S
C303 N301 1.400 . S
C303 C304 1.351 . S
C303 H320 0.940 . S
C304 N300 1.389 . S
C304 C303 1.351 . S
C304 H309 0.930 1_455 S
O305 Cu299 1.974 . S
O305 C315 1.282 . S
C306 O307 1.261 . S
C306 O319 1.251 . S
O307 C306 1.261 . S
H308 C302 0.930 . S
H309 C304 0.930 1_655 S
N310 Cu299 1.985 . S
N310 C312 1.335 . S
N310 C313 1.390 . S
N311 C312 1.345 . S
N311 C314 1.336 . S
C312 N310 1.335 . S
C312 N311 1.345 . S
C312 H317 0.930 . S
C313 N310 1.390 . S
C313 C314 1.346 . S
C313 H318 0.930 . S
C314 N311 1.336 . S
C314 C313 1.346 . S
C314 H321 0.929 . S
C315 O305 1.282 . S
C315 O316 1.216 . S
O316 C315 1.216 . S
H317 C312 0.930 . S
H318 C313 0.930 . S
O319 Cu299 1.959 . S
O319 C306 1.251 . S
H320 C303 0.940 . S
H321 C314 0.929 . S
Cu322 N323 1.999 . S
Cu322 O328 1.974 . S
Cu322 N333 1.985 . S
Cu322 O342 1.959 . S
N323 Cu322 1.999 . S
N323 C325 1.263 . S
N323 C327 1.389 . S
N324 C325 1.358 . S
N324 C326 1.400 . S
C325 N323 1.263 . S
C325 N324 1.358 . S
C325 H331 0.930 . S
C326 N324 1.400 . S
C326 C327 1.351 . S
C326 H343 0.930 . S
C327 N323 1.389 . S
C327 C326 1.351 . S
C327 H332 0.930 . S
O328 Cu322 1.974 . S
O328 C338 1.282 . S
C329 O330 1.261 . S
C329 O342 1.251 . S
O330 C329 1.261 . S
H331 C325 0.930 . S
H332 C327 0.930 . S
N333 Cu322 1.985 . S
N333 C335 1.335 . S
N333 C336 1.390 . S
N334 C335 1.345 . S
N334 C337 1.336 . S
C335 N333 1.335 . S
C335 N334 1.345 . S
C335 H340 0.930 . S
C336 N333 1.390 . S
C336 C337 1.346 . S
C336 H341 0.930 . S
C337 N334 1.336 . S
C337 C336 1.346 . S
C337 H344 0.929 . S
C338 O328 1.282 . S
C338 O339 1.216 . S
O339 C338 1.216 . S
H340 C335 0.930 . S
H341 C336 0.930 . S
O342 Cu322 1.959 . S
O342 C329 1.251 . S
H343 C326 0.930 . S
H344 C337 0.929 . S
Cu345 N346 1.999 . S
Cu345 O351 1.974 . S
Cu345 N356 1.985 . S
Cu345 O365 1.959 . S
N346 Cu345 1.999 . S
N346 C348 1.263 . S
N346 C350 1.389 . S
N347 C348 1.358 . S
N347 C349 1.400 . S
C348 N346 1.263 . S
C348 N347 1.358 . S
C348 H354 0.930 . S
C349 N347 1.400 . S
C349 C350 1.351 . S
C349 H366 0.930 . S
C350 N346 1.389 . S
C350 C349 1.351 . S
C350 H355 0.930 . S
O351 Cu345 1.974 . S
O351 C361 1.282 . S
C352 O353 1.261 . S
C352 O365 1.251 . S
O353 C352 1.261 . S
H354 C348 0.930 . S
H355 C350 0.930 . S
N356 Cu345 1.985 . S
N356 C358 1.335 . S
N356 C359 1.390 . S
N357 C358 1.345 . S
N357 C360 1.336 . S
C358 N356 1.335 . S
C358 N357 1.345 . S
C358 H363 0.930 . S
C359 N356 1.390 . S
C359 C360 1.346 . S
C359 H364 0.930 . S
C360 N357 1.336 . S
C360 C359 1.346 . S
C360 H367 0.929 . S
C361 O351 1.282 . S
C361 O362 1.216 . S
O362 C361 1.216 . S
H363 C358 0.930 . S
H364 C359 0.930 . S
O365 Cu345 1.959 . S
O365 C352 1.251 . S
H366 C349 0.930 . S
H367 C360 0.929 . S
C368 C369 1.349 . S
C368 C370 1.327 . S
C368 H393 0.950 . S
C369 C368 1.349 . S
C369 C385 1.349 . S
C370 C368 1.327 . S
C370 C389 1.429 . S
C370 H394 0.950 . S
C371 C388 1.574 1_655 S
C371 C390 1.368 1_545 S
C371 H395 0.949 . S
H372 C376 0.949 . S
C373 C374 1.349 . S
C373 C375 1.327 . S
C373 H396 0.950 . S
C374 C373 1.349 . S
C374 C386 1.349 . S
C375 C373 1.327 . S
C375 C391 1.429 . S
C375 H397 0.950 . S
C376 H372 0.949 . S
C376 C384 1.574 1_455 S
C376 C392 1.368 1_565 S
H377 C385 0.950 . S
H378 C383 0.950 . S
H379 C384 0.949 . S
H380 C386 0.950 . S
H381 C387 0.949 . S
H382 C388 0.949 . S
C383 H378 0.950 . S
C383 C385 1.327 . S
C383 C389 1.429 . S
C384 C376 1.574 1_655 S
C384 H379 0.949 . S
C384 C390 1.368 . S
C385 C369 1.349 . S
C385 H377 0.950 . S
C385 C383 1.327 . S
C386 C374 1.349 . S
C386 H380 0.950 . S
C386 C387 1.327 . S
C387 H381 0.949 . S
C387 C386 1.327 . S
C387 C391 1.429 . S
C388 C371 1.574 1_455 S
C388 H382 0.949 . S
C388 C392 1.368 . S
C389 C370 1.429 . S
C389 C383 1.429 . S
C389 C390 1.523 . S
C390 C371 1.368 1_565 S
C390 C384 1.368 . S
C390 C389 1.523 . S
C391 C375 1.429 . S
C391 C387 1.429 . S
C391 C392 1.523 . S
C392 C376 1.368 1_545 S
C392 C388 1.368 . S
C392 C391 1.523 . S
H393 C368 0.950 . S
H394 C370 0.950 . S
H395 C371 0.949 . S
H396 C373 0.950 . S
H397 C375 0.950 . S
C398 C399 1.349 . S
C398 C400 1.327 . S
C398 H423 0.950 . S
C399 C398 1.349 . S
C399 C415 1.349 . S
C400 C398 1.327 . S
C400 C419 1.429 . S
C400 H424 0.950 1_655 S
C401 C418 1.574 . S
C401 C420 1.368 . S
C401 H425 0.949 . S
H402 C406 0.949 . S
C403 C404 1.349 . S
C403 C405 1.327 . S
C403 H426 0.950 . S
C404 C403 1.349 . S
C404 C416 1.349 . S
C405 C403 1.327 . S
C405 C421 1.429 . S
C405 H427 0.950 1_455 S
C406 H402 0.949 . S
C406 C414 1.574 . S
C406 C422 1.368 . S
H407 C415 0.950 . S
H408 C413 0.950 . S
H409 C414 0.949 . S
H410 C416 0.950 . S
H411 C417 0.950 . S
H412 C418 0.949 . S
C413 H408 0.950 . S
C413 C415 1.327 . S
C413 C419 1.429 . S
C414 C406 1.574 . S
C414 H409 0.949 . S
C414 C420 1.368 1_455 S
C415 C399 1.349 . S
C415 H407 0.950 . S
C415 C413 1.327 . S
C416 C404 1.349 . S
C416 H410 0.950 . S
C416 C417 1.327 . S
C417 H411 0.950 . S
C417 C416 1.327 . S
C417 C421 1.429 . S
C418 C401 1.574 . S
C418 H412 0.949 . S
C418 C422 1.368 1_655 S
C419 C400 1.429 . S
C419 C413 1.429 . S
C419 C420 1.523 . S
C420 C401 1.368 . S
C420 C414 1.368 1_655 S
C420 C419 1.523 . S
C421 C405 1.429 . S
C421 C417 1.429 . S
C421 C422 1.523 . S
C422 C406 1.368 . S
C422 C418 1.368 1_455 S
C422 C421 1.523 . S
H423 C398 0.950 . S
H424 C400 0.950 1_455 S
H425 C401 0.949 . S
H426 C403 0.950 . S
H427 C405 0.950 1_655 S
C428 C429 1.349 . S
C428 C430 1.327 . S
C428 H453 0.950 . S
C429 C428 1.349 . S
C429 C445 1.349 . S
C430 C428 1.327 . S
C430 C449 1.429 . S
C430 H454 0.950 . S
C431 C448 1.574 . S
C431 C450 1.368 . S
C431 H455 0.949 . S
H432 C436 0.949 . S
C433 C434 1.349 . S
C433 C435 1.327 . S
C433 H456 0.950 . S
C434 C433 1.349 . S
C434 C446 1.349 . S
C435 C433 1.327 . S
C435 C451 1.429 . S
C435 H457 0.950 . S
C436 H432 0.949 . S
C436 C444 1.574 . S
C436 C452 1.368 . S
H437 C445 0.950 . S
H438 C443 0.950 . S
H439 C444 0.949 . S
H440 C446 0.950 . S
H441 C447 0.950 . S
H442 C448 0.949 . S
C443 H438 0.950 . S
C443 C445 1.327 . S
C443 C449 1.429 . S
C444 C436 1.574 . S
C444 H439 0.949 . S
C444 C450 1.368 . S
C445 C429 1.349 . S
C445 H437 0.950 . S
C445 C443 1.327 . S
C446 C434 1.349 . S
C446 H440 0.950 . S
C446 C447 1.327 . S
C447 H441 0.950 . S
C447 C446 1.327 . S
C447 C451 1.429 . S
C448 C431 1.574 . S
C448 H442 0.949 . S
C448 C452 1.368 . S
C449 C430 1.429 . S
C449 C443 1.429 . S
C449 C450 1.523 . S
C450 C431 1.368 . S
C450 C444 1.368 . S
C450 C449 1.523 . S
C451 C435 1.429 . S
C451 C447 1.429 . S
C451 C452 1.523 . S
C452 C436 1.368 . S
C452 C448 1.368 . S
C452 C451 1.523 . S
H453 C428 0.950 . S
H454 C430 0.950 . S
H455 C431 0.949 . S
H456 C433 0.950 . S
H457 C435 0.950 . S
C458 C459 1.349 . S
C458 C460 1.327 . S
C458 H483 0.950 . S
C459 C458 1.349 . S
C459 C475 1.349 . S
C460 C458 1.327 . S
C460 C479 1.429 . S
C460 H484 0.950 . S
C461 C478 1.574 1_545 S
C461 C480 1.368 . S
C461 H485 0.949 . S
H462 C466 0.949 . S
C463 C464 1.349 . S
C463 C465 1.327 . S
C463 H486 0.950 . S
C464 C463 1.349 . S
C464 C476 1.349 . S
C465 C463 1.327 . S
C465 C481 1.429 . S
C465 H487 0.950 . S
C466 H462 0.949 . S
C466 C474 1.574 1_565 S
C466 C482 1.368 . S
H467 C475 0.950 . S
H468 C473 0.950 . S
H469 C474 0.949 . S
H470 C476 0.950 . S
H471 C477 0.950 . S
H472 C478 0.949 . S
C473 H468 0.950 . S
C473 C475 1.327 . S
C473 C479 1.429 . S
C474 C466 1.574 1_545 S
C474 H469 0.949 . S
C474 C480 1.368 . S
C475 C459 1.349 . S
C475 H467 0.950 . S
C475 C473 1.327 . S
C476 C464 1.349 . S
C476 H470 0.950 . S
C476 C477 1.327 . S
C477 H471 0.950 . S
C477 C476 1.327 . S
C477 C481 1.429 . S
C478 C461 1.574 1_565 S
C478 H472 0.949 . S
C478 C482 1.368 . S
C479 C460 1.429 . S
C479 C473 1.429 . S
C479 C480 1.523 . S
C480 C461 1.368 . S
C480 C474 1.368 . S
C480 C479 1.523 . S
C481 C465 1.429 . S
C481 C477 1.429 . S
C481 C482 1.523 . S
C482 C466 1.368 . S
C482 C478 1.368 . S
C482 C481 1.523 . S
H483 C458 0.950 . S
H484 C460 0.950 . S
H485 C461 0.949 . S
H486 C463 0.950 . S
H487 C465 0.950 . S
C488 C489 1.349 . S
C488 C490 1.327 . S
C488 H513 0.950 . S
C489 C488 1.349 . S
C489 C505 1.349 . S
C490 C488 1.327 . S
C490 C509 1.429 . S
C490 H514 0.950 . S
C491 C508 1.574 1_455 S
C491 C510 1.368 . S
C491 H515 0.949 . S
H492 C496 0.949 . S
C493 C494 1.349 . S
C493 C495 1.327 . S
C493 H516 0.950 . S
C494 C493 1.349 . S
C494 C506 1.349 . S
C495 C493 1.327 . S
C495 C511 1.429 . S
C495 H517 0.950 . S
C496 H492 0.949 . S
C496 C504 1.574 1_655 S
C496 C512 1.368 . S
H497 C505 0.950 . S
H498 C503 0.950 . S
H499 C504 0.949 . S
H500 C506 0.950 . S
H501 C507 0.950 . S
H502 C508 0.949 . S
C503 H498 0.950 . S
C503 C505 1.327 . S
C503 C509 1.429 . S
C504 C496 1.574 1_455 S
C504 H499 0.949 . S
C504 C510 1.368 . S
C505 C489 1.349 . S
C505 H497 0.950 . S
C505 C503 1.327 . S
C506 C494 1.349 . S
C506 H500 0.950 . S
C506 C507 1.327 . S
C507 H501 0.950 . S
C507 C506 1.327 . S
C507 C511 1.429 . S
C508 C491 1.574 1_655 S
C508 H502 0.949 . S
C508 C512 1.368 . S
C509 C490 1.429 . S
C509 C503 1.429 . S
C509 C510 1.523 . S
C510 C491 1.368 . S
C510 C504 1.368 . S
C510 C509 1.523 . S
C511 C495 1.429 . S
C511 C507 1.429 . S
C511 C512 1.523 . S
C512 C496 1.368 . S
C512 C508 1.368 . S
C512 C511 1.523 . S
H513 C488 0.950 . S
H514 C490 0.950 . S
H515 C491 0.949 . S
H516 C493 0.950 . S
H517 C495 0.950 . S
C518 C519 1.349 . S
C518 C520 1.327 . S
C518 H543 0.950 . S
C519 C518 1.349 . S
C519 C535 1.349 . S
C520 C518 1.327 . S
C520 C539 1.429 . S
C520 H544 0.950 . S
C521 C538 1.574 . S
C521 C540 1.368 . S
C521 H545 0.949 . S
H522 C526 0.949 . S
C523 C524 1.349 . S
C523 C525 1.327 . S
C523 H546 0.950 . S
C524 C523 1.349 . S
C524 C536 1.349 . S
C525 C523 1.327 . S
C525 C541 1.429 . S
C525 H547 0.950 . S
C526 H522 0.949 . S
C526 C534 1.574 . S
C526 C542 1.368 . S
H527 C535 0.950 . S
H528 C533 0.950 . S
H529 C534 0.949 . S
H530 C536 0.950 . S
H531 C537 0.950 . S
H532 C538 0.949 . S
C533 H528 0.950 . S
C533 C535 1.327 . S
C533 C539 1.429 . S
C534 C526 1.574 . S
C534 H529 0.949 . S
C534 C540 1.368 . S
C535 C519 1.349 . S
C535 H527 0.950 . S
C535 C533 1.327 . S
C536 C524 1.349 . S
C536 H530 0.950 . S
C536 C537 1.327 . S
C537 H531 0.950 . S
C537 C536 1.327 . S
C537 C541 1.429 . S
C538 C521 1.574 . S
C538 H532 0.949 . S
C538 C542 1.368 . S
C539 C520 1.429 . S
C539 C533 1.429 . S
C539 C540 1.523 . S
C540 C521 1.368 . S
C540 C534 1.368 . S
C540 C539 1.523 . S
C541 C525 1.429 . S
C541 C537 1.429 . S
C541 C542 1.523 . S
C542 C526 1.368 . S
C542 C538 1.368 . S
C542 C541 1.523 . S
H543 C518 0.950 . S
H544 C520 0.950 . S
H545 C521 0.949 . S
H546 C523 0.950 . S
H547 C525 0.950 . S
C548 C549 1.349 . S
C548 C550 1.327 . S
C548 H573 0.950 . S
C549 C548 1.349 . S
C549 C565 1.349 . S
C550 C548 1.327 . S
C550 C569 1.429 . S
C550 H574 0.950 . S
C551 C568 1.574 . S
C551 C570 1.368 1_565 S
C551 H575 0.949 . S
H552 C556 0.949 . S
C553 C554 1.349 . S
C553 C555 1.327 . S
C553 H576 0.950 . S
C554 C553 1.349 . S
C554 C566 1.349 . S
C555 C553 1.327 . S
C555 C571 1.429 . S
C555 H577 0.950 . S
C556 H552 0.949 . S
C556 C564 1.574 . S
C556 C572 1.368 1_545 S
H557 C565 0.950 . S
H558 C563 0.949 . S
H559 C564 0.949 . S
H560 C566 0.950 . S
H561 C567 0.950 . S
H562 C568 0.949 . S
C563 H558 0.949 . S
C563 C565 1.327 . S
C563 C569 1.429 . S
C564 C556 1.574 . S
C564 H559 0.949 . S
C564 C570 1.368 . S
C565 C549 1.349 . S
C565 H557 0.950 . S
C565 C563 1.327 . S
C566 C554 1.349 . S
C566 H560 0.950 . S
C566 C567 1.327 . S
C567 H561 0.950 . S
C567 C566 1.327 . S
C567 C571 1.429 . S
C568 C551 1.574 . S
C568 H562 0.949 . S
C568 C572 1.368 . S
C569 C550 1.429 . S
C569 C563 1.429 . S
C569 C570 1.523 . S
C570 C551 1.368 1_545 S
C570 C564 1.368 . S
C570 C569 1.523 . S
C571 C555 1.429 . S
C571 C567 1.429 . S
C571 C572 1.523 . S
C572 C556 1.368 1_565 S
C572 C568 1.368 . S
C572 C571 1.523 . S
H573 C548 0.950 . S
H574 C550 0.950 . S
H575 C551 0.949 . S
H576 C553 0.950 . S
H577 C555 0.950 . S
C578 C579 1.349 . S
C578 C580 1.327 . S
C578 H603 0.950 . S
C579 C578 1.349 . S
C579 C595 1.349 . S
C580 C578 1.327 . S
C580 C599 1.429 . S
C580 H604 0.950 1_455 S
C581 C598 1.574 1_545 S
C581 C600 1.368 . S
C581 H605 0.949 . S
H582 C586 0.949 . S
C583 C584 1.349 . S
C583 C585 1.327 . S
C583 H606 0.950 . S
C584 C583 1.349 . S
C584 C596 1.349 . S
C585 C583 1.327 . S
C585 C601 1.429 . S
C585 H607 0.950 1_655 S
C586 H582 0.949 . S
C586 C594 1.574 1_565 S
C586 C602 1.368 . S
H587 C595 0.950 . S
H588 C593 0.950 . S
H589 C594 0.949 . S
H590 C596 0.950 . S
H591 C597 0.950 . S
H592 C598 0.949 . S
C593 H588 0.950 . S
C593 C595 1.327 . S
C593 C599 1.429 . S
C594 C586 1.574 1_545 S
C594 H589 0.949 . S
C594 C600 1.368 1_655 S
C595 C579 1.349 . S
C595 H587 0.950 . S
C595 C593 1.327 . S
C596 C584 1.349 . S
C596 H590 0.950 . S
C596 C597 1.327 . S
C597 H591 0.950 . S
C597 C596 1.327 . S
C597 C601 1.429 . S
C598 C581 1.574 1_565 S
C598 H592 0.949 . S
C598 C602 1.368 1_455 S
C599 C580 1.429 . S
C599 C593 1.429 . S
C599 C600 1.523 . S
C600 C581 1.368 . S
C600 C594 1.368 1_455 S
C600 C599 1.523 . S
C601 C585 1.429 . S
C601 C597 1.429 . S
C601 C602 1.523 . S
C602 C586 1.368 . S
C602 C598 1.368 1_655 S
C602 C601 1.523 . S
H603 C578 0.950 . S
H604 C580 0.950 1_655 S
H605 C581 0.949 . S
H606 C583 0.950 . S
H607 C585 0.950 1_455 S
C608 C609 1.349 . S
C608 C610 1.327 . S
C608 H633 0.950 . S
C609 C608 1.349 . S
C609 C625 1.349 . S
C610 C608 1.327 . S
C610 C629 1.429 . S
C610 H634 0.950 . S
C611 C628 1.574 . S
C611 C630 1.368 1_545 S
C611 H635 0.949 . S
H612 C616 0.949 . S
C613 C614 1.349 . S
C613 C615 1.327 . S
C613 H636 0.950 . S
C614 C613 1.349 . S
C614 C626 1.349 . S
C615 C613 1.327 . S
C615 C631 1.429 . S
C615 H637 0.950 . S
C616 H612 0.949 . S
C616 C624 1.574 . S
C616 C632 1.368 1_565 S
H617 C625 0.950 . S
H618 C623 0.950 . S
H619 C624 0.949 . S
H620 C626 0.950 . S
H621 C627 0.950 . S
H622 C628 0.949 . S
C623 H618 0.950 . S
C623 C625 1.327 . S
C623 C629 1.429 . S
C624 C616 1.574 . S
C624 H619 0.949 . S
C624 C630 1.368 . S
C625 C609 1.349 . S
C625 H617 0.950 . S
C625 C623 1.327 . S
C626 C614 1.349 . S
C626 H620 0.950 . S
C626 C627 1.327 . S
C627 H621 0.950 . S
C627 C626 1.327 . S
C627 C631 1.429 . S
C628 C611 1.574 . S
C628 H622 0.949 . S
C628 C632 1.368 . S
C629 C610 1.429 . S
C629 C623 1.429 . S
C629 C630 1.523 . S
C630 C611 1.368 1_565 S
C630 C624 1.368 . S
C630 C629 1.523 . S
C631 C615 1.429 . S
C631 C627 1.429 . S
C631 C632 1.523 . S
C632 C616 1.368 1_545 S
C632 C628 1.368 . S
C632 C631 1.523 . S
H633 C608 0.950 . S
H634 C610 0.950 . S
H635 C611 0.949 . S
H636 C613 0.950 . S
H637 C615 0.950 . S
C638 C639 1.349 . S
C638 C640 1.327 . S
C638 H663 0.950 . S
C639 C638 1.349 . S
C639 C655 1.349 . S
C640 C638 1.327 . S
C640 C659 1.429 . S
C640 H664 0.950 . S
C641 C658 1.574 1_565 S
C641 C660 1.368 1_455 S
C641 H665 0.949 . S
H642 C646 0.949 . S
C643 C644 1.349 . S
C643 C645 1.327 . S
C643 H666 0.950 . S
C644 C643 1.349 . S
C644 C656 1.349 . S
C645 C643 1.327 . S
C645 C661 1.429 . S
C645 H667 0.950 . S
C646 H642 0.949 . S
C646 C654 1.574 1_545 S
C646 C662 1.368 1_655 S
H647 C655 0.950 . S
H648 C653 0.950 1_455 S
H649 C654 0.949 . S
H650 C656 0.950 . S
H651 C657 0.950 1_655 S
H652 C658 0.949 . S
C653 H648 0.950 1_655 S
C653 C655 1.327 . S
C653 C659 1.429 . S
C654 C646 1.574 1_565 S
C654 H649 0.949 . S
C654 C660 1.368 . S
C655 C639 1.349 . S
C655 H647 0.950 . S
C655 C653 1.327 . S
C656 C644 1.349 . S
C656 H650 0.950 . S
C656 C657 1.327 . S
C657 H651 0.950 1_455 S
C657 C656 1.327 . S
C657 C661 1.429 . S
C658 C641 1.574 1_545 S
C658 H652 0.949 . S
C658 C662 1.368 . S
C659 C640 1.429 . S
C659 C653 1.429 . S
C659 C660 1.523 . S
C660 C641 1.368 1_655 S
C660 C654 1.368 . S
C660 C659 1.523 . S
C661 C645 1.429 . S
C661 C657 1.429 . S
C661 C662 1.523 . S
C662 C646 1.368 1_455 S
C662 C658 1.368 . S
C662 C661 1.523 . S
H663 C638 0.950 . S
H664 C640 0.950 . S
H665 C641 0.949 . S
H666 C643 0.950 . S
H667 C645 0.950 . S
C668 C669 1.349 . S
C668 C670 1.327 . S
C668 H693 0.950 . S
C669 C668 1.349 . S
C669 C685 1.349 . S
C670 C668 1.327 . S
C670 C689 1.429 . S
C670 H694 0.950 . S
C671 C688 1.574 1_455 S
C671 C690 1.368 . S
C671 H695 0.949 . S
H672 C676 0.949 . S
C673 C674 1.349 . S
C673 C675 1.327 . S
C673 H696 0.950 . S
C674 C673 1.349 . S
C674 C686 1.349 . S
C675 C673 1.327 . S
C675 C691 1.429 . S
C675 H697 0.950 . S
C676 H672 0.949 . S
C676 C684 1.574 1_655 S
C676 C692 1.368 . S
H677 C685 0.950 . S
H678 C683 0.950 . S
H679 C684 0.949 . S
H680 C686 0.950 . S
H681 C687 0.950 . S
H682 C688 0.949 . S
C683 H678 0.950 . S
C683 C685 1.327 . S
C683 C689 1.429 . S
C684 C676 1.574 1_455 S
C684 H679 0.949 . S
C684 C690 1.368 . S
C685 C669 1.349 . S
C685 H677 0.950 . S
C685 C683 1.327 . S
C686 C674 1.349 . S
C686 H680 0.950 . S
C686 C687 1.327 . S
C687 H681 0.950 . S
C687 C686 1.327 . S
C687 C691 1.429 . S
C688 C671 1.574 1_655 S
C688 H682 0.949 . S
C688 C692 1.368 . S
C689 C670 1.429 . S
C689 C683 1.429 . S
C689 C690 1.523 . S
C690 C671 1.368 . S
C690 C684 1.368 . S
C690 C689 1.523 . S
C691 C675 1.429 . S
C691 C687 1.429 . S
C691 C692 1.523 . S
C692 C676 1.368 . S
C692 C688 1.368 . S
C692 C691 1.523 . S
H693 C668 0.950 . S
H694 C670 0.950 . S
H695 C671 0.949 . S
H696 C673 0.950 . S
H697 C675 0.950 . S
C698 C699 1.349 . S
C698 C700 1.327 . S
C698 H723 0.950 . S
C699 C698 1.349 . S
C699 C715 1.349 . S
C700 C698 1.327 . S
C700 C719 1.429 . S
C700 H724 0.950 . S
C701 C718 1.574 . S
C701 C720 1.368 . S
C701 H725 0.949 . S
H702 C706 0.949 . S
C703 C704 1.349 . S
C703 C705 1.327 . S
C703 H726 0.950 . S
C704 C703 1.349 . S
C704 C716 1.349 . S
C705 C703 1.327 . S
C705 C721 1.429 . S
C705 H727 0.950 . S
C706 H702 0.949 . S
C706 C714 1.574 . S
C706 C722 1.368 . S
H707 C715 0.950 . S
H708 C713 0.950 . S
H709 C714 0.949 . S
H710 C716 0.950 . S
H711 C717 0.950 . S
H712 C718 0.949 . S
C713 H708 0.950 . S
C713 C715 1.327 . S
C713 C719 1.429 . S
C714 C706 1.574 . S
C714 H709 0.949 . S
C714 C720 1.368 . S
C715 C699 1.349 . S
C715 H707 0.950 . S
C715 C713 1.327 . S
C716 C704 1.349 . S
C716 H710 0.950 . S
C716 C717 1.327 . S
C717 H711 0.950 . S
C717 C716 1.327 . S
C717 C721 1.429 . S
C718 C701 1.574 . S
C718 H712 0.949 . S
C718 C722 1.368 . S
C719 C700 1.429 . S
C719 C713 1.429 . S
C719 C720 1.523 . S
C720 C701 1.368 . S
C720 C714 1.368 . S
C720 C719 1.523 . S
C721 C705 1.429 . S
C721 C717 1.429 . S
C721 C722 1.523 . S
C722 C706 1.368 . S
C722 C718 1.368 . S
C722 C721 1.523 . S
H723 C698 0.950 . S
H724 C700 0.950 . S
H725 C701 0.949 . S
H726 C703 0.950 . S
H727 C705 0.950 . S
C728 C729 1.349 . S
C728 C730 1.327 . S
C728 H753 0.950 . S
C729 C728 1.349 . S
C729 C745 1.349 . S
C730 C728 1.327 . S
C730 C749 1.429 . S
C730 H754 0.950 . S
C731 C748 1.574 . S
C731 C750 1.368 . S
C731 H755 0.949 . S
H732 C736 0.949 . S
C733 C734 1.349 . S
C733 C735 1.327 . S
C733 H756 0.950 . S
C734 C733 1.349 . S
C734 C746 1.349 . S
C735 C733 1.327 . S
C735 C751 1.429 . S
C735 H757 0.950 . S
C736 H732 0.949 . S
C736 C744 1.574 . S
C736 C752 1.368 . S
H737 C745 0.950 . S
H738 C743 0.950 . S
H739 C744 0.949 . S
H740 C746 0.950 . S
H741 C747 0.950 . S
H742 C748 0.949 . S
C743 H738 0.950 . S
C743 C745 1.327 . S
C743 C749 1.429 . S
C744 C736 1.574 . S
C744 H739 0.949 . S
C744 C750 1.368 . S
C745 C729 1.349 . S
C745 H737 0.950 . S
C745 C743 1.327 . S
C746 C734 1.349 . S
C746 H740 0.950 . S
C746 C747 1.327 . S
C747 H741 0.950 . S
C747 C746 1.327 . S
C747 C751 1.429 . S
C748 C731 1.574 . S
C748 H742 0.949 . S
C748 C752 1.368 . S
C749 C730 1.429 . S
C749 C743 1.429 . S
C749 C750 1.523 . S
C750 C731 1.368 . S
C750 C744 1.368 . S
C750 C749 1.523 . S
C751 C735 1.429 . S
C751 C747 1.429 . S
C751 C752 1.523 . S
C752 C736 1.368 . S
C752 C748 1.368 . S
C752 C751 1.523 . S
H753 C728 0.950 . S
H754 C730 0.950 . S
H755 C731 0.949 . S
H756 C733 0.950 . S
H757 C735 0.950 . S
C758 C759 1.349 . S
C758 C760 1.327 . S
C758 H783 0.950 . S
C759 C758 1.349 . S
C759 C775 1.349 . S
C760 C758 1.327 . S
C760 C779 1.429 . S
C760 H784 0.950 . S
C761 C778 1.574 1_565 S
C761 C780 1.368 . S
C761 H785 0.949 . S
H762 C766 0.949 . S
C763 C764 1.349 . S
C763 C765 1.327 . S
C763 H786 0.950 . S
C764 C763 1.349 . S
C764 C776 1.349 . S
C765 C763 1.327 . S
C765 C781 1.429 . S
C765 H787 0.950 . S
C766 H762 0.949 . S
C766 C774 1.574 1_545 S
C766 C782 1.368 . S
H767 C775 0.950 . S
H768 C773 0.950 . S
H769 C774 0.949 . S
H770 C776 0.950 . S
H771 C777 0.950 . S
H772 C778 0.949 . S
C773 H768 0.950 . S
C773 C775 1.327 . S
C773 C779 1.429 . S
C774 C766 1.574 1_565 S
C774 H769 0.949 . S
C774 C780 1.368 . S
C775 C759 1.349 . S
C775 H767 0.950 . S
C775 C773 1.327 . S
C776 C764 1.349 . S
C776 H770 0.950 . S
C776 C777 1.327 . S
C777 H771 0.950 . S
C777 C776 1.327 . S
C777 C781 1.429 . S
C778 C761 1.574 1_545 S
C778 H772 0.949 . S
C778 C782 1.368 . S
C779 C760 1.429 . S
C779 C773 1.429 . S
C779 C780 1.523 . S
C780 C761 1.368 . S
C780 C774 1.368 . S
C780 C779 1.523 . S
C781 C765 1.429 . S
C781 C777 1.429 . S
C781 C782 1.523 . S
C782 C766 1.368 . S
C782 C778 1.368 . S
C782 C781 1.523 . S
H783 C758 0.950 . S
H784 C760 0.950 . S
H785 C761 0.949 . S
H786 C763 0.950 . S
H787 C765 0.950 . S
C788 C789 1.349 . S
C788 C790 1.327 . S
C788 H813 0.950 . S
C789 C788 1.349 . S
C789 C805 1.349 . S
C790 C788 1.327 . S
C790 C809 1.429 . S
C790 H814 0.950 . S
C791 C808 1.574 1_655 S
C791 C810 1.368 . S
C791 H815 0.949 . S
H792 C796 0.949 . S
C793 C794 1.349 . S
C793 C795 1.327 . S
C793 H816 0.950 . S
C794 C793 1.349 . S
C794 C806 1.349 . S
C795 C793 1.327 . S
C795 C811 1.429 . S
C795 H817 0.950 . S
C796 H792 0.949 . S
C796 C804 1.574 1_455 S
C796 C812 1.368 . S
H797 C805 0.950 . S
H798 C803 0.950 . S
H799 C804 0.949 . S
H800 C806 0.950 . S
H801 C807 0.950 . S
H802 C808 0.949 . S
C803 H798 0.950 . S
C803 C805 1.327 . S
C803 C809 1.429 . S
C804 C796 1.574 1_655 S
C804 H799 0.949 . S
C804 C810 1.368 1_545 S
C805 C789 1.349 . S
C805 H797 0.950 . S
C805 C803 1.327 . S
C806 C794 1.349 . S
C806 H800 0.950 . S
C806 C807 1.327 . S
C807 H801 0.950 . S
C807 C806 1.327 . S
C807 C811 1.429 . S
C808 C791 1.574 1_455 S
C808 H802 0.949 . S
C808 C812 1.368 1_565 S
C809 C790 1.429 . S
C809 C803 1.429 . S
C809 C810 1.523 . S
C810 C791 1.368 . S
C810 C804 1.368 1_565 S
C810 C809 1.523 . S
C811 C795 1.429 . S
C811 C807 1.429 . S
C811 C812 1.523 . S
C812 C796 1.368 . S
C812 C808 1.368 1_545 S
C812 C811 1.523 . S
H813 C788 0.950 . S
H814 C790 0.950 . S
H815 C791 0.949 . S
H816 C793 0.950 . S
H817 C795 0.950 . S
C818 C819 1.349 . S
C818 C820 1.327 . S
C818 H843 0.950 . S
C819 C818 1.349 . S
C819 C835 1.349 . S
C820 C818 1.327 . S
C820 C839 1.429 . S
C820 H844 0.950 . S
C821 C838 1.574 . S
C821 C840 1.368 1_655 S
C821 H845 0.949 . S
H822 C826 0.949 . S
C823 C824 1.349 . S
C823 C825 1.327 . S
C823 H846 0.950 . S
C824 C823 1.349 . S
C824 C836 1.349 . S
C825 C823 1.327 . S
C825 C841 1.429 . S
C825 H847 0.950 . S
C826 H822 0.949 . S
C826 C834 1.574 . S
C826 C842 1.368 1_455 S
H827 C835 0.950 . S
H828 C833 0.950 1_655 S
H829 C834 0.949 . S
H830 C836 0.950 . S
H831 C837 0.950 1_455 S
H832 C838 0.949 . S
C833 H828 0.950 1_455 S
C833 C835 1.327 . S
C833 C839 1.429 . S
C834 C826 1.574 . S
C834 H829 0.949 . S
C834 C840 1.368 . S
C835 C819 1.349 . S
C835 H827 0.950 . S
C835 C833 1.327 . S
C836 C824 1.349 . S
C836 H830 0.950 . S
C836 C837 1.327 . S
C837 H831 0.950 1_655 S
C837 C836 1.327 . S
C837 C841 1.429 . S
C838 C821 1.574 . S
C838 H832 0.949 . S
C838 C842 1.368 . S
C839 C820 1.429 . S
C839 C833 1.429 . S
C839 C840 1.523 . S
C840 C821 1.368 1_455 S
C840 C834 1.368 . S
C840 C839 1.523 . S
C841 C825 1.429 . S
C841 C837 1.429 . S
C841 C842 1.523 . S
C842 C826 1.368 1_655 S
C842 C838 1.368 . S
C842 C841 1.523 . S
H843 C818 0.950 . S
H844 C820 0.950 . S
H845 C821 0.949 . S
H846 C823 0.950 . S
H847 C825 0.950 . S
C848 C849 1.349 . S
C848 C850 1.327 . S
C848 H873 0.950 . S
C849 C848 1.349 . S
C849 C865 1.349 . S
C850 C848 1.327 . S
C850 C869 1.429 . S
C850 H874 0.950 . S
C851 C868 1.574 . S
C851 C870 1.368 . S
C851 H875 0.949 . S
H852 C856 0.949 . S
C853 C854 1.349 . S
C853 C855 1.327 . S
C853 H876 0.950 . S
C854 C853 1.349 . S
C854 C866 1.349 . S
C855 C853 1.327 . S
C855 C871 1.429 . S
C855 H877 0.950 . S
C856 H852 0.949 . S
C856 C864 1.574 . S
C856 C872 1.368 . S
H857 C865 0.950 . S
H858 C863 0.950 . S
H859 C864 0.949 . S
H860 C866 0.950 . S
H861 C867 0.950 . S
H862 C868 0.949 . S
C863 H858 0.950 . S
C863 C865 1.327 . S
C863 C869 1.429 . S
C864 C856 1.574 . S
C864 H859 0.949 . S
C864 C870 1.368 . S
C865 C849 1.349 . S
C865 H857 0.950 . S
C865 C863 1.327 . S
C866 C854 1.349 . S
C866 H860 0.950 . S
C866 C867 1.327 . S
C867 H861 0.950 . S
C867 C866 1.327 . S
C867 C871 1.429 . S
C868 C851 1.574 . S
C868 H862 0.949 . S
C868 C872 1.368 . S
C869 C850 1.429 . S
C869 C863 1.429 . S
C869 C870 1.523 . S
C870 C851 1.368 . S
C870 C864 1.368 . S
C870 C869 1.523 . S
C871 C855 1.429 . S
C871 C867 1.429 . S
C871 C872 1.523 . S
C872 C856 1.368 . S
C872 C868 1.368 . S
C872 C871 1.523 . S
H873 C848 0.950 . S
H874 C850 0.950 . S
H875 C851 0.949 . S
H876 C853 0.950 . S
H877 C855 0.950 . S
C878 C879 1.349 . S
C878 C880 1.327 . S
C878 H903 0.950 . S
C879 C878 1.349 . S
C879 C895 1.349 . S
C880 C878 1.327 . S
C880 C899 1.429 . S
C880 H904 0.950 . S
C881 C898 1.574 . S
C881 C900 1.368 . S
C881 H905 0.949 . S
H882 C886 0.949 . S
C883 C884 1.349 . S
C883 C885 1.327 . S
C883 H906 0.950 . S
C884 C883 1.349 . S
C884 C896 1.349 . S
C885 C883 1.327 . S
C885 C901 1.429 . S
C885 H907 0.950 . S
C886 H882 0.949 . S
C886 C894 1.574 . S
C886 C902 1.368 . S
H887 C895 0.950 . S
H888 C893 0.950 . S
H889 C894 0.949 . S
H890 C896 0.950 . S
H891 C897 0.950 . S
H892 C898 0.949 . S
C893 H888 0.950 . S
C893 C895 1.327 . S
C893 C899 1.429 . S
C894 C886 1.574 . S
C894 H889 0.949 . S
C894 C900 1.368 . S
C895 C879 1.349 . S
C895 H887 0.950 . S
C895 C893 1.327 . S
C896 C884 1.349 . S
C896 H890 0.950 . S
C896 C897 1.327 . S
C897 H891 0.950 . S
C897 C896 1.327 . S
C897 C901 1.429 . S
C898 C881 1.574 . S
C898 H892 0.949 . S
C898 C902 1.368 . S
C899 C880 1.429 . S
C899 C893 1.429 . S
C899 C900 1.523 . S
C900 C881 1.368 . S
C900 C894 1.368 . S
C900 C899 1.523 . S
C901 C885 1.429 . S
C901 C897 1.429 . S
C901 C902 1.523 . S
C902 C886 1.368 . S
C902 C898 1.368 . S
C902 C901 1.523 . S
H903 C878 0.950 . S
H904 C880 0.950 . S
H905 C881 0.949 . S
H906 C883 0.950 . S
H907 C885 0.950 . S
C908 C909 1.349 . S
C908 C910 1.327 . S
C908 H933 0.950 . S
C909 C908 1.349 . S
C909 C925 1.349 . S
C910 C908 1.327 . S
C910 C929 1.429 . S
C910 H934 0.950 . S
C911 C928 1.574 . S
C911 C930 1.368 . S
C911 H935 0.949 . S
H912 C916 0.949 . S
C913 C914 1.349 . S
C913 C915 1.327 . S
C913 H936 0.950 . S
C914 C913 1.349 . S
C914 C926 1.349 . S
C915 C913 1.327 . S
C915 C931 1.429 . S
C915 H937 0.950 . S
C916 H912 0.949 . S
C916 C924 1.574 . S
C916 C932 1.368 . S
H917 C925 0.950 . S
H918 C923 0.950 . S
H919 C924 0.949 . S
H920 C926 0.950 . S
H921 C927 0.950 . S
H922 C928 0.949 . S
C923 H918 0.950 . S
C923 C925 1.327 . S
C923 C929 1.429 . S
C924 C916 1.574 . S
C924 H919 0.949 . S
C924 C930 1.368 . S
C925 C909 1.349 . S
C925 H917 0.950 . S
C925 C923 1.327 . S
C926 C914 1.349 . S
C926 H920 0.950 . S
C926 C927 1.327 . S
C927 H921 0.950 . S
C927 C926 1.327 . S
C927 C931 1.429 . S
C928 C911 1.574 . S
C928 H922 0.949 . S
C928 C932 1.368 . S
C929 C910 1.429 . S
C929 C923 1.429 . S
C929 C930 1.523 . S
C930 C911 1.368 . S
C930 C924 1.368 . S
C930 C929 1.523 . S
C931 C915 1.429 . S
C931 C927 1.429 . S
C931 C932 1.523 . S
C932 C916 1.368 . S
C932 C928 1.368 . S
C932 C931 1.523 . S
H933 C908 0.950 . S
H934 C910 0.950 . S
H935 C911 0.949 . S
H936 C913 0.950 . S
H937 C915 0.950 . S
C938 C939 1.349 . S
C938 C940 1.327 . S
C938 H963 0.950 . S
C939 C938 1.349 . S
C939 C955 1.349 . S
C940 C938 1.327 . S
C940 C959 1.429 . S
C940 H964 0.950 . S
C941 C958 1.574 . S
C941 C960 1.368 . S
C941 H965 0.949 . S
H942 C946 0.949 . S
C943 C944 1.349 . S
C943 C945 1.327 . S
C943 H966 0.950 . S
C944 C943 1.349 . S
C944 C956 1.349 . S
C945 C943 1.327 . S
C945 C961 1.429 . S
C945 H967 0.950 . S
C946 H942 0.949 . S
C946 C954 1.574 . S
C946 C962 1.368 . S
H947 C955 0.950 . S
H948 C953 0.950 . S
H949 C954 0.949 . S
H950 C956 0.950 . S
H951 C957 0.950 . S
H952 C958 0.949 . S
C953 H948 0.950 . S
C953 C955 1.327 . S
C953 C959 1.429 . S
C954 C946 1.574 . S
C954 H949 0.949 . S
C954 C960 1.368 . S
C955 C939 1.349 . S
C955 H947 0.950 . S
C955 C953 1.327 . S
C956 C944 1.349 . S
C956 H950 0.950 . S
C956 C957 1.327 . S
C957 H951 0.950 . S
C957 C956 1.327 . S
C957 C961 1.429 . S
C958 C941 1.574 . S
C958 H952 0.949 . S
C958 C962 1.368 . S
C959 C940 1.429 . S
C959 C953 1.429 . S
C959 C960 1.523 . S
C960 C941 1.368 . S
C960 C954 1.368 . S
C960 C959 1.523 . S
C961 C945 1.429 . S
C961 C957 1.429 . S
C961 C962 1.523 . S
C962 C946 1.368 . S
C962 C958 1.368 . S
C962 C961 1.523 . S
H963 C938 0.950 . S
H964 C940 0.950 . S
H965 C941 0.949 . S
H966 C943 0.950 . S
H967 C945 0.950 . S
C968 C969 1.349 . S
C968 C970 1.327 . S
C968 H993 0.950 . S
C969 C968 1.349 . S
C969 C985 1.349 . S
C970 C968 1.327 . S
C970 C989 1.429 . S
C970 H994 0.950 . S
C971 C988 1.574 . S
C971 C990 1.368 . S
C971 H995 0.949 . S
H972 C976 0.949 . S
C973 C974 1.349 . S
C973 C975 1.327 . S
C973 H996 0.950 . S
C974 C973 1.349 . S
C974 C986 1.349 . S
C975 C973 1.327 . S
C975 C991 1.429 . S
C975 H997 0.950 . S
C976 H972 0.949 . S
C976 C984 1.574 . S
C976 C992 1.368 . S
H977 C985 0.950 . S
H978 C983 0.950 . S
H979 C984 0.949 . S
H980 C986 0.950 . S
H981 C987 0.950 . S
H982 C988 0.949 . S
C983 H978 0.950 . S
C983 C985 1.327 . S
C983 C989 1.429 . S
C984 C976 1.574 . S
C984 H979 0.949 . S
C984 C990 1.368 . S
C985 C969 1.349 . S
C985 H977 0.950 . S
C985 C983 1.327 . S
C986 C974 1.349 . S
C986 H980 0.950 . S
C986 C987 1.327 . S
C987 H981 0.950 . S
C987 C986 1.327 . S
C987 C991 1.429 . S
C988 C971 1.574 . S
C988 H982 0.949 . S
C988 C992 1.368 . S
C989 C970 1.429 . S
C989 C983 1.429 . S
C989 C990 1.523 . S
C990 C971 1.368 . S
C990 C984 1.368 . S
C990 C989 1.523 . S
C991 C975 1.429 . S
C991 C987 1.429 . S
C991 C992 1.523 . S
C992 C976 1.368 . S
C992 C988 1.368 . S
C992 C991 1.523 . S
H993 C968 0.950 . S
H994 C970 0.950 . S
H995 C971 0.949 . S
H996 C973 0.950 . S
H997 C975 0.950 . S
C998 C999 1.349 . S
C998 C1000 1.327 . S
C998 H1023 0.950 . S
C999 C998 1.349 . S
C999 C1015 1.349 . S
C1000 C998 1.327 . S
C1000 C1019 1.429 . S
C1000 H1024 0.950 . S
C1001 C1018 1.574 . S
C1001 C1020 1.368 . S
C1001 H1025 0.949 . S
H1002 C1006 0.949 . S
C1003 C1004 1.349 . S
C1003 C1005 1.327 . S
C1003 H1026 0.950 . S
C1004 C1003 1.349 . S
C1004 C1016 1.349 . S
C1005 C1003 1.327 . S
C1005 C1021 1.429 . S
C1005 H1027 0.950 . S
C1006 H1002 0.949 . S
C1006 C1014 1.574 . S
C1006 C1022 1.368 . S
H1007 C1015 0.950 . S
H1008 C1013 0.950 . S
H1009 C1014 0.949 . S
H1010 C1016 0.950 . S
H1011 C1017 0.950 . S
H1012 C1018 0.949 . S
C1013 H1008 0.950 . S
C1013 C1015 1.327 . S
C1013 C1019 1.429 . S
C1014 C1006 1.574 . S
C1014 H1009 0.949 . S
C1014 C1020 1.368 . S
C1015 C999 1.349 . S
C1015 H1007 0.950 . S
C1015 C1013 1.327 . S
C1016 C1004 1.349 . S
C1016 H1010 0.950 . S
C1016 C1017 1.327 . S
C1017 H1011 0.950 . S
C1017 C1016 1.327 . S
C1017 C1021 1.429 . S
C1018 C1001 1.574 . S
C1018 H1012 0.949 . S
C1018 C1022 1.368 . S
C1019 C1000 1.429 . S
C1019 C1013 1.429 . S
C1019 C1020 1.523 . S
C1020 C1001 1.368 . S
C1020 C1014 1.368 . S
C1020 C1019 1.523 . S
C1021 C1005 1.429 . S
C1021 C1017 1.429 . S
C1021 C1022 1.523 . S
C1022 C1006 1.368 . S
C1022 C1018 1.368 . S
C1022 C1021 1.523 . S
H1023 C998 0.950 . S
H1024 C1000 0.950 . S
H1025 C1001 0.949 . S
H1026 C1003 0.950 . S
H1027 C1005 0.950 . S
C1028 C1029 1.349 . S
C1028 C1030 1.327 . S
C1028 H1053 0.950 . S
C1029 C1028 1.349 . S
C1029 C1045 1.349 . S
C1030 C1028 1.327 . S
C1030 C1049 1.429 . S
C1030 H1054 0.950 . S
C1031 C1048 1.574 . S
C1031 C1050 1.368 . S
C1031 H1055 0.949 . S
H1032 C1036 0.949 . S
C1033 C1034 1.349 . S
C1033 C1035 1.327 . S
C1033 H1056 0.950 . S
C1034 C1033 1.349 . S
C1034 C1046 1.349 . S
C1035 C1033 1.327 . S
C1035 C1051 1.429 . S
C1035 H1057 0.950 . S
C1036 H1032 0.949 . S
C1036 C1044 1.574 . S
C1036 C1052 1.368 . S
H1037 C1045 0.950 . S
H1038 C1043 0.950 . S
H1039 C1044 0.949 . S
H1040 C1046 0.950 . S
H1041 C1047 0.950 . S
H1042 C1048 0.949 . S
C1043 H1038 0.950 . S
C1043 C1045 1.327 . S
C1043 C1049 1.429 . S
C1044 C1036 1.574 . S
C1044 H1039 0.949 . S
C1044 C1050 1.368 . S
C1045 C1029 1.349 . S
C1045 H1037 0.950 . S
C1045 C1043 1.327 . S
C1046 C1034 1.349 . S
C1046 H1040 0.950 . S
C1046 C1047 1.327 . S
C1047 H1041 0.950 . S
C1047 C1046 1.327 . S
C1047 C1051 1.429 . S
C1048 C1031 1.574 . S
C1048 H1042 0.949 . S
C1048 C1052 1.368 . S
C1049 C1030 1.429 . S
C1049 C1043 1.429 . S
C1049 C1050 1.523 . S
C1050 C1031 1.368 . S
C1050 C1044 1.368 . S
C1050 C1049 1.523 . S
C1051 C1035 1.429 . S
C1051 C1047 1.429 . S
C1051 C1052 1.523 . S
C1052 C1036 1.368 . S
C1052 C1048 1.368 . S
C1052 C1051 1.523 . S
H1053 C1028 0.950 . S
H1054 C1030 0.950 . S
H1055 C1031 0.949 . S
H1056 C1033 0.950 . S
H1057 C1035 0.950 . S
C1058 C1059 1.349 . S
C1058 C1060 1.327 . S
C1058 H1083 0.950 . S
C1059 C1058 1.349 . S
C1059 C1075 1.349 . S
C1060 C1058 1.327 . S
C1060 C1079 1.429 . S
C1060 H1084 0.950 . S
C1061 C1078 1.574 . S
C1061 C1080 1.368 . S
C1061 H1085 0.949 . S
H1062 C1066 0.949 . S
C1063 C1064 1.349 . S
C1063 C1065 1.327 . S
C1063 H1086 0.950 . S
C1064 C1063 1.349 . S
C1064 C1076 1.349 . S
C1065 C1063 1.327 . S
C1065 C1081 1.429 . S
C1065 H1087 0.950 . S
C1066 H1062 0.949 . S
C1066 C1074 1.574 . S
C1066 C1082 1.368 . S
H1067 C1075 0.950 . S
H1068 C1073 0.950 . S
H1069 C1074 0.949 . S
H1070 C1076 0.950 . S
H1071 C1077 0.950 . S
H1072 C1078 0.949 . S
C1073 H1068 0.950 . S
C1073 C1075 1.327 . S
C1073 C1079 1.429 . S
C1074 C1066 1.574 . S
C1074 H1069 0.949 . S
C1074 C1080 1.368 . S
C1075 C1059 1.349 . S
C1075 H1067 0.950 . S
C1075 C1073 1.327 . S
C1076 C1064 1.349 . S
C1076 H1070 0.950 . S
C1076 C1077 1.327 . S
C1077 H1071 0.950 . S
C1077 C1076 1.327 . S
C1077 C1081 1.429 . S
C1078 C1061 1.574 . S
C1078 H1072 0.949 . S
C1078 C1082 1.368 . S
C1079 C1060 1.429 . S
C1079 C1073 1.429 . S
C1079 C1080 1.523 . S
C1080 C1061 1.368 . S
C1080 C1074 1.368 . S
C1080 C1079 1.523 . S
C1081 C1065 1.429 . S
C1081 C1077 1.429 . S
C1081 C1082 1.523 . S
C1082 C1066 1.368 . S
C1082 C1078 1.368 . S
C1082 C1081 1.523 . S
H1083 C1058 0.950 . S
H1084 C1060 0.950 . S
H1085 C1061 0.949 . S
H1086 C1063 0.950 . S
H1087 C1065 0.950 . S
C1088 C1089 1.349 . S
C1088 C1090 1.327 . S
C1088 H1113 0.950 . S
C1089 C1088 1.349 . S
C1089 C1105 1.349 . S
C1090 C1088 1.327 . S
C1090 C1109 1.429 . S
C1090 H1114 0.950 . S
C1091 C1108 1.574 . S
C1091 C1110 1.368 . S
C1091 H1115 0.949 . S
H1092 C1096 0.949 . S
C1093 C1094 1.349 . S
C1093 C1095 1.327 . S
C1093 H1116 0.950 . S
C1094 C1093 1.349 . S
C1094 C1106 1.349 . S
C1095 C1093 1.327 . S
C1095 C1111 1.429 . S
C1095 H1117 0.950 . S
C1096 H1092 0.949 . S
C1096 C1104 1.574 . S
C1096 C1112 1.368 . S
H1097 C1105 0.950 . S
H1098 C1103 0.950 . S
H1099 C1104 0.949 . S
H1100 C1106 0.950 . S
H1101 C1107 0.950 . S
H1102 C1108 0.949 . S
C1103 H1098 0.950 . S
C1103 C1105 1.327 . S
C1103 C1109 1.429 . S
C1104 C1096 1.574 . S
C1104 H1099 0.949 . S
C1104 C1110 1.368 . S
C1105 C1089 1.349 . S
C1105 H1097 0.950 . S
C1105 C1103 1.327 . S
C1106 C1094 1.349 . S
C1106 H1100 0.950 . S
C1106 C1107 1.327 . S
C1107 H1101 0.950 . S
C1107 C1106 1.327 . S
C1107 C1111 1.429 . S
C1108 C1091 1.574 . S
C1108 H1102 0.949 . S
C1108 C1112 1.368 . S
C1109 C1090 1.429 . S
C1109 C1103 1.429 . S
C1109 C1110 1.523 . S
C1110 C1091 1.368 . S
C1110 C1104 1.368 . S
C1110 C1109 1.523 . S
C1111 C1095 1.429 . S
C1111 C1107 1.429 . S
C1111 C1112 1.523 . S
C1112 C1096 1.368 . S
C1112 C1108 1.368 . S
C1112 C1111 1.523 . S
H1113 C1088 0.950 . S
H1114 C1090 0.950 . S
H1115 C1091 0.949 . S
H1116 C1093 0.950 . S
H1117 C1095 0.950 . S
C1118 C1119 1.349 . S
C1118 C1120 1.327 . S
C1118 H1143 0.950 . S
C1119 C1118 1.349 . S
C1119 C1135 1.349 . S
C1120 C1118 1.327 . S
C1120 C1139 1.429 . S
C1120 H1144 0.950 . S
C1121 C1138 1.574 . S
C1121 C1140 1.368 . S
C1121 H1145 0.949 . S
H1122 C1126 0.949 . S
C1123 C1124 1.349 . S
C1123 C1125 1.327 . S
C1123 H1146 0.950 . S
C1124 C1123 1.349 . S
C1124 C1136 1.349 . S
C1125 C1123 1.327 . S
C1125 C1141 1.429 . S
C1125 H1147 0.950 . S
C1126 H1122 0.949 . S
C1126 C1134 1.574 . S
C1126 C1142 1.368 . S
H1127 C1135 0.950 . S
H1128 C1133 0.950 . S
H1129 C1134 0.949 . S
H1130 C1136 0.950 . S
H1131 C1137 0.950 . S
H1132 C1138 0.949 . S
C1133 H1128 0.950 . S
C1133 C1135 1.327 . S
C1133 C1139 1.429 . S
C1134 C1126 1.574 . S
C1134 H1129 0.949 . S
C1134 C1140 1.368 . S
C1135 C1119 1.349 . S
C1135 H1127 0.950 . S
C1135 C1133 1.327 . S
C1136 C1124 1.349 . S
C1136 H1130 0.950 . S
C1136 C1137 1.327 . S
C1137 H1131 0.950 . S
C1137 C1136 1.327 . S
C1137 C1141 1.429 . S
C1138 C1121 1.574 . S
C1138 H1132 0.949 . S
C1138 C1142 1.368 . S
C1139 C1120 1.429 . S
C1139 C1133 1.429 . S
C1139 C1140 1.523 . S
C1140 C1121 1.368 . S
C1140 C1134 1.368 . S
C1140 C1139 1.523 . S
C1141 C1125 1.429 . S
C1141 C1137 1.429 . S
C1141 C1142 1.523 . S
C1142 C1126 1.368 . S
C1142 C1138 1.368 . S
C1142 C1141 1.523 . S
H1143 C1118 0.950 . S
H1144 C1120 0.950 . S
H1145 C1121 0.949 . S
H1146 C1123 0.950 . S
H1147 C1125 0.950 . S
C1148 C1149 1.349 . S
C1148 C1150 1.327 . S
C1148 H1173 0.950 . S
C1149 C1148 1.349 . S
C1149 C1165 1.349 . S
C1150 C1148 1.327 . S
C1150 C1169 1.429 . S
C1150 H1174 0.950 . S
C1151 C1168 1.574 . S
C1151 C1170 1.368 . S
C1151 H1175 0.949 . S
H1152 C1156 0.949 . S
C1153 C1154 1.349 . S
C1153 C1155 1.327 . S
C1153 H1176 0.950 . S
C1154 C1153 1.349 . S
C1154 C1166 1.349 . S
C1155 C1153 1.327 . S
C1155 C1171 1.429 . S
C1155 H1177 0.950 . S
C1156 H1152 0.949 . S
C1156 C1164 1.574 . S
C1156 C1172 1.368 . S
H1157 C1165 0.950 . S
H1158 C1163 0.950 . S
H1159 C1164 0.949 . S
H1160 C1166 0.950 . S
H1161 C1167 0.950 . S
H1162 C1168 0.949 . S
C1163 H1158 0.950 . S
C1163 C1165 1.327 . S
C1163 C1169 1.429 . S
C1164 C1156 1.574 . S
C1164 H1159 0.949 . S
C1164 C1170 1.368 . S
C1165 C1149 1.349 . S
C1165 H1157 0.950 . S
C1165 C1163 1.327 . S
C1166 C1154 1.349 . S
C1166 H1160 0.950 . S
C1166 C1167 1.327 . S
C1167 H1161 0.950 . S
C1167 C1166 1.327 . S
C1167 C1171 1.429 . S
C1168 C1151 1.574 . S
C1168 H1162 0.949 . S
C1168 C1172 1.368 . S
C1169 C1150 1.429 . S
C1169 C1163 1.429 . S
C1169 C1170 1.523 . S
C1170 C1151 1.368 . S
C1170 C1164 1.368 . S
C1170 C1169 1.523 . S
C1171 C1155 1.429 . S
C1171 C1167 1.429 . S
C1171 C1172 1.523 . S
C1172 C1156 1.368 . S
C1172 C1168 1.368 . S
C1172 C1171 1.523 . S
H1173 C1148 0.950 . S
H1174 C1150 0.950 . S
H1175 C1151 0.949 . S
H1176 C1153 0.950 . S
H1177 C1155 0.950 . S
C1178 C1179 1.349 . S
C1178 C1180 1.327 . S
C1178 H1203 0.950 . S
C1179 C1178 1.349 . S
C1179 C1195 1.349 . S
C1180 C1178 1.327 . S
C1180 C1199 1.429 . S
C1180 H1204 0.950 . S
C1181 C1198 1.574 1_556 S
C1181 C1200 1.368 . S
C1181 H1205 0.949 . S
H1182 C1186 0.934 1_554 S
C1183 C1184 1.349 . S
C1183 C1185 1.327 . S
C1183 H1206 0.950 . S
C1184 C1183 1.349 . S
C1184 C1196 1.349 . S
C1185 C1183 1.327 . S
C1185 C1201 1.429 . S
C1185 H1207 0.950 . S
C1186 H1182 0.934 1_556 S
C1186 C1194 1.574 . S
C1186 C1202 1.368 1_556 S
H1187 C1195 0.950 . S
H1188 C1193 0.950 . S
H1189 C1194 0.949 . S
H1190 C1196 0.950 . S
H1191 C1197 0.950 . S
H1192 C1198 0.949 . S
C1193 H1188 0.950 . S
C1193 C1195 1.327 . S
C1193 C1199 1.429 . S
C1194 C1186 1.574 . S
C1194 H1189 0.949 . S
C1194 C1200 1.368 . S
C1195 C1179 1.349 . S
C1195 H1187 0.950 . S
C1195 C1193 1.327 . S
C1196 C1184 1.349 . S
C1196 H1190 0.950 . S
C1196 C1197 1.327 . S
C1197 H1191 0.950 . S
C1197 C1196 1.327 . S
C1197 C1201 1.429 . S
C1198 C1181 1.574 1_554 S
C1198 H1192 0.949 . S
C1198 C1202 1.368 . S
C1199 C1180 1.429 . S
C1199 C1193 1.429 . S
C1199 C1200 1.523 . S
C1200 C1181 1.368 . S
C1200 C1194 1.368 . S
C1200 C1199 1.523 . S
C1201 C1185 1.429 . S
C1201 C1197 1.429 . S
C1201 C1202 1.523 . S
C1202 C1186 1.368 1_554 S
C1202 C1198 1.368 . S
C1202 C1201 1.523 . S
H1203 C1178 0.950 . S
H1204 C1180 0.950 . S
H1205 C1181 0.949 . S
H1206 C1183 0.950 . S
H1207 C1185 0.950 . S
C1208 C1209 1.349 . S
C1208 C1210 1.327 . S
C1208 H1233 0.950 . S
C1209 C1208 1.349 . S
C1209 C1225 1.349 . S
C1210 C1208 1.327 . S
C1210 C1229 1.429 . S
C1210 H1234 0.950 . S
C1211 C1228 1.574 1_554 S
C1211 C1230 1.368 . S
C1211 H1235 0.949 . S
H1212 C1216 0.949 . S
C1213 C1214 1.349 . S
C1213 C1215 1.327 . S
C1213 H1236 0.950 . S
C1214 C1213 1.349 . S
C1214 C1226 1.349 . S
C1215 C1213 1.327 . S
C1215 C1231 1.429 . S
C1215 H1237 0.950 . S
C1216 H1212 0.949 . S
C1216 C1224 1.574 . S
C1216 C1232 1.368 . S
H1217 C1225 0.950 . S
H1218 C1223 0.950 . S
H1219 C1224 0.949 . S
H1220 C1226 0.950 . S
H1221 C1227 0.950 . S
H1222 C1228 0.949 . S
C1223 H1218 0.950 . S
C1223 C1225 1.327 . S
C1223 C1229 1.429 . S
C1224 C1216 1.574 . S
C1224 H1219 0.949 . S
C1224 C1230 1.368 1_556 S
C1225 C1209 1.349 . S
C1225 H1217 0.950 . S
C1225 C1223 1.327 . S
C1226 C1214 1.349 . S
C1226 H1220 0.950 . S
C1226 C1227 1.327 . S
C1227 H1221 0.950 . S
C1227 C1226 1.327 . S
C1227 C1231 1.429 . S
C1228 C1211 1.574 1_556 S
C1228 H1222 0.949 . S
C1228 C1232 1.368 . S
C1229 C1210 1.429 . S
C1229 C1223 1.429 . S
C1229 C1230 1.523 . S
C1230 C1211 1.368 . S
C1230 C1224 1.368 1_554 S
C1230 C1229 1.523 . S
C1231 C1215 1.429 . S
C1231 C1227 1.429 . S
C1231 C1232 1.523 . S
C1232 C1216 1.368 . S
C1232 C1228 1.368 . S
C1232 C1231 1.523 . S
H1233 C1208 0.950 . S
H1234 C1210 0.950 . S
H1235 C1211 0.949 . S
H1236 C1213 0.950 . S
H1237 C1215 0.950 . S
C1238 C1239 1.349 . S
C1238 C1240 1.327 . S
C1238 H1263 0.950 . S
C1239 C1238 1.349 . S
C1239 C1255 1.349 . S
C1240 C1238 1.327 . S
C1240 C1259 1.429 . S
C1240 H1264 0.950 . S
C1241 C1258 1.574 . S
C1241 C1260 1.368 . S
C1241 H1265 0.949 . S
H1242 C1246 0.949 . S
C1243 C1244 1.349 . S
C1243 C1245 1.327 . S
C1243 H1266 0.950 . S
C1244 C1243 1.349 . S
C1244 C1256 1.349 . S
C1245 C1243 1.327 . S
C1245 C1261 1.429 . S
C1245 H1267 0.950 . S
C1246 H1242 0.949 . S
C1246 C1254 1.574 . S
C1246 C1262 1.368 . S
H1247 C1255 0.950 . S
H1248 C1253 0.950 . S
H1249 C1254 0.949 . S
H1250 C1256 0.950 . S
H1251 C1257 0.950 . S
H1252 C1258 0.949 . S
C1253 H1248 0.950 . S
C1253 C1255 1.327 . S
C1253 C1259 1.429 . S
C1254 C1246 1.574 . S
C1254 H1249 0.949 . S
C1254 C1260 1.368 . S
C1255 C1239 1.349 . S
C1255 H1247 0.950 . S
C1255 C1253 1.327 . S
C1256 C1244 1.349 . S
C1256 H1250 0.950 . S
C1256 C1257 1.327 . S
C1257 H1251 0.950 . S
C1257 C1256 1.327 . S
C1257 C1261 1.429 . S
C1258 C1241 1.574 . S
C1258 H1252 0.949 . S
C1258 C1262 1.368 . S
C1259 C1240 1.429 . S
C1259 C1253 1.429 . S
C1259 C1260 1.523 . S
C1260 C1241 1.368 . S
C1260 C1254 1.368 . S
C1260 C1259 1.523 . S
C1261 C1245 1.429 . S
C1261 C1257 1.429 . S
C1261 C1262 1.523 . S
C1262 C1246 1.368 . S
C1262 C1258 1.368 . S
C1262 C1261 1.523 . S
H1263 C1238 0.950 . S
H1264 C1240 0.950 . S
H1265 C1241 0.949 . S
H1266 C1243 0.950 . S
H1267 C1245 0.950 . S
C1268 C1269 1.349 . S
C1268 C1270 1.327 . S
C1268 H1293 0.950 . S
C1269 C1268 1.349 . S
C1269 C1285 1.349 . S
C1270 C1268 1.327 . S
C1270 C1289 1.429 . S
C1270 H1294 0.950 . S
C1271 C1288 1.574 . S
C1271 C1290 1.368 . S
C1271 H1295 0.949 . S
H1272 C1276 0.949 . S
C1273 C1274 1.349 . S
C1273 C1275 1.327 . S
C1273 H1296 0.950 . S
C1274 C1273 1.349 . S
C1274 C1286 1.349 . S
C1275 C1273 1.327 . S
C1275 C1291 1.429 . S
C1275 H1297 0.950 . S
C1276 H1272 0.949 . S
C1276 C1284 1.574 . S
C1276 C1292 1.368 . S
H1277 C1285 0.950 . S
H1278 C1283 0.950 . S
H1279 C1284 0.949 . S
H1280 C1286 0.950 . S
H1281 C1287 0.950 . S
H1282 C1288 0.949 . S
C1283 H1278 0.950 . S
C1283 C1285 1.327 . S
C1283 C1289 1.429 . S
C1284 C1276 1.574 . S
C1284 H1279 0.949 . S
C1284 C1290 1.368 . S
C1285 C1269 1.349 . S
C1285 H1277 0.950 . S
C1285 C1283 1.327 . S
C1286 C1274 1.349 . S
C1286 H1280 0.950 . S
C1286 C1287 1.327 . S
C1287 H1281 0.950 . S
C1287 C1286 1.327 . S
C1287 C1291 1.429 . S
C1288 C1271 1.574 . S
C1288 H1282 0.949 . S
C1288 C1292 1.368 . S
C1289 C1270 1.429 . S
C1289 C1283 1.429 . S
C1289 C1290 1.523 . S
C1290 C1271 1.368 . S
C1290 C1284 1.368 . S
C1290 C1289 1.523 . S
C1291 C1275 1.429 . S
C1291 C1287 1.429 . S
C1291 C1292 1.523 . S
C1292 C1276 1.368 . S
C1292 C1288 1.368 . S
C1292 C1291 1.523 . S
H1293 C1268 0.950 . S
H1294 C1270 0.950 . S
H1295 C1271 0.949 . S
H1296 C1273 0.950 . S
H1297 C1275 0.950 . S
C1298 C1299 1.349 . S
C1298 C1300 1.327 . S
C1298 H1323 0.950 . S
C1299 C1298 1.349 . S
C1299 C1315 1.349 . S
C1300 C1298 1.327 . S
C1300 C1319 1.429 . S
C1300 H1324 0.950 . S
C1301 C1318 1.574 . S
C1301 C1320 1.368 . S
C1301 H1325 0.949 . S
H1302 C1306 0.949 . S
C1303 C1304 1.349 . S
C1303 C1305 1.327 . S
C1303 H1326 0.950 . S
C1304 C1303 1.349 . S
C1304 C1316 1.349 . S
C1305 C1303 1.327 . S
C1305 C1321 1.429 . S
C1305 H1327 0.950 . S
C1306 H1302 0.949 . S
C1306 C1314 1.574 . S
C1306 C1322 1.368 . S
H1307 C1315 0.950 . S
H1308 C1313 0.950 . S
H1309 C1314 0.949 . S
H1310 C1316 0.950 . S
H1311 C1317 0.950 . S
H1312 C1318 0.949 . S
C1313 H1308 0.950 . S
C1313 C1315 1.327 . S
C1313 C1319 1.429 . S
C1314 C1306 1.574 . S
C1314 H1309 0.949 . S
C1314 C1320 1.368 . S
C1315 C1299 1.349 . S
C1315 H1307 0.950 . S
C1315 C1313 1.327 . S
C1316 C1304 1.349 . S
C1316 H1310 0.950 . S
C1316 C1317 1.327 . S
C1317 H1311 0.950 . S
C1317 C1316 1.327 . S
C1317 C1321 1.429 . S
C1318 C1301 1.574 . S
C1318 H1312 0.949 . S
C1318 C1322 1.368 . S
C1319 C1300 1.429 . S
C1319 C1313 1.429 . S
C1319 C1320 1.523 . S
C1320 C1301 1.368 . S
C1320 C1314 1.368 . S
C1320 C1319 1.523 . S
C1321 C1305 1.429 . S
C1321 C1317 1.429 . S
C1321 C1322 1.523 . S
C1322 C1306 1.368 . S
C1322 C1318 1.368 . S
C1322 C1321 1.523 . S
H1323 C1298 0.950 . S
H1324 C1300 0.950 . S
H1325 C1301 0.949 . S
H1326 C1303 0.950 . S
H1327 C1305 0.950 . S
C369 C246 2.160 . S
C374 C16 2.160 . S
C399 N35 2.049 . S
C404 N265 2.049 . S
C429 C200 2.160 . S
C434 C62 2.160 . S
C459 N219 2.049 . S
C464 N81 2.049 . S
C489 C108 2.160 . S
C494 C338 2.160 . S
C519 N357 2.049 . S
C524 N127 2.049 . S
C549 C154 2.160 . S
C554 C292 2.160 . S
C579 N311 2.049 . S
C584 N173 2.049 . S
C609 C237 1.133 . S
C614 C7 1.133 . S
C639 N25 0.903 . S
C644 N255 0.903 . S
C669 C53 1.133 . S
C674 C191 1.133 . S
C699 N71 0.902 . S
C704 N209 0.902 . S
C729 C99 1.132 . S
C734 C329 1.132 . S
C759 N117 0.902 . S
C764 N347 0.902 . S
C789 C283 1.133 . S
C794 C145 1.133 . S
C819 N301 0.903 . S
C824 N163 0.903 . S
C849 N2 1.631 . S
C854 N140 1.631 . S
C879 C30 1.660 . S
C884 C168 1.660 . S
C909 N48 1.631 . S
C914 N94 1.631 . S
C939 C76 1.661 . S
C944 C122 1.661 . S
C969 N186 1.631 . S
C974 N324 1.631 . S
C999 C352 1.661 . S
C1004 C214 1.661 . S
C1029 N232 1.631 . S
C1034 N278 1.631 . S
C1059 C306 1.660 . S
C1064 C260 1.660 . S
C1089 N12 1.707 . S
C1094 C361 1.692 . S
C1119 N288 1.708 . S
C1124 C39 1.692 . S
C1149 C315 1.692 . S
C1154 N58 1.707 . S
C1179 N334 1.708 . S
C1184 C85 1.692 . S
C1209 C223 1.692 . S
C1214 N104 1.708 . S
C1239 N242 1.708 . S
C1244 C131 1.692 . S
C1269 N150 1.707 . S
C1274 C269 1.692 . S
C1299 C177 1.692 . S
C1304 N196 1.707 . S
