# Generated by pormake.
# Topology sml, (6)-cn, num edge types: 1
# Building blocks:
#     Node 0, Type 0, BuildingBlock: OJICUG_clean_sbu_0, # of connection points: 6
#     Node 1, Type 0, BuildingBlock: OJICUG_clean_sbu_0, # of connection points: 6
#     Node 2, Type 0, BuildingBlock: OJICUG_clean_sbu_0, # of connection points: 6
#     Node 3, Type 0, BuildingBlock: OJICUG_clean_sbu_0, # of connection points: 6
#     Node 4, Type 0, BuildingBlock: OJICUG_clean_sbu_0, # of connection points: 6
#     Node 5, Type 0, BuildingBlock: OJICUG_clean_sbu_0, # of connection points: 6
#     Edge 6, Type (0, 0), BuildingBlock: KIFKEQ_clean_linker_1, # of connection points: 2
#     Edge 7, Type (0, 0), BuildingBlock: KIFKEQ_clean_linker_1, # of connection points: 2
#     Edge 8, Type (0, 0), BuildingBlock: KIFKEQ_clean_linker_1, # of connection points: 2
#     Edge 9, Type (0, 0), BuildingBlock: KIFKEQ_clean_linker_1, # of connection points: 2
#     Edge 10, Type (0, 0), BuildingBlock: KIFKEQ_clean_linker_1, # of connection points: 2
#     Edge 11, Type (0, 0), BuildingBlock: KIFKEQ_clean_linker_1, # of connection points: 2
#     Edge 12, Type (0, 0), BuildingBlock: KIFKEQ_clean_linker_1, # of connection points: 2
#     Edge 13, Type (0, 0), BuildingBlock: KIFKEQ_clean_linker_1, # of connection points: 2
#     Edge 14, Type (0, 0), BuildingBlock: KIFKEQ_clean_linker_1, # of connection points: 2
#     Edge 15, Type (0, 0), BuildingBlock: KIFKEQ_clean_linker_1, # of connection points: 2
#     Edge 16, Type (0, 0), BuildingBlock: KIFKEQ_clean_linker_1, # of connection points: 2
#     Edge 17, Type (0, 0), BuildingBlock: KIFKEQ_clean_linker_1, # of connection points: 2
#     Edge 18, Type (0, 0), BuildingBlock: KIFKEQ_clean_linker_1, # of connection points: 2
#     Edge 19, Type (0, 0), BuildingBlock: KIFKEQ_clean_linker_1, # of connection points: 2
#     Edge 20, Type (0, 0), BuildingBlock: KIFKEQ_clean_linker_1, # of connection points: 2
#     Edge 21, Type (0, 0), BuildingBlock: KIFKEQ_clean_linker_1, # of connection points: 2
#     Edge 22, Type (0, 0), BuildingBlock: KIFKEQ_clean_linker_1, # of connection points: 2
#     Edge 23, Type (0, 0), BuildingBlock: KIFKEQ_clean_linker_1, # of connection points: 2
# Relax obj value: 0.230
# Max RMSD: 0.261
# Mean RMSD: 0.261
data_MOF--net-sml--node1-OJICUG_clean_sbu_0--edge1-KIFKEQ_clean_linker_1
_symmetry_space_group_name_H-M    P1
_symmetry_Int_Tables_number       1
_symmetry_cell_setting            triclinic
loop_
_symmetry_equiv_pos_as_xyz
'x, y, z'
_cell_length_a     42.699143
_cell_length_b     42.714233
_cell_length_c     15.807922
_cell_angle_alpha  89.951057
_cell_angle_beta   89.984678
_cell_angle_gamma 119.89501
loop_
_atom_site_label
_atom_site_type_symbol
_atom_site_fract_x
_atom_site_fract_y
_atom_site_fract_z
_atom_type_partial_charge
Sc0 Sc 0.18185 0.36057 0.00492 0.0
Sc1 Sc 0.25866 0.44345 0.05207 0.0
Sc2 Sc 0.18556 0.44204 0.95021 0.0
O3 O 0.20862 0.41513 0.00226 0.0
C4 C 0.17029 0.3809 0.81517 0.0
C5 C 0.26141 0.37584 0.97369 0.0
C6 C 0.269 0.49065 0.89607 0.0
C7 C 0.21459 0.38394 0.19258 0.0
C8 C 0.11757 0.37612 0.03745 0.0
C9 C 0.22314 0.49223 0.10107 0.0
O10 O 0.1689 0.35812 0.86997 0.0
O11 O 0.27649 0.40679 0.00821 0.0
O12 O 0.23676 0.48494 0.90076 0.0
O13 O 0.19351 0.36018 0.1394 0.0
O14 O 0.13162 0.40562 -0.00337 0.0
O15 O 0.24992 0.48684 0.09714 0.0
O16 O 0.13305 0.35765 0.04621 0.0
O17 O 0.2391 0.41553 0.17055 0.0
O18 O 0.19362 0.4725 0.06283 0.0
O19 O 0.2275 0.35659 0.96615 0.0
O20 O 0.1766 0.41245 0.83484 0.0
O21 O 0.27969 0.47211 0.93666 0.0
Sc22 Sc 0.73374 0.18595 0.28499 0.0
Sc23 Sc 0.80438 0.2571 0.39397 0.0
Sc24 Sc 0.81039 0.18083 0.34039 0.0
O25 O 0.78298 0.20781 0.33978 0.0
C26 C 0.73083 0.11501 0.35864 0.0
C27 C 0.71935 0.2213 0.436 0.0
C28 C 0.81727 0.21012 0.53034 0.0
C29 C 0.76955 0.2707 0.24037 0.0
C30 C 0.78128 0.17313 0.15006 0.0
C31 C 0.87585 0.2605 0.32236 0.0
O32 O 0.71565 0.13071 0.32354 0.0
O33 O 0.75145 0.24817 0.43377 0.0
O34 O 0.81959 0.18941 0.47545 0.0
O35 O 0.74269 0.23861 0.24304 0.0
O36 O 0.80219 0.17134 0.20529 0.0
O37 O 0.85986 0.27549 0.35694 0.0
O38 O 0.75555 0.17903 0.16826 0.0
O39 O 0.79895 0.2798 0.27864 0.0
O40 O 0.8605 0.22687 0.30987 0.0
O41 O 0.71064 0.19168 0.39935 0.0
O42 O 0.76449 0.13062 0.37105 0.0
O43 O 0.81095 0.23553 0.51159 0.0
Sc44 Sc 0.62677 0.80377 0.65273 0.0
Sc45 Sc 0.54538 0.80022 0.70754 0.0
Sc46 Sc 0.54373 0.72723 0.6048 0.0
O47 O 0.57219 0.77714 0.65512 0.0
C48 C 0.60357 0.77134 0.46491 0.0
C49 C 0.6118 0.86854 0.62247 0.0
C50 C 0.4956 0.76344 0.55548 0.0
C51 C 0.60632 0.81485 0.84264 0.0
C52 C 0.61117 0.72402 0.68286 0.0
C53 C 0.49618 0.7167 0.76017 0.0
O54 O 0.62723 0.79249 0.51815 0.0
O55 O 0.58215 0.85429 0.66267 0.0
O56 O 0.50072 0.73649 0.55919 0.0
O57 O 0.62911 0.81632 0.7878 0.0
O58 O 0.5801 0.70904 0.64886 0.0
O59 O 0.50211 0.749 0.75587 0.0
O60 O 0.63054 0.75791 0.69037 0.0
O61 O 0.57476 0.8086 0.82304 0.0
O62 O 0.51473 0.706 0.71973 0.0
O63 O 0.63011 0.85292 0.61283 0.0
O64 O 0.57196 0.74681 0.48674 0.0
O65 O 0.51525 0.79274 0.5946 0.0
Sc66 Sc 0.79384 0.54416 0.9775 0.0
Sc67 Sc 0.73054 0.5469 0.11523 0.0
Sc68 Sc 0.80437 0.62744 0.0423 0.0
O69 O 0.77629 0.57268 0.04514 0.0
C70 C 0.8676 0.60804 0.04714 0.0
C71 C 0.76535 0.49821 0.14888 0.0
C72 C 0.78227 0.61355 0.23383 0.0
C73 C 0.70959 0.49464 0.95495 0.0
C74 C 0.80869 0.60886 0.85125 0.0
C75 C 0.72257 0.60989 0.03276 0.0
O76 O 0.84781 0.57485 0.02871 0.0
O77 O 0.74764 0.51272 0.17723 0.0
O78 O 0.80597 0.63083 0.1777 0.0
O79 O 0.74105 0.50903 0.92223 0.0
O80 O 0.80528 0.62845 0.90671 0.0
O81 O 0.70853 0.57689 0.05402 0.0
O82 O 0.80762 0.57923 0.86865 0.0
O83 O 0.70309 0.50525 0.02418 0.0
O84 O 0.75637 0.63183 0.03555 0.0
O85 O 0.78153 0.50617 0.07799 0.0
O86 O 0.85594 0.63019 0.04782 0.0
O87 O 0.75258 0.58496 0.21813 0.0
Sc88 Sc 0.17987 0.81042 0.32424 0.0
Sc89 Sc 0.18574 0.73403 0.38246 0.0
Sc90 Sc 0.25616 0.80417 0.26679 0.0
O91 O 0.20725 0.78289 0.3245 0.0
C92 C 0.20756 0.81746 0.13397 0.0
C93 C 0.11425 0.72989 0.30887 0.0
C94 C 0.22029 0.71934 0.22443 0.0
C95 C 0.17261 0.78285 0.51471 0.0
C96 C 0.26051 0.87585 0.33961 0.0
C97 C 0.27052 0.76956 0.42524 0.0
O98 O 0.18565 0.81736 0.18888 0.0
O99 O 0.13129 0.71494 0.33776 0.0
O100 O 0.24567 0.75205 0.21871 0.0
O101 O 0.17282 0.80477 0.45962 0.0
O102 O 0.27543 0.8587 0.3112 0.0
O103 O 0.23774 0.74433 0.4309 0.0
O104 O 0.22662 0.86165 0.34692 0.0
O105 O 0.17658 0.75594 0.4966 0.0
O106 O 0.28085 0.79641 0.37602 0.0
O107 O 0.12855 0.76377 0.30137 0.0
O108 O 0.2344 0.81338 0.15234 0.0
O109 O 0.19342 0.7092 0.27351 0.0
Sc110 Sc 0.44104 0.25975 0.54029 0.0
Sc111 Sc 0.44364 0.19551 0.67583 0.0
Sc112 Sc 0.36023 0.18482 0.61008 0.0
O113 O 0.41513 0.21334 0.60854 0.0
C114 C 0.37643 0.26611 0.62084 0.0
C115 C 0.49166 0.28027 0.70334 0.0
C116 C 0.37851 0.17968 0.80143 0.0
C117 C 0.49099 0.22571 0.50738 0.0
C118 C 0.37556 0.20806 0.41848 0.0
C119 C 0.38008 0.12193 0.60336 0.0
O120 O 0.40926 0.2806 0.59782 0.0
O121 O 0.47898 0.24819 0.73145 0.0
O122 O 0.35859 0.18239 0.74563 0.0
O123 O 0.47755 0.24474 0.48134 0.0
O124 O 0.35727 0.18475 0.47462 0.0
O125 O 0.41299 0.14153 0.62451 0.0
O126 O 0.40467 0.23723 0.43446 0.0
O127 O 0.4816 0.20769 0.5757 0.0
O128 O 0.35798 0.13363 0.60099 0.0
O129 O 0.48054 0.28737 0.63563 0.0
O130 O 0.35512 0.23221 0.62035 0.0
O131 O 0.40863 0.18175 0.78457 0.0
H132 H 0.30729 0.25285 0.62414 0.0
H133 H 0.41504 0.32929 0.70863 0.0
H134 H 0.28286 0.2824 0.71157 0.0
H135 H 0.3904 0.35834 0.79896 0.0
H136 H 0.32855 0.41554 0.90219 0.0
H137 H 0.35895 0.39284 0.81004 0.0
H138 H 0.27444 0.28346 0.86084 0.0
H139 H 0.24379 0.3061 0.94996 0.0
C140 C 0.3258 0.27629 0.66073 0.0
C141 C 0.36301 0.28859 0.66002 0.0
C142 C 0.31179 0.293 0.71164 0.0
C143 C 0.33457 0.32209 0.76423 0.0
C144 C 0.37211 0.33594 0.75943 0.0
C145 C 0.38623 0.31939 0.70746 0.0
C146 C 0.31696 0.38664 0.89481 0.0
C147 C 0.28366 0.36257 0.93262 0.0
C148 C 0.33426 0.37364 0.84178 0.0
C149 C 0.31863 0.33638 0.82627 0.0
C150 C 0.2866 0.31238 0.86897 0.0
C151 C 0.26922 0.32531 0.92091 0.0
H152 H 0.09723 0.33669 0.181 0.0
H153 H 0.06204 0.38967 0.00302 0.0
H154 H 0.04157 0.31485 0.25974 0.0
H155 H 0.00489 0.36632 0.08127 0.0
H156 H 0.91413 0.33325 0.28381 0.0
H157 H 0.97461 0.36615 0.21948 0.0
H158 H 0.98121 0.26846 0.22532 0.0
H159 H 0.92236 0.23641 0.29033 0.0
C160 C 0.07735 0.34337 0.1581 0.0
C161 C 0.08355 0.36406 0.08441 0.0
C162 C 0.04547 0.33095 0.20355 0.0
C163 C 0.01856 0.33828 0.17586 0.0
C164 C 0.02524 0.36033 0.10419 0.0
C165 C 0.05768 0.37335 0.059 0.0
C166 C 0.92895 0.31917 0.27257 0.0
C167 C 0.91349 0.28226 0.29216 0.0
C168 C 0.9633 0.33784 0.23503 0.0
C169 C 0.98269 0.31991 0.21763 0.0
C170 C 0.96733 0.28328 0.23908 0.0
C171 C 0.93336 0.26479 0.27597 0.0
H172 H 0.75621 0.0705 0.40248 0.0
H173 H 0.65711 0.0744 0.38515 0.0
H174 H 0.72359 0.01082 0.46288 0.0
H175 H 0.62381 0.01312 0.44507 0.0
H176 H 0.59537 0.92211 0.65649 0.0
H177 H 0.62005 0.98084 0.58488 0.0
H178 H 0.67974 0.95056 0.41513 0.0
H179 H 0.65635 0.89317 0.48706 0.0
C180 C 0.72729 0.05849 0.4108 0.0
C181 C 0.70928 0.07731 0.38881 0.0
C182 C 0.70852 0.02404 0.4451 0.0
C183 C 0.6711 0.00715 0.45811 0.0
C184 C 0.65272 0.02563 0.43587 0.0
C185 C 0.67168 0.06046 0.40095 0.0
C186 C 0.61374 0.92816 0.6038 0.0
C187 C 0.62473 0.90349 0.57897 0.0
C188 C 0.62756 0.96153 0.56241 0.0
C189 C 0.65222 0.97042 0.49528 0.0
C190 C 0.66149 0.94484 0.46796 0.0
C191 C 0.64816 0.91197 0.50954 0.0
H192 H 0.57168 0.65678 0.75411 0.0
H193 H 0.68098 0.74158 0.70479 0.0
H194 H 0.59477 0.62633 0.84513 0.0
H195 H 0.70396 0.71094 0.79293 0.0
H196 H 0.73486 0.67868 0.03031 0.0
H197 H 0.70482 0.70268 0.94316 0.0
H198 H 0.63004 0.59512 0.85415 0.0
H199 H 0.65965 0.57086 0.94398 0.0
C200 C 0.60061 0.66837 0.76091 0.0
C201 C 0.62455 0.70171 0.72308 0.0
C202 C 0.61382 0.65104 0.81327 0.0
C203 C 0.65115 0.66672 0.82808 0.0
C204 C 0.675 0.69875 0.78525 0.0
C205 C 0.66186 0.71613 0.73393 0.0
C206 C 0.7116 0.66005 -0.00663 0.0
C207 C 0.69981 0.62296 -0.00657 0.0
C208 C 0.69459 0.67382 0.94269 0.0
C209 C 0.66569 0.65092 0.8898 0.0
C210 C 0.65231 0.61348 0.89394 0.0
C211 C 0.66918 0.59958 0.9456 0.0
H212 H 0.06294 0.74937 0.29858 0.0
H213 H 0.08106 0.66024 0.24864 0.0
H214 H 0.00409 0.71676 0.23209 0.0
H215 H 0.02194 0.62762 0.17909 0.0
H216 H 0.89599 0.57163 0.13125 0.0
H217 H 0.95576 0.59816 0.19759 0.0
H218 H 0.98369 0.70176 0.089 0.0
H219 H 0.92406 0.67569 0.02585 0.0
C220 C 0.05426 0.72268 0.27348 0.0
C221 C 0.07678 0.70753 0.27809 0.0
C222 C 0.0206 0.70407 0.23465 0.0
C223 C 0.00869 0.66997 0.19822 0.0
C224 C 0.0304 0.6539 0.20633 0.0
C225 C 0.06419 0.67252 0.24622 0.0
C226 C 0.91524 0.59992 0.12059 0.0
C227 C 0.90528 0.62176 0.07447 0.0
C228 C 0.94941 0.6151 0.15859 0.0
C229 C 0.97413 0.65227 0.15035 0.0
C230 C 0.96487 0.67331 0.09902 0.0
C231 C 0.93079 0.65833 0.0622 0.0
H232 H 0.41753 0.09378 0.52273 0.0
H233 H 0.31206 0.06557 0.61929 0.0
H234 H 0.39177 0.0343 0.45526 0.0
H235 H 0.28673 0.00627 0.55501 0.0
H236 H 0.24162 0.92761 0.34453 0.0
H237 H 0.2738 0.9865 0.4109 0.0
H238 H 0.3617 0.96787 0.47342 0.0
H239 H 0.32954 0.90869 0.40394 0.0
C240 C 0.38907 0.07457 0.53117 0.0
C241 C 0.36665 0.08441 0.57517 0.0
C242 C 0.37432 0.04057 0.49252 0.0
C243 C 0.33703 0.01591 0.49796 0.0
C244 C 0.31533 0.02505 0.54714 0.0
C245 C 0.32988 0.05894 0.5846 0.0
C246 C 0.26797 0.93615 0.37163 0.0
C247 C 0.28288 0.91338 0.36983 0.0
C248 C 0.28632 0.96982 0.41037 0.0
C249 C 0.31989 0.9815 0.44955 0.0
C250 C 0.33582 0.95958 0.44405 0.0
C251 C 0.31747 0.92577 0.40421 0.0
H252 H 0.17403 0.32493 0.73656 0.0
H253 H 0.16352 0.41869 0.68436 0.0
H254 H 0.18294 0.31956 0.58459 0.0
H255 H 0.17303 0.41348 0.53479 0.0
H256 H 0.25283 0.42842 0.32322 0.0
H257 H 0.23727 0.42101 0.47245 0.0
H258 H 0.14649 0.31523 0.42394 0.0
H259 H 0.16152 0.3226 0.27239 0.0
C260 C 0.17277 0.34384 0.69293 0.0
C261 C 0.1685 0.37253 0.72319 0.0
C262 C 0.17795 0.34076 0.60609 0.0
C263 C 0.17917 0.36645 0.54855 0.0
C264 C 0.17263 0.3936 0.5781 0.0
C265 C 0.16716 0.3965 0.66402 0.0
C266 C 0.2298 0.40325 0.34371 0.0
C267 C 0.20825 0.37627 0.28497 0.0
C268 C 0.22091 0.39911 0.42947 0.0
C269 C 0.19053 0.36774 0.45933 0.0
C270 C 0.17009 0.33967 0.40224 0.0
C271 C 0.17875 0.34396 0.3156 0.0
H272 H 0.73311 0.14576 0.02019 0.0
H273 H 0.84721 0.19832 0.07627 0.0
H274 H 0.74678 0.15131 0.86858 0.0
H275 H 0.86075 0.20487 0.9243 0.0
H276 H 0.84277 0.25822 0.66067 0.0
H277 H 0.83776 0.24445 0.81221 0.0
H278 H 0.78813 0.13082 0.75586 0.0
H279 H 0.79414 0.14449 0.60401 0.0
C280 C 0.76103 0.15794 5e-05 0.0
C281 C 0.7891 0.17158 0.05975 0.0
C282 C 0.76879 0.16099 0.91361 0.0
C283 C 0.80475 0.17847 0.88557 0.0
C284 C 0.83283 0.19114 0.94495 0.0
C285 C 0.82505 0.18725 0.03154 0.0
C286 C 0.83154 0.23039 0.68065 0.0
C287 C 0.81886 0.20243 0.62078 0.0
C288 C 0.82882 0.22258 0.76705 0.0
C289 C 0.81263 0.18665 0.7949 0.0
C290 C 0.80087 0.15872 0.73536 0.0
C291 C 0.80443 0.16659 0.64883 0.0
H292 H 0.6647 0.82482 0.38542 0.0
H293 H 0.55965 0.73237 0.33422 0.0
H294 H 0.67212 0.83962 0.23376 0.0
H295 H 0.56711 0.7477 0.18484 0.0
H296 H 0.56859 0.82158 0.97355 0.0
H297 H 0.57407 0.81228 0.12312 0.0
H298 H 0.66803 0.80247 0.07284 0.0
H299 H 0.6624 0.81118 0.92086 0.0
C300 C 0.64353 0.8073 0.34211 0.0
C301 C 0.61139 0.77757 0.37262 0.0
C302 C 0.64786 0.81582 0.25543 0.0
C303 C 0.62 0.79498 0.19823 0.0
C304 C 0.58884 0.76435 0.22797 0.0
C305 C 0.58466 0.75561 0.31378 0.0
C306 C 0.59084 0.818 -0.00623 0.0
C307 C 0.61475 0.81663 0.93451 0.0
C308 C 0.5939 0.81267 0.07968 0.0
C309 C 0.62116 0.80623 0.10905 0.0
C310 C 0.64677 0.80739 0.05141 0.0
C311 C 0.64354 0.81245 0.96459 0.0
H312 H 0.83949 0.59107 0.72289 0.0
H313 H 0.78504 0.65114 0.77773 0.0
H314 H 0.83852 0.6032 0.57228 0.0
H315 H 0.78365 0.66273 0.62654 0.0
H316 H 0.73467 0.60406 0.35915 0.0
H317 H 0.74722 0.61324 0.5105 0.0
H318 H 0.86088 0.65651 0.46106 0.0
H319 H 0.84849 0.64796 0.30907 0.0
C320 C 0.82778 0.60727 0.70282 0.0
C321 C 0.81204 0.61987 0.7618 0.0
C322 C 0.82754 0.61448 0.61685 0.0
C323 C 0.81103 0.63389 0.58831 0.0
C324 C 0.79656 0.64774 0.64737 0.0
C325 C 0.79741 0.64112 0.73363 0.0
C326 C 0.76242 0.61632 0.38048 0.0
C327 C 0.79057 0.625 0.32271 0.0
C328 C 0.76961 0.62179 0.46687 0.0
C329 C 0.80496 0.63541 0.49696 0.0
C330 C 0.8334 0.64592 0.43902 0.0
C331 C 0.8263 0.64113 0.35232 0.0
H332 H 0.19918 0.84884 0.58856 0.0
H333 H 0.14317 0.73456 0.64406 0.0
H334 H 0.20481 0.86211 0.7404 0.0
H335 H 0.14794 0.74799 0.79557 0.0
H336 H 0.14163 0.79161 0.06007 0.0
H337 H 0.12835 0.78618 0.90826 0.0
H338 H 0.24248 0.84173 0.85301 0.0
H339 H 0.25592 0.84629 0.00452 0.0
C340 C 0.18722 0.82661 0.6331 0.0
C341 C 0.17085 0.79066 0.60482 0.0
C342 C 0.19058 0.83423 0.71964 0.0
C343 C 0.17673 0.80602 0.7789 0.0
C344 C 0.15854 0.77012 0.75067 0.0
C345 C 0.15597 0.76248 0.66429 0.0
C346 C 0.16388 0.80331 0.01552 0.0
C347 C 0.19982 0.81925 0.0438 0.0
C348 C 0.15624 0.80008 0.92899 0.0
C349 C 0.18444 0.81363 0.86973 0.0
C350 C 0.22037 0.83138 0.89793 0.0
C351 C 0.22801 0.83382 0.98431 0.0
H352 H 0.33953 0.14175 0.3443 0.0
H353 H 0.38717 0.25581 0.2918 0.0
H354 H 0.33052 0.12892 0.19253 0.0
H355 H 0.37745 0.24281 0.14063 0.0
H356 H 0.33679 0.20398 0.87469 0.0
H357 H 0.32593 0.20619 0.02608 0.0
H358 H 0.3843 0.15014 0.08046 0.0
H359 H 0.39581 0.14847 0.92967 0.0
C360 C 0.34713 0.16393 0.30055 0.0
C361 C 0.36437 0.19981 0.32944 0.0
C362 C 0.34205 0.15657 0.214 0.0
C363 C 0.35335 0.18491 0.1555 0.0
C364 C 0.36825 0.22052 0.18478 0.0
C365 C 0.37403 0.22795 0.27104 0.0
C366 C 0.34665 0.19149 0.9189 0.0
C367 C 0.36745 0.17636 0.89075 0.0
C368 C 0.34047 0.19282 0.00522 0.0
C369 C 0.35426 0.1783 0.06431 0.0
C370 C 0.3731 0.16119 0.03582 0.0
C371 C 0.37993 0.16051 0.94978 0.0
H372 H 0.28226 0.55886 0.08387 0.0
H373 H 0.17465 0.50292 0.18874 0.0
H374 H 0.28423 0.6165 0.10316 0.0
H375 H 0.17711 0.5604 0.2125 0.0
H376 H 0.16864 0.65693 0.15374 0.0
H377 H 0.17283 0.60302 0.12688 0.0
H378 H 0.28607 0.66148 0.19399 0.0
H379 H 0.28202 0.71587 0.21634 0.0
C380 C 0.25963 0.55908 0.11432 0.0
C381 C 0.22831 0.52654 0.1351 0.0
C382 C 0.26061 0.59209 0.12479 0.0
C383 C 0.23044 0.59312 0.15729 0.0
C384 C 0.20033 0.56061 0.18433 0.0
C385 C 0.19911 0.52768 0.17235 0.0
C386 C 0.19464 0.65845 0.15996 0.0
C387 C 0.22502 0.69051 0.18653 0.0
C388 C 0.19698 0.62743 0.14624 0.0
C389 C 0.22955 0.62751 0.16092 0.0
C390 C 0.26055 0.66034 0.18206 0.0
C391 C 0.25834 0.69163 0.19423 0.0
H392 H 0.65532 0.1723 0.50657 0.0
H393 H 0.71498 0.28235 0.41761 0.0
H394 H 0.60057 0.17636 0.51285 0.0
H395 H 0.65978 0.28579 0.41718 0.0
H396 H 0.55579 0.28631 0.49868 0.0
H397 H 0.61366 0.2883 0.48818 0.0
H398 H 0.55796 0.17503 0.42079 0.0
H399 H 0.50023 0.17294 0.43791 0.0
C400 C 0.65674 0.19756 0.48957 0.0
C401 C 0.68933 0.22695 0.46159 0.0
C402 C 0.6252 0.19971 0.49118 0.0
C403 C 0.62524 0.23098 0.46249 0.0
C404 C 0.65846 0.26122 0.43964 0.0
C405 C 0.69026 0.25935 0.44028 0.0
C406 C 0.5562 0.26229 0.47832 0.0
C407 C 0.52379 0.22958 0.46799 0.0
C408 C 0.58937 0.26326 0.47308 0.0
C409 C 0.59066 0.23156 0.45609 0.0
C410 C 0.5581 0.19969 0.43737 0.0
C411 C 0.52498 0.19857 0.44483 0.0
H412 H 0.27417 0.55666 0.90095 0.0
H413 H 0.32847 0.50073 0.811 0.0
H414 H 0.32888 0.61454 0.87645 0.0
H415 H 0.38258 0.55836 0.78269 0.0
H416 H 0.48545 0.6567 0.84378 0.0
H417 H 0.42753 0.60287 0.87158 0.0
H418 H 0.37222 0.65776 0.77958 0.0
H419 H 0.43041 0.71217 0.75555 0.0
C420 C 0.29737 0.55684 0.8726 0.0
C421 C 0.29726 0.52435 0.85785 0.0
C422 C 0.32881 0.58998 0.8592 0.0
C423 C 0.36045 0.59106 0.82996 0.0
C424 C 0.3591 0.55847 0.80825 0.0
C425 C 0.32796 0.52546 0.82292 0.0
C426 C 0.46086 0.65752 0.83208 0.0
C427 C 0.4623 0.68848 0.79782 0.0
C428 C 0.42768 0.62654 0.84647 0.0
C429 C 0.39523 0.62563 0.82515 0.0
C430 C 0.39667 0.6575 0.7965 0.0
C431 C 0.42998 0.68877 0.78338 0.0
H432 H 0.70862 0.27547 0.25455 0.0
H433 H 0.81888 0.33366 0.16634 0.0
H434 H 0.7054 0.33072 0.24922 0.0
H435 H 0.81504 0.38839 0.15408 0.0
H436 H 0.81843 0.48979 0.21971 0.0
H437 H 0.81641 0.43229 0.24132 0.0
H438 H 0.7031 0.3758 0.1737 0.0
H439 H 0.70501 0.43346 0.15888 0.0
C440 C 0.73172 0.29985 0.23078 0.0
C441 C 0.7641 0.30042 0.21139 0.0
C442 C 0.72998 0.33167 0.22807 0.0
C443 C 0.76033 0.36452 0.20362 0.0
C444 C 0.7916 0.3641 0.17686 0.0
C445 C 0.79363 0.33256 0.18189 0.0
C446 C 0.79282 0.46494 0.21367 0.0
C447 C 0.76174 0.4658 0.18951 0.0
C448 C 0.79174 0.43194 0.22371 0.0
C449 C 0.75984 0.39918 0.2065 0.0
C450 C 0.72813 0.40024 0.1879 0.0
C451 C 0.72906 0.43329 0.18012 0.0
H452 H 0.33333 0.821 0.49502 0.0
H453 H 0.27313 0.70742 0.43519 0.0
H454 H 0.38674 0.81605 0.52342 0.0
H455 H 0.32702 0.70261 0.45897 0.0
H456 H 0.42849 0.70505 0.57211 0.0
H457 H 0.37138 0.704 0.55082 0.0
H458 H 0.42923 0.81075 0.44003 0.0
H459 H 0.48619 0.81231 0.46592 0.0
C460 C 0.33144 0.79481 0.48966 0.0
C461 C 0.29917 0.76459 0.46349 0.0
C462 C 0.36217 0.79204 0.50427 0.0
C463 C 0.36159 0.75915 0.49088 0.0
C464 C 0.32855 0.72835 0.46997 0.0
C465 C 0.29755 0.73101 0.45695 0.0
C466 C 0.42876 0.72778 0.54091 0.0
C467 C 0.46163 0.75874 0.52032 0.0
C468 C 0.39605 0.72734 0.52928 0.0
C469 C 0.39567 0.75768 0.49576 0.0
C470 C 0.42852 0.78742 0.46895 0.0
C471 C 0.46115 0.78812 0.48213 0.0
H472 H 0.70046 0.472 0.78885 0.0
H473 H 0.65015 0.44326 0.03561 0.0
H474 H 0.6483 0.41819 0.72911 0.0
H475 H 0.59875 0.39018 0.97632 0.0
H476 H 0.52744 0.2798 0.84833 0.0
H477 H 0.58244 0.33044 0.9075 0.0
H478 H 0.58226 0.40016 0.70992 0.0
H479 H 0.52782 0.35042 0.65129 0.0
C480 C 0.67846 0.45424 0.83016 0.0
C481 C 0.67918 0.46219 0.91648 0.0
C482 C 0.64866 0.42355 0.79617 0.0
C483 C 0.61955 0.40009 0.84833 0.0
C484 C 0.62089 0.40757 0.93485 0.0
C485 C 0.65022 0.4383 0.96842 0.0
C486 C 0.53897 0.30598 0.81802 0.0
C487 C 0.52304 0.3109 0.7452 0.0
C488 C 0.5705 0.33489 0.8516 0.0
C489 C 0.58681 0.36903 0.81238 0.0
C490 C 0.5707 0.37398 0.74037 0.0
C491 C 0.53916 0.3454 0.70748 0.0
loop_
_geom_bond_atom_site_label_1
_geom_bond_atom_site_label_2
_geom_bond_distance
_geom_bond_site_symmetry_2
_ccdc_geom_bond_type
Sc0 O3 2.025 . S
Sc0 O10 2.105 1_554 S
Sc0 O13 2.105 . S
Sc0 O16 2.105 . S
Sc0 O19 2.105 1_554 S
Sc1 O3 2.025 . S
Sc1 O11 2.105 . S
Sc1 O15 2.105 . S
Sc1 O17 2.105 . S
Sc1 O21 2.105 1_554 S
Sc2 O3 2.025 1_556 S
Sc2 O12 2.105 . S
Sc2 O14 2.105 . S
Sc2 O18 2.105 1_556 S
Sc2 O20 2.105 . S
O3 Sc0 2.025 . S
O3 Sc1 2.025 . S
O3 Sc2 2.025 1_554 S
C4 O10 1.268 . S
C4 O20 1.268 . S
C5 O11 1.268 1_556 S
C5 O19 1.268 . S
C6 O12 1.268 . S
C6 O21 1.268 . S
C7 O13 1.268 . S
C7 O17 1.268 . S
C8 O14 1.268 1_554 S
C8 O16 1.268 . S
C9 O15 1.268 . S
C9 O18 1.268 . S
O10 Sc0 2.105 1_556 S
O10 C4 1.268 . S
O11 Sc1 2.105 . S
O11 C5 1.268 1_554 S
O12 Sc2 2.105 . S
O12 C6 1.268 . S
O13 Sc0 2.105 . S
O13 C7 1.268 . S
O14 Sc2 2.105 . S
O14 C8 1.268 1_556 S
O15 Sc1 2.105 . S
O15 C9 1.268 . S
O16 Sc0 2.105 . S
O16 C8 1.268 . S
O17 Sc1 2.105 . S
O17 C7 1.268 . S
O18 Sc2 2.105 1_554 S
O18 C9 1.268 . S
O19 Sc0 2.105 1_556 S
O19 C5 1.268 . S
O20 Sc2 2.105 . S
O20 C4 1.268 . S
O21 Sc1 2.105 1_556 S
O21 C6 1.268 . S
Sc22 O25 2.025 . S
Sc22 O32 2.105 . S
Sc22 O35 2.105 . S
Sc22 O38 2.105 . S
Sc22 O41 2.105 . S
Sc23 O25 2.025 . S
Sc23 O33 2.105 . S
Sc23 O37 2.105 . S
Sc23 O39 2.105 . S
Sc23 O43 2.105 . S
Sc24 O25 2.025 . S
Sc24 O34 2.105 . S
Sc24 O36 2.105 . S
Sc24 O40 2.105 . S
Sc24 O42 2.105 . S
O25 Sc22 2.025 . S
O25 Sc23 2.025 . S
O25 Sc24 2.025 . S
C26 O32 1.268 . S
C26 O42 1.268 . S
C27 O33 1.268 . S
C27 O41 1.268 . S
C28 O34 1.268 . S
C28 O43 1.268 . S
C29 O35 1.268 . S
C29 O39 1.268 . S
C30 O36 1.268 . S
C30 O38 1.268 . S
C31 O37 1.268 . S
C31 O40 1.268 . S
O32 Sc22 2.105 . S
O32 C26 1.268 . S
O33 Sc23 2.105 . S
O33 C27 1.268 . S
O34 Sc24 2.105 . S
O34 C28 1.268 . S
O35 Sc22 2.105 . S
O35 C29 1.268 . S
O36 Sc24 2.105 . S
O36 C30 1.268 . S
O37 Sc23 2.105 . S
O37 C31 1.268 . S
O38 Sc22 2.105 . S
O38 C30 1.268 . S
O39 Sc23 2.105 . S
O39 C29 1.268 . S
O40 Sc24 2.105 . S
O40 C31 1.268 . S
O41 Sc22 2.105 . S
O41 C27 1.268 . S
O42 Sc24 2.105 . S
O42 C26 1.268 . S
O43 Sc23 2.105 . S
O43 C28 1.268 . S
Sc44 O47 2.025 . S
Sc44 O54 2.105 . S
Sc44 O57 2.105 . S
Sc44 O60 2.105 . S
Sc44 O63 2.105 . S
Sc45 O47 2.025 . S
Sc45 O55 2.105 . S
Sc45 O59 2.105 . S
Sc45 O61 2.105 . S
Sc45 O65 2.105 . S
Sc46 O47 2.025 . S
Sc46 O56 2.105 . S
Sc46 O58 2.105 . S
Sc46 O62 2.105 . S
Sc46 O64 2.105 . S
O47 Sc44 2.025 . S
O47 Sc45 2.025 . S
O47 Sc46 2.025 . S
C48 O54 1.268 . S
C48 O64 1.268 . S
C49 O55 1.268 . S
C49 O63 1.268 . S
C50 O56 1.268 . S
C50 O65 1.268 . S
C51 O57 1.268 . S
C51 O61 1.268 . S
C52 O58 1.268 . S
C52 O60 1.268 . S
C53 O59 1.268 . S
C53 O62 1.268 . S
O54 Sc44 2.105 . S
O54 C48 1.268 . S
O55 Sc45 2.105 . S
O55 C49 1.268 . S
O56 Sc46 2.105 . S
O56 C50 1.268 . S
O57 Sc44 2.105 . S
O57 C51 1.268 . S
O58 Sc46 2.105 . S
O58 C52 1.268 . S
O59 Sc45 2.105 . S
O59 C53 1.268 . S
O60 Sc44 2.105 . S
O60 C52 1.268 . S
O61 Sc45 2.105 . S
O61 C51 1.268 . S
O62 Sc46 2.105 . S
O62 C53 1.268 . S
O63 Sc44 2.105 . S
O63 C49 1.268 . S
O64 Sc46 2.105 . S
O64 C48 1.268 . S
O65 Sc45 2.105 . S
O65 C50 1.268 . S
Sc66 O69 2.025 1_556 S
Sc66 O76 2.105 . S
Sc66 O79 2.105 . S
Sc66 O82 2.105 . S
Sc66 O85 2.105 1_556 S
Sc67 O69 2.025 . S
Sc67 O77 2.105 . S
Sc67 O81 2.105 . S
Sc67 O83 2.105 1_554 S
Sc67 O87 2.105 . S
Sc68 O69 2.025 . S
Sc68 O78 2.105 . S
Sc68 O80 2.105 1_554 S
Sc68 O84 2.105 1_554 S
Sc68 O86 2.105 . S
O69 Sc66 2.025 1_554 S
O69 Sc67 2.025 . S
O69 Sc68 2.025 . S
C70 O76 1.268 1_554 S
C70 O86 1.268 . S
C71 O77 1.268 . S
C71 O85 1.268 . S
C72 O78 1.268 . S
C72 O87 1.268 . S
C73 O79 1.268 . S
C73 O83 1.268 . S
C74 O80 1.268 . S
C74 O82 1.268 . S
C75 O81 1.268 1_556 S
C75 O84 1.268 . S
O76 Sc66 2.105 . S
O76 C70 1.268 1_556 S
O77 Sc67 2.105 . S
O77 C71 1.268 . S
O78 Sc68 2.105 . S
O78 C72 1.268 . S
O79 Sc66 2.105 . S
O79 C73 1.268 . S
O80 Sc68 2.105 1_556 S
O80 C74 1.268 . S
O81 Sc67 2.105 . S
O81 C75 1.268 1_554 S
O82 Sc66 2.105 . S
O82 C74 1.268 . S
O83 Sc67 2.105 1_556 S
O83 C73 1.268 . S
O84 Sc68 2.105 1_556 S
O84 C75 1.268 . S
O85 Sc66 2.105 1_554 S
O85 C71 1.268 . S
O86 Sc68 2.105 . S
O86 C70 1.268 . S
O87 Sc67 2.105 . S
O87 C72 1.268 . S
Sc88 O91 2.025 . S
Sc88 O98 2.105 . S
Sc88 O101 2.105 . S
Sc88 O104 2.105 . S
Sc88 O107 2.105 . S
Sc89 O91 2.025 . S
Sc89 O99 2.105 . S
Sc89 O103 2.105 . S
Sc89 O105 2.105 . S
Sc89 O109 2.105 . S
Sc90 O91 2.025 . S
Sc90 O100 2.105 . S
Sc90 O102 2.105 . S
Sc90 O106 2.105 . S
Sc90 O108 2.105 . S
O91 Sc88 2.025 . S
O91 Sc89 2.025 . S
O91 Sc90 2.025 . S
C92 O98 1.268 . S
C92 O108 1.268 . S
C93 O99 1.268 . S
C93 O107 1.268 . S
C94 O100 1.268 . S
C94 O109 1.268 . S
C95 O101 1.268 . S
C95 O105 1.268 . S
C96 O102 1.268 . S
C96 O104 1.268 . S
C97 O103 1.268 . S
C97 O106 1.268 . S
O98 Sc88 2.105 . S
O98 C92 1.268 . S
O99 Sc89 2.105 . S
O99 C93 1.268 . S
O100 Sc90 2.105 . S
O100 C94 1.268 . S
O101 Sc88 2.105 . S
O101 C95 1.268 . S
O102 Sc90 2.105 . S
O102 C96 1.268 . S
O103 Sc89 2.105 . S
O103 C97 1.268 . S
O104 Sc88 2.105 . S
O104 C96 1.268 . S
O105 Sc89 2.105 . S
O105 C95 1.268 . S
O106 Sc90 2.105 . S
O106 C97 1.268 . S
O107 Sc88 2.105 . S
O107 C93 1.268 . S
O108 Sc90 2.105 . S
O108 C92 1.268 . S
O109 Sc89 2.105 . S
O109 C94 1.268 . S
Sc110 O113 2.025 . S
Sc110 O120 2.105 . S
Sc110 O123 2.105 . S
Sc110 O126 2.105 . S
Sc110 O129 2.105 . S
Sc111 O113 2.025 . S
Sc111 O121 2.105 . S
Sc111 O125 2.105 . S
Sc111 O127 2.105 . S
Sc111 O131 2.105 . S
Sc112 O113 2.025 . S
Sc112 O122 2.105 . S
Sc112 O124 2.105 . S
Sc112 O128 2.105 . S
Sc112 O130 2.105 . S
O113 Sc110 2.025 . S
O113 Sc111 2.025 . S
O113 Sc112 2.025 . S
C114 O120 1.268 . S
C114 O130 1.268 . S
C115 O121 1.268 . S
C115 O129 1.268 . S
C116 O122 1.268 . S
C116 O131 1.268 . S
C117 O123 1.268 . S
C117 O127 1.268 . S
C118 O124 1.268 . S
C118 O126 1.268 . S
C119 O125 1.268 . S
C119 O128 1.268 . S
O120 Sc110 2.105 . S
O120 C114 1.268 . S
O121 Sc111 2.105 . S
O121 C115 1.268 . S
O122 Sc112 2.105 . S
O122 C116 1.268 . S
O123 Sc110 2.105 . S
O123 C117 1.268 . S
O124 Sc112 2.105 . S
O124 C118 1.268 . S
O125 Sc111 2.105 . S
O125 C119 1.268 . S
O126 Sc110 2.105 . S
O126 C118 1.268 . S
O127 Sc111 2.105 . S
O127 C117 1.268 . S
O128 Sc112 2.105 . S
O128 C119 1.268 . S
O129 Sc110 2.105 . S
O129 C115 1.268 . S
O130 Sc112 2.105 . S
O130 C114 1.268 . S
O131 Sc111 2.105 . S
O131 C116 1.268 . S
H132 C140 0.950 . S
H133 C145 0.950 . S
H134 C142 0.950 . S
H135 C144 0.950 . S
H136 C146 0.950 . S
H137 C148 0.950 . S
H138 C150 0.950 . S
H139 C151 0.950 . S
C140 H132 0.950 . S
C140 C141 1.386 . S
C140 C142 1.391 . S
C141 C140 1.386 . S
C141 C145 1.393 . S
C142 H134 0.950 . S
C142 C140 1.391 . S
C142 C143 1.400 . S
C143 C142 1.400 . S
C143 C144 1.398 . S
C143 C149 1.491 . S
C144 H135 0.950 . S
C144 C143 1.398 . S
C144 C145 1.391 . S
C145 H133 0.950 . S
C145 C141 1.393 . S
C145 C144 1.391 . S
C146 H136 0.950 . S
C146 C147 1.386 . S
C146 C148 1.391 . S
C147 C146 1.386 . S
C147 C151 1.393 . S
C148 H137 0.950 . S
C148 C146 1.391 . S
C148 C149 1.400 . S
C149 C143 1.491 . S
C149 C148 1.400 . S
C149 C150 1.398 . S
C150 H138 0.950 . S
C150 C149 1.398 . S
C150 C151 1.391 . S
C151 H139 0.950 . S
C151 C147 1.393 . S
C151 C150 1.391 . S
H152 C160 0.950 . S
H153 C165 0.950 1_556 S
H154 C162 0.950 . S
H155 C164 0.950 . S
H156 C166 0.950 . S
H157 C168 0.950 . S
H158 C170 0.950 . S
H159 C171 0.950 . S
C160 H152 0.950 . S
C160 C161 1.386 . S
C160 C162 1.391 . S
C161 C160 1.386 . S
C161 C165 1.393 . S
C162 H154 0.950 . S
C162 C160 1.391 . S
C162 C163 1.400 . S
C163 C162 1.400 . S
C163 C164 1.398 . S
C163 C169 1.491 1_455 S
C164 H155 0.950 . S
C164 C163 1.398 . S
C164 C165 1.391 . S
C165 H153 0.950 1_554 S
C165 C161 1.393 . S
C165 C164 1.391 . S
C166 H156 0.950 . S
C166 C167 1.386 . S
C166 C168 1.391 . S
C167 C166 1.386 . S
C167 C171 1.393 . S
C168 H157 0.950 . S
C168 C166 1.391 . S
C168 C169 1.400 . S
C169 C163 1.491 1_655 S
C169 C168 1.400 . S
C169 C170 1.398 . S
C170 H158 0.950 . S
C170 C169 1.398 . S
C170 C171 1.391 . S
C171 H159 0.950 . S
C171 C167 1.393 . S
C171 C170 1.391 . S
H172 C180 0.950 . S
H173 C185 0.950 . S
H174 C182 0.935 1_565 S
H175 C184 0.950 . S
H176 C186 0.950 . S
H177 C188 0.935 1_545 S
H178 C190 0.950 . S
H179 C191 0.950 . S
C180 H172 0.950 . S
C180 C181 1.386 . S
C180 C182 1.391 . S
C181 C180 1.386 . S
C181 C185 1.393 . S
C182 H174 0.935 1_545 S
C182 C180 1.391 . S
C182 C183 1.400 . S
C183 C182 1.400 . S
C183 C184 1.398 . S
C183 C189 1.491 1_545 S
C184 H175 0.950 . S
C184 C183 1.398 . S
C184 C185 1.391 . S
C185 H173 0.950 . S
C185 C181 1.393 . S
C185 C184 1.391 . S
C186 H176 0.950 . S
C186 C187 1.386 . S
C186 C188 1.391 . S
C187 C186 1.386 . S
C187 C191 1.393 . S
C188 H177 0.935 1_565 S
C188 C186 1.391 . S
C188 C189 1.400 . S
C189 C183 1.491 1_565 S
C189 C188 1.400 . S
C189 C190 1.398 . S
C190 H178 0.950 . S
C190 C189 1.398 . S
C190 C191 1.391 . S
C191 H179 0.950 . S
C191 C187 1.393 . S
C191 C190 1.391 . S
H192 C200 0.950 . S
H193 C205 0.950 . S
H194 C202 0.950 . S
H195 C204 0.950 . S
H196 C206 0.950 . S
H197 C208 0.950 . S
H198 C210 0.950 . S
H199 C211 0.950 1_554 S
C200 H192 0.950 . S
C200 C201 1.386 . S
C200 C202 1.391 . S
C201 C200 1.386 . S
C201 C205 1.393 . S
C202 H194 0.950 . S
C202 C200 1.391 . S
C202 C203 1.400 . S
C203 C202 1.400 . S
C203 C204 1.398 . S
C203 C209 1.491 . S
C204 H195 0.950 . S
C204 C203 1.398 . S
C204 C205 1.391 . S
C205 H193 0.950 . S
C205 C201 1.393 . S
C205 C204 1.391 . S
C206 H196 0.950 . S
C206 C207 1.386 . S
C206 C208 1.391 . S
C207 C206 1.386 . S
C207 C211 1.393 . S
C208 H197 0.950 . S
C208 C206 1.391 . S
C208 C209 1.400 . S
C209 C203 1.491 . S
C209 C208 1.400 . S
C209 C210 1.398 . S
C210 H198 0.950 . S
C210 C209 1.398 . S
C210 C211 1.391 . S
C211 H199 0.950 1_556 S
C211 C207 1.393 . S
C211 C210 1.391 . S
H212 C220 0.950 . S
H213 C225 0.950 . S
H214 C222 0.950 . S
H215 C224 0.950 . S
H216 C226 0.950 . S
H217 C228 0.950 . S
H218 C230 0.950 . S
H219 C231 0.950 . S
C220 H212 0.950 . S
C220 C221 1.386 . S
C220 C222 1.391 . S
C221 C220 1.386 . S
C221 C225 1.393 . S
C222 H214 0.950 . S
C222 C220 1.391 . S
C222 C223 1.400 . S
C223 C222 1.400 . S
C223 C224 1.398 . S
C223 C229 1.491 1_455 S
C224 H215 0.950 . S
C224 C223 1.398 . S
C224 C225 1.391 . S
C225 H213 0.950 . S
C225 C221 1.393 . S
C225 C224 1.391 . S
C226 H216 0.950 . S
C226 C227 1.386 . S
C226 C228 1.391 . S
C227 C226 1.386 . S
C227 C231 1.393 . S
C228 H217 0.950 . S
C228 C226 1.391 . S
C228 C229 1.400 . S
C229 C223 1.491 1_655 S
C229 C228 1.400 . S
C229 C230 1.398 . S
C230 H218 0.950 . S
C230 C229 1.398 . S
C230 C231 1.391 . S
C231 H219 0.950 . S
C231 C227 1.393 . S
C231 C230 1.391 . S
H232 C240 0.950 . S
H233 C245 0.950 . S
H234 C242 0.950 . S
H235 C244 0.950 . S
H236 C246 0.950 . S
H237 C248 0.950 . S
H238 C250 0.950 . S
H239 C251 0.950 . S
C240 H232 0.950 . S
C240 C241 1.386 . S
C240 C242 1.391 . S
C241 C240 1.386 . S
C241 C245 1.393 . S
C242 H234 0.950 . S
C242 C240 1.391 . S
C242 C243 1.400 . S
C243 C242 1.400 . S
C243 C244 1.398 . S
C243 C249 1.491 1_545 S
C244 H235 0.950 . S
C244 C243 1.398 . S
C244 C245 1.391 . S
C245 H233 0.950 . S
C245 C241 1.393 . S
C245 C244 1.391 . S
C246 H236 0.950 . S
C246 C247 1.386 . S
C246 C248 1.391 . S
C247 C246 1.386 . S
C247 C251 1.393 . S
C248 H237 0.950 . S
C248 C246 1.391 . S
C248 C249 1.400 . S
C249 C243 1.491 1_565 S
C249 C248 1.400 . S
C249 C250 1.398 . S
C250 H238 0.950 . S
C250 C249 1.398 . S
C250 C251 1.391 . S
C251 H239 0.950 . S
C251 C247 1.393 . S
C251 C250 1.391 . S
H252 C260 0.950 . S
H253 C265 0.950 . S
H254 C262 0.950 . S
H255 C264 0.950 . S
H256 C266 0.950 . S
H257 C268 0.950 . S
H258 C270 0.950 . S
H259 C271 0.950 . S
C260 H252 0.950 . S
C260 C261 1.386 . S
C260 C262 1.391 . S
C261 C260 1.386 . S
C261 C265 1.393 . S
C262 H254 0.950 . S
C262 C260 1.391 . S
C262 C263 1.400 . S
C263 C262 1.400 . S
C263 C264 1.398 . S
C263 C269 1.491 . S
C264 H255 0.950 . S
C264 C263 1.398 . S
C264 C265 1.391 . S
C265 H253 0.950 . S
C265 C261 1.393 . S
C265 C264 1.391 . S
C266 H256 0.950 . S
C266 C267 1.386 . S
C266 C268 1.391 . S
C267 C266 1.386 . S
C267 C271 1.393 . S
C268 H257 0.950 . S
C268 C266 1.391 . S
C268 C269 1.400 . S
C269 C263 1.491 . S
C269 C268 1.400 . S
C269 C270 1.398 . S
C270 H258 0.950 . S
C270 C269 1.398 . S
C270 C271 1.391 . S
C271 H259 0.950 . S
C271 C267 1.393 . S
C271 C270 1.391 . S
H272 C280 0.950 . S
H273 C285 0.950 . S
H274 C282 0.950 . S
H275 C284 0.950 . S
H276 C286 0.950 . S
H277 C288 0.950 . S
H278 C290 0.950 . S
H279 C291 0.950 . S
C280 H272 0.950 . S
C280 C281 1.386 . S
C280 C282 1.391 1_554 S
C281 C280 1.386 . S
C281 C285 1.393 . S
C282 H274 0.950 . S
C282 C280 1.391 1_556 S
C282 C283 1.400 . S
C283 C282 1.400 . S
C283 C284 1.398 . S
C283 C289 1.491 . S
C284 H275 0.950 . S
C284 C283 1.398 . S
C284 C285 1.391 1_556 S
C285 H273 0.950 . S
C285 C281 1.393 . S
C285 C284 1.391 1_554 S
C286 H276 0.950 . S
C286 C287 1.386 . S
C286 C288 1.391 . S
C287 C286 1.386 . S
C287 C291 1.393 . S
C288 H277 0.950 . S
C288 C286 1.391 . S
C288 C289 1.400 . S
C289 C283 1.491 . S
C289 C288 1.400 . S
C289 C290 1.398 . S
C290 H278 0.950 . S
C290 C289 1.398 . S
C290 C291 1.391 . S
C291 H279 0.950 . S
C291 C287 1.393 . S
C291 C290 1.391 . S
H292 C300 0.950 . S
H293 C305 0.950 . S
H294 C302 0.950 . S
H295 C304 0.950 . S
H296 C306 0.950 . S
H297 C308 0.950 . S
H298 C310 0.950 . S
H299 C311 0.950 . S
C300 H292 0.950 . S
C300 C301 1.386 . S
C300 C302 1.391 . S
C301 C300 1.386 . S
C301 C305 1.393 . S
C302 H294 0.950 . S
C302 C300 1.391 . S
C302 C303 1.400 . S
C303 C302 1.400 . S
C303 C304 1.398 . S
C303 C309 1.491 . S
C304 H295 0.950 . S
C304 C303 1.398 . S
C304 C305 1.391 . S
C305 H293 0.950 . S
C305 C301 1.393 . S
C305 C304 1.391 . S
C306 H296 0.950 . S
C306 C307 1.386 . S
C306 C308 1.391 1_556 S
C307 C306 1.386 . S
C307 C311 1.393 . S
C308 H297 0.950 . S
C308 C306 1.391 1_554 S
C308 C309 1.400 . S
C309 C303 1.491 . S
C309 C308 1.400 . S
C309 C310 1.398 . S
C310 H298 0.950 . S
C310 C309 1.398 . S
C310 C311 1.391 1_554 S
C311 H299 0.950 . S
C311 C307 1.393 . S
C311 C310 1.391 1_556 S
H312 C320 0.950 . S
H313 C325 0.950 . S
H314 C322 0.950 . S
H315 C324 0.950 . S
H316 C326 0.950 . S
H317 C328 0.950 . S
H318 C330 0.950 . S
H319 C331 0.950 . S
C320 H312 0.950 . S
C320 C321 1.386 . S
C320 C322 1.391 . S
C321 C320 1.386 . S
C321 C325 1.393 . S
C322 H314 0.950 . S
C322 C320 1.391 . S
C322 C323 1.400 . S
C323 C322 1.400 . S
C323 C324 1.398 . S
C323 C329 1.491 . S
C324 H315 0.950 . S
C324 C323 1.398 . S
C324 C325 1.391 . S
C325 H313 0.950 . S
C325 C321 1.393 . S
C325 C324 1.391 . S
C326 H316 0.950 . S
C326 C327 1.386 . S
C326 C328 1.391 . S
C327 C326 1.386 . S
C327 C331 1.393 . S
C328 H317 0.950 . S
C328 C326 1.391 . S
C328 C329 1.400 . S
C329 C323 1.491 . S
C329 C328 1.400 . S
C329 C330 1.398 . S
C330 H318 0.950 . S
C330 C329 1.398 . S
C330 C331 1.391 . S
C331 H319 0.950 . S
C331 C327 1.393 . S
C331 C330 1.391 . S
H332 C340 0.950 . S
H333 C345 0.950 . S
H334 C342 0.950 . S
H335 C344 0.950 . S
H336 C346 0.950 . S
H337 C348 0.950 . S
H338 C350 0.950 . S
H339 C351 0.950 . S
C340 H332 0.950 . S
C340 C341 1.386 . S
C340 C342 1.391 . S
C341 C340 1.386 . S
C341 C345 1.393 . S
C342 H334 0.950 . S
C342 C340 1.391 . S
C342 C343 1.400 . S
C343 C342 1.400 . S
C343 C344 1.398 . S
C343 C349 1.491 . S
C344 H335 0.950 . S
C344 C343 1.398 . S
C344 C345 1.391 . S
C345 H333 0.950 . S
C345 C341 1.393 . S
C345 C344 1.391 . S
C346 H336 0.950 . S
C346 C347 1.386 . S
C346 C348 1.391 1_554 S
C347 C346 1.386 . S
C347 C351 1.393 . S
C348 H337 0.950 . S
C348 C346 1.391 1_556 S
C348 C349 1.400 . S
C349 C343 1.491 . S
C349 C348 1.400 . S
C349 C350 1.398 . S
C350 H338 0.950 . S
C350 C349 1.398 . S
C350 C351 1.391 1_556 S
C351 H339 0.950 . S
C351 C347 1.393 . S
C351 C350 1.391 1_554 S
H352 C360 0.950 . S
H353 C365 0.950 . S
H354 C362 0.950 . S
H355 C364 0.950 . S
H356 C366 0.950 . S
H357 C368 0.950 . S
H358 C370 0.950 . S
H359 C371 0.950 . S
C360 H352 0.950 . S
C360 C361 1.386 . S
C360 C362 1.391 . S
C361 C360 1.386 . S
C361 C365 1.393 . S
C362 H354 0.950 . S
C362 C360 1.391 . S
C362 C363 1.400 . S
C363 C362 1.400 . S
C363 C364 1.398 . S
C363 C369 1.491 . S
C364 H355 0.950 . S
C364 C363 1.398 . S
C364 C365 1.391 . S
C365 H353 0.950 . S
C365 C361 1.393 . S
C365 C364 1.391 . S
C366 H356 0.950 . S
C366 C367 1.386 . S
C366 C368 1.391 1_556 S
C367 C366 1.386 . S
C367 C371 1.393 . S
C368 H357 0.950 . S
C368 C366 1.391 1_554 S
C368 C369 1.400 . S
C369 C363 1.491 . S
C369 C368 1.400 . S
C369 C370 1.398 . S
C370 H358 0.950 . S
C370 C369 1.398 . S
C370 C371 1.391 1_554 S
C371 H359 0.950 . S
C371 C367 1.393 . S
C371 C370 1.391 1_556 S
H372 C380 0.950 . S
H373 C385 0.950 . S
H374 C382 0.950 . S
H375 C384 0.950 . S
H376 C386 0.950 . S
H377 C388 0.950 . S
H378 C390 0.950 . S
H379 C391 0.950 . S
C380 H372 0.950 . S
C380 C381 1.386 . S
C380 C382 1.391 . S
C381 C380 1.386 . S
C381 C385 1.393 . S
C382 H374 0.950 . S
C382 C380 1.391 . S
C382 C383 1.400 . S
C383 C382 1.400 . S
C383 C384 1.398 . S
C383 C389 1.491 . S
C384 H375 0.950 . S
C384 C383 1.398 . S
C384 C385 1.391 . S
C385 H373 0.950 . S
C385 C381 1.393 . S
C385 C384 1.391 . S
C386 H376 0.950 . S
C386 C387 1.386 . S
C386 C388 1.391 . S
C387 C386 1.386 . S
C387 C391 1.393 . S
C388 H377 0.950 . S
C388 C386 1.391 . S
C388 C389 1.400 . S
C389 C383 1.491 . S
C389 C388 1.400 . S
C389 C390 1.398 . S
C390 H378 0.950 . S
C390 C389 1.398 . S
C390 C391 1.391 . S
C391 H379 0.950 . S
C391 C387 1.393 . S
C391 C390 1.391 . S
H392 C400 0.950 . S
H393 C405 0.950 . S
H394 C402 0.950 . S
H395 C404 0.950 . S
H396 C406 0.950 . S
H397 C408 0.950 . S
H398 C410 0.950 . S
H399 C411 0.950 . S
C400 H392 0.950 . S
C400 C401 1.386 . S
C400 C402 1.391 . S
C401 C400 1.386 . S
C401 C405 1.393 . S
C402 H394 0.950 . S
C402 C400 1.391 . S
C402 C403 1.400 . S
C403 C402 1.400 . S
C403 C404 1.398 . S
C403 C409 1.491 . S
C404 H395 0.950 . S
C404 C403 1.398 . S
C404 C405 1.391 . S
C405 H393 0.950 . S
C405 C401 1.393 . S
C405 C404 1.391 . S
C406 H396 0.950 . S
C406 C407 1.386 . S
C406 C408 1.391 . S
C407 C406 1.386 . S
C407 C411 1.393 . S
C408 H397 0.950 . S
C408 C406 1.391 . S
C408 C409 1.400 . S
C409 C403 1.491 . S
C409 C408 1.400 . S
C409 C410 1.398 . S
C410 H398 0.950 . S
C410 C409 1.398 . S
C410 C411 1.391 . S
C411 H399 0.950 . S
C411 C407 1.393 . S
C411 C410 1.391 . S
H412 C420 0.950 . S
H413 C425 0.950 . S
H414 C422 0.950 . S
H415 C424 0.950 . S
H416 C426 0.950 . S
H417 C428 0.950 . S
H418 C430 0.950 . S
H419 C431 0.950 . S
C420 H412 0.950 . S
C420 C421 1.386 . S
C420 C422 1.391 . S
C421 C420 1.386 . S
C421 C425 1.393 . S
C422 H414 0.950 . S
C422 C420 1.391 . S
C422 C423 1.400 . S
C423 C422 1.400 . S
C423 C424 1.398 . S
C423 C429 1.491 . S
C424 H415 0.950 . S
C424 C423 1.398 . S
C424 C425 1.391 . S
C425 H413 0.950 . S
C425 C421 1.393 . S
C425 C424 1.391 . S
C426 H416 0.950 . S
C426 C427 1.386 . S
C426 C428 1.391 . S
C427 C426 1.386 . S
C427 C431 1.393 . S
C428 H417 0.950 . S
C428 C426 1.391 . S
C428 C429 1.400 . S
C429 C423 1.491 . S
C429 C428 1.400 . S
C429 C430 1.398 . S
C430 H418 0.950 . S
C430 C429 1.398 . S
C430 C431 1.391 . S
C431 H419 0.950 . S
C431 C427 1.393 . S
C431 C430 1.391 . S
H432 C440 0.950 . S
H433 C445 0.950 . S
H434 C442 0.950 . S
H435 C444 0.950 . S
H436 C446 0.950 . S
H437 C448 0.950 . S
H438 C450 0.950 . S
H439 C451 0.950 . S
C440 H432 0.950 . S
C440 C441 1.386 . S
C440 C442 1.391 . S
C441 C440 1.386 . S
C441 C445 1.393 . S
C442 H434 0.950 . S
C442 C440 1.391 . S
C442 C443 1.400 . S
C443 C442 1.400 . S
C443 C444 1.398 . S
C443 C449 1.491 . S
C444 H435 0.950 . S
C444 C443 1.398 . S
C444 C445 1.391 . S
C445 H433 0.950 . S
C445 C441 1.393 . S
C445 C444 1.391 . S
C446 H436 0.950 . S
C446 C447 1.386 . S
C446 C448 1.391 . S
C447 C446 1.386 . S
C447 C451 1.393 . S
C448 H437 0.950 . S
C448 C446 1.391 . S
C448 C449 1.400 . S
C449 C443 1.491 . S
C449 C448 1.400 . S
C449 C450 1.398 . S
C450 H438 0.950 . S
C450 C449 1.398 . S
C450 C451 1.391 . S
C451 H439 0.950 . S
C451 C447 1.393 . S
C451 C450 1.391 . S
H452 C460 0.950 . S
H453 C465 0.950 . S
H454 C462 0.950 . S
H455 C464 0.950 . S
H456 C466 0.950 . S
H457 C468 0.950 . S
H458 C470 0.950 . S
H459 C471 0.950 . S
C460 H452 0.950 . S
C460 C461 1.386 . S
C460 C462 1.391 . S
C461 C460 1.386 . S
C461 C465 1.393 . S
C462 H454 0.950 . S
C462 C460 1.391 . S
C462 C463 1.400 . S
C463 C462 1.400 . S
C463 C464 1.398 . S
C463 C469 1.491 . S
C464 H455 0.950 . S
C464 C463 1.398 . S
C464 C465 1.391 . S
C465 H453 0.950 . S
C465 C461 1.393 . S
C465 C464 1.391 . S
C466 H456 0.950 . S
C466 C467 1.386 . S
C466 C468 1.391 . S
C467 C466 1.386 . S
C467 C471 1.393 . S
C468 H457 0.950 . S
C468 C466 1.391 . S
C468 C469 1.400 . S
C469 C463 1.491 . S
C469 C468 1.400 . S
C469 C470 1.398 . S
C470 H458 0.950 . S
C470 C469 1.398 . S
C470 C471 1.391 . S
C471 H459 0.950 . S
C471 C467 1.393 . S
C471 C470 1.391 . S
H472 C480 0.950 . S
H473 C485 0.950 . S
H474 C482 0.950 . S
H475 C484 0.950 . S
H476 C486 0.950 . S
H477 C488 0.950 . S
H478 C490 0.950 . S
H479 C491 0.950 . S
C480 H472 0.950 . S
C480 C481 1.386 . S
C480 C482 1.391 . S
C481 C480 1.386 . S
C481 C485 1.393 . S
C482 H474 0.950 . S
C482 C480 1.391 . S
C482 C483 1.400 . S
C483 C482 1.400 . S
C483 C484 1.398 . S
C483 C489 1.491 . S
C484 H475 0.950 . S
C484 C483 1.398 . S
C484 C485 1.391 . S
C485 H473 0.950 . S
C485 C481 1.393 . S
C485 C484 1.391 . S
C486 H476 0.950 . S
C486 C487 1.386 . S
C486 C488 1.391 . S
C487 C486 1.386 . S
C487 C491 1.393 . S
C488 H477 0.950 . S
C488 C486 1.391 . S
C488 C489 1.400 . S
C489 C483 1.491 . S
C489 C488 1.400 . S
C489 C490 1.398 . S
C490 H478 0.950 . S
C490 C489 1.398 . S
C490 C491 1.391 . S
C491 H479 0.950 . S
C491 C487 1.393 . S
C491 C490 1.391 . S
C141 C114 1.682 . S
C147 C5 1.680 . S
C161 C8 1.686 . S
C167 C31 1.677 . S
C181 C26 1.677 . S
C187 C49 1.686 . S
C201 C52 1.687 . S
C207 C75 1.681 . S
C221 C93 1.681 . S
C227 C70 1.680 . S
C241 C119 1.686 . S
C247 C96 1.682 . S
C261 C4 1.241 . S
C267 C7 1.233 . S
C281 C30 1.233 . S
C287 C28 1.240 . S
C301 C48 1.240 . S
C307 C51 1.234 . S
C321 C74 1.241 . S
C327 C72 1.248 . S
C341 C95 1.248 . S
C347 C92 1.240 . S
C361 C118 1.248 . S
C367 C116 1.234 . S
C381 C9 1.169 . S
C387 C94 1.162 . S
C401 C27 1.189 . S
C407 C117 1.198 . S
C421 C6 1.174 . S
C427 C53 1.163 . S
C441 C29 1.168 . S
C447 C71 1.161 . S
C461 C97 1.189 . S
C467 C50 1.198 . S
C481 C73 1.182 . S
C487 C115 1.195 . S
