# Generated by pormake.
# Topology zft, (5)-cn, num edge types: 1
# Building blocks:
#     Node 0, Type 0, BuildingBlock: XOMCOT_clean_sbu_1, # of connection points: 5
#     Node 1, Type 0, BuildingBlock: XOMCOT_clean_sbu_1, # of connection points: 5
#     Node 2, Type 0, BuildingBlock: XOMCOT_clean_sbu_1, # of connection points: 5
#     Node 3, Type 0, BuildingBlock: XOMCOT_clean_sbu_1, # of connection points: 5
#     Node 4, Type 0, BuildingBlock: XOMCOT_clean_sbu_1, # of connection points: 5
#     Node 5, Type 0, BuildingBlock: XOMCOT_clean_sbu_1, # of connection points: 5
#     Node 6, Type 0, BuildingBlock: XOMCOT_clean_sbu_1, # of connection points: 5
#     Node 7, Type 0, BuildingBlock: XOMCOT_clean_sbu_1, # of connection points: 5
#     Edge 8, Type (0, 0), BuildingBlock: AJUNOK_clean_linker_0, # of connection points: 2
#     Edge 9, Type (0, 0), BuildingBlock: AJUNOK_clean_linker_0, # of connection points: 2
#     Edge 10, Type (0, 0), BuildingBlock: AJUNOK_clean_linker_0, # of connection points: 2
#     Edge 11, Type (0, 0), BuildingBlock: AJUNOK_clean_linker_0, # of connection points: 2
#     Edge 12, Type (0, 0), BuildingBlock: AJUNOK_clean_linker_0, # of connection points: 2
#     Edge 13, Type (0, 0), BuildingBlock: AJUNOK_clean_linker_0, # of connection points: 2
#     Edge 14, Type (0, 0), BuildingBlock: AJUNOK_clean_linker_0, # of connection points: 2
#     Edge 15, Type (0, 0), BuildingBlock: AJUNOK_clean_linker_0, # of connection points: 2
#     Edge 16, Type (0, 0), BuildingBlock: AJUNOK_clean_linker_0, # of connection points: 2
#     Edge 17, Type (0, 0), BuildingBlock: AJUNOK_clean_linker_0, # of connection points: 2
#     Edge 18, Type (0, 0), BuildingBlock: AJUNOK_clean_linker_0, # of connection points: 2
#     Edge 19, Type (0, 0), BuildingBlock: AJUNOK_clean_linker_0, # of connection points: 2
#     Edge 20, Type (0, 0), BuildingBlock: AJUNOK_clean_linker_0, # of connection points: 2
#     Edge 21, Type (0, 0), BuildingBlock: AJUNOK_clean_linker_0, # of connection points: 2
#     Edge 22, Type (0, 0), BuildingBlock: AJUNOK_clean_linker_0, # of connection points: 2
#     Edge 23, Type (0, 0), BuildingBlock: AJUNOK_clean_linker_0, # of connection points: 2
#     Edge 24, Type (0, 0), BuildingBlock: AJUNOK_clean_linker_0, # of connection points: 2
#     Edge 25, Type (0, 0), BuildingBlock: AJUNOK_clean_linker_0, # of connection points: 2
#     Edge 26, Type (0, 0), BuildingBlock: AJUNOK_clean_linker_0, # of connection points: 2
#     Edge 27, Type (0, 0), BuildingBlock: AJUNOK_clean_linker_0, # of connection points: 2
# Relax obj value: 0.076
# Max RMSD: 0.109
# Mean RMSD: 0.109
data_MOF--net-zft--node1-XOMCOT_clean_sbu_1--edge1-AJUNOK_clean_linker_0
_symmetry_space_group_name_H-M    P1
_symmetry_Int_Tables_number       1
_symmetry_cell_setting            triclinic
loop_
_symmetry_equiv_pos_as_xyz
'x, y, z'
_cell_length_a     22.69313
_cell_length_b     22.649183
_cell_length_c     33.397983
_cell_angle_alpha  89.868881
_cell_angle_beta   89.992114
_cell_angle_gamma 89.843641
loop_
_atom_site_label
_atom_site_type_symbol
_atom_site_fract_x
_atom_site_fract_y
_atom_site_fract_z
_atom_type_partial_charge
C0 C 0.05974 0.26989 0.32993 0.0
C1 C 1.01145 0.23582 0.33868 0.0
N2 N 0.98611 0.21931 0.30405 0.0
N3 N 0.06522 0.27539 0.28987 0.0
C4 C 0.01986 0.24356 0.27489 0.0
H5 H 0.09045 0.28681 0.35168 0.0
Co6 Co 0.12905 0.31135 0.26372 0.0
C7 C 0.08024 0.36043 0.18571 0.0
O8 O 0.13246 0.36041 0.16878 0.0
N9 N 0.19487 0.34715 0.239 0.0
C10 C 0.28282 0.36156 0.21111 0.0
C11 C 0.24601 0.32076 0.22834 0.0
C12 C 0.20296 0.40477 0.22936 0.0
N13 N 0.25538 0.41422 0.21128 0.0
O14 O 0.11717 0.38199 0.29499 0.0
H15 H 0.2566 0.27474 0.23258 0.0
H16 H 0.16985 0.43866 0.23374 0.0
O17 O 0.0746 0.34159 0.22181 0.0
C18 C 0.14939 0.38421 0.32628 0.0
O19 O 0.18706 0.34109 0.33288 0.0
N20 N 0.14331 0.23996 0.23619 0.0
C21 C 0.18012 0.13179 0.20475 0.0
C22 C 0.14448 0.17 0.18222 0.0
C23 C 0.12584 0.22362 0.19864 0.0
C24 C 0.17567 0.20202 0.25914 0.0
C25 C 0.19514 0.14803 0.2439 0.0
H26 H 0.09718 0.25083 0.18092 0.0
H27 H 0.18832 0.21499 0.28908 0.0
H28 H 1.013 0.23647 0.24321 0.0
H29 H 0.99841 0.22125 0.36825 0.0
H30 H 0.32653 0.35312 0.19943 0.0
H31 H 0.13074 0.15827 0.15221 0.0
H32 H 0.22287 0.11997 0.26227 0.0
C33 C 0.25774 0.56739 0.57833 0.0
C34 C 0.2939 0.52087 0.5882 0.0
N35 N 0.31306 0.49551 0.55416 0.0
N36 N 0.25348 0.57159 0.53817 0.0
C37 C 0.28772 0.52708 0.52418 0.0
H38 H 0.23759 0.59759 0.59929 0.0
Co39 Co 0.21483 0.63368 0.51189 0.0
C40 C 0.16536 0.5836 0.43526 0.0
O41 O 0.16813 0.6357 0.41803 0.0
N42 N 0.17597 0.69805 0.48707 0.0
C43 C 0.15542 0.78615 0.46074 0.0
C44 C 0.19901 0.75074 0.47631 0.0
C45 C 0.11777 0.70345 0.47871 0.0
N46 N 0.10443 0.75615 0.4619 0.0
O47 O 0.14664 0.62133 0.54583 0.0
H48 H 0.24446 0.76352 0.47959 0.0
H49 H 0.08588 0.66909 0.48466 0.0
O50 O 0.18328 0.57751 0.47155 0.0
C51 C 0.13975 0.66058 0.57287 0.0
O52 O 0.17616 0.70561 0.57346 0.0
N53 N 0.28416 0.64828 0.48207 0.0
C54 C 0.39018 0.68417 0.44713 0.0
C55 C 0.35313 0.6441 0.42753 0.0
C56 C 0.30083 0.62585 0.44581 0.0
C57 C 0.32119 0.68485 0.50239 0.0
C58 C 0.37398 0.70398 0.48531 0.0
H59 H 0.27518 0.59306 0.43066 0.0
H60 H 0.30856 0.70065 0.53172 0.0
H61 H 0.29636 0.52005 0.49271 0.0
H62 H 0.30623 0.50759 0.61821 0.0
H63 H 0.16097 0.83029 0.44883 0.0
H64 H 0.36407 0.62735 0.39811 0.0
H65 H 0.4019 0.73401 0.50185 0.0
C66 C 0.97052 0.76225 0.82915 0.0
C67 C 0.01686 0.79939 0.83707 0.0
N68 N 0.03796 0.81973 0.80204 0.0
N69 N 0.96264 0.7584 0.78918 0.0
C70 C 1.00473 0.79373 0.77346 0.0
H71 H 0.94289 0.74176 0.85146 0.0
Co72 Co 0.90035 0.72062 0.76282 0.0
C73 C 0.98326 0.64852 0.71138 0.0
O74 O 0.98047 0.60113 0.73401 0.0
N75 N 0.83739 0.68332 0.73719 0.0
C76 C 0.74795 0.66537 0.71291 0.0
C77 C 0.78351 0.70686 0.73066 0.0
C78 C 0.83315 0.62715 0.7239 0.0
N79 N 0.77918 0.61516 0.70902 0.0
O80 O 0.9133 0.65054 0.79448 0.0
H81 H 0.77046 0.75115 0.73885 0.0
H82 H 0.86863 0.59539 0.72541 0.0
O83 O 0.95462 0.69489 0.7211 0.0
C84 C 0.88 0.64834 0.82523 0.0
O85 O 0.84225 0.69156 0.83115 0.0
N86 N 0.88441 0.79029 0.73414 0.0
C87 C 0.84794 0.89476 0.69733 0.0
C88 C 0.87138 0.84839 0.67455 0.0
C89 C 0.88889 0.79608 0.6935 0.0
C90 C 0.86228 0.83518 0.75675 0.0
C91 C 0.8436 0.88782 0.73892 0.0
H92 H 0.90413 0.75983 0.67526 0.0
H93 H 0.8579 0.82944 0.78877 0.0
H94 H 1.00964 0.80155 0.74166 0.0
H95 H 0.03183 0.81291 0.86642 0.0
H96 H 0.70221 0.67108 0.70451 0.0
H97 H 0.87434 0.85185 0.64226 0.0
H98 H 0.82558 0.92268 0.75744 0.0
C99 C 0.77235 0.47346 0.07879 0.0
C100 C 0.73673 0.52066 0.0878 0.0
N101 N 0.71612 0.54375 0.05337 0.0
N102 N 0.77496 0.4665 1.03871 0.0
C103 C 0.7402 0.51025 1.02399 0.0
H104 H 0.79269 0.44458 0.10052 0.0
Co105 Co 0.81066 0.40202 1.0128 0.0
C106 C 0.85876 0.44934 0.93462 0.0
O107 O 0.85465 0.3972 0.91772 0.0
N108 N 0.84627 0.33572 0.98833 0.0
C109 C 0.86157 0.24721 0.96131 0.0
C110 C 0.82057 0.28397 0.97846 0.0
C111 C 0.90367 0.3281 0.97825 0.0
N112 N 0.91365 0.27532 0.96071 0.0
O113 O 0.88084 0.41252 1.04468 0.0
H114 H 0.77498 0.27282 0.98331 0.0
H115 H 0.93702 0.36171 0.98209 0.0
O116 O 0.84196 0.45601 0.97107 0.0
C117 C 0.88247 0.37774 0.07482 0.0
O118 O 0.83914 0.33996 0.07951 0.0
N119 N 0.73972 0.38868 0.98482 0.0
C120 C 0.63364 0.35 0.95195 0.0
C121 C 0.67002 0.38893 0.93071 0.0
C122 C 0.7227 0.40833 0.94783 0.0
C123 C 0.70248 0.35476 1.00707 0.0
C124 C 0.64947 0.33444 0.99113 0.0
H125 H 0.74864 0.43931 0.93112 0.0
H126 H 0.71541 0.3414 1.03694 0.0
H127 H 0.72996 0.51515 0.99254 0.0
H128 H 0.7254 0.53569 0.11757 0.0
H129 H 0.8537 0.20298 0.95035 0.0
H130 H 0.65841 0.40344 0.90079 0.0
H131 H 0.62144 0.30637 1.00919 0.0
C132 C 0.56728 0.2663 0.51698 0.0
C133 C 0.51964 0.30133 0.50801 0.0
N134 N 0.49299 0.31674 0.54246 0.0
N135 N 0.57107 0.25915 0.55698 0.0
C136 C 0.5254 0.29094 0.57181 0.0
H137 H 0.59879 0.2496 0.49557 0.0
Co138 Co 0.634 0.22078 0.58237 0.0
C139 C 0.58452 0.16793 0.65937 0.0
O140 O 0.63719 0.1615 0.67498 0.0
N141 N 0.69934 0.18254 0.60596 0.0
C142 C 0.7892 0.1641 0.62982 0.0
C143 C 0.75145 0.20715 0.61604 0.0
C144 C 0.70733 0.12407 0.61286 0.0
N145 N 0.7613 0.1119 0.62783 0.0
O146 O 0.62009 0.15149 0.55001 0.0
H147 H 0.76195 0.25347 0.61354 0.0
H148 H 0.67378 0.09105 0.60768 0.0
O149 O 0.57889 0.1912 0.62441 0.0
C150 C 0.65436 0.14709 0.51978 0.0
O151 O 0.69465 0.188 0.5146 0.0
N152 N 0.65033 0.29081 0.61077 0.0
C153 C 0.69009 0.39702 0.64326 0.0
C154 C 0.65858 0.35666 0.66678 0.0
C155 C 0.6387 0.30387 0.64993 0.0
C156 C 0.67886 0.33072 0.58713 0.0
C157 C 0.6991 0.38412 0.60272 0.0
H158 H 0.61447 0.2743 0.66881 0.0
H159 H 0.6874 0.32009 0.5561 0.0
H160 H 0.51729 0.29672 0.6035 0.0
H161 H 0.50777 0.31711 0.47847 0.0
H162 H 0.83322 0.17088 0.64138 0.0
H163 H 0.64925 0.3659 0.69796 0.0
H164 H 0.72294 0.41434 0.58349 0.0
C165 C 0.27003 0.07193 0.76499 0.0
C166 C 0.23318 0.0264 0.75491 0.0
N167 N 0.21208 1.0024 0.78886 0.0
N168 N 0.2731 0.07644 0.80522 0.0
C169 C 0.23748 0.033 0.81901 0.0
H170 H 0.29118 0.1013 0.744 0.0
Co171 Co 0.31042 0.1383 0.83218 0.0
C172 C 0.36019 0.08653 0.90918 0.0
O173 O 0.36369 0.13891 0.92568 0.0
N174 N 0.34758 0.20247 0.85759 0.0
C175 C 0.36534 0.28883 0.88684 0.0
C176 C 0.32262 0.253 0.87091 0.0
C177 C 0.40588 0.20974 0.86464 0.0
N178 N 0.41761 0.26126 0.88328 0.0
O179 O 0.38074 0.12562 0.80036 0.0
H180 H 0.2763 0.26365 0.8695 0.0
H181 H 0.43897 0.17727 0.85685 0.0
O182 O 0.3391 0.08137 0.87361 0.0
C183 C 0.38609 0.16116 0.77079 0.0
O184 O 0.34519 0.20168 0.76562 0.0
N185 N 0.2396 0.15353 0.86007 0.0
C186 C 0.13181 0.19071 0.89175 0.0
C187 C 0.17055 0.15613 0.91461 0.0
C188 C 0.22404 0.13738 0.8981 0.0
C189 C 0.2016 0.18573 0.83709 0.0
C190 C 0.14767 0.20512 0.85238 0.0
H191 H 0.25188 0.10987 0.9162 0.0
H192 H 0.21422 0.19781 0.80693 0.0
H193 H 0.22779 0.02604 0.8504 0.0
H194 H 0.22182 1.01282 0.72484 0.0
H195 H 0.3583 0.33133 0.90085 0.0
H196 H 0.15932 0.14325 0.94492 0.0
H197 H 0.11922 0.23219 0.83382 0.0
C198 C 0.45703 0.76786 1.01546 0.0
C199 C 0.50527 0.73384 1.00612 0.0
N200 N 0.5333 0.7195 1.04034 0.0
N201 N 0.45426 0.77536 0.05544 0.0
C202 C 0.50121 0.74503 0.06987 0.0
H203 H 0.42436 0.7834 0.9944 0.0
Co204 Co 0.3909 0.81128 0.08174 0.0
C205 C 0.43888 0.85936 0.15977 0.0
O206 O 0.38675 0.85636 0.17669 0.0
N207 N 0.32523 0.84717 0.10659 0.0
C208 C 0.23753 0.86214 0.13475 0.0
C209 C 0.27399 0.8212 0.11725 0.0
C210 C 0.31756 0.90472 0.11649 0.0
N211 N 0.26532 0.91446 0.13474 0.0
O212 O 0.40227 0.88196 0.05002 0.0
H213 H 0.26307 0.77539 0.11285 0.0
H214 H 0.35087 0.93828 0.11218 0.0
O215 O 0.44559 0.84162 0.12351 0.0
C216 C 0.368 0.88651 1.0198 0.0
O217 O 0.32876 0.84479 1.01405 0.0
N218 N 0.37721 0.73977 0.10953 0.0
C219 C 0.34107 0.63155 0.14135 0.0
C220 C 0.37799 0.66897 0.16326 0.0
C221 C 0.39644 0.72254 0.14658 0.0
C222 C 0.34377 0.70244 0.08709 0.0
C223 C 0.32462 0.64846 0.10253 0.0
H224 H 0.42647 0.74892 0.16364 0.0
H225 H 0.33001 0.71592 0.05742 0.0
H226 H 0.5104 0.73988 0.10148 0.0
H227 H 0.51647 0.71777 0.97659 0.0
H228 H 0.19382 0.85404 0.14647 0.0
H229 H 0.39296 0.65659 0.19293 0.0
H230 H 0.29607 0.62088 0.08459 0.0
C231 C 0.75246 0.97009 0.26477 0.0
C232 C 0.78806 0.01716 0.25571 0.0
N233 N 0.80736 0.04091 0.29017 0.0
N234 N 0.74872 0.96393 0.30487 0.0
C235 C 0.78279 1.00786 0.3196 0.0
H236 H 0.73279 0.94081 0.24315 0.0
Co237 Co 0.71227 0.90035 0.33097 0.0
C238 C 0.65821 0.9502 0.40723 0.0
O239 O 0.65073 0.89749 0.42271 0.0
N240 N 0.67608 0.83444 0.35557 0.0
C241 C 0.66084 0.74699 0.38434 0.0
C242 C 0.70261 0.78509 0.36969 0.0
C243 C 0.61778 0.8241 0.36095 0.0
N244 N 0.60743 0.77153 0.37878 0.0
O245 O 0.64222 0.91236 0.29892 0.0
H246 H 0.74945 0.77683 0.36992 0.0
H247 H 0.58352 0.85533 0.35299 0.0
O248 O 0.68219 0.95565 0.37256 0.0
C249 C 0.63864 0.87783 0.26881 0.0
O250 O 0.68129 0.83935 0.26312 0.0
N251 N 0.78279 0.88585 0.35924 0.0
C252 C 0.88786 0.84512 0.39303 0.0
C253 C 0.84811 0.87881 0.41564 0.0
C254 C 0.79574 0.89889 0.3982 0.0
C255 C 0.82252 0.85602 0.33624 0.0
C256 C 0.87525 0.83504 0.35254 0.0
H257 H 0.76605 0.9239 0.41656 0.0
H258 H 0.81204 0.84663 0.30531 0.0
H259 H 0.79221 1.01319 0.35115 0.0
H260 H 0.80019 0.03178 0.22595 0.0
H261 H 0.66945 0.70538 0.39925 0.0
H262 H 0.8567 0.88824 0.44688 0.0
H263 H 0.9056 0.81071 0.33371 0.0
C264 C 0.13583 0.4916 0.34197 0.0
C265 C 0.14554 0.43359 0.35527 0.0
C266 C 0.13987 0.53948 0.36851 0.0
C267 C 0.15336 0.53124 0.40949 0.0
H268 H 0.12766 0.50035 0.31055 0.0
H269 H 0.13414 0.58349 0.35636 0.0
S270 S 0.17183 0.38645 0.4603 0.0
N271 N 0.16202 0.36956 0.41271 0.0
N272 N 0.16901 0.45921 0.46261 0.0
C273 C 0.1592 0.47291 0.42353 0.0
C274 C 0.15556 0.42425 0.39642 0.0
C275 C 0.03861 0.70382 0.65843 0.0
C276 C 0.02046 0.64935 0.67457 0.0
C277 C 0.07554 0.70662 0.62483 0.0
C278 C 0.09523 0.65518 0.60532 0.0
H279 H 0.02544 0.74489 0.67243 0.0
H280 H 0.08939 0.74971 0.61434 0.0
S281 S 0.05774 0.50142 0.63375 0.0
N282 N 0.02323 0.54246 0.66726 0.0
N283 N 0.09206 0.54801 0.60367 0.0
C284 C 0.07589 0.60039 0.62014 0.0
C285 C 0.03883 0.59742 0.65489 0.0
C286 C 0.88541 0.49286 0.86773 0.0
C287 C 0.87173 0.50138 0.90863 0.0
C288 C 0.89102 0.54069 0.84114 0.0
C289 C 0.88256 0.59888 0.85429 0.0
H290 H 0.89018 0.44873 0.85571 0.0
H291 H 0.89939 0.53184 0.80977 0.0
S292 S 0.85506 0.64649 0.95891 0.0
N293 N 0.85653 0.5737 0.96144 0.0
N294 N 0.86619 0.66319 0.91138 0.0
C295 C 0.87197 0.60839 0.89531 0.0
C296 C 0.86688 0.55981 0.9225 0.0
C297 C 0.98774 0.3976 0.09366 0.0
C298 C 0.93094 0.37931 0.10473 0.0
C299 C 0.03517 0.39336 0.12061 0.0
C300 C 0.02763 0.37133 0.15989 0.0
H301 H 0.99615 0.41317 0.06351 0.0
H302 H 0.07844 0.40621 0.1101 0.0
S303 S 0.8857 0.32444 0.20508 0.0
N304 N 0.86861 0.34291 0.15866 0.0
N305 N 0.95719 0.33596 0.20927 0.0
C306 C 0.97025 0.356 0.17194 0.0
C307 C 0.92214 0.35963 0.14436 0.0
C308 C 0.68273 0.10088 0.45436 0.0
C309 C 0.65 0.09797 0.49027 0.0
C310 C 0.68286 0.0543 0.4267 0.0
C311 C 0.65066 1.0024 0.43385 0.0
H312 H 0.70946 0.1392 0.44766 0.0
H313 H 0.71021 0.05825 0.40025 0.0
S314 S 0.5538 0.97399 0.52156 0.0
N315 N 0.58158 0.04007 0.53012 0.0
N316 N 0.58185 0.95244 0.47836 0.0
C317 C 0.61597 0.99969 0.46891 0.0
C318 C 0.6156 0.04739 0.497 0.0
C319 C 0.43238 0.18903 0.70526 0.0
C320 C 0.43583 0.15748 0.74169 0.0
C321 C 0.47939 0.18988 0.67792 0.0
C322 C 0.53231 0.15969 0.68593 0.0
H323 H 0.3932 0.21419 0.69787 0.0
H324 H 0.47481 0.21617 0.65097 0.0
S325 S 0.56276 0.06672 0.77555 0.0
N326 N 0.49553 0.09243 0.78312 0.0
N327 N 0.58399 0.09407 0.73202 0.0
C328 C 0.53567 0.12621 0.72161 0.0
C329 C 0.48751 0.12505 0.74936 0.0
C330 C 0.33993 0.93356 0.95439 0.0
C331 C 0.3714 0.93662 0.99081 0.0
C332 C 0.33891 0.98092 0.92716 0.0
C333 C 0.36886 0.03378 0.93531 0.0
H334 H 0.31491 0.89444 0.94694 0.0
H335 H 0.31254 0.97678 0.90028 0.0
S336 S 0.46171 0.06332 1.02472 0.0
N337 N 0.43629 0.99595 1.0322 0.0
N338 N 0.43416 0.08504 0.98135 0.0
C339 C 0.40226 0.03677 0.97091 0.0
C340 C 0.40362 0.98828 0.99853 0.0
C341 C 0.59393 0.85156 0.20265 0.0
C342 C 0.58837 0.87962 0.24016 0.0
C343 C 0.54637 0.84789 0.1759 0.0
C344 C 0.49087 0.87147 0.18568 0.0
H345 H 0.63525 0.83121 0.19401 0.0
H346 H 0.55268 0.82427 0.14805 0.0
S347 S 0.45386 0.95355 0.27866 0.0
N348 N 0.52368 0.93471 0.28449 0.0
N349 N 0.43412 0.9275 0.23452 0.0
C350 C 0.48522 0.90166 0.22242 0.0
C351 C 0.53393 0.90587 0.24953 0.0
C352 C 0.25157 0.02268 0.13292 0.0
C353 C 0.2448 0.9684 0.15284 0.0
C354 C 0.23 0.07529 0.14971 0.0
C355 C 0.20184 0.0755 0.18731 0.0
H356 H 0.2728 0.02421 0.1039 0.0
H357 H 0.23594 0.1162 0.13335 0.0
S358 S 0.17538 0.94515 0.2522 0.0
N359 N 0.20973 0.91824 0.21263 0.0
N360 N 0.16885 0.01678 0.24399 0.0
C361 C 0.19555 0.02155 0.2077 0.0
C362 C 0.21707 0.96808 0.1905 0.0
C363 C 0.51043 0.78781 0.41047 0.0
C364 C 0.5519 0.74922 0.39325 0.0
C365 C 0.45824 0.7664 0.42764 0.0
C366 C 0.44531 0.70562 0.42797 0.0
H367 H 0.51916 0.83475 0.4117 0.0
H368 H 0.42776 0.79772 0.44081 0.0
S369 S 0.53841 0.58646 0.38524 0.0
N370 N 0.57542 0.64767 0.37603 0.0
N371 N 0.47812 0.60724 0.40909 0.0
C372 C 0.48594 0.66669 0.41018 0.0
C373 C 0.53905 0.68851 0.39271 0.0
C374 C 0.74624 0.02061 0.66687 0.0
C375 C 0.78263 0.05611 0.64277 0.0
C376 C 0.76772 0.96845 0.68439 0.0
C377 C 0.82603 0.94945 0.67782 0.0
H378 H 0.7014 0.03423 0.67315 0.0
H379 H 0.73852 0.94276 0.70323 0.0
S380 S 0.93816 0.0253 0.61572 0.0
N381 N 0.87912 0.06788 0.61233 0.0
N382 N 0.91932 0.96948 0.64491 0.0
C383 C 0.8624 0.98383 0.65305 0.0
C384 C 0.84077 0.0373 0.63566 0.0
C385 C 0.48685 0.34235 0.89746 0.0
C386 C 0.47319 0.2818 0.8987 0.0
C387 C 0.53909 0.36399 0.91427 0.0
C388 C 0.57936 0.32593 0.93336 0.0
H389 H 0.45678 0.37325 0.8834 0.0
H390 H 0.54747 0.41102 0.913 0.0
S391 S 0.56483 0.16351 0.94426 0.0
N392 N 0.50434 0.1841 0.92052 0.0
N393 N 0.60303 0.22452 0.95144 0.0
C394 C 0.56662 0.26517 0.93439 0.0
C395 C 0.51351 0.24314 0.91716 0.0
C396 C 0.70136 0.50702 0.64232 0.0
C397 C 0.71351 0.45243 0.66077 0.0
C398 C 0.72289 0.55995 0.65833 0.0
C399 C 0.75818 0.56015 0.69294 0.0
H400 H 0.67443 0.50888 0.61556 0.0
H401 H 0.71238 0.60108 0.64332 0.0
S402 S 0.80286 0.42919 0.75255 0.0
N403 N 0.76325 0.4018 0.71551 0.0
N404 N 0.80362 0.50139 0.74551 0.0
C405 C 0.77091 0.50592 0.71158 0.0
C406 C 0.74849 0.45206 0.69556 0.0
C407 C 0.07471 0.24174 0.94603 0.0
C408 C 0.07531 0.21196 0.90905 0.0
C409 C 0.02187 0.26308 0.96255 0.0
C410 C 0.96772 0.25446 0.94301 0.0
H411 H 0.1155 0.24918 0.96208 0.0
H412 H 0.02316 0.28568 0.99107 0.0
S413 S 0.94548 0.17985 0.84538 0.0
N414 N 0.01713 0.17515 0.85342 0.0
N415 N 0.9181 0.21551 0.88426 0.0
C416 C 0.96778 0.22489 0.90601 0.0
C417 C 0.0215 0.20363 0.88907 0.0
C418 C 0.29176 0.5749 0.19665 0.0
C419 C 0.31964 0.57525 0.15895 0.0
C420 C 0.26998 0.52231 0.21339 0.0
C421 C 0.27632 0.46816 0.19334 0.0
H422 H 0.28611 0.61571 0.21308 0.0
H423 H 0.24886 0.52374 0.24245 0.0
S424 S 0.34529 0.44534 0.0938 0.0
N425 N 0.35209 0.51684 0.10211 0.0
N426 N 0.31104 0.41832 0.1334 0.0
C427 C 0.30397 0.46799 0.15564 0.0
C428 C 0.32562 0.52145 0.13848 0.0
C429 C 0.97944 0.85751 0.43407 0.0
C430 C 0.94217 0.82066 0.41167 0.0
C431 C 0.03181 0.83582 0.45093 0.0
C432 C 0.04854 0.77632 0.4465 0.0
H433 H 0.96865 0.90378 0.4379 0.0
H434 H 0.05959 0.86587 0.46753 0.0
S435 S 0.96547 0.66115 0.39171 0.0
N436 N 0.92467 0.72127 0.38702 0.0
N437 N 0.0235 0.68082 0.4183 0.0
C438 C 1.01118 0.73873 0.42481 0.0
C439 C 0.958 0.76086 0.40743 0.0
C440 C 0.89718 0.09119 0.26582 0.0
C441 C 0.85083 0.08709 0.29379 0.0
C442 C 0.94025 0.13531 0.26871 0.0
C443 C 0.93877 0.17722 0.29969 0.0
H444 H 0.90102 0.05915 0.24197 0.0
H445 H 0.97594 0.13547 0.24721 0.0
S446 S 0.82326 0.18964 0.37808 0.0
N447 N 0.80386 0.13117 0.3518 0.0
N448 N 0.88442 0.21442 0.35721 0.0
C449 C 0.89175 0.17462 0.32724 0.0
C450 C 0.84798 0.12948 0.32434 0.0
C451 C 0.44536 0.40019 0.5777 0.0
C452 C 0.44521 0.35864 0.5465 0.0
C453 C 0.40202 0.44443 0.58002 0.0
C454 C 0.35665 0.44895 0.55128 0.0
H455 H 0.48028 0.39969 0.59978 0.0
H456 H 0.405 0.47627 0.60404 0.0
S457 S 0.33303 0.34714 0.46601 0.0
N458 N 0.39334 0.32208 0.48794 0.0
N459 N 0.31232 0.40535 0.4922 0.0
C460 C 0.3552 0.40674 0.52052 0.0
C461 C 0.39923 0.36157 0.51821 0.0
C462 C 0.13108 0.86667 0.82329 0.0
C463 C 0.08219 0.86489 0.79731 0.0
C464 C 0.17313 0.91193 0.82066 0.0
C465 C 0.16792 0.95693 0.79185 0.0
H466 H 0.13692 0.8326 0.84575 0.0
H467 H 0.21038 0.91138 0.84092 0.0
S468 S 0.04469 0.97647 0.71985 0.0
N469 N 0.02879 0.91484 0.74397 0.0
N470 N 0.10776 0.99946 0.73882 0.0
C471 C 0.11871 0.95629 0.76616 0.0
C472 C 0.07591 0.91035 0.7689 0.0
C473 C 0.62714 0.59453 0.07918 0.0
C474 C 0.67163 0.58937 0.04989 0.0
C475 C 0.5831 0.63798 0.07646 0.0
C476 C 0.58162 0.67816 1.04432 0.0
H477 H 0.62543 0.5638 0.10401 0.0
H478 H 0.54895 0.63893 0.09909 0.0
S479 S 0.69086 0.68724 0.96175 0.0
N480 N 0.71325 0.63057 0.98902 0.0
N481 N 0.63097 0.71258 0.98402 0.0
C482 C 0.62663 0.67447 1.01534 0.0
C483 C 0.67138 0.63001 1.01805 0.0
loop_
_geom_bond_atom_site_label_1
_geom_bond_atom_site_label_2
_geom_bond_distance
_geom_bond_site_symmetry_2
_ccdc_geom_bond_type
C0 C1 1.351 1_455 S
C0 N3 1.368 . S
C0 H5 0.931 . S
C1 C0 1.351 1_655 S
C1 N2 1.373 . S
C1 H29 0.930 . S
N2 C1 1.373 . S
N2 C4 1.340 . S
N3 C0 1.368 . S
N3 C4 1.321 1_455 S
N3 Co6 2.135 . S
C4 N2 1.340 . S
C4 N3 1.321 1_655 S
C4 H28 0.930 . S
H5 C0 0.931 . S
Co6 N3 2.135 . S
Co6 N9 2.121 . S
Co6 O14 2.055 . S
Co6 O17 2.039 1_455 S
Co6 N20 2.140 . S
C7 O8 1.227 1_655 S
C7 O17 1.265 . S
O8 C7 1.227 1_455 S
N9 Co6 2.121 . S
N9 C11 1.375 . S
N9 C12 1.313 . S
C10 C11 1.338 . S
C10 N13 1.377 . S
C10 H30 0.930 . S
C11 N9 1.375 . S
C11 C10 1.338 . S
C11 H15 0.931 . S
C12 N9 1.313 . S
C12 N13 1.344 . S
C12 H16 0.930 . S
N13 C10 1.377 . S
N13 C12 1.344 . S
O14 Co6 2.055 . S
O14 C18 1.253 . S
H15 C11 0.931 . S
H16 C12 0.930 . S
O17 Co6 2.039 1_655 S
O17 C7 1.265 . S
C18 O14 1.253 . S
C18 O19 1.227 . S
O19 C18 1.227 . S
N20 Co6 2.140 . S
N20 C23 1.346 . S
N20 C24 1.345 . S
C21 C22 1.387 . S
C21 C25 1.391 . S
C22 C21 1.387 . S
C22 C23 1.369 . S
C22 H31 0.929 . S
C23 N20 1.346 . S
C23 C22 1.369 . S
C23 H26 0.928 . S
C24 N20 1.345 . S
C24 C25 1.371 . S
C24 H27 0.931 . S
C25 C21 1.391 . S
C25 C24 1.371 . S
C25 H32 0.930 . S
H26 C23 0.928 . S
H27 C24 0.931 . S
H28 C4 0.930 . S
H29 C1 0.930 . S
H30 C10 0.930 . S
H31 C22 0.929 . S
H32 C25 0.930 . S
C33 C34 1.351 . S
C33 N36 1.368 . S
C33 H38 0.931 . S
C34 C33 1.351 . S
C34 N35 1.373 . S
C34 H62 0.930 . S
N35 C34 1.373 . S
N35 C37 1.340 . S
N36 C33 1.368 . S
N36 C37 1.321 . S
N36 Co39 2.135 . S
C37 N35 1.340 . S
C37 N36 1.321 . S
C37 H61 0.930 . S
H38 C33 0.931 . S
Co39 N36 2.135 . S
Co39 N42 2.121 . S
Co39 O47 2.055 . S
Co39 O50 2.039 . S
Co39 N53 2.140 . S
C40 O41 1.227 . S
C40 O50 1.265 . S
O41 C40 1.227 . S
N42 Co39 2.121 . S
N42 C44 1.375 . S
N42 C45 1.313 . S
C43 C44 1.338 . S
C43 N46 1.377 . S
C43 H63 0.930 . S
C44 N42 1.375 . S
C44 C43 1.338 . S
C44 H48 0.931 . S
C45 N42 1.313 . S
C45 N46 1.344 . S
C45 H49 0.930 . S
N46 C43 1.377 . S
N46 C45 1.344 . S
O47 Co39 2.055 . S
O47 C51 1.253 . S
H48 C44 0.931 . S
H49 C45 0.930 . S
O50 Co39 2.039 . S
O50 C40 1.265 . S
C51 O47 1.253 . S
C51 O52 1.227 . S
O52 C51 1.227 . S
N53 Co39 2.140 . S
N53 C56 1.346 . S
N53 C57 1.345 . S
C54 C55 1.387 . S
C54 C58 1.391 . S
C55 C54 1.387 . S
C55 C56 1.369 . S
C55 H64 0.929 . S
C56 N53 1.346 . S
C56 C55 1.369 . S
C56 H59 0.928 . S
C57 N53 1.345 . S
C57 C58 1.371 . S
C57 H60 0.931 . S
C58 C54 1.391 . S
C58 C57 1.371 . S
C58 H65 0.930 . S
H59 C56 0.928 . S
H60 C57 0.931 . S
H61 C37 0.930 . S
H62 C34 0.930 . S
H63 C43 0.930 . S
H64 C55 0.929 . S
H65 C58 0.930 . S
C66 C67 1.351 1_655 S
C66 N69 1.368 . S
C66 H71 0.931 . S
C67 C66 1.351 1_455 S
C67 N68 1.373 . S
C67 H95 0.930 . S
N68 C67 1.373 . S
N68 C70 1.340 . S
N69 C66 1.368 . S
N69 C70 1.321 1_655 S
N69 Co72 2.135 . S
C70 N68 1.340 . S
C70 N69 1.321 1_455 S
C70 H94 0.930 . S
H71 C66 0.931 . S
Co72 N69 2.135 . S
Co72 N75 2.121 . S
Co72 O80 2.055 . S
Co72 O83 2.039 1_655 S
Co72 N86 2.140 . S
C73 O74 1.227 1_455 S
C73 O83 1.265 . S
O74 C73 1.227 1_655 S
N75 Co72 2.121 . S
N75 C77 1.375 . S
N75 C78 1.313 . S
C76 C77 1.338 . S
C76 N79 1.377 . S
C76 H96 0.930 . S
C77 N75 1.375 . S
C77 C76 1.338 . S
C77 H81 0.931 . S
C78 N75 1.313 . S
C78 N79 1.344 . S
C78 H82 0.930 . S
N79 C76 1.377 . S
N79 C78 1.344 . S
O80 Co72 2.055 . S
O80 C84 1.253 . S
H81 C77 0.931 . S
H82 C78 0.930 . S
O83 Co72 2.039 1_455 S
O83 C73 1.265 . S
C84 O80 1.253 . S
C84 O85 1.227 . S
O85 C84 1.227 . S
N86 Co72 2.140 . S
N86 C89 1.346 . S
N86 C90 1.345 . S
C87 C88 1.387 . S
C87 C91 1.391 . S
C88 C87 1.387 . S
C88 C89 1.369 . S
C88 H97 0.929 . S
C89 N86 1.346 . S
C89 C88 1.369 . S
C89 H92 0.928 . S
C90 N86 1.345 . S
C90 C91 1.371 . S
C90 H93 0.931 . S
C91 C87 1.391 . S
C91 C90 1.371 . S
C91 H98 0.930 . S
H92 C89 0.928 . S
H93 C90 0.931 . S
H94 C70 0.930 . S
H95 C67 0.930 . S
H96 C76 0.930 . S
H97 C88 0.929 . S
H98 C91 0.930 . S
C99 C100 1.351 1_556 S
C99 N102 1.368 . S
C99 H104 0.931 1_556 S
C100 C99 1.351 1_554 S
C100 N101 1.373 1_554 S
C100 H128 0.930 . S
N101 C100 1.373 1_556 S
N101 C103 1.340 . S
N102 C99 1.368 . S
N102 C103 1.321 . S
N102 Co105 2.135 . S
C103 N101 1.340 . S
C103 N102 1.321 . S
C103 H127 0.930 . S
H104 C99 0.931 1_554 S
Co105 N102 2.135 . S
Co105 N108 2.121 . S
Co105 O113 2.055 . S
Co105 O116 2.039 . S
Co105 N119 2.140 . S
C106 O107 1.227 . S
C106 O116 1.265 . S
O107 C106 1.227 . S
N108 Co105 2.121 . S
N108 C110 1.375 . S
N108 C111 1.313 . S
C109 C110 1.338 . S
C109 N112 1.377 . S
C109 H129 0.930 . S
C110 N108 1.375 . S
C110 C109 1.338 . S
C110 H114 0.931 . S
C111 N108 1.313 . S
C111 N112 1.344 . S
C111 H115 0.930 . S
N112 C109 1.377 . S
N112 C111 1.344 . S
O113 Co105 2.055 . S
O113 C117 1.253 . S
H114 C110 0.931 . S
H115 C111 0.930 . S
O116 Co105 2.039 . S
O116 C106 1.265 . S
C117 O113 1.253 . S
C117 O118 1.227 . S
O118 C117 1.227 . S
N119 Co105 2.140 . S
N119 C122 1.346 . S
N119 C123 1.345 . S
C120 C121 1.387 . S
C120 C124 1.391 . S
C121 C120 1.387 . S
C121 C122 1.369 . S
C121 H130 0.929 . S
C122 N119 1.346 . S
C122 C121 1.369 . S
C122 H125 0.928 . S
C123 N119 1.345 . S
C123 C124 1.371 . S
C123 H126 0.931 . S
C124 C120 1.391 . S
C124 C123 1.371 . S
C124 H131 0.930 . S
H125 C122 0.928 . S
H126 C123 0.931 . S
H127 C103 0.930 . S
H128 C100 0.930 . S
H129 C109 0.930 . S
H130 C121 0.929 . S
H131 C124 0.930 . S
C132 C133 1.351 . S
C132 N135 1.368 . S
C132 H137 0.931 . S
C133 C132 1.351 . S
C133 N134 1.373 . S
C133 H161 0.930 . S
N134 C133 1.373 . S
N134 C136 1.340 . S
N135 C132 1.368 . S
N135 C136 1.321 . S
N135 Co138 2.135 . S
C136 N134 1.340 . S
C136 N135 1.321 . S
C136 H160 0.930 . S
H137 C132 0.931 . S
Co138 N135 2.135 . S
Co138 N141 2.121 . S
Co138 O146 2.055 . S
Co138 O149 2.039 . S
Co138 N152 2.140 . S
C139 O140 1.227 . S
C139 O149 1.265 . S
O140 C139 1.227 . S
N141 Co138 2.121 . S
N141 C143 1.375 . S
N141 C144 1.313 . S
C142 C143 1.338 . S
C142 N145 1.377 . S
C142 H162 0.930 . S
C143 N141 1.375 . S
C143 C142 1.338 . S
C143 H147 0.931 . S
C144 N141 1.313 . S
C144 N145 1.344 . S
C144 H148 0.930 . S
N145 C142 1.377 . S
N145 C144 1.344 . S
O146 Co138 2.055 . S
O146 C150 1.253 . S
H147 C143 0.931 . S
H148 C144 0.930 . S
O149 Co138 2.039 . S
O149 C139 1.265 . S
C150 O146 1.253 . S
C150 O151 1.227 . S
O151 C150 1.227 . S
N152 Co138 2.140 . S
N152 C155 1.346 . S
N152 C156 1.345 . S
C153 C154 1.387 . S
C153 C157 1.391 . S
C154 C153 1.387 . S
C154 C155 1.369 . S
C154 H163 0.929 . S
C155 N152 1.346 . S
C155 C154 1.369 . S
C155 H158 0.928 . S
C156 N152 1.345 . S
C156 C157 1.371 . S
C156 H159 0.931 . S
C157 C153 1.391 . S
C157 C156 1.371 . S
C157 H164 0.930 . S
H158 C155 0.928 . S
H159 C156 0.931 . S
H160 C136 0.930 . S
H161 C133 0.930 . S
H162 C142 0.930 . S
H163 C154 0.929 . S
H164 C157 0.930 . S
C165 C166 1.351 1_545 S
C165 N168 1.368 . S
C165 H170 0.931 . S
C166 C165 1.351 1_565 S
C166 N167 1.373 . S
C166 H194 0.930 . S
N167 C166 1.373 . S
N167 C169 1.340 . S
N168 C165 1.368 . S
N168 C169 1.321 1_545 S
N168 Co171 2.135 . S
C169 N167 1.340 . S
C169 N168 1.321 1_565 S
C169 H193 0.930 . S
H170 C165 0.931 . S
Co171 N168 2.135 . S
Co171 N174 2.121 . S
Co171 O179 2.055 . S
Co171 O182 2.039 1_545 S
Co171 N185 2.140 . S
C172 O173 1.227 1_565 S
C172 O182 1.265 . S
O173 C172 1.227 1_545 S
N174 Co171 2.121 . S
N174 C176 1.375 . S
N174 C177 1.313 . S
C175 C176 1.338 . S
C175 N178 1.377 . S
C175 H195 0.930 . S
C176 N174 1.375 . S
C176 C175 1.338 . S
C176 H180 0.931 . S
C177 N174 1.313 . S
C177 N178 1.344 . S
C177 H181 0.930 . S
N178 C175 1.377 . S
N178 C177 1.344 . S
O179 Co171 2.055 . S
O179 C183 1.253 . S
H180 C176 0.931 . S
H181 C177 0.930 . S
O182 Co171 2.039 1_565 S
O182 C172 1.265 . S
C183 O179 1.253 . S
C183 O184 1.227 . S
O184 C183 1.227 . S
N185 Co171 2.140 . S
N185 C188 1.346 . S
N185 C189 1.345 . S
C186 C187 1.387 . S
C186 C190 1.391 . S
C187 C186 1.387 . S
C187 C188 1.369 . S
C187 H196 0.929 . S
C188 N185 1.346 . S
C188 C187 1.369 . S
C188 H191 0.928 . S
C189 N185 1.345 . S
C189 C190 1.371 . S
C189 H192 0.931 . S
C190 C186 1.391 . S
C190 C189 1.371 . S
C190 H197 0.930 . S
H191 C188 0.928 . S
H192 C189 0.931 . S
H193 C169 0.930 . S
H194 C166 0.930 . S
H195 C175 0.930 . S
H196 C187 0.929 . S
H197 C190 0.930 . S
C198 C199 1.351 1_554 S
C198 N201 1.368 . S
C198 H203 0.931 1_554 S
C199 C198 1.351 1_556 S
C199 N200 1.373 1_556 S
C199 H227 0.930 . S
N200 C199 1.373 1_554 S
N200 C202 1.340 . S
N201 C198 1.368 . S
N201 C202 1.321 . S
N201 Co204 2.135 . S
C202 N200 1.340 . S
C202 N201 1.321 . S
C202 H226 0.930 . S
H203 C198 0.931 1_556 S
Co204 N201 2.135 . S
Co204 N207 2.121 . S
Co204 O212 2.055 . S
Co204 O215 2.039 . S
Co204 N218 2.140 . S
C205 O206 1.227 . S
C205 O215 1.265 . S
O206 C205 1.227 . S
N207 Co204 2.121 . S
N207 C209 1.375 . S
N207 C210 1.313 . S
C208 C209 1.338 . S
C208 N211 1.377 . S
C208 H228 0.930 . S
C209 N207 1.375 . S
C209 C208 1.338 . S
C209 H213 0.931 . S
C210 N207 1.313 . S
C210 N211 1.344 . S
C210 H214 0.930 . S
N211 C208 1.377 . S
N211 C210 1.344 . S
O212 Co204 2.055 . S
O212 C216 1.253 . S
H213 C209 0.931 . S
H214 C210 0.930 . S
O215 Co204 2.039 . S
O215 C205 1.265 . S
C216 O212 1.253 . S
C216 O217 1.227 . S
O217 C216 1.227 . S
N218 Co204 2.140 . S
N218 C221 1.346 . S
N218 C222 1.345 . S
C219 C220 1.387 . S
C219 C223 1.391 . S
C220 C219 1.387 . S
C220 C221 1.369 . S
C220 H229 0.929 . S
C221 N218 1.346 . S
C221 C220 1.369 . S
C221 H224 0.928 . S
C222 N218 1.345 . S
C222 C223 1.371 . S
C222 H225 0.931 . S
C223 C219 1.391 . S
C223 C222 1.371 . S
C223 H230 0.930 . S
H224 C221 0.928 . S
H225 C222 0.931 . S
H226 C202 0.930 . S
H227 C199 0.930 . S
H228 C208 0.930 . S
H229 C220 0.929 . S
H230 C223 0.930 . S
C231 C232 1.351 1_565 S
C231 N234 1.368 . S
C231 H236 0.931 . S
C232 C231 1.351 1_545 S
C232 N233 1.373 . S
C232 H260 0.930 . S
N233 C232 1.373 . S
N233 C235 1.340 . S
N234 C231 1.368 . S
N234 C235 1.321 1_565 S
N234 Co237 2.135 . S
C235 N233 1.340 . S
C235 N234 1.321 1_545 S
C235 H259 0.930 . S
H236 C231 0.931 . S
Co237 N234 2.135 . S
Co237 N240 2.121 . S
Co237 O245 2.055 . S
Co237 O248 2.039 1_565 S
Co237 N251 2.140 . S
C238 O239 1.227 1_545 S
C238 O248 1.265 . S
O239 C238 1.227 1_565 S
N240 Co237 2.121 . S
N240 C242 1.375 . S
N240 C243 1.313 . S
C241 C242 1.338 . S
C241 N244 1.377 . S
C241 H261 0.930 . S
C242 N240 1.375 . S
C242 C241 1.338 . S
C242 H246 0.931 . S
C243 N240 1.313 . S
C243 N244 1.344 . S
C243 H247 0.930 . S
N244 C241 1.377 . S
N244 C243 1.344 . S
O245 Co237 2.055 . S
O245 C249 1.253 . S
H246 C242 0.931 . S
H247 C243 0.930 . S
O248 Co237 2.039 1_545 S
O248 C238 1.265 . S
C249 O245 1.253 . S
C249 O250 1.227 . S
O250 C249 1.227 . S
N251 Co237 2.140 . S
N251 C254 1.346 . S
N251 C255 1.345 . S
C252 C253 1.387 . S
C252 C256 1.391 . S
C253 C252 1.387 . S
C253 C254 1.369 . S
C253 H262 0.929 . S
C254 N251 1.346 . S
C254 C253 1.369 . S
C254 H257 0.928 . S
C255 N251 1.345 . S
C255 C256 1.371 . S
C255 H258 0.931 . S
C256 C252 1.391 . S
C256 C255 1.371 . S
C256 H263 0.930 . S
H257 C254 0.928 . S
H258 C255 0.931 . S
H259 C235 0.930 . S
H260 C232 0.930 . S
H261 C241 0.930 . S
H262 C253 0.929 . S
H263 C256 0.930 . S
C264 C265 1.369 . S
C264 C266 1.419 . S
C264 H268 0.930 . S
C265 C264 1.369 . S
C265 C274 1.429 . S
C266 C264 1.419 . S
C266 C267 1.363 . S
C266 H269 0.929 . S
C267 C266 1.363 . S
C267 C273 1.428 . S
H268 C264 0.930 . S
H269 C266 0.929 . S
S270 N271 1.613 . S
S270 N272 1.610 . S
N271 S270 1.613 . S
N271 C274 1.350 . S
N272 S270 1.610 . S
N272 C273 1.351 . S
C273 C267 1.428 . S
C273 N272 1.351 . S
C273 C274 1.434 . S
C274 C265 1.429 . S
C274 N271 1.350 . S
C274 C273 1.434 . S
C275 C276 1.369 . S
C275 C277 1.419 . S
C275 H279 0.930 . S
C276 C275 1.369 . S
C276 C285 1.429 . S
C277 C275 1.419 . S
C277 C278 1.363 . S
C277 H280 0.929 . S
C278 C277 1.363 . S
C278 C284 1.428 . S
H279 C275 0.930 . S
H280 C277 0.929 . S
S281 N282 1.613 . S
S281 N283 1.610 . S
N282 S281 1.613 . S
N282 C285 1.350 . S
N283 S281 1.610 . S
N283 C284 1.351 . S
C284 C278 1.428 . S
C284 N283 1.351 . S
C284 C285 1.434 . S
C285 C276 1.429 . S
C285 N282 1.350 . S
C285 C284 1.434 . S
C286 C287 1.369 . S
C286 C288 1.419 . S
C286 H290 0.930 . S
C287 C286 1.369 . S
C287 C296 1.429 . S
C288 C286 1.419 . S
C288 C289 1.363 . S
C288 H291 0.929 . S
C289 C288 1.363 . S
C289 C295 1.428 . S
H290 C286 0.930 . S
H291 C288 0.929 . S
S292 N293 1.613 . S
S292 N294 1.610 . S
N293 S292 1.613 . S
N293 C296 1.350 . S
N294 S292 1.610 . S
N294 C295 1.351 . S
C295 C289 1.428 . S
C295 N294 1.351 . S
C295 C296 1.434 . S
C296 C287 1.429 . S
C296 N293 1.350 . S
C296 C295 1.434 . S
C297 C298 1.369 . S
C297 C299 1.419 . S
C297 H301 0.930 . S
C298 C297 1.369 . S
C298 C307 1.429 . S
C299 C297 1.419 . S
C299 C300 1.363 . S
C299 H302 0.929 . S
C300 C299 1.363 . S
C300 C306 1.428 . S
H301 C297 0.930 . S
H302 C299 0.929 . S
S303 N304 1.613 . S
S303 N305 1.610 . S
N304 S303 1.613 . S
N304 C307 1.350 . S
N305 S303 1.610 . S
N305 C306 1.351 . S
C306 C300 1.428 . S
C306 N305 1.351 . S
C306 C307 1.434 . S
C307 C298 1.429 . S
C307 N304 1.350 . S
C307 C306 1.434 . S
C308 C309 1.369 . S
C308 C310 1.419 . S
C308 H312 0.930 . S
C309 C308 1.369 . S
C309 C318 1.429 . S
C310 C308 1.419 . S
C310 C311 1.363 . S
C310 H313 0.929 . S
C311 C310 1.363 . S
C311 C317 1.428 . S
H312 C308 0.930 . S
H313 C310 0.929 . S
S314 N315 1.623 . S
S314 N316 1.610 . S
N315 S314 1.623 . S
N315 C318 1.343 1_565 S
N316 S314 1.610 . S
N316 C317 1.351 1_565 S
C317 C311 1.428 . S
C317 N316 1.351 1_545 S
C317 C318 1.434 . S
C318 C309 1.429 . S
C318 N315 1.343 1_545 S
C318 C317 1.434 . S
C319 C320 1.369 . S
C319 C321 1.419 . S
C319 H323 0.930 . S
C320 C319 1.369 . S
C320 C329 1.429 . S
C321 C319 1.419 . S
C321 C322 1.363 . S
C321 H324 0.929 . S
C322 C321 1.363 . S
C322 C328 1.428 . S
H323 C319 0.930 . S
H324 C321 0.929 . S
S325 N326 1.613 . S
S325 N327 1.610 . S
N326 S325 1.613 . S
N326 C329 1.350 . S
N327 S325 1.610 . S
N327 C328 1.351 . S
C328 C322 1.428 . S
C328 N327 1.351 . S
C328 C329 1.434 . S
C329 C320 1.429 . S
C329 N326 1.350 . S
C329 C328 1.434 . S
C330 C331 1.369 . S
C330 C332 1.419 . S
C330 H334 0.930 . S
C331 C330 1.369 . S
C331 C340 1.429 . S
C332 C330 1.419 . S
C332 C333 1.363 . S
C332 H335 0.929 . S
C333 C332 1.363 . S
C333 C339 1.428 . S
H334 C330 0.930 . S
H335 C332 0.929 . S
S336 N337 1.613 . S
S336 N338 1.610 . S
N337 S336 1.613 . S
N337 C340 1.350 1_545 S
N338 S336 1.610 . S
N338 C339 1.351 1_545 S
C339 C333 1.428 . S
C339 N338 1.351 1_565 S
C339 C340 1.434 . S
C340 C331 1.429 . S
C340 N337 1.350 1_565 S
C340 C339 1.434 . S
C341 C342 1.369 . S
C341 C343 1.419 . S
C341 H345 0.930 . S
C342 C341 1.369 . S
C342 C351 1.429 . S
C343 C341 1.419 . S
C343 C344 1.363 . S
C343 H346 0.929 . S
C344 C343 1.363 . S
C344 C350 1.428 . S
H345 C341 0.930 . S
H346 C343 0.929 . S
S347 N348 1.613 1_545 S
S347 N349 1.610 1_545 S
N348 S347 1.613 1_565 S
N348 C351 1.350 . S
N349 S347 1.610 1_565 S
N349 C350 1.351 . S
C350 C344 1.428 . S
C350 N349 1.351 . S
C350 C351 1.434 . S
C351 C342 1.429 . S
C351 N348 1.350 . S
C351 C350 1.434 . S
C352 C353 1.369 . S
C352 C354 1.419 . S
C352 H356 0.930 . S
C353 C352 1.369 . S
C353 C362 1.429 . S
C354 C352 1.419 . S
C354 C355 1.363 . S
C354 H357 0.929 . S
C355 C354 1.363 . S
C355 C361 1.428 . S
H356 C352 0.930 . S
H357 C354 0.929 . S
S358 N359 1.613 . S
S358 N360 1.610 . S
N359 S358 1.613 . S
N359 C362 1.350 . S
N360 S358 1.610 . S
N360 C361 1.351 . S
C361 C355 1.428 . S
C361 N360 1.351 . S
C361 C362 1.434 . S
C362 C353 1.429 . S
C362 N359 1.350 . S
C362 C361 1.434 . S
C363 C364 1.369 . S
C363 C365 1.419 . S
C363 H367 0.930 . S
C364 C363 1.369 . S
C364 C373 1.429 . S
C365 C363 1.419 . S
C365 C366 1.363 . S
C365 H368 0.929 . S
C366 C365 1.363 . S
C366 C372 1.428 . S
H367 C363 0.930 . S
H368 C365 0.929 . S
S369 N370 1.613 . S
S369 N371 1.610 . S
N370 S369 1.613 . S
N370 C373 1.350 . S
N371 S369 1.610 . S
N371 C372 1.351 . S
C372 C366 1.428 . S
C372 N371 1.351 . S
C372 C373 1.434 . S
C373 C364 1.429 . S
C373 N370 1.350 . S
C373 C372 1.434 . S
C374 C375 1.369 . S
C374 C376 1.419 . S
C374 H378 0.930 . S
C375 C374 1.369 . S
C375 C384 1.429 . S
C376 C374 1.419 . S
C376 C377 1.363 . S
C376 H379 0.929 . S
C377 C376 1.363 . S
C377 C383 1.428 . S
H378 C374 0.930 . S
H379 C376 0.929 . S
S380 N381 1.613 . S
S380 N382 1.610 1_545 S
N381 S380 1.613 . S
N381 C384 1.350 1_545 S
N382 S380 1.610 1_565 S
N382 C383 1.351 . S
C383 C377 1.428 . S
C383 N382 1.351 . S
C383 C384 1.434 . S
C384 C375 1.429 . S
C384 N381 1.350 1_565 S
C384 C383 1.434 . S
C385 C386 1.369 . S
C385 C387 1.419 . S
C385 H389 0.930 . S
C386 C385 1.369 . S
C386 C395 1.429 . S
C387 C385 1.419 . S
C387 C388 1.363 . S
C387 H390 0.929 . S
C388 C387 1.363 . S
C388 C394 1.428 . S
H389 C385 0.930 . S
H390 C387 0.929 . S
S391 N392 1.613 . S
S391 N393 1.610 . S
N392 S391 1.613 . S
N392 C395 1.350 . S
N393 S391 1.610 . S
N393 C394 1.351 . S
C394 C388 1.428 . S
C394 N393 1.351 . S
C394 C395 1.434 . S
C395 C386 1.429 . S
C395 N392 1.350 . S
C395 C394 1.434 . S
C396 C397 1.369 . S
C396 C398 1.419 . S
C396 H400 0.930 . S
C397 C396 1.369 . S
C397 C406 1.429 . S
C398 C396 1.419 . S
C398 C399 1.363 . S
C398 H401 0.929 . S
C399 C398 1.363 . S
C399 C405 1.428 . S
H400 C396 0.930 . S
H401 C398 0.929 . S
S402 N403 1.613 . S
S402 N404 1.610 . S
N403 S402 1.613 . S
N403 C406 1.350 . S
N404 S402 1.610 . S
N404 C405 1.351 . S
C405 C399 1.428 . S
C405 N404 1.351 . S
C405 C406 1.434 . S
C406 C397 1.429 . S
C406 N403 1.350 . S
C406 C405 1.434 . S
C407 C408 1.369 . S
C407 C409 1.419 . S
C407 H411 0.930 . S
C408 C407 1.369 . S
C408 C417 1.429 . S
C409 C407 1.419 . S
C409 C410 1.363 . S
C409 H412 0.929 . S
C410 C409 1.363 . S
C410 C416 1.428 . S
H411 C407 0.930 . S
H412 C409 0.929 . S
S413 N414 1.613 . S
S413 N415 1.610 1_455 S
N414 S413 1.613 . S
N414 C417 1.350 . S
N415 S413 1.610 1_655 S
N415 C416 1.351 1_655 S
C416 C410 1.428 . S
C416 N415 1.351 1_455 S
C416 C417 1.434 . S
C417 C408 1.429 . S
C417 N414 1.350 . S
C417 C416 1.434 . S
C418 C419 1.369 . S
C418 C420 1.419 . S
C418 H422 0.930 . S
C419 C418 1.369 . S
C419 C428 1.429 . S
C420 C418 1.419 . S
C420 C421 1.363 . S
C420 H423 0.929 . S
C421 C420 1.363 . S
C421 C427 1.428 . S
H422 C418 0.930 . S
H423 C420 0.929 . S
S424 N425 1.613 . S
S424 N426 1.610 . S
N425 S424 1.613 . S
N425 C428 1.350 . S
N426 S424 1.610 . S
N426 C427 1.351 . S
C427 C421 1.428 . S
C427 N426 1.351 . S
C427 C428 1.434 . S
C428 C419 1.429 . S
C428 N425 1.350 . S
C428 C427 1.434 . S
C429 C430 1.369 . S
C429 C431 1.419 . S
C429 H433 0.930 . S
C430 C429 1.369 . S
C430 C439 1.429 . S
C431 C429 1.419 . S
C431 C432 1.363 . S
C431 H434 0.929 1_655 S
C432 C431 1.363 . S
C432 C438 1.428 . S
H433 C429 0.930 . S
H434 C431 0.929 1_455 S
S435 N436 1.613 . S
S435 N437 1.610 . S
N436 S435 1.613 . S
N436 C439 1.350 . S
N437 S435 1.610 . S
N437 C438 1.351 . S
C438 C432 1.428 . S
C438 N437 1.351 . S
C438 C439 1.434 . S
C439 C430 1.429 . S
C439 N436 1.350 . S
C439 C438 1.434 . S
C440 C441 1.369 . S
C440 C442 1.419 . S
C440 H444 0.930 . S
C441 C440 1.369 . S
C441 C450 1.429 . S
C442 C440 1.419 . S
C442 C443 1.363 . S
C442 H445 0.929 . S
C443 C442 1.363 . S
C443 C449 1.428 . S
H444 C440 0.930 . S
H445 C442 0.929 . S
S446 N447 1.613 . S
S446 N448 1.610 . S
N447 S446 1.613 . S
N447 C450 1.350 . S
N448 S446 1.610 . S
N448 C449 1.351 . S
C449 C443 1.428 . S
C449 N448 1.351 . S
C449 C450 1.434 . S
C450 C441 1.429 . S
C450 N447 1.350 . S
C450 C449 1.434 . S
C451 C452 1.369 . S
C451 C453 1.419 . S
C451 H455 0.930 . S
C452 C451 1.369 . S
C452 C461 1.429 . S
C453 C451 1.419 . S
C453 C454 1.363 . S
C453 H456 0.929 . S
C454 C453 1.363 . S
C454 C460 1.428 . S
H455 C451 0.930 . S
H456 C453 0.929 . S
S457 N458 1.613 . S
S457 N459 1.610 . S
N458 S457 1.613 . S
N458 C461 1.350 . S
N459 S457 1.610 . S
N459 C460 1.351 . S
C460 C454 1.428 . S
C460 N459 1.351 . S
C460 C461 1.434 . S
C461 C452 1.429 . S
C461 N458 1.350 . S
C461 C460 1.434 . S
C462 C463 1.369 . S
C462 C464 1.419 . S
C462 H466 0.930 . S
C463 C462 1.369 . S
C463 C472 1.429 . S
C464 C462 1.419 . S
C464 C465 1.363 . S
C464 H467 0.929 . S
C465 C464 1.363 . S
C465 C471 1.428 . S
H466 C462 0.930 . S
H467 C464 0.929 . S
S468 N469 1.613 . S
S468 N470 1.610 . S
N469 S468 1.613 . S
N469 C472 1.350 . S
N470 S468 1.610 . S
N470 C471 1.351 . S
C471 C465 1.428 . S
C471 N470 1.351 . S
C471 C472 1.434 . S
C472 C463 1.429 . S
C472 N469 1.350 . S
C472 C471 1.434 . S
C473 C474 1.369 1_554 S
C473 C475 1.419 . S
C473 H477 0.930 . S
C474 C473 1.369 1_556 S
C474 C483 1.429 . S
C475 C473 1.419 . S
C475 C476 1.363 . S
C475 H478 0.929 . S
C476 C475 1.363 . S
C476 C482 1.428 1_554 S
H477 C473 0.930 . S
H478 C475 0.929 . S
S479 N480 1.613 . S
S479 N481 1.610 . S
N480 S479 1.613 . S
N480 C483 1.350 . S
N481 S479 1.610 . S
N481 C482 1.351 . S
C482 C476 1.428 1_556 S
C482 N481 1.351 . S
C482 C483 1.434 . S
C483 C474 1.429 . S
C483 N480 1.350 . S
C483 C482 1.434 . S
C265 C18 1.304 . S
C267 C40 1.305 . S
C276 C73 1.304 . S
C278 C51 1.305 . S
C287 C106 1.302 . S
C289 C84 1.301 . S
C298 C117 1.306 1_554 S
C300 C7 1.304 . S
C309 C150 1.303 . S
C311 C238 1.300 . S
C320 C183 1.304 . S
C322 C139 1.300 . S
C331 C216 1.304 1_556 S
C333 C172 1.300 . S
C342 C249 1.306 . S
C344 C205 1.302 . S
C353 N211 1.562 1_545 S
C355 C21 1.611 . S
C364 N244 1.566 . S
C366 C54 1.609 . S
C375 N145 1.566 1_565 S
C377 C87 1.609 . S
C386 N178 1.563 . S
C388 C120 1.611 . S
C397 C153 1.608 . S
C399 N79 1.569 . S
C408 C186 1.611 . S
C410 N112 1.563 1_455 S
C419 C219 1.611 . S
C421 N13 1.564 . S
C430 C252 1.609 . S
C432 N46 1.568 1_655 S
C441 N233 1.307 . S
C443 N2 1.297 . S
C452 N134 1.298 . S
C454 N35 1.303 . S
C463 N68 1.305 . S
C465 N167 1.298 . S
C474 N101 1.306 . S
C476 N200 1.297 . S
