# Generated by pormake.
# Topology wje, (4)-cn, num edge types: 1
# Building blocks:
#     Node 0, Type 0, BuildingBlock: CEKHIL_clean_sbu_0, # of connection points: 4
#     Node 1, Type 0, BuildingBlock: CEKHIL_clean_sbu_0, # of connection points: 4
#     Node 2, Type 0, BuildingBlock: CEKHIL_clean_sbu_0, # of connection points: 4
#     Node 3, Type 0, BuildingBlock: CEKHIL_clean_sbu_0, # of connection points: 4
#     Node 4, Type 0, BuildingBlock: CEKHIL_clean_sbu_0, # of connection points: 4
#     Node 5, Type 0, BuildingBlock: CEKHIL_clean_sbu_0, # of connection points: 4
#     Node 6, Type 0, BuildingBlock: CEKHIL_clean_sbu_0, # of connection points: 4
#     Node 7, Type 0, BuildingBlock: CEKHIL_clean_sbu_0, # of connection points: 4
#     Node 8, Type 0, BuildingBlock: CEKHIL_clean_sbu_0, # of connection points: 4
#     Node 9, Type 0, BuildingBlock: CEKHIL_clean_sbu_0, # of connection points: 4
#     Node 10, Type 0, BuildingBlock: CEKHIL_clean_sbu_0, # of connection points: 4
#     Node 11, Type 0, BuildingBlock: CEKHIL_clean_sbu_0, # of connection points: 4
#     Edge 12, Type (0, 0), BuildingBlock: MIFKUJ_clean_linker_0, # of connection points: 2
#     Edge 13, Type (0, 0), BuildingBlock: MIFKUJ_clean_linker_0, # of connection points: 2
#     Edge 14, Type (0, 0), BuildingBlock: MIFKUJ_clean_linker_0, # of connection points: 2
#     Edge 15, Type (0, 0), BuildingBlock: MIFKUJ_clean_linker_0, # of connection points: 2
#     Edge 16, Type (0, 0), BuildingBlock: MIFKUJ_clean_linker_0, # of connection points: 2
#     Edge 17, Type (0, 0), BuildingBlock: MIFKUJ_clean_linker_0, # of connection points: 2
#     Edge 18, Type (0, 0), BuildingBlock: MIFKUJ_clean_linker_0, # of connection points: 2
#     Edge 19, Type (0, 0), BuildingBlock: MIFKUJ_clean_linker_0, # of connection points: 2
#     Edge 20, Type (0, 0), BuildingBlock: MIFKUJ_clean_linker_0, # of connection points: 2
#     Edge 21, Type (0, 0), BuildingBlock: MIFKUJ_clean_linker_0, # of connection points: 2
#     Edge 22, Type (0, 0), BuildingBlock: MIFKUJ_clean_linker_0, # of connection points: 2
#     Edge 23, Type (0, 0), BuildingBlock: MIFKUJ_clean_linker_0, # of connection points: 2
#     Edge 24, Type (0, 0), BuildingBlock: MIFKUJ_clean_linker_0, # of connection points: 2
#     Edge 25, Type (0, 0), BuildingBlock: MIFKUJ_clean_linker_0, # of connection points: 2
#     Edge 26, Type (0, 0), BuildingBlock: MIFKUJ_clean_linker_0, # of connection points: 2
#     Edge 27, Type (0, 0), BuildingBlock: MIFKUJ_clean_linker_0, # of connection points: 2
#     Edge 28, Type (0, 0), BuildingBlock: MIFKUJ_clean_linker_0, # of connection points: 2
#     Edge 29, Type (0, 0), BuildingBlock: MIFKUJ_clean_linker_0, # of connection points: 2
#     Edge 30, Type (0, 0), BuildingBlock: MIFKUJ_clean_linker_0, # of connection points: 2
#     Edge 31, Type (0, 0), BuildingBlock: MIFKUJ_clean_linker_0, # of connection points: 2
#     Edge 32, Type (0, 0), BuildingBlock: MIFKUJ_clean_linker_0, # of connection points: 2
#     Edge 33, Type (0, 0), BuildingBlock: MIFKUJ_clean_linker_0, # of connection points: 2
#     Edge 34, Type (0, 0), BuildingBlock: MIFKUJ_clean_linker_0, # of connection points: 2
#     Edge 35, Type (0, 0), BuildingBlock: MIFKUJ_clean_linker_0, # of connection points: 2
# Relax obj value: 0.166
# Max RMSD: 0.099
# Mean RMSD: 0.099
data_MOF--net-wje--node1-CEKHIL_clean_sbu_0--edge1-MIFKUJ_clean_linker_0
_symmetry_space_group_name_H-M    P1
_symmetry_Int_Tables_number       1
_symmetry_cell_setting            triclinic
loop_
_symmetry_equiv_pos_as_xyz
'x, y, z'
_cell_length_a     51.144809
_cell_length_b     51.135355
_cell_length_c     49.23259
_cell_angle_alpha  89.989582
_cell_angle_beta   90.043136
_cell_angle_gamma 119.95842
loop_
_atom_site_label
_atom_site_type_symbol
_atom_site_fract_x
_atom_site_fract_y
_atom_site_fract_z
_atom_type_partial_charge
Co0 Co 0.3189 0.02348 0.30075 0.0
O1 O 0.32287 0.03581 0.26325 0.0
O2 O 0.34371 0.06743 0.2974 0.0
C3 C 0.26837 0.99229 0.29938 0.0
O4 O 0.31781 0.01801 0.34245 0.0
Co5 Co 0.29456 0.95551 0.31415 0.0
O6 O 0.28814 0.96819 0.35036 0.0
C7 C 0.35821 0.99395 0.29708 0.0
C8 C 0.33852 0.06351 0.27136 0.0
C9 C 0.3024 0.99545 0.35866 0.0
O10 O 0.35545 0.01775 0.29735 0.0
O11 O 0.33607 0.96731 0.30126 0.0
O12 O 0.27947 0.02108 0.30288 0.0
O13 O 0.28787 0.984 0.29425 0.0
Co14 Co 0.29244 0.31961 0.63637 0.0
O15 O 0.28378 0.32219 0.59861 0.0
O16 O 0.27137 0.34251 0.63206 0.0
C17 C 0.27597 0.26953 0.63595 0.0
O18 O 0.29679 0.31978 0.6782 0.0
Co19 Co 0.33885 0.2991 0.6515 0.0
O20 O 0.31917 0.29232 0.68747 0.0
C21 C 0.36046 0.36065 0.63023 0.0
C22 C 0.27061 0.33701 0.60612 0.0
C23 C 0.30481 0.3055 0.69498 0.0
O24 O 0.33376 0.35732 0.63243 0.0
O25 O 0.36609 0.33926 0.63459 0.0
O26 O 0.2568 0.27898 0.63877 0.0
O27 O 0.30331 0.29025 0.63105 0.0
Co28 Co 0.97248 0.29344 0.96585 0.0
O29 O 0.96041 0.28114 0.92893 0.0
O30 O 0.92861 0.27521 0.96171 0.0
C31 C 0.00257 0.27313 0.96914 0.0
O32 O 0.97814 0.30255 0.00695 0.0
Co33 Co 0.04087 0.33807 0.97663 0.0
O34 O 0.02833 0.32905 0.01512 0.0
C35 C 0.00321 0.36112 0.95344 0.0
C36 C 0.93275 0.27103 0.93628 0.0
C37 C 0.00102 0.31527 0.0233 0.0
O38 O 0.97921 0.33535 0.95756 0.0
O39 O 0.0299 0.36559 0.95721 0.0
O40 O 0.97374 0.25638 0.97309 0.0
O41 O 0.0115 0.30017 0.96081 0.0
Co42 Co 0.68146 0.97335 0.29987 0.0
O43 O 0.67808 0.95799 0.26347 0.0
O44 O 0.65621 0.92934 0.2993 0.0
C45 C 0.73204 0.00374 0.2994 0.0
O46 O 0.68144 0.9823 0.34077 0.0
Co47 Co 0.7055 0.04236 0.30666 0.0
O48 O 0.70509 0.03291 0.34572 0.0
C49 C 0.64308 0.00273 0.28809 0.0
C50 C 0.6617 0.93115 0.27331 0.0
C51 C 0.6925 0.00635 0.35572 0.0
O52 O 0.64539 0.97919 0.29326 0.0
O53 O 0.66544 0.02969 0.28949 0.0
O54 O 0.72039 0.97528 0.30494 0.0
O55 O 0.71321 0.01206 0.2917 0.0
Co56 Co 0.70593 0.68045 0.63105 0.0
O57 O 0.71434 0.67705 0.59346 0.0
O58 O 0.72376 0.65447 0.62706 0.0
C59 C 0.72689 0.73118 0.63061 0.0
O60 O 0.70114 0.68057 0.67275 0.0
Co61 Co 0.66448 0.70715 0.64552 0.0
O62 O 0.68381 0.71253 0.68157 0.0
C63 C 0.63722 0.64393 0.62615 0.0
C64 C 0.72547 0.66042 0.60115 0.0
C65 C 0.69534 0.6967 0.68933 0.0
O66 O 0.66311 0.64519 0.62688 0.0
O67 O 0.63396 0.66677 0.63085 0.0
O68 O 0.74375 0.7191 0.63399 0.0
O69 O 0.69896 0.71254 0.62527 0.0
Co70 Co 0.02583 0.70475 0.96706 0.0
O71 O 0.03638 0.71549 0.92967 0.0
O72 O 0.0696 0.72332 0.96171 0.0
C73 C 0.99531 0.72472 0.9701 0.0
O74 O 0.02159 0.69733 0.00855 0.0
Co75 Co 0.95775 0.66024 0.97999 0.0
O76 O 0.97162 0.6716 0.01791 0.0
C77 C 0.99517 0.63664 0.95702 0.0
C78 C 0.06438 0.72641 0.9363 0.0
C79 C 0.99916 0.68549 0.02547 0.0
O80 O 0.01927 0.66266 0.95997 0.0
O81 O 0.96862 0.63224 0.96142 0.0
O82 O 0.02426 0.74193 0.97301 0.0
O83 O 0.98656 0.69738 0.96286 0.0
Co84 Co 0.97232 0.67855 0.37539 0.0
O85 O 0.95902 0.67474 0.41262 0.0
O86 O 0.92833 0.65421 0.37776 0.0
C87 C 0.00401 0.72901 0.37673 0.0
O88 O 0.97868 0.67926 0.33389 0.0
Co89 Co 0.04041 0.70197 0.36337 0.0
O90 O 0.02872 0.70807 0.32648 0.0
C91 C 0.00137 0.63943 0.38276 0.0
C92 C 0.93156 0.65927 0.40383 0.0
C93 C 0.00156 0.69409 0.3179 0.0
O94 O 0.97756 0.64184 0.37969 0.0
O95 O 0.02824 0.66158 0.37964 0.0
O96 O 0.97535 0.71826 0.37264 0.0
O97 O 0.01179 0.70923 0.38238 0.0
Co98 Co 0.29316 0.96976 0.70876 0.0
O99 O 0.28306 0.9569 0.74585 0.0
O100 O 0.27268 0.92563 0.71144 0.0
C101 C 0.27583 0.00264 0.70894 0.0
O102 O 0.29995 0.97656 0.6674 0.0
Co103 Co 0.34099 0.03777 0.69953 0.0
O104 O 0.32882 0.02692 0.66108 0.0
C105 C 0.36041 0.99619 0.7196 0.0
C106 C 0.27101 0.92931 0.73748 0.0
C107 C 0.31314 0.00013 0.65183 0.0
O108 O 0.33432 0.97346 0.71373 0.0
O109 O 0.36629 0.0236 0.7185 0.0
O110 O 0.25722 0.97405 0.70524 0.0
O111 O 0.30288 0.00942 0.71551 0.0
Co112 Co 0.31962 0.29295 0.04605 0.0
O113 O 0.32296 0.28257 0.08307 0.0
O114 O 0.3435 0.27269 0.04805 0.0
C115 C 0.26934 0.27502 0.04767 0.0
O116 O 0.31943 0.29966 1.00461 0.0
Co117 Co 0.29697 0.33864 0.03542 0.0
O118 O 0.29749 0.32788 0.99691 0.0
C119 C 0.35861 0.3604 0.05627 0.0
C120 C 0.33839 0.27061 0.07412 0.0
C121 C 0.30932 0.31258 0.98842 0.0
O122 O 0.35655 0.33458 0.05137 0.0
O123 O 0.33629 0.36498 0.054 0.0
O124 O 0.27949 0.25676 0.04266 0.0
O125 O 0.2895 0.30226 0.05356 0.0
Co126 Co 0.02929 0.31902 0.37344 0.0
O127 O 0.04129 0.32325 0.4111 0.0
O128 O 0.07312 0.34429 0.37712 0.0
C129 C 0.99881 0.26843 0.37487 0.0
O130 O 0.02445 0.31807 0.33167 0.0
Co131 Co 0.96151 0.29308 0.35839 0.0
O132 O 0.97521 0.28656 0.32269 0.0
C133 C 0.99836 0.35699 0.37584 0.0
C134 C 0.06901 0.33917 0.40314 0.0
C135 C 0.00261 0.30194 0.31502 0.0
O136 O 0.02258 0.35498 0.3766 0.0
O137 O 0.97216 0.33446 0.37084 0.0
O138 O 0.02765 0.27993 0.3714 0.0
O139 O 0.98994 0.28753 0.37963 0.0
Co140 Co 0.70854 0.02618 0.70756 0.0
O141 O 0.71758 0.03785 0.74504 0.0
O142 O 0.72834 0.07019 0.71145 0.0
C143 C 0.72677 0.99402 0.70835 0.0
O144 O 0.70371 0.02117 0.66582 0.0
Co145 Co 0.66352 0.95856 0.6938 0.0
O146 O 0.68269 0.9713 0.6577 0.0
C147 C 0.63991 0.9987 0.70971 0.0
C148 C 0.73003 0.06569 0.73731 0.0
C149 C 0.69597 0.99858 0.64947 0.0
O150 O 0.66686 0.02166 0.71137 0.0
O151 O 0.63427 0.97188 0.70435 0.0
O152 O 0.74494 0.02273 0.70495 0.0
O153 O 0.69916 0.98633 0.71358 0.0
Co154 Co 0.67904 0.7058 0.04122 0.0
O155 O 0.67887 0.71497 0.07924 0.0
O156 O 0.65528 0.72563 0.04744 0.0
C157 C 0.72932 0.72364 0.03861 0.0
O158 O 0.67586 0.7008 0.99942 0.0
Co159 Co 0.70005 0.66015 0.02427 0.0
O160 O 0.69634 0.67232 0.98704 0.0
C161 C 0.64018 0.63766 0.04914 0.0
C162 C 0.66277 0.72719 0.07295 0.0
C163 C 0.68434 0.68827 0.98121 0.0
O164 O 0.64239 0.6639 0.04681 0.0
O165 O 0.66205 0.63301 0.04409 0.0
O166 O 0.71901 0.74221 0.03699 0.0
O167 O 0.70955 0.69615 0.04419 0.0
H168 H 0.35912 0.12382 0.28174 0.0
H169 H 0.36641 0.16294 0.24866 0.0
H170 H 0.34364 0.09882 0.18348 0.0
H171 H 0.33667 0.06003 0.21616 0.0
H172 H 0.38876 0.15311 0.16804 0.0
H173 H 0.29118 0.11469 0.21073 0.0
H174 H 0.25662 0.10306 0.24954 0.0
H175 H 0.30196 0.1968 0.2717 0.0
H176 H 0.33704 0.20893 0.23319 0.0
H177 H 0.34394 0.22072 0.06376 0.0
H178 H 0.35028 0.18876 0.09723 0.0
H179 H 0.35994 0.25113 0.1608 0.0
H180 H 0.35186 0.28191 0.12768 0.0
H181 H 0.32448 0.1997 0.17839 0.0
H182 H 0.4206 0.23934 0.13431 0.0
H183 H 0.4555 0.25128 0.09573 0.0
H184 H 0.41467 0.15699 0.07657 0.0
H185 H 0.37927 0.14452 0.11484 0.0
C186 C 0.3562 0.11824 0.26033 0.0
C187 C 0.34716 0.0887 0.25168 0.0
C188 C 0.36016 0.14057 0.24141 0.0
C189 C 0.35516 0.13381 0.21347 0.0
C190 C 0.3476 0.10472 0.20481 0.0
C191 C 0.34354 0.08247 0.22362 0.0
C192 C 0.35608 0.15621 0.1933 0.0
C193 C 0.37461 0.16322 0.17023 0.0
C194 C 0.33808 0.16993 0.19621 0.0
C195 C 0.31692 0.16266 0.21928 0.0
C196 C 0.29391 0.13278 0.224 0.0
C197 C 0.27421 0.12611 0.24592 0.0
C198 C 0.27715 0.14917 0.26312 0.0
C199 C 0.29974 0.17896 0.25839 0.0
C200 C 0.31953 0.18575 0.23652 0.0
C201 C 0.34802 0.22784 0.0848 0.0
C202 C 0.34747 0.25388 0.09305 0.0
C203 C 0.35173 0.20957 0.10402 0.0
C204 C 0.35587 0.21742 0.13181 0.0
C205 C 0.3566 0.24421 0.13969 0.0
C206 C 0.35218 0.26199 0.12066 0.0
C207 C 0.35742 0.19701 0.15299 0.0
C208 C 0.33909 0.1901 0.17623 0.0
C209 C 0.37578 0.18359 0.15026 0.0
C210 C 0.39712 0.19103 0.12731 0.0
C211 C 0.41894 0.22117 0.12176 0.0
C212 C 0.43883 0.22803 0.09997 0.0
C213 C 0.43725 0.20491 0.08367 0.0
C214 C 0.41584 0.17488 0.08919 0.0
C215 C 0.39589 0.1679 0.11095 0.0
H216 H 0.45266 0.21027 0.0668 0.0
H217 H 0.26187 0.14396 0.28008 0.0
H218 H 0.2293 0.35587 0.61528 0.0
H219 H 0.19802 0.36285 0.58132 0.0
H220 H 0.24232 0.34211 0.51735 0.0
H221 H 0.2735 0.33526 0.55095 0.0
H222 H 0.23322 0.38801 0.50227 0.0
H223 H 0.17385 0.28865 0.54141 0.0
H224 H 0.14979 0.25232 0.57885 0.0
H225 H 0.09879 0.29509 0.60065 0.0
H226 H 0.12287 0.33194 0.56353 0.0
H227 H 0.12534 0.34639 0.39441 0.0
H228 H 0.16232 0.35188 0.42894 0.0
H229 H 0.10613 0.35765 0.49131 0.0
H230 H 0.06858 0.35044 0.45704 0.0
H231 H 0.12224 0.32205 0.50853 0.0
H232 H 0.1792 0.42019 0.46819 0.0
H233 H 0.20335 0.45699 0.43109 0.0
H234 H 0.25887 0.41838 0.41208 0.0
H235 H 0.23479 0.38111 0.44886 0.0
C236 C 0.23266 0.35324 0.59396 0.0
C237 C 0.25386 0.34487 0.58591 0.0
C238 C 0.21463 0.35706 0.57453 0.0
C239 C 0.21749 0.35268 0.54667 0.0
C240 C 0.23957 0.34562 0.53862 0.0
C241 C 0.25737 0.34161 0.55795 0.0
C242 C 0.1967 0.35393 0.52589 0.0
C243 C 0.20894 0.37349 0.50355 0.0
C244 C 0.16494 0.33544 0.52765 0.0
C245 C 0.1504 0.31324 0.5499 0.0
C246 C 0.15768 0.29045 0.55432 0.0
C247 C 0.14401 0.26974 0.57546 0.0
C248 C 0.12284 0.27145 0.59217 0.0
C249 C 0.11523 0.29383 0.58772 0.0
C250 C 0.12887 0.31462 0.56663 0.0
C251 C 0.12124 0.34948 0.41543 0.0
C252 C 0.09407 0.34809 0.42295 0.0
C253 C 0.14247 0.35269 0.43527 0.0
C254 C 0.13741 0.35547 0.46303 0.0
C255 C 0.11076 0.35537 0.47024 0.0
C256 C 0.08931 0.35147 0.45055 0.0
C257 C 0.1586 0.35641 0.48476 0.0
C258 C 0.14645 0.33701 0.50727 0.0
C259 C 0.19041 0.37525 0.4832 0.0
C260 C 0.205 0.3977 0.46114 0.0
C261 C 0.19642 0.41943 0.45599 0.0
C262 C 0.21012 0.44039 0.43503 0.0
C263 C 0.23258 0.43998 0.4192 0.0
C264 C 0.24145 0.41866 0.42434 0.0
C265 C 0.22781 0.39763 0.44526 0.0
H266 H 0.24315 0.45622 0.40299 0.0
H267 H 0.11228 0.25539 0.60852 0.0
H268 H 0.76004 0.06235 0.78098 0.0
H269 H 0.78944 0.10097 0.81432 0.0
H270 H 0.76889 0.1631 0.77319 0.0
H271 H 0.74081 0.12451 0.73827 0.0
H272 H 0.82226 0.19349 0.78958 0.0
H273 H 0.73404 0.12496 0.83719 0.0
H274 H 0.69353 0.0756 0.85344 0.0
H275 H 0.75872 0.06115 0.89569 0.0
H276 H 0.79968 0.11023 0.87941 0.0
H277 H 0.87096 0.24651 0.94299 0.0
H278 H 0.83109 0.21678 0.9096 0.0
H279 H 0.89887 0.2263 0.85204 0.0
H280 H 0.93819 0.25648 0.88444 0.0
H281 H 0.81287 0.16532 0.887 0.0
H282 H 0.87999 0.22494 0.78824 0.0
H283 H 0.91636 0.27651 0.77299 0.0
H284 H 0.88509 0.3134 0.83491 0.0
H285 H 0.84822 0.26207 0.8503 0.0
C286 C 0.76163 0.0842 0.77901 0.0
C287 C 0.74775 0.09023 0.75713 0.0
C288 C 0.77831 0.10631 0.79835 0.0
C289 C 0.78069 0.13488 0.79713 0.0
C290 C 0.76724 0.14122 0.77493 0.0
C291 C 0.75114 0.11917 0.75497 0.0
C292 C 0.79801 0.15799 0.81867 0.0
C293 C 0.81997 0.18731 0.81087 0.0
C294 C 0.79457 0.15064 0.84678 0.0
C295 C 0.76995 0.12126 0.85698 0.0
C296 C 0.73975 0.11121 0.84987 0.0
C297 C 0.71671 0.08327 0.85908 0.0
C298 C 0.72355 0.06524 0.87557 0.0
C299 C 0.75345 0.07515 0.88294 0.0
C300 C 0.77658 0.10306 0.87377 0.0
C301 C 0.87726 0.24259 0.92305 0.0
C302 C 0.90784 0.25414 0.91641 0.0
C303 C 0.85447 0.22549 0.90398 0.0
C304 C 0.86181 0.21962 0.87792 0.0
C305 C 0.89237 0.2311 0.87152 0.0
C306 C 0.91497 0.24829 0.89031 0.0
C307 C 0.83798 0.20024 0.8577 0.0
C308 C 0.8148 0.17164 0.86575 0.0
C309 C 0.83961 0.20862 0.82998 0.0
C310 C 0.86143 0.2396 0.82052 0.0
C311 C 0.88071 0.24403 0.79849 0.0
C312 C 0.90146 0.27324 0.78985 0.0
C313 C 0.90308 0.29821 0.80301 0.0
C314 C 0.88388 0.29404 0.82479 0.0
C315 C 0.86307 0.26489 0.83349 0.0
H316 H 0.91918 0.3208 0.79631 0.0
H317 H 0.70568 0.0436 0.88264 0.0
H318 H 0.63288 0.75933 0.06663 0.0
H319 H 0.62543 0.78983 0.101 0.0
H320 H 0.67005 0.76394 0.16067 0.0
H321 H 0.6769 0.73312 0.12683 0.0
H322 H 0.62383 0.76455 0.18362 0.0
H323 H 0.70655 0.83353 0.12586 0.0
H324 H 0.73013 0.85708 0.08215 0.0
H325 H 0.66482 0.88555 0.07082 0.0
H326 H 0.64065 0.86185 0.11433 0.0
H327 H 0.6672 0.88138 0.28263 0.0
H328 H 0.66161 0.84338 0.24928 0.0
H329 H 0.62897 0.88289 0.19031 0.0
H330 H 0.63699 0.92217 0.22303 0.0
H331 H 0.66526 0.87362 0.16589 0.0
H332 H 0.58378 0.80768 0.22476 0.0
H333 H 0.55959 0.78396 0.26823 0.0
H334 H 0.62005 0.74911 0.27729 0.0
H335 H 0.64483 0.77291 0.23404 0.0
C336 C 0.64079 0.75989 0.08715 0.0
C337 C 0.65561 0.74382 0.09385 0.0
C338 C 0.63669 0.77751 0.1068 0.0
C339 C 0.64758 0.77968 0.1335 0.0
C340 C 0.66144 0.7628 0.14034 0.0
C341 C 0.66542 0.74518 0.12083 0.0
C342 C 0.64566 0.80017 0.15421 0.0
C343 C 0.63301 0.78845 0.1798 0.0
C344 C 0.65698 0.83129 0.14923 0.0
C345 C 0.67163 0.84566 0.12318 0.0
C346 C 0.69712 0.84465 0.11395 0.0
C347 C 0.7106 0.85805 0.08923 0.0
C348 C 0.69893 0.87273 0.07368 0.0
C349 C 0.6738 0.87413 0.08286 0.0
C350 C 0.66022 0.86074 0.10755 0.0
C351 C 0.65814 0.88141 0.26274 0.0
C352 C 0.65219 0.9045 0.2555 0.0
C353 C 0.65484 0.85957 0.24358 0.0
C354 C 0.64443 0.85967 0.21703 0.0
C355 C 0.63719 0.8821 0.2104 0.0
C356 C 0.64146 0.90444 0.22923 0.0
C357 C 0.64321 0.8381 0.19556 0.0
C358 C 0.65553 0.84966 0.16979 0.0
C359 C 0.63133 0.80679 0.20035 0.0
C360 C 0.6163 0.79228 0.22626 0.0
C361 C 0.59201 0.79509 0.2361 0.0
C362 C 0.57818 0.78162 0.26069 0.0
C363 C 0.58831 0.76509 0.27554 0.0
C364 C 0.61223 0.76193 0.26578 0.0
C365 C 0.62615 0.77537 0.24121 0.0
H366 H 0.57759 0.7547 0.29458 0.0
H367 H 0.70939 0.88308 0.05455 0.0
H368 H 0.93037 0.64965 0.45832 0.0
H369 H 0.89128 0.64273 0.49091 0.0
H370 H 0.83625 0.64452 0.4254 0.0
H371 H 0.87514 0.6507 0.39248 0.0
H372 H 0.84739 0.68653 0.46977 0.0
H373 H 0.81234 0.58128 0.4554 0.0
H374 H 0.8176 0.53598 0.45274 0.0
H375 H 0.84421 0.54668 0.53657 0.0
H376 H 0.83956 0.59235 0.53963 0.0
H377 H 0.72165 0.66059 0.54609 0.0
H378 H 0.75304 0.654 0.51272 0.0
H379 H 0.79863 0.63523 0.57699 0.0
H380 H 0.76652 0.64123 0.61075 0.0
H381 H 0.79211 0.60062 0.53314 0.0
H382 H 0.83022 0.70533 0.5485 0.0
H383 H 0.82862 0.75253 0.5529 0.0
H384 H 0.80108 0.74562 0.46956 0.0
H385 H 0.80207 0.69808 0.46477 0.0
C386 C 0.90968 0.64795 0.45076 0.0
C387 C 0.90582 0.6506 0.42277 0.0
C388 C 0.88733 0.64399 0.46945 0.0
C389 C 0.86078 0.64311 0.46067 0.0
C390 C 0.85652 0.64507 0.43266 0.0
C391 C 0.87866 0.64839 0.41384 0.0
C392 C 0.83861 0.64222 0.48095 0.0
C393 C 0.83485 0.66749 0.48326 0.0
C394 C 0.82323 0.61796 0.49939 0.0
C395 C 0.8259 0.59042 0.49767 0.0
C396 C 0.81959 0.57414 0.47321 0.0
C397 C 0.8224 0.54836 0.47164 0.0
C398 C 0.83132 0.5385 0.49445 0.0
C399 C 0.83735 0.55436 0.51891 0.0
C400 C 0.8346 0.58019 0.52058 0.0
C401 C 0.73803 0.65462 0.55322 0.0
C402 C 0.74167 0.65166 0.58119 0.0
C403 C 0.75615 0.65101 0.53403 0.0
C404 C 0.77882 0.64482 0.54222 0.0
C405 C 0.78146 0.64019 0.57007 0.0
C406 C 0.76305 0.64357 0.58939 0.0
C407 C 0.80051 0.64482 0.52173 0.0
C408 C 0.80442 0.61957 0.51952 0.0
C409 C 0.81654 0.66937 0.50361 0.0
C410 C 0.81591 0.69796 0.50637 0.0
C411 C 0.82358 0.71373 0.53117 0.0
C412 C 0.82282 0.74057 0.53373 0.0
C413 C 0.81467 0.75202 0.51154 0.0
C414 C 0.80734 0.73669 0.48674 0.0
C415 C 0.80801 0.7098 0.48409 0.0
H416 H 0.81412 0.77282 0.51356 0.0
H417 H 0.83349 0.51854 0.49319 0.0
H418 H 0.22993 0.86914 0.72728 0.0
H419 H 0.19802 0.83063 0.76094 0.0
H420 H 0.24347 0.89439 0.82554 0.0
H421 H 0.27495 0.93261 0.79244 0.0
H422 H 0.20783 0.80425 0.81011 0.0
H423 H 0.18983 0.89204 0.86675 0.0
H424 H 0.19158 0.94038 0.85772 0.0
H425 H 0.16744 0.91474 0.77441 0.0
H426 H 0.16519 0.86613 0.78305 0.0
H427 H 0.12627 0.74893 0.93983 0.0
H428 H 0.16469 0.77961 0.90552 0.0
H429 H 0.09481 0.77386 0.85266 0.0
H430 H 0.05677 0.74313 0.88602 0.0
H431 H 0.14308 0.83359 0.86169 0.0
H432 H 0.12408 0.73468 0.83594 0.0
H433 H 0.12126 0.68572 0.84377 0.0
H434 H 0.21579 0.7312 0.86294 0.0
H435 H 0.21906 0.78051 0.85562 0.0
C436 C 0.2335 0.87468 0.74869 0.0
C437 C 0.25476 0.90408 0.75711 0.0
C438 C 0.2153 0.85265 0.76792 0.0
C439 C 0.2181 0.85972 0.79579 0.0
C440 C 0.24063 0.88845 0.80419 0.0
C441 C 0.25862 0.91034 0.78514 0.0
C442 C 0.19575 0.83861 0.816 0.0
C443 C 0.19371 0.81066 0.82143 0.0
C444 C 0.17715 0.84681 0.83076 0.0
C445 C 0.17759 0.87559 0.82551 0.0
C446 C 0.18473 0.89667 0.84655 0.0
C447 C 0.18585 0.92412 0.84149 0.0
C448 C 0.1797 0.93065 0.81549 0.0
C449 C 0.17229 0.90969 0.79452 0.0
C450 C 0.17112 0.8822 0.79948 0.0
C451 C 0.11916 0.75398 0.92078 0.0
C452 C 0.08839 0.74351 0.91577 0.0
C453 C 0.1411 0.77147 0.90118 0.0
C454 C 0.1326 0.77909 0.87651 0.0
C455 C 0.10194 0.76836 0.87151 0.0
C456 C 0.08017 0.75065 0.8907 0.0
C457 C 0.15529 0.7993 0.85611 0.0
C458 C 0.15737 0.82721 0.85061 0.0
C459 C 0.17363 0.79086 0.84125 0.0
C460 C 0.17173 0.76128 0.84556 0.0
C461 C 0.1442 0.73426 0.8421 0.0
C462 C 0.14253 0.70644 0.84638 0.0
C463 C 0.16831 0.70535 0.85393 0.0
C464 C 0.19583 0.73209 0.85714 0.0
C465 C 0.1976 0.75997 0.85291 0.0
H466 H 0.16697 0.68379 0.85723 0.0
H467 H 0.18064 0.95194 0.81161 0.0
H468 H 0.37319 0.95033 0.30492 0.0
H469 H 0.42212 0.95405 0.30032 0.0
H470 H 0.46134 0.04705 0.27578 0.0
H471 H 0.41179 0.0437 0.28051 0.0
H472 H 0.4793 0.011 0.24341 0.0
H473 H 0.47574 0.03604 0.33621 0.0
H474 H 0.4535 0.02999 0.38178 0.0
H475 H 0.44939 0.94448 0.39066 0.0
H476 H 0.47118 0.94979 0.34493 0.0
H477 H 0.63094 0.04409 0.26512 0.0
H478 H 0.58261 0.04253 0.26295 0.0
H479 H 0.53844 0.95289 0.29709 0.0
H480 H 0.58707 0.95437 0.2996 0.0
H481 H 0.524 0.99007 0.32423 0.0
H482 H 0.52681 0.96457 0.23115 0.0
H483 H 0.54879 0.9704 0.18547 0.0
H484 H 0.55451 0.05669 0.17703 0.0
H485 H 0.53294 0.05157 0.22284 0.0
C486 C 0.39202 0.97168 0.2984 0.0
C487 C 0.38839 0.99679 0.29313 0.0
C488 C 0.4201 0.97372 0.29587 0.0
C489 C 0.44541 0.00085 0.28793 0.0
C490 C 0.44202 0.0259 0.28199 0.0
C491 C 0.41375 0.02397 0.28479 0.0
C492 C 0.47524 0.00256 0.28644 0.0
C493 C 0.48943 0.007 0.26113 0.0
C494 C 0.48796 0.99651 0.30947 0.0
C495 C 0.47484 0.9932 0.33701 0.0
C496 C 0.46984 0.01581 0.34776 0.0
C497 C 0.45736 0.01254 0.37365 0.0
C498 C 0.44997 0.98684 0.38908 0.0
C499 C 0.4551 0.96437 0.37867 0.0
C500 C 0.46754 0.96751 0.35277 0.0
C501 C 0.61092 0.02378 0.27179 0.0
C502 C 0.61296 0.99938 0.28267 0.0
C503 C 0.58321 0.02291 0.27042 0.0
C504 C 0.55683 0.9976 0.27982 0.0
C505 C 0.55853 0.97269 0.28974 0.0
C506 C 0.58631 0.97347 0.29098 0.0
C507 C 0.52803 0.99816 0.28109 0.0
C508 C 0.51401 0.99417 0.30645 0.0
C509 C 0.51556 0.00466 0.2581 0.0
C510 C 0.52853 0.00781 0.23055 0.0
C511 C 0.533 0.98491 0.21966 0.0
C512 C 0.54533 0.98806 0.19372 0.0
C513 C 0.55312 0.01393 0.17839 0.0
C514 C 0.54851 0.03668 0.18895 0.0
C515 C 0.5362 0.03365 0.21489 0.0
H516 H 0.56265 0.01632 0.15831 0.0
H517 H 0.44033 0.98435 0.40913 0.0
H518 H 0.57972 0.63405 0.62287 0.0
H519 H 0.53294 0.5863 0.61931 0.0
H520 H 0.58282 0.53902 0.61457 0.0
H521 H 0.6305 0.58724 0.61837 0.0
H522 H 0.53197 0.51806 0.57713 0.0
H523 H 0.55414 0.53827 0.67219 0.0
H524 H 0.56792 0.56926 0.71375 0.0
H525 H 0.48852 0.57715 0.70579 0.0
H526 H 0.47451 0.54658 0.66392 0.0
H527 H 0.41602 0.37251 0.61348 0.0
H528 H 0.46134 0.42118 0.60797 0.0
H529 H 0.41099 0.46605 0.62623 0.0
H530 H 0.36506 0.41681 0.63243 0.0
H531 H 0.46181 0.48922 0.65542 0.0
H532 H 0.43801 0.46734 0.56164 0.0
H533 H 0.42407 0.43694 0.51972 0.0
H534 H 0.50565 0.4326 0.52443 0.0
H535 H 0.5199 0.46263 0.56662 0.0
C536 C 0.58107 0.61367 0.6209 0.0
C537 C 0.60912 0.61463 0.6212 0.0
C538 C 0.55412 0.5863 0.61887 0.0
C539 C 0.55437 0.55912 0.61702 0.0
C540 C 0.5822 0.55983 0.61607 0.0
C541 C 0.60939 0.58738 0.61828 0.0
C542 C 0.52535 0.53013 0.61734 0.0
C543 C 0.51677 0.51146 0.59436 0.0
C544 C 0.50515 0.52212 0.6395 0.0
C545 C 0.51344 0.54039 0.66476 0.0
C546 C 0.53976 0.54684 0.67916 0.0
C547 C 0.54758 0.56429 0.7028 0.0
C548 C 0.52915 0.57524 0.71237 0.0
C549 C 0.5028 0.56869 0.69834 0.0
C550 C 0.49489 0.55128 0.67466 0.0
C551 C 0.41431 0.39263 0.6161 0.0
C552 C 0.38679 0.39065 0.62361 0.0
C553 C 0.44035 0.42056 0.6127 0.0
C554 C 0.43964 0.44736 0.61643 0.0
C555 C 0.41207 0.44563 0.62317 0.0
C556 C 0.3858 0.4175 0.62658 0.0
C557 C 0.46823 0.47689 0.61517 0.0
C558 C 0.47683 0.49575 0.63805 0.0
C559 C 0.48835 0.48507 0.59285 0.0
C560 C 0.4799 0.46705 0.56744 0.0
C561 C 0.45287 0.45971 0.55387 0.0
C562 C 0.44494 0.44258 0.53003 0.0
C563 C 0.46393 0.43279 0.51945 0.0
C564 C 0.49095 0.44018 0.53266 0.0
C565 C 0.49899 0.45729 0.55652 0.0
H566 H 0.45775 0.41953 0.50099 0.0
H567 H 0.53525 0.58874 0.73068 0.0
H568 H 0.94907 0.57893 0.94996 0.0
H569 H 0.95204 0.53332 0.94458 0.0
H570 H 0.04915 0.58605 0.94322 0.0
H571 H 0.04658 0.63251 0.94904 0.0
H572 H 0.01981 0.53522 0.90305 0.0
H573 H 0.02343 0.556 0.99854 0.0
H574 H 0.00681 0.56915 0.04081 0.0
H575 H 0.91971 0.48955 0.03328 0.0
H576 H 0.93568 0.47617 0.9907 0.0
H577 H 0.04785 0.41604 0.93578 0.0
H578 H 0.04598 0.46239 0.93105 0.0
H579 H 0.95106 0.41423 0.95039 0.0
H580 H 0.95284 0.36746 0.95574 0.0
H581 H 0.98033 0.46385 0.98066 0.0
H582 H 0.97664 0.44197 0.88596 0.0
H583 H 0.99253 0.42884 0.84326 0.0
H584 H 0.07879 0.50984 0.84858 0.0
H585 H 0.06358 0.52326 0.89153 0.0
C586 C 0.9712 0.58116 0.94828 0.0
C587 C 0.99766 0.60959 0.95026 0.0
C588 C 0.97277 0.55491 0.94518 0.0
C589 C 0.00077 0.55629 0.9438 0.0
C590 C 0.0273 0.58458 0.94431 0.0
C591 C 0.02578 0.61107 0.94767 0.0
C592 C 0.00178 0.52782 0.94355 0.0
C593 C 0.01168 0.51976 0.92013 0.0
C594 C 0.9903 0.50738 0.96559 0.0
C595 C 0.98066 0.51525 0.99128 0.0
C596 C 0.00064 0.54144 0.00576 0.0
C597 C 0.99136 0.54891 0.0298 0.0
C598 C 0.96219 0.53024 0.03969 0.0
C599 C 0.94228 0.50401 0.02558 0.0
C600 C 0.95145 0.49646 1.0015 0.0
C601 C 0.02638 0.41506 0.93868 0.0
C602 C 0.0005 0.38793 0.94633 0.0
C603 C 0.02535 0.44168 0.93579 0.0
C604 C 0.99837 0.44187 0.94024 0.0
C605 C 0.97216 0.41463 0.94686 0.0
C606 C 0.97316 0.38786 0.94975 0.0
C607 C 0.99825 0.47092 0.94003 0.0
C608 C 0.9885 0.47917 0.96348 0.0
C609 C 0.00984 0.49145 0.91797 0.0
C610 C 0.01905 0.48348 0.89211 0.0
C611 C 0.99909 0.45686 0.87814 0.0
C612 C 0.00795 0.44939 0.85387 0.0
C613 C 0.03667 0.46845 0.84324 0.0
C614 C 0.05656 0.49508 0.85684 0.0
C615 C 0.04781 0.50265 0.88114 0.0
H616 H 0.04349 0.46263 0.82445 0.0
H617 H 0.95505 0.53605 0.05831 0.0
H618 H 0.95368 0.58289 0.3713 0.0
H619 H 0.9531 0.53473 0.37469 0.0
H620 H 0.04197 0.58057 0.41054 0.0
H621 H 0.04295 0.62853 0.40665 0.0
H622 H 0.04089 0.54605 0.37101 0.0
H623 H 0.97685 0.53231 0.44758 0.0
H624 H 0.93327 0.53024 0.47106 0.0
H625 H 0.87261 0.45891 0.41802 0.0
H626 H 0.91584 0.46083 0.39398 0.0
H627 H 0.04534 0.41015 0.39654 0.0
H628 H 0.0464 0.45837 0.40272 0.0
H629 H 0.95657 0.41903 0.36933 0.0
H630 H 0.95499 0.3712 0.36387 0.0
H631 H 0.95978 0.45105 0.41102 0.0
H632 H 0.02224 0.46709 0.33221 0.0
H633 H 0.06491 0.46933 0.3069 0.0
H634 H 0.12742 0.53623 0.36234 0.0
H635 H 0.08506 0.53412 0.38817 0.0
C636 C 0.97281 0.58256 0.38038 0.0
C637 C 0.99841 0.60957 0.38854 0.0
C638 C 0.97249 0.55502 0.38232 0.0
C639 C 0.99754 0.55395 0.39289 0.0
C640 C 0.02248 0.58076 0.40212 0.0
C641 C 0.02294 0.6082 0.39995 0.0
C642 C 0.99875 0.52542 0.39287 0.0
C643 C 0.02337 0.5254 0.38018 0.0
C644 C 0.97563 0.49825 0.40424 0.0
C645 C 0.94961 0.49689 0.41884 0.0
C646 C 0.95423 0.51632 0.44081 0.0
C647 C 0.92958 0.51515 0.45424 0.0
C648 C 0.9002 0.4945 0.446 0.0
C649 C 0.89539 0.47491 0.42437 0.0
C650 C 0.91995 0.476 0.41086 0.0
C651 C 0.02584 0.41183 0.39058 0.0
C652 C 1.00008 0.38667 0.3798 0.0
C653 C 0.02648 0.43943 0.39404 0.0
C654 C 0.00157 0.44247 0.38635 0.0
C655 C 0.97597 0.41734 0.37564 0.0
C656 C 0.97519 0.38988 0.37246 0.0
C657 C 0.0018 0.47164 0.38897 0.0
C658 C 0.97745 0.47179 0.4021 0.0
C659 C 0.02504 0.4989 0.37781 0.0
C660 C 0.05049 0.50019 0.36229 0.0
C661 C 0.04508 0.48211 0.33911 0.0
C662 C 0.0692 0.48338 0.32466 0.0
C663 C 0.09885 0.50284 0.33306 0.0
C664 C 0.10444 0.52112 0.35589 0.0
C665 C 0.08039 0.51991 0.37044 0.0
H666 H 0.1175 0.5038 0.32183 0.0
H667 H 0.88115 0.49365 0.45641 0.0
H668 H 0.58916 0.97175 0.6796 0.0
H669 H 0.54326 0.97457 0.68501 0.0
H670 H 0.58395 0.03684 0.75161 0.0
H671 H 0.63079 0.03464 0.74578 0.0
H672 H 0.52283 0.98386 0.76124 0.0
H673 H 0.57516 0.06608 0.70039 0.0
H674 H 0.6052 0.09325 0.66022 0.0
H675 H 0.53471 0.03015 0.60781 0.0
H676 H 0.50442 0.00228 0.64769 0.0
H677 H 0.40561 0.02587 0.75619 0.0
H678 H 0.45336 0.02562 0.75875 0.0
H679 H 0.42232 0.95776 0.69606 0.0
H680 H 0.37401 0.95716 0.69406 0.0
H681 H 0.48053 0.0176 0.68728 0.0
H682 H 0.42989 0.93379 0.74844 0.0
H683 H 0.39985 0.90691 0.7887 0.0
H684 H 0.46739 0.97412 0.84073 0.0
H685 H 0.49765 0.00169 0.80069 0.0
C686 C 0.58848 0.98626 0.69529 0.0
C687 C 0.61347 0.00291 0.71235 0.0
C688 C 0.56226 0.98788 0.6983 0.0
C689 C 0.56021 0.00585 0.7187 0.0
C690 C 0.58517 0.02283 0.73574 0.0
C691 C 0.61188 0.02171 0.73232 0.0
C692 C 0.53139 0.00575 0.72226 0.0
C693 C 0.51381 0.99184 0.74536 0.0
C694 C 0.51939 0.01545 0.70119 0.0
C695 C 0.53764 0.03189 0.67707 0.0
C696 C 0.5662 0.05778 0.68031 0.0
C697 C 0.58324 0.07335 0.65758 0.0
C698 C 0.57191 0.06338 0.63148 0.0
C699 C 0.54348 0.03782 0.62805 0.0
C700 C 0.52635 0.02213 0.65071 0.0
C701 C 0.40866 0.01027 0.74353 0.0
C702 C 0.38614 0.99144 0.72499 0.0
C703 C 0.43592 0.0102 0.74498 0.0
C704 C 0.44133 0.99178 0.72752 0.0
C705 C 0.41844 0.97207 0.70974 0.0
C706 C 0.39083 0.97157 0.70876 0.0
C707 C 0.47185 0.99534 0.72604 0.0
C708 C 0.48969 0.00992 0.70328 0.0
C709 C 0.48406 0.98636 0.74745 0.0
C710 C 0.46582 0.97004 0.77155 0.0
C711 C 0.43816 0.94307 0.76844 0.0
C712 C 0.42114 0.92764 0.79123 0.0
C713 C 0.43165 0.93886 0.81726 0.0
C714 C 0.45924 0.9655 0.82055 0.0
C715 C 0.47634 0.98103 0.79782 0.0
H716 H 0.41846 0.92687 0.83488 0.0
H717 H 0.58512 0.0755 0.61391 0.0
H718 H 0.41591 0.36819 0.05077 0.0
H719 H 0.46402 0.41575 0.05572 0.0
H720 H 0.41599 0.46083 0.08122 0.0
H721 H 0.36837 0.41397 0.07669 0.0
H722 H 0.45504 0.4896 0.03837 0.0
H723 H 0.45612 0.44827 0.12627 0.0
H724 H 0.45431 0.4096 0.15738 0.0
H725 H 0.5331 0.41653 0.11944 0.0
H726 H 0.53513 0.45496 0.08784 0.0
H727 H 0.58524 0.63353 0.06115 0.0
H728 H 0.53683 0.58713 0.06896 0.0
H729 H 0.58063 0.5342 0.05943 0.0
H730 H 0.6285 0.57968 0.05289 0.0
H731 H 0.5421 0.51002 0.09697 0.0
H732 H 0.53972 0.54556 0.00686 0.0
H733 H 0.54221 0.58192 0.97258 0.0
H734 H 0.46724 0.58327 0.01035 0.0
H735 H 0.46456 0.54718 0.04508 0.0
C736 C 0.41568 0.38809 0.05795 0.0
C737 C 0.3882 0.38725 0.063 0.0
C738 C 0.44315 0.41525 0.06072 0.0
C739 C 0.44349 0.44187 0.06862 0.0
C740 C 0.41623 0.44067 0.07485 0.0
C741 C 0.38898 0.41372 0.07224 0.0
C742 C 0.47184 0.47149 0.06884 0.0
C743 C 0.47397 0.49424 0.05146 0.0
C744 C 0.49671 0.47725 0.08542 0.0
C745 C 0.4956 0.45429 0.10453 0.0
C746 C 0.47291 0.44138 0.12442 0.0
C747 C 0.47187 0.41954 0.14217 0.0
C748 C 0.49353 0.41056 0.14035 0.0
C749 C 0.51632 0.42348 0.12081 0.0
C750 C 0.51744 0.44531 0.10299 0.0
C751 C 0.58455 0.61202 0.06107 0.0
C752 C 0.61086 0.61053 0.05615 0.0
C753 C 0.55684 0.58547 0.06538 0.0
C754 C 0.55492 0.557 0.06437 0.0
C755 C 0.58135 0.55573 0.06038 0.0
C756 C 0.60887 0.58201 0.05646 0.0
C757 C 0.52555 0.52824 0.06625 0.0
C758 C 0.52316 0.50556 0.08401 0.0
C759 C 0.50061 0.52228 0.04956 0.0
C760 C 0.50219 0.54399 0.02875 0.0
C761 C 0.52393 0.5538 0.00797 0.0
C762 C 0.52535 0.57432 0.98845 0.0
C763 C 0.50496 0.58498 0.98934 0.0
C764 C 0.48306 0.57506 0.00973 0.0
C765 C 0.48158 0.55456 0.02933 0.0
H766 H 0.50609 0.60086 0.9742 0.0
H767 H 0.49268 0.39365 0.15411 0.0
H768 H 0.06375 0.75705 0.3888 0.0
H769 H 0.10255 0.80827 0.37692 0.0
H770 H 0.03498 0.82412 0.34045 0.0
H771 H 0.99582 0.77258 0.35235 0.0
H772 H 0.08295 0.84009 0.30697 0.0
H773 H 0.06797 0.85991 0.39804 0.0
H774 H 0.06208 0.85232 0.44759 0.0
H775 H 0.15192 0.86628 0.45367 0.0
H776 H 0.15819 0.87342 0.4041 0.0
H777 H 0.22645 0.00126 0.32592 0.0
H778 H 0.17503 0.96264 0.33883 0.0
H779 H 0.18756 0.8946 0.29893 0.0
H780 H 0.23876 0.93283 0.28622 0.0
H781 H 0.15969 0.91279 0.37116 0.0
H782 H 0.12063 0.84214 0.27141 0.0
H783 H 0.12604 0.85079 0.22196 0.0
H784 H 0.14232 0.94094 0.23354 0.0
H785 H 0.13653 0.9327 0.28303 0.0
C786 C 0.05706 0.77154 0.37855 0.0
C787 C 0.02677 0.76084 0.37149 0.0
C788 C 0.07924 0.80087 0.37191 0.0
C789 C 0.07161 0.82011 0.35805 0.0
C790 C 0.04129 0.80967 0.35129 0.0
C791 C 0.01898 0.7803 0.35815 0.0
C792 C 0.09581 0.8502 0.34899 0.0
C793 C 0.09956 0.85617 0.32101 0.0
C794 C 0.11714 0.87141 0.36739 0.0
C795 C 0.11347 0.86704 0.39727 0.0
C796 C 0.08639 0.86111 0.40989 0.0
C797 C 0.083 0.85693 0.43801 0.0
C798 C 0.10659 0.85878 0.45376 0.0
C799 C 0.13365 0.86485 0.44144 0.0
C800 C 0.13715 0.869 0.41333 0.0
C801 C 0.21801 0.97813 0.31958 0.0
C802 C 0.23653 0.96999 0.30506 0.0
C803 C 0.18874 0.95613 0.32704 0.0
C804 C 0.17744 0.92585 0.31962 0.0
C805 C 0.19569 0.9179 0.30452 0.0
C806 C 0.22498 0.93974 0.29738 0.0
C807 C 0.14747 0.90192 0.32913 0.0
C808 C 0.14272 0.89705 0.35718 0.0
C809 C 0.12515 0.88181 0.31081 0.0
C810 C 0.12833 0.88684 0.28099 0.0
C811 C 0.12519 0.86376 0.26342 0.0
C812 C 0.12836 0.8686 0.23537 0.0
C813 C 0.13459 0.89642 0.22462 0.0
C814 C 0.13759 0.91943 0.2419 0.0
C815 C 0.13441 0.9147 0.26996 0.0
H816 H 0.13705 0.90013 0.2029 0.0
H817 H 0.10392 0.85554 0.47553 0.0
H818 H 0.22046 0.22028 0.6474 0.0
H819 H 0.20943 0.1686 0.65721 0.0
H820 H 0.30382 0.19711 0.64739 0.0
H821 H 0.31459 0.24779 0.63662 0.0
H822 H 0.2723 0.14608 0.62347 0.0
H823 H 0.26781 0.18701 0.71185 0.0
H824 H 0.24769 0.20835 0.74536 0.0
H825 H 0.15922 0.13106 0.73643 0.0
H826 H 0.1788 0.10926 0.70285 0.0
H827 H 0.31371 0.06331 0.70751 0.0
H828 H 0.30229 0.10199 0.69269 0.0
H829 H 0.20899 0.0343 0.68104 0.0
H830 H 0.22039 0.99494 0.69535 0.0
H831 H 0.22636 0.0958 0.71085 0.0
H832 H 0.23788 0.05166 0.62831 0.0
H833 H 0.26301 0.03227 0.59834 0.0
H834 H 0.34365 0.11906 0.59895 0.0
H835 H 0.31927 0.1388 0.6294 0.0
C836 C 0.23873 0.21534 0.6472 0.0
C837 C 0.26839 0.2381 0.64132 0.0
C838 C 0.23245 0.18589 0.65294 0.0
C839 C 0.25584 0.17898 0.65324 0.0
C840 C 0.28533 0.20175 0.64714 0.0
C841 C 0.2915 0.23086 0.64112 0.0
C842 C 0.2504 0.14836 0.66008 0.0
C843 C 0.26211 0.13507 0.64254 0.0
C844 C 0.23641 0.13348 0.68463 0.0
C845 C 0.22466 0.14671 0.70461 0.0
C846 C 0.24402 0.1747 0.71688 0.0
C847 C 0.23274 0.18685 0.73591 0.0
C848 C 0.20218 0.17117 0.74288 0.0
C849 C 0.18286 0.14323 0.73095 0.0
C850 C 0.19404 0.13094 0.71196 0.0
C851 C 0.29071 0.05654 0.70196 0.0
C852 C 0.26799 0.02605 0.70233 0.0
C853 C 0.28424 0.0787 0.69354 0.0
C854 C 0.25489 0.07086 0.68567 0.0
C855 C 0.23178 0.04064 0.68707 0.0
C856 C 0.23835 0.01828 0.69515 0.0
C857 C 0.24936 0.09453 0.67473 0.0
C858 C 0.23565 0.10642 0.69144 0.0
C859 C 0.26204 0.10852 0.64966 0.0
C860 C 0.27674 0.09668 0.63126 0.0
C861 C 0.26106 0.06654 0.62227 0.0
C862 C 0.27516 0.05549 0.60517 0.0
C863 C 0.30487 0.07445 0.59672 0.0
C864 C 0.32061 0.10443 0.60548 0.0
C865 C 0.30666 0.11556 0.62264 0.0
H866 H 0.31566 0.06599 0.58328 0.0
H867 H 0.19351 0.18063 0.75761 0.0
H868 H 0.24157 0.30214 0.07137 0.0
H869 H 0.19101 0.29347 0.06245 0.0
H870 H 0.1751 0.2218 0.00672 0.0
H871 H 0.22566 0.22975 0.01652 0.0
H872 H 0.17332 0.30343 0.01762 0.0
H873 H 0.09854 0.17397 0.99926 0.0
H874 H 0.09294 0.12642 0.01732 0.0
H875 H 0.133 0.1704 0.09276 0.0
H876 H 0.13845 0.21806 0.07531 0.0
H877 H 0.0528 0.28479 0.94168 0.0
H878 H 0.09315 0.27585 0.95689 0.0
H879 H 0.04289 0.23349 0.02982 0.0
H880 H 0.00151 0.24088 0.01369 0.0
H881 H 0.07532 0.20761 0.0145 0.0
H882 H 0.09467 0.30788 0.03004 0.0
H883 H 0.09811 0.35619 0.01744 0.0
H884 H 0.16714 0.37268 0.95919 0.0
H885 H 0.16378 0.32423 0.97115 0.0
C886 C 0.22709 0.28415 0.05758 0.0
C887 C 0.2375 0.26673 0.04447 0.0
C888 C 0.19821 0.27924 0.05248 0.0
C889 C 0.17924 0.25709 0.03383 0.0
C890 C 0.18915 0.23877 0.02147 0.0
C891 C 0.21804 0.24337 0.02697 0.0
C892 C 0.1506 0.25554 0.02546 0.0
C893 C 0.15194 0.28242 0.01708 0.0
C894 C 0.12252 0.22829 0.02513 0.0
C895 C 0.1192 0.19967 0.03583 0.0
C896 C 0.10608 0.17347 0.01972 0.0
C897 C 0.10294 0.1465 0.02986 0.0
C898 C 0.11271 0.14542 0.05613 0.0
C899 C 0.12556 0.17129 0.07236 0.0
C900 C 0.12873 0.1983 0.06234 0.0
C901 C 0.05011 0.27292 0.96062 0.0
C902 C 0.02434 0.26364 0.97664 0.0
C903 C 0.07313 0.26787 0.96934 0.0
C904 C 0.07132 0.25464 0.99478 0.0
C905 C 0.04474 0.24375 0.01013 0.0
C906 C 0.02122 0.24803 1.00098 0.0
C907 C 0.09844 0.25537 0.00635 0.0
C908 C 0.0968 0.22849 0.01523 0.0
C909 C 0.1262 0.28281 0.00814 0.0
C910 C 0.12883 0.31234 1.00137 0.0
C911 C 0.11051 0.32177 0.01447 0.0
C912 C 0.11243 0.34916 0.00744 0.0
C913 C 0.1328 0.36747 0.9875 0.0
C914 C 0.15137 0.35847 0.97463 0.0
C915 C 0.14949 0.33106 0.98154 0.0
H916 H 0.13423 0.38865 0.98205 0.0
H917 H 0.11026 0.12452 0.06393 0.0
H918 H 0.94351 0.23472 0.39713 0.0
H919 H 0.90415 0.18413 0.38338 0.0
H920 H 0.96431 0.18088 0.32392 0.0
H921 H 0.0043 0.23126 0.33832 0.0
H922 H 0.89991 0.1727 0.30822 0.0
H923 H 0.95255 0.13543 0.36367 0.0
H924 H 0.97703 0.13274 0.40591 0.0
H925 H 0.89434 0.10309 0.44968 0.0
H926 H 0.86948 0.10605 0.40777 0.0
H927 H 0.7793 0.03257 0.26481 0.0
H928 H 0.83076 0.07225 0.2762 0.0
H929 H 0.80521 0.06546 0.36068 0.0
H930 H 0.75487 0.02411 0.34944 0.0
H931 H 0.85851 0.07712 0.36028 0.0
H932 H 0.80759 0.121 0.31275 0.0
H933 H 0.78008 0.12806 0.2749 0.0
H934 H 0.85467 0.15027 0.2215 0.0
H935 H 0.88247 0.14297 0.25899 0.0
C936 C 0.94853 0.22291 0.38156 0.0
C937 C 0.97687 0.23667 0.36886 0.0
C938 C 0.92611 0.1941 0.37376 0.0
C939 C 0.93149 0.17889 0.35277 0.0
C940 C 0.95995 0.19229 0.34034 0.0
C941 C 0.98272 0.22089 0.34863 0.0
C942 C 0.90625 0.15031 0.34241 0.0
C943 C 0.89117 0.15151 0.31912 0.0
C944 C 0.89439 0.12325 0.35743 0.0
C945 C 0.90923 0.1212 0.3826 0.0
C946 C 0.93966 0.1286 0.38234 0.0
C947 C 0.95359 0.12697 0.40622 0.0
C948 C 0.93727 0.11781 0.43047 0.0
C949 C 0.90696 0.11019 0.43088 0.0
C950 C 0.89293 0.1118 0.40706 0.0
C951 C 0.78504 0.03938 0.28581 0.0
C952 C 0.76334 0.02579 0.30627 0.0
C953 C 0.81429 0.06218 0.29232 0.0
C954 C 0.8218 0.07258 0.31924 0.0
C955 C 0.80014 0.05806 0.33976 0.0
C956 C 0.77127 0.03462 0.33334 0.0
C957 C 0.85153 0.09936 0.32606 0.0
C958 C 0.86742 0.09798 0.34885 0.0
C959 C 0.8636 0.12669 0.31111 0.0
C960 C 0.84693 0.13105 0.28856 0.0
C961 C 0.81802 0.12717 0.29288 0.0
C962 C 0.80239 0.13125 0.27151 0.0
C963 C 0.81557 0.1395 0.24579 0.0
C964 C 0.84445 0.1438 0.24141 0.0
C965 C 0.86016 0.1397 0.26271 0.0
H966 H 0.80344 0.14265 0.22927 0.0
H967 H 0.9481 0.11657 0.44894 0.0
H968 H 0.69994 0.76298 0.61569 0.0
H969 H 0.71353 0.8141 0.6293 0.0
H970 H 0.7901 0.82243 0.67365 0.0
H971 H 0.77666 0.771 0.65982 0.0
H972 H 0.75351 0.83756 0.70406 0.0
H973 H 0.8043 0.86405 0.61918 0.0
H974 H 0.81046 0.85987 0.56999 0.0
H975 H 0.7386 0.87806 0.55356 0.0
H976 H 0.73167 0.88189 0.60266 0.0
H977 H 0.78023 0.00287 0.68751 0.0
H978 H 0.79334 0.96402 0.67638 0.0
H979 H 0.70667 0.89519 0.70618 0.0
H980 H 0.69356 0.93366 0.71739 0.0
H981 H 0.76455 0.91782 0.64054 0.0
H982 H 0.71253 0.83804 0.7336 0.0
H983 H 0.70626 0.84197 0.78281 0.0
H984 H 0.78318 0.93145 0.78337 0.0
H985 H 0.79024 0.9279 0.73425 0.0
C986 C 0.71994 0.77585 0.62801 0.0
C987 C 0.73729 0.76311 0.63668 0.0
C988 C 0.72775 0.80509 0.63567 0.0
C989 C 0.75295 0.8221 0.65228 0.0
C990 C 0.77067 0.80967 0.66067 0.0
C991 C 0.76306 0.78042 0.65268 0.0
C992 C 0.75903 0.85189 0.66233 0.0
C993 C 0.75636 0.85534 0.69027 0.0
C994 C 0.7632 0.87519 0.64427 0.0
C995 C 0.76741 0.87315 0.61466 0.0
C996 C 0.78968 0.86697 0.60509 0.0
C997 C 0.79332 0.86469 0.57721 0.0
C998 C 0.77492 0.86867 0.55866 0.0
C999 C 0.75286 0.875 0.56795 0.0
C1000 C 0.7491 0.87728 0.59581 0.0
C1001 C 0.76418 0.97947 0.69198 0.0
C1002 C 0.73587 0.97125 0.70329 0.0
C1003 C 0.77166 0.95735 0.68558 0.0
C1004 C 0.75112 0.92678 0.69074 0.0
C1005 C 0.72309 0.91868 0.70247 0.0
C1006 C 0.71555 0.94069 0.70871 0.0
C1007 C 0.75771 0.90291 0.68217 0.0
C1008 C 0.76256 0.90048 0.65447 0.0
C1009 C 0.7556 0.88058 0.70047 0.0
C1010 C 0.75182 0.88274 0.73016 0.0
C1011 C 0.72825 0.85849 0.74424 0.0
C1012 C 0.72452 0.86066 0.77212 0.0
C1013 C 0.74427 0.88697 0.78619 0.0
C1014 C 0.76785 0.91112 0.77243 0.0
C1015 C 0.7717 0.90905 0.74455 0.0
H1016 H 0.74133 0.88862 0.80777 0.0
H1017 H 0.77777 0.86688 0.53709 0.0
H1018 H 0.78026 0.77925 0.04461 0.0
H1019 H 0.83293 0.79122 0.03872 0.0
H1020 H 0.80137 0.69945 0.0131 0.0
H1021 H 0.7497 0.68734 0.02011 0.0
H1022 H 0.84388 0.71466 0.04844 0.0
H1023 H 0.8293 0.76435 0.96847 0.0
H1024 H 0.81964 0.80229 0.94687 0.0
H1025 H 0.89553 0.8732 0.98897 0.0
H1026 H 0.90543 0.83562 0.011 0.0
H1027 H 0.93506 0.6938 0.96142 0.0
H1028 H 0.89758 0.70615 0.97766 0.0
H1029 H 0.96798 0.78916 0.01216 0.0
H1030 H 0.00609 0.77695 0.9957 0.0
H1031 H 0.91635 0.79133 0.98417 0.0
H1032 H 0.93685 0.74005 0.05507 0.0
H1033 H 0.94716 0.70084 0.07242 0.0
H1034 H 0.85962 0.63178 0.04579 0.0
H1035 H 0.849 0.67055 0.0278 0.0
C1036 C 0.78478 0.76182 0.03758 0.0
C1037 C 0.76094 0.73232 0.03298 0.0
C1038 C 0.8148 0.76864 0.03421 0.0
C1039 C 0.82116 0.74618 0.02556 0.0
C1040 C 0.79715 0.71708 0.02018 0.0
C1041 C 0.76749 0.71018 0.02408 0.0
C1042 C 0.85245 0.75192 0.02221 0.0
C1043 C 0.85976 0.73158 0.03451 0.0
C1044 C 0.87383 0.77477 0.00496 0.0
C1045 C 0.86786 0.7972 0.9916 0.0
C1046 C 0.84379 0.78802 0.97323 0.0
C1047 C 0.8383 0.80946 0.9609 0.0
C1048 C 0.8569 0.84013 0.96662 0.0
C1049 C 0.8811 0.84944 0.98461 0.0
C1050 C 0.88666 0.8281 0.99701 0.0
C1051 C 0.9427 0.71486 0.97219 0.0
C1052 C 0.97344 0.73425 0.97759 0.0
C1053 C 0.92126 0.72192 0.98138 0.0
C1054 C 0.93009 0.74837 0.99632 0.0
C1055 C 0.96086 0.76865 1.00064 0.0
C1056 C 0.98249 0.76159 0.99134 0.0
C1057 C 0.90648 0.75285 0.00903 0.0
C1058 C 0.90082 0.77511 0.99876 0.0
C1059 C 0.88644 0.73167 0.02808 0.0
C1060 C 0.89214 0.70827 0.04006 0.0
C1061 C 0.91981 0.71651 0.05287 0.0
C1062 C 0.92573 0.69435 0.06279 0.0
C1063 C 0.90406 0.66384 0.06021 0.0
C1064 C 0.87637 0.65543 0.04781 0.0
C1065 C 0.87037 0.6775 0.0378 0.0
H1066 H 0.90873 0.64673 0.06781 0.0
H1067 H 0.85261 0.85668 0.95706 0.0
H1068 H 0.25929 0.95817 0.39426 0.0
H1069 H 0.26034 0.96033 0.44356 0.0
H1070 H 0.3447 0.04444 0.44092 0.0
H1071 H 0.34402 0.04214 0.39092 0.0
H1072 H 0.34735 0.00534 0.47626 0.0
H1073 H 0.27846 0.04159 0.46125 0.0
H1074 H 0.23387 0.04108 0.44156 0.0
H1075 H 0.17587 0.95558 0.47941 0.0
H1076 H 0.22016 0.95542 0.4991 0.0
H1077 H 0.35265 0.03978 0.61517 0.0
H1078 H 0.34925 0.03847 0.566 0.0
H1079 H 0.26613 0.95328 0.56986 0.0
H1080 H 0.26934 0.9545 0.61989 0.0
H1081 H 0.26233 0.99269 0.53404 0.0
H1082 H 0.33072 0.95611 0.54892 0.0
H1083 H 0.37511 0.956 0.56835 0.0
H1084 H 0.4337 0.04119 0.5303 0.0
H1085 H 0.38962 0.04204 0.51094 0.0
C1086 C 0.27799 0.97741 0.40403 0.0
C1087 C 0.30169 0.99995 0.38851 0.0
C1088 C 0.27843 0.97867 0.43237 0.0
C1089 C 0.30247 0.00262 0.44615 0.0
C1090 C 0.32584 0.02572 0.43078 0.0
C1091 C 0.32535 0.02453 0.4022 0.0
C1092 C 0.30381 0.00225 0.4765 0.0
C1093 C 0.32898 0.00314 0.48888 0.0
C1094 C 0.27938 0.99823 0.49307 0.0
C1095 C 0.25267 0.99839 0.48148 0.0
C1096 C 0.25622 0.02259 0.46524 0.0
C1097 C 0.23099 0.02244 0.45411 0.0
C1098 C 0.20206 0.99829 0.45919 0.0
C1099 C 0.19829 0.97428 0.47549 0.0
C1100 C 0.22345 0.97432 0.48668 0.0
C1101 C 0.33363 0.02054 0.60574 0.0
C1102 C 0.31124 0.99718 0.62165 0.0
C1103 C 0.33184 0.01979 0.57745 0.0
C1104 C 0.30761 0.99569 0.56405 0.0
C1105 C 0.28512 0.97214 0.57973 0.0
C1106 C 0.28706 0.97272 0.6083 0.0
C1107 C 0.3059 0.99586 0.53374 0.0
C1108 C 0.28068 0.99491 0.52138 0.0
C1109 C 0.33024 0.99972 0.51714 0.0
C1110 C 0.35683 0.99925 0.52866 0.0
C1111 C 0.35306 0.97494 0.54486 0.0
C1112 C 0.37816 0.97472 0.55583 0.0
C1113 C 0.4072 0.9986 0.55061 0.0
C1114 C 0.41119 0.02272 0.53434 0.0
C1115 C 0.38615 0.02306 0.52334 0.0
H1116 H 0.42661 0.9984 0.55913 0.0
H1117 H 0.18256 0.99821 0.45054 0.0
H1118 H 0.30166 0.26453 0.95675 0.0
H1119 H 0.29872 0.26125 0.90687 0.0
H1120 H 0.31969 0.35406 0.90273 0.0
H1121 H 0.32135 0.35688 0.9521 0.0
H1122 H 0.27578 0.32385 0.87067 0.0
H1123 H 0.37111 0.32732 0.88478 0.0
H1124 H 0.40469 0.3101 0.90355 0.0
H1125 H 0.35101 0.22356 0.86577 0.0
H1126 H 0.31692 0.24016 0.84703 0.0
H1127 H 0.30847 0.35081 0.72804 0.0
H1128 H 0.30773 0.3509 0.77796 0.0
H1129 H 0.28686 0.25802 0.77847 0.0
H1130 H 0.28902 0.25848 0.72898 0.0
H1131 H 0.32905 0.28637 0.81245 0.0
H1132 H 0.23459 0.2832 0.79716 0.0
H1133 H 0.20097 0.30027 0.77821 0.0
H1134 H 0.25263 0.38586 0.81809 0.0
H1135 H 0.28677 0.36944 0.83702 0.0
C1136 C 0.3061 0.2843 0.9451 0.0
C1137 C 0.3117 0.31093 0.9584 0.0
C1138 C 0.30442 0.28246 0.91653 0.0
C1139 C 0.30904 0.30747 0.90073 0.0
C1140 C 0.3157 0.33431 0.91419 0.0
C1141 C 0.31683 0.33595 0.94252 0.0
C1142 C 0.30597 0.30586 0.87035 0.0
C1143 C 0.28776 0.31596 0.85797 0.0
C1144 C 0.32079 0.29482 0.85352 0.0
C1145 C 0.34131 0.28488 0.86475 0.0
C1146 C 0.36636 0.30455 0.88064 0.0
C1147 C 0.3855 0.29491 0.89124 0.0
C1148 C 0.37994 0.26573 0.88592 0.0
C1149 C 0.35527 0.24614 0.86992 0.0
C1150 C 0.33605 0.25566 0.85928 0.0
C1151 C 0.30306 0.33028 0.73887 0.0
C1152 C 0.29871 0.30462 0.72459 0.0
C1153 C 0.30266 0.33029 0.76747 0.0
C1154 C 0.29717 0.30439 0.78229 0.0
C1155 C 0.29143 0.2784 0.7678 0.0
C1156 C 0.29241 0.27859 0.73942 0.0
C1157 C 0.29904 0.30458 0.81274 0.0
C1158 C 0.317 0.29419 0.82513 0.0
C1159 C 0.28398 0.31533 0.82958 0.0
C1160 C 0.26339 0.32518 0.8183 0.0
C1161 C 0.23889 0.30573 0.80174 0.0
C1162 C 0.21972 0.31528 0.79103 0.0
C1163 C 0.2247 0.34416 0.79689 0.0
C1164 C 0.24881 0.36352 0.81354 0.0
C1165 C 0.26806 0.35409 0.82429 0.0
H1166 H 0.20984 0.35151 0.78858 0.0
H1167 H 0.39478 0.25831 0.89415 0.0
H1168 H 0.04347 0.34907 0.28324 0.0
H1169 H 0.04448 0.35122 0.23328 0.0
H1170 H 0.97412 0.25792 0.22992 0.0
H1171 H 0.97292 0.25573 0.2795 0.0
H1172 H 0.01667 0.27175 0.18932 0.0
H1173 H 0.95549 0.31092 0.2255 0.0
H1174 H 0.94551 0.34448 0.25421 0.0
H1175 H 0.01573 0.42198 0.21338 0.0
H1176 H 0.02643 0.38886 0.18467 0.0
H1177 H 0.96108 0.26768 0.05513 0.0
H1178 H 0.96141 0.26489 0.1051 0.0
H1179 H 0.03235 0.35796 0.10846 0.0
H1180 H 0.03236 0.36066 0.05893 0.0
H1181 H 0.9898 0.34419 0.14894 0.0
H1182 H 0.05071 0.30584 0.11218 0.0
H1183 H 0.06085 0.27289 0.08278 0.0
H1184 H 0.99244 0.19472 0.12429 0.0
H1185 H 0.98143 0.22721 0.15359 0.0
C1186 C 0.0288 0.32886 0.27181 0.0
C1187 C 0.00802 0.3023 0.28532 0.0
C1188 C 0.0292 0.33014 0.24326 0.0
C1189 C 0.00906 0.3048 0.22778 0.0
C1190 C 0.9898 0.27776 0.24131 0.0
C1191 C 0.98911 0.27659 0.2697 0.0
C1192 C 0.00623 0.30687 0.19775 0.0
C1193 C 0.01054 0.28741 0.18053 0.0
C1194 C 0.99855 0.3275 0.18611 0.0
C1195 C 0.99198 0.34744 0.20315 0.0
C1196 C 0.96896 0.33513 0.22279 0.0
C1197 C 0.96315 0.35407 0.23904 0.0
C1198 C 0.98004 0.38535 0.23568 0.0
C1199 C 0.00271 0.39775 0.21599 0.0
C1200 C 0.00865 0.37891 0.19972 0.0
C1201 C 0.97618 0.28767 0.06663 0.0
C1202 C 0.99665 0.31438 0.05315 0.0
C1203 C 0.97657 0.28602 0.09513 0.0
C1204 C 0.99715 0.31118 0.11057 0.0
C1205 C 0.01632 0.33828 0.0971 0.0
C1206 C 0.01629 0.33977 0.06875 0.0
C1207 C 0.0002 0.30906 0.14053 0.0
C1208 C 0.99593 0.32852 0.15772 0.0
C1209 C 0.00806 0.28854 0.1521 0.0
C1210 C 0.01499 0.26894 0.13487 0.0
C1211 C 0.03764 0.28161 0.1149 0.0
C1212 C 0.04357 0.26302 0.09826 0.0
C1213 C 0.02724 0.23172 0.10162 0.0
C1214 C 0.00502 0.21897 0.12168 0.0
C1215 C 0.99892 0.23746 0.13831 0.0
H1216 H 0.03185 0.21737 0.08871 0.0
H1217 H 0.97551 0.39997 0.24829 0.0
H1218 H 0.6812 0.95779 0.38865 0.0
H1219 H 0.68299 0.95706 0.43854 0.0
H1220 H 0.70273 0.04949 0.44092 0.0
H1221 H 0.70157 0.05057 0.39169 0.0
H1222 H 0.73848 0.04378 0.47461 0.0
H1223 H 0.63181 0.98833 0.4575 0.0
H1224 H 0.58447 0.94804 0.4376 0.0
H1225 H 0.59814 0.88087 0.47697 0.0
H1226 H 0.6458 0.92078 0.49683 0.0
H1227 H 0.70695 0.04813 0.61794 0.0
H1228 H 0.70792 0.0509 0.56795 0.0
H1229 H 0.69593 0.96134 0.56359 0.0
H1230 H 0.69509 0.95845 0.6128 0.0
H1231 H 0.65613 0.96612 0.53115 0.0
H1232 H 0.76305 0.02257 0.54849 0.0
H1233 H 0.80987 0.06345 0.56859 0.0
H1234 H 0.79475 0.12958 0.52902 0.0
H1235 H 0.74758 0.08908 0.50898 0.0
C1236 C 0.68568 0.97783 0.39984 0.0
C1237 C 0.69131 0.00421 0.38599 0.0
C1238 C 0.68669 0.97743 0.42841 0.0
C1239 C 0.69294 0.00326 0.44368 0.0
C1240 C 0.69811 0.02934 0.4298 0.0
C1241 C 0.69732 0.02983 0.40147 0.0
C1242 C 0.69458 0.00364 0.47404 0.0
C1243 C 0.72025 0.02695 0.48693 0.0
C1244 C 0.67113 0.98156 0.49034 0.0
C1245 C 0.64253 0.95753 0.4784 0.0
C1246 C 0.62485 0.96496 0.46173 0.0
C1247 C 0.59793 0.94219 0.45049 0.0
C1248 C 0.58835 0.91191 0.45595 0.0
C1249 C 0.60562 0.90433 0.47272 0.0
C1250 C 0.63257 0.92701 0.48398 0.0
C1251 C 0.70502 0.02928 0.6063 0.0
C1252 C 0.70064 0.00299 0.61952 0.0
C1253 C 0.70548 0.03082 0.57771 0.0
C1254 C 0.70172 0.00617 0.56192 0.0
C1255 C 0.6985 0.9805 0.57519 0.0
C1256 C 0.69809 0.97896 0.60349 0.0
C1257 C 0.69999 0.0062 0.53163 0.0
C1258 C 0.6743 0.98296 0.51878 0.0
C1259 C 0.72332 0.02844 0.51541 0.0
C1260 C 0.75161 0.0528 0.5275 0.0
C1261 C 0.76956 0.04584 0.54428 0.0
C1262 C 0.79619 0.06894 0.55562 0.0
C1263 C 0.80523 0.09909 0.55016 0.0
C1264 C 0.78769 0.10621 0.53328 0.0
C1265 C 0.76101 0.0832 0.52192 0.0
H1266 H 0.82587 0.11695 0.55894 0.0
H1267 H 0.5675 0.89432 0.44725 0.0
H1268 H 0.70317 0.73975 0.95067 0.0
H1269 H 0.70562 0.74292 0.90074 0.0
H1270 H 0.6585 0.64567 0.89589 0.0
H1271 H 0.65699 0.64266 0.94538 0.0
H1272 H 0.70618 0.66694 0.86588 0.0
H1273 H 0.62674 0.69121 0.87649 0.0
H1274 H 0.60354 0.72021 0.89372 0.0
H1275 H 0.6741 0.80078 0.85691 0.0
H1276 H 0.69793 0.77234 0.83976 0.0
H1277 H 0.67926 0.64779 0.7225 0.0
H1278 H 0.67757 0.64735 0.77233 0.0
H1279 H 0.72018 0.74456 0.77281 0.0
H1280 H 0.72041 0.74474 0.7232 0.0
H1281 H 0.67638 0.725 0.80531 0.0
H1282 H 0.75605 0.70203 0.79455 0.0
H1283 H 0.78046 0.67416 0.77738 0.0
H1284 H 0.71162 0.59288 0.81469 0.0
H1285 H 0.68659 0.62018 0.83181 0.0
C1286 C 0.69257 0.71914 0.93883 0.0
C1287 C 0.67968 0.69096 0.95185 0.0
C1288 C 0.69407 0.72091 0.91027 0.0
C1289 C 0.68231 0.69449 0.89432 0.0
C1290 C 0.668 0.6664 0.90753 0.0
C1291 C 0.66687 0.66468 0.93586 0.0
C1292 C 0.68655 0.69565 0.86413 0.0
C1293 C 0.69928 0.67936 0.85263 0.0
C1294 C 0.67858 0.71261 0.84671 0.0
C1295 C 0.66428 0.7297 0.8571 0.0
C1296 C 0.63744 0.71516 0.87227 0.0
C1297 C 0.62415 0.73149 0.88199 0.0
C1298 C 0.63739 0.76233 0.87649 0.0
C1299 C 0.6639 0.7769 0.8612 0.0
C1300 C 0.67729 0.76069 0.85147 0.0
C1301 C 0.68896 0.66904 0.73334 0.0
C1302 C 0.70018 0.6963 0.719 0.0
C1303 C 0.68796 0.66884 0.76189 0.0
C1304 C 0.69888 0.69598 0.77666 0.0
C1305 C 0.71138 0.72327 0.76215 0.0
C1306 C 0.71178 0.72339 0.73374 0.0
C1307 C 0.69583 0.69607 0.80698 0.0
C1308 C 0.68336 0.71263 0.81852 0.0
C1309 C 0.70426 0.67954 0.82449 0.0
C1310 C 0.71931 0.6631 0.81425 0.0
C1311 C 0.74601 0.67817 0.79893 0.0
C1312 C 0.75997 0.66248 0.78924 0.0
C1313 C 0.74756 0.63175 0.79488 0.0
C1314 C 0.72119 0.61667 0.81031 0.0
C1315 C 0.70713 0.63224 0.82003 0.0
H1316 H 0.75841 0.61965 0.78736 0.0
H1317 H 0.62706 0.77493 0.88402 0.0
H1318 H 0.03499 0.73999 0.28315 0.0
H1319 H 0.03412 0.73916 0.23357 0.0
H1320 H 0.9592 0.64796 0.23491 0.0
H1321 H 0.95978 0.6488 0.28496 0.0
H1322 H 0.00663 0.65535 0.20097 0.0
H1323 H 0.94711 0.70241 0.21422 0.0
H1324 H 0.93443 0.73939 0.23298 0.0
H1325 H 0.01358 0.81171 0.19598 0.0
H1326 H 0.02697 0.77516 0.17729 0.0
H1327 H 0.9662 0.64193 0.06205 0.0
H1328 H 0.96856 0.64504 0.11143 0.0
H1329 H 0.04449 0.73547 0.10655 0.0
H1330 H 0.04236 0.73233 0.05647 0.0
H1331 H 0.998 0.72955 0.14221 0.0
H1332 H 0.05712 0.68247 0.12826 0.0
H1333 H 0.0696 0.64546 0.10923 0.0
H1334 H 0.99142 0.5733 0.14755 0.0
H1335 H 0.9782 0.60986 0.1665 0.0
C1336 C 0.01796 0.71988 0.27293 0.0
C1337 C 0.99741 0.69444 0.28802 0.0
C1338 C 0.01748 0.71947 0.24453 0.0
C1339 C 0.99663 0.69352 0.2304 0.0
C1340 C 0.97552 0.66826 0.24536 0.0
C1341 C 0.97567 0.66883 0.27394 0.0
C1342 C 0.99814 0.69254 0.20014 0.0
C1343 C 0.00425 0.67127 0.18811 0.0
C1344 C 0.99612 0.71398 0.18333 0.0
C1345 C 0.98821 0.73606 0.19459 0.0
C1346 C 0.96197 0.72622 0.21029 0.0
C1347 C 0.95462 0.7471 0.22087 0.0
C1348 C 0.97323 0.77789 0.21574 0.0
C1349 C 0.99921 0.78785 0.19997 0.0
C1350 C 0.00668 0.76706 0.18935 0.0
C1351 C 0.98378 0.66237 0.07141 0.0
C1352 C 0.00424 0.68685 0.0553 0.0
C1353 C 0.98508 0.66409 0.09972 0.0
C1354 C 0.00673 0.69042 0.11281 0.0
C1355 C 0.02761 0.71487 0.09688 0.0
C1356 C 0.02659 0.71298 0.06831 0.0
C1357 C 0.0064 0.6923 0.14307 0.0
C1358 C 0.00048 0.71372 0.1551 0.0
C1359 C 0.00864 0.67102 0.15989 0.0
C1360 C 0.0165 0.64891 0.14859 0.0
C1361 C 0.04242 0.65869 0.13243 0.0
C1362 C 0.04967 0.63779 0.1217 0.0
C1363 C 0.03126 0.60704 0.12711 0.0
C1364 C 0.00563 0.59713 0.14334 0.0
C1365 C 0.99826 0.61794 0.15411 0.0
H1366 H 0.03691 0.5909 0.11878 0.0
H1367 H 0.96749 0.79402 0.22393 0.0
loop_
_geom_bond_atom_site_label_1
_geom_bond_atom_site_label_2
_geom_bond_distance
_geom_bond_site_symmetry_2
_ccdc_geom_bond_type
Co0 O1 2.216 . S
Co0 O2 2.091 . S
Co0 O4 2.004 . S
Co0 O10 2.021 . S
Co0 O12 2.137 1_545 S
Co0 O13 2.244 1_545 S
O1 Co0 2.216 . S
O1 C8 1.247 . S
O2 Co0 2.091 . S
O2 C8 1.261 . S
C3 O12 1.247 . S
C3 O13 1.272 . S
O4 Co0 2.004 . S
O4 C9 1.259 . S
Co5 O6 2.061 . S
Co5 O11 2.052 . S
Co5 O13 2.135 . S
O6 Co5 2.061 . S
O6 C9 1.235 1_565 S
C7 O10 1.238 . S
C7 O11 1.241 1_545 S
C8 O1 1.247 . S
C8 O2 1.261 . S
C9 O4 1.259 . S
C9 O6 1.235 1_545 S
O10 Co0 2.021 . S
O10 C7 1.238 . S
O11 Co5 2.052 . S
O11 C7 1.241 1_565 S
O12 Co0 2.137 1_565 S
O12 C3 1.247 . S
O13 Co0 2.244 1_565 S
O13 C3 1.272 . S
O13 Co5 2.135 . S
Co14 O15 2.216 . S
Co14 O16 2.091 . S
Co14 O18 2.004 . S
Co14 O24 2.021 . S
Co14 O26 2.137 . S
Co14 O27 2.244 . S
O15 Co14 2.216 . S
O15 C22 1.247 . S
O16 Co14 2.091 . S
O16 C22 1.261 . S
C17 O26 1.247 . S
C17 O27 1.272 . S
O18 Co14 2.004 . S
O18 C23 1.259 . S
Co19 O20 2.061 . S
Co19 O25 2.052 . S
Co19 O27 2.135 . S
O20 Co19 2.061 . S
O20 C23 1.235 . S
C21 O24 1.238 . S
C21 O25 1.241 . S
C22 O15 1.247 . S
C22 O16 1.261 . S
C23 O18 1.259 . S
C23 O20 1.235 . S
O24 Co14 2.021 . S
O24 C21 1.238 . S
O25 Co19 2.052 . S
O25 C21 1.241 . S
O26 Co14 2.137 . S
O26 C17 1.247 . S
O27 Co14 2.244 . S
O27 C17 1.272 . S
O27 Co19 2.135 . S
Co28 O29 2.216 . S
Co28 O30 2.091 . S
Co28 O32 2.004 1_556 S
Co28 O38 2.021 . S
Co28 O40 2.137 1_655 S
Co28 O41 2.244 1_655 S
O29 Co28 2.216 . S
O29 C36 1.247 . S
O30 Co28 2.091 . S
O30 C36 1.261 . S
C31 O40 1.247 . S
C31 O41 1.272 . S
O32 Co28 2.004 1_554 S
O32 C37 1.259 . S
Co33 O34 2.061 . S
Co33 O39 2.052 1_554 S
Co33 O41 2.135 1_554 S
O34 Co33 2.061 . S
O34 C37 1.235 1_455 S
C35 O38 1.238 . S
C35 O39 1.241 1_655 S
C36 O29 1.247 . S
C36 O30 1.261 . S
C37 O32 1.259 . S
C37 O34 1.235 1_655 S
O38 Co28 2.021 . S
O38 C35 1.238 . S
O39 Co33 2.052 1_556 S
O39 C35 1.241 1_455 S
O40 Co28 2.137 1_455 S
O40 C31 1.247 . S
O41 Co28 2.244 1_455 S
O41 C31 1.272 . S
O41 Co33 2.135 1_556 S
Co42 O43 2.216 . S
Co42 O44 2.091 . S
Co42 O46 2.004 . S
Co42 O52 2.021 . S
Co42 O54 2.137 1_565 S
Co42 O55 2.244 1_565 S
O43 Co42 2.216 . S
O43 C50 1.247 . S
O44 Co42 2.091 . S
O44 C50 1.261 . S
C45 O54 1.247 . S
C45 O55 1.272 . S
O46 Co42 2.004 . S
O46 C51 1.259 . S
Co47 O48 2.061 . S
Co47 O53 2.052 . S
Co47 O55 2.135 . S
O48 Co47 2.061 . S
O48 C51 1.235 1_545 S
C49 O52 1.238 . S
C49 O53 1.241 1_565 S
C50 O43 1.247 . S
C50 O44 1.261 . S
C51 O46 1.259 . S
C51 O48 1.235 1_565 S
O52 Co42 2.021 . S
O52 C49 1.238 . S
O53 Co47 2.052 . S
O53 C49 1.241 1_545 S
O54 Co42 2.137 1_545 S
O54 C45 1.247 . S
O55 Co42 2.244 1_545 S
O55 C45 1.272 . S
O55 Co47 2.135 . S
Co56 O57 2.216 . S
Co56 O58 2.091 . S
Co56 O60 2.004 . S
Co56 O66 2.021 . S
Co56 O68 2.137 . S
Co56 O69 2.244 . S
O57 Co56 2.216 . S
O57 C64 1.247 . S
O58 Co56 2.091 . S
O58 C64 1.261 . S
C59 O68 1.247 . S
C59 O69 1.272 . S
O60 Co56 2.004 . S
O60 C65 1.259 . S
Co61 O62 2.061 . S
Co61 O67 2.052 . S
Co61 O69 2.135 . S
O62 Co61 2.061 . S
O62 C65 1.235 . S
C63 O66 1.238 . S
C63 O67 1.241 . S
C64 O57 1.247 . S
C64 O58 1.261 . S
C65 O60 1.259 . S
C65 O62 1.235 . S
O66 Co56 2.021 . S
O66 C63 1.238 . S
O67 Co61 2.052 . S
O67 C63 1.241 . S
O68 Co56 2.137 . S
O68 C59 1.247 . S
O69 Co56 2.244 . S
O69 C59 1.272 . S
O69 Co61 2.135 . S
Co70 O71 2.216 . S
Co70 O72 2.091 . S
Co70 O74 2.004 1_556 S
Co70 O80 2.021 . S
Co70 O82 2.137 1_455 S
Co70 O83 2.244 1_455 S
O71 Co70 2.216 . S
O71 C78 1.247 . S
O72 Co70 2.091 . S
O72 C78 1.261 . S
C73 O82 1.247 . S
C73 O83 1.272 . S
O74 Co70 2.004 1_554 S
O74 C79 1.259 . S
Co75 O76 2.061 . S
Co75 O81 2.052 1_554 S
Co75 O83 2.135 1_554 S
O76 Co75 2.061 . S
O76 C79 1.235 1_655 S
C77 O80 1.238 . S
C77 O81 1.241 1_455 S
C78 O71 1.247 . S
C78 O72 1.261 . S
C79 O74 1.259 . S
C79 O76 1.235 1_455 S
O80 Co70 2.021 . S
O80 C77 1.238 . S
O81 Co75 2.052 1_556 S
O81 C77 1.241 1_655 S
O82 Co70 2.137 1_655 S
O82 C73 1.247 . S
O83 Co70 2.244 1_655 S
O83 C73 1.272 . S
O83 Co75 2.135 1_556 S
Co84 O85 2.216 . S
Co84 O86 2.091 . S
Co84 O88 2.004 . S
Co84 O94 2.021 . S
Co84 O96 2.137 1_655 S
Co84 O97 2.244 1_655 S
O85 Co84 2.216 . S
O85 C92 1.247 . S
O86 Co84 2.091 . S
O86 C92 1.261 . S
C87 O96 1.247 . S
C87 O97 1.272 . S
O88 Co84 2.004 . S
O88 C93 1.259 . S
Co89 O90 2.061 . S
Co89 O95 2.052 . S
Co89 O97 2.135 . S
O90 Co89 2.061 . S
O90 C93 1.235 1_455 S
C91 O94 1.238 . S
C91 O95 1.241 1_655 S
C92 O85 1.247 . S
C92 O86 1.261 . S
C93 O88 1.259 . S
C93 O90 1.235 1_655 S
O94 Co84 2.021 . S
O94 C91 1.238 . S
O95 Co89 2.052 . S
O95 C91 1.241 1_455 S
O96 Co84 2.137 1_455 S
O96 C87 1.247 . S
O97 Co84 2.244 1_455 S
O97 C87 1.272 . S
O97 Co89 2.135 . S
Co98 O99 2.216 . S
Co98 O100 2.091 . S
Co98 O102 2.004 . S
Co98 O108 2.021 . S
Co98 O110 2.137 1_565 S
Co98 O111 2.244 1_565 S
O99 Co98 2.216 . S
O99 C106 1.247 . S
O100 Co98 2.091 . S
O100 C106 1.261 . S
C101 O110 1.247 . S
C101 O111 1.272 . S
O102 Co98 2.004 . S
O102 C107 1.259 . S
Co103 O104 2.061 . S
Co103 O109 2.052 . S
Co103 O111 2.135 . S
O104 Co103 2.061 . S
O104 C107 1.235 1_545 S
C105 O108 1.238 . S
C105 O109 1.241 1_565 S
C106 O99 1.247 . S
C106 O100 1.261 . S
C107 O102 1.259 . S
C107 O104 1.235 1_565 S
O108 Co98 2.021 . S
O108 C105 1.238 . S
O109 Co103 2.052 . S
O109 C105 1.241 1_545 S
O110 Co98 2.137 1_545 S
O110 C101 1.247 . S
O111 Co98 2.244 1_545 S
O111 C101 1.272 . S
O111 Co103 2.135 . S
Co112 O113 2.216 . S
Co112 O114 2.091 . S
Co112 O116 2.004 1_554 S
Co112 O122 2.021 . S
Co112 O124 2.137 . S
Co112 O125 2.244 . S
O113 Co112 2.216 . S
O113 C120 1.247 . S
O114 Co112 2.091 . S
O114 C120 1.261 . S
C115 O124 1.247 . S
C115 O125 1.272 . S
O116 Co112 2.004 1_556 S
O116 C121 1.259 . S
Co117 O118 2.061 . S
Co117 O123 2.052 1_556 S
Co117 O125 2.135 1_556 S
O118 Co117 2.061 . S
O118 C121 1.235 . S
C119 O122 1.238 . S
C119 O123 1.241 . S
C120 O113 1.247 . S
C120 O114 1.261 . S
C121 O116 1.259 . S
C121 O118 1.235 . S
O122 Co112 2.021 . S
O122 C119 1.238 . S
O123 Co117 2.052 1_554 S
O123 C119 1.241 . S
O124 Co112 2.137 . S
O124 C115 1.247 . S
O125 Co112 2.244 . S
O125 C115 1.272 . S
O125 Co117 2.135 1_554 S
Co126 O127 2.216 . S
Co126 O128 2.091 . S
Co126 O130 2.004 . S
Co126 O136 2.021 . S
Co126 O138 2.137 1_455 S
Co126 O139 2.244 1_455 S
O127 Co126 2.216 . S
O127 C134 1.247 . S
O128 Co126 2.091 . S
O128 C134 1.261 . S
C129 O138 1.247 . S
C129 O139 1.272 . S
O130 Co126 2.004 . S
O130 C135 1.259 . S
Co131 O132 2.061 . S
Co131 O137 2.052 . S
Co131 O139 2.135 . S
O132 Co131 2.061 . S
O132 C135 1.235 1_655 S
C133 O136 1.238 . S
C133 O137 1.241 1_455 S
C134 O127 1.247 . S
C134 O128 1.261 . S
C135 O130 1.259 . S
C135 O132 1.235 1_455 S
O136 Co126 2.021 . S
O136 C133 1.238 . S
O137 Co131 2.052 . S
O137 C133 1.241 1_655 S
O138 Co126 2.137 1_655 S
O138 C129 1.247 . S
O139 Co126 2.244 1_655 S
O139 C129 1.272 . S
O139 Co131 2.135 . S
Co140 O141 2.216 . S
Co140 O142 2.091 . S
Co140 O144 2.004 . S
Co140 O150 2.021 . S
Co140 O152 2.137 1_545 S
Co140 O153 2.244 1_545 S
O141 Co140 2.216 . S
O141 C148 1.247 . S
O142 Co140 2.091 . S
O142 C148 1.261 . S
C143 O152 1.247 . S
C143 O153 1.272 . S
O144 Co140 2.004 . S
O144 C149 1.259 . S
Co145 O146 2.061 . S
Co145 O151 2.052 . S
Co145 O153 2.135 . S
O146 Co145 2.061 . S
O146 C149 1.235 1_565 S
C147 O150 1.238 . S
C147 O151 1.241 1_545 S
C148 O141 1.247 . S
C148 O142 1.261 . S
C149 O144 1.259 . S
C149 O146 1.235 1_545 S
O150 Co140 2.021 . S
O150 C147 1.238 . S
O151 Co145 2.052 . S
O151 C147 1.241 1_565 S
O152 Co140 2.137 1_565 S
O152 C143 1.247 . S
O153 Co140 2.244 1_565 S
O153 C143 1.272 . S
O153 Co145 2.135 . S
Co154 O155 2.216 . S
Co154 O156 2.091 . S
Co154 O158 2.004 1_554 S
Co154 O164 2.021 . S
Co154 O166 2.137 . S
Co154 O167 2.244 . S
O155 Co154 2.216 . S
O155 C162 1.247 . S
O156 Co154 2.091 . S
O156 C162 1.261 . S
C157 O166 1.247 . S
C157 O167 1.272 . S
O158 Co154 2.004 1_556 S
O158 C163 1.259 . S
Co159 O160 2.061 . S
Co159 O165 2.052 1_556 S
Co159 O167 2.135 1_556 S
O160 Co159 2.061 . S
O160 C163 1.235 . S
C161 O164 1.238 . S
C161 O165 1.241 . S
C162 O155 1.247 . S
C162 O156 1.261 . S
C163 O158 1.259 . S
C163 O160 1.235 . S
O164 Co154 2.021 . S
O164 C161 1.238 . S
O165 Co159 2.052 1_554 S
O165 C161 1.241 . S
O166 Co154 2.137 . S
O166 C157 1.247 . S
O167 Co154 2.244 . S
O167 C157 1.272 . S
O167 Co159 2.135 1_554 S
H168 C186 0.951 . S
H169 C188 0.951 . S
H170 C190 0.950 . S
H171 C191 0.950 . S
H172 C193 0.950 . S
H173 C196 0.950 . S
H174 C197 0.950 . S
H175 C199 0.950 . S
H176 C200 0.950 . S
H177 C201 0.951 . S
H178 C203 0.951 . S
H179 C205 0.950 . S
H180 C206 0.950 . S
H181 C208 0.950 . S
H182 C211 0.950 . S
H183 C212 0.950 . S
H184 C214 0.950 . S
H185 C215 0.950 . S
C186 H168 0.951 . S
C186 C187 1.366 . S
C186 C188 1.388 . S
C187 C186 1.366 . S
C187 C191 1.385 . S
C188 H169 0.951 . S
C188 C186 1.388 . S
C188 C189 1.366 . S
C189 C188 1.366 . S
C189 C190 1.414 . S
C189 C192 1.499 . S
C190 H170 0.950 . S
C190 C189 1.414 . S
C190 C191 1.374 . S
C191 H171 0.950 . S
C191 C187 1.385 . S
C191 C190 1.374 . S
C192 C189 1.499 . S
C192 C193 1.373 . S
C192 C194 1.389 . S
C193 H172 0.950 . S
C193 C192 1.373 . S
C193 C209 1.377 . S
C194 C192 1.389 . S
C194 C195 1.524 . S
C194 C208 1.377 . S
C195 C194 1.524 . S
C195 C196 1.397 . S
C195 C200 1.363 . S
C196 H173 0.950 . S
C196 C195 1.397 . S
C196 C197 1.334 . S
C197 H174 0.950 . S
C197 C196 1.334 . S
C197 C198 1.287 . S
C198 C197 1.287 . S
C198 C199 1.524 . S
C198 H217 0.913 . S
C199 H175 0.950 . S
C199 C198 1.524 . S
C199 C200 1.415 . S
C200 H176 0.950 . S
C200 C195 1.363 . S
C200 C199 1.415 . S
C201 H177 0.951 . S
C201 C202 1.366 . S
C201 C203 1.388 . S
C202 C201 1.366 . S
C202 C206 1.385 . S
C203 H178 0.951 . S
C203 C201 1.388 . S
C203 C204 1.366 . S
C204 C203 1.366 . S
C204 C205 1.414 . S
C204 C207 1.499 . S
C205 H179 0.950 . S
C205 C204 1.414 . S
C205 C206 1.374 . S
C206 H180 0.950 . S
C206 C202 1.385 . S
C206 C205 1.374 . S
C207 C204 1.499 . S
C207 C208 1.373 . S
C207 C209 1.389 . S
C208 H181 0.950 . S
C208 C194 1.377 . S
C208 C207 1.373 . S
C209 C193 1.377 . S
C209 C207 1.389 . S
C209 C210 1.524 . S
C210 C209 1.524 . S
C210 C211 1.397 . S
C210 C215 1.363 . S
C211 H182 0.950 . S
C211 C210 1.397 . S
C211 C212 1.334 . S
C212 H183 0.950 . S
C212 C211 1.334 . S
C212 C213 1.287 . S
C213 C212 1.287 . S
C213 C214 1.524 . S
C213 H216 0.999 . S
C214 H184 0.950 . S
C214 C213 1.524 . S
C214 C215 1.415 . S
C215 H185 0.950 . S
C215 C210 1.363 . S
C215 C214 1.415 . S
H216 C213 0.999 . S
H217 C198 0.913 . S
H218 C236 0.951 . S
H219 C238 0.951 . S
H220 C240 0.950 . S
H221 C241 0.950 . S
H222 C243 0.950 . S
H223 C246 0.950 . S
H224 C247 0.950 . S
H225 C249 0.950 . S
H226 C250 0.950 . S
H227 C251 0.951 . S
H228 C253 0.951 . S
H229 C255 0.950 . S
H230 C256 0.950 . S
H231 C258 0.950 . S
H232 C261 0.950 . S
H233 C262 0.950 . S
H234 C264 0.950 . S
H235 C265 0.950 . S
C236 H218 0.951 . S
C236 C237 1.366 . S
C236 C238 1.388 . S
C237 C236 1.366 . S
C237 C241 1.385 . S
C238 H219 0.951 . S
C238 C236 1.388 . S
C238 C239 1.366 . S
C239 C238 1.366 . S
C239 C240 1.414 . S
C239 C242 1.499 . S
C240 H220 0.950 . S
C240 C239 1.414 . S
C240 C241 1.374 . S
C241 H221 0.950 . S
C241 C237 1.385 . S
C241 C240 1.374 . S
C242 C239 1.499 . S
C242 C243 1.373 . S
C242 C244 1.389 . S
C243 H222 0.950 . S
C243 C242 1.373 . S
C243 C259 1.377 . S
C244 C242 1.389 . S
C244 C245 1.524 . S
C244 C258 1.377 . S
C245 C244 1.524 . S
C245 C246 1.397 . S
C245 C250 1.363 . S
C246 H223 0.950 . S
C246 C245 1.397 . S
C246 C247 1.334 . S
C247 H224 0.950 . S
C247 C246 1.334 . S
C247 C248 1.287 . S
C248 C247 1.287 . S
C248 C249 1.524 . S
C248 H267 0.913 . S
C249 H225 0.950 . S
C249 C248 1.524 . S
C249 C250 1.415 . S
C250 H226 0.950 . S
C250 C245 1.363 . S
C250 C249 1.415 . S
C251 H227 0.951 . S
C251 C252 1.366 . S
C251 C253 1.388 . S
C252 C251 1.366 . S
C252 C256 1.385 . S
C253 H228 0.951 . S
C253 C251 1.388 . S
C253 C254 1.366 . S
C254 C253 1.366 . S
C254 C255 1.414 . S
C254 C257 1.499 . S
C255 H229 0.950 . S
C255 C254 1.414 . S
C255 C256 1.374 . S
C256 H230 0.950 . S
C256 C252 1.385 . S
C256 C255 1.374 . S
C257 C254 1.499 . S
C257 C258 1.373 . S
C257 C259 1.389 . S
C258 H231 0.950 . S
C258 C244 1.377 . S
C258 C257 1.373 . S
C259 C243 1.377 . S
C259 C257 1.389 . S
C259 C260 1.524 . S
C260 C259 1.524 . S
C260 C261 1.397 . S
C260 C265 1.363 . S
C261 H232 0.950 . S
C261 C260 1.397 . S
C261 C262 1.334 . S
C262 H233 0.950 . S
C262 C261 1.334 . S
C262 C263 1.287 . S
C263 C262 1.287 . S
C263 C264 1.524 . S
C263 H266 0.999 . S
C264 H234 0.950 . S
C264 C263 1.524 . S
C264 C265 1.415 . S
C265 H235 0.950 . S
C265 C260 1.363 . S
C265 C264 1.415 . S
H266 C263 0.999 . S
H267 C248 0.913 . S
H268 C286 0.951 . S
H269 C288 0.951 . S
H270 C290 0.950 . S
H271 C291 0.950 . S
H272 C293 0.950 . S
H273 C296 0.950 . S
H274 C297 0.950 . S
H275 C299 0.950 . S
H276 C300 0.950 . S
H277 C301 0.951 . S
H278 C303 0.951 . S
H279 C305 0.950 . S
H280 C306 0.950 . S
H281 C308 0.950 . S
H282 C311 0.950 . S
H283 C312 0.950 . S
H284 C314 0.950 . S
H285 C315 0.950 . S
C286 H268 0.951 . S
C286 C287 1.366 . S
C286 C288 1.388 . S
C287 C286 1.366 . S
C287 C291 1.385 . S
C288 H269 0.951 . S
C288 C286 1.388 . S
C288 C289 1.366 . S
C289 C288 1.366 . S
C289 C290 1.414 . S
C289 C292 1.499 . S
C290 H270 0.950 . S
C290 C289 1.414 . S
C290 C291 1.374 . S
C291 H271 0.950 . S
C291 C287 1.385 . S
C291 C290 1.374 . S
C292 C289 1.499 . S
C292 C293 1.373 . S
C292 C294 1.389 . S
C293 H272 0.950 . S
C293 C292 1.373 . S
C293 C309 1.377 . S
C294 C292 1.389 . S
C294 C295 1.524 . S
C294 C308 1.377 . S
C295 C294 1.524 . S
C295 C296 1.397 . S
C295 C300 1.363 . S
C296 H273 0.950 . S
C296 C295 1.397 . S
C296 C297 1.334 . S
C297 H274 0.950 . S
C297 C296 1.334 . S
C297 C298 1.287 . S
C298 C297 1.287 . S
C298 C299 1.524 . S
C298 H317 0.913 . S
C299 H275 0.950 . S
C299 C298 1.524 . S
C299 C300 1.415 . S
C300 H276 0.950 . S
C300 C295 1.363 . S
C300 C299 1.415 . S
C301 H277 0.951 . S
C301 C302 1.366 . S
C301 C303 1.388 . S
C302 C301 1.366 . S
C302 C306 1.385 . S
C303 H278 0.951 . S
C303 C301 1.388 . S
C303 C304 1.366 . S
C304 C303 1.366 . S
C304 C305 1.414 . S
C304 C307 1.499 . S
C305 H279 0.950 . S
C305 C304 1.414 . S
C305 C306 1.374 . S
C306 H280 0.950 . S
C306 C302 1.385 . S
C306 C305 1.374 . S
C307 C304 1.499 . S
C307 C308 1.373 . S
C307 C309 1.389 . S
C308 H281 0.950 . S
C308 C294 1.377 . S
C308 C307 1.373 . S
C309 C293 1.377 . S
C309 C307 1.389 . S
C309 C310 1.524 . S
C310 C309 1.524 . S
C310 C311 1.397 . S
C310 C315 1.363 . S
C311 H282 0.950 . S
C311 C310 1.397 . S
C311 C312 1.334 . S
C312 H283 0.950 . S
C312 C311 1.334 . S
C312 C313 1.287 . S
C313 C312 1.287 . S
C313 C314 1.524 . S
C313 H316 0.999 . S
C314 H284 0.950 . S
C314 C313 1.524 . S
C314 C315 1.415 . S
C315 H285 0.950 . S
C315 C310 1.363 . S
C315 C314 1.415 . S
H316 C313 0.999 . S
H317 C298 0.913 . S
H318 C336 0.951 . S
H319 C338 0.951 . S
H320 C340 0.950 . S
H321 C341 0.950 . S
H322 C343 0.950 . S
H323 C346 0.950 . S
H324 C347 0.950 . S
H325 C349 0.950 . S
H326 C350 0.950 . S
H327 C351 0.951 . S
H328 C353 0.951 . S
H329 C355 0.950 . S
H330 C356 0.950 . S
H331 C358 0.950 . S
H332 C361 0.950 . S
H333 C362 0.950 . S
H334 C364 0.950 . S
H335 C365 0.950 . S
C336 H318 0.951 . S
C336 C337 1.366 . S
C336 C338 1.388 . S
C337 C336 1.366 . S
C337 C341 1.385 . S
C338 H319 0.951 . S
C338 C336 1.388 . S
C338 C339 1.366 . S
C339 C338 1.366 . S
C339 C340 1.414 . S
C339 C342 1.499 . S
C340 H320 0.950 . S
C340 C339 1.414 . S
C340 C341 1.374 . S
C341 H321 0.950 . S
C341 C337 1.385 . S
C341 C340 1.374 . S
C342 C339 1.499 . S
C342 C343 1.373 . S
C342 C344 1.389 . S
C343 H322 0.950 . S
C343 C342 1.373 . S
C343 C359 1.377 . S
C344 C342 1.389 . S
C344 C345 1.524 . S
C344 C358 1.377 . S
C345 C344 1.524 . S
C345 C346 1.397 . S
C345 C350 1.363 . S
C346 H323 0.950 . S
C346 C345 1.397 . S
C346 C347 1.334 . S
C347 H324 0.950 . S
C347 C346 1.334 . S
C347 C348 1.287 . S
C348 C347 1.287 . S
C348 C349 1.524 . S
C348 H367 0.913 . S
C349 H325 0.950 . S
C349 C348 1.524 . S
C349 C350 1.415 . S
C350 H326 0.950 . S
C350 C345 1.363 . S
C350 C349 1.415 . S
C351 H327 0.951 . S
C351 C352 1.366 . S
C351 C353 1.388 . S
C352 C351 1.366 . S
C352 C356 1.385 . S
C353 H328 0.951 . S
C353 C351 1.388 . S
C353 C354 1.366 . S
C354 C353 1.366 . S
C354 C355 1.414 . S
C354 C357 1.499 . S
C355 H329 0.950 . S
C355 C354 1.414 . S
C355 C356 1.374 . S
C356 H330 0.950 . S
C356 C352 1.385 . S
C356 C355 1.374 . S
C357 C354 1.499 . S
C357 C358 1.373 . S
C357 C359 1.389 . S
C358 H331 0.950 . S
C358 C344 1.377 . S
C358 C357 1.373 . S
C359 C343 1.377 . S
C359 C357 1.389 . S
C359 C360 1.524 . S
C360 C359 1.524 . S
C360 C361 1.397 . S
C360 C365 1.363 . S
C361 H332 0.950 . S
C361 C360 1.397 . S
C361 C362 1.334 . S
C362 H333 0.950 . S
C362 C361 1.334 . S
C362 C363 1.287 . S
C363 C362 1.287 . S
C363 C364 1.524 . S
C363 H366 0.999 . S
C364 H334 0.950 . S
C364 C363 1.524 . S
C364 C365 1.415 . S
C365 H335 0.950 . S
C365 C360 1.363 . S
C365 C364 1.415 . S
H366 C363 0.999 . S
H367 C348 0.913 . S
H368 C386 0.951 . S
H369 C388 0.951 . S
H370 C390 0.950 . S
H371 C391 0.950 . S
H372 C393 0.950 . S
H373 C396 0.950 . S
H374 C397 0.950 . S
H375 C399 0.950 . S
H376 C400 0.950 . S
H377 C401 0.951 . S
H378 C403 0.951 . S
H379 C405 0.950 . S
H380 C406 0.950 . S
H381 C408 0.950 . S
H382 C411 0.950 . S
H383 C412 0.950 . S
H384 C414 0.950 . S
H385 C415 0.950 . S
C386 H368 0.951 . S
C386 C387 1.366 . S
C386 C388 1.388 . S
C387 C386 1.366 . S
C387 C391 1.385 . S
C388 H369 0.951 . S
C388 C386 1.388 . S
C388 C389 1.366 . S
C389 C388 1.366 . S
C389 C390 1.414 . S
C389 C392 1.499 . S
C390 H370 0.950 . S
C390 C389 1.414 . S
C390 C391 1.374 . S
C391 H371 0.950 . S
C391 C387 1.385 . S
C391 C390 1.374 . S
C392 C389 1.499 . S
C392 C393 1.373 . S
C392 C394 1.389 . S
C393 H372 0.950 . S
C393 C392 1.373 . S
C393 C409 1.377 . S
C394 C392 1.389 . S
C394 C395 1.524 . S
C394 C408 1.377 . S
C395 C394 1.524 . S
C395 C396 1.397 . S
C395 C400 1.363 . S
C396 H373 0.950 . S
C396 C395 1.397 . S
C396 C397 1.334 . S
C397 H374 0.950 . S
C397 C396 1.334 . S
C397 C398 1.287 . S
C398 C397 1.287 . S
C398 C399 1.524 . S
C398 H417 0.913 . S
C399 H375 0.950 . S
C399 C398 1.524 . S
C399 C400 1.415 . S
C400 H376 0.950 . S
C400 C395 1.363 . S
C400 C399 1.415 . S
C401 H377 0.951 . S
C401 C402 1.366 . S
C401 C403 1.388 . S
C402 C401 1.366 . S
C402 C406 1.385 . S
C403 H378 0.951 . S
C403 C401 1.388 . S
C403 C404 1.366 . S
C404 C403 1.366 . S
C404 C405 1.414 . S
C404 C407 1.499 . S
C405 H379 0.950 . S
C405 C404 1.414 . S
C405 C406 1.374 . S
C406 H380 0.950 . S
C406 C402 1.385 . S
C406 C405 1.374 . S
C407 C404 1.499 . S
C407 C408 1.373 . S
C407 C409 1.389 . S
C408 H381 0.950 . S
C408 C394 1.377 . S
C408 C407 1.373 . S
C409 C393 1.377 . S
C409 C407 1.389 . S
C409 C410 1.524 . S
C410 C409 1.524 . S
C410 C411 1.397 . S
C410 C415 1.363 . S
C411 H382 0.950 . S
C411 C410 1.397 . S
C411 C412 1.334 . S
C412 H383 0.950 . S
C412 C411 1.334 . S
C412 C413 1.287 . S
C413 C412 1.287 . S
C413 C414 1.524 . S
C413 H416 0.999 . S
C414 H384 0.950 . S
C414 C413 1.524 . S
C414 C415 1.415 . S
C415 H385 0.950 . S
C415 C410 1.363 . S
C415 C414 1.415 . S
H416 C413 0.999 . S
H417 C398 0.913 . S
H418 C436 0.951 . S
H419 C438 0.951 . S
H420 C440 0.950 . S
H421 C441 0.950 . S
H422 C443 0.950 . S
H423 C446 0.950 . S
H424 C447 0.950 . S
H425 C449 0.950 . S
H426 C450 0.950 . S
H427 C451 0.951 . S
H428 C453 0.951 . S
H429 C455 0.950 . S
H430 C456 0.950 . S
H431 C458 0.950 . S
H432 C461 0.950 . S
H433 C462 0.950 . S
H434 C464 0.950 . S
H435 C465 0.950 . S
C436 H418 0.951 . S
C436 C437 1.366 . S
C436 C438 1.388 . S
C437 C436 1.366 . S
C437 C441 1.385 . S
C438 H419 0.951 . S
C438 C436 1.388 . S
C438 C439 1.366 . S
C439 C438 1.366 . S
C439 C440 1.414 . S
C439 C442 1.499 . S
C440 H420 0.950 . S
C440 C439 1.414 . S
C440 C441 1.374 . S
C441 H421 0.950 . S
C441 C437 1.385 . S
C441 C440 1.374 . S
C442 C439 1.499 . S
C442 C443 1.373 . S
C442 C444 1.389 . S
C443 H422 0.950 . S
C443 C442 1.373 . S
C443 C459 1.377 . S
C444 C442 1.389 . S
C444 C445 1.524 . S
C444 C458 1.377 . S
C445 C444 1.524 . S
C445 C446 1.397 . S
C445 C450 1.363 . S
C446 H423 0.950 . S
C446 C445 1.397 . S
C446 C447 1.334 . S
C447 H424 0.950 . S
C447 C446 1.334 . S
C447 C448 1.287 . S
C448 C447 1.287 . S
C448 C449 1.524 . S
C448 H467 0.913 . S
C449 H425 0.950 . S
C449 C448 1.524 . S
C449 C450 1.415 . S
C450 H426 0.950 . S
C450 C445 1.363 . S
C450 C449 1.415 . S
C451 H427 0.951 . S
C451 C452 1.366 . S
C451 C453 1.388 . S
C452 C451 1.366 . S
C452 C456 1.385 . S
C453 H428 0.951 . S
C453 C451 1.388 . S
C453 C454 1.366 . S
C454 C453 1.366 . S
C454 C455 1.414 . S
C454 C457 1.499 . S
C455 H429 0.950 . S
C455 C454 1.414 . S
C455 C456 1.374 . S
C456 H430 0.950 . S
C456 C452 1.385 . S
C456 C455 1.374 . S
C457 C454 1.499 . S
C457 C458 1.373 . S
C457 C459 1.389 . S
C458 H431 0.950 . S
C458 C444 1.377 . S
C458 C457 1.373 . S
C459 C443 1.377 . S
C459 C457 1.389 . S
C459 C460 1.524 . S
C460 C459 1.524 . S
C460 C461 1.397 . S
C460 C465 1.363 . S
C461 H432 0.950 . S
C461 C460 1.397 . S
C461 C462 1.334 . S
C462 H433 0.950 . S
C462 C461 1.334 . S
C462 C463 1.287 . S
C463 C462 1.287 . S
C463 C464 1.524 . S
C463 H466 0.999 . S
C464 H434 0.950 . S
C464 C463 1.524 . S
C464 C465 1.415 . S
C465 H435 0.950 . S
C465 C460 1.363 . S
C465 C464 1.415 . S
H466 C463 0.999 . S
H467 C448 0.913 . S
H468 C486 0.951 . S
H469 C488 0.951 . S
H470 C490 0.950 . S
H471 C491 0.950 . S
H472 C493 0.950 . S
H473 C496 0.950 . S
H474 C497 0.950 . S
H475 C499 0.950 . S
H476 C500 0.950 . S
H477 C501 0.951 . S
H478 C503 0.951 . S
H479 C505 0.950 . S
H480 C506 0.950 . S
H481 C508 0.950 . S
H482 C511 0.950 . S
H483 C512 0.950 . S
H484 C514 0.950 . S
H485 C515 0.950 . S
C486 H468 0.951 . S
C486 C487 1.366 1_565 S
C486 C488 1.388 . S
C487 C486 1.366 1_545 S
C487 C491 1.385 . S
C488 H469 0.951 . S
C488 C486 1.388 . S
C488 C489 1.366 1_565 S
C489 C488 1.366 1_545 S
C489 C490 1.414 . S
C489 C492 1.499 . S
C490 H470 0.950 . S
C490 C489 1.414 . S
C490 C491 1.374 . S
C491 H471 0.950 . S
C491 C487 1.385 . S
C491 C490 1.374 . S
C492 C489 1.499 . S
C492 C493 1.373 . S
C492 C494 1.389 1_545 S
C493 H472 0.950 . S
C493 C492 1.373 . S
C493 C509 1.377 . S
C494 C492 1.389 1_565 S
C494 C495 1.524 . S
C494 C508 1.377 . S
C495 C494 1.524 . S
C495 C496 1.397 1_565 S
C495 C500 1.363 . S
C496 H473 0.950 . S
C496 C495 1.397 1_545 S
C496 C497 1.334 . S
C497 H474 0.950 . S
C497 C496 1.334 . S
C497 C498 1.287 1_545 S
C498 C497 1.287 1_565 S
C498 C499 1.524 . S
C498 H517 0.913 . S
C499 H475 0.950 . S
C499 C498 1.524 . S
C499 C500 1.415 . S
C500 H476 0.950 . S
C500 C495 1.363 . S
C500 C499 1.415 . S
C501 H477 0.951 . S
C501 C502 1.366 1_545 S
C501 C503 1.388 . S
C502 C501 1.366 1_565 S
C502 C506 1.385 . S
C503 H478 0.951 . S
C503 C501 1.388 . S
C503 C504 1.366 1_545 S
C504 C503 1.366 1_565 S
C504 C505 1.414 . S
C504 C507 1.499 . S
C505 H479 0.950 . S
C505 C504 1.414 . S
C505 C506 1.374 . S
C506 H480 0.950 . S
C506 C502 1.385 . S
C506 C505 1.374 . S
C507 C504 1.499 . S
C507 C508 1.373 . S
C507 C509 1.389 1_565 S
C508 H481 0.950 . S
C508 C494 1.377 . S
C508 C507 1.373 . S
C509 C493 1.377 . S
C509 C507 1.389 1_545 S
C509 C510 1.524 . S
C510 C509 1.524 . S
C510 C511 1.397 1_545 S
C510 C515 1.363 . S
C511 H482 0.950 . S
C511 C510 1.397 1_565 S
C511 C512 1.334 . S
C512 H483 0.950 . S
C512 C511 1.334 . S
C512 C513 1.287 1_565 S
C513 C512 1.287 1_545 S
C513 C514 1.524 . S
C513 H516 0.999 . S
C514 H484 0.950 . S
C514 C513 1.524 . S
C514 C515 1.415 . S
C515 H485 0.950 . S
C515 C510 1.363 . S
C515 C514 1.415 . S
H516 C513 0.999 . S
H517 C498 0.913 . S
H518 C536 0.951 . S
H519 C538 0.951 . S
H520 C540 0.950 . S
H521 C541 0.950 . S
H522 C543 0.950 . S
H523 C546 0.950 . S
H524 C547 0.950 . S
H525 C549 0.950 . S
H526 C550 0.950 . S
H527 C551 0.951 . S
H528 C553 0.951 . S
H529 C555 0.950 . S
H530 C556 0.950 . S
H531 C558 0.950 . S
H532 C561 0.950 . S
H533 C562 0.950 . S
H534 C564 0.950 . S
H535 C565 0.950 . S
C536 H518 0.951 . S
C536 C537 1.366 . S
C536 C538 1.388 . S
C537 C536 1.366 . S
C537 C541 1.385 . S
C538 H519 0.951 . S
C538 C536 1.388 . S
C538 C539 1.366 . S
C539 C538 1.366 . S
C539 C540 1.414 . S
C539 C542 1.499 . S
C540 H520 0.950 . S
C540 C539 1.414 . S
C540 C541 1.374 . S
C541 H521 0.950 . S
C541 C537 1.385 . S
C541 C540 1.374 . S
C542 C539 1.499 . S
C542 C543 1.373 . S
C542 C544 1.389 . S
C543 H522 0.950 . S
C543 C542 1.373 . S
C543 C559 1.377 . S
C544 C542 1.389 . S
C544 C545 1.524 . S
C544 C558 1.377 . S
C545 C544 1.524 . S
C545 C546 1.397 . S
C545 C550 1.363 . S
C546 H523 0.950 . S
C546 C545 1.397 . S
C546 C547 1.334 . S
C547 H524 0.950 . S
C547 C546 1.334 . S
C547 C548 1.287 . S
C548 C547 1.287 . S
C548 C549 1.524 . S
C548 H567 0.913 . S
C549 H525 0.950 . S
C549 C548 1.524 . S
C549 C550 1.415 . S
C550 H526 0.950 . S
C550 C545 1.363 . S
C550 C549 1.415 . S
C551 H527 0.951 . S
C551 C552 1.366 . S
C551 C553 1.388 . S
C552 C551 1.366 . S
C552 C556 1.385 . S
C553 H528 0.951 . S
C553 C551 1.388 . S
C553 C554 1.366 . S
C554 C553 1.366 . S
C554 C555 1.414 . S
C554 C557 1.499 . S
C555 H529 0.950 . S
C555 C554 1.414 . S
C555 C556 1.374 . S
C556 H530 0.950 . S
C556 C552 1.385 . S
C556 C555 1.374 . S
C557 C554 1.499 . S
C557 C558 1.373 . S
C557 C559 1.389 . S
C558 H531 0.950 . S
C558 C544 1.377 . S
C558 C557 1.373 . S
C559 C543 1.377 . S
C559 C557 1.389 . S
C559 C560 1.524 . S
C560 C559 1.524 . S
C560 C561 1.397 . S
C560 C565 1.363 . S
C561 H532 0.950 . S
C561 C560 1.397 . S
C561 C562 1.334 . S
C562 H533 0.950 . S
C562 C561 1.334 . S
C562 C563 1.287 . S
C563 C562 1.287 . S
C563 C564 1.524 . S
C563 H566 0.999 . S
C564 H534 0.950 . S
C564 C563 1.524 . S
C564 C565 1.415 . S
C565 H535 0.950 . S
C565 C560 1.363 . S
C565 C564 1.415 . S
H566 C563 0.999 . S
H567 C548 0.913 . S
H568 C586 0.951 . S
H569 C588 0.951 . S
H570 C590 0.950 . S
H571 C591 0.950 . S
H572 C593 0.950 . S
H573 C596 0.950 . S
H574 C597 0.950 1_455 S
H575 C599 0.950 . S
H576 C600 0.950 . S
H577 C601 0.951 . S
H578 C603 0.951 . S
H579 C605 0.950 . S
H580 C606 0.950 . S
H581 C608 0.950 1_554 S
H582 C611 0.950 . S
H583 C612 0.950 1_655 S
H584 C614 0.950 . S
H585 C615 0.950 . S
C586 H568 0.951 . S
C586 C587 1.366 1_655 S
C586 C588 1.388 . S
C587 C586 1.366 1_455 S
C587 C591 1.385 . S
C588 H569 0.951 . S
C588 C586 1.388 . S
C588 C589 1.366 1_655 S
C589 C588 1.366 1_455 S
C589 C590 1.414 . S
C589 C592 1.499 . S
C590 H570 0.950 . S
C590 C589 1.414 . S
C590 C591 1.374 . S
C591 H571 0.950 . S
C591 C587 1.385 . S
C591 C590 1.374 . S
C592 C589 1.499 . S
C592 C593 1.373 . S
C592 C594 1.389 1_455 S
C593 H572 0.950 . S
C593 C592 1.373 . S
C593 C609 1.377 . S
C594 C592 1.389 1_655 S
C594 C595 1.524 1_556 S
C594 C608 1.377 . S
C595 C594 1.524 1_554 S
C595 C596 1.397 1_655 S
C595 C600 1.363 . S
C596 H573 0.950 . S
C596 C595 1.397 1_455 S
C596 C597 1.334 1_455 S
C597 H574 0.950 1_655 S
C597 C596 1.334 1_655 S
C597 C598 1.287 . S
C598 C597 1.287 . S
C598 C599 1.524 . S
C598 H617 0.913 . S
C599 H575 0.950 . S
C599 C598 1.524 . S
C599 C600 1.415 . S
C600 H576 0.950 . S
C600 C595 1.363 . S
C600 C599 1.415 . S
C601 H577 0.951 . S
C601 C602 1.366 1_455 S
C601 C603 1.388 . S
C602 C601 1.366 1_655 S
C602 C606 1.385 . S
C603 H578 0.951 . S
C603 C601 1.388 . S
C603 C604 1.366 1_455 S
C604 C603 1.366 1_655 S
C604 C605 1.414 . S
C604 C607 1.499 . S
C605 H579 0.950 . S
C605 C604 1.414 . S
C605 C606 1.374 . S
C606 H580 0.950 . S
C606 C602 1.385 . S
C606 C605 1.374 . S
C607 C604 1.499 . S
C607 C608 1.373 . S
C607 C609 1.389 1_655 S
C608 H581 0.950 1_556 S
C608 C594 1.377 . S
C608 C607 1.373 . S
C609 C593 1.377 . S
C609 C607 1.389 1_455 S
C609 C610 1.524 . S
C610 C609 1.524 . S
C610 C611 1.397 1_455 S
C610 C615 1.363 . S
C611 H582 0.950 . S
C611 C610 1.397 1_655 S
C611 C612 1.334 1_655 S
C612 H583 0.950 1_455 S
C612 C611 1.334 1_455 S
C612 C613 1.287 . S
C613 C612 1.287 . S
C613 C614 1.524 . S
C613 H616 0.999 . S
C614 H584 0.950 . S
C614 C613 1.524 . S
C614 C615 1.415 . S
C615 H585 0.950 . S
C615 C610 1.363 . S
C615 C614 1.415 . S
H616 C613 0.999 . S
H617 C598 0.913 . S
H618 C636 0.951 . S
H619 C638 0.951 . S
H620 C640 0.950 . S
H621 C641 0.950 . S
H622 C643 0.950 . S
H623 C646 0.950 . S
H624 C647 0.950 . S
H625 C649 0.950 . S
H626 C650 0.950 . S
H627 C651 0.951 . S
H628 C653 0.951 . S
H629 C655 0.950 . S
H630 C656 0.950 . S
H631 C658 0.950 . S
H632 C661 0.950 . S
H633 C662 0.950 . S
H634 C664 0.950 . S
H635 C665 0.950 . S
C636 H618 0.951 . S
C636 C637 1.366 . S
C636 C638 1.388 . S
C637 C636 1.366 . S
C637 C641 1.385 1_655 S
C638 H619 0.951 . S
C638 C636 1.388 . S
C638 C639 1.366 . S
C639 C638 1.366 . S
C639 C640 1.414 1_655 S
C639 C642 1.499 . S
C640 H620 0.950 . S
C640 C639 1.414 1_455 S
C640 C641 1.374 . S
C641 H621 0.950 . S
C641 C637 1.385 1_455 S
C641 C640 1.374 . S
C642 C639 1.499 . S
C642 C643 1.373 1_655 S
C642 C644 1.389 . S
C643 H622 0.950 . S
C643 C642 1.373 1_455 S
C643 C659 1.377 . S
C644 C642 1.389 . S
C644 C645 1.524 . S
C644 C658 1.377 . S
C645 C644 1.524 . S
C645 C646 1.397 . S
C645 C650 1.363 . S
C646 H623 0.950 . S
C646 C645 1.397 . S
C646 C647 1.334 . S
C647 H624 0.950 . S
C647 C646 1.334 . S
C647 C648 1.287 . S
C648 C647 1.287 . S
C648 C649 1.524 . S
C648 H667 0.913 . S
C649 H625 0.950 . S
C649 C648 1.524 . S
C649 C650 1.415 . S
C650 H626 0.950 . S
C650 C645 1.363 . S
C650 C649 1.415 . S
C651 H627 0.951 . S
C651 C652 1.366 . S
C651 C653 1.388 . S
C652 C651 1.366 . S
C652 C656 1.385 1_455 S
C653 H628 0.951 . S
C653 C651 1.388 . S
C653 C654 1.366 . S
C654 C653 1.366 . S
C654 C655 1.414 1_455 S
C654 C657 1.499 . S
C655 H629 0.950 . S
C655 C654 1.414 1_655 S
C655 C656 1.374 . S
C656 H630 0.950 . S
C656 C652 1.385 1_655 S
C656 C655 1.374 . S
C657 C654 1.499 . S
C657 C658 1.373 1_455 S
C657 C659 1.389 . S
C658 H631 0.950 . S
C658 C644 1.377 . S
C658 C657 1.373 1_655 S
C659 C643 1.377 . S
C659 C657 1.389 . S
C659 C660 1.524 . S
C660 C659 1.524 . S
C660 C661 1.397 . S
C660 C665 1.363 . S
C661 H632 0.950 . S
C661 C660 1.397 . S
C661 C662 1.334 . S
C662 H633 0.950 . S
C662 C661 1.334 . S
C662 C663 1.287 . S
C663 C662 1.287 . S
C663 C664 1.524 . S
C663 H666 0.999 . S
C664 H634 0.950 . S
C664 C663 1.524 . S
C664 C665 1.415 . S
C665 H635 0.950 . S
C665 C660 1.363 . S
C665 C664 1.415 . S
H666 C663 0.999 . S
H667 C648 0.913 . S
H668 C686 0.951 . S
H669 C688 0.951 . S
H670 C690 0.950 . S
H671 C691 0.950 . S
H672 C693 0.950 . S
H673 C696 0.950 . S
H674 C697 0.950 . S
H675 C699 0.950 . S
H676 C700 0.950 . S
H677 C701 0.951 . S
H678 C703 0.951 . S
H679 C705 0.950 . S
H680 C706 0.950 . S
H681 C708 0.950 . S
H682 C711 0.950 . S
H683 C712 0.950 . S
H684 C714 0.950 . S
H685 C715 0.950 . S
C686 H668 0.951 . S
C686 C687 1.366 . S
C686 C688 1.388 . S
C687 C686 1.366 . S
C687 C691 1.385 . S
C688 H669 0.951 . S
C688 C686 1.388 . S
C688 C689 1.366 . S
C689 C688 1.366 . S
C689 C690 1.414 . S
C689 C692 1.499 . S
C690 H670 0.950 . S
C690 C689 1.414 . S
C690 C691 1.374 . S
C691 H671 0.950 . S
C691 C687 1.385 . S
C691 C690 1.374 . S
C692 C689 1.499 . S
C692 C693 1.373 1_545 S
C692 C694 1.389 . S
C693 H672 0.950 . S
C693 C692 1.373 1_565 S
C693 C709 1.377 . S
C694 C692 1.389 . S
C694 C695 1.524 . S
C694 C708 1.377 . S
C695 C694 1.524 . S
C695 C696 1.397 . S
C695 C700 1.363 . S
C696 H673 0.950 . S
C696 C695 1.397 . S
C696 C697 1.334 . S
C697 H674 0.950 . S
C697 C696 1.334 . S
C697 C698 1.287 . S
C698 C697 1.287 . S
C698 C699 1.524 . S
C698 H717 0.913 . S
C699 H675 0.950 . S
C699 C698 1.524 . S
C699 C700 1.415 . S
C700 H676 0.950 . S
C700 C695 1.363 . S
C700 C699 1.415 . S
C701 H677 0.951 . S
C701 C702 1.366 . S
C701 C703 1.388 . S
C702 C701 1.366 . S
C702 C706 1.385 . S
C703 H678 0.951 . S
C703 C701 1.388 . S
C703 C704 1.366 . S
C704 C703 1.366 . S
C704 C705 1.414 . S
C704 C707 1.499 . S
C705 H679 0.950 . S
C705 C704 1.414 . S
C705 C706 1.374 . S
C706 H680 0.950 . S
C706 C702 1.385 . S
C706 C705 1.374 . S
C707 C704 1.499 . S
C707 C708 1.373 1_565 S
C707 C709 1.389 . S
C708 H681 0.950 . S
C708 C694 1.377 . S
C708 C707 1.373 1_545 S
C709 C693 1.377 . S
C709 C707 1.389 . S
C709 C710 1.524 . S
C710 C709 1.524 . S
C710 C711 1.397 . S
C710 C715 1.363 . S
C711 H682 0.950 . S
C711 C710 1.397 . S
C711 C712 1.334 . S
C712 H683 0.950 . S
C712 C711 1.334 . S
C712 C713 1.287 . S
C713 C712 1.287 . S
C713 C714 1.524 . S
C713 H716 0.999 . S
C714 H684 0.950 . S
C714 C713 1.524 . S
C714 C715 1.415 . S
C715 H685 0.950 . S
C715 C710 1.363 . S
C715 C714 1.415 . S
H716 C713 0.999 . S
H717 C698 0.913 . S
H718 C736 0.951 . S
H719 C738 0.951 . S
H720 C740 0.950 . S
H721 C741 0.950 . S
H722 C743 0.950 . S
H723 C746 0.950 . S
H724 C747 0.950 . S
H725 C749 0.950 . S
H726 C750 0.950 . S
H727 C751 0.951 . S
H728 C753 0.951 . S
H729 C755 0.950 . S
H730 C756 0.950 . S
H731 C758 0.950 . S
H732 C761 0.950 . S
H733 C762 0.950 . S
H734 C764 0.950 . S
H735 C765 0.950 1_554 S
C736 H718 0.951 . S
C736 C737 1.366 . S
C736 C738 1.388 . S
C737 C736 1.366 . S
C737 C741 1.385 . S
C738 H719 0.951 . S
C738 C736 1.388 . S
C738 C739 1.366 . S
C739 C738 1.366 . S
C739 C740 1.414 . S
C739 C742 1.499 . S
C740 H720 0.950 . S
C740 C739 1.414 . S
C740 C741 1.374 . S
C741 H721 0.950 . S
C741 C737 1.385 . S
C741 C740 1.374 . S
C742 C739 1.499 . S
C742 C743 1.373 . S
C742 C744 1.389 . S
C743 H722 0.950 . S
C743 C742 1.373 . S
C743 C759 1.377 . S
C744 C742 1.389 . S
C744 C745 1.524 . S
C744 C758 1.377 . S
C745 C744 1.524 . S
C745 C746 1.397 . S
C745 C750 1.363 . S
C746 H723 0.950 . S
C746 C745 1.397 . S
C746 C747 1.334 . S
C747 H724 0.950 . S
C747 C746 1.334 . S
C747 C748 1.287 . S
C748 C747 1.287 . S
C748 C749 1.524 . S
C748 H767 0.913 . S
C749 H725 0.950 . S
C749 C748 1.524 . S
C749 C750 1.415 . S
C750 H726 0.950 . S
C750 C745 1.363 . S
C750 C749 1.415 . S
C751 H727 0.951 . S
C751 C752 1.366 . S
C751 C753 1.388 . S
C752 C751 1.366 . S
C752 C756 1.385 . S
C753 H728 0.951 . S
C753 C751 1.388 . S
C753 C754 1.366 . S
C754 C753 1.366 . S
C754 C755 1.414 . S
C754 C757 1.499 . S
C755 H729 0.950 . S
C755 C754 1.414 . S
C755 C756 1.374 . S
C756 H730 0.950 . S
C756 C752 1.385 . S
C756 C755 1.374 . S
C757 C754 1.499 . S
C757 C758 1.373 . S
C757 C759 1.389 . S
C758 H731 0.950 . S
C758 C744 1.377 . S
C758 C757 1.373 . S
C759 C743 1.377 . S
C759 C757 1.389 . S
C759 C760 1.524 1_554 S
C760 C759 1.524 1_556 S
C760 C761 1.397 . S
C760 C765 1.363 . S
C761 H732 0.950 . S
C761 C760 1.397 . S
C761 C762 1.334 . S
C762 H733 0.950 . S
C762 C761 1.334 . S
C762 C763 1.287 . S
C763 C762 1.287 . S
C763 C764 1.524 . S
C763 H766 0.999 . S
C764 H734 0.950 . S
C764 C763 1.524 . S
C764 C765 1.415 . S
C765 H735 0.950 1_556 S
C765 C760 1.363 . S
C765 C764 1.415 . S
H766 C763 0.999 . S
H767 C748 0.913 . S
H768 C786 0.951 . S
H769 C788 0.951 . S
H770 C790 0.950 . S
H771 C791 0.950 . S
H772 C793 0.950 . S
H773 C796 0.950 . S
H774 C797 0.950 . S
H775 C799 0.950 . S
H776 C800 0.950 . S
H777 C801 0.951 . S
H778 C803 0.951 . S
H779 C805 0.950 . S
H780 C806 0.950 . S
H781 C808 0.950 . S
H782 C811 0.950 . S
H783 C812 0.950 . S
H784 C814 0.950 . S
H785 C815 0.950 . S
C786 H768 0.951 . S
C786 C787 1.366 . S
C786 C788 1.388 . S
C787 C786 1.366 . S
C787 C791 1.385 . S
C788 H769 0.951 . S
C788 C786 1.388 . S
C788 C789 1.366 . S
C789 C788 1.366 . S
C789 C790 1.414 . S
C789 C792 1.499 . S
C790 H770 0.950 . S
C790 C789 1.414 . S
C790 C791 1.374 . S
C791 H771 0.950 . S
C791 C787 1.385 . S
C791 C790 1.374 . S
C792 C789 1.499 . S
C792 C793 1.373 . S
C792 C794 1.389 . S
C793 H772 0.950 . S
C793 C792 1.373 . S
C793 C809 1.377 . S
C794 C792 1.389 . S
C794 C795 1.524 . S
C794 C808 1.377 . S
C795 C794 1.524 . S
C795 C796 1.397 . S
C795 C800 1.363 . S
C796 H773 0.950 . S
C796 C795 1.397 . S
C796 C797 1.334 . S
C797 H774 0.950 . S
C797 C796 1.334 . S
C797 C798 1.287 . S
C798 C797 1.287 . S
C798 C799 1.524 . S
C798 H817 0.913 . S
C799 H775 0.950 . S
C799 C798 1.524 . S
C799 C800 1.415 . S
C800 H776 0.950 . S
C800 C795 1.363 . S
C800 C799 1.415 . S
C801 H777 0.951 . S
C801 C802 1.366 . S
C801 C803 1.388 . S
C802 C801 1.366 . S
C802 C806 1.385 . S
C803 H778 0.951 . S
C803 C801 1.388 . S
C803 C804 1.366 . S
C804 C803 1.366 . S
C804 C805 1.414 . S
C804 C807 1.499 . S
C805 H779 0.950 . S
C805 C804 1.414 . S
C805 C806 1.374 . S
C806 H780 0.950 . S
C806 C802 1.385 . S
C806 C805 1.374 . S
C807 C804 1.499 . S
C807 C808 1.373 . S
C807 C809 1.389 . S
C808 H781 0.950 . S
C808 C794 1.377 . S
C808 C807 1.373 . S
C809 C793 1.377 . S
C809 C807 1.389 . S
C809 C810 1.524 . S
C810 C809 1.524 . S
C810 C811 1.397 . S
C810 C815 1.363 . S
C811 H782 0.950 . S
C811 C810 1.397 . S
C811 C812 1.334 . S
C812 H783 0.950 . S
C812 C811 1.334 . S
C812 C813 1.287 . S
C813 C812 1.287 . S
C813 C814 1.524 . S
C813 H816 0.999 . S
C814 H784 0.950 . S
C814 C813 1.524 . S
C814 C815 1.415 . S
C815 H785 0.950 . S
C815 C810 1.363 . S
C815 C814 1.415 . S
H816 C813 0.999 . S
H817 C798 0.913 . S
H818 C836 0.951 . S
H819 C838 0.951 . S
H820 C840 0.950 . S
H821 C841 0.950 . S
H822 C843 0.950 . S
H823 C846 0.950 . S
H824 C847 0.950 . S
H825 C849 0.950 . S
H826 C850 0.950 . S
H827 C851 0.951 . S
H828 C853 0.951 . S
H829 C855 0.950 . S
H830 C856 0.950 . S
H831 C858 0.950 . S
H832 C861 0.950 . S
H833 C862 0.950 . S
H834 C864 0.950 . S
H835 C865 0.950 . S
C836 H818 0.951 . S
C836 C837 1.366 . S
C836 C838 1.388 . S
C837 C836 1.366 . S
C837 C841 1.385 . S
C838 H819 0.951 . S
C838 C836 1.388 . S
C838 C839 1.366 . S
C839 C838 1.366 . S
C839 C840 1.414 . S
C839 C842 1.499 . S
C840 H820 0.950 . S
C840 C839 1.414 . S
C840 C841 1.374 . S
C841 H821 0.950 . S
C841 C837 1.385 . S
C841 C840 1.374 . S
C842 C839 1.499 . S
C842 C843 1.373 . S
C842 C844 1.389 . S
C843 H822 0.950 . S
C843 C842 1.373 . S
C843 C859 1.377 . S
C844 C842 1.389 . S
C844 C845 1.524 . S
C844 C858 1.377 . S
C845 C844 1.524 . S
C845 C846 1.397 . S
C845 C850 1.363 . S
C846 H823 0.950 . S
C846 C845 1.397 . S
C846 C847 1.334 . S
C847 H824 0.950 . S
C847 C846 1.334 . S
C847 C848 1.287 . S
C848 C847 1.287 . S
C848 C849 1.524 . S
C848 H867 0.913 . S
C849 H825 0.950 . S
C849 C848 1.524 . S
C849 C850 1.415 . S
C850 H826 0.950 . S
C850 C845 1.363 . S
C850 C849 1.415 . S
C851 H827 0.951 . S
C851 C852 1.366 . S
C851 C853 1.388 . S
C852 C851 1.366 . S
C852 C856 1.385 . S
C853 H828 0.951 . S
C853 C851 1.388 . S
C853 C854 1.366 . S
C854 C853 1.366 . S
C854 C855 1.414 . S
C854 C857 1.499 . S
C855 H829 0.950 . S
C855 C854 1.414 . S
C855 C856 1.374 . S
C856 H830 0.950 . S
C856 C852 1.385 . S
C856 C855 1.374 . S
C857 C854 1.499 . S
C857 C858 1.373 . S
C857 C859 1.389 . S
C858 H831 0.950 . S
C858 C844 1.377 . S
C858 C857 1.373 . S
C859 C843 1.377 . S
C859 C857 1.389 . S
C859 C860 1.524 . S
C860 C859 1.524 . S
C860 C861 1.397 . S
C860 C865 1.363 . S
C861 H832 0.950 . S
C861 C860 1.397 . S
C861 C862 1.334 . S
C862 H833 0.950 . S
C862 C861 1.334 . S
C862 C863 1.287 . S
C863 C862 1.287 . S
C863 C864 1.524 . S
C863 H866 0.999 . S
C864 H834 0.950 . S
C864 C863 1.524 . S
C864 C865 1.415 . S
C865 H835 0.950 . S
C865 C860 1.363 . S
C865 C864 1.415 . S
H866 C863 0.999 . S
H867 C848 0.913 . S
H868 C886 0.951 . S
H869 C888 0.951 . S
H870 C890 0.950 . S
H871 C891 0.950 . S
H872 C893 0.950 . S
H873 C896 0.936 1_556 S
H874 C897 0.950 . S
H875 C899 0.950 . S
H876 C900 0.950 . S
H877 C901 0.951 . S
H878 C903 0.951 . S
H879 C905 0.950 . S
H880 C906 0.950 . S
H881 C908 0.950 . S
H882 C911 0.936 1_554 S
H883 C912 0.950 . S
H884 C914 0.950 . S
H885 C915 0.950 . S
C886 H868 0.951 . S
C886 C887 1.366 . S
C886 C888 1.388 . S
C887 C886 1.366 . S
C887 C891 1.385 1_554 S
C888 H869 0.951 . S
C888 C886 1.388 . S
C888 C889 1.366 . S
C889 C888 1.366 . S
C889 C890 1.414 1_554 S
C889 C892 1.499 . S
C890 H870 0.950 . S
C890 C889 1.414 1_556 S
C890 C891 1.374 . S
C891 H871 0.950 . S
C891 C887 1.385 1_556 S
C891 C890 1.374 . S
C892 C889 1.499 . S
C892 C893 1.373 1_554 S
C892 C894 1.389 . S
C893 H872 0.950 . S
C893 C892 1.373 1_556 S
C893 C909 1.377 . S
C894 C892 1.389 . S
C894 C895 1.524 . S
C894 C908 1.377 . S
C895 C894 1.524 . S
C895 C896 1.397 . S
C895 C900 1.363 . S
C896 H873 0.936 1_554 S
C896 C895 1.397 . S
C896 C897 1.334 . S
C897 H874 0.950 . S
C897 C896 1.334 . S
C897 C898 1.287 . S
C898 C897 1.287 . S
C898 C899 1.524 . S
C898 H917 0.913 . S
C899 H875 0.950 . S
C899 C898 1.524 . S
C899 C900 1.415 . S
C900 H876 0.950 . S
C900 C895 1.363 . S
C900 C899 1.415 . S
C901 H877 0.951 . S
C901 C902 1.366 . S
C901 C903 1.388 . S
C902 C901 1.366 . S
C902 C906 1.385 1_556 S
C903 H878 0.951 . S
C903 C901 1.388 . S
C903 C904 1.366 . S
C904 C903 1.366 . S
C904 C905 1.414 1_556 S
C904 C907 1.499 . S
C905 H879 0.950 . S
C905 C904 1.414 1_554 S
C905 C906 1.374 . S
C906 H880 0.950 . S
C906 C902 1.385 1_554 S
C906 C905 1.374 . S
C907 C904 1.499 . S
C907 C908 1.373 1_556 S
C907 C909 1.389 . S
C908 H881 0.950 . S
C908 C894 1.377 . S
C908 C907 1.373 1_554 S
C909 C893 1.377 . S
C909 C907 1.389 . S
C909 C910 1.524 . S
C910 C909 1.524 . S
C910 C911 1.397 . S
C910 C915 1.363 . S
C911 H882 0.936 1_556 S
C911 C910 1.397 . S
C911 C912 1.334 . S
C912 H883 0.950 . S
C912 C911 1.334 . S
C912 C913 1.287 . S
C913 C912 1.287 . S
C913 C914 1.524 . S
C913 H916 0.999 . S
C914 H884 0.950 . S
C914 C913 1.524 . S
C914 C915 1.415 . S
C915 H885 0.950 . S
C915 C910 1.363 . S
C915 C914 1.415 . S
H916 C913 0.999 . S
H917 C898 0.913 . S
H918 C936 0.951 . S
H919 C938 0.951 . S
H920 C940 0.950 . S
H921 C941 0.950 . S
H922 C943 0.950 . S
H923 C946 0.950 . S
H924 C947 0.950 . S
H925 C949 0.950 . S
H926 C950 0.950 . S
H927 C951 0.951 . S
H928 C953 0.951 . S
H929 C955 0.950 . S
H930 C956 0.950 . S
H931 C958 0.950 . S
H932 C961 0.950 . S
H933 C962 0.950 . S
H934 C964 0.950 . S
H935 C965 0.950 . S
C936 H918 0.951 . S
C936 C937 1.366 . S
C936 C938 1.388 . S
C937 C936 1.366 . S
C937 C941 1.385 . S
C938 H919 0.951 . S
C938 C936 1.388 . S
C938 C939 1.366 . S
C939 C938 1.366 . S
C939 C940 1.414 . S
C939 C942 1.499 . S
C940 H920 0.950 . S
C940 C939 1.414 . S
C940 C941 1.374 . S
C941 H921 0.950 . S
C941 C937 1.385 . S
C941 C940 1.374 . S
C942 C939 1.499 . S
C942 C943 1.373 . S
C942 C944 1.389 . S
C943 H922 0.950 . S
C943 C942 1.373 . S
C943 C959 1.377 . S
C944 C942 1.389 . S
C944 C945 1.524 . S
C944 C958 1.377 . S
C945 C944 1.524 . S
C945 C946 1.397 . S
C945 C950 1.363 . S
C946 H923 0.950 . S
C946 C945 1.397 . S
C946 C947 1.334 . S
C947 H924 0.950 . S
C947 C946 1.334 . S
C947 C948 1.287 . S
C948 C947 1.287 . S
C948 C949 1.524 . S
C948 H967 0.913 . S
C949 H925 0.950 . S
C949 C948 1.524 . S
C949 C950 1.415 . S
C950 H926 0.950 . S
C950 C945 1.363 . S
C950 C949 1.415 . S
C951 H927 0.951 . S
C951 C952 1.366 . S
C951 C953 1.388 . S
C952 C951 1.366 . S
C952 C956 1.385 . S
C953 H928 0.951 . S
C953 C951 1.388 . S
C953 C954 1.366 . S
C954 C953 1.366 . S
C954 C955 1.414 . S
C954 C957 1.499 . S
C955 H929 0.950 . S
C955 C954 1.414 . S
C955 C956 1.374 . S
C956 H930 0.950 . S
C956 C952 1.385 . S
C956 C955 1.374 . S
C957 C954 1.499 . S
C957 C958 1.373 . S
C957 C959 1.389 . S
C958 H931 0.950 . S
C958 C944 1.377 . S
C958 C957 1.373 . S
C959 C943 1.377 . S
C959 C957 1.389 . S
C959 C960 1.524 . S
C960 C959 1.524 . S
C960 C961 1.397 . S
C960 C965 1.363 . S
C961 H932 0.950 . S
C961 C960 1.397 . S
C961 C962 1.334 . S
C962 H933 0.950 . S
C962 C961 1.334 . S
C962 C963 1.287 . S
C963 C962 1.287 . S
C963 C964 1.524 . S
C963 H966 0.999 . S
C964 H934 0.950 . S
C964 C963 1.524 . S
C964 C965 1.415 . S
C965 H935 0.950 . S
C965 C960 1.363 . S
C965 C964 1.415 . S
H966 C963 0.999 . S
H967 C948 0.913 . S
H968 C986 0.951 . S
H969 C988 0.951 . S
H970 C990 0.950 . S
H971 C991 0.950 . S
H972 C993 0.950 . S
H973 C996 0.950 . S
H974 C997 0.950 . S
H975 C999 0.950 . S
H976 C1000 0.950 . S
H977 C1001 0.951 . S
H978 C1003 0.951 . S
H979 C1005 0.950 . S
H980 C1006 0.950 . S
H981 C1008 0.950 . S
H982 C1011 0.950 . S
H983 C1012 0.950 . S
H984 C1014 0.950 . S
H985 C1015 0.950 . S
C986 H968 0.951 . S
C986 C987 1.366 . S
C986 C988 1.388 . S
C987 C986 1.366 . S
C987 C991 1.385 . S
C988 H969 0.951 . S
C988 C986 1.388 . S
C988 C989 1.366 . S
C989 C988 1.366 . S
C989 C990 1.414 . S
C989 C992 1.499 . S
C990 H970 0.950 . S
C990 C989 1.414 . S
C990 C991 1.374 . S
C991 H971 0.950 . S
C991 C987 1.385 . S
C991 C990 1.374 . S
C992 C989 1.499 . S
C992 C993 1.373 . S
C992 C994 1.389 . S
C993 H972 0.950 . S
C993 C992 1.373 . S
C993 C1009 1.377 . S
C994 C992 1.389 . S
C994 C995 1.524 . S
C994 C1008 1.377 . S
C995 C994 1.524 . S
C995 C996 1.397 . S
C995 C1000 1.363 . S
C996 H973 0.950 . S
C996 C995 1.397 . S
C996 C997 1.334 . S
C997 H974 0.950 . S
C997 C996 1.334 . S
C997 C998 1.287 . S
C998 C997 1.287 . S
C998 C999 1.524 . S
C998 H1017 0.913 . S
C999 H975 0.950 . S
C999 C998 1.524 . S
C999 C1000 1.415 . S
C1000 H976 0.950 . S
C1000 C995 1.363 . S
C1000 C999 1.415 . S
C1001 H977 0.951 . S
C1001 C1002 1.366 . S
C1001 C1003 1.388 . S
C1002 C1001 1.366 . S
C1002 C1006 1.385 . S
C1003 H978 0.951 . S
C1003 C1001 1.388 . S
C1003 C1004 1.366 . S
C1004 C1003 1.366 . S
C1004 C1005 1.414 . S
C1004 C1007 1.499 . S
C1005 H979 0.950 . S
C1005 C1004 1.414 . S
C1005 C1006 1.374 . S
C1006 H980 0.950 . S
C1006 C1002 1.385 . S
C1006 C1005 1.374 . S
C1007 C1004 1.499 . S
C1007 C1008 1.373 . S
C1007 C1009 1.389 . S
C1008 H981 0.950 . S
C1008 C994 1.377 . S
C1008 C1007 1.373 . S
C1009 C993 1.377 . S
C1009 C1007 1.389 . S
C1009 C1010 1.524 . S
C1010 C1009 1.524 . S
C1010 C1011 1.397 . S
C1010 C1015 1.363 . S
C1011 H982 0.950 . S
C1011 C1010 1.397 . S
C1011 C1012 1.334 . S
C1012 H983 0.950 . S
C1012 C1011 1.334 . S
C1012 C1013 1.287 . S
C1013 C1012 1.287 . S
C1013 C1014 1.524 . S
C1013 H1016 0.999 . S
C1014 H984 0.950 . S
C1014 C1013 1.524 . S
C1014 C1015 1.415 . S
C1015 H985 0.950 . S
C1015 C1010 1.363 . S
C1015 C1014 1.415 . S
H1016 C1013 0.999 . S
H1017 C998 0.913 . S
H1018 C1036 0.951 . S
H1019 C1038 0.951 . S
H1020 C1040 0.950 . S
H1021 C1041 0.950 1_556 S
H1022 C1043 0.950 . S
H1023 C1046 0.950 . S
H1024 C1047 0.950 . S
H1025 C1049 0.950 . S
H1026 C1050 0.950 . S
H1027 C1051 0.951 . S
H1028 C1053 0.951 . S
H1029 C1055 0.950 . S
H1030 C1056 0.950 1_554 S
H1031 C1058 0.950 . S
H1032 C1061 0.950 . S
H1033 C1062 0.950 . S
H1034 C1064 0.950 . S
H1035 C1065 0.950 . S
C1036 H1018 0.951 . S
C1036 C1037 1.366 . S
C1036 C1038 1.388 . S
C1037 C1036 1.366 . S
C1037 C1041 1.385 . S
C1038 H1019 0.951 . S
C1038 C1036 1.388 . S
C1038 C1039 1.366 . S
C1039 C1038 1.366 . S
C1039 C1040 1.414 1_554 S
C1039 C1042 1.499 . S
C1040 H1020 0.950 . S
C1040 C1039 1.414 1_556 S
C1040 C1041 1.374 1_556 S
C1041 H1021 0.950 1_554 S
C1041 C1037 1.385 . S
C1041 C1040 1.374 1_554 S
C1042 C1039 1.499 . S
C1042 C1043 1.373 . S
C1042 C1044 1.389 . S
C1043 H1022 0.950 . S
C1043 C1042 1.373 . S
C1043 C1059 1.377 1_554 S
C1044 C1042 1.389 . S
C1044 C1045 1.524 . S
C1044 C1058 1.377 1_554 S
C1045 C1044 1.524 . S
C1045 C1046 1.397 1_554 S
C1045 C1050 1.363 . S
C1046 H1023 0.950 . S
C1046 C1045 1.397 1_556 S
C1046 C1047 1.334 . S
C1047 H1024 0.950 . S
C1047 C1046 1.334 . S
C1047 C1048 1.287 . S
C1048 C1047 1.287 . S
C1048 C1049 1.524 1_556 S
C1048 H1067 0.913 . S
C1049 H1025 0.950 . S
C1049 C1048 1.524 1_554 S
C1049 C1050 1.415 . S
C1050 H1026 0.950 . S
C1050 C1045 1.363 . S
C1050 C1049 1.415 . S
C1051 H1027 0.951 . S
C1051 C1052 1.366 . S
C1051 C1053 1.388 . S
C1052 C1051 1.366 . S
C1052 C1056 1.385 . S
C1053 H1028 0.951 . S
C1053 C1051 1.388 . S
C1053 C1054 1.366 . S
C1054 C1053 1.366 . S
C1054 C1055 1.414 1_556 S
C1054 C1057 1.499 . S
C1055 H1029 0.950 . S
C1055 C1054 1.414 1_554 S
C1055 C1056 1.374 1_554 S
C1056 H1030 0.950 1_556 S
C1056 C1052 1.385 . S
C1056 C1055 1.374 1_556 S
C1057 C1054 1.499 . S
C1057 C1058 1.373 . S
C1057 C1059 1.389 . S
C1058 H1031 0.950 . S
C1058 C1044 1.377 1_556 S
C1058 C1057 1.373 . S
C1059 C1043 1.377 1_556 S
C1059 C1057 1.389 . S
C1059 C1060 1.524 . S
C1060 C1059 1.524 . S
C1060 C1061 1.397 1_556 S
C1060 C1065 1.363 . S
C1061 H1032 0.950 . S
C1061 C1060 1.397 1_554 S
C1061 C1062 1.334 . S
C1062 H1033 0.950 . S
C1062 C1061 1.334 . S
C1062 C1063 1.287 . S
C1063 C1062 1.287 . S
C1063 C1064 1.524 1_554 S
C1063 H1066 0.999 . S
C1064 H1034 0.950 . S
C1064 C1063 1.524 1_556 S
C1064 C1065 1.415 . S
C1065 H1035 0.950 . S
C1065 C1060 1.363 . S
C1065 C1064 1.415 . S
H1066 C1063 0.999 . S
H1067 C1048 0.913 . S
H1068 C1086 0.951 . S
H1069 C1088 0.951 . S
H1070 C1090 0.950 . S
H1071 C1091 0.950 . S
H1072 C1093 0.950 . S
H1073 C1096 0.950 . S
H1074 C1097 0.950 . S
H1075 C1099 0.950 . S
H1076 C1100 0.950 . S
H1077 C1101 0.951 . S
H1078 C1103 0.951 . S
H1079 C1105 0.950 . S
H1080 C1106 0.950 . S
H1081 C1108 0.950 . S
H1082 C1111 0.950 . S
H1083 C1112 0.950 . S
H1084 C1114 0.950 . S
H1085 C1115 0.950 . S
C1086 H1068 0.951 . S
C1086 C1087 1.366 1_565 S
C1086 C1088 1.388 . S
C1087 C1086 1.366 1_545 S
C1087 C1091 1.385 . S
C1088 H1069 0.951 . S
C1088 C1086 1.388 . S
C1088 C1089 1.366 1_565 S
C1089 C1088 1.366 1_545 S
C1089 C1090 1.414 . S
C1089 C1092 1.499 . S
C1090 H1070 0.950 . S
C1090 C1089 1.414 . S
C1090 C1091 1.374 . S
C1091 H1071 0.950 . S
C1091 C1087 1.385 . S
C1091 C1090 1.374 . S
C1092 C1089 1.499 . S
C1092 C1093 1.373 . S
C1092 C1094 1.391 1_545 S
C1093 H1072 0.950 . S
C1093 C1092 1.373 . S
C1093 C1109 1.378 . S
C1094 C1092 1.391 1_565 S
C1094 C1095 1.521 1_565 S
C1094 C1108 1.378 . S
C1095 C1094 1.521 1_545 S
C1095 C1096 1.397 . S
C1095 C1100 1.363 1_545 S
C1096 H1073 0.950 . S
C1096 C1095 1.397 . S
C1096 C1097 1.334 . S
C1097 H1074 0.950 . S
C1097 C1096 1.334 . S
C1097 C1098 1.287 . S
C1098 C1097 1.287 . S
C1098 C1099 1.524 1_545 S
C1098 H1117 0.913 . S
C1099 H1075 0.950 . S
C1099 C1098 1.524 1_565 S
C1099 C1100 1.415 . S
C1100 H1076 0.950 . S
C1100 C1095 1.363 1_565 S
C1100 C1099 1.415 . S
C1101 H1077 0.951 . S
C1101 C1102 1.366 1_545 S
C1101 C1103 1.388 . S
C1102 C1101 1.366 1_565 S
C1102 C1106 1.385 . S
C1103 H1078 0.951 . S
C1103 C1101 1.388 . S
C1103 C1104 1.366 1_545 S
C1104 C1103 1.366 1_565 S
C1104 C1105 1.414 . S
C1104 C1107 1.499 . S
C1105 H1079 0.950 . S
C1105 C1104 1.414 . S
C1105 C1106 1.374 . S
C1106 H1080 0.950 . S
C1106 C1102 1.385 . S
C1106 C1105 1.374 . S
C1107 C1104 1.499 . S
C1107 C1108 1.373 . S
C1107 C1109 1.391 1_565 S
C1108 H1081 0.950 . S
C1108 C1094 1.378 . S
C1108 C1107 1.373 . S
C1109 C1093 1.378 . S
C1109 C1107 1.391 1_545 S
C1109 C1110 1.521 1_545 S
C1110 C1109 1.521 1_565 S
C1110 C1111 1.397 . S
C1110 C1115 1.363 1_565 S
C1111 H1082 0.950 . S
C1111 C1110 1.397 . S
C1111 C1112 1.334 . S
C1112 H1083 0.950 . S
C1112 C1111 1.334 . S
C1112 C1113 1.287 . S
C1113 C1112 1.287 . S
C1113 C1114 1.524 1_565 S
C1113 H1116 0.999 . S
C1114 H1084 0.950 . S
C1114 C1113 1.524 1_545 S
C1114 C1115 1.415 . S
C1115 H1085 0.950 . S
C1115 C1110 1.363 1_545 S
C1115 C1114 1.415 . S
H1116 C1113 0.999 . S
H1117 C1098 0.913 . S
H1118 C1136 0.951 . S
H1119 C1138 0.951 . S
H1120 C1140 0.950 . S
H1121 C1141 0.950 . S
H1122 C1143 0.950 . S
H1123 C1146 0.950 . S
H1124 C1147 0.950 . S
H1125 C1149 0.950 . S
H1126 C1150 0.950 . S
H1127 C1151 0.951 . S
H1128 C1153 0.951 . S
H1129 C1155 0.950 . S
H1130 C1156 0.950 . S
H1131 C1158 0.950 . S
H1132 C1161 0.950 . S
H1133 C1162 0.950 . S
H1134 C1164 0.950 . S
H1135 C1165 0.950 . S
C1136 H1118 0.951 . S
C1136 C1137 1.366 . S
C1136 C1138 1.388 . S
C1137 C1136 1.366 . S
C1137 C1141 1.385 . S
C1138 H1119 0.951 . S
C1138 C1136 1.388 . S
C1138 C1139 1.366 . S
C1139 C1138 1.366 . S
C1139 C1140 1.414 . S
C1139 C1142 1.499 . S
C1140 H1120 0.950 . S
C1140 C1139 1.414 . S
C1140 C1141 1.374 . S
C1141 H1121 0.950 . S
C1141 C1137 1.385 . S
C1141 C1140 1.374 . S
C1142 C1139 1.499 . S
C1142 C1143 1.373 . S
C1142 C1144 1.389 . S
C1143 H1122 0.950 . S
C1143 C1142 1.373 . S
C1143 C1159 1.377 . S
C1144 C1142 1.389 . S
C1144 C1145 1.524 . S
C1144 C1158 1.377 . S
C1145 C1144 1.524 . S
C1145 C1146 1.397 . S
C1145 C1150 1.363 . S
C1146 H1123 0.950 . S
C1146 C1145 1.397 . S
C1146 C1147 1.334 . S
C1147 H1124 0.950 . S
C1147 C1146 1.334 . S
C1147 C1148 1.287 . S
C1148 C1147 1.287 . S
C1148 C1149 1.524 . S
C1148 H1167 0.913 . S
C1149 H1125 0.950 . S
C1149 C1148 1.524 . S
C1149 C1150 1.415 . S
C1150 H1126 0.950 . S
C1150 C1145 1.363 . S
C1150 C1149 1.415 . S
C1151 H1127 0.951 . S
C1151 C1152 1.366 . S
C1151 C1153 1.388 . S
C1152 C1151 1.366 . S
C1152 C1156 1.385 . S
C1153 H1128 0.951 . S
C1153 C1151 1.388 . S
C1153 C1154 1.366 . S
C1154 C1153 1.366 . S
C1154 C1155 1.414 . S
C1154 C1157 1.499 . S
C1155 H1129 0.950 . S
C1155 C1154 1.414 . S
C1155 C1156 1.374 . S
C1156 H1130 0.950 . S
C1156 C1152 1.385 . S
C1156 C1155 1.374 . S
C1157 C1154 1.499 . S
C1157 C1158 1.373 . S
C1157 C1159 1.389 . S
C1158 H1131 0.950 . S
C1158 C1144 1.377 . S
C1158 C1157 1.373 . S
C1159 C1143 1.377 . S
C1159 C1157 1.389 . S
C1159 C1160 1.524 . S
C1160 C1159 1.524 . S
C1160 C1161 1.397 . S
C1160 C1165 1.363 . S
C1161 H1132 0.950 . S
C1161 C1160 1.397 . S
C1161 C1162 1.334 . S
C1162 H1133 0.950 . S
C1162 C1161 1.334 . S
C1162 C1163 1.287 . S
C1163 C1162 1.287 . S
C1163 C1164 1.524 . S
C1163 H1166 0.999 . S
C1164 H1134 0.950 . S
C1164 C1163 1.524 . S
C1164 C1165 1.415 . S
C1165 H1135 0.950 . S
C1165 C1160 1.363 . S
C1165 C1164 1.415 . S
H1166 C1163 0.999 . S
H1167 C1148 0.913 . S
H1168 C1186 0.951 . S
H1169 C1188 0.951 . S
H1170 C1190 0.950 1_655 S
H1171 C1191 0.950 . S
H1172 C1193 0.950 . S
H1173 C1196 0.950 . S
H1174 C1197 0.950 . S
H1175 C1199 0.950 . S
H1176 C1200 0.950 . S
H1177 C1201 0.951 . S
H1178 C1203 0.951 . S
H1179 C1205 0.950 1_455 S
H1180 C1206 0.950 . S
H1181 C1208 0.950 . S
H1182 C1211 0.950 . S
H1183 C1212 0.950 . S
H1184 C1214 0.950 . S
H1185 C1215 0.950 . S
C1186 H1168 0.951 . S
C1186 C1187 1.366 . S
C1186 C1188 1.388 . S
C1187 C1186 1.366 . S
C1187 C1191 1.385 . S
C1188 H1169 0.951 . S
C1188 C1186 1.388 . S
C1188 C1189 1.366 . S
C1189 C1188 1.366 . S
C1189 C1190 1.414 . S
C1189 C1192 1.499 . S
C1190 H1170 0.950 1_455 S
C1190 C1189 1.414 . S
C1190 C1191 1.374 . S
C1191 H1171 0.950 . S
C1191 C1187 1.385 . S
C1191 C1190 1.374 . S
C1192 C1189 1.499 . S
C1192 C1193 1.373 . S
C1192 C1194 1.389 1_455 S
C1193 H1172 0.950 . S
C1193 C1192 1.373 . S
C1193 C1209 1.377 . S
C1194 C1192 1.389 1_655 S
C1194 C1195 1.524 . S
C1194 C1208 1.377 . S
C1195 C1194 1.524 . S
C1195 C1196 1.397 . S
C1195 C1200 1.363 . S
C1196 H1173 0.950 . S
C1196 C1195 1.397 . S
C1196 C1197 1.334 . S
C1197 H1174 0.950 . S
C1197 C1196 1.334 . S
C1197 C1198 1.287 . S
C1198 C1197 1.287 . S
C1198 C1199 1.524 . S
C1198 H1217 0.913 . S
C1199 H1175 0.950 . S
C1199 C1198 1.524 . S
C1199 C1200 1.415 . S
C1200 H1176 0.950 . S
C1200 C1195 1.363 . S
C1200 C1199 1.415 . S
C1201 H1177 0.951 . S
C1201 C1202 1.366 . S
C1201 C1203 1.388 . S
C1202 C1201 1.366 . S
C1202 C1206 1.385 . S
C1203 H1178 0.951 . S
C1203 C1201 1.388 . S
C1203 C1204 1.366 . S
C1204 C1203 1.366 . S
C1204 C1205 1.414 . S
C1204 C1207 1.499 . S
C1205 H1179 0.950 1_655 S
C1205 C1204 1.414 . S
C1205 C1206 1.374 . S
C1206 H1180 0.950 . S
C1206 C1202 1.385 . S
C1206 C1205 1.374 . S
C1207 C1204 1.499 . S
C1207 C1208 1.373 . S
C1207 C1209 1.389 1_655 S
C1208 H1181 0.950 . S
C1208 C1194 1.377 . S
C1208 C1207 1.373 . S
C1209 C1193 1.377 . S
C1209 C1207 1.389 1_455 S
C1209 C1210 1.524 . S
C1210 C1209 1.524 . S
C1210 C1211 1.397 . S
C1210 C1215 1.363 . S
C1211 H1182 0.950 . S
C1211 C1210 1.397 . S
C1211 C1212 1.334 . S
C1212 H1183 0.950 . S
C1212 C1211 1.334 . S
C1212 C1213 1.287 . S
C1213 C1212 1.287 . S
C1213 C1214 1.524 . S
C1213 H1216 0.999 . S
C1214 H1184 0.950 . S
C1214 C1213 1.524 . S
C1214 C1215 1.415 . S
C1215 H1185 0.950 . S
C1215 C1210 1.363 . S
C1215 C1214 1.415 . S
H1216 C1213 0.999 . S
H1217 C1198 0.913 . S
H1218 C1236 0.951 . S
H1219 C1238 0.951 . S
H1220 C1240 0.950 . S
H1221 C1241 0.950 . S
H1222 C1243 0.950 . S
H1223 C1246 0.950 . S
H1224 C1247 0.950 . S
H1225 C1249 0.950 . S
H1226 C1250 0.950 . S
H1227 C1251 0.951 . S
H1228 C1253 0.951 . S
H1229 C1255 0.950 . S
H1230 C1256 0.950 . S
H1231 C1258 0.950 . S
H1232 C1261 0.950 . S
H1233 C1262 0.950 . S
H1234 C1264 0.950 . S
H1235 C1265 0.950 . S
C1236 H1218 0.951 . S
C1236 C1237 1.366 . S
C1236 C1238 1.388 . S
C1237 C1236 1.366 . S
C1237 C1241 1.385 1_565 S
C1238 H1219 0.951 . S
C1238 C1236 1.388 . S
C1238 C1239 1.366 . S
C1239 C1238 1.366 . S
C1239 C1240 1.414 1_565 S
C1239 C1242 1.499 . S
C1240 H1220 0.950 . S
C1240 C1239 1.414 1_545 S
C1240 C1241 1.374 . S
C1241 H1221 0.950 . S
C1241 C1237 1.385 1_545 S
C1241 C1240 1.374 . S
C1242 C1239 1.499 . S
C1242 C1243 1.373 1_565 S
C1242 C1244 1.389 . S
C1243 H1222 0.950 . S
C1243 C1242 1.373 1_545 S
C1243 C1259 1.377 . S
C1244 C1242 1.389 . S
C1244 C1245 1.524 . S
C1244 C1258 1.377 . S
C1245 C1244 1.524 . S
C1245 C1246 1.397 . S
C1245 C1250 1.363 . S
C1246 H1223 0.950 . S
C1246 C1245 1.397 . S
C1246 C1247 1.334 . S
C1247 H1224 0.950 . S
C1247 C1246 1.334 . S
C1247 C1248 1.287 . S
C1248 C1247 1.287 . S
C1248 C1249 1.524 . S
C1248 H1267 0.913 . S
C1249 H1225 0.950 . S
C1249 C1248 1.524 . S
C1249 C1250 1.415 . S
C1250 H1226 0.950 . S
C1250 C1245 1.363 . S
C1250 C1249 1.415 . S
C1251 H1227 0.951 . S
C1251 C1252 1.366 . S
C1251 C1253 1.388 . S
C1252 C1251 1.366 . S
C1252 C1256 1.385 1_545 S
C1253 H1228 0.951 . S
C1253 C1251 1.388 . S
C1253 C1254 1.366 . S
C1254 C1253 1.366 . S
C1254 C1255 1.414 1_545 S
C1254 C1257 1.499 . S
C1255 H1229 0.950 . S
C1255 C1254 1.414 1_565 S
C1255 C1256 1.374 . S
C1256 H1230 0.950 . S
C1256 C1252 1.385 1_565 S
C1256 C1255 1.374 . S
C1257 C1254 1.499 . S
C1257 C1258 1.373 1_545 S
C1257 C1259 1.389 . S
C1258 H1231 0.950 . S
C1258 C1244 1.377 . S
C1258 C1257 1.373 1_565 S
C1259 C1243 1.377 . S
C1259 C1257 1.389 . S
C1259 C1260 1.524 . S
C1260 C1259 1.524 . S
C1260 C1261 1.397 . S
C1260 C1265 1.363 . S
C1261 H1232 0.950 . S
C1261 C1260 1.397 . S
C1261 C1262 1.334 . S
C1262 H1233 0.950 . S
C1262 C1261 1.334 . S
C1262 C1263 1.287 . S
C1263 C1262 1.287 . S
C1263 C1264 1.524 . S
C1263 H1266 0.999 . S
C1264 H1234 0.950 . S
C1264 C1263 1.524 . S
C1264 C1265 1.415 . S
C1265 H1235 0.950 . S
C1265 C1260 1.363 . S
C1265 C1264 1.415 . S
H1266 C1263 0.999 . S
H1267 C1248 0.913 . S
H1268 C1286 0.951 . S
H1269 C1288 0.951 . S
H1270 C1290 0.950 . S
H1271 C1291 0.950 . S
H1272 C1293 0.950 . S
H1273 C1296 0.950 . S
H1274 C1297 0.950 . S
H1275 C1299 0.950 . S
H1276 C1300 0.950 . S
H1277 C1301 0.951 . S
H1278 C1303 0.951 . S
H1279 C1305 0.950 . S
H1280 C1306 0.950 . S
H1281 C1308 0.950 . S
H1282 C1311 0.950 . S
H1283 C1312 0.950 . S
H1284 C1314 0.950 . S
H1285 C1315 0.950 . S
C1286 H1268 0.951 . S
C1286 C1287 1.366 . S
C1286 C1288 1.388 . S
C1287 C1286 1.366 . S
C1287 C1291 1.385 . S
C1288 H1269 0.951 . S
C1288 C1286 1.388 . S
C1288 C1289 1.366 . S
C1289 C1288 1.366 . S
C1289 C1290 1.414 . S
C1289 C1292 1.499 . S
C1290 H1270 0.950 . S
C1290 C1289 1.414 . S
C1290 C1291 1.374 . S
C1291 H1271 0.950 . S
C1291 C1287 1.385 . S
C1291 C1290 1.374 . S
C1292 C1289 1.499 . S
C1292 C1293 1.373 . S
C1292 C1294 1.389 . S
C1293 H1272 0.950 . S
C1293 C1292 1.373 . S
C1293 C1309 1.377 . S
C1294 C1292 1.389 . S
C1294 C1295 1.524 . S
C1294 C1308 1.377 . S
C1295 C1294 1.524 . S
C1295 C1296 1.397 . S
C1295 C1300 1.363 . S
C1296 H1273 0.950 . S
C1296 C1295 1.397 . S
C1296 C1297 1.334 . S
C1297 H1274 0.950 . S
C1297 C1296 1.334 . S
C1297 C1298 1.287 . S
C1298 C1297 1.287 . S
C1298 C1299 1.524 . S
C1298 H1317 0.913 . S
C1299 H1275 0.950 . S
C1299 C1298 1.524 . S
C1299 C1300 1.415 . S
C1300 H1276 0.950 . S
C1300 C1295 1.363 . S
C1300 C1299 1.415 . S
C1301 H1277 0.951 . S
C1301 C1302 1.366 . S
C1301 C1303 1.388 . S
C1302 C1301 1.366 . S
C1302 C1306 1.385 . S
C1303 H1278 0.951 . S
C1303 C1301 1.388 . S
C1303 C1304 1.366 . S
C1304 C1303 1.366 . S
C1304 C1305 1.414 . S
C1304 C1307 1.499 . S
C1305 H1279 0.950 . S
C1305 C1304 1.414 . S
C1305 C1306 1.374 . S
C1306 H1280 0.950 . S
C1306 C1302 1.385 . S
C1306 C1305 1.374 . S
C1307 C1304 1.499 . S
C1307 C1308 1.373 . S
C1307 C1309 1.389 . S
C1308 H1281 0.950 . S
C1308 C1294 1.377 . S
C1308 C1307 1.373 . S
C1309 C1293 1.377 . S
C1309 C1307 1.389 . S
C1309 C1310 1.524 . S
C1310 C1309 1.524 . S
C1310 C1311 1.397 . S
C1310 C1315 1.363 . S
C1311 H1282 0.950 . S
C1311 C1310 1.397 . S
C1311 C1312 1.334 . S
C1312 H1283 0.950 . S
C1312 C1311 1.334 . S
C1312 C1313 1.287 . S
C1313 C1312 1.287 . S
C1313 C1314 1.524 . S
C1313 H1316 0.999 . S
C1314 H1284 0.950 . S
C1314 C1313 1.524 . S
C1314 C1315 1.415 . S
C1315 H1285 0.950 . S
C1315 C1310 1.363 . S
C1315 C1314 1.415 . S
H1316 C1313 0.999 . S
H1317 C1298 0.913 . S
H1318 C1336 0.951 . S
H1319 C1338 0.951 1_455 S
H1320 C1340 0.950 . S
H1321 C1341 0.950 . S
H1322 C1343 0.950 . S
H1323 C1346 0.950 . S
H1324 C1347 0.950 . S
H1325 C1349 0.950 . S
H1326 C1350 0.950 . S
H1327 C1351 0.951 . S
H1328 C1353 0.951 1_655 S
H1329 C1355 0.950 . S
H1330 C1356 0.950 . S
H1331 C1358 0.950 . S
H1332 C1361 0.950 . S
H1333 C1362 0.950 . S
H1334 C1364 0.950 . S
H1335 C1365 0.950 . S
C1336 H1318 0.951 . S
C1336 C1337 1.366 . S
C1336 C1338 1.388 . S
C1337 C1336 1.366 . S
C1337 C1341 1.385 . S
C1338 H1319 0.951 1_655 S
C1338 C1336 1.388 . S
C1338 C1339 1.366 . S
C1339 C1338 1.366 . S
C1339 C1340 1.414 . S
C1339 C1342 1.499 . S
C1340 H1320 0.950 . S
C1340 C1339 1.414 . S
C1340 C1341 1.374 . S
C1341 H1321 0.950 . S
C1341 C1337 1.385 . S
C1341 C1340 1.374 . S
C1342 C1339 1.499 . S
C1342 C1343 1.373 1_655 S
C1342 C1344 1.389 . S
C1343 H1322 0.950 . S
C1343 C1342 1.373 1_455 S
C1343 C1359 1.377 . S
C1344 C1342 1.389 . S
C1344 C1345 1.524 . S
C1344 C1358 1.377 . S
C1345 C1344 1.524 . S
C1345 C1346 1.397 . S
C1345 C1350 1.363 . S
C1346 H1323 0.950 . S
C1346 C1345 1.397 . S
C1346 C1347 1.334 . S
C1347 H1324 0.950 . S
C1347 C1346 1.334 . S
C1347 C1348 1.287 . S
C1348 C1347 1.287 . S
C1348 C1349 1.524 . S
C1348 H1367 0.913 . S
C1349 H1325 0.950 . S
C1349 C1348 1.524 . S
C1349 C1350 1.415 . S
C1350 H1326 0.950 . S
C1350 C1345 1.363 . S
C1350 C1349 1.415 . S
C1351 H1327 0.951 . S
C1351 C1352 1.366 . S
C1351 C1353 1.388 . S
C1352 C1351 1.366 . S
C1352 C1356 1.385 . S
C1353 H1328 0.951 1_455 S
C1353 C1351 1.388 . S
C1353 C1354 1.366 . S
C1354 C1353 1.366 . S
C1354 C1355 1.414 . S
C1354 C1357 1.499 . S
C1355 H1329 0.950 . S
C1355 C1354 1.414 . S
C1355 C1356 1.374 . S
C1356 H1330 0.950 . S
C1356 C1352 1.385 . S
C1356 C1355 1.374 . S
C1357 C1354 1.499 . S
C1357 C1358 1.373 1_455 S
C1357 C1359 1.389 . S
C1358 H1331 0.950 . S
C1358 C1344 1.377 . S
C1358 C1357 1.373 1_655 S
C1359 C1343 1.377 . S
C1359 C1357 1.389 . S
C1359 C1360 1.524 . S
C1360 C1359 1.524 . S
C1360 C1361 1.397 . S
C1360 C1365 1.363 . S
C1361 H1332 0.950 . S
C1361 C1360 1.397 . S
C1361 C1362 1.334 . S
C1362 H1333 0.950 . S
C1362 C1361 1.334 . S
C1362 C1363 1.287 . S
C1363 C1362 1.287 . S
C1363 C1364 1.524 . S
C1363 H1366 0.999 . S
C1364 H1334 0.950 . S
C1364 C1363 1.524 . S
C1364 C1365 1.415 . S
C1365 H1335 0.950 . S
C1365 C1360 1.363 . S
C1365 C1364 1.415 . S
H1366 C1363 0.999 . S
H1367 C1348 0.913 . S
C187 C8 1.876 . S
C202 C120 1.876 . S
C237 C22 1.876 . S
C252 C134 1.876 . S
C287 C148 1.876 . S
C302 C36 1.876 . S
C337 C162 1.876 . S
C352 C50 1.876 . S
C387 C92 1.876 . S
C402 C64 1.876 . S
C437 C106 1.876 . S
C452 C78 1.876 . S
C487 C7 1.527 . S
C502 C49 1.526 . S
C537 C63 1.527 . S
C552 C21 1.526 . S
C587 C77 1.527 . S
C602 C35 1.526 . S
C637 C91 1.526 . S
C652 C133 1.526 . S
C687 C147 1.526 . S
C702 C105 1.526 . S
C737 C119 1.526 . S
C752 C161 1.526 . S
C787 C87 0.640 . S
C802 C3 0.640 . S
C837 C17 0.641 . S
C852 C101 0.641 . S
C887 C115 0.641 . S
C902 C31 0.641 . S
C937 C129 0.640 . S
C952 C45 0.640 . S
C987 C59 0.640 . S
C1002 C143 0.640 . S
C1037 C157 0.641 . S
C1052 C73 0.641 . S
C1087 C9 0.881 . S
C1102 C107 0.881 . S
C1137 C121 0.880 . S
C1152 C23 0.880 . S
C1187 C135 0.882 . S
C1202 C37 0.882 . S
C1237 C51 0.881 . S
C1252 C149 0.881 . S
C1287 C163 0.880 . S
C1302 C65 0.880 . S
C1337 C93 0.880 . S
C1352 C79 0.881 . S
