# Generated by pormake.
# Topology wje, (4)-cn, num edge types: 1
# Building blocks:
#     Node 0, Type 0, BuildingBlock: AZAVOO_clean_sbu_0, # of connection points: 4
#     Node 1, Type 0, BuildingBlock: AZAVOO_clean_sbu_0, # of connection points: 4
#     Node 2, Type 0, BuildingBlock: AZAVOO_clean_sbu_0, # of connection points: 4
#     Node 3, Type 0, BuildingBlock: AZAVOO_clean_sbu_0, # of connection points: 4
#     Node 4, Type 0, BuildingBlock: AZAVOO_clean_sbu_0, # of connection points: 4
#     Node 5, Type 0, BuildingBlock: AZAVOO_clean_sbu_0, # of connection points: 4
#     Node 6, Type 0, BuildingBlock: AZAVOO_clean_sbu_0, # of connection points: 4
#     Node 7, Type 0, BuildingBlock: AZAVOO_clean_sbu_0, # of connection points: 4
#     Node 8, Type 0, BuildingBlock: AZAVOO_clean_sbu_0, # of connection points: 4
#     Node 9, Type 0, BuildingBlock: AZAVOO_clean_sbu_0, # of connection points: 4
#     Node 10, Type 0, BuildingBlock: AZAVOO_clean_sbu_0, # of connection points: 4
#     Node 11, Type 0, BuildingBlock: AZAVOO_clean_sbu_0, # of connection points: 4
#     Edge 12, Type (0, 0), BuildingBlock: UVAHIK_clean_linker_0, # of connection points: 2
#     Edge 13, Type (0, 0), BuildingBlock: UVAHIK_clean_linker_0, # of connection points: 2
#     Edge 14, Type (0, 0), BuildingBlock: UVAHIK_clean_linker_0, # of connection points: 2
#     Edge 15, Type (0, 0), BuildingBlock: UVAHIK_clean_linker_0, # of connection points: 2
#     Edge 16, Type (0, 0), BuildingBlock: UVAHIK_clean_linker_0, # of connection points: 2
#     Edge 17, Type (0, 0), BuildingBlock: UVAHIK_clean_linker_0, # of connection points: 2
#     Edge 18, Type (0, 0), BuildingBlock: UVAHIK_clean_linker_0, # of connection points: 2
#     Edge 19, Type (0, 0), BuildingBlock: UVAHIK_clean_linker_0, # of connection points: 2
#     Edge 20, Type (0, 0), BuildingBlock: UVAHIK_clean_linker_0, # of connection points: 2
#     Edge 21, Type (0, 0), BuildingBlock: UVAHIK_clean_linker_0, # of connection points: 2
#     Edge 22, Type (0, 0), BuildingBlock: UVAHIK_clean_linker_0, # of connection points: 2
#     Edge 23, Type (0, 0), BuildingBlock: UVAHIK_clean_linker_0, # of connection points: 2
#     Edge 24, Type (0, 0), BuildingBlock: UVAHIK_clean_linker_0, # of connection points: 2
#     Edge 25, Type (0, 0), BuildingBlock: UVAHIK_clean_linker_0, # of connection points: 2
#     Edge 26, Type (0, 0), BuildingBlock: UVAHIK_clean_linker_0, # of connection points: 2
#     Edge 27, Type (0, 0), BuildingBlock: UVAHIK_clean_linker_0, # of connection points: 2
#     Edge 28, Type (0, 0), BuildingBlock: UVAHIK_clean_linker_0, # of connection points: 2
#     Edge 29, Type (0, 0), BuildingBlock: UVAHIK_clean_linker_0, # of connection points: 2
#     Edge 30, Type (0, 0), BuildingBlock: UVAHIK_clean_linker_0, # of connection points: 2
#     Edge 31, Type (0, 0), BuildingBlock: UVAHIK_clean_linker_0, # of connection points: 2
#     Edge 32, Type (0, 0), BuildingBlock: UVAHIK_clean_linker_0, # of connection points: 2
#     Edge 33, Type (0, 0), BuildingBlock: UVAHIK_clean_linker_0, # of connection points: 2
#     Edge 34, Type (0, 0), BuildingBlock: UVAHIK_clean_linker_0, # of connection points: 2
#     Edge 35, Type (0, 0), BuildingBlock: UVAHIK_clean_linker_0, # of connection points: 2
# Relax obj value: 0.166
# Max RMSD: 0.141
# Mean RMSD: 0.140
data_MOF--net-wje--node1-AZAVOO_clean_sbu_0--edge1-UVAHIK_clean_linker_0
_symmetry_space_group_name_H-M    P1
_symmetry_Int_Tables_number       1
_symmetry_cell_setting            triclinic
loop_
_symmetry_equiv_pos_as_xyz
'x, y, z'
_cell_length_a     56.736076
_cell_length_b     56.768621
_cell_length_c     38.712419
_cell_angle_alpha  90.021667
_cell_angle_beta   90.015924
_cell_angle_gamma 119.98427
loop_
_atom_site_label
_atom_site_type_symbol
_atom_site_fract_x
_atom_site_fract_y
_atom_site_fract_z
_atom_type_partial_charge
Mg0 Mg 0.32099 0.99215 0.22962 0.0
O1 O 0.32982 -0.0009 0.28774 0.0
O2 O 0.36749 0.0389 0.29721 0.0
Mg3 Mg 0.38262 0.05801 0.24422 0.0
C4 C 0.34734 0.01684 0.30818 0.0
C5 C 0.28018 0.93925 0.26318 0.0
O6 O 0.30396 0.94199 0.27094 0.0
O7 O 0.30527 0.02191 0.22932 0.0
O8 O 0.34399 0.06108 0.23831 0.0
O9 O 0.34694 0.97343 0.22645 0.0
O10 O 0.36258 0.01745 0.21952 0.0
C11 C 0.31828 0.04763 0.23346 0.0
C12 C 0.3675 -0.00229 0.22279 0.0
O13 O 0.27935 0.95693 0.24388 0.0
Mg14 Mg 0.32803 0.32462 0.57822 0.0
O15 O 0.3289 0.33395 0.63599 0.0
O16 O 0.33739 0.37655 0.64253 0.0
Mg17 Mg 0.34102 0.39401 0.58836 0.0
C18 C 0.33276 0.35387 0.65517 0.0
C19 C 0.3165 0.26498 0.57811 0.0
O20 O 0.33549 0.2751 0.55424 0.0
O21 O 0.28666 0.32066 0.57268 0.0
O22 O 0.29568 0.36357 0.57797 0.0
O23 O 0.37247 0.34032 0.57974 0.0
O24 O 0.35379 0.36561 0.5681 0.0
C25 C 0.27903 0.33828 0.57307 0.0
C26 C 0.37541 0.36412 0.57389 0.0
O27 O 0.30873 0.28019 0.59197 0.0
Mg28 Mg -0.0084 0.32168 0.90765 0.0
O29 O 0.98572 0.31954 0.9664 0.0
O30 O 0.94881 0.32257 0.97839 0.0
Mg31 Mg 0.93212 0.32815 0.92721 0.0
C32 C 0.96894 0.32001 0.98795 0.0
C33 C 0.04295 0.3165 0.8981 0.0
O34 O 0.04851 0.33638 0.87637 0.0
O35 O 0.95618 0.27892 0.90118 0.0
O36 O 0.92064 0.28477 0.91099 0.0
O37 O 0.01742 0.36649 0.91137 0.0
O38 O 0.97282 0.34496 0.90352 0.0
C39 C 0.93061 0.26969 0.90293 0.0
C40 C -0.00484 0.36746 0.90881 0.0
O41 O 0.02056 0.30566 0.91437 0.0
Mg42 Mg 0.66341 0.00219 0.24991 0.0
O43 O 0.65196 0.99083 0.30665 0.0
O44 O 0.60881 0.95733 0.31022 0.0
Mg45 Mg 0.593 0.94671 0.25483 0.0
C46 C 0.63132 0.97425 0.3244 0.0
C47 C 0.7237 0.04882 0.25354 0.0
O48 O 0.71518 0.05828 0.22844 0.0
O49 O 0.66663 0.96449 0.24136 0.0
O50 O 0.62302 0.93165 0.24333 0.0
O51 O 0.64826 0.03149 0.25311 0.0
O52 O 0.62293 0.98835 0.23774 0.0
C53 C 0.64825 0.93952 0.23938 0.0
C54 C 0.62459 0.0113 0.24495 0.0
O55 O 0.70734 0.0259 0.26672 0.0
Mg56 Mg 0.66555 0.6647 0.5725 0.0
O57 O 0.66626 0.65782 0.63082 0.0
O58 O 0.6671 0.61935 0.63936 0.0
Mg59 Mg 0.66844 0.60257 0.58628 0.0
C60 C 0.66655 0.64013 0.65091 0.0
C61 C 0.65926 0.71564 0.57252 0.0
O62 O 0.63836 0.69921 0.55324 0.0
O63 O 0.71019 0.67863 0.56888 0.0
O64 O 0.71086 0.63997 0.57658 0.0
O65 O 0.62079 0.64049 0.57324 0.0
O66 O 0.64742 0.62296 0.56402 0.0
C67 C 0.72301 0.6656 0.57105 0.0
C68 C 0.6233 0.61922 0.56906 0.0
O69 O 0.67503 0.70757 0.58374 0.0
Mg70 Mg 0.98321 0.65775 0.90266 0.0
O71 O 0.98881 0.65948 0.96149 0.0
O72 O 0.02679 0.65853 0.97388 0.0
Mg73 Mg 0.04547 0.65615 0.92283 0.0
C74 C 0.00579 0.6596 0.98324 0.0
C75 C 0.92636 0.65207 0.90615 0.0
O76 O 0.92034 0.62782 0.89512 0.0
O77 O 0.01643 0.70187 0.89765 0.0
O78 O 0.05343 0.69887 0.90959 0.0
O79 O 0.96062 0.61265 0.90532 0.0
O80 O 0.00512 0.63738 0.8979 0.0
C81 C 0.0421 0.71271 0.9015 0.0
C82 C 0.98394 0.61385 0.90276 0.0
O83 O 0.95116 0.66999 0.91039 0.0
Mg84 Mg -0.00569 0.66481 0.42798 0.0
O85 O 0.98474 0.65885 0.37007 0.0
O86 O 0.94422 0.62159 0.36221 0.0
Mg87 Mg 0.92817 0.60363 0.41556 0.0
C88 C 0.96561 0.64212 0.35038 0.0
C89 C 0.05211 0.71519 0.42534 0.0
O90 O 0.05717 0.69831 0.44268 0.0
O91 O 0.96431 0.67943 0.43544 0.0
O92 O 0.92439 0.6412 0.42865 0.0
O93 O 0.01401 0.63989 0.42377 0.0
O94 O 0.9703 0.62302 0.43559 0.0
C95 C 0.9384 0.66671 0.43476 0.0
C96 C 0.99017 0.61885 0.42867 0.0
O97 O 0.02781 0.7076 0.41648 0.0
Mg98 Mg 0.31943 -0.0047 0.75301 0.0
O99 O 0.32288 0.98889 0.69521 0.0
O100 O 0.32845 0.95294 0.68798 0.0
Mg101 Mg 0.32977 0.9372 0.74181 0.0
C102 C 0.32594 0.97245 0.67578 0.0
C103 C 0.31196 0.04606 0.7522 0.0
O104 O 0.33114 0.05425 0.77578 0.0
O105 O 0.27686 0.95893 0.75455 0.0
O106 O 0.28477 0.92427 0.74944 0.0
O107 O 0.36431 0.02221 0.75581 0.0
O108 O 0.34293 0.97772 0.76441 0.0
C109 C 0.26851 0.93352 0.75323 0.0
C110 C 0.36552 0.00033 0.7614 0.0
O111 O 0.30272 0.02267 0.73887 0.0
Mg112 Mg 0.31547 0.32768 0.10021 0.0
O113 O 0.32769 0.32991 0.04349 0.0
O114 O 0.36889 0.33454 0.03823 0.0
Mg115 Mg 0.38247 0.33325 0.09348 0.0
C116 C 0.34744 0.33264 0.02491 0.0
C117 C 0.27194 0.33074 0.0587 0.0
O118 O 0.29445 0.35314 0.05052 0.0
O119 O 0.30572 0.28382 0.10277 0.0
O120 O 0.34745 0.28919 0.0991 0.0
O121 O 0.33641 0.37272 0.10262 0.0
O122 O 0.35651 0.34882 0.11428 0.0
C123 C 0.32166 0.27407 0.10196 0.0
C124 C 0.35842 0.37222 0.10992 0.0
O125 O 0.27292 0.31503 0.08132 0.0
Mg126 Mg 0.98523 0.32169 0.43369 0.0
O127 O -0.00676 0.32736 0.3754 0.0
O128 O 0.02884 0.36864 0.36555 0.0
Mg129 Mg 0.04271 0.38972 0.41794 0.0
C130 C 0.01 0.3456 0.35482 0.0
C131 C 0.93501 0.26319 0.43541 0.0
O132 O 0.9255 0.27554 0.45483 0.0
O133 O 0.02221 0.31716 0.44179 0.0
O134 O 0.05662 0.35944 0.43331 0.0
O135 O 0.95727 0.33818 0.42886 0.0
O136 O 0.00142 0.36334 0.4394 0.0
C137 C 0.04758 0.33445 0.44076 0.0
C138 C 0.9785 0.36204 0.43281 0.0
O139 O 0.95915 0.2766 0.42401 0.0
Mg140 Mg 0.65292 0.98393 0.77153 0.0
O141 O 0.64862 0.9907 0.71394 0.0
O142 O 0.64577 0.0281 0.70622 0.0
Mg143 Mg 0.65084 0.04691 0.75968 0.0
C144 C 0.64595 0.00724 0.6943 0.0
C145 C 0.64431 0.93299 0.73558 0.0
O146 O 0.62215 0.93399 0.72869 0.0
O147 O 0.69752 0.01629 0.76962 0.0
O148 O 0.69426 0.05363 0.76187 0.0
O149 O 0.60813 0.9622 0.77729 0.0
O150 O 0.63431 0.0066 0.78433 0.0
C151 C 0.70835 0.04189 0.76527 0.0
C152 C 0.61021 0.98572 0.78224 0.0
O153 O 0.66222 0.95105 0.75516 0.0
Mg154 Mg 0.66126 0.66319 0.09724 0.0
O155 O 0.65353 0.66043 0.03885 0.0
O156 O 0.61251 0.65516 0.02838 0.0
Mg157 Mg 0.59453 0.65634 0.08061 0.0
C158 C 0.63482 0.65732 0.01791 0.0
C159 C 0.71269 0.65883 0.08862 0.0
O160 O 0.69571 0.63528 0.10266 0.0
O161 O 0.67004 0.70678 0.0976 0.0
O162 O 0.62849 0.7007 0.08765 0.0
O163 O 0.64046 0.61808 0.1002 0.0
O164 O 0.61938 0.64164 0.10662 0.0
C165 C 0.65393 0.71611 0.09327 0.0
C166 C 0.61797 0.61833 0.10433 0.0
O167 O 0.70528 0.6764 0.08496 0.0
C168 C 0.31251 0.08688 0.24844 0.0
C169 C 0.30419 0.06322 0.22892 0.0
C170 C 0.30511 0.10584 0.23838 0.0
C171 C 0.26698 0.12288 0.17424 0.0
H172 H 0.33567 0.19077 0.17063 0.0
C173 C 0.32643 0.23286 0.09973 0.0
C174 C 0.31069 0.24478 0.1083 0.0
C175 C 0.31943 0.2072 0.11221 0.0
C176 C 0.31634 0.17194 0.1713 0.0
H177 H 0.27944 0.03926 0.18585 0.0
H178 H 0.26732 0.07304 0.16728 0.0
H179 H 0.33289 0.15263 0.20191 0.0
H180 H 0.27377 0.2381 0.13376 0.0
H181 H 0.26173 0.19309 0.15611 0.0
H182 H 0.25087 0.14272 0.14258 0.0
C183 C 0.27909 0.07673 0.19073 0.0
C184 C 0.31459 0.15018 0.18976 0.0
C185 C 0.28608 0.05743 0.20127 0.0
C186 C 0.28636 0.22945 0.12689 0.0
C187 C 0.27942 0.20369 0.13962 0.0
C188 C 0.26871 0.14497 0.15582 0.0
C189 C 0.2899 0.1018 0.20805 0.0
C190 C 0.29002 0.12531 0.19127 0.0
C191 C 0.29666 0.19301 0.13371 0.0
C192 C 0.29361 0.16949 0.15371 0.0
H193 H 0.32617 0.09153 0.27019 0.0
H194 H 0.31311 0.12468 0.25277 0.0
H195 H 0.2478 0.10391 0.17494 0.0
H196 H 0.345 0.24396 0.08489 0.0
H197 H 0.33274 0.19909 0.10672 0.0
C198 C 0.23447 0.30544 0.54606 0.0
C199 C 0.25041 0.32952 0.56485 0.0
C200 C 0.20863 0.29891 0.53435 0.0
C201 C 0.15238 0.3123 0.54584 0.0
H202 H 0.14541 0.3068 0.44599 0.0
C203 C 0.09437 0.34079 0.43998 0.0
C204 C 0.06719 0.32586 0.45095 0.0
C205 C 0.11366 0.33461 0.45264 0.0
C206 C 0.14696 0.30791 0.47391 0.0
H207 H 0.25118 0.36471 0.58795 0.0
H208 H 0.20575 0.35296 0.568 0.0
H209 H 0.18459 0.30772 0.47388 0.0
H210 H 0.03862 0.2922 0.48284 0.0
H211 H 0.07271 0.28193 0.50575 0.0
H212 H 0.11515 0.31332 0.54575 0.0
C213 C 0.21339 0.33932 0.56216 0.0
C214 C 0.16921 0.3083 0.48984 0.0
C215 C 0.23942 0.34612 0.57336 0.0
C216 C 0.05943 0.304 0.47386 0.0
C217 C 0.07887 0.29816 0.48706 0.0
C218 C 0.12988 0.31143 0.52994 0.0
C219 C 0.1981 0.31605 0.54182 0.0
C220 C 0.17247 0.31127 0.52584 0.0
C221 C 0.10618 0.31371 0.47692 0.0
C222 C 0.12742 0.31001 0.4938 0.0
H223 H 0.24241 0.29226 0.53906 0.0
H224 H 0.19711 0.28083 0.51876 0.0
H225 H 0.15452 0.31456 0.57364 0.0
H226 H 0.10087 0.35766 0.42221 0.0
H227 H 0.13468 0.34701 0.44468 0.0
C228 C 0.75129 0.08327 0.74861 0.0
C229 C 0.73801 0.05928 0.76806 0.0
C230 C 0.77766 0.10333 0.75715 0.0
C231 C 0.83573 0.12239 0.81788 0.0
H232 H 0.83307 0.18926 0.82311 0.0
C233 C 0.8837 0.22998 0.89755 0.0
C234 C 0.91176 0.24144 0.89189 0.0
C235 C 0.86531 0.20544 0.88202 0.0
C236 C 0.8341 0.17072 0.82195 0.0
H237 H 0.74248 0.03609 0.80937 0.0
H238 H 0.78818 0.07169 0.82545 0.0
H239 H 0.79793 0.15082 0.79198 0.0
H240 H 0.94267 0.23505 0.86775 0.0
H241 H 0.91025 0.19204 0.84026 0.0
H242 H 0.87167 0.1426 0.84939 0.0
C243 C 0.7786 0.07487 0.80313 0.0
C244 C 0.81421 0.14877 0.80352 0.0
C245 C 0.75238 0.05449 0.79402 0.0
C246 C 0.92114 0.22679 0.87247 0.0
C247 C 0.90263 0.20217 0.85677 0.0
C248 C 0.85583 0.14457 0.83641 0.0
C249 C 0.79086 0.10008 0.78598 0.0
C250 C 0.81447 0.12418 0.80165 0.0
C251 C 0.87454 0.19188 0.86036 0.0
C252 C 0.85473 0.16868 0.83924 0.0
H253 H 0.7407 0.08717 0.72808 0.0
H254 H 0.78691 0.12221 0.74274 0.0
H255 H 0.83652 0.10374 0.81679 0.0
H256 H 0.87581 0.24049 0.91284 0.0
H257 H 0.84373 0.19757 0.88587 0.0
C258 C 0.65122 0.7578 0.08221 0.0
C259 C 0.66391 0.74521 0.099 0.0
C260 C 0.65588 0.78315 0.0932 0.0
C261 C 0.69531 0.8404 0.15473 0.0
H262 H 0.62569 0.83731 0.1626 0.0
C263 C 0.63748 0.89143 0.23343 0.0
C264 C 0.65585 0.91925 0.22866 0.0
C265 C 0.64239 0.87201 0.21837 0.0
C266 C 0.64527 0.83841 0.16095 0.0
H267 H 0.69315 0.75004 0.13838 0.0
H268 H 0.70052 0.79391 0.15861 0.0
H269 H 0.62859 0.80208 0.13118 0.0
H270 H 0.69466 0.94857 0.20626 0.0
H271 H 0.70295 0.91451 0.17926 0.0
H272 H 0.71156 0.87638 0.18601 0.0
C273 C 0.68739 0.78456 0.13651 0.0
C274 C 0.64708 0.81846 0.14225 0.0
C275 C 0.68313 0.75938 0.125 0.0
C276 C 0.68011 0.92725 0.21037 0.0
C277 C 0.68489 0.90775 0.19495 0.0
C278 C 0.69346 0.86043 0.17368 0.0
C279 C 0.67278 0.79607 0.12179 0.0
C280 C 0.67204 0.81904 0.13906 0.0
C281 C 0.66559 0.87996 0.19782 0.0
C282 C 0.66829 0.85936 0.17737 0.0
H283 H 0.63663 0.74742 0.0617 0.0
H284 H 0.645 0.79189 0.08056 0.0
H285 H 0.71487 0.84149 0.15261 0.0
H286 H 0.61882 0.88464 0.24786 0.0
H287 H 0.62751 0.85071 0.2219 0.0
C288 C 0.89671 0.67088 0.43381 0.0
C289 C 0.92396 0.68143 0.44369 0.0
C290 C 0.88179 0.68249 0.4462 0.0
C291 C 0.87615 0.71279 0.52403 0.0
H292 H 0.81796 0.71453 0.47365 0.0
C293 C 0.76481 0.70483 0.54582 0.0
C294 C 0.75254 0.68014 0.56417 0.0
C295 C 0.79172 0.71635 0.53453 0.0
C296 C 0.83447 0.71488 0.48813 0.0
H297 H 0.9575 0.71343 0.47255 0.0
H298 H 0.93099 0.73332 0.49503 0.0
H299 H 0.85546 0.71517 0.44202 0.0
H300 H 0.75946 0.64945 0.58767 0.0
H301 H 0.80636 0.66958 0.56817 0.0
H302 H 0.85408 0.71039 0.57003 0.0
C303 C 0.92138 0.71621 0.47745 0.0
C304 C 0.85581 0.71507 0.47 0.0
C305 C 0.93648 0.70483 0.46457 0.0
C306 C 0.76828 0.66832 0.57328 0.0
C307 C 0.79523 0.68003 0.56242 0.0
C308 C 0.85468 0.71236 0.54216 0.0
C309 C 0.89372 0.70468 0.46905 0.0
C310 C 0.87607 0.71264 0.48774 0.0
C311 C 0.8069 0.70361 0.54193 0.0
C312 C 0.83299 0.71202 0.52424 0.0
H313 H 0.88662 0.65301 0.4175 0.0
H314 H 0.8604 0.67298 0.43963 0.0
H315 H 0.89147 0.7108 0.53835 0.0
H316 H 0.75322 0.71449 0.53851 0.0
H317 H 0.8003 0.73457 0.51883 0.0
C318 C 0.22351 0.92192 0.77895 0.0
C319 C 0.23959 0.91398 0.7601 0.0
C320 C 0.19819 0.90232 0.79188 0.0
C321 C 0.16749 0.83245 0.82125 0.0
H322 H 0.10148 0.83601 0.83345 0.0
C323 C 0.05323 0.75355 0.86567 0.0
C324 C 0.05994 0.74157 0.89287 0.0
C325 C 0.07302 0.77839 0.85178 0.0
C326 C 0.11983 0.83485 0.8302 0.0
H327 H 0.24052 0.87979 0.73655 0.0
H328 H 0.1962 0.84575 0.75842 0.0
H329 H 0.13904 0.87086 0.79882 0.0
H330 H 0.09115 0.74747 0.92975 0.0
H331 H 0.12534 0.79115 0.90635 0.0
H332 H 0.14863 0.79652 0.85181 0.0
C333 C 0.20348 0.86697 0.76418 0.0
C334 C 0.14126 0.85474 0.81051 0.0
C335 C 0.22882 0.88645 0.75159 0.0
C336 C 0.08567 0.75608 0.90835 0.0
C337 C 0.10523 0.781 0.89487 0.0
C338 C 0.1463 0.8128 0.84087 0.0
C339 C 0.18857 0.87458 0.78588 0.0
C340 C 0.1652 0.85354 0.80567 0.0
C341 C 0.09959 0.79161 0.86522 0.0
C342 C 0.12226 0.81375 0.84568 0.0
H343 H 0.23126 0.94304 0.7858 0.0
H344 H 0.18712 0.90876 0.80852 0.0
H345 H 0.18587 0.83126 0.81862 0.0
H346 H 0.03348 0.74272 0.85332 0.0
H347 H 0.06809 0.7861 0.82895 0.0
C348 C 0.39986 0.98076 0.23254 0.0
C349 C 0.39552 0.00267 0.2264 0.0
C350 C 0.42608 0.98522 0.23764 0.0
C351 C 0.49858 0.03507 0.22305 0.0
H352 H 0.50817 0.98839 0.28784 0.0
C353 C 0.6017 0.03903 0.25297 0.0
C354 C 0.59996 0.01388 0.24592 0.0
C355 C 0.57817 0.04116 0.25374 0.0
C356 C 0.50577 0.0017 0.2699 0.0
H357 H 0.41546 0.04641 0.21966 0.0
H358 H 0.46128 0.0543 0.22964 0.0
H359 H 0.4641 0.98586 0.28355 0.0
H360 H 0.5722 0.97154 0.23321 0.0
H361 H 0.53138 0.9751 0.23595 0.0
H362 H 0.54051 0.05074 0.20952 0.0
C363 C 0.44436 0.03363 0.23025 0.0
C364 C 0.48054 0.00012 0.26718 0.0
C365 C 0.41806 0.02913 0.22482 0.0
C366 C 0.57433 0.99105 0.23951 0.0
C367 C 0.5509 0.99306 0.24097 0.0
C368 C 0.524 0.03689 0.22614 0.0
C369 C 0.44862 0.01172 0.23703 0.0
C370 C 0.47638 0.01611 0.2429 0.0
C371 C 0.55261 0.01807 0.2481 0.0
C372 C 0.52747 0.01962 0.24885 0.0
H373 H 0.38298 0.96008 0.23359 0.0
H374 H 0.42866 0.96777 0.24182 0.0
H375 H 0.49604 0.04757 0.20398 0.0
H376 H 0.6212 0.05704 0.25776 0.0
H377 H 0.57985 0.06067 0.25913 0.0
C378 C 0.57352 0.58847 0.57775 0.0
C379 C 0.59944 0.59168 0.57245 0.0
C380 C 0.55082 0.56261 0.58109 0.0
C381 C 0.52603 0.4903 0.56152 0.0
H382 H 0.46742 0.47994 0.62264 0.0
C383 C 0.42594 0.38712 0.58195 0.0
C384 C 0.4024 0.3889 0.57616 0.0
C385 C 0.45143 0.41069 0.58422 0.0
C386 C 0.48371 0.48258 0.60558 0.0
H387 H 0.62182 0.5702 0.56618 0.0
H388 H 0.58227 0.52502 0.57312 0.0
H389 H 0.50983 0.52338 0.62245 0.0
H390 H 0.38734 0.41683 0.56741 0.0
H391 H 0.43155 0.45776 0.57249 0.0
H392 H 0.49962 0.44924 0.54487 0.0
C393 C 0.57945 0.54252 0.57421 0.0
C394 C 0.5079 0.50746 0.60527 0.0
C395 C 0.60218 0.56845 0.57052 0.0
C396 C 0.40489 0.41466 0.57256 0.0
C397 C 0.43021 0.43814 0.57542 0.0
C398 C 0.50189 0.46525 0.56219 0.0
C399 C 0.5535 0.53931 0.57954 0.0
C400 C 0.52907 0.51188 0.58255 0.0
C401 C 0.45366 0.43636 0.58129 0.0
C402 C 0.48033 0.46147 0.5836 0.0
H403 H 0.57066 0.60594 0.57908 0.0
H404 H 0.53107 0.56092 0.58432 0.0
H405 H 0.5418 0.49307 0.5435 0.0
H406 H 0.42471 0.36754 0.58464 0.0
H407 H 0.46932 0.4089 0.58869 0.0
C408 C 0.01187 0.59101 0.90556 0.0
C409 C 0.98633 0.58931 0.90721 0.0
C410 C 0.0141 0.56778 0.90945 0.0
C411 C 0.97612 0.4961 0.93962 0.0
H412 H 0.02696 0.48829 0.88043 0.0
C413 C 0.97075 0.39386 0.91183 0.0
C414 C -0.00476 0.39335 0.913 0.0
C415 C 0.97085 0.41839 0.91477 0.0
C416 C 0.01294 0.49038 0.89743 0.0
H417 H 0.94304 0.56184 0.91393 0.0
H418 H 0.94679 0.52114 0.91952 0.0
H419 H 0.02462 0.52994 0.87812 0.0
H420 H 0.03908 0.41819 0.91823 0.0
H421 H 0.03923 0.46122 0.92273 0.0
H422 H 0.96379 0.45595 0.95784 0.0
C423 C 0.96523 0.54055 0.91623 0.0
C424 C 0.01161 0.51424 0.8962 0.0
C425 C 0.96304 0.56386 0.91273 0.0
C426 C 0.01986 0.41791 0.91729 0.0
C427 C 0.01999 0.44252 0.91978 0.0
C428 C 0.97724 0.4721 0.94053 0.0
C429 C -0.00921 0.54222 0.91457 0.0
C430 C -0.00697 0.51732 0.91708 0.0
C431 C -0.00453 0.44294 0.91844 0.0
C432 C -0.00449 0.46897 0.91925 0.0
H433 H 0.0302 0.61023 0.90103 0.0
H434 H 0.03414 0.56989 0.90849 0.0
H435 H 0.96195 0.49799 0.95654 0.0
H436 H 0.95147 0.37541 0.90812 0.0
H437 H 0.95171 0.41824 0.91318 0.0
C438 C 0.95976 0.56819 0.42762 0.0
C439 C 0.98586 0.59112 0.42463 0.0
C440 C 0.95601 0.54203 0.42405 0.0
C441 C -0.00927 0.5052 0.39262 0.0
H442 H 0.94209 0.44921 0.45635 0.0
C443 C 0.00044 0.41263 0.42913 0.0
C444 C 0.97679 0.38695 0.42809 0.0
C445 C -0.00107 0.43619 0.42464 0.0
C446 C 0.95543 0.46456 0.43809 0.0
H447 H 0.02852 0.60461 0.41585 0.0
H448 H 0.02217 0.55921 0.41082 0.0
H449 H 0.94438 0.49331 0.45617 0.0
H450 H 0.93287 0.36586 0.42213 0.0
H451 H 0.93024 0.40738 0.41522 0.0
H452 H 0.00273 0.47676 0.37589 0.0
C453 C 0.00441 0.56129 0.41485 0.0
C454 C 0.95672 0.48978 0.43787 0.0
C455 C 0.00811 0.58738 0.41807 0.0
C456 C 0.95149 0.38536 0.42289 0.0
C457 C 0.94993 0.40903 0.41898 0.0
C458 C 0.98969 0.48014 0.39319 0.0
C459 C 0.97833 0.53828 0.41779 0.0
C460 C 0.97481 0.51059 0.41562 0.0
C461 C 0.97369 0.4346 0.41965 0.0
C462 C 0.97241 0.45982 0.41636 0.0
H463 H 0.94221 0.57034 0.43286 0.0
H464 H 0.93561 0.52477 0.42615 0.0
H465 H 0.00438 0.52051 0.37455 0.0
H466 H 0.02018 0.41469 0.43365 0.0
H467 H 0.01748 0.45574 0.42582 0.0
C468 C 0.5882 0.01449 0.78483 0.0
C469 C 0.58586 0.98875 0.7815 0.0
C470 C 0.56529 0.01744 0.78183 0.0
C471 C 0.49481 0.9815 0.74778 0.0
H472 H 0.48578 0.03239 0.80535 0.0
C473 C 0.39242 0.97669 0.76699 0.0
C474 C 0.39182 0.00093 0.76248 0.0
C475 C 0.4171 0.97697 0.76773 0.0
C476 C 0.48827 0.01836 0.78887 0.0
H477 H 0.55746 0.94574 0.77409 0.0
H478 H 0.51743 0.95072 0.77015 0.0
H479 H 0.52689 0.029 0.81098 0.0
H480 H 0.41672 0.04464 0.75611 0.0
H481 H 0.46013 0.04512 0.75822 0.0
H482 H 0.4557 0.97021 0.72667 0.0
C483 C 0.53708 0.96881 0.77379 0.0
C484 C 0.51177 0.01641 0.79201 0.0
C485 C 0.56001 0.96591 0.77639 0.0
C486 C 0.41652 0.0256 0.75941 0.0
C487 C 0.44131 0.02592 0.7607 0.0
C488 C 0.47123 0.98322 0.74499 0.0
C489 C 0.53949 -0.00535 0.77593 0.0
C490 C 0.51515 -0.0023 0.77177 0.0
C491 C 0.44172 0.00154 0.76458 0.0
C492 C 0.46764 0.00143 0.76577 0.0
H493 H 0.60774 0.03245 0.78938 0.0
H494 H 0.56792 0.03766 0.78345 0.0
H495 H 0.49705 0.9674 0.73115 0.0
H496 H 0.37389 0.95741 0.77015 0.0
H497 H 0.41695 0.95796 0.77131 0.0
C498 C 0.38692 0.42274 0.1045 0.0
C499 C 0.38511 0.39748 0.11035 0.0
C500 C 0.41222 0.44657 0.10415 0.0
C501 C 0.48433 0.47436 0.13047 0.0
H502 H 0.49673 0.53122 0.06515 0.0
C503 C 0.5903 0.56754 0.10263 0.0
C504 C 0.59149 0.59284 0.1045 0.0
C505 C 0.56524 0.54342 0.10322 0.0
C506 C 0.49345 0.51551 0.08358 0.0
H507 H 0.40841 0.37753 0.12132 0.0
H508 H 0.45244 0.41874 0.1191 0.0
H509 H 0.45265 0.48951 0.06644 0.0
H510 H 0.56727 0.61258 0.10905 0.0
H511 H 0.52361 0.57053 0.10901 0.0
H512 H 0.52552 0.50032 0.14687 0.0
C513 C 0.43437 0.42033 0.11543 0.0
C514 C 0.46819 0.49169 0.08452 0.0
C515 C 0.40907 0.39657 0.11625 0.0
C516 C 0.56712 0.59352 0.10695 0.0
C517 C 0.54209 0.56945 0.10699 0.0
C518 C 0.50972 0.49802 0.12916 0.0
C519 C 0.43628 0.44563 0.1093 0.0
C520 C 0.46325 0.47088 0.10812 0.0
C521 C 0.54095 0.54423 0.10523 0.0
C522 C 0.5144 0.51883 0.10586 0.0
H523 H 0.36881 0.42416 0.10019 0.0
H524 H 0.41285 0.46575 0.10008 0.0
H525 H 0.48114 0.459 0.14939 0.0
H526 H 0.60872 0.56633 0.10088 0.0
H527 H 0.56481 0.52415 0.10172 0.0
C528 C 0.10174 0.7489 0.41988 0.0
C529 C 0.07458 0.74154 0.41319 0.0
C530 C 0.123 0.77261 0.40567 0.0
C531 C 0.13794 0.8187 0.3322 0.0
H532 H 0.20513 0.86371 0.382 0.0
C533 C 0.22972 0.9147 0.27318 0.0
C534 C 0.25531 0.91724 0.27926 0.0
C535 C 0.20663 0.89468 0.29024 0.0
C536 C 0.18652 0.85123 0.36773 0.0
H537 H 0.0484 0.75384 0.38753 0.0
H538 H 0.08559 0.79536 0.36303 0.0
H539 H 0.16659 0.82678 0.41199 0.0
H540 H 0.27669 0.90051 0.30746 0.0
H541 H 0.23653 0.86563 0.33678 0.0
H542 H 0.15808 0.84295 0.2878 0.0
C543 C 0.0904 0.78257 0.3788 0.0
C544 C 0.16448 0.83012 0.38489 0.0
C545 C 0.06913 0.75886 0.39301 0.0
C546 C 0.2573 0.89917 0.30226 0.0
C547 C 0.23432 0.87931 0.31931 0.0
C548 C 0.16 0.83987 0.31503 0.0
C549 C 0.11755 0.78946 0.38453 0.0
C550 C 0.14011 0.81335 0.36717 0.0
C551 C 0.2088 0.877 0.31376 0.0
C552 C 0.18466 0.85602 0.33249 0.0
H553 H 0.10661 0.73599 0.43529 0.0
H554 H 0.14371 0.77722 0.41026 0.0
H555 H 0.11953 0.80592 0.31773 0.0
H556 H 0.22757 0.92837 0.25565 0.0
H557 H 0.18719 0.8934 0.28557 0.0
C558 C 0.28678 0.22704 0.61803 0.0
C559 C 0.30664 0.23737 0.5919 0.0
C560 C 0.27996 0.20254 0.63434 0.0
C561 C 0.28731 0.1413 0.62908 0.0
H562 H 0.28858 0.14577 0.72914 0.0
C563 C 0.31656 0.09216 0.74856 0.0
C564 C 0.30335 0.06479 0.73828 0.0
C565 C 0.31071 0.11056 0.73221 0.0
C566 C 0.28808 0.14418 0.70124 0.0
H567 H 0.33376 0.22936 0.56101 0.0
H568 H 0.32214 0.18679 0.58979 0.0
H569 H 0.2897 0.18236 0.69501 0.0
H570 H 0.27237 0.03483 0.70435 0.0
H571 H 0.26203 0.06692 0.67609 0.0
H572 H 0.28719 0.10385 0.63529 0.0
C573 C 0.31165 0.19749 0.59748 0.0
C574 C 0.2884 0.16497 0.68166 0.0
C575 C 0.31844 0.22198 0.58111 0.0
C576 C 0.28313 0.05587 0.71262 0.0
C577 C 0.27726 0.07425 0.69632 0.0
C578 C 0.28699 0.12051 0.64866 0.0
C579 C 0.29287 0.18788 0.62487 0.0
C580 C 0.28869 0.16407 0.64537 0.0
C581 C 0.29148 0.10191 0.70533 0.0
C582 C 0.28806 0.12207 0.68493 0.0
H583 H 0.27709 0.23829 0.62669 0.0
H584 H 0.26509 0.19541 0.65498 0.0
H585 H 0.2872 0.1399 0.60117 0.0
H586 H 0.3322 0.09965 0.76829 0.0
H587 H 0.32221 0.1318 0.73952 0.0
C588 C 0.22179 0.30037 0.04955 0.0
C589 C 0.24652 0.32326 0.03993 0.0
C590 C 0.19796 0.29338 0.03116 0.0
C591 C 0.17315 0.3046 0.94793 0.0
H592 H 0.10999 0.29233 0.00079 0.0
C593 C 0.09057 0.32496 0.89505 0.0
C594 C 0.06377 0.30918 0.90708 0.0
C595 C 0.11108 0.32049 0.90756 0.0
C596 C 0.12719 0.29508 0.98553 0.0
H597 H 0.2658 0.3565 0.00324 0.0
H598 H 0.22433 0.34446 0.97154 0.0
H599 H 0.14946 0.29604 0.03061 0.0
H600 H 0.037 0.27499 0.93958 0.0
H601 H 0.07277 0.26699 0.96101 0.0
H602 H 0.15116 0.30446 0.90292 0.0
C603 C 0.22334 0.33175 0.99299 0.0
C604 C 0.14982 0.29725 0.00267 0.0
C605 C 0.24705 0.33881 0.01143 0.0
C606 C 0.05755 0.28773 0.93014 0.0
C607 C 0.07804 0.2832 0.94253 0.0
C608 C 0.15047 0.30235 0.93076 0.0
C609 C 0.19855 0.30903 0.00269 0.0
C610 C 0.17329 0.3028 0.98412 0.0
C611 C 0.10516 0.30007 0.93219 0.0
C612 C 0.12753 0.2983 0.94948 0.0
H613 H 0.2208 0.28792 0.07131 0.0
H614 H 0.17911 0.2757 0.03911 0.0
H615 H 0.19084 0.30843 0.93295 0.0
H616 H 0.09599 0.34159 0.87722 0.0
H617 H 0.13181 0.33402 0.89929 0.0
C618 C 0.88897 0.22172 0.43047 0.0
C619 C 0.91688 0.23524 0.4228 0.0
C620 C 0.87123 0.19705 0.41445 0.0
C621 C 0.86556 0.16131 0.33379 0.0
H622 H 0.79998 0.10428 0.37649 0.0
C623 C 0.75887 0.05623 0.29778 0.0
C624 C 0.75066 0.06597 0.26951 0.0
C625 C 0.7826 0.07353 0.31592 0.0
C626 C 0.81841 0.11976 0.36423 0.0
H627 H 0.94841 0.23256 0.39424 0.0
H628 H 0.91743 0.1894 0.36655 0.0
H629 H 0.83508 0.13973 0.41239 0.0
H630 H 0.76174 0.10101 0.23683 0.0
H631 H 0.80297 0.13126 0.26869 0.0
H632 H 0.84867 0.14162 0.28557 0.0
C633 C 0.90921 0.19813 0.38444 0.0
C634 C 0.83837 0.14021 0.38478 0.0
C635 C 0.92694 0.22279 0.40043 0.0
C636 C 0.76746 0.09291 0.25855 0.0
C637 C 0.79119 0.11021 0.27671 0.0
C638 C 0.8456 0.14087 0.31325 0.0
C639 C 0.88109 0.1854 0.39052 0.0
C640 C 0.86182 0.16158 0.36967 0.0
C641 C 0.79861 0.10088 0.30613 0.0
C642 C 0.82151 0.12028 0.32815 0.0
H643 H 0.8806 0.23074 0.44766 0.0
H644 H 0.84963 0.18786 0.41947 0.0
H645 H 0.8833 0.17762 0.32131 0.0
H646 H 0.7465 0.03548 0.30669 0.0
H647 H 0.78804 0.06567 0.33816 0.0
C648 C 0.6849 0.75924 0.60531 0.0
C649 C 0.6628 0.742 0.5841 0.0
C650 C 0.68681 0.78284 0.61914 0.0
C651 C 0.65959 0.82984 0.61141 0.0
H652 H 0.67563 0.84124 0.70943 0.0
C653 C 0.63005 0.8946 0.69422 0.0
C654 C 0.64898 0.91245 0.71849 0.0
C655 C 0.63474 0.87593 0.67663 0.0
C656 C 0.67154 0.83858 0.68195 0.0
H657 H 0.62597 0.7365 0.55966 0.0
H658 H 0.62911 0.77746 0.58415 0.0
H659 H 0.67904 0.80527 0.67948 0.0
H660 H 0.68757 0.92456 0.74362 0.0
H661 H 0.69569 0.89164 0.71282 0.0
H662 H 0.65138 0.86269 0.61416 0.0
C663 C 0.64513 0.77294 0.5898 0.0
C664 C 0.67353 0.81803 0.66476 0.0
C665 C 0.64324 0.74937 0.57591 0.0
C666 C 0.67258 0.91102 0.72511 0.0
C667 C 0.67722 0.89218 0.70756 0.0
C668 C 0.65754 0.85033 0.62861 0.0
C669 C 0.66667 0.78966 0.61207 0.0
C670 C 0.66712 0.81314 0.62943 0.0
C671 C 0.65841 0.87462 0.68295 0.0
C672 C 0.66301 0.85457 0.66418 0.0
H673 H 0.70043 0.75423 0.61191 0.0
H674 H 0.70387 0.79556 0.63578 0.0
H675 H 0.65498 0.82686 0.58406 0.0
H676 H 0.61164 0.89515 0.68852 0.0
H677 H 0.61965 0.86231 0.65826 0.0
C678 C 0.74111 0.64025 0.06567 0.0
C679 C 0.73776 0.6628 0.0718 0.0
C680 C 0.76267 0.64293 0.04555 0.0
C681 C 0.8305 0.68705 0.01636 0.0
H682 H 0.80919 0.64038 0.93556 0.0
C683 C 0.9106 0.68339 0.92829 0.0
C684 C 0.9046 0.65722 0.91797 0.0
C685 C 0.89046 0.6875 0.94307 0.0
C686 C 0.81553 0.6534 0.95812 0.0
H687 H 0.75521 0.70615 0.0633 0.0
H688 H 0.79365 0.71091 0.0288 0.0
H689 H 0.77438 0.64094 0.97187 0.0
H690 H 0.87263 0.61504 0.91403 0.0
H691 H 0.83792 0.62197 0.94059 0.0
H692 H 0.87155 0.69838 0.00401 0.0
C693 C 0.77918 0.69117 0.03923 0.0
C694 C 0.79561 0.65381 0.97873 0.0
C695 C 0.75726 0.68841 0.05891 0.0
C696 C 0.8779 0.63548 0.92156 0.0
C697 C 0.8579 0.63952 0.93664 0.0
C698 C 0.8505 0.68631 0.99606 0.0
C699 C 0.78156 0.66828 0.03171 0.0
C700 C 0.80292 0.67021 0.00833 0.0
C701 C 0.864 0.6655 0.94809 0.0
C702 C 0.84319 0.669 0.96711 0.0
H703 H 0.72646 0.62025 0.07518 0.0
H704 H 0.76436 0.62509 0.04029 0.0
H705 H 0.8365 0.6998 0.03919 0.0
H706 H 0.93098 0.70059 0.92562 0.0
H707 H 0.89575 0.70785 0.95103 0.0
C708 C 0.32854 0.98499 0.3585 0.0
C709 C 0.3441 0.01165 0.34579 0.0
C710 C 0.32576 0.9801 0.39407 0.0
C711 C 0.32627 0.01076 0.4765 0.0
H712 H 0.34575 0.96017 0.51639 0.0
C713 C 0.33376 0.00176 0.6239 0.0
C714 C 0.32684 0.97629 0.63792 0.0
C715 C 0.33517 0.00557 0.58814 0.0
C716 C 0.3397 0.97399 0.50573 0.0
H717 H 0.36851 0.05411 0.36036 0.0
H718 H 0.36303 0.04553 0.42254 0.0
H719 H 0.3487 0.96727 0.45407 0.0
H720 H 0.31531 0.93466 0.62549 0.0
H721 H 0.31658 0.94092 0.5632 0.0
H722 H 0.31643 0.01701 0.52768 0.0
C723 C 0.35328 0.02848 0.40489 0.0
C724 C 0.34157 0.97813 0.47002 0.0
C725 C 0.35651 0.03334 0.36936 0.0
C726 C 0.32097 0.95461 0.61545 0.0
C727 C 0.32188 0.95828 0.57967 0.0
C728 C 0.3239 0.00627 0.51213 0.0
C729 C 0.33801 0.00182 0.41753 0.0
C730 C 0.33511 -0.00327 0.45517 0.0
C731 C 0.32919 0.98387 0.56549 0.0
C732 C 0.33084 0.98801 0.52733 0.0
H733 H 0.31877 0.96785 0.34099 0.0
H734 H 0.31379 0.95938 0.40326 0.0
H735 H 0.32089 0.02501 0.46553 0.0
H736 H 0.33863 0.01894 0.64056 0.0
H737 H 0.34142 0.02571 0.57836 0.0
C738 C 0.36699 0.33804 0.96528 0.0
C739 C 0.3453 0.33387 0.98685 0.0
C740 C 0.36497 0.33955 0.92944 0.0
C741 C 0.32701 0.35303 0.8621 0.0
H742 H 0.35604 0.31935 0.80141 0.0
C743 C 0.3386 0.37288 0.71514 0.0
C744 C 0.33261 0.3508 0.69324 0.0
C745 C 0.33936 0.37026 0.75095 0.0
C746 C 0.34761 0.32866 0.81799 0.0
H747 H 0.30431 0.32775 0.98743 0.0
H748 H 0.30075 0.33007 0.92508 0.0
H749 H 0.3586 0.31533 0.86381 0.0
H750 H 0.32227 0.30845 0.69207 0.0
H751 H 0.32327 0.30384 0.75452 0.0
H752 H 0.31558 0.36595 0.8163 0.0
C753 C 0.31948 0.33259 0.93589 0.0
C754 C 0.34939 0.32665 0.85377 0.0
C755 C 0.3215 0.3311 0.97168 0.0
C756 C 0.32708 0.32593 0.7081 0.0
C757 C 0.32781 0.32332 0.74392 0.0
C758 C 0.32523 0.35504 0.82633 0.0
C759 C 0.34122 0.33691 0.91433 0.0
C760 C 0.33916 0.33886 0.87626 0.0
C761 C 0.33411 0.34549 0.76577 0.0
C762 C 0.33556 0.34294 0.80384 0.0
H763 H 0.38565 0.34034 0.97605 0.0
H764 H 0.38221 0.34323 0.9136 0.0
H765 H 0.31918 0.36291 0.87867 0.0
H766 H 0.34305 0.39236 0.70464 0.0
H767 H 0.34462 0.38784 0.76699 0.0
C768 C 0.02929 0.35431 0.29499 0.0
C769 C 0.00701 0.34019 0.31725 0.0
C770 C 0.02623 0.34986 0.25935 0.0
C771 C 0.9779 0.30294 0.19226 0.0
H772 H 0.01963 0.36485 0.13229 0.0
C773 C 0.95207 0.31029 0.04897 0.0
C774 C 0.97362 0.31879 0.02533 0.0
C775 C 0.9568 0.3106 0.08444 0.0
C776 C 0.00804 0.34735 0.14876 0.0
H777 H 0.96404 0.3103 0.31967 0.0
H778 H 0.95831 0.30346 0.25756 0.0
H779 H 0.02649 0.37016 0.19449 0.0
H780 H 0.01697 0.33401 0.0203 0.0
H781 H 0.02529 0.33529 0.08249 0.0
H782 H 0.9585 0.28066 0.14611 0.0
C783 C 0.97844 0.31731 0.26748 0.0
C784 C 0.01205 0.35028 0.18445 0.0
C785 C 0.98165 0.32135 0.30317 0.0
C786 C -7e-05 0.32725 0.03787 0.0
C787 C 0.00474 0.3281 0.07339 0.0
C788 C 0.97352 0.30018 0.15657 0.0
C789 C 0.00066 0.3316 0.24499 0.0
C790 C -0.00301 0.32814 0.20678 0.0
C791 C 0.98324 0.31994 0.09696 0.0
C792 C 0.98853 0.32238 0.13456 0.0
H793 H 0.04917 0.36873 0.30514 0.0
H794 H 0.044 0.36079 0.24312 0.0
H795 H 0.9663 0.28524 0.20838 0.0
H796 H 0.93157 0.30355 0.04006 0.0
H797 H 0.93994 0.30435 0.10218 0.0
C798 C 0.65814 0.99317 0.37897 0.0
C799 C 0.63333 0.97541 0.36263 0.0
C800 C 0.65976 -0.00468 0.41495 0.0
C801 C 0.62419 0.96067 0.49563 0.0
H802 H 0.66572 0.03308 0.53461 0.0
C803 C 0.6448 0.98017 0.64235 0.0
C804 C 0.64354 0.00235 0.6565 0.0
C805 C 0.64338 0.97608 0.60662 0.0
C806 C 0.65387 0.01273 0.52416 0.0
H807 H 0.59088 0.94556 0.37153 0.0
H808 H 0.59367 0.9496 0.43423 0.0
H809 H 0.66359 0.02716 0.47222 0.0
H810 H 0.63925 0.0373 0.64404 0.0
H811 H 0.63644 0.02995 0.5819 0.0
H812 H 0.61393 0.94636 0.54767 0.0
C813 C 0.61195 0.96163 0.41921 0.0
C814 C 0.65294 0.0093 0.48838 0.0
C815 C 0.61033 0.95943 0.38321 0.0
C816 C 0.64044 0.0201 0.63408 0.0
C817 C 0.639 0.01599 0.59839 0.0
C818 C 0.62511 0.96411 0.53148 0.0
C819 C 0.63662 0.97982 0.43549 0.0
C820 C 0.63804 0.98324 0.47365 0.0
C821 C 0.64065 -0.00595 0.58421 0.0
C822 C 0.63987 0.99021 0.54615 0.0
H823 H 0.67633 0.00565 0.364 0.0
H824 H 0.67919 0.00918 0.42668 0.0
H825 H 0.61273 0.9403 0.48514 0.0
H826 H 0.6472 0.96608 0.65881 0.0
H827 H 0.64498 0.95913 0.59652 0.0
C828 C 0.66469 0.6619 0.96754 0.0
C829 C 0.63922 0.6564 0.9803 0.0
C830 C 0.66888 0.66128 0.93205 0.0
C831 C 0.64032 0.66415 0.84702 0.0
H832 H 0.68334 0.63313 0.81358 0.0
C833 C 0.66712 0.66708 0.70268 0.0
C834 C 0.66558 0.64346 0.68878 0.0
C835 C 0.66538 0.6698 0.73833 0.0
C836 C 0.67113 0.6417 0.82246 0.0
H837 H 0.59811 0.64565 0.96562 0.0
H838 H 0.60528 0.64405 0.90392 0.0
H839 H 0.6767 0.63497 0.87545 0.0
H840 H 0.66118 0.60423 0.70166 0.0
H841 H 0.65766 0.60879 0.76362 0.0
H842 H 0.63396 0.67003 0.79402 0.0
C843 C 0.6222 0.6494 0.92127 0.0
C844 C 0.6676 0.64307 0.85799 0.0
C845 C 0.61804 0.65015 0.95672 0.0
C846 C 0.66255 0.62276 0.71143 0.0
C847 C 0.6607 0.62544 0.74704 0.0
C848 C 0.64376 0.66269 0.81151 0.0
C849 C 0.64768 0.65502 0.90847 0.0
C850 C 0.65202 0.65418 0.8707 0.0
C851 C 0.66195 0.64893 0.76094 0.0
C852 C 0.65909 0.65132 0.79877 0.0
H853 H 0.68152 0.66692 0.98492 0.0
H854 H 0.68887 0.66606 0.92307 0.0
H855 H 0.62851 0.67317 0.85591 0.0
H856 H 0.66961 0.6835 0.68603 0.0
H857 H 0.66684 0.68834 0.74819 0.0
C858 C -0.00559 0.66257 0.29781 0.0
C859 C 0.96859 0.64636 0.31258 0.0
C860 C -0.00262 0.66567 0.26201 0.0
C861 C 0.96125 0.63337 0.18025 0.0
H862 H 0.01828 0.70026 0.13999 0.0
C863 C 0.97454 0.65265 0.0328 0.0
C864 C 0.0008 0.66058 0.02057 0.0
C865 C 0.96967 0.65239 0.06824 0.0
C866 C 0.00229 0.68148 0.15096 0.0
H867 H 0.92551 0.62147 0.30147 0.0
H868 H 0.93052 0.62768 0.23916 0.0
H869 H 0.01102 0.69738 0.20233 0.0
H870 H 0.04268 0.67523 0.0358 0.0
H871 H 0.0342 0.67525 0.09763 0.0
H872 H 0.95234 0.61776 0.12858 0.0
C873 C 0.94864 0.6373 0.25506 0.0
C874 C -0.0018 0.67972 0.18667 0.0
C875 C 0.94573 0.63385 0.29084 0.0
C876 C 0.0222 0.66889 0.04443 0.0
C877 C 0.01741 0.66907 0.07978 0.0
C878 C 0.96508 0.6353 0.1445 0.0
C879 C 0.97455 0.65299 0.24011 0.0
C880 C 0.97787 0.6555 0.20187 0.0
C881 C -0.00894 0.66054 0.09202 0.0
C882 C 0.98585 0.65924 0.1296 0.0
H883 H 0.01246 0.67234 0.31385 0.0
H884 H 0.01771 0.67749 0.25153 0.0
H885 H 0.94572 0.61422 0.19093 0.0
H886 H 0.95762 0.6461 0.01506 0.0
H887 H 0.9492 0.64584 0.07709 0.0
loop_
_geom_bond_atom_site_label_1
_geom_bond_atom_site_label_2
_geom_bond_distance
_geom_bond_site_symmetry_2
_ccdc_geom_bond_type
Mg0 O1 2.028 . S
Mg0 O7 1.986 1_565 S
Mg0 O9 2.114 . S
Mg0 O10 2.251 1_565 S
Mg0 O13 2.010 . S
O1 Mg0 2.028 . S
O1 C4 1.250 1_565 S
O2 Mg3 2.028 . S
O2 C4 1.248 . S
Mg3 O2 2.028 . S
Mg3 O8 2.032 . S
Mg3 O10 2.079 . S
C4 O1 1.250 1_545 S
C4 O2 1.248 . S
C5 O6 1.264 . S
C5 O13 1.249 . S
O6 C5 1.264 . S
O7 Mg0 1.986 1_545 S
O7 C11 1.246 . S
O8 Mg3 2.032 . S
O8 C11 1.259 . S
O9 Mg0 2.114 . S
O9 C12 1.252 . S
O10 Mg0 2.251 1_545 S
O10 Mg3 2.079 . S
O10 C12 1.273 1_545 S
C11 O7 1.246 . S
C11 O8 1.259 . S
C12 O9 1.252 . S
C12 O10 1.273 1_565 S
O13 Mg0 2.010 . S
O13 C5 1.249 . S
Mg14 O15 2.028 . S
Mg14 O21 1.986 . S
Mg14 O23 2.114 . S
Mg14 O24 2.251 . S
Mg14 O27 2.010 . S
O15 Mg14 2.028 . S
O15 C18 1.250 . S
O16 Mg17 2.028 . S
O16 C18 1.248 . S
Mg17 O16 2.028 . S
Mg17 O22 2.032 . S
Mg17 O24 2.079 . S
C18 O15 1.250 . S
C18 O16 1.248 . S
C19 O20 1.264 . S
C19 O27 1.249 . S
O20 C19 1.264 . S
O21 Mg14 1.986 . S
O21 C25 1.246 . S
O22 Mg17 2.032 . S
O22 C25 1.259 . S
O23 Mg14 2.114 . S
O23 C26 1.252 . S
O24 Mg14 2.251 . S
O24 Mg17 2.079 . S
O24 C26 1.273 . S
C25 O21 1.246 . S
C25 O22 1.259 . S
C26 O23 1.252 . S
C26 O24 1.273 . S
O27 Mg14 2.010 . S
O27 C19 1.249 . S
Mg28 O29 2.028 . S
Mg28 O35 1.986 1_455 S
Mg28 O37 2.114 . S
Mg28 O38 2.251 1_455 S
Mg28 O41 2.010 . S
O29 Mg28 2.028 . S
O29 C32 1.250 1_456 S
O30 Mg31 2.028 1_554 S
O30 C32 1.248 . S
Mg31 O30 2.028 1_556 S
Mg31 O36 2.032 . S
Mg31 O38 2.079 . S
C32 O29 1.250 1_654 S
C32 O30 1.248 . S
C33 O34 1.264 . S
C33 O41 1.249 . S
O34 C33 1.264 . S
O35 Mg28 1.986 1_655 S
O35 C39 1.246 . S
O36 Mg31 2.032 . S
O36 C39 1.259 . S
O37 Mg28 2.114 . S
O37 C40 1.299 . S
O38 Mg28 2.251 1_655 S
O38 Mg31 2.079 . S
O38 C40 1.250 1_655 S
C39 O35 1.246 . S
C39 O36 1.259 . S
C40 O37 1.299 . S
C40 O38 1.250 1_455 S
O41 Mg28 2.010 . S
O41 C33 1.249 . S
Mg42 O43 2.028 . S
Mg42 O49 1.986 1_545 S
Mg42 O51 2.114 . S
Mg42 O52 2.251 1_545 S
Mg42 O55 2.010 . S
O43 Mg42 2.028 . S
O43 C46 1.250 1_545 S
O44 Mg45 2.028 . S
O44 C46 1.248 . S
Mg45 O44 2.028 . S
Mg45 O50 2.032 . S
Mg45 O52 2.079 . S
C46 O43 1.250 1_565 S
C46 O44 1.248 . S
C47 O48 1.264 . S
C47 O55 1.249 . S
O48 C47 1.264 . S
O49 Mg42 1.986 1_565 S
O49 C53 1.246 . S
O50 Mg45 2.032 . S
O50 C53 1.259 . S
O51 Mg42 2.114 . S
O51 C54 1.252 . S
O52 Mg42 2.251 1_565 S
O52 Mg45 2.079 . S
O52 C54 1.273 1_565 S
C53 O49 1.246 . S
C53 O50 1.259 . S
C54 O51 1.252 . S
C54 O52 1.273 1_545 S
O55 Mg42 2.010 . S
O55 C47 1.249 . S
Mg56 O57 2.028 . S
Mg56 O63 1.986 . S
Mg56 O65 2.114 . S
Mg56 O66 2.251 . S
Mg56 O69 2.010 . S
O57 Mg56 2.028 . S
O57 C60 1.250 . S
O58 Mg59 2.028 . S
O58 C60 1.248 . S
Mg59 O58 2.028 . S
Mg59 O64 2.032 . S
Mg59 O66 2.079 . S
C60 O57 1.250 . S
C60 O58 1.248 . S
C61 O62 1.264 . S
C61 O69 1.249 . S
O62 C61 1.264 . S
O63 Mg56 1.986 . S
O63 C67 1.246 . S
O64 Mg59 2.032 . S
O64 C67 1.259 . S
O65 Mg56 2.114 . S
O65 C68 1.252 . S
O66 Mg56 2.251 . S
O66 Mg59 2.079 . S
O66 C68 1.273 . S
C67 O63 1.246 . S
C67 O64 1.259 . S
C68 O65 1.252 . S
C68 O66 1.273 . S
O69 Mg56 2.010 . S
O69 C61 1.249 . S
Mg70 O71 2.028 . S
Mg70 O77 1.986 1_655 S
Mg70 O79 2.114 . S
Mg70 O80 2.251 1_655 S
Mg70 O83 2.010 . S
O71 Mg70 2.028 . S
O71 C74 1.250 1_656 S
O72 Mg73 2.028 1_554 S
O72 C74 1.248 . S
Mg73 O72 2.028 1_556 S
Mg73 O78 2.032 . S
Mg73 O80 2.079 . S
C74 O71 1.250 1_454 S
C74 O72 1.248 . S
C75 O76 1.264 . S
C75 O83 1.249 . S
O76 C75 1.264 . S
O77 Mg70 1.986 1_455 S
O77 C81 1.246 . S
O78 Mg73 2.032 . S
O78 C81 1.259 . S
O79 Mg70 2.114 . S
O79 C82 1.299 . S
O80 Mg70 2.251 1_455 S
O80 Mg73 2.079 . S
O80 C82 1.250 1_455 S
C81 O77 1.246 . S
C81 O78 1.259 . S
C82 O79 1.299 . S
C82 O80 1.250 1_655 S
O83 Mg70 2.010 . S
O83 C75 1.249 . S
Mg84 O85 2.028 . S
Mg84 O91 1.986 1_455 S
Mg84 O93 2.114 . S
Mg84 O94 2.251 1_455 S
Mg84 O97 2.010 . S
O85 Mg84 2.028 . S
O85 C88 1.250 1_455 S
O86 Mg87 2.028 . S
O86 C88 1.248 . S
Mg87 O86 2.028 . S
Mg87 O92 2.032 . S
Mg87 O94 2.079 . S
C88 O85 1.250 1_655 S
C88 O86 1.248 . S
C89 O90 1.264 . S
C89 O97 1.249 . S
O90 C89 1.264 . S
O91 Mg84 1.986 1_655 S
O91 C95 1.246 . S
O92 Mg87 2.032 . S
O92 C95 1.259 . S
O93 Mg84 2.114 . S
O93 C96 1.252 . S
O94 Mg84 2.251 1_655 S
O94 Mg87 2.079 . S
O94 C96 1.273 1_655 S
C95 O91 1.246 . S
C95 O92 1.259 . S
C96 O93 1.252 . S
C96 O94 1.273 1_455 S
O97 Mg84 2.010 . S
O97 C89 1.249 . S
Mg98 O99 2.028 . S
Mg98 O105 1.986 1_545 S
Mg98 O107 2.114 . S
Mg98 O108 2.251 1_545 S
Mg98 O111 2.010 . S
O99 Mg98 2.028 . S
O99 C102 1.250 1_545 S
O100 Mg101 2.028 . S
O100 C102 1.248 . S
Mg101 O100 2.028 . S
Mg101 O106 2.032 . S
Mg101 O108 2.079 . S
C102 O99 1.250 1_565 S
C102 O100 1.248 . S
C103 O104 1.264 . S
C103 O111 1.249 . S
O104 C103 1.264 . S
O105 Mg98 1.986 1_565 S
O105 C109 1.246 . S
O106 Mg101 2.032 . S
O106 C109 1.259 . S
O107 Mg98 2.114 . S
O107 C110 1.299 . S
O108 Mg98 2.251 1_565 S
O108 Mg101 2.079 . S
O108 C110 1.250 1_565 S
C109 O105 1.246 . S
C109 O106 1.259 . S
C110 O107 1.299 . S
C110 O108 1.250 1_545 S
O111 Mg98 2.010 . S
O111 C103 1.249 . S
Mg112 O113 2.028 . S
Mg112 O119 1.986 . S
Mg112 O121 2.114 . S
Mg112 O122 2.251 . S
Mg112 O125 2.010 . S
O113 Mg112 2.028 . S
O113 C116 1.250 1_554 S
O114 Mg115 2.024 1_556 S
O114 C116 1.249 . S
Mg115 O114 2.024 1_554 S
Mg115 O120 2.032 . S
Mg115 O122 2.079 . S
C116 O113 1.250 1_556 S
C116 O114 1.249 . S
C117 O118 1.264 . S
C117 O125 1.249 . S
O118 C117 1.264 . S
O119 Mg112 1.986 . S
O119 C123 1.246 . S
O120 Mg115 2.032 . S
O120 C123 1.259 . S
O121 Mg112 2.114 . S
O121 C124 1.252 . S
O122 Mg112 2.251 . S
O122 Mg115 2.079 . S
O122 C124 1.273 . S
C123 O119 1.246 . S
C123 O120 1.259 . S
C124 O121 1.252 . S
C124 O122 1.273 . S
O125 Mg112 2.010 . S
O125 C117 1.249 . S
Mg126 O127 2.028 . S
Mg126 O133 1.986 1_655 S
Mg126 O135 2.114 . S
Mg126 O136 2.251 1_655 S
Mg126 O139 2.010 . S
O127 Mg126 2.028 . S
O127 C130 1.250 1_655 S
O128 Mg129 2.028 . S
O128 C130 1.248 . S
Mg129 O128 2.028 . S
Mg129 O134 2.032 . S
Mg129 O136 2.079 . S
C130 O127 1.250 1_455 S
C130 O128 1.248 . S
C131 O132 1.264 . S
C131 O139 1.249 . S
O132 C131 1.264 . S
O133 Mg126 1.986 1_455 S
O133 C137 1.246 . S
O134 Mg129 2.032 . S
O134 C137 1.259 . S
O135 Mg126 2.114 . S
O135 C138 1.252 . S
O136 Mg126 2.251 1_455 S
O136 Mg129 2.079 . S
O136 C138 1.273 1_455 S
C137 O133 1.246 . S
C137 O134 1.259 . S
C138 O135 1.252 . S
C138 O136 1.273 1_655 S
O139 Mg126 2.010 . S
O139 C131 1.249 . S
Mg140 O141 2.028 . S
Mg140 O147 1.986 1_565 S
Mg140 O149 2.114 . S
Mg140 O150 2.251 1_565 S
Mg140 O153 2.010 . S
O141 Mg140 2.028 . S
O141 C144 1.250 1_565 S
O142 Mg143 2.028 . S
O142 C144 1.248 . S
Mg143 O142 2.028 . S
Mg143 O148 2.032 . S
Mg143 O150 2.079 . S
C144 O141 1.250 1_545 S
C144 O142 1.248 . S
C145 O146 1.264 . S
C145 O153 1.249 . S
O146 C145 1.264 . S
O147 Mg140 1.986 1_545 S
O147 C151 1.246 . S
O148 Mg143 2.032 . S
O148 C151 1.259 . S
O149 Mg140 2.114 . S
O149 C152 1.299 . S
O150 Mg140 2.251 1_545 S
O150 Mg143 2.079 . S
O150 C152 1.250 1_545 S
C151 O147 1.246 . S
C151 O148 1.259 . S
C152 O149 1.299 . S
C152 O150 1.250 1_565 S
O153 Mg140 2.010 . S
O153 C145 1.249 . S
Mg154 O155 2.028 . S
Mg154 O161 1.986 . S
Mg154 O163 2.114 . S
Mg154 O164 2.251 . S
Mg154 O167 2.010 . S
O155 Mg154 2.028 . S
O155 C158 1.250 1_554 S
O156 Mg157 2.024 1_556 S
O156 C158 1.249 . S
Mg157 O156 2.024 1_554 S
Mg157 O162 2.032 . S
Mg157 O164 2.079 . S
C158 O155 1.250 1_556 S
C158 O156 1.249 . S
C159 O160 1.264 . S
C159 O167 1.249 . S
O160 C159 1.264 . S
O161 Mg154 1.986 . S
O161 C165 1.246 . S
O162 Mg157 2.032 . S
O162 C165 1.259 . S
O163 Mg154 2.114 . S
O163 C166 1.252 . S
O164 Mg154 2.251 . S
O164 Mg157 2.079 . S
O164 C166 1.273 . S
C165 O161 1.246 . S
C165 O162 1.259 . S
C166 O163 1.252 . S
C166 O164 1.273 . S
O167 Mg154 2.010 . S
O167 C159 1.249 . S
C168 C169 1.349 . S
C168 C170 1.327 . S
C168 H193 0.950 . S
C169 C168 1.349 . S
C169 C185 1.349 . S
C170 C168 1.327 . S
C170 C189 1.429 . S
C170 H194 0.950 . S
C171 C188 1.574 . S
C171 C190 1.368 . S
C171 H195 0.949 . S
H172 C176 0.949 . S
C173 C174 1.349 . S
C173 C175 1.327 . S
C173 H196 0.950 . S
C174 C173 1.349 . S
C174 C186 1.349 . S
C175 C173 1.327 . S
C175 C191 1.429 . S
C175 H197 0.950 . S
C176 H172 0.949 . S
C176 C184 1.574 . S
C176 C192 1.368 . S
H177 C185 0.950 . S
H178 C183 0.950 . S
H179 C184 0.949 . S
H180 C186 0.950 . S
H181 C187 0.950 . S
H182 C188 0.949 . S
C183 H178 0.950 . S
C183 C185 1.327 . S
C183 C189 1.429 . S
C184 C176 1.574 . S
C184 H179 0.949 . S
C184 C190 1.368 . S
C185 C169 1.349 . S
C185 H177 0.950 . S
C185 C183 1.327 . S
C186 C174 1.349 . S
C186 H180 0.950 . S
C186 C187 1.327 . S
C187 H181 0.950 . S
C187 C186 1.327 . S
C187 C191 1.429 . S
C188 C171 1.574 . S
C188 H182 0.949 . S
C188 C192 1.368 . S
C189 C170 1.429 . S
C189 C183 1.429 . S
C189 C190 1.523 . S
C190 C171 1.368 . S
C190 C184 1.368 . S
C190 C189 1.523 . S
C191 C175 1.429 . S
C191 C187 1.429 . S
C191 C192 1.523 . S
C192 C176 1.368 . S
C192 C188 1.368 . S
C192 C191 1.523 . S
H193 C168 0.950 . S
H194 C170 0.950 . S
H195 C171 0.949 . S
H196 C173 0.950 . S
H197 C175 0.950 . S
C198 C199 1.349 . S
C198 C200 1.327 . S
C198 H223 0.950 . S
C199 C198 1.349 . S
C199 C215 1.349 . S
C200 C198 1.327 . S
C200 C219 1.429 . S
C200 H224 0.950 . S
C201 C218 1.574 . S
C201 C220 1.368 . S
C201 H225 0.949 . S
H202 C206 0.949 . S
C203 C204 1.349 . S
C203 C205 1.327 . S
C203 H226 0.950 . S
C204 C203 1.349 . S
C204 C216 1.349 . S
C205 C203 1.327 . S
C205 C221 1.429 . S
C205 H227 0.950 . S
C206 H202 0.949 . S
C206 C214 1.574 . S
C206 C222 1.368 . S
H207 C215 0.950 . S
H208 C213 0.950 . S
H209 C214 0.949 . S
H210 C216 0.950 . S
H211 C217 0.950 . S
H212 C218 0.949 . S
C213 H208 0.950 . S
C213 C215 1.327 . S
C213 C219 1.429 . S
C214 C206 1.574 . S
C214 H209 0.949 . S
C214 C220 1.368 . S
C215 C199 1.349 . S
C215 H207 0.950 . S
C215 C213 1.327 . S
C216 C204 1.349 . S
C216 H210 0.950 . S
C216 C217 1.327 . S
C217 H211 0.950 . S
C217 C216 1.327 . S
C217 C221 1.429 . S
C218 C201 1.574 . S
C218 H212 0.949 . S
C218 C222 1.368 . S
C219 C200 1.429 . S
C219 C213 1.429 . S
C219 C220 1.523 . S
C220 C201 1.368 . S
C220 C214 1.368 . S
C220 C219 1.523 . S
C221 C205 1.429 . S
C221 C217 1.429 . S
C221 C222 1.523 . S
C222 C206 1.368 . S
C222 C218 1.368 . S
C222 C221 1.523 . S
H223 C198 0.950 . S
H224 C200 0.950 . S
H225 C201 0.949 . S
H226 C203 0.950 . S
H227 C205 0.950 . S
C228 C229 1.349 . S
C228 C230 1.327 . S
C228 H253 0.950 . S
C229 C228 1.349 . S
C229 C245 1.349 . S
C230 C228 1.327 . S
C230 C249 1.429 . S
C230 H254 0.950 . S
C231 C248 1.574 . S
C231 C250 1.368 . S
C231 H255 0.949 . S
H232 C236 0.949 . S
C233 C234 1.349 . S
C233 C235 1.327 . S
C233 H256 0.950 . S
C234 C233 1.349 . S
C234 C246 1.349 . S
C235 C233 1.327 . S
C235 C251 1.429 . S
C235 H257 0.950 . S
C236 H232 0.949 . S
C236 C244 1.574 . S
C236 C252 1.368 . S
H237 C245 0.950 . S
H238 C243 0.950 . S
H239 C244 0.949 . S
H240 C246 0.950 . S
H241 C247 0.950 . S
H242 C248 0.949 . S
C243 H238 0.950 . S
C243 C245 1.327 . S
C243 C249 1.429 . S
C244 C236 1.574 . S
C244 H239 0.949 . S
C244 C250 1.368 . S
C245 C229 1.349 . S
C245 H237 0.950 . S
C245 C243 1.327 . S
C246 C234 1.349 . S
C246 H240 0.950 . S
C246 C247 1.327 . S
C247 H241 0.950 . S
C247 C246 1.327 . S
C247 C251 1.429 . S
C248 C231 1.574 . S
C248 H242 0.949 . S
C248 C252 1.368 . S
C249 C230 1.429 . S
C249 C243 1.429 . S
C249 C250 1.523 . S
C250 C231 1.368 . S
C250 C244 1.368 . S
C250 C249 1.523 . S
C251 C235 1.429 . S
C251 C247 1.429 . S
C251 C252 1.523 . S
C252 C236 1.368 . S
C252 C248 1.368 . S
C252 C251 1.523 . S
H253 C228 0.950 . S
H254 C230 0.950 . S
H255 C231 0.949 . S
H256 C233 0.950 . S
H257 C235 0.950 . S
C258 C259 1.349 . S
C258 C260 1.327 . S
C258 H283 0.950 . S
C259 C258 1.349 . S
C259 C275 1.349 . S
C260 C258 1.327 . S
C260 C279 1.429 . S
C260 H284 0.950 . S
C261 C278 1.574 . S
C261 C280 1.368 . S
C261 H285 0.949 . S
H262 C266 0.949 . S
C263 C264 1.349 . S
C263 C265 1.327 . S
C263 H286 0.950 . S
C264 C263 1.349 . S
C264 C276 1.349 . S
C265 C263 1.327 . S
C265 C281 1.429 . S
C265 H287 0.950 . S
C266 H262 0.949 . S
C266 C274 1.574 . S
C266 C282 1.368 . S
H267 C275 0.950 . S
H268 C273 0.950 . S
H269 C274 0.949 . S
H270 C276 0.950 . S
H271 C277 0.950 . S
H272 C278 0.949 . S
C273 H268 0.950 . S
C273 C275 1.327 . S
C273 C279 1.429 . S
C274 C266 1.574 . S
C274 H269 0.949 . S
C274 C280 1.368 . S
C275 C259 1.349 . S
C275 H267 0.950 . S
C275 C273 1.327 . S
C276 C264 1.349 . S
C276 H270 0.950 . S
C276 C277 1.327 . S
C277 H271 0.950 . S
C277 C276 1.327 . S
C277 C281 1.429 . S
C278 C261 1.574 . S
C278 H272 0.949 . S
C278 C282 1.368 . S
C279 C260 1.429 . S
C279 C273 1.429 . S
C279 C280 1.523 . S
C280 C261 1.368 . S
C280 C274 1.368 . S
C280 C279 1.523 . S
C281 C265 1.429 . S
C281 C277 1.429 . S
C281 C282 1.523 . S
C282 C266 1.368 . S
C282 C278 1.368 . S
C282 C281 1.523 . S
H283 C258 0.950 . S
H284 C260 0.950 . S
H285 C261 0.949 . S
H286 C263 0.950 . S
H287 C265 0.950 . S
C288 C289 1.349 . S
C288 C290 1.327 . S
C288 H313 0.950 . S
C289 C288 1.349 . S
C289 C305 1.349 . S
C290 C288 1.327 . S
C290 C309 1.429 . S
C290 H314 0.950 . S
C291 C308 1.574 . S
C291 C310 1.368 . S
C291 H315 0.949 . S
H292 C296 0.949 . S
C293 C294 1.349 . S
C293 C295 1.327 . S
C293 H316 0.950 . S
C294 C293 1.349 . S
C294 C306 1.349 . S
C295 C293 1.327 . S
C295 C311 1.429 . S
C295 H317 0.950 . S
C296 H292 0.949 . S
C296 C304 1.574 . S
C296 C312 1.368 . S
H297 C305 0.950 . S
H298 C303 0.950 . S
H299 C304 0.949 . S
H300 C306 0.950 . S
H301 C307 0.950 . S
H302 C308 0.949 . S
C303 H298 0.950 . S
C303 C305 1.327 . S
C303 C309 1.429 . S
C304 C296 1.574 . S
C304 H299 0.949 . S
C304 C310 1.368 . S
C305 C289 1.349 . S
C305 H297 0.950 . S
C305 C303 1.327 . S
C306 C294 1.349 . S
C306 H300 0.950 . S
C306 C307 1.327 . S
C307 H301 0.950 . S
C307 C306 1.327 . S
C307 C311 1.429 . S
C308 C291 1.574 . S
C308 H302 0.949 . S
C308 C312 1.368 . S
C309 C290 1.429 . S
C309 C303 1.429 . S
C309 C310 1.523 . S
C310 C291 1.368 . S
C310 C304 1.368 . S
C310 C309 1.523 . S
C311 C295 1.429 . S
C311 C307 1.429 . S
C311 C312 1.523 . S
C312 C296 1.368 . S
C312 C308 1.368 . S
C312 C311 1.523 . S
H313 C288 0.950 . S
H314 C290 0.950 . S
H315 C291 0.949 . S
H316 C293 0.950 . S
H317 C295 0.950 . S
C318 C319 1.349 . S
C318 C320 1.327 . S
C318 H343 0.950 . S
C319 C318 1.349 . S
C319 C335 1.349 . S
C320 C318 1.327 . S
C320 C339 1.429 . S
C320 H344 0.950 . S
C321 C338 1.574 . S
C321 C340 1.368 . S
C321 H345 0.949 . S
H322 C326 0.949 . S
C323 C324 1.349 . S
C323 C325 1.327 . S
C323 H346 0.950 . S
C324 C323 1.349 . S
C324 C336 1.349 . S
C325 C323 1.327 . S
C325 C341 1.429 . S
C325 H347 0.950 . S
C326 H322 0.949 . S
C326 C334 1.574 . S
C326 C342 1.368 . S
H327 C335 0.950 . S
H328 C333 0.950 . S
H329 C334 0.949 . S
H330 C336 0.950 . S
H331 C337 0.950 . S
H332 C338 0.949 . S
C333 H328 0.950 . S
C333 C335 1.327 . S
C333 C339 1.429 . S
C334 C326 1.574 . S
C334 H329 0.949 . S
C334 C340 1.368 . S
C335 C319 1.349 . S
C335 H327 0.950 . S
C335 C333 1.327 . S
C336 C324 1.349 . S
C336 H330 0.950 . S
C336 C337 1.327 . S
C337 H331 0.950 . S
C337 C336 1.327 . S
C337 C341 1.429 . S
C338 C321 1.574 . S
C338 H332 0.949 . S
C338 C342 1.368 . S
C339 C320 1.429 . S
C339 C333 1.429 . S
C339 C340 1.523 . S
C340 C321 1.368 . S
C340 C334 1.368 . S
C340 C339 1.523 . S
C341 C325 1.429 . S
C341 C337 1.429 . S
C341 C342 1.523 . S
C342 C326 1.368 . S
C342 C338 1.368 . S
C342 C341 1.523 . S
H343 C318 0.950 . S
H344 C320 0.950 . S
H345 C321 0.949 . S
H346 C323 0.950 . S
H347 C325 0.950 . S
C348 C349 1.380 . S
C348 C350 1.327 . S
C348 H373 0.950 . S
C349 C348 1.380 . S
C349 C365 1.341 1_565 S
C350 C348 1.327 . S
C350 C369 1.431 . S
C350 H374 0.950 . S
C351 C368 1.574 . S
C351 C370 1.368 1_545 S
C351 H375 0.949 . S
H352 C356 0.949 . S
C353 C354 1.349 . S
C353 C355 1.327 . S
C353 H376 0.950 . S
C354 C353 1.349 . S
C354 C366 1.349 1_545 S
C355 C353 1.327 . S
C355 C371 1.433 . S
C355 H377 0.950 . S
C356 H352 0.949 . S
C356 C364 1.574 . S
C356 C372 1.365 1_565 S
H357 C365 0.950 . S
H358 C363 0.950 . S
H359 C364 0.949 . S
H360 C366 0.950 . S
H361 C367 0.950 . S
H362 C368 0.949 . S
C363 H358 0.950 . S
C363 C365 1.327 . S
C363 C369 1.417 1_545 S
C364 C356 1.574 . S
C364 H359 0.949 . S
C364 C370 1.370 . S
C365 C349 1.341 1_545 S
C365 H357 0.950 . S
C365 C363 1.327 . S
C366 C354 1.349 1_565 S
C366 H360 0.950 . S
C366 C367 1.327 . S
C367 H361 0.950 . S
C367 C366 1.327 . S
C367 C371 1.409 1_565 S
C368 C351 1.574 . S
C368 H362 0.949 . S
C368 C372 1.377 . S
C369 C350 1.431 . S
C369 C363 1.417 1_565 S
C369 C370 1.530 . S
C370 C351 1.368 1_565 S
C370 C364 1.370 . S
C370 C369 1.530 . S
C371 C355 1.433 . S
C371 C367 1.409 1_545 S
C371 C372 1.530 . S
C372 C356 1.365 1_545 S
C372 C368 1.377 . S
C372 C371 1.530 . S
H373 C348 0.950 . S
H374 C350 0.950 . S
H375 C351 0.949 . S
H376 C353 0.950 . S
H377 C355 0.950 . S
C378 C379 1.349 . S
C378 C380 1.327 . S
C378 H403 0.950 . S
C379 C378 1.349 . S
C379 C395 1.349 . S
C380 C378 1.327 . S
C380 C399 1.429 . S
C380 H404 0.950 . S
C381 C398 1.574 . S
C381 C400 1.368 . S
C381 H405 0.949 . S
H382 C386 0.949 . S
C383 C384 1.349 . S
C383 C385 1.327 . S
C383 H406 0.950 . S
C384 C383 1.349 . S
C384 C396 1.349 . S
C385 C383 1.327 . S
C385 C401 1.429 . S
C385 H407 0.950 . S
C386 H382 0.949 . S
C386 C394 1.574 . S
C386 C402 1.368 . S
H387 C395 0.950 . S
H388 C393 0.950 . S
H389 C394 0.949 . S
H390 C396 0.950 . S
H391 C397 0.950 . S
H392 C398 0.949 . S
C393 H388 0.950 . S
C393 C395 1.327 . S
C393 C399 1.429 . S
C394 C386 1.574 . S
C394 H389 0.949 . S
C394 C400 1.368 . S
C395 C379 1.349 . S
C395 H387 0.950 . S
C395 C393 1.327 . S
C396 C384 1.349 . S
C396 H390 0.950 . S
C396 C397 1.327 . S
C397 H391 0.950 . S
C397 C396 1.327 . S
C397 C401 1.429 . S
C398 C381 1.574 . S
C398 H392 0.949 . S
C398 C402 1.368 . S
C399 C380 1.429 . S
C399 C393 1.429 . S
C399 C400 1.523 . S
C400 C381 1.368 . S
C400 C394 1.368 . S
C400 C399 1.523 . S
C401 C385 1.429 . S
C401 C397 1.429 . S
C401 C402 1.523 . S
C402 C386 1.368 . S
C402 C398 1.368 . S
C402 C401 1.523 . S
H403 C378 0.950 . S
H404 C380 0.950 . S
H405 C381 0.949 . S
H406 C383 0.950 . S
H407 C385 0.950 . S
C408 C409 1.321 1_455 S
C408 C410 1.327 . S
C408 H433 0.950 . S
C409 C408 1.321 1_655 S
C409 C425 1.357 . S
C410 C408 1.327 . S
C410 C429 1.426 1_455 S
C410 H434 0.950 . S
C411 C428 1.574 . S
C411 C430 1.369 . S
C411 H435 0.949 . S
H412 C416 0.949 . S
C413 C414 1.349 1_655 S
C413 C415 1.327 . S
C413 H436 0.950 . S
C414 C413 1.349 1_455 S
C414 C426 1.349 . S
C415 C413 1.327 . S
C415 C431 1.425 1_655 S
C415 H437 0.950 . S
C416 H412 0.949 . S
C416 C424 1.574 . S
C416 C432 1.372 . S
H417 C425 0.950 . S
H418 C423 0.950 . S
H419 C424 0.949 . S
H420 C426 0.950 . S
H421 C427 0.950 . S
H422 C428 0.949 . S
C423 H418 0.950 . S
C423 C425 1.327 . S
C423 C429 1.439 . S
C424 C416 1.574 . S
C424 H419 0.949 . S
C424 C430 1.368 1_455 S
C425 C409 1.357 . S
C425 H417 0.950 . S
C425 C423 1.327 . S
C426 C414 1.349 . S
C426 H420 0.950 . S
C426 C427 1.327 . S
C427 H421 0.950 . S
C427 C426 1.327 . S
C427 C431 1.447 . S
C428 C411 1.574 . S
C428 H422 0.949 . S
C428 C432 1.360 1_655 S
C429 C410 1.426 1_655 S
C429 C423 1.439 . S
C429 C430 1.516 . S
C430 C411 1.369 . S
C430 C424 1.368 1_655 S
C430 C429 1.516 . S
C431 C415 1.425 1_455 S
C431 C427 1.447 . S
C431 C432 1.516 . S
C432 C416 1.372 . S
C432 C428 1.360 1_455 S
C432 C431 1.516 . S
H433 C408 0.950 . S
H434 C410 0.950 . S
H435 C411 0.949 . S
H436 C413 0.950 . S
H437 C415 0.950 . S
C438 C439 1.341 1_655 S
C438 C440 1.327 . S
C438 H463 0.950 . S
C439 C438 1.341 1_455 S
C439 C455 1.380 . S
C440 C438 1.327 . S
C440 C459 1.417 1_655 S
C440 H464 0.950 . S
C441 C458 1.574 . S
C441 C460 1.370 . S
C441 H465 0.949 . S
H442 C446 0.949 . S
C443 C444 1.349 1_455 S
C443 C445 1.327 . S
C443 H466 0.950 . S
C444 C443 1.349 1_655 S
C444 C456 1.349 . S
C445 C443 1.327 . S
C445 C461 1.409 1_455 S
C445 H467 0.950 . S
C446 H442 0.949 . S
C446 C454 1.574 . S
C446 C462 1.377 . S
H447 C455 0.950 . S
H448 C453 0.950 . S
H449 C454 0.949 . S
H450 C456 0.950 . S
H451 C457 0.950 . S
H452 C458 0.949 . S
C453 H448 0.950 . S
C453 C455 1.327 . S
C453 C459 1.431 . S
C454 C446 1.574 . S
C454 H449 0.949 . S
C454 C460 1.368 1_655 S
C455 C439 1.380 . S
C455 H447 0.950 . S
C455 C453 1.327 . S
C456 C444 1.349 . S
C456 H450 0.950 . S
C456 C457 1.327 . S
C457 H451 0.950 . S
C457 C456 1.327 . S
C457 C461 1.433 . S
C458 C441 1.574 . S
C458 H452 0.949 . S
C458 C462 1.365 1_455 S
C459 C440 1.417 1_455 S
C459 C453 1.431 . S
C459 C460 1.530 . S
C460 C441 1.370 . S
C460 C454 1.368 1_455 S
C460 C459 1.530 . S
C461 C445 1.409 1_655 S
C461 C457 1.433 . S
C461 C462 1.530 . S
C462 C446 1.377 . S
C462 C458 1.365 1_655 S
C462 C461 1.530 . S
H463 C438 0.950 . S
H464 C440 0.950 . S
H465 C441 0.949 . S
H466 C443 0.950 . S
H467 C445 0.950 . S
C468 C469 1.321 1_545 S
C468 C470 1.327 . S
C468 H493 0.950 . S
C469 C468 1.321 1_565 S
C469 C485 1.357 . S
C470 C468 1.327 . S
C470 C489 1.426 1_545 S
C470 H494 0.950 . S
C471 C488 1.574 . S
C471 C490 1.369 . S
C471 H495 0.949 . S
H472 C476 0.949 . S
C473 C474 1.349 1_565 S
C473 C475 1.327 . S
C473 H496 0.950 . S
C474 C473 1.349 1_545 S
C474 C486 1.349 . S
C475 C473 1.327 . S
C475 C491 1.425 1_565 S
C475 H497 0.950 . S
C476 H472 0.949 . S
C476 C484 1.574 . S
C476 C492 1.372 . S
H477 C485 0.950 . S
H478 C483 0.950 . S
H479 C484 0.949 . S
H480 C486 0.950 . S
H481 C487 0.950 . S
H482 C488 0.949 . S
C483 H478 0.950 . S
C483 C485 1.327 . S
C483 C489 1.439 . S
C484 C476 1.574 . S
C484 H479 0.949 . S
C484 C490 1.368 1_545 S
C485 C469 1.357 . S
C485 H477 0.950 . S
C485 C483 1.327 . S
C486 C474 1.349 . S
C486 H480 0.950 . S
C486 C487 1.327 . S
C487 H481 0.950 . S
C487 C486 1.327 . S
C487 C491 1.447 . S
C488 C471 1.574 . S
C488 H482 0.949 . S
C488 C492 1.360 1_565 S
C489 C470 1.426 1_565 S
C489 C483 1.439 . S
C489 C490 1.516 . S
C490 C471 1.369 . S
C490 C484 1.368 1_565 S
C490 C489 1.516 . S
C491 C475 1.425 1_545 S
C491 C487 1.447 . S
C491 C492 1.516 . S
C492 C476 1.372 . S
C492 C488 1.360 1_545 S
C492 C491 1.516 . S
H493 C468 0.950 . S
H494 C470 0.950 . S
H495 C471 0.949 . S
H496 C473 0.950 . S
H497 C475 0.950 . S
C498 C499 1.349 . S
C498 C500 1.327 . S
C498 H523 0.950 . S
C499 C498 1.349 . S
C499 C515 1.349 . S
C500 C498 1.327 . S
C500 C519 1.429 . S
C500 H524 0.950 . S
C501 C518 1.574 . S
C501 C520 1.368 . S
C501 H525 0.949 . S
H502 C506 0.949 . S
C503 C504 1.349 . S
C503 C505 1.327 . S
C503 H526 0.950 . S
C504 C503 1.349 . S
C504 C516 1.349 . S
C505 C503 1.327 . S
C505 C521 1.429 . S
C505 H527 0.950 . S
C506 H502 0.949 . S
C506 C514 1.574 . S
C506 C522 1.368 . S
H507 C515 0.950 . S
H508 C513 0.950 . S
H509 C514 0.949 . S
H510 C516 0.950 . S
H511 C517 0.950 . S
H512 C518 0.949 . S
C513 H508 0.950 . S
C513 C515 1.327 . S
C513 C519 1.429 . S
C514 C506 1.574 . S
C514 H509 0.949 . S
C514 C520 1.368 . S
C515 C499 1.349 . S
C515 H507 0.950 . S
C515 C513 1.327 . S
C516 C504 1.349 . S
C516 H510 0.950 . S
C516 C517 1.327 . S
C517 H511 0.950 . S
C517 C516 1.327 . S
C517 C521 1.429 . S
C518 C501 1.574 . S
C518 H512 0.949 . S
C518 C522 1.368 . S
C519 C500 1.429 . S
C519 C513 1.429 . S
C519 C520 1.523 . S
C520 C501 1.368 . S
C520 C514 1.368 . S
C520 C519 1.523 . S
C521 C505 1.429 . S
C521 C517 1.429 . S
C521 C522 1.523 . S
C522 C506 1.368 . S
C522 C518 1.368 . S
C522 C521 1.523 . S
H523 C498 0.950 . S
H524 C500 0.950 . S
H525 C501 0.949 . S
H526 C503 0.950 . S
H527 C505 0.950 . S
C528 C529 1.349 . S
C528 C530 1.327 . S
C528 H553 0.950 . S
C529 C528 1.349 . S
C529 C545 1.349 . S
C530 C528 1.327 . S
C530 C549 1.429 . S
C530 H554 0.950 . S
C531 C548 1.574 . S
C531 C550 1.368 . S
C531 H555 0.949 . S
H532 C536 0.949 . S
C533 C534 1.349 . S
C533 C535 1.327 . S
C533 H556 0.950 . S
C534 C533 1.349 . S
C534 C546 1.349 . S
C535 C533 1.327 . S
C535 C551 1.429 . S
C535 H557 0.950 . S
C536 H532 0.949 . S
C536 C544 1.574 . S
C536 C552 1.368 . S
H537 C545 0.950 . S
H538 C543 0.950 . S
H539 C544 0.949 . S
H540 C546 0.950 . S
H541 C547 0.950 . S
H542 C548 0.949 . S
C543 H538 0.950 . S
C543 C545 1.327 . S
C543 C549 1.429 . S
C544 C536 1.574 . S
C544 H539 0.949 . S
C544 C550 1.368 . S
C545 C529 1.349 . S
C545 H537 0.950 . S
C545 C543 1.327 . S
C546 C534 1.349 . S
C546 H540 0.950 . S
C546 C547 1.327 . S
C547 H541 0.950 . S
C547 C546 1.327 . S
C547 C551 1.429 . S
C548 C531 1.574 . S
C548 H542 0.949 . S
C548 C552 1.368 . S
C549 C530 1.429 . S
C549 C543 1.429 . S
C549 C550 1.523 . S
C550 C531 1.368 . S
C550 C544 1.368 . S
C550 C549 1.523 . S
C551 C535 1.429 . S
C551 C547 1.429 . S
C551 C552 1.523 . S
C552 C536 1.368 . S
C552 C548 1.368 . S
C552 C551 1.523 . S
H553 C528 0.950 . S
H554 C530 0.950 . S
H555 C531 0.949 . S
H556 C533 0.950 . S
H557 C535 0.950 . S
C558 C559 1.349 . S
C558 C560 1.327 . S
C558 H583 0.950 . S
C559 C558 1.349 . S
C559 C575 1.349 . S
C560 C558 1.327 . S
C560 C579 1.429 . S
C560 H584 0.950 . S
C561 C578 1.574 . S
C561 C580 1.368 . S
C561 H585 0.949 . S
H562 C566 0.949 . S
C563 C564 1.349 . S
C563 C565 1.327 . S
C563 H586 0.950 . S
C564 C563 1.349 . S
C564 C576 1.349 . S
C565 C563 1.327 . S
C565 C581 1.429 . S
C565 H587 0.950 . S
C566 H562 0.949 . S
C566 C574 1.574 . S
C566 C582 1.368 . S
H567 C575 0.950 . S
H568 C573 0.950 . S
H569 C574 0.949 . S
H570 C576 0.950 . S
H571 C577 0.950 . S
H572 C578 0.949 . S
C573 H568 0.950 . S
C573 C575 1.327 . S
C573 C579 1.429 . S
C574 C566 1.574 . S
C574 H569 0.949 . S
C574 C580 1.368 . S
C575 C559 1.349 . S
C575 H567 0.950 . S
C575 C573 1.327 . S
C576 C564 1.349 . S
C576 H570 0.950 . S
C576 C577 1.327 . S
C577 H571 0.950 . S
C577 C576 1.327 . S
C577 C581 1.429 . S
C578 C561 1.574 . S
C578 H572 0.949 . S
C578 C582 1.368 . S
C579 C560 1.429 . S
C579 C573 1.429 . S
C579 C580 1.523 . S
C580 C561 1.368 . S
C580 C574 1.368 . S
C580 C579 1.523 . S
C581 C565 1.429 . S
C581 C577 1.429 . S
C581 C582 1.523 . S
C582 C566 1.368 . S
C582 C578 1.368 . S
C582 C581 1.523 . S
H583 C558 0.950 . S
H584 C560 0.950 . S
H585 C561 0.949 . S
H586 C563 0.950 . S
H587 C565 0.950 . S
C588 C589 1.349 . S
C588 C590 1.327 . S
C588 H613 0.950 . S
C589 C588 1.349 . S
C589 C605 1.349 . S
C590 C588 1.327 . S
C590 C609 1.429 . S
C590 H614 0.950 . S
C591 C608 1.574 . S
C591 C610 1.368 1_556 S
C591 H615 0.949 . S
H592 C596 0.949 . S
C593 C594 1.349 . S
C593 C595 1.327 . S
C593 H616 0.950 . S
C594 C593 1.349 . S
C594 C606 1.349 . S
C595 C593 1.327 . S
C595 C611 1.429 . S
C595 H617 0.950 . S
C596 H592 0.949 . S
C596 C604 1.574 . S
C596 C612 1.368 1_554 S
H597 C605 0.950 . S
H598 C603 0.950 . S
H599 C604 0.949 . S
H600 C606 0.950 . S
H601 C607 0.950 . S
H602 C608 0.949 . S
C603 H598 0.950 . S
C603 C605 1.327 . S
C603 C609 1.429 . S
C604 C596 1.574 . S
C604 H599 0.949 . S
C604 C610 1.368 . S
C605 C589 1.349 . S
C605 H597 0.950 . S
C605 C603 1.327 . S
C606 C594 1.349 . S
C606 H600 0.950 . S
C606 C607 1.327 . S
C607 H601 0.950 . S
C607 C606 1.327 . S
C607 C611 1.429 . S
C608 C591 1.574 . S
C608 H602 0.949 . S
C608 C612 1.368 . S
C609 C590 1.429 . S
C609 C603 1.429 . S
C609 C610 1.523 . S
C610 C591 1.368 1_554 S
C610 C604 1.368 . S
C610 C609 1.523 . S
C611 C595 1.429 . S
C611 C607 1.429 . S
C611 C612 1.523 . S
C612 C596 1.368 1_556 S
C612 C608 1.368 . S
C612 C611 1.523 . S
H613 C588 0.950 . S
H614 C590 0.950 . S
H615 C591 0.949 . S
H616 C593 0.950 . S
H617 C595 0.950 . S
C618 C619 1.349 . S
C618 C620 1.327 . S
C618 H643 0.950 . S
C619 C618 1.349 . S
C619 C635 1.349 . S
C620 C618 1.327 . S
C620 C639 1.429 . S
C620 H644 0.950 . S
C621 C638 1.574 . S
C621 C640 1.368 . S
C621 H645 0.949 . S
H622 C626 0.949 . S
C623 C624 1.349 . S
C623 C625 1.327 . S
C623 H646 0.950 . S
C624 C623 1.349 . S
C624 C636 1.349 . S
C625 C623 1.327 . S
C625 C641 1.429 . S
C625 H647 0.950 . S
C626 H622 0.949 . S
C626 C634 1.574 . S
C626 C642 1.368 . S
H627 C635 0.950 . S
H628 C633 0.950 . S
H629 C634 0.949 . S
H630 C636 0.950 . S
H631 C637 0.950 . S
H632 C638 0.949 . S
C633 H628 0.950 . S
C633 C635 1.327 . S
C633 C639 1.429 . S
C634 C626 1.574 . S
C634 H629 0.949 . S
C634 C640 1.368 . S
C635 C619 1.349 . S
C635 H627 0.950 . S
C635 C633 1.327 . S
C636 C624 1.349 . S
C636 H630 0.950 . S
C636 C637 1.327 . S
C637 H631 0.950 . S
C637 C636 1.327 . S
C637 C641 1.429 . S
C638 C621 1.574 . S
C638 H632 0.949 . S
C638 C642 1.368 . S
C639 C620 1.429 . S
C639 C633 1.429 . S
C639 C640 1.523 . S
C640 C621 1.368 . S
C640 C634 1.368 . S
C640 C639 1.523 . S
C641 C625 1.429 . S
C641 C637 1.429 . S
C641 C642 1.523 . S
C642 C626 1.368 . S
C642 C638 1.368 . S
C642 C641 1.523 . S
H643 C618 0.950 . S
H644 C620 0.950 . S
H645 C621 0.949 . S
H646 C623 0.950 . S
H647 C625 0.950 . S
C648 C649 1.349 . S
C648 C650 1.327 . S
C648 H673 0.950 . S
C649 C648 1.349 . S
C649 C665 1.349 . S
C650 C648 1.327 . S
C650 C669 1.429 . S
C650 H674 0.950 . S
C651 C668 1.574 . S
C651 C670 1.368 . S
C651 H675 0.949 . S
H652 C656 0.949 . S
C653 C654 1.349 . S
C653 C655 1.327 . S
C653 H676 0.950 . S
C654 C653 1.349 . S
C654 C666 1.349 . S
C655 C653 1.327 . S
C655 C671 1.429 . S
C655 H677 0.950 . S
C656 H652 0.949 . S
C656 C664 1.574 . S
C656 C672 1.368 . S
H657 C665 0.950 . S
H658 C663 0.950 . S
H659 C664 0.949 . S
H660 C666 0.950 . S
H661 C667 0.950 . S
H662 C668 0.949 . S
C663 H658 0.950 . S
C663 C665 1.327 . S
C663 C669 1.429 . S
C664 C656 1.574 . S
C664 H659 0.949 . S
C664 C670 1.368 . S
C665 C649 1.349 . S
C665 H657 0.950 . S
C665 C663 1.327 . S
C666 C654 1.349 . S
C666 H660 0.950 . S
C666 C667 1.327 . S
C667 H661 0.950 . S
C667 C666 1.327 . S
C667 C671 1.429 . S
C668 C651 1.574 . S
C668 H662 0.949 . S
C668 C672 1.368 . S
C669 C650 1.429 . S
C669 C663 1.429 . S
C669 C670 1.523 . S
C670 C651 1.368 . S
C670 C664 1.368 . S
C670 C669 1.523 . S
C671 C655 1.429 . S
C671 C667 1.429 . S
C671 C672 1.523 . S
C672 C656 1.368 . S
C672 C668 1.368 . S
C672 C671 1.523 . S
H673 C648 0.950 . S
H674 C650 0.950 . S
H675 C651 0.949 . S
H676 C653 0.950 . S
H677 C655 0.950 . S
C678 C679 1.349 . S
C678 C680 1.327 . S
C678 H703 0.950 . S
C679 C678 1.349 . S
C679 C695 1.349 . S
C680 C678 1.327 . S
C680 C699 1.429 . S
C680 H704 0.950 . S
C681 C698 1.574 . S
C681 C700 1.368 . S
C681 H705 0.949 . S
H682 C686 0.949 . S
C683 C684 1.349 . S
C683 C685 1.327 . S
C683 H706 0.950 . S
C684 C683 1.349 . S
C684 C696 1.349 . S
C685 C683 1.327 . S
C685 C701 1.429 . S
C685 H707 0.950 . S
C686 H682 0.949 . S
C686 C694 1.574 . S
C686 C702 1.368 . S
H687 C695 0.950 . S
H688 C693 0.950 . S
H689 C694 0.949 . S
H690 C696 0.950 . S
H691 C697 0.950 . S
H692 C698 0.949 . S
C693 H688 0.950 . S
C693 C695 1.327 . S
C693 C699 1.429 . S
C694 C686 1.574 . S
C694 H689 0.949 . S
C694 C700 1.368 1_556 S
C695 C679 1.349 . S
C695 H687 0.950 . S
C695 C693 1.327 . S
C696 C684 1.349 . S
C696 H690 0.950 . S
C696 C697 1.327 . S
C697 H691 0.950 . S
C697 C696 1.327 . S
C697 C701 1.429 . S
C698 C681 1.574 . S
C698 H692 0.949 . S
C698 C702 1.368 1_554 S
C699 C680 1.429 . S
C699 C693 1.429 . S
C699 C700 1.523 . S
C700 C681 1.368 . S
C700 C694 1.368 1_554 S
C700 C699 1.523 . S
C701 C685 1.429 . S
C701 C697 1.429 . S
C701 C702 1.523 . S
C702 C686 1.368 . S
C702 C698 1.368 1_556 S
C702 C701 1.523 . S
H703 C678 0.950 . S
H704 C680 0.950 . S
H705 C681 0.949 . S
H706 C683 0.950 . S
H707 C685 0.950 . S
C708 C709 1.349 1_565 S
C708 C710 1.327 . S
C708 H733 0.950 . S
C709 C708 1.349 1_545 S
C709 C725 1.349 . S
C710 C708 1.327 . S
C710 C729 1.429 1_565 S
C710 H734 0.950 . S
C711 C728 1.574 . S
C711 C730 1.368 . S
C711 H735 0.949 . S
H712 C716 0.949 . S
C713 C714 1.349 1_545 S
C713 C715 1.327 . S
C713 H736 0.950 . S
C714 C713 1.349 1_565 S
C714 C726 1.349 . S
C715 C713 1.327 . S
C715 C731 1.429 1_545 S
C715 H737 0.950 . S
C716 H712 0.949 . S
C716 C724 1.574 . S
C716 C732 1.368 . S
H717 C725 0.950 . S
H718 C723 0.950 . S
H719 C724 0.949 . S
H720 C726 0.950 . S
H721 C727 0.950 . S
H722 C728 0.949 . S
C723 H718 0.950 . S
C723 C725 1.327 . S
C723 C729 1.429 . S
C724 C716 1.574 . S
C724 H719 0.949 . S
C724 C730 1.368 1_565 S
C725 C709 1.349 . S
C725 H717 0.950 . S
C725 C723 1.327 . S
C726 C714 1.349 . S
C726 H720 0.950 . S
C726 C727 1.327 . S
C727 H721 0.950 . S
C727 C726 1.327 . S
C727 C731 1.429 . S
C728 C711 1.574 . S
C728 H722 0.949 . S
C728 C732 1.368 1_545 S
C729 C710 1.429 1_545 S
C729 C723 1.429 . S
C729 C730 1.523 . S
C730 C711 1.368 . S
C730 C724 1.368 1_545 S
C730 C729 1.523 . S
C731 C715 1.429 1_565 S
C731 C727 1.429 . S
C731 C732 1.523 . S
C732 C716 1.368 . S
C732 C728 1.368 1_565 S
C732 C731 1.523 . S
H733 C708 0.950 . S
H734 C710 0.950 . S
H735 C711 0.949 . S
H736 C713 0.950 . S
H737 C715 0.950 . S
C738 C739 1.349 . S
C738 C740 1.327 . S
C738 H763 0.950 . S
C739 C738 1.349 . S
C739 C755 1.349 . S
C740 C738 1.327 . S
C740 C759 1.429 . S
C740 H764 0.950 . S
C741 C758 1.574 . S
C741 C760 1.368 . S
C741 H765 0.949 . S
H742 C746 0.949 . S
C743 C744 1.349 . S
C743 C745 1.327 . S
C743 H766 0.950 . S
C744 C743 1.349 . S
C744 C756 1.349 . S
C745 C743 1.327 . S
C745 C761 1.429 . S
C745 H767 0.950 . S
C746 H742 0.949 . S
C746 C754 1.574 . S
C746 C762 1.368 . S
H747 C755 0.950 . S
H748 C753 0.950 . S
H749 C754 0.949 . S
H750 C756 0.950 . S
H751 C757 0.950 . S
H752 C758 0.949 . S
C753 H748 0.950 . S
C753 C755 1.327 . S
C753 C759 1.429 . S
C754 C746 1.574 . S
C754 H749 0.949 . S
C754 C760 1.368 . S
C755 C739 1.349 . S
C755 H747 0.950 . S
C755 C753 1.327 . S
C756 C744 1.349 . S
C756 H750 0.950 . S
C756 C757 1.327 . S
C757 H751 0.950 . S
C757 C756 1.327 . S
C757 C761 1.429 . S
C758 C741 1.574 . S
C758 H752 0.949 . S
C758 C762 1.368 . S
C759 C740 1.429 . S
C759 C753 1.429 . S
C759 C760 1.523 . S
C760 C741 1.368 . S
C760 C754 1.368 . S
C760 C759 1.523 . S
C761 C745 1.429 . S
C761 C757 1.429 . S
C761 C762 1.523 . S
C762 C746 1.368 . S
C762 C758 1.368 . S
C762 C761 1.523 . S
H763 C738 0.950 . S
H764 C740 0.950 . S
H765 C741 0.949 . S
H766 C743 0.950 . S
H767 C745 0.950 . S
C768 C769 1.349 . S
C768 C770 1.327 . S
C768 H793 0.950 . S
C769 C768 1.349 . S
C769 C785 1.349 1_455 S
C770 C768 1.327 . S
C770 C789 1.429 . S
C770 H794 0.950 . S
C771 C788 1.574 . S
C771 C790 1.368 1_655 S
C771 H795 0.949 . S
H772 C776 0.949 . S
C773 C774 1.349 . S
C773 C775 1.327 . S
C773 H796 0.950 . S
C774 C773 1.349 . S
C774 C786 1.349 1_655 S
C775 C773 1.327 . S
C775 C791 1.429 . S
C775 H797 0.950 . S
C776 H772 0.949 . S
C776 C784 1.574 . S
C776 C792 1.368 1_455 S
H777 C785 0.950 . S
H778 C783 0.950 . S
H779 C784 0.949 . S
H780 C786 0.950 . S
H781 C787 0.950 . S
H782 C788 0.949 . S
C783 H778 0.950 . S
C783 C785 1.327 . S
C783 C789 1.429 1_655 S
C784 C776 1.574 . S
C784 H779 0.949 . S
C784 C790 1.368 . S
C785 C769 1.349 1_655 S
C785 H777 0.950 . S
C785 C783 1.327 . S
C786 C774 1.349 1_455 S
C786 H780 0.950 . S
C786 C787 1.327 . S
C787 H781 0.950 . S
C787 C786 1.327 . S
C787 C791 1.429 1_455 S
C788 C771 1.574 . S
C788 H782 0.949 . S
C788 C792 1.368 . S
C789 C770 1.429 . S
C789 C783 1.429 1_455 S
C789 C790 1.523 . S
C790 C771 1.368 1_455 S
C790 C784 1.368 . S
C790 C789 1.523 . S
C791 C775 1.429 . S
C791 C787 1.429 1_655 S
C791 C792 1.523 . S
C792 C776 1.368 1_655 S
C792 C788 1.368 . S
C792 C791 1.523 . S
H793 C768 0.950 . S
H794 C770 0.950 . S
H795 C771 0.949 . S
H796 C773 0.950 . S
H797 C775 0.950 . S
C798 C799 1.335 1_545 S
C798 C800 1.329 . S
C798 H823 0.962 . S
C799 C798 1.335 1_565 S
C799 C815 1.349 . S
C800 C798 1.329 . S
C800 C819 1.429 1_545 S
C800 H824 0.950 . S
C801 C818 1.574 . S
C801 C820 1.368 . S
C801 H825 0.949 . S
H802 C806 0.949 . S
C803 C804 1.335 1_565 S
C803 C805 1.329 . S
C803 H826 0.962 . S
C804 C803 1.335 1_545 S
C804 C816 1.349 . S
C805 C803 1.329 . S
C805 C821 1.429 1_565 S
C805 H827 0.950 . S
C806 H802 0.949 . S
C806 C814 1.574 . S
C806 C822 1.368 . S
H807 C815 0.950 . S
H808 C813 0.950 . S
H809 C814 0.949 . S
H810 C816 0.950 . S
H811 C817 0.950 . S
H812 C818 0.949 . S
C813 H808 0.950 . S
C813 C815 1.327 . S
C813 C819 1.429 . S
C814 C806 1.574 . S
C814 H809 0.949 . S
C814 C820 1.368 1_545 S
C815 C799 1.349 . S
C815 H807 0.950 . S
C815 C813 1.327 . S
C816 C804 1.349 . S
C816 H810 0.950 . S
C816 C817 1.327 . S
C817 H811 0.950 . S
C817 C816 1.327 . S
C817 C821 1.429 . S
C818 C801 1.574 . S
C818 H812 0.949 . S
C818 C822 1.368 1_565 S
C819 C800 1.429 1_565 S
C819 C813 1.429 . S
C819 C820 1.523 . S
C820 C801 1.368 . S
C820 C814 1.368 1_565 S
C820 C819 1.523 . S
C821 C805 1.429 1_545 S
C821 C817 1.429 . S
C821 C822 1.523 . S
C822 C806 1.368 . S
C822 C818 1.368 1_545 S
C822 C821 1.523 . S
H823 C798 0.962 . S
H824 C800 0.950 . S
H825 C801 0.949 . S
H826 C803 0.962 . S
H827 C805 0.950 . S
C828 C829 1.349 . S
C828 C830 1.327 . S
C828 H853 0.950 . S
C829 C828 1.349 . S
C829 C845 1.349 . S
C830 C828 1.327 . S
C830 C849 1.429 . S
C830 H854 0.950 . S
C831 C848 1.574 . S
C831 C850 1.368 . S
C831 H855 0.949 . S
H832 C836 0.949 . S
C833 C834 1.349 . S
C833 C835 1.327 . S
C833 H856 0.950 . S
C834 C833 1.349 . S
C834 C846 1.349 . S
C835 C833 1.327 . S
C835 C851 1.429 . S
C835 H857 0.950 . S
C836 H832 0.949 . S
C836 C844 1.574 . S
C836 C852 1.368 . S
H837 C845 0.950 . S
H838 C843 0.950 . S
H839 C844 0.949 . S
H840 C846 0.950 . S
H841 C847 0.950 . S
H842 C848 0.949 . S
C843 H838 0.950 . S
C843 C845 1.327 . S
C843 C849 1.429 . S
C844 C836 1.574 . S
C844 H839 0.949 . S
C844 C850 1.368 . S
C845 C829 1.349 . S
C845 H837 0.950 . S
C845 C843 1.327 . S
C846 C834 1.349 . S
C846 H840 0.950 . S
C846 C847 1.327 . S
C847 H841 0.950 . S
C847 C846 1.327 . S
C847 C851 1.429 . S
C848 C831 1.574 . S
C848 H842 0.949 . S
C848 C852 1.368 . S
C849 C830 1.429 . S
C849 C843 1.429 . S
C849 C850 1.523 . S
C850 C831 1.368 . S
C850 C844 1.368 . S
C850 C849 1.523 . S
C851 C835 1.429 . S
C851 C847 1.429 . S
C851 C852 1.523 . S
C852 C836 1.368 . S
C852 C848 1.368 . S
C852 C851 1.523 . S
H853 C828 0.950 . S
H854 C830 0.950 . S
H855 C831 0.949 . S
H856 C833 0.950 . S
H857 C835 0.950 . S
C858 C859 1.349 1_455 S
C858 C860 1.327 . S
C858 H883 0.950 . S
C859 C858 1.349 1_655 S
C859 C875 1.349 . S
C860 C858 1.327 . S
C860 C879 1.429 1_455 S
C860 H884 0.950 . S
C861 C878 1.574 . S
C861 C880 1.368 . S
C861 H885 0.949 . S
H862 C866 0.949 . S
C863 C864 1.349 1_655 S
C863 C865 1.327 . S
C863 H886 0.950 . S
C864 C863 1.349 1_455 S
C864 C876 1.349 . S
C865 C863 1.327 . S
C865 C881 1.429 1_655 S
C865 H887 0.950 . S
C866 H862 0.949 . S
C866 C874 1.574 . S
C866 C882 1.368 . S
H867 C875 0.950 . S
H868 C873 0.950 . S
H869 C874 0.949 . S
H870 C876 0.950 . S
H871 C877 0.950 . S
H872 C878 0.949 . S
C873 H868 0.950 . S
C873 C875 1.327 . S
C873 C879 1.429 . S
C874 C866 1.574 . S
C874 H869 0.949 . S
C874 C880 1.368 1_455 S
C875 C859 1.349 . S
C875 H867 0.950 . S
C875 C873 1.327 . S
C876 C864 1.349 . S
C876 H870 0.950 . S
C876 C877 1.327 . S
C877 H871 0.950 . S
C877 C876 1.327 . S
C877 C881 1.429 . S
C878 C861 1.574 . S
C878 H872 0.949 . S
C878 C882 1.368 1_655 S
C879 C860 1.429 1_655 S
C879 C873 1.429 . S
C879 C880 1.523 . S
C880 C861 1.368 . S
C880 C874 1.368 1_655 S
C880 C879 1.523 . S
C881 C865 1.429 1_455 S
C881 C877 1.429 . S
C881 C882 1.523 . S
C882 C866 1.368 . S
C882 C878 1.368 1_455 S
C882 C881 1.523 . S
H883 C858 0.950 . S
H884 C860 0.950 . S
H885 C861 0.949 . S
H886 C863 0.950 . S
H887 C865 0.950 . S
C169 C11 1.857 . S
C174 C123 1.848 . S
C199 C25 1.853 . S
C204 C137 1.852 . S
C229 C151 1.789 . S
C234 C39 1.784 . S
C259 C165 1.853 . S
C264 C53 1.852 . S
C289 C95 1.857 . S
C294 C67 1.848 . S
C319 C109 1.789 . S
C324 C81 1.784 . S
C349 C12 1.394 . S
C354 C54 1.421 . S
C379 C68 1.388 . S
C384 C26 1.388 . S
C409 C82 1.346 . S
C414 C40 1.321 . S
C439 C96 1.394 . S
C444 C138 1.421 . S
C469 C152 1.346 . S
C474 C110 1.321 . S
C499 C124 1.388 . S
C504 C166 1.388 . S
C529 C89 1.001 . S
C534 C5 1.004 . S
C559 C19 0.948 . S
C564 C103 0.951 . S
C589 C117 0.948 . S
C594 C33 0.951 . S
C619 C131 1.001 . S
C624 C47 1.004 . S
C649 C61 0.948 . S
C654 C145 0.951 . S
C679 C159 0.948 . S
C684 C75 0.951 . S
C709 C4 0.641 . S
C714 C102 0.644 . S
C739 C116 0.683 . S
C744 C18 0.683 . S
C769 C130 0.641 . S
C774 C32 0.644 . S
C799 C46 0.641 . S
C804 C144 0.644 . S
C829 C158 0.683 . S
C834 C60 0.683 . S
C859 C88 0.641 . S
C864 C74 0.644 . S
