# Generated by pormake.
# Topology bcs, (6)-cn, num edge types: 1
# Building blocks:
#     Node 0, Type 0, BuildingBlock: HISSIN_clean_sbu_0, # of connection points: 6
#     Node 1, Type 0, BuildingBlock: HISSIN_clean_sbu_0, # of connection points: 6
#     Node 2, Type 0, BuildingBlock: HISSIN_clean_sbu_0, # of connection points: 6
#     Node 3, Type 0, BuildingBlock: HISSIN_clean_sbu_0, # of connection points: 6
#     Node 4, Type 0, BuildingBlock: HISSIN_clean_sbu_0, # of connection points: 6
#     Node 5, Type 0, BuildingBlock: HISSIN_clean_sbu_0, # of connection points: 6
#     Node 6, Type 0, BuildingBlock: HISSIN_clean_sbu_0, # of connection points: 6
#     Node 7, Type 0, BuildingBlock: HISSIN_clean_sbu_0, # of connection points: 6
#     Node 8, Type 0, BuildingBlock: HISSIN_clean_sbu_0, # of connection points: 6
#     Node 9, Type 0, BuildingBlock: HISSIN_clean_sbu_0, # of connection points: 6
#     Node 10, Type 0, BuildingBlock: HISSIN_clean_sbu_0, # of connection points: 6
#     Node 11, Type 0, BuildingBlock: HISSIN_clean_sbu_0, # of connection points: 6
#     Node 12, Type 0, BuildingBlock: HISSIN_clean_sbu_0, # of connection points: 6
#     Node 13, Type 0, BuildingBlock: HISSIN_clean_sbu_0, # of connection points: 6
#     Node 14, Type 0, BuildingBlock: HISSIN_clean_sbu_0, # of connection points: 6
#     Node 15, Type 0, BuildingBlock: HISSIN_clean_sbu_0, # of connection points: 6
#     Edge 16, Type (0, 0), BuildingBlock: ZUJKAS_clean_linker_0, # of connection points: 2
#     Edge 17, Type (0, 0), BuildingBlock: ZUJKAS_clean_linker_0, # of connection points: 2
#     Edge 18, Type (0, 0), BuildingBlock: ZUJKAS_clean_linker_0, # of connection points: 2
#     Edge 19, Type (0, 0), BuildingBlock: ZUJKAS_clean_linker_0, # of connection points: 2
#     Edge 20, Type (0, 0), BuildingBlock: ZUJKAS_clean_linker_0, # of connection points: 2
#     Edge 21, Type (0, 0), BuildingBlock: ZUJKAS_clean_linker_0, # of connection points: 2
#     Edge 22, Type (0, 0), BuildingBlock: ZUJKAS_clean_linker_0, # of connection points: 2
#     Edge 23, Type (0, 0), BuildingBlock: ZUJKAS_clean_linker_0, # of connection points: 2
#     Edge 24, Type (0, 0), BuildingBlock: ZUJKAS_clean_linker_0, # of connection points: 2
#     Edge 25, Type (0, 0), BuildingBlock: ZUJKAS_clean_linker_0, # of connection points: 2
#     Edge 26, Type (0, 0), BuildingBlock: ZUJKAS_clean_linker_0, # of connection points: 2
#     Edge 27, Type (0, 0), BuildingBlock: ZUJKAS_clean_linker_0, # of connection points: 2
#     Edge 28, Type (0, 0), BuildingBlock: ZUJKAS_clean_linker_0, # of connection points: 2
#     Edge 29, Type (0, 0), BuildingBlock: ZUJKAS_clean_linker_0, # of connection points: 2
#     Edge 30, Type (0, 0), BuildingBlock: ZUJKAS_clean_linker_0, # of connection points: 2
#     Edge 31, Type (0, 0), BuildingBlock: ZUJKAS_clean_linker_0, # of connection points: 2
#     Edge 32, Type (0, 0), BuildingBlock: ZUJKAS_clean_linker_0, # of connection points: 2
#     Edge 33, Type (0, 0), BuildingBlock: ZUJKAS_clean_linker_0, # of connection points: 2
#     Edge 34, Type (0, 0), BuildingBlock: ZUJKAS_clean_linker_0, # of connection points: 2
#     Edge 35, Type (0, 0), BuildingBlock: ZUJKAS_clean_linker_0, # of connection points: 2
#     Edge 36, Type (0, 0), BuildingBlock: ZUJKAS_clean_linker_0, # of connection points: 2
#     Edge 37, Type (0, 0), BuildingBlock: ZUJKAS_clean_linker_0, # of connection points: 2
#     Edge 38, Type (0, 0), BuildingBlock: ZUJKAS_clean_linker_0, # of connection points: 2
#     Edge 39, Type (0, 0), BuildingBlock: ZUJKAS_clean_linker_0, # of connection points: 2
#     Edge 40, Type (0, 0), BuildingBlock: ZUJKAS_clean_linker_0, # of connection points: 2
#     Edge 41, Type (0, 0), BuildingBlock: ZUJKAS_clean_linker_0, # of connection points: 2
#     Edge 42, Type (0, 0), BuildingBlock: ZUJKAS_clean_linker_0, # of connection points: 2
#     Edge 43, Type (0, 0), BuildingBlock: ZUJKAS_clean_linker_0, # of connection points: 2
#     Edge 44, Type (0, 0), BuildingBlock: ZUJKAS_clean_linker_0, # of connection points: 2
#     Edge 45, Type (0, 0), BuildingBlock: ZUJKAS_clean_linker_0, # of connection points: 2
#     Edge 46, Type (0, 0), BuildingBlock: ZUJKAS_clean_linker_0, # of connection points: 2
#     Edge 47, Type (0, 0), BuildingBlock: ZUJKAS_clean_linker_0, # of connection points: 2
#     Edge 48, Type (0, 0), BuildingBlock: ZUJKAS_clean_linker_0, # of connection points: 2
#     Edge 49, Type (0, 0), BuildingBlock: ZUJKAS_clean_linker_0, # of connection points: 2
#     Edge 50, Type (0, 0), BuildingBlock: ZUJKAS_clean_linker_0, # of connection points: 2
#     Edge 51, Type (0, 0), BuildingBlock: ZUJKAS_clean_linker_0, # of connection points: 2
#     Edge 52, Type (0, 0), BuildingBlock: ZUJKAS_clean_linker_0, # of connection points: 2
#     Edge 53, Type (0, 0), BuildingBlock: ZUJKAS_clean_linker_0, # of connection points: 2
#     Edge 54, Type (0, 0), BuildingBlock: ZUJKAS_clean_linker_0, # of connection points: 2
#     Edge 55, Type (0, 0), BuildingBlock: ZUJKAS_clean_linker_0, # of connection points: 2
#     Edge 56, Type (0, 0), BuildingBlock: ZUJKAS_clean_linker_0, # of connection points: 2
#     Edge 57, Type (0, 0), BuildingBlock: ZUJKAS_clean_linker_0, # of connection points: 2
#     Edge 58, Type (0, 0), BuildingBlock: ZUJKAS_clean_linker_0, # of connection points: 2
#     Edge 59, Type (0, 0), BuildingBlock: ZUJKAS_clean_linker_0, # of connection points: 2
#     Edge 60, Type (0, 0), BuildingBlock: ZUJKAS_clean_linker_0, # of connection points: 2
#     Edge 61, Type (0, 0), BuildingBlock: ZUJKAS_clean_linker_0, # of connection points: 2
#     Edge 62, Type (0, 0), BuildingBlock: ZUJKAS_clean_linker_0, # of connection points: 2
#     Edge 63, Type (0, 0), BuildingBlock: ZUJKAS_clean_linker_0, # of connection points: 2
# Relax obj value: 0.104
# Max RMSD: 0.202
# Mean RMSD: 0.153
data_MOF--net-bcs--node1-HISSIN_clean_sbu_0--edge1-ZUJKAS_clean_linker_0
_symmetry_space_group_name_H-M    P1
_symmetry_Int_Tables_number       1
_symmetry_cell_setting            triclinic
loop_
_symmetry_equiv_pos_as_xyz
'x, y, z'
_cell_length_a     56.089128
_cell_length_b     54.898118
_cell_length_c     48.640153
_cell_angle_alpha  91.484632
_cell_angle_beta   91.703565
_cell_angle_gamma 115.53543
loop_
_atom_site_label
_atom_site_type_symbol
_atom_site_fract_x
_atom_site_fract_y
_atom_site_fract_z
_atom_type_partial_charge
Eu0 Eu 0.03089 0.03053 0.04369 0.0
Eu1 Eu 0.04632 0.07738 0.09185 0.0
C2 C 0.08359 0.08436 0.03911 0.0
C3 C 0.02888 0.97628 0.99365 0.0
C4 C 0.05643 0.98801 0.99172 0.0
C5 C 0.02614 0.9339 0.97482 0.0
C6 C 0.06876 0.97282 0.98119 0.0
C7 C 1.01378 0.94922 0.98518 0.0
C8 C 0.05376 0.94559 0.9728 0.0
C9 C 0.01606 0.9917 0.00605 0.0
O10 O 1.01108 0.07715 0.06637 0.0
O11 O 0.01943 0.06194 0.02567 0.0
C12 C 1.00828 0.07491 0.0393 0.0
O13 O 0.9948 0.02065 0.06816 0.0
O14 O 0.05831 0.1201 0.10359 0.0
O15 O 0.04433 0.09037 0.13438 0.0
O16 O 0.01704 0.03872 0.10867 0.0
C17 C 0.99593 0.02129 0.09502 0.0
O18 O 0.05458 0.01841 0.07531 0.0
O19 O 0.07366 0.0568 0.104 0.0
O20 O 0.07454 0.09627 0.05725 0.0
O21 O 1.01125 0.98762 0.032 0.0
O22 O 0.02588 0.01723 1.00055 0.0
O23 O 0.07309 0.05797 0.03581 0.0
C24 C 0.03112 0.1261 0.1373 0.0
C25 C 1.00436 0.11359 0.12812 0.0
C26 C 0.02178 0.15918 0.16387 0.0
C27 C 0.98649 0.12369 0.13679 0.0
C28 C 0.03962 0.14906 0.15515 0.0
C29 C 0.99483 0.14662 0.15495 0.0
C30 C 0.05007 0.11524 0.1285 0.0
C31 C 0.07114 0.03229 0.096 0.0
H32 H 0.06843 0.00886 0.99851 0.0
H33 H 1.01417 0.91285 0.96882 0.0
H34 H 0.09002 0.98246 0.97948 0.0
H35 H 0.99251 0.93987 0.98696 0.0
H36 H 0.99721 0.09589 0.11427 0.0
H37 H 0.0291 0.17659 0.17809 0.0
H38 H 0.96613 0.11358 0.12901 0.0
H39 H 0.06011 0.1591 0.16259 0.0
Eu40 Eu 0.30049 0.75066 0.28624 0.0
Eu41 Eu 0.25991 0.78882 0.27231 0.0
C42 C 0.29928 0.79933 0.32648 0.0
C43 C 0.33699 0.7031 0.31319 0.0
C44 C 0.35385 0.71246 0.3372 0.0
C45 C 0.34329 0.66102 0.3155 0.0
C46 C 0.36507 0.69641 0.35007 0.0
C47 C 0.33196 0.67692 0.30285 0.0
C48 C 0.36039 0.67027 0.3394 0.0
C49 C 0.32671 0.72068 0.29693 0.0
O50 O 0.30135 0.8121 0.25868 0.0
O51 O 0.32056 0.78169 0.25412 0.0
C52 C 0.3192 0.80476 0.24906 0.0
O53 O 0.2686 0.73036 0.25296 0.0
O54 O 0.25263 0.82557 0.27612 0.0
O55 O 0.22604 0.79161 0.25008 0.0
O56 O 0.26479 0.76722 0.23497 0.0
C57 C 0.261 0.74191 0.23332 0.0
O58 O 0.26797 0.7399 0.31587 0.0
O59 O 0.23562 0.75015 0.29447 0.0
O60 O 0.27849 0.80093 0.31488 0.0
O61 O 0.3024 0.71098 0.28676 0.0
O62 O 0.33658 0.74689 0.30121 0.0
O63 O 0.31132 0.78493 0.31724 0.0
C64 C 0.22121 0.8344 0.24521 0.0
C65 C 0.22021 0.83665 0.21632 0.0
C66 C 0.19986 0.86566 0.2484 0.0
C67 C 0.2094 0.85322 0.2038 0.0
C68 C 0.2109 0.84944 0.26083 0.0
C69 C 0.19864 0.86801 0.21951 0.0
C70 C 0.23135 0.81594 0.25985 0.0
C71 C 0.24353 0.73737 0.31289 0.0
H72 H 0.35878 0.73248 0.34593 0.0
H73 H 0.3384 0.64117 0.30634 0.0
H74 H 0.37811 0.70499 0.36812 0.0
H75 H 0.31947 0.66875 0.28434 0.0
H76 H 0.22767 0.82545 0.20327 0.0
H77 H 0.19245 0.87665 0.26175 0.0
H78 H 0.20898 0.85392 0.18158 0.0
H79 H 0.21108 0.84843 0.28304 0.0
Eu80 Eu 0.52386 0.0046 0.53665 0.0
Eu81 Eu 0.51932 0.96718 0.59051 0.0
C82 C 0.47639 0.94685 0.54098 0.0
C83 C 0.5176 0.05193 0.4849 0.0
C84 C 0.49022 0.044 0.4823 0.0
C85 C 0.52555 0.09744 0.47342 0.0
C86 C 0.48062 0.06264 0.47533 0.0
C87 C 0.53518 0.07872 0.48026 0.0
C88 C 0.49818 0.08955 0.471 0.0
C89 C 0.52805 0.03283 0.4934 0.0
O90 O 0.5423 0.95269 0.56129 0.0
O91 O 0.54714 0.98069 0.52534 0.0
C92 C 0.55123 0.96124 0.53683 0.0
O93 O 0.54944 0.03125 0.57074 0.0
O94 O 0.50647 0.92979 0.61285 0.0
O95 O 0.53229 0.96801 0.6334 0.0
O96 O 0.56024 -0.00096 0.58683 0.0
C97 C 0.56433 0.02418 0.58639 0.0
O98 O 0.50099 0.01977 0.56458 0.0
O99 O 0.49627 0.99281 0.6018 0.0
O100 O 0.48859 0.93941 0.55989 0.0
O101 O 0.54536 0.04096 0.51412 0.0
O102 O 0.51094 0.00764 0.49487 0.0
O103 O 0.48288 0.97216 0.53622 0.0
C104 C 0.54056 0.93004 0.64302 0.0
C105 C 0.56804 0.94421 0.64039 0.0
C106 C 0.54743 0.89241 0.66095 0.0
C107 C 0.58503 0.93268 0.64816 0.0
C108 C 0.53046 0.90403 0.65332 0.0
C109 C 0.57499 0.90658 0.65855 0.0
C110 C 0.52229 0.94172 0.63419 0.0
C111 C 0.49234 0.01235 0.58939 0.0
H112 H 0.47615 0.02346 0.48577 0.0
H113 H 0.53949 0.11812 0.47036 0.0
H114 H 0.45942 0.05589 0.47306 0.0
H115 H 0.55637 0.08523 0.48225 0.0
H116 H 0.57645 0.96424 0.63227 0.0
H117 H 0.53885 0.87212 0.66839 0.0
H118 H 0.6061 0.94441 0.64631 0.0
H119 H 0.50935 0.89257 0.65526 0.0
Eu120 Eu 0.29505 0.24194 0.77331 0.0
Eu121 Eu 0.26019 0.29104 0.78801 0.0
C122 C 0.24394 0.24853 0.7472 0.0
C123 C 0.32673 0.19333 0.74033 0.0
C124 C 0.32865 0.19142 0.71148 0.0
C125 C 0.35396 0.16793 0.74448 0.0
C126 C 0.34297 0.17812 0.69944 0.0
C127 C 0.33988 0.18137 0.75646 0.0
C128 C 0.35571 0.16565 0.71562 0.0
C129 C 0.30868 0.20428 0.75373 0.0
O130 O 0.24331 0.25313 0.81369 0.0
O131 O 0.26415 0.22378 0.80645 0.0
C132 C 0.2467 0.23089 0.81857 0.0
O133 O 0.32444 0.27671 0.79883 0.0
O134 O 0.22641 0.3 0.7963 0.0
O135 O 0.26605 0.33015 0.80919 0.0
O136 O 0.28953 0.28278 0.81486 0.0
C137 C 0.31511 0.29225 0.81118 0.0
O138 O 0.30904 0.27643 0.74374 0.0
O139 O 0.29179 0.30832 0.75508 0.0
O140 O 0.2349 0.26642 0.75078 0.0
O141 O 0.31406 0.21459 0.77912 0.0
O142 O 0.29539 0.21457 0.73909 0.0
O143 O 0.26164 0.25138 0.76608 0.0
C144 C 0.22773 0.34129 0.81981 0.0
C145 C 0.24111 0.36344 0.8387 0.0
C146 C 0.18834 0.3505 0.82396 0.0
C147 C 0.22828 0.37854 0.85021 0.0
C148 C 0.20104 0.33524 0.81277 0.0
C149 C 0.20151 0.37248 0.84316 0.0
C150 C 0.24054 0.32354 0.80869 0.0
C151 C 0.30676 0.29948 0.74042 0.0
H152 H 0.31858 0.19974 0.69802 0.0
H153 H 0.36354 0.15924 0.7581 0.0
H154 H 0.34329 0.17691 0.67722 0.0
H155 H 0.33878 0.18182 0.77865 0.0
H156 H 0.26152 0.3689 0.845 0.0
H157 H 0.16779 0.34452 0.81792 0.0
H158 H 0.23959 0.39526 0.86457 0.0
H159 H 0.18969 0.31837 0.79856 0.0
Eu160 Eu 0.07504 0.97896 0.53239 0.0
Eu161 Eu 0.02972 0.01033 0.52937 0.0
C162 C 0.07803 0.03097 0.57226 0.0
C163 C 0.11464 0.94653 0.56577 0.0
C164 C 0.13473 0.95959 0.58615 0.0
C165 C 0.10107 0.90461 0.58964 0.0
C166 C 0.13797 0.94529 0.60808 0.0
C167 C 0.09777 0.9189 0.56777 0.0
C168 C 0.12126 0.91764 0.60992 0.0
C169 C 0.11081 0.96191 0.5431 0.0
O170 O 0.06357 0.03669 0.50483 0.0
O171 O 0.08987 0.01311 0.50234 0.0
C172 C 0.084 0.03333 0.49591 0.0
O173 O 0.04987 0.9507 0.49667 0.0
O174 O 1.00249 0.02791 0.53761 0.0
O175 O 0.99993 0.00654 0.49804 0.0
O176 O 0.03815 0.97944 0.51158 0.0
C177 C 0.03212 0.95943 0.49448 0.0
O178 O 0.0407 0.95589 0.55997 0.0
O179 O 1.01392 0.97913 0.56074 0.0
O180 O 0.06154 0.03774 0.5582 0.0
O181 O 0.09015 0.94896 0.5266 0.0
O182 O 0.11425 0.98651 0.54931 0.0
O183 O 0.07955 0.00762 0.56906 0.0
C184 C 0.99188 0.04504 0.49709 0.0
C185 C 0.98035 0.03986 0.47038 0.0
C186 C 1.00364 0.09284 0.4929 0.0
C187 C 0.98056 0.0609 0.45499 0.0
C188 C 1.00369 0.07173 0.50826 0.0
C189 C 0.99211 0.08754 0.46612 0.0
C190 C 0.99245 0.0225 0.51221 0.0
C191 C 0.02019 0.95968 0.56849 0.0
H192 H 0.14799 0.98084 0.58507 0.0
H193 H 0.08787 0.88334 0.59065 0.0
H194 H 0.15403 0.9557 0.6232 0.0
H195 H 0.08198 0.90821 0.55247 0.0
H196 H 0.97111 0.01946 0.46139 0.0
H197 H 1.01236 0.1132 0.50197 0.0
H198 H 0.97083 0.05616 0.43467 0.0
H199 H 1.0129 0.07633 0.5288 0.0
Eu200 Eu 0.25728 0.75713 0.81104 0.0
Eu201 Eu 0.2923 0.76975 0.75517 0.0
C202 C 0.30976 0.81275 0.80616 0.0
C203 C 0.21705 0.76547 0.86519 0.0
C204 C 0.23139 0.79361 0.86379 0.0
C205 C 0.17917 0.77155 0.88008 0.0
C206 C 0.2196 0.81059 0.87026 0.0
C207 C 0.19105 0.75455 0.87378 0.0
C208 C 0.19322 0.79963 0.87782 0.0
C209 C 0.22747 0.74774 0.85292 0.0
O210 O 0.3132 0.75379 0.7842 0.0
O211 O 0.27976 0.7318 0.81368 0.0
C212 C 0.30298 0.73702 0.80388 0.0
O213 O 0.23248 0.73204 0.77528 0.0
O214 O 0.3286 0.78867 0.73317 0.0
O215 O 0.29176 0.76314 0.71075 0.0
O216 O 0.26552 0.72559 0.75595 0.0
C217 C 0.24035 0.71809 0.75898 0.0
O218 O 0.25122 0.79072 0.79112 0.0
O219 O 0.2592 0.78134 0.74705 0.0
O220 O 0.31027 0.80895 0.77954 0.0
O221 O 0.21821 0.73895 0.82793 0.0
O222 O 0.25306 0.75619 0.85546 0.0
O223 O 0.29351 0.79476 0.82212 0.0
C224 C 0.33001 0.75838 0.69995 0.0
C225 C 0.31981 0.73108 0.70656 0.0
C226 C 0.36846 0.75557 0.68192 0.0
C227 C 0.33391 0.71615 0.70098 0.0
C228 C 0.35425 0.7705 0.68739 0.0
C229 C 0.3585 0.72839 0.68899 0.0
C230 C 0.31754 0.77502 0.7103 0.0
C231 C 0.24931 0.79281 0.7644 0.0
H232 H 0.2513 0.8024 0.85647 0.0
H233 H 0.15885 0.76275 0.88618 0.0
H234 H 0.23071 0.83215 0.86815 0.0
H235 H 0.1796 0.73286 0.87443 0.0
H236 H 0.30141 0.72155 0.71696 0.0
H237 H 0.3873 0.76529 0.67235 0.0
H238 H 0.32599 0.6953 0.70682 0.0
H239 H 0.36257 0.79168 0.68268 0.0
Eu240 Eu 0.52676 0.03059 0.03941 0.0
Eu241 Eu 0.48954 0.06348 0.03471 0.0
C242 C 0.48469 0.01754 0.99065 0.0
C243 C 0.57092 0.99695 0.02121 0.0
C244 C 0.55845 0.98002 0.99787 0.0
C245 C 0.61335 0.00131 0.00611 0.0
C246 C 0.57332 0.97362 0.97896 0.0
C247 C 0.59846 0.00753 0.02513 0.0
C248 C 0.60091 0.98412 0.98294 0.0
C249 C 0.55561 0.00411 0.0413 0.0
O250 O 0.475 0.03629 0.07088 0.0
O251 O 0.48728 0.00397 0.05505 0.0
C252 C 0.47396 0.01193 0.07179 0.0
O253 O 0.52949 0.0506 0.08065 0.0
O254 O 0.45054 0.06271 0.02925 0.0
O255 O 0.48517 0.10107 0.03449 0.0
O256 O 0.52233 0.08612 0.06572 0.0
C257 C 0.53115 0.07497 0.0844 0.0
O258 O 0.55132 0.06957 0.01984 0.0
O259 O 0.51845 0.07895 1.00064 0.0
O260 O 0.47175 0.02703 0.00625 0.0
O261 O 0.56469 0.0297 0.04864 0.0
O262 O 0.52994 0.99254 0.03734 0.0
O263 O 0.50929 0.02252 0.99652 0.0
C264 C 0.44691 0.09653 0.05629 0.0
C265 C 0.45186 0.09175 0.08358 0.0
C266 C 0.41684 0.11443 0.07192 0.0
C267 C 0.4393 0.0982 0.10497 0.0
C268 C 0.42941 0.1079 0.05051 0.0
C269 C 0.4216 0.10956 0.09936 0.0
C270 C 0.4594 0.08869 0.03396 0.0
C271 C 0.54303 0.08184 0.00174 0.0
H272 H 0.53721 0.97159 0.99419 0.0
H273 H 0.63463 0.01006 0.00954 0.0
H274 H 0.56312 0.96003 0.96153 0.0
H275 H 0.60851 0.02072 0.04288 0.0
H276 H 0.46528 0.0828 0.0883 0.0
H277 H 0.40364 0.12356 0.067 0.0
H278 H 0.44317 0.09396 0.12582 0.0
H279 H 0.42542 0.11166 0.0295 0.0
Eu280 Eu 0.30281 0.28183 0.3007 0.0
Eu281 Eu 0.25441 0.25467 0.25422 0.0
C282 C 0.24996 0.23002 0.31263 0.0
C283 C 0.35151 0.28441 0.35441 0.0
C284 C 0.33577 0.25677 0.35757 0.0
C285 C 0.38958 0.27958 0.37313 0.0
C286 C 0.34693 0.24055 0.36816 0.0
C287 C 0.37835 0.29585 0.36262 0.0
C288 C 0.37404 0.25172 0.37546 0.0
C289 C 0.34092 0.29986 0.33831 0.0
O290 O 0.24459 0.2817 0.28273 0.0
O291 O 0.28636 0.31222 0.29671 0.0
C292 C 0.26105 0.30557 0.29321 0.0
O293 O 0.31939 0.29983 0.26086 0.0
O294 O 0.21201 0.23221 0.24548 0.0
O295 O 0.23859 0.24483 0.21182 0.0
O296 O 0.28122 0.29518 0.23829 0.0
C297 C 0.3071 0.30676 0.24149 0.0
O298 O 0.30347 0.24278 0.28652 0.0
O299 O 0.28326 0.23804 0.24371 0.0
O300 O 0.24714 0.22381 0.2862 0.0
O301 O 0.34484 0.29928 0.31209 0.0
O302 O 0.31674 0.29576 0.34311 0.0
O303 O 0.26649 0.25422 0.32208 0.0
C304 C 0.19989 0.25077 0.20843 0.0
C305 C 0.21044 0.27865 0.21439 0.0
C306 C 0.16157 0.25221 0.18565 0.0
C307 C 0.19676 0.29325 0.20606 0.0
C308 C 0.17539 0.2375 0.19408 0.0
C309 C 0.17213 0.2802 0.19176 0.0
C310 C 0.21415 0.23599 0.21915 0.0
C311 C 0.29787 0.23206 0.26135 0.0
H312 H 0.3151 0.24747 0.35067 0.0
H313 H 0.41051 0.28863 0.3789 0.0
H314 H 0.33463 0.21909 0.36946 0.0
H315 H 0.3908 0.31705 0.35983 0.0
H316 H 0.22926 0.28914 0.22573 0.0
H317 H 0.14254 0.2417 0.17474 0.0
H318 H 0.20565 0.31485 0.21059 0.0
H319 H 0.16691 0.2159 0.18969 0.0
Eu320 Eu 0.51956 0.52004 0.0215 0.0
Eu321 Eu 0.48935 0.55918 0.02666 0.0
C322 C 0.53823 0.56716 0.06694 0.0
C323 C 0.54762 0.47069 0.03867 0.0
C324 C 0.55283 0.47944 0.06647 0.0
C325 C 0.55722 0.43281 0.04857 0.0
C326 C 0.56108 0.46544 0.08507 0.0
C327 C 0.5492 0.44699 0.02992 0.0
C328 C 0.56398 0.44234 0.07616 0.0
C329 C 0.54109 0.48652 0.01864 0.0
O330 O 0.51522 0.57432 0.99037 0.0
O331 O 0.54581 0.55849 0.00206 0.0
C332 C 0.53851 0.57434 0.98784 0.0
O333 O 0.50058 0.51837 0.98008 0.0
O334 O 0.49097 0.59926 0.03286 0.0
O335 O 0.45299 0.56426 0.02877 0.0
O336 O 0.4662 0.52611 0.99512 0.0
C337 C 0.47691 0.51711 0.97621 0.0
O338 O 0.4805 0.49703 0.04052 0.0
O339 O 0.47765 0.53251 0.06291 0.0
O340 O 0.52725 0.57881 0.05126 0.0
O341 O 0.51595 0.47926 0.01354 0.0
O342 O 0.55463 0.51268 0.02167 0.0
O343 O 0.53321 0.54167 0.06287 0.0
C344 C 0.45783 0.60305 0.00629 0.0
C345 C 0.45994 0.59537 0.97908 0.0
C346 C 0.44305 0.63556 0.98971 0.0
C347 C 0.45337 0.60753 0.95724 0.0
C348 C 0.44963 0.62333 0.0116 0.0
C349 C 0.44469 0.6276 0.96235 0.0
C350 C 0.46552 0.59056 0.0288 0.0
C351 C 0.47129 0.50662 0.06037 0.0
H352 H 0.55134 0.49758 0.07362 0.0
H353 H 0.55878 0.41477 0.04124 0.0
H354 H 0.56637 0.47348 0.10608 0.0
H355 H 0.54482 0.43981 0.00858 0.0
H356 H 0.46666 0.57994 0.97475 0.0
H357 H 0.43607 0.65075 0.99419 0.0
H358 H 0.45506 0.60122 0.93639 0.0
H359 H 0.44821 0.62958 0.03256 0.0
Eu360 Eu 0.78062 0.28535 0.25188 0.0
Eu361 Eu 0.7772 0.25284 0.3152 0.0
C362 C 0.74161 0.22068 0.27059 0.0
C363 C 0.75783 0.31619 0.19648 0.0
C364 C 0.7301 0.30572 0.19547 0.0
C365 C 0.76066 0.36155 0.19381 0.0
C366 C 0.71789 0.32302 0.19493 0.0
C367 C 0.77297 0.3442 0.19462 0.0
C368 C 0.73308 0.35109 0.19498 0.0
C369 C 0.77066 0.29854 0.20362 0.0
O370 O 0.80115 0.23902 0.28622 0.0
O371 O 0.81062 0.26792 0.24936 0.0
C372 C 0.81352 0.24876 0.2632 0.0
O373 O 0.80509 0.31905 0.28054 0.0
O374 O 0.76488 0.22348 0.34725 0.0
O375 O 0.79737 0.26281 0.35589 0.0
O376 O 0.81405 0.28945 0.30599 0.0
C377 C 0.81587 0.31375 0.30225 0.0
O378 O 0.7533 0.29672 0.27717 0.0
O379 O 0.75025 0.27418 0.31794 0.0
O380 O 0.74464 0.21559 0.29576 0.0
O381 O 0.79404 0.3104 0.2163 0.0
O382 O 0.7554 0.27588 0.21466 0.0
O383 O 0.75621 0.24484 0.26367 0.0
C384 C 0.80176 0.22427 0.37077 0.0
C385 C 0.82736 0.2337 0.36096 0.0
C386 C 0.8036 0.1825 0.38292 0.0
C387 C 0.8407 0.21748 0.3616 0.0
C388 C 0.79023 0.19885 0.38239 0.0
C389 C 0.82866 0.19145 0.37182 0.0
C390 C 0.78521 0.23795 0.36354 0.0
C391 C 0.74403 0.29 0.30196 0.0
H392 H 0.71776 0.28423 0.19639 0.0
H393 H 0.77271 0.38313 0.19332 0.0
H394 H 0.69649 0.31444 0.19483 0.0
H395 H 0.79437 0.35282 0.19504 0.0
H396 H 0.83666 0.25308 0.35156 0.0
H397 H 0.79397 0.16255 0.39107 0.0
H398 H 0.86036 0.22521 0.35368 0.0
H399 H 0.77031 0.19106 0.38964 0.0
Eu400 Eu 0.07179 0.47362 0.52593 0.0
Eu401 Eu 0.04202 0.52041 0.53425 0.0
C402 C 0.01869 0.47086 0.49297 0.0
C403 C 0.09964 0.43122 0.48819 0.0
C404 C 0.09033 0.43 0.46078 0.0
C405 C 0.13847 0.42761 0.47195 0.0
C406 C 0.10502 0.42745 0.4391 0.0
C407 C 0.12369 0.42981 0.49354 0.0
C408 C 0.12933 0.4265 0.44455 0.0
C409 C 0.08579 0.4358 0.5115 0.0
O410 O 0.01854 0.4865 0.56057 0.0
O411 O 0.0404 0.45839 0.55857 0.0
C412 C 0.02172 0.46501 0.56772 0.0
O413 O 0.10368 0.5002 0.55789 0.0
O414 O 0.02502 0.54873 0.52757 0.0
O415 O 0.04781 0.5513 0.56591 0.0
O416 O 0.0739 0.5119 0.5476 0.0
C417 C 0.09566 0.51861 0.56145 0.0
O418 O 0.09227 0.50897 0.49739 0.0
O419 O 0.06721 0.53407 0.49789 0.0
O420 O 1.01217 0.48641 0.50911 0.0
O421 O 0.10018 0.45647 0.52784 0.0
O422 O 0.06201 0.43386 0.50666 0.0
O423 O 0.04305 0.47304 0.4919 0.0
C424 C 1.01057 0.56102 0.56836 0.0
C425 C 1.00457 0.54998 0.59443 0.0
C426 C 0.97405 0.57343 0.57034 0.0
C427 C 0.98355 0.55085 0.6084 0.0
C428 C 0.99522 0.57283 0.55651 0.0
C429 C 0.96804 0.56244 0.59639 0.0
C430 C 0.03189 0.55936 0.55271 0.0
C431 C 0.08609 0.52834 0.4883 0.0
H432 H 0.07192 0.43129 0.45607 0.0
H433 H 0.15688 0.42633 0.47671 0.0
H434 H 0.09756 0.42653 0.41811 0.0
H435 H 0.13123 0.43075 0.51452 0.0
H436 H 0.01592 0.54051 0.60399 0.0
H437 H 0.96263 0.58288 0.56085 0.0
H438 H 0.97923 0.54219 0.62845 0.0
H439 H 0.99949 0.58143 0.53643 0.0
Eu440 Eu 0.79665 0.75006 0.26896 0.0
Eu441 Eu 0.76224 0.78796 0.29309 0.0
C442 C 0.74527 0.74806 0.24084 0.0
C443 C 0.83628 0.7147 0.22704 0.0
C444 C 0.82938 0.70798 0.19877 0.0
C445 C 0.87347 0.70281 0.22061 0.0
C446 C 0.84406 0.69866 0.18184 0.0
C447 C 0.85874 0.71211 0.23755 0.0
C448 C 0.86625 0.69546 0.19242 0.0
C449 C 0.81797 0.72013 0.24602 0.0
O450 O 0.74287 0.74632 0.30975 0.0
O451 O 0.77352 0.72822 0.30519 0.0
C452 C 0.75184 0.72824 0.31532 0.0
O453 O 0.8232 0.78361 0.29849 0.0
O454 O 0.7256 0.79299 0.29796 0.0
O455 O 0.76277 0.82371 0.31527 0.0
O456 O 0.79097 0.78643 0.32511 0.0
C457 C 0.81575 0.79173 0.32103 0.0
O458 O 0.80615 0.78538 0.24195 0.0
O459 O 0.79656 0.81555 0.26873 0.0
O460 O 0.74848 0.77218 0.24949 0.0
O461 O 0.8264 0.73335 0.26981 0.0
O462 O 0.79799 0.72344 0.23536 0.0
O463 O 0.75422 0.73402 0.25564 0.0
C464 C 0.72255 0.82352 0.3339 0.0
C465 C 0.73592 0.842 0.35606 0.0
C466 C 0.68144 0.825 0.3484 0.0
C467 C 0.72232 0.85185 0.37398 0.0
C468 C 0.69504 0.81515 0.33056 0.0
C469 C 0.69477 0.84383 0.37039 0.0
C470 C 0.73726 0.816 0.31211 0.0
C471 C 0.80806 0.80975 0.24785 0.0
H472 H 0.81197 0.70902 0.18977 0.0
H473 H 0.89052 0.70123 0.22983 0.0
H474 H 0.83728 0.693 0.16056 0.0
H475 H 0.86459 0.71659 0.25919 0.0
H476 H 0.75712 0.84939 0.35928 0.0
H477 H 0.66048 0.81843 0.34422 0.0
H478 H 0.73358 0.86592 0.39067 0.0
H479 H 0.68399 0.8015 0.31346 0.0
Eu480 Eu 0.80201 0.25654 0.79774 0.0
Eu481 Eu 0.76007 0.28469 0.76618 0.0
C482 C 0.80141 0.31077 0.81551 0.0
C483 C 0.84361 0.22549 0.84321 0.0
C484 C 0.86474 0.24012 0.86226 0.0
C485 C 0.84472 0.18385 0.8594 0.0
C486 C 0.87593 0.22698 0.87927 0.0
C487 C 0.83361 0.19707 0.84223 0.0
C488 C 0.86645 0.19859 0.87791 0.0
C489 C 0.83517 0.24035 0.82223 0.0
O490 O 0.79925 0.30576 0.74684 0.0
O491 O 0.82475 0.28479 0.76455 0.0
C492 C 0.82105 0.3021 0.7484 0.0
O493 O 0.77398 0.22639 0.76707 0.0
O494 O 0.7414 0.31284 0.76529 0.0
O495 O 0.73105 0.2814 0.73319 0.0
O496 O 0.76684 0.25556 0.73831 0.0
C497 C 0.76394 0.23137 0.74442 0.0
O498 O 0.76281 0.23469 0.81672 0.0
O499 O 0.73721 0.25534 0.79858 0.0
O500 O 0.7911 0.3162 0.79341 0.0
O501 O 0.8185 0.22699 0.80188 0.0
O502 O 0.83363 0.2628 0.82917 0.0
O503 O 0.79358 0.286 0.82309 0.0
C504 C 0.71975 0.31865 0.72304 0.0
C505 C 0.71394 0.31123 0.6948 0.0
C506 C 0.70353 0.35327 0.71602 0.0
C507 C 0.70295 0.32446 0.67753 0.0
C508 C 0.71455 0.34007 0.73323 0.0
C509 C 0.69708 0.3455 0.68784 0.0
C510 C 0.72721 0.30187 0.74263 0.0
C511 C 0.74079 0.23788 0.8146 0.0
H512 H 0.87328 0.262 0.86345 0.0
H513 H 0.83683 0.16206 0.85737 0.0
H514 H 0.89226 0.23923 0.8934 0.0
H515 H 0.81766 0.18499 0.8276 0.0
H516 H 0.71724 0.29466 0.68606 0.0
H517 H 0.69914 0.36894 0.72522 0.0
H518 H 0.69888 0.31793 0.65602 0.0
H519 H 0.71813 0.34608 0.75491 0.0
Eu520 Eu 0.76931 0.74745 0.75762 0.0
Eu521 Eu 0.79187 0.79574 0.80524 0.0
C522 C 0.82294 0.80119 0.75109 0.0
C523 C 0.76617 0.69219 0.70957 0.0
C524 C 0.79388 0.70317 0.71077 0.0
C525 C 0.76402 0.64858 0.69545 0.0
C526 C 0.80656 0.68695 0.70454 0.0
C527 C 0.75129 0.66491 0.70161 0.0
C528 C 0.79179 0.65937 0.69733 0.0
C529 C 0.75304 0.70826 0.72008 0.0
O530 O 0.77055 0.80846 0.77231 0.0
O531 O 0.74076 0.76639 0.75637 0.0
C532 C 0.74813 0.79247 0.7593 0.0
O533 O 0.74979 0.73005 0.79664 0.0
O534 O 0.81206 0.83862 0.81714 0.0
O535 O 0.79652 0.80909 0.84848 0.0
O536 O 0.74994 0.76859 0.815 0.0
C537 C 0.74006 0.74219 0.81329 0.0
O538 O 0.80494 0.74423 0.77675 0.0
O539 O 0.80735 0.76582 0.81854 0.0
O540 O 0.82575 0.80422 0.77795 0.0
O541 O 0.74714 0.70474 0.74579 0.0
O542 O 0.76366 0.73375 0.71436 0.0
O543 O 0.80041 0.78424 0.73894 0.0
C544 C 0.79034 0.84859 0.85263 0.0
C545 C 0.76273 0.83623 0.8484 0.0
C546 C 0.78831 0.88963 0.86923 0.0
C547 C 0.74804 0.85051 0.85426 0.0
C548 C 0.80307 0.87524 0.86335 0.0
C549 C 0.7607 0.87751 0.86423 0.0
C550 C 0.80567 0.83456 0.84275 0.0
C551 C 0.81365 0.74992 0.80261 0.0
H552 H 0.80573 0.72412 0.71727 0.0
H553 H 0.75215 0.62736 0.6901 0.0
H554 H 0.82799 0.69599 0.70563 0.0
H555 H 0.72988 0.65607 0.70105 0.0
H556 H 0.75257 0.81573 0.83984 0.0
H557 H 0.79857 0.91046 0.87679 0.0
H558 H 0.72676 0.84049 0.8507 0.0
H559 H 0.82441 0.88515 0.86636 0.0
Eu560 Eu 0.51231 0.46181 0.47279 0.0
Eu561 Eu 0.5307 0.51 0.5203 0.0
C562 C 0.56497 0.51616 0.46845 0.0
C563 C 0.52656 0.41339 0.42626 0.0
C564 C 0.55183 0.43149 0.41827 0.0
C565 C 0.53832 0.37614 0.41601 0.0
C566 C 0.56997 0.42201 0.40902 0.0
C567 C 0.52011 0.38562 0.42505 0.0
C568 C 0.56354 0.39416 0.40774 0.0
C569 C 0.50726 0.4232 0.43673 0.0
O570 O 0.50519 0.52114 0.49006 0.0
O571 O 0.4865 0.48394 0.45992 0.0
C572 C 0.4889 0.50816 0.46886 0.0
O573 O 0.48266 0.44403 0.50658 0.0
O574 O 0.55048 0.55345 0.52911 0.0
O575 O 0.5388 0.52595 0.56265 0.0
O576 O 0.49038 0.48201 0.53356 0.0
C577 C 0.47704 0.45599 0.52774 0.0
O578 O 0.54677 0.45996 0.49822 0.0
O579 O 0.5439 0.48017 0.53867 0.0
O580 O 0.56604 0.51807 0.49528 0.0
O581 O 0.50135 0.419 0.4624 0.0
O582 O 0.51038 0.4472 0.43003 0.0
O583 O 0.54371 0.49868 0.45503 0.0
C584 C 0.53413 0.56628 0.56752 0.0
C585 C 0.50768 0.55299 0.5747 0.0
C586 C 0.53395 0.60943 0.57848 0.0
C587 C 0.4945 0.56781 0.58388 0.0
C588 C 0.54725 0.59453 0.56951 0.0
C589 C 0.50741 0.59616 0.58561 0.0
C590 C 0.54724 0.55094 0.55548 0.0
C591 C 0.55228 0.46471 0.52495 0.0
H592 H 0.55771 0.45306 0.41931 0.0
H593 H 0.53245 0.35457 0.41512 0.0
H594 H 0.58925 0.4366 0.40327 0.0
H595 H 0.5009 0.37118 0.4312 0.0
H596 H 0.49705 0.53117 0.5729 0.0
H597 H 0.54425 0.63128 0.57936 0.0
H598 H 0.4742 0.55704 0.58971 0.0
H599 H 0.56754 0.60502 0.56356 0.0
Eu600 Eu 0.03898 0.57159 0.96908 0.0
Eu601 Eu 0.03161 0.53176 0.02154 0.0
C602 C 0.98337 0.51979 0.97758 0.0
C603 C 0.02299 0.61426 0.91869 0.0
C604 C 0.99663 0.59678 0.91067 0.0
C605 C 1.01331 0.65262 0.90973 0.0
C606 C 0.97885 0.60714 0.90221 0.0
C607 C 0.03114 0.64226 0.91797 0.0
C608 C 0.9869 0.63521 0.90183 0.0
C609 C 0.04169 0.60375 0.92937 0.0
O610 O 0.04874 0.51332 0.98949 0.0
O611 O 0.0611 0.54563 0.95656 0.0
C612 C 0.0609 0.52316 0.96664 0.0
O613 O 0.0702 0.59491 0.00163 0.0
O614 O 0.01577 0.49299 0.04093 0.0
O615 O 0.04046 0.52971 0.06506 0.0
O616 O 0.07434 0.55847 0.01769 0.0
C617 C 0.08307 0.58454 0.01631 0.0
O618 O 1.01066 0.57975 0.99717 0.0
O619 O 0.01986 0.56427 0.03759 0.0
O620 O 0.99127 0.51469 0.00137 0.0
O621 O 0.05195 0.6124 0.95411 0.0
O622 O 0.0349 0.57796 0.92535 0.0
O623 O 0.99876 0.53849 0.96175 0.0
C624 C 0.04399 0.48948 0.07549 0.0
C625 C 0.07162 0.50288 0.07992 0.0
C626 C 0.04484 0.4476 0.08852 0.0
C627 C 0.08574 0.48866 0.08859 0.0
C628 C 0.0307 0.46187 0.08024 0.0
C629 C 0.07245 0.46084 0.09249 0.0
C630 C 0.02882 0.50331 0.06427 0.0
C631 C 1.00895 0.57773 0.02416 0.0
H632 H 0.98958 0.57507 0.91128 0.0
H633 H 0.02027 0.67433 0.90938 0.0
H634 H 0.95861 0.59315 0.89655 0.0
H635 H 0.05128 0.65617 0.92412 0.0
H636 H 0.08237 0.52415 0.0762 0.0
H637 H 0.0342 0.42619 0.09181 0.0
H638 H 0.10706 0.49918 0.09155 0.0
H639 H 1.00942 0.45121 0.07696 0.0
H640 H 0.20491 0.23465 0.843 0.0
H641 H 0.17932 0.20917 0.88052 0.0
H642 H 0.22338 0.16141 0.88118 0.0
H643 H 0.24978 0.1874 0.84365 0.0
H644 H 0.14678 0.15678 0.88558 0.0
H645 H 0.23146 0.18658 0.96139 0.0
H646 H 0.2342 0.2026 0.92896 0.0
H647 H 0.23504 0.17027 0.93035 0.0
C648 C 0.20939 0.21879 0.851 0.0
C649 C 0.22984 0.21345 0.84025 0.0
C650 C 0.19454 0.20411 0.87256 0.0
C651 C 0.19963 0.18363 0.88426 0.0
C652 C 0.21942 0.17754 0.87308 0.0
H653 H 0.11406 0.06818 0.00723 0.0
H654 H 0.14279 0.09262 0.97059 0.0
C655 C 0.23439 0.1923 0.85137 0.0
C656 C 0.18408 0.16894 0.90806 0.0
H657 H 0.18983 0.15455 0.97546 0.0
C658 C 0.15627 0.15635 0.9052 0.0
C659 C 0.19627 0.16848 0.93391 0.0
C660 C 0.22586 0.18291 0.93904 0.0
C661 C 0.14053 0.14321 0.92717 0.0
C662 C 0.15275 0.14257 0.95282 0.0
C663 C 0.18047 0.15501 0.95577 0.0
C664 C 0.13688 0.12872 0.9766 0.0
C665 C 0.11083 0.1299 0.9229 0.0
C666 C 0.12442 0.14111 0.99268 0.0
C667 C 0.10819 0.1273 0.01399 0.0
C668 C 0.10384 0.10067 0.01947 0.0
C669 C 0.11695 0.08865 0.00371 0.0
C670 C 0.13338 0.10258 0.98267 0.0
H671 H 0.10436 0.13017 0.90114 0.0
H672 H 0.10278 0.10862 0.92917 0.0
H673 H 0.10221 0.14056 0.93611 0.0
H674 H 0.12683 0.16128 0.98837 0.0
H675 H 0.09823 0.13711 0.02541 0.0
H676 H 0.11583 0.02702 0.07976 0.0
H677 H 0.1375 0.00066 0.1002 0.0
H678 H 0.08237 0.9785 0.16506 0.0
H679 H 0.06086 0.00491 0.14462 0.0
H680 H 0.16397 0.00102 0.14803 0.0
H681 H 0.07391 0.90447 0.14213 0.0
H682 H 0.07534 0.93407 0.12564 0.0
H683 H 0.0696 0.93024 0.16184 0.0
C684 C 0.10852 0.01689 0.09863 0.0
C685 C 0.08668 0.01882 0.11061 0.0
C686 C 0.12096 0.00151 0.1104 0.0
C687 C 0.11172 0.98664 0.13431 0.0
C688 C 0.09005 0.98893 0.14645 0.0
H689 H 0.15633 0.87818 0.23647 0.0
H690 H 0.13691 0.90629 0.21626 0.0
C691 C 0.07782 0.00455 0.13486 0.0
C692 C 0.12453 0.96894 0.14631 0.0
H693 H 0.1108 0.90487 0.16783 0.0
C694 C 0.15216 0.97996 0.15213 0.0
C695 C 0.10985 0.94111 0.15198 0.0
C696 C 0.0806 0.92664 0.14484 0.0
C697 C 0.16495 0.96472 0.16377 0.0
C698 C 0.15022 0.93695 0.16967 0.0
C699 C 0.12262 0.92593 0.16373 0.0
C700 C 0.16279 0.91926 0.18218 0.0
C701 C 0.19429 0.97899 0.17051 0.0
C702 C 0.18403 0.916 0.17018 0.0
C703 C 0.19532 0.89953 0.18183 0.0
C704 C 0.18613 0.8855 0.20627 0.0
C705 C 0.16471 0.88864 0.21806 0.0
C706 C 0.15326 0.90483 0.20624 0.0
H707 H 0.20135 0.00126 0.17238 0.0
H708 H 0.19955 0.97205 0.19003 0.0
H709 H 0.20495 0.97449 0.15373 0.0
H710 H 0.19186 0.92602 0.15141 0.0
H711 H 0.21165 0.89816 0.17173 0.0
H712 H 0.43882 0.89595 0.55003 0.0
H713 H 0.40703 0.8644 0.51501 0.0
H714 H 0.44331 0.92168 0.45243 0.0
H715 H 0.47445 0.95292 0.48684 0.0
H716 H 0.374 0.88422 0.48346 0.0
H717 H 0.43177 0.84783 0.41675 0.0
H718 H 0.44229 0.86033 0.45189 0.0
H719 H 0.44726 0.88354 0.42488 0.0
C720 C 0.43998 0.90145 0.52872 0.0
C721 C 0.45827 0.9269 0.521 0.0
C722 C 0.42214 0.88352 0.50888 0.0
C723 C 0.42326 0.89086 0.48136 0.0
C724 C 0.44253 0.91567 0.47356 0.0
H725 H 0.32252 0.85351 0.33584 0.0
H726 H 0.35101 0.87723 0.37662 0.0
C727 C 0.45991 0.93361 0.49328 0.0
C728 C 0.40205 0.87502 0.46131 0.0
H729 H 0.39047 0.84433 0.39751 0.0
C730 C 0.37732 0.87495 0.46489 0.0
C731 C 0.40706 0.86383 0.43698 0.0
C732 C 0.43349 0.86366 0.43242 0.0
C733 C 0.35736 0.8643 0.44422 0.0
C734 C 0.36246 0.85339 0.41989 0.0
C735 C 0.38701 0.85303 0.4164 0.0
C736 C 0.34197 0.84056 0.39832 0.0
C737 C 0.33114 0.86509 0.44808 0.0
C738 C 0.32729 0.81254 0.398 0.0
C739 C 0.31136 0.79918 0.37502 0.0
C740 C 0.30995 0.81387 0.35246 0.0
C741 C 0.32317 0.84212 0.35349 0.0
C742 C 0.33941 0.85552 0.37648 0.0
H743 H 0.33054 0.87484 0.46818 0.0
H744 H 0.32715 0.87634 0.43128 0.0
H745 H 0.31507 0.8442 0.44674 0.0
H746 H 0.3294 0.80093 0.41482 0.0
H747 H 0.30137 0.77729 0.37417 0.0
H748 H 0.36046 0.11996 0.73381 0.0
H749 H 0.38357 0.09528 0.71371 0.0
H750 H 0.40686 0.1498 0.64721 0.0
H751 H 0.38419 0.17495 0.66748 0.0
H752 H 0.37756 0.06648 0.66578 0.0
H753 H 0.47755 0.15116 0.66746 0.0
H754 H 0.45084 0.15333 0.68552 0.0
H755 H 0.45318 0.15822 0.64908 0.0
C756 C 0.37073 0.12715 0.71509 0.0
C757 C 0.37022 0.15005 0.70275 0.0
C758 C 0.38396 0.11266 0.70335 0.0
C759 C 0.39775 0.12047 0.67885 0.0
C760 C 0.39714 0.14321 0.66634 0.0
H761 H 0.4876 0.05809 0.57315 0.0
H762 H 0.46539 0.08284 0.59482 0.0
C763 C 0.38369 0.15759 0.67794 0.0
C764 C 0.41205 0.10458 0.66633 0.0
H765 H 0.47188 0.11093 0.64289 0.0
C766 C 0.39825 0.07636 0.66101 0.0
C767 C 0.43921 0.11679 0.65972 0.0
C768 C 0.45619 0.14647 0.66595 0.0
C769 C 0.41024 0.06061 0.649 0.0
C770 C 0.43739 0.07281 0.64236 0.0
C771 C 0.45121 0.10103 0.64774 0.0
C772 C 0.45149 0.05699 0.62925 0.0
C773 C 0.39323 0.03097 0.6426 0.0
C774 C 0.45203 0.03384 0.641 0.0
C775 C 0.46508 0.01942 0.6285 0.0
C776 C 0.47814 0.02741 0.60357 0.0
C777 C 0.47778 0.05074 0.59208 0.0
C778 C 0.46498 0.06521 0.60467 0.0
H779 H 0.37186 0.02625 0.64142 0.0
H780 H 0.39837 0.0243 0.62281 0.0
H781 H 0.39646 0.01909 0.6592 0.0
H782 H 0.44257 0.02696 0.6602 0.0
H783 H 0.46485 0.0019 0.63842 0.0
H784 H 0.12212 0.86862 0.60414 0.0
H785 H 0.13814 0.84668 0.6383 0.0
H786 H 0.149 0.90995 0.6986 0.0
H787 H 0.13244 0.93189 0.66466 0.0
H788 H 0.19637 0.89519 0.67197 0.0
H789 H 0.1124 0.81804 0.72582 0.0
H790 H 0.10834 0.82337 0.68982 0.0
H791 H 0.11194 0.84915 0.71512 0.0
C792 C 0.127 0.87736 0.62493 0.0
C793 C 0.12634 0.90209 0.63174 0.0
C794 C 0.13612 0.86481 0.64436 0.0
C795 C 0.14454 0.87677 0.67079 0.0
C796 C 0.14233 0.90047 0.67825 0.0
H797 H 0.2248 0.81916 0.79237 0.0
H798 H 0.19993 0.84229 0.7722 0.0
C799 C 0.13315 0.91304 0.65884 0.0
C800 C 0.16 0.86723 0.68858 0.0
H801 H 0.15479 0.81944 0.73427 0.0
C802 C 0.18742 0.87889 0.68593 0.0
C803 C 0.14801 0.84607 0.70656 0.0
C804 C 0.11853 0.83331 0.70974 0.0
C805 C 0.2033 0.86928 0.70034 0.0
C806 C 0.19125 0.84732 0.71759 0.0
C807 C 0.16388 0.83634 0.72105 0.0
C808 C 0.20642 0.83395 0.73008 0.0
C809 C 0.23272 0.88233 0.69647 0.0
C810 C 0.21791 0.82151 0.71295 0.0
C811 C 0.23209 0.8085 0.72425 0.0
C812 C 0.23481 0.80741 0.75297 0.0
C813 C 0.22311 0.81976 0.77018 0.0
C814 C 0.2089 0.8329 0.75875 0.0
H815 H 0.23959 0.9034 0.68978 0.0
H816 H 0.24395 0.88254 0.71574 0.0
H817 H 0.2374 0.8707 0.68023 0.0
H818 H 0.21572 0.82167 0.69075 0.0
H819 H 0.24068 0.79908 0.71034 0.0
H820 H 0.36232 0.83358 0.80003 0.0
H821 H 0.39643 0.86898 0.82978 0.0
H822 H 0.33578 0.88182 0.87182 0.0
H823 H 0.30168 0.84557 0.84299 0.0
H824 H 0.40885 0.92251 0.84012 0.0
H825 H 0.37469 0.86413 0.93403 0.0
H826 H 0.36363 0.84923 0.89978 0.0
H827 H 0.3489 0.86899 0.91587 0.0
C828 C 0.35648 0.84446 0.81527 0.0
C829 C 0.32972 0.83723 0.81952 0.0
C830 C 0.37581 0.86439 0.83228 0.0
C831 C 0.36838 0.87729 0.85329 0.0
C832 C 0.34168 0.87136 0.85617 0.0
H833 H 0.43407 0.00336 0.97248 0.0
H834 H 0.40847 0.96832 0.93773 0.0
C835 C 0.32235 0.85105 0.83962 0.0
C836 C 0.38848 0.89665 0.87261 0.0
H837 H 0.40468 0.91091 0.94102 0.0
C838 C 0.40827 0.91987 0.86215 0.0
C839 C 0.38761 0.89271 0.90124 0.0
C840 C 0.36772 0.86728 0.91338 0.0
C841 C 0.4265 0.94018 0.87989 0.0
C842 C 0.42469 0.93682 0.90846 0.0
C843 C 0.40567 0.91316 0.91892 0.0
C844 C 0.44087 0.95866 0.928 0.0
C845 C 0.44683 0.96559 0.86825 0.0
C846 C 0.46748 0.96466 0.93342 0.0
C847 C 0.48224 0.98467 0.95323 0.0
C848 C 0.47032 -0.00137 0.96776 0.0
C849 C 0.44376 0.9929 0.96164 0.0
C850 C 0.4291 0.97293 0.94191 0.0
H851 H 0.44431 0.9658 0.84553 0.0
H852 H 0.44551 0.98358 0.8777 0.0
H853 H 0.46694 0.96737 0.87339 0.0
H854 H 0.47659 0.95351 0.92275 0.0
H855 H 0.50265 0.98863 0.95767 0.0
H856 H 0.37016 0.10195 0.10031 0.0
H857 H 0.34968 0.11752 0.13614 0.0
H858 H 0.42228 0.14763 0.18603 0.0
H859 H 0.44328 0.13315 0.14985 0.0
H860 H 0.34194 0.10745 0.19252 0.0
H861 H 0.40932 0.2147 0.17468 0.0
H862 H 0.40637 0.18725 0.15156 0.0
H863 H 0.42553 0.19381 0.18345 0.0
C864 C 0.3818 0.11198 0.11887 0.0
C865 C 0.40846 0.11673 0.12207 0.0
C866 C 0.36998 0.12057 0.13942 0.0
C867 C 0.38462 0.13403 0.16348 0.0
C868 C 0.41081 0.1376 0.16739 0.0
H869 H 0.33961 0.2255 0.28459 0.0
H870 H 0.3605 0.19793 0.26585 0.0
C871 C 0.42269 0.12913 0.14679 0.0
C872 C 0.37301 0.1461 0.18339 0.0
H873 H 0.37807 0.20682 0.20842 0.0
C874 C 0.34996 0.12914 0.19627 0.0
C875 C 0.38351 0.17443 0.18803 0.0
C876 C 0.4074 0.19369 0.17356 0.0
C877 C 0.33682 0.13991 0.21333 0.0
C878 C 0.34706 0.16821 0.21744 0.0
C879 C 0.37056 0.18508 0.20538 0.0
C880 C 0.33224 0.1811 0.23137 0.0
C881 C 0.31182 0.12113 0.22639 0.0
C882 C 0.30943 0.18048 0.21818 0.0
C883 C 0.29775 0.19643 0.2285 0.0
C884 C 0.30866 0.21318 0.25227 0.0
C885 C 0.33079 0.21277 0.26623 0.0
C886 C 0.34268 0.19703 0.25565 0.0
H887 H 0.30985 0.1001 0.22644 0.0
H888 H 0.31133 0.12819 0.24788 0.0
H889 H 0.29449 0.12095 0.21459 0.0
H890 H 0.3014 0.16861 0.19915 0.0
H891 H 0.28058 0.19616 0.21744 0.0
H892 H 0.12675 0.03365 0.46959 0.0
H893 H 0.15539 0.06762 0.43896 0.0
H894 H 0.10968 0.11306 0.4494 0.0
H895 H 0.08087 0.07938 0.47995 0.0
H896 H 0.12043 0.10278 0.39268 0.0
H897 H 0.20994 0.14696 0.46339 0.0
H898 H 0.19361 0.11066 0.4597 0.0
H899 H 0.17701 0.12859 0.47547 0.0
C900 C 0.12279 0.05089 0.46549 0.0
C901 C 0.10149 0.05374 0.47732 0.0
C902 C 0.13923 0.07029 0.44805 0.0
C903 C 0.13471 0.09286 0.44222 0.0
C904 C 0.11345 0.09574 0.45377 0.0
H905 H 0.24005 0.23886 0.36564 0.0
H906 H 0.21147 0.20548 0.39679 0.0
C907 C 0.09703 0.07642 0.47123 0.0
C908 C 0.15186 0.11328 0.42363 0.0
H909 H 0.21467 0.16207 0.41797 0.0
C910 C 0.14104 0.1158 0.39812 0.0
C911 C 0.17853 0.13041 0.43116 0.0
C912 C 0.19056 0.1293 0.45899 0.0
C913 C 0.15639 0.13486 0.37961 0.0
C914 C 0.18339 0.15141 0.3867 0.0
C915 C 0.19405 0.14915 0.41247 0.0
C916 C 0.20087 0.17144 0.36783 0.0
C917 C 0.14339 0.13739 0.35291 0.0
C918 C 0.20472 0.16327 0.34141 0.0
C919 C 0.22076 0.18232 0.32346 0.0
C920 C 0.23364 0.2098 0.33185 0.0
C921 C 0.23039 0.21782 0.35861 0.0
C922 C 0.21407 0.1988 0.37641 0.0
H923 H 0.12158 0.12918 0.35421 0.0
H924 H 0.15118 0.15879 0.34708 0.0
H925 H 0.14749 0.12569 0.33628 0.0
H926 H 0.19532 0.14216 0.33466 0.0
H927 H 0.22318 0.17551 0.30309 0.0
H928 H 0.84133 0.26201 0.21587 0.0
H929 H 0.87093 0.2442 0.19737 0.0
H930 H 0.85741 0.19266 0.26611 0.0
H931 H 0.82767 0.21045 0.28498 0.0
H932 H 0.91243 0.22183 0.25302 0.0
H933 H 0.84972 0.16845 0.16014 0.0
H934 H 0.8551 0.20294 0.16601 0.0
H935 H 0.8366 0.17803 0.18986 0.0
C936 C 0.84446 0.24682 0.22715 0.0
C937 C 0.83179 0.2377 0.25202 0.0
C938 C 0.8614 0.23651 0.21636 0.0
C939 C 0.86625 0.21673 0.23002 0.0
C940 C 0.85395 0.20778 0.25501 0.0
H941 H 0.94227 0.11776 0.1669 0.0
H942 H 0.91158 0.13484 0.18425 0.0
C943 C 0.83686 0.218 0.2658 0.0
C944 C 0.88454 0.20591 0.21849 0.0
H945 H 0.89289 0.17088 0.16306 0.0
C946 C 0.90811 0.21065 0.23338 0.0
C947 C 0.87898 0.19114 0.19288 0.0
C948 C 0.85366 0.18458 0.17629 0.0
C949 C 0.9263 0.20147 0.22328 0.0
C950 C 0.92102 0.18714 0.19743 0.0
C951 C 0.89721 0.182 0.18274 0.0
C952 C 0.9397 0.17693 0.18562 0.0
C953 C 0.95091 0.20685 0.24068 0.0
C954 C 0.96577 0.19479 0.17987 0.0
C955 C 0.98343 0.18507 0.16972 0.0
C956 C 0.97558 0.15715 0.16487 0.0
C957 C 0.9492 0.13938 0.17003 0.0
C958 C 0.93155 0.14913 0.18014 0.0
H959 H 0.94896 0.21193 0.26251 0.0
H960 H 0.95548 0.18908 0.23995 0.0
H961 H 0.9679 0.22424 0.23259 0.0
H962 H 0.9725 0.21636 0.18319 0.0
H963 H 1.00325 0.19958 0.16546 0.0
H964 H 0.06739 0.55105 0.44964 0.0
H965 H 0.09241 0.58483 0.41725 0.0
H966 H 0.16385 0.57965 0.44469 0.0
H967 H 0.13859 0.54516 0.47712 0.0
H968 H 0.1318 0.63415 0.43201 0.0
H969 H 0.16884 0.57851 0.36132 0.0
H970 H 0.14248 0.56151 0.38422 0.0
H971 H 0.17633 0.57661 0.39713 0.0
C972 C 0.08838 0.55675 0.44853 0.0
C973 C 0.10108 0.54554 0.46604 0.0
C974 C 0.10265 0.57611 0.42998 0.0
C975 C 0.12999 0.5848 0.42846 0.0
C976 C 0.14267 0.57294 0.44517 0.0
H977 H 0.25462 0.72071 0.36169 0.0
H978 H 0.22498 0.68423 0.38887 0.0
C979 C 0.12826 0.55325 0.4637 0.0
C980 C 0.14517 0.60764 0.41085 0.0
H981 H 0.18691 0.62626 0.35758 0.0
C982 C 0.14364 0.63231 0.41556 0.0
C983 C 0.16056 0.60524 0.38934 0.0
C984 C 0.16203 0.57899 0.38246 0.0
C985 C 0.15751 0.65475 0.39975 0.0
C986 C 0.17323 0.65244 0.37868 0.0
C987 C 0.17462 0.6278 0.37371 0.0
C988 C 0.19013 0.67602 0.36307 0.0
C989 C 0.15596 0.68106 0.406 0.0
C990 C 0.18011 0.68393 0.33988 0.0
C991 C 0.1971 0.70495 0.32406 0.0
C992 C 0.22431 0.71811 0.33124 0.0
C993 C 0.23385 0.7108 0.35528 0.0
C994 C 0.21697 0.68994 0.37092 0.0
H995 H 0.14288 0.67962 0.4232 0.0
H996 H 0.17606 0.69715 0.41145 0.0
H997 H 0.14839 0.68725 0.38739 0.0
H998 H 0.15934 0.67335 0.33362 0.0
H999 H 0.18918 0.71005 0.30567 0.0
H1000 H 0.57123 0.8747 0.7024 0.0
H1001 H 0.60114 0.85509 0.71652 0.0
H1002 H 0.65016 0.89117 0.64864 0.0
H1003 H 0.62006 0.91045 0.63393 0.0
H1004 H 0.61705 0.81956 0.68549 0.0
H1005 H 0.7023 0.91711 0.71678 0.0
H1006 H 0.66917 0.91419 0.71131 0.0
H1007 H 0.68849 0.91452 0.68242 0.0
C1008 C 0.58818 0.87828 0.69022 0.0
C1009 C 0.59317 0.89433 0.66703 0.0
C1010 C 0.60537 0.86715 0.69845 0.0
C1011 C 0.6281 0.87195 0.68389 0.0
C1012 C 0.63303 0.88762 0.66053 0.0
H1013 H 0.76006 0.83106 0.72132 0.0
H1014 H 0.73068 0.84912 0.70106 0.0
C1015 C 0.61579 0.8987 0.6522 0.0
C1016 C 0.64647 0.86042 0.69322 0.0
H1017 H 0.70875 0.87769 0.72056 0.0
C1018 C 0.63713 0.83223 0.69314 0.0
C1019 C 0.67276 0.87697 0.70286 0.0
C1020 C 0.68384 0.90739 0.7036 0.0
C1021 C 0.65332 0.82012 0.70235 0.0
C1022 C 0.67938 0.83665 0.71299 0.0
C1023 C 0.68881 0.8649 0.71262 0.0
C1024 C 0.69707 0.8252 0.72492 0.0
C1025 C 0.6424 0.78972 0.69985 0.0
C1026 C 0.68828 0.80595 0.74536 0.0
C1027 C 0.70481 0.79508 0.75626 0.0
C1028 C 0.73081 0.80401 0.74778 0.0
C1029 C 0.74004 0.8239 0.72815 0.0
C1030 C 0.72325 0.83421 0.71661 0.0
H1031 H 0.62684 0.78119 0.68304 0.0
H1032 H 0.65815 0.78313 0.69577 0.0
H1033 H 0.63315 0.78107 0.71931 0.0
H1034 H 0.66867 0.79942 0.75307 0.0
H1035 H 0.69746 0.78004 0.77173 0.0
H1036 H 0.49562 0.50649 0.92879 0.0
H1037 H 0.4697 0.47517 0.89113 0.0
H1038 H 0.39768 0.46394 0.92991 0.0
H1039 H 0.42343 0.4956 0.96746 0.0
H1040 H 0.43891 0.42297 0.90592 0.0
H1041 H 0.37826 0.46358 0.84807 0.0
H1042 H 0.40755 0.48492 0.86879 0.0
H1043 H 0.37672 0.46635 0.88477 0.0
C1044 C 0.47424 0.4979 0.92891 0.0
C1045 C 0.46145 0.50299 0.9512 0.0
C1046 C 0.45952 0.48021 0.90733 0.0
C1047 C 0.4319 0.46745 0.90781 0.0
C1048 C 0.41901 0.47407 0.92898 0.0
H1049 H 0.30367 0.32285 0.84861 0.0
H1050 H 0.33392 0.36678 0.86932 0.0
C1051 C 0.43373 0.49197 0.9505 0.0
C1052 C 0.417 0.44372 0.88945 0.0
H1053 H 0.36383 0.41551 0.84424 0.0
C1054 C 0.42282 0.42144 0.89197 0.0
C1055 C 0.39589 0.44191 0.87172 0.0
C1056 C 0.38935 0.46556 0.86796 0.0
C1057 C 0.40727 0.39682 0.87804 0.0
C1058 C 0.38581 0.39483 0.86072 0.0
C1059 C 0.38043 0.41732 0.85754 0.0
C1060 C 0.36766 0.36901 0.84718 0.0
C1061 C 0.41312 0.37286 0.8831 0.0
C1062 C 0.37679 0.35606 0.82781 0.0
C1063 C 0.35968 0.33085 0.81621 0.0
C1064 C 0.33322 0.31855 0.82365 0.0
C1065 C 0.32402 0.33188 0.8426 0.0
C1066 C 0.34118 0.35695 0.85434 0.0
H1067 H 0.42656 0.37636 0.90152 0.0
H1068 H 0.39459 0.3544 0.88591 0.0
H1069 H 0.42284 0.36904 0.86503 0.0
H1070 H 0.39713 0.36541 0.82179 0.0
H1071 H 0.36709 0.32112 0.8013 0.0
H1072 H 0.86929 0.80979 0.31984 0.0
H1073 H 0.90257 0.84225 0.35233 0.0
H1074 H 0.84101 0.84621 0.40067 0.0
H1075 H 0.80755 0.81356 0.36874 0.0
H1076 H 0.90693 0.89589 0.36579 0.0
H1077 H 0.88994 0.83121 0.45647 0.0
H1078 H 0.87853 0.81718 0.42199 0.0
H1079 H 0.86148 0.83309 0.44051 0.0
C1080 C 0.86282 0.81725 0.33758 0.0
C1081 C 0.83584 0.80908 0.34177 0.0
C1082 C 0.8818 0.83585 0.35597 0.0
C1083 C 0.87402 0.84636 0.37873 0.0
C1084 C 0.8472 0.83797 0.38329 0.0
H1085 H 0.9839 0.95551 0.50629 0.0
H1086 H 0.9428 0.93258 0.47792 0.0
C1087 C 0.82819 0.81934 0.36499 0.0
C1088 C 0.89418 0.86665 0.39734 0.0
H1089 H 0.92362 0.87552 0.46132 0.0
C1090 C 0.91048 0.89163 0.38678 0.0
C1091 C 0.89826 0.8609 0.42471 0.0
C1092 C 0.88128 0.83411 0.43668 0.0
C1093 C 0.93174 0.91077 0.40271 0.0
C1094 C 0.93669 0.90442 0.42952 0.0
C1095 C 0.91952 0.8801 0.44064 0.0
C1096 C 0.96143 0.92096 0.44502 0.0
C1097 C 0.94923 0.93729 0.3906 0.0
C1098 C 0.98511 0.92164 0.43571 0.0
C1099 C 1.00839 0.93464 0.45174 0.0
C1100 C 1.00813 0.94724 0.47702 0.0
C1101 C 0.9845 0.94672 0.48628 0.0
C1102 C 0.96114 0.93354 0.47031 0.0
H1103 H 0.93901 0.94196 0.37301 0.0
H1104 H 0.95563 0.9541 0.40642 0.0
H1105 H 0.96719 0.93614 0.38299 0.0
H1106 H 0.98537 0.91137 0.41647 0.0
H1107 H 0.0265 0.93463 0.44457 0.0
H1108 H 0.45657 0.58682 0.57209 0.0
H1109 H 0.43165 0.6096 0.59204 0.0
H1110 H 0.50117 0.66335 0.64028 0.0
H1111 H 0.52611 0.6402 0.62118 0.0
H1112 H 0.42985 0.61601 0.65565 0.0
H1113 H 0.46787 0.7101 0.59668 0.0
H1114 H 0.46716 0.67882 0.58312 0.0
H1115 H 0.4914 0.69837 0.6095 0.0
C1116 C 0.46653 0.60347 0.58698 0.0
C1117 C 0.49318 0.61162 0.59534 0.0
C1118 C 0.45234 0.61646 0.59818 0.0
C1119 C 0.46475 0.63794 0.6175 0.0
C1120 C 0.49151 0.6468 0.62521 0.0
H1121 H 0.41082 0.74386 0.70105 0.0
H1122 H 0.43696 0.71973 0.68798 0.0
C1123 C 0.50569 0.63369 0.61419 0.0
C1124 C 0.44937 0.65032 0.63071 0.0
H1125 H 0.43927 0.70708 0.63224 0.0
C1126 C 0.4318 0.63592 0.65066 0.0
C1127 C 0.4523 0.67622 0.62394 0.0
C1128 C 0.47057 0.69186 0.60204 0.0
C1129 C 0.41699 0.64703 0.66436 0.0
C1130 C 0.41979 0.67292 0.65747 0.0
C1131 C 0.43749 0.68731 0.63756 0.0
C1132 C 0.40355 0.6851 0.66937 0.0
C1133 C 0.39874 0.63122 0.6862 0.0
C1134 C 0.37619 0.67323 0.66354 0.0
C1135 C 0.36132 0.68696 0.67084 0.0
C1136 C 0.37374 0.71281 0.68377 0.0
C1137 C 0.40096 0.72413 0.69065 0.0
C1138 C 0.4158 0.71034 0.68344 0.0
H1139 H 0.40399 0.61521 0.69396 0.0
H1140 H 0.39926 0.64474 0.70381 0.0
H1141 H 0.37817 0.6213 0.6773 0.0
H1142 H 0.36658 0.65399 0.65216 0.0
H1143 H 0.34036 0.67793 0.66522 0.0
H1144 H 0.58513 0.07497 0.98381 0.0
H1145 H 0.61695 0.10113 0.95064 0.0
H1146 H 0.576 0.15138 0.94024 0.0
H1147 H 0.54322 0.12438 0.97292 0.0
H1148 H 0.59057 0.13796 0.89129 0.0
H1149 H 0.67659 0.17448 0.96588 0.0
H1150 H 0.65938 0.13835 0.96325 0.0
H1151 H 0.64299 0.15778 0.97652 0.0
C1152 C 0.58293 0.09169 0.97461 0.0
C1153 C 0.56188 0.0979 0.98128 0.0
C1154 C 0.60124 0.10671 0.95571 0.0
C1155 C 0.59936 0.12873 0.94353 0.0
C1156 C 0.57799 0.13463 0.94961 0.0
H1157 H 0.69766 0.24609 0.82835 0.0
H1158 H 0.66259 0.21947 0.85863 0.0
C1159 C 0.55931 0.11925 0.96827 0.0
C1160 C 0.61961 0.1453 0.92428 0.0
H1161 H 0.68619 0.18178 0.91867 0.0
C1162 C 0.61146 0.14776 0.89732 0.0
C1163 C 0.64691 0.15799 0.93214 0.0
C1164 C 0.65698 0.15726 0.9611 0.0
C1165 C 0.6299 0.16197 0.87783 0.0
C1166 C 0.65718 0.17442 0.88566 0.0
C1167 C 0.66528 0.17212 0.91266 0.0
C1168 C 0.67778 0.18999 0.8663 0.0
C1169 C 0.62005 0.16285 0.84884 0.0
C1170 C 0.69831 0.18263 0.86097 0.0
C1171 C 0.71859 0.19801 0.84397 0.0
C1172 C 0.71877 0.22111 0.83191 0.0
C1173 C 0.69802 0.22829 0.83707 0.0
C1174 C 0.67785 0.213 0.85427 0.0
H1175 H 0.59986 0.14652 0.84429 0.0
H1176 H 0.61922 0.18249 0.84624 0.0
H1177 H 0.63354 0.16096 0.83355 0.0
H1178 H 0.6987 0.165 0.87009 0.0
H1179 H 0.73414 0.19177 0.84034 0.0
H1180 H 0.10788 0.47176 0.1358 0.0
H1181 H 0.12786 0.44252 0.15233 0.0
H1182 H 0.08978 0.38608 0.08382 0.0
H1183 H 0.06964 0.41502 0.06737 0.0
H1184 H 0.08935 0.38238 0.1615 0.0
H1185 H 0.17179 0.3996 0.09197 0.0
H1186 H 0.16089 0.42542 0.10009 0.0
H1187 H 0.14121 0.39757 0.07688 0.0
C1188 C 0.10428 0.45337 0.12406 0.0
C1189 C 0.08714 0.44535 0.10054 0.0
C1190 C 0.11561 0.43678 0.13347 0.0
C1191 C 0.11025 0.41238 0.11913 0.0
C1192 C 0.0942 0.40502 0.09492 0.0
H1193 H 0.14764 0.27742 0.14166 0.0
H1194 H 0.13006 0.30838 0.1249 0.0
C1195 C 0.08264 0.42139 0.0857 0.0
C1196 C 0.11879 0.39299 0.13096 0.0
H1197 H 0.16028 0.36327 0.12175 0.0
C1198 C 0.10499 0.37826 0.15305 0.0
C1199 C 0.1389 0.38768 0.11944 0.0
C1200 C 0.15425 0.40342 0.09585 0.0
C1201 C 0.11051 0.35774 0.16374 0.0
C1202 C 0.13073 0.3524 0.1523 0.0
C1203 C 0.14467 0.36736 0.1303 0.0
C1204 C 0.13837 0.33193 0.16332 0.0
C1205 C 0.09422 0.34154 0.18664 0.0
C1206 C 0.14827 0.33471 0.19058 0.0
C1207 C 0.15793 0.31691 0.20026 0.0
C1208 C 0.15824 0.29631 0.18269 0.0
C1209 C 0.14741 0.29295 0.15569 0.0
C1210 C 0.1376 0.31072 0.14605 0.0
H1211 H 0.07495 0.34271 0.18738 0.0
H1212 H 0.09038 0.31998 0.18425 0.0
H1213 H 0.10516 0.34979 0.20665 0.0
H1214 H 0.1494 0.35122 0.20407 0.0
H1215 H 0.1659 0.31975 0.22128 0.0
H1216 H 0.53495 0.61514 0.95902 0.0
H1217 H 0.567 0.6448 0.92734 0.0
H1218 H 0.61552 0.60253 0.94012 0.0
H1219 H 0.58404 0.57314 0.97174 0.0
H1220 H 0.64238 0.66014 0.94733 0.0
H1221 H 0.58315 0.6255 0.84822 0.0
H1222 H 0.56747 0.63319 0.87676 0.0
H1223 H 0.57563 0.60503 0.87809 0.0
C1224 C 0.55237 0.61208 0.95493 0.0
C1225 C 0.55702 0.5919 0.96802 0.0
C1226 C 0.57055 0.62893 0.93676 0.0
C1227 C 0.59346 0.62566 0.93135 0.0
C1228 C 0.59794 0.60534 0.94409 0.0
H1229 H 0.71317 0.68721 0.81255 0.0
H1230 H 0.67671 0.66006 0.84101 0.0
C1231 C 0.57991 0.58861 0.96222 0.0
C1232 C 0.61362 0.64409 0.91346 0.0
H1233 H 0.62583 0.66144 0.84672 0.0
C1234 C 0.63875 0.66061 0.92536 0.0
C1235 C 0.60879 0.64423 0.88481 0.0
C1236 C 0.58239 0.62595 0.87102 0.0
C1237 C 0.65933 0.67732 0.9093 0.0
C1238 C 0.65444 0.67775 0.8807 0.0
C1239 C 0.62931 0.66122 0.86875 0.0
C1240 C 0.67563 0.69441 0.86275 0.0
C1241 C 0.68635 0.69377 0.92288 0.0
C1242 C 0.6868 0.72269 0.86543 0.0
C1243 C 0.70768 0.73832 0.84923 0.0
C1244 C 0.71766 0.72584 0.83011 0.0
C1245 C 0.70605 0.69746 0.82719 0.0
C1246 C 0.68515 0.6819 0.84333 0.0
H1247 H 0.6881 0.6871 0.94392 0.0
H1248 H 0.70198 0.69235 0.91037 0.0
H1249 H 0.69005 0.71532 0.92454 0.0
H1250 H 0.67946 0.73265 0.88016 0.0
H1251 H 0.71609 0.76012 0.85187 0.0
H1252 H 0.74 0.39218 0.16117 0.0
H1253 H 0.70952 0.41295 0.15437 0.0
H1254 H 0.66486 0.37015 0.22246 0.0
H1255 H 0.69551 0.3497 0.22974 0.0
H1256 H 0.6441 0.35722 0.15882 0.0
H1257 H 0.67609 0.46183 0.20278 0.0
H1258 H 0.70091 0.45272 0.18925 0.0
H1259 H 0.68439 0.43723 0.21948 0.0
C1260 C 0.72439 0.38817 0.17542 0.0
C1261 C 0.71961 0.36894 0.19552 0.0
C1262 C 0.70709 0.40009 0.17161 0.0
C1263 C 0.68508 0.39294 0.18795 0.0
C1264 C 0.68189 0.37594 0.20984 0.0
H1265 H 0.55662 0.43342 0.13128 0.0
H1266 H 0.5823 0.41861 0.16277 0.0
C1267 C 0.6992 0.36411 0.21374 0.0
C1268 C 0.66247 0.39735 0.17769 0.0
H1269 H 0.64062 0.44576 0.16889 0.0
C1270 C 0.64295 0.37637 0.16146 0.0
C1271 C 0.66121 0.42228 0.18142 0.0
C1272 C 0.68165 0.4449 0.19928 0.0
C1273 C 0.62288 0.38023 0.14737 0.0
C1274 C 0.62254 0.40575 0.1496 0.0
C1275 C 0.64106 0.42622 0.16729 0.0
C1276 C 0.60554 0.41264 0.13088 0.0
C1277 C 0.60293 0.35738 0.12924 0.0
C1278 C 0.61018 0.41394 0.10271 0.0
C1279 C 0.59586 0.42255 0.08483 0.0
C1280 C 0.57662 0.43005 0.09483 0.0
C1281 C 0.57149 0.428 0.12304 0.0
C1282 C 0.58601 0.4195 0.14101 0.0
H1283 H 0.60103 0.33744 0.13592 0.0
H1284 H 0.58319 0.35751 0.12928 0.0
H1285 H 0.60955 0.35976 0.10779 0.0
H1286 H 0.62555 0.40915 0.09469 0.0
H1287 H 0.60075 0.42448 0.06338 0.0
H1288 H 0.02812 0.44903 0.44601 0.0
H1289 H 0.9958 0.42337 0.40918 0.0
H1290 H 0.93345 0.42787 0.4558 0.0
H1291 H 0.96557 0.45384 0.4927 0.0
H1292 H 0.947 0.37406 0.41089 0.0
H1293 H 0.93315 0.46448 0.38156 0.0
H1294 H 0.96108 0.46668 0.40275 0.0
H1295 H 0.92947 0.45743 0.41745 0.0
C1296 C 1.00752 0.44448 0.44848 0.0
C1297 C 0.99931 0.45397 0.47178 0.0
C1298 C 0.9892 0.42982 0.42752 0.0
C1299 C 0.96268 0.42453 0.42984 0.0
C1300 C 0.95414 0.43253 0.4537 0.0
H1301 H 0.81881 0.31935 0.3567 0.0
H1302 H 0.85747 0.34968 0.38505 0.0
C1303 C 0.97242 0.44734 0.47458 0.0
C1304 C 0.9439 0.41159 0.40684 0.0
H1305 H 0.90128 0.42177 0.36263 0.0
C1306 C 0.93727 0.38449 0.39995 0.0
C1307 C 0.93181 0.42571 0.39261 0.0
C1308 C 0.93939 0.45527 0.39875 0.0
C1309 C 0.91735 0.37048 0.37997 0.0
C1310 C 0.90404 0.38417 0.36712 0.0
C1311 C 0.91174 0.41163 0.37282 0.0
C1312 C 0.88009 0.36936 0.35022 0.0
C1313 C 0.90993 0.34098 0.37348 0.0
C1314 C 0.88002 0.37197 0.32168 0.0
C1315 C 0.85785 0.355 0.30556 0.0
C1316 C 0.83615 0.33558 0.31825 0.0
C1317 C 0.83566 0.33432 0.34687 0.0
C1318 C 0.85757 0.35138 0.3629 0.0
H1319 H 0.92596 0.33534 0.38006 0.0
H1320 H 0.89197 0.32842 0.38454 0.0
H1321 H 0.90536 0.33607 0.35108 0.0
H1322 H 0.89745 0.38606 0.31192 0.0
H1323 H 0.85834 0.35577 0.28333 0.0
H1324 H 0.60356 0.5645 0.4879 0.0
H1325 H 0.63707 0.59907 0.46164 0.0
H1326 H 0.61014 0.54657 0.38858 0.0
H1327 H 0.57585 0.51217 0.41455 0.0
H1328 H 0.67798 0.60058 0.43345 0.0
H1329 H 0.60522 0.61329 0.36243 0.0
H1330 H 0.59558 0.5938 0.3928 0.0
H1331 H 0.60229 0.57943 0.36199 0.0
C1332 C 0.6049 0.5602 0.46629 0.0
C1333 C 0.58697 0.53571 0.45321 0.0
C1334 C 0.62404 0.58 0.45131 0.0
C1335 C 0.62575 0.57561 0.42304 0.0
C1336 C 0.60868 0.55067 0.4102 0.0
H1337 H 0.75343 0.67939 0.32171 0.0
H1338 H 0.72391 0.6419 0.34856 0.0
C1339 C 0.58924 0.53097 0.4251 0.0
C1340 C 0.64513 0.59743 0.40707 0.0
H1341 H 0.65041 0.63737 0.35278 0.0
C1342 C 0.67197 0.60857 0.41575 0.0
C1343 C 0.63717 0.60814 0.38428 0.0
C1344 C 0.60848 0.59826 0.37496 0.0
C1345 C 0.69108 0.63007 0.40218 0.0
C1346 C 0.68316 0.64025 0.37904 0.0
C1347 C 0.65638 0.6292 0.37037 0.0
C1348 C 0.70214 0.66322 0.36419 0.0
C1349 C 0.71945 0.64232 0.41312 0.0
C1350 C 0.69956 0.68748 0.36414 0.0
C1351 C 0.71622 0.70879 0.34881 0.0
C1352 C 0.73576 0.70622 0.33313 0.0
C1353 C 0.73871 0.68207 0.33371 0.0
C1354 C 0.72191 0.66066 0.34904 0.0
H1355 H 0.72149 0.63523 0.43386 0.0
H1356 H 0.73152 0.63667 0.3989 0.0
H1357 H 0.72763 0.66472 0.4143 0.0
H1358 H 0.68443 0.68982 0.37575 0.0
H1359 H 0.71353 0.72719 0.34904 0.0
H1360 H 0.83342 0.35861 0.79446 0.0
H1361 H 0.87137 0.39523 0.81813 0.0
H1362 H 0.86191 0.34597 0.88844 0.0
H1363 H 0.82415 0.30915 0.86491 0.0
H1364 H 0.85411 0.41093 0.86635 0.0
H1365 H 0.94264 0.39262 0.88792 0.0
H1366 H 0.91967 0.37667 0.85891 0.0
H1367 H 0.9118 0.36386 0.89272 0.0
C1368 C 0.83967 0.3555 0.81484 0.0
C1369 C 0.82536 0.33168 0.82853 0.0
C1370 C 0.86163 0.37612 0.82795 0.0
C1371 C 0.86921 0.37302 0.85479 0.0
C1372 C 0.85646 0.34836 0.86746 0.0
H1373 H 0.95069 0.47029 0.9956 0.0
H1374 H 0.91687 0.43427 0.96674 0.0
C1375 C 0.83459 0.32766 0.85431 0.0
C1376 C 0.8844 0.39697 0.87222 0.0
H1377 H 0.93648 0.42435 0.9184 0.0
C1378 C 0.8724 0.41425 0.87746 0.0
C1379 C 0.90777 0.40053 0.88677 0.0
C1380 C 0.92138 0.38256 0.88116 0.0
C1381 C 0.88272 0.43466 0.89794 0.0
C1382 C 0.90583 0.43797 0.91294 0.0
C1383 C 0.91832 0.42118 0.90712 0.0
C1384 C 0.91888 0.46016 0.93323 0.0
C1385 C 0.86843 0.45194 0.90379 0.0
C1386 C 0.92938 0.48666 0.92444 0.0
C1387 C 0.94833 0.50724 0.94091 0.0
C1388 C 0.95738 0.50122 0.96588 0.0
C1389 C 0.94432 0.47534 0.9762 0.0
C1390 C 0.92511 0.45476 0.95977 0.0
H1391 H 0.84718 0.44139 0.89707 0.0
H1392 H 0.86993 0.45769 0.92605 0.0
H1393 H 0.87744 0.47069 0.8922 0.0
H1394 H 0.92487 0.49104 0.90386 0.0
H1395 H 0.95772 0.52723 0.93279 0.0
H1396 H 0.8275 0.86437 0.25843 0.0
H1397 H 0.85734 0.90044 0.23039 0.0
H1398 H 0.85617 0.84109 0.16992 0.0
H1399 H 0.82644 0.8049 0.19763 0.0
H1400 H 0.90863 0.88239 0.1911 0.0
H1401 H 0.84002 0.92437 0.15294 0.0
H1402 H 0.83954 0.91734 0.18893 0.0
H1403 H 0.82853 0.88999 0.16358 0.0
C1404 C 0.83329 0.85899 0.239 0.0
C1405 C 0.82462 0.83176 0.23029 0.0
C1406 C 0.85031 0.87961 0.22303 0.0
C1407 C 0.85872 0.87331 0.1981 0.0
C1408 C 0.84981 0.84625 0.18914 0.0
H1409 H 0.94967 0.9811 0.07331 0.0
H1410 H 0.916 0.94473 0.09794 0.0
C1411 C 0.83286 0.82564 0.20505 0.0
C1412 C 0.87787 0.89488 0.18197 0.0
H1413 H 0.88513 0.94827 0.1431 0.0
C1414 C 0.90355 0.89679 0.18055 0.0
C1415 C 0.87092 0.91329 0.16802 0.0
C1416 C 0.84323 0.91121 0.16816 0.0
C1417 C 0.92275 0.91714 0.16592 0.0
C1418 C 0.91605 0.93611 0.15268 0.0
C1419 C 0.89018 0.93379 0.15355 0.0
C1420 C 0.93577 0.95867 0.13802 0.0
C1421 C 0.94998 0.91807 0.16456 0.0
C1422 C 0.95761 0.97878 0.15259 0.0
C1423 C 0.97679 -0.0004 0.13866 0.0
C1424 C 0.97442 0.00065 0.10991 0.0
C1425 C 0.95208 0.98085 0.09547 0.0
C1426 C 0.93286 0.96006 0.10946 0.0
H1427 H 0.95005 0.89859 0.17008 0.0
H1428 H 0.95762 0.92299 0.14363 0.0
H1429 H 0.96375 0.93408 0.17929 0.0
H1430 H 0.95993 0.97822 0.17472 0.0
H1431 H 0.99372 0.01455 0.15041 0.0
H1432 H 0.91967 0.21585 0.89151 0.0
H1433 H 0.94128 0.19383 0.91897 0.0
H1434 H 0.86551 0.12778 0.93148 0.0
H1435 H 0.84375 0.1496 0.90363 0.0
H1436 H 0.94018 0.18117 0.97041 0.0
H1437 H 0.90389 0.08482 0.90889 0.0
H1438 H 0.89934 0.11347 0.89714 0.0
H1439 H 0.87757 0.0916 0.92159 0.0
C1440 C 0.90743 0.19668 0.90013 0.0
C1441 C 0.87973 0.18472 0.89506 0.0
C1442 C 0.91995 0.18394 0.91589 0.0
C1443 C 0.90536 0.15867 0.92725 0.0
C1444 C 0.87763 0.14678 0.9225 0.0
H1445 H 0.97784 0.0993 0.05977 0.0
H1446 H 0.95212 0.11847 0.03407 0.0
C1447 C 0.86508 0.15944 0.90653 0.0
C1448 C 0.91924 0.14541 0.9444 0.0
H1449 H 0.92678 0.08692 0.95136 0.0
C1450 C 0.93716 0.16053 0.96612 0.0
C1451 C 0.91587 0.1185 0.93902 0.0
C1452 C 0.89834 0.10122 0.91524 0.0
C1453 C 0.95152 0.1498 0.98232 0.0
C1454 C 0.94768 0.12269 0.97739 0.0
C1455 C 0.9298 0.10756 0.95562 0.0
C1456 C 0.96276 0.11006 0.99364 0.0
C1457 C 0.9714 0.16815 0.00399 0.0
C1458 C 0.9768 0.09774 0.97997 0.0
C1459 C 0.99126 0.08635 0.99471 0.0
C1460 C 0.99227 0.08678 0.02377 0.0
C1461 C 0.97789 0.09872 0.0375 0.0
C1462 C 0.96324 0.10997 0.02269 0.0
H1463 H 0.97761 0.1898 0.99983 0.0
H1464 H 0.96229 0.16442 0.02432 0.0
H1465 H 0.98929 0.16434 0.00523 0.0
H1466 H 0.97691 0.09724 0.9577 0.0
H1467 H 1.00191 0.07738 0.9832 0.0
H1468 H 0.75352 0.17833 0.74805 0.0
H1469 H 0.71662 0.14006 0.72466 0.0
H1470 H 0.69433 0.19508 0.68098 0.0
H1471 H 0.73122 0.23328 0.70336 0.0
H1472 H 0.66089 0.13031 0.7256 0.0
H1473 H 0.70216 0.1446 0.62138 0.0
H1474 H 0.72239 0.15994 0.65225 0.0
H1475 H 0.70187 0.1743 0.63739 0.0
C1476 C 0.74109 0.18223 0.73301 0.0
C1477 C 0.74528 0.20868 0.72732 0.0
C1478 C 0.71999 0.16047 0.72003 0.0
C1479 C 0.70318 0.16518 0.70137 0.0
C1480 C 0.70753 0.19142 0.69526 0.0
H1481 H 0.56846 0.07424 0.59878 0.0
H1482 H 0.59829 0.10665 0.6335 0.0
C1483 C 0.72869 0.21312 0.70791 0.0
C1484 C 0.68108 0.14266 0.68774 0.0
H1485 H 0.65711 0.11378 0.62439 0.0
C1486 C 0.66 0.12636 0.70353 0.0
C1487 C 0.68041 0.13818 0.65904 0.0
C1488 C 0.70301 0.15503 0.64152 0.0
C1489 C 0.63766 0.10546 0.69087 0.0
C1490 C 0.63702 0.10132 0.66219 0.0
C1491 C 0.6581 0.11749 0.64652 0.0
C1492 C 0.61496 0.07994 0.6474 0.0
C1493 C 0.61477 0.08821 0.70774 0.0
C1494 C 0.61493 0.05457 0.64427 0.0
C1495 C 0.59836 0.03621 0.62421 0.0
C1496 C 0.58196 0.04336 0.60722 0.0
C1497 C 0.58133 0.06848 0.61131 0.0
C1498 C 0.59784 0.08674 0.6314 0.0
H1499 H 0.61794 0.09499 0.72982 0.0
H1500 H 0.59632 0.08872 0.6995 0.0
H1501 H 0.61188 0.06689 0.70603 0.0
H1502 H 0.6287 0.04962 0.65629 0.0
H1503 H 0.5989 0.0168 0.62158 0.0
H1504 H 0.56367 0.91905 0.551 0.0
H1505 H 0.58764 0.8987 0.5245 0.0
H1506 H 0.5977 0.95447 0.46033 0.0
H1507 H 0.57362 0.97461 0.48639 0.0
H1508 H 0.58306 0.9039 0.43812 0.0
H1509 H 0.66631 0.9263 0.51393 0.0
H1510 H 0.6342 0.90791 0.52733 0.0
H1511 H 0.64389 0.94186 0.51664 0.0
C1512 C 0.57109 0.92716 0.53133 0.0
C1513 C 0.56655 0.94875 0.52116 0.0
C1514 C 0.58505 0.91553 0.51613 0.0
C1515 C 0.59509 0.9251 0.49027 0.0
C1516 C 0.59041 0.94651 0.48009 0.0
H1517 H 0.71315 0.89477 0.39683 0.0
H1518 H 0.68932 0.91334 0.42554 0.0
C1519 C 0.57655 0.95815 0.49523 0.0
C1520 C 0.60986 0.91267 0.47346 0.0
H1521 H 0.66417 0.89884 0.47466 0.0
C1522 C 0.60076 0.9028 0.44626 0.0
C1523 C 0.63333 0.91134 0.4835 0.0
C1524 C 0.64524 0.92262 0.51183 0.0
C1525 C 0.61396 0.89156 0.42928 0.0
C1526 C 0.63708 0.88966 0.43951 0.0
C1527 C 0.64642 0.89987 0.46658 0.0
C1528 C 0.65198 0.87766 0.42233 0.0
C1529 C 0.60328 0.88243 0.40012 0.0
C1530 C 0.63951 0.851 0.41098 0.0
C1531 C 0.65326 0.8401 0.39459 0.0
C1532 C 0.68016 0.85536 0.38886 0.0
C1533 C 0.6927 0.88193 0.40071 0.0
C1534 C 0.67893 0.89278 0.41719 0.0
H1535 H 0.5902 0.89174 0.39307 0.0
H1536 H 0.61959 0.88753 0.38572 0.0
H1537 H 0.59145 0.86018 0.39906 0.0
H1538 H 0.61902 0.83839 0.41497 0.0
H1539 H 0.64271 0.81943 0.38667 0.0
H1540 H 0.83345 0.16106 0.41311 0.0
H1541 H 0.86524 0.14171 0.41647 0.0
H1542 H 0.8884 0.16451 0.33378 0.0
H1543 H 0.85615 0.18343 0.32994 0.0
H1544 H 0.87991 0.10446 0.38066 0.0
H1545 H 0.95224 0.21319 0.39043 0.0
H1546 H 0.91729 0.2025 0.39426 0.0
H1547 H 0.92956 0.20157 0.36082 0.0
C1548 C 0.8446 0.16109 0.39529 0.0
C1549 C 0.84296 0.17438 0.37157 0.0
C1550 C 0.86272 0.15006 0.39724 0.0
C1551 C 0.87932 0.15228 0.37553 0.0
C1552 C 0.87585 0.163 0.35078 0.0
H1553 H 1.00147 0.09875 0.41215 0.0
H1554 H 0.98023 0.12074 0.38387 0.0
C1555 C 0.85765 0.17394 0.34876 0.0
C1556 C 0.90279 0.14754 0.38084 0.0
H1557 H 0.96762 0.18124 0.40273 0.0
C1558 C 0.89931 0.12108 0.38471 0.0
C1559 C 0.92784 0.16953 0.38641 0.0
C1560 C 0.93216 0.19837 0.38293 0.0
C1561 C 0.9201 0.11608 0.3954 0.0
C1562 C 0.94477 0.13817 0.40224 0.0
C1563 C 0.94866 0.16452 0.3971 0.0
C1564 C 0.965 0.13406 0.41853 0.0
C1565 C 0.91514 0.08742 0.40115 0.0
C1566 C 0.96487 0.1362 0.44729 0.0
C1567 C 0.97673 0.12354 0.46342 0.0
C1568 C 0.98872 0.10867 0.45078 0.0
C1569 C 0.99192 0.10979 0.42222 0.0
C1570 C 0.97997 0.12239 0.40609 0.0
H1571 H 0.89462 0.07262 0.39503 0.0
H1572 H 0.9291 0.08191 0.38978 0.0
H1573 H 0.91872 0.08574 0.42345 0.0
H1574 H 0.95327 0.14517 0.45707 0.0
H1575 H 0.97396 0.12293 0.48539 0.0
H1576 H 0.69568 0.17835 0.2824 0.0
H1577 H 0.65773 0.15507 0.2499 0.0
H1578 H 0.70296 0.20256 0.18418 0.0
H1579 H 0.74118 0.22441 0.21593 0.0
H1580 H 0.63367 0.18287 0.2198 0.0
H1581 H 0.6717 0.12502 0.15243 0.0
H1582 H 0.68716 0.1397 0.18564 0.0
H1583 H 0.69213 0.16072 0.15668 0.0
C1584 C 0.69762 0.18301 0.26085 0.0
C1585 C 0.72093 0.20299 0.25144 0.0
C1586 C 0.67605 0.17014 0.24252 0.0
C1587 C 0.67788 0.17736 0.21496 0.0
C1588 C 0.70147 0.1967 0.2054 0.0
H1589 H 0.54936 0.1293 0.09333 0.0
H1590 H 0.58288 0.15703 0.12832 0.0
C1591 C 0.72308 0.20919 0.22353 0.0
C1592 C 0.65468 0.16509 0.19642 0.0
H1593 H 0.62933 0.1219 0.14079 0.0
C1594 C 0.63255 0.16951 0.20248 0.0
C1595 C 0.65394 0.14817 0.17383 0.0
C1596 C 0.67741 0.14291 0.16678 0.0
C1597 C 0.60892 0.15633 0.18687 0.0
C1598 C 0.60794 0.13878 0.16485 0.0
C1599 C 0.63042 0.13528 0.1581 0.0
C1600 C 0.58362 0.12285 0.14879 0.0
C1601 C 0.585 0.16046 0.19442 0.0
C1602 C 0.57265 0.09469 0.14975 0.0
C1603 C 0.55386 0.07885 0.12975 0.0
C1604 C 0.54605 0.09115 0.10863 0.0
C1605 C 0.55526 0.11937 0.10931 0.0
C1606 C 0.57423 0.13523 0.12928 0.0
H1607 H 0.58822 0.17202 0.21435 0.0
H1608 H 0.58035 0.17174 0.17812 0.0
H1609 H 0.56755 0.14066 0.1957 0.0
H1610 H 0.57994 0.08506 0.16486 0.0
H1611 H 0.54671 0.0571 0.1299 0.0
H1612 H 0.72103 0.87826 0.83088 0.0
H1613 H 0.69314 0.90143 0.83999 0.0
H1614 H 0.73694 0.93444 0.917 0.0
H1615 H 0.7648 0.91129 0.90811 0.0
H1616 H 0.66134 0.8929 0.88374 0.0
H1617 H 0.73329 0.00026 0.88413 0.0
H1618 H 0.73999 0.97348 0.86922 0.0
H1619 H 0.74499 0.98134 0.90573 0.0
C1620 C 0.72477 0.89057 0.8497 0.0
C1621 C 0.74502 0.89293 0.86887 0.0
C1622 C 0.70897 0.90392 0.85474 0.0
C1623 C 0.71332 0.91999 0.87889 0.0
C1624 C 0.73377 0.92272 0.89785 0.0
H1625 H 0.64201 0.9719 0.99565 0.0
H1626 H 0.66761 0.95846 0.96414 0.0
C1627 C 0.74959 0.90941 0.89283 0.0
C1628 C 0.69502 0.93185 0.8858 0.0
H1629 H 0.69437 0.99011 0.91088 0.0
C1630 C 0.66833 0.91428 0.88893 0.0
C1631 C 0.70418 0.95977 0.89224 0.0
C1632 C 0.73214 0.97982 0.88736 0.0
C1633 C 0.65112 0.92359 0.90065 0.0
C1634 C 0.66097 0.95104 0.90933 0.0
C1635 C 0.68705 0.96899 0.9043 0.0
C1636 C 0.64588 0.96042 0.92747 0.0
C1637 C 0.62307 0.9038 0.90558 0.0
C1638 C 0.62536 0.96607 0.91702 0.0
C1639 C 0.61081 0.97407 0.93498 0.0
C1640 C 0.61662 0.97642 0.96357 0.0
C1641 C 0.63735 0.9708 0.97375 0.0
C1642 C 0.6519 0.96298 0.95583 0.0
H1643 H 0.61835 0.88313 0.8972 0.0
H1644 H 0.61987 0.9029 0.92803 0.0
H1645 H 0.60908 0.91076 0.89584 0.0
H1646 H 0.62058 0.96418 0.89509 0.0
H1647 H 0.59513 0.97854 0.9265 0.0
H1648 H 0.03181 0.9312 0.60828 0.0
H1649 H 1.00188 0.90361 0.64299 0.0
H1650 H 0.93861 0.91865 0.60683 0.0
H1651 H 0.96807 0.9461 0.57259 0.0
H1652 H 0.94788 0.92929 0.66569 0.0
H1653 H 0.93727 0.82748 0.63063 0.0
H1654 H 0.97012 0.85453 0.63479 0.0
H1655 H 0.94785 0.85554 0.6081 0.0
C1656 C 1.01142 0.92826 0.6076 0.0
C1657 C 1.0023 0.94091 0.5879 0.0
C1658 C 0.99442 0.9126 0.6274 0.0
C1659 C 0.96812 0.90922 0.6274 0.0
C1660 C 0.9589 0.92123 0.60727 0.0
H1661 H 0.82407 0.80152 0.69496 0.0
H1662 H 0.86107 0.82876 0.66715 0.0
C1663 C 0.97579 0.9369 0.58773 0.0
C1664 C 0.94992 0.89372 0.64853 0.0
H1665 H 0.91214 0.82951 0.66765 0.0
C1666 C 0.94028 0.9075 0.66645 0.0
C1667 C 0.93992 0.86534 0.64908 0.0
C1668 C 0.94911 0.84966 0.62959 0.0
C1669 C 0.92035 0.89351 0.68454 0.0
C1670 C 0.9101 0.86506 0.68484 0.0
C1671 C 0.92018 0.85135 0.66736 0.0
C1672 C 0.88788 0.84895 0.70201 0.0
C1673 C 0.90963 0.90912 0.70229 0.0
C1674 C 0.8908 0.85129 0.73082 0.0
C1675 C 0.86969 0.83577 0.7468 0.0
C1676 C 0.84533 0.81757 0.73421 0.0
C1677 C 0.84255 0.81528 0.70532 0.0
C1678 C 0.86366 0.8308 0.68939 0.0
H1679 H 0.91603 0.93016 0.69569 0.0
H1680 H 0.88768 0.89892 0.70175 0.0
H1681 H 0.9169 0.91003 0.72394 0.0
H1682 H 0.90947 0.86494 0.74091 0.0
H1683 H 0.87252 0.838 0.76901 0.0
H1684 H 0.1452 0.79264 0.85686 0.0
H1685 H 0.12175 0.82013 0.8675 0.0
H1686 H 0.18822 0.87382 0.91978 0.0
H1687 H 0.21185 0.84653 0.90902 0.0
H1688 H 0.10921 0.82629 0.9208 0.0
H1689 H 0.1681 0.92605 0.87724 0.0
H1690 H 0.17116 0.89583 0.86644 0.0
H1691 H 0.18741 0.91395 0.898 0.0
C1692 C 0.15483 0.81045 0.87044 0.0
C1693 C 0.18008 0.81735 0.8825 0.0
C1694 C 0.14157 0.82619 0.87628 0.0
C1695 C 0.15341 0.84902 0.8942 0.0
C1696 C 0.17904 0.85656 0.90544 0.0
H1697 H 0.09986 0.9455 0.99212 0.0
H1698 H 0.12329 0.92125 0.97196 0.0
C1699 C 0.19239 0.84089 0.89948 0.0
C1700 C 0.13771 0.86281 0.90392 0.0
H1701 H 0.13661 0.92427 0.91022 0.0
C1702 C 0.11496 0.84763 0.91817 0.0
C1703 C 0.14553 0.89065 0.90055 0.0
C1704 C 0.16925 0.90755 0.8845 0.0
C1705 C 0.10008 0.85978 0.92981 0.0
C1706 C 0.10818 0.88765 0.92687 0.0
C1707 C 0.13069 0.90283 0.91235 0.0
C1708 C 0.09368 0.90152 0.93918 0.0
C1709 C 0.07625 0.84303 0.94581 0.0
C1710 C 0.06935 0.89809 0.9273 0.0
C1711 C 0.05606 0.91208 0.93852 0.0
C1712 C 0.06702 0.92961 0.96177 0.0
C1713 C 0.0912 0.93249 0.97391 0.0
C1714 C 0.10452 0.91862 0.96256 0.0
H1715 H 0.07453 0.82236 0.94895 0.0
H1716 H 0.07731 0.85307 0.96622 0.0
H1717 H 0.05805 0.84125 0.9345 0.0
H1718 H 0.0609 0.88495 0.90912 0.0
H1719 H 0.03761 0.90972 0.92859 0.0
H1720 H 0.98078 0.47166 0.59043 0.0
H1721 H 0.94807 0.4419 0.6207 0.0
H1722 H 0.9851 0.38752 0.61893 0.0
H1723 H 0.01833 0.41735 0.5884 0.0
H1724 H 0.91267 0.38589 0.60951 0.0
H1725 H 0.97919 0.4028 0.70237 0.0
H1726 H 0.98804 0.42551 0.67428 0.0
H1727 H 0.98958 0.39361 0.67068 0.0
C1728 C 0.98223 0.45347 0.59645 0.0
C1729 C 1.0024 0.44701 0.58694 0.0
C1730 C 0.96338 0.43644 0.61378 0.0
C1731 C 0.96428 0.41266 0.62221 0.0
C1732 C 0.9843 0.40602 0.61291 0.0
H1733 H 0.86412 0.29368 0.7348 0.0
H1734 H 0.89855 0.31934 0.7034 0.0
C1735 C 1.00323 0.42306 0.59542 0.0
C1736 C 0.94388 0.39479 0.64043 0.0
H1737 H 0.93449 0.37204 0.7057 0.0
C1738 C 0.91741 0.38273 0.63051 0.0
C1739 C 0.95018 0.39076 0.66777 0.0
C1740 C 0.97824 0.40395 0.67962 0.0
C1741 C 0.897 0.36667 0.64723 0.0
C1742 C 0.90321 0.3631 0.67482 0.0
C1743 C 0.92977 0.37482 0.68457 0.0
C1744 C 0.88242 0.34773 0.69405 0.0
C1745 C 0.86905 0.35345 0.63502 0.0
C1746 C 0.86222 0.3555 0.69969 0.0
C1747 C 0.84243 0.34079 0.71745 0.0
C1748 C 0.84262 0.3182 0.73032 0.0
C1749 C 0.86333 0.31094 0.72526 0.0
C1750 C 0.88302 0.32556 0.70727 0.0
H1751 H 0.86868 0.35133 0.61221 0.0
H1752 H 0.85779 0.33315 0.64325 0.0
H1753 H 0.85882 0.3662 0.64029 0.0
H1754 H 0.86178 0.37302 0.69038 0.0
H1755 H 0.82702 0.34723 0.72117 0.0
H1756 H 0.51573 0.12697 0.43157 0.0
H1757 H 0.49594 0.15653 0.41631 0.0
H1758 H 0.4367 0.12468 0.47687 0.0
H1759 H 0.4569 0.09582 0.49294 0.0
H1760 H 0.44361 0.13704 0.39512 0.0
H1761 H 0.46193 0.20648 0.4866 0.0
H1762 H 0.47992 0.18634 0.4816 0.0
H1763 H 0.44702 0.17129 0.49405 0.0
C1764 C 0.49888 0.12675 0.44205 0.0
C1765 C 0.48775 0.10905 0.46334 0.0
C1766 C 0.48753 0.14348 0.43321 0.0
C1767 C 0.46505 0.14281 0.44564 0.0
C1768 C 0.45431 0.1257 0.46735 0.0
H1769 H 0.35599 0.21226 0.41273 0.0
H1770 H 0.37696 0.18361 0.42791 0.0
C1771 C 0.46567 0.10904 0.47626 0.0
C1772 C 0.45161 0.15848 0.43457 0.0
H1773 H 0.43156 0.20705 0.45177 0.0
C1774 C 0.44112 0.15252 0.40737 0.0
C1775 C 0.44835 0.17843 0.45081 0.0
C1776 C 0.46009 0.18623 0.47981 0.0
C1777 C 0.42703 0.16584 0.39604 0.0
C1778 C 0.42367 0.18565 0.41235 0.0
C1779 C 0.43415 0.19164 0.4395 0.0
C1780 C 0.40998 0.20111 0.40146 0.0
C1781 C 0.41544 0.15837 0.36696 0.0
C1782 C 0.42176 0.2202 0.38161 0.0
C1783 C 0.40996 0.2366 0.37306 0.0
C1784 C 0.38627 0.23409 0.3843 0.0
C1785 C 0.37424 0.21452 0.40377 0.0
C1786 C 0.38614 0.19822 0.41242 0.0
H1787 H 0.41541 0.13917 0.3591 0.0
H1788 H 0.39486 0.15634 0.36577 0.0
H1789 H 0.42734 0.17465 0.35325 0.0
H1790 H 0.44034 0.22278 0.37321 0.0
H1791 H 0.41936 0.25125 0.35767 0.0
H1792 H 0.57518 0.55599 0.09541 0.0
H1793 H 0.6133 0.58864 0.12351 0.0
H1794 H 0.58626 0.65021 0.11019 0.0
H1795 H 0.54819 0.6181 0.08334 0.0
H1796 H 0.65171 0.6379 0.10355 0.0
H1797 H 0.60142 0.65635 0.19271 0.0
H1798 H 0.58557 0.62727 0.16929 0.0
H1799 H 0.58719 0.65953 0.16029 0.0
C1800 C 0.5771 0.57631 0.09913 0.0
C1801 C 0.55882 0.58455 0.08716 0.0
C1802 C 0.59887 0.59489 0.11493 0.0
C1803 C 0.60226 0.62161 0.11893 0.0
C1804 C 0.58363 0.62952 0.10769 0.0
H1805 H 0.71362 0.76409 0.20931 0.0
H1806 H 0.68241 0.73714 0.17181 0.0
C1807 C 0.56195 0.61111 0.09221 0.0
C1808 C 0.62595 0.6421 0.13343 0.0
H1809 H 0.64539 0.68898 0.18648 0.0
C1810 C 0.6505 0.649 0.12183 0.0
C1811 C 0.62398 0.65663 0.15691 0.0
C1812 C 0.59814 0.64941 0.17067 0.0
C1813 C 0.67335 0.67051 0.1331 0.0
C1814 C 0.67133 0.68507 0.15659 0.0
C1815 C 0.64671 0.67814 0.16804 0.0
C1816 C 0.69464 0.70472 0.17244 0.0
C1817 C 0.6993 0.67746 0.11973 0.0
C1818 C 0.7123 0.69574 0.18421 0.0
C1819 C 0.72989 0.71091 0.2054 0.0
C1820 C 0.72981 0.7351 0.21547 0.0
C1821 C 0.71373 0.7453 0.20215 0.0
C1822 C 0.69611 0.73006 0.18069 0.0
H1823 H 0.69616 0.67201 0.09733 0.0
H1824 H 0.7128 0.69929 0.12267 0.0
H1825 H 0.70909 0.66569 0.12907 0.0
H1826 H 0.7111 0.67601 0.17859 0.0
H1827 H 0.7425 0.70281 0.2149 0.0
H1828 H 0.2172 0.24615 0.69885 0.0
H1829 H 0.1946 0.20596 0.66794 0.0
H1830 H 0.22509 0.16151 0.71857 0.0
H1831 H 0.24693 0.20112 0.7498 0.0
H1832 H 0.21774 0.16397 0.64265 0.0
H1833 H 0.13784 0.12958 0.71826 0.0
H1834 H 0.15854 0.16503 0.71424 0.0
H1835 H 0.17203 0.14449 0.73041 0.0
C1836 C 0.21956 0.22798 0.70287 0.0
C1837 C 0.23413 0.22666 0.72621 0.0
C1838 C 0.20684 0.20523 0.68527 0.0
C1839 C 0.20854 0.18115 0.69113 0.0
C1840 C 0.22404 0.18019 0.71371 0.0
H1841 H 0.10458 0.02216 0.61603 0.0
H1842 H 0.13902 0.05673 0.64627 0.0
C1843 C 0.23666 0.20283 0.73129 0.0
C1844 C 0.19126 0.15616 0.67589 0.0
H1845 H 0.13038 0.10318 0.67739 0.0
C1846 C 0.19878 0.15043 0.65026 0.0
C1847 C 0.16676 0.13874 0.6863 0.0
C1848 C 0.15809 0.1446 0.71379 0.0
C1849 C 0.18168 0.12781 0.63413 0.0
C1850 C 0.15672 0.11108 0.64404 0.0
C1851 C 0.14972 0.11619 0.67016 0.0
C1852 C 0.13633 0.09022 0.62624 0.0
C1853 C 0.18993 0.12229 0.6063 0.0
C1854 C 0.12327 0.09802 0.60583 0.0
C1855 C 0.10344 0.07854 0.58899 0.0
C1856 C 0.09662 0.05102 0.59228 0.0
C1857 C 0.1095 0.04327 0.61312 0.0
C1858 C 0.12917 0.06285 0.63024 0.0
H1859 H 0.21158 0.13372 0.60407 0.0
H1860 H 0.18429 0.10037 0.6029 0.0
H1861 H 0.17954 0.12838 0.59003 0.0
H1862 H 0.12854 0.1192 0.60288 0.0
H1863 H 0.09409 0.0851 0.57286 0.0
H1864 H 0.7176 0.27878 0.35029 0.0
H1865 H 0.68761 0.29656 0.36788 0.0
H1866 H 0.69939 0.34501 0.29674 0.0
H1867 H 0.72881 0.32674 0.27859 0.0
H1868 H 0.69372 0.34554 0.38358 0.0
H1869 H 0.62061 0.31032 0.29545 0.0
H1870 H 0.64658 0.29947 0.29931 0.0
H1871 H 0.65328 0.33168 0.28519 0.0
C1872 C 0.71374 0.29309 0.33819 0.0
C1873 C 0.72564 0.30103 0.31277 0.0
C1874 C 0.69654 0.30335 0.34839 0.0
C1875 C 0.69059 0.32184 0.33353 0.0
C1876 C 0.70285 0.33021 0.30839 0.0
H1877 H 0.5968 0.41183 0.36459 0.0
H1878 H 0.62787 0.39491 0.34782 0.0
C1879 C 0.71993 0.31982 0.29806 0.0
C1880 C 0.67198 0.33257 0.34456 0.0
H1881 H 0.61606 0.34083 0.32821 0.0
C1882 C 0.67667 0.34432 0.37145 0.0
C1883 C 0.64952 0.33106 0.329 0.0
C1884 C 0.642 0.31721 0.30076 0.0
C1885 C 0.66004 0.35493 0.38284 0.0
C1886 C 0.63784 0.3537 0.36712 0.0
C1887 C 0.63311 0.34197 0.34029 0.0
C1888 C 0.61927 0.36441 0.37807 0.0
C1889 C 0.66668 0.36791 0.41148 0.0
C1890 C 0.60378 0.35291 0.40065 0.0
C1891 C 0.58584 0.36251 0.41028 0.0
C1892 C 0.58294 0.384 0.39767 0.0
C1893 C 0.5986 0.39552 0.37512 0.0
C1894 C 0.61634 0.38574 0.36536 0.0
H1895 H 0.68732 0.37266 0.41846 0.0
H1896 H 0.664 0.3868 0.41241 0.0
H1897 H 0.65315 0.35383 0.42606 0.0
H1898 H 0.60531 0.33623 0.41068 0.0
H1899 H 0.57438 0.35321 0.42779 0.0
H1900 H 0.4272 0.00438 0.095 0.0
H1901 H 0.40262 0.96948 0.12764 0.0
H1902 H 0.46518 0.94375 0.13 0.0
H1903 H 0.48938 0.97784 0.09739 0.0
H1904 H 0.39638 0.90612 0.11228 0.0
H1905 H 0.43936 0.95642 0.21469 0.0
H1906 H 0.43539 0.97521 0.18632 0.0
H1907 H 0.46025 0.96296 0.18564 0.0
C1908 C 0.43574 0.99147 0.10283 0.0
C1909 C 0.45992 0.99346 0.09344 0.0
C1910 C 0.42178 0.97164 0.12138 0.0
C1911 C 0.43223 0.95419 0.13111 0.0
C1912 C 0.45689 0.95707 0.1227 0.0
H1913 H 0.37239 0.8194 0.24313 0.0
H1914 H 0.40188 0.85444 0.21317 0.0
C1915 C 0.47056 0.97644 0.10397 0.0
C1916 C 0.41664 0.93125 0.14804 0.0
H1917 H 0.40863 0.91049 0.21406 0.0
C1918 C 0.39892 0.90705 0.13454 0.0
C1919 C 0.42065 0.93249 0.17692 0.0
C1920 C 0.4399 0.95812 0.19198 0.0
C1921 C 0.3847 0.88398 0.1493 0.0
C1922 C 0.38804 0.88537 0.17833 0.0
C1923 C 0.40623 0.90947 0.19179 0.0
C1924 C 0.3707 0.86302 0.19514 0.0
C1925 C 0.36625 0.85827 0.13371 0.0
C1926 C 0.34363 0.85632 0.19473 0.0
C1927 C 0.32706 0.83675 0.21173 0.0
C1928 C 0.33716 0.82335 0.22956 0.0
C1929 C 0.36416 0.82937 0.22946 0.0
C1930 C 0.38094 0.84939 0.21252 0.0
H1931 H 0.3718 0.85805 0.112 0.0
H1932 H 0.36617 0.84024 0.14363 0.0
H1933 H 0.34584 0.85671 0.13354 0.0
H1934 H 0.33538 0.86678 0.18172 0.0
H1935 H 0.30626 0.83234 0.2112 0.0
H1936 H 0.98053 0.67769 0.92582 0.0
H1937 H 0.94981 0.69634 0.9114 0.0
H1938 H 0.91981 0.63692 0.84401 0.0
H1939 H 0.95021 0.618 0.85854 0.0
H1940 H 0.94636 0.71937 0.86474 0.0
H1941 H 0.85179 0.62921 0.87582 0.0
H1942 H 0.88291 0.63148 0.88968 0.0
H1943 H 0.8734 0.6222 0.85386 0.0
C1944 C 0.96738 0.66858 0.90793 0.0
C1945 C 0.96784 0.6463 0.89336 0.0
C1946 C 0.94973 0.6792 0.89976 0.0
C1947 C 0.9321 0.66781 0.87686 0.0
C1948 C 0.93262 0.64564 0.86221 0.0
H1949 H 0.827 0.7122 0.77808 0.0
H1950 H 0.85564 0.69287 0.7971 0.0
C1951 C 0.95012 0.63488 0.87048 0.0
C1952 C 0.9141 0.67988 0.86754 0.0
H1953 H 0.84955 0.66478 0.85003 0.0
C1954 C 0.92516 0.70746 0.86179 0.0
C1955 C 0.88636 0.66445 0.86379 0.0
C1956 C 0.87287 0.63527 0.87139 0.0
C1957 C 0.90944 0.71975 0.85165 0.0
C1958 C 0.88189 0.70411 0.84716 0.0
C1959 C 0.87072 0.67667 0.85325 0.0
C1960 C 0.86439 0.71585 0.83587 0.0
C1961 C 0.92247 0.74924 0.84517 0.0
C1962 C 0.8596 0.73504 0.85144 0.0
C1963 C 0.84312 0.74606 0.8407 0.0
C1964 C 0.83113 0.73818 0.81408 0.0
C1965 C 0.83593 0.71885 0.79859 0.0
C1966 C 0.85227 0.70771 0.80944 0.0
H1967 H 0.94436 0.7573 0.84526 0.0
H1968 H 0.91514 0.75239 0.82473 0.0
H1969 H 0.91738 0.76108 0.86083 0.0
H1970 H 0.86852 0.74139 0.872 0.0
H1971 H 0.83986 0.76083 0.85326 0.0
H1972 H 0.44372 0.45222 0.0528 0.0
H1973 H 0.41473 0.42043 0.08465 0.0
H1974 H 0.42999 0.48601 0.14375 0.0
H1975 H 0.45849 0.51824 0.11142 0.0
H1976 H 0.42728 0.40925 0.13442 0.0
H1977 H 0.35032 0.44694 0.14281 0.0
H1978 H 0.37469 0.45795 0.11686 0.0
H1979 H 0.38332 0.47192 0.15155 0.0
C1980 C 0.44077 0.45996 0.07249 0.0
C1981 C 0.45328 0.48773 0.0796 0.0
C1982 C 0.42419 0.44175 0.09067 0.0
C1983 C 0.41992 0.45087 0.11642 0.0
C1984 C 0.43248 0.47861 0.12371 0.0
H1985 H 0.35865 0.34268 0.2502 0.0
H1986 H 0.38564 0.37852 0.22067 0.0
C1987 C 0.44885 0.49696 0.1053 0.0
C1988 C 0.40319 0.43095 0.13585 0.0
H1989 H 0.34743 0.41218 0.17246 0.0
C1990 C 0.4098 0.40988 0.1427 0.0
C1991 C 0.38028 0.43171 0.14644 0.0
C1992 C 0.37153 0.45319 0.13888 0.0
C1993 C 0.39408 0.38943 0.15971 0.0
C1994 C 0.3715 0.39049 0.17078 0.0
C1995 C 0.36485 0.41155 0.16401 0.0
C1996 C 0.35454 0.36977 0.18933 0.0
C1997 C 0.40148 0.36653 0.16511 0.0
C1998 C 0.32777 0.35363 0.18197 0.0
C1999 C 0.3121 0.33323 0.19901 0.0
C2000 C 0.32307 0.32866 0.22359 0.0
C2001 C 0.34971 0.34535 0.23116 0.0
C2002 C 0.36522 0.36583 0.2143 0.0
H2003 H 0.41471 0.36485 0.14937 0.0
H2004 H 0.41215 0.37027 0.18548 0.0
H2005 H 0.38361 0.34694 0.16535 0.0
H2006 H 0.31916 0.35651 0.1628 0.0
H2007 H 0.2916 0.32079 0.19272 0.0
H2008 H 0.45529 0.68045 0.95537 0.0
H2009 H 0.4346 0.69783 0.92083 0.0
H2010 H 0.39366 0.61792 0.88269 0.0
H2011 H 0.41366 0.60025 0.91744 0.0
H2012 H 0.42914 0.69408 0.85943 0.0
H2013 H 0.33625 0.6398 0.91429 0.0
H2014 H 0.36834 0.64604 0.92905 0.0
H2015 H 0.35261 0.61973 0.90289 0.0
C2016 C 0.44211 0.66669 0.93942 0.0
C2017 C 0.43572 0.63897 0.93928 0.0
C2018 C 0.43058 0.67666 0.9196 0.0
C2019 C 0.41253 0.65902 0.89953 0.0
C2020 C 0.40754 0.63173 0.89817 0.0
H2021 H 0.32954 0.71309 0.7769 0.0
H2022 H 0.35647 0.69246 0.79769 0.0
C2023 C 0.41902 0.62173 0.91796 0.0
C2024 C 0.39626 0.66839 0.88261 0.0
H2025 H 0.33388 0.66381 0.87596 0.0
C2026 C 0.40827 0.68745 0.86278 0.0
C2027 C 0.36921 0.65981 0.88756 0.0
C2028 C 0.35577 0.64039 0.90973 0.0
C2029 C 0.39384 0.69858 0.84787 0.0
C2030 C 0.36668 0.6899 0.85278 0.0
C2031 C 0.35468 0.67036 0.87223 0.0
C2032 C 0.35058 0.70208 0.83969 0.0
C2033 C 0.40805 0.72021 0.82791 0.0
C2034 C 0.33754 0.71329 0.85641 0.0
C2035 C 0.32144 0.72402 0.84464 0.0
C2036 C 0.31862 0.72423 0.81598 0.0
C2037 C 0.33169 0.71319 0.79913 0.0
C2038 C 0.34724 0.70172 0.81094 0.0
H2039 H 0.42985 0.72919 0.8317 0.0
H2040 H 0.40352 0.71117 0.80663 0.0
H2041 H 0.40153 0.73662 0.82924 0.0
H2042 H 0.33988 0.71379 0.87864 0.0
H2043 H 0.31172 0.73276 0.85791 0.0
H2044 H 0.09543 0.56663 0.55139 0.0
H2045 H 0.11756 0.6087 0.57978 0.0
H2046 H 0.15106 0.56909 0.63359 0.0
H2047 H 0.12833 0.5269 0.60586 0.0
H2048 H 0.11259 0.60695 0.64734 0.0
H2049 H 0.2116 0.64556 0.60229 0.0
H2050 H 0.1812 0.62561 0.58243 0.0
H2051 H 0.19456 0.60962 0.60605 0.0
C2052 C 0.10712 0.56695 0.56964 0.0
C2053 C 0.10976 0.54375 0.57725 0.0
C2054 C 0.1199 0.59087 0.58544 0.0
C2055 C 0.13564 0.59155 0.6085 0.0
C2056 C 0.13887 0.56857 0.61566 0.0
H2057 H 0.24068 0.67256 0.73682 0.0
H2058 H 0.21193 0.64427 0.6985 0.0
C2059 C 0.12602 0.54469 0.59996 0.0
C2060 C 0.14833 0.61583 0.62615 0.0
H2061 H 0.20975 0.66185 0.64768 0.0
C2062 C 0.13371 0.6196 0.64727 0.0
C2063 C 0.17573 0.63185 0.62546 0.0
C2064 C 0.19178 0.62818 0.60274 0.0
C2065 C 0.14646 0.63758 0.66955 0.0
C2066 C 0.17427 0.65229 0.66987 0.0
C2067 C 0.18845 0.65017 0.64738 0.0
C2068 C 0.18954 0.6679 0.69433 0.0
C2069 C 0.13036 0.63908 0.69332 0.0
C2070 C 0.18584 0.68993 0.70478 0.0
C2071 C 0.20157 0.70541 0.72709 0.0
C2072 C 0.2216 0.69941 0.73851 0.0
C2073 C 0.22517 0.67726 0.72825 0.0
C2074 C 0.20895 0.66134 0.70642 0.0
H2075 H 0.11017 0.62217 0.69225 0.0
H2076 H 0.14028 0.63873 0.7133 0.0
H2077 H 0.12829 0.65827 0.69286 0.0
H2078 H 0.1714 0.69562 0.69522 0.0
H2079 H 0.19897 0.72287 0.73445 0.0
H2080 H 0.32654 0.35486 0.73492 0.0
H2081 H 0.35393 0.38175 0.69817 0.0
H2082 H 0.34963 0.30914 0.65778 0.0
H2083 H 0.32278 0.28234 0.69425 0.0
H2084 H 0.40596 0.37966 0.67938 0.0
H2085 H 0.32605 0.35146 0.59765 0.0
H2086 H 0.31955 0.35048 0.63389 0.0
H2087 H 0.3267 0.32472 0.61791 0.0
C2088 C 0.33126 0.3446 0.71812 0.0
C2089 C 0.32237 0.31635 0.71772 0.0
C2090 C 0.34702 0.36002 0.69715 0.0
C2091 C 0.35378 0.34749 0.67503 0.0
C2092 C 0.34463 0.31932 0.67444 0.0
H2093 H 0.44504 0.40077 0.52616 0.0
H2094 H 0.41515 0.37442 0.56141 0.0
C2095 C 0.32929 0.30401 0.69549 0.0
C2096 C 0.37085 0.36363 0.6528 0.0
H2097 H 0.36988 0.37659 0.58429 0.0
C2098 C 0.39803 0.37917 0.65866 0.0
C2099 C 0.36068 0.36268 0.62558 0.0
C2100 C 0.33163 0.3466 0.61819 0.0
C2101 C 0.41525 0.39349 0.63809 0.0
C2102 C 0.40503 0.39289 0.61089 0.0
C2103 C 0.37784 0.3772 0.60502 0.0
C2104 C 0.42221 0.40892 0.58858 0.0
C2105 C 0.44443 0.40858 0.64552 0.0
C2106 C 0.43565 0.4372 0.5915 0.0
C2107 C 0.45253 0.45231 0.57132 0.0
C2108 C 0.45659 0.43965 0.54744 0.0
C2109 C 0.44248 0.41133 0.54411 0.0
C2110 C 0.42539 0.39619 0.56435 0.0
H2111 H 0.45001 0.40108 0.66451 0.0
H2112 H 0.45643 0.40673 0.62853 0.0
H2113 H 0.44952 0.43032 0.64928 0.0
H2114 H 0.43323 0.44768 0.6096 0.0
H2115 H 0.46288 0.47401 0.57484 0.0
H2116 H 0.25018 0.76041 0.18558 0.0
H2117 H 0.22042 0.73375 0.14753 0.0
H2118 H 0.20753 0.66035 0.18792 0.0
H2119 H 0.23735 0.68687 0.22648 0.0
H2120 H 0.21939 0.66402 0.12798 0.0
H2121 H 0.13777 0.69052 0.15658 0.0
H2122 H 0.17024 0.71815 0.15629 0.0
H2123 H 0.16356 0.69252 0.18096 0.0
C2124 C 0.24119 0.73859 0.18638 0.0
C2125 C 0.24589 0.72566 0.20906 0.0
C2126 C 0.22417 0.72349 0.1647 0.0
C2127 C 0.21167 0.69535 0.16545 0.0
C2128 C 0.21705 0.68219 0.18738 0.0
H2129 H 0.09409 0.57037 0.06592 0.0
H2130 H 0.12601 0.59925 0.10134 0.0
C2131 C 0.23413 0.69731 0.20919 0.0
C2132 C 0.19293 0.67979 0.1431 0.0
H2133 H 0.13253 0.66677 0.11374 0.0
C2134 C 0.20039 0.66453 0.12479 0.0
C2135 C 0.16828 0.68074 0.13939 0.0
C2136 C 0.15927 0.69618 0.15942 0.0
C2137 C 0.18369 0.65018 0.10236 0.0
C2138 C 0.15925 0.65139 0.09847 0.0
C2139 C 0.15168 0.66655 0.1168 0.0
C2140 C 0.1402 0.6347 0.07693 0.0
C2141 C 0.192 0.63365 0.083 0.0
C2142 C 0.13786 0.64551 0.05178 0.0
C2143 C 0.11955 0.62904 0.03142 0.0
C2144 C 0.10389 0.60173 0.03619 0.0
C2145 C 0.10649 0.59116 0.06147 0.0
C2146 C 0.12444 0.60761 0.08179 0.0
H2147 H 0.21253 0.63643 0.08781 0.0
H2148 H 0.1784 0.6119 0.08432 0.0
H2149 H 0.19054 0.63928 0.06146 0.0
H2150 H 0.15009 0.66655 0.04801 0.0
H2151 H 0.11759 0.63755 0.01211 0.0
H2152 H 0.66039 0.32265 0.644 0.0
H2153 H 0.63842 0.34347 0.61532 0.0
H2154 H 0.67937 0.41862 0.6623 0.0
H2155 H 0.70244 0.39839 0.69019 0.0
H2156 H 0.60451 0.36338 0.6255 0.0
H2157 H 0.6927 0.44768 0.58749 0.0
H2158 H 0.69494 0.42051 0.60572 0.0
H2159 H 0.69277 0.44822 0.62436 0.0
C2160 C 0.6653 0.34379 0.64803 0.0
C2161 C 0.68366 0.35862 0.66967 0.0
C2162 C 0.65237 0.35571 0.6316 0.0
C2163 C 0.65729 0.38299 0.63596 0.0
C2164 C 0.67544 0.39781 0.65767 0.0
H2165 H 0.57577 0.47856 0.57714 0.0
H2166 H 0.6013 0.45909 0.6026 0.0
C2167 C 0.68845 0.38594 0.67407 0.0
C2168 C 0.64279 0.39543 0.61852 0.0
H2169 H 0.65142 0.44984 0.57952 0.0
C2170 C 0.61495 0.38218 0.61533 0.0
C2171 C 0.65597 0.42005 0.60487 0.0
C2172 C 0.68574 0.43481 0.60551 0.0
C2173 C 0.60024 0.3929 0.5997 0.0
C2174 C 0.61338 0.41766 0.58658 0.0
C2175 C 0.64115 0.43092 0.58956 0.0
C2176 C 0.59844 0.43015 0.57023 0.0
C2177 C 0.5705 0.37793 0.59759 0.0
C2178 C 0.58832 0.42076 0.54317 0.0
C2179 C 0.5738 0.43212 0.52828 0.0
C2180 C 0.56869 0.45304 0.54012 0.0
C2181 C 0.57905 0.46246 0.56718 0.0
C2182 C 0.5938 0.45134 0.58187 0.0
H2183 H 0.56294 0.35992 0.61044 0.0
H2184 H 0.56159 0.3916 0.60407 0.0
H2185 H 0.56389 0.37126 0.57582 0.0
H2186 H 0.59155 0.40448 0.53356 0.0
H2187 H 0.56623 0.42418 0.50762 0.0
H2188 H 0.87524 0.70059 0.13628 0.0
H2189 H 0.89797 0.68078 0.10746 0.0
H2190 H 0.91521 0.64485 0.17842 0.0
H2191 H 0.89169 0.66363 0.20715 0.0
H2192 H 0.94828 0.68657 0.10657 0.0
H2193 H 0.88513 0.57965 0.12672 0.0
H2194 H 0.8763 0.60646 0.13672 0.0
H2195 H 0.89957 0.59971 0.15773 0.0
C2196 C 0.88349 0.68819 0.14589 0.0
C2197 C 0.88116 0.68386 0.17445 0.0
C2198 C 0.8968 0.67693 0.12923 0.0
C2199 C 0.90816 0.66065 0.14029 0.0
C2200 C 0.90626 0.65665 0.16883 0.0
H2201 H 0.9987 0.57476 0.07948 0.0
H2202 H 0.97482 0.59496 0.10583 0.0
C2203 C 0.89299 0.66791 0.18551 0.0
C2204 C 0.92227 0.64832 0.12222 0.0
H2205 H 0.92485 0.58855 0.10399 0.0
C2206 C 0.94294 0.66508 0.10594 0.0
C2207 C 0.91566 0.6202 0.12094 0.0
C2208 C 0.89279 0.6004 0.13622 0.0
C2209 C 0.95744 0.6549 0.08948 0.0
C2210 C 0.95103 0.62681 0.08846 0.0
C2211 C 0.93016 0.61003 0.10453 0.0
C2212 C 0.96596 0.61451 0.07158 0.0
C2213 C 0.9802 0.67467 0.07407 0.0
C2214 C 0.9691 0.61808 0.043 0.0
C2215 C 0.98295 0.6064 0.02766 0.0
C2216 C 0.99414 0.59059 0.04026 0.0
C2217 C 0.9907 0.58684 0.06876 0.0
C2218 C 0.97683 0.59842 0.08402 0.0
H2219 H 0.98741 0.69559 0.083 0.0
H2220 H 0.99698 0.66904 0.0742 0.0
H2221 H 0.97351 0.67465 0.05237 0.0
H2222 H 0.96052 0.62966 0.03235 0.0
H2223 H 0.9848 0.60972 0.00582 0.0
H2224 H 0.91793 0.54965 0.57651 0.0
H2225 H 0.88396 0.55861 0.59935 0.0
H2226 H 0.93513 0.58815 0.67244 0.0
H2227 H 0.96925 0.57939 0.64974 0.0
H2228 H 0.86106 0.54461 0.66014 0.0
H2229 H 0.92005 0.65203 0.63418 0.0
H2230 H 0.92213 0.62435 0.61521 0.0
H2231 H 0.93735 0.63417 0.64912 0.0
C2232 C 0.92173 0.55767 0.59759 0.0
C2233 C 0.94624 0.56412 0.61132 0.0
C2234 C 0.90229 0.56251 0.61064 0.0
C2235 C 0.90722 0.57398 0.63745 0.0
C2236 C 0.93107 0.5791 0.65175 0.0
H2237 H 0.83421 0.65956 0.72643 0.0
H2238 H 0.86038 0.63527 0.7145 0.0
C2239 C 0.95046 0.5741 0.63879 0.0
C2240 C 0.88908 0.58407 0.64896 0.0
H2241 H 0.88145 0.64197 0.65816 0.0
C2242 C 0.86543 0.56586 0.65985 0.0
C2243 C 0.89501 0.61178 0.64828 0.0
C2244 C 0.91992 0.63184 0.63597 0.0
C2245 C 0.84744 0.5749 0.67032 0.0
C2246 C 0.85341 0.60261 0.66954 0.0
C2247 C 0.87713 0.62074 0.65878 0.0
C2248 C 0.8352 0.61353 0.67914 0.0
C2249 C 0.82236 0.55502 0.68236 0.0
C2250 C 0.81228 0.60898 0.66327 0.0
C2251 C 0.7975 0.62315 0.66973 0.0
C2252 C 0.80556 0.6421 0.6921 0.0
C2253 C 0.82784 0.64553 0.70871 0.0
C2254 C 0.84263 0.63148 0.70216 0.0
H2255 H 0.82252 0.53507 0.68518 0.0
H2256 H 0.81945 0.56305 0.70254 0.0
H2257 H 0.80523 0.55206 0.6684 0.0
H2258 H 0.80657 0.59547 0.64515 0.0
H2259 H 0.78054 0.62023 0.65648 0.0
H2260 H 0.46684 0.50269 0.4147 0.0
H2261 H 0.44581 0.52918 0.39316 0.0
H2262 H 0.45333 0.57206 0.4707 0.0
H2263 H 0.47543 0.54694 0.49157 0.0
H2264 H 0.40433 0.53728 0.39456 0.0
H2265 H 0.48127 0.63721 0.42984 0.0
H2266 H 0.48546 0.60688 0.43472 0.0
H2267 H 0.46707 0.6171 0.45861 0.0
C2268 C 0.4641 0.51779 0.42724 0.0
C2269 C 0.47342 0.52242 0.45515 0.0
C2270 C 0.45194 0.53323 0.41476 0.0
C2271 C 0.44833 0.55399 0.42954 0.0
C2272 C 0.4566 0.55758 0.45775 0.0
H2273 H 0.37643 0.66871 0.39461 0.0
H2274 H 0.39649 0.64117 0.41504 0.0
C2275 C 0.46913 0.54262 0.47002 0.0
C2276 C 0.43571 0.57132 0.41593 0.0
H2277 H 0.44108 0.63638 0.41173 0.0
C2278 C 0.41272 0.55899 0.39831 0.0
C2279 C 0.44589 0.60002 0.42014 0.0
C2280 C 0.47141 0.61611 0.43661 0.0
C2281 C 0.39974 0.57373 0.3859 0.0
C2282 C 0.40977 0.60234 0.3904 0.0
C2283 C 0.43275 0.61468 0.40795 0.0
C2284 C 0.39703 0.61971 0.37728 0.0
C2285 C 0.37465 0.558 0.36868 0.0
C2286 C 0.3905 0.61812 0.34872 0.0
C2287 C 0.37886 0.63412 0.33678 0.0
C2288 C 0.37325 0.65298 0.3526 0.0
C2289 C 0.38026 0.65493 0.38114 0.0
C2290 C 0.39185 0.63883 0.39308 0.0
H2291 H 0.365 0.53649 0.37425 0.0
H2292 H 0.36029 0.56679 0.37107 0.0
H2293 H 0.37947 0.55842 0.3467 0.0
H2294 H 0.39483 0.6047 0.33524 0.0
H2295 H 0.37476 0.63194 0.31476 0.0
H2296 H 0.16254 0.38549 0.81951 0.0
H2297 H 0.14011 0.41094 0.83945 0.0
H2298 H 0.18434 0.421 0.91613 0.0
H2299 H 0.20734 0.39627 0.89604 0.0
H2300 H 0.10761 0.4064 0.8766 0.0
H2301 H 0.19678 0.49642 0.91376 0.0
H2302 H 0.19883 0.47021 0.89232 0.0
H2303 H 0.19572 0.46665 0.929 0.0
C2304 C 0.16771 0.39309 0.84065 0.0
C2305 C 0.18738 0.38861 0.85572 0.0
C2306 C 0.15468 0.40791 0.85221 0.0
C2307 C 0.16052 0.41907 0.87951 0.0
C2308 C 0.17971 0.41402 0.89479 0.0
H2309 H 0.08477 0.49378 0.99082 0.0
H2310 H 0.10824 0.46976 0.96972 0.0
C2311 C 0.19298 0.39948 0.88314 0.0
C2312 C 0.14626 0.43522 0.89187 0.0
H2313 H 0.15587 0.49282 0.93043 0.0
C2314 C 0.11846 0.4254 0.88812 0.0
C2315 C 0.15963 0.46042 0.9071 0.0
C2316 C 0.18938 0.4742 0.91055 0.0
C2317 C 0.10416 0.43925 0.89927 0.0
C2318 C 0.11751 0.46399 0.91494 0.0
C2319 C 0.1452 0.47391 0.91868 0.0
C2320 C 0.10306 0.47946 0.92786 0.0
C2321 C 0.07454 0.427 0.89466 0.0
C2322 C 0.09215 0.49373 0.91191 0.0
C2323 C 0.07906 0.50824 0.92417 0.0
C2324 C 0.07574 0.50858 0.95289 0.0
C2325 C 0.08655 0.49413 0.96871 0.0
C2326 C 0.10017 0.48025 0.95655 0.0
H2327 H 0.06649 0.40624 0.88513 0.0
H2328 H 0.06501 0.42633 0.91449 0.0
H2329 H 0.06916 0.43985 0.88091 0.0
H2330 H 0.0939 0.49383 0.8898 0.0
H2331 H 0.07108 0.5188 0.91102 0.0
H2332 H 0.28824 0.35493 0.32001 0.0
H2333 H 0.26946 0.38332 0.34127 0.0
H2334 H 0.19158 0.32723 0.3105 0.0
H2335 H 0.20995 0.29874 0.28913 0.0
H2336 H 0.22861 0.4043 0.31564 0.0
H2337 H 0.19678 0.33239 0.40047 0.0
H2338 H 0.22377 0.33598 0.37904 0.0
H2339 H 0.19023 0.31765 0.36597 0.0
C2340 C 0.26716 0.34883 0.3174 0.0
C2341 C 0.2505 0.32438 0.30324 0.0
C2342 C 0.25656 0.36513 0.32944 0.0
C2343 C 0.22924 0.35716 0.32743 0.0
C2344 C 0.21275 0.33356 0.31218 0.0
H2345 H 0.11087 0.38985 0.40135 0.0
H2346 H 0.13731 0.37758 0.36955 0.0
C2347 C 0.22329 0.31729 0.30012 0.0
C2348 C 0.21736 0.37175 0.34353 0.0
H2349 H 0.17979 0.36498 0.39907 0.0
C2350 C 0.21813 0.39597 0.33403 0.0
C2351 C 0.20404 0.36077 0.36759 0.0
C2352 C 0.20372 0.33537 0.37911 0.0
C2353 C 0.20478 0.40899 0.3476 0.0
C2354 C 0.1905 0.39728 0.37093 0.0
C2355 C 0.19055 0.37359 0.38088 0.0
C2356 C 0.1748 0.40874 0.38542 0.0
C2357 C 0.20529 0.43464 0.33668 0.0
C2358 C 0.18728 0.43075 0.40419 0.0
C2359 C 0.17226 0.43772 0.42242 0.0
C2360 C 0.14463 0.42269 0.42205 0.0
C2361 C 0.1321 0.40186 0.4019 0.0
C2362 C 0.14714 0.39483 0.3838 0.0
H2363 H 0.21579 0.44012 0.31716 0.0
H2364 H 0.18477 0.43236 0.33313 0.0
H2365 H 0.21535 0.45148 0.35221 0.0
H2366 H 0.20866 0.44147 0.40583 0.0
H2367 H 0.18231 0.45404 0.43763 0.0
loop_
_geom_bond_atom_site_label_1
_geom_bond_atom_site_label_2
_geom_bond_distance
_geom_bond_site_symmetry_2
_ccdc_geom_bond_type
Eu0 C9 2.828 1_545 S
Eu0 O11 2.392 1_455 S
Eu0 O13 2.418 1_445 S
Eu0 O18 2.373 . S
Eu0 O21 2.488 1_545 S
Eu0 O22 2.471 . S
Eu0 O23 2.349 . S
Eu1 O10 2.373 1_455 S
Eu1 O14 2.488 . S
Eu1 O15 2.471 1_455 S
Eu1 O16 2.349 1_455 S
Eu1 O19 2.392 . S
Eu1 O20 2.418 . S
Eu1 C30 2.828 . S
C2 O20 1.244 . S
C2 O23 1.265 . S
C3 C4 1.379 . S
C3 C7 1.373 . S
C3 C9 1.505 1_556 S
C4 C3 1.379 . S
C4 C6 1.369 . S
C4 H32 0.930 1_565 S
C5 C7 1.383 . S
C5 C8 1.382 . S
C5 H33 0.930 . S
C6 C4 1.369 . S
C6 C8 1.392 . S
C6 H34 0.930 . S
C7 C3 1.373 . S
C7 C5 1.383 . S
C7 H35 0.931 . S
C8 C5 1.382 . S
C8 C6 1.392 . S
C9 Eu0 2.828 1_565 S
C9 C3 1.505 1_554 S
C9 O21 1.249 . S
C9 O22 1.244 1_565 S
O10 Eu1 2.373 1_655 S
O10 C12 1.258 . S
O11 Eu0 2.392 1_655 S
O11 C12 1.242 . S
C12 O10 1.258 . S
C12 O11 1.242 . S
O13 Eu0 2.418 1_665 S
O13 C17 1.244 1_565 S
O14 Eu1 2.488 . S
O14 C30 1.249 . S
O15 Eu1 2.471 1_655 S
O15 C30 1.244 1_655 S
O16 Eu1 2.349 1_655 S
O16 C17 1.265 . S
C17 O13 1.244 1_545 S
C17 O16 1.265 . S
O18 Eu0 2.373 . S
O18 C31 1.258 . S
O19 Eu1 2.392 . S
O19 C31 1.242 . S
O20 Eu1 2.418 . S
O20 C2 1.244 . S
O21 Eu0 2.488 1_565 S
O21 C9 1.249 . S
O22 Eu0 2.471 . S
O22 C9 1.244 1_545 S
O23 Eu0 2.349 . S
O23 C2 1.265 . S
C24 C25 1.379 . S
C24 C28 1.373 1_655 S
C24 C30 1.505 1_655 S
C25 C24 1.379 . S
C25 C27 1.369 . S
C25 H36 0.930 . S
C26 C28 1.383 1_655 S
C26 C29 1.382 . S
C26 H37 0.930 1_655 S
C27 C25 1.369 . S
C27 C29 1.392 . S
C27 H38 0.930 . S
C28 C24 1.373 1_455 S
C28 C26 1.383 1_455 S
C28 H39 0.931 . S
C29 C26 1.382 . S
C29 C27 1.392 . S
C30 Eu1 2.828 . S
C30 O14 1.249 . S
C30 O15 1.244 1_455 S
C30 C24 1.505 1_455 S
C31 O18 1.258 . S
C31 O19 1.242 . S
H32 C4 0.930 1_545 S
H33 C5 0.930 . S
H34 C6 0.930 . S
H35 C7 0.931 . S
H36 C25 0.930 . S
H37 C26 0.930 1_455 S
H38 C27 0.930 . S
H39 C28 0.931 . S
Eu40 C49 2.828 . S
Eu40 O51 2.392 . S
Eu40 O53 2.418 . S
Eu40 O58 2.373 . S
Eu40 O61 2.488 . S
Eu40 O62 2.471 . S
Eu40 O63 2.349 . S
Eu41 O50 2.373 . S
Eu41 O54 2.488 . S
Eu41 O55 2.471 . S
Eu41 O56 2.349 . S
Eu41 O59 2.392 . S
Eu41 O60 2.418 . S
Eu41 C70 2.828 . S
C42 O60 1.244 . S
C42 O63 1.265 . S
C43 C44 1.379 . S
C43 C47 1.373 . S
C43 C49 1.505 . S
C44 C43 1.379 . S
C44 C46 1.369 . S
C44 H72 0.930 . S
C45 C47 1.383 . S
C45 C48 1.382 . S
C45 H73 0.930 . S
C46 C44 1.369 . S
C46 C48 1.392 . S
C46 H74 0.930 . S
C47 C43 1.373 . S
C47 C45 1.383 . S
C47 H75 0.931 . S
C48 C45 1.382 . S
C48 C46 1.392 . S
C49 Eu40 2.828 . S
C49 C43 1.505 . S
C49 O61 1.249 . S
C49 O62 1.244 . S
O50 Eu41 2.373 . S
O50 C52 1.258 . S
O51 Eu40 2.392 . S
O51 C52 1.242 . S
C52 O50 1.258 . S
C52 O51 1.242 . S
O53 Eu40 2.418 . S
O53 C57 1.244 . S
O54 Eu41 2.488 . S
O54 C70 1.249 . S
O55 Eu41 2.471 . S
O55 C70 1.244 . S
O56 Eu41 2.349 . S
O56 C57 1.265 . S
C57 O53 1.244 . S
C57 O56 1.265 . S
O58 Eu40 2.373 . S
O58 C71 1.258 . S
O59 Eu41 2.392 . S
O59 C71 1.242 . S
O60 Eu41 2.418 . S
O60 C42 1.244 . S
O61 Eu40 2.488 . S
O61 C49 1.249 . S
O62 Eu40 2.471 . S
O62 C49 1.244 . S
O63 Eu40 2.349 . S
O63 C42 1.265 . S
C64 C65 1.379 . S
C64 C68 1.373 . S
C64 C70 1.505 . S
C65 C64 1.379 . S
C65 C67 1.369 . S
C65 H76 0.930 . S
C66 C68 1.383 . S
C66 C69 1.382 . S
C66 H77 0.930 . S
C67 C65 1.369 . S
C67 C69 1.392 . S
C67 H78 0.930 . S
C68 C64 1.373 . S
C68 C66 1.383 . S
C68 H79 0.931 . S
C69 C66 1.382 . S
C69 C67 1.392 . S
C70 Eu41 2.828 . S
C70 O54 1.249 . S
C70 O55 1.244 . S
C70 C64 1.505 . S
C71 O58 1.258 . S
C71 O59 1.242 . S
H72 C44 0.930 . S
H73 C45 0.930 . S
H74 C46 0.930 . S
H75 C47 0.931 . S
H76 C65 0.930 . S
H77 C66 0.930 . S
H78 C67 0.930 . S
H79 C68 0.931 . S
Eu80 C89 2.828 . S
Eu80 O91 2.392 . S
Eu80 O93 2.418 . S
Eu80 O98 2.373 . S
Eu80 O101 2.488 . S
Eu80 O102 2.471 . S
Eu80 O103 2.349 1_545 S
Eu81 O90 2.373 . S
Eu81 O94 2.488 . S
Eu81 O95 2.471 . S
Eu81 O96 2.349 1_565 S
Eu81 O99 2.392 . S
Eu81 O100 2.418 . S
Eu81 C110 2.828 . S
C82 O100 1.244 . S
C82 O103 1.265 . S
C83 C84 1.379 . S
C83 C87 1.373 . S
C83 C89 1.505 . S
C84 C83 1.379 . S
C84 C86 1.369 . S
C84 H112 0.930 . S
C85 C87 1.383 . S
C85 C88 1.382 . S
C85 H113 0.930 . S
C86 C84 1.369 . S
C86 C88 1.392 . S
C86 H114 0.930 . S
C87 C83 1.373 . S
C87 C85 1.383 . S
C87 H115 0.931 . S
C88 C85 1.382 . S
C88 C86 1.392 . S
C89 Eu80 2.828 . S
C89 C83 1.505 . S
C89 O101 1.249 . S
C89 O102 1.244 . S
O90 Eu81 2.373 . S
O90 C92 1.258 . S
O91 Eu80 2.392 . S
O91 C92 1.242 1_545 S
C92 O90 1.258 . S
C92 O91 1.242 1_565 S
O93 Eu80 2.418 . S
O93 C97 1.244 . S
O94 Eu81 2.488 . S
O94 C110 1.249 . S
O95 Eu81 2.471 . S
O95 C110 1.244 . S
O96 Eu81 2.349 1_545 S
O96 C97 1.265 . S
C97 O93 1.244 . S
C97 O96 1.265 . S
O98 Eu80 2.373 . S
O98 C111 1.258 . S
O99 Eu81 2.392 . S
O99 C111 1.242 1_565 S
O100 Eu81 2.418 . S
O100 C82 1.244 . S
O101 Eu80 2.488 . S
O101 C89 1.249 . S
O102 Eu80 2.471 . S
O102 C89 1.244 . S
O103 Eu80 2.349 1_565 S
O103 C82 1.265 . S
C104 C105 1.379 . S
C104 C108 1.373 . S
C104 C110 1.505 . S
C105 C104 1.379 . S
C105 C107 1.369 . S
C105 H116 0.930 . S
C106 C108 1.383 . S
C106 C109 1.382 . S
C106 H117 0.930 . S
C107 C105 1.369 . S
C107 C109 1.392 . S
C107 H118 0.930 . S
C108 C104 1.373 . S
C108 C106 1.383 . S
C108 H119 0.931 . S
C109 C106 1.382 . S
C109 C107 1.392 . S
C110 Eu81 2.828 . S
C110 O94 1.249 . S
C110 O95 1.244 . S
C110 C104 1.505 . S
C111 O98 1.258 . S
C111 O99 1.242 1_545 S
H112 C84 0.930 . S
H113 C85 0.930 . S
H114 C86 0.930 . S
H115 C87 0.931 . S
H116 C105 0.930 . S
H117 C106 0.930 . S
H118 C107 0.930 . S
H119 C108 0.931 . S
Eu120 C129 2.828 . S
Eu120 O131 2.392 . S
Eu120 O133 2.418 . S
Eu120 O138 2.373 . S
Eu120 O141 2.488 . S
Eu120 O142 2.471 . S
Eu120 O143 2.349 . S
Eu121 O130 2.373 . S
Eu121 O134 2.488 . S
Eu121 O135 2.471 . S
Eu121 O136 2.349 . S
Eu121 O139 2.392 . S
Eu121 O140 2.418 . S
Eu121 C150 2.828 . S
C122 O140 1.244 . S
C122 O143 1.265 . S
C123 C124 1.379 . S
C123 C127 1.373 . S
C123 C129 1.505 . S
C124 C123 1.379 . S
C124 C126 1.369 . S
C124 H152 0.930 . S
C125 C127 1.383 . S
C125 C128 1.382 . S
C125 H153 0.930 . S
C126 C124 1.369 . S
C126 C128 1.392 . S
C126 H154 0.930 . S
C127 C123 1.373 . S
C127 C125 1.383 . S
C127 H155 0.931 . S
C128 C125 1.382 . S
C128 C126 1.392 . S
C129 Eu120 2.828 . S
C129 C123 1.505 . S
C129 O141 1.249 . S
C129 O142 1.244 . S
O130 Eu121 2.373 . S
O130 C132 1.258 . S
O131 Eu120 2.392 . S
O131 C132 1.242 . S
C132 O130 1.258 . S
C132 O131 1.242 . S
O133 Eu120 2.418 . S
O133 C137 1.244 . S
O134 Eu121 2.488 . S
O134 C150 1.249 . S
O135 Eu121 2.471 . S
O135 C150 1.244 . S
O136 Eu121 2.349 . S
O136 C137 1.265 . S
C137 O133 1.244 . S
C137 O136 1.265 . S
O138 Eu120 2.373 . S
O138 C151 1.258 . S
O139 Eu121 2.392 . S
O139 C151 1.242 . S
O140 Eu121 2.418 . S
O140 C122 1.244 . S
O141 Eu120 2.488 . S
O141 C129 1.249 . S
O142 Eu120 2.471 . S
O142 C129 1.244 . S
O143 Eu120 2.349 . S
O143 C122 1.265 . S
C144 C145 1.379 . S
C144 C148 1.373 . S
C144 C150 1.505 . S
C145 C144 1.379 . S
C145 C147 1.369 . S
C145 H156 0.930 . S
C146 C148 1.383 . S
C146 C149 1.382 . S
C146 H157 0.930 . S
C147 C145 1.369 . S
C147 C149 1.392 . S
C147 H158 0.930 . S
C148 C144 1.373 . S
C148 C146 1.383 . S
C148 H159 0.931 . S
C149 C146 1.382 . S
C149 C147 1.392 . S
C150 Eu121 2.828 . S
C150 O134 1.249 . S
C150 O135 1.244 . S
C150 C144 1.505 . S
C151 O138 1.258 . S
C151 O139 1.242 . S
H152 C124 0.930 . S
H153 C125 0.930 . S
H154 C126 0.930 . S
H155 C127 0.931 . S
H156 C145 0.930 . S
H157 C146 0.930 . S
H158 C147 0.930 . S
H159 C148 0.931 . S
Eu160 C169 2.828 . S
Eu160 O171 2.392 1_565 S
Eu160 O173 2.418 . S
Eu160 O178 2.373 . S
Eu160 O181 2.488 . S
Eu160 O182 2.471 . S
Eu160 O183 2.349 1_565 S
Eu161 O170 2.373 . S
Eu161 O174 2.488 . S
Eu161 O175 2.471 1_455 S
Eu161 O176 2.349 1_545 S
Eu161 O179 2.392 1_445 S
Eu161 O180 2.418 . S
Eu161 C190 2.828 1_455 S
C162 O180 1.244 . S
C162 O183 1.265 . S
C163 C164 1.379 . S
C163 C167 1.373 . S
C163 C169 1.505 . S
C164 C163 1.379 . S
C164 C166 1.369 . S
C164 H192 0.930 . S
C165 C167 1.383 . S
C165 C168 1.382 . S
C165 H193 0.930 . S
C166 C164 1.369 . S
C166 C168 1.392 . S
C166 H194 0.930 . S
C167 C163 1.373 . S
C167 C165 1.383 . S
C167 H195 0.931 . S
C168 C165 1.382 . S
C168 C166 1.392 . S
C169 Eu160 2.828 . S
C169 C163 1.505 . S
C169 O181 1.249 . S
C169 O182 1.244 . S
O170 Eu161 2.373 . S
O170 C172 1.258 . S
O171 Eu160 2.392 1_545 S
O171 C172 1.242 . S
C172 O170 1.258 . S
C172 O171 1.242 . S
O173 Eu160 2.418 . S
O173 C177 1.244 1_455 S
O174 Eu161 2.488 . S
O174 C190 1.249 1_455 S
O175 Eu161 2.471 1_655 S
O175 C190 1.244 . S
O176 Eu161 2.349 1_565 S
O176 C177 1.265 1_455 S
C177 O173 1.244 1_655 S
C177 O176 1.265 1_655 S
O178 Eu160 2.373 . S
O178 C191 1.258 . S
O179 Eu161 2.392 1_665 S
O179 C191 1.242 1_655 S
O180 Eu161 2.418 . S
O180 C162 1.244 . S
O181 Eu160 2.488 . S
O181 C169 1.249 . S
O182 Eu160 2.471 . S
O182 C169 1.244 . S
O183 Eu160 2.349 1_545 S
O183 C162 1.265 . S
C184 C185 1.379 . S
C184 C188 1.373 . S
C184 C190 1.505 . S
C185 C184 1.379 . S
C185 C187 1.369 . S
C185 H196 0.930 . S
C186 C188 1.383 . S
C186 C189 1.382 . S
C186 H197 0.930 . S
C187 C185 1.369 . S
C187 C189 1.392 . S
C187 H198 0.930 . S
C188 C184 1.373 . S
C188 C186 1.383 . S
C188 H199 0.931 . S
C189 C186 1.382 . S
C189 C187 1.392 . S
C190 Eu161 2.828 1_655 S
C190 O174 1.249 1_655 S
C190 O175 1.244 . S
C190 C184 1.505 . S
C191 O178 1.258 . S
C191 O179 1.242 1_455 S
H192 C164 0.930 . S
H193 C165 0.930 . S
H194 C166 0.930 . S
H195 C167 0.931 . S
H196 C185 0.930 . S
H197 C186 0.930 . S
H198 C187 0.930 . S
H199 C188 0.931 . S
Eu200 C209 2.828 . S
Eu200 O211 2.392 . S
Eu200 O213 2.418 . S
Eu200 O218 2.373 . S
Eu200 O221 2.488 . S
Eu200 O222 2.471 . S
Eu200 O223 2.349 . S
Eu201 O210 2.373 . S
Eu201 O214 2.488 . S
Eu201 O215 2.471 . S
Eu201 O216 2.349 . S
Eu201 O219 2.392 . S
Eu201 O220 2.418 . S
Eu201 C230 2.828 . S
C202 O220 1.244 . S
C202 O223 1.265 . S
C203 C204 1.379 . S
C203 C207 1.373 . S
C203 C209 1.505 . S
C204 C203 1.379 . S
C204 C206 1.369 . S
C204 H232 0.930 . S
C205 C207 1.383 . S
C205 C208 1.382 . S
C205 H233 0.930 . S
C206 C204 1.369 . S
C206 C208 1.392 . S
C206 H234 0.930 . S
C207 C203 1.373 . S
C207 C205 1.383 . S
C207 H235 0.931 . S
C208 C205 1.382 . S
C208 C206 1.392 . S
C209 Eu200 2.828 . S
C209 C203 1.505 . S
C209 O221 1.249 . S
C209 O222 1.244 . S
O210 Eu201 2.373 . S
O210 C212 1.258 . S
O211 Eu200 2.392 . S
O211 C212 1.242 . S
C212 O210 1.258 . S
C212 O211 1.242 . S
O213 Eu200 2.418 . S
O213 C217 1.244 . S
O214 Eu201 2.488 . S
O214 C230 1.249 . S
O215 Eu201 2.471 . S
O215 C230 1.244 . S
O216 Eu201 2.349 . S
O216 C217 1.265 . S
C217 O213 1.244 . S
C217 O216 1.265 . S
O218 Eu200 2.373 . S
O218 C231 1.258 . S
O219 Eu201 2.392 . S
O219 C231 1.242 . S
O220 Eu201 2.418 . S
O220 C202 1.244 . S
O221 Eu200 2.488 . S
O221 C209 1.249 . S
O222 Eu200 2.471 . S
O222 C209 1.244 . S
O223 Eu200 2.349 . S
O223 C202 1.265 . S
C224 C225 1.379 . S
C224 C228 1.373 . S
C224 C230 1.505 . S
C225 C224 1.379 . S
C225 C227 1.369 . S
C225 H236 0.930 . S
C226 C228 1.383 . S
C226 C229 1.382 . S
C226 H237 0.930 . S
C227 C225 1.369 . S
C227 C229 1.392 . S
C227 H238 0.930 . S
C228 C224 1.373 . S
C228 C226 1.383 . S
C228 H239 0.931 . S
C229 C226 1.382 . S
C229 C227 1.392 . S
C230 Eu201 2.828 . S
C230 O214 1.249 . S
C230 O215 1.244 . S
C230 C224 1.505 . S
C231 O218 1.258 . S
C231 O219 1.242 . S
H232 C204 0.930 . S
H233 C205 0.930 . S
H234 C206 0.930 . S
H235 C207 0.931 . S
H236 C225 0.930 . S
H237 C226 0.930 . S
H238 C227 0.930 . S
H239 C228 0.931 . S
Eu240 C249 2.828 . S
Eu240 O251 2.392 . S
Eu240 O253 2.418 . S
Eu240 O258 2.373 . S
Eu240 O261 2.488 . S
Eu240 O262 2.471 1_545 S
Eu240 O263 2.349 . S
Eu241 O250 2.373 . S
Eu241 O254 2.488 . S
Eu241 O255 2.471 . S
Eu241 O256 2.349 . S
Eu241 O259 2.392 . S
Eu241 O260 2.418 . S
Eu241 C270 2.828 . S
C242 O260 1.244 . S
C242 O263 1.265 . S
C243 C244 1.345 1_554 S
C243 C247 1.374 . S
C243 C249 1.527 1_565 S
C244 C243 1.345 1_556 S
C244 C246 1.369 . S
C244 H272 0.930 . S
C245 C247 1.398 1_556 S
C245 C248 1.382 . S
C245 H273 0.930 1_556 S
C246 C244 1.369 . S
C246 C248 1.392 . S
C246 H274 0.930 . S
C247 C243 1.374 . S
C247 C245 1.398 1_554 S
C247 H275 0.928 1_565 S
C248 C245 1.382 . S
C248 C246 1.392 . S
C249 Eu240 2.828 . S
C249 C243 1.527 1_545 S
C249 O261 1.249 . S
C249 O262 1.244 1_545 S
O250 Eu241 2.373 . S
O250 C252 1.258 . S
O251 Eu240 2.392 . S
O251 C252 1.242 . S
C252 O250 1.258 . S
C252 O251 1.242 . S
O253 Eu240 2.418 . S
O253 C257 1.244 . S
O254 Eu241 2.488 . S
O254 C270 1.249 . S
O255 Eu241 2.471 . S
O255 C270 1.244 . S
O256 Eu241 2.349 . S
O256 C257 1.265 . S
C257 O253 1.244 . S
C257 O256 1.265 . S
O258 Eu240 2.373 . S
O258 C271 1.258 . S
O259 Eu241 2.392 . S
O259 C271 1.242 . S
O260 Eu241 2.418 . S
O260 C242 1.244 . S
O261 Eu240 2.488 . S
O261 C249 1.249 . S
O262 Eu240 2.471 1_565 S
O262 C249 1.244 1_565 S
O263 Eu240 2.349 . S
O263 C242 1.265 . S
C264 C265 1.379 . S
C264 C268 1.373 . S
C264 C270 1.505 . S
C265 C264 1.379 . S
C265 C267 1.369 . S
C265 H276 0.930 . S
C266 C268 1.383 . S
C266 C269 1.382 . S
C266 H277 0.930 . S
C267 C265 1.369 . S
C267 C269 1.392 . S
C267 H278 0.930 . S
C268 C264 1.373 . S
C268 C266 1.383 . S
C268 H279 0.931 . S
C269 C266 1.382 . S
C269 C267 1.392 . S
C270 Eu241 2.828 . S
C270 O254 1.249 . S
C270 O255 1.244 . S
C270 C264 1.505 . S
C271 O258 1.258 . S
C271 O259 1.242 . S
H272 C244 0.930 . S
H273 C245 0.930 1_554 S
H274 C246 0.930 . S
H275 C247 0.928 1_545 S
H276 C265 0.930 . S
H277 C266 0.930 . S
H278 C267 0.930 . S
H279 C268 0.931 . S
Eu280 C289 2.828 . S
Eu280 O291 2.392 . S
Eu280 O293 2.418 . S
Eu280 O298 2.373 . S
Eu280 O301 2.488 . S
Eu280 O302 2.471 . S
Eu280 O303 2.349 . S
Eu281 O290 2.373 . S
Eu281 O294 2.488 . S
Eu281 O295 2.471 . S
Eu281 O296 2.349 . S
Eu281 O299 2.392 . S
Eu281 O300 2.418 . S
Eu281 C310 2.828 . S
C282 O300 1.244 . S
C282 O303 1.265 . S
C283 C284 1.379 . S
C283 C287 1.373 . S
C283 C289 1.505 . S
C284 C283 1.379 . S
C284 C286 1.369 . S
C284 H312 0.930 . S
C285 C287 1.383 . S
C285 C288 1.382 . S
C285 H313 0.930 . S
C286 C284 1.369 . S
C286 C288 1.392 . S
C286 H314 0.930 . S
C287 C283 1.373 . S
C287 C285 1.383 . S
C287 H315 0.931 . S
C288 C285 1.382 . S
C288 C286 1.392 . S
C289 Eu280 2.828 . S
C289 C283 1.505 . S
C289 O301 1.249 . S
C289 O302 1.244 . S
O290 Eu281 2.373 . S
O290 C292 1.258 . S
O291 Eu280 2.392 . S
O291 C292 1.242 . S
C292 O290 1.258 . S
C292 O291 1.242 . S
O293 Eu280 2.418 . S
O293 C297 1.244 . S
O294 Eu281 2.488 . S
O294 C310 1.249 . S
O295 Eu281 2.471 . S
O295 C310 1.244 . S
O296 Eu281 2.349 . S
O296 C297 1.265 . S
C297 O293 1.244 . S
C297 O296 1.265 . S
O298 Eu280 2.373 . S
O298 C311 1.258 . S
O299 Eu281 2.392 . S
O299 C311 1.242 . S
O300 Eu281 2.418 . S
O300 C282 1.244 . S
O301 Eu280 2.488 . S
O301 C289 1.249 . S
O302 Eu280 2.471 . S
O302 C289 1.244 . S
O303 Eu280 2.349 . S
O303 C282 1.265 . S
C304 C305 1.379 . S
C304 C308 1.373 . S
C304 C310 1.505 . S
C305 C304 1.379 . S
C305 C307 1.369 . S
C305 H316 0.930 . S
C306 C308 1.383 . S
C306 C309 1.382 . S
C306 H317 0.930 . S
C307 C305 1.369 . S
C307 C309 1.392 . S
C307 H318 0.930 . S
C308 C304 1.373 . S
C308 C306 1.383 . S
C308 H319 0.931 . S
C309 C306 1.382 . S
C309 C307 1.392 . S
C310 Eu281 2.828 . S
C310 O294 1.249 . S
C310 O295 1.244 . S
C310 C304 1.505 . S
C311 O298 1.258 . S
C311 O299 1.242 . S
H312 C284 0.930 . S
H313 C285 0.930 . S
H314 C286 0.930 . S
H315 C287 0.931 . S
H316 C305 0.930 . S
H317 C306 0.930 . S
H318 C307 0.930 . S
H319 C308 0.931 . S
Eu320 C329 2.828 . S
Eu320 O331 2.392 1_554 S
Eu320 O333 2.418 1_554 S
Eu320 O338 2.373 . S
Eu320 O341 2.488 . S
Eu320 O342 2.471 . S
Eu320 O343 2.349 . S
Eu321 O330 2.373 1_554 S
Eu321 O334 2.488 . S
Eu321 O335 2.471 1_554 S
Eu321 O336 2.349 1_554 S
Eu321 O339 2.392 . S
Eu321 O340 2.418 . S
Eu321 C350 2.828 1_554 S
C322 O340 1.244 . S
C322 O343 1.265 . S
C323 C324 1.379 . S
C323 C327 1.373 . S
C323 C329 1.505 . S
C324 C323 1.379 . S
C324 C326 1.369 . S
C324 H352 0.930 . S
C325 C327 1.383 . S
C325 C328 1.382 . S
C325 H353 0.930 . S
C326 C324 1.369 . S
C326 C328 1.392 . S
C326 H354 0.930 . S
C327 C323 1.373 . S
C327 C325 1.383 . S
C327 H355 0.931 . S
C328 C325 1.382 . S
C328 C326 1.392 . S
C329 Eu320 2.828 . S
C329 C323 1.505 . S
C329 O341 1.249 . S
C329 O342 1.244 . S
O330 Eu321 2.373 1_556 S
O330 C332 1.258 . S
O331 Eu320 2.392 1_556 S
O331 C332 1.242 . S
C332 O330 1.258 . S
C332 O331 1.242 . S
O333 Eu320 2.418 1_556 S
O333 C337 1.244 . S
O334 Eu321 2.488 . S
O334 C350 1.249 1_554 S
O335 Eu321 2.471 1_556 S
O335 C350 1.244 . S
O336 Eu321 2.349 1_556 S
O336 C337 1.265 . S
C337 O333 1.244 . S
C337 O336 1.265 . S
O338 Eu320 2.373 . S
O338 C351 1.258 . S
O339 Eu321 2.392 . S
O339 C351 1.242 . S
O340 Eu321 2.418 . S
O340 C322 1.244 . S
O341 Eu320 2.488 . S
O341 C329 1.249 . S
O342 Eu320 2.471 . S
O342 C329 1.244 . S
O343 Eu320 2.349 . S
O343 C322 1.265 . S
C344 C345 1.379 . S
C344 C348 1.373 . S
C344 C350 1.505 . S
C345 C344 1.379 . S
C345 C347 1.369 . S
C345 H356 0.930 . S
C346 C348 1.383 . S
C346 C349 1.382 . S
C346 H357 0.930 . S
C347 C345 1.369 . S
C347 C349 1.392 . S
C347 H358 0.930 . S
C348 C344 1.373 . S
C348 C346 1.383 . S
C348 H359 0.931 . S
C349 C346 1.382 . S
C349 C347 1.392 . S
C350 Eu321 2.828 1_556 S
C350 O334 1.249 1_556 S
C350 O335 1.244 . S
C350 C344 1.505 . S
C351 O338 1.258 . S
C351 O339 1.242 . S
H352 C324 0.930 . S
H353 C325 0.930 . S
H354 C326 0.930 . S
H355 C327 0.931 . S
H356 C345 0.930 . S
H357 C346 0.930 . S
H358 C347 0.930 . S
H359 C348 0.931 . S
Eu360 C369 2.828 . S
Eu360 O371 2.392 . S
Eu360 O373 2.418 . S
Eu360 O378 2.373 . S
Eu360 O381 2.488 . S
Eu360 O382 2.471 . S
Eu360 O383 2.349 . S
Eu361 O370 2.373 . S
Eu361 O374 2.488 . S
Eu361 O375 2.471 . S
Eu361 O376 2.349 . S
Eu361 O379 2.392 . S
Eu361 O380 2.418 . S
Eu361 C390 2.828 . S
C362 O380 1.244 . S
C362 O383 1.265 . S
C363 C364 1.379 . S
C363 C367 1.373 . S
C363 C369 1.505 . S
C364 C363 1.379 . S
C364 C366 1.369 . S
C364 H392 0.930 . S
C365 C367 1.383 . S
C365 C368 1.382 . S
C365 H393 0.930 . S
C366 C364 1.369 . S
C366 C368 1.392 . S
C366 H394 0.930 . S
C367 C363 1.373 . S
C367 C365 1.383 . S
C367 H395 0.931 . S
C368 C365 1.382 . S
C368 C366 1.392 . S
C369 Eu360 2.828 . S
C369 C363 1.505 . S
C369 O381 1.249 . S
C369 O382 1.244 . S
O370 Eu361 2.373 . S
O370 C372 1.258 . S
O371 Eu360 2.392 . S
O371 C372 1.242 . S
C372 O370 1.258 . S
C372 O371 1.242 . S
O373 Eu360 2.418 . S
O373 C377 1.244 . S
O374 Eu361 2.488 . S
O374 C390 1.249 . S
O375 Eu361 2.471 . S
O375 C390 1.244 . S
O376 Eu361 2.349 . S
O376 C377 1.265 . S
C377 O373 1.244 . S
C377 O376 1.265 . S
O378 Eu360 2.373 . S
O378 C391 1.258 . S
O379 Eu361 2.392 . S
O379 C391 1.242 . S
O380 Eu361 2.418 . S
O380 C362 1.244 . S
O381 Eu360 2.488 . S
O381 C369 1.249 . S
O382 Eu360 2.471 . S
O382 C369 1.244 . S
O383 Eu360 2.349 . S
O383 C362 1.265 . S
C384 C385 1.379 . S
C384 C388 1.373 . S
C384 C390 1.505 . S
C385 C384 1.379 . S
C385 C387 1.369 . S
C385 H396 0.930 . S
C386 C388 1.383 . S
C386 C389 1.382 . S
C386 H397 0.930 . S
C387 C385 1.369 . S
C387 C389 1.392 . S
C387 H398 0.930 . S
C388 C384 1.373 . S
C388 C386 1.383 . S
C388 H399 0.931 . S
C389 C386 1.382 . S
C389 C387 1.392 . S
C390 Eu361 2.828 . S
C390 O374 1.249 . S
C390 O375 1.244 . S
C390 C384 1.505 . S
C391 O378 1.258 . S
C391 O379 1.242 . S
H392 C364 0.930 . S
H393 C365 0.930 . S
H394 C366 0.930 . S
H395 C367 0.931 . S
H396 C385 0.930 . S
H397 C386 0.930 . S
H398 C387 0.930 . S
H399 C388 0.931 . S
Eu400 C409 2.828 . S
Eu400 O411 2.392 . S
Eu400 O413 2.418 . S
Eu400 O418 2.373 . S
Eu400 O421 2.488 . S
Eu400 O422 2.471 . S
Eu400 O423 2.349 . S
Eu401 O410 2.373 1_455 S
Eu401 O414 2.488 1_455 S
Eu401 O415 2.471 . S
Eu401 O416 2.349 . S
Eu401 O419 2.392 . S
Eu401 O420 2.418 1_455 S
Eu401 C430 2.828 1_455 S
C402 O420 1.244 . S
C402 O423 1.265 1_655 S
C403 C404 1.379 . S
C403 C407 1.373 . S
C403 C409 1.505 . S
C404 C403 1.379 . S
C404 C406 1.369 . S
C404 H432 0.930 . S
C405 C407 1.383 . S
C405 C408 1.382 . S
C405 H433 0.930 . S
C406 C404 1.369 . S
C406 C408 1.392 . S
C406 H434 0.930 . S
C407 C403 1.373 . S
C407 C405 1.383 . S
C407 H435 0.931 . S
C408 C405 1.382 . S
C408 C406 1.392 . S
C409 Eu400 2.828 . S
C409 C403 1.505 . S
C409 O421 1.249 . S
C409 O422 1.244 . S
O410 Eu401 2.373 1_655 S
O410 C412 1.258 . S
O411 Eu400 2.392 . S
O411 C412 1.242 1_455 S
C412 O410 1.258 . S
C412 O411 1.242 1_655 S
O413 Eu400 2.418 . S
O413 C417 1.244 . S
O414 Eu401 2.488 1_655 S
O414 C430 1.249 . S
O415 Eu401 2.471 . S
O415 C430 1.244 1_455 S
O416 Eu401 2.349 . S
O416 C417 1.265 . S
C417 O413 1.244 . S
C417 O416 1.265 . S
O418 Eu400 2.373 . S
O418 C431 1.258 . S
O419 Eu401 2.392 . S
O419 C431 1.242 . S
O420 Eu401 2.418 1_655 S
O420 C402 1.244 . S
O421 Eu400 2.488 . S
O421 C409 1.249 . S
O422 Eu400 2.471 . S
O422 C409 1.244 . S
O423 Eu400 2.349 . S
O423 C402 1.265 1_455 S
C424 C425 1.379 . S
C424 C428 1.373 . S
C424 C430 1.505 . S
C425 C424 1.379 . S
C425 C427 1.369 . S
C425 H436 0.930 . S
C426 C428 1.383 . S
C426 C429 1.382 . S
C426 H437 0.930 . S
C427 C425 1.369 . S
C427 C429 1.392 . S
C427 H438 0.930 . S
C428 C424 1.373 . S
C428 C426 1.383 . S
C428 H439 0.931 . S
C429 C426 1.382 . S
C429 C427 1.392 . S
C430 Eu401 2.828 1_655 S
C430 O414 1.249 . S
C430 O415 1.244 1_655 S
C430 C424 1.505 . S
C431 O418 1.258 . S
C431 O419 1.242 . S
H432 C404 0.930 . S
H433 C405 0.930 . S
H434 C406 0.930 . S
H435 C407 0.931 . S
H436 C425 0.930 . S
H437 C426 0.930 . S
H438 C427 0.930 . S
H439 C428 0.931 . S
Eu440 C449 2.828 . S
Eu440 O451 2.392 . S
Eu440 O453 2.418 . S
Eu440 O458 2.373 . S
Eu440 O461 2.488 . S
Eu440 O462 2.471 . S
Eu440 O463 2.349 . S
Eu441 O450 2.373 . S
Eu441 O454 2.488 . S
Eu441 O455 2.471 . S
Eu441 O456 2.349 . S
Eu441 O459 2.392 . S
Eu441 O460 2.418 . S
Eu441 C470 2.828 . S
C442 O460 1.244 . S
C442 O463 1.265 . S
C443 C444 1.379 . S
C443 C447 1.373 . S
C443 C449 1.505 . S
C444 C443 1.379 . S
C444 C446 1.369 . S
C444 H472 0.930 . S
C445 C447 1.383 . S
C445 C448 1.382 . S
C445 H473 0.930 . S
C446 C444 1.369 . S
C446 C448 1.392 . S
C446 H474 0.930 . S
C447 C443 1.373 . S
C447 C445 1.383 . S
C447 H475 0.931 . S
C448 C445 1.382 . S
C448 C446 1.392 . S
C449 Eu440 2.828 . S
C449 C443 1.505 . S
C449 O461 1.249 . S
C449 O462 1.244 . S
O450 Eu441 2.373 . S
O450 C452 1.258 . S
O451 Eu440 2.392 . S
O451 C452 1.242 . S
C452 O450 1.258 . S
C452 O451 1.242 . S
O453 Eu440 2.418 . S
O453 C457 1.244 . S
O454 Eu441 2.488 . S
O454 C470 1.249 . S
O455 Eu441 2.471 . S
O455 C470 1.244 . S
O456 Eu441 2.349 . S
O456 C457 1.265 . S
C457 O453 1.244 . S
C457 O456 1.265 . S
O458 Eu440 2.373 . S
O458 C471 1.258 . S
O459 Eu441 2.392 . S
O459 C471 1.242 . S
O460 Eu441 2.418 . S
O460 C442 1.244 . S
O461 Eu440 2.488 . S
O461 C449 1.249 . S
O462 Eu440 2.471 . S
O462 C449 1.244 . S
O463 Eu440 2.349 . S
O463 C442 1.265 . S
C464 C465 1.379 . S
C464 C468 1.373 . S
C464 C470 1.505 . S
C465 C464 1.379 . S
C465 C467 1.369 . S
C465 H476 0.930 . S
C466 C468 1.383 . S
C466 C469 1.382 . S
C466 H477 0.930 . S
C467 C465 1.369 . S
C467 C469 1.392 . S
C467 H478 0.930 . S
C468 C464 1.373 . S
C468 C466 1.383 . S
C468 H479 0.931 . S
C469 C466 1.382 . S
C469 C467 1.392 . S
C470 Eu441 2.828 . S
C470 O454 1.249 . S
C470 O455 1.244 . S
C470 C464 1.505 . S
C471 O458 1.258 . S
C471 O459 1.242 . S
H472 C444 0.930 . S
H473 C445 0.930 . S
H474 C446 0.930 . S
H475 C447 0.931 . S
H476 C465 0.930 . S
H477 C466 0.930 . S
H478 C467 0.930 . S
H479 C468 0.931 . S
Eu480 C489 2.828 . S
Eu480 O491 2.392 . S
Eu480 O493 2.418 . S
Eu480 O498 2.373 . S
Eu480 O501 2.488 . S
Eu480 O502 2.471 . S
Eu480 O503 2.349 . S
Eu481 O490 2.373 . S
Eu481 O494 2.488 . S
Eu481 O495 2.471 . S
Eu481 O496 2.349 . S
Eu481 O499 2.392 . S
Eu481 O500 2.418 . S
Eu481 C510 2.828 . S
C482 O500 1.244 . S
C482 O503 1.265 . S
C483 C484 1.379 . S
C483 C487 1.373 . S
C483 C489 1.505 . S
C484 C483 1.379 . S
C484 C486 1.369 . S
C484 H512 0.930 . S
C485 C487 1.383 . S
C485 C488 1.382 . S
C485 H513 0.930 . S
C486 C484 1.369 . S
C486 C488 1.392 . S
C486 H514 0.930 . S
C487 C483 1.373 . S
C487 C485 1.383 . S
C487 H515 0.931 . S
C488 C485 1.382 . S
C488 C486 1.392 . S
C489 Eu480 2.828 . S
C489 C483 1.505 . S
C489 O501 1.249 . S
C489 O502 1.244 . S
O490 Eu481 2.373 . S
O490 C492 1.258 . S
O491 Eu480 2.392 . S
O491 C492 1.242 . S
C492 O490 1.258 . S
C492 O491 1.242 . S
O493 Eu480 2.418 . S
O493 C497 1.244 . S
O494 Eu481 2.488 . S
O494 C510 1.249 . S
O495 Eu481 2.471 . S
O495 C510 1.244 . S
O496 Eu481 2.349 . S
O496 C497 1.265 . S
C497 O493 1.244 . S
C497 O496 1.265 . S
O498 Eu480 2.373 . S
O498 C511 1.258 . S
O499 Eu481 2.392 . S
O499 C511 1.242 . S
O500 Eu481 2.418 . S
O500 C482 1.244 . S
O501 Eu480 2.488 . S
O501 C489 1.249 . S
O502 Eu480 2.471 . S
O502 C489 1.244 . S
O503 Eu480 2.349 . S
O503 C482 1.265 . S
C504 C505 1.379 . S
C504 C508 1.373 . S
C504 C510 1.505 . S
C505 C504 1.379 . S
C505 C507 1.369 . S
C505 H516 0.930 . S
C506 C508 1.383 . S
C506 C509 1.382 . S
C506 H517 0.930 . S
C507 C505 1.369 . S
C507 C509 1.392 . S
C507 H518 0.930 . S
C508 C504 1.373 . S
C508 C506 1.383 . S
C508 H519 0.931 . S
C509 C506 1.382 . S
C509 C507 1.392 . S
C510 Eu481 2.828 . S
C510 O494 1.249 . S
C510 O495 1.244 . S
C510 C504 1.505 . S
C511 O498 1.258 . S
C511 O499 1.242 . S
H512 C484 0.930 . S
H513 C485 0.930 . S
H514 C486 0.930 . S
H515 C487 0.931 . S
H516 C505 0.930 . S
H517 C506 0.930 . S
H518 C507 0.930 . S
H519 C508 0.931 . S
Eu520 C529 2.828 . S
Eu520 O531 2.392 . S
Eu520 O533 2.418 . S
Eu520 O538 2.373 . S
Eu520 O541 2.488 . S
Eu520 O542 2.471 . S
Eu520 O543 2.349 . S
Eu521 O530 2.373 . S
Eu521 O534 2.488 . S
Eu521 O535 2.471 . S
Eu521 O536 2.349 . S
Eu521 O539 2.392 . S
Eu521 O540 2.418 . S
Eu521 C550 2.828 . S
C522 O540 1.244 . S
C522 O543 1.265 . S
C523 C524 1.379 . S
C523 C527 1.373 . S
C523 C529 1.505 . S
C524 C523 1.379 . S
C524 C526 1.369 . S
C524 H552 0.930 . S
C525 C527 1.383 . S
C525 C528 1.382 . S
C525 H553 0.930 . S
C526 C524 1.369 . S
C526 C528 1.392 . S
C526 H554 0.930 . S
C527 C523 1.373 . S
C527 C525 1.383 . S
C527 H555 0.931 . S
C528 C525 1.382 . S
C528 C526 1.392 . S
C529 Eu520 2.828 . S
C529 C523 1.505 . S
C529 O541 1.249 . S
C529 O542 1.244 . S
O530 Eu521 2.373 . S
O530 C532 1.258 . S
O531 Eu520 2.392 . S
O531 C532 1.242 . S
C532 O530 1.258 . S
C532 O531 1.242 . S
O533 Eu520 2.418 . S
O533 C537 1.244 . S
O534 Eu521 2.488 . S
O534 C550 1.249 . S
O535 Eu521 2.471 . S
O535 C550 1.244 . S
O536 Eu521 2.349 . S
O536 C537 1.265 . S
C537 O533 1.244 . S
C537 O536 1.265 . S
O538 Eu520 2.373 . S
O538 C551 1.258 . S
O539 Eu521 2.392 . S
O539 C551 1.242 . S
O540 Eu521 2.418 . S
O540 C522 1.244 . S
O541 Eu520 2.488 . S
O541 C529 1.249 . S
O542 Eu520 2.471 . S
O542 C529 1.244 . S
O543 Eu520 2.349 . S
O543 C522 1.265 . S
C544 C545 1.379 . S
C544 C548 1.373 . S
C544 C550 1.505 . S
C545 C544 1.379 . S
C545 C547 1.369 . S
C545 H556 0.930 . S
C546 C548 1.383 . S
C546 C549 1.382 . S
C546 H557 0.930 . S
C547 C545 1.369 . S
C547 C549 1.392 . S
C547 H558 0.930 . S
C548 C544 1.373 . S
C548 C546 1.383 . S
C548 H559 0.931 . S
C549 C546 1.382 . S
C549 C547 1.392 . S
C550 Eu521 2.828 . S
C550 O534 1.249 . S
C550 O535 1.244 . S
C550 C544 1.505 . S
C551 O538 1.258 . S
C551 O539 1.242 . S
H552 C524 0.930 . S
H553 C525 0.930 . S
H554 C526 0.930 . S
H555 C527 0.931 . S
H556 C545 0.930 . S
H557 C546 0.930 . S
H558 C547 0.930 . S
H559 C548 0.931 . S
Eu560 C569 2.828 . S
Eu560 O571 2.392 . S
Eu560 O573 2.418 . S
Eu560 O578 2.373 . S
Eu560 O581 2.488 . S
Eu560 O582 2.471 . S
Eu560 O583 2.349 . S
Eu561 O570 2.373 . S
Eu561 O574 2.488 . S
Eu561 O575 2.471 . S
Eu561 O576 2.349 . S
Eu561 O579 2.392 . S
Eu561 O580 2.418 . S
Eu561 C590 2.828 . S
C562 O580 1.244 . S
C562 O583 1.265 . S
C563 C564 1.379 . S
C563 C567 1.373 . S
C563 C569 1.505 . S
C564 C563 1.379 . S
C564 C566 1.369 . S
C564 H592 0.930 . S
C565 C567 1.383 . S
C565 C568 1.382 . S
C565 H593 0.930 . S
C566 C564 1.369 . S
C566 C568 1.392 . S
C566 H594 0.930 . S
C567 C563 1.373 . S
C567 C565 1.383 . S
C567 H595 0.931 . S
C568 C565 1.382 . S
C568 C566 1.392 . S
C569 Eu560 2.828 . S
C569 C563 1.505 . S
C569 O581 1.249 . S
C569 O582 1.244 . S
O570 Eu561 2.373 . S
O570 C572 1.258 . S
O571 Eu560 2.392 . S
O571 C572 1.242 . S
C572 O570 1.258 . S
C572 O571 1.242 . S
O573 Eu560 2.418 . S
O573 C577 1.244 . S
O574 Eu561 2.488 . S
O574 C590 1.249 . S
O575 Eu561 2.471 . S
O575 C590 1.244 . S
O576 Eu561 2.349 . S
O576 C577 1.265 . S
C577 O573 1.244 . S
C577 O576 1.265 . S
O578 Eu560 2.373 . S
O578 C591 1.258 . S
O579 Eu561 2.392 . S
O579 C591 1.242 . S
O580 Eu561 2.418 . S
O580 C562 1.244 . S
O581 Eu560 2.488 . S
O581 C569 1.249 . S
O582 Eu560 2.471 . S
O582 C569 1.244 . S
O583 Eu560 2.349 . S
O583 C562 1.265 . S
C584 C585 1.379 . S
C584 C588 1.373 . S
C584 C590 1.505 . S
C585 C584 1.379 . S
C585 C587 1.369 . S
C585 H596 0.930 . S
C586 C588 1.383 . S
C586 C589 1.382 . S
C586 H597 0.930 . S
C587 C585 1.369 . S
C587 C589 1.392 . S
C587 H598 0.930 . S
C588 C584 1.373 . S
C588 C586 1.383 . S
C588 H599 0.931 . S
C589 C586 1.382 . S
C589 C587 1.392 . S
C590 Eu561 2.828 . S
C590 O574 1.249 . S
C590 O575 1.244 . S
C590 C584 1.505 . S
C591 O578 1.258 . S
C591 O579 1.242 . S
H592 C564 0.930 . S
H593 C565 0.930 . S
H594 C566 0.930 . S
H595 C567 0.931 . S
H596 C585 0.930 . S
H597 C586 0.930 . S
H598 C587 0.930 . S
H599 C588 0.931 . S
Eu600 C609 2.828 1_455 S
Eu600 O611 2.392 . S
Eu600 O613 2.418 1_556 S
Eu600 O618 2.373 1_456 S
Eu600 O621 2.488 . S
Eu600 O622 2.471 1_455 S
Eu600 O623 2.349 1_455 S
Eu601 O610 2.373 1_554 S
Eu601 O614 2.488 . S
Eu601 O615 2.471 . S
Eu601 O616 2.349 . S
Eu601 O619 2.392 1_455 S
Eu601 O620 2.418 1_454 S
Eu601 C630 2.828 . S
C602 O620 1.244 . S
C602 O623 1.265 . S
C603 C604 1.379 . S
C603 C607 1.373 . S
C603 C609 1.505 . S
C604 C603 1.379 . S
C604 C606 1.369 . S
C604 H632 0.930 . S
C605 C607 1.383 . S
C605 C608 1.382 . S
C605 H633 0.930 . S
C606 C604 1.369 . S
C606 C608 1.392 . S
C606 H634 0.930 . S
C607 C603 1.373 . S
C607 C605 1.383 . S
C607 H635 0.931 1_655 S
C608 C605 1.382 . S
C608 C606 1.392 . S
C609 Eu600 2.828 1_655 S
C609 C603 1.505 . S
C609 O621 1.249 1_655 S
C609 O622 1.244 . S
O610 Eu601 2.373 1_556 S
O610 C612 1.258 . S
O611 Eu600 2.392 . S
O611 C612 1.242 . S
C612 O610 1.258 . S
C612 O611 1.242 . S
O613 Eu600 2.418 1_554 S
O613 C617 1.244 . S
O614 Eu601 2.488 . S
O614 C630 1.249 . S
O615 Eu601 2.471 . S
O615 C630 1.244 . S
O616 Eu601 2.349 . S
O616 C617 1.265 . S
C617 O613 1.244 . S
C617 O616 1.265 . S
O618 Eu600 2.373 1_654 S
O618 C631 1.258 . S
O619 Eu601 2.392 1_655 S
O619 C631 1.242 . S
O620 Eu601 2.418 1_656 S
O620 C602 1.244 . S
O621 Eu600 2.488 . S
O621 C609 1.249 1_455 S
O622 Eu600 2.471 1_655 S
O622 C609 1.244 . S
O623 Eu600 2.349 1_655 S
O623 C602 1.265 . S
C624 C625 1.379 . S
C624 C628 1.373 . S
C624 C630 1.505 . S
C625 C624 1.379 . S
C625 C627 1.369 . S
C625 H636 0.930 . S
C626 C628 1.383 . S
C626 C629 1.382 . S
C626 H637 0.930 . S
C627 C625 1.369 . S
C627 C629 1.392 . S
C627 H638 0.930 . S
C628 C624 1.373 . S
C628 C626 1.383 . S
C628 H639 0.931 . S
C629 C626 1.382 . S
C629 C627 1.392 . S
C630 Eu601 2.828 . S
C630 O614 1.249 . S
C630 O615 1.244 . S
C630 C624 1.505 . S
C631 O618 1.258 . S
C631 O619 1.242 . S
H632 C604 0.930 . S
H633 C605 0.930 . S
H634 C606 0.930 . S
H635 C607 0.931 1_455 S
H636 C625 0.930 . S
H637 C626 0.930 . S
H638 C627 0.930 . S
H639 C628 0.931 . S
H640 C648 0.929 . S
H641 C650 0.930 . S
H642 C652 0.930 . S
H643 C655 0.929 . S
H644 C658 0.930 . S
H645 C660 0.960 . S
H646 C660 0.960 . S
H647 C660 0.960 . S
C648 H640 0.929 . S
C648 C649 1.377 . S
C648 C650 1.384 . S
C649 C648 1.377 . S
C649 C655 1.390 . S
C650 H641 0.930 . S
C650 C648 1.384 . S
C650 C651 1.372 . S
C651 C650 1.372 . S
C651 C652 1.400 . S
C651 C656 1.490 . S
C652 H642 0.930 . S
C652 C651 1.400 . S
C652 C655 1.386 . S
H653 C669 0.930 1_554 S
H654 C670 0.931 . S
C655 H643 0.929 . S
C655 C649 1.390 . S
C655 C652 1.386 . S
C656 C651 1.490 . S
C656 C658 1.395 . S
C656 C659 1.403 . S
H657 C663 0.930 . S
C658 H644 0.930 . S
C658 C656 1.395 . S
C658 C661 1.403 . S
C659 C656 1.403 . S
C659 C660 1.524 . S
C659 C663 1.400 . S
C660 H645 0.960 . S
C660 H646 0.960 . S
C660 H647 0.960 . S
C660 C659 1.524 . S
C661 C658 1.403 . S
C661 C662 1.392 . S
C661 C665 1.495 . S
C662 C661 1.392 . S
C662 C663 1.385 . S
C662 C664 1.478 . S
C663 H657 0.930 . S
C663 C659 1.400 . S
C663 C662 1.385 . S
C664 C662 1.478 . S
C664 C666 1.381 . S
C664 C670 1.383 . S
C665 C661 1.495 . S
C665 H671 0.959 . S
C665 H672 0.961 . S
C665 H673 0.960 . S
C666 C664 1.381 . S
C666 C667 1.394 1_556 S
C666 H674 0.930 . S
C667 C666 1.394 1_554 S
C667 C668 1.383 . S
C667 H675 0.929 . S
C668 C667 1.383 . S
C668 C669 1.377 1_554 S
C669 H653 0.930 1_556 S
C669 C668 1.377 1_556 S
C669 C670 1.379 . S
C670 H654 0.931 . S
C670 C664 1.383 . S
C670 C669 1.379 . S
H671 C665 0.959 . S
H672 C665 0.961 . S
H673 C665 0.960 . S
H674 C666 0.930 . S
H675 C667 0.929 . S
H676 C684 0.929 . S
H677 C686 0.930 . S
H678 C688 0.930 . S
H679 C691 0.929 . S
H680 C694 0.930 1_545 S
H681 C696 0.960 . S
H682 C696 0.960 . S
H683 C696 0.960 . S
C684 H676 0.929 . S
C684 C685 1.377 . S
C684 C686 1.384 . S
C685 C684 1.377 . S
C685 C691 1.390 1_545 S
C686 H677 0.930 . S
C686 C684 1.384 . S
C686 C687 1.372 1_545 S
C687 C686 1.372 1_565 S
C687 C688 1.400 . S
C687 C692 1.490 . S
C688 H678 0.930 . S
C688 C687 1.400 . S
C688 C691 1.386 . S
H689 C705 0.930 . S
H690 C706 0.931 . S
C691 H679 0.929 . S
C691 C685 1.390 1_565 S
C691 C688 1.386 . S
C692 C687 1.490 . S
C692 C694 1.395 . S
C692 C695 1.403 . S
H693 C699 0.930 . S
C694 H680 0.930 1_565 S
C694 C692 1.395 . S
C694 C697 1.403 . S
C695 C692 1.403 . S
C695 C696 1.524 . S
C695 C699 1.400 . S
C696 H681 0.960 . S
C696 H682 0.960 . S
C696 H683 0.960 . S
C696 C695 1.524 . S
C697 C694 1.403 . S
C697 C698 1.392 . S
C697 C701 1.500 . S
C698 C697 1.392 . S
C698 C699 1.385 . S
C698 C700 1.478 . S
C699 H693 0.930 . S
C699 C695 1.400 . S
C699 C698 1.385 . S
C700 C698 1.478 . S
C700 C702 1.381 . S
C700 C706 1.383 . S
C701 C697 1.500 . S
C701 H707 0.935 1_565 S
C701 H708 0.968 . S
C701 H709 0.973 . S
C702 C700 1.381 . S
C702 C703 1.394 . S
C702 H710 0.930 . S
C703 C702 1.394 . S
C703 C704 1.383 . S
C703 H711 0.929 . S
C704 C703 1.383 . S
C704 C705 1.377 . S
C705 H689 0.930 . S
C705 C704 1.377 . S
C705 C706 1.379 . S
C706 H690 0.931 . S
C706 C700 1.383 . S
C706 C705 1.379 . S
H707 C701 0.935 1_545 S
H708 C701 0.968 . S
H709 C701 0.973 . S
H710 C702 0.930 . S
H711 C703 0.929 . S
H712 C720 0.929 . S
H713 C722 0.930 . S
H714 C724 0.930 . S
H715 C727 0.929 . S
H716 C730 0.930 . S
H717 C732 0.960 . S
H718 C732 0.960 . S
H719 C732 0.960 . S
C720 H712 0.929 . S
C720 C721 1.377 . S
C720 C722 1.384 . S
C721 C720 1.377 . S
C721 C727 1.390 . S
C722 H713 0.930 . S
C722 C720 1.384 . S
C722 C723 1.372 . S
C723 C722 1.372 . S
C723 C724 1.400 . S
C723 C728 1.490 . S
C724 H714 0.930 . S
C724 C723 1.400 . S
C724 C727 1.386 . S
H725 C741 0.930 . S
H726 C742 0.931 . S
C727 H715 0.929 . S
C727 C721 1.390 . S
C727 C724 1.386 . S
C728 C723 1.490 . S
C728 C730 1.395 . S
C728 C731 1.403 . S
H729 C735 0.930 . S
C730 H716 0.930 . S
C730 C728 1.395 . S
C730 C733 1.403 . S
C731 C728 1.403 . S
C731 C732 1.524 . S
C731 C735 1.400 . S
C732 H717 0.960 . S
C732 H718 0.960 . S
C732 H719 0.960 . S
C732 C731 1.524 . S
C733 C730 1.403 . S
C733 C734 1.392 . S
C733 C737 1.495 . S
C734 C733 1.392 . S
C734 C735 1.385 . S
C734 C736 1.478 . S
C735 H729 0.930 . S
C735 C731 1.400 . S
C735 C734 1.385 . S
C736 C734 1.478 . S
C736 C738 1.381 . S
C736 C742 1.383 . S
C737 C733 1.495 . S
C737 H743 0.959 . S
C737 H744 0.961 . S
C737 H745 0.960 . S
C738 C736 1.381 . S
C738 C739 1.394 . S
C738 H746 0.930 . S
C739 C738 1.394 . S
C739 C740 1.383 . S
C739 H747 0.929 . S
C740 C739 1.383 . S
C740 C741 1.377 . S
C741 H725 0.930 . S
C741 C740 1.377 . S
C741 C742 1.379 . S
C742 H726 0.931 . S
C742 C736 1.383 . S
C742 C741 1.379 . S
H743 C737 0.959 . S
H744 C737 0.961 . S
H745 C737 0.960 . S
H746 C738 0.930 . S
H747 C739 0.929 . S
H748 C756 0.929 . S
H749 C758 0.930 . S
H750 C760 0.930 . S
H751 C763 0.929 . S
H752 C766 0.930 . S
H753 C768 0.960 . S
H754 C768 0.960 . S
H755 C768 0.960 . S
C756 H748 0.929 . S
C756 C757 1.377 . S
C756 C758 1.384 . S
C757 C756 1.377 . S
C757 C763 1.390 . S
C758 H749 0.930 . S
C758 C756 1.384 . S
C758 C759 1.372 . S
C759 C758 1.372 . S
C759 C760 1.400 . S
C759 C764 1.490 . S
C760 H750 0.930 . S
C760 C759 1.400 . S
C760 C763 1.386 . S
H761 C777 0.930 . S
H762 C778 0.931 . S
C763 H751 0.929 . S
C763 C757 1.390 . S
C763 C760 1.386 . S
C764 C759 1.490 . S
C764 C766 1.395 . S
C764 C767 1.403 . S
H765 C771 0.930 . S
C766 H752 0.930 . S
C766 C764 1.395 . S
C766 C769 1.403 . S
C767 C764 1.403 . S
C767 C768 1.524 . S
C767 C771 1.400 . S
C768 H753 0.960 . S
C768 H754 0.960 . S
C768 H755 0.960 . S
C768 C767 1.524 . S
C769 C766 1.403 . S
C769 C770 1.392 . S
C769 C773 1.495 . S
C770 C769 1.392 . S
C770 C771 1.385 . S
C770 C772 1.478 . S
C771 H765 0.930 . S
C771 C767 1.400 . S
C771 C770 1.385 . S
C772 C770 1.478 . S
C772 C774 1.381 . S
C772 C778 1.383 . S
C773 C769 1.495 . S
C773 H779 0.959 . S
C773 H780 0.961 . S
C773 H781 0.960 . S
C774 C772 1.381 . S
C774 C775 1.394 . S
C774 H782 0.930 . S
C775 C774 1.394 . S
C775 C776 1.383 . S
C775 H783 0.929 . S
C776 C775 1.383 . S
C776 C777 1.377 . S
C777 H761 0.930 . S
C777 C776 1.377 . S
C777 C778 1.379 . S
C778 H762 0.931 . S
C778 C772 1.383 . S
C778 C777 1.379 . S
H779 C773 0.959 . S
H780 C773 0.961 . S
H781 C773 0.960 . S
H782 C774 0.930 . S
H783 C775 0.929 . S
H784 C792 0.929 . S
H785 C794 0.930 . S
H786 C796 0.930 . S
H787 C799 0.929 . S
H788 C802 0.930 . S
H789 C804 0.960 . S
H790 C804 0.960 . S
H791 C804 0.960 . S
C792 H784 0.929 . S
C792 C793 1.377 . S
C792 C794 1.384 . S
C793 C792 1.377 . S
C793 C799 1.390 . S
C794 H785 0.930 . S
C794 C792 1.384 . S
C794 C795 1.372 . S
C795 C794 1.372 . S
C795 C796 1.400 . S
C795 C800 1.490 . S
C796 H786 0.930 . S
C796 C795 1.400 . S
C796 C799 1.386 . S
H797 C813 0.930 . S
H798 C814 0.931 . S
C799 H787 0.929 . S
C799 C793 1.390 . S
C799 C796 1.386 . S
C800 C795 1.490 . S
C800 C802 1.395 . S
C800 C803 1.403 . S
H801 C807 0.930 . S
C802 H788 0.930 . S
C802 C800 1.395 . S
C802 C805 1.403 . S
C803 C800 1.403 . S
C803 C804 1.524 . S
C803 C807 1.400 . S
C804 H789 0.960 . S
C804 H790 0.960 . S
C804 H791 0.960 . S
C804 C803 1.524 . S
C805 C802 1.403 . S
C805 C806 1.392 . S
C805 C809 1.495 . S
C806 C805 1.392 . S
C806 C807 1.385 . S
C806 C808 1.478 . S
C807 H801 0.930 . S
C807 C803 1.400 . S
C807 C806 1.385 . S
C808 C806 1.478 . S
C808 C810 1.381 . S
C808 C814 1.383 . S
C809 C805 1.495 . S
C809 H815 0.959 . S
C809 H816 0.961 . S
C809 H817 0.960 . S
C810 C808 1.381 . S
C810 C811 1.394 . S
C810 H818 0.930 . S
C811 C810 1.394 . S
C811 C812 1.383 . S
C811 H819 0.929 . S
C812 C811 1.383 . S
C812 C813 1.377 . S
C813 H797 0.930 . S
C813 C812 1.377 . S
C813 C814 1.379 . S
C814 H798 0.931 . S
C814 C808 1.383 . S
C814 C813 1.379 . S
H815 C809 0.959 . S
H816 C809 0.961 . S
H817 C809 0.960 . S
H818 C810 0.930 . S
H819 C811 0.929 . S
H820 C828 0.929 . S
H821 C830 0.930 . S
H822 C832 0.930 . S
H823 C835 0.929 . S
H824 C838 0.930 . S
H825 C840 0.960 . S
H826 C840 0.960 . S
H827 C840 0.960 . S
C828 H820 0.929 . S
C828 C829 1.377 . S
C828 C830 1.384 . S
C829 C828 1.377 . S
C829 C835 1.390 . S
C830 H821 0.930 . S
C830 C828 1.384 . S
C830 C831 1.372 . S
C831 C830 1.372 . S
C831 C832 1.400 . S
C831 C836 1.490 . S
C832 H822 0.930 . S
C832 C831 1.400 . S
C832 C835 1.386 . S
H833 C849 0.930 . S
H834 C850 0.931 . S
C835 H823 0.929 . S
C835 C829 1.390 . S
C835 C832 1.386 . S
C836 C831 1.490 . S
C836 C838 1.395 . S
C836 C839 1.403 . S
H837 C843 0.930 . S
C838 H824 0.930 . S
C838 C836 1.395 . S
C838 C841 1.403 . S
C839 C836 1.403 . S
C839 C840 1.524 . S
C839 C843 1.400 . S
C840 H825 0.960 . S
C840 H826 0.960 . S
C840 H827 0.960 . S
C840 C839 1.524 . S
C841 C838 1.403 . S
C841 C842 1.392 . S
C841 C845 1.495 . S
C842 C841 1.392 . S
C842 C843 1.385 . S
C842 C844 1.478 . S
C843 H837 0.930 . S
C843 C839 1.400 . S
C843 C842 1.385 . S
C844 C842 1.478 . S
C844 C846 1.381 . S
C844 C850 1.383 . S
C845 C841 1.495 . S
C845 H851 0.959 . S
C845 H852 0.961 . S
C845 H853 0.960 . S
C846 C844 1.381 . S
C846 C847 1.394 . S
C846 H854 0.930 . S
C847 C846 1.394 . S
C847 C848 1.383 . S
C847 H855 0.929 . S
C848 C847 1.383 . S
C848 C849 1.377 . S
C849 H833 0.930 . S
C849 C848 1.377 . S
C849 C850 1.379 . S
C850 H834 0.931 . S
C850 C844 1.383 . S
C850 C849 1.379 . S
H851 C845 0.959 . S
H852 C845 0.961 . S
H853 C845 0.960 . S
H854 C846 0.930 . S
H855 C847 0.929 . S
H856 C864 0.929 . S
H857 C866 0.930 . S
H858 C868 0.930 . S
H859 C871 0.929 . S
H860 C874 0.930 . S
H861 C876 0.960 . S
H862 C876 0.960 . S
H863 C876 0.960 . S
C864 H856 0.929 . S
C864 C865 1.377 . S
C864 C866 1.384 . S
C865 C864 1.377 . S
C865 C871 1.390 . S
C866 H857 0.930 . S
C866 C864 1.384 . S
C866 C867 1.372 . S
C867 C866 1.372 . S
C867 C868 1.400 . S
C867 C872 1.490 . S
C868 H858 0.930 . S
C868 C867 1.400 . S
C868 C871 1.386 . S
H869 C885 0.930 . S
H870 C886 0.931 . S
C871 H859 0.929 . S
C871 C865 1.390 . S
C871 C868 1.386 . S
C872 C867 1.490 . S
C872 C874 1.395 . S
C872 C875 1.403 . S
H873 C879 0.930 . S
C874 H860 0.930 . S
C874 C872 1.395 . S
C874 C877 1.403 . S
C875 C872 1.403 . S
C875 C876 1.524 . S
C875 C879 1.400 . S
C876 H861 0.960 . S
C876 H862 0.960 . S
C876 H863 0.960 . S
C876 C875 1.524 . S
C877 C874 1.403 . S
C877 C878 1.392 . S
C877 C881 1.495 . S
C878 C877 1.392 . S
C878 C879 1.385 . S
C878 C880 1.478 . S
C879 H873 0.930 . S
C879 C875 1.400 . S
C879 C878 1.385 . S
C880 C878 1.478 . S
C880 C882 1.381 . S
C880 C886 1.383 . S
C881 C877 1.495 . S
C881 H887 0.959 . S
C881 H888 0.961 . S
C881 H889 0.960 . S
C882 C880 1.381 . S
C882 C883 1.394 . S
C882 H890 0.930 . S
C883 C882 1.394 . S
C883 C884 1.383 . S
C883 H891 0.929 . S
C884 C883 1.383 . S
C884 C885 1.377 . S
C885 H869 0.930 . S
C885 C884 1.377 . S
C885 C886 1.379 . S
C886 H870 0.931 . S
C886 C880 1.383 . S
C886 C885 1.379 . S
H887 C881 0.959 . S
H888 C881 0.961 . S
H889 C881 0.960 . S
H890 C882 0.930 . S
H891 C883 0.929 . S
H892 C900 0.929 . S
H893 C902 0.930 . S
H894 C904 0.930 . S
H895 C907 0.929 . S
H896 C910 0.930 . S
H897 C912 0.960 . S
H898 C912 0.960 . S
H899 C912 0.960 . S
C900 H892 0.929 . S
C900 C901 1.377 . S
C900 C902 1.384 . S
C901 C900 1.377 . S
C901 C907 1.390 . S
C902 H893 0.930 . S
C902 C900 1.384 . S
C902 C903 1.372 . S
C903 C902 1.372 . S
C903 C904 1.400 . S
C903 C908 1.490 . S
C904 H894 0.930 . S
C904 C903 1.400 . S
C904 C907 1.386 . S
H905 C921 0.930 . S
H906 C922 0.931 . S
C907 H895 0.929 . S
C907 C901 1.390 . S
C907 C904 1.386 . S
C908 C903 1.490 . S
C908 C910 1.395 . S
C908 C911 1.403 . S
H909 C915 0.930 . S
C910 H896 0.930 . S
C910 C908 1.395 . S
C910 C913 1.403 . S
C911 C908 1.403 . S
C911 C912 1.524 . S
C911 C915 1.400 . S
C912 H897 0.960 . S
C912 H898 0.960 . S
C912 H899 0.960 . S
C912 C911 1.524 . S
C913 C910 1.403 . S
C913 C914 1.392 . S
C913 C917 1.495 . S
C914 C913 1.392 . S
C914 C915 1.385 . S
C914 C916 1.478 . S
C915 H909 0.930 . S
C915 C911 1.400 . S
C915 C914 1.385 . S
C916 C914 1.478 . S
C916 C918 1.381 . S
C916 C922 1.383 . S
C917 C913 1.495 . S
C917 H923 0.959 . S
C917 H924 0.961 . S
C917 H925 0.960 . S
C918 C916 1.381 . S
C918 C919 1.394 . S
C918 H926 0.930 . S
C919 C918 1.394 . S
C919 C920 1.383 . S
C919 H927 0.929 . S
C920 C919 1.383 . S
C920 C921 1.377 . S
C921 H905 0.930 . S
C921 C920 1.377 . S
C921 C922 1.379 . S
C922 H906 0.931 . S
C922 C916 1.383 . S
C922 C921 1.379 . S
H923 C917 0.959 . S
H924 C917 0.961 . S
H925 C917 0.960 . S
H926 C918 0.930 . S
H927 C919 0.929 . S
H928 C936 0.929 . S
H929 C938 0.930 . S
H930 C940 0.930 . S
H931 C943 0.929 . S
H932 C946 0.930 . S
H933 C948 0.960 . S
H934 C948 0.960 . S
H935 C948 0.960 . S
C936 H928 0.929 . S
C936 C937 1.377 . S
C936 C938 1.384 . S
C937 C936 1.377 . S
C937 C943 1.390 . S
C938 H929 0.930 . S
C938 C936 1.384 . S
C938 C939 1.372 . S
C939 C938 1.372 . S
C939 C940 1.400 . S
C939 C944 1.490 . S
C940 H930 0.930 . S
C940 C939 1.400 . S
C940 C943 1.386 . S
H941 C957 0.930 . S
H942 C958 0.931 . S
C943 H931 0.929 . S
C943 C937 1.390 . S
C943 C940 1.386 . S
C944 C939 1.490 . S
C944 C946 1.395 . S
C944 C947 1.403 . S
H945 C951 0.930 . S
C946 H932 0.930 . S
C946 C944 1.395 . S
C946 C949 1.403 . S
C947 C944 1.403 . S
C947 C948 1.524 . S
C947 C951 1.400 . S
C948 H933 0.960 . S
C948 H934 0.960 . S
C948 H935 0.960 . S
C948 C947 1.524 . S
C949 C946 1.403 . S
C949 C950 1.392 . S
C949 C953 1.495 . S
C950 C949 1.392 . S
C950 C951 1.385 . S
C950 C952 1.478 . S
C951 H945 0.930 . S
C951 C947 1.400 . S
C951 C950 1.385 . S
C952 C950 1.478 . S
C952 C954 1.381 . S
C952 C958 1.383 . S
C953 C949 1.495 . S
C953 H959 0.959 . S
C953 H960 0.961 . S
C953 H961 0.960 . S
C954 C952 1.381 . S
C954 C955 1.394 . S
C954 H962 0.930 . S
C955 C954 1.394 . S
C955 C956 1.383 . S
C955 H963 0.929 . S
C956 C955 1.383 . S
C956 C957 1.377 . S
C957 H941 0.930 . S
C957 C956 1.377 . S
C957 C958 1.379 . S
C958 H942 0.931 . S
C958 C952 1.383 . S
C958 C957 1.379 . S
H959 C953 0.959 . S
H960 C953 0.961 . S
H961 C953 0.960 . S
H962 C954 0.930 . S
H963 C955 0.929 . S
H964 C972 0.929 . S
H965 C974 0.930 . S
H966 C976 0.930 . S
H967 C979 0.929 . S
H968 C982 0.930 . S
H969 C984 0.960 . S
H970 C984 0.960 . S
H971 C984 0.960 . S
C972 H964 0.929 . S
C972 C973 1.377 . S
C972 C974 1.384 . S
C973 C972 1.377 . S
C973 C979 1.390 . S
C974 H965 0.930 . S
C974 C972 1.384 . S
C974 C975 1.372 . S
C975 C974 1.372 . S
C975 C976 1.400 . S
C975 C980 1.490 . S
C976 H966 0.930 . S
C976 C975 1.400 . S
C976 C979 1.386 . S
H977 C993 0.930 . S
H978 C994 0.931 . S
C979 H967 0.929 . S
C979 C973 1.390 . S
C979 C976 1.386 . S
C980 C975 1.490 . S
C980 C982 1.395 . S
C980 C983 1.403 . S
H981 C987 0.930 . S
C982 H968 0.930 . S
C982 C980 1.395 . S
C982 C985 1.403 . S
C983 C980 1.403 . S
C983 C984 1.524 . S
C983 C987 1.400 . S
C984 H969 0.960 . S
C984 H970 0.960 . S
C984 H971 0.960 . S
C984 C983 1.524 . S
C985 C982 1.403 . S
C985 C986 1.392 . S
C985 C989 1.495 . S
C986 C985 1.392 . S
C986 C987 1.385 . S
C986 C988 1.478 . S
C987 H981 0.930 . S
C987 C983 1.400 . S
C987 C986 1.385 . S
C988 C986 1.478 . S
C988 C990 1.381 . S
C988 C994 1.383 . S
C989 C985 1.495 . S
C989 H995 0.959 . S
C989 H996 0.961 . S
C989 H997 0.960 . S
C990 C988 1.381 . S
C990 C991 1.394 . S
C990 H998 0.930 . S
C991 C990 1.394 . S
C991 C992 1.383 . S
C991 H999 0.929 . S
C992 C991 1.383 . S
C992 C993 1.377 . S
C993 H977 0.930 . S
C993 C992 1.377 . S
C993 C994 1.379 . S
C994 H978 0.931 . S
C994 C988 1.383 . S
C994 C993 1.379 . S
H995 C989 0.959 . S
H996 C989 0.961 . S
H997 C989 0.960 . S
H998 C990 0.930 . S
H999 C991 0.929 . S
H1000 C1008 0.929 . S
H1001 C1010 0.930 . S
H1002 C1012 0.930 . S
H1003 C1015 0.929 . S
H1004 C1018 0.930 . S
H1005 C1020 0.960 . S
H1006 C1020 0.960 . S
H1007 C1020 0.960 . S
C1008 H1000 0.929 . S
C1008 C1009 1.377 . S
C1008 C1010 1.384 . S
C1009 C1008 1.377 . S
C1009 C1015 1.390 . S
C1010 H1001 0.930 . S
C1010 C1008 1.384 . S
C1010 C1011 1.372 . S
C1011 C1010 1.372 . S
C1011 C1012 1.400 . S
C1011 C1016 1.490 . S
C1012 H1002 0.930 . S
C1012 C1011 1.400 . S
C1012 C1015 1.386 . S
H1013 C1029 0.930 . S
H1014 C1030 0.931 . S
C1015 H1003 0.929 . S
C1015 C1009 1.390 . S
C1015 C1012 1.386 . S
C1016 C1011 1.490 . S
C1016 C1018 1.395 . S
C1016 C1019 1.403 . S
H1017 C1023 0.930 . S
C1018 H1004 0.930 . S
C1018 C1016 1.395 . S
C1018 C1021 1.403 . S
C1019 C1016 1.403 . S
C1019 C1020 1.524 . S
C1019 C1023 1.400 . S
C1020 H1005 0.960 . S
C1020 H1006 0.960 . S
C1020 H1007 0.960 . S
C1020 C1019 1.524 . S
C1021 C1018 1.403 . S
C1021 C1022 1.392 . S
C1021 C1025 1.495 . S
C1022 C1021 1.392 . S
C1022 C1023 1.385 . S
C1022 C1024 1.478 . S
C1023 H1017 0.930 . S
C1023 C1019 1.400 . S
C1023 C1022 1.385 . S
C1024 C1022 1.478 . S
C1024 C1026 1.381 . S
C1024 C1030 1.383 . S
C1025 C1021 1.495 . S
C1025 H1031 0.959 . S
C1025 H1032 0.961 . S
C1025 H1033 0.960 . S
C1026 C1024 1.381 . S
C1026 C1027 1.394 . S
C1026 H1034 0.930 . S
C1027 C1026 1.394 . S
C1027 C1028 1.383 . S
C1027 H1035 0.929 . S
C1028 C1027 1.383 . S
C1028 C1029 1.377 . S
C1029 H1013 0.930 . S
C1029 C1028 1.377 . S
C1029 C1030 1.379 . S
C1030 H1014 0.931 . S
C1030 C1024 1.383 . S
C1030 C1029 1.379 . S
H1031 C1025 0.959 . S
H1032 C1025 0.961 . S
H1033 C1025 0.960 . S
H1034 C1026 0.930 . S
H1035 C1027 0.929 . S
H1036 C1044 0.929 . S
H1037 C1046 0.930 . S
H1038 C1048 0.930 . S
H1039 C1051 0.929 . S
H1040 C1054 0.930 . S
H1041 C1056 0.960 . S
H1042 C1056 0.960 . S
H1043 C1056 0.960 . S
C1044 H1036 0.929 . S
C1044 C1045 1.377 . S
C1044 C1046 1.384 . S
C1045 C1044 1.377 . S
C1045 C1051 1.390 . S
C1046 H1037 0.930 . S
C1046 C1044 1.384 . S
C1046 C1047 1.372 . S
C1047 C1046 1.372 . S
C1047 C1048 1.400 . S
C1047 C1052 1.490 . S
C1048 H1038 0.930 . S
C1048 C1047 1.400 . S
C1048 C1051 1.386 . S
H1049 C1065 0.930 . S
H1050 C1066 0.931 . S
C1051 H1039 0.929 . S
C1051 C1045 1.390 . S
C1051 C1048 1.386 . S
C1052 C1047 1.490 . S
C1052 C1054 1.395 . S
C1052 C1055 1.403 . S
H1053 C1059 0.930 . S
C1054 H1040 0.930 . S
C1054 C1052 1.395 . S
C1054 C1057 1.403 . S
C1055 C1052 1.403 . S
C1055 C1056 1.524 . S
C1055 C1059 1.400 . S
C1056 H1041 0.960 . S
C1056 H1042 0.960 . S
C1056 H1043 0.960 . S
C1056 C1055 1.524 . S
C1057 C1054 1.403 . S
C1057 C1058 1.392 . S
C1057 C1061 1.495 . S
C1058 C1057 1.392 . S
C1058 C1059 1.385 . S
C1058 C1060 1.478 . S
C1059 H1053 0.930 . S
C1059 C1055 1.400 . S
C1059 C1058 1.385 . S
C1060 C1058 1.478 . S
C1060 C1062 1.381 . S
C1060 C1066 1.383 . S
C1061 C1057 1.495 . S
C1061 H1067 0.959 . S
C1061 H1068 0.961 . S
C1061 H1069 0.960 . S
C1062 C1060 1.381 . S
C1062 C1063 1.394 . S
C1062 H1070 0.930 . S
C1063 C1062 1.394 . S
C1063 C1064 1.383 . S
C1063 H1071 0.929 . S
C1064 C1063 1.383 . S
C1064 C1065 1.377 . S
C1065 H1049 0.930 . S
C1065 C1064 1.377 . S
C1065 C1066 1.379 . S
C1066 H1050 0.931 . S
C1066 C1060 1.383 . S
C1066 C1065 1.379 . S
H1067 C1061 0.959 . S
H1068 C1061 0.961 . S
H1069 C1061 0.960 . S
H1070 C1062 0.930 . S
H1071 C1063 0.929 . S
H1072 C1080 0.929 . S
H1073 C1082 0.930 . S
H1074 C1084 0.930 . S
H1075 C1087 0.929 . S
H1076 C1090 0.930 . S
H1077 C1092 0.960 . S
H1078 C1092 0.960 . S
H1079 C1092 0.960 . S
C1080 H1072 0.929 . S
C1080 C1081 1.377 . S
C1080 C1082 1.384 . S
C1081 C1080 1.377 . S
C1081 C1087 1.390 . S
C1082 H1073 0.930 . S
C1082 C1080 1.384 . S
C1082 C1083 1.372 . S
C1083 C1082 1.372 . S
C1083 C1084 1.400 . S
C1083 C1088 1.490 . S
C1084 H1074 0.930 . S
C1084 C1083 1.400 . S
C1084 C1087 1.386 . S
H1085 C1101 0.930 . S
H1086 C1102 0.931 . S
C1087 H1075 0.929 . S
C1087 C1081 1.390 . S
C1087 C1084 1.386 . S
C1088 C1083 1.490 . S
C1088 C1090 1.395 . S
C1088 C1091 1.403 . S
H1089 C1095 0.930 . S
C1090 H1076 0.930 . S
C1090 C1088 1.395 . S
C1090 C1093 1.403 . S
C1091 C1088 1.403 . S
C1091 C1092 1.524 . S
C1091 C1095 1.400 . S
C1092 H1077 0.960 . S
C1092 H1078 0.960 . S
C1092 H1079 0.960 . S
C1092 C1091 1.524 . S
C1093 C1090 1.403 . S
C1093 C1094 1.392 . S
C1093 C1097 1.495 . S
C1094 C1093 1.392 . S
C1094 C1095 1.385 . S
C1094 C1096 1.478 . S
C1095 H1089 0.930 . S
C1095 C1091 1.400 . S
C1095 C1094 1.385 . S
C1096 C1094 1.478 . S
C1096 C1098 1.381 . S
C1096 C1102 1.383 . S
C1097 C1093 1.495 . S
C1097 H1103 0.959 . S
C1097 H1104 0.961 . S
C1097 H1105 0.960 . S
C1098 C1096 1.381 . S
C1098 C1099 1.394 . S
C1098 H1106 0.930 . S
C1099 C1098 1.394 . S
C1099 C1100 1.383 . S
C1099 H1107 0.929 1_655 S
C1100 C1099 1.383 . S
C1100 C1101 1.377 . S
C1101 H1085 0.930 . S
C1101 C1100 1.377 . S
C1101 C1102 1.379 . S
C1102 H1086 0.931 . S
C1102 C1096 1.383 . S
C1102 C1101 1.379 . S
H1103 C1097 0.959 . S
H1104 C1097 0.961 . S
H1105 C1097 0.960 . S
H1106 C1098 0.930 . S
H1107 C1099 0.929 1_455 S
H1108 C1116 0.929 . S
H1109 C1118 0.930 . S
H1110 C1120 0.930 . S
H1111 C1123 0.929 . S
H1112 C1126 0.930 . S
H1113 C1128 0.960 . S
H1114 C1128 0.960 . S
H1115 C1128 0.960 . S
C1116 H1108 0.929 . S
C1116 C1117 1.377 . S
C1116 C1118 1.384 . S
C1117 C1116 1.377 . S
C1117 C1123 1.390 . S
C1118 H1109 0.930 . S
C1118 C1116 1.384 . S
C1118 C1119 1.372 . S
C1119 C1118 1.372 . S
C1119 C1120 1.400 . S
C1119 C1124 1.490 . S
C1120 H1110 0.930 . S
C1120 C1119 1.400 . S
C1120 C1123 1.386 . S
H1121 C1137 0.930 . S
H1122 C1138 0.931 . S
C1123 H1111 0.929 . S
C1123 C1117 1.390 . S
C1123 C1120 1.386 . S
C1124 C1119 1.490 . S
C1124 C1126 1.395 . S
C1124 C1127 1.403 . S
H1125 C1131 0.930 . S
C1126 H1112 0.930 . S
C1126 C1124 1.395 . S
C1126 C1129 1.403 . S
C1127 C1124 1.403 . S
C1127 C1128 1.524 . S
C1127 C1131 1.400 . S
C1128 H1113 0.960 . S
C1128 H1114 0.960 . S
C1128 H1115 0.960 . S
C1128 C1127 1.524 . S
C1129 C1126 1.403 . S
C1129 C1130 1.392 . S
C1129 C1133 1.495 . S
C1130 C1129 1.392 . S
C1130 C1131 1.385 . S
C1130 C1132 1.478 . S
C1131 H1125 0.930 . S
C1131 C1127 1.400 . S
C1131 C1130 1.385 . S
C1132 C1130 1.478 . S
C1132 C1134 1.381 . S
C1132 C1138 1.383 . S
C1133 C1129 1.495 . S
C1133 H1139 0.959 . S
C1133 H1140 0.961 . S
C1133 H1141 0.960 . S
C1134 C1132 1.381 . S
C1134 C1135 1.394 . S
C1134 H1142 0.930 . S
C1135 C1134 1.394 . S
C1135 C1136 1.383 . S
C1135 H1143 0.929 . S
C1136 C1135 1.383 . S
C1136 C1137 1.377 . S
C1137 H1121 0.930 . S
C1137 C1136 1.377 . S
C1137 C1138 1.379 . S
C1138 H1122 0.931 . S
C1138 C1132 1.383 . S
C1138 C1137 1.379 . S
H1139 C1133 0.959 . S
H1140 C1133 0.961 . S
H1141 C1133 0.960 . S
H1142 C1134 0.930 . S
H1143 C1135 0.929 . S
H1144 C1152 0.929 . S
H1145 C1154 0.930 . S
H1146 C1156 0.930 . S
H1147 C1159 0.929 1_554 S
H1148 C1162 0.930 . S
H1149 C1164 0.960 . S
H1150 C1164 0.960 . S
H1151 C1164 0.960 . S
C1152 H1144 0.929 . S
C1152 C1153 1.377 . S
C1152 C1154 1.384 . S
C1153 C1152 1.377 . S
C1153 C1159 1.390 . S
C1154 H1145 0.930 . S
C1154 C1152 1.384 . S
C1154 C1155 1.372 . S
C1155 C1154 1.372 . S
C1155 C1156 1.400 . S
C1155 C1160 1.490 . S
C1156 H1146 0.930 . S
C1156 C1155 1.400 . S
C1156 C1159 1.386 . S
H1157 C1173 0.930 . S
H1158 C1174 0.931 . S
C1159 H1147 0.929 1_556 S
C1159 C1153 1.390 . S
C1159 C1156 1.386 . S
C1160 C1155 1.490 . S
C1160 C1162 1.395 . S
C1160 C1163 1.403 . S
H1161 C1167 0.930 . S
C1162 H1148 0.930 . S
C1162 C1160 1.395 . S
C1162 C1165 1.403 . S
C1163 C1160 1.403 . S
C1163 C1164 1.524 . S
C1163 C1167 1.400 . S
C1164 H1149 0.960 . S
C1164 H1150 0.960 . S
C1164 H1151 0.960 . S
C1164 C1163 1.524 . S
C1165 C1162 1.403 . S
C1165 C1166 1.392 . S
C1165 C1169 1.495 . S
C1166 C1165 1.392 . S
C1166 C1167 1.385 . S
C1166 C1168 1.478 . S
C1167 H1161 0.930 . S
C1167 C1163 1.400 . S
C1167 C1166 1.385 . S
C1168 C1166 1.478 . S
C1168 C1170 1.381 . S
C1168 C1174 1.383 . S
C1169 C1165 1.495 . S
C1169 H1175 0.959 . S
C1169 H1176 0.961 . S
C1169 H1177 0.960 . S
C1170 C1168 1.381 . S
C1170 C1171 1.394 . S
C1170 H1178 0.930 . S
C1171 C1170 1.394 . S
C1171 C1172 1.383 . S
C1171 H1179 0.929 . S
C1172 C1171 1.383 . S
C1172 C1173 1.377 . S
C1173 H1157 0.930 . S
C1173 C1172 1.377 . S
C1173 C1174 1.379 . S
C1174 H1158 0.931 . S
C1174 C1168 1.383 . S
C1174 C1173 1.379 . S
H1175 C1169 0.959 . S
H1176 C1169 0.961 . S
H1177 C1169 0.960 . S
H1178 C1170 0.930 . S
H1179 C1171 0.929 . S
H1180 C1188 0.929 . S
H1181 C1190 0.930 . S
H1182 C1192 0.930 . S
H1183 C1195 0.929 . S
H1184 C1198 0.930 . S
H1185 C1200 0.960 . S
H1186 C1200 0.960 . S
H1187 C1200 0.960 . S
C1188 H1180 0.929 . S
C1188 C1189 1.377 . S
C1188 C1190 1.384 . S
C1189 C1188 1.377 . S
C1189 C1195 1.390 . S
C1190 H1181 0.930 . S
C1190 C1188 1.384 . S
C1190 C1191 1.372 . S
C1191 C1190 1.372 . S
C1191 C1192 1.400 . S
C1191 C1196 1.490 . S
C1192 H1182 0.930 . S
C1192 C1191 1.400 . S
C1192 C1195 1.386 . S
H1193 C1209 0.930 . S
H1194 C1210 0.931 . S
C1195 H1183 0.929 . S
C1195 C1189 1.390 . S
C1195 C1192 1.386 . S
C1196 C1191 1.490 . S
C1196 C1198 1.395 . S
C1196 C1199 1.403 . S
H1197 C1203 0.930 . S
C1198 H1184 0.930 . S
C1198 C1196 1.395 . S
C1198 C1201 1.403 . S
C1199 C1196 1.403 . S
C1199 C1200 1.524 . S
C1199 C1203 1.400 . S
C1200 H1185 0.960 . S
C1200 H1186 0.960 . S
C1200 H1187 0.960 . S
C1200 C1199 1.524 . S
C1201 C1198 1.403 . S
C1201 C1202 1.392 . S
C1201 C1205 1.495 . S
C1202 C1201 1.392 . S
C1202 C1203 1.385 . S
C1202 C1204 1.478 . S
C1203 H1197 0.930 . S
C1203 C1199 1.400 . S
C1203 C1202 1.385 . S
C1204 C1202 1.478 . S
C1204 C1206 1.381 . S
C1204 C1210 1.383 . S
C1205 C1201 1.495 . S
C1205 H1211 0.959 . S
C1205 H1212 0.961 . S
C1205 H1213 0.960 . S
C1206 C1204 1.381 . S
C1206 C1207 1.394 . S
C1206 H1214 0.930 . S
C1207 C1206 1.394 . S
C1207 C1208 1.383 . S
C1207 H1215 0.929 . S
C1208 C1207 1.383 . S
C1208 C1209 1.377 . S
C1209 H1193 0.930 . S
C1209 C1208 1.377 . S
C1209 C1210 1.379 . S
C1210 H1194 0.931 . S
C1210 C1204 1.383 . S
C1210 C1209 1.379 . S
H1211 C1205 0.959 . S
H1212 C1205 0.961 . S
H1213 C1205 0.960 . S
H1214 C1206 0.930 . S
H1215 C1207 0.929 . S
H1216 C1224 0.929 . S
H1217 C1226 0.930 . S
H1218 C1228 0.930 . S
H1219 C1231 0.929 . S
H1220 C1234 0.930 . S
H1221 C1236 0.960 . S
H1222 C1236 0.960 . S
H1223 C1236 0.960 . S
C1224 H1216 0.929 . S
C1224 C1225 1.377 . S
C1224 C1226 1.384 . S
C1225 C1224 1.377 . S
C1225 C1231 1.390 . S
C1226 H1217 0.930 . S
C1226 C1224 1.384 . S
C1226 C1227 1.372 . S
C1227 C1226 1.372 . S
C1227 C1228 1.400 . S
C1227 C1232 1.490 . S
C1228 H1218 0.930 . S
C1228 C1227 1.400 . S
C1228 C1231 1.386 . S
H1229 C1245 0.930 . S
H1230 C1246 0.931 . S
C1231 H1219 0.929 . S
C1231 C1225 1.390 . S
C1231 C1228 1.386 . S
C1232 C1227 1.490 . S
C1232 C1234 1.395 . S
C1232 C1235 1.403 . S
H1233 C1239 0.930 . S
C1234 H1220 0.930 . S
C1234 C1232 1.395 . S
C1234 C1237 1.403 . S
C1235 C1232 1.403 . S
C1235 C1236 1.524 . S
C1235 C1239 1.400 . S
C1236 H1221 0.960 . S
C1236 H1222 0.960 . S
C1236 H1223 0.960 . S
C1236 C1235 1.524 . S
C1237 C1234 1.403 . S
C1237 C1238 1.392 . S
C1237 C1241 1.495 . S
C1238 C1237 1.392 . S
C1238 C1239 1.385 . S
C1238 C1240 1.478 . S
C1239 H1233 0.930 . S
C1239 C1235 1.400 . S
C1239 C1238 1.385 . S
C1240 C1238 1.478 . S
C1240 C1242 1.381 . S
C1240 C1246 1.383 . S
C1241 C1237 1.495 . S
C1241 H1247 0.959 . S
C1241 H1248 0.961 . S
C1241 H1249 0.960 . S
C1242 C1240 1.381 . S
C1242 C1243 1.394 . S
C1242 H1250 0.930 . S
C1243 C1242 1.394 . S
C1243 C1244 1.383 . S
C1243 H1251 0.929 . S
C1244 C1243 1.383 . S
C1244 C1245 1.377 . S
C1245 H1229 0.930 . S
C1245 C1244 1.377 . S
C1245 C1246 1.379 . S
C1246 H1230 0.931 . S
C1246 C1240 1.383 . S
C1246 C1245 1.379 . S
H1247 C1241 0.959 . S
H1248 C1241 0.961 . S
H1249 C1241 0.960 . S
H1250 C1242 0.930 . S
H1251 C1243 0.929 . S
H1252 C1260 0.929 . S
H1253 C1262 0.930 . S
H1254 C1264 0.930 . S
H1255 C1267 0.929 . S
H1256 C1270 0.930 . S
H1257 C1272 0.960 . S
H1258 C1272 0.960 . S
H1259 C1272 0.960 . S
C1260 H1252 0.929 . S
C1260 C1261 1.377 . S
C1260 C1262 1.384 . S
C1261 C1260 1.377 . S
C1261 C1267 1.390 . S
C1262 H1253 0.930 . S
C1262 C1260 1.384 . S
C1262 C1263 1.372 . S
C1263 C1262 1.372 . S
C1263 C1264 1.400 . S
C1263 C1268 1.490 . S
C1264 H1254 0.930 . S
C1264 C1263 1.400 . S
C1264 C1267 1.386 . S
H1265 C1281 0.930 . S
H1266 C1282 0.931 . S
C1267 H1255 0.929 . S
C1267 C1261 1.390 . S
C1267 C1264 1.386 . S
C1268 C1263 1.490 . S
C1268 C1270 1.395 . S
C1268 C1271 1.403 . S
H1269 C1275 0.930 . S
C1270 H1256 0.930 . S
C1270 C1268 1.395 . S
C1270 C1273 1.403 . S
C1271 C1268 1.403 . S
C1271 C1272 1.524 . S
C1271 C1275 1.400 . S
C1272 H1257 0.960 . S
C1272 H1258 0.960 . S
C1272 H1259 0.960 . S
C1272 C1271 1.524 . S
C1273 C1270 1.403 . S
C1273 C1274 1.392 . S
C1273 C1277 1.495 . S
C1274 C1273 1.392 . S
C1274 C1275 1.385 . S
C1274 C1276 1.478 . S
C1275 H1269 0.930 . S
C1275 C1271 1.400 . S
C1275 C1274 1.385 . S
C1276 C1274 1.478 . S
C1276 C1278 1.381 . S
C1276 C1282 1.383 . S
C1277 C1273 1.495 . S
C1277 H1283 0.959 . S
C1277 H1284 0.961 . S
C1277 H1285 0.960 . S
C1278 C1276 1.381 . S
C1278 C1279 1.394 . S
C1278 H1286 0.930 . S
C1279 C1278 1.394 . S
C1279 C1280 1.383 . S
C1279 H1287 0.929 . S
C1280 C1279 1.383 . S
C1280 C1281 1.377 . S
C1281 H1265 0.930 . S
C1281 C1280 1.377 . S
C1281 C1282 1.379 . S
C1282 H1266 0.931 . S
C1282 C1276 1.383 . S
C1282 C1281 1.379 . S
H1283 C1277 0.959 . S
H1284 C1277 0.961 . S
H1285 C1277 0.960 . S
H1286 C1278 0.930 . S
H1287 C1279 0.929 . S
H1288 C1296 0.929 1_455 S
H1289 C1298 0.930 . S
H1290 C1300 0.930 . S
H1291 C1303 0.929 . S
H1292 C1306 0.930 . S
H1293 C1308 0.960 . S
H1294 C1308 0.960 . S
H1295 C1308 0.960 . S
C1296 H1288 0.929 1_655 S
C1296 C1297 1.377 . S
C1296 C1298 1.384 . S
C1297 C1296 1.377 . S
C1297 C1303 1.390 . S
C1298 H1289 0.930 . S
C1298 C1296 1.384 . S
C1298 C1299 1.372 . S
C1299 C1298 1.372 . S
C1299 C1300 1.400 . S
C1299 C1304 1.490 . S
C1300 H1290 0.930 . S
C1300 C1299 1.400 . S
C1300 C1303 1.386 . S
H1301 C1317 0.930 . S
H1302 C1318 0.931 . S
C1303 H1291 0.929 . S
C1303 C1297 1.390 . S
C1303 C1300 1.386 . S
C1304 C1299 1.490 . S
C1304 C1306 1.395 . S
C1304 C1307 1.403 . S
H1305 C1311 0.930 . S
C1306 H1292 0.930 . S
C1306 C1304 1.395 . S
C1306 C1309 1.403 . S
C1307 C1304 1.403 . S
C1307 C1308 1.524 . S
C1307 C1311 1.400 . S
C1308 H1293 0.960 . S
C1308 H1294 0.960 . S
C1308 H1295 0.960 . S
C1308 C1307 1.524 . S
C1309 C1306 1.403 . S
C1309 C1310 1.392 . S
C1309 C1313 1.495 . S
C1310 C1309 1.392 . S
C1310 C1311 1.385 . S
C1310 C1312 1.478 . S
C1311 H1305 0.930 . S
C1311 C1307 1.400 . S
C1311 C1310 1.385 . S
C1312 C1310 1.478 . S
C1312 C1314 1.381 . S
C1312 C1318 1.383 . S
C1313 C1309 1.495 . S
C1313 H1319 0.959 . S
C1313 H1320 0.961 . S
C1313 H1321 0.960 . S
C1314 C1312 1.381 . S
C1314 C1315 1.394 . S
C1314 H1322 0.930 . S
C1315 C1314 1.394 . S
C1315 C1316 1.383 . S
C1315 H1323 0.929 . S
C1316 C1315 1.383 . S
C1316 C1317 1.377 . S
C1317 H1301 0.930 . S
C1317 C1316 1.377 . S
C1317 C1318 1.379 . S
C1318 H1302 0.931 . S
C1318 C1312 1.383 . S
C1318 C1317 1.379 . S
H1319 C1313 0.959 . S
H1320 C1313 0.961 . S
H1321 C1313 0.960 . S
H1322 C1314 0.930 . S
H1323 C1315 0.929 . S
H1324 C1332 0.929 . S
H1325 C1334 0.930 . S
H1326 C1336 0.930 . S
H1327 C1339 0.929 . S
H1328 C1342 0.930 . S
H1329 C1344 0.960 . S
H1330 C1344 0.960 . S
H1331 C1344 0.960 . S
C1332 H1324 0.929 . S
C1332 C1333 1.377 . S
C1332 C1334 1.384 . S
C1333 C1332 1.377 . S
C1333 C1339 1.390 . S
C1334 H1325 0.930 . S
C1334 C1332 1.384 . S
C1334 C1335 1.372 . S
C1335 C1334 1.372 . S
C1335 C1336 1.400 . S
C1335 C1340 1.490 . S
C1336 H1326 0.930 . S
C1336 C1335 1.400 . S
C1336 C1339 1.386 . S
H1337 C1353 0.930 . S
H1338 C1354 0.931 . S
C1339 H1327 0.929 . S
C1339 C1333 1.390 . S
C1339 C1336 1.386 . S
C1340 C1335 1.490 . S
C1340 C1342 1.395 . S
C1340 C1343 1.403 . S
H1341 C1347 0.930 . S
C1342 H1328 0.930 . S
C1342 C1340 1.395 . S
C1342 C1345 1.403 . S
C1343 C1340 1.403 . S
C1343 C1344 1.524 . S
C1343 C1347 1.400 . S
C1344 H1329 0.960 . S
C1344 H1330 0.960 . S
C1344 H1331 0.960 . S
C1344 C1343 1.524 . S
C1345 C1342 1.403 . S
C1345 C1346 1.392 . S
C1345 C1349 1.495 . S
C1346 C1345 1.392 . S
C1346 C1347 1.385 . S
C1346 C1348 1.478 . S
C1347 H1341 0.930 . S
C1347 C1343 1.400 . S
C1347 C1346 1.385 . S
C1348 C1346 1.478 . S
C1348 C1350 1.381 . S
C1348 C1354 1.383 . S
C1349 C1345 1.495 . S
C1349 H1355 0.959 . S
C1349 H1356 0.961 . S
C1349 H1357 0.960 . S
C1350 C1348 1.381 . S
C1350 C1351 1.394 . S
C1350 H1358 0.930 . S
C1351 C1350 1.394 . S
C1351 C1352 1.383 . S
C1351 H1359 0.929 . S
C1352 C1351 1.383 . S
C1352 C1353 1.377 . S
C1353 H1337 0.930 . S
C1353 C1352 1.377 . S
C1353 C1354 1.379 . S
C1354 H1338 0.931 . S
C1354 C1348 1.383 . S
C1354 C1353 1.379 . S
H1355 C1349 0.959 . S
H1356 C1349 0.961 . S
H1357 C1349 0.960 . S
H1358 C1350 0.930 . S
H1359 C1351 0.929 . S
H1360 C1368 0.929 . S
H1361 C1370 0.930 . S
H1362 C1372 0.930 . S
H1363 C1375 0.929 . S
H1364 C1378 0.930 . S
H1365 C1380 0.960 . S
H1366 C1380 0.960 . S
H1367 C1380 0.960 . S
C1368 H1360 0.929 . S
C1368 C1369 1.377 . S
C1368 C1370 1.384 . S
C1369 C1368 1.377 . S
C1369 C1375 1.390 . S
C1370 H1361 0.930 . S
C1370 C1368 1.384 . S
C1370 C1371 1.372 . S
C1371 C1370 1.372 . S
C1371 C1372 1.400 . S
C1371 C1376 1.490 . S
C1372 H1362 0.930 . S
C1372 C1371 1.400 . S
C1372 C1375 1.386 . S
H1373 C1389 0.930 . S
H1374 C1390 0.931 . S
C1375 H1363 0.929 . S
C1375 C1369 1.390 . S
C1375 C1372 1.386 . S
C1376 C1371 1.490 . S
C1376 C1378 1.395 . S
C1376 C1379 1.403 . S
H1377 C1383 0.930 . S
C1378 H1364 0.930 . S
C1378 C1376 1.395 . S
C1378 C1381 1.403 . S
C1379 C1376 1.403 . S
C1379 C1380 1.524 . S
C1379 C1383 1.400 . S
C1380 H1365 0.960 . S
C1380 H1366 0.960 . S
C1380 H1367 0.960 . S
C1380 C1379 1.524 . S
C1381 C1378 1.403 . S
C1381 C1382 1.392 . S
C1381 C1385 1.495 . S
C1382 C1381 1.392 . S
C1382 C1383 1.385 . S
C1382 C1384 1.478 . S
C1383 H1377 0.930 . S
C1383 C1379 1.400 . S
C1383 C1382 1.385 . S
C1384 C1382 1.478 . S
C1384 C1386 1.381 . S
C1384 C1390 1.383 . S
C1385 C1381 1.495 . S
C1385 H1391 0.959 . S
C1385 H1392 0.961 . S
C1385 H1393 0.960 . S
C1386 C1384 1.381 . S
C1386 C1387 1.394 . S
C1386 H1394 0.930 . S
C1387 C1386 1.394 . S
C1387 C1388 1.383 . S
C1387 H1395 0.929 . S
C1388 C1387 1.383 . S
C1388 C1389 1.377 . S
C1389 H1373 0.930 . S
C1389 C1388 1.377 . S
C1389 C1390 1.379 . S
C1390 H1374 0.931 . S
C1390 C1384 1.383 . S
C1390 C1389 1.379 . S
H1391 C1385 0.959 . S
H1392 C1385 0.961 . S
H1393 C1385 0.960 . S
H1394 C1386 0.930 . S
H1395 C1387 0.929 . S
H1396 C1404 0.929 . S
H1397 C1406 0.930 . S
H1398 C1408 0.930 . S
H1399 C1411 0.929 . S
H1400 C1414 0.930 . S
H1401 C1416 0.960 . S
H1402 C1416 0.960 . S
H1403 C1416 0.960 . S
C1404 H1396 0.929 . S
C1404 C1405 1.377 . S
C1404 C1406 1.384 . S
C1405 C1404 1.377 . S
C1405 C1411 1.390 . S
C1406 H1397 0.930 . S
C1406 C1404 1.384 . S
C1406 C1407 1.372 . S
C1407 C1406 1.372 . S
C1407 C1408 1.400 . S
C1407 C1412 1.490 . S
C1408 H1398 0.930 . S
C1408 C1407 1.400 . S
C1408 C1411 1.386 . S
H1409 C1425 0.930 . S
H1410 C1426 0.931 . S
C1411 H1399 0.929 . S
C1411 C1405 1.390 . S
C1411 C1408 1.386 . S
C1412 C1407 1.490 . S
C1412 C1414 1.395 . S
C1412 C1415 1.403 . S
H1413 C1419 0.930 . S
C1414 H1400 0.930 . S
C1414 C1412 1.395 . S
C1414 C1417 1.403 . S
C1415 C1412 1.403 . S
C1415 C1416 1.524 . S
C1415 C1419 1.400 . S
C1416 H1401 0.960 . S
C1416 H1402 0.960 . S
C1416 H1403 0.960 . S
C1416 C1415 1.524 . S
C1417 C1414 1.403 . S
C1417 C1418 1.392 . S
C1417 C1421 1.495 . S
C1418 C1417 1.392 . S
C1418 C1419 1.385 . S
C1418 C1420 1.478 . S
C1419 H1413 0.930 . S
C1419 C1415 1.400 . S
C1419 C1418 1.385 . S
C1420 C1418 1.478 . S
C1420 C1422 1.381 . S
C1420 C1426 1.383 . S
C1421 C1417 1.495 . S
C1421 H1427 0.959 . S
C1421 H1428 0.961 . S
C1421 H1429 0.960 . S
C1422 C1420 1.381 . S
C1422 C1423 1.394 . S
C1422 H1430 0.930 . S
C1423 C1422 1.394 . S
C1423 C1424 1.383 . S
C1423 H1431 0.929 1_565 S
C1424 C1423 1.383 . S
C1424 C1425 1.377 . S
C1425 H1409 0.930 . S
C1425 C1424 1.377 . S
C1425 C1426 1.379 . S
C1426 H1410 0.931 . S
C1426 C1420 1.383 . S
C1426 C1425 1.379 . S
H1427 C1421 0.959 . S
H1428 C1421 0.961 . S
H1429 C1421 0.960 . S
H1430 C1422 0.930 . S
H1431 C1423 0.929 1_545 S
H1432 C1440 0.929 . S
H1433 C1442 0.930 . S
H1434 C1444 0.930 . S
H1435 C1447 0.929 . S
H1436 C1450 0.930 . S
H1437 C1452 0.960 . S
H1438 C1452 0.960 . S
H1439 C1452 0.960 . S
C1440 H1432 0.929 . S
C1440 C1441 1.377 . S
C1440 C1442 1.384 . S
C1441 C1440 1.377 . S
C1441 C1447 1.390 . S
C1442 H1433 0.930 . S
C1442 C1440 1.384 . S
C1442 C1443 1.372 . S
C1443 C1442 1.372 . S
C1443 C1444 1.400 . S
C1443 C1448 1.490 . S
C1444 H1434 0.930 . S
C1444 C1443 1.400 . S
C1444 C1447 1.386 . S
H1445 C1461 0.930 . S
H1446 C1462 0.931 . S
C1447 H1435 0.929 . S
C1447 C1441 1.390 . S
C1447 C1444 1.386 . S
C1448 C1443 1.490 . S
C1448 C1450 1.395 . S
C1448 C1451 1.403 . S
H1449 C1455 0.930 . S
C1450 H1436 0.930 . S
C1450 C1448 1.395 . S
C1450 C1453 1.403 . S
C1451 C1448 1.403 . S
C1451 C1452 1.524 . S
C1451 C1455 1.400 . S
C1452 H1437 0.960 . S
C1452 H1438 0.960 . S
C1452 H1439 0.960 . S
C1452 C1451 1.524 . S
C1453 C1450 1.403 . S
C1453 C1454 1.392 . S
C1453 C1457 1.515 . S
C1454 C1453 1.392 . S
C1454 C1455 1.385 . S
C1454 C1456 1.478 . S
C1455 H1449 0.930 . S
C1455 C1451 1.400 . S
C1455 C1454 1.385 . S
C1456 C1454 1.478 . S
C1456 C1458 1.381 . S
C1456 C1462 1.383 1_556 S
C1457 C1453 1.515 . S
C1457 H1463 0.959 . S
C1457 H1464 0.929 1_556 S
C1457 H1465 0.970 . S
C1458 C1456 1.381 . S
C1458 C1459 1.394 . S
C1458 H1466 0.930 . S
C1459 C1458 1.394 . S
C1459 C1460 1.383 1_556 S
C1459 H1467 0.929 . S
C1460 C1459 1.383 1_554 S
C1460 C1461 1.377 . S
C1461 H1445 0.930 . S
C1461 C1460 1.377 . S
C1461 C1462 1.379 . S
C1462 H1446 0.931 . S
C1462 C1456 1.383 1_554 S
C1462 C1461 1.379 . S
H1463 C1457 0.959 . S
H1464 C1457 0.929 1_554 S
H1465 C1457 0.970 . S
H1466 C1458 0.930 . S
H1467 C1459 0.929 . S
H1468 C1476 0.929 . S
H1469 C1478 0.930 . S
H1470 C1480 0.930 . S
H1471 C1483 0.929 . S
H1472 C1486 0.930 . S
H1473 C1488 0.960 . S
H1474 C1488 0.960 . S
H1475 C1488 0.960 . S
C1476 H1468 0.929 . S
C1476 C1477 1.377 . S
C1476 C1478 1.384 . S
C1477 C1476 1.377 . S
C1477 C1483 1.390 . S
C1478 H1469 0.930 . S
C1478 C1476 1.384 . S
C1478 C1479 1.372 . S
C1479 C1478 1.372 . S
C1479 C1480 1.400 . S
C1479 C1484 1.490 . S
C1480 H1470 0.930 . S
C1480 C1479 1.400 . S
C1480 C1483 1.386 . S
H1481 C1497 0.930 . S
H1482 C1498 0.931 . S
C1483 H1471 0.929 . S
C1483 C1477 1.390 . S
C1483 C1480 1.386 . S
C1484 C1479 1.490 . S
C1484 C1486 1.395 . S
C1484 C1487 1.403 . S
H1485 C1491 0.930 . S
C1486 H1472 0.930 . S
C1486 C1484 1.395 . S
C1486 C1489 1.403 . S
C1487 C1484 1.403 . S
C1487 C1488 1.524 . S
C1487 C1491 1.400 . S
C1488 H1473 0.960 . S
C1488 H1474 0.960 . S
C1488 H1475 0.960 . S
C1488 C1487 1.524 . S
C1489 C1486 1.403 . S
C1489 C1490 1.392 . S
C1489 C1493 1.495 . S
C1490 C1489 1.392 . S
C1490 C1491 1.385 . S
C1490 C1492 1.478 . S
C1491 H1485 0.930 . S
C1491 C1487 1.400 . S
C1491 C1490 1.385 . S
C1492 C1490 1.478 . S
C1492 C1494 1.381 . S
C1492 C1498 1.383 . S
C1493 C1489 1.495 . S
C1493 H1499 0.959 . S
C1493 H1500 0.961 . S
C1493 H1501 0.960 . S
C1494 C1492 1.381 . S
C1494 C1495 1.394 . S
C1494 H1502 0.930 . S
C1495 C1494 1.394 . S
C1495 C1496 1.383 . S
C1495 H1503 0.929 . S
C1496 C1495 1.383 . S
C1496 C1497 1.377 . S
C1497 H1481 0.930 . S
C1497 C1496 1.377 . S
C1497 C1498 1.379 . S
C1498 H1482 0.931 . S
C1498 C1492 1.383 . S
C1498 C1497 1.379 . S
H1499 C1493 0.959 . S
H1500 C1493 0.961 . S
H1501 C1493 0.960 . S
H1502 C1494 0.930 . S
H1503 C1495 0.929 . S
H1504 C1512 0.929 . S
H1505 C1514 0.930 . S
H1506 C1516 0.930 . S
H1507 C1519 0.929 . S
H1508 C1522 0.930 . S
H1509 C1524 0.960 . S
H1510 C1524 0.960 . S
H1511 C1524 0.960 . S
C1512 H1504 0.929 . S
C1512 C1513 1.377 . S
C1512 C1514 1.384 . S
C1513 C1512 1.377 . S
C1513 C1519 1.390 . S
C1514 H1505 0.930 . S
C1514 C1512 1.384 . S
C1514 C1515 1.372 . S
C1515 C1514 1.372 . S
C1515 C1516 1.400 . S
C1515 C1520 1.490 . S
C1516 H1506 0.930 . S
C1516 C1515 1.400 . S
C1516 C1519 1.386 . S
H1517 C1533 0.930 . S
H1518 C1534 0.931 . S
C1519 H1507 0.929 . S
C1519 C1513 1.390 . S
C1519 C1516 1.386 . S
C1520 C1515 1.490 . S
C1520 C1522 1.395 . S
C1520 C1523 1.403 . S
H1521 C1527 0.930 . S
C1522 H1508 0.930 . S
C1522 C1520 1.395 . S
C1522 C1525 1.403 . S
C1523 C1520 1.403 . S
C1523 C1524 1.524 . S
C1523 C1527 1.400 . S
C1524 H1509 0.960 . S
C1524 H1510 0.960 . S
C1524 H1511 0.960 . S
C1524 C1523 1.524 . S
C1525 C1522 1.403 . S
C1525 C1526 1.392 . S
C1525 C1529 1.495 . S
C1526 C1525 1.392 . S
C1526 C1527 1.385 . S
C1526 C1528 1.478 . S
C1527 H1521 0.930 . S
C1527 C1523 1.400 . S
C1527 C1526 1.385 . S
C1528 C1526 1.478 . S
C1528 C1530 1.381 . S
C1528 C1534 1.383 . S
C1529 C1525 1.495 . S
C1529 H1535 0.959 . S
C1529 H1536 0.961 . S
C1529 H1537 0.960 . S
C1530 C1528 1.381 . S
C1530 C1531 1.394 . S
C1530 H1538 0.930 . S
C1531 C1530 1.394 . S
C1531 C1532 1.383 . S
C1531 H1539 0.929 . S
C1532 C1531 1.383 . S
C1532 C1533 1.377 . S
C1533 H1517 0.930 . S
C1533 C1532 1.377 . S
C1533 C1534 1.379 . S
C1534 H1518 0.931 . S
C1534 C1528 1.383 . S
C1534 C1533 1.379 . S
H1535 C1529 0.959 . S
H1536 C1529 0.961 . S
H1537 C1529 0.960 . S
H1538 C1530 0.930 . S
H1539 C1531 0.929 . S
H1540 C1548 0.929 . S
H1541 C1550 0.930 . S
H1542 C1552 0.930 . S
H1543 C1555 0.929 . S
H1544 C1558 0.930 . S
H1545 C1560 0.960 . S
H1546 C1560 0.960 . S
H1547 C1560 0.960 . S
C1548 H1540 0.929 . S
C1548 C1549 1.377 . S
C1548 C1550 1.384 . S
C1549 C1548 1.377 . S
C1549 C1555 1.390 . S
C1550 H1541 0.930 . S
C1550 C1548 1.384 . S
C1550 C1551 1.372 . S
C1551 C1550 1.372 . S
C1551 C1552 1.400 . S
C1551 C1556 1.490 . S
C1552 H1542 0.930 . S
C1552 C1551 1.400 . S
C1552 C1555 1.386 . S
H1553 C1569 0.930 . S
H1554 C1570 0.931 . S
C1555 H1543 0.929 . S
C1555 C1549 1.390 . S
C1555 C1552 1.386 . S
C1556 C1551 1.490 . S
C1556 C1558 1.395 . S
C1556 C1559 1.403 . S
H1557 C1563 0.930 . S
C1558 H1544 0.930 . S
C1558 C1556 1.395 . S
C1558 C1561 1.403 . S
C1559 C1556 1.403 . S
C1559 C1560 1.524 . S
C1559 C1563 1.400 . S
C1560 H1545 0.960 . S
C1560 H1546 0.960 . S
C1560 H1547 0.960 . S
C1560 C1559 1.524 . S
C1561 C1558 1.403 . S
C1561 C1562 1.392 . S
C1561 C1565 1.495 . S
C1562 C1561 1.392 . S
C1562 C1563 1.385 . S
C1562 C1564 1.478 . S
C1563 H1557 0.930 . S
C1563 C1559 1.400 . S
C1563 C1562 1.385 . S
C1564 C1562 1.478 . S
C1564 C1566 1.381 . S
C1564 C1570 1.383 . S
C1565 C1561 1.495 . S
C1565 H1571 0.959 . S
C1565 H1572 0.961 . S
C1565 H1573 0.960 . S
C1566 C1564 1.381 . S
C1566 C1567 1.394 . S
C1566 H1574 0.930 . S
C1567 C1566 1.394 . S
C1567 C1568 1.383 . S
C1567 H1575 0.929 . S
C1568 C1567 1.383 . S
C1568 C1569 1.377 . S
C1569 H1553 0.930 . S
C1569 C1568 1.377 . S
C1569 C1570 1.379 . S
C1570 H1554 0.931 . S
C1570 C1564 1.383 . S
C1570 C1569 1.379 . S
H1571 C1565 0.959 . S
H1572 C1565 0.961 . S
H1573 C1565 0.960 . S
H1574 C1566 0.930 . S
H1575 C1567 0.929 . S
H1576 C1584 0.929 . S
H1577 C1586 0.930 . S
H1578 C1588 0.930 . S
H1579 C1591 0.929 . S
H1580 C1594 0.930 . S
H1581 C1596 0.960 . S
H1582 C1596 0.960 . S
H1583 C1596 0.960 . S
C1584 H1576 0.929 . S
C1584 C1585 1.377 . S
C1584 C1586 1.384 . S
C1585 C1584 1.377 . S
C1585 C1591 1.390 . S
C1586 H1577 0.930 . S
C1586 C1584 1.384 . S
C1586 C1587 1.372 . S
C1587 C1586 1.372 . S
C1587 C1588 1.400 . S
C1587 C1592 1.490 . S
C1588 H1578 0.930 . S
C1588 C1587 1.400 . S
C1588 C1591 1.386 . S
H1589 C1605 0.930 . S
H1590 C1606 0.931 . S
C1591 H1579 0.929 . S
C1591 C1585 1.390 . S
C1591 C1588 1.386 . S
C1592 C1587 1.490 . S
C1592 C1594 1.395 . S
C1592 C1595 1.403 . S
H1593 C1599 0.930 . S
C1594 H1580 0.930 . S
C1594 C1592 1.395 . S
C1594 C1597 1.403 . S
C1595 C1592 1.403 . S
C1595 C1596 1.524 . S
C1595 C1599 1.400 . S
C1596 H1581 0.960 . S
C1596 H1582 0.960 . S
C1596 H1583 0.960 . S
C1596 C1595 1.524 . S
C1597 C1594 1.403 . S
C1597 C1598 1.392 . S
C1597 C1601 1.495 . S
C1598 C1597 1.392 . S
C1598 C1599 1.385 . S
C1598 C1600 1.478 . S
C1599 H1593 0.930 . S
C1599 C1595 1.400 . S
C1599 C1598 1.385 . S
C1600 C1598 1.478 . S
C1600 C1602 1.381 . S
C1600 C1606 1.383 . S
C1601 C1597 1.495 . S
C1601 H1607 0.959 . S
C1601 H1608 0.961 . S
C1601 H1609 0.960 . S
C1602 C1600 1.381 . S
C1602 C1603 1.394 . S
C1602 H1610 0.930 . S
C1603 C1602 1.394 . S
C1603 C1604 1.383 . S
C1603 H1611 0.929 . S
C1604 C1603 1.383 . S
C1604 C1605 1.377 . S
C1605 H1589 0.930 . S
C1605 C1604 1.377 . S
C1605 C1606 1.379 . S
C1606 H1590 0.931 . S
C1606 C1600 1.383 . S
C1606 C1605 1.379 . S
H1607 C1601 0.959 . S
H1608 C1601 0.961 . S
H1609 C1601 0.960 . S
H1610 C1602 0.930 . S
H1611 C1603 0.929 . S
H1612 C1620 0.929 . S
H1613 C1622 0.930 . S
H1614 C1624 0.930 . S
H1615 C1627 0.929 . S
H1616 C1630 0.930 . S
H1617 C1632 0.960 . S
H1618 C1632 0.960 . S
H1619 C1632 0.960 . S
C1620 H1612 0.929 . S
C1620 C1621 1.377 . S
C1620 C1622 1.384 . S
C1621 C1620 1.377 . S
C1621 C1627 1.390 . S
C1622 H1613 0.930 . S
C1622 C1620 1.384 . S
C1622 C1623 1.372 . S
C1623 C1622 1.372 . S
C1623 C1624 1.400 . S
C1623 C1628 1.490 . S
C1624 H1614 0.930 . S
C1624 C1623 1.400 . S
C1624 C1627 1.386 . S
H1625 C1641 0.930 . S
H1626 C1642 0.931 . S
C1627 H1615 0.929 . S
C1627 C1621 1.390 . S
C1627 C1624 1.386 . S
C1628 C1623 1.490 . S
C1628 C1630 1.395 . S
C1628 C1631 1.403 . S
H1629 C1635 0.930 . S
C1630 H1616 0.930 . S
C1630 C1628 1.395 . S
C1630 C1633 1.403 . S
C1631 C1628 1.403 . S
C1631 C1632 1.524 . S
C1631 C1635 1.400 . S
C1632 H1617 0.960 . S
C1632 H1618 0.960 . S
C1632 H1619 0.960 . S
C1632 C1631 1.524 . S
C1633 C1630 1.403 . S
C1633 C1634 1.392 . S
C1633 C1637 1.495 . S
C1634 C1633 1.392 . S
C1634 C1635 1.385 . S
C1634 C1636 1.478 . S
C1635 H1629 0.930 . S
C1635 C1631 1.400 . S
C1635 C1634 1.385 . S
C1636 C1634 1.478 . S
C1636 C1638 1.381 . S
C1636 C1642 1.383 . S
C1637 C1633 1.495 . S
C1637 H1643 0.959 . S
C1637 H1644 0.961 . S
C1637 H1645 0.960 . S
C1638 C1636 1.381 . S
C1638 C1639 1.394 . S
C1638 H1646 0.930 . S
C1639 C1638 1.394 . S
C1639 C1640 1.383 . S
C1639 H1647 0.929 . S
C1640 C1639 1.383 . S
C1640 C1641 1.377 . S
C1641 H1625 0.930 . S
C1641 C1640 1.377 . S
C1641 C1642 1.379 . S
C1642 H1626 0.931 . S
C1642 C1636 1.383 . S
C1642 C1641 1.379 . S
H1643 C1637 0.959 . S
H1644 C1637 0.961 . S
H1645 C1637 0.960 . S
H1646 C1638 0.930 . S
H1647 C1639 0.929 . S
H1648 C1656 0.929 1_455 S
H1649 C1658 0.930 . S
H1650 C1660 0.930 . S
H1651 C1663 0.929 . S
H1652 C1666 0.930 . S
H1653 C1668 0.960 . S
H1654 C1668 0.960 . S
H1655 C1668 0.960 . S
C1656 H1648 0.929 1_655 S
C1656 C1657 1.377 . S
C1656 C1658 1.384 . S
C1657 C1656 1.377 . S
C1657 C1663 1.390 . S
C1658 H1649 0.930 . S
C1658 C1656 1.384 . S
C1658 C1659 1.372 . S
C1659 C1658 1.372 . S
C1659 C1660 1.400 . S
C1659 C1664 1.490 . S
C1660 H1650 0.930 . S
C1660 C1659 1.400 . S
C1660 C1663 1.386 . S
H1661 C1677 0.930 . S
H1662 C1678 0.931 . S
C1663 H1651 0.929 . S
C1663 C1657 1.390 . S
C1663 C1660 1.386 . S
C1664 C1659 1.490 . S
C1664 C1666 1.395 . S
C1664 C1667 1.403 . S
H1665 C1671 0.930 . S
C1666 H1652 0.930 . S
C1666 C1664 1.395 . S
C1666 C1669 1.403 . S
C1667 C1664 1.403 . S
C1667 C1668 1.524 . S
C1667 C1671 1.400 . S
C1668 H1653 0.960 . S
C1668 H1654 0.960 . S
C1668 H1655 0.960 . S
C1668 C1667 1.524 . S
C1669 C1666 1.403 . S
C1669 C1670 1.392 . S
C1669 C1673 1.495 . S
C1670 C1669 1.392 . S
C1670 C1671 1.385 . S
C1670 C1672 1.478 . S
C1671 H1665 0.930 . S
C1671 C1667 1.400 . S
C1671 C1670 1.385 . S
C1672 C1670 1.478 . S
C1672 C1674 1.381 . S
C1672 C1678 1.383 . S
C1673 C1669 1.495 . S
C1673 H1679 0.959 . S
C1673 H1680 0.961 . S
C1673 H1681 0.960 . S
C1674 C1672 1.381 . S
C1674 C1675 1.394 . S
C1674 H1682 0.930 . S
C1675 C1674 1.394 . S
C1675 C1676 1.383 . S
C1675 H1683 0.929 . S
C1676 C1675 1.383 . S
C1676 C1677 1.377 . S
C1677 H1661 0.930 . S
C1677 C1676 1.377 . S
C1677 C1678 1.379 . S
C1678 H1662 0.931 . S
C1678 C1672 1.383 . S
C1678 C1677 1.379 . S
H1679 C1673 0.959 . S
H1680 C1673 0.961 . S
H1681 C1673 0.960 . S
H1682 C1674 0.930 . S
H1683 C1675 0.929 . S
H1684 C1692 0.929 . S
H1685 C1694 0.930 . S
H1686 C1696 0.930 . S
H1687 C1699 0.929 . S
H1688 C1702 0.930 . S
H1689 C1704 0.960 . S
H1690 C1704 0.960 . S
H1691 C1704 0.960 . S
C1692 H1684 0.929 . S
C1692 C1693 1.377 . S
C1692 C1694 1.384 . S
C1693 C1692 1.377 . S
C1693 C1699 1.390 . S
C1694 H1685 0.930 . S
C1694 C1692 1.384 . S
C1694 C1695 1.372 . S
C1695 C1694 1.372 . S
C1695 C1696 1.400 . S
C1695 C1700 1.490 . S
C1696 H1686 0.930 . S
C1696 C1695 1.400 . S
C1696 C1699 1.386 . S
H1697 C1713 0.930 1_554 S
H1698 C1714 0.931 . S
C1699 H1687 0.929 . S
C1699 C1693 1.390 . S
C1699 C1696 1.386 . S
C1700 C1695 1.490 . S
C1700 C1702 1.395 . S
C1700 C1703 1.403 . S
H1701 C1707 0.930 . S
C1702 H1688 0.930 . S
C1702 C1700 1.395 . S
C1702 C1705 1.403 . S
C1703 C1700 1.403 . S
C1703 C1704 1.524 . S
C1703 C1707 1.400 . S
C1704 H1689 0.960 . S
C1704 H1690 0.960 . S
C1704 H1691 0.960 . S
C1704 C1703 1.524 . S
C1705 C1702 1.403 . S
C1705 C1706 1.392 . S
C1705 C1709 1.495 . S
C1706 C1705 1.392 . S
C1706 C1707 1.385 . S
C1706 C1708 1.478 . S
C1707 H1701 0.930 . S
C1707 C1703 1.400 . S
C1707 C1706 1.385 . S
C1708 C1706 1.478 . S
C1708 C1710 1.381 . S
C1708 C1714 1.383 . S
C1709 C1705 1.495 . S
C1709 H1715 0.959 . S
C1709 H1716 0.961 . S
C1709 H1717 0.960 . S
C1710 C1708 1.381 . S
C1710 C1711 1.394 . S
C1710 H1718 0.930 . S
C1711 C1710 1.394 . S
C1711 C1712 1.383 . S
C1711 H1719 0.929 . S
C1712 C1711 1.383 . S
C1712 C1713 1.377 . S
C1713 H1697 0.930 1_556 S
C1713 C1712 1.377 . S
C1713 C1714 1.379 . S
C1714 H1698 0.931 . S
C1714 C1708 1.383 . S
C1714 C1713 1.379 . S
H1715 C1709 0.959 . S
H1716 C1709 0.961 . S
H1717 C1709 0.960 . S
H1718 C1710 0.930 . S
H1719 C1711 0.929 . S
H1720 C1728 0.929 . S
H1721 C1730 0.930 . S
H1722 C1732 0.930 . S
H1723 C1735 0.929 . S
H1724 C1738 0.930 . S
H1725 C1740 0.960 . S
H1726 C1740 0.960 . S
H1727 C1740 0.960 . S
C1728 H1720 0.929 . S
C1728 C1729 1.377 . S
C1728 C1730 1.384 . S
C1729 C1728 1.377 . S
C1729 C1735 1.390 . S
C1730 H1721 0.930 . S
C1730 C1728 1.384 . S
C1730 C1731 1.372 . S
C1731 C1730 1.372 . S
C1731 C1732 1.400 . S
C1731 C1736 1.490 . S
C1732 H1722 0.930 . S
C1732 C1731 1.400 . S
C1732 C1735 1.386 . S
H1733 C1749 0.930 . S
H1734 C1750 0.931 . S
C1735 H1723 0.929 . S
C1735 C1729 1.390 . S
C1735 C1732 1.386 . S
C1736 C1731 1.490 . S
C1736 C1738 1.395 . S
C1736 C1739 1.403 . S
H1737 C1743 0.930 . S
C1738 H1724 0.930 . S
C1738 C1736 1.395 . S
C1738 C1741 1.403 . S
C1739 C1736 1.403 . S
C1739 C1740 1.524 . S
C1739 C1743 1.400 . S
C1740 H1725 0.960 . S
C1740 H1726 0.960 . S
C1740 H1727 0.960 . S
C1740 C1739 1.524 . S
C1741 C1738 1.403 . S
C1741 C1742 1.392 . S
C1741 C1745 1.495 . S
C1742 C1741 1.392 . S
C1742 C1743 1.385 . S
C1742 C1744 1.478 . S
C1743 H1737 0.930 . S
C1743 C1739 1.400 . S
C1743 C1742 1.385 . S
C1744 C1742 1.478 . S
C1744 C1746 1.381 . S
C1744 C1750 1.383 . S
C1745 C1741 1.495 . S
C1745 H1751 0.959 . S
C1745 H1752 0.961 . S
C1745 H1753 0.960 . S
C1746 C1744 1.381 . S
C1746 C1747 1.394 . S
C1746 H1754 0.930 . S
C1747 C1746 1.394 . S
C1747 C1748 1.383 . S
C1747 H1755 0.929 . S
C1748 C1747 1.383 . S
C1748 C1749 1.377 . S
C1749 H1733 0.930 . S
C1749 C1748 1.377 . S
C1749 C1750 1.379 . S
C1750 H1734 0.931 . S
C1750 C1744 1.383 . S
C1750 C1749 1.379 . S
H1751 C1745 0.959 . S
H1752 C1745 0.961 . S
H1753 C1745 0.960 . S
H1754 C1746 0.930 . S
H1755 C1747 0.929 . S
H1756 C1764 0.929 . S
H1757 C1766 0.930 . S
H1758 C1768 0.930 . S
H1759 C1771 0.929 . S
H1760 C1774 0.930 . S
H1761 C1776 0.960 . S
H1762 C1776 0.960 . S
H1763 C1776 0.960 . S
C1764 H1756 0.929 . S
C1764 C1765 1.377 . S
C1764 C1766 1.384 . S
C1765 C1764 1.377 . S
C1765 C1771 1.390 . S
C1766 H1757 0.930 . S
C1766 C1764 1.384 . S
C1766 C1767 1.372 . S
C1767 C1766 1.372 . S
C1767 C1768 1.400 . S
C1767 C1772 1.490 . S
C1768 H1758 0.930 . S
C1768 C1767 1.400 . S
C1768 C1771 1.386 . S
H1769 C1785 0.930 . S
H1770 C1786 0.931 . S
C1771 H1759 0.929 . S
C1771 C1765 1.390 . S
C1771 C1768 1.386 . S
C1772 C1767 1.490 . S
C1772 C1774 1.395 . S
C1772 C1775 1.403 . S
H1773 C1779 0.930 . S
C1774 H1760 0.930 . S
C1774 C1772 1.395 . S
C1774 C1777 1.403 . S
C1775 C1772 1.403 . S
C1775 C1776 1.524 . S
C1775 C1779 1.400 . S
C1776 H1761 0.960 . S
C1776 H1762 0.960 . S
C1776 H1763 0.960 . S
C1776 C1775 1.524 . S
C1777 C1774 1.403 . S
C1777 C1778 1.392 . S
C1777 C1781 1.495 . S
C1778 C1777 1.392 . S
C1778 C1779 1.385 . S
C1778 C1780 1.478 . S
C1779 H1773 0.930 . S
C1779 C1775 1.400 . S
C1779 C1778 1.385 . S
C1780 C1778 1.478 . S
C1780 C1782 1.381 . S
C1780 C1786 1.383 . S
C1781 C1777 1.495 . S
C1781 H1787 0.959 . S
C1781 H1788 0.961 . S
C1781 H1789 0.960 . S
C1782 C1780 1.381 . S
C1782 C1783 1.394 . S
C1782 H1790 0.930 . S
C1783 C1782 1.394 . S
C1783 C1784 1.383 . S
C1783 H1791 0.929 . S
C1784 C1783 1.383 . S
C1784 C1785 1.377 . S
C1785 H1769 0.930 . S
C1785 C1784 1.377 . S
C1785 C1786 1.379 . S
C1786 H1770 0.931 . S
C1786 C1780 1.383 . S
C1786 C1785 1.379 . S
H1787 C1781 0.959 . S
H1788 C1781 0.961 . S
H1789 C1781 0.960 . S
H1790 C1782 0.930 . S
H1791 C1783 0.929 . S
H1792 C1800 0.929 . S
H1793 C1802 0.930 . S
H1794 C1804 0.930 . S
H1795 C1807 0.929 . S
H1796 C1810 0.930 . S
H1797 C1812 0.960 . S
H1798 C1812 0.960 . S
H1799 C1812 0.960 . S
C1800 H1792 0.929 . S
C1800 C1801 1.377 . S
C1800 C1802 1.384 . S
C1801 C1800 1.377 . S
C1801 C1807 1.390 . S
C1802 H1793 0.930 . S
C1802 C1800 1.384 . S
C1802 C1803 1.372 . S
C1803 C1802 1.372 . S
C1803 C1804 1.400 . S
C1803 C1808 1.490 . S
C1804 H1794 0.930 . S
C1804 C1803 1.400 . S
C1804 C1807 1.386 . S
H1805 C1821 0.930 . S
H1806 C1822 0.931 . S
C1807 H1795 0.929 . S
C1807 C1801 1.390 . S
C1807 C1804 1.386 . S
C1808 C1803 1.490 . S
C1808 C1810 1.395 . S
C1808 C1811 1.403 . S
H1809 C1815 0.930 . S
C1810 H1796 0.930 . S
C1810 C1808 1.395 . S
C1810 C1813 1.403 . S
C1811 C1808 1.403 . S
C1811 C1812 1.524 . S
C1811 C1815 1.400 . S
C1812 H1797 0.960 . S
C1812 H1798 0.960 . S
C1812 H1799 0.960 . S
C1812 C1811 1.524 . S
C1813 C1810 1.403 . S
C1813 C1814 1.392 . S
C1813 C1817 1.495 . S
C1814 C1813 1.392 . S
C1814 C1815 1.385 . S
C1814 C1816 1.478 . S
C1815 H1809 0.930 . S
C1815 C1811 1.400 . S
C1815 C1814 1.385 . S
C1816 C1814 1.478 . S
C1816 C1818 1.381 . S
C1816 C1822 1.383 . S
C1817 C1813 1.495 . S
C1817 H1823 0.959 . S
C1817 H1824 0.961 . S
C1817 H1825 0.960 . S
C1818 C1816 1.381 . S
C1818 C1819 1.394 . S
C1818 H1826 0.930 . S
C1819 C1818 1.394 . S
C1819 C1820 1.383 . S
C1819 H1827 0.929 . S
C1820 C1819 1.383 . S
C1820 C1821 1.377 . S
C1821 H1805 0.930 . S
C1821 C1820 1.377 . S
C1821 C1822 1.379 . S
C1822 H1806 0.931 . S
C1822 C1816 1.383 . S
C1822 C1821 1.379 . S
H1823 C1817 0.959 . S
H1824 C1817 0.961 . S
H1825 C1817 0.960 . S
H1826 C1818 0.930 . S
H1827 C1819 0.929 . S
H1828 C1836 0.929 . S
H1829 C1838 0.930 . S
H1830 C1840 0.930 . S
H1831 C1843 0.929 . S
H1832 C1846 0.930 . S
H1833 C1848 0.960 . S
H1834 C1848 0.960 . S
H1835 C1848 0.960 . S
C1836 H1828 0.929 . S
C1836 C1837 1.377 . S
C1836 C1838 1.384 . S
C1837 C1836 1.377 . S
C1837 C1843 1.390 . S
C1838 H1829 0.930 . S
C1838 C1836 1.384 . S
C1838 C1839 1.372 . S
C1839 C1838 1.372 . S
C1839 C1840 1.400 . S
C1839 C1844 1.490 . S
C1840 H1830 0.930 . S
C1840 C1839 1.400 . S
C1840 C1843 1.386 . S
H1841 C1857 0.930 . S
H1842 C1858 0.931 . S
C1843 H1831 0.929 . S
C1843 C1837 1.390 . S
C1843 C1840 1.386 . S
C1844 C1839 1.490 . S
C1844 C1846 1.395 . S
C1844 C1847 1.403 . S
H1845 C1851 0.930 . S
C1846 H1832 0.930 . S
C1846 C1844 1.395 . S
C1846 C1849 1.403 . S
C1847 C1844 1.403 . S
C1847 C1848 1.524 . S
C1847 C1851 1.400 . S
C1848 H1833 0.960 . S
C1848 H1834 0.960 . S
C1848 H1835 0.960 . S
C1848 C1847 1.524 . S
C1849 C1846 1.403 . S
C1849 C1850 1.392 . S
C1849 C1853 1.495 . S
C1850 C1849 1.392 . S
C1850 C1851 1.385 . S
C1850 C1852 1.478 . S
C1851 H1845 0.930 . S
C1851 C1847 1.400 . S
C1851 C1850 1.385 . S
C1852 C1850 1.478 . S
C1852 C1854 1.381 . S
C1852 C1858 1.383 . S
C1853 C1849 1.495 . S
C1853 H1859 0.959 . S
C1853 H1860 0.961 . S
C1853 H1861 0.960 . S
C1854 C1852 1.381 . S
C1854 C1855 1.394 . S
C1854 H1862 0.930 . S
C1855 C1854 1.394 . S
C1855 C1856 1.383 . S
C1855 H1863 0.929 . S
C1856 C1855 1.383 . S
C1856 C1857 1.377 . S
C1857 H1841 0.930 . S
C1857 C1856 1.377 . S
C1857 C1858 1.379 . S
C1858 H1842 0.931 . S
C1858 C1852 1.383 . S
C1858 C1857 1.379 . S
H1859 C1853 0.959 . S
H1860 C1853 0.961 . S
H1861 C1853 0.960 . S
H1862 C1854 0.930 . S
H1863 C1855 0.929 . S
H1864 C1872 0.929 . S
H1865 C1874 0.930 . S
H1866 C1876 0.930 . S
H1867 C1879 0.929 . S
H1868 C1882 0.930 . S
H1869 C1884 0.960 . S
H1870 C1884 0.960 . S
H1871 C1884 0.960 . S
C1872 H1864 0.929 . S
C1872 C1873 1.377 . S
C1872 C1874 1.384 . S
C1873 C1872 1.377 . S
C1873 C1879 1.390 . S
C1874 H1865 0.930 . S
C1874 C1872 1.384 . S
C1874 C1875 1.372 . S
C1875 C1874 1.372 . S
C1875 C1876 1.400 . S
C1875 C1880 1.490 . S
C1876 H1866 0.930 . S
C1876 C1875 1.400 . S
C1876 C1879 1.386 . S
H1877 C1893 0.930 . S
H1878 C1894 0.931 . S
C1879 H1867 0.929 . S
C1879 C1873 1.390 . S
C1879 C1876 1.386 . S
C1880 C1875 1.490 . S
C1880 C1882 1.395 . S
C1880 C1883 1.403 . S
H1881 C1887 0.930 . S
C1882 H1868 0.930 . S
C1882 C1880 1.395 . S
C1882 C1885 1.403 . S
C1883 C1880 1.403 . S
C1883 C1884 1.524 . S
C1883 C1887 1.400 . S
C1884 H1869 0.960 . S
C1884 H1870 0.960 . S
C1884 H1871 0.960 . S
C1884 C1883 1.524 . S
C1885 C1882 1.403 . S
C1885 C1886 1.392 . S
C1885 C1889 1.495 . S
C1886 C1885 1.392 . S
C1886 C1887 1.385 . S
C1886 C1888 1.478 . S
C1887 H1881 0.930 . S
C1887 C1883 1.400 . S
C1887 C1886 1.385 . S
C1888 C1886 1.478 . S
C1888 C1890 1.381 . S
C1888 C1894 1.383 . S
C1889 C1885 1.495 . S
C1889 H1895 0.959 . S
C1889 H1896 0.961 . S
C1889 H1897 0.960 . S
C1890 C1888 1.381 . S
C1890 C1891 1.394 . S
C1890 H1898 0.930 . S
C1891 C1890 1.394 . S
C1891 C1892 1.383 . S
C1891 H1899 0.929 . S
C1892 C1891 1.383 . S
C1892 C1893 1.377 . S
C1893 H1877 0.930 . S
C1893 C1892 1.377 . S
C1893 C1894 1.379 . S
C1894 H1878 0.931 . S
C1894 C1888 1.383 . S
C1894 C1893 1.379 . S
H1895 C1889 0.959 . S
H1896 C1889 0.961 . S
H1897 C1889 0.960 . S
H1898 C1890 0.930 . S
H1899 C1891 0.929 . S
H1900 C1908 0.929 . S
H1901 C1910 0.930 . S
H1902 C1912 0.930 . S
H1903 C1915 0.929 . S
H1904 C1918 0.930 . S
H1905 C1920 0.960 . S
H1906 C1920 0.960 . S
H1907 C1920 0.960 . S
C1908 H1900 0.929 . S
C1908 C1909 1.377 . S
C1908 C1910 1.384 . S
C1909 C1908 1.377 . S
C1909 C1915 1.390 . S
C1910 H1901 0.930 . S
C1910 C1908 1.384 . S
C1910 C1911 1.372 . S
C1911 C1910 1.372 . S
C1911 C1912 1.400 . S
C1911 C1916 1.490 . S
C1912 H1902 0.930 . S
C1912 C1911 1.400 . S
C1912 C1915 1.386 . S
H1913 C1929 0.930 . S
H1914 C1930 0.931 . S
C1915 H1903 0.929 . S
C1915 C1909 1.390 . S
C1915 C1912 1.386 . S
C1916 C1911 1.490 . S
C1916 C1918 1.395 . S
C1916 C1919 1.403 . S
H1917 C1923 0.930 . S
C1918 H1904 0.930 . S
C1918 C1916 1.395 . S
C1918 C1921 1.403 . S
C1919 C1916 1.403 . S
C1919 C1920 1.524 . S
C1919 C1923 1.400 . S
C1920 H1905 0.960 . S
C1920 H1906 0.960 . S
C1920 H1907 0.960 . S
C1920 C1919 1.524 . S
C1921 C1918 1.403 . S
C1921 C1922 1.392 . S
C1921 C1925 1.495 . S
C1922 C1921 1.392 . S
C1922 C1923 1.385 . S
C1922 C1924 1.478 . S
C1923 H1917 0.930 . S
C1923 C1919 1.400 . S
C1923 C1922 1.385 . S
C1924 C1922 1.478 . S
C1924 C1926 1.381 . S
C1924 C1930 1.383 . S
C1925 C1921 1.495 . S
C1925 H1931 0.959 . S
C1925 H1932 0.961 . S
C1925 H1933 0.960 . S
C1926 C1924 1.381 . S
C1926 C1927 1.394 . S
C1926 H1934 0.930 . S
C1927 C1926 1.394 . S
C1927 C1928 1.383 . S
C1927 H1935 0.929 . S
C1928 C1927 1.383 . S
C1928 C1929 1.377 . S
C1929 H1913 0.930 . S
C1929 C1928 1.377 . S
C1929 C1930 1.379 . S
C1930 H1914 0.931 . S
C1930 C1924 1.383 . S
C1930 C1929 1.379 . S
H1931 C1925 0.959 . S
H1932 C1925 0.961 . S
H1933 C1925 0.960 . S
H1934 C1926 0.930 . S
H1935 C1927 0.929 . S
H1936 C1944 0.929 . S
H1937 C1946 0.930 . S
H1938 C1948 0.930 . S
H1939 C1951 0.929 . S
H1940 C1954 0.930 . S
H1941 C1956 0.960 . S
H1942 C1956 0.960 . S
H1943 C1956 0.960 . S
C1944 H1936 0.929 . S
C1944 C1945 1.377 . S
C1944 C1946 1.384 . S
C1945 C1944 1.377 . S
C1945 C1951 1.390 . S
C1946 H1937 0.930 . S
C1946 C1944 1.384 . S
C1946 C1947 1.372 . S
C1947 C1946 1.372 . S
C1947 C1948 1.400 . S
C1947 C1952 1.490 . S
C1948 H1938 0.930 . S
C1948 C1947 1.400 . S
C1948 C1951 1.386 . S
H1949 C1965 0.930 . S
H1950 C1966 0.931 . S
C1951 H1939 0.929 . S
C1951 C1945 1.390 . S
C1951 C1948 1.386 . S
C1952 C1947 1.490 . S
C1952 C1954 1.395 . S
C1952 C1955 1.403 . S
H1953 C1959 0.930 . S
C1954 H1940 0.930 . S
C1954 C1952 1.395 . S
C1954 C1957 1.403 . S
C1955 C1952 1.403 . S
C1955 C1956 1.524 . S
C1955 C1959 1.400 . S
C1956 H1941 0.960 . S
C1956 H1942 0.960 . S
C1956 H1943 0.960 . S
C1956 C1955 1.524 . S
C1957 C1954 1.403 . S
C1957 C1958 1.392 . S
C1957 C1961 1.495 . S
C1958 C1957 1.392 . S
C1958 C1959 1.385 . S
C1958 C1960 1.478 . S
C1959 H1953 0.930 . S
C1959 C1955 1.400 . S
C1959 C1958 1.385 . S
C1960 C1958 1.478 . S
C1960 C1962 1.381 . S
C1960 C1966 1.383 . S
C1961 C1957 1.495 . S
C1961 H1967 0.959 . S
C1961 H1968 0.961 . S
C1961 H1969 0.960 . S
C1962 C1960 1.381 . S
C1962 C1963 1.394 . S
C1962 H1970 0.930 . S
C1963 C1962 1.394 . S
C1963 C1964 1.383 . S
C1963 H1971 0.929 . S
C1964 C1963 1.383 . S
C1964 C1965 1.377 . S
C1965 H1949 0.930 . S
C1965 C1964 1.377 . S
C1965 C1966 1.379 . S
C1966 H1950 0.931 . S
C1966 C1960 1.383 . S
C1966 C1965 1.379 . S
H1967 C1961 0.959 . S
H1968 C1961 0.961 . S
H1969 C1961 0.960 . S
H1970 C1962 0.930 . S
H1971 C1963 0.929 . S
H1972 C1980 0.929 . S
H1973 C1982 0.930 . S
H1974 C1984 0.930 . S
H1975 C1987 0.929 . S
H1976 C1990 0.930 . S
H1977 C1992 0.960 . S
H1978 C1992 0.960 . S
H1979 C1992 0.960 . S
C1980 H1972 0.929 . S
C1980 C1981 1.377 . S
C1980 C1982 1.384 . S
C1981 C1980 1.377 . S
C1981 C1987 1.390 . S
C1982 H1973 0.930 . S
C1982 C1980 1.384 . S
C1982 C1983 1.372 . S
C1983 C1982 1.372 . S
C1983 C1984 1.400 . S
C1983 C1988 1.490 . S
C1984 H1974 0.930 . S
C1984 C1983 1.400 . S
C1984 C1987 1.386 . S
H1985 C2001 0.930 . S
H1986 C2002 0.931 . S
C1987 H1975 0.929 . S
C1987 C1981 1.390 . S
C1987 C1984 1.386 . S
C1988 C1983 1.490 . S
C1988 C1990 1.395 . S
C1988 C1991 1.403 . S
H1989 C1995 0.930 . S
C1990 H1976 0.930 . S
C1990 C1988 1.395 . S
C1990 C1993 1.403 . S
C1991 C1988 1.403 . S
C1991 C1992 1.524 . S
C1991 C1995 1.400 . S
C1992 H1977 0.960 . S
C1992 H1978 0.960 . S
C1992 H1979 0.960 . S
C1992 C1991 1.524 . S
C1993 C1990 1.403 . S
C1993 C1994 1.392 . S
C1993 C1997 1.495 . S
C1994 C1993 1.392 . S
C1994 C1995 1.385 . S
C1994 C1996 1.478 . S
C1995 H1989 0.930 . S
C1995 C1991 1.400 . S
C1995 C1994 1.385 . S
C1996 C1994 1.478 . S
C1996 C1998 1.381 . S
C1996 C2002 1.383 . S
C1997 C1993 1.495 . S
C1997 H2003 0.959 . S
C1997 H2004 0.961 . S
C1997 H2005 0.960 . S
C1998 C1996 1.381 . S
C1998 C1999 1.394 . S
C1998 H2006 0.930 . S
C1999 C1998 1.394 . S
C1999 C2000 1.383 . S
C1999 H2007 0.929 . S
C2000 C1999 1.383 . S
C2000 C2001 1.377 . S
C2001 H1985 0.930 . S
C2001 C2000 1.377 . S
C2001 C2002 1.379 . S
C2002 H1986 0.931 . S
C2002 C1996 1.383 . S
C2002 C2001 1.379 . S
H2003 C1997 0.959 . S
H2004 C1997 0.961 . S
H2005 C1997 0.960 . S
H2006 C1998 0.930 . S
H2007 C1999 0.929 . S
H2008 C2016 0.929 . S
H2009 C2018 0.930 . S
H2010 C2020 0.930 . S
H2011 C2023 0.929 . S
H2012 C2026 0.930 . S
H2013 C2028 0.960 . S
H2014 C2028 0.960 . S
H2015 C2028 0.960 . S
C2016 H2008 0.929 . S
C2016 C2017 1.377 . S
C2016 C2018 1.384 . S
C2017 C2016 1.377 . S
C2017 C2023 1.390 . S
C2018 H2009 0.930 . S
C2018 C2016 1.384 . S
C2018 C2019 1.372 . S
C2019 C2018 1.372 . S
C2019 C2020 1.400 . S
C2019 C2024 1.490 . S
C2020 H2010 0.930 . S
C2020 C2019 1.400 . S
C2020 C2023 1.386 . S
H2021 C2037 0.930 . S
H2022 C2038 0.931 . S
C2023 H2011 0.929 . S
C2023 C2017 1.390 . S
C2023 C2020 1.386 . S
C2024 C2019 1.490 . S
C2024 C2026 1.395 . S
C2024 C2027 1.403 . S
H2025 C2031 0.930 . S
C2026 H2012 0.930 . S
C2026 C2024 1.395 . S
C2026 C2029 1.403 . S
C2027 C2024 1.403 . S
C2027 C2028 1.524 . S
C2027 C2031 1.400 . S
C2028 H2013 0.960 . S
C2028 H2014 0.960 . S
C2028 H2015 0.960 . S
C2028 C2027 1.524 . S
C2029 C2026 1.403 . S
C2029 C2030 1.392 . S
C2029 C2033 1.495 . S
C2030 C2029 1.392 . S
C2030 C2031 1.385 . S
C2030 C2032 1.478 . S
C2031 H2025 0.930 . S
C2031 C2027 1.400 . S
C2031 C2030 1.385 . S
C2032 C2030 1.478 . S
C2032 C2034 1.381 . S
C2032 C2038 1.383 . S
C2033 C2029 1.495 . S
C2033 H2039 0.959 . S
C2033 H2040 0.961 . S
C2033 H2041 0.960 . S
C2034 C2032 1.381 . S
C2034 C2035 1.394 . S
C2034 H2042 0.930 . S
C2035 C2034 1.394 . S
C2035 C2036 1.383 . S
C2035 H2043 0.929 . S
C2036 C2035 1.383 . S
C2036 C2037 1.377 . S
C2037 H2021 0.930 . S
C2037 C2036 1.377 . S
C2037 C2038 1.379 . S
C2038 H2022 0.931 . S
C2038 C2032 1.383 . S
C2038 C2037 1.379 . S
H2039 C2033 0.959 . S
H2040 C2033 0.961 . S
H2041 C2033 0.960 . S
H2042 C2034 0.930 . S
H2043 C2035 0.929 . S
H2044 C2052 0.929 . S
H2045 C2054 0.930 . S
H2046 C2056 0.930 . S
H2047 C2059 0.929 . S
H2048 C2062 0.930 . S
H2049 C2064 0.960 . S
H2050 C2064 0.960 . S
H2051 C2064 0.960 . S
C2052 H2044 0.929 . S
C2052 C2053 1.377 . S
C2052 C2054 1.384 . S
C2053 C2052 1.377 . S
C2053 C2059 1.390 . S
C2054 H2045 0.930 . S
C2054 C2052 1.384 . S
C2054 C2055 1.372 . S
C2055 C2054 1.372 . S
C2055 C2056 1.400 . S
C2055 C2060 1.490 . S
C2056 H2046 0.930 . S
C2056 C2055 1.400 . S
C2056 C2059 1.386 . S
H2057 C2073 0.930 . S
H2058 C2074 0.931 . S
C2059 H2047 0.929 . S
C2059 C2053 1.390 . S
C2059 C2056 1.386 . S
C2060 C2055 1.490 . S
C2060 C2062 1.395 . S
C2060 C2063 1.403 . S
H2061 C2067 0.930 . S
C2062 H2048 0.930 . S
C2062 C2060 1.395 . S
C2062 C2065 1.403 . S
C2063 C2060 1.403 . S
C2063 C2064 1.524 . S
C2063 C2067 1.400 . S
C2064 H2049 0.960 . S
C2064 H2050 0.960 . S
C2064 H2051 0.960 . S
C2064 C2063 1.524 . S
C2065 C2062 1.403 . S
C2065 C2066 1.392 . S
C2065 C2069 1.495 . S
C2066 C2065 1.392 . S
C2066 C2067 1.385 . S
C2066 C2068 1.478 . S
C2067 H2061 0.930 . S
C2067 C2063 1.400 . S
C2067 C2066 1.385 . S
C2068 C2066 1.478 . S
C2068 C2070 1.381 . S
C2068 C2074 1.383 . S
C2069 C2065 1.495 . S
C2069 H2075 0.959 . S
C2069 H2076 0.961 . S
C2069 H2077 0.960 . S
C2070 C2068 1.381 . S
C2070 C2071 1.394 . S
C2070 H2078 0.930 . S
C2071 C2070 1.394 . S
C2071 C2072 1.383 . S
C2071 H2079 0.929 . S
C2072 C2071 1.383 . S
C2072 C2073 1.377 . S
C2073 H2057 0.930 . S
C2073 C2072 1.377 . S
C2073 C2074 1.379 . S
C2074 H2058 0.931 . S
C2074 C2068 1.383 . S
C2074 C2073 1.379 . S
H2075 C2069 0.959 . S
H2076 C2069 0.961 . S
H2077 C2069 0.960 . S
H2078 C2070 0.930 . S
H2079 C2071 0.929 . S
H2080 C2088 0.929 . S
H2081 C2090 0.930 . S
H2082 C2092 0.930 . S
H2083 C2095 0.929 . S
H2084 C2098 0.930 . S
H2085 C2100 0.960 . S
H2086 C2100 0.960 . S
H2087 C2100 0.960 . S
C2088 H2080 0.929 . S
C2088 C2089 1.377 . S
C2088 C2090 1.384 . S
C2089 C2088 1.377 . S
C2089 C2095 1.390 . S
C2090 H2081 0.930 . S
C2090 C2088 1.384 . S
C2090 C2091 1.372 . S
C2091 C2090 1.372 . S
C2091 C2092 1.400 . S
C2091 C2096 1.490 . S
C2092 H2082 0.930 . S
C2092 C2091 1.400 . S
C2092 C2095 1.386 . S
H2093 C2109 0.930 . S
H2094 C2110 0.931 . S
C2095 H2083 0.929 . S
C2095 C2089 1.390 . S
C2095 C2092 1.386 . S
C2096 C2091 1.490 . S
C2096 C2098 1.395 . S
C2096 C2099 1.403 . S
H2097 C2103 0.930 . S
C2098 H2084 0.930 . S
C2098 C2096 1.395 . S
C2098 C2101 1.403 . S
C2099 C2096 1.403 . S
C2099 C2100 1.524 . S
C2099 C2103 1.400 . S
C2100 H2085 0.960 . S
C2100 H2086 0.960 . S
C2100 H2087 0.960 . S
C2100 C2099 1.524 . S
C2101 C2098 1.403 . S
C2101 C2102 1.392 . S
C2101 C2105 1.495 . S
C2102 C2101 1.392 . S
C2102 C2103 1.385 . S
C2102 C2104 1.478 . S
C2103 H2097 0.930 . S
C2103 C2099 1.400 . S
C2103 C2102 1.385 . S
C2104 C2102 1.478 . S
C2104 C2106 1.381 . S
C2104 C2110 1.383 . S
C2105 C2101 1.495 . S
C2105 H2111 0.959 . S
C2105 H2112 0.961 . S
C2105 H2113 0.960 . S
C2106 C2104 1.381 . S
C2106 C2107 1.394 . S
C2106 H2114 0.930 . S
C2107 C2106 1.394 . S
C2107 C2108 1.383 . S
C2107 H2115 0.929 . S
C2108 C2107 1.383 . S
C2108 C2109 1.377 . S
C2109 H2093 0.930 . S
C2109 C2108 1.377 . S
C2109 C2110 1.379 . S
C2110 H2094 0.931 . S
C2110 C2104 1.383 . S
C2110 C2109 1.379 . S
H2111 C2105 0.959 . S
H2112 C2105 0.961 . S
H2113 C2105 0.960 . S
H2114 C2106 0.930 . S
H2115 C2107 0.929 . S
H2116 C2124 0.929 . S
H2117 C2126 0.930 . S
H2118 C2128 0.930 . S
H2119 C2131 0.929 . S
H2120 C2134 0.930 . S
H2121 C2136 0.960 . S
H2122 C2136 0.960 . S
H2123 C2136 0.960 . S
C2124 H2116 0.929 . S
C2124 C2125 1.377 . S
C2124 C2126 1.384 . S
C2125 C2124 1.377 . S
C2125 C2131 1.390 . S
C2126 H2117 0.930 . S
C2126 C2124 1.384 . S
C2126 C2127 1.372 . S
C2127 C2126 1.372 . S
C2127 C2128 1.400 . S
C2127 C2132 1.490 . S
C2128 H2118 0.930 . S
C2128 C2127 1.400 . S
C2128 C2131 1.386 . S
H2129 C2145 0.930 . S
H2130 C2146 0.931 . S
C2131 H2119 0.929 . S
C2131 C2125 1.390 . S
C2131 C2128 1.386 . S
C2132 C2127 1.490 . S
C2132 C2134 1.395 . S
C2132 C2135 1.403 . S
H2133 C2139 0.930 . S
C2134 H2120 0.930 . S
C2134 C2132 1.395 . S
C2134 C2137 1.403 . S
C2135 C2132 1.403 . S
C2135 C2136 1.524 . S
C2135 C2139 1.400 . S
C2136 H2121 0.960 . S
C2136 H2122 0.960 . S
C2136 H2123 0.960 . S
C2136 C2135 1.524 . S
C2137 C2134 1.403 . S
C2137 C2138 1.392 . S
C2137 C2141 1.495 . S
C2138 C2137 1.392 . S
C2138 C2139 1.385 . S
C2138 C2140 1.478 . S
C2139 H2133 0.930 . S
C2139 C2135 1.400 . S
C2139 C2138 1.385 . S
C2140 C2138 1.478 . S
C2140 C2142 1.381 . S
C2140 C2146 1.383 . S
C2141 C2137 1.495 . S
C2141 H2147 0.959 . S
C2141 H2148 0.961 . S
C2141 H2149 0.960 . S
C2142 C2140 1.381 . S
C2142 C2143 1.394 . S
C2142 H2150 0.930 . S
C2143 C2142 1.394 . S
C2143 C2144 1.383 . S
C2143 H2151 0.929 . S
C2144 C2143 1.383 . S
C2144 C2145 1.377 . S
C2145 H2129 0.930 . S
C2145 C2144 1.377 . S
C2145 C2146 1.379 . S
C2146 H2130 0.931 . S
C2146 C2140 1.383 . S
C2146 C2145 1.379 . S
H2147 C2141 0.959 . S
H2148 C2141 0.961 . S
H2149 C2141 0.960 . S
H2150 C2142 0.930 . S
H2151 C2143 0.929 . S
H2152 C2160 0.929 . S
H2153 C2162 0.930 . S
H2154 C2164 0.930 . S
H2155 C2167 0.929 . S
H2156 C2170 0.930 . S
H2157 C2172 0.960 . S
H2158 C2172 0.960 . S
H2159 C2172 0.960 . S
C2160 H2152 0.929 . S
C2160 C2161 1.377 . S
C2160 C2162 1.384 . S
C2161 C2160 1.377 . S
C2161 C2167 1.390 . S
C2162 H2153 0.930 . S
C2162 C2160 1.384 . S
C2162 C2163 1.372 . S
C2163 C2162 1.372 . S
C2163 C2164 1.400 . S
C2163 C2168 1.490 . S
C2164 H2154 0.930 . S
C2164 C2163 1.400 . S
C2164 C2167 1.386 . S
H2165 C2181 0.930 . S
H2166 C2182 0.931 . S
C2167 H2155 0.929 . S
C2167 C2161 1.390 . S
C2167 C2164 1.386 . S
C2168 C2163 1.490 . S
C2168 C2170 1.395 . S
C2168 C2171 1.403 . S
H2169 C2175 0.930 . S
C2170 H2156 0.930 . S
C2170 C2168 1.395 . S
C2170 C2173 1.403 . S
C2171 C2168 1.403 . S
C2171 C2172 1.524 . S
C2171 C2175 1.400 . S
C2172 H2157 0.960 . S
C2172 H2158 0.960 . S
C2172 H2159 0.960 . S
C2172 C2171 1.524 . S
C2173 C2170 1.403 . S
C2173 C2174 1.392 . S
C2173 C2177 1.495 . S
C2174 C2173 1.392 . S
C2174 C2175 1.385 . S
C2174 C2176 1.478 . S
C2175 H2169 0.930 . S
C2175 C2171 1.400 . S
C2175 C2174 1.385 . S
C2176 C2174 1.478 . S
C2176 C2178 1.381 . S
C2176 C2182 1.383 . S
C2177 C2173 1.495 . S
C2177 H2183 0.959 . S
C2177 H2184 0.961 . S
C2177 H2185 0.960 . S
C2178 C2176 1.381 . S
C2178 C2179 1.394 . S
C2178 H2186 0.930 . S
C2179 C2178 1.394 . S
C2179 C2180 1.383 . S
C2179 H2187 0.929 . S
C2180 C2179 1.383 . S
C2180 C2181 1.377 . S
C2181 H2165 0.930 . S
C2181 C2180 1.377 . S
C2181 C2182 1.379 . S
C2182 H2166 0.931 . S
C2182 C2176 1.383 . S
C2182 C2181 1.379 . S
H2183 C2177 0.959 . S
H2184 C2177 0.961 . S
H2185 C2177 0.960 . S
H2186 C2178 0.930 . S
H2187 C2179 0.929 . S
H2188 C2196 0.929 . S
H2189 C2198 0.930 . S
H2190 C2200 0.930 . S
H2191 C2203 0.929 . S
H2192 C2206 0.930 . S
H2193 C2208 0.960 . S
H2194 C2208 0.960 . S
H2195 C2208 0.960 . S
C2196 H2188 0.929 . S
C2196 C2197 1.377 . S
C2196 C2198 1.384 . S
C2197 C2196 1.377 . S
C2197 C2203 1.390 . S
C2198 H2189 0.930 . S
C2198 C2196 1.384 . S
C2198 C2199 1.372 . S
C2199 C2198 1.372 . S
C2199 C2200 1.400 . S
C2199 C2204 1.490 . S
C2200 H2190 0.930 . S
C2200 C2199 1.400 . S
C2200 C2203 1.386 . S
H2201 C2217 0.930 . S
H2202 C2218 0.931 . S
C2203 H2191 0.929 . S
C2203 C2197 1.390 . S
C2203 C2200 1.386 . S
C2204 C2199 1.490 . S
C2204 C2206 1.395 . S
C2204 C2207 1.403 . S
H2205 C2211 0.930 . S
C2206 H2192 0.930 . S
C2206 C2204 1.395 . S
C2206 C2209 1.403 . S
C2207 C2204 1.403 . S
C2207 C2208 1.524 . S
C2207 C2211 1.400 . S
C2208 H2193 0.960 . S
C2208 H2194 0.960 . S
C2208 H2195 0.960 . S
C2208 C2207 1.524 . S
C2209 C2206 1.403 . S
C2209 C2210 1.392 . S
C2209 C2213 1.495 . S
C2210 C2209 1.392 . S
C2210 C2211 1.385 . S
C2210 C2212 1.478 . S
C2211 H2205 0.930 . S
C2211 C2207 1.400 . S
C2211 C2210 1.385 . S
C2212 C2210 1.478 . S
C2212 C2214 1.381 . S
C2212 C2218 1.383 . S
C2213 C2209 1.495 . S
C2213 H2219 0.959 . S
C2213 H2220 0.961 . S
C2213 H2221 0.960 . S
C2214 C2212 1.381 . S
C2214 C2215 1.394 . S
C2214 H2222 0.930 . S
C2215 C2214 1.394 . S
C2215 C2216 1.383 . S
C2215 H2223 0.929 . S
C2216 C2215 1.383 . S
C2216 C2217 1.377 . S
C2217 H2201 0.930 . S
C2217 C2216 1.377 . S
C2217 C2218 1.379 . S
C2218 H2202 0.931 . S
C2218 C2212 1.383 . S
C2218 C2217 1.379 . S
H2219 C2213 0.959 . S
H2220 C2213 0.961 . S
H2221 C2213 0.960 . S
H2222 C2214 0.930 . S
H2223 C2215 0.929 . S
H2224 C2232 0.929 . S
H2225 C2234 0.930 . S
H2226 C2236 0.930 . S
H2227 C2239 0.929 . S
H2228 C2242 0.930 . S
H2229 C2244 0.960 . S
H2230 C2244 0.960 . S
H2231 C2244 0.960 . S
C2232 H2224 0.929 . S
C2232 C2233 1.377 . S
C2232 C2234 1.384 . S
C2233 C2232 1.377 . S
C2233 C2239 1.390 . S
C2234 H2225 0.930 . S
C2234 C2232 1.384 . S
C2234 C2235 1.372 . S
C2235 C2234 1.372 . S
C2235 C2236 1.400 . S
C2235 C2240 1.490 . S
C2236 H2226 0.930 . S
C2236 C2235 1.400 . S
C2236 C2239 1.386 . S
H2237 C2253 0.930 . S
H2238 C2254 0.931 . S
C2239 H2227 0.929 . S
C2239 C2233 1.390 . S
C2239 C2236 1.386 . S
C2240 C2235 1.490 . S
C2240 C2242 1.395 . S
C2240 C2243 1.403 . S
H2241 C2247 0.930 . S
C2242 H2228 0.930 . S
C2242 C2240 1.395 . S
C2242 C2245 1.403 . S
C2243 C2240 1.403 . S
C2243 C2244 1.524 . S
C2243 C2247 1.400 . S
C2244 H2229 0.960 . S
C2244 H2230 0.960 . S
C2244 H2231 0.960 . S
C2244 C2243 1.524 . S
C2245 C2242 1.403 . S
C2245 C2246 1.392 . S
C2245 C2249 1.495 . S
C2246 C2245 1.392 . S
C2246 C2247 1.385 . S
C2246 C2248 1.478 . S
C2247 H2241 0.930 . S
C2247 C2243 1.400 . S
C2247 C2246 1.385 . S
C2248 C2246 1.478 . S
C2248 C2250 1.381 . S
C2248 C2254 1.383 . S
C2249 C2245 1.495 . S
C2249 H2255 0.959 . S
C2249 H2256 0.961 . S
C2249 H2257 0.960 . S
C2250 C2248 1.381 . S
C2250 C2251 1.394 . S
C2250 H2258 0.930 . S
C2251 C2250 1.394 . S
C2251 C2252 1.383 . S
C2251 H2259 0.929 . S
C2252 C2251 1.383 . S
C2252 C2253 1.377 . S
C2253 H2237 0.930 . S
C2253 C2252 1.377 . S
C2253 C2254 1.379 . S
C2254 H2238 0.931 . S
C2254 C2248 1.383 . S
C2254 C2253 1.379 . S
H2255 C2249 0.959 . S
H2256 C2249 0.961 . S
H2257 C2249 0.960 . S
H2258 C2250 0.930 . S
H2259 C2251 0.929 . S
H2260 C2268 0.929 . S
H2261 C2270 0.930 . S
H2262 C2272 0.930 . S
H2263 C2275 0.929 . S
H2264 C2278 0.930 . S
H2265 C2280 0.960 . S
H2266 C2280 0.960 . S
H2267 C2280 0.960 . S
C2268 H2260 0.929 . S
C2268 C2269 1.377 . S
C2268 C2270 1.384 . S
C2269 C2268 1.377 . S
C2269 C2275 1.390 . S
C2270 H2261 0.930 . S
C2270 C2268 1.384 . S
C2270 C2271 1.372 . S
C2271 C2270 1.372 . S
C2271 C2272 1.400 . S
C2271 C2276 1.490 . S
C2272 H2262 0.930 . S
C2272 C2271 1.400 . S
C2272 C2275 1.386 . S
H2273 C2289 0.930 . S
H2274 C2290 0.931 . S
C2275 H2263 0.929 . S
C2275 C2269 1.390 . S
C2275 C2272 1.386 . S
C2276 C2271 1.490 . S
C2276 C2278 1.395 . S
C2276 C2279 1.403 . S
H2277 C2283 0.930 . S
C2278 H2264 0.930 . S
C2278 C2276 1.395 . S
C2278 C2281 1.403 . S
C2279 C2276 1.403 . S
C2279 C2280 1.524 . S
C2279 C2283 1.400 . S
C2280 H2265 0.960 . S
C2280 H2266 0.960 . S
C2280 H2267 0.960 . S
C2280 C2279 1.524 . S
C2281 C2278 1.403 . S
C2281 C2282 1.392 . S
C2281 C2285 1.495 . S
C2282 C2281 1.392 . S
C2282 C2283 1.385 . S
C2282 C2284 1.478 . S
C2283 H2277 0.930 . S
C2283 C2279 1.400 . S
C2283 C2282 1.385 . S
C2284 C2282 1.478 . S
C2284 C2286 1.381 . S
C2284 C2290 1.383 . S
C2285 C2281 1.495 . S
C2285 H2291 0.959 . S
C2285 H2292 0.961 . S
C2285 H2293 0.960 . S
C2286 C2284 1.381 . S
C2286 C2287 1.394 . S
C2286 H2294 0.930 . S
C2287 C2286 1.394 . S
C2287 C2288 1.383 . S
C2287 H2295 0.929 . S
C2288 C2287 1.383 . S
C2288 C2289 1.377 . S
C2289 H2273 0.930 . S
C2289 C2288 1.377 . S
C2289 C2290 1.379 . S
C2290 H2274 0.931 . S
C2290 C2284 1.383 . S
C2290 C2289 1.379 . S
H2291 C2285 0.959 . S
H2292 C2285 0.961 . S
H2293 C2285 0.960 . S
H2294 C2286 0.930 . S
H2295 C2287 0.929 . S
H2296 C2304 0.929 . S
H2297 C2306 0.930 . S
H2298 C2308 0.930 . S
H2299 C2311 0.929 . S
H2300 C2314 0.930 . S
H2301 C2316 0.960 . S
H2302 C2316 0.960 . S
H2303 C2316 0.960 . S
C2304 H2296 0.929 . S
C2304 C2305 1.377 . S
C2304 C2306 1.384 . S
C2305 C2304 1.377 . S
C2305 C2311 1.390 . S
C2306 H2297 0.930 . S
C2306 C2304 1.384 . S
C2306 C2307 1.372 . S
C2307 C2306 1.372 . S
C2307 C2308 1.400 . S
C2307 C2312 1.490 . S
C2308 H2298 0.930 . S
C2308 C2307 1.400 . S
C2308 C2311 1.386 . S
H2309 C2325 0.930 . S
H2310 C2326 0.931 . S
C2311 H2299 0.929 . S
C2311 C2305 1.390 . S
C2311 C2308 1.386 . S
C2312 C2307 1.490 . S
C2312 C2314 1.395 . S
C2312 C2315 1.403 . S
H2313 C2319 0.930 . S
C2314 H2300 0.930 . S
C2314 C2312 1.395 . S
C2314 C2317 1.403 . S
C2315 C2312 1.403 . S
C2315 C2316 1.524 . S
C2315 C2319 1.400 . S
C2316 H2301 0.960 . S
C2316 H2302 0.960 . S
C2316 H2303 0.960 . S
C2316 C2315 1.524 . S
C2317 C2314 1.403 . S
C2317 C2318 1.392 . S
C2317 C2321 1.495 . S
C2318 C2317 1.392 . S
C2318 C2319 1.385 . S
C2318 C2320 1.478 . S
C2319 H2313 0.930 . S
C2319 C2315 1.400 . S
C2319 C2318 1.385 . S
C2320 C2318 1.478 . S
C2320 C2322 1.381 . S
C2320 C2326 1.383 . S
C2321 C2317 1.495 . S
C2321 H2327 0.959 . S
C2321 H2328 0.961 . S
C2321 H2329 0.960 . S
C2322 C2320 1.381 . S
C2322 C2323 1.394 . S
C2322 H2330 0.930 . S
C2323 C2322 1.394 . S
C2323 C2324 1.383 . S
C2323 H2331 0.929 . S
C2324 C2323 1.383 . S
C2324 C2325 1.377 . S
C2325 H2309 0.930 . S
C2325 C2324 1.377 . S
C2325 C2326 1.379 . S
C2326 H2310 0.931 . S
C2326 C2320 1.383 . S
C2326 C2325 1.379 . S
H2327 C2321 0.959 . S
H2328 C2321 0.961 . S
H2329 C2321 0.960 . S
H2330 C2322 0.930 . S
H2331 C2323 0.929 . S
H2332 C2340 0.929 . S
H2333 C2342 0.930 . S
H2334 C2344 0.930 . S
H2335 C2347 0.929 . S
H2336 C2350 0.930 . S
H2337 C2352 0.960 . S
H2338 C2352 0.960 . S
H2339 C2352 0.960 . S
C2340 H2332 0.929 . S
C2340 C2341 1.377 . S
C2340 C2342 1.384 . S
C2341 C2340 1.377 . S
C2341 C2347 1.390 . S
C2342 H2333 0.930 . S
C2342 C2340 1.384 . S
C2342 C2343 1.372 . S
C2343 C2342 1.372 . S
C2343 C2344 1.400 . S
C2343 C2348 1.490 . S
C2344 H2334 0.930 . S
C2344 C2343 1.400 . S
C2344 C2347 1.386 . S
H2345 C2361 0.930 . S
H2346 C2362 0.931 . S
C2347 H2335 0.929 . S
C2347 C2341 1.390 . S
C2347 C2344 1.386 . S
C2348 C2343 1.490 . S
C2348 C2350 1.395 . S
C2348 C2351 1.403 . S
H2349 C2355 0.930 . S
C2350 H2336 0.930 . S
C2350 C2348 1.395 . S
C2350 C2353 1.403 . S
C2351 C2348 1.403 . S
C2351 C2352 1.524 . S
C2351 C2355 1.400 . S
C2352 H2337 0.960 . S
C2352 H2338 0.960 . S
C2352 H2339 0.960 . S
C2352 C2351 1.524 . S
C2353 C2350 1.403 . S
C2353 C2354 1.392 . S
C2353 C2357 1.495 . S
C2354 C2353 1.392 . S
C2354 C2355 1.385 . S
C2354 C2356 1.478 . S
C2355 H2349 0.930 . S
C2355 C2351 1.400 . S
C2355 C2354 1.385 . S
C2356 C2354 1.478 . S
C2356 C2358 1.381 . S
C2356 C2362 1.383 . S
C2357 C2353 1.495 . S
C2357 H2363 0.959 . S
C2357 H2364 0.961 . S
C2357 H2365 0.960 . S
C2358 C2356 1.381 . S
C2358 C2359 1.394 . S
C2358 H2366 0.930 . S
C2359 C2358 1.394 . S
C2359 C2360 1.383 . S
C2359 H2367 0.929 . S
C2360 C2359 1.383 . S
C2360 C2361 1.377 . S
C2361 H2345 0.930 . S
C2361 C2360 1.377 . S
C2361 C2362 1.379 . S
C2362 H2346 0.931 . S
C2362 C2356 1.383 . S
C2362 C2361 1.379 . S
H2363 C2357 0.959 . S
H2364 C2357 0.961 . S
H2365 C2357 0.960 . S
H2366 C2358 0.930 . S
H2367 C2359 0.929 . S
C649 C132 2.012 . S
C668 C2 2.002 . S
C685 C31 2.848 . S
C704 C69 2.823 . S
C721 C82 1.054 . S
C740 C42 1.026 . S
C757 C128 2.826 . S
C776 C111 2.847 . S
C793 C168 1.704 . S
C812 C231 1.736 . S
C829 C202 1.084 . S
C848 C242 1.077 1_566 S
C865 C269 1.592 . S
C884 C311 1.619 . S
C901 C172 2.039 . S
C920 C282 2.013 . S
C937 C372 1.702 . S
C956 C29 1.689 . S
C973 C431 1.381 . S
C992 C71 1.387 . S
C1009 C109 1.635 . S
C1028 C532 1.641 . S
C1045 C337 0.592 . S
C1064 C137 0.529 . S
C1081 C457 0.964 . S
C1100 C177 0.989 . S
C1117 C589 0.577 . S
C1136 C229 0.589 . S
C1153 C271 1.907 1_556 S
C1172 C511 1.877 . S
C1189 C629 0.591 . S
C1208 C309 0.624 . S
C1225 C332 1.457 . S
C1244 C537 1.469 . S
C1261 C368 0.702 . S
C1280 C328 0.715 . S
C1297 C402 0.526 . S
C1316 C377 0.530 . S
C1333 C562 1.494 . S
C1352 C452 1.525 . S
C1369 C482 0.571 . S
C1388 C602 0.621 . S
C1405 C471 1.525 . S
C1424 C17 1.480 1_565 S
C1441 C488 2.293 . S
C1460 C12 2.325 . S
C1477 C497 0.558 . S
C1496 C97 0.616 . S
C1513 C92 2.339 . S
C1532 C469 2.307 . S
C1549 C389 0.693 . S
C1568 C189 0.658 . S
C1585 C362 0.488 . S
C1604 C257 0.590 . S
C1621 C549 0.572 . S
C1640 C248 0.552 . S
C1657 C191 1.458 1_655 S
C1676 C522 1.451 . S
C1693 C208 0.578 . S
C1712 C8 0.587 . S
C1729 C412 1.907 . S
C1748 C492 1.899 . S
C1765 C88 0.587 . S
C1784 C288 0.597 . S
C1801 C322 0.983 . S
C1820 C442 0.997 . S
C1837 C122 0.562 . S
C1856 C162 0.617 . S
C1873 C391 1.702 . S
C1892 C568 1.686 . S
C1909 C252 1.382 1_565 S
C1928 C52 1.395 . S
C1945 C608 1.636 . S
C1964 C551 1.638 . S
C1981 C351 2.039 . S
C2000 C297 2.014 . S
C2017 C349 1.701 . S
C2036 C212 1.717 . S
C2053 C417 1.086 . S
C2072 C217 1.067 . S
C2089 C151 2.010 . S
C2108 C577 2.000 . S
C2125 C57 1.051 . S
C2144 C617 1.061 . S
C2161 C509 2.297 . S
C2180 C591 2.321 . S
C2197 C448 2.311 . S
C2216 C631 2.329 . S
C2233 C429 0.570 . S
C2252 C528 0.588 . S
C2269 C572 2.848 . S
C2288 C48 2.821 . S
C2305 C149 2.825 . S
C2324 C612 2.837 . S
C2341 C292 1.617 . S
C2360 C408 1.608 . S
