# Generated by pormake.
# Topology tfs, (6)-cn, num edge types: 1
# Building blocks:
#     Node 0, Type 0, BuildingBlock: BETFEN_clean_sbu_0, # of connection points: 6
#     Node 1, Type 0, BuildingBlock: BETFEN_clean_sbu_0, # of connection points: 6
#     Node 2, Type 0, BuildingBlock: BETFEN_clean_sbu_0, # of connection points: 6
#     Node 3, Type 0, BuildingBlock: BETFEN_clean_sbu_0, # of connection points: 6
#     Node 4, Type 0, BuildingBlock: BETFEN_clean_sbu_0, # of connection points: 6
#     Node 5, Type 0, BuildingBlock: BETFEN_clean_sbu_0, # of connection points: 6
#     Edge 6, Type (0, 0), BuildingBlock: UVAHIK_clean_linker_0, # of connection points: 2
#     Edge 7, Type (0, 0), BuildingBlock: UVAHIK_clean_linker_0, # of connection points: 2
#     Edge 8, Type (0, 0), BuildingBlock: UVAHIK_clean_linker_0, # of connection points: 2
#     Edge 9, Type (0, 0), BuildingBlock: UVAHIK_clean_linker_0, # of connection points: 2
#     Edge 10, Type (0, 0), BuildingBlock: UVAHIK_clean_linker_0, # of connection points: 2
#     Edge 11, Type (0, 0), BuildingBlock: UVAHIK_clean_linker_0, # of connection points: 2
#     Edge 12, Type (0, 0), BuildingBlock: UVAHIK_clean_linker_0, # of connection points: 2
#     Edge 13, Type (0, 0), BuildingBlock: UVAHIK_clean_linker_0, # of connection points: 2
#     Edge 14, Type (0, 0), BuildingBlock: UVAHIK_clean_linker_0, # of connection points: 2
#     Edge 15, Type (0, 0), BuildingBlock: UVAHIK_clean_linker_0, # of connection points: 2
#     Edge 16, Type (0, 0), BuildingBlock: UVAHIK_clean_linker_0, # of connection points: 2
#     Edge 17, Type (0, 0), BuildingBlock: UVAHIK_clean_linker_0, # of connection points: 2
#     Edge 18, Type (0, 0), BuildingBlock: UVAHIK_clean_linker_0, # of connection points: 2
#     Edge 19, Type (0, 0), BuildingBlock: UVAHIK_clean_linker_0, # of connection points: 2
#     Edge 20, Type (0, 0), BuildingBlock: UVAHIK_clean_linker_0, # of connection points: 2
#     Edge 21, Type (0, 0), BuildingBlock: UVAHIK_clean_linker_0, # of connection points: 2
#     Edge 22, Type (0, 0), BuildingBlock: UVAHIK_clean_linker_0, # of connection points: 2
#     Edge 23, Type (0, 0), BuildingBlock: UVAHIK_clean_linker_0, # of connection points: 2
# Relax obj value: 0.539
# Max RMSD: 0.426
# Mean RMSD: 0.341
data_MOF--net-tfs--node1-BETFEN_clean_sbu_0--edge1-UVAHIK_clean_linker_0
_symmetry_space_group_name_H-M    P1
_symmetry_Int_Tables_number       1
_symmetry_cell_setting            triclinic
loop_
_symmetry_equiv_pos_as_xyz
'x, y, z'
_cell_length_a     62.043188
_cell_length_b     57.854538
_cell_length_c     16.796912
_cell_angle_alpha  100.17901
_cell_angle_beta   82.517682
_cell_angle_gamma 114.04655
loop_
_atom_site_label
_atom_site_type_symbol
_atom_site_fract_x
_atom_site_fract_y
_atom_site_fract_z
_atom_type_partial_charge
Pr0 Pr 0.2491 0.36363 0.1096 0.0
Pr1 Pr 0.2302 0.39386 0.03178 0.0
C2 C 0.25883 0.33564 0.20021 0.0
C3 C 0.25233 0.30832 0.20479 0.0
C4 C 0.26489 0.29483 0.15655 0.0
C5 C 0.26068 0.27003 0.16851 0.0
C6 C 0.24407 0.25833 0.2297 0.0
C7 C 0.23032 0.27118 0.27358 0.0
C8 C 0.23445 0.2959 0.26137 0.0
C9 C 0.24021 0.34479 0.94761 0.0
C10 C 0.19049 0.35239 0.13607 0.0
C11 C 0.22018 0.4188 0.93221 0.0
C12 C 0.23005 0.446 0.92613 0.0
C13 C 0.2392 0.46356 -0.00522 0.0
C14 C 0.24738 0.48958 -0.00823 0.0
C15 C 0.24698 0.4983 0.91965 0.0
C16 C 0.23901 0.48082 0.8497 0.0
C17 C 0.23044 0.45464 0.85307 0.0
C18 C 0.2403 0.4117 0.19445 0.0
C19 C 0.28987 0.41508 0.03761 0.0
O20 O 0.2424 0.34464 0.22221 0.0
O21 O 0.27231 0.34494 0.13738 0.0
O22 O 0.2269 0.35246 -0.0018 0.0
O23 O 0.25805 0.34538 0.98116 0.0
O24 O 0.19369 0.36352 0.07099 0.0
O25 O 0.20894 0.35182 0.16682 0.0
O26 O 0.23475 0.40729 0.90971 0.0
O27 O 0.20773 0.41264 4e-05 0.0
O28 O 0.25263 0.40467 0.13899 0.0
O29 O 0.22169 0.41124 0.16534 0.0
O30 O 0.28571 0.39846 0.08875 0.0
O31 O 0.27197 0.4158 0.0038 0.0
H32 H 0.27864 0.30376 0.11169 0.0
H33 H 0.27127 0.26052 0.13253 0.0
H34 H 0.21751 0.26299 0.32173 0.0
H35 H 0.22437 0.30571 0.29912 0.0
H36 H 0.23946 0.45712 0.05133 0.0
H37 H 0.25359 0.50289 0.04607 0.0
H38 H 0.23854 0.4874 0.79368 0.0
H39 H 0.22371 0.44122 0.79949 0.0
Pr40 Pr 0.83287 0.26395 0.65133 0.0
Pr41 Pr 0.78088 0.24897 0.72865 0.0
C42 C 0.88071 0.28197 0.61946 0.0
C43 C 0.90341 0.27954 0.58393 0.0
C44 C 0.90989 0.27966 0.50039 0.0
C45 C 0.93257 0.2813 0.46884 0.0
C46 C 0.94978 0.283 0.51954 0.0
C47 C 0.94303 0.28219 0.60299 0.0
C48 C 0.92029 0.28054 0.63456 0.0
C49 C 0.7984 0.25405 0.5473 0.0
C50 C 0.7982 0.20184 0.63016 0.0
C51 C 0.73378 0.22948 0.76855 0.0
C52 C 0.71098 0.23252 0.78868 0.0
C53 C 0.69556 0.22004 0.85091 0.0
C54 C 0.6726 0.21952 0.86471 0.0
C55 C 0.66445 0.23144 0.81635 0.0
C56 C 0.68031 0.24486 0.75613 0.0
C57 C 0.7033 0.24536 0.74233 0.0
C58 C 0.81544 0.25675 0.83325 0.0
C59 C 0.81138 0.31036 0.72817 0.0
O60 O 0.8702 0.27263 0.6865 0.0
O61 O 0.86589 0.28225 0.57109 0.0
O62 O 0.7996 0.26676 0.61641 0.0
O63 O 0.81619 0.24727 0.52696 0.0
O64 O 0.78089 0.20899 0.66355 0.0
O65 O 0.8204 0.2188 0.62338 0.0
O66 O 0.74293 0.23048 0.69377 0.0
O67 O 0.74963 0.23847 0.82264 0.0
O68 O 0.81375 0.24458 0.76287 0.0
O69 O 0.79906 0.26576 0.85048 0.0
O70 O 0.83033 0.30447 0.70839 0.0
O71 O 0.78983 0.29225 0.73093 0.0
H72 H 0.89767 0.27933 0.45925 0.0
H73 H 0.93686 0.28223 0.40462 0.0
H74 H 0.95541 0.28305 0.64442 0.0
H75 H 0.91615 0.28079 0.6993 0.0
H76 H 0.70099 0.20984 0.88713 0.0
H77 H 0.66093 0.20881 0.91107 0.0
H78 H 0.67484 0.25467 0.71869 0.0
H79 H 0.71482 0.25521 0.69407 0.0
Pr80 Pr 0.66592 0.79522 0.15505 0.0
Pr81 Pr 0.62681 0.73527 0.11822 0.0
C82 C 0.68793 0.84615 0.20731 0.0
C83 C 0.70016 0.87441 0.23641 0.0
C84 C 0.70086 0.89302 0.19098 0.0
C85 C 0.71073 0.91937 0.22102 0.0
C86 C 0.7205 0.92828 0.29769 0.0
C87 C 0.72026 0.90947 0.34192 0.0
C88 C 0.71018 0.88315 0.31217 0.0
C89 C 0.67435 0.76702 0.00998 0.0
C90 C 0.67733 0.74833 0.20655 0.0
C91 C 0.59739 0.68552 0.0732 0.0
C92 C 0.5721 0.66615 0.06585 0.0
C93 C 0.55876 0.65438 0.13293 0.0
C94 C 0.5362 0.63437 0.12498 0.0
C95 C 0.52577 0.62515 0.04955 0.0
C96 C 0.53909 0.63716 0.98237 0.0
C97 C 0.56181 0.65716 -0.00967 0.0
C98 C 0.61937 0.7653 0.26123 0.0
C99 C 0.61433 0.7807 0.07558 0.0
O100 O 0.685 0.82841 0.25142 0.0
O101 O 0.68011 0.8372 0.13466 0.0
O102 O 0.65429 0.76528 0.04217 0.0
O103 O 0.69106 0.7857 0.04982 0.0
O104 O 0.66034 0.73147 0.15985 0.0
O105 O 0.68155 0.77314 0.22015 0.0
O106 O 0.60684 0.70231 0.02222 0.0
O107 O 0.60532 0.69466 0.14559 0.0
O108 O 0.63866 0.76551 0.2277 0.0
O109 O 0.60213 0.74683 0.22352 0.0
O110 O 0.6304 0.7971 0.12532 0.0
O111 O 0.61203 0.75691 0.0525 0.0
H112 H 0.69326 0.88722 0.13256 0.0
H113 H 0.71002 0.93262 0.18441 0.0
H114 H 0.72794 0.91492 0.40002 0.0
H115 H 0.71009 0.86957 0.34922 0.0
H116 H 0.56599 0.66022 0.19196 0.0
H117 H 0.52727 0.62569 0.17847 0.0
H118 H 0.53201 0.63122 0.92313 0.0
H119 H 0.57149 0.66533 0.93674 0.0
Pr120 Pr 0.82394 0.62451 0.74999 0.0
Pr121 Pr 0.77106 0.59432 0.77394 0.0
C122 C 0.87095 0.64668 0.72075 0.0
C123 C 0.88776 0.67085 0.69456 0.0
C124 C 0.90976 0.68317 0.72834 0.0
C125 C 0.92684 0.70488 0.6988 0.0
C126 C 0.92214 0.71452 0.63481 0.0
C127 C 0.89939 0.70323 0.60544 0.0
C128 C 0.8823 0.68155 0.63516 0.0
C129 C 0.80338 0.63851 0.89629 0.0
C130 C 0.78958 0.64933 0.69461 0.0
C131 C 0.72552 0.58261 0.82413 0.0
C132 C 0.7061 0.5655 0.87126 0.0
C133 C 0.68405 0.55338 0.83793 0.0
C134 C 0.66562 0.53502 0.8768 0.0
C135 C 0.66911 0.5287 0.94941 0.0
C136 C 0.69084 0.54141 0.98475 0.0
C137 C 0.70938 0.55992 0.94577 0.0
C138 C 0.78991 0.58632 0.61616 0.0
C139 C 0.80286 0.56255 0.78818 0.0
O140 O 0.85679 0.63028 0.66689 0.0
O141 O 0.86058 0.64835 0.79307 0.0
O142 O 0.79935 0.61567 0.86523 0.0
O143 O 0.81873 0.6549 0.85233 0.0
O144 O 0.77322 0.63331 0.7399 0.0
O145 O 0.81079 0.64835 0.67973 0.0
O146 O 0.74294 0.60043 0.86375 0.0
O147 O 0.7323 0.57197 0.75578 0.0
O148 O 0.79525 0.60672 0.66367 0.0
O149 O 0.77209 0.56841 0.64836 0.0
O150 O 0.8205 0.58208 0.7584 0.0
O151 O 0.78202 0.56364 0.81071 0.0
H152 H 0.91406 0.67539 0.77531 0.0
H153 H 0.94422 0.71301 0.72237 0.0
H154 H 0.89518 0.71047 0.55691 0.0
H155 H 0.86515 0.67264 0.60969 0.0
H156 H 0.68137 0.55748 0.78033 0.0
H157 H 0.64895 0.52492 0.84846 0.0
H158 H 0.69365 0.53639 0.04055 0.0
H159 H 0.72637 0.56915 0.97227 0.0
Pr160 Pr 0.24028 0.78945 0.01296 0.0
Pr161 Pr 0.29553 0.80641 0.01878 0.0
C162 C 0.19363 0.77654 0.04374 0.0
C163 C 0.17607 0.78577 0.08859 0.0
C164 C 0.15772 0.78517 0.04674 0.0
C165 C 0.13887 0.79017 0.08887 0.0
C166 C 0.13786 0.79549 0.17392 0.0
C167 C 0.1571 0.79783 0.21537 0.0
C168 C 0.17611 0.79305 0.17298 0.0
C169 C 0.26842 0.81329 0.88532 0.0
C170 C 0.27204 0.8449 0.11603 0.0
C171 C 0.34205 0.81921 0.98268 0.0
C172 C 0.36036 0.80856 0.97155 0.0
C173 C 0.37015 0.80614 0.03893 0.0
C174 C 0.3892 0.79874 0.0284 0.0
C175 C 0.3989 0.79355 0.95028 0.0
C176 C 0.38859 0.79512 0.88275 0.0
C177 C 0.36955 0.80264 0.89332 0.0
C178 C 0.26806 0.78137 0.1443 0.0
C179 C 0.26227 0.74789 0.92744 0.0
O180 O 0.20637 0.7704 0.08594 0.0
O181 O 0.20527 0.78756 0.98067 0.0
O182 O 0.2731 0.81988 0.95829 0.0
O183 O 0.24797 0.79436 0.87638 0.0
O184 O 0.29166 0.84413 0.07719 0.0
O185 O 0.25127 0.8257 0.10921 0.0
O186 O 0.32672 0.8116 0.92698 0.0
O187 O 0.33289 0.82251 0.05648 0.0
O188 O 0.26297 0.77567 0.07194 0.0
O189 O 0.289 0.79934 0.15406 0.0
O190 O 0.24274 0.75136 0.95451 0.0
O191 O 0.28363 0.76583 0.94031 0.0
H192 H 0.15745 0.77976 0.98161 0.0
H193 H 0.12454 0.78871 0.05509 0.0
H194 H 0.15681 0.80177 0.28089 0.0
H195 H 0.19023 0.79389 0.20665 0.0
H196 H 0.36363 0.81072 0.10011 0.0
H197 H 0.39693 0.79814 0.08182 0.0
H198 H 0.39549 0.79095 0.82178 0.0
H199 H 0.36241 0.80443 0.84028 0.0
Pr200 Pr 0.36379 0.1584 0.80417 0.0
Pr201 Pr 0.37499 0.21483 0.86361 0.0
C202 C 0.35019 0.10802 0.79115 0.0
C203 C 0.3288 0.08752 0.75793 0.0
C204 C 0.32267 0.08713 0.68001 0.0
C205 C 0.30275 0.06733 0.64787 0.0
C206 C 0.28834 0.04768 0.6934 0.0
C207 C 0.29338 0.04936 0.77402 0.0
C208 C 0.31357 0.06905 0.80582 0.0
C209 C 0.37868 0.1895 0.68328 0.0
C210 C 0.32222 0.17785 0.78847 0.0
C211 C 0.38352 0.26463 0.88728 0.0
C212 C 0.40545 0.28757 0.8965 0.0
C213 C 0.40961 0.30266 0.97243 0.0
C214 C 0.43193 0.32147 -0.01235 0.0
C215 C 0.45034 0.32571 0.92669 0.0
C216 C 0.44581 0.31164 0.84917 0.0
C217 C 0.42354 0.29263 0.83417 0.0
C218 C 0.36032 0.18266 0.97961 0.0
C219 C 0.4183 0.19618 0.85857 0.0
O220 O 0.34653 0.12159 0.85855 0.0
O221 O 0.36577 0.12169 0.73918 0.0
O222 O 0.38753 0.195 0.75054 0.0
O223 O 0.36225 0.16654 0.67425 0.0
O224 O 0.33703 0.20081 0.8176 0.0
O225 O 0.32729 0.1576 0.78255 0.0
O226 O 0.38048 0.25098 0.81543 0.0
O227 O 0.37762 0.25083 0.94663 0.0
O228 O 0.35055 0.1784 0.91497 0.0
O229 O 0.37797 0.20475 -0.01127 0.0
O230 O 0.4017 0.1727 0.85389 0.0
O231 O 0.41327 0.21591 0.85269 0.0
H232 H 0.33362 0.1017 0.64273 0.0
H233 H 0.29961 0.06667 0.58543 0.0
H234 H 0.28232 0.03483 0.81125 0.0
H235 H 0.31754 0.06958 0.86722 0.0
H236 H 0.39592 0.29899 0.02133 0.0
H237 H 0.435 0.33192 0.04811 0.0
H238 H 0.45961 0.31495 0.80066 0.0
H239 H 0.42085 0.28131 0.77483 0.0
C240 C 0.28969 0.15341 0.69499 0.0
C241 C 0.30179 0.17581 0.74678 0.0
C242 C 0.27537 0.15368 0.6378 0.0
C243 C 0.24671 0.19106 0.57005 0.0
H244 H 0.27061 0.1714 0.35493 0.0
C245 C 0.26556 0.23343 0.26427 0.0
C246 C 0.24395 0.23536 0.25816 0.0
C247 C 0.26671 0.21667 0.31227 0.0
C248 C 0.26339 0.17646 0.41451 0.0
H249 H 0.30624 0.21529 0.78495 0.0
H250 H 0.28114 0.21562 0.68571 0.0
H251 H 0.28195 0.1609 0.47346 0.0
H252 H 0.20613 0.21842 0.28789 0.0
H253 H 0.20838 0.18975 0.37449 0.0
H254 H 0.22921 0.20786 0.51127 0.0
C255 C 0.28284 0.19791 0.68898 0.0
C256 C 0.26979 0.1704 0.48231 0.0
C257 C 0.29728 0.1977 0.74584 0.0
C258 C 0.22315 0.21798 0.29344 0.0
C259 C 0.22438 0.20149 0.34262 0.0
C260 C 0.24004 0.1968 0.50218 0.0
C261 C 0.27265 0.17624 0.63204 0.0
C262 C 0.26212 0.17837 0.56085 0.0
C263 C 0.24635 0.20169 0.35562 0.0
C264 C 0.24895 0.19028 0.42402 0.0
H265 H 0.29264 0.13616 0.69428 0.0
H266 H 0.26744 0.13663 0.59522 0.0
H267 H 0.24058 0.19743 0.62987 0.0
H268 H 0.282 0.24651 0.23852 0.0
H269 H 0.28391 0.21727 0.32147 0.0
C270 C 0.14748 0.34638 0.14963 0.0
C271 C 0.16597 0.34241 0.17779 0.0
C272 C 0.12474 0.33844 0.18909 0.0
C273 C 0.08995 0.31589 0.38347 0.0
H274 H 0.03712 0.29965 0.25387 0.0
C275 C 0.99468 0.30194 0.53003 0.0
C276 C 0.97469 0.28654 0.48554 0.0
C277 C 1.01789 0.30673 0.49575 0.0
C278 C 0.05142 0.30369 0.29167 0.0
H279 H 0.17447 0.32692 0.27204 0.0
H280 H 0.1346 0.31219 0.33939 0.0
H281 H 0.07642 0.31034 0.18929 0.0
H282 H 0.96421 0.26282 0.37054 0.0
H283 H 1.00403 0.27072 0.31189 0.0
H284 H 0.06451 0.30813 0.48556 0.0
C285 C 0.13778 0.32189 0.28691 0.0
C286 C 0.07441 0.31044 0.25428 0.0
C287 C 0.16077 0.33014 0.24759 0.0
C288 C 0.97888 0.27535 0.40659 0.0
C289 C 1.00202 0.28001 0.37253 0.0
C290 C 0.06681 0.30886 0.42095 0.0
C291 C 0.11921 0.32581 0.25826 0.0
C292 C 0.09431 0.3171 0.29926 0.0
C293 C 0.02209 0.29624 0.41559 0.0
C294 C 0.04702 0.30283 0.37589 0.0
H295 H 0.1506 0.35612 0.09719 0.0
H296 H 0.11159 0.34277 0.16555 0.0
H297 H 0.10448 0.32088 0.42128 0.0
H298 H 0.99251 0.31114 0.59073 0.0
H299 H 0.03253 0.31944 0.53162 0.0
C300 C 0.80782 0.1652 0.54721 0.0
C301 C 0.79189 0.17386 0.59801 0.0
C302 C 0.80123 0.13909 0.51529 0.0
C303 C 0.75472 0.07291 0.5423 0.0
H304 H 0.78036 0.05345 0.3309 0.0
C305 C 0.73065 0.96494 0.41635 0.0
C306 C 0.73031 0.9567 0.33192 0.0
C307 C 0.73925 0.9911 0.44831 0.0
C308 C 0.77266 0.05826 0.38973 0.0
H309 H 0.75626 0.16102 0.65452 0.0
H310 H 0.74486 0.11623 0.59941 0.0
H311 H 0.79239 0.09842 0.38537 0.0
H312 H 0.73988 0.9712 0.21593 0.0
H313 H 0.75341 0.01609 0.27088 0.0
H314 H 0.73423 0.03305 0.5457 0.0
C315 C 0.76266 0.12936 0.5845 0.0
C316 C 0.77997 0.08441 0.42192 0.0
C317 C 0.7692 0.15539 0.61599 0.0
C318 C 0.73918 0.9761 0.28113 0.0
C319 C 0.74748 1.0023 0.31318 0.0
C320 C 0.74727 0.04684 0.50992 0.0
C321 C 0.77847 0.12055 0.53325 0.0
C322 C 0.7711 0.09236 0.49888 0.0
C323 C 0.74762 1.01049 0.39767 0.0
C324 C 0.75601 0.03879 0.43274 0.0
H325 H 0.82539 0.17867 0.53127 0.0
H326 H 0.8142 0.13346 0.47707 0.0
H327 H 0.74759 0.07771 0.6022 0.0
H328 H 0.72385 0.9512 0.45888 0.0
H329 H 0.73934 0.99596 0.5135 0.0
C330 C 0.75978 0.66613 0.67048 0.0
C331 C 0.78179 0.66429 0.64862 0.0
C332 C 0.75013 0.67633 0.62161 0.0
C333 C 0.76371 0.71454 0.44929 0.0
H334 H 0.69575 0.68174 0.43433 0.0
C335 C 0.71084 0.7561 0.29311 0.0
C336 C 0.69126 0.73888 0.24964 0.0
C337 C 0.72292 0.74734 0.33808 0.0
C338 C 0.71477 0.69107 0.4369 0.0
H339 H 0.81116 0.67268 0.55797 0.0
H340 H 0.79437 0.69058 0.47245 0.0
H341 H 0.71495 0.6664 0.51769 0.0
H342 H 0.66937 0.69866 0.21976 0.0
H343 H 0.69035 0.68346 0.29739 0.0
H344 H 0.76343 0.73897 0.36708 0.0
C345 C 0.78458 0.68423 0.52819 0.0
C346 C 0.72585 0.68245 0.48601 0.0
C347 C 0.7943 0.67398 0.57747 0.0
C348 C 0.68437 0.71259 0.25188 0.0
C349 C 0.69634 0.70384 0.29731 0.0
C350 C 0.75258 0.72324 0.40017 0.0
C351 C 0.76204 0.68502 0.54853 0.0
C352 C 0.7505 0.69411 0.49371 0.0
C353 C 0.71573 0.72106 0.34176 0.0
C354 C 0.72789 0.71167 0.39323 0.0
H355 H 0.74955 0.65903 0.72481 0.0
H356 H 0.7331 0.67715 0.64112 0.0
H357 H 0.78266 0.72419 0.45352 0.0
H358 H 0.71673 0.77649 0.29334 0.0
H359 H 0.73755 0.7613 0.37184 0.0
C360 C 0.11561 0.81138 0.29193 0.0
C361 C 0.11556 0.79492 0.21936 0.0
C362 C 0.09456 0.80805 0.3396 0.0
C363 C 0.03826 0.75615 0.38051 0.0
H364 H 1.01542 0.80822 0.48334 0.0
C365 C 0.94425 0.72783 0.50515 0.0
C366 C 0.94195 0.73299 0.59003 0.0
C367 C 0.96537 0.74086 0.46288 0.0
C368 C 0.02182 0.79365 0.45524 0.0
H369 H 0.09324 0.76265 0.13882 0.0
H370 H 0.05682 0.75739 0.22029 0.0
H371 H 0.05344 0.82053 0.40173 0.0
H372 H 0.95906 0.75763 0.6963 0.0
H373 H 0.99637 0.78052 0.62129 0.0
H374 H 1.00672 0.72926 0.43208 0.0
C375 C 0.07308 0.77267 0.2409 0.0
C376 C 0.04344 0.80063 0.40897 0.0
C377 C 0.09395 0.77593 0.19364 0.0
C378 C 0.96048 0.75311 0.63095 0.0
C379 C 0.9817 0.7663 0.58825 0.0
C380 C 1.01679 0.74925 0.4259 0.0
C381 C 0.07327 0.78813 0.31548 0.0
C382 C 0.05152 0.78178 0.36975 0.0
C383 C 0.98455 0.75936 0.5045 0.0
C384 C 1.00816 0.76782 0.46209 0.0
H385 H 0.13198 0.82634 0.31286 0.0
H386 H 0.09512 0.82025 0.39687 0.0
H387 H 0.04439 0.74133 0.35294 0.0
H388 H 0.93048 0.71228 0.4718 0.0
H389 H 0.96729 0.73529 0.39812 0.0
C390 C 0.27967 0.87188 0.24821 0.0
C391 C 0.27271 0.86775 0.16926 0.0
C392 C 0.27545 0.89047 0.30512 0.0
C393 C 0.26485 0.94854 0.33027 0.0
H394 H 0.23515 0.92787 0.53849 0.0
C395 C 0.25946 0.0238 0.58625 0.0
C396 C 0.27145 0.02358 0.6515 0.0
C397 C 0.25053 1.00197 0.52967 0.0
C398 C 0.24325 0.93384 0.48042 0.0
H399 H 0.25659 0.87937 0.0856 0.0
H400 H 0.24987 0.91271 0.18482 0.0
H401 H 0.24134 0.89642 0.43068 0.0
H402 H 0.28048 0.99931 0.71445 0.0
H403 H 0.26484 0.96165 0.6175 0.0
H404 H 0.26818 0.98624 0.38094 0.0
C405 C 0.25847 0.90166 0.20283 0.0
C406 C 0.24692 0.91594 0.41916 0.0
C407 C 0.26241 0.88284 0.1463 0.0
C408 C 0.27134 1.00028 0.66524 0.0
C409 C 0.26233 0.97851 0.60915 0.0
C410 C 0.26141 0.96653 0.3918 0.0
C411 C 0.26435 0.90508 0.28314 0.0
C412 C 0.25839 0.92338 0.34462 0.0
C413 C 0.25326 0.97961 0.53822 0.0
C414 C 0.25127 0.95952 0.46838 0.0
H415 H 0.28721 0.85991 0.26677 0.0
H416 H 0.28038 0.89307 0.36664 0.0
H417 H 0.27372 0.95462 0.27305 0.0
H418 H 0.25869 0.04134 0.57529 0.0
H419 H 0.24311 1.00313 0.47632 0.0
C420 C 0.24015 0.70133 0.92453 0.0
C421 C 0.26028 0.72175 0.89917 0.0
C422 C 0.24052 0.67725 0.91814 0.0
C423 C 0.26601 0.63349 0.82271 0.0
H424 H 0.25955 0.61394 0.03691 0.0
C425 C 0.26992 0.53918 0.86416 0.0
C426 C 0.25271 0.52543 0.91985 0.0
C427 C 0.27419 0.56465 0.86219 0.0
C428 C 0.26121 0.61903 0.9767 0.0
H429 H 0.29549 0.73264 0.83955 0.0
H430 H 0.29574 0.68987 0.82601 0.0
H431 H 0.25836 0.65462 0.02304 0.0
H432 H 0.22653 0.52682 0.01724 0.0
H433 H 0.23313 0.57089 0.01177 0.0
H434 H 0.26758 0.59744 0.77565 0.0
C435 C 0.28002 0.69288 0.85222 0.0
C436 C 0.26059 0.64225 0.96895 0.0
C437 C 0.27985 0.71718 0.85991 0.0
C438 C 0.24007 0.53734 0.97439 0.0
C439 C 0.244 0.56259 0.97154 0.0
C440 C 0.2662 0.61 0.83028 0.0
C441 C 0.26078 0.67322 0.88473 0.0
C442 C 0.26263 0.64934 0.8919 0.0
C443 C 0.26093 0.57642 0.91483 0.0
C444 C 0.26342 0.60239 0.90732 0.0
H445 H 0.22482 0.70429 0.95528 0.0
H446 H 0.22547 0.66208 0.94292 0.0
H447 H 0.26764 0.63887 0.76293 0.0
H448 H 0.27992 0.53017 0.82213 0.0
H449 H 0.28761 0.57499 0.81881 0.0
C450 C 0.44928 0.18088 0.88264 0.0
C451 C 0.44333 0.20027 0.86423 0.0
C452 C 0.47305 0.18445 0.883 0.0
C453 C 0.53269 0.22368 0.7984 0.0
H454 H 0.55509 0.19731 0.95247 0.0
C455 C 0.6267 0.22447 0.75674 0.0
C456 C 0.63919 0.22861 0.82555 0.0
C457 C 0.60284 0.22083 0.7643 0.0
C458 C 0.54925 0.20506 0.90937 0.0
H459 H 0.45781 0.2388 0.83316 0.0
H460 H 0.49894 0.24506 0.83433 0.0
H461 H 0.51372 0.19186 0.96297 0.0
H462 H 0.63608 0.23236 0.95689 0.0
H463 H 0.5946 0.22654 0.97027 0.0
H464 H 0.56812 0.23763 0.74622 0.0
C465 C 0.48535 0.22695 0.84765 0.0
C466 C 0.52538 0.20161 0.9148 0.0
C467 C 0.46168 0.22344 0.84774 0.0
C468 C 0.62704 0.22904 0.9024 0.0
C469 C 0.60315 0.22557 0.91005 0.0
C470 C 0.5565 0.22727 0.79329 0.0
C471 C 0.49142 0.20743 0.86426 0.0
C472 C 0.51678 0.2109 0.85933 0.0
C473 C 0.59067 0.22143 0.84102 0.0
C474 C 0.56519 0.21792 0.84834 0.0
H475 H 0.43559 0.16281 0.89594 0.0
H476 H 0.477 0.16893 0.8957 0.0
H477 H 0.52673 0.23077 0.75374 0.0
H478 H 0.63521 0.2234 0.69647 0.0
H479 H 0.59385 0.21708 0.70944 0.0
C480 C 0.48433 0.59882 0.10799 0.0
C481 C 0.50142 0.60319 0.04183 0.0
C482 C 0.46205 0.57827 0.10257 0.0
C483 C 0.42736 0.51557 0.9762 0.0
H484 H 0.37418 0.52426 0.10656 0.0
C485 C 0.33481 0.43069 0.02565 0.0
C486 C 0.31428 0.43563 0.02764 0.0
C487 C 0.35762 0.45046 0.02066 0.0
C488 C 0.3887 0.52139 0.0691 0.0
H489 H 0.50727 0.58813 0.9167 0.0
H490 H 0.46835 0.55316 0.9065 0.0
H491 H 0.41279 0.5594 0.10912 0.0
H492 H 0.30199 0.46559 0.02618 0.0
H493 H 0.34138 0.49996 0.02018 0.0
H494 H 0.40281 0.47744 0.93563 0.0
C495 C 0.47244 0.56549 0.96375 0.0
C496 C 0.41119 0.54165 0.07138 0.0
C497 C 0.49491 0.58603 0.96936 0.0
C498 C 0.3173 0.46092 0.02416 0.0
C499 C 0.34002 0.48076 0.02136 0.0
C500 C 0.40479 0.49518 0.97429 0.0
C501 C 0.45548 0.56115 0.03036 0.0
C502 C 0.43112 0.53924 0.02542 0.0
C503 C 0.36066 0.476 0.01999 0.0
C504 C 0.385 0.49771 0.02082 0.0
H505 H 0.48794 0.61145 0.16476 0.0
H506 H 0.45004 0.57575 0.15618 0.0
H507 H 0.44196 0.51251 0.93998 0.0
H508 H 0.33323 0.41147 0.02794 0.0
H509 H 0.37289 0.44582 0.01985 0.0
C510 C 0.82701 0.53495 0.76032 0.0
C511 C 0.806 0.53814 0.79142 0.0
C512 C 0.82925 0.51151 0.75864 0.0
C513 C 0.80087 0.44839 0.84303 0.0
H514 H 0.83679 0.42595 0.663 0.0
C515 C 0.79394 0.34329 0.77925 0.0
C516 C 0.81353 0.33773 0.74421 0.0
C517 C 0.79459 0.36822 0.78945 0.0
C518 C 0.82693 0.43192 0.71453 0.0
H519 H 0.77097 0.51857 0.84635 0.0
H520 H 0.77469 0.4781 0.8428 0.0
H521 H 0.83486 0.46759 0.6721 0.0
H522 H 0.84954 0.35494 0.69409 0.0
H523 H 0.85081 0.39854 0.71222 0.0
H524 H 0.79277 0.41266 0.88511 0.0
C525 C 0.78972 0.49374 0.82038 0.0
C526 C 0.8258 0.45605 0.71985 0.0
C527 C 0.78749 0.51714 0.82203 0.0
C528 C 0.83408 0.35829 0.72132 0.0
C529 C 0.83469 0.38337 0.73112 0.0
C530 C 0.80197 0.42429 0.83765 0.0
C531 C 0.81057 0.49031 0.78803 0.0
C532 C 0.81256 0.46474 0.78385 0.0
C533 C 0.81486 0.3888 0.76486 0.0
C534 C 0.81484 0.4154 0.77287 0.0
H535 H 0.84174 0.5505 0.73613 0.0
H536 H 0.84579 0.51014 0.73441 0.0
H537 H 0.7909 0.45424 0.89446 0.0
H538 H 0.77774 0.3282 0.79817 0.0
H539 H 0.77878 0.37112 0.81471 0.0
C540 C 0.42396 0.7736 -0.00789 0.0
C541 C 0.42067 0.78833 0.94036 0.0
C542 C 0.44559 0.77144 -0.00986 0.0
C543 C 0.5086 0.80627 0.93668 0.0
H544 H 0.51284 0.74561 -0.0116 0.0
C545 C 0.59655 0.79779 0.98748 0.0
C546 C 0.59506 0.78679 0.05707 0.0
C547 C 0.57619 0.79827 0.96147 0.0
C548 C 0.51191 0.76268 0.9738 0.0
H549 H 0.43726 0.81143 0.84334 0.0
H550 H 0.47484 0.80693 0.83817 0.0
H551 H 0.47481 0.74389 0.95838 0.0
H552 H 0.5719 0.7679 0.15439 0.0
H553 H 0.53647 0.76898 0.11008 0.0
H554 H 0.54578 0.82508 0.95356 0.0
C555 C 0.46078 0.79748 0.88136 0.0
C556 C 0.49015 0.76171 0.95674 0.0
C557 C 0.43914 0.79977 0.88366 0.0
C558 C 0.57337 0.77689 0.1014 0.0
C559 C 0.55312 0.77718 0.07535 0.0
C560 C 0.53046 0.80718 0.95327 0.0
C561 C 0.46441 0.78376 0.93582 0.0
C562 C 0.48809 0.78371 0.94068 0.0
C563 C 0.55419 0.7873 0.00416 0.0
C564 C 0.53209 0.78562 0.97473 0.0
H565 H 0.40999 0.76425 0.03572 0.0
H566 H 0.44784 0.76096 0.03365 0.0
H567 H 0.50759 0.82361 0.92502 0.0
H568 H 0.61314 0.80493 0.95154 0.0
H569 H 0.57741 0.80613 0.90631 0.0
C570 C 0.63076 0.50833 0.02459 0.0
C571 C 0.65087 0.50643 0.98071 0.0
C572 C 0.61085 0.48622 0.03646 0.0
C573 C 0.58232 0.42409 0.92506 0.0
H574 H 0.53861 0.41054 0.11501 0.0
C575 C 0.49396 0.33802 0.91564 0.0
C576 C 0.47439 0.34413 0.94485 0.0
C577 C 0.51674 0.35563 0.93148 0.0
C578 C 0.55075 0.41415 0.06174 0.0
H579 H 0.66694 0.4809 0.91723 0.0
H580 H 0.63207 0.44205 0.938 0.0
H581 H 0.57744 0.44602 0.12629 0.0
H582 H 0.46313 0.37302 0.01477 0.0
H583 H 0.50303 0.40382 0.0425 0.0
H584 H 0.55547 0.39304 0.85961 0.0
C585 C 0.63168 0.46042 0.96389 0.0
C586 C 0.57283 0.4343 0.06824 0.0
C587 C 0.65158 0.48248 0.95263 0.0
C588 C 0.47792 0.3678 -0.00793 0.0
C589 C 0.50069 0.38534 0.0082 0.0
C590 C 0.5603 0.40403 0.91857 0.0
C591 C 0.61093 0.46219 0.00331 0.0
C592 C 0.58864 0.43951 -0.00028 0.0
C593 C 0.52025 0.37951 0.97705 0.0
C594 C 0.54426 0.39911 0.98659 0.0
H595 H 0.62998 0.52683 0.04512 0.0
H596 H 0.59491 0.48799 0.06618 0.0
H597 H 0.59401 0.42818 0.87089 0.0
H598 H 0.49168 0.31965 0.88064 0.0
H599 H 0.53163 0.35068 0.90756 0.0
C600 C 0.25793 0.33941 0.80812 0.0
C601 C 0.23842 0.34022 0.8595 0.0
C602 C 0.25827 0.33982 0.72532 0.0
C603 C 0.22447 0.33552 0.55579 0.0
H604 H 0.27492 0.40065 0.52001 0.0
C605 C 0.2201 0.39452 0.32203 0.0
C606 C 0.24102 0.40691 0.27644 0.0
C607 C 0.22072 0.38265 0.38674 0.0
C608 C 0.26104 0.38216 0.52783 0.0
H609 H 0.20309 0.33951 0.86457 0.0
H610 H 0.2036 0.33996 0.71884 0.0
H611 H 0.27391 0.38184 0.63915 0.0
H612 H 0.27901 0.41795 0.26429 0.0
H613 H 0.28016 0.3975 0.37704 0.0
H614 H 0.21146 0.33608 0.44438 0.0
C615 C 0.2186 0.3391 0.74284 0.0
C616 C 0.26051 0.37136 0.59602 0.0
C617 C 0.21839 0.33909 0.82606 0.0
C618 C 0.26268 0.40878 0.29953 0.0
C619 C 0.2633 0.39688 0.36362 0.0
C620 C 0.22518 0.34617 0.48655 0.0
C621 C 0.23897 0.34065 0.69267 0.0
C622 C 0.24181 0.34844 0.61196 0.0
C623 C 0.24228 0.38319 0.40677 0.0
C624 C 0.24299 0.37009 0.47374 0.0
H625 H 0.27356 0.34014 0.83246 0.0
H626 H 0.27416 0.34106 0.68756 0.0
H627 H 0.21 0.3177 0.56691 0.0
H628 H 0.20316 0.39244 0.30432 0.0
H629 H 0.20429 0.37265 0.42007 0.0
C630 C 0.7673 0.21802 0.47505 0.0
C631 C 0.77782 0.24439 0.4998 0.0
C632 C 0.75779 0.2091 0.39967 0.0
C633 C 0.79824 0.233 0.27046 0.0
H634 H 0.767 0.20674 0.06945 0.0
C635 C 0.83053 0.2663 0.96828 0.0
C636 C 0.82278 0.2487 0.89886 0.0
C637 C 0.8267 0.25771 0.0432 0.0
C638 C 0.77584 0.21338 0.12562 0.0
H639 H 0.7816 0.28163 0.47816 0.0
H640 H 0.76602 0.26606 0.34447 0.0
H641 H 0.74312 0.20615 0.19843 0.0
H642 H 0.80857 0.20853 0.84962 0.0
H643 H 0.80101 0.19355 0.98151 0.0
H644 H 0.83093 0.24185 0.19846 0.0
C645 C 0.76464 0.25219 0.38268 0.0
C646 C 0.7622 0.21336 0.19863 0.0
C647 C 0.77393 0.26121 0.45867 0.0
C648 C 0.81468 0.22242 0.90283 0.0
C649 C 0.81024 0.21382 0.97808 0.0
C650 C 0.81181 0.23322 0.1979 0.0
C651 C 0.76049 0.22686 0.34847 0.0
C652 C 0.77347 0.22399 0.27083 0.0
C653 C 0.8145 0.23153 0.04882 0.0
C654 C 0.80075 0.2242 0.12481 0.0
H655 H 0.76963 0.20471 0.50759 0.0
H656 H 0.75371 0.18927 0.37512 0.0
H657 H 0.80715 0.24097 0.32642 0.0
H658 H 0.83681 0.28663 0.96602 0.0
H659 H 0.83021 0.27171 0.09721 0.0
C660 C 0.65815 0.74049 0.88181 0.0
C661 C 0.67743 0.75924 0.92241 0.0
C662 C 0.65749 0.73899 0.79843 0.0
C663 C 0.67368 0.78626 0.66984 0.0
H664 H 0.63953 0.72912 0.51334 0.0
C665 C 0.63756 0.79465 0.37956 0.0
C666 C 0.61837 0.77304 0.34872 0.0
C667 C 0.64693 0.79465 0.45055 0.0
C668 C 0.64879 0.74525 0.55716 0.0
H669 H 0.71267 0.78852 0.9068 0.0
H670 H 0.71126 0.78621 0.76074 0.0
H671 H 0.65734 0.72184 0.62266 0.0
H672 H 0.59036 0.73745 0.37609 0.0
H673 H 0.60547 0.73833 0.50379 0.0
H674 H 0.66406 0.80948 0.60755 0.0
C675 C 0.69665 0.77282 0.79354 0.0
C676 C 0.65936 0.74111 0.6186 0.0
C677 C 0.69744 0.77409 0.87702 0.0
C678 C 0.60544 0.75416 0.39816 0.0
C679 C 0.61453 0.75433 0.47002 0.0
C680 C 0.6629 0.79037 0.60892 0.0
C681 C 0.67601 0.75643 0.75479 0.0
C682 C 0.6711 0.76143 0.67732 0.0
C683 C 0.63649 0.77342 0.49279 0.0
C684 C 0.6495 0.76971 0.55405 0.0
H685 H 0.64263 0.72866 0.91543 0.0
H686 H 0.64134 0.72615 0.77013 0.0
H687 H 0.68246 0.80227 0.7148 0.0
H688 H 0.64737 0.8097 0.34279 0.0
H689 H 0.66358 0.80998 0.46718 0.0
C690 C 0.81405 0.60819 0.50551 0.0
C691 C 0.79277 0.58914 0.53043 0.0
C692 C 0.81414 0.62364 0.45074 0.0
C693 C 0.77147 0.63902 0.35152 0.0
H694 H 0.82698 0.66877 0.20976 0.0
C695 C 0.77761 0.62751 0.02193 0.0
C696 C 0.79498 0.64594 0.97868 0.0
C697 C 0.77292 0.63347 0.10457 0.0
C698 C 0.81149 0.66147 0.25069 0.0
H699 H 0.75582 0.56809 0.50738 0.0
H700 H 0.7566 0.59249 0.40235 0.0
H701 H 0.82998 0.64916 0.31977 0.0
H702 H 0.81911 0.6858 0.98477 0.0
H703 H 0.81202 0.69567 0.13102 0.0
H704 H 0.7525 0.64846 0.27314 0.0
C705 C 0.77278 0.59746 0.43134 0.0
C706 C 0.81312 0.64988 0.31409 0.0
C707 C 0.77251 0.58263 0.48893 0.0
C708 C 0.80586 0.67112 0.0173 0.0
C709 C 0.80157 0.67694 0.10055 0.0
C710 C 0.76969 0.64987 0.28603 0.0
C711 C 0.79321 0.61922 0.41556 0.0
C712 C 0.79273 0.63679 0.36154 0.0
C713 C 0.78606 0.65771 0.14542 0.0
C714 C 0.78934 0.65928 0.23158 0.0
H715 H 0.82987 0.61364 0.53737 0.0
H716 H 0.83031 0.64003 0.44105 0.0
H717 H 0.75574 0.63076 0.39039 0.0
H718 H 0.76885 0.60804 -0.00667 0.0
H719 H 0.76109 0.61819 0.13798 0.0
C720 C 0.25176 0.74871 0.23535 0.0
C721 C 0.25195 0.77072 0.21115 0.0
C722 C 0.24738 0.74569 0.31712 0.0
C723 C 0.24605 0.78466 0.51788 0.0
H724 H 0.31004 0.78808 0.51554 0.0
C725 C 0.29 0.83859 0.77638 0.0
C726 C 0.28638 0.81844 0.81868 0.0
C727 C 0.29546 0.83595 0.69303 0.0
C728 C 0.29234 0.78749 0.51606 0.0
H729 H 0.24288 0.8036 0.24567 0.0
H730 H 0.23545 0.79864 0.38745 0.0
H731 H 0.28628 0.76499 0.40009 0.0
H732 H 0.29075 0.78295 0.81332 0.0
H733 H 0.30026 0.77845 0.66975 0.0
H734 H 0.25242 0.80775 0.6329 0.0
C735 C 0.23868 0.78366 0.3457 0.0
C736 C 0.2784 0.77363 0.45155 0.0
C737 C 0.2431 0.7867 0.26432 0.0
C738 C 0.29328 0.79862 0.78178 0.0
C739 C 0.29895 0.79614 0.699 0.0
C740 C 0.26006 0.79872 0.58168 0.0
C741 C 0.24404 0.76519 0.37349 0.0
C742 C 0.25531 0.77264 0.45098 0.0
C743 C 0.29639 0.8128 0.65352 0.0
C744 C 0.28351 0.8008 0.58019 0.0
H745 H 0.25827 0.73602 0.19395 0.0
H746 H 0.2507 0.73073 0.33734 0.0
H747 H 0.22836 0.78416 0.51905 0.0
H748 H 0.28501 0.85421 0.80454 0.0
H749 H 0.29418 0.84942 0.65839 0.0
C750 C 0.36242 0.217 0.63798 0.0
C751 C 0.38082 0.20855 0.63328 0.0
C752 C 0.35802 0.22499 0.57093 0.0
C753 C 0.37027 0.22031 0.35048 0.0
H754 H 0.31881 0.15322 0.35397 0.0
C755 C 0.36655 0.16163 0.08306 0.0
C756 C 0.35086 0.16665 0.04317 0.0
C757 C 0.3614 0.15811 0.16405 0.0
C758 C 0.33288 0.17201 0.35257 0.0
H759 H 0.41206 0.20686 0.56348 0.0
H760 H 0.40418 0.22026 0.44488 0.0
H761 H 0.33072 0.1816 0.48082 0.0
H762 H 0.31576 0.16639 0.04696 0.0
H763 H 0.30772 0.16253 0.19105 0.0
H764 H 0.37313 0.21005 0.2225 0.0
C765 C 0.3931 0.2209 0.50002 0.0
C766 C 0.33946 0.18849 0.42439 0.0
C767 C 0.3975 0.21289 0.56738 0.0
C768 C 0.32817 0.16298 0.07832 0.0
C769 C 0.32342 0.16041 0.16032 0.0
C770 C 0.36355 0.20396 0.2789 0.0
C771 C 0.37153 0.22342 0.49845 0.0
C772 C 0.35906 0.21215 0.42403 0.0
C773 C 0.34154 0.16173 0.20486 0.0
C774 C 0.34579 0.17924 0.28043 0.0
H775 H 0.34965 0.2145 0.68868 0.0
H776 H 0.3416 0.22748 0.57129 0.0
H777 H 0.38542 0.23831 0.34908 0.0
H778 H 0.38397 0.16392 0.05542 0.0
H779 H 0.37526 0.1584 0.19787 0.0
loop_
_geom_bond_atom_site_label_1
_geom_bond_atom_site_label_2
_geom_bond_distance
_geom_bond_site_symmetry_2
_ccdc_geom_bond_type
Pr0 C2 2.880 . S
Pr0 O20 2.562 . S
Pr0 O21 2.490 1_554 S
Pr0 O22 2.695 1_554 S
Pr0 O23 2.512 1_554 S
Pr0 O25 2.437 . S
Pr0 O28 2.436 . S
Pr0 O30 2.438 1_554 S
Pr1 C11 2.880 1_554 S
Pr1 O22 2.436 1_554 S
Pr1 O24 2.438 . S
Pr1 O26 2.562 1_554 S
Pr1 O27 2.490 . S
Pr1 O28 2.695 . S
Pr1 O29 2.512 . S
Pr1 O31 2.437 . S
C2 Pr0 2.880 . S
C2 C3 1.491 . S
C2 O20 1.254 . S
C2 O21 1.225 1_554 S
C3 C2 1.491 . S
C3 C4 1.392 1_554 S
C3 C8 1.356 . S
C4 C3 1.392 1_556 S
C4 C5 1.368 1_556 S
C4 H32 0.929 . S
C5 C4 1.368 1_554 S
C5 C6 1.386 . S
C5 H33 0.929 1_554 S
C6 C5 1.386 . S
C6 C7 1.373 . S
C7 C6 1.373 . S
C7 C8 1.409 . S
C7 H34 0.931 . S
C8 C3 1.356 . S
C8 C7 1.409 . S
C8 H35 0.930 . S
C9 O22 1.270 . S
C9 O23 1.248 . S
C10 O24 1.267 . S
C10 O25 1.278 . S
C11 Pr1 2.880 1_556 S
C11 C12 1.491 . S
C11 O26 1.254 . S
C11 O27 1.225 1_556 S
C12 C11 1.491 . S
C12 C13 1.392 1_556 S
C12 C17 1.356 . S
C13 C12 1.392 1_554 S
C13 C14 1.368 . S
C13 H36 0.929 . S
C14 C13 1.368 . S
C14 C15 1.386 1_554 S
C14 H37 0.929 . S
C15 C14 1.386 1_556 S
C15 C16 1.373 . S
C16 C15 1.373 . S
C16 C17 1.409 . S
C16 H38 0.931 . S
C17 C12 1.356 . S
C17 C16 1.409 . S
C17 H39 0.930 . S
C18 O28 1.270 . S
C18 O29 1.248 . S
C19 O30 1.267 . S
C19 O31 1.278 1_556 S
O20 Pr0 2.562 . S
O20 C2 1.254 . S
O21 Pr0 2.490 1_556 S
O21 C2 1.225 1_556 S
O22 Pr0 2.695 1_556 S
O22 Pr1 2.436 1_556 S
O22 C9 1.270 . S
O23 Pr0 2.512 1_556 S
O23 C9 1.248 . S
O24 Pr1 2.438 . S
O24 C10 1.267 . S
O25 Pr0 2.437 . S
O25 C10 1.278 . S
O26 Pr1 2.562 1_556 S
O26 C11 1.254 . S
O27 Pr1 2.490 . S
O27 C11 1.225 1_554 S
O28 Pr0 2.436 . S
O28 Pr1 2.695 . S
O28 C18 1.270 . S
O29 Pr1 2.512 . S
O29 C18 1.248 . S
O30 Pr0 2.438 1_556 S
O30 C19 1.267 . S
O31 Pr1 2.437 . S
O31 C19 1.278 1_554 S
H32 C4 0.929 . S
H33 C5 0.929 1_556 S
H34 C7 0.931 . S
H35 C8 0.930 . S
H36 C13 0.929 . S
H37 C14 0.929 . S
H38 C16 0.931 . S
H39 C17 0.930 . S
Pr40 C42 2.880 . S
Pr40 O60 2.562 . S
Pr40 O61 2.490 . S
Pr40 O62 2.695 . S
Pr40 O63 2.512 . S
Pr40 O65 2.437 . S
Pr40 O68 2.436 . S
Pr40 O70 2.438 . S
Pr41 C51 2.880 . S
Pr41 O62 2.436 . S
Pr41 O64 2.438 . S
Pr41 O66 2.562 . S
Pr41 O67 2.490 . S
Pr41 O68 2.695 . S
Pr41 O69 2.512 . S
Pr41 O71 2.437 . S
C42 Pr40 2.880 . S
C42 C43 1.491 . S
C42 O60 1.254 . S
C42 O61 1.225 . S
C43 C42 1.491 . S
C43 C44 1.392 . S
C43 C48 1.356 . S
C44 C43 1.392 . S
C44 C45 1.368 . S
C44 H72 0.929 . S
C45 C44 1.368 . S
C45 C46 1.386 . S
C45 H73 0.929 . S
C46 C45 1.386 . S
C46 C47 1.373 . S
C47 C46 1.373 . S
C47 C48 1.409 . S
C47 H74 0.931 . S
C48 C43 1.356 . S
C48 C47 1.409 . S
C48 H75 0.930 . S
C49 O62 1.270 . S
C49 O63 1.248 . S
C50 O64 1.267 . S
C50 O65 1.278 . S
C51 Pr41 2.880 . S
C51 C52 1.491 . S
C51 O66 1.254 . S
C51 O67 1.225 . S
C52 C51 1.491 . S
C52 C53 1.392 . S
C52 C57 1.356 . S
C53 C52 1.392 . S
C53 C54 1.368 . S
C53 H76 0.929 . S
C54 C53 1.368 . S
C54 C55 1.386 . S
C54 H77 0.926 1_556 S
C55 C54 1.386 . S
C55 C56 1.373 . S
C56 C55 1.373 . S
C56 C57 1.409 . S
C56 H78 0.931 . S
C57 C52 1.356 . S
C57 C56 1.409 . S
C57 H79 0.930 . S
C58 O68 1.270 . S
C58 O69 1.248 . S
C59 O70 1.267 . S
C59 O71 1.278 . S
O60 Pr40 2.562 . S
O60 C42 1.254 . S
O61 Pr40 2.490 . S
O61 C42 1.225 . S
O62 Pr40 2.695 . S
O62 Pr41 2.436 . S
O62 C49 1.270 . S
O63 Pr40 2.512 . S
O63 C49 1.248 . S
O64 Pr41 2.438 . S
O64 C50 1.267 . S
O65 Pr40 2.437 . S
O65 C50 1.278 . S
O66 Pr41 2.562 . S
O66 C51 1.254 . S
O67 Pr41 2.490 . S
O67 C51 1.225 . S
O68 Pr40 2.436 . S
O68 Pr41 2.695 . S
O68 C58 1.270 . S
O69 Pr41 2.512 . S
O69 C58 1.248 . S
O70 Pr40 2.438 . S
O70 C59 1.267 . S
O71 Pr41 2.437 . S
O71 C59 1.278 . S
H72 C44 0.929 . S
H73 C45 0.929 . S
H74 C47 0.931 . S
H75 C48 0.930 . S
H76 C53 0.929 . S
H77 C54 0.926 1_554 S
H78 C56 0.931 . S
H79 C57 0.930 . S
Pr80 C82 2.880 . S
Pr80 O100 2.562 . S
Pr80 O101 2.490 . S
Pr80 O102 2.695 1_554 S
Pr80 O103 2.512 1_554 S
Pr80 O105 2.437 . S
Pr80 O108 2.436 . S
Pr80 O110 2.438 . S
Pr81 C91 2.880 1_554 S
Pr81 O102 2.436 1_554 S
Pr81 O104 2.438 . S
Pr81 O106 2.562 1_554 S
Pr81 O107 2.490 . S
Pr81 O108 2.695 . S
Pr81 O109 2.512 . S
Pr81 O111 2.437 . S
C82 Pr80 2.880 . S
C82 C83 1.491 . S
C82 O100 1.254 . S
C82 O101 1.225 . S
C83 C82 1.491 . S
C83 C84 1.392 . S
C83 C88 1.356 . S
C84 C83 1.392 . S
C84 C85 1.368 . S
C84 H112 0.929 . S
C85 C84 1.368 . S
C85 C86 1.386 . S
C85 H113 0.929 . S
C86 C85 1.386 . S
C86 C87 1.373 . S
C87 C86 1.373 . S
C87 C88 1.409 . S
C87 H114 0.931 . S
C88 C83 1.356 . S
C88 C87 1.409 . S
C88 H115 0.930 . S
C89 O102 1.270 . S
C89 O103 1.248 . S
C90 O104 1.267 . S
C90 O105 1.278 . S
C91 Pr81 2.880 1_556 S
C91 C92 1.491 . S
C91 O106 1.254 . S
C91 O107 1.225 1_556 S
C92 C91 1.491 . S
C92 C93 1.392 1_556 S
C92 C97 1.356 . S
C93 C92 1.392 1_554 S
C93 C94 1.368 1_554 S
C93 H116 0.929 . S
C94 C93 1.368 1_556 S
C94 C95 1.386 . S
C94 H117 0.929 1_556 S
C95 C94 1.386 . S
C95 C96 1.373 . S
C96 C95 1.373 . S
C96 C97 1.409 . S
C96 H118 0.931 . S
C97 C92 1.356 . S
C97 C96 1.409 . S
C97 H119 0.930 . S
C98 O108 1.270 . S
C98 O109 1.248 . S
C99 O110 1.267 . S
C99 O111 1.278 . S
O100 Pr80 2.562 . S
O100 C82 1.254 . S
O101 Pr80 2.490 . S
O101 C82 1.225 . S
O102 Pr80 2.695 1_556 S
O102 Pr81 2.436 1_556 S
O102 C89 1.270 . S
O103 Pr80 2.512 1_556 S
O103 C89 1.248 . S
O104 Pr81 2.438 . S
O104 C90 1.267 . S
O105 Pr80 2.437 . S
O105 C90 1.278 . S
O106 Pr81 2.562 1_556 S
O106 C91 1.254 . S
O107 Pr81 2.490 . S
O107 C91 1.225 1_554 S
O108 Pr80 2.436 . S
O108 Pr81 2.695 . S
O108 C98 1.270 . S
O109 Pr81 2.512 . S
O109 C98 1.248 . S
O110 Pr80 2.438 . S
O110 C99 1.267 . S
O111 Pr81 2.437 . S
O111 C99 1.278 . S
H112 C84 0.929 . S
H113 C85 0.929 . S
H114 C87 0.931 . S
H115 C88 0.930 . S
H116 C93 0.929 . S
H117 C94 0.929 1_554 S
H118 C96 0.931 . S
H119 C97 0.930 . S
Pr120 C122 2.880 . S
Pr120 O140 2.562 . S
Pr120 O141 2.490 . S
Pr120 O142 2.695 . S
Pr120 O143 2.512 1_556 S
Pr120 O145 2.437 . S
Pr120 O148 2.436 . S
Pr120 O150 2.438 . S
Pr121 C131 2.880 . S
Pr121 O142 2.436 . S
Pr121 O144 2.438 . S
Pr121 O146 2.562 . S
Pr121 O147 2.490 . S
Pr121 O148 2.695 . S
Pr121 O149 2.512 . S
Pr121 O151 2.437 . S
C122 Pr120 2.880 . S
C122 C123 1.491 . S
C122 O140 1.254 . S
C122 O141 1.225 . S
C123 C122 1.491 . S
C123 C124 1.392 . S
C123 C128 1.356 . S
C124 C123 1.392 . S
C124 C125 1.368 . S
C124 H152 0.929 . S
C125 C124 1.368 . S
C125 C126 1.386 . S
C125 H153 0.929 . S
C126 C125 1.386 . S
C126 C127 1.373 . S
C127 C126 1.373 . S
C127 C128 1.409 . S
C127 H154 0.931 . S
C128 C123 1.356 . S
C128 C127 1.409 . S
C128 H155 0.930 . S
C129 O142 1.270 1_554 S
C129 O143 1.248 . S
C130 O144 1.267 . S
C130 O145 1.278 . S
C131 Pr121 2.880 . S
C131 C132 1.491 . S
C131 O146 1.254 . S
C131 O147 1.225 . S
C132 C131 1.491 . S
C132 C133 1.392 . S
C132 C137 1.356 1_556 S
C133 C132 1.392 . S
C133 C134 1.368 . S
C133 H156 0.929 . S
C134 C133 1.368 . S
C134 C135 1.386 . S
C134 H157 0.929 . S
C135 C134 1.386 . S
C135 C136 1.373 1_556 S
C136 C135 1.373 1_554 S
C136 C137 1.409 . S
C136 H158 0.931 . S
C137 C132 1.356 1_554 S
C137 C136 1.409 . S
C137 H159 0.930 . S
C138 O148 1.270 . S
C138 O149 1.248 . S
C139 O150 1.267 . S
C139 O151 1.278 . S
O140 Pr120 2.562 . S
O140 C122 1.254 . S
O141 Pr120 2.490 . S
O141 C122 1.225 . S
O142 Pr120 2.695 . S
O142 Pr121 2.436 . S
O142 C129 1.270 1_556 S
O143 Pr120 2.512 1_554 S
O143 C129 1.248 . S
O144 Pr121 2.438 . S
O144 C130 1.267 . S
O145 Pr120 2.437 . S
O145 C130 1.278 . S
O146 Pr121 2.562 . S
O146 C131 1.254 . S
O147 Pr121 2.490 . S
O147 C131 1.225 . S
O148 Pr120 2.436 . S
O148 Pr121 2.695 . S
O148 C138 1.270 . S
O149 Pr121 2.512 . S
O149 C138 1.248 . S
O150 Pr120 2.438 . S
O150 C139 1.267 . S
O151 Pr121 2.437 . S
O151 C139 1.278 . S
H152 C124 0.929 . S
H153 C125 0.929 . S
H154 C127 0.931 . S
H155 C128 0.930 . S
H156 C133 0.929 . S
H157 C134 0.929 . S
H158 C136 0.931 . S
H159 C137 0.930 . S
Pr160 C162 2.880 . S
Pr160 O180 2.563 . S
Pr160 O181 2.490 1_554 S
Pr160 O182 2.694 1_554 S
Pr160 O183 2.511 1_554 S
Pr160 O185 2.437 . S
Pr160 O188 2.437 . S
Pr160 O190 2.438 1_554 S
Pr161 C171 2.880 1_554 S
Pr161 O182 2.436 1_554 S
Pr161 O184 2.438 . S
Pr161 O186 2.563 1_554 S
Pr161 O187 2.490 . S
Pr161 O188 2.695 . S
Pr161 O189 2.511 . S
Pr161 O191 2.437 1_554 S
C162 Pr160 2.880 . S
C162 C163 1.491 . S
C162 O180 1.254 . S
C162 O181 1.225 1_554 S
C163 C162 1.491 . S
C163 C164 1.392 . S
C163 C168 1.356 . S
C164 C163 1.392 . S
C164 C165 1.368 . S
C164 H192 0.929 1_554 S
C165 C164 1.368 . S
C165 C166 1.386 . S
C165 H193 0.929 . S
C166 C165 1.386 . S
C166 C167 1.373 . S
C167 C166 1.373 . S
C167 C168 1.409 . S
C167 H194 0.931 . S
C168 C163 1.356 . S
C168 C167 1.409 . S
C168 H195 0.930 . S
C169 O182 1.270 . S
C169 O183 1.248 . S
C170 O184 1.267 . S
C170 O185 1.278 . S
C171 Pr161 2.880 1_556 S
C171 C172 1.491 . S
C171 O186 1.254 . S
C171 O187 1.225 1_556 S
C172 C171 1.491 . S
C172 C173 1.392 . S
C172 C177 1.356 . S
C173 C172 1.392 . S
C173 C174 1.368 . S
C173 H196 0.929 1_556 S
C174 C173 1.368 . S
C174 C175 1.386 . S
C174 H197 0.929 . S
C175 C174 1.386 . S
C175 C176 1.373 . S
C176 C175 1.373 . S
C176 C177 1.409 . S
C176 H198 0.931 . S
C177 C172 1.356 . S
C177 C176 1.409 . S
C177 H199 0.930 . S
C178 O188 1.270 . S
C178 O189 1.248 . S
C179 O190 1.267 . S
C179 O191 1.278 . S
O180 Pr160 2.563 . S
O180 C162 1.254 . S
O181 Pr160 2.490 1_556 S
O181 C162 1.225 1_556 S
O182 Pr160 2.694 1_556 S
O182 Pr161 2.436 1_556 S
O182 C169 1.270 . S
O183 Pr160 2.511 1_556 S
O183 C169 1.248 . S
O184 Pr161 2.438 . S
O184 C170 1.267 . S
O185 Pr160 2.437 . S
O185 C170 1.278 . S
O186 Pr161 2.563 1_556 S
O186 C171 1.254 . S
O187 Pr161 2.490 . S
O187 C171 1.225 1_554 S
O188 Pr160 2.437 . S
O188 Pr161 2.695 . S
O188 C178 1.270 . S
O189 Pr161 2.511 . S
O189 C178 1.248 . S
O190 Pr160 2.438 1_556 S
O190 C179 1.267 . S
O191 Pr161 2.437 1_556 S
O191 C179 1.278 . S
H192 C164 0.929 1_556 S
H193 C165 0.929 . S
H194 C167 0.931 . S
H195 C168 0.930 . S
H196 C173 0.929 1_554 S
H197 C174 0.929 . S
H198 C176 0.931 . S
H199 C177 0.930 . S
Pr200 C202 2.880 . S
Pr200 O220 2.562 . S
Pr200 O221 2.490 . S
Pr200 O222 2.695 . S
Pr200 O223 2.512 . S
Pr200 O225 2.437 . S
Pr200 O228 2.436 . S
Pr200 O230 2.438 . S
Pr201 C211 2.880 . S
Pr201 O222 2.436 . S
Pr201 O224 2.438 . S
Pr201 O226 2.562 . S
Pr201 O227 2.490 . S
Pr201 O228 2.695 . S
Pr201 O229 2.512 1_556 S
Pr201 O231 2.437 . S
C202 Pr200 2.880 . S
C202 C203 1.491 . S
C202 O220 1.254 . S
C202 O221 1.225 . S
C203 C202 1.491 . S
C203 C204 1.392 . S
C203 C208 1.356 . S
C204 C203 1.392 . S
C204 C205 1.368 . S
C204 H232 0.929 . S
C205 C204 1.368 . S
C205 C206 1.386 . S
C205 H233 0.929 . S
C206 C205 1.386 . S
C206 C207 1.373 . S
C207 C206 1.373 . S
C207 C208 1.409 . S
C207 H234 0.931 . S
C208 C203 1.356 . S
C208 C207 1.409 . S
C208 H235 0.930 . S
C209 O222 1.270 . S
C209 O223 1.248 . S
C210 O224 1.267 . S
C210 O225 1.278 . S
C211 Pr201 2.880 . S
C211 C212 1.491 . S
C211 O226 1.254 . S
C211 O227 1.225 . S
C212 C211 1.491 . S
C212 C213 1.392 1_556 S
C212 C217 1.356 . S
C213 C212 1.392 1_554 S
C213 C214 1.368 . S
C213 H236 0.929 . S
C214 C213 1.368 . S
C214 C215 1.386 1_554 S
C214 H237 0.929 . S
C215 C214 1.386 1_556 S
C215 C216 1.373 . S
C216 C215 1.373 . S
C216 C217 1.409 . S
C216 H238 0.931 . S
C217 C212 1.356 . S
C217 C216 1.409 . S
C217 H239 0.930 . S
C218 O228 1.270 1_554 S
C218 O229 1.248 . S
C219 O230 1.267 . S
C219 O231 1.278 . S
O220 Pr200 2.562 . S
O220 C202 1.254 . S
O221 Pr200 2.490 . S
O221 C202 1.225 . S
O222 Pr200 2.695 . S
O222 Pr201 2.436 . S
O222 C209 1.270 . S
O223 Pr200 2.512 . S
O223 C209 1.248 . S
O224 Pr201 2.438 . S
O224 C210 1.267 . S
O225 Pr200 2.437 . S
O225 C210 1.278 . S
O226 Pr201 2.562 . S
O226 C211 1.254 . S
O227 Pr201 2.490 . S
O227 C211 1.225 . S
O228 Pr200 2.436 . S
O228 Pr201 2.695 . S
O228 C218 1.270 1_556 S
O229 Pr201 2.512 1_554 S
O229 C218 1.248 . S
O230 Pr200 2.438 . S
O230 C219 1.267 . S
O231 Pr201 2.437 . S
O231 C219 1.278 . S
H232 C204 0.929 . S
H233 C205 0.929 . S
H234 C207 0.931 . S
H235 C208 0.930 . S
H236 C213 0.929 . S
H237 C214 0.929 . S
H238 C216 0.931 . S
H239 C217 0.930 . S
C240 C241 1.349 . S
C240 C242 1.327 . S
C240 H265 0.950 . S
C241 C240 1.349 . S
C241 C257 1.349 . S
C242 C240 1.327 . S
C242 C261 1.429 . S
C242 H266 0.950 . S
C243 C260 1.574 . S
C243 C262 1.368 . S
C243 H267 0.949 . S
H244 C248 0.949 . S
C245 C246 1.349 . S
C245 C247 1.327 . S
C245 H268 0.950 . S
C246 C245 1.349 . S
C246 C258 1.349 . S
C247 C245 1.327 . S
C247 C263 1.429 . S
C247 H269 0.950 . S
C248 H244 0.949 . S
C248 C256 1.574 . S
C248 C264 1.368 . S
H249 C257 0.950 . S
H250 C255 0.950 . S
H251 C256 0.949 . S
H252 C258 0.950 . S
H253 C259 0.950 . S
H254 C260 0.949 . S
C255 H250 0.950 . S
C255 C257 1.327 . S
C255 C261 1.429 . S
C256 C248 1.574 . S
C256 H251 0.949 . S
C256 C262 1.368 . S
C257 C241 1.349 . S
C257 H249 0.950 . S
C257 C255 1.327 . S
C258 C246 1.349 . S
C258 H252 0.950 . S
C258 C259 1.327 . S
C259 H253 0.950 . S
C259 C258 1.327 . S
C259 C263 1.429 . S
C260 C243 1.574 . S
C260 H254 0.949 . S
C260 C264 1.368 . S
C261 C242 1.429 . S
C261 C255 1.429 . S
C261 C262 1.523 . S
C262 C243 1.368 . S
C262 C256 1.368 . S
C262 C261 1.523 . S
C263 C247 1.429 . S
C263 C259 1.429 . S
C263 C264 1.523 . S
C264 C248 1.368 . S
C264 C260 1.368 . S
C264 C263 1.523 . S
H265 C240 0.950 . S
H266 C242 0.950 . S
H267 C243 0.949 . S
H268 C245 0.950 . S
H269 C247 0.950 . S
C270 C271 1.349 . S
C270 C272 1.327 . S
C270 H295 0.950 . S
C271 C270 1.349 . S
C271 C287 1.349 . S
C272 C270 1.327 . S
C272 C291 1.429 . S
C272 H296 0.950 . S
C273 C290 1.574 . S
C273 C292 1.368 . S
C273 H297 0.949 . S
H274 C278 0.972 . S
C275 C276 1.349 . S
C275 C277 1.327 . S
C275 H298 0.950 . S
C276 C275 1.349 . S
C276 C288 1.349 . S
C277 C275 1.327 . S
C277 C293 1.429 . S
C277 H299 0.950 1_655 S
C278 H274 0.972 . S
C278 C286 1.574 . S
C278 C294 1.368 . S
H279 C287 0.950 . S
H280 C285 0.950 . S
H281 C286 0.949 . S
H282 C288 0.950 . S
H283 C289 0.950 . S
H284 C290 0.949 . S
C285 H280 0.950 . S
C285 C287 1.327 . S
C285 C291 1.429 . S
C286 C278 1.574 . S
C286 H281 0.949 . S
C286 C292 1.368 . S
C287 C271 1.349 . S
C287 H279 0.950 . S
C287 C285 1.327 . S
C288 C276 1.349 . S
C288 H282 0.950 . S
C288 C289 1.327 . S
C289 H283 0.950 . S
C289 C288 1.327 . S
C289 C293 1.429 . S
C290 C273 1.574 . S
C290 H284 0.949 . S
C290 C294 1.368 . S
C291 C272 1.429 . S
C291 C285 1.429 . S
C291 C292 1.523 . S
C292 C273 1.368 . S
C292 C286 1.368 . S
C292 C291 1.523 . S
C293 C277 1.429 . S
C293 C289 1.429 . S
C293 C294 1.523 1_655 S
C294 C278 1.368 . S
C294 C290 1.368 . S
C294 C293 1.523 1_455 S
H295 C270 0.950 . S
H296 C272 0.950 . S
H297 C273 0.949 . S
H298 C275 0.950 . S
H299 C277 0.950 1_455 S
C300 C301 1.349 . S
C300 C302 1.327 . S
C300 H325 0.950 . S
C301 C300 1.349 . S
C301 C317 1.349 . S
C302 C300 1.327 . S
C302 C321 1.429 . S
C302 H326 0.950 . S
C303 C320 1.574 . S
C303 C322 1.368 . S
C303 H327 0.949 . S
H304 C308 0.949 . S
C305 C306 1.349 . S
C305 C307 1.327 . S
C305 H328 0.950 . S
C306 C305 1.349 . S
C306 C318 1.349 . S
C307 C305 1.327 . S
C307 C323 1.429 . S
C307 H329 0.950 . S
C308 H304 0.949 . S
C308 C316 1.574 . S
C308 C324 1.368 . S
H309 C317 0.950 . S
H310 C315 0.950 . S
H311 C316 0.949 . S
H312 C318 0.950 . S
H313 C319 0.950 1_545 S
H314 C320 0.949 1_565 S
C315 H310 0.950 . S
C315 C317 1.327 . S
C315 C321 1.429 . S
C316 C308 1.574 . S
C316 H311 0.949 . S
C316 C322 1.368 . S
C317 C301 1.349 . S
C317 H309 0.950 . S
C317 C315 1.327 . S
C318 C306 1.349 . S
C318 H312 0.950 . S
C318 C319 1.327 . S
C319 H313 0.950 1_565 S
C319 C318 1.327 . S
C319 C323 1.429 . S
C320 C303 1.574 . S
C320 H314 0.949 1_545 S
C320 C324 1.368 . S
C321 C302 1.429 . S
C321 C315 1.429 . S
C321 C322 1.523 . S
C322 C303 1.368 . S
C322 C316 1.368 . S
C322 C321 1.523 . S
C323 C307 1.429 . S
C323 C319 1.429 . S
C323 C324 1.523 1_565 S
C324 C308 1.368 . S
C324 C320 1.368 . S
C324 C323 1.523 1_545 S
H325 C300 0.950 . S
H326 C302 0.950 . S
H327 C303 0.949 . S
H328 C305 0.950 . S
H329 C307 0.950 . S
C330 C331 1.349 . S
C330 C332 1.327 . S
C330 H355 0.950 . S
C331 C330 1.349 . S
C331 C347 1.349 . S
C332 C330 1.327 . S
C332 C351 1.429 . S
C332 H356 0.950 . S
C333 C350 1.574 . S
C333 C352 1.368 . S
C333 H357 0.949 . S
H334 C338 0.949 . S
C335 C336 1.349 . S
C335 C337 1.327 . S
C335 H358 0.950 . S
C336 C335 1.349 . S
C336 C348 1.349 . S
C337 C335 1.327 . S
C337 C353 1.429 . S
C337 H359 0.950 . S
C338 H334 0.949 . S
C338 C346 1.574 . S
C338 C354 1.368 . S
H339 C347 0.950 . S
H340 C345 0.950 . S
H341 C346 0.949 . S
H342 C348 0.950 . S
H343 C349 0.950 . S
H344 C350 0.949 . S
C345 H340 0.950 . S
C345 C347 1.327 . S
C345 C351 1.429 . S
C346 C338 1.574 . S
C346 H341 0.949 . S
C346 C352 1.368 . S
C347 C331 1.349 . S
C347 H339 0.950 . S
C347 C345 1.327 . S
C348 C336 1.349 . S
C348 H342 0.950 . S
C348 C349 1.327 . S
C349 H343 0.950 . S
C349 C348 1.327 . S
C349 C353 1.429 . S
C350 C333 1.574 . S
C350 H344 0.949 . S
C350 C354 1.368 . S
C351 C332 1.429 . S
C351 C345 1.429 . S
C351 C352 1.523 . S
C352 C333 1.368 . S
C352 C346 1.368 . S
C352 C351 1.523 . S
C353 C337 1.429 . S
C353 C349 1.429 . S
C353 C354 1.523 . S
C354 C338 1.368 . S
C354 C350 1.368 . S
C354 C353 1.523 . S
H355 C330 0.950 . S
H356 C332 0.950 . S
H357 C333 0.949 . S
H358 C335 0.950 . S
H359 C337 0.950 . S
C360 C361 1.349 . S
C360 C362 1.327 . S
C360 H385 0.950 . S
C361 C360 1.349 . S
C361 C377 1.349 . S
C362 C360 1.327 . S
C362 C381 1.429 . S
C362 H386 0.950 . S
C363 C380 1.574 1_455 S
C363 C382 1.368 . S
C363 H387 0.949 . S
H364 C368 0.949 . S
C365 C366 1.349 . S
C365 C367 1.327 . S
C365 H388 0.950 . S
C366 C365 1.349 . S
C366 C378 1.349 . S
C367 C365 1.327 . S
C367 C383 1.429 . S
C367 H389 0.950 . S
C368 H364 0.949 . S
C368 C376 1.574 . S
C368 C384 1.368 1_455 S
H369 C377 0.950 . S
H370 C375 0.950 . S
H371 C376 0.949 . S
H372 C378 0.950 . S
H373 C379 0.950 . S
H374 C380 0.949 . S
C375 H370 0.950 . S
C375 C377 1.327 . S
C375 C381 1.429 . S
C376 C368 1.574 . S
C376 H371 0.949 . S
C376 C382 1.368 . S
C377 C361 1.349 . S
C377 H369 0.950 . S
C377 C375 1.327 . S
C378 C366 1.349 . S
C378 H372 0.950 . S
C378 C379 1.327 . S
C379 H373 0.950 . S
C379 C378 1.327 . S
C379 C383 1.429 . S
C380 C363 1.574 1_655 S
C380 H374 0.949 . S
C380 C384 1.368 . S
C381 C362 1.429 . S
C381 C375 1.429 . S
C381 C382 1.523 . S
C382 C363 1.368 . S
C382 C376 1.368 . S
C382 C381 1.523 . S
C383 C367 1.429 . S
C383 C379 1.429 . S
C383 C384 1.523 . S
C384 C368 1.368 1_655 S
C384 C380 1.368 . S
C384 C383 1.523 . S
H385 C360 0.950 . S
H386 C362 0.950 . S
H387 C363 0.949 . S
H388 C365 0.950 . S
H389 C367 0.950 . S
C390 C391 1.349 . S
C390 C392 1.327 . S
C390 H415 0.950 . S
C391 C390 1.349 . S
C391 C407 1.349 . S
C392 C390 1.327 . S
C392 C411 1.429 . S
C392 H416 0.950 . S
C393 C410 1.574 . S
C393 C412 1.368 . S
C393 H417 0.949 . S
H394 C398 0.949 . S
C395 C396 1.363 . S
C395 C397 1.358 . S
C395 H418 0.905 1_565 S
C396 C395 1.363 . S
C396 C408 1.349 . S
C397 C395 1.358 . S
C397 C413 1.429 . S
C397 H419 0.950 . S
C398 H394 0.949 . S
C398 C406 1.574 . S
C398 C414 1.368 . S
H399 C407 0.950 . S
H400 C405 0.950 . S
H401 C406 0.949 . S
H402 C408 0.950 . S
H403 C409 0.950 . S
H404 C410 0.949 . S
C405 H400 0.950 . S
C405 C407 1.327 . S
C405 C411 1.429 . S
C406 C398 1.574 . S
C406 H401 0.949 . S
C406 C412 1.368 . S
C407 C391 1.349 . S
C407 H399 0.950 . S
C407 C405 1.327 . S
C408 C396 1.349 . S
C408 H402 0.950 . S
C408 C409 1.327 . S
C409 H403 0.950 . S
C409 C408 1.327 . S
C409 C413 1.429 . S
C410 C393 1.574 . S
C410 H404 0.949 . S
C410 C414 1.368 . S
C411 C392 1.429 . S
C411 C405 1.429 . S
C411 C412 1.523 . S
C412 C393 1.368 . S
C412 C406 1.368 . S
C412 C411 1.523 . S
C413 C397 1.429 . S
C413 C409 1.429 . S
C413 C414 1.523 . S
C414 C398 1.368 . S
C414 C410 1.368 . S
C414 C413 1.523 . S
H415 C390 0.950 . S
H416 C392 0.950 . S
H417 C393 0.949 . S
H418 C395 0.905 1_545 S
H419 C397 0.950 . S
C420 C421 1.342 1_554 S
C420 C422 1.329 . S
C420 H445 0.955 . S
C421 C420 1.342 1_556 S
C421 C437 1.349 . S
C422 C420 1.329 . S
C422 C441 1.429 1_554 S
C422 H446 0.950 . S
C423 C440 1.574 . S
C423 C442 1.368 . S
C423 H447 0.949 . S
H424 C428 0.949 . S
C425 C426 1.349 . S
C425 C427 1.327 . S
C425 H448 0.950 . S
C426 C425 1.349 . S
C426 C438 1.349 . S
C427 C425 1.327 . S
C427 C443 1.429 . S
C427 H449 0.950 . S
C428 H424 0.949 . S
C428 C436 1.574 . S
C428 C444 1.368 1_554 S
H429 C437 0.950 . S
H430 C435 0.950 . S
H431 C436 0.949 . S
H432 C438 0.950 1_554 S
H433 C439 0.950 1_554 S
H434 C440 0.949 . S
C435 H430 0.950 . S
C435 C437 1.327 . S
C435 C441 1.429 . S
C436 C428 1.574 . S
C436 H431 0.949 . S
C436 C442 1.368 1_554 S
C437 C421 1.349 . S
C437 H429 0.950 . S
C437 C435 1.327 . S
C438 C426 1.349 . S
C438 H432 0.950 1_556 S
C438 C439 1.327 . S
C439 H433 0.950 1_556 S
C439 C438 1.327 . S
C439 C443 1.429 . S
C440 C423 1.574 . S
C440 H434 0.949 . S
C440 C444 1.368 . S
C441 C422 1.429 1_556 S
C441 C435 1.429 . S
C441 C442 1.523 . S
C442 C423 1.368 . S
C442 C436 1.368 1_556 S
C442 C441 1.523 . S
C443 C427 1.429 . S
C443 C439 1.429 . S
C443 C444 1.523 . S
C444 C428 1.368 1_556 S
C444 C440 1.368 . S
C444 C443 1.523 . S
H445 C420 0.955 . S
H446 C422 0.950 . S
H447 C423 0.949 . S
H448 C425 0.950 . S
H449 C427 0.950 . S
C450 C451 1.349 . S
C450 C452 1.327 . S
C450 H475 0.950 1_556 S
C451 C450 1.349 . S
C451 C467 1.349 . S
C452 C450 1.327 . S
C452 C471 1.429 . S
C452 H476 0.950 1_556 S
C453 C470 1.574 . S
C453 C472 1.368 . S
C453 H477 0.949 . S
H454 C458 0.949 1_554 S
C455 C456 1.349 . S
C455 C457 1.327 . S
C455 H478 0.950 . S
C456 C455 1.349 . S
C456 C468 1.349 . S
C457 C455 1.327 . S
C457 C473 1.429 . S
C457 H479 0.950 . S
C458 H454 0.949 1_556 S
C458 C466 1.574 . S
C458 C474 1.368 . S
H459 C467 0.950 . S
H460 C465 0.950 . S
H461 C466 0.949 1_554 S
H462 C468 0.950 1_554 S
H463 C469 0.950 1_554 S
H464 C470 0.949 . S
C465 H460 0.950 . S
C465 C467 1.327 . S
C465 C471 1.429 . S
C466 C458 1.574 . S
C466 H461 0.949 1_556 S
C466 C472 1.368 . S
C467 C451 1.349 . S
C467 H459 0.950 . S
C467 C465 1.327 . S
C468 C456 1.349 . S
C468 H462 0.950 1_556 S
C468 C469 1.327 . S
C469 H463 0.950 1_556 S
C469 C468 1.327 . S
C469 C473 1.429 . S
C470 C453 1.574 . S
C470 H464 0.949 . S
C470 C474 1.368 . S
C471 C452 1.429 . S
C471 C465 1.429 . S
C471 C472 1.523 . S
C472 C453 1.368 . S
C472 C466 1.368 . S
C472 C471 1.523 . S
C473 C457 1.429 . S
C473 C469 1.429 . S
C473 C474 1.523 . S
C474 C458 1.368 . S
C474 C470 1.368 . S
C474 C473 1.523 . S
H475 C450 0.950 1_554 S
H476 C452 0.950 1_554 S
H477 C453 0.949 . S
H478 C455 0.950 . S
H479 C457 0.950 . S
C480 C481 1.349 . S
C480 C482 1.327 . S
C480 H505 0.950 1_556 S
C481 C480 1.349 . S
C481 C497 1.349 . S
C482 C480 1.327 . S
C482 C501 1.429 . S
C482 H506 0.950 1_556 S
C483 C500 1.574 . S
C483 C502 1.368 . S
C483 H507 0.949 . S
H484 C488 0.949 . S
C485 C486 1.349 . S
C485 C487 1.327 . S
C485 H508 0.950 . S
C486 C485 1.349 . S
C486 C498 1.349 1_556 S
C487 C485 1.327 . S
C487 C503 1.429 . S
C487 H509 0.950 . S
C488 H484 0.949 . S
C488 C496 1.574 . S
C488 C504 1.368 1_554 S
H489 C497 0.950 . S
H490 C495 0.950 . S
H491 C496 0.949 . S
H492 C498 0.950 . S
H493 C499 0.950 . S
H494 C500 0.949 . S
C495 H490 0.950 . S
C495 C497 1.327 . S
C495 C501 1.429 . S
C496 C488 1.574 . S
C496 H491 0.949 . S
C496 C502 1.368 1_554 S
C497 C481 1.349 . S
C497 H489 0.950 . S
C497 C495 1.327 . S
C498 C486 1.349 1_554 S
C498 H492 0.950 . S
C498 C499 1.327 . S
C499 H493 0.950 . S
C499 C498 1.327 . S
C499 C503 1.429 1_554 S
C500 C483 1.574 . S
C500 H494 0.949 . S
C500 C504 1.368 . S
C501 C482 1.429 . S
C501 C495 1.429 . S
C501 C502 1.523 . S
C502 C483 1.368 . S
C502 C496 1.368 1_556 S
C502 C501 1.523 . S
C503 C487 1.429 . S
C503 C499 1.429 1_556 S
C503 C504 1.523 . S
C504 C488 1.368 1_556 S
C504 C500 1.368 . S
C504 C503 1.523 . S
H505 C480 0.950 1_554 S
H506 C482 0.950 1_554 S
H507 C483 0.949 . S
H508 C485 0.950 . S
H509 C487 0.950 . S
C510 C511 1.349 . S
C510 C512 1.327 . S
C510 H535 0.950 . S
C511 C510 1.349 . S
C511 C527 1.349 . S
C512 C510 1.327 . S
C512 C531 1.429 . S
C512 H536 0.950 . S
C513 C530 1.574 . S
C513 C532 1.368 . S
C513 H537 0.949 . S
H514 C518 0.949 . S
C515 C516 1.349 . S
C515 C517 1.327 . S
C515 H538 0.950 . S
C516 C515 1.349 . S
C516 C528 1.349 . S
C517 C515 1.327 . S
C517 C533 1.429 . S
C517 H539 0.950 . S
C518 H514 0.949 . S
C518 C526 1.574 . S
C518 C534 1.368 . S
H519 C527 0.950 . S
H520 C525 0.950 . S
H521 C526 0.949 . S
H522 C528 0.950 . S
H523 C529 0.950 . S
H524 C530 0.949 . S
C525 H520 0.950 . S
C525 C527 1.327 . S
C525 C531 1.429 . S
C526 C518 1.574 . S
C526 H521 0.949 . S
C526 C532 1.368 . S
C527 C511 1.349 . S
C527 H519 0.950 . S
C527 C525 1.327 . S
C528 C516 1.349 . S
C528 H522 0.950 . S
C528 C529 1.327 . S
C529 H523 0.950 . S
C529 C528 1.327 . S
C529 C533 1.429 . S
C530 C513 1.574 . S
C530 H524 0.949 . S
C530 C534 1.368 . S
C531 C512 1.429 . S
C531 C525 1.429 . S
C531 C532 1.523 . S
C532 C513 1.368 . S
C532 C526 1.368 . S
C532 C531 1.523 . S
C533 C517 1.429 . S
C533 C529 1.429 . S
C533 C534 1.523 . S
C534 C518 1.368 . S
C534 C530 1.368 . S
C534 C533 1.523 . S
H535 C510 0.950 . S
H536 C512 0.950 . S
H537 C513 0.949 . S
H538 C515 0.950 . S
H539 C517 0.950 . S
C540 C541 1.349 . S
C540 C542 1.327 . S
C540 H565 0.950 . S
C541 C540 1.349 . S
C541 C557 1.349 . S
C542 C540 1.327 . S
C542 C561 1.429 . S
C542 H566 0.950 . S
C543 C560 1.574 . S
C543 C562 1.368 . S
C543 H567 0.949 . S
H544 C548 0.949 1_554 S
C545 C546 1.349 1_556 S
C545 C547 1.327 . S
C545 H568 0.950 . S
C546 C545 1.349 1_554 S
C546 C558 1.349 . S
C547 C545 1.327 . S
C547 C563 1.429 . S
C547 H569 0.950 . S
C548 H544 0.949 1_556 S
C548 C556 1.574 . S
C548 C564 1.368 . S
H549 C557 0.950 . S
H550 C555 0.950 . S
H551 C556 0.949 1_554 S
H552 C558 0.950 . S
H553 C559 0.950 . S
H554 C560 0.949 . S
C555 H550 0.950 . S
C555 C557 1.327 . S
C555 C561 1.429 . S
C556 C548 1.574 . S
C556 H551 0.949 1_556 S
C556 C562 1.368 . S
C557 C541 1.349 . S
C557 H549 0.950 . S
C557 C555 1.327 . S
C558 C546 1.349 . S
C558 H552 0.950 . S
C558 C559 1.327 . S
C559 H553 0.950 . S
C559 C558 1.327 . S
C559 C563 1.429 1_554 S
C560 C543 1.574 . S
C560 H554 0.949 . S
C560 C564 1.368 . S
C561 C542 1.429 . S
C561 C555 1.429 . S
C561 C562 1.523 . S
C562 C543 1.368 . S
C562 C556 1.368 . S
C562 C561 1.523 . S
C563 C547 1.429 . S
C563 C559 1.429 1_556 S
C563 C564 1.523 . S
C564 C548 1.368 . S
C564 C560 1.368 . S
C564 C563 1.523 . S
H565 C540 0.950 . S
H566 C542 0.950 . S
H567 C543 0.949 . S
H568 C545 0.950 . S
H569 C547 0.950 . S
C570 C571 1.349 1_554 S
C570 C572 1.327 . S
C570 H595 0.950 . S
C571 C570 1.349 1_556 S
C571 C587 1.349 . S
C572 C570 1.327 . S
C572 C591 1.429 1_554 S
C572 H596 0.950 . S
C573 C590 1.574 . S
C573 C592 1.368 . S
C573 H597 0.949 . S
H574 C578 0.949 . S
C575 C576 1.349 . S
C575 C577 1.327 . S
C575 H598 0.950 . S
C576 C575 1.349 . S
C576 C588 1.349 1_556 S
C577 C575 1.327 . S
C577 C593 1.429 . S
C577 H599 0.950 . S
C578 H574 0.949 . S
C578 C586 1.574 . S
C578 C594 1.368 1_554 S
H579 C587 0.950 . S
H580 C585 0.950 . S
H581 C586 0.949 . S
H582 C588 0.950 . S
H583 C589 0.950 . S
H584 C590 0.949 . S
C585 H580 0.950 . S
C585 C587 1.327 . S
C585 C591 1.429 . S
C586 C578 1.574 . S
C586 H581 0.949 . S
C586 C592 1.368 1_554 S
C587 C571 1.349 . S
C587 H579 0.950 . S
C587 C585 1.327 . S
C588 C576 1.349 1_554 S
C588 H582 0.950 . S
C588 C589 1.327 . S
C589 H583 0.950 . S
C589 C588 1.327 . S
C589 C593 1.429 1_554 S
C590 C573 1.574 . S
C590 H584 0.949 . S
C590 C594 1.368 . S
C591 C572 1.429 1_556 S
C591 C585 1.429 . S
C591 C592 1.523 . S
C592 C573 1.368 . S
C592 C586 1.368 1_556 S
C592 C591 1.523 . S
C593 C577 1.429 . S
C593 C589 1.429 1_556 S
C593 C594 1.523 . S
C594 C578 1.368 1_556 S
C594 C590 1.368 . S
C594 C593 1.523 . S
H595 C570 0.950 . S
H596 C572 0.950 . S
H597 C573 0.949 . S
H598 C575 0.950 . S
H599 C577 0.950 . S
C600 C601 1.349 . S
C600 C602 1.327 . S
C600 H625 0.950 . S
C601 C600 1.349 . S
C601 C617 1.349 . S
C602 C600 1.327 . S
C602 C621 1.429 . S
C602 H626 0.950 . S
C603 C620 1.574 . S
C603 C622 1.368 . S
C603 H627 0.949 . S
H604 C608 0.949 . S
C605 C606 1.349 . S
C605 C607 1.327 . S
C605 H628 0.950 . S
C606 C605 1.349 . S
C606 C618 1.349 . S
C607 C605 1.327 . S
C607 C623 1.429 . S
C607 H629 0.950 . S
C608 H604 0.949 . S
C608 C616 1.574 . S
C608 C624 1.368 . S
H609 C617 0.950 . S
H610 C615 0.950 . S
H611 C616 0.949 . S
H612 C618 0.950 . S
H613 C619 0.950 . S
H614 C620 0.949 . S
C615 H610 0.950 . S
C615 C617 1.327 . S
C615 C621 1.429 . S
C616 C608 1.574 . S
C616 H611 0.949 . S
C616 C622 1.368 . S
C617 C601 1.349 . S
C617 H609 0.950 . S
C617 C615 1.327 . S
C618 C606 1.349 . S
C618 H612 0.950 . S
C618 C619 1.327 . S
C619 H613 0.950 . S
C619 C618 1.327 . S
C619 C623 1.429 . S
C620 C603 1.574 . S
C620 H614 0.949 . S
C620 C624 1.368 . S
C621 C602 1.429 . S
C621 C615 1.429 . S
C621 C622 1.523 . S
C622 C603 1.368 . S
C622 C616 1.368 . S
C622 C621 1.523 . S
C623 C607 1.429 . S
C623 C619 1.429 . S
C623 C624 1.523 . S
C624 C608 1.368 . S
C624 C620 1.368 . S
C624 C623 1.523 . S
H625 C600 0.950 . S
H626 C602 0.950 . S
H627 C603 0.949 . S
H628 C605 0.950 . S
H629 C607 0.950 . S
C630 C631 1.349 . S
C630 C632 1.327 . S
C630 H655 0.950 . S
C631 C630 1.349 . S
C631 C647 1.349 . S
C632 C630 1.327 . S
C632 C651 1.429 . S
C632 H656 0.950 . S
C633 C650 1.574 . S
C633 C652 1.368 . S
C633 H657 0.949 . S
H634 C638 0.949 . S
C635 C636 1.349 1_554 S
C635 C637 1.327 . S
C635 H658 0.950 1_554 S
C636 C635 1.349 1_556 S
C636 C648 1.349 . S
C637 C635 1.327 . S
C637 C653 1.429 . S
C637 H659 0.950 . S
C638 H634 0.949 . S
C638 C646 1.574 . S
C638 C654 1.368 . S
H639 C647 0.950 . S
H640 C645 0.950 . S
H641 C646 0.949 . S
H642 C648 0.950 . S
H643 C649 0.950 . S
H644 C650 0.949 . S
C645 H640 0.950 . S
C645 C647 1.327 . S
C645 C651 1.429 . S
C646 C638 1.574 . S
C646 H641 0.949 . S
C646 C652 1.368 . S
C647 C631 1.349 . S
C647 H639 0.950 . S
C647 C645 1.327 . S
C648 C636 1.349 . S
C648 H642 0.950 . S
C648 C649 1.327 1_556 S
C649 H643 0.950 . S
C649 C648 1.327 1_554 S
C649 C653 1.429 . S
C650 C633 1.574 . S
C650 H644 0.949 . S
C650 C654 1.368 . S
C651 C632 1.429 . S
C651 C645 1.429 . S
C651 C652 1.523 . S
C652 C633 1.368 . S
C652 C646 1.368 . S
C652 C651 1.523 . S
C653 C637 1.429 . S
C653 C649 1.429 . S
C653 C654 1.523 . S
C654 C638 1.368 . S
C654 C650 1.368 . S
C654 C653 1.523 . S
H655 C630 0.950 . S
H656 C632 0.950 . S
H657 C633 0.949 . S
H658 C635 0.950 1_556 S
H659 C637 0.950 . S
C660 C661 1.349 . S
C660 C662 1.327 . S
C660 H685 0.950 . S
C661 C660 1.349 . S
C661 C677 1.349 . S
C662 C660 1.327 . S
C662 C681 1.429 . S
C662 H686 0.950 . S
C663 C680 1.574 . S
C663 C682 1.368 . S
C663 H687 0.949 . S
H664 C668 0.949 . S
C665 C666 1.349 . S
C665 C667 1.327 . S
C665 H688 0.950 . S
C666 C665 1.349 . S
C666 C678 1.349 . S
C667 C665 1.327 . S
C667 C683 1.429 . S
C667 H689 0.950 . S
C668 H664 0.949 . S
C668 C676 1.574 . S
C668 C684 1.368 . S
H669 C677 0.950 . S
H670 C675 0.950 . S
H671 C676 0.949 . S
H672 C678 0.950 . S
H673 C679 0.950 . S
H674 C680 0.949 . S
C675 H670 0.950 . S
C675 C677 1.327 . S
C675 C681 1.429 . S
C676 C668 1.574 . S
C676 H671 0.949 . S
C676 C682 1.368 . S
C677 C661 1.349 . S
C677 H669 0.950 . S
C677 C675 1.327 . S
C678 C666 1.349 . S
C678 H672 0.950 . S
C678 C679 1.327 . S
C679 H673 0.950 . S
C679 C678 1.327 . S
C679 C683 1.429 . S
C680 C663 1.574 . S
C680 H674 0.949 . S
C680 C684 1.368 . S
C681 C662 1.429 . S
C681 C675 1.429 . S
C681 C682 1.523 . S
C682 C663 1.368 . S
C682 C676 1.368 . S
C682 C681 1.523 . S
C683 C667 1.429 . S
C683 C679 1.429 . S
C683 C684 1.523 . S
C684 C668 1.368 . S
C684 C680 1.368 . S
C684 C683 1.523 . S
H685 C660 0.950 . S
H686 C662 0.950 . S
H687 C663 0.949 . S
H688 C665 0.950 . S
H689 C667 0.950 . S
C690 C691 1.349 . S
C690 C692 1.327 . S
C690 H715 0.950 . S
C691 C690 1.349 . S
C691 C707 1.349 . S
C692 C690 1.327 . S
C692 C711 1.429 . S
C692 H716 0.950 . S
C693 C710 1.574 . S
C693 C712 1.368 . S
C693 H717 0.949 . S
H694 C698 0.949 . S
C695 C696 1.349 . S
C695 C697 1.327 . S
C695 H718 0.950 . S
C696 C695 1.349 . S
C696 C708 1.349 . S
C697 C695 1.327 . S
C697 C713 1.429 . S
C697 H719 0.950 . S
C698 H694 0.949 . S
C698 C706 1.574 . S
C698 C714 1.368 . S
H699 C707 0.950 . S
H700 C705 0.950 . S
H701 C706 0.949 . S
H702 C708 0.950 . S
H703 C709 0.950 . S
H704 C710 0.949 . S
C705 H700 0.950 . S
C705 C707 1.327 . S
C705 C711 1.429 . S
C706 C698 1.574 . S
C706 H701 0.949 . S
C706 C712 1.368 . S
C707 C691 1.349 . S
C707 H699 0.950 . S
C707 C705 1.327 . S
C708 C696 1.349 . S
C708 H702 0.950 . S
C708 C709 1.327 . S
C709 H703 0.950 . S
C709 C708 1.327 . S
C709 C713 1.429 . S
C710 C693 1.574 . S
C710 H704 0.949 . S
C710 C714 1.368 . S
C711 C692 1.429 . S
C711 C705 1.429 . S
C711 C712 1.523 . S
C712 C693 1.368 . S
C712 C706 1.368 . S
C712 C711 1.523 . S
C713 C697 1.429 . S
C713 C709 1.429 . S
C713 C714 1.523 . S
C714 C698 1.368 . S
C714 C710 1.368 . S
C714 C713 1.523 . S
H715 C690 0.950 . S
H716 C692 0.950 . S
H717 C693 0.949 . S
H718 C695 0.950 . S
H719 C697 0.950 . S
C720 C721 1.349 . S
C720 C722 1.327 . S
C720 H745 0.950 . S
C721 C720 1.349 . S
C721 C737 1.349 . S
C722 C720 1.327 . S
C722 C741 1.429 . S
C722 H746 0.950 . S
C723 C740 1.574 . S
C723 C742 1.368 . S
C723 H747 0.949 . S
H724 C728 0.949 . S
C725 C726 1.349 . S
C725 C727 1.327 . S
C725 H748 0.950 . S
C726 C725 1.349 . S
C726 C738 1.349 . S
C727 C725 1.327 . S
C727 C743 1.429 . S
C727 H749 0.950 . S
C728 H724 0.949 . S
C728 C736 1.574 . S
C728 C744 1.368 . S
H729 C737 0.950 . S
H730 C735 0.950 . S
H731 C736 0.949 . S
H732 C738 0.950 . S
H733 C739 0.950 . S
H734 C740 0.949 . S
C735 H730 0.950 . S
C735 C737 1.327 . S
C735 C741 1.429 . S
C736 C728 1.574 . S
C736 H731 0.949 . S
C736 C742 1.368 . S
C737 C721 1.349 . S
C737 H729 0.950 . S
C737 C735 1.327 . S
C738 C726 1.349 . S
C738 H732 0.950 . S
C738 C739 1.327 . S
C739 H733 0.950 . S
C739 C738 1.327 . S
C739 C743 1.429 . S
C740 C723 1.574 . S
C740 H734 0.949 . S
C740 C744 1.368 . S
C741 C722 1.429 . S
C741 C735 1.429 . S
C741 C742 1.523 . S
C742 C723 1.368 . S
C742 C736 1.368 . S
C742 C741 1.523 . S
C743 C727 1.429 . S
C743 C739 1.429 . S
C743 C744 1.523 . S
C744 C728 1.368 . S
C744 C740 1.368 . S
C744 C743 1.523 . S
H745 C720 0.950 . S
H746 C722 0.950 . S
H747 C723 0.949 . S
H748 C725 0.950 . S
H749 C727 0.950 . S
C750 C751 1.349 . S
C750 C752 1.327 . S
C750 H775 0.950 . S
C751 C750 1.349 . S
C751 C767 1.349 . S
C752 C750 1.327 . S
C752 C771 1.429 . S
C752 H776 0.950 . S
C753 C770 1.574 . S
C753 C772 1.368 . S
C753 H777 0.949 . S
H754 C758 0.949 . S
C755 C756 1.349 . S
C755 C757 1.327 . S
C755 H778 0.950 . S
C756 C755 1.349 . S
C756 C768 1.349 . S
C757 C755 1.327 . S
C757 C773 1.429 . S
C757 H779 0.950 . S
C758 H754 0.949 . S
C758 C766 1.574 . S
C758 C774 1.368 . S
H759 C767 0.950 . S
H760 C765 0.950 . S
H761 C766 0.949 . S
H762 C768 0.950 . S
H763 C769 0.950 . S
H764 C770 0.949 . S
C765 H760 0.950 . S
C765 C767 1.327 . S
C765 C771 1.429 . S
C766 C758 1.574 . S
C766 H761 0.949 . S
C766 C772 1.368 . S
C767 C751 1.349 . S
C767 H759 0.950 . S
C767 C765 1.327 . S
C768 C756 1.349 . S
C768 H762 0.950 . S
C768 C769 1.327 . S
C769 H763 0.950 . S
C769 C768 1.327 . S
C769 C773 1.429 . S
C770 C753 1.574 . S
C770 H764 0.949 . S
C770 C774 1.368 . S
C771 C752 1.429 . S
C771 C765 1.429 . S
C771 C772 1.523 . S
C772 C753 1.368 . S
C772 C766 1.368 . S
C772 C771 1.523 . S
C773 C757 1.429 . S
C773 C769 1.429 . S
C773 C774 1.523 . S
C774 C758 1.368 . S
C774 C770 1.368 . S
C774 C773 1.523 . S
H775 C750 0.950 . S
H776 C752 0.950 . S
H777 C753 0.949 . S
H778 C755 0.950 . S
H779 C757 0.950 . S
C241 C210 1.954 . S
C246 C6 1.960 . S
C271 C10 3.567 . S
C276 C46 3.504 . S
C301 C50 3.457 . S
C306 C86 3.307 . S
C331 C130 2.612 . S
C336 C90 2.622 . S
C361 C166 2.314 . S
C366 C126 2.215 . S
C391 C170 3.029 . S
C396 C206 2.696 1_565 S
C421 C179 1.275 . S
C426 C15 1.311 . S
C451 C219 2.416 . S
C456 C55 2.377 . S
C481 C95 3.230 . S
C486 C19 3.229 . S
C511 C139 3.738 . S
C516 C59 3.768 . S
C541 C175 2.035 . S
C546 C99 2.090 . S
C571 C135 0.882 . S
C576 C215 0.884 . S
C601 C9 0.288 . S
C606 C18 0.288 . S
C631 C49 0.473 . S
C636 C58 0.473 . S
C661 C89 0.421 . S
C666 C98 0.421 . S
C691 C138 0.406 . S
C696 C129 0.406 . S
C721 C178 0.352 . S
C726 C169 0.352 . S
C751 C209 0.514 . S
C756 C218 0.514 . S
