# Generated by pormake.
# Topology umv, (4)-cn, num edge types: 1
# Building blocks:
#     Node 0, Type 0, BuildingBlock: CEKHIL_clean_sbu_0, # of connection points: 4
#     Node 1, Type 0, BuildingBlock: CEKHIL_clean_sbu_0, # of connection points: 4
#     Node 2, Type 0, BuildingBlock: CEKHIL_clean_sbu_0, # of connection points: 4
#     Node 3, Type 0, BuildingBlock: CEKHIL_clean_sbu_0, # of connection points: 4
#     Node 4, Type 0, BuildingBlock: CEKHIL_clean_sbu_0, # of connection points: 4
#     Node 5, Type 0, BuildingBlock: CEKHIL_clean_sbu_0, # of connection points: 4
#     Node 6, Type 0, BuildingBlock: CEKHIL_clean_sbu_0, # of connection points: 4
#     Node 7, Type 0, BuildingBlock: CEKHIL_clean_sbu_0, # of connection points: 4
#     Node 8, Type 0, BuildingBlock: CEKHIL_clean_sbu_0, # of connection points: 4
#     Node 9, Type 0, BuildingBlock: CEKHIL_clean_sbu_0, # of connection points: 4
#     Node 10, Type 0, BuildingBlock: CEKHIL_clean_sbu_0, # of connection points: 4
#     Node 11, Type 0, BuildingBlock: CEKHIL_clean_sbu_0, # of connection points: 4
#     Node 12, Type 0, BuildingBlock: CEKHIL_clean_sbu_0, # of connection points: 4
#     Node 13, Type 0, BuildingBlock: CEKHIL_clean_sbu_0, # of connection points: 4
#     Node 14, Type 0, BuildingBlock: CEKHIL_clean_sbu_0, # of connection points: 4
#     Node 15, Type 0, BuildingBlock: CEKHIL_clean_sbu_0, # of connection points: 4
#     Node 16, Type 0, BuildingBlock: CEKHIL_clean_sbu_0, # of connection points: 4
#     Node 17, Type 0, BuildingBlock: CEKHIL_clean_sbu_0, # of connection points: 4
#     Node 18, Type 0, BuildingBlock: CEKHIL_clean_sbu_0, # of connection points: 4
#     Node 19, Type 0, BuildingBlock: CEKHIL_clean_sbu_0, # of connection points: 4
#     Node 20, Type 0, BuildingBlock: CEKHIL_clean_sbu_0, # of connection points: 4
#     Node 21, Type 0, BuildingBlock: CEKHIL_clean_sbu_0, # of connection points: 4
#     Node 22, Type 0, BuildingBlock: CEKHIL_clean_sbu_0, # of connection points: 4
#     Node 23, Type 0, BuildingBlock: CEKHIL_clean_sbu_0, # of connection points: 4
#     Node 24, Type 0, BuildingBlock: CEKHIL_clean_sbu_0, # of connection points: 4
#     Node 25, Type 0, BuildingBlock: CEKHIL_clean_sbu_0, # of connection points: 4
#     Node 26, Type 0, BuildingBlock: CEKHIL_clean_sbu_0, # of connection points: 4
#     Node 27, Type 0, BuildingBlock: CEKHIL_clean_sbu_0, # of connection points: 4
#     Node 28, Type 0, BuildingBlock: CEKHIL_clean_sbu_0, # of connection points: 4
#     Node 29, Type 0, BuildingBlock: CEKHIL_clean_sbu_0, # of connection points: 4
#     Node 30, Type 0, BuildingBlock: CEKHIL_clean_sbu_0, # of connection points: 4
#     Node 31, Type 0, BuildingBlock: CEKHIL_clean_sbu_0, # of connection points: 4
#     Edge 32, Type (0, 0), BuildingBlock: XIVTED_clean_linker_0, # of connection points: 2
#     Edge 33, Type (0, 0), BuildingBlock: XIVTED_clean_linker_0, # of connection points: 2
#     Edge 34, Type (0, 0), BuildingBlock: XIVTED_clean_linker_0, # of connection points: 2
#     Edge 35, Type (0, 0), BuildingBlock: XIVTED_clean_linker_0, # of connection points: 2
#     Edge 36, Type (0, 0), BuildingBlock: XIVTED_clean_linker_0, # of connection points: 2
#     Edge 37, Type (0, 0), BuildingBlock: XIVTED_clean_linker_0, # of connection points: 2
#     Edge 38, Type (0, 0), BuildingBlock: XIVTED_clean_linker_0, # of connection points: 2
#     Edge 39, Type (0, 0), BuildingBlock: XIVTED_clean_linker_0, # of connection points: 2
#     Edge 40, Type (0, 0), BuildingBlock: XIVTED_clean_linker_0, # of connection points: 2
#     Edge 41, Type (0, 0), BuildingBlock: XIVTED_clean_linker_0, # of connection points: 2
#     Edge 42, Type (0, 0), BuildingBlock: XIVTED_clean_linker_0, # of connection points: 2
#     Edge 43, Type (0, 0), BuildingBlock: XIVTED_clean_linker_0, # of connection points: 2
#     Edge 44, Type (0, 0), BuildingBlock: XIVTED_clean_linker_0, # of connection points: 2
#     Edge 45, Type (0, 0), BuildingBlock: XIVTED_clean_linker_0, # of connection points: 2
#     Edge 46, Type (0, 0), BuildingBlock: XIVTED_clean_linker_0, # of connection points: 2
#     Edge 47, Type (0, 0), BuildingBlock: XIVTED_clean_linker_0, # of connection points: 2
#     Edge 48, Type (0, 0), BuildingBlock: XIVTED_clean_linker_0, # of connection points: 2
#     Edge 49, Type (0, 0), BuildingBlock: XIVTED_clean_linker_0, # of connection points: 2
#     Edge 50, Type (0, 0), BuildingBlock: XIVTED_clean_linker_0, # of connection points: 2
#     Edge 51, Type (0, 0), BuildingBlock: XIVTED_clean_linker_0, # of connection points: 2
#     Edge 52, Type (0, 0), BuildingBlock: XIVTED_clean_linker_0, # of connection points: 2
#     Edge 53, Type (0, 0), BuildingBlock: XIVTED_clean_linker_0, # of connection points: 2
#     Edge 54, Type (0, 0), BuildingBlock: XIVTED_clean_linker_0, # of connection points: 2
#     Edge 55, Type (0, 0), BuildingBlock: XIVTED_clean_linker_0, # of connection points: 2
#     Edge 56, Type (0, 0), BuildingBlock: XIVTED_clean_linker_0, # of connection points: 2
#     Edge 57, Type (0, 0), BuildingBlock: XIVTED_clean_linker_0, # of connection points: 2
#     Edge 58, Type (0, 0), BuildingBlock: XIVTED_clean_linker_0, # of connection points: 2
#     Edge 59, Type (0, 0), BuildingBlock: XIVTED_clean_linker_0, # of connection points: 2
#     Edge 60, Type (0, 0), BuildingBlock: XIVTED_clean_linker_0, # of connection points: 2
#     Edge 61, Type (0, 0), BuildingBlock: XIVTED_clean_linker_0, # of connection points: 2
#     Edge 62, Type (0, 0), BuildingBlock: XIVTED_clean_linker_0, # of connection points: 2
#     Edge 63, Type (0, 0), BuildingBlock: XIVTED_clean_linker_0, # of connection points: 2
#     Edge 64, Type (0, 0), BuildingBlock: XIVTED_clean_linker_0, # of connection points: 2
#     Edge 65, Type (0, 0), BuildingBlock: XIVTED_clean_linker_0, # of connection points: 2
#     Edge 66, Type (0, 0), BuildingBlock: XIVTED_clean_linker_0, # of connection points: 2
#     Edge 67, Type (0, 0), BuildingBlock: XIVTED_clean_linker_0, # of connection points: 2
#     Edge 68, Type (0, 0), BuildingBlock: XIVTED_clean_linker_0, # of connection points: 2
#     Edge 69, Type (0, 0), BuildingBlock: XIVTED_clean_linker_0, # of connection points: 2
#     Edge 70, Type (0, 0), BuildingBlock: XIVTED_clean_linker_0, # of connection points: 2
#     Edge 71, Type (0, 0), BuildingBlock: XIVTED_clean_linker_0, # of connection points: 2
#     Edge 72, Type (0, 0), BuildingBlock: XIVTED_clean_linker_0, # of connection points: 2
#     Edge 73, Type (0, 0), BuildingBlock: XIVTED_clean_linker_0, # of connection points: 2
#     Edge 74, Type (0, 0), BuildingBlock: XIVTED_clean_linker_0, # of connection points: 2
#     Edge 75, Type (0, 0), BuildingBlock: XIVTED_clean_linker_0, # of connection points: 2
#     Edge 76, Type (0, 0), BuildingBlock: XIVTED_clean_linker_0, # of connection points: 2
#     Edge 77, Type (0, 0), BuildingBlock: XIVTED_clean_linker_0, # of connection points: 2
#     Edge 78, Type (0, 0), BuildingBlock: XIVTED_clean_linker_0, # of connection points: 2
#     Edge 79, Type (0, 0), BuildingBlock: XIVTED_clean_linker_0, # of connection points: 2
#     Edge 80, Type (0, 0), BuildingBlock: XIVTED_clean_linker_0, # of connection points: 2
#     Edge 81, Type (0, 0), BuildingBlock: XIVTED_clean_linker_0, # of connection points: 2
#     Edge 82, Type (0, 0), BuildingBlock: XIVTED_clean_linker_0, # of connection points: 2
#     Edge 83, Type (0, 0), BuildingBlock: XIVTED_clean_linker_0, # of connection points: 2
#     Edge 84, Type (0, 0), BuildingBlock: XIVTED_clean_linker_0, # of connection points: 2
#     Edge 85, Type (0, 0), BuildingBlock: XIVTED_clean_linker_0, # of connection points: 2
#     Edge 86, Type (0, 0), BuildingBlock: XIVTED_clean_linker_0, # of connection points: 2
#     Edge 87, Type (0, 0), BuildingBlock: XIVTED_clean_linker_0, # of connection points: 2
#     Edge 88, Type (0, 0), BuildingBlock: XIVTED_clean_linker_0, # of connection points: 2
#     Edge 89, Type (0, 0), BuildingBlock: XIVTED_clean_linker_0, # of connection points: 2
#     Edge 90, Type (0, 0), BuildingBlock: XIVTED_clean_linker_0, # of connection points: 2
#     Edge 91, Type (0, 0), BuildingBlock: XIVTED_clean_linker_0, # of connection points: 2
#     Edge 92, Type (0, 0), BuildingBlock: XIVTED_clean_linker_0, # of connection points: 2
#     Edge 93, Type (0, 0), BuildingBlock: XIVTED_clean_linker_0, # of connection points: 2
#     Edge 94, Type (0, 0), BuildingBlock: XIVTED_clean_linker_0, # of connection points: 2
#     Edge 95, Type (0, 0), BuildingBlock: XIVTED_clean_linker_0, # of connection points: 2
# Relax obj value: 0.129
# Max RMSD: 0.111
# Mean RMSD: 0.111
data_MOF--net-umv--node1-CEKHIL_clean_sbu_0--edge1-XIVTED_clean_linker_0
_symmetry_space_group_name_H-M    P1
_symmetry_Int_Tables_number       1
_symmetry_cell_setting            triclinic
loop_
_symmetry_equiv_pos_as_xyz
'x, y, z'
_cell_length_a     105.03714
_cell_length_b     25.72397
_cell_length_c     57.633417
_cell_angle_alpha  89.989773
_cell_angle_beta   89.980941
_cell_angle_gamma 89.993274
loop_
_atom_site_label
_atom_site_type_symbol
_atom_site_fract_x
_atom_site_fract_y
_atom_site_fract_z
_atom_type_partial_charge
Co0 Co 0.061 0.10574 0.3126 0.0
O1 O 0.04274 0.11387 0.31037 0.0
O2 O 0.05659 0.1431 0.28457 0.0
C3 C 0.06102 0.02199 0.32385 0.0
O4 O 0.08038 0.1051 0.30864 0.0
Co5 Co 0.07409 0.07877 0.35996 0.0
O6 O 0.0897 0.07278 0.34077 0.0
C7 C 0.06276 0.18204 0.35204 0.0
C8 C 0.04481 0.13978 0.29138 0.0
C9 C 0.09024 0.08958 0.32001 0.0
O10 O 0.06194 0.17272 0.33018 0.0
O11 O 0.0662 0.14797 0.36698 0.0
O12 O 0.05982 0.03299 0.30189 0.0
O13 O 0.06106 0.06087 0.33777 0.0
Co14 Co 0.2099 0.13475 0.3157 0.0
O15 O 0.22797 0.12377 0.3126 0.0
O16 O 0.21359 0.09941 0.28676 0.0
C17 C 0.2112 0.21701 0.32854 0.0
O18 O 0.19053 0.13956 0.31262 0.0
Co19 Co 0.19759 0.15995 0.36369 0.0
O20 O 0.18212 0.17453 0.34497 0.0
C21 C 0.20742 0.05484 0.35354 0.0
C22 C 0.22546 0.10012 0.29323 0.0
C23 C 0.18106 0.15804 0.32421 0.0
O24 O 0.20839 0.06621 0.3319 0.0
O25 O 0.20441 0.08805 0.36916 0.0
O26 O 0.21166 0.20804 0.30631 0.0
O27 O 0.21084 0.17696 0.34178 0.0
Co28 Co 0.06029 0.12628 0.94392 0.0
O29 O 0.04198 0.11881 0.94579 0.0
O30 O 0.05549 0.09516 0.97324 0.0
C31 C 0.06036 0.20731 0.92896 0.0
O32 O 0.07967 0.12743 0.94857 0.0
Co33 Co 0.07427 0.1443 0.89658 0.0
O34 O 0.08939 0.15702 0.91632 0.0
C35 C 0.06209 0.04396 0.90754 0.0
C36 C 0.04379 0.09717 0.96589 0.0
C37 C 0.08967 0.14237 0.93743 0.0
O38 O 0.06138 0.05599 0.92915 0.0
O39 O 0.06566 0.07577 0.89174 0.0
O40 O 0.05899 0.20118 0.95127 0.0
O41 O 0.06069 0.16541 0.91696 0.0
Co42 Co 0.20954 0.10126 0.94194 0.0
O43 O 0.22762 0.11267 0.94472 0.0
O44 O 0.2135 0.13063 0.97206 0.0
C45 C 0.21139 0.02252 0.92525 0.0
O46 O 0.19018 0.09504 0.94564 0.0
Co47 Co 0.19639 0.0822 0.89394 0.0
O48 O 0.18116 0.0652 0.91282 0.0
C49 C 0.20742 0.18429 0.90657 0.0
C50 C 0.22529 0.13195 0.9651 0.0
C51 C 0.18047 0.07865 0.93406 0.0
O52 O 0.20769 0.17213 0.92819 0.0
O53 O 0.20455 0.15216 0.89042 0.0
O54 O 0.21179 0.02604 0.94782 0.0
O55 O 0.21032 0.06548 0.91428 0.0
Co56 Co 0.9561 0.87421 0.69309 0.0
O57 O 0.97436 0.86811 0.69592 0.0
O58 O 0.96053 0.84591 0.72313 0.0
C59 C 0.95603 0.95363 0.6766 0.0
O60 O 0.93668 0.87451 0.69676 0.0
Co61 Co 0.94279 0.88719 0.64482 0.0
O62 O 0.92731 0.90036 0.66354 0.0
C63 C 0.95589 0.79016 0.65788 0.0
C64 C 0.97232 0.84778 0.71623 0.0
C65 C 0.92679 0.88775 0.68489 0.0
O66 O 0.95558 0.80283 0.67943 0.0
O67 O 0.95255 0.82081 0.64148 0.0
O68 O 0.95699 0.94979 0.6991 0.0
O69 O 0.95601 0.91058 0.66546 0.0
Co70 Co 0.80679 0.85336 0.69026 0.0
O71 O 0.78878 0.86504 0.69372 0.0
O72 O 0.80326 0.8856 0.72001 0.0
C73 C 0.80481 0.773 0.67537 0.0
O74 O 0.82615 0.84717 0.69314 0.0
Co75 Co 0.81914 0.83077 0.64203 0.0
O76 O 0.83455 0.81375 0.66047 0.0
C77 C 0.8092 0.93519 0.65374 0.0
C78 C 0.79138 0.88627 0.71359 0.0
C79 C 0.83561 0.829 0.68142 0.0
O80 O 0.8085 0.92323 0.67535 0.0
O81 O 0.81202 0.90248 0.63778 0.0
O82 O 0.80474 0.77896 0.69783 0.0
O83 O 0.80555 0.81467 0.6633 0.0
Co84 Co 0.95785 0.85767 0.06516 0.0
O85 O 0.9759 0.87075 0.0628 0.0
O86 O 0.96171 0.8946 0.03658 0.0
C87 C 0.96016 0.77549 0.07775 0.0
O88 O 0.93847 0.85125 0.0613 0.0
Co89 Co 0.94484 0.82608 0.11185 0.0
O90 O 0.92977 0.81146 0.09224 0.0
C91 C 0.95496 0.93225 0.10435 0.0
C92 C 0.97352 0.8946 0.04344 0.0
C93 C 0.9289 0.83065 0.07193 0.0
O94 O 0.9558 0.92457 0.08235 0.0
O95 O 0.95193 0.89669 0.1189 0.0
O96 O 0.96036 0.78462 0.05549 0.0
O97 O 0.95889 0.8152 0.09091 0.0
Co98 Co 0.80869 0.88063 0.06489 0.0
O99 O 0.79053 0.87155 0.0618 0.0
O100 O 0.8047 0.84732 0.03557 0.0
C101 C 0.80738 0.96198 0.07895 0.0
O102 O 0.82814 0.88344 0.06165 0.0
Co103 Co 0.82153 0.90453 0.11258 0.0
O104 O 0.837 0.91774 0.09373 0.0
C105 C 0.81008 0.80178 0.10261 0.0
C106 C 0.79284 0.84892 0.04212 0.0
C107 C 0.83783 0.90085 0.07301 0.0
O108 O 0.80974 0.81167 0.08075 0.0
O109 O 0.81327 0.83532 0.11797 0.0
O110 O 0.80723 0.95495 0.05655 0.0
O111 O 0.80793 0.92083 0.09139 0.0
Co112 Co 0.05722 0.60242 0.81442 0.0
O113 O 0.03919 0.61724 0.81358 0.0
O114 O 0.0528 0.63636 0.78555 0.0
C115 C 0.05503 0.52185 0.82903 0.0
O116 O 0.07631 0.59379 0.80844 0.0
Co117 Co 0.0718 0.57464 0.85992 0.0
O118 O 0.08612 0.55693 0.83893 0.0
C119 C 0.06208 0.68112 0.85132 0.0
C120 C 0.04123 0.63872 0.79352 0.0
C121 C 0.08621 0.57381 0.81816 0.0
O122 O 0.0602 0.67104 0.82974 0.0
O123 O 0.06553 0.64689 0.86619 0.0
O124 O 0.05408 0.52871 0.80668 0.0
O125 O 0.05687 0.56279 0.8412 0.0
Co126 Co 0.20445 0.62219 0.81199 0.0
O127 O 0.22265 0.61025 0.81258 0.0
O128 O 0.21002 0.59124 0.78311 0.0
C129 C 0.20531 0.702 0.82809 0.0
O130 O 0.18541 0.62812 0.80446 0.0
Co131 Co 0.18822 0.64473 0.85648 0.0
O132 O 0.17469 0.66381 0.83425 0.0
C133 C 0.19985 0.54148 0.84779 0.0
C134 C 0.22139 0.59019 0.79202 0.0
C135 C 0.1752 0.64737 0.81345 0.0
O136 O 0.20179 0.55218 0.82627 0.0
O137 O 0.19566 0.57453 0.86255 0.0
O138 O 0.20724 0.69706 0.80583 0.0
O139 O 0.20349 0.65966 0.83922 0.0
Co140 Co 0.05865 0.63182 0.4401 0.0
O141 O 0.04057 0.62095 0.44289 0.0
O142 O 0.0547 0.60039 0.46982 0.0
C143 C 0.05709 0.71209 0.42503 0.0
O144 O 0.078 0.63725 0.4437 0.0
Co145 Co 0.07157 0.65257 0.39227 0.0
O146 O 0.0868 0.66962 0.41117 0.0
C147 C 0.06145 0.54856 0.40419 0.0
C148 C 0.04289 0.60016 0.46296 0.0
C149 C 0.08761 0.65481 0.43222 0.0
O150 O 0.06038 0.56149 0.42563 0.0
O151 O 0.06458 0.58054 0.38812 0.0
O152 O 0.05669 0.70619 0.44747 0.0
O153 O 0.05781 0.67038 0.41294 0.0
Co154 Co 0.20785 0.60786 0.44333 0.0
O155 O 0.22612 0.61557 0.44545 0.0
O156 O 0.21241 0.64315 0.47184 0.0
C157 C 0.2078 0.52485 0.43096 0.0
O158 O 0.18846 0.60716 0.44745 0.0
Co159 Co 0.19458 0.58412 0.39584 0.0
O160 O 0.17907 0.57614 0.41514 0.0
C161 C 0.20586 0.6871 0.40508 0.0
C162 C 0.22417 0.64007 0.46484 0.0
C163 C 0.17857 0.59207 0.43605 0.0
O164 O 0.20687 0.67614 0.42675 0.0
O165 O 0.20233 0.6541 0.38973 0.0
O166 O 0.20902 0.53444 0.45304 0.0
O167 O 0.20772 0.56461 0.41753 0.0
Co168 Co 0.95909 0.37947 0.19351 0.0
O169 O 0.97734 0.37017 0.19453 0.0
O170 O 0.96414 0.35059 0.22314 0.0
C171 C 0.95926 0.45886 0.17691 0.0
O172 O 0.93985 0.3835 0.19917 0.0
Co173 Co 0.94451 0.39403 0.14658 0.0
O174 O 0.92989 0.41148 0.16688 0.0
C175 C 0.95677 0.2947 0.15874 0.0
C176 C 0.97572 0.35045 0.21507 0.0
C177 C 0.92983 0.39911 0.18828 0.0
O178 O 0.95736 0.30796 0.1802 0.0
O179 O 0.95326 0.32555 0.14253 0.0
O180 O 0.96095 0.45486 0.19925 0.0
O181 O 0.95851 0.41582 0.16582 0.0
Co182 Co 0.81032 0.35873 0.19299 0.0
O183 O 0.79201 0.36677 0.19431 0.0
O184 O 0.80536 0.39067 0.22199 0.0
C185 C 0.81056 0.27747 0.17842 0.0
O186 O 0.8296 0.357 0.19835 0.0
Co187 Co 0.82476 0.34001 0.1462 0.0
O188 O 0.83961 0.32664 0.16656 0.0
C189 C 0.812 0.43952 0.15609 0.0
C190 C 0.79373 0.389 0.21433 0.0
C191 C 0.83967 0.34122 0.18768 0.0
O192 O 0.81156 0.42859 0.17784 0.0
O193 O 0.81569 0.40725 0.14059 0.0
O194 O 0.8089 0.28405 0.20064 0.0
O195 O 0.81098 0.31908 0.16622 0.0
Co196 Co 0.9595 0.35289 0.56425 0.0
O197 O 0.97755 0.36698 0.56346 0.0
O198 O 0.96403 0.3862 0.5353 0.0
C199 C 0.96162 0.27273 0.57924 0.0
O200 O 0.94038 0.34491 0.5583 0.0
Co201 Co 0.94475 0.32559 0.60975 0.0
O202 O 0.93049 0.30796 0.58871 0.0
C203 C 0.95519 0.43109 0.60125 0.0
C204 C 0.9756 0.38818 0.54332 0.0
C205 C 0.93044 0.32502 0.56797 0.0
O206 O 0.9567 0.42162 0.57951 0.0
O207 O 0.95169 0.39674 0.61603 0.0
O208 O 0.96255 0.27889 0.55683 0.0
O209 O 0.95972 0.31399 0.59112 0.0
Co210 Co 0.81154 0.3784 0.5619 0.0
O211 O 0.79322 0.36981 0.56089 0.0
O212 O 0.80655 0.3448 0.53335 0.0
C213 C 0.81166 0.46049 0.57542 0.0
O214 O 0.83078 0.38006 0.55618 0.0
Co215 Co 0.82624 0.40069 0.60809 0.0
O216 O 0.84102 0.41226 0.58732 0.0
C217 C 0.81417 0.29891 0.5995 0.0
C218 C 0.79493 0.34673 0.54106 0.0
C219 C 0.84094 0.39619 0.56643 0.0
O220 O 0.81299 0.30946 0.5778 0.0
O221 O 0.81808 0.33185 0.61455 0.0
O222 O 0.80993 0.45246 0.55332 0.0
O223 O 0.81224 0.41974 0.58818 0.0
Co224 Co 0.56006 0.10484 0.81202 0.0
O225 O 0.54184 0.11647 0.81158 0.0
O226 O 0.55511 0.13939 0.78361 0.0
C227 C 0.55951 0.0226 0.82552 0.0
O228 O 0.57921 0.09998 0.80568 0.0
Co229 Co 0.57489 0.07971 0.85787 0.0
O230 O 0.58947 0.06734 0.83673 0.0
C231 C 0.56405 0.18388 0.84953 0.0
C232 C 0.54355 0.13925 0.79168 0.0
C233 C 0.58933 0.08285 0.81576 0.0
O234 O 0.5624 0.1735 0.8279 0.0
O235 O 0.56769 0.15019 0.86447 0.0
O236 O 0.55765 0.03103 0.80348 0.0
O237 O 0.5606 0.06318 0.83826 0.0
Co238 Co 0.70787 0.13199 0.81454 0.0
O239 O 0.72612 0.1217 0.81384 0.0
O240 O 0.7129 0.10137 0.78538 0.0
C241 C 0.70803 0.21234 0.83004 0.0
O242 O 0.68872 0.13644 0.80841 0.0
Co243 Co 0.69306 0.14956 0.86105 0.0
O244 O 0.67842 0.16429 0.84034 0.0
C245 C 0.70488 0.04862 0.85012 0.0
C246 C 0.72445 0.10103 0.79348 0.0
C247 C 0.67858 0.15168 0.81897 0.0
O248 O 0.70587 0.06125 0.82862 0.0
O249 O 0.70131 0.08028 0.86597 0.0
O250 O 0.70995 0.20684 0.80783 0.0
O251 O 0.70718 0.17014 0.84177 0.0
Co252 Co 0.56057 0.122 0.44312 0.0
O253 O 0.54228 0.11507 0.4452 0.0
O254 O 0.55581 0.09253 0.47281 0.0
C255 C 0.56031 0.20158 0.42675 0.0
O256 O 0.57996 0.12298 0.44763 0.0
Co257 Co 0.57469 0.13867 0.39575 0.0
O258 O 0.5898 0.15207 0.41541 0.0
C259 C 0.56103 0.04118 0.40692 0.0
C260 C 0.54411 0.09411 0.46543 0.0
C261 C 0.59001 0.13784 0.43658 0.0
O262 O 0.56132 0.05147 0.42875 0.0
O263 O 0.5647 0.07316 0.39126 0.0
O264 O 0.5594 0.19769 0.44928 0.0
O265 O 0.56083 0.15859 0.41572 0.0
Co266 Co 0.70961 0.10152 0.44352 0.0
O267 O 0.72762 0.11548 0.44554 0.0
O268 O 0.71351 0.13764 0.47223 0.0
C269 C 0.71199 0.01971 0.43053 0.0
O270 O 0.69033 0.09401 0.44791 0.0
Co271 Co 0.6963 0.071 0.39712 0.0
O272 O 0.68142 0.05488 0.41705 0.0
C273 C 0.70559 0.17822 0.40519 0.0
C274 C 0.72527 0.1385 0.46512 0.0
C275 C 0.68071 0.07338 0.43751 0.0
O276 O 0.70717 0.16906 0.42694 0.0
O277 O 0.70243 0.1433 0.39043 0.0
O278 O 0.71237 0.0285 0.45279 0.0
O279 O 0.71059 0.05958 0.41746 0.0
Co280 Co 0.45854 0.87495 0.19211 0.0
O281 O 0.47672 0.8653 0.19415 0.0
O282 O 0.46305 0.84621 0.22208 0.0
C283 C 0.45935 0.95362 0.17507 0.0
O284 O 0.4392 0.87954 0.1966 0.0
Co285 Co 0.44471 0.89059 0.14439 0.0
O286 O 0.42982 0.90845 0.1639 0.0
C287 C 0.45734 0.7919 0.15696 0.0
C288 C 0.47474 0.84561 0.21458 0.0
C289 C 0.42938 0.89577 0.18525 0.0
O290 O 0.45707 0.80377 0.17861 0.0
O291 O 0.45408 0.82335 0.14079 0.0
O292 O 0.4604 0.95053 0.1976 0.0
O293 O 0.45858 0.91027 0.16435 0.0
Co294 Co 0.30938 0.85379 0.19407 0.0
O295 O 0.29108 0.86085 0.1961 0.0
O296 O 0.3047 0.88577 0.22318 0.0
C297 C 0.3097 0.77245 0.17969 0.0
O298 O 0.32871 0.85324 0.19856 0.0
Co299 Co 0.32314 0.83557 0.14657 0.0
O300 O 0.33841 0.82433 0.16617 0.0
C301 C 0.31062 0.9351 0.15718 0.0
C302 C 0.29298 0.88348 0.21596 0.0
C303 C 0.3387 0.83873 0.1873 0.0
O304 O 0.31027 0.92365 0.17888 0.0
O305 O 0.31409 0.90306 0.14142 0.0
O306 O 0.30829 0.77916 0.20197 0.0
O307 O 0.30979 0.81393 0.16738 0.0
Co308 Co 0.45937 0.85052 0.56557 0.0
O309 O 0.47748 0.86305 0.564 0.0
O310 O 0.46372 0.885 0.53669 0.0
C311 C 0.46129 0.76928 0.57966 0.0
O312 O 0.44009 0.84437 0.56058 0.0
Co313 Co 0.44538 0.82285 0.6118 0.0
O314 O 0.43061 0.80767 0.59151 0.0
C315 C 0.45617 0.92767 0.60349 0.0
C316 C 0.47541 0.88548 0.54417 0.0
C317 C 0.43025 0.82513 0.57084 0.0
O318 O 0.45716 0.91882 0.5816 0.0
O319 O 0.45287 0.89302 0.61829 0.0
O320 O 0.46191 0.77657 0.5573 0.0
O321 O 0.45985 0.81011 0.59205 0.0
Co322 Co 0.31077 0.8724 0.56446 0.0
O323 O 0.29253 0.86254 0.56356 0.0
O324 O 0.30568 0.84307 0.53489 0.0
C325 C 0.31016 0.95181 0.58107 0.0
O326 O 0.33004 0.87684 0.5587 0.0
Co327 Co 0.32552 0.8894 0.61109 0.0
O328 O 0.34006 0.90649 0.59061 0.0
C329 C 0.31323 0.7893 0.59973 0.0
C330 C 0.29411 0.84284 0.54301 0.0
C331 C 0.3401 0.89306 0.56935 0.0
O332 O 0.31263 0.80135 0.57812 0.0
O333 O 0.31678 0.82099 0.61558 0.0
O334 O 0.30867 0.94776 0.55867 0.0
O335 O 0.31124 0.90882 0.59206 0.0
Co336 Co 0.55935 0.60587 0.31492 0.0
O337 O 0.54106 0.6132 0.31325 0.0
O338 O 0.55447 0.63464 0.28523 0.0
C339 C 0.55936 0.52666 0.33159 0.0
O340 O 0.57867 0.60419 0.30986 0.0
Co341 Co 0.57375 0.59113 0.36208 0.0
O342 O 0.58865 0.57608 0.34209 0.0
C343 C 0.56005 0.68805 0.35052 0.0
C344 C 0.54282 0.63372 0.29289 0.0
C345 C 0.58873 0.58919 0.32078 0.0
O346 O 0.56029 0.67688 0.32879 0.0
O347 O 0.56376 0.65668 0.36639 0.0
O348 O 0.55811 0.53018 0.30911 0.0
O349 O 0.55983 0.56985 0.34251 0.0
Co350 Co 0.708 0.62641 0.31423 0.0
O351 O 0.72621 0.61541 0.31335 0.0
O352 O 0.71295 0.59598 0.28485 0.0
C353 C 0.70852 0.70655 0.33009 0.0
O354 O 0.68879 0.63195 0.30842 0.0
Co355 Co 0.69345 0.6442 0.36104 0.0
O356 O 0.67892 0.66154 0.34051 0.0
C357 C 0.70475 0.54248 0.34955 0.0
C358 C 0.72452 0.59525 0.29291 0.0
C359 C 0.67883 0.6486 0.31918 0.0
O360 O 0.70583 0.55548 0.3281 0.0
O361 O 0.70129 0.57406 0.36552 0.0
O362 O 0.7103 0.70138 0.30783 0.0
O363 O 0.70755 0.66412 0.34161 0.0
Co364 Co 0.55875 0.62983 0.94031 0.0
O365 O 0.5407 0.61732 0.9429 0.0
O366 O 0.55491 0.59552 0.96948 0.0
C367 C 0.55666 0.71118 0.92658 0.0
O368 O 0.57811 0.63616 0.94405 0.0
Co369 Co 0.57169 0.65669 0.89308 0.0
O370 O 0.5869 0.67212 0.91228 0.0
C371 C 0.56204 0.55073 0.90277 0.0
C372 C 0.54309 0.59516 0.96266 0.0
C373 C 0.58772 0.65504 0.93297 0.0
O374 O 0.56082 0.56118 0.92447 0.0
O375 O 0.56505 0.58466 0.88745 0.0
O376 O 0.55638 0.70343 0.94892 0.0
O377 O 0.55772 0.6706 0.91385 0.0
Co378 Co 0.70766 0.60772 0.94223 0.0
O379 O 0.72574 0.61953 0.94488 0.0
O380 O 0.71147 0.64496 0.97068 0.0
C381 C 0.70956 0.525 0.93033 0.0
O382 O 0.68826 0.60275 0.94575 0.0
Co383 Co 0.69491 0.57676 0.89536 0.0
O384 O 0.67961 0.56342 0.91466 0.0
C385 C 0.70488 0.683 0.90296 0.0
C386 C 0.72332 0.64393 0.96408 0.0
C387 C 0.67869 0.58279 0.93493 0.0
O388 O 0.70595 0.67458 0.92486 0.0
O389 O 0.70175 0.64785 0.88829 0.0
O390 O 0.70975 0.53506 0.95249 0.0
O391 O 0.7087 0.56421 0.91672 0.0
Co392 Co 0.4562 0.37178 0.69444 0.0
O393 O 0.4745 0.36294 0.69543 0.0
O394 O 0.46133 0.34254 0.72394 0.0
C395 C 0.45629 0.45153 0.67808 0.0
O396 O 0.43695 0.37484 0.70031 0.0
Co397 Co 0.4413 0.38748 0.64795 0.0
O398 O 0.42667 0.40314 0.66845 0.0
C399 C 0.45416 0.28861 0.65903 0.0
C400 C 0.47291 0.34288 0.71593 0.0
C401 C 0.42678 0.39001 0.68975 0.0
O402 O 0.45466 0.30065 0.68066 0.0
O403 O 0.45044 0.32005 0.64321 0.0
O404 O 0.45797 0.44719 0.70042 0.0
O405 O 0.45549 0.40866 0.66689 0.0
Co406 Co 0.30777 0.35138 0.69392 0.0
O407 O 0.28968 0.36477 0.69458 0.0
O408 O 0.30307 0.38568 0.72266 0.0
C409 C 0.30578 0.27043 0.67952 0.0
O410 O 0.32694 0.3443 0.69988 0.0
Co411 Co 0.32248 0.32265 0.6485 0.0
O412 O 0.33681 0.30647 0.66964 0.0
C413 C 0.31197 0.4283 0.65625 0.0
C414 C 0.2915 0.38665 0.71461 0.0
C415 C 0.33689 0.32436 0.69024 0.0
O416 O 0.31045 0.41962 0.67807 0.0
O417 O 0.31546 0.39342 0.64172 0.0
O418 O 0.30485 0.27745 0.70188 0.0
O419 O 0.30761 0.31134 0.66737 0.0
Co420 Co 0.45787 0.35719 0.06331 0.0
O421 O 0.47605 0.36778 0.06147 0.0
O422 O 0.46234 0.38841 0.03384 0.0
C423 C 0.45927 0.27743 0.07915 0.0
O424 O 0.43854 0.35265 0.05855 0.0
Co425 Co 0.44368 0.33496 0.11014 0.0
O426 O 0.42885 0.31957 0.09011 0.0
C427 C 0.45592 0.4364 0.10008 0.0
C428 C 0.47404 0.38868 0.04128 0.0
C429 C 0.42859 0.33532 0.06917 0.0
O430 O 0.45618 0.42686 0.07818 0.0
O431 O 0.45247 0.40301 0.11533 0.0
O432 O 0.46001 0.2821 0.05663 0.0
O433 O 0.45802 0.31979 0.09046 0.0
Co434 Co 0.30924 0.3767 0.06606 0.0
O435 O 0.29116 0.36361 0.06425 0.0
O436 O 0.30513 0.34243 0.03712 0.0
C437 C 0.30718 0.45772 0.08008 0.0
O438 O 0.32849 0.38338 0.06127 0.0
Co439 Co 0.32307 0.40426 0.11235 0.0
O440 O 0.3379 0.41997 0.09225 0.0
C441 C 0.31272 0.29885 0.10373 0.0
C442 C 0.29341 0.34145 0.04443 0.0
C443 C 0.33831 0.40262 0.07157 0.0
O444 O 0.31153 0.30831 0.08193 0.0
O445 O 0.31601 0.33322 0.11865 0.0
O446 O 0.30664 0.45039 0.05771 0.0
O447 O 0.3086 0.41699 0.09258 0.0
H448 H 0.10948 0.01905 0.3168 0.0
H449 H 0.16144 0.22683 0.32901 0.0
H450 H 0.10026 0.17924 0.30288 0.0
H451 H 0.171 0.07885 0.29851 0.0
H452 H 0.13899 0.21127 0.31967 0.0
H453 H 0.13203 0.03855 0.30985 0.0
C454 C 0.1122 0.05799 0.31162 0.0
C455 C 0.10306 0.09757 0.31024 0.0
C456 C 0.14604 0.18277 0.31453 0.0
C457 C 0.12878 0.1206 0.30331 0.0
C458 C 0.15883 0.19157 0.3199 0.0
C459 C 0.16806 0.15402 0.31454 0.0
C460 C 0.14241 0.13532 0.30448 0.0
C461 C 0.16417 0.10889 0.30282 0.0
C462 C 0.12504 0.06913 0.3077 0.0
C463 C 0.10705 0.1476 0.30383 0.0
N464 N 0.15159 0.10015 0.29869 0.0
N465 N 0.11967 0.15807 0.30118 0.0
H466 H 0.17089 0.15731 0.96063 0.0
H467 H 0.09922 0.05339 0.95599 0.0
H468 H 0.16065 0.01059 0.9297 0.0
H469 H 0.10919 0.21207 0.94038 0.0
H470 H 0.12188 0.03406 0.96264 0.0
H471 H 0.14829 0.17311 0.96938 0.0
C472 C 0.16395 0.12766 0.95641 0.0
C473 C 0.1676 0.08265 0.94435 0.0
C474 C 0.11902 0.07342 0.95846 0.0
C475 C 0.1419 0.10027 0.95449 0.0
C476 C 0.10613 0.08459 0.95489 0.0
C477 C 0.10239 0.13443 0.94771 0.0
C478 C 0.12814 0.1127 0.95535 0.0
C479 C 0.11172 0.17323 0.94596 0.0
C480 C 0.15108 0.13691 0.96124 0.0
C481 C 0.15819 0.04586 0.93893 0.0
N482 N 0.1242 0.16153 0.94967 0.0
N483 N 0.14576 0.05553 0.94396 0.0
H484 H 0.91685 0.79879 0.70254 0.0
H485 H 0.84561 0.907 0.70787 0.0
H486 H 0.90754 0.95858 0.68792 0.0
H487 H 0.85527 0.76043 0.67612 0.0
H488 H 0.86828 0.92132 0.71642 0.0
H489 H 0.8941 0.78067 0.70885 0.0
C490 C 0.91006 0.83043 0.70158 0.0
C491 C 0.914 0.88027 0.69482 0.0
C492 C 0.86535 0.88551 0.7081 0.0
C493 C 0.88817 0.85996 0.70205 0.0
C494 C 0.85245 0.87712 0.70336 0.0
C495 C 0.84861 0.83258 0.69115 0.0
C496 C 0.87437 0.84849 0.7011 0.0
C497 C 0.85787 0.79541 0.68543 0.0
C498 C 0.89712 0.81998 0.70496 0.0
C499 C 0.90483 0.91973 0.6932 0.0
N500 N 0.87035 0.80425 0.69038 0.0
N501 N 0.89231 0.90873 0.69672 0.0
H502 H 0.90945 0.76017 0.07266 0.0
H503 H 0.85739 0.97062 0.07372 0.0
H504 H 0.91868 0.91578 0.05063 0.0
H505 H 0.84785 0.81538 0.0517 0.0
H506 H 0.87987 0.95251 0.06538 0.0
H507 H 0.88689 0.77804 0.06501 0.0
C508 C 0.90675 0.79766 0.06566 0.0
C509 C 0.91593 0.83654 0.06224 0.0
C510 C 0.87283 0.92281 0.06186 0.0
C511 C 0.89014 0.85786 0.05431 0.0
C512 C 0.86002 0.93313 0.06661 0.0
C513 C 0.85078 0.89448 0.06332 0.0
C514 C 0.87648 0.87285 0.05461 0.0
C515 C 0.85468 0.84636 0.05427 0.0
C516 C 0.89389 0.80785 0.06131 0.0
C517 C 0.91191 0.88463 0.05332 0.0
N518 N 0.86728 0.83642 0.05078 0.0
N519 N 0.89927 0.89442 0.05023 0.0
H520 H 0.10602 0.50496 0.81916 0.0
H521 H 0.15591 0.71776 0.80925 0.0
H522 H 0.09499 0.65429 0.79179 0.0
H523 H 0.16626 0.56017 0.79234 0.0
H524 H 0.13363 0.69709 0.80065 0.0
H525 H 0.12807 0.52268 0.80769 0.0
C526 C 0.10821 0.54092 0.81021 0.0
C527 C 0.09871 0.57832 0.80651 0.0
C528 C 0.14082 0.66744 0.79811 0.0
C529 C 0.12392 0.59956 0.79408 0.0
C530 C 0.15353 0.6793 0.80295 0.0
C531 C 0.16289 0.6406 0.80148 0.0
C532 C 0.13743 0.61605 0.79269 0.0
C533 C 0.15931 0.59116 0.79353 0.0
C534 C 0.12077 0.55099 0.80363 0.0
C535 C 0.10204 0.62437 0.7949 0.0
N536 N 0.14679 0.57979 0.7901 0.0
N537 N 0.11444 0.63437 0.78968 0.0
H538 H 0.0973 0.57561 0.45832 0.0
H539 H 0.16885 0.68081 0.45468 0.0
H540 H 0.10739 0.72321 0.428 0.0
H541 H 0.15905 0.52243 0.43819 0.0
H542 H 0.14615 0.69975 0.46113 0.0
H543 H 0.1199 0.56012 0.46707 0.0
C544 C 0.10421 0.60548 0.45421 0.0
C545 C 0.10052 0.65065 0.44231 0.0
C546 C 0.14905 0.66054 0.45677 0.0
C547 C 0.12621 0.63341 0.45249 0.0
C548 C 0.16197 0.64961 0.4533 0.0
C549 C 0.16576 0.59999 0.44594 0.0
C550 C 0.13998 0.62123 0.45337 0.0
C551 C 0.15646 0.56113 0.44388 0.0
C552 C 0.11708 0.59643 0.45906 0.0
C553 C 0.10988 0.68777 0.43707 0.0
N554 N 0.14397 0.57259 0.4475 0.0
N555 N 0.12232 0.67827 0.44212 0.0
H556 H 0.92028 0.3173 0.2127 0.0
H557 H 0.84901 0.426 0.21028 0.0
H558 H 0.91062 0.47037 0.18791 0.0
H559 H 0.85901 0.27065 0.18901 0.0
H560 H 0.87154 0.44279 0.21928 0.0
H561 H 0.89765 0.3017 0.22132 0.0
C562 C 0.91346 0.34832 0.20995 0.0
C563 C 0.91725 0.39513 0.19953 0.0
C564 C 0.8687 0.40458 0.21333 0.0
C565 C 0.89156 0.37771 0.20943 0.0
C566 C 0.85588 0.39486 0.20836 0.0
C567 C 0.85223 0.34694 0.19884 0.0
C568 C 0.8778 0.36567 0.20924 0.0
C569 C 0.8615 0.30813 0.19626 0.0
C570 C 0.90059 0.33924 0.21468 0.0
C571 C 0.90803 0.43375 0.19588 0.0
N572 N 0.87389 0.3184 0.20131 0.0
N573 N 0.89558 0.42409 0.20069 0.0
H574 H 0.92172 0.40722 0.54269 0.0
H575 H 0.84955 0.3095 0.5443 0.0
H576 H 0.91053 0.25653 0.56835 0.0
H577 H 0.86088 0.46396 0.5646 0.0
H578 H 0.87193 0.28893 0.53573 0.0
H579 H 0.89936 0.42565 0.53326 0.0
C580 C 0.91463 0.37728 0.54553 0.0
C581 C 0.91792 0.33044 0.5565 0.0
C582 C 0.86942 0.32776 0.54137 0.0
C583 C 0.8925 0.35113 0.54559 0.0
C584 C 0.85668 0.33966 0.54608 0.0
C585 C 0.85343 0.38842 0.55525 0.0
C586 C 0.87885 0.36535 0.54535 0.0
C587 C 0.86304 0.42588 0.55764 0.0
C588 C 0.9019 0.388 0.5403 0.0
C589 C 0.90835 0.29327 0.56008 0.0
N590 N 0.87535 0.41348 0.55286 0.0
N591 N 0.89603 0.30454 0.5548 0.0
H592 H 0.65918 0.22191 0.81924 0.0
H593 H 0.60854 0.01195 0.81328 0.0
H594 H 0.66957 0.07048 0.79347 0.0
H595 H 0.59862 0.16855 0.79386 0.0
H596 H 0.63087 0.0308 0.80418 0.0
H597 H 0.63701 0.20491 0.80834 0.0
C598 C 0.65682 0.18567 0.81067 0.0
C599 C 0.66615 0.14751 0.80723 0.0
C600 C 0.62376 0.06057 0.80123 0.0
C601 C 0.64083 0.12702 0.79559 0.0
C602 C 0.61104 0.0498 0.8064 0.0
C603 C 0.60179 0.08878 0.80428 0.0
C604 C 0.62727 0.11124 0.79481 0.0
C605 C 0.60549 0.13739 0.79555 0.0
C606 C 0.64419 0.17598 0.80445 0.0
C607 C 0.66263 0.10098 0.79627 0.0
N608 N 0.61802 0.14779 0.79176 0.0
N609 N 0.65016 0.09137 0.79142 0.0
H610 H 0.67098 0.15667 0.46087 0.0
H611 H 0.59931 0.0522 0.45868 0.0
H612 H 0.66101 0.00387 0.43612 0.0
H613 H 0.60967 0.20705 0.43729 0.0
H614 H 0.62188 0.03387 0.46685 0.0
H615 H 0.64836 0.17374 0.46872 0.0
C616 C 0.66409 0.12608 0.45786 0.0
C617 C 0.66784 0.07888 0.4477 0.0
C618 C 0.61912 0.07228 0.46101 0.0
C619 C 0.64208 0.09802 0.4568 0.0
C620 C 0.60627 0.0829 0.45654 0.0
C621 C 0.60269 0.13118 0.44728 0.0
C622 C 0.62832 0.11065 0.4567 0.0
C623 C 0.61209 0.16934 0.44438 0.0
C624 C 0.65121 0.13602 0.46217 0.0
C625 C 0.65849 0.04086 0.44381 0.0
N626 N 0.6245 0.15823 0.44899 0.0
N627 N 0.64602 0.05132 0.44826 0.0
H628 H 0.34845 0.92754 0.20556 0.0
H629 H 0.41954 0.81728 0.21158 0.0
H630 H 0.35788 0.76781 0.19106 0.0
H631 H 0.41011 0.96636 0.18205 0.0
H632 H 0.39686 0.80334 0.22034 0.0
H633 H 0.37108 0.94529 0.21316 0.0
C634 C 0.35523 0.89583 0.20487 0.0
C635 C 0.35138 0.84614 0.19774 0.0
C636 C 0.39986 0.83966 0.21254 0.0
C637 C 0.37708 0.866 0.20648 0.0
C638 C 0.41276 0.84782 0.20772 0.0
C639 C 0.41664 0.89293 0.19599 0.0
C640 C 0.39088 0.87741 0.20605 0.0
C641 C 0.40746 0.93097 0.19102 0.0
C642 C 0.36811 0.90605 0.20902 0.0
C643 C 0.36053 0.80658 0.19655 0.0
N644 N 0.39498 0.92226 0.19596 0.0
N645 N 0.37299 0.81737 0.20079 0.0
H646 H 0.35925 0.96448 0.56835 0.0
H647 H 0.4108 0.75471 0.57049 0.0
H648 H 0.34981 0.80885 0.54679 0.0
H649 H 0.42063 0.90936 0.548 0.0
H650 H 0.38847 0.77231 0.56082 0.0
H651 H 0.3817 0.94685 0.5597 0.0
C652 C 0.36188 0.92713 0.56111 0.0
C653 C 0.3527 0.8881 0.55819 0.0
C654 C 0.39556 0.80194 0.55743 0.0
C655 C 0.37837 0.86691 0.54927 0.0
C656 C 0.40828 0.7919 0.56296 0.0
C657 C 0.41754 0.83064 0.56004 0.0
C658 C 0.39201 0.8517 0.54977 0.0
C659 C 0.41378 0.87835 0.55037 0.0
C660 C 0.37468 0.91703 0.55623 0.0
C661 C 0.3566 0.84009 0.54907 0.0
N662 N 0.40124 0.88807 0.54616 0.0
N663 N 0.3692 0.8303 0.54553 0.0
H664 H 0.66008 0.72174 0.31891 0.0
H665 H 0.60768 0.51703 0.31938 0.0
H666 H 0.66876 0.56659 0.2956 0.0
H667 H 0.59852 0.67326 0.29822 0.0
H668 H 0.63002 0.53295 0.30932 0.0
H669 H 0.63758 0.70669 0.30987 0.0
C670 C 0.65727 0.68507 0.31121 0.0
C671 C 0.66624 0.64536 0.30794 0.0
C672 C 0.62307 0.5633 0.30626 0.0
C673 C 0.64053 0.62712 0.29851 0.0
C674 C 0.61035 0.55421 0.312 0.0
C675 C 0.6013 0.59387 0.30955 0.0
C676 C 0.62684 0.61304 0.29892 0.0
C677 C 0.60523 0.64159 0.30017 0.0
C678 C 0.64445 0.67646 0.30608 0.0
C679 C 0.66213 0.5983 0.29819 0.0
N680 N 0.61778 0.65038 0.29578 0.0
N681 N 0.6495 0.5899 0.29442 0.0
H682 H 0.65904 0.5132 0.93448 0.0
H683 H 0.60739 0.72444 0.93111 0.0
H684 H 0.66863 0.66919 0.9554 0.0
H685 H 0.59763 0.5714 0.95582 0.0
H686 H 0.62986 0.70637 0.93962 0.0
H687 H 0.63652 0.53228 0.94198 0.0
C688 C 0.65642 0.55106 0.94119 0.0
C689 C 0.66569 0.58965 0.94437 0.0
C690 C 0.62276 0.67722 0.9437 0.0
C691 C 0.63996 0.61233 0.9521 0.0
C692 C 0.60996 0.68751 0.93885 0.0
C693 C 0.60066 0.64939 0.94281 0.0
C694 C 0.62633 0.62778 0.95173 0.0
C695 C 0.6045 0.60198 0.95268 0.0
C696 C 0.64358 0.56193 0.94546 0.0
C697 C 0.66178 0.63824 0.95291 0.0
N698 N 0.61709 0.59197 0.95625 0.0
N699 N 0.64917 0.64868 0.95591 0.0
H700 H 0.34599 0.40908 0.71332 0.0
H701 H 0.41782 0.30651 0.71384 0.0
H702 H 0.35657 0.25481 0.69135 0.0
H703 H 0.40714 0.45936 0.6902 0.0
H704 H 0.39535 0.28846 0.72279 0.0
H705 H 0.36845 0.42731 0.72206 0.0
C706 C 0.35296 0.37842 0.71118 0.0
C707 C 0.34946 0.33045 0.70147 0.0
C708 C 0.39802 0.32646 0.71632 0.0
C709 C 0.37502 0.35094 0.71158 0.0
C710 C 0.41082 0.33694 0.71141 0.0
C711 C 0.41428 0.38443 0.70121 0.0
C712 C 0.38874 0.3642 0.71149 0.0
C713 C 0.40482 0.42223 0.69799 0.0
C714 C 0.36576 0.38901 0.716 0.0
C715 C 0.35891 0.29236 0.69869 0.0
N716 N 0.39245 0.41122 0.70298 0.0
N717 N 0.37128 0.30351 0.70357 0.0
H718 H 0.34742 0.31957 0.0473 0.0
H719 H 0.41933 0.42063 0.0468 0.0
H720 H 0.35823 0.47103 0.07252 0.0
H721 H 0.40884 0.26634 0.06883 0.0
H722 H 0.39676 0.43962 0.03921 0.0
H723 H 0.36987 0.30157 0.03827 0.0
C724 C 0.35445 0.3497 0.05017 0.0
C725 C 0.35101 0.39675 0.06081 0.0
C726 C 0.39949 0.40117 0.04504 0.0
C727 C 0.37654 0.37659 0.05031 0.0
C728 C 0.41234 0.39014 0.04918 0.0
C729 C 0.4159 0.3419 0.05852 0.0
C730 C 0.39024 0.36322 0.04976 0.0
C731 C 0.40644 0.30404 0.0617 0.0
C732 C 0.36723 0.33923 0.04517 0.0
C733 C 0.36053 0.43417 0.06448 0.0
N734 N 0.39402 0.31557 0.05744 0.0
N735 N 0.37288 0.4232 0.05934 0.0
H736 H 0.01952 0.14318 0.30297 0.0
H737 H 1.00087 0.34561 0.20264 0.0
H738 H 0.04642 0.2029 0.25305 0.0
H739 H 0.9746 0.29324 0.25524 0.0
H740 H 0.01767 0.29397 0.22086 0.0
H741 H 1.00286 0.19638 0.28521 0.0
C742 C 0.02191 0.16717 0.28815 0.0
C743 C 0.03441 0.16843 0.27948 0.0
C744 C 1.00825 0.29395 0.22851 0.0
C745 C 0.01535 0.23007 0.25915 0.0
C746 C 0.99865 0.32364 0.21816 0.0
C747 C 0.98628 0.32383 0.22741 0.0
C748 C 1.00548 0.26384 0.24823 0.0
C749 C 0.98399 0.29443 0.24752 0.0
C750 C 0.0124 0.19779 0.27808 0.0
C751 C 0.03693 0.2005 0.26029 0.0
N752 N 0.99347 0.26546 0.25717 0.0
N753 N 0.02751 0.23006 0.25082 0.0
H754 H 0.25092 0.09742 0.30271 0.0
H755 H 0.26758 0.88658 0.2048 0.0
H756 H 0.22289 0.03503 0.25563 0.0
H757 H 0.29465 0.94412 0.25488 0.0
H758 H 0.25103 0.93992 0.22299 0.0
H759 H 0.26709 0.04284 0.28456 0.0
C760 C 0.24817 0.07252 0.28841 0.0
C761 C 0.2355 0.07089 0.28068 0.0
C762 C 0.26058 0.94067 0.23007 0.0
C763 C 0.25403 0.00752 0.25991 0.0
C764 C 0.27003 0.91002 0.21976 0.0
C765 C 0.28255 0.91084 0.22832 0.0
C766 C 0.26367 0.97266 0.24901 0.0
C767 C 0.28515 0.94211 0.24771 0.0
C768 C 0.25742 0.0411 0.27811 0.0
C769 C 0.23254 0.03772 0.26209 0.0
N770 N 0.27582 0.9719 0.25729 0.0
N771 N 0.24172 0.00724 0.25239 0.0
H772 H 0.04499 0.04186 0.00652 0.0
H773 H 0.97147 0.95548 0.00427 0.0
H774 H 0.0185 0.09254 0.95399 0.0
H775 H 0.99876 0.90097 0.05465 0.0
H776 H 0.98831 0.00731 0.98592 0.0
H777 H 0.02787 -0.00716 0.02516 0.0
C778 C 0.03555 0.04311 0.99901 0.0
C779 C 0.03321 0.0714 0.97862 0.0
C780 C 0.99061 0.98386 1.00095 0.0
C781 C 0.01351 0.01471 0.99981 0.0
C782 C 0.98101 0.95408 0.01138 0.0
C783 C 0.98369 0.92364 0.03101 0.0
C784 C 1.003 0.98332 0.01023 0.0
C785 C 0.99622 0.9237 0.03953 0.0
C786 C 0.02577 0.01485 0.00962 0.0
C787 C 0.02076 0.0713 0.96967 0.0
N788 N 1.00537 0.95305 0.02915 0.0
N789 N 0.0114 0.0433 0.98026 0.0
H790 H 0.22313 0.18503 0.00633 0.0
H791 H 0.29545 0.28624 0.00388 0.0
H792 H 0.25046 0.1416 0.95389 0.0
H793 H 0.26841 0.32936 0.05688 0.0
H794 H 0.27903 0.23316 0.98533 0.0
H795 H 0.23963 0.23661 0.02565 0.0
C796 C 0.23262 0.18589 0.999 0.0
C797 C 0.2354 0.15894 0.97844 0.0
C798 C 0.27666 0.25435 1.00099 0.0
C799 C 0.25431 0.21844 1.0003 0.0
C800 C 0.28603 0.28489 0.01153 0.0
C801 C 0.28331 0.31243 0.03195 0.0
C802 C 0.26445 0.25117 0.01092 0.0
C803 C 0.27094 0.30892 0.04113 0.0
C804 C 0.24203 0.21557 0.00998 0.0
C805 C 0.24787 0.16172 0.96969 0.0
N806 N 0.26199 0.27881 0.03059 0.0
N807 N 0.25682 0.19105 0.9806 0.0
H808 H 0.97074 0.79548 0.75763 0.0
H809 H 0.04303 0.69465 0.75309 0.0
H810 H 0.99753 0.84035 0.70452 0.0
H811 H 0.0164 0.65183 0.80681 0.0
H812 H 0.02655 0.74863 0.73517 0.0
H813 H 0.98751 0.74482 0.77655 0.0
C814 C 0.98018 0.79519 0.75008 0.0
C815 C 0.98271 0.82219 0.72942 0.0
C816 C 0.02429 0.72732 0.75084 0.0
C817 C 1.00195 0.76358 0.75084 0.0
C818 C 0.03369 0.69625 0.76103 0.0
C819 C 0.03109 0.66848 0.78145 0.0
C820 C 0.01218 0.73074 0.76114 0.0
C821 C 0.01883 0.6724 0.79103 0.0
C822 C 0.98975 0.766 0.76083 0.0
C823 C 0.99513 0.82016 0.72041 0.0
N824 N 0.00985 0.70293 0.78082 0.0
N825 N 1.00425 0.79117 0.73109 0.0
H826 H 0.74951 0.09148 0.80648 0.0
H827 H 0.766 0.8919 0.70393 0.0
H828 H 0.72304 0.04584 0.75301 0.0
H829 H 0.79407 0.94621 0.7529 0.0
H830 H 0.75 0.94543 0.72309 0.0
H831 H 0.76593 0.03795 0.78792 0.0
C832 C 0.74718 0.07061 0.79073 0.0
C833 C 0.73486 0.07323 0.78128 0.0
C834 C 0.75964 0.94563 0.72974 0.0
C835 C 0.75356 0.01127 0.76015 0.0
C836 C 0.76879 0.91478 0.71886 0.0
C837 C 0.78143 0.91453 0.72679 0.0
C838 C 0.76309 0.97672 0.74876 0.0
C839 C 0.78445 0.94509 0.74623 0.0
C840 C 0.75654 0.03988 0.7802 0.0
C841 C 0.73238 0.04516 0.7609 0.0
N842 N 0.77535 0.97509 0.75651 0.0
N843 N 0.74161 0.01526 0.75111 0.0
H844 H 0.72116 0.70525 1.00297 0.0
H845 H 0.79482 0.78986 1.00254 0.0
H846 H 0.74866 0.64892 0.95334 0.0
H847 H 0.76744 0.84539 0.05255 0.0
H848 H 0.77794 0.73944 0.98375 0.0
H849 H 0.73795 0.75693 0.02139 0.0
C850 C 0.73074 0.70343 0.99605 0.0
C851 C 0.73349 0.6726 0.97659 0.0
C852 C 0.77561 0.76284 0.99878 0.0
C853 C 0.75276 0.73212 0.99745 0.0
C854 C 0.78524 0.79186 0.00944 0.0
C855 C 0.78256 0.82196 0.02916 0.0
C856 C 0.76318 0.7638 0.00789 0.0
C857 C 0.76996 0.82277 0.0374 0.0
C858 C 0.74032 0.73314 0.00651 0.0
C859 C 0.74608 0.67204 0.96831 0.0
N860 N 0.76078 0.79406 0.02679 0.0
N861 N 0.75521 0.70136 0.97873 0.0
H862 H 0.246 0.57903 0.80718 0.0
H863 H 0.26677 0.39722 0.70057 0.0
H864 H 0.22121 0.53933 0.75021 0.0
H865 H 0.29238 0.44101 0.75573 0.0
H866 H 0.24994 0.44806 0.71897 0.0
H867 H 0.26311 0.52912 0.78881 0.0
C868 C 0.24418 0.56016 0.79072 0.0
C869 C 0.23213 0.56348 0.78022 0.0
C870 C 0.25922 0.44652 0.72712 0.0
C871 C 0.25168 0.50571 0.75918 0.0
C872 C 0.26885 0.41726 0.71665 0.0
C873 C 0.28103 0.41469 0.72662 0.0
C874 C 0.26173 0.4736 0.74779 0.0
C875 C 0.28313 0.44174 0.74745 0.0
C876 C 0.25395 0.53149 0.78027 0.0
C877 C 0.23033 0.53798 0.75893 0.0
N878 N 0.27359 0.47009 0.75732 0.0
N879 N 0.23996 0.51012 0.74918 0.0
H880 H 0.01771 0.59234 0.45168 0.0
H881 H 1.00039 0.40098 0.55684 0.0
H882 H 0.04489 0.5449 0.50367 0.0
H883 H 0.97404 0.44281 0.50253 0.0
H884 H 0.0167 0.45452 0.5382 0.0
H885 H 1.00142 0.54051 0.47106 0.0
C886 C 0.02024 0.57137 0.46731 0.0
C887 C 0.03271 0.57298 0.47604 0.0
C888 C 1.00737 0.45185 0.5303 0.0
C889 C 0.01406 0.51289 0.49827 0.0
C890 C 0.99805 0.4211 0.54088 0.0
C891 C 0.98582 0.41723 0.5312 0.0
C892 C 1.00444 0.47918 0.50988 0.0
C893 C 0.98334 0.44446 0.51058 0.0
C894 C 0.01092 0.54154 0.47833 0.0
C895 C 0.0354 0.54487 0.49634 0.0
N896 N 0.99255 0.47432 0.50066 0.0
N897 N 0.02617 0.51585 0.50672 0.0
H898 H 0.24938 0.64375 0.4528 0.0
H899 H 0.26905 0.8372 0.55595 0.0
H900 H 0.22292 0.69975 0.50433 0.0
H901 H 0.29495 0.78772 0.5022 0.0
H902 H 0.25207 0.78727 0.53737 0.0
H903 H 0.26626 0.69462 0.47115 0.0
C904 C 0.24713 0.66642 0.4681 0.0
C905 C 0.23469 0.66734 0.47704 0.0
C906 C 0.26144 0.78748 0.52955 0.0
C907 C 0.25402 0.72632 0.49807 0.0
C908 C 0.27115 0.81619 0.54012 0.0
C909 C 0.28348 0.81674 0.53063 0.0
C910 C 0.26404 0.75876 0.50936 0.0
C911 C 0.28561 0.78858 0.51012 0.0
C912 C 0.25678 0.69571 0.47851 0.0
C913 C 0.23236 0.6977 0.49685 0.0
N914 N 0.27602 0.76061 0.50025 0.0
N915 N 0.24191 0.72599 0.50666 0.0
H916 H 0.76868 0.39645 0.20127 0.0
H917 H 0.74952 0.58695 0.30595 0.0
H918 H 0.79478 0.44445 0.25494 0.0
H919 H 0.72341 0.54055 0.25202 0.0
H920 H 0.76623 0.53567 0.28728 0.0
H921 H 0.75191 0.44787 0.21981 0.0
C922 C 0.77086 0.41741 0.21707 0.0
C923 C 0.78317 0.41599 0.22657 0.0
C924 C 0.75687 0.53681 0.27946 0.0
C925 C 0.76401 0.47561 0.24778 0.0
C926 C 0.74731 0.56631 0.29007 0.0
C927 C 0.73502 0.56815 0.28055 0.0
C928 C 0.75414 0.50863 0.25916 0.0
C929 C 0.73274 0.54042 0.25997 0.0
C930 C 0.76129 0.44701 0.2276 0.0
C931 C 0.78543 0.44422 0.24702 0.0
N932 N 0.74218 0.51171 0.25003 0.0
N933 N 0.77598 0.47292 0.25687 0.0
H934 H 0.79605 0.29161 0.50051 0.0
H935 H 0.72321 0.19716 0.50492 0.0
H936 H 0.76985 0.33853 0.55423 0.0
H937 H 0.75036 0.14741 0.45329 0.0
H938 H 0.73991 0.2498 0.52321 0.0
H939 H 0.77911 0.24067 0.48251 0.0
C940 C 0.7867 0.29159 0.50843 0.0
C941 C 0.78439 0.31949 0.52893 0.0
C942 C 0.74221 0.22721 0.50792 0.0
C943 C 0.76489 0.26056 0.50846 0.0
C944 C 0.73269 0.19697 0.49753 0.0
C945 C 0.73538 0.16771 0.47755 0.0
C946 C 0.75451 0.22831 0.49824 0.0
C947 C 0.74783 0.16924 0.46868 0.0
C948 C 0.77702 0.26224 0.49818 0.0
C949 C 0.77206 0.31772 0.53842 0.0
N950 N 0.75689 0.19904 0.47902 0.0
N951 N 0.7628 0.28866 0.52816 0.0
H952 H 0.47215 0.29234 0.75785 0.0
H953 H 0.54456 0.19335 0.75071 0.0
H954 H 0.49779 0.33245 0.70216 0.0
H955 H 0.51875 0.15089 0.80578 0.0
H956 H 0.52762 0.2449 0.73284 0.0
H957 H 0.48923 0.24239 0.77621 0.0
C958 C 0.4814 0.29108 0.74958 0.0
C959 C 0.48351 0.31672 0.72841 0.0
C960 C 0.52563 0.2242 0.74879 0.0
C961 C 0.50313 0.25894 0.74925 0.0
C962 C 0.5353 0.19454 0.75897 0.0
C963 C 0.53309 0.16757 0.77978 0.0
C964 C 0.51362 0.22714 0.75947 0.0
C965 C 0.5209 0.17086 0.78972 0.0
C966 C 0.49115 0.2623 0.76003 0.0
C967 C 0.49571 0.31342 0.71848 0.0
N968 N 0.51165 0.20013 0.77952 0.0
N969 N 0.50502 0.28497 0.72893 0.0
H970 H 0.50047 0.89354 0.55658 0.0
H971 H 0.51895 0.08805 0.45309 0.0
H972 H 0.47381 0.94376 0.50423 0.0
H973 H 0.5453 0.03879 0.50613 0.0
H974 H 0.50222 0.0369 0.47182 0.0
H975 H 0.51697 0.94616 0.53816 0.0
C976 C 0.49809 0.91535 0.5411 0.0
C977 C 0.48571 0.91409 0.53194 0.0
C978 C 0.51164 0.03747 0.47945 0.0
C979 C 0.50462 0.97512 0.51081 0.0
C980 C 0.5212 0.06692 0.46882 0.0
C981 C 0.53358 0.06784 0.47805 0.0
C982 C 0.51444 0.00848 0.49947 0.0
C983 C 0.53591 0.03941 0.49841 0.0
C984 C 0.50753 0.94562 0.53063 0.0
C985 C 0.48322 0.94339 0.51187 0.0
N986 N 0.52646 0.01079 0.50836 0.0
N987 N 0.49257 0.97275 0.50203 0.0
H988 H 0.49984 0.83763 0.20245 0.0
H989 H 0.51778 0.64216 0.30586 0.0
H990 H 0.47311 0.78964 0.25513 0.0
H991 H 0.54405 0.68842 0.2521 0.0
H992 H 0.50126 0.69513 0.28752 0.0
H993 H 0.51621 0.78451 0.22094 0.0
C994 C 0.49743 0.81632 0.21806 0.0
C995 C 0.48506 0.8182 0.22724 0.0
C996 C 0.51061 0.6935 0.27966 0.0
C997 C 0.5038 0.75649 0.24842 0.0
C998 C 0.52005 0.66299 0.29005 0.0
C999 C 0.53234 0.66071 0.28049 0.0
C1000 C 0.51347 0.72218 0.25956 0.0
C1001 C 0.53471 0.68882 0.26006 0.0
C1002 C 0.50679 0.78572 0.22855 0.0
C1003 C 0.48252 0.78954 0.24747 0.0
N1004 N 0.52539 0.71849 0.25035 0.0
N1005 N 0.49179 0.75974 0.25732 0.0
H1006 H 0.47243 0.44275 1.00035 0.0
H1007 H 0.54518 0.53895 1.00311 0.0
H1008 H 0.4991 0.39847 0.05374 0.0
H1009 H 0.51793 0.58636 0.95123 0.0
H1010 H 0.52852 0.48733 0.02202 0.0
H1011 H 0.48916 0.4941 0.98171 0.0
C1012 C 0.48183 0.44341 0.00805 0.0
C1013 C 0.48435 0.41612 0.02862 0.0
C1014 C 0.52618 0.50919 0.00654 0.0
C1015 C 0.50357 0.47543 0.00749 0.0
C1016 C 0.53568 0.53885 0.99579 0.0
C1017 C 0.53297 0.56707 0.97554 0.0
C1018 C 0.51387 0.50757 0.99694 0.0
C1019 C 0.52048 0.56527 0.9668 0.0
C1020 C 0.49138 0.47299 0.99746 0.0
C1021 C 0.49672 0.41876 0.03786 0.0
N1022 N 0.51144 0.53597 0.97749 0.0
N1023 N 0.50584 0.44794 0.02728 0.0
H1024 H 0.05975 0.46351 0.43271 0.0
H1025 H 0.05495 0.26568 0.32639 0.0
H1026 H 0.05785 0.50971 0.36069 0.0
H1027 H 0.06411 0.2191 0.39652 0.0
H1028 H 0.05202 0.35454 0.33995 0.0
H1029 H 0.05747 0.37281 0.42076 0.0
C1030 C 0.05876 0.45465 0.41442 0.0
C1031 C 0.05921 0.49408 0.39762 0.0
C1032 C 0.05461 0.32477 0.35237 0.0
C1033 C 0.05656 0.39086 0.38394 0.0
C1034 C 0.05631 0.27403 0.34465 0.0
C1035 C 0.06003 0.23506 0.36026 0.0
C1036 C 0.05666 0.3366 0.37584 0.0
C1037 C 0.06142 0.24804 0.38379 0.0
C1038 C 0.05747 0.40294 0.40763 0.0
C1039 C 0.05779 0.48047 0.3742 0.0
N1040 N 0.05985 0.2979 0.39084 0.0
N1041 N 0.0566 0.42992 0.36805 0.0
H1042 H 0.21175 0.77119 0.43219 0.0
H1043 H 0.21088 0.96966 0.32572 0.0
H1044 H 0.20616 0.72525 0.36076 0.0
H1045 H 0.20899 0.01635 0.39768 0.0
H1046 H 0.21297 0.87938 0.33809 0.0
H1047 H 0.21459 0.86082 0.41942 0.0
C1048 C 0.21118 0.77983 0.41382 0.0
C1049 C 0.20849 0.74077 0.39755 0.0
C1050 C 0.21216 0.90949 0.35115 0.0
C1051 C 0.21176 0.84312 0.3829 0.0
C1052 C 0.21097 0.96103 0.34411 0.0
C1053 C 0.20954 0.00055 0.36069 0.0
C1054 C 0.21196 0.89749 0.3749 0.0
C1055 C 0.20986 0.98708 0.38428 0.0
C1056 C 0.2128 0.83101 0.40657 0.0
C1057 C 0.20802 0.7542 0.37396 0.0
N1058 N 0.21096 0.93659 0.39068 0.0
N1059 N 0.20955 0.80438 0.36736 0.0
H1060 H 0.06004 0.95739 0.93497 0.0
H1061 H 0.05497 0.76672 0.82611 0.0
H1062 H 0.05736 0.0091 0.86379 0.0
H1063 H 0.06419 0.71679 0.89576 0.0
H1064 H 0.05209 0.85505 0.8406 0.0
H1065 H 0.05753 0.86775 0.92174 0.0
C1066 C 0.0588 0.94994 0.91661 0.0
C1067 C 0.05919 -0.0095 0.90039 0.0
C1068 C 0.05469 0.82461 0.85268 0.0
C1069 C 0.05634 0.8886 0.88521 0.0
C1070 C 0.05638 0.77426 0.84442 0.0
C1071 C 0.06002 0.73447 0.85967 0.0
C1072 C 0.05665 0.83507 0.87632 0.0
C1073 C 0.06154 0.74634 0.88329 0.0
C1074 C 0.0574 0.89885 0.90907 0.0
C1075 C 0.05741 0.97882 0.87684 0.0
N1076 N 0.05992 0.79569 0.89086 0.0
N1077 N 0.05617 0.92882 0.86993 0.0
H1078 H 0.21052 0.45991 0.82399 0.0
H1079 H 0.20669 0.27154 0.93372 0.0
H1080 H 0.19689 0.50532 0.89186 0.0
H1081 H 0.21402 0.21926 0.86373 0.0
H1082 H 0.20774 0.36137 0.92011 0.0
H1083 H 0.21591 0.37445 0.8397 0.0
C1084 C 0.20863 0.45193 0.84212 0.0
C1085 C 0.20306 0.48948 0.85653 0.0
C1086 C 0.20925 0.33015 0.9078 0.0
C1087 C 0.20935 0.39258 0.87458 0.0
C1088 C 0.20869 0.27899 0.91558 0.0
C1089 C 0.20991 0.23815 0.89968 0.0
C1090 C 0.21106 0.34008 0.88405 0.0
C1091 C 0.21266 0.24977 0.87643 0.0
C1092 C 0.21179 0.40337 0.8511 0.0
C1093 C 0.20103 0.4774 0.88001 0.0
N1094 N 0.21298 0.29979 0.86923 0.0
N1095 N 0.20412 0.42987 0.88825 0.0
H1096 H 0.95721 0.70409 0.68575 0.0
H1097 H 0.9641 0.51525 0.57697 0.0
H1098 H 0.96335 0.75617 0.61534 0.0
H1099 H 0.95291 0.46582 0.64575 0.0
H1100 H 0.96816 0.60214 0.59225 0.0
H1101 H 0.9604 0.61455 0.67289 0.0
C1102 C 0.95939 0.69673 0.66767 0.0
C1103 C 0.95963 0.73722 0.65143 0.0
C1104 C 0.96489 0.57207 0.60398 0.0
C1105 C 0.96323 0.63558 0.63667 0.0
C1106 C 0.9625 0.52261 0.59525 0.0
C1107 C 0.95792 0.48352 0.61001 0.0
C1108 C 0.96266 0.58232 0.62756 0.0
C1109 C 0.95625 0.49494 0.63363 0.0
C1110 C 0.96119 0.64572 0.66033 0.0
C1111 C 0.96269 0.7258 0.6283 0.0
N1112 N 0.95851 0.54348 0.64163 0.0
N1113 N 0.96421 0.67586 0.62153 0.0
H1114 H 0.80795 0.0214 0.68159 0.0
H1115 H 0.80616 0.21567 0.57367 0.0
H1116 H 0.80537 0.9724 0.61001 0.0
H1117 H 0.81467 0.26252 0.64402 0.0
H1118 H 0.80199 0.12778 0.58761 0.0
H1119 H 0.80644 0.11176 0.66887 0.0
C1120 C 0.80696 0.02959 0.66324 0.0
C1121 C 0.80706 0.98946 0.64678 0.0
C1122 C 0.80471 0.15745 0.59997 0.0
C1123 C 0.80532 0.0923 0.63219 0.0
C1124 C 0.80713 0.20757 0.59203 0.0
C1125 C 0.81101 0.24626 0.60763 0.0
C1126 C 0.8062 0.14608 0.62365 0.0
C1127 C 0.8119 0.23374 0.63129 0.0
C1128 C 0.80611 0.08111 0.656 0.0
C1129 C 0.80561 0.00221 0.62326 0.0
N1130 N 0.80961 0.18456 0.63855 0.0
N1131 N 0.80491 0.05261 0.61665 0.0
H1132 H 0.96444 0.26049 0.11647 0.0
H1133 H 0.95441 0.96393 0.14962 0.0
H1134 H 0.95634 0.20759 0.18605 0.0
H1135 H 0.962 0.01909 0.0801 0.0
H1136 H 0.95814 0.0512 0.16433 0.0
H1137 H 0.96699 0.17075 0.10418 0.0
C1138 C 0.96325 0.22985 0.12919 0.0
C1139 C 0.95986 0.24118 0.15216 0.0
C1140 C 0.95907 0.0441 0.14589 0.0
C1141 C 0.96268 0.13853 0.13819 0.0
C1142 C 0.95688 -0.00567 0.13742 0.0
C1143 C 0.95766 0.98441 0.1135 0.0
C1144 C 0.962 0.08421 0.13032 0.0
C1145 C 0.96109 0.02513 0.09862 0.0
C1146 C 0.96475 0.17866 0.12218 0.0
C1147 C 0.95879 0.2003 0.16809 0.0
N1148 N 0.96303 0.07342 0.10727 0.0
N1149 N 0.95999 0.15048 0.1607 0.0
H1150 H 0.8072 0.47152 0.11188 0.0
H1151 H 0.80635 0.7694 0.14718 0.0
H1152 H 0.80827 0.52641 0.18272 0.0
H1153 H 0.80647 0.71428 0.07633 0.0
H1154 H 0.80327 0.68068 0.16054 0.0
H1155 H 0.80314 0.55978 0.09882 0.0
C1156 C 0.80655 0.50216 0.12472 0.0
C1157 C 0.8084 0.4919 0.14839 0.0
C1158 C 0.80386 0.68802 0.14207 0.0
C1159 C 0.80375 0.59294 0.13351 0.0
C1160 C 0.80568 0.73865 0.1344 0.0
C1161 C 0.80699 0.74904 0.11061 0.0
C1162 C 0.80345 0.64749 0.12584 0.0
C1163 C 0.80572 0.70789 0.09485 0.0
C1164 C 0.80417 0.55251 0.11724 0.0
C1165 C 0.80711 0.53279 0.16428 0.0
N1166 N 0.80419 0.65869 0.10279 0.0
N1167 N 0.80503 0.5818 0.1565 0.0
H1168 H 0.56402 0.21859 0.89429 0.0
H1169 H 0.55918 0.51604 0.85834 0.0
H1170 H 0.55886 0.27071 0.82359 0.0
H1171 H 0.56052 0.46282 0.92943 0.0
H1172 H 0.55762 0.42624 0.84545 0.0
H1173 H 0.5614 0.30752 0.90759 0.0
C1174 C 0.56231 0.24871 0.88153 0.0
C1175 C 0.56184 0.23728 0.85773 0.0
C1176 C 0.55817 0.4342 0.86387 0.0
C1177 C 0.55881 0.33925 0.87293 0.0
C1178 C 0.55912 0.48545 0.87126 0.0
C1179 C 0.56018 0.49684 0.89499 0.0
C1180 C 0.5584 0.39404 0.88031 0.0
C1181 C 0.55982 0.45575 0.91095 0.0
C1182 C 0.56076 0.2995 0.88918 0.0
C1183 C 0.55942 0.27783 0.84208 0.0
N1184 N 0.55909 0.40602 0.90329 0.0
N1185 N 0.5581 0.3272 0.84996 0.0
H1186 H 0.70442 0.71643 0.85788 0.0
H1187 H 0.71042 0.01361 0.89346 0.0
H1188 H 0.71086 0.76996 0.92801 0.0
H1189 H 0.70585 0.96172 0.82267 0.0
H1190 H 0.71303 0.92387 0.90568 0.0
H1191 H 0.70717 0.8051 0.84401 0.0
C1192 C 0.70645 0.74675 0.87038 0.0
C1193 C 0.7072 0.73589 0.89421 0.0
C1194 C 0.71154 0.93201 0.88744 0.0
C1195 C 0.71038 0.83732 0.87839 0.0
C1196 C 0.70999 0.98325 0.88046 0.0
C1197 C 0.70765 -0.00509 0.85709 0.0
C1198 C 0.7106 0.89209 0.87098 0.0
C1199 C 0.7075 0.95425 0.84091 0.0
C1200 C 0.70807 0.79734 0.8624 0.0
C1201 C 0.71003 0.77661 0.90952 0.0
N1202 N 0.70878 0.90439 0.84823 0.0
N1203 N 0.71141 0.82566 0.90135 0.0
H1204 H 0.55503 0.77331 0.32345 0.0
H1205 H 0.55476 0.95652 0.43353 0.0
H1206 H 0.55426 0.71895 0.3944 0.0
H1207 H 0.55616 0.01078 0.36257 0.0
H1208 H 0.54929 0.86998 0.41936 0.0
H1209 H 0.55011 0.86074 0.33722 0.0
C1210 C 0.55371 0.77967 0.34187 0.0
C1211 C 0.55553 0.73939 0.35789 0.0
C1212 C 0.55065 0.90106 0.40693 0.0
C1213 C 0.54991 0.83872 0.37371 0.0
C1214 C 0.55383 0.95034 0.41501 0.0
C1215 C 0.55638 0.99031 0.39917 0.0
C1216 C 0.55012 0.89196 0.3829 0.0
C1217 C 0.55471 0.98061 0.37539 0.0
C1218 C 0.55086 0.82947 0.34973 0.0
C1219 C 0.55339 0.74935 0.38151 0.0
N1220 N 0.55188 0.93215 0.36796 0.0
N1221 N 0.5509 0.79827 0.38875 0.0
H1222 H 0.71269 0.26421 0.43004 0.0
H1223 H 0.70598 0.45608 0.32175 0.0
H1224 H 0.70307 0.21357 0.36068 0.0
H1225 H 0.70958 0.50634 0.39298 0.0
H1226 H 0.70848 0.36598 0.33461 0.0
H1227 H 0.71503 0.35265 0.41551 0.0
C1228 C 0.71108 0.27161 0.41177 0.0
C1229 C 0.70749 0.23156 0.39663 0.0
C1230 C 0.7088 0.39688 0.34736 0.0
C1231 C 0.71019 0.3325 0.37992 0.0
C1232 C 0.7074 0.44819 0.34003 0.0
C1233 C 0.70732 0.4885 0.35639 0.0
C1234 C 0.7102 0.38619 0.37113 0.0
C1235 C 0.7093 0.4763 0.37984 0.0
C1236 C 0.71245 0.32208 0.40347 0.0
C1237 C 0.70571 0.24333 0.37305 0.0
N1238 N 0.71058 0.42617 0.38652 0.0
N1239 N 0.707 0.29288 0.36544 0.0
H1240 H 0.46302 0.52135 0.0744 0.0
H1241 H 0.46031 0.70576 0.18443 0.0
H1242 H 0.45828 0.46775 0.145 0.0
H1243 H 0.46396 0.75966 0.11371 0.0
H1244 H 0.46441 0.61726 0.17109 0.0
H1245 H 0.46804 0.60776 0.08922 0.0
C1246 C 0.46308 0.52767 0.09298 0.0
C1247 C 0.45984 0.4878 0.10845 0.0
C1248 C 0.46446 0.64863 0.15855 0.0
C1249 C 0.46562 0.58601 0.12547 0.0
C1250 C 0.46209 0.69904 0.16616 0.0
C1251 C 0.46135 0.73962 0.15002 0.0
C1252 C 0.46602 0.63916 0.1347 0.0
C1253 C 0.46401 0.72912 0.12664 0.0
C1254 C 0.46601 0.57686 0.10144 0.0
C1255 C 0.46037 0.49773 0.13238 0.0
N1256 N 0.46604 0.6797 0.11961 0.0
N1257 N 0.46302 0.54609 0.14015 0.0
H1258 H 0.30497 0.96894 0.1136 0.0
H1259 H 0.3126 0.26525 0.14867 0.0
H1260 H 0.30914 0.02221 0.18429 0.0
H1261 H 0.30644 0.21255 0.07832 0.0
H1262 H 0.30885 0.1774 0.16248 0.0
H1263 H 0.30264 0.05863 0.10096 0.0
C1264 C 0.30532 -0.00045 0.12649 0.0
C1265 C 0.30757 0.98834 0.14995 0.0
C1266 C 0.30822 0.18509 0.14404 0.0
C1267 C 0.30495 0.0909 0.13559 0.0
C1268 C 0.31044 0.23523 0.13609 0.0
C1269 C 0.31005 0.24609 0.11224 0.0
C1270 C 0.30569 0.14544 0.12802 0.0
C1271 C 0.30701 0.20579 0.09683 0.0
C1272 C 0.30394 0.05072 0.11926 0.0
C1273 C 0.30761 0.02927 0.16598 0.0
N1274 N 0.30506 0.15703 0.105 0.0
N1275 N 0.30652 0.07898 0.15843 0.0
H1276 H 0.46087 0.25744 0.61569 0.0
H1277 H 0.45807 0.95829 0.64869 0.0
H1278 H 0.45609 0.20074 0.68572 0.0
H1279 H 0.46074 0.01628 0.57845 0.0
H1280 H 0.46107 0.04616 0.66314 0.0
H1281 H 0.46475 0.16908 0.60263 0.0
C1282 C 0.46067 0.22631 0.62835 0.0
C1283 C 0.45782 0.23609 0.65172 0.0
C1284 C 0.46109 0.03962 0.64457 0.0
C1285 C 0.46223 0.13496 0.63686 0.0
C1286 C 0.45931 0.98948 0.63627 0.0
C1287 C 0.45886 0.98014 0.61228 0.0
C1288 C 0.46234 0.08071 0.62879 0.0
C1289 C 0.46082 0.02184 0.59706 0.0
C1290 C 0.46294 0.17591 0.62088 0.0
C1291 C 0.45806 0.19465 0.66748 0.0
N1292 N 0.46233 0.07054 0.6056 0.0
N1293 N 0.46002 0.14556 0.65967 0.0
H1294 H 0.31175 0.45888 0.61093 0.0
H1295 H 0.30613 0.75789 0.6428 0.0
H1296 H 0.30638 0.51686 0.68067 0.0
H1297 H 0.3124 0.701 0.57321 0.0
H1298 H 0.30276 0.66923 0.65593 0.0
H1299 H 0.30881 0.54635 0.59605 0.0
C1300 C 0.30993 0.48999 0.62315 0.0
C1301 C 0.30956 0.48073 0.64716 0.0
C1302 C 0.30479 0.67606 0.63776 0.0
C1303 C 0.30614 0.58091 0.63013 0.0
C1304 C 0.30677 0.72663 0.63026 0.0
C1305 C 0.30987 0.73648 0.607 0.0
C1306 C 0.30606 0.63504 0.62194 0.0
C1307 C 0.31021 0.69486 0.59136 0.0
C1308 C 0.30819 0.5399 0.61459 0.0
C1309 C 0.30693 0.52236 0.66207 0.0
N1310 N 0.30852 0.64565 0.59921 0.0
N1311 N 0.30545 0.57086 0.6533 0.0
H1312 H 0.03931 0.74254 0.3946 0.0
H1313 H 0.08021 0.98458 0.35019 0.0
H1314 H 0.07447 0.79113 0.42627 0.0
H1315 H 0.04391 0.94259 0.32102 0.0
H1316 H 0.07914 0.90946 0.37585 0.0
H1317 H 0.04096 0.81434 0.36698 0.0
C1318 C 0.04721 0.76947 0.39606 0.0
C1319 C 0.0566 0.7621 0.41298 0.0
C1320 C 0.07147 0.91606 0.36364 0.0
C1321 C 0.05891 0.84264 0.38083 0.0
C1322 C 0.07216 0.9586 0.34877 0.0
C1323 C 0.06219 0.96935 0.33336 0.0
C1324 C 0.06059 0.88451 0.36339 0.0
C1325 C 0.0519 0.93491 0.33238 0.0
C1326 C 0.04824 0.80991 0.38012 0.0
C1327 C 0.06685 0.79672 0.41386 0.0
N1328 N 0.05128 0.89423 0.34745 0.0
N1329 N 0.06779 0.83546 0.39785 0.0
H1330 H 0.18767 0.48274 0.40848 0.0
H1331 H 0.23104 0.26561 0.34843 0.0
H1332 H 0.22647 0.45212 0.42826 0.0
H1333 H 0.1909 0.28105 0.33503 0.0
H1334 H 0.22979 0.3379 0.37596 0.0
H1335 H 0.18845 0.40934 0.38159 0.0
C1336 C 0.19624 0.45949 0.40761 0.0
C1337 C 0.20695 0.47272 0.42081 0.0
C1338 C 0.22127 0.32614 0.36677 0.0
C1339 C 0.20816 0.39033 0.38934 0.0
C1340 C 0.22205 0.28562 0.35077 0.0
C1341 C 0.21113 0.26874 0.33906 0.0
C1342 C 0.20944 0.34938 0.37133 0.0
C1343 C 0.19959 0.29422 0.34327 0.0
C1344 C 0.19674 0.41799 0.39207 0.0
C1345 C 0.21792 0.44221 0.41874 0.0
N1346 N 0.19901 0.33326 0.35917 0.0
N1347 N 0.2183 0.40269 0.40307 0.0
H1348 H 0.06615 0.42854 0.81707 0.0
H1349 H 0.04891 0.29997 0.94044 0.0
H1350 H 0.04312 0.50326 0.86923 0.0
H1351 H 0.0733 0.22825 0.88946 0.0
H1352 H 0.04698 0.37622 0.91496 0.0
H1353 H 0.06834 0.35272 0.84286 0.0
C1354 C 0.06129 0.42825 0.83365 0.0
C1355 C 0.05439 0.47165 0.84107 0.0
C1356 C 0.05285 0.34387 0.90948 0.0
C1357 C 0.05708 0.38664 0.87078 0.0
C1358 C 0.05407 0.30079 0.92417 0.0
C1359 C 0.06118 0.25773 0.91695 0.0
C1360 C 0.05882 0.34354 0.88755 0.0
C1361 C 0.06756 0.26032 0.89556 0.0
C1362 C 0.06267 0.38553 0.84852 0.0
C1363 C 0.04852 0.47025 0.86294 0.0
N1364 N 0.06616 0.30223 0.88155 0.0
N1365 N 0.05003 0.42861 0.87706 0.0
H1366 H 0.21737 0.01294 0.88007 0.0
H1367 H 0.19757 0.71547 0.87239 0.0
H1368 H 0.2055 0.9224 0.93931 0.0
H1369 H 0.21305 0.80027 0.81417 0.0
H1370 H 0.19948 0.79203 0.89629 0.0
H1371 H 0.21551 0.93654 0.85565 0.0
C1372 C 0.21443 0.97668 0.88801 0.0
C1373 C 0.21151 0.97396 0.91178 0.0
C1374 C 0.20243 0.79423 0.8783 0.0
C1375 C 0.20929 0.88619 0.88367 0.0
C1376 C 0.20127 0.75047 0.86445 0.0
C1377 C 0.20518 0.75134 0.84111 0.0
C1378 C 0.20756 0.83967 0.8689 0.0
C1379 C 0.20989 0.79797 0.83202 0.0
C1380 C 0.21337 0.9331 0.87397 0.0
C1381 C 0.20787 0.92604 0.92111 0.0
N1382 N 0.21101 0.84042 0.84603 0.0
N1383 N 0.20678 0.88393 0.90693 0.0
H1384 H 0.97083 0.25892 0.62207 0.0
H1385 H 0.94707 0.96641 0.63293 0.0
H1386 H 0.95356 0.17502 0.56545 0.0
H1387 H 0.96368 0.05188 0.68979 0.0
H1388 H 0.94898 0.04235 0.60838 0.0
H1389 H 0.96876 0.18273 0.64661 0.0
C1390 C 0.96674 0.22394 0.61471 0.0
C1391 C 0.96233 0.22308 0.59172 0.0
C1392 C 0.95214 0.04481 0.62624 0.0
C1393 C 0.95973 0.13578 0.61997 0.0
C1394 C 0.951 0.00144 0.64041 0.0
C1395 C 0.9553 0.00269 0.6635 0.0
C1396 C 0.95769 0.09001 0.63509 0.0
C1397 C 0.96022 0.04934 0.67214 0.0
C1398 C 0.96549 0.18057 0.62882 0.0
C1399 C 0.95717 0.17696 0.58302 0.0
N1400 N 0.96139 0.09118 0.65782 0.0
N1401 N 0.95591 0.13502 0.59729 0.0
H1402 H 0.82782 0.48835 0.60968 0.0
H1403 H 0.79024 0.74975 0.63874 0.0
H1404 H 0.79728 0.54761 0.56735 0.0
H1405 H 0.81932 0.68563 0.68301 0.0
H1406 H 0.79278 0.67656 0.61228 0.0
H1407 H 0.82586 0.56333 0.63513 0.0
C1408 C 0.82084 0.51779 0.6055 0.0
C1409 C 0.81267 0.51182 0.58644 0.0
C1410 C 0.79852 0.67795 0.62787 0.0
C1411 C 0.8101 0.59718 0.61594 0.0
C1412 C 0.79697 0.71936 0.6431 0.0
C1413 C 0.80446 0.72305 0.66317 0.0
C1414 C 0.80778 0.64019 0.63254 0.0
C1415 C 0.81319 0.68341 0.66794 0.0
C1416 C 0.81965 0.5604 0.62018 0.0
C1417 C 0.80384 0.55115 0.58175 0.0
N1418 N 0.81469 0.64364 0.65257 0.0
N1419 N 0.80268 0.59202 0.59662 0.0
H1420 H 0.96927 0.55459 0.18799 0.0
H1421 H 0.94894 0.68206 0.06604 0.0
H1422 H 0.94729 0.47445 0.13585 0.0
H1423 H 0.97404 0.7549 0.11547 0.0
H1424 H 0.94815 0.60458 0.09115 0.0
H1425 H 0.97023 0.63067 0.16224 0.0
C1426 C 0.96447 0.55335 0.17136 0.0
C1427 C 0.95827 0.50815 0.164 0.0
C1428 C 0.95396 0.63735 0.09631 0.0
C1429 C 0.95948 0.59398 0.13437 0.0
C1430 C 0.95454 0.68104 0.08181 0.0
C1431 C 0.96159 0.72442 0.08876 0.0
C1432 C 0.96047 0.63766 0.11773 0.0
C1433 C 0.96846 0.722 0.1096 0.0
C1434 C 0.96513 0.59639 0.15654 0.0
C1435 C 0.95231 0.50825 0.14217 0.0
N1436 N 0.96767 0.67959 0.12342 0.0
N1437 N 0.9531 0.55032 0.12811 0.0
H1438 H 0.79881 0.18505 0.18907 0.0
H1439 H 0.8201 0.05294 0.06858 0.0
H1440 H 0.82478 0.2558 0.14046 0.0
H1441 H 0.79397 0.98335 0.11721 0.0
H1442 H 0.82189 0.12881 0.09446 0.0
H1443 H 0.79768 0.1084 0.16371 0.0
C1444 C 0.80448 0.18392 0.17338 0.0
C1445 C 0.8118 0.22684 0.16674 0.0
C1446 C 0.81565 0.09711 0.09931 0.0
C1447 C 0.81036 0.14056 0.13746 0.0
C1448 C 0.81451 0.05437 0.08437 0.0
C1449 C 0.80683 0.01238 0.09081 0.0
C1450 C 0.80904 0.09736 0.12063 0.0
C1451 C 0.8 0.01521 0.1117 0.0
C1452 C 0.80372 0.14062 0.15874 0.0
C1453 C 0.81886 0.22386 0.14607 0.0
N1454 N 0.8013 0.05678 0.1259 0.0
N1455 N 0.8179 0.18172 0.13209 0.0
H1456 H 0.53921 0.73835 0.89495 0.0
H1457 H 0.57756 -0.00875 0.85579 0.0
H1458 H 0.57239 0.79561 0.93061 0.0
H1459 H 0.54348 0.93898 0.82139 0.0
H1460 H 0.57643 0.91717 0.88183 0.0
H1461 H 0.5404 0.81168 0.8681 0.0
C1462 C 0.54654 0.76746 0.89746 0.0
C1463 C 0.55556 0.76187 0.9152 0.0
C1464 C 0.56925 0.92136 0.86847 0.0
C1465 C 0.55736 0.84443 0.88397 0.0
C1466 C 0.56997 0.96344 0.85339 0.0
C1467 C 0.56062 0.97109 0.83635 0.0
C1468 C 0.55899 0.88683 0.86676 0.0
C1469 C 0.55097 0.93395 0.8341 0.0
C1470 C 0.54733 0.80883 0.88196 0.0
C1471 C 0.56507 0.79953 0.91749 0.0
N1472 N 0.55031 0.89358 0.84936 0.0
N1473 N 0.56579 0.83914 0.90187 0.0
H1474 H 0.7276 0.49528 0.90042 0.0
H1475 H 0.69119 0.23607 0.8639 0.0
H1476 H 0.69376 0.44085 0.93494 0.0
H1477 H 0.72233 0.30077 0.82469 0.0
H1478 H 0.69206 0.30963 0.89028 0.0
H1479 H 0.72673 0.42056 0.87438 0.0
C1480 C 0.7202 0.46647 0.9029 0.0
C1481 C 0.71088 0.47333 0.92003 0.0
C1482 C 0.69863 0.30821 0.87581 0.0
C1483 C 0.70946 0.38914 0.88969 0.0
C1484 C 0.69809 0.26633 0.86061 0.0
C1485 C 0.70671 0.26241 0.84209 0.0
C1486 C 0.70801 0.34626 0.87271 0.0
C1487 C 0.71543 0.30275 0.83862 0.0
C1488 C 0.71959 0.42435 0.88782 0.0
C1489 C 0.70129 0.43597 0.92229 0.0
N1490 N 0.71596 0.34287 0.85401 0.0
N1491 N 0.70077 0.39548 0.9071 0.0
H1492 H 0.56352 0.51823 0.37774 0.0
H1493 H 0.56042 0.20995 0.38011 0.0
H1494 H 0.55794 0.42459 0.31636 0.0
H1495 H 0.56148 0.30381 0.44225 0.0
H1496 H 0.56103 0.28771 0.3567 0.0
H1497 H 0.56446 0.44032 0.40109 0.0
C1498 C 0.56256 0.48115 0.36904 0.0
C1499 C 0.56062 0.47799 0.34492 0.0
C1500 C 0.56115 0.29156 0.37541 0.0
C1501 C 0.56159 0.38811 0.372 0.0
C1502 C 0.56084 0.24707 0.38895 0.0
C1503 C 0.56091 0.25032 0.41333 0.0
C1504 C 0.56156 0.34015 0.38617 0.0
C1505 C 0.56139 0.29957 0.42357 0.0
C1506 C 0.56306 0.43659 0.38255 0.0
C1507 C 0.55944 0.42878 0.33485 0.0
N1508 N 0.5617 0.34277 0.40988 0.0
N1509 N 0.5599 0.38559 0.3485 0.0
H1510 H 0.72828 -0.005 0.3966 0.0
H1511 H 0.69294 0.72935 0.36607 0.0
H1512 H 0.69784 0.93144 0.4379 0.0
H1513 H 0.72237 0.79589 0.32322 0.0
H1514 H 0.69447 0.80299 0.39225 0.0
H1515 H 0.727 0.92014 0.37073 0.0
C1516 C 0.72154 0.96429 0.40052 0.0
C1517 C 0.71328 0.96867 0.41952 0.0
C1518 C 0.70054 0.80191 0.37707 0.0
C1519 C 0.71138 0.88402 0.38948 0.0
C1520 C 0.69963 0.75993 0.36197 0.0
C1521 C 0.70758 0.75646 0.34246 0.0
C1522 C 0.7096 0.84069 0.37281 0.0
C1523 C 0.71599 0.79741 0.33796 0.0
C1524 C 0.7207 0.92199 0.38558 0.0
C1525 C 0.70456 0.9287 0.42369 0.0
N1526 N 0.71688 0.83772 0.35321 0.0
N1527 N 0.70375 0.88807 0.40861 0.0
H1528 H 0.46293 0.26846 0.12512 0.0
H1529 H 0.45554 0.9615 0.1288 0.0
H1530 H 0.45646 0.17555 0.06381 0.0
H1531 H 0.46178 0.05561 0.18983 0.0
H1532 H 0.45547 0.03892 0.10507 0.0
H1533 H 0.46249 0.19094 0.14868 0.0
C1534 C 0.4614 0.23153 0.11652 0.0
C1535 C 0.45963 0.22849 0.09237 0.0
C1536 C 0.45682 0.04287 0.12362 0.0
C1537 C 0.45915 0.13897 0.11965 0.0
C1538 C 0.45681 -0.00139 0.13734 0.0
C1539 C 0.45866 0.00205 0.16148 0.0
C1540 C 0.45873 0.09131 0.13397 0.0
C1541 C 0.46031 0.05123 0.17134 0.0
C1542 C 0.46116 0.18719 0.13012 0.0
C1543 C 0.45786 0.17954 0.08233 0.0
N1544 N 0.46035 0.0941 0.15748 0.0
N1545 N 0.45762 0.13646 0.0961 0.0
H1546 H 0.29805 0.6799 0.19038 0.0
H1547 H 0.31912 0.55002 0.06934 0.0
H1548 H 0.32401 0.75101 0.14189 0.0
H1549 H 0.29379 0.47751 0.11852 0.0
H1550 H 0.3207 0.62577 0.0953 0.0
H1551 H 0.2969 0.60342 0.1649 0.0
C1552 C 0.30372 0.67886 0.17469 0.0
C1553 C 0.31104 0.72183 0.1681 0.0
C1554 C 0.31467 0.59348 0.10024 0.0
C1555 C 0.30957 0.63586 0.13868 0.0
C1556 C 0.31363 0.55083 0.08526 0.0
C1557 C 0.30625 0.50808 0.09184 0.0
C1558 C 0.30825 0.59288 0.12176 0.0
C1559 C 0.29957 0.51005 0.1129 0.0
C1560 C 0.30295 0.63568 0.15998 0.0
C1561 C 0.31809 0.71902 0.14744 0.0
N1562 N 0.30076 0.55158 0.12716 0.0
N1563 N 0.31711 0.67703 0.13339 0.0
H1564 H 0.44458 0.46789 0.63685 0.0
H1565 H 0.47344 0.75153 0.61965 0.0
H1566 H 0.46668 0.5468 0.68916 0.0
H1567 H 0.45069 0.67452 0.56776 0.0
H1568 H 0.47167 0.67563 0.64458 0.0
H1569 H 0.44645 0.54302 0.61171 0.0
C1570 C 0.44972 0.50135 0.64322 0.0
C1571 C 0.45555 0.50093 0.66517 0.0
C1572 C 0.46715 0.67485 0.6277 0.0
C1573 C 0.45791 0.58725 0.63605 0.0
C1574 C 0.46824 0.71798 0.61335 0.0
C1575 C 0.46223 0.719 0.59161 0.0
C1576 C 0.45989 0.6323 0.62039 0.0
C1577 C 0.45559 0.67486 0.58428 0.0
C1578 C 0.45084 0.54425 0.62871 0.0
C1579 C 0.462 0.54563 0.67245 0.0
N1580 N 0.4545 0.63323 0.5988 0.0
N1581 N 0.46311 0.58695 0.65779 0.0
H1582 H 0.30277 0.0501 0.5672 0.0
H1583 H 0.31311 0.17244 0.6944 0.0
H1584 H 0.31779 0.96456 0.62556 0.0
H1585 H 0.29701 0.25573 0.63643 0.0
H1586 H 0.31457 0.09439 0.66974 0.0
H1587 H 0.30099 0.1271 0.59225 0.0
C1588 C 0.30585 0.04773 0.58511 0.0
C1589 C 0.3104 0.00093 0.59427 0.0
C1590 C 0.31062 0.12977 0.66253 0.0
C1591 C 0.30824 0.08791 0.62306 0.0
C1592 C 0.30968 0.17392 0.67669 0.0
C1593 C 0.305 0.22031 0.66736 0.0
C1594 C 0.30682 0.13255 0.63907 0.0
C1595 C 0.30081 0.22067 0.64421 0.0
C1596 C 0.30474 0.09139 0.59948 0.0
C1597 C 0.31417 -0.00026 0.6177 0.0
N1598 N 0.30188 0.17767 0.63085 0.0
N1599 N 0.31297 0.04241 0.63126 0.0
loop_
_geom_bond_atom_site_label_1
_geom_bond_atom_site_label_2
_geom_bond_distance
_geom_bond_site_symmetry_2
_ccdc_geom_bond_type
Co0 O1 2.216 . S
Co0 O2 2.091 . S
Co0 O4 2.004 . S
Co0 O10 2.021 . S
Co0 O12 2.137 . S
Co0 O13 2.244 . S
O1 Co0 2.216 . S
O1 C8 1.247 . S
O2 Co0 2.091 . S
O2 C8 1.261 . S
C3 O12 1.247 . S
C3 O13 1.272 . S
O4 Co0 2.004 . S
O4 C9 1.259 . S
Co5 O6 2.061 . S
Co5 O11 2.052 . S
Co5 O13 2.135 . S
O6 Co5 2.061 . S
O6 C9 1.235 . S
C7 O10 1.238 . S
C7 O11 1.241 . S
C8 O1 1.247 . S
C8 O2 1.261 . S
C9 O4 1.259 . S
C9 O6 1.235 . S
O10 Co0 2.021 . S
O10 C7 1.238 . S
O11 Co5 2.052 . S
O11 C7 1.241 . S
O12 Co0 2.137 . S
O12 C3 1.247 . S
O13 Co0 2.244 . S
O13 C3 1.272 . S
O13 Co5 2.135 . S
Co14 O15 2.216 . S
Co14 O16 2.091 . S
Co14 O18 2.004 . S
Co14 O24 2.021 . S
Co14 O26 2.137 . S
Co14 O27 2.244 . S
O15 Co14 2.216 . S
O15 C22 1.247 . S
O16 Co14 2.091 . S
O16 C22 1.261 . S
C17 O26 1.247 . S
C17 O27 1.272 . S
O18 Co14 2.004 . S
O18 C23 1.259 . S
Co19 O20 2.061 . S
Co19 O25 2.052 . S
Co19 O27 2.135 . S
O20 Co19 2.061 . S
O20 C23 1.235 . S
C21 O24 1.238 . S
C21 O25 1.241 . S
C22 O15 1.247 . S
C22 O16 1.261 . S
C23 O18 1.259 . S
C23 O20 1.235 . S
O24 Co14 2.021 . S
O24 C21 1.238 . S
O25 Co19 2.052 . S
O25 C21 1.241 . S
O26 Co14 2.137 . S
O26 C17 1.247 . S
O27 Co14 2.244 . S
O27 C17 1.272 . S
O27 Co19 2.135 . S
Co28 O29 2.216 . S
Co28 O30 2.091 . S
Co28 O32 2.004 . S
Co28 O38 2.021 . S
Co28 O40 2.137 . S
Co28 O41 2.244 . S
O29 Co28 2.216 . S
O29 C36 1.247 . S
O30 Co28 2.091 . S
O30 C36 1.261 . S
C31 O40 1.247 . S
C31 O41 1.272 . S
O32 Co28 2.004 . S
O32 C37 1.259 . S
Co33 O34 2.061 . S
Co33 O39 2.052 . S
Co33 O41 2.135 . S
O34 Co33 2.061 . S
O34 C37 1.235 . S
C35 O38 1.238 . S
C35 O39 1.241 . S
C36 O29 1.247 . S
C36 O30 1.261 . S
C37 O32 1.259 . S
C37 O34 1.235 . S
O38 Co28 2.021 . S
O38 C35 1.238 . S
O39 Co33 2.052 . S
O39 C35 1.241 . S
O40 Co28 2.137 . S
O40 C31 1.247 . S
O41 Co28 2.244 . S
O41 C31 1.272 . S
O41 Co33 2.135 . S
Co42 O43 2.216 . S
Co42 O44 2.091 . S
Co42 O46 2.004 . S
Co42 O52 2.021 . S
Co42 O54 2.137 . S
Co42 O55 2.244 . S
O43 Co42 2.216 . S
O43 C50 1.247 . S
O44 Co42 2.091 . S
O44 C50 1.261 . S
C45 O54 1.247 . S
C45 O55 1.272 . S
O46 Co42 2.004 . S
O46 C51 1.259 . S
Co47 O48 2.061 . S
Co47 O53 2.052 . S
Co47 O55 2.135 . S
O48 Co47 2.061 . S
O48 C51 1.235 . S
C49 O52 1.238 . S
C49 O53 1.241 . S
C50 O43 1.247 . S
C50 O44 1.261 . S
C51 O46 1.259 . S
C51 O48 1.235 . S
O52 Co42 2.021 . S
O52 C49 1.238 . S
O53 Co47 2.052 . S
O53 C49 1.241 . S
O54 Co42 2.137 . S
O54 C45 1.247 . S
O55 Co42 2.244 . S
O55 C45 1.272 . S
O55 Co47 2.135 . S
Co56 O57 2.216 . S
Co56 O58 2.091 . S
Co56 O60 2.004 . S
Co56 O66 2.021 . S
Co56 O68 2.137 . S
Co56 O69 2.244 . S
O57 Co56 2.216 . S
O57 C64 1.247 . S
O58 Co56 2.091 . S
O58 C64 1.261 . S
C59 O68 1.247 . S
C59 O69 1.272 . S
O60 Co56 2.004 . S
O60 C65 1.259 . S
Co61 O62 2.061 . S
Co61 O67 2.052 . S
Co61 O69 2.135 . S
O62 Co61 2.061 . S
O62 C65 1.235 . S
C63 O66 1.238 . S
C63 O67 1.241 . S
C64 O57 1.247 . S
C64 O58 1.261 . S
C65 O60 1.259 . S
C65 O62 1.235 . S
O66 Co56 2.021 . S
O66 C63 1.238 . S
O67 Co61 2.052 . S
O67 C63 1.241 . S
O68 Co56 2.137 . S
O68 C59 1.247 . S
O69 Co56 2.244 . S
O69 C59 1.272 . S
O69 Co61 2.135 . S
Co70 O71 2.216 . S
Co70 O72 2.091 . S
Co70 O74 2.004 . S
Co70 O80 2.021 . S
Co70 O82 2.137 . S
Co70 O83 2.244 . S
O71 Co70 2.216 . S
O71 C78 1.247 . S
O72 Co70 2.091 . S
O72 C78 1.261 . S
C73 O82 1.247 . S
C73 O83 1.272 . S
O74 Co70 2.004 . S
O74 C79 1.259 . S
Co75 O76 2.061 . S
Co75 O81 2.052 . S
Co75 O83 2.135 . S
O76 Co75 2.061 . S
O76 C79 1.235 . S
C77 O80 1.238 . S
C77 O81 1.241 . S
C78 O71 1.247 . S
C78 O72 1.261 . S
C79 O74 1.259 . S
C79 O76 1.235 . S
O80 Co70 2.021 . S
O80 C77 1.238 . S
O81 Co75 2.052 . S
O81 C77 1.241 . S
O82 Co70 2.137 . S
O82 C73 1.247 . S
O83 Co70 2.244 . S
O83 C73 1.272 . S
O83 Co75 2.135 . S
Co84 O85 2.216 . S
Co84 O86 2.091 . S
Co84 O88 2.004 . S
Co84 O94 2.021 . S
Co84 O96 2.137 . S
Co84 O97 2.244 . S
O85 Co84 2.216 . S
O85 C92 1.247 . S
O86 Co84 2.091 . S
O86 C92 1.261 . S
C87 O96 1.247 . S
C87 O97 1.272 . S
O88 Co84 2.004 . S
O88 C93 1.259 . S
Co89 O90 2.061 . S
Co89 O95 2.052 . S
Co89 O97 2.135 . S
O90 Co89 2.061 . S
O90 C93 1.235 . S
C91 O94 1.238 . S
C91 O95 1.241 . S
C92 O85 1.247 . S
C92 O86 1.261 . S
C93 O88 1.259 . S
C93 O90 1.235 . S
O94 Co84 2.021 . S
O94 C91 1.238 . S
O95 Co89 2.052 . S
O95 C91 1.241 . S
O96 Co84 2.137 . S
O96 C87 1.247 . S
O97 Co84 2.244 . S
O97 C87 1.272 . S
O97 Co89 2.135 . S
Co98 O99 2.216 . S
Co98 O100 2.091 . S
Co98 O102 2.004 . S
Co98 O108 2.021 . S
Co98 O110 2.137 . S
Co98 O111 2.244 . S
O99 Co98 2.216 . S
O99 C106 1.247 . S
O100 Co98 2.091 . S
O100 C106 1.261 . S
C101 O110 1.247 . S
C101 O111 1.272 . S
O102 Co98 2.004 . S
O102 C107 1.259 . S
Co103 O104 2.061 . S
Co103 O109 2.052 . S
Co103 O111 2.135 . S
O104 Co103 2.061 . S
O104 C107 1.235 . S
C105 O108 1.238 . S
C105 O109 1.241 . S
C106 O99 1.247 . S
C106 O100 1.261 . S
C107 O102 1.259 . S
C107 O104 1.235 . S
O108 Co98 2.021 . S
O108 C105 1.238 . S
O109 Co103 2.052 . S
O109 C105 1.241 . S
O110 Co98 2.137 . S
O110 C101 1.247 . S
O111 Co98 2.244 . S
O111 C101 1.272 . S
O111 Co103 2.135 . S
Co112 O113 2.216 . S
Co112 O114 2.091 . S
Co112 O116 2.004 . S
Co112 O122 2.021 . S
Co112 O124 2.137 . S
Co112 O125 2.244 . S
O113 Co112 2.216 . S
O113 C120 1.247 . S
O114 Co112 2.091 . S
O114 C120 1.261 . S
C115 O124 1.247 . S
C115 O125 1.272 . S
O116 Co112 2.004 . S
O116 C121 1.259 . S
Co117 O118 2.061 . S
Co117 O123 2.052 . S
Co117 O125 2.135 . S
O118 Co117 2.061 . S
O118 C121 1.235 . S
C119 O122 1.238 . S
C119 O123 1.241 . S
C120 O113 1.247 . S
C120 O114 1.261 . S
C121 O116 1.259 . S
C121 O118 1.235 . S
O122 Co112 2.021 . S
O122 C119 1.238 . S
O123 Co117 2.052 . S
O123 C119 1.241 . S
O124 Co112 2.137 . S
O124 C115 1.247 . S
O125 Co112 2.244 . S
O125 C115 1.272 . S
O125 Co117 2.135 . S
Co126 O127 2.216 . S
Co126 O128 2.091 . S
Co126 O130 2.004 . S
Co126 O136 2.021 . S
Co126 O138 2.137 . S
Co126 O139 2.244 . S
O127 Co126 2.216 . S
O127 C134 1.247 . S
O128 Co126 2.091 . S
O128 C134 1.261 . S
C129 O138 1.247 . S
C129 O139 1.272 . S
O130 Co126 2.004 . S
O130 C135 1.259 . S
Co131 O132 2.061 . S
Co131 O137 2.052 . S
Co131 O139 2.135 . S
O132 Co131 2.061 . S
O132 C135 1.235 . S
C133 O136 1.238 . S
C133 O137 1.241 . S
C134 O127 1.247 . S
C134 O128 1.261 . S
C135 O130 1.259 . S
C135 O132 1.235 . S
O136 Co126 2.021 . S
O136 C133 1.238 . S
O137 Co131 2.052 . S
O137 C133 1.241 . S
O138 Co126 2.137 . S
O138 C129 1.247 . S
O139 Co126 2.244 . S
O139 C129 1.272 . S
O139 Co131 2.135 . S
Co140 O141 2.216 . S
Co140 O142 2.091 . S
Co140 O144 2.004 . S
Co140 O150 2.021 . S
Co140 O152 2.137 . S
Co140 O153 2.244 . S
O141 Co140 2.216 . S
O141 C148 1.247 . S
O142 Co140 2.091 . S
O142 C148 1.261 . S
C143 O152 1.247 . S
C143 O153 1.272 . S
O144 Co140 2.004 . S
O144 C149 1.259 . S
Co145 O146 2.061 . S
Co145 O151 2.052 . S
Co145 O153 2.135 . S
O146 Co145 2.061 . S
O146 C149 1.235 . S
C147 O150 1.238 . S
C147 O151 1.241 . S
C148 O141 1.247 . S
C148 O142 1.261 . S
C149 O144 1.259 . S
C149 O146 1.235 . S
O150 Co140 2.021 . S
O150 C147 1.238 . S
O151 Co145 2.052 . S
O151 C147 1.241 . S
O152 Co140 2.137 . S
O152 C143 1.247 . S
O153 Co140 2.244 . S
O153 C143 1.272 . S
O153 Co145 2.135 . S
Co154 O155 2.216 . S
Co154 O156 2.091 . S
Co154 O158 2.004 . S
Co154 O164 2.021 . S
Co154 O166 2.137 . S
Co154 O167 2.244 . S
O155 Co154 2.216 . S
O155 C162 1.247 . S
O156 Co154 2.091 . S
O156 C162 1.261 . S
C157 O166 1.247 . S
C157 O167 1.272 . S
O158 Co154 2.004 . S
O158 C163 1.259 . S
Co159 O160 2.061 . S
Co159 O165 2.052 . S
Co159 O167 2.135 . S
O160 Co159 2.061 . S
O160 C163 1.235 . S
C161 O164 1.238 . S
C161 O165 1.241 . S
C162 O155 1.247 . S
C162 O156 1.261 . S
C163 O158 1.259 . S
C163 O160 1.235 . S
O164 Co154 2.021 . S
O164 C161 1.238 . S
O165 Co159 2.052 . S
O165 C161 1.241 . S
O166 Co154 2.137 . S
O166 C157 1.247 . S
O167 Co154 2.244 . S
O167 C157 1.272 . S
O167 Co159 2.135 . S
Co168 O169 2.216 . S
Co168 O170 2.091 . S
Co168 O172 2.004 . S
Co168 O178 2.021 . S
Co168 O180 2.137 . S
Co168 O181 2.244 . S
O169 Co168 2.216 . S
O169 C176 1.247 . S
O170 Co168 2.091 . S
O170 C176 1.261 . S
C171 O180 1.247 . S
C171 O181 1.272 . S
O172 Co168 2.004 . S
O172 C177 1.259 . S
Co173 O174 2.061 . S
Co173 O179 2.052 . S
Co173 O181 2.135 . S
O174 Co173 2.061 . S
O174 C177 1.235 . S
C175 O178 1.238 . S
C175 O179 1.241 . S
C176 O169 1.247 . S
C176 O170 1.261 . S
C177 O172 1.259 . S
C177 O174 1.235 . S
O178 Co168 2.021 . S
O178 C175 1.238 . S
O179 Co173 2.052 . S
O179 C175 1.241 . S
O180 Co168 2.137 . S
O180 C171 1.247 . S
O181 Co168 2.244 . S
O181 C171 1.272 . S
O181 Co173 2.135 . S
Co182 O183 2.216 . S
Co182 O184 2.091 . S
Co182 O186 2.004 . S
Co182 O192 2.021 . S
Co182 O194 2.137 . S
Co182 O195 2.244 . S
O183 Co182 2.216 . S
O183 C190 1.247 . S
O184 Co182 2.091 . S
O184 C190 1.261 . S
C185 O194 1.247 . S
C185 O195 1.272 . S
O186 Co182 2.004 . S
O186 C191 1.259 . S
Co187 O188 2.061 . S
Co187 O193 2.052 . S
Co187 O195 2.135 . S
O188 Co187 2.061 . S
O188 C191 1.235 . S
C189 O192 1.238 . S
C189 O193 1.241 . S
C190 O183 1.247 . S
C190 O184 1.261 . S
C191 O186 1.259 . S
C191 O188 1.235 . S
O192 Co182 2.021 . S
O192 C189 1.238 . S
O193 Co187 2.052 . S
O193 C189 1.241 . S
O194 Co182 2.137 . S
O194 C185 1.247 . S
O195 Co182 2.244 . S
O195 C185 1.272 . S
O195 Co187 2.135 . S
Co196 O197 2.216 . S
Co196 O198 2.091 . S
Co196 O200 2.004 . S
Co196 O206 2.021 . S
Co196 O208 2.137 . S
Co196 O209 2.244 . S
O197 Co196 2.216 . S
O197 C204 1.247 . S
O198 Co196 2.091 . S
O198 C204 1.261 . S
C199 O208 1.247 . S
C199 O209 1.272 . S
O200 Co196 2.004 . S
O200 C205 1.259 . S
Co201 O202 2.061 . S
Co201 O207 2.052 . S
Co201 O209 2.135 . S
O202 Co201 2.061 . S
O202 C205 1.235 . S
C203 O206 1.238 . S
C203 O207 1.241 . S
C204 O197 1.247 . S
C204 O198 1.261 . S
C205 O200 1.259 . S
C205 O202 1.235 . S
O206 Co196 2.021 . S
O206 C203 1.238 . S
O207 Co201 2.052 . S
O207 C203 1.241 . S
O208 Co196 2.137 . S
O208 C199 1.247 . S
O209 Co196 2.244 . S
O209 C199 1.272 . S
O209 Co201 2.135 . S
Co210 O211 2.216 . S
Co210 O212 2.091 . S
Co210 O214 2.004 . S
Co210 O220 2.021 . S
Co210 O222 2.137 . S
Co210 O223 2.244 . S
O211 Co210 2.216 . S
O211 C218 1.247 . S
O212 Co210 2.091 . S
O212 C218 1.261 . S
C213 O222 1.247 . S
C213 O223 1.272 . S
O214 Co210 2.004 . S
O214 C219 1.259 . S
Co215 O216 2.061 . S
Co215 O221 2.052 . S
Co215 O223 2.135 . S
O216 Co215 2.061 . S
O216 C219 1.235 . S
C217 O220 1.238 . S
C217 O221 1.241 . S
C218 O211 1.247 . S
C218 O212 1.261 . S
C219 O214 1.259 . S
C219 O216 1.235 . S
O220 Co210 2.021 . S
O220 C217 1.238 . S
O221 Co215 2.052 . S
O221 C217 1.241 . S
O222 Co210 2.137 . S
O222 C213 1.247 . S
O223 Co210 2.244 . S
O223 C213 1.272 . S
O223 Co215 2.135 . S
Co224 O225 2.216 . S
Co224 O226 2.091 . S
Co224 O228 2.004 . S
Co224 O234 2.021 . S
Co224 O236 2.137 . S
Co224 O237 2.244 . S
O225 Co224 2.216 . S
O225 C232 1.247 . S
O226 Co224 2.091 . S
O226 C232 1.261 . S
C227 O236 1.247 . S
C227 O237 1.272 . S
O228 Co224 2.004 . S
O228 C233 1.259 . S
Co229 O230 2.061 . S
Co229 O235 2.052 . S
Co229 O237 2.135 . S
O230 Co229 2.061 . S
O230 C233 1.235 . S
C231 O234 1.238 . S
C231 O235 1.241 . S
C232 O225 1.247 . S
C232 O226 1.261 . S
C233 O228 1.259 . S
C233 O230 1.235 . S
O234 Co224 2.021 . S
O234 C231 1.238 . S
O235 Co229 2.052 . S
O235 C231 1.241 . S
O236 Co224 2.137 . S
O236 C227 1.247 . S
O237 Co224 2.244 . S
O237 C227 1.272 . S
O237 Co229 2.135 . S
Co238 O239 2.216 . S
Co238 O240 2.091 . S
Co238 O242 2.004 . S
Co238 O248 2.021 . S
Co238 O250 2.137 . S
Co238 O251 2.244 . S
O239 Co238 2.216 . S
O239 C246 1.247 . S
O240 Co238 2.091 . S
O240 C246 1.261 . S
C241 O250 1.247 . S
C241 O251 1.272 . S
O242 Co238 2.004 . S
O242 C247 1.259 . S
Co243 O244 2.061 . S
Co243 O249 2.052 . S
Co243 O251 2.135 . S
O244 Co243 2.061 . S
O244 C247 1.235 . S
C245 O248 1.238 . S
C245 O249 1.241 . S
C246 O239 1.247 . S
C246 O240 1.261 . S
C247 O242 1.259 . S
C247 O244 1.235 . S
O248 Co238 2.021 . S
O248 C245 1.238 . S
O249 Co243 2.052 . S
O249 C245 1.241 . S
O250 Co238 2.137 . S
O250 C241 1.247 . S
O251 Co238 2.244 . S
O251 C241 1.272 . S
O251 Co243 2.135 . S
Co252 O253 2.216 . S
Co252 O254 2.091 . S
Co252 O256 2.004 . S
Co252 O262 2.021 . S
Co252 O264 2.137 . S
Co252 O265 2.244 . S
O253 Co252 2.216 . S
O253 C260 1.247 . S
O254 Co252 2.091 . S
O254 C260 1.261 . S
C255 O264 1.247 . S
C255 O265 1.272 . S
O256 Co252 2.004 . S
O256 C261 1.259 . S
Co257 O258 2.061 . S
Co257 O263 2.052 . S
Co257 O265 2.135 . S
O258 Co257 2.061 . S
O258 C261 1.235 . S
C259 O262 1.238 . S
C259 O263 1.241 . S
C260 O253 1.247 . S
C260 O254 1.261 . S
C261 O256 1.259 . S
C261 O258 1.235 . S
O262 Co252 2.021 . S
O262 C259 1.238 . S
O263 Co257 2.052 . S
O263 C259 1.241 . S
O264 Co252 2.137 . S
O264 C255 1.247 . S
O265 Co252 2.244 . S
O265 C255 1.272 . S
O265 Co257 2.135 . S
Co266 O267 2.216 . S
Co266 O268 2.091 . S
Co266 O270 2.004 . S
Co266 O276 2.021 . S
Co266 O278 2.137 . S
Co266 O279 2.244 . S
O267 Co266 2.216 . S
O267 C274 1.247 . S
O268 Co266 2.091 . S
O268 C274 1.261 . S
C269 O278 1.247 . S
C269 O279 1.272 . S
O270 Co266 2.004 . S
O270 C275 1.259 . S
Co271 O272 2.061 . S
Co271 O277 2.052 . S
Co271 O279 2.135 . S
O272 Co271 2.061 . S
O272 C275 1.235 . S
C273 O276 1.238 . S
C273 O277 1.241 . S
C274 O267 1.247 . S
C274 O268 1.261 . S
C275 O270 1.259 . S
C275 O272 1.235 . S
O276 Co266 2.021 . S
O276 C273 1.238 . S
O277 Co271 2.052 . S
O277 C273 1.241 . S
O278 Co266 2.137 . S
O278 C269 1.247 . S
O279 Co266 2.244 . S
O279 C269 1.272 . S
O279 Co271 2.135 . S
Co280 O281 2.216 . S
Co280 O282 2.091 . S
Co280 O284 2.004 . S
Co280 O290 2.021 . S
Co280 O292 2.137 . S
Co280 O293 2.244 . S
O281 Co280 2.216 . S
O281 C288 1.247 . S
O282 Co280 2.091 . S
O282 C288 1.261 . S
C283 O292 1.247 . S
C283 O293 1.272 . S
O284 Co280 2.004 . S
O284 C289 1.259 . S
Co285 O286 2.061 . S
Co285 O291 2.052 . S
Co285 O293 2.135 . S
O286 Co285 2.061 . S
O286 C289 1.235 . S
C287 O290 1.238 . S
C287 O291 1.241 . S
C288 O281 1.247 . S
C288 O282 1.261 . S
C289 O284 1.259 . S
C289 O286 1.235 . S
O290 Co280 2.021 . S
O290 C287 1.238 . S
O291 Co285 2.052 . S
O291 C287 1.241 . S
O292 Co280 2.137 . S
O292 C283 1.247 . S
O293 Co280 2.244 . S
O293 C283 1.272 . S
O293 Co285 2.135 . S
Co294 O295 2.216 . S
Co294 O296 2.091 . S
Co294 O298 2.004 . S
Co294 O304 2.021 . S
Co294 O306 2.137 . S
Co294 O307 2.244 . S
O295 Co294 2.216 . S
O295 C302 1.247 . S
O296 Co294 2.091 . S
O296 C302 1.261 . S
C297 O306 1.247 . S
C297 O307 1.272 . S
O298 Co294 2.004 . S
O298 C303 1.259 . S
Co299 O300 2.061 . S
Co299 O305 2.052 . S
Co299 O307 2.135 . S
O300 Co299 2.061 . S
O300 C303 1.235 . S
C301 O304 1.238 . S
C301 O305 1.241 . S
C302 O295 1.247 . S
C302 O296 1.261 . S
C303 O298 1.259 . S
C303 O300 1.235 . S
O304 Co294 2.021 . S
O304 C301 1.238 . S
O305 Co299 2.052 . S
O305 C301 1.241 . S
O306 Co294 2.137 . S
O306 C297 1.247 . S
O307 Co294 2.244 . S
O307 C297 1.272 . S
O307 Co299 2.135 . S
Co308 O309 2.216 . S
Co308 O310 2.091 . S
Co308 O312 2.004 . S
Co308 O318 2.021 . S
Co308 O320 2.137 . S
Co308 O321 2.244 . S
O309 Co308 2.216 . S
O309 C316 1.247 . S
O310 Co308 2.091 . S
O310 C316 1.261 . S
C311 O320 1.247 . S
C311 O321 1.272 . S
O312 Co308 2.004 . S
O312 C317 1.259 . S
Co313 O314 2.061 . S
Co313 O319 2.052 . S
Co313 O321 2.135 . S
O314 Co313 2.061 . S
O314 C317 1.235 . S
C315 O318 1.238 . S
C315 O319 1.241 . S
C316 O309 1.247 . S
C316 O310 1.261 . S
C317 O312 1.259 . S
C317 O314 1.235 . S
O318 Co308 2.021 . S
O318 C315 1.238 . S
O319 Co313 2.052 . S
O319 C315 1.241 . S
O320 Co308 2.137 . S
O320 C311 1.247 . S
O321 Co308 2.244 . S
O321 C311 1.272 . S
O321 Co313 2.135 . S
Co322 O323 2.216 . S
Co322 O324 2.091 . S
Co322 O326 2.004 . S
Co322 O332 2.021 . S
Co322 O334 2.137 . S
Co322 O335 2.244 . S
O323 Co322 2.216 . S
O323 C330 1.247 . S
O324 Co322 2.091 . S
O324 C330 1.261 . S
C325 O334 1.247 . S
C325 O335 1.272 . S
O326 Co322 2.004 . S
O326 C331 1.259 . S
Co327 O328 2.061 . S
Co327 O333 2.052 . S
Co327 O335 2.135 . S
O328 Co327 2.061 . S
O328 C331 1.235 . S
C329 O332 1.238 . S
C329 O333 1.241 . S
C330 O323 1.247 . S
C330 O324 1.261 . S
C331 O326 1.259 . S
C331 O328 1.235 . S
O332 Co322 2.021 . S
O332 C329 1.238 . S
O333 Co327 2.052 . S
O333 C329 1.241 . S
O334 Co322 2.137 . S
O334 C325 1.247 . S
O335 Co322 2.244 . S
O335 C325 1.272 . S
O335 Co327 2.135 . S
Co336 O337 2.216 . S
Co336 O338 2.091 . S
Co336 O340 2.004 . S
Co336 O346 2.021 . S
Co336 O348 2.137 . S
Co336 O349 2.244 . S
O337 Co336 2.216 . S
O337 C344 1.247 . S
O338 Co336 2.091 . S
O338 C344 1.261 . S
C339 O348 1.247 . S
C339 O349 1.272 . S
O340 Co336 2.004 . S
O340 C345 1.259 . S
Co341 O342 2.061 . S
Co341 O347 2.052 . S
Co341 O349 2.135 . S
O342 Co341 2.061 . S
O342 C345 1.235 . S
C343 O346 1.238 . S
C343 O347 1.241 . S
C344 O337 1.247 . S
C344 O338 1.261 . S
C345 O340 1.259 . S
C345 O342 1.235 . S
O346 Co336 2.021 . S
O346 C343 1.238 . S
O347 Co341 2.052 . S
O347 C343 1.241 . S
O348 Co336 2.137 . S
O348 C339 1.247 . S
O349 Co336 2.244 . S
O349 C339 1.272 . S
O349 Co341 2.135 . S
Co350 O351 2.216 . S
Co350 O352 2.091 . S
Co350 O354 2.004 . S
Co350 O360 2.021 . S
Co350 O362 2.137 . S
Co350 O363 2.244 . S
O351 Co350 2.216 . S
O351 C358 1.247 . S
O352 Co350 2.091 . S
O352 C358 1.261 . S
C353 O362 1.247 . S
C353 O363 1.272 . S
O354 Co350 2.004 . S
O354 C359 1.259 . S
Co355 O356 2.061 . S
Co355 O361 2.052 . S
Co355 O363 2.135 . S
O356 Co355 2.061 . S
O356 C359 1.235 . S
C357 O360 1.238 . S
C357 O361 1.241 . S
C358 O351 1.247 . S
C358 O352 1.261 . S
C359 O354 1.259 . S
C359 O356 1.235 . S
O360 Co350 2.021 . S
O360 C357 1.238 . S
O361 Co355 2.052 . S
O361 C357 1.241 . S
O362 Co350 2.137 . S
O362 C353 1.247 . S
O363 Co350 2.244 . S
O363 C353 1.272 . S
O363 Co355 2.135 . S
Co364 O365 2.216 . S
Co364 O366 2.091 . S
Co364 O368 2.004 . S
Co364 O374 2.021 . S
Co364 O376 2.137 . S
Co364 O377 2.244 . S
O365 Co364 2.216 . S
O365 C372 1.247 . S
O366 Co364 2.091 . S
O366 C372 1.261 . S
C367 O376 1.247 . S
C367 O377 1.272 . S
O368 Co364 2.004 . S
O368 C373 1.259 . S
Co369 O370 2.061 . S
Co369 O375 2.052 . S
Co369 O377 2.135 . S
O370 Co369 2.061 . S
O370 C373 1.235 . S
C371 O374 1.238 . S
C371 O375 1.241 . S
C372 O365 1.247 . S
C372 O366 1.261 . S
C373 O368 1.259 . S
C373 O370 1.235 . S
O374 Co364 2.021 . S
O374 C371 1.238 . S
O375 Co369 2.052 . S
O375 C371 1.241 . S
O376 Co364 2.137 . S
O376 C367 1.247 . S
O377 Co364 2.244 . S
O377 C367 1.272 . S
O377 Co369 2.135 . S
Co378 O379 2.216 . S
Co378 O380 2.091 . S
Co378 O382 2.004 . S
Co378 O388 2.021 . S
Co378 O390 2.137 . S
Co378 O391 2.244 . S
O379 Co378 2.216 . S
O379 C386 1.247 . S
O380 Co378 2.091 . S
O380 C386 1.261 . S
C381 O390 1.247 . S
C381 O391 1.272 . S
O382 Co378 2.004 . S
O382 C387 1.259 . S
Co383 O384 2.061 . S
Co383 O389 2.052 . S
Co383 O391 2.135 . S
O384 Co383 2.061 . S
O384 C387 1.235 . S
C385 O388 1.238 . S
C385 O389 1.241 . S
C386 O379 1.247 . S
C386 O380 1.261 . S
C387 O382 1.259 . S
C387 O384 1.235 . S
O388 Co378 2.021 . S
O388 C385 1.238 . S
O389 Co383 2.052 . S
O389 C385 1.241 . S
O390 Co378 2.137 . S
O390 C381 1.247 . S
O391 Co378 2.244 . S
O391 C381 1.272 . S
O391 Co383 2.135 . S
Co392 O393 2.216 . S
Co392 O394 2.091 . S
Co392 O396 2.004 . S
Co392 O402 2.021 . S
Co392 O404 2.137 . S
Co392 O405 2.244 . S
O393 Co392 2.216 . S
O393 C400 1.247 . S
O394 Co392 2.091 . S
O394 C400 1.261 . S
C395 O404 1.247 . S
C395 O405 1.272 . S
O396 Co392 2.004 . S
O396 C401 1.259 . S
Co397 O398 2.061 . S
Co397 O403 2.052 . S
Co397 O405 2.135 . S
O398 Co397 2.061 . S
O398 C401 1.235 . S
C399 O402 1.238 . S
C399 O403 1.241 . S
C400 O393 1.247 . S
C400 O394 1.261 . S
C401 O396 1.259 . S
C401 O398 1.235 . S
O402 Co392 2.021 . S
O402 C399 1.238 . S
O403 Co397 2.052 . S
O403 C399 1.241 . S
O404 Co392 2.137 . S
O404 C395 1.247 . S
O405 Co392 2.244 . S
O405 C395 1.272 . S
O405 Co397 2.135 . S
Co406 O407 2.216 . S
Co406 O408 2.091 . S
Co406 O410 2.004 . S
Co406 O416 2.021 . S
Co406 O418 2.137 . S
Co406 O419 2.244 . S
O407 Co406 2.216 . S
O407 C414 1.247 . S
O408 Co406 2.091 . S
O408 C414 1.261 . S
C409 O418 1.247 . S
C409 O419 1.272 . S
O410 Co406 2.004 . S
O410 C415 1.259 . S
Co411 O412 2.061 . S
Co411 O417 2.052 . S
Co411 O419 2.135 . S
O412 Co411 2.061 . S
O412 C415 1.235 . S
C413 O416 1.238 . S
C413 O417 1.241 . S
C414 O407 1.247 . S
C414 O408 1.261 . S
C415 O410 1.259 . S
C415 O412 1.235 . S
O416 Co406 2.021 . S
O416 C413 1.238 . S
O417 Co411 2.052 . S
O417 C413 1.241 . S
O418 Co406 2.137 . S
O418 C409 1.247 . S
O419 Co406 2.244 . S
O419 C409 1.272 . S
O419 Co411 2.135 . S
Co420 O421 2.216 . S
Co420 O422 2.091 . S
Co420 O424 2.004 . S
Co420 O430 2.021 . S
Co420 O432 2.137 . S
Co420 O433 2.244 . S
O421 Co420 2.216 . S
O421 C428 1.247 . S
O422 Co420 2.091 . S
O422 C428 1.261 . S
C423 O432 1.247 . S
C423 O433 1.272 . S
O424 Co420 2.004 . S
O424 C429 1.259 . S
Co425 O426 2.061 . S
Co425 O431 2.052 . S
Co425 O433 2.135 . S
O426 Co425 2.061 . S
O426 C429 1.235 . S
C427 O430 1.238 . S
C427 O431 1.241 . S
C428 O421 1.247 . S
C428 O422 1.261 . S
C429 O424 1.259 . S
C429 O426 1.235 . S
O430 Co420 2.021 . S
O430 C427 1.238 . S
O431 Co425 2.052 . S
O431 C427 1.241 . S
O432 Co420 2.137 . S
O432 C423 1.247 . S
O433 Co420 2.244 . S
O433 C423 1.272 . S
O433 Co425 2.135 . S
Co434 O435 2.216 . S
Co434 O436 2.091 . S
Co434 O438 2.004 . S
Co434 O444 2.021 . S
Co434 O446 2.137 . S
Co434 O447 2.244 . S
O435 Co434 2.216 . S
O435 C442 1.247 . S
O436 Co434 2.091 . S
O436 C442 1.261 . S
C437 O446 1.247 . S
C437 O447 1.272 . S
O438 Co434 2.004 . S
O438 C443 1.259 . S
Co439 O440 2.061 . S
Co439 O445 2.052 . S
Co439 O447 2.135 . S
O440 Co439 2.061 . S
O440 C443 1.235 . S
C441 O444 1.238 . S
C441 O445 1.241 . S
C442 O435 1.247 . S
C442 O436 1.261 . S
C443 O438 1.259 . S
C443 O440 1.235 . S
O444 Co434 2.021 . S
O444 C441 1.238 . S
O445 Co439 2.052 . S
O445 C441 1.241 . S
O446 Co434 2.137 . S
O446 C437 1.247 . S
O447 Co434 2.244 . S
O447 C437 1.272 . S
O447 Co439 2.135 . S
H448 C454 0.930 . S
H449 C458 0.930 . S
H450 C463 0.929 . S
H451 C461 0.929 . S
H452 C456 0.929 . S
H453 C462 0.929 . S
C454 H448 0.930 . S
C454 C455 1.367 . S
C454 C462 1.378 . S
C455 C454 1.367 . S
C455 C463 1.433 . S
C456 H452 0.929 . S
C456 C458 1.378 . S
C456 C460 1.350 . S
C457 C460 1.463 . S
C457 C462 1.350 . S
C457 N465 1.427 . S
C458 H449 0.930 . S
C458 C456 1.378 . S
C458 C459 1.367 . S
C459 C458 1.367 . S
C459 C461 1.433 . S
C460 C456 1.350 . S
C460 C457 1.463 . S
C460 N464 1.427 . S
C461 H451 0.929 . S
C461 C459 1.433 . S
C461 N464 1.384 . S
C462 H453 0.929 . S
C462 C454 1.378 . S
C462 C457 1.350 . S
C463 H450 0.929 . S
C463 C455 1.433 . S
C463 N465 1.384 . S
N464 C460 1.427 . S
N464 C461 1.384 . S
N465 C457 1.427 . S
N465 C463 1.384 . S
H466 C472 0.930 . S
H467 C476 0.930 . S
H468 C481 0.929 . S
H469 C479 0.929 . S
H470 C474 0.929 . S
H471 C480 0.929 . S
C472 H466 0.930 . S
C472 C473 1.367 . S
C472 C480 1.378 . S
C473 C472 1.367 . S
C473 C481 1.433 . S
C474 H470 0.929 . S
C474 C476 1.378 . S
C474 C478 1.350 . S
C475 C478 1.463 . S
C475 C480 1.350 . S
C475 N483 1.427 . S
C476 H467 0.930 . S
C476 C474 1.378 . S
C476 C477 1.367 . S
C477 C476 1.367 . S
C477 C479 1.433 . S
C478 C474 1.350 . S
C478 C475 1.463 . S
C478 N482 1.427 . S
C479 H469 0.929 . S
C479 C477 1.433 . S
C479 N482 1.384 . S
C480 H471 0.929 . S
C480 C472 1.378 . S
C480 C475 1.350 . S
C481 H468 0.929 . S
C481 C473 1.433 . S
C481 N483 1.384 . S
N482 C478 1.427 . S
N482 C479 1.384 . S
N483 C475 1.427 . S
N483 C481 1.384 . S
H484 C490 0.930 . S
H485 C494 0.930 . S
H486 C499 0.929 . S
H487 C497 0.929 . S
H488 C492 0.929 . S
H489 C498 0.929 . S
C490 H484 0.930 . S
C490 C491 1.367 . S
C490 C498 1.378 . S
C491 C490 1.367 . S
C491 C499 1.433 . S
C492 H488 0.929 . S
C492 C494 1.378 . S
C492 C496 1.350 . S
C493 C496 1.463 . S
C493 C498 1.350 . S
C493 N501 1.427 . S
C494 H485 0.930 . S
C494 C492 1.378 . S
C494 C495 1.367 . S
C495 C494 1.367 . S
C495 C497 1.433 . S
C496 C492 1.350 . S
C496 C493 1.463 . S
C496 N500 1.427 . S
C497 H487 0.929 . S
C497 C495 1.433 . S
C497 N500 1.384 . S
C498 H489 0.929 . S
C498 C490 1.378 . S
C498 C493 1.350 . S
C499 H486 0.929 . S
C499 C491 1.433 . S
C499 N501 1.384 . S
N500 C496 1.427 . S
N500 C497 1.384 . S
N501 C493 1.427 . S
N501 C499 1.384 . S
H502 C508 0.930 . S
H503 C512 0.930 . S
H504 C517 0.929 . S
H505 C515 0.929 . S
H506 C510 0.929 . S
H507 C516 0.929 . S
C508 H502 0.930 . S
C508 C509 1.367 . S
C508 C516 1.378 . S
C509 C508 1.367 . S
C509 C517 1.433 . S
C510 H506 0.929 . S
C510 C512 1.378 . S
C510 C514 1.350 . S
C511 C514 1.463 . S
C511 C516 1.350 . S
C511 N519 1.427 . S
C512 H503 0.930 . S
C512 C510 1.378 . S
C512 C513 1.367 . S
C513 C512 1.367 . S
C513 C515 1.433 . S
C514 C510 1.350 . S
C514 C511 1.463 . S
C514 N518 1.427 . S
C515 H505 0.929 . S
C515 C513 1.433 . S
C515 N518 1.384 . S
C516 H507 0.929 . S
C516 C508 1.378 . S
C516 C511 1.350 . S
C517 H504 0.929 . S
C517 C509 1.433 . S
C517 N519 1.384 . S
N518 C514 1.427 . S
N518 C515 1.384 . S
N519 C511 1.427 . S
N519 C517 1.384 . S
H520 C526 0.930 . S
H521 C530 0.930 . S
H522 C535 0.929 . S
H523 C533 0.929 . S
H524 C528 0.929 . S
H525 C534 0.929 . S
C526 H520 0.930 . S
C526 C527 1.367 . S
C526 C534 1.378 . S
C527 C526 1.367 . S
C527 C535 1.433 . S
C528 H524 0.929 . S
C528 C530 1.378 . S
C528 C532 1.350 . S
C529 C532 1.463 . S
C529 C534 1.350 . S
C529 N537 1.427 . S
C530 H521 0.930 . S
C530 C528 1.378 . S
C530 C531 1.367 . S
C531 C530 1.367 . S
C531 C533 1.433 . S
C532 C528 1.350 . S
C532 C529 1.463 . S
C532 N536 1.427 . S
C533 H523 0.929 . S
C533 C531 1.433 . S
C533 N536 1.384 . S
C534 H525 0.929 . S
C534 C526 1.378 . S
C534 C529 1.350 . S
C535 H522 0.929 . S
C535 C527 1.433 . S
C535 N537 1.384 . S
N536 C532 1.427 . S
N536 C533 1.384 . S
N537 C529 1.427 . S
N537 C535 1.384 . S
H538 C544 0.930 . S
H539 C548 0.930 . S
H540 C553 0.929 . S
H541 C551 0.929 . S
H542 C546 0.929 . S
H543 C552 0.929 . S
C544 H538 0.930 . S
C544 C545 1.367 . S
C544 C552 1.378 . S
C545 C544 1.367 . S
C545 C553 1.433 . S
C546 H542 0.929 . S
C546 C548 1.378 . S
C546 C550 1.350 . S
C547 C550 1.463 . S
C547 C552 1.350 . S
C547 N555 1.427 . S
C548 H539 0.930 . S
C548 C546 1.378 . S
C548 C549 1.367 . S
C549 C548 1.367 . S
C549 C551 1.433 . S
C550 C546 1.350 . S
C550 C547 1.463 . S
C550 N554 1.427 . S
C551 H541 0.929 . S
C551 C549 1.433 . S
C551 N554 1.384 . S
C552 H543 0.929 . S
C552 C544 1.378 . S
C552 C547 1.350 . S
C553 H540 0.929 . S
C553 C545 1.433 . S
C553 N555 1.384 . S
N554 C550 1.427 . S
N554 C551 1.384 . S
N555 C547 1.427 . S
N555 C553 1.384 . S
H556 C562 0.930 . S
H557 C566 0.930 . S
H558 C571 0.929 . S
H559 C569 0.929 . S
H560 C564 0.929 . S
H561 C570 0.929 . S
C562 H556 0.930 . S
C562 C563 1.367 . S
C562 C570 1.378 . S
C563 C562 1.367 . S
C563 C571 1.433 . S
C564 H560 0.929 . S
C564 C566 1.378 . S
C564 C568 1.350 . S
C565 C568 1.463 . S
C565 C570 1.350 . S
C565 N573 1.427 . S
C566 H557 0.930 . S
C566 C564 1.378 . S
C566 C567 1.367 . S
C567 C566 1.367 . S
C567 C569 1.433 . S
C568 C564 1.350 . S
C568 C565 1.463 . S
C568 N572 1.427 . S
C569 H559 0.929 . S
C569 C567 1.433 . S
C569 N572 1.384 . S
C570 H561 0.929 . S
C570 C562 1.378 . S
C570 C565 1.350 . S
C571 H558 0.929 . S
C571 C563 1.433 . S
C571 N573 1.384 . S
N572 C568 1.427 . S
N572 C569 1.384 . S
N573 C565 1.427 . S
N573 C571 1.384 . S
H574 C580 0.930 . S
H575 C584 0.930 . S
H576 C589 0.929 . S
H577 C587 0.929 . S
H578 C582 0.929 . S
H579 C588 0.929 . S
C580 H574 0.930 . S
C580 C581 1.367 . S
C580 C588 1.378 . S
C581 C580 1.367 . S
C581 C589 1.433 . S
C582 H578 0.929 . S
C582 C584 1.378 . S
C582 C586 1.350 . S
C583 C586 1.463 . S
C583 C588 1.350 . S
C583 N591 1.427 . S
C584 H575 0.930 . S
C584 C582 1.378 . S
C584 C585 1.367 . S
C585 C584 1.367 . S
C585 C587 1.433 . S
C586 C582 1.350 . S
C586 C583 1.463 . S
C586 N590 1.427 . S
C587 H577 0.929 . S
C587 C585 1.433 . S
C587 N590 1.384 . S
C588 H579 0.929 . S
C588 C580 1.378 . S
C588 C583 1.350 . S
C589 H576 0.929 . S
C589 C581 1.433 . S
C589 N591 1.384 . S
N590 C586 1.427 . S
N590 C587 1.384 . S
N591 C583 1.427 . S
N591 C589 1.384 . S
H592 C598 0.930 . S
H593 C602 0.930 . S
H594 C607 0.929 . S
H595 C605 0.929 . S
H596 C600 0.929 . S
H597 C606 0.929 . S
C598 H592 0.930 . S
C598 C599 1.367 . S
C598 C606 1.378 . S
C599 C598 1.367 . S
C599 C607 1.433 . S
C600 H596 0.929 . S
C600 C602 1.378 . S
C600 C604 1.350 . S
C601 C604 1.463 . S
C601 C606 1.350 . S
C601 N609 1.427 . S
C602 H593 0.930 . S
C602 C600 1.378 . S
C602 C603 1.367 . S
C603 C602 1.367 . S
C603 C605 1.433 . S
C604 C600 1.350 . S
C604 C601 1.463 . S
C604 N608 1.427 . S
C605 H595 0.929 . S
C605 C603 1.433 . S
C605 N608 1.384 . S
C606 H597 0.929 . S
C606 C598 1.378 . S
C606 C601 1.350 . S
C607 H594 0.929 . S
C607 C599 1.433 . S
C607 N609 1.384 . S
N608 C604 1.427 . S
N608 C605 1.384 . S
N609 C601 1.427 . S
N609 C607 1.384 . S
H610 C616 0.930 . S
H611 C620 0.930 . S
H612 C625 0.929 . S
H613 C623 0.929 . S
H614 C618 0.929 . S
H615 C624 0.929 . S
C616 H610 0.930 . S
C616 C617 1.367 . S
C616 C624 1.378 . S
C617 C616 1.367 . S
C617 C625 1.433 . S
C618 H614 0.929 . S
C618 C620 1.378 . S
C618 C622 1.350 . S
C619 C622 1.463 . S
C619 C624 1.350 . S
C619 N627 1.427 . S
C620 H611 0.930 . S
C620 C618 1.378 . S
C620 C621 1.367 . S
C621 C620 1.367 . S
C621 C623 1.433 . S
C622 C618 1.350 . S
C622 C619 1.463 . S
C622 N626 1.427 . S
C623 H613 0.929 . S
C623 C621 1.433 . S
C623 N626 1.384 . S
C624 H615 0.929 . S
C624 C616 1.378 . S
C624 C619 1.350 . S
C625 H612 0.929 . S
C625 C617 1.433 . S
C625 N627 1.384 . S
N626 C622 1.427 . S
N626 C623 1.384 . S
N627 C619 1.427 . S
N627 C625 1.384 . S
H628 C634 0.930 . S
H629 C638 0.930 . S
H630 C643 0.929 . S
H631 C641 0.929 . S
H632 C636 0.929 . S
H633 C642 0.929 . S
C634 H628 0.930 . S
C634 C635 1.367 . S
C634 C642 1.378 . S
C635 C634 1.367 . S
C635 C643 1.433 . S
C636 H632 0.929 . S
C636 C638 1.378 . S
C636 C640 1.350 . S
C637 C640 1.463 . S
C637 C642 1.350 . S
C637 N645 1.427 . S
C638 H629 0.930 . S
C638 C636 1.378 . S
C638 C639 1.367 . S
C639 C638 1.367 . S
C639 C641 1.433 . S
C640 C636 1.350 . S
C640 C637 1.463 . S
C640 N644 1.427 . S
C641 H631 0.929 . S
C641 C639 1.433 . S
C641 N644 1.384 . S
C642 H633 0.929 . S
C642 C634 1.378 . S
C642 C637 1.350 . S
C643 H630 0.929 . S
C643 C635 1.433 . S
C643 N645 1.384 . S
N644 C640 1.427 . S
N644 C641 1.384 . S
N645 C637 1.427 . S
N645 C643 1.384 . S
H646 C652 0.930 . S
H647 C656 0.930 . S
H648 C661 0.929 . S
H649 C659 0.929 . S
H650 C654 0.929 . S
H651 C660 0.929 . S
C652 H646 0.930 . S
C652 C653 1.367 . S
C652 C660 1.378 . S
C653 C652 1.367 . S
C653 C661 1.433 . S
C654 H650 0.929 . S
C654 C656 1.378 . S
C654 C658 1.350 . S
C655 C658 1.463 . S
C655 C660 1.350 . S
C655 N663 1.427 . S
C656 H647 0.930 . S
C656 C654 1.378 . S
C656 C657 1.367 . S
C657 C656 1.367 . S
C657 C659 1.433 . S
C658 C654 1.350 . S
C658 C655 1.463 . S
C658 N662 1.427 . S
C659 H649 0.929 . S
C659 C657 1.433 . S
C659 N662 1.384 . S
C660 H651 0.929 . S
C660 C652 1.378 . S
C660 C655 1.350 . S
C661 H648 0.929 . S
C661 C653 1.433 . S
C661 N663 1.384 . S
N662 C658 1.427 . S
N662 C659 1.384 . S
N663 C655 1.427 . S
N663 C661 1.384 . S
H664 C670 0.930 . S
H665 C674 0.930 . S
H666 C679 0.929 . S
H667 C677 0.929 . S
H668 C672 0.929 . S
H669 C678 0.929 . S
C670 H664 0.930 . S
C670 C671 1.367 . S
C670 C678 1.378 . S
C671 C670 1.367 . S
C671 C679 1.433 . S
C672 H668 0.929 . S
C672 C674 1.378 . S
C672 C676 1.350 . S
C673 C676 1.463 . S
C673 C678 1.350 . S
C673 N681 1.427 . S
C674 H665 0.930 . S
C674 C672 1.378 . S
C674 C675 1.367 . S
C675 C674 1.367 . S
C675 C677 1.433 . S
C676 C672 1.350 . S
C676 C673 1.463 . S
C676 N680 1.427 . S
C677 H667 0.929 . S
C677 C675 1.433 . S
C677 N680 1.384 . S
C678 H669 0.929 . S
C678 C670 1.378 . S
C678 C673 1.350 . S
C679 H666 0.929 . S
C679 C671 1.433 . S
C679 N681 1.384 . S
N680 C676 1.427 . S
N680 C677 1.384 . S
N681 C673 1.427 . S
N681 C679 1.384 . S
H682 C688 0.930 . S
H683 C692 0.930 . S
H684 C697 0.929 . S
H685 C695 0.929 . S
H686 C690 0.929 . S
H687 C696 0.929 . S
C688 H682 0.930 . S
C688 C689 1.367 . S
C688 C696 1.378 . S
C689 C688 1.367 . S
C689 C697 1.433 . S
C690 H686 0.929 . S
C690 C692 1.378 . S
C690 C694 1.350 . S
C691 C694 1.463 . S
C691 C696 1.350 . S
C691 N699 1.427 . S
C692 H683 0.930 . S
C692 C690 1.378 . S
C692 C693 1.367 . S
C693 C692 1.367 . S
C693 C695 1.433 . S
C694 C690 1.350 . S
C694 C691 1.463 . S
C694 N698 1.427 . S
C695 H685 0.929 . S
C695 C693 1.433 . S
C695 N698 1.384 . S
C696 H687 0.929 . S
C696 C688 1.378 . S
C696 C691 1.350 . S
C697 H684 0.929 . S
C697 C689 1.433 . S
C697 N699 1.384 . S
N698 C694 1.427 . S
N698 C695 1.384 . S
N699 C691 1.427 . S
N699 C697 1.384 . S
H700 C706 0.930 . S
H701 C710 0.930 . S
H702 C715 0.929 . S
H703 C713 0.929 . S
H704 C708 0.929 . S
H705 C714 0.929 . S
C706 H700 0.930 . S
C706 C707 1.367 . S
C706 C714 1.378 . S
C707 C706 1.367 . S
C707 C715 1.433 . S
C708 H704 0.929 . S
C708 C710 1.378 . S
C708 C712 1.350 . S
C709 C712 1.463 . S
C709 C714 1.350 . S
C709 N717 1.427 . S
C710 H701 0.930 . S
C710 C708 1.378 . S
C710 C711 1.367 . S
C711 C710 1.367 . S
C711 C713 1.433 . S
C712 C708 1.350 . S
C712 C709 1.463 . S
C712 N716 1.427 . S
C713 H703 0.929 . S
C713 C711 1.433 . S
C713 N716 1.384 . S
C714 H705 0.929 . S
C714 C706 1.378 . S
C714 C709 1.350 . S
C715 H702 0.929 . S
C715 C707 1.433 . S
C715 N717 1.384 . S
N716 C712 1.427 . S
N716 C713 1.384 . S
N717 C709 1.427 . S
N717 C715 1.384 . S
H718 C724 0.930 . S
H719 C728 0.930 . S
H720 C733 0.929 . S
H721 C731 0.929 . S
H722 C726 0.929 . S
H723 C732 0.929 . S
C724 H718 0.930 . S
C724 C725 1.367 . S
C724 C732 1.378 . S
C725 C724 1.367 . S
C725 C733 1.433 . S
C726 H722 0.929 . S
C726 C728 1.378 . S
C726 C730 1.350 . S
C727 C730 1.463 . S
C727 C732 1.350 . S
C727 N735 1.427 . S
C728 H719 0.930 . S
C728 C726 1.378 . S
C728 C729 1.367 . S
C729 C728 1.367 . S
C729 C731 1.433 . S
C730 C726 1.350 . S
C730 C727 1.463 . S
C730 N734 1.427 . S
C731 H721 0.929 . S
C731 C729 1.433 . S
C731 N734 1.384 . S
C732 H723 0.929 . S
C732 C724 1.378 . S
C732 C727 1.350 . S
C733 H720 0.929 . S
C733 C725 1.433 . S
C733 N735 1.384 . S
N734 C730 1.427 . S
N734 C731 1.384 . S
N735 C727 1.427 . S
N735 C733 1.384 . S
H736 C742 0.930 . S
H737 C746 0.930 . S
H738 C751 0.929 . S
H739 C749 0.929 . S
H740 C744 0.929 . S
H741 C750 0.929 . S
C742 H736 0.930 . S
C742 C743 1.367 . S
C742 C750 1.378 . S
C743 C742 1.367 . S
C743 C751 1.433 . S
C744 H740 0.929 . S
C744 C746 1.378 . S
C744 C748 1.350 . S
C745 C748 1.463 1_455 S
C745 C750 1.350 . S
C745 N753 1.427 . S
C746 H737 0.930 . S
C746 C744 1.378 . S
C746 C747 1.367 . S
C747 C746 1.367 . S
C747 C749 1.433 . S
C748 C744 1.350 . S
C748 C745 1.463 1_655 S
C748 N752 1.427 . S
C749 H739 0.929 . S
C749 C747 1.433 . S
C749 N752 1.384 . S
C750 H741 0.929 . S
C750 C742 1.378 . S
C750 C745 1.350 . S
C751 H738 0.929 . S
C751 C743 1.433 . S
C751 N753 1.384 . S
N752 C748 1.427 . S
N752 C749 1.384 . S
N753 C745 1.427 . S
N753 C751 1.384 . S
H754 C760 0.930 . S
H755 C764 0.930 . S
H756 C769 0.929 . S
H757 C767 0.929 . S
H758 C762 0.929 . S
H759 C768 0.929 . S
C760 H754 0.930 . S
C760 C761 1.367 . S
C760 C768 1.378 . S
C761 C760 1.367 . S
C761 C769 1.433 . S
C762 H758 0.929 . S
C762 C764 1.378 . S
C762 C766 1.350 . S
C763 C766 1.463 1_545 S
C763 C768 1.350 . S
C763 N771 1.427 1_545 S
C764 H755 0.930 . S
C764 C762 1.378 . S
C764 C765 1.367 . S
C765 C764 1.367 . S
C765 C767 1.433 . S
C766 C762 1.350 . S
C766 C763 1.463 1_565 S
C766 N770 1.427 1_565 S
C767 H757 0.929 . S
C767 C765 1.433 . S
C767 N770 1.384 1_565 S
C768 H759 0.929 . S
C768 C760 1.378 . S
C768 C763 1.350 . S
C769 H756 0.929 . S
C769 C761 1.433 . S
C769 N771 1.384 1_545 S
N770 C766 1.427 1_545 S
N770 C767 1.384 1_545 S
N771 C763 1.427 1_565 S
N771 C769 1.384 1_565 S
H772 C778 0.930 . S
H773 C782 0.930 . S
H774 C787 0.929 . S
H775 C785 0.929 . S
H776 C780 0.929 . S
H777 C786 0.929 . S
C778 H772 0.930 . S
C778 C779 1.367 . S
C778 C786 1.378 1_545 S
C779 C778 1.367 . S
C779 C787 1.433 . S
C780 H776 0.929 . S
C780 C782 1.378 1_545 S
C780 C784 1.350 1_545 S
C781 C784 1.463 1_446 S
C781 C786 1.350 1_545 S
C781 N789 1.422 1_556 S
C782 H773 0.930 . S
C782 C780 1.378 1_565 S
C782 C783 1.367 . S
C783 C782 1.367 . S
C783 C785 1.433 . S
C784 C780 1.350 1_565 S
C784 C781 1.463 1_664 S
C784 N788 1.422 1_554 S
C785 H775 0.929 . S
C785 C783 1.433 . S
C785 N788 1.374 1_554 S
C786 H777 0.929 . S
C786 C778 1.378 1_565 S
C786 C781 1.350 1_565 S
C787 H774 0.929 . S
C787 C779 1.433 . S
C787 N789 1.374 1_556 S
N788 C784 1.422 1_556 S
N788 C785 1.374 1_556 S
N789 C781 1.422 1_554 S
N789 C787 1.374 1_554 S
H790 C796 0.923 1_554 S
H791 C800 0.923 1_556 S
H792 C805 0.929 . S
H793 C803 0.929 . S
H794 C798 0.929 . S
H795 C804 0.929 . S
C796 H790 0.923 1_556 S
C796 C797 1.367 . S
C796 C804 1.378 1_556 S
C797 C796 1.367 . S
C797 C805 1.433 . S
C798 H794 0.929 . S
C798 C800 1.378 1_556 S
C798 C802 1.350 1_556 S
C799 C802 1.463 1_556 S
C799 C804 1.350 1_556 S
C799 N807 1.427 . S
C800 H791 0.923 1_554 S
C800 C798 1.378 1_554 S
C800 C801 1.367 . S
C801 C800 1.367 . S
C801 C803 1.433 . S
C802 C798 1.350 1_554 S
C802 C799 1.463 1_554 S
C802 N806 1.427 . S
C803 H793 0.929 . S
C803 C801 1.433 . S
C803 N806 1.384 . S
C804 H795 0.929 . S
C804 C796 1.378 1_554 S
C804 C799 1.350 1_554 S
C805 H792 0.929 . S
C805 C797 1.433 . S
C805 N807 1.384 . S
N806 C802 1.427 . S
N806 C803 1.384 . S
N807 C799 1.427 . S
N807 C805 1.384 . S
H808 C814 0.930 . S
H809 C818 0.930 . S
H810 C823 0.929 . S
H811 C821 0.929 . S
H812 C816 0.929 . S
H813 C822 0.929 . S
C814 H808 0.930 . S
C814 C815 1.367 . S
C814 C822 1.378 . S
C815 C814 1.367 . S
C815 C823 1.433 . S
C816 H812 0.929 . S
C816 C818 1.378 . S
C816 C820 1.350 . S
C817 C820 1.463 1_655 S
C817 C822 1.350 . S
C817 N825 1.427 . S
C818 H809 0.930 . S
C818 C816 1.378 . S
C818 C819 1.367 . S
C819 C818 1.367 . S
C819 C821 1.433 . S
C820 C816 1.350 . S
C820 C817 1.463 1_455 S
C820 N824 1.427 . S
C821 H811 0.929 . S
C821 C819 1.433 . S
C821 N824 1.384 . S
C822 H813 0.929 . S
C822 C814 1.378 . S
C822 C817 1.350 . S
C823 H810 0.929 . S
C823 C815 1.433 . S
C823 N825 1.384 . S
N824 C820 1.427 . S
N824 C821 1.384 . S
N825 C817 1.427 . S
N825 C823 1.384 . S
H826 C832 0.930 . S
H827 C836 0.930 . S
H828 C841 0.930 . S
H829 C839 0.930 . S
H830 C834 0.929 . S
H831 C840 0.929 . S
C832 H826 0.930 . S
C832 C833 1.367 . S
C832 C840 1.378 . S
C833 C832 1.367 . S
C833 C841 1.433 . S
C834 H830 0.929 . S
C834 C836 1.378 . S
C834 C838 1.350 . S
C835 C838 1.463 1_545 S
C835 C840 1.350 . S
C835 N843 1.427 1_545 S
C836 H827 0.930 . S
C836 C834 1.378 . S
C836 C837 1.367 . S
C837 C836 1.367 . S
C837 C839 1.433 . S
C838 C834 1.350 . S
C838 C835 1.463 1_565 S
C838 N842 1.427 1_565 S
C839 H829 0.930 . S
C839 C837 1.433 . S
C839 N842 1.384 1_565 S
C840 H831 0.929 . S
C840 C832 1.378 . S
C840 C835 1.350 . S
C841 H828 0.930 . S
C841 C833 1.433 . S
C841 N843 1.384 1_545 S
N842 C838 1.427 1_545 S
N842 C839 1.384 1_545 S
N843 C835 1.427 1_565 S
N843 C841 1.384 1_565 S
H844 C850 0.930 . S
H845 C854 0.930 . S
H846 C859 0.929 . S
H847 C857 0.929 . S
H848 C852 0.929 1_556 S
H849 C858 0.929 1_554 S
C850 H844 0.930 . S
C850 C851 1.367 . S
C850 C858 1.378 . S
C851 C850 1.367 . S
C851 C859 1.433 . S
C852 H848 0.929 1_554 S
C852 C854 1.378 . S
C852 C856 1.350 . S
C853 C856 1.463 1_556 S
C853 C858 1.350 . S
C853 N861 1.427 . S
C854 H845 0.930 . S
C854 C852 1.378 . S
C854 C855 1.367 . S
C855 C854 1.367 . S
C855 C857 1.433 . S
C856 C852 1.350 . S
C856 C853 1.463 1_554 S
C856 N860 1.427 . S
C857 H847 0.929 . S
C857 C855 1.433 . S
C857 N860 1.384 . S
C858 H849 0.929 1_556 S
C858 C850 1.378 . S
C858 C853 1.350 . S
C859 H846 0.929 . S
C859 C851 1.433 . S
C859 N861 1.384 . S
N860 C856 1.427 . S
N860 C857 1.384 . S
N861 C853 1.427 . S
N861 C859 1.384 . S
H862 C868 0.930 . S
H863 C872 0.930 . S
H864 C877 0.929 . S
H865 C875 0.929 . S
H866 C870 0.929 . S
H867 C876 0.929 . S
C868 H862 0.930 . S
C868 C869 1.367 . S
C868 C876 1.378 . S
C869 C868 1.367 . S
C869 C877 1.433 . S
C870 H866 0.929 . S
C870 C872 1.378 . S
C870 C874 1.350 . S
C871 C874 1.463 . S
C871 C876 1.350 . S
C871 N879 1.427 . S
C872 H863 0.930 . S
C872 C870 1.378 . S
C872 C873 1.367 . S
C873 C872 1.367 . S
C873 C875 1.433 . S
C874 C870 1.350 . S
C874 C871 1.463 . S
C874 N878 1.427 . S
C875 H865 0.929 . S
C875 C873 1.433 . S
C875 N878 1.384 . S
C876 H867 0.929 . S
C876 C868 1.378 . S
C876 C871 1.350 . S
C877 H864 0.929 . S
C877 C869 1.433 . S
C877 N879 1.384 . S
N878 C874 1.427 . S
N878 C875 1.384 . S
N879 C871 1.427 . S
N879 C877 1.384 . S
H880 C886 0.930 . S
H881 C890 0.930 . S
H882 C895 0.929 . S
H883 C893 0.929 . S
H884 C888 0.929 . S
H885 C894 0.929 . S
C886 H880 0.930 . S
C886 C887 1.367 . S
C886 C894 1.378 . S
C887 C886 1.367 . S
C887 C895 1.433 . S
C888 H884 0.929 . S
C888 C890 1.378 . S
C888 C892 1.350 . S
C889 C892 1.463 1_455 S
C889 C894 1.350 . S
C889 N897 1.427 . S
C890 H881 0.930 . S
C890 C888 1.378 . S
C890 C891 1.367 . S
C891 C890 1.367 . S
C891 C893 1.433 . S
C892 C888 1.350 . S
C892 C889 1.463 1_655 S
C892 N896 1.427 . S
C893 H883 0.929 . S
C893 C891 1.433 . S
C893 N896 1.384 . S
C894 H885 0.929 . S
C894 C886 1.378 . S
C894 C889 1.350 . S
C895 H882 0.929 . S
C895 C887 1.433 . S
C895 N897 1.384 . S
N896 C892 1.427 . S
N896 C893 1.384 . S
N897 C889 1.427 . S
N897 C895 1.384 . S
H898 C904 0.930 . S
H899 C908 0.930 . S
H900 C913 0.929 . S
H901 C911 0.929 . S
H902 C906 0.929 . S
H903 C912 0.929 . S
C904 H898 0.930 . S
C904 C905 1.367 . S
C904 C912 1.378 . S
C905 C904 1.367 . S
C905 C913 1.433 . S
C906 H902 0.929 . S
C906 C908 1.378 . S
C906 C910 1.350 . S
C907 C910 1.463 . S
C907 C912 1.350 . S
C907 N915 1.427 . S
C908 H899 0.930 . S
C908 C906 1.378 . S
C908 C909 1.367 . S
C909 C908 1.367 . S
C909 C911 1.433 . S
C910 C906 1.350 . S
C910 C907 1.463 . S
C910 N914 1.427 . S
C911 H901 0.929 . S
C911 C909 1.433 . S
C911 N914 1.384 . S
C912 H903 0.929 . S
C912 C904 1.378 . S
C912 C907 1.350 . S
C913 H900 0.929 . S
C913 C905 1.433 . S
C913 N915 1.384 . S
N914 C910 1.427 . S
N914 C911 1.384 . S
N915 C907 1.427 . S
N915 C913 1.384 . S
H916 C922 0.930 . S
H917 C926 0.930 . S
H918 C931 0.929 . S
H919 C929 0.929 . S
H920 C924 0.929 . S
H921 C930 0.929 . S
C922 H916 0.930 . S
C922 C923 1.367 . S
C922 C930 1.378 . S
C923 C922 1.367 . S
C923 C931 1.433 . S
C924 H920 0.929 . S
C924 C926 1.378 . S
C924 C928 1.350 . S
C925 C928 1.463 . S
C925 C930 1.350 . S
C925 N933 1.427 . S
C926 H917 0.930 . S
C926 C924 1.378 . S
C926 C927 1.367 . S
C927 C926 1.367 . S
C927 C929 1.433 . S
C928 C924 1.350 . S
C928 C925 1.463 . S
C928 N932 1.427 . S
C929 H919 0.929 . S
C929 C927 1.433 . S
C929 N932 1.384 . S
C930 H921 0.929 . S
C930 C922 1.378 . S
C930 C925 1.350 . S
C931 H918 0.929 . S
C931 C923 1.433 . S
C931 N933 1.384 . S
N932 C928 1.427 . S
N932 C929 1.384 . S
N933 C925 1.427 . S
N933 C931 1.384 . S
H934 C940 0.930 . S
H935 C944 0.930 . S
H936 C949 0.929 . S
H937 C947 0.929 . S
H938 C942 0.929 . S
H939 C948 0.929 . S
C940 H934 0.930 . S
C940 C941 1.367 . S
C940 C948 1.378 . S
C941 C940 1.367 . S
C941 C949 1.433 . S
C942 H938 0.929 . S
C942 C944 1.378 . S
C942 C946 1.350 . S
C943 C946 1.463 . S
C943 C948 1.350 . S
C943 N951 1.427 . S
C944 H935 0.930 . S
C944 C942 1.378 . S
C944 C945 1.367 . S
C945 C944 1.367 . S
C945 C947 1.433 . S
C946 C942 1.350 . S
C946 C943 1.463 . S
C946 N950 1.427 . S
C947 H937 0.929 . S
C947 C945 1.433 . S
C947 N950 1.384 . S
C948 H939 0.929 . S
C948 C940 1.378 . S
C948 C943 1.350 . S
C949 H936 0.929 . S
C949 C941 1.433 . S
C949 N951 1.384 . S
N950 C946 1.427 . S
N950 C947 1.384 . S
N951 C943 1.427 . S
N951 C949 1.384 . S
H952 C958 0.930 . S
H953 C962 0.930 . S
H954 C967 0.929 . S
H955 C965 0.929 . S
H956 C960 0.929 . S
H957 C966 0.929 . S
C958 H952 0.930 . S
C958 C959 1.367 . S
C958 C966 1.378 . S
C959 C958 1.367 . S
C959 C967 1.433 . S
C960 H956 0.929 . S
C960 C962 1.378 . S
C960 C964 1.350 . S
C961 C964 1.463 . S
C961 C966 1.350 . S
C961 N969 1.427 . S
C962 H953 0.930 . S
C962 C960 1.378 . S
C962 C963 1.367 . S
C963 C962 1.367 . S
C963 C965 1.433 . S
C964 C960 1.350 . S
C964 C961 1.463 . S
C964 N968 1.427 . S
C965 H955 0.929 . S
C965 C963 1.433 . S
C965 N968 1.384 . S
C966 H957 0.929 . S
C966 C958 1.378 . S
C966 C961 1.350 . S
C967 H954 0.929 . S
C967 C959 1.433 . S
C967 N969 1.384 . S
N968 C964 1.427 . S
N968 C965 1.384 . S
N969 C961 1.427 . S
N969 C967 1.384 . S
H970 C976 0.930 . S
H971 C980 0.930 . S
H972 C985 0.929 . S
H973 C983 0.929 . S
H974 C978 0.929 . S
H975 C984 0.929 . S
C976 H970 0.930 . S
C976 C977 1.367 . S
C976 C984 1.378 . S
C977 C976 1.367 . S
C977 C985 1.433 . S
C978 H974 0.929 . S
C978 C980 1.378 . S
C978 C982 1.350 . S
C979 C982 1.463 1_565 S
C979 C984 1.350 . S
C979 N987 1.427 . S
C980 H971 0.930 . S
C980 C978 1.378 . S
C980 C981 1.367 . S
C981 C980 1.367 . S
C981 C983 1.433 . S
C982 C978 1.350 . S
C982 C979 1.463 1_545 S
C982 N986 1.427 . S
C983 H973 0.929 . S
C983 C981 1.433 . S
C983 N986 1.384 . S
C984 H975 0.929 . S
C984 C976 1.378 . S
C984 C979 1.350 . S
C985 H972 0.929 . S
C985 C977 1.433 . S
C985 N987 1.384 . S
N986 C982 1.427 . S
N986 C983 1.384 . S
N987 C979 1.427 . S
N987 C985 1.384 . S
H988 C994 0.930 . S
H989 C998 0.930 . S
H990 C1003 0.929 . S
H991 C1001 0.929 . S
H992 C996 0.929 . S
H993 C1002 0.929 . S
C994 H988 0.930 . S
C994 C995 1.367 . S
C994 C1002 1.378 . S
C995 C994 1.367 . S
C995 C1003 1.433 . S
C996 H992 0.929 . S
C996 C998 1.378 . S
C996 C1000 1.350 . S
C997 C1000 1.463 . S
C997 C1002 1.350 . S
C997 N1005 1.427 . S
C998 H989 0.930 . S
C998 C996 1.378 . S
C998 C999 1.367 . S
C999 C998 1.367 . S
C999 C1001 1.433 . S
C1000 C996 1.350 . S
C1000 C997 1.463 . S
C1000 N1004 1.427 . S
C1001 H991 0.929 . S
C1001 C999 1.433 . S
C1001 N1004 1.384 . S
C1002 H993 0.929 . S
C1002 C994 1.378 . S
C1002 C997 1.350 . S
C1003 H990 0.929 . S
C1003 C995 1.433 . S
C1003 N1005 1.384 . S
N1004 C1000 1.427 . S
N1004 C1001 1.384 . S
N1005 C997 1.427 . S
N1005 C1003 1.384 . S
H1006 C1012 0.930 1_556 S
H1007 C1016 0.930 1_554 S
H1008 C1021 0.929 . S
H1009 C1019 0.929 . S
H1010 C1014 0.929 . S
H1011 C1020 0.929 . S
C1012 H1006 0.930 1_554 S
C1012 C1013 1.367 . S
C1012 C1020 1.378 1_554 S
C1013 C1012 1.367 . S
C1013 C1021 1.433 . S
C1014 H1010 0.929 . S
C1014 C1016 1.378 1_554 S
C1014 C1018 1.350 1_554 S
C1015 C1018 1.463 1_554 S
C1015 C1020 1.350 1_554 S
C1015 N1023 1.427 . S
C1016 H1007 0.930 1_556 S
C1016 C1014 1.378 1_556 S
C1016 C1017 1.367 . S
C1017 C1016 1.367 . S
C1017 C1019 1.433 . S
C1018 C1014 1.350 1_556 S
C1018 C1015 1.463 1_556 S
C1018 N1022 1.427 . S
C1019 H1009 0.929 . S
C1019 C1017 1.433 . S
C1019 N1022 1.384 . S
C1020 H1011 0.929 . S
C1020 C1012 1.378 1_556 S
C1020 C1015 1.350 1_556 S
C1021 H1008 0.929 . S
C1021 C1013 1.433 . S
C1021 N1023 1.384 . S
N1022 C1018 1.427 . S
N1022 C1019 1.384 . S
N1023 C1015 1.427 . S
N1023 C1021 1.384 . S
H1024 C1030 0.930 . S
H1025 C1034 0.930 . S
H1026 C1039 0.929 . S
H1027 C1037 0.929 . S
H1028 C1032 0.929 . S
H1029 C1038 0.929 . S
C1030 H1024 0.930 . S
C1030 C1031 1.367 . S
C1030 C1038 1.378 . S
C1031 C1030 1.367 . S
C1031 C1039 1.433 . S
C1032 H1028 0.929 . S
C1032 C1034 1.378 . S
C1032 C1036 1.350 . S
C1033 C1036 1.463 . S
C1033 C1038 1.350 . S
C1033 N1041 1.427 . S
C1034 H1025 0.930 . S
C1034 C1032 1.378 . S
C1034 C1035 1.367 . S
C1035 C1034 1.367 . S
C1035 C1037 1.433 . S
C1036 C1032 1.350 . S
C1036 C1033 1.463 . S
C1036 N1040 1.427 . S
C1037 H1027 0.929 . S
C1037 C1035 1.433 . S
C1037 N1040 1.384 . S
C1038 H1029 0.929 . S
C1038 C1030 1.378 . S
C1038 C1033 1.350 . S
C1039 H1026 0.929 . S
C1039 C1031 1.433 . S
C1039 N1041 1.384 . S
N1040 C1036 1.427 . S
N1040 C1037 1.384 . S
N1041 C1033 1.427 . S
N1041 C1039 1.384 . S
H1042 C1048 0.930 . S
H1043 C1052 0.930 . S
H1044 C1057 0.929 . S
H1045 C1055 0.929 1_545 S
H1046 C1050 0.929 . S
H1047 C1056 0.929 . S
C1048 H1042 0.930 . S
C1048 C1049 1.367 . S
C1048 C1056 1.378 . S
C1049 C1048 1.367 . S
C1049 C1057 1.433 . S
C1050 H1046 0.929 . S
C1050 C1052 1.378 . S
C1050 C1054 1.350 . S
C1051 C1054 1.463 . S
C1051 C1056 1.350 . S
C1051 N1059 1.427 . S
C1052 H1043 0.930 . S
C1052 C1050 1.378 . S
C1052 C1053 1.367 . S
C1053 C1052 1.367 . S
C1053 C1055 1.433 . S
C1054 C1050 1.350 . S
C1054 C1051 1.463 . S
C1054 N1058 1.427 . S
C1055 H1045 0.929 1_565 S
C1055 C1053 1.433 . S
C1055 N1058 1.384 . S
C1056 H1047 0.929 . S
C1056 C1048 1.378 . S
C1056 C1051 1.350 . S
C1057 H1044 0.929 . S
C1057 C1049 1.433 . S
C1057 N1059 1.384 . S
N1058 C1054 1.427 . S
N1058 C1055 1.384 . S
N1059 C1051 1.427 . S
N1059 C1057 1.384 . S
H1060 C1066 0.930 . S
H1061 C1070 0.930 . S
H1062 C1075 0.929 . S
H1063 C1073 0.929 . S
H1064 C1068 0.929 . S
H1065 C1074 0.929 . S
C1066 H1060 0.930 . S
C1066 C1067 1.367 . S
C1066 C1074 1.378 . S
C1067 C1066 1.367 . S
C1067 C1075 1.433 . S
C1068 H1064 0.929 . S
C1068 C1070 1.378 . S
C1068 C1072 1.350 . S
C1069 C1072 1.463 . S
C1069 C1074 1.350 . S
C1069 N1077 1.427 . S
C1070 H1061 0.930 . S
C1070 C1068 1.378 . S
C1070 C1071 1.367 . S
C1071 C1070 1.367 . S
C1071 C1073 1.433 . S
C1072 C1068 1.350 . S
C1072 C1069 1.463 . S
C1072 N1076 1.427 . S
C1073 H1063 0.929 . S
C1073 C1071 1.433 . S
C1073 N1076 1.384 . S
C1074 H1065 0.929 . S
C1074 C1066 1.378 . S
C1074 C1069 1.350 . S
C1075 H1062 0.929 . S
C1075 C1067 1.433 . S
C1075 N1077 1.384 . S
N1076 C1072 1.427 . S
N1076 C1073 1.384 . S
N1077 C1069 1.427 . S
N1077 C1075 1.384 . S
H1078 C1084 0.930 . S
H1079 C1088 0.930 . S
H1080 C1093 0.929 . S
H1081 C1091 0.929 . S
H1082 C1086 0.929 . S
H1083 C1092 0.929 . S
C1084 H1078 0.930 . S
C1084 C1085 1.367 . S
C1084 C1092 1.378 . S
C1085 C1084 1.367 . S
C1085 C1093 1.433 . S
C1086 H1082 0.929 . S
C1086 C1088 1.378 . S
C1086 C1090 1.350 . S
C1087 C1090 1.463 . S
C1087 C1092 1.350 . S
C1087 N1095 1.427 . S
C1088 H1079 0.930 . S
C1088 C1086 1.378 . S
C1088 C1089 1.367 . S
C1089 C1088 1.367 . S
C1089 C1091 1.433 . S
C1090 C1086 1.350 . S
C1090 C1087 1.463 . S
C1090 N1094 1.427 . S
C1091 H1081 0.929 . S
C1091 C1089 1.433 . S
C1091 N1094 1.384 . S
C1092 H1083 0.929 . S
C1092 C1084 1.378 . S
C1092 C1087 1.350 . S
C1093 H1080 0.929 . S
C1093 C1085 1.433 . S
C1093 N1095 1.384 . S
N1094 C1090 1.427 . S
N1094 C1091 1.384 . S
N1095 C1087 1.427 . S
N1095 C1093 1.384 . S
H1096 C1102 0.930 . S
H1097 C1106 0.930 . S
H1098 C1111 0.929 . S
H1099 C1109 0.929 . S
H1100 C1104 0.929 . S
H1101 C1110 0.929 . S
C1102 H1096 0.930 . S
C1102 C1103 1.367 . S
C1102 C1110 1.378 . S
C1103 C1102 1.367 . S
C1103 C1111 1.433 . S
C1104 H1100 0.929 . S
C1104 C1106 1.378 . S
C1104 C1108 1.350 . S
C1105 C1108 1.463 . S
C1105 C1110 1.350 . S
C1105 N1113 1.427 . S
C1106 H1097 0.930 . S
C1106 C1104 1.378 . S
C1106 C1107 1.367 . S
C1107 C1106 1.367 . S
C1107 C1109 1.433 . S
C1108 C1104 1.350 . S
C1108 C1105 1.463 . S
C1108 N1112 1.427 . S
C1109 H1099 0.929 . S
C1109 C1107 1.433 . S
C1109 N1112 1.384 . S
C1110 H1101 0.929 . S
C1110 C1102 1.378 . S
C1110 C1105 1.350 . S
C1111 H1098 0.929 . S
C1111 C1103 1.433 . S
C1111 N1113 1.384 . S
N1112 C1108 1.427 . S
N1112 C1109 1.384 . S
N1113 C1105 1.427 . S
N1113 C1111 1.384 . S
H1114 C1120 0.930 . S
H1115 C1124 0.930 . S
H1116 C1129 0.929 1_565 S
H1117 C1127 0.929 . S
H1118 C1122 0.929 . S
H1119 C1128 0.929 . S
C1120 H1114 0.930 . S
C1120 C1121 1.367 . S
C1120 C1128 1.378 . S
C1121 C1120 1.367 . S
C1121 C1129 1.433 . S
C1122 H1118 0.929 . S
C1122 C1124 1.378 . S
C1122 C1126 1.350 . S
C1123 C1126 1.463 . S
C1123 C1128 1.350 . S
C1123 N1131 1.427 . S
C1124 H1115 0.930 . S
C1124 C1122 1.378 . S
C1124 C1125 1.367 . S
C1125 C1124 1.367 . S
C1125 C1127 1.433 . S
C1126 C1122 1.350 . S
C1126 C1123 1.463 . S
C1126 N1130 1.427 . S
C1127 H1117 0.929 . S
C1127 C1125 1.433 . S
C1127 N1130 1.384 . S
C1128 H1119 0.929 . S
C1128 C1120 1.378 . S
C1128 C1123 1.350 . S
C1129 H1116 0.929 1_545 S
C1129 C1121 1.433 . S
C1129 N1131 1.384 . S
N1130 C1126 1.427 . S
N1130 C1127 1.384 . S
N1131 C1123 1.427 . S
N1131 C1129 1.384 . S
H1132 C1138 0.930 . S
H1133 C1142 0.930 1_565 S
H1134 C1147 0.929 . S
H1135 C1145 0.929 . S
H1136 C1140 0.929 . S
H1137 C1146 0.929 . S
C1138 H1132 0.930 . S
C1138 C1139 1.367 . S
C1138 C1146 1.378 . S
C1139 C1138 1.367 . S
C1139 C1147 1.433 . S
C1140 H1136 0.929 . S
C1140 C1142 1.378 . S
C1140 C1144 1.350 . S
C1141 C1144 1.463 . S
C1141 C1146 1.350 . S
C1141 N1149 1.427 . S
C1142 H1133 0.930 1_545 S
C1142 C1140 1.378 . S
C1142 C1143 1.367 . S
C1143 C1142 1.367 . S
C1143 C1145 1.433 . S
C1144 C1140 1.350 . S
C1144 C1141 1.463 . S
C1144 N1148 1.427 . S
C1145 H1135 0.929 . S
C1145 C1143 1.433 . S
C1145 N1148 1.384 . S
C1146 H1137 0.929 . S
C1146 C1138 1.378 . S
C1146 C1141 1.350 . S
C1147 H1134 0.929 . S
C1147 C1139 1.433 . S
C1147 N1149 1.384 . S
N1148 C1144 1.427 . S
N1148 C1145 1.384 . S
N1149 C1141 1.427 . S
N1149 C1147 1.384 . S
H1150 C1156 0.930 . S
H1151 C1160 0.930 . S
H1152 C1165 0.929 . S
H1153 C1163 0.929 . S
H1154 C1158 0.929 . S
H1155 C1164 0.929 . S
C1156 H1150 0.930 . S
C1156 C1157 1.367 . S
C1156 C1164 1.378 . S
C1157 C1156 1.367 . S
C1157 C1165 1.433 . S
C1158 H1154 0.929 . S
C1158 C1160 1.378 . S
C1158 C1162 1.350 . S
C1159 C1162 1.463 . S
C1159 C1164 1.350 . S
C1159 N1167 1.427 . S
C1160 H1151 0.930 . S
C1160 C1158 1.378 . S
C1160 C1161 1.367 . S
C1161 C1160 1.367 . S
C1161 C1163 1.433 . S
C1162 C1158 1.350 . S
C1162 C1159 1.463 . S
C1162 N1166 1.427 . S
C1163 H1153 0.929 . S
C1163 C1161 1.433 . S
C1163 N1166 1.384 . S
C1164 H1155 0.929 . S
C1164 C1156 1.378 . S
C1164 C1159 1.350 . S
C1165 H1152 0.929 . S
C1165 C1157 1.433 . S
C1165 N1167 1.384 . S
N1166 C1162 1.427 . S
N1166 C1163 1.384 . S
N1167 C1159 1.427 . S
N1167 C1165 1.384 . S
H1168 C1174 0.930 . S
H1169 C1178 0.930 . S
H1170 C1183 0.929 . S
H1171 C1181 0.929 . S
H1172 C1176 0.929 . S
H1173 C1182 0.929 . S
C1174 H1168 0.930 . S
C1174 C1175 1.367 . S
C1174 C1182 1.378 . S
C1175 C1174 1.367 . S
C1175 C1183 1.433 . S
C1176 H1172 0.929 . S
C1176 C1178 1.378 . S
C1176 C1180 1.350 . S
C1177 C1180 1.463 . S
C1177 C1182 1.350 . S
C1177 N1185 1.427 . S
C1178 H1169 0.930 . S
C1178 C1176 1.378 . S
C1178 C1179 1.367 . S
C1179 C1178 1.367 . S
C1179 C1181 1.433 . S
C1180 C1176 1.350 . S
C1180 C1177 1.463 . S
C1180 N1184 1.427 . S
C1181 H1171 0.929 . S
C1181 C1179 1.433 . S
C1181 N1184 1.384 . S
C1182 H1173 0.929 . S
C1182 C1174 1.378 . S
C1182 C1177 1.350 . S
C1183 H1170 0.929 . S
C1183 C1175 1.433 . S
C1183 N1185 1.384 . S
N1184 C1180 1.427 . S
N1184 C1181 1.384 . S
N1185 C1177 1.427 . S
N1185 C1183 1.384 . S
H1186 C1192 0.930 . S
H1187 C1196 0.930 1_545 S
H1188 C1201 0.929 . S
H1189 C1199 0.929 . S
H1190 C1194 0.929 . S
H1191 C1200 0.929 . S
C1192 H1186 0.930 . S
C1192 C1193 1.367 . S
C1192 C1200 1.378 . S
C1193 C1192 1.367 . S
C1193 C1201 1.433 . S
C1194 H1190 0.929 . S
C1194 C1196 1.378 . S
C1194 C1198 1.350 . S
C1195 C1198 1.463 . S
C1195 C1200 1.350 . S
C1195 N1203 1.427 . S
C1196 H1187 0.930 1_565 S
C1196 C1194 1.378 . S
C1196 C1197 1.367 . S
C1197 C1196 1.367 . S
C1197 C1199 1.433 . S
C1198 C1194 1.350 . S
C1198 C1195 1.463 . S
C1198 N1202 1.427 . S
C1199 H1189 0.929 . S
C1199 C1197 1.433 . S
C1199 N1202 1.384 . S
C1200 H1191 0.929 . S
C1200 C1192 1.378 . S
C1200 C1195 1.350 . S
C1201 H1188 0.929 . S
C1201 C1193 1.433 . S
C1201 N1203 1.384 . S
N1202 C1198 1.427 . S
N1202 C1199 1.384 . S
N1203 C1195 1.427 . S
N1203 C1201 1.384 . S
H1204 C1210 0.930 . S
H1205 C1214 0.930 . S
H1206 C1219 0.929 . S
H1207 C1217 0.929 1_545 S
H1208 C1212 0.929 . S
H1209 C1218 0.929 . S
C1210 H1204 0.930 . S
C1210 C1211 1.367 . S
C1210 C1218 1.378 . S
C1211 C1210 1.367 . S
C1211 C1219 1.433 . S
C1212 H1208 0.929 . S
C1212 C1214 1.378 . S
C1212 C1216 1.350 . S
C1213 C1216 1.463 . S
C1213 C1218 1.350 . S
C1213 N1221 1.427 . S
C1214 H1205 0.930 . S
C1214 C1212 1.378 . S
C1214 C1215 1.367 . S
C1215 C1214 1.367 . S
C1215 C1217 1.433 . S
C1216 C1212 1.350 . S
C1216 C1213 1.463 . S
C1216 N1220 1.427 . S
C1217 H1207 0.929 1_565 S
C1217 C1215 1.433 . S
C1217 N1220 1.384 . S
C1218 H1209 0.929 . S
C1218 C1210 1.378 . S
C1218 C1213 1.350 . S
C1219 H1206 0.929 . S
C1219 C1211 1.433 . S
C1219 N1221 1.384 . S
N1220 C1216 1.427 . S
N1220 C1217 1.384 . S
N1221 C1213 1.427 . S
N1221 C1219 1.384 . S
H1222 C1228 0.930 . S
H1223 C1232 0.930 . S
H1224 C1237 0.929 . S
H1225 C1235 0.929 . S
H1226 C1230 0.929 . S
H1227 C1236 0.929 . S
C1228 H1222 0.930 . S
C1228 C1229 1.367 . S
C1228 C1236 1.378 . S
C1229 C1228 1.367 . S
C1229 C1237 1.433 . S
C1230 H1226 0.929 . S
C1230 C1232 1.378 . S
C1230 C1234 1.350 . S
C1231 C1234 1.463 . S
C1231 C1236 1.350 . S
C1231 N1239 1.427 . S
C1232 H1223 0.930 . S
C1232 C1230 1.378 . S
C1232 C1233 1.367 . S
C1233 C1232 1.367 . S
C1233 C1235 1.433 . S
C1234 C1230 1.350 . S
C1234 C1231 1.463 . S
C1234 N1238 1.427 . S
C1235 H1225 0.929 . S
C1235 C1233 1.433 . S
C1235 N1238 1.384 . S
C1236 H1227 0.929 . S
C1236 C1228 1.378 . S
C1236 C1231 1.350 . S
C1237 H1224 0.929 . S
C1237 C1229 1.433 . S
C1237 N1239 1.384 . S
N1238 C1234 1.427 . S
N1238 C1235 1.384 . S
N1239 C1231 1.427 . S
N1239 C1237 1.384 . S
H1240 C1246 0.930 . S
H1241 C1250 0.930 . S
H1242 C1255 0.929 . S
H1243 C1253 0.929 . S
H1244 C1248 0.929 . S
H1245 C1254 0.929 . S
C1246 H1240 0.930 . S
C1246 C1247 1.367 . S
C1246 C1254 1.378 . S
C1247 C1246 1.367 . S
C1247 C1255 1.433 . S
C1248 H1244 0.929 . S
C1248 C1250 1.378 . S
C1248 C1252 1.350 . S
C1249 C1252 1.463 . S
C1249 C1254 1.350 . S
C1249 N1257 1.427 . S
C1250 H1241 0.930 . S
C1250 C1248 1.378 . S
C1250 C1251 1.367 . S
C1251 C1250 1.367 . S
C1251 C1253 1.433 . S
C1252 C1248 1.350 . S
C1252 C1249 1.463 . S
C1252 N1256 1.427 . S
C1253 H1243 0.929 . S
C1253 C1251 1.433 . S
C1253 N1256 1.384 . S
C1254 H1245 0.929 . S
C1254 C1246 1.378 . S
C1254 C1249 1.350 . S
C1255 H1242 0.929 . S
C1255 C1247 1.433 . S
C1255 N1257 1.384 . S
N1256 C1252 1.427 . S
N1256 C1253 1.384 . S
N1257 C1249 1.427 . S
N1257 C1255 1.384 . S
H1258 C1264 0.930 1_565 S
H1259 C1268 0.930 . S
H1260 C1273 0.929 . S
H1261 C1271 0.929 . S
H1262 C1266 0.929 . S
H1263 C1272 0.929 . S
C1264 H1258 0.930 1_545 S
C1264 C1265 1.367 . S
C1264 C1272 1.378 . S
C1265 C1264 1.367 . S
C1265 C1273 1.433 . S
C1266 H1262 0.929 . S
C1266 C1268 1.378 . S
C1266 C1270 1.350 . S
C1267 C1270 1.463 . S
C1267 C1272 1.350 . S
C1267 N1275 1.427 . S
C1268 H1259 0.930 . S
C1268 C1266 1.378 . S
C1268 C1269 1.367 . S
C1269 C1268 1.367 . S
C1269 C1271 1.433 . S
C1270 C1266 1.350 . S
C1270 C1267 1.463 . S
C1270 N1274 1.427 . S
C1271 H1261 0.929 . S
C1271 C1269 1.433 . S
C1271 N1274 1.384 . S
C1272 H1263 0.929 . S
C1272 C1264 1.378 . S
C1272 C1267 1.350 . S
C1273 H1260 0.929 . S
C1273 C1265 1.433 . S
C1273 N1275 1.384 . S
N1274 C1270 1.427 . S
N1274 C1271 1.384 . S
N1275 C1267 1.427 . S
N1275 C1273 1.384 . S
H1276 C1282 0.930 . S
H1277 C1286 0.930 1_565 S
H1278 C1291 0.929 . S
H1279 C1289 0.929 . S
H1280 C1284 0.929 . S
H1281 C1290 0.929 . S
C1282 H1276 0.930 . S
C1282 C1283 1.367 . S
C1282 C1290 1.378 . S
C1283 C1282 1.367 . S
C1283 C1291 1.433 . S
C1284 H1280 0.929 . S
C1284 C1286 1.378 . S
C1284 C1288 1.350 . S
C1285 C1288 1.463 . S
C1285 C1290 1.350 . S
C1285 N1293 1.427 . S
C1286 H1277 0.930 1_545 S
C1286 C1284 1.378 . S
C1286 C1287 1.367 . S
C1287 C1286 1.367 . S
C1287 C1289 1.433 . S
C1288 C1284 1.350 . S
C1288 C1285 1.463 . S
C1288 N1292 1.427 . S
C1289 H1279 0.929 . S
C1289 C1287 1.433 . S
C1289 N1292 1.384 . S
C1290 H1281 0.929 . S
C1290 C1282 1.378 . S
C1290 C1285 1.350 . S
C1291 H1278 0.929 . S
C1291 C1283 1.433 . S
C1291 N1293 1.384 . S
N1292 C1288 1.427 . S
N1292 C1289 1.384 . S
N1293 C1285 1.427 . S
N1293 C1291 1.384 . S
H1294 C1300 0.930 . S
H1295 C1304 0.930 . S
H1296 C1309 0.929 . S
H1297 C1307 0.929 . S
H1298 C1302 0.929 . S
H1299 C1308 0.929 . S
C1300 H1294 0.930 . S
C1300 C1301 1.367 . S
C1300 C1308 1.378 . S
C1301 C1300 1.367 . S
C1301 C1309 1.433 . S
C1302 H1298 0.929 . S
C1302 C1304 1.378 . S
C1302 C1306 1.350 . S
C1303 C1306 1.463 . S
C1303 C1308 1.350 . S
C1303 N1311 1.427 . S
C1304 H1295 0.930 . S
C1304 C1302 1.378 . S
C1304 C1305 1.367 . S
C1305 C1304 1.367 . S
C1305 C1307 1.433 . S
C1306 C1302 1.350 . S
C1306 C1303 1.463 . S
C1306 N1310 1.427 . S
C1307 H1297 0.929 . S
C1307 C1305 1.433 . S
C1307 N1310 1.384 . S
C1308 H1299 0.929 . S
C1308 C1300 1.378 . S
C1308 C1303 1.350 . S
C1309 H1296 0.929 . S
C1309 C1301 1.433 . S
C1309 N1311 1.384 . S
N1310 C1306 1.427 . S
N1310 C1307 1.384 . S
N1311 C1303 1.427 . S
N1311 C1309 1.384 . S
H1312 C1318 0.930 . S
H1313 C1322 0.931 . S
H1314 C1327 0.929 . S
H1315 C1325 0.929 . S
H1316 C1320 0.929 . S
H1317 C1326 0.929 . S
C1318 H1312 0.930 . S
C1318 C1319 1.367 . S
C1318 C1326 1.378 . S
C1319 C1318 1.367 . S
C1319 C1327 1.433 . S
C1320 H1316 0.929 . S
C1320 C1322 1.378 . S
C1320 C1324 1.350 . S
C1321 C1324 1.463 . S
C1321 C1326 1.350 . S
C1321 N1329 1.427 . S
C1322 H1313 0.931 . S
C1322 C1320 1.378 . S
C1322 C1323 1.367 . S
C1323 C1322 1.367 . S
C1323 C1325 1.433 . S
C1324 C1320 1.350 . S
C1324 C1321 1.463 . S
C1324 N1328 1.427 . S
C1325 H1315 0.929 . S
C1325 C1323 1.433 . S
C1325 N1328 1.384 . S
C1326 H1317 0.929 . S
C1326 C1318 1.378 . S
C1326 C1321 1.350 . S
C1327 H1314 0.929 . S
C1327 C1319 1.433 . S
C1327 N1329 1.384 . S
N1328 C1324 1.427 . S
N1328 C1325 1.384 . S
N1329 C1321 1.427 . S
N1329 C1327 1.384 . S
H1330 C1336 0.930 . S
H1331 C1340 0.930 . S
H1332 C1345 0.929 . S
H1333 C1343 0.929 . S
H1334 C1338 0.929 . S
H1335 C1344 0.929 . S
C1336 H1330 0.930 . S
C1336 C1337 1.367 . S
C1336 C1344 1.378 . S
C1337 C1336 1.367 . S
C1337 C1345 1.433 . S
C1338 H1334 0.929 . S
C1338 C1340 1.378 . S
C1338 C1342 1.350 . S
C1339 C1342 1.463 . S
C1339 C1344 1.350 . S
C1339 N1347 1.427 . S
C1340 H1331 0.930 . S
C1340 C1338 1.378 . S
C1340 C1341 1.367 . S
C1341 C1340 1.367 . S
C1341 C1343 1.433 . S
C1342 C1338 1.350 . S
C1342 C1339 1.463 . S
C1342 N1346 1.427 . S
C1343 H1333 0.929 . S
C1343 C1341 1.433 . S
C1343 N1346 1.384 . S
C1344 H1335 0.929 . S
C1344 C1336 1.378 . S
C1344 C1339 1.350 . S
C1345 H1332 0.929 . S
C1345 C1337 1.433 . S
C1345 N1347 1.384 . S
N1346 C1342 1.427 . S
N1346 C1343 1.384 . S
N1347 C1339 1.427 . S
N1347 C1345 1.384 . S
H1348 C1354 0.930 . S
H1349 C1358 0.930 . S
H1350 C1363 0.929 . S
H1351 C1361 0.929 . S
H1352 C1356 0.929 . S
H1353 C1362 0.929 . S
C1354 H1348 0.930 . S
C1354 C1355 1.367 . S
C1354 C1362 1.378 . S
C1355 C1354 1.367 . S
C1355 C1363 1.433 . S
C1356 H1352 0.929 . S
C1356 C1358 1.378 . S
C1356 C1360 1.350 . S
C1357 C1360 1.463 . S
C1357 C1362 1.350 . S
C1357 N1365 1.427 . S
C1358 H1349 0.930 . S
C1358 C1356 1.378 . S
C1358 C1359 1.367 . S
C1359 C1358 1.367 . S
C1359 C1361 1.433 . S
C1360 C1356 1.350 . S
C1360 C1357 1.463 . S
C1360 N1364 1.427 . S
C1361 H1351 0.929 . S
C1361 C1359 1.433 . S
C1361 N1364 1.384 . S
C1362 H1353 0.929 . S
C1362 C1354 1.378 . S
C1362 C1357 1.350 . S
C1363 H1350 0.929 . S
C1363 C1355 1.433 . S
C1363 N1365 1.384 . S
N1364 C1360 1.427 . S
N1364 C1361 1.384 . S
N1365 C1357 1.427 . S
N1365 C1363 1.384 . S
H1366 C1372 0.930 1_545 S
H1367 C1376 0.930 . S
H1368 C1381 0.929 . S
H1369 C1379 0.929 . S
H1370 C1374 0.929 . S
H1371 C1380 0.929 . S
C1372 H1366 0.930 1_565 S
C1372 C1373 1.367 . S
C1372 C1380 1.378 . S
C1373 C1372 1.367 . S
C1373 C1381 1.433 . S
C1374 H1370 0.929 . S
C1374 C1376 1.378 . S
C1374 C1378 1.350 . S
C1375 C1378 1.463 . S
C1375 C1380 1.350 . S
C1375 N1383 1.427 . S
C1376 H1367 0.930 . S
C1376 C1374 1.378 . S
C1376 C1377 1.367 . S
C1377 C1376 1.367 . S
C1377 C1379 1.433 . S
C1378 C1374 1.350 . S
C1378 C1375 1.463 . S
C1378 N1382 1.427 . S
C1379 H1369 0.929 . S
C1379 C1377 1.433 . S
C1379 N1382 1.384 . S
C1380 H1371 0.929 . S
C1380 C1372 1.378 . S
C1380 C1375 1.350 . S
C1381 H1368 0.929 . S
C1381 C1373 1.433 . S
C1381 N1383 1.384 . S
N1382 C1378 1.427 . S
N1382 C1379 1.384 . S
N1383 C1375 1.427 . S
N1383 C1381 1.384 . S
H1384 C1390 0.930 . S
H1385 C1394 0.930 1_565 S
H1386 C1399 0.929 . S
H1387 C1397 0.929 . S
H1388 C1392 0.929 . S
H1389 C1398 0.929 . S
C1390 H1384 0.930 . S
C1390 C1391 1.367 . S
C1390 C1398 1.378 . S
C1391 C1390 1.367 . S
C1391 C1399 1.433 . S
C1392 H1388 0.929 . S
C1392 C1394 1.378 . S
C1392 C1396 1.350 . S
C1393 C1396 1.463 . S
C1393 C1398 1.350 . S
C1393 N1401 1.427 . S
C1394 H1385 0.930 1_545 S
C1394 C1392 1.378 . S
C1394 C1395 1.367 . S
C1395 C1394 1.367 . S
C1395 C1397 1.433 . S
C1396 C1392 1.350 . S
C1396 C1393 1.463 . S
C1396 N1400 1.427 . S
C1397 H1387 0.929 . S
C1397 C1395 1.433 . S
C1397 N1400 1.384 . S
C1398 H1389 0.929 . S
C1398 C1390 1.378 . S
C1398 C1393 1.350 . S
C1399 H1386 0.929 . S
C1399 C1391 1.433 . S
C1399 N1401 1.384 . S
N1400 C1396 1.427 . S
N1400 C1397 1.384 . S
N1401 C1393 1.427 . S
N1401 C1399 1.384 . S
H1402 C1408 0.930 . S
H1403 C1412 0.930 . S
H1404 C1417 0.929 . S
H1405 C1415 0.929 . S
H1406 C1410 0.929 . S
H1407 C1416 0.929 . S
C1408 H1402 0.930 . S
C1408 C1409 1.367 . S
C1408 C1416 1.378 . S
C1409 C1408 1.367 . S
C1409 C1417 1.433 . S
C1410 H1406 0.929 . S
C1410 C1412 1.378 . S
C1410 C1414 1.350 . S
C1411 C1414 1.463 . S
C1411 C1416 1.350 . S
C1411 N1419 1.427 . S
C1412 H1403 0.930 . S
C1412 C1410 1.378 . S
C1412 C1413 1.367 . S
C1413 C1412 1.367 . S
C1413 C1415 1.433 . S
C1414 C1410 1.350 . S
C1414 C1411 1.463 . S
C1414 N1418 1.427 . S
C1415 H1405 0.929 . S
C1415 C1413 1.433 . S
C1415 N1418 1.384 . S
C1416 H1407 0.929 . S
C1416 C1408 1.378 . S
C1416 C1411 1.350 . S
C1417 H1404 0.929 . S
C1417 C1409 1.433 . S
C1417 N1419 1.384 . S
N1418 C1414 1.427 . S
N1418 C1415 1.384 . S
N1419 C1411 1.427 . S
N1419 C1417 1.384 . S
H1420 C1426 0.930 . S
H1421 C1430 0.930 . S
H1422 C1435 0.929 . S
H1423 C1433 0.929 . S
H1424 C1428 0.929 . S
H1425 C1434 0.929 . S
C1426 H1420 0.930 . S
C1426 C1427 1.367 . S
C1426 C1434 1.378 . S
C1427 C1426 1.367 . S
C1427 C1435 1.433 . S
C1428 H1424 0.929 . S
C1428 C1430 1.378 . S
C1428 C1432 1.350 . S
C1429 C1432 1.463 . S
C1429 C1434 1.350 . S
C1429 N1437 1.427 . S
C1430 H1421 0.930 . S
C1430 C1428 1.378 . S
C1430 C1431 1.367 . S
C1431 C1430 1.367 . S
C1431 C1433 1.433 . S
C1432 C1428 1.350 . S
C1432 C1429 1.463 . S
C1432 N1436 1.427 . S
C1433 H1423 0.929 . S
C1433 C1431 1.433 . S
C1433 N1436 1.384 . S
C1434 H1425 0.929 . S
C1434 C1426 1.378 . S
C1434 C1429 1.350 . S
C1435 H1422 0.929 . S
C1435 C1427 1.433 . S
C1435 N1437 1.384 . S
N1436 C1432 1.427 . S
N1436 C1433 1.384 . S
N1437 C1429 1.427 . S
N1437 C1435 1.384 . S
H1438 C1444 0.930 . S
H1439 C1448 0.930 . S
H1440 C1453 0.929 . S
H1441 C1451 0.929 1_565 S
H1442 C1446 0.929 . S
H1443 C1452 0.929 . S
C1444 H1438 0.930 . S
C1444 C1445 1.367 . S
C1444 C1452 1.378 . S
C1445 C1444 1.367 . S
C1445 C1453 1.433 . S
C1446 H1442 0.929 . S
C1446 C1448 1.378 . S
C1446 C1450 1.350 . S
C1447 C1450 1.463 . S
C1447 C1452 1.350 . S
C1447 N1455 1.427 . S
C1448 H1439 0.930 . S
C1448 C1446 1.378 . S
C1448 C1449 1.367 . S
C1449 C1448 1.367 . S
C1449 C1451 1.433 . S
C1450 C1446 1.350 . S
C1450 C1447 1.463 . S
C1450 N1454 1.427 . S
C1451 H1441 0.929 1_545 S
C1451 C1449 1.433 . S
C1451 N1454 1.384 . S
C1452 H1443 0.929 . S
C1452 C1444 1.378 . S
C1452 C1447 1.350 . S
C1453 H1440 0.929 . S
C1453 C1445 1.433 . S
C1453 N1455 1.384 . S
N1454 C1450 1.427 . S
N1454 C1451 1.384 . S
N1455 C1447 1.427 . S
N1455 C1453 1.384 . S
H1456 C1462 0.930 . S
H1457 C1466 0.930 1_545 S
H1458 C1471 0.929 . S
H1459 C1469 0.929 . S
H1460 C1464 0.929 . S
H1461 C1470 0.929 . S
C1462 H1456 0.930 . S
C1462 C1463 1.367 . S
C1462 C1470 1.378 . S
C1463 C1462 1.367 . S
C1463 C1471 1.433 . S
C1464 H1460 0.929 . S
C1464 C1466 1.378 . S
C1464 C1468 1.350 . S
C1465 C1468 1.463 . S
C1465 C1470 1.350 . S
C1465 N1473 1.427 . S
C1466 H1457 0.930 1_565 S
C1466 C1464 1.378 . S
C1466 C1467 1.367 . S
C1467 C1466 1.367 . S
C1467 C1469 1.433 . S
C1468 C1464 1.350 . S
C1468 C1465 1.463 . S
C1468 N1472 1.427 . S
C1469 H1459 0.929 . S
C1469 C1467 1.433 . S
C1469 N1472 1.384 . S
C1470 H1461 0.929 . S
C1470 C1462 1.378 . S
C1470 C1465 1.350 . S
C1471 H1458 0.929 . S
C1471 C1463 1.433 . S
C1471 N1473 1.384 . S
N1472 C1468 1.427 . S
N1472 C1469 1.384 . S
N1473 C1465 1.427 . S
N1473 C1471 1.384 . S
H1474 C1480 0.930 . S
H1475 C1484 0.930 . S
H1476 C1489 0.929 . S
H1477 C1487 0.929 . S
H1478 C1482 0.929 . S
H1479 C1488 0.929 . S
C1480 H1474 0.930 . S
C1480 C1481 1.367 . S
C1480 C1488 1.378 . S
C1481 C1480 1.367 . S
C1481 C1489 1.433 . S
C1482 H1478 0.929 . S
C1482 C1484 1.378 . S
C1482 C1486 1.350 . S
C1483 C1486 1.463 . S
C1483 C1488 1.350 . S
C1483 N1491 1.427 . S
C1484 H1475 0.930 . S
C1484 C1482 1.378 . S
C1484 C1485 1.367 . S
C1485 C1484 1.367 . S
C1485 C1487 1.433 . S
C1486 C1482 1.350 . S
C1486 C1483 1.463 . S
C1486 N1490 1.427 . S
C1487 H1477 0.929 . S
C1487 C1485 1.433 . S
C1487 N1490 1.384 . S
C1488 H1479 0.929 . S
C1488 C1480 1.378 . S
C1488 C1483 1.350 . S
C1489 H1476 0.929 . S
C1489 C1481 1.433 . S
C1489 N1491 1.384 . S
N1490 C1486 1.427 . S
N1490 C1487 1.384 . S
N1491 C1483 1.427 . S
N1491 C1489 1.384 . S
H1492 C1498 0.930 . S
H1493 C1502 0.930 . S
H1494 C1507 0.929 . S
H1495 C1505 0.929 . S
H1496 C1500 0.929 . S
H1497 C1506 0.929 . S
C1498 H1492 0.930 . S
C1498 C1499 1.367 . S
C1498 C1506 1.378 . S
C1499 C1498 1.367 . S
C1499 C1507 1.433 . S
C1500 H1496 0.929 . S
C1500 C1502 1.378 . S
C1500 C1504 1.350 . S
C1501 C1504 1.463 . S
C1501 C1506 1.350 . S
C1501 N1509 1.427 . S
C1502 H1493 0.930 . S
C1502 C1500 1.378 . S
C1502 C1503 1.367 . S
C1503 C1502 1.367 . S
C1503 C1505 1.433 . S
C1504 C1500 1.350 . S
C1504 C1501 1.463 . S
C1504 N1508 1.427 . S
C1505 H1495 0.929 . S
C1505 C1503 1.433 . S
C1505 N1508 1.384 . S
C1506 H1497 0.929 . S
C1506 C1498 1.378 . S
C1506 C1501 1.350 . S
C1507 H1494 0.929 . S
C1507 C1499 1.433 . S
C1507 N1509 1.384 . S
N1508 C1504 1.427 . S
N1508 C1505 1.384 . S
N1509 C1501 1.427 . S
N1509 C1507 1.384 . S
H1510 C1516 0.930 1_545 S
H1511 C1520 0.930 . S
H1512 C1525 0.929 . S
H1513 C1523 0.929 . S
H1514 C1518 0.929 . S
H1515 C1524 0.929 . S
C1516 H1510 0.930 1_565 S
C1516 C1517 1.367 . S
C1516 C1524 1.378 . S
C1517 C1516 1.367 . S
C1517 C1525 1.433 . S
C1518 H1514 0.929 . S
C1518 C1520 1.378 . S
C1518 C1522 1.350 . S
C1519 C1522 1.463 . S
C1519 C1524 1.350 . S
C1519 N1527 1.427 . S
C1520 H1511 0.930 . S
C1520 C1518 1.378 . S
C1520 C1521 1.367 . S
C1521 C1520 1.367 . S
C1521 C1523 1.433 . S
C1522 C1518 1.350 . S
C1522 C1519 1.463 . S
C1522 N1526 1.427 . S
C1523 H1513 0.929 . S
C1523 C1521 1.433 . S
C1523 N1526 1.384 . S
C1524 H1515 0.929 . S
C1524 C1516 1.378 . S
C1524 C1519 1.350 . S
C1525 H1512 0.929 . S
C1525 C1517 1.433 . S
C1525 N1527 1.384 . S
N1526 C1522 1.427 . S
N1526 C1523 1.384 . S
N1527 C1519 1.427 . S
N1527 C1525 1.384 . S
H1528 C1534 0.930 . S
H1529 C1538 0.930 1_565 S
H1530 C1543 0.929 . S
H1531 C1541 0.929 . S
H1532 C1536 0.929 . S
H1533 C1542 0.929 . S
C1534 H1528 0.930 . S
C1534 C1535 1.367 . S
C1534 C1542 1.378 . S
C1535 C1534 1.367 . S
C1535 C1543 1.433 . S
C1536 H1532 0.929 . S
C1536 C1538 1.378 . S
C1536 C1540 1.350 . S
C1537 C1540 1.463 . S
C1537 C1542 1.350 . S
C1537 N1545 1.427 . S
C1538 H1529 0.930 1_545 S
C1538 C1536 1.378 . S
C1538 C1539 1.367 . S
C1539 C1538 1.367 . S
C1539 C1541 1.433 . S
C1540 C1536 1.350 . S
C1540 C1537 1.463 . S
C1540 N1544 1.427 . S
C1541 H1531 0.929 . S
C1541 C1539 1.433 . S
C1541 N1544 1.384 . S
C1542 H1533 0.929 . S
C1542 C1534 1.378 . S
C1542 C1537 1.350 . S
C1543 H1530 0.929 . S
C1543 C1535 1.433 . S
C1543 N1545 1.384 . S
N1544 C1540 1.427 . S
N1544 C1541 1.384 . S
N1545 C1537 1.427 . S
N1545 C1543 1.384 . S
H1546 C1552 0.930 . S
H1547 C1556 0.930 . S
H1548 C1561 0.929 . S
H1549 C1559 0.929 . S
H1550 C1554 0.929 . S
H1551 C1560 0.929 . S
C1552 H1546 0.930 . S
C1552 C1553 1.367 . S
C1552 C1560 1.378 . S
C1553 C1552 1.367 . S
C1553 C1561 1.433 . S
C1554 H1550 0.929 . S
C1554 C1556 1.378 . S
C1554 C1558 1.350 . S
C1555 C1558 1.463 . S
C1555 C1560 1.350 . S
C1555 N1563 1.427 . S
C1556 H1547 0.930 . S
C1556 C1554 1.378 . S
C1556 C1557 1.367 . S
C1557 C1556 1.367 . S
C1557 C1559 1.433 . S
C1558 C1554 1.350 . S
C1558 C1555 1.463 . S
C1558 N1562 1.427 . S
C1559 H1549 0.929 . S
C1559 C1557 1.433 . S
C1559 N1562 1.384 . S
C1560 H1551 0.929 . S
C1560 C1552 1.378 . S
C1560 C1555 1.350 . S
C1561 H1548 0.929 . S
C1561 C1553 1.433 . S
C1561 N1563 1.384 . S
N1562 C1558 1.427 . S
N1562 C1559 1.384 . S
N1563 C1555 1.427 . S
N1563 C1561 1.384 . S
H1564 C1570 0.930 . S
H1565 C1574 0.930 . S
H1566 C1579 0.929 . S
H1567 C1577 0.929 . S
H1568 C1572 0.929 . S
H1569 C1578 0.929 . S
C1570 H1564 0.930 . S
C1570 C1571 1.367 . S
C1570 C1578 1.378 . S
C1571 C1570 1.367 . S
C1571 C1579 1.433 . S
C1572 H1568 0.929 . S
C1572 C1574 1.378 . S
C1572 C1576 1.350 . S
C1573 C1576 1.463 . S
C1573 C1578 1.350 . S
C1573 N1581 1.427 . S
C1574 H1565 0.930 . S
C1574 C1572 1.378 . S
C1574 C1575 1.367 . S
C1575 C1574 1.367 . S
C1575 C1577 1.433 . S
C1576 C1572 1.350 . S
C1576 C1573 1.463 . S
C1576 N1580 1.427 . S
C1577 H1567 0.929 . S
C1577 C1575 1.433 . S
C1577 N1580 1.384 . S
C1578 H1569 0.929 . S
C1578 C1570 1.378 . S
C1578 C1573 1.350 . S
C1579 H1566 0.929 . S
C1579 C1571 1.433 . S
C1579 N1581 1.384 . S
N1580 C1576 1.427 . S
N1580 C1577 1.384 . S
N1581 C1573 1.427 . S
N1581 C1579 1.384 . S
H1582 C1588 0.930 . S
H1583 C1592 0.930 . S
H1584 C1597 0.929 1_565 S
H1585 C1595 0.929 . S
H1586 C1590 0.929 . S
H1587 C1596 0.929 . S
C1588 H1582 0.930 . S
C1588 C1589 1.367 . S
C1588 C1596 1.378 . S
C1589 C1588 1.367 . S
C1589 C1597 1.433 . S
C1590 H1586 0.929 . S
C1590 C1592 1.378 . S
C1590 C1594 1.350 . S
C1591 C1594 1.463 . S
C1591 C1596 1.350 . S
C1591 N1599 1.427 . S
C1592 H1583 0.930 . S
C1592 C1590 1.378 . S
C1592 C1593 1.367 . S
C1593 C1592 1.367 . S
C1593 C1595 1.433 . S
C1594 C1590 1.350 . S
C1594 C1591 1.463 . S
C1594 N1598 1.427 . S
C1595 H1585 0.929 . S
C1595 C1593 1.433 . S
C1595 N1598 1.384 . S
C1596 H1587 0.929 . S
C1596 C1588 1.378 . S
C1596 C1591 1.350 . S
C1597 H1584 0.929 1_545 S
C1597 C1589 1.433 . S
C1597 N1599 1.384 . S
N1598 C1594 1.427 . S
N1598 C1595 1.384 . S
N1599 C1591 1.427 . S
N1599 C1597 1.384 . S
C455 C9 1.404 . S
C459 C23 1.393 . S
C473 C51 1.404 . S
C477 C37 1.394 . S
C491 C65 1.393 . S
C495 C79 1.404 . S
C509 C93 1.392 . S
C513 C107 1.405 . S
C527 C121 1.393 . S
C531 C135 1.404 . S
C545 C149 1.405 . S
C549 C163 1.393 . S
C563 C177 1.402 . S
C567 C191 1.396 . S
C581 C205 1.403 . S
C585 C219 1.394 . S
C599 C247 1.394 . S
C603 C233 1.403 . S
C617 C275 1.404 . S
C621 C261 1.394 . S
C635 C303 1.393 . S
C639 C289 1.404 . S
C653 C331 1.396 . S
C657 C317 1.401 . S
C671 C359 1.393 . S
C675 C345 1.404 . S
C689 C387 1.394 . S
C693 C373 1.403 . S
C707 C415 1.397 . S
C711 C401 1.401 . S
C725 C443 1.395 . S
C729 C429 1.403 . S
C743 C8 1.481 . S
C747 C176 1.481 . S
C761 C22 1.481 . S
C765 C302 1.481 . S
C779 C36 1.471 . S
C783 C92 1.471 . S
C797 C50 1.481 . S
C801 C442 1.481 . S
C815 C64 1.473 . S
C819 C120 1.473 . S
C833 C246 1.481 . S
C837 C78 1.481 . S
C851 C386 1.473 . S
C855 C106 1.473 . S
C869 C134 1.472 . S
C873 C414 1.472 . S
C887 C148 1.471 . S
C891 C204 1.471 . S
C905 C162 1.472 . S
C909 C330 1.472 . S
C923 C190 1.476 . S
C927 C358 1.476 . S
C941 C218 1.472 . S
C945 C274 1.472 . S
C959 C400 1.480 . S
C963 C232 1.480 . S
C977 C316 1.478 . S
C981 C260 1.478 . S
C995 C288 1.477 . S
C999 C344 1.477 . S
C1013 C428 1.480 . S
C1017 C372 1.480 . S
C1031 C147 0.790 . S
C1035 C7 0.803 . S
C1049 C161 0.802 . S
C1053 C21 0.801 1_565 S
C1067 C35 0.789 1_565 S
C1071 C119 0.802 . S
C1085 C133 0.804 . S
C1089 C49 0.795 . S
C1103 C63 0.796 . S
C1107 C203 0.804 . S
C1121 C77 0.795 1_545 S
C1125 C217 0.804 . S
C1139 C175 0.794 . S
C1143 C91 0.785 1_545 S
C1157 C189 0.788 . S
C1161 C105 0.787 . S
C1175 C231 0.785 . S
C1179 C371 0.797 . S
C1193 C385 0.785 . S
C1197 C245 0.793 1_565 S
C1211 C343 0.800 . S
C1215 C259 0.802 1_565 S
C1229 C273 0.804 . S
C1233 C357 0.793 . S
C1247 C427 0.800 . S
C1251 C287 0.802 . S
C1265 C301 0.796 1_545 S
C1269 C441 0.785 . S
C1283 C399 0.786 . S
C1287 C315 0.790 1_545 S
C1301 C413 0.786 . S
C1305 C329 0.790 . S
C1319 C143 1.590 . S
C1323 C3 1.586 1_565 S
C1337 C157 1.586 . S
C1341 C17 1.590 . S
C1355 C115 1.587 . S
C1359 C31 1.590 . S
C1373 C45 1.588 1_565 S
C1377 C129 1.587 . S
C1391 C199 1.587 . S
C1395 C59 1.587 1_545 S
C1409 C213 1.586 . S
C1413 C73 1.589 . S
C1427 C171 1.589 . S
C1431 C87 1.588 . S
C1445 C185 1.590 . S
C1449 C101 1.588 1_545 S
C1463 C367 1.589 . S
C1467 C227 1.586 1_565 S
C1481 C381 1.588 . S
C1485 C241 1.587 . S
C1499 C339 1.587 . S
C1503 C255 1.587 . S
C1517 C269 1.589 1_565 S
C1521 C353 1.586 . S
C1535 C423 1.588 . S
C1539 C283 1.587 1_545 S
C1553 C297 1.590 . S
C1557 C437 1.587 . S
C1571 C395 1.587 . S
C1575 C311 1.588 . S
C1589 C325 1.589 1_545 S
C1593 C409 1.589 . S
