# Generated by pormake.
# Topology wnj, (7)-cn, num edge types: 1
# Building blocks:
#     Node 0, Type 0, BuildingBlock: OLANEW_clean_sbu_0, # of connection points: 7
#     Node 1, Type 0, BuildingBlock: OLANEW_clean_sbu_0, # of connection points: 7
#     Node 2, Type 0, BuildingBlock: OLANEW_clean_sbu_0, # of connection points: 7
#     Node 3, Type 0, BuildingBlock: OLANEW_clean_sbu_0, # of connection points: 7
#     Node 4, Type 0, BuildingBlock: OLANEW_clean_sbu_0, # of connection points: 7
#     Node 5, Type 0, BuildingBlock: OLANEW_clean_sbu_0, # of connection points: 7
#     Edge 6, Type (0, 0), None
#     Edge 7, Type (0, 0), None
#     Edge 8, Type (0, 0), None
#     Edge 9, Type (0, 0), None
#     Edge 10, Type (0, 0), None
#     Edge 11, Type (0, 0), None
#     Edge 12, Type (0, 0), None
#     Edge 13, Type (0, 0), None
#     Edge 14, Type (0, 0), None
#     Edge 15, Type (0, 0), None
#     Edge 16, Type (0, 0), None
#     Edge 17, Type (0, 0), None
#     Edge 18, Type (0, 0), None
#     Edge 19, Type (0, 0), None
#     Edge 20, Type (0, 0), None
#     Edge 21, Type (0, 0), None
#     Edge 22, Type (0, 0), None
#     Edge 23, Type (0, 0), None
#     Edge 24, Type (0, 0), None
#     Edge 25, Type (0, 0), None
#     Edge 26, Type (0, 0), None
# Relax obj value: 0.335
# Max RMSD: 0.278
# Mean RMSD: 0.278
data_MOF--net-wnj--node1-OLANEW_clean_sbu_0--edge1-none
_symmetry_space_group_name_H-M    P1
_symmetry_Int_Tables_number       1
_symmetry_cell_setting            triclinic
loop_
_symmetry_equiv_pos_as_xyz
'x, y, z'
_cell_length_a     21.934225
_cell_length_b     21.935515
_cell_length_c     29.348661
_cell_angle_alpha  90.00281
_cell_angle_beta   89.998685
_cell_angle_gamma 120.00699
loop_
_atom_site_label
_atom_site_type_symbol
_atom_site_fract_x
_atom_site_fract_y
_atom_site_fract_z
_atom_type_partial_charge
Cd0 Cd 0.26198 0.63008 0.13984 0.0
C1 C 0.31446 0.80526 0.12252 0.0
C2 C 0.11387 0.41218 0.9335 0.0
O3 O 0.16098 0.4093 0.90733 0.0
Cd4 Cd 0.18463 0.72152 0.2117 0.0
C5 C 0.05332 0.34777 0.95116 0.0
C6 C 0.93064 0.24226 -0.00795 0.0
C7 C 0.95496 0.31371 -0.00012 0.0
N8 N 1.0147 0.36113 -0.02011 0.0
C9 C 1.03224 0.27751 0.94138 0.0
C10 C 0.97015 0.22441 0.96237 0.0
Co11 Co 1.04321 0.45402 -0.00994 0.0
C12 C 0.925 0.34598 0.02966 0.0
O13 O 0.87225 0.30809 0.0574 0.0
C14 C 0.95444 0.45511 0.0697 0.0
C15 C 1.00525 0.48242 0.1037 0.0
C16 C 1.00444 0.5268 0.13718 0.0
C17 C 0.9417 0.52932 0.14355 0.0
C18 C 0.88422 0.49254 0.11335 0.0
C19 C 0.89295 0.45913 0.07489 0.0
C20 C 0.07269 0.57592 0.15951 0.0
C21 C 0.18221 0.54224 0.93982 0.0
C22 C 0.24842 0.54813 0.94501 0.0
C23 C 0.17892 0.60032 0.92263 0.0
C24 C 0.24031 0.66161 0.90973 0.0
C25 C 0.3056 0.66535 0.91291 0.0
C26 C 0.30982 0.60776 0.92975 0.0
N27 N 0.11935 0.47488 0.94727 0.0
N28 N 0.9631 0.4179 0.03226 0.0
N29 N 0.10975 0.46693 0.03849 0.0
C30 C 0.12624 0.41512 0.05481 0.0
C31 C 0.19307 0.42345 0.04754 0.0
C32 C 0.07656 0.35757 0.08013 0.0
C33 C 0.21006 0.37374 0.06403 0.0
H34 H 0.23208 0.46918 0.0294 0.0
C35 C 0.15935 0.31576 0.08899 0.0
C36 C 0.09249 0.30743 0.09745 0.0
C37 C 0.28064 0.38244 0.05522 0.0
H38 H 1.02609 0.35286 0.08734 0.0
H39 H 0.17206 0.27722 0.102 0.0
C40 C 1.03971 0.24684 0.12467 0.0
O41 O 0.29859 0.33725 0.07377 0.0
O42 O 0.3229 0.4304 0.031 0.0
O43 O 0.98131 0.23922 0.13156 0.0
O44 O 0.05591 0.1997 0.14212 0.0
H45 H 0.34415 0.34173 0.06824 0.0
H46 H 1.02235 0.15989 0.15999 0.0
N47 N 0.06922 0.546 0.00054 0.0
C48 C 1.03344 0.57068 -0.02203 0.0
C49 C 0.05354 0.6417 -0.01629 0.0
C50 C 0.11016 0.68283 0.01366 0.0
C51 C 0.14575 0.65297 0.03662 0.0
C52 C 0.12294 0.58183 0.02892 0.0
N53 N 0.98334 0.45711 0.94126 0.0
C54 C 0.98347 0.51964 0.94468 0.0
O55 O 0.95319 0.53901 0.91371 0.0
C56 C 0.14931 0.53773 0.04874 0.0
O57 O 0.3152 0.56839 0.18136 0.0
O58 O 0.36138 0.61307 0.11613 0.0
C59 C 0.97227 0.424 0.89699 0.0
C60 C 0.90429 0.37316 0.88228 0.0
C61 C 0.89335 0.34772 0.837 0.0
C62 C 0.9512 0.37307 0.80718 0.0
C63 C 1.01866 0.4251 0.82066 0.0
C64 C 1.02771 0.45123 0.86512 0.0
O65 O 0.31935 0.75231 0.10964 0.0
O66 O 0.2734 0.8 0.15505 0.0
O67 O 0.12902 0.57723 0.14577 0.0
O68 O 0.07644 0.62421 0.18505 0.0
O69 O 0.21404 0.56672 0.06764 0.0
C70 C 0.29144 0.70763 0.25468 0.0
O71 O 0.23957 0.70189 0.27715 0.0
O72 O 0.27839 0.67937 0.21556 0.0
C73 C 0.36231 0.58064 0.1517 0.0
H74 H 0.88312 0.20179 0.00812 0.0
H75 H 0.06215 0.264 0.91831 0.0
H76 H 0.95255 0.1696 0.95551 0.0
H77 H 1.04677 0.47026 0.1041 0.0
H78 H 0.9377 0.55974 0.17123 0.0
H79 H 0.85073 0.43298 0.05037 0.0
H80 H 0.25131 0.50299 0.95674 0.0
H81 H 0.12931 0.59768 0.91652 0.0
H82 H 0.35198 0.71158 0.90019 0.0
H83 H 1.02773 0.66505 0.96511 0.0
H84 H 0.12692 0.73788 0.01866 0.0
H85 H 0.18898 0.6842 0.05953 0.0
H86 H 0.86027 0.35497 0.90557 0.0
H87 H 0.94308 0.35444 0.77256 0.0
H88 H 0.07757 0.49577 0.87383 0.0
Cd89 Cd 0.45061 0.64802 0.80651 0.0
C90 C 0.2753 0.52537 0.78895 0.0
C91 C 0.668 0.71783 0.60017 0.0
O92 O 0.67079 0.76781 0.57405 0.0
Cd93 Cd 0.35963 0.48023 0.87784 0.0
C94 C 0.73247 0.72177 0.61779 0.0
C95 C 0.83812 0.70476 0.65859 0.0
C96 C 0.76669 0.65757 0.66646 0.0
N97 N 0.71921 0.66981 0.6465 0.0
C98 C 0.80271 0.77102 0.60797 0.0
C99 C 0.85588 0.7621 0.62891 0.0
Co100 Co 0.62634 0.60535 0.65672 0.0
C101 C 0.73451 0.59536 0.69625 0.0
O102 O 0.77247 0.58055 0.72396 0.0
C103 C 0.62546 0.5156 0.73636 0.0
C104 C 0.59818 0.53907 0.77038 0.0
C105 C 0.55394 0.49387 0.80392 0.0
C106 C 0.55149 0.42865 0.81025 0.0
C107 C 0.58823 0.408 0.77998 0.0
C108 C 0.62152 0.45013 0.74151 0.0
C109 C 0.50481 0.51293 0.82631 0.0
C110 C 0.53793 0.65591 0.60653 0.0
C111 C 0.5319 0.71615 0.61172 0.0
C112 C 0.47988 0.59444 0.58938 0.0
C113 C 0.41848 0.59435 0.57655 0.0
C114 C 0.41459 0.65582 0.57975 0.0
C115 C 0.47216 0.71773 0.5965 0.0
N116 N 0.60534 0.66054 0.61396 0.0
N117 N 0.66259 0.56148 0.6989 0.0
N118 N 0.61343 0.65898 0.70515 0.0
C119 C 0.66525 0.72729 0.72146 0.0
C120 C 0.65693 0.78578 0.71417 0.0
C121 C 0.72279 0.73515 0.7468 0.0
C122 C 0.70666 0.85249 0.73067 0.0
H123 H 0.61123 0.77906 0.69601 0.0
C124 C 0.76462 0.85978 0.75565 0.0
C125 C 0.77293 0.80123 0.76412 0.0
C126 C 0.69797 0.91436 0.72184 0.0
H127 H 0.72749 0.6894 0.75401 0.0
H128 H 0.80316 0.91102 0.76866 0.0
C129 C 0.83351 0.80906 0.79136 0.0
O130 O 0.74315 0.97751 0.74039 0.0
O131 O 0.65004 0.90866 0.69758 0.0
O132 O 0.84111 0.75827 0.79826 0.0
O133 O 0.88066 0.87241 0.80881 0.0
H134 H 0.73868 1.01859 0.73485 0.0
H135 H 0.92046 0.87866 0.82669 0.0
N136 N 0.53439 0.53929 0.66726 0.0
C137 C 0.50972 0.47882 0.6447 0.0
C138 C 0.43871 0.42787 0.65046 0.0
C139 C 0.39758 0.44335 0.6804 0.0
C140 C 0.42742 0.50882 0.70334 0.0
C141 C 0.49855 0.55718 0.69563 0.0
N142 N 0.62324 0.54238 0.60794 0.0
C143 C 0.56074 0.47993 0.61138 0.0
O144 O 0.54137 0.43026 0.58042 0.0
C145 C 0.54262 0.62771 0.71539 0.0
O146 O 0.51259 0.76308 0.84789 0.0
O147 O 0.46785 0.76447 0.78265 0.0
C148 C 0.65632 0.56441 0.56366 0.0
C149 C 0.70711 0.54724 0.54892 0.0
C150 C 0.73253 0.56175 0.50364 0.0
C151 C 0.70722 0.59432 0.47386 0.0
C152 C 0.65522 0.60976 0.48736 0.0
C153 C 0.6291 0.59265 0.53182 0.0
O154 O 0.32832 0.58318 0.77608 0.0
O155 O 0.2805 0.48952 0.82146 0.0
O156 O 0.5034 0.5679 0.81261 0.0
O157 O 0.45648 0.4683 0.85177 0.0
O158 O 0.51359 0.66346 0.7342 0.0
C159 C 0.37225 0.60094 0.92125 0.0
O160 O 0.37853 0.55461 0.94307 0.0
O161 O 0.3995 0.61687 0.88187 0.0
C162 C 0.50024 0.79787 0.81824 0.0
H163 H 0.87864 0.69776 0.67463 0.0
H164 H 0.81615 0.81442 0.5849 0.0
H165 H 0.91067 0.79936 0.62202 0.0
H166 H 0.61023 0.59272 0.77076 0.0
H167 H 0.52116 0.39422 0.83795 0.0
H168 H 0.64765 0.43409 0.71695 0.0
H169 H 0.577 0.76425 0.62341 0.0
H170 H 0.48262 0.54753 0.58325 0.0
H171 H 0.36828 0.65582 0.56706 0.0
H172 H 0.41536 0.37869 0.63186 0.0
H173 H 0.34252 0.40502 0.68542 0.0
H174 H 0.39618 0.5208 0.72625 0.0
H175 H 0.72528 0.52137 0.5722 0.0
H176 H 0.72584 0.60484 0.43924 0.0
H177 H 0.58455 0.59794 0.54053 0.0
Cd178 Cd 0.43211 0.81857 0.4731 0.0
C179 C 0.55481 0.76599 0.45563 0.0
C180 C 0.36221 0.96642 0.2666 0.0
O181 O 0.31213 0.91937 0.24045 0.0
Cd182 Cd 0.59966 0.89531 0.54455 0.0
C183 C 0.35842 1.02694 0.28434 0.0
C184 C 0.3757 0.14957 0.32535 0.0
C185 C 0.42278 0.12518 0.33313 0.0
N186 N 0.41041 0.06546 0.31309 0.0
C187 C 0.30928 0.04809 0.27461 0.0
C188 C 0.31832 0.11015 0.29566 0.0
Co189 Co 0.47473 0.03684 0.32319 0.0
C190 C 0.48501 0.15504 0.3629 0.0
O191 O 0.49993 0.20778 0.39066 0.0
C192 C 0.56472 0.1256 0.40285 0.0
C193 C 0.54127 0.07483 0.43685 0.0
C194 C 0.58641 0.07595 0.47049 0.0
C195 C 0.65155 0.13881 0.47687 0.0
C196 C 0.67219 0.19617 0.44658 0.0
C197 C 0.63011 0.18723 0.40806 0.0
C198 C 0.56735 1.00784 0.49297 0.0
C199 C 0.42366 0.89784 0.27272 0.0
C200 C 0.36319 0.83173 0.27783 0.0
C201 C 0.48484 0.90093 0.25532 0.0
C202 C 0.48425 0.83946 0.24194 0.0
C203 C 0.42246 0.77428 0.24497 0.0
C204 C 0.36097 0.77025 0.26223 0.0
N205 N 0.41939 0.9608 0.28033 0.0
N206 N 0.51876 0.11688 0.36545 0.0
N207 N 0.42103 0.97022 0.37159 0.0
C208 C 0.35279 0.95381 0.38798 0.0
C209 C 0.29422 0.88701 0.38073 0.0
C210 C 0.34506 1.00352 0.41335 0.0
C211 C 0.22757 0.8701 0.39729 0.0
H212 H 0.30085 0.84797 0.36257 0.0
C213 C 0.22041 0.92083 0.4223 0.0
C214 C 0.27903 0.98766 0.43074 0.0
C215 C 0.16562 0.79956 0.38851 0.0
H216 H 0.39087 0.05396 0.42055 0.0
H217 H 0.16921 0.90818 0.43535 0.0
C218 C 0.27133 0.04047 0.458 0.0
O219 O 0.10253 0.78165 0.40713 0.0
O220 O 0.1712 0.75729 0.36423 0.0
O221 O 0.32218 0.09885 0.46488 0.0
O222 O 0.20803 1.02433 0.4755 0.0
H223 H 0.06139 0.73613 0.40161 0.0
H224 H 0.20186 0.05791 0.4934 0.0
N225 N 0.54063 1.01071 0.3336 0.0
C226 C 0.60112 0.04649 0.31105 0.0
C227 C 0.65203 1.02638 0.31679 0.0
C228 C 0.63649 0.96974 0.34672 0.0
C229 C 0.57101 0.93414 0.36966 0.0
C230 C 0.5227 0.95695 0.36195 0.0
N231 N 0.53779 0.09683 0.27448 0.0
C232 C 0.60016 0.09661 0.27786 0.0
O233 O 0.64986 0.12698 0.24693 0.0
C234 C 0.45223 0.9306 0.38178 0.0
O235 O 0.31706 0.76571 0.51447 0.0
O236 O 0.31563 0.71933 0.44931 0.0
C237 C 0.51584 0.10809 0.23025 0.0
C238 C 0.53306 0.17611 0.21563 0.0
C239 C 0.51867 0.18719 0.17036 0.0
C240 C 0.4862 0.12941 0.14046 0.0
C241 C 0.47067 0.06191 0.15389 0.0
C242 C 0.48767 0.05275 0.19834 0.0
O243 O 0.49701 0.76117 0.44271 0.0
O244 O 0.59059 0.80702 0.48816 0.0
O245 O 0.51245 0.9514 0.47926 0.0
O246 O 0.61191 1.00423 0.51855 0.0
O247 O 0.4165 0.8659 0.40071 0.0
C248 C 0.47885 0.78688 0.58788 0.0
O249 O 0.52511 0.83964 0.60963 0.0
O250 O 0.46285 0.79793 0.54843 0.0
C251 C 0.28224 0.71847 0.48486 0.0
H252 H 0.3828 0.19707 0.34147 0.0
H253 H 0.26585 1.01826 0.25153 0.0
H254 H 0.28114 0.1278 0.28885 0.0
H255 H 0.48765 0.03316 0.43718 0.0
H256 H 0.68593 0.143 0.50463 0.0
H257 H 0.6461 0.22941 0.38352 0.0
H258 H 0.31539 0.82902 0.28988 0.0
H259 H 0.53202 0.95047 0.2494 0.0
H260 H 0.42197 0.72785 0.23202 0.0
H261 H 0.70123 0.05224 0.29823 0.0
H262 H 0.6748 0.95299 0.35174 0.0
H263 H 0.55901 0.89091 0.39257 0.0
H264 H 0.55887 0.22006 0.23898 0.0
H265 H 0.47575 0.13761 0.10584 0.0
H266 H 0.48233 1.00288 0.207 0.0
Cd267 Cd 0.64714 0.24641 0.8016 0.0
C268 C 0.82217 0.29864 0.81847 0.0
C269 C 0.4279 0.09737 0.00799 0.0
O270 O 0.42451 0.14423 0.03412 0.0
Cd271 Cd 0.73916 0.16848 0.72893 0.0
C272 C 0.36379 0.03671 -0.00986 0.0
C273 C 0.25888 0.91391 0.94904 0.0
C274 C 0.33044 0.93856 0.94137 0.0
N275 N 0.37756 0.99836 0.96145 0.0
C276 C 0.29339 1.01529 -0.00024 0.0
C277 C 0.2406 0.95314 -0.02134 0.0
Co278 Co 0.47063 1.02733 0.95152 0.0
C279 C 0.3631 0.90891 0.91168 0.0
O280 O 0.32552 0.85615 0.88388 0.0
C281 C 0.47252 0.93881 0.87186 0.0
C282 C 0.49974 0.98965 0.83791 0.0
C283 C 0.54418 0.98898 0.80442 0.0
C284 C 0.54683 0.92633 0.79796 0.0
C285 C 0.51013 0.86876 0.82811 0.0
C286 C 0.47665 0.87736 0.8666 0.0
C287 C 0.59315 0.0573 0.78211 0.0
C288 C 0.55797 0.16642 0.00225 0.0
C289 C 0.56332 0.23242 -0.00274 0.0
C290 C 0.61605 0.16357 0.01991 0.0
C291 C 0.6765 0.22511 0.03378 0.0
C292 C 0.67952 0.29014 0.03089 0.0
C293 C 0.62218 0.29398 0.01322 0.0
N294 N 0.49089 0.1033 -0.00561 0.0
N295 N 0.43504 0.94728 0.90923 0.0
N296 N 0.48349 0.09388 0.90308 0.0
C297 C 0.43162 0.11026 0.88673 0.0
C298 C 0.4399 0.17708 0.89394 0.0
C299 C 0.37409 0.0605 0.86143 0.0
C300 C 0.39012 0.19397 0.87743 0.0
H301 H 0.48564 0.21616 0.91203 0.0
C302 C 0.33213 0.14318 0.85252 0.0
C303 C 0.32387 0.07633 0.84411 0.0
C304 C 0.3988 0.26456 0.88615 0.0
H305 H 0.36945 1.01006 0.85424 0.0
H306 H 0.29354 0.15581 0.83951 0.0
C307 C 0.26325 1.02347 0.81694 0.0
O308 O 0.35352 0.28241 0.86761 0.0
O309 O 0.44682 0.30693 0.91029 0.0
O310 O 0.25568 0.96507 0.81009 0.0
O311 O 0.21604 0.03958 0.79949 0.0
H312 H 0.358 0.32798 0.87307 0.0
H313 H 0.17622 1.00596 0.78165 0.0
N314 N 0.5628 0.05384 0.9413 0.0
C315 C 0.5876 1.01824 0.96395 0.0
C316 C 0.65871 0.03858 0.95833 0.0
C317 C 0.69978 0.09523 0.92839 0.0
C318 C 0.66978 0.13061 0.90533 0.0
C319 C 0.59857 0.10757 0.91292 0.0
N320 N 0.4737 0.9674 0.00027 0.0
C321 C 0.53647 0.96796 -0.00294 0.0
O322 O 0.55582 0.9377 0.02805 0.0
C323 C 0.55431 0.13359 0.89289 0.0
O324 O 0.58605 0.30012 0.75998 0.0
O325 O 0.63073 0.3461 0.82525 0.0
C326 C 0.4402 0.95589 0.04442 0.0
C327 C 0.38941 0.88777 0.05894 0.0
C328 C 0.36371 0.87654 0.10416 0.0
C329 C 0.38884 0.93426 0.13412 0.0
C330 C 0.44077 1.00184 0.12078 0.0
C331 C 0.4671 1.01114 0.07638 0.0
O332 O 0.76927 0.30355 0.83141 0.0
O333 O 0.81691 0.25765 0.78587 0.0
O334 O 0.59433 0.11352 0.79594 0.0
O335 O 0.64131 0.06111 0.75638 0.0
O336 O 0.58311 0.1981 0.87367 0.0
C337 C 0.72334 0.27347 0.68668 0.0
O338 O 0.71843 0.22277 0.66326 0.0
O339 O 0.69371 0.25807 0.7254 0.0
C340 C 0.59835 0.34715 0.7897 0.0
H341 H 0.21864 0.86633 0.93288 0.0
H342 H 0.27956 0.04498 0.0228 0.0
H343 H 0.18569 0.93528 -0.01461 0.0
H344 H 0.4874 1.03104 0.83752 0.0
H345 H 0.57728 0.92246 0.77026 0.0
H346 H 0.45054 0.83508 0.89108 0.0
H347 H 0.51828 0.23495 -0.0151 0.0
H348 H 0.61394 0.11412 0.0257 0.0
H349 H 0.72516 0.33661 0.0441 0.0
H350 H 0.68213 1.01287 -0.02304 0.0
H351 H 0.75489 0.11215 0.92346 0.0
H352 H 0.70097 0.17382 0.8824 0.0
H353 H 0.37143 0.8439 0.03555 0.0
H354 H 0.37005 0.92597 0.16871 0.0
H355 H 0.51158 0.06109 0.06778 0.0
Cd356 Cd 0.83366 0.41674 0.4683 0.0
C357 C 0.78152 0.53957 0.48507 0.0
C358 C 0.98305 0.34661 0.6748 0.0
O359 O 0.9363 0.29629 0.70096 0.0
Cd360 Cd 0.91162 0.58675 0.39543 0.0
C361 C 1.04371 0.34327 0.65687 0.0
C362 C 0.16651 0.36139 0.61564 0.0
C363 C 0.14172 0.40818 0.60802 0.0
N364 N 0.08193 0.3954 0.62814 0.0
C365 C 0.06528 0.2944 0.66645 0.0
C366 C 0.12741 0.30386 0.64529 0.0
Co367 Co 0.05278 0.45938 0.61828 0.0
C368 C 0.17123 0.4705 0.57833 0.0
O369 O 0.22398 0.48577 0.5505 0.0
C370 C 0.14119 0.54994 0.53861 0.0
C371 C 0.09032 0.52632 0.50468 0.0
C372 C 0.09104 0.57139 0.47114 0.0
C373 C 0.15373 0.63665 0.46465 0.0
C374 C 0.21132 0.65753 0.49478 0.0
C375 C 0.2027 0.61549 0.5333 0.0
C376 C 1.02274 0.552 0.4488 0.0
C377 C 0.91369 0.40728 0.6692 0.0
C378 C 0.84779 0.34646 0.66427 0.0
C379 C 0.91633 0.46804 0.68699 0.0
C380 C 0.85469 0.46654 0.70114 0.0
C381 C 0.78978 0.40434 0.69835 0.0
C382 C 0.78614 0.34339 0.68043 0.0
N383 N 0.97692 0.40356 0.66123 0.0
N384 N 0.13277 0.50396 0.57594 0.0
N385 N 0.98618 0.40561 0.56987 0.0
C386 C 0.96987 0.33739 0.55348 0.0
C387 C 0.90306 0.27879 0.56067 0.0
C388 C 1.01966 0.32971 0.52816 0.0
C389 C 0.88622 0.21216 0.54411 0.0
H390 H 0.86395 0.28539 0.57876 0.0
C391 C 0.93706 0.20504 0.5192 0.0
C392 C 1.0039 0.26369 0.51082 0.0
C393 C 0.81564 0.15019 0.55278 0.0
H394 H 0.07007 0.37557 0.52098 0.0
H395 H 0.92448 0.15386 0.50616 0.0
C396 C 0.05681 0.25603 0.48364 0.0
O397 O 0.79785 0.0871 0.53421 0.0
O398 O 0.77322 0.15576 0.57692 0.0
O399 O 0.11519 0.30689 0.47682 0.0
O400 O 1.04075 0.19273 0.46617 0.0
H401 H 0.75228 0.04597 0.53963 0.0
H402 H 0.0744 0.18658 0.44833 0.0
N403 N 1.02608 0.5249 0.60814 0.0
C404 C 0.06165 0.58533 0.63078 0.0
C405 C 1.04125 0.63603 0.62516 0.0
C406 C 0.98456 0.62038 0.59524 0.0
C407 C 0.94922 0.55499 0.57218 0.0
C408 C 0.97232 0.50687 0.57978 0.0
N409 N 0.11277 0.52246 0.66699 0.0
C410 C 0.11208 0.5846 0.66381 0.0
O411 O 0.14238 0.63426 0.69478 0.0
C412 C 0.94639 0.43663 0.5597 0.0
O413 O 0.78003 0.30196 0.42664 0.0
O414 O 0.73389 0.3006 0.49187 0.0
C415 C 0.12443 0.50054 0.71111 0.0
C416 C 0.19259 0.51784 0.72552 0.0
C417 C 0.20397 0.50346 0.77072 0.0
C418 C 0.14634 0.47101 0.80079 0.0
C419 C 0.07873 0.45536 0.78754 0.0
C420 C 0.0693 0.47228 0.74314 0.0
O421 O 0.77658 0.48177 0.49805 0.0
O422 O 0.82249 0.57525 0.45245 0.0
O423 O 0.96651 0.49699 0.46265 0.0
O424 O 1.01896 0.59628 0.42298 0.0
O425 O 0.88195 0.40092 0.54037 0.0
C426 C 0.80679 0.46583 0.35335 0.0
O427 O 0.85738 0.51152 0.32981 0.0
O428 O 0.8224 0.45171 0.39204 0.0
C429 C 0.73294 0.2672 0.45632 0.0
H430 H 0.21409 0.36882 0.59944 0.0
H431 H 1.03569 0.25088 0.68952 0.0
H432 H 0.14538 0.2669 0.65198 0.0
H433 H 0.0489 0.47259 0.50432 0.0
H434 H 0.15763 0.67093 0.43691 0.0
H435 H 0.24501 0.63165 0.55775 0.0
H436 H 0.84543 0.29907 0.65173 0.0
H437 H 0.9657 0.51555 0.69265 0.0
H438 H 0.74324 0.40323 0.71169 0.0
H439 H 0.06696 0.68519 0.64378 0.0
H440 H 0.96761 0.65854 0.5903 0.0
H441 H 0.906 0.54293 0.54925 0.0
H442 H 0.23638 0.54365 0.70205 0.0
H443 H 0.15473 0.46056 0.83537 0.0
H444 H 1.01933 0.46678 0.73458 0.0
Cd445 Cd 0.66367 0.43346 0.13501 0.0
C446 C 0.54082 0.25842 0.15192 0.0
C447 C 0.73382 0.65252 0.34159 0.0
O448 O 0.78415 0.65604 0.36771 0.0
Cd449 Cd 0.49429 0.34176 0.06246 0.0
C450 C 0.73723 0.71657 0.32369 0.0
C451 C 0.71928 0.82136 0.2825 0.0
C452 C 0.67243 0.74978 0.27485 0.0
N453 N 0.68513 0.70271 0.29496 0.0
C454 C 0.78616 0.78698 0.33329 0.0
C455 C 0.77678 0.83972 0.31215 0.0
Co456 Co 0.62109 0.6096 0.28505 0.0
C457 C 0.61014 0.71705 0.24515 0.0
O458 O 0.59492 0.75459 0.21734 0.0
C459 C 0.53064 0.60764 0.20538 0.0
C460 C 0.55421 0.58039 0.17142 0.0
C461 C 0.50915 0.53624 0.13781 0.0
C462 C 0.44396 0.53383 0.13133 0.0
C463 C 0.42316 0.57052 0.16155 0.0
C464 C 0.46518 0.60375 0.20009 0.0
C465 C 0.52843 0.48733 0.11538 0.0
C466 C 0.67304 0.52249 0.33598 0.0
C467 C 0.73382 0.51735 0.33104 0.0
C468 C 0.61226 0.46439 0.35379 0.0
C469 C 0.61374 0.40427 0.368 0.0
C470 C 0.67593 0.40154 0.36523 0.0
C471 C 0.73687 0.45879 0.34724 0.0
N472 N 0.67682 0.58946 0.32801 0.0
N473 N 0.57664 0.64513 0.24272 0.0
N474 N 0.67487 0.59677 0.23666 0.0
C475 C 0.74308 0.64869 0.22025 0.0
C476 C 0.80169 0.64051 0.22744 0.0
C477 C 0.75073 0.70613 0.19491 0.0
C478 C 0.86831 0.6903 0.21085 0.0
H479 H 0.79511 0.59483 0.24555 0.0
C480 C 0.8754 0.74822 0.18591 0.0
C481 C 0.81674 0.75637 0.17753 0.0
C482 C 0.93029 0.68172 0.21953 0.0
H483 H 0.70487 0.71066 0.18773 0.0
H484 H 0.92658 0.78682 0.17285 0.0
C485 C 0.82437 0.8169 0.15032 0.0
O486 O 0.99336 0.727 0.20092 0.0
O487 O 0.92474 0.63378 0.2437 0.0
O488 O 0.77349 0.82438 0.1435 0.0
O489 O 0.88765 0.86413 0.13282 0.0
H490 H 1.0345 0.72259 0.20635 0.0
H491 H 0.89378 0.9039 0.11496 0.0
N492 N 0.55551 0.51739 0.27486 0.0
C493 C 0.49506 0.49253 0.29747 0.0
C494 C 0.44433 0.42142 0.29183 0.0
C495 C 0.45998 0.38039 0.26191 0.0
C496 C 0.5254 0.41044 0.23888 0.0
C497 C 0.57354 0.48165 0.2465 0.0
N498 N 0.55795 0.60649 0.33371 0.0
C499 C 0.49579 0.54367 0.3305 0.0
O500 O 0.4461 0.52431 0.36145 0.0
C501 C 0.64382 0.52596 0.22647 0.0
O502 O 0.7786 0.49499 0.0935 0.0
O503 O 0.77978 0.44982 0.15862 0.0
C504 C 0.57982 0.64007 0.37782 0.0
C505 C 0.56247 0.69089 0.39221 0.0
C506 C 0.57679 0.71663 0.43742 0.0
C507 C 0.60925 0.69148 0.4675 0.0
C508 C 0.62496 0.63956 0.45425 0.0
C509 C 0.60807 0.61322 0.40986 0.0
O510 O 0.59862 0.3113 0.1649 0.0
O511 O 0.50515 0.26372 0.11931 0.0
O512 O 0.58337 0.48595 0.1292 0.0
O513 O 0.48409 0.4393 0.08958 0.0
O514 O 0.67954 0.49721 0.2072 0.0
C515 C 0.61516 0.3567 0.02005 0.0
O516 O 0.5693 0.36202 -0.00301 0.0
O517 O 0.62979 0.38567 0.05898 0.0
C518 C 0.81327 0.48245 0.12313 0.0
H519 H 0.71191 0.86155 0.26631 0.0
H520 H 0.82967 0.80087 0.35636 0.0
H521 H 0.81379 0.89463 0.31887 0.0
H522 H 0.6079 0.59256 0.1711 0.0
H523 H 0.40967 0.50358 0.10356 0.0
H524 H 0.4491 0.62993 0.22458 0.0
H525 H 0.78121 0.56236 0.31845 0.0
H526 H 0.56476 0.46628 0.35943 0.0
H527 H 0.67702 0.35611 0.37858 0.0
H528 H 0.39516 0.39797 0.31042 0.0
H529 H 0.42181 0.32528 0.25695 0.0
H530 H 0.53747 0.37928 0.21595 0.0
H531 H 0.53667 0.70885 0.36873 0.0
H532 H 0.61966 0.7103 0.50209 0.0
H533 H 0.61357 0.56875 0.4013 0.0
loop_
_geom_bond_atom_site_label_1
_geom_bond_atom_site_label_2
_geom_bond_distance
_geom_bond_site_symmetry_2
_ccdc_geom_bond_type
Cd0 O57 2.350 . S
Cd0 O58 2.277 . S
Cd0 O65 2.173 . S
Cd0 O67 2.263 . S
Cd0 O69 2.366 . S
Cd0 O72 2.329 . S
C1 O65 1.277 . S
C1 O66 1.230 . S
C2 O3 1.246 . S
C2 C5 1.481 . S
C2 N27 1.329 . S
O3 C2 1.246 . S
Cd4 O66 2.250 . S
Cd4 O68 2.308 . S
Cd4 O71 2.352 . S
C5 C2 1.481 . S
C5 N8 1.327 1_556 S
C5 C9 1.407 . S
C6 C7 1.346 . S
C6 C10 1.390 . S
C6 H74 0.930 . S
C7 C6 1.346 . S
C7 N8 1.342 1_655 S
C7 C12 1.516 . S
N8 C5 1.327 1_554 S
N8 C7 1.342 1_455 S
N8 Co11 1.864 . S
C9 C5 1.407 . S
C9 C10 1.364 1_456 S
C9 H75 0.930 . S
C10 C6 1.390 . S
C10 C9 1.364 1_654 S
C10 H76 0.931 . S
Co11 N8 1.864 . S
Co11 N27 1.955 1_554 S
Co11 N28 1.958 . S
Co11 N29 1.953 . S
Co11 N47 1.869 . S
Co11 N53 1.974 1_454 S
C12 C7 1.516 . S
C12 O13 1.238 . S
C12 N28 1.324 1_655 S
O13 C12 1.238 . S
C14 C15 1.394 . S
C14 C19 1.395 1_455 S
C14 N28 1.427 . S
C15 C14 1.394 . S
C15 C16 1.380 . S
C15 H77 0.929 . S
C16 C15 1.380 . S
C16 C17 1.384 . S
C16 C20 1.495 . S
C17 C16 1.384 . S
C17 C18 1.382 1_455 S
C17 H78 0.930 . S
C18 C17 1.382 1_655 S
C18 C19 1.398 . S
C19 C14 1.395 1_655 S
C19 C18 1.398 . S
C19 H79 0.930 . S
C20 C16 1.495 . S
C20 O67 1.258 . S
C20 O68 1.274 . S
C21 C22 1.385 . S
C21 C23 1.381 . S
C21 N27 1.432 . S
C22 C21 1.385 . S
C22 C26 1.388 . S
C22 H80 0.929 . S
C23 C21 1.381 . S
C23 C24 1.371 . S
C23 H81 0.932 . S
C24 C23 1.371 . S
C24 C25 1.400 . S
C25 C24 1.400 . S
C25 C26 1.351 . S
C25 H82 0.930 . S
C26 C22 1.388 . S
C26 C25 1.351 . S
N27 C2 1.329 . S
N27 Co11 1.955 1_556 S
N27 C21 1.432 . S
N28 Co11 1.958 . S
N28 C12 1.324 1_455 S
N28 C14 1.427 . S
N29 Co11 1.953 . S
N29 C30 1.436 . S
N29 C56 1.316 . S
C30 N29 1.436 . S
C30 C31 1.421 . S
C30 C32 1.360 . S
C31 C30 1.421 . S
C31 C33 1.379 . S
C31 H34 0.929 . S
C32 C30 1.360 . S
C32 C36 1.393 . S
C32 H38 0.931 . S
C33 C31 1.379 . S
C33 C35 1.417 . S
C33 C37 1.505 . S
H34 C31 0.929 . S
C35 C33 1.417 . S
C35 C36 1.352 . S
C35 H39 0.929 . S
C36 C32 1.393 . S
C36 C35 1.352 . S
C36 C40 1.482 . S
C37 C33 1.505 . S
C37 O41 1.259 . S
C37 O42 1.229 . S
H38 C32 0.931 . S
H39 C35 0.929 . S
C40 C36 1.482 . S
C40 O43 1.207 . S
C40 O44 1.289 . S
O41 C37 1.259 . S
O41 H45 0.822 . S
O42 C37 1.229 . S
O43 C40 1.207 . S
O44 C40 1.289 . S
O44 H46 0.819 . S
H45 O41 0.822 . S
H46 O44 0.819 . S
N47 Co11 1.869 . S
N47 C48 1.330 1_554 S
N47 C52 1.325 . S
C48 N47 1.330 1_556 S
C48 C49 1.359 . S
C48 C54 1.504 1_455 S
C49 C48 1.359 . S
C49 C50 1.366 1_556 S
C49 H83 0.929 . S
C50 C49 1.366 1_554 S
C50 C51 1.415 . S
C50 H84 0.932 . S
C51 C50 1.415 . S
C51 C52 1.366 . S
C51 H85 0.931 . S
C52 N47 1.325 . S
C52 C51 1.366 . S
C52 C56 1.516 . S
N53 Co11 1.974 1_656 S
N53 C54 1.309 . S
N53 C59 1.423 . S
C54 C48 1.504 1_655 S
C54 N53 1.309 . S
C54 O55 1.258 . S
O55 C54 1.258 . S
C56 N29 1.316 . S
C56 C52 1.516 . S
C56 O69 1.263 . S
O57 Cd0 2.350 . S
O57 C73 1.270 . S
O58 Cd0 2.277 . S
O58 C73 1.248 . S
C59 N53 1.423 . S
C59 C60 1.370 . S
C59 C64 1.403 . S
C60 C59 1.370 . S
C60 C61 1.389 . S
C60 H86 0.931 1_556 S
C61 C60 1.389 . S
C61 C62 1.389 . S
C62 C61 1.389 . S
C62 C63 1.379 . S
C62 H87 0.929 . S
C63 C62 1.379 . S
C63 C64 1.405 . S
C64 C59 1.403 . S
C64 C63 1.405 . S
C64 H88 0.932 . S
O65 Cd0 2.173 . S
O65 C1 1.277 . S
O66 C1 1.230 . S
O66 Cd4 2.250 . S
O67 Cd0 2.263 . S
O67 C20 1.258 . S
O68 Cd4 2.308 . S
O68 C20 1.274 . S
O69 Cd0 2.366 . S
O69 C56 1.263 . S
C70 O71 1.235 . S
C70 O72 1.270 . S
O71 Cd4 2.352 . S
O71 C70 1.235 . S
O72 Cd0 2.329 . S
O72 C70 1.270 . S
C73 O57 1.270 . S
C73 O58 1.248 . S
H74 C6 0.930 . S
H75 C9 0.930 . S
H76 C10 0.931 . S
H77 C15 0.929 . S
H78 C17 0.930 . S
H79 C19 0.930 . S
H80 C22 0.929 . S
H81 C23 0.932 . S
H82 C25 0.930 . S
H83 C49 0.929 . S
H84 C50 0.932 . S
H85 C51 0.931 . S
H86 C60 0.931 1_554 S
H87 C62 0.929 . S
H88 C64 0.932 . S
Cd89 O146 2.350 . S
Cd89 O147 2.277 . S
Cd89 O154 2.173 . S
Cd89 O156 2.263 . S
Cd89 O158 2.366 . S
Cd89 O161 2.329 . S
C90 O154 1.277 . S
C90 O155 1.230 . S
C91 O92 1.246 . S
C91 C94 1.481 . S
C91 N116 1.329 . S
O92 C91 1.246 . S
Cd93 O155 2.250 . S
Cd93 O157 2.308 . S
Cd93 O160 2.352 . S
C94 C91 1.481 . S
C94 N97 1.327 . S
C94 C98 1.407 . S
C95 C96 1.346 . S
C95 C99 1.390 . S
C95 H163 0.930 . S
C96 C95 1.346 . S
C96 N97 1.342 . S
C96 C101 1.516 . S
N97 C94 1.327 . S
N97 C96 1.342 . S
N97 Co100 1.864 . S
C98 C94 1.407 . S
C98 C99 1.364 . S
C98 H164 0.930 . S
C99 C95 1.390 . S
C99 C98 1.364 . S
C99 H165 0.931 . S
Co100 N97 1.864 . S
Co100 N116 1.955 . S
Co100 N117 1.958 . S
Co100 N118 1.953 . S
Co100 N136 1.869 . S
Co100 N142 1.974 . S
C101 C96 1.516 . S
C101 O102 1.238 . S
C101 N117 1.324 . S
O102 C101 1.238 . S
C103 C104 1.394 . S
C103 C108 1.395 . S
C103 N117 1.427 . S
C104 C103 1.394 . S
C104 C105 1.380 . S
C104 H166 0.929 . S
C105 C104 1.380 . S
C105 C106 1.384 . S
C105 C109 1.495 . S
C106 C105 1.384 . S
C106 C107 1.382 . S
C106 H167 0.930 . S
C107 C106 1.382 . S
C107 C108 1.398 . S
C108 C103 1.395 . S
C108 C107 1.398 . S
C108 H168 0.930 . S
C109 C105 1.495 . S
C109 O156 1.258 . S
C109 O157 1.274 . S
C110 C111 1.385 . S
C110 C112 1.381 . S
C110 N116 1.432 . S
C111 C110 1.385 . S
C111 C115 1.388 . S
C111 H169 0.929 . S
C112 C110 1.381 . S
C112 C113 1.371 . S
C112 H170 0.932 . S
C113 C112 1.371 . S
C113 C114 1.400 . S
C114 C113 1.400 . S
C114 C115 1.351 . S
C114 H171 0.930 . S
C115 C111 1.388 . S
C115 C114 1.351 . S
N116 C91 1.329 . S
N116 Co100 1.955 . S
N116 C110 1.432 . S
N117 Co100 1.958 . S
N117 C101 1.324 . S
N117 C103 1.427 . S
N118 Co100 1.953 . S
N118 C119 1.436 . S
N118 C145 1.316 . S
C119 N118 1.436 . S
C119 C120 1.421 . S
C119 C121 1.360 . S
C120 C119 1.421 . S
C120 C122 1.379 . S
C120 H123 0.929 . S
C121 C119 1.360 . S
C121 C125 1.393 . S
C121 H127 0.931 . S
C122 C120 1.379 . S
C122 C124 1.417 . S
C122 C126 1.505 . S
H123 C120 0.929 . S
C124 C122 1.417 . S
C124 C125 1.352 . S
C124 H128 0.929 . S
C125 C121 1.393 . S
C125 C124 1.352 . S
C125 C129 1.482 . S
C126 C122 1.505 . S
C126 O130 1.259 . S
C126 O131 1.229 . S
H127 C121 0.931 . S
H128 C124 0.929 . S
C129 C125 1.482 . S
C129 O132 1.207 . S
C129 O133 1.289 . S
O130 C126 1.259 . S
O130 H134 0.822 . S
O131 C126 1.229 . S
O132 C129 1.207 . S
O133 C129 1.289 . S
O133 H135 0.819 . S
H134 O130 0.822 . S
H135 O133 0.819 . S
N136 Co100 1.869 . S
N136 C137 1.330 . S
N136 C141 1.325 . S
C137 N136 1.330 . S
C137 C138 1.359 . S
C137 C143 1.504 . S
C138 C137 1.359 . S
C138 C139 1.366 . S
C138 H172 0.929 . S
C139 C138 1.366 . S
C139 C140 1.415 . S
C139 H173 0.932 . S
C140 C139 1.415 . S
C140 C141 1.366 . S
C140 H174 0.931 . S
C141 N136 1.325 . S
C141 C140 1.366 . S
C141 C145 1.516 . S
N142 Co100 1.974 . S
N142 C143 1.309 . S
N142 C148 1.423 . S
C143 C137 1.504 . S
C143 N142 1.309 . S
C143 O144 1.258 . S
O144 C143 1.258 . S
C145 N118 1.316 . S
C145 C141 1.516 . S
C145 O158 1.263 . S
O146 Cd89 2.350 . S
O146 C162 1.270 . S
O147 Cd89 2.277 . S
O147 C162 1.248 . S
C148 N142 1.423 . S
C148 C149 1.370 . S
C148 C153 1.403 . S
C149 C148 1.370 . S
C149 C150 1.389 . S
C149 H175 0.931 . S
C150 C149 1.389 . S
C150 C151 1.389 . S
C151 C150 1.389 . S
C151 C152 1.379 . S
C151 H176 0.929 . S
C152 C151 1.379 . S
C152 C153 1.405 . S
C153 C148 1.403 . S
C153 C152 1.405 . S
C153 H177 0.932 . S
O154 Cd89 2.173 . S
O154 C90 1.277 . S
O155 C90 1.230 . S
O155 Cd93 2.250 . S
O156 Cd89 2.263 . S
O156 C109 1.258 . S
O157 Cd93 2.308 . S
O157 C109 1.274 . S
O158 Cd89 2.366 . S
O158 C145 1.263 . S
C159 O160 1.235 . S
C159 O161 1.270 . S
O160 Cd93 2.352 . S
O160 C159 1.235 . S
O161 Cd89 2.329 . S
O161 C159 1.270 . S
C162 O146 1.270 . S
C162 O147 1.248 . S
H163 C95 0.930 . S
H164 C98 0.930 . S
H165 C99 0.931 . S
H166 C104 0.929 . S
H167 C106 0.930 . S
H168 C108 0.930 . S
H169 C111 0.929 . S
H170 C112 0.932 . S
H171 C114 0.930 . S
H172 C138 0.929 . S
H173 C139 0.932 . S
H174 C140 0.931 . S
H175 C149 0.931 . S
H176 C151 0.929 . S
H177 C153 0.932 . S
Cd178 O235 2.350 . S
Cd178 O236 2.277 . S
Cd178 O243 2.173 . S
Cd178 O245 2.263 . S
Cd178 O247 2.366 . S
Cd178 O250 2.329 . S
C179 O243 1.277 . S
C179 O244 1.230 . S
C180 O181 1.246 . S
C180 C183 1.481 . S
C180 N205 1.329 . S
O181 C180 1.246 . S
Cd182 O244 2.250 . S
Cd182 O246 2.308 . S
Cd182 O249 2.352 . S
C183 C180 1.481 . S
C183 N186 1.327 . S
C183 C187 1.407 . S
C184 C185 1.346 . S
C184 C188 1.390 . S
C184 H252 0.930 . S
C185 C184 1.346 . S
C185 N186 1.342 1_545 S
C185 C190 1.516 . S
N186 C183 1.327 . S
N186 C185 1.342 1_565 S
N186 Co189 1.864 . S
C187 C183 1.407 . S
C187 C188 1.364 1_565 S
C187 H253 0.930 . S
C188 C184 1.390 . S
C188 C187 1.364 1_545 S
C188 H254 0.931 . S
Co189 N186 1.864 . S
Co189 N205 1.955 . S
Co189 N206 1.958 . S
Co189 N207 1.953 . S
Co189 N225 1.869 . S
Co189 N231 1.974 1_565 S
C190 C185 1.516 . S
C190 O191 1.238 . S
C190 N206 1.324 1_545 S
O191 C190 1.238 . S
C192 C193 1.394 . S
C192 C197 1.395 1_565 S
C192 N206 1.427 . S
C193 C192 1.394 . S
C193 C194 1.380 . S
C193 H255 0.929 . S
C194 C193 1.380 . S
C194 C195 1.384 . S
C194 C198 1.495 . S
C195 C194 1.384 . S
C195 C196 1.382 1_565 S
C195 H256 0.930 . S
C196 C195 1.382 1_545 S
C196 C197 1.398 . S
C197 C192 1.395 1_545 S
C197 C196 1.398 . S
C197 H257 0.930 . S
C198 C194 1.495 . S
C198 O245 1.258 . S
C198 O246 1.274 . S
C199 C200 1.385 . S
C199 C201 1.381 . S
C199 N205 1.432 . S
C200 C199 1.385 . S
C200 C204 1.388 . S
C200 H258 0.929 . S
C201 C199 1.381 . S
C201 C202 1.371 . S
C201 H259 0.932 . S
C202 C201 1.371 . S
C202 C203 1.400 . S
C203 C202 1.400 . S
C203 C204 1.351 . S
C203 H260 0.930 . S
C204 C200 1.388 . S
C204 C203 1.351 . S
N205 C180 1.329 . S
N205 Co189 1.955 . S
N205 C199 1.432 . S
N206 Co189 1.958 . S
N206 C190 1.324 1_565 S
N206 C192 1.427 . S
N207 Co189 1.953 . S
N207 C208 1.436 . S
N207 C234 1.316 . S
C208 N207 1.436 . S
C208 C209 1.421 . S
C208 C210 1.360 . S
C209 C208 1.421 . S
C209 C211 1.379 . S
C209 H212 0.929 . S
C210 C208 1.360 . S
C210 C214 1.393 . S
C210 H216 0.931 . S
C211 C209 1.379 . S
C211 C213 1.417 . S
C211 C215 1.505 . S
H212 C209 0.929 . S
C213 C211 1.417 . S
C213 C214 1.352 . S
C213 H217 0.929 . S
C214 C210 1.393 . S
C214 C213 1.352 . S
C214 C218 1.482 . S
C215 C211 1.505 . S
C215 O219 1.259 . S
C215 O220 1.229 . S
H216 C210 0.931 . S
H217 C213 0.929 . S
C218 C214 1.482 . S
C218 O221 1.207 . S
C218 O222 1.289 . S
O219 C215 1.259 . S
O219 H223 0.822 . S
O220 C215 1.229 . S
O221 C218 1.207 . S
O222 C218 1.289 . S
O222 H224 0.819 . S
H223 O219 0.822 . S
H224 O222 0.819 . S
N225 Co189 1.869 . S
N225 C226 1.330 . S
N225 C230 1.325 . S
C226 N225 1.330 . S
C226 C227 1.359 . S
C226 C232 1.504 1_565 S
C227 C226 1.359 . S
C227 C228 1.366 . S
C227 H261 0.929 . S
C228 C227 1.366 . S
C228 C229 1.415 . S
C228 H262 0.932 . S
C229 C228 1.415 . S
C229 C230 1.366 . S
C229 H263 0.931 . S
C230 N225 1.325 . S
C230 C229 1.366 . S
C230 C234 1.516 . S
N231 Co189 1.974 1_545 S
N231 C232 1.309 . S
N231 C237 1.423 . S
C232 C226 1.504 1_545 S
C232 N231 1.309 . S
C232 O233 1.258 . S
O233 C232 1.258 . S
C234 N207 1.316 . S
C234 C230 1.516 . S
C234 O247 1.263 . S
O235 Cd178 2.350 . S
O235 C251 1.270 . S
O236 Cd178 2.277 . S
O236 C251 1.248 . S
C237 N231 1.423 . S
C237 C238 1.370 . S
C237 C242 1.403 . S
C238 C237 1.370 . S
C238 C239 1.389 . S
C238 H264 0.931 . S
C239 C238 1.389 . S
C239 C240 1.389 . S
C240 C239 1.389 . S
C240 C241 1.379 . S
C240 H265 0.929 . S
C241 C240 1.379 . S
C241 C242 1.405 . S
C242 C237 1.403 . S
C242 C241 1.405 . S
C242 H266 0.932 . S
O243 Cd178 2.173 . S
O243 C179 1.277 . S
O244 C179 1.230 . S
O244 Cd182 2.250 . S
O245 Cd178 2.263 . S
O245 C198 1.258 . S
O246 Cd182 2.308 . S
O246 C198 1.274 . S
O247 Cd178 2.366 . S
O247 C234 1.263 . S
C248 O249 1.235 . S
C248 O250 1.270 . S
O249 Cd182 2.352 . S
O249 C248 1.235 . S
O250 Cd178 2.329 . S
O250 C248 1.270 . S
C251 O235 1.270 . S
C251 O236 1.248 . S
H252 C184 0.930 . S
H253 C187 0.930 . S
H254 C188 0.931 . S
H255 C193 0.929 . S
H256 C195 0.930 . S
H257 C197 0.930 . S
H258 C200 0.929 . S
H259 C201 0.932 . S
H260 C203 0.930 . S
H261 C227 0.929 . S
H262 C228 0.932 . S
H263 C229 0.931 . S
H264 C238 0.931 . S
H265 C240 0.929 . S
H266 C242 0.932 . S
Cd267 O324 2.350 . S
Cd267 O325 2.277 . S
Cd267 O332 2.173 . S
Cd267 O334 2.263 . S
Cd267 O336 2.366 . S
Cd267 O339 2.329 . S
C268 O332 1.277 . S
C268 O333 1.230 . S
C269 O270 1.246 . S
C269 C272 1.481 . S
C269 N294 1.329 . S
O270 C269 1.246 . S
Cd271 O333 2.250 . S
Cd271 O335 2.308 . S
Cd271 O338 2.352 . S
C272 C269 1.481 . S
C272 N275 1.327 1_554 S
C272 C276 1.407 . S
C273 C274 1.346 . S
C273 C277 1.390 . S
C273 H341 0.930 . S
C274 C273 1.346 . S
C274 N275 1.342 1_565 S
C274 C279 1.516 . S
N275 C272 1.327 1_556 S
N275 C274 1.342 1_545 S
N275 Co278 1.864 . S
C276 C272 1.407 . S
C276 C277 1.364 1_544 S
C276 H342 0.930 . S
C277 C273 1.390 . S
C277 C276 1.364 1_566 S
C277 H343 0.931 . S
Co278 N275 1.864 . S
Co278 N294 1.955 1_556 S
Co278 N295 1.958 . S
Co278 N296 1.953 . S
Co278 N314 1.869 . S
Co278 N320 1.974 1_546 S
C279 C274 1.516 . S
C279 O280 1.238 . S
C279 N295 1.324 1_565 S
O280 C279 1.238 . S
C281 C282 1.394 . S
C281 C286 1.395 1_545 S
C281 N295 1.427 . S
C282 C281 1.394 . S
C282 C283 1.380 . S
C282 H344 0.929 . S
C283 C282 1.380 . S
C283 C284 1.384 . S
C283 C287 1.495 . S
C284 C283 1.384 . S
C284 C285 1.382 1_545 S
C284 H345 0.930 . S
C285 C284 1.382 1_565 S
C285 C286 1.398 . S
C286 C281 1.395 1_565 S
C286 C285 1.398 . S
C286 H346 0.930 . S
C287 C283 1.495 . S
C287 O334 1.258 . S
C287 O335 1.274 . S
C288 C289 1.385 . S
C288 C290 1.381 . S
C288 N294 1.432 . S
C289 C288 1.385 . S
C289 C293 1.388 . S
C289 H347 0.929 . S
C290 C288 1.381 . S
C290 C291 1.371 . S
C290 H348 0.932 . S
C291 C290 1.371 . S
C291 C292 1.400 . S
C292 C291 1.400 . S
C292 C293 1.351 . S
C292 H349 0.930 . S
C293 C289 1.388 . S
C293 C292 1.351 . S
N294 C269 1.329 . S
N294 Co278 1.955 1_554 S
N294 C288 1.432 . S
N295 Co278 1.958 . S
N295 C279 1.324 1_545 S
N295 C281 1.427 . S
N296 Co278 1.953 . S
N296 C297 1.436 . S
N296 C323 1.316 . S
C297 N296 1.436 . S
C297 C298 1.421 . S
C297 C299 1.360 . S
C298 C297 1.421 . S
C298 C300 1.379 . S
C298 H301 0.929 . S
C299 C297 1.360 . S
C299 C303 1.393 . S
C299 H305 0.931 . S
C300 C298 1.379 . S
C300 C302 1.417 . S
C300 C304 1.505 . S
H301 C298 0.929 . S
C302 C300 1.417 . S
C302 C303 1.352 . S
C302 H306 0.929 . S
C303 C299 1.393 . S
C303 C302 1.352 . S
C303 C307 1.482 . S
C304 C300 1.505 . S
C304 O308 1.259 . S
C304 O309 1.229 . S
H305 C299 0.931 . S
H306 C302 0.929 . S
C307 C303 1.482 . S
C307 O310 1.207 . S
C307 O311 1.289 . S
O308 C304 1.259 . S
O308 H312 0.822 . S
O309 C304 1.229 . S
O310 C307 1.207 . S
O311 C307 1.289 . S
O311 H313 0.819 . S
H312 O308 0.822 . S
H313 O311 0.819 . S
N314 Co278 1.869 . S
N314 C315 1.330 1_556 S
N314 C319 1.325 . S
C315 N314 1.330 1_554 S
C315 C316 1.359 . S
C315 C321 1.504 1_545 S
C316 C315 1.359 . S
C316 C317 1.366 1_554 S
C316 H350 0.929 . S
C317 C316 1.366 1_556 S
C317 C318 1.415 . S
C317 H351 0.932 . S
C318 C317 1.415 . S
C318 C319 1.366 . S
C318 H352 0.931 . S
C319 N314 1.325 . S
C319 C318 1.366 . S
C319 C323 1.516 . S
N320 Co278 1.974 1_564 S
N320 C321 1.309 . S
N320 C326 1.423 . S
C321 C315 1.504 1_565 S
C321 N320 1.309 . S
C321 O322 1.258 . S
O322 C321 1.258 . S
C323 N296 1.316 . S
C323 C319 1.516 . S
C323 O336 1.263 . S
O324 Cd267 2.350 . S
O324 C340 1.270 . S
O325 Cd267 2.277 . S
O325 C340 1.248 . S
C326 N320 1.423 . S
C326 C327 1.370 . S
C326 C331 1.403 . S
C327 C326 1.370 . S
C327 C328 1.389 . S
C327 H353 0.931 1_554 S
C328 C327 1.389 . S
C328 C329 1.389 . S
C329 C328 1.389 . S
C329 C330 1.379 . S
C329 H354 0.929 . S
C330 C329 1.379 . S
C330 C331 1.405 . S
C331 C326 1.403 . S
C331 C330 1.405 . S
C331 H355 0.932 . S
O332 Cd267 2.173 . S
O332 C268 1.277 . S
O333 C268 1.230 . S
O333 Cd271 2.250 . S
O334 Cd267 2.263 . S
O334 C287 1.258 . S
O335 Cd271 2.308 . S
O335 C287 1.274 . S
O336 Cd267 2.366 . S
O336 C323 1.263 . S
C337 O338 1.235 . S
C337 O339 1.270 . S
O338 Cd271 2.352 . S
O338 C337 1.235 . S
O339 Cd267 2.329 . S
O339 C337 1.270 . S
C340 O324 1.270 . S
C340 O325 1.248 . S
H341 C273 0.930 . S
H342 C276 0.930 . S
H343 C277 0.931 . S
H344 C282 0.929 . S
H345 C284 0.930 . S
H346 C286 0.930 . S
H347 C289 0.929 . S
H348 C290 0.932 . S
H349 C292 0.930 . S
H350 C316 0.929 . S
H351 C317 0.932 . S
H352 C318 0.931 . S
H353 C327 0.931 1_556 S
H354 C329 0.929 . S
H355 C331 0.932 . S
Cd356 O413 2.350 . S
Cd356 O414 2.277 . S
Cd356 O421 2.173 . S
Cd356 O423 2.263 . S
Cd356 O425 2.366 . S
Cd356 O428 2.329 . S
C357 O421 1.277 . S
C357 O422 1.230 . S
C358 O359 1.246 . S
C358 C361 1.481 . S
C358 N383 1.329 . S
O359 C358 1.246 . S
Cd360 O422 2.250 . S
Cd360 O424 2.308 . S
Cd360 O427 2.352 . S
C361 C358 1.481 . S
C361 N364 1.327 . S
C361 C365 1.407 . S
C362 C363 1.346 . S
C362 C366 1.390 . S
C362 H430 0.930 . S
C363 C362 1.346 . S
C363 N364 1.342 1_455 S
C363 C368 1.516 . S
N364 C361 1.327 . S
N364 C363 1.342 1_655 S
N364 Co367 1.864 . S
C365 C361 1.407 . S
C365 C366 1.364 1_655 S
C365 H431 0.930 . S
C366 C362 1.390 . S
C366 C365 1.364 1_455 S
C366 H432 0.931 . S
Co367 N364 1.864 . S
Co367 N383 1.955 . S
Co367 N384 1.958 . S
Co367 N385 1.953 . S
Co367 N403 1.869 . S
Co367 N409 1.974 1_655 S
C368 C363 1.516 . S
C368 O369 1.238 . S
C368 N384 1.324 1_455 S
O369 C368 1.238 . S
C370 C371 1.394 . S
C370 C375 1.395 1_655 S
C370 N384 1.427 . S
C371 C370 1.394 . S
C371 C372 1.380 . S
C371 H433 0.929 . S
C372 C371 1.380 . S
C372 C373 1.384 . S
C372 C376 1.495 . S
C373 C372 1.384 . S
C373 C374 1.382 1_655 S
C373 H434 0.930 . S
C374 C373 1.382 1_455 S
C374 C375 1.398 . S
C375 C370 1.395 1_455 S
C375 C374 1.398 . S
C375 H435 0.930 . S
C376 C372 1.495 . S
C376 O423 1.258 . S
C376 O424 1.274 . S
C377 C378 1.385 . S
C377 C379 1.381 . S
C377 N383 1.432 . S
C378 C377 1.385 . S
C378 C382 1.388 . S
C378 H436 0.929 . S
C379 C377 1.381 . S
C379 C380 1.371 . S
C379 H437 0.932 . S
C380 C379 1.371 . S
C380 C381 1.400 . S
C381 C380 1.400 . S
C381 C382 1.351 . S
C381 H438 0.930 . S
C382 C378 1.388 . S
C382 C381 1.351 . S
N383 C358 1.329 . S
N383 Co367 1.955 . S
N383 C377 1.432 . S
N384 Co367 1.958 . S
N384 C368 1.324 1_655 S
N384 C370 1.427 . S
N385 Co367 1.953 . S
N385 C386 1.436 . S
N385 C412 1.316 . S
C386 N385 1.436 . S
C386 C387 1.421 . S
C386 C388 1.360 . S
C387 C386 1.421 . S
C387 C389 1.379 . S
C387 H390 0.929 . S
C388 C386 1.360 . S
C388 C392 1.393 . S
C388 H394 0.931 . S
C389 C387 1.379 . S
C389 C391 1.417 . S
C389 C393 1.505 . S
H390 C387 0.929 . S
C391 C389 1.417 . S
C391 C392 1.352 . S
C391 H395 0.929 . S
C392 C388 1.393 . S
C392 C391 1.352 . S
C392 C396 1.482 . S
C393 C389 1.505 . S
C393 O397 1.259 . S
C393 O398 1.229 . S
H394 C388 0.931 . S
H395 C391 0.929 . S
C396 C392 1.482 . S
C396 O399 1.207 . S
C396 O400 1.289 . S
O397 C393 1.259 . S
O397 H401 0.822 . S
O398 C393 1.229 . S
O399 C396 1.207 . S
O400 C396 1.289 . S
O400 H402 0.819 . S
H401 O397 0.822 . S
H402 O400 0.819 . S
N403 Co367 1.869 . S
N403 C404 1.330 . S
N403 C408 1.325 . S
C404 N403 1.330 . S
C404 C405 1.359 . S
C404 C410 1.504 1_655 S
C405 C404 1.359 . S
C405 C406 1.366 . S
C405 H439 0.929 . S
C406 C405 1.366 . S
C406 C407 1.415 . S
C406 H440 0.932 . S
C407 C406 1.415 . S
C407 C408 1.366 . S
C407 H441 0.931 . S
C408 N403 1.325 . S
C408 C407 1.366 . S
C408 C412 1.516 . S
N409 Co367 1.974 1_455 S
N409 C410 1.309 . S
N409 C415 1.423 . S
C410 C404 1.504 1_455 S
C410 N409 1.309 . S
C410 O411 1.258 . S
O411 C410 1.258 . S
C412 N385 1.316 . S
C412 C408 1.516 . S
C412 O425 1.263 . S
O413 Cd356 2.350 . S
O413 C429 1.270 . S
O414 Cd356 2.277 . S
O414 C429 1.248 . S
C415 N409 1.423 . S
C415 C416 1.370 . S
C415 C420 1.403 . S
C416 C415 1.370 . S
C416 C417 1.389 . S
C416 H442 0.931 . S
C417 C416 1.389 . S
C417 C418 1.389 . S
C418 C417 1.389 . S
C418 C419 1.379 . S
C418 H443 0.929 . S
C419 C418 1.379 . S
C419 C420 1.405 . S
C420 C415 1.403 . S
C420 C419 1.405 . S
C420 H444 0.932 . S
O421 Cd356 2.173 . S
O421 C357 1.277 . S
O422 C357 1.230 . S
O422 Cd360 2.250 . S
O423 Cd356 2.263 . S
O423 C376 1.258 . S
O424 Cd360 2.308 . S
O424 C376 1.274 . S
O425 Cd356 2.366 . S
O425 C412 1.263 . S
C426 O427 1.235 . S
C426 O428 1.270 . S
O427 Cd360 2.352 . S
O427 C426 1.235 . S
O428 Cd356 2.329 . S
O428 C426 1.270 . S
C429 O413 1.270 . S
C429 O414 1.248 . S
H430 C362 0.930 . S
H431 C365 0.930 . S
H432 C366 0.931 . S
H433 C371 0.929 . S
H434 C373 0.930 . S
H435 C375 0.930 . S
H436 C378 0.929 . S
H437 C379 0.932 . S
H438 C381 0.930 . S
H439 C405 0.929 . S
H440 C406 0.932 . S
H441 C407 0.931 . S
H442 C416 0.931 . S
H443 C418 0.929 . S
H444 C420 0.932 . S
Cd445 O502 2.350 . S
Cd445 O503 2.277 . S
Cd445 O510 2.173 . S
Cd445 O512 2.263 . S
Cd445 O514 2.366 . S
Cd445 O517 2.329 . S
C446 O510 1.277 . S
C446 O511 1.230 . S
C447 O448 1.246 . S
C447 C450 1.481 . S
C447 N472 1.329 . S
O448 C447 1.246 . S
Cd449 O511 2.250 . S
Cd449 O513 2.308 . S
Cd449 O516 2.352 . S
C450 C447 1.481 . S
C450 N453 1.327 . S
C450 C454 1.407 . S
C451 C452 1.346 . S
C451 C455 1.390 . S
C451 H519 0.930 . S
C452 C451 1.346 . S
C452 N453 1.342 . S
C452 C457 1.516 . S
N453 C450 1.327 . S
N453 C452 1.342 . S
N453 Co456 1.864 . S
C454 C450 1.407 . S
C454 C455 1.364 . S
C454 H520 0.930 . S
C455 C451 1.390 . S
C455 C454 1.364 . S
C455 H521 0.931 . S
Co456 N453 1.864 . S
Co456 N472 1.955 . S
Co456 N473 1.958 . S
Co456 N474 1.953 . S
Co456 N492 1.869 . S
Co456 N498 1.974 . S
C457 C452 1.516 . S
C457 O458 1.238 . S
C457 N473 1.324 . S
O458 C457 1.238 . S
C459 C460 1.394 . S
C459 C464 1.395 . S
C459 N473 1.427 . S
C460 C459 1.394 . S
C460 C461 1.380 . S
C460 H522 0.929 . S
C461 C460 1.380 . S
C461 C462 1.384 . S
C461 C465 1.495 . S
C462 C461 1.384 . S
C462 C463 1.382 . S
C462 H523 0.930 . S
C463 C462 1.382 . S
C463 C464 1.398 . S
C464 C459 1.395 . S
C464 C463 1.398 . S
C464 H524 0.930 . S
C465 C461 1.495 . S
C465 O512 1.258 . S
C465 O513 1.274 . S
C466 C467 1.385 . S
C466 C468 1.381 . S
C466 N472 1.432 . S
C467 C466 1.385 . S
C467 C471 1.388 . S
C467 H525 0.929 . S
C468 C466 1.381 . S
C468 C469 1.371 . S
C468 H526 0.932 . S
C469 C468 1.371 . S
C469 C470 1.400 . S
C470 C469 1.400 . S
C470 C471 1.351 . S
C470 H527 0.930 . S
C471 C467 1.388 . S
C471 C470 1.351 . S
N472 C447 1.329 . S
N472 Co456 1.955 . S
N472 C466 1.432 . S
N473 Co456 1.958 . S
N473 C457 1.324 . S
N473 C459 1.427 . S
N474 Co456 1.953 . S
N474 C475 1.436 . S
N474 C501 1.316 . S
C475 N474 1.436 . S
C475 C476 1.421 . S
C475 C477 1.360 . S
C476 C475 1.421 . S
C476 C478 1.379 . S
C476 H479 0.929 . S
C477 C475 1.360 . S
C477 C481 1.393 . S
C477 H483 0.931 . S
C478 C476 1.379 . S
C478 C480 1.417 . S
C478 C482 1.505 . S
H479 C476 0.929 . S
C480 C478 1.417 . S
C480 C481 1.352 . S
C480 H484 0.929 . S
C481 C477 1.393 . S
C481 C480 1.352 . S
C481 C485 1.482 . S
C482 C478 1.505 . S
C482 O486 1.259 . S
C482 O487 1.229 . S
H483 C477 0.931 . S
H484 C480 0.929 . S
C485 C481 1.482 . S
C485 O488 1.207 . S
C485 O489 1.289 . S
O486 C482 1.259 . S
O486 H490 0.822 . S
O487 C482 1.229 . S
O488 C485 1.207 . S
O489 C485 1.289 . S
O489 H491 0.819 . S
H490 O486 0.822 . S
H491 O489 0.819 . S
N492 Co456 1.869 . S
N492 C493 1.330 . S
N492 C497 1.325 . S
C493 N492 1.330 . S
C493 C494 1.359 . S
C493 C499 1.504 . S
C494 C493 1.359 . S
C494 C495 1.366 . S
C494 H528 0.929 . S
C495 C494 1.366 . S
C495 C496 1.415 . S
C495 H529 0.932 . S
C496 C495 1.415 . S
C496 C497 1.366 . S
C496 H530 0.931 . S
C497 N492 1.325 . S
C497 C496 1.366 . S
C497 C501 1.516 . S
N498 Co456 1.974 . S
N498 C499 1.309 . S
N498 C504 1.423 . S
C499 C493 1.504 . S
C499 N498 1.309 . S
C499 O500 1.258 . S
O500 C499 1.258 . S
C501 N474 1.316 . S
C501 C497 1.516 . S
C501 O514 1.263 . S
O502 Cd445 2.350 . S
O502 C518 1.270 . S
O503 Cd445 2.277 . S
O503 C518 1.248 . S
C504 N498 1.423 . S
C504 C505 1.370 . S
C504 C509 1.403 . S
C505 C504 1.370 . S
C505 C506 1.389 . S
C505 H531 0.931 . S
C506 C505 1.389 . S
C506 C507 1.389 . S
C507 C506 1.389 . S
C507 C508 1.379 . S
C507 H532 0.929 . S
C508 C507 1.379 . S
C508 C509 1.405 . S
C509 C504 1.403 . S
C509 C508 1.405 . S
C509 H533 0.932 . S
O510 Cd445 2.173 . S
O510 C446 1.277 . S
O511 C446 1.230 . S
O511 Cd449 2.250 . S
O512 Cd445 2.263 . S
O512 C465 1.258 . S
O513 Cd449 2.308 . S
O513 C465 1.274 . S
O514 Cd445 2.366 . S
O514 C501 1.263 . S
C515 O516 1.235 . S
C515 O517 1.270 . S
O516 Cd449 2.352 . S
O516 C515 1.235 . S
O517 Cd445 2.329 . S
O517 C515 1.270 . S
C518 O502 1.270 . S
C518 O503 1.248 . S
H519 C451 0.930 . S
H520 C454 0.930 . S
H521 C455 0.931 . S
H522 C460 0.929 . S
H523 C462 0.930 . S
H524 C464 0.930 . S
H525 C467 0.929 . S
H526 C468 0.932 . S
H527 C470 0.930 . S
H528 C494 0.929 . S
H529 C495 0.932 . S
H530 C496 0.931 . S
H531 C505 0.931 . S
H532 C507 0.929 . S
H533 C509 0.932 . S
C1 C328 2.931 . S
C90 C417 2.931 . S
C179 C506 2.931 . S
C268 C61 2.931 . S
C357 C150 2.931 . S
C446 C239 2.931 . S
C463 C73 4.014 . S
C162 C285 4.013 . S
C374 C251 4.014 . S
C107 C340 4.014 . S
C429 C196 4.014 . S
C18 C518 4.013 . S
C419 C63 5.513 1_455 S
C508 C152 5.513 . S
C241 C330 5.513 1_545 S
C26 C159 1.284 . S
C248 C115 1.283 . S
C70 C204 1.283 . S
C515 C293 1.284 . S
C337 C382 1.283 . S
C471 C426 1.283 . S
