# Generated by pormake.
# Topology whk, (6)-cn, num edge types: 1
# Building blocks:
#     Node 0, Type 0, BuildingBlock: KUMBUR_clean_sbu_1, # of connection points: 6
#     Node 1, Type 0, BuildingBlock: KUMBUR_clean_sbu_1, # of connection points: 6
#     Node 2, Type 0, BuildingBlock: KUMBUR_clean_sbu_1, # of connection points: 6
#     Node 3, Type 0, BuildingBlock: KUMBUR_clean_sbu_1, # of connection points: 6
#     Node 4, Type 0, BuildingBlock: KUMBUR_clean_sbu_1, # of connection points: 6
#     Node 5, Type 0, BuildingBlock: KUMBUR_clean_sbu_1, # of connection points: 6
#     Node 6, Type 0, BuildingBlock: KUMBUR_clean_sbu_1, # of connection points: 6
#     Node 7, Type 0, BuildingBlock: KUMBUR_clean_sbu_1, # of connection points: 6
#     Node 8, Type 0, BuildingBlock: KUMBUR_clean_sbu_1, # of connection points: 6
#     Node 9, Type 0, BuildingBlock: KUMBUR_clean_sbu_1, # of connection points: 6
#     Node 10, Type 0, BuildingBlock: KUMBUR_clean_sbu_1, # of connection points: 6
#     Node 11, Type 0, BuildingBlock: KUMBUR_clean_sbu_1, # of connection points: 6
#     Node 12, Type 0, BuildingBlock: KUMBUR_clean_sbu_1, # of connection points: 6
#     Node 13, Type 0, BuildingBlock: KUMBUR_clean_sbu_1, # of connection points: 6
#     Node 14, Type 0, BuildingBlock: KUMBUR_clean_sbu_1, # of connection points: 6
#     Node 15, Type 0, BuildingBlock: KUMBUR_clean_sbu_1, # of connection points: 6
#     Edge 16, Type (0, 0), BuildingBlock: UVAHIK_clean_linker_0, # of connection points: 2
#     Edge 17, Type (0, 0), BuildingBlock: UVAHIK_clean_linker_0, # of connection points: 2
#     Edge 18, Type (0, 0), BuildingBlock: UVAHIK_clean_linker_0, # of connection points: 2
#     Edge 19, Type (0, 0), BuildingBlock: UVAHIK_clean_linker_0, # of connection points: 2
#     Edge 20, Type (0, 0), BuildingBlock: UVAHIK_clean_linker_0, # of connection points: 2
#     Edge 21, Type (0, 0), BuildingBlock: UVAHIK_clean_linker_0, # of connection points: 2
#     Edge 22, Type (0, 0), BuildingBlock: UVAHIK_clean_linker_0, # of connection points: 2
#     Edge 23, Type (0, 0), BuildingBlock: UVAHIK_clean_linker_0, # of connection points: 2
#     Edge 24, Type (0, 0), BuildingBlock: UVAHIK_clean_linker_0, # of connection points: 2
#     Edge 25, Type (0, 0), BuildingBlock: UVAHIK_clean_linker_0, # of connection points: 2
#     Edge 26, Type (0, 0), BuildingBlock: UVAHIK_clean_linker_0, # of connection points: 2
#     Edge 27, Type (0, 0), BuildingBlock: UVAHIK_clean_linker_0, # of connection points: 2
#     Edge 28, Type (0, 0), BuildingBlock: UVAHIK_clean_linker_0, # of connection points: 2
#     Edge 29, Type (0, 0), BuildingBlock: UVAHIK_clean_linker_0, # of connection points: 2
#     Edge 30, Type (0, 0), BuildingBlock: UVAHIK_clean_linker_0, # of connection points: 2
#     Edge 31, Type (0, 0), BuildingBlock: UVAHIK_clean_linker_0, # of connection points: 2
#     Edge 32, Type (0, 0), BuildingBlock: UVAHIK_clean_linker_0, # of connection points: 2
#     Edge 33, Type (0, 0), BuildingBlock: UVAHIK_clean_linker_0, # of connection points: 2
#     Edge 34, Type (0, 0), BuildingBlock: UVAHIK_clean_linker_0, # of connection points: 2
#     Edge 35, Type (0, 0), BuildingBlock: UVAHIK_clean_linker_0, # of connection points: 2
#     Edge 36, Type (0, 0), BuildingBlock: UVAHIK_clean_linker_0, # of connection points: 2
#     Edge 37, Type (0, 0), BuildingBlock: UVAHIK_clean_linker_0, # of connection points: 2
#     Edge 38, Type (0, 0), BuildingBlock: UVAHIK_clean_linker_0, # of connection points: 2
#     Edge 39, Type (0, 0), BuildingBlock: UVAHIK_clean_linker_0, # of connection points: 2
#     Edge 40, Type (0, 0), BuildingBlock: UVAHIK_clean_linker_0, # of connection points: 2
#     Edge 41, Type (0, 0), BuildingBlock: UVAHIK_clean_linker_0, # of connection points: 2
#     Edge 42, Type (0, 0), BuildingBlock: UVAHIK_clean_linker_0, # of connection points: 2
#     Edge 43, Type (0, 0), BuildingBlock: UVAHIK_clean_linker_0, # of connection points: 2
#     Edge 44, Type (0, 0), BuildingBlock: UVAHIK_clean_linker_0, # of connection points: 2
#     Edge 45, Type (0, 0), BuildingBlock: UVAHIK_clean_linker_0, # of connection points: 2
#     Edge 46, Type (0, 0), BuildingBlock: UVAHIK_clean_linker_0, # of connection points: 2
#     Edge 47, Type (0, 0), BuildingBlock: UVAHIK_clean_linker_0, # of connection points: 2
#     Edge 48, Type (0, 0), BuildingBlock: UVAHIK_clean_linker_0, # of connection points: 2
#     Edge 49, Type (0, 0), BuildingBlock: UVAHIK_clean_linker_0, # of connection points: 2
#     Edge 50, Type (0, 0), BuildingBlock: UVAHIK_clean_linker_0, # of connection points: 2
#     Edge 51, Type (0, 0), BuildingBlock: UVAHIK_clean_linker_0, # of connection points: 2
#     Edge 52, Type (0, 0), BuildingBlock: UVAHIK_clean_linker_0, # of connection points: 2
#     Edge 53, Type (0, 0), BuildingBlock: UVAHIK_clean_linker_0, # of connection points: 2
#     Edge 54, Type (0, 0), BuildingBlock: UVAHIK_clean_linker_0, # of connection points: 2
#     Edge 55, Type (0, 0), BuildingBlock: UVAHIK_clean_linker_0, # of connection points: 2
#     Edge 56, Type (0, 0), BuildingBlock: UVAHIK_clean_linker_0, # of connection points: 2
#     Edge 57, Type (0, 0), BuildingBlock: UVAHIK_clean_linker_0, # of connection points: 2
#     Edge 58, Type (0, 0), BuildingBlock: UVAHIK_clean_linker_0, # of connection points: 2
#     Edge 59, Type (0, 0), BuildingBlock: UVAHIK_clean_linker_0, # of connection points: 2
#     Edge 60, Type (0, 0), BuildingBlock: UVAHIK_clean_linker_0, # of connection points: 2
#     Edge 61, Type (0, 0), BuildingBlock: UVAHIK_clean_linker_0, # of connection points: 2
#     Edge 62, Type (0, 0), BuildingBlock: UVAHIK_clean_linker_0, # of connection points: 2
#     Edge 63, Type (0, 0), BuildingBlock: UVAHIK_clean_linker_0, # of connection points: 2
# Relax obj value: 0.409
# Max RMSD: 0.271
# Mean RMSD: 0.270
data_MOF--net-whk--node1-KUMBUR_clean_sbu_1--edge1-UVAHIK_clean_linker_0
_symmetry_space_group_name_H-M    P1
_symmetry_Int_Tables_number       1
_symmetry_cell_setting            triclinic
loop_
_symmetry_equiv_pos_as_xyz
'x, y, z'
_cell_length_a     55.208666
_cell_length_b     55.194279
_cell_length_c     53.431077
_cell_angle_alpha  90.018745
_cell_angle_beta   90.17113
_cell_angle_gamma 89.798109
loop_
_atom_site_label
_atom_site_type_symbol
_atom_site_fract_x
_atom_site_fract_y
_atom_site_fract_z
_atom_type_partial_charge
Tb0 Tb 0.55554 0.18671 0.42109 0.0
C1 C 0.59229 0.28267 0.35564 0.0
N2 N 0.58286 0.26053 0.351 0.0
C3 C 0.55955 0.27692 0.31696 0.0
C4 C 0.58522 0.30314 0.34165 0.0
C5 C 0.56727 0.25717 0.33141 0.0
C6 C 0.56828 0.3001 0.32236 0.0
C7 C 0.62246 0.30637 0.37737 0.0
C8 C 0.61053 0.28421 0.37309 0.0
C9 C 0.61462 0.32726 0.36461 0.0
C10 C 0.59601 0.32564 0.34673 0.0
Tb11 Tb 0.59565 0.22939 0.37586 0.0
N12 N 0.61786 0.26347 0.38434 0.0
C13 C 0.64247 0.30657 0.3935 0.0
C14 C 0.63838 0.26327 0.39873 0.0
C15 C 0.65069 0.28482 0.40394 0.0
H16 H 0.56038 0.23932 0.32734 0.0
H17 H 0.66654 0.28462 0.41591 0.0
H18 H 0.52569 0.22136 0.4613 0.0
H19 H 0.59073 0.09637 0.43358 0.0
H20 H 0.6449 0.24659 0.40686 0.0
H21 H 0.65216 0.3232 0.39733 0.0
H22 H 0.57367 0.13093 0.40973 0.0
H23 H 0.54683 0.27426 0.30176 0.0
H24 H 0.62337 0.34454 0.36779 0.0
H25 H 0.59068 0.34169 0.3364 0.0
H26 H 0.52215 0.22568 0.50715 0.0
H27 H 0.56236 0.31535 0.31111 0.0
H28 H 0.59508 0.09916 0.47966 0.0
N29 N 0.54909 0.19076 0.46327 0.0
C30 C 0.5597 0.17411 0.47832 0.0
C31 C 0.5329 0.21112 0.4993 0.0
C32 C 0.55803 0.17556 0.50458 0.0
C33 C 0.53487 0.20859 0.47332 0.0
C34 C 0.54485 0.19473 0.51504 0.0
N35 N 0.56941 0.15322 0.44187 0.0
C36 C 0.57559 0.13229 0.42982 0.0
C37 C 0.57968 0.13525 0.4816 0.0
C38 C 0.57035 0.15446 0.46711 0.0
C39 C 0.58775 0.11437 0.46926 0.0
C40 C 0.58522 0.11269 0.44327 0.0
H41 H 0.54312 0.19657 0.53515 0.0
H42 H 0.5679 0.15818 0.53958 0.0
H43 H 0.58689 0.12272 0.51937 0.0
O44 O 0.52501 0.18733 0.39702 0.0
O45 O 0.59259 0.17619 0.41016 0.0
O46 O 0.61531 0.2107 0.4065 0.0
O47 O 0.52696 0.16244 0.42779 0.0
O48 O 0.57106 0.17203 0.38618 0.0
O49 O 0.56572 0.20611 0.3646 0.0
O50 O 0.61562 0.23241 0.34254 0.0
O51 O 0.55611 0.23585 0.37761 0.0
O52 O 0.5432 0.22455 0.41694 0.0
O53 O 0.61586 0.19932 0.36348 0.0
O54 O 0.59743 0.24128 0.41499 0.0
O55 O 0.57105 0.21894 0.44094 0.0
C56 C 0.61233 0.18856 0.41536 0.0
C57 C 0.48775 0.17445 0.41527 0.0
C58 C 0.4454 0.16007 0.41634 0.0
C59 C 0.4392 0.18163 0.42906 0.0
C60 C 0.48066 0.1957 0.42754 0.0
C61 C 0.45658 0.19921 0.43439 0.0
C62 C 0.47007 0.1566 0.40966 0.0
C63 C 0.56912 0.18266 0.36429 0.0
C64 C 0.5137 0.1704 0.40939 0.0
C65 C 0.5687 0.15731 0.51934 0.0
C66 C 0.57953 0.13713 0.50784 0.0
C67 C 0.54309 0.23986 0.39794 0.0
C68 C 0.65115 0.20944 0.34171 0.0
C69 C 0.69142 0.21501 0.35926 0.0
C70 C 0.70143 0.21089 0.33546 0.0
C71 C 0.66127 0.20517 0.3181 0.0
C72 C 0.66627 0.2138 0.36229 0.0
C73 C 0.68639 0.20574 0.31506 0.0
C74 C 0.58687 0.2367 0.43673 0.0
C75 C 0.62485 0.21083 0.34449 0.0
H76 H 0.42086 0.18488 0.43537 0.0
H77 H 0.49384 0.20947 0.43208 0.0
H78 H 0.45137 0.21561 0.44415 0.0
H79 H 0.47556 0.14022 0.40002 0.0
H80 H 0.72084 0.21158 0.33269 0.0
H81 H 0.64975 0.20172 0.30204 0.0
H82 H 0.65842 0.21693 0.38052 0.0
H83 H 0.69419 0.20252 0.29679 0.0
Tb84 Tb 0.35117 0.5567 0.42657 0.0
C85 C 0.26861 0.5688 0.35488 0.0
N86 N 0.29244 0.57487 0.35472 0.0
C87 C 0.29709 0.55688 0.31417 0.0
C88 C 0.25828 0.55556 0.33499 0.0
C89 C 0.30653 0.56996 0.33437 0.0
C90 C 0.27291 0.54948 0.31456 0.0
C91 C 0.23014 0.56861 0.37668 0.0
C92 C 0.25471 0.57543 0.3754 0.0
C93 C 0.21984 0.55511 0.35708 0.0
C94 C 0.23383 0.5487 0.33624 0.0
Tb95 Tb 0.30507 0.59806 0.38737 0.0
N96 N 0.26524 0.58859 0.39399 0.0
C97 C 0.21661 0.57573 0.39752 0.0
C98 C 0.25163 0.59683 0.4136 0.0
C99 C 0.22735 0.5901 0.41593 0.0
H100 H 0.32497 0.57624 0.33365 0.0
H101 H 0.2168 0.59642 0.43169 0.0
H102 H 0.32594 0.53541 0.47856 0.0
H103 H 0.4426 0.58751 0.41157 0.0
H104 H 0.25901 0.60924 0.42713 0.0
H105 H 0.19773 0.57073 0.39928 0.0
H106 H 0.40319 0.56962 0.39931 0.0
H107 H 0.30841 0.5527 0.29823 0.0
H108 H 0.20102 0.54966 0.35779 0.0
H109 H 0.22561 0.53836 0.32124 0.0
H110 H 0.33167 0.54048 0.5242 0.0
H111 H 0.26567 0.5393 0.29891 0.0
H112 H 0.44987 0.5995 0.45564 0.0
N113 N 0.35585 0.55781 0.46907 0.0
C114 C 0.37558 0.56989 0.47759 0.0
C115 C 0.34403 0.54906 0.51128 0.0
C116 C 0.37997 0.57273 0.50341 0.0
C117 C 0.34076 0.54635 0.48545 0.0
C118 C 0.36351 0.56266 0.52031 0.0
N119 N 0.38822 0.57262 0.43582 0.0
C120 C 0.40628 0.57493 0.41852 0.0
C121 C 0.41467 0.58744 0.46826 0.0
C122 C 0.39257 0.5773 0.46033 0.0
C123 C 0.43259 0.59178 0.45032 0.0
C124 C 0.42857 0.58498 0.42543 0.0
H125 H 0.36619 0.56445 0.54032 0.0
H126 H 0.40475 0.58713 0.53119 0.0
H127 H 0.43525 0.59992 0.50036 0.0
O128 O 0.35663 0.52574 0.40397 0.0
O129 O 0.36185 0.59479 0.42033 0.0
O130 O 0.32643 0.61706 0.41658 0.0
O131 O 0.37081 0.52701 0.44125 0.0
O132 O 0.35775 0.56175 0.3855 0.0
O133 O 0.34207 0.5991 0.37429 0.0
O134 O 0.28088 0.62648 0.37932 0.0
O135 O 0.30822 0.5581 0.38574 0.0
O136 O 0.31386 0.54416 0.42502 0.0
O137 O 0.31405 0.62257 0.35878 0.0
O138 O 0.30146 0.60239 0.42776 0.0
O139 O 0.31694 0.56757 0.4471 0.0
C140 C 0.34929 0.61482 0.42389 0.0
C141 C 0.36364 0.48796 0.42434 0.0
C142 C 0.37676 0.44514 0.42249 0.0
C143 C 0.35357 0.43853 0.43106 0.0
C144 C 0.34079 0.4806 0.43262 0.0
C145 C 0.33586 0.45605 0.43598 0.0
C146 C 0.38166 0.47019 0.41936 0.0
C147 C 0.35772 0.58151 0.37139 0.0
C148 C 0.3689 0.51407 0.42104 0.0
C149 C 0.40117 0.58449 0.51143 0.0
C150 C 0.41853 0.59179 0.49387 0.0
C151 C 0.30116 0.54423 0.40434 0.0
C152 C 0.30184 0.66187 0.36876 0.0
C153 C 0.31177 0.69359 0.39891 0.0
C154 C 0.3144 0.70996 0.37884 0.0
C155 C 0.30466 0.67831 0.34908 0.0
C156 C 0.30576 0.66946 0.39349 0.0
C157 C 0.31101 0.70227 0.35415 0.0
C158 C 0.30311 0.58749 0.44703 0.0
C159 C 0.29568 0.63656 0.36359 0.0
H160 H 0.3491 0.41972 0.43434 0.0
H161 H 0.32681 0.49387 0.43659 0.0
H162 H 0.31819 0.45053 0.44255 0.0
H163 H 0.39928 0.4759 0.41276 0.0
H164 H 0.31838 0.72888 0.38214 0.0
H165 H 0.30196 0.67262 0.32986 0.0
H166 H 0.30389 0.6565 0.40851 0.0
H167 H 0.313 0.71503 0.33892 0.0
Tb168 Tb 0.94923 0.30296 0.38985 0.0
C169 C 0.97834 0.38855 0.47223 0.0
N170 N 0.97805 0.38738 0.44697 0.0
C171 C 0.96554 0.429 0.44486 0.0
C172 C 0.97143 0.40975 0.48505 0.0
C173 C 0.97276 0.4075 0.43309 0.0
C174 C 0.96445 0.43001 0.47098 0.0
C175 C 0.99035 0.3698 0.51117 0.0
C176 C 0.98763 0.36904 0.48496 0.0
C177 C 0.98217 0.39028 0.52439 0.0
C178 C 0.97272 0.41027 0.51132 0.0
Tb179 Tb 0.98821 0.35116 0.42912 0.0
N180 N 0.99593 0.35013 0.4713 0.0
C181 C 1.00208 0.35044 0.52306 0.0
C182 C 1.00882 0.33197 0.4826 0.0
C183 C 1.01168 0.3316 0.50865 0.0
H184 H 0.97355 0.4068 0.4129 0.0
H185 H 0.0214 0.31687 0.51755 0.0
H186 H 0.98505 0.28927 0.34274 0.0
H187 H 0.85153 0.30498 0.39327 0.0
H188 H 1.01654 0.31746 0.4716 0.0
H189 H 1.00454 0.35027 0.54319 0.0
H190 H 0.89289 0.29954 0.41026 0.0
H191 H 0.9608 0.44475 0.43378 0.0
H192 H 0.98384 0.39116 0.54458 0.0
H193 H 0.96725 0.42628 0.52162 0.0
H194 H 0.98304 0.28869 0.29651 0.0
H195 H 0.95901 0.44671 0.48007 0.0
H196 H 0.84563 0.31251 0.34792 0.0
N197 N 0.94852 0.30069 0.34715 0.0
C198 C 0.92719 0.30542 0.33563 0.0
C199 C 0.96719 0.29359 0.30729 0.0
C200 C 0.92505 0.30538 0.30936 0.0
C201 C 0.96828 0.2939 0.33349 0.0
C202 C 0.94558 0.29981 0.29514 0.0
N203 N 0.91018 0.30552 0.37541 0.0
C204 C 0.89047 0.30321 0.39059 0.0
C205 C 0.88398 0.31083 0.33965 0.0
C206 C 0.90714 0.30809 0.35043 0.0
C207 C 0.86378 0.31049 0.35541 0.0
C208 C 0.86704 0.30619 0.38098 0.0
H209 H 0.94475 0.29952 0.27488 0.0
H210 H 0.9003 0.31022 0.27815 0.0
H211 H 0.86417 0.31499 0.30478 0.0
O212 O 0.93897 0.26718 0.38097 0.0
O213 O 0.97102 0.33045 0.37107 0.0
O214 O 0.96894 0.36425 0.39523 0.0
O215 O 0.96428 0.27403 0.4104 0.0
O216 O 0.92656 0.33176 0.40865 0.0
O217 O 0.94993 0.36286 0.42681 0.0
O218 O 1.01404 0.35244 0.40014 0.0
O219 O 0.97559 0.31721 0.44789 0.0
O220 O 0.93922 0.30859 0.42869 0.0
O221 O 0.02104 0.36977 0.43543 0.0
O222 O 1.00064 0.31348 0.42667 0.0
O223 O 0.98897 0.30573 0.38688 0.0
C224 C 0.96617 0.35361 0.37335 0.0
C225 C 0.9395 0.24045 0.41547 0.0
C226 C 0.9048 0.23016 0.44163 0.0
C227 C 0.91524 0.20721 0.44603 0.0
C228 C 0.9496 0.21758 0.42001 0.0
C229 C 0.93764 0.20116 0.43553 0.0
C230 C 0.9178 0.24694 0.42712 0.0
C231 C 0.92886 0.35314 0.42036 0.0
C232 C 0.9518 0.25766 0.39895 0.0
C233 C 0.90232 0.30981 0.29832 0.0
C234 C 0.88176 0.31255 0.31348 0.0
C235 C 0.95358 0.3077 0.44824 0.0
C236 C 0.03833 0.38807 0.39954 0.0
C237 C 0.07172 0.41604 0.38973 0.0
C238 C 0.05623 0.42812 0.37289 0.0
C239 C 0.02341 0.40077 0.38272 0.0
C240 C 0.06251 0.396 0.4033 0.0
C241 C 0.03231 0.42063 0.36957 0.0
C242 C 1.00359 0.30125 0.40583 0.0
C243 C 0.02879 0.36638 0.41272 0.0
H244 H 0.90586 0.19359 0.45681 0.0
H245 H 0.96667 0.21243 0.41153 0.0
H246 H 0.94544 0.18344 0.43891 0.0
H247 H 0.91099 0.26509 0.42442 0.0
H248 H 0.06259 0.44362 0.36239 0.0
H249 H 1.00485 0.39524 0.37957 0.0
H250 H 0.07421 0.38635 0.41623 0.0
H251 H 0.02063 0.43023 0.35661 0.0
Tb252 Tb 0.19116 0.98012 0.42095 0.0
C253 C 0.28197 0.96526 0.3595 0.0
N254 N 0.25844 0.95875 0.35653 0.0
C255 C 0.25861 0.97392 0.3145 0.0
C256 C 0.29456 0.97726 0.34026 0.0
C257 C 0.24685 0.96214 0.33419 0.0
C258 C 0.28251 0.98167 0.3176 0.0
C259 C 0.31749 0.96724 0.38616 0.0
C260 C 0.29328 0.96016 0.38209 0.0
C261 C 0.32995 0.9798 0.36731 0.0
C262 C 0.31856 0.98466 0.34436 0.0
Tb263 Tb 0.24179 0.93813 0.38895 0.0
N264 N 0.28074 0.94777 0.3998 0.0
C265 C 0.32861 0.96106 0.40884 0.0
C266 C 0.29216 0.94015 0.42115 0.0
C267 C 0.31599 0.94716 0.42625 0.0
H268 H 0.22855 0.9558 0.33156 0.0
H269 H 0.32475 0.94143 0.44342 0.0
H270 H 0.21139 1.00352 0.47466 0.0
H271 H 0.10202 0.94582 0.3999 0.0
H272 H 0.28336 0.92808 0.43408 0.0
H273 H 0.34716 0.96624 0.41274 0.0
H274 H 0.14119 0.96551 0.39038 0.0
H275 H 0.24928 0.97691 0.29693 0.0
H276 H 0.34851 0.98553 0.37017 0.0
H277 H 0.32847 0.99416 0.32992 0.0
H278 H 0.20327 0.99807 0.51979 0.0
H279 H 0.29153 0.99088 0.30236 0.0
H280 H 0.09289 0.93304 0.44329 0.0
N281 N 0.18386 0.97895 0.46312 0.0
C282 C 0.16435 0.96583 0.47029 0.0
C283 C 0.19235 0.98865 0.50607 0.0
C284 C 0.15859 0.96271 0.49575 0.0
C285 C 0.197 0.99155 0.48051 0.0
C286 C 0.17335 0.97375 0.51375 0.0
N287 N 0.15421 0.96292 0.42779 0.0
C288 C 0.13727 0.95994 0.40932 0.0
C289 C 0.12674 0.94654 0.45829 0.0
C290 C 0.14874 0.95777 0.45191 0.0
C291 C 0.11006 0.94159 0.43918 0.0
C292 C 0.11512 0.94885 0.41467 0.0
H293 H 0.16958 0.9718 0.53354 0.0
H294 H 0.13306 0.94689 0.52176 0.0
H295 H 0.10507 0.93276 0.48888 0.0
O296 O 0.18667 1.01094 0.39794 0.0
O297 O 0.18239 0.94167 0.41383 0.0
O298 O 0.21834 0.92046 0.41705 0.0
O299 O 0.16925 1.00909 0.43353 0.0
O300 O 0.18668 0.97291 0.37976 0.0
O301 O 0.20699 0.93713 0.37044 0.0
O302 O 0.26675 0.90971 0.38391 0.0
O303 O 0.23797 0.97773 0.38359 0.0
O304 O 0.22817 0.99364 0.42119 0.0
O305 O 0.23367 0.911 0.36265 0.0
O306 O 0.24129 0.93598 0.42976 0.0
O307 O 0.22432 0.972 0.44456 0.0
C308 C 0.19467 0.92217 0.42033 0.0
C309 C 0.17809 0.04837 0.41837 0.0
C310 C 0.16436 0.09093 0.42112 0.0
C311 C 0.18818 0.09741 0.42782 0.0
C312 C 0.20148 0.05558 0.42528 0.0
C313 C 0.20646 0.07994 0.42984 0.0
C314 C 0.15953 0.06614 0.41614 0.0
C315 C 0.19016 0.9533 0.36572 0.0
C316 C 0.17292 0.02236 0.41387 0.0
C317 C 0.13764 0.94979 0.50229 0.0
C318 C 0.12169 0.94175 0.48357 0.0
C319 C 0.24245 0.99323 0.40171 0.0
C320 C 0.24422 0.8737 0.38009 0.0
C321 C 0.23962 0.84636 0.4156 0.0
C322 C 0.22504 0.83122 0.40074 0.0
C323 C 0.22989 0.85826 0.36542 0.0
C324 C 0.24889 0.86767 0.40521 0.0
C325 C 0.22027 0.83716 0.37578 0.0
C326 C 0.23827 0.9524 0.44737 0.0
C327 C 0.25152 0.89747 0.37029 0.0
H328 H 0.19281 0.11616 0.43132 0.0
H329 H 0.21591 0.04235 0.42717 0.0
H330 H 0.22462 0.08534 0.43503 0.0
H331 H 0.14136 0.06062 0.41103 0.0
H332 H 0.21795 0.81443 0.40817 0.0
H333 H 0.22568 0.86282 0.34617 0.0
H334 H 0.25952 0.87968 0.41692 0.0
H335 H 0.20914 0.82535 0.36442 0.0
Tb336 Tb 0.09798 0.80251 0.13439 0.0
C337 C 0.06529 0.85776 0.0357 0.0
N338 N 0.0681 0.86749 0.05882 0.0
C339 C 0.08667 0.90264 0.04091 0.0
C340 C 0.07393 0.86966 0.01421 0.0
C341 C 0.07741 0.89023 0.0616 0.0
C342 C 0.08535 0.8921 0.01715 0.0
C343 C 0.04613 0.82733 0.00975 0.0
C344 C 0.05166 0.83695 0.03348 0.0
C345 C 0.05599 0.83817 0.98829 0.0
C346 C 0.06991 0.85931 0.99052 0.0
Tb347 Tb 0.05494 0.84432 0.09141 0.0
N348 N 0.04233 0.8272 0.05465 0.0
C349 C 0.03004 0.80782 1.00831 0.0
C350 C 0.02495 0.80963 0.05324 0.0
C351 C 1.01901 0.79926 0.03012 0.0
H352 H 0.07803 0.89858 0.07991 0.0
H353 H 1.0059 0.78477 0.02911 0.0
H354 H 0.05195 0.78274 0.16757 0.0
H355 H 0.18002 0.85051 0.15962 0.0
H356 H 1.01633 0.80312 0.07003 0.0
H357 H 0.02529 0.79988 0.99042 0.0
H358 H 0.15285 0.82887 0.13102 0.0
H359 H 0.09469 0.92036 0.04328 0.0
H360 H 0.05224 0.83088 0.96985 0.0
H361 H 0.07666 0.868 0.97377 0.0
H362 H 0.03933 0.78317 0.21199 0.0
H363 H 0.0923 0.90185 1.00112 0.0
H364 H 0.16945 0.8548 0.20434 0.0
N365 N 0.08349 0.8038 0.17409 0.0
C366 C 0.09831 0.81414 0.19133 0.0
C367 C 0.05586 0.79212 0.20639 0.0
C368 C 0.09204 0.81459 0.21687 0.0
C369 C 0.06293 0.79204 0.18127 0.0
C370 C 0.07039 0.80359 0.22425 0.0
N371 N 0.12543 0.82301 0.1585 0.0
C372 C 0.14715 0.83161 0.1501 0.0
C373 C 0.1354 0.83581 0.20048 0.0
C374 C 0.11978 0.82444 0.18321 0.0
C375 C 0.15702 0.84578 0.1917 0.0
C376 C 0.16299 0.8435 0.16644 0.0
H377 H 0.0649 0.80359 0.2437 0.0
H378 H 0.10298 0.8266 0.25382 0.0
H379 H 0.14084 0.84537 0.23945 0.0
O380 O 0.12752 0.78106 0.14589 0.0
O381 O 0.07097 0.829 0.14747 0.0
O382 O 0.07368 0.86191 0.12286 0.0
O383 O 0.09336 0.76478 0.13678 0.0
O384 O 0.11734 0.8254 0.10691 0.0
O385 O 0.09223 0.85837 0.09775 0.0
O386 O 0.02412 0.85218 0.11331 0.0
O387 O 0.06834 0.80961 0.07494 0.0
O388 O 0.10501 0.80056 0.0942 0.0
O389 O 0.0298 0.87047 0.07859 0.0
O390 O 0.03746 0.81466 0.11279 0.0
O391 O 0.066 0.78457 0.11966 0.0
C392 C 0.07475 0.85233 0.14528 0.0
C393 C 0.12811 0.74408 0.12408 0.0
C394 C 0.15365 0.73785 0.08731 0.0
C395 C 0.15212 0.71264 0.09121 0.0
C396 C 0.12676 0.71902 0.12766 0.0
C397 C 0.13849 0.70336 0.11105 0.0
C398 C 0.14067 0.75322 0.10344 0.0
C399 C 0.11356 0.84724 0.09718 0.0
C400 C 0.11613 0.7609 0.1414 0.0
C401 C 0.10753 0.82595 0.23412 0.0
C402 C 0.1291 0.83664 0.22593 0.0
C403 C 0.08965 0.79858 0.07545 0.0
C404 C 1.0085 0.89213 0.1098 0.0
C405 C 0.97684 0.92203 0.12037 0.0
C406 C 0.99477 0.9361 0.13223 0.0
C407 C 0.02576 0.90664 0.1218 0.0
C408 C 0.98401 0.89994 0.10893 0.0
C409 C 1.0189 0.92846 0.1329 0.0
C410 C 0.04359 0.79168 0.11591 0.0
C411 C 1.01608 0.86892 0.09821 0.0
H412 H 0.16209 0.7 0.07965 0.0
H413 H 0.11673 0.71162 0.14327 0.0
H414 H 0.13757 0.68398 0.11394 0.0
H415 H 0.14063 0.77256 0.1004 0.0
H416 H 0.99021 0.95331 0.14077 0.0
H417 H 0.04459 0.90112 0.12254 0.0
H418 H 0.9706 0.88872 0.09975 0.0
H419 H 0.0324 0.93958 0.14205 0.0
Tb420 Tb 0.736 0.09598 0.13278 0.0
C421 C 0.65619 0.06481 0.04474 0.0
N422 N 0.65586 0.06496 0.07002 0.0
C423 C 0.61429 0.07782 0.06937 0.0
C424 C 0.63586 0.07193 0.03054 0.0
C425 C 0.63495 0.07029 0.08253 0.0
C426 C 0.61487 0.07905 0.04323 0.0
C427 C 0.67706 0.05257 1.00715 0.0
C428 C 0.67631 0.05535 0.03334 0.0
C429 C 0.65752 0.06099 0.99258 0.0
C430 C 0.6369 0.07067 1.00428 0.0
Tb431 Tb 0.69103 0.0549 0.09023 0.0
N432 N 0.69424 0.04685 0.04827 0.0
C433 C 0.69691 0.0405 0.99663 0.0
C434 C 0.71278 0.03355 0.03828 0.0
C435 C 0.71466 0.0306 0.01233 0.0
H436 H 0.63442 0.06932 0.10272 0.0
H437 H 0.72973 1.0206 1.00447 0.0
H438 H 0.74524 0.06156 0.18215 0.0
H439 H 0.72415 0.19327 0.12808 0.0
H440 H 0.72643 0.02563 0.05029 0.0
H441 H 0.69824 0.03798 0.97657 0.0
H442 H 0.7374 0.1531 0.11287 0.0
H443 H 0.59795 0.08264 0.07937 0.0
H444 H 0.65781 0.05929 0.97238 0.0
H445 H 0.62159 0.07631 0.99294 0.0
H446 H 0.73679 0.06299 0.22764 0.0
H447 H 0.59881 0.08469 0.03306 0.0
H448 H 0.7073 0.19751 0.1708 0.0
N449 N 0.73078 0.09664 0.17519 0.0
C450 C 0.72161 0.11717 0.18525 0.0
C451 C 0.73229 0.07834 0.2159 0.0
C452 C 0.71641 0.11893 0.21097 0.0
C453 C 0.73707 0.07757 0.19018 0.0
C454 C 0.72152 0.09898 0.2263 0.0
N455 N 0.72693 0.13459 0.14597 0.0
C456 C 0.72996 0.15475 0.13144 0.0
C457 C 0.7119 0.15949 0.17966 0.0
C458 C 0.7194 0.13697 0.16992 0.0
C459 C 0.71289 0.17984 0.16409 0.0
C460 C 0.72246 0.17753 0.14001 0.0
H461 H 0.71781 0.09955 0.24619 0.0
H462 H 0.70251 0.14242 0.24019 0.0
H463 H 0.69861 0.1781 0.21268 0.0
O464 O 0.76867 0.10899 0.14813 0.0
O465 O 0.70909 0.07096 0.14742 0.0
O466 O 0.67595 0.07427 0.12299 0.0
O467 O 0.76909 0.08381 0.11778 0.0
O468 O 0.71024 0.11686 0.10849 0.0
O469 O 0.67837 0.09275 0.09339 0.0
O470 O 0.69 0.02877 0.11899 0.0
O471 O 0.72546 0.06786 0.07276 0.0
O472 O 0.73493 0.10395 0.09278 0.0
O473 O 0.67245 0.0221 0.08373 0.0
O474 O 0.72905 0.04359 0.09451 0.0
O475 O 0.73474 0.05625 0.13439 0.0
C476 C 0.68608 0.07611 0.14515 0.0
C477 C 0.8007 0.11167 0.11934 0.0
C478 C 0.8119 0.14661 0.09383 0.0
C479 C 0.8364 0.13961 0.09608 0.0
C480 C 0.82509 0.10494 0.12125 0.0
C481 C 0.84284 0.11879 0.10947 0.0
C482 C 0.79417 0.13197 0.10514 0.0
C483 C 0.6888 0.11399 0.09732 0.0
C484 C 0.78212 0.09742 0.13215 0.0
C485 C 0.70713 0.14078 0.22056 0.0
C486 C 0.70486 0.16108 0.20489 0.0
C487 C 0.73702 0.08891 0.07377 0.0
C488 C 0.65447 1.00443 0.11957 0.0
C489 C 0.62686 0.97077 0.12923 0.0
C490 C 0.61483 0.98594 0.14635 0.0
C491 C 0.6418 1.0191 0.13658 0.0
C492 C 0.64668 0.98026 0.11565 0.0
C493 C 0.62216 1.00988 0.14983 0.0
C494 C 0.74147 0.0426 0.11549 0.0
C495 C 0.676 1.01414 0.10637 0.0
H496 H 0.85073 0.15049 0.0882 0.0
H497 H 0.83039 0.08909 0.13193 0.0
H498 H 0.86171 0.11365 0.11114 0.0
H499 H 0.77517 0.13632 0.10323 0.0
H500 H 0.59948 0.97932 0.15688 0.0
H501 H 0.64717 0.03768 0.13979 0.0
H502 H 0.65629 0.96878 0.10252 0.0
H503 H 0.61259 0.02135 0.16296 0.0
Tb504 Tb 0.48255 0.69345 0.09529 0.0
C505 C 0.47782 0.77474 0.16752 0.0
N506 N 0.47026 0.75129 0.1673 0.0
C507 C 0.48889 0.74447 0.20725 0.0
C508 C 0.492 0.78372 0.18742 0.0
C509 C 0.4749 0.73632 0.18709 0.0
C510 C 0.49756 0.76822 0.20738 0.0
C511 C 0.4809 0.81344 0.14616 0.0
C512 C 0.47215 0.78948 0.14715 0.0
C513 C 0.49496 0.82247 0.16601 0.0
C514 C 0.50042 0.80769 0.18661 0.0
Tb515 Tb 0.44491 0.7417 0.13531 0.0
N516 N 0.45864 0.78013 0.12808 0.0
C517 C 0.47545 0.82757 0.12515 0.0
C518 C 0.4525 0.79424 0.10798 0.0
C519 C 0.46112 0.81795 0.10605 0.0
H520 H 0.4677 0.71821 0.18749 0.0
H521 H 0.45637 0.82894 0.08998 0.0
H522 H 0.51145 0.72223 0.05011 0.0
H523 H 0.44746 0.60242 0.09843 0.0
H524 H 0.44031 0.78782 0.09372 0.0
H525 H 0.48202 0.84599 0.12359 0.0
H526 H 0.46287 0.64079 0.11628 0.0
H527 H 0.49279 0.73249 0.22279 0.0
H528 H 0.50186 0.84082 0.16553 0.0
H529 H 0.51141 0.81489 0.20169 0.0
H530 H 0.51573 0.71885 1.00419 0.0
H531 H 0.50843 0.77444 0.22301 0.0
H532 H 0.4456 0.59697 0.05244 0.0
N533 N 0.48905 0.69108 0.05316 0.0
C534 C 0.47937 0.67174 0.04122 0.0
C535 C 0.5053 0.70555 0.01436 0.0
C536 C 0.48172 0.66873 0.01517 0.0
C537 C 0.50277 0.70745 0.04034 0.0
C538 C 0.49445 0.68626 1.00164 0.0
N539 N 0.46852 0.65718 0.08075 0.0
C540 C 0.46195 0.63859 0.0962 0.0
C541 C 0.46053 0.63238 0.04454 0.0
C542 C 0.46889 0.65397 0.05561 0.0
C543 C 0.45219 0.61386 0.06018 0.0
C544 C 0.45325 0.61686 0.08615 0.0
H545 H 0.49666 0.68466 0.98157 0.0
H546 H 0.47357 0.64531 0.98367 0.0
H547 H 0.45503 0.61338 0.00946 0.0
O548 O 0.51234 0.69254 0.12027 0.0
O549 O 0.44402 0.68435 0.09992 0.0
O550 O 0.42227 0.7196 0.10952 0.0
O551 O 0.51222 0.67091 0.08679 0.0
O552 O 0.47334 0.68282 0.13458 0.0
O553 O 0.44101 0.70556 0.15002 0.0
O554 O 0.42065 0.76999 0.14282 0.0
O555 O 0.48452 0.7361 0.13475 0.0
O556 O 0.49545 0.7305 0.09483 0.0
O557 O 0.42038 0.73761 0.16514 0.0
O558 O 0.4381 0.74493 0.09532 0.0
O559 O 0.46993 0.72614 0.0736 0.0
C560 C 0.42379 0.69726 0.10025 0.0
C561 C 0.55053 0.68251 0.10204 0.0
C562 C 0.59312 0.66883 0.10169 0.0
C563 C 0.59947 0.69149 0.0915 0.0
C564 C 0.5576 0.70485 0.0921 0.0
C565 C 0.58192 0.70927 0.08691 0.0
C566 C 0.56832 0.66452 0.10683 0.0
C567 C 0.45532 0.68659 0.15053 0.0
C568 C 0.52461 0.67735 0.1064 0.0
C569 C 0.47217 0.6479 1.00372 0.0
C570 C 0.46161 0.62971 0.0184 0.0
C571 C 0.49741 0.74294 0.11538 0.0
C572 C 0.38305 0.75716 0.1582 0.0
C573 C 0.34601 0.76248 0.134 0.0
C574 C 0.33242 0.75783 0.15571 0.0
C575 C 0.36928 0.75258 0.17967 0.0
C576 C 0.37134 0.7617 0.13528 0.0
C577 C 0.34404 0.75277 0.17835 0.0
C578 C 0.45088 0.74102 0.07486 0.0
C579 C 0.40952 0.75799 0.16019 0.0
H580 H 0.61804 0.69548 0.08659 0.0
H581 H 0.54428 0.71878 0.08811 0.0
H582 H 0.58721 0.72652 0.07902 0.0
H583 H 0.56277 0.64731 0.11465 0.0
H584 H 0.31281 0.758 0.15512 0.0
H585 H 0.37807 0.74901 0.19746 0.0
H586 H 0.38186 0.7653 0.11859 0.0
H587 H 0.33346 0.7492 0.19496 0.0
Tb588 Tb 0.84605 0.48364 0.09931 0.0
C589 C 0.74877 0.46537 0.16178 0.0
N590 N 0.77204 0.4693 0.16852 0.0
C591 C 0.75896 0.49758 0.19985 0.0
C592 C 0.72954 0.47818 0.17298 0.0
C593 C 0.77738 0.48436 0.18804 0.0
C594 C 0.73497 0.4949 0.19187 0.0
C595 C 0.72032 0.43977 0.13995 0.0
C596 C 0.74428 0.44657 0.14563 0.0
C597 C 0.70098 0.45364 0.14937 0.0
C598 C 0.7056 0.47286 0.16591 0.0
Tb599 Tb 0.80109 0.44852 0.14694 0.0
N600 N 0.76348 0.4333 0.13782 0.0
C601 C 0.7166 0.41849 0.12622 0.0
C602 C 0.75984 0.41136 0.12658 0.0
C603 C 0.73646 0.40394 0.11998 0.0
H604 H 0.79594 0.48667 0.19401 0.0
H605 H 0.73378 0.38698 0.1102 0.0
H606 H 0.81302 0.51317 0.05753 0.0
H607 H 0.93422 0.44239 0.08977 0.0
H608 H 0.77508 0.4 0.12187 0.0
H609 H 0.69848 0.41259 0.12139 0.0
H610 H 0.9008 0.46271 0.11233 0.0
H611 H 0.76331 0.50996 0.2149 0.0
H612 H 0.68241 0.44897 0.14493 0.0
H613 H 0.69053 0.48274 0.17397 0.0
H614 H 0.80924 0.51504 0.01145 0.0
H615 H 0.72073 0.50511 0.20103 0.0
H616 H 0.93162 0.43663 0.04386 0.0
N617 N 0.84278 0.4886 0.05691 0.0
C618 C 0.85905 0.47667 0.04257 0.0
C619 C 0.8233 0.50406 0.01997 0.0
C620 C 0.85781 0.47725 0.01626 0.0
C621 C 0.82554 0.50303 0.04605 0.0
C622 C 0.8393 0.49083 1.00497 0.0
N623 N 0.87912 0.46739 0.07971 0.0
C624 C 0.89944 0.46016 0.09233 0.0
C625 C 0.8967 0.45438 0.04072 0.0
C626 C 0.87803 0.46551 0.05451 0.0
C627 C 0.91686 0.44538 0.0537 0.0
C628 C 0.91843 0.44869 0.0796 0.0
H629 H 0.83765 0.49177 0.98479 0.0
H630 H 0.87484 0.46498 0.98196 0.0
H631 H 0.90902 0.44485 1.00347 0.0
O632 O 0.84564 0.51453 0.1226 0.0
O633 O 0.85502 0.44757 0.114 0.0
O634 O 0.8201 0.42572 0.11883 0.0
O635 O 0.87006 0.51223 0.09144 0.0
O636 O 0.86074 0.46917 0.1351 0.0
O637 O 0.82747 0.47588 0.15819 0.0
O638 O 0.79183 0.42974 0.17975 0.0
O639 O 0.8019 0.48809 0.14267 0.0
O640 O 0.80838 0.49626 0.1016 0.0
O641 O 0.82738 0.42639 0.16413 0.0
O642 O 0.79141 0.44314 0.10728 0.0
O643 O 0.81419 0.46722 0.07949 0.0
C644 C 0.84235 0.42787 0.10998 0.0
C645 C 0.85682 0.55145 0.10292 0.0
C646 C 0.86964 0.59413 0.1005 0.0
C647 C 0.84695 0.59977 0.08979 0.0
C648 C 0.83437 0.55785 0.0925 0.0
C649 C 0.82955 0.58183 0.08594 0.0
C650 C 0.87446 0.56963 0.10688 0.0
C651 C 0.85072 0.47126 0.15738 0.0
C652 C 0.86197 0.52587 0.10948 0.0
C653 C 0.87556 0.46502 1.00223 0.0
C654 C 0.89501 0.45356 0.01447 0.0
C655 C 0.79514 0.49872 0.12178 0.0
C656 C 0.81049 0.39205 0.18273 0.0
C657 C 0.80287 0.35353 0.16216 0.0
C658 C 0.80186 0.34223 0.18574 0.0
C659 C 0.8095 0.3807 0.20613 0.0
C660 C 0.80766 0.37835 0.16091 0.0
C661 C 0.80538 0.35577 0.20759 0.0
C662 C 0.79646 0.45162 0.08463 0.0
C663 C 0.81241 0.41838 0.1809 0.0
H664 H 0.84264 0.61808 0.084 0.0
H665 H 0.82057 0.54428 0.0894 0.0
H666 H 0.81221 0.58655 0.07773 0.0
H667 H 0.89171 0.56471 0.11519 0.0
H668 H 0.79849 0.32297 0.18727 0.0
H669 H 0.81155 0.39114 0.22318 0.0
H670 H 0.80844 0.3872 0.14291 0.0
H671 H 0.80457 0.34697 0.22567 0.0
Tb672 Tb 0.44906 0.79832 0.63272 0.0
C673 C 0.4717 0.87982 0.5477 0.0
N674 N 0.48433 0.86038 0.55614 0.0
C675 C 0.4976 0.85174 0.51433 0.0
C676 C 0.47086 0.88569 0.52206 0.0
C677 C 0.49821 0.84701 0.54006 0.0
C678 C 0.48352 0.87094 0.50522 0.0
C679 C 0.45097 0.91722 0.55781 0.0
C680 C 0.46178 0.89519 0.5652 0.0
C681 C 0.44857 0.92249 0.53219 0.0
C682 C 0.45846 0.90669 0.5143 0.0
Tb683 Tb 0.48233 0.85295 0.59819 0.0
N684 N 0.46494 0.8896 0.58967 0.0
C685 C 0.44413 0.93375 0.57641 0.0
C686 C 0.4599 0.9063 0.60783 0.0
C687 C 0.44911 0.92848 0.60151 0.0
H688 H 0.50937 0.83235 0.54707 0.0
H689 H 0.44459 0.94144 0.61598 0.0
H690 H 0.47064 0.81743 0.68721 0.0
H691 H 0.46612 0.71739 0.57755 0.0
H692 H 0.46376 0.90231 0.62722 0.0
H693 H 0.43584 0.95094 0.57154 0.0
H694 H 0.44693 0.7565 0.5863 0.0
H695 H 0.50811 0.84071 0.50158 0.0
H696 H 0.43998 0.93915 0.52606 0.0
H697 H 0.45733 0.9114 0.49465 0.0
H698 H 0.49699 0.80107 0.72059 0.0
H699 H 0.48334 0.87478 0.48534 0.0
H700 H 0.49368 0.69877 0.60866 0.0
N701 N 0.47569 0.78719 0.6631 0.0
C702 C 0.48492 0.76442 0.66055 0.0
C703 C 0.49393 0.7907 0.70369 0.0
C704 C 0.49982 0.75423 0.67929 0.0
C705 C 0.47925 0.80007 0.68461 0.0
C706 C 0.50436 0.76774 0.70098 0.0
N707 N 0.46569 0.76205 0.62083 0.0
C708 C 0.46008 0.74965 0.59942 0.0
C709 C 0.49057 0.72857 0.63481 0.0
C710 C 0.48015 0.75166 0.63859 0.0
C711 C 0.48584 0.71643 0.61236 0.0
C712 C 0.47044 0.72697 0.59466 0.0
H713 H 0.51574 0.76056 0.7158 0.0
H714 H 0.52151 0.72304 0.68982 0.0
H715 H 0.51359 0.70069 0.65084 0.0
O716 O 0.42767 0.76752 0.63783 0.0
O717 O 0.48806 0.80716 0.63311 0.0
O718 O 0.49828 0.81716 0.59396 0.0
O719 O 0.42483 0.79762 0.66316 0.0
O720 O 0.44172 0.79867 0.59278 0.0
O721 O 0.47236 0.82126 0.57351 0.0
O722 O 0.51324 0.85448 0.62168 0.0
O723 O 0.44348 0.85881 0.60544 0.0
O724 O 0.42457 0.82121 0.6089 0.0
O725 O 0.51003 0.87775 0.58969 0.0
O726 O 0.47321 0.85868 0.63882 0.0
O727 O 0.44264 0.83237 0.65114 0.0
C728 C 0.50157 0.80324 0.61332 0.0
C729 C 0.39012 0.77347 0.65743 0.0
C730 C 0.35218 0.7646 0.63612 0.0
C731 C 0.34028 0.76486 0.6594 0.0
C732 C 0.37805 0.77363 0.68046 0.0
C733 C 0.35318 0.76939 0.6814 0.0
C734 C 0.37712 0.7691 0.63529 0.0
C735 C 0.45438 0.80517 0.57303 0.0
C736 C 0.41645 0.77645 0.65705 0.0
C737 C 0.50993 0.73111 0.67567 0.0
C738 C 0.50541 0.71838 0.65346 0.0
C739 C 0.42449 0.84456 0.60239 0.0
C740 C 0.54979 0.86724 0.60191 0.0
C741 C 0.59214 0.88167 0.60113 0.0
C742 C 0.59829 0.86054 0.58767 0.0
C743 C 0.55681 0.84642 0.5888 0.0
C744 C 0.5675 0.88491 0.60805 0.0
C745 C 0.58088 0.84314 0.58176 0.0
C746 C 0.45567 0.85192 0.65437 0.0
C747 C 0.52388 0.87102 0.60815 0.0
H748 H 0.32092 0.76201 0.66059 0.0
H749 H 0.3879 0.77683 0.69771 0.0
H750 H 0.34389 0.76961 0.6992 0.0
H751 H 0.38647 0.7688 0.61747 0.0
H752 H 0.61661 0.85749 0.5812 0.0
H753 H 0.54361 0.83281 0.58371 0.0
H754 H 0.56206 0.90098 0.61827 0.0
H755 H 0.58606 0.82709 0.57139 0.0
Tb756 Tb 0.73582 0.44088 0.62493 0.0
C757 C 0.66026 0.47009 0.54128 0.0
N758 N 0.68062 0.48201 0.54839 0.0
C759 C 0.68983 0.49034 0.50536 0.0
C760 C 0.65432 0.467 0.51581 0.0
C761 C 0.69465 0.49332 0.5309 0.0
C762 C 0.66982 0.47673 0.49776 0.0
C763 C 0.62159 0.45306 0.55323 0.0
C764 C 0.64419 0.46308 0.55966 0.0
C765 C 0.61619 0.44849 0.52796 0.0
C766 C 0.63257 0.45539 0.50927 0.0
Tb767 Tb 0.68754 0.48378 0.59063 0.0
N768 N 0.65007 0.46779 0.58384 0.0
C769 C 0.60477 0.4489 0.57232 0.0
C770 C 0.63316 0.46544 0.60233 0.0
C771 C 0.61042 0.45557 0.59692 0.0
H772 H 0.70973 0.50452 0.53661 0.0
H773 H 0.59728 0.45311 0.61168 0.0
H774 H 0.71969 0.45777 0.68172 0.0
H775 H 0.82089 0.44686 0.57468 0.0
H776 H 0.63745 0.47073 0.62129 0.0
H777 H 0.58715 0.4413 0.56817 0.0
H778 H 0.7794 0.43274 0.58146 0.0
H779 H 0.70137 0.49878 0.49157 0.0
H780 H 0.59907 0.44044 0.52262 0.0
H781 H 0.62781 0.45258 0.4898 0.0
H782 H 0.73858 0.47846 0.71782 0.0
H783 H 0.66593 0.47474 0.47798 0.0
H784 H 0.84174 0.47082 0.60734 0.0
N785 N 0.75064 0.46137 0.65849 0.0
C786 C 0.77429 0.46792 0.65702 0.0
C787 C 0.74875 0.47582 0.70074 0.0
C788 C 0.78589 0.47962 0.67718 0.0
C789 C 0.738 0.46433 0.6802 0.0
C790 C 0.77275 0.48366 0.69918 0.0
N791 N 0.77504 0.45135 0.61622 0.0
C792 C 0.78743 0.44454 0.59521 0.0
C793 C 0.811 0.47068 0.6324 0.0
C794 C 0.78669 0.46331 0.63496 0.0
C795 C 0.82311 0.46533 0.61011 0.0
C796 C 0.81136 0.45194 0.59158 0.0
H797 H 0.781 0.49262 0.71509 0.0
H798 H 0.81922 0.49634 0.68983 0.0
H799 H 0.84113 0.48871 0.65055 0.0
O800 O 0.76088 0.41261 0.63014 0.0
O801 O 0.73242 0.48057 0.63027 0.0
O802 O 0.72472 0.49662 0.59215 0.0
O803 O 0.72783 0.41377 0.65125 0.0
O804 O 0.73701 0.43889 0.5841 0.0
O805 O 0.72151 0.47542 0.56878 0.0
O806 O 0.68223 0.51465 0.61347 0.0
O807 O 0.67763 0.44528 0.59606 0.0
O808 O 0.71342 0.42347 0.59571 0.0
O809 O 0.66742 0.51332 0.57652 0.0
O810 O 0.68315 0.47747 0.63179 0.0
O811 O 0.69967 0.4398 0.64061 0.0
C812 C 0.73786 0.49615 0.61255 0.0
C813 C 0.74106 0.37582 0.63758 0.0
C814 C 0.73292 0.34592 0.60493 0.0
C815 C 0.7299 0.32828 0.62377 0.0
C816 C 0.73782 0.35809 0.65596 0.0
C817 C 0.73218 0.33441 0.64903 0.0
C818 C 0.73829 0.36978 0.61218 0.0
C819 C 0.73493 0.45544 0.56642 0.0
C820 C 0.74651 0.40079 0.64495 0.0
C821 C 0.81005 0.48711 0.67464 0.0
C822 C 0.82251 0.4828 0.65225 0.0
C823 C 0.69009 0.42563 0.59043 0.0
C824 C 0.6763 0.5522 0.59239 0.0
C825 C 0.66492 0.59553 0.59286 0.0
C826 C 0.68772 0.60076 0.58234 0.0
C827 C 0.69884 0.55824 0.58228 0.0
C828 C 0.65936 0.57087 0.59773 0.0
C829 C 0.70446 0.58236 0.5773 0.0
C830 C 0.68424 0.4573 0.64524 0.0
C831 C 0.67001 0.52644 0.59649 0.0
H832 H 0.72648 0.30952 0.61909 0.0
H833 H 0.73965 0.36257 0.67562 0.0
H834 H 0.72989 0.32067 0.66327 0.0
H835 H 0.74047 0.38371 0.59814 0.0
H836 H 0.69264 0.61913 0.57751 0.0
H837 H 0.71199 0.54424 0.57795 0.0
H838 H 0.64202 0.56613 0.60575 0.0
H839 H 0.72184 0.58683 0.56922 0.0
Tb840 Tb 0.04766 0.69213 0.58644 0.0
C841 C 0.11078 0.72158 0.68251 0.0
N842 N 0.08997 0.72987 0.67215 0.0
C843 C 0.07162 0.73171 0.71277 0.0
C844 C 0.11268 0.71703 0.70838 0.0
C845 C 0.07074 0.73594 0.68694 0.0
C846 C 0.09256 0.72181 0.72349 0.0
C847 C 0.15346 0.7133 0.67738 0.0
C848 C 0.13072 0.71975 0.66732 0.0
C849 C 0.15525 0.70701 0.70282 0.0
C850 C 0.13484 0.70886 0.71833 0.0
Tb851 Tb 0.08947 0.73469 0.62969 0.0
N852 N 0.12815 0.72647 0.6431 0.0
C853 C 0.17378 0.71449 0.66184 0.0
C854 C 0.14814 0.72924 0.62834 0.0
C855 C 0.17117 0.72296 0.63733 0.0
H856 H 0.05454 0.7436 0.67871 0.0
H857 H 0.18682 0.72448 0.62529 0.0
H858 H 0.06374 0.63547 0.59802 0.0
H859 H 1.01082 0.73247 0.50256 0.0
H860 H 0.14612 0.73517 0.60919 0.0
H861 H 0.19162 0.70972 0.66881 0.0
H862 H 1.01802 0.72884 0.54805 0.0
H863 H 0.05615 0.73603 0.72436 0.0
H864 H 0.17248 0.70162 0.71087 0.0
H865 H 0.13662 0.70484 0.7381 0.0
H866 H 0.07576 0.59926 0.57376 0.0
H867 H 0.09324 0.71859 0.74349 0.0
H868 H 0.0257 0.70051 0.47384 0.0
N869 N 0.05684 0.65702 0.56575 0.0
C870 C 0.05502 0.65746 0.5405 0.0
C871 C 0.0701 0.61559 0.56414 0.0
C872 C 0.06139 0.63724 0.52583 0.0
C873 C 0.0633 0.63613 0.57783 0.0
C874 C 0.06948 0.61624 0.53799 0.0
N875 N 0.03775 0.69582 0.54502 0.0
C876 C 0.02482 0.71495 0.53568 0.0
C877 C 0.04113 0.67875 0.50365 0.0
C878 C 0.04511 0.67775 0.52967 0.0
C879 C 0.02912 0.69898 0.49376 0.0
C880 C 0.02065 0.71702 0.50991 0.0
H881 H 0.07459 0.60028 0.52742 0.0
H882 H 0.06365 0.62318 0.488 0.0
H883 H 0.04585 0.65965 0.4685 0.0
O884 O 0.02228 0.69087 0.61585 0.0
O885 O 0.06157 0.72637 0.56953 0.0
O886 O 0.09806 0.73355 0.58984 0.0
O887 O 1.0143 0.67446 0.58029 0.0
O888 O 0.03757 0.73044 0.59093 0.0
O889 O 0.0496 0.73567 0.63121 0.0
O890 O 0.10174 0.76726 0.6458 0.0
O891 O 0.0634 0.70868 0.64367 0.0
O892 O 0.06682 0.67597 0.61895 0.0
O893 O 0.07927 0.76785 0.61315 0.0
O894 O 0.11055 0.7061 0.60881 0.0
O895 O 0.08556 0.68011 0.5853 0.0
C896 C 0.08353 0.73613 0.57042 0.0
C897 C 0.99798 0.65534 0.61617 0.0
C898 C 0.96485 0.62726 0.62641 0.0
C899 C 0.98098 0.61437 0.64193 0.0
C900 C 1.01354 0.64181 0.63165 0.0
C901 C 1.00506 0.62153 0.6444 0.0
C902 C 0.9736 0.64778 0.61331 0.0
C903 C 0.03618 0.74252 0.61208 0.0
C904 C 1.00716 0.67733 0.6033 0.0
C905 C 0.05865 0.63843 0.49969 0.0
C906 C 0.04852 0.65919 0.4886 0.0
C907 C 0.06825 0.68565 0.64132 0.0
C908 C 0.10722 0.79931 0.61751 0.0
C909 C 0.14314 0.80977 0.5933 0.0
C910 C 0.13823 0.83447 0.59767 0.0
C911 C 0.10257 0.82392 0.62167 0.0
C912 C 0.12699 0.79241 0.60286 0.0
C913 C 0.11794 0.84142 0.61158 0.0
C914 C 0.10703 0.68717 0.59358 0.0
C915 C 0.09169 0.78081 0.62877 0.0
H916 H 0.97501 0.59843 0.65197 0.0
H917 H 0.03228 0.64693 0.63402 0.0
H918 H 1.01726 0.6113 0.65631 0.0
H919 H 0.96143 0.65803 0.60136 0.0
H920 H 0.15033 0.84842 0.59103 0.0
H921 H 0.0872 0.82956 0.63283 0.0
H922 H 0.12978 0.77336 0.59928 0.0
H923 H 0.11439 0.86044 0.61496 0.0
Tb924 Tb 0.79422 0.10429 0.62867 0.0
C925 C 0.87507 0.07398 0.55087 0.0
N926 N 0.85512 0.0615 0.55799 0.0
C927 C 0.84792 0.04987 0.51531 0.0
C928 C 0.88175 0.07574 0.5255 0.0
C929 C 0.84238 0.04826 0.54079 0.0
C930 C 0.86741 0.06407 0.50756 0.0
C931 C 0.91261 0.09323 0.5632 0.0
C932 C 0.89019 0.08273 0.56936 0.0
C933 C 0.91861 0.09662 0.53791 0.0
C934 C 0.90315 0.08794 0.51906 0.0
Tb935 Tb 0.84662 0.06217 0.59995 0.0
N936 N 0.88378 0.07898 0.59351 0.0
C937 C 0.92872 0.09891 0.58262 0.0
C938 C 0.90005 0.08283 0.61244 0.0
C939 C 0.92261 0.09319 0.60731 0.0
H940 H 0.82769 0.03669 0.5467 0.0
H941 H 0.93522 0.09681 0.62239 0.0
H942 H 0.80692 0.08931 0.68697 0.0
H943 H 0.71327 0.09417 0.57185 0.0
H944 H 0.89538 0.07835 0.6315 0.0
H945 H 0.94619 0.10691 0.57869 0.0
H946 H 0.7538 0.10963 0.5815 0.0
H947 H 0.83732 0.03993 0.50169 0.0
H948 H 0.93557 0.10505 0.53274 0.0
H949 H 0.90844 0.08979 0.49965 0.0
H950 H 0.78599 0.06937 0.72223 0.0
H951 H 0.87188 0.06499 0.48786 0.0
H952 H 0.69074 0.07074 0.60358 0.0
N953 N 0.77765 0.08438 0.66158 0.0
C954 C 0.75435 0.07714 0.65845 0.0
C955 C 0.77697 0.07127 0.70432 0.0
C956 C 0.74165 0.06578 0.67803 0.0
C957 C 0.78885 0.08236 0.6843 0.0
C958 C 0.75332 0.0628 0.70114 0.0
N959 N 0.7561 0.0923 0.61714 0.0
C960 C 0.7451 0.09806 0.59495 0.0
C961 C 0.7196 0.07251 0.63104 0.0
C962 C 0.74345 0.08064 0.6353 0.0
C963 C 0.70898 0.07681 0.60765 0.0
C964 C 0.72169 0.0899 0.58965 0.0
H965 H 0.7442 0.05413 0.71666 0.0
H966 H 0.70797 0.04852 0.68853 0.0
H967 H 0.68873 0.05427 0.64734 0.0
O968 O 0.79881 0.13203 0.65518 0.0
O969 O 0.79871 0.06496 0.63573 0.0
O970 O 0.8099 0.04789 0.59912 0.0
O971 O 0.76828 0.13224 0.63014 0.0
O972 O 0.79619 0.10512 0.58799 0.0
O973 O 0.8139 0.06873 0.57528 0.0
O974 O 0.85075 0.03234 0.62443 0.0
O975 O 0.85473 0.10112 0.6046 0.0
O976 O 0.81837 0.12184 0.60102 0.0
O977 O 0.86923 0.03302 0.58934 0.0
O978 O 0.85002 0.07182 0.64078 0.0
O979 O 0.82878 0.10761 0.64732 0.0
C980 C 0.79511 0.04863 0.61818 0.0
C981 C 0.78782 0.16943 0.63813 0.0
C982 C 0.79508 0.19905 0.60517 0.0
C983 C 0.80521 0.21476 0.62304 0.0
C984 C 0.79774 0.18544 0.65575 0.0
C985 C 0.80644 0.20798 0.64818 0.0
C986 C 0.7865 0.17636 0.61282 0.0
C987 C 0.80002 0.08813 0.57115 0.0
C988 C 0.78113 0.14479 0.6459 0.0
C989 C 0.71795 0.05751 0.67381 0.0
C990 C 0.70702 0.06074 0.65032 0.0
C991 C 0.84204 0.12016 0.59737 0.0
C992 C 0.8604 0.99426 0.60571 0.0
C993 C 0.87456 0.95175 0.60607 0.0
C994 C 0.85118 0.9447 0.5984 0.0
C995 C 0.83741 0.98647 0.5981 0.0
C996 C 0.87906 0.97685 0.6095 0.0
C997 C 0.8329 0.96187 0.59447 0.0
C998 C 0.84574 0.09208 0.6536 0.0
C999 C 0.8651 1.02048 0.60939 0.0
H1000 H 0.8117 0.23251 0.61765 0.0
H1001 H 0.79917 0.18029 0.67527 0.0
H1002 H 0.81417 0.22023 0.66185 0.0
H1003 H 0.77923 0.16402 0.59893 0.0
H1004 H 0.84703 0.92582 0.59505 0.0
H1005 H 0.82296 0.99943 0.59488 0.0
H1006 H 0.89685 0.98281 0.61542 0.0
H1007 H 0.81509 0.95605 0.58849 0.0
Tb1008 Tb 0.98194 0.20454 0.9273 0.0
C1009 C 0.92759 0.23627 0.83313 0.0
N1010 N 0.94238 0.24783 0.84954 0.0
C1011 C 0.96491 0.26482 0.81556 0.0
C1012 C 0.93141 0.23787 0.80712 0.0
C1013 C 0.96034 0.26271 0.8412 0.0
C1014 C 0.95051 0.25219 0.79844 0.0
C1015 C 0.89311 0.21007 0.82616 0.0
C1016 C 0.90865 0.22269 0.84257 0.0
C1017 C 0.8971 0.21119 0.80022 0.0
C1018 C 0.91612 0.22516 0.79072 0.0
Tb1019 Tb 0.93233 0.24461 0.89062 0.0
N1020 N 0.90519 0.22228 0.86776 0.0
C1021 C 0.87382 0.19702 0.83627 0.0
C1022 C 0.88542 0.21082 0.87753 0.0
C1023 C 0.86981 0.19763 0.86204 0.0
H1024 H 0.97121 0.27285 0.85434 0.0
H1025 H 0.85442 0.1883 0.86996 0.0
H1026 H 0.95905 0.15046 0.94252 0.0
H1027 H 0.03425 0.26556 0.98476 0.0
H1028 H 0.88103 0.2122 0.89712 0.0
H1029 H 0.86155 0.18698 0.82432 0.0
H1030 H 0.02144 0.246 0.94515 0.0
H1031 H 0.97943 0.27629 0.809 0.0
H1032 H 0.88543 0.2015 0.78734 0.0
H1033 H 0.91886 0.22601 0.77066 0.0
H1034 H 0.94354 0.13065 0.98064 0.0
H1035 H 0.95408 0.25386 0.77859 0.0
H1036 H 1.0168 0.25195 0.02502 0.0
N1037 N 0.96976 0.18265 0.96151 0.0
C1038 C 0.97387 0.19311 0.9841 0.0
C1039 C 0.95176 0.14838 0.98186 0.0
C1040 C 0.96611 0.18214 1.00649 0.0
C1041 C 0.96027 0.15982 0.96025 0.0
C1042 C 0.95424 0.15983 1.00505 0.0
N1043 N 0.99617 0.2227 0.96285 0.0
C1044 C 1.01371 0.24015 0.96265 0.0
C1045 C 0.99474 0.22409 1.00788 0.0
C1046 C 0.98793 0.21372 0.98485 0.0
C1047 C 1.01107 0.24346 1.00771 0.0
C1048 C 0.021 0.25117 0.98502 0.0
H1049 H 0.94791 0.1508 0.0218 0.0
H1050 H 0.96541 0.18527 0.04694 0.0
H1051 H 0.99054 0.22206 0.04815 0.0
O1052 O 1.01411 0.19971 0.90668 0.0
O1053 O 0.96851 0.23886 0.94472 0.0
O1054 O 0.92909 0.24213 0.93126 0.0
O1055 O 1.00694 0.17748 0.93844 0.0
O1056 O 0.9956 0.23511 0.90429 0.0
O1057 O 0.96518 0.26408 0.90148 0.0
O1058 O 0.89989 0.26327 0.88302 0.0
O1059 O 0.96024 0.22212 0.87238 0.0
O1060 O 0.96359 0.18767 0.89501 0.0
O1061 O 0.93214 0.28265 0.8931 0.0
O1062 O 0.918 0.21833 0.91804 0.0
O1063 O 0.94615 0.18703 0.92057 0.0
C1064 C 0.94615 0.24689 0.94768 0.0
C1065 C 0.03102 0.16024 0.90641 0.0
C1066 C 0.06445 0.1326 0.89542 0.0
C1067 C 0.0486 0.1205 0.87898 0.0
C1068 C 1.01575 0.1477 0.88993 0.0
C1069 C 0.02452 0.12796 0.87635 0.0
C1070 C 0.05536 0.15251 0.90931 0.0
C1071 C 0.98823 0.2579 0.90243 0.0
C1072 C 0.02178 0.18163 0.92018 0.0
C1073 C 0.97146 0.19324 0.02953 0.0
C1074 C 0.9858 0.21418 0.03023 0.0
C1075 C 0.95981 0.19838 0.87337 0.0
C1076 C 0.89532 0.29825 0.90791 0.0
C1077 C 0.8684 0.30011 0.94422 0.0
C1078 C 0.86806 0.32557 0.94195 0.0
C1079 C 0.89485 0.32354 0.90621 0.0
C1080 C 0.88271 0.28669 0.9273 0.0
C1081 C 0.88144 0.33712 0.92332 0.0
C1082 C 0.92403 0.19579 0.92396 0.0
C1083 C 0.90894 0.28412 0.8893 0.0
H1084 H 0.05474 0.10498 0.86831 0.0
H1085 H 0.99706 0.15323 0.88749 0.0
H1086 H 1.01258 0.11838 0.86368 0.0
H1087 H 0.06725 0.16222 0.92196 0.0
H1088 H 0.85692 0.3367 0.95401 0.0
H1089 H 0.90471 0.33276 0.89154 0.0
H1090 H 0.8839 0.26717 0.92883 0.0
H1091 H 0.88094 0.35667 0.92178 0.0
Tb1092 Tb 0.3424 0.99032 0.92505 0.0
C1093 C 0.31733 0.94693 0.82414 0.0
N1094 N 0.30694 0.9612 0.84183 0.0
C1095 C 0.29624 0.99049 0.8105 0.0
C1096 C 0.3185 0.95439 0.79894 0.0
C1097 C 0.29547 0.98225 0.83524 0.0
C1098 C 0.30801 0.97662 0.7923 0.0
C1099 C 0.33801 0.90949 0.81367 0.0
C1100 C 0.32676 0.92474 0.83138 0.0
C1101 C 0.33982 0.91708 0.78865 0.0
C1102 C 0.32997 0.93942 0.78127 0.0
Tb1103 Tb 0.30477 0.94491 0.88093 0.0
N1104 N 0.32434 0.91785 0.85565 0.0
C1105 C 0.34671 0.88691 0.82157 0.0
C1106 C 0.33145 0.89522 0.86306 0.0
C1107 C 0.34318 0.87965 0.84632 0.0
H1108 H 0.28595 0.99276 0.84915 0.0
H1109 H 0.34909 0.86188 0.8524 0.0
H1110 H 0.39882 0.97256 0.93592 0.0
H1111 H 0.27863 0.0351 0.98627 0.0
H1112 H 0.3275 0.8888 0.88168 0.0
H1113 H 0.35557 0.87471 0.80858 0.0
H1114 H 0.29707 0.02479 0.94549 0.0
H1115 H 0.28759 1.00743 0.80544 0.0
H1116 H 0.34855 0.90569 0.77481 0.0
H1117 H 0.33127 0.94493 0.76186 0.0
H1118 H 0.42354 0.96086 0.97282 0.0
H1119 H 0.30855 0.98302 0.77315 0.0
H1120 H 0.2972 1.0199 0.02552 0.0
N1121 N 0.36777 0.98146 0.95755 0.0
C1122 C 0.35843 0.98455 0.98076 0.0
C1123 C 0.40519 0.96736 0.97531 0.0
C1124 C 0.37187 0.97849 1.00232 0.0
C1125 C 0.39119 0.97395 0.9545 0.0
C1126 C 0.39536 0.96928 0.99932 0.0
N1127 N 0.32475 1.0028 0.96148 0.0
C1128 C 0.30508 1.0179 0.96249 0.0
C1129 C 0.32655 1.00145 1.00652 0.0
C1130 C 0.33613 0.99577 0.98282 0.0
C1131 C 0.30518 1.01514 1.00767 0.0
C1132 C 0.29467 0.02381 0.98556 0.0
H1133 H 0.4063 0.96435 0.01541 0.0
H1134 H 0.37171 0.97793 0.0429 0.0
H1135 H 0.33199 0.99812 0.04658 0.0
O1136 O 0.34813 1.01972 0.90066 0.0
O1137 O 0.30882 0.97405 0.94086 0.0
O1138 O 0.30353 0.93687 0.92107 0.0
O1139 O 0.36561 1.01867 0.93651 0.0
O1140 O 0.31151 1.00545 0.90332 0.0
O1141 O 0.28416 0.97451 0.89737 0.0
O1142 O 0.28353 0.91493 0.8706 0.0
O1143 O 0.33061 0.9729 0.86973 0.0
O1144 O 0.36266 0.97174 0.89549 0.0
O1145 O 0.26735 0.95002 0.87583 0.0
O1146 O 0.33042 0.92531 0.90614 0.0
O1147 O 0.35802 0.95319 0.92353 0.0
C1148 C 0.30038 0.95158 0.94027 0.0
C1149 C 0.38621 0.03929 0.90396 0.0
C1150 C 0.41437 0.07248 0.8943 0.0
C1151 C 0.42791 0.05626 0.87957 0.0
C1152 C 0.40035 0.02358 0.88938 0.0
C1153 C 0.42103 0.03204 0.8773 0.0
C1154 C 0.39349 0.06376 0.9067 0.0
C1155 C 0.28915 0.9975 0.90048 0.0
C1156 C 0.36352 0.03043 0.91554 0.0
C1157 C 0.3618 0.9827 0.02607 0.0
C1158 C 0.33917 0.99419 0.02816 0.0
C1159 C 0.35389 0.96946 0.87288 0.0
C1160 C 0.24443 0.91673 0.88828 0.0
C1161 C 0.23289 0.89126 0.92364 0.0
C1162 C 0.20836 0.89489 0.91722 0.0
C1163 C 0.21998 0.92011 0.88217 0.0
C1164 C 0.25067 0.9034 0.90964 0.0
C1165 C 0.20202 0.90954 0.89687 0.0
C1166 C 0.35036 0.93078 0.9191 0.0
C1167 C 0.26337 0.92711 0.87236 0.0
H1168 H 0.44406 0.06229 0.86998 0.0
H1169 H 0.39532 1.00478 0.88713 0.0
H1170 H 0.43174 1.01977 0.86601 0.0
H1171 H 0.38269 0.07605 0.91792 0.0
H1172 H 0.19402 0.88568 0.92712 0.0
H1173 H 0.21482 0.93077 0.86597 0.0
H1174 H 0.2696 0.90187 0.91469 0.0
H1175 H 0.18313 0.91203 0.89198 0.0
Tb1176 Tb 0.59462 0.30093 0.88594 0.0
C1177 C 0.56443 0.37675 0.97446 0.0
N1178 N 0.5527 0.35734 0.96477 0.0
C1179 C 0.53787 0.34701 1.00552 0.0
C1180 C 0.56405 0.38168 1.00032 0.0
C1181 C 0.53865 0.34304 0.97966 0.0
C1182 C 0.55091 0.36621 0.01596 0.0
C1183 C 0.58643 0.41391 0.96697 0.0
C1184 C 0.57545 0.39258 0.95807 0.0
C1185 C 0.58725 0.41836 0.99286 0.0
C1186 C 0.57608 0.40226 0.00952 0.0
Tb1187 Tb 0.55676 0.35152 0.92275 0.0
N1188 N 0.5742 0.38763 0.93325 0.0
C1189 C 0.5955 0.43045 0.94951 0.0
C1190 C 0.58128 0.40454 0.91607 0.0
C1191 C 0.59252 0.42593 0.92393 0.0
H1192 H 0.52838 0.32831 0.9716 0.0
H1193 H 0.59881 0.43894 0.91029 0.0
H1194 H 0.57668 0.32374 0.83146 0.0
H1195 H 0.57785 0.21478 0.93177 0.0
H1196 H 0.57891 0.40116 0.8963 0.0
H1197 H 0.6041 0.44707 0.95556 0.0
H1198 H 0.59541 0.25528 0.92847 0.0
H1199 H 0.52715 0.33532 0.01736 0.0
H1200 H 0.59586 0.43452 1.00013 0.0
H1201 H 0.57624 0.40625 0.02937 0.0
H1202 H 0.55317 0.30969 0.79499 0.0
H1203 H 0.55015 0.36935 0.03596 0.0
H1204 H 0.55365 0.19801 0.89689 0.0
N1205 N 0.57115 0.2915 0.85242 0.0
C1206 C 0.56268 0.26836 0.85222 0.0
C1207 C 0.55549 0.298 0.81108 0.0
C1208 C 0.54947 0.25944 0.83159 0.0
C1209 C 0.56852 0.30607 0.83195 0.0
C1210 C 0.54581 0.27464 0.81094 0.0
N1211 N 0.57933 0.26304 0.8929 0.0
C1212 C 0.58387 0.24905 0.91355 0.0
C1213 C 0.5571 0.23014 0.87397 0.0
C1214 C 0.56661 0.25382 0.87319 0.0
C1215 C 0.56088 0.21618 0.89548 0.0
C1216 C 0.57438 0.22566 0.91529 0.0
H1217 H 0.53575 0.26846 0.79473 0.0
H1218 H 0.52996 0.22864 0.81662 0.0
H1219 H 0.53649 0.20308 0.85373 0.0
O1220 O 0.61727 0.27131 0.87889 0.0
O1221 O 0.55516 0.30774 0.88418 0.0
O1222 O 0.54235 0.31504 0.92336 0.0
O1223 O 0.62249 0.30482 0.85926 0.0
O1224 O 0.59848 0.29777 0.92637 0.0
O1225 O 0.56655 0.31875 0.9459 0.0
O1226 O 0.52636 0.35437 0.89872 0.0
O1227 O 0.59583 0.35834 0.91857 0.0
O1228 O 0.61638 0.32169 0.91357 0.0
O1229 O 0.52835 0.37528 0.93245 0.0
O1230 O 0.56495 0.35812 0.88228 0.0
O1231 O 0.59983 0.3371 0.8713 0.0
C1232 C 0.54099 0.30207 0.90303 0.0
C1233 C 0.65721 0.28172 0.86938 0.0
C1234 C 0.69018 0.27128 0.8978 0.0
C1235 C 0.70679 0.27539 0.87833 0.0
C1236 C 0.67395 0.28575 0.85019 0.0
C1237 C 0.69868 0.28273 0.85473 0.0
C1238 C 0.66544 0.27493 0.89331 0.0
C1239 C 0.58491 0.30293 0.94599 0.0
C1240 C 0.63121 0.28337 0.86395 0.0
C1241 C 0.54022 0.23577 0.83227 0.0
C1242 C 0.54397 0.2212 0.85341 0.0
C1243 C 0.6149 0.34427 0.92205 0.0
C1244 C 0.48916 0.36494 0.91862 0.0
C1245 C 0.44645 0.37842 0.91936 0.0
C1246 C 0.44061 0.35642 0.93133 0.0
C1247 C 0.48249 0.34323 0.93022 0.0
C1248 C 0.4711 0.38254 0.91319 0.0
C1249 C 0.45839 0.33906 0.93652 0.0
C1250 C 0.58472 0.35528 0.8685 0.0
C1251 C 0.51504 0.36968 0.91324 0.0
H1252 H 0.72606 0.27308 0.88142 0.0
H1253 H 0.66787 0.29097 0.83165 0.0
H1254 H 0.71158 0.28586 0.83988 0.0
H1255 H 0.65259 0.27173 0.90826 0.0
H1256 H 0.42225 0.35265 0.93717 0.0
H1257 H 0.49599 0.32961 0.9347 0.0
H1258 H 0.47629 0.39926 0.90408 0.0
H1259 H 0.45347 0.32233 0.94573 0.0
Tb1260 Tb 0.24529 0.59781 0.8793 0.0
C1261 C 0.17139 0.57809 0.9712 0.0
N1262 N 0.18881 0.56379 0.96121 0.0
C1263 C 0.20045 0.55049 1.00227 0.0
C1264 C 0.16823 0.5799 0.99727 0.0
C1265 C 0.20258 0.54912 0.9762 0.0
C1266 C 0.18348 0.56628 0.01289 0.0
C1267 C 0.13514 0.60187 0.96429 0.0
C1268 C 0.15524 0.58894 0.95505 0.0
C1269 C 0.13275 0.60531 0.99024 0.0
C1270 C 0.14931 0.59433 1.00674 0.0
Tb1271 Tb 0.19285 0.56523 0.9187 0.0
N1272 N 0.158 0.58466 0.93027 0.0
C1273 C 0.11747 0.60975 0.94726 0.0
C1274 C 0.13991 0.59052 0.91381 0.0
C1275 C 0.11958 0.60353 0.92198 0.0
H1276 H 0.21577 0.53697 0.96801 0.0
H1277 H 0.10564 0.60884 0.90877 0.0
H1278 H 0.22318 0.57544 0.82625 0.0
H1279 H 0.32981 0.5821 0.92918 0.0
H1280 H 0.14158 0.58588 0.89423 0.0
H1281 H 0.10171 0.61976 0.95356 0.0
H1282 H 0.29008 0.60084 0.92274 0.0
H1283 H 0.21187 0.53937 0.01413 0.0
H1284 H 0.11765 0.61554 0.99776 0.0
H1285 H 0.14674 0.59627 0.02674 0.0
H1286 H 0.23736 0.54833 0.7927 0.0
H1287 H 0.1817 0.56715 0.03305 0.0
H1288 H 0.34651 0.55401 0.89756 0.0
N1289 N 0.25487 0.57096 0.84857 0.0
C1290 C 0.2777 0.56168 0.84989 0.0
C1291 C 0.24878 0.55175 0.8088 0.0
C1292 C 0.28666 0.54629 0.83096 0.0
C1293 C 0.24066 0.5669 0.82804 0.0
C1294 C 0.27182 0.5413 0.81032 0.0
N1295 N 0.28255 0.58177 0.88881 0.0
C1296 C 0.29622 0.58769 0.90931 0.0
C1297 C 0.3151 0.55656 0.87335 0.0
C1298 C 0.29182 0.56693 0.87081 0.0
C1299 C 0.32865 0.56179 0.89482 0.0
C1300 C 0.3192 0.57749 0.9128 0.0
H1301 H 0.27803 0.52955 0.79539 0.0
H1302 H 0.31708 0.52426 0.81903 0.0
H1303 H 0.34188 0.53309 0.85621 0.0
O1304 O 0.27539 0.61944 0.87135 0.0
O1305 O 0.23678 0.55883 0.88077 0.0
O1306 O 0.22903 0.54972 0.92084 0.0
O1307 O 0.24279 0.62284 0.84962 0.0
O1308 O 0.24778 0.6052 0.91918 0.0
O1309 O 0.22517 0.57679 0.94183 0.0
O1310 O 0.19023 0.53354 0.89668 0.0
O1311 O 0.18692 0.60312 0.90795 0.0
O1312 O 0.22412 0.6221 0.90468 0.0
O1313 O 0.16782 0.53827 0.92906 0.0
O1314 O 0.18419 0.57318 0.87821 0.0
O1315 O 0.2103 0.6024 0.86192 0.0
C1316 C 0.24196 0.5461 0.90086 0.0
C1317 C 0.26605 0.65788 0.8558 0.0
C1318 C 0.26895 0.69445 0.88099 0.0
C1319 C 0.27243 0.70801 0.859 0.0
C1320 C 0.26946 0.67158 0.83405 0.0
C1321 C 0.27253 0.69661 0.83567 0.0
C1322 C 0.26542 0.66938 0.87922 0.0
C1323 C 0.2419 0.59415 0.94023 0.0
C1324 C 0.26424 0.63153 0.85396 0.0
C1325 C 0.30993 0.53619 0.83334 0.0
C1326 C 0.32407 0.54124 0.85452 0.0
C1327 C 0.20106 0.62185 0.91182 0.0
C1328 C 0.17747 0.49786 0.91793 0.0
C1329 C 0.16275 0.45567 0.91965 0.0
C1330 C 0.18459 0.44921 0.9317 0.0
C1331 C 0.19897 0.49061 0.92976 0.0
C1332 C 0.1593 0.48035 0.91296 0.0
C1333 C 0.20244 0.46647 0.93661 0.0
C1334 C 0.19045 0.58944 0.86093 0.0
C1335 C 0.17388 0.52367 0.91101 0.0
H1336 H 0.27483 0.72747 0.85984 0.0
H1337 H 0.26996 0.66289 0.81587 0.0
H1338 H 0.27517 0.70718 0.81884 0.0
H1339 H 0.26288 0.65874 0.89608 0.0
H1340 H 0.18785 0.43076 0.93774 0.0
H1341 H 0.21306 0.50365 0.93379 0.0
H1342 H 0.14273 0.48591 0.90366 0.0
H1343 H 0.21906 0.46109 0.94589 0.0
C1344 C 0.57765 0.18186 0.31766 0.0
C1345 C 0.57902 0.17051 0.34123 0.0
C1346 C 0.58866 0.17152 0.29645 0.0
C1347 C 0.6145 0.11311 0.27168 0.0
H1348 H 0.64404 0.15493 0.22223 0.0
C1349 C 0.67433 0.07521 0.19063 0.0
C1350 C 0.67235 0.08606 0.16692 0.0
C1351 C 0.66257 0.08523 0.21155 0.0
C1352 C 0.63565 0.14293 0.23565 0.0
H1353 H 0.593 0.13886 0.36054 0.0
H1354 H 0.61215 0.1209 0.32381 0.0
H1355 H 0.62462 0.17264 0.25896 0.0
H1356 H 0.65617 0.11588 0.14653 0.0
H1357 H 0.63581 0.1336 0.18301 0.0
H1358 H 0.62574 0.0834 0.24847 0.0
C1359 C 0.60235 0.13778 0.32154 0.0
C1360 C 0.62442 0.15313 0.25685 0.0
C1361 C 0.59132 0.14815 0.34276 0.0
C1362 C 0.658 0.10704 0.16454 0.0
C1363 C 0.64653 0.11732 0.18556 0.0
C1364 C 0.6258 0.10292 0.25055 0.0
C1365 C 0.60139 0.14935 0.29799 0.0
C1366 C 0.61356 0.13842 0.27526 0.0
C1367 C 0.64866 0.10662 0.20947 0.0
C1368 C 0.63653 0.11763 0.23211 0.0
H1369 H 0.56822 0.19894 0.3156 0.0
H1370 H 0.587 0.1809 0.27874 0.0
H1371 H 0.60611 0.10103 0.28503 0.0
H1372 H 0.68516 0.05897 0.19303 0.0
H1373 H 0.66495 0.0765 0.22954 0.0
C1374 C 0.42525 0.66431 0.1767 0.0
C1375 C 0.44964 0.66846 0.17043 0.0
C1376 C 0.41899 0.65015 0.19744 0.0
C1377 C 0.44163 0.63113 0.25936 0.0
H1378 H 0.385 0.58973 0.25858 0.0
C1379 C 0.38662 0.60797 0.34844 0.0
C1380 C 0.37561 0.58515 0.35088 0.0
C1381 C 0.39941 0.61423 0.32678 0.0
C1382 C 0.40105 0.60094 0.25918 0.0
H1383 H 0.48665 0.66046 0.18106 0.0
H1384 H 0.47573 0.63579 0.21778 0.0
H1385 H 0.39995 0.60707 0.21951 0.0
H1386 H 0.3699 0.55073 0.3325 0.0
H1387 H 0.39224 0.56165 0.2943 0.0
H1388 H 0.44232 0.62553 0.29914 0.0
C1389 C 0.46141 0.6435 0.20638 0.0
C1390 C 0.40953 0.61111 0.23672 0.0
C1391 C 0.46771 0.65742 0.18519 0.0
C1392 C 0.37854 0.56828 0.33139 0.0
C1393 C 0.39106 0.57471 0.30937 0.0
C1394 C 0.433 0.62116 0.28187 0.0
C1395 C 0.43691 0.63988 0.21296 0.0
C1396 C 0.42969 0.62673 0.23649 0.0
C1397 C 0.4013 0.598 0.30655 0.0
C1398 C 0.4123 0.60624 0.28222 0.0
H1399 H 0.41084 0.67256 0.16579 0.0
H1400 H 0.39999 0.64812 0.2019 0.0
H1401 H 0.45709 0.64314 0.26007 0.0
H1402 H 0.38447 0.62147 0.36302 0.0
H1403 H 0.40671 0.63236 0.32538 0.0
C1404 C 0.94428 0.38997 0.3547 0.0
C1405 C 0.95634 0.36767 0.35142 0.0
C1406 C 0.93392 0.40237 0.3342 0.0
C1407 C 0.9315 0.40214 0.26281 0.0
H1408 H 0.87721 0.44526 0.27391 0.0
C1409 C 0.88841 0.45536 0.17933 0.0
C1410 C 0.86382 0.46213 0.1803 0.0
C1411 C 0.90023 0.44531 0.20033 0.0
C1412 C 0.89209 0.43304 0.27011 0.0
H1413 H 0.9682 0.34215 0.32339 0.0
H1414 H 0.94864 0.36202 0.28839 0.0
H1415 H 0.89556 0.42454 0.30902 0.0
H1416 H 0.8327 0.46387 0.20482 0.0
H1417 H 0.85248 0.44527 0.24055 0.0
H1418 H 0.927 0.40927 0.22377 0.0
C1419 C 0.9474 0.37059 0.30654 0.0
C1420 C 0.90313 0.42135 0.29066 0.0
C1421 C 0.95823 0.35861 0.32693 0.0
C1422 C 0.85161 0.45894 0.20317 0.0
C1423 C 0.86321 0.44833 0.22396 0.0
C1424 C 0.92013 0.41338 0.24223 0.0
C1425 C 0.93493 0.39278 0.30964 0.0
C1426 C 0.92313 0.40563 0.28752 0.0
C1427 C 0.88779 0.44115 0.22304 0.0
C1428 C 0.90018 0.42916 0.24535 0.0
H1429 H 0.94259 0.39778 0.37322 0.0
H1430 H 0.92521 0.4196 0.33779 0.0
H1431 H 0.94706 0.39076 0.25908 0.0
H1432 H 0.89859 0.4577 0.16221 0.0
H1433 H 0.91924 0.44089 0.19856 0.0
C1434 C 0.17064 0.92215 0.33834 0.0
C1435 C 0.17347 0.94684 0.34448 0.0
C1436 C 0.15734 0.91482 0.31738 0.0
C1437 C 0.13422 0.93528 0.25536 0.0
H1438 H 0.09927 0.87464 0.25907 0.0
C1439 C 0.10268 0.88267 0.16571 0.0
C1440 C 0.08259 0.86715 0.16726 0.0
C1441 C 0.11149 0.89477 0.1871 0.0
C1442 C 0.10862 0.89175 0.25747 0.0
H1443 H 0.16367 0.9832 0.3331 0.0
H1444 H 0.14002 0.97033 0.29611 0.0
H1445 H 0.11722 0.89156 0.29654 0.0
H1446 H 0.05498 0.85355 0.19209 0.0
H1447 H 0.06944 0.87526 0.22899 0.0
H1448 H 0.12526 0.93553 0.2162 0.0
C1449 C 0.14849 0.95663 0.30773 0.0
C1450 C 0.11929 0.9014 0.27916 0.0
C1451 C 0.16185 0.96406 0.32909 0.0
C1452 C 0.07071 0.86511 0.19036 0.0
C1453 C 0.07923 0.87749 0.21163 0.0
C1454 C 0.12346 0.92559 0.23354 0.0
C1455 C 0.14613 0.93181 0.30149 0.0
C1456 C 0.13266 0.92312 0.2785 0.0
C1457 C 0.10017 0.89211 0.21063 0.0
C1458 C 0.11069 0.90344 0.23411 0.0
H1459 H 0.17908 0.90818 0.34968 0.0
H1460 H 0.15647 0.89563 0.31329 0.0
H1461 H 0.14438 0.95195 0.2539 0.0
H1462 H 0.11228 0.88459 0.14818 0.0
H1463 H 0.12776 0.90549 0.18528 0.0
C1464 C 0.38457 0.94039 0.85503 0.0
C1465 C 0.36942 0.96068 0.85194 0.0
C1466 C 0.39727 0.93059 0.83458 0.0
C1467 C 0.4164 0.94266 0.76791 0.0
H1468 H 0.41765 0.8726 0.76427 0.0
C1469 C 0.46165 0.88757 0.68484 0.0
C1470 C 0.4487 0.867 0.67678 0.0
C1471 C 0.45442 0.90049 0.70652 0.0
C1472 C 0.41746 0.89221 0.76482 0.0
H1473 H 0.35712 0.98766 0.82545 0.0
H1474 H 0.37914 0.97072 0.78979 0.0
H1475 H 0.40077 0.89232 0.80089 0.0
H1476 H 0.41727 0.84478 0.68544 0.0
H1477 H 0.4051 0.86686 0.72204 0.0
H1478 H 0.43243 0.94229 0.73121 0.0
C1479 C 0.38129 0.96218 0.80789 0.0
C1480 C 0.40799 0.90361 0.78615 0.0
C1481 C 0.36845 0.97183 0.82832 0.0
C1482 C 0.4282 0.86018 0.69084 0.0
C1483 C 0.42113 0.87288 0.71223 0.0
C1484 C 0.42596 0.93118 0.74647 0.0
C1485 C 0.39545 0.94099 0.81049 0.0
C1486 C 0.40702 0.92904 0.78805 0.0
C1487 C 0.43418 0.89306 0.72075 0.0
C1488 C 0.42627 0.90574 0.7444 0.0
H1489 H 0.38585 0.9315 0.87306 0.0
H1490 H 0.4083 0.91462 0.83767 0.0
H1491 H 0.4163 0.96226 0.76863 0.0
H1492 H 0.47745 0.89351 0.67462 0.0
H1493 H 0.46497 0.91598 0.71243 0.0
C1494 C 0.57294 0.38255 0.83195 0.0
C1495 C 0.59071 0.37255 0.84784 0.0
C1496 C 0.57966 0.39581 0.81045 0.0
C1497 C 0.63169 0.42862 0.78087 0.0
H1498 H 0.60153 0.4112 0.71786 0.0
C1499 C 0.66326 0.4701 0.68544 0.0
C1500 C 0.66732 0.45286 0.66651 0.0
C1501 C 0.65081 0.46365 0.70752 0.0
C1502 C 0.61012 0.4164 0.73529 0.0
H1503 H 0.62942 0.36968 0.85411 0.0
H1504 H 0.64097 0.393 0.81744 0.0
H1505 H 0.58598 0.39435 0.75697 0.0
H1506 H 0.66057 0.41573 0.6555 0.0
H1507 H 0.63853 0.40478 0.69324 0.0
H1508 H 0.65622 0.45016 0.75915 0.0
C1509 C 0.62187 0.39061 0.82125 0.0
C1510 C 0.60103 0.40687 0.75781 0.0
C1511 C 0.61521 0.37708 0.84231 0.0
C1512 C 0.65766 0.4295 0.66966 0.0
C1513 C 0.64492 0.42322 0.69135 0.0
C1514 C 0.64059 0.43838 0.75839 0.0
C1515 C 0.60429 0.39984 0.80466 0.0
C1516 C 0.61201 0.41238 0.78094 0.0
C1517 C 0.64173 0.43997 0.71093 0.0
C1518 C 0.6303 0.43201 0.73516 0.0
H1519 H 0.55394 0.37922 0.8355 0.0
H1520 H 0.56558 0.40273 0.79822 0.0
H1521 H 0.64053 0.43351 0.79827 0.0
H1522 H 0.67076 0.48813 0.68376 0.0
H1523 H 0.64862 0.47711 0.72209 0.0
C1524 C 0.06687 0.67474 0.6869 0.0
C1525 C 0.07758 0.6717 0.6633 0.0
C1526 C 0.07675 0.66366 0.70829 0.0
C1527 C 0.12029 0.61578 0.73063 0.0
H1528 H 0.12053 0.65458 0.79107 0.0
C1529 C 0.15881 0.57999 0.82716 0.0
C1530 C 0.17325 0.59664 0.84041 0.0
C1531 C 0.14528 0.58748 0.80593 0.0
C1532 C 0.12072 0.6434 0.77441 0.0
H1533 H 0.10677 0.65388 0.64352 0.0
H1534 H 0.12435 0.63471 0.6809 0.0
H1535 H 0.10178 0.67044 0.75326 0.0
H1536 H 0.18384 0.63443 0.84207 0.0
H1537 H 0.16062 0.64722 0.80593 0.0
H1538 H 0.13991 0.58897 0.75191 0.0
C1539 C 0.10807 0.6455 0.68294 0.0
C1540 C 0.10966 0.65246 0.75263 0.0
C1541 C 0.09801 0.6565 0.66144 0.0
C1542 C 0.17307 0.62097 0.83239 0.0
C1543 C 0.15951 0.62842 0.81159 0.0
C1544 C 0.13132 0.60662 0.75257 0.0
C1545 C 0.09783 0.64922 0.70684 0.0
C1546 C 0.10934 0.63893 0.73026 0.0
C1547 C 0.14556 0.61187 0.79775 0.0
C1548 C 0.13198 0.62042 0.77477 0.0
H1549 H 0.05088 0.686 0.68889 0.0
H1550 H 0.0679 0.66664 0.72609 0.0
H1551 H 0.12028 0.60462 0.71396 0.0
H1552 H 0.15862 0.5611 0.83265 0.0
H1553 H 0.13464 0.57417 0.79591 0.0
C1554 C 0.87691 0.08398 0.68871 0.0
C1555 C 0.86121 0.0997 0.67558 0.0
C1556 C 0.89011 0.09227 0.70988 0.0
C1557 C 0.91097 0.15015 0.74054 0.0
H1558 H 0.91745 0.11188 0.80091 0.0
C1559 C 0.96137 0.18917 0.82712 0.0
C1560 C 0.9523 0.18383 0.85102 0.0
C1561 C 0.9529 0.17681 0.80579 0.0
C1562 C 0.91573 0.12296 0.78429 0.0
H1563 H 0.84786 0.13687 0.67476 0.0
H1564 H 0.87007 0.15068 0.71071 0.0
H1565 H 0.89812 0.09432 0.76381 0.0
H1566 H 0.92769 0.16066 0.87129 0.0
H1567 H 0.91234 0.13958 0.83422 0.0
H1568 H 0.92767 0.179 0.76085 0.0
C1569 C 0.8726 0.13206 0.70487 0.0
C1570 C 0.90487 0.11269 0.7628 0.0
C1571 C 0.85951 0.12388 0.68411 0.0
C1572 C 0.93514 0.16516 0.85315 0.0
C1573 C 0.92638 0.15299 0.83177 0.0
C1574 C 0.92177 0.16036 0.7619 0.0
C1575 C 0.8882 0.11656 0.71822 0.0
C1576 C 0.90193 0.12627 0.74064 0.0
C1577 C 0.93482 0.15882 0.80758 0.0
C1578 C 0.92417 0.14713 0.78434 0.0
H1579 H 0.87878 0.06528 0.68287 0.0
H1580 H 0.90199 0.07972 0.71954 0.0
H1581 H 0.90952 0.16122 0.72388 0.0
H1582 H 0.9748 0.20325 0.82485 0.0
H1583 H 0.96043 0.18164 0.78781 0.0
C1584 C 0.40191 0.14923 0.4059 0.0
C1585 C 0.42591 0.14162 0.41078 0.0
C1586 C 0.383 0.13251 0.40345 0.0
C1587 C 0.36689 0.06947 0.38862 0.0
H1588 H 0.31055 0.08196 0.42997 0.0
C1589 C 0.27347 1.0189 0.3789 0.0
C1590 C 0.2639 1.00973 0.40134 0.0
C1591 C 0.294 0.03399 0.37909 0.0
C1592 C 0.32612 0.07817 0.41829 0.0
H1593 H 0.44852 0.10969 0.41545 0.0
H1594 H 0.41548 0.08045 0.41019 0.0
H1595 H 0.34502 0.10962 0.43146 0.0
H1596 H 0.26762 1.01063 0.44169 0.0
H1597 H 0.30277 0.03738 0.44209 0.0
H1598 H 0.34757 0.03819 0.37511 0.0
C1599 C 0.41145 0.09961 0.40873 0.0
C1600 C 0.34587 0.09411 0.41906 0.0
C1601 C 0.43045 0.11645 0.41164 0.0
C1602 C 0.27471 1.01697 0.42401 0.0
C1603 C 0.29488 0.03236 0.42425 0.0
C1604 C 0.34683 0.05375 0.38745 0.0
C1605 C 0.38737 0.10748 0.4052 0.0
C1606 C 0.36658 0.09 0.40431 0.0
C1607 C 0.30495 0.04098 0.40181 0.0
C1608 C 0.32622 0.05785 0.40239 0.0
H1609 H 0.39753 0.16829 0.40418 0.0
H1610 H 0.36479 0.13923 0.40024 0.0
H1611 H 0.38247 0.06581 0.37694 0.0
H1612 H 0.26494 1.01457 0.3612 0.0
H1613 H 0.301 0.04064 0.36147 0.0
C1614 C 0.38811 0.40326 0.40685 0.0
C1615 C 0.39532 0.42564 0.41718 0.0
C1616 C 0.40461 0.38408 0.4039 0.0
C1617 C 0.47034 0.36812 0.401 0.0
H1618 H 0.44731 0.30392 0.41796 0.0
C1619 C 0.52657 0.27991 0.38115 0.0
C1620 C 0.52628 0.26143 0.39931 0.0
C1621 C 0.51129 0.30032 0.38303 0.0
C1622 C 0.45418 0.32169 0.41325 0.0
H1623 H 0.42632 0.44524 0.43159 0.0
H1624 H 0.45521 0.41183 0.42616 0.0
H1625 H 0.42019 0.33863 0.42169 0.0
H1626 H 0.50929 0.2507 0.43412 0.0
H1627 H 0.4827 0.28572 0.43725 0.0
H1628 H 0.50446 0.35104 0.39273 0.0
C1629 C 0.4366 0.40918 0.42039 0.0
C1630 C 0.43846 0.34168 0.41514 0.0
C1631 C 0.41998 0.42844 0.42347 0.0
C1632 C 0.5101 0.26417 0.41949 0.0
C1633 C 0.49466 0.2844 0.42129 0.0
C1634 C 0.48605 0.34803 0.39889 0.0
C1635 C 0.42906 0.38651 0.41098 0.0
C1636 C 0.44622 0.36526 0.40904 0.0
C1637 C 0.49498 0.30287 0.4031 0.0
C1638 C 0.47824 0.32446 0.40505 0.0
H1639 H 0.36952 0.40042 0.40108 0.0
H1640 H 0.39811 0.36724 0.39599 0.0
H1641 H 0.47703 0.38587 0.39597 0.0
H1642 H 0.53868 0.27882 0.36548 0.0
H1643 H 0.51205 0.31396 0.36849 0.0
C1644 C 0.10692 0.43154 0.41577 0.0
C1645 C 0.0973 0.42477 0.39241 0.0
C1646 C 0.12964 0.44303 0.41746 0.0
C1647 C 0.17458 0.47673 0.37738 0.0
H1648 H 0.21591 0.47064 0.43576 0.0
C1649 C 0.2721 0.517 0.38094 0.0
C1650 C 0.27869 0.52932 0.40293 0.0
C1651 C 0.25052 0.50355 0.37978 0.0
C1652 C 0.20452 0.47269 0.41936 0.0
H1653 H 0.10467 0.42363 0.35267 0.0
H1654 H 0.14437 0.44244 0.35556 0.0
H1655 H 0.17806 0.44801 0.4337 0.0
H1656 H 0.26827 0.53632 0.44127 0.0
H1657 H 0.23085 0.51279 0.4394 0.0
H1658 H 0.20135 0.50106 0.36291 0.0
C1659 C 0.13419 0.43992 0.37264 0.0
C1660 C 0.18264 0.45972 0.41818 0.0
C1661 C 0.11144 0.4288 0.37096 0.0
C1662 C 0.26366 0.52712 0.42401 0.0
C1663 C 0.2422 0.51357 0.42293 0.0
C1664 C 0.19657 0.48944 0.37844 0.0
C1665 C 0.14353 0.44783 0.39583 0.0
C1666 C 0.1672 0.4615 0.39717 0.0
C1667 C 0.23517 0.50171 0.40074 0.0
C1668 C 0.21187 0.4877 0.39947 0.0
H1669 H 0.09639 0.42895 0.43263 0.0
H1670 H 0.13584 0.44891 0.43569 0.0
H1671 H 0.16317 0.47927 0.36108 0.0
H1672 H 0.28363 0.51781 0.3646 0.0
H1673 H 0.24595 0.49441 0.36247 0.0
C1674 C 0.14441 0.12885 0.43789 0.0
C1675 C 0.14515 0.11036 0.41971 0.0
C1676 C 0.12837 0.1485 0.43569 0.0
C1677 C 0.07272 0.17114 0.40245 0.0
H1678 H 0.09719 0.23361 0.42368 0.0
C1679 C 1.01892 0.26185 0.38663 0.0
C1680 C 0.01981 0.27932 0.40586 0.0
C1681 C 0.03368 0.24097 0.38748 0.0
C1682 C 0.08984 0.21633 0.4179 0.0
H1683 H 0.12863 0.09799 0.38522 0.0
H1684 H 0.1006 0.13239 0.38124 0.0
H1685 H 0.12299 0.19798 0.42676 0.0
H1686 H 0.03719 0.28811 0.44112 0.0
H1687 H 0.06264 0.25205 0.44263 0.0
H1688 H 0.03952 0.18974 0.39349 0.0
C1689 C 0.11246 0.13158 0.39739 0.0
C1690 C 0.10473 0.19571 0.41971 0.0
C1691 C 0.12856 0.11175 0.39967 0.0
C1692 C 0.03597 0.27524 0.42587 0.0
C1693 C 0.05076 0.2545 0.42667 0.0
C1694 C 0.05778 0.19185 0.4006 0.0
C1695 C 0.11242 0.15056 0.41515 0.0
C1696 C 0.09641 0.17266 0.41229 0.0
C1697 C 0.04993 0.23696 0.4075 0.0
C1698 C 0.06602 0.21479 0.40853 0.0
H1699 H 0.15647 0.12824 0.4539 0.0
H1700 H 0.12855 0.16218 0.45021 0.0
H1701 H 0.06544 0.15381 0.3967 0.0
H1702 H 1.00661 0.2641 0.37103 0.0
H1703 H 0.03253 0.22809 0.37224 0.0
C1704 C 0.94124 0.9422 0.14157 0.0
C1705 C 0.95105 0.93095 0.12018 0.0
C1706 C 0.91818 0.95291 0.14105 0.0
C1707 C 0.86003 0.9562 0.10502 0.0
H1708 H 0.85251 1.01695 0.14066 0.0
C1709 C 0.77333 1.01621 0.09516 0.0
C1710 C 0.76485 0.02871 0.1164 0.0
C1711 C 0.79556 1.00373 0.09561 0.0
C1712 C 0.85407 0.99985 0.13086 0.0
H1713 H 0.9435 0.92159 0.08158 0.0
H1714 H 0.90317 0.94028 0.0806 0.0
H1715 H 0.89138 0.99606 0.14128 0.0
H1716 H 0.77343 0.03763 0.1549 0.0
H1717 H 0.81192 1.01574 0.15584 0.0
H1718 H 0.82266 0.96009 0.09457 0.0
C1719 C 0.91339 0.94072 0.09792 0.0
C1720 C 0.87651 0.98778 0.13121 0.0
C1721 C 0.93657 0.92993 0.09847 0.0
C1722 C 0.77926 0.02825 0.13817 0.0
C1723 C 0.80153 1.01579 0.13862 0.0
C1724 C 0.83754 0.96828 0.10469 0.0
C1725 C 0.904 0.9528 0.11911 0.0
C1726 C 0.87989 0.9657 0.11838 0.0
C1727 C 0.81011 1.00335 0.11732 0.0
C1728 C 0.83415 0.9903 0.11766 0.0
H1729 H 0.95154 0.94293 0.15884 0.0
H1730 H 0.91149 0.96136 0.15797 0.0
H1731 H 0.86169 0.93915 0.09515 0.0
H1732 H 0.76292 1.01623 0.07796 0.0
H1733 H 0.80155 0.99477 0.07869 0.0
C1734 C 0.5273 0.77045 0.1372 0.0
C1735 C 0.51353 0.76454 0.11594 0.0
C1736 C 0.54134 0.79166 0.13781 0.0
C1737 C 0.54849 0.8514 0.10453 0.0
H1738 H 0.60711 0.85548 0.14436 0.0
C1739 C 0.61144 0.93615 0.10254 0.0
C1740 C 0.61825 0.94524 0.12612 0.0
C1741 C 0.60025 0.91335 0.10037 0.0
C1742 C 0.59074 0.85468 0.13318 0.0
H1743 H 0.50505 0.77534 0.07798 0.0
H1744 H 0.52986 0.81174 0.07861 0.0
H1745 H 0.58495 0.81737 0.14232 0.0
H1746 H 0.61954 0.93702 0.16573 0.0
H1747 H 0.60069 0.89718 0.16191 0.0
H1748 H 0.55465 0.88869 0.09512 0.0
C1749 C 0.52924 0.8007 0.09533 0.0
C1750 C 0.57786 0.83278 0.13212 0.0
C1751 C 0.51517 0.77959 0.09481 0.0
C1752 C 0.61452 0.93055 0.14729 0.0
C1753 C 0.60376 0.90766 0.14509 0.0
C1754 C 0.56157 0.87318 0.10533 0.0
C1755 C 0.54227 0.8074 0.11699 0.0
C1756 C 0.55641 0.83074 0.11786 0.0
C1757 C 0.59602 0.89888 0.12167 0.0
C1758 C 0.58281 0.87521 0.11979 0.0
H1759 H 0.5269 0.75886 0.15354 0.0
H1760 H 0.55087 0.79601 0.15494 0.0
H1761 H 0.53184 0.851 0.0938 0.0
H1762 H 0.61387 0.94708 0.08591 0.0
H1763 H 0.59472 0.9071 0.08202 0.0
C1764 C 0.60822 0.62512 0.10269 0.0
C1765 C 0.61249 0.65002 0.10646 0.0
C1766 C 0.62695 0.60795 0.1057 0.0
C1767 C 0.69012 0.60056 0.13209 0.0
H1768 H 0.69172 0.54425 0.08887 0.0
C1769 C 0.76567 0.52752 0.14245 0.0
C1770 C 0.77367 0.51524 0.12098 0.0
C1771 C 0.74529 0.54282 0.1416 0.0
C1772 C 0.69182 0.55998 0.10097 0.0
H1773 H 0.64009 0.67586 0.11752 0.0
H1774 H 0.67251 0.64652 0.12157 0.0
H1775 H 0.65825 0.57282 0.08564 0.0
H1776 H 0.76695 0.51027 0.08137 0.0
H1777 H 0.73225 0.53765 0.07946 0.0
H1778 H 0.72423 0.58847 0.14655 0.0
C1779 C 0.65467 0.63996 0.11666 0.0
C1780 C 0.67224 0.57629 0.0994 0.0
C1781 C 0.63597 0.65702 0.11389 0.0
C1782 C 0.76116 0.51924 0.09838 0.0
C1783 C 0.74098 0.5348 0.09738 0.0
C1784 C 0.7098 0.58443 0.13346 0.0
C1785 C 0.65061 0.61509 0.1125 0.0
C1786 C 0.67108 0.59699 0.11483 0.0
C1787 C 0.73257 0.54684 0.11901 0.0
C1788 C 0.71111 0.56386 0.11787 0.0
H1789 H 0.59054 0.61886 0.09681 0.0
H1790 H 0.62277 0.58903 0.10269 0.0
H1791 H 0.68992 0.6159 0.14471 0.0
H1792 H 0.77549 0.52575 0.15987 0.0
H1793 H 0.73954 0.55142 0.15879 0.0
C1794 C 0.03202 0.74787 0.11192 0.0
C1795 C 0.02478 0.77222 0.11484 0.0
C1796 C 1.01499 0.72918 0.11068 0.0
C1797 C 0.9522 0.71274 0.12751 0.0
H1798 H 0.96189 0.66107 0.07936 0.0
C1799 C 0.88032 0.63745 0.11148 0.0
C1800 C 0.88791 0.61397 0.10456 0.0
C1801 C 0.89685 0.6566 0.1134 0.0
C1802 C 0.95902 0.67506 0.09324 0.0
H1803 H 0.99354 0.79576 0.11873 0.0
H1804 H 0.96362 0.76292 0.1168 0.0
H1805 H 0.99011 0.69483 0.08085 0.0
H1806 H 0.91946 0.59243 0.09501 0.0
H1807 H 0.94839 0.62553 0.0992 0.0
H1808 H 0.92136 0.69283 0.14023 0.0
C1809 C 0.98268 0.75842 0.11553 0.0
C1810 C 0.97522 0.6946 0.094 0.0
C1811 C 0.99982 0.77728 0.11653 0.0
C1812 C 0.91281 0.61013 0.10047 0.0
C1813 C 0.92943 0.62932 0.10252 0.0
C1814 C 0.93607 0.69309 0.1269 0.0
C1815 C 0.99006 0.73408 0.11247 0.0
C1816 C 0.97211 0.71372 0.11117 0.0
C1817 C 0.92168 0.65298 0.1087 0.0
C1818 C 0.9392 0.67387 0.10975 0.0
H1819 H 0.051 0.74309 0.11039 0.0
H1820 H 0.02146 0.71074 0.10864 0.0
H1821 H 0.94938 0.72692 0.14122 0.0
H1822 H 0.86142 0.64119 0.1153 0.0
H1823 H 0.88993 0.67442 0.11798 0.0
C1824 C 0.76378 0.02316 0.64091 0.0
C1825 C 0.7739 0.03178 0.61849 0.0
C1826 C 0.74335 1.0079 0.64059 0.0
C1827 C 0.71204 0.96283 0.60136 0.0
H1828 H 0.65506 0.97567 0.6416 0.0
C1829 C 0.63564 0.89215 0.61193 0.0
C1830 C 0.61167 0.89994 0.60718 0.0
C1831 C 0.65463 0.90874 0.61474 0.0
C1832 C 0.67082 0.97186 0.63022 0.0
H1833 H 0.77139 0.02949 0.57813 0.0
H1834 H 0.73639 1.00262 0.57749 0.0
H1835 H 0.68999 1.0032 0.6438 0.0
H1836 H 0.5892 0.93203 0.60317 0.0
H1837 H 0.62236 0.96105 0.60897 0.0
H1838 H 0.69324 0.93139 0.58804 0.0
C1839 C 0.74373 1.00819 0.59541 0.0
C1840 C 0.6909 0.98754 0.63162 0.0
C1841 C 0.76381 0.02369 0.59577 0.0
C1842 C 0.60724 0.92514 0.60684 0.0
C1843 C 0.62632 0.94185 0.61008 0.0
C1844 C 0.69224 0.94696 0.60034 0.0
C1845 C 0.73304 1.00019 0.61779 0.0
C1846 C 0.71176 0.98329 0.61708 0.0
C1847 C 0.65039 0.93384 0.61347 0.0
C1848 C 0.67129 0.95122 0.61468 0.0
H1849 H 0.77176 0.02811 0.65871 0.0
H1850 H 0.73591 1.00173 0.6582 0.0
H1851 H 0.72778 0.95889 0.58998 0.0
H1852 H 0.63993 0.87304 0.61323 0.0
H1853 H 0.67279 0.90187 0.61786 0.0
C1854 C 0.65581 0.63904 0.60513 0.0
C1855 C 0.64731 0.61592 0.59813 0.0
C1856 C 0.63993 0.65873 0.60805 0.0
C1857 C 0.57656 0.67946 0.59242 0.0
H1858 H 0.59397 0.73266 0.63615 0.0
C1859 C 0.52271 0.76994 0.58983 0.0
C1860 C 0.51966 0.78312 0.6121 0.0
C1861 C 0.53827 0.74979 0.58887 0.0
C1862 C 0.58849 0.71795 0.62403 0.0
H1863 H 0.61466 0.59573 0.58971 0.0
H1864 H 0.58691 0.62961 0.59605 0.0
H1865 H 0.61924 0.69672 0.63488 0.0
H1866 H 0.53225 0.78675 0.65025 0.0
H1867 H 0.55884 0.75129 0.64904 0.0
H1868 H 0.54511 0.7002 0.58258 0.0
C1869 C 0.60611 0.63278 0.59844 0.0
C1870 C 0.60338 0.69726 0.62294 0.0
C1871 C 0.6221 0.61307 0.59518 0.0
C1872 C 0.5337 0.77654 0.633 0.0
C1873 C 0.54923 0.75629 0.63213 0.0
C1874 C 0.56147 0.7 0.59379 0.0
C1875 C 0.61476 0.65611 0.60459 0.0
C1876 C 0.59793 0.67772 0.60685 0.0
C1877 C 0.55147 0.74222 0.61015 0.0
C1878 C 0.5673 0.71982 0.60936 0.0
H1879 H 0.67493 0.64213 0.60825 0.0
H1880 H 0.64769 0.6762 0.61245 0.0
H1881 H 0.57157 0.66516 0.57957 0.0
H1882 H 0.51253 0.77484 0.57325 0.0
H1883 H 0.53989 0.74019 0.57129 0.0
C1884 C 0.92838 0.61435 0.60085 0.0
C1885 C 0.9392 0.61869 0.62428 0.0
C1886 C 0.9056 0.60305 0.59918 0.0
C1887 C 0.8502 0.58765 0.63586 0.0
H1888 H 0.8435 0.53543 0.58791 0.0
C1889 C 0.76768 0.52168 0.63712 0.0
C1890 C 0.75955 0.51214 0.61422 0.0
C1891 C 0.78888 0.53573 0.63832 0.0
C1892 C 0.84477 0.5502 0.60118 0.0
H1893 H 0.93394 0.61558 0.66431 0.0
H1894 H 0.89434 0.5963 0.66145 0.0
H1895 H 0.88079 0.55884 0.58924 0.0
H1896 H 0.76615 0.5118 0.57437 0.0
H1897 H 0.80261 0.53631 0.57619 0.0
H1898 H 0.81413 0.5792 0.6477 0.0
C1899 C 0.90337 0.60145 0.64431 0.0
C1900 C 0.8663 0.56367 0.60194 0.0
C1901 C 0.92619 0.61243 0.64595 0.0
C1902 C 0.77233 0.51816 0.59241 0.0
C1903 C 0.79342 0.53218 0.59353 0.0
C1904 C 0.82856 0.57432 0.63496 0.0
C1905 C 0.89291 0.59612 0.62091 0.0
C1906 C 0.8694 0.58255 0.61935 0.0
C1907 C 0.80233 0.54093 0.61654 0.0
C1908 C 0.82547 0.55531 0.61763 0.0
H1909 H 0.93795 0.61879 0.5838 0.0
H1910 H 0.89802 0.59951 0.58083 0.0
H1911 H 0.85178 0.60219 0.64938 0.0
H1912 H 0.75773 0.51812 0.65415 0.0
H1913 H 0.79497 0.54202 0.65645 0.0
C1914 C 0.9176 0.93549 0.60147 0.0
C1915 C 0.89372 0.9326 0.61016 0.0
C1916 C 0.9346 0.91642 0.60326 0.0
C1917 C 0.94636 0.8567 0.63526 0.0
H1918 H 0.98881 0.84484 0.57894 0.0
C1919 C 1.00991 0.77436 0.59145 0.0
C1920 C 0.02123 0.76528 0.6132 0.0
C1921 C 0.99592 0.79566 0.59208 0.0
C1922 C 0.97704 0.84774 0.59484 0.0
H1923 H 0.86965 0.90742 0.62872 0.0
H1924 H 0.89885 0.87447 0.63158 0.0
H1925 H 0.96191 0.87999 0.57857 0.0
H1926 H 0.02669 0.77209 0.65274 0.0
H1927 H 1.00227 0.80921 0.6539 0.0
H1928 H 0.96105 0.82411 0.65123 0.0
C1929 C 0.90464 0.89142 0.62338 0.0
C1930 C 0.96174 0.8682 0.59476 0.0
C1931 C 0.8877 0.91036 0.62149 0.0
C1932 C 1.01819 0.77834 0.63563 0.0
C1933 C 1.00404 0.79965 0.6363 0.0
C1934 C 0.96173 0.8363 0.63538 0.0
C1935 C 0.92832 0.89393 0.61402 0.0
C1936 C 0.9459 0.87291 0.61484 0.0
C1937 C 0.99265 0.80869 0.6145 0.0
C1938 C 0.97714 0.83128 0.61504 0.0
H1939 H 0.92297 0.95224 0.59254 0.0
H1940 H 0.95269 0.9193 0.5961 0.0
H1941 H 0.93476 0.85972 0.65127 0.0
H1942 H 1.01184 0.76504 0.57375 0.0
H1943 H 0.98729 0.80166 0.57494 0.0
C1944 C 0.10123 0.12063 0.92124 0.0
C1945 C 0.09018 0.12402 0.89773 0.0
C1946 C 0.12439 0.11002 0.92318 0.0
C1947 C 0.17997 0.09426 0.88637 0.0
H1948 H 0.1884 0.04404 0.93632 0.0
C1949 C 0.27072 0.0398 0.89878 0.0
C1950 C 0.2681 1.01461 0.90176 0.0
C1951 C 0.25036 0.05529 0.89969 0.0
C1952 C 0.18641 0.05801 0.92224 0.0
H1953 H 0.09558 0.12 0.85777 0.0
H1954 H 0.13566 0.10166 0.86111 0.0
H1955 H 0.15088 0.06748 0.93515 0.0
H1956 H 0.2418 0.98619 0.90861 0.0
H1957 H 0.20686 1.01288 0.91018 0.0
H1958 H 0.21533 0.08431 0.87309 0.0
C1959 C 0.12653 0.1071 0.87813 0.0
C1960 C 0.16491 0.07168 0.92174 0.0
C1961 C 0.10337 0.11746 0.87621 0.0
C1962 C 0.24468 1.00544 0.90603 0.0
C1963 C 0.22452 1.02083 0.90719 0.0
C1964 C 0.20158 0.0807 0.887 0.0
C1965 C 0.13726 0.1028 0.90164 0.0
C1966 C 0.16116 0.08975 0.90353 0.0
C1967 C 0.22695 0.04599 0.90397 0.0
C1968 C 0.20494 0.06206 0.90466 0.0
H1969 H 0.09161 0.12535 0.9382 0.0
H1970 H 0.13212 0.10726 0.94162 0.0
H1971 H 0.17792 0.10818 0.87224 0.0
H1972 H 0.28843 0.04753 0.89552 0.0
H1973 H 0.25298 0.07458 0.89727 0.0
C1974 C 0.42771 0.11154 0.87439 0.0
C1975 C 0.42251 0.09826 0.89621 0.0
C1976 C 0.43804 0.1347 0.8758 0.0
C1977 C 0.47699 0.17213 0.91601 0.0
H1978 H 0.45541 0.2255 0.8743 0.0
C1979 C 0.52194 0.26647 0.9243 0.0
C1980 C 0.52479 0.2805 0.90259 0.0
C1981 C 0.50798 0.2453 0.92401 0.0
C1982 C 0.46201 0.21078 0.88585 0.0
H1983 H 0.42384 0.09918 0.93667 0.0
H1984 H 0.4423 0.13959 0.93919 0.0
H1985 H 0.43387 0.18698 0.87299 0.0
H1986 H 0.51344 0.28443 0.86405 0.0
H1987 H 0.48965 0.24713 0.86307 0.0
H1988 H 0.5057 0.19529 0.92816 0.0
C1989 C 0.43821 0.13205 0.92095 0.0
C1990 C 0.44948 0.18865 0.8852 0.0
C1991 C 0.42743 0.10901 0.91954 0.0
C1992 C 0.51216 0.2736 0.88089 0.0
C1993 C 0.49821 0.25231 0.88051 0.0
C1994 C 0.48976 0.1941 0.91639 0.0
C1995 C 0.44389 0.14512 0.89906 0.0
C1996 C 0.45674 0.16902 0.90032 0.0
C1997 C 0.49624 0.23749 0.90197 0.0
C1998 C 0.48247 0.21391 0.9014 0.0
H1999 H 0.42417 0.10377 0.85613 0.0
H2000 H 0.44227 0.14409 0.85856 0.0
H2001 H 0.4834 0.15731 0.92757 0.0
H2002 H 0.53105 0.27154 0.94146 0.0
H2003 H 0.50645 0.23508 0.9412 0.0
C2004 C 0.40298 0.38883 0.9081 0.0
C2005 C 0.42662 0.39665 0.91395 0.0
C2006 C 0.3838 0.40533 0.90525 0.0
C2007 C 0.36585 0.46987 0.91913 0.0
H2008 H 0.31057 0.45281 0.87802 0.0
C2009 C 0.27665 0.52599 0.92334 0.0
C2010 C 0.26239 0.52832 0.90164 0.0
C2011 C 0.29672 0.51029 0.92395 0.0
C2012 C 0.32588 0.45821 0.88938 0.0
H2013 H 0.44834 0.42873 0.92031 0.0
H2014 H 0.41525 0.45758 0.9141 0.0
H2015 H 0.34573 0.4265 0.87888 0.0
H2016 H 0.25704 0.51467 0.86413 0.0
H2017 H 0.29237 0.48793 0.86465 0.0
H2018 H 0.34643 0.50223 0.9286 0.0
C2019 C 0.41131 0.43844 0.91258 0.0
C2020 C 0.34612 0.44272 0.89025 0.0
C2021 C 0.43054 0.42182 0.91576 0.0
C2022 C 0.26803 0.51371 0.88092 0.0
C2023 C 0.28821 0.49808 0.88142 0.0
C2024 C 0.34573 0.48556 0.91796 0.0
C2025 C 0.38746 0.43049 0.9076 0.0
C2026 C 0.3664 0.44802 0.90544 0.0
C2027 C 0.30316 0.49628 0.90286 0.0
C2028 C 0.32518 0.47988 0.90335 0.0
H2029 H 0.39907 0.36974 0.9059 0.0
H2030 H 0.36591 0.3981 0.90179 0.0
H2031 H 0.38078 0.47477 0.93127 0.0
H2032 H 0.27259 0.53677 0.93977 0.0
H2033 H 0.30709 0.50912 0.94112 0.0
C2034 C 0.15124 0.41272 0.90786 0.0
C2035 C 0.14404 0.43639 0.91455 0.0
C2036 C 0.13431 0.39397 0.90525 0.0
C2037 C 0.07102 0.37667 0.92306 0.0
H2038 H 0.08175 0.32435 0.87589 0.0
C2039 C 0.99873 0.30229 0.9052 0.0
C2040 C 1.00644 0.27807 0.90226 0.0
C2041 C 1.01539 0.32142 0.90605 0.0
C2042 C 0.07855 0.33865 0.88938 0.0
H2043 H 0.1127 0.45868 0.92289 0.0
H2044 H 0.08307 0.42622 0.91763 0.0
H2045 H 0.10998 0.35819 0.87756 0.0
H2046 H 0.03821 0.25536 0.89766 0.0
H2047 H 0.06734 0.28877 0.89902 0.0
H2048 H 0.03945 0.35717 0.93468 0.0
C2049 C 0.10205 0.422 0.91497 0.0
C2050 C 0.09484 0.35819 0.89038 0.0
C2051 C 0.11908 0.44082 0.91766 0.0
C2052 C 0.03149 0.27369 0.8999 0.0
C2053 C 0.04822 0.29293 0.90058 0.0
C2054 C 0.05467 0.35721 0.92194 0.0
C2055 C 0.1094 0.39813 0.90903 0.0
C2056 C 0.09144 0.37756 0.90731 0.0
C2057 C 0.04044 0.31712 0.90386 0.0
C2058 C 0.05816 0.33783 0.90512 0.0
H2059 H 0.17017 0.4085 0.90482 0.0
H2060 H 0.14097 0.376 0.9009 0.0
H2061 H 0.06784 0.3908 0.93673 0.0
H2062 H 0.97968 0.30661 0.90715 0.0
H2063 H 1.00853 0.3397 0.90822 0.0
C2064 C 0.70436 0.2099 0.40396 0.0
C2065 C 0.70698 0.22155 0.38075 0.0
C2066 C 0.7196 0.21575 0.424 0.0
C2067 C 0.76638 0.25994 0.44472 0.0
H2068 H 0.80181 0.20256 0.46541 0.0
C2069 C 0.86508 0.25129 0.43499 0.0
C2070 C 0.87959 0.23592 0.4498 0.0
C2071 C 0.84079 0.25488 0.44047 0.0
C2072 C 0.7918 0.21886 0.46073 0.0
H2073 H 0.72655 0.24925 0.36058 0.0
H2074 H 0.75352 0.25907 0.39519 0.0
H2075 H 0.76156 0.19841 0.44757 0.0
H2076 H 0.87961 0.21327 0.4831 0.0
H2077 H 0.83644 0.21852 0.49175 0.0
H2078 H 0.79758 0.28015 0.45588 0.0
C2079 C 0.73954 0.24567 0.39818 0.0
C2080 C 0.76867 0.21647 0.45038 0.0
C2081 C 0.72443 0.23976 0.37818 0.0
C2082 C 0.86908 0.22497 0.47099 0.0
C2083 C 0.84441 0.22819 0.47619 0.0
C2084 C 0.78947 0.26232 0.45506 0.0
C2085 C 0.7376 0.23344 0.42118 0.0
C2086 C 0.75668 0.23682 0.4404 0.0
C2087 C 0.82992 0.24271 0.46052 0.0
C2088 C 0.80315 0.2416 0.46112 0.0
H2089 H 0.69106 0.19573 0.40629 0.0
H2090 H 0.7178 0.20607 0.44148 0.0
H2091 H 0.75713 0.276 0.43795 0.0
H2092 H 0.87183 0.25941 0.418 0.0
H2093 H 0.83009 0.26564 0.42754 0.0
C2094 C 0.29789 0.6924 0.44376 0.0
C2095 C 0.31327 0.70211 0.42534 0.0
C2096 C 0.2957 0.70357 0.46706 0.0
C2097 C 0.30946 0.76383 0.49753 0.0
H2098 H 0.24029 0.76863 0.48727 0.0
C2099 C 0.27178 0.83949 0.44766 0.0
C2100 C 0.24719 0.83871 0.44101 0.0
C2101 C 0.28024 0.82628 0.46812 0.0
C2102 C 0.25951 0.76797 0.49116 0.0
H2103 H 0.34138 0.7287 0.41878 0.0
H2104 H 0.33553 0.74979 0.45792 0.0
H2105 H 0.25944 0.73053 0.48316 0.0
H2106 H 0.2116 0.82751 0.45309 0.0
H2107 H 0.22601 0.80621 0.49014 0.0
H2108 H 0.30923 0.80204 0.50424 0.0
C2109 C 0.32551 0.73323 0.45491 0.0
C2110 C 0.27074 0.74554 0.48883 0.0
C2111 C 0.32841 0.72149 0.43197 0.0
C2112 C 0.23074 0.82788 0.45747 0.0
C2113 C 0.23912 0.81549 0.47859 0.0
C2114 C 0.29811 0.7864 0.50016 0.0
C2115 C 0.30756 0.7256 0.47185 0.0
C2116 C 0.29617 0.74385 0.48872 0.0
C2117 C 0.2642 0.81207 0.48237 0.0
C2118 C 0.27342 0.78913 0.49385 0.0
H2119 H 0.28611 0.67725 0.43976 0.0
H2120 H 0.28257 0.69645 0.48014 0.0
H2121 H 0.32899 0.76282 0.49926 0.0
H2122 H 0.28491 0.84806 0.43554 0.0
H2123 H 0.29966 0.82493 0.47045 0.0
C2124 C 0.33983 0.75682 0.08777 0.0
C2125 C 0.33364 0.76854 0.11024 0.0
C2126 C 0.32555 0.76001 0.06634 0.0
C2127 C 0.27142 0.79386 0.04237 0.0
H2128 H 0.246 0.72918 0.03315 0.0
C2129 C 0.18185 0.77084 0.07367 0.0
C2130 C 0.17085 0.74836 0.06871 0.0
C2131 C 0.20146 0.77866 0.05975 0.0
C2132 C 0.25288 0.74748 0.03448 0.0
H2133 H 0.30976 0.79501 0.1272 0.0
H2134 H 0.2848 0.80046 0.09028 0.0
H2135 H 0.28777 0.73431 0.04509 0.0
H2136 H 0.17003 0.71834 0.04238 0.0
H2137 H 0.20542 0.73152 0.01882 0.0
H2138 H 0.23589 0.80689 0.03382 0.0
C2139 C 0.30051 0.78874 0.0889 0.0
C2140 C 0.27708 0.75042 0.04139 0.0
C2141 C 0.31452 0.78529 0.11028 0.0
C2142 C 0.17862 0.73521 0.04758 0.0
C2143 C 0.19873 0.74292 0.0338 0.0
C2144 C 0.24726 0.79092 0.03535 0.0
C2145 C 0.30516 0.77531 0.06702 0.0
C2146 C 0.28574 0.77348 0.04794 0.0
C2147 C 0.2113 0.764 0.04081 0.0
C2148 C 0.23714 0.76758 0.03408 0.0
H2149 H 0.3548 0.74416 0.08712 0.0
H2150 H 0.32961 0.7495 0.04974 0.0
H2151 H 0.27798 0.81195 0.04629 0.0
H2152 H 0.17709 0.7817 0.08976 0.0
H2153 H 0.21049 0.79494 0.06606 0.0
C2154 C 0.81297 0.34335 0.11763 0.0
C2155 C 0.79837 0.33979 0.13884 0.0
C2156 C 0.80958 0.32929 0.09617 0.0
C2157 C 0.77071 0.28001 0.06945 0.0
H2158 H 0.83284 0.24825 0.06124 0.0
C2159 C 0.78485 0.18314 0.09035 0.0
C2160 C 0.80493 0.16993 0.08155 0.0
C2161 C 0.77975 0.2062 0.08122 0.0
C2162 C 0.8153 0.25701 0.06242 0.0
H2163 H 0.76751 0.32033 0.15348 0.0
H2164 H 0.76226 0.29506 0.11673 0.0
H2165 H 0.83146 0.28963 0.07538 0.0
H2166 H 0.83468 0.17086 0.05495 0.0
H2167 H 0.82572 0.21109 0.03916 0.0
H2168 H 0.75463 0.24635 0.05866 0.0
C2169 C 0.77606 0.30894 0.11627 0.0
C2170 C 0.81451 0.28097 0.07058 0.0
C2171 C 0.77941 0.32302 0.13764 0.0
C2172 C 0.81901 0.18015 0.0623 0.0
C2173 C 0.81387 0.20331 0.05312 0.0
C2174 C 0.77151 0.25598 0.06137 0.0
C2175 C 0.79163 0.31132 0.0956 0.0
C2176 C 0.79219 0.29183 0.0765 0.0
C2177 C 0.7948 0.21699 0.06327 0.0
C2178 C 0.7938 0.24364 0.06011 0.0
H2179 H 0.82771 0.35623 0.11802 0.0
H2180 H 0.8218 0.33159 0.08055 0.0
H2181 H 0.75324 0.28834 0.07286 0.0
H2182 H 0.77396 0.17663 0.10568 0.0
H2183 H 0.76524 0.21633 0.09001 0.0
C2184 C 0.1766 0.81592 0.56151 0.0
C2185 C 0.16561 0.80177 0.58022 0.0
C2186 C 0.19807 0.80823 0.55009 0.0
C2187 C 0.24185 0.75644 0.54785 0.0
H2188 H 0.28875 0.8066 0.56214 0.0
C2189 C 0.3193 0.74397 0.6121 0.0
C2190 C 0.33826 0.76079 0.61274 0.0
C2191 C 0.30278 0.74414 0.59238 0.0
C2192 C 0.27618 0.79236 0.55716 0.0
H2193 H 0.17004 0.76922 0.60256 0.0
H2194 H 0.20658 0.75581 0.5828 0.0
H2195 H 0.247 0.81762 0.55514 0.0
H2196 H 0.35691 0.78851 0.59154 0.0
H2197 H 0.32815 0.78866 0.55689 0.0
H2198 H 0.27095 0.73102 0.55186 0.0
C2199 C 0.19802 0.77217 0.57581 0.0
C2200 C 0.25209 0.79876 0.5531 0.0
C2201 C 0.17681 0.77989 0.58721 0.0
C2202 C 0.34223 0.77561 0.59176 0.0
C2203 C 0.32575 0.7757 0.5719 0.0
C2204 C 0.26604 0.75003 0.55173 0.0
C2205 C 0.20917 0.78642 0.55746 0.0
C2206 C 0.23444 0.7807 0.55051 0.0
C2207 C 0.30494 0.76117 0.57293 0.0
C2208 C 0.28302 0.76781 0.55844 0.0
H2209 H 0.16906 0.8332 0.55597 0.0
H2210 H 0.20649 0.81977 0.53625 0.0
H2211 H 0.22862 0.74222 0.54517 0.0
H2212 H 0.31629 0.73176 0.62765 0.0
H2213 H 0.28702 0.7326 0.59383 0.0
C2214 C 0.76965 0.20535 0.56698 0.0
C2215 C 0.79221 0.20702 0.57889 0.0
C2216 C 0.76537 0.21775 0.54463 0.0
C2217 C 0.79088 0.27439 0.51835 0.0
H2218 H 0.72267 0.27865 0.50245 0.0
C2219 C 0.74847 0.34948 0.56068 0.0
C2220 C 0.7325 0.33884 0.57798 0.0
C2221 C 0.75247 0.33869 0.53737 0.0
C2222 C 0.74192 0.27787 0.50636 0.0
H2223 H 0.82902 0.21933 0.57504 0.0
H2224 H 0.82258 0.2388 0.53483 0.0
H2225 H 0.74252 0.23931 0.50321 0.0
H2226 H 0.70455 0.31163 0.58207 0.0
H2227 H 0.71281 0.29177 0.54289 0.0
H2228 H 0.79037 0.31252 0.52242 0.0
C2229 C 0.80736 0.22985 0.54345 0.0
C2230 C 0.75329 0.25518 0.50725 0.0
C2231 C 0.81128 0.21843 0.56643 0.0
C2232 C 0.71808 0.31944 0.56989 0.0
C2233 C 0.72245 0.30837 0.54688 0.0
C2234 C 0.7796 0.29696 0.51722 0.0
C2235 C 0.78373 0.23188 0.53348 0.0
C2236 C 0.7769 0.25307 0.51723 0.0
C2237 C 0.74138 0.31649 0.53137 0.0
C2238 C 0.75422 0.29845 0.51527 0.0
H2239 H 0.75465 0.19635 0.57607 0.0
H2240 H 0.74692 0.21801 0.53783 0.0
H2241 H 0.80969 0.27423 0.52392 0.0
H2242 H 0.75956 0.36485 0.56579 0.0
H2243 H 0.76633 0.34622 0.5254 0.0
C2244 C 0.84228 0.26483 0.95676 0.0
C2245 C 0.85222 0.28762 0.96253 0.0
C2246 C 0.82382 0.2551 0.97131 0.0
C2247 C 0.77277 0.28201 1.00164 0.0
H2248 H 0.75007 0.21676 0.98962 0.0
C2249 C 0.69089 0.27442 0.94472 0.0
C2250 C 0.6988 0.26304 0.92264 0.0
C2251 C 0.70243 0.26947 0.96753 0.0
C2252 C 0.75595 0.23505 0.99373 0.0
H2253 H 0.85221 0.31629 0.99047 0.0
H2254 H 0.81995 0.29938 0.01553 0.0
H2255 H 0.79261 0.22356 0.99954 0.0
H2256 H 0.72225 0.23518 0.90757 0.0
H2257 H 0.74283 0.2271 0.94663 0.0
H2258 H 0.73707 0.2939 0.99311 0.0
C2259 C 0.82629 0.28927 0.99945 0.0
C2260 C 0.78037 0.23895 0.9993 0.0
C2261 C 0.84473 0.29911 0.9848 0.0
C2262 C 0.71636 0.24473 0.9242 0.0
C2263 C 0.72781 0.23976 0.94687 0.0
C2264 C 0.74846 0.27811 0.99591 0.0
C2265 C 0.81452 0.26795 0.99192 0.0
C2266 C 0.78943 0.26272 1.00031 0.0
C2267 C 0.72209 0.25317 0.96852 0.0
C2268 C 0.74065 0.25491 0.98868 0.0
H2269 H 0.8471 0.25525 0.93983 0.0
H2270 H 0.81519 0.23871 0.96465 0.0
H2271 H 0.77882 0.30059 1.00315 0.0
H2272 H 0.67704 0.28837 0.94408 0.0
H2273 H 0.69729 0.27983 0.98391 0.0
C2274 C 0.22473 0.86546 0.96199 0.0
C2275 C 0.24016 0.87244 0.94229 0.0
C2276 C 0.22957 0.84438 0.97576 0.0
C2277 C 0.27443 0.79378 0.98211 0.0
H2278 H 0.22064 0.75476 0.95919 0.0
C2279 C 0.28684 0.72373 0.91125 0.0
C2280 C 0.26901 0.70656 0.90565 0.0
C2281 C 0.28501 0.7379 0.93271 0.0
C2282 C 0.23572 0.76496 0.9667 0.0
H2283 H 0.27419 0.86348 0.9237 0.0
H2284 H 0.28277 0.82832 0.94792 0.0
H2285 H 0.21406 0.79696 0.96884 0.0
H2286 H 0.23656 0.68907 0.91906 0.0
H2287 H 0.23333 0.71385 0.95694 0.0
H2288 H 0.29639 0.76206 0.97832 0.0
C2289 C 0.26689 0.83887 0.95285 0.0
C2290 C 0.23189 0.78937 0.97223 0.0
C2291 C 0.26182 0.85935 0.93874 0.0
C2292 C 0.25048 0.70227 0.92303 0.0
C2293 C 0.24862 0.71648 0.94462 0.0
C2294 C 0.27816 0.76927 0.97704 0.0
C2295 C 0.25016 0.8303 0.97041 0.0
C2296 C 0.2517 0.80445 0.97752 0.0
C2297 C 0.26523 0.73527 0.94908 0.0
C2298 C 0.25939 0.75539 0.96655 0.0
H2299 H 0.20835 0.87554 0.96603 0.0
H2300 H 0.21649 0.83828 0.98945 0.0
H2301 H 0.28987 0.80491 0.98699 0.0
H2302 H 0.30161 0.72701 0.89839 0.0
H2303 H 0.29809 0.75228 0.93517 0.0
C2304 C 0.65093 0.18983 0.44094 0.0
C2305 C 0.6331 0.17628 0.42838 0.0
C2306 C 0.67002 0.1783 0.45381 0.0
C2307 C 0.68826 0.12113 0.48448 0.0
H2308 H 0.75377 0.14415 0.47482 0.0
C2309 C 0.76933 0.07649 0.53802 0.0
C2310 C 0.78726 0.09237 0.54689 0.0
C2311 C 0.75183 0.08448 0.5205 0.0
C2312 C 0.73563 0.13756 0.47816 0.0
H2313 H 0.62262 0.1398 0.41831 0.0
H2314 H 0.65527 0.11969 0.44142 0.0
H2315 H 0.72047 0.16305 0.45207 0.0
H2316 H 0.80157 0.12852 0.54312 0.0
H2317 H 0.77166 0.14248 0.51331 0.0
H2318 H 0.70312 0.09621 0.51125 0.0
C2319 C 0.65421 0.13929 0.44171 0.0
C2320 C 0.71645 0.14849 0.46495 0.0
C2321 C 0.63527 0.15085 0.42866 0.0
C2322 C 0.78822 0.11574 0.53652 0.0
C2323 C 0.77085 0.12376 0.51925 0.0
C2324 C 0.70741 0.11041 0.49804 0.0
C2325 C 0.67194 0.15285 0.45442 0.0
C2326 C 0.69245 0.1406 0.46806 0.0
C2327 C 0.7518 0.10858 0.51144 0.0
C2328 C 0.73148 0.11857 0.49534 0.0
H2329 H 0.65009 0.2094 0.441 0.0
H2330 H 0.68315 0.18934 0.46362 0.0
H2331 H 0.67 0.11463 0.48744 0.0
H2332 H 0.76772 0.05854 0.54591 0.0
H2333 H 0.73786 0.07194 0.51474 0.0
C2334 C 0.46252 0.77684 0.53681 0.0
C2335 C 0.44688 0.79279 0.5495 0.0
C2336 C 0.45315 0.75912 0.52038 0.0
C2337 C 0.39596 0.72474 0.51092 0.0
H2338 H 0.42548 0.70145 0.44978 0.0
C2339 C 0.34755 0.65318 0.44939 0.0
C2340 C 0.36133 0.63595 0.4363 0.0
C2341 C 0.35863 0.67257 0.46194 0.0
C2342 C 0.41709 0.70744 0.467 0.0
H2343 H 0.40944 0.80371 0.55347 0.0
H2344 H 0.39329 0.77384 0.52448 0.0
H2345 H 0.44391 0.73516 0.4726 0.0
H2346 H 0.39783 0.62635 0.4255 0.0
H2347 H 0.41736 0.65965 0.44781 0.0
H2348 H 0.36952 0.69696 0.50595 0.0
C2349 C 0.41269 0.77435 0.52753 0.0
C2350 C 0.42769 0.72693 0.48007 0.0
C2351 C 0.422 0.79183 0.54389 0.0
C2352 C 0.38663 0.63893 0.4358 0.0
C2353 C 0.39781 0.65838 0.44834 0.0
C2354 C 0.38551 0.70524 0.49804 0.0
C2355 C 0.42793 0.75701 0.51632 0.0
C2356 C 0.41715 0.73604 0.50214 0.0
C2357 C 0.38399 0.67555 0.46176 0.0
C2358 C 0.39572 0.69628 0.47571 0.0
H2359 H 0.48169 0.77676 0.54109 0.0
H2360 H 0.46551 0.74613 0.51213 0.0
H2361 H 0.38754 0.73072 0.52815 0.0
H2362 H 0.32811 0.6515 0.45028 0.0
H2363 H 0.34714 0.68532 0.47169 0.0
C2364 C 0.8856 0.35246 0.436 0.0
C2365 C 0.90649 0.36567 0.42985 0.0
C2366 C 0.8657 0.36366 0.44764 0.0
C2367 C 0.83814 0.42426 0.46375 0.0
H2368 H 0.80466 0.38649 0.51391 0.0
C2369 C 0.76799 0.46525 0.53532 0.0
C2370 C 0.74907 0.45013 0.54329 0.0
C2371 C 0.78599 0.45645 0.51889 0.0
C2372 C 0.81347 0.39731 0.49972 0.0
H2373 H 0.9222 0.40154 0.43082 0.0
H2374 H 0.88796 0.42097 0.45156 0.0
H2375 H 0.83786 0.3684 0.4908 0.0
H2376 H 0.73337 0.41461 0.53875 0.0
H2377 H 0.76379 0.39959 0.5098 0.0
H2378 H 0.81378 0.45336 0.47319 0.0
C2379 C 0.88671 0.4019 0.44706 0.0
C2380 C 0.83267 0.38683 0.48633 0.0
C2381 C 0.90658 0.39065 0.4353 0.0
C2382 C 0.74765 0.42673 0.53303 0.0
C2383 C 0.7654 0.41799 0.51664 0.0
C2384 C 0.81889 0.43481 0.47726 0.0
C2385 C 0.86602 0.38851 0.45381 0.0
C2386 C 0.84532 0.40002 0.46799 0.0
C2387 C 0.78544 0.43232 0.51004 0.0
C2388 C 0.80612 0.42145 0.49538 0.0
H2389 H 0.88489 0.33318 0.43289 0.0
H2390 H 0.85011 0.35263 0.45206 0.0
H2391 H 0.84714 0.43507 0.44969 0.0
H2392 H 0.76994 0.48317 0.54316 0.0
H2393 H 0.80108 0.46811 0.51436 0.0
C2394 C 0.076 0.76474 0.5338 0.0
C2395 C 0.09209 0.75269 0.55016 0.0
C2396 C 0.08452 0.78266 0.51719 0.0
C2397 C 0.13275 0.82754 0.51331 0.0
H2398 H 0.12371 0.83002 0.44144 0.0
C2399 C 0.19323 0.88616 0.44929 0.0
C2400 C 0.18144 0.90159 0.43221 0.0
C2401 C 0.18022 0.86868 0.46272 0.0
C2402 C 0.12627 0.82964 0.46154 0.0
H2403 H 0.13002 0.74893 0.56033 0.0
H2404 H 0.1445 0.78011 0.53207 0.0
H2405 H 0.10402 0.79788 0.46604 0.0
H2406 H 0.14721 0.90861 0.41373 0.0
H2407 H 0.12467 0.87729 0.43633 0.0
H2408 H 0.15555 0.85863 0.50906 0.0
C2409 C 0.12532 0.77607 0.53228 0.0
C2410 C 0.11494 0.81128 0.4756 0.0
C2411 C 0.11694 0.75814 0.54852 0.0
C2412 C 0.15666 0.8977 0.42745 0.0
C2413 C 0.14379 0.87957 0.44021 0.0
C2414 C 0.14438 0.84552 0.49935 0.0
C2415 C 0.10923 0.78898 0.5168 0.0
C2416 C 0.11858 0.80971 0.50162 0.0
C2417 C 0.15533 0.86513 0.45841 0.0
C2418 C 0.14164 0.84663 0.47321 0.0
H2419 H 0.05677 0.76105 0.53453 0.0
H2420 H 0.07169 0.79226 0.50543 0.0
H2421 H 0.1348 0.8274 0.53341 0.0
H2422 H 0.21244 0.88789 0.45271 0.0
H2423 H 0.18971 0.85781 0.4765 0.0
C2424 C 0.28406 0.91793 0.96675 0.0
C2425 C 0.28427 0.9427 0.96061 0.0
C2426 C 0.26712 0.90862 0.98367 0.0
C2427 C 0.20597 0.92221 0.01007 0.0
H2428 H 0.22072 0.8678 0.0534 0.0
C2429 C 0.1353 0.88425 0.08063 0.0
C2430 C 0.13419 0.859 0.08381 0.0
C2431 C 0.15405 0.89491 0.06672 0.0
C2432 C 0.21613 0.88285 0.04126 0.0
H2433 H 0.26705 0.97723 0.96798 0.0
H2434 H 0.23722 0.96102 0.99737 0.0
H2435 H 0.25269 0.88579 0.02832 0.0
H2436 H 0.15247 0.82519 0.07511 0.0
H2437 H 0.18501 0.84361 0.05107 0.0
H2438 H 0.16936 0.91916 0.02298 0.0
C2439 C 0.25015 0.94867 0.98903 0.0
C2440 C 0.23459 0.89325 0.02679 0.0
C2441 C 0.26748 0.95809 0.97241 0.0
C2442 C 0.15273 0.84473 0.07323 0.0
C2443 C 0.1715 0.85535 0.05939 0.0
C2444 C 0.18752 0.91185 0.0246 0.0
C2445 C 0.2494 0.92366 0.99459 0.0
C2446 C 0.22984 0.9131 0.01088 0.0
C2447 C 0.1724 0.88063 0.05573 0.0
C2448 C 0.19226 0.89195 0.04042 0.0
H2449 H 0.29678 0.90556 0.95803 0.0
H2450 H 0.26739 0.88935 0.98738 0.0
H2451 H 0.2013 0.93706 0.99771 0.0
H2452 H 0.12176 0.89587 0.08905 0.0
H2453 H 0.15427 0.91444 0.06484 0.0
C2454 C 0.65106 0.13653 0.08385 0.0
C2455 C 0.6764 0.13584 0.0867 0.0
C2456 C 0.63952 0.15625 0.07213 0.0
C2457 C 0.64986 0.22041 0.05076 0.0
H2458 H 0.59441 0.20791 1.00804 0.0
C2459 C 0.617 0.28773 0.97477 0.0
C2460 C 0.59214 0.28978 0.96917 0.0
C2461 C 0.62549 0.27092 0.99235 0.0
C2462 C 0.60962 0.21186 0.0202 0.0
H2463 H 0.70942 0.15546 0.07889 0.0
H2464 H 0.68956 0.18966 0.05856 0.0
H2465 H 0.61282 0.17477 0.03161 0.0
H2466 H 0.55661 0.27622 0.97846 0.0
H2467 H 0.5714 0.24663 1.00946 0.0
H2468 H 0.64704 0.25739 0.03873 0.0
C2469 C 0.67836 0.17528 0.0659 0.0
C2470 C 0.62026 0.19276 0.03381 0.0
C2471 C 0.68986 0.15559 0.07771 0.0
C2472 C 0.5758 0.27531 0.98257 0.0
C2473 C 0.58436 0.25813 1.00007 0.0
C2474 C 0.63931 0.23946 0.03705 0.0
C2475 C 0.65297 0.17591 0.06272 0.0
C2476 C 0.64077 0.19662 0.04912 0.0
C2477 C 0.60942 0.25534 1.00481 0.0
C2478 C 0.61918 0.23546 0.02132 0.0
H2479 H 0.64008 0.12179 0.09075 0.0
H2480 H 0.61997 0.15607 0.07057 0.0
H2481 H 0.66522 0.22443 0.06268 0.0
H2482 H 0.63011 0.29842 0.96455 0.0
H2483 H 0.64487 0.26928 0.99514 0.0
C2484 C 0.25896 0.59017 0.98477 0.0
C2485 C 0.25469 0.60384 0.96296 0.0
C2486 C 0.27366 0.59952 1.00427 0.0
C2487 C 0.30158 0.65777 0.02767 0.0
H2488 H 0.3514 0.61607 0.05532 0.0
C2489 C 0.37814 0.69522 0.09325 0.0
C2490 C 0.40156 0.68587 0.08907 0.0
C2491 C 0.35768 0.68466 0.08172 0.0
C2492 C 0.33766 0.62808 0.04776 0.0
H2493 H 0.26234 0.63848 0.94524 0.0
H2494 H 0.2869 0.65437 0.9785 0.0
H2495 H 0.31988 0.5988 0.02873 0.0
H2496 H 0.42121 0.658 0.06912 0.0
H2497 H 0.38643 0.63985 0.04941 0.0
H2498 H 0.31995 0.68722 0.04568 0.0
C2499 C 0.279 0.6366 0.98102 0.0
C2500 C 0.3193 0.61803 0.03274 0.0
C2501 C 0.26478 0.62728 0.96169 0.0
C2502 C 0.40373 0.66557 0.0733 0.0
C2503 C 0.38349 0.65501 0.06192 0.0
C2504 C 0.31994 0.66782 0.04267 0.0
C2505 C 0.28404 0.62289 1.00253 0.0
C2506 C 0.30132 0.6328 0.02185 0.0
C2507 C 0.36006 0.66432 0.06582 0.0
C2508 C 0.3387 0.65325 0.05242 0.0
H2509 H 0.25178 0.57202 0.98638 0.0
H2510 H 0.27706 0.58838 0.02058 0.0
H2511 H 0.28786 0.66977 0.02006 0.0
H2512 H 0.37561 0.71062 0.10552 0.0
H2513 H 0.33999 0.69237 0.08544 0.0
C2514 C 0.84134 0.39261 0.08002 0.0
C2515 C 0.85428 0.40718 0.09689 0.0
C2516 C 0.85323 0.3749 0.06564 0.0
C2517 C 0.90968 0.33772 0.06128 0.0
H2518 H 0.89153 0.33238 0.99143 0.0
C2519 C 0.95617 0.27923 0.97987 0.0
C2520 C 0.93955 0.26294 0.96907 0.0
C2521 C 0.94837 0.29655 0.99757 0.0
C2522 C 0.89657 0.33352 0.01097 0.0
H2523 H 0.88974 0.41353 0.11296 0.0
H2524 H 0.91053 0.38277 0.08794 0.0
H2525 H 0.87153 0.36246 0.01793 0.0
H2526 H 0.90221 0.251 0.96991 0.0
H2527 H 0.88903 0.28058 1.0009 0.0
H2528 H 0.93456 0.30833 0.054 0.0
C2529 C 0.89117 0.38507 0.08561 0.0
C2530 C 0.88513 0.35074 0.02621 0.0
C2531 C 0.87928 0.40291 0.09979 0.0
C2532 C 0.91543 0.26348 0.97744 0.0
C2533 C 0.90777 0.28054 0.99508 0.0
C2534 C 0.92102 0.32029 0.04597 0.0
C2535 C 0.8784 0.37104 0.06799 0.0
C2536 C 0.89125 0.35293 0.05171 0.0
C2537 C 0.92388 0.29777 1.00476 0.0
C2538 C 0.91423 0.31775 0.02074 0.0
H2539 H 0.82214 0.39536 0.07734 0.0
H2540 H 0.84266 0.36426 0.05258 0.0
H2541 H 0.91489 0.33882 0.0808 0.0
H2542 H 0.97484 0.27939 0.97376 0.0
H2543 H 0.96122 0.30959 1.00482 0.0
C2544 C 0.40072 0.88091 0.58701 0.0
C2545 C 0.40203 0.85573 0.59094 0.0
C2546 C 0.38133 0.89167 0.57411 0.0
C2547 C 0.32821 0.87721 0.53188 0.0
H2548 H 0.31296 0.94489 0.54383 0.0
C2549 C 0.2466 0.92463 0.48313 0.0
C2550 C 0.25122 0.94689 0.4713 0.0
C2551 C 0.26331 0.91425 0.49987 0.0
C2552 C 0.31704 0.92602 0.54011 0.0
H2553 H 0.38249 0.82232 0.58515 0.0
H2554 H 0.34788 0.84099 0.56368 0.0
H2555 H 0.34379 0.92482 0.56908 0.0
H2556 H 0.27698 0.97619 0.46883 0.0
H2557 H 0.30578 0.95875 0.49906 0.0
H2558 H 0.30072 0.87848 0.50333 0.0
C2559 C 0.36257 0.85255 0.56974 0.0
C2560 C 0.33498 0.91437 0.55457 0.0
C2561 C 0.38238 0.84172 0.58241 0.0
C2562 C 0.27239 0.95942 0.47812 0.0
C2563 C 0.2891 0.94916 0.49521 0.0
C2564 C 0.30996 0.88879 0.51772 0.0
C2565 C 0.36179 0.87781 0.56505 0.0
C2566 C 0.34126 0.88979 0.55054 0.0
C2567 C 0.28522 0.92596 0.50563 0.0
C2568 C 0.30424 0.91347 0.52141 0.0
H2569 H 0.41487 0.89255 0.59373 0.0
H2570 H 0.38215 0.91099 0.57084 0.0
H2571 H 0.33242 0.85849 0.52765 0.0
H2572 H 0.2305 0.91458 0.47839 0.0
H2573 H 0.25933 0.89666 0.5078 0.0
C2574 C 0.65228 0.40225 0.57863 0.0
C2575 C 0.67761 0.40489 0.57779 0.0
C2576 C 0.64067 0.38321 0.56589 0.0
C2577 C 0.65289 0.32247 0.53751 0.0
H2578 H 0.59297 0.33347 0.5012 0.0
C2579 C 0.61969 0.25707 0.46088 0.0
C2580 C 0.59485 0.25245 0.45781 0.0
C2581 C 0.62795 0.27429 0.47805 0.0
C2582 C 0.60951 0.32994 0.51155 0.0
H2583 H 0.71052 0.38882 0.56331 0.0
H2584 H 0.69054 0.35616 0.54083 0.0
H2585 H 0.61095 0.36638 0.52567 0.0
H2586 H 0.55907 0.2621 0.47094 0.0
H2587 H 0.5735 0.29249 0.50135 0.0
H2588 H 0.6518 0.28627 0.52314 0.0
C2589 C 0.6795 0.36861 0.55157 0.0
C2590 C 0.61987 0.34888 0.5256 0.0
C2591 C 0.69103 0.38757 0.56433 0.0
C2592 C 0.57835 0.26508 0.47304 0.0
C2593 C 0.58664 0.28268 0.49022 0.0
C2594 C 0.64262 0.30364 0.52348 0.0
C2595 C 0.65412 0.36605 0.55214 0.0
C2596 C 0.642 0.34555 0.53844 0.0
C2597 C 0.61161 0.28768 0.49278 0.0
C2598 C 0.62099 0.30716 0.50989 0.0
H2599 H 0.64142 0.41467 0.58949 0.0
H2600 H 0.62116 0.38174 0.56719 0.0
H2601 H 0.66949 0.31888 0.54765 0.0
H2602 H 0.63287 0.24761 0.44961 0.0
H2603 H 0.64723 0.27768 0.47912 0.0
C2604 C 0.27545 0.57825 0.48426 0.0
C2605 C 0.28807 0.59486 0.46916 0.0
C2606 C 0.25732 0.58643 0.50105 0.0
C2607 C 0.21393 0.6372 0.50635 0.0
H2608 H 0.20368 0.6188 0.5755 0.0
C2609 C 0.12637 0.6641 0.55831 0.0
C2610 C 0.12846 0.67435 0.58238 0.0
C2611 C 0.14619 0.65299 0.54659 0.0
C2612 C 0.20635 0.62417 0.55621 0.0
H2613 H 0.29241 0.63318 0.46145 0.0
H2614 H 0.26176 0.64708 0.4903 0.0
H2615 H 0.23793 0.60134 0.55195 0.0
H2616 H 0.15319 0.67962 0.61337 0.0
H2617 H 0.18809 0.66019 0.5928 0.0
H2618 H 0.18259 0.65985 0.51024 0.0
C2619 C 0.26532 0.62779 0.48907 0.0
C2620 C 0.22585 0.61398 0.54266 0.0
C2621 C 0.28322 0.61974 0.47261 0.0
C2622 C 0.151 0.67247 0.59467 0.0
C2623 C 0.17093 0.66102 0.58297 0.0
C2624 C 0.19437 0.64702 0.51967 0.0
C2625 C 0.25146 0.61133 0.50295 0.0
C2626 C 0.23004 0.62057 0.51756 0.0
C2627 C 0.16889 0.65145 0.55854 0.0
C2628 C 0.19025 0.64079 0.54484 0.0
H2629 H 0.27855 0.55899 0.48208 0.0
H2630 H 0.24704 0.57321 0.51152 0.0
H2631 H 0.2164 0.64264 0.48704 0.0
H2632 H 0.10944 0.66515 0.54808 0.0
H2633 H 0.14371 0.64563 0.52797 0.0
C2634 C 0.84197 0.15713 0.56942 0.0
C2635 C 0.85481 0.14059 0.58454 0.0
C2636 C 0.85415 0.17526 0.55603 0.0
C2637 C 0.91365 0.19384 0.53096 0.0
H2638 H 0.88599 0.25843 0.53269 0.0
C2639 C 0.96063 0.27581 0.48162 0.0
C2640 C 0.9451 0.29204 0.4691 0.0
C2641 C 0.95112 0.25801 0.49775 0.0
C2642 C 0.89395 0.24051 0.53167 0.0
H2643 H 0.89044 0.13176 0.5988 0.0
H2644 H 0.91167 0.16338 0.57562 0.0
H2645 H 0.86636 0.22573 0.55514 0.0
H2646 H 0.90761 0.30285 0.46443 0.0
H2647 H 0.89124 0.27251 0.49228 0.0
H2648 H 0.9409 0.20849 0.50676 0.0
C2649 C 0.89225 0.1617 0.57338 0.0
C2650 C 0.88258 0.22167 0.54464 0.0
C2651 C 0.88007 0.14342 0.5866 0.0
C2652 C 0.92012 0.29078 0.47395 0.0
C2653 C 0.9107 0.27328 0.49008 0.0
C2654 C 0.92492 0.21268 0.51764 0.0
C2655 C 0.87943 0.17795 0.55794 0.0
C2656 C 0.89211 0.19802 0.54437 0.0
C2657 C 0.92591 0.25622 0.50191 0.0
C2658 C 0.91512 0.23633 0.5176 0.0
H2659 H 0.8225 0.15592 0.56763 0.0
H2660 H 0.84381 0.18703 0.54381 0.0
H2661 H 0.92144 0.17582 0.5302 0.0
H2662 H 0.97992 0.27611 0.47803 0.0
H2663 H 0.96352 0.24547 0.5067 0.0
C2664 C 0.88834 0.19227 0.95255 0.0
C2665 C 0.90542 0.18084 0.93697 0.0
C2666 C 0.87108 0.17879 0.96562 0.0
C2667 C 0.8342 0.12485 0.96595 0.0
H2668 H 0.83189 0.13359 0.03782 0.0
C2669 C 0.76587 0.07889 0.03814 0.0
C2670 C 0.75437 0.09605 0.05367 0.0
C2671 C 0.78457 0.08597 0.02174 0.0
C2672 C 0.83212 0.13139 0.01772 0.0
H2673 H 0.917 0.14617 0.92219 0.0
H2674 H 0.88612 0.12248 0.94467 0.0
H2675 H 0.86401 0.15311 0.01358 0.0
H2676 H 0.75251 0.13437 0.06266 0.0
H2677 H 0.78493 0.14638 0.03468 0.0
H2678 H 0.80142 0.10408 0.97023 0.0
C2679 C 0.88656 0.14196 0.94699 0.0
C2680 C 0.85062 0.14226 1.00387 0.0
C2681 C 0.9043 0.15549 0.93426 0.0
C2682 C 0.7612 0.1205 0.05145 0.0
C2683 C 0.77986 0.12746 0.0354 0.0
C2684 C 0.81529 0.11432 0.97988 0.0
C2685 C 0.86994 0.15348 0.96307 0.0
C2686 C 0.85166 0.13955 0.97775 0.0
C2687 C 0.7922 0.11028 0.02077 0.0
C2688 C 0.81369 0.11813 1.00588 0.0
H2689 H 0.88854 0.21173 0.95501 0.0
H2690 H 0.85844 0.18822 0.97771 0.0
H2691 H 0.83455 0.12242 0.94584 0.0
H2692 H 0.76117 0.0599 0.03939 0.0
H2693 H 0.79371 0.07233 0.01064 0.0
C2694 C 0.36885 0.91315 0.95798 0.0
C2695 C 0.3634 0.91077 0.93237 0.0
C2696 C 0.37984 0.89417 0.97134 0.0
C2697 C 0.4148 0.83632 0.96472 0.0
H2698 H 0.39028 0.82421 0.0314 0.0
C2699 C 0.45877 0.76769 0.03696 0.0
C2700 C 0.4426 0.75526 0.05265 0.0
C2701 C 0.45014 0.78546 0.02005 0.0
C2702 C 0.39733 0.82714 0.01276 0.0
H2703 H 0.36624 0.88666 0.90059 0.0
H2704 H 0.38508 0.85328 0.92392 0.0
H2705 H 0.37353 0.8573 1.00681 0.0
H2706 H 0.40461 0.7505 0.06148 0.0
H2707 H 0.38974 0.7806 0.03203 0.0
H2708 H 0.43852 0.8058 0.97084 0.0
C2709 C 0.38086 0.86993 0.93372 0.0
C2710 C 0.38785 0.84643 0.99869 0.0
C2711 C 0.3697 0.88897 0.92036 0.0
C2712 C 0.41764 0.75984 0.04983 0.0
C2713 C 0.40909 0.77737 0.03307 0.0
C2714 C 0.42446 0.81703 0.97896 0.0
C2715 C 0.38581 0.87211 0.95954 0.0
C2716 C 0.39635 0.85137 0.97441 0.0
C2717 C 0.42518 0.79112 0.01852 0.0
C2718 C 0.41571 0.81201 1.00315 0.0
H2719 H 0.36394 0.92952 0.96793 0.0
H2720 H 0.38359 0.89681 0.99106 0.0
H2721 H 0.42199 0.83961 0.9462 0.0
H2722 H 0.4781 0.76479 0.03884 0.0
H2723 H 0.46311 0.79561 1.00915 0.0
C2724 C 0.77262 0.45507 0.04371 0.0
C2725 C 0.78157 0.44115 0.06381 0.0
C2726 C 0.75608 0.44495 0.02634 0.0
C2727 C 0.71116 0.39463 0.02252 0.0
H2728 H 0.71024 0.40671 0.95109 0.0
C2729 C 0.63081 0.36369 0.96096 0.0
C2730 C 0.63534 0.3544 0.93697 0.0
C2731 C 0.64923 0.37453 0.97508 0.0
C2732 C 0.71033 0.403 0.97099 0.0
H2733 H 0.78163 0.40514 0.07981 0.0
H2734 H 0.75347 0.38779 0.05021 0.0
H2735 H 0.74148 0.42563 0.97743 0.0
H2736 H 0.66319 0.34834 0.90927 0.0
H2737 H 0.69581 0.36714 0.93411 0.0
H2738 H 0.68041 0.3719 0.01636 0.0
C2739 C 0.75833 0.40667 0.04807 0.0
C2740 C 0.72811 0.4141 0.98615 0.0
C2741 C 0.77462 0.4167 0.06519 0.0
C2742 C 0.6591 0.35554 0.92764 0.0
C2743 C 0.67771 0.36652 0.94181 0.0
C2744 C 0.69343 0.38372 1.00749 0.0
C2745 C 0.7482 0.42071 0.02873 0.0
C2746 C 0.72889 0.40993 0.01217 0.0
C2747 C 0.67302 0.37625 0.96579 0.0
C2748 C 0.69264 0.38768 0.98147 0.0
H2749 H 0.77755 0.47397 0.04202 0.0
H2750 H 0.74876 0.45637 0.01167 0.0
H2751 H 0.71082 0.39114 0.04246 0.0
H2752 H 0.61298 0.3622 0.96904 0.0
H2753 H 0.64469 0.3818 0.99331 0.0
C2754 C 0.10678 0.79046 0.03272 0.0
C2755 C 0.09671 0.78175 0.05507 0.0
C2756 C 0.11733 0.77437 0.01539 0.0
C2757 C 0.12018 0.70888 0.99732 0.0
H2758 H 0.1814 0.72604 0.96677 0.0
C2759 C 0.16538 0.64873 0.92138 0.0
C2760 C 0.19012 0.64335 0.92459 0.0
C2761 C 0.15392 0.66656 0.93591 0.0
C2762 C 0.1643 0.72096 0.97512 0.0
H2763 H 0.08978 0.74958 0.0769 0.0
H2764 H 0.1077 0.72151 0.04673 0.0
H2765 H 0.16064 0.75518 0.99391 0.0
H2766 H 0.2223 0.65331 0.94522 0.0
H2767 H 0.20249 0.68482 0.97034 0.0
H2768 H 0.12379 0.67471 0.97848 0.0
C2769 C 0.10725 0.74062 0.04219 0.0
C2770 C 0.15224 0.73778 0.99053 0.0
C2771 C 0.09693 0.7567 0.05953 0.0
C2772 C 0.20334 0.6571 0.94203 0.0
C2773 C 0.19194 0.67517 0.95646 0.0
C2774 C 0.13198 0.69228 0.98155 0.0
C2775 C 0.11793 0.74918 0.01997 0.0
C2776 C 0.13013 0.73189 1.00217 0.0
C2777 C 0.16695 0.67988 0.9539 0.0
C2778 C 0.15429 0.69797 0.97035 0.0
H2779 H 0.10725 0.80976 0.02908 0.0
H2780 H 0.12517 0.7817 0.99847 0.0
H2781 H 0.10311 0.70368 1.00563 0.0
H2782 H 0.15476 0.63897 0.90768 0.0
H2783 H 0.13476 0.66988 0.93308 0.0
loop_
_geom_bond_atom_site_label_1
_geom_bond_atom_site_label_2
_geom_bond_distance
_geom_bond_site_symmetry_2
_ccdc_geom_bond_type
Tb0 N29 2.617 . S
Tb0 N35 2.572 . S
Tb0 O44 2.465 . S
Tb0 O45 2.387 . S
Tb0 O47 2.428 . S
Tb0 O48 2.308 . S
Tb0 O52 2.349 . S
Tb0 O55 2.393 . S
Tb0 C64 2.802 . S
C1 N2 1.379 . S
C1 C4 1.416 . S
C1 C8 1.424 . S
N2 C1 1.379 . S
N2 C5 1.334 . S
N2 Tb11 2.617 . S
C3 C5 1.390 . S
C3 C6 1.339 . S
C3 H23 0.930 . S
C4 C1 1.416 . S
C4 C6 1.416 . S
C4 C10 1.448 . S
C5 N2 1.334 . S
C5 C3 1.390 . S
C5 H16 0.930 . S
C6 C3 1.339 . S
C6 C4 1.416 . S
C6 H27 0.930 . S
C7 C8 1.413 . S
C7 C9 1.427 . S
C7 C13 1.416 . S
C8 C1 1.424 . S
C8 C7 1.413 . S
C8 N12 1.361 . S
C9 C7 1.427 . S
C9 C10 1.328 . S
C9 H24 0.929 . S
C10 C4 1.448 . S
C10 C9 1.328 . S
C10 H25 0.930 . S
Tb11 N2 2.617 . S
Tb11 N12 2.572 . S
Tb11 O46 2.349 . S
Tb11 O49 2.393 . S
Tb11 O50 2.465 . S
Tb11 O51 2.387 . S
Tb11 O53 2.428 . S
Tb11 O54 2.308 . S
Tb11 C75 2.802 . S
N12 C8 1.361 . S
N12 Tb11 2.572 . S
N12 C14 1.340 . S
C13 C7 1.416 . S
C13 C15 1.332 . S
C13 H21 0.931 . S
C14 N12 1.340 . S
C14 C15 1.407 . S
C14 H20 0.930 . S
C15 C13 1.332 . S
C15 C14 1.407 . S
C15 H17 0.929 . S
H16 C5 0.930 . S
H17 C15 0.929 . S
H18 C33 0.930 . S
H19 C40 0.929 . S
H20 C14 0.930 . S
H21 C13 0.931 . S
H22 C36 0.930 . S
H23 C3 0.930 . S
H24 C9 0.929 . S
H25 C10 0.930 . S
H26 C31 0.930 . S
H27 C6 0.930 . S
H28 C39 0.931 . S
N29 Tb0 2.617 . S
N29 C30 1.379 . S
N29 C33 1.334 . S
C30 N29 1.379 . S
C30 C32 1.416 . S
C30 C38 1.424 . S
C31 H26 0.930 . S
C31 C33 1.390 . S
C31 C34 1.339 . S
C32 C30 1.416 . S
C32 C34 1.416 . S
C32 C65 1.448 . S
C33 H18 0.930 . S
C33 N29 1.334 . S
C33 C31 1.390 . S
C34 C31 1.339 . S
C34 C32 1.416 . S
C34 H41 0.930 . S
N35 Tb0 2.572 . S
N35 C36 1.340 . S
N35 C38 1.361 . S
C36 H22 0.930 . S
C36 N35 1.340 . S
C36 C40 1.407 . S
C37 C38 1.413 . S
C37 C39 1.416 . S
C37 C66 1.427 . S
C38 C30 1.424 . S
C38 N35 1.361 . S
C38 C37 1.413 . S
C39 H28 0.931 . S
C39 C37 1.416 . S
C39 C40 1.332 . S
C40 H19 0.929 . S
C40 C36 1.407 . S
C40 C39 1.332 . S
H41 C34 0.930 . S
H42 C65 0.930 . S
H43 C66 0.929 . S
O44 Tb0 2.465 . S
O44 C64 1.264 . S
O45 Tb0 2.387 . S
O45 C56 1.264 . S
O46 Tb11 2.349 . S
O46 C56 1.243 . S
O47 Tb0 2.428 . S
O47 C64 1.256 . S
O48 Tb0 2.308 . S
O48 C63 1.266 . S
O49 Tb11 2.393 . S
O49 C63 1.248 . S
O50 Tb11 2.465 . S
O50 C75 1.264 . S
O51 Tb11 2.387 . S
O51 C67 1.264 . S
O52 Tb0 2.349 . S
O52 C67 1.243 . S
O53 Tb11 2.428 . S
O53 C75 1.256 . S
O54 Tb11 2.308 . S
O54 C74 1.266 . S
O55 Tb0 2.393 . S
O55 C74 1.248 . S
C56 O45 1.264 . S
C56 O46 1.243 . S
C57 C60 1.399 . S
C57 C62 1.383 . S
C57 C64 1.496 . S
C58 C59 1.399 . S
C58 C62 1.389 . S
C59 C58 1.399 . S
C59 C61 1.380 . S
C59 H76 0.929 . S
C60 C57 1.399 . S
C60 C61 1.392 . S
C60 H77 0.929 . S
C61 C59 1.380 . S
C61 C60 1.392 . S
C61 H78 0.929 . S
C62 C57 1.383 . S
C62 C58 1.389 . S
C62 H79 0.931 . S
C63 O48 1.266 . S
C63 O49 1.248 . S
C64 Tb0 2.802 . S
C64 O44 1.264 . S
C64 O47 1.256 . S
C64 C57 1.496 . S
C65 C32 1.448 . S
C65 H42 0.930 . S
C65 C66 1.328 . S
C66 C37 1.427 . S
C66 H43 0.929 . S
C66 C65 1.328 . S
C67 O51 1.264 . S
C67 O52 1.243 . S
C68 C71 1.399 . S
C68 C72 1.383 . S
C68 C75 1.496 . S
C69 C70 1.399 . S
C69 C72 1.389 . S
C70 C69 1.399 . S
C70 C73 1.380 . S
C70 H80 0.929 . S
C71 C68 1.399 . S
C71 C73 1.392 . S
C71 H81 0.929 . S
C72 C68 1.383 . S
C72 C69 1.389 . S
C72 H82 0.931 . S
C73 C70 1.380 . S
C73 C71 1.392 . S
C73 H83 0.929 . S
C74 O54 1.266 . S
C74 O55 1.248 . S
C75 Tb11 2.802 . S
C75 O50 1.264 . S
C75 O53 1.256 . S
C75 C68 1.496 . S
H76 C59 0.929 . S
H77 C60 0.929 . S
H78 C61 0.929 . S
H79 C62 0.931 . S
H80 C70 0.929 . S
H81 C71 0.929 . S
H82 C72 0.931 . S
H83 C73 0.929 . S
Tb84 N113 2.617 . S
Tb84 N119 2.572 . S
Tb84 O128 2.465 . S
Tb84 O129 2.387 . S
Tb84 O131 2.428 . S
Tb84 O132 2.308 . S
Tb84 O136 2.349 . S
Tb84 O139 2.393 . S
Tb84 C148 2.802 . S
C85 N86 1.379 . S
C85 C88 1.416 . S
C85 C92 1.424 . S
N86 C85 1.379 . S
N86 C89 1.334 . S
N86 Tb95 2.617 . S
C87 C89 1.390 . S
C87 C90 1.339 . S
C87 H107 0.930 . S
C88 C85 1.416 . S
C88 C90 1.416 . S
C88 C94 1.448 . S
C89 N86 1.334 . S
C89 C87 1.390 . S
C89 H100 0.930 . S
C90 C87 1.339 . S
C90 C88 1.416 . S
C90 H111 0.930 . S
C91 C92 1.413 . S
C91 C93 1.427 . S
C91 C97 1.416 . S
C92 C85 1.424 . S
C92 C91 1.413 . S
C92 N96 1.361 . S
C93 C91 1.427 . S
C93 C94 1.328 . S
C93 H108 0.929 . S
C94 C88 1.448 . S
C94 C93 1.328 . S
C94 H109 0.930 . S
Tb95 N86 2.617 . S
Tb95 N96 2.572 . S
Tb95 O130 2.349 . S
Tb95 O133 2.393 . S
Tb95 O134 2.465 . S
Tb95 O135 2.387 . S
Tb95 O137 2.428 . S
Tb95 O138 2.308 . S
Tb95 C159 2.802 . S
N96 C92 1.361 . S
N96 Tb95 2.572 . S
N96 C98 1.340 . S
C97 C91 1.416 . S
C97 C99 1.332 . S
C97 H105 0.931 . S
C98 N96 1.340 . S
C98 C99 1.407 . S
C98 H104 0.930 . S
C99 C97 1.332 . S
C99 C98 1.407 . S
C99 H101 0.929 . S
H100 C89 0.930 . S
H101 C99 0.929 . S
H102 C117 0.930 . S
H103 C124 0.929 . S
H104 C98 0.930 . S
H105 C97 0.931 . S
H106 C120 0.930 . S
H107 C87 0.930 . S
H108 C93 0.929 . S
H109 C94 0.930 . S
H110 C115 0.930 . S
H111 C90 0.930 . S
H112 C123 0.931 . S
N113 Tb84 2.617 . S
N113 C114 1.379 . S
N113 C117 1.334 . S
C114 N113 1.379 . S
C114 C116 1.416 . S
C114 C122 1.424 . S
C115 H110 0.930 . S
C115 C117 1.390 . S
C115 C118 1.339 . S
C116 C114 1.416 . S
C116 C118 1.416 . S
C116 C149 1.448 . S
C117 H102 0.930 . S
C117 N113 1.334 . S
C117 C115 1.390 . S
C118 C115 1.339 . S
C118 C116 1.416 . S
C118 H125 0.930 . S
N119 Tb84 2.572 . S
N119 C120 1.340 . S
N119 C122 1.361 . S
C120 H106 0.930 . S
C120 N119 1.340 . S
C120 C124 1.407 . S
C121 C122 1.413 . S
C121 C123 1.416 . S
C121 C150 1.427 . S
C122 C114 1.424 . S
C122 N119 1.361 . S
C122 C121 1.413 . S
C123 H112 0.931 . S
C123 C121 1.416 . S
C123 C124 1.332 . S
C124 H103 0.929 . S
C124 C120 1.407 . S
C124 C123 1.332 . S
H125 C118 0.930 . S
H126 C149 0.930 . S
H127 C150 0.929 . S
O128 Tb84 2.465 . S
O128 C148 1.264 . S
O129 Tb84 2.387 . S
O129 C140 1.264 . S
O130 Tb95 2.349 . S
O130 C140 1.243 . S
O131 Tb84 2.428 . S
O131 C148 1.256 . S
O132 Tb84 2.308 . S
O132 C147 1.266 . S
O133 Tb95 2.393 . S
O133 C147 1.248 . S
O134 Tb95 2.465 . S
O134 C159 1.264 . S
O135 Tb95 2.387 . S
O135 C151 1.264 . S
O136 Tb84 2.349 . S
O136 C151 1.243 . S
O137 Tb95 2.428 . S
O137 C159 1.256 . S
O138 Tb95 2.308 . S
O138 C158 1.266 . S
O139 Tb84 2.393 . S
O139 C158 1.248 . S
C140 O129 1.264 . S
C140 O130 1.243 . S
C141 C144 1.399 . S
C141 C146 1.383 . S
C141 C148 1.496 . S
C142 C143 1.399 . S
C142 C146 1.389 . S
C143 C142 1.399 . S
C143 C145 1.380 . S
C143 H160 0.929 . S
C144 C141 1.399 . S
C144 C145 1.392 . S
C144 H161 0.929 . S
C145 C143 1.380 . S
C145 C144 1.392 . S
C145 H162 0.929 . S
C146 C141 1.383 . S
C146 C142 1.389 . S
C146 H163 0.931 . S
C147 O132 1.266 . S
C147 O133 1.248 . S
C148 Tb84 2.802 . S
C148 O128 1.264 . S
C148 O131 1.256 . S
C148 C141 1.496 . S
C149 C116 1.448 . S
C149 H126 0.930 . S
C149 C150 1.328 . S
C150 C121 1.427 . S
C150 H127 0.929 . S
C150 C149 1.328 . S
C151 O135 1.264 . S
C151 O136 1.243 . S
C152 C155 1.399 . S
C152 C156 1.383 . S
C152 C159 1.496 . S
C153 C154 1.399 . S
C153 C156 1.389 . S
C154 C153 1.399 . S
C154 C157 1.380 . S
C154 H164 0.929 . S
C155 C152 1.399 . S
C155 C157 1.392 . S
C155 H165 0.929 . S
C156 C152 1.383 . S
C156 C153 1.389 . S
C156 H166 0.931 . S
C157 C154 1.380 . S
C157 C155 1.392 . S
C157 H167 0.929 . S
C158 O138 1.266 . S
C158 O139 1.248 . S
C159 Tb95 2.802 . S
C159 O134 1.264 . S
C159 O137 1.256 . S
C159 C152 1.496 . S
H160 C143 0.929 . S
H161 C144 0.929 . S
H162 C145 0.929 . S
H163 C146 0.931 . S
H164 C154 0.929 . S
H165 C155 0.929 . S
H166 C156 0.931 . S
H167 C157 0.929 . S
Tb168 N197 2.617 . S
Tb168 N203 2.572 . S
Tb168 O212 2.465 . S
Tb168 O213 2.387 . S
Tb168 O215 2.428 . S
Tb168 O216 2.308 . S
Tb168 O220 2.349 . S
Tb168 O223 2.393 . S
Tb168 C232 2.802 . S
C169 N170 1.379 . S
C169 C172 1.416 . S
C169 C176 1.424 1_655 S
N170 C169 1.379 . S
N170 C173 1.334 . S
N170 Tb179 2.617 . S
C171 C173 1.390 . S
C171 C174 1.339 . S
C171 H191 0.930 . S
C172 C169 1.416 . S
C172 C174 1.416 . S
C172 C178 1.448 . S
C173 N170 1.334 . S
C173 C171 1.390 . S
C173 H184 0.930 . S
C174 C171 1.339 . S
C174 C172 1.416 . S
C174 H195 0.930 . S
C175 C176 1.413 . S
C175 C177 1.427 . S
C175 C181 1.416 . S
C176 C169 1.424 1_455 S
C176 C175 1.413 . S
C176 N180 1.361 . S
C177 C175 1.427 . S
C177 C178 1.328 1_455 S
C177 H192 0.929 . S
C178 C172 1.448 . S
C178 C177 1.328 1_655 S
C178 H193 0.930 . S
Tb179 N170 2.617 . S
Tb179 N180 2.572 1_655 S
Tb179 O214 2.349 . S
Tb179 O217 2.393 . S
Tb179 O218 2.465 1_655 S
Tb179 O219 2.387 . S
Tb179 O221 2.428 1_655 S
Tb179 O222 2.308 . S
Tb179 C243 2.802 1_655 S
N180 C176 1.361 . S
N180 Tb179 2.572 1_455 S
N180 C182 1.340 . S
C181 C175 1.416 . S
C181 C183 1.332 . S
C181 H189 0.931 . S
C182 N180 1.340 . S
C182 C183 1.407 . S
C182 H188 0.930 . S
C183 C181 1.332 . S
C183 C182 1.407 . S
C183 H185 0.929 . S
H184 C173 0.930 . S
H185 C183 0.929 . S
H186 C201 0.930 . S
H187 C208 0.929 . S
H188 C182 0.930 . S
H189 C181 0.931 . S
H190 C204 0.930 . S
H191 C171 0.930 . S
H192 C177 0.929 . S
H193 C178 0.930 . S
H194 C199 0.930 . S
H195 C174 0.930 . S
H196 C207 0.931 . S
N197 Tb168 2.617 . S
N197 C198 1.379 . S
N197 C201 1.334 . S
C198 N197 1.379 . S
C198 C200 1.416 . S
C198 C206 1.424 . S
C199 H194 0.930 . S
C199 C201 1.390 . S
C199 C202 1.339 . S
C200 C198 1.416 . S
C200 C202 1.416 . S
C200 C233 1.448 . S
C201 H186 0.930 . S
C201 N197 1.334 . S
C201 C199 1.390 . S
C202 C199 1.339 . S
C202 C200 1.416 . S
C202 H209 0.930 . S
N203 Tb168 2.572 . S
N203 C204 1.340 . S
N203 C206 1.361 . S
C204 H190 0.930 . S
C204 N203 1.340 . S
C204 C208 1.407 . S
C205 C206 1.413 . S
C205 C207 1.416 . S
C205 C234 1.427 . S
C206 C198 1.424 . S
C206 N203 1.361 . S
C206 C205 1.413 . S
C207 H196 0.931 . S
C207 C205 1.416 . S
C207 C208 1.332 . S
C208 H187 0.929 . S
C208 C204 1.407 . S
C208 C207 1.332 . S
H209 C202 0.930 . S
H210 C233 0.930 . S
H211 C234 0.929 . S
O212 Tb168 2.465 . S
O212 C232 1.264 . S
O213 Tb168 2.387 . S
O213 C224 1.264 . S
O214 Tb179 2.349 . S
O214 C224 1.243 . S
O215 Tb168 2.428 . S
O215 C232 1.256 . S
O216 Tb168 2.308 . S
O216 C231 1.266 . S
O217 Tb179 2.393 . S
O217 C231 1.248 . S
O218 Tb179 2.465 1_455 S
O218 C243 1.264 . S
O219 Tb179 2.387 . S
O219 C235 1.264 . S
O220 Tb168 2.349 . S
O220 C235 1.243 . S
O221 Tb179 2.428 1_455 S
O221 C243 1.256 . S
O222 Tb179 2.308 . S
O222 C242 1.266 . S
O223 Tb168 2.393 . S
O223 C242 1.248 . S
C224 O213 1.264 . S
C224 O214 1.243 . S
C225 C228 1.399 . S
C225 C230 1.383 . S
C225 C232 1.496 . S
C226 C227 1.399 . S
C226 C230 1.389 . S
C227 C226 1.399 . S
C227 C229 1.380 . S
C227 H244 0.929 . S
C228 C225 1.399 . S
C228 C229 1.392 . S
C228 H245 0.929 . S
C229 C227 1.380 . S
C229 C228 1.392 . S
C229 H246 0.929 . S
C230 C225 1.383 . S
C230 C226 1.389 . S
C230 H247 0.931 . S
C231 O216 1.266 . S
C231 O217 1.248 . S
C232 Tb168 2.802 . S
C232 O212 1.264 . S
C232 O215 1.256 . S
C232 C225 1.496 . S
C233 C200 1.448 . S
C233 H210 0.930 . S
C233 C234 1.328 . S
C234 C205 1.427 . S
C234 H211 0.929 . S
C234 C233 1.328 . S
C235 O219 1.264 . S
C235 O220 1.243 . S
C236 C239 1.399 . S
C236 C240 1.383 . S
C236 C243 1.496 . S
C237 C238 1.399 . S
C237 C240 1.389 . S
C238 C237 1.399 . S
C238 C241 1.380 . S
C238 H248 0.929 . S
C239 C236 1.399 . S
C239 C241 1.392 . S
C239 H249 0.929 . S
C240 C236 1.383 . S
C240 C237 1.389 . S
C240 H250 0.931 . S
C241 C238 1.380 . S
C241 C239 1.392 . S
C241 H251 0.929 . S
C242 O222 1.266 . S
C242 O223 1.248 . S
C243 Tb179 2.802 1_455 S
C243 O218 1.264 . S
C243 O221 1.256 . S
C243 C236 1.496 . S
H244 C227 0.929 . S
H245 C228 0.929 . S
H246 C229 0.929 . S
H247 C230 0.931 . S
H248 C238 0.929 . S
H249 C239 0.929 . S
H250 C240 0.931 . S
H251 C241 0.929 . S
Tb252 N281 2.617 . S
Tb252 N287 2.572 . S
Tb252 O296 2.465 1_565 S
Tb252 O297 2.387 . S
Tb252 O299 2.428 1_565 S
Tb252 O300 2.308 . S
Tb252 O304 2.349 . S
Tb252 O307 2.393 . S
Tb252 C316 2.802 1_565 S
C253 N254 1.379 . S
C253 C256 1.416 . S
C253 C260 1.424 . S
N254 C253 1.379 . S
N254 C257 1.334 . S
N254 Tb263 2.617 . S
C255 C257 1.390 . S
C255 C258 1.339 . S
C255 H275 0.930 . S
C256 C253 1.416 . S
C256 C258 1.416 . S
C256 C262 1.448 . S
C257 N254 1.334 . S
C257 C255 1.390 . S
C257 H268 0.930 . S
C258 C255 1.339 . S
C258 C256 1.416 . S
C258 H279 0.930 . S
C259 C260 1.413 . S
C259 C261 1.427 . S
C259 C265 1.416 . S
C260 C253 1.424 . S
C260 C259 1.413 . S
C260 N264 1.361 . S
C261 C259 1.427 . S
C261 C262 1.328 . S
C261 H276 0.929 . S
C262 C256 1.448 . S
C262 C261 1.328 . S
C262 H277 0.930 . S
Tb263 N254 2.617 . S
Tb263 N264 2.572 . S
Tb263 O298 2.349 . S
Tb263 O301 2.393 . S
Tb263 O302 2.465 . S
Tb263 O303 2.387 . S
Tb263 O305 2.428 . S
Tb263 O306 2.308 . S
Tb263 C327 2.802 . S
N264 C260 1.361 . S
N264 Tb263 2.572 . S
N264 C266 1.340 . S
C265 C259 1.416 . S
C265 C267 1.332 . S
C265 H273 0.931 . S
C266 N264 1.340 . S
C266 C267 1.407 . S
C266 H272 0.930 . S
C267 C265 1.332 . S
C267 C266 1.407 . S
C267 H269 0.929 . S
H268 C257 0.930 . S
H269 C267 0.929 . S
H270 C285 0.930 . S
H271 C292 0.929 . S
H272 C266 0.930 . S
H273 C265 0.931 . S
H274 C288 0.930 . S
H275 C255 0.930 . S
H276 C261 0.929 . S
H277 C262 0.930 . S
H278 C283 0.930 . S
H279 C258 0.930 . S
H280 C291 0.931 . S
N281 Tb252 2.617 . S
N281 C282 1.379 . S
N281 C285 1.334 . S
C282 N281 1.379 . S
C282 C284 1.416 . S
C282 C290 1.424 . S
C283 H278 0.930 . S
C283 C285 1.390 . S
C283 C286 1.339 . S
C284 C282 1.416 . S
C284 C286 1.416 . S
C284 C317 1.448 . S
C285 H270 0.930 . S
C285 N281 1.334 . S
C285 C283 1.390 . S
C286 C283 1.339 . S
C286 C284 1.416 . S
C286 H293 0.930 . S
N287 Tb252 2.572 . S
N287 C288 1.340 . S
N287 C290 1.361 . S
C288 H274 0.930 . S
C288 N287 1.340 . S
C288 C292 1.407 . S
C289 C290 1.413 . S
C289 C291 1.416 . S
C289 C318 1.427 . S
C290 C282 1.424 . S
C290 N287 1.361 . S
C290 C289 1.413 . S
C291 H280 0.931 . S
C291 C289 1.416 . S
C291 C292 1.332 . S
C292 H271 0.929 . S
C292 C288 1.407 . S
C292 C291 1.332 . S
H293 C286 0.930 . S
H294 C317 0.930 . S
H295 C318 0.929 . S
O296 Tb252 2.465 1_545 S
O296 C316 1.264 . S
O297 Tb252 2.387 . S
O297 C308 1.264 . S
O298 Tb263 2.349 . S
O298 C308 1.243 . S
O299 Tb252 2.428 1_545 S
O299 C316 1.256 . S
O300 Tb252 2.308 . S
O300 C315 1.266 . S
O301 Tb263 2.393 . S
O301 C315 1.248 . S
O302 Tb263 2.465 . S
O302 C327 1.264 . S
O303 Tb263 2.387 . S
O303 C319 1.264 . S
O304 Tb252 2.349 . S
O304 C319 1.243 . S
O305 Tb263 2.428 . S
O305 C327 1.256 . S
O306 Tb263 2.308 . S
O306 C326 1.266 . S
O307 Tb252 2.393 . S
O307 C326 1.248 . S
C308 O297 1.264 . S
C308 O298 1.243 . S
C309 C312 1.399 . S
C309 C314 1.383 . S
C309 C316 1.496 . S
C310 C311 1.399 . S
C310 C314 1.389 . S
C311 C310 1.399 . S
C311 C313 1.380 . S
C311 H328 0.929 . S
C312 C309 1.399 . S
C312 C313 1.392 . S
C312 H329 0.929 . S
C313 C311 1.380 . S
C313 C312 1.392 . S
C313 H330 0.929 . S
C314 C309 1.383 . S
C314 C310 1.389 . S
C314 H331 0.931 . S
C315 O300 1.266 . S
C315 O301 1.248 . S
C316 Tb252 2.802 1_545 S
C316 O296 1.264 . S
C316 O299 1.256 . S
C316 C309 1.496 . S
C317 C284 1.448 . S
C317 H294 0.930 . S
C317 C318 1.328 . S
C318 C289 1.427 . S
C318 H295 0.929 . S
C318 C317 1.328 . S
C319 O303 1.264 . S
C319 O304 1.243 . S
C320 C323 1.399 . S
C320 C324 1.383 . S
C320 C327 1.496 . S
C321 C322 1.399 . S
C321 C324 1.389 . S
C322 C321 1.399 . S
C322 C325 1.380 . S
C322 H332 0.929 . S
C323 C320 1.399 . S
C323 C325 1.392 . S
C323 H333 0.929 . S
C324 C320 1.383 . S
C324 C321 1.389 . S
C324 H334 0.931 . S
C325 C322 1.380 . S
C325 C323 1.392 . S
C325 H335 0.929 . S
C326 O306 1.266 . S
C326 O307 1.248 . S
C327 Tb263 2.802 . S
C327 O302 1.264 . S
C327 O305 1.256 . S
C327 C320 1.496 . S
H328 C311 0.929 . S
H329 C312 0.929 . S
H330 C313 0.929 . S
H331 C314 0.931 . S
H332 C322 0.929 . S
H333 C323 0.929 . S
H334 C324 0.931 . S
H335 C325 0.929 . S
Tb336 N365 2.617 . S
Tb336 N371 2.572 . S
Tb336 O380 2.465 . S
Tb336 O381 2.387 . S
Tb336 O383 2.428 . S
Tb336 O384 2.308 . S
Tb336 O388 2.349 . S
Tb336 O391 2.393 . S
Tb336 C400 2.802 . S
C337 N338 1.379 . S
C337 C340 1.416 1_554 S
C337 C344 1.424 1_455 S
N338 C337 1.379 . S
N338 C341 1.334 . S
N338 Tb347 2.617 . S
C339 C341 1.390 1_556 S
C339 C342 1.339 . S
C339 H359 0.930 . S
C340 C337 1.416 1_556 S
C340 C342 1.416 . S
C340 C346 1.470 . S
C341 N338 1.334 . S
C341 C339 1.390 1_554 S
C341 H352 0.930 . S
C342 C339 1.339 . S
C342 C340 1.416 . S
C342 H363 0.930 . S
C343 C344 1.413 1_556 S
C343 C345 1.427 . S
C343 C349 1.416 . S
C344 C337 1.424 1_655 S
C344 C343 1.413 1_554 S
C344 N348 1.361 . S
C345 C343 1.427 . S
C345 C346 1.303 1_655 S
C345 H360 0.929 . S
C346 C340 1.470 . S
C346 C345 1.303 1_455 S
C346 H361 0.936 . S
Tb347 N338 2.617 . S
Tb347 N348 2.572 1_455 S
Tb347 O382 2.349 . S
Tb347 O385 2.393 . S
Tb347 O386 2.465 1_455 S
Tb347 O387 2.387 . S
Tb347 O389 2.428 1_455 S
Tb347 O390 2.308 . S
Tb347 C411 2.802 1_455 S
N348 C344 1.361 . S
N348 Tb347 2.572 1_655 S
N348 C350 1.340 . S
C349 C343 1.416 . S
C349 C351 1.332 1_556 S
C349 H357 0.931 . S
C350 N348 1.340 . S
C350 C351 1.407 . S
C350 H356 0.930 . S
C351 C349 1.332 1_554 S
C351 C350 1.407 . S
C351 H353 0.929 . S
H352 C341 0.930 . S
H353 C351 0.929 . S
H354 C369 0.930 . S
H355 C376 0.929 . S
H356 C350 0.930 . S
H357 C349 0.931 . S
H358 C372 0.930 . S
H359 C339 0.930 . S
H360 C345 0.929 . S
H361 C346 0.936 . S
H362 C367 0.930 . S
H363 C342 0.930 . S
H364 C375 0.931 . S
N365 Tb336 2.617 . S
N365 C366 1.379 . S
N365 C369 1.334 . S
C366 N365 1.379 . S
C366 C368 1.416 . S
C366 C374 1.424 . S
C367 H362 0.930 . S
C367 C369 1.390 . S
C367 C370 1.339 . S
C368 C366 1.416 . S
C368 C370 1.416 . S
C368 C401 1.448 . S
C369 H354 0.930 . S
C369 N365 1.334 . S
C369 C367 1.390 . S
C370 C367 1.339 . S
C370 C368 1.416 . S
C370 H377 0.930 . S
N371 Tb336 2.572 . S
N371 C372 1.340 . S
N371 C374 1.361 . S
C372 H358 0.930 . S
C372 N371 1.340 . S
C372 C376 1.407 . S
C373 C374 1.413 . S
C373 C375 1.416 . S
C373 C402 1.427 . S
C374 C366 1.424 . S
C374 N371 1.361 . S
C374 C373 1.413 . S
C375 H364 0.931 . S
C375 C373 1.416 . S
C375 C376 1.332 . S
C376 H355 0.929 . S
C376 C372 1.407 . S
C376 C375 1.332 . S
H377 C370 0.930 . S
H378 C401 0.930 . S
H379 C402 0.929 . S
O380 Tb336 2.465 . S
O380 C400 1.264 . S
O381 Tb336 2.387 . S
O381 C392 1.264 . S
O382 Tb347 2.349 . S
O382 C392 1.243 . S
O383 Tb336 2.428 . S
O383 C400 1.256 . S
O384 Tb336 2.308 . S
O384 C399 1.266 . S
O385 Tb347 2.393 . S
O385 C399 1.248 . S
O386 Tb347 2.465 1_655 S
O386 C411 1.264 . S
O387 Tb347 2.387 . S
O387 C403 1.264 . S
O388 Tb336 2.349 . S
O388 C403 1.243 . S
O389 Tb347 2.428 1_655 S
O389 C411 1.256 . S
O390 Tb347 2.308 . S
O390 C410 1.266 . S
O391 Tb336 2.393 . S
O391 C410 1.248 . S
C392 O381 1.264 . S
C392 O382 1.243 . S
C393 C396 1.399 . S
C393 C398 1.383 . S
C393 C400 1.496 . S
C394 C395 1.399 . S
C394 C398 1.389 . S
C395 C394 1.399 . S
C395 C397 1.380 . S
C395 H412 0.929 . S
C396 C393 1.399 . S
C396 C397 1.392 . S
C396 H413 0.929 . S
C397 C395 1.380 . S
C397 C396 1.392 . S
C397 H414 0.929 . S
C398 C393 1.383 . S
C398 C394 1.389 . S
C398 H415 0.931 . S
C399 O384 1.266 . S
C399 O385 1.248 . S
C400 Tb336 2.802 . S
C400 O380 1.264 . S
C400 O383 1.256 . S
C400 C393 1.496 . S
C401 C368 1.448 . S
C401 H378 0.930 . S
C401 C402 1.328 . S
C402 C373 1.427 . S
C402 H379 0.929 . S
C402 C401 1.328 . S
C403 O387 1.264 . S
C403 O388 1.243 . S
C404 C407 1.399 . S
C404 C408 1.383 . S
C404 C411 1.496 . S
C405 C406 1.399 . S
C405 C408 1.389 . S
C406 C405 1.399 . S
C406 C409 1.380 . S
C406 H416 0.929 . S
C407 C404 1.399 . S
C407 C409 1.392 . S
C407 H417 0.929 . S
C408 C404 1.383 . S
C408 C405 1.389 . S
C408 H418 0.931 . S
C409 C406 1.380 . S
C409 C407 1.392 . S
C409 H419 0.929 . S
C410 O390 1.266 . S
C410 O391 1.248 . S
C411 Tb347 2.802 1_655 S
C411 O386 1.264 . S
C411 O389 1.256 . S
C411 C404 1.496 . S
H412 C395 0.929 . S
H413 C396 0.929 . S
H414 C397 0.929 . S
H415 C398 0.931 . S
H416 C406 0.929 . S
H417 C407 0.929 . S
H418 C408 0.931 . S
H419 C409 0.929 . S
Tb420 N449 2.617 . S
Tb420 N455 2.572 . S
Tb420 O464 2.465 . S
Tb420 O465 2.387 . S
Tb420 O467 2.428 . S
Tb420 O468 2.308 . S
Tb420 O472 2.349 . S
Tb420 O475 2.393 . S
Tb420 C484 2.802 . S
C421 N422 1.379 . S
C421 C424 1.416 1_554 S
C421 C428 1.424 1_545 S
N422 C421 1.379 . S
N422 C425 1.334 . S
N422 Tb431 2.617 . S
C423 C425 1.390 1_556 S
C423 C426 1.339 . S
C423 H443 0.930 . S
C424 C421 1.416 1_556 S
C424 C426 1.416 . S
C424 C430 1.448 . S
C425 N422 1.334 . S
C425 C423 1.390 1_554 S
C425 H436 0.930 . S
C426 C423 1.339 . S
C426 C424 1.416 . S
C426 H447 0.930 . S
C427 C428 1.413 1_556 S
C427 C429 1.427 . S
C427 C433 1.429 . S
C428 C421 1.424 1_565 S
C428 C427 1.413 1_554 S
C428 N432 1.361 . S
C429 C427 1.427 . S
C429 C430 1.328 1_565 S
C429 H444 0.929 . S
C430 C424 1.448 . S
C430 C429 1.328 1_545 S
C430 H445 0.930 . S
Tb431 N422 2.617 . S
Tb431 N432 2.572 1_545 S
Tb431 O466 2.349 . S
Tb431 O469 2.393 . S
Tb431 O470 2.465 1_545 S
Tb431 O471 2.387 . S
Tb431 O473 2.420 1_545 S
Tb431 O474 2.308 . S
Tb431 C495 2.802 1_545 S
N432 C428 1.361 . S
N432 Tb431 2.572 1_565 S
N432 C434 1.340 . S
C433 C427 1.429 . S
C433 C435 1.290 1_556 S
C433 H441 0.961 . S
C434 N432 1.340 . S
C434 C435 1.407 . S
C434 H440 0.930 . S
C435 C433 1.290 1_554 S
C435 C434 1.407 . S
C435 H437 0.929 . S
H436 C425 0.930 . S
H437 C435 0.929 . S
H438 C453 0.930 . S
H439 C460 0.929 . S
H440 C434 0.930 . S
H441 C433 0.961 . S
H442 C456 0.930 . S
H443 C423 0.930 . S
H444 C429 0.929 . S
H445 C430 0.930 . S
H446 C451 0.930 . S
H447 C426 0.930 . S
H448 C459 0.931 . S
N449 Tb420 2.617 . S
N449 C450 1.379 . S
N449 C453 1.334 . S
C450 N449 1.379 . S
C450 C452 1.416 . S
C450 C458 1.424 . S
C451 H446 0.930 . S
C451 C453 1.390 . S
C451 C454 1.339 . S
C452 C450 1.416 . S
C452 C454 1.416 . S
C452 C485 1.448 . S
C453 H438 0.930 . S
C453 N449 1.334 . S
C453 C451 1.390 . S
C454 C451 1.339 . S
C454 C452 1.416 . S
C454 H461 0.930 . S
N455 Tb420 2.572 . S
N455 C456 1.340 . S
N455 C458 1.361 . S
C456 H442 0.930 . S
C456 N455 1.340 . S
C456 C460 1.407 . S
C457 C458 1.413 . S
C457 C459 1.416 . S
C457 C486 1.427 . S
C458 C450 1.424 . S
C458 N455 1.361 . S
C458 C457 1.413 . S
C459 H448 0.931 . S
C459 C457 1.416 . S
C459 C460 1.332 . S
C460 H439 0.929 . S
C460 C456 1.407 . S
C460 C459 1.332 . S
H461 C454 0.930 . S
H462 C485 0.930 . S
H463 C486 0.929 . S
O464 Tb420 2.465 . S
O464 C484 1.264 . S
O465 Tb420 2.387 . S
O465 C476 1.264 . S
O466 Tb431 2.349 . S
O466 C476 1.243 . S
O467 Tb420 2.428 . S
O467 C484 1.256 . S
O468 Tb420 2.308 . S
O468 C483 1.266 . S
O469 Tb431 2.393 . S
O469 C483 1.248 . S
O470 Tb431 2.465 1_565 S
O470 C495 1.264 . S
O471 Tb431 2.387 . S
O471 C487 1.264 . S
O472 Tb420 2.349 . S
O472 C487 1.243 . S
O473 Tb431 2.420 1_565 S
O473 C495 1.268 . S
O474 Tb431 2.308 . S
O474 C494 1.266 . S
O475 Tb420 2.393 . S
O475 C494 1.248 . S
C476 O465 1.264 . S
C476 O466 1.243 . S
C477 C480 1.399 . S
C477 C482 1.383 . S
C477 C484 1.496 . S
C478 C479 1.399 . S
C478 C482 1.389 . S
C479 C478 1.399 . S
C479 C481 1.380 . S
C479 H496 0.929 . S
C480 C477 1.399 . S
C480 C481 1.392 . S
C480 H497 0.929 . S
C481 C479 1.380 . S
C481 C480 1.392 . S
C481 H498 0.929 . S
C482 C477 1.383 . S
C482 C478 1.389 . S
C482 H499 0.931 . S
C483 O468 1.266 . S
C483 O469 1.248 . S
C484 Tb420 2.802 . S
C484 O464 1.264 . S
C484 O467 1.256 . S
C484 C477 1.496 . S
C485 C452 1.448 . S
C485 H462 0.930 . S
C485 C486 1.328 . S
C486 C457 1.427 . S
C486 H463 0.929 . S
C486 C485 1.328 . S
C487 O471 1.264 . S
C487 O472 1.243 . S
C488 C491 1.399 . S
C488 C492 1.383 . S
C488 C495 1.496 . S
C489 C490 1.399 . S
C489 C492 1.389 . S
C490 C489 1.399 . S
C490 C493 1.380 . S
C490 H500 0.929 . S
C491 C488 1.399 . S
C491 C493 1.392 . S
C491 H501 0.929 . S
C492 C488 1.383 . S
C492 C489 1.389 . S
C492 H502 0.931 . S
C493 C490 1.380 . S
C493 C491 1.392 . S
C493 H503 0.929 . S
C494 O474 1.266 . S
C494 O475 1.248 . S
C495 Tb431 2.802 1_565 S
C495 O470 1.264 . S
C495 O473 1.268 . S
C495 C488 1.496 . S
H496 C479 0.929 . S
H497 C480 0.929 . S
H498 C481 0.929 . S
H499 C482 0.931 . S
H500 C490 0.929 . S
H501 C491 0.929 . S
H502 C492 0.931 . S
H503 C493 0.929 . S
Tb504 N533 2.617 . S
Tb504 N539 2.572 . S
Tb504 O548 2.465 . S
Tb504 O549 2.387 . S
Tb504 O551 2.428 . S
Tb504 O552 2.308 . S
Tb504 O556 2.349 . S
Tb504 O559 2.393 . S
Tb504 C568 2.802 . S
C505 N506 1.379 . S
C505 C508 1.416 . S
C505 C512 1.424 . S
N506 C505 1.379 . S
N506 C509 1.334 . S
N506 Tb515 2.617 . S
C507 C509 1.390 . S
C507 C510 1.339 . S
C507 H527 0.930 . S
C508 C505 1.416 . S
C508 C510 1.416 . S
C508 C514 1.448 . S
C509 N506 1.334 . S
C509 C507 1.390 . S
C509 H520 0.930 . S
C510 C507 1.339 . S
C510 C508 1.416 . S
C510 H531 0.930 . S
C511 C512 1.413 . S
C511 C513 1.427 . S
C511 C517 1.416 . S
C512 C505 1.424 . S
C512 C511 1.413 . S
C512 N516 1.361 . S
C513 C511 1.427 . S
C513 C514 1.328 . S
C513 H528 0.929 . S
C514 C508 1.448 . S
C514 C513 1.328 . S
C514 H529 0.930 . S
Tb515 N506 2.617 . S
Tb515 N516 2.572 . S
Tb515 O550 2.349 . S
Tb515 O553 2.393 . S
Tb515 O554 2.465 . S
Tb515 O555 2.387 . S
Tb515 O557 2.428 . S
Tb515 O558 2.308 . S
Tb515 C579 2.802 . S
N516 C512 1.361 . S
N516 Tb515 2.572 . S
N516 C518 1.340 . S
C517 C511 1.416 . S
C517 C519 1.332 . S
C517 H525 0.931 . S
C518 N516 1.340 . S
C518 C519 1.407 . S
C518 H524 0.930 . S
C519 C517 1.332 . S
C519 C518 1.407 . S
C519 H521 0.929 . S
H520 C509 0.930 . S
H521 C519 0.929 . S
H522 C537 0.930 . S
H523 C544 0.929 . S
H524 C518 0.930 . S
H525 C517 0.931 . S
H526 C540 0.930 . S
H527 C507 0.930 . S
H528 C513 0.929 . S
H529 C514 0.930 . S
H530 C535 0.930 . S
H531 C510 0.930 . S
H532 C543 0.931 . S
N533 Tb504 2.617 . S
N533 C534 1.379 . S
N533 C537 1.334 . S
C534 N533 1.379 . S
C534 C536 1.416 1_554 S
C534 C542 1.424 . S
C535 H530 0.930 . S
C535 C537 1.390 1_556 S
C535 C538 1.339 . S
C536 C534 1.416 1_556 S
C536 C538 1.416 . S
C536 C569 1.448 . S
C537 H522 0.930 . S
C537 N533 1.334 . S
C537 C535 1.390 1_554 S
C538 C535 1.339 . S
C538 C536 1.416 . S
C538 H545 0.930 . S
N539 Tb504 2.572 . S
N539 C540 1.340 . S
N539 C542 1.361 . S
C540 H526 0.930 . S
C540 N539 1.340 . S
C540 C544 1.407 . S
C541 C542 1.413 . S
C541 C543 1.416 . S
C541 C570 1.427 . S
C542 C534 1.424 . S
C542 N539 1.361 . S
C542 C541 1.413 . S
C543 H532 0.931 . S
C543 C541 1.416 . S
C543 C544 1.332 . S
C544 H523 0.929 . S
C544 C540 1.407 . S
C544 C543 1.332 . S
H545 C538 0.930 . S
H546 C569 0.930 . S
H547 C570 0.927 1_556 S
O548 Tb504 2.465 . S
O548 C568 1.264 . S
O549 Tb504 2.387 . S
O549 C560 1.264 . S
O550 Tb515 2.349 . S
O550 C560 1.243 . S
O551 Tb504 2.428 . S
O551 C568 1.256 . S
O552 Tb504 2.308 . S
O552 C567 1.266 . S
O553 Tb515 2.393 . S
O553 C567 1.248 . S
O554 Tb515 2.465 . S
O554 C579 1.264 . S
O555 Tb515 2.387 . S
O555 C571 1.264 . S
O556 Tb504 2.349 . S
O556 C571 1.243 . S
O557 Tb515 2.428 . S
O557 C579 1.256 . S
O558 Tb515 2.308 . S
O558 C578 1.266 . S
O559 Tb504 2.393 . S
O559 C578 1.248 . S
C560 O549 1.264 . S
C560 O550 1.243 . S
C561 C564 1.399 . S
C561 C566 1.383 . S
C561 C568 1.496 . S
C562 C563 1.399 . S
C562 C566 1.389 . S
C563 C562 1.399 . S
C563 C565 1.380 . S
C563 H580 0.929 . S
C564 C561 1.399 . S
C564 C565 1.392 . S
C564 H581 0.929 . S
C565 C563 1.380 . S
C565 C564 1.392 . S
C565 H582 0.929 . S
C566 C561 1.383 . S
C566 C562 1.389 . S
C566 H583 0.931 . S
C567 O552 1.266 . S
C567 O553 1.248 . S
C568 Tb504 2.802 . S
C568 O548 1.264 . S
C568 O551 1.256 . S
C568 C561 1.496 . S
C569 C536 1.448 . S
C569 H546 0.930 . S
C569 C570 1.328 1_556 S
C570 C541 1.427 . S
C570 H547 0.927 1_554 S
C570 C569 1.328 1_554 S
C571 O555 1.264 . S
C571 O556 1.243 . S
C572 C575 1.399 . S
C572 C576 1.383 . S
C572 C579 1.496 . S
C573 C574 1.399 . S
C573 C576 1.389 . S
C574 C573 1.399 . S
C574 C577 1.380 . S
C574 H584 0.929 . S
C575 C572 1.399 . S
C575 C577 1.392 . S
C575 H585 0.929 . S
C576 C572 1.383 . S
C576 C573 1.389 . S
C576 H586 0.931 . S
C577 C574 1.380 . S
C577 C575 1.392 . S
C577 H587 0.929 . S
C578 O558 1.266 . S
C578 O559 1.248 . S
C579 Tb515 2.802 . S
C579 O554 1.264 . S
C579 O557 1.256 . S
C579 C572 1.496 . S
H580 C563 0.929 . S
H581 C564 0.929 . S
H582 C565 0.929 . S
H583 C566 0.931 . S
H584 C574 0.929 . S
H585 C575 0.929 . S
H586 C576 0.931 . S
H587 C577 0.929 . S
Tb588 N617 2.617 . S
Tb588 N623 2.572 . S
Tb588 O632 2.465 . S
Tb588 O633 2.387 . S
Tb588 O635 2.428 . S
Tb588 O636 2.308 . S
Tb588 O640 2.349 . S
Tb588 O643 2.393 . S
Tb588 C652 2.802 . S
C589 N590 1.379 . S
C589 C592 1.416 . S
C589 C596 1.424 . S
N590 C589 1.379 . S
N590 C593 1.334 . S
N590 Tb599 2.617 . S
C591 C593 1.390 . S
C591 C594 1.339 . S
C591 H611 0.930 . S
C592 C589 1.416 . S
C592 C594 1.416 . S
C592 C598 1.448 . S
C593 N590 1.334 . S
C593 C591 1.390 . S
C593 H604 0.930 . S
C594 C591 1.339 . S
C594 C592 1.416 . S
C594 H615 0.930 . S
C595 C596 1.413 . S
C595 C597 1.427 . S
C595 C601 1.416 . S
C596 C589 1.424 . S
C596 C595 1.413 . S
C596 N600 1.361 . S
C597 C595 1.427 . S
C597 C598 1.328 . S
C597 H612 0.929 . S
C598 C592 1.448 . S
C598 C597 1.328 . S
C598 H613 0.930 . S
Tb599 N590 2.617 . S
Tb599 N600 2.572 . S
Tb599 O634 2.349 . S
Tb599 O637 2.393 . S
Tb599 O638 2.465 . S
Tb599 O639 2.387 . S
Tb599 O641 2.428 . S
Tb599 O642 2.308 . S
Tb599 C663 2.802 . S
N600 C596 1.361 . S
N600 Tb599 2.572 . S
N600 C602 1.340 . S
C601 C595 1.416 . S
C601 C603 1.332 . S
C601 H609 0.931 . S
C602 N600 1.340 . S
C602 C603 1.407 . S
C602 H608 0.930 . S
C603 C601 1.332 . S
C603 C602 1.407 . S
C603 H605 0.929 . S
H604 C593 0.930 . S
H605 C603 0.929 . S
H606 C621 0.930 . S
H607 C628 0.929 . S
H608 C602 0.930 . S
H609 C601 0.931 . S
H610 C624 0.930 . S
H611 C591 0.930 . S
H612 C597 0.929 . S
H613 C598 0.930 . S
H614 C619 0.930 . S
H615 C594 0.930 . S
H616 C627 0.931 . S
N617 Tb588 2.617 . S
N617 C618 1.379 . S
N617 C621 1.334 . S
C618 N617 1.379 . S
C618 C620 1.416 1_554 S
C618 C626 1.424 . S
C619 H614 0.930 . S
C619 C621 1.390 1_556 S
C619 C622 1.339 . S
C620 C618 1.416 1_556 S
C620 C622 1.416 . S
C620 C653 1.448 . S
C621 H606 0.930 . S
C621 N617 1.334 . S
C621 C619 1.390 1_554 S
C622 C619 1.339 . S
C622 C620 1.416 . S
C622 H629 0.930 . S
N623 Tb588 2.572 . S
N623 C624 1.340 . S
N623 C626 1.361 . S
C624 H610 0.930 . S
C624 N623 1.340 . S
C624 C628 1.407 . S
C625 C626 1.413 . S
C625 C627 1.416 . S
C625 C654 1.427 . S
C626 C618 1.424 . S
C626 N623 1.361 . S
C626 C625 1.413 . S
C627 H616 0.931 . S
C627 C625 1.416 . S
C627 C628 1.332 . S
C628 H607 0.929 . S
C628 C624 1.407 . S
C628 C627 1.332 . S
H629 C622 0.930 . S
H630 C653 0.930 . S
H631 C654 0.931 . S
O632 Tb588 2.465 . S
O632 C652 1.264 . S
O633 Tb588 2.387 . S
O633 C644 1.264 . S
O634 Tb599 2.349 . S
O634 C644 1.243 . S
O635 Tb588 2.428 . S
O635 C652 1.256 . S
O636 Tb588 2.308 . S
O636 C651 1.266 . S
O637 Tb599 2.393 . S
O637 C651 1.248 . S
O638 Tb599 2.465 . S
O638 C663 1.264 . S
O639 Tb599 2.387 . S
O639 C655 1.264 . S
O640 Tb588 2.349 . S
O640 C655 1.243 . S
O641 Tb599 2.428 . S
O641 C663 1.256 . S
O642 Tb599 2.308 . S
O642 C662 1.266 . S
O643 Tb588 2.393 . S
O643 C662 1.248 . S
C644 O633 1.264 . S
C644 O634 1.243 . S
C645 C648 1.399 . S
C645 C650 1.383 . S
C645 C652 1.496 . S
C646 C647 1.399 . S
C646 C650 1.389 . S
C647 C646 1.399 . S
C647 C649 1.380 . S
C647 H664 0.929 . S
C648 C645 1.399 . S
C648 C649 1.392 . S
C648 H665 0.929 . S
C649 C647 1.380 . S
C649 C648 1.392 . S
C649 H666 0.929 . S
C650 C645 1.383 . S
C650 C646 1.389 . S
C650 H667 0.931 . S
C651 O636 1.266 . S
C651 O637 1.248 . S
C652 Tb588 2.802 . S
C652 O632 1.264 . S
C652 O635 1.256 . S
C652 C645 1.496 . S
C653 C620 1.448 . S
C653 H630 0.930 . S
C653 C654 1.328 1_556 S
C654 C625 1.427 . S
C654 H631 0.931 . S
C654 C653 1.328 1_554 S
C655 O639 1.264 . S
C655 O640 1.243 . S
C656 C659 1.399 . S
C656 C660 1.383 . S
C656 C663 1.496 . S
C657 C658 1.399 . S
C657 C660 1.389 . S
C658 C657 1.399 . S
C658 C661 1.380 . S
C658 H668 0.929 . S
C659 C656 1.399 . S
C659 C661 1.392 . S
C659 H669 0.929 . S
C660 C656 1.383 . S
C660 C657 1.389 . S
C660 H670 0.931 . S
C661 C658 1.380 . S
C661 C659 1.392 . S
C661 H671 0.929 . S
C662 O642 1.266 . S
C662 O643 1.248 . S
C663 Tb599 2.802 . S
C663 O638 1.264 . S
C663 O641 1.256 . S
C663 C656 1.496 . S
H664 C647 0.929 . S
H665 C648 0.929 . S
H666 C649 0.929 . S
H667 C650 0.931 . S
H668 C658 0.929 . S
H669 C659 0.929 . S
H670 C660 0.931 . S
H671 C661 0.929 . S
Tb672 N701 2.617 . S
Tb672 N707 2.572 . S
Tb672 O716 2.465 . S
Tb672 O717 2.387 . S
Tb672 O719 2.428 . S
Tb672 O720 2.308 . S
Tb672 O724 2.349 . S
Tb672 O727 2.393 . S
Tb672 C736 2.802 . S
C673 N674 1.379 . S
C673 C676 1.416 . S
C673 C680 1.424 . S
N674 C673 1.379 . S
N674 C677 1.334 . S
N674 Tb683 2.617 . S
C675 C677 1.390 . S
C675 C678 1.339 . S
C675 H695 0.930 . S
C676 C673 1.416 . S
C676 C678 1.416 . S
C676 C682 1.448 . S
C677 N674 1.334 . S
C677 C675 1.390 . S
C677 H688 0.930 . S
C678 C675 1.339 . S
C678 C676 1.416 . S
C678 H699 0.930 . S
C679 C680 1.413 . S
C679 C681 1.427 . S
C679 C685 1.416 . S
C680 C673 1.424 . S
C680 C679 1.413 . S
C680 N684 1.361 . S
C681 C679 1.427 . S
C681 C682 1.328 . S
C681 H696 0.929 . S
C682 C676 1.448 . S
C682 C681 1.328 . S
C682 H697 0.930 . S
Tb683 N674 2.617 . S
Tb683 N684 2.572 . S
Tb683 O718 2.349 . S
Tb683 O721 2.393 . S
Tb683 O722 2.465 . S
Tb683 O723 2.387 . S
Tb683 O725 2.428 . S
Tb683 O726 2.308 . S
Tb683 C747 2.802 . S
N684 C680 1.361 . S
N684 Tb683 2.572 . S
N684 C686 1.340 . S
C685 C679 1.416 . S
C685 C687 1.332 . S
C685 H693 0.931 . S
C686 N684 1.340 . S
C686 C687 1.407 . S
C686 H692 0.930 . S
C687 C685 1.332 . S
C687 C686 1.407 . S
C687 H689 0.929 . S
H688 C677 0.930 . S
H689 C687 0.929 . S
H690 C705 0.930 . S
H691 C712 0.929 . S
H692 C686 0.930 . S
H693 C685 0.931 . S
H694 C708 0.930 . S
H695 C675 0.930 . S
H696 C681 0.929 . S
H697 C682 0.930 . S
H698 C703 0.930 . S
H699 C678 0.930 . S
H700 C711 0.931 . S
N701 Tb672 2.617 . S
N701 C702 1.379 . S
N701 C705 1.334 . S
C702 N701 1.379 . S
C702 C704 1.416 . S
C702 C710 1.424 . S
C703 H698 0.930 . S
C703 C705 1.390 . S
C703 C706 1.339 . S
C704 C702 1.416 . S
C704 C706 1.416 . S
C704 C737 1.448 . S
C705 H690 0.930 . S
C705 N701 1.334 . S
C705 C703 1.390 . S
C706 C703 1.339 . S
C706 C704 1.416 . S
C706 H713 0.930 . S
N707 Tb672 2.572 . S
N707 C708 1.340 . S
N707 C710 1.361 . S
C708 H694 0.930 . S
C708 N707 1.340 . S
C708 C712 1.407 . S
C709 C710 1.413 . S
C709 C711 1.416 . S
C709 C738 1.427 . S
C710 C702 1.424 . S
C710 N707 1.361 . S
C710 C709 1.413 . S
C711 H700 0.931 . S
C711 C709 1.416 . S
C711 C712 1.332 . S
C712 H691 0.929 . S
C712 C708 1.407 . S
C712 C711 1.332 . S
H713 C706 0.930 . S
H714 C737 0.930 . S
H715 C738 0.929 . S
O716 Tb672 2.465 . S
O716 C736 1.264 . S
O717 Tb672 2.387 . S
O717 C728 1.264 . S
O718 Tb683 2.349 . S
O718 C728 1.243 . S
O719 Tb672 2.428 . S
O719 C736 1.256 . S
O720 Tb672 2.308 . S
O720 C735 1.266 . S
O721 Tb683 2.393 . S
O721 C735 1.248 . S
O722 Tb683 2.465 . S
O722 C747 1.264 . S
O723 Tb683 2.387 . S
O723 C739 1.264 . S
O724 Tb672 2.349 . S
O724 C739 1.243 . S
O725 Tb683 2.428 . S
O725 C747 1.256 . S
O726 Tb683 2.308 . S
O726 C746 1.266 . S
O727 Tb672 2.393 . S
O727 C746 1.248 . S
C728 O717 1.264 . S
C728 O718 1.243 . S
C729 C732 1.399 . S
C729 C734 1.383 . S
C729 C736 1.496 . S
C730 C731 1.399 . S
C730 C734 1.389 . S
C731 C730 1.399 . S
C731 C733 1.380 . S
C731 H748 0.929 . S
C732 C729 1.399 . S
C732 C733 1.392 . S
C732 H749 0.929 . S
C733 C731 1.380 . S
C733 C732 1.392 . S
C733 H750 0.929 . S
C734 C729 1.383 . S
C734 C730 1.389 . S
C734 H751 0.931 . S
C735 O720 1.266 . S
C735 O721 1.248 . S
C736 Tb672 2.802 . S
C736 O716 1.264 . S
C736 O719 1.256 . S
C736 C729 1.496 . S
C737 C704 1.448 . S
C737 H714 0.930 . S
C737 C738 1.328 . S
C738 C709 1.427 . S
C738 H715 0.929 . S
C738 C737 1.328 . S
C739 O723 1.264 . S
C739 O724 1.243 . S
C740 C743 1.399 . S
C740 C744 1.383 . S
C740 C747 1.496 . S
C741 C742 1.399 . S
C741 C744 1.389 . S
C742 C741 1.399 . S
C742 C745 1.380 . S
C742 H752 0.929 . S
C743 C740 1.399 . S
C743 C745 1.392 . S
C743 H753 0.929 . S
C744 C740 1.383 . S
C744 C741 1.389 . S
C744 H754 0.931 . S
C745 C742 1.380 . S
C745 C743 1.392 . S
C745 H755 0.929 . S
C746 O726 1.266 . S
C746 O727 1.248 . S
C747 Tb683 2.802 . S
C747 O722 1.264 . S
C747 O725 1.256 . S
C747 C740 1.496 . S
H748 C731 0.929 . S
H749 C732 0.929 . S
H750 C733 0.929 . S
H751 C734 0.931 . S
H752 C742 0.929 . S
H753 C743 0.929 . S
H754 C744 0.931 . S
H755 C745 0.929 . S
Tb756 N785 2.617 . S
Tb756 N791 2.572 . S
Tb756 O800 2.465 . S
Tb756 O801 2.387 . S
Tb756 O803 2.428 . S
Tb756 O804 2.308 . S
Tb756 O808 2.349 . S
Tb756 O811 2.393 . S
Tb756 C820 2.802 . S
C757 N758 1.379 . S
C757 C760 1.416 . S
C757 C764 1.424 . S
N758 C757 1.379 . S
N758 C761 1.334 . S
N758 Tb767 2.617 . S
C759 C761 1.390 . S
C759 C762 1.339 . S
C759 H779 0.930 . S
C760 C757 1.416 . S
C760 C762 1.416 . S
C760 C766 1.448 . S
C761 N758 1.334 . S
C761 C759 1.390 . S
C761 H772 0.930 . S
C762 C759 1.339 . S
C762 C760 1.416 . S
C762 H783 0.930 . S
C763 C764 1.413 . S
C763 C765 1.427 . S
C763 C769 1.416 . S
C764 C757 1.424 . S
C764 C763 1.413 . S
C764 N768 1.361 . S
C765 C763 1.427 . S
C765 C766 1.328 . S
C765 H780 0.929 . S
C766 C760 1.448 . S
C766 C765 1.328 . S
C766 H781 0.930 . S
Tb767 N758 2.617 . S
Tb767 N768 2.572 . S
Tb767 O802 2.349 . S
Tb767 O805 2.393 . S
Tb767 O806 2.465 . S
Tb767 O807 2.387 . S
Tb767 O809 2.428 . S
Tb767 O810 2.308 . S
Tb767 C831 2.802 . S
N768 C764 1.361 . S
N768 Tb767 2.572 . S
N768 C770 1.340 . S
C769 C763 1.416 . S
C769 C771 1.332 . S
C769 H777 0.931 . S
C770 N768 1.340 . S
C770 C771 1.407 . S
C770 H776 0.930 . S
C771 C769 1.332 . S
C771 C770 1.407 . S
C771 H773 0.929 . S
H772 C761 0.930 . S
H773 C771 0.929 . S
H774 C789 0.930 . S
H775 C796 0.929 . S
H776 C770 0.930 . S
H777 C769 0.931 . S
H778 C792 0.930 . S
H779 C759 0.930 . S
H780 C765 0.929 . S
H781 C766 0.930 . S
H782 C787 0.930 . S
H783 C762 0.930 . S
H784 C795 0.931 . S
N785 Tb756 2.617 . S
N785 C786 1.379 . S
N785 C789 1.334 . S
C786 N785 1.379 . S
C786 C788 1.416 . S
C786 C794 1.424 . S
C787 H782 0.930 . S
C787 C789 1.390 . S
C787 C790 1.339 . S
C788 C786 1.416 . S
C788 C790 1.416 . S
C788 C821 1.448 . S
C789 H774 0.930 . S
C789 N785 1.334 . S
C789 C787 1.390 . S
C790 C787 1.339 . S
C790 C788 1.416 . S
C790 H797 0.930 . S
N791 Tb756 2.572 . S
N791 C792 1.340 . S
N791 C794 1.361 . S
C792 H778 0.930 . S
C792 N791 1.340 . S
C792 C796 1.407 . S
C793 C794 1.413 . S
C793 C795 1.416 . S
C793 C822 1.427 . S
C794 C786 1.424 . S
C794 N791 1.361 . S
C794 C793 1.413 . S
C795 H784 0.931 . S
C795 C793 1.416 . S
C795 C796 1.332 . S
C796 H775 0.929 . S
C796 C792 1.407 . S
C796 C795 1.332 . S
H797 C790 0.930 . S
H798 C821 0.930 . S
H799 C822 0.929 . S
O800 Tb756 2.465 . S
O800 C820 1.264 . S
O801 Tb756 2.387 . S
O801 C812 1.264 . S
O802 Tb767 2.349 . S
O802 C812 1.243 . S
O803 Tb756 2.428 . S
O803 C820 1.256 . S
O804 Tb756 2.308 . S
O804 C819 1.266 . S
O805 Tb767 2.393 . S
O805 C819 1.248 . S
O806 Tb767 2.465 . S
O806 C831 1.264 . S
O807 Tb767 2.387 . S
O807 C823 1.264 . S
O808 Tb756 2.349 . S
O808 C823 1.243 . S
O809 Tb767 2.428 . S
O809 C831 1.256 . S
O810 Tb767 2.308 . S
O810 C830 1.266 . S
O811 Tb756 2.393 . S
O811 C830 1.248 . S
C812 O801 1.264 . S
C812 O802 1.243 . S
C813 C816 1.399 . S
C813 C818 1.383 . S
C813 C820 1.496 . S
C814 C815 1.399 . S
C814 C818 1.389 . S
C815 C814 1.399 . S
C815 C817 1.380 . S
C815 H832 0.929 . S
C816 C813 1.399 . S
C816 C817 1.392 . S
C816 H833 0.929 . S
C817 C815 1.380 . S
C817 C816 1.392 . S
C817 H834 0.929 . S
C818 C813 1.383 . S
C818 C814 1.389 . S
C818 H835 0.931 . S
C819 O804 1.266 . S
C819 O805 1.248 . S
C820 Tb756 2.802 . S
C820 O800 1.264 . S
C820 O803 1.256 . S
C820 C813 1.496 . S
C821 C788 1.448 . S
C821 H798 0.930 . S
C821 C822 1.328 . S
C822 C793 1.427 . S
C822 H799 0.929 . S
C822 C821 1.328 . S
C823 O807 1.264 . S
C823 O808 1.243 . S
C824 C827 1.399 . S
C824 C828 1.383 . S
C824 C831 1.496 . S
C825 C826 1.399 . S
C825 C828 1.389 . S
C826 C825 1.399 . S
C826 C829 1.380 . S
C826 H836 0.929 . S
C827 C824 1.399 . S
C827 C829 1.392 . S
C827 H837 0.929 . S
C828 C824 1.383 . S
C828 C825 1.389 . S
C828 H838 0.931 . S
C829 C826 1.380 . S
C829 C827 1.392 . S
C829 H839 0.929 . S
C830 O810 1.266 . S
C830 O811 1.248 . S
C831 Tb767 2.802 . S
C831 O806 1.264 . S
C831 O809 1.256 . S
C831 C824 1.496 . S
H832 C815 0.929 . S
H833 C816 0.929 . S
H834 C817 0.929 . S
H835 C818 0.931 . S
H836 C826 0.929 . S
H837 C827 0.929 . S
H838 C828 0.931 . S
H839 C829 0.929 . S
Tb840 N869 2.617 . S
Tb840 N875 2.572 1_455 S
Tb840 O884 2.465 1_455 S
Tb840 O885 2.387 . S
Tb840 O887 2.428 1_455 S
Tb840 O888 2.308 . S
Tb840 O892 2.349 . S
Tb840 O895 2.393 . S
Tb840 C904 2.802 1_455 S
C841 N842 1.379 . S
C841 C844 1.416 . S
C841 C848 1.424 . S
N842 C841 1.379 . S
N842 C845 1.334 . S
N842 Tb851 2.617 . S
C843 C845 1.390 . S
C843 C846 1.339 . S
C843 H863 0.930 . S
C844 C841 1.416 . S
C844 C846 1.416 . S
C844 C850 1.448 . S
C845 N842 1.334 . S
C845 C843 1.390 . S
C845 H856 0.930 . S
C846 C843 1.339 . S
C846 C844 1.416 . S
C846 H867 0.930 . S
C847 C848 1.413 . S
C847 C849 1.427 . S
C847 C853 1.416 . S
C848 C841 1.424 . S
C848 C847 1.413 . S
C848 N852 1.361 . S
C849 C847 1.427 . S
C849 C850 1.328 . S
C849 H864 0.929 . S
C850 C844 1.448 . S
C850 C849 1.328 . S
C850 H865 0.930 . S
Tb851 N842 2.617 . S
Tb851 N852 2.572 . S
Tb851 O886 2.349 . S
Tb851 O889 2.393 . S
Tb851 O890 2.465 . S
Tb851 O891 2.387 . S
Tb851 O893 2.428 . S
Tb851 O894 2.308 . S
Tb851 C915 2.802 . S
N852 C848 1.361 . S
N852 Tb851 2.572 . S
N852 C854 1.340 . S
C853 C847 1.416 . S
C853 C855 1.332 . S
C853 H861 0.931 . S
C854 N852 1.340 . S
C854 C855 1.407 . S
C854 H860 0.930 . S
C855 C853 1.332 . S
C855 C854 1.407 . S
C855 H857 0.929 . S
H856 C845 0.930 . S
H857 C855 0.929 . S
H858 C873 0.930 . S
H859 C880 0.929 . S
H860 C854 0.930 . S
H861 C853 0.931 . S
H862 C876 0.930 . S
H863 C843 0.930 . S
H864 C849 0.929 . S
H865 C850 0.930 . S
H866 C871 0.930 . S
H867 C846 0.930 . S
H868 C879 0.931 . S
N869 Tb840 2.617 . S
N869 C870 1.379 . S
N869 C873 1.334 . S
C870 N869 1.379 . S
C870 C872 1.416 . S
C870 C878 1.424 1_455 S
C871 H866 0.930 . S
C871 C873 1.390 . S
C871 C874 1.339 . S
C872 C870 1.416 . S
C872 C874 1.416 . S
C872 C905 1.448 . S
C873 H858 0.930 . S
C873 N869 1.334 . S
C873 C871 1.390 . S
C874 C871 1.339 . S
C874 C872 1.416 . S
C874 H881 0.930 . S
N875 Tb840 2.572 1_655 S
N875 C876 1.340 . S
N875 C878 1.361 . S
C876 H862 0.930 . S
C876 N875 1.340 . S
C876 C880 1.407 . S
C877 C878 1.413 . S
C877 C879 1.416 . S
C877 C906 1.427 . S
C878 C870 1.424 1_655 S
C878 N875 1.361 . S
C878 C877 1.413 . S
C879 H868 0.931 . S
C879 C877 1.416 . S
C879 C880 1.332 . S
C880 H859 0.929 . S
C880 C876 1.407 . S
C880 C879 1.332 . S
H881 C874 0.930 . S
H882 C905 0.930 . S
H883 C906 0.929 . S
O884 Tb840 2.465 1_655 S
O884 C904 1.264 . S
O885 Tb840 2.387 . S
O885 C896 1.264 . S
O886 Tb851 2.349 . S
O886 C896 1.243 . S
O887 Tb840 2.428 1_655 S
O887 C904 1.256 . S
O888 Tb840 2.308 . S
O888 C903 1.266 . S
O889 Tb851 2.393 . S
O889 C903 1.248 . S
O890 Tb851 2.465 . S
O890 C915 1.264 . S
O891 Tb851 2.387 . S
O891 C907 1.264 . S
O892 Tb840 2.349 . S
O892 C907 1.243 . S
O893 Tb851 2.428 . S
O893 C915 1.256 . S
O894 Tb851 2.308 . S
O894 C914 1.266 . S
O895 Tb840 2.393 . S
O895 C914 1.248 . S
C896 O885 1.264 . S
C896 O886 1.243 . S
C897 C900 1.399 . S
C897 C902 1.383 . S
C897 C904 1.496 . S
C898 C899 1.399 . S
C898 C902 1.389 . S
C899 C898 1.399 . S
C899 C901 1.380 . S
C899 H916 0.929 . S
C900 C897 1.399 . S
C900 C901 1.392 . S
C900 H917 0.929 . S
C901 C899 1.380 . S
C901 C900 1.392 . S
C901 H918 0.929 . S
C902 C897 1.383 . S
C902 C898 1.389 . S
C902 H919 0.931 . S
C903 O888 1.266 . S
C903 O889 1.248 . S
C904 Tb840 2.802 1_655 S
C904 O884 1.264 . S
C904 O887 1.256 . S
C904 C897 1.496 . S
C905 C872 1.448 . S
C905 H882 0.930 . S
C905 C906 1.328 1_455 S
C906 C877 1.427 . S
C906 H883 0.929 . S
C906 C905 1.328 1_655 S
C907 O891 1.264 . S
C907 O892 1.243 . S
C908 C911 1.399 . S
C908 C912 1.383 . S
C908 C915 1.496 . S
C909 C910 1.399 . S
C909 C912 1.389 . S
C910 C909 1.399 . S
C910 C913 1.380 . S
C910 H920 0.929 . S
C911 C908 1.399 . S
C911 C913 1.392 . S
C911 H921 0.929 . S
C912 C908 1.383 . S
C912 C909 1.389 . S
C912 H922 0.931 . S
C913 C910 1.380 . S
C913 C911 1.392 . S
C913 H923 0.929 . S
C914 O894 1.266 . S
C914 O895 1.248 . S
C915 Tb851 2.802 . S
C915 O890 1.264 . S
C915 O893 1.256 . S
C915 C908 1.496 . S
H916 C899 0.929 . S
H917 C900 0.929 . S
H918 C901 0.929 . S
H919 C902 0.931 . S
H920 C910 0.929 . S
H921 C911 0.929 . S
H922 C912 0.931 . S
H923 C913 0.929 . S
Tb924 N953 2.617 . S
Tb924 N959 2.572 . S
Tb924 O968 2.465 . S
Tb924 O969 2.387 . S
Tb924 O971 2.428 . S
Tb924 O972 2.308 . S
Tb924 O976 2.349 . S
Tb924 O979 2.393 . S
Tb924 C988 2.802 . S
C925 N926 1.379 . S
C925 C928 1.416 . S
C925 C932 1.424 . S
N926 C925 1.379 . S
N926 C929 1.334 . S
N926 Tb935 2.617 . S
C927 C929 1.390 . S
C927 C930 1.339 . S
C927 H947 0.930 . S
C928 C925 1.416 . S
C928 C930 1.416 . S
C928 C934 1.448 . S
C929 N926 1.334 . S
C929 C927 1.390 . S
C929 H940 0.930 . S
C930 C927 1.339 . S
C930 C928 1.416 . S
C930 H951 0.930 . S
C931 C932 1.413 . S
C931 C933 1.427 . S
C931 C937 1.416 . S
C932 C925 1.424 . S
C932 C931 1.413 . S
C932 N936 1.361 . S
C933 C931 1.427 . S
C933 C934 1.328 . S
C933 H948 0.929 . S
C934 C928 1.448 . S
C934 C933 1.328 . S
C934 H949 0.930 . S
Tb935 N926 2.617 . S
Tb935 N936 2.572 . S
Tb935 O970 2.349 . S
Tb935 O973 2.393 . S
Tb935 O974 2.465 1_545 S
Tb935 O975 2.387 . S
Tb935 O977 2.428 1_545 S
Tb935 O978 2.308 . S
Tb935 C999 2.802 1_545 S
N936 C932 1.361 . S
N936 Tb935 2.572 . S
N936 C938 1.340 . S
C937 C931 1.416 . S
C937 C939 1.332 . S
C937 H945 0.931 . S
C938 N936 1.340 . S
C938 C939 1.407 . S
C938 H944 0.930 . S
C939 C937 1.332 . S
C939 C938 1.407 . S
C939 H941 0.929 . S
H940 C929 0.930 . S
H941 C939 0.929 . S
H942 C957 0.930 . S
H943 C964 0.929 . S
H944 C938 0.930 . S
H945 C937 0.931 . S
H946 C960 0.930 . S
H947 C927 0.930 . S
H948 C933 0.929 . S
H949 C934 0.930 . S
H950 C955 0.930 . S
H951 C930 0.930 . S
H952 C963 0.931 . S
N953 Tb924 2.617 . S
N953 C954 1.379 . S
N953 C957 1.334 . S
C954 N953 1.379 . S
C954 C956 1.416 . S
C954 C962 1.424 . S
C955 H950 0.930 . S
C955 C957 1.390 . S
C955 C958 1.339 . S
C956 C954 1.416 . S
C956 C958 1.416 . S
C956 C989 1.448 . S
C957 H942 0.930 . S
C957 N953 1.334 . S
C957 C955 1.390 . S
C958 C955 1.339 . S
C958 C956 1.416 . S
C958 H965 0.930 . S
N959 Tb924 2.572 . S
N959 C960 1.340 . S
N959 C962 1.361 . S
C960 H946 0.930 . S
C960 N959 1.340 . S
C960 C964 1.407 . S
C961 C962 1.413 . S
C961 C963 1.416 . S
C961 C990 1.427 . S
C962 C954 1.424 . S
C962 N959 1.361 . S
C962 C961 1.413 . S
C963 H952 0.931 . S
C963 C961 1.416 . S
C963 C964 1.332 . S
C964 H943 0.929 . S
C964 C960 1.407 . S
C964 C963 1.332 . S
H965 C958 0.930 . S
H966 C989 0.930 . S
H967 C990 0.929 . S
O968 Tb924 2.465 . S
O968 C988 1.264 . S
O969 Tb924 2.387 . S
O969 C980 1.264 . S
O970 Tb935 2.349 . S
O970 C980 1.243 . S
O971 Tb924 2.428 . S
O971 C988 1.256 . S
O972 Tb924 2.308 . S
O972 C987 1.266 . S
O973 Tb935 2.393 . S
O973 C987 1.248 . S
O974 Tb935 2.465 1_565 S
O974 C999 1.264 . S
O975 Tb935 2.387 . S
O975 C991 1.264 . S
O976 Tb924 2.349 . S
O976 C991 1.243 . S
O977 Tb935 2.428 1_565 S
O977 C999 1.256 . S
O978 Tb935 2.308 . S
O978 C998 1.266 . S
O979 Tb924 2.393 . S
O979 C998 1.248 . S
C980 O969 1.264 . S
C980 O970 1.243 . S
C981 C984 1.399 . S
C981 C986 1.383 . S
C981 C988 1.496 . S
C982 C983 1.399 . S
C982 C986 1.389 . S
C983 C982 1.399 . S
C983 C985 1.380 . S
C983 H1000 0.929 . S
C984 C981 1.399 . S
C984 C985 1.392 . S
C984 H1001 0.929 . S
C985 C983 1.380 . S
C985 C984 1.392 . S
C985 H1002 0.929 . S
C986 C981 1.383 . S
C986 C982 1.389 . S
C986 H1003 0.931 . S
C987 O972 1.266 . S
C987 O973 1.248 . S
C988 Tb924 2.802 . S
C988 O968 1.264 . S
C988 O971 1.256 . S
C988 C981 1.496 . S
C989 C956 1.448 . S
C989 H966 0.930 . S
C989 C990 1.328 . S
C990 C961 1.427 . S
C990 H967 0.929 . S
C990 C989 1.328 . S
C991 O975 1.264 . S
C991 O976 1.243 . S
C992 C995 1.399 . S
C992 C996 1.383 . S
C992 C999 1.496 . S
C993 C994 1.399 . S
C993 C996 1.389 . S
C994 C993 1.399 . S
C994 C997 1.380 . S
C994 H1004 0.929 . S
C995 C992 1.399 . S
C995 C997 1.392 . S
C995 H1005 0.929 . S
C996 C992 1.383 . S
C996 C993 1.389 . S
C996 H1006 0.931 . S
C997 C994 1.380 . S
C997 C995 1.392 . S
C997 H1007 0.929 . S
C998 O978 1.266 . S
C998 O979 1.248 . S
C999 Tb935 2.802 1_565 S
C999 O974 1.264 . S
C999 O977 1.256 . S
C999 C992 1.496 . S
H1000 C983 0.929 . S
H1001 C984 0.929 . S
H1002 C985 0.929 . S
H1003 C986 0.931 . S
H1004 C994 0.929 . S
H1005 C995 0.929 . S
H1006 C996 0.931 . S
H1007 C997 0.929 . S
Tb1008 N1037 2.617 . S
Tb1008 N1043 2.572 1_655 S
Tb1008 O1052 2.465 1_655 S
Tb1008 O1053 2.387 . S
Tb1008 O1055 2.428 1_655 S
Tb1008 O1056 2.308 . S
Tb1008 O1060 2.349 . S
Tb1008 O1063 2.393 . S
Tb1008 C1072 2.802 1_655 S
C1009 N1010 1.379 . S
C1009 C1012 1.416 . S
C1009 C1016 1.424 . S
N1010 C1009 1.379 . S
N1010 C1013 1.334 . S
N1010 Tb1019 2.617 . S
C1011 C1013 1.390 . S
C1011 C1014 1.339 . S
C1011 H1031 0.930 . S
C1012 C1009 1.416 . S
C1012 C1014 1.416 . S
C1012 C1018 1.448 . S
C1013 N1010 1.334 . S
C1013 C1011 1.390 . S
C1013 H1024 0.930 . S
C1014 C1011 1.339 . S
C1014 C1012 1.416 . S
C1014 H1035 0.930 . S
C1015 C1016 1.413 . S
C1015 C1017 1.427 . S
C1015 C1021 1.416 . S
C1016 C1009 1.424 . S
C1016 C1015 1.413 . S
C1016 N1020 1.361 . S
C1017 C1015 1.427 . S
C1017 C1018 1.328 . S
C1017 H1032 0.929 . S
C1018 C1012 1.448 . S
C1018 C1017 1.328 . S
C1018 H1033 0.930 . S
Tb1019 N1010 2.617 . S
Tb1019 N1020 2.572 . S
Tb1019 O1054 2.349 . S
Tb1019 O1057 2.393 . S
Tb1019 O1058 2.465 . S
Tb1019 O1059 2.387 . S
Tb1019 O1061 2.428 . S
Tb1019 O1062 2.308 . S
Tb1019 C1083 2.802 . S
N1020 C1016 1.361 . S
N1020 Tb1019 2.572 . S
N1020 C1022 1.340 . S
C1021 C1015 1.416 . S
C1021 C1023 1.332 . S
C1021 H1029 0.931 . S
C1022 N1020 1.340 . S
C1022 C1023 1.407 . S
C1022 H1028 0.930 . S
C1023 C1021 1.332 . S
C1023 C1022 1.407 . S
C1023 H1025 0.929 . S
H1024 C1013 0.930 . S
H1025 C1023 0.929 . S
H1026 C1041 0.930 . S
H1027 C1048 0.929 . S
H1028 C1022 0.930 . S
H1029 C1021 0.931 . S
H1030 C1044 0.930 . S
H1031 C1011 0.930 . S
H1032 C1017 0.929 . S
H1033 C1018 0.930 . S
H1034 C1039 0.930 . S
H1035 C1014 0.930 . S
H1036 C1047 0.931 . S
N1037 Tb1008 2.617 . S
N1037 C1038 1.379 . S
N1037 C1041 1.334 . S
C1038 N1037 1.379 . S
C1038 C1040 1.416 1_556 S
C1038 C1046 1.424 1_655 S
C1039 H1034 0.930 . S
C1039 C1041 1.390 1_554 S
C1039 C1042 1.339 . S
C1040 C1038 1.416 1_554 S
C1040 C1042 1.416 . S
C1040 C1073 1.470 . S
C1041 H1026 0.930 . S
C1041 N1037 1.334 . S
C1041 C1039 1.390 1_556 S
C1042 C1039 1.339 . S
C1042 C1040 1.416 . S
C1042 H1049 0.930 . S
N1043 Tb1008 2.572 1_455 S
N1043 C1044 1.340 . S
N1043 C1046 1.361 . S
C1044 H1030 0.930 . S
C1044 N1043 1.340 . S
C1044 C1048 1.407 . S
C1045 C1046 1.413 1_554 S
C1045 C1047 1.416 . S
C1045 C1074 1.427 . S
C1046 C1038 1.424 1_455 S
C1046 N1043 1.361 . S
C1046 C1045 1.413 1_556 S
C1047 H1036 0.931 . S
C1047 C1045 1.416 . S
C1047 C1048 1.332 1_554 S
C1048 H1027 0.929 . S
C1048 C1044 1.407 . S
C1048 C1047 1.332 1_556 S
H1049 C1042 0.930 . S
H1050 C1073 0.936 . S
H1051 C1074 0.929 . S
O1052 Tb1008 2.465 1_455 S
O1052 C1072 1.264 . S
O1053 Tb1008 2.387 . S
O1053 C1064 1.264 . S
O1054 Tb1019 2.349 . S
O1054 C1064 1.243 . S
O1055 Tb1008 2.428 1_455 S
O1055 C1072 1.256 . S
O1056 Tb1008 2.308 . S
O1056 C1071 1.266 . S
O1057 Tb1019 2.393 . S
O1057 C1071 1.248 . S
O1058 Tb1019 2.465 . S
O1058 C1083 1.264 . S
O1059 Tb1019 2.387 . S
O1059 C1075 1.264 . S
O1060 Tb1008 2.349 . S
O1060 C1075 1.243 . S
O1061 Tb1019 2.428 . S
O1061 C1083 1.256 . S
O1062 Tb1019 2.308 . S
O1062 C1082 1.266 . S
O1063 Tb1008 2.393 . S
O1063 C1082 1.248 . S
C1064 O1053 1.264 . S
C1064 O1054 1.243 . S
C1065 C1068 1.399 . S
C1065 C1070 1.383 . S
C1065 C1072 1.496 . S
C1066 C1067 1.399 . S
C1066 C1070 1.389 . S
C1067 C1066 1.399 . S
C1067 C1069 1.380 . S
C1067 H1084 0.929 . S
C1068 C1065 1.399 . S
C1068 C1069 1.392 . S
C1068 H1085 0.929 . S
C1069 C1067 1.380 . S
C1069 C1068 1.392 . S
C1069 H1086 0.929 . S
C1070 C1065 1.383 . S
C1070 C1066 1.389 . S
C1070 H1087 0.931 . S
C1071 O1056 1.266 . S
C1071 O1057 1.248 . S
C1072 Tb1008 2.802 1_455 S
C1072 O1052 1.264 . S
C1072 O1055 1.256 . S
C1072 C1065 1.496 . S
C1073 C1040 1.470 . S
C1073 H1050 0.936 . S
C1073 C1074 1.303 1_655 S
C1074 C1045 1.427 . S
C1074 H1051 0.929 . S
C1074 C1073 1.303 1_455 S
C1075 O1059 1.264 . S
C1075 O1060 1.243 . S
C1076 C1079 1.399 . S
C1076 C1080 1.383 . S
C1076 C1083 1.496 . S
C1077 C1078 1.399 . S
C1077 C1080 1.389 . S
C1078 C1077 1.399 . S
C1078 C1081 1.380 . S
C1078 H1088 0.929 . S
C1079 C1076 1.399 . S
C1079 C1081 1.392 . S
C1079 H1089 0.929 . S
C1080 C1076 1.383 . S
C1080 C1077 1.389 . S
C1080 H1090 0.931 . S
C1081 C1078 1.380 . S
C1081 C1079 1.392 . S
C1081 H1091 0.929 . S
C1082 O1062 1.266 . S
C1082 O1063 1.248 . S
C1083 Tb1019 2.802 . S
C1083 O1058 1.264 . S
C1083 O1061 1.256 . S
C1083 C1076 1.496 . S
H1084 C1067 0.929 . S
H1085 C1068 0.929 . S
H1086 C1069 0.929 . S
H1087 C1070 0.931 . S
H1088 C1078 0.929 . S
H1089 C1079 0.929 . S
H1090 C1080 0.931 . S
H1091 C1081 0.929 . S
Tb1092 N1121 2.617 . S
Tb1092 N1127 2.572 1_565 S
Tb1092 O1136 2.465 1_565 S
Tb1092 O1137 2.387 . S
Tb1092 O1139 2.420 1_565 S
Tb1092 O1140 2.308 . S
Tb1092 O1144 2.349 . S
Tb1092 O1147 2.393 . S
Tb1092 C1156 2.802 1_565 S
C1093 N1094 1.379 . S
C1093 C1096 1.416 . S
C1093 C1100 1.424 . S
N1094 C1093 1.379 . S
N1094 C1097 1.334 . S
N1094 Tb1103 2.617 . S
C1095 C1097 1.390 . S
C1095 C1098 1.339 . S
C1095 H1115 0.930 . S
C1096 C1093 1.416 . S
C1096 C1098 1.416 . S
C1096 C1102 1.448 . S
C1097 N1094 1.334 . S
C1097 C1095 1.390 . S
C1097 H1108 0.930 . S
C1098 C1095 1.339 . S
C1098 C1096 1.416 . S
C1098 H1119 0.930 . S
C1099 C1100 1.413 . S
C1099 C1101 1.427 . S
C1099 C1105 1.416 . S
C1100 C1093 1.424 . S
C1100 C1099 1.413 . S
C1100 N1104 1.361 . S
C1101 C1099 1.427 . S
C1101 C1102 1.328 . S
C1101 H1116 0.929 . S
C1102 C1096 1.448 . S
C1102 C1101 1.328 . S
C1102 H1117 0.930 . S
Tb1103 N1094 2.617 . S
Tb1103 N1104 2.572 . S
Tb1103 O1138 2.349 . S
Tb1103 O1141 2.393 . S
Tb1103 O1142 2.465 . S
Tb1103 O1143 2.387 . S
Tb1103 O1145 2.428 . S
Tb1103 O1146 2.308 . S
Tb1103 C1167 2.802 . S
N1104 C1100 1.361 . S
N1104 Tb1103 2.572 . S
N1104 C1106 1.340 . S
C1105 C1099 1.416 . S
C1105 C1107 1.332 . S
C1105 H1113 0.931 . S
C1106 N1104 1.340 . S
C1106 C1107 1.407 . S
C1106 H1112 0.930 . S
C1107 C1105 1.332 . S
C1107 C1106 1.407 . S
C1107 H1109 0.929 . S
H1108 C1097 0.930 . S
H1109 C1107 0.929 . S
H1110 C1125 0.930 . S
H1111 C1132 0.929 . S
H1112 C1106 0.930 . S
H1113 C1105 0.931 . S
H1114 C1128 0.930 . S
H1115 C1095 0.930 . S
H1116 C1101 0.929 . S
H1117 C1102 0.930 . S
H1118 C1123 0.930 . S
H1119 C1098 0.930 . S
H1120 C1131 0.961 . S
N1121 Tb1092 2.617 . S
N1121 C1122 1.379 . S
N1121 C1125 1.334 . S
C1122 N1121 1.379 . S
C1122 C1124 1.416 1_556 S
C1122 C1130 1.424 1_565 S
C1123 H1118 0.930 . S
C1123 C1125 1.390 1_554 S
C1123 C1126 1.339 . S
C1124 C1122 1.416 1_554 S
C1124 C1126 1.416 . S
C1124 C1157 1.448 . S
C1125 H1110 0.930 . S
C1125 N1121 1.334 . S
C1125 C1123 1.390 1_556 S
C1126 C1123 1.339 . S
C1126 C1124 1.416 . S
C1126 H1133 0.930 . S
N1127 Tb1092 2.572 1_545 S
N1127 C1128 1.340 . S
N1127 C1130 1.361 . S
C1128 H1114 0.930 . S
C1128 N1127 1.340 . S
C1128 C1132 1.407 . S
C1129 C1130 1.413 1_554 S
C1129 C1131 1.429 . S
C1129 C1158 1.427 . S
C1130 C1122 1.424 1_545 S
C1130 N1127 1.361 . S
C1130 C1129 1.413 1_556 S
C1131 H1120 0.961 . S
C1131 C1129 1.429 . S
C1131 C1132 1.290 1_554 S
C1132 H1111 0.929 . S
C1132 C1128 1.407 . S
C1132 C1131 1.290 1_556 S
H1133 C1126 0.930 . S
H1134 C1157 0.930 . S
H1135 C1158 0.929 . S
O1136 Tb1092 2.465 1_545 S
O1136 C1156 1.264 . S
O1137 Tb1092 2.387 . S
O1137 C1148 1.264 . S
O1138 Tb1103 2.349 . S
O1138 C1148 1.243 . S
O1139 Tb1092 2.420 1_545 S
O1139 C1156 1.269 . S
O1140 Tb1092 2.308 . S
O1140 C1155 1.266 . S
O1141 Tb1103 2.393 . S
O1141 C1155 1.248 . S
O1142 Tb1103 2.465 . S
O1142 C1167 1.264 . S
O1143 Tb1103 2.387 . S
O1143 C1159 1.264 . S
O1144 Tb1092 2.349 . S
O1144 C1159 1.243 . S
O1145 Tb1103 2.428 . S
O1145 C1167 1.256 . S
O1146 Tb1103 2.308 . S
O1146 C1166 1.266 . S
O1147 Tb1092 2.393 . S
O1147 C1166 1.248 . S
C1148 O1137 1.264 . S
C1148 O1138 1.243 . S
C1149 C1152 1.399 . S
C1149 C1154 1.383 . S
C1149 C1156 1.496 . S
C1150 C1151 1.399 . S
C1150 C1154 1.389 . S
C1151 C1150 1.399 . S
C1151 C1153 1.380 . S
C1151 H1168 0.929 . S
C1152 C1149 1.399 . S
C1152 C1153 1.392 . S
C1152 H1169 0.929 . S
C1153 C1151 1.380 . S
C1153 C1152 1.392 . S
C1153 H1170 0.929 . S
C1154 C1149 1.383 . S
C1154 C1150 1.389 . S
C1154 H1171 0.931 . S
C1155 O1140 1.266 . S
C1155 O1141 1.248 . S
C1156 Tb1092 2.802 1_545 S
C1156 O1136 1.264 . S
C1156 O1139 1.269 . S
C1156 C1149 1.496 . S
C1157 C1124 1.448 . S
C1157 H1134 0.930 . S
C1157 C1158 1.328 1_565 S
C1158 C1129 1.427 . S
C1158 H1135 0.929 . S
C1158 C1157 1.328 1_545 S
C1159 O1143 1.264 . S
C1159 O1144 1.243 . S
C1160 C1163 1.399 . S
C1160 C1164 1.383 . S
C1160 C1167 1.496 . S
C1161 C1162 1.399 . S
C1161 C1164 1.389 . S
C1162 C1161 1.399 . S
C1162 C1165 1.380 . S
C1162 H1172 0.929 . S
C1163 C1160 1.399 . S
C1163 C1165 1.392 . S
C1163 H1173 0.929 . S
C1164 C1160 1.383 . S
C1164 C1161 1.389 . S
C1164 H1174 0.931 . S
C1165 C1162 1.380 . S
C1165 C1163 1.392 . S
C1165 H1175 0.929 . S
C1166 O1146 1.266 . S
C1166 O1147 1.248 . S
C1167 Tb1103 2.802 . S
C1167 O1142 1.264 . S
C1167 O1145 1.256 . S
C1167 C1160 1.496 . S
H1168 C1151 0.929 . S
H1169 C1152 0.929 . S
H1170 C1153 0.929 . S
H1171 C1154 0.931 . S
H1172 C1162 0.929 . S
H1173 C1163 0.929 . S
H1174 C1164 0.931 . S
H1175 C1165 0.929 . S
Tb1176 N1205 2.617 . S
Tb1176 N1211 2.572 . S
Tb1176 O1220 2.465 . S
Tb1176 O1221 2.387 . S
Tb1176 O1223 2.428 . S
Tb1176 O1224 2.308 . S
Tb1176 O1228 2.349 . S
Tb1176 O1231 2.393 . S
Tb1176 C1240 2.802 . S
C1177 N1178 1.379 . S
C1177 C1180 1.416 1_556 S
C1177 C1184 1.424 . S
N1178 C1177 1.379 . S
N1178 C1181 1.334 . S
N1178 Tb1187 2.617 . S
C1179 C1181 1.390 1_554 S
C1179 C1182 1.339 . S
C1179 H1199 0.930 . S
C1180 C1177 1.416 1_554 S
C1180 C1182 1.416 . S
C1180 C1186 1.448 . S
C1181 N1178 1.334 . S
C1181 C1179 1.390 1_556 S
C1181 H1192 0.930 . S
C1182 C1179 1.339 . S
C1182 C1180 1.416 . S
C1182 H1203 0.930 . S
C1183 C1184 1.413 . S
C1183 C1185 1.427 . S
C1183 C1189 1.416 . S
C1184 C1177 1.424 . S
C1184 C1183 1.413 . S
C1184 N1188 1.361 . S
C1185 C1183 1.427 . S
C1185 C1186 1.328 1_556 S
C1185 H1200 0.927 1_556 S
C1186 C1180 1.448 . S
C1186 C1185 1.328 1_554 S
C1186 H1201 0.930 . S
Tb1187 N1178 2.617 . S
Tb1187 N1188 2.572 . S
Tb1187 O1222 2.349 . S
Tb1187 O1225 2.393 . S
Tb1187 O1226 2.465 . S
Tb1187 O1227 2.387 . S
Tb1187 O1229 2.428 . S
Tb1187 O1230 2.308 . S
Tb1187 C1251 2.802 . S
N1188 C1184 1.361 . S
N1188 Tb1187 2.572 . S
N1188 C1190 1.340 . S
C1189 C1183 1.416 . S
C1189 C1191 1.332 . S
C1189 H1197 0.931 . S
C1190 N1188 1.340 . S
C1190 C1191 1.407 . S
C1190 H1196 0.930 . S
C1191 C1189 1.332 . S
C1191 C1190 1.407 . S
C1191 H1193 0.929 . S
H1192 C1181 0.930 . S
H1193 C1191 0.929 . S
H1194 C1209 0.930 . S
H1195 C1216 0.929 . S
H1196 C1190 0.930 . S
H1197 C1189 0.931 . S
H1198 C1212 0.930 . S
H1199 C1179 0.930 . S
H1200 C1185 0.927 1_554 S
H1201 C1186 0.930 . S
H1202 C1207 0.930 . S
H1203 C1182 0.930 . S
H1204 C1215 0.931 . S
N1205 Tb1176 2.617 . S
N1205 C1206 1.379 . S
N1205 C1209 1.334 . S
C1206 N1205 1.379 . S
C1206 C1208 1.416 . S
C1206 C1214 1.424 . S
C1207 H1202 0.930 . S
C1207 C1209 1.390 . S
C1207 C1210 1.339 . S
C1208 C1206 1.416 . S
C1208 C1210 1.416 . S
C1208 C1241 1.448 . S
C1209 H1194 0.930 . S
C1209 N1205 1.334 . S
C1209 C1207 1.390 . S
C1210 C1207 1.339 . S
C1210 C1208 1.416 . S
C1210 H1217 0.930 . S
N1211 Tb1176 2.572 . S
N1211 C1212 1.340 . S
N1211 C1214 1.361 . S
C1212 H1198 0.930 . S
C1212 N1211 1.340 . S
C1212 C1216 1.407 . S
C1213 C1214 1.413 . S
C1213 C1215 1.416 . S
C1213 C1242 1.427 . S
C1214 C1206 1.424 . S
C1214 N1211 1.361 . S
C1214 C1213 1.413 . S
C1215 H1204 0.931 . S
C1215 C1213 1.416 . S
C1215 C1216 1.332 . S
C1216 H1195 0.929 . S
C1216 C1212 1.407 . S
C1216 C1215 1.332 . S
H1217 C1210 0.930 . S
H1218 C1241 0.930 . S
H1219 C1242 0.929 . S
O1220 Tb1176 2.465 . S
O1220 C1240 1.264 . S
O1221 Tb1176 2.387 . S
O1221 C1232 1.264 . S
O1222 Tb1187 2.349 . S
O1222 C1232 1.243 . S
O1223 Tb1176 2.428 . S
O1223 C1240 1.256 . S
O1224 Tb1176 2.308 . S
O1224 C1239 1.266 . S
O1225 Tb1187 2.393 . S
O1225 C1239 1.248 . S
O1226 Tb1187 2.465 . S
O1226 C1251 1.264 . S
O1227 Tb1187 2.387 . S
O1227 C1243 1.264 . S
O1228 Tb1176 2.349 . S
O1228 C1243 1.243 . S
O1229 Tb1187 2.428 . S
O1229 C1251 1.256 . S
O1230 Tb1187 2.308 . S
O1230 C1250 1.266 . S
O1231 Tb1176 2.393 . S
O1231 C1250 1.248 . S
C1232 O1221 1.264 . S
C1232 O1222 1.243 . S
C1233 C1236 1.399 . S
C1233 C1238 1.383 . S
C1233 C1240 1.496 . S
C1234 C1235 1.399 . S
C1234 C1238 1.389 . S
C1235 C1234 1.399 . S
C1235 C1237 1.380 . S
C1235 H1252 0.929 . S
C1236 C1233 1.399 . S
C1236 C1237 1.392 . S
C1236 H1253 0.929 . S
C1237 C1235 1.380 . S
C1237 C1236 1.392 . S
C1237 H1254 0.929 . S
C1238 C1233 1.383 . S
C1238 C1234 1.389 . S
C1238 H1255 0.931 . S
C1239 O1224 1.266 . S
C1239 O1225 1.248 . S
C1240 Tb1176 2.802 . S
C1240 O1220 1.264 . S
C1240 O1223 1.256 . S
C1240 C1233 1.496 . S
C1241 C1208 1.448 . S
C1241 H1218 0.930 . S
C1241 C1242 1.328 . S
C1242 C1213 1.427 . S
C1242 H1219 0.929 . S
C1242 C1241 1.328 . S
C1243 O1227 1.264 . S
C1243 O1228 1.243 . S
C1244 C1247 1.399 . S
C1244 C1248 1.383 . S
C1244 C1251 1.496 . S
C1245 C1246 1.399 . S
C1245 C1248 1.389 . S
C1246 C1245 1.399 . S
C1246 C1249 1.380 . S
C1246 H1256 0.929 . S
C1247 C1244 1.399 . S
C1247 C1249 1.392 . S
C1247 H1257 0.929 . S
C1248 C1244 1.383 . S
C1248 C1245 1.389 . S
C1248 H1258 0.931 . S
C1249 C1246 1.380 . S
C1249 C1247 1.392 . S
C1249 H1259 0.929 . S
C1250 O1230 1.266 . S
C1250 O1231 1.248 . S
C1251 Tb1187 2.802 . S
C1251 O1226 1.264 . S
C1251 O1229 1.256 . S
C1251 C1244 1.496 . S
H1252 C1235 0.929 . S
H1253 C1236 0.929 . S
H1254 C1237 0.929 . S
H1255 C1238 0.931 . S
H1256 C1246 0.929 . S
H1257 C1247 0.929 . S
H1258 C1248 0.931 . S
H1259 C1249 0.929 . S
Tb1260 N1289 2.617 . S
Tb1260 N1295 2.572 . S
Tb1260 O1304 2.465 . S
Tb1260 O1305 2.387 . S
Tb1260 O1307 2.428 . S
Tb1260 O1308 2.308 . S
Tb1260 O1312 2.349 . S
Tb1260 O1315 2.393 . S
Tb1260 C1324 2.802 . S
C1261 N1262 1.379 . S
C1261 C1264 1.416 1_556 S
C1261 C1268 1.424 . S
N1262 C1261 1.379 . S
N1262 C1265 1.334 . S
N1262 Tb1271 2.617 . S
C1263 C1265 1.390 1_554 S
C1263 C1266 1.339 . S
C1263 H1283 0.930 . S
C1264 C1261 1.416 1_554 S
C1264 C1266 1.416 . S
C1264 C1270 1.448 . S
C1265 N1262 1.334 . S
C1265 C1263 1.390 1_556 S
C1265 H1276 0.930 . S
C1266 C1263 1.339 . S
C1266 C1264 1.416 . S
C1266 H1287 0.930 . S
C1267 C1268 1.413 . S
C1267 C1269 1.427 . S
C1267 C1273 1.416 . S
C1268 C1261 1.424 . S
C1268 C1267 1.413 . S
C1268 N1272 1.361 . S
C1269 C1267 1.427 . S
C1269 C1270 1.328 1_556 S
C1269 H1284 0.931 . S
C1270 C1264 1.448 . S
C1270 C1269 1.328 1_554 S
C1270 H1285 0.930 . S
Tb1271 N1262 2.617 . S
Tb1271 N1272 2.572 . S
Tb1271 O1306 2.349 . S
Tb1271 O1309 2.393 . S
Tb1271 O1310 2.465 . S
Tb1271 O1311 2.387 . S
Tb1271 O1313 2.428 . S
Tb1271 O1314 2.308 . S
Tb1271 C1335 2.802 . S
N1272 C1268 1.361 . S
N1272 Tb1271 2.572 . S
N1272 C1274 1.340 . S
C1273 C1267 1.416 . S
C1273 C1275 1.332 . S
C1273 H1281 0.931 . S
C1274 N1272 1.340 . S
C1274 C1275 1.407 . S
C1274 H1280 0.930 . S
C1275 C1273 1.332 . S
C1275 C1274 1.407 . S
C1275 H1277 0.929 . S
H1276 C1265 0.930 . S
H1277 C1275 0.929 . S
H1278 C1293 0.930 . S
H1279 C1300 0.929 . S
H1280 C1274 0.930 . S
H1281 C1273 0.931 . S
H1282 C1296 0.930 . S
H1283 C1263 0.930 . S
H1284 C1269 0.931 . S
H1285 C1270 0.930 . S
H1286 C1291 0.930 . S
H1287 C1266 0.930 . S
H1288 C1299 0.931 . S
N1289 Tb1260 2.617 . S
N1289 C1290 1.379 . S
N1289 C1293 1.334 . S
C1290 N1289 1.379 . S
C1290 C1292 1.416 . S
C1290 C1298 1.424 . S
C1291 H1286 0.930 . S
C1291 C1293 1.390 . S
C1291 C1294 1.339 . S
C1292 C1290 1.416 . S
C1292 C1294 1.416 . S
C1292 C1325 1.448 . S
C1293 H1278 0.930 . S
C1293 N1289 1.334 . S
C1293 C1291 1.390 . S
C1294 C1291 1.339 . S
C1294 C1292 1.416 . S
C1294 H1301 0.930 . S
N1295 Tb1260 2.572 . S
N1295 C1296 1.340 . S
N1295 C1298 1.361 . S
C1296 H1282 0.930 . S
C1296 N1295 1.340 . S
C1296 C1300 1.407 . S
C1297 C1298 1.413 . S
C1297 C1299 1.416 . S
C1297 C1326 1.427 . S
C1298 C1290 1.424 . S
C1298 N1295 1.361 . S
C1298 C1297 1.413 . S
C1299 H1288 0.931 . S
C1299 C1297 1.416 . S
C1299 C1300 1.332 . S
C1300 H1279 0.929 . S
C1300 C1296 1.407 . S
C1300 C1299 1.332 . S
H1301 C1294 0.930 . S
H1302 C1325 0.930 . S
H1303 C1326 0.929 . S
O1304 Tb1260 2.465 . S
O1304 C1324 1.264 . S
O1305 Tb1260 2.387 . S
O1305 C1316 1.264 . S
O1306 Tb1271 2.349 . S
O1306 C1316 1.243 . S
O1307 Tb1260 2.428 . S
O1307 C1324 1.256 . S
O1308 Tb1260 2.308 . S
O1308 C1323 1.266 . S
O1309 Tb1271 2.393 . S
O1309 C1323 1.248 . S
O1310 Tb1271 2.465 . S
O1310 C1335 1.264 . S
O1311 Tb1271 2.387 . S
O1311 C1327 1.264 . S
O1312 Tb1260 2.349 . S
O1312 C1327 1.243 . S
O1313 Tb1271 2.428 . S
O1313 C1335 1.256 . S
O1314 Tb1271 2.308 . S
O1314 C1334 1.266 . S
O1315 Tb1260 2.393 . S
O1315 C1334 1.248 . S
C1316 O1305 1.264 . S
C1316 O1306 1.243 . S
C1317 C1320 1.399 . S
C1317 C1322 1.383 . S
C1317 C1324 1.496 . S
C1318 C1319 1.399 . S
C1318 C1322 1.389 . S
C1319 C1318 1.399 . S
C1319 C1321 1.380 . S
C1319 H1336 0.929 . S
C1320 C1317 1.399 . S
C1320 C1321 1.392 . S
C1320 H1337 0.929 . S
C1321 C1319 1.380 . S
C1321 C1320 1.392 . S
C1321 H1338 0.929 . S
C1322 C1317 1.383 . S
C1322 C1318 1.389 . S
C1322 H1339 0.931 . S
C1323 O1308 1.266 . S
C1323 O1309 1.248 . S
C1324 Tb1260 2.802 . S
C1324 O1304 1.264 . S
C1324 O1307 1.256 . S
C1324 C1317 1.496 . S
C1325 C1292 1.448 . S
C1325 H1302 0.930 . S
C1325 C1326 1.328 . S
C1326 C1297 1.427 . S
C1326 H1303 0.929 . S
C1326 C1325 1.328 . S
C1327 O1311 1.264 . S
C1327 O1312 1.243 . S
C1328 C1331 1.399 . S
C1328 C1332 1.383 . S
C1328 C1335 1.496 . S
C1329 C1330 1.399 . S
C1329 C1332 1.389 . S
C1330 C1329 1.399 . S
C1330 C1333 1.380 . S
C1330 H1340 0.929 . S
C1331 C1328 1.399 . S
C1331 C1333 1.392 . S
C1331 H1341 0.929 . S
C1332 C1328 1.383 . S
C1332 C1329 1.389 . S
C1332 H1342 0.931 . S
C1333 C1330 1.380 . S
C1333 C1331 1.392 . S
C1333 H1343 0.929 . S
C1334 O1314 1.266 . S
C1334 O1315 1.248 . S
C1335 Tb1271 2.802 . S
C1335 O1310 1.264 . S
C1335 O1313 1.256 . S
C1335 C1328 1.496 . S
H1336 C1319 0.929 . S
H1337 C1320 0.929 . S
H1338 C1321 0.929 . S
H1339 C1322 0.931 . S
H1340 C1330 0.929 . S
H1341 C1331 0.929 . S
H1342 C1332 0.931 . S
H1343 C1333 0.929 . S
C1344 C1345 1.349 . S
C1344 C1346 1.327 . S
C1344 H1369 0.950 . S
C1345 C1344 1.349 . S
C1345 C1361 1.349 . S
C1346 C1344 1.327 . S
C1346 C1365 1.429 . S
C1346 H1370 0.950 . S
C1347 C1364 1.574 . S
C1347 C1366 1.368 . S
C1347 H1371 0.949 . S
H1348 C1352 0.949 . S
C1349 C1350 1.349 . S
C1349 C1351 1.327 . S
C1349 H1372 0.950 . S
C1350 C1349 1.349 . S
C1350 C1362 1.349 . S
C1351 C1349 1.327 . S
C1351 C1367 1.429 . S
C1351 H1373 0.950 . S
C1352 H1348 0.949 . S
C1352 C1360 1.574 . S
C1352 C1368 1.368 . S
H1353 C1361 0.950 . S
H1354 C1359 0.950 . S
H1355 C1360 0.949 . S
H1356 C1362 0.950 . S
H1357 C1363 0.950 . S
H1358 C1364 0.949 . S
C1359 H1354 0.950 . S
C1359 C1361 1.327 . S
C1359 C1365 1.429 . S
C1360 C1352 1.574 . S
C1360 H1355 0.949 . S
C1360 C1366 1.368 . S
C1361 C1345 1.349 . S
C1361 H1353 0.950 . S
C1361 C1359 1.327 . S
C1362 C1350 1.349 . S
C1362 H1356 0.950 . S
C1362 C1363 1.327 . S
C1363 H1357 0.950 . S
C1363 C1362 1.327 . S
C1363 C1367 1.429 . S
C1364 C1347 1.574 . S
C1364 H1358 0.949 . S
C1364 C1368 1.368 . S
C1365 C1346 1.429 . S
C1365 C1359 1.429 . S
C1365 C1366 1.523 . S
C1366 C1347 1.368 . S
C1366 C1360 1.368 . S
C1366 C1365 1.523 . S
C1367 C1351 1.429 . S
C1367 C1363 1.429 . S
C1367 C1368 1.523 . S
C1368 C1352 1.368 . S
C1368 C1364 1.368 . S
C1368 C1367 1.523 . S
H1369 C1344 0.950 . S
H1370 C1346 0.950 . S
H1371 C1347 0.949 . S
H1372 C1349 0.950 . S
H1373 C1351 0.950 . S
C1374 C1375 1.349 . S
C1374 C1376 1.327 . S
C1374 H1399 0.950 . S
C1375 C1374 1.349 . S
C1375 C1391 1.349 . S
C1376 C1374 1.327 . S
C1376 C1395 1.429 . S
C1376 H1400 0.950 . S
C1377 C1394 1.574 . S
C1377 C1396 1.368 . S
C1377 H1401 0.949 . S
H1378 C1382 0.949 . S
C1379 C1380 1.349 . S
C1379 C1381 1.327 . S
C1379 H1402 0.950 . S
C1380 C1379 1.349 . S
C1380 C1392 1.349 . S
C1381 C1379 1.327 . S
C1381 C1397 1.429 . S
C1381 H1403 0.950 . S
C1382 H1378 0.949 . S
C1382 C1390 1.574 . S
C1382 C1398 1.368 . S
H1383 C1391 0.950 . S
H1384 C1389 0.950 . S
H1385 C1390 0.949 . S
H1386 C1392 0.950 . S
H1387 C1393 0.950 . S
H1388 C1394 0.949 . S
C1389 H1384 0.950 . S
C1389 C1391 1.327 . S
C1389 C1395 1.429 . S
C1390 C1382 1.574 . S
C1390 H1385 0.949 . S
C1390 C1396 1.368 . S
C1391 C1375 1.349 . S
C1391 H1383 0.950 . S
C1391 C1389 1.327 . S
C1392 C1380 1.349 . S
C1392 H1386 0.950 . S
C1392 C1393 1.327 . S
C1393 H1387 0.950 . S
C1393 C1392 1.327 . S
C1393 C1397 1.429 . S
C1394 C1377 1.574 . S
C1394 H1388 0.949 . S
C1394 C1398 1.368 . S
C1395 C1376 1.429 . S
C1395 C1389 1.429 . S
C1395 C1396 1.523 . S
C1396 C1377 1.368 . S
C1396 C1390 1.368 . S
C1396 C1395 1.523 . S
C1397 C1381 1.429 . S
C1397 C1393 1.429 . S
C1397 C1398 1.523 . S
C1398 C1382 1.368 . S
C1398 C1394 1.368 . S
C1398 C1397 1.523 . S
H1399 C1374 0.950 . S
H1400 C1376 0.950 . S
H1401 C1377 0.949 . S
H1402 C1379 0.950 . S
H1403 C1381 0.950 . S
C1404 C1405 1.349 . S
C1404 C1406 1.327 . S
C1404 H1429 0.950 . S
C1405 C1404 1.349 . S
C1405 C1421 1.349 . S
C1406 C1404 1.327 . S
C1406 C1425 1.429 . S
C1406 H1430 0.950 . S
C1407 C1424 1.574 . S
C1407 C1426 1.368 . S
C1407 H1431 0.949 . S
H1408 C1412 0.949 . S
C1409 C1410 1.349 . S
C1409 C1411 1.327 . S
C1409 H1432 0.950 . S
C1410 C1409 1.349 . S
C1410 C1422 1.349 . S
C1411 C1409 1.327 . S
C1411 C1427 1.429 . S
C1411 H1433 0.950 . S
C1412 H1408 0.949 . S
C1412 C1420 1.574 . S
C1412 C1428 1.368 . S
H1413 C1421 0.950 . S
H1414 C1419 0.950 . S
H1415 C1420 0.949 . S
H1416 C1422 0.950 . S
H1417 C1423 0.950 . S
H1418 C1424 0.949 . S
C1419 H1414 0.950 . S
C1419 C1421 1.327 . S
C1419 C1425 1.429 . S
C1420 C1412 1.574 . S
C1420 H1415 0.949 . S
C1420 C1426 1.368 . S
C1421 C1405 1.349 . S
C1421 H1413 0.950 . S
C1421 C1419 1.327 . S
C1422 C1410 1.349 . S
C1422 H1416 0.950 . S
C1422 C1423 1.327 . S
C1423 H1417 0.950 . S
C1423 C1422 1.327 . S
C1423 C1427 1.429 . S
C1424 C1407 1.574 . S
C1424 H1418 0.949 . S
C1424 C1428 1.368 . S
C1425 C1406 1.429 . S
C1425 C1419 1.429 . S
C1425 C1426 1.523 . S
C1426 C1407 1.368 . S
C1426 C1420 1.368 . S
C1426 C1425 1.523 . S
C1427 C1411 1.429 . S
C1427 C1423 1.429 . S
C1427 C1428 1.523 . S
C1428 C1412 1.368 . S
C1428 C1424 1.368 . S
C1428 C1427 1.523 . S
H1429 C1404 0.950 . S
H1430 C1406 0.950 . S
H1431 C1407 0.949 . S
H1432 C1409 0.950 . S
H1433 C1411 0.950 . S
C1434 C1435 1.349 . S
C1434 C1436 1.327 . S
C1434 H1459 0.950 . S
C1435 C1434 1.349 . S
C1435 C1451 1.349 . S
C1436 C1434 1.327 . S
C1436 C1455 1.429 . S
C1436 H1460 0.950 . S
C1437 C1454 1.574 . S
C1437 C1456 1.368 . S
C1437 H1461 0.949 . S
H1438 C1442 0.949 . S
C1439 C1440 1.349 . S
C1439 C1441 1.327 . S
C1439 H1462 0.950 . S
C1440 C1439 1.349 . S
C1440 C1452 1.349 . S
C1441 C1439 1.327 . S
C1441 C1457 1.429 . S
C1441 H1463 0.950 . S
C1442 H1438 0.949 . S
C1442 C1450 1.574 . S
C1442 C1458 1.368 . S
H1443 C1451 0.950 . S
H1444 C1449 0.950 . S
H1445 C1450 0.949 . S
H1446 C1452 0.950 . S
H1447 C1453 0.950 . S
H1448 C1454 0.949 . S
C1449 H1444 0.950 . S
C1449 C1451 1.327 . S
C1449 C1455 1.429 . S
C1450 C1442 1.574 . S
C1450 H1445 0.949 . S
C1450 C1456 1.368 . S
C1451 C1435 1.349 . S
C1451 H1443 0.950 . S
C1451 C1449 1.327 . S
C1452 C1440 1.349 . S
C1452 H1446 0.950 . S
C1452 C1453 1.327 . S
C1453 H1447 0.950 . S
C1453 C1452 1.327 . S
C1453 C1457 1.429 . S
C1454 C1437 1.574 . S
C1454 H1448 0.949 . S
C1454 C1458 1.368 . S
C1455 C1436 1.429 . S
C1455 C1449 1.429 . S
C1455 C1456 1.523 . S
C1456 C1437 1.368 . S
C1456 C1450 1.368 . S
C1456 C1455 1.523 . S
C1457 C1441 1.429 . S
C1457 C1453 1.429 . S
C1457 C1458 1.523 . S
C1458 C1442 1.368 . S
C1458 C1454 1.368 . S
C1458 C1457 1.523 . S
H1459 C1434 0.950 . S
H1460 C1436 0.950 . S
H1461 C1437 0.949 . S
H1462 C1439 0.950 . S
H1463 C1441 0.950 . S
C1464 C1465 1.349 . S
C1464 C1466 1.327 . S
C1464 H1489 0.950 . S
C1465 C1464 1.349 . S
C1465 C1481 1.349 . S
C1466 C1464 1.327 . S
C1466 C1485 1.429 . S
C1466 H1490 0.950 . S
C1467 C1484 1.574 . S
C1467 C1486 1.368 . S
C1467 H1491 0.949 . S
H1468 C1472 0.949 . S
C1469 C1470 1.349 . S
C1469 C1471 1.327 . S
C1469 H1492 0.950 . S
C1470 C1469 1.349 . S
C1470 C1482 1.349 . S
C1471 C1469 1.327 . S
C1471 C1487 1.429 . S
C1471 H1493 0.950 . S
C1472 H1468 0.949 . S
C1472 C1480 1.574 . S
C1472 C1488 1.368 . S
H1473 C1481 0.950 . S
H1474 C1479 0.950 . S
H1475 C1480 0.949 . S
H1476 C1482 0.950 . S
H1477 C1483 0.950 . S
H1478 C1484 0.949 . S
C1479 H1474 0.950 . S
C1479 C1481 1.327 . S
C1479 C1485 1.429 . S
C1480 C1472 1.574 . S
C1480 H1475 0.949 . S
C1480 C1486 1.368 . S
C1481 C1465 1.349 . S
C1481 H1473 0.950 . S
C1481 C1479 1.327 . S
C1482 C1470 1.349 . S
C1482 H1476 0.950 . S
C1482 C1483 1.327 . S
C1483 H1477 0.950 . S
C1483 C1482 1.327 . S
C1483 C1487 1.429 . S
C1484 C1467 1.574 . S
C1484 H1478 0.949 . S
C1484 C1488 1.368 . S
C1485 C1466 1.429 . S
C1485 C1479 1.429 . S
C1485 C1486 1.523 . S
C1486 C1467 1.368 . S
C1486 C1480 1.368 . S
C1486 C1485 1.523 . S
C1487 C1471 1.429 . S
C1487 C1483 1.429 . S
C1487 C1488 1.523 . S
C1488 C1472 1.368 . S
C1488 C1484 1.368 . S
C1488 C1487 1.523 . S
H1489 C1464 0.950 . S
H1490 C1466 0.950 . S
H1491 C1467 0.949 . S
H1492 C1469 0.950 . S
H1493 C1471 0.950 . S
C1494 C1495 1.349 . S
C1494 C1496 1.327 . S
C1494 H1519 0.950 . S
C1495 C1494 1.349 . S
C1495 C1511 1.349 . S
C1496 C1494 1.327 . S
C1496 C1515 1.429 . S
C1496 H1520 0.950 . S
C1497 C1514 1.574 . S
C1497 C1516 1.368 . S
C1497 H1521 0.949 . S
H1498 C1502 0.949 . S
C1499 C1500 1.349 . S
C1499 C1501 1.327 . S
C1499 H1522 0.950 . S
C1500 C1499 1.349 . S
C1500 C1512 1.349 . S
C1501 C1499 1.327 . S
C1501 C1517 1.429 . S
C1501 H1523 0.950 . S
C1502 H1498 0.949 . S
C1502 C1510 1.574 . S
C1502 C1518 1.368 . S
H1503 C1511 0.950 . S
H1504 C1509 0.950 . S
H1505 C1510 0.949 . S
H1506 C1512 0.950 . S
H1507 C1513 0.950 . S
H1508 C1514 0.949 . S
C1509 H1504 0.950 . S
C1509 C1511 1.327 . S
C1509 C1515 1.429 . S
C1510 C1502 1.574 . S
C1510 H1505 0.949 . S
C1510 C1516 1.368 . S
C1511 C1495 1.349 . S
C1511 H1503 0.950 . S
C1511 C1509 1.327 . S
C1512 C1500 1.349 . S
C1512 H1506 0.950 . S
C1512 C1513 1.327 . S
C1513 H1507 0.950 . S
C1513 C1512 1.327 . S
C1513 C1517 1.429 . S
C1514 C1497 1.574 . S
C1514 H1508 0.949 . S
C1514 C1518 1.368 . S
C1515 C1496 1.429 . S
C1515 C1509 1.429 . S
C1515 C1516 1.523 . S
C1516 C1497 1.368 . S
C1516 C1510 1.368 . S
C1516 C1515 1.523 . S
C1517 C1501 1.429 . S
C1517 C1513 1.429 . S
C1517 C1518 1.523 . S
C1518 C1502 1.368 . S
C1518 C1514 1.368 . S
C1518 C1517 1.523 . S
H1519 C1494 0.950 . S
H1520 C1496 0.950 . S
H1521 C1497 0.949 . S
H1522 C1499 0.950 . S
H1523 C1501 0.950 . S
C1524 C1525 1.349 . S
C1524 C1526 1.327 . S
C1524 H1549 0.950 . S
C1525 C1524 1.349 . S
C1525 C1541 1.349 . S
C1526 C1524 1.327 . S
C1526 C1545 1.429 . S
C1526 H1550 0.950 . S
C1527 C1544 1.574 . S
C1527 C1546 1.368 . S
C1527 H1551 0.949 . S
H1528 C1532 0.949 . S
C1529 C1530 1.349 . S
C1529 C1531 1.327 . S
C1529 H1552 0.950 . S
C1530 C1529 1.349 . S
C1530 C1542 1.349 . S
C1531 C1529 1.327 . S
C1531 C1547 1.429 . S
C1531 H1553 0.950 . S
C1532 H1528 0.949 . S
C1532 C1540 1.574 . S
C1532 C1548 1.368 . S
H1533 C1541 0.950 . S
H1534 C1539 0.950 . S
H1535 C1540 0.949 . S
H1536 C1542 0.950 . S
H1537 C1543 0.950 . S
H1538 C1544 0.949 . S
C1539 H1534 0.950 . S
C1539 C1541 1.327 . S
C1539 C1545 1.429 . S
C1540 C1532 1.574 . S
C1540 H1535 0.949 . S
C1540 C1546 1.368 . S
C1541 C1525 1.349 . S
C1541 H1533 0.950 . S
C1541 C1539 1.327 . S
C1542 C1530 1.349 . S
C1542 H1536 0.950 . S
C1542 C1543 1.327 . S
C1543 H1537 0.950 . S
C1543 C1542 1.327 . S
C1543 C1547 1.429 . S
C1544 C1527 1.574 . S
C1544 H1538 0.949 . S
C1544 C1548 1.368 . S
C1545 C1526 1.429 . S
C1545 C1539 1.429 . S
C1545 C1546 1.523 . S
C1546 C1527 1.368 . S
C1546 C1540 1.368 . S
C1546 C1545 1.523 . S
C1547 C1531 1.429 . S
C1547 C1543 1.429 . S
C1547 C1548 1.523 . S
C1548 C1532 1.368 . S
C1548 C1544 1.368 . S
C1548 C1547 1.523 . S
H1549 C1524 0.950 . S
H1550 C1526 0.950 . S
H1551 C1527 0.949 . S
H1552 C1529 0.950 . S
H1553 C1531 0.950 . S
C1554 C1555 1.349 . S
C1554 C1556 1.327 . S
C1554 H1579 0.950 . S
C1555 C1554 1.349 . S
C1555 C1571 1.349 . S
C1556 C1554 1.327 . S
C1556 C1575 1.429 . S
C1556 H1580 0.950 . S
C1557 C1574 1.574 . S
C1557 C1576 1.368 . S
C1557 H1581 0.949 . S
H1558 C1562 0.949 . S
C1559 C1560 1.349 . S
C1559 C1561 1.327 . S
C1559 H1582 0.950 . S
C1560 C1559 1.349 . S
C1560 C1572 1.349 . S
C1561 C1559 1.327 . S
C1561 C1577 1.429 . S
C1561 H1583 0.950 . S
C1562 H1558 0.949 . S
C1562 C1570 1.574 . S
C1562 C1578 1.368 . S
H1563 C1571 0.950 . S
H1564 C1569 0.950 . S
H1565 C1570 0.949 . S
H1566 C1572 0.950 . S
H1567 C1573 0.950 . S
H1568 C1574 0.949 . S
C1569 H1564 0.950 . S
C1569 C1571 1.327 . S
C1569 C1575 1.429 . S
C1570 C1562 1.574 . S
C1570 H1565 0.949 . S
C1570 C1576 1.368 . S
C1571 C1555 1.349 . S
C1571 H1563 0.950 . S
C1571 C1569 1.327 . S
C1572 C1560 1.349 . S
C1572 H1566 0.950 . S
C1572 C1573 1.327 . S
C1573 H1567 0.950 . S
C1573 C1572 1.327 . S
C1573 C1577 1.429 . S
C1574 C1557 1.574 . S
C1574 H1568 0.949 . S
C1574 C1578 1.368 . S
C1575 C1556 1.429 . S
C1575 C1569 1.429 . S
C1575 C1576 1.523 . S
C1576 C1557 1.368 . S
C1576 C1570 1.368 . S
C1576 C1575 1.523 . S
C1577 C1561 1.429 . S
C1577 C1573 1.429 . S
C1577 C1578 1.523 . S
C1578 C1562 1.368 . S
C1578 C1574 1.368 . S
C1578 C1577 1.523 . S
H1579 C1554 0.950 . S
H1580 C1556 0.950 . S
H1581 C1557 0.949 . S
H1582 C1559 0.950 . S
H1583 C1561 0.950 . S
C1584 C1585 1.349 . S
C1584 C1586 1.327 . S
C1584 H1609 0.950 . S
C1585 C1584 1.349 . S
C1585 C1601 1.349 . S
C1586 C1584 1.327 . S
C1586 C1605 1.429 . S
C1586 H1610 0.950 . S
C1587 C1604 1.574 . S
C1587 C1606 1.368 . S
C1587 H1611 0.949 . S
H1588 C1592 0.949 . S
C1589 C1590 1.349 . S
C1589 C1591 1.327 . S
C1589 H1612 0.950 1_545 S
C1590 C1589 1.349 . S
C1590 C1602 1.349 . S
C1591 C1589 1.327 . S
C1591 C1607 1.429 . S
C1591 H1613 0.950 . S
C1592 H1588 0.949 . S
C1592 C1600 1.574 . S
C1592 C1608 1.368 . S
H1593 C1601 0.950 . S
H1594 C1599 0.950 . S
H1595 C1600 0.949 . S
H1596 C1602 0.950 . S
H1597 C1603 0.950 . S
H1598 C1604 0.949 . S
C1599 H1594 0.950 . S
C1599 C1601 1.327 . S
C1599 C1605 1.429 . S
C1600 C1592 1.574 . S
C1600 H1595 0.949 . S
C1600 C1606 1.368 . S
C1601 C1585 1.349 . S
C1601 H1593 0.950 . S
C1601 C1599 1.327 . S
C1602 C1590 1.349 . S
C1602 H1596 0.950 . S
C1602 C1603 1.327 . S
C1603 H1597 0.950 . S
C1603 C1602 1.327 . S
C1603 C1607 1.429 . S
C1604 C1587 1.574 . S
C1604 H1598 0.949 . S
C1604 C1608 1.368 . S
C1605 C1586 1.429 . S
C1605 C1599 1.429 . S
C1605 C1606 1.523 . S
C1606 C1587 1.368 . S
C1606 C1600 1.368 . S
C1606 C1605 1.523 . S
C1607 C1591 1.429 . S
C1607 C1603 1.429 . S
C1607 C1608 1.523 . S
C1608 C1592 1.368 . S
C1608 C1604 1.368 . S
C1608 C1607 1.523 . S
H1609 C1584 0.950 . S
H1610 C1586 0.950 . S
H1611 C1587 0.949 . S
H1612 C1589 0.950 1_565 S
H1613 C1591 0.950 . S
C1614 C1615 1.349 . S
C1614 C1616 1.327 . S
C1614 H1639 0.950 . S
C1615 C1614 1.349 . S
C1615 C1631 1.349 . S
C1616 C1614 1.327 . S
C1616 C1635 1.429 . S
C1616 H1640 0.950 . S
C1617 C1634 1.574 . S
C1617 C1636 1.368 . S
C1617 H1641 0.949 . S
H1618 C1622 0.949 . S
C1619 C1620 1.349 . S
C1619 C1621 1.327 . S
C1619 H1642 0.950 . S
C1620 C1619 1.349 . S
C1620 C1632 1.349 . S
C1621 C1619 1.327 . S
C1621 C1637 1.429 . S
C1621 H1643 0.950 . S
C1622 H1618 0.949 . S
C1622 C1630 1.574 . S
C1622 C1638 1.368 . S
H1623 C1631 0.950 . S
H1624 C1629 0.950 . S
H1625 C1630 0.949 . S
H1626 C1632 0.950 . S
H1627 C1633 0.950 . S
H1628 C1634 0.949 . S
C1629 H1624 0.950 . S
C1629 C1631 1.327 . S
C1629 C1635 1.429 . S
C1630 C1622 1.574 . S
C1630 H1625 0.949 . S
C1630 C1636 1.368 . S
C1631 C1615 1.349 . S
C1631 H1623 0.950 . S
C1631 C1629 1.327 . S
C1632 C1620 1.349 . S
C1632 H1626 0.950 . S
C1632 C1633 1.327 . S
C1633 H1627 0.950 . S
C1633 C1632 1.327 . S
C1633 C1637 1.429 . S
C1634 C1617 1.574 . S
C1634 H1628 0.949 . S
C1634 C1638 1.368 . S
C1635 C1616 1.429 . S
C1635 C1629 1.429 . S
C1635 C1636 1.523 . S
C1636 C1617 1.368 . S
C1636 C1630 1.368 . S
C1636 C1635 1.523 . S
C1637 C1621 1.429 . S
C1637 C1633 1.429 . S
C1637 C1638 1.523 . S
C1638 C1622 1.368 . S
C1638 C1634 1.368 . S
C1638 C1637 1.523 . S
H1639 C1614 0.950 . S
H1640 C1616 0.950 . S
H1641 C1617 0.949 . S
H1642 C1619 0.950 . S
H1643 C1621 0.950 . S
C1644 C1645 1.349 . S
C1644 C1646 1.327 . S
C1644 H1669 0.950 . S
C1645 C1644 1.349 . S
C1645 C1661 1.349 . S
C1646 C1644 1.327 . S
C1646 C1665 1.429 . S
C1646 H1670 0.950 . S
C1647 C1664 1.574 . S
C1647 C1666 1.368 . S
C1647 H1671 0.949 . S
H1648 C1652 0.949 . S
C1649 C1650 1.349 . S
C1649 C1651 1.327 . S
C1649 H1672 0.950 . S
C1650 C1649 1.349 . S
C1650 C1662 1.349 . S
C1651 C1649 1.327 . S
C1651 C1667 1.429 . S
C1651 H1673 0.950 . S
C1652 H1648 0.949 . S
C1652 C1660 1.574 . S
C1652 C1668 1.368 . S
H1653 C1661 0.950 . S
H1654 C1659 0.950 . S
H1655 C1660 0.949 . S
H1656 C1662 0.950 . S
H1657 C1663 0.950 . S
H1658 C1664 0.949 . S
C1659 H1654 0.950 . S
C1659 C1661 1.327 . S
C1659 C1665 1.429 . S
C1660 C1652 1.574 . S
C1660 H1655 0.949 . S
C1660 C1666 1.368 . S
C1661 C1645 1.349 . S
C1661 H1653 0.950 . S
C1661 C1659 1.327 . S
C1662 C1650 1.349 . S
C1662 H1656 0.950 . S
C1662 C1663 1.327 . S
C1663 H1657 0.950 . S
C1663 C1662 1.327 . S
C1663 C1667 1.429 . S
C1664 C1647 1.574 . S
C1664 H1658 0.949 . S
C1664 C1668 1.368 . S
C1665 C1646 1.429 . S
C1665 C1659 1.429 . S
C1665 C1666 1.523 . S
C1666 C1647 1.368 . S
C1666 C1660 1.368 . S
C1666 C1665 1.523 . S
C1667 C1651 1.429 . S
C1667 C1663 1.429 . S
C1667 C1668 1.523 . S
C1668 C1652 1.368 . S
C1668 C1664 1.368 . S
C1668 C1667 1.523 . S
H1669 C1644 0.950 . S
H1670 C1646 0.950 . S
H1671 C1647 0.949 . S
H1672 C1649 0.950 . S
H1673 C1651 0.950 . S
C1674 C1675 1.349 . S
C1674 C1676 1.327 . S
C1674 H1699 0.950 . S
C1675 C1674 1.349 . S
C1675 C1691 1.349 . S
C1676 C1674 1.327 . S
C1676 C1695 1.429 . S
C1676 H1700 0.950 . S
C1677 C1694 1.574 . S
C1677 C1696 1.368 . S
C1677 H1701 0.949 . S
H1678 C1682 0.949 . S
C1679 C1680 1.349 . S
C1679 C1681 1.327 . S
C1679 H1702 0.950 1_455 S
C1680 C1679 1.349 . S
C1680 C1692 1.349 . S
C1681 C1679 1.327 . S
C1681 C1697 1.429 . S
C1681 H1703 0.950 . S
C1682 H1678 0.949 . S
C1682 C1690 1.574 . S
C1682 C1698 1.368 . S
H1683 C1691 0.950 . S
H1684 C1689 0.950 . S
H1685 C1690 0.949 . S
H1686 C1692 0.950 . S
H1687 C1693 0.950 . S
H1688 C1694 0.949 . S
C1689 H1684 0.950 . S
C1689 C1691 1.327 . S
C1689 C1695 1.429 . S
C1690 C1682 1.574 . S
C1690 H1685 0.949 . S
C1690 C1696 1.368 . S
C1691 C1675 1.349 . S
C1691 H1683 0.950 . S
C1691 C1689 1.327 . S
C1692 C1680 1.349 . S
C1692 H1686 0.950 . S
C1692 C1693 1.327 . S
C1693 H1687 0.950 . S
C1693 C1692 1.327 . S
C1693 C1697 1.429 . S
C1694 C1677 1.574 . S
C1694 H1688 0.949 . S
C1694 C1698 1.368 . S
C1695 C1676 1.429 . S
C1695 C1689 1.429 . S
C1695 C1696 1.523 . S
C1696 C1677 1.368 . S
C1696 C1690 1.368 . S
C1696 C1695 1.523 . S
C1697 C1681 1.429 . S
C1697 C1693 1.429 . S
C1697 C1698 1.523 . S
C1698 C1682 1.368 . S
C1698 C1694 1.368 . S
C1698 C1697 1.523 . S
H1699 C1674 0.950 . S
H1700 C1676 0.950 . S
H1701 C1677 0.949 . S
H1702 C1679 0.950 1_655 S
H1703 C1681 0.950 . S
C1704 C1705 1.349 . S
C1704 C1706 1.327 . S
C1704 H1729 0.950 . S
C1705 C1704 1.349 . S
C1705 C1721 1.349 . S
C1706 C1704 1.327 . S
C1706 C1725 1.429 . S
C1706 H1730 0.950 . S
C1707 C1724 1.574 . S
C1707 C1726 1.368 . S
C1707 H1731 0.949 . S
H1708 C1712 0.949 . S
C1709 C1710 1.349 . S
C1709 C1711 1.327 . S
C1709 H1732 0.950 . S
C1710 C1709 1.349 . S
C1710 C1722 1.349 . S
C1711 C1709 1.327 . S
C1711 C1727 1.429 . S
C1711 H1733 0.950 . S
C1712 H1708 0.949 . S
C1712 C1720 1.574 . S
C1712 C1728 1.368 . S
H1713 C1721 0.950 . S
H1714 C1719 0.950 . S
H1715 C1720 0.949 . S
H1716 C1722 0.950 1_545 S
H1717 C1723 0.950 . S
H1718 C1724 0.949 . S
C1719 H1714 0.950 . S
C1719 C1721 1.327 . S
C1719 C1725 1.429 . S
C1720 C1712 1.574 . S
C1720 H1715 0.949 . S
C1720 C1726 1.368 . S
C1721 C1705 1.349 . S
C1721 H1713 0.950 . S
C1721 C1719 1.327 . S
C1722 C1710 1.349 . S
C1722 H1716 0.950 1_565 S
C1722 C1723 1.327 . S
C1723 H1717 0.950 . S
C1723 C1722 1.327 . S
C1723 C1727 1.429 . S
C1724 C1707 1.574 . S
C1724 H1718 0.949 . S
C1724 C1728 1.368 . S
C1725 C1706 1.429 . S
C1725 C1719 1.429 . S
C1725 C1726 1.523 . S
C1726 C1707 1.368 . S
C1726 C1720 1.368 . S
C1726 C1725 1.523 . S
C1727 C1711 1.429 . S
C1727 C1723 1.429 . S
C1727 C1728 1.523 . S
C1728 C1712 1.368 . S
C1728 C1724 1.368 . S
C1728 C1727 1.523 . S
H1729 C1704 0.950 . S
H1730 C1706 0.950 . S
H1731 C1707 0.949 . S
H1732 C1709 0.950 . S
H1733 C1711 0.950 . S
C1734 C1735 1.349 . S
C1734 C1736 1.327 . S
C1734 H1759 0.950 . S
C1735 C1734 1.349 . S
C1735 C1751 1.349 . S
C1736 C1734 1.327 . S
C1736 C1755 1.429 . S
C1736 H1760 0.950 . S
C1737 C1754 1.574 . S
C1737 C1756 1.368 . S
C1737 H1761 0.949 . S
H1738 C1742 0.949 . S
C1739 C1740 1.349 . S
C1739 C1741 1.327 . S
C1739 H1762 0.950 . S
C1740 C1739 1.349 . S
C1740 C1752 1.349 . S
C1741 C1739 1.327 . S
C1741 C1757 1.429 . S
C1741 H1763 0.950 . S
C1742 H1738 0.949 . S
C1742 C1750 1.574 . S
C1742 C1758 1.368 . S
H1743 C1751 0.950 . S
H1744 C1749 0.950 . S
H1745 C1750 0.949 . S
H1746 C1752 0.950 . S
H1747 C1753 0.950 . S
H1748 C1754 0.949 . S
C1749 H1744 0.950 . S
C1749 C1751 1.327 . S
C1749 C1755 1.429 . S
C1750 C1742 1.574 . S
C1750 H1745 0.949 . S
C1750 C1756 1.368 . S
C1751 C1735 1.349 . S
C1751 H1743 0.950 . S
C1751 C1749 1.327 . S
C1752 C1740 1.349 . S
C1752 H1746 0.950 . S
C1752 C1753 1.327 . S
C1753 H1747 0.950 . S
C1753 C1752 1.327 . S
C1753 C1757 1.429 . S
C1754 C1737 1.574 . S
C1754 H1748 0.949 . S
C1754 C1758 1.368 . S
C1755 C1736 1.429 . S
C1755 C1749 1.429 . S
C1755 C1756 1.523 . S
C1756 C1737 1.368 . S
C1756 C1750 1.368 . S
C1756 C1755 1.523 . S
C1757 C1741 1.429 . S
C1757 C1753 1.429 . S
C1757 C1758 1.523 . S
C1758 C1742 1.368 . S
C1758 C1754 1.368 . S
C1758 C1757 1.523 . S
H1759 C1734 0.950 . S
H1760 C1736 0.950 . S
H1761 C1737 0.949 . S
H1762 C1739 0.950 . S
H1763 C1741 0.950 . S
C1764 C1765 1.349 . S
C1764 C1766 1.327 . S
C1764 H1789 0.950 . S
C1765 C1764 1.349 . S
C1765 C1781 1.349 . S
C1766 C1764 1.327 . S
C1766 C1785 1.429 . S
C1766 H1790 0.950 . S
C1767 C1784 1.574 . S
C1767 C1786 1.368 . S
C1767 H1791 0.949 . S
H1768 C1772 0.949 . S
C1769 C1770 1.349 . S
C1769 C1771 1.327 . S
C1769 H1792 0.950 . S
C1770 C1769 1.349 . S
C1770 C1782 1.349 . S
C1771 C1769 1.327 . S
C1771 C1787 1.429 . S
C1771 H1793 0.950 . S
C1772 H1768 0.949 . S
C1772 C1780 1.574 . S
C1772 C1788 1.368 . S
H1773 C1781 0.950 . S
H1774 C1779 0.950 . S
H1775 C1780 0.949 . S
H1776 C1782 0.950 . S
H1777 C1783 0.950 . S
H1778 C1784 0.949 . S
C1779 H1774 0.950 . S
C1779 C1781 1.327 . S
C1779 C1785 1.429 . S
C1780 C1772 1.574 . S
C1780 H1775 0.949 . S
C1780 C1786 1.368 . S
C1781 C1765 1.349 . S
C1781 H1773 0.950 . S
C1781 C1779 1.327 . S
C1782 C1770 1.349 . S
C1782 H1776 0.950 . S
C1782 C1783 1.327 . S
C1783 H1777 0.950 . S
C1783 C1782 1.327 . S
C1783 C1787 1.429 . S
C1784 C1767 1.574 . S
C1784 H1778 0.949 . S
C1784 C1788 1.368 . S
C1785 C1766 1.429 . S
C1785 C1779 1.429 . S
C1785 C1786 1.523 . S
C1786 C1767 1.368 . S
C1786 C1780 1.368 . S
C1786 C1785 1.523 . S
C1787 C1771 1.429 . S
C1787 C1783 1.429 . S
C1787 C1788 1.523 . S
C1788 C1772 1.368 . S
C1788 C1784 1.368 . S
C1788 C1787 1.523 . S
H1789 C1764 0.950 . S
H1790 C1766 0.950 . S
H1791 C1767 0.949 . S
H1792 C1769 0.950 . S
H1793 C1771 0.950 . S
C1794 C1795 1.349 . S
C1794 C1796 1.327 . S
C1794 H1819 0.950 1_655 S
C1795 C1794 1.349 . S
C1795 C1811 1.349 . S
C1796 C1794 1.327 . S
C1796 C1815 1.429 . S
C1796 H1820 0.950 . S
C1797 C1814 1.574 . S
C1797 C1816 1.368 . S
C1797 H1821 0.949 . S
H1798 C1802 0.949 . S
C1799 C1800 1.349 . S
C1799 C1801 1.327 . S
C1799 H1822 0.950 . S
C1800 C1799 1.349 . S
C1800 C1812 1.349 . S
C1801 C1799 1.327 . S
C1801 C1817 1.429 . S
C1801 H1823 0.950 . S
C1802 H1798 0.949 . S
C1802 C1810 1.574 . S
C1802 C1818 1.368 . S
H1803 C1811 0.950 . S
H1804 C1809 0.950 . S
H1805 C1810 0.949 . S
H1806 C1812 0.950 . S
H1807 C1813 0.950 . S
H1808 C1814 0.949 . S
C1809 H1804 0.950 . S
C1809 C1811 1.327 . S
C1809 C1815 1.429 . S
C1810 C1802 1.574 . S
C1810 H1805 0.949 . S
C1810 C1816 1.368 . S
C1811 C1795 1.349 . S
C1811 H1803 0.950 . S
C1811 C1809 1.327 . S
C1812 C1800 1.349 . S
C1812 H1806 0.950 . S
C1812 C1813 1.327 . S
C1813 H1807 0.950 . S
C1813 C1812 1.327 . S
C1813 C1817 1.429 . S
C1814 C1797 1.574 . S
C1814 H1808 0.949 . S
C1814 C1818 1.368 . S
C1815 C1796 1.429 . S
C1815 C1809 1.429 . S
C1815 C1816 1.523 . S
C1816 C1797 1.368 . S
C1816 C1810 1.368 . S
C1816 C1815 1.523 . S
C1817 C1801 1.429 . S
C1817 C1813 1.429 . S
C1817 C1818 1.523 . S
C1818 C1802 1.368 . S
C1818 C1814 1.368 . S
C1818 C1817 1.523 . S
H1819 C1794 0.950 1_455 S
H1820 C1796 0.950 . S
H1821 C1797 0.949 . S
H1822 C1799 0.950 . S
H1823 C1801 0.950 . S
C1824 C1825 1.349 . S
C1824 C1826 1.327 . S
C1824 H1849 0.950 1_565 S
C1825 C1824 1.349 . S
C1825 C1841 1.349 . S
C1826 C1824 1.327 . S
C1826 C1845 1.429 . S
C1826 H1850 0.950 . S
C1827 C1844 1.574 . S
C1827 C1846 1.368 . S
C1827 H1851 0.949 . S
H1828 C1832 0.949 . S
C1829 C1830 1.349 . S
C1829 C1831 1.327 . S
C1829 H1852 0.950 . S
C1830 C1829 1.349 . S
C1830 C1842 1.349 . S
C1831 C1829 1.327 . S
C1831 C1847 1.429 . S
C1831 H1853 0.950 . S
C1832 H1828 0.949 . S
C1832 C1840 1.574 . S
C1832 C1848 1.368 . S
H1833 C1841 0.950 . S
H1834 C1839 0.950 . S
H1835 C1840 0.949 . S
H1836 C1842 0.950 . S
H1837 C1843 0.950 . S
H1838 C1844 0.949 . S
C1839 H1834 0.950 . S
C1839 C1841 1.327 . S
C1839 C1845 1.429 . S
C1840 C1832 1.574 . S
C1840 H1835 0.949 . S
C1840 C1846 1.368 . S
C1841 C1825 1.349 . S
C1841 H1833 0.950 . S
C1841 C1839 1.327 . S
C1842 C1830 1.349 . S
C1842 H1836 0.950 . S
C1842 C1843 1.327 . S
C1843 H1837 0.950 . S
C1843 C1842 1.327 . S
C1843 C1847 1.429 . S
C1844 C1827 1.574 . S
C1844 H1838 0.949 . S
C1844 C1848 1.368 . S
C1845 C1826 1.429 . S
C1845 C1839 1.429 . S
C1845 C1846 1.523 . S
C1846 C1827 1.368 . S
C1846 C1840 1.368 . S
C1846 C1845 1.523 . S
C1847 C1831 1.429 . S
C1847 C1843 1.429 . S
C1847 C1848 1.523 . S
C1848 C1832 1.368 . S
C1848 C1844 1.368 . S
C1848 C1847 1.523 . S
H1849 C1824 0.950 1_545 S
H1850 C1826 0.950 . S
H1851 C1827 0.949 . S
H1852 C1829 0.950 . S
H1853 C1831 0.950 . S
C1854 C1855 1.349 . S
C1854 C1856 1.327 . S
C1854 H1879 0.950 . S
C1855 C1854 1.349 . S
C1855 C1871 1.349 . S
C1856 C1854 1.327 . S
C1856 C1875 1.429 . S
C1856 H1880 0.950 . S
C1857 C1874 1.574 . S
C1857 C1876 1.368 . S
C1857 H1881 0.949 . S
H1858 C1862 0.949 . S
C1859 C1860 1.349 . S
C1859 C1861 1.327 . S
C1859 H1882 0.950 . S
C1860 C1859 1.349 . S
C1860 C1872 1.349 . S
C1861 C1859 1.327 . S
C1861 C1877 1.429 . S
C1861 H1883 0.950 . S
C1862 H1858 0.949 . S
C1862 C1870 1.574 . S
C1862 C1878 1.368 . S
H1863 C1871 0.950 . S
H1864 C1869 0.950 . S
H1865 C1870 0.949 . S
H1866 C1872 0.950 . S
H1867 C1873 0.950 . S
H1868 C1874 0.949 . S
C1869 H1864 0.950 . S
C1869 C1871 1.327 . S
C1869 C1875 1.429 . S
C1870 C1862 1.574 . S
C1870 H1865 0.949 . S
C1870 C1876 1.368 . S
C1871 C1855 1.349 . S
C1871 H1863 0.950 . S
C1871 C1869 1.327 . S
C1872 C1860 1.349 . S
C1872 H1866 0.950 . S
C1872 C1873 1.327 . S
C1873 H1867 0.950 . S
C1873 C1872 1.327 . S
C1873 C1877 1.429 . S
C1874 C1857 1.574 . S
C1874 H1868 0.949 . S
C1874 C1878 1.368 . S
C1875 C1856 1.429 . S
C1875 C1869 1.429 . S
C1875 C1876 1.523 . S
C1876 C1857 1.368 . S
C1876 C1870 1.368 . S
C1876 C1875 1.523 . S
C1877 C1861 1.429 . S
C1877 C1873 1.429 . S
C1877 C1878 1.523 . S
C1878 C1862 1.368 . S
C1878 C1874 1.368 . S
C1878 C1877 1.523 . S
H1879 C1854 0.950 . S
H1880 C1856 0.950 . S
H1881 C1857 0.949 . S
H1882 C1859 0.950 . S
H1883 C1861 0.950 . S
C1884 C1885 1.349 . S
C1884 C1886 1.327 . S
C1884 H1909 0.950 . S
C1885 C1884 1.349 . S
C1885 C1901 1.349 . S
C1886 C1884 1.327 . S
C1886 C1905 1.429 . S
C1886 H1910 0.950 . S
C1887 C1904 1.574 . S
C1887 C1906 1.368 . S
C1887 H1911 0.949 . S
H1888 C1892 0.949 . S
C1889 C1890 1.349 . S
C1889 C1891 1.327 . S
C1889 H1912 0.950 . S
C1890 C1889 1.349 . S
C1890 C1902 1.349 . S
C1891 C1889 1.327 . S
C1891 C1907 1.429 . S
C1891 H1913 0.950 . S
C1892 H1888 0.949 . S
C1892 C1900 1.574 . S
C1892 C1908 1.368 . S
H1893 C1901 0.950 . S
H1894 C1899 0.950 . S
H1895 C1900 0.949 . S
H1896 C1902 0.950 . S
H1897 C1903 0.950 . S
H1898 C1904 0.949 . S
C1899 H1894 0.950 . S
C1899 C1901 1.327 . S
C1899 C1905 1.429 . S
C1900 C1892 1.574 . S
C1900 H1895 0.949 . S
C1900 C1906 1.368 . S
C1901 C1885 1.349 . S
C1901 H1893 0.950 . S
C1901 C1899 1.327 . S
C1902 C1890 1.349 . S
C1902 H1896 0.950 . S
C1902 C1903 1.327 . S
C1903 H1897 0.950 . S
C1903 C1902 1.327 . S
C1903 C1907 1.429 . S
C1904 C1887 1.574 . S
C1904 H1898 0.949 . S
C1904 C1908 1.368 . S
C1905 C1886 1.429 . S
C1905 C1899 1.429 . S
C1905 C1906 1.523 . S
C1906 C1887 1.368 . S
C1906 C1900 1.368 . S
C1906 C1905 1.523 . S
C1907 C1891 1.429 . S
C1907 C1903 1.429 . S
C1907 C1908 1.523 . S
C1908 C1892 1.368 . S
C1908 C1904 1.368 . S
C1908 C1907 1.523 . S
H1909 C1884 0.950 . S
H1910 C1886 0.950 . S
H1911 C1887 0.949 . S
H1912 C1889 0.950 . S
H1913 C1891 0.950 . S
C1914 C1915 1.349 . S
C1914 C1916 1.327 . S
C1914 H1939 0.950 . S
C1915 C1914 1.349 . S
C1915 C1931 1.349 . S
C1916 C1914 1.327 . S
C1916 C1935 1.429 . S
C1916 H1940 0.950 . S
C1917 C1934 1.574 . S
C1917 C1936 1.368 . S
C1917 H1941 0.949 . S
H1918 C1922 0.949 . S
C1919 C1920 1.349 . S
C1919 C1921 1.327 . S
C1919 H1942 0.950 . S
C1920 C1919 1.349 . S
C1920 C1932 1.349 . S
C1921 C1919 1.327 . S
C1921 C1937 1.429 . S
C1921 H1943 0.950 . S
C1922 H1918 0.949 . S
C1922 C1930 1.574 . S
C1922 C1938 1.368 . S
H1923 C1931 0.950 . S
H1924 C1929 0.950 . S
H1925 C1930 0.949 . S
H1926 C1932 0.950 1_455 S
H1927 C1933 0.950 . S
H1928 C1934 0.949 . S
C1929 H1924 0.950 . S
C1929 C1931 1.327 . S
C1929 C1935 1.429 . S
C1930 C1922 1.574 . S
C1930 H1925 0.949 . S
C1930 C1936 1.368 . S
C1931 C1915 1.349 . S
C1931 H1923 0.950 . S
C1931 C1929 1.327 . S
C1932 C1920 1.349 . S
C1932 H1926 0.950 1_655 S
C1932 C1933 1.327 . S
C1933 H1927 0.950 . S
C1933 C1932 1.327 . S
C1933 C1937 1.429 . S
C1934 C1917 1.574 . S
C1934 H1928 0.949 . S
C1934 C1938 1.368 . S
C1935 C1916 1.429 . S
C1935 C1929 1.429 . S
C1935 C1936 1.523 . S
C1936 C1917 1.368 . S
C1936 C1930 1.368 . S
C1936 C1935 1.523 . S
C1937 C1921 1.429 . S
C1937 C1933 1.429 . S
C1937 C1938 1.523 . S
C1938 C1922 1.368 . S
C1938 C1934 1.368 . S
C1938 C1937 1.523 . S
H1939 C1914 0.950 . S
H1940 C1916 0.950 . S
H1941 C1917 0.949 . S
H1942 C1919 0.950 . S
H1943 C1921 0.950 . S
C1944 C1945 1.349 . S
C1944 C1946 1.327 . S
C1944 H1969 0.950 . S
C1945 C1944 1.349 . S
C1945 C1961 1.349 . S
C1946 C1944 1.327 . S
C1946 C1965 1.429 . S
C1946 H1970 0.950 . S
C1947 C1964 1.574 . S
C1947 C1966 1.368 . S
C1947 H1971 0.949 . S
H1948 C1952 0.949 . S
C1949 C1950 1.349 . S
C1949 C1951 1.327 . S
C1949 H1972 0.950 . S
C1950 C1949 1.349 . S
C1950 C1962 1.349 1_545 S
C1951 C1949 1.327 . S
C1951 C1967 1.429 . S
C1951 H1973 0.950 . S
C1952 H1948 0.949 . S
C1952 C1960 1.574 . S
C1952 C1968 1.368 . S
H1953 C1961 0.950 . S
H1954 C1959 0.950 . S
H1955 C1960 0.949 . S
H1956 C1962 0.950 . S
H1957 C1963 0.950 . S
H1958 C1964 0.949 . S
C1959 H1954 0.950 . S
C1959 C1961 1.327 . S
C1959 C1965 1.429 . S
C1960 C1952 1.574 . S
C1960 H1955 0.949 . S
C1960 C1966 1.368 . S
C1961 C1945 1.349 . S
C1961 H1953 0.950 . S
C1961 C1959 1.327 . S
C1962 C1950 1.349 1_565 S
C1962 H1956 0.950 . S
C1962 C1963 1.327 1_565 S
C1963 H1957 0.950 . S
C1963 C1962 1.327 1_545 S
C1963 C1967 1.429 . S
C1964 C1947 1.574 . S
C1964 H1958 0.949 . S
C1964 C1968 1.368 . S
C1965 C1946 1.429 . S
C1965 C1959 1.429 . S
C1965 C1966 1.523 . S
C1966 C1947 1.368 . S
C1966 C1960 1.368 . S
C1966 C1965 1.523 . S
C1967 C1951 1.429 . S
C1967 C1963 1.429 . S
C1967 C1968 1.523 . S
C1968 C1952 1.368 . S
C1968 C1964 1.368 . S
C1968 C1967 1.523 . S
H1969 C1944 0.950 . S
H1970 C1946 0.950 . S
H1971 C1947 0.949 . S
H1972 C1949 0.950 . S
H1973 C1951 0.950 . S
C1974 C1975 1.349 . S
C1974 C1976 1.327 . S
C1974 H1999 0.950 . S
C1975 C1974 1.349 . S
C1975 C1991 1.349 . S
C1976 C1974 1.327 . S
C1976 C1995 1.429 . S
C1976 H2000 0.950 . S
C1977 C1994 1.574 . S
C1977 C1996 1.368 . S
C1977 H2001 0.949 . S
H1978 C1982 0.949 . S
C1979 C1980 1.349 . S
C1979 C1981 1.327 . S
C1979 H2002 0.950 . S
C1980 C1979 1.349 . S
C1980 C1992 1.349 . S
C1981 C1979 1.327 . S
C1981 C1997 1.429 . S
C1981 H2003 0.950 . S
C1982 H1978 0.949 . S
C1982 C1990 1.574 . S
C1982 C1998 1.368 . S
H1983 C1991 0.950 . S
H1984 C1989 0.950 . S
H1985 C1990 0.949 . S
H1986 C1992 0.950 . S
H1987 C1993 0.950 . S
H1988 C1994 0.949 . S
C1989 H1984 0.950 . S
C1989 C1991 1.327 . S
C1989 C1995 1.429 . S
C1990 C1982 1.574 . S
C1990 H1985 0.949 . S
C1990 C1996 1.368 . S
C1991 C1975 1.349 . S
C1991 H1983 0.950 . S
C1991 C1989 1.327 . S
C1992 C1980 1.349 . S
C1992 H1986 0.950 . S
C1992 C1993 1.327 . S
C1993 H1987 0.950 . S
C1993 C1992 1.327 . S
C1993 C1997 1.429 . S
C1994 C1977 1.574 . S
C1994 H1988 0.949 . S
C1994 C1998 1.368 . S
C1995 C1976 1.429 . S
C1995 C1989 1.429 . S
C1995 C1996 1.523 . S
C1996 C1977 1.368 . S
C1996 C1990 1.368 . S
C1996 C1995 1.523 . S
C1997 C1981 1.429 . S
C1997 C1993 1.429 . S
C1997 C1998 1.523 . S
C1998 C1982 1.368 . S
C1998 C1994 1.368 . S
C1998 C1997 1.523 . S
H1999 C1974 0.950 . S
H2000 C1976 0.950 . S
H2001 C1977 0.949 . S
H2002 C1979 0.950 . S
H2003 C1981 0.950 . S
C2004 C2005 1.349 . S
C2004 C2006 1.327 . S
C2004 H2029 0.950 . S
C2005 C2004 1.349 . S
C2005 C2021 1.349 . S
C2006 C2004 1.327 . S
C2006 C2025 1.429 . S
C2006 H2030 0.950 . S
C2007 C2024 1.574 . S
C2007 C2026 1.368 . S
C2007 H2031 0.949 . S
H2008 C2012 0.949 . S
C2009 C2010 1.349 . S
C2009 C2011 1.327 . S
C2009 H2032 0.950 . S
C2010 C2009 1.349 . S
C2010 C2022 1.349 . S
C2011 C2009 1.327 . S
C2011 C2027 1.429 . S
C2011 H2033 0.950 . S
C2012 H2008 0.949 . S
C2012 C2020 1.574 . S
C2012 C2028 1.368 . S
H2013 C2021 0.950 . S
H2014 C2019 0.950 . S
H2015 C2020 0.949 . S
H2016 C2022 0.950 . S
H2017 C2023 0.950 . S
H2018 C2024 0.949 . S
C2019 H2014 0.950 . S
C2019 C2021 1.327 . S
C2019 C2025 1.429 . S
C2020 C2012 1.574 . S
C2020 H2015 0.949 . S
C2020 C2026 1.368 . S
C2021 C2005 1.349 . S
C2021 H2013 0.950 . S
C2021 C2019 1.327 . S
C2022 C2010 1.349 . S
C2022 H2016 0.950 . S
C2022 C2023 1.327 . S
C2023 H2017 0.950 . S
C2023 C2022 1.327 . S
C2023 C2027 1.429 . S
C2024 C2007 1.574 . S
C2024 H2018 0.949 . S
C2024 C2028 1.368 . S
C2025 C2006 1.429 . S
C2025 C2019 1.429 . S
C2025 C2026 1.523 . S
C2026 C2007 1.368 . S
C2026 C2020 1.368 . S
C2026 C2025 1.523 . S
C2027 C2011 1.429 . S
C2027 C2023 1.429 . S
C2027 C2028 1.523 . S
C2028 C2012 1.368 . S
C2028 C2024 1.368 . S
C2028 C2027 1.523 . S
H2029 C2004 0.950 . S
H2030 C2006 0.950 . S
H2031 C2007 0.949 . S
H2032 C2009 0.950 . S
H2033 C2011 0.950 . S
C2034 C2035 1.349 . S
C2034 C2036 1.327 . S
C2034 H2059 0.950 . S
C2035 C2034 1.349 . S
C2035 C2051 1.349 . S
C2036 C2034 1.327 . S
C2036 C2055 1.429 . S
C2036 H2060 0.950 . S
C2037 C2054 1.574 . S
C2037 C2056 1.368 . S
C2037 H2061 0.949 . S
H2038 C2042 0.949 . S
C2039 C2040 1.349 1_655 S
C2039 C2041 1.327 1_655 S
C2039 H2062 0.950 . S
C2040 C2039 1.349 1_455 S
C2040 C2052 1.349 . S
C2041 C2039 1.327 1_455 S
C2041 C2057 1.429 . S
C2041 H2063 0.950 . S
C2042 H2038 0.949 . S
C2042 C2050 1.574 . S
C2042 C2058 1.368 . S
H2043 C2051 0.950 . S
H2044 C2049 0.950 . S
H2045 C2050 0.949 . S
H2046 C2052 0.950 . S
H2047 C2053 0.950 . S
H2048 C2054 0.949 . S
C2049 H2044 0.950 . S
C2049 C2051 1.327 . S
C2049 C2055 1.429 . S
C2050 C2042 1.574 . S
C2050 H2045 0.949 . S
C2050 C2056 1.368 . S
C2051 C2035 1.349 . S
C2051 H2043 0.950 . S
C2051 C2049 1.327 . S
C2052 C2040 1.349 . S
C2052 H2046 0.950 . S
C2052 C2053 1.327 . S
C2053 H2047 0.950 . S
C2053 C2052 1.327 . S
C2053 C2057 1.429 . S
C2054 C2037 1.574 . S
C2054 H2048 0.949 . S
C2054 C2058 1.368 . S
C2055 C2036 1.429 . S
C2055 C2049 1.429 . S
C2055 C2056 1.523 . S
C2056 C2037 1.368 . S
C2056 C2050 1.368 . S
C2056 C2055 1.523 . S
C2057 C2041 1.429 . S
C2057 C2053 1.429 . S
C2057 C2058 1.523 . S
C2058 C2042 1.368 . S
C2058 C2054 1.368 . S
C2058 C2057 1.523 . S
H2059 C2034 0.950 . S
H2060 C2036 0.950 . S
H2061 C2037 0.949 . S
H2062 C2039 0.950 . S
H2063 C2041 0.950 . S
C2064 C2065 1.349 . S
C2064 C2066 1.327 . S
C2064 H2089 0.950 . S
C2065 C2064 1.349 . S
C2065 C2081 1.349 . S
C2066 C2064 1.327 . S
C2066 C2085 1.429 . S
C2066 H2090 0.950 . S
C2067 C2084 1.574 . S
C2067 C2086 1.368 . S
C2067 H2091 0.949 . S
H2068 C2072 0.949 . S
C2069 C2070 1.349 . S
C2069 C2071 1.327 . S
C2069 H2092 0.950 . S
C2070 C2069 1.349 . S
C2070 C2082 1.349 . S
C2071 C2069 1.327 . S
C2071 C2087 1.429 . S
C2071 H2093 0.950 . S
C2072 H2068 0.949 . S
C2072 C2080 1.574 . S
C2072 C2088 1.368 . S
H2073 C2081 0.950 . S
H2074 C2079 0.950 . S
H2075 C2080 0.949 . S
H2076 C2082 0.950 . S
H2077 C2083 0.950 . S
H2078 C2084 0.949 . S
C2079 H2074 0.950 . S
C2079 C2081 1.327 . S
C2079 C2085 1.429 . S
C2080 C2072 1.574 . S
C2080 H2075 0.949 . S
C2080 C2086 1.368 . S
C2081 C2065 1.349 . S
C2081 H2073 0.950 . S
C2081 C2079 1.327 . S
C2082 C2070 1.349 . S
C2082 H2076 0.950 . S
C2082 C2083 1.327 . S
C2083 H2077 0.950 . S
C2083 C2082 1.327 . S
C2083 C2087 1.429 . S
C2084 C2067 1.574 . S
C2084 H2078 0.949 . S
C2084 C2088 1.368 . S
C2085 C2066 1.429 . S
C2085 C2079 1.429 . S
C2085 C2086 1.523 . S
C2086 C2067 1.368 . S
C2086 C2080 1.368 . S
C2086 C2085 1.523 . S
C2087 C2071 1.429 . S
C2087 C2083 1.429 . S
C2087 C2088 1.523 . S
C2088 C2072 1.368 . S
C2088 C2084 1.368 . S
C2088 C2087 1.523 . S
H2089 C2064 0.950 . S
H2090 C2066 0.950 . S
H2091 C2067 0.949 . S
H2092 C2069 0.950 . S
H2093 C2071 0.950 . S
C2094 C2095 1.349 . S
C2094 C2096 1.327 . S
C2094 H2119 0.950 . S
C2095 C2094 1.349 . S
C2095 C2111 1.349 . S
C2096 C2094 1.327 . S
C2096 C2115 1.429 . S
C2096 H2120 0.950 . S
C2097 C2114 1.574 . S
C2097 C2116 1.368 . S
C2097 H2121 0.949 . S
H2098 C2102 0.949 . S
C2099 C2100 1.349 . S
C2099 C2101 1.327 . S
C2099 H2122 0.950 . S
C2100 C2099 1.349 . S
C2100 C2112 1.349 . S
C2101 C2099 1.327 . S
C2101 C2117 1.429 . S
C2101 H2123 0.950 . S
C2102 H2098 0.949 . S
C2102 C2110 1.574 . S
C2102 C2118 1.368 . S
H2103 C2111 0.950 . S
H2104 C2109 0.950 . S
H2105 C2110 0.949 . S
H2106 C2112 0.950 . S
H2107 C2113 0.950 . S
H2108 C2114 0.949 . S
C2109 H2104 0.950 . S
C2109 C2111 1.327 . S
C2109 C2115 1.429 . S
C2110 C2102 1.574 . S
C2110 H2105 0.949 . S
C2110 C2116 1.368 . S
C2111 C2095 1.349 . S
C2111 H2103 0.950 . S
C2111 C2109 1.327 . S
C2112 C2100 1.349 . S
C2112 H2106 0.950 . S
C2112 C2113 1.327 . S
C2113 H2107 0.950 . S
C2113 C2112 1.327 . S
C2113 C2117 1.429 . S
C2114 C2097 1.574 . S
C2114 H2108 0.949 . S
C2114 C2118 1.368 . S
C2115 C2096 1.429 . S
C2115 C2109 1.429 . S
C2115 C2116 1.523 . S
C2116 C2097 1.368 . S
C2116 C2110 1.368 . S
C2116 C2115 1.523 . S
C2117 C2101 1.429 . S
C2117 C2113 1.429 . S
C2117 C2118 1.523 . S
C2118 C2102 1.368 . S
C2118 C2114 1.368 . S
C2118 C2117 1.523 . S
H2119 C2094 0.950 . S
H2120 C2096 0.950 . S
H2121 C2097 0.949 . S
H2122 C2099 0.950 . S
H2123 C2101 0.950 . S
C2124 C2125 1.349 . S
C2124 C2126 1.327 . S
C2124 H2149 0.950 . S
C2125 C2124 1.349 . S
C2125 C2141 1.349 . S
C2126 C2124 1.327 . S
C2126 C2145 1.429 . S
C2126 H2150 0.950 . S
C2127 C2144 1.574 . S
C2127 C2146 1.368 . S
C2127 H2151 0.949 . S
H2128 C2132 0.949 . S
C2129 C2130 1.349 . S
C2129 C2131 1.327 . S
C2129 H2152 0.950 . S
C2130 C2129 1.349 . S
C2130 C2142 1.349 . S
C2131 C2129 1.327 . S
C2131 C2147 1.429 . S
C2131 H2153 0.950 . S
C2132 H2128 0.949 . S
C2132 C2140 1.574 . S
C2132 C2148 1.368 . S
H2133 C2141 0.950 . S
H2134 C2139 0.950 . S
H2135 C2140 0.949 . S
H2136 C2142 0.950 . S
H2137 C2143 0.950 . S
H2138 C2144 0.949 . S
C2139 H2134 0.950 . S
C2139 C2141 1.327 . S
C2139 C2145 1.429 . S
C2140 C2132 1.574 . S
C2140 H2135 0.949 . S
C2140 C2146 1.368 . S
C2141 C2125 1.349 . S
C2141 H2133 0.950 . S
C2141 C2139 1.327 . S
C2142 C2130 1.349 . S
C2142 H2136 0.950 . S
C2142 C2143 1.327 . S
C2143 H2137 0.950 . S
C2143 C2142 1.327 . S
C2143 C2147 1.429 . S
C2144 C2127 1.574 . S
C2144 H2138 0.949 . S
C2144 C2148 1.368 . S
C2145 C2126 1.429 . S
C2145 C2139 1.429 . S
C2145 C2146 1.523 . S
C2146 C2127 1.368 . S
C2146 C2140 1.368 . S
C2146 C2145 1.523 . S
C2147 C2131 1.429 . S
C2147 C2143 1.429 . S
C2147 C2148 1.523 . S
C2148 C2132 1.368 . S
C2148 C2144 1.368 . S
C2148 C2147 1.523 . S
H2149 C2124 0.950 . S
H2150 C2126 0.950 . S
H2151 C2127 0.949 . S
H2152 C2129 0.950 . S
H2153 C2131 0.950 . S
C2154 C2155 1.349 . S
C2154 C2156 1.327 . S
C2154 H2179 0.950 . S
C2155 C2154 1.349 . S
C2155 C2171 1.349 . S
C2156 C2154 1.327 . S
C2156 C2175 1.429 . S
C2156 H2180 0.950 . S
C2157 C2174 1.574 . S
C2157 C2176 1.368 . S
C2157 H2181 0.949 . S
H2158 C2162 0.949 . S
C2159 C2160 1.349 . S
C2159 C2161 1.327 . S
C2159 H2182 0.950 . S
C2160 C2159 1.349 . S
C2160 C2172 1.349 . S
C2161 C2159 1.327 . S
C2161 C2177 1.429 . S
C2161 H2183 0.950 . S
C2162 H2158 0.949 . S
C2162 C2170 1.574 . S
C2162 C2178 1.368 . S
H2163 C2171 0.950 . S
H2164 C2169 0.950 . S
H2165 C2170 0.949 . S
H2166 C2172 0.950 . S
H2167 C2173 0.950 . S
H2168 C2174 0.949 . S
C2169 H2164 0.950 . S
C2169 C2171 1.327 . S
C2169 C2175 1.429 . S
C2170 C2162 1.574 . S
C2170 H2165 0.949 . S
C2170 C2176 1.368 . S
C2171 C2155 1.349 . S
C2171 H2163 0.950 . S
C2171 C2169 1.327 . S
C2172 C2160 1.349 . S
C2172 H2166 0.950 . S
C2172 C2173 1.327 . S
C2173 H2167 0.950 . S
C2173 C2172 1.327 . S
C2173 C2177 1.429 . S
C2174 C2157 1.574 . S
C2174 H2168 0.949 . S
C2174 C2178 1.368 . S
C2175 C2156 1.429 . S
C2175 C2169 1.429 . S
C2175 C2176 1.523 . S
C2176 C2157 1.368 . S
C2176 C2170 1.368 . S
C2176 C2175 1.523 . S
C2177 C2161 1.429 . S
C2177 C2173 1.429 . S
C2177 C2178 1.523 . S
C2178 C2162 1.368 . S
C2178 C2174 1.368 . S
C2178 C2177 1.523 . S
H2179 C2154 0.950 . S
H2180 C2156 0.950 . S
H2181 C2157 0.949 . S
H2182 C2159 0.950 . S
H2183 C2161 0.950 . S
C2184 C2185 1.349 . S
C2184 C2186 1.327 . S
C2184 H2209 0.950 . S
C2185 C2184 1.349 . S
C2185 C2201 1.349 . S
C2186 C2184 1.327 . S
C2186 C2205 1.429 . S
C2186 H2210 0.950 . S
C2187 C2204 1.574 . S
C2187 C2206 1.368 . S
C2187 H2211 0.949 . S
H2188 C2192 0.949 . S
C2189 C2190 1.349 . S
C2189 C2191 1.327 . S
C2189 H2212 0.950 . S
C2190 C2189 1.349 . S
C2190 C2202 1.349 . S
C2191 C2189 1.327 . S
C2191 C2207 1.429 . S
C2191 H2213 0.950 . S
C2192 H2188 0.949 . S
C2192 C2200 1.574 . S
C2192 C2208 1.368 . S
H2193 C2201 0.950 . S
H2194 C2199 0.950 . S
H2195 C2200 0.949 . S
H2196 C2202 0.950 . S
H2197 C2203 0.950 . S
H2198 C2204 0.949 . S
C2199 H2194 0.950 . S
C2199 C2201 1.327 . S
C2199 C2205 1.429 . S
C2200 C2192 1.574 . S
C2200 H2195 0.949 . S
C2200 C2206 1.368 . S
C2201 C2185 1.349 . S
C2201 H2193 0.950 . S
C2201 C2199 1.327 . S
C2202 C2190 1.349 . S
C2202 H2196 0.950 . S
C2202 C2203 1.327 . S
C2203 H2197 0.950 . S
C2203 C2202 1.327 . S
C2203 C2207 1.429 . S
C2204 C2187 1.574 . S
C2204 H2198 0.949 . S
C2204 C2208 1.368 . S
C2205 C2186 1.429 . S
C2205 C2199 1.429 . S
C2205 C2206 1.523 . S
C2206 C2187 1.368 . S
C2206 C2200 1.368 . S
C2206 C2205 1.523 . S
C2207 C2191 1.429 . S
C2207 C2203 1.429 . S
C2207 C2208 1.523 . S
C2208 C2192 1.368 . S
C2208 C2204 1.368 . S
C2208 C2207 1.523 . S
H2209 C2184 0.950 . S
H2210 C2186 0.950 . S
H2211 C2187 0.949 . S
H2212 C2189 0.950 . S
H2213 C2191 0.950 . S
C2214 C2215 1.349 . S
C2214 C2216 1.327 . S
C2214 H2239 0.950 . S
C2215 C2214 1.349 . S
C2215 C2231 1.349 . S
C2216 C2214 1.327 . S
C2216 C2235 1.429 . S
C2216 H2240 0.950 . S
C2217 C2234 1.574 . S
C2217 C2236 1.368 . S
C2217 H2241 0.949 . S
H2218 C2222 0.949 . S
C2219 C2220 1.349 . S
C2219 C2221 1.327 . S
C2219 H2242 0.950 . S
C2220 C2219 1.349 . S
C2220 C2232 1.349 . S
C2221 C2219 1.327 . S
C2221 C2237 1.429 . S
C2221 H2243 0.950 . S
C2222 H2218 0.949 . S
C2222 C2230 1.574 . S
C2222 C2238 1.368 . S
H2223 C2231 0.950 . S
H2224 C2229 0.950 . S
H2225 C2230 0.949 . S
H2226 C2232 0.950 . S
H2227 C2233 0.950 . S
H2228 C2234 0.949 . S
C2229 H2224 0.950 . S
C2229 C2231 1.327 . S
C2229 C2235 1.429 . S
C2230 C2222 1.574 . S
C2230 H2225 0.949 . S
C2230 C2236 1.368 . S
C2231 C2215 1.349 . S
C2231 H2223 0.950 . S
C2231 C2229 1.327 . S
C2232 C2220 1.349 . S
C2232 H2226 0.950 . S
C2232 C2233 1.327 . S
C2233 H2227 0.950 . S
C2233 C2232 1.327 . S
C2233 C2237 1.429 . S
C2234 C2217 1.574 . S
C2234 H2228 0.949 . S
C2234 C2238 1.368 . S
C2235 C2216 1.429 . S
C2235 C2229 1.429 . S
C2235 C2236 1.523 . S
C2236 C2217 1.368 . S
C2236 C2230 1.368 . S
C2236 C2235 1.523 . S
C2237 C2221 1.429 . S
C2237 C2233 1.429 . S
C2237 C2238 1.523 . S
C2238 C2222 1.368 . S
C2238 C2234 1.368 . S
C2238 C2237 1.523 . S
H2239 C2214 0.950 . S
H2240 C2216 0.950 . S
H2241 C2217 0.949 . S
H2242 C2219 0.950 . S
H2243 C2221 0.950 . S
C2244 C2245 1.349 . S
C2244 C2246 1.327 . S
C2244 H2269 0.950 . S
C2245 C2244 1.349 . S
C2245 C2261 1.349 . S
C2246 C2244 1.327 . S
C2246 C2265 1.429 . S
C2246 H2270 0.950 . S
C2247 C2264 1.574 . S
C2247 C2266 1.368 . S
C2247 H2271 0.949 . S
H2248 C2252 0.949 . S
C2249 C2250 1.349 . S
C2249 C2251 1.327 . S
C2249 H2272 0.950 . S
C2250 C2249 1.349 . S
C2250 C2262 1.349 . S
C2251 C2249 1.327 . S
C2251 C2267 1.429 . S
C2251 H2273 0.950 . S
C2252 H2248 0.949 . S
C2252 C2260 1.574 . S
C2252 C2268 1.368 . S
H2253 C2261 0.950 . S
H2254 C2259 0.950 . S
H2255 C2260 0.949 . S
H2256 C2262 0.950 . S
H2257 C2263 0.950 . S
H2258 C2264 0.949 . S
C2259 H2254 0.950 . S
C2259 C2261 1.327 . S
C2259 C2265 1.429 . S
C2260 C2252 1.574 . S
C2260 H2255 0.949 . S
C2260 C2266 1.368 . S
C2261 C2245 1.349 . S
C2261 H2253 0.950 . S
C2261 C2259 1.327 . S
C2262 C2250 1.349 . S
C2262 H2256 0.950 . S
C2262 C2263 1.327 . S
C2263 H2257 0.950 . S
C2263 C2262 1.327 . S
C2263 C2267 1.429 . S
C2264 C2247 1.574 . S
C2264 H2258 0.949 . S
C2264 C2268 1.368 . S
C2265 C2246 1.429 . S
C2265 C2259 1.429 . S
C2265 C2266 1.523 . S
C2266 C2247 1.368 . S
C2266 C2260 1.368 . S
C2266 C2265 1.523 . S
C2267 C2251 1.429 . S
C2267 C2263 1.429 . S
C2267 C2268 1.523 . S
C2268 C2252 1.368 . S
C2268 C2264 1.368 . S
C2268 C2267 1.523 . S
H2269 C2244 0.950 . S
H2270 C2246 0.950 . S
H2271 C2247 0.949 . S
H2272 C2249 0.950 . S
H2273 C2251 0.950 . S
C2274 C2275 1.349 . S
C2274 C2276 1.327 . S
C2274 H2299 0.950 . S
C2275 C2274 1.349 . S
C2275 C2291 1.349 . S
C2276 C2274 1.327 . S
C2276 C2295 1.429 . S
C2276 H2300 0.950 . S
C2277 C2294 1.574 . S
C2277 C2296 1.368 . S
C2277 H2301 0.949 . S
H2278 C2282 0.949 . S
C2279 C2280 1.349 . S
C2279 C2281 1.327 . S
C2279 H2302 0.950 . S
C2280 C2279 1.349 . S
C2280 C2292 1.349 . S
C2281 C2279 1.327 . S
C2281 C2297 1.429 . S
C2281 H2303 0.950 . S
C2282 H2278 0.949 . S
C2282 C2290 1.574 . S
C2282 C2298 1.368 . S
H2283 C2291 0.950 . S
H2284 C2289 0.950 . S
H2285 C2290 0.949 . S
H2286 C2292 0.950 . S
H2287 C2293 0.950 . S
H2288 C2294 0.949 . S
C2289 H2284 0.950 . S
C2289 C2291 1.327 . S
C2289 C2295 1.429 . S
C2290 C2282 1.574 . S
C2290 H2285 0.949 . S
C2290 C2296 1.368 . S
C2291 C2275 1.349 . S
C2291 H2283 0.950 . S
C2291 C2289 1.327 . S
C2292 C2280 1.349 . S
C2292 H2286 0.950 . S
C2292 C2293 1.327 . S
C2293 H2287 0.950 . S
C2293 C2292 1.327 . S
C2293 C2297 1.429 . S
C2294 C2277 1.574 . S
C2294 H2288 0.949 . S
C2294 C2298 1.368 . S
C2295 C2276 1.429 . S
C2295 C2289 1.429 . S
C2295 C2296 1.523 . S
C2296 C2277 1.368 . S
C2296 C2290 1.368 . S
C2296 C2295 1.523 . S
C2297 C2281 1.429 . S
C2297 C2293 1.429 . S
C2297 C2298 1.523 . S
C2298 C2282 1.368 . S
C2298 C2294 1.368 . S
C2298 C2297 1.523 . S
H2299 C2274 0.950 . S
H2300 C2276 0.950 . S
H2301 C2277 0.949 . S
H2302 C2279 0.950 . S
H2303 C2281 0.950 . S
C2304 C2305 1.349 . S
C2304 C2306 1.327 . S
C2304 H2329 0.950 . S
C2305 C2304 1.349 . S
C2305 C2321 1.349 . S
C2306 C2304 1.327 . S
C2306 C2325 1.429 . S
C2306 H2330 0.950 . S
C2307 C2324 1.574 . S
C2307 C2326 1.368 . S
C2307 H2331 0.949 . S
H2308 C2312 0.949 . S
C2309 C2310 1.349 . S
C2309 C2311 1.327 . S
C2309 H2332 0.950 . S
C2310 C2309 1.349 . S
C2310 C2322 1.349 . S
C2311 C2309 1.327 . S
C2311 C2327 1.429 . S
C2311 H2333 0.950 . S
C2312 H2308 0.949 . S
C2312 C2320 1.574 . S
C2312 C2328 1.368 . S
H2313 C2321 0.950 . S
H2314 C2319 0.950 . S
H2315 C2320 0.949 . S
H2316 C2322 0.950 . S
H2317 C2323 0.950 . S
H2318 C2324 0.949 . S
C2319 H2314 0.950 . S
C2319 C2321 1.327 . S
C2319 C2325 1.429 . S
C2320 C2312 1.574 . S
C2320 H2315 0.949 . S
C2320 C2326 1.368 . S
C2321 C2305 1.349 . S
C2321 H2313 0.950 . S
C2321 C2319 1.327 . S
C2322 C2310 1.349 . S
C2322 H2316 0.950 . S
C2322 C2323 1.327 . S
C2323 H2317 0.950 . S
C2323 C2322 1.327 . S
C2323 C2327 1.429 . S
C2324 C2307 1.574 . S
C2324 H2318 0.949 . S
C2324 C2328 1.368 . S
C2325 C2306 1.429 . S
C2325 C2319 1.429 . S
C2325 C2326 1.523 . S
C2326 C2307 1.368 . S
C2326 C2320 1.368 . S
C2326 C2325 1.523 . S
C2327 C2311 1.429 . S
C2327 C2323 1.429 . S
C2327 C2328 1.523 . S
C2328 C2312 1.368 . S
C2328 C2324 1.368 . S
C2328 C2327 1.523 . S
H2329 C2304 0.950 . S
H2330 C2306 0.950 . S
H2331 C2307 0.949 . S
H2332 C2309 0.950 . S
H2333 C2311 0.950 . S
C2334 C2335 1.349 . S
C2334 C2336 1.327 . S
C2334 H2359 0.950 . S
C2335 C2334 1.349 . S
C2335 C2351 1.349 . S
C2336 C2334 1.327 . S
C2336 C2355 1.429 . S
C2336 H2360 0.950 . S
C2337 C2354 1.574 . S
C2337 C2356 1.368 . S
C2337 H2361 0.949 . S
H2338 C2342 0.949 . S
C2339 C2340 1.349 . S
C2339 C2341 1.327 . S
C2339 H2362 0.950 . S
C2340 C2339 1.349 . S
C2340 C2352 1.349 . S
C2341 C2339 1.327 . S
C2341 C2357 1.429 . S
C2341 H2363 0.950 . S
C2342 H2338 0.949 . S
C2342 C2350 1.574 . S
C2342 C2358 1.368 . S
H2343 C2351 0.950 . S
H2344 C2349 0.950 . S
H2345 C2350 0.949 . S
H2346 C2352 0.950 . S
H2347 C2353 0.950 . S
H2348 C2354 0.949 . S
C2349 H2344 0.950 . S
C2349 C2351 1.327 . S
C2349 C2355 1.429 . S
C2350 C2342 1.574 . S
C2350 H2345 0.949 . S
C2350 C2356 1.368 . S
C2351 C2335 1.349 . S
C2351 H2343 0.950 . S
C2351 C2349 1.327 . S
C2352 C2340 1.349 . S
C2352 H2346 0.950 . S
C2352 C2353 1.327 . S
C2353 H2347 0.950 . S
C2353 C2352 1.327 . S
C2353 C2357 1.429 . S
C2354 C2337 1.574 . S
C2354 H2348 0.949 . S
C2354 C2358 1.368 . S
C2355 C2336 1.429 . S
C2355 C2349 1.429 . S
C2355 C2356 1.523 . S
C2356 C2337 1.368 . S
C2356 C2350 1.368 . S
C2356 C2355 1.523 . S
C2357 C2341 1.429 . S
C2357 C2353 1.429 . S
C2357 C2358 1.523 . S
C2358 C2342 1.368 . S
C2358 C2354 1.368 . S
C2358 C2357 1.523 . S
H2359 C2334 0.950 . S
H2360 C2336 0.950 . S
H2361 C2337 0.949 . S
H2362 C2339 0.950 . S
H2363 C2341 0.950 . S
C2364 C2365 1.349 . S
C2364 C2366 1.327 . S
C2364 H2389 0.950 . S
C2365 C2364 1.349 . S
C2365 C2381 1.349 . S
C2366 C2364 1.327 . S
C2366 C2385 1.429 . S
C2366 H2390 0.950 . S
C2367 C2384 1.574 . S
C2367 C2386 1.368 . S
C2367 H2391 0.949 . S
H2368 C2372 0.949 . S
C2369 C2370 1.349 . S
C2369 C2371 1.327 . S
C2369 H2392 0.950 . S
C2370 C2369 1.349 . S
C2370 C2382 1.349 . S
C2371 C2369 1.327 . S
C2371 C2387 1.429 . S
C2371 H2393 0.950 . S
C2372 H2368 0.949 . S
C2372 C2380 1.574 . S
C2372 C2388 1.368 . S
H2373 C2381 0.950 . S
H2374 C2379 0.950 . S
H2375 C2380 0.949 . S
H2376 C2382 0.950 . S
H2377 C2383 0.950 . S
H2378 C2384 0.949 . S
C2379 H2374 0.950 . S
C2379 C2381 1.327 . S
C2379 C2385 1.429 . S
C2380 C2372 1.574 . S
C2380 H2375 0.949 . S
C2380 C2386 1.368 . S
C2381 C2365 1.349 . S
C2381 H2373 0.950 . S
C2381 C2379 1.327 . S
C2382 C2370 1.349 . S
C2382 H2376 0.950 . S
C2382 C2383 1.327 . S
C2383 H2377 0.950 . S
C2383 C2382 1.327 . S
C2383 C2387 1.429 . S
C2384 C2367 1.574 . S
C2384 H2378 0.949 . S
C2384 C2388 1.368 . S
C2385 C2366 1.429 . S
C2385 C2379 1.429 . S
C2385 C2386 1.523 . S
C2386 C2367 1.368 . S
C2386 C2380 1.368 . S
C2386 C2385 1.523 . S
C2387 C2371 1.429 . S
C2387 C2383 1.429 . S
C2387 C2388 1.523 . S
C2388 C2372 1.368 . S
C2388 C2384 1.368 . S
C2388 C2387 1.523 . S
H2389 C2364 0.950 . S
H2390 C2366 0.950 . S
H2391 C2367 0.949 . S
H2392 C2369 0.950 . S
H2393 C2371 0.950 . S
C2394 C2395 1.349 . S
C2394 C2396 1.327 . S
C2394 H2419 0.950 . S
C2395 C2394 1.349 . S
C2395 C2411 1.349 . S
C2396 C2394 1.327 . S
C2396 C2415 1.429 . S
C2396 H2420 0.950 . S
C2397 C2414 1.574 . S
C2397 C2416 1.368 . S
C2397 H2421 0.949 . S
H2398 C2402 0.949 . S
C2399 C2400 1.349 . S
C2399 C2401 1.327 . S
C2399 H2422 0.950 . S
C2400 C2399 1.349 . S
C2400 C2412 1.349 . S
C2401 C2399 1.327 . S
C2401 C2417 1.429 . S
C2401 H2423 0.950 . S
C2402 H2398 0.949 . S
C2402 C2410 1.574 . S
C2402 C2418 1.368 . S
H2403 C2411 0.950 . S
H2404 C2409 0.950 . S
H2405 C2410 0.949 . S
H2406 C2412 0.950 . S
H2407 C2413 0.950 . S
H2408 C2414 0.949 . S
C2409 H2404 0.950 . S
C2409 C2411 1.327 . S
C2409 C2415 1.429 . S
C2410 C2402 1.574 . S
C2410 H2405 0.949 . S
C2410 C2416 1.368 . S
C2411 C2395 1.349 . S
C2411 H2403 0.950 . S
C2411 C2409 1.327 . S
C2412 C2400 1.349 . S
C2412 H2406 0.950 . S
C2412 C2413 1.327 . S
C2413 H2407 0.950 . S
C2413 C2412 1.327 . S
C2413 C2417 1.429 . S
C2414 C2397 1.574 . S
C2414 H2408 0.949 . S
C2414 C2418 1.368 . S
C2415 C2396 1.429 . S
C2415 C2409 1.429 . S
C2415 C2416 1.523 . S
C2416 C2397 1.368 . S
C2416 C2410 1.368 . S
C2416 C2415 1.523 . S
C2417 C2401 1.429 . S
C2417 C2413 1.429 . S
C2417 C2418 1.523 . S
C2418 C2402 1.368 . S
C2418 C2414 1.368 . S
C2418 C2417 1.523 . S
H2419 C2394 0.950 . S
H2420 C2396 0.950 . S
H2421 C2397 0.949 . S
H2422 C2399 0.950 . S
H2423 C2401 0.950 . S
C2424 C2425 1.349 . S
C2424 C2426 1.327 . S
C2424 H2449 0.950 . S
C2425 C2424 1.349 . S
C2425 C2441 1.349 . S
C2426 C2424 1.327 . S
C2426 C2445 1.429 . S
C2426 H2450 0.950 1_556 S
C2427 C2444 1.574 1_556 S
C2427 C2446 1.368 1_556 S
C2427 H2451 0.949 . S
H2428 C2432 0.949 . S
C2429 C2430 1.349 . S
C2429 C2431 1.327 . S
C2429 H2452 0.950 . S
C2430 C2429 1.349 . S
C2430 C2442 1.349 . S
C2431 C2429 1.327 . S
C2431 C2447 1.429 . S
C2431 H2453 0.950 . S
C2432 H2428 0.949 . S
C2432 C2440 1.574 . S
C2432 C2448 1.368 . S
H2433 C2441 0.950 . S
H2434 C2439 0.950 . S
H2435 C2440 0.949 . S
H2436 C2442 0.950 . S
H2437 C2443 0.950 . S
H2438 C2444 0.949 . S
C2439 H2434 0.950 . S
C2439 C2441 1.327 . S
C2439 C2445 1.429 . S
C2440 C2432 1.574 . S
C2440 H2435 0.949 . S
C2440 C2446 1.368 . S
C2441 C2425 1.349 . S
C2441 H2433 0.950 . S
C2441 C2439 1.327 . S
C2442 C2430 1.349 . S
C2442 H2436 0.950 . S
C2442 C2443 1.327 . S
C2443 H2437 0.950 . S
C2443 C2442 1.327 . S
C2443 C2447 1.429 . S
C2444 C2427 1.574 1_554 S
C2444 H2438 0.949 . S
C2444 C2448 1.368 . S
C2445 C2426 1.429 . S
C2445 C2439 1.429 . S
C2445 C2446 1.523 1_556 S
C2446 C2427 1.368 1_554 S
C2446 C2440 1.368 . S
C2446 C2445 1.523 1_554 S
C2447 C2431 1.429 . S
C2447 C2443 1.429 . S
C2447 C2448 1.523 . S
C2448 C2432 1.368 . S
C2448 C2444 1.368 . S
C2448 C2447 1.523 . S
H2449 C2424 0.950 . S
H2450 C2426 0.950 1_554 S
H2451 C2427 0.949 . S
H2452 C2429 0.950 . S
H2453 C2431 0.950 . S
C2454 C2455 1.349 . S
C2454 C2456 1.327 . S
C2454 H2479 0.950 . S
C2455 C2454 1.349 . S
C2455 C2471 1.349 . S
C2456 C2454 1.327 . S
C2456 C2475 1.429 . S
C2456 H2480 0.950 . S
C2457 C2474 1.574 . S
C2457 C2476 1.368 . S
C2457 H2481 0.949 . S
H2458 C2462 0.949 . S
C2459 C2460 1.349 . S
C2459 C2461 1.327 1_556 S
C2459 H2482 0.950 . S
C2460 C2459 1.349 . S
C2460 C2472 1.349 . S
C2461 C2459 1.327 1_554 S
C2461 C2477 1.428 1_554 S
C2461 H2483 0.950 . S
C2462 H2458 0.949 . S
C2462 C2470 1.574 1_556 S
C2462 C2478 1.368 1_556 S
H2463 C2471 0.950 . S
H2464 C2469 0.950 . S
H2465 C2470 0.949 1_556 S
H2466 C2472 0.950 . S
H2467 C2473 0.950 . S
H2468 C2474 0.949 . S
C2469 H2464 0.950 . S
C2469 C2471 1.327 . S
C2469 C2475 1.429 . S
C2470 C2462 1.574 1_554 S
C2470 H2465 0.949 1_554 S
C2470 C2476 1.368 . S
C2471 C2455 1.349 . S
C2471 H2463 0.950 . S
C2471 C2469 1.327 . S
C2472 C2460 1.349 . S
C2472 H2466 0.950 . S
C2472 C2473 1.327 . S
C2473 H2467 0.950 . S
C2473 C2472 1.327 . S
C2473 C2477 1.429 . S
C2474 C2457 1.574 . S
C2474 H2468 0.949 . S
C2474 C2478 1.368 . S
C2475 C2456 1.429 . S
C2475 C2469 1.429 . S
C2475 C2476 1.523 . S
C2476 C2457 1.368 . S
C2476 C2470 1.368 . S
C2476 C2475 1.523 . S
C2477 C2461 1.428 1_556 S
C2477 C2473 1.429 . S
C2477 C2478 1.523 1_556 S
C2478 C2462 1.368 1_554 S
C2478 C2474 1.368 . S
C2478 C2477 1.523 1_554 S
H2479 C2454 0.950 . S
H2480 C2456 0.950 . S
H2481 C2457 0.949 . S
H2482 C2459 0.950 . S
H2483 C2461 0.950 . S
C2484 C2485 1.349 . S
C2484 C2486 1.327 . S
C2484 H2509 0.950 . S
C2485 C2484 1.349 . S
C2485 C2501 1.349 . S
C2486 C2484 1.327 . S
C2486 C2505 1.429 . S
C2486 H2510 0.950 . S
C2487 C2504 1.574 . S
C2487 C2506 1.368 . S
C2487 H2511 0.949 . S
H2488 C2492 0.949 . S
C2489 C2490 1.349 . S
C2489 C2491 1.327 . S
C2489 H2512 0.950 . S
C2490 C2489 1.349 . S
C2490 C2502 1.349 . S
C2491 C2489 1.327 . S
C2491 C2507 1.429 . S
C2491 H2513 0.950 . S
C2492 H2488 0.949 . S
C2492 C2500 1.574 . S
C2492 C2508 1.368 . S
H2493 C2501 0.950 . S
H2494 C2499 0.950 . S
H2495 C2500 0.949 . S
H2496 C2502 0.950 . S
H2497 C2503 0.950 . S
H2498 C2504 0.949 . S
C2499 H2494 0.950 . S
C2499 C2501 1.327 . S
C2499 C2505 1.429 . S
C2500 C2492 1.574 . S
C2500 H2495 0.949 . S
C2500 C2506 1.368 . S
C2501 C2485 1.349 . S
C2501 H2493 0.950 . S
C2501 C2499 1.327 . S
C2502 C2490 1.349 . S
C2502 H2496 0.950 . S
C2502 C2503 1.327 . S
C2503 H2497 0.950 . S
C2503 C2502 1.327 . S
C2503 C2507 1.429 . S
C2504 C2487 1.574 . S
C2504 H2498 0.949 . S
C2504 C2508 1.368 . S
C2505 C2486 1.429 . S
C2505 C2499 1.429 . S
C2505 C2506 1.523 1_556 S
C2506 C2487 1.368 . S
C2506 C2500 1.368 . S
C2506 C2505 1.523 1_554 S
C2507 C2491 1.429 . S
C2507 C2503 1.429 . S
C2507 C2508 1.523 . S
C2508 C2492 1.368 . S
C2508 C2504 1.368 . S
C2508 C2507 1.523 . S
H2509 C2484 0.950 . S
H2510 C2486 0.950 . S
H2511 C2487 0.949 . S
H2512 C2489 0.950 . S
H2513 C2491 0.950 . S
C2514 C2515 1.349 . S
C2514 C2516 1.327 . S
C2514 H2539 0.950 . S
C2515 C2514 1.349 . S
C2515 C2531 1.349 . S
C2516 C2514 1.327 . S
C2516 C2535 1.429 . S
C2516 H2540 0.950 . S
C2517 C2534 1.574 . S
C2517 C2536 1.368 . S
C2517 H2541 0.949 . S
H2518 C2522 0.949 1_556 S
C2519 C2520 1.349 . S
C2519 C2521 1.327 . S
C2519 H2542 0.950 . S
C2520 C2519 1.349 . S
C2520 C2532 1.349 . S
C2521 C2519 1.327 . S
C2521 C2537 1.429 . S
C2521 H2543 0.950 . S
C2522 H2518 0.949 1_554 S
C2522 C2530 1.574 . S
C2522 C2538 1.368 . S
H2523 C2531 0.950 . S
H2524 C2529 0.950 . S
H2525 C2530 0.949 . S
H2526 C2532 0.950 . S
H2527 C2533 0.950 . S
H2528 C2534 0.949 . S
C2529 H2524 0.950 . S
C2529 C2531 1.327 . S
C2529 C2535 1.429 . S
C2530 C2522 1.574 . S
C2530 H2525 0.949 . S
C2530 C2536 1.368 . S
C2531 C2515 1.349 . S
C2531 H2523 0.950 . S
C2531 C2529 1.327 . S
C2532 C2520 1.349 . S
C2532 H2526 0.950 . S
C2532 C2533 1.327 . S
C2533 H2527 0.950 . S
C2533 C2532 1.327 . S
C2533 C2537 1.429 . S
C2534 C2517 1.574 . S
C2534 H2528 0.949 . S
C2534 C2538 1.368 . S
C2535 C2516 1.429 . S
C2535 C2529 1.429 . S
C2535 C2536 1.523 . S
C2536 C2517 1.368 . S
C2536 C2530 1.368 . S
C2536 C2535 1.523 . S
C2537 C2521 1.429 . S
C2537 C2533 1.429 . S
C2537 C2538 1.523 1_556 S
C2538 C2522 1.368 . S
C2538 C2534 1.368 . S
C2538 C2537 1.523 1_554 S
H2539 C2514 0.950 . S
H2540 C2516 0.950 . S
H2541 C2517 0.949 . S
H2542 C2519 0.950 . S
H2543 C2521 0.950 . S
C2544 C2545 1.349 . S
C2544 C2546 1.327 . S
C2544 H2569 0.950 . S
C2545 C2544 1.349 . S
C2545 C2561 1.349 . S
C2546 C2544 1.327 . S
C2546 C2565 1.429 . S
C2546 H2570 0.950 . S
C2547 C2564 1.574 . S
C2547 C2566 1.368 . S
C2547 H2571 0.949 . S
H2548 C2552 0.949 . S
C2549 C2550 1.349 . S
C2549 C2551 1.327 . S
C2549 H2572 0.950 . S
C2550 C2549 1.349 . S
C2550 C2562 1.349 . S
C2551 C2549 1.327 . S
C2551 C2567 1.429 . S
C2551 H2573 0.950 . S
C2552 H2548 0.949 . S
C2552 C2560 1.574 . S
C2552 C2568 1.368 . S
H2553 C2561 0.950 . S
H2554 C2559 0.950 . S
H2555 C2560 0.949 . S
H2556 C2562 0.950 . S
H2557 C2563 0.950 . S
H2558 C2564 0.949 . S
C2559 H2554 0.950 . S
C2559 C2561 1.327 . S
C2559 C2565 1.429 . S
C2560 C2552 1.574 . S
C2560 H2555 0.949 . S
C2560 C2566 1.368 . S
C2561 C2545 1.349 . S
C2561 H2553 0.950 . S
C2561 C2559 1.327 . S
C2562 C2550 1.349 . S
C2562 H2556 0.950 . S
C2562 C2563 1.327 . S
C2563 H2557 0.950 . S
C2563 C2562 1.327 . S
C2563 C2567 1.429 . S
C2564 C2547 1.574 . S
C2564 H2558 0.949 . S
C2564 C2568 1.368 . S
C2565 C2546 1.429 . S
C2565 C2559 1.429 . S
C2565 C2566 1.523 . S
C2566 C2547 1.368 . S
C2566 C2560 1.368 . S
C2566 C2565 1.523 . S
C2567 C2551 1.429 . S
C2567 C2563 1.429 . S
C2567 C2568 1.523 . S
C2568 C2552 1.368 . S
C2568 C2564 1.368 . S
C2568 C2567 1.523 . S
H2569 C2544 0.950 . S
H2570 C2546 0.950 . S
H2571 C2547 0.949 . S
H2572 C2549 0.950 . S
H2573 C2551 0.950 . S
C2574 C2575 1.349 . S
C2574 C2576 1.327 . S
C2574 H2599 0.950 . S
C2575 C2574 1.349 . S
C2575 C2591 1.349 . S
C2576 C2574 1.327 . S
C2576 C2595 1.429 . S
C2576 H2600 0.950 . S
C2577 C2594 1.574 . S
C2577 C2596 1.368 . S
C2577 H2601 0.949 . S
H2578 C2582 0.949 . S
C2579 C2580 1.349 . S
C2579 C2581 1.327 . S
C2579 H2602 0.950 . S
C2580 C2579 1.349 . S
C2580 C2592 1.349 . S
C2581 C2579 1.327 . S
C2581 C2597 1.429 . S
C2581 H2603 0.950 . S
C2582 H2578 0.949 . S
C2582 C2590 1.574 . S
C2582 C2598 1.368 . S
H2583 C2591 0.950 . S
H2584 C2589 0.950 . S
H2585 C2590 0.949 . S
H2586 C2592 0.950 . S
H2587 C2593 0.950 . S
H2588 C2594 0.949 . S
C2589 H2584 0.950 . S
C2589 C2591 1.327 . S
C2589 C2595 1.429 . S
C2590 C2582 1.574 . S
C2590 H2585 0.949 . S
C2590 C2596 1.368 . S
C2591 C2575 1.349 . S
C2591 H2583 0.950 . S
C2591 C2589 1.327 . S
C2592 C2580 1.349 . S
C2592 H2586 0.950 . S
C2592 C2593 1.327 . S
C2593 H2587 0.950 . S
C2593 C2592 1.327 . S
C2593 C2597 1.429 . S
C2594 C2577 1.574 . S
C2594 H2588 0.949 . S
C2594 C2598 1.368 . S
C2595 C2576 1.429 . S
C2595 C2589 1.429 . S
C2595 C2596 1.523 . S
C2596 C2577 1.368 . S
C2596 C2590 1.368 . S
C2596 C2595 1.523 . S
C2597 C2581 1.429 . S
C2597 C2593 1.429 . S
C2597 C2598 1.523 . S
C2598 C2582 1.368 . S
C2598 C2594 1.368 . S
C2598 C2597 1.523 . S
H2599 C2574 0.950 . S
H2600 C2576 0.950 . S
H2601 C2577 0.949 . S
H2602 C2579 0.950 . S
H2603 C2581 0.950 . S
C2604 C2605 1.349 . S
C2604 C2606 1.327 . S
C2604 H2629 0.950 . S
C2605 C2604 1.349 . S
C2605 C2621 1.349 . S
C2606 C2604 1.327 . S
C2606 C2625 1.429 . S
C2606 H2630 0.950 . S
C2607 C2624 1.574 . S
C2607 C2626 1.368 . S
C2607 H2631 0.949 . S
H2608 C2612 0.949 . S
C2609 C2610 1.349 . S
C2609 C2611 1.327 . S
C2609 H2632 0.950 . S
C2610 C2609 1.349 . S
C2610 C2622 1.349 . S
C2611 C2609 1.327 . S
C2611 C2627 1.429 . S
C2611 H2633 0.950 . S
C2612 H2608 0.949 . S
C2612 C2620 1.574 . S
C2612 C2628 1.368 . S
H2613 C2621 0.950 . S
H2614 C2619 0.950 . S
H2615 C2620 0.949 . S
H2616 C2622 0.950 . S
H2617 C2623 0.950 . S
H2618 C2624 0.949 . S
C2619 H2614 0.950 . S
C2619 C2621 1.327 . S
C2619 C2625 1.429 . S
C2620 C2612 1.574 . S
C2620 H2615 0.949 . S
C2620 C2626 1.368 . S
C2621 C2605 1.349 . S
C2621 H2613 0.950 . S
C2621 C2619 1.327 . S
C2622 C2610 1.349 . S
C2622 H2616 0.950 . S
C2622 C2623 1.327 . S
C2623 H2617 0.950 . S
C2623 C2622 1.327 . S
C2623 C2627 1.429 . S
C2624 C2607 1.574 . S
C2624 H2618 0.949 . S
C2624 C2628 1.368 . S
C2625 C2606 1.429 . S
C2625 C2619 1.429 . S
C2625 C2626 1.523 . S
C2626 C2607 1.368 . S
C2626 C2620 1.368 . S
C2626 C2625 1.523 . S
C2627 C2611 1.429 . S
C2627 C2623 1.429 . S
C2627 C2628 1.523 . S
C2628 C2612 1.368 . S
C2628 C2624 1.368 . S
C2628 C2627 1.523 . S
H2629 C2604 0.950 . S
H2630 C2606 0.950 . S
H2631 C2607 0.949 . S
H2632 C2609 0.950 . S
H2633 C2611 0.950 . S
C2634 C2635 1.349 . S
C2634 C2636 1.327 . S
C2634 H2659 0.950 . S
C2635 C2634 1.349 . S
C2635 C2651 1.349 . S
C2636 C2634 1.327 . S
C2636 C2655 1.429 . S
C2636 H2660 0.950 . S
C2637 C2654 1.574 . S
C2637 C2656 1.368 . S
C2637 H2661 0.949 . S
H2638 C2642 0.949 . S
C2639 C2640 1.349 . S
C2639 C2641 1.327 . S
C2639 H2662 0.950 . S
C2640 C2639 1.349 . S
C2640 C2652 1.349 . S
C2641 C2639 1.327 . S
C2641 C2657 1.429 . S
C2641 H2663 0.950 . S
C2642 H2638 0.949 . S
C2642 C2650 1.574 . S
C2642 C2658 1.368 . S
H2643 C2651 0.950 . S
H2644 C2649 0.950 . S
H2645 C2650 0.949 . S
H2646 C2652 0.950 . S
H2647 C2653 0.950 . S
H2648 C2654 0.949 . S
C2649 H2644 0.950 . S
C2649 C2651 1.327 . S
C2649 C2655 1.429 . S
C2650 C2642 1.574 . S
C2650 H2645 0.949 . S
C2650 C2656 1.368 . S
C2651 C2635 1.349 . S
C2651 H2643 0.950 . S
C2651 C2649 1.327 . S
C2652 C2640 1.349 . S
C2652 H2646 0.950 . S
C2652 C2653 1.327 . S
C2653 H2647 0.950 . S
C2653 C2652 1.327 . S
C2653 C2657 1.429 . S
C2654 C2637 1.574 . S
C2654 H2648 0.949 . S
C2654 C2658 1.368 . S
C2655 C2636 1.429 . S
C2655 C2649 1.429 . S
C2655 C2656 1.523 . S
C2656 C2637 1.368 . S
C2656 C2650 1.368 . S
C2656 C2655 1.523 . S
C2657 C2641 1.429 . S
C2657 C2653 1.429 . S
C2657 C2658 1.523 . S
C2658 C2642 1.368 . S
C2658 C2654 1.368 . S
C2658 C2657 1.523 . S
H2659 C2634 0.950 . S
H2660 C2636 0.950 . S
H2661 C2637 0.949 . S
H2662 C2639 0.950 . S
H2663 C2641 0.950 . S
C2664 C2665 1.349 . S
C2664 C2666 1.327 . S
C2664 H2689 0.950 . S
C2665 C2664 1.349 . S
C2665 C2681 1.349 . S
C2666 C2664 1.327 . S
C2666 C2685 1.429 . S
C2666 H2690 0.950 . S
C2667 C2684 1.574 . S
C2667 C2686 1.368 . S
C2667 H2691 0.949 . S
H2668 C2672 0.941 1_554 S
C2669 C2670 1.349 . S
C2669 C2671 1.327 . S
C2669 H2692 0.950 . S
C2670 C2669 1.349 . S
C2670 C2682 1.349 . S
C2671 C2669 1.327 . S
C2671 C2687 1.429 . S
C2671 H2693 0.950 . S
C2672 H2668 0.941 1_556 S
C2672 C2680 1.574 . S
C2672 C2688 1.368 . S
H2673 C2681 0.950 . S
H2674 C2679 0.950 . S
H2675 C2680 0.949 . S
H2676 C2682 0.950 . S
H2677 C2683 0.950 . S
H2678 C2684 0.949 . S
C2679 H2674 0.950 . S
C2679 C2681 1.327 . S
C2679 C2685 1.429 . S
C2680 C2672 1.574 . S
C2680 H2675 0.949 . S
C2680 C2686 1.368 . S
C2681 C2665 1.349 . S
C2681 H2673 0.950 . S
C2681 C2679 1.327 . S
C2682 C2670 1.349 . S
C2682 H2676 0.950 . S
C2682 C2683 1.327 . S
C2683 H2677 0.950 . S
C2683 C2682 1.327 . S
C2683 C2687 1.429 . S
C2684 C2667 1.574 . S
C2684 H2678 0.949 . S
C2684 C2688 1.368 . S
C2685 C2666 1.429 . S
C2685 C2679 1.429 . S
C2685 C2686 1.523 . S
C2686 C2667 1.368 . S
C2686 C2680 1.368 . S
C2686 C2685 1.523 . S
C2687 C2671 1.429 . S
C2687 C2683 1.429 . S
C2687 C2688 1.523 1_554 S
C2688 C2672 1.368 . S
C2688 C2684 1.368 . S
C2688 C2687 1.523 1_556 S
H2689 C2664 0.950 . S
H2690 C2666 0.950 . S
H2691 C2667 0.949 . S
H2692 C2669 0.950 . S
H2693 C2671 0.950 . S
C2694 C2695 1.349 . S
C2694 C2696 1.327 . S
C2694 H2719 0.950 . S
C2695 C2694 1.349 . S
C2695 C2711 1.349 . S
C2696 C2694 1.327 . S
C2696 C2715 1.429 . S
C2696 H2720 0.950 . S
C2697 C2714 1.574 . S
C2697 C2716 1.368 . S
C2697 H2721 0.949 . S
H2698 C2702 0.949 . S
C2699 C2700 1.349 . S
C2699 C2701 1.327 1_554 S
C2699 H2722 0.950 1_554 S
C2700 C2699 1.349 . S
C2700 C2712 1.349 . S
C2701 C2699 1.327 1_556 S
C2701 C2717 1.429 1_556 S
C2701 H2723 0.950 . S
C2702 H2698 0.949 . S
C2702 C2710 1.581 . S
C2702 C2718 1.368 1_554 S
H2703 C2711 0.950 . S
H2704 C2709 0.950 . S
H2705 C2710 0.957 . S
H2706 C2712 0.950 . S
H2707 C2713 0.950 . S
H2708 C2714 0.949 . S
C2709 H2704 0.950 . S
C2709 C2711 1.327 . S
C2709 C2715 1.429 . S
C2710 C2702 1.581 . S
C2710 H2705 0.957 . S
C2710 C2716 1.352 1_554 S
C2711 C2695 1.349 . S
C2711 H2703 0.950 . S
C2711 C2709 1.327 . S
C2712 C2700 1.349 . S
C2712 H2706 0.950 . S
C2712 C2713 1.327 . S
C2713 H2707 0.950 . S
C2713 C2712 1.327 . S
C2713 C2717 1.429 . S
C2714 C2697 1.574 . S
C2714 H2708 0.949 . S
C2714 C2718 1.368 . S
C2715 C2696 1.429 . S
C2715 C2709 1.429 . S
C2715 C2716 1.523 . S
C2716 C2697 1.368 . S
C2716 C2710 1.352 1_556 S
C2716 C2715 1.523 . S
C2717 C2701 1.429 1_554 S
C2717 C2713 1.429 . S
C2717 C2718 1.523 1_554 S
C2718 C2702 1.368 1_556 S
C2718 C2714 1.368 . S
C2718 C2717 1.523 1_556 S
H2719 C2694 0.950 . S
H2720 C2696 0.950 . S
H2721 C2697 0.949 . S
H2722 C2699 0.950 1_556 S
H2723 C2701 0.950 . S
C2724 C2725 1.349 . S
C2724 C2726 1.327 1_554 S
C2724 H2749 0.950 1_554 S
C2725 C2724 1.349 . S
C2725 C2741 1.349 . S
C2726 C2724 1.327 1_556 S
C2726 C2745 1.429 1_556 S
C2726 H2750 0.950 . S
C2727 C2744 1.574 . S
C2727 C2746 1.368 1_554 S
C2727 H2751 0.949 . S
H2728 C2732 0.949 . S
C2729 C2730 1.349 . S
C2729 C2731 1.327 . S
C2729 H2752 0.950 . S
C2730 C2729 1.349 . S
C2730 C2742 1.349 . S
C2731 C2729 1.327 . S
C2731 C2747 1.429 . S
C2731 H2753 0.950 . S
C2732 H2728 0.949 . S
C2732 C2740 1.574 . S
C2732 C2748 1.368 . S
H2733 C2741 0.950 . S
H2734 C2739 0.950 . S
H2735 C2740 0.949 . S
H2736 C2742 0.950 . S
H2737 C2743 0.950 . S
H2738 C2744 0.949 . S
C2739 H2734 0.950 . S
C2739 C2741 1.327 . S
C2739 C2745 1.429 . S
C2740 C2732 1.574 . S
C2740 H2735 0.949 . S
C2740 C2746 1.368 . S
C2741 C2725 1.349 . S
C2741 H2733 0.950 . S
C2741 C2739 1.327 . S
C2742 C2730 1.349 . S
C2742 H2736 0.950 . S
C2742 C2743 1.327 . S
C2743 H2737 0.950 . S
C2743 C2742 1.327 . S
C2743 C2747 1.429 . S
C2744 C2727 1.574 . S
C2744 H2738 0.949 . S
C2744 C2748 1.368 1_554 S
C2745 C2726 1.429 1_554 S
C2745 C2739 1.429 . S
C2745 C2746 1.523 1_554 S
C2746 C2727 1.368 1_556 S
C2746 C2740 1.368 . S
C2746 C2745 1.523 1_556 S
C2747 C2731 1.429 . S
C2747 C2743 1.429 . S
C2747 C2748 1.523 . S
C2748 C2732 1.368 . S
C2748 C2744 1.368 1_556 S
C2748 C2747 1.523 . S
H2749 C2724 0.950 1_556 S
H2750 C2726 0.950 . S
H2751 C2727 0.949 . S
H2752 C2729 0.950 . S
H2753 C2731 0.950 . S
C2754 C2755 1.349 . S
C2754 C2756 1.327 1_554 S
C2754 H2779 0.950 . S
C2755 C2754 1.349 . S
C2755 C2771 1.349 . S
C2756 C2754 1.327 1_556 S
C2756 C2775 1.429 1_556 S
C2756 H2780 0.950 . S
C2757 C2774 1.574 1_554 S
C2757 C2776 1.368 1_554 S
C2757 H2781 0.949 . S
H2758 C2762 0.949 . S
C2759 C2760 1.349 . S
C2759 C2761 1.327 . S
C2759 H2782 0.950 . S
C2760 C2759 1.349 . S
C2760 C2772 1.349 . S
C2761 C2759 1.327 . S
C2761 C2777 1.429 . S
C2761 H2783 0.950 . S
C2762 H2758 0.949 . S
C2762 C2770 1.574 . S
C2762 C2778 1.368 . S
H2763 C2771 0.950 . S
H2764 C2769 0.950 . S
H2765 C2770 0.949 . S
H2766 C2772 0.950 . S
H2767 C2773 0.950 . S
H2768 C2774 0.949 1_554 S
C2769 H2764 0.950 . S
C2769 C2771 1.327 . S
C2769 C2775 1.429 . S
C2770 C2762 1.574 . S
C2770 H2765 0.949 . S
C2770 C2776 1.368 . S
C2771 C2755 1.349 . S
C2771 H2763 0.950 . S
C2771 C2769 1.327 . S
C2772 C2760 1.349 . S
C2772 H2766 0.950 . S
C2772 C2773 1.327 . S
C2773 H2767 0.950 . S
C2773 C2772 1.327 . S
C2773 C2777 1.429 . S
C2774 C2757 1.574 1_556 S
C2774 H2768 0.949 1_556 S
C2774 C2778 1.368 . S
C2775 C2756 1.429 1_554 S
C2775 C2769 1.429 . S
C2775 C2776 1.523 1_554 S
C2776 C2757 1.368 1_556 S
C2776 C2770 1.368 . S
C2776 C2775 1.523 1_556 S
C2777 C2761 1.429 . S
C2777 C2773 1.429 . S
C2777 C2778 1.523 . S
C2778 C2762 1.368 . S
C2778 C2774 1.368 . S
C2778 C2777 1.523 . S
H2779 C2754 0.950 . S
H2780 C2756 0.950 . S
H2781 C2757 0.949 . S
H2782 C2759 0.950 . S
H2783 C2761 0.950 . S
C1345 C63 2.437 . S
C1350 C476 2.576 . S
C1375 C567 2.415 . S
C1380 C147 2.415 . S
C1405 C224 2.563 . S
C1410 C651 2.422 . S
C1435 C315 2.388 . S
C1440 C392 2.526 . S
C1465 C1159 2.576 . S
C1470 C746 2.437 . S
C1495 C1250 2.415 . S
C1500 C830 2.415 . S
C1525 C907 2.563 . S
C1530 C1334 2.422 . S
C1555 C998 2.388 . S
C1560 C1075 2.526 . S
C1585 C58 1.605 . S
C1590 C319 1.709 1_545 S
C1615 C142 1.652 . S
C1620 C67 1.764 . S
C1645 C237 1.518 . S
C1650 C151 1.667 . S
C1675 C310 1.566 . S
C1680 C242 1.568 1_455 S
C1705 C405 1.480 . S
C1710 C494 1.527 1_565 S
C1735 C571 1.745 . S
C1740 C489 1.589 . S
C1765 C562 1.645 . S
C1770 C655 1.755 . S
C1795 C410 1.603 1_655 S
C1800 C646 1.604 . S
C1825 C980 1.709 1_565 S
C1830 C741 1.605 . S
C1855 C825 1.651 . S
C1860 C728 1.764 . S
C1885 C898 1.518 . S
C1890 C812 1.667 . S
C1915 C993 1.565 . S
C1920 C903 1.568 1_655 S
C1945 C1066 1.480 . S
C1950 C1155 1.527 1_545 S
C1975 C1150 1.589 . S
C1980 C1232 1.745 . S
C2005 C1245 1.645 . S
C2010 C1316 1.755 . S
C2035 C1329 1.604 . S
C2040 C1071 1.603 1_455 S
C2065 C69 1.322 . S
C2070 C226 1.110 . S
C2095 C153 1.330 . S
C2100 C321 1.334 . S
C2125 C573 1.339 . S
C2130 C394 1.118 . S
C2155 C657 1.312 . S
C2160 C478 1.089 . S
C2185 C909 1.110 . S
C2190 C730 1.323 . S
C2215 C982 1.334 . S
C2220 C814 1.330 . S
C2245 C1077 1.118 . S
C2250 C1234 1.339 . S
C2275 C1161 1.089 . S
C2280 C1318 1.312 . S
C2305 C56 2.036 . S
C2310 C987 2.038 . S
C2335 C735 2.070 . S
C2340 C140 2.068 . S
C2365 C231 2.110 . S
C2370 C819 2.074 . S
C2395 C896 2.038 . S
C2400 C308 2.048 . S
C2425 C1148 2.059 . S
C2430 C399 2.107 . S
C2455 C483 2.109 . S
C2460 C1239 2.074 . S
C2485 C1323 2.054 . S
C2490 C560 2.053 . S
C2515 C644 2.020 . S
C2520 C1064 2.012 . S
C2545 C739 2.035 . S
C2550 C326 2.038 . S
C2575 C823 2.069 . S
C2580 C74 2.070 . S
C2605 C158 2.074 . S
C2610 C914 2.110 . S
C2635 C991 2.048 . S
C2640 C235 2.039 . S
C2665 C1082 2.106 . S
C2670 C487 2.059 . S
C2695 C1166 2.109 . S
C2700 C578 2.074 . S
C2725 C662 2.054 . S
C2730 C1243 2.053 . S
C2755 C403 2.012 . S
C2760 C1327 2.020 . S
