# Generated by pormake.
# Topology vby, (6)-cn, num edge types: 1
# Building blocks:
#     Node 0, Type 0, BuildingBlock: KUMJIN_clean_sbu_1, # of connection points: 6
#     Node 1, Type 0, BuildingBlock: KUMJIN_clean_sbu_1, # of connection points: 6
#     Node 2, Type 0, BuildingBlock: KUMJIN_clean_sbu_1, # of connection points: 6
#     Node 3, Type 0, BuildingBlock: KUMJIN_clean_sbu_1, # of connection points: 6
#     Node 4, Type 0, BuildingBlock: KUMJIN_clean_sbu_1, # of connection points: 6
#     Node 5, Type 0, BuildingBlock: KUMJIN_clean_sbu_1, # of connection points: 6
#     Node 6, Type 0, BuildingBlock: KUMJIN_clean_sbu_1, # of connection points: 6
#     Node 7, Type 0, BuildingBlock: KUMJIN_clean_sbu_1, # of connection points: 6
#     Edge 8, Type (0, 0), BuildingBlock: EZIPEK_clean_linker_0, # of connection points: 2
#     Edge 9, Type (0, 0), BuildingBlock: EZIPEK_clean_linker_0, # of connection points: 2
#     Edge 10, Type (0, 0), BuildingBlock: EZIPEK_clean_linker_0, # of connection points: 2
#     Edge 11, Type (0, 0), BuildingBlock: EZIPEK_clean_linker_0, # of connection points: 2
#     Edge 12, Type (0, 0), BuildingBlock: EZIPEK_clean_linker_0, # of connection points: 2
#     Edge 13, Type (0, 0), BuildingBlock: EZIPEK_clean_linker_0, # of connection points: 2
#     Edge 14, Type (0, 0), BuildingBlock: EZIPEK_clean_linker_0, # of connection points: 2
#     Edge 15, Type (0, 0), BuildingBlock: EZIPEK_clean_linker_0, # of connection points: 2
#     Edge 16, Type (0, 0), BuildingBlock: EZIPEK_clean_linker_0, # of connection points: 2
#     Edge 17, Type (0, 0), BuildingBlock: EZIPEK_clean_linker_0, # of connection points: 2
#     Edge 18, Type (0, 0), BuildingBlock: EZIPEK_clean_linker_0, # of connection points: 2
#     Edge 19, Type (0, 0), BuildingBlock: EZIPEK_clean_linker_0, # of connection points: 2
#     Edge 20, Type (0, 0), BuildingBlock: EZIPEK_clean_linker_0, # of connection points: 2
#     Edge 21, Type (0, 0), BuildingBlock: EZIPEK_clean_linker_0, # of connection points: 2
#     Edge 22, Type (0, 0), BuildingBlock: EZIPEK_clean_linker_0, # of connection points: 2
#     Edge 23, Type (0, 0), BuildingBlock: EZIPEK_clean_linker_0, # of connection points: 2
#     Edge 24, Type (0, 0), BuildingBlock: EZIPEK_clean_linker_0, # of connection points: 2
#     Edge 25, Type (0, 0), BuildingBlock: EZIPEK_clean_linker_0, # of connection points: 2
#     Edge 26, Type (0, 0), BuildingBlock: EZIPEK_clean_linker_0, # of connection points: 2
#     Edge 27, Type (0, 0), BuildingBlock: EZIPEK_clean_linker_0, # of connection points: 2
#     Edge 28, Type (0, 0), BuildingBlock: EZIPEK_clean_linker_0, # of connection points: 2
#     Edge 29, Type (0, 0), BuildingBlock: EZIPEK_clean_linker_0, # of connection points: 2
#     Edge 30, Type (0, 0), BuildingBlock: EZIPEK_clean_linker_0, # of connection points: 2
#     Edge 31, Type (0, 0), BuildingBlock: EZIPEK_clean_linker_0, # of connection points: 2
# Relax obj value: 0.188
# Max RMSD: 0.313
# Mean RMSD: 0.222
data_MOF--net-vby--node1-KUMJIN_clean_sbu_1--edge1-EZIPEK_clean_linker_0
_symmetry_space_group_name_H-M    P1
_symmetry_Int_Tables_number       1
_symmetry_cell_setting            triclinic
loop_
_symmetry_equiv_pos_as_xyz
'x, y, z'
_cell_length_a     11.315101
_cell_length_b     84.435969
_cell_length_c     21.825774
_cell_angle_alpha  101.85346
_cell_angle_beta   95.076107
_cell_angle_gamma 90.091038
loop_
_atom_site_label
_atom_site_type_symbol
_atom_site_fract_x
_atom_site_fract_y
_atom_site_fract_z
_atom_type_partial_charge
Eu0 Eu 0.05625 0.35187 0.00509 0.0
C1 C 0.30228 0.42034 0.13362 0.0
N2 N 0.19114 0.4154 0.14187 0.0
C3 C 0.21712 0.42876 0.25061 0.0
C4 C 0.37809 0.42861 0.18502 0.0
C5 C 0.1457 0.42026 0.19863 0.0
C6 C 0.33507 0.43243 0.24429 0.0
C7 C 0.44956 0.42391 0.06257 0.0
C8 C 0.33796 0.41811 0.07298 0.0
C9 C 0.528 0.43107 0.1143 0.0
C10 C 0.49243 0.43345 0.17526 0.0
Eu11 Eu 0.07979 0.4016 0.04905 0.0
N12 N 0.2622 0.4105 0.02381 0.0
C13 C 0.47728 0.42271 0.00043 0.0
C14 C 0.28362 0.41066 0.96356 0.0
C15 C 0.39254 0.41645 0.95071 0.0
H16 H 0.05402 0.41764 0.20395 0.0
H17 H 0.41051 0.41623 0.90265 0.0
H18 H 0.13728 0.33998 0.8553 0.0
H19 H 0.68092 0.32824 0.09888 0.0
H20 H 0.21555 0.40651 0.92585 0.0
H21 H 0.56174 0.42714 0.99033 0.0
H22 H 0.87987 0.34019 0.09968 0.0
H23 H 0.18119 0.43244 0.29555 0.0
H24 H 0.61532 0.43521 0.10791 0.0
H25 H 0.55277 0.43953 0.21437 0.0
H26 H 0.04017 0.3289 0.74925 0.0
H27 H 0.39047 0.43887 0.28483 0.0
H28 H 0.55577 0.32094 -0.00203 0.0
N29 N 0.97778 0.34007 0.90054 0.0
C30 C 0.8621 0.33493 0.89412 0.0
C31 C 0.98887 0.33069 0.7896 0.0
C32 C 0.80399 0.32816 0.8346 0.0
C33 C 0.0432 0.33718 0.84975 0.0
C34 C 0.86821 0.32649 0.78184 0.0
N35 N 0.86487 0.34083 0.00436 0.0
C36 C 0.82448 0.33757 0.05733 0.0
C37 C 0.68971 0.32825 0.9436 0.0
C38 C 0.80448 0.33515 0.9477 0.0
C39 C 0.64273 0.32638 -0.00095 0.0
C40 C 0.71245 0.33057 0.0561 0.0
H41 H 0.82668 0.32139 0.73527 0.0
H42 H 0.63895 0.31763 0.7845 0.0
H43 H 0.53967 0.3175 0.88029 0.0
O44 O 0.13941 0.33688 0.06797 0.0
O45 O 0.88101 0.36551 0.0169 0.0
O46 O 0.89009 0.39344 0.05548 0.0
O47 O 0.07829 0.32618 0.97164 0.0
O48 O 0.0634 0.36274 0.11064 0.0
O49 O 0.04107 0.39081 0.13359 0.0
O50 O 1.02441 0.41827 0.98676 0.0
O51 O 0.25531 0.38797 0.04256 0.0
O52 O 0.25086 0.35993 0.01228 0.0
O53 O 0.02969 0.42628 0.08757 0.0
O54 O 1.02029 0.38778 0.94935 0.0
O55 O 0.13092 0.36489 0.93445 0.0
C56 C 0.83077 0.37955 0.03675 0.0
C57 C 0.21419 0.31107 0.02225 0.0
C58 C 0.26625 0.28491 0.04537 0.0
C59 C 0.35081 0.28324 0.00118 0.0
C60 C 0.29904 0.30934 0.97826 0.0
C61 C 0.36762 0.29546 0.96814 0.0
C62 C 0.19991 0.29901 0.05678 0.0
C63 C 0.05104 0.37661 0.15043 0.0
C64 C 0.12522 0.32365 0.02504 0.0
C65 C 0.68557 0.32261 0.82992 0.0
C66 C 0.62881 0.32256 0.88439 0.0
C67 C 0.30884 0.37395 0.02978 0.0
C68 C 0.93354 0.44349 0.02681 0.0
C69 C 0.90304 0.47107 0.0116 0.0
C70 C 0.78463 0.46988 0.02486 0.0
C71 C 0.81561 0.44255 0.04051 0.0
C72 C 0.97736 0.45777 0.01248 0.0
C73 C 0.74145 0.45573 0.03937 0.0
C74 C 0.08158 0.37702 0.91311 0.0
C75 C 1.01607 0.43048 0.03349 0.0
H76 H 0.40229 0.27234 0.99155 0.0
H77 H 0.30928 0.31841 0.95038 0.0
H78 H 0.43177 0.29399 0.93352 0.0
H79 H 0.13249 0.30013 0.08972 0.0
H80 H 0.72652 0.48009 0.02542 0.0
H81 H 0.78219 0.4317 0.05279 0.0
H82 H 0.06981 0.45874 0.00387 0.0
H83 H 0.65054 0.45515 0.05045 0.0
Eu84 Eu 0.97173 0.65358 0.02996 0.0
C85 C 0.77269 0.58191 0.05226 0.0
N86 N 0.86557 0.5914 0.08312 0.0
C87 C 0.83658 0.58236 0.17826 0.0
C88 C 0.70697 0.57247 0.08418 0.0
C89 C 0.90058 0.59125 0.14464 0.0
C90 C 0.73894 0.57297 0.14799 0.0
C91 C 0.64633 0.57181 0.95595 0.0
C92 C 0.74221 0.58162 0.98858 0.0
C93 C 0.58125 0.56245 0.98786 0.0
C94 C 0.61156 0.5628 0.05174 0.0
Eu95 Eu 0.97059 0.60479 0.0191 0.0
N96 N 0.80682 0.59071 0.9583 0.0
C97 C 0.61978 0.57146 0.89179 0.0
C98 C 0.78432 0.58996 0.89525 0.0
C99 C 0.68943 0.58052 0.86126 0.0
H100 H 0.97904 0.59775 0.16801 0.0
H101 H 0.67098 0.58007 0.81141 0.0
H102 H 0.99792 0.6539 0.87724 0.0
H103 H 0.18329 0.69469 0.2392 0.0
H104 H 0.83993 0.59656 0.87114 0.0
H105 H 0.54692 0.56404 0.86518 0.0
H106 H 0.04585 0.67312 0.18144 0.0
H107 H 0.86394 0.58254 0.22721 0.0
H108 H 0.50792 0.55478 0.96327 0.0
H109 H 0.56173 0.55546 0.07598 0.0
H110 H 0.14728 0.66261 0.81515 0.0
H111 H 0.68994 0.56596 0.17405 0.0
H112 H 0.31261 0.70889 0.18145 0.0
N113 N 0.08607 0.66524 0.96476 0.0
C114 C 0.1628 0.67738 0.99396 0.0
C115 C 0.15208 0.66698 0.86521 0.0
C116 C 0.23917 0.68461 0.95929 0.0
C117 C 0.07229 0.66116 0.9009 0.0
C118 C 0.23588 0.67882 0.8944 0.0
N119 N 0.09999 0.67426 0.09155 0.0
C120 C 0.10371 0.67881 0.15554 0.0
C121 C 0.2466 0.69494 0.09019 0.0
C122 C 0.16706 0.68238 0.0588 0.0
C123 C 0.25243 0.69934 0.15572 0.0
C124 C 0.18031 0.69127 0.18849 0.0
H125 H 0.29557 0.68365 0.8663 0.0
H126 H 0.37672 0.70281 0.96444 0.0
H127 H 0.3819 0.71201 0.07908 0.0
O128 O 0.88634 0.67574 0.0777 0.0
O129 O 0.15251 0.64219 0.00579 0.0
O130 O 0.1521 0.61866 0.04484 0.0
O131 O 0.84288 0.66607 0.97891 0.0
O132 O 0.03801 0.64564 0.12093 0.0
O133 O 0.95498 0.62026 0.11589 0.0
O134 O 1.02318 0.58225 0.95904 0.0
O135 O 0.78936 0.61599 -0.00188 0.0
O136 O 0.80938 0.64151 0.06067 0.0
O137 O 0.08772 0.588 0.05876 0.0
O138 O 1.02412 0.61266 0.9329 0.0
O139 O 0.91657 0.63574 0.93736 0.0
C140 C 0.21006 0.63014 0.02541 0.0
C141 C 0.83143 0.69469 0.01178 0.0
C142 C 0.80171 0.72406 0.04045 0.0
C143 C 0.81293 0.72504 0.9778 0.0
C144 C 0.84397 0.69633 0.94971 0.0
C145 C 0.83424 0.71133 0.93305 0.0
C146 C 0.81063 0.70876 0.05765 0.0
C147 C 1.01522 0.6332 0.14645 0.0
C148 C 0.82998 0.67812 0.02579 0.0
C149 C 0.31757 0.69715 0.99037 0.0
C150 C 0.32047 0.70239 0.05558 0.0
C151 C 0.74151 0.62933 0.02788 0.0
C152 C 0.12964 0.56123 0.00046 0.0
C153 C 0.10233 0.53201 0.98761 0.0
C154 C 0.22397 0.5307 0.00383 0.0
C155 C 0.24985 0.55954 0.01891 0.0
C156 C 0.05507 0.54731 0.9833 0.0
C157 C 0.29689 0.54438 0.01933 0.0
C158 C 0.98235 0.62436 0.90662 0.0
C159 C 0.08739 0.57788 0.00502 0.0
H160 H 0.80486 0.73655 0.96338 0.0
H161 H 0.85908 0.68594 0.91315 0.0
H162 H 0.84225 0.71232 0.88492 0.0
H163 H 0.79976 0.70782 0.1056 0.0
H164 H 0.26156 0.51911 0.00779 0.0
H165 H 0.30729 0.57002 0.03475 0.0
H166 H 0.96078 0.54847 0.97161 0.0
H167 H 0.38915 0.54319 0.03421 0.0
Eu168 Eu 0.06682 0.65381 0.55939 0.0
C169 C 0.26166 0.5831 0.44001 0.0
N170 N 0.15956 0.5898 0.42043 0.0
C171 C 0.18509 0.57762 0.31328 0.0
C172 C 0.33309 0.57409 0.39619 0.0
C173 C 0.11796 0.58666 0.35843 0.0
C174 C 0.29438 0.57161 0.33211 0.0
C175 C 0.39563 0.57741 0.5259 0.0
C176 C 0.29268 0.58472 0.50427 0.0
C177 C 0.4701 0.56914 0.48233 0.0
C178 C 0.43894 0.56749 0.41767 0.0
Eu179 Eu 0.05508 0.60495 0.50061 0.0
N180 N 0.22112 0.59327 0.54559 0.0
C181 C 0.41915 0.57834 0.59066 0.0
C182 C 0.23949 0.5934 0.60824 0.0
C183 C 0.33923 0.58604 0.63185 0.0
H184 H 0.03362 0.59132 0.34358 0.0
H185 H 0.35489 0.58643 0.68179 0.0
H186 H 0.07437 0.66091 0.71724 0.0
H187 H 0.74231 0.67037 0.38478 0.0
H188 H 0.1772 0.59911 0.63996 0.0
H189 H 0.49714 0.57283 0.60917 0.0
H190 H 0.90769 0.65476 0.42152 0.0
H191 H 0.15312 0.57545 0.26399 0.0
H192 H 0.55067 0.56367 0.4981 0.0
H193 H 0.49594 0.56075 0.38466 0.0
H194 H 0.95121 0.67484 0.8001 0.0
H195 H 0.34665 0.56473 0.29697 0.0
H196 H 0.62019 0.68663 0.46228 0.0
N197 N 0.95508 0.6652 0.64242 0.0
C198 C 0.85654 0.67301 0.62508 0.0
C199 C 0.92366 0.67419 0.75105 0.0
C200 C 0.78668 0.68147 0.67074 0.0
C201 C 0.99146 0.66608 0.70426 0.0
C202 C 0.82047 0.68183 0.73423 0.0
N203 N 0.89012 0.66363 0.51771 0.0
C204 C 0.86068 0.66263 0.45529 0.0
C205 C 0.72451 0.68083 0.5426 0.0
C206 C 0.8249 0.67256 0.56135 0.0
C207 C 0.69605 0.68028 0.47844 0.0
C208 C 0.76487 0.67118 0.43458 0.0
H209 H 0.76876 0.68823 0.7707 0.0
H210 H 0.63261 0.69586 0.68715 0.0
H211 H 0.57839 0.69569 0.57428 0.0
O212 O 0.10741 0.67593 0.52567 0.0
O213 O 0.88428 0.64081 0.55288 0.0
O214 O 0.88025 0.61697 0.47899 0.0
O215 O 0.15008 0.67485 0.62329 0.0
O216 O 0.10737 0.64541 0.45838 0.0
O217 O 0.04585 0.61856 0.41913 0.0
O218 O 1.00063 0.58388 0.53827 0.0
O219 O 0.24369 0.61642 0.5114 0.0
O220 O 0.25532 0.64424 0.55217 0.0
O221 O 0.93244 0.58651 0.4454 0.0
O222 O 1.00516 0.61609 0.59985 0.0
O223 O 0.12356 0.63893 0.63235 0.0
C224 C 0.82573 0.62844 0.5155 0.0
C225 C 0.24262 0.69635 0.58754 0.0
C226 C 0.3016 0.723 0.57152 0.0
C227 C 0.39785 0.7234 0.61666 0.0
C228 C 0.34022 0.69705 0.63258 0.0
C229 C 0.41492 0.71071 0.64797 0.0
C230 C 0.22353 0.70945 0.55692 0.0
C231 C 0.0833 0.63293 0.41183 0.0
C232 C 0.14898 0.68375 0.58113 0.0
C233 C 0.68612 0.68948 0.652 0.0
C234 C 0.6556 0.68932 0.58823 0.0
C235 C 0.30446 0.63025 0.53045 0.0
C236 C 0.92311 0.55964 0.46428 0.0
C237 C 0.94755 0.53138 0.47582 0.0
C238 C 0.86962 0.52635 0.42162 0.0
C239 C 0.84585 0.55401 0.40997 0.0
C240 C 0.97407 0.54817 0.4977 0.0
C241 C 0.81938 0.53758 0.38905 0.0
C242 C 0.05799 0.6273 0.64507 0.0
C243 C 0.93418 0.57753 0.4873 0.0
H244 H 0.45673 0.73392 0.62972 0.0
H245 H 0.3555 0.68743 0.65822 0.0
H246 H 0.48419 0.71181 0.68583 0.0
H247 H 0.14538 0.70951 0.52442 0.0
H248 H 0.84716 0.51363 0.40462 0.0
H249 H 0.80281 0.56242 0.38422 0.0
H250 H 0.03228 0.55217 0.54028 0.0
H251 H 0.75842 0.53353 0.34763 0.0
Eu252 Eu 0.97799 0.40237 0.55253 0.0
C253 C 0.19991 0.33396 0.43571 0.0
N254 N 0.1006 0.34179 0.41905 0.0
C255 C 0.13432 0.33382 0.31028 0.0
C256 C 0.27271 0.32634 0.38965 0.0
C257 C 0.06403 0.34109 0.35731 0.0
C258 C 0.24028 0.32669 0.32659 0.0
C259 C 0.32185 0.32338 0.5153 0.0
C260 C 0.22467 0.33253 0.49843 0.0
C261 C 0.39724 0.3165 0.46982 0.0
C262 C 0.37252 0.31797 0.40728 0.0
Eu263 Eu 0.99155 0.35337 0.50345 0.0
N264 N 0.14979 0.33911 0.54191 0.0
C265 C 0.33752 0.32078 0.57681 0.0
C266 C 0.15847 0.33535 0.60015 0.0
C267 C 0.25403 0.3265 0.619 0.0
H268 H 0.97811 0.34534 0.34412 0.0
H269 H 0.26237 0.32394 0.66576 0.0
H270 H 0.98213 0.41178 0.71238 0.0
H271 H 0.68823 0.424 0.37498 0.0
H272 H 0.09159 0.33912 0.63231 0.0
H273 H 0.41105 0.31379 0.5914 0.0
H274 H 0.86081 0.40983 0.41414 0.0
H275 H 0.10558 0.33325 0.26135 0.0
H276 H 0.47254 0.30952 0.4822 0.0
H277 H 0.42842 0.3121 0.37213 0.0
H278 H 0.84994 0.42469 0.79113 0.0
H279 H 0.29363 0.32085 0.28985 0.0
H280 H 0.54411 0.4366 0.44826 0.0
N281 N 0.86247 0.41433 0.63394 0.0
C282 C 0.76246 0.42152 0.61411 0.0
C283 C 0.82348 0.42367 0.74156 0.0
C284 C 0.68614 0.42943 0.65794 0.0
C285 C 0.89724 0.41615 0.69673 0.0
C286 C 0.71652 0.4301 0.72206 0.0
N287 N 0.81359 0.41431 0.50812 0.0
C288 C 0.79825 0.41529 0.44627 0.0
C289 C 0.63814 0.42978 0.52949 0.0
C290 C 0.73849 0.42176 0.55012 0.0
C291 C 0.61991 0.43046 0.46573 0.0
C292 C 0.70102 0.42336 0.42414 0.0
H293 H 0.66004 0.43606 0.75704 0.0
H294 H 0.52397 0.44288 0.66991 0.0
H295 H 0.48203 0.44317 0.55784 0.0
O296 O 1.01964 0.42464 0.52057 0.0
O297 O 0.79772 0.39007 0.51449 0.0
O298 O 0.80664 0.36324 0.52229 0.0
O299 O 0.08274 0.42197 0.6157 0.0
O300 O 0.03611 0.38979 0.45881 0.0
O301 O 0.92095 0.36701 0.42722 0.0
O302 O 0.89128 0.33638 0.54589 0.0
O303 O 0.16893 0.36601 0.50106 0.0
O304 O 0.16807 0.39238 0.56045 0.0
O305 O 0.94542 0.32918 0.4516 0.0
O306 O 0.06085 0.36495 0.60373 0.0
O307 O 0.95261 0.38782 0.62663 0.0
C308 C 0.74584 0.37649 0.52033 0.0
C309 C 0.12676 0.44787 0.58786 0.0
C310 C 0.12214 0.47626 0.57709 0.0
C311 C 0.2153 0.47985 0.62501 0.0
C312 C 0.22006 0.45188 0.63544 0.0
C313 C 0.26437 0.46773 0.65348 0.0
C314 C 0.07909 0.46009 0.55769 0.0
C315 C 0.97006 0.38009 0.41442 0.0
C316 C 0.07283 0.43139 0.57504 0.0
C317 C 0.58394 0.43689 0.63688 0.0
C318 C 0.56017 0.43708 0.57299 0.0
C319 C 0.22374 0.37952 0.53136 0.0
C320 C 0.80004 0.31235 0.47762 0.0
C321 C 0.72436 0.28476 0.4775 0.0
C322 C 0.65859 0.28538 0.41963 0.0
C323 C 0.72116 0.31308 0.4254 0.0
C324 C 0.80291 0.29819 0.50273 0.0
C325 C 0.65489 0.29941 0.39524 0.0
C326 C 1.02497 0.37725 0.64419 0.0
C327 C 0.89637 0.32461 0.49693 0.0
H328 H 0.25006 0.49212 0.64044 0.0
H329 H 0.25791 0.44278 0.65941 0.0
H330 H 0.3361 0.47067 0.6904 0.0
H331 H 1.00621 0.45722 0.52126 0.0
H332 H 0.61268 0.27511 0.38996 0.0
H333 H 0.71893 0.32368 0.40458 0.0
H334 H 0.87101 0.29746 0.54009 0.0
H335 H 0.60365 0.29944 0.35101 0.0
Eu336 Eu 0.56713 0.85317 0.00024 0.0
C337 C 0.76536 0.92527 0.1375 0.0
N338 N 0.6639 0.91759 0.14556 0.0
C339 C 0.67129 0.93196 0.25268 0.0
C340 C 0.82489 0.93649 0.18765 0.0
C341 C 0.61551 0.92087 0.20179 0.0
C342 C 0.77692 0.93969 0.24578 0.0
C343 C 0.91782 0.92929 0.0701 0.0
C344 C 0.81154 0.92168 0.0793 0.0
C345 C 0.97572 0.9407 0.11961 0.0
C346 C 0.9299 0.9442 0.17831 0.0
Eu347 Eu 0.57008 0.90077 0.05467 0.0
N348 N 0.75655 0.91006 0.03294 0.0
C349 C 0.96501 0.92482 0.012 0.0
C350 C 0.80539 0.90517 0.97736 0.0
C351 C 0.90929 0.91256 0.96573 0.0
H352 H 0.5323 0.91521 0.20703 0.0
H353 H 0.94716 0.90862 0.92142 0.0
H354 H 0.61316 0.843 0.84513 0.0
H355 H 0.18962 0.83923 0.1207 0.0
H356 H 0.76704 0.89513 0.94291 0.0
H357 H 0.04646 0.93038 0.00317 0.0
H358 H 0.36338 0.8553 0.10559 0.0
H359 H 0.63205 0.93469 0.29699 0.0
H360 H 0.05753 0.94662 0.11337 0.0
H361 H 0.9767 0.95284 0.21631 0.0
H362 H 0.51848 0.82553 0.7488 0.0
H363 H 0.82004 0.94824 0.28539 0.0
H364 H 0.10288 0.81792 0.03278 0.0
N365 N 0.48167 0.83796 0.90314 0.0
C366 C 0.38318 0.82907 0.90689 0.0
C367 C 0.47939 0.82645 0.79288 0.0
C368 C 0.32889 0.81848 0.85326 0.0
C369 C 0.53161 0.83657 0.84745 0.0
C370 C 0.37762 0.81737 0.79577 0.0
N371 N 0.38253 0.84209 0.01399 0.0
C372 C 0.33092 0.84529 0.06919 0.0
C373 C 0.23189 0.82185 0.96943 0.0
C374 C 0.33455 0.83081 0.96432 0.0
C375 C 0.18183 0.82455 0.02705 0.0
C376 C 0.2305 0.83653 0.07684 0.0
H377 H 0.33781 0.80946 0.75345 0.0
H378 H 0.18523 0.80111 0.81785 0.0
H379 H 0.10088 0.80399 0.91953 0.0
O380 O 0.63548 0.83521 0.05714 0.0
O381 O 0.38261 0.86501 0.99006 0.0
O382 O 0.39575 0.8881 0.06566 0.0
O383 O 0.64984 0.83135 0.95641 0.0
O384 O 0.60635 0.86262 0.1064 0.0
O385 O 0.52209 0.88793 0.13098 0.0
O386 O 0.52087 0.91933 -0.0005 0.0
O387 O 0.74997 0.88854 0.07393 0.0
O388 O 0.74045 0.86644 0.99419 0.0
O389 O 0.46187 0.92106 0.09183 0.0
O390 O 0.51229 0.89014 0.95162 0.0
O391 O 0.62254 0.86733 0.92844 0.0
C392 C 0.33004 0.87749 0.02343 0.0
C393 C 0.72662 0.80974 0.00379 0.0
C394 C 0.76388 0.78412 0.03831 0.0
C395 C 0.81961 0.77845 0.98314 0.0
C396 C 0.78482 0.8036 0.94973 0.0
C397 C 0.83071 0.78814 0.93966 0.0
C398 C 0.71798 0.8 0.04915 0.0
C399 C 0.56442 0.87463 0.1468 0.0
C400 C 0.66632 0.82548 0.00677 0.0
C401 C 0.22771 0.80936 0.85851 0.0
C402 C 0.17988 0.81096 0.91648 0.0
C403 C 0.80349 0.87616 0.04058 0.0
C404 C 0.48868 0.94588 0.05959 0.0
C405 C 0.48488 0.97221 0.02871 0.0
C406 C 0.51827 0.97967 0.09168 0.0
C407 C 0.52065 0.95384 0.12214 0.0
C408 C 0.46854 0.95521 0.01289 0.0
C409 C 0.53499 0.97057 0.1379 0.0
C410 C 0.56355 0.87933 0.91093 0.0
C411 C 0.46649 0.92813 0.04444 0.0
H412 H 0.85473 0.76635 0.97352 0.0
H413 H 0.79318 0.81067 0.91408 0.0
H414 H 0.87377 0.78355 0.89739 0.0
H415 H 0.67334 0.80448 0.09102 0.0
H416 H 0.53035 0.99269 0.10531 0.0
H417 H 0.53232 0.94724 0.15957 0.0
H418 H 0.43859 0.94933 0.9651 0.0
H419 H 0.55848 0.97653 0.18632 0.0
Eu420 Eu 0.49143 0.153 0.03314 0.0
C421 C 0.2572 0.08679 0.05744 0.0
N422 N 0.36459 0.09302 0.08499 0.0
C423 C 0.33419 0.08269 0.17712 0.0
C424 C 0.17994 0.0795 0.0913 0.0
C425 C 0.40677 0.09016 0.14238 0.0
C426 C 0.21882 0.07784 0.15235 0.0
C427 C 0.11964 0.07938 0.96343 0.0
C428 C 0.22796 0.08643 0.99359 0.0
C429 C 0.03878 0.07332 -0.00146 0.0
C430 C 0.06907 0.07331 0.06219 0.0
Eu431 Eu 0.48079 0.10411 0.019 0.0
N432 N 0.30732 0.09244 0.96039 0.0
C433 C 0.09737 0.0782 0.89843 0.0
C434 C 0.29021 0.0903 0.89659 0.0
C435 C 0.18392 0.08342 0.8647 0.0
H436 H 0.49614 0.09381 0.16205 0.0
H437 H 0.16907 0.08207 0.81421 0.0
H438 H 0.47355 0.15723 0.88223 0.0
H439 H 0.82885 0.17624 0.22644 0.0
H440 H 0.35916 0.09386 0.87069 0.0
H441 H 1.01513 0.07284 0.87357 0.0
H442 H 0.65179 0.16049 0.17446 0.0
H443 H 0.36697 0.08085 0.2232 0.0
H444 H 0.9543 0.06807 0.97632 0.0
H445 H 1.00787 0.06796 0.08797 0.0
H446 H 0.60097 0.16738 0.81215 0.0
H447 H 0.16237 0.07219 0.17965 0.0
H448 H 0.95617 0.18916 0.16351 0.0
N449 N 0.60123 0.16284 0.96145 0.0
C450 C 0.70398 0.17106 0.9862 0.0
C451 C 0.63058 0.16835 0.86066 0.0
C452 C 0.77624 0.17765 0.94786 0.0
C453 C 0.56076 0.16217 0.90028 0.0
C454 C 0.73927 0.1759 0.88411 0.0
N455 N 0.6682 0.16606 0.08578 0.0
C456 C 0.7008 0.16705 0.14803 0.0
C457 C 0.84351 0.18138 0.07691 0.0
C458 C 0.7371 0.17302 0.0502 0.0
C459 C 0.87529 0.18281 0.14126 0.0
C460 C 0.80347 0.17561 0.17699 0.0
H461 H 0.79253 0.18066 0.85288 0.0
H462 H 0.93894 0.19096 0.94524 0.0
H463 H 0.99811 0.19415 0.05826 0.0
O464 O 0.45192 0.17701 0.08687 0.0
O465 O 0.67585 0.14129 0.03738 0.0
O466 O 0.67172 0.11348 0.0319 0.0
O467 O 0.36717 0.16864 0.99295 0.0
O468 O 0.46507 0.1466 0.12608 0.0
O469 O 0.49144 0.11895 0.12022 0.0
O470 O 0.5061 0.07984 0.95989 0.0
O471 O 0.30632 0.11714 -0.00137 0.0
O472 O 0.31841 0.14284 0.05825 0.0
O473 O 0.58737 0.08634 0.05664 0.0
O474 O 0.54559 0.11283 0.93456 0.0
O475 O 0.43585 0.13573 0.94008 0.0
C476 C 0.72914 0.1273 0.03645 0.0
C477 C 0.39166 0.19699 0.02944 0.0
C478 C 0.34203 0.22547 0.0532 0.0
C479 C 0.401 0.22788 0.00176 0.0
C480 C 0.44984 0.19971 0.97825 0.0
C481 C 0.45473 0.21506 0.96463 0.0
C482 C 0.33788 0.21001 0.06738 0.0
C483 C 0.4741 0.13382 0.15161 0.0
C484 C 0.38076 0.18058 0.0417 0.0
C485 C 0.88233 0.18591 0.97422 0.0
C486 C 0.91576 0.1878 0.0386 0.0
C487 C 0.25566 0.12961 0.03287 0.0
C488 C 0.61998 0.05908 0.00164 0.0
C489 C 0.59431 0.02969 0.9864 0.0
C490 C 0.70555 0.02917 0.02026 0.0
C491 C 0.73075 0.0581 0.03482 0.0
C492 C 0.55393 0.04474 0.97478 0.0
C493 C 0.77393 0.0432 0.04316 0.0
C494 C 0.50511 0.12493 0.90951 0.0
C495 C 0.56586 0.07508 0.00637 0.0
H496 H 0.40369 0.23971 0.98983 0.0
H497 H 0.48982 0.19003 0.94788 0.0
H498 H 0.49884 0.21696 0.92462 0.0
H499 H 0.29102 0.20807 0.10655 0.0
H500 H 0.7389 0.01782 0.02996 0.0
H501 H 0.78222 0.06897 0.05624 0.0
H502 H 0.46816 0.04542 0.94916 0.0
H503 H 0.85882 0.04259 0.06955 0.0
Eu504 Eu 0.57132 0.15509 0.55615 0.0
C505 C 0.79475 0.08858 0.44193 0.0
N506 N 0.69551 0.09627 0.42418 0.0
C507 C 0.74054 0.0898 0.31663 0.0
C508 C 0.87295 0.0817 0.39735 0.0
C509 C 0.66563 0.09647 0.36227 0.0
C510 C 0.84515 0.08251 0.33426 0.0
C511 C 0.92101 0.07971 0.52435 0.0
C512 C 0.81853 0.08749 0.50508 0.0
C513 C 0.99957 0.07309 0.47998 0.0
C514 C 0.97553 0.07406 0.41678 0.0
Eu515 Eu 0.57188 0.10513 0.50543 0.0
N516 N 0.74303 0.0944 0.54786 0.0
C517 C 0.94147 0.07878 0.58778 0.0
C518 C 0.76046 0.0932 0.60928 0.0
C519 C 0.86057 0.08547 0.63031 0.0
H520 H 0.58215 0.10114 0.34695 0.0
H521 H 0.87552 0.08472 0.67929 0.0
H522 H 0.55342 0.16186 0.71223 0.0
H523 H 0.28607 0.1769 0.37699 0.0
H524 H 0.69717 0.09817 0.64194 0.0
H525 H 1.01934 0.07289 0.60438 0.0
H526 H 0.46851 0.16579 0.42115 0.0
H527 H 0.71638 0.09001 0.26769 0.0
H528 H 0.07911 0.06712 0.49402 0.0
H529 H 0.03669 0.06876 0.38314 0.0
H530 H 0.40038 0.17029 0.78726 0.0
H531 H 0.90264 0.07727 0.2986 0.0
H532 H 0.11777 0.18358 0.44252 0.0
N533 N 0.43971 0.16416 0.63277 0.0
C534 C 0.33578 0.17004 0.61121 0.0
C535 C 0.38101 0.16994 0.73764 0.0
C536 C 0.24583 0.17449 0.65139 0.0
C537 C 0.46626 0.16496 0.69534 0.0
C538 C 0.26916 0.17431 0.71527 0.0
N539 N 0.40375 0.16598 0.50928 0.0
C540 C 0.3955 0.16855 0.44944 0.0
C541 C 0.21066 0.17701 0.52457 0.0
C542 C 0.3181 0.17126 0.54818 0.0
C543 C 0.19884 0.17902 0.46219 0.0
C544 C 0.29305 0.17512 0.42488 0.0
H545 H 0.20249 0.17788 0.74787 0.0
H546 H 0.06357 0.18105 0.65643 0.0
H547 H 0.03192 0.18333 0.54413 0.0
O548 O 0.62446 0.17609 0.51904 0.0
O549 O 0.39049 0.14141 0.53804 0.0
O550 O 0.38231 0.11345 0.5075 0.0
O551 O 0.63883 0.1775 0.6193 0.0
O552 O 0.60247 0.14246 0.45698 0.0
O553 O 0.49966 0.11854 0.43128 0.0
O554 O 0.52366 0.08296 0.53804 0.0
O555 O 0.75168 0.11849 0.51882 0.0
O556 O 0.76238 0.14653 0.55052 0.0
O557 O 0.49582 0.08425 0.43858 0.0
O558 O 0.53098 0.11621 0.60566 0.0
O559 O 0.63063 0.14115 0.63318 0.0
C560 C 0.33102 0.12748 0.52243 0.0
C561 C 0.74334 0.19791 0.58213 0.0
C562 C 0.80981 0.22439 0.5658 0.0
C563 C 0.92221 0.22179 0.59414 0.0
C564 C 0.85253 0.19644 0.61555 0.0
C565 C 0.94079 0.20846 0.62204 0.0
C566 C 0.7207 0.2122 0.55935 0.0
C567 C 0.53196 0.13216 0.4169 0.0
C568 C 0.64893 0.18532 0.57428 0.0
C569 C 0.13522 0.17875 0.6265 0.0
C570 C 0.11764 0.18008 0.56327 0.0
C571 C 0.81188 0.13232 0.53391 0.0
C572 C 0.43953 0.05887 0.46339 0.0
C573 C 0.44595 0.03051 0.47246 0.0
C574 C 0.37269 0.02635 0.41596 0.0
C575 C 0.36502 0.05439 0.40741 0.0
C576 C 0.47659 0.04694 0.49721 0.0
C577 C 0.33113 0.03825 0.38425 0.0
C578 C 0.5775 0.12862 0.64817 0.0
C579 C 0.48975 0.07548 0.48072 0.0
H580 H 0.99332 0.23067 0.59859 0.0
H581 H 0.86889 0.186 0.63642 0.0
H582 H 1.02458 0.20759 0.64877 0.0
H583 H 0.63332 0.21391 0.53728 0.0
H584 H 0.34779 0.01382 0.39636 0.0
H585 H 0.33512 0.06333 0.3806 0.0
H586 H 0.53454 0.05023 0.54033 0.0
H587 H 0.27467 0.03491 0.34075 0.0
Eu588 Eu 0.47827 0.90143 0.54693 0.0
C589 C 0.69941 0.8343 0.43892 0.0
N590 N 0.59802 0.84101 0.41855 0.0
C591 C 0.64218 0.83232 0.31164 0.0
C592 C 0.78018 0.82738 0.39618 0.0
C593 C 0.56519 0.83923 0.3559 0.0
C594 C 0.75166 0.82676 0.33198 0.0
C595 C 0.82319 0.82649 0.52437 0.0
C596 C 0.7212 0.83394 0.50265 0.0
C597 C 0.90653 0.82032 0.48218 0.0
C598 C 0.88547 0.821 0.41848 0.0
Eu599 Eu 0.47658 0.8523 0.4977 0.0
N600 N 0.64294 0.84101 0.5434 0.0
C601 C 0.83812 0.82545 0.58783 0.0
C602 C 0.65349 0.83934 0.60448 0.0
C603 C 0.75177 0.83165 0.62778 0.0
H604 H 0.47726 0.84228 0.34022 0.0
H605 H 0.76109 0.83058 0.67654 0.0
H606 H 0.4671 0.90735 0.70436 0.0
H607 H 0.18155 0.92148 0.36826 0.0
H608 H 0.58605 0.84379 0.63528 0.0
H609 H 0.91508 0.81971 0.6062 0.0
H610 H 0.35532 0.90762 0.4073 0.0
H611 H 0.61637 0.83093 0.26193 0.0
H612 H 0.98704 0.81495 0.49841 0.0
H613 H 0.94991 0.81646 0.38614 0.0
H614 H 0.32949 0.91846 0.78246 0.0
H615 H 0.81112 0.82135 0.29759 0.0
H616 H 0.03618 0.93375 0.44139 0.0
N617 N 0.35302 0.91106 0.62618 0.0
C618 C 0.25411 0.91854 0.60679 0.0
C619 C 0.30606 0.91829 0.73314 0.0
C620 C 0.17494 0.9257 0.65037 0.0
C621 C 0.3825 0.91151 0.68847 0.0
C622 C 0.20115 0.92527 0.71396 0.0
N623 N 0.30819 0.91185 0.50116 0.0
C624 C 0.29247 0.91286 0.43949 0.0
C625 C 0.13065 0.92695 0.52248 0.0
C626 C 0.23176 0.91907 0.54299 0.0
C627 C 0.1126 0.92773 0.45887 0.0
C628 C 0.1944 0.9208 0.41738 0.0
H629 H 0.14256 0.93066 0.74883 0.0
H630 H 1.01142 0.93881 0.66235 0.0
H631 H 0.97296 0.93997 0.55084 0.0
O632 O 0.51905 0.9241 0.51648 0.0
O633 O 0.29999 0.88766 0.54563 0.0
O634 O 0.29179 0.86209 0.48086 0.0
O635 O 0.56428 0.9217 0.61383 0.0
O636 O 0.52559 0.8897 0.44995 0.0
O637 O 0.41881 0.86588 0.41963 0.0
O638 O 0.3954 0.83395 0.54118 0.0
O639 O 0.66078 0.86469 0.51197 0.0
O640 O 0.66811 0.89279 0.53636 0.0
O641 O 0.42176 0.82868 0.44199 0.0
O642 O 0.45265 0.8642 0.59915 0.0
O643 O 0.55583 0.88841 0.62017 0.0
C644 C 0.24015 0.87473 0.51278 0.0
C645 C 0.61258 0.94765 0.59014 0.0
C646 C 0.60679 0.97598 0.58025 0.0
C647 C 0.68055 0.98019 0.63656 0.0
C648 C 0.68774 0.9522 0.64585 0.0
C649 C 0.72211 0.96834 0.66852 0.0
C650 C 0.57564 0.95954 0.556 0.0
C651 C 0.46925 0.87873 0.40591 0.0
C652 C 0.56232 0.93101 0.57304 0.0
C653 C 0.07324 0.93327 0.6295 0.0
C654 C 0.05138 0.93393 0.56591 0.0
C655 C 0.71975 0.87863 0.52355 0.0
C656 C 0.29752 0.81014 0.47582 0.0
C657 C 0.23757 0.78297 0.48477 0.0
C658 C 0.14543 0.78294 0.43757 0.0
C659 C 0.20529 0.80983 0.42815 0.0
C660 C 0.31388 0.7966 0.50391 0.0
C661 C 0.13118 0.79613 0.40861 0.0
C662 C 0.51334 0.87593 0.63872 0.0
C663 C 0.38924 0.82305 0.48912 0.0
H664 H 0.70582 0.99273 0.65582 0.0
H665 H 0.71782 0.94331 0.67286 0.0
H666 H 0.77898 0.97173 0.71186 0.0
H667 H 0.51749 0.95622 0.51296 0.0
H668 H 0.08742 0.77241 0.42143 0.0
H669 H 0.19353 0.81988 0.40447 0.0
H670 H 0.38844 0.79637 0.53853 0.0
H671 H 0.06442 0.79541 0.36956 0.0
C672 C 0.50484 0.36887 0.97949 0.0
C673 C 0.44397 0.37449 0.03374 0.0
C674 C 0.63891 0.3842 0.09268 0.0
C675 C 0.69647 0.37936 0.03676 0.0
N676 N 0.67011 0.37454 0.92474 0.0
N677 N 0.4542 0.38745 0.14302 0.0
C678 C 0.62586 0.3735 0.97965 0.0
C679 C 0.51179 0.38235 0.0905 0.0
N680 N 0.44802 0.35939 0.92686 0.0
N681 N 0.70582 0.39038 0.14775 0.0
H682 H 0.36512 0.3847 0.14361 0.0
H683 H 0.49219 0.39427 0.18533 0.0
H684 H 0.79795 0.39147 0.1509 0.0
H685 H 0.67234 0.3942 0.19103 0.0
H686 H 0.49293 0.35379 0.88876 0.0
H687 H 0.35886 0.356 0.92287 0.0
H688 H 0.62122 0.37146 0.88108 0.0
H689 H 0.74624 0.38155 0.92544 0.0
C690 C 0.41642 0.616 0.03609 0.0
C691 C 0.34791 0.62979 0.02793 0.0
C692 C 0.53727 0.64223 0.01036 0.0
C693 C 0.60623 0.62977 0.02922 0.0
N694 N 0.59985 0.6086 0.08749 0.0
N695 N 0.37356 0.65863 0.04323 0.0
C696 C 0.54263 0.61768 0.05003 0.0
C697 C 0.41624 0.64368 0.02395 0.0
N698 N 0.36588 0.60102 0.02742 0.0
N699 N 0.58478 0.6526 0.9789 0.0
H700 H 0.30393 0.65991 0.0717 0.0
H701 H 0.42292 0.66911 0.04374 0.0
H702 H 0.66662 0.65035 0.96105 0.0
H703 H 0.53501 0.66166 0.96332 0.0
H704 H 0.41817 0.59097 0.02969 0.0
H705 H 0.27933 0.59838 0.00782 0.0
H706 H 0.55453 0.60048 0.10764 0.0
H707 H 0.68811 0.6111 0.10503 0.0
C708 C 0.63733 0.62024 0.55923 0.0
C709 C 0.69102 0.62762 0.51543 0.0
C710 C 0.49209 0.63673 0.48096 0.0
C711 C 0.43874 0.6299 0.52664 0.0
N712 N 0.46829 0.61817 0.61792 0.0
N713 N 0.66011 0.63711 0.41921 0.0
C714 C 0.51369 0.62235 0.56767 0.0
C715 C 0.61584 0.63441 0.47232 0.0
N716 N 0.70248 0.6101 0.58957 0.0
N717 N 0.42551 0.64584 0.44654 0.0
H718 H 0.74632 0.63401 0.40874 0.0
H719 H 0.60845 0.64058 0.38249 0.0
H720 H 0.33482 0.64739 0.44957 0.0
H721 H 0.46216 0.65295 0.41897 0.0
H722 H 0.66609 0.60281 0.6165 0.0
H723 H 0.79085 0.60767 0.58221 0.0
H724 H 0.51966 0.61463 0.6546 0.0
H725 H 0.37956 0.61975 0.62534 0.0
C726 C 0.54926 0.36724 0.55886 0.0
C727 C 0.60978 0.37612 0.52092 0.0
C728 C 0.41636 0.38829 0.4941 0.0
C729 C 0.35789 0.37974 0.53257 0.0
N730 N 0.37354 0.36372 0.6116 0.0
N731 N 0.5834 0.38957 0.43345 0.0
C732 C 0.42568 0.36981 0.56699 0.0
C733 C 0.53852 0.38529 0.48389 0.0
N734 N 0.60604 0.35564 0.58504 0.0
N735 N 0.35576 0.39956 0.46775 0.0
H736 H 0.66667 0.38602 0.41961 0.0
H737 H 0.53279 0.39464 0.40045 0.0
H738 H 0.2667 0.40196 0.4736 0.0
H739 H 0.39663 0.40761 0.44551 0.0
H740 H 0.56158 0.34695 0.60249 0.0
H741 H 0.69549 0.35336 0.58485 0.0
H742 H 0.41962 0.35819 0.64467 0.0
H743 H 0.28538 0.36577 0.62026 0.0
C744 C 0.99708 0.8628 0.00468 0.0
C745 C 0.9407 0.87566 0.04339 0.0
C746 C 0.13533 0.89039 0.06354 0.0
C747 C 0.19212 0.87763 0.02363 0.0
N748 N 0.14835 0.85506 0.93525 0.0
N749 N 0.98086 0.89762 0.13321 0.0
C750 C 0.11528 0.86475 0.9885 0.0
C751 C 1.01666 0.88832 0.07962 0.0
N752 N 0.94225 0.84794 0.98768 0.0
N753 N 0.18904 0.90529 0.08099 0.0
H754 H 0.90345 0.89511 0.15192 0.0
H755 H 0.03643 0.90607 0.16413 0.0
H756 H 0.26056 0.90841 0.05879 0.0
H757 H 0.15044 0.91525 0.1078 0.0
H758 H 0.98202 0.83774 0.96311 0.0
H759 H 0.86616 0.8452 0.00727 0.0
H760 H 0.09022 0.84695 0.90433 0.0
H761 H 0.22698 0.85654 0.91688 0.0
C762 C 0.04441 0.12229 0.98093 0.0
C763 C 0.11972 0.12954 0.03543 0.0
C764 C 0.93676 0.13479 0.09243 0.0
C765 C 0.86426 0.12706 0.03789 0.0
N766 N 0.85886 0.10861 0.93715 0.0
N767 N 0.12939 0.14532 0.1422 0.0
C768 C 0.92117 0.11927 0.98457 0.0
C769 C 0.06347 0.13655 0.09095 0.0
N770 N 0.08722 0.12001 0.92344 0.0
N771 N 0.88566 0.13896 0.14778 0.0
H772 H 0.2214 0.14585 0.14726 0.0
H773 H 0.09259 0.15292 0.17913 0.0
H774 H 0.79585 0.13681 0.15107 0.0
H775 H 0.93273 0.14296 0.1914 0.0
H776 H 0.0349 0.11614 0.8812 0.0
H777 H 0.16984 0.1246 0.91798 0.0
H778 H 0.89912 0.10131 0.90065 0.0
H779 H 0.76902 0.10597 0.93684 0.0
C780 C 0.12743 0.13592 0.48009 0.0
C781 C 0.19667 0.12779 0.52154 0.0
C782 C 1.01558 0.12328 0.57123 0.0
C783 C 0.94546 0.13141 0.53058 0.0
N784 N 0.93393 0.14507 0.4441 0.0
N785 N 0.19302 0.10851 0.58953 0.0
C786 C 1.00157 0.13758 0.48418 0.0
C787 C 0.1368 0.11989 0.56185 0.0
N788 N 0.181 0.1409 0.43349 0.0
N789 N 0.96835 0.11959 0.62189 0.0
H790 H 0.2815 0.10554 0.58549 0.0
H791 H 0.14854 0.10101 0.61271 0.0
H792 H 0.88023 0.12172 0.62984 0.0
H793 H 1.0189 0.11578 0.65829 0.0
H794 H 0.13691 0.14531 0.39688 0.0
H795 H 0.27167 0.1399 0.42953 0.0
H796 H 0.96674 0.15126 0.41249 0.0
H797 H 0.84217 0.14534 0.44348 0.0
C798 C 0.92418 0.86946 0.56074 0.0
C799 C 0.85387 0.878 0.52123 0.0
C800 C 0.03558 0.88274 0.47096 0.0
C801 C 0.1056 0.87469 0.51198 0.0
N802 N 0.10756 0.8557 0.58022 0.0
N803 N 0.84802 0.89458 0.44324 0.0
C804 C 0.04728 0.86676 0.55257 0.0
C805 C 0.91138 0.88518 0.47774 0.0
N806 N 0.87527 0.8648 0.60929 0.0
N807 N 0.08569 0.88664 0.42127 0.0
H808 H 0.75673 0.89581 0.44331 0.0
H809 H 0.88682 0.90203 0.41774 0.0
H810 H 0.17341 0.88396 0.41279 0.0
H811 H 0.03821 0.89084 0.38497 0.0
H812 H 0.92474 0.86061 0.64505 0.0
H813 H 0.7864 0.86649 0.61689 0.0
H814 H 0.06749 0.84817 0.60496 0.0
H815 H 0.19479 0.8527 0.57189 0.0
C816 C 0.97882 0.51599 0.04238 0.0
C817 C 0.02731 0.51746 0.98607 0.0
C818 C 0.98501 0.48852 0.94303 0.0
C819 C 0.95023 0.48682 0.00239 0.0
N820 N 0.94245 0.49825 0.11273 0.0
N821 N 0.08677 0.50502 0.88418 0.0
C822 C 0.95433 0.50039 0.05312 0.0
C823 C 0.03287 0.50367 0.93655 0.0
N824 N 0.95785 0.52948 0.0864 0.0
N825 N 0.96994 0.4758 0.89273 0.0
H826 H 0.116 0.51613 0.87657 0.0
H827 H 0.10738 0.49513 0.84997 0.0
H828 H 0.93545 0.46456 0.89587 0.0
H829 H 0.9832 0.47671 0.84697 0.0
H830 H 0.91027 0.52911 0.12485 0.0
H831 H 0.97724 0.54121 0.08179 0.0
H832 H 0.95818 0.50747 0.15249 0.0
H833 H 0.92969 0.48691 0.12332 0.0
C834 C 0.14495 0.4972 0.51147 0.0
C835 C 0.07284 0.48985 0.54843 0.0
C836 C 0.92391 0.511 0.54404 0.0
C837 C 0.99749 0.51848 0.5081 0.0
N838 N 0.18439 0.5203 0.46512 0.0
N839 N 0.88851 0.4885 0.59483 0.0
C840 C 0.10999 0.51203 0.49411 0.0
C841 C 0.96062 0.49641 0.56328 0.0
N842 N 0.24401 0.48945 0.49009 0.0
N843 N 0.82107 0.51834 0.56183 0.0
H844 H 0.91452 0.47834 0.61237 0.0
H845 H 0.80055 0.49137 0.60125 0.0
H846 H 0.79368 0.52916 0.54957 0.0
H847 H 0.7664 0.51452 0.59203 0.0
H848 H 0.29461 0.49312 0.45779 0.0
H849 H 0.27028 0.47837 0.50033 0.0
H850 H 0.27272 0.5174 0.45978 0.0
H851 H 0.16078 0.53097 0.45057 0.0
C852 C 0.55347 0.9848 0.9426 0.0
C853 C 0.46498 0.98307 0.98278 0.0
C854 C 0.41898 0.01174 0.99622 0.0
C855 C 0.52325 0.01418 0.96691 0.0
N856 N 0.66038 1.00303 0.89231 0.0
N857 N 0.27838 0.99219 0.01815 0.0
C858 C 0.57894 1.00055 0.93215 0.0
C859 C 0.38413 0.99567 -0.00209 0.0
N860 N 0.61583 0.9716 0.9174 0.0
N861 N 0.36046 0.02458 0.02782 0.0
H862 H 0.25554 0.98036 0.0207 0.0
H863 H 0.21063 1.0005 0.02604 0.0
H864 H 0.38252 0.03657 0.02868 0.0
H865 H 0.29285 0.02334 0.05602 0.0
H866 H 0.68679 0.97196 0.89051 0.0
H867 H 0.59438 0.96 0.92282 0.0
H868 H 0.70463 0.99385 0.86453 0.0
H869 H 0.67786 0.01456 0.88439 0.0
C870 C 0.4058 0.00797 0.52752 0.0
C871 C 0.48944 0.01722 0.50394 0.0
C872 C 0.64674 0.99847 0.5248 0.0
C873 C 0.56318 0.98923 0.54853 0.0
N874 N 0.35994 0.98367 0.56447 0.0
N875 N 0.69265 0.02279 0.48802 0.0
C876 C 0.44165 0.99351 0.54737 0.0
C877 C 0.61094 0.01293 0.50504 0.0
N878 N 0.29363 0.01368 0.53481 0.0
N879 N 0.75877 0.99273 0.51729 0.0
H880 H 0.67008 0.0327 0.46811 0.0
H881 H 0.7839 0.0218 0.49709 0.0
H882 H 0.78658 0.98184 0.52874 0.0
H883 H 0.82117 0.99785 0.49451 0.0
H884 H 0.23107 0.00854 0.55744 0.0
H885 H 0.26572 0.02455 0.52326 0.0
H886 H 0.2687 0.98464 0.5553 0.0
H887 H 0.3825 0.9738 0.5846 0.0
C888 C 0.33452 0.26807 0.12219 0.0
C889 C 0.2457 0.27128 0.07669 0.0
C890 C 0.1719 0.24339 0.05897 0.0
C891 C 0.28088 0.23948 0.08805 0.0
N892 N 0.4435 0.24738 0.16583 0.0
N893 N 0.0628 0.26331 0.01198 0.0
C894 C 0.35302 0.25174 0.12753 0.0
C895 C 0.15618 0.25946 0.04991 0.0
N896 N 0.40404 0.28054 0.15677 0.0
N897 N 0.08887 0.23139 0.03671 0.0
H898 H 0.04864 0.27509 0.0057 0.0
H899 H 1.00049 0.2549 0.98615 0.0
H900 H 0.10344 0.21959 0.04298 0.0
H901 H 1.00418 0.23327 0.0171 0.0
H902 H 0.47213 0.27925 0.19052 0.0
H903 H 0.38892 0.29253 0.15307 0.0
H904 H 0.50402 0.25545 0.19495 0.0
H905 H 0.45478 0.23528 0.16903 0.0
C906 C 0.65263 0.76268 0.0758 0.0
C907 C 0.75653 0.77248 0.08139 0.0
C908 C 0.87735 0.75024 0.10729 0.0
C909 C 0.77943 0.73961 0.08453 0.0
N910 N 0.56917 0.73592 0.07535 0.0
N911 N 0.95897 0.77773 0.12286 0.0
C912 C 0.66468 0.74606 0.07953 0.0
C913 C 0.86554 0.76701 0.10619 0.0
N914 N 0.54495 0.76896 0.06197 0.0
N915 N 0.982 0.74391 0.12596 0.0
H916 H 0.94883 0.78998 0.12196 0.0
H917 H 0.04379 0.77476 0.13866 0.0
H918 H 0.98853 0.73161 0.12675 0.0
H919 H 0.05926 0.75067 0.14283 0.0
H920 H 0.46586 0.76226 0.05207 0.0
H921 H 0.53546 0.78118 0.06082 0.0
H922 H 0.48151 0.73962 0.07411 0.0
H923 H 0.58046 0.72379 0.0779 0.0
C924 C 0.22215 0.75104 0.58449 0.0
C925 C 0.27693 0.73788 0.54652 0.0
C926 C 0.31439 0.75474 0.47085 0.0
C927 C 0.2593 0.76788 0.50877 0.0
N928 N 0.17564 0.77965 0.60503 0.0
N929 N 0.36225 0.72615 0.4508 0.0
C930 C 0.21722 0.76634 0.5666 0.0
C931 C 0.31953 0.73944 0.48883 0.0
N932 N 0.17101 0.74863 0.63647 0.0
N933 N 0.36619 0.75719 0.4191 0.0
H934 H 0.36843 0.71487 0.4632 0.0
H935 H 0.38442 0.72586 0.40537 0.0
H936 H 0.36555 0.7683 0.4052 0.0
H937 H 0.41723 0.74871 0.39215 0.0
H938 H 0.11985 0.75711 0.66333 0.0
H939 H 0.17224 0.73756 0.65064 0.0
H940 H 0.15551 0.77997 0.65083 0.0
H941 H 0.16832 0.79092 0.59263 0.0
C942 C 0.77125 0.27012 0.5702 0.0
C943 C 0.72374 0.2697 0.50708 0.0
C944 C 0.72799 0.24013 0.48539 0.0
C945 C 0.78343 0.24018 0.54613 0.0
N946 N 0.85031 0.25568 0.64974 0.0
N947 N 0.56963 0.25339 0.43908 0.0
C948 C 0.80351 0.25534 0.58956 0.0
C949 C 0.67762 0.25449 0.47264 0.0
N950 N 0.76672 0.2842 0.61388 0.0
N951 N 0.72132 0.22643 0.43939 0.0
H952 H 0.51192 0.26311 0.44455 0.0
H953 H 0.53024 0.24229 0.41641 0.0
H954 H 0.76249 0.21571 0.44515 0.0
H955 H 0.68476 0.22647 0.39378 0.0
H956 H 0.79311 0.28547 0.66154 0.0
H957 H 0.72155 0.29424 0.60366 0.0
H958 H 0.88873 0.26599 0.67937 0.0
H959 H 0.85268 0.24556 0.67019 0.0
C960 C 0.1073 0.38745 0.26785 0.0
C961 C 0.04104 0.37642 0.21942 0.0
C962 C 0.91285 0.37056 0.29708 0.0
C963 C 0.9794 0.38132 0.34647 0.0
N964 N 0.11186 0.40492 0.37007 0.0
N965 N 0.94508 0.35057 0.20648 0.0
C966 C 0.06952 0.39114 0.32971 0.0
C967 C 0.95881 0.36613 0.23791 0.0
N968 N 0.21462 0.39291 0.25666 0.0
N969 N 0.80604 0.36433 0.30594 0.0
H970 H 1.00869 0.34544 0.17706 0.0
H971 H 0.89001 0.34223 0.22008 0.0
H972 H 0.76483 0.3681 0.34714 0.0
H973 H 0.75356 0.35697 0.26926 0.0
H974 H 0.27705 0.39878 0.29207 0.0
H975 H 0.24471 0.38989 0.21237 0.0
H976 H 0.17502 0.41261 0.35907 0.0
H977 H 0.07071 0.41019 0.40973 0.0
C978 C 1.00571 0.6471 0.25989 0.0
C979 C 0.0498 0.63443 0.21518 0.0
C980 C 0.15265 0.62377 0.30271 0.0
C981 C 0.09541 0.63536 0.34587 0.0
N982 N 0.05561 0.66402 0.36124 0.0
N983 N 0.18292 0.61198 0.19415 0.0
C984 C 0.04747 0.64893 0.32398 0.0
C985 C 0.12983 0.62321 0.23667 0.0
N986 N 0.9202 0.65708 0.24238 0.0
N987 N 0.23954 0.61481 0.32569 0.0
H988 H 0.17561 0.61207 0.14654 0.0
H989 H 0.22997 0.60222 0.20525 0.0
H990 H 0.26274 0.61612 0.37388 0.0
H991 H 0.29586 0.60732 0.29809 0.0
H992 H 0.88043 0.66569 0.27523 0.0
H993 H 0.88228 0.65579 0.19625 0.0
H994 H 0.02957 0.67433 0.34452 0.0
H995 H 0.10317 0.66648 0.40521 0.0
C996 C 0.90258 0.62652 0.79565 0.0
C997 C 0.99962 0.62363 0.83799 0.0
C998 C 0.13516 0.62405 0.75525 0.0
C999 C 0.03876 0.6268 0.71264 0.0
N1000 N 0.83393 0.63387 0.69692 0.0
N1001 N 0.206 0.61611 0.85176 0.0
C1002 C 0.92308 0.62876 0.73408 0.0
C1003 C 0.11466 0.62123 0.81577 0.0
N1004 N 0.7895 0.62629 0.81323 0.0
N1005 N 0.24861 0.6253 0.7399 0.0
H1006 H 0.20456 0.61576 0.89886 0.0
H1007 H 0.2827 0.61112 0.83335 0.0
H1008 H 0.26778 0.62823 0.69805 0.0
H1009 H 0.32377 0.62535 0.77112 0.0
H1010 H 0.71325 0.62714 0.78391 0.0
H1011 H 0.76975 0.62358 0.85569 0.0
H1012 H 0.75097 0.63743 0.71104 0.0
H1013 H 0.84638 0.63605 0.65294 0.0
C1014 C 0.9517 0.36988 0.74023 0.0
C1015 C 0.04215 0.37666 0.71227 0.0
C1016 C 0.16756 0.38049 0.81236 0.0
C1017 C 0.07032 0.37618 0.84304 0.0
N1018 N 0.86741 0.36696 0.83501 0.0
N1019 N 0.23051 0.3908 0.72438 0.0
C1020 C 0.96142 0.37108 0.8065 0.0
C1021 C 0.14873 0.38261 0.74903 0.0
N1022 N 0.85868 0.36166 0.70298 0.0
N1023 N 0.27882 0.38204 0.84276 0.0
H1024 H 0.21915 0.39269 0.67855 0.0
H1025 H 0.30386 0.39692 0.75114 0.0
H1026 H 0.29566 0.38033 0.88859 0.0
H1027 H 0.35479 0.38364 0.8208 0.0
H1028 H 0.796 0.35484 0.71907 0.0
H1029 H 0.85088 0.36038 0.65437 0.0
H1030 H 0.7818 0.36492 0.81291 0.0
H1031 H 0.87591 0.36597 0.88178 0.0
C1032 C 0.61712 0.88576 0.26174 0.0
C1033 C 0.56161 0.87346 0.2143 0.0
C1034 C 0.42974 0.86706 0.28876 0.0
C1035 C 0.48589 0.87907 0.3379 0.0
N1036 N 0.60105 0.90433 0.36003 0.0
N1037 N 0.46628 0.84733 0.19651 0.0
C1038 C 0.57201 0.88965 0.32181 0.0
C1039 C 0.48213 0.86262 0.23135 0.0
N1040 N 0.71819 0.893 0.25019 0.0
N1041 N 0.32257 0.86043 0.29495 0.0
H1042 H 0.51642 0.84305 0.15894 0.0
H1043 H 0.41513 0.83855 0.20993 0.0
H1044 H 0.27417 0.86468 0.33328 0.0
H1045 H 0.27609 0.85231 0.25818 0.0
H1046 H 0.77295 0.90061 0.28486 0.0
H1047 H 0.753 0.88985 0.20679 0.0
H1048 H 0.66068 0.91254 0.34947 0.0
H1049 H 0.55343 0.90952 0.39734 0.0
C1050 C 0.51704 0.1491 0.26457 0.0
C1051 C 0.46089 0.13619 0.22082 0.0
C1052 C 0.40661 0.12485 0.30962 0.0
C1053 C 0.49979 0.13458 0.35012 0.0
N1054 N 0.65308 0.15597 0.35478 0.0
N1055 N 0.29042 0.11892 0.20775 0.0
C1056 C 0.55819 0.14664 0.32459 0.0
C1057 C 0.38824 0.12582 0.24475 0.0
N1058 N 0.51441 0.16444 0.25379 0.0
N1059 N 0.33598 0.11451 0.33155 0.0
H1060 H 0.27429 0.11996 0.16097 0.0
H1061 H 0.22046 0.11349 0.22423 0.0
H1062 H 0.32105 0.11551 0.37837 0.0
H1063 H 0.28759 0.10495 0.30228 0.0
H1064 H 0.54617 0.17443 0.28796 0.0
H1065 H 0.46641 0.16738 0.21483 0.0
H1066 H 0.69935 0.16342 0.33197 0.0
H1067 H 0.69193 0.15611 0.39935 0.0
C1068 C 0.42741 0.12425 0.79563 0.0
C1069 C 0.52545 0.12529 0.84198 0.0
C1070 C 0.65923 0.12959 0.76252 0.0
C1071 C 0.56084 0.12868 0.71644 0.0
N1072 N 0.34905 0.12902 0.69403 0.0
N1073 N 0.73118 0.1326 0.8723 0.0
C1074 C 0.44436 0.12698 0.73445 0.0
C1075 C 0.64086 0.12864 0.82577 0.0
N1076 N 0.31735 0.12052 0.81011 0.0
N1077 N 0.77106 0.13153 0.74623 0.0
H1078 H 0.71905 0.13317 0.91927 0.0
H1079 H 0.81407 0.13705 0.866 0.0
H1080 H 0.787 0.13492 0.70465 0.0
H1081 H 0.84786 0.12953 0.77334 0.0
H1082 H 0.24258 0.1181 0.77812 0.0
H1083 H 0.3026 0.11857 0.8541 0.0
H1084 H 0.26134 0.12924 0.70483 0.0
H1085 H 0.35822 0.13228 0.65125 0.0
C1086 C 0.61612 0.886 0.74887 0.0
C1087 C 0.52438 0.87637 0.70869 0.0
C1088 C 0.4497 0.86974 0.80375 0.0
C1089 C 0.54125 0.87944 0.84199 0.0
N1090 N 0.65225 0.90406 0.84919 0.0
N1091 N 0.34344 0.86039 0.70191 0.0
C1092 C 0.60807 0.88969 0.81442 0.0
C1093 C 0.43864 0.86848 0.73727 0.0
N1094 N 0.71318 0.89152 0.72598 0.0
N1095 N 0.36377 0.8636 0.8324 0.0
H1096 H 0.30535 0.86391 0.66195 0.0
H1097 H 0.29685 0.85112 0.71475 0.0
H1098 H 0.36637 0.86615 0.88081 0.0
H1099 H 0.28782 0.85728 0.80989 0.0
H1100 H 0.78371 0.89761 0.75557 0.0
H1101 H 0.73146 0.88849 0.67934 0.0
H1102 H 0.6946 0.91257 0.82963 0.0
H1103 H 0.62763 0.90848 0.8943 0.0
loop_
_geom_bond_atom_site_label_1
_geom_bond_atom_site_label_2
_geom_bond_distance
_geom_bond_site_symmetry_2
_ccdc_geom_bond_type
Eu0 N29 2.600 1_455 S
Eu0 N35 2.562 1_456 S
Eu0 O44 2.462 1_556 S
Eu0 O45 2.373 1_455 S
Eu0 O47 2.432 . S
Eu0 O48 2.291 1_556 S
Eu0 O52 2.335 1_556 S
Eu0 O55 2.372 . S
Eu0 C64 2.787 . S
C1 N2 1.365 . S
C1 C4 1.405 . S
C1 C8 1.448 . S
N2 C1 1.365 . S
N2 C5 1.319 . S
N2 Eu11 2.600 . S
C3 C5 1.397 . S
C3 C6 1.367 . S
C3 H23 0.931 . S
C4 C1 1.405 . S
C4 C6 1.403 . S
C4 C10 1.439 . S
C5 N2 1.319 . S
C5 C3 1.397 . S
C5 H16 0.930 . S
C6 C3 1.367 . S
C6 C4 1.403 . S
C6 H27 0.929 . S
C7 C8 1.430 . S
C7 C9 1.387 . S
C7 C13 1.404 . S
C8 C1 1.448 . S
C8 C7 1.430 . S
C8 N12 1.351 . S
C9 C7 1.387 . S
C9 C10 1.374 . S
C9 H24 0.931 . S
C10 C4 1.439 . S
C10 C9 1.374 . S
C10 H25 0.931 . S
Eu11 N2 2.600 . S
Eu11 N12 2.562 . S
Eu11 O46 2.335 1_455 S
Eu11 O49 2.372 . S
Eu11 O50 2.462 . S
Eu11 O51 2.373 . S
Eu11 O53 2.432 . S
Eu11 O54 2.291 1_554 S
Eu11 C75 2.787 1_455 S
N12 C8 1.351 . S
N12 Eu11 2.562 . S
N12 C14 1.325 1_554 S
C13 C7 1.404 . S
C13 C15 1.366 1_554 S
C13 H21 0.930 1_554 S
C14 N12 1.325 1_556 S
C14 C15 1.416 . S
C14 H20 0.929 . S
C15 C13 1.366 1_556 S
C15 C14 1.416 . S
C15 H17 0.930 . S
H16 C5 0.930 . S
H17 C15 0.930 . S
H18 C33 0.930 . S
H19 C40 0.930 . S
H20 C14 0.929 . S
H21 C13 0.930 1_556 S
H22 C36 0.929 . S
H23 C3 0.931 . S
H24 C9 0.931 . S
H25 C10 0.931 . S
H26 C31 0.931 . S
H27 C6 0.929 . S
H28 C39 0.930 . S
N29 Eu0 2.600 1_655 S
N29 C30 1.365 . S
N29 C33 1.319 . S
C30 N29 1.365 . S
C30 C32 1.405 . S
C30 C38 1.448 . S
C31 H26 0.931 . S
C31 C33 1.397 . S
C31 C34 1.367 . S
C32 C30 1.405 . S
C32 C34 1.403 . S
C32 C65 1.439 . S
C33 H18 0.930 . S
C33 N29 1.319 . S
C33 C31 1.397 . S
C34 C31 1.367 . S
C34 C32 1.403 . S
C34 H41 0.929 . S
N35 Eu0 2.562 1_654 S
N35 C36 1.325 . S
N35 C38 1.351 1_554 S
C36 H22 0.929 . S
C36 N35 1.325 . S
C36 C40 1.416 . S
C37 C38 1.430 . S
C37 C39 1.404 1_556 S
C37 C66 1.387 . S
C38 C30 1.448 . S
C38 N35 1.351 1_556 S
C38 C37 1.430 . S
C39 H28 0.930 . S
C39 C37 1.404 1_554 S
C39 C40 1.366 . S
C40 H19 0.930 . S
C40 C36 1.416 . S
C40 C39 1.366 . S
H41 C34 0.929 . S
H42 C65 0.931 . S
H43 C66 0.931 . S
O44 Eu0 2.462 1_554 S
O44 C64 1.252 1_554 S
O45 Eu0 2.373 1_655 S
O45 C56 1.249 1_556 S
O46 Eu11 2.335 1_655 S
O46 C56 1.264 . S
O47 Eu0 2.432 . S
O47 C64 1.268 . S
O48 Eu0 2.291 1_554 S
O48 C63 1.255 . S
O49 Eu11 2.372 . S
O49 C63 1.257 . S
O50 Eu11 2.462 . S
O50 C75 1.252 1_455 S
O51 Eu11 2.373 . S
O51 C67 1.249 . S
O52 Eu0 2.335 1_554 S
O52 C67 1.264 . S
O53 Eu11 2.432 . S
O53 C75 1.268 1_455 S
O54 Eu11 2.291 1_556 S
O54 C74 1.255 . S
O55 Eu0 2.372 . S
O55 C74 1.257 . S
C56 O45 1.249 1_554 S
C56 O46 1.264 . S
C57 C60 1.382 . S
C57 C62 1.390 1_556 S
C57 C64 1.506 . S
C58 C59 1.398 1_554 S
C58 C62 1.392 . S
C59 C58 1.398 1_556 S
C59 C61 1.372 . S
C59 H76 0.931 . S
C60 C57 1.382 . S
C60 C61 1.390 . S
C60 H77 0.931 . S
C61 C59 1.372 . S
C61 C60 1.390 . S
C61 H78 0.929 . S
C62 C57 1.390 1_554 S
C62 C58 1.392 . S
C62 H79 0.930 . S
C63 O48 1.255 . S
C63 O49 1.257 . S
C64 Eu0 2.787 . S
C64 O44 1.252 1_556 S
C64 O47 1.268 . S
C64 C57 1.506 . S
C65 C32 1.439 . S
C65 H42 0.931 . S
C65 C66 1.374 . S
C66 C37 1.387 . S
C66 H43 0.931 . S
C66 C65 1.374 . S
C67 O51 1.249 . S
C67 O52 1.264 . S
C68 C71 1.382 . S
C68 C72 1.390 . S
C68 C75 1.506 . S
C69 C70 1.398 . S
C69 C72 1.392 . S
C70 C69 1.398 . S
C70 C73 1.372 . S
C70 H80 0.931 . S
C71 C68 1.382 . S
C71 C73 1.390 . S
C71 H81 0.931 . S
C72 C68 1.390 . S
C72 C69 1.392 . S
C72 H82 0.930 1_554 S
C73 C70 1.372 . S
C73 C71 1.390 . S
C73 H83 0.929 . S
C74 O54 1.255 . S
C74 O55 1.257 . S
C75 Eu11 2.787 1_655 S
C75 O50 1.252 1_655 S
C75 O53 1.268 1_655 S
C75 C68 1.506 . S
H76 C59 0.931 . S
H77 C60 0.931 . S
H78 C61 0.929 . S
H79 C62 0.930 . S
H80 C70 0.931 . S
H81 C71 0.931 . S
H82 C72 0.930 1_556 S
H83 C73 0.929 . S
Eu84 N113 2.600 1_654 S
Eu84 N119 2.562 1_655 S
Eu84 O128 2.462 . S
Eu84 O129 2.373 1_655 S
Eu84 O131 2.432 1_554 S
Eu84 O132 2.291 . S
Eu84 O136 2.335 . S
Eu84 O139 2.372 1_554 S
Eu84 C148 2.787 . S
C85 N86 1.365 . S
C85 C88 1.405 . S
C85 C92 1.448 . S
N86 C85 1.365 . S
N86 C89 1.319 . S
N86 Eu95 2.600 . S
C87 C89 1.397 . S
C87 C90 1.367 . S
C87 H107 0.931 . S
C88 C85 1.405 . S
C88 C90 1.403 . S
C88 C94 1.439 . S
C89 N86 1.319 . S
C89 C87 1.397 . S
C89 H100 0.930 . S
C90 C87 1.367 . S
C90 C88 1.403 . S
C90 H111 0.929 . S
C91 C92 1.430 1_556 S
C91 C93 1.387 1_556 S
C91 C97 1.404 . S
C92 C85 1.448 . S
C92 C91 1.430 1_554 S
C92 N96 1.351 1_554 S
C93 C91 1.387 1_554 S
C93 C94 1.374 . S
C93 H108 0.931 . S
C94 C88 1.439 . S
C94 C93 1.374 . S
C94 H109 0.931 . S
Eu95 N86 2.600 . S
Eu95 N96 2.562 1_554 S
Eu95 O130 2.335 1_655 S
Eu95 O133 2.372 . S
Eu95 O134 2.462 1_554 S
Eu95 O135 2.373 . S
Eu95 O137 2.432 1_655 S
Eu95 O138 2.291 1_554 S
Eu95 C159 2.787 1_655 S
N96 C92 1.351 1_556 S
N96 Eu95 2.562 1_556 S
N96 C98 1.325 . S
C97 C91 1.404 . S
C97 C99 1.366 . S
C97 H105 0.930 . S
C98 N96 1.325 . S
C98 C99 1.416 . S
C98 H104 0.929 . S
C99 C97 1.366 . S
C99 C98 1.416 . S
C99 H101 0.930 . S
H100 C89 0.930 . S
H101 C99 0.930 . S
H102 C117 0.930 . S
H103 C124 0.930 . S
H104 C98 0.929 . S
H105 C97 0.930 . S
H106 C120 0.929 . S
H107 C87 0.931 . S
H108 C93 0.931 . S
H109 C94 0.931 . S
H110 C115 0.931 . S
H111 C90 0.929 . S
H112 C123 0.930 . S
N113 Eu84 2.600 1_456 S
N113 C114 1.365 . S
N113 C117 1.319 . S
C114 N113 1.365 . S
C114 C116 1.405 . S
C114 C122 1.448 1_556 S
C115 H110 0.931 . S
C115 C117 1.397 . S
C115 C118 1.367 . S
C116 C114 1.405 . S
C116 C118 1.403 . S
C116 C149 1.439 . S
C117 H102 0.930 . S
C117 N113 1.319 . S
C117 C115 1.397 . S
C118 C115 1.367 . S
C118 C116 1.403 . S
C118 H125 0.929 . S
N119 Eu84 2.562 1_455 S
N119 C120 1.325 . S
N119 C122 1.351 . S
C120 H106 0.929 . S
C120 N119 1.325 . S
C120 C124 1.416 . S
C121 C122 1.430 . S
C121 C123 1.404 . S
C121 C150 1.387 . S
C122 C114 1.448 1_554 S
C122 N119 1.351 . S
C122 C121 1.430 . S
C123 H112 0.930 . S
C123 C121 1.404 . S
C123 C124 1.366 . S
C124 H103 0.930 . S
C124 C120 1.416 . S
C124 C123 1.366 . S
H125 C118 0.929 . S
H126 C149 0.931 . S
H127 C150 0.931 . S
O128 Eu84 2.462 . S
O128 C148 1.252 . S
O129 Eu84 2.373 1_455 S
O129 C140 1.249 . S
O130 Eu95 2.335 1_455 S
O130 C140 1.264 . S
O131 Eu84 2.432 1_556 S
O131 C148 1.268 1_556 S
O132 Eu84 2.291 . S
O132 C147 1.255 . S
O133 Eu95 2.372 . S
O133 C147 1.257 . S
O134 Eu95 2.462 1_556 S
O134 C159 1.252 1_656 S
O135 Eu95 2.373 . S
O135 C151 1.249 . S
O136 Eu84 2.335 . S
O136 C151 1.264 . S
O137 Eu95 2.432 1_455 S
O137 C159 1.268 . S
O138 Eu95 2.291 1_556 S
O138 C158 1.255 . S
O139 Eu84 2.372 1_556 S
O139 C158 1.257 . S
C140 O129 1.249 . S
C140 O130 1.264 . S
C141 C144 1.382 . S
C141 C146 1.390 . S
C141 C148 1.506 . S
C142 C143 1.398 . S
C142 C146 1.392 . S
C143 C142 1.398 . S
C143 C145 1.372 . S
C143 H160 0.931 . S
C144 C141 1.382 . S
C144 C145 1.390 . S
C144 H161 0.931 1_554 S
C145 C143 1.372 . S
C145 C144 1.390 . S
C145 H162 0.929 1_554 S
C146 C141 1.390 . S
C146 C142 1.392 . S
C146 H163 0.930 . S
C147 O132 1.255 . S
C147 O133 1.257 . S
C148 Eu84 2.787 . S
C148 O128 1.252 . S
C148 O131 1.268 1_554 S
C148 C141 1.506 . S
C149 C116 1.439 . S
C149 H126 0.931 . S
C149 C150 1.374 1_556 S
C150 C121 1.387 . S
C150 H127 0.931 . S
C150 C149 1.374 1_554 S
C151 O135 1.249 . S
C151 O136 1.264 . S
C152 C155 1.382 . S
C152 C156 1.390 1_554 S
C152 C159 1.506 . S
C153 C154 1.398 . S
C153 C156 1.392 . S
C154 C153 1.398 . S
C154 C157 1.372 1_556 S
C154 H164 0.931 . S
C155 C152 1.382 . S
C155 C157 1.390 . S
C155 H165 0.931 . S
C156 C152 1.390 1_556 S
C156 C153 1.392 . S
C156 H166 0.930 . S
C157 C154 1.372 1_554 S
C157 C155 1.390 . S
C157 H167 0.929 . S
C158 O138 1.255 . S
C158 O139 1.257 . S
C159 Eu95 2.787 1_455 S
C159 O134 1.252 1_454 S
C159 O137 1.268 . S
C159 C152 1.506 . S
H160 C143 0.931 . S
H161 C144 0.931 1_556 S
H162 C145 0.929 1_556 S
H163 C146 0.930 . S
H164 C154 0.931 . S
H165 C155 0.931 . S
H166 C156 0.930 . S
H167 C157 0.929 . S
Eu168 N197 2.600 1_455 S
Eu168 N203 2.562 1_455 S
Eu168 O212 2.462 . S
Eu168 O213 2.373 1_455 S
Eu168 O215 2.432 . S
Eu168 O216 2.291 . S
Eu168 O220 2.335 . S
Eu168 O223 2.372 . S
Eu168 C232 2.787 . S
C169 N170 1.365 . S
C169 C172 1.405 . S
C169 C176 1.448 . S
N170 C169 1.365 . S
N170 C173 1.319 . S
N170 Eu179 2.600 . S
C171 C173 1.397 . S
C171 C174 1.367 . S
C171 H191 0.931 . S
C172 C169 1.405 . S
C172 C174 1.403 . S
C172 C178 1.439 . S
C173 N170 1.319 . S
C173 C171 1.397 . S
C173 H184 0.930 . S
C174 C171 1.367 . S
C174 C172 1.403 . S
C174 H195 0.929 . S
C175 C176 1.430 . S
C175 C177 1.387 . S
C175 C181 1.404 . S
C176 C169 1.448 . S
C176 C175 1.430 . S
C176 N180 1.351 . S
C177 C175 1.387 . S
C177 C178 1.374 . S
C177 H192 0.931 . S
C178 C172 1.439 . S
C178 C177 1.374 . S
C178 H193 0.931 . S
Eu179 N170 2.600 . S
Eu179 N180 2.562 . S
Eu179 O214 2.335 1_455 S
Eu179 O217 2.372 . S
Eu179 O218 2.462 . S
Eu179 O219 2.373 . S
Eu179 O221 2.432 1_455 S
Eu179 O222 2.291 . S
Eu179 C243 2.787 1_455 S
N180 C176 1.351 . S
N180 Eu179 2.562 . S
N180 C182 1.325 . S
C181 C175 1.404 . S
C181 C183 1.366 . S
C181 H189 0.930 . S
C182 N180 1.325 . S
C182 C183 1.416 . S
C182 H188 0.929 . S
C183 C181 1.366 . S
C183 C182 1.416 . S
C183 H185 0.930 . S
H184 C173 0.930 . S
H185 C183 0.930 . S
H186 C201 0.930 1_455 S
H187 C208 0.930 . S
H188 C182 0.929 . S
H189 C181 0.930 . S
H190 C204 0.929 . S
H191 C171 0.931 . S
H192 C177 0.931 . S
H193 C178 0.931 . S
H194 C199 0.931 . S
H195 C174 0.929 . S
H196 C207 0.930 . S
N197 Eu168 2.600 1_655 S
N197 C198 1.365 . S
N197 C201 1.319 . S
C198 N197 1.365 . S
C198 C200 1.405 . S
C198 C206 1.448 . S
C199 H194 0.931 . S
C199 C201 1.397 . S
C199 C202 1.367 . S
C200 C198 1.405 . S
C200 C202 1.403 . S
C200 C233 1.439 . S
C201 H186 0.930 1_655 S
C201 N197 1.319 . S
C201 C199 1.397 . S
C202 C199 1.367 . S
C202 C200 1.403 . S
C202 H209 0.929 . S
N203 Eu168 2.562 1_655 S
N203 C204 1.325 . S
N203 C206 1.351 . S
C204 H190 0.929 . S
C204 N203 1.325 . S
C204 C208 1.416 . S
C205 C206 1.430 . S
C205 C207 1.404 . S
C205 C234 1.387 . S
C206 C198 1.448 . S
C206 N203 1.351 . S
C206 C205 1.430 . S
C207 H196 0.930 . S
C207 C205 1.404 . S
C207 C208 1.366 . S
C208 H187 0.930 . S
C208 C204 1.416 . S
C208 C207 1.366 . S
H209 C202 0.929 . S
H210 C233 0.931 . S
H211 C234 0.931 . S
O212 Eu168 2.462 . S
O212 C232 1.252 . S
O213 Eu168 2.373 1_655 S
O213 C224 1.249 . S
O214 Eu179 2.335 1_655 S
O214 C224 1.264 . S
O215 Eu168 2.432 . S
O215 C232 1.268 . S
O216 Eu168 2.291 . S
O216 C231 1.255 . S
O217 Eu179 2.372 . S
O217 C231 1.257 . S
O218 Eu179 2.462 . S
O218 C243 1.252 1_455 S
O219 Eu179 2.373 . S
O219 C235 1.249 . S
O220 Eu168 2.335 . S
O220 C235 1.264 . S
O221 Eu179 2.432 1_655 S
O221 C243 1.268 . S
O222 Eu179 2.291 . S
O222 C242 1.255 . S
O223 Eu168 2.372 . S
O223 C242 1.257 . S
C224 O213 1.249 . S
C224 O214 1.264 . S
C225 C228 1.382 . S
C225 C230 1.390 . S
C225 C232 1.506 . S
C226 C227 1.398 . S
C226 C230 1.392 . S
C227 C226 1.398 . S
C227 C229 1.372 . S
C227 H244 0.931 . S
C228 C225 1.382 . S
C228 C229 1.390 . S
C228 H245 0.931 . S
C229 C227 1.372 . S
C229 C228 1.390 . S
C229 H246 0.929 . S
C230 C225 1.390 . S
C230 C226 1.392 . S
C230 H247 0.930 . S
C231 O216 1.255 . S
C231 O217 1.257 . S
C232 Eu168 2.787 . S
C232 O212 1.252 . S
C232 O215 1.268 . S
C232 C225 1.506 . S
C233 C200 1.439 . S
C233 H210 0.931 . S
C233 C234 1.374 . S
C234 C205 1.387 . S
C234 H211 0.931 . S
C234 C233 1.374 . S
C235 O219 1.249 . S
C235 O220 1.264 . S
C236 C239 1.382 . S
C236 C240 1.390 . S
C236 C243 1.506 . S
C237 C238 1.398 . S
C237 C240 1.392 . S
C238 C237 1.398 . S
C238 C241 1.372 . S
C238 H248 0.931 . S
C239 C236 1.382 . S
C239 C241 1.390 . S
C239 H249 0.931 . S
C240 C236 1.390 . S
C240 C237 1.392 . S
C240 H250 0.930 . S
C241 C238 1.372 . S
C241 C239 1.390 . S
C241 H251 0.929 . S
C242 O222 1.255 . S
C242 O223 1.257 . S
C243 Eu179 2.787 1_655 S
C243 O218 1.252 1_655 S
C243 O221 1.268 . S
C243 C236 1.506 . S
H244 C227 0.931 . S
H245 C228 0.931 . S
H246 C229 0.929 . S
H247 C230 0.930 . S
H248 C238 0.931 . S
H249 C239 0.931 . S
H250 C240 0.930 . S
H251 C241 0.929 . S
Eu252 N281 2.600 . S
Eu252 N287 2.562 . S
Eu252 O296 2.462 . S
Eu252 O297 2.373 . S
Eu252 O299 2.432 1_655 S
Eu252 O300 2.291 . S
Eu252 O304 2.335 1_655 S
Eu252 O307 2.372 . S
Eu252 C316 2.787 1_655 S
C253 N254 1.365 . S
C253 C256 1.405 . S
C253 C260 1.448 . S
N254 C253 1.365 . S
N254 C257 1.319 . S
N254 Eu263 2.600 1_455 S
C255 C257 1.397 . S
C255 C258 1.367 . S
C255 H275 0.931 . S
C256 C253 1.405 . S
C256 C258 1.403 . S
C256 C262 1.439 . S
C257 N254 1.319 . S
C257 C255 1.397 . S
C257 H268 0.930 1_455 S
C258 C255 1.367 . S
C258 C256 1.403 . S
C258 H279 0.929 . S
C259 C260 1.430 . S
C259 C261 1.387 . S
C259 C265 1.404 . S
C260 C253 1.448 . S
C260 C259 1.430 . S
C260 N264 1.351 . S
C261 C259 1.387 . S
C261 C262 1.374 . S
C261 H276 0.931 . S
C262 C256 1.439 . S
C262 C261 1.374 . S
C262 H277 0.931 . S
Eu263 N254 2.600 1_655 S
Eu263 N264 2.562 1_655 S
Eu263 O298 2.335 . S
Eu263 O301 2.372 . S
Eu263 O302 2.462 . S
Eu263 O303 2.373 1_655 S
Eu263 O305 2.432 . S
Eu263 O306 2.291 . S
Eu263 C327 2.787 . S
N264 C260 1.351 . S
N264 Eu263 2.562 1_455 S
N264 C266 1.325 . S
C265 C259 1.404 . S
C265 C267 1.366 . S
C265 H273 0.930 . S
C266 N264 1.325 . S
C266 C267 1.416 . S
C266 H272 0.929 . S
C267 C265 1.366 . S
C267 C266 1.416 . S
C267 H269 0.930 . S
H268 C257 0.930 1_655 S
H269 C267 0.930 . S
H270 C285 0.930 . S
H271 C292 0.930 . S
H272 C266 0.929 . S
H273 C265 0.930 . S
H274 C288 0.929 . S
H275 C255 0.931 . S
H276 C261 0.931 . S
H277 C262 0.931 . S
H278 C283 0.931 . S
H279 C258 0.929 . S
H280 C291 0.930 . S
N281 Eu252 2.600 . S
N281 C282 1.365 . S
N281 C285 1.319 . S
C282 N281 1.365 . S
C282 C284 1.405 . S
C282 C290 1.448 . S
C283 H278 0.931 . S
C283 C285 1.397 . S
C283 C286 1.367 . S
C284 C282 1.405 . S
C284 C286 1.403 . S
C284 C317 1.439 . S
C285 H270 0.930 . S
C285 N281 1.319 . S
C285 C283 1.397 . S
C286 C283 1.367 . S
C286 C284 1.403 . S
C286 H293 0.929 . S
N287 Eu252 2.562 . S
N287 C288 1.325 . S
N287 C290 1.351 . S
C288 H274 0.929 . S
C288 N287 1.325 . S
C288 C292 1.416 . S
C289 C290 1.430 . S
C289 C291 1.404 . S
C289 C318 1.387 . S
C290 C282 1.448 . S
C290 N287 1.351 . S
C290 C289 1.430 . S
C291 H280 0.930 . S
C291 C289 1.404 . S
C291 C292 1.366 . S
C292 H271 0.930 . S
C292 C288 1.416 . S
C292 C291 1.366 . S
H293 C286 0.929 . S
H294 C317 0.931 . S
H295 C318 0.931 . S
O296 Eu252 2.462 . S
O296 C316 1.252 1_655 S
O297 Eu252 2.373 . S
O297 C308 1.249 . S
O298 Eu263 2.335 . S
O298 C308 1.264 . S
O299 Eu252 2.432 1_455 S
O299 C316 1.268 . S
O300 Eu252 2.291 . S
O300 C315 1.255 . S
O301 Eu263 2.372 . S
O301 C315 1.257 . S
O302 Eu263 2.462 . S
O302 C327 1.252 . S
O303 Eu263 2.373 1_455 S
O303 C319 1.249 . S
O304 Eu252 2.335 1_455 S
O304 C319 1.264 . S
O305 Eu263 2.432 . S
O305 C327 1.268 . S
O306 Eu263 2.291 . S
O306 C326 1.255 . S
O307 Eu252 2.372 . S
O307 C326 1.257 . S
C308 O297 1.249 . S
C308 O298 1.264 . S
C309 C312 1.382 . S
C309 C314 1.390 . S
C309 C316 1.506 . S
C310 C311 1.398 . S
C310 C314 1.392 . S
C311 C310 1.398 . S
C311 C313 1.372 . S
C311 H328 0.931 . S
C312 C309 1.382 . S
C312 C313 1.390 . S
C312 H329 0.931 . S
C313 C311 1.372 . S
C313 C312 1.390 . S
C313 H330 0.929 . S
C314 C309 1.390 . S
C314 C310 1.392 . S
C314 H331 0.930 . S
C315 O300 1.255 . S
C315 O301 1.257 . S
C316 Eu252 2.787 1_455 S
C316 O296 1.252 1_455 S
C316 O299 1.268 . S
C316 C309 1.506 . S
C317 C284 1.439 . S
C317 H294 0.931 . S
C317 C318 1.374 . S
C318 C289 1.387 . S
C318 H295 0.931 . S
C318 C317 1.374 . S
C319 O303 1.249 . S
C319 O304 1.264 . S
C320 C323 1.382 . S
C320 C324 1.390 . S
C320 C327 1.506 . S
C321 C322 1.398 . S
C321 C324 1.392 . S
C322 C321 1.398 . S
C322 C325 1.372 . S
C322 H332 0.931 . S
C323 C320 1.382 . S
C323 C325 1.390 . S
C323 H333 0.931 . S
C324 C320 1.390 . S
C324 C321 1.392 . S
C324 H334 0.930 . S
C325 C322 1.372 . S
C325 C323 1.390 . S
C325 H335 0.929 . S
C326 O306 1.255 . S
C326 O307 1.257 . S
C327 Eu263 2.787 . S
C327 O302 1.252 . S
C327 O305 1.268 . S
C327 C320 1.506 . S
H328 C311 0.931 . S
H329 C312 0.931 . S
H330 C313 0.929 . S
H331 C314 0.930 . S
H332 C322 0.931 . S
H333 C323 0.931 . S
H334 C324 0.930 . S
H335 C325 0.929 . S
Eu336 N365 2.600 . S
Eu336 N371 2.562 1_556 S
Eu336 O380 2.462 1_556 S
Eu336 O381 2.373 . S
Eu336 O383 2.432 . S
Eu336 O384 2.291 1_556 S
Eu336 O388 2.335 1_556 S
Eu336 O391 2.372 . S
Eu336 C400 2.787 . S
C337 N338 1.365 . S
C337 C340 1.405 . S
C337 C344 1.448 . S
N338 C337 1.365 . S
N338 C341 1.319 . S
N338 Eu347 2.600 . S
C339 C341 1.397 . S
C339 C342 1.367 . S
C339 H359 0.931 . S
C340 C337 1.405 . S
C340 C342 1.403 . S
C340 C346 1.439 1_655 S
C341 N338 1.319 . S
C341 C339 1.397 . S
C341 H352 0.930 . S
C342 C339 1.367 . S
C342 C340 1.403 . S
C342 H363 0.929 . S
C343 C344 1.430 . S
C343 C345 1.387 1_655 S
C343 C349 1.404 . S
C344 C337 1.448 . S
C344 C343 1.430 . S
C344 N348 1.351 . S
C345 C343 1.387 1_455 S
C345 C346 1.374 . S
C345 H360 0.931 . S
C346 C340 1.439 1_455 S
C346 C345 1.374 . S
C346 H361 0.931 . S
Eu347 N338 2.600 . S
Eu347 N348 2.562 . S
Eu347 O382 2.335 . S
Eu347 O385 2.372 . S
Eu347 O386 2.462 . S
Eu347 O387 2.373 . S
Eu347 O389 2.432 . S
Eu347 O390 2.291 1_554 S
Eu347 C411 2.787 . S
N348 C344 1.351 . S
N348 Eu347 2.562 . S
N348 C350 1.325 1_554 S
C349 C343 1.404 . S
C349 C351 1.366 1_554 S
C349 H357 0.930 1_654 S
C350 N348 1.325 1_556 S
C350 C351 1.416 . S
C350 H356 0.929 . S
C351 C349 1.366 1_556 S
C351 C350 1.416 . S
C351 H353 0.930 . S
H352 C341 0.930 . S
H353 C351 0.930 . S
H354 C369 0.930 . S
H355 C376 0.930 . S
H356 C350 0.929 . S
H357 C349 0.930 1_456 S
H358 C372 0.929 . S
H359 C339 0.931 . S
H360 C345 0.931 . S
H361 C346 0.931 . S
H362 C367 0.931 . S
H363 C342 0.929 . S
H364 C375 0.930 . S
N365 Eu336 2.600 . S
N365 C366 1.365 . S
N365 C369 1.319 . S
C366 N365 1.365 . S
C366 C368 1.405 . S
C366 C374 1.448 . S
C367 H362 0.931 . S
C367 C369 1.397 . S
C367 C370 1.367 . S
C368 C366 1.405 . S
C368 C370 1.403 . S
C368 C401 1.439 . S
C369 H354 0.930 . S
C369 N365 1.319 . S
C369 C367 1.397 . S
C370 C367 1.367 . S
C370 C368 1.403 . S
C370 H377 0.929 . S
N371 Eu336 2.562 1_554 S
N371 C372 1.325 . S
N371 C374 1.351 1_554 S
C372 H358 0.929 . S
C372 N371 1.325 . S
C372 C376 1.416 . S
C373 C374 1.430 . S
C373 C375 1.404 1_556 S
C373 C402 1.387 . S
C374 C366 1.448 . S
C374 N371 1.351 1_556 S
C374 C373 1.430 . S
C375 H364 0.930 . S
C375 C373 1.404 1_554 S
C375 C376 1.366 . S
C376 H355 0.930 . S
C376 C372 1.416 . S
C376 C375 1.366 . S
H377 C370 0.929 . S
H378 C401 0.931 . S
H379 C402 0.931 . S
O380 Eu336 2.462 1_554 S
O380 C400 1.252 1_554 S
O381 Eu336 2.373 . S
O381 C392 1.249 1_556 S
O382 Eu347 2.335 . S
O382 C392 1.264 . S
O383 Eu336 2.432 . S
O383 C400 1.268 . S
O384 Eu336 2.291 1_554 S
O384 C399 1.255 . S
O385 Eu347 2.372 . S
O385 C399 1.257 . S
O386 Eu347 2.462 . S
O386 C411 1.252 . S
O387 Eu347 2.373 . S
O387 C403 1.249 . S
O388 Eu336 2.335 1_554 S
O388 C403 1.264 . S
O389 Eu347 2.432 . S
O389 C411 1.268 . S
O390 Eu347 2.291 1_556 S
O390 C410 1.255 . S
O391 Eu336 2.372 . S
O391 C410 1.257 . S
C392 O381 1.249 1_554 S
C392 O382 1.264 . S
C393 C396 1.382 . S
C393 C398 1.390 1_556 S
C393 C400 1.506 . S
C394 C395 1.398 1_554 S
C394 C398 1.392 . S
C395 C394 1.398 1_556 S
C395 C397 1.372 . S
C395 H412 0.931 . S
C396 C393 1.382 . S
C396 C397 1.390 . S
C396 H413 0.931 . S
C397 C395 1.372 . S
C397 C396 1.390 . S
C397 H414 0.929 . S
C398 C393 1.390 1_554 S
C398 C394 1.392 . S
C398 H415 0.930 . S
C399 O384 1.255 . S
C399 O385 1.257 . S
C400 Eu336 2.787 . S
C400 O380 1.252 1_556 S
C400 O383 1.268 . S
C400 C393 1.506 . S
C401 C368 1.439 . S
C401 H378 0.931 . S
C401 C402 1.374 . S
C402 C373 1.387 . S
C402 H379 0.931 . S
C402 C401 1.374 . S
C403 O387 1.249 . S
C403 O388 1.264 . S
C404 C407 1.382 . S
C404 C408 1.390 . S
C404 C411 1.506 . S
C405 C406 1.398 . S
C405 C408 1.392 . S
C406 C405 1.398 . S
C406 C409 1.372 . S
C406 H416 0.931 . S
C407 C404 1.382 . S
C407 C409 1.390 . S
C407 H417 0.931 . S
C408 C404 1.390 . S
C408 C405 1.392 . S
C408 H418 0.930 1_554 S
C409 C406 1.372 . S
C409 C407 1.390 . S
C409 H419 0.929 . S
C410 O390 1.255 . S
C410 O391 1.257 . S
C411 Eu347 2.787 . S
C411 O386 1.252 . S
C411 O389 1.268 . S
C411 C404 1.506 . S
H412 C395 0.931 . S
H413 C396 0.931 . S
H414 C397 0.929 . S
H415 C398 0.930 . S
H416 C406 0.931 . S
H417 C407 0.931 . S
H418 C408 0.930 1_556 S
H419 C409 0.929 . S
Eu420 N449 2.600 1_554 S
Eu420 N455 2.562 . S
Eu420 O464 2.462 . S
Eu420 O465 2.373 . S
Eu420 O467 2.432 1_554 S
Eu420 O468 2.291 . S
Eu420 O472 2.335 . S
Eu420 O475 2.372 1_554 S
Eu420 C484 2.787 . S
C421 N422 1.365 . S
C421 C424 1.405 . S
C421 C428 1.448 . S
N422 C421 1.365 . S
N422 C425 1.319 . S
N422 Eu431 2.600 . S
C423 C425 1.397 . S
C423 C426 1.367 . S
C423 H443 0.931 . S
C424 C421 1.405 . S
C424 C426 1.403 . S
C424 C430 1.439 1_455 S
C425 N422 1.319 . S
C425 C423 1.397 . S
C425 H436 0.930 . S
C426 C423 1.367 . S
C426 C424 1.403 . S
C426 H447 0.929 . S
C427 C428 1.430 1_556 S
C427 C429 1.387 1_456 S
C427 C433 1.404 . S
C428 C421 1.448 . S
C428 C427 1.430 1_554 S
C428 N432 1.351 1_554 S
C429 C427 1.387 1_654 S
C429 C430 1.374 . S
C429 H444 0.931 . S
C430 C424 1.439 1_655 S
C430 C429 1.374 . S
C430 H445 0.931 . S
Eu431 N422 2.600 . S
Eu431 N432 2.562 1_554 S
Eu431 O466 2.335 . S
Eu431 O469 2.372 . S
Eu431 O470 2.462 1_554 S
Eu431 O471 2.373 . S
Eu431 O473 2.432 . S
Eu431 O474 2.291 1_554 S
Eu431 C495 2.787 . S
N432 C428 1.351 1_556 S
N432 Eu431 2.562 1_556 S
N432 C434 1.325 . S
C433 C427 1.404 . S
C433 C435 1.366 . S
C433 H441 0.930 1_455 S
C434 N432 1.325 . S
C434 C435 1.416 . S
C434 H440 0.929 . S
C435 C433 1.366 . S
C435 C434 1.416 . S
C435 H437 0.930 . S
H436 C425 0.930 . S
H437 C435 0.930 . S
H438 C453 0.930 . S
H439 C460 0.930 . S
H440 C434 0.929 . S
H441 C433 0.930 1_655 S
H442 C456 0.929 . S
H443 C423 0.931 . S
H444 C429 0.931 . S
H445 C430 0.931 . S
H446 C451 0.931 . S
H447 C426 0.929 . S
H448 C459 0.930 . S
N449 Eu420 2.600 1_556 S
N449 C450 1.365 . S
N449 C453 1.319 . S
C450 N449 1.365 . S
C450 C452 1.405 . S
C450 C458 1.448 1_556 S
C451 H446 0.931 . S
C451 C453 1.397 . S
C451 C454 1.367 . S
C452 C450 1.405 . S
C452 C454 1.403 . S
C452 C485 1.439 . S
C453 H438 0.930 . S
C453 N449 1.319 . S
C453 C451 1.397 . S
C454 C451 1.367 . S
C454 C452 1.403 . S
C454 H461 0.929 . S
N455 Eu420 2.562 . S
N455 C456 1.325 . S
N455 C458 1.351 . S
C456 H442 0.929 . S
C456 N455 1.325 . S
C456 C460 1.416 . S
C457 C458 1.430 . S
C457 C459 1.404 . S
C457 C486 1.387 . S
C458 C450 1.448 1_554 S
C458 N455 1.351 . S
C458 C457 1.430 . S
C459 H448 0.930 . S
C459 C457 1.404 . S
C459 C460 1.366 . S
C460 H439 0.930 . S
C460 C456 1.416 . S
C460 C459 1.366 . S
H461 C454 0.929 . S
H462 C485 0.931 . S
H463 C486 0.931 . S
O464 Eu420 2.462 . S
O464 C484 1.252 . S
O465 Eu420 2.373 . S
O465 C476 1.249 . S
O466 Eu431 2.335 . S
O466 C476 1.264 . S
O467 Eu420 2.432 1_556 S
O467 C484 1.268 1_556 S
O468 Eu420 2.291 . S
O468 C483 1.255 . S
O469 Eu431 2.372 . S
O469 C483 1.257 . S
O470 Eu431 2.462 1_556 S
O470 C495 1.252 1_556 S
O471 Eu431 2.373 . S
O471 C487 1.249 . S
O472 Eu420 2.335 . S
O472 C487 1.264 . S
O473 Eu431 2.432 . S
O473 C495 1.268 . S
O474 Eu431 2.291 1_556 S
O474 C494 1.255 . S
O475 Eu420 2.372 1_556 S
O475 C494 1.257 . S
C476 O465 1.249 . S
C476 O466 1.264 . S
C477 C480 1.382 . S
C477 C482 1.390 . S
C477 C484 1.506 . S
C478 C479 1.398 . S
C478 C482 1.392 . S
C479 C478 1.398 . S
C479 C481 1.372 . S
C479 H496 0.931 . S
C480 C477 1.382 . S
C480 C481 1.390 . S
C480 H497 0.931 1_554 S
C481 C479 1.372 . S
C481 C480 1.390 . S
C481 H498 0.929 1_554 S
C482 C477 1.390 . S
C482 C478 1.392 . S
C482 H499 0.930 . S
C483 O468 1.255 . S
C483 O469 1.257 . S
C484 Eu420 2.787 . S
C484 O464 1.252 . S
C484 O467 1.268 1_554 S
C484 C477 1.506 . S
C485 C452 1.439 . S
C485 H462 0.931 . S
C485 C486 1.374 1_556 S
C486 C457 1.387 . S
C486 H463 0.931 . S
C486 C485 1.374 1_554 S
C487 O471 1.249 . S
C487 O472 1.264 . S
C488 C491 1.382 . S
C488 C492 1.390 1_554 S
C488 C495 1.506 . S
C489 C490 1.398 . S
C489 C492 1.392 . S
C490 C489 1.398 . S
C490 C493 1.372 1_556 S
C490 H500 0.931 . S
C491 C488 1.382 . S
C491 C493 1.390 . S
C491 H501 0.931 . S
C492 C488 1.390 1_556 S
C492 C489 1.392 . S
C492 H502 0.930 . S
C493 C490 1.372 1_554 S
C493 C491 1.390 . S
C493 H503 0.929 . S
C494 O474 1.255 . S
C494 O475 1.257 . S
C495 Eu431 2.787 . S
C495 O470 1.252 1_554 S
C495 O473 1.268 . S
C495 C488 1.506 . S
H496 C479 0.931 . S
H497 C480 0.931 1_556 S
H498 C481 0.929 1_556 S
H499 C482 0.930 . S
H500 C490 0.931 . S
H501 C491 0.931 . S
H502 C492 0.930 . S
H503 C493 0.929 . S
Eu504 N533 2.600 . S
Eu504 N539 2.562 . S
Eu504 O548 2.462 . S
Eu504 O549 2.373 . S
Eu504 O551 2.432 . S
Eu504 O552 2.291 . S
Eu504 O556 2.335 . S
Eu504 O559 2.372 . S
Eu504 C568 2.787 . S
C505 N506 1.365 . S
C505 C508 1.405 . S
C505 C512 1.448 . S
N506 C505 1.365 . S
N506 C509 1.319 . S
N506 Eu515 2.600 . S
C507 C509 1.397 . S
C507 C510 1.367 . S
C507 H527 0.931 . S
C508 C505 1.405 . S
C508 C510 1.403 . S
C508 C514 1.439 . S
C509 N506 1.319 . S
C509 C507 1.397 . S
C509 H520 0.930 . S
C510 C507 1.367 . S
C510 C508 1.403 . S
C510 H531 0.929 . S
C511 C512 1.430 . S
C511 C513 1.387 1_655 S
C511 C517 1.404 . S
C512 C505 1.448 . S
C512 C511 1.430 . S
C512 N516 1.351 . S
C513 C511 1.387 1_455 S
C513 C514 1.374 1_455 S
C513 H528 0.931 . S
C514 C508 1.439 . S
C514 C513 1.374 1_655 S
C514 H529 0.931 1_655 S
Eu515 N506 2.600 . S
Eu515 N516 2.562 . S
Eu515 O550 2.335 . S
Eu515 O553 2.372 . S
Eu515 O554 2.462 . S
Eu515 O555 2.373 . S
Eu515 O557 2.432 . S
Eu515 O558 2.291 . S
Eu515 C579 2.787 . S
N516 C512 1.351 . S
N516 Eu515 2.562 . S
N516 C518 1.325 . S
C517 C511 1.404 . S
C517 C519 1.366 . S
C517 H525 0.930 1_655 S
C518 N516 1.325 . S
C518 C519 1.416 . S
C518 H524 0.929 . S
C519 C517 1.366 . S
C519 C518 1.416 . S
C519 H521 0.930 . S
H520 C509 0.930 . S
H521 C519 0.930 . S
H522 C537 0.930 . S
H523 C544 0.930 . S
H524 C518 0.929 . S
H525 C517 0.930 1_455 S
H526 C540 0.929 . S
H527 C507 0.931 . S
H528 C513 0.931 . S
H529 C514 0.931 1_455 S
H530 C535 0.931 . S
H531 C510 0.929 . S
H532 C543 0.930 . S
N533 Eu504 2.600 . S
N533 C534 1.365 . S
N533 C537 1.319 . S
C534 N533 1.365 . S
C534 C536 1.405 . S
C534 C542 1.448 . S
C535 H530 0.931 . S
C535 C537 1.397 . S
C535 C538 1.367 . S
C536 C534 1.405 . S
C536 C538 1.403 . S
C536 C569 1.439 . S
C537 H522 0.930 . S
C537 N533 1.319 . S
C537 C535 1.397 . S
C538 C535 1.367 . S
C538 C536 1.403 . S
C538 H545 0.929 . S
N539 Eu504 2.562 . S
N539 C540 1.325 . S
N539 C542 1.351 . S
C540 H526 0.929 . S
C540 N539 1.325 . S
C540 C544 1.416 . S
C541 C542 1.430 . S
C541 C543 1.404 . S
C541 C570 1.387 . S
C542 C534 1.448 . S
C542 N539 1.351 . S
C542 C541 1.430 . S
C543 H532 0.930 . S
C543 C541 1.404 . S
C543 C544 1.366 . S
C544 H523 0.930 . S
C544 C540 1.416 . S
C544 C543 1.366 . S
H545 C538 0.929 . S
H546 C569 0.931 . S
H547 C570 0.931 . S
O548 Eu504 2.462 . S
O548 C568 1.252 . S
O549 Eu504 2.373 . S
O549 C560 1.249 . S
O550 Eu515 2.335 . S
O550 C560 1.264 . S
O551 Eu504 2.432 . S
O551 C568 1.268 . S
O552 Eu504 2.291 . S
O552 C567 1.255 . S
O553 Eu515 2.372 . S
O553 C567 1.257 . S
O554 Eu515 2.462 . S
O554 C579 1.252 . S
O555 Eu515 2.373 . S
O555 C571 1.249 . S
O556 Eu504 2.335 . S
O556 C571 1.264 . S
O557 Eu515 2.432 . S
O557 C579 1.268 . S
O558 Eu515 2.291 . S
O558 C578 1.255 . S
O559 Eu504 2.372 . S
O559 C578 1.257 . S
C560 O549 1.249 . S
C560 O550 1.264 . S
C561 C564 1.382 . S
C561 C566 1.390 . S
C561 C568 1.506 . S
C562 C563 1.398 . S
C562 C566 1.392 . S
C563 C562 1.398 . S
C563 C565 1.372 . S
C563 H580 0.931 . S
C564 C561 1.382 . S
C564 C565 1.390 . S
C564 H581 0.931 . S
C565 C563 1.372 . S
C565 C564 1.390 . S
C565 H582 0.929 . S
C566 C561 1.390 . S
C566 C562 1.392 . S
C566 H583 0.930 . S
C567 O552 1.255 . S
C567 O553 1.257 . S
C568 Eu504 2.787 . S
C568 O548 1.252 . S
C568 O551 1.268 . S
C568 C561 1.506 . S
C569 C536 1.439 . S
C569 H546 0.931 . S
C569 C570 1.374 . S
C570 C541 1.387 . S
C570 H547 0.931 . S
C570 C569 1.374 . S
C571 O555 1.249 . S
C571 O556 1.264 . S
C572 C575 1.382 . S
C572 C576 1.390 . S
C572 C579 1.506 . S
C573 C574 1.398 . S
C573 C576 1.392 . S
C574 C573 1.398 . S
C574 C577 1.372 . S
C574 H584 0.931 . S
C575 C572 1.382 . S
C575 C577 1.390 . S
C575 H585 0.931 . S
C576 C572 1.390 . S
C576 C573 1.392 . S
C576 H586 0.930 . S
C577 C574 1.372 . S
C577 C575 1.390 . S
C577 H587 0.929 . S
C578 O558 1.255 . S
C578 O559 1.257 . S
C579 Eu515 2.787 . S
C579 O554 1.252 . S
C579 O557 1.268 . S
C579 C572 1.506 . S
H580 C563 0.931 . S
H581 C564 0.931 . S
H582 C565 0.929 . S
H583 C566 0.930 . S
H584 C574 0.931 . S
H585 C575 0.931 . S
H586 C576 0.930 . S
H587 C577 0.929 . S
Eu588 N617 2.600 . S
Eu588 N623 2.562 . S
Eu588 O632 2.462 . S
Eu588 O633 2.373 . S
Eu588 O635 2.432 . S
Eu588 O636 2.291 . S
Eu588 O640 2.335 . S
Eu588 O643 2.372 . S
Eu588 C652 2.787 . S
C589 N590 1.365 . S
C589 C592 1.405 . S
C589 C596 1.448 . S
N590 C589 1.365 . S
N590 C593 1.319 . S
N590 Eu599 2.600 . S
C591 C593 1.397 . S
C591 C594 1.367 . S
C591 H611 0.931 . S
C592 C589 1.405 . S
C592 C594 1.403 . S
C592 C598 1.439 . S
C593 N590 1.319 . S
C593 C591 1.397 . S
C593 H604 0.930 . S
C594 C591 1.367 . S
C594 C592 1.403 . S
C594 H615 0.929 . S
C595 C596 1.430 . S
C595 C597 1.387 . S
C595 C601 1.404 . S
C596 C589 1.448 . S
C596 C595 1.430 . S
C596 N600 1.351 . S
C597 C595 1.387 . S
C597 C598 1.374 . S
C597 H612 0.931 . S
C598 C592 1.439 . S
C598 C597 1.374 . S
C598 H613 0.931 . S
Eu599 N590 2.600 . S
Eu599 N600 2.562 . S
Eu599 O634 2.335 . S
Eu599 O637 2.372 . S
Eu599 O638 2.462 . S
Eu599 O639 2.373 . S
Eu599 O641 2.432 . S
Eu599 O642 2.291 . S
Eu599 C663 2.787 . S
N600 C596 1.351 . S
N600 Eu599 2.562 . S
N600 C602 1.325 . S
C601 C595 1.404 . S
C601 C603 1.366 . S
C601 H609 0.930 . S
C602 N600 1.325 . S
C602 C603 1.416 . S
C602 H608 0.929 . S
C603 C601 1.366 . S
C603 C602 1.416 . S
C603 H605 0.930 . S
H604 C593 0.930 . S
H605 C603 0.930 . S
H606 C621 0.930 . S
H607 C628 0.930 . S
H608 C602 0.929 . S
H609 C601 0.930 . S
H610 C624 0.929 . S
H611 C591 0.931 . S
H612 C597 0.931 . S
H613 C598 0.931 . S
H614 C619 0.931 . S
H615 C594 0.929 . S
H616 C627 0.930 1_655 S
N617 Eu588 2.600 . S
N617 C618 1.365 . S
N617 C621 1.319 . S
C618 N617 1.365 . S
C618 C620 1.405 . S
C618 C626 1.448 . S
C619 H614 0.931 . S
C619 C621 1.397 . S
C619 C622 1.367 . S
C620 C618 1.405 . S
C620 C622 1.403 . S
C620 C653 1.439 . S
C621 H606 0.930 . S
C621 N617 1.319 . S
C621 C619 1.397 . S
C622 C619 1.367 . S
C622 C620 1.403 . S
C622 H629 0.929 . S
N623 Eu588 2.562 . S
N623 C624 1.325 . S
N623 C626 1.351 . S
C624 H610 0.929 . S
C624 N623 1.325 . S
C624 C628 1.416 . S
C625 C626 1.430 . S
C625 C627 1.404 . S
C625 C654 1.387 1_455 S
C626 C618 1.448 . S
C626 N623 1.351 . S
C626 C625 1.430 . S
C627 H616 0.930 1_455 S
C627 C625 1.404 . S
C627 C628 1.366 . S
C628 H607 0.930 . S
C628 C624 1.416 . S
C628 C627 1.366 . S
H629 C622 0.929 . S
H630 C653 0.931 1_655 S
H631 C654 0.931 . S
O632 Eu588 2.462 . S
O632 C652 1.252 . S
O633 Eu588 2.373 . S
O633 C644 1.249 . S
O634 Eu599 2.335 . S
O634 C644 1.264 . S
O635 Eu588 2.432 . S
O635 C652 1.268 . S
O636 Eu588 2.291 . S
O636 C651 1.255 . S
O637 Eu599 2.372 . S
O637 C651 1.257 . S
O638 Eu599 2.462 . S
O638 C663 1.252 . S
O639 Eu599 2.373 . S
O639 C655 1.249 . S
O640 Eu588 2.335 . S
O640 C655 1.264 . S
O641 Eu599 2.432 . S
O641 C663 1.268 . S
O642 Eu599 2.291 . S
O642 C662 1.255 . S
O643 Eu588 2.372 . S
O643 C662 1.257 . S
C644 O633 1.249 . S
C644 O634 1.264 . S
C645 C648 1.382 . S
C645 C650 1.390 . S
C645 C652 1.506 . S
C646 C647 1.398 . S
C646 C650 1.392 . S
C647 C646 1.398 . S
C647 C649 1.372 . S
C647 H664 0.931 . S
C648 C645 1.382 . S
C648 C649 1.390 . S
C648 H665 0.931 . S
C649 C647 1.372 . S
C649 C648 1.390 . S
C649 H666 0.929 . S
C650 C645 1.390 . S
C650 C646 1.392 . S
C650 H667 0.930 . S
C651 O636 1.255 . S
C651 O637 1.257 . S
C652 Eu588 2.787 . S
C652 O632 1.252 . S
C652 O635 1.268 . S
C652 C645 1.506 . S
C653 C620 1.439 . S
C653 H630 0.931 1_455 S
C653 C654 1.374 1_455 S
C654 C625 1.387 1_655 S
C654 H631 0.931 . S
C654 C653 1.374 1_655 S
C655 O639 1.249 . S
C655 O640 1.264 . S
C656 C659 1.382 . S
C656 C660 1.390 . S
C656 C663 1.506 . S
C657 C658 1.398 . S
C657 C660 1.392 . S
C658 C657 1.398 . S
C658 C661 1.372 . S
C658 H668 0.931 . S
C659 C656 1.382 . S
C659 C661 1.390 . S
C659 H669 0.931 . S
C660 C656 1.390 . S
C660 C657 1.392 . S
C660 H670 0.930 . S
C661 C658 1.372 . S
C661 C659 1.390 . S
C661 H671 0.929 . S
C662 O642 1.255 . S
C662 O643 1.257 . S
C663 Eu599 2.787 . S
C663 O638 1.252 . S
C663 O641 1.268 . S
C663 C656 1.506 . S
H664 C647 0.931 . S
H665 C648 0.931 . S
H666 C649 0.929 . S
H667 C650 0.930 . S
H668 C658 0.931 . S
H669 C659 0.931 . S
H670 C660 0.930 . S
H671 C661 0.929 . S
C672 C673 1.363 1_556 S
C672 C678 1.379 . S
C672 N680 1.356 . S
C673 C672 1.363 1_554 S
C673 C679 1.363 . S
C674 C675 1.363 . S
C674 C679 1.379 . S
C674 N681 1.356 . S
C675 C674 1.363 . S
C675 C678 1.363 1_554 S
N676 C678 1.356 . S
N676 H688 0.984 . S
N676 H689 0.985 . S
N677 C679 1.356 . S
N677 H682 0.984 . S
N677 H683 0.985 . S
C678 C672 1.379 . S
C678 C675 1.363 1_556 S
C678 N676 1.356 . S
C679 C673 1.363 . S
C679 C674 1.379 . S
C679 N677 1.356 . S
N680 C672 1.356 . S
N680 H686 0.984 . S
N680 H687 0.984 . S
N681 C674 1.356 . S
N681 H684 0.984 . S
N681 H685 0.985 . S
H682 N677 0.984 . S
H683 N677 0.985 . S
H684 N681 0.984 . S
H685 N681 0.985 . S
H686 N680 0.984 . S
H687 N680 0.984 . S
H688 N676 0.984 . S
H689 N676 0.985 . S
C690 C691 1.363 . S
C690 C696 1.379 . S
C690 N698 1.356 . S
C691 C690 1.363 . S
C691 C697 1.363 . S
C692 C693 1.363 . S
C692 C697 1.379 . S
C692 N699 1.356 . S
C693 C692 1.363 . S
C693 C696 1.363 . S
N694 C696 1.356 . S
N694 H706 0.984 . S
N694 H707 0.985 . S
N695 C697 1.356 . S
N695 H700 0.984 . S
N695 H701 0.985 . S
C696 C690 1.379 . S
C696 C693 1.363 . S
C696 N694 1.356 . S
C697 C691 1.363 . S
C697 C692 1.379 . S
C697 N695 1.356 . S
N698 C690 1.356 . S
N698 H704 0.984 . S
N698 H705 0.984 . S
N699 C692 1.356 . S
N699 H702 0.984 . S
N699 H703 0.985 . S
H700 N695 0.984 . S
H701 N695 0.985 . S
H702 N699 0.984 . S
H703 N699 0.985 . S
H704 N698 0.984 . S
H705 N698 0.984 . S
H706 N694 0.984 . S
H707 N694 0.985 . S
C708 C709 1.363 . S
C708 C714 1.379 . S
C708 N716 1.356 . S
C709 C708 1.363 . S
C709 C715 1.363 . S
C710 C711 1.363 . S
C710 C715 1.379 . S
C710 N717 1.356 . S
C711 C710 1.363 . S
C711 C714 1.363 . S
N712 C714 1.356 . S
N712 H724 0.984 . S
N712 H725 0.985 . S
N713 C715 1.356 . S
N713 H718 0.984 . S
N713 H719 0.985 . S
C714 C708 1.379 . S
C714 C711 1.363 . S
C714 N712 1.356 . S
C715 C709 1.363 . S
C715 C710 1.379 . S
C715 N713 1.356 . S
N716 C708 1.356 . S
N716 H722 0.984 . S
N716 H723 0.984 . S
N717 C710 1.356 . S
N717 H720 0.984 . S
N717 H721 0.985 . S
H718 N713 0.984 . S
H719 N713 0.985 . S
H720 N717 0.984 . S
H721 N717 0.985 . S
H722 N716 0.984 . S
H723 N716 0.984 . S
H724 N712 0.984 . S
H725 N712 0.985 . S
C726 C727 1.363 . S
C726 C732 1.379 . S
C726 N734 1.356 . S
C727 C726 1.363 . S
C727 C733 1.363 . S
C728 C729 1.363 . S
C728 C733 1.379 . S
C728 N735 1.356 . S
C729 C728 1.363 . S
C729 C732 1.363 . S
N730 C732 1.356 . S
N730 H742 0.984 . S
N730 H743 0.985 . S
N731 C733 1.356 . S
N731 H736 0.984 . S
N731 H737 0.985 . S
C732 C726 1.379 . S
C732 C729 1.363 . S
C732 N730 1.356 . S
C733 C727 1.363 . S
C733 C728 1.379 . S
C733 N731 1.356 . S
N734 C726 1.356 . S
N734 H740 0.984 . S
N734 H741 0.984 . S
N735 C728 1.356 . S
N735 H738 0.984 . S
N735 H739 0.985 . S
H736 N731 0.984 . S
H737 N731 0.985 . S
H738 N735 0.984 . S
H739 N735 0.985 . S
H740 N734 0.984 . S
H741 N734 0.984 . S
H742 N730 0.984 . S
H743 N730 0.985 . S
C744 C745 1.363 1_455 S
C744 C750 1.379 . S
C744 N752 1.356 1_454 S
C745 C744 1.363 1_655 S
C745 C751 1.363 . S
C746 C747 1.363 . S
C746 C751 1.379 1_455 S
C746 N753 1.356 . S
C747 C746 1.363 . S
C747 C750 1.363 . S
N748 C750 1.356 1_556 S
N748 H760 0.984 . S
N748 H761 0.985 . S
N749 C751 1.356 . S
N749 H754 0.984 . S
N749 H755 0.985 . S
C750 C744 1.379 . S
C750 C747 1.363 . S
C750 N748 1.356 1_554 S
C751 C745 1.363 . S
C751 C746 1.379 1_655 S
C751 N749 1.356 . S
N752 C744 1.356 1_656 S
N752 H758 0.984 . S
N752 H759 0.984 . S
N753 C746 1.356 . S
N753 H756 0.984 . S
N753 H757 0.985 . S
H754 N749 0.984 . S
H755 N749 0.985 . S
H756 N753 0.984 . S
H757 N753 0.985 . S
H758 N752 0.984 . S
H759 N752 0.984 . S
H760 N748 0.984 . S
H761 N748 0.985 . S
C762 C763 1.363 1_656 S
C762 C768 1.379 . S
C762 N770 1.356 1_655 S
C763 C762 1.363 1_454 S
C763 C769 1.363 . S
C764 C765 1.363 . S
C764 C769 1.379 1_655 S
C764 N771 1.356 . S
C765 C764 1.363 . S
C765 C768 1.363 1_554 S
N766 C768 1.356 . S
N766 H778 0.984 . S
N766 H779 0.985 . S
N767 C769 1.356 . S
N767 H772 0.984 . S
N767 H773 0.985 . S
C768 C762 1.379 . S
C768 C765 1.363 1_556 S
C768 N766 1.356 . S
C769 C763 1.363 . S
C769 C764 1.379 1_455 S
C769 N767 1.356 . S
N770 C762 1.356 1_455 S
N770 H776 0.984 . S
N770 H777 0.984 . S
N771 C764 1.356 . S
N771 H774 0.984 . S
N771 H775 0.985 . S
H772 N767 0.984 . S
H773 N767 0.985 . S
H774 N771 0.984 . S
H775 N771 0.985 . S
H776 N770 0.984 . S
H777 N770 0.984 . S
H778 N766 0.984 . S
H779 N766 0.985 . S
C780 C781 1.363 . S
C780 C786 1.373 1_455 S
C780 N788 1.356 . S
C781 C780 1.363 . S
C781 C787 1.363 . S
C782 C783 1.363 1_455 S
C782 C787 1.379 . S
C782 N789 1.356 1_455 S
C783 C782 1.363 1_655 S
C783 C786 1.366 . S
N784 C786 1.361 . S
N784 H796 0.984 . S
N784 H797 0.985 . S
N785 C787 1.356 . S
N785 H790 0.984 . S
N785 H791 0.985 . S
C786 C780 1.373 1_655 S
C786 C783 1.366 . S
C786 N784 1.361 . S
C787 C781 1.363 . S
C787 C782 1.379 . S
C787 N785 1.356 . S
N788 C780 1.356 . S
N788 H794 0.984 . S
N788 H795 0.984 . S
N789 C782 1.356 1_655 S
N789 H792 0.984 . S
N789 H793 0.985 . S
H790 N785 0.984 . S
H791 N785 0.985 . S
H792 N789 0.984 . S
H793 N789 0.985 . S
H794 N788 0.984 . S
H795 N788 0.984 . S
H796 N784 0.984 . S
H797 N784 0.985 . S
C798 C799 1.363 . S
C798 C804 1.379 . S
C798 N806 1.356 . S
C799 C798 1.363 . S
C799 C805 1.363 . S
C800 C801 1.363 . S
C800 C805 1.379 1_455 S
C800 N807 1.356 . S
C801 C800 1.363 . S
C801 C804 1.363 1_455 S
N802 C804 1.356 1_455 S
N802 H814 0.984 . S
N802 H815 0.985 . S
N803 C805 1.356 . S
N803 H808 0.984 . S
N803 H809 0.985 . S
C804 C798 1.379 . S
C804 C801 1.363 1_655 S
C804 N802 1.356 1_655 S
C805 C799 1.363 . S
C805 C800 1.379 1_655 S
C805 N803 1.356 . S
N806 C798 1.356 . S
N806 H812 0.984 . S
N806 H813 0.984 . S
N807 C800 1.356 . S
N807 H810 0.984 . S
N807 H811 0.985 . S
H808 N803 0.984 . S
H809 N803 0.985 . S
H810 N807 0.984 . S
H811 N807 0.985 . S
H812 N806 0.984 . S
H813 N806 0.984 . S
H814 N802 0.984 . S
H815 N802 0.985 . S
C816 C817 1.363 . S
C816 C822 1.379 1_455 S
C816 N824 1.356 1_556 S
C817 C816 1.363 . S
C817 C823 1.363 . S
C818 C819 1.363 . S
C818 C823 1.379 1_655 S
C818 N825 1.356 . S
C819 C818 1.363 . S
C819 C822 1.363 . S
N820 C822 1.356 1_554 S
N820 H832 0.984 . S
N820 H833 0.985 . S
N821 C823 1.356 . S
N821 H826 0.984 . S
N821 H827 0.985 . S
C822 C816 1.379 1_655 S
C822 C819 1.363 . S
C822 N820 1.356 1_556 S
C823 C817 1.363 . S
C823 C818 1.379 1_455 S
C823 N821 1.356 . S
N824 C816 1.356 1_554 S
N824 H830 0.984 . S
N824 H831 0.984 1_554 S
N825 C818 1.356 . S
N825 H828 0.984 . S
N825 H829 0.985 . S
H826 N821 0.984 . S
H827 N821 0.985 . S
H828 N825 0.984 . S
H829 N825 0.985 . S
H830 N824 0.984 . S
H831 N824 0.984 1_556 S
H832 N820 0.984 . S
H833 N820 0.985 . S
C834 C835 1.363 . S
C834 C840 1.379 . S
C834 N842 1.356 . S
C835 C834 1.363 . S
C835 C841 1.363 1_455 S
C836 C837 1.363 . S
C836 C841 1.379 . S
C836 N843 1.356 . S
C837 C836 1.363 . S
C837 C840 1.363 1_655 S
N838 C840 1.356 . S
N838 H850 0.984 . S
N838 H851 0.985 1_455 S
N839 C841 1.356 . S
N839 H844 0.984 1_655 S
N839 H845 0.985 . S
C840 C834 1.379 . S
C840 C837 1.363 1_455 S
C840 N838 1.356 . S
C841 C835 1.363 1_655 S
C841 C836 1.379 . S
C841 N839 1.356 . S
N842 C834 1.356 . S
N842 H848 0.984 . S
N842 H849 0.984 . S
N843 C836 1.356 . S
N843 H846 0.984 . S
N843 H847 0.985 . S
H844 N839 0.984 1_455 S
H845 N839 0.985 . S
H846 N843 0.984 . S
H847 N843 0.985 . S
H848 N842 0.984 . S
H849 N842 0.984 . S
H850 N838 0.984 . S
H851 N838 0.985 1_655 S
C852 C853 1.363 . S
C852 C858 1.379 . S
C852 N860 1.356 . S
C853 C852 1.363 . S
C853 C859 1.308 1_565 S
C854 C855 1.363 . S
C854 C859 1.432 . S
C854 N861 1.356 . S
C855 C854 1.363 . S
C855 C858 1.363 1_545 S
N856 C858 1.356 . S
N856 H868 0.984 . S
N856 H869 0.985 1_565 S
N857 C859 1.328 1_564 S
N857 H862 1.048 . S
N857 H863 0.940 1_565 S
C858 C852 1.379 . S
C858 C855 1.363 1_565 S
C858 N856 1.356 . S
C859 C853 1.308 1_545 S
C859 C854 1.432 . S
C859 N857 1.328 1_546 S
N860 C852 1.356 . S
N860 H866 0.984 . S
N860 H867 0.984 . S
N861 C854 1.356 . S
N861 H864 0.984 . S
N861 H865 0.985 1_556 S
H862 N857 1.048 . S
H863 N857 0.940 1_545 S
H864 N861 0.984 . S
H865 N861 0.985 1_554 S
H866 N860 0.984 . S
H867 N860 0.984 . S
H868 N856 0.984 . S
H869 N856 0.985 1_545 S
C870 C871 1.363 1_565 S
C870 C876 1.379 . S
C870 N878 1.356 1_565 S
C871 C870 1.363 1_545 S
C871 C877 1.363 . S
C872 C873 1.363 1_545 S
C872 C877 1.379 . S
C872 N879 1.356 1_545 S
C873 C872 1.363 1_565 S
C873 C876 1.363 . S
N874 C876 1.356 . S
N874 H886 0.984 . S
N874 H887 0.985 . S
N875 C877 1.356 . S
N875 H880 0.984 . S
N875 H881 0.985 . S
C876 C870 1.379 . S
C876 C873 1.363 . S
C876 N874 1.356 . S
C877 C871 1.363 . S
C877 C872 1.379 . S
C877 N875 1.356 . S
N878 C870 1.356 1_545 S
N878 H884 0.984 1_545 S
N878 H885 0.984 . S
N879 C872 1.356 1_565 S
N879 H882 0.984 . S
N879 H883 0.985 1_565 S
H880 N875 0.984 . S
H881 N875 0.985 . S
H882 N879 0.984 . S
H883 N879 0.985 1_545 S
H884 N878 0.984 1_565 S
H885 N878 0.984 . S
H886 N874 0.984 . S
H887 N874 0.985 . S
C888 C889 1.363 . S
C888 C894 1.379 . S
C888 N896 1.356 . S
C889 C888 1.363 . S
C889 C895 1.363 . S
C890 C891 1.363 . S
C890 C895 1.379 . S
C890 N897 1.356 . S
C891 C890 1.363 . S
C891 C894 1.363 . S
N892 C894 1.356 . S
N892 H904 0.984 . S
N892 H905 0.985 . S
N893 C895 1.356 . S
N893 H898 0.984 . S
N893 H899 0.985 1_554 S
C894 C888 1.379 . S
C894 C891 1.363 . S
C894 N892 1.356 . S
C895 C889 1.363 . S
C895 C890 1.379 . S
C895 N893 1.356 . S
N896 C888 1.356 . S
N896 H902 0.984 . S
N896 H903 0.984 . S
N897 C890 1.356 . S
N897 H900 0.984 . S
N897 H901 0.985 . S
H898 N893 0.984 . S
H899 N893 0.985 1_556 S
H900 N897 0.984 . S
H901 N897 0.985 . S
H902 N896 0.984 . S
H903 N896 0.984 . S
H904 N892 0.984 . S
H905 N892 0.985 . S
C906 C907 1.363 . S
C906 C912 1.379 . S
C906 N914 1.356 . S
C907 C906 1.363 . S
C907 C913 1.363 . S
C908 C909 1.363 . S
C908 C913 1.379 . S
C908 N915 1.356 . S
C909 C908 1.363 . S
C909 C912 1.363 . S
N910 C912 1.356 . S
N910 H922 0.984 . S
N910 H923 0.985 . S
N911 C913 1.356 . S
N911 H916 0.984 . S
N911 H917 0.985 1_655 S
C912 C906 1.379 . S
C912 C909 1.363 . S
C912 N910 1.356 . S
C913 C907 1.363 . S
C913 C908 1.379 . S
C913 N911 1.356 . S
N914 C906 1.356 . S
N914 H920 0.984 . S
N914 H921 0.984 . S
N915 C908 1.356 . S
N915 H918 0.984 . S
N915 H919 0.985 . S
H916 N911 0.984 . S
H917 N911 0.985 1_455 S
H918 N915 0.984 . S
H919 N915 0.985 . S
H920 N914 0.984 . S
H921 N914 0.984 . S
H922 N910 0.984 . S
H923 N910 0.985 . S
C924 C925 1.363 . S
C924 C930 1.379 . S
C924 N932 1.356 . S
C925 C924 1.363 . S
C925 C931 1.363 . S
C926 C927 1.363 . S
C926 C931 1.379 . S
C926 N933 1.356 . S
C927 C926 1.363 . S
C927 C930 1.363 . S
N928 C930 1.356 . S
N928 H940 0.984 . S
N928 H941 0.985 . S
N929 C931 1.356 . S
N929 H934 0.984 . S
N929 H935 0.985 . S
C930 C924 1.379 . S
C930 C927 1.363 . S
C930 N928 1.356 . S
C931 C925 1.363 . S
C931 C926 1.379 . S
C931 N929 1.356 . S
N932 C924 1.356 . S
N932 H938 0.984 . S
N932 H939 0.984 . S
N933 C926 1.356 . S
N933 H936 0.984 . S
N933 H937 0.985 . S
H934 N929 0.984 . S
H935 N929 0.985 . S
H936 N933 0.984 . S
H937 N933 0.985 . S
H938 N932 0.984 . S
H939 N932 0.984 . S
H940 N928 0.984 . S
H941 N928 0.985 . S
C942 C943 1.363 . S
C942 C948 1.379 . S
C942 N950 1.356 . S
C943 C942 1.363 . S
C943 C949 1.363 . S
C944 C945 1.363 . S
C944 C949 1.379 . S
C944 N951 1.356 . S
C945 C944 1.363 . S
C945 C948 1.363 . S
N946 C948 1.356 . S
N946 H958 0.984 . S
N946 H959 0.985 . S
N947 C949 1.356 . S
N947 H952 0.984 . S
N947 H953 0.985 . S
C948 C942 1.379 . S
C948 C945 1.363 . S
C948 N946 1.356 . S
C949 C943 1.363 . S
C949 C944 1.379 . S
C949 N947 1.356 . S
N950 C942 1.356 . S
N950 H956 0.984 . S
N950 H957 0.984 . S
N951 C944 1.356 . S
N951 H954 0.984 . S
N951 H955 0.985 . S
H952 N947 0.984 . S
H953 N947 0.985 . S
H954 N951 0.984 . S
H955 N951 0.985 . S
H956 N950 0.984 . S
H957 N950 0.984 . S
H958 N946 0.984 . S
H959 N946 0.985 . S
C960 C961 1.363 . S
C960 C966 1.379 . S
C960 N968 1.356 . S
C961 C960 1.363 . S
C961 C967 1.363 1_455 S
C962 C963 1.363 . S
C962 C967 1.379 . S
C962 N969 1.356 . S
C963 C962 1.363 . S
C963 C966 1.363 1_655 S
N964 C966 1.356 . S
N964 H976 0.984 . S
N964 H977 0.985 1_455 S
N965 C967 1.356 . S
N965 H970 0.984 . S
N965 H971 0.985 . S
C966 C960 1.379 . S
C966 C963 1.363 1_455 S
C966 N964 1.356 . S
C967 C961 1.363 1_655 S
C967 C962 1.379 . S
C967 N965 1.356 . S
N968 C960 1.356 . S
N968 H974 0.984 . S
N968 H975 0.984 . S
N969 C962 1.356 . S
N969 H972 0.984 . S
N969 H973 0.985 . S
H970 N965 0.984 . S
H971 N965 0.985 . S
H972 N969 0.984 . S
H973 N969 0.985 . S
H974 N968 0.984 . S
H975 N968 0.984 . S
H976 N964 0.984 . S
H977 N964 0.985 1_655 S
C978 C979 1.363 . S
C978 C984 1.379 . S
C978 N986 1.356 . S
C979 C978 1.363 . S
C979 C985 1.363 1_655 S
C980 C981 1.363 . S
C980 C985 1.379 . S
C980 N987 1.356 . S
C981 C980 1.363 . S
C981 C984 1.363 1_455 S
N982 C984 1.356 . S
N982 H994 0.984 . S
N982 H995 0.985 1_655 S
N983 C985 1.356 1_655 S
N983 H988 0.984 . S
N983 H989 0.985 1_655 S
C984 C978 1.379 . S
C984 C981 1.363 1_655 S
C984 N982 1.356 . S
C985 C979 1.363 1_455 S
C985 C980 1.379 . S
C985 N983 1.356 1_455 S
N986 C978 1.356 . S
N986 H992 0.984 . S
N986 H993 0.984 . S
N987 C980 1.356 . S
N987 H990 0.984 . S
N987 H991 0.985 . S
H988 N983 0.984 . S
H989 N983 0.985 1_455 S
H990 N987 0.984 . S
H991 N987 0.985 . S
H992 N986 0.984 . S
H993 N986 0.984 . S
H994 N982 0.984 . S
H995 N982 0.985 1_455 S
C996 C997 1.363 . S
C996 C1002 1.379 . S
C996 N1004 1.356 . S
C997 C996 1.363 . S
C997 C1003 1.363 1_655 S
C998 C999 1.363 . S
C998 C1003 1.379 . S
C998 N1005 1.356 . S
C999 C998 1.363 . S
C999 C1002 1.363 1_455 S
N1000 C1002 1.356 . S
N1000 H1012 0.984 . S
N1000 H1013 0.985 . S
N1001 C1003 1.356 . S
N1001 H1006 0.984 . S
N1001 H1007 0.985 . S
C1002 C996 1.379 . S
C1002 C999 1.363 1_655 S
C1002 N1000 1.356 . S
C1003 C997 1.363 1_455 S
C1003 C998 1.379 . S
C1003 N1001 1.356 . S
N1004 C996 1.356 . S
N1004 H1010 0.984 . S
N1004 H1011 0.984 . S
N1005 C998 1.356 . S
N1005 H1008 0.984 . S
N1005 H1009 0.985 . S
H1006 N1001 0.984 . S
H1007 N1001 0.985 . S
H1008 N1005 0.984 . S
H1009 N1005 0.985 . S
H1010 N1004 0.984 . S
H1011 N1004 0.984 . S
H1012 N1000 0.984 . S
H1013 N1000 0.985 . S
C1014 C1015 1.363 . S
C1014 C1020 1.379 . S
C1014 N1022 1.356 . S
C1015 C1014 1.363 . S
C1015 C1021 1.363 1_655 S
C1016 C1017 1.363 . S
C1016 C1021 1.379 . S
C1016 N1023 1.356 . S
C1017 C1016 1.363 . S
C1017 C1020 1.363 1_455 S
N1018 C1020 1.356 . S
N1018 H1030 0.984 . S
N1018 H1031 0.985 . S
N1019 C1021 1.356 . S
N1019 H1024 0.984 . S
N1019 H1025 0.985 . S
C1020 C1014 1.379 . S
C1020 C1017 1.363 1_655 S
C1020 N1018 1.356 . S
C1021 C1015 1.363 1_455 S
C1021 C1016 1.379 . S
C1021 N1019 1.356 . S
N1022 C1014 1.356 . S
N1022 H1028 0.984 . S
N1022 H1029 0.984 . S
N1023 C1016 1.356 . S
N1023 H1026 0.984 . S
N1023 H1027 0.985 . S
H1024 N1019 0.984 . S
H1025 N1019 0.985 . S
H1026 N1023 0.984 . S
H1027 N1023 0.985 . S
H1028 N1022 0.984 . S
H1029 N1022 0.984 . S
H1030 N1018 0.984 . S
H1031 N1018 0.985 . S
C1032 C1033 1.363 . S
C1032 C1038 1.379 . S
C1032 N1040 1.356 . S
C1033 C1032 1.363 . S
C1033 C1039 1.363 . S
C1034 C1035 1.363 . S
C1034 C1039 1.379 . S
C1034 N1041 1.356 . S
C1035 C1034 1.363 . S
C1035 C1038 1.363 . S
N1036 C1038 1.356 . S
N1036 H1048 0.984 . S
N1036 H1049 0.985 . S
N1037 C1039 1.356 . S
N1037 H1042 0.984 . S
N1037 H1043 0.985 . S
C1038 C1032 1.379 . S
C1038 C1035 1.363 . S
C1038 N1036 1.356 . S
C1039 C1033 1.363 . S
C1039 C1034 1.379 . S
C1039 N1037 1.356 . S
N1040 C1032 1.356 . S
N1040 H1046 0.984 . S
N1040 H1047 0.984 . S
N1041 C1034 1.356 . S
N1041 H1044 0.984 . S
N1041 H1045 0.985 . S
H1042 N1037 0.984 . S
H1043 N1037 0.985 . S
H1044 N1041 0.984 . S
H1045 N1041 0.985 . S
H1046 N1040 0.984 . S
H1047 N1040 0.984 . S
H1048 N1036 0.984 . S
H1049 N1036 0.985 . S
C1050 C1051 1.363 . S
C1050 C1056 1.379 . S
C1050 N1058 1.356 . S
C1051 C1050 1.363 . S
C1051 C1057 1.363 . S
C1052 C1053 1.363 . S
C1052 C1057 1.379 . S
C1052 N1059 1.356 . S
C1053 C1052 1.363 . S
C1053 C1056 1.363 . S
N1054 C1056 1.356 . S
N1054 H1066 0.984 . S
N1054 H1067 0.985 . S
N1055 C1057 1.356 . S
N1055 H1060 0.984 . S
N1055 H1061 0.985 . S
C1056 C1050 1.379 . S
C1056 C1053 1.363 . S
C1056 N1054 1.356 . S
C1057 C1051 1.363 . S
C1057 C1052 1.379 . S
C1057 N1055 1.356 . S
N1058 C1050 1.356 . S
N1058 H1064 0.984 . S
N1058 H1065 0.984 . S
N1059 C1052 1.356 . S
N1059 H1062 0.984 . S
N1059 H1063 0.985 . S
H1060 N1055 0.984 . S
H1061 N1055 0.985 . S
H1062 N1059 0.984 . S
H1063 N1059 0.985 . S
H1064 N1058 0.984 . S
H1065 N1058 0.984 . S
H1066 N1054 0.984 . S
H1067 N1054 0.985 . S
C1068 C1069 1.363 . S
C1068 C1074 1.379 . S
C1068 N1076 1.356 . S
C1069 C1068 1.363 . S
C1069 C1075 1.363 . S
C1070 C1071 1.363 . S
C1070 C1075 1.379 . S
C1070 N1077 1.356 . S
C1071 C1070 1.363 . S
C1071 C1074 1.363 . S
N1072 C1074 1.356 . S
N1072 H1084 0.984 . S
N1072 H1085 0.985 . S
N1073 C1075 1.356 . S
N1073 H1078 0.984 . S
N1073 H1079 0.985 . S
C1074 C1068 1.379 . S
C1074 C1071 1.363 . S
C1074 N1072 1.356 . S
C1075 C1069 1.363 . S
C1075 C1070 1.379 . S
C1075 N1073 1.356 . S
N1076 C1068 1.356 . S
N1076 H1082 0.984 . S
N1076 H1083 0.984 . S
N1077 C1070 1.356 . S
N1077 H1080 0.984 . S
N1077 H1081 0.985 . S
H1078 N1073 0.984 . S
H1079 N1073 0.985 . S
H1080 N1077 0.984 . S
H1081 N1077 0.985 . S
H1082 N1076 0.984 . S
H1083 N1076 0.984 . S
H1084 N1072 0.984 . S
H1085 N1072 0.985 . S
C1086 C1087 1.363 . S
C1086 C1092 1.379 . S
C1086 N1094 1.356 . S
C1087 C1086 1.363 . S
C1087 C1093 1.363 . S
C1088 C1089 1.363 . S
C1088 C1093 1.379 . S
C1088 N1095 1.356 . S
C1089 C1088 1.363 . S
C1089 C1092 1.363 . S
N1090 C1092 1.356 . S
N1090 H1102 0.984 . S
N1090 H1103 0.985 . S
N1091 C1093 1.356 . S
N1091 H1096 0.984 . S
N1091 H1097 0.985 . S
C1092 C1086 1.379 . S
C1092 C1089 1.363 . S
C1092 N1090 1.356 . S
C1093 C1087 1.363 . S
C1093 C1088 1.379 . S
C1093 N1091 1.356 . S
N1094 C1086 1.356 . S
N1094 H1100 0.984 . S
N1094 H1101 0.984 . S
N1095 C1088 1.356 . S
N1095 H1098 0.984 . S
N1095 H1099 0.985 . S
H1096 N1091 0.984 . S
H1097 N1091 0.985 . S
H1098 N1095 0.984 . S
H1099 N1095 0.985 . S
H1100 N1094 0.984 . S
H1101 N1094 0.984 . S
H1102 N1090 0.984 . S
H1103 N1090 0.985 . S
C673 C67 1.964 . S
C675 C56 1.964 . S
C691 C140 1.951 . S
C693 C151 1.951 . S
C709 C224 1.946 . S
C711 C235 1.946 . S
C727 C308 1.946 . S
C729 C319 1.946 . S
C745 C403 1.964 . S
C747 C392 1.964 . S
C763 C487 1.951 . S
C765 C476 1.951 . S
C781 C560 1.946 . S
C783 C571 1.946 . S
C799 C655 1.946 . S
C801 C644 1.946 . S
C817 C153 2.120 . S
C819 C69 2.546 1_556 S
C835 C310 2.157 . S
C837 C237 2.157 . S
C853 C405 2.546 1_556 S
C855 C489 2.120 . S
C871 C573 2.157 . S
C873 C646 2.157 . S
C889 C58 1.946 . S
C891 C478 1.524 . S
C907 C394 1.946 . S
C909 C142 1.525 . S
C925 C226 1.511 . S
C927 C657 1.511 . S
C943 C321 1.511 . S
C945 C562 1.511 . S
C961 C63 1.620 . S
C963 C315 1.693 . S
C979 C147 1.496 . S
C981 C231 1.593 . S
C997 C158 1.696 . S
C999 C242 1.785 . S
C1015 C326 1.485 . S
C1017 C74 1.513 . S
C1033 C399 1.619 . S
C1035 C651 1.693 . S
C1051 C483 1.496 . S
C1053 C567 1.594 . S
C1069 C494 1.696 . S
C1071 C578 1.784 . S
C1087 C662 1.485 . S
C1089 C410 1.513 . S
