# Generated by pormake.
# Topology uoz, (4)-cn, num edge types: 1
# Building blocks:
#     Node 0, Type 0, BuildingBlock: KUFVIS_clean_sbu_0, # of connection points: 4
#     Node 1, Type 0, BuildingBlock: KUFVIS_clean_sbu_0, # of connection points: 4
#     Node 2, Type 0, BuildingBlock: KUFVIS_clean_sbu_0, # of connection points: 4
#     Node 3, Type 0, BuildingBlock: KUFVIS_clean_sbu_0, # of connection points: 4
#     Node 4, Type 0, BuildingBlock: KUFVIS_clean_sbu_0, # of connection points: 4
#     Node 5, Type 0, BuildingBlock: KUFVIS_clean_sbu_0, # of connection points: 4
#     Node 6, Type 0, BuildingBlock: KUFVIS_clean_sbu_0, # of connection points: 4
#     Node 7, Type 0, BuildingBlock: KUFVIS_clean_sbu_0, # of connection points: 4
#     Node 8, Type 0, BuildingBlock: KUFVIS_clean_sbu_0, # of connection points: 4
#     Node 9, Type 0, BuildingBlock: KUFVIS_clean_sbu_0, # of connection points: 4
#     Node 10, Type 0, BuildingBlock: KUFVIS_clean_sbu_0, # of connection points: 4
#     Node 11, Type 0, BuildingBlock: KUFVIS_clean_sbu_0, # of connection points: 4
#     Node 12, Type 0, BuildingBlock: KUFVIS_clean_sbu_0, # of connection points: 4
#     Node 13, Type 0, BuildingBlock: KUFVIS_clean_sbu_0, # of connection points: 4
#     Node 14, Type 0, BuildingBlock: KUFVIS_clean_sbu_0, # of connection points: 4
#     Node 15, Type 0, BuildingBlock: KUFVIS_clean_sbu_0, # of connection points: 4
#     Edge 16, Type (0, 0), BuildingBlock: AJUNOK_clean_linker_0, # of connection points: 2
#     Edge 17, Type (0, 0), BuildingBlock: AJUNOK_clean_linker_0, # of connection points: 2
#     Edge 18, Type (0, 0), BuildingBlock: AJUNOK_clean_linker_0, # of connection points: 2
#     Edge 19, Type (0, 0), BuildingBlock: AJUNOK_clean_linker_0, # of connection points: 2
#     Edge 20, Type (0, 0), BuildingBlock: AJUNOK_clean_linker_0, # of connection points: 2
#     Edge 21, Type (0, 0), BuildingBlock: AJUNOK_clean_linker_0, # of connection points: 2
#     Edge 22, Type (0, 0), BuildingBlock: AJUNOK_clean_linker_0, # of connection points: 2
#     Edge 23, Type (0, 0), BuildingBlock: AJUNOK_clean_linker_0, # of connection points: 2
#     Edge 24, Type (0, 0), BuildingBlock: AJUNOK_clean_linker_0, # of connection points: 2
#     Edge 25, Type (0, 0), BuildingBlock: AJUNOK_clean_linker_0, # of connection points: 2
#     Edge 26, Type (0, 0), BuildingBlock: AJUNOK_clean_linker_0, # of connection points: 2
#     Edge 27, Type (0, 0), BuildingBlock: AJUNOK_clean_linker_0, # of connection points: 2
#     Edge 28, Type (0, 0), BuildingBlock: AJUNOK_clean_linker_0, # of connection points: 2
#     Edge 29, Type (0, 0), BuildingBlock: AJUNOK_clean_linker_0, # of connection points: 2
#     Edge 30, Type (0, 0), BuildingBlock: AJUNOK_clean_linker_0, # of connection points: 2
#     Edge 31, Type (0, 0), BuildingBlock: AJUNOK_clean_linker_0, # of connection points: 2
#     Edge 32, Type (0, 0), BuildingBlock: AJUNOK_clean_linker_0, # of connection points: 2
#     Edge 33, Type (0, 0), BuildingBlock: AJUNOK_clean_linker_0, # of connection points: 2
#     Edge 34, Type (0, 0), BuildingBlock: AJUNOK_clean_linker_0, # of connection points: 2
#     Edge 35, Type (0, 0), BuildingBlock: AJUNOK_clean_linker_0, # of connection points: 2
#     Edge 36, Type (0, 0), BuildingBlock: AJUNOK_clean_linker_0, # of connection points: 2
#     Edge 37, Type (0, 0), BuildingBlock: AJUNOK_clean_linker_0, # of connection points: 2
#     Edge 38, Type (0, 0), BuildingBlock: AJUNOK_clean_linker_0, # of connection points: 2
#     Edge 39, Type (0, 0), BuildingBlock: AJUNOK_clean_linker_0, # of connection points: 2
#     Edge 40, Type (0, 0), BuildingBlock: AJUNOK_clean_linker_0, # of connection points: 2
#     Edge 41, Type (0, 0), BuildingBlock: AJUNOK_clean_linker_0, # of connection points: 2
#     Edge 42, Type (0, 0), BuildingBlock: AJUNOK_clean_linker_0, # of connection points: 2
#     Edge 43, Type (0, 0), BuildingBlock: AJUNOK_clean_linker_0, # of connection points: 2
#     Edge 44, Type (0, 0), BuildingBlock: AJUNOK_clean_linker_0, # of connection points: 2
#     Edge 45, Type (0, 0), BuildingBlock: AJUNOK_clean_linker_0, # of connection points: 2
#     Edge 46, Type (0, 0), BuildingBlock: AJUNOK_clean_linker_0, # of connection points: 2
#     Edge 47, Type (0, 0), BuildingBlock: AJUNOK_clean_linker_0, # of connection points: 2
# Relax obj value: 0.146
# Max RMSD: 0.147
# Mean RMSD: 0.147
data_MOF--net-uoz--node1-KUFVIS_clean_sbu_0--edge1-AJUNOK_clean_linker_0
_symmetry_space_group_name_H-M    P1
_symmetry_Int_Tables_number       1
_symmetry_cell_setting            triclinic
loop_
_symmetry_equiv_pos_as_xyz
'x, y, z'
_cell_length_a     45.318077
_cell_length_b     45.310119
_cell_length_c     15.199695
_cell_angle_alpha  90.038578
_cell_angle_beta   89.894841
_cell_angle_gamma 89.984887
loop_
_atom_site_label
_atom_site_type_symbol
_atom_site_fract_x
_atom_site_fract_y
_atom_site_fract_z
_atom_type_partial_charge
Mn0 Mn 0.05928 0.57485 0.33136 0.0
Mn1 Mn 0.06719 0.59152 0.11255 0.0
C2 C 0.04055 0.54506 0.22112 0.0
C3 C 0.07332 0.54703 0.45991 0.0
C4 C 0.02318 0.62175 0.23127 0.0
O5 O 0.09317 0.60614 0.33059 0.0
O6 O 0.09622 0.61233 0.1824 0.0
C7 C 0.1257 0.56457 0.07968 0.0
N8 N 0.09661 0.5673 0.05906 0.0
C9 C 0.1025 0.53702 0.9303 0.0
C10 C 0.13259 0.53397 0.94978 0.0
C11 C 0.14418 0.5476 0.02527 0.0
C12 C 0.08513 0.55389 0.98747 0.0
H13 H 0.13471 0.57533 0.13701 0.0
C14 C 0.1048 0.61748 0.26049 0.0
O15 O 0.05583 0.56972 0.4643 0.0
O16 O 0.08513 0.54264 0.38341 0.0
N17 N 0.03995 0.57226 0.03579 0.0
C18 C 0.01014 0.57563 0.03013 0.0
C19 C 0.99475 0.56172 0.96155 0.0
C20 C 0.01023 0.54503 0.89865 0.0
C21 C 0.04098 0.54231 0.90514 0.0
C22 C 0.05507 0.55644 0.97529 0.0
H23 H -0.00177 0.58877 0.07771 0.0
O24 O 0.02972 0.5434 0.29983 0.0
O25 O 0.06158 0.56377 0.20926 0.0
O26 O 0.02861 0.60756 0.30253 0.0
O27 O 0.03663 0.61751 0.15887 0.0
C28 C 0.05819 0.52603 0.84507 0.0
C29 C 0.08896 0.52357 0.8573 0.0
H30 H 0.14691 0.52096 0.90779 0.0
H31 H 0.16733 0.54522 0.04106 0.0
H32 H 0.97103 0.56396 0.95694 0.0
H33 H -0.00171 0.53434 0.84582 0.0
H34 H 0.04789 0.51514 0.78981 0.0
H35 H 0.10205 0.51109 0.81075 0.0
Mn36 Mn 0.73281 0.74849 0.56954 0.0
Mn37 Mn 0.71612 0.7594 0.35198 0.0
C38 C 0.76213 0.73035 0.4573 0.0
C39 C 0.76058 0.76106 0.69973 0.0
C40 C 0.68569 0.71398 0.46524 0.0
O41 O 0.70162 0.78239 0.57299 0.0
O42 O 0.69588 0.78801 0.42548 0.0
C43 C 0.74469 0.81755 0.32679 0.0
N44 N 0.74098 0.78893 0.3019 0.0
C45 C 0.77178 0.7957 0.17454 0.0
C46 C 0.7758 0.82534 0.19837 0.0
C47 C 0.76238 0.83624 0.27524 0.0
C48 C 0.75414 0.77809 0.22887 0.0
H49 H 0.73419 0.826 0.38542 0.0
C50 C 0.6906 0.79533 0.50474 0.0
O51 O 0.73778 0.74367 0.70209 0.0
O52 O 0.76516 0.7736 0.62446 0.0
N53 N 0.73461 0.73277 0.27137 0.0
C54 C 0.73036 0.70318 0.26157 0.0
C55 C 0.74378 0.6884 0.19076 0.0
C56 C 0.76089 0.7043 0.12992 0.0
C57 C 0.7645 0.73482 0.14065 0.0
C58 C 0.75074 0.74831 0.21265 0.0
H59 H 0.71693 0.69095 0.30759 0.0
O60 O 0.76388 0.71894 0.5352 0.0
O61 O 0.74394 0.75199 0.44753 0.0
O62 O 0.70005 0.71829 0.5369 0.0
O63 O 0.68962 0.7287 0.39497 0.0
C64 C 0.78145 0.75235 0.08324 0.0
C65 C 0.78505 0.78278 0.10002 0.0
H66 H 0.78942 0.83982 0.15873 0.0
H67 H 0.76554 0.85902 0.29442 0.0
H68 H 0.74085 0.66485 0.18293 0.0
H69 H 0.77126 0.69283 0.07546 0.0
H70 H 0.79206 0.74249 0.02672 0.0
H71 H 0.79833 0.79602 0.05588 0.0
Mn72 Mn 0.55762 0.42215 0.80715 0.0
Mn73 Mn 0.55061 0.40393 0.58845 0.0
C74 C 0.57489 0.45198 0.69535 0.0
C75 C 0.54415 0.4503 0.93685 0.0
C76 C 0.59666 0.37703 0.70641 0.0
O77 O 0.52439 0.39028 0.8088 0.0
O78 O 0.52382 0.38103 0.6616 0.0
C79 C 0.48938 0.42279 0.5509 0.0
N80 N 0.51884 0.42465 0.53379 0.0
C81 C 0.50993 0.4525 0.40157 0.0
C82 C 0.47951 0.45094 0.41798 0.0
C83 C 0.46921 0.43613 0.49321 0.0
C84 C 0.52897 0.43882 0.46149 0.0
H85 H 0.48134 0.41095 0.60756 0.0
C86 C 0.51468 0.37666 0.7398 0.0
O87 O 0.56172 0.42766 0.93979 0.0
O88 O 0.53172 0.45446 0.86114 0.0
N89 N 0.57574 0.42502 0.50921 0.0
C90 C 0.60568 0.42372 0.50122 0.0
C91 C 0.61956 0.43815 0.43067 0.0
C92 C 0.60249 0.45322 0.3681 0.0
C93 C 0.57169 0.45371 0.37676 0.0
C94 C 0.55911 0.43923 0.44894 0.0
H95 H 0.61889 0.41201 0.54881 0.0
O96 O 0.58627 0.45387 0.77325 0.0
O97 O 0.55426 0.43274 0.68403 0.0
O98 O 0.58905 0.38969 0.77872 0.0
O99 O 0.58353 0.38147 0.6341 0.0
C100 C 0.55297 0.46783 0.31619 0.0
C101 C 0.52212 0.46718 0.32835 0.0
H102 H 0.46388 0.46118 0.37362 0.0
H103 H 0.44577 0.4348 0.50633 0.0
H104 H 0.64334 0.43755 0.42433 0.0
H105 H 0.61324 0.46425 0.31355 0.0
H106 H 0.56217 0.47905 0.25984 0.0
H107 H 0.50796 0.47807 0.28108 0.0
Mn108 Mn 0.88759 0.24847 0.08084 0.0
Mn109 Mn 0.90678 0.24843 0.86179 0.0
C110 C 0.85792 0.268 0.97205 0.0
C111 C 0.85921 0.23267 0.20735 0.0
C112 C 0.93178 0.29126 0.99179 0.0
O113 O 0.91876 0.21468 0.07437 0.0
O114 O 0.93133 0.22159 0.93071 0.0
C115 C 0.89217 0.18679 0.81287 0.0
N116 N 0.88812 0.21633 0.80152 0.0
C117 C 0.8595 0.20792 0.67043 0.0
C118 C 0.86323 0.17743 0.68132 0.0
C119 C 0.87958 0.16683 0.75304 0.0
C120 C 0.87252 0.22675 0.73239 0.0
H121 H 0.9052 0.17851 0.86641 0.0
C122 C 0.93442 0.20891 1.0051 0.0
O123 O 0.88213 0.2497 0.2138 0.0
O124 O 0.85479 0.22199 0.12925 0.0
N125 N 0.88394 0.27342 0.78645 0.0
C126 C 0.88373 0.30343 0.782 0.0
C127 C 0.86799 0.31756 0.71461 0.0
C128 C 0.85319 0.30066 0.65109 0.0
C129 C 0.85438 0.26978 0.65548 0.0
C130 C 0.87016 0.25696 0.72476 0.0
H131 H 0.89538 0.31645 0.82971 0.0
O132 O 0.85599 0.27798 0.05178 0.0
O133 O 0.87769 0.24821 0.95706 0.0
O134 O 0.92069 0.27971 0.06138 0.0
O135 O 0.92679 0.2821 0.91429 0.0
C136 C 0.84075 0.25126 0.5933 0.0
C137 C 0.84338 0.22036 0.6005 0.0
H138 H 0.85358 0.16198 0.63519 0.0
H139 H 0.88267 0.14333 0.76184 0.0
H140 H 0.86742 0.34141 0.71137 0.0
H141 H 0.84115 0.3116 0.59896 0.0
H142 H 0.82835 0.26064 0.53946 0.0
H143 H 0.83298 0.20634 0.55188 0.0
Mn144 Mn 0.06076 0.42355 0.85662 0.0
Mn145 Mn 0.06916 0.40675 0.07522 0.0
C146 C 0.04165 0.45289 0.96745 0.0
C147 C 0.07415 0.4516 0.72778 0.0
C148 C 0.02534 0.37619 0.95752 0.0
O149 O 0.09527 0.39293 0.8563 0.0
O150 O 0.09831 0.38627 1.00428 0.0
C151 C 0.12738 0.4344 0.10666 0.0
N152 N 0.09838 0.43129 0.12811 0.0
C153 C 0.10411 0.46177 0.25648 0.0
C154 C 0.13411 0.46519 0.23612 0.0
C155 C 0.14574 0.45165 0.16042 0.0
C156 C 0.08687 0.44458 0.19999 0.0
H157 H 0.13637 0.42375 0.04916 0.0
C158 C 0.10694 0.38142 0.92592 0.0
O159 O 0.05702 0.42864 0.72378 0.0
O160 O 0.08597 0.45619 0.80403 0.0
N161 N 0.04184 0.42564 0.15294 0.0
C162 C 0.01209 0.42189 0.15947 0.0
C163 C 0.99665 0.43561 0.22846 0.0
C164 C 0.01203 0.45252 0.29088 0.0
C165 C 0.04272 0.45563 0.2835 0.0
C166 C 0.05687 0.44165 0.21303 0.0
H167 H 0.00025 0.40861 0.11222 0.0
O168 O 0.0307 0.45442 0.88896 0.0
O169 O 0.06305 0.43456 0.97883 0.0
O170 O 0.03065 0.39036 0.88608 0.0
O171 O 0.03881 0.38052 0.02965 0.0
C172 C 0.05982 0.47223 0.3429 0.0
C173 C 0.09052 0.47515 0.32969 0.0
H174 H 0.14833 0.47843 0.27757 0.0
H175 H 0.16882 0.45431 0.14391 0.0
H176 H 0.97297 0.43307 0.23374 0.0
H177 H 5e-05 0.46309 0.34399 0.0
H178 H 0.04947 0.48305 0.39835 0.0
H179 H 0.10349 0.48795 0.37558 0.0
Mn180 Mn 0.88437 0.74611 0.09451 0.0
Mn181 Mn 0.90104 0.75029 0.31396 0.0
C182 C 0.8542 0.72677 0.20319 0.0
C183 C 0.85649 0.76048 0.96638 0.0
C184 C 0.9289 0.70606 0.19278 0.0
O185 O 0.91514 0.78033 0.09799 0.0
O186 O 0.92536 0.77675 0.24379 0.0
C187 C 0.87982 0.81154 0.34131 0.0
N188 N 0.87978 0.78254 0.36477 0.0
C189 C 0.84844 0.79244 0.48925 0.0
C190 C 0.84835 0.82246 0.46688 0.0
C191 C 0.86393 0.832 0.39215 0.0
C192 C 0.86441 0.77305 0.43555 0.0
H193 H 0.89185 0.819 0.28429 0.0
C194 C 0.9296 0.78779 0.16785 0.0
O195 O 0.87959 0.74356 0.96144 0.0
O196 O 0.85177 0.77179 0.0434 0.0
N197 N 0.87872 0.72588 0.39229 0.0
C198 C 0.87967 0.69604 0.40219 0.0
C199 C 0.86416 0.68273 0.47166 0.0
C200 C 0.84835 0.70032 0.53146 0.0
C201 C 0.84824 0.73105 0.52111 0.0
C202 C 0.86401 0.74304 0.45044 0.0
H203 H 0.89212 0.68256 0.35734 0.0
O204 O 0.85303 0.71614 0.12416 0.0
O205 O 0.87313 0.74744 0.21686 0.0
O206 O 0.91777 0.71575 0.12073 0.0
O207 O 0.9232 0.71659 0.26857 0.0
C208 C 0.83289 0.75025 0.57776 0.0
C209 C 0.83291 0.78092 0.56185 0.0
H210 H 0.83616 0.83831 0.50604 0.0
H211 H 0.8638 0.8551 0.37402 0.0
H212 H 0.86449 0.65898 0.47929 0.0
H213 H 0.83634 0.69001 0.58492 0.0
H214 H 0.82073 0.7415 0.633 0.0
H215 H 0.82073 0.79545 0.60534 0.0
Mn216 Mn 0.56058 0.57418 0.33375 0.0
Mn217 Mn 0.561 0.59293 0.55303 0.0
C218 C 0.5798 0.54404 0.44199 0.0
C219 C 0.54474 0.54587 0.20709 0.0
C220 C 0.60346 0.61837 0.42267 0.0
O221 O 0.52679 0.60525 0.34148 0.0
O222 O 0.53404 0.61774 0.48513 0.0
C223 C 0.49948 0.57901 0.60493 0.0
N224 N 0.52901 0.57435 0.61418 0.0
C225 C 0.52096 0.5455 0.74519 0.0
C226 C 0.49047 0.54976 0.73621 0.0
C227 C 0.4797 0.56658 0.66568 0.0
C228 C 0.53961 0.55843 0.68246 0.0
H229 H 0.49107 0.59245 0.55244 0.0
C230 C 0.52114 0.62081 0.41104 0.0
O231 O 0.56162 0.56891 0.20068 0.0
O232 O 0.53412 0.54136 0.28526 0.0
N233 N 0.58611 0.56964 0.62675 0.0
C234 C 0.61614 0.5689 0.6293 0.0
C235 C 0.63043 0.55276 0.69556 0.0
C236 C 0.61369 0.53803 0.75975 0.0
C237 C 0.58281 0.53962 0.75699 0.0
C238 C 0.56981 0.55576 0.68871 0.0
H239 H 0.62904 0.58042 0.58089 0.0
O240 O 0.58997 0.54235 0.36237 0.0
O241 O 0.56036 0.56411 0.45728 0.0
O242 O 0.5918 0.60741 0.35311 0.0
O243 O 0.59456 0.61299 0.50021 0.0
C244 C 0.56446 0.52602 0.8198 0.0
C245 C 0.53356 0.52904 0.81415 0.0
H246 H 0.47516 0.54023 0.78304 0.0
H247 H 0.45621 0.57015 0.65849 0.0
H248 H 0.65428 0.55181 0.69742 0.0
H249 H 0.62475 0.5257 0.81105 0.0
H250 H 0.57395 0.51337 0.87298 0.0
H251 H 0.51968 0.5187 0.86331 0.0
Mn252 Mn 0.7365 0.24839 0.60804 0.0
Mn253 Mn 0.7175 0.24549 0.82711 0.0
C254 C 0.766 0.26732 0.71825 0.0
C255 C 0.76476 0.23319 0.48043 0.0
C256 C 0.69087 0.289 0.70127 0.0
O257 O 0.70516 0.21474 0.61111 0.0
O258 O 0.69442 0.21793 0.75724 0.0
C259 C 0.73521 0.18455 0.87337 0.0
N260 N 0.7378 0.21421 0.88585 0.0
C261 C 0.7663 0.20687 1.01758 0.0
C262 C 0.76407 0.17625 1.00578 0.0
C263 C 0.74851 0.16506 0.9332 0.0
C264 C 0.75259 0.22521 0.95578 0.0
H265 H 0.72283 0.1758 0.81879 0.0
C266 C 0.69075 0.20691 0.68089 0.0
O267 O 0.74204 0.25056 0.47507 0.0
O268 O 0.76913 0.22206 0.55791 0.0
N269 N 0.73899 0.27143 0.90283 0.0
C270 C 0.73789 0.30145 0.90731 0.0
C271 C 0.75284 0.31614 0.97532 0.0
C272 C 0.76818 0.2998 0.03905 0.0
C273 C 0.7684 0.2689 0.03419 0.0
C274 C 0.75342 0.25549 0.96435 0.0
H275 H 0.72585 0.3141 0.85907 0.0
O276 O 0.76808 0.27769 0.63906 0.0
O277 O 0.74647 0.24716 0.73162 0.0
O278 O 0.70357 0.27962 0.63099 0.0
O279 O 0.69547 0.27805 0.77682 0.0
C280 C 0.78271 0.25089 0.09633 0.0
C281 C 0.78155 0.21989 0.08831 0.0
H282 H 0.77428 0.16116 0.05183 0.0
H283 H 0.74661 0.14146 0.92371 0.0
H284 H 0.75241 0.33999 0.97888 0.0
H285 H 0.77958 0.31119 0.09163 0.0
H286 H 0.79448 0.2607 0.15077 0.0
H287 H 0.79241 0.20625 0.1369 0.0
Mn288 Mn 0.3857 0.24436 0.59701 0.0
Mn289 Mn 0.4019 0.25114 0.81633 0.0
C290 C 0.35564 0.2256 0.70681 0.0
C291 C 0.35774 0.25783 0.46774 0.0
C292 C 0.43094 0.20623 0.69992 0.0
O293 O 0.41626 0.27869 0.59758 0.0
O294 O 0.4256 0.27767 0.74434 0.0
C295 C 0.37893 0.31194 0.83924 0.0
N296 N 0.37984 0.28318 0.86495 0.0
C297 C 0.34887 0.29324 0.99011 0.0
C298 C 0.34781 0.32304 0.96547 0.0
C299 C 0.36271 0.33238 0.88926 0.0
C300 C 0.36515 0.27387 0.93719 0.0
H301 H 0.39045 0.31919 0.78104 0.0
C302 C 0.43 0.28762 0.66713 0.0
O303 O 0.38081 0.24081 0.46384 0.0
O304 O 0.35304 0.26955 0.54414 0.0
N305 N 0.38022 0.22673 0.89601 0.0
C306 C 0.38127 0.19688 0.90617 0.0
C307 C 0.36623 0.18369 0.97678 0.0
C308 C 0.35067 0.20138 0.03696 0.0
C309 C 0.35018 0.23207 0.02557 0.0
C310 C 0.36552 0.24395 0.95397 0.0
H311 H 0.39318 0.18327 0.86012 0.0
O312 O 0.35461 0.21437 0.62853 0.0
O313 O 0.37426 0.24668 0.71906 0.0
O314 O 0.41942 0.21459 0.62675 0.0
O315 O 0.42502 0.21774 0.7742 0.0
C316 C 0.3347 0.25131 0.08173 0.0
C317 C 0.33395 0.28187 0.06404 0.0
H318 H 0.33534 0.33887 1.00394 0.0
H319 H 0.36181 0.35529 0.86937 0.0
H320 H 0.36663 0.15997 0.9848 0.0
H321 H 0.33898 0.19115 0.09118 0.0
H322 H 0.32296 0.24265 0.13779 0.0
H323 H 0.32156 0.29639 0.10701 0.0
Mn324 Mn 0.23252 0.74802 0.09683 0.0
Mn325 Mn 0.21425 0.74694 0.31661 0.0
C326 C 0.26297 0.76644 0.2054 0.0
C327 C 0.26068 0.73215 0.9694 0.0
C328 C 0.18815 0.79016 0.18947 0.0
O329 O 0.20075 0.71471 0.10292 0.0
O330 O 0.18987 0.7199 0.24859 0.0
C331 C 0.22905 0.6856 0.36709 0.0
N332 N 0.23333 0.71519 0.37683 0.0
C333 C 0.26166 0.70753 0.50882 0.0
C334 C 0.25776 0.67699 0.49961 0.0
C335 C 0.2414 0.66598 0.42835 0.0
C336 C 0.24876 0.72601 0.4458 0.0
H337 H 0.21602 0.67702 0.31366 0.0
C338 C 0.18595 0.70814 0.17326 0.0
O339 O 0.23805 0.74962 0.96358 0.0
O340 O 0.26481 0.72111 0.0471 0.0
N341 N 0.23716 0.7724 0.39007 0.0
C342 C 0.23778 0.80246 0.39191 0.0
C343 C 0.25371 0.81695 0.4583 0.0
C344 C 0.26834 0.80039 0.52301 0.0
C345 C 0.26694 0.76949 0.52062 0.0
C346 C 0.25104 0.75628 0.45225 0.0
H347 H 0.22641 0.81527 0.34265 0.0
O348 O 0.26473 0.77684 0.12618 0.0
O349 O 0.24285 0.74701 0.22011 0.0
O350 O 0.19986 0.77976 0.11892 0.0
O351 O 0.19341 0.78002 0.26558 0.0
C352 C 0.28053 0.75131 0.58374 0.0
C353 C 0.27776 0.72036 0.57819 0.0
H354 H 0.26726 0.6618 0.54672 0.0
H355 H 0.23817 0.64245 0.42096 0.0
H356 H 0.25461 0.84081 0.45981 0.0
H357 H 0.28052 0.81163 0.57434 0.0
H358 H 0.293 0.76097 0.63705 0.0
H359 H 0.28806 0.7066 0.6276 0.0
Mn360 Mn 0.23366 0.24726 0.07067 0.0
Mn361 Mn 0.21841 0.25742 0.85193 0.0
C362 C 0.26322 0.22824 0.95992 0.0
C363 C 0.26171 0.2594 0.20109 0.0
C364 C 0.18659 0.21265 0.96443 0.0
O365 O 0.20384 0.2824 0.07215 0.0
O366 O 0.19754 0.2859 0.92427 0.0
C367 C 0.24667 0.31578 0.82774 0.0
N368 N 0.24323 0.28715 0.80272 0.0
C369 C 0.27393 0.2943 0.67537 0.0
C370 C 0.27768 0.32396 0.69935 0.0
C371 C 0.26419 0.33467 0.77634 0.0
C372 C 0.25651 0.27647 0.72971 0.0
H373 H 0.2361 0.32406 0.88631 0.0
C374 C 0.19252 0.29433 1.00269 0.0
O375 O 0.23837 0.24273 0.2037 0.0
O376 O 0.26673 0.27147 0.12545 0.0
N377 N 0.2375 0.23094 0.77217 0.0
C378 C 0.23374 0.20127 0.76263 0.0
C379 C 0.24724 0.18667 0.69166 0.0
C380 C 0.264 0.2028 0.6305 0.0
C381 C 0.26724 0.23336 0.64125 0.0
C382 C 0.25342 0.24667 0.71341 0.0
H383 H 0.22073 0.18884 0.80919 0.0
O384 O 0.26402 0.21668 0.03773 0.0
O385 O 0.24552 0.25019 0.94906 0.0
O386 O 0.19963 0.21805 0.03792 0.0
O387 O 0.19223 0.22656 0.89387 0.0
C388 C 0.28387 0.25111 0.58369 0.0
C389 C 0.2872 0.28157 0.6006 0.0
H390 H 0.29112 0.3386 0.65973 0.0
H391 H 0.26711 0.35748 0.79567 0.0
H392 H 0.24466 0.16307 0.68398 0.0
H393 H 0.27443 0.19147 0.57589 0.0
H394 H 0.29442 0.24138 0.52693 0.0
H395 H 0.30027 0.29498 0.55635 0.0
Mn396 Mn 0.38459 0.74433 0.56924 0.0
Mn397 Mn 0.40281 0.73775 0.34988 0.0
C398 C 0.35514 0.76249 0.45788 0.0
C399 C 0.35599 0.73058 0.69803 0.0
C400 C 0.43149 0.78173 0.47159 0.0
O401 O 0.416 0.71053 0.56885 0.0
O402 O 0.4242 0.70915 0.42086 0.0
C403 C 0.38221 0.67789 0.30281 0.0
N404 N 0.3808 0.70765 0.29123 0.0
C405 C 0.35259 0.70177 0.15822 0.0
C406 C 0.35348 0.67107 0.16942 0.0
C407 C 0.36836 0.65909 0.24213 0.0
C408 C 0.36689 0.71939 0.22077 0.0
H409 H 0.39417 0.66861 0.35721 0.0
C410 C 0.42858 0.69994 0.49899 0.0
O411 O 0.3788 0.74789 0.70218 0.0
O412 O 0.35184 0.71861 0.62157 0.0
N413 N 0.38289 0.7648 0.27386 0.0
C414 C 0.3855 0.79474 0.26967 0.0
C415 C 0.37133 0.81021 0.20176 0.0
C416 C 0.35526 0.7947 0.13775 0.0
C417 C 0.3535 0.76385 0.14228 0.0
C418 C 0.36768 0.74967 0.21222 0.0
H419 H 0.39819 0.80673 0.31796 0.0
O420 O 0.35327 0.77357 0.53626 0.0
O421 O 0.3742 0.74174 0.44593 0.0
O422 O 0.41759 0.77531 0.54281 0.0
O423 O 0.42687 0.76895 0.39873 0.0
C424 C 0.33847 0.7466 0.0797 0.0
C425 C 0.33817 0.71558 0.08729 0.0
H426 H 0.34281 0.65651 0.12272 0.0
H427 H 0.36932 0.63541 0.25105 0.0
H428 H 0.37297 0.83401 0.1984 0.0
H429 H 0.3445 0.80669 0.08515 0.0
H430 H 0.32731 0.75702 1.02513 0.0
H431 H 0.32684 0.70251 0.03823 0.0
Mn432 Mn 0.56277 0.07451 0.8323 0.0
Mn433 Mn 0.57016 0.09205 0.61299 0.0
C434 C 0.54422 0.04515 0.7211 0.0
C435 C 0.57572 0.04591 0.96144 0.0
C436 C 0.52654 0.12196 0.73322 0.0
O437 O 0.59713 0.10518 0.83226 0.0
O438 O 0.59852 0.11334 0.68442 0.0
C439 C 0.63007 0.0705 0.57002 0.0
N440 N 0.60038 0.06955 0.55644 0.0
C441 C 0.60679 0.04108 0.42393 0.0
C442 C 0.63741 0.04155 0.43699 0.0
C443 C 0.64909 0.05629 0.51047 0.0
C444 C 0.58894 0.05568 0.48543 0.0
H445 H 0.63919 0.08234 0.62522 0.0
C446 C 0.60774 0.11767 0.76244 0.0
O447 O 0.55896 0.06915 0.96518 0.0
O448 O 0.58768 0.04129 0.88516 0.0
N449 N 0.54336 0.07223 0.53608 0.0
C450 C 0.5135 0.07523 0.53023 0.0
C451 C 0.49831 0.06119 0.46147 0.0
C452 C 0.51405 0.04488 0.39831 0.0
C453 C 0.54484 0.04276 0.40456 0.0
C454 C 0.55872 0.0568 0.47528 0.0
H455 H 0.50137 0.08816 0.57782 0.0
O456 O 0.53292 0.04373 0.79933 0.0
O457 O 0.56536 0.06376 0.70925 0.0
O458 O 0.53265 0.10824 0.80491 0.0
O459 O 0.53904 0.11662 0.66025 0.0
C460 C 0.56232 0.02752 0.34286 0.0
C461 C 0.59328 0.0268 0.35219 0.0
H462 H 0.65214 0.03062 0.39118 0.0
H463 H 0.6727 0.05687 0.52083 0.0
H464 H 0.47457 0.06313 0.45677 0.0
H465 H 0.50231 0.03423 0.345 0.0
H466 H 0.55212 0.01653 0.28766 0.0
H467 H 0.60652 0.01526 0.30383 0.0
Mn468 Mn 0.05675 0.92212 0.31409 0.0
Mn469 Mn 0.04646 0.90642 0.0956 0.0
C470 C 0.07507 0.95189 0.20318 0.0
C471 C 0.04437 0.95008 0.44475 0.0
C472 C 0.09227 0.87588 0.20712 0.0
O473 O 0.02258 0.89117 0.31633 0.0
O474 O 0.01864 0.88498 0.16855 0.0
C475 C 0.98753 0.93373 0.07412 0.0
N476 N 0.01608 0.93068 0.04769 0.0
C477 C 0.00801 0.96174 0.92181 0.0
C478 C 0.97842 0.96506 0.9472 0.0
C479 C 0.96821 0.95119 1.02412 0.0
C480 C 0.02628 0.94434 0.97474 0.0
H481 H 0.97963 0.92292 0.13284 0.0
C482 C 0.01062 0.87967 0.24712 0.0
O483 O 0.06151 0.92707 0.44698 0.0
O484 O 0.03185 0.95463 0.36955 0.0
N485 N 0.07227 0.9259 1.0149 0.0
C486 C 0.10188 0.92226 1.00338 0.0
C487 C 0.11597 0.93605 0.93206 0.0
C488 C 0.09937 0.95288 0.87238 0.0
C489 C 0.06885 0.95581 0.88479 0.0
C490 C 0.05605 0.9417 0.95717 0.0
H491 H 0.11466 0.90901 0.04842 0.0
O492 O 0.08656 0.9531 0.28098 0.0
O493 O 0.05338 0.93383 0.19249 0.0
O494 O 0.08672 0.88899 0.28047 0.0
O495 O 0.07808 0.88093 0.13668 0.0
C496 C 0.05065 0.97244 0.82868 0.0
C497 C 0.02026 0.97545 0.84709 0.0
H498 H 0.96346 0.97847 0.90872 0.0
H499 H 0.94547 0.95382 0.04453 0.0
H500 H 0.13953 0.93361 0.92289 0.0
H501 H 0.1103 0.96354 0.81749 0.0
H502 H 0.06001 0.98326 0.77195 0.0
H503 H 0.00656 0.98863 0.804 0.0
Mn504 Mn 0.55765 0.92235 0.35923 0.0
Mn505 Mn 0.55829 0.90349 0.57818 0.0
C506 C 0.53948 0.9527 0.46858 0.0
C507 C 0.57329 0.95043 0.2317 0.0
C508 C 0.51474 0.87865 0.45133 0.0
O509 O 0.59088 0.89069 0.36427 0.0
O510 O 0.58421 0.87815 0.50809 0.0
C511 C 0.62044 0.91615 0.62532 0.0
N512 N 0.59106 0.92122 0.63731 0.0
C513 C 0.60051 0.94906 0.76939 0.0
C514 C 0.63085 0.94426 0.758 0.0
C515 C 0.64084 0.92779 0.68551 0.0
C516 C 0.58121 0.93687 0.7073 0.0
H517 H 0.62827 0.90305 0.57093 0.0
C518 C 0.59649 0.87481 0.43304 0.0
O519 O 0.55592 0.92772 0.22616 0.0
O520 O 0.58439 0.95471 0.30926 0.0
N521 N 0.53412 0.92713 0.65382 0.0
C522 C 0.50412 0.9288 0.65756 0.0
C523 C 0.49062 0.94508 0.72521 0.0
C524 C 0.50807 0.95898 0.78926 0.0
C525 C 0.53887 0.95647 0.78499 0.0
C526 C 0.5511 0.94024 0.71551 0.0
H527 H 0.49062 0.91803 0.60878 0.0
O528 O 0.52888 0.95453 0.38963 0.0
O529 O 0.55883 0.93244 0.48273 0.0
O530 O 0.52614 0.88952 0.38107 0.0
O531 O 0.52405 0.88418 0.52815 0.0
C532 C 0.5579 0.9693 0.8473 0.0
C533 C 0.58868 0.96551 0.83981 0.0
H534 H 0.64665 0.95321 0.80425 0.0
H535 H 0.66421 0.92391 0.67633 0.0
H536 H 0.46683 0.94682 0.72815 0.0
H537 H 0.4976 0.97145 0.84155 0.0
H538 H 0.549 0.98198 0.90144 0.0
H539 H 0.60307 0.97534 0.88851 0.0
Mn540 Mn 0.05907 0.07418 0.84101 0.0
Mn541 Mn 0.0527 0.09026 0.0609 0.0
C542 C 0.07808 0.04399 0.94998 0.0
C543 C 0.04511 0.0464 0.7117 0.0
C544 C 0.09663 0.12033 0.94177 0.0
O545 O 0.02493 0.1052 0.84375 0.0
O546 O 0.02408 0.11232 0.9919 0.0
C547 C 0.9936 0.0645 0.09284 0.0
N548 N 0.02266 0.06674 0.11408 0.0
C549 C 0.01596 0.0363 0.24206 0.0
C550 C 0.98584 0.03395 0.2222 0.0
C551 C 0.97467 0.04789 0.14671 0.0
C552 C 0.03376 0.05291 0.18543 0.0
H553 H 0.98506 0.07528 0.03522 0.0
C554 C 0.01454 0.11728 0.91455 0.0
O555 O 0.0622 0.06939 0.70774 0.0
O556 O 0.03349 0.04172 0.7883 0.0
N557 N 0.07942 0.0699 0.13692 0.0
C558 C 0.10933 0.07223 0.14226 0.0
C559 C 0.12434 0.05784 0.21071 0.0
C560 C 0.1084 0.04167 0.2737 0.0
C561 C 0.07759 0.03991 0.26735 0.0
C562 C 0.06387 0.05454 0.19748 0.0
H563 H 0.12163 0.0848 0.09434 0.0
O564 O 0.0889 0.04274 0.87117 0.0
O565 O 0.05722 0.06278 0.96299 0.0
O566 O 0.08943 0.10734 0.8697 0.0
O567 O 0.08415 0.11522 1.0152 0.0
C568 C 0.05996 0.024 0.32714 0.0
C569 C 0.02914 0.02231 0.31471 0.0
H570 H 0.97119 0.02117 0.2637 0.0
H571 H 0.95152 0.04596 0.13035 0.0
H572 H 0.14813 0.05928 0.21504 0.0
H573 H 0.12004 0.03057 0.32634 0.0
H574 H 0.06997 0.01273 0.38216 0.0
H575 H 0.01576 0.00994 0.36073 0.0
C576 C 0.17366 0.65516 0.18875 0.0
C577 C 0.16386 0.68438 0.17774 0.0
C578 C 0.15559 0.63374 0.22893 0.0
C579 C 0.12727 0.6408 0.26141 0.0
H580 H 0.19588 0.64911 0.16946 0.0
H581 H 0.16334 0.61113 0.23135 0.0
S582 S 0.09126 0.7141 0.24811 0.0
N583 N 0.12404 0.71922 0.20291 0.0
N584 N 0.09016 0.679 0.27722 0.0
C585 C 0.11743 0.66998 0.25124 0.0
C586 C 0.13555 0.6916 0.20934 0.0
C587 C 0.64997 0.86317 0.4383 0.0
C588 C 0.62065 0.8531 0.4367 0.0
C589 C 0.67271 0.84558 0.47328 0.0
C590 C 0.66697 0.81746 0.50936 0.0
H591 H 0.65518 0.88522 0.41548 0.0
H592 H 0.6952 0.85352 0.46875 0.0
S593 S 0.594 0.78079 0.51924 0.0
N594 N 0.58712 0.81323 0.47411 0.0
N595 N 0.62987 0.78016 0.53825 0.0
C596 C 0.63773 0.80733 0.50848 0.0
C597 C 0.6147 0.82502 0.47221 0.0
C598 C 0.46295 0.36104 0.72031 0.0
C599 C 0.49213 0.3534 0.7425 0.0
C600 C 0.44341 0.34019 0.68391 0.0
C601 C 0.45244 0.31102 0.66675 0.0
H602 H 0.45553 0.38363 0.72788 0.0
H603 H 0.42075 0.34668 0.67202 0.0
S604 S 0.52656 0.27987 0.71155 0.0
N605 N 0.52915 0.31471 0.74278 0.0
N606 N 0.49235 0.27551 0.67649 0.0
C607 C 0.48154 0.30321 0.68852 0.0
C608 C 0.50128 0.32427 0.72608 0.0
C609 C 0.98415 0.191 0.96826 0.0
C610 C 0.95565 0.18431 0.99968 0.0
C611 C 0.00193 0.16957 0.92762 0.0
C612 C 0.99187 0.14052 0.91489 0.0
H613 H 0.9924 0.21341 0.97251 0.0
H614 H 0.02436 0.17541 0.90983 0.0
S615 S 0.91843 0.11179 0.98058 0.0
N616 N 0.91791 0.14662 1.01289 0.0
N617 N 0.95116 0.10641 0.9352 0.0
C618 C 0.96325 0.13364 0.94461 0.0
C619 C 0.94533 0.15536 0.98772 0.0
C620 C 0.12181 0.32997 0.94358 0.0
C621 C 0.1304 0.35909 0.92399 0.0
C622 C 0.14138 0.30989 0.98266 0.0
C623 C 0.17042 0.31802 1.00474 0.0
H624 H 0.09921 0.32307 0.93244 0.0
H625 H 0.13417 0.28728 0.99184 0.0
S626 S 0.20395 0.3916 0.96807 0.0
N627 N 0.16989 0.39513 0.93085 0.0
N628 N 0.20686 0.35721 1.00314 0.0
C629 C 0.17928 0.34706 0.98584 0.0
C630 C 0.15936 0.3675 0.9455 0.0
C631 C 0.95986 0.86279 0.21772 0.0
C632 C 0.98831 0.85614 0.24963 0.0
C633 C 0.94175 0.84095 0.17988 0.0
C634 C 0.9516 0.81167 0.17069 0.0
H635 H 0.95199 0.88537 0.21884 0.0
H636 H 0.91948 0.84678 0.16071 0.0
S637 S 0.02445 0.78282 0.24106 0.0
N638 N 0.02558 0.81821 0.26709 0.0
N639 N 0.99156 0.77718 0.19751 0.0
C640 C 0.98001 0.80483 0.20199 0.0
C641 C -0.00178 0.82691 0.24133 0.0
C642 C 0.48096 0.68778 0.48933 0.0
C643 C 0.45194 0.67746 0.50086 0.0
C644 C 0.50269 0.67025 0.44919 0.0
C645 C 0.49634 0.64175 0.41721 0.0
H646 H 0.48652 0.71026 0.50728 0.0
H647 H 0.52503 0.67872 0.44551 0.0
S648 S 0.42414 0.60381 0.43432 0.0
N649 N 0.41828 0.63646 0.47959 0.0
N650 N 0.45908 0.60362 0.40303 0.0
C651 C 0.46747 0.63111 0.42848 0.0
C652 C 0.44545 0.64879 0.47105 0.0
C653 C 0.67807 0.15424 0.69877 0.0
C654 C 0.66858 0.18329 0.68237 0.0
C655 C 0.65915 0.13334 0.7379 0.0
C656 C 0.63027 0.14088 0.76405 0.0
H657 H 0.70064 0.14795 0.68447 0.0
H658 H 0.66676 0.11078 0.74449 0.0
S659 S 0.59475 0.21393 0.73517 0.0
N660 N 0.62843 0.21845 0.69564 0.0
N661 N 0.59297 0.17925 0.7682 0.0
C662 C 0.62071 0.16989 0.74842 0.0
C663 C 0.6397 0.19092 0.70746 0.0
C664 C 0.00598 0.32756 1.00607 0.0
C665 C 0.00118 0.35456 0.96234 0.0
C666 C 0.9827 0.30792 1.02247 0.0
C667 C 0.95377 0.31498 0.99757 0.0
H668 H 0.028 0.32148 0.02701 0.0
H669 H 0.98755 0.28663 0.05154 0.0
S670 S 0.92897 0.38444 0.89207 0.0
N671 N 0.9651 0.38827 0.90092 0.0
N672 N 0.92115 0.3517 0.93389 0.0
C673 C 0.94852 0.34239 0.9572 0.0
C674 C 0.97227 0.36213 0.93902 0.0
C675 C 0.47723 0.14194 0.77967 0.0
C676 C 0.50298 0.14461 0.72906 0.0
C677 C 0.45331 0.16115 0.76653 0.0
C678 C 0.45415 0.18343 0.70168 0.0
H679 H 0.47526 0.12457 0.82827 0.0
H680 H 0.43403 0.15855 0.80773 0.0
S681 S 0.51752 0.20158 0.55795 0.0
N682 N 0.52871 0.17288 0.61582 0.0
N683 N 0.48342 0.20827 0.59074 0.0
C684 C 0.47983 0.18657 0.65154 0.0
C685 C 0.50434 0.16741 0.66556 0.0
C686 C 0.61899 0.66984 0.394 0.0
C687 C 0.62673 0.6409 0.41729 0.0
C688 C 0.63788 0.69356 0.4127 0.0
C689 C 0.66479 0.68921 0.45723 0.0
H690 H 0.59767 0.67432 0.36474 0.0
H691 H 0.63121 0.71557 0.39321 0.0
S692 S 0.69636 0.61729 0.52402 0.0
N693 N 0.66405 0.60888 0.48048 0.0
N694 N 0.69923 0.65357 0.51746 0.0
C695 C 0.67308 0.66031 0.47875 0.0
C696 C 0.65411 0.63614 0.45829 0.0
C697 C 0.16011 0.83047 0.26452 0.0
C698 C 0.16579 0.81411 0.18702 0.0
C699 C 0.13642 0.85019 0.2707 0.0
C700 C 0.11722 0.85453 0.19966 0.0
H701 H 0.17378 0.82763 0.32225 0.0
H702 H 0.1331 0.86194 0.33201 0.0
S703 S 0.12288 0.81776 0.98031 0.0
N704 N 0.15073 0.80414 0.03703 0.0
N705 N 0.10613 0.8411 0.04714 0.0
C706 C 0.12307 0.83879 0.1206 0.0
C707 C 0.14737 0.81875 0.11454 0.0
C708 C 0.00367 0.6703 0.18261 0.0
C709 C -0.001 0.64341 0.22713 0.0
C710 C 0.98031 0.68979 0.1659 0.0
C711 C 0.95142 0.68273 0.19147 0.0
H712 H 0.02564 0.67633 0.16082 0.0
H713 H 0.98502 0.71088 0.13534 0.0
S714 S 0.927 0.61385 0.30122 0.0
N715 N 0.96311 0.61001 0.29144 0.0
N716 N 0.91903 0.64635 0.25814 0.0
C717 C 0.94632 0.6556 0.23365 0.0
C718 C 0.97016 0.63597 0.25198 0.0
C719 C 0.13331 0.15087 0.0253 0.0
C720 C 0.12056 0.14281 0.9438 0.0
C721 C 0.15465 0.17316 0.03164 0.0
C722 C 0.16412 0.18865 0.95689 0.0
H723 H 0.12666 0.13999 0.08556 0.0
H724 H 0.16354 0.17843 0.09587 0.0
S725 S 0.13794 0.17582 0.72699 0.0
N726 N 0.11935 0.15178 0.78667 0.0
N727 N 0.15906 0.19379 0.79713 0.0
C728 C 0.15171 0.18056 0.87443 0.0
C729 C 0.13014 0.15764 0.86824 0.0
C730 C 0.65919 0.32643 0.77804 0.0
C731 C 0.66871 0.31322 0.69843 0.0
C732 C 0.63637 0.34728 0.78022 0.0
C733 C 0.62192 0.35591 0.70294 0.0
H734 H 0.66911 0.32031 0.84018 0.0
H735 H 0.62972 0.35628 0.84326 0.0
S736 S 0.63959 0.32934 0.47606 0.0
N737 N 0.66277 0.31134 0.54004 0.0
N738 N 0.61998 0.35038 0.54265 0.0
C739 C 0.63186 0.34351 0.62217 0.0
C740 C 0.65521 0.3223 0.62027 0.0
C741 C 0.45051 0.8309 0.52267 0.0
C742 C 0.4533 0.80612 0.46795 0.0
C743 C 0.46938 0.85524 0.51274 0.0
C744 C 0.49155 0.85583 0.44731 0.0
H745 H 0.43347 0.83166 0.57269 0.0
H746 H 0.46691 0.87358 0.55779 0.0
S747 S 0.50943 0.79576 0.29118 0.0
N748 N 0.48112 0.78315 0.34834 0.0
N749 N 0.51601 0.82915 0.32988 0.0
C750 C 0.49455 0.83132 0.39216 0.0
C751 C 0.47566 0.80639 0.40268 0.0
C752 C 0.06463 0.50936 0.12801 0.0
C753 C 0.03804 0.52071 0.15998 0.0
C754 C 0.06488 0.4889 0.06111 0.0
C755 C 0.03858 0.47707 0.02898 0.0
H756 H 0.08565 0.51692 0.15332 0.0
H757 H 0.0861 0.48175 0.03584 0.0
S758 S 0.96281 0.49817 0.09434 0.0
N759 N 0.98443 0.519 0.15626 0.0
N760 N 0.98493 0.47777 0.0325 0.0
C761 C 0.01153 0.48762 0.06094 0.0
C762 C 0.01126 0.50964 0.12794 0.0
C763 C 0.81879 0.75188 0.29513 0.0
C764 C 0.8292 0.72496 0.26241 0.0
C765 C 0.79832 0.75268 0.36208 0.0
C766 C 0.78569 0.72672 0.39391 0.0
H767 H 0.82727 0.77272 0.27086 0.0
H768 H 0.79199 0.77404 0.38817 0.0
S769 S 0.80408 0.65041 0.32685 0.0
N770 N 0.82558 0.67144 0.26504 0.0
N771 N 0.78448 0.67308 0.38923 0.0
C772 C 0.79519 0.6994 0.36104 0.0
C773 C 0.81713 0.69852 0.29376 0.0
C774 C 0.60603 0.5065 0.53291 0.0
C775 C 0.57984 0.51862 0.4997 0.0
C776 C 0.60483 0.48537 0.60023 0.0
C777 C 0.57744 0.47601 0.63327 0.0
H778 H 0.62725 0.51407 0.5091 0.0
H779 H 0.62513 0.47595 0.62515 0.0
S780 S 0.50306 0.50151 0.56739 0.0
N781 N 0.52609 0.51876 0.50102 0.0
N782 N 0.5241 0.48159 0.63276 0.0
C783 C 0.55138 0.4884 0.60104 0.0
C784 C 0.5525 0.50877 0.53154 0.0
C785 C 0.82185 0.29595 0.88035 0.0
C786 C 0.83299 0.2692 0.91276 0.0
C787 C 0.80081 0.29582 0.81278 0.0
C788 C 0.79058 0.26892 0.77864 0.0
H789 H 0.83002 0.31679 0.90533 0.0
H790 H 0.79202 0.31653 0.78885 0.0
S791 S 0.81312 0.19335 0.84306 0.0
N792 N 0.83126 0.21551 0.90982 0.0
N793 N 0.79416 0.21535 0.77794 0.0
C794 C 0.80207 0.24227 0.81005 0.0
C795 C 0.82236 0.24238 0.87971 0.0
C796 C 0.2998 0.2508 0.86664 0.0
C797 C 0.28739 0.2247 0.89844 0.0
C798 C 0.32016 0.25023 0.79947 0.0
C799 C 0.33088 0.22346 0.7668 0.0
H800 H 0.29322 0.27212 0.8925 0.0
H801 H 0.32825 0.27117 0.77476 0.0
S802 S 0.30657 0.14862 0.83119 0.0
N803 N 0.28675 0.17106 0.89368 0.0
N804 N 0.32786 0.16989 0.76946 0.0
C805 C 0.31915 0.19687 0.79832 0.0
C806 C 0.29721 0.19749 0.86567 0.0
C807 C 0.32154 0.79214 0.36295 0.0
C808 C 0.33091 0.76487 0.39662 0.0
C809 C 0.30033 0.79305 0.29594 0.0
C810 C 0.28821 0.76672 0.26357 0.0
H811 H 0.33101 0.81253 0.38709 0.0
H812 H 0.29274 0.81418 0.27155 0.0
S813 S 0.30581 0.6902 0.33186 0.0
N814 N 0.32552 0.71149 0.39712 0.0
N815 N 0.28838 0.71299 0.26537 0.0
C816 C 0.29816 0.73952 0.29576 0.0
C817 C 0.31852 0.73867 0.36517 0.0
C818 C 0.51322 0.99055 0.55887 0.0
C819 C 0.53944 0.97793 0.52717 0.0
C820 C 0.51428 0.01182 0.62588 0.0
C821 C 0.54158 0.02075 0.66028 0.0
H822 H 0.49205 0.98334 0.53387 0.0
H823 H 0.49398 0.02172 0.64935 0.0
S824 S 0.61602 0.99427 0.59751 0.0
N825 N 0.59316 0.9772 0.53041 0.0
N826 N 0.59484 0.01437 0.66229 0.0
C827 C 0.56766 0.00782 0.62963 0.0
C828 C 0.56669 0.98742 0.56017 0.0
C829 C 0.05329 0.00849 0.0419 0.0
C830 C 0.08012 0.01921 1.00972 0.0
C831 C 0.05259 0.98815 0.10898 0.0
C832 C 0.07863 0.9758 0.14114 0.0
H833 H 0.03241 0.01655 1.01682 0.0
H834 H 0.03124 0.98154 0.13449 0.0
S835 S 0.15483 0.99486 0.0748 0.0
N836 N 0.13367 0.01615 1.01292 0.0
N837 N 0.13227 0.97511 0.13702 0.0
C838 C 0.1059 0.9856 0.10875 0.0
C839 C 0.10665 0.00751 0.04153 0.0
C840 C 0.04858 0.48717 0.62409 0.0
C841 C 0.0751 0.47486 0.65618 0.0
C842 C 0.04839 0.51133 0.56483 0.0
C843 C 0.0747 0.52377 0.53144 0.0
H844 H 0.02764 0.47863 0.64724 0.0
H845 H 0.0273 0.51978 0.54275 0.0
S846 S 0.15021 0.49942 0.59173 0.0
N847 N 0.12852 0.47765 0.65042 0.0
N848 N 0.12816 0.52113 0.53428 0.0
C849 C 0.10137 0.51127 0.56143 0.0
C850 C 0.10157 0.48744 0.62476 0.0
C851 C 0.81996 0.7877 0.86571 0.0
C852 C 0.83303 0.76115 0.89529 0.0
C853 C 0.79655 0.78781 0.80321 0.0
C854 C 0.78387 0.76136 0.77136 0.0
H855 H 0.82815 0.80859 0.89021 0.0
H856 H 0.78808 0.8088 0.78043 0.0
S857 S 0.8091 0.68589 0.82981 0.0
N858 N 0.83123 0.70773 0.8864 0.0
N859 N 0.78655 0.70791 0.77536 0.0
C860 C 0.79634 0.73478 0.8022 0.0
C861 C 0.82096 0.73469 0.86218 0.0
C862 C 0.51731 0.50965 0.10459 0.0
C863 C 0.54387 0.52225 0.13589 0.0
C864 C 0.5172 0.48654 0.04062 0.0
C865 C 0.54365 0.47377 1.00856 0.0
H866 H 0.49641 0.51796 0.12878 0.0
H867 H 0.49622 0.47837 1.01693 0.0
S868 S 0.6191 0.49774 0.07147 0.0
N869 N 0.59728 0.51985 0.1284 0.0
N870 N 0.59708 0.47578 1.01495 0.0
C871 C 0.57019 0.48577 0.04117 0.0
C872 C 0.5703 0.51006 0.10266 0.0
C873 C 0.8241 0.25776 0.31382 0.0
C874 C 0.83581 0.23131 0.27899 0.0
C875 C 0.80047 0.25793 0.37509 0.0
C876 C 0.78801 0.23163 0.40837 0.0
H877 H 0.83276 0.27875 0.29147 0.0
H878 H 0.79245 0.27902 0.39877 0.0
S879 S 0.81069 0.15616 0.34108 0.0
N880 N 0.83228 0.17789 0.28187 0.0
N881 N 0.78983 0.17815 0.40185 0.0
C882 C 0.79986 0.20496 0.3756 0.0
C883 C 0.82313 0.20481 0.31002 0.0
C884 C 0.3212 0.2853 0.36781 0.0
C885 C 0.33442 0.25866 0.39608 0.0
C886 C 0.29767 0.28566 0.30568 0.0
C887 C 0.28499 0.25935 0.27287 0.0
H888 H 0.32932 0.3061 0.39319 0.0
H889 H 0.28912 0.30674 0.28392 0.0
S890 S 0.3106 0.18369 0.32738 0.0
N891 N 0.33277 0.20528 0.38469 0.0
N892 N 0.28788 0.20591 0.27433 0.0
C893 C 0.29761 0.23266 0.30229 0.0
C894 C 0.32237 0.23233 0.3619 0.0
C895 C 0.32057 0.75622 0.80316 0.0
C896 C 0.33255 0.72965 0.76988 0.0
C897 C 0.29668 0.75658 0.86373 0.0
C898 C 0.28415 0.7304 0.89777 0.0
H899 H 0.32919 0.77712 0.78005 0.0
H900 H 0.2885 0.77775 0.88623 0.0
S901 S 0.30759 0.65471 0.83504 0.0
N902 N 0.32926 0.67624 0.77544 0.0
N903 N 0.28635 0.67692 0.89389 0.0
C904 C 0.29629 0.70364 0.8666 0.0
C905 C 0.31984 0.70327 0.80184 0.0
C906 C 0.60135 0.98611 0.12891 0.0
C907 C 0.57456 0.97396 0.16029 0.0
C908 C 0.60192 0.00922 0.06505 0.0
C909 C 0.57573 0.02244 0.03312 0.0
H910 H 0.62208 0.97746 0.15305 0.0
H911 H 0.62306 0.01704 0.04136 0.0
S912 S 0.49982 -0.0004 0.09555 0.0
N913 N 0.52121 0.97716 0.15253 0.0
N914 N 0.52227 0.02124 0.03927 0.0
C915 C 0.54895 0.01085 0.06563 0.0
C916 C 0.54837 0.98656 0.12701 0.0
C917 C 0.01793 0.01073 0.60791 0.0
C918 C 0.04452 0.02293 0.64023 0.0
C919 C 0.01777 0.98719 0.54558 0.0
C920 C 0.04412 0.97349 0.5165 0.0
H921 H 0.99705 0.01969 0.63013 0.0
H922 H 0.99678 0.97945 0.52063 0.0
S923 S 0.1196 0.9959 0.5839 0.0
N924 N 0.09789 0.01904 0.63757 0.0
N925 N 0.09752 0.97413 0.5269 0.0
C926 C 0.0707 0.98503 0.5503 0.0
C927 C 0.07092 0.0098 0.61011 0.0
loop_
_geom_bond_atom_site_label_1
_geom_bond_atom_site_label_2
_geom_bond_distance
_geom_bond_site_symmetry_2
_ccdc_geom_bond_type
Mn0 O5 2.095 . S
Mn0 O15 2.162 . S
Mn0 O16 2.297 . S
Mn0 O24 2.385 . S
Mn0 O25 2.209 . S
Mn0 O26 2.094 . S
Mn1 O6 2.121 . S
Mn1 N8 2.257 1_554 S
Mn1 N17 2.282 1_554 S
Mn1 O25 2.215 . S
Mn1 O27 2.117 . S
C2 O24 1.234 . S
C2 O25 1.283 . S
C3 O15 1.281 . S
C3 O16 1.236 . S
C4 O26 1.240 . S
C4 O27 1.264 . S
O5 Mn0 2.095 . S
O5 C14 1.250 . S
O6 Mn1 2.121 . S
O6 C14 1.258 . S
C7 N8 1.326 . S
C7 C11 1.460 . S
C7 H13 0.929 1_556 S
N8 Mn1 2.257 1_556 S
N8 C7 1.326 . S
N8 C12 1.362 . S
C9 C10 1.258 . S
C9 C12 1.431 . S
C9 C29 1.449 . S
C10 C9 1.258 . S
C10 C11 1.477 . S
C10 H30 0.931 . S
C11 C7 1.460 . S
C11 C10 1.477 . S
C11 H31 0.930 . S
C12 N8 1.362 . S
C12 C9 1.431 . S
C12 C22 1.476 . S
H13 C7 0.929 1_554 S
C14 O5 1.250 . S
C14 O6 1.258 . S
O15 Mn0 2.162 . S
O15 C3 1.281 . S
O16 Mn0 2.297 . S
O16 C3 1.236 . S
N17 Mn1 2.282 1_556 S
N17 C18 1.328 . S
N17 C22 1.318 . S
C18 N17 1.328 . S
C18 C19 1.457 . S
C18 H23 0.929 1_556 S
C19 C18 1.457 . S
C19 C20 1.291 . S
C19 H32 0.931 1_455 S
C20 C19 1.291 . S
C20 C21 1.373 . S
C20 H33 0.929 . S
C21 C20 1.373 . S
C21 C22 1.396 . S
C21 C28 1.403 . S
C22 C12 1.476 . S
C22 N17 1.318 . S
C22 C21 1.396 . S
H23 C18 0.929 1_554 S
O24 Mn0 2.385 . S
O24 C2 1.234 . S
O25 Mn0 2.209 . S
O25 Mn1 2.215 . S
O25 C2 1.283 . S
O26 Mn0 2.094 . S
O26 C4 1.240 . S
O27 Mn1 2.117 . S
O27 C4 1.264 . S
C28 C21 1.403 . S
C28 C29 1.399 . S
C28 H34 0.929 . S
C29 C9 1.449 . S
C29 C28 1.399 . S
C29 H35 0.930 . S
H30 C10 0.931 . S
H31 C11 0.930 . S
H32 C19 0.931 1_655 S
H33 C20 0.929 . S
H34 C28 0.929 . S
H35 C29 0.930 . S
Mn36 O41 2.095 . S
Mn36 O51 2.162 . S
Mn36 O52 2.297 . S
Mn36 O60 2.385 . S
Mn36 O61 2.209 . S
Mn36 O62 2.094 . S
Mn37 O42 2.121 . S
Mn37 N44 2.257 . S
Mn37 N53 2.282 . S
Mn37 O61 2.215 . S
Mn37 O63 2.117 . S
C38 O60 1.234 . S
C38 O61 1.283 . S
C39 O51 1.281 . S
C39 O52 1.236 . S
C40 O62 1.240 . S
C40 O63 1.264 . S
O41 Mn36 2.095 . S
O41 C50 1.250 . S
O42 Mn37 2.121 . S
O42 C50 1.258 . S
C43 N44 1.326 . S
C43 C47 1.460 . S
C43 H49 0.929 . S
N44 Mn37 2.257 . S
N44 C43 1.326 . S
N44 C48 1.362 . S
C45 C46 1.258 . S
C45 C48 1.431 . S
C45 C65 1.449 . S
C46 C45 1.258 . S
C46 C47 1.477 . S
C46 H66 0.931 . S
C47 C43 1.460 . S
C47 C46 1.477 . S
C47 H67 0.930 . S
C48 N44 1.362 . S
C48 C45 1.431 . S
C48 C58 1.476 . S
H49 C43 0.929 . S
C50 O41 1.250 . S
C50 O42 1.258 . S
O51 Mn36 2.162 . S
O51 C39 1.281 . S
O52 Mn36 2.297 . S
O52 C39 1.236 . S
N53 Mn37 2.282 . S
N53 C54 1.328 . S
N53 C58 1.318 . S
C54 N53 1.328 . S
C54 C55 1.457 . S
C54 H59 0.929 . S
C55 C54 1.457 . S
C55 C56 1.291 . S
C55 H68 0.931 . S
C56 C55 1.291 . S
C56 C57 1.373 . S
C56 H69 0.929 . S
C57 C56 1.373 . S
C57 C58 1.396 . S
C57 C64 1.403 . S
C58 C48 1.476 . S
C58 N53 1.318 . S
C58 C57 1.396 . S
H59 C54 0.929 . S
O60 Mn36 2.385 . S
O60 C38 1.234 . S
O61 Mn36 2.209 . S
O61 Mn37 2.215 . S
O61 C38 1.283 . S
O62 Mn36 2.094 . S
O62 C40 1.240 . S
O63 Mn37 2.117 . S
O63 C40 1.264 . S
C64 C57 1.403 . S
C64 C65 1.399 . S
C64 H70 0.929 1_554 S
C65 C45 1.449 . S
C65 C64 1.399 . S
C65 H71 0.930 1_554 S
H66 C46 0.931 . S
H67 C47 0.930 . S
H68 C55 0.931 . S
H69 C56 0.929 . S
H70 C64 0.929 1_556 S
H71 C65 0.930 1_556 S
Mn72 O77 2.095 . S
Mn72 O87 2.162 . S
Mn72 O88 2.297 . S
Mn72 O96 2.385 . S
Mn72 O97 2.209 . S
Mn72 O98 2.094 . S
Mn73 O78 2.121 . S
Mn73 N80 2.257 . S
Mn73 N89 2.282 . S
Mn73 O97 2.215 . S
Mn73 O99 2.117 . S
C74 O96 1.234 . S
C74 O97 1.283 . S
C75 O87 1.281 . S
C75 O88 1.236 . S
C76 O98 1.240 . S
C76 O99 1.264 . S
O77 Mn72 2.095 . S
O77 C86 1.250 . S
O78 Mn73 2.121 . S
O78 C86 1.258 . S
C79 N80 1.326 . S
C79 C83 1.460 . S
C79 H85 0.929 . S
N80 Mn73 2.257 . S
N80 C79 1.326 . S
N80 C84 1.362 . S
C81 C82 1.258 . S
C81 C84 1.431 . S
C81 C101 1.449 . S
C82 C81 1.258 . S
C82 C83 1.477 . S
C82 H102 0.931 . S
C83 C79 1.460 . S
C83 C82 1.477 . S
C83 H103 0.930 . S
C84 N80 1.362 . S
C84 C81 1.431 . S
C84 C94 1.476 . S
H85 C79 0.929 . S
C86 O77 1.250 . S
C86 O78 1.258 . S
O87 Mn72 2.162 . S
O87 C75 1.281 . S
O88 Mn72 2.297 . S
O88 C75 1.236 . S
N89 Mn73 2.282 . S
N89 C90 1.328 . S
N89 C94 1.318 . S
C90 N89 1.328 . S
C90 C91 1.457 . S
C90 H95 0.929 . S
C91 C90 1.457 . S
C91 C92 1.291 . S
C91 H104 0.931 . S
C92 C91 1.291 . S
C92 C93 1.373 . S
C92 H105 0.929 . S
C93 C92 1.373 . S
C93 C94 1.396 . S
C93 C100 1.403 . S
C94 C84 1.476 . S
C94 N89 1.318 . S
C94 C93 1.396 . S
H95 C90 0.929 . S
O96 Mn72 2.385 . S
O96 C74 1.234 . S
O97 Mn72 2.209 . S
O97 Mn73 2.215 . S
O97 C74 1.283 . S
O98 Mn72 2.094 . S
O98 C76 1.240 . S
O99 Mn73 2.117 . S
O99 C76 1.264 . S
C100 C93 1.403 . S
C100 C101 1.399 . S
C100 H106 0.929 . S
C101 C81 1.449 . S
C101 C100 1.399 . S
C101 H107 0.930 . S
H102 C82 0.931 . S
H103 C83 0.930 . S
H104 C91 0.931 . S
H105 C92 0.929 . S
H106 C100 0.929 . S
H107 C101 0.930 . S
Mn108 O113 2.095 . S
Mn108 O123 2.162 . S
Mn108 O124 2.297 . S
Mn108 O132 2.385 1_554 S
Mn108 O133 2.209 1_554 S
Mn108 O134 2.094 . S
Mn109 O114 2.121 . S
Mn109 N116 2.257 . S
Mn109 N125 2.282 . S
Mn109 O133 2.215 . S
Mn109 O135 2.117 . S
C110 O132 1.234 . S
C110 O133 1.283 . S
C111 O123 1.281 . S
C111 O124 1.236 . S
C112 O134 1.240 1_556 S
C112 O135 1.264 . S
O113 Mn108 2.095 . S
O113 C122 1.250 1_554 S
O114 Mn109 2.121 . S
O114 C122 1.258 . S
C115 N116 1.326 . S
C115 C119 1.460 . S
C115 H121 0.929 . S
N116 Mn109 2.257 . S
N116 C115 1.326 . S
N116 C120 1.362 . S
C117 C118 1.258 . S
C117 C120 1.431 . S
C117 C137 1.449 . S
C118 C117 1.258 . S
C118 C119 1.477 . S
C118 H138 0.931 . S
C119 C115 1.460 . S
C119 C118 1.477 . S
C119 H139 0.930 . S
C120 N116 1.362 . S
C120 C117 1.431 . S
C120 C130 1.476 . S
H121 C115 0.929 . S
C122 O113 1.250 1_556 S
C122 O114 1.258 . S
O123 Mn108 2.162 . S
O123 C111 1.281 . S
O124 Mn108 2.297 . S
O124 C111 1.236 . S
N125 Mn109 2.282 . S
N125 C126 1.328 . S
N125 C130 1.318 . S
C126 N125 1.328 . S
C126 C127 1.457 . S
C126 H131 0.929 . S
C127 C126 1.457 . S
C127 C128 1.291 . S
C127 H140 0.931 . S
C128 C127 1.291 . S
C128 C129 1.373 . S
C128 H141 0.929 . S
C129 C128 1.373 . S
C129 C130 1.396 . S
C129 C136 1.403 . S
C130 C120 1.476 . S
C130 N125 1.318 . S
C130 C129 1.396 . S
H131 C126 0.929 . S
O132 Mn108 2.385 1_556 S
O132 C110 1.234 . S
O133 Mn108 2.209 1_556 S
O133 Mn109 2.215 . S
O133 C110 1.283 . S
O134 Mn108 2.094 . S
O134 C112 1.240 1_554 S
O135 Mn109 2.117 . S
O135 C112 1.264 . S
C136 C129 1.403 . S
C136 C137 1.399 . S
C136 H142 0.929 . S
C137 C117 1.449 . S
C137 C136 1.399 . S
C137 H143 0.930 . S
H138 C118 0.931 . S
H139 C119 0.930 . S
H140 C127 0.931 . S
H141 C128 0.929 . S
H142 C136 0.929 . S
H143 C137 0.930 . S
Mn144 O149 2.095 . S
Mn144 O159 2.162 . S
Mn144 O160 2.297 . S
Mn144 O168 2.385 . S
Mn144 O169 2.209 . S
Mn144 O170 2.094 . S
Mn145 O150 2.121 1_554 S
Mn145 N152 2.257 . S
Mn145 N161 2.282 . S
Mn145 O169 2.215 1_554 S
Mn145 O171 2.117 1_554 S
C146 O168 1.234 . S
C146 O169 1.283 . S
C147 O159 1.281 . S
C147 O160 1.236 . S
C148 O170 1.240 . S
C148 O171 1.264 . S
O149 Mn144 2.095 . S
O149 C158 1.250 . S
O150 Mn145 2.121 1_556 S
O150 C158 1.258 . S
C151 N152 1.326 . S
C151 C155 1.460 . S
C151 H157 0.929 . S
N152 Mn145 2.257 . S
N152 C151 1.326 . S
N152 C156 1.362 . S
C153 C154 1.258 . S
C153 C156 1.431 . S
C153 C173 1.449 . S
C154 C153 1.258 . S
C154 C155 1.477 . S
C154 H174 0.931 . S
C155 C151 1.460 . S
C155 C154 1.477 . S
C155 H175 0.930 . S
C156 N152 1.362 . S
C156 C153 1.431 . S
C156 C166 1.476 . S
H157 C151 0.929 . S
C158 O149 1.250 . S
C158 O150 1.258 . S
O159 Mn144 2.162 . S
O159 C147 1.281 . S
O160 Mn144 2.297 . S
O160 C147 1.236 . S
N161 Mn145 2.282 . S
N161 C162 1.328 . S
N161 C166 1.318 . S
C162 N161 1.328 . S
C162 C163 1.457 . S
C162 H167 0.929 . S
C163 C162 1.457 . S
C163 C164 1.291 . S
C163 H176 0.931 1_455 S
C164 C163 1.291 . S
C164 C165 1.373 . S
C164 H177 0.929 . S
C165 C164 1.373 . S
C165 C166 1.396 . S
C165 C172 1.403 . S
C166 C156 1.476 . S
C166 N161 1.318 . S
C166 C165 1.396 . S
H167 C162 0.929 . S
O168 Mn144 2.385 . S
O168 C146 1.234 . S
O169 Mn144 2.209 . S
O169 Mn145 2.215 1_556 S
O169 C146 1.283 . S
O170 Mn144 2.094 . S
O170 C148 1.240 . S
O171 Mn145 2.117 1_556 S
O171 C148 1.264 . S
C172 C165 1.403 . S
C172 C173 1.399 . S
C172 H178 0.929 . S
C173 C153 1.449 . S
C173 C172 1.399 . S
C173 H179 0.930 . S
H174 C154 0.931 . S
H175 C155 0.930 . S
H176 C163 0.931 1_655 S
H177 C164 0.929 . S
H178 C172 0.929 . S
H179 C173 0.930 . S
Mn180 O185 2.095 . S
Mn180 O195 2.162 1_554 S
Mn180 O196 2.297 . S
Mn180 O204 2.385 . S
Mn180 O205 2.209 . S
Mn180 O206 2.094 . S
Mn181 O186 2.121 . S
Mn181 N188 2.257 . S
Mn181 N197 2.282 . S
Mn181 O205 2.215 . S
Mn181 O207 2.117 . S
C182 O204 1.234 . S
C182 O205 1.283 . S
C183 O195 1.281 . S
C183 O196 1.236 1_556 S
C184 O206 1.240 . S
C184 O207 1.264 . S
O185 Mn180 2.095 . S
O185 C194 1.250 . S
O186 Mn181 2.121 . S
O186 C194 1.258 . S
C187 N188 1.326 . S
C187 C191 1.460 . S
C187 H193 0.929 . S
N188 Mn181 2.257 . S
N188 C187 1.326 . S
N188 C192 1.362 . S
C189 C190 1.258 . S
C189 C192 1.431 . S
C189 C209 1.449 . S
C190 C189 1.258 . S
C190 C191 1.477 . S
C190 H210 0.931 . S
C191 C187 1.460 . S
C191 C190 1.477 . S
C191 H211 0.930 . S
C192 N188 1.362 . S
C192 C189 1.431 . S
C192 C202 1.476 . S
H193 C187 0.929 . S
C194 O185 1.250 . S
C194 O186 1.258 . S
O195 Mn180 2.162 1_556 S
O195 C183 1.281 . S
O196 Mn180 2.297 . S
O196 C183 1.236 1_554 S
N197 Mn181 2.282 . S
N197 C198 1.328 . S
N197 C202 1.318 . S
C198 N197 1.328 . S
C198 C199 1.457 . S
C198 H203 0.929 . S
C199 C198 1.457 . S
C199 C200 1.291 . S
C199 H212 0.931 . S
C200 C199 1.291 . S
C200 C201 1.373 . S
C200 H213 0.929 . S
C201 C200 1.373 . S
C201 C202 1.396 . S
C201 C208 1.403 . S
C202 C192 1.476 . S
C202 N197 1.318 . S
C202 C201 1.396 . S
H203 C198 0.929 . S
O204 Mn180 2.385 . S
O204 C182 1.234 . S
O205 Mn180 2.209 . S
O205 Mn181 2.215 . S
O205 C182 1.283 . S
O206 Mn180 2.094 . S
O206 C184 1.240 . S
O207 Mn181 2.117 . S
O207 C184 1.264 . S
C208 C201 1.403 . S
C208 C209 1.399 . S
C208 H214 0.929 . S
C209 C189 1.449 . S
C209 C208 1.399 . S
C209 H215 0.930 . S
H210 C190 0.931 . S
H211 C191 0.930 . S
H212 C199 0.931 . S
H213 C200 0.929 . S
H214 C208 0.929 . S
H215 C209 0.930 . S
Mn216 O221 2.095 . S
Mn216 O231 2.162 . S
Mn216 O232 2.297 . S
Mn216 O240 2.385 . S
Mn216 O241 2.209 . S
Mn216 O242 2.094 . S
Mn217 O222 2.121 . S
Mn217 N224 2.257 . S
Mn217 N233 2.282 . S
Mn217 O241 2.215 . S
Mn217 O243 2.117 . S
C218 O240 1.234 . S
C218 O241 1.283 . S
C219 O231 1.281 . S
C219 O232 1.236 . S
C220 O242 1.240 . S
C220 O243 1.264 . S
O221 Mn216 2.095 . S
O221 C230 1.250 . S
O222 Mn217 2.121 . S
O222 C230 1.258 . S
C223 N224 1.326 . S
C223 C227 1.460 . S
C223 H229 0.929 . S
N224 Mn217 2.257 . S
N224 C223 1.326 . S
N224 C228 1.362 . S
C225 C226 1.258 . S
C225 C228 1.431 . S
C225 C245 1.449 . S
C226 C225 1.258 . S
C226 C227 1.477 . S
C226 H246 0.931 . S
C227 C223 1.460 . S
C227 C226 1.477 . S
C227 H247 0.930 . S
C228 N224 1.362 . S
C228 C225 1.431 . S
C228 C238 1.476 . S
H229 C223 0.929 . S
C230 O221 1.250 . S
C230 O222 1.258 . S
O231 Mn216 2.162 . S
O231 C219 1.281 . S
O232 Mn216 2.297 . S
O232 C219 1.236 . S
N233 Mn217 2.282 . S
N233 C234 1.328 . S
N233 C238 1.318 . S
C234 N233 1.328 . S
C234 C235 1.457 . S
C234 H239 0.929 . S
C235 C234 1.457 . S
C235 C236 1.291 . S
C235 H248 0.931 . S
C236 C235 1.291 . S
C236 C237 1.373 . S
C236 H249 0.929 . S
C237 C236 1.373 . S
C237 C238 1.396 . S
C237 C244 1.403 . S
C238 C228 1.476 . S
C238 N233 1.318 . S
C238 C237 1.396 . S
H239 C234 0.929 . S
O240 Mn216 2.385 . S
O240 C218 1.234 . S
O241 Mn216 2.209 . S
O241 Mn217 2.215 . S
O241 C218 1.283 . S
O242 Mn216 2.094 . S
O242 C220 1.240 . S
O243 Mn217 2.117 . S
O243 C220 1.264 . S
C244 C237 1.403 . S
C244 C245 1.399 . S
C244 H250 0.929 . S
C245 C225 1.449 . S
C245 C244 1.399 . S
C245 H251 0.930 . S
H246 C226 0.931 . S
H247 C227 0.930 . S
H248 C235 0.931 . S
H249 C236 0.929 . S
H250 C244 0.929 . S
H251 C245 0.930 . S
Mn252 O257 2.095 . S
Mn252 O267 2.162 . S
Mn252 O268 2.297 . S
Mn252 O276 2.385 . S
Mn252 O277 2.209 . S
Mn252 O278 2.094 . S
Mn253 O258 2.121 . S
Mn253 N260 2.257 . S
Mn253 N269 2.282 . S
Mn253 O277 2.215 . S
Mn253 O279 2.117 . S
C254 O276 1.234 . S
C254 O277 1.283 . S
C255 O267 1.281 . S
C255 O268 1.236 . S
C256 O278 1.240 . S
C256 O279 1.264 . S
O257 Mn252 2.095 . S
O257 C266 1.250 . S
O258 Mn253 2.121 . S
O258 C266 1.258 . S
C259 N260 1.326 . S
C259 C263 1.460 . S
C259 H265 0.929 . S
N260 Mn253 2.257 . S
N260 C259 1.326 . S
N260 C264 1.362 . S
C261 C262 1.258 . S
C261 C264 1.431 1_554 S
C261 C281 1.449 . S
C262 C261 1.258 . S
C262 C263 1.477 1_554 S
C262 H282 0.931 . S
C263 C259 1.460 . S
C263 C262 1.477 1_556 S
C263 H283 0.930 . S
C264 N260 1.362 . S
C264 C261 1.431 1_556 S
C264 C274 1.476 . S
H265 C259 0.929 . S
C266 O257 1.250 . S
C266 O258 1.258 . S
O267 Mn252 2.162 . S
O267 C255 1.281 . S
O268 Mn252 2.297 . S
O268 C255 1.236 . S
N269 Mn253 2.282 . S
N269 C270 1.328 . S
N269 C274 1.318 . S
C270 N269 1.328 . S
C270 C271 1.457 . S
C270 H275 0.929 . S
C271 C270 1.457 . S
C271 C272 1.291 1_556 S
C271 H284 0.931 . S
C272 C271 1.291 1_554 S
C272 C273 1.373 . S
C272 H285 0.929 . S
C273 C272 1.373 . S
C273 C274 1.396 1_554 S
C273 C280 1.403 . S
C274 C264 1.476 . S
C274 N269 1.318 . S
C274 C273 1.396 1_556 S
H275 C270 0.929 . S
O276 Mn252 2.385 . S
O276 C254 1.234 . S
O277 Mn252 2.209 . S
O277 Mn253 2.215 . S
O277 C254 1.283 . S
O278 Mn252 2.094 . S
O278 C256 1.240 . S
O279 Mn253 2.117 . S
O279 C256 1.264 . S
C280 C273 1.403 . S
C280 C281 1.399 . S
C280 H286 0.929 . S
C281 C261 1.449 . S
C281 C280 1.399 . S
C281 H287 0.930 . S
H282 C262 0.931 . S
H283 C263 0.930 . S
H284 C271 0.931 . S
H285 C272 0.929 . S
H286 C280 0.929 . S
H287 C281 0.930 . S
Mn288 O293 2.095 . S
Mn288 O303 2.162 . S
Mn288 O304 2.297 . S
Mn288 O312 2.385 . S
Mn288 O313 2.209 . S
Mn288 O314 2.094 . S
Mn289 O294 2.121 . S
Mn289 N296 2.257 . S
Mn289 N305 2.282 . S
Mn289 O313 2.215 . S
Mn289 O315 2.117 . S
C290 O312 1.234 . S
C290 O313 1.283 . S
C291 O303 1.281 . S
C291 O304 1.236 . S
C292 O314 1.240 . S
C292 O315 1.264 . S
O293 Mn288 2.095 . S
O293 C302 1.250 . S
O294 Mn289 2.121 . S
O294 C302 1.258 . S
C295 N296 1.326 . S
C295 C299 1.460 . S
C295 H301 0.929 . S
N296 Mn289 2.257 . S
N296 C295 1.326 . S
N296 C300 1.362 . S
C297 C298 1.258 . S
C297 C300 1.431 1_554 S
C297 C317 1.449 . S
C298 C297 1.258 . S
C298 C299 1.477 1_554 S
C298 H318 0.931 . S
C299 C295 1.460 . S
C299 C298 1.477 1_556 S
C299 H319 0.930 . S
C300 N296 1.362 . S
C300 C297 1.431 1_556 S
C300 C310 1.476 . S
H301 C295 0.929 . S
C302 O293 1.250 . S
C302 O294 1.258 . S
O303 Mn288 2.162 . S
O303 C291 1.281 . S
O304 Mn288 2.297 . S
O304 C291 1.236 . S
N305 Mn289 2.282 . S
N305 C306 1.328 . S
N305 C310 1.318 . S
C306 N305 1.328 . S
C306 C307 1.457 . S
C306 H311 0.929 . S
C307 C306 1.457 . S
C307 C308 1.291 1_556 S
C307 H320 0.931 . S
C308 C307 1.291 1_554 S
C308 C309 1.373 . S
C308 H321 0.929 . S
C309 C308 1.373 . S
C309 C310 1.396 1_554 S
C309 C316 1.403 . S
C310 C300 1.476 . S
C310 N305 1.318 . S
C310 C309 1.396 1_556 S
H311 C306 0.929 . S
O312 Mn288 2.385 . S
O312 C290 1.234 . S
O313 Mn288 2.209 . S
O313 Mn289 2.215 . S
O313 C290 1.283 . S
O314 Mn288 2.094 . S
O314 C292 1.240 . S
O315 Mn289 2.117 . S
O315 C292 1.264 . S
C316 C309 1.403 . S
C316 C317 1.399 . S
C316 H322 0.929 . S
C317 C297 1.449 . S
C317 C316 1.399 . S
C317 H323 0.930 . S
H318 C298 0.931 . S
H319 C299 0.930 . S
H320 C307 0.931 . S
H321 C308 0.929 . S
H322 C316 0.929 . S
H323 C317 0.930 . S
Mn324 O329 2.095 . S
Mn324 O339 2.162 1_554 S
Mn324 O340 2.297 . S
Mn324 O348 2.385 . S
Mn324 O349 2.209 . S
Mn324 O350 2.094 . S
Mn325 O330 2.121 . S
Mn325 N332 2.257 . S
Mn325 N341 2.282 . S
Mn325 O349 2.215 . S
Mn325 O351 2.117 . S
C326 O348 1.234 . S
C326 O349 1.283 . S
C327 O339 1.281 . S
C327 O340 1.236 1_556 S
C328 O350 1.240 . S
C328 O351 1.264 . S
O329 Mn324 2.095 . S
O329 C338 1.250 . S
O330 Mn325 2.121 . S
O330 C338 1.258 . S
C331 N332 1.326 . S
C331 C335 1.460 . S
C331 H337 0.929 . S
N332 Mn325 2.257 . S
N332 C331 1.326 . S
N332 C336 1.362 . S
C333 C334 1.258 . S
C333 C336 1.431 . S
C333 C353 1.449 . S
C334 C333 1.258 . S
C334 C335 1.477 . S
C334 H354 0.931 . S
C335 C331 1.460 . S
C335 C334 1.477 . S
C335 H355 0.930 . S
C336 N332 1.362 . S
C336 C333 1.431 . S
C336 C346 1.476 . S
H337 C331 0.929 . S
C338 O329 1.250 . S
C338 O330 1.258 . S
O339 Mn324 2.162 1_556 S
O339 C327 1.281 . S
O340 Mn324 2.297 . S
O340 C327 1.236 1_554 S
N341 Mn325 2.282 . S
N341 C342 1.328 . S
N341 C346 1.318 . S
C342 N341 1.328 . S
C342 C343 1.457 . S
C342 H347 0.929 . S
C343 C342 1.457 . S
C343 C344 1.291 . S
C343 H356 0.931 . S
C344 C343 1.291 . S
C344 C345 1.373 . S
C344 H357 0.929 . S
C345 C344 1.373 . S
C345 C346 1.396 . S
C345 C352 1.403 . S
C346 C336 1.476 . S
C346 N341 1.318 . S
C346 C345 1.396 . S
H347 C342 0.929 . S
O348 Mn324 2.385 . S
O348 C326 1.234 . S
O349 Mn324 2.209 . S
O349 Mn325 2.215 . S
O349 C326 1.283 . S
O350 Mn324 2.094 . S
O350 C328 1.240 . S
O351 Mn325 2.117 . S
O351 C328 1.264 . S
C352 C345 1.403 . S
C352 C353 1.399 . S
C352 H358 0.929 . S
C353 C333 1.449 . S
C353 C352 1.399 . S
C353 H359 0.930 . S
H354 C334 0.931 . S
H355 C335 0.930 . S
H356 C343 0.931 . S
H357 C344 0.929 . S
H358 C352 0.929 . S
H359 C353 0.930 . S
Mn360 O365 2.095 . S
Mn360 O375 2.162 . S
Mn360 O376 2.297 . S
Mn360 O384 2.385 1_554 S
Mn360 O385 2.209 1_554 S
Mn360 O386 2.094 . S
Mn361 O366 2.121 . S
Mn361 N368 2.257 . S
Mn361 N377 2.282 . S
Mn361 O385 2.215 . S
Mn361 O387 2.117 . S
C362 O384 1.234 . S
C362 O385 1.283 . S
C363 O375 1.281 . S
C363 O376 1.236 . S
C364 O386 1.240 1_556 S
C364 O387 1.264 . S
O365 Mn360 2.095 . S
O365 C374 1.250 1_554 S
O366 Mn361 2.121 . S
O366 C374 1.258 . S
C367 N368 1.326 . S
C367 C371 1.460 . S
C367 H373 0.929 . S
N368 Mn361 2.257 . S
N368 C367 1.326 . S
N368 C372 1.362 . S
C369 C370 1.258 . S
C369 C372 1.431 . S
C369 C389 1.449 . S
C370 C369 1.258 . S
C370 C371 1.477 . S
C370 H390 0.931 . S
C371 C367 1.460 . S
C371 C370 1.477 . S
C371 H391 0.930 . S
C372 N368 1.362 . S
C372 C369 1.431 . S
C372 C382 1.476 . S
H373 C367 0.929 . S
C374 O365 1.250 1_556 S
C374 O366 1.258 . S
O375 Mn360 2.162 . S
O375 C363 1.281 . S
O376 Mn360 2.297 . S
O376 C363 1.236 . S
N377 Mn361 2.282 . S
N377 C378 1.328 . S
N377 C382 1.318 . S
C378 N377 1.328 . S
C378 C379 1.457 . S
C378 H383 0.929 . S
C379 C378 1.457 . S
C379 C380 1.291 . S
C379 H392 0.931 . S
C380 C379 1.291 . S
C380 C381 1.373 . S
C380 H393 0.929 . S
C381 C380 1.373 . S
C381 C382 1.396 . S
C381 C388 1.403 . S
C382 C372 1.476 . S
C382 N377 1.318 . S
C382 C381 1.396 . S
H383 C378 0.929 . S
O384 Mn360 2.385 1_556 S
O384 C362 1.234 . S
O385 Mn360 2.209 1_556 S
O385 Mn361 2.215 . S
O385 C362 1.283 . S
O386 Mn360 2.094 . S
O386 C364 1.240 1_554 S
O387 Mn361 2.117 . S
O387 C364 1.264 . S
C388 C381 1.403 . S
C388 C389 1.399 . S
C388 H394 0.929 . S
C389 C369 1.449 . S
C389 C388 1.399 . S
C389 H395 0.930 . S
H390 C370 0.931 . S
H391 C371 0.930 . S
H392 C379 0.931 . S
H393 C380 0.929 . S
H394 C388 0.929 . S
H395 C389 0.930 . S
Mn396 O401 2.095 . S
Mn396 O411 2.162 . S
Mn396 O412 2.297 . S
Mn396 O420 2.385 . S
Mn396 O421 2.209 . S
Mn396 O422 2.094 . S
Mn397 O402 2.121 . S
Mn397 N404 2.257 . S
Mn397 N413 2.282 . S
Mn397 O421 2.215 . S
Mn397 O423 2.117 . S
C398 O420 1.234 . S
C398 O421 1.283 . S
C399 O411 1.281 . S
C399 O412 1.236 . S
C400 O422 1.240 . S
C400 O423 1.264 . S
O401 Mn396 2.095 . S
O401 C410 1.250 . S
O402 Mn397 2.121 . S
O402 C410 1.258 . S
C403 N404 1.326 . S
C403 C407 1.460 . S
C403 H409 0.929 . S
N404 Mn397 2.257 . S
N404 C403 1.326 . S
N404 C408 1.362 . S
C405 C406 1.258 . S
C405 C408 1.431 . S
C405 C425 1.449 . S
C406 C405 1.258 . S
C406 C407 1.477 . S
C406 H426 0.931 . S
C407 C403 1.460 . S
C407 C406 1.477 . S
C407 H427 0.930 . S
C408 N404 1.362 . S
C408 C405 1.431 . S
C408 C418 1.476 . S
H409 C403 0.929 . S
C410 O401 1.250 . S
C410 O402 1.258 . S
O411 Mn396 2.162 . S
O411 C399 1.281 . S
O412 Mn396 2.297 . S
O412 C399 1.236 . S
N413 Mn397 2.282 . S
N413 C414 1.328 . S
N413 C418 1.318 . S
C414 N413 1.328 . S
C414 C415 1.457 . S
C414 H419 0.929 . S
C415 C414 1.457 . S
C415 C416 1.291 . S
C415 H428 0.931 . S
C416 C415 1.291 . S
C416 C417 1.373 . S
C416 H429 0.929 . S
C417 C416 1.373 . S
C417 C418 1.396 . S
C417 C424 1.403 . S
C418 C408 1.476 . S
C418 N413 1.318 . S
C418 C417 1.396 . S
H419 C414 0.929 . S
O420 Mn396 2.385 . S
O420 C398 1.234 . S
O421 Mn396 2.209 . S
O421 Mn397 2.215 . S
O421 C398 1.283 . S
O422 Mn396 2.094 . S
O422 C400 1.240 . S
O423 Mn397 2.117 . S
O423 C400 1.264 . S
C424 C417 1.403 . S
C424 C425 1.399 . S
C424 H430 0.929 1_554 S
C425 C405 1.449 . S
C425 C424 1.399 . S
C425 H431 0.930 1_554 S
H426 C406 0.931 . S
H427 C407 0.930 . S
H428 C415 0.931 . S
H429 C416 0.929 . S
H430 C424 0.929 1_556 S
H431 C425 0.930 1_556 S
Mn432 O437 2.095 . S
Mn432 O447 2.162 . S
Mn432 O448 2.297 . S
Mn432 O456 2.385 . S
Mn432 O457 2.209 . S
Mn432 O458 2.094 . S
Mn433 O438 2.121 . S
Mn433 N440 2.257 . S
Mn433 N449 2.282 . S
Mn433 O457 2.215 . S
Mn433 O459 2.117 . S
C434 O456 1.234 . S
C434 O457 1.283 . S
C435 O447 1.281 . S
C435 O448 1.236 . S
C436 O458 1.240 . S
C436 O459 1.264 . S
O437 Mn432 2.095 . S
O437 C446 1.250 . S
O438 Mn433 2.121 . S
O438 C446 1.258 . S
C439 N440 1.326 . S
C439 C443 1.460 . S
C439 H445 0.929 . S
N440 Mn433 2.257 . S
N440 C439 1.326 . S
N440 C444 1.362 . S
C441 C442 1.258 . S
C441 C444 1.431 . S
C441 C461 1.449 . S
C442 C441 1.258 . S
C442 C443 1.477 . S
C442 H462 0.931 . S
C443 C439 1.460 . S
C443 C442 1.477 . S
C443 H463 0.930 . S
C444 N440 1.362 . S
C444 C441 1.431 . S
C444 C454 1.476 . S
H445 C439 0.929 . S
C446 O437 1.250 . S
C446 O438 1.258 . S
O447 Mn432 2.162 . S
O447 C435 1.281 . S
O448 Mn432 2.297 . S
O448 C435 1.236 . S
N449 Mn433 2.282 . S
N449 C450 1.328 . S
N449 C454 1.318 . S
C450 N449 1.328 . S
C450 C451 1.457 . S
C450 H455 0.929 . S
C451 C450 1.457 . S
C451 C452 1.291 . S
C451 H464 0.931 . S
C452 C451 1.291 . S
C452 C453 1.373 . S
C452 H465 0.929 . S
C453 C452 1.373 . S
C453 C454 1.396 . S
C453 C460 1.403 . S
C454 C444 1.476 . S
C454 N449 1.318 . S
C454 C453 1.396 . S
H455 C450 0.929 . S
O456 Mn432 2.385 . S
O456 C434 1.234 . S
O457 Mn432 2.209 . S
O457 Mn433 2.215 . S
O457 C434 1.283 . S
O458 Mn432 2.094 . S
O458 C436 1.240 . S
O459 Mn433 2.117 . S
O459 C436 1.264 . S
C460 C453 1.403 . S
C460 C461 1.399 . S
C460 H466 0.929 . S
C461 C441 1.449 . S
C461 C460 1.399 . S
C461 H467 0.930 . S
H462 C442 0.931 . S
H463 C443 0.930 . S
H464 C451 0.931 . S
H465 C452 0.929 . S
H466 C460 0.929 . S
H467 C461 0.930 . S
Mn468 O473 2.095 . S
Mn468 O483 2.162 . S
Mn468 O484 2.297 . S
Mn468 O492 2.385 . S
Mn468 O493 2.209 . S
Mn468 O494 2.094 . S
Mn469 O474 2.121 . S
Mn469 N476 2.257 1_554 S
Mn469 N485 2.282 1_554 S
Mn469 O493 2.215 . S
Mn469 O495 2.117 . S
C470 O492 1.234 . S
C470 O493 1.283 . S
C471 O483 1.281 . S
C471 O484 1.236 . S
C472 O494 1.240 . S
C472 O495 1.264 . S
O473 Mn468 2.095 . S
O473 C482 1.250 . S
O474 Mn469 2.121 . S
O474 C482 1.258 . S
C475 N476 1.326 1_655 S
C475 C479 1.460 . S
C475 H481 0.929 1_556 S
N476 Mn469 2.257 1_556 S
N476 C475 1.326 1_455 S
N476 C480 1.362 . S
C477 C478 1.258 1_455 S
C477 C480 1.431 . S
C477 C497 1.449 . S
C478 C477 1.258 1_655 S
C478 C479 1.477 . S
C478 H498 0.931 . S
C479 C475 1.460 . S
C479 C478 1.477 . S
C479 H499 0.930 . S
C480 N476 1.362 . S
C480 C477 1.431 . S
C480 C490 1.476 . S
H481 C475 0.929 1_554 S
C482 O473 1.250 . S
C482 O474 1.258 . S
O483 Mn468 2.162 . S
O483 C471 1.281 . S
O484 Mn468 2.297 . S
O484 C471 1.236 . S
N485 Mn469 2.282 1_556 S
N485 C486 1.328 . S
N485 C490 1.318 . S
C486 N485 1.328 . S
C486 C487 1.457 . S
C486 H491 0.929 1_556 S
C487 C486 1.457 . S
C487 C488 1.291 . S
C487 H500 0.931 . S
C488 C487 1.291 . S
C488 C489 1.373 . S
C488 H501 0.929 . S
C489 C488 1.373 . S
C489 C490 1.396 . S
C489 C496 1.403 . S
C490 C480 1.476 . S
C490 N485 1.318 . S
C490 C489 1.396 . S
H491 C486 0.929 1_554 S
O492 Mn468 2.385 . S
O492 C470 1.234 . S
O493 Mn468 2.209 . S
O493 Mn469 2.215 . S
O493 C470 1.283 . S
O494 Mn468 2.094 . S
O494 C472 1.240 . S
O495 Mn469 2.117 . S
O495 C472 1.264 . S
C496 C489 1.403 . S
C496 C497 1.399 . S
C496 H502 0.929 . S
C497 C477 1.449 . S
C497 C496 1.399 . S
C497 H503 0.930 . S
H498 C478 0.931 . S
H499 C479 0.930 . S
H500 C487 0.931 . S
H501 C488 0.929 . S
H502 C496 0.929 . S
H503 C497 0.930 . S
Mn504 O509 2.095 . S
Mn504 O519 2.162 . S
Mn504 O520 2.297 . S
Mn504 O528 2.385 . S
Mn504 O529 2.209 . S
Mn504 O530 2.094 . S
Mn505 O510 2.121 . S
Mn505 N512 2.257 . S
Mn505 N521 2.282 . S
Mn505 O529 2.215 . S
Mn505 O531 2.117 . S
C506 O528 1.234 . S
C506 O529 1.283 . S
C507 O519 1.281 . S
C507 O520 1.236 . S
C508 O530 1.240 . S
C508 O531 1.264 . S
O509 Mn504 2.095 . S
O509 C518 1.250 . S
O510 Mn505 2.121 . S
O510 C518 1.258 . S
C511 N512 1.326 . S
C511 C515 1.460 . S
C511 H517 0.929 . S
N512 Mn505 2.257 . S
N512 C511 1.326 . S
N512 C516 1.362 . S
C513 C514 1.258 . S
C513 C516 1.431 . S
C513 C533 1.449 . S
C514 C513 1.258 . S
C514 C515 1.477 . S
C514 H534 0.931 . S
C515 C511 1.460 . S
C515 C514 1.477 . S
C515 H535 0.930 . S
C516 N512 1.362 . S
C516 C513 1.431 . S
C516 C526 1.476 . S
H517 C511 0.929 . S
C518 O509 1.250 . S
C518 O510 1.258 . S
O519 Mn504 2.162 . S
O519 C507 1.281 . S
O520 Mn504 2.297 . S
O520 C507 1.236 . S
N521 Mn505 2.282 . S
N521 C522 1.328 . S
N521 C526 1.318 . S
C522 N521 1.328 . S
C522 C523 1.457 . S
C522 H527 0.929 . S
C523 C522 1.457 . S
C523 C524 1.291 . S
C523 H536 0.931 . S
C524 C523 1.291 . S
C524 C525 1.373 . S
C524 H537 0.929 . S
C525 C524 1.373 . S
C525 C526 1.396 . S
C525 C532 1.403 . S
C526 C516 1.476 . S
C526 N521 1.318 . S
C526 C525 1.396 . S
H527 C522 0.929 . S
O528 Mn504 2.385 . S
O528 C506 1.234 . S
O529 Mn504 2.209 . S
O529 Mn505 2.215 . S
O529 C506 1.283 . S
O530 Mn504 2.094 . S
O530 C508 1.240 . S
O531 Mn505 2.117 . S
O531 C508 1.264 . S
C532 C525 1.403 . S
C532 C533 1.399 . S
C532 H538 0.929 . S
C533 C513 1.449 . S
C533 C532 1.399 . S
C533 H539 0.930 . S
H534 C514 0.931 . S
H535 C515 0.930 . S
H536 C523 0.931 . S
H537 C524 0.929 . S
H538 C532 0.929 . S
H539 C533 0.930 . S
Mn540 O545 2.095 . S
Mn540 O555 2.162 . S
Mn540 O556 2.297 . S
Mn540 O564 2.385 . S
Mn540 O565 2.209 . S
Mn540 O566 2.094 . S
Mn541 O546 2.121 1_554 S
Mn541 N548 2.257 . S
Mn541 N557 2.282 . S
Mn541 O565 2.215 1_554 S
Mn541 O567 2.117 1_554 S
C542 O564 1.234 . S
C542 O565 1.283 . S
C543 O555 1.281 . S
C543 O556 1.236 . S
C544 O566 1.240 . S
C544 O567 1.264 . S
O545 Mn540 2.095 . S
O545 C554 1.250 . S
O546 Mn541 2.121 1_556 S
O546 C554 1.258 . S
C547 N548 1.326 1_655 S
C547 C551 1.460 . S
C547 H553 0.929 . S
N548 Mn541 2.257 . S
N548 C547 1.326 1_455 S
N548 C552 1.362 . S
C549 C550 1.258 1_455 S
C549 C552 1.431 . S
C549 C569 1.449 . S
C550 C549 1.258 1_655 S
C550 C551 1.477 . S
C550 H570 0.931 . S
C551 C547 1.460 . S
C551 C550 1.477 . S
C551 H571 0.930 . S
C552 N548 1.362 . S
C552 C549 1.431 . S
C552 C562 1.476 . S
H553 C547 0.929 . S
C554 O545 1.250 . S
C554 O546 1.258 . S
O555 Mn540 2.162 . S
O555 C543 1.281 . S
O556 Mn540 2.297 . S
O556 C543 1.236 . S
N557 Mn541 2.282 . S
N557 C558 1.328 . S
N557 C562 1.318 . S
C558 N557 1.328 . S
C558 C559 1.457 . S
C558 H563 0.929 . S
C559 C558 1.457 . S
C559 C560 1.291 . S
C559 H572 0.931 . S
C560 C559 1.291 . S
C560 C561 1.373 . S
C560 H573 0.929 . S
C561 C560 1.373 . S
C561 C562 1.396 . S
C561 C568 1.403 . S
C562 C552 1.476 . S
C562 N557 1.318 . S
C562 C561 1.396 . S
H563 C558 0.929 . S
O564 Mn540 2.385 . S
O564 C542 1.234 . S
O565 Mn540 2.209 . S
O565 Mn541 2.215 1_556 S
O565 C542 1.283 . S
O566 Mn540 2.094 . S
O566 C544 1.240 . S
O567 Mn541 2.117 1_556 S
O567 C544 1.264 . S
C568 C561 1.403 . S
C568 C569 1.399 . S
C568 H574 0.929 . S
C569 C549 1.449 . S
C569 C568 1.399 . S
C569 H575 0.930 . S
H570 C550 0.931 . S
H571 C551 0.930 . S
H572 C559 0.931 . S
H573 C560 0.929 . S
H574 C568 0.929 . S
H575 C569 0.930 . S
C576 C577 1.369 . S
C576 C578 1.419 . S
C576 H580 0.930 . S
C577 C576 1.369 . S
C577 C586 1.429 . S
C578 C576 1.419 . S
C578 C579 1.363 . S
C578 H581 0.929 . S
C579 C578 1.363 . S
C579 C585 1.428 . S
H580 C576 0.930 . S
H581 C578 0.929 . S
S582 N583 1.613 . S
S582 N584 1.610 . S
N583 S582 1.613 . S
N583 C586 1.350 . S
N584 S582 1.610 . S
N584 C585 1.351 . S
C585 C579 1.428 . S
C585 N584 1.351 . S
C585 C586 1.434 . S
C586 C577 1.429 . S
C586 N583 1.350 . S
C586 C585 1.434 . S
C587 C588 1.369 . S
C587 C589 1.419 . S
C587 H591 0.930 . S
C588 C587 1.369 . S
C588 C597 1.429 . S
C589 C587 1.419 . S
C589 C590 1.363 . S
C589 H592 0.929 . S
C590 C589 1.363 . S
C590 C596 1.428 . S
H591 C587 0.930 . S
H592 C589 0.929 . S
S593 N594 1.613 . S
S593 N595 1.610 . S
N594 S593 1.613 . S
N594 C597 1.350 . S
N595 S593 1.610 . S
N595 C596 1.351 . S
C596 C590 1.428 . S
C596 N595 1.351 . S
C596 C597 1.434 . S
C597 C588 1.429 . S
C597 N594 1.350 . S
C597 C596 1.434 . S
C598 C599 1.369 . S
C598 C600 1.419 . S
C598 H602 0.930 . S
C599 C598 1.369 . S
C599 C608 1.429 . S
C600 C598 1.419 . S
C600 C601 1.363 . S
C600 H603 0.929 . S
C601 C600 1.363 . S
C601 C607 1.428 . S
H602 C598 0.930 . S
H603 C600 0.929 . S
S604 N605 1.613 . S
S604 N606 1.610 . S
N605 S604 1.613 . S
N605 C608 1.350 . S
N606 S604 1.610 . S
N606 C607 1.351 . S
C607 C601 1.428 . S
C607 N606 1.351 . S
C607 C608 1.434 . S
C608 C599 1.429 . S
C608 N605 1.350 . S
C608 C607 1.434 . S
C609 C610 1.369 1_554 S
C609 C611 1.419 1_554 S
C609 H613 0.930 . S
C610 C609 1.369 1_556 S
C610 C619 1.429 . S
C611 C609 1.419 1_556 S
C611 C612 1.363 . S
C611 H614 0.929 1_655 S
C612 C611 1.363 . S
C612 C618 1.428 . S
H613 C609 0.930 . S
H614 C611 0.929 1_455 S
S615 N616 1.613 . S
S615 N617 1.610 . S
N616 S615 1.613 . S
N616 C619 1.350 . S
N617 S615 1.610 . S
N617 C618 1.351 . S
C618 C612 1.428 . S
C618 N617 1.351 . S
C618 C619 1.434 . S
C619 C610 1.429 . S
C619 N616 1.350 . S
C619 C618 1.434 . S
C620 C621 1.369 . S
C620 C622 1.419 1_556 S
C620 H624 0.930 . S
C621 C620 1.369 . S
C621 C630 1.429 . S
C622 C620 1.419 1_554 S
C622 C623 1.363 1_554 S
C622 H625 0.929 . S
C623 C622 1.363 1_556 S
C623 C629 1.428 . S
H624 C620 0.930 . S
H625 C622 0.929 . S
S626 N627 1.613 . S
S626 N628 1.610 . S
N627 S626 1.613 . S
N627 C630 1.350 . S
N628 S626 1.610 . S
N628 C629 1.351 . S
C629 C623 1.428 . S
C629 N628 1.351 . S
C629 C630 1.434 . S
C630 C621 1.429 . S
C630 N627 1.350 . S
C630 C629 1.434 . S
C631 C632 1.369 . S
C631 C633 1.419 . S
C631 H635 0.930 . S
C632 C631 1.369 . S
C632 C641 1.429 . S
C633 C631 1.419 . S
C633 C634 1.363 . S
C633 H636 0.929 . S
C634 C633 1.363 . S
C634 C640 1.428 . S
H635 C631 0.930 . S
H636 C633 0.929 . S
S637 N638 1.613 . S
S637 N639 1.610 . S
N638 S637 1.613 . S
N638 C641 1.350 . S
N639 S637 1.610 . S
N639 C640 1.351 . S
C640 C634 1.428 . S
C640 N639 1.351 . S
C640 C641 1.434 . S
C641 C632 1.429 . S
C641 N638 1.350 . S
C641 C640 1.434 . S
C642 C643 1.369 . S
C642 C644 1.419 . S
C642 H646 0.930 . S
C643 C642 1.369 . S
C643 C652 1.429 . S
C644 C642 1.419 . S
C644 C645 1.363 . S
C644 H647 0.929 . S
C645 C644 1.363 . S
C645 C651 1.428 . S
H646 C642 0.930 . S
H647 C644 0.929 . S
S648 N649 1.613 . S
S648 N650 1.610 . S
N649 S648 1.613 . S
N649 C652 1.350 . S
N650 S648 1.610 . S
N650 C651 1.351 . S
C651 C645 1.428 . S
C651 N650 1.351 . S
C651 C652 1.434 . S
C652 C643 1.429 . S
C652 N649 1.350 . S
C652 C651 1.434 . S
C653 C654 1.369 . S
C653 C655 1.419 . S
C653 H657 0.930 . S
C654 C653 1.369 . S
C654 C663 1.429 . S
C655 C653 1.419 . S
C655 C656 1.363 . S
C655 H658 0.929 . S
C656 C655 1.363 . S
C656 C662 1.428 . S
H657 C653 0.930 . S
H658 C655 0.929 . S
S659 N660 1.613 . S
S659 N661 1.610 . S
N660 S659 1.613 . S
N660 C663 1.350 . S
N661 S659 1.610 . S
N661 C662 1.351 . S
C662 C656 1.428 . S
C662 N661 1.351 . S
C662 C663 1.434 . S
C663 C654 1.429 . S
C663 N660 1.350 . S
C663 C662 1.434 . S
C664 C665 1.369 . S
C664 C666 1.419 . S
C664 H668 0.930 1_655 S
C665 C664 1.369 . S
C665 C674 1.429 . S
C666 C664 1.419 . S
C666 C667 1.363 . S
C666 H669 0.930 1_556 S
C667 C666 1.363 . S
C667 C673 1.428 . S
H668 C664 0.930 1_455 S
H669 C666 0.930 1_554 S
S670 N671 1.613 . S
S670 N672 1.610 . S
N671 S670 1.613 . S
N671 C674 1.350 . S
N672 S670 1.610 . S
N672 C673 1.351 . S
C673 C667 1.428 . S
C673 N672 1.351 . S
C673 C674 1.434 . S
C674 C665 1.429 . S
C674 N671 1.350 . S
C674 C673 1.434 . S
C675 C676 1.369 . S
C675 C677 1.419 . S
C675 H679 0.930 . S
C676 C675 1.369 . S
C676 C685 1.429 . S
C677 C675 1.419 . S
C677 C678 1.363 . S
C677 H680 0.929 . S
C678 C677 1.363 . S
C678 C684 1.428 . S
H679 C675 0.930 . S
H680 C677 0.929 . S
S681 N682 1.613 . S
S681 N683 1.610 . S
N682 S681 1.613 . S
N682 C685 1.350 . S
N683 S681 1.610 . S
N683 C684 1.351 . S
C684 C678 1.428 . S
C684 N683 1.351 . S
C684 C685 1.434 . S
C685 C676 1.429 . S
C685 N682 1.350 . S
C685 C684 1.434 . S
C686 C687 1.369 . S
C686 C688 1.419 . S
C686 H690 0.930 . S
C687 C686 1.369 . S
C687 C696 1.429 . S
C688 C686 1.419 . S
C688 C689 1.363 . S
C688 H691 0.929 . S
C689 C688 1.363 . S
C689 C695 1.428 . S
H690 C686 0.930 . S
H691 C688 0.929 . S
S692 N693 1.613 . S
S692 N694 1.610 . S
N693 S692 1.613 . S
N693 C696 1.350 . S
N694 S692 1.610 . S
N694 C695 1.351 . S
C695 C689 1.428 . S
C695 N694 1.351 . S
C695 C696 1.434 . S
C696 C687 1.429 . S
C696 N693 1.350 . S
C696 C695 1.434 . S
C697 C698 1.369 . S
C697 C699 1.419 . S
C697 H701 0.930 . S
C698 C697 1.369 . S
C698 C707 1.429 . S
C699 C697 1.419 . S
C699 C700 1.363 . S
C699 H702 0.929 . S
C700 C699 1.363 . S
C700 C706 1.428 . S
H701 C697 0.930 . S
H702 C699 0.929 . S
S703 N704 1.613 1_556 S
S703 N705 1.610 1_556 S
N704 S703 1.613 1_554 S
N704 C707 1.350 . S
N705 S703 1.610 1_554 S
N705 C706 1.351 . S
C706 C700 1.428 . S
C706 N705 1.351 . S
C706 C707 1.434 . S
C707 C698 1.429 . S
C707 N704 1.350 . S
C707 C706 1.434 . S
C708 C709 1.369 1_455 S
C708 C710 1.419 1_455 S
C708 H712 0.930 . S
C709 C708 1.369 1_655 S
C709 C718 1.429 . S
C710 C708 1.419 1_655 S
C710 C711 1.363 . S
C710 H713 0.929 . S
C711 C710 1.363 . S
C711 C717 1.428 . S
H712 C708 0.930 . S
H713 C710 0.929 . S
S714 N715 1.613 . S
S714 N716 1.610 . S
N715 S714 1.613 . S
N715 C718 1.350 . S
N716 S714 1.610 . S
N716 C717 1.351 . S
C717 C711 1.428 . S
C717 N716 1.351 . S
C717 C718 1.434 . S
C718 C709 1.429 . S
C718 N715 1.350 . S
C718 C717 1.434 . S
C719 C720 1.369 . S
C719 C721 1.419 . S
C719 H723 0.930 . S
C720 C719 1.369 . S
C720 C729 1.429 . S
C721 C719 1.419 . S
C721 C722 1.363 . S
C721 H724 0.929 . S
C722 C721 1.363 . S
C722 C728 1.428 . S
H723 C719 0.930 . S
H724 C721 0.929 . S
S725 N726 1.613 . S
S725 N727 1.610 . S
N726 S725 1.613 . S
N726 C729 1.350 . S
N727 S725 1.610 . S
N727 C728 1.351 . S
C728 C722 1.428 . S
C728 N727 1.351 . S
C728 C729 1.434 . S
C729 C720 1.429 . S
C729 N726 1.350 . S
C729 C728 1.434 . S
C730 C731 1.369 . S
C730 C732 1.419 . S
C730 H734 0.930 . S
C731 C730 1.369 . S
C731 C740 1.429 . S
C732 C730 1.419 . S
C732 C733 1.363 . S
C732 H735 0.929 . S
C733 C732 1.363 . S
C733 C739 1.428 . S
H734 C730 0.930 . S
H735 C732 0.929 . S
S736 N737 1.613 . S
S736 N738 1.610 . S
N737 S736 1.613 . S
N737 C740 1.350 . S
N738 S736 1.610 . S
N738 C739 1.351 . S
C739 C733 1.428 . S
C739 N738 1.351 . S
C739 C740 1.434 . S
C740 C731 1.429 . S
C740 N737 1.350 . S
C740 C739 1.434 . S
C741 C742 1.369 . S
C741 C743 1.419 . S
C741 H745 0.930 . S
C742 C741 1.369 . S
C742 C751 1.429 . S
C743 C741 1.419 . S
C743 C744 1.363 . S
C743 H746 0.929 . S
C744 C743 1.363 . S
C744 C750 1.428 . S
H745 C741 0.930 . S
H746 C743 0.929 . S
S747 N748 1.613 . S
S747 N749 1.610 . S
N748 S747 1.613 . S
N748 C751 1.350 . S
N749 S747 1.610 . S
N749 C750 1.351 . S
C750 C744 1.428 . S
C750 N749 1.351 . S
C750 C751 1.434 . S
C751 C742 1.429 . S
C751 N748 1.350 . S
C751 C750 1.434 . S
C752 C753 1.369 . S
C752 C754 1.419 1_554 S
C752 H756 0.930 . S
C753 C752 1.369 . S
C753 C762 1.429 . S
C754 C752 1.419 1_556 S
C754 C755 1.363 . S
C754 H757 0.929 . S
C755 C754 1.363 . S
C755 C761 1.428 1_556 S
H756 C752 0.930 . S
H757 C754 0.929 . S
S758 N759 1.613 . S
S758 N760 1.610 . S
N759 S758 1.613 . S
N759 C762 1.350 . S
N760 S758 1.610 . S
N760 C761 1.351 . S
C761 C755 1.428 1_554 S
C761 N760 1.351 . S
C761 C762 1.434 . S
C762 C753 1.429 . S
C762 N759 1.350 . S
C762 C761 1.434 . S
C763 C764 1.369 . S
C763 C765 1.419 . S
C763 H767 0.930 . S
C764 C763 1.369 . S
C764 C773 1.429 . S
C765 C763 1.419 . S
C765 C766 1.363 . S
C765 H768 0.929 . S
C766 C765 1.363 . S
C766 C772 1.428 . S
H767 C763 0.930 . S
H768 C765 0.929 . S
S769 N770 1.613 . S
S769 N771 1.610 . S
N770 S769 1.613 . S
N770 C773 1.350 . S
N771 S769 1.610 . S
N771 C772 1.351 . S
C772 C766 1.428 . S
C772 N771 1.351 . S
C772 C773 1.434 . S
C773 C764 1.429 . S
C773 N770 1.350 . S
C773 C772 1.434 . S
C774 C775 1.369 . S
C774 C776 1.419 . S
C774 H778 0.930 . S
C775 C774 1.369 . S
C775 C784 1.429 . S
C776 C774 1.419 . S
C776 C777 1.363 . S
C776 H779 0.929 . S
C777 C776 1.363 . S
C777 C783 1.428 . S
H778 C774 0.930 . S
H779 C776 0.929 . S
S780 N781 1.613 . S
S780 N782 1.610 . S
N781 S780 1.613 . S
N781 C784 1.350 . S
N782 S780 1.610 . S
N782 C783 1.351 . S
C783 C777 1.428 . S
C783 N782 1.351 . S
C783 C784 1.434 . S
C784 C775 1.429 . S
C784 N781 1.350 . S
C784 C783 1.434 . S
C785 C786 1.369 . S
C785 C787 1.419 . S
C785 H789 0.930 . S
C786 C785 1.369 . S
C786 C795 1.429 . S
C787 C785 1.419 . S
C787 C788 1.363 . S
C787 H790 0.929 . S
C788 C787 1.363 . S
C788 C794 1.428 . S
H789 C785 0.930 . S
H790 C787 0.929 . S
S791 N792 1.613 . S
S791 N793 1.610 . S
N792 S791 1.613 . S
N792 C795 1.350 . S
N793 S791 1.610 . S
N793 C794 1.351 . S
C794 C788 1.428 . S
C794 N793 1.351 . S
C794 C795 1.434 . S
C795 C786 1.429 . S
C795 N792 1.350 . S
C795 C794 1.434 . S
C796 C797 1.369 . S
C796 C798 1.419 . S
C796 H800 0.930 . S
C797 C796 1.369 . S
C797 C806 1.429 . S
C798 C796 1.419 . S
C798 C799 1.363 . S
C798 H801 0.929 . S
C799 C798 1.363 . S
C799 C805 1.428 . S
H800 C796 0.930 . S
H801 C798 0.929 . S
S802 N803 1.613 . S
S802 N804 1.610 . S
N803 S802 1.613 . S
N803 C806 1.350 . S
N804 S802 1.610 . S
N804 C805 1.351 . S
C805 C799 1.428 . S
C805 N804 1.351 . S
C805 C806 1.434 . S
C806 C797 1.429 . S
C806 N803 1.350 . S
C806 C805 1.434 . S
C807 C808 1.369 . S
C807 C809 1.419 . S
C807 H811 0.930 . S
C808 C807 1.369 . S
C808 C817 1.429 . S
C809 C807 1.419 . S
C809 C810 1.363 . S
C809 H812 0.929 . S
C810 C809 1.363 . S
C810 C816 1.428 . S
H811 C807 0.930 . S
H812 C809 0.929 . S
S813 N814 1.613 . S
S813 N815 1.610 . S
N814 S813 1.613 . S
N814 C817 1.350 . S
N815 S813 1.610 . S
N815 C816 1.351 . S
C816 C810 1.428 . S
C816 N815 1.351 . S
C816 C817 1.434 . S
C817 C808 1.429 . S
C817 N814 1.350 . S
C817 C816 1.434 . S
C818 C819 1.369 1_545 S
C818 C820 1.419 . S
C818 H822 0.930 . S
C819 C818 1.369 1_565 S
C819 C828 1.429 . S
C820 C818 1.419 . S
C820 C821 1.363 . S
C820 H823 0.929 . S
C821 C820 1.363 . S
C821 C827 1.428 1_545 S
H822 C818 0.930 . S
H823 C820 0.929 . S
S824 N825 1.613 . S
S824 N826 1.610 . S
N825 S824 1.613 . S
N825 C828 1.350 . S
N826 S824 1.610 . S
N826 C827 1.351 . S
C827 C821 1.428 1_565 S
C827 N826 1.351 . S
C827 C828 1.434 . S
C828 C819 1.429 . S
C828 N825 1.350 . S
C828 C827 1.434 . S
C829 C830 1.369 1_554 S
C829 C831 1.419 1_545 S
C829 H833 0.930 . S
C830 C829 1.369 1_556 S
C830 C839 1.446 . S
C831 C829 1.419 1_565 S
C831 C832 1.363 . S
C831 H834 0.929 . S
C832 C831 1.363 . S
C832 C838 1.428 . S
H833 C829 0.930 . S
H834 C831 0.929 . S
S835 N836 1.613 . S
S835 N837 1.610 1_556 S
N836 S835 1.613 . S
N836 C839 1.348 1_565 S
N837 S835 1.610 1_554 S
N837 C838 1.351 . S
C838 C832 1.428 . S
C838 N837 1.351 . S
C838 C839 1.417 1_564 S
C839 C830 1.446 . S
C839 N836 1.348 1_545 S
C839 C838 1.417 1_546 S
C840 C841 1.369 . S
C840 C842 1.419 . S
C840 H844 0.930 . S
C841 C840 1.369 . S
C841 C850 1.429 . S
C842 C840 1.419 . S
C842 C843 1.363 . S
C842 H845 0.929 . S
C843 C842 1.363 . S
C843 C849 1.428 . S
H844 C840 0.930 . S
H845 C842 0.929 . S
S846 N847 1.613 . S
S846 N848 1.610 . S
N847 S846 1.613 . S
N847 C850 1.350 . S
N848 S846 1.610 . S
N848 C849 1.351 . S
C849 C843 1.428 . S
C849 N848 1.351 . S
C849 C850 1.434 . S
C850 C841 1.429 . S
C850 N847 1.350 . S
C850 C849 1.434 . S
C851 C852 1.369 . S
C851 C853 1.419 . S
C851 H855 0.930 . S
C852 C851 1.369 . S
C852 C861 1.429 . S
C853 C851 1.419 . S
C853 C854 1.363 . S
C853 H856 0.929 . S
C854 C853 1.363 . S
C854 C860 1.428 . S
H855 C851 0.930 . S
H856 C853 0.929 . S
S857 N858 1.613 . S
S857 N859 1.610 . S
N858 S857 1.613 . S
N858 C861 1.350 . S
N859 S857 1.610 . S
N859 C860 1.351 . S
C860 C854 1.428 . S
C860 N859 1.351 . S
C860 C861 1.434 . S
C861 C852 1.429 . S
C861 N858 1.350 . S
C861 C860 1.434 . S
C862 C863 1.369 . S
C862 C864 1.419 . S
C862 H866 0.930 . S
C863 C862 1.369 . S
C863 C872 1.429 . S
C864 C862 1.419 . S
C864 C865 1.363 1_554 S
C864 H867 0.929 . S
C865 C864 1.363 1_556 S
C865 C871 1.428 . S
H866 C862 0.930 . S
H867 C864 0.929 . S
S868 N869 1.613 1_556 S
S868 N870 1.610 . S
N869 S868 1.613 1_554 S
N869 C872 1.350 . S
N870 S868 1.610 . S
N870 C871 1.351 . S
C871 C865 1.428 . S
C871 N870 1.351 . S
C871 C872 1.434 1_556 S
C872 C863 1.429 . S
C872 N869 1.350 . S
C872 C871 1.434 1_554 S
C873 C874 1.369 . S
C873 C875 1.419 . S
C873 H877 0.930 . S
C874 C873 1.369 . S
C874 C883 1.429 . S
C875 C873 1.419 . S
C875 C876 1.363 . S
C875 H878 0.929 . S
C876 C875 1.363 . S
C876 C882 1.428 . S
H877 C873 0.930 . S
H878 C875 0.929 . S
S879 N880 1.613 . S
S879 N881 1.610 . S
N880 S879 1.613 . S
N880 C883 1.350 . S
N881 S879 1.610 . S
N881 C882 1.351 . S
C882 C876 1.428 . S
C882 N881 1.351 . S
C882 C883 1.434 . S
C883 C874 1.429 . S
C883 N880 1.350 . S
C883 C882 1.434 . S
C884 C885 1.369 . S
C884 C886 1.419 . S
C884 H888 0.930 . S
C885 C884 1.369 . S
C885 C894 1.429 . S
C886 C884 1.419 . S
C886 C887 1.363 . S
C886 H889 0.929 . S
C887 C886 1.363 . S
C887 C893 1.428 . S
H888 C884 0.930 . S
H889 C886 0.929 . S
S890 N891 1.613 . S
S890 N892 1.610 . S
N891 S890 1.613 . S
N891 C894 1.350 . S
N892 S890 1.610 . S
N892 C893 1.351 . S
C893 C887 1.428 . S
C893 N892 1.351 . S
C893 C894 1.434 . S
C894 C885 1.429 . S
C894 N891 1.350 . S
C894 C893 1.434 . S
C895 C896 1.369 . S
C895 C897 1.419 . S
C895 H899 0.930 . S
C896 C895 1.369 . S
C896 C905 1.429 . S
C897 C895 1.419 . S
C897 C898 1.363 . S
C897 H900 0.929 . S
C898 C897 1.363 . S
C898 C904 1.428 . S
H899 C895 0.930 . S
H900 C897 0.929 . S
S901 N902 1.613 . S
S901 N903 1.610 . S
N902 S901 1.613 . S
N902 C905 1.350 . S
N903 S901 1.610 . S
N903 C904 1.351 . S
C904 C898 1.428 . S
C904 N903 1.351 . S
C904 C905 1.434 . S
C905 C896 1.429 . S
C905 N902 1.350 . S
C905 C904 1.434 . S
C906 C907 1.369 1_545 S
C906 C908 1.419 . S
C906 H910 0.930 . S
C907 C906 1.369 1_565 S
C907 C916 1.429 . S
C908 C906 1.419 . S
C908 C909 1.363 1_554 S
C908 H911 0.929 . S
C909 C908 1.363 1_556 S
C909 C915 1.428 1_545 S
H910 C906 0.930 . S
H911 C908 0.929 . S
S912 N913 1.613 1_556 S
S912 N914 1.610 . S
N913 S912 1.613 1_554 S
N913 C916 1.350 . S
N914 S912 1.610 . S
N914 C915 1.351 . S
C915 C909 1.428 1_565 S
C915 N914 1.351 . S
C915 C916 1.434 1_556 S
C916 C907 1.429 . S
C916 N913 1.350 . S
C916 C915 1.434 1_554 S
C917 C918 1.369 . S
C917 C919 1.419 . S
C917 H921 0.930 . S
C918 C917 1.369 . S
C918 C927 1.429 1_545 S
C919 C917 1.419 . S
C919 C920 1.363 1_545 S
C919 H922 0.929 . S
C920 C919 1.363 1_565 S
C920 C926 1.428 . S
H921 C917 0.930 . S
H922 C919 0.929 . S
S923 N924 1.613 . S
S923 N925 1.610 . S
N924 S923 1.613 . S
N924 C927 1.350 . S
N925 S923 1.610 . S
N925 C926 1.351 . S
C926 C920 1.428 . S
C926 N925 1.351 . S
C926 C927 1.434 . S
C927 C918 1.429 1_565 S
C927 N924 1.350 . S
C927 C926 1.434 . S
C577 C338 1.392 . S
C579 C14 1.391 . S
C588 C518 1.390 . S
C590 C50 1.400 . S
C599 C86 1.398 . S
C601 C302 1.388 . S
C610 C122 1.392 . S
C612 C554 1.400 1_655 S
C621 C158 1.402 . S
C623 C374 1.389 . S
C632 C482 1.395 1_655 S
C634 C194 1.389 . S
C643 C410 1.400 . S
C645 C230 1.394 . S
C654 C266 1.387 . S
C656 C446 1.400 . S
C665 C148 1.502 1_655 S
C667 C112 1.502 . S
C676 C436 1.500 . S
C678 C292 1.500 . S
C687 C220 1.502 . S
C689 C40 1.502 . S
C698 C328 1.502 . S
C700 C472 1.501 . S
C709 C4 1.502 1_655 S
C711 C184 1.502 . S
C720 C544 1.501 . S
C722 C364 1.500 . S
C731 C256 1.502 . S
C733 C76 1.502 . S
C742 C400 1.500 . S
C744 C508 1.500 . S
C753 C2 0.851 . S
C755 C146 0.852 . S
C764 C182 0.850 . S
C766 C38 0.850 . S
C775 C218 0.852 . S
C777 C74 0.851 . S
C786 C110 0.852 . S
C788 C254 0.853 . S
C797 C362 0.851 . S
C799 C290 0.852 . S
C808 C398 0.852 . S
C810 C326 0.853 . S
C819 C506 0.852 . S
C821 C434 0.851 . S
C830 C542 0.850 . S
C832 C470 0.851 . S
C841 C147 1.664 . S
C843 C3 1.663 . S
C852 C183 1.663 . S
C854 C39 1.662 . S
C863 C219 1.663 . S
C865 C75 1.662 . S
C874 C111 1.662 . S
C876 C255 1.663 . S
C885 C291 1.664 . S
C887 C363 1.662 . S
C896 C399 1.664 . S
C898 C327 1.663 . S
C907 C507 1.663 . S
C909 C435 1.662 . S
C918 C543 1.662 . S
C920 C471 1.663 . S
