# Generated by pormake.
# Topology wgb, (5)-cn, num edge types: 1
# Building blocks:
#     Node 0, Type 0, BuildingBlock: XOMCOT_clean_sbu_1, # of connection points: 5
#     Node 1, Type 0, BuildingBlock: XOMCOT_clean_sbu_1, # of connection points: 5
#     Node 2, Type 0, BuildingBlock: XOMCOT_clean_sbu_1, # of connection points: 5
#     Node 3, Type 0, BuildingBlock: XOMCOT_clean_sbu_1, # of connection points: 5
#     Node 4, Type 0, BuildingBlock: XOMCOT_clean_sbu_1, # of connection points: 5
#     Node 5, Type 0, BuildingBlock: XOMCOT_clean_sbu_1, # of connection points: 5
#     Node 6, Type 0, BuildingBlock: XOMCOT_clean_sbu_1, # of connection points: 5
#     Node 7, Type 0, BuildingBlock: XOMCOT_clean_sbu_1, # of connection points: 5
#     Node 8, Type 0, BuildingBlock: XOMCOT_clean_sbu_1, # of connection points: 5
#     Node 9, Type 0, BuildingBlock: XOMCOT_clean_sbu_1, # of connection points: 5
#     Node 10, Type 0, BuildingBlock: XOMCOT_clean_sbu_1, # of connection points: 5
#     Node 11, Type 0, BuildingBlock: XOMCOT_clean_sbu_1, # of connection points: 5
#     Node 12, Type 0, BuildingBlock: XOMCOT_clean_sbu_1, # of connection points: 5
#     Node 13, Type 0, BuildingBlock: XOMCOT_clean_sbu_1, # of connection points: 5
#     Node 14, Type 0, BuildingBlock: XOMCOT_clean_sbu_1, # of connection points: 5
#     Node 15, Type 0, BuildingBlock: XOMCOT_clean_sbu_1, # of connection points: 5
#     Edge 16, Type (0, 0), BuildingBlock: UVAHIK_clean_linker_0, # of connection points: 2
#     Edge 17, Type (0, 0), BuildingBlock: UVAHIK_clean_linker_0, # of connection points: 2
#     Edge 18, Type (0, 0), BuildingBlock: UVAHIK_clean_linker_0, # of connection points: 2
#     Edge 19, Type (0, 0), BuildingBlock: UVAHIK_clean_linker_0, # of connection points: 2
#     Edge 20, Type (0, 0), BuildingBlock: UVAHIK_clean_linker_0, # of connection points: 2
#     Edge 21, Type (0, 0), BuildingBlock: UVAHIK_clean_linker_0, # of connection points: 2
#     Edge 22, Type (0, 0), BuildingBlock: UVAHIK_clean_linker_0, # of connection points: 2
#     Edge 23, Type (0, 0), BuildingBlock: UVAHIK_clean_linker_0, # of connection points: 2
#     Edge 24, Type (0, 0), BuildingBlock: UVAHIK_clean_linker_0, # of connection points: 2
#     Edge 25, Type (0, 0), BuildingBlock: UVAHIK_clean_linker_0, # of connection points: 2
#     Edge 26, Type (0, 0), BuildingBlock: UVAHIK_clean_linker_0, # of connection points: 2
#     Edge 27, Type (0, 0), BuildingBlock: UVAHIK_clean_linker_0, # of connection points: 2
#     Edge 28, Type (0, 0), BuildingBlock: UVAHIK_clean_linker_0, # of connection points: 2
#     Edge 29, Type (0, 0), BuildingBlock: UVAHIK_clean_linker_0, # of connection points: 2
#     Edge 30, Type (0, 0), BuildingBlock: UVAHIK_clean_linker_0, # of connection points: 2
#     Edge 31, Type (0, 0), BuildingBlock: UVAHIK_clean_linker_0, # of connection points: 2
#     Edge 32, Type (0, 0), BuildingBlock: UVAHIK_clean_linker_0, # of connection points: 2
#     Edge 33, Type (0, 0), BuildingBlock: UVAHIK_clean_linker_0, # of connection points: 2
#     Edge 34, Type (0, 0), BuildingBlock: UVAHIK_clean_linker_0, # of connection points: 2
#     Edge 35, Type (0, 0), BuildingBlock: UVAHIK_clean_linker_0, # of connection points: 2
#     Edge 36, Type (0, 0), BuildingBlock: UVAHIK_clean_linker_0, # of connection points: 2
#     Edge 37, Type (0, 0), BuildingBlock: UVAHIK_clean_linker_0, # of connection points: 2
#     Edge 38, Type (0, 0), BuildingBlock: UVAHIK_clean_linker_0, # of connection points: 2
#     Edge 39, Type (0, 0), BuildingBlock: UVAHIK_clean_linker_0, # of connection points: 2
#     Edge 40, Type (0, 0), BuildingBlock: UVAHIK_clean_linker_0, # of connection points: 2
#     Edge 41, Type (0, 0), BuildingBlock: UVAHIK_clean_linker_0, # of connection points: 2
#     Edge 42, Type (0, 0), BuildingBlock: UVAHIK_clean_linker_0, # of connection points: 2
#     Edge 43, Type (0, 0), BuildingBlock: UVAHIK_clean_linker_0, # of connection points: 2
#     Edge 44, Type (0, 0), BuildingBlock: UVAHIK_clean_linker_0, # of connection points: 2
#     Edge 45, Type (0, 0), BuildingBlock: UVAHIK_clean_linker_0, # of connection points: 2
#     Edge 46, Type (0, 0), BuildingBlock: UVAHIK_clean_linker_0, # of connection points: 2
#     Edge 47, Type (0, 0), BuildingBlock: UVAHIK_clean_linker_0, # of connection points: 2
#     Edge 48, Type (0, 0), BuildingBlock: UVAHIK_clean_linker_0, # of connection points: 2
#     Edge 49, Type (0, 0), BuildingBlock: UVAHIK_clean_linker_0, # of connection points: 2
#     Edge 50, Type (0, 0), BuildingBlock: UVAHIK_clean_linker_0, # of connection points: 2
#     Edge 51, Type (0, 0), BuildingBlock: UVAHIK_clean_linker_0, # of connection points: 2
#     Edge 52, Type (0, 0), BuildingBlock: UVAHIK_clean_linker_0, # of connection points: 2
#     Edge 53, Type (0, 0), BuildingBlock: UVAHIK_clean_linker_0, # of connection points: 2
#     Edge 54, Type (0, 0), BuildingBlock: UVAHIK_clean_linker_0, # of connection points: 2
#     Edge 55, Type (0, 0), BuildingBlock: UVAHIK_clean_linker_0, # of connection points: 2
# Relax obj value: 0.110
# Max RMSD: 0.130
# Mean RMSD: 0.130
data_MOF--net-wgb--node1-XOMCOT_clean_sbu_1--edge1-UVAHIK_clean_linker_0
_symmetry_space_group_name_H-M    P1
_symmetry_Int_Tables_number       1
_symmetry_cell_setting            triclinic
loop_
_symmetry_equiv_pos_as_xyz
'x, y, z'
_cell_length_a     73.974289
_cell_length_b     73.864449
_cell_length_c     33.311325
_cell_angle_alpha  90.06001
_cell_angle_beta   90.015404
_cell_angle_gamma 90.028459
loop_
_atom_site_label
_atom_site_type_symbol
_atom_site_fract_x
_atom_site_fract_y
_atom_site_fract_z
_atom_type_partial_charge
C0 C 0.36507 0.08449 0.1184 0.0
C1 C 0.37164 0.06709 0.12056 0.0
N2 N 0.36561 0.05954 0.15488 0.0
N3 N 0.35486 0.08784 0.15101 0.0
C4 C 0.35554 0.07248 0.17287 0.0
H5 H 0.36752 0.09411 0.09456 0.0
Co6 Co 0.34323 0.10957 0.16113 0.0
C7 C 0.309 0.09774 0.19913 0.0
O8 O 0.30035 0.10713 0.17167 0.0
N9 N 0.33231 0.1323 0.17202 0.0
C10 C 0.31882 0.15554 0.20276 0.0
C11 C 0.32215 0.13727 0.20405 0.0
C12 C 0.33605 0.14821 0.15361 0.0
N13 N 0.32764 0.16235 0.17103 0.0
O14 O 0.36015 0.11439 0.20307 0.0
H15 H 0.31831 0.12861 0.22866 0.0
H16 H 0.34546 0.14965 0.12901 0.0
O17 O 0.32636 0.09755 0.19912 0.0
C18 C 0.37335 0.1233 0.18841 0.0
O19 O 0.37291 0.12742 0.15005 0.0
N20 N 0.32782 0.10491 0.11666 0.0
C21 C 0.30926 0.09756 0.0452 0.0
C22 C 0.30982 0.08473 0.07619 0.0
C23 C 0.31941 0.08855 0.11137 0.0
C24 C 0.32809 0.11707 0.08595 0.0
C25 C 0.31855 0.11392 0.05061 0.0
H26 H 0.32034 0.07817 0.13412 0.0
H27 H 0.33638 0.12895 0.0876 0.0
H28 H 0.34856 0.07076 0.20112 0.0
H29 H 0.38035 0.06063 0.09876 0.0
H30 H 0.31141 0.16339 0.22475 0.0
H31 H 0.30339 0.07164 0.07289 0.0
H32 H 0.31872 0.12422 0.02751 0.0
C33 C 0.07589 0.64181 0.87542 0.0
C34 C 0.05791 0.63722 0.87481 0.0
N35 N 0.05092 0.64228 0.83916 0.0
N36 N 0.08026 0.64985 0.84049 0.0
C37 C 0.06482 0.6499 0.81886 0.0
H38 H 0.08526 0.63937 0.89973 0.0
Co39 Co 0.1034 0.65757 0.82815 0.0
C40 C 0.09926 0.69082 0.78083 0.0
O41 O 0.11172 0.69801 0.80408 0.0
N42 N 0.12733 0.66461 0.81534 0.0
C43 C 0.15163 0.66997 0.77757 0.0
C44 C 0.13343 0.6664 0.77726 0.0
C45 C 0.14237 0.66658 0.83816 0.0
N46 N 0.15725 0.67002 0.81594 0.0
O47 O 0.10535 0.63862 0.78956 0.0
H48 H 0.12519 0.66474 0.75067 0.0
H49 H 0.14272 0.66512 0.8703 0.0
O50 O 0.09411 0.67446 0.78687 0.0
C51 C 0.1123 0.6249 0.80674 0.0
O52 O 0.11656 0.62625 0.84495 0.0
N53 N 0.10136 0.67488 0.86934 0.0
C54 C 0.09685 0.69537 0.93894 0.0
C55 C 0.08673 0.69922 0.90447 0.0
C56 C 0.08874 0.68841 0.87036 0.0
C57 C 0.11041 0.67031 0.90348 0.0
C58 C 0.10867 0.68057 0.93836 0.0
H59 H 0.0796 0.69052 0.84556 0.0
H60 H 0.11834 0.65804 0.90428 0.0
H61 H 0.06393 0.65504 0.78852 0.0
H62 H 0.05056 0.63078 0.89899 0.0
H63 H 0.16021 0.67161 0.7515 0.0
H64 H 0.07677 0.70998 0.90446 0.0
H65 H 0.11628 0.67677 0.96482 0.0
C66 C 0.64198 0.92624 0.13319 0.0
C67 C 0.63867 0.94455 0.13463 0.0
N68 N 0.64787 0.95164 0.1659 0.0
N69 N 0.65323 0.92174 0.1633 0.0
C70 C 0.65655 0.93744 0.18285 0.0
H71 H 0.63648 0.91674 0.11169 0.0
Co72 Co 0.6611 0.89828 0.17287 0.0
C73 C 0.69545 0.90215 0.21614 0.0
O74 O 0.70237 0.89033 0.19095 0.0
N75 N 0.66845 0.87405 0.18337 0.0
C76 C 0.67458 0.84958 0.22012 0.0
C77 C 0.67143 0.86786 0.22101 0.0
C78 C 0.6693 0.85893 0.16027 0.0
N79 N 0.6732 0.84393 0.18188 0.0
O80 O 0.64302 0.89578 0.21318 0.0
H81 H 0.67071 0.87606 0.24788 0.0
H82 H 0.66658 0.8586 0.12851 0.0
O83 O 0.67887 0.90693 0.21278 0.0
C84 C 0.62967 0.88749 0.19749 0.0
O85 O 0.6309 0.88248 0.1597 0.0
N86 N 0.67737 0.90086 0.12999 0.0
C87 C 0.697 0.90503 0.05916 0.0
C88 C 0.70106 0.91556 0.09304 0.0
C89 C 0.6907 0.91366 0.12781 0.0
C90 C 0.67234 0.89169 0.09632 0.0
C91 C 0.68222 0.89319 0.06089 0.0
H92 H 0.69315 0.92282 0.15249 0.0
H93 H 0.66015 0.88365 0.09648 0.0
H94 H 0.66529 0.93845 0.20877 0.0
H95 H 0.62986 0.95194 0.11457 0.0
H96 H 0.67682 0.84098 0.24593 0.0
H97 H 0.71176 0.92556 0.09227 0.0
H98 H 0.67822 0.88522 0.03506 0.0
C99 C 0.92213 0.36664 0.86957 0.0
C100 C 0.93956 0.37299 0.86699 0.0
N101 N 0.94708 0.36636 0.83318 0.0
N102 N 0.91863 0.356 0.83765 0.0
C103 C 0.934 0.35623 0.81574 0.0
H104 H 0.91274 0.36912 0.89385 0.0
Co105 Co 0.89699 0.34348 0.8306 0.0
C106 C 0.91466 0.31175 0.78624 0.0
O107 O 0.91516 0.30108 0.81763 0.0
N108 N 0.8747 0.33137 0.82351 0.0
C109 C 0.85341 0.31029 0.81662 0.0
C110 C 0.87159 0.3138 0.81445 0.0
C111 C 0.85803 0.33825 0.83073 0.0
N112 N 0.84489 0.32566 0.82711 0.0
O113 O 0.89035 0.36042 0.78985 0.0
H114 H 0.88173 0.30375 0.80839 0.0
H115 H 0.85565 0.35194 0.84095 0.0
O116 O 0.90793 0.32771 0.78881 0.0
C117 C 0.88362 0.37459 0.80573 0.0
O118 O 0.88189 0.37509 0.845 0.0
N119 N 0.90314 0.32818 0.87416 0.0
C120 C 0.91059 0.30971 0.94526 0.0
C121 C 0.92415 0.3123 0.91659 0.0
C122 C 0.9203 0.32212 0.8818 0.0
C123 C 0.89014 0.32652 0.90301 0.0
C124 C 0.89349 0.31715 0.93847 0.0
H125 H 0.93111 0.32462 0.86071 0.0
H126 H 0.87714 0.33292 0.89932 0.0
H127 H 0.93566 0.34885 0.78792 0.0
H128 H 0.94635 0.38126 0.88919 0.0
H129 H 0.847 0.29729 0.81187 0.0
H130 H 0.93768 0.30716 0.92148 0.0
H131 H 0.88279 0.31578 0.96047 0.0
C132 C 0.35876 0.42738 0.13277 0.0
C133 C 0.36514 0.44486 0.1338 0.0
N134 N 0.36137 0.45276 0.09829 0.0
N135 N 0.35087 0.42432 0.09697 0.0
C136 C 0.35279 0.43994 0.07644 0.0
H137 H 0.35985 0.41745 0.15649 0.0
Co138 Co 0.34085 0.40241 0.0815 0.0
C139 C 0.30785 0.41375 0.03813 0.0
O140 O 0.29865 0.40341 0.06288 0.0
N141 N 0.33174 0.37953 0.06532 0.0
C142 C 0.32054 0.3564 0.02996 0.0
C143 C 0.32287 0.37483 0.03125 0.0
C144 C 0.33586 0.36343 0.08237 0.0
N145 N 0.32878 0.34929 0.06217 0.0
O146 O 0.35985 0.39959 0.04314 0.0
H147 H 0.31916 0.38389 0.00727 0.0
H148 H 0.34435 0.36195 0.10858 0.0
O149 O 0.32515 0.41464 0.04126 0.0
C150 C 0.37293 0.39114 0.05955 0.0
O151 O 0.37119 0.38608 0.09717 0.0
N152 N 0.3231 0.40514 0.12263 0.0
C153 C 0.29936 0.40941 0.18706 0.0
C154 C 0.30232 0.42367 0.16031 0.0
C155 C 0.31434 0.42129 0.12837 0.0
C156 C 0.32115 0.39166 0.15029 0.0
C157 C 0.30898 0.3933 0.18198 0.0
H158 H 0.31659 0.4325 0.10814 0.0
H159 H 0.32944 0.37978 0.14916 0.0
H160 H 0.34788 0.44186 0.04615 0.0
H161 H 0.37233 0.45111 0.15848 0.0
H162 H 0.31406 0.34872 0.00628 0.0
H163 H 0.29537 0.43647 0.16397 0.0
H164 H 0.30756 0.38228 0.20321 0.0
C165 C 0.42422 0.64732 0.87026 0.0
C166 C 0.44234 0.64337 0.86926 0.0
N167 N 0.45005 0.64984 0.90307 0.0
N168 N 0.42043 0.65628 0.90443 0.0
C169 C 0.43638 0.6576 0.92393 0.0
H170 H 0.4143 0.6436 0.84786 0.0
Co171 Co 0.39728 0.66318 0.91889 0.0
C172 C 0.4013 0.69695 0.96461 0.0
O173 O 0.38839 0.70374 0.94206 0.0
N174 N 0.37339 0.66938 0.9339 0.0
C175 C 0.3496 0.67421 0.97361 0.0
C176 C 0.36796 0.67153 0.97239 0.0
C177 C 0.35785 0.67021 0.91248 0.0
N178 N 0.34326 0.6733 0.93585 0.0
O179 O 0.39687 0.64442 0.95807 0.0
H180 H 0.37676 0.67069 0.99825 0.0
H181 H 0.35694 0.66814 0.88057 0.0
O182 O 0.40671 0.68066 0.95888 0.0
C183 C 0.39101 0.63006 0.94134 0.0
O184 O 0.38613 0.63092 0.90344 0.0
N185 N 0.39786 0.68027 0.87706 0.0
C186 C 0.39988 0.70073 0.80684 0.0
C187 C 0.41086 0.7049 0.83989 0.0
C188 C 0.41005 0.69414 0.87428 0.0
C189 C 0.38819 0.67525 0.84408 0.0
C190 C 0.38859 0.68553 0.80906 0.0
H191 H 0.41973 0.69662 0.89791 0.0
H192 H 0.38075 0.66267 0.84424 0.0
H193 H 0.43785 0.66401 0.95294 0.0
H194 H 0.44913 0.6358 0.8459 0.0
H195 H 0.34146 0.67588 0.00035 0.0
H196 H 0.4205 0.71593 0.8386 0.0
H197 H 0.38034 0.68143 0.78379 0.0
C198 C 0.63915 0.57492 0.12666 0.0
C199 C 0.63511 0.55675 0.12621 0.0
N200 N 0.64281 0.54923 0.09349 0.0
N201 N 0.64937 0.57893 0.09445 0.0
C202 C 0.65134 0.56306 0.07468 0.0
H203 H 0.63485 0.58466 0.14895 0.0
Co204 Co 0.65762 0.60212 0.08302 0.0
C205 C 0.69148 0.59713 0.03852 0.0
O206 O 0.69867 0.60916 0.06288 0.0
N207 N 0.66527 0.6261 0.07068 0.0
C208 C 0.67139 0.65 0.03205 0.0
C209 C 0.66804 0.63174 0.03254 0.0
C210 C 0.66641 0.64154 0.09266 0.0
N211 N 0.67031 0.6562 0.06992 0.0
O212 O 0.63916 0.6046 0.0435 0.0
H213 H 0.66703 0.62319 0.00626 0.0
H214 H 0.66387 0.64238 0.12442 0.0
O215 O 0.67485 0.59261 0.0428 0.0
C216 C 0.62564 0.61186 0.06086 0.0
O217 O 0.62704 0.61574 0.09927 0.0
N218 N 0.67434 0.59967 0.12518 0.0
C219 C 0.69414 0.59502 0.19593 0.0
C220 C 0.69725 0.58388 0.16245 0.0
C221 C 0.68696 0.58619 0.12765 0.0
C222 C 0.67021 0.60956 0.15839 0.0
C223 C 0.68031 0.60798 0.19348 0.0
H224 H 0.6887 0.57665 0.10337 0.0
H225 H 0.65841 0.61814 0.1584 0.0
H226 H 0.659 0.56169 0.04721 0.0
H227 H 0.62683 0.54978 0.14803 0.0
H228 H 0.67353 0.65822 0.00559 0.0
H229 H 0.70707 0.57303 0.16351 0.0
H230 H 0.67702 0.61668 0.21858 0.0
C231 C 0.57672 0.36135 0.86994 0.0
C232 C 0.55952 0.36812 0.87373 0.0
N233 N 0.55278 0.36282 0.90945 0.0
N234 N 0.58086 0.35169 0.90293 0.0
C235 C 0.56611 0.35293 0.9267 0.0
H236 H 0.58556 0.36299 0.84435 0.0
Co237 Co 0.60283 0.33972 0.90945 0.0
C238 C 0.58684 0.30765 0.95515 0.0
O239 O 0.58647 0.2972 0.92332 0.0
N240 N 0.62549 0.32828 0.91602 0.0
C241 C 0.64759 0.30816 0.92353 0.0
C242 C 0.62924 0.31076 0.924 0.0
C243 C 0.64193 0.33601 0.9107 0.0
N244 N 0.65565 0.32406 0.91512 0.0
O245 O 0.60952 0.3574 0.94906 0.0
H246 H 0.61948 0.30016 0.92815 0.0
H247 H 0.64378 0.35006 0.90283 0.0
O248 O 0.59272 0.32397 0.95262 0.0
C249 C 0.61533 0.37171 0.93197 0.0
O250 O 0.61633 0.37184 0.89257 0.0
N251 N 0.59652 0.3237 0.8668 0.0
C252 C 0.58833 0.30433 0.79688 0.0
C253 C 0.57498 0.30768 0.82572 0.0
C254 C 0.57923 0.31779 0.85992 0.0
C255 C 0.6094 0.3212 0.83793 0.0
C256 C 0.60569 0.31134 0.8032 0.0
H257 H 0.5686 0.32064 0.88125 0.0
H258 H 0.6226 0.32729 0.84099 0.0
H259 H 0.56516 0.34665 0.95593 0.0
H260 H 0.55239 0.37591 0.85126 0.0
H261 H 0.65435 0.29529 0.92728 0.0
H262 H 0.56126 0.30293 0.82142 0.0
H263 H 0.61633 0.30933 0.78132 0.0
C264 C 0.86039 0.57863 0.61852 0.0
C265 C 0.86569 0.56078 0.61772 0.0
N266 N 0.85872 0.55236 0.65017 0.0
N267 N 0.8501 0.58151 0.65119 0.0
C268 C 0.84944 0.56536 0.67009 0.0
H269 H 0.86375 0.58889 0.59661 0.0
Co270 Co 0.83986 0.60367 0.66467 0.0
C271 C 0.80627 0.59273 0.70591 0.0
O272 O 0.79735 0.60295 0.68044 0.0
N273 N 0.83048 0.62673 0.67909 0.0
C274 C 0.8201 0.64999 0.7151 0.0
C275 C 0.82193 0.63153 0.71341 0.0
C276 C 0.83463 0.64281 0.66185 0.0
N277 N 0.82814 0.65714 0.68258 0.0
O278 O 0.8582 0.6069 0.70429 0.0
H279 H 0.81828 0.62249 0.73749 0.0
H280 H 0.84345 0.6441 0.63616 0.0
O281 O 0.82358 0.5919 0.70414 0.0
C282 C 0.87132 0.61546 0.68837 0.0
O283 O 0.86996 0.62023 0.65049 0.0
N284 N 0.82282 0.60052 0.62236 0.0
C285 C 0.80021 0.59566 0.55625 0.0
C286 C 0.80252 0.58172 0.58406 0.0
C287 C 0.81399 0.58438 0.61684 0.0
C288 C 0.82152 0.61367 0.59375 0.0
C289 C 0.80989 0.61174 0.56112 0.0
H290 H 0.81569 0.57342 0.63793 0.0
H291 H 0.82991 0.62549 0.59497 0.0
H292 H 0.84194 0.56314 0.69747 0.0
H293 H 0.87413 0.55462 0.59501 0.0
H294 H 0.81383 0.65751 0.73924 0.0
H295 H 0.79548 0.56895 0.58058 0.0
H296 H 0.80892 0.6225 0.53913 0.0
C297 C 0.58107 0.12954 0.33994 0.0
C298 C 0.56335 0.12508 0.33345 0.0
N299 N 0.5545 0.14007 0.32163 0.0
N300 N 0.58359 0.14724 0.33193 0.0
C301 C 0.56711 0.15335 0.32051 0.0
H302 H 0.59126 0.12058 0.35195 0.0
Co303 Co 0.60506 0.15873 0.34566 0.0
C304 C 0.60892 0.19203 0.29599 0.0
O305 O 0.61789 0.19954 0.32566 0.0
N306 N 0.6274 0.16958 0.36153 0.0
C307 C 0.64872 0.18403 0.3964 0.0
C308 C 0.6309 0.17912 0.39542 0.0
C309 C 0.64367 0.16884 0.34264 0.0
N310 N 0.6568 0.17756 0.36327 0.0
O311 O 0.61781 0.14219 0.31117 0.0
H312 H 0.62136 0.18257 0.41854 0.0
H313 H 0.6459 0.16212 0.31421 0.0
O314 O 0.60248 0.17599 0.30017 0.0
C315 C 0.626 0.12925 0.32878 0.0
O316 O 0.62662 0.12926 0.36823 0.0
N317 N 0.59196 0.1735 0.38136 0.0
C318 C 0.5777 0.19383 0.44426 0.0
C319 C 0.57633 0.19993 0.40449 0.0
C320 C 0.58332 0.18943 0.37331 0.0
C321 C 0.59115 0.16624 0.41894 0.0
C322 C 0.58439 0.17632 0.45107 0.0
H323 H 0.58187 0.19436 0.34312 0.0
H324 H 0.5972 0.15315 0.42448 0.0
H325 H 0.56417 0.1674 0.31411 0.0
H326 H 0.5573 0.11192 0.33834 0.0
H327 H 0.65536 0.19135 0.42041 0.0
H328 H 0.57038 0.21296 0.39762 0.0
H329 H 0.58554 0.1709 0.48114 0.0
C330 C 0.13804 0.41985 0.62195 0.0
C331 C 0.1322 0.43752 0.62177 0.0
N332 N 0.13957 0.44613 0.65354 0.0
N333 N 0.1491 0.41732 0.65353 0.0
C334 C 0.14968 0.43348 0.67242 0.0
H335 H 0.13448 0.40944 0.60048 0.0
Co336 Co 0.15999 0.39546 0.66603 0.0
C337 C 0.19474 0.40684 0.70211 0.0
O338 O 0.20286 0.39643 0.67565 0.0
N339 N 0.17012 0.3726 0.67942 0.0
C340 C 0.18277 0.3497 0.71295 0.0
C341 C 0.17994 0.36806 0.71226 0.0
C342 C 0.16607 0.35641 0.66251 0.0
N343 N 0.17397 0.34242 0.68164 0.0
O344 O 0.14292 0.39235 0.70851 0.0
H345 H 0.18393 0.37719 0.73597 0.0
H346 H 0.15682 0.35468 0.6377 0.0
O347 O 0.1774 0.40771 0.70263 0.0
C348 C 0.12958 0.38322 0.69516 0.0
O349 O 0.13014 0.37749 0.65782 0.0
N350 N 0.17551 0.39855 0.62098 0.0
C351 C 0.19441 0.40389 0.54902 0.0
C352 C 0.19401 0.4174 0.57861 0.0
C353 C 0.1843 0.41457 0.61403 0.0
C354 C 0.17506 0.38571 0.59157 0.0
C355 C 0.18477 0.38785 0.55607 0.0
H356 H 0.18364 0.42546 0.63567 0.0
H357 H 0.16653 0.37406 0.59435 0.0
H358 H 0.1576 0.43595 0.69914 0.0
H359 H 0.12303 0.44343 0.60013 0.0
H360 H 0.18989 0.34216 0.7359 0.0
H361 H 0.20066 0.4303 0.57405 0.0
H362 H 0.18445 0.37704 0.53412 0.0
C363 C 0.42699 0.85992 0.39322 0.0
C364 C 0.44523 0.86343 0.39389 0.0
N365 N 0.45198 0.86007 0.35705 0.0
N366 N 0.42227 0.85423 0.35624 0.0
C367 C 0.43772 0.85452 0.33478 0.0
H368 H 0.4177 0.86162 0.41798 0.0
Co369 Co 0.3989 0.84899 0.34011 0.0
C370 C 0.40158 0.81612 0.29083 0.0
O371 O 0.38801 0.80965 0.31193 0.0
N372 N 0.37491 0.84448 0.32316 0.0
C373 C 0.35161 0.84183 0.28114 0.0
C374 C 0.37002 0.84357 0.2841 0.0
C375 C 0.35901 0.84387 0.34324 0.0
N376 N 0.34464 0.84206 0.31844 0.0
O377 O 0.39981 0.86863 0.30312 0.0
H378 H 0.37928 0.84447 0.25906 0.0
H379 H 0.35771 0.84564 0.37516 0.0
O380 O 0.40782 0.83194 0.29866 0.0
C381 C 0.39493 0.88298 0.32129 0.0
O382 O 0.39075 0.88181 0.35957 0.0
N383 N 0.39809 0.83088 0.37985 0.0
C384 C 0.39882 0.80886 0.44789 0.0
C385 C 0.40991 0.80502 0.41485 0.0
C386 C 0.40974 0.81651 0.3816 0.0
C387 C 0.38815 0.83539 0.41277 0.0
C388 C 0.38793 0.82436 0.44667 0.0
H389 H 0.41957 0.81425 0.3582 0.0
H390 H 0.38116 0.84821 0.41375 0.0
H391 H 0.43835 0.85129 0.30312 0.0
H392 H 0.45288 0.86811 0.41958 0.0
H393 H 0.34403 0.84064 0.2535 0.0
H394 H 0.41925 0.79374 0.41544 0.0
H395 H 0.3796 0.82819 0.47204 0.0
C396 C 0.85765 0.92898 0.64385 0.0
C397 C 0.86155 0.94716 0.64214 0.0
N398 N 0.8579 0.95312 0.60474 0.0
N399 N 0.85144 0.9235 0.60783 0.0
C400 C 0.85179 0.93843 0.58457 0.0
H401 H 0.85966 0.92018 0.6694 0.0
Co402 Co 0.84599 0.89979 0.59423 0.0
C403 C 0.81293 0.90187 0.54564 0.0
O404 O 0.80635 0.88875 0.56793 0.0
N405 N 0.84128 0.87545 0.57969 0.0
C406 C 0.83842 0.85147 0.53953 0.0
C407 C 0.83997 0.86994 0.54108 0.0
C408 C 0.8411 0.85982 0.60094 0.0
N409 N 0.8392 0.84504 0.57727 0.0
O410 O 0.86523 0.89995 0.5564 0.0
H411 H 0.84055 0.87882 0.51531 0.0
H412 H 0.84332 0.859 0.63282 0.0
O413 O 0.82883 0.90802 0.55266 0.0
C414 C 0.88004 0.89585 0.57356 0.0
O415 O 0.87981 0.89245 0.61228 0.0
N416 N 0.82812 0.89987 0.6345 0.0
C417 C 0.80599 0.90189 0.70219 0.0
C418 C 0.80245 0.91262 0.66844 0.0
C419 C 0.81399 0.9118 0.63537 0.0
C420 C 0.83242 0.89032 0.66812 0.0
C421 C 0.82132 0.89075 0.70192 0.0
H422 H 0.81192 0.92133 0.61126 0.0
H423 H 0.84508 0.88311 0.66966 0.0
H424 H 0.84791 0.9384 0.55327 0.0
H425 H 0.8673 0.95515 0.6662 0.0
H426 H 0.83705 0.84345 0.51252 0.0
H427 H 0.79133 0.92215 0.66825 0.0
H428 H 0.82494 0.8827 0.72786 0.0
C429 C 0.92826 0.1415 0.36213 0.0
C430 C 0.94634 0.13737 0.36314 0.0
N431 N 0.9536 0.14476 0.39651 0.0
N432 N 0.92403 0.15147 0.39462 0.0
C433 C 0.93968 0.15322 0.41517 0.0
H434 H 0.9187 0.13741 0.33929 0.0
Co435 Co 0.90072 0.15944 0.40458 0.0
C436 C 0.9044 0.1931 0.45106 0.0
O437 O 0.89287 0.20045 0.42586 0.0
N438 N 0.87659 0.16668 0.41486 0.0
C439 C 0.85203 0.17335 0.4507 0.0
C440 C 0.87014 0.16953 0.45235 0.0
C441 C 0.86175 0.168 0.39111 0.0
N442 N 0.84677 0.17234 0.41218 0.0
O443 O 0.89788 0.14075 0.44344 0.0
H444 H 0.87805 0.16849 0.47955 0.0
H445 H 0.86158 0.16545 0.35926 0.0
O446 O 0.90925 0.17654 0.44657 0.0
C447 C 0.89168 0.12656 0.42663 0.0
O448 O 0.88803 0.12719 0.38803 0.0
N449 N 0.9038 0.1766 0.36337 0.0
C450 C 0.90931 0.19828 0.29607 0.0
C451 C 0.91945 0.20105 0.331 0.0
C452 C 0.91696 0.18963 0.36383 0.0
C453 C 0.89495 0.17282 0.32848 0.0
C454 C 0.89721 0.1837 0.29464 0.0
H455 H 0.92594 0.19107 0.38917 0.0
H456 H 0.88667 0.16083 0.32629 0.0
H457 H 0.94084 0.16061 0.44309 0.0
H458 H 0.95345 0.12919 0.34131 0.0
H459 H 0.84322 0.17596 0.47602 0.0
H460 H 0.92963 0.21158 0.33245 0.0
H461 H 0.88965 0.18067 0.2676 0.0
C462 C 0.14356 0.07627 0.62627 0.0
C463 C 0.13758 0.05866 0.6254 0.0
N464 N 0.1425 0.05123 0.59004 0.0
N465 N 0.15228 0.07995 0.59176 0.0
C466 C 0.15131 0.06452 0.57009 0.0
H467 H 0.14169 0.08585 0.65049 0.0
Co468 Co 0.16241 0.10231 0.57987 0.0
C469 C 0.19602 0.09189 0.53771 0.0
O470 O 0.20492 0.10157 0.56432 0.0
N471 N 0.17159 0.12561 0.56752 0.0
C472 C 0.1835 0.14973 0.53708 0.0
C473 C 0.1814 0.13127 0.53556 0.0
C474 C 0.16674 0.1412 0.58603 0.0
N475 N 0.17424 0.15591 0.56887 0.0
O476 O 0.14394 0.10616 0.54071 0.0
H477 H 0.18599 0.1229 0.51109 0.0
H478 H 0.15756 0.14184 0.61127 0.0
O479 O 0.17869 0.09116 0.53917 0.0
C480 C 0.13025 0.11303 0.55824 0.0
O481 O 0.1313 0.11604 0.59708 0.0
N482 N 0.1796 0.09856 0.62176 0.0
C483 C 0.20288 0.09294 0.68642 0.0
C484 C 0.20004 0.07921 0.65823 0.0
C485 C 0.18825 0.08225 0.62618 0.0
C486 C 0.18137 0.11146 0.65085 0.0
C487 C 0.19332 0.10914 0.68276 0.0
H488 H 0.1862 0.0715 0.60464 0.0
H489 H 0.1732 0.12343 0.65053 0.0
H490 H 0.15715 0.06304 0.54052 0.0
H491 H 0.12995 0.05198 0.6488 0.0
H492 H 0.19062 0.15807 0.51553 0.0
H493 H 0.20699 0.06636 0.66076 0.0
H494 H 0.1947 0.11975 0.70505 0.0
C495 C 0.07673 0.85743 0.35914 0.0
C496 C 0.05918 0.86352 0.36031 0.0
N497 N 0.05241 0.86005 0.39709 0.0
N498 N 0.08095 0.85002 0.39486 0.0
C499 C 0.06595 0.8519 0.41747 0.0
H500 H 0.08596 0.85855 0.33408 0.0
Co501 Co 0.10346 0.84096 0.40841 0.0
C502 C 0.09489 0.80708 0.45111 0.0
O503 O 0.10611 0.79882 0.42659 0.0
N504 N 0.12681 0.8327 0.4227 0.0
C505 C 0.1504 0.82394 0.45951 0.0
C506 C 0.13196 0.82567 0.4584 0.0
C507 C 0.14264 0.83621 0.40388 0.0
N508 N 0.15718 0.83063 0.42512 0.0
O509 O 0.10588 0.85954 0.44776 0.0
H510 H 0.12311 0.82294 0.48344 0.0
H511 H 0.14366 0.84412 0.37677 0.0
O512 O 0.09246 0.82424 0.4482 0.0
C513 C 0.11246 0.87341 0.43039 0.0
O514 O 0.1165 0.87214 0.39206 0.0
N515 N 0.10105 0.82382 0.36634 0.0
C516 C 0.09633 0.80256 0.29779 0.0
C517 C 0.0837 0.80196 0.32906 0.0
C518 C 0.08604 0.81309 0.36253 0.0
C519 C 0.11285 0.82523 0.33508 0.0
C520 C 0.11096 0.8145 0.30091 0.0
H521 H 0.07552 0.81336 0.38502 0.0
H522 H 0.12323 0.83538 0.33528 0.0
H523 H 0.06504 0.84744 0.44833 0.0
H524 H 0.05216 0.87044 0.33631 0.0
H525 H 0.15815 0.81868 0.48443 0.0
H526 H 0.07179 0.79347 0.327 0.0
H527 H 0.12073 0.81576 0.27685 0.0
C528 C 0.30667 0.08487 0.26897 0.0
C529 C 0.29842 0.08991 0.23267 0.0
C530 C 0.29607 0.08 0.30217 0.0
C531 C 0.24896 0.06811 0.33381 0.0
H532 H 0.26282 0.09217 0.43251 0.0
C533 C 0.19928 0.08388 0.46466 0.0
C534 C 0.20639 0.0843 0.50373 0.0
C535 C 0.21064 0.08033 0.43182 0.0
C536 C 0.25885 0.08503 0.40549 0.0
H537 H 0.27267 0.09262 0.202 0.0
H538 H 0.25437 0.08439 0.25953 0.0
H539 H 0.28295 0.09316 0.37511 0.0
H540 H 0.23041 0.07973 0.53956 0.0
H541 H 0.24996 0.073 0.48281 0.0
H542 H 0.22453 0.06048 0.36415 0.0
C543 C 0.26894 0.08407 0.26261 0.0
C544 C 0.27047 0.08558 0.37248 0.0
C545 C 0.27948 0.08896 0.22961 0.0
C546 C 0.22462 0.07974 0.50967 0.0
C547 C 0.23586 0.07601 0.4771 0.0
C548 C 0.23729 0.06757 0.36693 0.0
C549 C 0.27705 0.07998 0.29964 0.0
C550 C 0.26558 0.07738 0.33599 0.0
C551 C 0.22923 0.07699 0.43764 0.0
C552 C 0.242 0.07622 0.40305 0.0
H553 H 0.32123 0.08539 0.27225 0.0
H554 H 0.30277 0.07667 0.33012 0.0
H555 H 0.24485 0.06146 0.30629 0.0
H556 H 0.18529 0.08747 0.45926 0.0
H557 H 0.20507 0.08125 0.40182 0.0
C558 C 0.0818 0.7783 0.47593 0.0
C559 C 0.08662 0.79635 0.48354 0.0
C560 C 0.07727 0.76671 0.50739 0.0
C561 C 0.06871 0.76443 0.61813 0.0
H562 H 0.09135 0.71735 0.60639 0.0
C563 C 0.09301 0.72095 0.75047 0.0
C564 C 0.09149 0.702 0.74834 0.0
C565 C 0.0876 0.73179 0.71842 0.0
C566 C 0.08461 0.73027 0.60994 0.0
H567 H 0.08961 0.8168 0.52957 0.0
H568 H 0.08237 0.7964 0.58509 0.0
H569 H 0.09067 0.73796 0.54979 0.0
H570 H 0.08238 0.67957 0.71159 0.0
H571 H 0.07313 0.69863 0.65482 0.0
H572 H 0.06361 0.7569 0.67926 0.0
C573 C 0.08162 0.79122 0.55473 0.0
C574 C 0.08418 0.74216 0.57738 0.0
C575 C 0.0858 0.80295 0.52298 0.0
C576 C 0.08372 0.69414 0.71402 0.0
C577 C 0.07851 0.70503 0.68155 0.0
C578 C 0.0693 0.75257 0.65087 0.0
C579 C 0.07791 0.77276 0.54741 0.0
C580 C 0.07651 0.75954 0.58115 0.0
C581 C 0.0807 0.72396 0.68319 0.0
C582 C 0.07757 0.73549 0.64731 0.0
H583 H 0.08214 0.77296 0.44562 0.0
H584 H 0.07394 0.75278 0.50037 0.0
H585 H 0.06242 0.77755 0.62203 0.0
H586 H 0.09881 0.72744 0.77666 0.0
H587 H 0.08965 0.74629 0.72052 0.0
C588 C 0.80962 0.91636 0.4779 0.0
C589 C 0.80173 0.90913 0.51271 0.0
C590 C 0.7988 0.92091 0.44489 0.0
C591 C 0.75187 0.93002 0.41228 0.0
H592 H 0.76548 0.90424 0.3156 0.0
C593 C 0.70068 0.9124 0.28686 0.0
C594 C 0.70716 0.90965 0.24779 0.0
C595 C 0.7127 0.91666 0.318 0.0
C596 C 0.76158 0.91197 0.34182 0.0
H597 H 0.77638 0.90214 0.54146 0.0
H598 H 0.75756 0.91036 0.48432 0.0
H599 H 0.78605 0.90489 0.37227 0.0
H600 H 0.73082 0.91069 0.20963 0.0
H601 H 0.75158 0.9191 0.26309 0.0
H602 H 0.72732 0.93701 0.38201 0.0
C603 C 0.77203 0.9124 0.48227 0.0
C604 C 0.77343 0.91228 0.37442 0.0
C605 C 0.78283 0.90755 0.51485 0.0
C606 C 0.72556 0.91247 0.23973 0.0
C607 C 0.73747 0.91714 0.27051 0.0
C608 C 0.74008 0.92995 0.37939 0.0
C609 C 0.77992 0.91866 0.44658 0.0
C610 C 0.76853 0.92093 0.41029 0.0
C611 C 0.73137 0.9186 0.31038 0.0
C612 C 0.7446 0.92056 0.34398 0.0
H613 H 0.82417 0.91768 0.47551 0.0
H614 H 0.80519 0.92576 0.4177 0.0
H615 H 0.74781 0.93688 0.43958 0.0
H616 H 0.68654 0.9102 0.29377 0.0
H617 H 0.70745 0.91749 0.34827 0.0
C618 C 0.90684 0.30599 0.71436 0.0
C619 C 0.91864 0.30355 0.74685 0.0
C620 C 0.90835 0.29504 0.68014 0.0
C621 C 0.92781 0.25046 0.64916 0.0
H622 H 0.91012 0.26534 0.54495 0.0
C623 C 0.91095 0.19869 0.5237 0.0
C624 C 0.91157 0.20448 0.48369 0.0
C625 C 0.91446 0.21095 0.55493 0.0
C626 C 0.91548 0.26093 0.57355 0.0
H627 H 0.94202 0.28884 0.7682 0.0
H628 H 0.9455 0.27064 0.70771 0.0
H629 H 0.91227 0.28738 0.59849 0.0
H630 H 0.91751 0.22701 0.44443 0.0
H631 H 0.92485 0.24802 0.49831 0.0
H632 H 0.93175 0.22418 0.6237 0.0
C633 C 0.93451 0.28029 0.70901 0.0
C634 C 0.91638 0.2736 0.60469 0.0
C635 C 0.93271 0.29091 0.74351 0.0
C636 C 0.91684 0.2223 0.4752 0.0
C637 C 0.9208 0.2344 0.5062 0.0
C638 C 0.92724 0.23786 0.61778 0.0
C639 C 0.92194 0.28168 0.67741 0.0
C640 C 0.9223 0.26853 0.64318 0.0
C641 C 0.91901 0.22914 0.54662 0.0
C642 C 0.92083 0.24282 0.57959 0.0
H643 H 0.8957 0.31545 0.71651 0.0
H644 H 0.89824 0.29647 0.65688 0.0
H645 H 0.93216 0.2458 0.67839 0.0
H646 H 0.90667 0.18504 0.53089 0.0
H647 H 0.91271 0.20633 0.5855 0.0
C648 C 0.30676 0.42469 0.9666 0.0
C649 C 0.29809 0.42157 0.00345 0.0
C650 C 0.29655 0.4286 0.93216 0.0
C651 C 0.25005 0.44055 0.89623 0.0
H652 H 0.26276 0.40996 0.80603 0.0
C653 C 0.19918 0.41858 0.77241 0.0
C654 C 0.20595 0.41539 0.73367 0.0
C655 C 0.21092 0.42361 0.80361 0.0
C656 C 0.25914 0.4189 0.83052 0.0
H657 H 0.27218 0.42156 0.03387 0.0
H658 H 0.25453 0.42827 0.97435 0.0
H659 H 0.28301 0.41194 0.86316 0.0
H660 H 0.22994 0.41645 0.69638 0.0
H661 H 0.25019 0.42567 0.75014 0.0
H662 H 0.22584 0.44703 0.86385 0.0
C663 C 0.26911 0.42775 0.97164 0.0
C664 C 0.27083 0.42006 0.86336 0.0
C665 C 0.27925 0.42375 0.00581 0.0
C666 C 0.22437 0.41854 0.72611 0.0
C667 C 0.23601 0.42372 0.75701 0.0
C668 C 0.23833 0.4394 0.86327 0.0
C669 C 0.27754 0.42962 0.9341 0.0
C670 C 0.2663 0.43062 0.89699 0.0
C671 C 0.2296 0.42568 0.79647 0.0
C672 C 0.24259 0.42832 0.83025 0.0
H673 H 0.32126 0.42309 0.96388 0.0
H674 H 0.30349 0.43021 0.90377 0.0
H675 H 0.24624 0.44898 0.92146 0.0
H676 H 0.18505 0.41619 0.77912 0.0
H677 H 0.2055 0.42493 0.83367 0.0
C678 C 0.40774 0.78585 0.26113 0.0
C679 C 0.40919 0.80478 0.25845 0.0
C680 C 0.41264 0.77485 0.22885 0.0
C681 C 0.41251 0.77566 0.12079 0.0
H682 H 0.4368 0.72931 0.12971 0.0
C683 C 0.41231 0.72698 0.98724 0.0
C684 C 0.40938 0.70862 0.99568 0.0
C685 C 0.41712 0.73902 0.01773 0.0
C686 C 0.42986 0.74213 0.1267 0.0
H687 H 0.41761 0.82706 0.22061 0.0
H688 H 0.4258 0.80773 0.16331 0.0
H689 H 0.43677 0.75017 0.18672 0.0
H690 H 0.40985 0.68816 0.04204 0.0
H691 H 0.41742 0.7093 0.09607 0.0
H692 H 0.4045 0.76742 0.06213 0.0
C693 C 0.421 0.80146 0.1907 0.0
C694 C 0.42999 0.75414 0.15929 0.0
C695 C 0.4164 0.8125 0.22343 0.0
C696 C 0.41219 0.70227 0.03484 0.0
C697 C 0.41658 0.71443 0.06571 0.0
C698 C 0.41215 0.76359 0.08848 0.0
C699 C 0.41883 0.78254 0.19288 0.0
C700 C 0.42107 0.7709 0.15685 0.0
C701 C 0.41859 0.7331 0.05774 0.0
C702 C 0.42059 0.74652 0.0911 0.0
H703 H 0.40234 0.77953 0.2879 0.0
H704 H 0.41066 0.76036 0.23134 0.0
H705 H 0.40524 0.78833 0.11825 0.0
H706 H 0.41042 0.73213 0.95708 0.0
H707 H 0.41914 0.75311 0.00999 0.0
C708 C 0.72168 0.59127 0.00808 0.0
C709 C 0.70278 0.58951 0.006 0.0
C710 C 0.73257 0.58594 0.976 0.0
C711 C 0.73085 0.5823 0.86734 0.0
H712 H 0.7786 0.5613 0.87949 0.0
C713 C 0.77819 0.57882 0.73235 0.0
C714 C 0.79605 0.58444 0.73914 0.0
C715 C 0.76692 0.57436 0.76442 0.0
C716 C 0.76534 0.56724 0.87558 0.0
H717 H 0.6805 0.58001 0.96935 0.0
H718 H 0.69962 0.57084 0.91269 0.0
H719 H 0.75816 0.56256 0.93708 0.0
H720 H 0.81654 0.58886 0.78446 0.0
H721 H 0.7967 0.58166 0.84096 0.0
H722 H 0.73815 0.58787 0.8067 0.0
C723 C 0.70595 0.5764 0.93931 0.0
C724 C 0.7536 0.56789 0.90853 0.0
C725 C 0.69502 0.58157 0.97174 0.0
C726 C 0.80284 0.58444 0.77846 0.0
C727 C 0.79143 0.58028 0.81079 0.0
C728 C 0.74259 0.58177 0.83455 0.0
C729 C 0.72483 0.57885 0.94085 0.0
C730 C 0.73635 0.57574 0.90494 0.0
C731 C 0.77312 0.57582 0.8042 0.0
C732 C 0.76012 0.57452 0.83833 0.0
H733 H 0.7281 0.5972 0.0342 0.0
H734 H 0.74701 0.5882 0.97804 0.0
H735 H 0.71779 0.58872 0.8637 0.0
H736 H 0.7727 0.57852 0.70218 0.0
H737 H 0.7531 0.57045 0.75803 0.0
C738 C 0.61288 0.22053 0.25683 0.0
C739 C 0.60469 0.2034 0.26045 0.0
C740 C 0.6085 0.23206 0.2252 0.0
C741 C 0.58974 0.23317 0.12303 0.0
H742 H 0.5853 0.2846 0.14488 0.0
C743 C 0.57321 0.28306 0.99627 0.0
C744 C 0.58379 0.29886 0.99451 0.0
C745 C 0.57309 0.27228 0.03067 0.0
C746 C 0.58661 0.27031 0.1382 0.0
H747 H 0.5856 0.18489 0.23297 0.0
H748 H 0.57794 0.20517 0.17711 0.0
H749 H 0.59023 0.26352 0.20015 0.0
H750 H 0.60175 0.3163 0.02832 0.0
H751 H 0.6017 0.29737 0.08859 0.0
H752 H 0.5865 0.23994 0.06106 0.0
C753 C 0.58782 0.20957 0.19904 0.0
C754 C 0.58942 0.2582 0.16989 0.0
C755 C 0.5922 0.19795 0.23099 0.0
C756 C 0.59335 0.30428 0.02891 0.0
C757 C 0.59334 0.29338 0.0634 0.0
C758 C 0.58695 0.24527 0.09134 0.0
C759 C 0.5958 0.22686 0.19608 0.0
C760 C 0.59129 0.2395 0.16265 0.0
C761 C 0.58366 0.27693 0.06418 0.0
C762 C 0.58553 0.26404 0.09843 0.0
H763 H 0.6227 0.22517 0.27866 0.0
H764 H 0.61524 0.24505 0.2234 0.0
H765 H 0.59134 0.21891 0.1163 0.0
H766 H 0.56555 0.27862 0.97035 0.0
H767 H 0.5651 0.26 0.03053 0.0
C768 C 0.31453 0.31937 0.06829 0.0
C769 C 0.32979 0.33049 0.07269 0.0
C770 C 0.3152 0.30121 0.07969 0.0
C771 C 0.34349 0.26241 0.08843 0.0
H772 H 0.31096 0.24606 0.17214 0.0
C773 C 0.34507 0.18878 0.14758 0.0
C774 C 0.32863 0.18107 0.1597 0.0
C775 C 0.34601 0.20716 0.13776 0.0
C776 C 0.31993 0.25026 0.14822 0.0
H777 H 0.35781 0.33143 0.09133 0.0
H778 H 0.35917 0.29927 0.11019 0.0
H779 H 0.31099 0.2778 0.15236 0.0
H780 H 0.30023 0.1861 0.16994 0.0
H781 H 0.3015 0.21788 0.15092 0.0
H782 H 0.35187 0.23485 0.08258 0.0
C783 C 0.34667 0.30478 0.09851 0.0
C784 C 0.32003 0.26848 0.13725 0.0
C785 C 0.34586 0.32309 0.08797 0.0
C786 C 0.31309 0.19188 0.16115 0.0
C787 C 0.31391 0.21012 0.15053 0.0
C788 C 0.34313 0.24406 0.09876 0.0
C789 C 0.33127 0.29379 0.09481 0.0
C790 C 0.33175 0.27466 0.10722 0.0
C791 C 0.33042 0.2181 0.1391 0.0
C792 C 0.33126 0.23771 0.12869 0.0
H793 H 0.30198 0.32486 0.05684 0.0
H794 H 0.3032 0.29291 0.07655 0.0
H795 H 0.35256 0.26694 0.06497 0.0
H796 H 0.35727 0.18069 0.14671 0.0
H797 H 0.35902 0.21282 0.12981 0.0
C798 C 0.18791 0.68276 0.80842 0.0
C799 C 0.1756 0.67196 0.82978 0.0
C800 C 0.20593 0.68405 0.82067 0.0
C801 C 0.23652 0.67543 0.90705 0.0
H802 H 0.27351 0.67556 0.82461 0.0
C803 C 0.31852 0.66422 0.89016 0.0
C804 C 0.32461 0.67417 0.92349 0.0
C805 C 0.30033 0.66469 0.87887 0.0
C806 C 0.26337 0.67539 0.84805 0.0
H807 H 0.17254 0.65404 0.88078 0.0
H808 H 0.20401 0.65604 0.90192 0.0
H809 H 0.24181 0.6747 0.80536 0.0
H810 H 0.31651 0.69271 0.97056 0.0
H811 H 0.2848 0.69379 0.95056 0.0
H812 H 0.25812 0.67544 0.94976 0.0
C813 C 0.19969 0.66385 0.87615 0.0
C814 C 0.24515 0.67516 0.83699 0.0
C815 C 0.18163 0.66267 0.86403 0.0
C816 C 0.31216 0.68473 0.94506 0.0
C817 C 0.29398 0.6853 0.93363 0.0
C818 C 0.25475 0.67557 0.91812 0.0
C819 C 0.2121 0.67445 0.85444 0.0
C820 C 0.23149 0.67513 0.86634 0.0
C821 C 0.28782 0.67522 0.90049 0.0
C822 C 0.26841 0.67549 0.88875 0.0
H823 H 0.18358 0.69029 0.78227 0.0
H824 H 0.21501 0.69263 0.8037 0.0
H825 H 0.22637 0.67563 0.93046 0.0
H826 H 0.3277 0.65571 0.87334 0.0
H827 H 0.29602 0.65649 0.85366 0.0
C828 C 0.68486 0.81277 0.18887 0.0
C829 C 0.67413 0.8254 0.16822 0.0
C830 C 0.68495 0.79455 0.17759 0.0
C831 C 0.67336 0.7633 0.0943 0.0
H832 H 0.6736 0.72728 0.17895 0.0
C833 C 0.66175 0.68128 0.11563 0.0
C834 C 0.67157 0.67488 0.08241 0.0
C835 C 0.6623 0.69962 0.12623 0.0
C836 C 0.67339 0.73715 0.15492 0.0
H837 H 0.6552 0.82877 0.11913 0.0
H838 H 0.65527 0.79692 0.09945 0.0
H839 H 0.6738 0.75932 0.19626 0.0
H840 H 0.69018 0.68263 0.03522 0.0
H841 H 0.6913 0.7145 0.05386 0.0
H842 H 0.6725 0.74112 0.05298 0.0
C843 C 0.66382 0.80117 0.12412 0.0
C844 C 0.67374 0.75554 0.16484 0.0
C845 C 0.66378 0.81944 0.13536 0.0
C846 C 0.68222 0.68718 0.06054 0.0
C847 C 0.68282 0.70547 0.07119 0.0
C848 C 0.67299 0.7449 0.08438 0.0
C849 C 0.67425 0.78845 0.14541 0.0
C850 C 0.67378 0.76887 0.13467 0.0
C851 C 0.67274 0.71197 0.10395 0.0
C852 C 0.67304 0.73158 0.11456 0.0
H853 H 0.69323 0.81698 0.21385 0.0
H854 H 0.69346 0.78524 0.19409 0.0
H855 H 0.67353 0.77317 0.07028 0.0
H856 H 0.65321 0.67225 0.13277 0.0
H857 H 0.65419 0.70418 0.15133 0.0
C858 C 0.81654 0.34352 0.82843 0.0
C859 C 0.826 0.32747 0.83677 0.0
C860 C 0.79796 0.34478 0.83644 0.0
C861 C 0.75801 0.31524 0.8549 0.0
H862 H 0.73563 0.3591 0.89527 0.0
C863 C 0.68745 0.31462 0.92457 0.0
C864 C 0.67479 0.32697 0.90896 0.0
C865 C 0.70579 0.31626 0.91563 0.0
C866 C 0.74172 0.34683 0.8837 0.0
H867 H 0.8237 0.30058 0.86212 0.0
H868 H 0.79169 0.30285 0.87701 0.0
H869 H 0.76803 0.35892 0.87978 0.0
H870 H 0.67191 0.35133 0.87304 0.0
H871 H 0.70416 0.35437 0.85828 0.0
H872 H 0.7319 0.30302 0.85993 0.0
C873 C 0.79828 0.31427 0.86283 0.0
C874 C 0.76025 0.34671 0.87469 0.0
C875 C 0.81669 0.31296 0.85442 0.0
C876 C 0.68118 0.34158 0.88576 0.0
C877 C 0.69966 0.34333 0.87719 0.0
C878 C 0.73965 0.31531 0.86435 0.0
C879 C 0.78855 0.33005 0.85333 0.0
C880 C 0.76868 0.33081 0.86075 0.0
C881 C 0.71206 0.33042 0.89128 0.0
C882 C 0.73136 0.331 0.87935 0.0
H883 H 0.82342 0.35489 0.81476 0.0
H884 H 0.79092 0.35712 0.82853 0.0
H885 H 0.76385 0.3029 0.84309 0.0
H886 H 0.68321 0.3035 0.94344 0.0
H887 H 0.71511 0.3063 0.92753 0.0
C888 C 0.83414 0.82134 0.62874 0.0
C889 C 0.83896 0.82627 0.5894 0.0
C890 C 0.83371 0.80312 0.64018 0.0
C891 C 0.85004 0.75754 0.60954 0.0
H892 H 0.81132 0.74068 0.67848 0.0
C893 C 0.83391 0.6817 0.63359 0.0
C894 C 0.83027 0.67611 0.67314 0.0
C895 C 0.83564 0.70007 0.62433 0.0
C896 C 0.82232 0.74523 0.65952 0.0
H897 H 0.84744 0.81569 0.53152 0.0
H898 H 0.84607 0.78413 0.55097 0.0
H899 H 0.81308 0.77265 0.6608 0.0
H900 H 0.82601 0.68571 0.73409 0.0
H901 H 0.82872 0.71766 0.7177 0.0
H902 H 0.85902 0.72998 0.60769 0.0
C903 C 0.8429 0.79433 0.57326 0.0
C904 C 0.82337 0.76356 0.64947 0.0
C905 C 0.84342 0.8125 0.56191 0.0
C906 C 0.82848 0.68941 0.70318 0.0
C907 C 0.83008 0.70777 0.69385 0.0
C908 C 0.8489 0.73919 0.61935 0.0
C909 C 0.83802 0.78938 0.61252 0.0
C910 C 0.83721 0.76995 0.62422 0.0
C911 C 0.83363 0.7133 0.65432 0.0
C912 C 0.835 0.73283 0.64435 0.0
H913 H 0.83045 0.8315 0.65065 0.0
H914 H 0.83009 0.79983 0.67081 0.0
H915 H 0.86108 0.76201 0.59064 0.0
H916 H 0.8351 0.67191 0.60954 0.0
H917 H 0.83817 0.70395 0.59348 0.0
C918 C 0.8213 0.16243 0.3693 0.0
C919 C 0.82858 0.17444 0.39776 0.0
C920 C 0.80292 0.16329 0.35916 0.0
C921 C 0.75984 0.18039 0.40168 0.0
H922 H 0.74007 0.16966 0.29643 0.0
C923 C 0.68582 0.19362 0.36843 0.0
C924 C 0.67586 0.17864 0.35477 0.0
C925 C 0.70464 0.19351 0.3672 0.0
C926 C 0.74547 0.1726 0.32596 0.0
H927 H 0.82288 0.19748 0.43571 0.0
H928 H 0.79114 0.19956 0.41706 0.0
H929 H 0.77294 0.16909 0.30674 0.0
H930 H 0.67778 0.15234 0.32627 0.0
H931 H 0.71099 0.1522 0.32378 0.0
H932 H 0.73255 0.18418 0.4208 0.0
C933 C 0.79926 0.18896 0.40367 0.0
C934 C 0.76425 0.17223 0.33195 0.0
C935 C 0.81747 0.1879 0.41422 0.0
C936 C 0.68512 0.16408 0.33692 0.0
C937 C 0.70408 0.16399 0.33556 0.0
C938 C 0.74123 0.18097 0.39558 0.0
C939 C 0.79158 0.17633 0.37699 0.0
C940 C 0.77167 0.17632 0.36987 0.0
C941 C 0.71399 0.17844 0.35211 0.0
C942 C 0.73384 0.17727 0.35765 0.0
H943 H 0.82962 0.15187 0.35639 0.0
H944 H 0.79748 0.15329 0.33867 0.0
H945 H 0.76493 0.18301 0.43161 0.0
H946 H 0.67904 0.2052 0.38148 0.0
H947 H 0.71195 0.20498 0.37943 0.0
C948 C 0.15638 0.31597 0.65855 0.0
C949 C 0.17274 0.32352 0.67183 0.0
C950 C 0.15525 0.29749 0.64958 0.0
C951 C 0.18038 0.25395 0.66346 0.0
H952 H 0.14966 0.23758 0.57628 0.0
C953 C 0.18813 0.18564 0.58101 0.0
C954 C 0.17283 0.1744 0.58181 0.0
C955 C 0.187 0.20356 0.5941 0.0
C956 C 0.15816 0.24201 0.6009 0.0
H957 H 0.20078 0.31799 0.68524 0.0
H958 H 0.1992 0.28603 0.66785 0.0
H959 H 0.15007 0.26962 0.59446 0.0
H960 H 0.14432 0.173 0.59609 0.0
H961 H 0.14218 0.20478 0.61787 0.0
H962 H 0.18914 0.22636 0.66812 0.0
C963 C 0.18697 0.29403 0.66583 0.0
C964 C 0.15835 0.26034 0.61155 0.0
C965 C 0.18797 0.31238 0.67555 0.0
C966 C 0.1563 0.18143 0.59548 0.0
C967 C 0.15506 0.19953 0.60769 0.0
C968 C 0.18045 0.23574 0.65222 0.0
C969 C 0.17057 0.28625 0.65298 0.0
C970 C 0.16961 0.2666 0.64277 0.0
C971 C 0.17046 0.21065 0.60736 0.0
C972 C 0.16944 0.22967 0.62072 0.0
H973 H 0.1444 0.32429 0.65592 0.0
H974 H 0.14231 0.29202 0.64049 0.0
H975 H 0.18885 0.25807 0.68835 0.0
H976 H 0.20102 0.18044 0.57086 0.0
H977 H 0.19901 0.21195 0.59348 0.0
C978 C 0.31223 0.84543 0.3012 0.0
C979 C 0.32577 0.84129 0.32941 0.0
C980 C 0.29397 0.84452 0.31164 0.0
C981 C 0.26298 0.82478 0.38734 0.0
H982 H 0.22924 0.86002 0.34453 0.0
C983 C 0.18961 0.83139 0.4439 0.0
C984 C 0.17602 0.83245 0.41439 0.0
C985 C 0.20783 0.83267 0.43341 0.0
C986 C 0.2385 0.85001 0.35644 0.0
H987 H 0.33047 0.83282 0.39093 0.0
H988 H 0.29875 0.83192 0.40951 0.0
H989 H 0.26121 0.8621 0.32716 0.0
H990 H 0.1712 0.83565 0.35047 0.0
H991 H 0.20302 0.8383 0.33245 0.0
H992 H 0.24023 0.81295 0.41721 0.0
C993 C 0.30225 0.83555 0.379 0.0
C994 C 0.25681 0.85115 0.34643 0.0
C995 C 0.32052 0.83632 0.36846 0.0
C996 C 0.18119 0.83505 0.37414 0.0
C997 C 0.19944 0.83652 0.36373 0.0
C998 C 0.24471 0.82377 0.39765 0.0
C999 C 0.28874 0.83958 0.35067 0.0
C1000 C 0.26928 0.83852 0.36168 0.0
C1001 C 0.21293 0.83522 0.39325 0.0
C1002 C 0.23229 0.83635 0.38224 0.0
H1003 H 0.31565 0.84953 0.27099 0.0
H1004 H 0.28396 0.84748 0.28886 0.0
H1005 H 0.2721 0.81462 0.39904 0.0
H1006 H 0.18627 0.82973 0.47526 0.0
H1007 H 0.21796 0.83188 0.45685 0.0
C1008 C 0.28291 0.08454 0.00681 0.0
C1009 C 0.29952 0.09386 0.00699 0.0
C1010 C 0.27326 0.08226 0.97102 0.0
C1011 C 0.26543 0.10496 0.87718 0.0
H1012 H 0.24745 0.05925 0.83607 0.0
C1013 C 0.23032 0.10203 0.72441 0.0
C1014 C 0.21545 0.09044 0.72022 0.0
C1015 C 0.24145 0.10082 0.75808 0.0
C1016 C 0.25215 0.07216 0.84739 0.0
H1017 H 0.31951 0.10697 0.96904 0.0
H1018 H 0.30229 0.10361 0.90722 0.0
H1019 H 0.26489 0.05986 0.89853 0.0
H1020 H 0.20051 0.06837 0.74697 0.0
H1021 H 0.21948 0.06668 0.80699 0.0
H1022 H 0.25224 0.11752 0.82766 0.0
C1023 C 0.29677 0.09819 0.93484 0.0
C1024 C 0.26219 0.07246 0.88302 0.0
C1025 C 0.30652 0.10024 0.97035 0.0
C1026 C 0.21204 0.07734 0.74967 0.0
C1027 C 0.22297 0.07636 0.78387 0.0
C1028 C 0.25516 0.10473 0.84212 0.0
C1029 C 0.27995 0.08944 0.93497 0.0
C1030 C 0.26903 0.08886 0.89791 0.0
C1031 C 0.23766 0.08829 0.78881 0.0
C1032 C 0.24853 0.08832 0.82645 0.0
H1033 H 0.27706 0.07956 0.03446 0.0
H1034 H 0.26025 0.07552 0.97177 0.0
H1035 H 0.27034 0.11782 0.8885 0.0
H1036 H 0.23322 0.11213 0.70174 0.0
H1037 H 0.25292 0.10988 0.76016 0.0
C1038 C 0.09615 0.79904 0.2231 0.0
C1039 C 0.09388 0.79137 0.26135 0.0
C1040 C 0.09441 0.78839 0.1887 0.0
C1041 C 0.099 0.7418 0.1544 0.0
H1042 H 0.07322 0.75865 0.06019 0.0
C1043 C 0.09237 0.69748 0.01319 0.0
C1044 C 0.09446 0.70615 0.97599 0.0
C1045 C 0.0906 0.70761 0.04834 0.0
C1046 C 0.08062 0.75383 0.08611 0.0
H1047 H 0.08778 0.76667 0.2937 0.0
H1048 H 0.08481 0.74797 0.23337 0.0
H1049 H 0.07312 0.77693 0.12129 0.0
H1050 H 0.09619 0.73213 0.94615 0.0
H1051 H 0.09353 0.7499 0.00767 0.0
H1052 H 0.10699 0.719 0.11918 0.0
C1053 C 0.08797 0.76222 0.23012 0.0
C1054 C 0.0805 0.76427 0.12109 0.0
C1055 C 0.08955 0.77291 0.26455 0.0
C1056 C 0.09447 0.72513 0.97447 0.0
C1057 C 0.09287 0.73528 0.00968 0.0
C1058 C 0.09925 0.73143 0.11937 0.0
C1059 C 0.0905 0.76984 0.1919 0.0
C1060 C 0.08978 0.75839 0.15547 0.0
C1061 C 0.09104 0.72663 0.04708 0.0
C1062 C 0.09015 0.73737 0.08472 0.0
H1063 H 0.09927 0.81329 0.21978 0.0
H1064 H 0.09656 0.79458 0.15963 0.0
H1065 H 0.10649 0.73708 0.18031 0.0
H1066 H 0.09198 0.68285 0.01509 0.0
H1067 H 0.08884 0.70052 0.0765 0.0
C1068 C 0.72676 0.90759 0.02376 0.0
C1069 C 0.70781 0.90668 0.02191 0.0
C1070 C 0.737 0.90831 0.98859 0.0
C1071 C 0.73457 0.89676 0.88127 0.0
H1072 H 0.77729 0.927 0.87354 0.0
C1073 C 0.77547 0.90384 0.73458 0.0
C1074 C 0.79438 0.90315 0.73832 0.0
C1075 C 0.76454 0.90511 0.76865 0.0
C1076 C 0.76547 0.91838 0.8754 0.0
H1077 H 0.6847 0.90658 0.98182 0.0
H1078 H 0.70257 0.90786 0.92043 0.0
H1079 H 0.75881 0.92803 0.93415 0.0
H1080 H 0.81667 0.90364 0.78064 0.0
H1081 H 0.7976 0.90552 0.8401 0.0
H1082 H 0.7413 0.88702 0.82265 0.0
C1083 C 0.70953 0.90765 0.94904 0.0
C1084 C 0.7549 0.91897 0.91009 0.0
C1085 C 0.69929 0.90691 0.98419 0.0
C1086 C 0.80214 0.90388 0.7768 0.0
C1087 C 0.79122 0.9052 0.81083 0.0
C1088 C 0.74513 0.89618 0.84658 0.0
C1089 C 0.7285 0.90818 0.95085 0.0
C1090 C 0.73939 0.90808 0.91349 0.0
C1091 C 0.77231 0.9058 0.80713 0.0
C1092 C 0.76076 0.90689 0.84339 0.0
H1093 H 0.7337 0.90725 0.05239 0.0
H1094 H 0.7516 0.90847 0.99097 0.0
H1095 H 0.72286 0.888 0.88322 0.0
H1096 H 0.76911 0.90321 0.70531 0.0
H1097 H 0.75002 0.90571 0.76485 0.0
C1098 C 0.91422 0.20292 0.22244 0.0
C1099 C 0.91174 0.21025 0.26097 0.0
C1100 C 0.91622 0.2143 0.18928 0.0
C1101 C 0.90346 0.25874 0.15325 0.0
H1102 H 0.94158 0.25227 0.07463 0.0
C1103 C 0.90985 0.30718 0.01984 0.0
C1104 C 0.91413 0.29953 0.98249 0.0
C1105 C 0.91164 0.29703 0.0549 0.0
C1106 C 0.93073 0.25414 0.09604 0.0
H1107 H 0.90946 0.23508 0.29526 0.0
H1108 H 0.91265 0.25502 0.23707 0.0
H1109 H 0.94046 0.23271 0.1337 0.0
H1110 H 0.924 0.27558 0.95217 0.0
H1111 H 0.92654 0.25751 0.01326 0.0
H1112 H 0.89318 0.27957 0.11532 0.0
C1113 C 0.91316 0.2405 0.23264 0.0
C1114 C 0.93016 0.24299 0.12989 0.0
C1115 C 0.91142 0.22913 0.26585 0.0
C1116 C 0.92074 0.28176 0.98078 0.0
C1117 C 0.92225 0.27148 0.01581 0.0
C1118 C 0.90386 0.2697 0.11922 0.0
C1119 C 0.91551 0.23318 0.19407 0.0
C1120 C 0.91651 0.2452 0.15873 0.0
C1121 C 0.91742 0.2789 0.05326 0.0
C1122 C 0.91749 0.26756 0.09013 0.0
H1123 H 0.91467 0.1884 0.218 0.0
H1124 H 0.9179 0.20835 0.15978 0.0
H1125 H 0.89264 0.26054 0.17481 0.0
H1126 H 0.90494 0.32097 0.02184 0.0
H1127 H 0.90826 0.30337 0.08325 0.0
C1128 C 0.1974 0.3994 0.47449 0.0
C1129 C 0.20427 0.40663 0.51054 0.0
C1130 C 0.20705 0.40108 0.43873 0.0
C1131 C 0.2403 0.42772 0.3851 0.0
H1132 H 0.25155 0.38289 0.32987 0.0
C1133 C 0.28978 0.42463 0.25055 0.0
C1134 C 0.28684 0.41133 0.22122 0.0
C1135 C 0.27901 0.42516 0.28503 0.0
C1136 C 0.24825 0.39561 0.3443 0.0
H1137 H 0.22655 0.42178 0.53662 0.0
H1138 H 0.24306 0.42524 0.47352 0.0
H1139 H 0.23384 0.38212 0.39131 0.0
H1140 H 0.27002 0.38876 0.20338 0.0
H1141 H 0.25056 0.39019 0.26232 0.0
H1142 H 0.25419 0.44133 0.3376 0.0
C1143 C 0.23024 0.41814 0.47344 0.0
C1144 C 0.23822 0.3951 0.37971 0.0
C1145 C 0.22074 0.41619 0.50947 0.0
C1146 C 0.27257 0.39904 0.22592 0.0
C1147 C 0.26158 0.39979 0.2599 0.0
C1148 C 0.25007 0.42828 0.34918 0.0
C1149 C 0.2236 0.41034 0.43796 0.0
C1150 C 0.23419 0.41112 0.40043 0.0
C1151 C 0.26491 0.41256 0.29043 0.0
C1152 C 0.2542 0.41221 0.3283 0.0
H1153 H 0.18454 0.39242 0.47376 0.0
H1154 H 0.20156 0.39516 0.41156 0.0
H1155 H 0.23723 0.44026 0.40056 0.0
H1156 H 0.30085 0.43414 0.24755 0.0
H1157 H 0.28218 0.43505 0.308 0.0
C1158 C 0.39988 0.80545 0.52267 0.0
C1159 C 0.3995 0.79744 0.4844 0.0
C1160 C 0.40059 0.79474 0.5571 0.0
C1161 C 0.39058 0.74894 0.59384 0.0
H1162 H 0.42178 0.76273 0.68236 0.0
C1163 C 0.40088 0.70317 0.73183 0.0
C1164 C 0.40079 0.71166 0.76961 0.0
C1165 C 0.40137 0.71346 0.69674 0.0
C1166 C 0.41287 0.75881 0.65805 0.0
H1167 H 0.39957 0.77192 0.45219 0.0
H1168 H 0.40102 0.75316 0.51246 0.0
H1169 H 0.42143 0.78097 0.62136 0.0
H1170 H 0.40122 0.73756 0.80025 0.0
H1171 H 0.402 0.75556 0.73889 0.0
H1172 H 0.38191 0.72686 0.63059 0.0
C1173 C 0.4006 0.76774 0.51577 0.0
C1174 C 0.41268 0.76924 0.62313 0.0
C1175 C 0.39993 0.77847 0.48129 0.0
C1176 C 0.40144 0.73065 0.77156 0.0
C1177 C 0.40192 0.74094 0.73644 0.0
C1178 C 0.39075 0.73852 0.62877 0.0
C1179 C 0.40094 0.77578 0.55404 0.0
C1180 C 0.40148 0.76445 0.59072 0.0
C1181 C 0.40179 0.73245 0.69864 0.0
C1182 C 0.40186 0.74337 0.66131 0.0
H1183 H 0.39983 0.82004 0.52605 0.0
H1184 H 0.40066 0.80133 0.58618 0.0
H1185 H 0.38161 0.74506 0.5696 0.0
H1186 H 0.40075 0.68855 0.72936 0.0
H1187 H 0.40159 0.70651 0.66808 0.0
C1188 C 0.72313 0.58795 0.2324 0.0
C1189 C 0.70471 0.59276 0.23362 0.0
C1190 C 0.73317 0.58654 0.26783 0.0
C1191 C 0.7385 0.6065 0.36288 0.0
H1192 H 0.75846 0.56166 0.40396 0.0
C1193 C 0.77323 0.60473 0.51665 0.0
C1194 C 0.78823 0.59338 0.52136 0.0
C1195 C 0.76246 0.60343 0.48239 0.0
C1196 C 0.75325 0.57436 0.39265 0.0
H1197 H 0.68232 0.59896 0.27368 0.0
H1198 H 0.7002 0.59747 0.335 0.0
H1199 H 0.74136 0.56152 0.3411 0.0
H1200 H 0.80392 0.57179 0.49478 0.0
H1201 H 0.78567 0.57 0.43377 0.0
H1202 H 0.75088 0.61966 0.41277 0.0
C1203 C 0.70669 0.59473 0.30648 0.0
C1204 C 0.74339 0.57421 0.35684 0.0
C1205 C 0.69656 0.59577 0.27125 0.0
C1206 C 0.79226 0.58056 0.49168 0.0
C1207 C 0.78173 0.5795 0.45692 0.0
C1208 C 0.74866 0.60676 0.39814 0.0
C1209 C 0.72505 0.59022 0.30494 0.0
C1210 C 0.73586 0.59026 0.342 0.0
C1211 C 0.76677 0.59106 0.45162 0.0
C1212 C 0.75605 0.59067 0.41377 0.0
H1213 H 0.72995 0.58572 0.20407 0.0
H1214 H 0.7474 0.58315 0.26618 0.0
H1215 H 0.73289 0.61905 0.35158 0.0
H1216 H 0.76988 0.61464 0.53948 0.0
H1217 H 0.7508 0.61221 0.48003 0.0
C1218 C 0.59035 0.30023 0.72247 0.0
C1219 C 0.58417 0.294 0.75984 0.0
C1220 C 0.58736 0.29009 0.68774 0.0
C1221 C 0.56051 0.25218 0.64509 0.0
H1222 H 0.60089 0.24931 0.57116 0.0
C1223 C 0.56652 0.19998 0.51452 0.0
C1224 C 0.57411 0.20629 0.47841 0.0
C1225 C 0.56557 0.21129 0.54821 0.0
C1226 C 0.58939 0.25015 0.5912 0.0
H1227 H 0.56966 0.2725 0.7901 0.0
H1228 H 0.56469 0.25454 0.72939 0.0
H1229 H 0.60349 0.26776 0.63124 0.0
H1230 H 0.58607 0.22968 0.44919 0.0
H1231 H 0.58405 0.24936 0.50743 0.0
H1232 H 0.54661 0.23416 0.60499 0.0
C1233 C 0.57161 0.26741 0.72684 0.0
C1234 C 0.59087 0.26076 0.62567 0.0
C1235 C 0.57449 0.27765 0.76162 0.0
C1236 C 0.57995 0.22439 0.47628 0.0
C1237 C 0.57903 0.23563 0.50985 0.0
C1238 C 0.55907 0.24145 0.61054 0.0
C1239 C 0.57826 0.27339 0.68958 0.0
C1240 C 0.57643 0.26201 0.65296 0.0
C1241 C 0.57228 0.22908 0.54646 0.0
C1242 C 0.57347 0.24043 0.58314 0.0
H1243 H 0.59752 0.31297 0.72007 0.0
H1244 H 0.59229 0.29532 0.65942 0.0
H1245 H 0.54909 0.25296 0.66533 0.0
H1246 H 0.56173 0.18617 0.51703 0.0
H1247 H 0.56032 0.20586 0.57605 0.0
C1248 C 0.37333 0.02742 0.14199 0.0
C1249 C 0.36899 0.0414 0.16905 0.0
C1250 C 0.37631 0.00978 0.1557 0.0
C1251 C 0.36619 0.97985 0.2412 0.0
H1252 H 0.40623 0.95098 0.20173 0.0
C1253 C 0.38903 0.91611 0.32319 0.0
C1254 C 0.39319 0.9006 0.30058 0.0
C1255 C 0.38628 0.93272 0.30446 0.0
C1256 C 0.39485 0.95879 0.21261 0.0
H1257 H 0.36491 0.04779 0.23197 0.0
H1258 H 0.37 0.0171 0.2558 0.0
H1259 H 0.401 0.98125 0.1742 0.0
H1260 H 0.39816 0.89043 0.24052 0.0
H1261 H 0.39323 0.91972 0.20746 0.0
H1262 H 0.36006 0.95759 0.27974 0.0
C1263 C 0.37081 0.01972 0.22386 0.0
C1264 C 0.39186 0.97612 0.1969 0.0
C1265 C 0.36787 0.03733 0.21018 0.0
C1266 C 0.39497 0.90217 0.25871 0.0
C1267 C 0.39219 0.91891 0.23984 0.0
C1268 C 0.36915 0.9626 0.2568 0.0
C1269 C 0.37496 0.00571 0.19678 0.0
C1270 C 0.37767 0.98694 0.21155 0.0
C1271 C 0.38753 0.9343 0.26257 0.0
C1272 C 0.3837 0.95199 0.24325 0.0
H1273 H 0.37408 0.02999 0.11007 0.0
H1274 H 0.3793 0.99925 0.13405 0.0
H1275 H 0.35488 0.98767 0.25243 0.0
H1276 H 0.38774 0.91547 0.35554 0.0
H1277 H 0.38313 0.94438 0.32293 0.0
C1278 C 0.89968 0.63312 0.69533 0.0
C1279 C 0.8882 0.61955 0.71022 0.0
C1280 C 0.91666 0.63597 0.71219 0.0
C1281 C 0.94564 0.62656 0.80019 0.0
H1282 H 0.98408 0.6346 0.72296 0.0
C1283 C 0.02156 0.62624 0.84288 0.0
C1284 C 0.03253 0.63976 0.82573 0.0
C1285 C 0.0037 0.62388 0.83029 0.0
C1286 C 0.97348 0.63257 0.74495 0.0
H1287 H 0.88517 0.5988 0.75561 0.0
H1288 H 0.91523 0.60359 0.78501 0.0
H1289 H 0.95325 0.63027 0.69953 0.0
H1290 H 0.03309 0.66152 0.78209 0.0
H1291 H 0.00198 0.65727 0.75985 0.0
H1292 H 0.96608 0.6287 0.84558 0.0
C1293 C 0.91094 0.61214 0.7604 0.0
C1294 C 0.95579 0.6301 0.73155 0.0
C1295 C 0.89375 0.60937 0.74361 0.0
C1296 C 0.02517 0.65081 0.79555 0.0
C1297 C 0.00731 0.6484 0.78285 0.0
C1298 C 0.96341 0.62898 0.81362 0.0
C1299 C 0.92274 0.6252 0.74416 0.0
C1300 C 0.9416 0.62724 0.75898 0.0
C1301 C 0.99638 0.6349 0.80009 0.0
C1302 C 0.9775 0.63214 0.78612 0.0
H1303 H 0.89566 0.6414 0.67002 0.0
H1304 H 0.92517 0.64649 0.69969 0.0
H1305 H 0.93501 0.62453 0.82209 0.0
H1306 H 0.02681 0.61725 0.86567 0.0
H1307 H 0.99572 0.61317 0.84371 0.0
C1308 C 0.65286 0.9751 0.21822 0.0
C1309 C 0.64806 0.97038 0.17869 0.0
C1310 C 0.65253 0.99319 0.23077 0.0
C1311 C 0.63132 0.037 0.20765 0.0
H1312 H 0.66882 0.05643 0.27667 0.0
C1313 C 0.62842 0.1108 0.2654 0.0
C1314 C 0.63235 0.11311 0.30638 0.0
C1315 C 0.63239 0.09442 0.24605 0.0
C1316 C 0.65816 0.0512 0.25762 0.0
H1317 H 0.63968 0.98131 0.12112 0.0
H1318 H 0.63887 0.0127 0.14322 0.0
H1319 H 0.6715 0.02563 0.25089 0.0
H1320 H 0.64429 0.10029 0.35862 0.0
H1321 H 0.65094 0.07187 0.32529 0.0
H1322 H 0.6177 0.06232 0.21523 0.0
C1323 C 0.6427 0.00235 0.1646 0.0
C1324 C 0.65971 0.03353 0.24285 0.0
C1325 C 0.64313 0.98429 0.15197 0.0
C1326 C 0.64104 0.099 0.32704 0.0
C1327 C 0.64498 0.08267 0.30779 0.0
C1328 C 0.62971 0.05463 0.22261 0.0
C1329 C 0.64731 0.00701 0.2042 0.0
C1330 C 0.6462 0.02614 0.21809 0.0
C1331 C 0.6404 0.08001 0.26725 0.0
C1332 C 0.64299 0.06189 0.24824 0.0
H1333 H 0.6565 0.96483 0.23987 0.0
H1334 H 0.65593 0.9963 0.26165 0.0
H1335 H 0.62057 0.03165 0.189 0.0
H1336 H 0.62174 0.12142 0.2486 0.0
H1337 H 0.62893 0.09294 0.21463 0.0
C1338 C 0.10672 0.39277 0.74691 0.0
C1339 C 0.11296 0.38011 0.71864 0.0
C1340 C 0.08924 0.39117 0.76297 0.0
C1341 C 0.0452 0.37097 0.73566 0.0
H1342 H 0.03129 0.38226 0.845 0.0
C1343 C 0.97394 0.35541 0.79594 0.0
C1344 C 0.96564 0.36849 0.82048 0.0
C1345 C 0.99209 0.35714 0.78496 0.0
C1346 C 0.03497 0.37923 0.81424 0.0
H1347 H 0.10656 0.35514 0.68752 0.0
H1348 H 0.07655 0.35204 0.71625 0.0
H1349 H 0.06311 0.3843 0.82526 0.0
H1350 H 0.96998 0.39386 0.85196 0.0
H1351 H 0.00165 0.39681 0.83287 0.0
H1352 H 0.0172 0.36588 0.72448 0.0
C1353 C 0.08472 0.36354 0.72507 0.0
C1354 C 0.05318 0.3804 0.80297 0.0
C1355 C 0.10199 0.36524 0.70885 0.0
C1356 C 0.97596 0.38339 0.83353 0.0
C1357 C 0.99415 0.38509 0.82263 0.0
C1358 C 0.02708 0.36977 0.7469 0.0
C1359 C 0.07785 0.37682 0.75114 0.0
C1360 C 0.05853 0.37609 0.76361 0.0
C1361 C 0.00243 0.37197 0.79825 0.0
C1362 C 0.02173 0.37374 0.78638 0.0
H1363 H 0.11489 0.40442 0.75476 0.0
H1364 H 0.08435 0.40163 0.78301 0.0
H1365 H 0.04874 0.36802 0.70479 0.0
H1366 H 0.96657 0.34359 0.78591 0.0
H1367 H 0.99814 0.34665 0.76661 0.0
C1368 C 0.38725 0.59664 0.94013 0.0
C1369 C 0.39015 0.61251 0.96252 0.0
C1370 C 0.38624 0.57987 0.959 0.0
C1371 C 0.37487 0.55787 0.05315 0.0
H1372 H 0.39874 0.51673 0.00377 0.0
C1373 C 0.36842 0.48469 0.11496 0.0
C1374 C 0.36588 0.47096 0.08617 0.0
C1375 C 0.37292 0.50229 0.10322 0.0
C1376 C 0.39189 0.52805 0.01778 0.0
H1377 H 0.39424 0.62325 0.02242 0.0
H1378 H 0.39221 0.59363 0.05581 0.0
H1379 H 0.4043 0.54709 0.97808 0.0
H1380 H 0.36624 0.46507 0.02238 0.0
H1381 H 0.37365 0.49576 0.00188 0.0
H1382 H 0.36202 0.53872 0.09211 0.0
C1383 C 0.3908 0.59434 0.02349 0.0
C1384 C 0.39514 0.54544 0.00319 0.0
C1385 C 0.39203 0.61123 0.00442 0.0
C1386 C 0.36791 0.47529 0.04535 0.0
C1387 C 0.37241 0.49287 0.03363 0.0
C1388 C 0.37155 0.54041 0.06772 0.0
C1389 C 0.38798 0.5785 0.00082 0.0
C1390 C 0.38635 0.56048 0.02008 0.0
C1391 C 0.37503 0.50657 0.06241 0.0
C1392 C 0.37971 0.52526 0.04956 0.0
H1393 H 0.38577 0.5971 0.9078 0.0
H1394 H 0.38377 0.56796 0.9408 0.0
H1395 H 0.36781 0.56921 0.06654 0.0
H1396 H 0.36676 0.4819 0.14662 0.0
H1397 H 0.37494 0.5125 0.12615 0.0
C1398 C 0.60686 0.614 0.99774 0.0
C1399 C 0.60871 0.61636 0.03941 0.0
C1400 C 0.5907 0.61882 0.97843 0.0
C1401 C 0.54966 0.64699 0.99357 0.0
H1402 H 0.52742 0.61492 0.91573 0.0
C1403 C 0.47388 0.64961 0.95544 0.0
C1404 C 0.46875 0.64793 0.91495 0.0
C1405 C 0.49186 0.64707 0.967 0.0
C1406 C 0.53359 0.62413 0.93704 0.0
H1407 H 0.59497 0.62534 0.09351 0.0
H1408 H 0.56707 0.63338 0.06029 0.0
H1409 H 0.55753 0.60793 0.94177 0.0
H1410 H 0.47889 0.6428 0.85477 0.0
H1411 H 0.51011 0.63802 0.87522 0.0
H1412 H 0.52554 0.66288 0.98981 0.0
C1413 C 0.57809 0.62822 0.04218 0.0
C1414 C 0.55084 0.62015 0.95186 0.0
C1415 C 0.59411 0.62345 0.06131 0.0
C1416 C 0.48217 0.64386 0.88631 0.0
C1417 C 0.50012 0.64117 0.89795 0.0
C1418 C 0.53242 0.65089 0.97899 0.0
C1419 C 0.57619 0.62613 0.00051 0.0
C1420 C 0.55889 0.63133 0.98099 0.0
C1421 C 0.50513 0.64268 0.93843 0.0
C1422 C 0.52405 0.63932 0.95118 0.0
H1423 H 0.6179 0.60858 0.98008 0.0
H1424 H 0.58965 0.61708 0.94623 0.0
H1425 H 0.55565 0.65612 0.01529 0.0
H1426 H 0.464 0.65247 0.9785 0.0
H1427 H 0.4953 0.6481 -0.00146 0.0
C1428 C 0.64543 0.52532 0.04129 0.0
C1429 C 0.64181 0.53044 0.08119 0.0
C1430 C 0.64408 0.50721 0.02935 0.0
C1431 C 0.62201 0.46417 0.05551 0.0
H1432 H 0.6578 0.44355 0.98388 0.0
C1433 C 0.61695 0.39019 0.99582 0.0
C1434 C 0.62046 0.38824 0.95457 0.0
C1435 C 0.62096 0.40653 0.01554 0.0
C1436 C 0.64761 0.44912 0.00371 0.0
H1437 H 0.63433 0.5201 0.13995 0.0
H1438 H 0.63168 0.48868 0.11883 0.0
H1439 H 0.66187 0.47423 0.0093 0.0
H1440 H 0.6313 0.4018 0.90199 0.0
H1441 H 0.638 0.42996 0.93585 0.0
H1442 H 0.60747 0.43923 0.04897 0.0
C1443 C 0.63542 0.49877 0.09678 0.0
C1444 C 0.64996 0.46671 0.01825 0.0
C1445 C 0.63691 0.51686 0.10882 0.0
C1446 C 0.62839 0.40277 0.93378 0.0
C1447 C 0.63241 0.41896 0.95335 0.0
C1448 C 0.61959 0.44657 0.04074 0.0
C1449 C 0.63896 0.49373 0.0569 0.0
C1450 C 0.63704 0.47457 0.04376 0.0
C1451 C 0.62866 0.42115 0.99439 0.0
C1452 C 0.63219 0.43896 0.014 0.0
H1453 H 0.64899 0.53531 0.01893 0.0
H1454 H 0.64665 0.5038 0.99824 0.0
H1455 H 0.61175 0.46988 0.07494 0.0
H1456 H 0.61083 0.37925 0.01264 0.0
H1457 H 0.61802 0.40773 0.04727 0.0
C1458 C 0.40151 0.37376 0.05325 0.0
C1459 C 0.39013 0.38744 0.03853 0.0
C1460 C 0.41868 0.37116 0.03712 0.0
C1461 C 0.44842 0.38187 0.9508 0.0
H1462 H 0.48619 0.37132 0.02818 0.0
C1463 C 0.52452 0.38084 0.90957 0.0
C1464 C 0.53479 0.36629 0.92457 0.0
C1465 C 0.50682 0.38376 0.92268 0.0
C1466 C 0.47578 0.37409 0.00615 0.0
H1467 H 0.38755 0.40876 0.99432 0.0
H1468 H 0.41793 0.40444 0.9663 0.0
H1469 H 0.4553 0.37581 0.05114 0.0
H1470 H 0.53427 0.34344 0.96546 0.0
H1471 H 0.50351 0.34873 0.98877 0.0
H1472 H 0.46912 0.38033 0.90587 0.0
C1473 C 0.41342 0.39557 0.99014 0.0
C1474 C 0.45804 0.37663 0.01926 0.0
C1475 C 0.39604 0.39807 0.00615 0.0
C1476 C 0.52695 0.35492 0.9536 0.0
C1477 C 0.50926 0.35792 0.9669 0.0
C1478 C 0.46624 0.37942 0.93768 0.0
C1479 C 0.42509 0.38232 0.0061 0.0
C1480 C 0.44407 0.38034 0.99175 0.0
C1481 C 0.49895 0.3723 0.9514 0.0
C1482 C 0.48009 0.37535 0.96521 0.0
H1483 H 0.39723 0.36515 0.0778 0.0
H1484 H 0.42704 0.36047 0.04938 0.0
H1485 H 0.438 0.38455 0.92876 0.0
H1486 H 0.53016 0.3901 0.88779 0.0
H1487 H 0.49934 0.39513 0.91066 0.0
C1488 C 0.86922 0.40491 0.80085 0.0
C1489 C 0.87857 0.39072 0.78193 0.0
C1490 C 0.86553 0.42092 0.78044 0.0
C1491 C 0.88181 0.44904 0.69723 0.0
H1492 H 0.83795 0.47588 0.72031 0.0
C1493 C 0.86628 0.52055 0.63231 0.0
C1494 C 0.86038 0.53342 0.66073 0.0
C1495 C 0.86768 0.50223 0.64246 0.0
C1496 C 0.85028 0.46855 0.71363 0.0
H1497 H 0.89095 0.38201 0.72622 0.0
H1498 H 0.88434 0.41021 0.69008 0.0
H1499 H 0.84108 0.44489 0.74434 0.0
H1500 H 0.85171 0.53675 0.72264 0.0
H1501 H 0.85378 0.50491 0.73979 0.0
H1502 H 0.89099 0.4729 0.66675 0.0
C1503 C 0.88004 0.40889 0.72101 0.0
C1504 C 0.85209 0.4508 0.72738 0.0
C1505 C 0.88372 0.39272 0.74156 0.0
C1506 C 0.85596 0.52738 0.69957 0.0
C1507 C 0.85717 0.50906 0.70952 0.0
C1508 C 0.87992 0.46679 0.68315 0.0
C1509 C 0.87103 0.42324 0.74042 0.0
C1510 C 0.86809 0.441 0.7204 0.0
C1511 C 0.86301 0.49629 0.68109 0.0
C1512 C 0.86433 0.47688 0.69217 0.0
H1513 H 0.86502 0.40384 0.8319 0.0
H1514 H 0.85887 0.43175 0.79664 0.0
H1515 H 0.89437 0.44194 0.69159 0.0
H1516 H 0.8696 0.52449 0.60196 0.0
H1517 H 0.87211 0.49265 0.61988 0.0
C1518 C 0.52348 0.13075 0.33892 0.0
C1519 C 0.53524 0.14156 0.31604 0.0
C1520 C 0.50492 0.13086 0.33166 0.0
C1521 C 0.46796 0.15577 0.2806 0.0
H1522 H 0.44537 0.10837 0.27759 0.0
C1523 C 0.40161 0.14114 0.19687 0.0
C1524 C 0.38951 0.12819 0.21219 0.0
C1525 C 0.41804 0.14453 0.21591 0.0
C1526 C 0.45133 0.12175 0.27909 0.0
H1527 H 0.5367 0.16154 0.26875 0.0
H1528 H 0.50409 0.1616 0.25538 0.0
H1529 H 0.47683 0.11114 0.29772 0.0
H1530 H 0.38478 0.10923 0.2606 0.0
H1531 H 0.4137 0.11516 0.29422 0.0
H1532 H 0.44248 0.16628 0.26086 0.0
C1533 C 0.50927 0.15314 0.27929 0.0
C1534 C 0.46942 0.12335 0.29055 0.0
C1535 C 0.52793 0.1531 0.2868 0.0
C1536 C 0.39385 0.11926 0.24811 0.0
C1537 C 0.41044 0.12258 0.26714 0.0
C1538 C 0.44983 0.15416 0.26908 0.0
C1539 C 0.4976 0.14172 0.30115 0.0
C1540 C 0.47804 0.14035 0.29099 0.0
C1541 C 0.42287 0.13501 0.25076 0.0
C1542 C 0.44138 0.13709 0.26762 0.0
H1543 H 0.52866 0.12207 0.36242 0.0
H1544 H 0.49631 0.12227 0.34977 0.0
H1545 H 0.47409 0.16908 0.28122 0.0
H1546 H 0.39862 0.14836 0.16936 0.0
H1547 H 0.42733 0.15403 0.20219 0.0
C1548 C 0.14102 0.47071 0.70409 0.0
C1549 C 0.13728 0.4649 0.66473 0.0
C1550 C 0.13906 0.48888 0.71479 0.0
C1551 C 0.11557 0.53079 0.68785 0.0
H1552 H 0.15253 0.55308 0.75402 0.0
C1553 C 0.1112 0.60537 0.74461 0.0
C1554 C 0.11574 0.6077 0.78527 0.0
C1555 C 0.11456 0.58881 0.72534 0.0
C1556 C 0.14204 0.54704 0.7357 0.0
H1557 H 0.12858 0.47393 0.60575 0.0
H1558 H 0.12485 0.50557 0.62482 0.0
H1559 H 0.15682 0.52231 0.72948 0.0
H1560 H 0.12728 0.59448 0.83755 0.0
H1561 H 0.13287 0.56589 0.8044 0.0
H1562 H 0.10055 0.5554 0.69511 0.0
C1563 C 0.12926 0.49595 0.64731 0.0
C1564 C 0.14451 0.52942 0.72166 0.0
C1565 C 0.13136 0.47778 0.63647 0.0
C1566 C 0.12368 0.59323 0.80615 0.0
C1567 C 0.12703 0.57681 0.78702 0.0
C1568 C 0.11304 0.54845 0.70212 0.0
C1569 C 0.13319 0.5017 0.68652 0.0
C1570 C 0.13114 0.52096 0.69831 0.0
C1571 C 0.12259 0.57438 0.7464 0.0
C1572 C 0.12608 0.55659 0.72699 0.0
H1573 H 0.14526 0.46123 0.72694 0.0
H1574 H 0.14188 0.49286 0.74547 0.0
H1575 H 0.10501 0.52458 0.67 0.0
H1576 H 0.10507 0.61629 0.72775 0.0
H1577 H 0.11104 0.58735 0.69394 0.0
C1578 C 0.60046 0.87122 0.20372 0.0
C1579 C 0.61283 0.88371 0.21973 0.0
C1580 C 0.58369 0.86858 0.22168 0.0
C1581 C 0.55711 0.87535 0.31394 0.0
H1582 H 0.51683 0.8723 0.23957 0.0
C1583 C 0.48193 0.87475 0.36393 0.0
C1584 C 0.47039 0.86255 0.34392 0.0
C1585 C 0.49967 0.8774 0.35078 0.0
C1586 C 0.52793 0.87293 0.26073 0.0
H1587 H 0.61768 0.90272 0.26816 0.0
H1588 H 0.58799 0.89822 0.29964 0.0
H1589 H 0.54724 0.87693 0.21396 0.0
H1590 H 0.46874 0.84321 0.29504 0.0
H1591 H 0.49961 0.84792 0.27194 0.0
H1592 H 0.5376 0.87138 0.36075 0.0
C1593 C 0.59142 0.89041 0.27319 0.0
C1594 C 0.54537 0.87559 0.24607 0.0
C1595 C 0.60837 0.89301 0.25519 0.0
C1596 C 0.47711 0.85294 0.3107 0.0
C1597 C 0.49482 0.85562 0.2975 0.0
C1598 C 0.53957 0.87271 0.32867 0.0
C1599 C 0.57877 0.87845 0.256 0.0
C1600 C 0.5602 0.87658 0.27241 0.0
C1601 C 0.50626 0.86797 0.31722 0.0
C1602 C 0.52484 0.87126 0.30213 0.0
H1603 H 0.60359 0.86361 0.17679 0.0
H1604 H 0.57446 0.8589 0.20832 0.0
H1605 H 0.56827 0.87596 0.33495 0.0
H1606 H 0.47717 0.88257 0.38927 0.0
H1607 H 0.50809 0.88716 0.36629 0.0
C1608 C 0.88995 0.10866 0.49088 0.0
C1609 C 0.88907 0.10941 0.44876 0.0
C1610 C 0.88729 0.09218 0.51093 0.0
C1611 C 0.88988 0.04297 0.49489 0.0
H1612 H 0.85559 0.0391 0.58247 0.0
C1613 C 0.8635 0.9739 0.54773 0.0
C1614 C 0.86114 0.97108 0.58913 0.0
C1615 C 0.86734 0.99115 0.53286 0.0
C1616 C 0.86541 0.03998 0.55845 0.0
H1617 H 0.88483 0.09351 0.3947 0.0
H1618 H 0.88038 0.06501 0.42947 0.0
H1619 H 0.86227 0.06878 0.55354 0.0
H1620 H 0.86048 0.98448 0.64715 0.0
H1621 H 0.86768 0.01442 0.6213 0.0
H1622 H 0.89312 0.01431 0.49954 0.0
C1623 C 0.88316 0.07704 0.44706 0.0
C1624 C 0.86923 0.05698 0.54193 0.0
C1625 C 0.88559 0.09343 0.42717 0.0
C1626 C 0.86246 0.98604 0.61517 0.0
C1627 C 0.86639 0.0033 0.60029 0.0
C1628 C 0.88617 0.02604 0.51151 0.0
C1629 C 0.884 0.0762 0.48909 0.0
C1630 C 0.88125 0.05858 0.5095 0.0
C1631 C 0.86902 0.00604 0.55897 0.0
C1632 C 0.87365 0.02427 0.543 0.0
H1633 H 0.89257 0.12077 0.50829 0.0
H1634 H 0.88804 0.09187 0.54339 0.0
H1635 H 0.89943 0.04384 0.47032 0.0
H1636 H 0.86275 0.96277 0.52671 0.0
H1637 H 0.86896 0.99281 0.50076 0.0
C1638 C 0.11119 0.11449 0.49537 0.0
C1639 C 0.11328 0.11747 0.53679 0.0
C1640 C 0.09479 0.11869 0.47628 0.0
C1641 C 0.05272 0.14561 0.49087 0.0
H1642 H 0.03167 0.11184 0.41498 0.0
C1643 C 0.97692 0.146 0.45002 0.0
C1644 C 0.9722 0.14339 0.40952 0.0
C1645 C 0.99485 0.144 0.46265 0.0
C1646 C 0.03747 0.12152 0.43577 0.0
H1647 H 0.09975 0.12716 0.59057 0.0
H1648 H 0.07146 0.1341 0.55778 0.0
H1649 H 0.06199 0.10628 0.44129 0.0
H1650 H 0.98299 0.13723 0.35039 0.0
H1651 H 0.01408 0.13348 0.37264 0.0
H1652 H 0.02803 0.16058 0.48618 0.0
C1653 C 0.08245 0.1289 0.53966 0.0
C1654 C 0.05487 0.11836 0.45074 0.0
C1655 C 0.09871 0.12475 0.55858 0.0
C1656 C 0.98595 0.13898 0.38195 0.0
C1657 C 0.00384 0.13686 0.39464 0.0
C1658 C 0.03532 0.14869 0.47612 0.0
C1659 C 0.08024 0.12599 0.4983 0.0
C1660 C 0.06257 0.13021 0.47904 0.0
C1661 C 0.00847 0.13927 0.43514 0.0
C1662 C 0.02739 0.13654 0.44888 0.0
H1663 H 0.12217 0.10891 0.47778 0.0
H1664 H 0.09355 0.11637 0.4443 0.0
H1665 H 0.05839 0.15524 0.51195 0.0
H1666 H 0.96675 0.14917 0.47225 0.0
H1667 H 0.99797 0.14574 0.49419 0.0
C1668 C 0.11996 0.90622 0.42862 0.0
C1669 C 0.11479 0.89098 0.45113 0.0
C1670 C 0.12183 0.92309 0.4468 0.0
C1671 C 0.1307 0.94592 0.54169 0.0
H1672 H 0.1105 0.98739 0.48615 0.0
C1673 C 0.13541 0.01909 0.60441 0.0
C1674 C 0.13894 0.03298 0.57658 0.0
C1675 C 0.13163 1.00148 0.59143 0.0
C1676 C 0.11639 0.976 0.50185 0.0
H1677 H 0.1078 0.88147 0.51068 0.0
H1678 H 0.11129 0.91125 0.54286 0.0
H1679 H 0.10511 0.95704 0.46022 0.0
H1680 H 0.14129 0.03905 0.51309 0.0
H1681 H 0.13522 0.00835 0.49055 0.0
H1682 H 0.14237 0.96495 0.58279 0.0
C1683 C 0.11381 0.90996 0.51096 0.0
C1684 C 0.11322 0.9586 0.4871 0.0
C1685 C 0.11177 0.89298 0.49257 0.0
C1686 C 0.13879 0.02874 0.53544 0.0
C1687 C 0.13506 0.01114 0.52247 0.0
C1688 C 0.13397 0.96339 0.55639 0.0
C1689 C 0.11867 0.92521 0.48805 0.0
C1690 C 0.12059 0.9434 0.50643 0.0
C1691 C 0.13132 0.99731 0.55028 0.0
C1692 C 0.12709 0.97865 0.53622 0.0
H1693 H 0.12247 0.90522 0.39666 0.0
H1694 H 0.12589 0.9345 0.42851 0.0
H1695 H 0.13665 0.93445 0.557 0.0
H1696 H 0.13566 0.02173 0.63634 0.0
H1697 H 0.1287 0.9912 0.61366 0.0
C1698 C 0.02011 0.8669 0.38516 0.0
C1699 C 0.0347 0.86479 0.41183 0.0
C1700 C 0.00302 0.87182 0.39935 0.0
C1701 C 0.98041 0.89299 0.48647 0.0
H1702 H 0.93759 0.8685 0.4467 0.0
C1703 C 0.91353 0.89283 0.57254 0.0
C1704 C 0.89725 0.89466 0.55123 0.0
C1705 C 0.92989 0.89102 0.55229 0.0
C1706 C 0.94938 0.87567 0.4576 0.0
H1707 H 0.04271 0.86631 0.47438 0.0
H1708 H 0.01289 0.87446 0.49919 0.0
H1709 H 0.96709 0.86144 0.4177 0.0
H1710 H 0.88535 0.8962 0.49184 0.0
H1711 H 0.91419 0.89291 0.45615 0.0
H1712 H 0.96279 0.90691 0.52697 0.0
C1713 C 0.01471 0.87254 0.4672 0.0
C1714 C 0.96628 0.87162 0.44106 0.0
C1715 C 0.03177 0.86762 0.45303 0.0
C1716 C 0.8977 0.89484 0.50905 0.0
C1717 C 0.91416 0.89287 0.48866 0.0
C1718 C 0.96355 0.897 0.50302 0.0
C1719 C 1.00014 0.87476 0.44052 0.0
C1720 C 0.98203 0.87998 0.45586 0.0
C1721 C 0.93041 0.89091 0.51017 0.0
C1722 C 0.94791 0.88814 0.48932 0.0
H1723 H 0.02183 0.86463 0.3533 0.0
H1724 H 0.9921 0.87351 0.37799 0.0
H1725 H 0.99221 0.89997 0.49791 0.0
H1726 H 0.91367 0.89265 0.60506 0.0
H1727 H 0.94213 0.88926 0.56973 0.0
loop_
_geom_bond_atom_site_label_1
_geom_bond_atom_site_label_2
_geom_bond_distance
_geom_bond_site_symmetry_2
_ccdc_geom_bond_type
C0 C1 1.351 . S
C0 N3 1.368 . S
C0 H5 0.931 . S
C1 C0 1.351 . S
C1 N2 1.373 . S
C1 H29 0.930 . S
N2 C1 1.373 . S
N2 C4 1.340 . S
N3 C0 1.368 . S
N3 C4 1.321 . S
N3 Co6 2.135 . S
C4 N2 1.340 . S
C4 N3 1.321 . S
C4 H28 0.930 . S
H5 C0 0.931 . S
Co6 N3 2.135 . S
Co6 N9 2.121 . S
Co6 O14 2.055 . S
Co6 O17 2.039 . S
Co6 N20 2.140 . S
C7 O8 1.227 . S
C7 O17 1.265 . S
O8 C7 1.227 . S
N9 Co6 2.121 . S
N9 C11 1.375 . S
N9 C12 1.313 . S
C10 C11 1.338 . S
C10 N13 1.377 . S
C10 H30 0.930 . S
C11 N9 1.375 . S
C11 C10 1.338 . S
C11 H15 0.931 . S
C12 N9 1.313 . S
C12 N13 1.344 . S
C12 H16 0.930 . S
N13 C10 1.377 . S
N13 C12 1.344 . S
O14 Co6 2.055 . S
O14 C18 1.253 . S
H15 C11 0.931 . S
H16 C12 0.930 . S
O17 Co6 2.039 . S
O17 C7 1.265 . S
C18 O14 1.253 . S
C18 O19 1.227 . S
O19 C18 1.227 . S
N20 Co6 2.140 . S
N20 C23 1.346 . S
N20 C24 1.345 . S
C21 C22 1.387 . S
C21 C25 1.391 . S
C22 C21 1.387 . S
C22 C23 1.369 . S
C22 H31 0.929 . S
C23 N20 1.346 . S
C23 C22 1.369 . S
C23 H26 0.928 . S
C24 N20 1.345 . S
C24 C25 1.371 . S
C24 H27 0.931 . S
C25 C21 1.391 . S
C25 C24 1.371 . S
C25 H32 0.930 . S
H26 C23 0.928 . S
H27 C24 0.931 . S
H28 C4 0.930 . S
H29 C1 0.930 . S
H30 C10 0.930 . S
H31 C22 0.929 . S
H32 C25 0.930 . S
C33 C34 1.351 . S
C33 N36 1.368 . S
C33 H38 0.931 . S
C34 C33 1.351 . S
C34 N35 1.373 . S
C34 H62 0.930 . S
N35 C34 1.373 . S
N35 C37 1.340 . S
N36 C33 1.368 . S
N36 C37 1.321 . S
N36 Co39 2.135 . S
C37 N35 1.340 . S
C37 N36 1.321 . S
C37 H61 0.930 . S
H38 C33 0.931 . S
Co39 N36 2.135 . S
Co39 N42 2.121 . S
Co39 O47 2.055 . S
Co39 O50 2.039 . S
Co39 N53 2.140 . S
C40 O41 1.227 . S
C40 O50 1.265 . S
O41 C40 1.227 . S
N42 Co39 2.121 . S
N42 C44 1.375 . S
N42 C45 1.313 . S
C43 C44 1.338 . S
C43 N46 1.377 . S
C43 H63 0.930 . S
C44 N42 1.375 . S
C44 C43 1.338 . S
C44 H48 0.931 . S
C45 N42 1.313 . S
C45 N46 1.344 . S
C45 H49 0.930 . S
N46 C43 1.377 . S
N46 C45 1.344 . S
O47 Co39 2.055 . S
O47 C51 1.253 . S
H48 C44 0.931 . S
H49 C45 0.930 . S
O50 Co39 2.039 . S
O50 C40 1.265 . S
C51 O47 1.253 . S
C51 O52 1.227 . S
O52 C51 1.227 . S
N53 Co39 2.140 . S
N53 C56 1.346 . S
N53 C57 1.345 . S
C54 C55 1.387 . S
C54 C58 1.391 . S
C55 C54 1.387 . S
C55 C56 1.369 . S
C55 H64 0.929 . S
C56 N53 1.346 . S
C56 C55 1.369 . S
C56 H59 0.928 . S
C57 N53 1.345 . S
C57 C58 1.371 . S
C57 H60 0.931 . S
C58 C54 1.391 . S
C58 C57 1.371 . S
C58 H65 0.930 . S
H59 C56 0.928 . S
H60 C57 0.931 . S
H61 C37 0.930 . S
H62 C34 0.930 . S
H63 C43 0.930 . S
H64 C55 0.929 . S
H65 C58 0.930 . S
C66 C67 1.351 . S
C66 N69 1.368 . S
C66 H71 0.931 . S
C67 C66 1.351 . S
C67 N68 1.373 . S
C67 H95 0.930 . S
N68 C67 1.373 . S
N68 C70 1.340 . S
N69 C66 1.368 . S
N69 C70 1.321 . S
N69 Co72 2.135 . S
C70 N68 1.340 . S
C70 N69 1.321 . S
C70 H94 0.930 . S
H71 C66 0.931 . S
Co72 N69 2.135 . S
Co72 N75 2.121 . S
Co72 O80 2.055 . S
Co72 O83 2.039 . S
Co72 N86 2.140 . S
C73 O74 1.227 . S
C73 O83 1.265 . S
O74 C73 1.227 . S
N75 Co72 2.121 . S
N75 C77 1.375 . S
N75 C78 1.313 . S
C76 C77 1.338 . S
C76 N79 1.377 . S
C76 H96 0.930 . S
C77 N75 1.375 . S
C77 C76 1.338 . S
C77 H81 0.931 . S
C78 N75 1.313 . S
C78 N79 1.344 . S
C78 H82 0.930 . S
N79 C76 1.377 . S
N79 C78 1.344 . S
O80 Co72 2.055 . S
O80 C84 1.253 . S
H81 C77 0.931 . S
H82 C78 0.930 . S
O83 Co72 2.039 . S
O83 C73 1.265 . S
C84 O80 1.253 . S
C84 O85 1.227 . S
O85 C84 1.227 . S
N86 Co72 2.140 . S
N86 C89 1.346 . S
N86 C90 1.345 . S
C87 C88 1.387 . S
C87 C91 1.391 . S
C88 C87 1.387 . S
C88 C89 1.369 . S
C88 H97 0.929 . S
C89 N86 1.346 . S
C89 C88 1.369 . S
C89 H92 0.928 . S
C90 N86 1.345 . S
C90 C91 1.371 . S
C90 H93 0.931 . S
C91 C87 1.391 . S
C91 C90 1.371 . S
C91 H98 0.930 . S
H92 C89 0.928 . S
H93 C90 0.931 . S
H94 C70 0.930 . S
H95 C67 0.930 . S
H96 C76 0.930 . S
H97 C88 0.929 . S
H98 C91 0.930 . S
C99 C100 1.351 . S
C99 N102 1.368 . S
C99 H104 0.931 . S
C100 C99 1.351 . S
C100 N101 1.373 . S
C100 H128 0.930 . S
N101 C100 1.373 . S
N101 C103 1.340 . S
N102 C99 1.368 . S
N102 C103 1.321 . S
N102 Co105 2.135 . S
C103 N101 1.340 . S
C103 N102 1.321 . S
C103 H127 0.930 . S
H104 C99 0.931 . S
Co105 N102 2.135 . S
Co105 N108 2.121 . S
Co105 O113 2.055 . S
Co105 O116 2.039 . S
Co105 N119 2.140 . S
C106 O107 1.227 . S
C106 O116 1.265 . S
O107 C106 1.227 . S
N108 Co105 2.121 . S
N108 C110 1.375 . S
N108 C111 1.313 . S
C109 C110 1.338 . S
C109 N112 1.377 . S
C109 H129 0.930 . S
C110 N108 1.375 . S
C110 C109 1.338 . S
C110 H114 0.931 . S
C111 N108 1.313 . S
C111 N112 1.344 . S
C111 H115 0.930 . S
N112 C109 1.377 . S
N112 C111 1.344 . S
O113 Co105 2.055 . S
O113 C117 1.253 . S
H114 C110 0.931 . S
H115 C111 0.930 . S
O116 Co105 2.039 . S
O116 C106 1.265 . S
C117 O113 1.253 . S
C117 O118 1.227 . S
O118 C117 1.227 . S
N119 Co105 2.140 . S
N119 C122 1.346 . S
N119 C123 1.345 . S
C120 C121 1.387 . S
C120 C124 1.391 . S
C121 C120 1.387 . S
C121 C122 1.369 . S
C121 H130 0.929 . S
C122 N119 1.346 . S
C122 C121 1.369 . S
C122 H125 0.928 . S
C123 N119 1.345 . S
C123 C124 1.371 . S
C123 H126 0.931 . S
C124 C120 1.391 . S
C124 C123 1.371 . S
C124 H131 0.930 . S
H125 C122 0.928 . S
H126 C123 0.931 . S
H127 C103 0.930 . S
H128 C100 0.930 . S
H129 C109 0.930 . S
H130 C121 0.929 . S
H131 C124 0.930 . S
C132 C133 1.351 . S
C132 N135 1.368 . S
C132 H137 0.931 . S
C133 C132 1.351 . S
C133 N134 1.373 . S
C133 H161 0.930 . S
N134 C133 1.373 . S
N134 C136 1.340 . S
N135 C132 1.368 . S
N135 C136 1.321 . S
N135 Co138 2.135 . S
C136 N134 1.340 . S
C136 N135 1.321 . S
C136 H160 0.930 . S
H137 C132 0.931 . S
Co138 N135 2.135 . S
Co138 N141 2.121 . S
Co138 O146 2.055 . S
Co138 O149 2.039 . S
Co138 N152 2.140 . S
C139 O140 1.227 . S
C139 O149 1.265 . S
O140 C139 1.227 . S
N141 Co138 2.121 . S
N141 C143 1.375 . S
N141 C144 1.313 . S
C142 C143 1.338 . S
C142 N145 1.377 . S
C142 H162 0.930 . S
C143 N141 1.375 . S
C143 C142 1.338 . S
C143 H147 0.931 . S
C144 N141 1.313 . S
C144 N145 1.344 . S
C144 H148 0.930 . S
N145 C142 1.377 . S
N145 C144 1.344 . S
O146 Co138 2.055 . S
O146 C150 1.253 . S
H147 C143 0.931 . S
H148 C144 0.930 . S
O149 Co138 2.039 . S
O149 C139 1.265 . S
C150 O146 1.253 . S
C150 O151 1.227 . S
O151 C150 1.227 . S
N152 Co138 2.140 . S
N152 C155 1.346 . S
N152 C156 1.345 . S
C153 C154 1.387 . S
C153 C157 1.391 . S
C154 C153 1.387 . S
C154 C155 1.369 . S
C154 H163 0.929 . S
C155 N152 1.346 . S
C155 C154 1.369 . S
C155 H158 0.928 . S
C156 N152 1.345 . S
C156 C157 1.371 . S
C156 H159 0.931 . S
C157 C153 1.391 . S
C157 C156 1.371 . S
C157 H164 0.930 . S
H158 C155 0.928 . S
H159 C156 0.931 . S
H160 C136 0.930 . S
H161 C133 0.930 . S
H162 C142 0.930 . S
H163 C154 0.929 . S
H164 C157 0.930 . S
C165 C166 1.351 . S
C165 N168 1.368 . S
C165 H170 0.931 . S
C166 C165 1.351 . S
C166 N167 1.373 . S
C166 H194 0.930 . S
N167 C166 1.373 . S
N167 C169 1.340 . S
N168 C165 1.368 . S
N168 C169 1.321 . S
N168 Co171 2.135 . S
C169 N167 1.340 . S
C169 N168 1.321 . S
C169 H193 0.930 . S
H170 C165 0.931 . S
Co171 N168 2.135 . S
Co171 N174 2.121 . S
Co171 O179 2.055 . S
Co171 O182 2.039 . S
Co171 N185 2.140 . S
C172 O173 1.227 . S
C172 O182 1.265 . S
O173 C172 1.227 . S
N174 Co171 2.121 . S
N174 C176 1.375 . S
N174 C177 1.313 . S
C175 C176 1.338 . S
C175 N178 1.377 . S
C175 H195 0.930 . S
C176 N174 1.375 . S
C176 C175 1.338 . S
C176 H180 0.931 . S
C177 N174 1.313 . S
C177 N178 1.344 . S
C177 H181 0.930 . S
N178 C175 1.377 . S
N178 C177 1.344 . S
O179 Co171 2.055 . S
O179 C183 1.253 . S
H180 C176 0.931 . S
H181 C177 0.930 . S
O182 Co171 2.039 . S
O182 C172 1.265 . S
C183 O179 1.253 . S
C183 O184 1.227 . S
O184 C183 1.227 . S
N185 Co171 2.140 . S
N185 C188 1.346 . S
N185 C189 1.345 . S
C186 C187 1.387 . S
C186 C190 1.391 . S
C187 C186 1.387 . S
C187 C188 1.369 . S
C187 H196 0.929 . S
C188 N185 1.346 . S
C188 C187 1.369 . S
C188 H191 0.928 . S
C189 N185 1.345 . S
C189 C190 1.371 . S
C189 H192 0.931 . S
C190 C186 1.391 . S
C190 C189 1.371 . S
C190 H197 0.930 . S
H191 C188 0.928 . S
H192 C189 0.931 . S
H193 C169 0.930 . S
H194 C166 0.930 . S
H195 C175 0.930 . S
H196 C187 0.929 . S
H197 C190 0.930 . S
C198 C199 1.351 . S
C198 N201 1.368 . S
C198 H203 0.931 . S
C199 C198 1.351 . S
C199 N200 1.373 . S
C199 H227 0.930 . S
N200 C199 1.373 . S
N200 C202 1.340 . S
N201 C198 1.368 . S
N201 C202 1.321 . S
N201 Co204 2.135 . S
C202 N200 1.340 . S
C202 N201 1.321 . S
C202 H226 0.930 . S
H203 C198 0.931 . S
Co204 N201 2.135 . S
Co204 N207 2.121 . S
Co204 O212 2.055 . S
Co204 O215 2.039 . S
Co204 N218 2.140 . S
C205 O206 1.227 . S
C205 O215 1.265 . S
O206 C205 1.227 . S
N207 Co204 2.121 . S
N207 C209 1.375 . S
N207 C210 1.313 . S
C208 C209 1.338 . S
C208 N211 1.377 . S
C208 H228 0.930 . S
C209 N207 1.375 . S
C209 C208 1.338 . S
C209 H213 0.931 . S
C210 N207 1.313 . S
C210 N211 1.344 . S
C210 H214 0.930 . S
N211 C208 1.377 . S
N211 C210 1.344 . S
O212 Co204 2.055 . S
O212 C216 1.253 . S
H213 C209 0.931 . S
H214 C210 0.930 . S
O215 Co204 2.039 . S
O215 C205 1.265 . S
C216 O212 1.253 . S
C216 O217 1.227 . S
O217 C216 1.227 . S
N218 Co204 2.140 . S
N218 C221 1.346 . S
N218 C222 1.345 . S
C219 C220 1.387 . S
C219 C223 1.391 . S
C220 C219 1.387 . S
C220 C221 1.369 . S
C220 H229 0.929 . S
C221 N218 1.346 . S
C221 C220 1.369 . S
C221 H224 0.928 . S
C222 N218 1.345 . S
C222 C223 1.371 . S
C222 H225 0.931 . S
C223 C219 1.391 . S
C223 C222 1.371 . S
C223 H230 0.930 . S
H224 C221 0.928 . S
H225 C222 0.931 . S
H226 C202 0.930 . S
H227 C199 0.930 . S
H228 C208 0.930 . S
H229 C220 0.929 . S
H230 C223 0.930 . S
C231 C232 1.351 . S
C231 N234 1.368 . S
C231 H236 0.931 . S
C232 C231 1.351 . S
C232 N233 1.373 . S
C232 H260 0.930 . S
N233 C232 1.373 . S
N233 C235 1.340 . S
N234 C231 1.368 . S
N234 C235 1.321 . S
N234 Co237 2.135 . S
C235 N233 1.340 . S
C235 N234 1.321 . S
C235 H259 0.930 . S
H236 C231 0.931 . S
Co237 N234 2.135 . S
Co237 N240 2.121 . S
Co237 O245 2.055 . S
Co237 O248 2.039 . S
Co237 N251 2.140 . S
C238 O239 1.227 . S
C238 O248 1.265 . S
O239 C238 1.227 . S
N240 Co237 2.121 . S
N240 C242 1.375 . S
N240 C243 1.313 . S
C241 C242 1.338 . S
C241 N244 1.377 . S
C241 H261 0.930 . S
C242 N240 1.375 . S
C242 C241 1.338 . S
C242 H246 0.931 . S
C243 N240 1.313 . S
C243 N244 1.344 . S
C243 H247 0.930 . S
N244 C241 1.377 . S
N244 C243 1.344 . S
O245 Co237 2.055 . S
O245 C249 1.253 . S
H246 C242 0.931 . S
H247 C243 0.930 . S
O248 Co237 2.039 . S
O248 C238 1.265 . S
C249 O245 1.253 . S
C249 O250 1.227 . S
O250 C249 1.227 . S
N251 Co237 2.140 . S
N251 C254 1.346 . S
N251 C255 1.345 . S
C252 C253 1.387 . S
C252 C256 1.391 . S
C253 C252 1.387 . S
C253 C254 1.369 . S
C253 H262 0.929 . S
C254 N251 1.346 . S
C254 C253 1.369 . S
C254 H257 0.928 . S
C255 N251 1.345 . S
C255 C256 1.371 . S
C255 H258 0.931 . S
C256 C252 1.391 . S
C256 C255 1.371 . S
C256 H263 0.930 . S
H257 C254 0.928 . S
H258 C255 0.931 . S
H259 C235 0.930 . S
H260 C232 0.930 . S
H261 C241 0.930 . S
H262 C253 0.929 . S
H263 C256 0.930 . S
C264 C265 1.351 . S
C264 N267 1.368 . S
C264 H269 0.931 . S
C265 C264 1.351 . S
C265 N266 1.373 . S
C265 H293 0.930 . S
N266 C265 1.373 . S
N266 C268 1.340 . S
N267 C264 1.368 . S
N267 C268 1.321 . S
N267 Co270 2.135 . S
C268 N266 1.340 . S
C268 N267 1.321 . S
C268 H292 0.930 . S
H269 C264 0.931 . S
Co270 N267 2.135 . S
Co270 N273 2.121 . S
Co270 O278 2.055 . S
Co270 O281 2.039 . S
Co270 N284 2.140 . S
C271 O272 1.227 . S
C271 O281 1.265 . S
O272 C271 1.227 . S
N273 Co270 2.121 . S
N273 C275 1.375 . S
N273 C276 1.313 . S
C274 C275 1.338 . S
C274 N277 1.377 . S
C274 H294 0.930 . S
C275 N273 1.375 . S
C275 C274 1.338 . S
C275 H279 0.931 . S
C276 N273 1.313 . S
C276 N277 1.344 . S
C276 H280 0.930 . S
N277 C274 1.377 . S
N277 C276 1.344 . S
O278 Co270 2.055 . S
O278 C282 1.253 . S
H279 C275 0.931 . S
H280 C276 0.930 . S
O281 Co270 2.039 . S
O281 C271 1.265 . S
C282 O278 1.253 . S
C282 O283 1.227 . S
O283 C282 1.227 . S
N284 Co270 2.140 . S
N284 C287 1.346 . S
N284 C288 1.345 . S
C285 C286 1.387 . S
C285 C289 1.391 . S
C286 C285 1.387 . S
C286 C287 1.369 . S
C286 H295 0.929 . S
C287 N284 1.346 . S
C287 C286 1.369 . S
C287 H290 0.928 . S
C288 N284 1.345 . S
C288 C289 1.371 . S
C288 H291 0.931 . S
C289 C285 1.391 . S
C289 C288 1.371 . S
C289 H296 0.930 . S
H290 C287 0.928 . S
H291 C288 0.931 . S
H292 C268 0.930 . S
H293 C265 0.930 . S
H294 C274 0.930 . S
H295 C286 0.929 . S
H296 C289 0.930 . S
C297 C298 1.351 . S
C297 N300 1.368 . S
C297 H302 0.931 . S
C298 C297 1.351 . S
C298 N299 1.373 . S
C298 H326 0.930 . S
N299 C298 1.373 . S
N299 C301 1.340 . S
N300 C297 1.368 . S
N300 C301 1.321 . S
N300 Co303 2.135 . S
C301 N299 1.340 . S
C301 N300 1.321 . S
C301 H325 0.930 . S
H302 C297 0.931 . S
Co303 N300 2.135 . S
Co303 N306 2.121 . S
Co303 O311 2.055 . S
Co303 O314 2.039 . S
Co303 N317 2.140 . S
C304 O305 1.227 . S
C304 O314 1.265 . S
O305 C304 1.227 . S
N306 Co303 2.121 . S
N306 C308 1.375 . S
N306 C309 1.313 . S
C307 C308 1.338 . S
C307 N310 1.377 . S
C307 H327 0.930 . S
C308 N306 1.375 . S
C308 C307 1.338 . S
C308 H312 0.931 . S
C309 N306 1.313 . S
C309 N310 1.344 . S
C309 H313 0.930 . S
N310 C307 1.377 . S
N310 C309 1.344 . S
O311 Co303 2.055 . S
O311 C315 1.253 . S
H312 C308 0.931 . S
H313 C309 0.930 . S
O314 Co303 2.039 . S
O314 C304 1.265 . S
C315 O311 1.253 . S
C315 O316 1.227 . S
O316 C315 1.227 . S
N317 Co303 2.140 . S
N317 C320 1.346 . S
N317 C321 1.345 . S
C318 C319 1.387 . S
C318 C322 1.391 . S
C319 C318 1.387 . S
C319 C320 1.369 . S
C319 H328 0.929 . S
C320 N317 1.346 . S
C320 C319 1.369 . S
C320 H323 0.928 . S
C321 N317 1.345 . S
C321 C322 1.371 . S
C321 H324 0.931 . S
C322 C318 1.391 . S
C322 C321 1.371 . S
C322 H329 0.930 . S
H323 C320 0.928 . S
H324 C321 0.931 . S
H325 C301 0.930 . S
H326 C298 0.930 . S
H327 C307 0.930 . S
H328 C319 0.929 . S
H329 C322 0.930 . S
C330 C331 1.351 . S
C330 N333 1.368 . S
C330 H335 0.931 . S
C331 C330 1.351 . S
C331 N332 1.373 . S
C331 H359 0.930 . S
N332 C331 1.373 . S
N332 C334 1.340 . S
N333 C330 1.368 . S
N333 C334 1.321 . S
N333 Co336 2.135 . S
C334 N332 1.340 . S
C334 N333 1.321 . S
C334 H358 0.930 . S
H335 C330 0.931 . S
Co336 N333 2.135 . S
Co336 N339 2.121 . S
Co336 O344 2.055 . S
Co336 O347 2.039 . S
Co336 N350 2.140 . S
C337 O338 1.227 . S
C337 O347 1.265 . S
O338 C337 1.227 . S
N339 Co336 2.121 . S
N339 C341 1.375 . S
N339 C342 1.313 . S
C340 C341 1.338 . S
C340 N343 1.377 . S
C340 H360 0.930 . S
C341 N339 1.375 . S
C341 C340 1.338 . S
C341 H345 0.931 . S
C342 N339 1.313 . S
C342 N343 1.344 . S
C342 H346 0.930 . S
N343 C340 1.377 . S
N343 C342 1.344 . S
O344 Co336 2.055 . S
O344 C348 1.253 . S
H345 C341 0.931 . S
H346 C342 0.930 . S
O347 Co336 2.039 . S
O347 C337 1.265 . S
C348 O344 1.253 . S
C348 O349 1.227 . S
O349 C348 1.227 . S
N350 Co336 2.140 . S
N350 C353 1.346 . S
N350 C354 1.345 . S
C351 C352 1.387 . S
C351 C355 1.391 . S
C352 C351 1.387 . S
C352 C353 1.369 . S
C352 H361 0.929 . S
C353 N350 1.346 . S
C353 C352 1.369 . S
C353 H356 0.928 . S
C354 N350 1.345 . S
C354 C355 1.371 . S
C354 H357 0.931 . S
C355 C351 1.391 . S
C355 C354 1.371 . S
C355 H362 0.930 . S
H356 C353 0.928 . S
H357 C354 0.931 . S
H358 C334 0.930 . S
H359 C331 0.930 . S
H360 C340 0.930 . S
H361 C352 0.929 . S
H362 C355 0.930 . S
C363 C364 1.351 . S
C363 N366 1.368 . S
C363 H368 0.931 . S
C364 C363 1.351 . S
C364 N365 1.373 . S
C364 H392 0.930 . S
N365 C364 1.373 . S
N365 C367 1.340 . S
N366 C363 1.368 . S
N366 C367 1.321 . S
N366 Co369 2.135 . S
C367 N365 1.340 . S
C367 N366 1.321 . S
C367 H391 0.930 . S
H368 C363 0.931 . S
Co369 N366 2.135 . S
Co369 N372 2.121 . S
Co369 O377 2.055 . S
Co369 O380 2.039 . S
Co369 N383 2.140 . S
C370 O371 1.227 . S
C370 O380 1.265 . S
O371 C370 1.227 . S
N372 Co369 2.121 . S
N372 C374 1.375 . S
N372 C375 1.313 . S
C373 C374 1.338 . S
C373 N376 1.377 . S
C373 H393 0.930 . S
C374 N372 1.375 . S
C374 C373 1.338 . S
C374 H378 0.931 . S
C375 N372 1.313 . S
C375 N376 1.344 . S
C375 H379 0.930 . S
N376 C373 1.377 . S
N376 C375 1.344 . S
O377 Co369 2.055 . S
O377 C381 1.253 . S
H378 C374 0.931 . S
H379 C375 0.930 . S
O380 Co369 2.039 . S
O380 C370 1.265 . S
C381 O377 1.253 . S
C381 O382 1.227 . S
O382 C381 1.227 . S
N383 Co369 2.140 . S
N383 C386 1.346 . S
N383 C387 1.345 . S
C384 C385 1.387 . S
C384 C388 1.391 . S
C385 C384 1.387 . S
C385 C386 1.369 . S
C385 H394 0.929 . S
C386 N383 1.346 . S
C386 C385 1.369 . S
C386 H389 0.928 . S
C387 N383 1.345 . S
C387 C388 1.371 . S
C387 H390 0.931 . S
C388 C384 1.391 . S
C388 C387 1.371 . S
C388 H395 0.930 . S
H389 C386 0.928 . S
H390 C387 0.931 . S
H391 C367 0.930 . S
H392 C364 0.930 . S
H393 C373 0.930 . S
H394 C385 0.929 . S
H395 C388 0.930 . S
C396 C397 1.351 . S
C396 N399 1.368 . S
C396 H401 0.931 . S
C397 C396 1.351 . S
C397 N398 1.373 . S
C397 H425 0.930 . S
N398 C397 1.373 . S
N398 C400 1.340 . S
N399 C396 1.368 . S
N399 C400 1.321 . S
N399 Co402 2.135 . S
C400 N398 1.340 . S
C400 N399 1.321 . S
C400 H424 0.930 . S
H401 C396 0.931 . S
Co402 N399 2.135 . S
Co402 N405 2.121 . S
Co402 O410 2.055 . S
Co402 O413 2.039 . S
Co402 N416 2.140 . S
C403 O404 1.227 . S
C403 O413 1.265 . S
O404 C403 1.227 . S
N405 Co402 2.121 . S
N405 C407 1.375 . S
N405 C408 1.313 . S
C406 C407 1.338 . S
C406 N409 1.377 . S
C406 H426 0.930 . S
C407 N405 1.375 . S
C407 C406 1.338 . S
C407 H411 0.931 . S
C408 N405 1.313 . S
C408 N409 1.344 . S
C408 H412 0.930 . S
N409 C406 1.377 . S
N409 C408 1.344 . S
O410 Co402 2.055 . S
O410 C414 1.253 . S
H411 C407 0.931 . S
H412 C408 0.930 . S
O413 Co402 2.039 . S
O413 C403 1.265 . S
C414 O410 1.253 . S
C414 O415 1.227 . S
O415 C414 1.227 . S
N416 Co402 2.140 . S
N416 C419 1.346 . S
N416 C420 1.345 . S
C417 C418 1.387 . S
C417 C421 1.391 . S
C418 C417 1.387 . S
C418 C419 1.369 . S
C418 H427 0.929 . S
C419 N416 1.346 . S
C419 C418 1.369 . S
C419 H422 0.928 . S
C420 N416 1.345 . S
C420 C421 1.371 . S
C420 H423 0.931 . S
C421 C417 1.391 . S
C421 C420 1.371 . S
C421 H428 0.930 . S
H422 C419 0.928 . S
H423 C420 0.931 . S
H424 C400 0.930 . S
H425 C397 0.930 . S
H426 C406 0.930 . S
H427 C418 0.929 . S
H428 C421 0.930 . S
C429 C430 1.351 . S
C429 N432 1.368 . S
C429 H434 0.931 . S
C430 C429 1.351 . S
C430 N431 1.373 . S
C430 H458 0.930 . S
N431 C430 1.373 . S
N431 C433 1.340 . S
N432 C429 1.368 . S
N432 C433 1.321 . S
N432 Co435 2.135 . S
C433 N431 1.340 . S
C433 N432 1.321 . S
C433 H457 0.930 . S
H434 C429 0.931 . S
Co435 N432 2.135 . S
Co435 N438 2.121 . S
Co435 O443 2.055 . S
Co435 O446 2.039 . S
Co435 N449 2.140 . S
C436 O437 1.227 . S
C436 O446 1.265 . S
O437 C436 1.227 . S
N438 Co435 2.121 . S
N438 C440 1.375 . S
N438 C441 1.313 . S
C439 C440 1.338 . S
C439 N442 1.377 . S
C439 H459 0.930 . S
C440 N438 1.375 . S
C440 C439 1.338 . S
C440 H444 0.931 . S
C441 N438 1.313 . S
C441 N442 1.344 . S
C441 H445 0.930 . S
N442 C439 1.377 . S
N442 C441 1.344 . S
O443 Co435 2.055 . S
O443 C447 1.253 . S
H444 C440 0.931 . S
H445 C441 0.930 . S
O446 Co435 2.039 . S
O446 C436 1.265 . S
C447 O443 1.253 . S
C447 O448 1.227 . S
O448 C447 1.227 . S
N449 Co435 2.140 . S
N449 C452 1.346 . S
N449 C453 1.345 . S
C450 C451 1.387 . S
C450 C454 1.391 . S
C451 C450 1.387 . S
C451 C452 1.369 . S
C451 H460 0.929 . S
C452 N449 1.346 . S
C452 C451 1.369 . S
C452 H455 0.928 . S
C453 N449 1.345 . S
C453 C454 1.371 . S
C453 H456 0.931 . S
C454 C450 1.391 . S
C454 C453 1.371 . S
C454 H461 0.930 . S
H455 C452 0.928 . S
H456 C453 0.931 . S
H457 C433 0.930 . S
H458 C430 0.930 . S
H459 C439 0.930 . S
H460 C451 0.929 . S
H461 C454 0.930 . S
C462 C463 1.351 . S
C462 N465 1.368 . S
C462 H467 0.931 . S
C463 C462 1.351 . S
C463 N464 1.373 . S
C463 H491 0.930 . S
N464 C463 1.373 . S
N464 C466 1.340 . S
N465 C462 1.368 . S
N465 C466 1.321 . S
N465 Co468 2.135 . S
C466 N464 1.340 . S
C466 N465 1.321 . S
C466 H490 0.930 . S
H467 C462 0.931 . S
Co468 N465 2.135 . S
Co468 N471 2.121 . S
Co468 O476 2.055 . S
Co468 O479 2.039 . S
Co468 N482 2.140 . S
C469 O470 1.227 . S
C469 O479 1.265 . S
O470 C469 1.227 . S
N471 Co468 2.121 . S
N471 C473 1.375 . S
N471 C474 1.313 . S
C472 C473 1.338 . S
C472 N475 1.377 . S
C472 H492 0.930 . S
C473 N471 1.375 . S
C473 C472 1.338 . S
C473 H477 0.931 . S
C474 N471 1.313 . S
C474 N475 1.344 . S
C474 H478 0.930 . S
N475 C472 1.377 . S
N475 C474 1.344 . S
O476 Co468 2.055 . S
O476 C480 1.253 . S
H477 C473 0.931 . S
H478 C474 0.930 . S
O479 Co468 2.039 . S
O479 C469 1.265 . S
C480 O476 1.253 . S
C480 O481 1.227 . S
O481 C480 1.227 . S
N482 Co468 2.140 . S
N482 C485 1.346 . S
N482 C486 1.345 . S
C483 C484 1.387 . S
C483 C487 1.391 . S
C484 C483 1.387 . S
C484 C485 1.369 . S
C484 H493 0.929 . S
C485 N482 1.346 . S
C485 C484 1.369 . S
C485 H488 0.928 . S
C486 N482 1.345 . S
C486 C487 1.371 . S
C486 H489 0.931 . S
C487 C483 1.391 . S
C487 C486 1.371 . S
C487 H494 0.930 . S
H488 C485 0.928 . S
H489 C486 0.931 . S
H490 C466 0.930 . S
H491 C463 0.930 . S
H492 C472 0.930 . S
H493 C484 0.929 . S
H494 C487 0.930 . S
C495 C496 1.351 . S
C495 N498 1.368 . S
C495 H500 0.931 . S
C496 C495 1.351 . S
C496 N497 1.373 . S
C496 H524 0.930 . S
N497 C496 1.373 . S
N497 C499 1.340 . S
N498 C495 1.368 . S
N498 C499 1.321 . S
N498 Co501 2.135 . S
C499 N497 1.340 . S
C499 N498 1.321 . S
C499 H523 0.930 . S
H500 C495 0.931 . S
Co501 N498 2.135 . S
Co501 N504 2.121 . S
Co501 O509 2.055 . S
Co501 O512 2.039 . S
Co501 N515 2.140 . S
C502 O503 1.227 . S
C502 O512 1.265 . S
O503 C502 1.227 . S
N504 Co501 2.121 . S
N504 C506 1.375 . S
N504 C507 1.313 . S
C505 C506 1.338 . S
C505 N508 1.377 . S
C505 H525 0.930 . S
C506 N504 1.375 . S
C506 C505 1.338 . S
C506 H510 0.931 . S
C507 N504 1.313 . S
C507 N508 1.344 . S
C507 H511 0.930 . S
N508 C505 1.377 . S
N508 C507 1.344 . S
O509 Co501 2.055 . S
O509 C513 1.253 . S
H510 C506 0.931 . S
H511 C507 0.930 . S
O512 Co501 2.039 . S
O512 C502 1.265 . S
C513 O509 1.253 . S
C513 O514 1.227 . S
O514 C513 1.227 . S
N515 Co501 2.140 . S
N515 C518 1.346 . S
N515 C519 1.345 . S
C516 C517 1.387 . S
C516 C520 1.391 . S
C517 C516 1.387 . S
C517 C518 1.369 . S
C517 H526 0.929 . S
C518 N515 1.346 . S
C518 C517 1.369 . S
C518 H521 0.928 . S
C519 N515 1.345 . S
C519 C520 1.371 . S
C519 H522 0.931 . S
C520 C516 1.391 . S
C520 C519 1.371 . S
C520 H527 0.930 . S
H521 C518 0.928 . S
H522 C519 0.931 . S
H523 C499 0.930 . S
H524 C496 0.930 . S
H525 C505 0.930 . S
H526 C517 0.929 . S
H527 C520 0.930 . S
C528 C529 1.349 . S
C528 C530 1.327 . S
C528 H553 0.950 . S
C529 C528 1.349 . S
C529 C545 1.349 . S
C530 C528 1.327 . S
C530 C549 1.429 . S
C530 H554 0.950 . S
C531 C548 1.574 . S
C531 C550 1.368 . S
C531 H555 0.949 . S
H532 C536 0.949 . S
C533 C534 1.349 . S
C533 C535 1.327 . S
C533 H556 0.950 . S
C534 C533 1.349 . S
C534 C546 1.349 . S
C535 C533 1.327 . S
C535 C551 1.429 . S
C535 H557 0.950 . S
C536 H532 0.949 . S
C536 C544 1.574 . S
C536 C552 1.368 . S
H537 C545 0.950 . S
H538 C543 0.950 . S
H539 C544 0.949 . S
H540 C546 0.950 . S
H541 C547 0.950 . S
H542 C548 0.949 . S
C543 H538 0.950 . S
C543 C545 1.327 . S
C543 C549 1.429 . S
C544 C536 1.574 . S
C544 H539 0.949 . S
C544 C550 1.368 . S
C545 C529 1.349 . S
C545 H537 0.950 . S
C545 C543 1.327 . S
C546 C534 1.349 . S
C546 H540 0.950 . S
C546 C547 1.327 . S
C547 H541 0.950 . S
C547 C546 1.327 . S
C547 C551 1.429 . S
C548 C531 1.574 . S
C548 H542 0.949 . S
C548 C552 1.368 . S
C549 C530 1.429 . S
C549 C543 1.429 . S
C549 C550 1.523 . S
C550 C531 1.368 . S
C550 C544 1.368 . S
C550 C549 1.523 . S
C551 C535 1.429 . S
C551 C547 1.429 . S
C551 C552 1.523 . S
C552 C536 1.368 . S
C552 C548 1.368 . S
C552 C551 1.523 . S
H553 C528 0.950 . S
H554 C530 0.950 . S
H555 C531 0.949 . S
H556 C533 0.950 . S
H557 C535 0.950 . S
C558 C559 1.349 . S
C558 C560 1.327 . S
C558 H583 0.950 . S
C559 C558 1.349 . S
C559 C575 1.349 . S
C560 C558 1.327 . S
C560 C579 1.429 . S
C560 H584 0.950 . S
C561 C578 1.574 . S
C561 C580 1.368 . S
C561 H585 0.949 . S
H562 C566 0.949 . S
C563 C564 1.349 . S
C563 C565 1.327 . S
C563 H586 0.950 . S
C564 C563 1.349 . S
C564 C576 1.349 . S
C565 C563 1.327 . S
C565 C581 1.429 . S
C565 H587 0.950 . S
C566 H562 0.949 . S
C566 C574 1.574 . S
C566 C582 1.368 . S
H567 C575 0.950 . S
H568 C573 0.950 . S
H569 C574 0.949 . S
H570 C576 0.950 . S
H571 C577 0.950 . S
H572 C578 0.949 . S
C573 H568 0.950 . S
C573 C575 1.327 . S
C573 C579 1.429 . S
C574 C566 1.574 . S
C574 H569 0.949 . S
C574 C580 1.368 . S
C575 C559 1.349 . S
C575 H567 0.950 . S
C575 C573 1.327 . S
C576 C564 1.349 . S
C576 H570 0.950 . S
C576 C577 1.327 . S
C577 H571 0.950 . S
C577 C576 1.327 . S
C577 C581 1.429 . S
C578 C561 1.574 . S
C578 H572 0.949 . S
C578 C582 1.368 . S
C579 C560 1.429 . S
C579 C573 1.429 . S
C579 C580 1.523 . S
C580 C561 1.368 . S
C580 C574 1.368 . S
C580 C579 1.523 . S
C581 C565 1.429 . S
C581 C577 1.429 . S
C581 C582 1.523 . S
C582 C566 1.368 . S
C582 C578 1.368 . S
C582 C581 1.523 . S
H583 C558 0.950 . S
H584 C560 0.950 . S
H585 C561 0.949 . S
H586 C563 0.950 . S
H587 C565 0.950 . S
C588 C589 1.349 . S
C588 C590 1.327 . S
C588 H613 0.950 . S
C589 C588 1.349 . S
C589 C605 1.349 . S
C590 C588 1.327 . S
C590 C609 1.429 . S
C590 H614 0.950 . S
C591 C608 1.574 . S
C591 C610 1.368 . S
C591 H615 0.949 . S
H592 C596 0.949 . S
C593 C594 1.349 . S
C593 C595 1.327 . S
C593 H616 0.950 . S
C594 C593 1.349 . S
C594 C606 1.349 . S
C595 C593 1.327 . S
C595 C611 1.429 . S
C595 H617 0.950 . S
C596 H592 0.949 . S
C596 C604 1.574 . S
C596 C612 1.368 . S
H597 C605 0.950 . S
H598 C603 0.950 . S
H599 C604 0.949 . S
H600 C606 0.950 . S
H601 C607 0.950 . S
H602 C608 0.949 . S
C603 H598 0.950 . S
C603 C605 1.327 . S
C603 C609 1.429 . S
C604 C596 1.574 . S
C604 H599 0.949 . S
C604 C610 1.368 . S
C605 C589 1.349 . S
C605 H597 0.950 . S
C605 C603 1.327 . S
C606 C594 1.349 . S
C606 H600 0.950 . S
C606 C607 1.327 . S
C607 H601 0.950 . S
C607 C606 1.327 . S
C607 C611 1.429 . S
C608 C591 1.574 . S
C608 H602 0.949 . S
C608 C612 1.368 . S
C609 C590 1.429 . S
C609 C603 1.429 . S
C609 C610 1.523 . S
C610 C591 1.368 . S
C610 C604 1.368 . S
C610 C609 1.523 . S
C611 C595 1.429 . S
C611 C607 1.429 . S
C611 C612 1.523 . S
C612 C596 1.368 . S
C612 C608 1.368 . S
C612 C611 1.523 . S
H613 C588 0.950 . S
H614 C590 0.950 . S
H615 C591 0.949 . S
H616 C593 0.950 . S
H617 C595 0.950 . S
C618 C619 1.349 . S
C618 C620 1.327 . S
C618 H643 0.950 . S
C619 C618 1.349 . S
C619 C635 1.349 . S
C620 C618 1.327 . S
C620 C639 1.429 . S
C620 H644 0.950 . S
C621 C638 1.574 . S
C621 C640 1.368 . S
C621 H645 0.949 . S
H622 C626 0.949 . S
C623 C624 1.349 . S
C623 C625 1.327 . S
C623 H646 0.950 . S
C624 C623 1.349 . S
C624 C636 1.349 . S
C625 C623 1.327 . S
C625 C641 1.429 . S
C625 H647 0.950 . S
C626 H622 0.949 . S
C626 C634 1.574 . S
C626 C642 1.368 . S
H627 C635 0.950 . S
H628 C633 0.950 . S
H629 C634 0.949 . S
H630 C636 0.950 . S
H631 C637 0.950 . S
H632 C638 0.949 . S
C633 H628 0.950 . S
C633 C635 1.327 . S
C633 C639 1.429 . S
C634 C626 1.574 . S
C634 H629 0.949 . S
C634 C640 1.368 . S
C635 C619 1.349 . S
C635 H627 0.950 . S
C635 C633 1.327 . S
C636 C624 1.349 . S
C636 H630 0.950 . S
C636 C637 1.327 . S
C637 H631 0.950 . S
C637 C636 1.327 . S
C637 C641 1.429 . S
C638 C621 1.574 . S
C638 H632 0.949 . S
C638 C642 1.368 . S
C639 C620 1.429 . S
C639 C633 1.429 . S
C639 C640 1.523 . S
C640 C621 1.368 . S
C640 C634 1.368 . S
C640 C639 1.523 . S
C641 C625 1.429 . S
C641 C637 1.429 . S
C641 C642 1.523 . S
C642 C626 1.368 . S
C642 C638 1.368 . S
C642 C641 1.523 . S
H643 C618 0.950 . S
H644 C620 0.950 . S
H645 C621 0.949 . S
H646 C623 0.950 . S
H647 C625 0.950 . S
C648 C649 1.349 1_556 S
C648 C650 1.327 . S
C648 H673 0.950 . S
C649 C648 1.349 1_554 S
C649 C665 1.349 . S
C650 C648 1.327 . S
C650 C669 1.429 . S
C650 H674 0.950 . S
C651 C668 1.574 . S
C651 C670 1.368 . S
C651 H675 0.949 . S
H652 C656 0.949 . S
C653 C654 1.349 . S
C653 C655 1.327 . S
C653 H676 0.950 . S
C654 C653 1.349 . S
C654 C666 1.349 . S
C655 C653 1.327 . S
C655 C671 1.429 . S
C655 H677 0.950 . S
C656 H652 0.949 . S
C656 C664 1.574 . S
C656 C672 1.368 . S
H657 C665 0.950 . S
H658 C663 0.950 . S
H659 C664 0.949 . S
H660 C666 0.950 . S
H661 C667 0.950 . S
H662 C668 0.949 . S
C663 H658 0.950 . S
C663 C665 1.327 1_556 S
C663 C669 1.429 . S
C664 C656 1.574 . S
C664 H659 0.949 . S
C664 C670 1.368 . S
C665 C649 1.349 . S
C665 H657 0.950 . S
C665 C663 1.327 1_554 S
C666 C654 1.349 . S
C666 H660 0.950 . S
C666 C667 1.327 . S
C667 H661 0.950 . S
C667 C666 1.327 . S
C667 C671 1.429 . S
C668 C651 1.574 . S
C668 H662 0.949 . S
C668 C672 1.368 . S
C669 C650 1.429 . S
C669 C663 1.429 . S
C669 C670 1.523 . S
C670 C651 1.368 . S
C670 C664 1.368 . S
C670 C669 1.523 . S
C671 C655 1.429 . S
C671 C667 1.429 . S
C671 C672 1.523 . S
C672 C656 1.368 . S
C672 C668 1.368 . S
C672 C671 1.523 . S
H673 C648 0.950 . S
H674 C650 0.950 . S
H675 C651 0.949 . S
H676 C653 0.950 . S
H677 C655 0.950 . S
C678 C679 1.349 . S
C678 C680 1.327 . S
C678 H703 0.950 . S
C679 C678 1.349 . S
C679 C695 1.349 . S
C680 C678 1.327 . S
C680 C699 1.429 . S
C680 H704 0.950 . S
C681 C698 1.574 . S
C681 C700 1.368 . S
C681 H705 0.949 . S
H682 C686 0.949 . S
C683 C684 1.349 . S
C683 C685 1.327 1_556 S
C683 H706 0.950 . S
C684 C683 1.349 . S
C684 C696 1.349 1_556 S
C685 C683 1.327 1_554 S
C685 C701 1.429 . S
C685 H707 0.950 . S
C686 H682 0.949 . S
C686 C694 1.574 . S
C686 C702 1.368 . S
H687 C695 0.950 . S
H688 C693 0.950 . S
H689 C694 0.949 . S
H690 C696 0.950 . S
H691 C697 0.950 . S
H692 C698 0.949 . S
C693 H688 0.950 . S
C693 C695 1.327 . S
C693 C699 1.429 . S
C694 C686 1.574 . S
C694 H689 0.949 . S
C694 C700 1.368 . S
C695 C679 1.349 . S
C695 H687 0.950 . S
C695 C693 1.327 . S
C696 C684 1.349 1_554 S
C696 H690 0.950 . S
C696 C697 1.327 . S
C697 H691 0.950 . S
C697 C696 1.327 . S
C697 C701 1.429 . S
C698 C681 1.574 . S
C698 H692 0.949 . S
C698 C702 1.368 . S
C699 C680 1.429 . S
C699 C693 1.429 . S
C699 C700 1.523 . S
C700 C681 1.368 . S
C700 C694 1.368 . S
C700 C699 1.523 . S
C701 C685 1.429 . S
C701 C697 1.429 . S
C701 C702 1.523 . S
C702 C686 1.368 . S
C702 C698 1.368 . S
C702 C701 1.523 . S
H703 C678 0.950 . S
H704 C680 0.950 . S
H705 C681 0.949 . S
H706 C683 0.950 . S
H707 C685 0.950 . S
C708 C709 1.349 . S
C708 C710 1.327 1_554 S
C708 H733 0.950 . S
C709 C708 1.349 . S
C709 C725 1.349 1_554 S
C710 C708 1.327 1_556 S
C710 C729 1.429 . S
C710 H734 0.950 . S
C711 C728 1.574 . S
C711 C730 1.368 . S
C711 H735 0.949 . S
H712 C716 0.949 . S
C713 C714 1.349 . S
C713 C715 1.327 . S
C713 H736 0.950 . S
C714 C713 1.349 . S
C714 C726 1.349 . S
C715 C713 1.327 . S
C715 C731 1.429 . S
C715 H737 0.950 . S
C716 H712 0.949 . S
C716 C724 1.574 . S
C716 C732 1.368 . S
H717 C725 0.950 . S
H718 C723 0.950 . S
H719 C724 0.949 . S
H720 C726 0.950 . S
H721 C727 0.950 . S
H722 C728 0.949 . S
C723 H718 0.950 . S
C723 C725 1.327 . S
C723 C729 1.429 . S
C724 C716 1.574 . S
C724 H719 0.949 . S
C724 C730 1.368 . S
C725 C709 1.349 1_556 S
C725 H717 0.950 . S
C725 C723 1.327 . S
C726 C714 1.349 . S
C726 H720 0.950 . S
C726 C727 1.327 . S
C727 H721 0.950 . S
C727 C726 1.327 . S
C727 C731 1.429 . S
C728 C711 1.574 . S
C728 H722 0.949 . S
C728 C732 1.368 . S
C729 C710 1.429 . S
C729 C723 1.429 . S
C729 C730 1.523 . S
C730 C711 1.368 . S
C730 C724 1.368 . S
C730 C729 1.523 . S
C731 C715 1.429 . S
C731 C727 1.429 . S
C731 C732 1.523 . S
C732 C716 1.368 . S
C732 C728 1.368 . S
C732 C731 1.523 . S
H733 C708 0.950 . S
H734 C710 0.950 . S
H735 C711 0.949 . S
H736 C713 0.950 . S
H737 C715 0.950 . S
C738 C739 1.349 . S
C738 C740 1.327 . S
C738 H763 0.950 . S
C739 C738 1.349 . S
C739 C755 1.349 . S
C740 C738 1.327 . S
C740 C759 1.429 . S
C740 H764 0.950 . S
C741 C758 1.574 . S
C741 C760 1.368 . S
C741 H765 0.949 . S
H742 C746 0.949 . S
C743 C744 1.349 . S
C743 C745 1.327 1_556 S
C743 H766 0.950 . S
C744 C743 1.349 . S
C744 C756 1.349 1_556 S
C745 C743 1.327 1_554 S
C745 C761 1.429 . S
C745 H767 0.950 . S
C746 H742 0.949 . S
C746 C754 1.574 . S
C746 C762 1.368 . S
H747 C755 0.950 . S
H748 C753 0.950 . S
H749 C754 0.949 . S
H750 C756 0.950 . S
H751 C757 0.950 . S
H752 C758 0.949 . S
C753 H748 0.950 . S
C753 C755 1.327 . S
C753 C759 1.429 . S
C754 C746 1.574 . S
C754 H749 0.949 . S
C754 C760 1.368 . S
C755 C739 1.349 . S
C755 H747 0.950 . S
C755 C753 1.327 . S
C756 C744 1.349 1_554 S
C756 H750 0.950 . S
C756 C757 1.327 . S
C757 H751 0.950 . S
C757 C756 1.327 . S
C757 C761 1.429 . S
C758 C741 1.574 . S
C758 H752 0.949 . S
C758 C762 1.368 . S
C759 C740 1.429 . S
C759 C753 1.429 . S
C759 C760 1.523 . S
C760 C741 1.368 . S
C760 C754 1.368 . S
C760 C759 1.523 . S
C761 C745 1.429 . S
C761 C757 1.429 . S
C761 C762 1.523 . S
C762 C746 1.368 . S
C762 C758 1.368 . S
C762 C761 1.523 . S
H763 C738 0.950 . S
H764 C740 0.950 . S
H765 C741 0.949 . S
H766 C743 0.950 . S
H767 C745 0.950 . S
C768 C769 1.349 . S
C768 C770 1.327 . S
C768 H793 0.950 . S
C769 C768 1.349 . S
C769 C785 1.349 . S
C770 C768 1.327 . S
C770 C789 1.429 . S
C770 H794 0.950 . S
C771 C788 1.574 . S
C771 C790 1.368 . S
C771 H795 0.949 . S
H772 C776 0.949 . S
C773 C774 1.349 . S
C773 C775 1.327 . S
C773 H796 0.950 . S
C774 C773 1.349 . S
C774 C786 1.349 . S
C775 C773 1.327 . S
C775 C791 1.429 . S
C775 H797 0.950 . S
C776 H772 0.949 . S
C776 C784 1.574 . S
C776 C792 1.368 . S
H777 C785 0.950 . S
H778 C783 0.950 . S
H779 C784 0.949 . S
H780 C786 0.950 . S
H781 C787 0.950 . S
H782 C788 0.949 . S
C783 H778 0.950 . S
C783 C785 1.327 . S
C783 C789 1.429 . S
C784 C776 1.574 . S
C784 H779 0.949 . S
C784 C790 1.368 . S
C785 C769 1.349 . S
C785 H777 0.950 . S
C785 C783 1.327 . S
C786 C774 1.349 . S
C786 H780 0.950 . S
C786 C787 1.327 . S
C787 H781 0.950 . S
C787 C786 1.327 . S
C787 C791 1.429 . S
C788 C771 1.574 . S
C788 H782 0.949 . S
C788 C792 1.368 . S
C789 C770 1.429 . S
C789 C783 1.429 . S
C789 C790 1.523 . S
C790 C771 1.368 . S
C790 C784 1.368 . S
C790 C789 1.523 . S
C791 C775 1.429 . S
C791 C787 1.429 . S
C791 C792 1.523 . S
C792 C776 1.368 . S
C792 C788 1.368 . S
C792 C791 1.523 . S
H793 C768 0.950 . S
H794 C770 0.950 . S
H795 C771 0.949 . S
H796 C773 0.950 . S
H797 C775 0.950 . S
C798 C799 1.349 . S
C798 C800 1.327 . S
C798 H823 0.950 . S
C799 C798 1.349 . S
C799 C815 1.349 . S
C800 C798 1.327 . S
C800 C819 1.429 . S
C800 H824 0.950 . S
C801 C818 1.574 . S
C801 C820 1.368 . S
C801 H825 0.949 . S
H802 C806 0.949 . S
C803 C804 1.349 . S
C803 C805 1.327 . S
C803 H826 0.950 . S
C804 C803 1.349 . S
C804 C816 1.349 . S
C805 C803 1.327 . S
C805 C821 1.429 . S
C805 H827 0.950 . S
C806 H802 0.949 . S
C806 C814 1.574 . S
C806 C822 1.368 . S
H807 C815 0.950 . S
H808 C813 0.950 . S
H809 C814 0.949 . S
H810 C816 0.950 . S
H811 C817 0.950 . S
H812 C818 0.949 . S
C813 H808 0.950 . S
C813 C815 1.327 . S
C813 C819 1.429 . S
C814 C806 1.574 . S
C814 H809 0.949 . S
C814 C820 1.368 . S
C815 C799 1.349 . S
C815 H807 0.950 . S
C815 C813 1.327 . S
C816 C804 1.349 . S
C816 H810 0.950 . S
C816 C817 1.327 . S
C817 H811 0.950 . S
C817 C816 1.327 . S
C817 C821 1.429 . S
C818 C801 1.574 . S
C818 H812 0.949 . S
C818 C822 1.368 . S
C819 C800 1.429 . S
C819 C813 1.429 . S
C819 C820 1.523 . S
C820 C801 1.368 . S
C820 C814 1.368 . S
C820 C819 1.523 . S
C821 C805 1.429 . S
C821 C817 1.429 . S
C821 C822 1.523 . S
C822 C806 1.368 . S
C822 C818 1.368 . S
C822 C821 1.523 . S
H823 C798 0.950 . S
H824 C800 0.950 . S
H825 C801 0.949 . S
H826 C803 0.950 . S
H827 C805 0.950 . S
C828 C829 1.349 . S
C828 C830 1.327 . S
C828 H853 0.950 . S
C829 C828 1.349 . S
C829 C845 1.349 . S
C830 C828 1.327 . S
C830 C849 1.429 . S
C830 H854 0.950 . S
C831 C848 1.574 . S
C831 C850 1.368 . S
C831 H855 0.949 . S
H832 C836 0.949 . S
C833 C834 1.349 . S
C833 C835 1.327 . S
C833 H856 0.950 . S
C834 C833 1.349 . S
C834 C846 1.349 . S
C835 C833 1.327 . S
C835 C851 1.429 . S
C835 H857 0.950 . S
C836 H832 0.949 . S
C836 C844 1.574 . S
C836 C852 1.368 . S
H837 C845 0.950 . S
H838 C843 0.950 . S
H839 C844 0.949 . S
H840 C846 0.950 . S
H841 C847 0.950 . S
H842 C848 0.949 . S
C843 H838 0.950 . S
C843 C845 1.327 . S
C843 C849 1.429 . S
C844 C836 1.574 . S
C844 H839 0.949 . S
C844 C850 1.368 . S
C845 C829 1.349 . S
C845 H837 0.950 . S
C845 C843 1.327 . S
C846 C834 1.349 . S
C846 H840 0.950 . S
C846 C847 1.327 . S
C847 H841 0.950 . S
C847 C846 1.327 . S
C847 C851 1.429 . S
C848 C831 1.574 . S
C848 H842 0.949 . S
C848 C852 1.368 . S
C849 C830 1.429 . S
C849 C843 1.429 . S
C849 C850 1.523 . S
C850 C831 1.368 . S
C850 C844 1.368 . S
C850 C849 1.523 . S
C851 C835 1.429 . S
C851 C847 1.429 . S
C851 C852 1.523 . S
C852 C836 1.368 . S
C852 C848 1.368 . S
C852 C851 1.523 . S
H853 C828 0.950 . S
H854 C830 0.950 . S
H855 C831 0.949 . S
H856 C833 0.950 . S
H857 C835 0.950 . S
C858 C859 1.349 . S
C858 C860 1.327 . S
C858 H883 0.950 . S
C859 C858 1.349 . S
C859 C875 1.349 . S
C860 C858 1.327 . S
C860 C879 1.429 . S
C860 H884 0.950 . S
C861 C878 1.574 . S
C861 C880 1.368 . S
C861 H885 0.949 . S
H862 C866 0.949 . S
C863 C864 1.349 . S
C863 C865 1.327 . S
C863 H886 0.950 . S
C864 C863 1.349 . S
C864 C876 1.349 . S
C865 C863 1.327 . S
C865 C881 1.429 . S
C865 H887 0.950 . S
C866 H862 0.949 . S
C866 C874 1.574 . S
C866 C882 1.368 . S
H867 C875 0.950 . S
H868 C873 0.950 . S
H869 C874 0.949 . S
H870 C876 0.950 . S
H871 C877 0.950 . S
H872 C878 0.949 . S
C873 H868 0.950 . S
C873 C875 1.327 . S
C873 C879 1.429 . S
C874 C866 1.574 . S
C874 H869 0.949 . S
C874 C880 1.368 . S
C875 C859 1.349 . S
C875 H867 0.950 . S
C875 C873 1.327 . S
C876 C864 1.349 . S
C876 H870 0.950 . S
C876 C877 1.327 . S
C877 H871 0.950 . S
C877 C876 1.327 . S
C877 C881 1.429 . S
C878 C861 1.574 . S
C878 H872 0.949 . S
C878 C882 1.368 . S
C879 C860 1.429 . S
C879 C873 1.429 . S
C879 C880 1.523 . S
C880 C861 1.368 . S
C880 C874 1.368 . S
C880 C879 1.523 . S
C881 C865 1.429 . S
C881 C877 1.429 . S
C881 C882 1.523 . S
C882 C866 1.368 . S
C882 C878 1.368 . S
C882 C881 1.523 . S
H883 C858 0.950 . S
H884 C860 0.950 . S
H885 C861 0.949 . S
H886 C863 0.950 . S
H887 C865 0.950 . S
C888 C889 1.349 . S
C888 C890 1.327 . S
C888 H913 0.950 . S
C889 C888 1.349 . S
C889 C905 1.349 . S
C890 C888 1.327 . S
C890 C909 1.429 . S
C890 H914 0.950 . S
C891 C908 1.574 . S
C891 C910 1.368 . S
C891 H915 0.949 . S
H892 C896 0.949 . S
C893 C894 1.349 . S
C893 C895 1.327 . S
C893 H916 0.950 . S
C894 C893 1.349 . S
C894 C906 1.349 . S
C895 C893 1.327 . S
C895 C911 1.429 . S
C895 H917 0.950 . S
C896 H892 0.949 . S
C896 C904 1.574 . S
C896 C912 1.368 . S
H897 C905 0.950 . S
H898 C903 0.950 . S
H899 C904 0.949 . S
H900 C906 0.950 . S
H901 C907 0.950 . S
H902 C908 0.949 . S
C903 H898 0.950 . S
C903 C905 1.327 . S
C903 C909 1.429 . S
C904 C896 1.574 . S
C904 H899 0.949 . S
C904 C910 1.368 . S
C905 C889 1.349 . S
C905 H897 0.950 . S
C905 C903 1.327 . S
C906 C894 1.349 . S
C906 H900 0.950 . S
C906 C907 1.327 . S
C907 H901 0.950 . S
C907 C906 1.327 . S
C907 C911 1.429 . S
C908 C891 1.574 . S
C908 H902 0.949 . S
C908 C912 1.368 . S
C909 C890 1.429 . S
C909 C903 1.429 . S
C909 C910 1.523 . S
C910 C891 1.368 . S
C910 C904 1.368 . S
C910 C909 1.523 . S
C911 C895 1.429 . S
C911 C907 1.429 . S
C911 C912 1.523 . S
C912 C896 1.368 . S
C912 C908 1.368 . S
C912 C911 1.523 . S
H913 C888 0.950 . S
H914 C890 0.950 . S
H915 C891 0.949 . S
H916 C893 0.950 . S
H917 C895 0.950 . S
C918 C919 1.349 . S
C918 C920 1.327 . S
C918 H943 0.950 . S
C919 C918 1.349 . S
C919 C935 1.349 . S
C920 C918 1.327 . S
C920 C939 1.429 . S
C920 H944 0.950 . S
C921 C938 1.574 . S
C921 C940 1.368 . S
C921 H945 0.949 . S
H922 C926 0.949 . S
C923 C924 1.349 . S
C923 C925 1.327 . S
C923 H946 0.950 . S
C924 C923 1.349 . S
C924 C936 1.349 . S
C925 C923 1.327 . S
C925 C941 1.429 . S
C925 H947 0.950 . S
C926 H922 0.949 . S
C926 C934 1.574 . S
C926 C942 1.368 . S
H927 C935 0.950 . S
H928 C933 0.950 . S
H929 C934 0.949 . S
H930 C936 0.950 . S
H931 C937 0.950 . S
H932 C938 0.949 . S
C933 H928 0.950 . S
C933 C935 1.327 . S
C933 C939 1.429 . S
C934 C926 1.574 . S
C934 H929 0.949 . S
C934 C940 1.368 . S
C935 C919 1.349 . S
C935 H927 0.950 . S
C935 C933 1.327 . S
C936 C924 1.349 . S
C936 H930 0.950 . S
C936 C937 1.327 . S
C937 H931 0.950 . S
C937 C936 1.327 . S
C937 C941 1.429 . S
C938 C921 1.574 . S
C938 H932 0.949 . S
C938 C942 1.368 . S
C939 C920 1.429 . S
C939 C933 1.429 . S
C939 C940 1.523 . S
C940 C921 1.368 . S
C940 C934 1.368 . S
C940 C939 1.523 . S
C941 C925 1.429 . S
C941 C937 1.429 . S
C941 C942 1.523 . S
C942 C926 1.368 . S
C942 C938 1.368 . S
C942 C941 1.523 . S
H943 C918 0.950 . S
H944 C920 0.950 . S
H945 C921 0.949 . S
H946 C923 0.950 . S
H947 C925 0.950 . S
C948 C949 1.349 . S
C948 C950 1.327 . S
C948 H973 0.950 . S
C949 C948 1.349 . S
C949 C965 1.349 . S
C950 C948 1.327 . S
C950 C969 1.429 . S
C950 H974 0.950 . S
C951 C968 1.574 . S
C951 C970 1.368 . S
C951 H975 0.949 . S
H952 C956 0.949 . S
C953 C954 1.349 . S
C953 C955 1.327 . S
C953 H976 0.950 . S
C954 C953 1.349 . S
C954 C966 1.349 . S
C955 C953 1.327 . S
C955 C971 1.429 . S
C955 H977 0.950 . S
C956 H952 0.949 . S
C956 C964 1.574 . S
C956 C972 1.368 . S
H957 C965 0.950 . S
H958 C963 0.950 . S
H959 C964 0.949 . S
H960 C966 0.950 . S
H961 C967 0.950 . S
H962 C968 0.949 . S
C963 H958 0.950 . S
C963 C965 1.327 . S
C963 C969 1.429 . S
C964 C956 1.574 . S
C964 H959 0.949 . S
C964 C970 1.368 . S
C965 C949 1.349 . S
C965 H957 0.950 . S
C965 C963 1.327 . S
C966 C954 1.349 . S
C966 H960 0.950 . S
C966 C967 1.327 . S
C967 H961 0.950 . S
C967 C966 1.327 . S
C967 C971 1.429 . S
C968 C951 1.574 . S
C968 H962 0.949 . S
C968 C972 1.368 . S
C969 C950 1.429 . S
C969 C963 1.429 . S
C969 C970 1.523 . S
C970 C951 1.368 . S
C970 C964 1.368 . S
C970 C969 1.523 . S
C971 C955 1.429 . S
C971 C967 1.429 . S
C971 C972 1.523 . S
C972 C956 1.368 . S
C972 C968 1.368 . S
C972 C971 1.523 . S
H973 C948 0.950 . S
H974 C950 0.950 . S
H975 C951 0.949 . S
H976 C953 0.950 . S
H977 C955 0.950 . S
C978 C979 1.349 . S
C978 C980 1.327 . S
C978 H1003 0.950 . S
C979 C978 1.349 . S
C979 C995 1.349 . S
C980 C978 1.327 . S
C980 C999 1.429 . S
C980 H1004 0.950 . S
C981 C998 1.574 . S
C981 C1000 1.368 . S
C981 H1005 0.949 . S
H982 C986 0.949 . S
C983 C984 1.349 . S
C983 C985 1.327 . S
C983 H1006 0.950 . S
C984 C983 1.349 . S
C984 C996 1.349 . S
C985 C983 1.327 . S
C985 C1001 1.429 . S
C985 H1007 0.950 . S
C986 H982 0.949 . S
C986 C994 1.574 . S
C986 C1002 1.368 . S
H987 C995 0.950 . S
H988 C993 0.950 . S
H989 C994 0.949 . S
H990 C996 0.950 . S
H991 C997 0.950 . S
H992 C998 0.949 . S
C993 H988 0.950 . S
C993 C995 1.327 . S
C993 C999 1.429 . S
C994 C986 1.574 . S
C994 H989 0.949 . S
C994 C1000 1.368 . S
C995 C979 1.349 . S
C995 H987 0.950 . S
C995 C993 1.327 . S
C996 C984 1.349 . S
C996 H990 0.950 . S
C996 C997 1.327 . S
C997 H991 0.950 . S
C997 C996 1.327 . S
C997 C1001 1.429 . S
C998 C981 1.574 . S
C998 H992 0.949 . S
C998 C1002 1.368 . S
C999 C980 1.429 . S
C999 C993 1.429 . S
C999 C1000 1.523 . S
C1000 C981 1.368 . S
C1000 C994 1.368 . S
C1000 C999 1.523 . S
C1001 C985 1.429 . S
C1001 C997 1.429 . S
C1001 C1002 1.523 . S
C1002 C986 1.368 . S
C1002 C998 1.368 . S
C1002 C1001 1.523 . S
H1003 C978 0.950 . S
H1004 C980 0.950 . S
H1005 C981 0.949 . S
H1006 C983 0.950 . S
H1007 C985 0.950 . S
C1008 C1009 1.349 . S
C1008 C1010 1.327 1_554 S
C1008 H1033 0.950 . S
C1009 C1008 1.349 . S
C1009 C1025 1.349 1_554 S
C1010 C1008 1.327 1_556 S
C1010 C1029 1.429 . S
C1010 H1034 0.950 . S
C1011 C1028 1.574 . S
C1011 C1030 1.368 . S
C1011 H1035 0.949 . S
H1012 C1016 0.949 . S
C1013 C1014 1.349 . S
C1013 C1015 1.327 . S
C1013 H1036 0.950 . S
C1014 C1013 1.349 . S
C1014 C1026 1.349 . S
C1015 C1013 1.327 . S
C1015 C1031 1.429 . S
C1015 H1037 0.950 . S
C1016 H1012 0.949 . S
C1016 C1024 1.574 . S
C1016 C1032 1.368 . S
H1017 C1025 0.950 . S
H1018 C1023 0.950 . S
H1019 C1024 0.949 . S
H1020 C1026 0.950 . S
H1021 C1027 0.950 . S
H1022 C1028 0.949 . S
C1023 H1018 0.950 . S
C1023 C1025 1.327 . S
C1023 C1029 1.429 . S
C1024 C1016 1.574 . S
C1024 H1019 0.949 . S
C1024 C1030 1.368 . S
C1025 C1009 1.349 1_556 S
C1025 H1017 0.950 . S
C1025 C1023 1.327 . S
C1026 C1014 1.349 . S
C1026 H1020 0.950 . S
C1026 C1027 1.327 . S
C1027 H1021 0.950 . S
C1027 C1026 1.327 . S
C1027 C1031 1.429 . S
C1028 C1011 1.574 . S
C1028 H1022 0.949 . S
C1028 C1032 1.368 . S
C1029 C1010 1.429 . S
C1029 C1023 1.429 . S
C1029 C1030 1.523 . S
C1030 C1011 1.368 . S
C1030 C1024 1.368 . S
C1030 C1029 1.523 . S
C1031 C1015 1.429 . S
C1031 C1027 1.429 . S
C1031 C1032 1.523 . S
C1032 C1016 1.368 . S
C1032 C1028 1.368 . S
C1032 C1031 1.523 . S
H1033 C1008 0.950 . S
H1034 C1010 0.950 . S
H1035 C1011 0.949 . S
H1036 C1013 0.950 . S
H1037 C1015 0.950 . S
C1038 C1039 1.349 . S
C1038 C1040 1.327 . S
C1038 H1063 0.950 . S
C1039 C1038 1.349 . S
C1039 C1055 1.349 . S
C1040 C1038 1.327 . S
C1040 C1059 1.429 . S
C1040 H1064 0.950 . S
C1041 C1058 1.574 . S
C1041 C1060 1.368 . S
C1041 H1065 0.949 . S
H1042 C1046 0.949 . S
C1043 C1044 1.349 1_554 S
C1043 C1045 1.327 . S
C1043 H1066 0.950 . S
C1044 C1043 1.349 1_556 S
C1044 C1056 1.349 . S
C1045 C1043 1.327 . S
C1045 C1061 1.429 . S
C1045 H1067 0.950 . S
C1046 H1042 0.949 . S
C1046 C1054 1.574 . S
C1046 C1062 1.368 . S
H1047 C1055 0.950 . S
H1048 C1053 0.950 . S
H1049 C1054 0.949 . S
H1050 C1056 0.950 . S
H1051 C1057 0.950 . S
H1052 C1058 0.949 . S
C1053 H1048 0.950 . S
C1053 C1055 1.327 . S
C1053 C1059 1.429 . S
C1054 C1046 1.574 . S
C1054 H1049 0.949 . S
C1054 C1060 1.368 . S
C1055 C1039 1.349 . S
C1055 H1047 0.950 . S
C1055 C1053 1.327 . S
C1056 C1044 1.349 . S
C1056 H1050 0.950 . S
C1056 C1057 1.327 1_556 S
C1057 H1051 0.950 . S
C1057 C1056 1.327 1_554 S
C1057 C1061 1.429 . S
C1058 C1041 1.574 . S
C1058 H1052 0.949 . S
C1058 C1062 1.368 . S
C1059 C1040 1.429 . S
C1059 C1053 1.429 . S
C1059 C1060 1.523 . S
C1060 C1041 1.368 . S
C1060 C1054 1.368 . S
C1060 C1059 1.523 . S
C1061 C1045 1.429 . S
C1061 C1057 1.429 . S
C1061 C1062 1.523 . S
C1062 C1046 1.368 . S
C1062 C1058 1.368 . S
C1062 C1061 1.523 . S
H1063 C1038 0.950 . S
H1064 C1040 0.950 . S
H1065 C1041 0.949 . S
H1066 C1043 0.950 . S
H1067 C1045 0.950 . S
C1068 C1069 1.349 . S
C1068 C1070 1.327 1_554 S
C1068 H1093 0.950 . S
C1069 C1068 1.349 . S
C1069 C1085 1.349 1_554 S
C1070 C1068 1.327 1_556 S
C1070 C1089 1.429 . S
C1070 H1094 0.950 . S
C1071 C1088 1.574 . S
C1071 C1090 1.368 . S
C1071 H1095 0.949 . S
H1072 C1076 0.949 . S
C1073 C1074 1.349 . S
C1073 C1075 1.327 . S
C1073 H1096 0.950 . S
C1074 C1073 1.349 . S
C1074 C1086 1.349 . S
C1075 C1073 1.327 . S
C1075 C1091 1.429 . S
C1075 H1097 0.950 . S
C1076 H1072 0.949 . S
C1076 C1084 1.574 . S
C1076 C1092 1.368 . S
H1077 C1085 0.950 . S
H1078 C1083 0.950 . S
H1079 C1084 0.949 . S
H1080 C1086 0.950 . S
H1081 C1087 0.950 . S
H1082 C1088 0.949 . S
C1083 H1078 0.950 . S
C1083 C1085 1.327 . S
C1083 C1089 1.429 . S
C1084 C1076 1.574 . S
C1084 H1079 0.949 . S
C1084 C1090 1.368 . S
C1085 C1069 1.349 1_556 S
C1085 H1077 0.950 . S
C1085 C1083 1.327 . S
C1086 C1074 1.349 . S
C1086 H1080 0.950 . S
C1086 C1087 1.327 . S
C1087 H1081 0.950 . S
C1087 C1086 1.327 . S
C1087 C1091 1.429 . S
C1088 C1071 1.574 . S
C1088 H1082 0.949 . S
C1088 C1092 1.368 . S
C1089 C1070 1.429 . S
C1089 C1083 1.429 . S
C1089 C1090 1.523 . S
C1090 C1071 1.368 . S
C1090 C1084 1.368 . S
C1090 C1089 1.523 . S
C1091 C1075 1.429 . S
C1091 C1087 1.429 . S
C1091 C1092 1.523 . S
C1092 C1076 1.368 . S
C1092 C1088 1.368 . S
C1092 C1091 1.523 . S
H1093 C1068 0.950 . S
H1094 C1070 0.950 . S
H1095 C1071 0.949 . S
H1096 C1073 0.950 . S
H1097 C1075 0.950 . S
C1098 C1099 1.349 . S
C1098 C1100 1.327 . S
C1098 H1123 0.950 . S
C1099 C1098 1.349 . S
C1099 C1115 1.349 . S
C1100 C1098 1.327 . S
C1100 C1119 1.429 . S
C1100 H1124 0.950 . S
C1101 C1118 1.574 . S
C1101 C1120 1.368 . S
C1101 H1125 0.949 . S
H1102 C1106 0.949 . S
C1103 C1104 1.349 1_554 S
C1103 C1105 1.327 . S
C1103 H1126 0.950 . S
C1104 C1103 1.349 1_556 S
C1104 C1116 1.349 . S
C1105 C1103 1.327 . S
C1105 C1121 1.429 . S
C1105 H1127 0.950 . S
C1106 H1102 0.949 . S
C1106 C1114 1.574 . S
C1106 C1122 1.368 . S
H1107 C1115 0.950 . S
H1108 C1113 0.950 . S
H1109 C1114 0.949 . S
H1110 C1116 0.950 . S
H1111 C1117 0.950 . S
H1112 C1118 0.949 . S
C1113 H1108 0.950 . S
C1113 C1115 1.327 . S
C1113 C1119 1.429 . S
C1114 C1106 1.574 . S
C1114 H1109 0.949 . S
C1114 C1120 1.368 . S
C1115 C1099 1.349 . S
C1115 H1107 0.950 . S
C1115 C1113 1.327 . S
C1116 C1104 1.349 . S
C1116 H1110 0.950 . S
C1116 C1117 1.327 1_556 S
C1117 H1111 0.950 . S
C1117 C1116 1.327 1_554 S
C1117 C1121 1.429 . S
C1118 C1101 1.574 . S
C1118 H1112 0.949 . S
C1118 C1122 1.368 . S
C1119 C1100 1.429 . S
C1119 C1113 1.429 . S
C1119 C1120 1.523 . S
C1120 C1101 1.368 . S
C1120 C1114 1.368 . S
C1120 C1119 1.523 . S
C1121 C1105 1.429 . S
C1121 C1117 1.429 . S
C1121 C1122 1.523 . S
C1122 C1106 1.368 . S
C1122 C1118 1.368 . S
C1122 C1121 1.523 . S
H1123 C1098 0.950 . S
H1124 C1100 0.950 . S
H1125 C1101 0.949 . S
H1126 C1103 0.950 . S
H1127 C1105 0.950 . S
C1128 C1129 1.349 . S
C1128 C1130 1.327 . S
C1128 H1153 0.950 . S
C1129 C1128 1.349 . S
C1129 C1145 1.349 . S
C1130 C1128 1.327 . S
C1130 C1149 1.429 . S
C1130 H1154 0.950 . S
C1131 C1148 1.574 . S
C1131 C1150 1.368 . S
C1131 H1155 0.949 . S
H1132 C1136 0.949 . S
C1133 C1134 1.349 . S
C1133 C1135 1.327 . S
C1133 H1156 0.950 . S
C1134 C1133 1.349 . S
C1134 C1146 1.349 . S
C1135 C1133 1.327 . S
C1135 C1151 1.429 . S
C1135 H1157 0.950 . S
C1136 H1132 0.949 . S
C1136 C1144 1.574 . S
C1136 C1152 1.368 . S
H1137 C1145 0.950 . S
H1138 C1143 0.950 . S
H1139 C1144 0.949 . S
H1140 C1146 0.950 . S
H1141 C1147 0.950 . S
H1142 C1148 0.949 . S
C1143 H1138 0.950 . S
C1143 C1145 1.327 . S
C1143 C1149 1.429 . S
C1144 C1136 1.574 . S
C1144 H1139 0.949 . S
C1144 C1150 1.368 . S
C1145 C1129 1.349 . S
C1145 H1137 0.950 . S
C1145 C1143 1.327 . S
C1146 C1134 1.349 . S
C1146 H1140 0.950 . S
C1146 C1147 1.327 . S
C1147 H1141 0.950 . S
C1147 C1146 1.327 . S
C1147 C1151 1.429 . S
C1148 C1131 1.574 . S
C1148 H1142 0.949 . S
C1148 C1152 1.368 . S
C1149 C1130 1.429 . S
C1149 C1143 1.429 . S
C1149 C1150 1.523 . S
C1150 C1131 1.368 . S
C1150 C1144 1.368 . S
C1150 C1149 1.523 . S
C1151 C1135 1.429 . S
C1151 C1147 1.429 . S
C1151 C1152 1.523 . S
C1152 C1136 1.368 . S
C1152 C1148 1.368 . S
C1152 C1151 1.523 . S
H1153 C1128 0.950 . S
H1154 C1130 0.950 . S
H1155 C1131 0.949 . S
H1156 C1133 0.950 . S
H1157 C1135 0.950 . S
C1158 C1159 1.349 . S
C1158 C1160 1.327 . S
C1158 H1183 0.950 . S
C1159 C1158 1.349 . S
C1159 C1175 1.349 . S
C1160 C1158 1.327 . S
C1160 C1179 1.429 . S
C1160 H1184 0.950 . S
C1161 C1178 1.574 . S
C1161 C1180 1.368 . S
C1161 H1185 0.949 . S
H1162 C1166 0.949 . S
C1163 C1164 1.349 . S
C1163 C1165 1.327 . S
C1163 H1186 0.950 . S
C1164 C1163 1.349 . S
C1164 C1176 1.349 . S
C1165 C1163 1.327 . S
C1165 C1181 1.429 . S
C1165 H1187 0.950 . S
C1166 H1162 0.949 . S
C1166 C1174 1.574 . S
C1166 C1182 1.368 . S
H1167 C1175 0.950 . S
H1168 C1173 0.950 . S
H1169 C1174 0.949 . S
H1170 C1176 0.950 . S
H1171 C1177 0.950 . S
H1172 C1178 0.949 . S
C1173 H1168 0.950 . S
C1173 C1175 1.327 . S
C1173 C1179 1.429 . S
C1174 C1166 1.574 . S
C1174 H1169 0.949 . S
C1174 C1180 1.368 . S
C1175 C1159 1.349 . S
C1175 H1167 0.950 . S
C1175 C1173 1.327 . S
C1176 C1164 1.349 . S
C1176 H1170 0.950 . S
C1176 C1177 1.327 . S
C1177 H1171 0.950 . S
C1177 C1176 1.327 . S
C1177 C1181 1.429 . S
C1178 C1161 1.574 . S
C1178 H1172 0.949 . S
C1178 C1182 1.368 . S
C1179 C1160 1.429 . S
C1179 C1173 1.429 . S
C1179 C1180 1.523 . S
C1180 C1161 1.368 . S
C1180 C1174 1.368 . S
C1180 C1179 1.523 . S
C1181 C1165 1.429 . S
C1181 C1177 1.429 . S
C1181 C1182 1.523 . S
C1182 C1166 1.368 . S
C1182 C1178 1.368 . S
C1182 C1181 1.523 . S
H1183 C1158 0.950 . S
H1184 C1160 0.950 . S
H1185 C1161 0.949 . S
H1186 C1163 0.950 . S
H1187 C1165 0.950 . S
C1188 C1189 1.349 . S
C1188 C1190 1.327 . S
C1188 H1213 0.950 . S
C1189 C1188 1.349 . S
C1189 C1205 1.349 . S
C1190 C1188 1.327 . S
C1190 C1209 1.429 . S
C1190 H1214 0.950 . S
C1191 C1208 1.574 . S
C1191 C1210 1.368 . S
C1191 H1215 0.949 . S
H1192 C1196 0.949 . S
C1193 C1194 1.349 . S
C1193 C1195 1.327 . S
C1193 H1216 0.950 . S
C1194 C1193 1.349 . S
C1194 C1206 1.349 . S
C1195 C1193 1.327 . S
C1195 C1211 1.429 . S
C1195 H1217 0.950 . S
C1196 H1192 0.949 . S
C1196 C1204 1.574 . S
C1196 C1212 1.368 . S
H1197 C1205 0.950 . S
H1198 C1203 0.950 . S
H1199 C1204 0.949 . S
H1200 C1206 0.950 . S
H1201 C1207 0.950 . S
H1202 C1208 0.949 . S
C1203 H1198 0.950 . S
C1203 C1205 1.327 . S
C1203 C1209 1.429 . S
C1204 C1196 1.574 . S
C1204 H1199 0.949 . S
C1204 C1210 1.368 . S
C1205 C1189 1.349 . S
C1205 H1197 0.950 . S
C1205 C1203 1.327 . S
C1206 C1194 1.349 . S
C1206 H1200 0.950 . S
C1206 C1207 1.327 . S
C1207 H1201 0.950 . S
C1207 C1206 1.327 . S
C1207 C1211 1.429 . S
C1208 C1191 1.574 . S
C1208 H1202 0.949 . S
C1208 C1212 1.368 . S
C1209 C1190 1.429 . S
C1209 C1203 1.429 . S
C1209 C1210 1.523 . S
C1210 C1191 1.368 . S
C1210 C1204 1.368 . S
C1210 C1209 1.523 . S
C1211 C1195 1.429 . S
C1211 C1207 1.429 . S
C1211 C1212 1.523 . S
C1212 C1196 1.368 . S
C1212 C1208 1.368 . S
C1212 C1211 1.523 . S
H1213 C1188 0.950 . S
H1214 C1190 0.950 . S
H1215 C1191 0.949 . S
H1216 C1193 0.950 . S
H1217 C1195 0.950 . S
C1218 C1219 1.349 . S
C1218 C1220 1.327 . S
C1218 H1243 0.950 . S
C1219 C1218 1.349 . S
C1219 C1235 1.349 . S
C1220 C1218 1.327 . S
C1220 C1239 1.429 . S
C1220 H1244 0.950 . S
C1221 C1238 1.574 . S
C1221 C1240 1.368 . S
C1221 H1245 0.949 . S
H1222 C1226 0.949 . S
C1223 C1224 1.349 . S
C1223 C1225 1.327 . S
C1223 H1246 0.950 . S
C1224 C1223 1.349 . S
C1224 C1236 1.349 . S
C1225 C1223 1.327 . S
C1225 C1241 1.429 . S
C1225 H1247 0.950 . S
C1226 H1222 0.949 . S
C1226 C1234 1.574 . S
C1226 C1242 1.368 . S
H1227 C1235 0.950 . S
H1228 C1233 0.950 . S
H1229 C1234 0.949 . S
H1230 C1236 0.950 . S
H1231 C1237 0.950 . S
H1232 C1238 0.949 . S
C1233 H1228 0.950 . S
C1233 C1235 1.327 . S
C1233 C1239 1.429 . S
C1234 C1226 1.574 . S
C1234 H1229 0.949 . S
C1234 C1240 1.368 . S
C1235 C1219 1.349 . S
C1235 H1227 0.950 . S
C1235 C1233 1.327 . S
C1236 C1224 1.349 . S
C1236 H1230 0.950 . S
C1236 C1237 1.327 . S
C1237 H1231 0.950 . S
C1237 C1236 1.327 . S
C1237 C1241 1.429 . S
C1238 C1221 1.574 . S
C1238 H1232 0.949 . S
C1238 C1242 1.368 . S
C1239 C1220 1.429 . S
C1239 C1233 1.429 . S
C1239 C1240 1.523 . S
C1240 C1221 1.368 . S
C1240 C1234 1.368 . S
C1240 C1239 1.523 . S
C1241 C1225 1.429 . S
C1241 C1237 1.429 . S
C1241 C1242 1.523 . S
C1242 C1226 1.368 . S
C1242 C1238 1.368 . S
C1242 C1241 1.523 . S
H1243 C1218 0.950 . S
H1244 C1220 0.950 . S
H1245 C1221 0.949 . S
H1246 C1223 0.950 . S
H1247 C1225 0.950 . S
C1248 C1249 1.349 . S
C1248 C1250 1.327 1_545 S
C1248 H1273 0.950 . S
C1249 C1248 1.349 . S
C1249 C1265 1.349 . S
C1250 C1248 1.327 1_565 S
C1250 C1269 1.429 . S
C1250 H1274 0.950 . S
C1251 C1268 1.574 . S
C1251 C1270 1.368 . S
C1251 H1275 0.949 . S
H1252 C1256 0.949 . S
C1253 C1254 1.349 . S
C1253 C1255 1.327 . S
C1253 H1276 0.950 . S
C1254 C1253 1.349 . S
C1254 C1266 1.349 . S
C1255 C1253 1.327 . S
C1255 C1271 1.429 . S
C1255 H1277 0.950 . S
C1256 H1252 0.949 . S
C1256 C1264 1.574 . S
C1256 C1272 1.368 . S
H1257 C1265 0.950 . S
H1258 C1263 0.940 1_565 S
H1259 C1264 0.949 . S
H1260 C1266 0.950 . S
H1261 C1267 0.950 . S
H1262 C1268 0.949 . S
C1263 H1258 0.940 1_545 S
C1263 C1265 1.327 . S
C1263 C1269 1.429 1_545 S
C1264 C1256 1.574 . S
C1264 H1259 0.949 . S
C1264 C1270 1.368 . S
C1265 C1249 1.349 . S
C1265 H1257 0.950 . S
C1265 C1263 1.327 . S
C1266 C1254 1.349 . S
C1266 H1260 0.950 . S
C1266 C1267 1.327 . S
C1267 H1261 0.950 . S
C1267 C1266 1.327 . S
C1267 C1271 1.429 . S
C1268 C1251 1.574 . S
C1268 H1262 0.949 . S
C1268 C1272 1.368 . S
C1269 C1250 1.429 . S
C1269 C1263 1.429 1_565 S
C1269 C1270 1.523 . S
C1270 C1251 1.368 . S
C1270 C1264 1.368 . S
C1270 C1269 1.523 . S
C1271 C1255 1.429 . S
C1271 C1267 1.429 . S
C1271 C1272 1.523 . S
C1272 C1256 1.368 . S
C1272 C1268 1.368 . S
C1272 C1271 1.523 . S
H1273 C1248 0.950 . S
H1274 C1250 0.950 . S
H1275 C1251 0.949 . S
H1276 C1253 0.950 . S
H1277 C1255 0.950 . S
C1278 C1279 1.349 . S
C1278 C1280 1.327 . S
C1278 H1303 0.950 . S
C1279 C1278 1.349 . S
C1279 C1295 1.349 . S
C1280 C1278 1.327 . S
C1280 C1299 1.429 . S
C1280 H1304 0.950 . S
C1281 C1298 1.574 . S
C1281 C1300 1.368 . S
C1281 H1305 0.949 . S
H1282 C1286 0.949 . S
C1283 C1284 1.349 . S
C1283 C1285 1.327 . S
C1283 H1306 0.950 . S
C1284 C1283 1.349 . S
C1284 C1296 1.349 . S
C1285 C1283 1.327 . S
C1285 C1301 1.429 1_455 S
C1285 H1307 0.950 . S
C1286 H1282 0.949 . S
C1286 C1294 1.574 . S
C1286 C1302 1.368 . S
H1287 C1295 0.950 . S
H1288 C1293 0.950 . S
H1289 C1294 0.949 . S
H1290 C1296 0.950 . S
H1291 C1297 0.950 . S
H1292 C1298 0.949 . S
C1293 H1288 0.950 . S
C1293 C1295 1.327 . S
C1293 C1299 1.429 . S
C1294 C1286 1.574 . S
C1294 H1289 0.949 . S
C1294 C1300 1.368 . S
C1295 C1279 1.349 . S
C1295 H1287 0.950 . S
C1295 C1293 1.327 . S
C1296 C1284 1.349 . S
C1296 H1290 0.950 . S
C1296 C1297 1.327 1_455 S
C1297 H1291 0.950 . S
C1297 C1296 1.327 1_655 S
C1297 C1301 1.429 . S
C1298 C1281 1.574 . S
C1298 H1292 0.949 . S
C1298 C1302 1.368 . S
C1299 C1280 1.429 . S
C1299 C1293 1.429 . S
C1299 C1300 1.523 . S
C1300 C1281 1.368 . S
C1300 C1294 1.368 . S
C1300 C1299 1.523 . S
C1301 C1285 1.429 1_655 S
C1301 C1297 1.429 . S
C1301 C1302 1.523 . S
C1302 C1286 1.368 . S
C1302 C1298 1.368 . S
C1302 C1301 1.523 . S
H1303 C1278 0.950 . S
H1304 C1280 0.950 . S
H1305 C1281 0.949 . S
H1306 C1283 0.950 . S
H1307 C1285 0.950 . S
C1308 C1309 1.349 . S
C1308 C1310 1.327 . S
C1308 H1333 0.950 . S
C1309 C1308 1.349 . S
C1309 C1325 1.349 . S
C1310 C1308 1.327 . S
C1310 C1329 1.429 1_565 S
C1310 H1334 0.950 . S
C1311 C1328 1.574 . S
C1311 C1330 1.368 . S
C1311 H1335 0.949 . S
H1312 C1316 0.949 . S
C1313 C1314 1.349 . S
C1313 C1315 1.327 . S
C1313 H1336 0.950 . S
C1314 C1313 1.349 . S
C1314 C1326 1.349 . S
C1315 C1313 1.327 . S
C1315 C1331 1.429 . S
C1315 H1337 0.950 . S
C1316 H1312 0.949 . S
C1316 C1324 1.574 . S
C1316 C1332 1.368 . S
H1317 C1325 0.950 . S
H1318 C1323 0.950 . S
H1319 C1324 0.949 . S
H1320 C1326 0.950 . S
H1321 C1327 0.950 . S
H1322 C1328 0.949 . S
C1323 H1318 0.950 . S
C1323 C1325 1.327 1_545 S
C1323 C1329 1.429 . S
C1324 C1316 1.574 . S
C1324 H1319 0.949 . S
C1324 C1330 1.368 . S
C1325 C1309 1.349 . S
C1325 H1317 0.950 . S
C1325 C1323 1.327 1_565 S
C1326 C1314 1.349 . S
C1326 H1320 0.950 . S
C1326 C1327 1.327 . S
C1327 H1321 0.950 . S
C1327 C1326 1.327 . S
C1327 C1331 1.429 . S
C1328 C1311 1.574 . S
C1328 H1322 0.949 . S
C1328 C1332 1.368 . S
C1329 C1310 1.429 1_545 S
C1329 C1323 1.429 . S
C1329 C1330 1.523 . S
C1330 C1311 1.368 . S
C1330 C1324 1.368 . S
C1330 C1329 1.523 . S
C1331 C1315 1.429 . S
C1331 C1327 1.429 . S
C1331 C1332 1.523 . S
C1332 C1316 1.368 . S
C1332 C1328 1.368 . S
C1332 C1331 1.523 . S
H1333 C1308 0.950 . S
H1334 C1310 0.950 . S
H1335 C1311 0.949 . S
H1336 C1313 0.950 . S
H1337 C1315 0.950 . S
C1338 C1339 1.349 . S
C1338 C1340 1.327 . S
C1338 H1363 0.950 . S
C1339 C1338 1.349 . S
C1339 C1355 1.349 . S
C1340 C1338 1.327 . S
C1340 C1359 1.429 . S
C1340 H1364 0.950 . S
C1341 C1358 1.574 . S
C1341 C1360 1.368 . S
C1341 H1365 0.949 . S
H1342 C1346 0.949 . S
C1343 C1344 1.349 . S
C1343 C1345 1.327 1_655 S
C1343 H1366 0.950 . S
C1344 C1343 1.349 . S
C1344 C1356 1.349 . S
C1345 C1343 1.327 1_455 S
C1345 C1361 1.429 . S
C1345 H1367 0.950 . S
C1346 H1342 0.949 . S
C1346 C1354 1.574 . S
C1346 C1362 1.368 . S
H1347 C1355 0.950 . S
H1348 C1353 0.950 . S
H1349 C1354 0.949 . S
H1350 C1356 0.950 . S
H1351 C1357 0.957 . S
H1352 C1358 0.949 . S
C1353 H1348 0.950 . S
C1353 C1355 1.327 . S
C1353 C1359 1.429 . S
C1354 C1346 1.574 . S
C1354 H1349 0.949 . S
C1354 C1360 1.368 . S
C1355 C1339 1.349 . S
C1355 H1347 0.950 . S
C1355 C1353 1.327 . S
C1356 C1344 1.349 . S
C1356 H1350 0.950 . S
C1356 C1357 1.327 . S
C1357 H1351 0.957 . S
C1357 C1356 1.327 . S
C1357 C1361 1.429 1_655 S
C1358 C1341 1.574 . S
C1358 H1352 0.949 . S
C1358 C1362 1.368 . S
C1359 C1340 1.429 . S
C1359 C1353 1.429 . S
C1359 C1360 1.523 . S
C1360 C1341 1.368 . S
C1360 C1354 1.368 . S
C1360 C1359 1.523 . S
C1361 C1345 1.429 . S
C1361 C1357 1.429 1_455 S
C1361 C1362 1.523 . S
C1362 C1346 1.368 . S
C1362 C1358 1.368 . S
C1362 C1361 1.523 . S
H1363 C1338 0.950 . S
H1364 C1340 0.950 . S
H1365 C1341 0.949 . S
H1366 C1343 0.950 . S
H1367 C1345 0.950 . S
C1368 C1369 1.349 . S
C1368 C1370 1.327 . S
C1368 H1393 0.950 . S
C1369 C1368 1.349 . S
C1369 C1385 1.349 . S
C1370 C1368 1.327 . S
C1370 C1389 1.429 . S
C1370 H1394 0.950 . S
C1371 C1388 1.574 . S
C1371 C1390 1.368 1_554 S
C1371 H1395 0.949 . S
H1372 C1376 0.949 . S
C1373 C1374 1.349 . S
C1373 C1375 1.327 . S
C1373 H1396 0.950 . S
C1374 C1373 1.349 . S
C1374 C1386 1.349 . S
C1375 C1373 1.327 . S
C1375 C1391 1.429 . S
C1375 H1397 0.950 . S
C1376 H1372 0.949 . S
C1376 C1384 1.574 . S
C1376 C1392 1.368 1_556 S
H1377 C1385 0.950 . S
H1378 C1383 0.950 . S
H1379 C1384 0.949 . S
H1380 C1386 0.950 . S
H1381 C1387 0.950 1_556 S
H1382 C1388 0.949 . S
C1383 H1378 0.950 . S
C1383 C1385 1.327 . S
C1383 C1389 1.429 . S
C1384 C1376 1.574 . S
C1384 H1379 0.949 . S
C1384 C1390 1.368 . S
C1385 C1369 1.349 . S
C1385 H1377 0.950 . S
C1385 C1383 1.327 . S
C1386 C1374 1.349 . S
C1386 H1380 0.950 . S
C1386 C1387 1.327 . S
C1387 H1381 0.950 1_554 S
C1387 C1386 1.327 . S
C1387 C1391 1.429 . S
C1388 C1371 1.574 . S
C1388 H1382 0.949 . S
C1388 C1392 1.368 . S
C1389 C1370 1.429 . S
C1389 C1383 1.429 . S
C1389 C1390 1.523 . S
C1390 C1371 1.368 1_556 S
C1390 C1384 1.368 . S
C1390 C1389 1.523 . S
C1391 C1375 1.429 . S
C1391 C1387 1.429 . S
C1391 C1392 1.523 . S
C1392 C1376 1.368 1_554 S
C1392 C1388 1.368 . S
C1392 C1391 1.523 . S
H1393 C1368 0.950 . S
H1394 C1370 0.950 . S
H1395 C1371 0.949 . S
H1396 C1373 0.950 . S
H1397 C1375 0.950 . S
C1398 C1399 1.349 . S
C1398 C1400 1.327 . S
C1398 H1423 0.950 . S
C1399 C1398 1.349 . S
C1399 C1415 1.349 . S
C1400 C1398 1.327 . S
C1400 C1419 1.429 . S
C1400 H1424 0.950 1_554 S
C1401 C1418 1.574 . S
C1401 C1420 1.368 . S
C1401 H1425 0.949 . S
H1402 C1406 0.949 . S
C1403 C1404 1.349 . S
C1403 C1405 1.327 1_556 S
C1403 H1426 0.950 1_556 S
C1404 C1403 1.349 . S
C1404 C1416 1.349 . S
C1405 C1403 1.327 1_554 S
C1405 C1421 1.429 1_554 S
C1405 H1427 0.950 . S
C1406 H1402 0.949 . S
C1406 C1414 1.574 . S
C1406 C1422 1.368 . S
H1407 C1415 0.950 . S
H1408 C1413 0.950 . S
H1409 C1414 0.949 . S
H1410 C1416 0.950 . S
H1411 C1417 0.950 . S
H1412 C1418 0.949 . S
C1413 H1408 0.950 . S
C1413 C1415 1.327 . S
C1413 C1419 1.429 . S
C1414 C1406 1.574 . S
C1414 H1409 0.949 . S
C1414 C1420 1.368 1_556 S
C1415 C1399 1.349 . S
C1415 H1407 0.950 . S
C1415 C1413 1.327 . S
C1416 C1404 1.349 . S
C1416 H1410 0.950 . S
C1416 C1417 1.327 . S
C1417 H1411 0.950 . S
C1417 C1416 1.327 . S
C1417 C1421 1.429 . S
C1418 C1401 1.574 . S
C1418 H1412 0.949 . S
C1418 C1422 1.368 1_554 S
C1419 C1400 1.429 . S
C1419 C1413 1.429 . S
C1419 C1420 1.523 . S
C1420 C1401 1.368 . S
C1420 C1414 1.368 1_554 S
C1420 C1419 1.523 . S
C1421 C1405 1.429 1_556 S
C1421 C1417 1.429 . S
C1421 C1422 1.523 . S
C1422 C1406 1.368 . S
C1422 C1418 1.368 1_556 S
C1422 C1421 1.523 . S
H1423 C1398 0.950 . S
H1424 C1400 0.950 1_556 S
H1425 C1401 0.949 . S
H1426 C1403 0.950 1_554 S
H1427 C1405 0.950 . S
C1428 C1429 1.349 . S
C1428 C1430 1.327 1_554 S
C1428 H1453 0.950 1_554 S
C1429 C1428 1.349 . S
C1429 C1445 1.349 . S
C1430 C1428 1.327 1_556 S
C1430 C1449 1.429 1_556 S
C1430 H1454 0.950 . S
C1431 C1448 1.574 . S
C1431 C1450 1.368 . S
C1431 H1455 0.949 . S
H1432 C1436 0.949 . S
C1433 C1434 1.349 . S
C1433 C1435 1.327 . S
C1433 H1456 0.950 . S
C1434 C1433 1.349 . S
C1434 C1446 1.349 . S
C1435 C1433 1.327 . S
C1435 C1451 1.429 . S
C1435 H1457 0.950 1_556 S
C1436 H1432 0.949 . S
C1436 C1444 1.574 . S
C1436 C1452 1.368 . S
H1437 C1445 0.950 . S
H1438 C1443 0.950 . S
H1439 C1444 0.949 . S
H1440 C1446 0.950 . S
H1441 C1447 0.950 . S
H1442 C1448 0.949 . S
C1443 H1438 0.950 . S
C1443 C1445 1.327 . S
C1443 C1449 1.429 . S
C1444 C1436 1.574 . S
C1444 H1439 0.949 . S
C1444 C1450 1.368 1_556 S
C1445 C1429 1.349 . S
C1445 H1437 0.950 . S
C1445 C1443 1.327 . S
C1446 C1434 1.349 . S
C1446 H1440 0.950 . S
C1446 C1447 1.327 . S
C1447 H1441 0.950 . S
C1447 C1446 1.327 . S
C1447 C1451 1.429 . S
C1448 C1431 1.574 . S
C1448 H1442 0.949 . S
C1448 C1452 1.368 1_554 S
C1449 C1430 1.429 1_554 S
C1449 C1443 1.429 . S
C1449 C1450 1.523 . S
C1450 C1431 1.368 . S
C1450 C1444 1.368 1_554 S
C1450 C1449 1.523 . S
C1451 C1435 1.429 . S
C1451 C1447 1.429 . S
C1451 C1452 1.523 . S
C1452 C1436 1.368 . S
C1452 C1448 1.368 1_556 S
C1452 C1451 1.523 . S
H1453 C1428 0.950 1_556 S
H1454 C1430 0.950 . S
H1455 C1431 0.949 . S
H1456 C1433 0.950 . S
H1457 C1435 0.950 1_554 S
C1458 C1459 1.349 . S
C1458 C1460 1.327 . S
C1458 H1483 0.950 . S
C1459 C1458 1.349 . S
C1459 C1475 1.349 . S
C1460 C1458 1.327 . S
C1460 C1479 1.429 . S
C1460 H1484 0.950 . S
C1461 C1478 1.574 1_554 S
C1461 C1480 1.368 . S
C1461 H1485 0.949 . S
H1462 C1466 0.949 . S
C1463 C1464 1.349 . S
C1463 C1465 1.327 . S
C1463 H1486 0.950 . S
C1464 C1463 1.349 . S
C1464 C1476 1.349 . S
C1465 C1463 1.327 . S
C1465 C1481 1.429 . S
C1465 H1487 0.950 . S
C1466 H1462 0.949 . S
C1466 C1474 1.574 . S
C1466 C1482 1.368 1_554 S
H1467 C1475 0.950 . S
H1468 C1473 0.950 . S
H1469 C1474 0.949 . S
H1470 C1476 0.950 . S
H1471 C1477 0.950 . S
H1472 C1478 0.949 . S
C1473 H1468 0.950 . S
C1473 C1475 1.327 . S
C1473 C1479 1.429 . S
C1474 C1466 1.574 . S
C1474 H1469 0.949 . S
C1474 C1480 1.368 . S
C1475 C1459 1.349 . S
C1475 H1467 0.950 . S
C1475 C1473 1.327 . S
C1476 C1464 1.349 . S
C1476 H1470 0.950 . S
C1476 C1477 1.327 . S
C1477 H1471 0.950 . S
C1477 C1476 1.327 . S
C1477 C1481 1.429 . S
C1478 C1461 1.574 1_556 S
C1478 H1472 0.949 . S
C1478 C1482 1.368 . S
C1479 C1460 1.429 . S
C1479 C1473 1.429 . S
C1479 C1480 1.523 . S
C1480 C1461 1.368 . S
C1480 C1474 1.368 . S
C1480 C1479 1.523 . S
C1481 C1465 1.429 . S
C1481 C1477 1.429 . S
C1481 C1482 1.523 . S
C1482 C1466 1.368 1_556 S
C1482 C1478 1.368 . S
C1482 C1481 1.523 . S
H1483 C1458 0.950 . S
H1484 C1460 0.950 . S
H1485 C1461 0.949 . S
H1486 C1463 0.950 . S
H1487 C1465 0.950 . S
C1488 C1489 1.349 . S
C1488 C1490 1.327 . S
C1488 H1513 0.950 . S
C1489 C1488 1.349 . S
C1489 C1505 1.349 . S
C1490 C1488 1.327 . S
C1490 C1509 1.429 . S
C1490 H1514 0.950 . S
C1491 C1508 1.574 . S
C1491 C1510 1.368 . S
C1491 H1515 0.949 . S
H1492 C1496 0.949 . S
C1493 C1494 1.349 . S
C1493 C1495 1.327 . S
C1493 H1516 0.950 . S
C1494 C1493 1.349 . S
C1494 C1506 1.349 . S
C1495 C1493 1.327 . S
C1495 C1511 1.429 . S
C1495 H1517 0.950 . S
C1496 H1492 0.949 . S
C1496 C1504 1.574 . S
C1496 C1512 1.368 . S
H1497 C1505 0.950 . S
H1498 C1503 0.950 . S
H1499 C1504 0.949 . S
H1500 C1506 0.950 . S
H1501 C1507 0.950 . S
H1502 C1508 0.949 . S
C1503 H1498 0.950 . S
C1503 C1505 1.327 . S
C1503 C1509 1.429 . S
C1504 C1496 1.574 . S
C1504 H1499 0.949 . S
C1504 C1510 1.368 . S
C1505 C1489 1.349 . S
C1505 H1497 0.950 . S
C1505 C1503 1.327 . S
C1506 C1494 1.349 . S
C1506 H1500 0.950 . S
C1506 C1507 1.327 . S
C1507 H1501 0.950 . S
C1507 C1506 1.327 . S
C1507 C1511 1.429 . S
C1508 C1491 1.574 . S
C1508 H1502 0.949 . S
C1508 C1512 1.368 . S
C1509 C1490 1.429 . S
C1509 C1503 1.429 . S
C1509 C1510 1.523 . S
C1510 C1491 1.368 . S
C1510 C1504 1.368 . S
C1510 C1509 1.523 . S
C1511 C1495 1.429 . S
C1511 C1507 1.429 . S
C1511 C1512 1.523 . S
C1512 C1496 1.368 . S
C1512 C1508 1.368 . S
C1512 C1511 1.523 . S
H1513 C1488 0.950 . S
H1514 C1490 0.950 . S
H1515 C1491 0.949 . S
H1516 C1493 0.950 . S
H1517 C1495 0.950 . S
C1518 C1519 1.349 . S
C1518 C1520 1.327 . S
C1518 H1543 0.950 . S
C1519 C1518 1.349 . S
C1519 C1535 1.349 . S
C1520 C1518 1.327 . S
C1520 C1539 1.429 . S
C1520 H1544 0.950 . S
C1521 C1538 1.574 . S
C1521 C1540 1.368 . S
C1521 H1545 0.949 . S
H1522 C1526 0.949 . S
C1523 C1524 1.349 . S
C1523 C1525 1.327 . S
C1523 H1546 0.950 . S
C1524 C1523 1.349 . S
C1524 C1536 1.349 . S
C1525 C1523 1.327 . S
C1525 C1541 1.429 . S
C1525 H1547 0.950 . S
C1526 H1522 0.949 . S
C1526 C1534 1.574 . S
C1526 C1542 1.368 . S
H1527 C1535 0.950 . S
H1528 C1533 0.950 . S
H1529 C1534 0.949 . S
H1530 C1536 0.950 . S
H1531 C1537 0.950 . S
H1532 C1538 0.949 . S
C1533 H1528 0.950 . S
C1533 C1535 1.327 . S
C1533 C1539 1.429 . S
C1534 C1526 1.574 . S
C1534 H1529 0.949 . S
C1534 C1540 1.368 . S
C1535 C1519 1.349 . S
C1535 H1527 0.950 . S
C1535 C1533 1.327 . S
C1536 C1524 1.349 . S
C1536 H1530 0.950 . S
C1536 C1537 1.327 . S
C1537 H1531 0.950 . S
C1537 C1536 1.327 . S
C1537 C1541 1.429 . S
C1538 C1521 1.574 . S
C1538 H1532 0.949 . S
C1538 C1542 1.368 . S
C1539 C1520 1.429 . S
C1539 C1533 1.429 . S
C1539 C1540 1.523 . S
C1540 C1521 1.368 . S
C1540 C1534 1.368 . S
C1540 C1539 1.523 . S
C1541 C1525 1.429 . S
C1541 C1537 1.429 . S
C1541 C1542 1.523 . S
C1542 C1526 1.368 . S
C1542 C1538 1.368 . S
C1542 C1541 1.523 . S
H1543 C1518 0.950 . S
H1544 C1520 0.950 . S
H1545 C1521 0.949 . S
H1546 C1523 0.950 . S
H1547 C1525 0.950 . S
C1548 C1549 1.349 . S
C1548 C1550 1.327 . S
C1548 H1573 0.950 . S
C1549 C1548 1.349 . S
C1549 C1565 1.349 . S
C1550 C1548 1.327 . S
C1550 C1569 1.429 . S
C1550 H1574 0.950 . S
C1551 C1568 1.574 . S
C1551 C1570 1.368 . S
C1551 H1575 0.949 . S
H1552 C1556 0.949 . S
C1553 C1554 1.349 . S
C1553 C1555 1.327 . S
C1553 H1576 0.950 . S
C1554 C1553 1.349 . S
C1554 C1566 1.349 . S
C1555 C1553 1.327 . S
C1555 C1571 1.429 . S
C1555 H1577 0.950 . S
C1556 H1552 0.949 . S
C1556 C1564 1.574 . S
C1556 C1572 1.368 . S
H1557 C1565 0.950 . S
H1558 C1563 0.950 . S
H1559 C1564 0.949 . S
H1560 C1566 0.950 . S
H1561 C1567 0.950 . S
H1562 C1568 0.949 . S
C1563 H1558 0.950 . S
C1563 C1565 1.327 . S
C1563 C1569 1.429 . S
C1564 C1556 1.574 . S
C1564 H1559 0.949 . S
C1564 C1570 1.368 . S
C1565 C1549 1.349 . S
C1565 H1557 0.950 . S
C1565 C1563 1.327 . S
C1566 C1554 1.349 . S
C1566 H1560 0.950 . S
C1566 C1567 1.327 . S
C1567 H1561 0.950 . S
C1567 C1566 1.327 . S
C1567 C1571 1.429 . S
C1568 C1551 1.574 . S
C1568 H1562 0.949 . S
C1568 C1572 1.368 . S
C1569 C1550 1.429 . S
C1569 C1563 1.429 . S
C1569 C1570 1.523 . S
C1570 C1551 1.368 . S
C1570 C1564 1.368 . S
C1570 C1569 1.523 . S
C1571 C1555 1.429 . S
C1571 C1567 1.429 . S
C1571 C1572 1.523 . S
C1572 C1556 1.368 . S
C1572 C1568 1.368 . S
C1572 C1571 1.523 . S
H1573 C1548 0.950 . S
H1574 C1550 0.950 . S
H1575 C1551 0.949 . S
H1576 C1553 0.950 . S
H1577 C1555 0.950 . S
C1578 C1579 1.349 . S
C1578 C1580 1.327 . S
C1578 H1603 0.950 . S
C1579 C1578 1.349 . S
C1579 C1595 1.349 . S
C1580 C1578 1.327 . S
C1580 C1599 1.429 . S
C1580 H1604 0.950 . S
C1581 C1598 1.574 . S
C1581 C1600 1.368 . S
C1581 H1605 0.949 . S
H1582 C1586 0.949 . S
C1583 C1584 1.349 . S
C1583 C1585 1.327 . S
C1583 H1606 0.950 . S
C1584 C1583 1.349 . S
C1584 C1596 1.349 . S
C1585 C1583 1.327 . S
C1585 C1601 1.429 . S
C1585 H1607 0.950 . S
C1586 H1582 0.949 . S
C1586 C1594 1.574 . S
C1586 C1602 1.368 . S
H1587 C1595 0.950 . S
H1588 C1593 0.950 . S
H1589 C1594 0.949 . S
H1590 C1596 0.950 . S
H1591 C1597 0.950 . S
H1592 C1598 0.949 . S
C1593 H1588 0.950 . S
C1593 C1595 1.327 . S
C1593 C1599 1.429 . S
C1594 C1586 1.574 . S
C1594 H1589 0.949 . S
C1594 C1600 1.368 . S
C1595 C1579 1.349 . S
C1595 H1587 0.950 . S
C1595 C1593 1.327 . S
C1596 C1584 1.349 . S
C1596 H1590 0.950 . S
C1596 C1597 1.327 . S
C1597 H1591 0.950 . S
C1597 C1596 1.327 . S
C1597 C1601 1.429 . S
C1598 C1581 1.574 . S
C1598 H1592 0.949 . S
C1598 C1602 1.368 . S
C1599 C1580 1.429 . S
C1599 C1593 1.429 . S
C1599 C1600 1.523 . S
C1600 C1581 1.368 . S
C1600 C1594 1.368 . S
C1600 C1599 1.523 . S
C1601 C1585 1.429 . S
C1601 C1597 1.429 . S
C1601 C1602 1.523 . S
C1602 C1586 1.368 . S
C1602 C1598 1.368 . S
C1602 C1601 1.523 . S
H1603 C1578 0.950 . S
H1604 C1580 0.950 . S
H1605 C1581 0.949 . S
H1606 C1583 0.950 . S
H1607 C1585 0.950 . S
C1608 C1609 1.349 . S
C1608 C1610 1.327 . S
C1608 H1633 0.950 . S
C1609 C1608 1.349 . S
C1609 C1625 1.349 . S
C1610 C1608 1.327 . S
C1610 C1629 1.429 . S
C1610 H1634 0.950 . S
C1611 C1628 1.574 . S
C1611 C1630 1.368 . S
C1611 H1635 0.949 . S
H1612 C1616 0.949 . S
C1613 C1614 1.349 . S
C1613 C1615 1.327 . S
C1613 H1636 0.950 . S
C1614 C1613 1.349 . S
C1614 C1626 1.349 . S
C1615 C1613 1.327 . S
C1615 C1631 1.429 1_565 S
C1615 H1637 0.950 . S
C1616 H1612 0.949 . S
C1616 C1624 1.574 . S
C1616 C1632 1.368 . S
H1617 C1625 0.950 . S
H1618 C1623 0.950 . S
H1619 C1624 0.949 . S
H1620 C1626 0.950 . S
H1621 C1627 0.950 . S
H1622 C1628 0.949 . S
C1623 H1618 0.950 . S
C1623 C1625 1.327 . S
C1623 C1629 1.429 . S
C1624 C1616 1.574 . S
C1624 H1619 0.949 . S
C1624 C1630 1.368 . S
C1625 C1609 1.349 . S
C1625 H1617 0.950 . S
C1625 C1623 1.327 . S
C1626 C1614 1.349 . S
C1626 H1620 0.950 . S
C1626 C1627 1.327 1_565 S
C1627 H1621 0.950 . S
C1627 C1626 1.327 1_545 S
C1627 C1631 1.429 . S
C1628 C1611 1.574 . S
C1628 H1622 0.949 . S
C1628 C1632 1.368 . S
C1629 C1610 1.429 . S
C1629 C1623 1.429 . S
C1629 C1630 1.523 . S
C1630 C1611 1.368 . S
C1630 C1624 1.368 . S
C1630 C1629 1.523 . S
C1631 C1615 1.429 1_545 S
C1631 C1627 1.429 . S
C1631 C1632 1.523 . S
C1632 C1616 1.368 . S
C1632 C1628 1.368 . S
C1632 C1631 1.523 . S
H1633 C1608 0.950 . S
H1634 C1610 0.950 . S
H1635 C1611 0.949 . S
H1636 C1613 0.950 . S
H1637 C1615 0.950 . S
C1638 C1639 1.349 . S
C1638 C1640 1.327 . S
C1638 H1663 0.950 . S
C1639 C1638 1.349 . S
C1639 C1655 1.349 . S
C1640 C1638 1.327 . S
C1640 C1659 1.429 . S
C1640 H1664 0.950 . S
C1641 C1658 1.574 . S
C1641 C1660 1.368 . S
C1641 H1665 0.949 . S
H1642 C1646 0.949 . S
C1643 C1644 1.349 . S
C1643 C1645 1.327 . S
C1643 H1666 0.950 . S
C1644 C1643 1.349 . S
C1644 C1656 1.349 . S
C1645 C1643 1.327 . S
C1645 C1661 1.429 1_655 S
C1645 H1667 0.950 . S
C1646 H1642 0.949 . S
C1646 C1654 1.574 . S
C1646 C1662 1.368 . S
H1647 C1655 0.950 . S
H1648 C1653 0.950 . S
H1649 C1654 0.949 . S
H1650 C1656 0.950 . S
H1651 C1657 0.950 . S
H1652 C1658 0.949 . S
C1653 H1648 0.950 . S
C1653 C1655 1.327 . S
C1653 C1659 1.429 . S
C1654 C1646 1.574 . S
C1654 H1649 0.949 . S
C1654 C1660 1.368 . S
C1655 C1639 1.349 . S
C1655 H1647 0.950 . S
C1655 C1653 1.327 . S
C1656 C1644 1.349 . S
C1656 H1650 0.950 . S
C1656 C1657 1.327 1_655 S
C1657 H1651 0.950 . S
C1657 C1656 1.327 1_455 S
C1657 C1661 1.429 . S
C1658 C1641 1.574 . S
C1658 H1652 0.949 . S
C1658 C1662 1.368 . S
C1659 C1640 1.429 . S
C1659 C1653 1.429 . S
C1659 C1660 1.523 . S
C1660 C1641 1.368 . S
C1660 C1654 1.368 . S
C1660 C1659 1.523 . S
C1661 C1645 1.429 1_455 S
C1661 C1657 1.429 . S
C1661 C1662 1.523 . S
C1662 C1646 1.368 . S
C1662 C1658 1.368 . S
C1662 C1661 1.523 . S
H1663 C1638 0.950 . S
H1664 C1640 0.950 . S
H1665 C1641 0.949 . S
H1666 C1643 0.950 . S
H1667 C1645 0.950 . S
C1668 C1669 1.349 . S
C1668 C1670 1.327 . S
C1668 H1693 0.950 . S
C1669 C1668 1.349 . S
C1669 C1685 1.349 . S
C1670 C1668 1.327 . S
C1670 C1689 1.429 . S
C1670 H1694 0.950 . S
C1671 C1688 1.574 . S
C1671 C1690 1.368 . S
C1671 H1695 0.949 . S
H1672 C1676 0.949 . S
C1673 C1674 1.349 . S
C1673 C1675 1.327 1_545 S
C1673 H1696 0.950 . S
C1674 C1673 1.349 . S
C1674 C1686 1.349 . S
C1675 C1673 1.327 1_565 S
C1675 C1691 1.429 . S
C1675 H1697 0.950 . S
C1676 H1672 0.949 . S
C1676 C1684 1.574 . S
C1676 C1692 1.368 . S
H1677 C1685 0.950 . S
H1678 C1683 0.950 . S
H1679 C1684 0.949 . S
H1680 C1686 0.950 . S
H1681 C1687 0.950 . S
H1682 C1688 0.949 . S
C1683 H1678 0.950 . S
C1683 C1685 1.327 . S
C1683 C1689 1.429 . S
C1684 C1676 1.574 . S
C1684 H1679 0.949 . S
C1684 C1690 1.368 . S
C1685 C1669 1.349 . S
C1685 H1677 0.950 . S
C1685 C1683 1.327 . S
C1686 C1674 1.349 . S
C1686 H1680 0.950 . S
C1686 C1687 1.327 . S
C1687 H1681 0.950 . S
C1687 C1686 1.327 . S
C1687 C1691 1.429 1_545 S
C1688 C1671 1.574 . S
C1688 H1682 0.949 . S
C1688 C1692 1.368 . S
C1689 C1670 1.429 . S
C1689 C1683 1.429 . S
C1689 C1690 1.523 . S
C1690 C1671 1.368 . S
C1690 C1684 1.368 . S
C1690 C1689 1.523 . S
C1691 C1675 1.429 . S
C1691 C1687 1.429 1_565 S
C1691 C1692 1.523 . S
C1692 C1676 1.368 . S
C1692 C1688 1.368 . S
C1692 C1691 1.523 . S
H1693 C1668 0.950 . S
H1694 C1670 0.950 . S
H1695 C1671 0.949 . S
H1696 C1673 0.950 . S
H1697 C1675 0.950 . S
C1698 C1699 1.349 . S
C1698 C1700 1.327 1_455 S
C1698 H1723 0.950 . S
C1699 C1698 1.349 . S
C1699 C1715 1.349 . S
C1700 C1698 1.327 1_655 S
C1700 C1719 1.429 . S
C1700 H1724 0.950 . S
C1701 C1718 1.574 . S
C1701 C1720 1.368 . S
C1701 H1725 0.949 . S
H1702 C1706 0.949 . S
C1703 C1704 1.349 . S
C1703 C1705 1.327 . S
C1703 H1726 0.950 . S
C1704 C1703 1.349 . S
C1704 C1716 1.349 . S
C1705 C1703 1.327 . S
C1705 C1721 1.429 . S
C1705 H1727 0.950 . S
C1706 H1702 0.949 . S
C1706 C1714 1.574 . S
C1706 C1722 1.368 . S
H1707 C1715 0.950 . S
H1708 C1713 0.950 . S
H1709 C1714 0.949 . S
H1710 C1716 0.950 . S
H1711 C1717 0.950 . S
H1712 C1718 0.949 . S
C1713 H1708 0.950 . S
C1713 C1715 1.327 . S
C1713 C1719 1.429 1_455 S
C1714 C1706 1.574 . S
C1714 H1709 0.949 . S
C1714 C1720 1.368 . S
C1715 C1699 1.349 . S
C1715 H1707 0.950 . S
C1715 C1713 1.327 . S
C1716 C1704 1.349 . S
C1716 H1710 0.950 . S
C1716 C1717 1.327 . S
C1717 H1711 0.950 . S
C1717 C1716 1.327 . S
C1717 C1721 1.429 . S
C1718 C1701 1.574 . S
C1718 H1712 0.949 . S
C1718 C1722 1.368 . S
C1719 C1700 1.429 . S
C1719 C1713 1.429 1_655 S
C1719 C1720 1.523 . S
C1720 C1701 1.368 . S
C1720 C1714 1.368 . S
C1720 C1719 1.523 . S
C1721 C1705 1.429 . S
C1721 C1717 1.429 . S
C1721 C1722 1.523 . S
C1722 C1706 1.368 . S
C1722 C1718 1.368 . S
C1722 C1721 1.523 . S
H1723 C1698 0.950 . S
H1724 C1700 0.950 . S
H1725 C1701 0.949 . S
H1726 C1703 0.950 . S
H1727 C1705 0.950 . S
C529 C7 0.679 . S
C534 C469 0.679 . S
C559 C502 0.679 . S
C564 C40 0.679 . S
C589 C403 0.679 . S
C594 C73 0.679 . S
C619 C106 0.679 . S
C624 C436 0.679 . S
C649 C139 0.678 . S
C654 C337 0.678 . S
C679 C370 0.678 . S
C684 C172 0.678 . S
C709 C205 0.678 . S
C714 C271 0.678 . S
C739 C304 0.678 . S
C744 C238 0.678 . S
C769 N145 1.375 . S
C774 N13 1.375 . S
C799 N46 1.375 . S
C804 N178 1.375 . S
C829 N79 1.375 . S
C834 N211 1.375 . S
C859 N112 1.375 . S
C864 N244 1.375 . S
C889 N409 1.375 . S
C894 N277 1.375 . S
C919 N442 1.375 . S
C924 N310 1.375 . S
C949 N343 1.375 . S
C954 N475 1.375 . S
C979 N376 1.375 . S
C984 N508 1.375 . S
C1009 C21 1.506 . S
C1014 C483 1.506 . S
C1039 C516 1.506 . S
C1044 C54 1.506 . S
C1069 C87 1.506 . S
C1074 C417 1.506 . S
C1099 C450 1.506 . S
C1104 C120 1.506 . S
C1129 C351 1.507 . S
C1134 C153 1.507 . S
C1159 C384 1.507 . S
C1164 C186 1.507 . S
C1189 C219 1.507 . S
C1194 C285 1.507 . S
C1219 C252 1.507 . S
C1224 C318 1.507 . S
C1249 N2 1.496 . S
C1254 C381 1.574 . S
C1279 C282 1.574 . S
C1284 N35 1.496 . S
C1309 N68 1.496 . S
C1314 C315 1.574 . S
C1339 C348 1.574 . S
C1344 N101 1.496 . S
C1369 C183 1.574 . S
C1374 N134 1.496 . S
C1399 C216 1.574 . S
C1404 N167 1.496 . S
C1429 N200 1.496 . S
C1434 C249 1.574 . S
C1459 C150 1.574 . S
C1464 N233 1.496 . S
C1489 C117 1.574 . S
C1494 N266 1.496 . S
C1519 N299 1.496 . S
C1524 C18 1.574 . S
C1549 N332 1.496 . S
C1554 C51 1.574 . S
C1579 C84 1.574 . S
C1584 N365 1.496 . S
C1609 C447 1.574 . S
C1614 N398 1.496 . S
C1639 C480 1.574 . S
C1644 N431 1.496 . S
C1669 C513 1.574 . S
C1674 N464 1.496 . S
C1699 N497 1.496 . S
C1704 C414 1.574 . S
