# Generated by pormake.
# Topology xfw, (5)-cn, num edge types: 1
# Building blocks:
#     Node 0, Type 0, BuildingBlock: XOMCOT_clean_sbu_0, # of connection points: 5
#     Node 1, Type 0, BuildingBlock: XOMCOT_clean_sbu_0, # of connection points: 5
#     Node 2, Type 0, BuildingBlock: XOMCOT_clean_sbu_0, # of connection points: 5
#     Node 3, Type 0, BuildingBlock: XOMCOT_clean_sbu_0, # of connection points: 5
#     Node 4, Type 0, BuildingBlock: XOMCOT_clean_sbu_0, # of connection points: 5
#     Node 5, Type 0, BuildingBlock: XOMCOT_clean_sbu_0, # of connection points: 5
#     Node 6, Type 0, BuildingBlock: XOMCOT_clean_sbu_0, # of connection points: 5
#     Node 7, Type 0, BuildingBlock: XOMCOT_clean_sbu_0, # of connection points: 5
#     Edge 8, Type (0, 0), BuildingBlock: XUDNAN_clean_linker_2, # of connection points: 2
#     Edge 9, Type (0, 0), BuildingBlock: XUDNAN_clean_linker_2, # of connection points: 2
#     Edge 10, Type (0, 0), BuildingBlock: XUDNAN_clean_linker_2, # of connection points: 2
#     Edge 11, Type (0, 0), BuildingBlock: XUDNAN_clean_linker_2, # of connection points: 2
#     Edge 12, Type (0, 0), BuildingBlock: XUDNAN_clean_linker_2, # of connection points: 2
#     Edge 13, Type (0, 0), BuildingBlock: XUDNAN_clean_linker_2, # of connection points: 2
#     Edge 14, Type (0, 0), BuildingBlock: XUDNAN_clean_linker_2, # of connection points: 2
#     Edge 15, Type (0, 0), BuildingBlock: XUDNAN_clean_linker_2, # of connection points: 2
#     Edge 16, Type (0, 0), BuildingBlock: XUDNAN_clean_linker_2, # of connection points: 2
#     Edge 17, Type (0, 0), BuildingBlock: XUDNAN_clean_linker_2, # of connection points: 2
#     Edge 18, Type (0, 0), BuildingBlock: XUDNAN_clean_linker_2, # of connection points: 2
#     Edge 19, Type (0, 0), BuildingBlock: XUDNAN_clean_linker_2, # of connection points: 2
#     Edge 20, Type (0, 0), BuildingBlock: XUDNAN_clean_linker_2, # of connection points: 2
#     Edge 21, Type (0, 0), BuildingBlock: XUDNAN_clean_linker_2, # of connection points: 2
#     Edge 22, Type (0, 0), BuildingBlock: XUDNAN_clean_linker_2, # of connection points: 2
#     Edge 23, Type (0, 0), BuildingBlock: XUDNAN_clean_linker_2, # of connection points: 2
#     Edge 24, Type (0, 0), BuildingBlock: XUDNAN_clean_linker_2, # of connection points: 2
#     Edge 25, Type (0, 0), BuildingBlock: XUDNAN_clean_linker_2, # of connection points: 2
#     Edge 26, Type (0, 0), BuildingBlock: XUDNAN_clean_linker_2, # of connection points: 2
#     Edge 27, Type (0, 0), BuildingBlock: XUDNAN_clean_linker_2, # of connection points: 2
# Relax obj value: 0.378
# Max RMSD: 0.291
# Mean RMSD: 0.291
data_MOF--net-xfw--node1-XOMCOT_clean_sbu_0--edge1-XUDNAN_clean_linker_2
_symmetry_space_group_name_H-M    P1
_symmetry_Int_Tables_number       1
_symmetry_cell_setting            triclinic
loop_
_symmetry_equiv_pos_as_xyz
'x, y, z'
_cell_length_a     29.994222
_cell_length_b     30.033792
_cell_length_c     57.291191
_cell_angle_alpha  90.13896
_cell_angle_beta   90.043174
_cell_angle_gamma 90.072837
loop_
_atom_site_label
_atom_site_type_symbol
_atom_site_fract_x
_atom_site_fract_y
_atom_site_fract_z
_atom_type_partial_charge
Co0 Co 0.1825 0.08309 0.62482 0.0
C1 C 0.18778 0.13509 0.66811 0.0
C2 C 0.18078 0.17813 0.6385 0.0
C3 C 0.17768 0.20339 0.6586 0.0
N4 N 0.18703 0.1353 0.64454 0.0
N5 N 0.18183 0.17617 0.67722 0.0
H6 H 0.18914 0.10498 0.6784 0.0
H7 H 0.17621 0.18989 0.62084 0.0
C8 C 0.21205 0.10755 0.57681 0.0
O9 O 0.23651 0.07264 0.57158 0.0
N10 N 0.17706 0.02875 0.60604 0.0
C11 C 0.18772 0.9876 0.61366 0.0
C12 C 0.17825 0.95691 0.59666 0.0
C13 C 0.15892 0.02175 0.58461 0.0
N14 N 0.16055 0.9783 0.57828 0.0
C15 C 0.24354 0.03665 0.65464 0.0
C16 C 0.31998 0.05725 0.6302 0.0
C17 C 0.3221 0.02434 0.64751 0.0
C18 C 0.28344 0.01549 0.66046 0.0
C19 C 0.27922 0.07669 0.62456 0.0
N20 N 0.24105 0.06422 0.63576 0.0
H21 H 0.21388 0.02811 0.6643 0.0
H22 H 0.279 0.1011 0.61088 0.0
H23 H 0.20082 0.97952 0.6306 0.0
H24 H 0.14445 0.04747 0.57391 0.0
O25 O 0.14412 0.05597 0.64814 0.0
O26 O 0.12194 0.09746 0.61834 0.0
O27 O 0.20758 0.11906 0.59811 0.0
C28 C 0.11167 0.0754 0.63698 0.0
H29 H 0.17117 0.23879 0.65941 0.0
H30 H 0.18511 0.92157 0.59752 0.0
H31 H 0.34938 0.06737 0.62062 0.0
H32 H 0.28317 0.99085 0.67421 0.0
Co33 Co 0.09727 0.77545 0.42317 0.0
C34 C 0.10935 0.79342 0.37244 0.0
C35 C 0.17013 0.77101 0.38826 0.0
C36 C 0.17786 0.77827 0.36488 0.0
N37 N 0.12706 0.78032 0.39305 0.0
N38 N 0.13972 0.79257 0.35505 0.0
H39 H 0.07496 0.80324 0.37006 0.0
H40 H 0.19466 0.75992 0.40076 0.0
C41 C 0.17708 0.76247 0.45377 0.0
O42 O 0.21117 0.73813 0.4603 0.0
N43 N 0.06786 0.76871 0.4532 0.0
C44 C 0.07219 0.73139 0.46595 0.0
C45 C 0.04434 0.73354 0.48474 0.0
C46 C 0.03674 0.79333 0.46457 0.0
N47 N 0.02193 0.77248 0.48415 0.0
C48 C 0.02914 0.71309 0.41317 0.0
C49 C 0.08369 0.64184 0.40226 0.0
C50 C 0.03725 0.63644 0.40129 0.0
C51 C 0.00992 0.67272 0.40675 0.0
C52 C 0.10166 0.68316 0.40854 0.0
N53 N 0.0743 0.71786 0.41412 0.0
H54 H 0.00765 0.74057 0.41779 0.0
H55 H 0.13743 0.6872 0.40889 0.0
H56 H 0.09322 0.70348 0.4614 0.0
H57 H 0.02472 0.8252 0.45852 0.0
O58 O 0.04907 0.81141 0.41158 0.0
O59 O 0.11001 0.83735 0.42874 0.0
O60 O 0.15252 0.74834 0.43705 0.0
C61 C 0.07312 0.84549 0.41768 0.0
H62 H 0.20939 0.77448 0.35591 0.0
H63 H 0.03999 0.7072 0.49736 0.0
H64 H 0.10582 0.61454 0.39799 0.0
H65 H 0.97393 0.66967 0.40653 0.0
Co66 Co 0.77233 0.94992 0.62706 0.0
C67 C 0.80675 0.91987 0.67316 0.0
C68 C 0.79549 0.86467 0.65022 0.0
C69 C 0.80809 0.84853 0.6718 0.0
N70 N 0.79496 0.9096 0.65099 0.0
N71 N 0.8153 0.88344 0.68614 0.0
H72 H 0.80625 0.95303 0.68029 0.0
H73 H 0.78554 0.84473 0.63537 0.0
C74 C 0.78476 0.90217 0.58057 0.0
O75 O 0.76141 0.93165 0.569 0.0
N76 N 0.749 0.9914 0.6039 0.0
C77 C 0.70744 0.00855 0.60344 0.0
C78 C 0.70545 0.04132 0.58679 0.0
C79 C 0.77213 0.01547 0.58797 0.0
N80 N 0.74609 0.04573 0.57702 0.0
C81 C 0.69617 0.9366 0.65499 0.0
C82 C 0.64258 0.89768 0.62138 0.0
C83 C 0.62378 0.90978 0.64294 0.0
C84 C 0.6517 0.92806 0.6601 0.0
C85 C 0.68755 0.90682 0.61697 0.0
N86 N 0.71308 0.92766 0.63343 0.0
H87 H 0.71663 0.95252 0.66809 0.0
H88 H 0.70086 0.89961 0.59991 0.0
H89 H 0.68051 -0.00065 0.61497 0.0
H90 H 0.80741 0.01135 0.5847 0.0
O91 O 0.77429 -0.00037 0.64895 0.0
O92 O 0.82898 0.9784 0.62518 0.0
O93 O 0.78564 0.90233 0.60292 0.0
C94 C 0.8145 0.0058 0.64101 0.0
H95 H 0.81102 0.81385 0.67666 0.0
H96 H 0.6762 0.06057 0.58234 0.0
H97 H 0.62233 0.88304 0.6077 0.0
H98 H 0.63885 0.93855 0.67689 0.0
Co99 Co 0.91336 0.17296 0.3962 0.0
C100 C 0.85816 0.17126 0.35307 0.0
C101 C 0.81738 0.16038 0.38315 0.0
C102 C 0.79069 0.15888 0.36354 0.0
N103 N 0.8597 0.16969 0.37673 0.0
N104 N 0.81652 0.16558 0.34467 0.0
H105 H 0.88692 0.17608 0.342 0.0
H106 H 0.80634 0.15327 0.40065 0.0
C107 C 0.84644 0.19552 0.43466 0.0
O108 O 0.83006 0.22943 0.42303 0.0
N109 N 0.96751 0.17531 0.41475 0.0
C110 C 0.00716 0.19052 0.40704 0.0
C111 C 0.03831 0.18567 0.42443 0.0
C112 C 0.97491 0.16186 0.43692 0.0
N113 N 0.01801 0.16784 0.44317 0.0
C114 C 0.91556 0.25786 0.3734 0.0
C115 C 0.92665 0.30807 0.41349 0.0
C116 C 0.92716 0.32942 0.39178 0.0
C117 C 0.92116 0.30381 0.37158 0.0
C118 C 0.92056 0.26206 0.41453 0.0
N119 N 0.91438 0.23754 0.39465 0.0
H120 H 0.91437 0.23858 0.35759 0.0
H121 H 0.92223 0.24594 0.43134 0.0
H122 H 0.01301 0.20439 0.38991 0.0
H123 H 0.94965 0.14776 0.44817 0.0
O124 O 0.95012 0.15893 0.36933 0.0
O125 O 0.91918 0.11011 0.3936 0.0
O126 O 0.87753 0.17186 0.42593 0.0
C127 C 0.94464 0.11765 0.37571 0.0
H128 H 0.75525 0.15202 0.36312 0.0
H129 H 0.07302 0.19549 0.42361 0.0
H130 H 0.93159 0.32665 0.42952 0.0
H131 H 0.92283 0.31883 0.35443 0.0
Co132 Co 0.78133 0.09637 0.11297 0.0
C133 C 0.7825 0.12827 0.16183 0.0
C134 C 0.77752 0.18279 0.13774 0.0
C135 C 0.77557 0.19944 0.16019 0.0
N136 N 0.78142 0.13815 0.13882 0.0
N137 N 0.77898 0.16515 0.17522 0.0
H138 H 0.78419 0.09472 0.16864 0.0
H139 H 0.7754 0.20191 0.12182 0.0
C140 C 0.75803 0.15602 0.07285 0.0
O141 O 0.73029 0.18433 0.06322 0.0
N142 N 0.7793 0.05394 0.08731 0.0
C143 C 0.74163 0.04608 0.07506 0.0
C144 C 0.74784 0.0099 0.06087 0.0
C145 C 0.80821 0.02185 0.08037 0.0
N146 N 0.78952 -0.0052 0.06415 0.0
C147 C 0.72614 0.02706 0.13012 0.0
C148 C 0.64787 0.07555 0.13177 0.0
C149 C 0.64663 0.02968 0.13638 0.0
C150 C 0.68658 0.00562 0.13607 0.0
C151 C 0.68834 0.09583 0.12605 0.0
N152 N 0.72637 0.07115 0.12452 0.0
H153 H 0.75644 0.00777 0.12892 0.0
H154 H 0.6889 0.13107 0.12233 0.0
H155 H 0.7109 0.0645 0.07698 0.0
H156 H 0.84098 0.01675 0.08779 0.0
O157 O 0.82258 0.05974 0.12992 0.0
O158 O 0.84126 0.11415 0.1056 0.0
O159 O 0.74843 0.14049 0.09303 0.0
C160 C 0.85362 0.08424 0.12065 0.0
H161 H 0.77166 0.23404 0.16513 0.0
H162 H 0.7232 -0.00516 0.0495 0.0
H163 H 0.61776 0.0954 0.13227 0.0
H164 H 0.68701 0.97012 0.13936 0.0
Co165 Co 0.09349 0.19202 0.9118 0.0
C166 C 0.11954 0.19748 0.86223 0.0
C167 C 0.17413 0.17556 0.88355 0.0
C168 C 0.18767 0.17567 0.86051 0.0
N169 N 0.13148 0.18931 0.88453 0.0
N170 N 0.15331 0.18962 0.84717 0.0
H171 H 0.08644 0.20792 0.85709 0.0
H172 H 0.19374 0.16553 0.8985 0.0
C173 C 0.1595 0.21844 0.94908 0.0
O174 O 0.19098 0.24589 0.95597 0.0
N175 N 0.05491 0.19604 0.93905 0.0
C176 C 0.04652 0.23455 0.95036 0.0
C177 C 0.01713 0.22669 0.96818 0.0
C178 C 0.02987 0.16502 0.95018 0.0
N179 N 0.0068 0.18302 0.96825 0.0
C180 C 0.02358 0.24841 0.89632 0.0
C181 C 0.07483 0.32417 0.89049 0.0
C182 C 0.02849 0.32671 0.88734 0.0
C183 C 0.00292 0.28797 0.88977 0.0
C184 C 0.09422 0.28382 0.89692 0.0
N185 N 0.06835 0.24709 0.90046 0.0
H186 H 0.00337 0.21907 0.89904 0.0
H187 H 0.12991 0.28226 0.89933 0.0
H188 H 0.06099 0.26644 0.94598 0.0
H189 H 0.02849 0.13025 0.94529 0.0
O190 O 0.05352 0.15151 0.89653 0.0
O191 O 0.11033 0.13173 0.91922 0.0
O192 O 0.14186 0.22473 0.92905 0.0
C193 C 0.07858 0.12009 0.90491 0.0
H194 H 0.22033 0.16649 0.8541 0.0
H195 H 0.00373 0.25156 0.97993 0.0
H196 H 0.09576 0.35329 0.88835 0.0
H197 H 0.96704 0.28864 0.88767 0.0
Co198 Co 0.18585 0.92274 0.12791 0.0
C199 C 0.1705 0.88784 0.17575 0.0
C200 C 0.15966 0.83647 0.15046 0.0
C201 C 0.15066 0.81951 0.17231 0.0
N202 N 0.17336 0.87922 0.15255 0.0
N203 N 0.15729 0.85204 0.18809 0.0
H204 H 0.17718 0.91992 0.18362 0.0
H205 H 0.15376 0.81895 0.13434 0.0
C206 C 0.19525 0.84081 0.09652 0.0
O207 O 0.22665 0.82249 0.10929 0.0
N208 N 0.19666 0.96652 0.10378 0.0
C209 C 0.22862 -0.00186 0.10377 0.0
C210 C 0.22234 0.02525 0.08471 0.0
C211 C 0.17077 0.9754 0.08504 0.0
N212 N 0.18624 0.01069 0.07296 0.0
C213 C 0.269 0.91674 0.15184 0.0
C214 C 0.32183 0.90665 0.11267 0.0
C215 C 0.34217 0.91209 0.13452 0.0
C216 C 0.31518 0.91616 0.15431 0.0
C217 C 0.27537 0.90675 0.11101 0.0
N218 N 0.24953 0.91215 0.13045 0.0
H219 H 0.24908 0.92351 0.16705 0.0
H220 H 0.26022 0.90501 0.09391 0.0
H221 H 0.25367 0.00225 0.11719 0.0
H222 H 0.14017 0.95785 0.081 0.0
O223 O 0.18023 0.97131 0.15005 0.0
O224 O 0.12518 0.9408 0.12924 0.0
O225 O 0.17739 0.87749 0.10257 0.0
C226 C 0.13818 0.97041 0.14434 0.0
H227 H 0.13791 0.78661 0.17619 0.0
H228 H 0.24123 0.0549 0.0805 0.0
H229 H 0.34165 0.90384 0.09694 0.0
H230 H 0.3296 0.9217 0.17142 0.0
Co231 Co 0.94375 0.78471 0.90562 0.0
C232 C 0.89973 0.83126 0.86595 0.0
C233 C 0.85318 0.79137 0.88489 0.0
C234 C 0.83288 0.80608 0.86473 0.0
N235 N 0.89548 0.80679 0.88568 0.0
N236 N 0.86236 0.831 0.8528 0.0
H237 H 0.93047 0.84603 0.86013 0.0
H238 H 0.83905 0.7675 0.89675 0.0
C239 C 0.87325 0.78186 0.94534 0.0
O240 O 0.85012 0.74802 0.9373 0.0
N241 N 0.99205 0.76226 0.92461 0.0
C242 C 0.02115 0.73074 0.91774 0.0
C243 C 0.05155 0.72398 0.93527 0.0
C244 C 0.00538 0.77482 0.94614 0.0
N245 N 0.04167 0.7516 0.95314 0.0
C246 C 0.92005 0.70831 0.87885 0.0
C247 C 0.9181 0.6499 0.91608 0.0
C248 C 0.91753 0.63284 0.8933 0.0
C249 C 0.9167 0.66265 0.87452 0.0
C250 C 0.92159 0.69562 0.91961 0.0
N251 N 0.92341 0.72411 0.90112 0.0
H252 H 0.92307 0.73087 0.86425 0.0
H253 H 0.92639 0.70781 0.93719 0.0
H254 H 0.02037 0.71398 0.90101 0.0
H255 H 0.98888 0.80021 0.95639 0.0
O256 O 0.98585 0.78926 0.87976 0.0
O257 O 0.97103 0.84164 0.90624 0.0
O258 O 0.90758 0.7962 0.93462 0.0
C259 C 0.9948 0.82834 0.88867 0.0
H260 H 0.79985 0.79706 0.85872 0.0
H261 H 0.07945 0.7012 0.93464 0.0
H262 H 0.91875 0.62793 0.93104 0.0
H263 H 0.91701 0.65076 0.85666 0.0
H264 H 0.12803 0.89588 0.57003 0.0
H265 H 0.17737 0.01442 0.5358 0.0
H266 H 0.17941 0.97355 0.49813 0.0
H267 H 0.19683 0.82244 0.54221 0.0
H268 H 0.15722 0.77746 0.53991 0.0
H269 H 0.15196 0.81775 0.56299 0.0
H270 H 0.07108 0.83611 0.54983 0.0
H271 H 0.07656 0.79455 0.5273 0.0
H272 H 0.06072 0.85065 0.51978 0.0
H273 H 0.18921 0.91569 0.46616 0.0
H274 H 0.19835 0.84777 0.44185 0.0
H275 H 0.14047 0.7682 0.49689 0.0
C276 C 0.13788 0.91363 0.55444 0.0
C277 C 0.1523 0.95836 0.55577 0.0
C278 C 0.16544 0.98043 0.53507 0.0
C279 C 0.16692 0.95739 0.51366 0.0
C280 C 0.15434 0.91262 0.5132 0.0
C281 C 0.13925 0.89125 0.53302 0.0
C282 C 0.13139 0.84217 0.52855 0.0
C283 C 0.16113 0.81329 0.54435 0.0
C284 C 0.08194 0.83024 0.53154 0.0
C285 C 0.14545 0.83881 0.50326 0.0
C286 C 0.15857 0.87976 0.49463 0.0
C287 C 0.17742 0.88385 0.47246 0.0
C288 C 0.18248 0.84524 0.45878 0.0
C289 C 0.16745 0.80348 0.46701 0.0
C290 C 0.14956 0.80024 0.48967 0.0
H291 H 0.8155 0.91092 0.53545 0.0
H292 H 0.82696 0.82834 0.5973 0.0
H293 H 0.88781 0.78634 0.57868 0.0
H294 H 0.84103 0.82257 0.4924 0.0
H295 H 0.87264 0.85952 0.47397 0.0
H296 H 0.82729 0.88096 0.49128 0.0
H297 H 0.88083 0.93859 0.50995 0.0
H298 H 0.92646 0.91697 0.49296 0.0
H299 H 0.93078 0.91958 0.52431 0.0
H300 H 0.95087 0.75808 0.55559 0.0
H301 H 0.00949 0.7394 0.52788 0.0
H302 H 0.95812 0.8381 0.47938 0.0
C303 C 0.83 0.88323 0.54483 0.0
C304 C 0.81612 0.87271 0.56784 0.0
C305 C 0.83677 0.83693 0.57969 0.0
C306 C 0.87149 0.81293 0.56927 0.0
C307 C 0.88525 0.82503 0.54694 0.0
C308 C 0.86498 0.85893 0.53468 0.0
C309 C 0.88772 0.86595 0.51122 0.0
C310 C 0.85523 0.85668 0.49102 0.0
C311 C 0.90762 0.91307 0.50952 0.0
C312 C 0.92412 0.83085 0.51238 0.0
C313 C 0.92187 0.80793 0.53323 0.0
C314 C 0.95242 0.77511 0.53898 0.0
C315 C 0.98565 0.76453 0.52285 0.0
C316 C 0.98836 0.78631 0.50089 0.0
C317 C 0.95721 0.82047 0.4958 0.0
H318 H 0.81186 0.03559 0.54454 0.0
H319 H 0.70788 0.1257 0.56776 0.0
H320 H 0.72416 0.17548 0.53473 0.0
H321 H 0.88926 0.12275 0.52421 0.0
H322 H 0.90769 0.09017 0.49959 0.0
H323 H 0.88975 0.06283 0.52594 0.0
H324 H 0.83207 0.01712 0.50221 0.0
H325 H 0.84968 0.04433 0.47582 0.0
H326 H 0.79186 0.04581 0.48433 0.0
H327 H 0.74862 0.21355 0.49775 0.0
H328 H 0.78077 0.23742 0.46004 0.0
H329 H 0.86948 0.12326 0.46129 0.0
C330 C 0.79311 0.0662 0.54295 0.0
C331 C 0.75837 0.07648 0.55875 0.0
C332 C 0.73415 0.11661 0.55574 0.0
C333 C 0.74337 0.14535 0.5371 0.0
C334 C 0.77715 0.13379 0.52159 0.0
C335 C 0.80191 0.09535 0.5244 0.0
C336 C 0.83535 0.08993 0.50477 0.0
C337 C 0.88335 0.09153 0.51419 0.0
C338 C 0.82669 0.04675 0.49097 0.0
C339 C 0.82481 0.13082 0.49029 0.0
C340 C 0.79137 0.15586 0.50035 0.0
C341 C 0.77512 0.19441 0.48979 0.0
C342 C 0.7935 0.20768 0.46833 0.0
C343 C 0.82772 0.18241 0.45764 0.0
C344 C 0.84356 0.14361 0.46898 0.0
H345 H 0.21427 0.0979 0.52896 0.0
H346 H 0.13684 0.15687 0.58504 0.0
H347 H 0.07731 0.17547 0.55718 0.0
H348 H 0.18327 0.18245 0.48558 0.0
H349 H 0.18254 0.14283 0.4619 0.0
H350 H 0.21918 0.13439 0.48642 0.0
H351 H 0.18486 0.05643 0.49256 0.0
H352 H 0.14713 0.06469 0.4685 0.0
H353 H 0.12556 0.05088 0.49694 0.0
H354 H 0.02286 0.18169 0.52368 0.0
H355 H 0.98379 0.18748 0.48561 0.0
H356 H 0.09883 0.13095 0.4509 0.0
C357 C 0.18511 0.11532 0.53532 0.0
C358 C 0.18015 0.12534 0.5593 0.0
C359 C 0.14149 0.14846 0.56684 0.0
C360 C 0.10726 0.15903 0.55114 0.0
C361 C 0.11254 0.14736 0.52778 0.0
C362 C 0.15101 0.12716 0.51976 0.0
C363 C 0.14894 0.11979 0.4936 0.0
C364 C 0.18566 0.14647 0.48114 0.0
C365 C 0.15176 0.06997 0.48756 0.0
C366 C 0.10308 0.13831 0.48828 0.0
C367 C 0.08231 0.15344 0.50829 0.0
C368 C 0.03904 0.1705 0.50785 0.0
C369 C 0.01695 0.17334 0.48626 0.0
C370 C 0.03851 0.15992 0.46546 0.0
C371 C 0.0819 0.14179 0.46659 0.0
H372 H 0.90406 0.86166 0.96229 0.0
H373 H 0.81216 0.754 0.97796 0.0
H374 H 0.78924 0.7933 1.01396 0.0
H375 H 0.93569 0.88843 0.02315 0.0
H376 H 0.93733 0.94744 0.01755 0.0
H377 H 0.95051 0.90852 0.99457 0.0
H378 H 0.88983 0.94391 0.96829 0.0
H379 H 0.87678 0.98302 0.99108 0.0
H380 H 0.83348 0.94823 0.979 0.0
H381 H 0.77141 0.84681 0.04601 0.0
H382 H 0.75559 0.91331 0.07016 0.0
H383 H 0.85823 0.98679 0.03387 0.0
C384 C 0.8796 0.84591 0.97346 0.0
C385 C 0.86005 0.8045 0.96733 0.0
C386 C 0.82764 0.78557 0.98226 0.0
C387 C 0.81466 0.80752 1.00284 0.0
C388 C 0.83445 0.84836 1.00826 0.0
C389 C 0.86608 0.8675 0.99394 0.0
C390 C 0.87929 0.91348 1.00262 0.0
C391 C 0.92863 0.91451 1.00991 0.0
C392 C 0.86922 0.94925 0.98415 0.0
C393 C 0.84892 0.91792 0.02365 0.0
C394 C 0.82403 0.87954 0.02683 0.0
C395 C 0.79124 0.87666 0.04395 0.0
C396 C 0.78258 0.91438 0.05763 0.0
C397 C 0.80645 0.95443 0.05412 0.0
C398 C 0.84079 0.95593 0.03734 0.0
H399 H 0.84217 0.19033 0.07529 0.0
H400 H 0.75985 0.09754 0.03677 0.0
H401 H 0.8217 0.08332 1.0094 0.0
H402 H 0.88275 0.24114 0.02614 0.0
H403 H 0.93773 0.25283 0.03733 0.0
H404 H 0.89159 0.24736 0.05711 0.0
H405 H 0.93498 0.18775 0.07935 0.0
H406 H 0.981 0.1897 0.05926 0.0
H407 H 0.95301 0.13759 0.06474 0.0
H408 H 0.88865 0.08718 0.98295 0.0
H409 H 0.95147 0.11345 0.95851 0.0
H410 H 0.98911 0.2066 1.01296 0.0
C411 C 0.8382 0.16538 0.06176 0.0
C412 C 0.79751 0.14224 0.05921 0.0
C413 C 0.79191 0.11287 0.04009 0.0
C414 C 0.82677 0.10499 0.02429 0.0
C415 C 0.86669 0.12812 0.02729 0.0
C416 C 0.87247 0.15801 0.0455 0.0
C417 C 0.91551 0.18397 0.04266 0.0
C418 C 0.90632 0.23428 0.04068 0.0
C419 C 0.94805 0.17407 0.0627 0.0
C420 C 0.93231 0.16495 0.01978 0.0
C421 C 0.90422 0.13219 1.01135 0.0
C422 C 0.91125 0.11234 0.98957 0.0
C423 C 0.94712 0.1273 0.97582 0.0
C424 C 0.97509 0.1622 0.98375 0.0
C425 C 0.96817 0.18005 1.00634 0.0
H426 H 0.18366 0.13082 0.9514 0.0
H427 H 0.10825 0.23311 0.98683 0.0
H428 H 0.09219 0.1815 0.01909 0.0
H429 H 0.12225 0.02907 0.97548 0.0
H430 H 0.17373 -0.00088 0.97941 0.0
H431 H 0.16812 0.03825 0.95577 0.0
H432 H 0.23807 0.08062 0.97007 0.0
H433 H 0.2443 0.04188 0.99367 0.0
H434 H 0.24024 0.10067 0.99976 0.0
H435 H 0.09406 0.12464 0.05003 0.0
H436 H 0.1216 0.07069 0.07933 0.0
H437 H 0.20343 0.00775 0.02673 0.0
C438 C 0.16173 0.14118 0.9654 0.0
C439 C 0.14388 0.18463 0.96579 0.0
C440 C 0.11912 0.19884 0.98541 0.0
C441 C 0.11017 0.1698 1.0039 0.0
C442 C 0.12814 0.12708 1.00311 0.0
C443 C 0.15397 0.11289 0.9845 0.0
C444 C 0.1768 0.06908 0.99012 0.0
C445 C 0.15916 0.03165 0.97426 0.0
C446 C 0.22786 0.07336 0.98831 0.0
C447 C 0.16189 0.06235 1.01519 0.0
C448 C 0.13238 0.09528 0.02197 0.0
C449 C 0.11645 0.09821 0.04481 0.0
C450 C 0.13208 0.06756 0.06131 0.0
C451 C 0.16379 0.03503 0.05499 0.0
C452 C 0.17825 0.03181 0.03162 0.0
H453 H 0.04839 0.82509 0.98089 0.0
H454 H 0.09074 0.6875 0.97435 0.0
H455 H 0.1362 0.69538 1.00997 0.0
H456 H 0.15202 0.86873 1.00147 0.0
H457 H 0.12684 0.90741 0.02161 0.0
H458 H 0.09733 0.8909 0.99561 0.0
H459 H 0.03028 0.86498 0.02067 0.0
H460 H 0.05948 0.88169 0.04674 0.0
H461 H 0.03918 0.82543 0.04383 0.0
H462 H 0.17843 0.71872 0.04615 0.0
H463 H 0.21112 0.75526 0.08104 0.0
H464 H 0.13971 0.8766 0.0639 0.0
C465 C 0.06676 0.79646 0.98708 0.0
C466 C 0.06616 0.75576 0.97469 0.0
C467 C 0.09121 0.71926 0.98329 0.0
C468 C 0.11701 0.72332 1.00359 0.0
C469 C 0.11737 0.76406 1.01518 0.0
C470 C 0.09269 0.79992 1.00732 0.0
C471 C 0.0988 0.84004 0.02301 0.0
C472 C 0.12002 0.87906 1.00962 0.0
C473 C 0.05429 0.85382 0.03423 0.0
C474 C 0.13068 0.82104 0.0409 0.0
C475 C 0.1412 0.77726 0.03608 0.0
C476 C 0.17035 0.753 0.05017 0.0
C477 C 0.18886 0.774 0.06989 0.0
C478 C 0.17788 0.81864 0.07529 0.0
C479 C 0.14864 0.8423 0.06041 0.0
H480 H 0.55915 0.93175 0.61137 0.0
H481 H 0.57774 0.89013 0.68322 0.0
H482 H 0.49932 0.90887 0.69166 0.0
H483 H 0.49785 0.0226 0.62182 0.0
H484 H 0.45982 0.01728 0.59759 0.0
H485 H 0.51449 0.99315 0.59578 0.0
H486 H 0.48055 0.91552 0.58705 0.0
H487 H 0.42556 0.93958 0.58816 0.0
H488 H 0.43912 0.89274 0.60644 0.0
H489 H 0.42427 0.94589 0.69392 0.0
H490 H 0.35528 0.98927 0.68863 0.0
H491 H 0.38383 4e-05 0.61448 0.0
C492 C 0.54634 0.92451 0.62861 0.0
C493 C 0.57476 0.90969 0.64665 0.0
C494 C 0.55676 0.90201 0.66917 0.0
C495 C 0.51219 0.91235 0.67412 0.0
C496 C 0.4858 0.92933 0.65623 0.0
C497 C 0.50187 0.93416 0.63376 0.0
C498 C 0.46788 0.95622 0.61809 0.0
C499 C 0.48612 -0.00012 0.60773 0.0
C500 C 0.45235 0.92409 0.59879 0.0
C501 C 0.43113 0.96505 0.63552 0.0
C502 C 0.44187 0.94915 0.65739 0.0
C503 C 0.41483 0.95729 0.67671 0.0
C504 C 0.37561 0.982 0.67351 0.0
C505 C 0.36369 -0.00181 0.65111 0.0
C506 C 0.39186 0.98886 0.63193 0.0
H507 H 0.05843 0.5547 0.41898 0.0
H508 H 0.96951 0.62083 0.37046 0.0
H509 H 0.93163 0.54921 0.36249 0.0
H510 H 0.06882 0.45061 0.38673 0.0
H511 H 0.0692 0.41707 0.41278 0.0
H512 H 0.0905 0.47316 0.41364 0.0
H513 H 0.03608 0.4918 0.4474 0.0
H514 H 0.01429 0.43594 0.44648 0.0
H515 H 0.97714 0.4827 0.44342 0.0
H516 H 0.9026 0.47085 0.3605 0.0
H517 H 0.88456 0.39084 0.36452 0.0
H518 H 0.99185 0.37649 0.41479 0.0
C519 C 0.03149 0.55388 0.40639 0.0
C520 C 0.01693 0.59307 0.39523 0.0
C521 C 0.98097 0.59104 0.37922 0.0
C522 C 0.95937 0.55059 0.37456 0.0
C523 C 0.97407 0.51263 0.38615 0.0
C524 C 0.00933 0.51388 0.40169 0.0
C525 C 0.01762 0.46863 0.41239 0.0
C526 C 0.0643 0.45135 0.40599 0.0
C527 C 0.01087 0.46987 0.439 0.0
C528 C 0.98146 0.44178 0.40046 0.0
C529 C 0.95681 0.4677 0.38532 0.0
C530 C 0.92171 0.45017 0.37226 0.0
C531 C 0.91177 0.40478 0.37462 0.0
C532 C 0.93668 0.37765 0.39003 0.0
C533 C 0.97182 0.39659 0.40314 0.0
H534 H 0.56999 0.03933 0.11118 0.0
H535 H 0.6269 0.96666 0.16936 0.0
H536 H 0.55627 0.92488 0.17382 0.0
H537 H 0.4598 0.05017 0.13465 0.0
H538 H 0.43284 0.04316 0.10676 0.0
H539 H 0.48803 0.06659 0.10826 0.0
H540 H 0.51629 0.00583 0.07967 0.0
H541 H 0.46126 0.98185 0.07833 0.0
H542 H 0.50812 0.94793 0.08672 0.0
H543 H 0.47857 0.89281 0.17254 0.0
H544 H 0.39909 0.87405 0.16611 0.0
H545 H 0.39429 0.96702 0.10836 0.0
C546 C 0.56741 0.01499 0.12503 0.0
C547 C 0.60372 0.00633 0.14002 0.0
C548 C 0.59943 0.97361 0.15765 0.0
C549 C 0.55953 0.94976 0.1603 0.0
C550 C 0.52449 0.95885 0.14506 0.0
C551 C 0.52805 0.99072 0.1278 0.0
C552 C 0.48546 0.99443 0.1138 0.0
C553 C 0.46535 0.04137 0.11602 0.0
C554 C 0.49327 0.98174 0.08811 0.0
C555 C 0.45711 0.96006 0.12607 0.0
C556 C 0.48021 0.93977 0.14401 0.0
C557 C 0.46025 0.90822 0.15843 0.0
C558 C 0.41521 0.89779 0.15468 0.0
C559 C 0.39087 0.91874 0.13659 0.0
C560 C 0.41241 0.94972 0.12194 0.0
H561 H 0.04472 0.40412 0.91049 0.0
H562 H 0.96174 0.34667 0.85616 0.0
H563 H 0.92238 0.41873 0.85189 0.0
H564 H 0.95992 0.46888 0.93727 0.0
H565 H -0.00366 0.51495 0.94399 0.0
H566 H 0.01854 0.45938 0.94212 0.0
H567 H 0.07573 0.48527 0.91102 0.0
H568 H 0.05406 0.54102 0.91301 0.0
H569 H 0.05621 0.51317 0.88513 0.0
H570 H 0.89269 0.49825 0.85372 0.0
H571 H 0.87538 0.57765 0.86169 0.0
H572 H 0.97794 0.58021 0.9151 0.0
C573 C 0.01878 0.40687 0.89741 0.0
C574 C 0.0065 0.37011 0.88348 0.0
C575 C 0.97158 0.37461 0.86699 0.0
C576 C 0.94913 0.41532 0.86444 0.0
C577 C 0.9619 0.45089 0.87864 0.0
C578 C -0.00405 0.44692 0.89479 0.0
C579 C 0.00296 0.48957 0.90828 0.0
C580 C 0.99388 0.48276 0.93446 0.0
C581 C 0.05002 0.50837 0.9041 0.0
C582 C 0.96768 0.51835 0.89717 0.0
C583 C 0.94428 0.4957 0.88008 0.0
C584 C 0.91068 0.51623 0.86715 0.0
C585 C 0.90109 0.5612 0.87175 0.0
C586 C 0.92483 0.58474 0.88924 0.0
C587 C 0.95838 0.56278 0.90205 0.0
H588 H 0.03932 0.0992 0.61217 0.0
H589 H 0.0799 0.0508 0.68015 0.0
H590 H 0.00085 0.05042 0.69278 0.0
H591 H 0.93861 0.16544 0.63169 0.0
H592 H 0.90811 0.14829 0.60607 0.0
H593 H 0.96769 0.15597 0.60461 0.0
H594 H 0.97733 0.07527 0.58901 0.0
H595 H 0.91813 0.06825 0.58983 0.0
H596 H 0.95353 0.02973 0.60526 0.0
H597 H 0.91804 0.04433 0.69569 0.0
H598 H 0.84259 0.01752 0.68611 0.0
H599 H 0.85717 0.06653 0.61566 0.0
C600 C 0.03171 0.08959 0.62994 0.0
C601 C 0.06541 0.07519 0.64526 0.0
C602 C 0.05429 0.06187 0.66817 0.0
C603 C 0.00965 0.06232 0.67557 0.0
C604 C 0.97695 0.07644 0.65986 0.0
C605 C 0.98763 0.08941 0.6374 0.0
C606 C 0.94672 0.09501 0.62236 0.0
C607 C 0.93989 0.14411 0.61581 0.0
C608 C 0.94907 0.06526 0.60037 0.0
C609 C 0.91138 0.07958 0.63926 0.0
C610 C 0.92902 0.0713 0.66119 0.0
C611 C 0.90374 0.05142 0.67876 0.0
C612 C 0.8608 0.03627 0.67318 0.0
C613 C 0.84483 0.03974 0.65007 0.0
C614 C 0.86883 0.06448 0.63353 0.0
H615 H 0.99473 0.87336 0.3991 0.0
H616 H 0.12922 0.91716 0.41506 0.0
H617 H 0.11443 0.98866 0.39522 0.0
H618 H 0.98374 0.92997 0.34204 0.0
H619 H 0.92628 0.94424 0.34738 0.0
H620 H 0.94939 0.89409 0.35968 0.0
H621 H 0.92647 0.91938 0.40141 0.0
H622 H 0.90186 0.96832 0.38902 0.0
H623 H 0.9434 0.97365 0.41163 0.0
H624 H 0.0833 0.05691 0.37658 0.0
H625 H 0.03406 0.12131 0.3698 0.0
H626 H 0.9199 0.03335 0.36673 0.0
C627 C 0.02114 0.89793 0.39829 0.0
C628 C 0.06304 0.88992 0.40851 0.0
C629 C 0.0967 0.92291 0.40741 0.0
C630 C 0.08889 0.96321 0.39581 0.0
C631 C 0.04738 0.96972 0.38539 0.0
C632 C 0.01382 0.93827 0.38696 0.0
C633 C 0.97036 0.95546 0.37726 0.0
C634 C 0.95665 0.92938 0.35528 0.0
C635 C 0.93339 0.95417 0.39594 0.0
C636 C 0.98394 0.00252 0.37123 0.0
C637 C 0.02899 0.00956 0.37506 0.0
C638 C 0.04822 0.05168 0.37308 0.0
C639 C 0.0201 0.08806 0.36892 0.0
C640 C 0.97349 0.08176 0.36757 0.0
C641 C 0.95566 0.03845 0.36713 0.0
H642 H 0.06098 0.95332 0.16564 0.0
H643 H 0.14236 0.05947 0.13788 0.0
H644 H 0.07604 0.10796 0.13541 0.0
H645 H 0.98155 0.96039 0.12916 0.0
H646 H 0.93414 0.94986 0.14766 0.0
H647 H 0.98796 0.9294 0.15589 0.0
H648 H 0.98424 0.97098 0.19545 0.0
H649 H 0.92919 0.99033 0.1879 0.0
H650 H 0.97188 0.0297 0.19606 0.0
H651 H 0.00047 0.13462 0.12469 0.0
H652 H 0.92198 0.14201 0.11212 0.0
H653 H 0.88974 0.01786 0.14659 0.0
C654 C 0.065 0.98787 0.16066 0.0
C655 C 0.10626 0.00341 0.15244 0.0
C656 C 0.11094 0.04787 0.14495 0.0
C657 C 0.07337 0.07539 0.14333 0.0
C658 C 0.03203 0.05787 0.14974 0.0
C659 C 0.02786 0.01552 0.15904 0.0
C660 C 0.97954 0.00154 0.16091 0.0
C661 C 0.97032 0.95776 0.1476 0.0
C662 C 0.96537 -0.00205 0.18661 0.0
C663 C 0.95747 0.04069 0.14922 0.0
C664 C 0.98804 0.07332 0.14337 0.0
C665 C 0.97606 0.10998 0.12986 0.0
C666 C 0.93169 0.11352 0.12243 0.0
C667 C 0.90018 0.08033 0.12826 0.0
C668 C 0.91318 0.04391 0.14208 0.0
H669 H 0.06109 0.862 0.91388 0.0
H670 H 0.00162 0.86477 0.84516 0.0
H671 H 0.03222 0.94002 0.83888 0.0
H672 H 0.02958 0.95559 0.93085 0.0
H673 H 0.0773 0.97552 0.94693 0.0
H674 H 0.06915 0.9169 0.94308 0.0
H675 H 0.14645 0.90811 0.92385 0.0
H676 H 0.15636 0.96665 0.92867 0.0
H677 H 0.16191 0.94344 0.89978 0.0
H678 H 0.04316 0.01988 0.84591 0.0
H679 H 0.04794 0.09567 0.86227 0.0
H680 H 0.10215 0.04268 0.92659 0.0
C681 C 0.05761 0.87736 0.89687 0.0
C682 C 0.0294 0.85814 0.87995 0.0
C683 C 0.02368 0.879 0.85816 0.0
C684 C 0.04081 0.92188 0.85455 0.0
C685 C 0.06433 0.94234 0.87272 0.0
C686 C 0.07443 0.92006 0.89318 0.0
C687 C 0.09282 0.95149 0.9116 0.0
C688 C 0.06554 0.94975 0.93442 0.0
C689 C 0.14234 0.94186 0.91623 0.0
C690 C 0.08698 -0.00456 0.89924 0.0
C691 C 0.07143 0.98938 0.87668 0.0
C692 C 0.05701 0.02503 0.86315 0.0
C693 C 0.05907 0.06784 0.87275 0.0
C694 C 0.07543 0.07464 0.89565 0.0
C695 C 0.09023 0.03814 0.90889 0.0
H696 H 0.21615 0.13352 0.71513 0.0
H697 H 0.13036 0.24289 0.69466 0.0
H698 H 0.11458 0.25881 0.7361 0.0
H699 H 0.14919 0.09534 0.76269 0.0
H700 H 0.19592 0.08144 0.78107 0.0
H701 H 0.20164 0.07945 0.7498 0.0
H702 H 0.26878 0.13362 0.75216 0.0
H703 H 0.26335 0.1357 0.78345 0.0
H704 H 0.26232 0.18647 0.76675 0.0
H705 H 0.1051 0.26056 0.77983 0.0
H706 H 0.10625 0.25069 0.82265 0.0
H707 H 0.19882 0.14087 0.81487 0.0
C708 C 0.1941 0.16086 0.71936 0.0
C709 C 0.17463 0.18702 0.70153 0.0
C710 C 0.14624 0.22276 0.70789 0.0
C711 C 0.1368 0.23188 0.73142 0.0
C712 C 0.1562 0.20517 0.7485 0.0
C713 C 0.18454 0.17061 0.74278 0.0
C714 C 0.20096 0.1469 0.7645 0.0
C715 C 0.18602 0.09788 0.76451 0.0
C716 C 0.25188 0.15093 0.76685 0.0
C717 C 0.17723 0.17338 0.78332 0.0
C718 C 0.15138 0.20669 0.7737 0.0
C719 C 0.12542 0.23473 0.78754 0.0
C720 C 0.12606 0.22871 0.81184 0.0
C721 C 0.15271 0.19513 0.82214 0.0
C722 C 0.17863 0.16723 0.80757 0.0
H723 H 0.18184 0.78674 0.21791 0.0
H724 H 0.11337 0.91329 0.21387 0.0
H725 H 0.09775 0.91009 0.25634 0.0
H726 H 0.11183 0.73514 0.26179 0.0
H727 H 0.15775 0.70855 0.2765 0.0
H728 H 0.16103 0.71964 0.24566 0.0
H729 H 0.23443 0.76362 0.25207 0.0
H730 H 0.23144 0.75255 0.2829 0.0
H731 H 0.23544 0.80911 0.27266 0.0
H732 H 0.08854 0.8919 0.29929 0.0
H733 H 0.09375 0.86447 0.33999 0.0
H734 H 0.17309 0.75272 0.31639 0.0
C735 C 0.16326 0.81348 0.22604 0.0
C736 C 0.14846 0.85011 0.21275 0.0
C737 C 0.12499 0.88506 0.22389 0.0
C738 C 0.1158 0.88335 0.24791 0.0
C739 C 0.13091 0.84675 0.26058 0.0
C740 C 0.15469 0.81274 0.25008 0.0
C741 C 0.16958 0.77855 0.26786 0.0
C742 C 0.14879 0.73276 0.26264 0.0
C743 C 0.22076 0.77582 0.26893 0.0
C744 C 0.15053 0.79859 0.28999 0.0
C745 C 0.12767 0.83753 0.2854 0.0
C746 C 0.10652 0.86155 0.30309 0.0
C747 C 0.10941 0.84567 0.32609 0.0
C748 C 0.13392 0.80666 0.33123 0.0
C749 C 0.15447 0.78283 0.31289 0.0
H750 H 0.81645 0.79265 0.81691 0.0
H751 H 0.90011 0.90541 0.83498 0.0
H752 H 0.89689 0.93137 0.79405 0.0
H753 H 0.86584 0.77182 0.76126 0.0
H754 H 0.81432 0.75613 0.74724 0.0
H755 H 0.82133 0.74756 0.77813 0.0
H756 H 0.75016 0.79376 0.78637 0.0
H757 H 0.74274 0.80221 0.75549 0.0
H758 H 0.74577 0.84944 0.7749 0.0
H759 H 0.88458 0.9449 0.75111 0.0
H760 H 0.86563 0.94417 0.70913 0.0
H761 H 0.79171 0.82138 0.71861 0.0
C762 C 0.83344 0.82321 0.81234 0.0
C763 C 0.8582 0.84733 0.82921 0.0
C764 C 0.88098 0.8865 0.82235 0.0
C765 C 0.87925 0.9015 0.79917 0.0
C766 C 0.8549 0.87674 0.78294 0.0
C767 C 0.83249 0.83836 0.7892 0.0
C768 C 0.81003 0.81707 0.7682 0.0
C769 C 0.82903 0.77038 0.76343 0.0
C770 C 0.75916 0.81555 0.77144 0.0
C771 C 0.82318 0.84953 0.74916 0.0
C772 C 0.84885 0.88384 0.75808 0.0
C773 C 0.86449 0.91819 0.74396 0.0
C774 C 0.85342 0.9176 0.72015 0.0
C775 C 0.82723 0.88275 0.71057 0.0
C776 C 0.81222 0.84816 0.72534 0.0
H777 H 0.86012 0.13233 0.30675 0.0
H778 H 0.74126 0.20332 0.32814 0.0
H779 H 0.71804 0.20986 0.28683 0.0
H780 H 0.88175 0.19326 0.25438 0.0
H781 H 0.89926 0.14542 0.23771 0.0
H782 H 0.90646 0.14616 0.26892 0.0
H783 H 0.86175 0.07263 0.27223 0.0
H784 H 0.85446 0.07164 0.24101 0.0
H785 H 0.8065 0.06935 0.25991 0.0
H786 H 0.71064 0.21345 0.24313 0.0
H787 H 0.71583 0.20755 0.20006 0.0
H788 H 0.83605 0.12902 0.20675 0.0
C789 C 0.82923 0.1492 0.30266 0.0
C790 C 0.80248 0.16754 0.3206 0.0
C791 C 0.76199 0.18886 0.31466 0.0
C792 C 0.74869 0.19287 0.29126 0.0
C793 C 0.77588 0.17467 0.27397 0.0
C794 C 0.81498 0.15266 0.27937 0.0
C795 C 0.83757 0.13531 0.25744 0.0
C796 C 0.88401 0.1563 0.25444 0.0
C797 C 0.84021 0.08419 0.25767 0.0
C798 C 0.80541 0.1516 0.23886 0.0
C799 C 0.7703 0.17463 0.2488 0.0
C800 C 0.73763 0.19497 0.23518 0.0
C801 C 0.74085 0.19162 0.2108 0.0
C802 C 0.77598 0.1675 0.20026 0.0
C803 C 0.80848 0.14698 0.2145 0.0
loop_
_geom_bond_atom_site_label_1
_geom_bond_atom_site_label_2
_geom_bond_distance
_geom_bond_site_symmetry_2
_ccdc_geom_bond_type
Co0 N4 2.148 . S
Co0 N10 2.128 . S
Co0 N20 2.194 . S
Co0 O25 2.351 . S
Co0 O26 2.155 . S
Co0 O27 2.096 . S
C1 N4 1.301 . S
C1 N5 1.328 . S
C1 H6 0.930 . S
C2 C3 1.333 . S
C2 N4 1.317 . S
C2 H7 0.930 . S
C3 C2 1.333 . S
C3 N5 1.350 . S
C3 H29 0.931 . S
N4 Co0 2.148 . S
N4 C1 1.301 . S
N4 C2 1.317 . S
N5 C1 1.328 . S
N5 C3 1.350 . S
H6 C1 0.930 . S
H7 C2 0.930 . S
C8 O9 1.224 . S
C8 O27 1.247 . S
O9 C8 1.224 . S
N10 Co0 2.128 . S
N10 C11 1.355 1_545 S
N10 C13 1.311 . S
C11 N10 1.355 1_565 S
C11 C12 1.363 . S
C11 H23 0.929 . S
C12 C11 1.363 . S
C12 N14 1.375 . S
C12 H30 0.931 . S
C13 N10 1.311 . S
C13 N14 1.347 1_545 S
C13 H24 0.929 . S
N14 C12 1.375 . S
N14 C13 1.347 1_565 S
C15 C18 1.365 . S
C15 N20 1.328 . S
C15 H21 0.929 . S
C16 C17 1.362 . S
C16 C19 1.378 . S
C16 H31 0.929 . S
C17 C16 1.362 . S
C17 C18 1.366 . S
C18 C15 1.365 . S
C18 C17 1.366 . S
C18 H32 0.930 1_545 S
C19 C16 1.378 . S
C19 N20 1.315 . S
C19 H22 0.930 . S
N20 Co0 2.194 . S
N20 C15 1.328 . S
N20 C19 1.315 . S
H21 C15 0.929 . S
H22 C19 0.930 . S
H23 C11 0.929 . S
H24 C13 0.929 . S
O25 Co0 2.351 . S
O25 C28 1.244 . S
O26 Co0 2.155 . S
O26 C28 1.240 . S
O27 Co0 2.096 . S
O27 C8 1.247 . S
C28 O25 1.244 . S
C28 O26 1.240 . S
H29 C3 0.931 . S
H30 C12 0.931 . S
H31 C16 0.929 . S
H32 C18 0.930 1_565 S
Co33 N37 2.148 . S
Co33 N43 2.128 . S
Co33 N53 2.194 . S
Co33 O58 2.351 . S
Co33 O59 2.155 . S
Co33 O60 2.096 . S
C34 N37 1.301 . S
C34 N38 1.328 . S
C34 H39 0.930 . S
C35 C36 1.333 . S
C35 N37 1.317 . S
C35 H40 0.930 . S
C36 C35 1.333 . S
C36 N38 1.350 . S
C36 H62 0.931 . S
N37 Co33 2.148 . S
N37 C34 1.301 . S
N37 C35 1.317 . S
N38 C34 1.328 . S
N38 C36 1.350 . S
H39 C34 0.930 . S
H40 C35 0.930 . S
C41 O42 1.224 . S
C41 O60 1.247 . S
O42 C41 1.224 . S
N43 Co33 2.128 . S
N43 C44 1.355 1_455 S
N43 C46 1.311 . S
C44 N43 1.355 1_655 S
C44 C45 1.363 . S
C44 H56 0.929 . S
C45 C44 1.363 . S
C45 N47 1.375 . S
C45 H63 0.931 . S
C46 N43 1.311 . S
C46 N47 1.347 1_455 S
C46 H57 0.929 . S
N47 C45 1.375 . S
N47 C46 1.347 1_655 S
C48 C51 1.365 . S
C48 N53 1.328 . S
C48 H54 0.929 . S
C49 C50 1.362 . S
C49 C52 1.378 . S
C49 H64 0.929 . S
C50 C49 1.362 . S
C50 C51 1.366 . S
C51 C48 1.365 . S
C51 C50 1.366 . S
C51 H65 0.930 1_455 S
C52 C49 1.378 . S
C52 N53 1.315 . S
C52 H55 0.930 . S
N53 Co33 2.194 . S
N53 C48 1.328 . S
N53 C52 1.315 . S
H54 C48 0.929 . S
H55 C52 0.930 . S
H56 C44 0.929 . S
H57 C46 0.929 . S
O58 Co33 2.351 . S
O58 C61 1.244 . S
O59 Co33 2.155 . S
O59 C61 1.240 . S
O60 Co33 2.096 . S
O60 C41 1.247 . S
C61 O58 1.244 . S
C61 O59 1.240 . S
H62 C36 0.931 . S
H63 C45 0.931 . S
H64 C49 0.929 . S
H65 C51 0.930 1_655 S
Co66 N70 2.148 . S
Co66 N76 2.128 . S
Co66 N86 2.194 . S
Co66 O91 2.351 . S
Co66 O92 2.155 . S
Co66 O93 2.096 . S
C67 N70 1.301 . S
C67 N71 1.328 . S
C67 H72 0.930 . S
C68 C69 1.333 . S
C68 N70 1.317 . S
C68 H73 0.930 . S
C69 C68 1.333 . S
C69 N71 1.350 . S
C69 H95 0.931 . S
N70 Co66 2.148 . S
N70 C67 1.301 . S
N70 C68 1.317 . S
N71 C67 1.328 . S
N71 C69 1.350 . S
H72 C67 0.930 . S
H73 C68 0.930 . S
C74 O75 1.224 . S
C74 O93 1.247 . S
O75 C74 1.224 . S
N76 Co66 2.128 . S
N76 C77 1.355 1_565 S
N76 C79 1.311 . S
C77 N76 1.355 1_545 S
C77 C78 1.363 . S
C77 H89 0.929 . S
C78 C77 1.363 . S
C78 N80 1.375 . S
C78 H96 0.931 . S
C79 N76 1.311 . S
C79 N80 1.347 1_565 S
C79 H90 0.929 . S
N80 C78 1.375 . S
N80 C79 1.347 1_545 S
C81 C84 1.365 . S
C81 N86 1.328 . S
C81 H87 0.929 . S
C82 C83 1.362 . S
C82 C85 1.378 . S
C82 H97 0.929 . S
C83 C82 1.362 . S
C83 C84 1.366 . S
C84 C81 1.365 . S
C84 C83 1.366 . S
C84 H98 0.930 1_565 S
C85 C82 1.378 . S
C85 N86 1.315 . S
C85 H88 0.930 . S
N86 Co66 2.194 . S
N86 C81 1.328 . S
N86 C85 1.315 . S
H87 C81 0.929 . S
H88 C85 0.930 . S
H89 C77 0.929 . S
H90 C79 0.929 . S
O91 Co66 2.351 . S
O91 C94 1.244 . S
O92 Co66 2.155 . S
O92 C94 1.240 . S
O93 Co66 2.096 . S
O93 C74 1.247 . S
C94 O91 1.244 . S
C94 O92 1.240 . S
H95 C69 0.931 . S
H96 C78 0.931 . S
H97 C82 0.929 . S
H98 C84 0.930 1_545 S
Co99 N103 2.148 . S
Co99 N109 2.128 . S
Co99 N119 2.194 . S
Co99 O124 2.351 . S
Co99 O125 2.155 . S
Co99 O126 2.096 . S
C100 N103 1.301 . S
C100 N104 1.328 . S
C100 H105 0.930 . S
C101 C102 1.333 . S
C101 N103 1.317 . S
C101 H106 0.930 . S
C102 C101 1.333 . S
C102 N104 1.350 . S
C102 H128 0.931 . S
N103 Co99 2.148 . S
N103 C100 1.301 . S
N103 C101 1.317 . S
N104 C100 1.328 . S
N104 C102 1.350 . S
H105 C100 0.930 . S
H106 C101 0.930 . S
C107 O108 1.224 . S
C107 O126 1.247 . S
O108 C107 1.224 . S
N109 Co99 2.128 . S
N109 C110 1.355 1_655 S
N109 C112 1.311 . S
C110 N109 1.355 1_455 S
C110 C111 1.363 . S
C110 H122 0.929 . S
C111 C110 1.363 . S
C111 N113 1.375 . S
C111 H129 0.931 . S
C112 N109 1.311 . S
C112 N113 1.347 1_655 S
C112 H123 0.929 . S
N113 C111 1.375 . S
N113 C112 1.347 1_455 S
C114 C117 1.365 . S
C114 N119 1.328 . S
C114 H120 0.929 . S
C115 C116 1.362 . S
C115 C118 1.378 . S
C115 H130 0.929 . S
C116 C115 1.362 . S
C116 C117 1.366 . S
C117 C114 1.365 . S
C117 C116 1.366 . S
C117 H131 0.930 1_655 S
C118 C115 1.378 . S
C118 N119 1.315 . S
C118 H121 0.930 . S
N119 Co99 2.194 . S
N119 C114 1.328 . S
N119 C118 1.315 . S
H120 C114 0.929 . S
H121 C118 0.930 . S
H122 C110 0.929 . S
H123 C112 0.929 . S
O124 Co99 2.351 . S
O124 C127 1.244 . S
O125 Co99 2.155 . S
O125 C127 1.240 . S
O126 Co99 2.096 . S
O126 C107 1.247 . S
C127 O124 1.244 . S
C127 O125 1.240 . S
H128 C102 0.931 . S
H129 C111 0.931 . S
H130 C115 0.929 . S
H131 C117 0.930 1_455 S
Co132 N136 2.148 . S
Co132 N142 2.128 . S
Co132 N152 2.194 . S
Co132 O157 2.351 . S
Co132 O158 2.155 . S
Co132 O159 2.096 . S
C133 N136 1.301 . S
C133 N137 1.328 . S
C133 H138 0.930 . S
C134 C135 1.333 . S
C134 N136 1.317 . S
C134 H139 0.930 . S
C135 C134 1.333 . S
C135 N137 1.350 . S
C135 H161 0.931 . S
N136 Co132 2.148 . S
N136 C133 1.301 . S
N136 C134 1.317 . S
N137 C133 1.328 . S
N137 C135 1.350 . S
H138 C133 0.930 . S
H139 C134 0.930 . S
C140 O141 1.224 . S
C140 O159 1.247 . S
O141 C140 1.224 . S
N142 Co132 2.128 . S
N142 C143 1.355 1_545 S
N142 C145 1.311 . S
C143 N142 1.355 1_565 S
C143 C144 1.363 . S
C143 H155 0.929 . S
C144 C143 1.363 . S
C144 N146 1.375 . S
C144 H162 0.931 . S
C145 N142 1.311 . S
C145 N146 1.347 1_545 S
C145 H156 0.929 . S
N146 C144 1.375 . S
N146 C145 1.347 1_565 S
C147 C150 1.365 . S
C147 N152 1.328 . S
C147 H153 0.929 . S
C148 C149 1.362 . S
C148 C151 1.378 . S
C148 H163 0.929 . S
C149 C148 1.362 . S
C149 C150 1.366 . S
C150 C147 1.365 . S
C150 C149 1.366 . S
C150 H164 0.930 1_545 S
C151 C148 1.378 . S
C151 N152 1.315 . S
C151 H154 0.930 . S
N152 Co132 2.194 . S
N152 C147 1.328 . S
N152 C151 1.315 . S
H153 C147 0.929 . S
H154 C151 0.930 . S
H155 C143 0.929 . S
H156 C145 0.929 . S
O157 Co132 2.351 . S
O157 C160 1.244 . S
O158 Co132 2.155 . S
O158 C160 1.240 . S
O159 Co132 2.096 . S
O159 C140 1.247 . S
C160 O157 1.244 . S
C160 O158 1.240 . S
H161 C135 0.931 . S
H162 C144 0.931 . S
H163 C148 0.929 . S
H164 C150 0.930 1_565 S
Co165 N169 2.148 . S
Co165 N175 2.128 . S
Co165 N185 2.194 . S
Co165 O190 2.351 . S
Co165 O191 2.155 . S
Co165 O192 2.096 . S
C166 N169 1.301 . S
C166 N170 1.328 . S
C166 H171 0.930 . S
C167 C168 1.333 . S
C167 N169 1.317 . S
C167 H172 0.930 . S
C168 C167 1.333 . S
C168 N170 1.350 . S
C168 H194 0.931 . S
N169 Co165 2.148 . S
N169 C166 1.301 . S
N169 C167 1.317 . S
N170 C166 1.328 . S
N170 C168 1.350 . S
H171 C166 0.930 . S
H172 C167 0.930 . S
C173 O174 1.224 . S
C173 O192 1.247 . S
O174 C173 1.224 . S
N175 Co165 2.128 . S
N175 C176 1.355 1_455 S
N175 C178 1.311 . S
C176 N175 1.355 1_655 S
C176 C177 1.363 . S
C176 H188 0.929 . S
C177 C176 1.363 . S
C177 N179 1.375 . S
C177 H195 0.931 . S
C178 N175 1.311 . S
C178 N179 1.347 1_455 S
C178 H189 0.929 . S
N179 C177 1.375 . S
N179 C178 1.347 1_655 S
C180 C183 1.365 . S
C180 N185 1.328 . S
C180 H186 0.929 . S
C181 C182 1.362 . S
C181 C184 1.378 . S
C181 H196 0.929 . S
C182 C181 1.362 . S
C182 C183 1.366 . S
C183 C180 1.365 . S
C183 C182 1.366 . S
C183 H197 0.930 1_455 S
C184 C181 1.378 . S
C184 N185 1.315 . S
C184 H187 0.930 . S
N185 Co165 2.194 . S
N185 C180 1.328 . S
N185 C184 1.315 . S
H186 C180 0.929 . S
H187 C184 0.930 . S
H188 C176 0.929 . S
H189 C178 0.929 . S
O190 Co165 2.351 . S
O190 C193 1.244 . S
O191 Co165 2.155 . S
O191 C193 1.240 . S
O192 Co165 2.096 . S
O192 C173 1.247 . S
C193 O190 1.244 . S
C193 O191 1.240 . S
H194 C168 0.931 . S
H195 C177 0.931 . S
H196 C181 0.929 . S
H197 C183 0.930 1_655 S
Co198 N202 2.148 . S
Co198 N208 2.128 . S
Co198 N218 2.194 . S
Co198 O223 2.351 . S
Co198 O224 2.155 . S
Co198 O225 2.096 . S
C199 N202 1.301 . S
C199 N203 1.328 . S
C199 H204 0.930 . S
C200 C201 1.333 . S
C200 N202 1.317 . S
C200 H205 0.930 . S
C201 C200 1.333 . S
C201 N203 1.350 . S
C201 H227 0.931 . S
N202 Co198 2.148 . S
N202 C199 1.301 . S
N202 C200 1.317 . S
N203 C199 1.328 . S
N203 C201 1.350 . S
H204 C199 0.930 . S
H205 C200 0.930 . S
C206 O207 1.224 . S
C206 O225 1.247 . S
O207 C206 1.224 . S
N208 Co198 2.128 . S
N208 C209 1.355 1_565 S
N208 C211 1.311 . S
C209 N208 1.355 1_545 S
C209 C210 1.363 . S
C209 H221 0.929 . S
C210 C209 1.363 . S
C210 N212 1.375 . S
C210 H228 0.931 . S
C211 N208 1.311 . S
C211 N212 1.347 1_565 S
C211 H222 0.929 . S
N212 C210 1.375 . S
N212 C211 1.347 1_545 S
C213 C216 1.365 . S
C213 N218 1.328 . S
C213 H219 0.929 . S
C214 C215 1.362 . S
C214 C217 1.378 . S
C214 H229 0.929 . S
C215 C214 1.362 . S
C215 C216 1.366 . S
C216 C213 1.365 . S
C216 C215 1.366 . S
C216 H230 0.930 1_565 S
C217 C214 1.378 . S
C217 N218 1.315 . S
C217 H220 0.930 . S
N218 Co198 2.194 . S
N218 C213 1.328 . S
N218 C217 1.315 . S
H219 C213 0.929 . S
H220 C217 0.930 . S
H221 C209 0.929 . S
H222 C211 0.929 . S
O223 Co198 2.351 . S
O223 C226 1.244 . S
O224 Co198 2.155 . S
O224 C226 1.240 . S
O225 Co198 2.096 . S
O225 C206 1.247 . S
C226 O223 1.244 . S
C226 O224 1.240 . S
H227 C201 0.931 . S
H228 C210 0.931 . S
H229 C214 0.929 . S
H230 C216 0.930 1_545 S
Co231 N235 2.148 . S
Co231 N241 2.128 . S
Co231 N251 2.194 . S
Co231 O256 2.351 . S
Co231 O257 2.155 . S
Co231 O258 2.096 . S
C232 N235 1.301 . S
C232 N236 1.328 . S
C232 H237 0.930 . S
C233 C234 1.333 . S
C233 N235 1.317 . S
C233 H238 0.930 . S
C234 C233 1.333 . S
C234 N236 1.350 . S
C234 H260 0.931 . S
N235 Co231 2.148 . S
N235 C232 1.301 . S
N235 C233 1.317 . S
N236 C232 1.328 . S
N236 C234 1.350 . S
H237 C232 0.930 . S
H238 C233 0.930 . S
C239 O240 1.224 . S
C239 O258 1.247 . S
O240 C239 1.224 . S
N241 Co231 2.128 . S
N241 C242 1.355 1_655 S
N241 C244 1.311 . S
C242 N241 1.355 1_455 S
C242 C243 1.363 . S
C242 H254 0.929 . S
C243 C242 1.363 . S
C243 N245 1.375 . S
C243 H261 0.931 . S
C244 N241 1.311 . S
C244 N245 1.347 1_655 S
C244 H255 0.929 . S
N245 C243 1.375 . S
N245 C244 1.347 1_455 S
C246 C249 1.365 . S
C246 N251 1.328 . S
C246 H252 0.929 . S
C247 C248 1.362 . S
C247 C250 1.378 . S
C247 H262 0.929 . S
C248 C247 1.362 . S
C248 C249 1.366 . S
C249 C246 1.365 . S
C249 C248 1.366 . S
C249 H263 0.930 1_655 S
C250 C247 1.378 . S
C250 N251 1.315 . S
C250 H253 0.930 . S
N251 Co231 2.194 . S
N251 C246 1.328 . S
N251 C250 1.315 . S
H252 C246 0.929 . S
H253 C250 0.930 . S
H254 C242 0.929 . S
H255 C244 0.929 . S
O256 Co231 2.351 . S
O256 C259 1.244 . S
O257 Co231 2.155 . S
O257 C259 1.240 . S
O258 Co231 2.096 . S
O258 C239 1.247 . S
C259 O256 1.244 . S
C259 O257 1.240 . S
H260 C234 0.931 . S
H261 C243 0.931 . S
H262 C247 0.929 . S
H263 C249 0.930 1_455 S
H264 C276 0.930 . S
H265 C278 0.930 . S
H266 C279 0.930 1_545 S
H267 C283 0.959 . S
H268 C283 0.959 . S
H269 C283 0.961 . S
H270 C284 0.960 . S
H271 C284 0.961 . S
H272 C284 0.959 . S
H273 C287 0.929 . S
H274 C288 0.931 . S
H275 C290 0.930 . S
C276 H264 0.930 . S
C276 C277 1.399 . S
C276 C281 1.399 . S
C277 C276 1.399 . S
C277 C278 1.376 1_565 S
C278 H265 0.930 . S
C278 C277 1.376 1_545 S
C278 C279 1.388 1_545 S
C279 H266 0.930 1_565 S
C279 C278 1.388 1_565 S
C279 C280 1.390 . S
C280 C279 1.390 . S
C280 C281 1.394 . S
C280 C286 1.465 . S
C281 C276 1.399 . S
C281 C280 1.394 . S
C281 C282 1.516 . S
C282 C281 1.516 . S
C282 C283 1.502 . S
C282 C284 1.561 . S
C282 C285 1.526 . S
C283 H267 0.959 . S
C283 H268 0.959 . S
C283 H269 0.961 . S
C283 C282 1.502 . S
C284 H270 0.960 . S
C284 H271 0.961 . S
C284 H272 0.959 . S
C284 C282 1.561 . S
C285 C282 1.526 . S
C285 C286 1.396 . S
C285 C290 1.390 . S
C286 C280 1.465 . S
C286 C285 1.396 . S
C286 C287 1.399 . S
C287 H273 0.929 . S
C287 C286 1.399 . S
C287 C288 1.385 . S
C288 H274 0.931 . S
C288 C287 1.385 . S
C288 C289 1.389 . S
C289 C288 1.389 . S
C289 C290 1.387 . S
C290 H275 0.930 . S
C290 C285 1.390 . S
C290 C289 1.387 . S
H291 C303 0.930 . S
H292 C305 0.930 . S
H293 C306 0.930 . S
H294 C310 0.959 . S
H295 C310 0.959 . S
H296 C310 0.961 . S
H297 C311 0.960 . S
H298 C311 0.961 . S
H299 C311 0.959 . S
H300 C314 0.929 . S
H301 C315 0.931 1_455 S
H302 C317 0.930 . S
C303 H291 0.930 . S
C303 C304 1.399 . S
C303 C308 1.399 . S
C304 C303 1.399 . S
C304 C305 1.376 . S
C305 H292 0.930 . S
C305 C304 1.376 . S
C305 C306 1.388 . S
C306 H293 0.930 . S
C306 C305 1.388 . S
C306 C307 1.390 . S
C307 C306 1.390 . S
C307 C308 1.394 . S
C307 C313 1.465 . S
C308 C303 1.399 . S
C308 C307 1.394 . S
C308 C309 1.516 . S
C309 C308 1.516 . S
C309 C310 1.502 . S
C309 C311 1.561 . S
C309 C312 1.526 . S
C310 H294 0.959 . S
C310 H295 0.959 . S
C310 H296 0.961 . S
C310 C309 1.502 . S
C311 H297 0.960 . S
C311 H298 0.961 . S
C311 H299 0.959 . S
C311 C309 1.561 . S
C312 C309 1.526 . S
C312 C313 1.396 . S
C312 C317 1.390 . S
C313 C307 1.465 . S
C313 C312 1.396 . S
C313 C314 1.399 . S
C314 H300 0.929 . S
C314 C313 1.399 . S
C314 C315 1.385 . S
C315 H301 0.931 1_655 S
C315 C314 1.385 . S
C315 C316 1.389 . S
C316 C315 1.389 . S
C316 C317 1.387 . S
C317 H302 0.930 . S
C317 C312 1.390 . S
C317 C316 1.387 . S
H318 C330 0.930 1_565 S
H319 C332 0.930 . S
H320 C333 0.930 . S
H321 C337 0.959 . S
H322 C337 0.959 . S
H323 C337 0.961 . S
H324 C338 0.982 . S
H325 C338 0.961 . S
H326 C338 0.959 . S
H327 C341 0.929 . S
H328 C342 0.931 . S
H329 C344 0.930 . S
C330 H318 0.930 1_545 S
C330 C331 1.399 . S
C330 C335 1.399 . S
C331 C330 1.399 . S
C331 C332 1.376 . S
C332 H319 0.930 . S
C332 C331 1.376 . S
C332 C333 1.388 . S
C333 H320 0.930 . S
C333 C332 1.388 . S
C333 C334 1.390 . S
C334 C333 1.390 . S
C334 C335 1.394 . S
C334 C340 1.465 . S
C335 C330 1.399 . S
C335 C334 1.394 . S
C335 C336 1.516 . S
C336 C335 1.516 . S
C336 C337 1.502 . S
C336 C338 1.561 . S
C336 C339 1.526 . S
C337 H321 0.959 . S
C337 H322 0.959 . S
C337 H323 0.961 . S
C337 C336 1.502 . S
C338 H324 0.982 . S
C338 H325 0.961 . S
C338 H326 0.959 . S
C338 C336 1.561 . S
C339 C336 1.526 . S
C339 C340 1.396 . S
C339 C344 1.390 . S
C340 C334 1.465 . S
C340 C339 1.396 . S
C340 C341 1.399 . S
C341 H327 0.929 . S
C341 C340 1.399 . S
C341 C342 1.385 . S
C342 H328 0.931 . S
C342 C341 1.385 . S
C342 C343 1.389 . S
C343 C342 1.389 . S
C343 C344 1.387 . S
C344 H329 0.930 . S
C344 C339 1.390 . S
C344 C343 1.387 . S
H345 C357 0.930 . S
H346 C359 0.930 . S
H347 C360 0.930 . S
H348 C364 0.959 . S
H349 C364 0.959 . S
H350 C364 0.961 . S
H351 C365 0.960 . S
H352 C365 0.961 . S
H353 C365 0.959 . S
H354 C368 0.929 . S
H355 C369 0.931 1_655 S
H356 C371 0.930 . S
C357 H345 0.930 . S
C357 C358 1.399 . S
C357 C362 1.399 . S
C358 C357 1.399 . S
C358 C359 1.376 . S
C359 H346 0.930 . S
C359 C358 1.376 . S
C359 C360 1.388 . S
C360 H347 0.930 . S
C360 C359 1.388 . S
C360 C361 1.390 . S
C361 C360 1.390 . S
C361 C362 1.394 . S
C361 C367 1.465 . S
C362 C357 1.399 . S
C362 C361 1.394 . S
C362 C363 1.516 . S
C363 C362 1.516 . S
C363 C364 1.502 . S
C363 C365 1.561 . S
C363 C366 1.526 . S
C364 H348 0.959 . S
C364 H349 0.959 . S
C364 H350 0.961 . S
C364 C363 1.502 . S
C365 H351 0.960 . S
C365 H352 0.961 . S
C365 H353 0.959 . S
C365 C363 1.561 . S
C366 C363 1.526 . S
C366 C367 1.396 . S
C366 C371 1.390 . S
C367 C361 1.465 . S
C367 C366 1.396 . S
C367 C368 1.399 . S
C368 H354 0.929 . S
C368 C367 1.399 . S
C368 C369 1.385 . S
C369 H355 0.931 1_455 S
C369 C368 1.385 . S
C369 C370 1.389 . S
C370 C369 1.389 . S
C370 C371 1.387 . S
C371 H356 0.930 . S
C371 C366 1.390 . S
C371 C370 1.387 . S
H372 C384 0.930 . S
H373 C386 0.930 . S
H374 C387 0.930 . S
H375 C391 0.959 . S
H376 C391 0.959 1_545 S
H377 C391 0.961 . S
H378 C392 0.960 . S
H379 C392 0.961 . S
H380 C392 0.959 . S
H381 C395 0.929 . S
H382 C396 0.931 . S
H383 C398 0.930 1_545 S
C384 H372 0.930 . S
C384 C385 1.399 . S
C384 C389 1.399 . S
C385 C384 1.399 . S
C385 C386 1.376 . S
C386 H373 0.930 . S
C386 C385 1.376 . S
C386 C387 1.388 . S
C387 H374 0.930 . S
C387 C386 1.388 . S
C387 C388 1.390 . S
C388 C387 1.390 . S
C388 C389 1.394 . S
C388 C394 1.437 1_556 S
C389 C384 1.399 . S
C389 C388 1.394 . S
C389 C390 1.516 . S
C390 C389 1.516 . S
C390 C391 1.502 . S
C390 C392 1.561 . S
C390 C393 1.526 . S
C391 H375 0.959 . S
C391 H376 0.959 1_565 S
C391 H377 0.961 . S
C391 C390 1.502 . S
C392 H378 0.960 . S
C392 H379 0.961 . S
C392 H380 0.959 . S
C392 C390 1.561 . S
C393 C390 1.526 . S
C393 C394 1.385 1_556 S
C393 C398 1.390 1_556 S
C394 C388 1.437 1_554 S
C394 C393 1.385 1_554 S
C394 C395 1.434 . S
C395 H381 0.929 . S
C395 C394 1.434 . S
C395 C396 1.385 . S
C396 H382 0.931 . S
C396 C395 1.385 . S
C396 C397 1.389 . S
C397 C396 1.389 . S
C397 C398 1.387 . S
C398 H383 0.930 1_565 S
C398 C393 1.390 1_554 S
C398 C397 1.387 . S
H399 C411 0.930 . S
H400 C413 0.930 . S
H401 C414 0.930 . S
H402 C418 0.959 . S
H403 C418 0.959 . S
H404 C418 0.961 1_554 S
H405 C419 0.960 . S
H406 C419 0.961 . S
H407 C419 0.959 . S
H408 C422 0.929 . S
H409 C423 0.931 1_455 S
H410 C425 0.930 . S
C411 H399 0.930 . S
C411 C412 1.399 . S
C411 C416 1.399 . S
C412 C411 1.399 . S
C412 C413 1.376 . S
C413 H400 0.930 . S
C413 C412 1.376 . S
C413 C414 1.388 . S
C414 H401 0.930 . S
C414 C413 1.388 . S
C414 C415 1.390 . S
C415 C414 1.390 . S
C415 C416 1.394 . S
C415 C421 1.465 . S
C416 C411 1.399 . S
C416 C415 1.394 . S
C416 C417 1.516 . S
C417 C416 1.516 . S
C417 C418 1.502 1_554 S
C417 C419 1.561 . S
C417 C420 1.526 1_554 S
C418 H402 0.959 . S
C418 H403 0.959 . S
C418 H404 0.961 1_556 S
C418 C417 1.502 1_556 S
C419 H405 0.960 . S
C419 H406 0.961 . S
C419 H407 0.959 . S
C419 C417 1.561 . S
C420 C417 1.526 1_556 S
C420 C421 1.396 1_556 S
C420 C425 1.390 . S
C421 C415 1.465 . S
C421 C420 1.396 1_554 S
C421 C422 1.399 . S
C422 H408 0.929 . S
C422 C421 1.399 . S
C422 C423 1.385 1_554 S
C423 H409 0.931 1_655 S
C423 C422 1.385 1_556 S
C423 C424 1.389 . S
C424 C423 1.389 . S
C424 C425 1.387 . S
C425 H410 0.930 . S
C425 C420 1.390 . S
C425 C424 1.387 . S
H426 C438 0.930 . S
H427 C440 0.930 . S
H428 C441 0.930 . S
H429 C445 0.959 . S
H430 C445 0.959 . S
H431 C445 0.961 . S
H432 C446 0.960 . S
H433 C446 0.961 1_565 S
H434 C446 0.959 . S
H435 C449 0.929 . S
H436 C450 0.931 . S
H437 C452 0.930 1_565 S
C438 H426 0.930 . S
C438 C439 1.399 . S
C438 C443 1.399 . S
C439 C438 1.399 . S
C439 C440 1.376 . S
C440 H427 0.930 . S
C440 C439 1.376 . S
C440 C441 1.388 . S
C441 H428 0.930 . S
C441 C440 1.388 . S
C441 C442 1.390 . S
C442 C441 1.390 . S
C442 C443 1.394 . S
C442 C448 1.491 . S
C443 C438 1.399 . S
C443 C442 1.394 . S
C443 C444 1.516 . S
C444 C443 1.516 . S
C444 C445 1.502 . S
C444 C446 1.561 . S
C444 C447 1.526 . S
C445 H429 0.959 . S
C445 H430 0.959 . S
C445 H431 0.961 . S
C445 C444 1.502 . S
C446 H432 0.960 . S
C446 H433 0.961 1_545 S
C446 H434 0.959 . S
C446 C444 1.561 . S
C447 C444 1.526 . S
C447 C448 1.404 . S
C447 C452 1.390 1_556 S
C448 C442 1.491 . S
C448 C447 1.404 . S
C448 C449 1.369 1_556 S
C449 H435 0.929 . S
C449 C448 1.369 1_554 S
C449 C450 1.385 . S
C450 H436 0.931 . S
C450 C449 1.385 . S
C450 C451 1.389 . S
C451 C450 1.389 . S
C451 C452 1.387 . S
C452 H437 0.930 1_545 S
C452 C447 1.390 1_554 S
C452 C451 1.387 . S
H453 C465 0.930 1_655 S
H454 C467 0.930 . S
H455 C468 0.930 . S
H456 C472 0.959 . S
H457 C472 0.959 . S
H458 C472 0.961 1_655 S
H459 C473 0.960 . S
H460 C473 0.961 . S
H461 C473 0.959 . S
H462 C476 0.929 . S
H463 C477 0.931 . S
H464 C479 0.930 . S
C465 H453 0.930 1_455 S
C465 C466 1.399 . S
C465 C470 1.399 1_556 S
C466 C465 1.399 . S
C466 C467 1.376 . S
C467 H454 0.930 . S
C467 C466 1.376 . S
C467 C468 1.388 . S
C468 H455 0.930 . S
C468 C467 1.388 . S
C468 C469 1.390 . S
C469 C468 1.390 . S
C469 C470 1.394 1_556 S
C469 C475 1.465 1_556 S
C470 C465 1.399 1_554 S
C470 C469 1.394 1_554 S
C470 C471 1.516 . S
C471 C470 1.516 . S
C471 C472 1.502 . S
C471 C473 1.561 . S
C471 C474 1.526 . S
C472 H456 0.959 . S
C472 H457 0.959 . S
C472 H458 0.961 1_455 S
C472 C471 1.502 . S
C473 H459 0.960 . S
C473 H460 0.961 . S
C473 H461 0.959 . S
C473 C471 1.561 . S
C474 C471 1.526 . S
C474 C475 1.396 . S
C474 C479 1.390 . S
C475 C469 1.465 1_554 S
C475 C474 1.396 . S
C475 C476 1.399 . S
C476 H462 0.929 . S
C476 C475 1.399 . S
C476 C477 1.385 . S
C477 H463 0.931 . S
C477 C476 1.385 . S
C477 C478 1.389 . S
C478 C477 1.389 . S
C478 C479 1.387 . S
C479 H464 0.930 . S
C479 C474 1.390 . S
C479 C478 1.387 . S
H480 C492 0.930 . S
H481 C494 0.930 . S
H482 C495 0.930 . S
H483 C499 0.959 . S
H484 C499 0.959 . S
H485 C499 0.961 . S
H486 C500 0.960 . S
H487 C500 0.961 . S
H488 C500 0.959 . S
H489 C503 0.927 1_565 S
H490 C504 0.931 . S
H491 C506 0.930 . S
C492 H480 0.930 . S
C492 C493 1.399 . S
C492 C497 1.399 . S
C493 C492 1.399 . S
C493 C494 1.376 . S
C494 H481 0.930 . S
C494 C493 1.376 . S
C494 C495 1.388 . S
C495 H482 0.930 . S
C495 C494 1.388 . S
C495 C496 1.390 . S
C496 C495 1.390 . S
C496 C497 1.394 . S
C496 C502 1.469 . S
C497 C492 1.399 . S
C497 C496 1.394 . S
C497 C498 1.516 . S
C498 C497 1.516 . S
C498 C499 1.502 1_565 S
C498 C500 1.561 . S
C498 C501 1.526 1_565 S
C499 H483 0.959 . S
C499 H484 0.959 . S
C499 H485 0.961 . S
C499 C498 1.502 1_545 S
C500 H486 0.960 . S
C500 H487 0.961 . S
C500 H488 0.959 . S
C500 C498 1.561 . S
C501 C498 1.526 1_545 S
C501 C502 1.394 1_545 S
C501 C506 1.390 . S
C502 C496 1.469 . S
C502 C501 1.394 1_565 S
C502 C503 1.397 1_565 S
C503 H489 0.927 1_545 S
C503 C502 1.397 1_545 S
C503 C504 1.385 . S
C504 H490 0.931 . S
C504 C503 1.385 . S
C504 C505 1.389 . S
C505 C504 1.389 . S
C505 C506 1.387 . S
C506 H491 0.930 . S
C506 C501 1.390 . S
C506 C505 1.387 . S
H507 C519 0.930 . S
H508 C521 0.929 1_655 S
H509 C522 0.930 . S
H510 C526 0.959 . S
H511 C526 0.959 . S
H512 C526 0.961 . S
H513 C527 0.960 . S
H514 C527 0.961 . S
H515 C527 0.959 . S
H516 C530 0.929 . S
H517 C531 0.931 . S
H518 C533 0.930 . S
C519 H507 0.930 . S
C519 C520 1.399 . S
C519 C524 1.399 . S
C520 C519 1.399 . S
C520 C521 1.376 . S
C521 H508 0.929 1_455 S
C521 C520 1.376 . S
C521 C522 1.388 1_455 S
C522 H509 0.930 . S
C522 C521 1.388 1_655 S
C522 C523 1.390 . S
C523 C522 1.390 . S
C523 C524 1.394 1_655 S
C523 C529 1.465 . S
C524 C519 1.399 . S
C524 C523 1.394 1_455 S
C524 C525 1.516 . S
C525 C524 1.516 . S
C525 C526 1.502 . S
C525 C527 1.561 1_455 S
C525 C528 1.526 1_455 S
C526 H510 0.959 . S
C526 H511 0.959 . S
C526 H512 0.961 . S
C526 C525 1.502 . S
C527 H513 0.960 . S
C527 H514 0.961 . S
C527 H515 0.959 . S
C527 C525 1.561 1_655 S
C528 C525 1.526 1_655 S
C528 C529 1.396 . S
C528 C533 1.390 . S
C529 C523 1.465 . S
C529 C528 1.396 . S
C529 C530 1.399 . S
C530 H516 0.929 . S
C530 C529 1.399 . S
C530 C531 1.385 . S
C531 H517 0.931 . S
C531 C530 1.385 . S
C531 C532 1.389 . S
C532 C531 1.389 . S
C532 C533 1.387 . S
C533 H518 0.930 . S
C533 C528 1.390 . S
C533 C532 1.387 . S
H534 C546 0.930 . S
H535 C548 0.930 . S
H536 C549 0.930 . S
H537 C553 0.959 . S
H538 C553 0.959 . S
H539 C553 0.961 . S
H540 C554 0.960 . S
H541 C554 0.961 . S
H542 C554 0.959 . S
H543 C557 0.929 . S
H544 C558 0.931 . S
H545 C560 0.930 1_545 S
C546 H534 0.930 . S
C546 C547 1.399 . S
C546 C551 1.399 . S
C547 C546 1.399 . S
C547 C548 1.376 1_545 S
C548 H535 0.930 . S
C548 C547 1.376 1_565 S
C548 C549 1.388 . S
C549 H536 0.930 . S
C549 C548 1.388 . S
C549 C550 1.390 . S
C550 C549 1.390 . S
C550 C551 1.394 1_565 S
C550 C556 1.465 . S
C551 C546 1.399 . S
C551 C550 1.394 1_545 S
C551 C552 1.516 . S
C552 C551 1.516 . S
C552 C553 1.502 . S
C552 C554 1.561 1_545 S
C552 C555 1.526 1_545 S
C553 H537 0.959 . S
C553 H538 0.959 . S
C553 H539 0.961 . S
C553 C552 1.502 . S
C554 H540 0.960 . S
C554 H541 0.961 . S
C554 H542 0.959 . S
C554 C552 1.561 1_565 S
C555 C552 1.526 1_565 S
C555 C556 1.396 . S
C555 C560 1.390 . S
C556 C550 1.465 . S
C556 C555 1.396 . S
C556 C557 1.399 . S
C557 H543 0.929 . S
C557 C556 1.399 . S
C557 C558 1.385 . S
C558 H544 0.931 . S
C558 C557 1.385 . S
C558 C559 1.389 . S
C559 C558 1.389 . S
C559 C560 1.387 . S
C560 H545 0.930 1_565 S
C560 C555 1.390 . S
C560 C559 1.387 . S
H561 C573 0.930 . S
H562 C575 0.930 . S
H563 C576 0.930 . S
H564 C580 0.959 . S
H565 C580 0.959 . S
H566 C580 0.961 . S
H567 C581 0.960 . S
H568 C581 0.961 . S
H569 C581 0.959 . S
H570 C584 0.929 . S
H571 C585 0.931 . S
H572 C587 0.930 . S
C573 H561 0.930 . S
C573 C574 1.399 . S
C573 C578 1.399 . S
C574 C573 1.399 . S
C574 C575 1.376 . S
C575 H562 0.930 . S
C575 C574 1.376 . S
C575 C576 1.388 . S
C576 H563 0.930 . S
C576 C575 1.388 . S
C576 C577 1.390 . S
C577 C576 1.390 . S
C577 C578 1.394 . S
C577 C583 1.465 . S
C578 C573 1.399 . S
C578 C577 1.394 . S
C578 C579 1.516 1_455 S
C579 C578 1.516 1_655 S
C579 C580 1.502 . S
C579 C581 1.561 1_655 S
C579 C582 1.526 . S
C580 H564 0.959 . S
C580 H565 0.959 . S
C580 H566 0.961 . S
C580 C579 1.502 . S
C581 H567 0.960 . S
C581 H568 0.961 . S
C581 H569 0.959 . S
C581 C579 1.561 1_455 S
C582 C579 1.526 . S
C582 C583 1.396 1_655 S
C582 C587 1.390 . S
C583 C577 1.465 . S
C583 C582 1.396 1_455 S
C583 C584 1.399 . S
C584 H570 0.929 . S
C584 C583 1.399 . S
C584 C585 1.385 1_455 S
C585 H571 0.931 . S
C585 C584 1.385 1_655 S
C585 C586 1.389 . S
C586 C585 1.389 . S
C586 C587 1.387 . S
C587 H572 0.930 . S
C587 C582 1.390 . S
C587 C586 1.387 . S
H588 C600 0.930 . S
H589 C602 0.930 . S
H590 C603 0.930 . S
H591 C607 0.959 . S
H592 C607 0.959 . S
H593 C607 0.961 1_455 S
H594 C608 0.975 . S
H595 C608 0.948 1_655 S
H596 C608 0.958 1_655 S
H597 C611 0.929 . S
H598 C612 0.931 . S
H599 C614 0.930 . S
C600 H588 0.930 . S
C600 C601 1.399 . S
C600 C605 1.402 . S
C601 C600 1.399 . S
C601 C602 1.377 1_545 S
C602 H589 0.930 . S
C602 C601 1.377 1_565 S
C602 C603 1.388 . S
C603 H590 0.930 . S
C603 C602 1.388 . S
C603 C604 1.390 . S
C604 C603 1.390 . S
C604 C605 1.389 1_565 S
C604 C610 1.465 1_455 S
C605 C600 1.402 . S
C605 C604 1.389 1_545 S
C605 C606 1.514 1_455 S
C606 C605 1.514 1_655 S
C606 C607 1.502 . S
C606 C608 1.561 1_645 S
C606 C609 1.527 1_545 S
C607 H591 0.959 . S
C607 H592 0.959 . S
C607 H593 0.961 1_655 S
C607 C606 1.502 . S
C608 H594 0.975 . S
C608 H595 0.948 1_455 S
C608 H596 0.958 1_455 S
C608 C606 1.561 1_465 S
C609 C606 1.527 1_565 S
C609 C610 1.401 . S
C609 C614 1.389 1_565 S
C610 C604 1.465 1_655 S
C610 C609 1.401 . S
C610 C611 1.399 . S
C611 H597 0.929 . S
C611 C610 1.399 . S
C611 C612 1.385 . S
C612 H598 0.931 . S
C612 C611 1.385 . S
C612 C613 1.389 . S
C613 C612 1.389 . S
C613 C614 1.387 1_565 S
C614 H599 0.930 . S
C614 C609 1.389 1_545 S
C614 C613 1.387 1_545 S
H615 C627 0.930 . S
H616 C629 0.930 . S
H617 C630 0.930 . S
H618 C634 0.959 . S
H619 C634 0.959 . S
H620 C634 0.961 1_565 S
H621 C635 0.969 . S
H622 C635 0.953 1_545 S
H623 C635 0.958 1_545 S
H624 C638 0.929 . S
H625 C639 0.931 . S
H626 C641 0.930 . S
C627 H615 0.930 . S
C627 C628 1.398 1_455 S
C627 C632 1.399 . S
C628 C627 1.398 1_655 S
C628 C629 1.379 . S
C629 H616 0.930 . S
C629 C628 1.379 . S
C629 C630 1.388 . S
C630 H617 0.930 . S
C630 C629 1.388 . S
C630 C631 1.390 . S
C631 C630 1.390 . S
C631 C632 1.394 1_655 S
C631 C637 1.465 1_565 S
C632 C627 1.399 . S
C632 C631 1.394 1_455 S
C632 C633 1.510 1_565 S
C633 C632 1.510 1_545 S
C633 C634 1.502 . S
C633 C635 1.561 1_445 S
C633 C636 1.532 . S
C634 H618 0.959 . S
C634 H619 0.959 . S
C634 H620 0.961 1_545 S
C634 C633 1.502 . S
C635 H621 0.969 . S
C635 H622 0.953 1_565 S
C635 H623 0.958 1_565 S
C635 C633 1.561 1_665 S
C636 C633 1.532 . S
C636 C637 1.396 1_455 S
C636 C641 1.390 . S
C637 C631 1.465 1_545 S
C637 C636 1.396 1_655 S
C637 C638 1.399 . S
C638 H624 0.929 . S
C638 C637 1.399 . S
C638 C639 1.385 . S
C639 H625 0.931 . S
C639 C638 1.385 . S
C639 C640 1.389 . S
C640 C639 1.389 . S
C640 C641 1.387 1_655 S
C641 H626 0.930 . S
C641 C636 1.390 . S
C641 C640 1.387 1_455 S
H642 C654 0.930 . S
H643 C656 0.930 . S
H644 C657 0.930 . S
H645 C661 0.959 . S
H646 C661 0.959 . S
H647 C661 0.961 1_455 S
H648 C662 0.957 1_465 S
H649 C662 0.963 1_565 S
H650 C662 0.959 . S
H651 C665 0.929 . S
H652 C666 0.931 . S
H653 C668 0.930 . S
C654 H642 0.930 . S
C654 C655 1.399 1_565 S
C654 C659 1.399 . S
C655 C654 1.399 1_545 S
C655 C656 1.376 . S
C656 H643 0.930 . S
C656 C655 1.376 . S
C656 C657 1.388 . S
C657 H644 0.930 . S
C657 C656 1.388 . S
C657 C658 1.390 . S
C658 C657 1.390 . S
C658 C659 1.394 1_545 S
C658 C664 1.465 1_455 S
C659 C654 1.399 . S
C659 C658 1.394 1_565 S
C659 C660 1.501 1_455 S
C660 C659 1.501 1_655 S
C660 C661 1.503 . S
C660 C662 1.561 1_565 S
C660 C663 1.540 . S
C661 H645 0.959 . S
C661 H646 0.959 . S
C661 H647 0.961 1_655 S
C661 C660 1.503 . S
C662 H648 0.957 1_645 S
C662 H649 0.963 1_545 S
C662 H650 0.959 . S
C662 C660 1.561 1_545 S
C663 C660 1.540 . S
C663 C664 1.396 1_565 S
C663 C668 1.390 . S
C664 C658 1.465 1_655 S
C664 C663 1.396 1_545 S
C664 C665 1.399 . S
C665 H651 0.929 . S
C665 C664 1.399 . S
C665 C666 1.385 . S
C666 H652 0.931 . S
C666 C665 1.385 . S
C666 C667 1.389 . S
C667 C666 1.389 . S
C667 C668 1.387 1_545 S
C668 H653 0.930 . S
C668 C663 1.390 . S
C668 C667 1.387 1_565 S
H669 C681 0.930 . S
H670 C683 0.930 . S
H671 C684 0.931 . S
H672 C688 0.959 . S
H673 C688 0.959 . S
H674 C688 0.961 1_565 S
H675 C689 0.960 . S
H676 C689 0.961 1_545 S
H677 C689 0.959 1_545 S
H678 C692 0.928 1_655 S
H679 C693 0.930 1_655 S
H680 C695 0.930 . S
C681 H669 0.930 . S
C681 C682 1.399 1_455 S
C681 C686 1.399 . S
C682 C681 1.399 1_655 S
C682 C683 1.376 . S
C683 H670 0.930 . S
C683 C682 1.376 . S
C683 C684 1.389 . S
C684 H671 0.931 . S
C684 C683 1.389 . S
C684 C685 1.389 1_655 S
C685 C684 1.389 1_455 S
C685 C686 1.394 . S
C685 C691 1.465 1_565 S
C686 C681 1.399 . S
C686 C685 1.394 . S
C686 C687 1.516 . S
C687 C686 1.516 . S
C687 C688 1.502 1_465 S
C687 C689 1.561 . S
C687 C690 1.526 1_565 S
C688 H672 0.959 . S
C688 H673 0.959 . S
C688 H674 0.961 1_545 S
C688 C687 1.502 1_645 S
C689 H675 0.960 . S
C689 H676 0.961 1_565 S
C689 H677 0.959 1_565 S
C689 C687 1.561 . S
C690 C687 1.526 1_545 S
C690 C691 1.396 . S
C690 C695 1.390 . S
C691 C685 1.465 1_545 S
C691 C690 1.396 . S
C691 C692 1.399 . S
C692 H678 0.928 1_455 S
C692 C691 1.399 . S
C692 C693 1.385 . S
C693 H679 0.930 1_455 S
C693 C692 1.385 . S
C693 C694 1.390 . S
C694 C693 1.390 . S
C694 C695 1.387 . S
C695 H680 0.930 . S
C695 C690 1.390 . S
C695 C694 1.387 . S
H696 C708 0.930 . S
H697 C710 0.930 . S
H698 C711 0.930 . S
H699 C715 0.959 . S
H700 C715 0.959 . S
H701 C715 0.961 . S
H702 C716 0.960 . S
H703 C716 0.961 . S
H704 C716 0.959 . S
H705 C719 0.929 . S
H706 C720 0.931 . S
H707 C722 0.930 . S
C708 H696 0.930 . S
C708 C709 1.399 . S
C708 C713 1.399 . S
C709 C708 1.399 . S
C709 C710 1.376 . S
C710 H697 0.930 . S
C710 C709 1.376 . S
C710 C711 1.388 . S
C711 H698 0.930 . S
C711 C710 1.388 . S
C711 C712 1.390 . S
C712 C711 1.390 . S
C712 C713 1.394 . S
C712 C718 1.465 . S
C713 C708 1.399 . S
C713 C712 1.394 . S
C713 C714 1.516 . S
C714 C713 1.516 . S
C714 C715 1.502 . S
C714 C716 1.561 . S
C714 C717 1.526 . S
C715 H699 0.959 . S
C715 H700 0.959 . S
C715 H701 0.961 . S
C715 C714 1.502 . S
C716 H702 0.960 . S
C716 H703 0.961 . S
C716 H704 0.959 . S
C716 C714 1.561 . S
C717 C714 1.526 . S
C717 C718 1.396 . S
C717 C722 1.390 . S
C718 C712 1.465 . S
C718 C717 1.396 . S
C718 C719 1.399 . S
C719 H705 0.929 . S
C719 C718 1.399 . S
C719 C720 1.385 . S
C720 H706 0.931 . S
C720 C719 1.385 . S
C720 C721 1.389 . S
C721 C720 1.389 . S
C721 C722 1.387 . S
C722 H707 0.930 . S
C722 C717 1.390 . S
C722 C721 1.387 . S
H723 C735 0.930 . S
H724 C737 0.930 . S
H725 C738 0.930 . S
H726 C742 0.959 . S
H727 C742 0.959 . S
H728 C742 0.961 . S
H729 C743 0.960 . S
H730 C743 0.961 . S
H731 C743 0.959 . S
H732 C746 0.929 . S
H733 C747 0.931 . S
H734 C749 0.930 . S
C735 H723 0.930 . S
C735 C736 1.399 . S
C735 C740 1.399 . S
C736 C735 1.399 . S
C736 C737 1.376 . S
C737 H724 0.930 . S
C737 C736 1.376 . S
C737 C738 1.388 . S
C738 H725 0.930 . S
C738 C737 1.388 . S
C738 C739 1.390 . S
C739 C738 1.390 . S
C739 C740 1.394 . S
C739 C745 1.465 . S
C740 C735 1.399 . S
C740 C739 1.394 . S
C740 C741 1.516 . S
C741 C740 1.516 . S
C741 C742 1.502 . S
C741 C743 1.561 . S
C741 C744 1.526 . S
C742 H726 0.959 . S
C742 H727 0.959 . S
C742 H728 0.961 . S
C742 C741 1.502 . S
C743 H729 0.960 . S
C743 H730 0.961 . S
C743 H731 0.959 . S
C743 C741 1.561 . S
C744 C741 1.526 . S
C744 C745 1.396 . S
C744 C749 1.390 . S
C745 C739 1.465 . S
C745 C744 1.396 . S
C745 C746 1.399 . S
C746 H732 0.929 . S
C746 C745 1.399 . S
C746 C747 1.385 . S
C747 H733 0.931 . S
C747 C746 1.385 . S
C747 C748 1.389 . S
C748 C747 1.389 . S
C748 C749 1.387 . S
C749 H734 0.930 . S
C749 C744 1.390 . S
C749 C748 1.387 . S
H750 C762 0.930 . S
H751 C764 0.930 . S
H752 C765 0.930 . S
H753 C769 0.959 . S
H754 C769 0.959 . S
H755 C769 0.961 . S
H756 C770 0.960 . S
H757 C770 0.961 . S
H758 C770 0.959 . S
H759 C773 0.929 . S
H760 C774 0.931 . S
H761 C776 0.930 . S
C762 H750 0.930 . S
C762 C763 1.399 . S
C762 C767 1.399 . S
C763 C762 1.399 . S
C763 C764 1.376 . S
C764 H751 0.930 . S
C764 C763 1.376 . S
C764 C765 1.388 . S
C765 H752 0.930 . S
C765 C764 1.388 . S
C765 C766 1.390 . S
C766 C765 1.390 . S
C766 C767 1.394 . S
C766 C772 1.465 . S
C767 C762 1.399 . S
C767 C766 1.394 . S
C767 C768 1.516 . S
C768 C767 1.516 . S
C768 C769 1.502 . S
C768 C770 1.561 . S
C768 C771 1.526 . S
C769 H753 0.959 . S
C769 H754 0.959 . S
C769 H755 0.961 . S
C769 C768 1.502 . S
C770 H756 0.960 . S
C770 H757 0.961 . S
C770 H758 0.959 . S
C770 C768 1.561 . S
C771 C768 1.526 . S
C771 C772 1.396 . S
C771 C776 1.390 . S
C772 C766 1.465 . S
C772 C771 1.396 . S
C772 C773 1.399 . S
C773 H759 0.929 . S
C773 C772 1.399 . S
C773 C774 1.385 . S
C774 H760 0.931 . S
C774 C773 1.385 . S
C774 C775 1.389 . S
C775 C774 1.389 . S
C775 C776 1.387 . S
C776 H761 0.930 . S
C776 C771 1.390 . S
C776 C775 1.387 . S
H777 C789 0.930 . S
H778 C791 0.930 . S
H779 C792 0.930 . S
H780 C796 0.959 . S
H781 C796 0.959 . S
H782 C796 0.961 . S
H783 C797 0.960 . S
H784 C797 0.961 . S
H785 C797 0.959 . S
H786 C800 0.929 . S
H787 C801 0.931 . S
H788 C803 0.930 . S
C789 H777 0.930 . S
C789 C790 1.399 . S
C789 C794 1.399 . S
C790 C789 1.399 . S
C790 C791 1.376 . S
C791 H778 0.930 . S
C791 C790 1.376 . S
C791 C792 1.388 . S
C792 H779 0.930 . S
C792 C791 1.388 . S
C792 C793 1.390 . S
C793 C792 1.390 . S
C793 C794 1.394 . S
C793 C799 1.465 . S
C794 C789 1.399 . S
C794 C793 1.394 . S
C794 C795 1.516 . S
C795 C794 1.516 . S
C795 C796 1.502 . S
C795 C797 1.561 . S
C795 C798 1.526 . S
C796 H780 0.959 . S
C796 H781 0.959 . S
C796 H782 0.961 . S
C796 C795 1.502 . S
C797 H783 0.960 . S
C797 H784 0.961 . S
C797 H785 0.959 . S
C797 C795 1.561 . S
C798 C795 1.526 . S
C798 C799 1.396 . S
C798 C803 1.390 . S
C799 C793 1.465 . S
C799 C798 1.396 . S
C799 C800 1.399 . S
C800 H786 0.929 . S
C800 C799 1.399 . S
C800 C801 1.385 . S
C801 H787 0.931 . S
C801 C800 1.385 . S
C801 C802 1.389 . S
C802 C801 1.389 . S
C802 C803 1.387 . S
C803 H788 0.930 . S
C803 C798 1.390 . S
C803 C802 1.387 . S
C277 N14 1.065 . S
C289 C41 0.973 . S
C304 C74 1.003 . S
C316 N47 1.066 . S
C331 N80 0.981 . S
C343 C107 1.048 . S
C358 C8 1.017 . S
C370 N113 1.060 . S
C385 C239 1.056 . S
C397 N146 0.967 . S
C412 C140 0.952 . S
C424 N179 1.052 . S
C439 C173 1.066 . S
C451 N212 0.976 . S
C466 N245 0.963 . S
C478 C206 1.013 . S
C493 C83 1.307 . S
C505 C17 1.313 . S
C520 C50 1.315 . S
C532 C116 1.309 . S
C547 C149 1.315 . S
C559 C215 1.307 . S
C574 C182 1.306 . S
C586 C248 1.314 . S
C601 C28 0.747 . S
C613 C94 0.695 . S
C628 C61 0.612 1_655 S
C640 C127 0.506 . S
C655 C226 0.652 1_545 S
C667 C160 0.499 . S
C682 C259 0.741 . S
C694 C193 0.717 . S
C709 N5 1.691 . S
C721 N170 1.692 . S
C736 N203 1.685 . S
C748 N38 1.677 . S
C763 N236 1.675 . S
C775 N71 1.678 . S
C790 N104 1.691 . S
C802 N137 1.690 . S
