# Generated by pormake.
# Topology cha, (4)-cn, num edge types: 1
# Building blocks:
#     Node 0, Type 0, BuildingBlock: GALJAG_clean_sbu_0, # of connection points: 4
#     Node 1, Type 0, BuildingBlock: GALJAG_clean_sbu_0, # of connection points: 4
#     Node 2, Type 0, BuildingBlock: GALJAG_clean_sbu_0, # of connection points: 4
#     Node 3, Type 0, BuildingBlock: GALJAG_clean_sbu_0, # of connection points: 4
#     Node 4, Type 0, BuildingBlock: GALJAG_clean_sbu_0, # of connection points: 4
#     Node 5, Type 0, BuildingBlock: GALJAG_clean_sbu_0, # of connection points: 4
#     Node 6, Type 0, BuildingBlock: GALJAG_clean_sbu_0, # of connection points: 4
#     Node 7, Type 0, BuildingBlock: GALJAG_clean_sbu_0, # of connection points: 4
#     Node 8, Type 0, BuildingBlock: GALJAG_clean_sbu_0, # of connection points: 4
#     Node 9, Type 0, BuildingBlock: GALJAG_clean_sbu_0, # of connection points: 4
#     Node 10, Type 0, BuildingBlock: GALJAG_clean_sbu_0, # of connection points: 4
#     Node 11, Type 0, BuildingBlock: GALJAG_clean_sbu_0, # of connection points: 4
#     Node 12, Type 0, BuildingBlock: GALJAG_clean_sbu_0, # of connection points: 4
#     Node 13, Type 0, BuildingBlock: GALJAG_clean_sbu_0, # of connection points: 4
#     Node 14, Type 0, BuildingBlock: GALJAG_clean_sbu_0, # of connection points: 4
#     Node 15, Type 0, BuildingBlock: GALJAG_clean_sbu_0, # of connection points: 4
#     Node 16, Type 0, BuildingBlock: GALJAG_clean_sbu_0, # of connection points: 4
#     Node 17, Type 0, BuildingBlock: GALJAG_clean_sbu_0, # of connection points: 4
#     Node 18, Type 0, BuildingBlock: GALJAG_clean_sbu_0, # of connection points: 4
#     Node 19, Type 0, BuildingBlock: GALJAG_clean_sbu_0, # of connection points: 4
#     Node 20, Type 0, BuildingBlock: GALJAG_clean_sbu_0, # of connection points: 4
#     Node 21, Type 0, BuildingBlock: GALJAG_clean_sbu_0, # of connection points: 4
#     Node 22, Type 0, BuildingBlock: GALJAG_clean_sbu_0, # of connection points: 4
#     Node 23, Type 0, BuildingBlock: GALJAG_clean_sbu_0, # of connection points: 4
#     Node 24, Type 0, BuildingBlock: GALJAG_clean_sbu_0, # of connection points: 4
#     Node 25, Type 0, BuildingBlock: GALJAG_clean_sbu_0, # of connection points: 4
#     Node 26, Type 0, BuildingBlock: GALJAG_clean_sbu_0, # of connection points: 4
#     Node 27, Type 0, BuildingBlock: GALJAG_clean_sbu_0, # of connection points: 4
#     Node 28, Type 0, BuildingBlock: GALJAG_clean_sbu_0, # of connection points: 4
#     Node 29, Type 0, BuildingBlock: GALJAG_clean_sbu_0, # of connection points: 4
#     Node 30, Type 0, BuildingBlock: GALJAG_clean_sbu_0, # of connection points: 4
#     Node 31, Type 0, BuildingBlock: GALJAG_clean_sbu_0, # of connection points: 4
#     Node 32, Type 0, BuildingBlock: GALJAG_clean_sbu_0, # of connection points: 4
#     Node 33, Type 0, BuildingBlock: GALJAG_clean_sbu_0, # of connection points: 4
#     Node 34, Type 0, BuildingBlock: GALJAG_clean_sbu_0, # of connection points: 4
#     Node 35, Type 0, BuildingBlock: GALJAG_clean_sbu_0, # of connection points: 4
#     Edge 36, Type (0, 0), BuildingBlock: UVAHIK_clean_linker_0, # of connection points: 2
#     Edge 37, Type (0, 0), BuildingBlock: UVAHIK_clean_linker_0, # of connection points: 2
#     Edge 38, Type (0, 0), BuildingBlock: UVAHIK_clean_linker_0, # of connection points: 2
#     Edge 39, Type (0, 0), BuildingBlock: UVAHIK_clean_linker_0, # of connection points: 2
#     Edge 40, Type (0, 0), BuildingBlock: UVAHIK_clean_linker_0, # of connection points: 2
#     Edge 41, Type (0, 0), BuildingBlock: UVAHIK_clean_linker_0, # of connection points: 2
#     Edge 42, Type (0, 0), BuildingBlock: UVAHIK_clean_linker_0, # of connection points: 2
#     Edge 43, Type (0, 0), BuildingBlock: UVAHIK_clean_linker_0, # of connection points: 2
#     Edge 44, Type (0, 0), BuildingBlock: UVAHIK_clean_linker_0, # of connection points: 2
#     Edge 45, Type (0, 0), BuildingBlock: UVAHIK_clean_linker_0, # of connection points: 2
#     Edge 46, Type (0, 0), BuildingBlock: UVAHIK_clean_linker_0, # of connection points: 2
#     Edge 47, Type (0, 0), BuildingBlock: UVAHIK_clean_linker_0, # of connection points: 2
#     Edge 48, Type (0, 0), BuildingBlock: UVAHIK_clean_linker_0, # of connection points: 2
#     Edge 49, Type (0, 0), BuildingBlock: UVAHIK_clean_linker_0, # of connection points: 2
#     Edge 50, Type (0, 0), BuildingBlock: UVAHIK_clean_linker_0, # of connection points: 2
#     Edge 51, Type (0, 0), BuildingBlock: UVAHIK_clean_linker_0, # of connection points: 2
#     Edge 52, Type (0, 0), BuildingBlock: UVAHIK_clean_linker_0, # of connection points: 2
#     Edge 53, Type (0, 0), BuildingBlock: UVAHIK_clean_linker_0, # of connection points: 2
#     Edge 54, Type (0, 0), BuildingBlock: UVAHIK_clean_linker_0, # of connection points: 2
#     Edge 55, Type (0, 0), BuildingBlock: UVAHIK_clean_linker_0, # of connection points: 2
#     Edge 56, Type (0, 0), BuildingBlock: UVAHIK_clean_linker_0, # of connection points: 2
#     Edge 57, Type (0, 0), BuildingBlock: UVAHIK_clean_linker_0, # of connection points: 2
#     Edge 58, Type (0, 0), BuildingBlock: UVAHIK_clean_linker_0, # of connection points: 2
#     Edge 59, Type (0, 0), BuildingBlock: UVAHIK_clean_linker_0, # of connection points: 2
#     Edge 60, Type (0, 0), BuildingBlock: UVAHIK_clean_linker_0, # of connection points: 2
#     Edge 61, Type (0, 0), BuildingBlock: UVAHIK_clean_linker_0, # of connection points: 2
#     Edge 62, Type (0, 0), BuildingBlock: UVAHIK_clean_linker_0, # of connection points: 2
#     Edge 63, Type (0, 0), BuildingBlock: UVAHIK_clean_linker_0, # of connection points: 2
#     Edge 64, Type (0, 0), BuildingBlock: UVAHIK_clean_linker_0, # of connection points: 2
#     Edge 65, Type (0, 0), BuildingBlock: UVAHIK_clean_linker_0, # of connection points: 2
#     Edge 66, Type (0, 0), BuildingBlock: UVAHIK_clean_linker_0, # of connection points: 2
#     Edge 67, Type (0, 0), BuildingBlock: UVAHIK_clean_linker_0, # of connection points: 2
#     Edge 68, Type (0, 0), BuildingBlock: UVAHIK_clean_linker_0, # of connection points: 2
#     Edge 69, Type (0, 0), BuildingBlock: UVAHIK_clean_linker_0, # of connection points: 2
#     Edge 70, Type (0, 0), BuildingBlock: UVAHIK_clean_linker_0, # of connection points: 2
#     Edge 71, Type (0, 0), BuildingBlock: UVAHIK_clean_linker_0, # of connection points: 2
#     Edge 72, Type (0, 0), BuildingBlock: UVAHIK_clean_linker_0, # of connection points: 2
#     Edge 73, Type (0, 0), BuildingBlock: UVAHIK_clean_linker_0, # of connection points: 2
#     Edge 74, Type (0, 0), BuildingBlock: UVAHIK_clean_linker_0, # of connection points: 2
#     Edge 75, Type (0, 0), BuildingBlock: UVAHIK_clean_linker_0, # of connection points: 2
#     Edge 76, Type (0, 0), BuildingBlock: UVAHIK_clean_linker_0, # of connection points: 2
#     Edge 77, Type (0, 0), BuildingBlock: UVAHIK_clean_linker_0, # of connection points: 2
#     Edge 78, Type (0, 0), BuildingBlock: UVAHIK_clean_linker_0, # of connection points: 2
#     Edge 79, Type (0, 0), BuildingBlock: UVAHIK_clean_linker_0, # of connection points: 2
#     Edge 80, Type (0, 0), BuildingBlock: UVAHIK_clean_linker_0, # of connection points: 2
#     Edge 81, Type (0, 0), BuildingBlock: UVAHIK_clean_linker_0, # of connection points: 2
#     Edge 82, Type (0, 0), BuildingBlock: UVAHIK_clean_linker_0, # of connection points: 2
#     Edge 83, Type (0, 0), BuildingBlock: UVAHIK_clean_linker_0, # of connection points: 2
#     Edge 84, Type (0, 0), BuildingBlock: UVAHIK_clean_linker_0, # of connection points: 2
#     Edge 85, Type (0, 0), BuildingBlock: UVAHIK_clean_linker_0, # of connection points: 2
#     Edge 86, Type (0, 0), BuildingBlock: UVAHIK_clean_linker_0, # of connection points: 2
#     Edge 87, Type (0, 0), BuildingBlock: UVAHIK_clean_linker_0, # of connection points: 2
#     Edge 88, Type (0, 0), BuildingBlock: UVAHIK_clean_linker_0, # of connection points: 2
#     Edge 89, Type (0, 0), BuildingBlock: UVAHIK_clean_linker_0, # of connection points: 2
#     Edge 90, Type (0, 0), BuildingBlock: UVAHIK_clean_linker_0, # of connection points: 2
#     Edge 91, Type (0, 0), BuildingBlock: UVAHIK_clean_linker_0, # of connection points: 2
#     Edge 92, Type (0, 0), BuildingBlock: UVAHIK_clean_linker_0, # of connection points: 2
#     Edge 93, Type (0, 0), BuildingBlock: UVAHIK_clean_linker_0, # of connection points: 2
#     Edge 94, Type (0, 0), BuildingBlock: UVAHIK_clean_linker_0, # of connection points: 2
#     Edge 95, Type (0, 0), BuildingBlock: UVAHIK_clean_linker_0, # of connection points: 2
#     Edge 96, Type (0, 0), BuildingBlock: UVAHIK_clean_linker_0, # of connection points: 2
#     Edge 97, Type (0, 0), BuildingBlock: UVAHIK_clean_linker_0, # of connection points: 2
#     Edge 98, Type (0, 0), BuildingBlock: UVAHIK_clean_linker_0, # of connection points: 2
#     Edge 99, Type (0, 0), BuildingBlock: UVAHIK_clean_linker_0, # of connection points: 2
#     Edge 100, Type (0, 0), BuildingBlock: UVAHIK_clean_linker_0, # of connection points: 2
#     Edge 101, Type (0, 0), BuildingBlock: UVAHIK_clean_linker_0, # of connection points: 2
#     Edge 102, Type (0, 0), BuildingBlock: UVAHIK_clean_linker_0, # of connection points: 2
#     Edge 103, Type (0, 0), BuildingBlock: UVAHIK_clean_linker_0, # of connection points: 2
#     Edge 104, Type (0, 0), BuildingBlock: UVAHIK_clean_linker_0, # of connection points: 2
#     Edge 105, Type (0, 0), BuildingBlock: UVAHIK_clean_linker_0, # of connection points: 2
#     Edge 106, Type (0, 0), BuildingBlock: UVAHIK_clean_linker_0, # of connection points: 2
#     Edge 107, Type (0, 0), BuildingBlock: UVAHIK_clean_linker_0, # of connection points: 2
# Relax obj value: 0.076
# Max RMSD: 0.060
# Mean RMSD: 0.060
data_MOF--net-cha--node1-GALJAG_clean_sbu_0--edge1-UVAHIK_clean_linker_0
_symmetry_space_group_name_H-M    P1
_symmetry_Int_Tables_number       1
_symmetry_cell_setting            triclinic
loop_
_symmetry_equiv_pos_as_xyz
'x, y, z'
_cell_length_a     74.662916
_cell_length_b     74.659006
_cell_length_c     108.055
_cell_angle_alpha  89.997144
_cell_angle_beta   90.003268
_cell_angle_gamma 120.0048
loop_
_atom_site_label
_atom_site_type_symbol
_atom_site_fract_x
_atom_site_fract_y
_atom_site_fract_z
_atom_type_partial_charge
In0 In 0.0252 0.28676 0.08606 0.0
O1 O 0.02952 0.30984 0.07064 0.0
O2 O 0.01525 0.27796 0.06613 0.0
C3 C 0.02755 0.30848 0.10658 0.0
C4 C 0.06157 0.28729 0.08491 0.0
C5 C 0.98884 0.25201 0.09029 0.0
O6 O 0.02222 0.31206 0.0962 0.0
O7 O 0.03183 0.29416 0.10654 0.0
O8 O 0.00579 0.25216 0.08969 0.0
O9 O 0.99024 0.26947 0.08889 0.0
C10 C 0.02135 0.29609 0.0624 0.0
O11 O 0.04457 0.27098 0.08682 0.0
O12 O 0.06024 0.30338 0.0836 0.0
In13 In 0.75944 0.76066 0.08233 0.0
O14 O 0.76242 0.75081 0.06286 0.0
O15 O 0.73257 0.74423 0.06851 0.0
C16 C 0.74209 0.74373 0.10436 0.0
C17 C 0.76011 0.797 0.08022 0.0
C18 C 0.79571 0.76152 0.08502 0.0
O19 O 0.73749 0.73322 0.09453 0.0
O20 O 0.7552 0.76261 0.10302 0.0
O21 O 0.79451 0.77776 0.08415 0.0
O22 O 0.77858 0.74484 0.08461 0.0
C23 C 0.74368 0.74331 0.06003 0.0
O24 O 0.7761 0.79551 0.07886 0.0
O25 O 0.74384 0.78018 0.08253 0.0
In26 In 0.29455 0.02874 0.08564 0.0
O27 O 0.30175 0.01529 0.06857 0.0
O28 O 0.31967 0.0476 0.07133 0.0
C29 C 0.31143 0.02851 0.1077 0.0
C30 C 0.25828 0.99281 0.08561 0.0
C31 C 0.28919 0.0619 0.08549 0.0
O32 O 0.32066 0.03009 0.09762 0.0
O33 O 0.29389 0.02687 0.10655 0.0
O34 O 0.27908 0.04656 0.07845 0.0
O35 O 0.30189 0.06045 0.09252 0.0
C36 C 0.31579 0.03241 0.06451 0.0
O37 O 0.25937 0.01012 0.08426 0.0
O38 O 0.27547 0.99363 0.0869 0.0
In39 In 0.295 0.02685 0.91338 0.0
O40 O 0.27912 0.04606 0.91248 0.0
O41 O 0.31033 0.05994 0.90626 0.0
C42 C 0.25819 0.99272 0.91801 0.0
C43 C 0.31481 0.03382 0.93539 0.0
C44 C 0.30882 0.01949 0.89192 0.0
O45 O 0.25973 0.00959 0.91457 0.0
O46 O 0.2752 0.99316 0.91925 0.0
O47 O 0.32085 0.02908 0.90078 0.0
O48 O 0.29009 0.01359 0.89397 0.0
C49 C 0.29462 0.06184 0.90801 0.0
O50 O 0.31201 0.01919 0.92835 0.0
O51 O 0.30799 0.04502 0.93126 0.0
In52 In 0.03048 0.28753 0.90914 0.0
O53 O 0.03235 0.31007 0.92426 0.0
O54 O 0.02252 0.27899 0.9293 0.0
C55 C 0.03269 0.3088 0.88843 0.0
C56 C 0.99338 0.25311 0.90641 0.0
C57 C 0.06704 0.2882 0.90954 0.0
O58 O 0.0323 0.31546 0.89911 0.0
O59 O 0.032 0.29159 0.88826 0.0
O60 O 0.05035 0.27255 0.90626 0.0
O61 O 0.06535 0.30357 0.9126 0.0
C62 C 0.02625 0.29665 0.93275 0.0
O63 O 0.01007 0.25274 0.90714 0.0
O64 O 0.9954 0.27094 0.90693 0.0
In65 In 0.76222 0.76624 0.91084 0.0
O66 O 0.76017 0.74778 0.92809 0.0
O67 O 0.73604 0.75439 0.92524 0.0
C68 C 0.74437 0.74936 0.88895 0.0
C69 C 0.79927 0.76858 0.90858 0.0
C70 C 0.7649 0.80363 0.91238 0.0
O71 O 0.73656 0.74052 0.89911 0.0
O72 O 0.76101 0.76635 0.88992 0.0
O73 O 0.77619 0.79902 0.91876 0.0
O74 O 0.75225 0.78937 0.9054 0.0
C75 C 0.74366 0.74627 0.93211 0.0
O76 O 0.7975 0.7841 0.9112 0.0
O77 O 0.78238 0.75195 0.90709 0.0
In78 In 0.02696 0.76806 0.91309 0.0
O79 O 0.009 0.78526 0.91261 0.0
O80 O 0.99289 0.75332 0.90786 0.0
C81 C 0.06295 0.80359 0.91682 0.0
C82 C 0.02131 0.74922 0.93529 0.0
C83 C 0.03156 0.75295 0.89132 0.0
O84 O 0.04672 0.80324 0.91319 0.0
O85 O 0.06102 0.78601 0.9186 0.0
O86 O 0.02188 0.74134 0.90032 0.0
O87 O 0.03886 0.77196 0.89336 0.0
C88 C 0.99216 0.76973 0.90933 0.0
O89 O 0.03191 0.74742 0.92681 0.0
O90 O 0.01345 0.76018 0.93249 0.0
In91 In 0.29654 0.28965 0.90988 0.0
O92 O 0.31767 0.31186 0.92506 0.0
O93 O 0.2949 0.28146 0.9302 0.0
C94 C 0.31606 0.31455 0.89032 0.0
C95 C 0.29574 0.25391 0.9045 0.0
C96 C 0.26026 0.28905 0.91052 0.0
O97 O 0.32527 0.30886 0.89774 0.0
O98 O 0.29735 0.30794 0.89284 0.0
O99 O 0.26219 0.27474 0.90559 0.0
O100 O 0.27668 0.30369 0.91506 0.0
C101 C 0.30921 0.29888 0.93367 0.0
O102 O 0.27953 0.25479 0.9064 0.0
O103 O 0.31228 0.27105 0.90518 0.0
In104 In 0.76031 0.02959 0.91211 0.0
O105 O 0.75758 0.0454 0.92947 0.0
O106 O 0.73589 0.01356 0.92735 0.0
C107 C 0.7395 0.02941 0.89158 0.0
C108 C 0.79698 0.06484 0.91048 0.0
C109 C 0.76586 0.99646 0.91186 0.0
O110 O 0.73049 0.02235 0.90179 0.0
O111 O 0.75875 0.03657 0.89181 0.0
O112 O 0.77376 0.01035 0.92003 0.0
O113 O 0.75539 -0.0006 0.9038 0.0
C114 C 0.74252 0.02947 0.93402 0.0
O115 O 0.79554 0.04725 0.91095 0.0
O116 O 0.77995 0.06458 0.91087 0.0
In117 In 0.75958 0.02528 0.08544 0.0
O118 O 0.77654 0.00737 0.082 0.0
O119 O 0.74417 0.9902 0.08531 0.0
C120 C 0.79524 0.06096 0.08915 0.0
C121 C 0.74491 0.02745 0.06289 0.0
C122 C 0.74089 0.02393 0.10711 0.0
O123 O 0.79451 0.04373 0.08823 0.0
O124 O 0.77798 0.06013 0.08824 0.0
O125 O 0.73698 0.03032 0.09723 0.0
O126 O 0.75396 0.01805 0.10599 0.0
C127 C 0.76055 0.98981 0.08308 0.0
O128 O 0.76359 0.03837 0.06596 0.0
O129 O 0.73334 0.01547 0.07125 0.0
In130 In 0.02726 0.76671 0.08672 0.0
O131 O 0.02142 0.74139 0.07252 0.0
O132 O 0.03521 0.77245 0.0663 0.0
C133 C 0.02788 0.74871 0.10826 0.0
C134 C 0.06392 0.80192 0.08824 0.0
C135 C 0.99057 0.76578 0.08675 0.0
O136 O 0.02946 0.74181 0.0979 0.0
O137 O 0.02599 0.76455 0.1077 0.0
O138 O 0.00769 0.78235 0.08742 0.0
O139 O 0.99192 0.74965 0.08603 0.0
C140 C 0.02876 0.75382 0.06355 0.0
O141 O 0.04691 0.80168 0.08768 0.0
O142 O 0.06246 0.7843 0.08812 0.0
In143 In 0.29246 0.29154 0.08481 0.0
O144 O 0.2571 0.27408 0.08459 0.0
O145 O 0.27276 0.3069 0.08381 0.0
C146 C 0.28703 0.25302 0.08543 0.0
C147 C 0.31264 0.30918 0.0634 0.0
C148 C 0.3107 0.31026 0.10633 0.0
O149 O 0.27756 0.25823 0.07785 0.0
O150 O 0.29909 0.2672 0.09269 0.0
O151 O 0.32078 0.31369 0.09638 0.0
O152 O 0.29163 0.29765 0.10534 0.0
C153 C 0.25569 0.29021 0.084 0.0
O154 O 0.3138 0.29474 0.06865 0.0
O155 O 0.30197 0.31521 0.06915 0.0
In156 In 0.69997 0.62872 0.41931 0.0
O157 O 0.68649 0.63707 0.40275 0.0
O158 O 0.719 0.65085 0.40362 0.0
C159 C 0.69573 0.64481 0.44078 0.0
C160 C 0.73377 0.62474 0.42125 0.0
C161 C 0.66523 0.5915 0.41766 0.0
O162 O 0.70302 0.65576 0.43118 0.0
O163 O 0.69084 0.62617 0.43947 0.0
O164 O 0.68289 0.59336 0.41898 0.0
O165 O 0.66519 0.60835 0.41708 0.0
C166 C 0.70358 0.64859 0.39759 0.0
O167 O 0.71916 0.61395 0.41387 0.0
O168 O 0.73129 0.63749 0.42765 0.0
In169 In 0.42658 0.09158 0.41792 0.0
O170 O 0.40595 0.08487 0.40094 0.0
O171 O 0.42047 0.06696 0.40325 0.0
C172 C 0.40678 0.07287 0.4391 0.0
C173 C 0.4277 0.12821 0.41771 0.0
C174 C 0.46559 0.09818 0.41871 0.0
O175 O 0.40451 0.06283 0.42927 0.0
O176 O 0.41878 0.09206 0.43816 0.0
O177 O 0.45931 0.10515 0.41014 0.0
O178 O 0.45225 0.088 0.42688 0.0
C179 C 0.40904 0.07099 0.39663 0.0
O180 O 0.44388 0.12683 0.41766 0.0
O181 O 0.41099 0.11111 0.41771 0.0
In182 In 0.95225 0.36345 0.4201 0.0
O183 O 0.97573 0.368 0.40484 0.0
O184 O 0.9437 0.34907 0.40103 0.0
C185 C 0.97375 0.36836 0.44116 0.0
C186 C 0.91693 0.3279 0.4246 0.0
C187 C 0.95233 0.39937 0.41703 0.0
O188 O 0.97696 0.36098 0.43145 0.0
O189 O 0.95997 0.3733 0.44013 0.0
O190 O 0.93687 0.38321 0.42112 0.0
O191 O 0.96772 0.39739 0.41443 0.0
C192 C 0.96196 0.35683 0.3971 0.0
O193 O 0.91727 0.34454 0.42192 0.0
O194 O 0.93448 0.32927 0.42517 0.0
In195 In 0.95867 0.36342 0.24243 0.0
O196 O 0.94414 0.38378 0.24038 0.0
O197 O 0.97501 0.39785 0.24707 0.0
C198 C 0.92249 0.32884 0.23758 0.0
C199 C 0.96691 0.357 0.26588 0.0
C200 C 0.98091 0.36596 0.22212 0.0
O201 O 0.92356 0.3457 0.24058 0.0
O202 O 0.93971 0.32953 0.23686 0.0
O203 O 0.98225 0.35784 0.23207 0.0
O204 O 0.96873 0.37301 0.22254 0.0
C205 C 0.95986 0.40004 0.24414 0.0
O206 O 0.98113 0.36848 0.25847 0.0
O207 O 0.94897 0.34886 0.26141 0.0
In208 In 0.69542 0.62645 0.24329 0.0
O209 O 0.67418 0.59199 0.24052 0.0
O210 O 0.66024 0.60989 0.24528 0.0
C211 C 0.73149 0.6269 0.24009 0.0
C212 C 0.6981 0.63742 0.26733 0.0
C213 C 0.6948 0.64663 0.22271 0.0
O214 O 0.71421 0.61043 0.24019 0.0
O215 O 0.7306 0.6432 0.24154 0.0
O216 O 0.69937 0.65527 0.23319 0.0
O217 O 0.69041 0.628 0.22272 0.0
C218 C 0.65773 0.59227 0.24272 0.0
O219 O 0.69525 0.64739 0.25885 0.0
O220 O 0.69941 0.6221 0.26363 0.0
In221 In 0.43072 0.09542 0.24748 0.0
O222 O 0.41095 0.0896 0.26478 0.0
O223 O 0.42271 0.06946 0.2616 0.0
C224 C 0.41215 0.07977 0.22552 0.0
C225 C 0.46859 0.09924 0.24736 0.0
C226 C 0.43214 0.1322 0.24794 0.0
O227 O 0.406 0.06941 0.2354 0.0
O228 O 0.42753 0.09763 0.22678 0.0
O229 O 0.44828 0.13074 0.24833 0.0
O230 O 0.41541 0.11515 0.24745 0.0
C231 C 0.41245 0.07448 0.26859 0.0
O232 O 0.46403 0.10983 0.25444 0.0
O233 O 0.45411 0.0869 0.24037 0.0
In234 In 0.69683 0.09855 0.24521 0.0
O235 O 0.67848 0.11398 0.25143 0.0
O236 O 0.66346 0.08735 0.23992 0.0
C237 C 0.73143 0.13548 0.24165 0.0
C238 C 0.69786 0.08237 0.26753 0.0
C239 C 0.6955 0.07758 0.22456 0.0
O240 O 0.71437 0.13397 0.24461 0.0
O241 O 0.73097 0.11845 0.24051 0.0
O242 O 0.69801 0.07208 0.23518 0.0
O243 O 0.69353 0.09339 0.22446 0.0
C244 C 0.66218 0.10126 0.24581 0.0
O245 O 0.68158 0.07559 0.26122 0.0
O246 O 0.71365 0.09685 0.26247 0.0
In247 In 0.96058 0.62906 0.24581 0.0
O248 O 0.94588 0.59432 0.24366 0.0
O249 O 0.97754 0.61108 0.24901 0.0
C250 C 0.92474 0.62879 0.24174 0.0
C251 C 0.97017 0.64184 0.26952 0.0
C252 C 0.98233 0.64892 0.22537 0.0
O253 O 0.92586 0.61251 0.24213 0.0
O254 O 0.94173 0.64526 0.24333 0.0
O255 O 0.98314 0.65837 0.23522 0.0
O256 O 0.97089 0.62958 0.22593 0.0
C257 C 0.96197 0.59373 0.24648 0.0
O258 O 0.98325 0.64967 0.26089 0.0
O259 O 0.95256 0.62769 0.26616 0.0
In260 In 0.43284 0.3611 0.24422 0.0
O261 O 0.41331 0.36366 0.2599 0.0
O262 O 0.43609 0.35562 0.26444 0.0
C263 C 0.41192 0.35999 0.22359 0.0
C264 C 0.46672 0.39901 0.24321 0.0
C265 C 0.43298 0.32519 0.24206 0.0
O266 O 0.40351 0.35583 0.23415 0.0
O267 O 0.43066 0.36476 0.22355 0.0
O268 O 0.44937 0.34258 0.24216 0.0
O269 O 0.41649 0.32594 0.24284 0.0
C270 C 0.4221 0.35897 0.26826 0.0
O271 O 0.46715 0.38268 0.24086 0.0
O272 O 0.44914 0.39624 0.24613 0.0
In273 In 0.43815 0.36125 0.4221 0.0
O274 O 0.41803 0.36434 0.40701 0.0
O275 O 0.43832 0.35334 0.40194 0.0
C276 C 0.42136 0.36529 0.44331 0.0
C277 C 0.43539 0.32417 0.42531 0.0
C278 C 0.47416 0.39735 0.4206 0.0
O279 O 0.41128 0.35983 0.43329 0.0
O280 O 0.43957 0.36852 0.44254 0.0
O281 O 0.47326 0.3804 0.42306 0.0
O282 O 0.45685 0.39611 0.41887 0.0
C283 C 0.425 0.35792 0.39848 0.0
O284 O 0.45244 0.34092 0.425 0.0
O285 O 0.41962 0.32615 0.42429 0.0
In286 In 0.69235 0.09598 0.41958 0.0
O287 O 0.67647 0.0753 0.40275 0.0
O288 O 0.70907 0.08996 0.40381 0.0
C289 C 0.69018 0.07392 0.43992 0.0
C290 C 0.72746 0.1329 0.4213 0.0
C291 C 0.65967 0.10214 0.42021 0.0
O292 O 0.68265 0.06535 0.42966 0.0
O293 O 0.69873 0.09335 0.43982 0.0
O294 O 0.67332 0.10974 0.41188 0.0
O295 O 0.66263 0.09164 0.42825 0.0
C296 C 0.69301 0.07856 0.39766 0.0
O297 O 0.70995 0.13135 0.41995 0.0
O298 O 0.72721 0.1159 0.4217 0.0
In299 In 0.96633 0.63425 0.4199 0.0
O300 O 0.99017 0.64639 0.40425 0.0
O301 O 0.96759 0.65558 0.40427 0.0
C302 C 0.98929 0.65122 0.44053 0.0
C303 C 0.9277 0.6281 0.42218 0.0
C304 C 0.96182 0.59634 0.41691 0.0
O305 O 0.98567 0.66177 0.43289 0.0
O306 O 0.98155 0.63245 0.4377 0.0
O307 O 0.94891 0.59924 0.42283 0.0
O308 O 0.97685 0.6125 0.41247 0.0
C309 C 0.98273 0.65611 0.39881 0.0
O310 O 0.93276 0.61979 0.41375 0.0
O311 O 0.9421 0.6394 0.42955 0.0
In312 In 0.3571 0.95681 0.74982 0.0
O313 O 0.37216 0.97695 0.73282 0.0
O314 O 0.34068 0.96729 0.73606 0.0
C315 C 0.35738 0.97279 0.77228 0.0
C316 C 0.39248 0.95551 0.75043 0.0
C317 C 0.32286 0.91905 0.74862 0.0
O318 O 0.35604 0.98112 0.7624 0.0
O319 O 0.35869 0.95677 0.77072 0.0
O320 O 0.33832 0.92413 0.74171 0.0
O321 O 0.32474 0.93297 0.75599 0.0
C322 C 0.35619 0.97697 0.72913 0.0
O323 O 0.37511 0.9396 0.74848 0.0
O324 O 0.39194 0.97199 0.75196 0.0
In325 In 0.10119 0.43568 0.75221 0.0
O326 O 0.07722 0.41495 0.73768 0.0
O327 O 0.10798 0.43546 0.7318 0.0
C328 C 0.08191 0.41648 0.77337 0.0
C329 C 0.09885 0.47055 0.75169 0.0
C330 C 0.13704 0.4355 0.75475 0.0
O331 O 0.07846 0.40703 0.76319 0.0
O332 O 0.09483 0.43555 0.77282 0.0
O333 O 0.1363 0.452 0.75418 0.0
O334 O 0.11969 0.41913 0.75424 0.0
C335 C 0.08995 0.42172 0.72883 0.0
O336 O 0.11562 0.47062 0.75331 0.0
O337 O 0.08316 0.45283 0.75033 0.0
In338 In 0.6242 0.69458 0.74934 0.0
O339 O 0.64573 0.70839 0.73275 0.0
O340 O 0.63318 0.67638 0.73602 0.0
C341 C 0.64153 0.69704 0.77165 0.0
C342 C 0.58596 0.66098 0.74923 0.0
C343 C 0.62289 0.73 0.74805 0.0
O344 O 0.64789 0.69255 0.76195 0.0
O345 O 0.62654 0.70006 0.77004 0.0
O346 O 0.60709 0.71249 0.74631 0.0
O347 O 0.63924 0.72958 0.75034 0.0
C348 C 0.64432 0.69168 0.72922 0.0
O349 O 0.59187 0.67493 0.74109 0.0
O350 O 0.5993 0.66404 0.75737 0.0
In351 In 0.63104 0.69319 0.58174 0.0
O352 O 0.61385 0.71119 0.58282 0.0
O353 O 0.6465 0.7282 0.58037 0.0
C354 C 0.59307 0.65923 0.58278 0.0
C355 C 0.65023 0.69124 0.60259 0.0
C356 C 0.64751 0.69421 0.55931 0.0
O357 O 0.59803 0.67504 0.58934 0.0
O358 O 0.60724 0.6606 0.57581 0.0
O359 O 0.65581 0.69292 0.56921 0.0
O360 O 0.6312 0.695 0.56083 0.0
C361 C 0.6299 0.72866 0.58147 0.0
O362 O 0.65069 0.70749 0.599 0.0
O363 O 0.6406 0.67599 0.59547 0.0
In364 In 0.35996 0.96252 0.58072 0.0
O365 O 0.37432 0.98087 0.59836 0.0
O366 O 0.34336 0.97275 0.5945 0.0
C367 C 0.36062 0.98032 0.55885 0.0
C368 C 0.32583 0.92479 0.58199 0.0
C369 C 0.39508 0.96061 0.57972 0.0
O370 O 0.36143 0.98893 0.56906 0.0
O371 O 0.35949 0.96297 0.55975 0.0
O372 O 0.37746 0.94471 0.58079 0.0
O373 O 0.39497 0.97743 0.57913 0.0
C374 C 0.35846 0.98131 0.60185 0.0
O375 O 0.34131 0.93004 0.58891 0.0
O376 O 0.32758 0.9386 0.57455 0.0
In377 In 0.09944 0.43367 0.57879 0.0
O378 O 0.08235 0.43153 0.59669 0.0
O379 O 0.08881 0.4075 0.59315 0.0
C380 C 0.08032 0.41725 0.55708 0.0
C381 C 0.13635 0.43524 0.57921 0.0
C382 C 0.1022 0.47105 0.57853 0.0
O383 O 0.07266 0.40885 0.56735 0.0
O384 O 0.09749 0.43374 0.5578 0.0
O385 O 0.11796 0.46899 0.57929 0.0
O386 O 0.08521 0.45431 0.5777 0.0
C387 C 0.08118 0.41506 0.60045 0.0
O388 O 0.13322 0.44823 0.58484 0.0
O389 O 0.12092 0.42157 0.57338 0.0
In390 In 0.3635 0.43191 0.58122 0.0
O391 O 0.34545 0.44876 0.58455 0.0
O392 O 0.32925 0.41838 0.57705 0.0
C393 C 0.39802 0.46952 0.58208 0.0
C394 C 0.36428 0.41168 0.60194 0.0
C395 C 0.36389 0.41591 0.55889 0.0
O396 O 0.38206 0.46528 0.5883 0.0
O397 O 0.39648 0.45487 0.57551 0.0
O398 O 0.36301 0.40666 0.56886 0.0
O399 O 0.36431 0.43289 0.56025 0.0
C400 C 0.3285 0.43406 0.58066 0.0
O401 O 0.34804 0.41073 0.59786 0.0
O402 O 0.38004 0.42228 0.59537 0.0
In403 In 0.61943 0.95162 0.57836 0.0
O404 O 0.60487 0.91674 0.57701 0.0
O405 O 0.63775 0.93477 0.57696 0.0
C406 C 0.58396 0.95302 0.57885 0.0
C407 C 0.63408 0.96388 0.60152 0.0
C408 C 0.63649 0.96974 0.55655 0.0
O409 O 0.58425 0.93633 0.578 0.0
O410 O 0.60156 0.96903 0.57949 0.0
O411 O 0.64508 0.97738 0.56679 0.0
O412 O 0.61949 0.95307 0.55736 0.0
C413 C 0.62188 0.91697 0.57661 0.0
O414 O 0.64121 0.97598 0.59238 0.0
O415 O 0.61974 0.94593 0.59893 0.0
In416 In 0.09761 0.69681 0.58323 0.0
O417 O 0.07454 0.68275 0.59916 0.0
O418 O 0.08993 0.71526 0.59712 0.0
C419 C 0.07994 0.6935 0.56087 0.0
C420 C 0.13571 0.73052 0.58302 0.0
C421 C 0.10049 0.66235 0.58539 0.0
O422 O 0.07591 0.70133 0.57006 0.0
O423 O 0.09262 0.68745 0.56303 0.0
O424 O 0.1162 0.68026 0.58544 0.0
O425 O 0.08343 0.66192 0.58441 0.0
C426 C 0.07736 0.69972 0.60331 0.0
O427 O 0.12984 0.717 0.59144 0.0
O428 O 0.12243 0.72694 0.57474 0.0
In429 In 0.09065 0.69522 0.75101 0.0
O430 O 0.06981 0.68114 0.73413 0.0
O431 O 0.08249 0.71325 0.73711 0.0
C432 C 0.07405 0.69534 0.77322 0.0
C433 C 0.09153 0.65955 0.75092 0.0
C434 C 0.12906 0.72853 0.74986 0.0
O435 O 0.0667 0.69761 0.7632 0.0
O436 O 0.08936 0.69273 0.77194 0.0
O437 O 0.12306 0.7134 0.74255 0.0
O438 O 0.11572 0.72679 0.75767 0.0
C439 C 0.07161 0.69789 0.73029 0.0
O440 O 0.10769 0.67704 0.75012 0.0
O441 O 0.07492 0.66006 0.75176 0.0
In442 In 0.36225 0.4288 0.75031 0.0
O443 O 0.38132 0.46101 0.74182 0.0
O444 O 0.39292 0.45411 0.75799 0.0
C445 C 0.32703 0.43048 0.74998 0.0
C446 C 0.36393 0.40913 0.72961 0.0
C447 C 0.36101 0.41127 0.77242 0.0
O448 O 0.34467 0.44646 0.74911 0.0
O449 O 0.32721 0.41371 0.75088 0.0
O450 O 0.36676 0.4062 0.76269 0.0
O451 O 0.356 0.4249 0.7709 0.0
C452 C 0.39553 0.46724 0.74981 0.0
O453 O 0.34739 0.40737 0.73378 0.0
O454 O 0.37965 0.42026 0.73612 0.0
In455 In 0.62224 0.95858 0.75218 0.0
O456 O 0.58714 0.94085 0.75323 0.0
O457 O 0.60257 0.97373 0.75464 0.0
C458 C 0.6216 0.9221 0.7506 0.0
C459 C 0.63814 0.97634 0.72993 0.0
C460 C 0.63954 0.97645 0.77402 0.0
O461 O 0.60638 0.92407 0.74754 0.0
O462 O 0.63707 0.93848 0.75443 0.0
O463 O 0.64665 0.98541 0.7638 0.0
O464 O 0.62384 0.95868 0.77318 0.0
C465 C 0.58558 0.95685 0.75445 0.0
O466 O 0.64864 0.97331 0.73791 0.0
O467 O 0.61999 0.97087 0.73328 0.0
C468 C 0.10006 0.30622 0.08275 0.0
C469 C 0.08143 0.28753 0.08437 0.0
C470 C 0.11889 0.30646 0.08241 0.0
C471 C 0.14153 0.27316 0.07694 0.0
H472 H 0.18819 0.31565 0.09519 0.0
C473 C 0.21699 0.27085 0.08448 0.0
C474 C 0.23568 0.2897 0.08364 0.0
C475 C 0.1981 0.27051 0.08433 0.0
C476 C 0.17539 0.30383 0.08992 0.0
H477 H 0.06782 0.25442 0.08683 0.0
H478 H 0.10071 0.25484 0.0863 0.0
H479 H 0.15538 0.31529 0.09527 0.0
H480 H 0.24931 0.32293 0.08183 0.0
H481 H 0.21638 0.32231 0.0814 0.0
H482 H 0.16156 0.26172 0.07157 0.0
C483 C 0.10076 0.26928 0.08518 0.0
C484 C 0.15659 0.30363 0.08997 0.0
C485 C 0.08195 0.26906 0.08556 0.0
C486 C 0.23514 0.30817 0.08255 0.0
C487 C 0.21627 0.30782 0.08238 0.0
C488 C 0.16036 0.27339 0.07686 0.0
C489 C 0.11944 0.288 0.08365 0.0
C490 C 0.13945 0.28828 0.08349 0.0
C491 C 0.19753 0.289 0.08332 0.0
C492 C 0.1775 0.28873 0.08336 0.0
H493 H 0.10012 0.32069 0.08178 0.0
H494 H 0.133 0.32109 0.08108 0.0
H495 H 0.12867 0.2613 0.07172 0.0
H496 H 0.21695 0.25638 0.08535 0.0
H497 H 0.18395 0.25577 0.08522 0.0
C498 C 0.77954 0.97046 0.07978 0.0
C499 C 0.76095 0.97029 0.0821 0.0
C500 C 0.77987 0.95191 0.07917 0.0
C501 C 0.75047 0.89754 0.08931 0.0
H502 H 0.78212 0.88852 0.06412 0.0
C503 C 0.74224 0.81764 0.08148 0.0
C504 C 0.76048 0.81693 0.0796 0.0
C505 C 0.74263 0.83653 0.08142 0.0
C506 C 0.77338 0.8909 0.07129 0.0
H507 H 0.72808 0.95063 0.08543 0.0
H508 H 0.72861 0.91832 0.08427 0.0
H509 H 0.78229 0.92132 0.06473 0.0
H510 H 0.79339 0.83536 0.076 0.0
H511 H 0.79411 0.86844 0.07599 0.0
H512 H 0.74157 0.86721 0.09589 0.0
C513 C 0.74299 0.93275 0.08309 0.0
C514 C 0.77348 0.90968 0.07164 0.0
C515 C 0.74267 0.95126 0.08368 0.0
C516 C 0.77908 0.83545 0.07746 0.0
C517 C 0.77948 0.85437 0.0774 0.0
C518 C 0.75037 0.87881 0.08896 0.0
C519 C 0.76161 0.93286 0.08091 0.0
C520 C 0.76192 0.91314 0.08062 0.0
C521 C 0.76128 0.85513 0.07949 0.0
C522 C 0.76172 0.87522 0.07991 0.0
H523 H 0.79388 0.98492 0.07854 0.0
H524 H 0.79448 0.95251 0.07758 0.0
H525 H 0.74173 0.89988 0.09649 0.0
H526 H 0.72765 0.80361 0.0831 0.0
H527 H 0.72829 0.83656 0.08287 0.0
C528 C 0.08466 0.84049 0.08799 0.0
C529 C 0.08398 0.82136 0.08856 0.0
C530 C 0.1036 0.85893 0.08782 0.0
C531 C 0.15875 0.88137 0.09555 0.0
H532 H 0.16595 0.92423 0.07244 0.0
C533 C 0.2381 0.95423 0.08699 0.0
C534 C 0.23843 0.97313 0.0858 0.0
C535 C 0.21932 0.93561 0.08731 0.0
C536 C 0.16412 0.91252 0.07904 0.0
H537 H 0.10254 0.8065 0.08955 0.0
H538 H 0.1357 0.83877 0.08923 0.0
H539 H 0.13304 0.89191 0.07323 0.0
H540 H 0.21942 0.98741 0.08404 0.0
H541 H 0.18661 0.95492 0.08476 0.0
H542 H 0.1898 0.90201 0.10141 0.0
C543 C 0.12157 0.83949 0.089 0.0
C544 C 0.14527 0.894 0.07949 0.0
C545 C 0.1026 0.82103 0.08913 0.0
C546 C 0.21964 0.97306 0.08491 0.0
C547 C 0.20085 0.95444 0.08526 0.0
C548 C 0.1776 0.89992 0.09512 0.0
C549 C 0.12227 0.85863 0.08825 0.0
C550 C 0.14236 0.87824 0.08776 0.0
C551 C 0.20047 0.9355 0.08647 0.0
C552 C 0.18049 0.91572 0.08688 0.0
H553 H 0.07055 0.84123 0.08757 0.0
H554 H 0.10364 0.87344 0.08741 0.0
H555 H 0.15689 0.8696 0.10212 0.0
H556 H 0.25236 0.95381 0.08765 0.0
H557 H 0.21957 0.92127 0.08808 0.0
C558 C 0.27658 0.0824 0.90718 0.0
C559 C 0.29463 0.08126 0.90547 0.0
C560 C 0.27683 0.10104 0.90533 0.0
C561 C 0.31221 0.15698 0.90584 0.0
H562 H 0.26707 0.15954 0.88981 0.0
C563 C 0.31393 0.23432 0.89968 0.0
C564 C 0.29549 0.23428 0.90233 0.0
C565 C 0.31399 0.21573 0.8985 0.0
C566 C 0.27972 0.15906 0.8944 0.0
H567 H 0.32697 0.09856 0.9002 0.0
H568 H 0.32741 0.13116 0.89699 0.0
H569 H 0.26682 0.12673 0.89066 0.0
H570 H 0.26258 0.21479 0.90551 0.0
H571 H 0.26271 0.18231 0.90369 0.0
H572 H 0.3249 0.18909 0.90989 0.0
C573 C 0.31311 0.11767 0.89985 0.0
C574 C 0.27958 0.14027 0.89486 0.0
C575 C 0.31284 0.099 0.90164 0.0
C576 C 0.27701 0.21529 0.90344 0.0
C577 C 0.27709 0.19668 0.90233 0.0
C578 C 0.31231 0.17571 0.90544 0.0
C579 C 0.29516 0.11893 0.90179 0.0
C580 C 0.29576 0.13902 0.90067 0.0
C581 C 0.29563 0.19668 0.90002 0.0
C582 C 0.29599 0.17696 0.8998 0.0
H583 H 0.26231 0.06896 0.91012 0.0
H584 H 0.26281 0.10159 0.90702 0.0
H585 H 0.32474 0.15644 0.91056 0.0
H586 H 0.32839 0.24874 0.89869 0.0
H587 H 0.32847 0.21629 0.8965 0.0
C588 C 0.97173 0.21463 0.90537 0.0
C589 C 0.97304 0.23406 0.90556 0.0
C590 C 0.95249 0.19651 0.90517 0.0
C591 C 0.89788 0.1767 0.91322 0.0
H592 H 0.88867 0.12959 0.89333 0.0
C593 C 0.81764 0.10336 0.90899 0.0
C594 C 0.81699 0.08425 0.9095 0.0
C595 C 0.83654 0.12177 0.90808 0.0
C596 C 0.89107 0.14255 0.89902 0.0
H597 H 0.9553 0.24982 0.90546 0.0
H598 H 0.92164 0.21815 0.905 0.0
H599 H 0.92187 0.16164 0.89222 0.0
H600 H 0.83557 0.06936 0.90945 0.0
H601 H 0.86863 0.10154 0.90796 0.0
H602 H 0.86715 0.15759 0.92008 0.0
C603 C 0.93549 0.21692 0.90516 0.0
C604 C 0.91008 0.16091 0.89838 0.0
C605 C 0.95475 0.23505 0.90535 0.0
C606 C 0.8356 0.08388 0.90905 0.0
C607 C 0.85452 0.10229 0.90812 0.0
C608 C 0.87888 0.15835 0.91386 0.0
C609 C 0.93415 0.19745 0.90517 0.0
C610 C 0.91373 0.17816 0.90551 0.0
C611 C 0.8552 0.12145 0.90764 0.0
C612 C 0.87529 0.14104 0.90681 0.0
H613 H 0.98557 0.21338 0.90556 0.0
H614 H 0.95199 0.18177 0.90533 0.0
H615 H 0.90032 0.18959 0.91899 0.0
H616 H 0.80354 0.10412 0.90928 0.0
H617 H 0.83653 0.13625 0.90757 0.0
C618 C 0.83792 0.78837 0.9096 0.0
C619 C 0.81949 0.76965 0.90755 0.0
C620 C 0.85701 0.7892 0.90894 0.0
C621 C 0.88247 0.76125 0.89675 0.0
H622 H 0.92307 0.79134 0.92228 0.0
C623 C 0.95429 0.75264 0.90478 0.0
C624 C 0.97294 0.77054 0.90784 0.0
C625 C 0.93592 0.75324 0.90396 0.0
C626 C 0.91203 0.78311 0.91498 0.0
H627 H 0.80656 0.73717 0.90308 0.0
H628 H 0.83985 0.73857 0.90203 0.0
H629 H 0.89037 0.79119 0.92227 0.0
H630 H 0.98711 0.8032 0.91215 0.0
H631 H 0.95509 0.80431 0.9106 0.0
H632 H 0.90409 0.75301 0.88952 0.0
C633 C 0.83959 0.75266 0.90401 0.0
C634 C 0.89329 0.78302 0.91498 0.0
C635 C 0.82052 0.75183 0.90468 0.0
C636 C 0.97294 0.78914 0.90983 0.0
C637 C 0.95459 0.78974 0.90901 0.0
C638 C 0.90123 0.76134 0.89674 0.0
C639 C 0.85805 0.77133 0.90619 0.0
C640 C 0.87825 0.772 0.90591 0.0
C641 C 0.93584 0.77176 0.90618 0.0
C642 C 0.91617 0.77218 0.9059 0.0
H643 H 0.83759 0.80236 0.91178 0.0
H644 H 0.87097 0.80386 0.91052 0.0
H645 H 0.87132 0.75285 0.88953 0.0
H646 H 0.95382 0.73808 0.90321 0.0
H647 H 0.9217 0.73908 0.90189 0.0
C648 C 0.76834 0.63534 0.43053 0.0
C649 C 0.75255 0.62296 0.42215 0.0
C650 C 0.78642 0.63417 0.43111 0.0
C651 C 0.81818 0.61958 0.41239 0.0
H652 H 0.84427 0.62131 0.44375 0.0
C653 C 0.89107 0.61191 0.41496 0.0
C654 C 0.90675 0.62539 0.42306 0.0
C655 C 0.87152 0.61007 0.41536 0.0
C656 C 0.83727 0.621 0.43492 0.0
H657 H 0.7431 0.59938 0.40798 0.0
H658 H 0.77467 0.59727 0.40903 0.0
H659 H 0.81137 0.62091 0.44351 0.0
H660 H 0.91424 0.64729 0.43806 0.0
H661 H 0.88022 0.64437 0.43864 0.0
H662 H 0.84415 0.62002 0.40376 0.0
C663 C 0.77316 0.60804 0.41505 0.0
C664 C 0.81842 0.62074 0.43478 0.0
C665 C 0.75505 0.60917 0.41449 0.0
C666 C 0.90242 0.63673 0.43173 0.0
C667 C 0.88289 0.63496 0.4321 0.0
C668 C 0.83703 0.61989 0.41252 0.0
C669 C 0.7891 0.62063 0.42331 0.0
C670 C 0.80872 0.62013 0.42351 0.0
C671 C 0.86727 0.62176 0.42384 0.0
C672 C 0.84685 0.6207 0.42378 0.0
H673 H 0.76684 0.64612 0.43655 0.0
H674 H 0.79851 0.64424 0.43747 0.0
H675 H 0.81127 0.61944 0.40355 0.0
H676 H 0.89393 0.60287 0.40824 0.0
H677 H 0.85974 0.59951 0.40901 0.0
C678 C 0.41496 0.28548 0.42523 0.0
C679 C 0.43416 0.30384 0.42589 0.0
C680 C 0.414 0.26631 0.42475 0.0
C681 C 0.44543 0.24299 0.41591 0.0
H682 H 0.40426 0.19534 0.4341 0.0
C683 C 0.44724 0.16681 0.41887 0.0
C684 C 0.42826 0.14823 0.41817 0.0
C685 C 0.44774 0.18572 0.41977 0.0
C686 C 0.41569 0.20845 0.42884 0.0
H687 H 0.46735 0.31653 0.42693 0.0
H688 H 0.46566 0.28309 0.42622 0.0
H689 H 0.40551 0.2285 0.43619 0.0
H690 H 0.39495 0.13484 0.41771 0.0
H691 H 0.39583 0.16789 0.41912 0.0
H692 H 0.45557 0.22299 0.40851 0.0
C693 C 0.45137 0.2835 0.42588 0.0
C694 C 0.41642 0.22744 0.43006 0.0
C695 C 0.45233 0.30265 0.42638 0.0
C696 C 0.40981 0.14893 0.41827 0.0
C697 C 0.41031 0.16784 0.41916 0.0
C698 C 0.44468 0.22402 0.41467 0.0
C699 C 0.43222 0.26514 0.42488 0.0
C700 C 0.43135 0.24493 0.42364 0.0
C701 C 0.42928 0.18645 0.41998 0.0
C702 C 0.42985 0.20654 0.42115 0.0
H703 H 0.40071 0.28595 0.4248 0.0
H704 H 0.39902 0.25244 0.42389 0.0
H705 H 0.45687 0.2561 0.41065 0.0
H706 H 0.46171 0.16674 0.41886 0.0
H707 H 0.46261 0.19975 0.42054 0.0
C708 C 0.8978 0.2897 0.42816 0.0
C709 C 0.89745 0.3081 0.42612 0.0
C710 C 0.87937 0.27075 0.42863 0.0
C711 C 0.82281 0.24689 0.43266 0.0
H712 H 0.82117 0.20164 0.4141 0.0
C713 C 0.74652 0.17162 0.42163 0.0
C714 C 0.74677 0.15297 0.42242 0.0
C715 C 0.76489 0.19057 0.42266 0.0
C716 C 0.82143 0.21402 0.41946 0.0
H717 H 0.87757 0.3212 0.42331 0.0
H718 H 0.84539 0.28809 0.42407 0.0
H719 H 0.8533 0.23461 0.41529 0.0
H720 H 0.76635 0.13948 0.42504 0.0
H721 H 0.79833 0.17249 0.42696 0.0
H722 H 0.79086 0.22628 0.43678 0.0
C723 C 0.85988 0.28831 0.4254 0.0
C724 C 0.83985 0.23292 0.42015 0.0
C725 C 0.87831 0.30726 0.42491 0.0
C726 C 0.76569 0.15361 0.42432 0.0
C727 C 0.78403 0.17253 0.42537 0.0
C728 C 0.80436 0.22795 0.43199 0.0
C729 C 0.86023 0.26982 0.42709 0.0
C730 C 0.84075 0.24958 0.42673 0.0
C731 C 0.78386 0.19123 0.4245 0.0
C732 C 0.80346 0.21132 0.42535 0.0
H733 H 0.91233 0.28989 0.42917 0.0
H734 H 0.88012 0.25679 0.43012 0.0
H735 H 0.82308 0.25938 0.43792 0.0
H736 H 0.73215 0.17158 0.42015 0.0
H737 H 0.76427 0.2047 0.4218 0.0
C738 C 0.97866 0.43802 0.24861 0.0
C739 C 0.96057 0.42013 0.24481 0.0
C740 C 0.97941 0.4571 0.24896 0.0
C741 C 0.95378 0.48428 0.236 0.0
H742 H 0.98019 0.5223 0.26329 0.0
C743 C 0.94475 0.55558 0.2433 0.0
C744 C 0.96246 0.57421 0.2466 0.0
C745 C 0.94512 0.53709 0.24316 0.0
C746 C 0.97297 0.51194 0.25554 0.0
H747 H 0.92899 0.40808 0.23856 0.0
H748 H 0.93021 0.44129 0.2393 0.0
H749 H 0.97962 0.4893 0.26298 0.0
H750 H 0.99444 0.58811 0.25246 0.0
H751 H 0.99514 0.5557 0.25219 0.0
H752 H 0.94702 0.50681 0.2286 0.0
C753 C 0.94393 0.44068 0.24183 0.0
C754 C 0.97264 0.49305 0.25536 0.0
C755 C 0.94319 0.42163 0.24148 0.0
C756 C 0.98055 0.57397 0.24988 0.0
C757 C 0.98091 0.55542 0.24978 0.0
C758 C 0.95408 0.50312 0.2362 0.0
C759 C 0.96208 0.45866 0.24551 0.0
C760 C 0.96291 0.47895 0.24562 0.0
C761 C 0.96322 0.5368 0.24635 0.0
C762 C 0.96355 0.5171 0.24601 0.0
H763 H 0.99231 0.43733 0.25122 0.0
H764 H 0.99369 0.4707 0.25172 0.0
H765 H 0.94653 0.47395 0.22824 0.0
H766 H 0.93055 0.55527 0.24077 0.0
H767 H 0.93115 0.52296 0.24066 0.0
C768 C 0.63551 0.55445 0.23883 0.0
C769 C 0.6372 0.5734 0.2422 0.0
C770 C 0.6162 0.53651 0.23827 0.0
C771 C 0.56315 0.5132 0.25016 0.0
H772 H 0.55131 0.47398 0.22354 0.0
C773 C 0.48433 0.43752 0.24538 0.0
C774 C 0.48535 0.4197 0.24252 0.0
C775 C 0.50208 0.45707 0.24476 0.0
C776 C 0.55444 0.48471 0.23107 0.0
H777 H 0.62003 0.58849 0.24761 0.0
H778 H 0.58613 0.55702 0.24662 0.0
H779 H 0.58374 0.50683 0.22348 0.0
H780 H 0.50565 0.4083 0.23675 0.0
H781 H 0.5366 0.44231 0.23578 0.0
H782 H 0.53394 0.49091 0.25785 0.0
C783 C 0.59981 0.55606 0.24449 0.0
C784 C 0.57301 0.50353 0.23104 0.0
C785 C 0.61917 0.57407 0.245 0.0
C786 C 0.50438 0.42177 0.23898 0.0
C787 C 0.52208 0.44127 0.23834 0.0
C788 C 0.54455 0.49435 0.2502 0.0
C789 C 0.59813 0.5371 0.24109 0.0
C790 C 0.57771 0.51784 0.24068 0.0
C791 C 0.52115 0.45914 0.24123 0.0
C792 C 0.54015 0.47977 0.24075 0.0
H793 H 0.64914 0.55344 0.23663 0.0
H794 H 0.61546 0.52209 0.23582 0.0
H795 H 0.56642 0.52383 0.25778 0.0
H796 H 0.46983 0.43638 0.24811 0.0
H797 H 0.50083 0.47057 0.24694 0.0
C798 C 0.49265 0.08756 0.2398 0.0
C799 C 0.48906 0.10071 0.24739 0.0
C800 C 0.51173 0.08839 0.24002 0.0
C801 C 0.56655 0.12165 0.24808 0.0
H802 H 0.5666 0.06974 0.24852 0.0
C803 C 0.64146 0.117 0.25351 0.0
C804 C 0.64293 0.10226 0.24617 0.0
C805 C 0.62295 0.11744 0.25403 0.0
C806 C 0.56688 0.08437 0.24826 0.0
H807 H 0.50268 0.12526 0.26102 0.0
H808 H 0.53617 0.12672 0.2614 0.0
H809 H 0.53387 0.06945 0.2487 0.0
H810 H 0.62639 0.0767 0.23344 0.0
H811 H 0.59431 0.07766 0.23418 0.0
H812 H 0.59961 0.13656 0.2475 0.0
C813 C 0.52421 0.11583 0.25525 0.0
C814 C 0.54811 0.0842 0.24838 0.0
C815 C 0.50503 0.11494 0.25508 0.0
C816 C 0.62568 0.08816 0.23925 0.0
C817 C 0.60725 0.08863 0.23973 0.0
C818 C 0.58537 0.12182 0.24791 0.0
C819 C 0.52768 0.10243 0.24779 0.0
C820 C 0.54772 0.10282 0.24817 0.0
C821 C 0.6056 0.10315 0.2472 0.0
C822 C 0.58573 0.10317 0.24788 0.0
H823 H 0.48066 0.07649 0.23374 0.0
H824 H 0.51404 0.07809 0.23402 0.0
H825 H 0.56671 0.13623 0.24781 0.0
H826 H 0.65452 0.12805 0.25896 0.0
H827 H 0.62213 0.12871 0.25995 0.0
C828 C 0.41183 0.93616 0.74989 0.0
C829 C 0.41193 0.95494 0.75108 0.0
C830 C 0.43028 0.93569 0.75072 0.0
C831 C 0.48387 0.96585 0.76246 0.0
H832 H 0.49437 0.93198 0.7397 0.0
C833 C 0.56446 0.97417 0.75645 0.0
C834 C 0.56541 0.95596 0.75512 0.0
C835 C 0.54539 0.97343 0.75655 0.0
C836 C 0.49155 0.94132 0.74623 0.0
H837 H 0.43136 0.98796 0.75396 0.0
H838 H 0.46354 0.9872 0.75523 0.0
H839 H 0.46167 0.93184 0.73859 0.0
H840 H 0.54719 0.92264 0.75304 0.0
H841 H 0.51385 0.92133 0.75328 0.0
H842 H 0.51385 0.9755 0.77 0.0
C843 C 0.44922 0.97278 0.75387 0.0
C844 C 0.47282 0.94123 0.74559 0.0
C845 C 0.4308 0.97324 0.75305 0.0
C846 C 0.54692 0.93694 0.75405 0.0
C847 C 0.52785 0.9362 0.75411 0.0
C848 C 0.50261 0.96597 0.76307 0.0
C849 C 0.44918 0.954 0.75275 0.0
C850 C 0.46882 0.9536 0.75365 0.0
C851 C 0.52689 0.95445 0.75529 0.0
C852 C 0.5067 0.95379 0.75492 0.0
H853 H 0.39749 0.9218 0.7484 0.0
H854 H 0.4297 0.92095 0.74995 0.0
H855 H 0.48112 0.97528 0.76894 0.0
H856 H 0.57846 0.98905 0.75726 0.0
H857 H 0.54517 0.98778 0.75733 0.0
C858 C 0.11589 0.50908 0.75226 0.0
C859 C 0.09774 0.48974 0.7515 0.0
C860 C 0.11494 0.52728 0.75217 0.0
C861 C 0.08091 0.54815 0.74363 0.0
H862 H 0.1175 0.59334 0.76517 0.0
C863 C 0.07351 0.6209 0.751 0.0
C864 C 0.092 0.64003 0.75093 0.0
C865 C 0.07398 0.60242 0.75103 0.0
C866 C 0.10732 0.58092 0.75902 0.0
H867 H 0.06433 0.47424 0.75005 0.0
H868 H 0.06259 0.50604 0.7501 0.0
H869 H 0.11859 0.56126 0.76538 0.0
H870 H 0.12547 0.65485 0.75082 0.0
H871 H 0.12628 0.62257 0.75089 0.0
H872 H 0.06955 0.56784 0.73736 0.0
C873 C 0.07761 0.50716 0.75057 0.0
C874 C 0.10796 0.56255 0.75912 0.0
C875 C 0.07859 0.48894 0.75061 0.0
C876 C 0.11097 0.64033 0.7509 0.0
C877 C 0.11143 0.62186 0.751 0.0
C878 C 0.08021 0.56651 0.74357 0.0
C879 C 0.09579 0.52655 0.75137 0.0
C880 C 0.09483 0.54597 0.75139 0.0
C881 C 0.09294 0.60271 0.75108 0.0
C882 C 0.09347 0.58312 0.75123 0.0
H883 H 0.13089 0.51017 0.75289 0.0
H884 H 0.12925 0.54194 0.75259 0.0
H885 H 0.0708 0.5358 0.73743 0.0
H886 H 0.05866 0.6202 0.75103 0.0
H887 H 0.05948 0.5879 0.75121 0.0
C888 C 0.4288 0.49436 0.759 0.0
C889 C 0.41383 0.4882 0.74963 0.0
C890 C 0.44625 0.51407 0.75884 0.0
C891 C 0.47891 0.55701 0.73796 0.0
H892 H 0.4998 0.5875 0.76862 0.0
C893 C 0.551 0.63903 0.73973 0.0
C894 C 0.5652 0.64238 0.74922 0.0
C895 C 0.53151 0.62115 0.73967 0.0
C896 C 0.49423 0.57912 0.75999 0.0
H897 H 0.40529 0.49785 0.73278 0.0
H898 H 0.43586 0.53243 0.73251 0.0
H899 H 0.46749 0.55452 0.76869 0.0
H900 H 0.57016 0.62978 0.76611 0.0
H901 H 0.53632 0.59857 0.76596 0.0
H902 H 0.50583 0.5815 0.72929 0.0
C903 C 0.43414 0.52192 0.73993 0.0
C904 C 0.47573 0.56023 0.76004 0.0
C905 C 0.41661 0.50218 0.74011 0.0
C906 C 0.55952 0.62764 0.75869 0.0
C907 C 0.54007 0.60982 0.75864 0.0
C908 C 0.49744 0.57592 0.73791 0.0
C909 C 0.44915 0.52807 0.7493 0.0
C910 C 0.46802 0.54882 0.74906 0.0
C911 C 0.52586 0.60633 0.74912 0.0
C912 C 0.50545 0.58703 0.74897 0.0
H913 H 0.42709 0.4839 0.76644 0.0
H914 H 0.45768 0.51822 0.76609 0.0
H915 H 0.47347 0.54848 0.72937 0.0
H916 H 0.55496 0.65017 0.73233 0.0
H917 H 0.52083 0.61898 0.73227 0.0
C918 C 0.64771 0.76716 0.5798 0.0
C919 C 0.62932 0.7481 0.58099 0.0
C920 C 0.64717 0.78556 0.5791 0.0
C921 C 0.6127 0.80584 0.57124 0.0
H922 H 0.65217 0.85399 0.58981 0.0
C923 C 0.6049 0.87845 0.57661 0.0
C924 C 0.62306 0.89783 0.57623 0.0
C925 C 0.60594 0.8603 0.57677 0.0
C926 C 0.64122 0.84077 0.58443 0.0
H927 H 0.59595 0.73331 0.58247 0.0
H928 H 0.59499 0.76548 0.5813 0.0
H929 H 0.65341 0.82202 0.5911 0.0
H930 H 0.65654 0.91347 0.57551 0.0
H931 H 0.65838 0.88173 0.57561 0.0
H932 H 0.60052 0.82457 0.56455 0.0
C933 C 0.60981 0.76618 0.58078 0.0
C934 C 0.64191 0.82245 0.58519 0.0
C935 C 0.61037 0.74778 0.58153 0.0
C936 C 0.64229 0.89873 0.57584 0.0
C937 C 0.64334 0.88056 0.57598 0.0
C938 C 0.61204 0.82418 0.57045 0.0
C939 C 0.6282 0.78526 0.57953 0.0
C940 C 0.62761 0.80477 0.57864 0.0
C941 C 0.62518 0.86114 0.57653 0.0
C942 C 0.62624 0.84183 0.57708 0.0
H943 H 0.66255 0.76787 0.57934 0.0
H944 H 0.66157 0.8 0.57801 0.0
H945 H 0.60168 0.79257 0.56592 0.0
H946 H 0.58985 0.87728 0.57696 0.0
H947 H 0.59167 0.84561 0.57736 0.0
C948 C 0.1616 0.76414 0.57359 0.0
C949 C 0.15636 0.74927 0.58294 0.0
C950 C 0.18088 0.78217 0.57361 0.0
C951 C 0.22415 0.81585 0.59419 0.0
H952 H 0.25253 0.83892 0.56317 0.0
C953 C 0.30514 0.88953 0.59135 0.0
C954 C 0.30722 0.90407 0.58238 0.0
C955 C 0.28748 0.86988 0.5916 0.0
C956 C 0.24473 0.83272 0.5719 0.0
H957 H 0.16724 0.74144 0.59955 0.0
H958 H 0.20114 0.77289 0.59949 0.0
H959 H 0.22049 0.80571 0.56322 0.0
H960 H 0.29254 0.9095 0.56663 0.0
H961 H 0.26179 0.87527 0.56707 0.0
H962 H 0.24843 0.84299 0.60284 0.0
C963 C 0.19021 0.77073 0.59225 0.0
C964 C 0.22636 0.81371 0.57193 0.0
C965 C 0.17086 0.75268 0.59224 0.0
C966 C 0.29138 0.89861 0.57365 0.0
C967 C 0.27383 0.87896 0.57385 0.0
C968 C 0.2426 0.83485 0.59416 0.0
C969 C 0.19541 0.78571 0.58294 0.0
C970 C 0.21569 0.8052 0.58305 0.0
C971 C 0.2717 0.86438 0.58281 0.0
C972 C 0.2529 0.84361 0.58299 0.0
H973 H 0.1507 0.76198 0.56632 0.0
H974 H 0.18424 0.79353 0.56642 0.0
H975 H 0.2162 0.80984 0.6029 0.0
H976 H 0.31713 0.89333 0.59818 0.0
H977 H 0.2863 0.8589 0.59856 0.0
C978 C 0.29112 0.41864 0.57531 0.0
C979 C 0.30918 0.43493 0.5805 0.0
C980 C 0.27271 0.4192 0.57531 0.0
C981 C 0.25187 0.45473 0.57844 0.0
H982 H 0.20049 0.40392 0.58492 0.0
C983 C 0.17355 0.4519 0.58553 0.0
C984 C 0.15639 0.4358 0.57947 0.0
C985 C 0.19244 0.45224 0.58583 0.0
C986 C 0.21469 0.4182 0.58299 0.0
H987 H 0.32218 0.46461 0.58975 0.0
H988 H 0.2899 0.46545 0.58995 0.0
H989 H 0.23302 0.40375 0.58518 0.0
H990 H 0.14555 0.40752 0.56893 0.0
H991 H 0.1785 0.40813 0.56944 0.0
H992 H 0.23343 0.46916 0.57634 0.0
C993 C 0.29003 0.45238 0.5857 0.0
C994 C 0.23334 0.4181 0.58312 0.0
C995 C 0.3085 0.45186 0.58564 0.0
C996 C 0.15849 0.4201 0.5737 0.0
C997 C 0.17732 0.42038 0.57405 0.0
C998 C 0.2332 0.45484 0.57837 0.0
C999 C 0.2719 0.43601 0.58057 0.0
C1000 C 0.25215 0.43632 0.58075 0.0
C1001 C 0.19449 0.43643 0.58014 0.0
C1002 C 0.2144 0.43653 0.58056 0.0
H1003 H 0.29121 0.40544 0.57121 0.0
H1004 H 0.25914 0.4065 0.57109 0.0
H1005 H 0.26604 0.46898 0.57643 0.0
H1006 H 0.17237 0.46421 0.59007 0.0
H1007 H 0.20536 0.46471 0.59068 0.0
C1008 C 0.03292 0.31395 0.12938 0.0
C1009 C 0.02768 0.31933 0.11803 0.0
C1010 C 0.03147 0.32293 0.14039 0.0
C1011 C 0.00333 0.34686 0.15369 0.0
H1012 H 0.04128 0.3595 0.18115 0.0
C1013 C 0.98959 0.37566 0.19993 0.0
C1014 C 0.99129 0.36573 0.21054 0.0
C1015 C 0.99722 0.37352 0.18858 0.0
C1016 C 0.03052 0.35597 0.17358 0.0
H1017 H 0.01765 0.33891 0.10923 0.0
H1018 H 0.01529 0.35477 0.12848 0.0
H1019 H 0.04898 0.34953 0.16117 0.0
H1020 H 0.00313 0.34657 0.21773 0.0
H1021 H 0.01623 0.34256 0.19782 0.0
H1022 H 0.98461 0.35276 0.1661 0.0
C1023 C 0.02023 0.34338 0.12888 0.0
C1024 C 0.03492 0.35027 0.16214 0.0
C1025 C 0.02167 0.33438 0.11785 0.0
C1026 C 0.00162 0.3544 0.2097 0.0
C1027 C 0.0092 0.35219 0.1983 0.0
C1028 C 0.99894 0.35255 0.1651 0.0
C1029 C 0.02478 0.33749 0.14029 0.0
C1030 C 0.02122 0.34538 0.15212 0.0
C1031 C 0.00664 0.36133 0.18756 0.0
C1032 C 0.01234 0.35692 0.17522 0.0
H1033 H 0.03762 0.30239 0.1298 0.0
H1034 H 0.03486 0.31786 0.14902 0.0
H1035 H 0.99226 0.34285 0.14624 0.0
H1036 H 0.98186 0.38465 0.20033 0.0
H1037 H 0.99535 0.38108 0.18053 0.0
C1038 C 0.73853 0.74749 0.12704 0.0
C1039 C 0.73359 0.73466 0.1166 0.0
C1040 C 0.73171 0.73898 0.13878 0.0
C1041 C 0.69464 0.69082 0.15522 0.0
H1042 H 0.73519 0.71367 0.18161 0.0
C1043 C 0.68912 0.64653 0.19997 0.0
C1044 C 0.69558 0.65755 0.21115 0.0
C1045 C 0.69135 0.65685 0.18881 0.0
C1046 C 0.72355 0.70733 0.17441 0.0
H1047 H 0.7172 0.70291 0.11019 0.0
H1048 H 0.70556 0.68797 0.13074 0.0
H1049 H 0.7436 0.72989 0.1613 0.0
H1050 H 0.70879 0.68793 0.21951 0.0
H1051 H 0.71273 0.70607 0.19994 0.0
H1052 H 0.67483 0.66788 0.16831 0.0
C1053 C 0.71445 0.70464 0.12984 0.0
C1054 C 0.72836 0.71662 0.16275 0.0
C1055 C 0.72122 0.71317 0.11808 0.0
C1056 C 0.70373 0.67906 0.21102 0.0
C1057 C 0.70607 0.68943 0.19982 0.0
C1058 C 0.68985 0.68148 0.16688 0.0
C1059 C 0.71986 0.71744 0.14036 0.0
C1060 C 0.71408 0.70833 0.15296 0.0
C1061 C 0.70017 0.67845 0.18858 0.0
C1062 C 0.70436 0.68947 0.17656 0.0
H1063 H 0.74792 0.76414 0.12617 0.0
H1064 H 0.73585 0.7493 0.14665 0.0
H1065 H 0.68316 0.68425 0.14794 0.0
H1066 H 0.68275 0.62992 0.19978 0.0
H1067 H 0.68688 0.64797 0.18031 0.0
C1068 C 0.31052 0.03085 0.13065 0.0
C1069 C 0.3207 0.02982 0.11997 0.0
C1070 C 0.31981 0.03389 0.14224 0.0
C1071 C 0.359 0.02997 0.16038 0.0
H1072 H 0.36215 0.07611 0.17877 0.0
C1073 C 0.38703 0.05125 0.21164 0.0
C1074 C 0.40193 0.07215 0.21343 0.0
C1075 C 0.37711 0.0445 0.20017 0.0
C1076 C 0.36135 0.06318 0.17374 0.0
H1077 H 0.34817 0.03022 0.11309 0.0
H1078 H 0.36441 0.03535 0.13352 0.0
H1079 H 0.34442 0.06655 0.15884 0.0
H1080 H 0.41831 0.10232 0.20467 0.0
H1081 H 0.40072 0.09062 0.18484 0.0
H1082 H 0.37596 0.02666 0.17542 0.0
C1083 C 0.34924 0.03385 0.13283 0.0
C1084 C 0.35113 0.05764 0.16239 0.0
C1085 C 0.34002 0.03103 0.12117 0.0
C1086 C 0.40688 0.08611 0.20357 0.0
C1087 C 0.39679 0.07946 0.19223 0.0
C1088 C 0.36899 0.03533 0.17188 0.0
C1089 C 0.33938 0.03575 0.14342 0.0
C1090 C 0.34994 0.04108 0.15557 0.0
C1091 C 0.38173 0.05865 0.19045 0.0
C1092 C 0.37041 0.05212 0.17858 0.0
H1093 H 0.29558 0.02988 0.13004 0.0
H1094 H 0.31181 0.0351 0.15028 0.0
H1095 H 0.35821 0.0171 0.15529 0.0
H1096 H 0.38298 0.04017 0.21908 0.0
H1097 H 0.36547 0.02838 0.199 0.0
C1098 C 0.33702 0.02532 0.87703 0.0
C1099 C 0.31588 0.01566 0.87998 0.0
C1100 C 0.3434 0.02188 0.86552 0.0
C1101 C 0.32634 0.98405 0.84034 0.0
H1102 H 0.36598 0.02951 0.82002 0.0
C1103 C 0.35713 0.96947 0.79521 0.0
C1104 C 0.35631 0.98024 0.78476 0.0
C1105 C 0.35439 0.97515 0.80704 0.0
C1106 C 0.35489 0.0167 0.8256 0.0
H1107 H 0.28487 0.99483 0.87326 0.0
H1108 H 0.29599 0.98868 0.85331 0.0
H1109 H 0.35669 0.03658 0.84049 0.0
H1110 H 0.35283 0.00592 0.77852 0.0
H1111 H 0.34799 0.01589 0.79933 0.0
H1112 H 0.32425 0.96417 0.82551 0.0
C1113 C 0.30763 0.99886 0.85986 0.0
C1114 C 0.34972 0.02072 0.83733 0.0
C1115 C 0.30127 0.00245 0.87127 0.0
C1116 C 0.35349 0.99733 0.78641 0.0
C1117 C 0.35082 0.00309 0.79831 0.0
C1118 C 0.33163 0.98003 0.82871 0.0
C1119 C 0.32874 0.00853 0.85687 0.0
C1120 C 0.33522 0.00442 0.84474 0.0
C1121 C 0.35082 0.99175 0.80871 0.0
C1122 C 0.34586 0.9963 0.82119 0.0
H1123 H 0.3486 0.03563 0.88357 0.0
H1124 H 0.35978 0.02943 0.86346 0.0
H1125 H 0.31524 0.97118 0.84589 0.0
H1126 H 0.35943 0.95632 0.79425 0.0
H1127 H 0.35477 0.96633 0.8149 0.0
C1128 C 0.07527 0.4175 0.79593 0.0
C1129 C 0.07263 0.40593 0.78516 0.0
C1130 C 0.06798 0.40761 0.80731 0.0
C1131 C 0.03405 0.35614 0.8218 0.0
H1132 H 0.07097 0.38084 0.84976 0.0
C1133 C 0.03171 0.31069 0.86542 0.0
C1134 C 0.0342 0.32025 0.87698 0.0
C1135 C 0.03391 0.32161 0.85451 0.0
C1136 C 0.06034 0.37391 0.84209 0.0
H1137 H 0.05984 0.37495 0.77773 0.0
H1138 H 0.04761 0.35767 0.79761 0.0
H1139 H 0.07928 0.39905 0.83006 0.0
H1140 H 0.0406 0.34861 0.88624 0.0
H1141 H 0.04474 0.36786 0.86708 0.0
H1142 H 0.01557 0.3306 0.83381 0.0
C1143 C 0.05491 0.37436 0.79729 0.0
C1144 C 0.06506 0.38435 0.83079 0.0
C1145 C 0.06203 0.38426 0.78589 0.0
C1146 C 0.03863 0.34087 0.87744 0.0
C1147 C 0.04106 0.35189 0.8665 0.0
C1148 C 0.02943 0.34561 0.83309 0.0
C1149 C 0.05808 0.38593 0.80818 0.0
C1150 C 0.05212 0.37549 0.82044 0.0
C1151 C 0.03884 0.34239 0.85493 0.0
C1152 C 0.04268 0.35428 0.8433 0.0
H1153 H 0.08324 0.43424 0.79562 0.0
H1154 H 0.07032 0.417 0.81545 0.0
H1155 H 0.02353 0.34902 0.81411 0.0
H1156 H 0.02824 0.29479 0.86478 0.0
H1157 H 0.03235 0.31396 0.84573 0.0
C1158 C 0.64518 0.70743 0.79381 0.0
C1159 C 0.65119 0.69941 0.78391 0.0
C1160 C 0.65493 0.71091 0.80528 0.0
C1161 C 0.68541 0.69703 0.8254 0.0
H1162 H 0.70534 0.75177 0.83919 0.0
C1163 C 0.71623 0.72206 0.87579 0.0
C1164 C 0.73448 0.7413 0.87683 0.0
C1165 C 0.70636 0.71535 0.86431 0.0
C1166 C 0.69992 0.73645 0.83543 0.0
H1167 H 0.67161 0.68806 0.77835 0.0
H1168 H 0.68863 0.694 0.79857 0.0
H1169 H 0.6871 0.74273 0.81944 0.0
H1170 H 0.75708 0.76826 0.86665 0.0
H1171 H 0.73977 0.75665 0.84675 0.0
H1172 H 0.69821 0.6908 0.84154 0.0
C1173 C 0.67637 0.69761 0.79737 0.0
C1174 C 0.68936 0.73123 0.82419 0.0
C1175 C 0.66674 0.69432 0.78581 0.0
C1176 C 0.74298 0.7534 0.86616 0.0
C1177 C 0.73305 0.74681 0.85477 0.0
C1178 C 0.69578 0.70217 0.83678 0.0
C1179 C 0.67077 0.70627 0.80713 0.0
C1180 C 0.68202 0.7115 0.81906 0.0
C1181 C 0.7145 0.72788 0.85376 0.0
C1182 C 0.70322 0.72199 0.84185 0.0
H1183 H 0.63319 0.71143 0.79265 0.0
H1184 H 0.65018 0.7174 0.81269 0.0
H1185 H 0.67981 0.68168 0.82163 0.0
H1186 H 0.70938 0.7124 0.88386 0.0
H1187 H 0.69201 0.70072 0.86376 0.0
C1188 C 0.02366 0.72387 0.87665 0.0
C1189 C 0.0343 0.74514 0.87934 0.0
C1190 C 0.02643 0.71672 0.86523 0.0
C1191 C 0.06407 0.73106 0.84017 0.0
H1192 H 0.01783 0.69176 0.82019 0.0
C1193 C 0.0767 0.69597 0.79622 0.0
C1194 C 0.06656 0.69712 0.78555 0.0
C1195 C 0.07121 0.69968 0.80787 0.0
C1196 C 0.03086 0.70274 0.82569 0.0
H1197 H 0.05608 0.77558 0.87222 0.0
H1198 H 0.06108 0.76309 0.85242 0.0
H1199 H 0.01138 0.70282 0.84027 0.0
H1200 H 0.0421 0.70213 0.77875 0.0
H1201 H 0.03242 0.70859 0.79924 0.0
H1202 H 0.08357 0.7312 0.82565 0.0
C1203 C 0.05064 0.75195 0.85911 0.0
C1204 C 0.02718 0.70894 0.83719 0.0
C1205 C 0.0477 0.7591 0.87042 0.0
C1206 C 0.05019 0.70118 0.78682 0.0
C1207 C 0.04461 0.70479 0.79853 0.0
C1208 C 0.06774 0.72472 0.82878 0.0
C1209 C 0.0401 0.73071 0.85641 0.0
C1210 C 0.04377 0.72331 0.84447 0.0
C1211 C 0.0554 0.70453 0.80914 0.0
C1212 C 0.0512 0.71059 0.82139 0.0
H1213 H 0.01318 0.71279 0.88335 0.0
H1214 H 0.01821 0.70025 0.8634 0.0
H1215 H 0.07715 0.74203 0.84564 0.0
H1216 H 0.08929 0.69274 0.79555 0.0
H1217 H 0.07959 0.69909 0.8159 0.0
C1218 C 0.36919 0.38996 0.78689 0.0
C1219 C 0.36015 0.40226 0.78471 0.0
C1220 C 0.36856 0.38201 0.79873 0.0
C1221 C 0.35839 0.38895 0.83171 0.0
H1222 H 0.34631 0.33233 0.83549 0.0
C1223 C 0.3172 0.33812 0.87371 0.0
C1224 C 0.32589 0.32723 0.87925 0.0
C1225 C 0.32542 0.34907 0.86276 0.0
C1226 C 0.35003 0.34827 0.83456 0.0
H1227 H 0.34305 0.41554 0.7931 0.0
H1228 H 0.34131 0.40123 0.81347 0.0
H1229 H 0.35283 0.34781 0.81486 0.0
H1230 H 0.35003 0.31927 0.8778 0.0
H1231 H 0.3641 0.33806 0.85828 0.0
H1232 H 0.35431 0.38889 0.85134 0.0
C1233 C 0.34951 0.3982 0.80625 0.0
C1234 C 0.3538 0.35718 0.82276 0.0
C1235 C 0.35032 0.40627 0.79451 0.0
C1236 C 0.34314 0.32767 0.87373 0.0
C1237 C 0.35111 0.33829 0.86258 0.0
C1238 C 0.35431 0.37995 0.84344 0.0
C1239 C 0.35875 0.38611 0.80857 0.0
C1240 C 0.35746 0.37745 0.82116 0.0
C1241 C 0.34224 0.34901 0.85701 0.0
C1242 C 0.34963 0.3594 0.84492 0.0
H1243 H 0.37694 0.3867 0.7795 0.0
H1244 H 0.37594 0.37285 0.80021 0.0
H1245 H 0.36174 0.40479 0.83089 0.0
H1246 H 0.30389 0.33803 0.87778 0.0
H1247 H 0.3182 0.35708 0.85857 0.0
C1248 C 0.70706 0.01501 0.87898 0.0
C1249 C 0.72849 0.02828 0.88001 0.0
C1250 C 0.69716 0.01237 0.86757 0.0
C1251 C 0.70909 0.01807 0.83407 0.0
H1252 H 0.65248 0.00625 0.83094 0.0
C1253 C 0.66859 0.00357 0.78666 0.0
C1254 C 0.64909 0.98558 0.78606 0.0
C1255 C 0.67812 0.0113 0.7981 0.0
C1256 C 0.6683 0.00953 0.83169 0.0
H1257 H 0.75622 0.0501 0.87016 0.0
H1258 H 0.73893 0.04608 0.85042 0.0
H1259 H 0.66947 0.01561 0.85113 0.0
H1260 H 0.62394 0.96198 0.79694 0.0
H1261 H 0.64051 0.97552 0.81688 0.0
H1262 H 0.70787 0.01191 0.81465 0.0
C1263 C 0.72979 0.03716 0.85826 0.0
C1264 C 0.67802 0.0148 0.84326 0.0
C1265 C 0.73969 0.03958 0.8696 0.0
C1266 C 0.63901 0.97585 0.79711 0.0
C1267 C 0.64843 0.98368 0.80854 0.0
C1268 C 0.69945 0.01299 0.82251 0.0
C1269 C 0.7085 0.02313 0.85701 0.0
C1270 C 0.69847 0.01889 0.84462 0.0
C1271 C 0.6682 0.00129 0.80915 0.0
C1272 C 0.67887 0.0084 0.82123 0.0
H1273 H 0.69807 0.00606 0.88686 0.0
H1274 H 0.68079 0.00129 0.86695 0.0
H1275 H 0.72469 0.02068 0.83477 0.0
H1276 H 0.6767 0.01141 0.77828 0.0
H1277 H 0.69331 0.025 0.79831 0.0
C1278 C 0.73572 0.01561 0.12966 0.0
C1279 C 0.73191 0.02436 0.1192 0.0
C1280 C 0.7287 0.01743 0.14131 0.0
C1281 C 0.69337 0.03156 0.15733 0.0
H1282 H 0.73268 0.04616 0.18421 0.0
C1283 C 0.69085 0.07285 0.20172 0.0
C1284 C 0.69576 0.0671 0.21304 0.0
C1285 C 0.69252 0.06419 0.19065 0.0
C1286 C 0.72137 0.04174 0.17687 0.0
H1287 H 0.71726 0.04135 0.11263 0.0
H1288 H 0.70537 0.04495 0.13301 0.0
H1289 H 0.74066 0.03743 0.16405 0.0
H1290 H 0.70569 0.04734 0.22172 0.0
H1291 H 0.70876 0.03224 0.20228 0.0
H1292 H 0.67444 0.03665 0.17013 0.0
C1293 C 0.71347 0.03636 0.13222 0.0
C1294 C 0.72593 0.03671 0.16529 0.0
C1295 C 0.72039 0.03441 0.12054 0.0
C1296 C 0.70184 0.05208 0.21312 0.0
C1297 C 0.70368 0.04352 0.202 0.0
C1298 C 0.68887 0.03671 0.1689 0.0
C1299 C 0.71783 0.02817 0.14278 0.0
C1300 C 0.71212 0.03185 0.15532 0.0
C1301 C 0.69928 0.04969 0.19064 0.0
C1302 C 0.70297 0.04215 0.17874 0.0
H1303 H 0.74443 0.00762 0.12889 0.0
H1304 H 0.732 0.0106 0.1492 0.0
H1305 H 0.68222 0.02753 0.14992 0.0
H1306 H 0.68608 0.08437 0.20138 0.0
H1307 H 0.68925 0.06944 0.18204 0.0
C1308 C 0.02836 0.74872 0.13134 0.0
C1309 C 0.02773 0.73889 0.12014 0.0
C1310 C 0.0272 0.73912 0.14263 0.0
C1311 C 0.00634 0.68793 0.15624 0.0
H1312 H 0.03943 0.71796 0.1847 0.0
C1313 C 0.99286 0.64818 0.20354 0.0
C1314 C 0.99254 0.6596 0.21378 0.0
C1315 C 0.00051 0.65786 0.19216 0.0
C1316 C 0.02997 0.70939 0.17686 0.0
H1317 H 0.02587 0.71151 0.11193 0.0
H1318 H 0.02361 0.69456 0.13173 0.0
H1319 H 0.04661 0.73498 0.16454 0.0
H1320 H 0.00064 0.69018 0.22029 0.0
H1321 H 0.0135 0.70703 0.20035 0.0
H1322 H 0.98913 0.66264 0.16854 0.0
C1323 C 0.02498 0.70971 0.13174 0.0
C1324 C 0.03414 0.71912 0.16532 0.0
C1325 C 0.02634 0.71942 0.12043 0.0
C1326 C 0.00075 0.68102 0.21256 0.0
C1327 C 0.00822 0.69068 0.20113 0.0
C1328 C 0.00206 0.67825 0.16778 0.0
C1329 C 0.02522 0.7194 0.14295 0.0
C1330 C 0.02218 0.70857 0.15493 0.0
C1331 C 0.00781 0.67913 0.19072 0.0
C1332 C 0.01364 0.68894 0.17828 0.0
H1333 H 0.02947 0.76376 0.1314 0.0
H1334 H 0.02718 0.74685 0.15111 0.0
H1335 H 0.99668 0.67951 0.14843 0.0
H1336 H 0.98679 0.63166 0.20426 0.0
H1337 H 0.00037 0.64857 0.18442 0.0
C1338 C 0.34203 0.33086 0.11954 0.0
C1339 C 0.32043 0.31926 0.11836 0.0
C1340 C 0.35111 0.33788 0.13117 0.0
C1341 C 0.33991 0.3255 0.16427 0.0
H1342 H 0.39018 0.3781 0.16899 0.0
C1343 C 0.37927 0.35085 0.21208 0.0
C1344 C 0.40071 0.35859 0.21204 0.0
C1345 C 0.36865 0.34825 0.20095 0.0
C1346 C 0.37617 0.36333 0.1678 0.0
H1347 H 0.29136 0.30663 0.12829 0.0
H1348 H 0.30717 0.31912 0.1485 0.0
H1349 H 0.37317 0.36965 0.14882 0.0
H1350 H 0.42795 0.37025 0.2004 0.0
H1351 H 0.40948 0.36562 0.18105 0.0
H1352 H 0.34309 0.31901 0.18317 0.0
C1353 C 0.31713 0.32247 0.14053 0.0
C1354 C 0.36645 0.35848 0.15624 0.0
C1355 C 0.30807 0.31541 0.12893 0.0
C1356 C 0.41141 0.36423 0.20073 0.0
C1357 C 0.40084 0.36172 0.18964 0.0
C1358 C 0.3496 0.33037 0.17582 0.0
C1359 C 0.33876 0.33347 0.14182 0.0
C1360 C 0.34836 0.33937 0.1543 0.0
C1361 C 0.37931 0.35345 0.18959 0.0
C1362 C 0.36801 0.34921 0.17767 0.0
H1363 H 0.35193 0.33403 0.11155 0.0
H1364 H 0.36782 0.34613 0.13185 0.0
H1365 H 0.32618 0.31051 0.16305 0.0
H1366 H 0.37064 0.34642 0.22067 0.0
H1367 H 0.35207 0.34203 0.20122 0.0
C1368 C 0.67295 0.69171 0.54525 0.0
C1369 C 0.6554 0.69379 0.54685 0.0
C1370 C 0.67917 0.68964 0.53337 0.0
C1371 C 0.65669 0.67002 0.50302 0.0
H1372 H 0.71335 0.69634 0.49129 0.0
C1373 C 0.68088 0.63865 0.46197 0.0
C1374 C 0.69267 0.65272 0.45263 0.0
C1375 C 0.67742 0.64566 0.47317 0.0
C1376 C 0.69747 0.68904 0.49444 0.0
H1377 H 0.6312 0.69631 0.53728 0.0
H1378 H 0.64199 0.69262 0.51664 0.0
H1379 H 0.70577 0.7058 0.51161 0.0
H1380 H 0.71046 0.68519 0.44775 0.0
H1381 H 0.7046 0.69754 0.4676 0.0
H1382 H 0.64836 0.65298 0.48606 0.0
C1383 C 0.65082 0.69239 0.52454 0.0
C1384 C 0.69316 0.69431 0.50606 0.0
C1385 C 0.64468 0.69455 0.53636 0.0
C1386 C 0.70125 0.67402 0.45479 0.0
C1387 C 0.698 0.68108 0.46613 0.0
C1388 C 0.66101 0.66461 0.49153 0.0
C1389 C 0.66786 0.6895 0.52292 0.0
C1390 C 0.67271 0.68476 0.51047 0.0
C1391 C 0.68585 0.6669 0.47535 0.0
C1392 C 0.68143 0.67391 0.48717 0.0
H1393 H 0.68153 0.69114 0.55318 0.0
H1394 H 0.6923 0.68731 0.53238 0.0
H1395 H 0.64081 0.66225 0.50622 0.0
H1396 H 0.67409 0.62214 0.4606 0.0
H1397 H 0.66818 0.63442 0.48018 0.0
C1398 C 0.39862 0.07545 0.46116 0.0
C1399 C 0.39731 0.06308 0.45103 0.0
C1400 C 0.39147 0.06664 0.47279 0.0
C1401 C 0.36 0.01667 0.48922 0.0
H1402 H 0.39616 0.04649 0.5167 0.0
C1403 C 0.35873 0.97853 0.53581 0.0
C1404 C 0.36142 0.98982 0.54673 0.0
C1405 C 0.36048 0.98764 0.52426 0.0
C1406 C 0.3857 0.03812 0.50917 0.0
H1407 H 0.38689 0.03172 0.44498 0.0
H1408 H 0.37478 0.01629 0.46539 0.0
H1409 H 0.40389 0.06191 0.49617 0.0
H1410 H 0.36757 0.01933 0.55416 0.0
H1411 H 0.37075 0.03535 0.5339 0.0
H1412 H 0.3422 0.99258 0.50225 0.0
C1413 C 0.38103 0.03278 0.46432 0.0
C1414 C 0.39011 0.04696 0.49738 0.0
C1415 C 0.38805 0.04161 0.45264 0.0
C1416 C 0.36548 0.01029 0.54589 0.0
C1417 C 0.36737 0.01946 0.53431 0.0
C1418 C 0.35565 0.00778 0.50101 0.0
C1419 C 0.38301 0.04526 0.47459 0.0
C1420 C 0.37744 0.03626 0.48723 0.0
C1421 C 0.36508 0.00828 0.52338 0.0
C1422 C 0.36859 0.01833 0.51108 0.0
H1423 H 0.40551 0.09204 0.46017 0.0
H1424 H 0.39283 0.07665 0.48043 0.0
H1425 H 0.34974 0.00815 0.48165 0.0
H1426 H 0.35555 0.96271 0.53616 0.0
H1427 H 0.35888 0.9787 0.51602 0.0
C1428 C 0.98069 0.37977 0.46316 0.0
C1429 C 0.98484 0.37085 0.45291 0.0
C1430 C 0.99084 0.38206 0.47437 0.0
C1431 C 0.00565 0.37508 0.49887 0.0
H1432 H 0.06468 0.39556 0.49906 0.0
C1433 C 0.05093 0.39024 0.54458 0.0
C1434 C 0.06986 0.40889 0.54512 0.0
C1435 C 0.04071 0.38295 0.53327 0.0
C1436 C 0.04819 0.38986 0.49917 0.0
H1437 H 0.00284 0.35727 0.44636 0.0
H1438 H 0.02056 0.36114 0.46609 0.0
H1439 H 0.04629 0.38812 0.4794 0.0
H1440 H 0.09314 0.43434 0.53427 0.0
H1441 H 0.07518 0.4219 0.51464 0.0
H1442 H 0.00765 0.37772 0.51858 0.0
C1443 C 0.00956 0.36653 0.46538 0.0
C1444 C 0.03761 0.38537 0.4879 0.0
C1445 C -0.00061 0.36426 0.4541 0.0
C1446 C 0.07857 0.41989 0.53414 0.0
C1447 C 0.06834 0.41266 0.52286 0.0
C1448 C 0.01622 0.37963 0.51012 0.0
C1449 C 0.00535 0.37543 0.47565 0.0
C1450 C 0.01629 0.37832 0.48761 0.0
C1451 C 0.04919 0.3942 0.52229 0.0
C1452 C 0.03768 0.38744 0.5104 0.0
H1453 H 0.96962 0.38508 0.46251 0.0
H1454 H 0.98753 0.38936 0.48201 0.0
H1455 H 0.98915 0.36934 0.49899 0.0
H1456 H 0.04391 0.38138 0.55289 0.0
H1457 H 0.02611 0.36854 0.53313 0.0
C1458 C 0.36929 0.42088 0.5361 0.0
C1459 C 0.36565 0.40835 0.54657 0.0
C1460 C 0.37281 0.41481 0.52457 0.0
C1461 C 0.36681 0.37091 0.50605 0.0
H1462 H 0.41627 0.41259 0.48943 0.0
C1463 C 0.39211 0.36286 0.45611 0.0
C1464 C 0.41301 0.36836 0.455 0.0
C1465 C 0.38468 0.36647 0.46719 0.0
C1466 C 0.40241 0.4008 0.49396 0.0
H1467 H 0.36194 0.37922 0.55309 0.0
H1468 H 0.36798 0.3685 0.5328 0.0
H1469 H 0.40565 0.42099 0.50889 0.0
H1470 H 0.4424 0.38164 0.46464 0.0
H1471 H 0.42951 0.38815 0.48382 0.0
H1472 H 0.36374 0.3507 0.49103 0.0
C1473 C 0.36811 0.38303 0.53358 0.0
C1474 C 0.39625 0.40565 0.50504 0.0
C1475 C 0.36476 0.38921 0.54518 0.0
C1476 C 0.42623 0.37729 0.46519 0.0
C1477 C 0.41889 0.38109 0.47616 0.0
C1478 C 0.37285 0.36612 0.49483 0.0
C1479 C 0.37261 0.396 0.52323 0.0
C1480 C 0.37848 0.39074 0.51125 0.0
C1481 C 0.39811 0.37589 0.47725 0.0
C1482 C 0.39086 0.38098 0.48877 0.0
H1483 H 0.36998 0.43567 0.53686 0.0
H1484 H 0.37601 0.42499 0.51672 0.0
H1485 H 0.35299 0.35917 0.51063 0.0
H1486 H 0.38157 0.3559 0.4484 0.0
H1487 H 0.3686 0.36239 0.46779 0.0
C1488 C 0.63557 0.96967 0.53346 0.0
C1489 C 0.64519 0.97974 0.54454 0.0
C1490 C 0.64301 0.97946 0.52207 0.0
C1491 C 0.67132 0.03108 0.50847 0.0
H1492 H 0.67431 0.00214 0.47943 0.0
C1493 C 0.69942 0.07299 0.46197 0.0
C1494 C 0.68823 0.06236 0.45139 0.0
C1495 C 0.69644 0.06261 0.47318 0.0
C1496 C 0.67339 0.01038 0.48743 0.0
H1497 H 0.67042 0.00771 0.5524 0.0
H1498 H 0.6834 0.0249 0.53247 0.0
H1499 H 0.66505 0.98453 0.49944 0.0
H1500 H 0.6656 0.03242 0.44411 0.0
H1501 H 0.65995 0.01427 0.46381 0.0
H1502 H 0.67901 0.05669 0.49652 0.0
C1503 C 0.67004 0.00947 0.53261 0.0
C1504 C 0.66815 0.00031 0.49889 0.0
C1505 C 0.66267 -0.00039 0.54401 0.0
C1506 C 0.67446 0.04098 0.45213 0.0
C1507 C 0.67132 0.03058 0.4634 0.0
C1508 C 0.67642 0.04108 0.49703 0.0
C1509 C 0.66014 -0.00043 0.52154 0.0
C1510 C 0.66693 0.01053 0.50951 0.0
C1511 C 0.68201 0.04137 0.47412 0.0
C1512 C 0.67742 0.03084 0.48635 0.0
H1513 H 0.62208 0.95433 0.53358 0.0
H1514 H 0.63493 0.97152 0.51371 0.0
H1515 H 0.67015 0.03923 0.51644 0.0
H1516 H 0.71031 0.08946 0.46164 0.0
H1517 H 0.70529 0.07131 0.48116 0.0
C1518 C 0.00354 0.67803 0.45729 0.0
C1519 C 0.00106 0.65968 0.45207 0.0
C1520 C 0.01347 0.68501 0.46873 0.0
C1521 C 0.05059 0.68218 0.48939 0.0
H1522 H 0.02018 0.68839 0.51656 0.0
C1523 C 0.07304 0.67925 0.53951 0.0
C1524 C 0.07102 0.69176 0.54845 0.0
C1525 C 0.06538 0.67789 0.52758 0.0
C1526 C 0.02909 0.68714 0.50905 0.0
H1527 H 0.00744 0.63458 0.45447 0.0
H1528 H 0.02523 0.64706 0.47421 0.0
H1529 H 0.00596 0.68241 0.4956 0.0
H1530 H 0.05934 0.71263 0.55197 0.0
H1531 H 0.04632 0.71069 0.53092 0.0
H1532 H 0.07375 0.68693 0.50265 0.0
C1533 C 0.01938 0.65593 0.46955 0.0
C1534 C 0.02091 0.68369 0.49706 0.0
C1535 C 0.00914 0.64877 0.45829 0.0
C1536 C 0.06102 0.7028 0.54525 0.0
C1537 C 0.05353 0.70163 0.53321 0.0
C1538 C 0.0589 0.68592 0.5013 0.0
C1539 C 0.02145 0.67398 0.47494 0.0
C1540 C 0.03135 0.68062 0.48721 0.0
C1541 C 0.05577 0.68925 0.5242 0.0
C1542 C 0.04797 0.6878 0.51135 0.0
H1543 H 0.99735 0.68667 0.4527 0.0
H1544 H 0.01493 0.69899 0.47272 0.0
H1545 H 0.05904 0.68011 0.4819 0.0
H1546 H 0.08049 0.67038 0.54175 0.0
H1547 H 0.06687 0.66773 0.52104 0.0
C1548 C 0.02968 0.32093 0.04473 0.0
C1549 C 0.01941 0.30059 0.04932 0.0
C1550 C 0.02868 0.32469 0.03211 0.0
C1551 C 0.99887 0.3001 0.00353 0.0
H1552 H 0.05102 0.33327 0.98649 0.0
C1553 C 0.01233 0.28438 0.95387 0.0
C1554 C 0.02359 0.30095 0.94573 0.0
C1555 C 0.0102 0.28801 0.96628 0.0
C1556 C 0.03628 0.32433 0.99113 0.0
H1557 H -0.00044 0.26834 0.04444 0.0
H1558 H 0.99783 0.27483 0.02259 0.0
H1559 H 0.05008 0.33317 0.00911 0.0
H1560 H 0.0413 0.33435 0.94414 0.0
H1561 H 0.03793 0.34073 0.9661 0.0
H1562 H 0.98526 0.29044 0.98559 0.0
C1563 C 0.00653 0.28793 0.02866 0.0
C1564 C 0.03573 0.32427 0.00407 0.0
C1565 C 0.00767 0.28418 0.04118 0.0
C1566 C 0.03252 0.3213 0.95023 0.0
C1567 C 0.03064 0.32495 0.96276 0.0
C1568 C -0.00056 0.3001 0.99063 0.0
C1569 C 0.01717 0.30817 0.02394 0.0
C1570 C 0.01714 0.31152 0.0104 0.0
C1571 C 0.01947 0.30829 0.97089 0.0
C1572 C 0.01827 0.3116 0.98432 0.0
H1573 H 0.03885 0.33386 0.05083 0.0
H1574 H 0.03699 0.34045 0.02874 0.0
H1575 H 0.98424 0.29047 0.00815 0.0
H1576 H 0.00523 0.26853 0.95066 0.0
H1577 H 0.00177 0.27486 0.97236 0.0
C1578 C 0.71847 0.73863 0.94944 0.0
C1579 C 0.73533 0.73762 0.94446 0.0
C1580 C 0.71257 0.73304 0.96177 0.0
C1581 C 0.72157 0.70818 0.98933 0.0
H1582 H 0.71475 0.749 0.00767 0.0
C1583 C 0.74789 0.73099 0.03941 0.0
C1584 C 0.73593 0.73549 0.04748 0.0
C1585 C 0.74197 0.72584 0.02709 0.0
C1586 C 0.71616 0.73719 0.00268 0.0
H1587 H 0.75849 0.72893 0.94825 0.0
H1588 H 0.74854 0.71959 0.96968 0.0
H1589 H 0.71466 0.74962 0.98515 0.0
H1590 H 0.70803 0.73743 0.04915 0.0
H1591 H 0.69785 0.7288 0.02741 0.0
H1592 H 0.72439 0.69663 0.00694 0.0
C1593 C 0.7396 0.72438 0.96411 0.0
C1594 C 0.71608 0.7375 0.98975 0.0
C1595 C 0.74545 0.7299 0.95182 0.0
C1596 C 0.7175 0.73399 0.04312 0.0
C1597 C 0.71173 0.72914 0.0307 0.0
C1598 C 0.72184 0.70799 0.00225 0.0
C1599 C 0.72342 0.72635 0.96935 0.0
C1600 C 0.71952 0.72346 0.98291 0.0
C1601 C 0.72411 0.72534 0.02252 0.0
C1602 C 0.71982 0.72292 0.00905 0.0
H1603 H 0.71033 0.74444 0.94395 0.0
H1604 H 0.69986 0.73448 0.96546 0.0
H1605 H 0.72378 0.69684 0.98435 0.0
H1606 H 0.76215 0.73198 0.04254 0.0
H1607 H 0.75196 0.72324 0.02098 0.0
C1608 C 0.33115 0.05566 0.95402 0.0
C1609 C 0.32351 0.0366 0.94796 0.0
C1610 C 0.33679 0.05767 0.96647 0.0
C1611 C 0.3442 0.02999 0.99326 0.0
H1612 H 0.32592 0.06225 0.01195 0.0
C1613 C 0.31978 0.01725 0.04478 0.0
C1614 C 0.3248 0.03476 0.05204 0.0
C1615 C 0.32525 0.01941 0.03227 0.0
C1616 C 0.33147 0.05348 0.00687 0.0
H1617 H 0.31659 0.00491 0.94994 0.0
H1618 H 0.32549 0.00804 0.97183 0.0
H1619 H 0.32489 0.06254 0.98956 0.0
H1620 H 0.34068 0.06828 0.05215 0.0
H1621 H 0.35006 0.07202 0.03026 0.0
H1622 H 0.34951 0.02001 0.01083 0.0
C1623 C 0.32775 0.02168 0.96696 0.0
C1624 C 0.33096 0.05368 0.99398 0.0
C1625 C 0.32251 0.01981 0.9544 0.0
C1626 C 0.33653 0.0545 0.04677 0.0
C1627 C 0.34183 0.05665 0.03424 0.0
C1628 C 0.34443 0.02957 0.00622 0.0
C1629 C 0.33443 0.0405 0.97325 0.0
C1630 C 0.33705 0.04174 0.98697 0.0
C1631 C 0.33568 0.0391 0.02678 0.0
C1632 C 0.33782 0.04114 0.01314 0.0
H1633 H 0.33231 0.06893 0.9492 0.0
H1634 H 0.34246 0.07257 0.97087 0.0
H1635 H 0.34934 0.02086 0.9882 0.0
H1636 H 0.31079 0.00184 0.04861 0.0
H1637 H 0.3202 0.00561 0.02673 0.0
C1638 C 0.03289 0.73375 0.95185 0.0
C1639 C 0.01956 0.74079 0.94787 0.0
C1640 C 0.03308 0.72856 0.96428 0.0
C1641 C 0.04176 0.73803 0.99182 0.0
H1642 H 0.99283 0.71273 0.0126 0.0
C1643 C 0.04127 0.76227 0.04183 0.0
C1644 C 0.02931 0.74733 0.05073 0.0
C1645 C 0.04086 0.75669 0.02948 0.0
C1646 C 0.00665 0.71948 0.00693 0.0
H1647 H 0.99511 0.74665 0.95352 0.0
H1648 H 0.99538 0.73759 0.97512 0.0
H1649 H 0.98913 0.70997 0.9901 0.0
H1650 H 0.00794 0.71471 0.05378 0.0
H1651 H 0.00693 0.70494 0.03199 0.0
H1652 H 0.05923 0.7483 0.00862 0.0
C1653 C 0.00566 0.736 0.96871 0.0
C1654 C 0.00452 0.71805 0.99405 0.0
C1655 C 0.00561 0.74136 0.95635 0.0
C1656 C 0.01731 0.72654 0.04709 0.0
C1657 C 0.01669 0.72097 0.03465 0.0
C1658 C 0.04387 0.73957 0.00468 0.0
C1659 C 0.01977 0.73009 0.97289 0.0
C1660 C 0.02203 0.72792 0.98637 0.0
C1661 C 0.02833 0.73605 0.02571 0.0
C1662 C 0.02631 0.73094 0.01234 0.0
H1663 H 0.04379 0.73313 0.9455 0.0
H1664 H 0.04403 0.72393 0.96724 0.0
H1665 H 0.05554 0.74591 0.98617 0.0
H1666 H 0.0507 0.77841 0.04437 0.0
H1667 H 0.04976 0.76872 0.02279 0.0
C1668 C 0.33036 0.30744 0.04415 0.0
C1669 C 0.32047 0.31628 0.05074 0.0
C1670 C 0.33417 0.31116 0.03147 0.0
C1671 C 0.30994 0.32048 0.0052 0.0
H1672 H 0.35611 0.32436 0.98648 0.0
C1673 C 0.30113 0.29002 0.95592 0.0
C1674 C 0.31435 0.30382 0.94688 0.0
C1675 C 0.3048 0.29498 0.96843 0.0
C1676 C 0.34325 0.32352 0.99162 0.0
H1677 H 0.30836 0.33725 0.04948 0.0
H1678 H 0.31499 0.34369 0.02735 0.0
H1679 H 0.35879 0.32861 0.00909 0.0
H1680 H 0.34219 0.33333 0.94385 0.0
H1681 H 0.34891 0.34179 0.96599 0.0
H1682 H 0.29406 0.31449 0.98788 0.0
C1683 C 0.31959 0.33373 0.03195 0.0
C1684 C 0.34472 0.32584 0.00451 0.0
C1685 C 0.31587 0.3301 0.04463 0.0
C1686 C 0.33174 0.32244 0.95064 0.0
C1687 C 0.3356 0.32726 0.96325 0.0
C1688 C 0.30838 0.31789 0.9924 0.0
C1689 C 0.32807 0.3237 0.02516 0.0
C1690 C 0.32793 0.32401 0.01144 0.0
C1691 C 0.32191 0.3137 0.97222 0.0
C1692 C 0.32483 0.31897 0.98553 0.0
H1693 H 0.33413 0.29677 0.04864 0.0
H1694 H 0.34062 0.30311 0.02648 0.0
H1695 H 0.29663 0.31871 0.01027 0.0
H1696 H 0.28762 0.27555 0.95332 0.0
H1697 H 0.29415 0.28417 0.97519 0.0
C1698 C 0.74488 0.04686 0.95414 0.0
C1699 C 0.73492 0.02912 0.94669 0.0
C1700 C 0.73983 0.046 0.96664 0.0
C1701 C 0.71859 0.00839 0.99214 0.0
H1702 H 0.72623 0.05651 0.01033 0.0
C1703 C 0.71931 0.01114 0.04565 0.0
C1704 C 0.73766 0.02788 0.05025 0.0
C1705 C 0.71387 0.01066 0.0332 0.0
C1706 C 0.72389 0.0429 0.00536 0.0
H1707 H 0.71096 0.99685 0.94628 0.0
H1708 H 0.70173 0.99541 0.96811 0.0
H1709 H 0.725 0.05651 0.98775 0.0
H1710 H 0.76413 0.05767 0.0457 0.0
H1711 H 0.75444 0.05701 0.02409 0.0
H1712 H 0.71787 0.99499 0.00979 0.0
C1713 C 0.71381 0.0099 0.96435 0.0
C1714 C 0.72329 0.04291 0.99243 0.0
C1715 C 0.71898 0.01075 0.95183 0.0
C1716 C 0.74992 0.04455 0.04238 0.0
C1717 C 0.74431 0.04424 0.03004 0.0
C1718 C 0.71894 0.0083 0.00507 0.0
C1719 C 0.72455 0.02739 0.97199 0.0
C1720 C 0.72139 0.02596 0.98564 0.0
C1721 C 0.72648 0.0271 0.02525 0.0
C1722 C 0.7223 0.02582 0.01178 0.0
H1723 H 0.75726 0.06125 0.95045 0.0
H1724 H 0.74868 0.05971 0.97222 0.0
H1725 H 0.71734 0.99514 0.98727 0.0
H1726 H 0.70962 0.99807 0.05153 0.0
H1727 H 0.70002 0.99729 0.02973 0.0
C1728 C 0.69904 0.66048 0.28459 0.0
C1729 C 0.70012 0.64315 0.28056 0.0
C1730 C 0.70131 0.66577 0.29717 0.0
C1731 C 0.72191 0.65723 0.32639 0.0
H1732 H 0.68387 0.67088 0.34248 0.0
C1733 C 0.72446 0.66733 0.37895 0.0
C1734 C 0.70512 0.65613 0.38477 0.0
C1735 C 0.72571 0.67114 0.36622 0.0
C1736 C 0.69465 0.66715 0.33811 0.0
H1737 H 0.70421 0.61767 0.28652 0.0
H1738 H 0.70791 0.62669 0.30832 0.0
H1739 H 0.68235 0.66619 0.32004 0.0
H1740 H 0.67198 0.64141 0.38202 0.0
H1741 H 0.6741 0.64769 0.35984 0.0
H1742 H 0.73353 0.65705 0.3444 0.0
C1743 C 0.70569 0.63646 0.30181 0.0
C1744 C 0.6939 0.66466 0.32525 0.0
C1745 C 0.7034 0.63119 0.28931 0.0
C1746 C 0.68711 0.65006 0.37779 0.0
C1747 C 0.68835 0.65377 0.36506 0.0
C1748 C 0.72264 0.65968 0.33921 0.0
C1749 C 0.7048 0.65387 0.3059 0.0
C1750 C 0.70717 0.65911 0.31929 0.0
C1751 C 0.70764 0.66373 0.35904 0.0
C1752 C 0.70871 0.66419 0.34528 0.0
H1753 H 0.69654 0.66999 0.27803 0.0
H1754 H 0.70061 0.67931 0.30003 0.0
H1755 H 0.73259 0.65331 0.32206 0.0
H1756 H 0.73862 0.67233 0.38412 0.0
H1757 H 0.74083 0.67922 0.36192 0.0
C1758 C 0.39077 0.06861 0.37682 0.0
C1759 C 0.40192 0.06206 0.38418 0.0
C1760 C 0.38679 0.0628 0.36439 0.0
C1761 C 0.40986 0.04905 0.33891 0.0
H1762 H 0.36237 0.04317 0.3208 0.0
C1763 C 0.41002 0.05085 0.28578 0.0
C1764 C 0.40477 0.06506 0.28088 0.0
C1765 C 0.40539 0.04438 0.29809 0.0
C1766 C 0.37571 0.04472 0.32574 0.0
H1767 H 0.41644 0.04316 0.38455 0.0
H1768 H 0.40928 0.03279 0.36285 0.0
H1769 H 0.36171 0.04242 0.34341 0.0
H1770 H 0.38945 0.08261 0.28474 0.0
H1771 H 0.3815 0.07146 0.30619 0.0
H1772 H 0.42419 0.05217 0.32132 0.0
C1773 C 0.40392 0.04271 0.36663 0.0
C1774 C 0.37534 0.04431 0.33868 0.0
C1775 C 0.40791 0.04855 0.37907 0.0
C1776 C 0.39373 0.07169 0.28828 0.0
C1777 C 0.38905 0.06517 0.30056 0.0
C1778 C 0.41021 0.04942 0.32599 0.0
C1779 C 0.39385 0.05028 0.35905 0.0
C1780 C 0.39267 0.04711 0.34542 0.0
C1781 C 0.39535 0.05191 0.30572 0.0
C1782 C 0.39339 0.0479 0.31926 0.0
H1783 H 0.38592 0.07901 0.3805 0.0
H1784 H 0.37919 0.06911 0.35882 0.0
H1785 H 0.4236 0.05153 0.34378 0.0
H1786 H 0.41846 0.04541 0.28027 0.0
H1787 H 0.41021 0.03395 0.30176 0.0
C1788 C 0.98526 0.36785 0.37851 0.0
C1789 C 0.96634 0.35403 0.38415 0.0
C1790 C 0.98788 0.36677 0.36573 0.0
C1791 C 0.95569 0.34933 0.33782 0.0
H1792 H 0.00522 0.35814 0.32084 0.0
C1793 C 0.95427 0.33837 0.28583 0.0
C1794 C 0.97037 0.35423 0.27901 0.0
C1795 C 0.95599 0.33715 0.2986 0.0
C1796 C 0.99136 0.35579 0.32548 0.0
H1797 H 0.93601 0.32728 0.38116 0.0
H1798 H 0.94073 0.32507 0.35907 0.0
H1799 H 0.00432 0.35805 0.34357 0.0
H1800 H 0.00143 0.38056 0.28002 0.0
H1801 H 0.00434 0.37867 0.30255 0.0
H1802 H 0.94272 0.34728 0.31995 0.0
C1803 C 0.95332 0.33713 0.36435 0.0
C1804 C 0.99084 0.35574 0.33847 0.0
C1805 C 0.95065 0.33833 0.37702 0.0
C1806 C 0.98878 0.36819 0.2851 0.0
C1807 C 0.99045 0.36707 0.29796 0.0
C1808 C 0.95621 0.34937 0.32495 0.0
C1809 C 0.97165 0.35178 0.35847 0.0
C1810 C 0.97286 0.35225 0.34475 0.0
C1811 C 0.97377 0.35192 0.30487 0.0
C1812 C 0.97391 0.35233 0.31861 0.0
H1813 H 0.9976 0.38011 0.38382 0.0
H1814 H 0.00218 0.37827 0.36146 0.0
H1815 H 0.94183 0.34723 0.34235 0.0
H1816 H 0.94001 0.3272 0.28136 0.0
H1817 H 0.94308 0.32498 0.30362 0.0
C1818 C 0.67574 0.06164 0.37772 0.0
C1819 C 0.69381 0.07185 0.3849 0.0
C1820 C 0.67693 0.05827 0.36509 0.0
C1821 C 0.71307 0.0821 0.33944 0.0
H1822 H 0.67282 0.03461 0.32073 0.0
C1823 C 0.71696 0.08244 0.28652 0.0
C1824 C 0.69811 0.07552 0.28032 0.0
C1825 C 0.71726 0.07832 0.29911 0.0
C1826 C 0.68414 0.04802 0.32582 0.0
H1827 H 0.72713 0.08526 0.38471 0.0
H1828 H 0.72919 0.07923 0.3627 0.0
H1829 H 0.67168 0.0337 0.34336 0.0
H1830 H 0.66476 0.05804 0.28226 0.0
H1831 H 0.66522 0.05132 0.30429 0.0
H1832 H 0.72506 0.09682 0.32207 0.0
C1833 C 0.71414 0.07414 0.36677 0.0
C1834 C 0.6835 0.04747 0.33878 0.0
C1835 C 0.71295 0.07748 0.37939 0.0
C1836 C 0.67954 0.06354 0.2868 0.0
C1837 C 0.67982 0.0596 0.29943 0.0
C1838 C 0.71364 0.0827 0.32654 0.0
C1839 C 0.69622 0.06508 0.35941 0.0
C1840 C 0.69783 0.06461 0.34572 0.0
C1841 C 0.6987 0.06742 0.30582 0.0
C1842 C 0.69904 0.06578 0.31954 0.0
H1843 H 0.66077 0.05711 0.38173 0.0
H1844 H 0.66285 0.05137 0.35966 0.0
H1845 H 0.72409 0.09573 0.34449 0.0
H1846 H 0.73153 0.09154 0.28173 0.0
H1847 H 0.73208 0.08417 0.30366 0.0
C1848 C 0.00081 0.65858 0.37893 0.0
C1849 C 0.98891 0.66437 0.38615 0.0
C1850 C 0.00299 0.66253 0.36622 0.0
C1851 C 0.97374 0.66926 0.34104 0.0
H1852 H 0.01829 0.67249 0.32095 0.0
C1853 C 0.95963 0.63823 0.29164 0.0
C1854 C 0.9748 0.64855 0.28255 0.0
C1855 C 0.96362 0.64434 0.30399 0.0
C1856 C 0.00584 0.67192 0.3264 0.0
H1857 H 0.97165 0.68061 0.38603 0.0
H1858 H 0.9761 0.68826 0.36393 0.0
H1859 H 0.02308 0.67812 0.34323 0.0
H1860 H 0.0061 0.67342 0.27924 0.0
H1861 H 0.01308 0.68433 0.30093 0.0
H1862 H 0.95653 0.66315 0.32426 0.0
C1863 C 0.98314 0.67998 0.36796 0.0
C1864 C 0.0085 0.67492 0.3392 0.0
C1865 C 0.98072 0.67576 0.38065 0.0
C1866 C 0.99412 0.66516 0.28607 0.0
C1867 C 0.99813 0.67135 0.29848 0.0
C1868 C 0.97116 0.66644 0.32827 0.0
C1869 C 0.99351 0.67259 0.36049 0.0
C1870 C 0.99224 0.67299 0.34674 0.0
C1871 C 0.98287 0.66102 0.30758 0.0
C1872 C 0.9869 0.66703 0.32084 0.0
H1873 H 0.0073 0.64975 0.38292 0.0
H1874 H 0.01094 0.65643 0.3608 0.0
H1875 H 0.96075 0.66743 0.34648 0.0
H1876 H 0.94462 0.62528 0.28924 0.0
H1877 H 0.95167 0.6357 0.31077 0.0
C1878 C 0.40644 0.36427 0.38107 0.0
C1879 C 0.41855 0.35599 0.3854 0.0
C1880 C 0.40138 0.36301 0.36848 0.0
C1881 C 0.39856 0.33441 0.33987 0.0
H1882 H 0.41128 0.38487 0.32249 0.0
C1883 C 0.42442 0.34813 0.28965 0.0
C1884 C 0.4166 0.3572 0.2815 0.0
C1885 C 0.4198 0.34651 0.30223 0.0
C1886 C 0.40723 0.37056 0.32724 0.0
H1887 H 0.43452 0.33964 0.38003 0.0
H1888 H 0.42575 0.33745 0.35827 0.0
H1889 H 0.41166 0.38454 0.34516 0.0
H1890 H 0.39776 0.3717 0.28011 0.0
H1891 H 0.3899 0.36918 0.30237 0.0
H1892 H 0.39511 0.32069 0.32201 0.0
C1893 C 0.41997 0.34474 0.36452 0.0
C1894 C 0.40744 0.37036 0.3402 0.0
C1895 C 0.42514 0.34615 0.377 0.0
C1896 C 0.40395 0.36461 0.2862 0.0
C1897 C 0.39951 0.36322 0.2989 0.0
C1898 C 0.3984 0.33463 0.32697 0.0
C1899 C 0.40812 0.35322 0.36008 0.0
C1900 C 0.4039 0.35249 0.34662 0.0
C1901 C 0.40736 0.35406 0.30701 0.0
C1902 C 0.40351 0.35291 0.32052 0.0
H1903 H 0.40118 0.37197 0.38736 0.0
H1904 H 0.39221 0.36967 0.3653 0.0
H1905 H 0.39533 0.32029 0.34457 0.0
H1906 H 0.43421 0.34228 0.28633 0.0
H1907 H 0.42636 0.33971 0.30827 0.0
C1908 C 0.3731 0.99572 0.70964 0.0
C1909 C 0.35526 0.98559 0.717 0.0
C1910 C 0.37182 0.00112 0.69744 0.0
C1911 C 0.3348 0.98305 0.67197 0.0
H1912 H 0.37942 0.02959 0.6548 0.0
C1913 C 0.33803 0.98548 0.61886 0.0
C1914 C 0.35712 0.98915 0.61416 0.0
C1915 C 0.33629 0.99 0.63122 0.0
C1916 C 0.36679 0.01655 0.65947 0.0
H1917 H 0.3223 0.97433 0.71765 0.0
H1918 H 0.32006 0.98387 0.69629 0.0
H1919 H 0.37901 0.02879 0.6774 0.0
H1920 H 0.38959 0.00166 0.61843 0.0
H1921 H 0.38658 0.00941 0.63993 0.0
H1922 H 0.32307 0.97035 0.6541 0.0
C1923 C 0.335 0.98741 0.69992 0.0
C1924 C 0.36655 0.01609 0.6724 0.0
C1925 C 0.33629 0.98205 0.71216 0.0
C1926 C 0.37466 0.9986 0.62181 0.0
C1927 C 0.37295 0.00318 0.63412 0.0
C1928 C 0.33503 0.98352 0.65905 0.0
C1929 C 0.35266 0.99648 0.69231 0.0
C1930 C 0.35093 0.99899 0.67879 0.0
C1931 C 0.35364 0.99838 0.63908 0.0
C1932 C 0.3514 -7e-05 0.65264 0.0
H1933 H 0.38794 0.9987 0.71313 0.0
H1934 H 0.38569 0.00787 0.69183 0.0
H1935 H 0.32266 0.96953 0.67657 0.0
H1936 H 0.32425 0.97827 0.61316 0.0
H1937 H 0.32125 0.98634 0.63473 0.0
C1938 C 0.1001 0.42164 0.70691 0.0
C1939 C 0.08453 0.41435 0.71595 0.0
C1940 C 0.09532 0.41526 0.69465 0.0
C1941 C 0.05328 0.39647 0.67219 0.0
H1942 H 0.0925 0.38956 0.65216 0.0
C1943 C 0.0664 0.41685 0.62078 0.0
C1944 C 0.07366 0.40681 0.61297 0.0
C1945 C 0.06246 0.41144 0.63325 0.0
C1946 C 0.08107 0.39096 0.65759 0.0
H1947 H 0.05172 0.39442 0.7193 0.0
H1948 H 0.04328 0.38326 0.69769 0.0
H1949 H 0.09615 0.39154 0.67454 0.0
H1950 H 0.08098 0.38219 0.61184 0.0
H1951 H 0.07384 0.37253 0.63366 0.0
H1952 H 0.03844 0.3963 0.65519 0.0
C1953 C 0.0592 0.39397 0.70015 0.0
C1954 C 0.08334 0.39237 0.67043 0.0
C1955 C 0.06403 0.40031 0.7125 0.0
C1956 C 0.07554 0.39029 0.61767 0.0
C1957 C 0.07155 0.38484 0.63018 0.0
C1958 C 0.05096 0.395 0.65932 0.0
C1959 C 0.07483 0.40143 0.69109 0.0
C1960 C 0.06998 0.39597 0.67783 0.0
C1961 C 0.06563 0.39583 0.6382 0.0
C1962 C 0.06531 0.39302 0.65184 0.0
H1963 H 0.11604 0.43248 0.70927 0.0
H1964 H 0.10767 0.42164 0.68787 0.0
H1965 H 0.04271 0.39923 0.67763 0.0
H1966 H 0.06473 0.42959 0.61741 0.0
H1967 H 0.05816 0.42041 0.63914 0.0
C1968 C 0.64841 0.67041 0.71273 0.0
C1969 C 0.65306 0.68986 0.71734 0.0
C1970 C 0.65394 0.66846 0.70064 0.0
C1971 C 0.68453 0.69856 0.67315 0.0
H1972 H 0.6378 0.65644 0.65478 0.0
C1973 C 0.66841 0.70728 0.62238 0.0
C1974 C 0.6581 0.68967 0.61485 0.0
C1975 C 0.67286 0.70544 0.6347 0.0
C1976 C 0.65123 0.66799 0.65975 0.0
H1977 H 0.66833 0.72266 0.71325 0.0
H1978 H 0.67773 0.71928 0.6922 0.0
H1979 H 0.63659 0.65646 0.67723 0.0
H1980 H 0.64562 0.6565 0.61403 0.0
H1981 H 0.65345 0.65328 0.63561 0.0
H1982 H 0.69869 0.71068 0.65556 0.0
C1983 C 0.67001 0.70551 0.69788 0.0
C1984 C 0.65054 0.66799 0.67267 0.0
C1985 C 0.66448 0.70745 0.70994 0.0
C1986 C 0.6535 0.67034 0.61964 0.0
C1987 C 0.65789 0.66848 0.63201 0.0
C1988 C 0.68521 0.69857 0.66022 0.0
C1989 C 0.66426 0.68593 0.69295 0.0
C1990 C 0.66687 0.6837 0.6795 0.0
C1991 C 0.66704 0.68593 0.63978 0.0
C1992 C 0.66826 0.6837 0.65337 0.0
H1993 H 0.63971 0.65659 0.71826 0.0
H1994 H 0.64954 0.65319 0.69718 0.0
H1995 H 0.69753 0.71065 0.67816 0.0
H1996 H 0.6722 0.72239 0.61892 0.0
H1997 H 0.67973 0.71917 0.64044 0.0
C1998 C 0.34723 0.39053 0.71003 0.0
C1999 C 0.3651 0.40107 0.71733 0.0
C2000 C 0.34865 0.38596 0.69766 0.0
C2001 C 0.38568 0.40694 0.67215 0.0
H2002 H 0.34212 0.36077 0.65413 0.0
C2003 C 0.38425 0.40725 0.6191 0.0
C2004 C 0.3652 0.40325 0.61414 0.0
C2005 C 0.38558 0.40219 0.63139 0.0
C2006 C 0.35444 0.37372 0.65904 0.0
H2007 H 0.39831 0.41377 0.71769 0.0
H2008 H 0.40079 0.40555 0.6961 0.0
H2009 H 0.34221 0.36021 0.67674 0.0
H2010 H 0.33242 0.38961 0.61789 0.0
H2011 H 0.33474 0.38097 0.63933 0.0
H2012 H 0.39747 0.42084 0.65453 0.0
C2013 C 0.38571 0.40114 0.69987 0.0
C2014 C 0.35449 0.37341 0.67198 0.0
C2015 C 0.38428 0.40574 0.71226 0.0
C2016 C 0.34732 0.39293 0.62146 0.0
C2017 C 0.34865 0.38785 0.63374 0.0
C2018 C 0.38564 0.40722 0.65923 0.0
C2019 C 0.36798 0.39181 0.69232 0.0
C2020 C 0.36977 0.39031 0.67869 0.0
C2021 C 0.36789 0.39301 0.63897 0.0
C2022 C 0.36969 0.39091 0.65252 0.0
H2023 H 0.33221 0.38669 0.71369 0.0
H2024 H 0.33469 0.37896 0.69212 0.0
H2025 H 0.39752 0.42036 0.67698 0.0
H2026 H 0.39828 0.41509 0.61365 0.0
H2027 H 0.40059 0.40609 0.6351 0.0
C2028 C 0.66396 0.98517 0.71287 0.0
C2029 C 0.64554 0.98365 0.71725 0.0
C2030 C 0.66918 0.98897 0.70032 0.0
C2031 C 0.66439 0.97766 0.67302 0.0
H2032 H 0.65027 0.01092 0.65202 0.0
C2033 C 0.63535 0.95477 0.62353 0.0
C2034 C 0.64152 0.97002 0.61433 0.0
C2035 C 0.64134 0.96025 0.63579 0.0
C2036 C 0.65466 0.00184 0.65775 0.0
H2037 H 0.61886 0.98628 0.71215 0.0
H2038 H 0.62785 0.99277 0.69035 0.0
H2039 H 0.65167 0.01558 0.67445 0.0
H2040 H 0.65913 0.00296 0.61069 0.0
H2041 H 0.66942 0.01263 0.63234 0.0
H2042 H 0.66668 0.96343 0.65636 0.0
C2043 C 0.63838 0.99118 0.69654 0.0
C2044 C 0.65529 0.00437 0.67059 0.0
C2045 C 0.63313 0.98729 0.70903 0.0
C2046 C 0.65416 0.9909 0.61761 0.0
C2047 C 0.65999 0.99642 0.62997 0.0
C2048 C 0.66369 0.97508 0.6602 0.0
C2049 C 0.65613 0.99144 0.69196 0.0
C2050 C 0.65946 0.9918 0.67839 0.0
C2051 C 0.65353 0.98112 0.63919 0.0
C2052 C 0.65811 0.98662 0.65246 0.0
H2053 H 0.67386 0.9825 0.71901 0.0
H2054 H 0.68308 0.9893 0.69709 0.0
H2055 H 0.66753 0.96763 0.67874 0.0
H2056 H 0.62564 0.93855 0.62128 0.0
H2057 H 0.63583 0.94812 0.6427 0.0
C2058 C 0.05301 0.68218 0.71054 0.0
C2059 C 0.06388 0.69974 0.71805 0.0
C2060 C 0.04874 0.68422 0.6982 0.0
C2061 C 0.07151 0.7217 0.67318 0.0
H2062 H 0.02449 0.68035 0.65463 0.0
C2063 C 0.07414 0.72084 0.62023 0.0
C2064 C 0.06871 0.70139 0.61527 0.0
C2065 C 0.06877 0.72255 0.6324 0.0
C2066 C 0.0377 0.69206 0.65968 0.0
H2067 H 0.07748 0.73306 0.71883 0.0
H2068 H 0.06991 0.73663 0.69727 0.0
H2069 H 0.02339 0.6799 0.67724 0.0
H2070 H 0.05225 0.66839 0.61882 0.0
H2071 H 0.04319 0.67135 0.64004 0.0
H2072 H 0.08627 0.73326 0.65575 0.0
C2073 C 0.06494 0.72131 0.70087 0.0
C2074 C 0.03706 0.69181 0.67262 0.0
C2075 C 0.06919 0.71925 0.71323 0.0
C2076 C 0.05669 0.6836 0.62241 0.0
C2077 C 0.05137 0.68531 0.63456 0.0
C2078 C 0.07217 0.72192 0.66027 0.0
C2079 C 0.05527 0.70388 0.69311 0.0
C2080 C 0.05422 0.70625 0.67952 0.0
C2081 C 0.05792 0.70484 0.63984 0.0
C2082 C 0.05554 0.70672 0.65337 0.0
H2083 H 0.04867 0.66692 0.714 0.0
H2084 H 0.04144 0.67049 0.69247 0.0
H2085 H 0.08512 0.73287 0.67819 0.0
H2086 H 0.08329 0.73482 0.61491 0.0
H2087 H 0.07376 0.73781 0.63611 0.0
C2088 C 0.83376 0.08095 0.09141 0.0
C2089 C 0.81482 0.08066 0.09078 0.0
C2090 C 0.85233 0.09969 0.09247 0.0
C2091 C 0.875 0.15532 0.08616 0.0
H2092 H 0.91945 0.16077 0.10728 0.0
C2093 C 0.9503 0.23332 0.09231 0.0
C2094 C 0.96882 0.23278 0.09193 0.0
C2095 C 0.93129 0.21499 0.09317 0.0
C2096 C 0.90724 0.15944 0.10126 0.0
H2097 H 0.80042 0.09969 0.091 0.0
H2098 H 0.83283 0.13239 0.09295 0.0
H2099 H 0.88661 0.12822 0.10692 0.0
H2100 H 0.98204 0.2127 0.09239 0.0
H2101 H 0.94887 0.18071 0.09374 0.0
H2102 H 0.89565 0.18639 0.08037 0.0
C2103 C 0.83336 0.11817 0.09246 0.0
C2104 C 0.88843 0.1408 0.10106 0.0
C2105 C 0.81479 0.09943 0.09142 0.0
C2106 C 0.96801 0.2136 0.09269 0.0
C2107 C 0.949 0.19527 0.09353 0.0
C2108 C 0.89379 0.17393 0.08635 0.0
C2109 C 0.85235 0.11853 0.0929 0.0
C2110 C 0.87214 0.1385 0.09345 0.0
C2111 C 0.93041 0.19574 0.09365 0.0
C2112 C 0.91017 0.17618 0.09385 0.0
H2113 H 0.83426 0.06671 0.09092 0.0
H2114 H 0.86672 0.09945 0.09265 0.0
H2115 H 0.86288 0.15395 0.08004 0.0
H2116 H 0.95046 0.24789 0.0918 0.0
H2117 H 0.91726 0.2159 0.09342 0.0
C2118 C 0.95188 0.74643 0.08647 0.0
C2119 C 0.97058 0.76534 0.08685 0.0
C2120 C 0.93297 0.74604 0.0866 0.0
C2121 C 0.90961 0.77835 0.07994 0.0
H2122 H 0.86439 0.7381 0.10013 0.0
C2123 C 0.83431 0.78095 0.08644 0.0
C2124 C 0.81567 0.76199 0.08601 0.0
C2125 C 0.85324 0.78141 0.08694 0.0
C2126 C 0.8768 0.7493 0.09435 0.0
H2127 H 0.98419 0.79866 0.08771 0.0
H2128 H 0.95119 0.79798 0.088 0.0
H2129 H 0.89738 0.73873 0.10011 0.0
H2130 H 0.80217 0.72866 0.08588 0.0
H2131 H 0.83521 0.72946 0.0866 0.0
H2132 H 0.88904 0.78884 0.0741 0.0
C2133 C 0.95112 0.78347 0.08747 0.0
C2134 C 0.89569 0.74965 0.09434 0.0
C2135 C 0.97002 0.78385 0.08737 0.0
C2136 C 0.8163 0.74351 0.08624 0.0
C2137 C 0.83523 0.74397 0.08672 0.0
C2138 C 0.89072 0.77797 0.07993 0.0
C2139 C 0.93238 0.76456 0.08709 0.0
C2140 C 0.91231 0.76418 0.08713 0.0
C2141 C 0.85393 0.76293 0.08699 0.0
C2142 C 0.87408 0.76344 0.08713 0.0
H2143 H 0.95184 0.73191 0.08604 0.0
H2144 H 0.9188 0.73124 0.08615 0.0
H2145 H 0.92202 0.78952 0.07415 0.0
H2146 H 0.8343 0.79545 0.08633 0.0
H2147 H 0.86734 0.79627 0.08733 0.0
C2148 C 0.29766 0.09632 0.094 0.0
C2149 C 0.28655 0.08023 0.08554 0.0
C2150 C 0.29545 0.11381 0.09406 0.0
C2151 C 0.28025 0.14414 0.07441 0.0
H2152 H 0.27845 0.16878 0.10565 0.0
C2153 C 0.2716 0.21695 0.07713 0.0
C2154 C 0.28459 0.23214 0.08565 0.0
C2155 C 0.26984 0.19739 0.07719 0.0
C2156 C 0.27908 0.16217 0.09685 0.0
H2157 H 0.26433 0.06975 0.07051 0.0
H2158 H 0.26044 0.10041 0.07062 0.0
H2159 H 0.27895 0.13638 0.10558 0.0
H2160 H 0.30578 0.23874 0.10096 0.0
H2161 H 0.30287 0.20478 0.10099 0.0
H2162 H 0.28073 0.17013 0.06569 0.0
C2163 C 0.27096 0.09952 0.07716 0.0
C2164 C 0.27936 0.14361 0.09681 0.0
C2165 C 0.27312 0.08194 0.07713 0.0
C2166 C 0.2956 0.22734 0.0943 0.0
C2167 C 0.29382 0.20782 0.09437 0.0
C2168 C 0.28 0.16275 0.07445 0.0
C2169 C 0.28211 0.11564 0.08563 0.0
C2170 C 0.28026 0.13454 0.0856 0.0
C2171 C 0.28099 0.19263 0.08579 0.0
C2172 C 0.27972 0.17213 0.08568 0.0
H2173 H 0.30816 0.09547 0.10057 0.0
H2174 H 0.3045 0.12609 0.10058 0.0
H2175 H 0.28116 0.13765 0.06563 0.0
H2176 H 0.2629 0.2202 0.07037 0.0
H2177 H 0.25967 0.18596 0.07054 0.0
C2178 C 0.2195 0.97354 0.91747 0.0
C2179 C 0.23807 0.97367 0.91981 0.0
C2180 C 0.20053 0.95519 0.91843 0.0
C2181 C 0.17816 0.89868 0.91713 0.0
H2182 H 0.12935 0.89753 0.93041 0.0
C2183 C 0.10054 0.82257 0.92228 0.0
C2184 C 0.08277 0.82302 0.91852 0.0
C2185 C 0.11946 0.84092 0.92345 0.0
C2186 C 0.14281 0.89764 0.92659 0.0
H2187 H 0.25134 0.95486 0.92534 0.0
H2188 H 0.21821 0.92287 0.92714 0.0
H2189 H 0.16251 0.92974 0.93078 0.0
H2190 H 0.07074 0.84301 0.91321 0.0
H2191 H 0.1038 0.87504 0.91514 0.0
H2192 H 0.15848 0.86668 0.91281 0.0
C2193 C 0.21831 0.93687 0.92438 0.0
C2194 C 0.16181 0.91609 0.9268 0.0
C2195 C 0.23728 0.95521 0.92342 0.0
C2196 C 0.08419 0.84219 0.91614 0.0
C2197 C 0.1031 0.86054 0.91732 0.0
C2198 C 0.15919 0.88026 0.91692 0.0
C2199 C 0.19973 0.93659 0.92174 0.0
C2200 C 0.17968 0.91685 0.92201 0.0
C2201 C 0.12099 0.86011 0.92089 0.0
C2202 C 0.14128 0.87955 0.92158 0.0
H2203 H 0.21964 0.98753 0.91465 0.0
H2204 H 0.18652 0.95547 0.91621 0.0
H2205 H 0.19154 0.8988 0.91316 0.0
H2206 H 0.09989 0.80802 0.92422 0.0
H2207 H 0.1329 0.84008 0.92637 0.0
C2208 C 0.22232 0.27184 0.90614 0.0
C2209 C 0.2404 0.28888 0.91077 0.0
C2210 C 0.20357 0.27178 0.90628 0.0
C2211 C 0.18206 0.30662 0.90744 0.0
H2212 H 0.13159 0.25721 0.91728 0.0
C2213 C 0.10495 0.3059 0.9141 0.0
C2214 C 0.08692 0.28842 0.90983 0.0
C2215 C 0.12372 0.30602 0.91442 0.0
C2216 C 0.1455 0.27106 0.91437 0.0
H2217 H 0.25305 0.31917 0.91921 0.0
H2218 H 0.2203 0.31904 0.91948 0.0
H2219 H 0.16426 0.25723 0.91745 0.0
H2220 H 0.07437 0.25741 0.90247 0.0
H2221 H 0.10717 0.25772 0.90284 0.0
H2222 H 0.16332 0.32041 0.90426 0.0
C2223 C 0.22065 0.30581 0.91565 0.0
C2224 C 0.16422 0.27107 0.91448 0.0
C2225 C 0.23937 0.30583 0.91556 0.0
C2226 C 0.08801 0.27108 0.90585 0.0
C2227 C 0.10678 0.27122 0.90614 0.0
C2228 C 0.16334 0.30659 0.90729 0.0
C2229 C 0.20255 0.28879 0.911 0.0
C2230 C 0.1827 0.28884 0.911 0.0
C2231 C 0.12486 0.28868 0.91044 0.0
C2232 C 0.14482 0.28879 0.91073 0.0
H2233 H 0.22265 0.25857 0.90237 0.0
H2234 H 0.18994 0.25854 0.90251 0.0
H2235 H 0.196 0.32046 0.90455 0.0
H2236 H 0.10455 0.31946 0.91727 0.0
H2237 H 0.1373 0.31962 0.91794 0.0
C2238 C 0.75504 0.82887 0.90444 0.0
C2239 C 0.7666 0.8242 0.91273 0.0
C2240 C 0.75685 0.8484 0.90447 0.0
C2241 C 0.77153 0.89391 0.92388 0.0
H2242 H 0.77482 0.92058 0.89249 0.0
C2243 C 0.7803 0.97538 0.92086 0.0
C2244 C 0.7682 0.97796 0.91185 0.0
C2245 C 0.78194 0.95752 0.92099 0.0
C2246 C 0.77373 0.91327 0.90133 0.0
H2247 H 0.78901 0.83621 0.92764 0.0
H2248 H 0.79208 0.87045 0.92775 0.0
H2249 H 0.77408 0.88758 0.8928 0.0
H2250 H 0.74843 0.96395 0.89589 0.0
H2251 H 0.75101 0.93273 0.89623 0.0
H2252 H 0.7707 0.91937 0.9324 0.0
C2253 C 0.7816 0.85894 0.92124 0.0
C2254 C 0.77334 0.89439 0.90151 0.0
C2255 C 0.7799 0.83939 0.92115 0.0
C2256 C 0.75794 0.96245 0.90292 0.0
C2257 C 0.75954 0.9446 0.90307 0.0
C2258 C 0.77181 0.91278 0.92371 0.0
C2259 C 0.77018 0.86367 0.91284 0.0
C2260 C 0.77196 0.88437 0.91277 0.0
C2261 C 0.7715 0.94187 0.91213 0.0
C2262 C 0.77263 0.92254 0.91241 0.0
H2263 H 0.74463 0.81747 0.89785 0.0
H2264 H 0.74762 0.85148 0.898 0.0
H2265 H 0.77028 0.88646 0.9327 0.0
H2266 H 0.78843 0.98712 0.92784 0.0
H2267 H 0.79148 0.95602 0.928 0.0
C2268 C 0.49417 0.43566 0.41742 0.0
C2269 C 0.49392 0.41707 0.41988 0.0
C2270 C 0.5129 0.45433 0.41682 0.0
C2271 C 0.56752 0.4789 0.42667 0.0
H2272 H 0.57572 0.51935 0.4015 0.0
C2273 C 0.64645 0.55283 0.41882 0.0
C2274 C 0.646 0.57125 0.41716 0.0
C2275 C 0.62809 0.53375 0.41876 0.0
C2276 C 0.57359 0.50827 0.40864 0.0
H2277 H 0.51304 0.40338 0.42358 0.0
H2278 H 0.54574 0.43591 0.4224 0.0
H2279 H 0.54321 0.48655 0.40222 0.0
H2280 H 0.62606 0.5842 0.41402 0.0
H2281 H 0.59405 0.55095 0.41396 0.0
H2282 H 0.5979 0.50065 0.43309 0.0
C2283 C 0.53147 0.43613 0.4211 0.0
C2284 C 0.55496 0.4895 0.40907 0.0
C2285 C 0.51275 0.41748 0.4217 0.0
C2286 C 0.62689 0.57024 0.4153 0.0
C2287 C 0.60857 0.55119 0.4152 0.0
C2288 C 0.58616 0.49765 0.42622 0.0
C2289 C 0.53177 0.45478 0.41867 0.0
C2290 C 0.55168 0.47463 0.41811 0.0
C2291 C 0.60895 0.53274 0.417 0.0
C2292 C 0.58937 0.51258 0.41724 0.0
H2293 H 0.47988 0.43582 0.41602 0.0
H2294 H 0.51257 0.46845 0.4151 0.0
H2295 H 0.56537 0.46791 0.43387 0.0
H2296 H 0.66097 0.55315 0.42026 0.0
H2297 H 0.62889 0.51978 0.42004 0.0
C2298 C 0.63799 0.11558 0.41087 0.0
C2299 C 0.64133 0.10475 0.42038 0.0
C2300 C 0.62013 0.11722 0.41079 0.0
C2301 C 0.57764 0.11226 0.43083 0.0
H2302 H 0.54763 0.10203 0.39993 0.0
C2303 C 0.49276 0.093 0.42881 0.0
C2304 C 0.48675 0.10132 0.41908 0.0
C2305 C 0.51255 0.09542 0.42903 0.0
C2306 C 0.55597 0.10524 0.4086 0.0
H2307 H 0.6288 0.08743 0.43735 0.0
H2308 H 0.59762 0.09017 0.43717 0.0
H2309 H 0.58069 0.10288 0.40023 0.0
H2310 H 0.49679 0.11894 0.40203 0.0
H2311 H 0.53148 0.1233 0.40245 0.0
H2312 H 0.55279 0.11435 0.43922 0.0
C2313 C 0.60886 0.09759 0.42985 0.0
C2314 C 0.57493 0.10572 0.40877 0.0
C2315 C 0.62667 0.09591 0.42991 0.0
C2316 C 0.50099 0.11231 0.40964 0.0
C2317 C 0.5208 0.11471 0.40985 0.0
C2318 C 0.5587 0.11179 0.43065 0.0
C2319 C 0.6053 0.10812 0.42024 0.0
C2320 C 0.58585 0.10899 0.41991 0.0
C2321 C 0.52677 0.1062 0.41952 0.0
C2322 C 0.54752 0.10802 0.41956 0.0
H2323 H 0.64905 0.1226 0.40341 0.0
H2324 H 0.61794 0.12564 0.40333 0.0
H2325 H 0.58586 0.11516 0.43952 0.0
H2326 H 0.4821 0.08441 0.43621 0.0
H2327 H 0.51654 0.08842 0.43652 0.0
C2328 C 0.97 0.43658 0.41078 0.0
C2329 C 0.9526 0.41918 0.41571 0.0
C2330 C 0.97056 0.45553 0.40996 0.0
C2331 C 0.93726 0.47931 0.41053 0.0
H2332 H 0.98829 0.52878 0.41956 0.0
C2333 C 0.94258 0.55804 0.4203 0.0
C2334 C 0.95994 0.57578 0.41563 0.0
C2335 C 0.94127 0.53873 0.41949 0.0
C2336 C 0.974 0.51514 0.41687 0.0
H2337 H 0.92204 0.40785 0.42351 0.0
H2338 H 0.92314 0.44099 0.42226 0.0
H2339 H 0.98679 0.49544 0.41963 0.0
H2340 H 0.98937 0.58723 0.40626 0.0
H2341 H 0.98708 0.55353 0.40487 0.0
H2342 H 0.92442 0.49909 0.40797 0.0
C2343 C 0.93623 0.43996 0.41886 0.0
C2344 C 0.97314 0.49603 0.41689 0.0
C2345 C 0.93565 0.421 0.41964 0.0
C2346 C 0.97582 0.57383 0.40998 0.0
C2347 C 0.97457 0.55456 0.40924 0.0
C2348 C 0.9381 0.49844 0.41056 0.0
C2349 C 0.95376 0.4575 0.41409 0.0
C2350 C 0.95475 0.47787 0.41375 0.0
C2351 C 0.95735 0.53683 0.41407 0.0
C2352 C 0.95648 0.51655 0.41376 0.0
H2353 H 0.98325 0.4356 0.40762 0.0
H2354 H 0.98417 0.46864 0.40606 0.0
H2355 H 0.92294 0.46567 0.40788 0.0
H2356 H 0.9301 0.5591 0.4247 0.0
H2357 H 0.9279 0.52537 0.42339 0.0
C2358 C 0.769 0.15607 0.23648 0.0
C2359 C 0.75058 0.15553 0.23987 0.0
C2360 C 0.78733 0.17493 0.23517 0.0
C2361 C 0.80812 0.23103 0.23078 0.0
H2362 H 0.85797 0.23529 0.24471 0.0
C2363 C 0.8838 0.30902 0.23797 0.0
C2364 C 0.9026 0.30947 0.23591 0.0
C2365 C 0.86506 0.29035 0.23739 0.0
C2366 C 0.84427 0.2343 0.2406 0.0
H2367 H 0.73678 0.17428 0.24435 0.0
H2368 H 0.76891 0.20731 0.24217 0.0
H2369 H 0.82562 0.20257 0.24581 0.0
H2370 H 0.91652 0.29091 0.23118 0.0
H2371 H 0.88381 0.25837 0.23002 0.0
H2372 H 0.82684 0.26289 0.22568 0.0
C2373 C 0.76913 0.19314 0.24041 0.0
C2374 C 0.8257 0.21553 0.24124 0.0
C2375 C 0.75076 0.17424 0.24173 0.0
C2376 C 0.90227 0.29102 0.23288 0.0
C2377 C 0.88355 0.27237 0.23229 0.0
C2378 C 0.82673 0.24984 0.23013 0.0
C2379 C 0.78766 0.19369 0.23722 0.0
C2380 C 0.8074 0.21367 0.23635 0.0
C2381 C 0.86475 0.27176 0.23474 0.0
C2382 C 0.84502 0.25169 0.23506 0.0
H2383 H 0.76932 0.1419 0.23492 0.0
H2384 H 0.80126 0.17482 0.23251 0.0
H2385 H 0.79433 0.23002 0.22679 0.0
H2386 H 0.88359 0.32301 0.24034 0.0
H2387 H 0.85088 0.29039 0.23943 0.0
C2388 C 0.90439 0.64702 0.24023 0.0
C2389 C 0.905 0.62852 0.24002 0.0
C2390 C 0.88555 0.64665 0.23918 0.0
C2391 C 0.82971 0.61217 0.24401 0.0
H2392 H 0.82466 0.65349 0.225 0.0
C2393 C 0.75133 0.60837 0.2374 0.0
C2394 C 0.75123 0.62702 0.23878 0.0
C2395 C 0.77001 0.60837 0.23667 0.0
C2396 C 0.82588 0.64195 0.23043 0.0
H2397 H 0.88649 0.59519 0.23824 0.0
H2398 H 0.85363 0.59455 0.23627 0.0
H2399 H 0.85751 0.6538 0.22524 0.0
H2400 H 0.77053 0.66032 0.24028 0.0
H2401 H 0.80317 0.66031 0.23913 0.0
H2402 H 0.79818 0.60042 0.2493 0.0
C2403 C 0.86765 0.60931 0.23744 0.0
C2404 C 0.84469 0.64213 0.23056 0.0
C2405 C 0.88648 0.60969 0.23849 0.0
C2406 C 0.77014 0.6457 0.2392 0.0
C2407 C 0.78883 0.64571 0.23847 0.0
C2408 C 0.81092 0.61199 0.24387 0.0
C2409 C 0.86695 0.62777 0.23789 0.0
C2410 C 0.84683 0.62729 0.2374 0.0
C2411 C 0.78897 0.62702 0.23731 0.0
C2412 C 0.80881 0.62692 0.23712 0.0
H2413 H 0.91843 0.66177 0.24141 0.0
H2414 H 0.88552 0.66112 0.23969 0.0
H2415 H 0.83094 0.60074 0.24954 0.0
H2416 H 0.73698 0.59373 0.23699 0.0
H2417 H 0.76959 0.59374 0.2356 0.0
C2418 C 0.41448 0.28653 0.24214 0.0
C2419 C 0.43312 0.30549 0.24178 0.0
C2420 C 0.41463 0.26791 0.24262 0.0
C2421 C 0.44755 0.24474 0.23679 0.0
H2422 H 0.40919 0.20212 0.25913 0.0
C2423 C 0.45161 0.17094 0.2475 0.0
C2424 C 0.43268 0.15224 0.24773 0.0
C2425 C 0.45199 0.18984 0.24691 0.0
C2426 C 0.41987 0.21379 0.25276 0.0
H2427 H 0.46654 0.31984 0.24143 0.0
H2428 H 0.46682 0.28733 0.24236 0.0
H2429 H 0.40911 0.23463 0.25747 0.0
H2430 H 0.39933 0.13864 0.24759 0.0
H2431 H 0.39998 0.17156 0.2465 0.0
H2432 H 0.45831 0.22386 0.2321 0.0
C2433 C 0.45207 0.28683 0.24215 0.0
C2434 C 0.4198 0.2324 0.25179 0.0
C2435 C 0.45192 0.30545 0.24167 0.0
C2436 C 0.41416 0.1528 0.24746 0.0
C2437 C 0.41453 0.17167 0.2469 0.0
C2438 C 0.44763 0.22611 0.23777 0.0
C2439 C 0.43343 0.26784 0.24275 0.0
C2440 C 0.43358 0.24807 0.24376 0.0
C2441 C 0.43344 0.1904 0.24657 0.0
C2442 C 0.43374 0.2104 0.24574 0.0
H2443 H 0.39974 0.28608 0.2422 0.0
H2444 H 0.39999 0.25354 0.24288 0.0
H2445 H 0.4582 0.2564 0.23041 0.0
H2446 H 0.46613 0.17097 0.24771 0.0
H2447 H 0.4668 0.20402 0.2468 0.0
C2448 C 0.28805 0.8936 0.75682 0.0
C2449 C 0.30405 0.89843 0.74831 0.0
C2450 C 0.27025 0.87416 0.75672 0.0
C2451 C 0.23871 0.82924 0.73695 0.0
H2452 H 0.21494 0.80261 0.76829 0.0
C2453 C 0.16442 0.74861 0.74045 0.0
C2454 C 0.14999 0.74689 0.7494 0.0
C2455 C 0.18418 0.76615 0.74009 0.0
C2456 C 0.2213 0.8099 0.75946 0.0
H2457 H 0.31394 0.88675 0.73296 0.0
H2458 H 0.28264 0.85259 0.73278 0.0
H2459 H 0.24781 0.83498 0.76803 0.0
H2460 H 0.14485 0.76214 0.76495 0.0
H2461 H 0.17911 0.79269 0.76426 0.0
H2462 H 0.21194 0.80428 0.72841 0.0
C2463 C 0.28392 0.86394 0.7395 0.0
C2464 C 0.24014 0.82844 0.75931 0.0
C2465 C 0.30184 0.88344 0.73963 0.0
C2466 C 0.15566 0.76298 0.75797 0.0
C2467 C 0.17536 0.78043 0.75762 0.0
C2468 C 0.2198 0.81067 0.7371 0.0
C2469 C 0.26798 0.85909 0.74809 0.0
C2470 C 0.24887 0.83851 0.74808 0.0
C2471 C 0.18987 0.78223 0.7487 0.0
C2472 C 0.21071 0.801 0.74838 0.0
H2473 H 0.28927 0.90485 0.76359 0.0
H2474 H 0.25811 0.87103 0.76332 0.0
H2475 H 0.24498 0.83672 0.72815 0.0
H2476 H 0.16046 0.73643 0.73373 0.0
H2477 H 0.19506 0.76702 0.73316 0.0
C2478 C 0.28851 0.41301 0.75118 0.0
C2479 C 0.3077 0.43132 0.75025 0.0
C2480 C 0.27021 0.41374 0.75175 0.0
C2481 C 0.24999 0.44834 0.75959 0.0
H2482 H 0.20196 0.40857 0.74106 0.0
C2483 C 0.17572 0.4539 0.75486 0.0
C2484 C 0.1567 0.43531 0.75528 0.0
C2485 C 0.19429 0.45362 0.75459 0.0
C2486 C 0.21515 0.41962 0.74642 0.0
H2487 H 0.3228 0.46475 0.74911 0.0
H2488 H 0.29076 0.46602 0.75002 0.0
H2489 H 0.23412 0.40779 0.73963 0.0
H2490 H 0.14218 0.4019 0.75608 0.0
H2491 H 0.17459 0.40141 0.75578 0.0
H2492 H 0.23098 0.46014 0.7664 0.0
C2493 C 0.2899 0.45112 0.75043 0.0
C2494 C 0.23359 0.41919 0.74558 0.0
C2495 C 0.30823 0.45038 0.74983 0.0
C2496 C 0.15661 0.41647 0.7557 0.0
C2497 C 0.17517 0.41619 0.75544 0.0
C2498 C 0.23152 0.44875 0.76045 0.0
C2499 C 0.27069 0.4328 0.75142 0.0
C2500 C 0.25121 0.43351 0.75218 0.0
C2501 C 0.19422 0.43475 0.75474 0.0
C2502 C 0.21387 0.43436 0.75389 0.0
H2503 H 0.28763 0.39809 0.75155 0.0
H2504 H 0.25568 0.39937 0.75266 0.0
H2505 H 0.26322 0.4594 0.76492 0.0
H2506 H 0.17625 0.46866 0.7545 0.0
H2507 H 0.20869 0.46817 0.75393 0.0
C2508 C 0.64024 0.76835 0.75039 0.0
C2509 C 0.62233 0.74949 0.74772 0.0
C2510 C 0.63972 0.78678 0.75046 0.0
C2511 C 0.61039 0.81099 0.73898 0.0
H2512 H 0.63827 0.84986 0.76569 0.0
C2513 C 0.60331 0.88404 0.74634 0.0
C2514 C 0.62133 0.90222 0.74991 0.0
C2515 C 0.60304 0.86519 0.74591 0.0
C2516 C 0.63061 0.8393 0.75808 0.0
H2517 H 0.58986 0.73511 0.74288 0.0
H2518 H 0.58892 0.76739 0.74302 0.0
H2519 H 0.63853 0.81739 0.76515 0.0
H2520 H 0.65326 0.91501 0.75563 0.0
H2521 H 0.65291 0.88224 0.7547 0.0
H2522 H 0.6026 0.833 0.73187 0.0
C2523 C 0.6034 0.76791 0.74498 0.0
C2524 C 0.63075 0.82068 0.75778 0.0
C2525 C 0.60391 0.74943 0.74496 0.0
C2526 C 0.63911 0.90123 0.75292 0.0
C2527 C 0.63886 0.88242 0.75245 0.0
C2528 C 0.61031 0.82968 0.73926 0.0
C2529 C 0.62128 0.78676 0.74783 0.0
C2530 C 0.62073 0.80636 0.7482 0.0
C2531 C 0.6208 0.86415 0.74902 0.0
C2532 C 0.62051 0.8441 0.74878 0.0
H2533 H 0.65469 0.7689 0.75252 0.0
H2534 H 0.65382 0.80109 0.75251 0.0
H2535 H 0.60272 0.80035 0.73141 0.0
H2536 H 0.58936 0.88434 0.744 0.0
H2537 H 0.58882 0.85137 0.74336 0.0
C2538 C 0.56777 0.62377 0.57534 0.0
C2539 C 0.57228 0.64064 0.58306 0.0
C2540 C 0.54812 0.60622 0.5754 0.0
C2541 C 0.50099 0.57773 0.59421 0.0
H2542 H 0.47695 0.55096 0.56294 0.0
C2543 C 0.41872 0.5058 0.59014 0.0
C2544 C 0.41708 0.48995 0.58237 0.0
C2545 C 0.43692 0.52506 0.59035 0.0
C2546 C 0.48351 0.55817 0.57176 0.0
H2547 H 0.55981 0.65236 0.59695 0.0
H2548 H 0.52531 0.62161 0.597 0.0
H2549 H 0.51009 0.58303 0.56312 0.0
H2550 H 0.43314 0.48179 0.56876 0.0
H2551 H 0.4648 0.51522 0.56917 0.0
H2552 H 0.47441 0.55266 0.60284 0.0
C2553 C 0.53706 0.62194 0.59098 0.0
C2554 C 0.5025 0.57654 0.57186 0.0
C2555 C 0.55676 0.63956 0.59091 0.0
C2556 C 0.43391 0.49372 0.57482 0.0
C2557 C 0.45201 0.51293 0.575 0.0
C2558 C 0.48193 0.55931 0.5941 0.0
C2559 C 0.5325 0.60512 0.58317 0.0
C2560 C 0.51163 0.58636 0.58309 0.0
C2561 C 0.45374 0.52884 0.58274 0.0
C2562 C 0.47316 0.54916 0.58288 0.0
H2563 H 0.57943 0.6241 0.56923 0.0
H2564 H 0.54524 0.59339 0.56943 0.0
H2565 H 0.50769 0.58483 0.60302 0.0
H2566 H 0.40597 0.50332 0.59606 0.0
H2567 H 0.43774 0.53707 0.59636 0.0
C2568 C 0.43365 0.97796 0.57888 0.0
C2569 C 0.41437 0.95968 0.57937 0.0
C2570 C 0.45193 0.97714 0.57872 0.0
C2571 C 0.47284 0.9429 0.58644 0.0
H2572 H 0.51846 0.98056 0.56552 0.0
C2573 C 0.54535 0.93538 0.57877 0.0
C2574 C 0.56456 0.95375 0.57898 0.0
C2575 C 0.52698 0.93604 0.57882 0.0
C2576 C 0.50593 0.97008 0.5715 0.0
H2577 H 0.39906 0.92621 0.57995 0.0
H2578 H 0.43098 0.92474 0.57949 0.0
H2579 H 0.48639 0.9817 0.56544 0.0
H2580 H 0.57967 0.98723 0.57944 0.0
H2581 H 0.54757 0.9884 0.57955 0.0
H2582 H 0.49238 0.93122 0.59245 0.0
C2583 C 0.432 0.93973 0.57943 0.0
C2584 C 0.48755 0.97074 0.57146 0.0
C2585 C 0.41371 0.94056 0.57962 0.0
C2586 C 0.56508 0.97281 0.57925 0.0
C2587 C 0.54671 0.97348 0.57924 0.0
C2588 C 0.49119 0.9422 0.58645 0.0
C2589 C 0.45133 0.95802 0.57901 0.0
C2590 C 0.4708 0.95718 0.57895 0.0
C2591 C 0.52746 0.9551 0.57903 0.0
C2592 C 0.50794 0.95581 0.579 0.0
H2593 H 0.43463 0.99294 0.57872 0.0
H2594 H 0.46655 0.99153 0.57857 0.0
H2595 H 0.46036 0.93246 0.59247 0.0
H2596 H 0.54448 0.92046 0.57854 0.0
H2597 H 0.51239 0.92163 0.57851 0.0
C2598 C 0.12118 0.64436 0.58633 0.0
C2599 C 0.10188 0.64332 0.58595 0.0
C2600 C 0.12237 0.62625 0.58628 0.0
C2601 C 0.09126 0.5699 0.59211 0.0
H2602 H 0.13121 0.56684 0.57058 0.0
C2603 C 0.08507 0.49243 0.57914 0.0
C2604 C 0.10332 0.49134 0.57918 0.0
C2605 C 0.08589 0.51143 0.58038 0.0
C2606 C 0.12015 0.56754 0.57675 0.0
H2607 H 0.0687 0.62258 0.58538 0.0
H2608 H 0.07076 0.59106 0.5852 0.0
H2609 H 0.13093 0.5993 0.57239 0.0
H2610 H 0.13676 0.50931 0.58037 0.0
H2611 H 0.1382 0.54263 0.58252 0.0
H2612 H 0.08028 0.53809 0.59635 0.0
C2613 C 0.08499 0.6058 0.58568 0.0
C2614 C 0.12 0.58614 0.5778 0.0
C2615 C 0.0838 0.62387 0.58571 0.0
C2616 C 0.12245 0.5097 0.58028 0.0
C2617 C 0.12327 0.52876 0.58148 0.0
C2618 C 0.09138 0.55133 0.59104 0.0
C2619 C 0.10428 0.60676 0.58589 0.0
C2620 C 0.10538 0.58745 0.58538 0.0
C2621 C 0.10498 0.52979 0.58166 0.0
C2622 C 0.10564 0.54986 0.58323 0.0
H2623 H 0.13538 0.65916 0.58653 0.0
H2624 H 0.13746 0.6275 0.58658 0.0
H2625 H 0.08006 0.57051 0.59821 0.0
H2626 H 0.0701 0.47855 0.57828 0.0
H2627 H 0.07155 0.51175 0.58027 0.0
loop_
_geom_bond_atom_site_label_1
_geom_bond_atom_site_label_2
_geom_bond_distance
_geom_bond_site_symmetry_2
_ccdc_geom_bond_type
In0 O1 2.294 . S
In0 O2 2.326 . S
In0 O6 2.266 . S
In0 O7 2.326 . S
In0 O8 2.266 . S
In0 O9 2.326 1_455 S
In0 O11 2.294 . S
In0 O12 2.326 . S
O1 In0 2.294 . S
O1 C10 1.240 . S
O2 In0 2.326 . S
O2 C10 1.252 . S
C3 O6 1.252 . S
C3 O7 1.260 . S
C4 O11 1.240 . S
C4 O12 1.252 . S
C5 O8 1.252 1_655 S
C5 O9 1.260 . S
O6 In0 2.266 . S
O6 C3 1.252 . S
O7 In0 2.326 . S
O7 C3 1.260 . S
O8 In0 2.266 . S
O8 C5 1.252 1_455 S
O9 In0 2.326 1_655 S
O9 C5 1.260 . S
C10 O1 1.240 . S
C10 O2 1.252 . S
O11 In0 2.294 . S
O11 C4 1.240 . S
O12 In0 2.326 . S
O12 C4 1.252 . S
In13 O14 2.294 . S
In13 O15 2.326 . S
In13 O19 2.266 . S
In13 O20 2.326 . S
In13 O21 2.266 . S
In13 O22 2.326 . S
In13 O24 2.294 . S
In13 O25 2.326 . S
O14 In13 2.294 . S
O14 C23 1.240 . S
O15 In13 2.326 . S
O15 C23 1.252 . S
C16 O19 1.252 . S
C16 O20 1.260 . S
C17 O24 1.240 . S
C17 O25 1.252 . S
C18 O21 1.252 . S
C18 O22 1.260 . S
O19 In13 2.266 . S
O19 C16 1.252 . S
O20 In13 2.326 . S
O20 C16 1.260 . S
O21 In13 2.266 . S
O21 C18 1.252 . S
O22 In13 2.326 . S
O22 C18 1.260 . S
C23 O14 1.240 . S
C23 O15 1.252 . S
O24 In13 2.294 . S
O24 C17 1.240 . S
O25 In13 2.326 . S
O25 C17 1.252 . S
In26 O27 2.294 . S
In26 O28 2.326 . S
In26 O32 2.266 . S
In26 O33 2.326 . S
In26 O34 2.266 . S
In26 O35 2.326 . S
In26 O37 2.294 . S
In26 O38 2.326 1_545 S
O27 In26 2.294 . S
O27 C36 1.240 . S
O28 In26 2.326 . S
O28 C36 1.252 . S
C29 O32 1.252 . S
C29 O33 1.260 . S
C30 O37 1.240 1_565 S
C30 O38 1.252 . S
C31 O34 1.252 . S
C31 O35 1.260 . S
O32 In26 2.266 . S
O32 C29 1.252 . S
O33 In26 2.326 . S
O33 C29 1.260 . S
O34 In26 2.266 . S
O34 C31 1.252 . S
O35 In26 2.326 . S
O35 C31 1.260 . S
C36 O27 1.240 . S
C36 O28 1.252 . S
O37 In26 2.294 . S
O37 C30 1.240 1_545 S
O38 In26 2.326 1_565 S
O38 C30 1.252 . S
In39 O40 2.294 . S
In39 O41 2.326 . S
In39 O45 2.266 . S
In39 O46 2.326 1_545 S
In39 O47 2.266 . S
In39 O48 2.326 . S
In39 O50 2.294 . S
In39 O51 2.326 . S
O40 In39 2.294 . S
O40 C49 1.240 . S
O41 In39 2.326 . S
O41 C49 1.252 . S
C42 O45 1.252 1_565 S
C42 O46 1.260 . S
C43 O50 1.240 . S
C43 O51 1.252 . S
C44 O47 1.252 . S
C44 O48 1.260 . S
O45 In39 2.266 . S
O45 C42 1.252 1_545 S
O46 In39 2.326 1_565 S
O46 C42 1.260 . S
O47 In39 2.266 . S
O47 C44 1.252 . S
O48 In39 2.326 . S
O48 C44 1.260 . S
C49 O40 1.240 . S
C49 O41 1.252 . S
O50 In39 2.294 . S
O50 C43 1.240 . S
O51 In39 2.326 . S
O51 C43 1.252 . S
In52 O53 2.294 . S
In52 O54 2.326 . S
In52 O58 2.266 . S
In52 O59 2.326 . S
In52 O60 2.266 . S
In52 O61 2.326 . S
In52 O63 2.294 . S
In52 O64 2.326 1_455 S
O53 In52 2.294 . S
O53 C62 1.240 . S
O54 In52 2.326 . S
O54 C62 1.252 . S
C55 O58 1.252 . S
C55 O59 1.260 . S
C56 O63 1.240 1_655 S
C56 O64 1.252 . S
C57 O60 1.252 . S
C57 O61 1.260 . S
O58 In52 2.266 . S
O58 C55 1.252 . S
O59 In52 2.326 . S
O59 C55 1.260 . S
O60 In52 2.266 . S
O60 C57 1.252 . S
O61 In52 2.326 . S
O61 C57 1.260 . S
C62 O53 1.240 . S
C62 O54 1.252 . S
O63 In52 2.294 . S
O63 C56 1.240 1_455 S
O64 In52 2.326 1_655 S
O64 C56 1.252 . S
In65 O66 2.294 . S
In65 O67 2.326 . S
In65 O71 2.266 . S
In65 O72 2.326 . S
In65 O73 2.266 . S
In65 O74 2.326 . S
In65 O76 2.294 . S
In65 O77 2.326 . S
O66 In65 2.294 . S
O66 C75 1.240 . S
O67 In65 2.326 . S
O67 C75 1.252 . S
C68 O71 1.252 . S
C68 O72 1.260 . S
C69 O76 1.240 . S
C69 O77 1.252 . S
C70 O73 1.252 . S
C70 O74 1.260 . S
O71 In65 2.266 . S
O71 C68 1.252 . S
O72 In65 2.326 . S
O72 C68 1.260 . S
O73 In65 2.266 . S
O73 C70 1.252 . S
O74 In65 2.326 . S
O74 C70 1.260 . S
C75 O66 1.240 . S
C75 O67 1.252 . S
O76 In65 2.294 . S
O76 C69 1.240 . S
O77 In65 2.326 . S
O77 C69 1.252 . S
In78 O79 2.294 . S
In78 O80 2.326 1_455 S
In78 O84 2.266 . S
In78 O85 2.326 . S
In78 O86 2.266 . S
In78 O87 2.326 . S
In78 O89 2.294 . S
In78 O90 2.326 . S
O79 In78 2.294 . S
O79 C88 1.240 1_455 S
O80 In78 2.326 1_655 S
O80 C88 1.252 . S
C81 O84 1.252 . S
C81 O85 1.260 . S
C82 O89 1.240 . S
C82 O90 1.252 . S
C83 O86 1.252 . S
C83 O87 1.260 . S
O84 In78 2.266 . S
O84 C81 1.252 . S
O85 In78 2.326 . S
O85 C81 1.260 . S
O86 In78 2.266 . S
O86 C83 1.252 . S
O87 In78 2.326 . S
O87 C83 1.260 . S
C88 O79 1.240 1_655 S
C88 O80 1.252 . S
O89 In78 2.294 . S
O89 C82 1.240 . S
O90 In78 2.326 . S
O90 C82 1.252 . S
In91 O92 2.294 . S
In91 O93 2.326 . S
In91 O97 2.266 . S
In91 O98 2.326 . S
In91 O99 2.266 . S
In91 O100 2.326 . S
In91 O102 2.294 . S
In91 O103 2.326 . S
O92 In91 2.294 . S
O92 C101 1.240 . S
O93 In91 2.326 . S
O93 C101 1.252 . S
C94 O97 1.252 . S
C94 O98 1.260 . S
C95 O102 1.240 . S
C95 O103 1.252 . S
C96 O99 1.252 . S
C96 O100 1.260 . S
O97 In91 2.266 . S
O97 C94 1.252 . S
O98 In91 2.326 . S
O98 C94 1.260 . S
O99 In91 2.266 . S
O99 C96 1.252 . S
O100 In91 2.326 . S
O100 C96 1.260 . S
C101 O92 1.240 . S
C101 O93 1.252 . S
O102 In91 2.294 . S
O102 C95 1.240 . S
O103 In91 2.326 . S
O103 C95 1.252 . S
In104 O105 2.294 . S
In104 O106 2.326 . S
In104 O110 2.266 . S
In104 O111 2.326 . S
In104 O112 2.266 . S
In104 O113 2.326 1_545 S
In104 O115 2.294 . S
In104 O116 2.326 . S
O105 In104 2.294 . S
O105 C114 1.240 . S
O106 In104 2.326 . S
O106 C114 1.252 . S
C107 O110 1.252 . S
C107 O111 1.260 . S
C108 O115 1.240 . S
C108 O116 1.252 . S
C109 O112 1.252 1_565 S
C109 O113 1.260 . S
O110 In104 2.266 . S
O110 C107 1.252 . S
O111 In104 2.326 . S
O111 C107 1.260 . S
O112 In104 2.266 . S
O112 C109 1.252 1_545 S
O113 In104 2.326 1_565 S
O113 C109 1.260 . S
C114 O105 1.240 . S
C114 O106 1.252 . S
O115 In104 2.294 . S
O115 C108 1.240 . S
O116 In104 2.326 . S
O116 C108 1.252 . S
In117 O118 2.294 . S
In117 O119 2.326 1_545 S
In117 O123 2.266 . S
In117 O124 2.326 . S
In117 O125 2.266 . S
In117 O126 2.326 . S
In117 O128 2.294 . S
In117 O129 2.326 . S
O118 In117 2.294 . S
O118 C127 1.240 1_545 S
O119 In117 2.326 1_565 S
O119 C127 1.252 . S
C120 O123 1.252 . S
C120 O124 1.260 . S
C121 O128 1.240 . S
C121 O129 1.252 . S
C122 O125 1.252 . S
C122 O126 1.260 . S
O123 In117 2.266 . S
O123 C120 1.252 . S
O124 In117 2.326 . S
O124 C120 1.260 . S
O125 In117 2.266 . S
O125 C122 1.252 . S
O126 In117 2.326 . S
O126 C122 1.260 . S
C127 O118 1.240 1_565 S
C127 O119 1.252 . S
O128 In117 2.294 . S
O128 C121 1.240 . S
O129 In117 2.326 . S
O129 C121 1.252 . S
In130 O131 2.294 . S
In130 O132 2.326 . S
In130 O136 2.266 . S
In130 O137 2.326 . S
In130 O138 2.266 . S
In130 O139 2.326 1_455 S
In130 O141 2.294 . S
In130 O142 2.326 . S
O131 In130 2.294 . S
O131 C140 1.240 . S
O132 In130 2.326 . S
O132 C140 1.252 . S
C133 O136 1.252 . S
C133 O137 1.260 . S
C134 O141 1.240 . S
C134 O142 1.252 . S
C135 O138 1.252 1_655 S
C135 O139 1.260 . S
O136 In130 2.266 . S
O136 C133 1.252 . S
O137 In130 2.326 . S
O137 C133 1.260 . S
O138 In130 2.266 . S
O138 C135 1.252 1_455 S
O139 In130 2.326 1_655 S
O139 C135 1.260 . S
C140 O131 1.240 . S
C140 O132 1.252 . S
O141 In130 2.294 . S
O141 C134 1.240 . S
O142 In130 2.326 . S
O142 C134 1.252 . S
In143 O144 2.294 . S
In143 O145 2.326 . S
In143 O149 2.266 . S
In143 O150 2.326 . S
In143 O151 2.266 . S
In143 O152 2.326 . S
In143 O154 2.294 . S
In143 O155 2.326 . S
O144 In143 2.294 . S
O144 C153 1.240 . S
O145 In143 2.326 . S
O145 C153 1.252 . S
C146 O149 1.252 . S
C146 O150 1.260 . S
C147 O154 1.240 . S
C147 O155 1.252 . S
C148 O151 1.252 . S
C148 O152 1.260 . S
O149 In143 2.266 . S
O149 C146 1.252 . S
O150 In143 2.326 . S
O150 C146 1.260 . S
O151 In143 2.266 . S
O151 C148 1.252 . S
O152 In143 2.326 . S
O152 C148 1.260 . S
C153 O144 1.240 . S
C153 O145 1.252 . S
O154 In143 2.294 . S
O154 C147 1.240 . S
O155 In143 2.326 . S
O155 C147 1.252 . S
In156 O157 2.294 . S
In156 O158 2.326 . S
In156 O162 2.266 . S
In156 O163 2.326 . S
In156 O164 2.266 . S
In156 O165 2.326 . S
In156 O167 2.294 . S
In156 O168 2.326 . S
O157 In156 2.294 . S
O157 C166 1.240 . S
O158 In156 2.326 . S
O158 C166 1.252 . S
C159 O162 1.252 . S
C159 O163 1.260 . S
C160 O167 1.240 . S
C160 O168 1.252 . S
C161 O164 1.252 . S
C161 O165 1.260 . S
O162 In156 2.266 . S
O162 C159 1.252 . S
O163 In156 2.326 . S
O163 C159 1.260 . S
O164 In156 2.266 . S
O164 C161 1.252 . S
O165 In156 2.326 . S
O165 C161 1.260 . S
C166 O157 1.240 . S
C166 O158 1.252 . S
O167 In156 2.294 . S
O167 C160 1.240 . S
O168 In156 2.326 . S
O168 C160 1.252 . S
In169 O170 2.294 . S
In169 O171 2.326 . S
In169 O175 2.266 . S
In169 O176 2.326 . S
In169 O177 2.266 . S
In169 O178 2.326 . S
In169 O180 2.294 . S
In169 O181 2.326 . S
O170 In169 2.294 . S
O170 C179 1.240 . S
O171 In169 2.326 . S
O171 C179 1.252 . S
C172 O175 1.252 . S
C172 O176 1.260 . S
C173 O180 1.240 . S
C173 O181 1.252 . S
C174 O177 1.252 . S
C174 O178 1.260 . S
O175 In169 2.266 . S
O175 C172 1.252 . S
O176 In169 2.326 . S
O176 C172 1.260 . S
O177 In169 2.266 . S
O177 C174 1.252 . S
O178 In169 2.326 . S
O178 C174 1.260 . S
C179 O170 1.240 . S
C179 O171 1.252 . S
O180 In169 2.294 . S
O180 C173 1.240 . S
O181 In169 2.326 . S
O181 C173 1.252 . S
In182 O183 2.294 . S
In182 O184 2.326 . S
In182 O188 2.266 . S
In182 O189 2.326 . S
In182 O190 2.266 . S
In182 O191 2.326 . S
In182 O193 2.294 . S
In182 O194 2.326 . S
O183 In182 2.294 . S
O183 C192 1.240 . S
O184 In182 2.326 . S
O184 C192 1.252 . S
C185 O188 1.252 . S
C185 O189 1.260 . S
C186 O193 1.240 . S
C186 O194 1.252 . S
C187 O190 1.252 . S
C187 O191 1.260 . S
O188 In182 2.266 . S
O188 C185 1.252 . S
O189 In182 2.326 . S
O189 C185 1.260 . S
O190 In182 2.266 . S
O190 C187 1.252 . S
O191 In182 2.326 . S
O191 C187 1.260 . S
C192 O183 1.240 . S
C192 O184 1.252 . S
O193 In182 2.294 . S
O193 C186 1.240 . S
O194 In182 2.326 . S
O194 C186 1.252 . S
In195 O196 2.294 . S
In195 O197 2.326 . S
In195 O201 2.266 . S
In195 O202 2.326 . S
In195 O203 2.266 . S
In195 O204 2.326 . S
In195 O206 2.294 . S
In195 O207 2.326 . S
O196 In195 2.294 . S
O196 C205 1.240 . S
O197 In195 2.326 . S
O197 C205 1.252 . S
C198 O201 1.252 . S
C198 O202 1.260 . S
C199 O206 1.240 . S
C199 O207 1.252 . S
C200 O203 1.252 . S
C200 O204 1.260 . S
O201 In195 2.266 . S
O201 C198 1.252 . S
O202 In195 2.326 . S
O202 C198 1.260 . S
O203 In195 2.266 . S
O203 C200 1.252 . S
O204 In195 2.326 . S
O204 C200 1.260 . S
C205 O196 1.240 . S
C205 O197 1.252 . S
O206 In195 2.294 . S
O206 C199 1.240 . S
O207 In195 2.326 . S
O207 C199 1.252 . S
In208 O209 2.294 . S
In208 O210 2.326 . S
In208 O214 2.266 . S
In208 O215 2.326 . S
In208 O216 2.266 . S
In208 O217 2.326 . S
In208 O219 2.294 . S
In208 O220 2.326 . S
O209 In208 2.294 . S
O209 C218 1.240 . S
O210 In208 2.326 . S
O210 C218 1.252 . S
C211 O214 1.252 . S
C211 O215 1.260 . S
C212 O219 1.240 . S
C212 O220 1.252 . S
C213 O216 1.252 . S
C213 O217 1.260 . S
O214 In208 2.266 . S
O214 C211 1.252 . S
O215 In208 2.326 . S
O215 C211 1.260 . S
O216 In208 2.266 . S
O216 C213 1.252 . S
O217 In208 2.326 . S
O217 C213 1.260 . S
C218 O209 1.240 . S
C218 O210 1.252 . S
O219 In208 2.294 . S
O219 C212 1.240 . S
O220 In208 2.326 . S
O220 C212 1.252 . S
In221 O222 2.294 . S
In221 O223 2.326 . S
In221 O227 2.266 . S
In221 O228 2.326 . S
In221 O229 2.266 . S
In221 O230 2.326 . S
In221 O232 2.294 . S
In221 O233 2.326 . S
O222 In221 2.294 . S
O222 C231 1.240 . S
O223 In221 2.326 . S
O223 C231 1.252 . S
C224 O227 1.252 . S
C224 O228 1.260 . S
C225 O232 1.240 . S
C225 O233 1.252 . S
C226 O229 1.252 . S
C226 O230 1.260 . S
O227 In221 2.266 . S
O227 C224 1.252 . S
O228 In221 2.326 . S
O228 C224 1.260 . S
O229 In221 2.266 . S
O229 C226 1.252 . S
O230 In221 2.326 . S
O230 C226 1.260 . S
C231 O222 1.240 . S
C231 O223 1.252 . S
O232 In221 2.294 . S
O232 C225 1.240 . S
O233 In221 2.326 . S
O233 C225 1.252 . S
In234 O235 2.294 . S
In234 O236 2.326 . S
In234 O240 2.266 . S
In234 O241 2.326 . S
In234 O242 2.266 . S
In234 O243 2.326 . S
In234 O245 2.294 . S
In234 O246 2.326 . S
O235 In234 2.294 . S
O235 C244 1.240 . S
O236 In234 2.326 . S
O236 C244 1.252 . S
C237 O240 1.252 . S
C237 O241 1.260 . S
C238 O245 1.240 . S
C238 O246 1.252 . S
C239 O242 1.252 . S
C239 O243 1.260 . S
O240 In234 2.266 . S
O240 C237 1.252 . S
O241 In234 2.326 . S
O241 C237 1.260 . S
O242 In234 2.266 . S
O242 C239 1.252 . S
O243 In234 2.326 . S
O243 C239 1.260 . S
C244 O235 1.240 . S
C244 O236 1.252 . S
O245 In234 2.294 . S
O245 C238 1.240 . S
O246 In234 2.326 . S
O246 C238 1.252 . S
In247 O248 2.294 . S
In247 O249 2.326 . S
In247 O253 2.266 . S
In247 O254 2.326 . S
In247 O255 2.266 . S
In247 O256 2.326 . S
In247 O258 2.294 . S
In247 O259 2.326 . S
O248 In247 2.294 . S
O248 C257 1.240 . S
O249 In247 2.326 . S
O249 C257 1.252 . S
C250 O253 1.252 . S
C250 O254 1.260 . S
C251 O258 1.240 . S
C251 O259 1.252 . S
C252 O255 1.252 . S
C252 O256 1.260 . S
O253 In247 2.266 . S
O253 C250 1.252 . S
O254 In247 2.326 . S
O254 C250 1.260 . S
O255 In247 2.266 . S
O255 C252 1.252 . S
O256 In247 2.326 . S
O256 C252 1.260 . S
C257 O248 1.240 . S
C257 O249 1.252 . S
O258 In247 2.294 . S
O258 C251 1.240 . S
O259 In247 2.326 . S
O259 C251 1.252 . S
In260 O261 2.294 . S
In260 O262 2.326 . S
In260 O266 2.266 . S
In260 O267 2.326 . S
In260 O268 2.266 . S
In260 O269 2.326 . S
In260 O271 2.294 . S
In260 O272 2.326 . S
O261 In260 2.294 . S
O261 C270 1.240 . S
O262 In260 2.326 . S
O262 C270 1.252 . S
C263 O266 1.252 . S
C263 O267 1.260 . S
C264 O271 1.240 . S
C264 O272 1.252 . S
C265 O268 1.252 . S
C265 O269 1.260 . S
O266 In260 2.266 . S
O266 C263 1.252 . S
O267 In260 2.326 . S
O267 C263 1.260 . S
O268 In260 2.266 . S
O268 C265 1.252 . S
O269 In260 2.326 . S
O269 C265 1.260 . S
C270 O261 1.240 . S
C270 O262 1.252 . S
O271 In260 2.294 . S
O271 C264 1.240 . S
O272 In260 2.326 . S
O272 C264 1.252 . S
In273 O274 2.294 . S
In273 O275 2.326 . S
In273 O279 2.266 . S
In273 O280 2.326 . S
In273 O281 2.266 . S
In273 O282 2.326 . S
In273 O284 2.294 . S
In273 O285 2.326 . S
O274 In273 2.294 . S
O274 C283 1.240 . S
O275 In273 2.326 . S
O275 C283 1.252 . S
C276 O279 1.252 . S
C276 O280 1.260 . S
C277 O284 1.240 . S
C277 O285 1.252 . S
C278 O281 1.252 . S
C278 O282 1.260 . S
O279 In273 2.266 . S
O279 C276 1.252 . S
O280 In273 2.326 . S
O280 C276 1.260 . S
O281 In273 2.266 . S
O281 C278 1.252 . S
O282 In273 2.326 . S
O282 C278 1.260 . S
C283 O274 1.240 . S
C283 O275 1.252 . S
O284 In273 2.294 . S
O284 C277 1.240 . S
O285 In273 2.326 . S
O285 C277 1.252 . S
In286 O287 2.294 . S
In286 O288 2.326 . S
In286 O292 2.266 . S
In286 O293 2.326 . S
In286 O294 2.266 . S
In286 O295 2.326 . S
In286 O297 2.294 . S
In286 O298 2.326 . S
O287 In286 2.294 . S
O287 C296 1.240 . S
O288 In286 2.326 . S
O288 C296 1.252 . S
C289 O292 1.252 . S
C289 O293 1.260 . S
C290 O297 1.240 . S
C290 O298 1.252 . S
C291 O294 1.252 . S
C291 O295 1.260 . S
O292 In286 2.266 . S
O292 C289 1.252 . S
O293 In286 2.326 . S
O293 C289 1.260 . S
O294 In286 2.266 . S
O294 C291 1.252 . S
O295 In286 2.326 . S
O295 C291 1.260 . S
C296 O287 1.240 . S
C296 O288 1.252 . S
O297 In286 2.294 . S
O297 C290 1.240 . S
O298 In286 2.326 . S
O298 C290 1.252 . S
In299 O300 2.294 . S
In299 O301 2.326 . S
In299 O305 2.266 . S
In299 O306 2.326 . S
In299 O307 2.266 . S
In299 O308 2.326 . S
In299 O310 2.294 . S
In299 O311 2.326 . S
O300 In299 2.294 . S
O300 C309 1.240 . S
O301 In299 2.326 . S
O301 C309 1.252 . S
C302 O305 1.252 . S
C302 O306 1.260 . S
C303 O310 1.240 . S
C303 O311 1.252 . S
C304 O307 1.252 . S
C304 O308 1.260 . S
O305 In299 2.266 . S
O305 C302 1.252 . S
O306 In299 2.326 . S
O306 C302 1.260 . S
O307 In299 2.266 . S
O307 C304 1.252 . S
O308 In299 2.326 . S
O308 C304 1.260 . S
C309 O300 1.240 . S
C309 O301 1.252 . S
O310 In299 2.294 . S
O310 C303 1.240 . S
O311 In299 2.326 . S
O311 C303 1.252 . S
In312 O313 2.294 . S
In312 O314 2.326 . S
In312 O318 2.266 . S
In312 O319 2.326 . S
In312 O320 2.266 . S
In312 O321 2.326 . S
In312 O323 2.294 . S
In312 O324 2.326 . S
O313 In312 2.294 . S
O313 C322 1.240 . S
O314 In312 2.326 . S
O314 C322 1.252 . S
C315 O318 1.252 . S
C315 O319 1.260 . S
C316 O323 1.240 . S
C316 O324 1.252 . S
C317 O320 1.252 . S
C317 O321 1.260 . S
O318 In312 2.266 . S
O318 C315 1.252 . S
O319 In312 2.326 . S
O319 C315 1.260 . S
O320 In312 2.266 . S
O320 C317 1.252 . S
O321 In312 2.326 . S
O321 C317 1.260 . S
C322 O313 1.240 . S
C322 O314 1.252 . S
O323 In312 2.294 . S
O323 C316 1.240 . S
O324 In312 2.326 . S
O324 C316 1.252 . S
In325 O326 2.294 . S
In325 O327 2.326 . S
In325 O331 2.266 . S
In325 O332 2.326 . S
In325 O333 2.266 . S
In325 O334 2.326 . S
In325 O336 2.294 . S
In325 O337 2.326 . S
O326 In325 2.294 . S
O326 C335 1.240 . S
O327 In325 2.326 . S
O327 C335 1.252 . S
C328 O331 1.252 . S
C328 O332 1.260 . S
C329 O336 1.240 . S
C329 O337 1.252 . S
C330 O333 1.252 . S
C330 O334 1.260 . S
O331 In325 2.266 . S
O331 C328 1.252 . S
O332 In325 2.326 . S
O332 C328 1.260 . S
O333 In325 2.266 . S
O333 C330 1.252 . S
O334 In325 2.326 . S
O334 C330 1.260 . S
C335 O326 1.240 . S
C335 O327 1.252 . S
O336 In325 2.294 . S
O336 C329 1.240 . S
O337 In325 2.326 . S
O337 C329 1.252 . S
In338 O339 2.294 . S
In338 O340 2.326 . S
In338 O344 2.266 . S
In338 O345 2.326 . S
In338 O346 2.266 . S
In338 O347 2.326 . S
In338 O349 2.294 . S
In338 O350 2.326 . S
O339 In338 2.294 . S
O339 C348 1.240 . S
O340 In338 2.326 . S
O340 C348 1.252 . S
C341 O344 1.252 . S
C341 O345 1.260 . S
C342 O349 1.240 . S
C342 O350 1.252 . S
C343 O346 1.252 . S
C343 O347 1.260 . S
O344 In338 2.266 . S
O344 C341 1.252 . S
O345 In338 2.326 . S
O345 C341 1.260 . S
O346 In338 2.266 . S
O346 C343 1.252 . S
O347 In338 2.326 . S
O347 C343 1.260 . S
C348 O339 1.240 . S
C348 O340 1.252 . S
O349 In338 2.294 . S
O349 C342 1.240 . S
O350 In338 2.326 . S
O350 C342 1.252 . S
In351 O352 2.294 . S
In351 O353 2.326 . S
In351 O357 2.266 . S
In351 O358 2.326 . S
In351 O359 2.266 . S
In351 O360 2.326 . S
In351 O362 2.294 . S
In351 O363 2.326 . S
O352 In351 2.294 . S
O352 C361 1.240 . S
O353 In351 2.326 . S
O353 C361 1.252 . S
C354 O357 1.252 . S
C354 O358 1.260 . S
C355 O362 1.240 . S
C355 O363 1.252 . S
C356 O359 1.252 . S
C356 O360 1.260 . S
O357 In351 2.266 . S
O357 C354 1.252 . S
O358 In351 2.326 . S
O358 C354 1.260 . S
O359 In351 2.266 . S
O359 C356 1.252 . S
O360 In351 2.326 . S
O360 C356 1.260 . S
C361 O352 1.240 . S
C361 O353 1.252 . S
O362 In351 2.294 . S
O362 C355 1.240 . S
O363 In351 2.326 . S
O363 C355 1.252 . S
In364 O365 2.294 . S
In364 O366 2.326 . S
In364 O370 2.266 . S
In364 O371 2.326 . S
In364 O372 2.266 . S
In364 O373 2.326 . S
In364 O375 2.294 . S
In364 O376 2.326 . S
O365 In364 2.294 . S
O365 C374 1.240 . S
O366 In364 2.326 . S
O366 C374 1.252 . S
C367 O370 1.252 . S
C367 O371 1.260 . S
C368 O375 1.240 . S
C368 O376 1.252 . S
C369 O372 1.252 . S
C369 O373 1.260 . S
O370 In364 2.266 . S
O370 C367 1.252 . S
O371 In364 2.326 . S
O371 C367 1.260 . S
O372 In364 2.266 . S
O372 C369 1.252 . S
O373 In364 2.326 . S
O373 C369 1.260 . S
C374 O365 1.240 . S
C374 O366 1.252 . S
O375 In364 2.294 . S
O375 C368 1.240 . S
O376 In364 2.326 . S
O376 C368 1.252 . S
In377 O378 2.294 . S
In377 O379 2.326 . S
In377 O383 2.266 . S
In377 O384 2.326 . S
In377 O385 2.266 . S
In377 O386 2.326 . S
In377 O388 2.294 . S
In377 O389 2.326 . S
O378 In377 2.294 . S
O378 C387 1.240 . S
O379 In377 2.326 . S
O379 C387 1.252 . S
C380 O383 1.252 . S
C380 O384 1.260 . S
C381 O388 1.240 . S
C381 O389 1.252 . S
C382 O385 1.252 . S
C382 O386 1.260 . S
O383 In377 2.266 . S
O383 C380 1.252 . S
O384 In377 2.326 . S
O384 C380 1.260 . S
O385 In377 2.266 . S
O385 C382 1.252 . S
O386 In377 2.326 . S
O386 C382 1.260 . S
C387 O378 1.240 . S
C387 O379 1.252 . S
O388 In377 2.294 . S
O388 C381 1.240 . S
O389 In377 2.326 . S
O389 C381 1.252 . S
In390 O391 2.294 . S
In390 O392 2.326 . S
In390 O396 2.266 . S
In390 O397 2.326 . S
In390 O398 2.266 . S
In390 O399 2.326 . S
In390 O401 2.294 . S
In390 O402 2.326 . S
O391 In390 2.294 . S
O391 C400 1.240 . S
O392 In390 2.326 . S
O392 C400 1.252 . S
C393 O396 1.252 . S
C393 O397 1.260 . S
C394 O401 1.240 . S
C394 O402 1.252 . S
C395 O398 1.252 . S
C395 O399 1.260 . S
O396 In390 2.266 . S
O396 C393 1.252 . S
O397 In390 2.326 . S
O397 C393 1.260 . S
O398 In390 2.266 . S
O398 C395 1.252 . S
O399 In390 2.326 . S
O399 C395 1.260 . S
C400 O391 1.240 . S
C400 O392 1.252 . S
O401 In390 2.294 . S
O401 C394 1.240 . S
O402 In390 2.326 . S
O402 C394 1.252 . S
In403 O404 2.294 . S
In403 O405 2.326 . S
In403 O409 2.266 . S
In403 O410 2.326 . S
In403 O411 2.266 . S
In403 O412 2.326 . S
In403 O414 2.294 . S
In403 O415 2.326 . S
O404 In403 2.294 . S
O404 C413 1.240 . S
O405 In403 2.326 . S
O405 C413 1.252 . S
C406 O409 1.252 . S
C406 O410 1.260 . S
C407 O414 1.240 . S
C407 O415 1.252 . S
C408 O411 1.252 . S
C408 O412 1.260 . S
O409 In403 2.266 . S
O409 C406 1.252 . S
O410 In403 2.326 . S
O410 C406 1.260 . S
O411 In403 2.266 . S
O411 C408 1.252 . S
O412 In403 2.326 . S
O412 C408 1.260 . S
C413 O404 1.240 . S
C413 O405 1.252 . S
O414 In403 2.294 . S
O414 C407 1.240 . S
O415 In403 2.326 . S
O415 C407 1.252 . S
In416 O417 2.294 . S
In416 O418 2.326 . S
In416 O422 2.266 . S
In416 O423 2.326 . S
In416 O424 2.266 . S
In416 O425 2.326 . S
In416 O427 2.294 . S
In416 O428 2.326 . S
O417 In416 2.294 . S
O417 C426 1.240 . S
O418 In416 2.326 . S
O418 C426 1.252 . S
C419 O422 1.252 . S
C419 O423 1.260 . S
C420 O427 1.240 . S
C420 O428 1.252 . S
C421 O424 1.252 . S
C421 O425 1.260 . S
O422 In416 2.266 . S
O422 C419 1.252 . S
O423 In416 2.326 . S
O423 C419 1.260 . S
O424 In416 2.266 . S
O424 C421 1.252 . S
O425 In416 2.326 . S
O425 C421 1.260 . S
C426 O417 1.240 . S
C426 O418 1.252 . S
O427 In416 2.294 . S
O427 C420 1.240 . S
O428 In416 2.326 . S
O428 C420 1.252 . S
In429 O430 2.294 . S
In429 O431 2.326 . S
In429 O435 2.266 . S
In429 O436 2.326 . S
In429 O437 2.266 . S
In429 O438 2.326 . S
In429 O440 2.294 . S
In429 O441 2.326 . S
O430 In429 2.294 . S
O430 C439 1.240 . S
O431 In429 2.326 . S
O431 C439 1.252 . S
C432 O435 1.252 . S
C432 O436 1.260 . S
C433 O440 1.240 . S
C433 O441 1.252 . S
C434 O437 1.252 . S
C434 O438 1.260 . S
O435 In429 2.266 . S
O435 C432 1.252 . S
O436 In429 2.326 . S
O436 C432 1.260 . S
O437 In429 2.266 . S
O437 C434 1.252 . S
O438 In429 2.326 . S
O438 C434 1.260 . S
C439 O430 1.240 . S
C439 O431 1.252 . S
O440 In429 2.294 . S
O440 C433 1.240 . S
O441 In429 2.326 . S
O441 C433 1.252 . S
In442 O443 2.294 . S
In442 O444 2.326 . S
In442 O448 2.266 . S
In442 O449 2.326 . S
In442 O450 2.266 . S
In442 O451 2.326 . S
In442 O453 2.294 . S
In442 O454 2.326 . S
O443 In442 2.294 . S
O443 C452 1.240 . S
O444 In442 2.326 . S
O444 C452 1.252 . S
C445 O448 1.252 . S
C445 O449 1.260 . S
C446 O453 1.240 . S
C446 O454 1.252 . S
C447 O450 1.252 . S
C447 O451 1.260 . S
O448 In442 2.266 . S
O448 C445 1.252 . S
O449 In442 2.326 . S
O449 C445 1.260 . S
O450 In442 2.266 . S
O450 C447 1.252 . S
O451 In442 2.326 . S
O451 C447 1.260 . S
C452 O443 1.240 . S
C452 O444 1.252 . S
O453 In442 2.294 . S
O453 C446 1.240 . S
O454 In442 2.326 . S
O454 C446 1.252 . S
In455 O456 2.294 . S
In455 O457 2.326 . S
In455 O461 2.266 . S
In455 O462 2.326 . S
In455 O463 2.266 . S
In455 O464 2.326 . S
In455 O466 2.294 . S
In455 O467 2.326 . S
O456 In455 2.294 . S
O456 C465 1.240 . S
O457 In455 2.326 . S
O457 C465 1.252 . S
C458 O461 1.252 . S
C458 O462 1.260 . S
C459 O466 1.240 . S
C459 O467 1.252 . S
C460 O463 1.252 . S
C460 O464 1.260 . S
O461 In455 2.266 . S
O461 C458 1.252 . S
O462 In455 2.326 . S
O462 C458 1.260 . S
O463 In455 2.266 . S
O463 C460 1.252 . S
O464 In455 2.326 . S
O464 C460 1.260 . S
C465 O456 1.240 . S
C465 O457 1.252 . S
O466 In455 2.294 . S
O466 C459 1.240 . S
O467 In455 2.326 . S
O467 C459 1.252 . S
C468 C469 1.349 . S
C468 C470 1.327 . S
C468 H493 0.950 . S
C469 C468 1.349 . S
C469 C485 1.349 . S
C470 C468 1.327 . S
C470 C489 1.429 . S
C470 H494 0.950 . S
C471 C488 1.574 . S
C471 C490 1.368 . S
C471 H495 0.949 . S
H472 C476 0.949 . S
C473 C474 1.349 . S
C473 C475 1.327 . S
C473 H496 0.950 . S
C474 C473 1.349 . S
C474 C486 1.349 . S
C475 C473 1.327 . S
C475 C491 1.429 . S
C475 H497 0.950 . S
C476 H472 0.949 . S
C476 C484 1.574 . S
C476 C492 1.368 . S
H477 C485 0.950 . S
H478 C483 0.950 . S
H479 C484 0.949 . S
H480 C486 0.950 . S
H481 C487 0.950 . S
H482 C488 0.949 . S
C483 H478 0.950 . S
C483 C485 1.327 . S
C483 C489 1.429 . S
C484 C476 1.574 . S
C484 H479 0.949 . S
C484 C490 1.368 . S
C485 C469 1.349 . S
C485 H477 0.950 . S
C485 C483 1.327 . S
C486 C474 1.349 . S
C486 H480 0.950 . S
C486 C487 1.327 . S
C487 H481 0.950 . S
C487 C486 1.327 . S
C487 C491 1.429 . S
C488 C471 1.574 . S
C488 H482 0.949 . S
C488 C492 1.368 . S
C489 C470 1.429 . S
C489 C483 1.429 . S
C489 C490 1.523 . S
C490 C471 1.368 . S
C490 C484 1.368 . S
C490 C489 1.523 . S
C491 C475 1.429 . S
C491 C487 1.429 . S
C491 C492 1.523 . S
C492 C476 1.368 . S
C492 C488 1.368 . S
C492 C491 1.523 . S
H493 C468 0.950 . S
H494 C470 0.950 . S
H495 C471 0.949 . S
H496 C473 0.950 . S
H497 C475 0.950 . S
C498 C499 1.349 . S
C498 C500 1.327 . S
C498 H523 0.950 . S
C499 C498 1.349 . S
C499 C515 1.349 . S
C500 C498 1.327 . S
C500 C519 1.429 . S
C500 H524 0.950 . S
C501 C518 1.574 . S
C501 C520 1.368 . S
C501 H525 0.949 . S
H502 C506 0.949 . S
C503 C504 1.349 . S
C503 C505 1.327 . S
C503 H526 0.950 . S
C504 C503 1.349 . S
C504 C516 1.349 . S
C505 C503 1.327 . S
C505 C521 1.429 . S
C505 H527 0.950 . S
C506 H502 0.949 . S
C506 C514 1.574 . S
C506 C522 1.368 . S
H507 C515 0.950 . S
H508 C513 0.950 . S
H509 C514 0.949 . S
H510 C516 0.950 . S
H511 C517 0.950 . S
H512 C518 0.949 . S
C513 H508 0.950 . S
C513 C515 1.327 . S
C513 C519 1.429 . S
C514 C506 1.574 . S
C514 H509 0.949 . S
C514 C520 1.368 . S
C515 C499 1.349 . S
C515 H507 0.950 . S
C515 C513 1.327 . S
C516 C504 1.349 . S
C516 H510 0.950 . S
C516 C517 1.327 . S
C517 H511 0.950 . S
C517 C516 1.327 . S
C517 C521 1.429 . S
C518 C501 1.574 . S
C518 H512 0.949 . S
C518 C522 1.368 . S
C519 C500 1.429 . S
C519 C513 1.429 . S
C519 C520 1.523 . S
C520 C501 1.368 . S
C520 C514 1.368 . S
C520 C519 1.523 . S
C521 C505 1.429 . S
C521 C517 1.429 . S
C521 C522 1.523 . S
C522 C506 1.368 . S
C522 C518 1.368 . S
C522 C521 1.523 . S
H523 C498 0.950 . S
H524 C500 0.950 . S
H525 C501 0.949 . S
H526 C503 0.950 . S
H527 C505 0.950 . S
C528 C529 1.349 . S
C528 C530 1.327 . S
C528 H553 0.950 . S
C529 C528 1.349 . S
C529 C545 1.349 . S
C530 C528 1.327 . S
C530 C549 1.429 . S
C530 H554 0.950 . S
C531 C548 1.574 . S
C531 C550 1.368 . S
C531 H555 0.949 . S
H532 C536 0.949 . S
C533 C534 1.349 . S
C533 C535 1.327 . S
C533 H556 0.950 . S
C534 C533 1.349 . S
C534 C546 1.349 . S
C535 C533 1.327 . S
C535 C551 1.429 . S
C535 H557 0.950 . S
C536 H532 0.949 . S
C536 C544 1.574 . S
C536 C552 1.368 . S
H537 C545 0.950 . S
H538 C543 0.950 . S
H539 C544 0.949 . S
H540 C546 0.950 . S
H541 C547 0.950 . S
H542 C548 0.949 . S
C543 H538 0.950 . S
C543 C545 1.327 . S
C543 C549 1.429 . S
C544 C536 1.574 . S
C544 H539 0.949 . S
C544 C550 1.368 . S
C545 C529 1.349 . S
C545 H537 0.950 . S
C545 C543 1.327 . S
C546 C534 1.349 . S
C546 H540 0.950 . S
C546 C547 1.327 . S
C547 H541 0.950 . S
C547 C546 1.327 . S
C547 C551 1.429 . S
C548 C531 1.574 . S
C548 H542 0.949 . S
C548 C552 1.368 . S
C549 C530 1.429 . S
C549 C543 1.429 . S
C549 C550 1.523 . S
C550 C531 1.368 . S
C550 C544 1.368 . S
C550 C549 1.523 . S
C551 C535 1.429 . S
C551 C547 1.429 . S
C551 C552 1.523 . S
C552 C536 1.368 . S
C552 C548 1.368 . S
C552 C551 1.523 . S
H553 C528 0.950 . S
H554 C530 0.950 . S
H555 C531 0.949 . S
H556 C533 0.950 . S
H557 C535 0.950 . S
C558 C559 1.349 . S
C558 C560 1.327 . S
C558 H583 0.950 . S
C559 C558 1.349 . S
C559 C575 1.349 . S
C560 C558 1.327 . S
C560 C579 1.429 . S
C560 H584 0.950 . S
C561 C578 1.574 . S
C561 C580 1.368 . S
C561 H585 0.949 . S
H562 C566 0.949 . S
C563 C564 1.349 . S
C563 C565 1.327 . S
C563 H586 0.950 . S
C564 C563 1.349 . S
C564 C576 1.349 . S
C565 C563 1.327 . S
C565 C581 1.429 . S
C565 H587 0.950 . S
C566 H562 0.949 . S
C566 C574 1.574 . S
C566 C582 1.368 . S
H567 C575 0.950 . S
H568 C573 0.950 . S
H569 C574 0.949 . S
H570 C576 0.950 . S
H571 C577 0.950 . S
H572 C578 0.949 . S
C573 H568 0.950 . S
C573 C575 1.327 . S
C573 C579 1.429 . S
C574 C566 1.574 . S
C574 H569 0.949 . S
C574 C580 1.368 . S
C575 C559 1.349 . S
C575 H567 0.950 . S
C575 C573 1.327 . S
C576 C564 1.349 . S
C576 H570 0.950 . S
C576 C577 1.327 . S
C577 H571 0.950 . S
C577 C576 1.327 . S
C577 C581 1.429 . S
C578 C561 1.574 . S
C578 H572 0.949 . S
C578 C582 1.368 . S
C579 C560 1.429 . S
C579 C573 1.429 . S
C579 C580 1.523 . S
C580 C561 1.368 . S
C580 C574 1.368 . S
C580 C579 1.523 . S
C581 C565 1.429 . S
C581 C577 1.429 . S
C581 C582 1.523 . S
C582 C566 1.368 . S
C582 C578 1.368 . S
C582 C581 1.523 . S
H583 C558 0.950 . S
H584 C560 0.950 . S
H585 C561 0.949 . S
H586 C563 0.950 . S
H587 C565 0.950 . S
C588 C589 1.349 . S
C588 C590 1.327 . S
C588 H613 0.950 . S
C589 C588 1.349 . S
C589 C605 1.349 . S
C590 C588 1.327 . S
C590 C609 1.429 . S
C590 H614 0.950 . S
C591 C608 1.574 . S
C591 C610 1.368 . S
C591 H615 0.949 . S
H592 C596 0.949 . S
C593 C594 1.349 . S
C593 C595 1.327 . S
C593 H616 0.950 . S
C594 C593 1.349 . S
C594 C606 1.349 . S
C595 C593 1.327 . S
C595 C611 1.429 . S
C595 H617 0.950 . S
C596 H592 0.949 . S
C596 C604 1.574 . S
C596 C612 1.368 . S
H597 C605 0.950 . S
H598 C603 0.950 . S
H599 C604 0.949 . S
H600 C606 0.950 . S
H601 C607 0.950 . S
H602 C608 0.949 . S
C603 H598 0.950 . S
C603 C605 1.327 . S
C603 C609 1.429 . S
C604 C596 1.574 . S
C604 H599 0.949 . S
C604 C610 1.368 . S
C605 C589 1.349 . S
C605 H597 0.950 . S
C605 C603 1.327 . S
C606 C594 1.349 . S
C606 H600 0.950 . S
C606 C607 1.327 . S
C607 H601 0.950 . S
C607 C606 1.327 . S
C607 C611 1.429 . S
C608 C591 1.574 . S
C608 H602 0.949 . S
C608 C612 1.368 . S
C609 C590 1.429 . S
C609 C603 1.429 . S
C609 C610 1.523 . S
C610 C591 1.368 . S
C610 C604 1.368 . S
C610 C609 1.523 . S
C611 C595 1.429 . S
C611 C607 1.429 . S
C611 C612 1.523 . S
C612 C596 1.368 . S
C612 C608 1.368 . S
C612 C611 1.523 . S
H613 C588 0.950 . S
H614 C590 0.950 . S
H615 C591 0.949 . S
H616 C593 0.950 . S
H617 C595 0.950 . S
C618 C619 1.349 . S
C618 C620 1.327 . S
C618 H643 0.950 . S
C619 C618 1.349 . S
C619 C635 1.349 . S
C620 C618 1.327 . S
C620 C639 1.429 . S
C620 H644 0.950 . S
C621 C638 1.574 . S
C621 C640 1.368 . S
C621 H645 0.949 . S
H622 C626 0.949 . S
C623 C624 1.349 . S
C623 C625 1.327 . S
C623 H646 0.950 . S
C624 C623 1.349 . S
C624 C636 1.349 . S
C625 C623 1.327 . S
C625 C641 1.429 . S
C625 H647 0.950 . S
C626 H622 0.949 . S
C626 C634 1.574 . S
C626 C642 1.368 . S
H627 C635 0.950 . S
H628 C633 0.950 . S
H629 C634 0.949 . S
H630 C636 0.950 . S
H631 C637 0.950 . S
H632 C638 0.949 . S
C633 H628 0.950 . S
C633 C635 1.327 . S
C633 C639 1.429 . S
C634 C626 1.574 . S
C634 H629 0.949 . S
C634 C640 1.368 . S
C635 C619 1.349 . S
C635 H627 0.950 . S
C635 C633 1.327 . S
C636 C624 1.349 . S
C636 H630 0.950 . S
C636 C637 1.327 . S
C637 H631 0.950 . S
C637 C636 1.327 . S
C637 C641 1.429 . S
C638 C621 1.574 . S
C638 H632 0.949 . S
C638 C642 1.368 . S
C639 C620 1.429 . S
C639 C633 1.429 . S
C639 C640 1.523 . S
C640 C621 1.368 . S
C640 C634 1.368 . S
C640 C639 1.523 . S
C641 C625 1.429 . S
C641 C637 1.429 . S
C641 C642 1.523 . S
C642 C626 1.368 . S
C642 C638 1.368 . S
C642 C641 1.523 . S
H643 C618 0.950 . S
H644 C620 0.950 . S
H645 C621 0.949 . S
H646 C623 0.950 . S
H647 C625 0.950 . S
C648 C649 1.349 . S
C648 C650 1.327 . S
C648 H673 0.950 . S
C649 C648 1.349 . S
C649 C665 1.349 . S
C650 C648 1.327 . S
C650 C669 1.429 . S
C650 H674 0.950 . S
C651 C668 1.574 . S
C651 C670 1.368 . S
C651 H675 0.949 . S
H652 C656 0.949 . S
C653 C654 1.349 . S
C653 C655 1.327 . S
C653 H676 0.950 . S
C654 C653 1.349 . S
C654 C666 1.349 . S
C655 C653 1.327 . S
C655 C671 1.429 . S
C655 H677 0.950 . S
C656 H652 0.949 . S
C656 C664 1.574 . S
C656 C672 1.368 . S
H657 C665 0.950 . S
H658 C663 0.950 . S
H659 C664 0.949 . S
H660 C666 0.950 . S
H661 C667 0.950 . S
H662 C668 0.949 . S
C663 H658 0.950 . S
C663 C665 1.327 . S
C663 C669 1.429 . S
C664 C656 1.574 . S
C664 H659 0.949 . S
C664 C670 1.368 . S
C665 C649 1.349 . S
C665 H657 0.950 . S
C665 C663 1.327 . S
C666 C654 1.349 . S
C666 H660 0.950 . S
C666 C667 1.327 . S
C667 H661 0.950 . S
C667 C666 1.327 . S
C667 C671 1.429 . S
C668 C651 1.574 . S
C668 H662 0.949 . S
C668 C672 1.368 . S
C669 C650 1.429 . S
C669 C663 1.429 . S
C669 C670 1.523 . S
C670 C651 1.368 . S
C670 C664 1.368 . S
C670 C669 1.523 . S
C671 C655 1.429 . S
C671 C667 1.429 . S
C671 C672 1.523 . S
C672 C656 1.368 . S
C672 C668 1.368 . S
C672 C671 1.523 . S
H673 C648 0.950 . S
H674 C650 0.950 . S
H675 C651 0.949 . S
H676 C653 0.950 . S
H677 C655 0.950 . S
C678 C679 1.349 . S
C678 C680 1.327 . S
C678 H703 0.950 . S
C679 C678 1.349 . S
C679 C695 1.349 . S
C680 C678 1.327 . S
C680 C699 1.429 . S
C680 H704 0.950 . S
C681 C698 1.574 . S
C681 C700 1.368 . S
C681 H705 0.949 . S
H682 C686 0.949 . S
C683 C684 1.349 . S
C683 C685 1.327 . S
C683 H706 0.950 . S
C684 C683 1.349 . S
C684 C696 1.349 . S
C685 C683 1.327 . S
C685 C701 1.429 . S
C685 H707 0.950 . S
C686 H682 0.949 . S
C686 C694 1.574 . S
C686 C702 1.368 . S
H687 C695 0.950 . S
H688 C693 0.950 . S
H689 C694 0.949 . S
H690 C696 0.950 . S
H691 C697 0.950 . S
H692 C698 0.949 . S
C693 H688 0.950 . S
C693 C695 1.327 . S
C693 C699 1.429 . S
C694 C686 1.574 . S
C694 H689 0.949 . S
C694 C700 1.368 . S
C695 C679 1.349 . S
C695 H687 0.950 . S
C695 C693 1.327 . S
C696 C684 1.349 . S
C696 H690 0.950 . S
C696 C697 1.327 . S
C697 H691 0.950 . S
C697 C696 1.327 . S
C697 C701 1.429 . S
C698 C681 1.574 . S
C698 H692 0.949 . S
C698 C702 1.368 . S
C699 C680 1.429 . S
C699 C693 1.429 . S
C699 C700 1.523 . S
C700 C681 1.368 . S
C700 C694 1.368 . S
C700 C699 1.523 . S
C701 C685 1.429 . S
C701 C697 1.429 . S
C701 C702 1.523 . S
C702 C686 1.368 . S
C702 C698 1.368 . S
C702 C701 1.523 . S
H703 C678 0.950 . S
H704 C680 0.950 . S
H705 C681 0.949 . S
H706 C683 0.950 . S
H707 C685 0.950 . S
C708 C709 1.349 . S
C708 C710 1.327 . S
C708 H733 0.950 . S
C709 C708 1.349 . S
C709 C725 1.349 . S
C710 C708 1.327 . S
C710 C729 1.429 . S
C710 H734 0.950 . S
C711 C728 1.574 . S
C711 C730 1.368 . S
C711 H735 0.949 . S
H712 C716 0.949 . S
C713 C714 1.349 . S
C713 C715 1.327 . S
C713 H736 0.950 . S
C714 C713 1.349 . S
C714 C726 1.349 . S
C715 C713 1.327 . S
C715 C731 1.429 . S
C715 H737 0.950 . S
C716 H712 0.949 . S
C716 C724 1.574 . S
C716 C732 1.368 . S
H717 C725 0.950 . S
H718 C723 0.950 . S
H719 C724 0.949 . S
H720 C726 0.950 . S
H721 C727 0.950 . S
H722 C728 0.949 . S
C723 H718 0.950 . S
C723 C725 1.327 . S
C723 C729 1.429 . S
C724 C716 1.574 . S
C724 H719 0.949 . S
C724 C730 1.368 . S
C725 C709 1.349 . S
C725 H717 0.950 . S
C725 C723 1.327 . S
C726 C714 1.349 . S
C726 H720 0.950 . S
C726 C727 1.327 . S
C727 H721 0.950 . S
C727 C726 1.327 . S
C727 C731 1.429 . S
C728 C711 1.574 . S
C728 H722 0.949 . S
C728 C732 1.368 . S
C729 C710 1.429 . S
C729 C723 1.429 . S
C729 C730 1.523 . S
C730 C711 1.368 . S
C730 C724 1.368 . S
C730 C729 1.523 . S
C731 C715 1.429 . S
C731 C727 1.429 . S
C731 C732 1.523 . S
C732 C716 1.368 . S
C732 C728 1.368 . S
C732 C731 1.523 . S
H733 C708 0.950 . S
H734 C710 0.950 . S
H735 C711 0.949 . S
H736 C713 0.950 . S
H737 C715 0.950 . S
C738 C739 1.349 . S
C738 C740 1.327 . S
C738 H763 0.950 . S
C739 C738 1.349 . S
C739 C755 1.349 . S
C740 C738 1.327 . S
C740 C759 1.429 . S
C740 H764 0.950 . S
C741 C758 1.574 . S
C741 C760 1.368 . S
C741 H765 0.949 . S
H742 C746 0.949 . S
C743 C744 1.349 . S
C743 C745 1.327 . S
C743 H766 0.950 . S
C744 C743 1.349 . S
C744 C756 1.349 . S
C745 C743 1.327 . S
C745 C761 1.429 . S
C745 H767 0.950 . S
C746 H742 0.949 . S
C746 C754 1.574 . S
C746 C762 1.368 . S
H747 C755 0.950 . S
H748 C753 0.950 . S
H749 C754 0.949 . S
H750 C756 0.950 . S
H751 C757 0.950 . S
H752 C758 0.949 . S
C753 H748 0.950 . S
C753 C755 1.327 . S
C753 C759 1.429 . S
C754 C746 1.574 . S
C754 H749 0.949 . S
C754 C760 1.368 . S
C755 C739 1.349 . S
C755 H747 0.950 . S
C755 C753 1.327 . S
C756 C744 1.349 . S
C756 H750 0.950 . S
C756 C757 1.327 . S
C757 H751 0.950 . S
C757 C756 1.327 . S
C757 C761 1.429 . S
C758 C741 1.574 . S
C758 H752 0.949 . S
C758 C762 1.368 . S
C759 C740 1.429 . S
C759 C753 1.429 . S
C759 C760 1.523 . S
C760 C741 1.368 . S
C760 C754 1.368 . S
C760 C759 1.523 . S
C761 C745 1.429 . S
C761 C757 1.429 . S
C761 C762 1.523 . S
C762 C746 1.368 . S
C762 C758 1.368 . S
C762 C761 1.523 . S
H763 C738 0.950 . S
H764 C740 0.950 . S
H765 C741 0.949 . S
H766 C743 0.950 . S
H767 C745 0.950 . S
C768 C769 1.349 . S
C768 C770 1.327 . S
C768 H793 0.950 . S
C769 C768 1.349 . S
C769 C785 1.349 . S
C770 C768 1.327 . S
C770 C789 1.429 . S
C770 H794 0.950 . S
C771 C788 1.574 . S
C771 C790 1.368 . S
C771 H795 0.949 . S
H772 C776 0.949 . S
C773 C774 1.349 . S
C773 C775 1.327 . S
C773 H796 0.950 . S
C774 C773 1.349 . S
C774 C786 1.349 . S
C775 C773 1.327 . S
C775 C791 1.429 . S
C775 H797 0.950 . S
C776 H772 0.949 . S
C776 C784 1.574 . S
C776 C792 1.368 . S
H777 C785 0.950 . S
H778 C783 0.950 . S
H779 C784 0.949 . S
H780 C786 0.950 . S
H781 C787 0.950 . S
H782 C788 0.949 . S
C783 H778 0.950 . S
C783 C785 1.327 . S
C783 C789 1.429 . S
C784 C776 1.574 . S
C784 H779 0.949 . S
C784 C790 1.368 . S
C785 C769 1.349 . S
C785 H777 0.950 . S
C785 C783 1.327 . S
C786 C774 1.349 . S
C786 H780 0.950 . S
C786 C787 1.327 . S
C787 H781 0.950 . S
C787 C786 1.327 . S
C787 C791 1.429 . S
C788 C771 1.574 . S
C788 H782 0.949 . S
C788 C792 1.368 . S
C789 C770 1.429 . S
C789 C783 1.429 . S
C789 C790 1.523 . S
C790 C771 1.368 . S
C790 C784 1.368 . S
C790 C789 1.523 . S
C791 C775 1.429 . S
C791 C787 1.429 . S
C791 C792 1.523 . S
C792 C776 1.368 . S
C792 C788 1.368 . S
C792 C791 1.523 . S
H793 C768 0.950 . S
H794 C770 0.950 . S
H795 C771 0.949 . S
H796 C773 0.950 . S
H797 C775 0.950 . S
C798 C799 1.349 . S
C798 C800 1.327 . S
C798 H823 0.950 . S
C799 C798 1.349 . S
C799 C815 1.349 . S
C800 C798 1.327 . S
C800 C819 1.429 . S
C800 H824 0.950 . S
C801 C818 1.574 . S
C801 C820 1.368 . S
C801 H825 0.949 . S
H802 C806 0.949 . S
C803 C804 1.349 . S
C803 C805 1.327 . S
C803 H826 0.950 . S
C804 C803 1.349 . S
C804 C816 1.349 . S
C805 C803 1.327 . S
C805 C821 1.429 . S
C805 H827 0.950 . S
C806 H802 0.949 . S
C806 C814 1.574 . S
C806 C822 1.368 . S
H807 C815 0.950 . S
H808 C813 0.950 . S
H809 C814 0.949 . S
H810 C816 0.950 . S
H811 C817 0.950 . S
H812 C818 0.949 . S
C813 H808 0.950 . S
C813 C815 1.327 . S
C813 C819 1.429 . S
C814 C806 1.574 . S
C814 H809 0.949 . S
C814 C820 1.368 . S
C815 C799 1.349 . S
C815 H807 0.950 . S
C815 C813 1.327 . S
C816 C804 1.349 . S
C816 H810 0.950 . S
C816 C817 1.327 . S
C817 H811 0.950 . S
C817 C816 1.327 . S
C817 C821 1.429 . S
C818 C801 1.574 . S
C818 H812 0.949 . S
C818 C822 1.368 . S
C819 C800 1.429 . S
C819 C813 1.429 . S
C819 C820 1.523 . S
C820 C801 1.368 . S
C820 C814 1.368 . S
C820 C819 1.523 . S
C821 C805 1.429 . S
C821 C817 1.429 . S
C821 C822 1.523 . S
C822 C806 1.368 . S
C822 C818 1.368 . S
C822 C821 1.523 . S
H823 C798 0.950 . S
H824 C800 0.950 . S
H825 C801 0.949 . S
H826 C803 0.950 . S
H827 C805 0.950 . S
C828 C829 1.349 . S
C828 C830 1.327 . S
C828 H853 0.950 . S
C829 C828 1.349 . S
C829 C845 1.349 . S
C830 C828 1.327 . S
C830 C849 1.429 . S
C830 H854 0.950 . S
C831 C848 1.574 . S
C831 C850 1.368 . S
C831 H855 0.949 . S
H832 C836 0.949 . S
C833 C834 1.349 . S
C833 C835 1.327 . S
C833 H856 0.950 . S
C834 C833 1.349 . S
C834 C846 1.349 . S
C835 C833 1.327 . S
C835 C851 1.429 . S
C835 H857 0.950 . S
C836 H832 0.949 . S
C836 C844 1.574 . S
C836 C852 1.368 . S
H837 C845 0.950 . S
H838 C843 0.950 . S
H839 C844 0.949 . S
H840 C846 0.950 . S
H841 C847 0.950 . S
H842 C848 0.949 . S
C843 H838 0.950 . S
C843 C845 1.327 . S
C843 C849 1.429 . S
C844 C836 1.574 . S
C844 H839 0.949 . S
C844 C850 1.368 . S
C845 C829 1.349 . S
C845 H837 0.950 . S
C845 C843 1.327 . S
C846 C834 1.349 . S
C846 H840 0.950 . S
C846 C847 1.327 . S
C847 H841 0.950 . S
C847 C846 1.327 . S
C847 C851 1.429 . S
C848 C831 1.574 . S
C848 H842 0.949 . S
C848 C852 1.368 . S
C849 C830 1.429 . S
C849 C843 1.429 . S
C849 C850 1.523 . S
C850 C831 1.368 . S
C850 C844 1.368 . S
C850 C849 1.523 . S
C851 C835 1.429 . S
C851 C847 1.429 . S
C851 C852 1.523 . S
C852 C836 1.368 . S
C852 C848 1.368 . S
C852 C851 1.523 . S
H853 C828 0.950 . S
H854 C830 0.950 . S
H855 C831 0.949 . S
H856 C833 0.950 . S
H857 C835 0.950 . S
C858 C859 1.349 . S
C858 C860 1.327 . S
C858 H883 0.950 . S
C859 C858 1.349 . S
C859 C875 1.349 . S
C860 C858 1.327 . S
C860 C879 1.429 . S
C860 H884 0.950 . S
C861 C878 1.574 . S
C861 C880 1.368 . S
C861 H885 0.949 . S
H862 C866 0.949 . S
C863 C864 1.349 . S
C863 C865 1.327 . S
C863 H886 0.950 . S
C864 C863 1.349 . S
C864 C876 1.349 . S
C865 C863 1.327 . S
C865 C881 1.429 . S
C865 H887 0.950 . S
C866 H862 0.949 . S
C866 C874 1.574 . S
C866 C882 1.368 . S
H867 C875 0.950 . S
H868 C873 0.950 . S
H869 C874 0.949 . S
H870 C876 0.950 . S
H871 C877 0.950 . S
H872 C878 0.949 . S
C873 H868 0.950 . S
C873 C875 1.327 . S
C873 C879 1.429 . S
C874 C866 1.574 . S
C874 H869 0.949 . S
C874 C880 1.368 . S
C875 C859 1.349 . S
C875 H867 0.950 . S
C875 C873 1.327 . S
C876 C864 1.349 . S
C876 H870 0.950 . S
C876 C877 1.327 . S
C877 H871 0.950 . S
C877 C876 1.327 . S
C877 C881 1.429 . S
C878 C861 1.574 . S
C878 H872 0.949 . S
C878 C882 1.368 . S
C879 C860 1.429 . S
C879 C873 1.429 . S
C879 C880 1.523 . S
C880 C861 1.368 . S
C880 C874 1.368 . S
C880 C879 1.523 . S
C881 C865 1.429 . S
C881 C877 1.429 . S
C881 C882 1.523 . S
C882 C866 1.368 . S
C882 C878 1.368 . S
C882 C881 1.523 . S
H883 C858 0.950 . S
H884 C860 0.950 . S
H885 C861 0.949 . S
H886 C863 0.950 . S
H887 C865 0.950 . S
C888 C889 1.349 . S
C888 C890 1.327 . S
C888 H913 0.950 . S
C889 C888 1.349 . S
C889 C905 1.349 . S
C890 C888 1.327 . S
C890 C909 1.429 . S
C890 H914 0.950 . S
C891 C908 1.574 . S
C891 C910 1.368 . S
C891 H915 0.949 . S
H892 C896 0.949 . S
C893 C894 1.349 . S
C893 C895 1.327 . S
C893 H916 0.950 . S
C894 C893 1.349 . S
C894 C906 1.349 . S
C895 C893 1.327 . S
C895 C911 1.429 . S
C895 H917 0.950 . S
C896 H892 0.949 . S
C896 C904 1.574 . S
C896 C912 1.368 . S
H897 C905 0.950 . S
H898 C903 0.950 . S
H899 C904 0.949 . S
H900 C906 0.950 . S
H901 C907 0.950 . S
H902 C908 0.949 . S
C903 H898 0.950 . S
C903 C905 1.327 . S
C903 C909 1.429 . S
C904 C896 1.574 . S
C904 H899 0.949 . S
C904 C910 1.368 . S
C905 C889 1.349 . S
C905 H897 0.950 . S
C905 C903 1.327 . S
C906 C894 1.349 . S
C906 H900 0.950 . S
C906 C907 1.327 . S
C907 H901 0.950 . S
C907 C906 1.327 . S
C907 C911 1.429 . S
C908 C891 1.574 . S
C908 H902 0.949 . S
C908 C912 1.368 . S
C909 C890 1.429 . S
C909 C903 1.429 . S
C909 C910 1.523 . S
C910 C891 1.368 . S
C910 C904 1.368 . S
C910 C909 1.523 . S
C911 C895 1.429 . S
C911 C907 1.429 . S
C911 C912 1.523 . S
C912 C896 1.368 . S
C912 C908 1.368 . S
C912 C911 1.523 . S
H913 C888 0.950 . S
H914 C890 0.950 . S
H915 C891 0.949 . S
H916 C893 0.950 . S
H917 C895 0.950 . S
C918 C919 1.349 . S
C918 C920 1.327 . S
C918 H943 0.950 . S
C919 C918 1.349 . S
C919 C935 1.349 . S
C920 C918 1.327 . S
C920 C939 1.429 . S
C920 H944 0.950 . S
C921 C938 1.574 . S
C921 C940 1.368 . S
C921 H945 0.949 . S
H922 C926 0.949 . S
C923 C924 1.349 . S
C923 C925 1.327 . S
C923 H946 0.950 . S
C924 C923 1.349 . S
C924 C936 1.349 . S
C925 C923 1.327 . S
C925 C941 1.429 . S
C925 H947 0.950 . S
C926 H922 0.949 . S
C926 C934 1.574 . S
C926 C942 1.368 . S
H927 C935 0.950 . S
H928 C933 0.950 . S
H929 C934 0.949 . S
H930 C936 0.950 . S
H931 C937 0.950 . S
H932 C938 0.949 . S
C933 H928 0.950 . S
C933 C935 1.327 . S
C933 C939 1.429 . S
C934 C926 1.574 . S
C934 H929 0.949 . S
C934 C940 1.368 . S
C935 C919 1.349 . S
C935 H927 0.950 . S
C935 C933 1.327 . S
C936 C924 1.349 . S
C936 H930 0.950 . S
C936 C937 1.327 . S
C937 H931 0.950 . S
C937 C936 1.327 . S
C937 C941 1.429 . S
C938 C921 1.574 . S
C938 H932 0.949 . S
C938 C942 1.368 . S
C939 C920 1.429 . S
C939 C933 1.429 . S
C939 C940 1.523 . S
C940 C921 1.368 . S
C940 C934 1.368 . S
C940 C939 1.523 . S
C941 C925 1.429 . S
C941 C937 1.429 . S
C941 C942 1.523 . S
C942 C926 1.368 . S
C942 C938 1.368 . S
C942 C941 1.523 . S
H943 C918 0.950 . S
H944 C920 0.950 . S
H945 C921 0.949 . S
H946 C923 0.950 . S
H947 C925 0.950 . S
C948 C949 1.349 . S
C948 C950 1.327 . S
C948 H973 0.950 . S
C949 C948 1.349 . S
C949 C965 1.349 . S
C950 C948 1.327 . S
C950 C969 1.429 . S
C950 H974 0.950 . S
C951 C968 1.574 . S
C951 C970 1.368 . S
C951 H975 0.949 . S
H952 C956 0.949 . S
C953 C954 1.349 . S
C953 C955 1.327 . S
C953 H976 0.950 . S
C954 C953 1.349 . S
C954 C966 1.349 . S
C955 C953 1.327 . S
C955 C971 1.429 . S
C955 H977 0.950 . S
C956 H952 0.949 . S
C956 C964 1.574 . S
C956 C972 1.368 . S
H957 C965 0.950 . S
H958 C963 0.950 . S
H959 C964 0.949 . S
H960 C966 0.950 . S
H961 C967 0.950 . S
H962 C968 0.949 . S
C963 H958 0.950 . S
C963 C965 1.327 . S
C963 C969 1.429 . S
C964 C956 1.574 . S
C964 H959 0.949 . S
C964 C970 1.368 . S
C965 C949 1.349 . S
C965 H957 0.950 . S
C965 C963 1.327 . S
C966 C954 1.349 . S
C966 H960 0.950 . S
C966 C967 1.327 . S
C967 H961 0.950 . S
C967 C966 1.327 . S
C967 C971 1.429 . S
C968 C951 1.574 . S
C968 H962 0.949 . S
C968 C972 1.368 . S
C969 C950 1.429 . S
C969 C963 1.429 . S
C969 C970 1.523 . S
C970 C951 1.368 . S
C970 C964 1.368 . S
C970 C969 1.523 . S
C971 C955 1.429 . S
C971 C967 1.429 . S
C971 C972 1.523 . S
C972 C956 1.368 . S
C972 C968 1.368 . S
C972 C971 1.523 . S
H973 C948 0.950 . S
H974 C950 0.950 . S
H975 C951 0.949 . S
H976 C953 0.950 . S
H977 C955 0.950 . S
C978 C979 1.349 . S
C978 C980 1.327 . S
C978 H1003 0.950 . S
C979 C978 1.349 . S
C979 C995 1.349 . S
C980 C978 1.327 . S
C980 C999 1.429 . S
C980 H1004 0.950 . S
C981 C998 1.574 . S
C981 C1000 1.368 . S
C981 H1005 0.949 . S
H982 C986 0.949 . S
C983 C984 1.349 . S
C983 C985 1.327 . S
C983 H1006 0.950 . S
C984 C983 1.349 . S
C984 C996 1.349 . S
C985 C983 1.327 . S
C985 C1001 1.429 . S
C985 H1007 0.950 . S
C986 H982 0.949 . S
C986 C994 1.574 . S
C986 C1002 1.368 . S
H987 C995 0.950 . S
H988 C993 0.950 . S
H989 C994 0.949 . S
H990 C996 0.950 . S
H991 C997 0.950 . S
H992 C998 0.949 . S
C993 H988 0.950 . S
C993 C995 1.327 . S
C993 C999 1.429 . S
C994 C986 1.574 . S
C994 H989 0.949 . S
C994 C1000 1.368 . S
C995 C979 1.349 . S
C995 H987 0.950 . S
C995 C993 1.327 . S
C996 C984 1.349 . S
C996 H990 0.950 . S
C996 C997 1.327 . S
C997 H991 0.950 . S
C997 C996 1.327 . S
C997 C1001 1.429 . S
C998 C981 1.574 . S
C998 H992 0.949 . S
C998 C1002 1.368 . S
C999 C980 1.429 . S
C999 C993 1.429 . S
C999 C1000 1.523 . S
C1000 C981 1.368 . S
C1000 C994 1.368 . S
C1000 C999 1.523 . S
C1001 C985 1.429 . S
C1001 C997 1.429 . S
C1001 C1002 1.523 . S
C1002 C986 1.368 . S
C1002 C998 1.368 . S
C1002 C1001 1.523 . S
H1003 C978 0.950 . S
H1004 C980 0.950 . S
H1005 C981 0.949 . S
H1006 C983 0.950 . S
H1007 C985 0.950 . S
C1008 C1009 1.349 . S
C1008 C1010 1.327 . S
C1008 H1033 0.950 . S
C1009 C1008 1.349 . S
C1009 C1025 1.349 . S
C1010 C1008 1.327 . S
C1010 C1029 1.429 . S
C1010 H1034 0.950 . S
C1011 C1028 1.574 . S
C1011 C1030 1.368 1_655 S
C1011 H1035 0.949 . S
H1012 C1016 0.949 . S
C1013 C1014 1.349 . S
C1013 C1015 1.327 . S
C1013 H1036 0.950 . S
C1014 C1013 1.349 . S
C1014 C1026 1.349 . S
C1015 C1013 1.327 . S
C1015 C1031 1.429 . S
C1015 H1037 0.950 . S
C1016 H1012 0.949 . S
C1016 C1024 1.574 1_655 S
C1016 C1032 1.368 . S
H1017 C1025 0.950 . S
H1018 C1023 0.950 . S
H1019 C1024 0.949 . S
H1020 C1026 0.950 . S
H1021 C1027 0.950 . S
H1022 C1028 0.949 . S
C1023 H1018 0.950 . S
C1023 C1025 1.327 . S
C1023 C1029 1.429 . S
C1024 C1016 1.574 1_455 S
C1024 H1019 0.949 . S
C1024 C1030 1.368 . S
C1025 C1009 1.349 . S
C1025 H1017 0.950 . S
C1025 C1023 1.327 . S
C1026 C1014 1.349 . S
C1026 H1020 0.950 . S
C1026 C1027 1.327 . S
C1027 H1021 0.950 . S
C1027 C1026 1.327 . S
C1027 C1031 1.429 . S
C1028 C1011 1.574 . S
C1028 H1022 0.949 . S
C1028 C1032 1.368 . S
C1029 C1010 1.429 . S
C1029 C1023 1.429 . S
C1029 C1030 1.523 . S
C1030 C1011 1.368 1_455 S
C1030 C1024 1.368 . S
C1030 C1029 1.523 . S
C1031 C1015 1.429 . S
C1031 C1027 1.429 . S
C1031 C1032 1.523 . S
C1032 C1016 1.368 . S
C1032 C1028 1.368 . S
C1032 C1031 1.523 . S
H1033 C1008 0.950 . S
H1034 C1010 0.950 . S
H1035 C1011 0.949 . S
H1036 C1013 0.950 . S
H1037 C1015 0.950 . S
C1038 C1039 1.349 . S
C1038 C1040 1.327 . S
C1038 H1063 0.950 . S
C1039 C1038 1.349 . S
C1039 C1055 1.349 . S
C1040 C1038 1.327 . S
C1040 C1059 1.429 . S
C1040 H1064 0.950 . S
C1041 C1058 1.574 . S
C1041 C1060 1.368 . S
C1041 H1065 0.949 . S
H1042 C1046 0.949 . S
C1043 C1044 1.349 . S
C1043 C1045 1.327 . S
C1043 H1066 0.950 . S
C1044 C1043 1.349 . S
C1044 C1056 1.349 . S
C1045 C1043 1.327 . S
C1045 C1061 1.429 . S
C1045 H1067 0.950 . S
C1046 H1042 0.949 . S
C1046 C1054 1.574 . S
C1046 C1062 1.368 . S
H1047 C1055 0.950 . S
H1048 C1053 0.950 . S
H1049 C1054 0.949 . S
H1050 C1056 0.950 . S
H1051 C1057 0.950 . S
H1052 C1058 0.949 . S
C1053 H1048 0.950 . S
C1053 C1055 1.327 . S
C1053 C1059 1.429 . S
C1054 C1046 1.574 . S
C1054 H1049 0.949 . S
C1054 C1060 1.368 . S
C1055 C1039 1.349 . S
C1055 H1047 0.950 . S
C1055 C1053 1.327 . S
C1056 C1044 1.349 . S
C1056 H1050 0.950 . S
C1056 C1057 1.327 . S
C1057 H1051 0.950 . S
C1057 C1056 1.327 . S
C1057 C1061 1.429 . S
C1058 C1041 1.574 . S
C1058 H1052 0.949 . S
C1058 C1062 1.368 . S
C1059 C1040 1.429 . S
C1059 C1053 1.429 . S
C1059 C1060 1.523 . S
C1060 C1041 1.368 . S
C1060 C1054 1.368 . S
C1060 C1059 1.523 . S
C1061 C1045 1.429 . S
C1061 C1057 1.429 . S
C1061 C1062 1.523 . S
C1062 C1046 1.368 . S
C1062 C1058 1.368 . S
C1062 C1061 1.523 . S
H1063 C1038 0.950 . S
H1064 C1040 0.950 . S
H1065 C1041 0.949 . S
H1066 C1043 0.950 . S
H1067 C1045 0.950 . S
C1068 C1069 1.349 . S
C1068 C1070 1.327 . S
C1068 H1093 0.950 . S
C1069 C1068 1.349 . S
C1069 C1085 1.349 . S
C1070 C1068 1.327 . S
C1070 C1089 1.429 . S
C1070 H1094 0.950 . S
C1071 C1088 1.574 . S
C1071 C1090 1.368 . S
C1071 H1095 0.949 . S
H1072 C1076 0.949 . S
C1073 C1074 1.349 . S
C1073 C1075 1.327 . S
C1073 H1096 0.950 . S
C1074 C1073 1.349 . S
C1074 C1086 1.349 . S
C1075 C1073 1.327 . S
C1075 C1091 1.429 . S
C1075 H1097 0.950 . S
C1076 H1072 0.949 . S
C1076 C1084 1.574 . S
C1076 C1092 1.368 . S
H1077 C1085 0.950 . S
H1078 C1083 0.950 . S
H1079 C1084 0.949 . S
H1080 C1086 0.950 . S
H1081 C1087 0.950 . S
H1082 C1088 0.949 . S
C1083 H1078 0.950 . S
C1083 C1085 1.327 . S
C1083 C1089 1.429 . S
C1084 C1076 1.574 . S
C1084 H1079 0.949 . S
C1084 C1090 1.368 . S
C1085 C1069 1.349 . S
C1085 H1077 0.950 . S
C1085 C1083 1.327 . S
C1086 C1074 1.349 . S
C1086 H1080 0.950 . S
C1086 C1087 1.327 . S
C1087 H1081 0.950 . S
C1087 C1086 1.327 . S
C1087 C1091 1.429 . S
C1088 C1071 1.574 . S
C1088 H1082 0.949 . S
C1088 C1092 1.368 . S
C1089 C1070 1.429 . S
C1089 C1083 1.429 . S
C1089 C1090 1.523 . S
C1090 C1071 1.368 . S
C1090 C1084 1.368 . S
C1090 C1089 1.523 . S
C1091 C1075 1.429 . S
C1091 C1087 1.429 . S
C1091 C1092 1.523 . S
C1092 C1076 1.368 . S
C1092 C1088 1.368 . S
C1092 C1091 1.523 . S
H1093 C1068 0.950 . S
H1094 C1070 0.950 . S
H1095 C1071 0.949 . S
H1096 C1073 0.950 . S
H1097 C1075 0.950 . S
C1098 C1099 1.349 . S
C1098 C1100 1.327 . S
C1098 H1123 0.950 . S
C1099 C1098 1.349 . S
C1099 C1115 1.349 1_545 S
C1100 C1098 1.327 . S
C1100 C1119 1.429 . S
C1100 H1124 0.950 . S
C1101 C1118 1.574 . S
C1101 C1120 1.368 1_565 S
C1101 H1125 0.949 . S
H1102 C1106 0.949 . S
C1103 C1104 1.349 . S
C1103 C1105 1.327 . S
C1103 H1126 0.950 . S
C1104 C1103 1.349 . S
C1104 C1116 1.360 . S
C1105 C1103 1.327 . S
C1105 C1121 1.429 . S
C1105 H1127 0.950 . S
C1106 H1102 0.949 . S
C1106 C1114 1.574 . S
C1106 C1122 1.368 1_545 S
H1107 C1115 0.950 . S
H1108 C1113 0.950 . S
H1109 C1114 0.949 . S
H1110 C1116 0.945 1_545 S
H1111 C1117 0.950 . S
H1112 C1118 0.949 . S
C1113 H1108 0.950 . S
C1113 C1115 1.327 . S
C1113 C1119 1.429 1_565 S
C1114 C1106 1.574 . S
C1114 H1109 0.949 . S
C1114 C1120 1.368 . S
C1115 C1099 1.349 1_565 S
C1115 H1107 0.950 . S
C1115 C1113 1.327 . S
C1116 C1104 1.360 . S
C1116 H1110 0.945 1_565 S
C1116 C1117 1.321 1_565 S
C1117 H1111 0.950 . S
C1117 C1116 1.321 1_545 S
C1117 C1121 1.429 1_545 S
C1118 C1101 1.574 . S
C1118 H1112 0.949 . S
C1118 C1122 1.368 . S
C1119 C1100 1.429 . S
C1119 C1113 1.429 1_545 S
C1119 C1120 1.523 . S
C1120 C1101 1.368 1_545 S
C1120 C1114 1.368 . S
C1120 C1119 1.523 . S
C1121 C1105 1.429 . S
C1121 C1117 1.429 1_565 S
C1121 C1122 1.523 . S
C1122 C1106 1.368 1_565 S
C1122 C1118 1.368 . S
C1122 C1121 1.523 . S
H1123 C1098 0.950 . S
H1124 C1100 0.950 . S
H1125 C1101 0.949 . S
H1126 C1103 0.950 . S
H1127 C1105 0.950 . S
C1128 C1129 1.349 . S
C1128 C1130 1.327 . S
C1128 H1153 0.950 . S
C1129 C1128 1.349 . S
C1129 C1145 1.349 . S
C1130 C1128 1.327 . S
C1130 C1149 1.429 . S
C1130 H1154 0.950 . S
C1131 C1148 1.574 . S
C1131 C1150 1.368 . S
C1131 H1155 0.949 . S
H1132 C1136 0.949 . S
C1133 C1134 1.349 . S
C1133 C1135 1.327 . S
C1133 H1156 0.950 . S
C1134 C1133 1.349 . S
C1134 C1146 1.349 . S
C1135 C1133 1.327 . S
C1135 C1151 1.429 . S
C1135 H1157 0.950 . S
C1136 H1132 0.949 . S
C1136 C1144 1.574 . S
C1136 C1152 1.368 . S
H1137 C1145 0.950 . S
H1138 C1143 0.950 . S
H1139 C1144 0.949 . S
H1140 C1146 0.950 . S
H1141 C1147 0.950 . S
H1142 C1148 0.949 . S
C1143 H1138 0.950 . S
C1143 C1145 1.327 . S
C1143 C1149 1.429 . S
C1144 C1136 1.574 . S
C1144 H1139 0.949 . S
C1144 C1150 1.368 . S
C1145 C1129 1.349 . S
C1145 H1137 0.950 . S
C1145 C1143 1.327 . S
C1146 C1134 1.349 . S
C1146 H1140 0.950 . S
C1146 C1147 1.327 . S
C1147 H1141 0.950 . S
C1147 C1146 1.327 . S
C1147 C1151 1.429 . S
C1148 C1131 1.574 . S
C1148 H1142 0.949 . S
C1148 C1152 1.368 . S
C1149 C1130 1.429 . S
C1149 C1143 1.429 . S
C1149 C1150 1.523 . S
C1150 C1131 1.368 . S
C1150 C1144 1.368 . S
C1150 C1149 1.523 . S
C1151 C1135 1.429 . S
C1151 C1147 1.429 . S
C1151 C1152 1.523 . S
C1152 C1136 1.368 . S
C1152 C1148 1.368 . S
C1152 C1151 1.523 . S
H1153 C1128 0.950 . S
H1154 C1130 0.950 . S
H1155 C1131 0.949 . S
H1156 C1133 0.950 . S
H1157 C1135 0.950 . S
C1158 C1159 1.349 . S
C1158 C1160 1.327 . S
C1158 H1183 0.950 . S
C1159 C1158 1.349 . S
C1159 C1175 1.349 . S
C1160 C1158 1.327 . S
C1160 C1179 1.429 . S
C1160 H1184 0.950 . S
C1161 C1178 1.574 . S
C1161 C1180 1.368 . S
C1161 H1185 0.949 . S
H1162 C1166 0.949 . S
C1163 C1164 1.349 . S
C1163 C1165 1.327 . S
C1163 H1186 0.950 . S
C1164 C1163 1.349 . S
C1164 C1176 1.349 . S
C1165 C1163 1.327 . S
C1165 C1181 1.429 . S
C1165 H1187 0.950 . S
C1166 H1162 0.949 . S
C1166 C1174 1.574 . S
C1166 C1182 1.368 . S
H1167 C1175 0.950 . S
H1168 C1173 0.950 . S
H1169 C1174 0.949 . S
H1170 C1176 0.950 . S
H1171 C1177 0.950 . S
H1172 C1178 0.949 . S
C1173 H1168 0.950 . S
C1173 C1175 1.327 . S
C1173 C1179 1.429 . S
C1174 C1166 1.574 . S
C1174 H1169 0.949 . S
C1174 C1180 1.368 . S
C1175 C1159 1.349 . S
C1175 H1167 0.950 . S
C1175 C1173 1.327 . S
C1176 C1164 1.349 . S
C1176 H1170 0.950 . S
C1176 C1177 1.327 . S
C1177 H1171 0.950 . S
C1177 C1176 1.327 . S
C1177 C1181 1.429 . S
C1178 C1161 1.574 . S
C1178 H1172 0.949 . S
C1178 C1182 1.368 . S
C1179 C1160 1.429 . S
C1179 C1173 1.429 . S
C1179 C1180 1.523 . S
C1180 C1161 1.368 . S
C1180 C1174 1.368 . S
C1180 C1179 1.523 . S
C1181 C1165 1.429 . S
C1181 C1177 1.429 . S
C1181 C1182 1.523 . S
C1182 C1166 1.368 . S
C1182 C1178 1.368 . S
C1182 C1181 1.523 . S
H1183 C1158 0.950 . S
H1184 C1160 0.950 . S
H1185 C1161 0.949 . S
H1186 C1163 0.950 . S
H1187 C1165 0.950 . S
C1188 C1189 1.349 . S
C1188 C1190 1.327 . S
C1188 H1213 0.950 . S
C1189 C1188 1.349 . S
C1189 C1205 1.349 . S
C1190 C1188 1.327 . S
C1190 C1209 1.429 . S
C1190 H1214 0.950 . S
C1191 C1208 1.574 . S
C1191 C1210 1.368 . S
C1191 H1215 0.949 . S
H1192 C1196 0.949 . S
C1193 C1194 1.349 . S
C1193 C1195 1.327 . S
C1193 H1216 0.950 . S
C1194 C1193 1.349 . S
C1194 C1206 1.349 . S
C1195 C1193 1.327 . S
C1195 C1211 1.429 . S
C1195 H1217 0.950 . S
C1196 H1192 0.949 . S
C1196 C1204 1.574 . S
C1196 C1212 1.368 . S
H1197 C1205 0.950 . S
H1198 C1203 0.950 . S
H1199 C1204 0.949 . S
H1200 C1206 0.950 . S
H1201 C1207 0.950 . S
H1202 C1208 0.949 . S
C1203 H1198 0.950 . S
C1203 C1205 1.327 . S
C1203 C1209 1.429 . S
C1204 C1196 1.574 . S
C1204 H1199 0.949 . S
C1204 C1210 1.368 . S
C1205 C1189 1.349 . S
C1205 H1197 0.950 . S
C1205 C1203 1.327 . S
C1206 C1194 1.349 . S
C1206 H1200 0.950 . S
C1206 C1207 1.327 . S
C1207 H1201 0.950 . S
C1207 C1206 1.327 . S
C1207 C1211 1.429 . S
C1208 C1191 1.574 . S
C1208 H1202 0.949 . S
C1208 C1212 1.368 . S
C1209 C1190 1.429 . S
C1209 C1203 1.429 . S
C1209 C1210 1.523 . S
C1210 C1191 1.368 . S
C1210 C1204 1.368 . S
C1210 C1209 1.523 . S
C1211 C1195 1.429 . S
C1211 C1207 1.429 . S
C1211 C1212 1.523 . S
C1212 C1196 1.368 . S
C1212 C1208 1.368 . S
C1212 C1211 1.523 . S
H1213 C1188 0.950 . S
H1214 C1190 0.950 . S
H1215 C1191 0.949 . S
H1216 C1193 0.950 . S
H1217 C1195 0.950 . S
C1218 C1219 1.349 . S
C1218 C1220 1.327 . S
C1218 H1243 0.950 . S
C1219 C1218 1.349 . S
C1219 C1235 1.349 . S
C1220 C1218 1.327 . S
C1220 C1239 1.429 . S
C1220 H1244 0.950 . S
C1221 C1238 1.574 . S
C1221 C1240 1.368 . S
C1221 H1245 0.949 . S
H1222 C1226 0.949 . S
C1223 C1224 1.349 . S
C1223 C1225 1.327 . S
C1223 H1246 0.950 . S
C1224 C1223 1.349 . S
C1224 C1236 1.349 . S
C1225 C1223 1.327 . S
C1225 C1241 1.429 . S
C1225 H1247 0.950 . S
C1226 H1222 0.949 . S
C1226 C1234 1.574 . S
C1226 C1242 1.368 . S
H1227 C1235 0.950 . S
H1228 C1233 0.950 . S
H1229 C1234 0.949 . S
H1230 C1236 0.950 . S
H1231 C1237 0.950 . S
H1232 C1238 0.949 . S
C1233 H1228 0.950 . S
C1233 C1235 1.327 . S
C1233 C1239 1.429 . S
C1234 C1226 1.574 . S
C1234 H1229 0.949 . S
C1234 C1240 1.368 . S
C1235 C1219 1.349 . S
C1235 H1227 0.950 . S
C1235 C1233 1.327 . S
C1236 C1224 1.349 . S
C1236 H1230 0.950 . S
C1236 C1237 1.327 . S
C1237 H1231 0.950 . S
C1237 C1236 1.327 . S
C1237 C1241 1.429 . S
C1238 C1221 1.574 . S
C1238 H1232 0.949 . S
C1238 C1242 1.368 . S
C1239 C1220 1.429 . S
C1239 C1233 1.429 . S
C1239 C1240 1.523 . S
C1240 C1221 1.368 . S
C1240 C1234 1.368 . S
C1240 C1239 1.523 . S
C1241 C1225 1.429 . S
C1241 C1237 1.429 . S
C1241 C1242 1.523 . S
C1242 C1226 1.368 . S
C1242 C1238 1.368 . S
C1242 C1241 1.523 . S
H1243 C1218 0.950 . S
H1244 C1220 0.950 . S
H1245 C1221 0.949 . S
H1246 C1223 0.950 . S
H1247 C1225 0.950 . S
C1248 C1249 1.349 1_565 S
C1248 C1250 1.327 . S
C1248 H1273 0.950 . S
C1249 C1248 1.349 1_545 S
C1249 C1265 1.349 . S
C1250 C1248 1.327 . S
C1250 C1269 1.429 1_565 S
C1250 H1274 0.950 . S
C1251 C1268 1.574 . S
C1251 C1270 1.368 . S
C1251 H1275 0.949 . S
H1252 C1256 0.949 . S
C1253 C1254 1.351 1_545 S
C1253 C1255 1.327 . S
C1253 H1276 0.948 . S
C1254 C1253 1.351 1_565 S
C1254 C1266 1.349 . S
C1255 C1253 1.327 . S
C1255 C1271 1.429 1_545 S
C1255 H1277 0.950 . S
C1256 H1252 0.949 . S
C1256 C1264 1.574 . S
C1256 C1272 1.368 . S
H1257 C1265 0.950 . S
H1258 C1263 0.950 . S
H1259 C1264 0.949 . S
H1260 C1266 0.950 . S
H1261 C1267 0.950 . S
H1262 C1268 0.949 . S
C1263 H1258 0.950 . S
C1263 C1265 1.327 . S
C1263 C1269 1.429 . S
C1264 C1256 1.574 . S
C1264 H1259 0.949 . S
C1264 C1270 1.368 1_565 S
C1265 C1249 1.349 . S
C1265 H1257 0.950 . S
C1265 C1263 1.327 . S
C1266 C1254 1.349 . S
C1266 H1260 0.950 . S
C1266 C1267 1.327 . S
C1267 H1261 0.950 . S
C1267 C1266 1.327 . S
C1267 C1271 1.429 . S
C1268 C1251 1.574 . S
C1268 H1262 0.949 . S
C1268 C1272 1.368 1_545 S
C1269 C1250 1.429 1_545 S
C1269 C1263 1.429 . S
C1269 C1270 1.523 . S
C1270 C1251 1.368 . S
C1270 C1264 1.368 1_545 S
C1270 C1269 1.523 . S
C1271 C1255 1.429 1_565 S
C1271 C1267 1.429 . S
C1271 C1272 1.523 . S
C1272 C1256 1.368 . S
C1272 C1268 1.368 1_565 S
C1272 C1271 1.523 . S
H1273 C1248 0.950 . S
H1274 C1250 0.950 . S
H1275 C1251 0.949 . S
H1276 C1253 0.948 . S
H1277 C1255 0.950 . S
C1278 C1279 1.349 . S
C1278 C1280 1.327 . S
C1278 H1303 0.950 . S
C1279 C1278 1.349 . S
C1279 C1295 1.349 . S
C1280 C1278 1.327 . S
C1280 C1299 1.429 . S
C1280 H1304 0.950 . S
C1281 C1298 1.574 . S
C1281 C1300 1.368 . S
C1281 H1305 0.949 . S
H1282 C1286 0.949 . S
C1283 C1284 1.349 . S
C1283 C1285 1.327 . S
C1283 H1306 0.950 . S
C1284 C1283 1.349 . S
C1284 C1296 1.349 . S
C1285 C1283 1.327 . S
C1285 C1301 1.429 . S
C1285 H1307 0.950 . S
C1286 H1282 0.949 . S
C1286 C1294 1.574 . S
C1286 C1302 1.368 . S
H1287 C1295 0.950 . S
H1288 C1293 0.950 . S
H1289 C1294 0.949 . S
H1290 C1296 0.950 . S
H1291 C1297 0.950 . S
H1292 C1298 0.949 . S
C1293 H1288 0.950 . S
C1293 C1295 1.327 . S
C1293 C1299 1.429 . S
C1294 C1286 1.574 . S
C1294 H1289 0.949 . S
C1294 C1300 1.368 . S
C1295 C1279 1.349 . S
C1295 H1287 0.950 . S
C1295 C1293 1.327 . S
C1296 C1284 1.349 . S
C1296 H1290 0.950 . S
C1296 C1297 1.327 . S
C1297 H1291 0.950 . S
C1297 C1296 1.327 . S
C1297 C1301 1.429 . S
C1298 C1281 1.574 . S
C1298 H1292 0.949 . S
C1298 C1302 1.368 . S
C1299 C1280 1.429 . S
C1299 C1293 1.429 . S
C1299 C1300 1.523 . S
C1300 C1281 1.368 . S
C1300 C1294 1.368 . S
C1300 C1299 1.523 . S
C1301 C1285 1.429 . S
C1301 C1297 1.429 . S
C1301 C1302 1.523 . S
C1302 C1286 1.368 . S
C1302 C1298 1.368 . S
C1302 C1301 1.523 . S
H1303 C1278 0.950 . S
H1304 C1280 0.950 . S
H1305 C1281 0.949 . S
H1306 C1283 0.950 . S
H1307 C1285 0.950 . S
C1308 C1309 1.349 . S
C1308 C1310 1.327 . S
C1308 H1333 0.950 . S
C1309 C1308 1.349 . S
C1309 C1325 1.349 . S
C1310 C1308 1.327 . S
C1310 C1329 1.429 . S
C1310 H1334 0.950 1_455 S
C1311 C1328 1.575 . S
C1311 C1330 1.368 . S
C1311 H1335 0.949 . S
H1312 C1316 0.949 . S
C1313 C1314 1.349 . S
C1313 C1315 1.327 . S
C1313 H1336 0.950 . S
C1314 C1313 1.349 . S
C1314 C1326 1.349 . S
C1315 C1313 1.327 . S
C1315 C1331 1.429 . S
C1315 H1337 0.950 . S
C1316 H1312 0.949 . S
C1316 C1324 1.574 . S
C1316 C1332 1.368 . S
H1317 C1325 0.950 . S
H1318 C1323 0.950 . S
H1319 C1324 0.949 . S
H1320 C1326 0.950 . S
H1321 C1327 0.950 . S
H1322 C1328 0.981 . S
C1323 H1318 0.950 . S
C1323 C1325 1.327 . S
C1323 C1329 1.429 . S
C1324 C1316 1.574 . S
C1324 H1319 0.949 . S
C1324 C1330 1.368 1_655 S
C1325 C1309 1.349 . S
C1325 H1317 0.950 . S
C1325 C1323 1.327 . S
C1326 C1314 1.349 . S
C1326 H1320 0.950 . S
C1326 C1327 1.327 . S
C1327 H1321 0.950 . S
C1327 C1326 1.327 . S
C1327 C1331 1.429 . S
C1328 C1311 1.575 . S
C1328 H1322 0.981 . S
C1328 C1332 1.335 1_455 S
C1329 C1310 1.429 . S
C1329 C1323 1.429 . S
C1329 C1330 1.523 . S
C1330 C1311 1.368 . S
C1330 C1324 1.368 1_455 S
C1330 C1329 1.523 . S
C1331 C1315 1.429 . S
C1331 C1327 1.429 . S
C1331 C1332 1.523 . S
C1332 C1316 1.368 . S
C1332 C1328 1.335 1_655 S
C1332 C1331 1.523 . S
H1333 C1308 0.950 . S
H1334 C1310 0.950 1_655 S
H1335 C1311 0.949 . S
H1336 C1313 0.950 . S
H1337 C1315 0.950 . S
C1338 C1339 1.349 . S
C1338 C1340 1.327 . S
C1338 H1363 0.950 . S
C1339 C1338 1.349 . S
C1339 C1355 1.349 . S
C1340 C1338 1.327 . S
C1340 C1359 1.429 . S
C1340 H1364 0.950 . S
C1341 C1358 1.574 . S
C1341 C1360 1.368 . S
C1341 H1365 0.949 . S
H1342 C1346 0.949 . S
C1343 C1344 1.349 . S
C1343 C1345 1.327 . S
C1343 H1366 0.950 . S
C1344 C1343 1.349 . S
C1344 C1356 1.349 . S
C1345 C1343 1.327 . S
C1345 C1361 1.429 . S
C1345 H1367 0.950 . S
C1346 H1342 0.949 . S
C1346 C1354 1.574 . S
C1346 C1362 1.368 . S
H1347 C1355 0.950 . S
H1348 C1353 0.950 . S
H1349 C1354 0.949 . S
H1350 C1356 0.950 . S
H1351 C1357 0.950 . S
H1352 C1358 0.949 . S
C1353 H1348 0.950 . S
C1353 C1355 1.327 . S
C1353 C1359 1.429 . S
C1354 C1346 1.574 . S
C1354 H1349 0.949 . S
C1354 C1360 1.368 . S
C1355 C1339 1.349 . S
C1355 H1347 0.950 . S
C1355 C1353 1.327 . S
C1356 C1344 1.349 . S
C1356 H1350 0.950 . S
C1356 C1357 1.327 . S
C1357 H1351 0.950 . S
C1357 C1356 1.327 . S
C1357 C1361 1.429 . S
C1358 C1341 1.574 . S
C1358 H1352 0.949 . S
C1358 C1362 1.368 . S
C1359 C1340 1.429 . S
C1359 C1353 1.429 . S
C1359 C1360 1.523 . S
C1360 C1341 1.368 . S
C1360 C1354 1.368 . S
C1360 C1359 1.523 . S
C1361 C1345 1.429 . S
C1361 C1357 1.429 . S
C1361 C1362 1.523 . S
C1362 C1346 1.368 . S
C1362 C1358 1.368 . S
C1362 C1361 1.523 . S
H1363 C1338 0.950 . S
H1364 C1340 0.950 . S
H1365 C1341 0.949 . S
H1366 C1343 0.950 . S
H1367 C1345 0.950 . S
C1368 C1369 1.349 . S
C1368 C1370 1.327 . S
C1368 H1393 0.950 . S
C1369 C1368 1.349 . S
C1369 C1385 1.349 . S
C1370 C1368 1.327 . S
C1370 C1389 1.429 . S
C1370 H1394 0.950 . S
C1371 C1388 1.574 . S
C1371 C1390 1.368 . S
C1371 H1395 0.949 . S
H1372 C1376 0.949 . S
C1373 C1374 1.349 . S
C1373 C1375 1.327 . S
C1373 H1396 0.950 . S
C1374 C1373 1.349 . S
C1374 C1386 1.349 . S
C1375 C1373 1.327 . S
C1375 C1391 1.429 . S
C1375 H1397 0.950 . S
C1376 H1372 0.949 . S
C1376 C1384 1.574 . S
C1376 C1392 1.368 . S
H1377 C1385 0.950 . S
H1378 C1383 0.950 . S
H1379 C1384 0.949 . S
H1380 C1386 0.950 . S
H1381 C1387 0.950 . S
H1382 C1388 0.949 . S
C1383 H1378 0.950 . S
C1383 C1385 1.327 . S
C1383 C1389 1.429 . S
C1384 C1376 1.574 . S
C1384 H1379 0.949 . S
C1384 C1390 1.368 . S
C1385 C1369 1.349 . S
C1385 H1377 0.950 . S
C1385 C1383 1.327 . S
C1386 C1374 1.349 . S
C1386 H1380 0.950 . S
C1386 C1387 1.327 . S
C1387 H1381 0.950 . S
C1387 C1386 1.327 . S
C1387 C1391 1.429 . S
C1388 C1371 1.574 . S
C1388 H1382 0.949 . S
C1388 C1392 1.368 . S
C1389 C1370 1.429 . S
C1389 C1383 1.429 . S
C1389 C1390 1.523 . S
C1390 C1371 1.368 . S
C1390 C1384 1.368 . S
C1390 C1389 1.523 . S
C1391 C1375 1.429 . S
C1391 C1387 1.429 . S
C1391 C1392 1.523 . S
C1392 C1376 1.368 . S
C1392 C1388 1.368 . S
C1392 C1391 1.523 . S
H1393 C1368 0.950 . S
H1394 C1370 0.950 . S
H1395 C1371 0.949 . S
H1396 C1373 0.950 . S
H1397 C1375 0.950 . S
C1398 C1399 1.349 . S
C1398 C1400 1.327 . S
C1398 H1423 0.950 . S
C1399 C1398 1.349 . S
C1399 C1415 1.349 . S
C1400 C1398 1.327 . S
C1400 C1419 1.429 . S
C1400 H1424 0.950 . S
C1401 C1418 1.574 . S
C1401 C1420 1.368 . S
C1401 H1425 0.949 . S
H1402 C1406 0.949 . S
C1403 C1404 1.349 . S
C1403 C1405 1.311 1_565 S
C1403 H1426 0.950 . S
C1404 C1403 1.349 . S
C1404 C1416 1.349 1_565 S
C1405 C1403 1.311 1_545 S
C1405 C1421 1.475 . S
C1405 H1427 0.921 1_545 S
C1406 H1402 0.949 . S
C1406 C1414 1.574 . S
C1406 C1422 1.368 . S
H1407 C1415 0.950 . S
H1408 C1413 0.950 . S
H1409 C1414 0.949 . S
H1410 C1416 0.950 . S
H1411 C1417 0.950 . S
H1412 C1418 0.949 . S
C1413 H1408 0.950 . S
C1413 C1415 1.327 . S
C1413 C1419 1.429 . S
C1414 C1406 1.574 . S
C1414 H1409 0.949 . S
C1414 C1420 1.368 . S
C1415 C1399 1.349 . S
C1415 H1407 0.950 . S
C1415 C1413 1.327 . S
C1416 C1404 1.349 1_545 S
C1416 H1410 0.950 . S
C1416 C1417 1.327 . S
C1417 H1411 0.950 . S
C1417 C1416 1.327 . S
C1417 C1421 1.429 . S
C1418 C1401 1.574 . S
C1418 H1412 0.949 . S
C1418 C1422 1.368 . S
C1419 C1400 1.429 . S
C1419 C1413 1.429 . S
C1419 C1420 1.523 . S
C1420 C1401 1.368 . S
C1420 C1414 1.368 . S
C1420 C1419 1.523 . S
C1421 C1405 1.475 . S
C1421 C1417 1.429 . S
C1421 C1422 1.523 . S
C1422 C1406 1.368 . S
C1422 C1418 1.368 . S
C1422 C1421 1.523 . S
H1423 C1398 0.950 . S
H1424 C1400 0.950 . S
H1425 C1401 0.949 . S
H1426 C1403 0.950 . S
H1427 C1405 0.921 1_565 S
C1428 C1429 1.349 1_455 S
C1428 C1430 1.327 . S
C1428 H1453 0.970 . S
C1429 C1428 1.349 1_655 S
C1429 C1445 1.349 . S
C1430 C1428 1.327 . S
C1430 C1449 1.429 . S
C1430 H1454 0.950 . S
C1431 C1448 1.574 . S
C1431 C1450 1.368 . S
C1431 H1455 0.949 . S
H1432 C1436 0.949 . S
C1433 C1434 1.349 . S
C1433 C1435 1.327 . S
C1433 H1456 0.950 . S
C1434 C1433 1.349 . S
C1434 C1446 1.349 . S
C1435 C1433 1.327 . S
C1435 C1451 1.429 . S
C1435 H1457 0.950 . S
C1436 H1432 0.949 . S
C1436 C1444 1.574 . S
C1436 C1452 1.368 . S
H1437 C1445 0.950 . S
H1438 C1443 0.950 . S
H1439 C1444 0.949 . S
H1440 C1446 0.950 . S
H1441 C1447 0.950 . S
H1442 C1448 0.949 . S
C1443 H1438 0.950 . S
C1443 C1445 1.327 1_455 S
C1443 C1449 1.429 . S
C1444 C1436 1.574 . S
C1444 H1439 0.949 . S
C1444 C1450 1.368 . S
C1445 C1429 1.349 . S
C1445 H1437 0.950 . S
C1445 C1443 1.327 1_655 S
C1446 C1434 1.349 . S
C1446 H1440 0.950 . S
C1446 C1447 1.327 . S
C1447 H1441 0.950 . S
C1447 C1446 1.327 . S
C1447 C1451 1.429 . S
C1448 C1431 1.574 . S
C1448 H1442 0.949 . S
C1448 C1452 1.368 . S
C1449 C1430 1.429 . S
C1449 C1443 1.429 . S
C1449 C1450 1.523 . S
C1450 C1431 1.368 . S
C1450 C1444 1.368 . S
C1450 C1449 1.523 . S
C1451 C1435 1.429 . S
C1451 C1447 1.429 . S
C1451 C1452 1.523 . S
C1452 C1436 1.368 . S
C1452 C1448 1.368 . S
C1452 C1451 1.523 . S
H1453 C1428 0.970 . S
H1454 C1430 0.950 . S
H1455 C1431 0.949 . S
H1456 C1433 0.950 . S
H1457 C1435 0.950 . S
C1458 C1459 1.349 . S
C1458 C1460 1.327 . S
C1458 H1483 0.950 . S
C1459 C1458 1.349 . S
C1459 C1475 1.349 . S
C1460 C1458 1.327 . S
C1460 C1479 1.429 . S
C1460 H1484 0.950 . S
C1461 C1478 1.574 . S
C1461 C1480 1.368 . S
C1461 H1485 0.949 . S
H1462 C1466 0.949 . S
C1463 C1464 1.349 . S
C1463 C1465 1.327 . S
C1463 H1486 0.950 . S
C1464 C1463 1.349 . S
C1464 C1476 1.349 . S
C1465 C1463 1.327 . S
C1465 C1481 1.429 . S
C1465 H1487 0.950 . S
C1466 H1462 0.949 . S
C1466 C1474 1.574 . S
C1466 C1482 1.368 . S
H1467 C1475 0.950 . S
H1468 C1473 0.950 . S
H1469 C1474 0.949 . S
H1470 C1476 0.950 . S
H1471 C1477 0.950 . S
H1472 C1478 0.949 . S
C1473 H1468 0.950 . S
C1473 C1475 1.327 . S
C1473 C1479 1.429 . S
C1474 C1466 1.574 . S
C1474 H1469 0.949 . S
C1474 C1480 1.368 . S
C1475 C1459 1.349 . S
C1475 H1467 0.950 . S
C1475 C1473 1.327 . S
C1476 C1464 1.349 . S
C1476 H1470 0.950 . S
C1476 C1477 1.327 . S
C1477 H1471 0.950 . S
C1477 C1476 1.327 . S
C1477 C1481 1.429 . S
C1478 C1461 1.574 . S
C1478 H1472 0.949 . S
C1478 C1482 1.368 . S
C1479 C1460 1.429 . S
C1479 C1473 1.429 . S
C1479 C1480 1.523 . S
C1480 C1461 1.368 . S
C1480 C1474 1.368 . S
C1480 C1479 1.523 . S
C1481 C1465 1.429 . S
C1481 C1477 1.429 . S
C1481 C1482 1.523 . S
C1482 C1466 1.368 . S
C1482 C1478 1.368 . S
C1482 C1481 1.523 . S
H1483 C1458 0.950 . S
H1484 C1460 0.950 . S
H1485 C1461 0.949 . S
H1486 C1463 0.950 . S
H1487 C1465 0.950 . S
C1488 C1489 1.349 . S
C1488 C1490 1.327 . S
C1488 H1513 0.950 . S
C1489 C1488 1.349 . S
C1489 C1505 1.349 1_565 S
C1490 C1488 1.327 . S
C1490 C1509 1.429 1_565 S
C1490 H1514 0.950 . S
C1491 C1508 1.574 . S
C1491 C1510 1.368 . S
C1491 H1515 0.949 . S
H1492 C1496 0.949 . S
C1493 C1494 1.349 . S
C1493 C1495 1.327 . S
C1493 H1516 0.950 . S
C1494 C1493 1.349 . S
C1494 C1506 1.349 . S
C1495 C1493 1.327 . S
C1495 C1511 1.429 . S
C1495 H1517 0.950 . S
C1496 H1492 0.949 . S
C1496 C1504 1.574 . S
C1496 C1512 1.368 . S
H1497 C1505 0.950 . S
H1498 C1503 0.950 . S
H1499 C1504 0.949 1_565 S
H1500 C1506 0.950 . S
H1501 C1507 0.950 . S
H1502 C1508 0.949 . S
C1503 H1498 0.950 . S
C1503 C1505 1.327 . S
C1503 C1509 1.429 . S
C1504 C1496 1.574 . S
C1504 H1499 0.949 1_545 S
C1504 C1510 1.368 . S
C1505 C1489 1.349 1_545 S
C1505 H1497 0.950 . S
C1505 C1503 1.327 . S
C1506 C1494 1.349 . S
C1506 H1500 0.950 . S
C1506 C1507 1.327 . S
C1507 H1501 0.950 . S
C1507 C1506 1.327 . S
C1507 C1511 1.429 . S
C1508 C1491 1.574 . S
C1508 H1502 0.949 . S
C1508 C1512 1.368 . S
C1509 C1490 1.429 1_545 S
C1509 C1503 1.429 . S
C1509 C1510 1.523 . S
C1510 C1491 1.368 . S
C1510 C1504 1.368 . S
C1510 C1509 1.523 . S
C1511 C1495 1.429 . S
C1511 C1507 1.429 . S
C1511 C1512 1.523 . S
C1512 C1496 1.368 . S
C1512 C1508 1.368 . S
C1512 C1511 1.523 . S
H1513 C1488 0.950 . S
H1514 C1490 0.950 . S
H1515 C1491 0.949 . S
H1516 C1493 0.950 . S
H1517 C1495 0.950 . S
C1518 C1519 1.349 . S
C1518 C1520 1.327 1_655 S
C1518 H1543 0.950 . S
C1519 C1518 1.349 . S
C1519 C1535 1.349 1_655 S
C1520 C1518 1.327 1_455 S
C1520 C1539 1.429 . S
C1520 H1544 0.950 . S
C1521 C1538 1.574 . S
C1521 C1540 1.368 . S
C1521 H1545 0.949 . S
H1522 C1526 0.949 . S
C1523 C1524 1.349 . S
C1523 C1525 1.327 . S
C1523 H1546 0.950 . S
C1524 C1523 1.349 . S
C1524 C1536 1.349 . S
C1525 C1523 1.327 . S
C1525 C1541 1.429 . S
C1525 H1547 0.950 . S
C1526 H1522 0.949 . S
C1526 C1534 1.574 . S
C1526 C1542 1.368 . S
H1527 C1535 0.949 1_655 S
H1528 C1533 0.950 . S
H1529 C1534 0.949 . S
H1530 C1536 0.950 . S
H1531 C1537 0.950 . S
H1532 C1538 0.949 . S
C1533 H1528 0.950 . S
C1533 C1535 1.327 . S
C1533 C1539 1.429 . S
C1534 C1526 1.574 . S
C1534 H1529 0.949 . S
C1534 C1540 1.368 . S
C1535 C1519 1.349 1_455 S
C1535 H1527 0.949 1_455 S
C1535 C1533 1.327 . S
C1536 C1524 1.349 . S
C1536 H1530 0.950 . S
C1536 C1537 1.327 . S
C1537 H1531 0.950 . S
C1537 C1536 1.327 . S
C1537 C1541 1.429 . S
C1538 C1521 1.574 . S
C1538 H1532 0.949 . S
C1538 C1542 1.368 . S
C1539 C1520 1.429 . S
C1539 C1533 1.429 . S
C1539 C1540 1.523 . S
C1540 C1521 1.368 . S
C1540 C1534 1.368 . S
C1540 C1539 1.523 . S
C1541 C1525 1.429 . S
C1541 C1537 1.429 . S
C1541 C1542 1.523 . S
C1542 C1526 1.368 . S
C1542 C1538 1.368 . S
C1542 C1541 1.523 . S
H1543 C1518 0.950 . S
H1544 C1520 0.950 . S
H1545 C1521 0.949 . S
H1546 C1523 0.950 . S
H1547 C1525 0.950 . S
C1548 C1549 1.349 . S
C1548 C1550 1.327 . S
C1548 H1573 0.950 . S
C1549 C1548 1.349 . S
C1549 C1565 1.349 . S
C1550 C1548 1.327 . S
C1550 C1569 1.429 . S
C1550 H1574 0.950 . S
C1551 C1568 1.574 1_554 S
C1551 C1570 1.368 . S
C1551 H1575 0.972 . S
H1552 C1556 0.949 . S
C1553 C1554 1.349 . S
C1553 C1555 1.327 . S
C1553 H1576 0.950 1_455 S
C1554 C1553 1.349 . S
C1554 C1566 1.349 . S
C1555 C1553 1.327 . S
C1555 C1571 1.429 . S
C1555 H1577 0.919 1_455 S
C1556 H1552 0.949 . S
C1556 C1564 1.574 1_556 S
C1556 C1572 1.368 . S
H1557 C1565 0.950 . S
H1558 C1563 0.950 . S
H1559 C1564 0.949 . S
H1560 C1566 0.950 . S
H1561 C1567 0.950 . S
H1562 C1568 0.939 1_655 S
C1563 H1558 0.950 . S
C1563 C1565 1.327 . S
C1563 C1569 1.429 . S
C1564 C1556 1.574 1_554 S
C1564 H1559 0.949 . S
C1564 C1570 1.368 . S
C1565 C1549 1.349 . S
C1565 H1557 0.950 . S
C1565 C1563 1.327 . S
C1566 C1554 1.349 . S
C1566 H1560 0.950 . S
C1566 C1567 1.327 . S
C1567 H1561 0.950 . S
C1567 C1566 1.327 . S
C1567 C1571 1.429 . S
C1568 C1551 1.574 1_556 S
C1568 H1562 0.939 1_455 S
C1568 C1572 1.368 . S
C1569 C1550 1.429 . S
C1569 C1563 1.429 . S
C1569 C1570 1.523 . S
C1570 C1551 1.368 . S
C1570 C1564 1.368 . S
C1570 C1569 1.523 . S
C1571 C1555 1.429 . S
C1571 C1567 1.429 . S
C1571 C1572 1.523 . S
C1572 C1556 1.368 . S
C1572 C1568 1.368 . S
C1572 C1571 1.523 . S
H1573 C1548 0.950 . S
H1574 C1550 0.950 . S
H1575 C1551 0.972 . S
H1576 C1553 0.950 1_655 S
H1577 C1555 0.919 1_655 S
C1578 C1579 1.349 . S
C1578 C1580 1.327 . S
C1578 H1603 0.950 . S
C1579 C1578 1.349 . S
C1579 C1595 1.349 . S
C1580 C1578 1.327 . S
C1580 C1599 1.429 . S
C1580 H1604 0.950 . S
C1581 C1598 1.574 1_556 S
C1581 C1600 1.368 . S
C1581 H1605 0.949 . S
H1582 C1586 0.949 . S
C1583 C1584 1.349 . S
C1583 C1585 1.327 . S
C1583 H1606 0.950 . S
C1584 C1583 1.349 . S
C1584 C1596 1.349 . S
C1585 C1583 1.327 . S
C1585 C1601 1.429 . S
C1585 H1607 0.950 . S
C1586 H1582 0.949 . S
C1586 C1594 1.574 1_554 S
C1586 C1602 1.368 . S
H1587 C1595 0.950 . S
H1588 C1593 0.950 . S
H1589 C1594 0.949 . S
H1590 C1596 0.950 . S
H1591 C1597 0.950 . S
H1592 C1598 0.949 . S
C1593 H1588 0.950 . S
C1593 C1595 1.327 . S
C1593 C1599 1.429 . S
C1594 C1586 1.574 1_556 S
C1594 H1589 0.949 . S
C1594 C1600 1.368 . S
C1595 C1579 1.349 . S
C1595 H1587 0.950 . S
C1595 C1593 1.327 . S
C1596 C1584 1.349 . S
C1596 H1590 0.950 . S
C1596 C1597 1.327 . S
C1597 H1591 0.950 . S
C1597 C1596 1.327 . S
C1597 C1601 1.429 . S
C1598 C1581 1.574 1_554 S
C1598 H1592 0.949 . S
C1598 C1602 1.368 . S
C1599 C1580 1.429 . S
C1599 C1593 1.429 . S
C1599 C1600 1.523 . S
C1600 C1581 1.368 . S
C1600 C1594 1.368 . S
C1600 C1599 1.523 . S
C1601 C1585 1.429 . S
C1601 C1597 1.429 . S
C1601 C1602 1.523 . S
C1602 C1586 1.368 . S
C1602 C1598 1.368 . S
C1602 C1601 1.523 . S
H1603 C1578 0.950 . S
H1604 C1580 0.950 . S
H1605 C1581 0.949 . S
H1606 C1583 0.950 . S
H1607 C1585 0.950 . S
C1608 C1609 1.349 . S
C1608 C1610 1.327 . S
C1608 H1633 0.950 . S
C1609 C1608 1.349 . S
C1609 C1625 1.349 . S
C1610 C1608 1.327 . S
C1610 C1629 1.429 . S
C1610 H1634 0.950 . S
C1611 C1628 1.574 1_556 S
C1611 C1630 1.368 . S
C1611 H1635 0.949 . S
H1612 C1616 0.949 . S
C1613 C1614 1.349 . S
C1613 C1615 1.327 . S
C1613 H1636 0.950 . S
C1614 C1613 1.349 . S
C1614 C1626 1.349 . S
C1615 C1613 1.327 . S
C1615 C1631 1.429 . S
C1615 H1637 0.950 . S
C1616 H1612 0.949 . S
C1616 C1624 1.574 1_554 S
C1616 C1632 1.368 . S
H1617 C1625 0.950 . S
H1618 C1623 0.950 . S
H1619 C1624 0.949 . S
H1620 C1626 0.950 . S
H1621 C1627 0.950 . S
H1622 C1628 0.949 . S
C1623 H1618 0.950 . S
C1623 C1625 1.327 . S
C1623 C1629 1.429 . S
C1624 C1616 1.574 1_556 S
C1624 H1619 0.949 . S
C1624 C1630 1.368 . S
C1625 C1609 1.349 . S
C1625 H1617 0.950 . S
C1625 C1623 1.327 . S
C1626 C1614 1.349 . S
C1626 H1620 0.950 . S
C1626 C1627 1.327 . S
C1627 H1621 0.950 . S
C1627 C1626 1.327 . S
C1627 C1631 1.429 . S
C1628 C1611 1.574 1_554 S
C1628 H1622 0.949 . S
C1628 C1632 1.368 . S
C1629 C1610 1.429 . S
C1629 C1623 1.429 . S
C1629 C1630 1.523 . S
C1630 C1611 1.368 . S
C1630 C1624 1.368 . S
C1630 C1629 1.523 . S
C1631 C1615 1.429 . S
C1631 C1627 1.429 . S
C1631 C1632 1.523 . S
C1632 C1616 1.368 . S
C1632 C1628 1.368 . S
C1632 C1631 1.523 . S
H1633 C1608 0.950 . S
H1634 C1610 0.950 . S
H1635 C1611 0.949 . S
H1636 C1613 0.950 . S
H1637 C1615 0.950 . S
C1638 C1639 1.349 . S
C1638 C1640 1.327 . S
C1638 H1663 0.950 . S
C1639 C1638 1.349 . S
C1639 C1655 1.349 . S
C1640 C1638 1.327 . S
C1640 C1659 1.429 . S
C1640 H1664 0.950 . S
C1641 C1658 1.574 1_556 S
C1641 C1660 1.368 . S
C1641 H1665 0.949 . S
H1642 C1646 0.949 . S
C1643 C1644 1.349 . S
C1643 C1645 1.327 . S
C1643 H1666 0.950 . S
C1644 C1643 1.349 . S
C1644 C1656 1.349 . S
C1645 C1643 1.327 . S
C1645 C1661 1.429 . S
C1645 H1667 0.950 . S
C1646 H1642 0.949 . S
C1646 C1654 1.574 1_554 S
C1646 C1662 1.368 . S
H1647 C1655 0.950 . S
H1648 C1653 0.950 . S
H1649 C1654 0.949 . S
H1650 C1656 0.950 . S
H1651 C1657 0.950 . S
H1652 C1658 0.949 . S
C1653 H1648 0.950 . S
C1653 C1655 1.327 . S
C1653 C1659 1.429 . S
C1654 C1646 1.574 1_556 S
C1654 H1649 0.949 . S
C1654 C1660 1.368 . S
C1655 C1639 1.349 . S
C1655 H1647 0.950 . S
C1655 C1653 1.327 . S
C1656 C1644 1.349 . S
C1656 H1650 0.950 . S
C1656 C1657 1.327 . S
C1657 H1651 0.950 . S
C1657 C1656 1.327 . S
C1657 C1661 1.429 . S
C1658 C1641 1.574 1_554 S
C1658 H1652 0.949 . S
C1658 C1662 1.368 . S
C1659 C1640 1.429 . S
C1659 C1653 1.429 . S
C1659 C1660 1.523 . S
C1660 C1641 1.368 . S
C1660 C1654 1.368 . S
C1660 C1659 1.523 . S
C1661 C1645 1.429 . S
C1661 C1657 1.429 . S
C1661 C1662 1.523 . S
C1662 C1646 1.368 . S
C1662 C1658 1.368 . S
C1662 C1661 1.523 . S
H1663 C1638 0.950 . S
H1664 C1640 0.950 . S
H1665 C1641 0.949 . S
H1666 C1643 0.950 . S
H1667 C1645 0.950 . S
C1668 C1669 1.349 . S
C1668 C1670 1.327 . S
C1668 H1693 0.950 . S
C1669 C1668 1.349 . S
C1669 C1685 1.349 . S
C1670 C1668 1.327 . S
C1670 C1689 1.429 . S
C1670 H1694 0.950 . S
C1671 C1688 1.574 1_554 S
C1671 C1690 1.368 . S
C1671 H1695 0.949 . S
H1672 C1676 0.949 . S
C1673 C1674 1.349 . S
C1673 C1675 1.327 . S
C1673 H1696 0.950 . S
C1674 C1673 1.349 . S
C1674 C1686 1.349 . S
C1675 C1673 1.327 . S
C1675 C1691 1.429 . S
C1675 H1697 0.950 . S
C1676 H1672 0.949 . S
C1676 C1684 1.574 1_556 S
C1676 C1692 1.368 . S
H1677 C1685 0.950 . S
H1678 C1683 0.950 . S
H1679 C1684 0.949 . S
H1680 C1686 0.950 . S
H1681 C1687 0.950 . S
H1682 C1688 0.949 . S
C1683 H1678 0.950 . S
C1683 C1685 1.327 . S
C1683 C1689 1.429 . S
C1684 C1676 1.574 1_554 S
C1684 H1679 0.949 . S
C1684 C1690 1.368 . S
C1685 C1669 1.349 . S
C1685 H1677 0.950 . S
C1685 C1683 1.327 . S
C1686 C1674 1.349 . S
C1686 H1680 0.950 . S
C1686 C1687 1.327 . S
C1687 H1681 0.950 . S
C1687 C1686 1.327 . S
C1687 C1691 1.429 . S
C1688 C1671 1.574 1_556 S
C1688 H1682 0.949 . S
C1688 C1692 1.368 . S
C1689 C1670 1.429 . S
C1689 C1683 1.429 . S
C1689 C1690 1.523 . S
C1690 C1671 1.368 . S
C1690 C1684 1.368 . S
C1690 C1689 1.523 . S
C1691 C1675 1.429 . S
C1691 C1687 1.429 . S
C1691 C1692 1.523 . S
C1692 C1676 1.368 . S
C1692 C1688 1.368 . S
C1692 C1691 1.523 . S
H1693 C1668 0.950 . S
H1694 C1670 0.950 . S
H1695 C1671 0.949 . S
H1696 C1673 0.950 . S
H1697 C1675 0.950 . S
C1698 C1699 1.349 . S
C1698 C1700 1.327 . S
C1698 H1723 0.950 . S
C1699 C1698 1.349 . S
C1699 C1715 1.349 . S
C1700 C1698 1.327 . S
C1700 C1719 1.429 . S
C1700 H1724 0.950 . S
C1701 C1718 1.574 1_556 S
C1701 C1720 1.368 . S
C1701 H1725 0.949 . S
H1702 C1706 0.949 . S
C1703 C1704 1.349 . S
C1703 C1705 1.327 . S
C1703 H1726 0.950 . S
C1704 C1703 1.349 . S
C1704 C1716 1.349 . S
C1705 C1703 1.327 . S
C1705 C1721 1.429 . S
C1705 H1727 0.950 . S
C1706 H1702 0.949 . S
C1706 C1714 1.574 1_554 S
C1706 C1722 1.368 . S
H1707 C1715 0.950 . S
H1708 C1713 0.950 . S
H1709 C1714 0.949 . S
H1710 C1716 0.950 . S
H1711 C1717 0.950 . S
H1712 C1718 0.949 . S
C1713 H1708 0.950 . S
C1713 C1715 1.327 . S
C1713 C1719 1.429 . S
C1714 C1706 1.574 1_556 S
C1714 H1709 0.949 . S
C1714 C1720 1.368 . S
C1715 C1699 1.349 . S
C1715 H1707 0.950 . S
C1715 C1713 1.327 . S
C1716 C1704 1.349 . S
C1716 H1710 0.950 . S
C1716 C1717 1.327 . S
C1717 H1711 0.950 . S
C1717 C1716 1.327 . S
C1717 C1721 1.429 . S
C1718 C1701 1.574 1_554 S
C1718 H1712 0.949 . S
C1718 C1722 1.368 . S
C1719 C1700 1.429 . S
C1719 C1713 1.429 . S
C1719 C1720 1.523 . S
C1720 C1701 1.368 . S
C1720 C1714 1.368 . S
C1720 C1719 1.523 . S
C1721 C1705 1.429 . S
C1721 C1717 1.429 . S
C1721 C1722 1.523 . S
C1722 C1706 1.368 . S
C1722 C1718 1.368 . S
C1722 C1721 1.523 . S
H1723 C1698 0.950 . S
H1724 C1700 0.950 . S
H1725 C1701 0.949 . S
H1726 C1703 0.950 . S
H1727 C1705 0.950 . S
C1728 C1729 1.349 . S
C1728 C1730 1.327 . S
C1728 H1753 0.950 . S
C1729 C1728 1.349 . S
C1729 C1745 1.349 . S
C1730 C1728 1.327 . S
C1730 C1749 1.429 . S
C1730 H1754 0.950 . S
C1731 C1748 1.574 . S
C1731 C1750 1.368 . S
C1731 H1755 0.949 . S
H1732 C1736 0.949 . S
C1733 C1734 1.349 . S
C1733 C1735 1.327 . S
C1733 H1756 0.950 . S
C1734 C1733 1.349 . S
C1734 C1746 1.349 . S
C1735 C1733 1.327 . S
C1735 C1751 1.429 . S
C1735 H1757 0.950 . S
C1736 H1732 0.949 . S
C1736 C1744 1.574 . S
C1736 C1752 1.368 . S
H1737 C1745 0.950 . S
H1738 C1743 0.950 . S
H1739 C1744 0.949 . S
H1740 C1746 0.950 . S
H1741 C1747 0.950 . S
H1742 C1748 0.949 . S
C1743 H1738 0.950 . S
C1743 C1745 1.327 . S
C1743 C1749 1.429 . S
C1744 C1736 1.574 . S
C1744 H1739 0.949 . S
C1744 C1750 1.368 . S
C1745 C1729 1.349 . S
C1745 H1737 0.950 . S
C1745 C1743 1.327 . S
C1746 C1734 1.349 . S
C1746 H1740 0.950 . S
C1746 C1747 1.327 . S
C1747 H1741 0.950 . S
C1747 C1746 1.327 . S
C1747 C1751 1.429 . S
C1748 C1731 1.574 . S
C1748 H1742 0.949 . S
C1748 C1752 1.368 . S
C1749 C1730 1.429 . S
C1749 C1743 1.429 . S
C1749 C1750 1.523 . S
C1750 C1731 1.368 . S
C1750 C1744 1.368 . S
C1750 C1749 1.523 . S
C1751 C1735 1.429 . S
C1751 C1747 1.429 . S
C1751 C1752 1.523 . S
C1752 C1736 1.368 . S
C1752 C1748 1.368 . S
C1752 C1751 1.523 . S
H1753 C1728 0.950 . S
H1754 C1730 0.950 . S
H1755 C1731 0.949 . S
H1756 C1733 0.950 . S
H1757 C1735 0.950 . S
C1758 C1759 1.349 . S
C1758 C1760 1.327 . S
C1758 H1783 0.950 . S
C1759 C1758 1.349 . S
C1759 C1775 1.349 . S
C1760 C1758 1.327 . S
C1760 C1779 1.429 . S
C1760 H1784 0.950 . S
C1761 C1778 1.574 . S
C1761 C1780 1.368 . S
C1761 H1785 0.949 . S
H1762 C1766 0.949 . S
C1763 C1764 1.349 . S
C1763 C1765 1.327 . S
C1763 H1786 0.950 . S
C1764 C1763 1.349 . S
C1764 C1776 1.349 . S
C1765 C1763 1.327 . S
C1765 C1781 1.429 . S
C1765 H1787 0.950 . S
C1766 H1762 0.949 . S
C1766 C1774 1.574 . S
C1766 C1782 1.368 . S
H1767 C1775 0.950 . S
H1768 C1773 0.950 . S
H1769 C1774 0.949 . S
H1770 C1776 0.950 . S
H1771 C1777 0.950 . S
H1772 C1778 0.949 . S
C1773 H1768 0.950 . S
C1773 C1775 1.327 . S
C1773 C1779 1.429 . S
C1774 C1766 1.574 . S
C1774 H1769 0.949 . S
C1774 C1780 1.368 . S
C1775 C1759 1.349 . S
C1775 H1767 0.950 . S
C1775 C1773 1.327 . S
C1776 C1764 1.349 . S
C1776 H1770 0.950 . S
C1776 C1777 1.327 . S
C1777 H1771 0.950 . S
C1777 C1776 1.327 . S
C1777 C1781 1.429 . S
C1778 C1761 1.574 . S
C1778 H1772 0.949 . S
C1778 C1782 1.368 . S
C1779 C1760 1.429 . S
C1779 C1773 1.429 . S
C1779 C1780 1.523 . S
C1780 C1761 1.368 . S
C1780 C1774 1.368 . S
C1780 C1779 1.523 . S
C1781 C1765 1.429 . S
C1781 C1777 1.429 . S
C1781 C1782 1.523 . S
C1782 C1766 1.368 . S
C1782 C1778 1.368 . S
C1782 C1781 1.523 . S
H1783 C1758 0.950 . S
H1784 C1760 0.950 . S
H1785 C1761 0.949 . S
H1786 C1763 0.950 . S
H1787 C1765 0.950 . S
C1788 C1789 1.349 . S
C1788 C1790 1.327 . S
C1788 H1813 0.950 . S
C1789 C1788 1.349 . S
C1789 C1805 1.349 . S
C1790 C1788 1.327 . S
C1790 C1809 1.429 . S
C1790 H1814 0.950 . S
C1791 C1808 1.574 . S
C1791 C1810 1.368 . S
C1791 H1815 0.949 . S
H1792 C1796 0.949 1_455 S
C1793 C1794 1.349 . S
C1793 C1795 1.327 . S
C1793 H1816 0.950 . S
C1794 C1793 1.349 . S
C1794 C1806 1.349 . S
C1795 C1793 1.327 . S
C1795 C1811 1.429 . S
C1795 H1817 0.950 . S
C1796 H1792 0.949 1_655 S
C1796 C1804 1.574 . S
C1796 C1812 1.368 . S
H1797 C1805 0.950 . S
H1798 C1803 0.950 . S
H1799 C1804 0.938 1_455 S
H1800 C1806 0.950 1_455 S
H1801 C1807 0.950 1_455 S
H1802 C1808 0.949 . S
C1803 H1798 0.950 . S
C1803 C1805 1.327 . S
C1803 C1809 1.429 . S
C1804 C1796 1.574 . S
C1804 H1799 0.938 1_655 S
C1804 C1810 1.368 . S
C1805 C1789 1.349 . S
C1805 H1797 0.950 . S
C1805 C1803 1.327 . S
C1806 C1794 1.349 . S
C1806 H1800 0.950 1_655 S
C1806 C1807 1.327 . S
C1807 H1801 0.950 1_655 S
C1807 C1806 1.327 . S
C1807 C1811 1.429 . S
C1808 C1791 1.574 . S
C1808 H1802 0.949 . S
C1808 C1812 1.368 . S
C1809 C1790 1.429 . S
C1809 C1803 1.429 . S
C1809 C1810 1.523 . S
C1810 C1791 1.368 . S
C1810 C1804 1.368 . S
C1810 C1809 1.523 . S
C1811 C1795 1.429 . S
C1811 C1807 1.429 . S
C1811 C1812 1.523 . S
C1812 C1796 1.368 . S
C1812 C1808 1.368 . S
C1812 C1811 1.523 . S
H1813 C1788 0.950 . S
H1814 C1790 0.950 . S
H1815 C1791 0.949 . S
H1816 C1793 0.950 . S
H1817 C1795 0.950 . S
C1818 C1819 1.349 . S
C1818 C1820 1.327 . S
C1818 H1843 0.950 . S
C1819 C1818 1.349 . S
C1819 C1835 1.349 . S
C1820 C1818 1.327 . S
C1820 C1839 1.429 . S
C1820 H1844 0.950 . S
C1821 C1838 1.574 . S
C1821 C1840 1.368 . S
C1821 H1845 0.949 . S
H1822 C1826 0.949 . S
C1823 C1824 1.349 . S
C1823 C1825 1.327 . S
C1823 H1846 0.950 . S
C1824 C1823 1.349 . S
C1824 C1836 1.349 . S
C1825 C1823 1.327 . S
C1825 C1841 1.429 . S
C1825 H1847 0.950 . S
C1826 H1822 0.949 . S
C1826 C1834 1.574 . S
C1826 C1842 1.368 . S
H1827 C1835 0.950 . S
H1828 C1833 0.950 . S
H1829 C1834 0.949 . S
H1830 C1836 0.950 . S
H1831 C1837 0.950 . S
H1832 C1838 0.949 . S
C1833 H1828 0.950 . S
C1833 C1835 1.327 . S
C1833 C1839 1.429 . S
C1834 C1826 1.574 . S
C1834 H1829 0.949 . S
C1834 C1840 1.368 . S
C1835 C1819 1.349 . S
C1835 H1827 0.950 . S
C1835 C1833 1.327 . S
C1836 C1824 1.349 . S
C1836 H1830 0.950 . S
C1836 C1837 1.327 . S
C1837 H1831 0.950 . S
C1837 C1836 1.327 . S
C1837 C1841 1.429 . S
C1838 C1821 1.574 . S
C1838 H1832 0.949 . S
C1838 C1842 1.368 . S
C1839 C1820 1.429 . S
C1839 C1833 1.429 . S
C1839 C1840 1.523 . S
C1840 C1821 1.368 . S
C1840 C1834 1.368 . S
C1840 C1839 1.523 . S
C1841 C1825 1.429 . S
C1841 C1837 1.429 . S
C1841 C1842 1.523 . S
C1842 C1826 1.368 . S
C1842 C1838 1.368 . S
C1842 C1841 1.523 . S
H1843 C1818 0.950 . S
H1844 C1820 0.950 . S
H1845 C1821 0.949 . S
H1846 C1823 0.950 . S
H1847 C1825 0.950 . S
C1848 C1849 1.349 . S
C1848 C1850 1.327 . S
C1848 H1873 0.950 . S
C1849 C1848 1.349 . S
C1849 C1865 1.349 . S
C1850 C1848 1.327 . S
C1850 C1869 1.429 . S
C1850 H1874 0.950 1_655 S
C1851 C1868 1.574 . S
C1851 C1870 1.368 . S
C1851 H1875 0.949 . S
H1852 C1856 0.949 1_455 S
C1853 C1854 1.349 . S
C1853 C1855 1.327 . S
C1853 H1876 0.950 . S
C1854 C1853 1.349 . S
C1854 C1866 1.349 . S
C1855 C1853 1.327 . S
C1855 C1871 1.429 . S
C1855 H1877 0.950 . S
C1856 H1852 0.949 1_655 S
C1856 C1864 1.574 . S
C1856 C1872 1.368 . S
H1857 C1865 0.950 . S
H1858 C1863 0.950 . S
H1859 C1864 0.949 1_455 S
H1860 C1866 0.950 1_455 S
H1861 C1867 0.950 1_455 S
H1862 C1868 0.949 . S
C1863 H1858 0.950 . S
C1863 C1865 1.327 . S
C1863 C1869 1.429 . S
C1864 C1856 1.574 . S
C1864 H1859 0.949 1_655 S
C1864 C1870 1.368 . S
C1865 C1849 1.349 . S
C1865 H1857 0.950 . S
C1865 C1863 1.327 . S
C1866 C1854 1.349 . S
C1866 H1860 0.950 1_655 S
C1866 C1867 1.327 . S
C1867 H1861 0.950 1_655 S
C1867 C1866 1.327 . S
C1867 C1871 1.429 . S
C1868 C1851 1.574 . S
C1868 H1862 0.949 . S
C1868 C1872 1.368 . S
C1869 C1850 1.429 . S
C1869 C1863 1.429 . S
C1869 C1870 1.523 . S
C1870 C1851 1.368 . S
C1870 C1864 1.368 . S
C1870 C1869 1.523 . S
C1871 C1855 1.429 . S
C1871 C1867 1.429 . S
C1871 C1872 1.523 . S
C1872 C1856 1.368 . S
C1872 C1868 1.368 . S
C1872 C1871 1.523 . S
H1873 C1848 0.950 . S
H1874 C1850 0.950 1_455 S
H1875 C1851 0.949 . S
H1876 C1853 0.950 . S
H1877 C1855 0.950 . S
C1878 C1879 1.349 . S
C1878 C1880 1.327 . S
C1878 H1903 0.950 . S
C1879 C1878 1.349 . S
C1879 C1895 1.349 . S
C1880 C1878 1.327 . S
C1880 C1899 1.429 . S
C1880 H1904 0.950 . S
C1881 C1898 1.574 . S
C1881 C1900 1.368 . S
C1881 H1905 0.949 . S
H1882 C1886 0.949 . S
C1883 C1884 1.349 . S
C1883 C1885 1.327 . S
C1883 H1906 0.950 . S
C1884 C1883 1.349 . S
C1884 C1896 1.349 . S
C1885 C1883 1.327 . S
C1885 C1901 1.429 . S
C1885 H1907 0.950 . S
C1886 H1882 0.949 . S
C1886 C1894 1.574 . S
C1886 C1902 1.368 . S
H1887 C1895 0.950 . S
H1888 C1893 0.950 . S
H1889 C1894 0.949 . S
H1890 C1896 0.950 . S
H1891 C1897 0.950 . S
H1892 C1898 0.949 . S
C1893 H1888 0.950 . S
C1893 C1895 1.327 . S
C1893 C1899 1.429 . S
C1894 C1886 1.574 . S
C1894 H1889 0.949 . S
C1894 C1900 1.368 . S
C1895 C1879 1.349 . S
C1895 H1887 0.950 . S
C1895 C1893 1.327 . S
C1896 C1884 1.349 . S
C1896 H1890 0.950 . S
C1896 C1897 1.327 . S
C1897 H1891 0.950 . S
C1897 C1896 1.327 . S
C1897 C1901 1.429 . S
C1898 C1881 1.574 . S
C1898 H1892 0.949 . S
C1898 C1902 1.368 . S
C1899 C1880 1.429 . S
C1899 C1893 1.429 . S
C1899 C1900 1.523 . S
C1900 C1881 1.368 . S
C1900 C1894 1.368 . S
C1900 C1899 1.523 . S
C1901 C1885 1.429 . S
C1901 C1897 1.429 . S
C1901 C1902 1.523 . S
C1902 C1886 1.368 . S
C1902 C1898 1.368 . S
C1902 C1901 1.523 . S
H1903 C1878 0.950 . S
H1904 C1880 0.950 . S
H1905 C1881 0.949 . S
H1906 C1883 0.950 . S
H1907 C1885 0.950 . S
C1908 C1909 1.349 . S
C1908 C1910 1.327 . S
C1908 H1933 0.960 . S
C1909 C1908 1.349 . S
C1909 C1925 1.349 . S
C1910 C1908 1.327 . S
C1910 C1929 1.429 . S
C1910 H1934 0.955 . S
C1911 C1928 1.574 . S
C1911 C1930 1.368 . S
C1911 H1935 0.949 . S
H1912 C1916 0.949 . S
C1913 C1914 1.349 . S
C1913 C1915 1.327 . S
C1913 H1936 0.950 . S
C1914 C1913 1.349 . S
C1914 C1926 1.349 . S
C1915 C1913 1.327 . S
C1915 C1931 1.429 . S
C1915 H1937 0.950 . S
C1916 H1912 0.949 . S
C1916 C1924 1.574 . S
C1916 C1932 1.368 . S
H1917 C1925 0.950 . S
H1918 C1923 0.950 . S
H1919 C1924 0.960 . S
H1920 C1926 0.950 . S
H1921 C1927 0.950 . S
H1922 C1928 0.949 . S
C1923 H1918 0.950 . S
C1923 C1925 1.327 . S
C1923 C1929 1.429 . S
C1924 C1916 1.574 . S
C1924 H1919 0.960 . S
C1924 C1930 1.368 . S
C1925 C1909 1.349 . S
C1925 H1917 0.950 . S
C1925 C1923 1.327 . S
C1926 C1914 1.349 . S
C1926 H1920 0.950 . S
C1926 C1927 1.327 . S
C1927 H1921 0.950 . S
C1927 C1926 1.327 . S
C1927 C1931 1.429 . S
C1928 C1911 1.574 . S
C1928 H1922 0.949 . S
C1928 C1932 1.368 . S
C1929 C1910 1.429 . S
C1929 C1923 1.429 . S
C1929 C1930 1.523 . S
C1930 C1911 1.368 . S
C1930 C1924 1.368 . S
C1930 C1929 1.523 . S
C1931 C1915 1.429 . S
C1931 C1927 1.429 . S
C1931 C1932 1.523 . S
C1932 C1916 1.368 . S
C1932 C1928 1.368 . S
C1932 C1931 1.523 . S
H1933 C1908 0.960 . S
H1934 C1910 0.955 . S
H1935 C1911 0.949 . S
H1936 C1913 0.950 . S
H1937 C1915 0.950 . S
C1938 C1939 1.349 . S
C1938 C1940 1.327 . S
C1938 H1963 0.950 . S
C1939 C1938 1.349 . S
C1939 C1955 1.349 . S
C1940 C1938 1.327 . S
C1940 C1959 1.429 . S
C1940 H1964 0.950 . S
C1941 C1958 1.574 . S
C1941 C1960 1.368 . S
C1941 H1965 0.949 . S
H1942 C1946 0.949 . S
C1943 C1944 1.349 . S
C1943 C1945 1.327 . S
C1943 H1966 0.950 . S
C1944 C1943 1.349 . S
C1944 C1956 1.349 . S
C1945 C1943 1.327 . S
C1945 C1961 1.429 . S
C1945 H1967 0.950 . S
C1946 H1942 0.949 . S
C1946 C1954 1.574 . S
C1946 C1962 1.368 . S
H1947 C1955 0.950 . S
H1948 C1953 0.950 . S
H1949 C1954 0.949 . S
H1950 C1956 0.950 . S
H1951 C1957 0.950 . S
H1952 C1958 0.949 . S
C1953 H1948 0.950 . S
C1953 C1955 1.327 . S
C1953 C1959 1.429 . S
C1954 C1946 1.574 . S
C1954 H1949 0.949 . S
C1954 C1960 1.368 . S
C1955 C1939 1.349 . S
C1955 H1947 0.950 . S
C1955 C1953 1.327 . S
C1956 C1944 1.349 . S
C1956 H1950 0.950 . S
C1956 C1957 1.327 . S
C1957 H1951 0.950 . S
C1957 C1956 1.327 . S
C1957 C1961 1.429 . S
C1958 C1941 1.574 . S
C1958 H1952 0.949 . S
C1958 C1962 1.368 . S
C1959 C1940 1.429 . S
C1959 C1953 1.429 . S
C1959 C1960 1.523 . S
C1960 C1941 1.368 . S
C1960 C1954 1.368 . S
C1960 C1959 1.523 . S
C1961 C1945 1.429 . S
C1961 C1957 1.429 . S
C1961 C1962 1.523 . S
C1962 C1946 1.368 . S
C1962 C1958 1.368 . S
C1962 C1961 1.523 . S
H1963 C1938 0.950 . S
H1964 C1940 0.950 . S
H1965 C1941 0.949 . S
H1966 C1943 0.950 . S
H1967 C1945 0.950 . S
C1968 C1969 1.349 . S
C1968 C1970 1.327 . S
C1968 H1993 0.950 . S
C1969 C1968 1.349 . S
C1969 C1985 1.349 . S
C1970 C1968 1.327 . S
C1970 C1989 1.429 . S
C1970 H1994 0.950 . S
C1971 C1988 1.574 . S
C1971 C1990 1.368 . S
C1971 H1995 0.949 . S
H1972 C1976 0.949 . S
C1973 C1974 1.349 . S
C1973 C1975 1.327 . S
C1973 H1996 0.950 . S
C1974 C1973 1.349 . S
C1974 C1986 1.349 . S
C1975 C1973 1.327 . S
C1975 C1991 1.429 . S
C1975 H1997 0.950 . S
C1976 H1972 0.949 . S
C1976 C1984 1.574 . S
C1976 C1992 1.368 . S
H1977 C1985 0.950 . S
H1978 C1983 0.950 . S
H1979 C1984 0.949 . S
H1980 C1986 0.950 . S
H1981 C1987 0.950 . S
H1982 C1988 0.949 . S
C1983 H1978 0.950 . S
C1983 C1985 1.327 . S
C1983 C1989 1.429 . S
C1984 C1976 1.574 . S
C1984 H1979 0.949 . S
C1984 C1990 1.368 . S
C1985 C1969 1.349 . S
C1985 H1977 0.950 . S
C1985 C1983 1.327 . S
C1986 C1974 1.349 . S
C1986 H1980 0.950 . S
C1986 C1987 1.327 . S
C1987 H1981 0.950 . S
C1987 C1986 1.327 . S
C1987 C1991 1.429 . S
C1988 C1971 1.574 . S
C1988 H1982 0.949 . S
C1988 C1992 1.368 . S
C1989 C1970 1.429 . S
C1989 C1983 1.429 . S
C1989 C1990 1.523 . S
C1990 C1971 1.368 . S
C1990 C1984 1.368 . S
C1990 C1989 1.523 . S
C1991 C1975 1.429 . S
C1991 C1987 1.429 . S
C1991 C1992 1.523 . S
C1992 C1976 1.368 . S
C1992 C1988 1.368 . S
C1992 C1991 1.523 . S
H1993 C1968 0.950 . S
H1994 C1970 0.950 . S
H1995 C1971 0.949 . S
H1996 C1973 0.950 . S
H1997 C1975 0.950 . S
C1998 C1999 1.349 . S
C1998 C2000 1.327 . S
C1998 H2023 0.950 . S
C1999 C1998 1.349 . S
C1999 C2015 1.349 . S
C2000 C1998 1.327 . S
C2000 C2019 1.429 . S
C2000 H2024 0.950 . S
C2001 C2018 1.574 . S
C2001 C2020 1.368 . S
C2001 H2025 0.949 . S
H2002 C2006 0.949 . S
C2003 C2004 1.349 . S
C2003 C2005 1.327 . S
C2003 H2026 0.950 . S
C2004 C2003 1.349 . S
C2004 C2016 1.349 . S
C2005 C2003 1.327 . S
C2005 C2021 1.429 . S
C2005 H2027 0.950 . S
C2006 H2002 0.949 . S
C2006 C2014 1.574 . S
C2006 C2022 1.368 . S
H2007 C2015 0.950 . S
H2008 C2013 0.950 . S
H2009 C2014 0.949 . S
H2010 C2016 0.950 . S
H2011 C2017 0.950 . S
H2012 C2018 0.949 . S
C2013 H2008 0.950 . S
C2013 C2015 1.327 . S
C2013 C2019 1.429 . S
C2014 C2006 1.574 . S
C2014 H2009 0.949 . S
C2014 C2020 1.368 . S
C2015 C1999 1.349 . S
C2015 H2007 0.950 . S
C2015 C2013 1.327 . S
C2016 C2004 1.349 . S
C2016 H2010 0.950 . S
C2016 C2017 1.327 . S
C2017 H2011 0.950 . S
C2017 C2016 1.327 . S
C2017 C2021 1.429 . S
C2018 C2001 1.574 . S
C2018 H2012 0.949 . S
C2018 C2022 1.368 . S
C2019 C2000 1.429 . S
C2019 C2013 1.429 . S
C2019 C2020 1.523 . S
C2020 C2001 1.368 . S
C2020 C2014 1.368 . S
C2020 C2019 1.523 . S
C2021 C2005 1.429 . S
C2021 C2017 1.429 . S
C2021 C2022 1.523 . S
C2022 C2006 1.368 . S
C2022 C2018 1.368 . S
C2022 C2021 1.523 . S
H2023 C1998 0.950 . S
H2024 C2000 0.950 . S
H2025 C2001 0.949 . S
H2026 C2003 0.950 . S
H2027 C2005 0.950 . S
C2028 C2029 1.349 . S
C2028 C2030 1.327 . S
C2028 H2053 0.956 . S
C2029 C2028 1.349 . S
C2029 C2045 1.349 . S
C2030 C2028 1.327 . S
C2030 C2049 1.429 . S
C2030 H2054 0.951 . S
C2031 C2048 1.574 . S
C2031 C2050 1.368 . S
C2031 H2055 0.949 . S
H2032 C2036 0.972 . S
C2033 C2034 1.349 . S
C2033 C2035 1.327 . S
C2033 H2056 0.950 . S
C2034 C2033 1.349 . S
C2034 C2046 1.349 . S
C2035 C2033 1.327 . S
C2035 C2051 1.429 . S
C2035 H2057 0.950 . S
C2036 H2032 0.972 . S
C2036 C2044 1.574 . S
C2036 C2052 1.368 . S
H2037 C2045 0.950 . S
H2038 C2043 0.950 . S
H2039 C2044 0.957 . S
H2040 C2046 0.950 . S
H2041 C2047 0.950 . S
H2042 C2048 0.949 . S
C2043 H2038 0.950 . S
C2043 C2045 1.327 . S
C2043 C2049 1.429 . S
C2044 C2036 1.574 . S
C2044 H2039 0.957 . S
C2044 C2050 1.368 . S
C2045 C2029 1.349 . S
C2045 H2037 0.950 . S
C2045 C2043 1.327 . S
C2046 C2034 1.349 . S
C2046 H2040 0.950 . S
C2046 C2047 1.327 . S
C2047 H2041 0.950 . S
C2047 C2046 1.327 . S
C2047 C2051 1.429 . S
C2048 C2031 1.574 . S
C2048 H2042 0.949 . S
C2048 C2052 1.368 . S
C2049 C2030 1.429 . S
C2049 C2043 1.429 . S
C2049 C2050 1.523 . S
C2050 C2031 1.368 . S
C2050 C2044 1.368 . S
C2050 C2049 1.523 . S
C2051 C2035 1.429 . S
C2051 C2047 1.429 . S
C2051 C2052 1.523 . S
C2052 C2036 1.368 . S
C2052 C2048 1.368 . S
C2052 C2051 1.523 . S
H2053 C2028 0.956 . S
H2054 C2030 0.951 . S
H2055 C2031 0.949 . S
H2056 C2033 0.950 . S
H2057 C2035 0.950 . S
C2058 C2059 1.349 . S
C2058 C2060 1.327 . S
C2058 H2083 0.950 . S
C2059 C2058 1.349 . S
C2059 C2075 1.349 . S
C2060 C2058 1.327 . S
C2060 C2079 1.429 . S
C2060 H2084 0.950 . S
C2061 C2078 1.574 . S
C2061 C2080 1.368 . S
C2061 H2085 0.949 . S
H2062 C2066 0.949 . S
C2063 C2064 1.349 . S
C2063 C2065 1.327 . S
C2063 H2086 0.950 . S
C2064 C2063 1.349 . S
C2064 C2076 1.349 . S
C2065 C2063 1.327 . S
C2065 C2081 1.429 . S
C2065 H2087 0.950 . S
C2066 H2062 0.949 . S
C2066 C2074 1.574 . S
C2066 C2082 1.368 . S
H2067 C2075 0.950 . S
H2068 C2073 0.950 . S
H2069 C2074 0.949 . S
H2070 C2076 0.950 . S
H2071 C2077 0.950 . S
H2072 C2078 0.949 . S
C2073 H2068 0.950 . S
C2073 C2075 1.327 . S
C2073 C2079 1.429 . S
C2074 C2066 1.574 . S
C2074 H2069 0.949 . S
C2074 C2080 1.368 . S
C2075 C2059 1.349 . S
C2075 H2067 0.950 . S
C2075 C2073 1.327 . S
C2076 C2064 1.349 . S
C2076 H2070 0.950 . S
C2076 C2077 1.327 . S
C2077 H2071 0.950 . S
C2077 C2076 1.327 . S
C2077 C2081 1.429 . S
C2078 C2061 1.574 . S
C2078 H2072 0.949 . S
C2078 C2082 1.368 . S
C2079 C2060 1.429 . S
C2079 C2073 1.429 . S
C2079 C2080 1.523 . S
C2080 C2061 1.368 . S
C2080 C2074 1.368 . S
C2080 C2079 1.523 . S
C2081 C2065 1.429 . S
C2081 C2077 1.429 . S
C2081 C2082 1.523 . S
C2082 C2066 1.368 . S
C2082 C2078 1.368 . S
C2082 C2081 1.523 . S
H2083 C2058 0.950 . S
H2084 C2060 0.950 . S
H2085 C2061 0.949 . S
H2086 C2063 0.950 . S
H2087 C2065 0.950 . S
C2088 C2089 1.349 . S
C2088 C2090 1.327 . S
C2088 H2113 0.950 . S
C2089 C2088 1.349 . S
C2089 C2105 1.349 . S
C2090 C2088 1.327 . S
C2090 C2109 1.429 . S
C2090 H2114 0.950 . S
C2091 C2108 1.574 . S
C2091 C2110 1.368 . S
C2091 H2115 0.949 . S
H2092 C2096 0.949 . S
C2093 C2094 1.349 . S
C2093 C2095 1.327 . S
C2093 H2116 0.950 . S
C2094 C2093 1.349 . S
C2094 C2106 1.349 . S
C2095 C2093 1.327 . S
C2095 C2111 1.429 . S
C2095 H2117 0.950 . S
C2096 H2092 0.949 . S
C2096 C2104 1.574 . S
C2096 C2112 1.368 . S
H2097 C2105 0.950 . S
H2098 C2103 0.950 . S
H2099 C2104 0.949 . S
H2100 C2106 0.950 . S
H2101 C2107 0.950 . S
H2102 C2108 0.949 . S
C2103 H2098 0.950 . S
C2103 C2105 1.327 . S
C2103 C2109 1.429 . S
C2104 C2096 1.574 . S
C2104 H2099 0.949 . S
C2104 C2110 1.368 . S
C2105 C2089 1.349 . S
C2105 H2097 0.950 . S
C2105 C2103 1.327 . S
C2106 C2094 1.349 . S
C2106 H2100 0.950 . S
C2106 C2107 1.327 . S
C2107 H2101 0.950 . S
C2107 C2106 1.327 . S
C2107 C2111 1.429 . S
C2108 C2091 1.574 . S
C2108 H2102 0.949 . S
C2108 C2112 1.368 . S
C2109 C2090 1.429 . S
C2109 C2103 1.429 . S
C2109 C2110 1.523 . S
C2110 C2091 1.368 . S
C2110 C2104 1.368 . S
C2110 C2109 1.523 . S
C2111 C2095 1.429 . S
C2111 C2107 1.429 . S
C2111 C2112 1.523 . S
C2112 C2096 1.368 . S
C2112 C2108 1.368 . S
C2112 C2111 1.523 . S
H2113 C2088 0.950 . S
H2114 C2090 0.950 . S
H2115 C2091 0.949 . S
H2116 C2093 0.950 . S
H2117 C2095 0.950 . S
C2118 C2119 1.349 . S
C2118 C2120 1.327 . S
C2118 H2143 0.950 . S
C2119 C2118 1.349 . S
C2119 C2135 1.349 . S
C2120 C2118 1.327 . S
C2120 C2139 1.429 . S
C2120 H2144 0.950 . S
C2121 C2138 1.574 . S
C2121 C2140 1.368 . S
C2121 H2145 0.949 . S
H2122 C2126 0.949 . S
C2123 C2124 1.349 . S
C2123 C2125 1.327 . S
C2123 H2146 0.950 . S
C2124 C2123 1.349 . S
C2124 C2136 1.349 . S
C2125 C2123 1.327 . S
C2125 C2141 1.429 . S
C2125 H2147 0.950 . S
C2126 H2122 0.949 . S
C2126 C2134 1.574 . S
C2126 C2142 1.368 . S
H2127 C2135 0.950 . S
H2128 C2133 0.950 . S
H2129 C2134 0.949 . S
H2130 C2136 0.950 . S
H2131 C2137 0.950 . S
H2132 C2138 0.949 . S
C2133 H2128 0.950 . S
C2133 C2135 1.327 . S
C2133 C2139 1.429 . S
C2134 C2126 1.574 . S
C2134 H2129 0.949 . S
C2134 C2140 1.368 . S
C2135 C2119 1.349 . S
C2135 H2127 0.950 . S
C2135 C2133 1.327 . S
C2136 C2124 1.349 . S
C2136 H2130 0.950 . S
C2136 C2137 1.327 . S
C2137 H2131 0.950 . S
C2137 C2136 1.327 . S
C2137 C2141 1.429 . S
C2138 C2121 1.574 . S
C2138 H2132 0.949 . S
C2138 C2142 1.368 . S
C2139 C2120 1.429 . S
C2139 C2133 1.429 . S
C2139 C2140 1.523 . S
C2140 C2121 1.368 . S
C2140 C2134 1.368 . S
C2140 C2139 1.523 . S
C2141 C2125 1.429 . S
C2141 C2137 1.429 . S
C2141 C2142 1.523 . S
C2142 C2126 1.368 . S
C2142 C2138 1.368 . S
C2142 C2141 1.523 . S
H2143 C2118 0.950 . S
H2144 C2120 0.950 . S
H2145 C2121 0.949 . S
H2146 C2123 0.950 . S
H2147 C2125 0.950 . S
C2148 C2149 1.349 . S
C2148 C2150 1.327 . S
C2148 H2173 0.950 . S
C2149 C2148 1.349 . S
C2149 C2165 1.349 . S
C2150 C2148 1.327 . S
C2150 C2169 1.429 . S
C2150 H2174 0.950 . S
C2151 C2168 1.574 . S
C2151 C2170 1.368 . S
C2151 H2175 0.949 . S
H2152 C2156 0.949 . S
C2153 C2154 1.349 . S
C2153 C2155 1.327 . S
C2153 H2176 0.950 . S
C2154 C2153 1.349 . S
C2154 C2166 1.349 . S
C2155 C2153 1.327 . S
C2155 C2171 1.429 . S
C2155 H2177 0.950 . S
C2156 H2152 0.949 . S
C2156 C2164 1.574 . S
C2156 C2172 1.368 . S
H2157 C2165 0.950 . S
H2158 C2163 0.950 . S
H2159 C2164 0.949 . S
H2160 C2166 0.950 . S
H2161 C2167 0.950 . S
H2162 C2168 0.949 . S
C2163 H2158 0.950 . S
C2163 C2165 1.327 . S
C2163 C2169 1.429 . S
C2164 C2156 1.574 . S
C2164 H2159 0.949 . S
C2164 C2170 1.368 . S
C2165 C2149 1.349 . S
C2165 H2157 0.950 . S
C2165 C2163 1.327 . S
C2166 C2154 1.349 . S
C2166 H2160 0.950 . S
C2166 C2167 1.327 . S
C2167 H2161 0.950 . S
C2167 C2166 1.327 . S
C2167 C2171 1.429 . S
C2168 C2151 1.574 . S
C2168 H2162 0.949 . S
C2168 C2172 1.368 . S
C2169 C2150 1.429 . S
C2169 C2163 1.429 . S
C2169 C2170 1.523 . S
C2170 C2151 1.368 . S
C2170 C2164 1.368 . S
C2170 C2169 1.523 . S
C2171 C2155 1.429 . S
C2171 C2167 1.429 . S
C2171 C2172 1.523 . S
C2172 C2156 1.368 . S
C2172 C2168 1.368 . S
C2172 C2171 1.523 . S
H2173 C2148 0.950 . S
H2174 C2150 0.950 . S
H2175 C2151 0.949 . S
H2176 C2153 0.950 . S
H2177 C2155 0.950 . S
C2178 C2179 1.349 . S
C2178 C2180 1.327 . S
C2178 H2203 0.950 . S
C2179 C2178 1.349 . S
C2179 C2195 1.349 . S
C2180 C2178 1.327 . S
C2180 C2199 1.429 . S
C2180 H2204 0.950 . S
C2181 C2198 1.574 . S
C2181 C2200 1.368 . S
C2181 H2205 0.949 . S
H2182 C2186 0.949 . S
C2183 C2184 1.349 . S
C2183 C2185 1.327 . S
C2183 H2206 0.950 . S
C2184 C2183 1.349 . S
C2184 C2196 1.349 . S
C2185 C2183 1.327 . S
C2185 C2201 1.429 . S
C2185 H2207 0.950 . S
C2186 H2182 0.949 . S
C2186 C2194 1.574 . S
C2186 C2202 1.368 . S
H2187 C2195 0.950 . S
H2188 C2193 0.950 . S
H2189 C2194 0.949 . S
H2190 C2196 0.950 . S
H2191 C2197 0.950 . S
H2192 C2198 0.949 . S
C2193 H2188 0.950 . S
C2193 C2195 1.327 . S
C2193 C2199 1.429 . S
C2194 C2186 1.574 . S
C2194 H2189 0.949 . S
C2194 C2200 1.368 . S
C2195 C2179 1.349 . S
C2195 H2187 0.950 . S
C2195 C2193 1.327 . S
C2196 C2184 1.349 . S
C2196 H2190 0.950 . S
C2196 C2197 1.327 . S
C2197 H2191 0.950 . S
C2197 C2196 1.327 . S
C2197 C2201 1.429 . S
C2198 C2181 1.574 . S
C2198 H2192 0.949 . S
C2198 C2202 1.368 . S
C2199 C2180 1.429 . S
C2199 C2193 1.429 . S
C2199 C2200 1.523 . S
C2200 C2181 1.368 . S
C2200 C2194 1.368 . S
C2200 C2199 1.523 . S
C2201 C2185 1.429 . S
C2201 C2197 1.429 . S
C2201 C2202 1.523 . S
C2202 C2186 1.368 . S
C2202 C2198 1.368 . S
C2202 C2201 1.523 . S
H2203 C2178 0.950 . S
H2204 C2180 0.950 . S
H2205 C2181 0.949 . S
H2206 C2183 0.950 . S
H2207 C2185 0.950 . S
C2208 C2209 1.349 . S
C2208 C2210 1.327 . S
C2208 H2233 0.950 . S
C2209 C2208 1.349 . S
C2209 C2225 1.349 . S
C2210 C2208 1.327 . S
C2210 C2229 1.429 . S
C2210 H2234 0.950 . S
C2211 C2228 1.574 . S
C2211 C2230 1.368 . S
C2211 H2235 0.949 . S
H2212 C2216 0.949 . S
C2213 C2214 1.349 . S
C2213 C2215 1.327 . S
C2213 H2236 0.950 . S
C2214 C2213 1.349 . S
C2214 C2226 1.349 . S
C2215 C2213 1.327 . S
C2215 C2231 1.429 . S
C2215 H2237 0.950 . S
C2216 H2212 0.949 . S
C2216 C2224 1.574 . S
C2216 C2232 1.368 . S
H2217 C2225 0.950 . S
H2218 C2223 0.950 . S
H2219 C2224 0.949 . S
H2220 C2226 0.950 . S
H2221 C2227 0.950 . S
H2222 C2228 0.949 . S
C2223 H2218 0.950 . S
C2223 C2225 1.327 . S
C2223 C2229 1.429 . S
C2224 C2216 1.574 . S
C2224 H2219 0.949 . S
C2224 C2230 1.368 . S
C2225 C2209 1.349 . S
C2225 H2217 0.950 . S
C2225 C2223 1.327 . S
C2226 C2214 1.349 . S
C2226 H2220 0.950 . S
C2226 C2227 1.327 . S
C2227 H2221 0.950 . S
C2227 C2226 1.327 . S
C2227 C2231 1.429 . S
C2228 C2211 1.574 . S
C2228 H2222 0.949 . S
C2228 C2232 1.368 . S
C2229 C2210 1.429 . S
C2229 C2223 1.429 . S
C2229 C2230 1.523 . S
C2230 C2211 1.368 . S
C2230 C2224 1.368 . S
C2230 C2229 1.523 . S
C2231 C2215 1.429 . S
C2231 C2227 1.429 . S
C2231 C2232 1.523 . S
C2232 C2216 1.368 . S
C2232 C2228 1.368 . S
C2232 C2231 1.523 . S
H2233 C2208 0.950 . S
H2234 C2210 0.950 . S
H2235 C2211 0.949 . S
H2236 C2213 0.950 . S
H2237 C2215 0.950 . S
C2238 C2239 1.349 . S
C2238 C2240 1.327 . S
C2238 H2263 0.950 . S
C2239 C2238 1.349 . S
C2239 C2255 1.349 . S
C2240 C2238 1.327 . S
C2240 C2259 1.429 . S
C2240 H2264 0.950 . S
C2241 C2258 1.574 . S
C2241 C2260 1.368 . S
C2241 H2265 0.949 . S
H2242 C2246 0.949 . S
C2243 C2244 1.349 . S
C2243 C2245 1.327 . S
C2243 H2266 0.950 . S
C2244 C2243 1.349 . S
C2244 C2256 1.349 . S
C2245 C2243 1.327 . S
C2245 C2261 1.429 . S
C2245 H2267 0.950 . S
C2246 H2242 0.949 . S
C2246 C2254 1.574 . S
C2246 C2262 1.368 . S
H2247 C2255 0.950 . S
H2248 C2253 0.950 . S
H2249 C2254 0.949 . S
H2250 C2256 0.950 . S
H2251 C2257 0.950 . S
H2252 C2258 0.949 . S
C2253 H2248 0.950 . S
C2253 C2255 1.327 . S
C2253 C2259 1.429 . S
C2254 C2246 1.574 . S
C2254 H2249 0.949 . S
C2254 C2260 1.368 . S
C2255 C2239 1.349 . S
C2255 H2247 0.950 . S
C2255 C2253 1.327 . S
C2256 C2244 1.349 . S
C2256 H2250 0.950 . S
C2256 C2257 1.327 . S
C2257 H2251 0.950 . S
C2257 C2256 1.327 . S
C2257 C2261 1.429 . S
C2258 C2241 1.574 . S
C2258 H2252 0.949 . S
C2258 C2262 1.368 . S
C2259 C2240 1.429 . S
C2259 C2253 1.429 . S
C2259 C2260 1.523 . S
C2260 C2241 1.368 . S
C2260 C2254 1.368 . S
C2260 C2259 1.523 . S
C2261 C2245 1.429 . S
C2261 C2257 1.429 . S
C2261 C2262 1.523 . S
C2262 C2246 1.368 . S
C2262 C2258 1.368 . S
C2262 C2261 1.523 . S
H2263 C2238 0.950 . S
H2264 C2240 0.950 . S
H2265 C2241 0.949 . S
H2266 C2243 0.950 . S
H2267 C2245 0.950 . S
C2268 C2269 1.349 . S
C2268 C2270 1.327 . S
C2268 H2293 0.950 . S
C2269 C2268 1.349 . S
C2269 C2285 1.349 . S
C2270 C2268 1.327 . S
C2270 C2289 1.429 . S
C2270 H2294 0.950 . S
C2271 C2288 1.574 . S
C2271 C2290 1.368 . S
C2271 H2295 0.949 . S
H2272 C2276 0.949 . S
C2273 C2274 1.349 . S
C2273 C2275 1.327 . S
C2273 H2296 0.950 . S
C2274 C2273 1.349 . S
C2274 C2286 1.349 . S
C2275 C2273 1.327 . S
C2275 C2291 1.429 . S
C2275 H2297 0.950 . S
C2276 H2272 0.949 . S
C2276 C2284 1.574 . S
C2276 C2292 1.368 . S
H2277 C2285 0.950 . S
H2278 C2283 0.950 . S
H2279 C2284 0.949 . S
H2280 C2286 0.950 . S
H2281 C2287 0.950 . S
H2282 C2288 0.949 . S
C2283 H2278 0.950 . S
C2283 C2285 1.327 . S
C2283 C2289 1.429 . S
C2284 C2276 1.574 . S
C2284 H2279 0.949 . S
C2284 C2290 1.368 . S
C2285 C2269 1.349 . S
C2285 H2277 0.950 . S
C2285 C2283 1.327 . S
C2286 C2274 1.349 . S
C2286 H2280 0.950 . S
C2286 C2287 1.327 . S
C2287 H2281 0.950 . S
C2287 C2286 1.327 . S
C2287 C2291 1.429 . S
C2288 C2271 1.574 . S
C2288 H2282 0.949 . S
C2288 C2292 1.368 . S
C2289 C2270 1.429 . S
C2289 C2283 1.429 . S
C2289 C2290 1.523 . S
C2290 C2271 1.368 . S
C2290 C2284 1.368 . S
C2290 C2289 1.523 . S
C2291 C2275 1.429 . S
C2291 C2287 1.429 . S
C2291 C2292 1.523 . S
C2292 C2276 1.368 . S
C2292 C2288 1.368 . S
C2292 C2291 1.523 . S
H2293 C2268 0.950 . S
H2294 C2270 0.950 . S
H2295 C2271 0.949 . S
H2296 C2273 0.950 . S
H2297 C2275 0.950 . S
C2298 C2299 1.349 . S
C2298 C2300 1.327 . S
C2298 H2323 0.950 . S
C2299 C2298 1.349 . S
C2299 C2315 1.349 . S
C2300 C2298 1.327 . S
C2300 C2319 1.429 . S
C2300 H2324 0.950 . S
C2301 C2318 1.574 . S
C2301 C2320 1.368 . S
C2301 H2325 0.949 . S
H2302 C2306 0.949 . S
C2303 C2304 1.349 . S
C2303 C2305 1.327 . S
C2303 H2326 0.950 . S
C2304 C2303 1.349 . S
C2304 C2316 1.349 . S
C2305 C2303 1.327 . S
C2305 C2321 1.429 . S
C2305 H2327 0.950 . S
C2306 H2302 0.949 . S
C2306 C2314 1.574 . S
C2306 C2322 1.368 . S
H2307 C2315 0.950 . S
H2308 C2313 0.950 . S
H2309 C2314 0.949 . S
H2310 C2316 0.950 . S
H2311 C2317 0.950 . S
H2312 C2318 0.949 . S
C2313 H2308 0.950 . S
C2313 C2315 1.327 . S
C2313 C2319 1.429 . S
C2314 C2306 1.574 . S
C2314 H2309 0.949 . S
C2314 C2320 1.368 . S
C2315 C2299 1.349 . S
C2315 H2307 0.950 . S
C2315 C2313 1.327 . S
C2316 C2304 1.349 . S
C2316 H2310 0.950 . S
C2316 C2317 1.327 . S
C2317 H2311 0.950 . S
C2317 C2316 1.327 . S
C2317 C2321 1.429 . S
C2318 C2301 1.574 . S
C2318 H2312 0.949 . S
C2318 C2322 1.368 . S
C2319 C2300 1.429 . S
C2319 C2313 1.429 . S
C2319 C2320 1.523 . S
C2320 C2301 1.368 . S
C2320 C2314 1.368 . S
C2320 C2319 1.523 . S
C2321 C2305 1.429 . S
C2321 C2317 1.429 . S
C2321 C2322 1.523 . S
C2322 C2306 1.368 . S
C2322 C2318 1.368 . S
C2322 C2321 1.523 . S
H2323 C2298 0.950 . S
H2324 C2300 0.950 . S
H2325 C2301 0.949 . S
H2326 C2303 0.950 . S
H2327 C2305 0.950 . S
C2328 C2329 1.349 . S
C2328 C2330 1.327 . S
C2328 H2353 0.950 . S
C2329 C2328 1.349 . S
C2329 C2345 1.349 . S
C2330 C2328 1.327 . S
C2330 C2349 1.429 . S
C2330 H2354 0.950 . S
C2331 C2348 1.574 . S
C2331 C2350 1.368 . S
C2331 H2355 0.949 . S
H2332 C2336 0.949 . S
C2333 C2334 1.349 . S
C2333 C2335 1.327 . S
C2333 H2356 0.950 . S
C2334 C2333 1.349 . S
C2334 C2346 1.349 . S
C2335 C2333 1.327 . S
C2335 C2351 1.429 . S
C2335 H2357 0.950 . S
C2336 H2332 0.949 . S
C2336 C2344 1.574 . S
C2336 C2352 1.368 . S
H2337 C2345 0.950 . S
H2338 C2343 0.950 . S
H2339 C2344 0.949 . S
H2340 C2346 0.950 . S
H2341 C2347 0.950 . S
H2342 C2348 0.949 . S
C2343 H2338 0.950 . S
C2343 C2345 1.327 . S
C2343 C2349 1.429 . S
C2344 C2336 1.574 . S
C2344 H2339 0.949 . S
C2344 C2350 1.368 . S
C2345 C2329 1.349 . S
C2345 H2337 0.950 . S
C2345 C2343 1.327 . S
C2346 C2334 1.349 . S
C2346 H2340 0.950 . S
C2346 C2347 1.327 . S
C2347 H2341 0.950 . S
C2347 C2346 1.327 . S
C2347 C2351 1.429 . S
C2348 C2331 1.574 . S
C2348 H2342 0.949 . S
C2348 C2352 1.368 . S
C2349 C2330 1.429 . S
C2349 C2343 1.429 . S
C2349 C2350 1.523 . S
C2350 C2331 1.368 . S
C2350 C2344 1.368 . S
C2350 C2349 1.523 . S
C2351 C2335 1.429 . S
C2351 C2347 1.429 . S
C2351 C2352 1.523 . S
C2352 C2336 1.368 . S
C2352 C2348 1.368 . S
C2352 C2351 1.523 . S
H2353 C2328 0.950 . S
H2354 C2330 0.950 . S
H2355 C2331 0.949 . S
H2356 C2333 0.950 . S
H2357 C2335 0.950 . S
C2358 C2359 1.349 . S
C2358 C2360 1.327 . S
C2358 H2383 0.950 . S
C2359 C2358 1.349 . S
C2359 C2375 1.349 . S
C2360 C2358 1.327 . S
C2360 C2379 1.429 . S
C2360 H2384 0.950 . S
C2361 C2378 1.574 . S
C2361 C2380 1.368 . S
C2361 H2385 0.949 . S
H2362 C2366 0.949 . S
C2363 C2364 1.349 . S
C2363 C2365 1.327 . S
C2363 H2386 0.950 . S
C2364 C2363 1.349 . S
C2364 C2376 1.349 . S
C2365 C2363 1.327 . S
C2365 C2381 1.429 . S
C2365 H2387 0.950 . S
C2366 H2362 0.949 . S
C2366 C2374 1.574 . S
C2366 C2382 1.368 . S
H2367 C2375 0.950 . S
H2368 C2373 0.950 . S
H2369 C2374 0.949 . S
H2370 C2376 0.950 . S
H2371 C2377 0.950 . S
H2372 C2378 0.949 . S
C2373 H2368 0.950 . S
C2373 C2375 1.327 . S
C2373 C2379 1.429 . S
C2374 C2366 1.574 . S
C2374 H2369 0.949 . S
C2374 C2380 1.368 . S
C2375 C2359 1.349 . S
C2375 H2367 0.950 . S
C2375 C2373 1.327 . S
C2376 C2364 1.349 . S
C2376 H2370 0.950 . S
C2376 C2377 1.327 . S
C2377 H2371 0.950 . S
C2377 C2376 1.327 . S
C2377 C2381 1.429 . S
C2378 C2361 1.574 . S
C2378 H2372 0.949 . S
C2378 C2382 1.368 . S
C2379 C2360 1.429 . S
C2379 C2373 1.429 . S
C2379 C2380 1.523 . S
C2380 C2361 1.368 . S
C2380 C2374 1.368 . S
C2380 C2379 1.523 . S
C2381 C2365 1.429 . S
C2381 C2377 1.429 . S
C2381 C2382 1.523 . S
C2382 C2366 1.368 . S
C2382 C2378 1.368 . S
C2382 C2381 1.523 . S
H2383 C2358 0.950 . S
H2384 C2360 0.950 . S
H2385 C2361 0.949 . S
H2386 C2363 0.950 . S
H2387 C2365 0.950 . S
C2388 C2389 1.349 . S
C2388 C2390 1.327 . S
C2388 H2413 0.950 . S
C2389 C2388 1.349 . S
C2389 C2405 1.349 . S
C2390 C2388 1.327 . S
C2390 C2409 1.429 . S
C2390 H2414 0.950 . S
C2391 C2408 1.574 . S
C2391 C2410 1.368 . S
C2391 H2415 0.949 . S
H2392 C2396 0.949 . S
C2393 C2394 1.349 . S
C2393 C2395 1.327 . S
C2393 H2416 0.950 . S
C2394 C2393 1.349 . S
C2394 C2406 1.349 . S
C2395 C2393 1.327 . S
C2395 C2411 1.429 . S
C2395 H2417 0.950 . S
C2396 H2392 0.949 . S
C2396 C2404 1.574 . S
C2396 C2412 1.368 . S
H2397 C2405 0.950 . S
H2398 C2403 0.950 . S
H2399 C2404 0.949 . S
H2400 C2406 0.950 . S
H2401 C2407 0.950 . S
H2402 C2408 0.949 . S
C2403 H2398 0.950 . S
C2403 C2405 1.327 . S
C2403 C2409 1.429 . S
C2404 C2396 1.574 . S
C2404 H2399 0.949 . S
C2404 C2410 1.368 . S
C2405 C2389 1.349 . S
C2405 H2397 0.950 . S
C2405 C2403 1.327 . S
C2406 C2394 1.349 . S
C2406 H2400 0.950 . S
C2406 C2407 1.327 . S
C2407 H2401 0.950 . S
C2407 C2406 1.327 . S
C2407 C2411 1.429 . S
C2408 C2391 1.574 . S
C2408 H2402 0.949 . S
C2408 C2412 1.368 . S
C2409 C2390 1.429 . S
C2409 C2403 1.429 . S
C2409 C2410 1.523 . S
C2410 C2391 1.368 . S
C2410 C2404 1.368 . S
C2410 C2409 1.523 . S
C2411 C2395 1.429 . S
C2411 C2407 1.429 . S
C2411 C2412 1.523 . S
C2412 C2396 1.368 . S
C2412 C2408 1.368 . S
C2412 C2411 1.523 . S
H2413 C2388 0.950 . S
H2414 C2390 0.950 . S
H2415 C2391 0.949 . S
H2416 C2393 0.950 . S
H2417 C2395 0.950 . S
C2418 C2419 1.349 . S
C2418 C2420 1.327 . S
C2418 H2443 0.950 . S
C2419 C2418 1.349 . S
C2419 C2435 1.349 . S
C2420 C2418 1.327 . S
C2420 C2439 1.429 . S
C2420 H2444 0.950 . S
C2421 C2438 1.574 . S
C2421 C2440 1.368 . S
C2421 H2445 0.949 . S
H2422 C2426 0.949 . S
C2423 C2424 1.349 . S
C2423 C2425 1.327 . S
C2423 H2446 0.950 . S
C2424 C2423 1.349 . S
C2424 C2436 1.349 . S
C2425 C2423 1.327 . S
C2425 C2441 1.429 . S
C2425 H2447 0.950 . S
C2426 H2422 0.949 . S
C2426 C2434 1.574 . S
C2426 C2442 1.368 . S
H2427 C2435 0.950 . S
H2428 C2433 0.950 . S
H2429 C2434 0.949 . S
H2430 C2436 0.950 . S
H2431 C2437 0.950 . S
H2432 C2438 0.949 . S
C2433 H2428 0.950 . S
C2433 C2435 1.327 . S
C2433 C2439 1.429 . S
C2434 C2426 1.574 . S
C2434 H2429 0.949 . S
C2434 C2440 1.368 . S
C2435 C2419 1.349 . S
C2435 H2427 0.950 . S
C2435 C2433 1.327 . S
C2436 C2424 1.349 . S
C2436 H2430 0.950 . S
C2436 C2437 1.327 . S
C2437 H2431 0.950 . S
C2437 C2436 1.327 . S
C2437 C2441 1.429 . S
C2438 C2421 1.574 . S
C2438 H2432 0.949 . S
C2438 C2442 1.368 . S
C2439 C2420 1.429 . S
C2439 C2433 1.429 . S
C2439 C2440 1.523 . S
C2440 C2421 1.368 . S
C2440 C2434 1.368 . S
C2440 C2439 1.523 . S
C2441 C2425 1.429 . S
C2441 C2437 1.429 . S
C2441 C2442 1.523 . S
C2442 C2426 1.368 . S
C2442 C2438 1.368 . S
C2442 C2441 1.523 . S
H2443 C2418 0.950 . S
H2444 C2420 0.950 . S
H2445 C2421 0.949 . S
H2446 C2423 0.950 . S
H2447 C2425 0.950 . S
C2448 C2449 1.349 . S
C2448 C2450 1.327 . S
C2448 H2473 0.950 . S
C2449 C2448 1.349 . S
C2449 C2465 1.349 . S
C2450 C2448 1.327 . S
C2450 C2469 1.429 . S
C2450 H2474 0.950 . S
C2451 C2468 1.574 . S
C2451 C2470 1.368 . S
C2451 H2475 0.949 . S
H2452 C2456 0.949 . S
C2453 C2454 1.349 . S
C2453 C2455 1.327 . S
C2453 H2476 0.950 . S
C2454 C2453 1.349 . S
C2454 C2466 1.349 . S
C2455 C2453 1.327 . S
C2455 C2471 1.429 . S
C2455 H2477 0.950 . S
C2456 H2452 0.949 . S
C2456 C2464 1.574 . S
C2456 C2472 1.368 . S
H2457 C2465 0.950 . S
H2458 C2463 0.950 . S
H2459 C2464 0.949 . S
H2460 C2466 0.950 . S
H2461 C2467 0.950 . S
H2462 C2468 0.949 . S
C2463 H2458 0.950 . S
C2463 C2465 1.327 . S
C2463 C2469 1.429 . S
C2464 C2456 1.574 . S
C2464 H2459 0.949 . S
C2464 C2470 1.368 . S
C2465 C2449 1.349 . S
C2465 H2457 0.950 . S
C2465 C2463 1.327 . S
C2466 C2454 1.349 . S
C2466 H2460 0.950 . S
C2466 C2467 1.327 . S
C2467 H2461 0.950 . S
C2467 C2466 1.327 . S
C2467 C2471 1.429 . S
C2468 C2451 1.574 . S
C2468 H2462 0.949 . S
C2468 C2472 1.368 . S
C2469 C2450 1.429 . S
C2469 C2463 1.429 . S
C2469 C2470 1.523 . S
C2470 C2451 1.368 . S
C2470 C2464 1.368 . S
C2470 C2469 1.523 . S
C2471 C2455 1.429 . S
C2471 C2467 1.429 . S
C2471 C2472 1.523 . S
C2472 C2456 1.368 . S
C2472 C2468 1.368 . S
C2472 C2471 1.523 . S
H2473 C2448 0.950 . S
H2474 C2450 0.950 . S
H2475 C2451 0.949 . S
H2476 C2453 0.950 . S
H2477 C2455 0.950 . S
C2478 C2479 1.349 . S
C2478 C2480 1.327 . S
C2478 H2503 0.950 . S
C2479 C2478 1.349 . S
C2479 C2495 1.349 . S
C2480 C2478 1.327 . S
C2480 C2499 1.429 . S
C2480 H2504 0.950 . S
C2481 C2498 1.574 . S
C2481 C2500 1.368 . S
C2481 H2505 0.949 . S
H2482 C2486 0.949 . S
C2483 C2484 1.349 . S
C2483 C2485 1.327 . S
C2483 H2506 0.950 . S
C2484 C2483 1.349 . S
C2484 C2496 1.349 . S
C2485 C2483 1.327 . S
C2485 C2501 1.429 . S
C2485 H2507 0.950 . S
C2486 H2482 0.949 . S
C2486 C2494 1.574 . S
C2486 C2502 1.368 . S
H2487 C2495 0.950 . S
H2488 C2493 0.950 . S
H2489 C2494 0.949 . S
H2490 C2496 0.950 . S
H2491 C2497 0.950 . S
H2492 C2498 0.949 . S
C2493 H2488 0.950 . S
C2493 C2495 1.327 . S
C2493 C2499 1.429 . S
C2494 C2486 1.574 . S
C2494 H2489 0.949 . S
C2494 C2500 1.368 . S
C2495 C2479 1.349 . S
C2495 H2487 0.950 . S
C2495 C2493 1.327 . S
C2496 C2484 1.349 . S
C2496 H2490 0.950 . S
C2496 C2497 1.327 . S
C2497 H2491 0.950 . S
C2497 C2496 1.327 . S
C2497 C2501 1.429 . S
C2498 C2481 1.574 . S
C2498 H2492 0.949 . S
C2498 C2502 1.368 . S
C2499 C2480 1.429 . S
C2499 C2493 1.429 . S
C2499 C2500 1.523 . S
C2500 C2481 1.368 . S
C2500 C2494 1.368 . S
C2500 C2499 1.523 . S
C2501 C2485 1.429 . S
C2501 C2497 1.429 . S
C2501 C2502 1.523 . S
C2502 C2486 1.368 . S
C2502 C2498 1.368 . S
C2502 C2501 1.523 . S
H2503 C2478 0.950 . S
H2504 C2480 0.950 . S
H2505 C2481 0.949 . S
H2506 C2483 0.950 . S
H2507 C2485 0.950 . S
C2508 C2509 1.349 . S
C2508 C2510 1.327 . S
C2508 H2533 0.950 . S
C2509 C2508 1.349 . S
C2509 C2525 1.349 . S
C2510 C2508 1.327 . S
C2510 C2529 1.429 . S
C2510 H2534 0.950 . S
C2511 C2528 1.574 . S
C2511 C2530 1.368 . S
C2511 H2535 0.949 . S
H2512 C2516 0.949 . S
C2513 C2514 1.349 . S
C2513 C2515 1.327 . S
C2513 H2536 0.950 . S
C2514 C2513 1.349 . S
C2514 C2526 1.349 . S
C2515 C2513 1.327 . S
C2515 C2531 1.429 . S
C2515 H2537 0.950 . S
C2516 H2512 0.949 . S
C2516 C2524 1.574 . S
C2516 C2532 1.368 . S
H2517 C2525 0.950 . S
H2518 C2523 0.950 . S
H2519 C2524 0.949 . S
H2520 C2526 0.950 . S
H2521 C2527 0.950 . S
H2522 C2528 0.949 . S
C2523 H2518 0.950 . S
C2523 C2525 1.327 . S
C2523 C2529 1.429 . S
C2524 C2516 1.574 . S
C2524 H2519 0.949 . S
C2524 C2530 1.368 . S
C2525 C2509 1.349 . S
C2525 H2517 0.950 . S
C2525 C2523 1.327 . S
C2526 C2514 1.349 . S
C2526 H2520 0.950 . S
C2526 C2527 1.327 . S
C2527 H2521 0.950 . S
C2527 C2526 1.327 . S
C2527 C2531 1.429 . S
C2528 C2511 1.574 . S
C2528 H2522 0.949 . S
C2528 C2532 1.368 . S
C2529 C2510 1.429 . S
C2529 C2523 1.429 . S
C2529 C2530 1.523 . S
C2530 C2511 1.368 . S
C2530 C2524 1.368 . S
C2530 C2529 1.523 . S
C2531 C2515 1.429 . S
C2531 C2527 1.429 . S
C2531 C2532 1.523 . S
C2532 C2516 1.368 . S
C2532 C2528 1.368 . S
C2532 C2531 1.523 . S
H2533 C2508 0.950 . S
H2534 C2510 0.950 . S
H2535 C2511 0.949 . S
H2536 C2513 0.950 . S
H2537 C2515 0.950 . S
C2538 C2539 1.349 . S
C2538 C2540 1.327 . S
C2538 H2563 0.950 . S
C2539 C2538 1.349 . S
C2539 C2555 1.349 . S
C2540 C2538 1.327 . S
C2540 C2559 1.429 . S
C2540 H2564 0.950 . S
C2541 C2558 1.574 . S
C2541 C2560 1.368 . S
C2541 H2565 0.949 . S
H2542 C2546 0.949 . S
C2543 C2544 1.349 . S
C2543 C2545 1.327 . S
C2543 H2566 0.950 . S
C2544 C2543 1.349 . S
C2544 C2556 1.349 . S
C2545 C2543 1.327 . S
C2545 C2561 1.429 . S
C2545 H2567 0.950 . S
C2546 H2542 0.949 . S
C2546 C2554 1.574 . S
C2546 C2562 1.368 . S
H2547 C2555 0.950 . S
H2548 C2553 0.950 . S
H2549 C2554 0.949 . S
H2550 C2556 0.950 . S
H2551 C2557 0.950 . S
H2552 C2558 0.949 . S
C2553 H2548 0.950 . S
C2553 C2555 1.327 . S
C2553 C2559 1.429 . S
C2554 C2546 1.574 . S
C2554 H2549 0.949 . S
C2554 C2560 1.368 . S
C2555 C2539 1.349 . S
C2555 H2547 0.950 . S
C2555 C2553 1.327 . S
C2556 C2544 1.349 . S
C2556 H2550 0.950 . S
C2556 C2557 1.327 . S
C2557 H2551 0.950 . S
C2557 C2556 1.327 . S
C2557 C2561 1.429 . S
C2558 C2541 1.574 . S
C2558 H2552 0.949 . S
C2558 C2562 1.368 . S
C2559 C2540 1.429 . S
C2559 C2553 1.429 . S
C2559 C2560 1.523 . S
C2560 C2541 1.368 . S
C2560 C2554 1.368 . S
C2560 C2559 1.523 . S
C2561 C2545 1.429 . S
C2561 C2557 1.429 . S
C2561 C2562 1.523 . S
C2562 C2546 1.368 . S
C2562 C2558 1.368 . S
C2562 C2561 1.523 . S
H2563 C2538 0.950 . S
H2564 C2540 0.950 . S
H2565 C2541 0.949 . S
H2566 C2543 0.950 . S
H2567 C2545 0.950 . S
C2568 C2569 1.349 . S
C2568 C2570 1.327 . S
C2568 H2593 0.950 1_565 S
C2569 C2568 1.349 . S
C2569 C2585 1.349 . S
C2570 C2568 1.327 . S
C2570 C2589 1.429 . S
C2570 H2594 0.950 1_565 S
C2571 C2588 1.574 . S
C2571 C2590 1.368 . S
C2571 H2595 0.949 . S
H2572 C2576 0.949 1_545 S
C2573 C2574 1.349 . S
C2573 C2575 1.327 . S
C2573 H2596 0.950 . S
C2574 C2573 1.349 . S
C2574 C2586 1.349 . S
C2575 C2573 1.327 . S
C2575 C2591 1.429 . S
C2575 H2597 0.950 . S
C2576 H2572 0.949 1_565 S
C2576 C2584 1.574 . S
C2576 C2592 1.368 . S
H2577 C2585 0.950 . S
H2578 C2583 0.950 . S
H2579 C2584 0.949 1_545 S
H2580 C2586 0.950 1_545 S
H2581 C2587 0.950 1_545 S
H2582 C2588 0.949 . S
C2583 H2578 0.950 . S
C2583 C2585 1.327 . S
C2583 C2589 1.429 . S
C2584 C2576 1.574 . S
C2584 H2579 0.949 1_565 S
C2584 C2590 1.368 . S
C2585 C2569 1.349 . S
C2585 H2577 0.950 . S
C2585 C2583 1.327 . S
C2586 C2574 1.349 . S
C2586 H2580 0.950 1_565 S
C2586 C2587 1.327 . S
C2587 H2581 0.950 1_565 S
C2587 C2586 1.327 . S
C2587 C2591 1.429 . S
C2588 C2571 1.574 . S
C2588 H2582 0.949 . S
C2588 C2592 1.368 . S
C2589 C2570 1.429 . S
C2589 C2583 1.429 . S
C2589 C2590 1.523 . S
C2590 C2571 1.368 . S
C2590 C2584 1.368 . S
C2590 C2589 1.523 . S
C2591 C2575 1.429 . S
C2591 C2587 1.429 . S
C2591 C2592 1.523 . S
C2592 C2576 1.368 . S
C2592 C2588 1.368 . S
C2592 C2591 1.523 . S
H2593 C2568 0.950 1_545 S
H2594 C2570 0.950 1_545 S
H2595 C2571 0.949 . S
H2596 C2573 0.950 . S
H2597 C2575 0.950 . S
C2598 C2599 1.349 . S
C2598 C2600 1.327 . S
C2598 H2623 0.950 . S
C2599 C2598 1.349 . S
C2599 C2615 1.349 . S
C2600 C2598 1.327 . S
C2600 C2619 1.429 . S
C2600 H2624 0.950 . S
C2601 C2618 1.574 . S
C2601 C2620 1.368 . S
C2601 H2625 0.949 . S
H2602 C2606 0.949 . S
C2603 C2604 1.349 . S
C2603 C2605 1.327 . S
C2603 H2626 0.950 . S
C2604 C2603 1.349 . S
C2604 C2616 1.349 . S
C2605 C2603 1.327 . S
C2605 C2621 1.429 . S
C2605 H2627 0.950 . S
C2606 H2602 0.949 . S
C2606 C2614 1.574 . S
C2606 C2622 1.368 . S
H2607 C2615 0.950 . S
H2608 C2613 0.950 . S
H2609 C2614 0.949 . S
H2610 C2616 0.950 . S
H2611 C2617 0.950 . S
H2612 C2618 0.949 . S
C2613 H2608 0.950 . S
C2613 C2615 1.327 . S
C2613 C2619 1.429 . S
C2614 C2606 1.574 . S
C2614 H2609 0.949 . S
C2614 C2620 1.368 . S
C2615 C2599 1.349 . S
C2615 H2607 0.950 . S
C2615 C2613 1.327 . S
C2616 C2604 1.349 . S
C2616 H2610 0.950 . S
C2616 C2617 1.327 . S
C2617 H2611 0.950 . S
C2617 C2616 1.327 . S
C2617 C2621 1.429 . S
C2618 C2601 1.574 . S
C2618 H2612 0.949 . S
C2618 C2622 1.368 . S
C2619 C2600 1.429 . S
C2619 C2613 1.429 . S
C2619 C2620 1.523 . S
C2620 C2601 1.368 . S
C2620 C2614 1.368 . S
C2620 C2619 1.523 . S
C2621 C2605 1.429 . S
C2621 C2617 1.429 . S
C2621 C2622 1.523 . S
C2622 C2606 1.368 . S
C2622 C2618 1.368 . S
C2622 C2621 1.523 . S
H2623 C2598 0.950 . S
H2624 C2600 0.950 . S
H2625 C2601 0.949 . S
H2626 C2603 0.950 . S
H2627 C2605 0.950 . S
C469 C4 2.008 . S
C474 C153 2.008 . S
C499 C127 2.008 . S
C504 C17 2.008 . S
C529 C134 2.008 . S
C534 C30 2.008 . S
C559 C49 2.008 . S
C564 C95 2.008 . S
C589 C56 2.008 . S
C594 C108 2.008 . S
C619 C69 2.008 . S
C624 C88 2.008 . S
C649 C160 2.008 . S
C654 C303 2.008 . S
C679 C277 2.008 . S
C684 C173 2.008 . S
C709 C186 2.008 . S
C714 C290 2.008 . S
C739 C205 2.008 . S
C744 C257 2.008 . S
C769 C218 2.008 . S
C774 C264 2.008 . S
C799 C225 2.008 . S
C804 C244 2.008 . S
C829 C316 2.008 . S
C834 C465 2.008 . S
C859 C329 2.008 . S
C864 C433 2.008 . S
C889 C452 2.008 . S
C894 C342 2.008 . S
C919 C361 2.008 . S
C924 C413 2.008 . S
C949 C420 2.008 . S
C954 C368 2.008 . S
C979 C400 2.008 . S
C984 C381 2.008 . S
C1009 C3 1.191 . S
C1014 C200 1.191 . S
C1039 C16 1.191 . S
C1044 C213 1.191 . S
C1069 C29 1.191 . S
C1074 C224 1.191 . S
C1099 C44 1.191 . S
C1104 C315 1.191 . S
C1129 C328 1.191 . S
C1134 C55 1.191 . S
C1159 C341 1.191 . S
C1164 C68 1.191 . S
C1189 C83 1.191 . S
C1194 C432 1.191 . S
C1219 C447 1.191 . S
C1224 C94 1.191 . S
C1249 C107 1.191 . S
C1254 C460 1.191 . S
C1279 C122 1.191 . S
C1284 C239 1.191 . S
C1309 C133 1.191 . S
C1314 C252 1.191 . S
C1339 C148 1.191 . S
C1344 C263 1.191 . S
C1369 C356 1.192 . S
C1374 C159 1.192 . S
C1399 C172 1.191 . S
C1404 C367 1.191 . S
C1429 C185 1.191 . S
C1434 C380 1.191 . S
C1459 C395 1.191 . S
C1464 C276 1.191 . S
C1489 C408 1.191 . S
C1494 C289 1.191 . S
C1519 C302 1.191 . S
C1524 C419 1.191 . S
C1549 C10 1.320 . S
C1554 C62 1.320 . S
C1579 C75 1.320 . S
C1584 C23 1.320 . S
C1609 C43 1.320 . S
C1614 C36 1.320 . S
C1639 C82 1.320 . S
C1644 C140 1.320 . S
C1669 C147 1.320 . S
C1674 C101 1.320 . S
C1699 C114 1.320 . S
C1704 C121 1.320 . S
C1729 C212 1.320 . S
C1734 C166 1.320 . S
C1759 C179 1.320 . S
C1764 C231 1.320 . S
C1789 C192 1.320 . S
C1794 C199 1.320 . S
C1819 C296 1.320 . S
C1824 C238 1.320 . S
C1849 C309 1.320 . S
C1854 C251 1.320 . S
C1879 C283 1.320 . S
C1884 C270 1.320 . S
C1909 C322 1.320 . S
C1914 C374 1.320 . S
C1939 C335 1.320 . S
C1944 C387 1.320 . S
C1969 C348 1.320 . S
C1974 C355 1.320 . S
C1999 C446 1.320 . S
C2004 C394 1.320 . S
C2029 C459 1.320 . S
C2034 C407 1.320 . S
C2059 C439 1.320 . S
C2064 C426 1.320 . S
C2089 C120 1.499 . S
C2094 C5 1.499 . S
C2119 C135 1.499 . S
C2124 C18 1.499 . S
C2149 C31 1.499 . S
C2154 C146 1.499 . S
C2179 C42 1.499 . S
C2184 C81 1.499 . S
C2209 C96 1.499 . S
C2214 C57 1.499 . S
C2239 C70 1.499 . S
C2244 C109 1.499 . S
C2269 C278 1.499 . S
C2274 C161 1.499 . S
C2299 C291 1.499 . S
C2304 C174 1.499 . S
C2329 C187 1.499 . S
C2334 C304 1.499 . S
C2359 C237 1.499 . S
C2364 C198 1.499 . S
C2389 C250 1.499 . S
C2394 C211 1.499 . S
C2419 C265 1.499 . S
C2424 C226 1.499 . S
C2449 C317 1.499 . S
C2454 C434 1.499 . S
C2479 C445 1.499 . S
C2484 C330 1.499 . S
C2509 C343 1.499 . S
C2514 C458 1.499 . S
C2539 C354 1.499 . S
C2544 C393 1.499 . S
C2569 C369 1.499 . S
C2574 C406 1.499 . S
C2599 C421 1.499 . S
C2604 C382 1.499 . S
