# Generated by pormake.
# Topology ecf, (8)-cn, num edge types: 1
# Building blocks:
#     Node 0, Type 0, BuildingBlock: GIZVER_clean_sbu_0, # of connection points: 8
#     Node 1, Type 0, BuildingBlock: GIZVER_clean_sbu_0, # of connection points: 8
#     Node 2, Type 0, BuildingBlock: GIZVER_clean_sbu_0, # of connection points: 8
#     Node 3, Type 0, BuildingBlock: GIZVER_clean_sbu_0, # of connection points: 8
#     Node 4, Type 0, BuildingBlock: GIZVER_clean_sbu_0, # of connection points: 8
#     Node 5, Type 0, BuildingBlock: GIZVER_clean_sbu_0, # of connection points: 8
#     Edge 6, Type (0, 0), BuildingBlock: AJUNOK_clean_linker_0, # of connection points: 2
#     Edge 7, Type (0, 0), BuildingBlock: AJUNOK_clean_linker_0, # of connection points: 2
#     Edge 8, Type (0, 0), BuildingBlock: AJUNOK_clean_linker_0, # of connection points: 2
#     Edge 9, Type (0, 0), BuildingBlock: AJUNOK_clean_linker_0, # of connection points: 2
#     Edge 10, Type (0, 0), BuildingBlock: AJUNOK_clean_linker_0, # of connection points: 2
#     Edge 11, Type (0, 0), BuildingBlock: AJUNOK_clean_linker_0, # of connection points: 2
#     Edge 12, Type (0, 0), BuildingBlock: AJUNOK_clean_linker_0, # of connection points: 2
#     Edge 13, Type (0, 0), BuildingBlock: AJUNOK_clean_linker_0, # of connection points: 2
#     Edge 14, Type (0, 0), BuildingBlock: AJUNOK_clean_linker_0, # of connection points: 2
#     Edge 15, Type (0, 0), BuildingBlock: AJUNOK_clean_linker_0, # of connection points: 2
#     Edge 16, Type (0, 0), BuildingBlock: AJUNOK_clean_linker_0, # of connection points: 2
#     Edge 17, Type (0, 0), BuildingBlock: AJUNOK_clean_linker_0, # of connection points: 2
#     Edge 18, Type (0, 0), BuildingBlock: AJUNOK_clean_linker_0, # of connection points: 2
#     Edge 19, Type (0, 0), BuildingBlock: AJUNOK_clean_linker_0, # of connection points: 2
#     Edge 20, Type (0, 0), BuildingBlock: AJUNOK_clean_linker_0, # of connection points: 2
#     Edge 21, Type (0, 0), BuildingBlock: AJUNOK_clean_linker_0, # of connection points: 2
#     Edge 22, Type (0, 0), BuildingBlock: AJUNOK_clean_linker_0, # of connection points: 2
#     Edge 23, Type (0, 0), BuildingBlock: AJUNOK_clean_linker_0, # of connection points: 2
#     Edge 24, Type (0, 0), BuildingBlock: AJUNOK_clean_linker_0, # of connection points: 2
#     Edge 25, Type (0, 0), BuildingBlock: AJUNOK_clean_linker_0, # of connection points: 2
#     Edge 26, Type (0, 0), BuildingBlock: AJUNOK_clean_linker_0, # of connection points: 2
#     Edge 27, Type (0, 0), BuildingBlock: AJUNOK_clean_linker_0, # of connection points: 2
#     Edge 28, Type (0, 0), BuildingBlock: AJUNOK_clean_linker_0, # of connection points: 2
#     Edge 29, Type (0, 0), BuildingBlock: AJUNOK_clean_linker_0, # of connection points: 2
# Relax obj value: 0.433
# Max RMSD: 0.278
# Mean RMSD: 0.278
data_MOF--net-ecf--node1-GIZVER_clean_sbu_0--edge1-AJUNOK_clean_linker_0
_symmetry_space_group_name_H-M    P1
_symmetry_Int_Tables_number       1
_symmetry_cell_setting            triclinic
loop_
_symmetry_equiv_pos_as_xyz
'x, y, z'
_cell_length_a     30.129929
_cell_length_b     30.105505
_cell_length_c     14.660794
_cell_angle_alpha  90.219602
_cell_angle_beta   90.013054
_cell_angle_gamma 119.73748
loop_
_atom_site_label
_atom_site_type_symbol
_atom_site_fract_x
_atom_site_fract_y
_atom_site_fract_z
_atom_type_partial_charge
Co0 Co 0.27508 0.46856 0.51473 0.0
Co1 Co 0.18346 0.44826 0.45491 0.0
Co2 Co 0.18008 0.34715 0.45578 0.0
O3 O 0.22472 0.41971 0.42497 0.0
H4 H 0.23563 0.42524 0.36205 0.0
O5 O 0.13852 0.28039 0.50529 0.0
Co6 Co 0.07577 0.24154 0.46195 0.0
Co7 Co 0.15088 0.23309 0.47857 0.0
H8 H 0.13918 0.28141 0.57123 0.0
O9 O 0.19858 0.50708 0.40018 0.0
O10 O 0.22763 0.4973 0.5377 0.0
O11 O 0.11015 0.40415 0.49282 0.0
O12 O 0.14211 0.36159 0.55809 0.0
O13 O 0.12564 0.34075 0.36144 0.0
O14 O 1.01397 0.20489 0.42924 0.0
O15 O 1.04676 0.22012 0.5713 0.0
O16 O 0.09915 0.25969 0.34396 0.0
O17 O 0.21649 0.32781 0.35447 0.0
O18 O 0.20374 0.24999 0.39134 0.0
O19 O 0.08766 0.18165 0.45193 0.0
O20 O 0.14134 0.19177 0.57078 0.0
C21 C 0.33803 0.54056 0.50833 0.0
C22 C 0.25307 0.37847 0.60816 0.0
C23 C 0.10369 0.36829 0.54572 0.0
C24 C 0.22291 0.5265 0.47625 0.0
C25 C 1.00784 0.19869 0.51637 0.0
C26 C 0.0984 0.29895 0.31675 0.0
C27 C 0.22541 0.29013 0.34301 0.0
C28 C 0.10321 0.16275 0.5171 0.0
O29 O 0.32281 0.51627 0.58495 0.0
O30 O 0.31098 0.51995 0.43441 0.0
O31 O 0.23233 0.34953 0.54033 0.0
O32 O 0.25035 0.41947 0.61577 0.0
Co33 Co 0.90392 0.08862 0.97386 0.0
Co34 Co 0.96447 0.18037 0.90641 0.0
Co35 Co 0.86077 0.16502 0.90333 0.0
O36 O 0.89726 0.12904 0.88813 0.0
H37 H 0.89481 0.1164 0.82657 0.0
O38 O 0.82556 0.20538 0.91043 0.0
Co39 Co 0.83387 0.25721 0.81956 0.0
Co40 Co 0.76092 0.1667 0.86384 0.0
H41 H 0.82438 0.21595 0.97228 0.0
O42 O 1.01739 0.1723 0.87011 0.0
O43 O 0.97311 0.1467 1.00259 0.0
O44 O 0.98119 0.24852 0.94686 0.0
O45 O 0.90614 0.20823 1.01275 0.0
O46 O 0.91222 0.216 0.81646 0.0
O47 O 0.83936 0.30678 0.74734 0.0
O48 O 0.81407 0.2921 0.89374 0.0
O49 O 0.86353 0.23226 0.727 0.0
O50 O 0.81666 0.11696 0.79787 0.0
O51 O 0.73689 0.09622 0.82627 0.0
O52 O 0.75939 0.21211 0.78158 0.0
O53 O 0.71389 0.17864 0.91231 0.0
C54 C 0.92874 0.03866 0.96471 0.0
C55 C 0.82698 0.0951 1.06082 0.0
C56 C 0.95344 0.24417 1.01428 0.0
C57 C 1.0121 0.15511 0.9529 0.0
C58 C 0.82467 0.32023 0.82047 0.0
C59 C 0.90717 0.23627 0.7442 0.0
C60 C 0.76844 0.08399 0.79451 0.0
C61 C 0.72244 0.20527 0.83813 0.0
O62 O 0.91422 0.04633 1.04433 0.0
O63 O 0.92859 0.06449 0.89462 0.0
O64 O 0.8116 0.11168 0.99401 0.0
O65 O 0.87413 0.10866 1.06708 0.0
Co66 Co 0.60293 0.81389 0.52203 0.0
Co67 Co 0.62492 0.7433 0.46793 0.0
Co68 Co 0.725 0.84665 0.44488 0.0
O69 O 0.64977 0.81034 0.43034 0.0
H70 H 0.63963 0.81147 0.36825 0.0
O71 O 0.79721 0.88171 0.46809 0.0
Co72 Co 0.84915 0.90662 0.38471 0.0
Co73 Co 0.80151 0.94387 0.46788 0.0
H74 H 0.80705 0.87614 0.52772 0.0
O75 O 0.56646 0.69642 0.41496 0.0
O76 O 0.57543 0.73862 0.54901 0.0
O77 O 0.67285 0.72006 0.50806 0.0
O78 O 0.72566 0.79999 0.54667 0.0
O79 O 0.73627 0.80559 0.34823 0.0
O80 O 0.90132 0.93191 0.31078 0.0
O81 O 0.9 0.92832 0.46482 0.0
O82 O 0.79925 0.87782 0.28954 0.0
O83 O 0.7284 0.89495 0.34009 0.0
O84 O 0.75349 0.96426 0.42003 0.0
O85 O 0.85531 0.97701 0.39901 0.0
O86 O 0.83907 0.97962 0.55392 0.0
C87 C 0.53006 0.80401 0.51953 0.0
C88 C 0.69501 0.88374 0.60981 0.0
C89 C 0.71399 0.75274 0.54652 0.0
C90 C 0.54666 0.70363 0.48848 0.0
C91 C 0.92501 0.93945 0.38816 0.0
C92 C 0.77097 0.82864 0.28709 0.0
C93 C 0.73752 0.94135 0.34501 0.0
C94 C 0.86366 1.00058 0.4791 0.0
O95 O 0.55632 0.81514 0.59458 0.0
O96 O 0.54946 0.79671 0.44478 0.0
O97 O 0.72121 0.89306 0.5379 0.0
O98 O 0.65461 0.84003 0.61925 0.0
Co99 Co 1.00802 0.80712 0.96062 0.0
Co100 Co 0.93304 0.81146 0.91036 0.0
Co101 Co 0.90856 0.70218 0.90788 0.0
O102 O 0.95508 0.77141 0.88427 0.0
H103 H 0.96306 0.77807 0.82045 0.0
O104 O 0.86229 0.62907 0.92165 0.0
Co105 Co 0.81393 0.5862 0.82727 0.0
Co106 Co 0.90488 0.60318 0.88345 0.0
H107 H 0.85055 0.61945 0.98358 0.0
O108 O 0.95547 0.86311 0.83743 0.0
O109 O 0.98476 0.85839 0.97933 0.0
O110 O 0.86765 0.78395 0.96422 0.0
O111 O 0.87137 0.71622 1.0158 0.0
O112 O 0.85973 0.70792 0.82398 0.0
O113 O 0.76674 0.54213 0.75117 0.0
O114 O 0.77838 0.53186 0.89958 0.0
O115 O 0.84014 0.64125 0.73579 0.0
O116 O 0.94702 0.69427 0.79849 0.0
O117 O 0.97861 0.64795 0.84767 0.0
O118 O 0.86139 0.55798 0.79621 0.0
O119 O 0.89021 0.54339 0.93057 0.0
C120 C 0.07883 0.86052 0.94112 0.0
C121 C 0.97721 0.73103 1.06468 0.0
C122 C 0.85336 0.74749 1.02004 0.0
C123 C 0.97929 0.88449 0.91319 0.0
C124 C 0.75196 0.51432 0.82433 0.0
C125 C 0.83919 0.6828 0.75159 0.0
C126 C 0.98509 0.68648 0.80271 0.0
C127 C 0.86594 0.52679 0.85355 0.0
O128 O 0.0629 0.8446 1.02336 0.0
O129 O 0.04792 0.84275 0.87224 0.0
O130 O 0.95923 0.69934 0.99771 0.0
O131 O 0.9708 0.76954 1.0618 0.0
Co132 Co 0.25479 0.79663 0.52428 0.0
Co133 Co 0.32594 0.88917 0.50264 0.0
Co134 Co 0.22377 0.88616 0.43512 0.0
O135 O 0.26599 0.85283 0.44174 0.0
H136 H 0.273 0.84569 0.38075 0.0
O137 O 0.17813 0.913 0.43246 0.0
Co138 Co 0.19549 0.98085 0.42192 0.0
Co139 Co 0.15498 0.90623 0.31809 0.0
H140 H 0.14889 0.89461 0.47153 0.0
O141 O 0.37757 0.88551 0.45117 0.0
O142 O 0.328 0.83897 0.57048 0.0
O143 O 0.34323 0.95518 0.55247 0.0
O144 O 0.26757 0.94789 0.52186 0.0
O145 O 0.26833 0.93239 0.32828 0.0
O146 O 0.2059 0.0432 0.41684 0.0
O147 O 0.14691 0.97512 0.4966 0.0
O148 O 0.24881 0.99443 0.34218 0.0
O149 O 0.17565 0.82755 0.34811 0.0
O150 O 0.17939 0.87435 0.23142 0.0
O151 O 0.14814 0.96213 0.3154 0.0
O152 O 0.08707 0.87783 0.31893 0.0
C153 C 0.26384 0.73365 0.51448 0.0
C154 C 0.18234 0.81932 0.60655 0.0
C155 C 0.31341 0.97358 0.55465 0.0
C156 C 0.36693 0.85172 0.51484 0.0
C157 C 0.16581 1.02194 0.46892 0.0
C158 C 0.27537 0.97709 0.3061 0.0
C159 C 0.16473 0.83054 0.26421 0.0
C160 C 0.10039 0.92603 0.31956 0.0
O161 O 0.24702 0.74364 0.58883 0.0
O162 O 0.27635 0.76495 0.44539 0.0
O163 O 0.17839 0.84191 0.53642 0.0
O164 O 0.22368 0.81788 0.62017 0.0
Co165 Co 0.25191 0.16265 0.99832 0.0
Co166 Co 0.28609 0.12023 0.88879 0.0
Co167 Co 0.36846 0.21553 0.90996 0.0
O168 O 0.29577 0.18425 0.9006 0.0
H169 H 0.28286 0.19259 0.84686 0.0
O170 O 0.44349 0.24889 0.91341 0.0
Co171 Co 0.4862 0.24223 0.81866 0.0
Co172 Co 0.46952 0.31567 0.87501 0.0
H173 H 0.45563 0.24832 0.97417 0.0
O174 O 0.23534 0.0831 0.81858 0.0
O175 O 0.24212 0.09333 0.97632 0.0
O176 O 0.33272 0.09469 0.92417 0.0
O177 O 0.36816 0.16431 1.00667 0.0
O178 O 0.36489 0.16833 0.81025 0.0
O179 O 0.53024 0.23823 0.7428 0.0
O180 O 0.54061 0.25874 0.89176 0.0
O181 O 0.43229 0.21698 0.72612 0.0
O182 O 0.36446 0.26332 0.81419 0.0
O183 O 0.42403 0.34268 0.84192 0.0
O184 O 0.51498 0.31721 0.78881 0.0
O185 O 0.52958 0.36078 0.92327 0.0
C186 C 0.17771 0.13225 1.01527 0.0
C187 C 0.33458 0.23538 1.08128 0.0
C188 C 0.35446 0.11654 0.99778 0.0
C189 C 0.22524 0.06513 0.90134 0.0
C190 C 0.5579 0.24962 0.81626 0.0
C191 C 0.39012 0.17513 0.73752 0.0
C192 C 0.3801 0.31144 0.81106 0.0
C193 C 0.54611 0.3523 0.84685 0.0
O194 O 0.20603 0.13974 1.08661 0.0
O195 O 0.19737 0.14328 0.93386 0.0
O196 O 0.36478 0.25839 1.01397 0.0
O197 O 0.3076 0.18657 1.07883 0.0
C198 C 0.25319 0.61342 0.41274 0.0
C199 C 0.24479 0.58231 0.48979 0.0
C200 C 0.26338 0.66393 0.42144 0.0
C201 C 0.26521 0.68521 0.50757 0.0
H202 H 0.24948 0.59792 0.34457 0.0
H203 H 0.26652 0.68514 0.35997 0.0
S204 S 0.25695 0.62373 0.73111 0.0
N205 N 0.24708 0.5791 0.65509 0.0
N206 N 0.26633 0.67427 0.67205 0.0
C207 C 0.26191 0.65627 0.58543 0.0
C208 C 0.25179 0.60476 0.57641 0.0
C209 C 0.63376 0.25543 0.89675 0.0
C210 C 0.60712 0.24925 0.81479 0.0
C211 C 0.67439 0.24545 0.9012 0.0
C212 C 0.69026 0.22908 0.82393 0.0
H213 H 0.6214 0.26512 0.95937 0.0
H214 H 0.69171 0.24782 0.96715 0.0
S215 S 0.63953 0.21548 0.58952 0.0
N216 N 0.60439 0.23235 0.65126 0.0
N217 N 0.68083 0.21337 0.66096 0.0
C218 C 0.66742 0.22738 0.73988 0.0
C219 C 0.62572 0.2374 0.73504 0.0
C220 C 0.41961 0.60466 0.58453 0.0
C221 C 0.38757 0.58943 0.50662 0.0
C222 C 0.4703 0.64508 0.58113 0.0
C223 C 0.49076 0.67155 0.49968 0.0
H224 H 0.40655 0.58342 0.64758 0.0
H225 H 0.49453 0.6531 0.64057 0.0
S226 S 0.42039 0.65506 0.28299 0.0
N227 N 0.37808 0.61021 0.35037 0.0
N228 N 0.47339 0.68573 0.3438 0.0
C229 C 0.45798 0.66001 0.42399 0.0
C230 C 0.40636 0.61908 0.42747 0.0
C231 C 0.81625 0.38783 0.90453 0.0
C232 C 0.82326 0.36882 0.82147 0.0
C233 C 0.82588 0.43814 0.91185 0.0
C234 C 0.84239 0.47129 0.83636 0.0
H235 H 0.80645 0.36494 0.96586 0.0
H236 H 0.82321 0.45211 0.97871 0.0
S237 S 0.85602 0.4372 0.59942 0.0
N238 N 0.83975 0.3847 0.65843 0.0
N239 N 0.85784 0.47958 0.67341 0.0
C240 C 0.84418 0.45134 0.75096 0.0
C241 C 0.83468 0.39998 0.74326 0.0
C242 C 0.42174 0.82299 0.4366 0.0
C243 C 0.39942 0.82743 0.51829 0.0
C244 C 0.46126 0.81118 0.43693 0.0
C245 C 0.48057 0.80388 0.51917 0.0
H246 H 0.41022 0.83117 0.37164 0.0
H247 H 0.47892 0.81114 0.3726 0.0
S248 S 0.42873 0.80145 0.75056 0.0
N249 N 0.39436 0.81619 0.68233 0.0
N250 N 0.46896 0.79423 0.68398 0.0
C251 C 0.4554 0.80353 0.60086 0.0
C252 C 0.41466 0.81514 0.60019 0.0
C253 C 0.61967 0.41182 0.75107 0.0
C254 C 0.60134 0.38246 0.83032 0.0
C255 C 0.67013 0.45246 0.74711 0.0
C256 C 0.70361 0.46477 0.82232 0.0
H257 H 0.59388 0.4062 0.6951 0.0
H258 H 0.68169 0.4764 0.68702 0.0
S259 S 0.67633 0.39066 1.03655 0.0
N260 N 0.62202 0.36225 0.97906 0.0
N261 N 0.71701 0.43798 0.97131 0.0
C262 C 0.68702 0.43186 0.89774 0.0
C263 C 0.63573 0.39082 0.90181 0.0
C264 C 0.10118 0.09718 0.41943 0.0
C265 C 0.09386 0.11081 0.50739 0.0
C266 C 0.12522 0.06842 0.40798 0.0
C267 C 0.13705 0.04789 0.48335 0.0
H268 H 0.09604 0.1152 0.35971 0.0
H269 H 0.13687 0.06427 0.34013 0.0
S270 S 0.1173 0.06442 0.7251 0.0
N271 N 0.09588 0.09795 0.67054 0.0
N272 N 0.13459 0.0369 0.64642 0.0
C273 C 0.12302 0.05464 0.57037 0.0
C274 C 0.10175 0.08698 0.58298 0.0
C275 C 0.05716 0.10788 0.925 0.0
C276 C 1.04562 0.13703 0.98448 0.0
C277 C 0.09351 0.09469 0.94885 0.0
C278 C 0.12445 0.11722 1.02498 0.0
H279 H 1.03964 0.09716 0.85829 0.0
H280 H 0.10247 0.07274 0.90198 0.0
S281 S 0.10328 0.18774 0.2099 0.0
N282 N 0.05926 0.17786 1.13288 0.0
N283 N 0.13563 0.16116 1.16937 0.0
C284 C 0.11006 0.14174 1.08985 0.0
C285 C 0.06933 0.15095 1.06998 0.0
C286 C 0.96645 0.1171 0.58754 0.0
C287 C 0.9606 0.15545 0.54509 0.0
C288 C 0.93723 0.06677 0.55837 0.0
C289 C 0.90025 0.05368 0.48997 0.0
H290 H 0.99826 0.1266 0.63327 0.0
H291 H 0.94369 0.03779 0.58855 0.0
S292 S 0.85862 0.1383 0.38463 0.0
N293 N 0.90726 0.17632 0.45087 0.0
N294 N 0.85081 0.08032 0.3975 0.0
C295 C 0.88886 0.0905 0.45798 0.0
C296 C 0.91836 0.14168 0.4881 0.0
C297 C 0.95388 0.97821 1.02888 0.0
C298 C 0.94895 1.0038 0.95325 0.0
C299 C 0.97197 0.94392 1.01831 0.0
C300 C 0.9856 0.93466 0.93171 0.0
H301 H 0.94155 0.98289 1.09584 0.0
H302 H 0.97067 0.92126 1.07658 0.0
S303 S 0.9825 0.99335 0.71275 0.0
N304 N 0.95953 1.01729 0.78833 0.0
N305 N 0.99886 0.95722 0.77154 0.0
C306 C 0.98551 0.96355 0.85732 0.0
C307 C 0.96466 0.99618 0.86678 0.0
C308 C 0.99231 0.92433 0.44548 0.0
C309 C 0.97803 0.95166 0.38667 0.0
C310 C 1.03339 0.91753 0.42363 0.0
C311 C 0.06177 0.93896 0.34416 0.0
H312 H 0.96879 0.90384 0.50344 0.0
H313 H 1.04191 0.89377 0.46715 0.0
S314 S 0.04836 1.02531 0.18338 0.0
N315 N 1.00108 1.00872 0.25656 0.0
N316 N 0.07901 0.99523 0.21523 0.0
C317 C 0.0514 0.97072 0.29024 0.0
C318 C 1.00944 0.97769 0.31228 0.0
C319 C 0.17291 0.97982 0.83168 0.0
C320 C 0.19532 1.01024 0.9095 0.0
C321 C 0.13977 0.92781 0.84053 0.0
C322 C 0.12802 0.90566 0.92748 0.0
H323 H 0.17869 0.99631 0.76426 0.0
H324 H 0.11977 0.90623 0.78017 0.0
S325 S 0.19073 0.96648 1.14386 0.0
N326 N 0.21434 1.01311 1.0702 0.0
N327 N 0.15103 0.91445 1.08745 0.0
C328 C 0.1564 0.9341 1.00267 0.0
C329 C 0.19002 0.98698 0.99366 0.0
C330 C 0.25263 0.28883 0.17925 0.0
C331 C 0.26261 0.29117 0.27367 0.0
C332 C 0.27927 0.27494 1.11573 0.0
C333 C 0.31704 0.26303 1.14402 0.0
H334 H 0.22157 0.29405 1.15495 0.0
H335 H 0.26786 0.2702 1.04467 0.0
S336 S 0.35944 0.26624 0.38234 0.0
N337 N 0.31482 0.28269 0.39087 0.0
N338 N 0.36421 0.25697 0.27247 0.0
C339 C 0.32881 0.26761 0.23741 0.0
C340 C 0.30189 0.28162 0.30174 0.0
C341 C 1.00284 0.27365 0.71572 0.0
C342 C 0.9556 0.26926 0.68825 0.0
C343 C 0.04976 0.30602 0.67125 0.0
C344 C 0.05283 0.33578 0.59497 0.0
H345 H 1.00404 0.25175 0.77297 0.0
H346 H 0.08406 0.30717 0.69674 0.0
S347 S 0.94121 0.33815 0.49078 0.0
N348 N 0.91591 0.29818 0.57701 0.0
N349 N 1.00301 0.3575 0.4924 0.0
C350 C 1.00596 0.33161 0.56564 0.0
C351 C 0.95797 0.29881 0.61182 0.0
C352 C 0.75133 1.02351 0.27195 0.0
C353 C 0.74607 0.97427 0.26156 0.0
C354 C 0.77328 0.06138 0.20344 0.0
C355 C 0.79068 0.05182 1.12069 0.0
H356 H 0.74149 0.03416 0.33631 0.0
H357 H 0.77965 0.09942 0.21788 0.0
S358 S 0.78026 0.92817 1.05198 0.0
N359 N 0.75563 0.91725 1.15562 0.0
N360 N 0.79679 0.98803 1.02849 0.0
C361 C 0.78218 1.00184 1.10631 0.0
C362 C 0.75969 0.96317 1.17583 0.0
C363 C 0.76936 0.66833 0.63475 0.0
C364 C 0.81033 0.70149 0.69203 0.0
C365 C 0.73848 0.68484 0.58879 0.0
C366 C 0.74685 0.73541 0.59745 0.0
H367 H 0.76009 0.62885 0.62719 0.0
H368 H 0.70751 0.65745 0.54624 0.0
S369 S 0.85033 0.83838 0.73606 0.0
N370 N 0.85835 0.78852 0.75092 0.0
N371 N 0.80056 0.81843 0.66767 0.0
C372 C 0.78822 0.76899 0.65328 0.0
C373 C 0.81966 0.7524 0.69946 0.0
C374 C 1.02363 0.74557 0.2141 0.0
C375 C 1.02254 0.73795 1.11891 0.0
C376 C 0.07003 0.76909 0.2639 0.0
C377 C 0.11772 0.78814 0.22007 0.0
H378 H 0.98861 0.73661 0.24947 0.0
H379 H 0.06875 0.77721 0.33561 0.0
S380 S 0.13626 0.77564 0.97323 0.0
N381 N 0.07353 0.74742 0.98465 0.0
N382 N 0.16036 0.79483 1.07645 0.0
C383 C 0.1169 0.77798 1.12603 0.0
C384 C 0.06955 0.75212 1.07602 0.0
C385 C 0.31986 0.09518 0.66013 0.0
C386 C 0.37265 0.12878 0.67571 0.0
C387 C 0.30092 0.04603 0.61982 0.0
C388 C 0.33378 1.02727 0.59406 0.0
H389 H 0.29268 0.10683 0.68059 0.0
H390 H 0.26 1.0221 0.61108 0.0
S391 S 0.47601 0.10152 0.61254 0.0
N392 N 0.45752 0.14035 0.65606 0.0
N393 N 0.42312 0.04932 0.5814 0.0
C394 C 0.38697 0.06154 0.60585 0.0
C395 C 0.40604 0.11171 0.64594 0.0
C396 C 0.77942 0.75407 1.08197 0.0
C397 C 0.8241 0.75119 1.09939 0.0
C398 C 0.76076 0.77667 1.14474 0.0
C399 C 0.78654 0.79833 0.2271 0.0
H400 H 0.76063 0.74183 1.01628 0.0
H401 H 0.72756 0.77974 1.12634 0.0
S402 S 0.9044 0.80047 0.30752 0.0
N403 N 0.89258 0.77123 0.20746 0.0
N404 N 0.85785 0.81353 0.32468 0.0
C405 C 0.82994 0.79393 0.24728 0.0
C406 C 0.84857 0.77039 0.18387 0.0
C407 C 0.12693 0.74789 0.72139 0.0
C408 C 0.1339 0.78854 0.66392 0.0
C409 C 0.07922 0.71508 0.76462 0.0
C410 C 1.03546 0.72069 0.75281 0.0
H411 H 0.15827 0.7405 0.73167 0.0
H412 H 0.07673 0.68489 0.80795 0.0
S413 S 1.03216 0.82077 0.60995 0.0
N414 N 0.0916 0.83265 0.60096 0.0
N415 N 1.00325 0.77029 0.67633 0.0
C416 C 1.04202 0.76106 0.69551 0.0
C417 C 0.09054 0.79492 0.65306 0.0
C418 C 0.32806 1.02888 1.06781 0.0
C419 C 0.34891 0.08259 1.0792 0.0
C420 C 0.31019 0.99422 1.14255 0.0
C421 C 0.31169 1.01143 0.23269 0.0
H422 H 0.32201 1.01281 0.99971 0.0
H423 H 0.29046 0.95353 1.12836 0.0
S424 S 0.37185 0.14796 0.30379 0.0
N425 N 0.37702 0.15075 0.19157 0.0
N426 N 0.34349 0.08665 0.3298 0.0
C427 C 0.33725 0.06517 0.24566 0.0
C428 C 0.35563 0.10033 1.17002 0.0
C429 C 0.30184 0.29566 0.71993 0.0
C430 C 0.34768 0.33055 0.7643 0.0
C431 C 0.27089 0.31169 0.67467 0.0
C432 C 0.28335 0.36361 0.67138 0.0
H433 H 0.28988 0.25529 0.71847 0.0
H434 H 0.237 0.28276 0.63998 0.0
S435 S 0.39781 0.47108 0.77969 0.0
N436 N 0.40288 0.42026 0.80447 0.0
N437 N 0.34465 0.44987 0.71962 0.0
C438 C 0.32817 0.39895 0.71772 0.0
C439 C 0.3602 0.38264 0.76366 0.0
C440 C 1.01613 0.24027 0.23355 0.0
C441 C 0.05786 0.29047 0.24638 0.0
C442 C 0.97862 0.22773 1.16624 0.0
C443 C 0.98205 0.26377 1.10253 0.0
H444 H 1.0134 0.20859 0.27167 0.0
H445 H 0.94943 0.18798 1.15878 0.0
S446 S 0.08328 0.40072 1.1 0.0
N447 N 0.09847 0.37735 0.18905 0.0
N448 N 1.03096 0.35265 1.0554 0.0
C449 C 1.02311 0.31443 1.11349 0.0
C450 C 0.06016 0.32798 0.18638 0.0
C451 C 0.77929 1.00874 0.74102 0.0
C452 C 0.7481 1.03126 0.75093 0.0
C453 C 0.7603 0.95902 0.70325 0.0
C454 C 0.70928 0.92903 0.67244 0.0
H455 H 0.81886 1.02961 0.76274 0.0
H456 H 0.78625 0.94409 0.69653 0.0
S457 S 0.61078 0.96856 0.68318 0.0
N458 N 0.66204 1.01756 0.72821 0.0
N459 N 0.62784 0.92589 0.65582 0.0
C460 C 0.67734 0.95036 0.68392 0.0
C461 C 0.69634 1.00078 0.72309 0.0
loop_
_geom_bond_atom_site_label_1
_geom_bond_atom_site_label_2
_geom_bond_distance
_geom_bond_site_symmetry_2
_ccdc_geom_bond_type
Co0 O3 2.042 . S
Co0 O10 2.264 . S
Co0 O29 2.286 . S
Co0 O30 2.069 . S
Co0 O32 2.015 . S
Co1 O3 2.122 . S
Co1 O9 2.073 . S
Co1 O10 2.327 . S
Co1 O11 1.976 . S
Co2 O3 2.087 . S
Co2 O5 2.087 . S
Co2 O12 2.111 . S
Co2 O13 2.143 . S
Co2 O17 2.111 . S
Co2 O31 2.143 . S
O3 Co0 2.042 . S
O3 Co1 2.122 . S
O3 Co2 2.087 . S
O3 H4 0.980 . S
H4 O3 0.980 . S
O5 Co2 2.087 . S
O5 Co6 2.042 . S
O5 Co7 2.122 . S
O5 H8 0.980 . S
Co6 O5 2.042 . S
Co6 O14 2.286 1_455 S
Co6 O15 2.069 . S
Co6 O16 2.015 . S
Co6 O19 2.264 . S
Co7 O5 2.122 . S
Co7 O18 1.976 . S
Co7 O19 2.327 . S
Co7 O20 2.073 . S
H8 O5 0.980 . S
O9 Co1 2.073 . S
O9 C24 1.245 . S
O10 Co0 2.264 . S
O10 Co1 2.327 . S
O10 C24 1.257 . S
O11 Co1 1.976 . S
O11 C23 1.251 . S
O12 Co2 2.111 . S
O12 C23 1.274 . S
O13 Co2 2.143 . S
O13 C26 1.246 . S
O14 Co6 2.286 1_655 S
O14 C25 1.259 . S
O15 Co6 2.069 . S
O15 C25 1.289 1_455 S
O16 Co6 2.015 . S
O16 C26 1.257 . S
O17 Co2 2.111 . S
O17 C27 1.274 . S
O18 Co7 1.976 . S
O18 C27 1.251 . S
O19 Co6 2.264 . S
O19 Co7 2.327 . S
O19 C28 1.257 . S
O20 Co7 2.073 . S
O20 C28 1.245 . S
C21 O29 1.259 . S
C21 O30 1.289 . S
C22 O31 1.246 . S
C22 O32 1.257 . S
C23 O11 1.251 . S
C23 O12 1.274 . S
C24 O9 1.245 . S
C24 O10 1.257 . S
C25 O14 1.259 . S
C25 O15 1.289 1_655 S
C26 O13 1.246 . S
C26 O16 1.257 . S
C27 O17 1.274 . S
C27 O18 1.251 . S
C28 O19 1.257 . S
C28 O20 1.245 . S
O29 Co0 2.286 . S
O29 C21 1.259 . S
O30 Co0 2.069 . S
O30 C21 1.289 . S
O31 Co2 2.143 . S
O31 C22 1.246 . S
O32 Co0 2.015 . S
O32 C22 1.257 . S
Co33 O36 2.042 . S
Co33 O43 2.264 . S
Co33 O62 2.286 1_545 S
Co33 O63 2.069 . S
Co33 O65 2.015 . S
Co34 O36 2.122 . S
Co34 O42 2.073 . S
Co34 O43 2.327 . S
Co34 O44 1.976 . S
Co35 O36 2.087 . S
Co35 O38 2.087 . S
Co35 O45 2.111 . S
Co35 O46 2.143 . S
Co35 O50 2.111 . S
Co35 O64 2.143 . S
O36 Co33 2.042 . S
O36 Co34 2.122 . S
O36 Co35 2.087 . S
O36 H37 0.980 . S
H37 O36 0.980 . S
O38 Co35 2.087 . S
O38 Co39 2.042 . S
O38 Co40 2.122 . S
O38 H41 0.980 . S
Co39 O38 2.042 . S
Co39 O47 2.286 . S
Co39 O48 2.069 . S
Co39 O49 2.015 . S
Co39 O52 2.264 . S
Co40 O38 2.122 . S
Co40 O51 1.976 . S
Co40 O52 2.327 . S
Co40 O53 2.073 . S
H41 O38 0.980 . S
O42 Co34 2.073 . S
O42 C57 1.245 . S
O43 Co33 2.264 . S
O43 Co34 2.327 . S
O43 C57 1.257 . S
O44 Co34 1.976 . S
O44 C56 1.251 . S
O45 Co35 2.111 . S
O45 C56 1.274 . S
O46 Co35 2.143 . S
O46 C59 1.246 . S
O47 Co39 2.286 . S
O47 C58 1.259 . S
O48 Co39 2.069 . S
O48 C58 1.289 . S
O49 Co39 2.015 . S
O49 C59 1.257 . S
O50 Co35 2.111 . S
O50 C60 1.274 . S
O51 Co40 1.976 . S
O51 C60 1.251 . S
O52 Co39 2.264 . S
O52 Co40 2.327 . S
O52 C61 1.257 . S
O53 Co40 2.073 . S
O53 C61 1.245 . S
C54 O62 1.259 . S
C54 O63 1.289 1_565 S
C55 O64 1.246 . S
C55 O65 1.257 . S
C56 O44 1.251 . S
C56 O45 1.274 . S
C57 O42 1.245 . S
C57 O43 1.257 . S
C58 O47 1.259 . S
C58 O48 1.289 . S
C59 O46 1.246 . S
C59 O49 1.257 . S
C60 O50 1.274 . S
C60 O51 1.251 . S
C61 O52 1.257 . S
C61 O53 1.245 . S
O62 Co33 2.286 1_565 S
O62 C54 1.259 . S
O63 Co33 2.069 . S
O63 C54 1.289 1_545 S
O64 Co35 2.143 . S
O64 C55 1.246 . S
O65 Co33 2.015 . S
O65 C55 1.257 . S
Co66 O69 2.042 . S
Co66 O76 2.264 . S
Co66 O95 2.286 . S
Co66 O96 2.069 . S
Co66 O98 2.015 . S
Co67 O69 2.122 . S
Co67 O75 2.073 . S
Co67 O76 2.327 . S
Co67 O77 1.976 . S
Co68 O69 2.087 . S
Co68 O71 2.087 . S
Co68 O78 2.111 . S
Co68 O79 2.143 . S
Co68 O83 2.111 . S
Co68 O97 2.143 . S
O69 Co66 2.042 . S
O69 Co67 2.122 . S
O69 Co68 2.087 . S
O69 H70 0.980 . S
H70 O69 0.980 . S
O71 Co68 2.087 . S
O71 Co72 2.042 . S
O71 Co73 2.122 . S
O71 H74 0.980 . S
Co72 O71 2.042 . S
Co72 O80 2.286 . S
Co72 O81 2.069 . S
Co72 O82 2.015 . S
Co72 O85 2.264 . S
Co73 O71 2.122 . S
Co73 O84 1.976 . S
Co73 O85 2.327 . S
Co73 O86 2.073 . S
H74 O71 0.980 . S
O75 Co67 2.073 . S
O75 C90 1.245 . S
O76 Co66 2.264 . S
O76 Co67 2.327 . S
O76 C90 1.257 . S
O77 Co67 1.976 . S
O77 C89 1.251 . S
O78 Co68 2.111 . S
O78 C89 1.274 . S
O79 Co68 2.143 . S
O79 C92 1.246 . S
O80 Co72 2.286 . S
O80 C91 1.259 . S
O81 Co72 2.069 . S
O81 C91 1.289 . S
O82 Co72 2.015 . S
O82 C92 1.257 . S
O83 Co68 2.111 . S
O83 C93 1.274 . S
O84 Co73 1.976 . S
O84 C93 1.251 . S
O85 Co72 2.264 . S
O85 Co73 2.327 . S
O85 C94 1.257 . S
O86 Co73 2.073 . S
O86 C94 1.245 . S
C87 O95 1.259 . S
C87 O96 1.289 . S
C88 O97 1.246 . S
C88 O98 1.257 . S
C89 O77 1.251 . S
C89 O78 1.274 . S
C90 O75 1.245 . S
C90 O76 1.257 . S
C91 O80 1.259 . S
C91 O81 1.289 . S
C92 O79 1.246 . S
C92 O82 1.257 . S
C93 O83 1.274 . S
C93 O84 1.251 . S
C94 O85 1.257 . S
C94 O86 1.245 . S
O95 Co66 2.286 . S
O95 C87 1.259 . S
O96 Co66 2.069 . S
O96 C87 1.289 . S
O97 Co68 2.143 . S
O97 C88 1.246 . S
O98 Co66 2.015 . S
O98 C88 1.257 . S
Co99 O102 2.042 . S
Co99 O109 2.264 . S
Co99 O128 2.286 1_655 S
Co99 O129 2.069 . S
Co99 O131 2.015 . S
Co100 O102 2.122 . S
Co100 O108 2.073 . S
Co100 O109 2.327 . S
Co100 O110 1.976 . S
Co101 O102 2.087 . S
Co101 O104 2.087 . S
Co101 O111 2.111 . S
Co101 O112 2.143 . S
Co101 O116 2.111 . S
Co101 O130 2.143 . S
O102 Co99 2.042 . S
O102 Co100 2.122 . S
O102 Co101 2.087 . S
O102 H103 0.980 . S
H103 O102 0.980 . S
O104 Co101 2.087 . S
O104 Co105 2.042 . S
O104 Co106 2.122 . S
O104 H107 0.980 . S
Co105 O104 2.042 . S
Co105 O113 2.286 . S
Co105 O114 2.069 . S
Co105 O115 2.015 . S
Co105 O118 2.264 . S
Co106 O104 2.122 . S
Co106 O117 1.976 . S
Co106 O118 2.327 . S
Co106 O119 2.073 . S
H107 O104 0.980 . S
O108 Co100 2.073 . S
O108 C123 1.245 . S
O109 Co99 2.264 . S
O109 Co100 2.327 . S
O109 C123 1.257 . S
O110 Co100 1.976 . S
O110 C122 1.251 . S
O111 Co101 2.111 . S
O111 C122 1.274 . S
O112 Co101 2.143 . S
O112 C125 1.246 . S
O113 Co105 2.286 . S
O113 C124 1.259 . S
O114 Co105 2.069 . S
O114 C124 1.289 . S
O115 Co105 2.015 . S
O115 C125 1.257 . S
O116 Co101 2.111 . S
O116 C126 1.274 . S
O117 Co106 1.976 . S
O117 C126 1.251 . S
O118 Co105 2.264 . S
O118 Co106 2.327 . S
O118 C127 1.257 . S
O119 Co106 2.073 . S
O119 C127 1.245 . S
C120 O128 1.259 . S
C120 O129 1.289 1_455 S
C121 O130 1.246 . S
C121 O131 1.257 . S
C122 O110 1.251 . S
C122 O111 1.274 . S
C123 O108 1.245 . S
C123 O109 1.257 . S
C124 O113 1.259 . S
C124 O114 1.289 . S
C125 O112 1.246 . S
C125 O115 1.257 . S
C126 O116 1.274 . S
C126 O117 1.251 . S
C127 O118 1.257 . S
C127 O119 1.245 . S
O128 Co99 2.286 1_455 S
O128 C120 1.259 . S
O129 Co99 2.069 . S
O129 C120 1.289 1_655 S
O130 Co101 2.143 . S
O130 C121 1.246 . S
O131 Co99 2.015 . S
O131 C121 1.257 . S
Co132 O135 2.042 . S
Co132 O142 2.264 . S
Co132 O161 2.286 . S
Co132 O162 2.069 . S
Co132 O164 2.015 . S
Co133 O135 2.122 . S
Co133 O141 2.073 . S
Co133 O142 2.327 . S
Co133 O143 1.976 . S
Co134 O135 2.087 . S
Co134 O137 2.087 . S
Co134 O144 2.111 . S
Co134 O145 2.143 . S
Co134 O149 2.111 . S
Co134 O163 2.143 . S
O135 Co132 2.042 . S
O135 Co133 2.122 . S
O135 Co134 2.087 . S
O135 H136 0.980 . S
H136 O135 0.980 . S
O137 Co134 2.087 . S
O137 Co138 2.042 . S
O137 Co139 2.122 . S
O137 H140 0.980 . S
Co138 O137 2.042 . S
Co138 O146 2.286 1_565 S
Co138 O147 2.069 . S
Co138 O148 2.015 . S
Co138 O151 2.264 . S
Co139 O137 2.122 . S
Co139 O150 1.976 . S
Co139 O151 2.327 . S
Co139 O152 2.073 . S
H140 O137 0.980 . S
O141 Co133 2.073 . S
O141 C156 1.245 . S
O142 Co132 2.264 . S
O142 Co133 2.327 . S
O142 C156 1.257 . S
O143 Co133 1.976 . S
O143 C155 1.251 . S
O144 Co134 2.111 . S
O144 C155 1.274 . S
O145 Co134 2.143 . S
O145 C158 1.246 . S
O146 Co138 2.286 1_545 S
O146 C157 1.259 . S
O147 Co138 2.069 . S
O147 C157 1.289 1_565 S
O148 Co138 2.015 . S
O148 C158 1.257 . S
O149 Co134 2.111 . S
O149 C159 1.274 . S
O150 Co139 1.976 . S
O150 C159 1.251 . S
O151 Co138 2.264 . S
O151 Co139 2.327 . S
O151 C160 1.257 . S
O152 Co139 2.073 . S
O152 C160 1.245 . S
C153 O161 1.259 . S
C153 O162 1.289 . S
C154 O163 1.246 . S
C154 O164 1.257 . S
C155 O143 1.251 . S
C155 O144 1.274 . S
C156 O141 1.245 . S
C156 O142 1.257 . S
C157 O146 1.259 . S
C157 O147 1.289 1_545 S
C158 O145 1.246 . S
C158 O148 1.257 . S
C159 O149 1.274 . S
C159 O150 1.251 . S
C160 O151 1.257 . S
C160 O152 1.245 . S
O161 Co132 2.286 . S
O161 C153 1.259 . S
O162 Co132 2.069 . S
O162 C153 1.289 . S
O163 Co134 2.143 . S
O163 C154 1.246 . S
O164 Co132 2.015 . S
O164 C154 1.257 . S
Co165 O168 2.042 . S
Co165 O175 2.264 . S
Co165 O194 2.286 . S
Co165 O195 2.069 . S
Co165 O197 2.015 . S
Co166 O168 2.122 . S
Co166 O174 2.073 . S
Co166 O175 2.327 . S
Co166 O176 1.976 . S
Co167 O168 2.087 . S
Co167 O170 2.087 . S
Co167 O177 2.111 . S
Co167 O178 2.143 . S
Co167 O182 2.111 . S
Co167 O196 2.143 . S
O168 Co165 2.042 . S
O168 Co166 2.122 . S
O168 Co167 2.087 . S
O168 H169 0.980 . S
H169 O168 0.980 . S
O170 Co167 2.087 . S
O170 Co171 2.042 . S
O170 Co172 2.122 . S
O170 H173 0.980 . S
Co171 O170 2.042 . S
Co171 O179 2.286 . S
Co171 O180 2.069 . S
Co171 O181 2.015 . S
Co171 O184 2.264 . S
Co172 O170 2.122 . S
Co172 O183 1.976 . S
Co172 O184 2.327 . S
Co172 O185 2.073 . S
H173 O170 0.980 . S
O174 Co166 2.073 . S
O174 C189 1.245 . S
O175 Co165 2.264 . S
O175 Co166 2.327 . S
O175 C189 1.257 . S
O176 Co166 1.976 . S
O176 C188 1.251 . S
O177 Co167 2.111 . S
O177 C188 1.274 . S
O178 Co167 2.143 . S
O178 C191 1.246 . S
O179 Co171 2.286 . S
O179 C190 1.259 . S
O180 Co171 2.069 . S
O180 C190 1.289 . S
O181 Co171 2.015 . S
O181 C191 1.257 . S
O182 Co167 2.111 . S
O182 C192 1.274 . S
O183 Co172 1.976 . S
O183 C192 1.251 . S
O184 Co171 2.264 . S
O184 Co172 2.327 . S
O184 C193 1.257 . S
O185 Co172 2.073 . S
O185 C193 1.245 . S
C186 O194 1.259 . S
C186 O195 1.289 . S
C187 O196 1.246 . S
C187 O197 1.257 . S
C188 O176 1.251 . S
C188 O177 1.274 . S
C189 O174 1.245 . S
C189 O175 1.257 . S
C190 O179 1.259 . S
C190 O180 1.289 . S
C191 O178 1.246 . S
C191 O181 1.257 . S
C192 O182 1.274 . S
C192 O183 1.251 . S
C193 O184 1.257 . S
C193 O185 1.245 . S
O194 Co165 2.286 . S
O194 C186 1.259 . S
O195 Co165 2.069 . S
O195 C186 1.289 . S
O196 Co167 2.143 . S
O196 C187 1.246 . S
O197 Co165 2.015 . S
O197 C187 1.257 . S
C198 C199 1.369 . S
C198 C200 1.419 . S
C198 H202 0.930 . S
C199 C198 1.369 . S
C199 C208 1.429 . S
C200 C198 1.419 . S
C200 C201 1.363 . S
C200 H203 0.929 . S
C201 C200 1.363 . S
C201 C207 1.428 . S
H202 C198 0.930 . S
H203 C200 0.929 . S
S204 N205 1.613 . S
S204 N206 1.610 . S
N205 S204 1.613 . S
N205 C208 1.350 . S
N206 S204 1.610 . S
N206 C207 1.351 . S
C207 C201 1.428 . S
C207 N206 1.351 . S
C207 C208 1.434 . S
C208 C199 1.429 . S
C208 N205 1.350 . S
C208 C207 1.434 . S
C209 C210 1.369 . S
C209 C211 1.419 . S
C209 H213 0.930 . S
C210 C209 1.369 . S
C210 C219 1.429 . S
C211 C209 1.419 . S
C211 C212 1.363 . S
C211 H214 0.929 . S
C212 C211 1.363 . S
C212 C218 1.428 . S
H213 C209 0.930 . S
H214 C211 0.929 . S
S215 N216 1.613 . S
S215 N217 1.610 . S
N216 S215 1.613 . S
N216 C219 1.350 . S
N217 S215 1.610 . S
N217 C218 1.351 . S
C218 C212 1.428 . S
C218 N217 1.351 . S
C218 C219 1.434 . S
C219 C210 1.429 . S
C219 N216 1.350 . S
C219 C218 1.434 . S
C220 C221 1.369 . S
C220 C222 1.419 . S
C220 H224 0.930 . S
C221 C220 1.369 . S
C221 C230 1.429 . S
C222 C220 1.419 . S
C222 C223 1.363 . S
C222 H225 0.929 . S
C223 C222 1.363 . S
C223 C229 1.428 . S
H224 C220 0.930 . S
H225 C222 0.929 . S
S226 N227 1.613 . S
S226 N228 1.610 . S
N227 S226 1.613 . S
N227 C230 1.350 . S
N228 S226 1.610 . S
N228 C229 1.351 . S
C229 C223 1.428 . S
C229 N228 1.351 . S
C229 C230 1.434 . S
C230 C221 1.429 . S
C230 N227 1.350 . S
C230 C229 1.434 . S
C231 C232 1.369 . S
C231 C233 1.419 . S
C231 H235 0.930 . S
C232 C231 1.369 . S
C232 C241 1.429 . S
C233 C231 1.419 . S
C233 C234 1.363 . S
C233 H236 0.929 . S
C234 C233 1.363 . S
C234 C240 1.428 . S
H235 C231 0.930 . S
H236 C233 0.929 . S
S237 N238 1.613 . S
S237 N239 1.610 . S
N238 S237 1.613 . S
N238 C241 1.350 . S
N239 S237 1.610 . S
N239 C240 1.351 . S
C240 C234 1.428 . S
C240 N239 1.351 . S
C240 C241 1.434 . S
C241 C232 1.429 . S
C241 N238 1.350 . S
C241 C240 1.434 . S
C242 C243 1.369 . S
C242 C244 1.419 . S
C242 H246 0.930 . S
C243 C242 1.369 . S
C243 C252 1.429 . S
C244 C242 1.419 . S
C244 C245 1.363 . S
C244 H247 0.929 . S
C245 C244 1.363 . S
C245 C251 1.428 . S
H246 C242 0.930 . S
H247 C244 0.929 . S
S248 N249 1.613 . S
S248 N250 1.610 . S
N249 S248 1.613 . S
N249 C252 1.350 . S
N250 S248 1.610 . S
N250 C251 1.351 . S
C251 C245 1.428 . S
C251 N250 1.351 . S
C251 C252 1.434 . S
C252 C243 1.429 . S
C252 N249 1.350 . S
C252 C251 1.434 . S
C253 C254 1.369 . S
C253 C255 1.419 . S
C253 H257 0.930 . S
C254 C253 1.369 . S
C254 C263 1.429 . S
C255 C253 1.419 . S
C255 C256 1.363 . S
C255 H258 0.929 . S
C256 C255 1.363 . S
C256 C262 1.428 . S
H257 C253 0.930 . S
H258 C255 0.929 . S
S259 N260 1.613 . S
S259 N261 1.610 . S
N260 S259 1.613 . S
N260 C263 1.350 . S
N261 S259 1.610 . S
N261 C262 1.351 . S
C262 C256 1.428 . S
C262 N261 1.351 . S
C262 C263 1.434 . S
C263 C254 1.429 . S
C263 N260 1.350 . S
C263 C262 1.434 . S
C264 C265 1.369 . S
C264 C266 1.419 . S
C264 H268 0.930 . S
C265 C264 1.369 . S
C265 C274 1.429 . S
C266 C264 1.419 . S
C266 C267 1.363 . S
C266 H269 0.929 . S
C267 C266 1.363 . S
C267 C273 1.428 . S
H268 C264 0.930 . S
H269 C266 0.929 . S
S270 N271 1.609 1_565 S
S270 N272 1.623 . S
N271 S270 1.609 1_545 S
N271 C274 1.350 . S
N272 S270 1.623 . S
N272 C273 1.351 1_565 S
C273 C267 1.428 . S
C273 N272 1.351 1_545 S
C273 C274 1.434 . S
C274 C265 1.429 . S
C274 N271 1.350 . S
C274 C273 1.434 . S
C275 C276 1.369 1_455 S
C275 C277 1.419 . S
C275 H279 0.930 1_455 S
C276 C275 1.369 1_655 S
C276 C285 1.429 . S
C277 C275 1.419 . S
C277 C278 1.363 . S
C277 H280 0.929 . S
C278 C277 1.363 . S
C278 C284 1.428 . S
H279 C275 0.930 1_655 S
H280 C277 0.929 . S
S281 N282 1.613 1_455 S
S281 N283 1.610 . S
N282 S281 1.613 1_655 S
N282 C285 1.350 . S
N283 S281 1.610 . S
N283 C284 1.351 . S
C284 C278 1.428 . S
C284 N283 1.351 . S
C284 C285 1.434 1_455 S
C285 C276 1.429 . S
C285 N282 1.350 . S
C285 C284 1.434 1_655 S
C286 C287 1.369 . S
C286 C288 1.419 . S
C286 H290 0.930 . S
C287 C286 1.369 . S
C287 C296 1.429 . S
C288 C286 1.419 . S
C288 C289 1.363 1_545 S
C288 H291 0.929 1_545 S
C289 C288 1.363 1_565 S
C289 C295 1.428 1_565 S
H290 C286 0.930 . S
H291 C288 0.929 1_565 S
S292 N293 1.613 . S
S292 N294 1.610 1_545 S
N293 S292 1.613 . S
N293 C296 1.350 . S
N294 S292 1.610 1_565 S
N294 C295 1.351 1_565 S
C295 C289 1.428 1_545 S
C295 N294 1.351 1_545 S
C295 C296 1.434 . S
C296 C287 1.429 . S
C296 N293 1.350 . S
C296 C295 1.434 . S
C297 C298 1.369 . S
C297 C299 1.419 . S
C297 H301 0.930 . S
C298 C297 1.369 . S
C298 C307 1.429 . S
C299 C297 1.419 . S
C299 C300 1.363 . S
C299 H302 0.929 . S
C300 C299 1.363 . S
C300 C306 1.428 . S
H301 C297 0.930 . S
H302 C299 0.929 . S
S303 N304 1.613 . S
S303 N305 1.610 . S
N304 S303 1.613 . S
N304 C307 1.350 . S
N305 S303 1.610 . S
N305 C306 1.351 . S
C306 C300 1.428 . S
C306 N305 1.351 . S
C306 C307 1.434 . S
C307 C298 1.429 . S
C307 N304 1.350 . S
C307 C306 1.434 . S
C308 C309 1.369 . S
C308 C310 1.419 . S
C308 H312 0.930 . S
C309 C308 1.369 . S
C309 C318 1.429 . S
C310 C308 1.419 . S
C310 C311 1.363 1_655 S
C310 H313 0.929 1_655 S
C311 C310 1.363 1_455 S
C311 C317 1.428 1_455 S
H312 C308 0.930 . S
H313 C310 0.929 1_455 S
S314 N315 1.613 . S
S314 N316 1.610 1_655 S
N315 S314 1.613 . S
N315 C318 1.350 . S
N316 S314 1.610 1_455 S
N316 C317 1.351 1_455 S
C317 C311 1.428 1_655 S
C317 N316 1.351 1_655 S
C317 C318 1.434 . S
C318 C309 1.429 . S
C318 N315 1.350 . S
C318 C317 1.434 . S
C319 C320 1.369 . S
C319 C321 1.419 1_545 S
C319 H323 0.930 . S
C320 C319 1.369 . S
C320 C329 1.429 1_545 S
C321 C319 1.419 1_565 S
C321 C322 1.363 . S
C321 H324 0.929 1_455 S
C322 C321 1.363 . S
C322 C328 1.428 . S
H323 C319 0.930 . S
H324 C321 0.929 1_655 S
S325 N326 1.613 1_565 S
S325 N327 1.610 . S
N326 S325 1.613 1_545 S
N326 C329 1.350 1_545 S
N327 S325 1.610 . S
N327 C328 1.351 . S
C328 C322 1.428 . S
C328 N327 1.351 . S
C328 C329 1.434 . S
C329 C320 1.429 1_565 S
C329 N326 1.350 1_565 S
C329 C328 1.434 . S
C330 C331 1.369 1_556 S
C330 C332 1.419 . S
C330 H334 0.930 . S
C331 C330 1.369 1_554 S
C331 C340 1.429 . S
C332 C330 1.419 . S
C332 C333 1.363 . S
C332 H335 0.929 . S
C333 C332 1.363 . S
C333 C339 1.428 1_556 S
H334 C330 0.930 . S
H335 C332 0.929 . S
S336 N337 1.613 . S
S336 N338 1.610 . S
N337 S336 1.613 . S
N337 C340 1.350 . S
N338 S336 1.610 . S
N338 C339 1.351 . S
C339 C333 1.428 1_554 S
C339 N338 1.351 . S
C339 C340 1.434 . S
C340 C331 1.429 . S
C340 N337 1.350 . S
C340 C339 1.434 . S
C341 C342 1.369 . S
C341 C343 1.419 1_655 S
C341 H345 0.930 . S
C342 C341 1.369 . S
C342 C351 1.429 . S
C343 C341 1.419 1_455 S
C343 C344 1.363 . S
C343 H346 0.929 . S
C344 C343 1.363 . S
C344 C350 1.428 1_455 S
H345 C341 0.930 . S
H346 C343 0.929 . S
S347 N348 1.613 . S
S347 N349 1.610 . S
N348 S347 1.613 . S
N348 C351 1.350 . S
N349 S347 1.610 . S
N349 C350 1.351 . S
C350 C344 1.428 1_655 S
C350 N349 1.351 . S
C350 C351 1.434 . S
C351 C342 1.429 . S
C351 N348 1.350 . S
C351 C350 1.434 . S
C352 C353 1.369 . S
C352 C354 1.419 1_565 S
C352 H356 0.930 . S
C353 C352 1.369 . S
C353 C362 1.429 1_554 S
C354 C352 1.419 1_545 S
C354 C355 1.363 1_554 S
C354 H357 0.929 . S
C355 C354 1.363 1_556 S
C355 C361 1.428 1_545 S
H356 C352 0.930 . S
H357 C354 0.929 . S
S358 N359 1.613 . S
S358 N360 1.610 . S
N359 S358 1.613 . S
N359 C362 1.350 . S
N360 S358 1.610 . S
N360 C361 1.351 . S
C361 C355 1.428 1_565 S
C361 N360 1.351 . S
C361 C362 1.434 . S
C362 C353 1.429 1_556 S
C362 N359 1.350 . S
C362 C361 1.434 . S
C363 C364 1.369 . S
C363 C365 1.419 . S
C363 H367 0.930 . S
C364 C363 1.369 . S
C364 C373 1.429 . S
C365 C363 1.419 . S
C365 C366 1.363 . S
C365 H368 0.929 . S
C366 C365 1.363 . S
C366 C372 1.428 . S
H367 C363 0.930 . S
H368 C365 0.929 . S
S369 N370 1.613 . S
S369 N371 1.610 . S
N370 S369 1.613 . S
N370 C373 1.350 . S
N371 S369 1.610 . S
N371 C372 1.351 . S
C372 C366 1.428 . S
C372 N371 1.351 . S
C372 C373 1.434 . S
C373 C364 1.429 . S
C373 N370 1.350 . S
C373 C372 1.434 . S
C374 C375 1.369 1_554 S
C374 C376 1.419 1_655 S
C374 H378 0.930 . S
C375 C374 1.369 1_556 S
C375 C384 1.429 1_655 S
C376 C374 1.419 1_455 S
C376 C377 1.363 . S
C376 H379 0.929 . S
C377 C376 1.363 . S
C377 C383 1.428 1_554 S
H378 C374 0.930 . S
H379 C376 0.929 . S
S380 N381 1.613 . S
S380 N382 1.610 . S
N381 S380 1.613 . S
N381 C384 1.350 . S
N382 S380 1.610 . S
N382 C383 1.351 . S
C383 C377 1.428 1_556 S
C383 N382 1.351 . S
C383 C384 1.434 . S
C384 C375 1.429 1_455 S
C384 N381 1.350 . S
C384 C383 1.434 . S
C385 C386 1.369 . S
C385 C387 1.419 . S
C385 H389 0.930 . S
C386 C385 1.369 . S
C386 C395 1.429 . S
C387 C385 1.419 . S
C387 C388 1.363 1_545 S
C387 H390 0.936 1_545 S
C388 C387 1.363 1_565 S
C388 C394 1.428 . S
H389 C385 0.930 . S
H390 C387 0.936 1_565 S
S391 N392 1.613 1_565 S
S391 N393 1.610 . S
N392 S391 1.613 1_545 S
N392 C395 1.350 . S
N393 S391 1.610 . S
N393 C394 1.351 . S
C394 C388 1.428 . S
C394 N393 1.351 . S
C394 C395 1.434 1_565 S
C395 C386 1.429 . S
C395 N392 1.350 . S
C395 C394 1.434 1_545 S
C396 C397 1.369 . S
C396 C398 1.419 . S
C396 H400 0.930 . S
C397 C396 1.369 . S
C397 C406 1.429 1_556 S
C398 C396 1.419 . S
C398 C399 1.363 1_556 S
C398 H401 0.929 . S
C399 C398 1.363 1_554 S
C399 C405 1.428 . S
H400 C396 0.930 . S
H401 C398 0.929 . S
S402 N403 1.613 . S
S402 N404 1.610 . S
N403 S402 1.613 . S
N403 C406 1.350 . S
N404 S402 1.610 . S
N404 C405 1.351 . S
C405 C399 1.428 . S
C405 N404 1.351 . S
C405 C406 1.434 . S
C406 C397 1.429 1_554 S
C406 N403 1.350 . S
C406 C405 1.434 . S
C407 C408 1.369 . S
C407 C409 1.419 1_455 S
C407 H411 0.930 . S
C408 C407 1.369 . S
C408 C417 1.429 . S
C409 C407 1.419 1_655 S
C409 C410 1.363 . S
C409 H412 0.929 . S
C410 C409 1.363 . S
C410 C416 1.428 . S
H411 C407 0.930 . S
H412 C409 0.929 . S
S413 N414 1.613 . S
S413 N415 1.610 1_455 S
N414 S413 1.613 . S
N414 C417 1.350 . S
N415 S413 1.610 1_655 S
N415 C416 1.351 . S
C416 C410 1.428 . S
C416 N415 1.351 . S
C416 C417 1.434 1_655 S
C417 C408 1.429 . S
C417 N414 1.350 . S
C417 C416 1.434 1_455 S
C418 C419 1.369 . S
C418 C420 1.419 1_545 S
C418 H422 0.930 . S
C419 C418 1.369 . S
C419 C428 1.429 1_556 S
C420 C418 1.419 1_565 S
C420 C421 1.363 1_556 S
C420 H423 0.929 . S
C421 C420 1.363 1_554 S
C421 C427 1.428 1_565 S
H422 C418 0.930 . S
H423 C420 0.929 . S
S424 N425 1.613 . S
S424 N426 1.610 . S
N425 S424 1.613 . S
N425 C428 1.350 . S
N426 S424 1.610 . S
N426 C427 1.351 . S
C427 C421 1.428 1_545 S
C427 N426 1.351 . S
C427 C428 1.434 . S
C428 C419 1.429 1_554 S
C428 N425 1.350 . S
C428 C427 1.434 . S
C429 C430 1.369 . S
C429 C431 1.419 . S
C429 H433 0.930 . S
C430 C429 1.369 . S
C430 C439 1.429 . S
C431 C429 1.419 . S
C431 C432 1.363 . S
C431 H434 0.929 . S
C432 C431 1.363 . S
C432 C438 1.428 . S
H433 C429 0.930 . S
H434 C431 0.929 . S
S435 N436 1.613 . S
S435 N437 1.610 . S
N436 S435 1.613 . S
N436 C439 1.350 . S
N437 S435 1.610 . S
N437 C438 1.351 . S
C438 C432 1.428 . S
C438 N437 1.351 . S
C438 C439 1.434 . S
C439 C430 1.429 . S
C439 N436 1.350 . S
C439 C438 1.434 . S
C440 C441 1.369 1_655 S
C440 C442 1.419 1_554 S
C440 H444 0.930 1_655 S
C441 C440 1.369 1_455 S
C441 C450 1.429 . S
C442 C440 1.419 1_556 S
C442 C443 1.363 . S
C442 H445 0.929 . S
C443 C442 1.363 . S
C443 C449 1.428 . S
H444 C440 0.930 1_455 S
H445 C442 0.929 . S
S446 N447 1.613 1_556 S
S446 N448 1.610 1_455 S
N447 S446 1.613 1_554 S
N447 C450 1.350 . S
N448 S446 1.610 1_655 S
N448 C449 1.351 . S
C449 C443 1.428 . S
C449 N448 1.351 . S
C449 C450 1.434 1_656 S
C450 C441 1.429 . S
C450 N447 1.350 . S
C450 C449 1.434 1_454 S
C451 C452 1.369 . S
C451 C453 1.419 1_545 S
C451 H455 0.930 . S
C452 C451 1.369 . S
C452 C461 1.429 1_545 S
C453 C451 1.419 1_565 S
C453 C454 1.363 . S
C453 H456 0.929 . S
C454 C453 1.363 . S
C454 C460 1.428 . S
H455 C451 0.930 . S
H456 C453 0.929 . S
S457 N458 1.613 . S
S457 N459 1.610 . S
N458 S457 1.613 . S
N458 C461 1.350 . S
N459 S457 1.610 . S
N459 C460 1.351 . S
C460 C454 1.428 . S
C460 N459 1.351 . S
C460 C461 1.434 . S
C461 C452 1.429 1_565 S
C461 N458 1.350 . S
C461 C460 1.434 . S
C199 C24 1.921 . S
C201 C153 1.980 . S
C210 C190 1.979 . S
C212 C61 1.919 . S
C221 C21 1.979 . S
C223 C90 1.919 . S
C232 C58 1.979 . S
C234 C127 1.920 . S
C243 C156 1.921 . S
C245 C87 1.980 . S
C254 C193 1.917 . S
C256 C124 1.979 . S
C265 C28 0.668 . S
C267 C157 0.456 . S
C276 C57 0.657 . S
C278 C186 0.452 . S
C287 C25 0.457 . S
C289 C94 0.643 . S
C298 C54 0.460 . S
C300 C123 0.647 . S
C309 C91 0.457 . S
C311 C160 0.643 . S
C320 C189 0.640 . S
C322 C120 0.459 . S
C331 C27 1.985 . S
C333 C187 2.143 . S
C342 C59 2.603 . S
C344 C23 2.446 . S
C353 C93 1.996 . S
C355 C55 2.137 . S
C364 C125 2.598 . S
C366 C89 2.451 . S
C375 C121 2.141 . S
C377 C159 1.993 . S
C386 C191 2.599 . S
C388 C155 2.448 . S
C397 C122 1.995 . S
C399 C92 2.140 . S
C408 C154 2.602 . S
C410 C126 2.450 . S
C419 C188 1.994 . S
C421 C158 2.136 . S
C430 C192 2.448 . S
C432 C22 2.599 . S
C441 C26 2.142 . S
C443 C56 1.992 . S
C452 C60 2.445 . S
C454 C88 2.602 . S
