# Generated by pormake.
# Topology uka, (4)-cn, num edge types: 1
# Building blocks:
#     Node 0, Type 0, BuildingBlock: ICAMEG_clean_sbu_1, # of connection points: 4
#     Node 1, Type 0, BuildingBlock: ICAMEG_clean_sbu_1, # of connection points: 4
#     Node 2, Type 0, BuildingBlock: ICAMEG_clean_sbu_1, # of connection points: 4
#     Node 3, Type 0, BuildingBlock: ICAMEG_clean_sbu_1, # of connection points: 4
#     Node 4, Type 0, BuildingBlock: ICAMEG_clean_sbu_1, # of connection points: 4
#     Node 5, Type 0, BuildingBlock: ICAMEG_clean_sbu_1, # of connection points: 4
#     Node 6, Type 0, BuildingBlock: ICAMEG_clean_sbu_1, # of connection points: 4
#     Node 7, Type 0, BuildingBlock: ICAMEG_clean_sbu_1, # of connection points: 4
#     Node 8, Type 0, BuildingBlock: ICAMEG_clean_sbu_1, # of connection points: 4
#     Node 9, Type 0, BuildingBlock: ICAMEG_clean_sbu_1, # of connection points: 4
#     Node 10, Type 0, BuildingBlock: ICAMEG_clean_sbu_1, # of connection points: 4
#     Node 11, Type 0, BuildingBlock: ICAMEG_clean_sbu_1, # of connection points: 4
#     Node 12, Type 0, BuildingBlock: ICAMEG_clean_sbu_1, # of connection points: 4
#     Node 13, Type 0, BuildingBlock: ICAMEG_clean_sbu_1, # of connection points: 4
#     Node 14, Type 0, BuildingBlock: ICAMEG_clean_sbu_1, # of connection points: 4
#     Node 15, Type 0, BuildingBlock: ICAMEG_clean_sbu_1, # of connection points: 4
#     Node 16, Type 0, BuildingBlock: ICAMEG_clean_sbu_1, # of connection points: 4
#     Node 17, Type 0, BuildingBlock: ICAMEG_clean_sbu_1, # of connection points: 4
#     Node 18, Type 0, BuildingBlock: ICAMEG_clean_sbu_1, # of connection points: 4
#     Node 19, Type 0, BuildingBlock: ICAMEG_clean_sbu_1, # of connection points: 4
#     Node 20, Type 0, BuildingBlock: ICAMEG_clean_sbu_1, # of connection points: 4
#     Node 21, Type 0, BuildingBlock: ICAMEG_clean_sbu_1, # of connection points: 4
#     Node 22, Type 0, BuildingBlock: ICAMEG_clean_sbu_1, # of connection points: 4
#     Node 23, Type 0, BuildingBlock: ICAMEG_clean_sbu_1, # of connection points: 4
#     Node 24, Type 0, BuildingBlock: ICAMEG_clean_sbu_1, # of connection points: 4
#     Node 25, Type 0, BuildingBlock: ICAMEG_clean_sbu_1, # of connection points: 4
#     Node 26, Type 0, BuildingBlock: ICAMEG_clean_sbu_1, # of connection points: 4
#     Node 27, Type 0, BuildingBlock: ICAMEG_clean_sbu_1, # of connection points: 4
#     Node 28, Type 0, BuildingBlock: ICAMEG_clean_sbu_1, # of connection points: 4
#     Node 29, Type 0, BuildingBlock: ICAMEG_clean_sbu_1, # of connection points: 4
#     Node 30, Type 0, BuildingBlock: ICAMEG_clean_sbu_1, # of connection points: 4
#     Node 31, Type 0, BuildingBlock: ICAMEG_clean_sbu_1, # of connection points: 4
#     Edge 32, Type (0, 0), BuildingBlock: XIVTED_clean_linker_0, # of connection points: 2
#     Edge 33, Type (0, 0), BuildingBlock: XIVTED_clean_linker_0, # of connection points: 2
#     Edge 34, Type (0, 0), BuildingBlock: XIVTED_clean_linker_0, # of connection points: 2
#     Edge 35, Type (0, 0), BuildingBlock: XIVTED_clean_linker_0, # of connection points: 2
#     Edge 36, Type (0, 0), BuildingBlock: XIVTED_clean_linker_0, # of connection points: 2
#     Edge 37, Type (0, 0), BuildingBlock: XIVTED_clean_linker_0, # of connection points: 2
#     Edge 38, Type (0, 0), BuildingBlock: XIVTED_clean_linker_0, # of connection points: 2
#     Edge 39, Type (0, 0), BuildingBlock: XIVTED_clean_linker_0, # of connection points: 2
#     Edge 40, Type (0, 0), BuildingBlock: XIVTED_clean_linker_0, # of connection points: 2
#     Edge 41, Type (0, 0), BuildingBlock: XIVTED_clean_linker_0, # of connection points: 2
#     Edge 42, Type (0, 0), BuildingBlock: XIVTED_clean_linker_0, # of connection points: 2
#     Edge 43, Type (0, 0), BuildingBlock: XIVTED_clean_linker_0, # of connection points: 2
#     Edge 44, Type (0, 0), BuildingBlock: XIVTED_clean_linker_0, # of connection points: 2
#     Edge 45, Type (0, 0), BuildingBlock: XIVTED_clean_linker_0, # of connection points: 2
#     Edge 46, Type (0, 0), BuildingBlock: XIVTED_clean_linker_0, # of connection points: 2
#     Edge 47, Type (0, 0), BuildingBlock: XIVTED_clean_linker_0, # of connection points: 2
#     Edge 48, Type (0, 0), BuildingBlock: XIVTED_clean_linker_0, # of connection points: 2
#     Edge 49, Type (0, 0), BuildingBlock: XIVTED_clean_linker_0, # of connection points: 2
#     Edge 50, Type (0, 0), BuildingBlock: XIVTED_clean_linker_0, # of connection points: 2
#     Edge 51, Type (0, 0), BuildingBlock: XIVTED_clean_linker_0, # of connection points: 2
#     Edge 52, Type (0, 0), BuildingBlock: XIVTED_clean_linker_0, # of connection points: 2
#     Edge 53, Type (0, 0), BuildingBlock: XIVTED_clean_linker_0, # of connection points: 2
#     Edge 54, Type (0, 0), BuildingBlock: XIVTED_clean_linker_0, # of connection points: 2
#     Edge 55, Type (0, 0), BuildingBlock: XIVTED_clean_linker_0, # of connection points: 2
#     Edge 56, Type (0, 0), BuildingBlock: XIVTED_clean_linker_0, # of connection points: 2
#     Edge 57, Type (0, 0), BuildingBlock: XIVTED_clean_linker_0, # of connection points: 2
#     Edge 58, Type (0, 0), BuildingBlock: XIVTED_clean_linker_0, # of connection points: 2
#     Edge 59, Type (0, 0), BuildingBlock: XIVTED_clean_linker_0, # of connection points: 2
#     Edge 60, Type (0, 0), BuildingBlock: XIVTED_clean_linker_0, # of connection points: 2
#     Edge 61, Type (0, 0), BuildingBlock: XIVTED_clean_linker_0, # of connection points: 2
#     Edge 62, Type (0, 0), BuildingBlock: XIVTED_clean_linker_0, # of connection points: 2
#     Edge 63, Type (0, 0), BuildingBlock: XIVTED_clean_linker_0, # of connection points: 2
#     Edge 64, Type (0, 0), BuildingBlock: XIVTED_clean_linker_0, # of connection points: 2
#     Edge 65, Type (0, 0), BuildingBlock: XIVTED_clean_linker_0, # of connection points: 2
#     Edge 66, Type (0, 0), BuildingBlock: XIVTED_clean_linker_0, # of connection points: 2
#     Edge 67, Type (0, 0), BuildingBlock: XIVTED_clean_linker_0, # of connection points: 2
#     Edge 68, Type (0, 0), BuildingBlock: XIVTED_clean_linker_0, # of connection points: 2
#     Edge 69, Type (0, 0), BuildingBlock: XIVTED_clean_linker_0, # of connection points: 2
#     Edge 70, Type (0, 0), BuildingBlock: XIVTED_clean_linker_0, # of connection points: 2
#     Edge 71, Type (0, 0), BuildingBlock: XIVTED_clean_linker_0, # of connection points: 2
#     Edge 72, Type (0, 0), BuildingBlock: XIVTED_clean_linker_0, # of connection points: 2
#     Edge 73, Type (0, 0), BuildingBlock: XIVTED_clean_linker_0, # of connection points: 2
#     Edge 74, Type (0, 0), BuildingBlock: XIVTED_clean_linker_0, # of connection points: 2
#     Edge 75, Type (0, 0), BuildingBlock: XIVTED_clean_linker_0, # of connection points: 2
#     Edge 76, Type (0, 0), BuildingBlock: XIVTED_clean_linker_0, # of connection points: 2
#     Edge 77, Type (0, 0), BuildingBlock: XIVTED_clean_linker_0, # of connection points: 2
#     Edge 78, Type (0, 0), BuildingBlock: XIVTED_clean_linker_0, # of connection points: 2
#     Edge 79, Type (0, 0), BuildingBlock: XIVTED_clean_linker_0, # of connection points: 2
#     Edge 80, Type (0, 0), BuildingBlock: XIVTED_clean_linker_0, # of connection points: 2
#     Edge 81, Type (0, 0), BuildingBlock: XIVTED_clean_linker_0, # of connection points: 2
#     Edge 82, Type (0, 0), BuildingBlock: XIVTED_clean_linker_0, # of connection points: 2
#     Edge 83, Type (0, 0), BuildingBlock: XIVTED_clean_linker_0, # of connection points: 2
#     Edge 84, Type (0, 0), BuildingBlock: XIVTED_clean_linker_0, # of connection points: 2
#     Edge 85, Type (0, 0), BuildingBlock: XIVTED_clean_linker_0, # of connection points: 2
#     Edge 86, Type (0, 0), BuildingBlock: XIVTED_clean_linker_0, # of connection points: 2
#     Edge 87, Type (0, 0), BuildingBlock: XIVTED_clean_linker_0, # of connection points: 2
#     Edge 88, Type (0, 0), BuildingBlock: XIVTED_clean_linker_0, # of connection points: 2
#     Edge 89, Type (0, 0), BuildingBlock: XIVTED_clean_linker_0, # of connection points: 2
#     Edge 90, Type (0, 0), BuildingBlock: XIVTED_clean_linker_0, # of connection points: 2
#     Edge 91, Type (0, 0), BuildingBlock: XIVTED_clean_linker_0, # of connection points: 2
#     Edge 92, Type (0, 0), BuildingBlock: XIVTED_clean_linker_0, # of connection points: 2
#     Edge 93, Type (0, 0), BuildingBlock: XIVTED_clean_linker_0, # of connection points: 2
#     Edge 94, Type (0, 0), BuildingBlock: XIVTED_clean_linker_0, # of connection points: 2
#     Edge 95, Type (0, 0), BuildingBlock: XIVTED_clean_linker_0, # of connection points: 2
# Relax obj value: 0.036
# Max RMSD: 0.067
# Mean RMSD: 0.067
data_MOF--net-uka--node1-ICAMEG_clean_sbu_1--edge1-XIVTED_clean_linker_0
_symmetry_space_group_name_H-M    P1
_symmetry_Int_Tables_number       1
_symmetry_cell_setting            triclinic
loop_
_symmetry_equiv_pos_as_xyz
'x, y, z'
_cell_length_a     63.302756
_cell_length_b     63.304205
_cell_length_c     47.017161
_cell_angle_alpha  89.999457
_cell_angle_beta   90.000593
_cell_angle_gamma 89.991469
loop_
_atom_site_label
_atom_site_type_symbol
_atom_site_fract_x
_atom_site_fract_y
_atom_site_fract_z
_atom_type_partial_charge
Co0 Co 0.10748 0.279 0.26292 0.0
Co1 Co 0.146 0.30242 0.30443 0.0
O2 O 0.13517 0.29187 0.26818 0.0
C3 C 0.10862 0.31352 0.22005 0.0
O4 O 0.11684 0.32617 0.23919 0.0
C5 C 0.17701 0.27088 0.28541 0.0
O6 O 0.16086 0.25819 0.2816 0.0
O7 O 0.13727 0.2762 0.32494 0.0
O8 O 0.11052 0.26284 0.29901 0.0
H9 H 0.14348 0.31853 0.40903 0.0
H10 H 0.13997 0.27656 0.21762 0.0
O11 O 0.10393 0.29454 0.22638 0.0
H12 H 0.12221 0.20263 0.24041 0.0
H13 H 0.04909 0.24554 0.20573 0.0
H14 H 0.07101 0.27041 0.30066 0.0
H15 H 0.10407 0.23201 0.26473 0.0
H16 H 0.0845 0.26086 0.21311 0.0
O17 O 0.17409 0.28936 0.29541 0.0
H18 H 0.12954 0.30533 0.36338 0.0
H19 H 0.18683 0.32186 0.32199 0.0
H20 H 0.03551 0.25503 0.29428 0.0
H21 H 0.15838 0.24768 0.19259 0.0
H22 H 0.02434 0.2425 0.24653 0.0
H23 H 0.1496 0.2104 0.20405 0.0
O24 O 0.09354 0.30266 0.28368 0.0
H25 H 0.1795 0.344 0.2253 0.0
H26 H 0.14048 0.3484 0.31589 0.0
H27 H 0.1503 0.38117 0.29078 0.0
H28 H 0.16999 0.37909 0.24517 0.0
H29 H 0.16922 0.31163 0.25097 0.0
H30 H 0.20147 0.33509 0.36724 0.0
H31 H 0.1797 0.33354 0.41115 0.0
O32 O 0.11812 0.31547 0.31365 0.0
C33 C 0.12261 0.26274 0.32067 0.0
C34 C 0.1531 0.31934 0.39003 0.0
C35 C 0.18566 0.32861 0.36658 0.0
N36 N 0.15731 0.31295 0.34003 0.0
C37 C 0.14527 0.31194 0.36411 0.0
C38 C 0.17731 0.32105 0.34104 0.0
C39 C 0.17343 0.32774 0.39121 0.0
C40 C 0.13594 0.26037 0.22256 0.0
N41 N 0.12101 0.25596 0.24268 0.0
C42 C 0.14647 0.24409 0.20838 0.0
C43 C 0.14156 0.22318 0.21485 0.0
C44 C 0.12621 0.21881 0.23527 0.0
C45 C 0.11604 0.2355 0.24905 0.0
C46 C 0.05378 0.25092 0.22665 0.0
C47 C 0.06631 0.26485 0.27986 0.0
C48 C 0.07379 0.25966 0.23094 0.0
N49 N 0.07985 0.2664 0.25733 0.0
C50 C 0.04617 0.25621 0.27636 0.0
C51 C 0.0399 0.24921 0.24955 0.0
C52 C 0.09932 0.31488 0.30383 0.0
C53 C 0.17099 0.34512 0.2452 0.0
C54 C 0.149 0.34736 0.29601 0.0
C55 C 0.15456 0.36598 0.28192 0.0
C56 C 0.16561 0.3648 0.25634 0.0
N57 N 0.15436 0.32812 0.28498 0.0
C58 C 0.1652 0.32684 0.2599 0.0
Co59 Co 0.9706 0.85868 0.51548 0.0
Co60 Co 0.94702 0.89794 0.5557 0.0
O61 O 0.95742 0.88636 0.51973 0.0
C62 C 0.93562 0.85838 0.47322 0.0
O63 O 0.92345 0.86831 0.49145 0.0
C64 C 0.97815 0.92885 0.53508 0.0
O65 O 0.99098 0.9128 0.5313 0.0
O66 O 0.97339 0.88975 0.57632 0.0
O67 O 0.98718 0.86295 0.55095 0.0
H68 H 0.93143 0.89743 0.6605 0.0
H69 H 0.97189 0.88975 0.46837 0.0
O70 O 0.95457 0.85369 0.47963 0.0
H71 H 0.04641 0.87401 0.49039 0.0
H72 H 0.00421 0.79924 0.46046 0.0
H73 H 0.98031 0.82344 0.55483 0.0
H74 H 0.01767 0.85617 0.51643 0.0
H75 H 0.98838 0.83457 0.46641 0.0
O76 O 0.95985 0.92587 0.54561 0.0
H77 H 0.94446 0.88264 0.61524 0.0
H78 H 0.92746 0.93902 0.57196 0.0
H79 H 0.99622 0.78804 0.54988 0.0
H80 H 0.0001 0.90784 0.44161 0.0
H81 H 0.00826 0.77572 0.50241 0.0
H82 H 0.03768 0.90007 0.45266 0.0
O83 O 0.94742 0.84499 0.53748 0.0
H84 H 0.90489 0.92992 0.47594 0.0
H85 H 0.90111 0.89241 0.56773 0.0
H86 H 0.86818 0.90172 0.54267 0.0
H87 H 0.86995 0.92065 0.49645 0.0
H88 H 0.93744 0.92014 0.50158 0.0
H89 H 0.9144 0.9545 0.6168 0.0
H90 H 0.91627 0.93362 0.66146 0.0
O91 O 0.93415 0.87024 0.56602 0.0
C92 C 0.98715 0.87534 0.57229 0.0
C93 C 0.93048 0.90666 0.64117 0.0
C94 C 0.92095 0.93871 0.61664 0.0
N95 N 0.9366 0.9099 0.59098 0.0
C96 C 0.93779 0.89835 0.61547 0.0
C97 C 0.92842 0.92988 0.59134 0.0
C98 C 0.92199 0.92698 0.64169 0.0
C99 C 0.9882 0.88617 0.47314 0.0
N100 N 0.99314 0.87195 0.49398 0.0
C101 C 0.00411 0.8965 0.45798 0.0
C102 C 0.02519 0.89216 0.46422 0.0
C103 C 0.0301 0.87756 0.4854 0.0
C104 C 0.01377 0.86756 0.50016 0.0
C105 C 0.99905 0.80443 0.48126 0.0
C106 C 0.98566 0.81824 0.53414 0.0
C107 C 0.99003 0.82441 0.48475 0.0
N108 N 0.98356 0.83111 0.51098 0.0
C109 C 0.9946 0.79816 0.53145 0.0
C110 C 0.00133 0.79125 0.50481 0.0
C111 C 0.93503 0.85119 0.55721 0.0
C112 C 0.90392 0.92173 0.49611 0.0
C113 C 0.90202 0.90058 0.54758 0.0
C114 C 0.88331 0.90586 0.53352 0.0
C115 C 0.88432 0.91649 0.5076 0.0
N116 N 0.92119 0.90581 0.5362 0.0
C117 C 0.92229 0.91623 0.51079 0.0
Co118 Co 0.38738 0.72718 0.76139 0.0
Co119 Co 0.35214 0.70021 0.80435 0.0
O120 O 0.36128 0.71164 0.76774 0.0
C121 C 0.38924 0.69162 0.72025 0.0
O122 O 0.38127 0.67906 0.7397 0.0
C123 C 0.31943 0.73044 0.78724 0.0
O124 O 0.33507 0.74364 0.78288 0.0
O125 O 0.36015 0.7266 0.82522 0.0
O126 O 0.38293 0.74377 0.79669 0.0
H127 H 0.35878 0.68269 0.9082 0.0
H128 H 0.35467 0.72495 0.71639 0.0
O129 O 0.39247 0.71106 0.72562 0.0
H130 H 0.36407 0.80088 0.73605 0.0
H131 H 0.44139 0.76522 0.70168 0.0
H132 H 0.4229 0.7408 0.79812 0.0
H133 H 0.38554 0.77429 0.76126 0.0
H134 H 0.40798 0.74622 0.71035 0.0
O135 O 0.32317 0.71205 0.79707 0.0
H136 H 0.37064 0.69716 0.86217 0.0
H137 H 0.31281 0.67874 0.82367 0.0
H138 H 0.45639 0.7599 0.79045 0.0
H139 H 0.33296 0.751 0.69052 0.0
H140 H 0.46582 0.77223 0.74193 0.0
H141 H 0.33753 0.78927 0.70041 0.0
O142 O 0.40383 0.70572 0.78304 0.0
H143 H 0.3184 0.658 0.72598 0.0
H144 H 0.36012 0.65442 0.81441 0.0
H145 H 0.3512 0.62152 0.78903 0.0
H146 H 0.33016 0.62319 0.74449 0.0
H147 H 0.32783 0.69052 0.75189 0.0
H148 H 0.30025 0.66421 0.86934 0.0
H149 H 0.32334 0.66607 0.91198 0.0
O150 O 0.38099 0.68846 0.81155 0.0
C151 C 0.37242 0.74205 0.81965 0.0
C152 C 0.34859 0.68173 0.88976 0.0
C153 C 0.31573 0.67139 0.86795 0.0
N154 N 0.34248 0.68867 0.84025 0.0
C155 C 0.35525 0.68985 0.86363 0.0
C156 C 0.3229 0.67969 0.84218 0.0
C157 C 0.3287 0.67243 0.89187 0.0
C158 C 0.35688 0.74158 0.72061 0.0
N159 N 0.37135 0.7481 0.74031 0.0
C160 C 0.34449 0.75626 0.70597 0.0
C161 C 0.34704 0.77772 0.71156 0.0
C162 C 0.36191 0.78425 0.73157 0.0
C163 C 0.37399 0.76912 0.74584 0.0
C164 C 0.43744 0.75994 0.72292 0.0
C165 C 0.42684 0.74624 0.77698 0.0
C166 C 0.41858 0.74913 0.72795 0.0
N167 N 0.41345 0.74251 0.75475 0.0
C168 C 0.44585 0.75699 0.77275 0.0
C169 C 0.45114 0.76388 0.74552 0.0
C170 C 0.39958 0.69192 0.80202 0.0
C171 C 0.32753 0.65707 0.7454 0.0
C172 C 0.35103 0.65528 0.795 0.0
C173 C 0.34598 0.63659 0.78075 0.0
C174 C 0.33416 0.63754 0.75578 0.0
N175 N 0.34444 0.67437 0.78471 0.0
C176 C 0.33284 0.67543 0.76024 0.0
Co177 Co 0.52706 0.1427 0.01285 0.0
Co178 Co 0.55066 0.10374 0.05355 0.0
O179 O 0.54054 0.11519 0.01736 0.0
C180 C 0.56244 0.1434 0.97121 0.0
O181 O 0.57456 0.13366 0.98969 0.0
C182 C 0.52024 0.07241 0.0322 0.0
O183 O 0.50723 0.0883 0.02834 0.0
O184 O 0.5239 0.11151 0.07357 0.0
O185 O 0.51016 0.13825 0.04802 0.0
H186 H 0.56486 0.10433 0.15871 0.0
H187 H 0.52662 0.11152 0.96585 0.0
O188 O 0.54337 0.14787 0.97728 0.0
H189 H 0.4517 0.12652 0.98628 0.0
H190 H 0.49336 0.20177 0.95717 0.0
H191 H 0.51655 0.17784 0.05199 0.0
H192 H 0.47996 0.14475 0.0128 0.0
H193 H 0.50949 0.1666 0.96344 0.0
O194 O 0.5384 0.0756 0.04308 0.0
H195 H 0.55221 0.11899 0.11318 0.0
H196 H 0.57064 0.06294 0.07018 0.0
H197 H 0.50033 0.21307 0.04672 0.0
H198 H 0.4989 0.09305 0.93863 0.0
H199 H 0.48864 0.22525 0.99902 0.0
H200 H 0.46112 0.10044 0.94889 0.0
O201 O 0.54985 0.15667 0.03523 0.0
H202 H 0.5943 0.07253 0.97472 0.0
H203 H 0.59632 0.10995 0.06667 0.0
H204 H 0.62971 0.1012 0.04235 0.0
H205 H 0.62883 0.08232 0.99606 0.0
H206 H 0.56128 0.08176 -0.00038 0.0
H207 H 0.58335 0.0476 0.11529 0.0
H208 H 0.58056 0.06838 0.15995 0.0
O209 O 0.563 0.13165 0.06424 0.0
C210 C 0.51005 0.1258 0.06929 0.0
C211 C 0.56621 0.09514 0.13938 0.0
C212 C 0.57656 0.06329 0.11501 0.0
N213 N 0.5608 0.09189 0.08904 0.0
C214 C 0.55912 0.10338 0.11353 0.0
C215 C 0.56929 0.07204 0.08956 0.0
C216 C 0.575 0.07496 0.14006 0.0
C217 C 0.51022 0.11494 0.97028 0.0
N218 N 0.5049 0.12915 0.99095 0.0
C219 C 0.49459 0.10438 0.95486 0.0
C220 C 0.4734 0.10852 0.96065 0.0
C221 C 0.4681 0.12313 0.98165 0.0
C222 C 0.48416 0.13334 0.99668 0.0
C223 C 0.49836 0.19663 0.97807 0.0
C224 C 0.51135 0.18297 0.0312 0.0
C225 C 0.50754 0.17675 0.98174 0.0
N226 N 0.51382 0.17012 0.00809 0.0
C227 C 0.50224 0.20296 0.02833 0.0
C228 C 0.4957 0.20979 0.00156 0.0
C229 C 0.56203 0.15066 0.0553 0.0
C230 C 0.59489 0.0807 0.99492 0.0
C231 C 0.5958 0.1018 0.04649 0.0
C232 C 0.61476 0.09684 0.03285 0.0
C233 C 0.61426 0.08623 0.00689 0.0
N234 N 0.57686 0.09629 0.03464 0.0
C235 C 0.57624 0.08589 0.00919 0.0
Co236 Co 0.11138 0.72112 0.23891 0.0
Co237 Co 0.14931 0.69803 0.19612 0.0
O238 O 0.13896 0.70825 0.23279 0.0
C239 C 0.11281 0.68617 0.28114 0.0
O240 O 0.12043 0.67354 0.26151 0.0
C241 C 0.18055 0.72938 0.21491 0.0
O242 O 0.16446 0.74206 0.21922 0.0
O243 O 0.1403 0.72444 0.17623 0.0
O244 O 0.11395 0.73762 0.20305 0.0
H245 H 0.14534 0.68278 0.09137 0.0
H246 H 0.1445 0.72308 0.28341 0.0
O247 O 0.10832 0.70527 0.27526 0.0
H248 H 0.1265 0.79725 0.26243 0.0
H249 H 0.05382 0.75416 0.29806 0.0
H250 H 0.07442 0.73016 0.20221 0.0
H251 H 0.10797 0.76814 0.23807 0.0
H252 H 0.08908 0.73882 0.28958 0.0
O253 O 0.17751 0.71098 0.20468 0.0
H254 H 0.13202 0.69557 0.13757 0.0
H255 H 0.18991 0.67878 0.17724 0.0
H256 H 0.03906 0.74558 0.20969 0.0
H257 H 0.16331 0.75168 0.30847 0.0
H258 H 0.02855 0.75767 0.25792 0.0
H259 H 0.15441 0.78909 0.29792 0.0
O260 O 0.09711 0.69769 0.21807 0.0
H261 H 0.18378 0.65574 0.27381 0.0
H262 H 0.14368 0.65215 0.18401 0.0
H263 H 0.15383 0.61916 0.20834 0.0
H264 H 0.17406 0.62083 0.25356 0.0
H265 H 0.17316 0.68834 0.24892 0.0
H266 H 0.20393 0.66595 0.13142 0.0
H267 H 0.18155 0.66784 0.0881 0.0
O268 O 0.12131 0.68506 0.18741 0.0
C269 C 0.12574 0.73789 0.18109 0.0
C270 C 0.15523 0.68182 0.11011 0.0
C271 C 0.18812 0.6724 0.13258 0.0
N272 N 0.16013 0.6878 0.16008 0.0
C273 C 0.14775 0.689 0.13633 0.0
C274 C 0.18012 0.67974 0.15845 0.0
C275 C 0.17555 0.67346 0.10828 0.0
C276 C 0.14043 0.73932 0.27886 0.0
N277 N 0.12521 0.74395 0.25921 0.0
C278 C 0.15117 0.75545 0.29306 0.0
C279 C 0.14619 0.77643 0.2871 0.0
C280 C 0.13056 0.78102 0.26717 0.0
C281 C 0.12018 0.76448 0.25335 0.0
C282 C 0.05822 0.74897 0.27695 0.0
C283 C 0.07001 0.73553 0.22321 0.0
C284 C 0.07815 0.74022 0.27203 0.0
N285 N 0.08385 0.73372 0.24538 0.0
C286 C 0.04995 0.74419 0.22734 0.0
C287 C 0.04406 0.75095 0.25441 0.0
C288 C 0.10264 0.68559 0.19764 0.0
C289 C 0.17502 0.6548 0.25408 0.0
C290 C 0.15244 0.65301 0.20372 0.0
C291 C 0.15818 0.63427 0.21737 0.0
C292 C 0.16954 0.63522 0.24273 0.0
N293 N 0.15792 0.67216 0.21496 0.0
C294 C 0.16904 0.67321 0.23982 0.0
Co295 Co 0.52927 0.85839 0.4844 0.0
Co296 Co 0.55359 0.89753 0.44484 0.0
O297 O 0.54276 0.88593 0.48056 0.0
C298 C 0.56379 0.85756 0.52721 0.0
O299 O 0.57635 0.86693 0.50894 0.0
C300 C 0.52262 0.92865 0.46522 0.0
O301 O 0.50962 0.91268 0.4685 0.0
O302 O 0.52727 0.88982 0.42382 0.0
O303 O 0.51315 0.86289 0.44863 0.0
H304 H 0.56989 0.89743 0.34024 0.0
H305 H 0.52767 0.88938 0.5316 0.0
O306 O 0.5448 0.85324 0.52058 0.0
H307 H 0.4533 0.87442 0.50777 0.0
H308 H 0.49445 0.79915 0.53844 0.0
H309 H 0.51977 0.82329 0.44472 0.0
H310 H 0.4822 0.85633 0.48235 0.0
H311 H 0.51062 0.83437 0.53296 0.0
O312 O 0.54103 0.92558 0.45506 0.0
H313 H 0.55632 0.88256 0.38516 0.0
H314 H 0.57384 0.93841 0.42929 0.0
H315 H 0.50354 0.78801 0.4492 0.0
H316 H 0.49928 0.90771 0.55774 0.0
H317 H 0.49079 0.77572 0.49634 0.0
H318 H 0.46178 0.90033 0.54577 0.0
O319 O 0.55257 0.84453 0.46282 0.0
H320 H 0.59555 0.92841 0.52553 0.0
H321 H 0.5995 0.89142 0.43337 0.0
H322 H 0.63237 0.90008 0.459 0.0
H323 H 0.63052 0.91874 0.50541 0.0
H324 H 0.56307 0.91928 0.49932 0.0
H325 H 0.58745 0.95397 0.3848 0.0
H326 H 0.58559 0.93339 0.33988 0.0
O327 O 0.56616 0.86968 0.43438 0.0
C328 C 0.51341 0.87546 0.42749 0.0
C329 C 0.57084 0.90653 0.35969 0.0
C330 C 0.58067 0.93827 0.38469 0.0
N331 N 0.56442 0.90955 0.40983 0.0
C332 C 0.56323 0.89817 0.3852 0.0
C333 C 0.5729 0.92941 0.4098 0.0
C334 C 0.57963 0.92671 0.3595 0.0
C335 C 0.51139 0.88596 0.52644 0.0
N336 N 0.50659 0.87182 0.50545 0.0
C337 C 0.49538 0.89643 0.54125 0.0
C338 C 0.47435 0.89231 0.53449 0.0
C339 C 0.46958 0.87779 0.51316 0.0
C340 C 0.486 0.86765 0.49877 0.0
C341 C 0.49992 0.80433 0.51778 0.0
C342 C 0.51411 0.81811 0.46527 0.0
C343 C 0.50913 0.82424 0.51456 0.0
N344 N 0.51601 0.83092 0.48851 0.0
C345 C 0.505 0.79809 0.46769 0.0
C346 C 0.49786 0.7912 0.49415 0.0
C347 C 0.56507 0.85063 0.44315 0.0
C348 C 0.59656 0.92034 0.50528 0.0
C349 C 0.59856 0.89948 0.45359 0.0
C350 C 0.61723 0.90439 0.46798 0.0
C351 C 0.61618 0.91488 0.49401 0.0
N352 N 0.57938 0.90493 0.46477 0.0
C353 C 0.57823 0.91521 0.49028 0.0
Co354 Co 0.39256 0.27753 0.73599 0.0
Co355 Co 0.35447 0.30202 0.69486 0.0
O356 O 0.36507 0.29083 0.73089 0.0
C357 C 0.39168 0.31159 0.77944 0.0
O358 O 0.38369 0.32449 0.76041 0.0
C359 C 0.32314 0.27054 0.71294 0.0
O360 O 0.33917 0.25765 0.71648 0.0
O361 O 0.36301 0.27601 0.67372 0.0
O362 O 0.38939 0.26183 0.69956 0.0
H363 H 0.35756 0.31968 0.59075 0.0
H364 H 0.35996 0.27501 0.78114 0.0
O365 O 0.39621 0.29262 0.77285 0.0
H366 H 0.3767 0.20112 0.75675 0.0
H367 H 0.45036 0.24266 0.79276 0.0
H368 H 0.429 0.26882 0.69823 0.0
H369 H 0.39531 0.23052 0.73315 0.0
H370 H 0.41518 0.25856 0.78553 0.0
O371 O 0.32624 0.28912 0.70337 0.0
H372 H 0.3712 0.30565 0.63613 0.0
H373 H 0.3139 0.32211 0.67756 0.0
H374 H 0.46428 0.25289 0.70445 0.0
H375 H 0.34108 0.2461 0.80545 0.0
H376 H 0.47516 0.2397 0.75201 0.0
H377 H 0.34935 0.20884 0.79319 0.0
O378 O 0.40688 0.30122 0.71578 0.0
H379 H 0.32111 0.34277 0.77489 0.0
H380 H 0.36047 0.34811 0.68466 0.0
H381 H 0.35089 0.3806 0.71058 0.0
H382 H 0.33104 0.37804 0.75602 0.0
H383 H 0.33116 0.31068 0.74842 0.0
H384 H 0.29956 0.33617 0.63258 0.0
H385 H 0.32149 0.33508 0.58879 0.0
O386 O 0.38251 0.31491 0.6862 0.0
C387 C 0.37741 0.26225 0.67779 0.0
C388 C 0.34787 0.3203 0.6097 0.0
C389 C 0.31531 0.32953 0.63317 0.0
N390 N 0.3434 0.31319 0.65948 0.0
C391 C 0.35553 0.31243 0.63546 0.0
C392 C 0.32349 0.3215 0.65856 0.0
C393 C 0.32763 0.32892 0.60861 0.0
C394 C 0.36376 0.25883 0.77585 0.0
N395 N 0.37868 0.25445 0.75569 0.0
C396 C 0.35298 0.24253 0.78963 0.0
C397 C 0.3576 0.22163 0.78271 0.0
C398 C 0.37293 0.21728 0.76224 0.0
C399 C 0.38336 0.23399 0.74887 0.0
C400 C 0.44579 0.24832 0.77193 0.0
C401 C 0.43358 0.26298 0.71894 0.0
C402 C 0.42591 0.25739 0.76773 0.0
N403 N 0.42 0.26449 0.74145 0.0
C404 C 0.45359 0.25403 0.72236 0.0
C405 C 0.45969 0.24666 0.74905 0.0
C406 C 0.40129 0.31388 0.69602 0.0
C407 C 0.3297 0.34409 0.75507 0.0
C408 C 0.35188 0.34686 0.70446 0.0
C409 C 0.34646 0.36532 0.71901 0.0
C410 C 0.33531 0.36387 0.74449 0.0
N411 N 0.34629 0.32751 0.71494 0.0
C412 C 0.33536 0.32597 0.73992 0.0
Co413 Co 0.97289 0.14117 0.98497 0.0
Co414 Co 0.94965 0.10254 0.94344 0.0
O415 O 0.9599 0.11352 0.97977 0.0
C416 C 0.93784 0.14054 0.02701 0.0
O417 O 0.92547 0.13203 0.00774 0.0
C418 C 0.9807 0.07136 0.96348 0.0
O419 O 0.99355 0.08736 0.96746 0.0
O420 O 0.97613 0.11104 0.92332 0.0
O421 O 0.98947 0.13776 0.94931 0.0
H422 H 0.93449 0.10471 0.83858 0.0
H423 H 0.97454 0.10899 0.03073 0.0
O424 O 0.95691 0.14511 0.02108 0.0
H425 H 0.04887 0.12607 0.00943 0.0
H426 H 0.00608 0.1997 0.04218 0.0
H427 H 0.98224 0.17731 0.94698 0.0
H428 H 0.01993 0.14424 0.98421 0.0
H429 H 0.99058 0.16437 0.0349 0.0
O430 O 0.96242 0.07445 0.95293 0.0
H431 H 0.94733 0.11878 0.88434 0.0
H432 H 0.9302 0.06172 0.92586 0.0
H433 H 0.99782 0.21274 0.95326 0.0
H434 H 0.00296 0.09056 0.05666 0.0
H435 H 0.00983 0.22414 0.00115 0.0
H436 H 0.04044 0.099 0.04596 0.0
O437 O 0.94958 0.15515 0.96354 0.0
H438 H 0.90714 0.06965 0.02214 0.0
H439 H 0.9038 0.10819 0.9311 0.0
H440 H 0.87074 0.09865 0.95571 0.0
H441 H 0.87229 0.07921 0.00155 0.0
H442 H 0.93981 0.07967 0.99696 0.0
H443 H 0.91732 0.04695 0.8805 0.0
H444 H 0.91935 0.06854 0.83646 0.0
O445 O 0.93681 0.13042 0.9338 0.0
C446 C 0.98969 0.12558 0.92774 0.0
C447 C 0.93347 0.09517 0.85763 0.0
C448 C 0.92386 0.06274 0.88115 0.0
N449 N 0.9394 0.09113 0.90775 0.0
C450 C 0.94067 0.10307 0.88361 0.0
C451 C 0.93123 0.07116 0.90676 0.0
C452 C 0.925 0.07487 0.85645 0.0
C453 C 0.99081 0.11286 0.02611 0.0
N454 N 0.99558 0.12762 0.0059 0.0
C455 C 0.00683 0.10233 0.0408 0.0
C456 C 0.02786 0.10705 0.03476 0.0
C457 C 0.0326 0.12222 0.01425 0.0
C458 C 0.01616 0.1324 -6e-05 0.0
C459 C 0.00092 0.19491 0.0212 0.0
C460 C 0.98757 0.18211 0.96785 0.0
C461 C 0.99208 0.17494 0.01697 0.0
N462 N 0.98562 0.16874 0.99051 0.0
C463 C 0.99632 0.20221 0.97129 0.0
C464 C 0.00304 0.20861 0.99817 0.0
C465 C 0.93742 0.14928 0.94337 0.0
C466 C 0.90626 0.07807 0.00214 0.0
C467 C 0.90461 0.09979 0.95108 0.0
C468 C 0.88583 0.09438 0.96488 0.0
C469 C 0.88671 0.08346 0.99059 0.0
N470 N 0.92372 0.09441 0.96251 0.0
C471 C 0.92471 0.0837 0.98772 0.0
Co472 Co 0.89572 0.72163 0.73686 0.0
Co473 Co 0.85553 0.6985 0.69789 0.0
O474 O 0.86783 0.70877 0.73349 0.0
C475 C 0.8962 0.68667 0.7791 0.0
O476 O 0.88579 0.67466 0.76118 0.0
C477 C 0.82532 0.73006 0.71938 0.0
O478 O 0.84156 0.74268 0.72282 0.0
O479 O 0.86362 0.72477 0.67707 0.0
O480 O 0.891 0.7383 0.70157 0.0
H481 H 0.85398 0.68308 0.59307 0.0
H482 H 0.86548 0.72327 0.78492 0.0
O483 O 0.90113 0.70553 0.77254 0.0
H484 H 0.88173 0.79761 0.76247 0.0
H485 H 0.95654 0.75444 0.79001 0.0
H486 H 0.93038 0.73094 0.69641 0.0
H487 H 0.89879 0.76867 0.73587 0.0
H488 H 0.92091 0.73907 0.78517 0.0
O489 O 0.82794 0.7117 0.70882 0.0
H490 H 0.86972 0.69588 0.63786 0.0
H491 H 0.81397 0.6794 0.68294 0.0
H492 H 0.96605 0.74639 0.70025 0.0
H493 H 0.84818 0.7517 0.81224 0.0
H494 H 0.97935 0.75825 0.74732 0.0
H495 H 0.85621 0.78918 0.80097 0.0
O496 O 0.90874 0.6983 0.71448 0.0
H497 H 0.82436 0.65675 0.77857 0.0
H498 H 0.86033 0.65253 0.6857 0.0
H499 H 0.85104 0.61971 0.71104 0.0
H500 H 0.83289 0.6217 0.7578 0.0
H501 H 0.83411 0.68918 0.75265 0.0
H502 H 0.79755 0.66657 0.63859 0.0
H503 H 0.81763 0.6683 0.59326 0.0
O504 O 0.88291 0.68527 0.68668 0.0
C505 C 0.87821 0.7384 0.68067 0.0
C506 C 0.84509 0.68219 0.61269 0.0
C507 C 0.81341 0.67295 0.63824 0.0
N508 N 0.84283 0.68824 0.663 0.0
C509 C 0.85394 0.68936 0.63813 0.0
C510 C 0.82277 0.68028 0.66327 0.0
C511 C 0.82469 0.67391 0.61281 0.0
C512 C 0.86918 0.73954 0.78005 0.0
N513 N 0.8831 0.74432 0.75879 0.0
C514 C 0.85928 0.75557 0.79553 0.0
C515 C 0.86377 0.7766 0.78917 0.0
C516 C 0.87807 0.78134 0.76755 0.0
C517 C 0.88763 0.7649 0.7525 0.0
C518 C 0.95091 0.74937 0.76937 0.0
C519 C 0.936 0.73621 0.71693 0.0
C520 C 0.93077 0.74061 0.76651 0.0
N521 N 0.92352 0.73425 0.74049 0.0
C522 C 0.95624 0.74488 0.71899 0.0
C523 C 0.9637 0.75151 0.74541 0.0
C524 C 0.9021 0.68595 0.69496 0.0
C525 C 0.83221 0.65568 0.75817 0.0
C526 C 0.8525 0.65353 0.70609 0.0
C527 C 0.84723 0.63489 0.7203 0.0
C528 C 0.83703 0.63602 0.74652 0.0
N529 N 0.84769 0.67276 0.71763 0.0
C530 C 0.83769 0.67399 0.74333 0.0
Co531 Co 0.02738 0.14218 0.48431 0.0
Co532 Co 0.05016 0.1034 0.44262 0.0
O533 O 0.04016 0.11444 0.47904 0.0
C534 C 0.0624 0.14122 0.52646 0.0
O535 O 0.07492 0.1331 0.50707 0.0
C536 C 0.01921 0.07228 0.46301 0.0
O537 O 0.0064 0.0883 0.46704 0.0
O538 O 0.02352 0.11185 0.42287 0.0
O539 O 0.01073 0.13896 0.44865 0.0
H540 H 0.06448 0.10535 0.33753 0.0
H541 H 0.02546 0.10993 0.52997 0.0
O542 O 0.04336 0.14585 0.52046 0.0
H543 H 0.95128 0.12775 0.50877 0.0
H544 H 0.99477 0.20094 0.54173 0.0
H545 H 0.01831 0.17846 0.44643 0.0
H546 H 0.98037 0.14567 0.48356 0.0
H547 H 0.00992 0.16546 0.53432 0.0
O548 O 0.03747 0.07533 0.45236 0.0
H549 H 0.05198 0.1195 0.38342 0.0
H550 H 0.06953 0.06256 0.42493 0.0
H551 H 0.00308 0.21403 0.45283 0.0
H552 H 0.99688 0.09174 0.55589 0.0
H553 H 0.99123 0.22549 0.50077 0.0
H554 H 0.95947 0.10056 0.54524 0.0
O555 O 0.0508 0.15599 0.4629 0.0
H556 H 0.09328 0.07068 0.52085 0.0
H557 H 0.09592 0.10902 0.42962 0.0
H558 H 0.12916 0.09952 0.4538 0.0
H559 H 0.12797 0.08018 0.49974 0.0
H560 H 0.06042 0.08065 0.49609 0.0
H561 H 0.08207 0.0477 0.37944 0.0
H562 H 0.07966 0.06919 0.33535 0.0
O563 O 0.06292 0.13125 0.43268 0.0
C564 C 0.01019 0.1266 0.42728 0.0
C565 C 0.06567 0.09585 0.35661 0.0
C566 C 0.07551 0.06349 0.38012 0.0
N567 N 0.06015 0.09192 0.40683 0.0
C568 C 0.05866 0.1038 0.38266 0.0
C569 C 0.06834 0.07196 0.4058 0.0
C570 C 0.07417 0.07555 0.3554 0.0
C571 C 0.00922 0.11397 0.52537 0.0
N572 N 0.00458 0.1288 0.5052 0.0
C573 C 0.99311 0.10357 0.54006 0.0
C574 C 0.97212 0.1085 0.53404 0.0
C575 C 0.96751 0.12374 0.51356 0.0
C576 C 0.98404 0.13378 0.49927 0.0
C577 C 0.99986 0.19613 0.52073 0.0
C578 C 0.01304 0.18328 0.46732 0.0
C579 C 0.0085 0.17608 0.51642 0.0
N580 N 0.01488 0.16986 0.48994 0.0
C581 C 0.00449 0.20346 0.47082 0.0
C582 C 0.99786 0.20989 0.49774 0.0
C583 C 0.06263 0.15007 0.4424 0.0
C584 C 0.094 0.07905 0.5008 0.0
C585 C 0.09526 0.10066 0.44964 0.0
C586 C 0.11414 0.09528 0.46321 0.0
C587 C 0.11346 0.08441 0.48897 0.0
N588 N 0.07624 0.09531 0.46136 0.0
C589 C 0.07545 0.08466 0.48662 0.0
Co590 Co 0.60578 0.2809 0.23515 0.0
Co591 Co 0.64548 0.30251 0.19371 0.0
O592 O 0.6338 0.29322 0.23018 0.0
C593 C 0.60685 0.31673 0.27618 0.0
O594 O 0.61764 0.32804 0.25786 0.0
C595 C 0.67554 0.2708 0.21515 0.0
O596 O 0.65911 0.25862 0.21966 0.0
O597 O 0.63639 0.276 0.17417 0.0
O598 O 0.60952 0.26334 0.20045 0.0
H599 H 0.64483 0.31594 0.08838 0.0
H600 H 0.63699 0.27994 0.28211 0.0
O601 O 0.60126 0.29792 0.27028 0.0
H602 H 0.6192 0.20537 0.26355 0.0
H603 H 0.54558 0.25032 0.29187 0.0
H604 H 0.5702 0.27115 0.19639 0.0
H605 H 0.602 0.23391 0.23636 0.0
H606 H 0.58132 0.26502 0.28509 0.0
O607 O 0.67308 0.28899 0.20399 0.0
H608 H 0.62992 0.30431 0.13425 0.0
H609 H 0.68706 0.32043 0.17632 0.0
H610 H 0.5344 0.25635 0.20218 0.0
H611 H 0.65445 0.25192 0.30999 0.0
H612 H 0.52187 0.24586 0.25021 0.0
H613 H 0.64565 0.21432 0.30068 0.0
O614 O 0.59264 0.3039 0.21226 0.0
H615 H 0.67943 0.34521 0.27142 0.0
H616 H 0.64128 0.34832 0.18006 0.0
H617 H 0.65184 0.38143 0.20375 0.0
H618 H 0.6711 0.38 0.24974 0.0
H619 H 0.6684 0.31248 0.24716 0.0
H620 H 0.70266 0.33207 0.13086 0.0
H621 H 0.68146 0.32994 0.0865 0.0
O622 O 0.61811 0.31608 0.18318 0.0
C623 C 0.62175 0.26263 0.17896 0.0
C624 C 0.65421 0.317 0.10757 0.0
C625 C 0.68667 0.32603 0.13142 0.0
N626 N 0.65756 0.31182 0.15794 0.0
C627 C 0.64583 0.31049 0.13362 0.0
C628 C 0.67778 0.31936 0.15708 0.0
C629 C 0.67477 0.32484 0.10653 0.0
C630 C 0.63295 0.26362 0.2781 0.0
N631 N 0.61852 0.25856 0.2576 0.0
C632 C 0.64294 0.24782 0.29389 0.0
C633 C 0.63801 0.22673 0.28863 0.0
C634 C 0.62319 0.22169 0.26778 0.0
C635 C 0.61356 0.23791 0.25238 0.0
C636 C 0.55087 0.2548 0.27083 0.0
C637 C 0.56491 0.26647 0.21732 0.0
C638 C 0.57107 0.26317 0.26687 0.0
N639 N 0.57789 0.2688 0.24033 0.0
C640 C 0.5446 0.25816 0.22048 0.0
C641 C 0.53758 0.25229 0.24744 0.0
C642 C 0.59907 0.31583 0.19215 0.0
C643 C 0.6711 0.34603 0.25134 0.0
C644 C 0.64958 0.34756 0.20013 0.0
C645 C 0.65557 0.36637 0.2134 0.0
C646 C 0.66639 0.36555 0.23919 0.0
N647 N 0.65429 0.32847 0.21216 0.0
C648 C 0.6649 0.32755 0.23744 0.0
Co649 Co 0.47145 0.85633 0.98157 0.0
Co650 Co 0.4515 0.89681 0.94139 0.0
O651 O 0.46155 0.88532 0.97743 0.0
C652 C 0.44061 0.8611 0.02841 0.0
O653 O 0.42734 0.86934 0.01005 0.0
C654 C 0.48327 0.92748 0.96125 0.0
O655 O 0.49618 0.91142 0.96447 0.0
O656 O 0.47799 0.88782 0.92183 0.0
O657 O 0.48423 0.85653 0.94274 0.0
H658 H 0.43712 0.89585 0.83631 0.0
H659 H 0.48206 0.88783 0.02598 0.0
O660 O 0.45892 0.85524 0.02046 0.0
H661 H 0.55055 0.8626 0.98932 0.0
H662 H 0.50332 0.79542 0.0354 0.0
H663 H 0.47187 0.81836 0.94455 0.0
H664 H 0.51717 0.84819 0.97049 0.0
H665 H 0.49128 0.83217 0.029 0.0
O666 O 0.46478 0.92454 0.95133 0.0
H667 H 0.4494 0.88117 0.88202 0.0
H668 H 0.4329 0.93816 0.92421 0.0
H669 H 0.48384 0.7815 0.94997 0.0
H670 H 0.51507 0.90252 0.0456 0.0
H671 H 0.49976 0.76985 0.99564 0.0
H672 H 0.54963 0.88995 0.02718 0.0
O673 O 0.44469 0.84542 0.96527 0.0
H674 H 0.40945 0.93011 0.02021 0.0
H675 H 0.40554 0.89252 0.92849 0.0
H676 H 0.37263 0.90274 0.95296 0.0
H677 H 0.37446 0.92172 0.99913 0.0
H678 H 0.44196 0.91941 0.99517 0.0
H679 H 0.42061 0.95353 0.87892 0.0
H680 H 0.4226 0.93228 0.83458 0.0
O681 O 0.43782 0.86924 0.93107 0.0
C682 C 0.48736 0.87002 0.92308 0.0
C683 C 0.43611 0.90524 0.8555 0.0
C684 C 0.42687 0.93762 0.87941 0.0
N685 N 0.44172 0.90874 0.90577 0.0
C686 C 0.44299 0.89699 0.88145 0.0
C687 C 0.43391 0.92886 0.90498 0.0
C688 C 0.42799 0.92569 0.85454 0.0
C689 C 0.49704 0.88211 0.01808 0.0
N690 N 0.49768 0.8671 0.99721 0.0
C691 C 0.51568 0.89056 0.02918 0.0
C692 C 0.53507 0.88352 0.0188 0.0
C693 C 0.53559 0.86819 0.99754 0.0
C694 C 0.51663 0.86013 0.98691 0.0
C695 C 0.49647 0.80033 0.01537 0.0
C696 C 0.47887 0.81343 0.96444 0.0
C697 C 0.48959 0.82111 0.01164 0.0
N698 N 0.48105 0.82745 0.98635 0.0
C699 C 0.48557 0.79252 0.96741 0.0
C700 C 0.49446 0.78599 0.99305 0.0
C701 C 0.43475 0.85137 0.94308 0.0
C702 C 0.40844 0.9219 6e-05 0.0
C703 C 0.40647 0.9007 0.94864 0.0
C704 C 0.38778 0.9065 0.96235 0.0
C705 C 0.38882 0.91716 0.98825 0.0
N706 N 0.42566 0.90543 0.96034 0.0
C707 C 0.4268 0.91588 0.98572 0.0
Co708 Co 0.89318 0.27786 0.76495 0.0
Co709 Co 0.85434 0.30184 0.80533 0.0
O710 O 0.86548 0.2909 0.76943 0.0
C711 C 0.89256 0.31176 0.72117 0.0
O712 O 0.88402 0.32467 0.73976 0.0
C713 C 0.8231 0.27059 0.78604 0.0
O714 O 0.83905 0.25758 0.7827 0.0
O715 O 0.86256 0.27566 0.82632 0.0
O716 O 0.88973 0.26217 0.80134 0.0
H717 H 0.85586 0.31862 0.90977 0.0
H718 H 0.86118 0.27492 0.71908 0.0
O719 O 0.89716 0.29289 0.72811 0.0
H720 H 0.87836 0.20124 0.74408 0.0
H721 H 0.952 0.24341 0.70963 0.0
H722 H 0.92926 0.26966 0.80352 0.0
H723 H 0.89634 0.23088 0.76806 0.0
H724 H 0.91657 0.25893 0.71601 0.0
O725 O 0.82623 0.28907 0.79592 0.0
H726 H 0.87017 0.30496 0.86457 0.0
H727 H 0.81354 0.32188 0.82181 0.0
H728 H 0.96478 0.2541 0.79815 0.0
H729 H 0.84294 0.24578 0.69438 0.0
H730 H 0.97636 0.24088 0.75091 0.0
H731 H 0.85144 0.20863 0.70695 0.0
O732 O 0.90699 0.30175 0.78535 0.0
H733 H 0.82209 0.34321 0.72505 0.0
H734 H 0.8602 0.34786 0.81632 0.0
H735 H 0.85096 0.38055 0.79063 0.0
H736 H 0.83173 0.37834 0.74467 0.0
H737 H 0.83181 0.31092 0.7513 0.0
H738 H 0.79855 0.33558 0.8666 0.0
H739 H 0.8198 0.33407 0.91097 0.0
O740 O 0.88224 0.3147 0.81494 0.0
C741 C 0.87729 0.2622 0.82263 0.0
C742 C 0.84647 0.31942 0.89057 0.0
C743 C 0.81429 0.32892 0.86634 0.0
N744 N 0.84276 0.31276 0.84056 0.0
C745 C 0.85451 0.31176 0.8649 0.0
C746 C 0.82284 0.32109 0.84107 0.0
C747 C 0.82623 0.32807 0.89123 0.0
C748 C 0.86508 0.25879 0.7245 0.0
N749 N 0.87977 0.2546 0.74504 0.0
C750 C 0.85466 0.24236 0.71051 0.0
C751 C 0.85941 0.22152 0.71759 0.0
C752 C 0.8745 0.21736 0.73845 0.0
C753 C 0.88457 0.2342 0.75202 0.0
C754 C 0.94713 0.2491 0.73033 0.0
C755 C 0.93414 0.2638 0.78295 0.0
C756 C 0.9271 0.25795 0.73405 0.0
N757 N 0.92081 0.26508 0.76015 0.0
C758 C 0.95429 0.25506 0.78002 0.0
C759 C 0.96078 0.24767 0.7535 0.0
C760 C 0.90108 0.31409 0.80531 0.0
C761 C 0.83042 0.34438 0.7451 0.0
C762 C 0.8519 0.34676 0.79629 0.0
C763 C 0.84666 0.36533 0.78187 0.0
C764 C 0.83586 0.36408 0.7561 0.0
N765 N 0.84647 0.3275 0.78539 0.0
C766 C 0.83588 0.32615 0.76012 0.0
Co767 Co 0.47234 0.14178 0.51447 0.0
Co768 Co 0.44897 0.10306 0.55568 0.0
O769 O 0.45949 0.11406 0.51951 0.0
C770 C 0.43774 0.14081 0.47177 0.0
O771 O 0.42512 0.13263 0.49099 0.0
C772 C 0.48038 0.07203 0.53632 0.0
O773 O 0.49317 0.0881 0.53255 0.0
O774 O 0.47523 0.11168 0.57619 0.0
O775 O 0.48855 0.13857 0.55049 0.0
H776 H 0.43291 0.10521 0.66031 0.0
H777 H 0.47475 0.10954 0.46885 0.0
O778 O 0.45674 0.14546 0.478 0.0
H779 H 0.5487 0.12718 0.4917 0.0
H780 H 0.50567 0.20044 0.45765 0.0
H781 H 0.48102 0.17808 0.55248 0.0
H782 H 0.51933 0.14517 0.51627 0.0
H783 H 0.49036 0.165 0.46479 0.0
O784 O 0.46195 0.07502 0.54644 0.0
H785 H 0.44611 0.1193 0.61474 0.0
H786 H 0.4295 0.06218 0.57298 0.0
H787 H 0.49639 0.21361 0.54635 0.0
H788 H 0.50361 0.09129 0.44357 0.0
H789 H 0.50881 0.225 0.49864 0.0
H790 H 0.5409 0.10001 0.45505 0.0
O791 O 0.4487 0.15564 0.5354 0.0
H792 H 0.40728 0.06998 0.47633 0.0
H793 H 0.40299 0.10854 0.56729 0.0
H794 H 0.37019 0.09886 0.54216 0.0
H795 H 0.37222 0.07941 0.49636 0.0
H796 H 0.43969 0.08013 0.50204 0.0
H797 H 0.41628 0.04739 0.61815 0.0
H798 H 0.41786 0.06899 0.6622 0.0
O799 O 0.43595 0.13088 0.56511 0.0
C800 C 0.48869 0.12635 0.57202 0.0
C801 C 0.43209 0.09566 0.64125 0.0
C802 C 0.42278 0.0632 0.61759 0.0
N803 N 0.43845 0.09163 0.59122 0.0
C804 C 0.43949 0.10357 0.61538 0.0
C805 C 0.43034 0.07163 0.5921 0.0
C806 C 0.42366 0.07533 0.6423 0.0
C807 C 0.49093 0.11354 0.4738 0.0
N808 N 0.49536 0.12836 0.49407 0.0
C809 C 0.50721 0.1031 0.45948 0.0
C810 C 0.52813 0.10799 0.46596 0.0
C811 C 0.53251 0.12321 0.48654 0.0
C812 C 0.51583 0.13329 0.50046 0.0
C813 C 0.50034 0.19565 0.47854 0.0
C814 C 0.48653 0.18287 0.5317 0.0
C815 C 0.49161 0.17562 0.4827 0.0
N816 N 0.48492 0.16944 0.50906 0.0
C817 C 0.49516 0.20303 0.52834 0.0
C818 C 0.50211 0.20942 0.50156 0.0
C819 C 0.43649 0.14973 0.55549 0.0
C820 C 0.40619 0.0784 0.49632 0.0
C821 C 0.40401 0.10013 0.54733 0.0
C822 C 0.38538 0.09465 0.53323 0.0
C823 C 0.38652 0.08372 0.50754 0.0
N824 N 0.42324 0.09481 0.53621 0.0
C825 C 0.42449 0.08411 0.51103 0.0
Co826 Co 0.60508 0.72168 0.26138 0.0
Co827 Co 0.64487 0.69874 0.30139 0.0
O828 O 0.63286 0.70864 0.2654 0.0
C829 C 0.60412 0.68558 0.22111 0.0
O830 O 0.61449 0.67412 0.23971 0.0
C831 C 0.67539 0.72994 0.27967 0.0
O832 O 0.6592 0.74251 0.27551 0.0
O833 O 0.63662 0.72527 0.3216 0.0
O834 O 0.60991 0.73905 0.29601 0.0
H835 H 0.64543 0.68432 0.40648 0.0
H836 H 0.63531 0.7219 0.21327 0.0
O837 O 0.59951 0.70475 0.22643 0.0
H838 H 0.62007 0.79689 0.23291 0.0
H839 H 0.54467 0.75378 0.20661 0.0
H840 H 0.57046 0.73234 0.30129 0.0
H841 H 0.60264 0.76875 0.2606 0.0
H842 H 0.58015 0.7382 0.21225 0.0
O843 O 0.67262 0.71175 0.29066 0.0
H844 H 0.63013 0.69673 0.36121 0.0
H845 H 0.68627 0.67972 0.31737 0.0
H846 H 0.53493 0.748 0.29664 0.0
H847 H 0.65298 0.74951 0.18488 0.0
H848 H 0.52181 0.7588 0.24902 0.0
H849 H 0.64545 0.78731 0.19473 0.0
O850 O 0.59174 0.69902 0.28463 0.0
H851 H 0.6765 0.65613 0.22185 0.0
H852 H 0.63996 0.6529 0.31439 0.0
H853 H 0.64934 0.61981 0.28974 0.0
H854 H 0.66778 0.6213 0.24315 0.0
H855 H 0.66666 0.68883 0.24709 0.0
H856 H 0.70225 0.66727 0.36221 0.0
H857 H 0.68175 0.66947 0.40716 0.0
O858 O 0.6174 0.68566 0.31239 0.0
C859 C 0.62238 0.73916 0.31727 0.0
C860 C 0.6545 0.68323 0.38702 0.0
C861 C 0.6864 0.67369 0.36218 0.0
N862 N 0.65725 0.68882 0.33667 0.0
C863 C 0.6459 0.69019 0.36132 0.0
C864 C 0.6773 0.68081 0.33687 0.0
C865 C 0.67489 0.67492 0.38739 0.0
C866 C 0.63183 0.73831 0.21751 0.0
N867 N 0.61798 0.74372 0.23858 0.0
C868 C 0.64193 0.75388 0.20144 0.0
C869 C 0.63772 0.77509 0.207 0.0
C870 C 0.6235 0.78047 0.22844 0.0
C871 C 0.61373 0.76448 0.24411 0.0
C872 C 0.55022 0.74917 0.22748 0.0
C873 C 0.56492 0.73716 0.28053 0.0
C874 C 0.57029 0.74031 0.2308 0.0
N875 N 0.57742 0.73452 0.25711 0.0
C876 C 0.54477 0.74596 0.27802 0.0
C877 C 0.53741 0.75199 0.25128 0.0
C878 C 0.59821 0.68661 0.30416 0.0
C879 C 0.66853 0.65527 0.24218 0.0
C880 C 0.64792 0.65368 0.29408 0.0
C881 C 0.65324 0.63489 0.28025 0.0
C882 C 0.6636 0.63574 0.25412 0.0
N883 N 0.65285 0.67279 0.28225 0.0
C884 C 0.663 0.67374 0.25663 0.0
Co885 Co 0.0285 0.85792 0.01854 0.0
Co886 Co 0.05159 0.89726 0.05912 0.0
O887 O 0.04164 0.88562 0.02293 0.0
C888 C 0.06366 0.85778 0.97638 0.0
O889 O 0.07565 0.86836 0.99416 0.0
C890 C 0.02079 0.92818 0.03759 0.0
O891 O 0.00799 0.91214 0.03362 0.0
O892 O 0.02493 0.8892 0.07914 0.0
O893 O 0.01156 0.86227 0.05365 0.0
H894 H 0.06579 0.89691 0.16427 0.0
H895 H 0.02765 0.88886 0.97127 0.0
O896 O 0.04483 0.85279 0.983 0.0
H897 H 0.95293 0.87324 0.99211 0.0
H898 H 0.99552 0.7983 0.96318 0.0
H899 H 0.01846 0.82276 0.05785 0.0
H900 H 0.98141 0.85546 0.01875 0.0
H901 H 0.01117 0.83369 0.96927 0.0
O902 O 0.03894 0.9252 0.04861 0.0
H903 H 0.05333 0.88207 0.11876 0.0
H904 H 0.07099 0.93835 0.07572 0.0
H905 H 0.00272 0.7873 0.05276 0.0
H906 H 0.9997 0.90688 0.94393 0.0
H907 H 0.99116 0.77485 0.00514 0.0
H908 H 0.96202 0.89916 0.95438 0.0
O909 O 0.05149 0.8443 0.04092 0.0
H910 H 0.09483 0.92925 0.98045 0.0
H911 H 0.09733 0.89165 0.07226 0.0
H912 H 0.13061 0.90097 0.04804 0.0
H913 H 0.12948 0.91995 0.00183 0.0
H914 H 0.06193 0.91943 0.00522 0.0
H915 H 0.08348 0.95388 0.12081 0.0
H916 H 0.08099 0.93308 0.16548 0.0
O917 O 0.06433 0.86954 0.06983 0.0
C918 C 0.01126 0.87476 0.07485 0.0
C919 C 0.06701 0.90611 0.14494 0.0
C920 C 0.07691 0.9381 0.12055 0.0
N921 N 0.06156 0.90928 0.0946 0.0
C922 C 0.06003 0.89777 0.1191 0.0
C923 C 0.06977 0.92924 0.0951 0.0
C924 C 0.07552 0.92641 0.14561 0.0
C925 C 0.0113 0.88529 0.97577 0.0
N926 N 0.00616 0.87114 0.99659 0.0
C927 C 0.99553 0.8956 0.96029 0.0
C928 C 0.9744 0.89128 0.96619 0.0
C929 C 0.96929 0.87675 0.98737 0.0
C930 C 0.98547 0.86679 0.00246 0.0
C931 C 0.00046 0.80356 0.98405 0.0
C932 C 0.01331 0.81751 0.0371 0.0
C933 C 0.00937 0.82357 0.98762 0.0
N934 N 0.01559 0.83033 0.01393 0.0
C935 C 0.00447 0.7974 0.03433 0.0
C936 C 0.99801 0.79041 0.0076 0.0
C937 C 0.06364 0.85051 0.06091 0.0
C938 C 0.09552 0.92103 0.00061 0.0
C939 C 0.0967 0.89983 0.05209 0.0
C940 C 0.1156 0.90512 0.03852 0.0
C941 C 0.11496 0.91578 0.0126 0.0
N942 N 0.0777 0.90506 0.04022 0.0
C943 C 0.07694 0.91552 0.01481 0.0
Co944 Co 0.61234 0.77405 0.76069 0.0
Co945 Co 0.6478 0.80036 0.80408 0.0
O946 O 0.63855 0.78936 0.76727 0.0
C947 C 0.61076 0.81002 0.72011 0.0
O948 O 0.61922 0.8223 0.73951 0.0
C949 C 0.68023 0.76997 0.78649 0.0
O950 O 0.66446 0.75701 0.78176 0.0
O951 O 0.63955 0.77385 0.8245 0.0
O952 O 0.61677 0.75703 0.79562 0.0
H953 H 0.64129 0.81694 0.90823 0.0
H954 H 0.64497 0.77663 0.71562 0.0
O955 O 0.60722 0.79061 0.7253 0.0
H956 H 0.63512 0.70053 0.73361 0.0
H957 H 0.55794 0.73708 0.70041 0.0
H958 H 0.57683 0.76021 0.79729 0.0
H959 H 0.61389 0.72694 0.75951 0.0
H960 H 0.59149 0.75576 0.70934 0.0
O961 O 0.67666 0.78831 0.79664 0.0
H962 H 0.62931 0.80303 0.86194 0.0
H963 H 0.68731 0.82128 0.82379 0.0
H964 H 0.5432 0.74142 0.78935 0.0
H965 H 0.66644 0.75077 0.68907 0.0
H966 H 0.53356 0.72974 0.74061 0.0
H967 H 0.66164 0.71241 0.69811 0.0
O968 O 0.59607 0.79535 0.78285 0.0
H969 H 0.68205 0.843 0.72653 0.0
H970 H 0.6402 0.84612 0.8149 0.0
H971 H 0.64948 0.87918 0.79011 0.0
H972 H 0.67058 0.87774 0.74561 0.0
H973 H 0.67226 0.81032 0.75185 0.0
H974 H 0.7 0.83525 0.86972 0.0
H975 H 0.67688 0.83319 0.91231 0.0
O976 O 0.61904 0.81231 0.81148 0.0
C977 C 0.62725 0.7585 0.81864 0.0
C978 C 0.65148 0.81798 0.8898 0.0
C979 C 0.68445 0.82823 0.8682 0.0
N980 N 0.65755 0.81147 0.84018 0.0
C981 C 0.64476 0.81018 0.86353 0.0
C982 C 0.67721 0.82025 0.84228 0.0
C983 C 0.67146 0.82708 0.89209 0.0
C984 C 0.64266 0.75996 0.71948 0.0
N985 N 0.6282 0.7533 0.7391 0.0
C986 C 0.65491 0.74539 0.70446 0.0
C987 C 0.65223 0.72388 0.70957 0.0
C988 C 0.63737 0.7172 0.7295 0.0
C989 C 0.62544 0.73222 0.74417 0.0
C990 C 0.56198 0.74207 0.72175 0.0
C991 C 0.5728 0.75504 0.77605 0.0
C992 C 0.58092 0.75269 0.72692 0.0
N993 N 0.58616 0.75895 0.75384 0.0
C994 C 0.55372 0.74447 0.77167 0.0
C995 C 0.54831 0.73794 0.74431 0.0
C996 C 0.60041 0.809 0.80198 0.0
C997 C 0.67289 0.84383 0.74594 0.0
C998 C 0.64932 0.84536 0.7955 0.0
C999 C 0.65457 0.86413 0.78159 0.0
C1000 C 0.66643 0.86332 0.75664 0.0
N1001 N 0.65574 0.82631 0.78489 0.0
C1002 C 0.66738 0.82538 0.76044 0.0
Co1003 Co 0.46832 0.35936 0.01572 0.0
Co1004 Co 0.4456 0.39877 0.05659 0.0
O1005 O 0.45517 0.38704 0.02027 0.0
C1006 C 0.43253 0.35898 0.97463 0.0
O1007 O 0.42084 0.36954 0.99278 0.0
C1008 C 0.47612 0.42967 0.03436 0.0
O1009 O 0.4889 0.41363 0.03022 0.0
O1010 O 0.47248 0.39076 0.07613 0.0
O1011 O 0.48572 0.36387 0.05041 0.0
H1012 H 0.43254 0.3987 0.16201 0.0
H1013 H 0.46843 0.39023 0.96836 0.0
O1014 O 0.4515 0.35407 0.98063 0.0
H1015 H 0.54347 0.37462 0.98714 0.0
H1016 H 0.5007 0.29961 0.95995 0.0
H1017 H 0.47904 0.32439 0.05502 0.0
H1018 H 0.5154 0.35686 0.01458 0.0
H1019 H 0.48497 0.33496 0.96617 0.0
O1020 O 0.45809 0.42671 0.04571 0.0
H1021 H 0.44451 0.38374 0.11633 0.0
H1022 H 0.42632 0.43988 0.07336 0.0
H1023 H 0.49488 0.28898 0.04979 0.0
H1024 H 0.49596 0.40823 0.94022 0.0
H1025 H 0.50579 0.27637 0.00197 0.0
H1026 H 0.5338 0.40052 0.94964 0.0
O1027 O 0.44568 0.34576 0.03875 0.0
H1028 H 0.40149 0.43042 0.97854 0.0
H1029 H 0.40001 0.39315 0.07063 0.0
H1030 H 0.36647 0.4023 0.04696 0.0
H1031 H 0.36708 0.42111 0.00061 0.0
H1032 H 0.43466 0.42077 0.00278 0.0
H1033 H 0.4143 0.45553 0.11862 0.0
H1034 H 0.4173 0.43485 0.16334 0.0
O1035 O 0.43301 0.37107 0.06769 0.0
C1036 C 0.48618 0.37637 0.07162 0.0
C1037 C 0.43109 0.40784 0.14266 0.0
C1038 C 0.42088 0.43975 0.11831 0.0
N1039 N 0.43599 0.41087 0.0922 0.0
C1040 C 0.4378 0.39944 0.11672 0.0
C1041 C 0.42776 0.43083 0.09276 0.0
C1042 C 0.42257 0.42814 0.14339 0.0
C1043 C 0.48486 0.38668 0.97242 0.0
N1044 N 0.49032 0.37256 0.99314 0.0
C1045 C 0.50038 0.39697 0.95649 0.0
C1046 C 0.5216 0.39266 0.96181 0.0
C1047 C 0.52704 0.37815 0.98287 0.0
C1048 C 0.51109 0.3682 0.99842 0.0
C1049 C 0.49605 0.30494 0.9809 0.0
C1050 C 0.48391 0.31907 0.03418 0.0
C1051 C 0.48709 0.32492 0.98455 0.0
N1052 N 0.48124 0.33179 0.01097 0.0
C1053 C 0.4928 0.29898 0.03133 0.0
C1054 C 0.49891 0.29191 0.00449 0.0
C1055 C 0.4337 0.352 0.05892 0.0
C1056 C 0.40102 0.42228 0.99878 0.0
C1057 C 0.40041 0.40126 0.0504 0.0
C1058 C 0.38136 0.40645 0.03714 0.0
C1059 C 0.38172 0.41702 0.01115 0.0
N1060 N 0.41928 0.4065 0.03816 0.0
C1061 C 0.41975 0.41686 0.01267 0.0
Co1062 Co 0.88973 0.22114 0.26227 0.0
Co1063 Co 0.85083 0.19752 0.30308 0.0
O1064 O 0.8622 0.20775 0.26689 0.0
C1065 C 0.89019 0.18579 0.22053 0.0
O1066 O 0.87999 0.17379 0.23868 0.0
C1067 C 0.82003 0.22877 0.28261 0.0
O1068 O 0.83624 0.24136 0.27861 0.0
O1069 O 0.85916 0.22393 0.32349 0.0
O1070 O 0.88539 0.23805 0.2974 0.0
H1071 H 0.85192 0.18229 0.40796 0.0
H1072 H 0.85856 0.22163 0.21528 0.0
O1073 O 0.89486 0.20478 0.22675 0.0
H1074 H 0.87356 0.29652 0.23581 0.0
H1075 H 0.94878 0.25465 0.20639 0.0
H1076 H 0.92497 0.23156 0.3013 0.0
H1077 H 0.89179 0.26825 0.26229 0.0
H1078 H 0.91358 0.23863 0.21278 0.0
O1079 O 0.82284 0.21045 0.29319 0.0
H1080 H 0.86648 0.19512 0.36247 0.0
H1081 H 0.8098 0.17814 0.3199 0.0
H1082 H 0.96023 0.24767 0.2959 0.0
H1083 H 0.84008 0.24938 0.18809 0.0
H1084 H 0.97236 0.25931 0.24816 0.0
H1085 H 0.84748 0.28714 0.1984 0.0
O1086 O 0.90366 0.19833 0.28463 0.0
H1087 H 0.8182 0.15517 0.22402 0.0
H1088 H 0.85639 0.15166 0.31532 0.0
H1089 H 0.84684 0.11865 0.2906 0.0
H1090 H 0.82757 0.12028 0.24463 0.0
H1091 H 0.82823 0.1878 0.2493 0.0
H1092 H 0.79455 0.16527 0.36498 0.0
H1093 H 0.8157 0.16724 0.4094 0.0
O1094 O 0.87863 0.18462 0.31317 0.0
C1095 C 0.87328 0.23791 0.31902 0.0
C1096 C 0.84257 0.1813 0.38874 0.0
C1097 C 0.81036 0.17177 0.36462 0.0
N1098 N 0.83905 0.18725 0.33854 0.0
C1099 C 0.85075 0.18849 0.36291 0.0
C1100 C 0.81905 0.17913 0.33917 0.0
C1101 C 0.82224 0.17287 0.38953 0.0
C1102 C 0.86198 0.23802 0.21971 0.0
N1103 N 0.87621 0.24332 0.24038 0.0
C1104 C 0.85143 0.25367 0.20432 0.0
C1105 C 0.85556 0.27485 0.21014 0.0
C1106 C 0.87018 0.28013 0.23115 0.0
C1107 C 0.8804 0.26406 0.24615 0.0
C1108 C 0.94367 0.24968 0.22731 0.0
C1109 C 0.93008 0.23674 0.28049 0.0
C1110 C 0.92377 0.24056 0.23105 0.0
N1111 N 0.91718 0.2343 0.25743 0.0
C1112 C 0.95008 0.24579 0.27756 0.0
C1113 C 0.95688 0.25229 0.25076 0.0
C1114 C 0.89767 0.1858 0.30431 0.0
C1115 C 0.82654 0.15426 0.24407 0.0
C1116 C 0.84807 0.1525 0.29527 0.0
C1117 C 0.84266 0.13376 0.28141 0.0
C1118 C 0.83183 0.13469 0.25563 0.0
N1119 N 0.84279 0.17164 0.28383 0.0
C1120 C 0.83218 0.17268 0.25856 0.0
Co1121 Co 0.03011 0.63952 0.51427 0.0
Co1122 Co 0.05223 0.60048 0.55639 0.0
O1123 O 0.04303 0.61182 0.51968 0.0
C1124 C 0.06647 0.63916 0.47407 0.0
O1125 O 0.07768 0.62824 0.49239 0.0
C1126 C 0.02115 0.56992 0.5348 0.0
O1127 O 0.00881 0.5862 0.52998 0.0
O1128 O 0.02547 0.6093 0.57557 0.0
O1129 O 0.01219 0.63545 0.54856 0.0
H1130 H 0.06501 0.60196 0.66186 0.0
H1131 H 0.03059 0.60827 0.46736 0.0
O1132 O 0.04752 0.64444 0.4796 0.0
H1133 H 0.95534 0.62413 0.48406 0.0
H1134 H 0.99885 0.6988 0.45648 0.0
H1135 H 0.01891 0.67494 0.55261 0.0
H1136 H 0.98306 0.64206 0.51195 0.0
H1137 H 0.01436 0.66347 0.46381 0.0
O1138 O 0.0392 0.57264 0.54623 0.0
H1139 H 0.05348 0.61643 0.61569 0.0
H1140 H 0.07061 0.55926 0.57444 0.0
H1141 H 0.00328 0.71033 0.54627 0.0
H1142 H 0.00342 0.5901 0.43879 0.0
H1143 H 0.99317 0.72248 0.49792 0.0
H1144 H 0.96548 0.59794 0.44716 0.0
O1145 O 0.05243 0.65327 0.53769 0.0
H1146 H 0.09598 0.56663 0.47966 0.0
H1147 H 0.09786 0.60549 0.57053 0.0
H1148 H 0.1313 0.59526 0.54741 0.0
H1149 H 0.13049 0.57564 0.50167 0.0
H1150 H 0.06292 0.57736 0.50334 0.0
H1151 H 0.08218 0.54409 0.6202 0.0
H1152 H 0.07948 0.56552 0.6643 0.0
O1153 O 0.06527 0.62812 0.56677 0.0
C1154 C 0.01172 0.62349 0.57032 0.0
C1155 C 0.06631 0.59248 0.64278 0.0
C1156 C 0.07592 0.55999 0.6194 0.0
N1157 N 0.06149 0.58875 0.59239 0.0
C1158 C 0.05986 0.60061 0.61657 0.0
C1159 C 0.0693 0.56865 0.59357 0.0
C1160 C 0.07441 0.57203 0.64414 0.0
C1161 C 0.01412 0.61189 0.47096 0.0
N1162 N 0.00841 0.62619 0.49132 0.0
C1163 C 0.99881 0.6015 0.45478 0.0
C1164 C 0.97752 0.60588 0.45952 0.0
C1165 C 0.97182 0.62056 0.48024 0.0
C1166 C 0.98757 0.63061 0.49604 0.0
C1167 C 0.00315 0.69368 0.47767 0.0
C1168 C 0.01439 0.68005 0.53154 0.0
C1169 C 0.01198 0.6737 0.48194 0.0
N1170 N 0.01738 0.66709 0.50865 0.0
C1171 C 0.00561 0.70013 0.52807 0.0
C1172 C 0.99996 0.70695 0.50092 0.0
C1173 C 0.06447 0.64715 0.55786 0.0
C1174 C 0.09654 0.57512 0.49962 0.0
C1175 C 0.09738 0.59704 0.55056 0.0
C1176 C 0.11637 0.59123 0.53761 0.0
C1177 C 0.1159 0.58021 0.51196 0.0
N1178 N 0.07845 0.59196 0.53835 0.0
C1179 C 0.07787 0.58115 0.5132 0.0
Co1180 Co 0.60947 0.22236 0.73387 0.0
Co1181 Co 0.6485 0.19817 0.694 0.0
O1182 O 0.63708 0.20906 0.72977 0.0
C1183 C 0.6092 0.18796 0.77685 0.0
O1184 O 0.61812 0.17533 0.75824 0.0
C1185 C 0.6797 0.22923 0.71396 0.0
O1186 O 0.66376 0.24226 0.71727 0.0
O1187 O 0.64057 0.22443 0.67296 0.0
O1188 O 0.61356 0.23834 0.69786 0.0
H1189 H 0.64775 0.18155 0.58949 0.0
H1190 H 0.64084 0.22444 0.78061 0.0
O1191 O 0.6048 0.20696 0.7703 0.0
H1192 H 0.62509 0.29857 0.75632 0.0
H1193 H 0.55043 0.25701 0.78852 0.0
H1194 H 0.57399 0.23144 0.69465 0.0
H1195 H 0.60703 0.2694 0.73142 0.0
H1196 H 0.58571 0.24104 0.78264 0.0
O1197 O 0.67658 0.21081 0.70387 0.0
H1198 H 0.63314 0.19522 0.63452 0.0
H1199 H 0.68935 0.178 0.67806 0.0
H1200 H 0.53864 0.24747 0.69951 0.0
H1201 H 0.65913 0.2531 0.80623 0.0
H1202 H 0.52664 0.26035 0.74673 0.0
H1203 H 0.65136 0.29048 0.79403 0.0
O1204 O 0.59561 0.19886 0.71272 0.0
H1205 H 0.67986 0.15649 0.77462 0.0
H1206 H 0.64251 0.1522 0.68276 0.0
H1207 H 0.65136 0.11943 0.70849 0.0
H1208 H 0.6702 0.12145 0.75475 0.0
H1209 H 0.67054 0.18888 0.74832 0.0
H1210 H 0.70464 0.16429 0.63346 0.0
H1211 H 0.68375 0.16594 0.58879 0.0
O1212 O 0.62064 0.18547 0.68392 0.0
C1213 C 0.62607 0.23815 0.67664 0.0
C1214 C 0.65699 0.18069 0.60883 0.0
C1215 C 0.68893 0.17103 0.6335 0.0
N1216 N 0.66033 0.18728 0.6589 0.0
C1217 C 0.64878 0.18836 0.6344 0.0
C1218 C 0.68021 0.17886 0.65867 0.0
C1219 C 0.6772 0.17195 0.60845 0.0
C1220 C 0.63724 0.24067 0.77535 0.0
N1221 N 0.62291 0.24525 0.75451 0.0
C1222 C 0.6477 0.25683 0.78986 0.0
C1223 C 0.64335 0.2778 0.78298 0.0
C1224 C 0.62863 0.28234 0.7618 0.0
C1225 C 0.61851 0.26577 0.74771 0.0
C1226 C 0.55548 0.25148 0.76783 0.0
C1227 C 0.56893 0.23715 0.71522 0.0
C1228 C 0.57542 0.24238 0.76439 0.0
N1229 N 0.58194 0.23544 0.73829 0.0
C1230 C 0.54888 0.24615 0.71786 0.0
C1231 C 0.54215 0.25336 0.74437 0.0
C1232 C 0.60165 0.18638 0.69299 0.0
C1233 C 0.67171 0.15541 0.75444 0.0
C1234 C 0.65066 0.15322 0.70291 0.0
C1235 C 0.65567 0.1346 0.71736 0.0
C1236 C 0.66625 0.13575 0.7433 0.0
N1237 N 0.65609 0.17244 0.71396 0.0
C1238 C 0.66647 0.17369 0.73939 0.0
Co1239 Co 0.03059 0.35865 0.98257 0.0
Co1240 Co 0.053 0.39855 0.94229 0.0
O1241 O 0.04337 0.38653 0.97842 0.0
C1242 C 0.06598 0.35866 0.02438 0.0
O1243 O 0.07769 0.36954 0.00661 0.0
C1244 C 0.02183 0.42887 0.96437 0.0
O1245 O 0.00928 0.41261 0.96816 0.0
O1246 O 0.02637 0.39028 0.92237 0.0
O1247 O 0.01343 0.36303 0.94765 0.0
H1248 H 0.06669 0.39921 0.83702 0.0
H1249 H 0.02959 0.38924 0.03024 0.0
O1250 O 0.04717 0.35346 0.01791 0.0
H1251 H 0.95496 0.3729 0.00974 0.0
H1252 H 0.99855 0.29827 0.03743 0.0
H1253 H 0.02078 0.32365 0.94289 0.0
H1254 H 0.98354 0.35562 0.98269 0.0
H1255 H 0.01382 0.33386 0.03168 0.0
O1256 O 0.04001 0.42625 0.95328 0.0
H1257 H 0.05464 0.38385 0.88243 0.0
H1258 H 0.07181 0.44 0.92612 0.0
H1259 H 0.00541 0.288 0.94764 0.0
H1260 H 0.00153 0.40676 0.05799 0.0
H1261 H 0.99422 0.27509 0.9952 0.0
H1262 H 0.9639 0.39869 0.0477 0.0
O1263 O 0.05364 0.34548 0.9598 0.0
H1264 H 0.09617 0.43053 0.02103 0.0
H1265 H 0.09875 0.3936 0.92874 0.0
H1266 H 0.13201 0.40316 0.95283 0.0
H1267 H 0.13085 0.42181 0.99928 0.0
H1268 H 0.06329 0.42049 0.99638 0.0
H1269 H 0.08389 0.45604 0.88114 0.0
H1270 H 0.08144 0.43556 0.8362 0.0
O1271 O 0.06604 0.37107 0.93109 0.0
C1272 C 0.01291 0.37564 0.92658 0.0
C1273 C 0.06789 0.40827 0.85647 0.0
C1274 C 0.07752 0.44018 0.88123 0.0
N1275 N 0.06265 0.41097 0.9069 0.0
C1276 C 0.06114 0.39964 0.88225 0.0
C1277 C 0.07061 0.43104 0.90662 0.0
C1278 C 0.07615 0.42867 0.85602 0.0
C1279 C 0.01325 0.38551 0.02582 0.0
N1280 N 0.0082 0.37144 0.00487 0.0
C1281 C 0.99744 0.39554 0.04153 0.0
C1282 C 0.97633 0.39102 0.03572 0.0
C1283 C 0.9713 0.37657 0.01441 0.0
C1284 C 0.98754 0.36688 0.9991 0.0
C1285 C 0.00334 0.30372 0.01659 0.0
C1286 C 0.01579 0.31819 0.96361 0.0
C1287 C 0.01203 0.32385 0.01321 0.0
N1288 N 0.01804 0.33087 0.98693 0.0
C1289 C 0.00716 0.29797 0.96619 0.0
C1290 C 0.0009 0.29073 0.99288 0.0
C1291 C 0.0656 0.35196 0.93976 0.0
C1292 C 0.09688 0.42247 0.00076 0.0
C1293 C 0.09811 0.40163 0.94902 0.0
C1294 C 0.117 0.40706 0.96251 0.0
C1295 C 0.11633 0.41754 0.98857 0.0
N1296 N 0.07909 0.40656 0.96109 0.0
C1297 C 0.07831 0.41683 0.98663 0.0
Co1298 Co 0.89039 0.77792 0.23636 0.0
Co1299 Co 0.85199 0.80155 0.19481 0.0
O1300 O 0.86278 0.79098 0.23111 0.0
C1301 C 0.88971 0.8126 0.279 0.0
O1302 O 0.88104 0.82511 0.26004 0.0
C1303 C 0.82079 0.77017 0.2138 0.0
O1304 O 0.83685 0.7574 0.21783 0.0
O1305 O 0.86066 0.7753 0.17428 0.0
O1306 O 0.88714 0.76166 0.20042 0.0
H1307 H 0.8547 0.81768 0.09023 0.0
H1308 H 0.85809 0.77591 0.28191 0.0
O1309 O 0.89426 0.79358 0.27275 0.0
H1310 H 0.87497 0.70175 0.25927 0.0
H1311 H 0.94861 0.74403 0.29343 0.0
H1312 H 0.92671 0.76892 0.19851 0.0
H1313 H 0.89332 0.73088 0.23469 0.0
H1314 H 0.91333 0.75969 0.28615 0.0
O1315 O 0.82385 0.78861 0.20372 0.0
H1316 H 0.86854 0.80443 0.13591 0.0
H1317 H 0.81124 0.82114 0.17716 0.0
H1318 H 0.96207 0.7532 0.20479 0.0
H1319 H 0.83949 0.74729 0.3072 0.0
H1320 H 0.97323 0.74065 0.25254 0.0
H1321 H 0.84783 0.70989 0.29582 0.0
O1322 O 0.90447 0.8014 0.21542 0.0
H1323 H 0.81848 0.84321 0.27387 0.0
H1324 H 0.85764 0.84753 0.18338 0.0
H1325 H 0.84787 0.88032 0.20848 0.0
H1326 H 0.82812 0.87828 0.25404 0.0
H1327 H 0.82873 0.81082 0.24822 0.0
H1328 H 0.79671 0.83443 0.13187 0.0
H1329 H 0.81853 0.83282 0.08802 0.0
O1330 O 0.87991 0.81454 0.18569 0.0
C1331 C 0.87514 0.76167 0.17868 0.0
C1332 C 0.84506 0.81852 0.1092 0.0
C1333 C 0.8125 0.8279 0.13257 0.0
N1334 N 0.84076 0.81214 0.15919 0.0
C1335 C 0.85283 0.81109 0.13514 0.0
C1336 C 0.82079 0.8203 0.15813 0.0
C1337 C 0.82476 0.827 0.10797 0.0
C1338 C 0.86193 0.75968 0.27701 0.0
N1339 N 0.87674 0.75506 0.2568 0.0
C1340 C 0.85129 0.74354 0.29134 0.0
C1341 C 0.85596 0.72256 0.28491 0.0
C1342 C 0.87117 0.71798 0.26439 0.0
C1343 C 0.88145 0.73453 0.25046 0.0
C1344 C 0.94392 0.74942 0.27252 0.0
C1345 C 0.9314 0.76336 0.21931 0.0
C1346 C 0.92399 0.75834 0.26828 0.0
N1347 N 0.91793 0.76509 0.24189 0.0
C1348 C 0.95147 0.75453 0.22276 0.0
C1349 C 0.95772 0.74751 0.24956 0.0
C1350 C 0.89872 0.81379 0.19543 0.0
C1351 C 0.82703 0.84431 0.25399 0.0
C1352 C 0.8491 0.84651 0.20324 0.0
C1353 C 0.84357 0.86513 0.21732 0.0
C1354 C 0.83247 0.86398 0.24288 0.0
N1355 N 0.84368 0.82727 0.21425 0.0
C1356 C 0.8328 0.82602 0.2393 0.0
Co1357 Co 0.47244 0.64288 0.48591 0.0
Co1358 Co 0.44898 0.6029 0.44692 0.0
O1359 O 0.45938 0.61509 0.48251 0.0
C1360 C 0.4375 0.64373 0.52807 0.0
O1361 O 0.42535 0.63372 0.5099 0.0
C1362 C 0.48028 0.57244 0.46826 0.0
O1363 O 0.49302 0.58861 0.47152 0.0
O1364 O 0.47532 0.61078 0.42604 0.0
O1365 O 0.48894 0.63812 0.45053 0.0
H1366 H 0.43332 0.60159 0.34215 0.0
H1367 H 0.47403 0.61262 0.53396 0.0
O1368 O 0.45648 0.64833 0.52168 0.0
H1369 H 0.5484 0.62812 0.51078 0.0
H1370 H 0.50593 0.7033 0.53909 0.0
H1371 H 0.48188 0.67755 0.44554 0.0
H1372 H 0.5195 0.64548 0.48447 0.0
H1373 H 0.49026 0.66781 0.5342 0.0
O1374 O 0.4619 0.57516 0.45782 0.0
H1375 H 0.44641 0.61715 0.38691 0.0
H1376 H 0.42944 0.56154 0.43197 0.0
H1377 H 0.49763 0.71309 0.44943 0.0
H1378 H 0.50242 0.59503 0.56099 0.0
H1379 H 0.50974 0.72619 0.49648 0.0
H1380 H 0.53992 0.60268 0.54936 0.0
O1381 O 0.44915 0.65613 0.46363 0.0
H1382 H 0.407 0.57224 0.52775 0.0
H1383 H 0.40304 0.60815 0.43481 0.0
H1384 H 0.37015 0.59926 0.46027 0.0
H1385 H 0.37201 0.58115 0.50706 0.0
H1386 H 0.4395 0.58159 0.50171 0.0
H1387 H 0.41632 0.5453 0.38766 0.0
H1388 H 0.41815 0.5654 0.34235 0.0
O1389 O 0.43602 0.6304 0.43575 0.0
C1390 C 0.48899 0.62533 0.42964 0.0
C1391 C 0.43239 0.59269 0.36177 0.0
C1392 C 0.42288 0.56108 0.3873 0.0
N1393 N 0.43856 0.59032 0.41204 0.0
C1394 C 0.43973 0.60144 0.38718 0.0
C1395 C 0.43037 0.57034 0.41231 0.0
C1396 C 0.4239 0.57238 0.36189 0.0
C1397 C 0.49031 0.61616 0.52895 0.0
N1398 N 0.49511 0.63004 0.50765 0.0
C1399 C 0.50632 0.6061 0.54426 0.0
C1400 C 0.52736 0.61038 0.53769 0.0
C1401 C 0.53212 0.62463 0.51604 0.0
C1402 C 0.5157 0.63437 0.50115 0.0
C1403 C 0.50074 0.69776 0.51847 0.0
C1404 C 0.48726 0.68309 0.46605 0.0
C1405 C 0.49181 0.6777 0.51558 0.0
N1406 N 0.48529 0.67057 0.48957 0.0
C1407 C 0.49611 0.70324 0.46813 0.0
C1408 C 0.50288 0.71059 0.49455 0.0
C1409 C 0.43681 0.64959 0.44404 0.0
C1410 C 0.40599 0.58008 0.50733 0.0
C1411 C 0.40398 0.60033 0.45521 0.0
C1412 C 0.38531 0.59529 0.46949 0.0
C1413 C 0.38636 0.58511 0.49573 0.0
N1414 N 0.42318 0.59531 0.4667 0.0
C1415 C 0.42433 0.58533 0.49243 0.0
Co1416 Co 0.39181 0.2203 0.23585 0.0
Co1417 Co 0.35178 0.19825 0.1954 0.0
O1418 O 0.36387 0.20765 0.2316 0.0
C1419 C 0.39176 0.1845 0.277 0.0
O1420 O 0.38062 0.17306 0.2592 0.0
C1421 C 0.32162 0.22959 0.21761 0.0
O1422 O 0.33797 0.24196 0.22181 0.0
O1423 O 0.36029 0.22488 0.17567 0.0
O1424 O 0.38735 0.23785 0.20129 0.0
H1425 H 0.35113 0.18491 0.09005 0.0
H1426 H 0.36128 0.22083 0.2836 0.0
O1427 O 0.39708 0.20332 0.27081 0.0
H1428 H 0.37795 0.29563 0.26485 0.0
H1429 H 0.45248 0.25152 0.29101 0.0
H1430 H 0.4267 0.23051 0.19616 0.0
H1431 H 0.39508 0.26733 0.23711 0.0
H1432 H 0.41682 0.23643 0.28516 0.0
O1433 O 0.32417 0.21145 0.20637 0.0
H1434 H 0.36654 0.19667 0.13556 0.0
H1435 H 0.31018 0.17986 0.17902 0.0
H1436 H 0.46241 0.24572 0.20102 0.0
H1437 H 0.34391 0.2486 0.31204 0.0
H1438 H 0.47552 0.2563 0.24873 0.0
H1439 H 0.35215 0.28632 0.30264 0.0
O1440 O 0.40489 0.19748 0.21257 0.0
H1441 H 0.31933 0.15513 0.27384 0.0
H1442 H 0.35632 0.15251 0.1816 0.0
H1443 H 0.34644 0.11926 0.20548 0.0
H1444 H 0.32776 0.12044 0.25191 0.0
H1445 H 0.32969 0.18799 0.24938 0.0
H1446 H 0.29409 0.16807 0.13394 0.0
H1447 H 0.31464 0.17049 0.08906 0.0
O1448 O 0.37915 0.185 0.18417 0.0
C1449 C 0.37483 0.23842 0.18012 0.0
C1450 C 0.34204 0.18373 0.10948 0.0
C1451 C 0.31001 0.1743 0.13411 0.0
N1452 N 0.33932 0.18883 0.15993 0.0
C1453 C 0.35069 0.19031 0.13532 0.0
C1454 C 0.31918 0.18105 0.15955 0.0
C1455 C 0.32156 0.17565 0.10893 0.0
C1456 C 0.36507 0.2372 0.27954 0.0
N1457 N 0.37914 0.24246 0.25868 0.0
C1458 C 0.35513 0.25286 0.29565 0.0
C1459 C 0.35975 0.27402 0.29034 0.0
C1460 C 0.3742 0.27926 0.26912 0.0
C1461 C 0.38379 0.26318 0.25341 0.0
C1462 C 0.44693 0.24701 0.2701 0.0
C1463 C 0.43224 0.23524 0.21696 0.0
C1464 C 0.42677 0.23841 0.26666 0.0
N1465 N 0.41963 0.23274 0.2403 0.0
C1466 C 0.45249 0.24378 0.21959 0.0
C1467 C 0.45985 0.24969 0.24637 0.0
C1468 C 0.3983 0.18548 0.19263 0.0
C1469 C 0.32741 0.15441 0.25357 0.0
C1470 C 0.34828 0.15316 0.20186 0.0
C1471 C 0.34267 0.13427 0.21524 0.0
C1472 C 0.33217 0.13495 0.24128 0.0
N1473 N 0.34352 0.17218 0.21403 0.0
C1474 C 0.33323 0.17297 0.23956 0.0
Co1475 Co 0.52907 0.64372 0.98053 0.0
Co1476 Co 0.5486 0.6032 0.9401 0.0
O1477 O 0.53876 0.61467 0.97625 0.0
C1478 C 0.55993 0.63866 0.02731 0.0
O1479 O 0.57317 0.6304 0.0089 0.0
C1480 C 0.51676 0.57269 0.96013 0.0
O1481 O 0.50396 0.58883 0.96345 0.0
O1482 O 0.52208 0.61236 0.92076 0.0
O1483 O 0.51623 0.6437 0.94173 0.0
H1484 H 0.56252 0.60425 0.8349 0.0
H1485 H 0.51829 0.61222 0.02486 0.0
O1486 O 0.54165 0.64463 0.01939 0.0
H1487 H 0.44993 0.63805 0.9885 0.0
H1488 H 0.49773 0.70477 0.03466 0.0
H1489 H 0.52889 0.68176 0.94365 0.0
H1490 H 0.48339 0.65223 0.9696 0.0
H1491 H 0.50949 0.66793 0.0281 0.0
O1492 O 0.53522 0.57552 0.95006 0.0
H1493 H 0.55053 0.61893 0.88076 0.0
H1494 H 0.56689 0.56178 0.92264 0.0
H1495 H 0.5172 0.7187 0.94922 0.0
H1496 H 0.48519 0.59775 0.04455 0.0
H1497 H 0.50144 0.73038 0.99498 0.0
H1498 H 0.4507 0.61063 0.02627 0.0
O1499 O 0.55589 0.65445 0.96419 0.0
H1500 H 0.59083 0.56951 0.01845 0.0
H1501 H 0.59453 0.60727 0.92685 0.0
H1502 H 0.62749 0.59681 0.951 0.0
H1503 H 0.62576 0.57775 0.99712 0.0
H1504 H 0.55826 0.58045 0.99373 0.0
H1505 H 0.57889 0.54641 0.8772 0.0
H1506 H 0.57682 0.56774 0.83294 0.0
O1507 O 0.56238 0.63072 0.92975 0.0
C1508 C 0.51289 0.63025 0.92207 0.0
C1509 C 0.56356 0.59483 0.85406 0.0
C1510 C 0.57272 0.56235 0.87779 0.0
N1511 N 0.55817 0.59128 0.90436 0.0
C1512 C 0.55685 0.60307 0.88009 0.0
C1513 C 0.56586 0.57112 0.90344 0.0
C1514 C 0.57157 0.57433 0.85297 0.0
C1515 C 0.50334 0.61807 0.01703 0.0
N1516 N 0.50278 0.63312 0.9962 0.0
C1517 C 0.48465 0.60975 0.02816 0.0
C1518 C 0.46531 0.61695 0.01786 0.0
C1519 C 0.46486 0.63233 0.99665 0.0
C1520 C 0.48387 0.64026 0.98598 0.0
C1521 C 0.50452 0.69984 0.0146 0.0
C1522 C 0.52195 0.68671 0.96358 0.0
C1523 C 0.51124 0.67902 0.01078 0.0
N1524 N 0.5197 0.67266 0.98543 0.0
C1525 C 0.51542 0.70766 0.96663 0.0
C1526 C 0.50661 0.71421 0.99232 0.0
C1527 C 0.56565 0.64852 0.94185 0.0
C1528 C 0.59178 0.57776 0.99833 0.0
C1529 C 0.59364 0.59906 0.94697 0.0
C1530 C 0.61236 0.59313 0.9605 0.0
C1531 C 0.61138 0.58242 0.98637 0.0
N1532 N 0.57447 0.59441 0.95881 0.0
C1533 C 0.57339 0.58391 0.98417 0.0
Co1534 Co 0.10411 0.77815 0.73755 0.0
Co1535 Co 0.14405 0.80052 0.69747 0.0
O1536 O 0.13216 0.79049 0.73338 0.0
C1537 C 0.10504 0.81291 0.78007 0.0
O1538 O 0.11407 0.82524 0.7612 0.0
C1539 C 0.17438 0.76893 0.71854 0.0
O1540 O 0.15816 0.75629 0.72213 0.0
O1541 O 0.13554 0.77417 0.67717 0.0
O1542 O 0.10779 0.7616 0.70187 0.0
H1543 H 0.14433 0.81545 0.59251 0.0
H1544 H 0.13547 0.77551 0.78427 0.0
O1545 O 0.09996 0.79405 0.77368 0.0
H1546 H 0.11676 0.70173 0.76199 0.0
H1547 H 0.04372 0.74623 0.79255 0.0
H1548 H 0.06846 0.76985 0.69831 0.0
H1549 H 0.0998 0.73122 0.7364 0.0
H1550 H 0.07956 0.76088 0.78656 0.0
O1551 O 0.17169 0.78727 0.70797 0.0
H1552 H 0.1291 0.80295 0.63777 0.0
H1553 H 0.18553 0.8193 0.68139 0.0
H1554 H 0.03254 0.75513 0.70329 0.0
H1555 H 0.15269 0.74652 0.81057 0.0
H1556 H 0.01997 0.74322 0.75069 0.0
H1557 H 0.14343 0.70931 0.79939 0.0
O1558 O 0.09111 0.8019 0.71587 0.0
H1559 H 0.17614 0.84255 0.77723 0.0
H1560 H 0.13944 0.84646 0.68486 0.0
H1561 H 0.14909 0.87937 0.70974 0.0
H1562 H 0.16761 0.87754 0.75625 0.0
H1563 H 0.16603 0.81003 0.75176 0.0
H1564 H 0.20145 0.83183 0.63655 0.0
H1565 H 0.18077 0.83002 0.59172 0.0
O1566 O 0.11663 0.81385 0.68674 0.0
C1567 C 0.12055 0.76101 0.68092 0.0
C1568 C 0.15348 0.81638 0.61191 0.0
C1569 C 0.18555 0.82554 0.63663 0.0
N1570 N 0.15637 0.81052 0.6622 0.0
C1571 C 0.14492 0.80937 0.63761 0.0
C1572 C 0.17647 0.81838 0.66193 0.0
C1573 C 0.17393 0.82453 0.61148 0.0
C1574 C 0.13124 0.75936 0.77942 0.0
N1575 N 0.11671 0.75505 0.75873 0.0
C1576 C 0.14109 0.74301 0.79433 0.0
C1577 C 0.13591 0.72214 0.78802 0.0
C1578 C 0.12097 0.71787 0.76702 0.0
C1579 C 0.11148 0.73462 0.75251 0.0
C1580 C 0.04903 0.75134 0.77178 0.0
C1581 C 0.06314 0.76456 0.71896 0.0
C1582 C 0.06928 0.7597 0.76827 0.0
N1583 N 0.07613 0.76609 0.74207 0.0
C1584 C 0.04277 0.7563 0.72167 0.0
C1585 C 0.03571 0.74965 0.74828 0.0
C1586 C 0.09761 0.8138 0.69577 0.0
C1587 C 0.16813 0.84355 0.75694 0.0
C1588 C 0.14744 0.84553 0.70513 0.0
C1589 C 0.15291 0.86422 0.71909 0.0
C1590 C 0.16331 0.86318 0.74517 0.0
N1591 N 0.15225 0.82634 0.71678 0.0
C1592 C 0.16245 0.82519 0.74236 0.0
Co1593 Co 0.9694 0.3566 0.48311 0.0
Co1594 Co 0.94664 0.39629 0.44279 0.0
O1595 O 0.95661 0.38448 0.47886 0.0
C1596 C 0.93416 0.3568 0.52501 0.0
O1597 O 0.92232 0.36717 0.50683 0.0
C1598 C 0.97799 0.42675 0.464 0.0
O1599 O 0.99054 0.41053 0.46802 0.0
O1600 O 0.97309 0.38787 0.42255 0.0
O1601 O 0.98636 0.36082 0.44796 0.0
H1602 H 0.93193 0.39625 0.33776 0.0
H1603 H 0.97071 0.38747 0.53046 0.0
O1604 O 0.95302 0.35167 0.51869 0.0
H1605 H 0.0452 0.37084 0.50943 0.0
H1606 H 0.0017 0.29646 0.53821 0.0
H1607 H 0.979 0.3214 0.44365 0.0
H1608 H 0.01645 0.35348 0.48283 0.0
H1609 H 0.98644 0.33205 0.53228 0.0
O1610 O 0.95974 0.42404 0.45318 0.0
H1611 H 0.94444 0.3812 0.38314 0.0
H1612 H 0.92768 0.43764 0.42645 0.0
H1613 H 0.99435 0.28575 0.44858 0.0
H1614 H 0.99894 0.40508 0.55778 0.0
H1615 H 0.00578 0.27306 0.49614 0.0
H1616 H 0.0365 0.39685 0.54722 0.0
O1617 O 0.94622 0.3433 0.46073 0.0
H1618 H 0.90428 0.42863 0.52206 0.0
H1619 H 0.90075 0.39136 0.43008 0.0
H1620 H 0.86774 0.40101 0.45472 0.0
H1621 H 0.86938 0.41982 0.50103 0.0
H1622 H 0.93691 0.4185 0.49685 0.0
H1623 H 0.91515 0.45338 0.3815 0.0
H1624 H 0.91716 0.4326 0.33677 0.0
O1625 O 0.93347 0.36878 0.43215 0.0
C1626 C 0.98667 0.37333 0.42674 0.0
C1627 C 0.93092 0.40544 0.35713 0.0
C1628 C 0.92153 0.43751 0.38167 0.0
N1629 N 0.93666 0.40847 0.40742 0.0
C1630 C 0.93793 0.39698 0.38289 0.0
C1631 C 0.92869 0.42854 0.40704 0.0
C1632 C 0.92265 0.42584 0.35658 0.0
C1633 C 0.98702 0.38369 0.52592 0.0
N1634 N 0.99193 0.36949 0.50505 0.0
C1635 C 0.00293 0.39375 0.54138 0.0
C1636 C 0.024 0.38915 0.53543 0.0
C1637 C 0.02889 0.37458 0.51421 0.0
C1638 C 0.01256 0.36485 0.49915 0.0
C1639 C 0.99681 0.30182 0.51736 0.0
C1640 C 0.98409 0.31604 0.46438 0.0
C1641 C 0.98812 0.32194 0.51388 0.0
N1642 N 0.98197 0.32884 0.48761 0.0
C1643 C 0.99271 0.29582 0.46706 0.0
C1644 C 0.9991 0.2887 0.49375 0.0
C1645 C 0.93402 0.34971 0.44091 0.0
C1646 C 0.90336 0.42049 0.50186 0.0
C1647 C 0.9016 0.39947 0.45028 0.0
C1648 C 0.88286 0.40494 0.46409 0.0
C1649 C 0.88379 0.41551 0.49007 0.0
N1650 N 0.92075 0.40443 0.46195 0.0
C1651 C 0.92178 0.4148 0.48741 0.0
Co1652 Co 0.39597 0.77837 0.26307 0.0
Co1653 Co 0.35603 0.80136 0.30273 0.0
O1654 O 0.3681 0.79126 0.2669 0.0
C1655 C 0.39673 0.8142 0.22241 0.0
O1656 O 0.38637 0.82574 0.24094 0.0
C1657 C 0.32569 0.76983 0.28141 0.0
O1658 O 0.34194 0.7573 0.27741 0.0
O1659 O 0.36446 0.77506 0.32333 0.0
O1660 O 0.39124 0.76122 0.29794 0.0
H1661 H 0.3554 0.81666 0.4076 0.0
H1662 H 0.36572 0.77762 0.215 0.0
O1663 O 0.40142 0.79509 0.2279 0.0
H1664 H 0.38148 0.70287 0.23553 0.0
H1665 H 0.45658 0.74626 0.20873 0.0
H1666 H 0.43065 0.7682 0.30313 0.0
H1667 H 0.39875 0.73131 0.26285 0.0
H1668 H 0.42101 0.76167 0.21417 0.0
O1669 O 0.32838 0.7881 0.2922 0.0
H1670 H 0.37077 0.80399 0.36251 0.0
H1671 H 0.31449 0.82022 0.31846 0.0
H1672 H 0.46627 0.75269 0.29869 0.0
H1673 H 0.34822 0.74971 0.18697 0.0
H1674 H 0.47946 0.74165 0.25121 0.0
H1675 H 0.35601 0.71202 0.19727 0.0
O1676 O 0.40918 0.80129 0.28603 0.0
H1677 H 0.32414 0.84312 0.22255 0.0
H1678 H 0.3606 0.84734 0.31508 0.0
H1679 H 0.351 0.88017 0.28994 0.0
H1680 H 0.33261 0.87818 0.24336 0.0
H1681 H 0.3342 0.81069 0.24827 0.0
H1682 H 0.29843 0.83292 0.36312 0.0
H1683 H 0.31897 0.83125 0.40808 0.0
O1684 O 0.3834 0.81473 0.31353 0.0
C1685 C 0.37878 0.76122 0.31921 0.0
C1686 C 0.34631 0.81752 0.38813 0.0
C1687 C 0.31433 0.82661 0.36317 0.0
N1688 N 0.34359 0.81149 0.33787 0.0
C1689 C 0.35495 0.81041 0.36253 0.0
C1690 C 0.32348 0.81936 0.33797 0.0
C1691 C 0.32586 0.82568 0.38839 0.0
C1692 C 0.36931 0.76126 0.21944 0.0
N1693 N 0.38321 0.75609 0.24056 0.0
C1694 C 0.35931 0.74552 0.20356 0.0
C1695 C 0.36366 0.72438 0.20938 0.0
C1696 C 0.37794 0.71924 0.23086 0.0
C1697 C 0.38761 0.7354 0.24633 0.0
C1698 C 0.451 0.75098 0.22954 0.0
C1699 C 0.43622 0.76326 0.28243 0.0
C1700 C 0.43089 0.75975 0.23274 0.0
N1701 N 0.42371 0.76568 0.25898 0.0
C1702 C 0.45642 0.75456 0.28004 0.0
C1703 C 0.46382 0.74838 0.25338 0.0
C1704 C 0.40259 0.81383 0.30534 0.0
C1705 C 0.3321 0.84419 0.24288 0.0
C1706 C 0.35265 0.84634 0.29477 0.0
C1707 C 0.34722 0.86498 0.28067 0.0
C1708 C 0.33688 0.86386 0.25454 0.0
N1709 N 0.34788 0.82711 0.28321 0.0
C1710 C 0.33774 0.82588 0.2576 0.0
Co1711 Co 0.97433 0.64268 0.01797 0.0
Co1712 Co 0.95077 0.6032 0.05768 0.0
O1713 O 0.9615 0.61484 0.02196 0.0
C1714 C 0.94009 0.64237 0.97476 0.0
O1715 O 0.92748 0.63343 0.99337 0.0
C1716 C 0.98226 0.57249 0.03756 0.0
O1717 O 0.99507 0.58862 0.03438 0.0
O1718 O 0.97695 0.61141 0.0787 0.0
O1719 O 0.99027 0.63885 0.05408 0.0
H1720 H 0.93421 0.60347 0.1622 0.0
H1721 H 0.97717 0.61139 0.97122 0.0
O1722 O 0.959 0.64705 0.98143 0.0
H1723 H 0.0509 0.6284 0.99612 0.0
H1724 H 0.00808 0.70236 0.96357 0.0
H1725 H 0.9826 0.67832 0.05726 0.0
H1726 H 0.02132 0.64593 0.02081 0.0
H1727 H 0.99278 0.66678 0.96934 0.0
O1728 O 0.96379 0.57531 0.04765 0.0
H1729 H 0.94768 0.61836 0.11723 0.0
H1730 H 0.93116 0.56205 0.07345 0.0
H1731 H 0.99794 0.71398 0.0525 0.0
H1732 H 0.00626 0.59361 0.94581 0.0
H1733 H 0.01077 0.72622 0.00537 0.0
H1734 H 0.04344 0.60202 0.95832 0.0
O1735 O 0.95049 0.6561 0.03895 0.0
H1736 H 0.9095 0.57153 0.97691 0.0
H1737 H 0.90473 0.60852 0.069 0.0
H1738 H 0.87207 0.59931 0.04324 0.0
H1739 H 0.87433 0.58065 0.99686 0.0
H1740 H 0.94177 0.5812 0.00324 0.0
H1741 H 0.91767 0.54647 0.11799 0.0
H1742 H 0.91907 0.56727 0.16275 0.0
O1743 O 0.93767 0.63087 0.06789 0.0
C1744 C 0.99036 0.62621 0.07515 0.0
C1745 C 0.93346 0.59427 0.14282 0.0
C1746 C 0.9242 0.56227 0.11801 0.0
N1747 N 0.94007 0.59114 0.09273 0.0
C1748 C 0.94101 0.60264 0.11728 0.0
C1749 C 0.93191 0.57115 0.09288 0.0
C1750 C 0.92498 0.57396 0.14312 0.0
C1751 C 0.99331 0.61526 0.97661 0.0
N1752 N 0.99755 0.62966 0.99749 0.0
C1753 C 0.00971 0.60509 0.96221 0.0
C1754 C 0.03057 0.6098 0.96927 0.0
C1755 C 0.03477 0.62459 0.99049 0.0
C1756 C 0.01796 0.63441 0.00446 0.0
C1757 C 0.00256 0.6972 0.98423 0.0
C1758 C 0.98829 0.68348 0.03673 0.0
C1759 C 0.99384 0.67709 0.98761 0.0
N1760 N 0.98692 0.67044 0.01365 0.0
C1761 C 0.99691 0.70371 0.03414 0.0
C1762 C 0.00408 0.71057 0.00769 0.0
C1763 C 0.93817 0.64985 0.05873 0.0
C1764 C 0.90831 0.5796 0.99714 0.0
C1765 C 0.90585 0.60045 0.04879 0.0
C1766 C 0.8873 0.59524 0.03433 0.0
C1767 C 0.88858 0.58475 0.00832 0.0
N1768 N 0.92514 0.59532 0.0377 0.0
C1769 C 0.92652 0.58504 0.01221 0.0
Co1770 Co 0.10847 0.22087 0.76199 0.0
Co1771 Co 0.14818 0.19884 0.80304 0.0
O1772 O 0.13635 0.20817 0.76666 0.0
C1773 C 0.10881 0.18498 0.72095 0.0
O1774 O 0.12 0.17362 0.73879 0.0
C1775 C 0.17844 0.23014 0.7811 0.0
O1776 O 0.16212 0.2425 0.77671 0.0
O1777 O 0.1395 0.22549 0.82259 0.0
O1778 O 0.11273 0.23853 0.7965 0.0
H1779 H 0.14801 0.18563 0.90843 0.0
H1780 H 0.13934 0.22116 0.71464 0.0
O1781 O 0.10338 0.20378 0.72709 0.0
H1782 H 0.12267 0.29606 0.73264 0.0
H1783 H 0.04822 0.252 0.70589 0.0
H1784 H 0.07334 0.23131 0.80119 0.0
H1785 H 0.10529 0.2679 0.76035 0.0
H1786 H 0.08382 0.23687 0.71228 0.0
O1787 O 0.17584 0.21203 0.7924 0.0
H1788 H 0.13294 0.1973 0.86267 0.0
H1789 H 0.18968 0.18053 0.82006 0.0
H1790 H 0.03768 0.24654 0.7958 0.0
H1791 H 0.15697 0.24878 0.68624 0.0
H1792 H 0.0249 0.25696 0.74786 0.0
H1793 H 0.14873 0.28655 0.69527 0.0
O1794 O 0.09519 0.19816 0.78525 0.0
H1795 H 0.18132 0.15559 0.72524 0.0
H1796 H 0.14355 0.15312 0.81692 0.0
H1797 H 0.15368 0.11983 0.79332 0.0
H1798 H 0.17275 0.12094 0.74718 0.0
H1799 H 0.1707 0.18849 0.74941 0.0
H1800 H 0.20543 0.16883 0.8654 0.0
H1801 H 0.18452 0.17128 0.90998 0.0
O1802 O 0.12073 0.18561 0.81391 0.0
C1803 C 0.12505 0.23908 0.81789 0.0
C1804 C 0.15726 0.18444 0.88914 0.0
C1805 C 0.1895 0.17503 0.86499 0.0
N1806 N 0.16037 0.18947 0.83871 0.0
C1807 C 0.1488 0.19097 0.86316 0.0
C1808 C 0.18052 0.18173 0.8394 0.0
C1809 C 0.17775 0.1764 0.89 0.0
C1810 C 0.13556 0.23755 0.71853 0.0
N1811 N 0.12134 0.24293 0.73917 0.0
C1812 C 0.14564 0.25312 0.70245 0.0
C1813 C 0.14103 0.27431 0.70755 0.0
C1814 C 0.12642 0.27966 0.72854 0.0
C1815 C 0.11669 0.26367 0.74424 0.0
C1816 C 0.05362 0.24755 0.72689 0.0
C1817 C 0.06795 0.23597 0.7803 0.0
C1818 C 0.07375 0.23894 0.73064 0.0
N1819 N 0.08071 0.23336 0.75712 0.0
C1820 C 0.04772 0.24452 0.77736 0.0
C1821 C 0.04055 0.25034 0.75045 0.0
C1822 C 0.10163 0.18614 0.80525 0.0
C1823 C 0.17307 0.1549 0.74538 0.0
C1824 C 0.15176 0.15373 0.79678 0.0
C1825 C 0.15751 0.13483 0.78356 0.0
C1826 C 0.16822 0.13546 0.75768 0.0
N1827 N 0.1566 0.17274 0.78461 0.0
C1828 C 0.1671 0.17348 0.75924 0.0
Co1829 Co 0.52886 0.35819 0.51624 0.0
Co1830 Co 0.5528 0.39721 0.5563 0.0
O1831 O 0.5417 0.38599 0.52056 0.0
C1832 C 0.56246 0.3591 0.47207 0.0
O1833 O 0.57555 0.36731 0.49069 0.0
C1834 C 0.52111 0.42814 0.53753 0.0
O1835 O 0.50827 0.41203 0.53437 0.0
O1836 O 0.52682 0.38881 0.5776 0.0
O1837 O 0.51343 0.36147 0.55284 0.0
H1838 H 0.57038 0.39574 0.6605 0.0
H1839 H 0.52527 0.39014 0.47037 0.0
O1840 O 0.54363 0.35444 0.47917 0.0
H1841 H 0.45196 0.37255 0.49675 0.0
H1842 H 0.49446 0.29921 0.46122 0.0
H1843 H 0.52123 0.32199 0.55482 0.0
H1844 H 0.48193 0.35478 0.52023 0.0
H1845 H 0.50978 0.33473 0.46749 0.0
O1846 O 0.53972 0.42522 0.54708 0.0
H1847 H 0.55645 0.38138 0.61548 0.0
H1848 H 0.57263 0.43815 0.57256 0.0
H1849 H 0.50587 0.28638 0.54956 0.0
H1850 H 0.49577 0.40817 0.44617 0.0
H1851 H 0.4924 0.27477 0.50247 0.0
H1852 H 0.4588 0.39947 0.45943 0.0
O1853 O 0.55302 0.34454 0.5363 0.0
H1854 H 0.59334 0.42969 0.47545 0.0
H1855 H 0.59894 0.39172 0.56672 0.0
H1856 H 0.63137 0.40117 0.54059 0.0
H1857 H 0.62869 0.42033 0.49462 0.0
H1858 H 0.56131 0.41976 0.50214 0.0
H1859 H 0.58658 0.45321 0.61718 0.0
H1860 H 0.58558 0.43191 0.66153 0.0
O1861 O 0.56593 0.36942 0.56572 0.0
C1862 C 0.51348 0.37395 0.57409 0.0
C1863 C 0.57096 0.40515 0.6413 0.0
C1864 C 0.58002 0.43742 0.61699 0.0
N1865 N 0.56387 0.40886 0.5914 0.0
C1866 C 0.56314 0.39709 0.61573 0.0
C1867 C 0.57206 0.42883 0.59181 0.0
C1868 C 0.57946 0.42545 0.64187 0.0
C1869 C 0.50922 0.38613 0.47607 0.0
N1870 N 0.50533 0.37143 0.4967 0.0
C1871 C 0.49258 0.39645 0.46237 0.0
C1872 C 0.47184 0.39158 0.46984 0.0
C1873 C 0.468 0.37649 0.4908 0.0
C1874 C 0.48503 0.36652 0.50408 0.0
C1875 C 0.50026 0.30409 0.48185 0.0
C1876 C 0.51526 0.3171 0.53431 0.0
C1877 C 0.509 0.32416 0.48551 0.0
N1878 N 0.51628 0.33047 0.51154 0.0
C1879 C 0.50664 0.2969 0.53144 0.0
C1880 C 0.49909 0.29039 0.50501 0.0
C1881 C 0.56544 0.35056 0.55611 0.0
C1882 C 0.59472 0.4214 0.49549 0.0
C1883 C 0.59764 0.4 0.54669 0.0
C1884 C 0.61606 0.40535 0.53202 0.0
C1885 C 0.61454 0.41612 0.50624 0.0
N1886 N 0.57825 0.40527 0.53604 0.0
C1887 C 0.57664 0.41582 0.51077 0.0
H1888 H 0.08828 0.14432 0.39618 0.0
H1889 H 0.1192 0.26618 0.37859 0.0
H1890 H 0.06746 0.1923 0.45527 0.0
H1891 H 0.11784 0.221 0.31005 0.0
H1892 H 0.10805 0.23809 0.41166 0.0
H1893 H 0.10713 0.17125 0.36939 0.0
C1894 C 0.0878 0.16047 0.40375 0.0
C1895 C 0.07596 0.16604 0.42789 0.0
C1896 C 0.11045 0.23435 0.38942 0.0
C1897 C 0.09767 0.19702 0.39711 0.0
C1898 C 0.11693 0.25027 0.37067 0.0
C1899 C 0.11917 0.24583 0.34161 0.0
C1900 C 0.10664 0.2139 0.37894 0.0
C1901 C 0.11594 0.22508 0.33224 0.0
C1902 C 0.09858 0.17586 0.38836 0.0
C1903 C 0.07619 0.18729 0.43666 0.0
N1904 N 0.1098 0.2099 0.35082 0.0
N1905 N 0.08675 0.20206 0.42114 0.0
H1906 H 0.98354 0.87314 0.63026 0.0
H1907 H 0.10444 0.83913 0.64948 0.0
H1908 H 0.02891 0.86991 0.56204 0.0
H1909 H 0.05545 0.81987 0.70801 0.0
H1910 H 0.07824 0.85868 0.62223 0.0
H1911 H 0.01125 0.86179 0.66375 0.0
C1912 C 0.99943 0.87047 0.6225 0.0
C1913 C 0.00401 0.87223 0.59341 0.0
C1914 C 0.07326 0.85032 0.64118 0.0
C1915 C 0.03551 0.85941 0.63123 0.0
C1916 C 0.08823 0.83914 0.65683 0.0
C1917 C 0.08214 0.82752 0.68094 0.0
C1918 C 0.05202 0.85006 0.64967 0.0
C1919 C 0.06085 0.82839 0.68943 0.0
C1920 C 0.01514 0.86387 0.64149 0.0
C1921 C 0.02472 0.86844 0.58426 0.0
N1922 N 0.04651 0.83934 0.67368 0.0
N1923 N 0.03969 0.86216 0.60308 0.0
H1924 H 0.42565 0.81047 0.95876 0.0
H1925 H 0.37475 0.78404 0.80916 0.0
H1926 H 0.41085 0.85753 0.89524 0.0
H1927 H 0.37652 0.73874 0.87756 0.0
H1928 H 0.38524 0.8117 0.84223 0.0
H1929 H 0.40531 0.78455 0.93162 0.0
C1930 C 0.41791 0.81547 0.93934 0.0
C1931 C 0.42026 0.8362 0.9291 0.0
C1932 C 0.38308 0.79581 0.85023 0.0
C1933 C 0.39705 0.80652 0.8979 0.0
C1934 C 0.37714 0.78 0.8313 0.0
C1935 C 0.37503 0.7591 0.84064 0.0
C1936 C 0.38739 0.79063 0.87868 0.0
C1937 C 0.37801 0.75472 0.8696 0.0
C1938 C 0.40627 0.80063 0.92388 0.0
C1939 C 0.40975 0.84171 0.90386 0.0
N1940 N 0.38443 0.77033 0.88758 0.0
N1941 N 0.39885 0.82692 0.88901 0.0
H1942 H 0.39187 0.16132 0.14508 0.0
H1943 H 0.51284 0.127 0.12741 0.0
H1944 H 0.44031 0.17909 0.20527 0.0
H1945 H 0.46844 0.13169 0.0582 0.0
H1946 H 0.48474 0.13791 0.16054 0.0
H1947 H 0.41831 0.14225 0.11755 0.0
C1948 C 0.40801 0.16108 0.15272 0.0
C1949 C 0.41388 0.17212 0.1774 0.0
C1950 C 0.48116 0.13626 0.13813 0.0
C1951 C 0.44425 0.15014 0.14586 0.0
C1952 C 0.49709 0.1299 0.11933 0.0
C1953 C 0.49291 0.1287 0.09009 0.0
C1954 C 0.46095 0.14103 0.12752 0.0
C1955 C 0.47234 0.13276 0.08055 0.0
C1956 C 0.42311 0.15018 0.13692 0.0
C1957 C 0.43508 0.17101 0.18623 0.0
N1958 N 0.45714 0.1388 0.09918 0.0
N1959 N 0.44954 0.16033 0.17037 0.0
H1960 H 0.12219 0.73497 0.12314 0.0
H1961 H 0.08879 0.85637 0.10763 0.0
H1962 H 0.12036 0.77947 0.19246 0.0
H1963 H 0.06908 0.80843 0.04781 0.0
H1964 H 0.1081 0.82959 0.13417 0.0
H1965 H 0.11038 0.76316 0.09066 0.0
C1966 C 0.11968 0.75076 0.13136 0.0
C1967 C 0.12197 0.75496 0.16047 0.0
C1968 C 0.09968 0.82497 0.11511 0.0
C1969 C 0.10866 0.78701 0.12382 0.0
C1970 C 0.08864 0.84027 0.09987 0.0
C1971 C 0.07701 0.83465 0.07558 0.0
C1972 C 0.09926 0.80386 0.10601 0.0
C1973 C 0.07763 0.81348 0.06656 0.0
C1974 C 0.11282 0.76674 0.11295 0.0
C1975 C 0.11842 0.77556 0.17023 0.0
N1976 N 0.08847 0.7988 0.08188 0.0
N1977 N 0.11189 0.7908 0.15197 0.0
H1978 H 0.39586 0.84001 0.35082 0.0
H1979 H 0.51739 0.87185 0.36976 0.0
H1980 H 0.44487 0.81898 0.29342 0.0
H1981 H 0.47143 0.87215 0.43738 0.0
H1982 H 0.48955 0.86057 0.33644 0.0
H1983 H 0.42219 0.85985 0.37751 0.0
C1984 C 0.41211 0.83968 0.34362 0.0
C1985 C 0.41816 0.8275 0.32001 0.0
C1986 C 0.48556 0.86343 0.35851 0.0
C1987 C 0.44841 0.85036 0.35057 0.0
C1988 C 0.50134 0.87001 0.37738 0.0
C1989 C 0.4966 0.87269 0.40627 0.0
C1990 C 0.46498 0.85989 0.36869 0.0
C1991 C 0.47571 0.86994 0.4153 0.0
C1992 C 0.42714 0.85103 0.35892 0.0
C1993 C 0.43949 0.82793 0.31166 0.0
N1994 N 0.46067 0.86361 0.39661 0.0
N1995 N 0.45389 0.83905 0.32705 0.0
H1996 H 0.38153 0.2663 0.62004 0.0
H1997 H 0.40978 0.14395 0.6006 0.0
H1998 H 0.38088 0.22028 0.68757 0.0
H1999 H 0.43252 0.19212 0.54311 0.0
H2000 H 0.39099 0.17096 0.62733 0.0
H2001 H 0.39227 0.23831 0.58656 0.0
C2002 C 0.38327 0.25024 0.62764 0.0
C2003 C 0.38059 0.24551 0.65655 0.0
C2004 C 0.39995 0.1756 0.60871 0.0
C2005 C 0.39265 0.2137 0.61876 0.0
C2006 C 0.41069 0.16016 0.59335 0.0
C2007 C 0.42306 0.16575 0.56972 0.0
C2008 C 0.40144 0.19683 0.60043 0.0
C2009 C 0.42337 0.18708 0.56133 0.0
C2010 C 0.38951 0.23437 0.60866 0.0
C2011 C 0.38314 0.22457 0.66552 0.0
N2012 N 0.41285 0.2019 0.57682 0.0
N2013 N 0.38907 0.20945 0.64672 0.0
H2014 H 0.10787 0.16161 0.8525 0.0
H2015 H 0.98671 0.12783 0.86969 0.0
H2016 H 0.05957 0.18018 0.79252 0.0
H2017 H 0.03129 0.13136 0.93881 0.0
H2018 H 0.01479 0.1391 0.83672 0.0
H2019 H 0.08129 0.14252 0.87973 0.0
C2020 C 0.09173 0.16155 0.84484 0.0
C2021 C 0.08595 0.17281 0.82031 0.0
C2022 C 0.01841 0.13714 0.85907 0.0
C2023 C 0.05541 0.15082 0.85153 0.0
C2024 C 0.00249 0.13058 0.87777 0.0
C2025 C 0.00674 0.12893 0.90696 0.0
C2026 C 0.03867 0.14164 0.86972 0.0
C2027 C 0.02734 0.1328 0.91652 0.0
C2028 C 0.07655 0.15064 0.86048 0.0
C2029 C 0.06474 0.17192 0.81145 0.0
N2030 N 0.04252 0.13902 0.89798 0.0
N2031 N 0.0502 0.16123 0.82716 0.0
H2032 H 0.90957 0.85712 0.6036 0.0
H2033 H 0.87961 0.7352 0.62263 0.0
H2034 H 0.93028 0.80892 0.54475 0.0
H2035 H 0.88311 0.78013 0.69134 0.0
H2036 H 0.88964 0.76342 0.58914 0.0
H2037 H 0.89114 0.83018 0.63098 0.0
C2038 C 0.9101 0.84092 0.59619 0.0
C2039 C 0.92182 0.83528 0.57199 0.0
C2040 C 0.88792 0.76708 0.61152 0.0
C2041 C 0.90057 0.80435 0.60337 0.0
C2042 C 0.88208 0.75109 0.63052 0.0
C2043 C 0.8808 0.75543 0.6597 0.0
C2044 C 0.89205 0.78749 0.6219 0.0
C2045 C 0.88427 0.77614 0.66903 0.0
C2046 C 0.89956 0.82555 0.61191 0.0
C2047 C 0.92166 0.81399 0.56343 0.0
N2048 N 0.88978 0.7914 0.6502 0.0
N2049 N 0.91133 0.79925 0.57923 0.0
H2050 H 0.96857 0.1306 0.43924 0.0
H2051 H 0.93968 0.18108 0.29063 0.0
H2052 H 0.01258 0.13036 0.36935 0.0
H2053 H 0.89268 0.16082 0.35142 0.0
H2054 H 0.96666 0.16235 0.31811 0.0
H2055 H 0.94049 0.14129 0.40678 0.0
C2056 C 0.97223 0.13265 0.41693 0.0
C2057 C 0.99286 0.12981 0.40691 0.0
C2058 C 0.95038 0.1618 0.32516 0.0
C2059 C 0.96092 0.14231 0.36961 0.0
C2060 C 0.93496 0.17255 0.30955 0.0
C2061 C 0.91386 0.17277 0.31886 0.0
C2062 C 0.94472 0.15144 0.35044 0.0
C2063 C 0.90872 0.16129 0.34348 0.0
C2064 C 0.9562 0.13866 0.39836 0.0
C2065 C 0.99679 0.13237 0.37777 0.0
N2066 N 0.92407 0.15135 0.35856 0.0
N2067 N 0.981 0.13885 0.36013 0.0
H2068 H 0.56732 0.19266 0.0417 0.0
H2069 H 0.6158 0.22131 0.19143 0.0
H2070 H 0.58627 0.14548 0.10304 0.0
H2071 H 0.61943 0.26459 0.12085 0.0
H2072 H 0.60485 0.19335 0.15894 0.0
H2073 H 0.5861 0.21942 0.06954 0.0
C2074 C 0.57556 0.18786 0.06082 0.0
C2075 C 0.57498 0.16677 0.07016 0.0
C2076 C 0.60829 0.20886 0.1504 0.0
C2077 C 0.59633 0.19736 0.10213 0.0
C2078 C 0.61446 0.22482 0.16897 0.0
C2079 C 0.61834 0.24523 0.15875 0.0
C2080 C 0.60552 0.21344 0.12143 0.0
C2081 C 0.61662 0.24897 0.12945 0.0
C2082 C 0.58634 0.20315 0.07663 0.0
C2083 C 0.58608 0.16152 0.09505 0.0
N2084 N 0.60996 0.23327 0.11178 0.0
N2085 N 0.59605 0.17674 0.11031 0.0
H2086 H 0.51884 0.89385 0.89891 0.0
H2087 H 0.55827 0.7998 0.79889 0.0
H2088 H 0.4899 0.83223 0.89667 0.0
H2089 H 0.60191 0.84489 0.83501 0.0
H2090 H 0.52947 0.81705 0.82438 0.0
H2091 H 0.54603 0.88116 0.86533 0.0
C2092 C 0.51803 0.87782 0.89092 0.0
C2093 C 0.50228 0.86398 0.90051 0.0
C2094 C 0.54533 0.82327 0.82646 0.0
C2095 C 0.53281 0.8496 0.86229 0.0
C2096 C 0.5618 0.81349 0.81186 0.0
C2097 C 0.58263 0.82075 0.81502 0.0
C2098 C 0.5496 0.84064 0.84406 0.0
C2099 C 0.58614 0.83861 0.83217 0.0
C2100 C 0.53353 0.87058 0.87202 0.0
C2101 C 0.50192 0.8433 0.88987 0.0
N2102 N 0.56978 0.84794 0.84614 0.0
N2103 N 0.51693 0.83675 0.87128 0.0
H2104 H 0.88209 0.26606 0.88027 0.0
H2105 H 0.91086 0.14364 0.89804 0.0
H2106 H 0.88 0.22023 0.81258 0.0
H2107 H 0.93331 0.1916 0.95606 0.0
H2108 H 0.89177 0.17068 0.87175 0.0
H2109 H 0.89319 0.23792 0.9133 0.0
C2110 C 0.88356 0.25 0.87257 0.0
C2111 C 0.88038 0.24536 0.84374 0.0
C2112 C 0.90073 0.17527 0.89037 0.0
C2113 C 0.89292 0.21339 0.88099 0.0
C2114 C 0.91166 0.15981 0.90548 0.0
C2115 C 0.92401 0.16534 0.92916 0.0
C2116 C 0.90203 0.19646 0.89895 0.0
C2117 C 0.92418 0.18661 0.93779 0.0
C2118 C 0.89002 0.23404 0.89128 0.0
C2119 C 0.88263 0.22443 0.8346 0.0
N2120 N 0.91348 0.20144 0.92255 0.0
N2121 N 0.88882 0.20923 0.85312 0.0
H2122 H 0.60738 0.16014 0.64735 0.0
H2123 H 0.48528 0.13008 0.62987 0.0
H2124 H 0.55936 0.18205 0.70566 0.0
H2125 H 0.53048 0.13057 0.56133 0.0
H2126 H 0.51347 0.1412 0.66281 0.0
H2127 H 0.58036 0.1412 0.62077 0.0
C2128 C 0.5912 0.16084 0.6548 0.0
C2129 C 0.58564 0.17301 0.67863 0.0
C2130 C 0.51719 0.1386 0.64061 0.0
C2131 C 0.55458 0.15119 0.64814 0.0
C2132 C 0.50122 0.13214 0.62194 0.0
C2133 C 0.50564 0.12967 0.59291 0.0
C2134 C 0.53767 0.14218 0.63009 0.0
C2135 C 0.52642 0.13265 0.5835 0.0
C2136 C 0.57577 0.15002 0.63953 0.0
C2137 C 0.56437 0.17307 0.68727 0.0
N2138 N 0.54165 0.13879 0.60201 0.0
N2139 N 0.54957 0.16245 0.6719 0.0
H2140 H 0.61742 0.78078 0.30579 0.0
H2141 H 0.56967 0.80841 0.45596 0.0
H2142 H 0.62058 0.73656 0.37535 0.0
H2143 H 0.59013 0.8561 0.39625 0.0
H2144 H 0.58816 0.78169 0.42769 0.0
H2145 H 0.60743 0.8086 0.33908 0.0
C2146 C 0.61621 0.77703 0.32819 0.0
C2147 C 0.61967 0.75641 0.3379 0.0
C2148 C 0.58881 0.79806 0.42107 0.0
C2149 C 0.6079 0.78802 0.37612 0.0
C2150 C 0.57821 0.81333 0.43713 0.0
C2151 C 0.57809 0.83456 0.42834 0.0
C2152 C 0.5991 0.80401 0.39586 0.0
C2153 C 0.58956 0.83996 0.40381 0.0
C2154 C 0.61059 0.79291 0.34722 0.0
C2155 C 0.61809 0.75235 0.36714 0.0
N2156 N 0.59933 0.82476 0.38826 0.0
N2157 N 0.61193 0.76797 0.38526 0.0
H2158 H 0.9407 0.81839 0.2096 0.0
H2159 H 0.96954 0.8721 0.06305 0.0
H2160 H 0.89379 0.83986 0.14942 0.0
H2161 H 0.01378 0.87022 0.13264 0.0
H2162 H 0.94142 0.86115 0.09529 0.0
H2163 H 0.96767 0.83787 0.18304 0.0
C2164 C 0.936 0.82735 0.19103 0.0
C2165 C 0.91492 0.82723 0.18159 0.0
C2166 C 0.95717 0.86342 0.10372 0.0
C2167 C 0.94576 0.84943 0.15107 0.0
C2168 C 0.97322 0.86962 0.08529 0.0
C2169 C 0.99392 0.87191 0.09527 0.0
C2170 C 0.96196 0.85899 0.13227 0.0
C2171 C 0.99792 0.86868 0.12427 0.0
C2172 C 0.95141 0.83852 0.17594 0.0
C2173 C 0.90981 0.83926 0.15744 0.0
N2174 N 0.98212 0.862 0.14175 0.0
N2175 N 0.92514 0.84963 0.14287 0.0
H2176 H 0.57526 0.68922 0.95791 0.0
H2177 H 0.62391 0.71666 0.80737 0.0
H2178 H 0.5889 0.64256 0.89339 0.0
H2179 H 0.62408 0.76119 0.87673 0.0
H2180 H 0.61362 0.68878 0.84021 0.0
H2181 H 0.59537 0.71523 0.93061 0.0
C2182 C 0.5827 0.68433 0.93824 0.0
C2183 C 0.58009 0.66369 0.92776 0.0
C2184 C 0.61616 0.70455 0.84846 0.0
C2185 C 0.60302 0.69347 0.89639 0.0
C2186 C 0.62197 0.72049 0.82966 0.0
C2187 C 0.62458 0.74125 0.83935 0.0
C2188 C 0.61248 0.70946 0.87715 0.0
C2189 C 0.6222 0.74533 0.86849 0.0
C2190 C 0.59421 0.69921 0.92269 0.0
C2191 C 0.59022 0.6583 0.9022 0.0
N2192 N 0.61589 0.72962 0.88636 0.0
N2193 N 0.60098 0.67316 0.88727 0.0
H2194 H 0.60509 0.33997 0.14448 0.0
H2195 H 0.48413 0.37519 0.12979 0.0
H2196 H 0.55733 0.32264 0.20587 0.0
H2197 H 0.52761 0.37034 0.05955 0.0
H2198 H 0.51261 0.36412 0.16225 0.0
H2199 H 0.57844 0.35931 0.11764 0.0
C2200 C 0.58906 0.34037 0.15253 0.0
C2201 C 0.58343 0.32936 0.17734 0.0
C2202 C 0.51591 0.36577 0.13976 0.0
C2203 C 0.55282 0.35165 0.14659 0.0
C2204 C 0.49977 0.37222 0.12134 0.0
C2205 C 0.50358 0.37342 0.09201 0.0
C2206 C 0.53596 0.3609 0.12867 0.0
C2207 C 0.524 0.36927 0.08199 0.0
C2208 C 0.57384 0.35142 0.13712 0.0
C2209 C 0.56237 0.33068 0.18671 0.0
N2210 N 0.53941 0.36314 0.10025 0.0
N2211 N 0.54779 0.3415 0.17123 0.0
H2212 H 0.87552 0.23481 0.37704 0.0
H2213 H 0.90874 0.35606 0.39443 0.0
H2214 H 0.87842 0.2796 0.30811 0.0
H2215 H 0.9283 0.30761 0.45361 0.0
H2216 H 0.88935 0.32953 0.36753 0.0
H2217 H 0.88665 0.26289 0.41008 0.0
C2218 C 0.87807 0.25064 0.36902 0.0
C2219 C 0.8763 0.25496 0.33987 0.0
C2220 C 0.89774 0.32475 0.38655 0.0
C2221 C 0.88887 0.28687 0.37718 0.0
C2222 C 0.90883 0.3399 0.40199 0.0
C2223 C 0.92048 0.33405 0.42618 0.0
C2224 C 0.89812 0.30358 0.39534 0.0
C2225 C 0.91976 0.31282 0.43494 0.0
C2226 C 0.88455 0.26656 0.38776 0.0
C2227 C 0.87992 0.27562 0.33039 0.0
N2228 N 0.90888 0.2983 0.41941 0.0
N2229 N 0.88609 0.2908 0.34897 0.0
H2230 H 0.94396 0.6793 0.7081 0.0
H2231 H 0.97046 0.63052 0.55807 0.0
H2232 H 0.89579 0.66179 0.64739 0.0
H2233 H 0.01373 0.62502 0.62846 0.0
H2234 H 0.94287 0.64196 0.59085 0.0
H2235 H 0.96992 0.65962 0.68002 0.0
C2236 C 0.93877 0.67119 0.68906 0.0
C2237 C 0.91765 0.67244 0.67996 0.0
C2238 C 0.95829 0.63797 0.59927 0.0
C2239 C 0.94734 0.65005 0.64772 0.0
C2240 C 0.97404 0.63151 0.58054 0.0
C2241 C 0.99437 0.62698 0.59062 0.0
C2242 C 0.96302 0.6404 0.62826 0.0
C2243 C 0.99819 0.62832 0.61995 0.0
C2244 C 0.9536 0.65989 0.67312 0.0
C2245 C 0.91188 0.66146 0.65519 0.0
N2246 N 0.98273 0.6353 0.63776 0.0
N2247 N 0.92668 0.65099 0.63977 0.0
H2248 H 0.5926 0.35652 0.60071 0.0
H2249 H 0.62174 0.23425 0.61896 0.0
H2250 H 0.56975 0.30825 0.54344 0.0
H2251 H 0.62334 0.28014 0.6866 0.0
H2252 H 0.61074 0.26232 0.58578 0.0
H2253 H 0.61205 0.32963 0.62685 0.0
C2254 C 0.5918 0.34031 0.59339 0.0
C2255 C 0.5792 0.33465 0.57 0.0
C2256 C 0.61381 0.26623 0.60782 0.0
C2257 C 0.6016 0.30373 0.60002 0.0
C2258 C 0.62022 0.25031 0.62661 0.0
C2259 C 0.62322 0.25499 0.65547 0.0
C2260 C 0.61079 0.28689 0.61805 0.0
C2261 C 0.62088 0.27592 0.66455 0.0
C2262 C 0.60293 0.32496 0.6084 0.0
C2263 C 0.57906 0.31335 0.56149 0.0
N2264 N 0.61474 0.29109 0.64594 0.0
N2265 N 0.58995 0.29861 0.57664 0.0
H2266 H 0.97126 0.37208 0.93847 0.0
H2267 H 0.94306 0.31908 0.79135 0.0
H2268 H 0.0154 0.37169 0.86872 0.0
H2269 H 0.89581 0.34 0.8514 0.0
H2270 H 0.9698 0.3387 0.81815 0.0
H2271 H 0.94327 0.361 0.90608 0.0
C2272 C 0.97493 0.3699 0.91618 0.0
C2273 C 0.99558 0.37266 0.90618 0.0
C2274 C 0.95352 0.3392 0.82517 0.0
C2275 C 0.96379 0.35959 0.86902 0.0
C2276 C 0.93823 0.32795 0.80994 0.0
C2277 C 0.91714 0.32763 0.81928 0.0
C2278 C 0.94771 0.34998 0.85007 0.0
C2279 C 0.91186 0.33955 0.84347 0.0
C2280 C 0.95897 0.36363 0.89766 0.0
C2281 C 0.99958 0.36979 0.87711 0.0
N2282 N 0.92707 0.34999 0.85818 0.0
N2283 N 0.98387 0.36302 0.85954 0.0
H2284 H 0.91178 0.64363 0.10411 0.0
H2285 H 0.87949 0.76524 0.12093 0.0
H2286 H 0.93303 0.69203 0.04593 0.0
H2287 H 0.87919 0.71984 0.18921 0.0
H2288 H 0.89132 0.73724 0.08816 0.0
H2289 H 0.89197 0.67025 0.13027 0.0
C2290 C 0.91216 0.6598 0.09661 0.0
C2291 C 0.92439 0.66559 0.07293 0.0
C2292 C 0.88838 0.73342 0.11026 0.0
C2293 C 0.90157 0.6962 0.10296 0.0
C2294 C 0.8815 0.74929 0.12883 0.0
C2295 C 0.87861 0.74477 0.15775 0.0
C2296 C 0.89199 0.71294 0.12078 0.0
C2297 C 0.88156 0.72398 0.16712 0.0
C2298 C 0.90083 0.67501 0.11164 0.0
C2299 C 0.92402 0.68685 0.06422 0.0
N2300 N 0.88814 0.70885 0.14873 0.0
N2301 N 0.91291 0.70143 0.07936 0.0
H2302 H 0.55602 0.68142 0.29187 0.0
H2303 H 0.53088 0.62847 0.44007 0.0
H2304 H 0.60451 0.66123 0.35058 0.0
H2305 H 0.48539 0.62915 0.37191 0.0
H2306 H 0.55828 0.63948 0.40672 0.0
H2307 H 0.52994 0.66173 0.31968 0.0
C2308 C 0.56125 0.67272 0.31042 0.0
C2309 C 0.5825 0.67323 0.31905 0.0
C2310 C 0.5424 0.63692 0.39885 0.0
C2311 C 0.55269 0.65077 0.35097 0.0
C2312 C 0.52678 0.63068 0.41791 0.0
C2313 C 0.50594 0.62805 0.40864 0.0
C2314 C 0.53703 0.64106 0.37042 0.0
C2315 C 0.50137 0.63095 0.37973 0.0
C2316 C 0.54635 0.66141 0.3262 0.0
C2317 C 0.58832 0.6615 0.34318 0.0
N2318 N 0.51676 0.63769 0.36164 0.0
N2319 N 0.57347 0.65099 0.35845 0.0
H2320 H 0.40989 0.35766 0.10694 0.0
H2321 H 0.37568 0.23648 0.12192 0.0
H2322 H 0.42755 0.31011 0.04542 0.0
H2323 H 0.38128 0.27975 0.1923 0.0
H2324 H 0.38651 0.26503 0.08942 0.0
H2325 H 0.39116 0.33075 0.13406 0.0
C2326 C 0.4097 0.34162 0.09893 0.0
C2327 C 0.42061 0.33613 0.07399 0.0
C2328 C 0.38509 0.26826 0.11196 0.0
C2329 C 0.399 0.30523 0.10505 0.0
C2330 C 0.37878 0.25209 0.1304 0.0
C2331 C 0.37784 0.25582 0.15977 0.0
C2332 C 0.39005 0.28828 0.12307 0.0
C2333 C 0.38214 0.2762 0.16983 0.0
C2334 C 0.39899 0.32625 0.1145 0.0
C2335 C 0.41958 0.31504 0.06467 0.0
N2336 N 0.38811 0.29165 0.15153 0.0
N2337 N 0.40907 0.30031 0.08031 0.0
H2338 H 0.48142 0.60656 0.89763 0.0
H2339 H 0.44169 0.70134 0.79903 0.0
H2340 H 0.51029 0.66823 0.89613 0.0
H2341 H 0.39827 0.65572 0.83442 0.0
H2342 H 0.47058 0.68397 0.82421 0.0
H2343 H 0.45421 0.61944 0.86424 0.0
C2344 C 0.48221 0.62265 0.88985 0.0
C2345 C 0.49794 0.63644 0.89961 0.0
C2346 C 0.45474 0.67766 0.8262 0.0
C2347 C 0.46739 0.65104 0.86158 0.0
C2348 C 0.43823 0.68751 0.81177 0.0
C2349 C 0.41743 0.68013 0.81483 0.0
C2350 C 0.45056 0.66011 0.84351 0.0
C2351 C 0.41401 0.66209 0.83167 0.0
C2352 C 0.46669 0.62999 0.87104 0.0
C2353 C 0.49828 0.65719 0.88921 0.0
N2354 N 0.43041 0.65271 0.84547 0.0
N2355 N 0.48326 0.66385 0.87072 0.0
H2356 H 0.1194 0.76359 0.62279 0.0
H2357 H 0.0886 0.64168 0.60564 0.0
H2358 H 0.1147 0.7195 0.69234 0.0
H2359 H 0.06975 0.68922 0.54473 0.0
H2360 H 0.10654 0.66887 0.6332 0.0
H2361 H 0.10936 0.7351 0.58971 0.0
C2362 C 0.11661 0.74784 0.63097 0.0
C2363 C 0.11758 0.74383 0.66026 0.0
C2364 C 0.09862 0.6733 0.61366 0.0
C2365 C 0.10634 0.71144 0.62293 0.0
C2366 C 0.08838 0.65778 0.59784 0.0
C2367 C 0.07734 0.66317 0.57296 0.0
C2368 C 0.09801 0.6944 0.60455 0.0
C2369 C 0.07784 0.68435 0.56392 0.0
C2370 C 0.11077 0.73169 0.6122 0.0
C2371 C 0.11374 0.72327 0.66995 0.0
N2372 N 0.08789 0.69923 0.57982 0.0
N2373 N 0.10825 0.70785 0.65135 0.0
H2374 H 0.02833 0.36959 0.43853 0.0
H2375 H 0.0573 0.31955 0.28986 0.0
H2376 H 0.9842 0.37005 0.36876 0.0
H2377 H 0.10424 0.34042 0.35038 0.0
H2378 H 0.03025 0.33832 0.31722 0.0
H2379 H 0.05643 0.35935 0.40582 0.0
C2380 C 0.02466 0.36772 0.41618 0.0
C2381 C 0.00399 0.37049 0.40626 0.0
C2382 C 0.04653 0.339 0.32421 0.0
C2383 C 0.03594 0.35845 0.36869 0.0
C2384 C 0.062 0.32825 0.30866 0.0
C2385 C 0.0831 0.32814 0.31798 0.0
C2386 C 0.05217 0.34948 0.34942 0.0
C2387 C 0.0882 0.33982 0.34245 0.0
C2388 C 0.04069 0.36196 0.39748 0.0
C2389 C 1.00003 0.3681 0.3771 0.0
N2390 N 0.07282 0.34975 0.35747 0.0
N2391 N 0.01582 0.36184 0.35932 0.0
H2392 H 0.41208 0.64311 0.39706 0.0
H2393 H 0.37938 0.76427 0.37731 0.0
H2394 H 0.4312 0.69181 0.4561 0.0
H2395 H 0.38512 0.71962 0.30852 0.0
H2396 H 0.38983 0.73629 0.41092 0.0
H2397 H 0.39348 0.66965 0.36915 0.0
C2398 C 0.41222 0.65933 0.40439 0.0
C2399 C 0.42354 0.66524 0.42883 0.0
C2400 C 0.38851 0.73263 0.38849 0.0
C2401 C 0.40208 0.69571 0.39685 0.0
C2402 C 0.38243 0.74849 0.36941 0.0
C2403 C 0.38163 0.7442 0.34017 0.0
C2404 C 0.39336 0.71237 0.37814 0.0
C2405 C 0.38586 0.7236 0.33088 0.0
C2406 C 0.40159 0.67448 0.38836 0.0
C2407 C 0.4229 0.68654 0.43726 0.0
N2408 N 0.39158 0.70846 0.34978 0.0
N2409 N 0.41247 0.70106 0.42118 0.0
H2410 H 0.03228 0.62753 0.06463 0.0
H2411 H 0.06045 0.68183 0.21127 0.0
H2412 H 0.98691 0.63195 0.13266 0.0
H2413 H 0.10746 0.65912 0.15204 0.0
H2414 H 0.03332 0.66285 0.18434 0.0
H2415 H 0.06017 0.63808 0.09747 0.0
C2416 C 0.0283 0.63052 0.08666 0.0
C2417 C 0.00738 0.62903 0.09604 0.0
C2418 C 0.04963 0.66182 0.17753 0.0
C2419 C 0.03907 0.64147 0.13372 0.0
C2420 C 0.06514 0.67268 0.19285 0.0
C2421 C 0.0863 0.67233 0.18376 0.0
C2422 C 0.05528 0.65072 0.15281 0.0
C2423 C 0.09138 0.6601 0.15978 0.0
C2424 C 0.04421 0.63648 0.10544 0.0
C2425 C 0.00296 0.63287 0.12478 0.0
N2426 N 0.07597 0.65003 0.145 0.0
N2427 N 0.01867 0.63929 0.14261 0.0
H2428 H 0.12484 0.23727 0.87611 0.0
H2429 H 0.08913 0.35797 0.89155 0.0
H2430 H 0.11767 0.28029 0.80571 0.0
H2431 H 0.07247 0.31019 0.95325 0.0
H2432 H 0.108 0.33129 0.86417 0.0
H2433 H 0.11395 0.26571 0.90874 0.0
C2434 C 0.12137 0.2528 0.86764 0.0
C2435 C 0.12189 0.25647 0.83824 0.0
C2436 C 0.10036 0.3267 0.88384 0.0
C2437 C 0.10963 0.28882 0.8751 0.0
C2438 C 0.08958 0.34193 0.89956 0.0
C2439 C 0.07889 0.3363 0.92462 0.0
C2440 C 0.10065 0.30568 0.89326 0.0
C2441 C 0.08026 0.31523 0.93391 0.0
C2442 C 0.11503 0.26891 0.88616 0.0
C2443 C 0.11713 0.27677 0.8282 0.0
N2444 N 0.09083 0.30063 0.91813 0.0
N2445 N 0.11116 0.29216 0.84658 0.0
H2446 H 0.47147 0.37363 0.56417 0.0
H2447 H 0.44361 0.31683 0.7092 0.0
H2448 H 0.51731 0.36689 0.63127 0.0
H2449 H 0.39648 0.34132 0.65145 0.0
H2450 H 0.4708 0.33594 0.68257 0.0
H2451 H 0.44365 0.3629 0.59703 0.0
C2452 C 0.47557 0.37009 0.58601 0.0
C2453 C 0.4966 0.37098 0.59511 0.0
C2454 C 0.45445 0.33733 0.67603 0.0
C2455 C 0.46499 0.35834 0.63279 0.0
C2456 C 0.4389 0.32639 0.69117 0.0
C2457 C 0.41769 0.32721 0.68239 0.0
C2458 C 0.44878 0.34898 0.65178 0.0
C2459 C 0.41259 0.33997 0.65892 0.0
C2460 C 0.45971 0.36403 0.60481 0.0
C2461 C 0.50118 0.36644 0.62362 0.0
N2462 N 0.42804 0.35011 0.64428 0.0
N2463 N 0.48551 0.35994 0.64144 0.0
H2464 H 0.31051 0.2661 0.24517 0.0
H2465 H 0.18851 0.23399 0.25925 0.0
H2466 H 0.28436 0.20795 0.21251 0.0
H2467 H 0.21416 0.29282 0.29041 0.0
H2468 H 0.22367 0.22398 0.24269 0.0
H2469 H 0.27544 0.27608 0.26223 0.0
C2470 C 0.29739 0.25547 0.24146 0.0
C2471 C 0.30039 0.23618 0.2273 0.0
C2472 C 0.22163 0.23905 0.25321 0.0
C2473 C 0.26019 0.24747 0.24695 0.0
C2474 C 0.20155 0.24476 0.26277 0.0
C2475 C 0.19838 0.26426 0.27632 0.0
C2476 C 0.23869 0.25293 0.2572 0.0
C2477 C 0.21587 0.27762 0.28011 0.0
C2478 C 0.27736 0.26116 0.25128 0.0
C2479 C 0.2828 0.22299 0.22327 0.0
N2480 N 0.23526 0.27171 0.27058 0.0
N2481 N 0.26349 0.22888 0.23305 0.0
H2482 H 0.95569 0.96562 0.54 0.0
H2483 H 0.04172 0.03552 0.45795 0.0
H2484 H 0.01449 0.94068 0.50768 0.0
H2485 H 0.98293 0.06036 0.49039 0.0
H2486 H 0.03196 0.00064 0.47579 0.0
H2487 H 0.9655 0.00046 0.52212 0.0
C2488 C 0.97072 0.96748 0.52925 0.0
C2489 C 0.98432 0.95019 0.5254 0.0
C2490 C 0.02117 0.01371 0.47895 0.0
C2491 C 0.99558 0.99008 0.50471 0.0
C2492 C 0.02671 0.03364 0.46871 0.0
C2493 C 0.01309 0.0509 0.47261 0.0
C2494 C 0.00188 0.01099 0.49325 0.0
C2495 C 0.99388 0.0475 0.48679 0.0
C2496 C 0.97628 0.98739 0.51899 0.0
C2497 C 0.00355 0.95356 0.51124 0.0
N2498 N 0.98886 0.02795 0.49662 0.0
N2499 N 0.00859 0.9731 0.50138 0.0
H2500 H 0.30677 0.76727 0.7623 0.0
H2501 H 0.18587 0.73221 0.74546 0.0
H2502 H 0.28293 0.70716 0.79155 0.0
H2503 H 0.21126 0.79118 0.71441 0.0
H2504 H 0.22101 0.7227 0.76301 0.0
H2505 H 0.27153 0.77639 0.74562 0.0
C2506 C 0.29409 0.75601 0.7654 0.0
C2507 C 0.29782 0.73642 0.77843 0.0
C2508 C 0.21887 0.73769 0.75229 0.0
C2509 C 0.25731 0.74675 0.75911 0.0
C2510 C 0.19883 0.74311 0.74219 0.0
C2511 C 0.19561 0.7625 0.72836 0.0
C2512 C 0.2358 0.75177 0.74856 0.0
C2513 C 0.21298 0.77605 0.72489 0.0
C2514 C 0.27394 0.76122 0.75576 0.0
C2515 C 0.28076 0.72245 0.78168 0.0
N2516 N 0.23228 0.77043 0.73494 0.0
N2517 N 0.26123 0.72788 0.77204 0.0
H2518 H 0.48402 0.06022 0.00494 0.0
H2519 H 0.52002 0.93949 0.98765 0.0
H2520 H 0.54332 0.0359 0.03641 0.0
H2521 H 0.46058 0.96412 0.95712 0.0
H2522 H 0.52913 0.97473 0.00515 0.0
H2523 H 0.47527 0.02506 0.98718 0.0
C2524 C 0.49516 0.04747 0.00825 0.0
C2525 C 0.5144 0.05102 0.02228 0.0
C2526 C 0.51412 0.97242 0.99455 0.0
C2527 C 0.50454 0.01069 0.00179 0.0
C2528 C 0.50894 0.95232 0.98447 0.0
C2529 C 0.48952 0.94884 0.97085 0.0
C2530 C 0.49978 0.98917 0.991 0.0
C2531 C 0.47573 0.96604 0.96747 0.0
C2532 C 0.49018 0.02739 0.99802 0.0
C2533 C 0.52828 0.03389 0.02578 0.0
N2534 N 0.48112 0.98542 0.9775 0.0
N2535 N 0.52308 0.01449 0.01559 0.0
H2536 H 0.19239 0.76612 0.24113 0.0
H2537 H 0.31424 0.73322 0.25432 0.0
H2538 H 0.21757 0.70727 0.20935 0.0
H2539 H 0.2886 0.79173 0.28659 0.0
H2540 H 0.27902 0.72341 0.23757 0.0
H2541 H 0.22767 0.77589 0.25741 0.0
C2542 C 0.20535 0.75529 0.23741 0.0
C2543 C 0.20201 0.73586 0.22377 0.0
C2544 C 0.2811 0.73837 0.24837 0.0
C2545 C 0.24248 0.7469 0.24258 0.0
C2546 C 0.3012 0.74396 0.25801 0.0
C2547 C 0.30439 0.76331 0.27196 0.0
C2548 C 0.26405 0.75222 0.25267 0.0
C2549 C 0.28691 0.77664 0.27599 0.0
C2550 C 0.2255 0.76086 0.24681 0.0
C2551 C 0.21941 0.72242 0.21972 0.0
N2552 N 0.26752 0.77085 0.26638 0.0
N2553 N 0.23888 0.72819 0.22911 0.0
H2554 H 0.54536 0.96534 0.46137 0.0
H2555 H 0.45793 0.03521 0.54084 0.0
H2556 H 0.48592 0.94053 0.49161 0.0
H2557 H 0.51716 0.06018 0.51007 0.0
H2558 H 0.46808 0.00034 0.52336 0.0
H2559 H 0.53534 0.00018 0.47913 0.0
C2560 C 0.53016 0.96722 0.47165 0.0
C2561 C 0.51643 0.94998 0.47493 0.0
C2562 C 0.47889 0.01343 0.5205 0.0
C2563 C 0.50491 0.98984 0.49547 0.0
C2564 C 0.47312 0.03335 0.53053 0.0
C2565 C 0.48674 0.05065 0.52698 0.0
C2566 C 0.49841 0.01074 0.50676 0.0
C2567 C 0.50619 0.04729 0.51338 0.0
C2568 C 0.52446 0.98713 0.48183 0.0
C2569 C 0.49697 0.95337 0.48849 0.0
N2570 N 0.51143 0.02774 0.50373 0.0
N2571 N 0.4918 0.9729 0.49829 0.0
H2572 H 0.18968 0.26659 0.75351 0.0
H2573 H 0.31137 0.23358 0.73864 0.0
H2574 H 0.2156 0.20834 0.78623 0.0
H2575 H 0.28618 0.29284 0.70831 0.0
H2576 H 0.2762 0.2238 0.75532 0.0
H2577 H 0.22478 0.27636 0.73631 0.0
C2578 C 0.20276 0.25589 0.75721 0.0
C2579 C 0.19969 0.23664 0.77142 0.0
C2580 C 0.27834 0.23892 0.74495 0.0
C2581 C 0.23989 0.24768 0.7516 0.0
C2582 C 0.29843 0.24449 0.73532 0.0
C2583 C 0.30173 0.26405 0.72198 0.0
C2584 C 0.26139 0.25299 0.74123 0.0
C2585 C 0.28436 0.27759 0.71844 0.0
C2586 C 0.22279 0.26147 0.74731 0.0
C2587 C 0.21721 0.22336 0.77544 0.0
N2588 N 0.26495 0.27181 0.72803 0.0
N2589 N 0.23654 0.22913 0.76556 0.0
H2590 H 0.95816 0.03462 0.95844 0.0
H2591 H 0.04334 0.96491 0.04244 0.0
H2592 H 0.01688 0.05943 0.99114 0.0
H2593 H 0.98478 0.93997 0.00939 0.0
H2594 H 0.03384 0.99966 0.02394 0.0
H2595 H 0.96773 0.9998 0.97669 0.0
C2596 C 0.97312 0.03274 0.96933 0.0
C2597 C 0.98677 0.04999 0.9732 0.0
C2598 C 0.02304 0.98661 0.02078 0.0
C2599 C 0.99776 0.01014 0.99432 0.0
C2600 C 0.02843 0.96675 0.0314 0.0
C2601 C 0.01481 0.94949 0.02754 0.0
C2602 C 0.00389 0.98927 0.00613 0.0
C2603 C 0.99573 0.95283 0.01298 0.0
C2604 C 0.97855 0.01284 0.9798 0.0
C2605 C 0.00591 0.04659 0.98756 0.0
N2606 N 0.99086 0.97232 0.00278 0.0
N2607 N 0.01081 0.02707 0.99763 0.0
H2608 H 0.814 0.76688 0.74616 0.0
H2609 H 0.6926 0.73312 0.76137 0.0
H2610 H 0.78831 0.70801 0.7152 0.0
H2611 H 0.71699 0.79278 0.79148 0.0
H2612 H 0.72787 0.72361 0.74517 0.0
H2613 H 0.77885 0.77671 0.76333 0.0
C2614 C 0.80097 0.75606 0.74285 0.0
C2615 C 0.8041 0.73661 0.72913 0.0
C2616 C 0.72557 0.73876 0.75539 0.0
C2617 C 0.7639 0.74772 0.74889 0.0
C2618 C 0.70541 0.7442 0.76475 0.0
C2619 C 0.70182 0.76378 0.77789 0.0
C2620 C 0.74236 0.75298 0.75913 0.0
C2621 C 0.71904 0.7775 0.78151 0.0
C2622 C 0.78092 0.76167 0.75273 0.0
C2623 C 0.78665 0.72318 0.7256 0.0
N2624 N 0.73857 0.77185 0.77214 0.0
N2625 N 0.76734 0.72899 0.73542 0.0
H2626 H 0.68648 0.23426 0.24276 0.0
H2627 H 0.8088 0.26538 0.25558 0.0
H2628 H 0.713 0.29199 0.20931 0.0
H2629 H 0.78274 0.20709 0.28793 0.0
H2630 H 0.77371 0.27549 0.23888 0.0
H2631 H 0.72156 0.224 0.2595 0.0
C2632 C 0.69968 0.24474 0.2388 0.0
C2633 C 0.69679 0.264 0.22453 0.0
C2634 C 0.77564 0.2605 0.24968 0.0
C2635 C 0.73698 0.25239 0.24382 0.0
C2636 C 0.79568 0.25474 0.25931 0.0
C2637 C 0.79872 0.23538 0.27326 0.0
C2638 C 0.75847 0.24682 0.254 0.0
C2639 C 0.78114 0.22219 0.27732 0.0
C2640 C 0.71971 0.23889 0.24844 0.0
C2641 C 0.71448 0.27698 0.22016 0.0
N2642 N 0.76178 0.22815 0.26772 0.0
N2643 N 0.73379 0.27095 0.22979 0.0
H2644 H 0.7163 0.2063 0.71032 0.0
H2645 H 0.78647 0.29345 0.78984 0.0
H2646 H 0.69173 0.26596 0.74018 0.0
H2647 H 0.81104 0.23378 0.76003 0.0
H2648 H 0.75162 0.28356 0.77204 0.0
H2649 H 0.75113 0.21614 0.72827 0.0
C2650 C 0.71823 0.22152 0.72054 0.0
C2651 C 0.70106 0.23535 0.72368 0.0
C2652 C 0.76461 0.2726 0.76945 0.0
C2653 C 0.74092 0.24666 0.74443 0.0
C2654 C 0.78453 0.27822 0.77967 0.0
C2655 C 0.80172 0.2644 0.77649 0.0
C2656 C 0.76183 0.25303 0.75589 0.0
C2657 C 0.79824 0.2449 0.76306 0.0
C2658 C 0.73814 0.2271 0.73084 0.0
C2659 C 0.70452 0.25483 0.73718 0.0
N2660 N 0.77871 0.23982 0.75322 0.0
N2661 N 0.72405 0.25988 0.74709 0.0
H2662 H 0.80885 0.73335 0.2398 0.0
H2663 H 0.68703 0.76648 0.2526 0.0
H2664 H 0.78384 0.79238 0.20839 0.0
H2665 H 0.71241 0.70789 0.28494 0.0
H2666 H 0.72231 0.77621 0.23604 0.0
H2667 H 0.77351 0.72359 0.25592 0.0
C2668 C 0.79591 0.74422 0.23614 0.0
C2669 C 0.79932 0.7637 0.22265 0.0
C2670 C 0.72016 0.76125 0.24681 0.0
C2671 C 0.75879 0.75266 0.24124 0.0
C2672 C 0.70002 0.7557 0.25634 0.0
C2673 C 0.69675 0.73636 0.27027 0.0
C2674 C 0.73717 0.74736 0.2512 0.0
C2675 C 0.71418 0.72297 0.27436 0.0
C2676 C 0.77573 0.73865 0.24543 0.0
C2677 C 0.78195 0.77719 0.21866 0.0
N2678 N 0.73361 0.72872 0.26486 0.0
N2679 N 0.76245 0.77142 0.22793 0.0
H2680 H 0.45348 0.4664 0.03901 0.0
H2681 H 0.5391 0.53586 0.95553 0.0
H2682 H 0.51208 0.44146 0.0061 0.0
H2683 H 0.48022 0.56099 0.98732 0.0
H2684 H 0.52928 0.50115 0.97371 0.0
H2685 H 0.46298 0.50116 0.02043 0.0
C2686 C 0.46839 0.46824 0.02798 0.0
C2687 C 0.48204 0.45098 0.02419 0.0
C2688 C 0.51847 0.51422 0.97665 0.0
C2689 C 0.49295 0.49075 0.00271 0.0
C2690 C 0.52404 0.53408 0.96622 0.0
C2691 C 0.51044 0.55139 0.96986 0.0
C2692 C 0.49916 0.5116 0.99092 0.0
C2693 C 0.49117 0.54808 0.98394 0.0
C2694 C 0.47378 0.4881 0.01732 0.0
C2695 C 0.50111 0.45431 0.00964 0.0
N2696 N 0.48612 0.52859 0.99401 0.0
N2697 N 0.50598 0.47379 0.99943 0.0
H2698 H 0.95627 0.46391 0.45826 0.0
H2699 H 0.04273 0.53271 0.54116 0.0
H2700 H 0.01424 0.43808 0.49196 0.0
H2701 H 0.9851 0.55858 0.50645 0.0
H2702 H 0.03243 0.49788 0.52369 0.0
H2703 H 0.96658 0.49869 0.47581 0.0
C2704 C 0.97121 0.46555 0.46926 0.0
C2705 C 0.98444 0.44804 0.47358 0.0
C2706 C 0.02202 0.51116 0.51994 0.0
C2707 C 0.99629 0.48786 0.49389 0.0
C2708 C 0.02786 0.53106 0.52997 0.0
C2709 C 0.01473 0.5486 0.52533 0.0
C2710 C 0.0029 0.50874 0.50512 0.0
C2711 C 0.99568 0.5455 0.51062 0.0
C2712 C 0.97708 0.48543 0.47932 0.0
C2713 C 0.00359 0.45114 0.48804 0.0
N2714 N 0.99036 0.52597 0.50102 0.0
N2715 N 0.00892 0.47066 0.49771 0.0
H2716 H 0.9854 0.43995 0.99209 0.0
H2717 H 0.01901 0.5612 0.01081 0.0
H2718 H 0.04391 0.46597 0.96041 0.0
H2719 H 0.95999 0.53549 0.04117 0.0
H2720 H 0.0286 0.52631 0.99275 0.0
H2721 H 0.97586 0.4748 0.01036 0.0
C2722 C 0.9962 0.453 0.98883 0.0
C2723 C 0.01547 0.45003 0.9746 0.0
C2724 C 0.01357 0.52829 0.00343 0.0
C2725 C 0.00469 0.48996 0.99567 0.0
C2726 C 0.00811 0.5482 0.01384 0.0
C2727 C 0.98868 0.55128 0.0276 0.0
C2728 C 0.99952 0.51129 0.00679 0.0
C2729 C 0.97514 0.53386 0.03074 0.0
C2730 C 0.99076 0.4729 0.99935 0.0
C2731 C 0.02888 0.46752 0.97118 0.0
N2732 N 0.98081 0.51463 0.02039 0.0
N2733 N 0.02324 0.48671 0.98166 0.0
H2734 H 0.48387 0.43971 0.51232 0.0
H2735 H 0.51722 0.5611 0.49453 0.0
H2736 H 0.54346 0.4651 0.54114 0.0
H2737 H 0.45796 0.53546 0.46484 0.0
H2738 H 0.52706 0.52609 0.51194 0.0
H2739 H 0.47392 0.4748 0.49536 0.0
C2740 C 0.49482 0.45268 0.51524 0.0
C2741 C 0.51452 0.44946 0.52824 0.0
C2742 C 0.51192 0.52812 0.50156 0.0
C2743 C 0.50327 0.48967 0.50868 0.0
C2744 C 0.50631 0.5481 0.49154 0.0
C2745 C 0.48676 0.55122 0.47812 0.0
C2746 C 0.49789 0.51111 0.49818 0.0
C2747 C 0.47322 0.5338 0.47501 0.0
C2748 C 0.48915 0.47271 0.50546 0.0
C2749 C 0.52811 0.46684 0.53128 0.0
N2750 N 0.47904 0.51451 0.48498 0.0
N2751 N 0.52224 0.48618 0.52155 0.0
H2752 H 0.05224 0.32577 0.05602 0.0
H2753 H 0.11905 0.35168 0.19504 0.0
H2754 H 0.09823 0.37612 0.05622 0.0
H2755 H 0.08843 0.292 0.17813 0.0
H2756 H 0.1105 0.36296 0.14621 0.0
H2757 H 0.06397 0.31523 0.10297 0.0
C2758 C 0.06488 0.33462 0.06598 0.0
C2759 C 0.07425 0.35188 0.05224 0.0
C2760 C 0.10582 0.34738 0.15332 0.0
C2761 C 0.0878 0.33988 0.10638 0.0
C2762 C 0.11059 0.34097 0.18114 0.0
C2763 C 0.10431 0.32092 0.19079 0.0
C2764 C 0.09455 0.33368 0.13536 0.0
C2765 C 0.09353 0.30763 0.17183 0.0
C2766 C 0.07165 0.32853 0.09281 0.0
C2767 C 0.09068 0.36264 0.06612 0.0
N2768 N 0.08892 0.3143 0.14521 0.0
N2769 N 0.09687 0.35657 0.09268 0.0
H2770 H 0.87775 0.84986 0.30513 0.0
H2771 H 0.9522 0.82857 0.43847 0.0
H2772 H 0.91367 0.79272 0.31867 0.0
H2773 H 0.90108 0.87359 0.44367 0.0
H2774 H 0.94016 0.81823 0.3916 0.0
H2775 H 0.88769 0.86164 0.3533 0.0
C2776 C 0.88768 0.83983 0.31815 0.0
C2777 C 0.89496 0.82032 0.30781 0.0
C2778 C 0.93146 0.83032 0.40293 0.0
C2779 C 0.90633 0.83365 0.36241 0.0
C2780 C 0.93839 0.83632 0.42972 0.0
C2781 C 0.92762 0.85198 0.44503 0.0
C2782 C 0.91368 0.84013 0.39099 0.0
C2783 C 0.90975 0.86135 0.43258 0.0
C2784 C 0.89323 0.8465 0.34559 0.0
C2785 C 0.90766 0.80787 0.32562 0.0
N2786 N 0.90335 0.85536 0.40608 0.0
N2787 N 0.91301 0.8148 0.35186 0.0
H2788 H 0.37801 0.65393 0.69487 0.0
H2789 H 0.45446 0.67319 0.56311 0.0
H2790 H 0.41406 0.71094 0.68107 0.0
H2791 H 0.40248 0.62923 0.55712 0.0
H2792 H 0.44209 0.68392 0.60971 0.0
H2793 H 0.38877 0.64152 0.64733 0.0
C2794 C 0.38816 0.66379 0.68192 0.0
C2795 C 0.39518 0.68348 0.69194 0.0
C2796 C 0.4333 0.67197 0.59825 0.0
C2797 C 0.40752 0.66941 0.6381 0.0
C2798 C 0.4404 0.66575 0.57162 0.0
C2799 C 0.42945 0.6503 0.55616 0.0
C2800 C 0.41517 0.66259 0.60984 0.0
C2801 C 0.41128 0.6413 0.56832 0.0
C2802 C 0.39418 0.65676 0.65484 0.0
C2803 C 0.4082 0.69569 0.67427 0.0
N2804 N 0.40472 0.64752 0.59464 0.0
N2805 N 0.41401 0.6884 0.64838 0.0
H2806 H 0.62134 0.15112 0.80383 0.0
H2807 H 0.54592 0.17301 0.93609 0.0
H2808 H 0.58445 0.20786 0.81562 0.0
H2809 H 0.59722 0.12827 0.94218 0.0
H2810 H 0.55811 0.18311 0.88917 0.0
H2811 H 0.61119 0.13974 0.85207 0.0
C2812 C 0.61114 0.16114 0.81648 0.0
C2813 C 0.60367 0.18043 0.80565 0.0
C2814 C 0.56682 0.17113 0.90071 0.0
C2815 C 0.59206 0.16755 0.86035 0.0
C2816 C 0.5598 0.16527 0.92753 0.0
C2817 C 0.57058 0.14975 0.94308 0.0
C2818 C 0.58467 0.16131 0.889 0.0
C2819 C 0.58855 0.14039 0.93089 0.0
C2820 C 0.60547 0.1547 0.84397 0.0
C2821 C 0.59062 0.19288 0.82298 0.0
N2822 N 0.59502 0.14623 0.90436 0.0
N2823 N 0.58518 0.18617 0.8493 0.0
H2824 H 0.05486 0.6733 0.44342 0.0
H2825 H 0.1204 0.64668 0.30424 0.0
H2826 H 0.09855 0.62095 0.44274 0.0
H2827 H 0.09594 0.70853 0.32488 0.0
H2828 H 0.11131 0.63489 0.35269 0.0
H2829 H 0.06806 0.68437 0.39736 0.0
C2830 C 0.06731 0.66413 0.43353 0.0
C2831 C 0.07561 0.64616 0.44684 0.0
C2832 C 0.10815 0.65106 0.34648 0.0
C2833 C 0.0908 0.65873 0.39378 0.0
C2834 C 0.11323 0.65776 0.31889 0.0
C2835 C 0.10869 0.67855 0.31034 0.0
C2836 C 0.09831 0.66522 0.3653 0.0
C2837 C 0.09955 0.6923 0.33026 0.0
C2838 C 0.07493 0.67052 0.40725 0.0
C2839 C 0.09184 0.63497 0.43313 0.0
N2840 N 0.09454 0.68534 0.3566 0.0
N2841 N 0.09883 0.64133 0.40706 0.0
H2842 H 0.62374 0.84684 0.69392 0.0
H2843 H 0.54489 0.83045 0.5639 0.0
H2844 H 0.58386 0.79217 0.68226 0.0
H2845 H 0.59967 0.87067 0.55564 0.0
H2846 H 0.55666 0.82016 0.61092 0.0
H2847 H 0.61305 0.85946 0.64643 0.0
C2848 C 0.61274 0.83756 0.68146 0.0
C2849 C 0.60467 0.81843 0.69202 0.0
C2850 C 0.56619 0.8312 0.59888 0.0
C2851 C 0.59241 0.83274 0.63827 0.0
C2852 C 0.55944 0.83717 0.57199 0.0
C2853 C 0.57137 0.8514 0.55573 0.0
C2854 C 0.58497 0.83959 0.60993 0.0
C2855 C 0.5901 0.85953 0.56744 0.0
C2856 C 0.60676 0.8447 0.65441 0.0
C2857 C 0.59057 0.80695 0.675 0.0
N2858 N 0.59635 0.85354 0.594 0.0
N2859 N 0.58484 0.81433 0.64912 0.0
H2860 H 0.41131 0.2895 0.82133 0.0
H2861 H 0.3996 0.37605 0.94373 0.0
H2862 H 0.38129 0.34957 0.80489 0.0
H2863 H 0.44635 0.3264 0.94244 0.0
H2864 H 0.38774 0.36474 0.89608 0.0
H2865 H 0.41895 0.30086 0.8694 0.0
C2866 C 0.40628 0.30513 0.8278 0.0
C2867 C 0.39581 0.31869 0.80887 0.0
C2868 C 0.40055 0.35639 0.90641 0.0
C2869 C 0.4046 0.33184 0.86434 0.0
C2870 C 0.40722 0.36272 0.93355 0.0
C2871 C 0.42402 0.35218 0.94692 0.0
C2872 C 0.41058 0.33923 0.89308 0.0
C2873 C 0.43346 0.3351 0.93284 0.0
C2874 C 0.41071 0.31162 0.85534 0.0
C2875 C 0.38958 0.33871 0.81873 0.0
N2876 N 0.42658 0.32916 0.9068 0.0
N2877 N 0.39411 0.34474 0.84589 0.0
H2878 H 0.92163 0.20114 0.18753 0.0
H2879 H 0.8998 0.12947 0.0518 0.0
H2880 H 0.87439 0.15198 0.19007 0.0
H2881 H 0.95814 0.16273 0.06814 0.0
H2882 H 0.8877 0.13895 0.09998 0.0
H2883 H 0.93258 0.18899 0.14097 0.0
C2884 C 0.91353 0.18773 0.17825 0.0
C2885 C 0.89704 0.17756 0.19268 0.0
C2886 C 0.90317 0.144 0.09288 0.0
C2887 C 0.90958 0.1635 0.13901 0.0
C2888 C 0.91003 0.13871 0.06544 0.0
C2889 C 0.92995 0.14543 0.05584 0.0
C2890 C 0.91626 0.15626 0.11048 0.0
C2891 C 0.94264 0.15723 0.07445 0.0
C2892 C 0.91987 0.18073 0.15165 0.0
C2893 C 0.88725 0.16016 0.17964 0.0
N2894 N 0.93553 0.16234 0.10068 0.0
N2895 N 0.89358 0.15372 0.1533 0.0
H2896 H 0.90315 0.63025 0.948 0.0
H2897 H 0.92691 0.70249 0.81302 0.0
H2898 H 0.96044 0.66609 0.93524 0.0
H2899 H 0.88009 0.65297 0.80945 0.0
H2900 H 0.93694 0.69083 0.86019 0.0
H2901 H 0.89203 0.63967 0.89939 0.0
C2902 C 0.91335 0.64007 0.93506 0.0
C2903 C 0.93271 0.64747 0.94575 0.0
C2904 C 0.92453 0.68238 0.84916 0.0
C2905 C 0.92014 0.65823 0.8906 0.0
C2906 C 0.91872 0.6891 0.82219 0.0
C2907 C 0.90262 0.67869 0.80729 0.0
C2908 C 0.91407 0.6652 0.86168 0.0
C2909 C 0.89267 0.66134 0.82023 0.0
C2910 C 0.90705 0.64533 0.90736 0.0
C2911 C 0.94538 0.66001 0.92804 0.0
N2912 N 0.89847 0.65517 0.8469 0.0
N2913 N 0.93882 0.66504 0.9015 0.0
H2914 H 0.07477 0.19716 0.69048 0.0
H2915 H 0.10136 0.1322 0.55029 0.0
H2916 H 0.12699 0.15332 0.68876 0.0
H2917 H 0.04052 0.15967 0.56946 0.0
H2918 H 0.11297 0.1408 0.59898 0.0
H2919 H 0.06389 0.1849 0.64393 0.0
C2920 C 0.08395 0.18487 0.68027 0.0
C2921 C 0.10184 0.17627 0.69344 0.0
C2922 C 0.09706 0.14476 0.59239 0.0
C2923 C 0.08947 0.16214 0.63975 0.0
C2924 C 0.09047 0.13997 0.56466 0.0
C2925 C 0.07001 0.14541 0.55566 0.0
C2926 C 0.08312 0.1552 0.61093 0.0
C2927 C 0.05648 0.15529 0.57521 0.0
C2928 C 0.07767 0.17779 0.65367 0.0
C2929 C 0.11303 0.16026 0.67928 0.0
N2930 N 0.06333 0.15995 0.60173 0.0
N2931 N 0.10677 0.15379 0.65292 0.0
H2932 H 0.53946 0.34016 0.43051 0.0
H2933 H 0.62519 0.34918 0.30667 0.0
H2934 H 0.60045 0.36858 0.4459 0.0
H2935 H 0.57418 0.30396 0.30898 0.0
H2936 H 0.61467 0.36148 0.35445 0.0
H2937 H 0.55015 0.3322 0.38229 0.0
C2938 C 0.55516 0.34476 0.42379 0.0
C2939 C 0.56917 0.35486 0.44248 0.0
C2940 C 0.60585 0.34891 0.34431 0.0
C2941 C 0.58155 0.34569 0.3868 0.0
C2942 C 0.61173 0.34199 0.3171 0.0
C2943 C 0.60057 0.32548 0.30398 0.0
C2944 C 0.58852 0.33944 0.35797 0.0
C2945 C 0.58335 0.3166 0.31838 0.0
C2946 C 0.56127 0.34016 0.39614 0.0
C2947 C 0.58924 0.36057 0.43226 0.0
N2948 N 0.57786 0.32371 0.34448 0.0
N2949 N 0.5949 0.35586 0.405 0.0
H2950 H 0.40333 0.87189 0.05514 0.0
H2951 H 0.4289 0.80041 0.18931 0.0
H2952 H 0.46339 0.84129 0.0696 0.0
H2953 H 0.38032 0.84819 0.19317 0.0
H2954 H 0.43979 0.81389 0.14326 0.0
H2955 H 0.39276 0.86253 0.1039 0.0
C2956 C 0.41431 0.86335 0.06855 0.0
C2957 C 0.43419 0.85717 0.05816 0.0
C2958 C 0.42683 0.82156 0.15417 0.0
C2959 C 0.42219 0.84641 0.11352 0.0
C2960 C 0.42051 0.81379 0.18043 0.0
C2961 C 0.40364 0.82318 0.19502 0.0
C2962 C 0.41603 0.83869 0.14203 0.0
C2963 C 0.39347 0.84059 0.18258 0.0
C2964 C 0.4083 0.85809 0.09633 0.0
C2965 C 0.44785 0.84626 0.07651 0.0
N2966 N 0.3997 0.84771 0.15654 0.0
N2967 N 0.44151 0.84108 0.10311 0.0
H2968 H 0.90061 0.37354 0.55507 0.0
H2969 H 0.91452 0.2902 0.68097 0.0
H2970 H 0.94924 0.3258 0.55905 0.0
H2971 H 0.88115 0.34891 0.69426 0.0
H2972 H 0.92274 0.30114 0.63293 0.0
H2973 H 0.88895 0.363 0.6031 0.0
C2974 C 0.90872 0.36081 0.56593 0.0
C2975 C 0.92595 0.35056 0.55314 0.0
C2976 C 0.91364 0.31171 0.64628 0.0
C2977 C 0.91273 0.33848 0.60748 0.0
C2978 C 0.90887 0.30544 0.67381 0.0
C2979 C 0.89724 0.31872 0.69183 0.0
C2980 C 0.90671 0.33141 0.63636 0.0
C2981 C 0.89032 0.33827 0.68113 0.0
C2982 C 0.90215 0.35492 0.59329 0.0
C2983 C 0.93599 0.33426 0.56813 0.0
N2984 N 0.89517 0.34408 0.65397 0.0
N2985 N 0.9292 0.32873 0.59437 0.0
H2986 H 0.42542 0.19722 0.30788 0.0
H2987 H 0.3992 0.1311 0.44729 0.0
H2988 H 0.37396 0.1525 0.30893 0.0
H2989 H 0.45949 0.16019 0.42937 0.0
H2990 H 0.38776 0.13976 0.39857 0.0
H2991 H 0.43624 0.18506 0.35452 0.0
C2992 C 0.41639 0.18476 0.31797 0.0
C2993 C 0.39873 0.17589 0.30457 0.0
C2994 C 0.40351 0.14406 0.40543 0.0
C2995 C 0.41104 0.16186 0.35836 0.0
C2996 C 0.41001 0.13924 0.43319 0.0
C2997 C 0.43027 0.1451 0.44254 0.0
C2998 C 0.41734 0.15496 0.38722 0.0
C2999 C 0.44369 0.15545 0.42332 0.0
C3000 C 0.42264 0.17774 0.34461 0.0
C3001 C 0.38774 0.15966 0.31857 0.0
N3002 N 0.43693 0.16013 0.39676 0.0
N3003 N 0.39397 0.15324 0.34497 0.0
H3004 H 0.59733 0.62798 0.05386 0.0
H3005 H 0.57169 0.6991 0.1883 0.0
H3006 H 0.53709 0.6581 0.06874 0.0
H3007 H 0.62058 0.65163 0.19186 0.0
H3008 H 0.56068 0.68551 0.14235 0.0
H3009 H 0.60793 0.63725 0.10264 0.0
C3010 C 0.58631 0.63639 0.06737 0.0
C3011 C 0.56638 0.64248 0.05708 0.0
C3012 C 0.57374 0.67792 0.15317 0.0
C3013 C 0.57842 0.65314 0.11246 0.0
C3014 C 0.58011 0.68575 0.17938 0.0
C3015 C 0.59711 0.6765 0.19384 0.0
C3016 C 0.5846 0.66086 0.14096 0.0
C3017 C 0.60734 0.65913 0.18135 0.0
C3018 C 0.59235 0.6416 0.09516 0.0
C3019 C 0.55268 0.65323 0.07555 0.0
N3020 N 0.60105 0.65195 0.15537 0.0
N3021 N 0.55903 0.65836 0.10216 0.0
H3022 H 0.11699 0.85038 0.80574 0.0
H3023 H 0.04893 0.82559 0.94428 0.0
H3024 H 0.08298 0.79232 0.82106 0.0
H3025 H 0.09621 0.87473 0.94455 0.0
H3026 H 0.06011 0.81525 0.89707 0.0
H3027 H 0.10861 0.86166 0.85463 0.0
C3028 C 0.10779 0.84005 0.81929 0.0
C3029 C 0.10057 0.82044 0.80921 0.0
C3030 C 0.06819 0.82824 0.90736 0.0
C3031 C 0.09103 0.83316 0.86472 0.0
C3032 C 0.06174 0.83422 0.93436 0.0
C3033 C 0.07163 0.85109 0.94833 0.0
C3034 C 0.08457 0.83929 0.89384 0.0
C3035 C 0.08827 0.86156 0.93448 0.0
C3036 C 0.10313 0.84643 0.84715 0.0
C3037 C 0.08886 0.80759 0.82772 0.0
N3038 N 0.09416 0.85559 0.90776 0.0
N3039 N 0.08442 0.81423 0.8544 0.0
loop_
_geom_bond_atom_site_label_1
_geom_bond_atom_site_label_2
_geom_bond_distance
_geom_bond_site_symmetry_2
_ccdc_geom_bond_type
Co0 O2 2.143 . S
Co0 O8 2.074 . S
Co0 O11 2.093 . S
Co0 O24 2.097 . S
Co0 N41 2.151 . S
Co0 N49 2.214 . S
Co1 O2 2.160 . S
Co1 O7 2.058 . S
Co1 O17 2.057 . S
Co1 O32 2.037 . S
Co1 N36 2.145 . S
Co1 N57 2.257 . S
O2 Co0 2.143 . S
O2 Co1 2.160 . S
C3 O4 1.278 . S
C3 O11 1.224 . S
O4 C3 1.278 . S
C5 O6 1.245 . S
C5 O17 1.232 . S
O6 C5 1.245 . S
O7 Co1 2.058 . S
O7 C33 1.269 . S
O8 Co0 2.074 . S
O8 C33 1.257 . S
H9 C34 0.930 . S
H10 C40 0.930 . S
O11 Co0 2.093 . S
O11 C3 1.224 . S
H12 C44 0.929 . S
H13 C46 0.930 . S
H14 C47 0.930 . S
H15 C45 0.929 . S
H16 C48 0.928 . S
O17 Co1 2.057 . S
O17 C5 1.232 . S
H18 C37 0.929 . S
H19 C38 0.929 . S
H20 C50 0.931 . S
H21 C42 0.929 . S
H22 C51 0.930 . S
H23 C43 0.931 . S
O24 Co0 2.097 . S
O24 C52 1.214 . S
H25 C53 0.929 . S
H26 C54 0.929 . S
H27 C55 0.930 . S
H28 C56 0.929 . S
H29 C58 0.930 . S
H30 C35 0.930 . S
H31 C39 0.930 . S
O32 Co1 2.037 . S
O32 C52 1.234 . S
C33 O7 1.269 . S
C33 O8 1.257 . S
C34 H9 0.930 . S
C34 C37 1.388 . S
C34 C39 1.418 . S
C35 H30 0.930 . S
C35 C38 1.404 . S
C35 C39 1.353 . S
N36 Co1 2.145 . S
N36 C37 1.397 . S
N36 C38 1.334 . S
C37 H18 0.929 . S
C37 C34 1.388 . S
C37 N36 1.397 . S
C38 H19 0.929 . S
C38 C35 1.404 . S
C38 N36 1.334 . S
C39 H31 0.930 . S
C39 C34 1.418 . S
C39 C35 1.353 . S
C40 H10 0.930 . S
C40 N41 1.330 . S
C40 C42 1.446 . S
N41 Co0 2.151 . S
N41 C40 1.330 . S
N41 C45 1.418 . S
C42 H21 0.929 . S
C42 C40 1.446 . S
C42 C43 1.332 . S
C43 H23 0.931 . S
C43 C42 1.332 . S
C43 C44 1.267 . S
C44 H12 0.929 . S
C44 C43 1.267 . S
C44 C45 1.251 . S
C45 H15 0.929 . S
C45 N41 1.418 . S
C45 C44 1.251 . S
C46 H13 0.930 . S
C46 C48 1.406 . S
C46 C51 1.261 . S
C47 H14 0.930 . S
C47 N49 1.325 . S
C47 C50 1.357 . S
C48 H16 0.928 . S
C48 C46 1.406 . S
C48 N49 1.261 . S
N49 Co0 2.214 . S
N49 C47 1.325 . S
N49 C48 1.261 . S
C50 H20 0.931 . S
C50 C47 1.357 . S
C50 C51 1.312 . S
C51 H22 0.930 . S
C51 C46 1.261 . S
C51 C50 1.312 . S
C52 O24 1.214 . S
C52 O32 1.234 . S
C53 H25 0.929 . S
C53 C56 1.391 . S
C53 C58 1.391 . S
C54 H26 0.929 . S
C54 C55 1.390 . S
C54 N57 1.391 . S
C55 H27 0.930 . S
C55 C54 1.390 . S
C55 C56 1.392 . S
C56 H28 0.929 . S
C56 C53 1.391 . S
C56 C55 1.392 . S
N57 Co1 2.257 . S
N57 C54 1.391 . S
N57 C58 1.388 . S
C58 H29 0.930 . S
C58 C53 1.391 . S
C58 N57 1.388 . S
Co59 O61 2.143 . S
Co59 O67 2.074 . S
Co59 O70 2.093 . S
Co59 O83 2.097 . S
Co59 N100 2.151 . S
Co59 N108 2.214 . S
Co60 O61 2.160 . S
Co60 O66 2.058 . S
Co60 O76 2.057 . S
Co60 O91 2.037 . S
Co60 N95 2.145 . S
Co60 N116 2.257 . S
O61 Co59 2.143 . S
O61 Co60 2.160 . S
C62 O63 1.278 . S
C62 O70 1.224 . S
O63 C62 1.278 . S
C64 O65 1.245 . S
C64 O76 1.232 . S
O65 C64 1.245 . S
O66 Co60 2.058 . S
O66 C92 1.269 . S
O67 Co59 2.074 . S
O67 C92 1.257 . S
H68 C93 0.930 . S
H69 C99 0.930 . S
O70 Co59 2.093 . S
O70 C62 1.224 . S
H71 C103 0.929 . S
H72 C105 0.930 . S
H73 C106 0.930 . S
H74 C104 0.929 . S
H75 C107 0.928 . S
O76 Co60 2.057 . S
O76 C64 1.232 . S
H77 C96 0.929 . S
H78 C97 0.929 . S
H79 C109 0.931 . S
H80 C101 0.929 1_655 S
H81 C110 0.930 . S
H82 C102 0.931 . S
O83 Co59 2.097 . S
O83 C111 1.214 . S
H84 C112 0.929 . S
H85 C113 0.929 . S
H86 C114 0.930 . S
H87 C115 0.929 . S
H88 C117 0.930 . S
H89 C94 0.930 . S
H90 C98 0.930 . S
O91 Co60 2.037 . S
O91 C111 1.234 . S
C92 O66 1.269 . S
C92 O67 1.257 . S
C93 H68 0.930 . S
C93 C96 1.388 . S
C93 C98 1.418 . S
C94 H89 0.930 . S
C94 C97 1.404 . S
C94 C98 1.353 . S
N95 Co60 2.145 . S
N95 C96 1.397 . S
N95 C97 1.334 . S
C96 H77 0.929 . S
C96 C93 1.388 . S
C96 N95 1.397 . S
C97 H78 0.929 . S
C97 C94 1.404 . S
C97 N95 1.334 . S
C98 H90 0.930 . S
C98 C93 1.418 . S
C98 C94 1.353 . S
C99 H69 0.930 . S
C99 N100 1.330 . S
C99 C101 1.438 1_655 S
N100 Co59 2.151 . S
N100 C99 1.330 . S
N100 C104 1.418 1_655 S
C101 H80 0.929 1_455 S
C101 C99 1.438 1_455 S
C101 C102 1.340 . S
C102 H82 0.931 . S
C102 C101 1.340 . S
C102 C103 1.267 . S
C103 H71 0.929 . S
C103 C102 1.267 . S
C103 C104 1.251 . S
C104 H74 0.929 . S
C104 N100 1.418 1_455 S
C104 C103 1.251 . S
C105 H72 0.930 . S
C105 C107 1.406 . S
C105 C110 1.261 . S
C106 H73 0.930 . S
C106 N108 1.325 . S
C106 C109 1.357 . S
C107 H75 0.928 . S
C107 C105 1.406 . S
C107 N108 1.261 . S
N108 Co59 2.214 . S
N108 C106 1.325 . S
N108 C107 1.261 . S
C109 H79 0.931 . S
C109 C106 1.357 . S
C109 C110 1.312 . S
C110 H81 0.930 . S
C110 C105 1.261 . S
C110 C109 1.312 . S
C111 O83 1.214 . S
C111 O91 1.234 . S
C112 H84 0.929 . S
C112 C115 1.391 . S
C112 C117 1.391 . S
C113 H85 0.929 . S
C113 C114 1.390 . S
C113 N116 1.391 . S
C114 H86 0.930 . S
C114 C113 1.390 . S
C114 C115 1.392 . S
C115 H87 0.929 . S
C115 C112 1.391 . S
C115 C114 1.392 . S
N116 Co60 2.257 . S
N116 C113 1.391 . S
N116 C117 1.388 . S
C117 H88 0.930 . S
C117 C112 1.391 . S
C117 N116 1.388 . S
Co118 O120 2.143 . S
Co118 O126 2.074 . S
Co118 O129 2.093 . S
Co118 O142 2.097 . S
Co118 N159 2.151 . S
Co118 N167 2.214 . S
Co119 O120 2.160 . S
Co119 O125 2.058 . S
Co119 O135 2.057 . S
Co119 O150 2.037 . S
Co119 N154 2.145 . S
Co119 N175 2.257 . S
O120 Co118 2.143 . S
O120 Co119 2.160 . S
C121 O122 1.278 . S
C121 O129 1.224 . S
O122 C121 1.278 . S
C123 O124 1.245 . S
C123 O135 1.232 . S
O124 C123 1.245 . S
O125 Co119 2.058 . S
O125 C151 1.269 . S
O126 Co118 2.074 . S
O126 C151 1.257 . S
H127 C152 0.930 . S
H128 C158 0.930 . S
O129 Co118 2.093 . S
O129 C121 1.224 . S
H130 C162 0.929 . S
H131 C164 0.930 . S
H132 C165 0.930 . S
H133 C163 0.929 . S
H134 C166 0.928 . S
O135 Co119 2.057 . S
O135 C123 1.232 . S
H136 C155 0.929 . S
H137 C156 0.929 . S
H138 C168 0.931 . S
H139 C160 0.929 . S
H140 C169 0.930 . S
H141 C161 0.931 . S
O142 Co118 2.097 . S
O142 C170 1.214 . S
H143 C171 0.929 . S
H144 C172 0.929 . S
H145 C173 0.930 . S
H146 C174 0.929 . S
H147 C176 0.930 . S
H148 C153 0.930 . S
H149 C157 0.930 . S
O150 Co119 2.037 . S
O150 C170 1.234 . S
C151 O125 1.269 . S
C151 O126 1.257 . S
C152 H127 0.930 . S
C152 C155 1.388 . S
C152 C157 1.418 . S
C153 H148 0.930 . S
C153 C156 1.404 . S
C153 C157 1.353 . S
N154 Co119 2.145 . S
N154 C155 1.397 . S
N154 C156 1.334 . S
C155 H136 0.929 . S
C155 C152 1.388 . S
C155 N154 1.397 . S
C156 H137 0.929 . S
C156 C153 1.404 . S
C156 N154 1.334 . S
C157 H149 0.930 . S
C157 C152 1.418 . S
C157 C153 1.353 . S
C158 H128 0.930 . S
C158 N159 1.330 . S
C158 C160 1.446 . S
N159 Co118 2.151 . S
N159 C158 1.330 . S
N159 C163 1.418 . S
C160 H139 0.929 . S
C160 C158 1.446 . S
C160 C161 1.332 . S
C161 H141 0.931 . S
C161 C160 1.332 . S
C161 C162 1.267 . S
C162 H130 0.929 . S
C162 C161 1.267 . S
C162 C163 1.251 . S
C163 H133 0.929 . S
C163 N159 1.418 . S
C163 C162 1.251 . S
C164 H131 0.930 . S
C164 C166 1.406 . S
C164 C169 1.261 . S
C165 H132 0.930 . S
C165 N167 1.325 . S
C165 C168 1.357 . S
C166 H134 0.928 . S
C166 C164 1.406 . S
C166 N167 1.261 . S
N167 Co118 2.214 . S
N167 C165 1.325 . S
N167 C166 1.261 . S
C168 H138 0.931 . S
C168 C165 1.357 . S
C168 C169 1.312 . S
C169 H140 0.930 . S
C169 C164 1.261 . S
C169 C168 1.312 . S
C170 O142 1.214 . S
C170 O150 1.234 . S
C171 H143 0.929 . S
C171 C174 1.391 . S
C171 C176 1.391 . S
C172 H144 0.929 . S
C172 C173 1.390 . S
C172 N175 1.391 . S
C173 H145 0.930 . S
C173 C172 1.390 . S
C173 C174 1.392 . S
C174 H146 0.929 . S
C174 C171 1.391 . S
C174 C173 1.392 . S
N175 Co119 2.257 . S
N175 C172 1.391 . S
N175 C176 1.388 . S
C176 H147 0.930 . S
C176 C171 1.391 . S
C176 N175 1.388 . S
Co177 O179 2.143 . S
Co177 O185 2.074 . S
Co177 O188 2.093 1_554 S
Co177 O201 2.097 . S
Co177 N218 2.151 1_554 S
Co177 N226 2.214 . S
Co178 O179 2.160 . S
Co178 O184 2.058 . S
Co178 O194 2.057 . S
Co178 O209 2.037 . S
Co178 N213 2.145 . S
Co178 N234 2.257 . S
O179 Co177 2.143 . S
O179 Co178 2.160 . S
C180 O181 1.278 . S
C180 O188 1.224 . S
O181 C180 1.278 . S
C182 O183 1.245 . S
C182 O194 1.232 . S
O183 C182 1.245 . S
O184 Co178 2.058 . S
O184 C210 1.269 . S
O185 Co177 2.074 . S
O185 C210 1.257 . S
H186 C211 0.930 . S
H187 C217 0.930 . S
O188 Co177 2.093 1_556 S
O188 C180 1.224 . S
H189 C221 0.929 . S
H190 C223 0.930 1_556 S
H191 C224 0.930 . S
H192 C222 0.929 1_554 S
H193 C225 0.960 . S
O194 Co178 2.057 . S
O194 C182 1.232 . S
H195 C214 0.929 . S
H196 C215 0.929 . S
H197 C227 0.931 . S
H198 C219 0.929 . S
H199 C228 0.930 . S
H200 C220 0.931 . S
O201 Co177 2.097 . S
O201 C229 1.214 . S
H202 C230 0.929 . S
H203 C231 0.929 . S
H204 C232 0.930 . S
H205 C233 0.929 . S
H206 C235 0.930 . S
H207 C212 0.930 . S
H208 C216 0.930 . S
O209 Co178 2.037 . S
O209 C229 1.234 . S
C210 O184 1.269 . S
C210 O185 1.257 . S
C211 H186 0.930 . S
C211 C214 1.388 . S
C211 C216 1.418 . S
C212 H207 0.930 . S
C212 C215 1.404 . S
C212 C216 1.353 . S
N213 Co178 2.145 . S
N213 C214 1.397 . S
N213 C215 1.334 . S
C214 H195 0.929 . S
C214 C211 1.388 . S
C214 N213 1.397 . S
C215 H196 0.929 . S
C215 C212 1.404 . S
C215 N213 1.334 . S
C216 H208 0.930 . S
C216 C211 1.418 . S
C216 C212 1.353 . S
C217 H187 0.930 . S
C217 N218 1.330 . S
C217 C219 1.446 . S
N218 Co177 2.151 1_556 S
N218 C217 1.330 . S
N218 C222 1.418 . S
C219 H198 0.929 . S
C219 C217 1.446 . S
C219 C220 1.332 . S
C220 H200 0.931 . S
C220 C219 1.332 . S
C220 C221 1.267 . S
C221 H189 0.929 . S
C221 C220 1.267 . S
C221 C222 1.251 . S
C222 H192 0.929 1_556 S
C222 N218 1.418 . S
C222 C221 1.251 . S
C223 H190 0.930 1_554 S
C223 C225 1.403 1_554 S
C223 C228 1.261 . S
C224 H191 0.930 . S
C224 N226 1.325 . S
C224 C227 1.357 . S
C225 H193 0.960 . S
C225 C223 1.403 1_556 S
C225 N226 1.234 1_556 S
N226 Co177 2.214 . S
N226 C224 1.325 . S
N226 C225 1.234 1_554 S
C227 H197 0.931 . S
C227 C224 1.357 . S
C227 C228 1.312 . S
C228 H199 0.930 . S
C228 C223 1.261 . S
C228 C227 1.312 . S
C229 O201 1.214 . S
C229 O209 1.234 . S
C230 H202 0.929 . S
C230 C233 1.391 . S
C230 C235 1.391 . S
C231 H203 0.929 . S
C231 C232 1.390 . S
C231 N234 1.391 . S
C232 H204 0.930 . S
C232 C231 1.390 . S
C232 C233 1.392 . S
C233 H205 0.929 . S
C233 C230 1.391 . S
C233 C232 1.392 . S
N234 Co178 2.257 . S
N234 C231 1.391 . S
N234 C235 1.388 . S
C235 H206 0.930 . S
C235 C230 1.391 . S
C235 N234 1.388 . S
Co236 O238 2.143 . S
Co236 O244 2.074 . S
Co236 O247 2.093 . S
Co236 O260 2.097 . S
Co236 N277 2.151 . S
Co236 N285 2.214 . S
Co237 O238 2.160 . S
Co237 O243 2.058 . S
Co237 O253 2.057 . S
Co237 O268 2.037 . S
Co237 N272 2.145 . S
Co237 N293 2.257 . S
O238 Co236 2.143 . S
O238 Co237 2.160 . S
C239 O240 1.278 . S
C239 O247 1.224 . S
O240 C239 1.278 . S
C241 O242 1.245 . S
C241 O253 1.232 . S
O242 C241 1.245 . S
O243 Co237 2.058 . S
O243 C269 1.269 . S
O244 Co236 2.074 . S
O244 C269 1.257 . S
H245 C270 0.930 . S
H246 C276 0.930 . S
O247 Co236 2.093 . S
O247 C239 1.224 . S
H248 C280 0.929 . S
H249 C282 0.930 . S
H250 C283 0.930 . S
H251 C281 0.929 . S
H252 C284 0.928 . S
O253 Co237 2.057 . S
O253 C241 1.232 . S
H254 C273 0.929 . S
H255 C274 0.929 . S
H256 C286 0.931 . S
H257 C278 0.929 . S
H258 C287 0.930 . S
H259 C279 0.931 . S
O260 Co236 2.097 . S
O260 C288 1.214 . S
H261 C289 0.929 . S
H262 C290 0.929 . S
H263 C291 0.930 . S
H264 C292 0.929 . S
H265 C294 0.930 . S
H266 C271 0.930 . S
H267 C275 0.930 . S
O268 Co237 2.037 . S
O268 C288 1.234 . S
C269 O243 1.269 . S
C269 O244 1.257 . S
C270 H245 0.930 . S
C270 C273 1.388 . S
C270 C275 1.418 . S
C271 H266 0.930 . S
C271 C274 1.404 . S
C271 C275 1.353 . S
N272 Co237 2.145 . S
N272 C273 1.397 . S
N272 C274 1.334 . S
C273 H254 0.929 . S
C273 C270 1.388 . S
C273 N272 1.397 . S
C274 H255 0.929 . S
C274 C271 1.404 . S
C274 N272 1.334 . S
C275 H267 0.930 . S
C275 C270 1.418 . S
C275 C271 1.353 . S
C276 H246 0.930 . S
C276 N277 1.330 . S
C276 C278 1.446 . S
N277 Co236 2.151 . S
N277 C276 1.330 . S
N277 C281 1.418 . S
C278 H257 0.929 . S
C278 C276 1.446 . S
C278 C279 1.332 . S
C279 H259 0.931 . S
C279 C278 1.332 . S
C279 C280 1.267 . S
C280 H248 0.929 . S
C280 C279 1.267 . S
C280 C281 1.251 . S
C281 H251 0.929 . S
C281 N277 1.418 . S
C281 C280 1.251 . S
C282 H249 0.930 . S
C282 C284 1.406 . S
C282 C287 1.261 . S
C283 H250 0.930 . S
C283 N285 1.325 . S
C283 C286 1.357 . S
C284 H252 0.928 . S
C284 C282 1.406 . S
C284 N285 1.261 . S
N285 Co236 2.214 . S
N285 C283 1.325 . S
N285 C284 1.261 . S
C286 H256 0.931 . S
C286 C283 1.357 . S
C286 C287 1.312 . S
C287 H258 0.930 . S
C287 C282 1.261 . S
C287 C286 1.312 . S
C288 O260 1.214 . S
C288 O268 1.234 . S
C289 H261 0.929 . S
C289 C292 1.391 . S
C289 C294 1.391 . S
C290 H262 0.929 . S
C290 C291 1.390 . S
C290 N293 1.391 . S
C291 H263 0.930 . S
C291 C290 1.390 . S
C291 C292 1.392 . S
C292 H264 0.929 . S
C292 C289 1.391 . S
C292 C291 1.392 . S
N293 Co237 2.257 . S
N293 C290 1.391 . S
N293 C294 1.388 . S
C294 H265 0.930 . S
C294 C289 1.391 . S
C294 N293 1.388 . S
Co295 O297 2.143 . S
Co295 O303 2.074 . S
Co295 O306 2.093 . S
Co295 O319 2.097 . S
Co295 N336 2.151 . S
Co295 N344 2.214 . S
Co296 O297 2.160 . S
Co296 O302 2.058 . S
Co296 O312 2.057 . S
Co296 O327 2.037 . S
Co296 N331 2.145 . S
Co296 N352 2.257 . S
O297 Co295 2.143 . S
O297 Co296 2.160 . S
C298 O299 1.278 . S
C298 O306 1.224 . S
O299 C298 1.278 . S
C300 O301 1.245 . S
C300 O312 1.232 . S
O301 C300 1.245 . S
O302 Co296 2.058 . S
O302 C328 1.269 . S
O303 Co295 2.074 . S
O303 C328 1.257 . S
H304 C329 0.930 . S
H305 C335 0.930 . S
O306 Co295 2.093 . S
O306 C298 1.224 . S
H307 C339 0.929 . S
H308 C341 0.930 . S
H309 C342 0.930 . S
H310 C340 0.929 . S
H311 C343 0.928 . S
O312 Co296 2.057 . S
O312 C300 1.232 . S
H313 C332 0.929 . S
H314 C333 0.929 . S
H315 C345 0.931 . S
H316 C337 0.929 . S
H317 C346 0.930 . S
H318 C338 0.931 . S
O319 Co295 2.097 . S
O319 C347 1.214 . S
H320 C348 0.929 . S
H321 C349 0.929 . S
H322 C350 0.930 . S
H323 C351 0.929 . S
H324 C353 0.930 . S
H325 C330 0.930 . S
H326 C334 0.930 . S
O327 Co296 2.037 . S
O327 C347 1.234 . S
C328 O302 1.269 . S
C328 O303 1.257 . S
C329 H304 0.930 . S
C329 C332 1.388 . S
C329 C334 1.418 . S
C330 H325 0.930 . S
C330 C333 1.404 . S
C330 C334 1.353 . S
N331 Co296 2.145 . S
N331 C332 1.397 . S
N331 C333 1.334 . S
C332 H313 0.929 . S
C332 C329 1.388 . S
C332 N331 1.397 . S
C333 H314 0.929 . S
C333 C330 1.404 . S
C333 N331 1.334 . S
C334 H326 0.930 . S
C334 C329 1.418 . S
C334 C330 1.353 . S
C335 H305 0.930 . S
C335 N336 1.330 . S
C335 C337 1.446 . S
N336 Co295 2.151 . S
N336 C335 1.330 . S
N336 C340 1.418 . S
C337 H316 0.929 . S
C337 C335 1.446 . S
C337 C338 1.332 . S
C338 H318 0.931 . S
C338 C337 1.332 . S
C338 C339 1.267 . S
C339 H307 0.929 . S
C339 C338 1.267 . S
C339 C340 1.251 . S
C340 H310 0.929 . S
C340 N336 1.418 . S
C340 C339 1.251 . S
C341 H308 0.930 . S
C341 C343 1.406 . S
C341 C346 1.261 . S
C342 H309 0.930 . S
C342 N344 1.325 . S
C342 C345 1.357 . S
C343 H311 0.928 . S
C343 C341 1.406 . S
C343 N344 1.261 . S
N344 Co295 2.214 . S
N344 C342 1.325 . S
N344 C343 1.261 . S
C345 H315 0.931 . S
C345 C342 1.357 . S
C345 C346 1.312 . S
C346 H317 0.930 . S
C346 C341 1.261 . S
C346 C345 1.312 . S
C347 O319 1.214 . S
C347 O327 1.234 . S
C348 H320 0.929 . S
C348 C351 1.391 . S
C348 C353 1.391 . S
C349 H321 0.929 . S
C349 C350 1.390 . S
C349 N352 1.391 . S
C350 H322 0.930 . S
C350 C349 1.390 . S
C350 C351 1.392 . S
C351 H323 0.929 . S
C351 C348 1.391 . S
C351 C350 1.392 . S
N352 Co296 2.257 . S
N352 C349 1.391 . S
N352 C353 1.388 . S
C353 H324 0.930 . S
C353 C348 1.391 . S
C353 N352 1.388 . S
Co354 O356 2.143 . S
Co354 O362 2.074 . S
Co354 O365 2.093 . S
Co354 O378 2.097 . S
Co354 N395 2.151 . S
Co354 N403 2.214 . S
Co355 O356 2.160 . S
Co355 O361 2.058 . S
Co355 O371 2.057 . S
Co355 O386 2.037 . S
Co355 N390 2.145 . S
Co355 N411 2.257 . S
O356 Co354 2.143 . S
O356 Co355 2.160 . S
C357 O358 1.278 . S
C357 O365 1.224 . S
O358 C357 1.278 . S
C359 O360 1.245 . S
C359 O371 1.232 . S
O360 C359 1.245 . S
O361 Co355 2.058 . S
O361 C387 1.269 . S
O362 Co354 2.074 . S
O362 C387 1.257 . S
H363 C388 0.930 . S
H364 C394 0.930 . S
O365 Co354 2.093 . S
O365 C357 1.224 . S
H366 C398 0.929 . S
H367 C400 0.930 . S
H368 C401 0.930 . S
H369 C399 0.929 . S
H370 C402 0.928 . S
O371 Co355 2.057 . S
O371 C359 1.232 . S
H372 C391 0.929 . S
H373 C392 0.929 . S
H374 C404 0.931 . S
H375 C396 0.929 . S
H376 C405 0.930 . S
H377 C397 0.931 . S
O378 Co354 2.097 . S
O378 C406 1.214 . S
H379 C407 0.929 . S
H380 C408 0.929 . S
H381 C409 0.930 . S
H382 C410 0.929 . S
H383 C412 0.930 . S
H384 C389 0.930 . S
H385 C393 0.930 . S
O386 Co355 2.037 . S
O386 C406 1.234 . S
C387 O361 1.269 . S
C387 O362 1.257 . S
C388 H363 0.930 . S
C388 C391 1.388 . S
C388 C393 1.418 . S
C389 H384 0.930 . S
C389 C392 1.404 . S
C389 C393 1.353 . S
N390 Co355 2.145 . S
N390 C391 1.397 . S
N390 C392 1.334 . S
C391 H372 0.929 . S
C391 C388 1.388 . S
C391 N390 1.397 . S
C392 H373 0.929 . S
C392 C389 1.404 . S
C392 N390 1.334 . S
C393 H385 0.930 . S
C393 C388 1.418 . S
C393 C389 1.353 . S
C394 H364 0.930 . S
C394 N395 1.330 . S
C394 C396 1.446 . S
N395 Co354 2.151 . S
N395 C394 1.330 . S
N395 C399 1.418 . S
C396 H375 0.929 . S
C396 C394 1.446 . S
C396 C397 1.332 . S
C397 H377 0.931 . S
C397 C396 1.332 . S
C397 C398 1.267 . S
C398 H366 0.929 . S
C398 C397 1.267 . S
C398 C399 1.251 . S
C399 H369 0.929 . S
C399 N395 1.418 . S
C399 C398 1.251 . S
C400 H367 0.930 . S
C400 C402 1.406 . S
C400 C405 1.261 . S
C401 H368 0.930 . S
C401 N403 1.325 . S
C401 C404 1.357 . S
C402 H370 0.928 . S
C402 C400 1.406 . S
C402 N403 1.261 . S
N403 Co354 2.214 . S
N403 C401 1.325 . S
N403 C402 1.261 . S
C404 H374 0.931 . S
C404 C401 1.357 . S
C404 C405 1.312 . S
C405 H376 0.930 . S
C405 C400 1.261 . S
C405 C404 1.312 . S
C406 O378 1.214 . S
C406 O386 1.234 . S
C407 H379 0.929 . S
C407 C410 1.391 . S
C407 C412 1.391 . S
C408 H380 0.929 . S
C408 C409 1.390 . S
C408 N411 1.391 . S
C409 H381 0.930 . S
C409 C408 1.390 . S
C409 C410 1.392 . S
C410 H382 0.929 . S
C410 C407 1.391 . S
C410 C409 1.392 . S
N411 Co355 2.257 . S
N411 C408 1.391 . S
N411 C412 1.388 . S
C412 H383 0.930 . S
C412 C407 1.391 . S
C412 N411 1.388 . S
Co413 O415 2.143 . S
Co413 O421 2.074 . S
Co413 O424 2.093 1_556 S
Co413 O437 2.097 . S
Co413 N454 2.151 1_556 S
Co413 N462 2.214 . S
Co414 O415 2.160 . S
Co414 O420 2.058 . S
Co414 O430 2.057 . S
Co414 O445 2.037 . S
Co414 N449 2.145 . S
Co414 N470 2.257 . S
O415 Co413 2.143 . S
O415 Co414 2.160 . S
C416 O417 1.278 . S
C416 O424 1.224 . S
O417 C416 1.278 . S
C418 O419 1.245 . S
C418 O430 1.232 . S
O419 C418 1.245 . S
O420 Co414 2.058 . S
O420 C446 1.269 . S
O421 Co413 2.074 . S
O421 C446 1.257 . S
H422 C447 0.930 . S
H423 C453 0.930 . S
O424 Co413 2.093 1_554 S
O424 C416 1.224 . S
H425 C457 0.929 . S
H426 C459 0.930 1_554 S
H427 C460 0.930 . S
H428 C458 0.929 1_556 S
H429 C461 0.960 . S
O430 Co414 2.057 . S
O430 C418 1.232 . S
H431 C450 0.929 . S
H432 C451 0.929 . S
H433 C463 0.931 . S
H434 C455 0.929 1_655 S
H435 C464 0.930 . S
H436 C456 0.931 . S
O437 Co413 2.097 . S
O437 C465 1.214 . S
H438 C466 0.929 . S
H439 C467 0.929 . S
H440 C468 0.930 . S
H441 C469 0.929 . S
H442 C471 0.930 . S
H443 C448 0.930 . S
H444 C452 0.930 . S
O445 Co414 2.037 . S
O445 C465 1.234 . S
C446 O420 1.269 . S
C446 O421 1.257 . S
C447 H422 0.930 . S
C447 C450 1.388 . S
C447 C452 1.418 . S
C448 H443 0.930 . S
C448 C451 1.404 . S
C448 C452 1.353 . S
N449 Co414 2.145 . S
N449 C450 1.397 . S
N449 C451 1.334 . S
C450 H431 0.929 . S
C450 C447 1.388 . S
C450 N449 1.397 . S
C451 H432 0.929 . S
C451 C448 1.404 . S
C451 N449 1.334 . S
C452 H444 0.930 . S
C452 C447 1.418 . S
C452 C448 1.353 . S
C453 H423 0.930 . S
C453 N454 1.330 . S
C453 C455 1.438 1_655 S
N454 Co413 2.151 1_554 S
N454 C453 1.330 . S
N454 C458 1.418 1_655 S
C455 H434 0.929 1_455 S
C455 C453 1.438 1_455 S
C455 C456 1.340 . S
C456 H436 0.931 . S
C456 C455 1.340 . S
C456 C457 1.267 . S
C457 H425 0.929 . S
C457 C456 1.267 . S
C457 C458 1.251 . S
C458 H428 0.929 1_554 S
C458 N454 1.418 1_455 S
C458 C457 1.251 . S
C459 H426 0.930 1_556 S
C459 C461 1.403 1_556 S
C459 C464 1.261 . S
C460 H427 0.930 . S
C460 N462 1.325 . S
C460 C463 1.357 . S
C461 H429 0.960 . S
C461 C459 1.403 1_554 S
C461 N462 1.234 1_554 S
N462 Co413 2.214 . S
N462 C460 1.325 . S
N462 C461 1.234 1_556 S
C463 H433 0.931 . S
C463 C460 1.357 . S
C463 C464 1.312 . S
C464 H435 0.930 . S
C464 C459 1.261 . S
C464 C463 1.312 . S
C465 O437 1.214 . S
C465 O445 1.234 . S
C466 H438 0.929 . S
C466 C469 1.391 . S
C466 C471 1.391 . S
C467 H439 0.929 . S
C467 C468 1.390 . S
C467 N470 1.391 . S
C468 H440 0.930 . S
C468 C467 1.390 . S
C468 C469 1.392 . S
C469 H441 0.929 . S
C469 C466 1.391 . S
C469 C468 1.392 . S
N470 Co414 2.257 . S
N470 C467 1.391 . S
N470 C471 1.388 . S
C471 H442 0.930 . S
C471 C466 1.391 . S
C471 N470 1.388 . S
Co472 O474 2.143 . S
Co472 O480 2.074 . S
Co472 O483 2.093 . S
Co472 O496 2.097 . S
Co472 N513 2.151 . S
Co472 N521 2.214 . S
Co473 O474 2.160 . S
Co473 O479 2.058 . S
Co473 O489 2.057 . S
Co473 O504 2.037 . S
Co473 N508 2.145 . S
Co473 N529 2.257 . S
O474 Co472 2.143 . S
O474 Co473 2.160 . S
C475 O476 1.278 . S
C475 O483 1.224 . S
O476 C475 1.278 . S
C477 O478 1.245 . S
C477 O489 1.232 . S
O478 C477 1.245 . S
O479 Co473 2.058 . S
O479 C505 1.269 . S
O480 Co472 2.074 . S
O480 C505 1.257 . S
H481 C506 0.930 . S
H482 C512 0.930 . S
O483 Co472 2.093 . S
O483 C475 1.224 . S
H484 C516 0.929 . S
H485 C518 0.930 . S
H486 C519 0.930 . S
H487 C517 0.929 . S
H488 C520 0.928 . S
O489 Co473 2.057 . S
O489 C477 1.232 . S
H490 C509 0.929 . S
H491 C510 0.929 . S
H492 C522 0.931 . S
H493 C514 0.929 . S
H494 C523 0.930 . S
H495 C515 0.931 . S
O496 Co472 2.097 . S
O496 C524 1.214 . S
H497 C525 0.929 . S
H498 C526 0.929 . S
H499 C527 0.930 . S
H500 C528 0.929 . S
H501 C530 0.930 . S
H502 C507 0.930 . S
H503 C511 0.930 . S
O504 Co473 2.037 . S
O504 C524 1.234 . S
C505 O479 1.269 . S
C505 O480 1.257 . S
C506 H481 0.930 . S
C506 C509 1.388 . S
C506 C511 1.418 . S
C507 H502 0.930 . S
C507 C510 1.404 . S
C507 C511 1.353 . S
N508 Co473 2.145 . S
N508 C509 1.397 . S
N508 C510 1.334 . S
C509 H490 0.929 . S
C509 C506 1.388 . S
C509 N508 1.397 . S
C510 H491 0.929 . S
C510 C507 1.404 . S
C510 N508 1.334 . S
C511 H503 0.930 . S
C511 C506 1.418 . S
C511 C507 1.353 . S
C512 H482 0.930 . S
C512 N513 1.330 . S
C512 C514 1.446 . S
N513 Co472 2.151 . S
N513 C512 1.330 . S
N513 C517 1.418 . S
C514 H493 0.929 . S
C514 C512 1.446 . S
C514 C515 1.332 . S
C515 H495 0.931 . S
C515 C514 1.332 . S
C515 C516 1.267 . S
C516 H484 0.929 . S
C516 C515 1.267 . S
C516 C517 1.251 . S
C517 H487 0.929 . S
C517 N513 1.418 . S
C517 C516 1.251 . S
C518 H485 0.930 . S
C518 C520 1.406 . S
C518 C523 1.261 . S
C519 H486 0.930 . S
C519 N521 1.325 . S
C519 C522 1.357 . S
C520 H488 0.928 . S
C520 C518 1.406 . S
C520 N521 1.261 . S
N521 Co472 2.214 . S
N521 C519 1.325 . S
N521 C520 1.261 . S
C522 H492 0.931 . S
C522 C519 1.357 . S
C522 C523 1.312 . S
C523 H494 0.930 . S
C523 C518 1.261 . S
C523 C522 1.312 . S
C524 O496 1.214 . S
C524 O504 1.234 . S
C525 H497 0.929 . S
C525 C528 1.391 . S
C525 C530 1.391 . S
C526 H498 0.929 . S
C526 C527 1.390 . S
C526 N529 1.391 . S
C527 H499 0.930 . S
C527 C526 1.390 . S
C527 C528 1.392 . S
C528 H500 0.929 . S
C528 C525 1.391 . S
C528 C527 1.392 . S
N529 Co473 2.257 . S
N529 C526 1.391 . S
N529 C530 1.388 . S
C530 H501 0.930 . S
C530 C525 1.391 . S
C530 N529 1.388 . S
Co531 O533 2.143 . S
Co531 O539 2.074 . S
Co531 O542 2.093 . S
Co531 O555 2.097 . S
Co531 N572 2.151 . S
Co531 N580 2.214 . S
Co532 O533 2.160 . S
Co532 O538 2.058 . S
Co532 O548 2.057 . S
Co532 O563 2.037 . S
Co532 N567 2.145 . S
Co532 N588 2.257 . S
O533 Co531 2.143 . S
O533 Co532 2.160 . S
C534 O535 1.278 . S
C534 O542 1.224 . S
O535 C534 1.278 . S
C536 O537 1.245 . S
C536 O548 1.232 . S
O537 C536 1.245 . S
O538 Co532 2.058 . S
O538 C564 1.269 . S
O539 Co531 2.074 . S
O539 C564 1.257 . S
H540 C565 0.930 . S
H541 C571 0.930 . S
O542 Co531 2.093 . S
O542 C534 1.224 . S
H543 C575 0.929 . S
H544 C577 0.930 . S
H545 C578 0.930 . S
H546 C576 0.929 . S
H547 C579 0.928 . S
O548 Co532 2.057 . S
O548 C536 1.232 . S
H549 C568 0.929 . S
H550 C569 0.929 . S
H551 C581 0.931 . S
H552 C573 0.929 1_455 S
H553 C582 0.930 . S
H554 C574 0.931 . S
O555 Co531 2.097 . S
O555 C583 1.214 . S
H556 C584 0.929 . S
H557 C585 0.929 . S
H558 C586 0.930 . S
H559 C587 0.929 . S
H560 C589 0.930 . S
H561 C566 0.930 . S
H562 C570 0.930 . S
O563 Co532 2.037 . S
O563 C583 1.234 . S
C564 O538 1.269 . S
C564 O539 1.257 . S
C565 H540 0.930 . S
C565 C568 1.388 . S
C565 C570 1.418 . S
C566 H561 0.930 . S
C566 C569 1.404 . S
C566 C570 1.353 . S
N567 Co532 2.145 . S
N567 C568 1.397 . S
N567 C569 1.334 . S
C568 H549 0.929 . S
C568 C565 1.388 . S
C568 N567 1.397 . S
C569 H550 0.929 . S
C569 C566 1.404 . S
C569 N567 1.334 . S
C570 H562 0.930 . S
C570 C565 1.418 . S
C570 C566 1.353 . S
C571 H541 0.930 . S
C571 N572 1.330 . S
C571 C573 1.438 1_455 S
N572 Co531 2.151 . S
N572 C571 1.330 . S
N572 C576 1.418 1_455 S
C573 H552 0.929 1_655 S
C573 C571 1.438 1_655 S
C573 C574 1.340 . S
C574 H554 0.931 . S
C574 C573 1.340 . S
C574 C575 1.267 . S
C575 H543 0.929 . S
C575 C574 1.267 . S
C575 C576 1.251 . S
C576 H546 0.929 . S
C576 N572 1.418 1_655 S
C576 C575 1.251 . S
C577 H544 0.930 . S
C577 C579 1.406 . S
C577 C582 1.261 . S
C578 H545 0.930 . S
C578 N580 1.325 . S
C578 C581 1.357 . S
C579 H547 0.928 . S
C579 C577 1.406 . S
C579 N580 1.261 . S
N580 Co531 2.214 . S
N580 C578 1.325 . S
N580 C579 1.261 . S
C581 H551 0.931 . S
C581 C578 1.357 . S
C581 C582 1.312 . S
C582 H553 0.930 . S
C582 C577 1.261 . S
C582 C581 1.312 . S
C583 O555 1.214 . S
C583 O563 1.234 . S
C584 H556 0.929 . S
C584 C587 1.391 . S
C584 C589 1.391 . S
C585 H557 0.929 . S
C585 C586 1.390 . S
C585 N588 1.391 . S
C586 H558 0.930 . S
C586 C585 1.390 . S
C586 C587 1.392 . S
C587 H559 0.929 . S
C587 C584 1.391 . S
C587 C586 1.392 . S
N588 Co532 2.257 . S
N588 C585 1.391 . S
N588 C589 1.388 . S
C589 H560 0.930 . S
C589 C584 1.391 . S
C589 N588 1.388 . S
Co590 O592 2.143 . S
Co590 O598 2.074 . S
Co590 O601 2.093 . S
Co590 O614 2.097 . S
Co590 N631 2.151 . S
Co590 N639 2.214 . S
Co591 O592 2.160 . S
Co591 O597 2.058 . S
Co591 O607 2.057 . S
Co591 O622 2.037 . S
Co591 N626 2.145 . S
Co591 N647 2.257 . S
O592 Co590 2.143 . S
O592 Co591 2.160 . S
C593 O594 1.278 . S
C593 O601 1.224 . S
O594 C593 1.278 . S
C595 O596 1.245 . S
C595 O607 1.232 . S
O596 C595 1.245 . S
O597 Co591 2.058 . S
O597 C623 1.269 . S
O598 Co590 2.074 . S
O598 C623 1.257 . S
H599 C624 0.930 . S
H600 C630 0.930 . S
O601 Co590 2.093 . S
O601 C593 1.224 . S
H602 C634 0.929 . S
H603 C636 0.930 . S
H604 C637 0.930 . S
H605 C635 0.929 . S
H606 C638 0.928 . S
O607 Co591 2.057 . S
O607 C595 1.232 . S
H608 C627 0.929 . S
H609 C628 0.929 . S
H610 C640 0.931 . S
H611 C632 0.929 . S
H612 C641 0.930 . S
H613 C633 0.931 . S
O614 Co590 2.097 . S
O614 C642 1.214 . S
H615 C643 0.929 . S
H616 C644 0.929 . S
H617 C645 0.930 . S
H618 C646 0.929 . S
H619 C648 0.930 . S
H620 C625 0.930 . S
H621 C629 0.930 . S
O622 Co591 2.037 . S
O622 C642 1.234 . S
C623 O597 1.269 . S
C623 O598 1.257 . S
C624 H599 0.930 . S
C624 C627 1.388 . S
C624 C629 1.418 . S
C625 H620 0.930 . S
C625 C628 1.404 . S
C625 C629 1.353 . S
N626 Co591 2.145 . S
N626 C627 1.397 . S
N626 C628 1.334 . S
C627 H608 0.929 . S
C627 C624 1.388 . S
C627 N626 1.397 . S
C628 H609 0.929 . S
C628 C625 1.404 . S
C628 N626 1.334 . S
C629 H621 0.930 . S
C629 C624 1.418 . S
C629 C625 1.353 . S
C630 H600 0.930 . S
C630 N631 1.330 . S
C630 C632 1.446 . S
N631 Co590 2.151 . S
N631 C630 1.330 . S
N631 C635 1.418 . S
C632 H611 0.929 . S
C632 C630 1.446 . S
C632 C633 1.332 . S
C633 H613 0.931 . S
C633 C632 1.332 . S
C633 C634 1.267 . S
C634 H602 0.929 . S
C634 C633 1.267 . S
C634 C635 1.251 . S
C635 H605 0.929 . S
C635 N631 1.418 . S
C635 C634 1.251 . S
C636 H603 0.930 . S
C636 C638 1.406 . S
C636 C641 1.261 . S
C637 H604 0.930 . S
C637 N639 1.325 . S
C637 C640 1.357 . S
C638 H606 0.928 . S
C638 C636 1.406 . S
C638 N639 1.261 . S
N639 Co590 2.214 . S
N639 C637 1.325 . S
N639 C638 1.261 . S
C640 H610 0.931 . S
C640 C637 1.357 . S
C640 C641 1.312 . S
C641 H612 0.930 . S
C641 C636 1.261 . S
C641 C640 1.312 . S
C642 O614 1.214 . S
C642 O622 1.234 . S
C643 H615 0.929 . S
C643 C646 1.391 . S
C643 C648 1.391 . S
C644 H616 0.929 . S
C644 C645 1.390 . S
C644 N647 1.391 . S
C645 H617 0.930 . S
C645 C644 1.390 . S
C645 C646 1.392 . S
C646 H618 0.929 . S
C646 C643 1.391 . S
C646 C645 1.392 . S
N647 Co591 2.257 . S
N647 C644 1.391 . S
N647 C648 1.388 . S
C648 H619 0.930 . S
C648 C643 1.391 . S
C648 N647 1.388 . S
Co649 O651 2.143 . S
Co649 O657 2.074 . S
Co649 O660 2.093 1_556 S
Co649 O673 2.097 . S
Co649 N690 2.151 1_556 S
Co649 N698 2.214 . S
Co650 O651 2.160 . S
Co650 O656 2.058 . S
Co650 O666 2.057 . S
Co650 O681 2.037 . S
Co650 N685 2.145 . S
Co650 N706 2.257 . S
O651 Co649 2.143 . S
O651 Co650 2.160 . S
C652 O653 1.278 . S
C652 O660 1.224 . S
O653 C652 1.278 . S
C654 O655 1.245 . S
C654 O666 1.232 . S
O655 C654 1.245 . S
O656 Co650 2.058 . S
O656 C682 1.269 . S
O657 Co649 2.074 . S
O657 C682 1.257 . S
H658 C683 0.930 . S
H659 C689 0.930 . S
O660 Co649 2.093 1_554 S
O660 C652 1.224 . S
H661 C693 0.929 . S
H662 C695 0.930 1_554 S
H663 C696 0.930 . S
H664 C694 0.929 1_556 S
H665 C697 0.960 . S
O666 Co650 2.057 . S
O666 C654 1.232 . S
H667 C686 0.929 . S
H668 C687 0.929 . S
H669 C699 0.931 . S
H670 C691 0.929 . S
H671 C700 0.930 . S
H672 C692 0.931 . S
O673 Co649 2.097 . S
O673 C701 1.214 . S
H674 C702 0.929 . S
H675 C703 0.929 . S
H676 C704 0.930 . S
H677 C705 0.929 . S
H678 C707 0.930 . S
H679 C684 0.930 . S
H680 C688 0.930 . S
O681 Co650 2.037 . S
O681 C701 1.234 . S
C682 O656 1.269 . S
C682 O657 1.257 . S
C683 H658 0.930 . S
C683 C686 1.388 . S
C683 C688 1.418 . S
C684 H679 0.930 . S
C684 C687 1.404 . S
C684 C688 1.353 . S
N685 Co650 2.145 . S
N685 C686 1.397 . S
N685 C687 1.334 . S
C686 H667 0.929 . S
C686 C683 1.388 . S
C686 N685 1.397 . S
C687 H668 0.929 . S
C687 C684 1.404 . S
C687 N685 1.334 . S
C688 H680 0.930 . S
C688 C683 1.418 . S
C688 C684 1.353 . S
C689 H659 0.930 . S
C689 N690 1.330 . S
C689 C691 1.446 . S
N690 Co649 2.151 1_554 S
N690 C689 1.330 . S
N690 C694 1.418 . S
C691 H670 0.929 . S
C691 C689 1.446 . S
C691 C692 1.332 . S
C692 H672 0.931 . S
C692 C691 1.332 . S
C692 C693 1.267 . S
C693 H661 0.929 . S
C693 C692 1.267 . S
C693 C694 1.251 . S
C694 H664 0.929 1_554 S
C694 N690 1.418 . S
C694 C693 1.251 . S
C695 H662 0.930 1_556 S
C695 C697 1.403 1_556 S
C695 C700 1.261 . S
C696 H663 0.930 . S
C696 N698 1.325 . S
C696 C699 1.357 . S
C697 H665 0.960 . S
C697 C695 1.403 1_554 S
C697 N698 1.234 1_554 S
N698 Co649 2.214 . S
N698 C696 1.325 . S
N698 C697 1.234 1_556 S
C699 H669 0.931 . S
C699 C696 1.357 . S
C699 C700 1.312 . S
C700 H671 0.930 . S
C700 C695 1.261 . S
C700 C699 1.312 . S
C701 O673 1.214 . S
C701 O681 1.234 . S
C702 H674 0.929 . S
C702 C705 1.391 . S
C702 C707 1.391 . S
C703 H675 0.929 . S
C703 C704 1.390 . S
C703 N706 1.391 . S
C704 H676 0.930 . S
C704 C703 1.390 . S
C704 C705 1.392 . S
C705 H677 0.929 . S
C705 C702 1.391 . S
C705 C704 1.392 . S
N706 Co650 2.257 . S
N706 C703 1.391 . S
N706 C707 1.388 . S
C707 H678 0.930 . S
C707 C702 1.391 . S
C707 N706 1.388 . S
Co708 O710 2.143 . S
Co708 O716 2.074 . S
Co708 O719 2.093 . S
Co708 O732 2.097 . S
Co708 N749 2.151 . S
Co708 N757 2.214 . S
Co709 O710 2.160 . S
Co709 O715 2.058 . S
Co709 O725 2.057 . S
Co709 O740 2.037 . S
Co709 N744 2.145 . S
Co709 N765 2.257 . S
O710 Co708 2.143 . S
O710 Co709 2.160 . S
C711 O712 1.278 . S
C711 O719 1.224 . S
O712 C711 1.278 . S
C713 O714 1.245 . S
C713 O725 1.232 . S
O714 C713 1.245 . S
O715 Co709 2.058 . S
O715 C741 1.269 . S
O716 Co708 2.074 . S
O716 C741 1.257 . S
H717 C742 0.930 . S
H718 C748 0.930 . S
O719 Co708 2.093 . S
O719 C711 1.224 . S
H720 C752 0.929 . S
H721 C754 0.930 . S
H722 C755 0.930 . S
H723 C753 0.929 . S
H724 C756 0.928 . S
O725 Co709 2.057 . S
O725 C713 1.232 . S
H726 C745 0.929 . S
H727 C746 0.929 . S
H728 C758 0.931 . S
H729 C750 0.929 . S
H730 C759 0.930 . S
H731 C751 0.931 . S
O732 Co708 2.097 . S
O732 C760 1.214 . S
H733 C761 0.929 . S
H734 C762 0.929 . S
H735 C763 0.930 . S
H736 C764 0.929 . S
H737 C766 0.930 . S
H738 C743 0.930 . S
H739 C747 0.930 . S
O740 Co709 2.037 . S
O740 C760 1.234 . S
C741 O715 1.269 . S
C741 O716 1.257 . S
C742 H717 0.930 . S
C742 C745 1.388 . S
C742 C747 1.418 . S
C743 H738 0.930 . S
C743 C746 1.404 . S
C743 C747 1.353 . S
N744 Co709 2.145 . S
N744 C745 1.397 . S
N744 C746 1.334 . S
C745 H726 0.929 . S
C745 C742 1.388 . S
C745 N744 1.397 . S
C746 H727 0.929 . S
C746 C743 1.404 . S
C746 N744 1.334 . S
C747 H739 0.930 . S
C747 C742 1.418 . S
C747 C743 1.353 . S
C748 H718 0.930 . S
C748 N749 1.330 . S
C748 C750 1.446 . S
N749 Co708 2.151 . S
N749 C748 1.330 . S
N749 C753 1.418 . S
C750 H729 0.929 . S
C750 C748 1.446 . S
C750 C751 1.332 . S
C751 H731 0.931 . S
C751 C750 1.332 . S
C751 C752 1.267 . S
C752 H720 0.929 . S
C752 C751 1.267 . S
C752 C753 1.251 . S
C753 H723 0.929 . S
C753 N749 1.418 . S
C753 C752 1.251 . S
C754 H721 0.930 . S
C754 C756 1.406 . S
C754 C759 1.261 . S
C755 H722 0.930 . S
C755 N757 1.325 . S
C755 C758 1.357 . S
C756 H724 0.928 . S
C756 C754 1.406 . S
C756 N757 1.261 . S
N757 Co708 2.214 . S
N757 C755 1.325 . S
N757 C756 1.261 . S
C758 H728 0.931 . S
C758 C755 1.357 . S
C758 C759 1.312 . S
C759 H730 0.930 . S
C759 C754 1.261 . S
C759 C758 1.312 . S
C760 O732 1.214 . S
C760 O740 1.234 . S
C761 H733 0.929 . S
C761 C764 1.391 . S
C761 C766 1.391 . S
C762 H734 0.929 . S
C762 C763 1.390 . S
C762 N765 1.391 . S
C763 H735 0.930 . S
C763 C762 1.390 . S
C763 C764 1.392 . S
C764 H736 0.929 . S
C764 C761 1.391 . S
C764 C763 1.392 . S
N765 Co709 2.257 . S
N765 C762 1.391 . S
N765 C766 1.388 . S
C766 H737 0.930 . S
C766 C761 1.391 . S
C766 N765 1.388 . S
Co767 O769 2.143 . S
Co767 O775 2.074 . S
Co767 O778 2.093 . S
Co767 O791 2.097 . S
Co767 N808 2.151 . S
Co767 N816 2.214 . S
Co768 O769 2.160 . S
Co768 O774 2.058 . S
Co768 O784 2.057 . S
Co768 O799 2.037 . S
Co768 N803 2.145 . S
Co768 N824 2.257 . S
O769 Co767 2.143 . S
O769 Co768 2.160 . S
C770 O771 1.278 . S
C770 O778 1.224 . S
O771 C770 1.278 . S
C772 O773 1.245 . S
C772 O784 1.232 . S
O773 C772 1.245 . S
O774 Co768 2.058 . S
O774 C800 1.269 . S
O775 Co767 2.074 . S
O775 C800 1.257 . S
H776 C801 0.930 . S
H777 C807 0.930 . S
O778 Co767 2.093 . S
O778 C770 1.224 . S
H779 C811 0.929 . S
H780 C813 0.930 . S
H781 C814 0.930 . S
H782 C812 0.929 . S
H783 C815 0.928 . S
O784 Co768 2.057 . S
O784 C772 1.232 . S
H785 C804 0.929 . S
H786 C805 0.929 . S
H787 C817 0.931 . S
H788 C809 0.929 . S
H789 C818 0.930 . S
H790 C810 0.931 . S
O791 Co767 2.097 . S
O791 C819 1.214 . S
H792 C820 0.929 . S
H793 C821 0.929 . S
H794 C822 0.930 . S
H795 C823 0.929 . S
H796 C825 0.930 . S
H797 C802 0.930 . S
H798 C806 0.930 . S
O799 Co768 2.037 . S
O799 C819 1.234 . S
C800 O774 1.269 . S
C800 O775 1.257 . S
C801 H776 0.930 . S
C801 C804 1.388 . S
C801 C806 1.418 . S
C802 H797 0.930 . S
C802 C805 1.404 . S
C802 C806 1.353 . S
N803 Co768 2.145 . S
N803 C804 1.397 . S
N803 C805 1.334 . S
C804 H785 0.929 . S
C804 C801 1.388 . S
C804 N803 1.397 . S
C805 H786 0.929 . S
C805 C802 1.404 . S
C805 N803 1.334 . S
C806 H798 0.930 . S
C806 C801 1.418 . S
C806 C802 1.353 . S
C807 H777 0.930 . S
C807 N808 1.330 . S
C807 C809 1.446 . S
N808 Co767 2.151 . S
N808 C807 1.330 . S
N808 C812 1.418 . S
C809 H788 0.929 . S
C809 C807 1.446 . S
C809 C810 1.332 . S
C810 H790 0.931 . S
C810 C809 1.332 . S
C810 C811 1.267 . S
C811 H779 0.929 . S
C811 C810 1.267 . S
C811 C812 1.251 . S
C812 H782 0.929 . S
C812 N808 1.418 . S
C812 C811 1.251 . S
C813 H780 0.930 . S
C813 C815 1.406 . S
C813 C818 1.261 . S
C814 H781 0.930 . S
C814 N816 1.325 . S
C814 C817 1.357 . S
C815 H783 0.928 . S
C815 C813 1.406 . S
C815 N816 1.261 . S
N816 Co767 2.214 . S
N816 C814 1.325 . S
N816 C815 1.261 . S
C817 H787 0.931 . S
C817 C814 1.357 . S
C817 C818 1.312 . S
C818 H789 0.930 . S
C818 C813 1.261 . S
C818 C817 1.312 . S
C819 O791 1.214 . S
C819 O799 1.234 . S
C820 H792 0.929 . S
C820 C823 1.391 . S
C820 C825 1.391 . S
C821 H793 0.929 . S
C821 C822 1.390 . S
C821 N824 1.391 . S
C822 H794 0.930 . S
C822 C821 1.390 . S
C822 C823 1.392 . S
C823 H795 0.929 . S
C823 C820 1.391 . S
C823 C822 1.392 . S
N824 Co768 2.257 . S
N824 C821 1.391 . S
N824 C825 1.388 . S
C825 H796 0.930 . S
C825 C820 1.391 . S
C825 N824 1.388 . S
Co826 O828 2.143 . S
Co826 O834 2.074 . S
Co826 O837 2.093 . S
Co826 O850 2.097 . S
Co826 N867 2.151 . S
Co826 N875 2.214 . S
Co827 O828 2.160 . S
Co827 O833 2.058 . S
Co827 O843 2.057 . S
Co827 O858 2.037 . S
Co827 N862 2.145 . S
Co827 N883 2.257 . S
O828 Co826 2.143 . S
O828 Co827 2.160 . S
C829 O830 1.278 . S
C829 O837 1.224 . S
O830 C829 1.278 . S
C831 O832 1.245 . S
C831 O843 1.232 . S
O832 C831 1.245 . S
O833 Co827 2.058 . S
O833 C859 1.269 . S
O834 Co826 2.074 . S
O834 C859 1.257 . S
H835 C860 0.930 . S
H836 C866 0.930 . S
O837 Co826 2.093 . S
O837 C829 1.224 . S
H838 C870 0.929 . S
H839 C872 0.930 . S
H840 C873 0.930 . S
H841 C871 0.929 . S
H842 C874 0.928 . S
O843 Co827 2.057 . S
O843 C831 1.232 . S
H844 C863 0.929 . S
H845 C864 0.929 . S
H846 C876 0.931 . S
H847 C868 0.929 . S
H848 C877 0.930 . S
H849 C869 0.931 . S
O850 Co826 2.097 . S
O850 C878 1.214 . S
H851 C879 0.929 . S
H852 C880 0.929 . S
H853 C881 0.930 . S
H854 C882 0.929 . S
H855 C884 0.930 . S
H856 C861 0.930 . S
H857 C865 0.930 . S
O858 Co827 2.037 . S
O858 C878 1.234 . S
C859 O833 1.269 . S
C859 O834 1.257 . S
C860 H835 0.930 . S
C860 C863 1.388 . S
C860 C865 1.418 . S
C861 H856 0.930 . S
C861 C864 1.404 . S
C861 C865 1.353 . S
N862 Co827 2.145 . S
N862 C863 1.397 . S
N862 C864 1.334 . S
C863 H844 0.929 . S
C863 C860 1.388 . S
C863 N862 1.397 . S
C864 H845 0.929 . S
C864 C861 1.404 . S
C864 N862 1.334 . S
C865 H857 0.930 . S
C865 C860 1.418 . S
C865 C861 1.353 . S
C866 H836 0.930 . S
C866 N867 1.330 . S
C866 C868 1.446 . S
N867 Co826 2.151 . S
N867 C866 1.330 . S
N867 C871 1.418 . S
C868 H847 0.929 . S
C868 C866 1.446 . S
C868 C869 1.332 . S
C869 H849 0.931 . S
C869 C868 1.332 . S
C869 C870 1.267 . S
C870 H838 0.929 . S
C870 C869 1.267 . S
C870 C871 1.251 . S
C871 H841 0.929 . S
C871 N867 1.418 . S
C871 C870 1.251 . S
C872 H839 0.930 . S
C872 C874 1.406 . S
C872 C877 1.261 . S
C873 H840 0.930 . S
C873 N875 1.325 . S
C873 C876 1.357 . S
C874 H842 0.928 . S
C874 C872 1.406 . S
C874 N875 1.261 . S
N875 Co826 2.214 . S
N875 C873 1.325 . S
N875 C874 1.261 . S
C876 H846 0.931 . S
C876 C873 1.357 . S
C876 C877 1.312 . S
C877 H848 0.930 . S
C877 C872 1.261 . S
C877 C876 1.312 . S
C878 O850 1.214 . S
C878 O858 1.234 . S
C879 H851 0.929 . S
C879 C882 1.391 . S
C879 C884 1.391 . S
C880 H852 0.929 . S
C880 C881 1.390 . S
C880 N883 1.391 . S
C881 H853 0.930 . S
C881 C880 1.390 . S
C881 C882 1.392 . S
C882 H854 0.929 . S
C882 C879 1.391 . S
C882 C881 1.392 . S
N883 Co827 2.257 . S
N883 C880 1.391 . S
N883 C884 1.388 . S
C884 H855 0.930 . S
C884 C879 1.391 . S
C884 N883 1.388 . S
Co885 O887 2.143 . S
Co885 O893 2.074 . S
Co885 O896 2.093 1_554 S
Co885 O909 2.097 . S
Co885 N926 2.151 1_554 S
Co885 N934 2.214 . S
Co886 O887 2.160 . S
Co886 O892 2.058 . S
Co886 O902 2.057 . S
Co886 O917 2.037 . S
Co886 N921 2.145 . S
Co886 N942 2.257 . S
O887 Co885 2.143 . S
O887 Co886 2.160 . S
C888 O889 1.278 . S
C888 O896 1.224 . S
O889 C888 1.278 . S
C890 O891 1.245 . S
C890 O902 1.232 . S
O891 C890 1.245 . S
O892 Co886 2.058 . S
O892 C918 1.269 . S
O893 Co885 2.074 . S
O893 C918 1.257 . S
H894 C919 0.930 . S
H895 C925 0.930 . S
O896 Co885 2.093 1_556 S
O896 C888 1.224 . S
H897 C929 0.929 . S
H898 C931 0.930 1_556 S
H899 C932 0.930 . S
H900 C930 0.929 1_554 S
H901 C933 0.960 . S
O902 Co886 2.057 . S
O902 C890 1.232 . S
H903 C922 0.929 . S
H904 C923 0.929 . S
H905 C935 0.931 . S
H906 C927 0.929 1_455 S
H907 C936 0.930 . S
H908 C928 0.931 . S
O909 Co885 2.097 . S
O909 C937 1.214 . S
H910 C938 0.929 . S
H911 C939 0.929 . S
H912 C940 0.930 . S
H913 C941 0.929 . S
H914 C943 0.930 . S
H915 C920 0.930 . S
H916 C924 0.930 . S
O917 Co886 2.037 . S
O917 C937 1.234 . S
C918 O892 1.269 . S
C918 O893 1.257 . S
C919 H894 0.930 . S
C919 C922 1.388 . S
C919 C924 1.418 . S
C920 H915 0.930 . S
C920 C923 1.404 . S
C920 C924 1.353 . S
N921 Co886 2.145 . S
N921 C922 1.397 . S
N921 C923 1.334 . S
C922 H903 0.929 . S
C922 C919 1.388 . S
C922 N921 1.397 . S
C923 H904 0.929 . S
C923 C920 1.404 . S
C923 N921 1.334 . S
C924 H916 0.930 . S
C924 C919 1.418 . S
C924 C920 1.353 . S
C925 H895 0.930 . S
C925 N926 1.330 . S
C925 C927 1.438 1_455 S
N926 Co885 2.151 1_556 S
N926 C925 1.330 . S
N926 C930 1.418 1_455 S
C927 H906 0.929 1_655 S
C927 C925 1.438 1_655 S
C927 C928 1.340 . S
C928 H908 0.931 . S
C928 C927 1.340 . S
C928 C929 1.267 . S
C929 H897 0.929 . S
C929 C928 1.267 . S
C929 C930 1.251 . S
C930 H900 0.929 1_556 S
C930 N926 1.418 1_655 S
C930 C929 1.251 . S
C931 H898 0.930 1_554 S
C931 C933 1.403 1_554 S
C931 C936 1.261 . S
C932 H899 0.930 . S
C932 N934 1.325 . S
C932 C935 1.357 . S
C933 H901 0.960 . S
C933 C931 1.403 1_556 S
C933 N934 1.234 1_556 S
N934 Co885 2.214 . S
N934 C932 1.325 . S
N934 C933 1.234 1_554 S
C935 H905 0.931 . S
C935 C932 1.357 . S
C935 C936 1.312 . S
C936 H907 0.930 . S
C936 C931 1.261 . S
C936 C935 1.312 . S
C937 O909 1.214 . S
C937 O917 1.234 . S
C938 H910 0.929 . S
C938 C941 1.391 . S
C938 C943 1.391 . S
C939 H911 0.929 . S
C939 C940 1.390 . S
C939 N942 1.391 . S
C940 H912 0.930 . S
C940 C939 1.390 . S
C940 C941 1.392 . S
C941 H913 0.929 . S
C941 C938 1.391 . S
C941 C940 1.392 . S
N942 Co886 2.257 . S
N942 C939 1.391 . S
N942 C943 1.388 . S
C943 H914 0.930 . S
C943 C938 1.391 . S
C943 N942 1.388 . S
Co944 O946 2.143 . S
Co944 O952 2.074 . S
Co944 O955 2.093 . S
Co944 O968 2.097 . S
Co944 N985 2.151 . S
Co944 N993 2.214 . S
Co945 O946 2.160 . S
Co945 O951 2.058 . S
Co945 O961 2.057 . S
Co945 O976 2.037 . S
Co945 N980 2.145 . S
Co945 N1001 2.257 . S
O946 Co944 2.143 . S
O946 Co945 2.160 . S
C947 O948 1.278 . S
C947 O955 1.224 . S
O948 C947 1.278 . S
C949 O950 1.245 . S
C949 O961 1.232 . S
O950 C949 1.245 . S
O951 Co945 2.058 . S
O951 C977 1.269 . S
O952 Co944 2.074 . S
O952 C977 1.257 . S
H953 C978 0.930 . S
H954 C984 0.930 . S
O955 Co944 2.093 . S
O955 C947 1.224 . S
H956 C988 0.929 . S
H957 C990 0.930 . S
H958 C991 0.930 . S
H959 C989 0.929 . S
H960 C992 0.928 . S
O961 Co945 2.057 . S
O961 C949 1.232 . S
H962 C981 0.929 . S
H963 C982 0.929 . S
H964 C994 0.931 . S
H965 C986 0.929 . S
H966 C995 0.930 . S
H967 C987 0.931 . S
O968 Co944 2.097 . S
O968 C996 1.214 . S
H969 C997 0.929 . S
H970 C998 0.929 . S
H971 C999 0.930 . S
H972 C1000 0.929 . S
H973 C1002 0.930 . S
H974 C979 0.930 . S
H975 C983 0.930 . S
O976 Co945 2.037 . S
O976 C996 1.234 . S
C977 O951 1.269 . S
C977 O952 1.257 . S
C978 H953 0.930 . S
C978 C981 1.388 . S
C978 C983 1.418 . S
C979 H974 0.930 . S
C979 C982 1.404 . S
C979 C983 1.353 . S
N980 Co945 2.145 . S
N980 C981 1.397 . S
N980 C982 1.334 . S
C981 H962 0.929 . S
C981 C978 1.388 . S
C981 N980 1.397 . S
C982 H963 0.929 . S
C982 C979 1.404 . S
C982 N980 1.334 . S
C983 H975 0.930 . S
C983 C978 1.418 . S
C983 C979 1.353 . S
C984 H954 0.930 . S
C984 N985 1.330 . S
C984 C986 1.446 . S
N985 Co944 2.151 . S
N985 C984 1.330 . S
N985 C989 1.418 . S
C986 H965 0.929 . S
C986 C984 1.446 . S
C986 C987 1.332 . S
C987 H967 0.931 . S
C987 C986 1.332 . S
C987 C988 1.267 . S
C988 H956 0.929 . S
C988 C987 1.267 . S
C988 C989 1.251 . S
C989 H959 0.929 . S
C989 N985 1.418 . S
C989 C988 1.251 . S
C990 H957 0.930 . S
C990 C992 1.406 . S
C990 C995 1.261 . S
C991 H958 0.930 . S
C991 N993 1.325 . S
C991 C994 1.357 . S
C992 H960 0.928 . S
C992 C990 1.406 . S
C992 N993 1.261 . S
N993 Co944 2.214 . S
N993 C991 1.325 . S
N993 C992 1.261 . S
C994 H964 0.931 . S
C994 C991 1.357 . S
C994 C995 1.312 . S
C995 H966 0.930 . S
C995 C990 1.261 . S
C995 C994 1.312 . S
C996 O968 1.214 . S
C996 O976 1.234 . S
C997 H969 0.929 . S
C997 C1000 1.391 . S
C997 C1002 1.391 . S
C998 H970 0.929 . S
C998 C999 1.390 . S
C998 N1001 1.391 . S
C999 H971 0.930 . S
C999 C998 1.390 . S
C999 C1000 1.392 . S
C1000 H972 0.929 . S
C1000 C997 1.391 . S
C1000 C999 1.392 . S
N1001 Co945 2.257 . S
N1001 C998 1.391 . S
N1001 C1002 1.388 . S
C1002 H973 0.930 . S
C1002 C997 1.391 . S
C1002 N1001 1.388 . S
Co1003 O1005 2.143 . S
Co1003 O1011 2.074 . S
Co1003 O1014 2.093 1_554 S
Co1003 O1027 2.097 . S
Co1003 N1044 2.151 1_554 S
Co1003 N1052 2.214 . S
Co1004 O1005 2.160 . S
Co1004 O1010 2.058 . S
Co1004 O1020 2.057 . S
Co1004 O1035 2.037 . S
Co1004 N1039 2.145 . S
Co1004 N1060 2.257 . S
O1005 Co1003 2.143 . S
O1005 Co1004 2.160 . S
C1006 O1007 1.278 . S
C1006 O1014 1.224 . S
O1007 C1006 1.278 . S
C1008 O1009 1.245 . S
C1008 O1020 1.232 . S
O1009 C1008 1.245 . S
O1010 Co1004 2.058 . S
O1010 C1036 1.269 . S
O1011 Co1003 2.074 . S
O1011 C1036 1.257 . S
H1012 C1037 0.930 . S
H1013 C1043 0.930 . S
O1014 Co1003 2.093 1_556 S
O1014 C1006 1.224 . S
H1015 C1047 0.929 . S
H1016 C1049 0.930 1_556 S
H1017 C1050 0.930 . S
H1018 C1048 0.929 1_554 S
H1019 C1051 0.960 . S
O1020 Co1004 2.057 . S
O1020 C1008 1.232 . S
H1021 C1040 0.929 . S
H1022 C1041 0.929 . S
H1023 C1053 0.931 . S
H1024 C1045 0.929 . S
H1025 C1054 0.930 . S
H1026 C1046 0.931 . S
O1027 Co1003 2.097 . S
O1027 C1055 1.214 . S
H1028 C1056 0.929 . S
H1029 C1057 0.929 . S
H1030 C1058 0.930 . S
H1031 C1059 0.929 . S
H1032 C1061 0.930 . S
H1033 C1038 0.930 . S
H1034 C1042 0.930 . S
O1035 Co1004 2.037 . S
O1035 C1055 1.234 . S
C1036 O1010 1.269 . S
C1036 O1011 1.257 . S
C1037 H1012 0.930 . S
C1037 C1040 1.388 . S
C1037 C1042 1.418 . S
C1038 H1033 0.930 . S
C1038 C1041 1.404 . S
C1038 C1042 1.353 . S
N1039 Co1004 2.145 . S
N1039 C1040 1.397 . S
N1039 C1041 1.334 . S
C1040 H1021 0.929 . S
C1040 C1037 1.388 . S
C1040 N1039 1.397 . S
C1041 H1022 0.929 . S
C1041 C1038 1.404 . S
C1041 N1039 1.334 . S
C1042 H1034 0.930 . S
C1042 C1037 1.418 . S
C1042 C1038 1.353 . S
C1043 H1013 0.930 . S
C1043 N1044 1.330 . S
C1043 C1045 1.446 . S
N1044 Co1003 2.151 1_556 S
N1044 C1043 1.330 . S
N1044 C1048 1.418 . S
C1045 H1024 0.929 . S
C1045 C1043 1.446 . S
C1045 C1046 1.332 . S
C1046 H1026 0.931 . S
C1046 C1045 1.332 . S
C1046 C1047 1.267 . S
C1047 H1015 0.929 . S
C1047 C1046 1.267 . S
C1047 C1048 1.251 . S
C1048 H1018 0.929 1_556 S
C1048 N1044 1.418 . S
C1048 C1047 1.251 . S
C1049 H1016 0.930 1_554 S
C1049 C1051 1.403 1_554 S
C1049 C1054 1.261 . S
C1050 H1017 0.930 . S
C1050 N1052 1.325 . S
C1050 C1053 1.357 . S
C1051 H1019 0.960 . S
C1051 C1049 1.403 1_556 S
C1051 N1052 1.234 1_556 S
N1052 Co1003 2.214 . S
N1052 C1050 1.325 . S
N1052 C1051 1.234 1_554 S
C1053 H1023 0.931 . S
C1053 C1050 1.357 . S
C1053 C1054 1.312 . S
C1054 H1025 0.930 . S
C1054 C1049 1.261 . S
C1054 C1053 1.312 . S
C1055 O1027 1.214 . S
C1055 O1035 1.234 . S
C1056 H1028 0.929 . S
C1056 C1059 1.391 . S
C1056 C1061 1.391 . S
C1057 H1029 0.929 . S
C1057 C1058 1.390 . S
C1057 N1060 1.391 . S
C1058 H1030 0.930 . S
C1058 C1057 1.390 . S
C1058 C1059 1.392 . S
C1059 H1031 0.929 . S
C1059 C1056 1.391 . S
C1059 C1058 1.392 . S
N1060 Co1004 2.257 . S
N1060 C1057 1.391 . S
N1060 C1061 1.388 . S
C1061 H1032 0.930 . S
C1061 C1056 1.391 . S
C1061 N1060 1.388 . S
Co1062 O1064 2.143 . S
Co1062 O1070 2.074 . S
Co1062 O1073 2.093 . S
Co1062 O1086 2.097 . S
Co1062 N1103 2.151 . S
Co1062 N1111 2.214 . S
Co1063 O1064 2.160 . S
Co1063 O1069 2.058 . S
Co1063 O1079 2.057 . S
Co1063 O1094 2.037 . S
Co1063 N1098 2.145 . S
Co1063 N1119 2.257 . S
O1064 Co1062 2.143 . S
O1064 Co1063 2.160 . S
C1065 O1066 1.278 . S
C1065 O1073 1.224 . S
O1066 C1065 1.278 . S
C1067 O1068 1.245 . S
C1067 O1079 1.232 . S
O1068 C1067 1.245 . S
O1069 Co1063 2.058 . S
O1069 C1095 1.269 . S
O1070 Co1062 2.074 . S
O1070 C1095 1.257 . S
H1071 C1096 0.930 . S
H1072 C1102 0.930 . S
O1073 Co1062 2.093 . S
O1073 C1065 1.224 . S
H1074 C1106 0.929 . S
H1075 C1108 0.930 . S
H1076 C1109 0.930 . S
H1077 C1107 0.929 . S
H1078 C1110 0.928 . S
O1079 Co1063 2.057 . S
O1079 C1067 1.232 . S
H1080 C1099 0.929 . S
H1081 C1100 0.929 . S
H1082 C1112 0.931 . S
H1083 C1104 0.929 . S
H1084 C1113 0.930 . S
H1085 C1105 0.931 . S
O1086 Co1062 2.097 . S
O1086 C1114 1.214 . S
H1087 C1115 0.929 . S
H1088 C1116 0.929 . S
H1089 C1117 0.930 . S
H1090 C1118 0.929 . S
H1091 C1120 0.930 . S
H1092 C1097 0.930 . S
H1093 C1101 0.930 . S
O1094 Co1063 2.037 . S
O1094 C1114 1.234 . S
C1095 O1069 1.269 . S
C1095 O1070 1.257 . S
C1096 H1071 0.930 . S
C1096 C1099 1.388 . S
C1096 C1101 1.418 . S
C1097 H1092 0.930 . S
C1097 C1100 1.404 . S
C1097 C1101 1.353 . S
N1098 Co1063 2.145 . S
N1098 C1099 1.397 . S
N1098 C1100 1.334 . S
C1099 H1080 0.929 . S
C1099 C1096 1.388 . S
C1099 N1098 1.397 . S
C1100 H1081 0.929 . S
C1100 C1097 1.404 . S
C1100 N1098 1.334 . S
C1101 H1093 0.930 . S
C1101 C1096 1.418 . S
C1101 C1097 1.353 . S
C1102 H1072 0.930 . S
C1102 N1103 1.330 . S
C1102 C1104 1.446 . S
N1103 Co1062 2.151 . S
N1103 C1102 1.330 . S
N1103 C1107 1.418 . S
C1104 H1083 0.929 . S
C1104 C1102 1.446 . S
C1104 C1105 1.332 . S
C1105 H1085 0.931 . S
C1105 C1104 1.332 . S
C1105 C1106 1.267 . S
C1106 H1074 0.929 . S
C1106 C1105 1.267 . S
C1106 C1107 1.251 . S
C1107 H1077 0.929 . S
C1107 N1103 1.418 . S
C1107 C1106 1.251 . S
C1108 H1075 0.930 . S
C1108 C1110 1.406 . S
C1108 C1113 1.261 . S
C1109 H1076 0.930 . S
C1109 N1111 1.325 . S
C1109 C1112 1.357 . S
C1110 H1078 0.928 . S
C1110 C1108 1.406 . S
C1110 N1111 1.261 . S
N1111 Co1062 2.214 . S
N1111 C1109 1.325 . S
N1111 C1110 1.261 . S
C1112 H1082 0.931 . S
C1112 C1109 1.357 . S
C1112 C1113 1.312 . S
C1113 H1084 0.930 . S
C1113 C1108 1.261 . S
C1113 C1112 1.312 . S
C1114 O1086 1.214 . S
C1114 O1094 1.234 . S
C1115 H1087 0.929 . S
C1115 C1118 1.391 . S
C1115 C1120 1.391 . S
C1116 H1088 0.929 . S
C1116 C1117 1.390 . S
C1116 N1119 1.391 . S
C1117 H1089 0.930 . S
C1117 C1116 1.390 . S
C1117 C1118 1.392 . S
C1118 H1090 0.929 . S
C1118 C1115 1.391 . S
C1118 C1117 1.392 . S
N1119 Co1063 2.257 . S
N1119 C1116 1.391 . S
N1119 C1120 1.388 . S
C1120 H1091 0.930 . S
C1120 C1115 1.391 . S
C1120 N1119 1.388 . S
Co1121 O1123 2.143 . S
Co1121 O1129 2.074 . S
Co1121 O1132 2.093 . S
Co1121 O1145 2.097 . S
Co1121 N1162 2.151 . S
Co1121 N1170 2.214 . S
Co1122 O1123 2.160 . S
Co1122 O1128 2.058 . S
Co1122 O1138 2.057 . S
Co1122 O1153 2.037 . S
Co1122 N1157 2.145 . S
Co1122 N1178 2.257 . S
O1123 Co1121 2.143 . S
O1123 Co1122 2.160 . S
C1124 O1125 1.278 . S
C1124 O1132 1.224 . S
O1125 C1124 1.278 . S
C1126 O1127 1.245 . S
C1126 O1138 1.232 . S
O1127 C1126 1.245 . S
O1128 Co1122 2.058 . S
O1128 C1154 1.269 . S
O1129 Co1121 2.074 . S
O1129 C1154 1.257 . S
H1130 C1155 0.930 . S
H1131 C1161 0.930 . S
O1132 Co1121 2.093 . S
O1132 C1124 1.224 . S
H1133 C1165 0.929 . S
H1134 C1167 0.930 . S
H1135 C1168 0.930 . S
H1136 C1166 0.929 . S
H1137 C1169 0.928 . S
O1138 Co1122 2.057 . S
O1138 C1126 1.232 . S
H1139 C1158 0.929 . S
H1140 C1159 0.929 . S
H1141 C1171 0.931 . S
H1142 C1163 0.929 1_455 S
H1143 C1172 0.930 . S
H1144 C1164 0.931 . S
O1145 Co1121 2.097 . S
O1145 C1173 1.214 . S
H1146 C1174 0.929 . S
H1147 C1175 0.929 . S
H1148 C1176 0.930 . S
H1149 C1177 0.929 . S
H1150 C1179 0.930 . S
H1151 C1156 0.930 . S
H1152 C1160 0.930 . S
O1153 Co1122 2.037 . S
O1153 C1173 1.234 . S
C1154 O1128 1.269 . S
C1154 O1129 1.257 . S
C1155 H1130 0.930 . S
C1155 C1158 1.388 . S
C1155 C1160 1.418 . S
C1156 H1151 0.930 . S
C1156 C1159 1.404 . S
C1156 C1160 1.353 . S
N1157 Co1122 2.145 . S
N1157 C1158 1.397 . S
N1157 C1159 1.334 . S
C1158 H1139 0.929 . S
C1158 C1155 1.388 . S
C1158 N1157 1.397 . S
C1159 H1140 0.929 . S
C1159 C1156 1.404 . S
C1159 N1157 1.334 . S
C1160 H1152 0.930 . S
C1160 C1155 1.418 . S
C1160 C1156 1.353 . S
C1161 H1131 0.930 . S
C1161 N1162 1.330 . S
C1161 C1163 1.438 1_455 S
N1162 Co1121 2.151 . S
N1162 C1161 1.330 . S
N1162 C1166 1.418 1_455 S
C1163 H1142 0.929 1_655 S
C1163 C1161 1.438 1_655 S
C1163 C1164 1.340 . S
C1164 H1144 0.931 . S
C1164 C1163 1.340 . S
C1164 C1165 1.267 . S
C1165 H1133 0.929 . S
C1165 C1164 1.267 . S
C1165 C1166 1.251 . S
C1166 H1136 0.929 . S
C1166 N1162 1.418 1_655 S
C1166 C1165 1.251 . S
C1167 H1134 0.930 . S
C1167 C1169 1.406 . S
C1167 C1172 1.261 . S
C1168 H1135 0.930 . S
C1168 N1170 1.325 . S
C1168 C1171 1.357 . S
C1169 H1137 0.928 . S
C1169 C1167 1.406 . S
C1169 N1170 1.261 . S
N1170 Co1121 2.214 . S
N1170 C1168 1.325 . S
N1170 C1169 1.261 . S
C1171 H1141 0.931 . S
C1171 C1168 1.357 . S
C1171 C1172 1.312 . S
C1172 H1143 0.930 . S
C1172 C1167 1.261 . S
C1172 C1171 1.312 . S
C1173 O1145 1.214 . S
C1173 O1153 1.234 . S
C1174 H1146 0.929 . S
C1174 C1177 1.391 . S
C1174 C1179 1.391 . S
C1175 H1147 0.929 . S
C1175 C1176 1.390 . S
C1175 N1178 1.391 . S
C1176 H1148 0.930 . S
C1176 C1175 1.390 . S
C1176 C1177 1.392 . S
C1177 H1149 0.929 . S
C1177 C1174 1.391 . S
C1177 C1176 1.392 . S
N1178 Co1122 2.257 . S
N1178 C1175 1.391 . S
N1178 C1179 1.388 . S
C1179 H1150 0.930 . S
C1179 C1174 1.391 . S
C1179 N1178 1.388 . S
Co1180 O1182 2.143 . S
Co1180 O1188 2.074 . S
Co1180 O1191 2.093 . S
Co1180 O1204 2.097 . S
Co1180 N1221 2.151 . S
Co1180 N1229 2.214 . S
Co1181 O1182 2.160 . S
Co1181 O1187 2.058 . S
Co1181 O1197 2.057 . S
Co1181 O1212 2.037 . S
Co1181 N1216 2.145 . S
Co1181 N1237 2.257 . S
O1182 Co1180 2.143 . S
O1182 Co1181 2.160 . S
C1183 O1184 1.278 . S
C1183 O1191 1.224 . S
O1184 C1183 1.278 . S
C1185 O1186 1.245 . S
C1185 O1197 1.232 . S
O1186 C1185 1.245 . S
O1187 Co1181 2.058 . S
O1187 C1213 1.269 . S
O1188 Co1180 2.074 . S
O1188 C1213 1.257 . S
H1189 C1214 0.930 . S
H1190 C1220 0.930 . S
O1191 Co1180 2.093 . S
O1191 C1183 1.224 . S
H1192 C1224 0.929 . S
H1193 C1226 0.930 . S
H1194 C1227 0.930 . S
H1195 C1225 0.929 . S
H1196 C1228 0.928 . S
O1197 Co1181 2.057 . S
O1197 C1185 1.232 . S
H1198 C1217 0.929 . S
H1199 C1218 0.929 . S
H1200 C1230 0.931 . S
H1201 C1222 0.929 . S
H1202 C1231 0.930 . S
H1203 C1223 0.931 . S
O1204 Co1180 2.097 . S
O1204 C1232 1.214 . S
H1205 C1233 0.929 . S
H1206 C1234 0.929 . S
H1207 C1235 0.930 . S
H1208 C1236 0.929 . S
H1209 C1238 0.930 . S
H1210 C1215 0.930 . S
H1211 C1219 0.930 . S
O1212 Co1181 2.037 . S
O1212 C1232 1.234 . S
C1213 O1187 1.269 . S
C1213 O1188 1.257 . S
C1214 H1189 0.930 . S
C1214 C1217 1.388 . S
C1214 C1219 1.418 . S
C1215 H1210 0.930 . S
C1215 C1218 1.404 . S
C1215 C1219 1.353 . S
N1216 Co1181 2.145 . S
N1216 C1217 1.397 . S
N1216 C1218 1.334 . S
C1217 H1198 0.929 . S
C1217 C1214 1.388 . S
C1217 N1216 1.397 . S
C1218 H1199 0.929 . S
C1218 C1215 1.404 . S
C1218 N1216 1.334 . S
C1219 H1211 0.930 . S
C1219 C1214 1.418 . S
C1219 C1215 1.353 . S
C1220 H1190 0.930 . S
C1220 N1221 1.330 . S
C1220 C1222 1.446 . S
N1221 Co1180 2.151 . S
N1221 C1220 1.330 . S
N1221 C1225 1.418 . S
C1222 H1201 0.929 . S
C1222 C1220 1.446 . S
C1222 C1223 1.332 . S
C1223 H1203 0.931 . S
C1223 C1222 1.332 . S
C1223 C1224 1.267 . S
C1224 H1192 0.929 . S
C1224 C1223 1.267 . S
C1224 C1225 1.251 . S
C1225 H1195 0.929 . S
C1225 N1221 1.418 . S
C1225 C1224 1.251 . S
C1226 H1193 0.930 . S
C1226 C1228 1.406 . S
C1226 C1231 1.261 . S
C1227 H1194 0.930 . S
C1227 N1229 1.325 . S
C1227 C1230 1.357 . S
C1228 H1196 0.928 . S
C1228 C1226 1.406 . S
C1228 N1229 1.261 . S
N1229 Co1180 2.214 . S
N1229 C1227 1.325 . S
N1229 C1228 1.261 . S
C1230 H1200 0.931 . S
C1230 C1227 1.357 . S
C1230 C1231 1.312 . S
C1231 H1202 0.930 . S
C1231 C1226 1.261 . S
C1231 C1230 1.312 . S
C1232 O1204 1.214 . S
C1232 O1212 1.234 . S
C1233 H1205 0.929 . S
C1233 C1236 1.391 . S
C1233 C1238 1.391 . S
C1234 H1206 0.929 . S
C1234 C1235 1.390 . S
C1234 N1237 1.391 . S
C1235 H1207 0.930 . S
C1235 C1234 1.390 . S
C1235 C1236 1.392 . S
C1236 H1208 0.929 . S
C1236 C1233 1.391 . S
C1236 C1235 1.392 . S
N1237 Co1181 2.257 . S
N1237 C1234 1.391 . S
N1237 C1238 1.388 . S
C1238 H1209 0.930 . S
C1238 C1233 1.391 . S
C1238 N1237 1.388 . S
Co1239 O1241 2.143 . S
Co1239 O1247 2.074 . S
Co1239 O1250 2.093 1_556 S
Co1239 O1263 2.097 . S
Co1239 N1280 2.151 1_556 S
Co1239 N1288 2.214 . S
Co1240 O1241 2.160 . S
Co1240 O1246 2.058 . S
Co1240 O1256 2.057 . S
Co1240 O1271 2.037 . S
Co1240 N1275 2.145 . S
Co1240 N1296 2.257 . S
O1241 Co1239 2.143 . S
O1241 Co1240 2.160 . S
C1242 O1243 1.278 . S
C1242 O1250 1.224 . S
O1243 C1242 1.278 . S
C1244 O1245 1.245 . S
C1244 O1256 1.232 . S
O1245 C1244 1.245 . S
O1246 Co1240 2.058 . S
O1246 C1272 1.269 . S
O1247 Co1239 2.074 . S
O1247 C1272 1.257 . S
H1248 C1273 0.930 . S
H1249 C1279 0.930 . S
O1250 Co1239 2.093 1_554 S
O1250 C1242 1.224 . S
H1251 C1283 0.929 . S
H1252 C1285 0.930 1_554 S
H1253 C1286 0.930 . S
H1254 C1284 0.929 1_556 S
H1255 C1287 0.960 . S
O1256 Co1240 2.057 . S
O1256 C1244 1.232 . S
H1257 C1276 0.929 . S
H1258 C1277 0.929 . S
H1259 C1289 0.931 . S
H1260 C1281 0.929 1_455 S
H1261 C1290 0.930 . S
H1262 C1282 0.931 . S
O1263 Co1239 2.097 . S
O1263 C1291 1.214 . S
H1264 C1292 0.929 . S
H1265 C1293 0.929 . S
H1266 C1294 0.930 . S
H1267 C1295 0.929 . S
H1268 C1297 0.930 . S
H1269 C1274 0.930 . S
H1270 C1278 0.930 . S
O1271 Co1240 2.037 . S
O1271 C1291 1.234 . S
C1272 O1246 1.269 . S
C1272 O1247 1.257 . S
C1273 H1248 0.930 . S
C1273 C1276 1.388 . S
C1273 C1278 1.418 . S
C1274 H1269 0.930 . S
C1274 C1277 1.404 . S
C1274 C1278 1.353 . S
N1275 Co1240 2.145 . S
N1275 C1276 1.397 . S
N1275 C1277 1.334 . S
C1276 H1257 0.929 . S
C1276 C1273 1.388 . S
C1276 N1275 1.397 . S
C1277 H1258 0.929 . S
C1277 C1274 1.404 . S
C1277 N1275 1.334 . S
C1278 H1270 0.930 . S
C1278 C1273 1.418 . S
C1278 C1274 1.353 . S
C1279 H1249 0.930 . S
C1279 N1280 1.330 . S
C1279 C1281 1.438 1_455 S
N1280 Co1239 2.151 1_554 S
N1280 C1279 1.330 . S
N1280 C1284 1.418 1_455 S
C1281 H1260 0.929 1_655 S
C1281 C1279 1.438 1_655 S
C1281 C1282 1.340 . S
C1282 H1262 0.931 . S
C1282 C1281 1.340 . S
C1282 C1283 1.267 . S
C1283 H1251 0.929 . S
C1283 C1282 1.267 . S
C1283 C1284 1.251 . S
C1284 H1254 0.929 1_554 S
C1284 N1280 1.418 1_655 S
C1284 C1283 1.251 . S
C1285 H1252 0.930 1_556 S
C1285 C1287 1.403 1_556 S
C1285 C1290 1.261 . S
C1286 H1253 0.930 . S
C1286 N1288 1.325 . S
C1286 C1289 1.357 . S
C1287 H1255 0.960 . S
C1287 C1285 1.403 1_554 S
C1287 N1288 1.234 1_554 S
N1288 Co1239 2.214 . S
N1288 C1286 1.325 . S
N1288 C1287 1.234 1_556 S
C1289 H1259 0.931 . S
C1289 C1286 1.357 . S
C1289 C1290 1.312 . S
C1290 H1261 0.930 . S
C1290 C1285 1.261 . S
C1290 C1289 1.312 . S
C1291 O1263 1.214 . S
C1291 O1271 1.234 . S
C1292 H1264 0.929 . S
C1292 C1295 1.391 . S
C1292 C1297 1.391 . S
C1293 H1265 0.929 . S
C1293 C1294 1.390 . S
C1293 N1296 1.391 . S
C1294 H1266 0.930 . S
C1294 C1293 1.390 . S
C1294 C1295 1.392 . S
C1295 H1267 0.929 . S
C1295 C1292 1.391 . S
C1295 C1294 1.392 . S
N1296 Co1240 2.257 . S
N1296 C1293 1.391 . S
N1296 C1297 1.388 . S
C1297 H1268 0.930 . S
C1297 C1292 1.391 . S
C1297 N1296 1.388 . S
Co1298 O1300 2.143 . S
Co1298 O1306 2.074 . S
Co1298 O1309 2.093 . S
Co1298 O1322 2.097 . S
Co1298 N1339 2.151 . S
Co1298 N1347 2.214 . S
Co1299 O1300 2.160 . S
Co1299 O1305 2.058 . S
Co1299 O1315 2.057 . S
Co1299 O1330 2.037 . S
Co1299 N1334 2.145 . S
Co1299 N1355 2.257 . S
O1300 Co1298 2.143 . S
O1300 Co1299 2.160 . S
C1301 O1302 1.278 . S
C1301 O1309 1.224 . S
O1302 C1301 1.278 . S
C1303 O1304 1.245 . S
C1303 O1315 1.232 . S
O1304 C1303 1.245 . S
O1305 Co1299 2.058 . S
O1305 C1331 1.269 . S
O1306 Co1298 2.074 . S
O1306 C1331 1.257 . S
H1307 C1332 0.930 . S
H1308 C1338 0.930 . S
O1309 Co1298 2.093 . S
O1309 C1301 1.224 . S
H1310 C1342 0.929 . S
H1311 C1344 0.930 . S
H1312 C1345 0.930 . S
H1313 C1343 0.929 . S
H1314 C1346 0.928 . S
O1315 Co1299 2.057 . S
O1315 C1303 1.232 . S
H1316 C1335 0.929 . S
H1317 C1336 0.929 . S
H1318 C1348 0.931 . S
H1319 C1340 0.929 . S
H1320 C1349 0.930 . S
H1321 C1341 0.931 . S
O1322 Co1298 2.097 . S
O1322 C1350 1.214 . S
H1323 C1351 0.929 . S
H1324 C1352 0.929 . S
H1325 C1353 0.930 . S
H1326 C1354 0.929 . S
H1327 C1356 0.930 . S
H1328 C1333 0.930 . S
H1329 C1337 0.930 . S
O1330 Co1299 2.037 . S
O1330 C1350 1.234 . S
C1331 O1305 1.269 . S
C1331 O1306 1.257 . S
C1332 H1307 0.930 . S
C1332 C1335 1.388 . S
C1332 C1337 1.418 . S
C1333 H1328 0.930 . S
C1333 C1336 1.404 . S
C1333 C1337 1.353 . S
N1334 Co1299 2.145 . S
N1334 C1335 1.397 . S
N1334 C1336 1.334 . S
C1335 H1316 0.929 . S
C1335 C1332 1.388 . S
C1335 N1334 1.397 . S
C1336 H1317 0.929 . S
C1336 C1333 1.404 . S
C1336 N1334 1.334 . S
C1337 H1329 0.930 . S
C1337 C1332 1.418 . S
C1337 C1333 1.353 . S
C1338 H1308 0.930 . S
C1338 N1339 1.330 . S
C1338 C1340 1.446 . S
N1339 Co1298 2.151 . S
N1339 C1338 1.330 . S
N1339 C1343 1.418 . S
C1340 H1319 0.929 . S
C1340 C1338 1.446 . S
C1340 C1341 1.332 . S
C1341 H1321 0.931 . S
C1341 C1340 1.332 . S
C1341 C1342 1.267 . S
C1342 H1310 0.929 . S
C1342 C1341 1.267 . S
C1342 C1343 1.251 . S
C1343 H1313 0.929 . S
C1343 N1339 1.418 . S
C1343 C1342 1.251 . S
C1344 H1311 0.930 . S
C1344 C1346 1.406 . S
C1344 C1349 1.261 . S
C1345 H1312 0.930 . S
C1345 N1347 1.325 . S
C1345 C1348 1.357 . S
C1346 H1314 0.928 . S
C1346 C1344 1.406 . S
C1346 N1347 1.261 . S
N1347 Co1298 2.214 . S
N1347 C1345 1.325 . S
N1347 C1346 1.261 . S
C1348 H1318 0.931 . S
C1348 C1345 1.357 . S
C1348 C1349 1.312 . S
C1349 H1320 0.930 . S
C1349 C1344 1.261 . S
C1349 C1348 1.312 . S
C1350 O1322 1.214 . S
C1350 O1330 1.234 . S
C1351 H1323 0.929 . S
C1351 C1354 1.391 . S
C1351 C1356 1.391 . S
C1352 H1324 0.929 . S
C1352 C1353 1.390 . S
C1352 N1355 1.391 . S
C1353 H1325 0.930 . S
C1353 C1352 1.390 . S
C1353 C1354 1.392 . S
C1354 H1326 0.929 . S
C1354 C1351 1.391 . S
C1354 C1353 1.392 . S
N1355 Co1299 2.257 . S
N1355 C1352 1.391 . S
N1355 C1356 1.388 . S
C1356 H1327 0.930 . S
C1356 C1351 1.391 . S
C1356 N1355 1.388 . S
Co1357 O1359 2.143 . S
Co1357 O1365 2.074 . S
Co1357 O1368 2.093 . S
Co1357 O1381 2.097 . S
Co1357 N1398 2.151 . S
Co1357 N1406 2.214 . S
Co1358 O1359 2.160 . S
Co1358 O1364 2.058 . S
Co1358 O1374 2.057 . S
Co1358 O1389 2.037 . S
Co1358 N1393 2.145 . S
Co1358 N1414 2.257 . S
O1359 Co1357 2.143 . S
O1359 Co1358 2.160 . S
C1360 O1361 1.278 . S
C1360 O1368 1.224 . S
O1361 C1360 1.278 . S
C1362 O1363 1.245 . S
C1362 O1374 1.232 . S
O1363 C1362 1.245 . S
O1364 Co1358 2.058 . S
O1364 C1390 1.269 . S
O1365 Co1357 2.074 . S
O1365 C1390 1.257 . S
H1366 C1391 0.930 . S
H1367 C1397 0.930 . S
O1368 Co1357 2.093 . S
O1368 C1360 1.224 . S
H1369 C1401 0.929 . S
H1370 C1403 0.930 . S
H1371 C1404 0.930 . S
H1372 C1402 0.929 . S
H1373 C1405 0.928 . S
O1374 Co1358 2.057 . S
O1374 C1362 1.232 . S
H1375 C1394 0.929 . S
H1376 C1395 0.929 . S
H1377 C1407 0.931 . S
H1378 C1399 0.929 . S
H1379 C1408 0.930 . S
H1380 C1400 0.931 . S
O1381 Co1357 2.097 . S
O1381 C1409 1.214 . S
H1382 C1410 0.929 . S
H1383 C1411 0.929 . S
H1384 C1412 0.930 . S
H1385 C1413 0.929 . S
H1386 C1415 0.930 . S
H1387 C1392 0.930 . S
H1388 C1396 0.930 . S
O1389 Co1358 2.037 . S
O1389 C1409 1.234 . S
C1390 O1364 1.269 . S
C1390 O1365 1.257 . S
C1391 H1366 0.930 . S
C1391 C1394 1.388 . S
C1391 C1396 1.418 . S
C1392 H1387 0.930 . S
C1392 C1395 1.404 . S
C1392 C1396 1.353 . S
N1393 Co1358 2.145 . S
N1393 C1394 1.397 . S
N1393 C1395 1.334 . S
C1394 H1375 0.929 . S
C1394 C1391 1.388 . S
C1394 N1393 1.397 . S
C1395 H1376 0.929 . S
C1395 C1392 1.404 . S
C1395 N1393 1.334 . S
C1396 H1388 0.930 . S
C1396 C1391 1.418 . S
C1396 C1392 1.353 . S
C1397 H1367 0.930 . S
C1397 N1398 1.330 . S
C1397 C1399 1.446 . S
N1398 Co1357 2.151 . S
N1398 C1397 1.330 . S
N1398 C1402 1.418 . S
C1399 H1378 0.929 . S
C1399 C1397 1.446 . S
C1399 C1400 1.332 . S
C1400 H1380 0.931 . S
C1400 C1399 1.332 . S
C1400 C1401 1.267 . S
C1401 H1369 0.929 . S
C1401 C1400 1.267 . S
C1401 C1402 1.251 . S
C1402 H1372 0.929 . S
C1402 N1398 1.418 . S
C1402 C1401 1.251 . S
C1403 H1370 0.930 . S
C1403 C1405 1.406 . S
C1403 C1408 1.261 . S
C1404 H1371 0.930 . S
C1404 N1406 1.325 . S
C1404 C1407 1.357 . S
C1405 H1373 0.928 . S
C1405 C1403 1.406 . S
C1405 N1406 1.261 . S
N1406 Co1357 2.214 . S
N1406 C1404 1.325 . S
N1406 C1405 1.261 . S
C1407 H1377 0.931 . S
C1407 C1404 1.357 . S
C1407 C1408 1.312 . S
C1408 H1379 0.930 . S
C1408 C1403 1.261 . S
C1408 C1407 1.312 . S
C1409 O1381 1.214 . S
C1409 O1389 1.234 . S
C1410 H1382 0.929 . S
C1410 C1413 1.391 . S
C1410 C1415 1.391 . S
C1411 H1383 0.929 . S
C1411 C1412 1.390 . S
C1411 N1414 1.391 . S
C1412 H1384 0.930 . S
C1412 C1411 1.390 . S
C1412 C1413 1.392 . S
C1413 H1385 0.929 . S
C1413 C1410 1.391 . S
C1413 C1412 1.392 . S
N1414 Co1358 2.257 . S
N1414 C1411 1.391 . S
N1414 C1415 1.388 . S
C1415 H1386 0.930 . S
C1415 C1410 1.391 . S
C1415 N1414 1.388 . S
Co1416 O1418 2.143 . S
Co1416 O1424 2.074 . S
Co1416 O1427 2.093 . S
Co1416 O1440 2.097 . S
Co1416 N1457 2.151 . S
Co1416 N1465 2.214 . S
Co1417 O1418 2.160 . S
Co1417 O1423 2.058 . S
Co1417 O1433 2.057 . S
Co1417 O1448 2.037 . S
Co1417 N1452 2.145 . S
Co1417 N1473 2.257 . S
O1418 Co1416 2.143 . S
O1418 Co1417 2.160 . S
C1419 O1420 1.278 . S
C1419 O1427 1.224 . S
O1420 C1419 1.278 . S
C1421 O1422 1.245 . S
C1421 O1433 1.232 . S
O1422 C1421 1.245 . S
O1423 Co1417 2.058 . S
O1423 C1449 1.269 . S
O1424 Co1416 2.074 . S
O1424 C1449 1.257 . S
H1425 C1450 0.930 . S
H1426 C1456 0.930 . S
O1427 Co1416 2.093 . S
O1427 C1419 1.224 . S
H1428 C1460 0.929 . S
H1429 C1462 0.930 . S
H1430 C1463 0.930 . S
H1431 C1461 0.929 . S
H1432 C1464 0.928 . S
O1433 Co1417 2.057 . S
O1433 C1421 1.232 . S
H1434 C1453 0.929 . S
H1435 C1454 0.929 . S
H1436 C1466 0.931 . S
H1437 C1458 0.929 . S
H1438 C1467 0.930 . S
H1439 C1459 0.931 . S
O1440 Co1416 2.097 . S
O1440 C1468 1.214 . S
H1441 C1469 0.929 . S
H1442 C1470 0.929 . S
H1443 C1471 0.930 . S
H1444 C1472 0.929 . S
H1445 C1474 0.930 . S
H1446 C1451 0.930 . S
H1447 C1455 0.930 . S
O1448 Co1417 2.037 . S
O1448 C1468 1.234 . S
C1449 O1423 1.269 . S
C1449 O1424 1.257 . S
C1450 H1425 0.930 . S
C1450 C1453 1.388 . S
C1450 C1455 1.418 . S
C1451 H1446 0.930 . S
C1451 C1454 1.404 . S
C1451 C1455 1.353 . S
N1452 Co1417 2.145 . S
N1452 C1453 1.397 . S
N1452 C1454 1.334 . S
C1453 H1434 0.929 . S
C1453 C1450 1.388 . S
C1453 N1452 1.397 . S
C1454 H1435 0.929 . S
C1454 C1451 1.404 . S
C1454 N1452 1.334 . S
C1455 H1447 0.930 . S
C1455 C1450 1.418 . S
C1455 C1451 1.353 . S
C1456 H1426 0.930 . S
C1456 N1457 1.330 . S
C1456 C1458 1.446 . S
N1457 Co1416 2.151 . S
N1457 C1456 1.330 . S
N1457 C1461 1.418 . S
C1458 H1437 0.929 . S
C1458 C1456 1.446 . S
C1458 C1459 1.332 . S
C1459 H1439 0.931 . S
C1459 C1458 1.332 . S
C1459 C1460 1.267 . S
C1460 H1428 0.929 . S
C1460 C1459 1.267 . S
C1460 C1461 1.251 . S
C1461 H1431 0.929 . S
C1461 N1457 1.418 . S
C1461 C1460 1.251 . S
C1462 H1429 0.930 . S
C1462 C1464 1.406 . S
C1462 C1467 1.261 . S
C1463 H1430 0.930 . S
C1463 N1465 1.325 . S
C1463 C1466 1.357 . S
C1464 H1432 0.928 . S
C1464 C1462 1.406 . S
C1464 N1465 1.261 . S
N1465 Co1416 2.214 . S
N1465 C1463 1.325 . S
N1465 C1464 1.261 . S
C1466 H1436 0.931 . S
C1466 C1463 1.357 . S
C1466 C1467 1.312 . S
C1467 H1438 0.930 . S
C1467 C1462 1.261 . S
C1467 C1466 1.312 . S
C1468 O1440 1.214 . S
C1468 O1448 1.234 . S
C1469 H1441 0.929 . S
C1469 C1472 1.391 . S
C1469 C1474 1.391 . S
C1470 H1442 0.929 . S
C1470 C1471 1.390 . S
C1470 N1473 1.391 . S
C1471 H1443 0.930 . S
C1471 C1470 1.390 . S
C1471 C1472 1.392 . S
C1472 H1444 0.929 . S
C1472 C1469 1.391 . S
C1472 C1471 1.392 . S
N1473 Co1417 2.257 . S
N1473 C1470 1.391 . S
N1473 C1474 1.388 . S
C1474 H1445 0.930 . S
C1474 C1469 1.391 . S
C1474 N1473 1.388 . S
Co1475 O1477 2.143 . S
Co1475 O1483 2.074 . S
Co1475 O1486 2.093 1_556 S
Co1475 O1499 2.097 . S
Co1475 N1516 2.151 1_556 S
Co1475 N1524 2.214 . S
Co1476 O1477 2.160 . S
Co1476 O1482 2.058 . S
Co1476 O1492 2.057 . S
Co1476 O1507 2.037 . S
Co1476 N1511 2.145 . S
Co1476 N1532 2.257 . S
O1477 Co1475 2.143 . S
O1477 Co1476 2.160 . S
C1478 O1479 1.278 . S
C1478 O1486 1.224 . S
O1479 C1478 1.278 . S
C1480 O1481 1.245 . S
C1480 O1492 1.232 . S
O1481 C1480 1.245 . S
O1482 Co1476 2.058 . S
O1482 C1508 1.269 . S
O1483 Co1475 2.074 . S
O1483 C1508 1.257 . S
H1484 C1509 0.930 . S
H1485 C1515 0.930 . S
O1486 Co1475 2.093 1_554 S
O1486 C1478 1.224 . S
H1487 C1519 0.929 . S
H1488 C1521 0.930 1_554 S
H1489 C1522 0.930 . S
H1490 C1520 0.929 1_556 S
H1491 C1523 0.960 . S
O1492 Co1476 2.057 . S
O1492 C1480 1.232 . S
H1493 C1512 0.929 . S
H1494 C1513 0.929 . S
H1495 C1525 0.931 . S
H1496 C1517 0.929 . S
H1497 C1526 0.930 . S
H1498 C1518 0.931 . S
O1499 Co1475 2.097 . S
O1499 C1527 1.214 . S
H1500 C1528 0.929 . S
H1501 C1529 0.929 . S
H1502 C1530 0.930 . S
H1503 C1531 0.929 . S
H1504 C1533 0.930 . S
H1505 C1510 0.930 . S
H1506 C1514 0.930 . S
O1507 Co1476 2.037 . S
O1507 C1527 1.234 . S
C1508 O1482 1.269 . S
C1508 O1483 1.257 . S
C1509 H1484 0.930 . S
C1509 C1512 1.388 . S
C1509 C1514 1.418 . S
C1510 H1505 0.930 . S
C1510 C1513 1.404 . S
C1510 C1514 1.353 . S
N1511 Co1476 2.145 . S
N1511 C1512 1.397 . S
N1511 C1513 1.334 . S
C1512 H1493 0.929 . S
C1512 C1509 1.388 . S
C1512 N1511 1.397 . S
C1513 H1494 0.929 . S
C1513 C1510 1.404 . S
C1513 N1511 1.334 . S
C1514 H1506 0.930 . S
C1514 C1509 1.418 . S
C1514 C1510 1.353 . S
C1515 H1485 0.930 . S
C1515 N1516 1.330 . S
C1515 C1517 1.446 . S
N1516 Co1475 2.151 1_554 S
N1516 C1515 1.330 . S
N1516 C1520 1.418 . S
C1517 H1496 0.929 . S
C1517 C1515 1.446 . S
C1517 C1518 1.332 . S
C1518 H1498 0.931 . S
C1518 C1517 1.332 . S
C1518 C1519 1.267 . S
C1519 H1487 0.929 . S
C1519 C1518 1.267 . S
C1519 C1520 1.251 . S
C1520 H1490 0.929 1_554 S
C1520 N1516 1.418 . S
C1520 C1519 1.251 . S
C1521 H1488 0.930 1_556 S
C1521 C1523 1.403 1_556 S
C1521 C1526 1.261 . S
C1522 H1489 0.930 . S
C1522 N1524 1.325 . S
C1522 C1525 1.357 . S
C1523 H1491 0.960 . S
C1523 C1521 1.403 1_554 S
C1523 N1524 1.234 1_554 S
N1524 Co1475 2.214 . S
N1524 C1522 1.325 . S
N1524 C1523 1.234 1_556 S
C1525 H1495 0.931 . S
C1525 C1522 1.357 . S
C1525 C1526 1.312 . S
C1526 H1497 0.930 . S
C1526 C1521 1.261 . S
C1526 C1525 1.312 . S
C1527 O1499 1.214 . S
C1527 O1507 1.234 . S
C1528 H1500 0.929 . S
C1528 C1531 1.391 . S
C1528 C1533 1.391 . S
C1529 H1501 0.929 . S
C1529 C1530 1.390 . S
C1529 N1532 1.391 . S
C1530 H1502 0.930 . S
C1530 C1529 1.390 . S
C1530 C1531 1.392 . S
C1531 H1503 0.929 . S
C1531 C1528 1.391 . S
C1531 C1530 1.392 . S
N1532 Co1476 2.257 . S
N1532 C1529 1.391 . S
N1532 C1533 1.388 . S
C1533 H1504 0.930 . S
C1533 C1528 1.391 . S
C1533 N1532 1.388 . S
Co1534 O1536 2.143 . S
Co1534 O1542 2.074 . S
Co1534 O1545 2.093 . S
Co1534 O1558 2.097 . S
Co1534 N1575 2.151 . S
Co1534 N1583 2.214 . S
Co1535 O1536 2.160 . S
Co1535 O1541 2.058 . S
Co1535 O1551 2.057 . S
Co1535 O1566 2.037 . S
Co1535 N1570 2.145 . S
Co1535 N1591 2.257 . S
O1536 Co1534 2.143 . S
O1536 Co1535 2.160 . S
C1537 O1538 1.278 . S
C1537 O1545 1.224 . S
O1538 C1537 1.278 . S
C1539 O1540 1.245 . S
C1539 O1551 1.232 . S
O1540 C1539 1.245 . S
O1541 Co1535 2.058 . S
O1541 C1567 1.269 . S
O1542 Co1534 2.074 . S
O1542 C1567 1.257 . S
H1543 C1568 0.930 . S
H1544 C1574 0.930 . S
O1545 Co1534 2.093 . S
O1545 C1537 1.224 . S
H1546 C1578 0.929 . S
H1547 C1580 0.930 . S
H1548 C1581 0.930 . S
H1549 C1579 0.929 . S
H1550 C1582 0.928 . S
O1551 Co1535 2.057 . S
O1551 C1539 1.232 . S
H1552 C1571 0.929 . S
H1553 C1572 0.929 . S
H1554 C1584 0.931 . S
H1555 C1576 0.929 . S
H1556 C1585 0.930 . S
H1557 C1577 0.931 . S
O1558 Co1534 2.097 . S
O1558 C1586 1.214 . S
H1559 C1587 0.929 . S
H1560 C1588 0.929 . S
H1561 C1589 0.930 . S
H1562 C1590 0.929 . S
H1563 C1592 0.930 . S
H1564 C1569 0.930 . S
H1565 C1573 0.930 . S
O1566 Co1535 2.037 . S
O1566 C1586 1.234 . S
C1567 O1541 1.269 . S
C1567 O1542 1.257 . S
C1568 H1543 0.930 . S
C1568 C1571 1.388 . S
C1568 C1573 1.418 . S
C1569 H1564 0.930 . S
C1569 C1572 1.404 . S
C1569 C1573 1.353 . S
N1570 Co1535 2.145 . S
N1570 C1571 1.397 . S
N1570 C1572 1.334 . S
C1571 H1552 0.929 . S
C1571 C1568 1.388 . S
C1571 N1570 1.397 . S
C1572 H1553 0.929 . S
C1572 C1569 1.404 . S
C1572 N1570 1.334 . S
C1573 H1565 0.930 . S
C1573 C1568 1.418 . S
C1573 C1569 1.353 . S
C1574 H1544 0.930 . S
C1574 N1575 1.330 . S
C1574 C1576 1.446 . S
N1575 Co1534 2.151 . S
N1575 C1574 1.330 . S
N1575 C1579 1.418 . S
C1576 H1555 0.929 . S
C1576 C1574 1.446 . S
C1576 C1577 1.332 . S
C1577 H1557 0.931 . S
C1577 C1576 1.332 . S
C1577 C1578 1.267 . S
C1578 H1546 0.929 . S
C1578 C1577 1.267 . S
C1578 C1579 1.251 . S
C1579 H1549 0.929 . S
C1579 N1575 1.418 . S
C1579 C1578 1.251 . S
C1580 H1547 0.930 . S
C1580 C1582 1.406 . S
C1580 C1585 1.261 . S
C1581 H1548 0.930 . S
C1581 N1583 1.325 . S
C1581 C1584 1.357 . S
C1582 H1550 0.928 . S
C1582 C1580 1.406 . S
C1582 N1583 1.261 . S
N1583 Co1534 2.214 . S
N1583 C1581 1.325 . S
N1583 C1582 1.261 . S
C1584 H1554 0.931 . S
C1584 C1581 1.357 . S
C1584 C1585 1.312 . S
C1585 H1556 0.930 . S
C1585 C1580 1.261 . S
C1585 C1584 1.312 . S
C1586 O1558 1.214 . S
C1586 O1566 1.234 . S
C1587 H1559 0.929 . S
C1587 C1590 1.391 . S
C1587 C1592 1.391 . S
C1588 H1560 0.929 . S
C1588 C1589 1.390 . S
C1588 N1591 1.391 . S
C1589 H1561 0.930 . S
C1589 C1588 1.390 . S
C1589 C1590 1.392 . S
C1590 H1562 0.929 . S
C1590 C1587 1.391 . S
C1590 C1589 1.392 . S
N1591 Co1535 2.257 . S
N1591 C1588 1.391 . S
N1591 C1592 1.388 . S
C1592 H1563 0.930 . S
C1592 C1587 1.391 . S
C1592 N1591 1.388 . S
Co1593 O1595 2.143 . S
Co1593 O1601 2.074 . S
Co1593 O1604 2.093 . S
Co1593 O1617 2.097 . S
Co1593 N1634 2.151 . S
Co1593 N1642 2.214 . S
Co1594 O1595 2.160 . S
Co1594 O1600 2.058 . S
Co1594 O1610 2.057 . S
Co1594 O1625 2.037 . S
Co1594 N1629 2.145 . S
Co1594 N1650 2.257 . S
O1595 Co1593 2.143 . S
O1595 Co1594 2.160 . S
C1596 O1597 1.278 . S
C1596 O1604 1.224 . S
O1597 C1596 1.278 . S
C1598 O1599 1.245 . S
C1598 O1610 1.232 . S
O1599 C1598 1.245 . S
O1600 Co1594 2.058 . S
O1600 C1626 1.269 . S
O1601 Co1593 2.074 . S
O1601 C1626 1.257 . S
H1602 C1627 0.930 . S
H1603 C1633 0.930 . S
O1604 Co1593 2.093 . S
O1604 C1596 1.224 . S
H1605 C1637 0.929 . S
H1606 C1639 0.930 . S
H1607 C1640 0.930 . S
H1608 C1638 0.929 . S
H1609 C1641 0.928 . S
O1610 Co1594 2.057 . S
O1610 C1598 1.232 . S
H1611 C1630 0.929 . S
H1612 C1631 0.929 . S
H1613 C1643 0.931 . S
H1614 C1635 0.929 1_655 S
H1615 C1644 0.930 . S
H1616 C1636 0.931 . S
O1617 Co1593 2.097 . S
O1617 C1645 1.214 . S
H1618 C1646 0.929 . S
H1619 C1647 0.929 . S
H1620 C1648 0.930 . S
H1621 C1649 0.929 . S
H1622 C1651 0.930 . S
H1623 C1628 0.930 . S
H1624 C1632 0.930 . S
O1625 Co1594 2.037 . S
O1625 C1645 1.234 . S
C1626 O1600 1.269 . S
C1626 O1601 1.257 . S
C1627 H1602 0.930 . S
C1627 C1630 1.388 . S
C1627 C1632 1.418 . S
C1628 H1623 0.930 . S
C1628 C1631 1.404 . S
C1628 C1632 1.353 . S
N1629 Co1594 2.145 . S
N1629 C1630 1.397 . S
N1629 C1631 1.334 . S
C1630 H1611 0.929 . S
C1630 C1627 1.388 . S
C1630 N1629 1.397 . S
C1631 H1612 0.929 . S
C1631 C1628 1.404 . S
C1631 N1629 1.334 . S
C1632 H1624 0.930 . S
C1632 C1627 1.418 . S
C1632 C1628 1.353 . S
C1633 H1603 0.930 . S
C1633 N1634 1.330 . S
C1633 C1635 1.438 1_655 S
N1634 Co1593 2.151 . S
N1634 C1633 1.330 . S
N1634 C1638 1.418 1_655 S
C1635 H1614 0.929 1_455 S
C1635 C1633 1.438 1_455 S
C1635 C1636 1.340 . S
C1636 H1616 0.931 . S
C1636 C1635 1.340 . S
C1636 C1637 1.267 . S
C1637 H1605 0.929 . S
C1637 C1636 1.267 . S
C1637 C1638 1.251 . S
C1638 H1608 0.929 . S
C1638 N1634 1.418 1_455 S
C1638 C1637 1.251 . S
C1639 H1606 0.930 . S
C1639 C1641 1.406 . S
C1639 C1644 1.261 . S
C1640 H1607 0.930 . S
C1640 N1642 1.325 . S
C1640 C1643 1.357 . S
C1641 H1609 0.928 . S
C1641 C1639 1.406 . S
C1641 N1642 1.261 . S
N1642 Co1593 2.214 . S
N1642 C1640 1.325 . S
N1642 C1641 1.261 . S
C1643 H1613 0.931 . S
C1643 C1640 1.357 . S
C1643 C1644 1.312 . S
C1644 H1615 0.930 . S
C1644 C1639 1.261 . S
C1644 C1643 1.312 . S
C1645 O1617 1.214 . S
C1645 O1625 1.234 . S
C1646 H1618 0.929 . S
C1646 C1649 1.391 . S
C1646 C1651 1.391 . S
C1647 H1619 0.929 . S
C1647 C1648 1.390 . S
C1647 N1650 1.391 . S
C1648 H1620 0.930 . S
C1648 C1647 1.390 . S
C1648 C1649 1.392 . S
C1649 H1621 0.929 . S
C1649 C1646 1.391 . S
C1649 C1648 1.392 . S
N1650 Co1594 2.257 . S
N1650 C1647 1.391 . S
N1650 C1651 1.388 . S
C1651 H1622 0.930 . S
C1651 C1646 1.391 . S
C1651 N1650 1.388 . S
Co1652 O1654 2.143 . S
Co1652 O1660 2.074 . S
Co1652 O1663 2.093 . S
Co1652 O1676 2.097 . S
Co1652 N1693 2.151 . S
Co1652 N1701 2.214 . S
Co1653 O1654 2.160 . S
Co1653 O1659 2.058 . S
Co1653 O1669 2.057 . S
Co1653 O1684 2.037 . S
Co1653 N1688 2.145 . S
Co1653 N1709 2.257 . S
O1654 Co1652 2.143 . S
O1654 Co1653 2.160 . S
C1655 O1656 1.278 . S
C1655 O1663 1.224 . S
O1656 C1655 1.278 . S
C1657 O1658 1.245 . S
C1657 O1669 1.232 . S
O1658 C1657 1.245 . S
O1659 Co1653 2.058 . S
O1659 C1685 1.269 . S
O1660 Co1652 2.074 . S
O1660 C1685 1.257 . S
H1661 C1686 0.930 . S
H1662 C1692 0.930 . S
O1663 Co1652 2.093 . S
O1663 C1655 1.224 . S
H1664 C1696 0.929 . S
H1665 C1698 0.930 . S
H1666 C1699 0.930 . S
H1667 C1697 0.929 . S
H1668 C1700 0.928 . S
O1669 Co1653 2.057 . S
O1669 C1657 1.232 . S
H1670 C1689 0.929 . S
H1671 C1690 0.929 . S
H1672 C1702 0.931 . S
H1673 C1694 0.929 . S
H1674 C1703 0.930 . S
H1675 C1695 0.931 . S
O1676 Co1652 2.097 . S
O1676 C1704 1.214 . S
H1677 C1705 0.929 . S
H1678 C1706 0.929 . S
H1679 C1707 0.930 . S
H1680 C1708 0.929 . S
H1681 C1710 0.930 . S
H1682 C1687 0.930 . S
H1683 C1691 0.930 . S
O1684 Co1653 2.037 . S
O1684 C1704 1.234 . S
C1685 O1659 1.269 . S
C1685 O1660 1.257 . S
C1686 H1661 0.930 . S
C1686 C1689 1.388 . S
C1686 C1691 1.418 . S
C1687 H1682 0.930 . S
C1687 C1690 1.404 . S
C1687 C1691 1.353 . S
N1688 Co1653 2.145 . S
N1688 C1689 1.397 . S
N1688 C1690 1.334 . S
C1689 H1670 0.929 . S
C1689 C1686 1.388 . S
C1689 N1688 1.397 . S
C1690 H1671 0.929 . S
C1690 C1687 1.404 . S
C1690 N1688 1.334 . S
C1691 H1683 0.930 . S
C1691 C1686 1.418 . S
C1691 C1687 1.353 . S
C1692 H1662 0.930 . S
C1692 N1693 1.330 . S
C1692 C1694 1.446 . S
N1693 Co1652 2.151 . S
N1693 C1692 1.330 . S
N1693 C1697 1.418 . S
C1694 H1673 0.929 . S
C1694 C1692 1.446 . S
C1694 C1695 1.332 . S
C1695 H1675 0.931 . S
C1695 C1694 1.332 . S
C1695 C1696 1.267 . S
C1696 H1664 0.929 . S
C1696 C1695 1.267 . S
C1696 C1697 1.251 . S
C1697 H1667 0.929 . S
C1697 N1693 1.418 . S
C1697 C1696 1.251 . S
C1698 H1665 0.930 . S
C1698 C1700 1.406 . S
C1698 C1703 1.261 . S
C1699 H1666 0.930 . S
C1699 N1701 1.325 . S
C1699 C1702 1.357 . S
C1700 H1668 0.928 . S
C1700 C1698 1.406 . S
C1700 N1701 1.261 . S
N1701 Co1652 2.214 . S
N1701 C1699 1.325 . S
N1701 C1700 1.261 . S
C1702 H1672 0.931 . S
C1702 C1699 1.357 . S
C1702 C1703 1.312 . S
C1703 H1674 0.930 . S
C1703 C1698 1.261 . S
C1703 C1702 1.312 . S
C1704 O1676 1.214 . S
C1704 O1684 1.234 . S
C1705 H1677 0.929 . S
C1705 C1708 1.391 . S
C1705 C1710 1.391 . S
C1706 H1678 0.929 . S
C1706 C1707 1.390 . S
C1706 N1709 1.391 . S
C1707 H1679 0.930 . S
C1707 C1706 1.390 . S
C1707 C1708 1.392 . S
C1708 H1680 0.929 . S
C1708 C1705 1.391 . S
C1708 C1707 1.392 . S
N1709 Co1653 2.257 . S
N1709 C1706 1.391 . S
N1709 C1710 1.388 . S
C1710 H1681 0.930 . S
C1710 C1705 1.391 . S
C1710 N1709 1.388 . S
Co1711 O1713 2.143 . S
Co1711 O1719 2.074 . S
Co1711 O1722 2.093 1_554 S
Co1711 O1735 2.097 . S
Co1711 N1752 2.151 1_554 S
Co1711 N1760 2.214 . S
Co1712 O1713 2.160 . S
Co1712 O1718 2.058 . S
Co1712 O1728 2.057 . S
Co1712 O1743 2.037 . S
Co1712 N1747 2.145 . S
Co1712 N1768 2.257 . S
O1713 Co1711 2.143 . S
O1713 Co1712 2.160 . S
C1714 O1715 1.278 . S
C1714 O1722 1.224 . S
O1715 C1714 1.278 . S
C1716 O1717 1.245 . S
C1716 O1728 1.232 . S
O1717 C1716 1.245 . S
O1718 Co1712 2.058 . S
O1718 C1744 1.269 . S
O1719 Co1711 2.074 . S
O1719 C1744 1.257 . S
H1720 C1745 0.930 . S
H1721 C1751 0.930 . S
O1722 Co1711 2.093 1_556 S
O1722 C1714 1.224 . S
H1723 C1755 0.929 . S
H1724 C1757 0.930 1_556 S
H1725 C1758 0.930 . S
H1726 C1756 0.929 1_554 S
H1727 C1759 0.960 . S
O1728 Co1712 2.057 . S
O1728 C1716 1.232 . S
H1729 C1748 0.929 . S
H1730 C1749 0.929 . S
H1731 C1761 0.931 . S
H1732 C1753 0.929 1_655 S
H1733 C1762 0.930 . S
H1734 C1754 0.931 . S
O1735 Co1711 2.097 . S
O1735 C1763 1.214 . S
H1736 C1764 0.929 . S
H1737 C1765 0.929 . S
H1738 C1766 0.930 . S
H1739 C1767 0.929 . S
H1740 C1769 0.930 . S
H1741 C1746 0.930 . S
H1742 C1750 0.930 . S
O1743 Co1712 2.037 . S
O1743 C1763 1.234 . S
C1744 O1718 1.269 . S
C1744 O1719 1.257 . S
C1745 H1720 0.930 . S
C1745 C1748 1.388 . S
C1745 C1750 1.418 . S
C1746 H1741 0.930 . S
C1746 C1749 1.404 . S
C1746 C1750 1.353 . S
N1747 Co1712 2.145 . S
N1747 C1748 1.397 . S
N1747 C1749 1.334 . S
C1748 H1729 0.929 . S
C1748 C1745 1.388 . S
C1748 N1747 1.397 . S
C1749 H1730 0.929 . S
C1749 C1746 1.404 . S
C1749 N1747 1.334 . S
C1750 H1742 0.930 . S
C1750 C1745 1.418 . S
C1750 C1746 1.353 . S
C1751 H1721 0.930 . S
C1751 N1752 1.330 . S
C1751 C1753 1.438 1_655 S
N1752 Co1711 2.151 1_556 S
N1752 C1751 1.330 . S
N1752 C1756 1.418 1_655 S
C1753 H1732 0.929 1_455 S
C1753 C1751 1.438 1_455 S
C1753 C1754 1.340 . S
C1754 H1734 0.931 . S
C1754 C1753 1.340 . S
C1754 C1755 1.267 . S
C1755 H1723 0.929 . S
C1755 C1754 1.267 . S
C1755 C1756 1.251 . S
C1756 H1726 0.929 1_556 S
C1756 N1752 1.418 1_455 S
C1756 C1755 1.251 . S
C1757 H1724 0.930 1_554 S
C1757 C1759 1.403 1_554 S
C1757 C1762 1.261 . S
C1758 H1725 0.930 . S
C1758 N1760 1.325 . S
C1758 C1761 1.357 . S
C1759 H1727 0.960 . S
C1759 C1757 1.403 1_556 S
C1759 N1760 1.234 1_556 S
N1760 Co1711 2.214 . S
N1760 C1758 1.325 . S
N1760 C1759 1.234 1_554 S
C1761 H1731 0.931 . S
C1761 C1758 1.357 . S
C1761 C1762 1.312 . S
C1762 H1733 0.930 . S
C1762 C1757 1.261 . S
C1762 C1761 1.312 . S
C1763 O1735 1.214 . S
C1763 O1743 1.234 . S
C1764 H1736 0.929 . S
C1764 C1767 1.391 . S
C1764 C1769 1.391 . S
C1765 H1737 0.929 . S
C1765 C1766 1.390 . S
C1765 N1768 1.391 . S
C1766 H1738 0.930 . S
C1766 C1765 1.390 . S
C1766 C1767 1.392 . S
C1767 H1739 0.929 . S
C1767 C1764 1.391 . S
C1767 C1766 1.392 . S
N1768 Co1712 2.257 . S
N1768 C1765 1.391 . S
N1768 C1769 1.388 . S
C1769 H1740 0.930 . S
C1769 C1764 1.391 . S
C1769 N1768 1.388 . S
Co1770 O1772 2.143 . S
Co1770 O1778 2.074 . S
Co1770 O1781 2.093 . S
Co1770 O1794 2.097 . S
Co1770 N1811 2.151 . S
Co1770 N1819 2.214 . S
Co1771 O1772 2.160 . S
Co1771 O1777 2.058 . S
Co1771 O1787 2.057 . S
Co1771 O1802 2.037 . S
Co1771 N1806 2.145 . S
Co1771 N1827 2.257 . S
O1772 Co1770 2.143 . S
O1772 Co1771 2.160 . S
C1773 O1774 1.278 . S
C1773 O1781 1.224 . S
O1774 C1773 1.278 . S
C1775 O1776 1.245 . S
C1775 O1787 1.232 . S
O1776 C1775 1.245 . S
O1777 Co1771 2.058 . S
O1777 C1803 1.269 . S
O1778 Co1770 2.074 . S
O1778 C1803 1.257 . S
H1779 C1804 0.930 . S
H1780 C1810 0.930 . S
O1781 Co1770 2.093 . S
O1781 C1773 1.224 . S
H1782 C1814 0.929 . S
H1783 C1816 0.930 . S
H1784 C1817 0.930 . S
H1785 C1815 0.929 . S
H1786 C1818 0.928 . S
O1787 Co1771 2.057 . S
O1787 C1775 1.232 . S
H1788 C1807 0.929 . S
H1789 C1808 0.929 . S
H1790 C1820 0.931 . S
H1791 C1812 0.929 . S
H1792 C1821 0.930 . S
H1793 C1813 0.931 . S
O1794 Co1770 2.097 . S
O1794 C1822 1.214 . S
H1795 C1823 0.929 . S
H1796 C1824 0.929 . S
H1797 C1825 0.930 . S
H1798 C1826 0.929 . S
H1799 C1828 0.930 . S
H1800 C1805 0.930 . S
H1801 C1809 0.930 . S
O1802 Co1771 2.037 . S
O1802 C1822 1.234 . S
C1803 O1777 1.269 . S
C1803 O1778 1.257 . S
C1804 H1779 0.930 . S
C1804 C1807 1.388 . S
C1804 C1809 1.418 . S
C1805 H1800 0.930 . S
C1805 C1808 1.404 . S
C1805 C1809 1.353 . S
N1806 Co1771 2.145 . S
N1806 C1807 1.397 . S
N1806 C1808 1.334 . S
C1807 H1788 0.929 . S
C1807 C1804 1.388 . S
C1807 N1806 1.397 . S
C1808 H1789 0.929 . S
C1808 C1805 1.404 . S
C1808 N1806 1.334 . S
C1809 H1801 0.930 . S
C1809 C1804 1.418 . S
C1809 C1805 1.353 . S
C1810 H1780 0.930 . S
C1810 N1811 1.330 . S
C1810 C1812 1.446 . S
N1811 Co1770 2.151 . S
N1811 C1810 1.330 . S
N1811 C1815 1.418 . S
C1812 H1791 0.929 . S
C1812 C1810 1.446 . S
C1812 C1813 1.332 . S
C1813 H1793 0.931 . S
C1813 C1812 1.332 . S
C1813 C1814 1.267 . S
C1814 H1782 0.929 . S
C1814 C1813 1.267 . S
C1814 C1815 1.251 . S
C1815 H1785 0.929 . S
C1815 N1811 1.418 . S
C1815 C1814 1.251 . S
C1816 H1783 0.930 . S
C1816 C1818 1.406 . S
C1816 C1821 1.261 . S
C1817 H1784 0.930 . S
C1817 N1819 1.325 . S
C1817 C1820 1.357 . S
C1818 H1786 0.928 . S
C1818 C1816 1.406 . S
C1818 N1819 1.261 . S
N1819 Co1770 2.214 . S
N1819 C1817 1.325 . S
N1819 C1818 1.261 . S
C1820 H1790 0.931 . S
C1820 C1817 1.357 . S
C1820 C1821 1.312 . S
C1821 H1792 0.930 . S
C1821 C1816 1.261 . S
C1821 C1820 1.312 . S
C1822 O1794 1.214 . S
C1822 O1802 1.234 . S
C1823 H1795 0.929 . S
C1823 C1826 1.391 . S
C1823 C1828 1.391 . S
C1824 H1796 0.929 . S
C1824 C1825 1.390 . S
C1824 N1827 1.391 . S
C1825 H1797 0.930 . S
C1825 C1824 1.390 . S
C1825 C1826 1.392 . S
C1826 H1798 0.929 . S
C1826 C1823 1.391 . S
C1826 C1825 1.392 . S
N1827 Co1771 2.257 . S
N1827 C1824 1.391 . S
N1827 C1828 1.388 . S
C1828 H1799 0.930 . S
C1828 C1823 1.391 . S
C1828 N1827 1.388 . S
Co1829 O1831 2.143 . S
Co1829 O1837 2.074 . S
Co1829 O1840 2.093 . S
Co1829 O1853 2.097 . S
Co1829 N1870 2.151 . S
Co1829 N1878 2.214 . S
Co1830 O1831 2.160 . S
Co1830 O1836 2.058 . S
Co1830 O1846 2.057 . S
Co1830 O1861 2.037 . S
Co1830 N1865 2.145 . S
Co1830 N1886 2.257 . S
O1831 Co1829 2.143 . S
O1831 Co1830 2.160 . S
C1832 O1833 1.278 . S
C1832 O1840 1.224 . S
O1833 C1832 1.278 . S
C1834 O1835 1.245 . S
C1834 O1846 1.232 . S
O1835 C1834 1.245 . S
O1836 Co1830 2.058 . S
O1836 C1862 1.269 . S
O1837 Co1829 2.074 . S
O1837 C1862 1.257 . S
H1838 C1863 0.930 . S
H1839 C1869 0.930 . S
O1840 Co1829 2.093 . S
O1840 C1832 1.224 . S
H1841 C1873 0.929 . S
H1842 C1875 0.930 . S
H1843 C1876 0.930 . S
H1844 C1874 0.929 . S
H1845 C1877 0.928 . S
O1846 Co1830 2.057 . S
O1846 C1834 1.232 . S
H1847 C1866 0.929 . S
H1848 C1867 0.929 . S
H1849 C1879 0.931 . S
H1850 C1871 0.929 . S
H1851 C1880 0.930 . S
H1852 C1872 0.931 . S
O1853 Co1829 2.097 . S
O1853 C1881 1.214 . S
H1854 C1882 0.929 . S
H1855 C1883 0.929 . S
H1856 C1884 0.930 . S
H1857 C1885 0.929 . S
H1858 C1887 0.930 . S
H1859 C1864 0.930 . S
H1860 C1868 0.930 . S
O1861 Co1830 2.037 . S
O1861 C1881 1.234 . S
C1862 O1836 1.269 . S
C1862 O1837 1.257 . S
C1863 H1838 0.930 . S
C1863 C1866 1.388 . S
C1863 C1868 1.418 . S
C1864 H1859 0.930 . S
C1864 C1867 1.404 . S
C1864 C1868 1.353 . S
N1865 Co1830 2.145 . S
N1865 C1866 1.397 . S
N1865 C1867 1.334 . S
C1866 H1847 0.929 . S
C1866 C1863 1.388 . S
C1866 N1865 1.397 . S
C1867 H1848 0.929 . S
C1867 C1864 1.404 . S
C1867 N1865 1.334 . S
C1868 H1860 0.930 . S
C1868 C1863 1.418 . S
C1868 C1864 1.353 . S
C1869 H1839 0.930 . S
C1869 N1870 1.330 . S
C1869 C1871 1.446 . S
N1870 Co1829 2.151 . S
N1870 C1869 1.330 . S
N1870 C1874 1.418 . S
C1871 H1850 0.929 . S
C1871 C1869 1.446 . S
C1871 C1872 1.332 . S
C1872 H1852 0.931 . S
C1872 C1871 1.332 . S
C1872 C1873 1.267 . S
C1873 H1841 0.929 . S
C1873 C1872 1.267 . S
C1873 C1874 1.251 . S
C1874 H1844 0.929 . S
C1874 N1870 1.418 . S
C1874 C1873 1.251 . S
C1875 H1842 0.930 . S
C1875 C1877 1.406 . S
C1875 C1880 1.261 . S
C1876 H1843 0.930 . S
C1876 N1878 1.325 . S
C1876 C1879 1.357 . S
C1877 H1845 0.928 . S
C1877 C1875 1.406 . S
C1877 N1878 1.261 . S
N1878 Co1829 2.214 . S
N1878 C1876 1.325 . S
N1878 C1877 1.261 . S
C1879 H1849 0.931 . S
C1879 C1876 1.357 . S
C1879 C1880 1.312 . S
C1880 H1851 0.930 . S
C1880 C1875 1.261 . S
C1880 C1879 1.312 . S
C1881 O1853 1.214 . S
C1881 O1861 1.234 . S
C1882 H1854 0.929 . S
C1882 C1885 1.391 . S
C1882 C1887 1.391 . S
C1883 H1855 0.929 . S
C1883 C1884 1.390 . S
C1883 N1886 1.391 . S
C1884 H1856 0.930 . S
C1884 C1883 1.390 . S
C1884 C1885 1.392 . S
C1885 H1857 0.929 . S
C1885 C1882 1.391 . S
C1885 C1884 1.392 . S
N1886 Co1830 2.257 . S
N1886 C1883 1.391 . S
N1886 C1887 1.388 . S
C1887 H1858 0.930 . S
C1887 C1882 1.391 . S
C1887 N1886 1.388 . S
H1888 C1894 0.930 . S
H1889 C1898 0.930 . S
H1890 C1903 0.929 . S
H1891 C1901 0.929 . S
H1892 C1896 0.929 . S
H1893 C1902 0.929 . S
C1894 H1888 0.930 . S
C1894 C1895 1.367 . S
C1894 C1902 1.378 . S
C1895 C1894 1.367 . S
C1895 C1903 1.433 . S
C1896 H1892 0.929 . S
C1896 C1898 1.378 . S
C1896 C1900 1.350 . S
C1897 C1900 1.463 . S
C1897 C1902 1.350 . S
C1897 N1905 1.427 . S
C1898 H1889 0.930 . S
C1898 C1896 1.378 . S
C1898 C1899 1.367 . S
C1899 C1898 1.367 . S
C1899 C1901 1.433 . S
C1900 C1896 1.350 . S
C1900 C1897 1.463 . S
C1900 N1904 1.427 . S
C1901 H1891 0.929 . S
C1901 C1899 1.433 . S
C1901 N1904 1.384 . S
C1902 H1893 0.929 . S
C1902 C1894 1.378 . S
C1902 C1897 1.350 . S
C1903 H1890 0.929 . S
C1903 C1895 1.433 . S
C1903 N1905 1.384 . S
N1904 C1900 1.427 . S
N1904 C1901 1.384 . S
N1905 C1897 1.427 . S
N1905 C1903 1.384 . S
H1906 C1912 0.930 . S
H1907 C1916 0.930 . S
H1908 C1921 0.929 1_655 S
H1909 C1919 0.929 . S
H1910 C1914 0.929 . S
H1911 C1920 0.929 . S
C1912 H1906 0.930 . S
C1912 C1913 1.367 . S
C1912 C1920 1.378 . S
C1913 C1912 1.367 . S
C1913 C1921 1.433 . S
C1914 H1910 0.929 . S
C1914 C1916 1.378 . S
C1914 C1918 1.350 . S
C1915 C1918 1.463 . S
C1915 C1920 1.350 . S
C1915 N1923 1.427 . S
C1916 H1907 0.930 . S
C1916 C1914 1.378 . S
C1916 C1917 1.367 . S
C1917 C1916 1.367 . S
C1917 C1919 1.433 . S
C1918 C1914 1.350 . S
C1918 C1915 1.463 . S
C1918 N1922 1.427 . S
C1919 H1909 0.929 . S
C1919 C1917 1.433 . S
C1919 N1922 1.384 . S
C1920 H1911 0.929 . S
C1920 C1912 1.378 . S
C1920 C1915 1.350 . S
C1921 H1908 0.929 1_455 S
C1921 C1913 1.433 . S
C1921 N1923 1.384 . S
N1922 C1918 1.427 . S
N1922 C1919 1.384 . S
N1923 C1915 1.427 . S
N1923 C1921 1.384 . S
H1924 C1930 0.930 . S
H1925 C1934 0.930 . S
H1926 C1939 0.929 . S
H1927 C1937 0.929 . S
H1928 C1932 0.929 . S
H1929 C1938 0.929 . S
C1930 H1924 0.930 . S
C1930 C1931 1.367 . S
C1930 C1938 1.378 . S
C1931 C1930 1.367 . S
C1931 C1939 1.433 . S
C1932 H1928 0.929 . S
C1932 C1934 1.378 . S
C1932 C1936 1.350 . S
C1933 C1936 1.463 . S
C1933 C1938 1.350 . S
C1933 N1941 1.427 . S
C1934 H1925 0.930 . S
C1934 C1932 1.378 . S
C1934 C1935 1.367 . S
C1935 C1934 1.367 . S
C1935 C1937 1.433 . S
C1936 C1932 1.350 . S
C1936 C1933 1.463 . S
C1936 N1940 1.427 . S
C1937 H1927 0.929 . S
C1937 C1935 1.433 . S
C1937 N1940 1.384 . S
C1938 H1929 0.929 . S
C1938 C1930 1.378 . S
C1938 C1933 1.350 . S
C1939 H1926 0.929 . S
C1939 C1931 1.433 . S
C1939 N1941 1.384 . S
N1940 C1936 1.427 . S
N1940 C1937 1.384 . S
N1941 C1933 1.427 . S
N1941 C1939 1.384 . S
H1942 C1948 0.930 . S
H1943 C1952 0.930 . S
H1944 C1957 0.929 . S
H1945 C1955 0.929 . S
H1946 C1950 0.929 . S
H1947 C1956 0.929 . S
C1948 H1942 0.930 . S
C1948 C1949 1.367 . S
C1948 C1956 1.378 . S
C1949 C1948 1.367 . S
C1949 C1957 1.433 . S
C1950 H1946 0.929 . S
C1950 C1952 1.378 . S
C1950 C1954 1.350 . S
C1951 C1954 1.463 . S
C1951 C1956 1.350 . S
C1951 N1959 1.427 . S
C1952 H1943 0.930 . S
C1952 C1950 1.378 . S
C1952 C1953 1.367 . S
C1953 C1952 1.367 . S
C1953 C1955 1.433 . S
C1954 C1950 1.350 . S
C1954 C1951 1.463 . S
C1954 N1958 1.427 . S
C1955 H1945 0.929 . S
C1955 C1953 1.433 . S
C1955 N1958 1.384 . S
C1956 H1947 0.929 . S
C1956 C1948 1.378 . S
C1956 C1951 1.350 . S
C1957 H1944 0.929 . S
C1957 C1949 1.433 . S
C1957 N1959 1.384 . S
N1958 C1954 1.427 . S
N1958 C1955 1.384 . S
N1959 C1951 1.427 . S
N1959 C1957 1.384 . S
H1960 C1966 0.930 . S
H1961 C1970 0.930 . S
H1962 C1975 0.929 . S
H1963 C1973 0.929 . S
H1964 C1968 0.929 . S
H1965 C1974 0.929 . S
C1966 H1960 0.930 . S
C1966 C1967 1.367 . S
C1966 C1974 1.378 . S
C1967 C1966 1.367 . S
C1967 C1975 1.433 . S
C1968 H1964 0.929 . S
C1968 C1970 1.378 . S
C1968 C1972 1.350 . S
C1969 C1972 1.463 . S
C1969 C1974 1.350 . S
C1969 N1977 1.427 . S
C1970 H1961 0.930 . S
C1970 C1968 1.378 . S
C1970 C1971 1.367 . S
C1971 C1970 1.367 . S
C1971 C1973 1.433 . S
C1972 C1968 1.350 . S
C1972 C1969 1.463 . S
C1972 N1976 1.427 . S
C1973 H1963 0.929 . S
C1973 C1971 1.433 . S
C1973 N1976 1.384 . S
C1974 H1965 0.929 . S
C1974 C1966 1.378 . S
C1974 C1969 1.350 . S
C1975 H1962 0.929 . S
C1975 C1967 1.433 . S
C1975 N1977 1.384 . S
N1976 C1972 1.427 . S
N1976 C1973 1.384 . S
N1977 C1969 1.427 . S
N1977 C1975 1.384 . S
H1978 C1984 0.930 . S
H1979 C1988 0.930 . S
H1980 C1993 0.929 . S
H1981 C1991 0.929 . S
H1982 C1986 0.929 . S
H1983 C1992 0.929 . S
C1984 H1978 0.930 . S
C1984 C1985 1.367 . S
C1984 C1992 1.378 . S
C1985 C1984 1.367 . S
C1985 C1993 1.433 . S
C1986 H1982 0.929 . S
C1986 C1988 1.378 . S
C1986 C1990 1.350 . S
C1987 C1990 1.463 . S
C1987 C1992 1.350 . S
C1987 N1995 1.427 . S
C1988 H1979 0.930 . S
C1988 C1986 1.378 . S
C1988 C1989 1.367 . S
C1989 C1988 1.367 . S
C1989 C1991 1.433 . S
C1990 C1986 1.350 . S
C1990 C1987 1.463 . S
C1990 N1994 1.427 . S
C1991 H1981 0.929 . S
C1991 C1989 1.433 . S
C1991 N1994 1.384 . S
C1992 H1983 0.929 . S
C1992 C1984 1.378 . S
C1992 C1987 1.350 . S
C1993 H1980 0.929 . S
C1993 C1985 1.433 . S
C1993 N1995 1.384 . S
N1994 C1990 1.427 . S
N1994 C1991 1.384 . S
N1995 C1987 1.427 . S
N1995 C1993 1.384 . S
H1996 C2002 0.930 . S
H1997 C2006 0.930 . S
H1998 C2011 0.929 . S
H1999 C2009 0.929 . S
H2000 C2004 0.929 . S
H2001 C2010 0.929 . S
C2002 H1996 0.930 . S
C2002 C2003 1.367 . S
C2002 C2010 1.378 . S
C2003 C2002 1.367 . S
C2003 C2011 1.433 . S
C2004 H2000 0.929 . S
C2004 C2006 1.378 . S
C2004 C2008 1.350 . S
C2005 C2008 1.463 . S
C2005 C2010 1.350 . S
C2005 N2013 1.427 . S
C2006 H1997 0.930 . S
C2006 C2004 1.378 . S
C2006 C2007 1.367 . S
C2007 C2006 1.367 . S
C2007 C2009 1.433 . S
C2008 C2004 1.350 . S
C2008 C2005 1.463 . S
C2008 N2012 1.427 . S
C2009 H1999 0.929 . S
C2009 C2007 1.433 . S
C2009 N2012 1.384 . S
C2010 H2001 0.929 . S
C2010 C2002 1.378 . S
C2010 C2005 1.350 . S
C2011 H1998 0.929 . S
C2011 C2003 1.433 . S
C2011 N2013 1.384 . S
N2012 C2008 1.427 . S
N2012 C2009 1.384 . S
N2013 C2005 1.427 . S
N2013 C2011 1.384 . S
H2014 C2020 0.930 . S
H2015 C2024 0.930 1_655 S
H2016 C2029 0.929 . S
H2017 C2027 0.929 . S
H2018 C2022 0.929 . S
H2019 C2028 0.929 . S
C2020 H2014 0.930 . S
C2020 C2021 1.367 . S
C2020 C2028 1.378 . S
C2021 C2020 1.367 . S
C2021 C2029 1.433 . S
C2022 H2018 0.929 . S
C2022 C2024 1.378 . S
C2022 C2026 1.350 . S
C2023 C2026 1.463 . S
C2023 C2028 1.350 . S
C2023 N2031 1.427 . S
C2024 H2015 0.930 1_455 S
C2024 C2022 1.378 . S
C2024 C2025 1.367 . S
C2025 C2024 1.367 . S
C2025 C2027 1.433 . S
C2026 C2022 1.350 . S
C2026 C2023 1.463 . S
C2026 N2030 1.427 . S
C2027 H2017 0.929 . S
C2027 C2025 1.433 . S
C2027 N2030 1.384 . S
C2028 H2019 0.929 . S
C2028 C2020 1.378 . S
C2028 C2023 1.350 . S
C2029 H2016 0.929 . S
C2029 C2021 1.433 . S
C2029 N2031 1.384 . S
N2030 C2026 1.427 . S
N2030 C2027 1.384 . S
N2031 C2023 1.427 . S
N2031 C2029 1.384 . S
H2032 C2038 0.930 . S
H2033 C2042 0.930 . S
H2034 C2047 0.929 . S
H2035 C2045 0.929 . S
H2036 C2040 0.929 . S
H2037 C2046 0.929 . S
C2038 H2032 0.930 . S
C2038 C2039 1.367 . S
C2038 C2046 1.378 . S
C2039 C2038 1.367 . S
C2039 C2047 1.433 . S
C2040 H2036 0.929 . S
C2040 C2042 1.378 . S
C2040 C2044 1.350 . S
C2041 C2044 1.463 . S
C2041 C2046 1.350 . S
C2041 N2049 1.427 . S
C2042 H2033 0.930 . S
C2042 C2040 1.378 . S
C2042 C2043 1.367 . S
C2043 C2042 1.367 . S
C2043 C2045 1.433 . S
C2044 C2040 1.350 . S
C2044 C2041 1.463 . S
C2044 N2048 1.427 . S
C2045 H2035 0.929 . S
C2045 C2043 1.433 . S
C2045 N2048 1.384 . S
C2046 H2037 0.929 . S
C2046 C2038 1.378 . S
C2046 C2041 1.350 . S
C2047 H2034 0.929 . S
C2047 C2039 1.433 . S
C2047 N2049 1.384 . S
N2048 C2044 1.427 . S
N2048 C2045 1.384 . S
N2049 C2041 1.427 . S
N2049 C2047 1.384 . S
H2050 C2056 0.930 . S
H2051 C2060 0.930 . S
H2052 C2065 0.929 1_455 S
H2053 C2063 0.929 . S
H2054 C2058 0.929 . S
H2055 C2064 0.929 . S
C2056 H2050 0.930 . S
C2056 C2057 1.367 . S
C2056 C2064 1.378 . S
C2057 C2056 1.367 . S
C2057 C2065 1.433 . S
C2058 H2054 0.929 . S
C2058 C2060 1.378 . S
C2058 C2062 1.350 . S
C2059 C2062 1.463 . S
C2059 C2064 1.350 . S
C2059 N2067 1.427 . S
C2060 H2051 0.930 . S
C2060 C2058 1.378 . S
C2060 C2061 1.367 . S
C2061 C2060 1.367 . S
C2061 C2063 1.433 . S
C2062 C2058 1.350 . S
C2062 C2059 1.463 . S
C2062 N2066 1.427 . S
C2063 H2053 0.929 . S
C2063 C2061 1.433 . S
C2063 N2066 1.384 . S
C2064 H2055 0.929 . S
C2064 C2056 1.378 . S
C2064 C2059 1.350 . S
C2065 H2052 0.929 1_655 S
C2065 C2057 1.433 . S
C2065 N2067 1.384 . S
N2066 C2062 1.427 . S
N2066 C2063 1.384 . S
N2067 C2059 1.427 . S
N2067 C2065 1.384 . S
H2068 C2074 0.930 . S
H2069 C2078 0.930 . S
H2070 C2083 0.929 . S
H2071 C2081 0.929 . S
H2072 C2076 0.929 . S
H2073 C2082 0.929 . S
C2074 H2068 0.930 . S
C2074 C2075 1.367 . S
C2074 C2082 1.378 . S
C2075 C2074 1.367 . S
C2075 C2083 1.433 . S
C2076 H2072 0.929 . S
C2076 C2078 1.378 . S
C2076 C2080 1.350 . S
C2077 C2080 1.463 . S
C2077 C2082 1.350 . S
C2077 N2085 1.427 . S
C2078 H2069 0.930 . S
C2078 C2076 1.378 . S
C2078 C2079 1.367 . S
C2079 C2078 1.367 . S
C2079 C2081 1.433 . S
C2080 C2076 1.350 . S
C2080 C2077 1.463 . S
C2080 N2084 1.427 . S
C2081 H2071 0.929 . S
C2081 C2079 1.433 . S
C2081 N2084 1.384 . S
C2082 H2073 0.929 . S
C2082 C2074 1.378 . S
C2082 C2077 1.350 . S
C2083 H2070 0.929 . S
C2083 C2075 1.433 . S
C2083 N2085 1.384 . S
N2084 C2080 1.427 . S
N2084 C2081 1.384 . S
N2085 C2077 1.427 . S
N2085 C2083 1.384 . S
H2086 C2092 0.930 . S
H2087 C2096 0.930 . S
H2088 C2101 0.929 . S
H2089 C2099 0.929 . S
H2090 C2094 0.929 . S
H2091 C2100 0.929 . S
C2092 H2086 0.930 . S
C2092 C2093 1.367 . S
C2092 C2100 1.378 . S
C2093 C2092 1.367 . S
C2093 C2101 1.433 . S
C2094 H2090 0.929 . S
C2094 C2096 1.378 . S
C2094 C2098 1.350 . S
C2095 C2098 1.463 . S
C2095 C2100 1.350 . S
C2095 N2103 1.427 . S
C2096 H2087 0.930 . S
C2096 C2094 1.378 . S
C2096 C2097 1.367 . S
C2097 C2096 1.367 . S
C2097 C2099 1.433 . S
C2098 C2094 1.350 . S
C2098 C2095 1.463 . S
C2098 N2102 1.427 . S
C2099 H2089 0.929 . S
C2099 C2097 1.433 . S
C2099 N2102 1.384 . S
C2100 H2091 0.929 . S
C2100 C2092 1.378 . S
C2100 C2095 1.350 . S
C2101 H2088 0.929 . S
C2101 C2093 1.433 . S
C2101 N2103 1.384 . S
N2102 C2098 1.427 . S
N2102 C2099 1.384 . S
N2103 C2095 1.427 . S
N2103 C2101 1.384 . S
H2104 C2110 0.930 . S
H2105 C2114 0.930 . S
H2106 C2119 0.929 . S
H2107 C2117 0.929 . S
H2108 C2112 0.929 . S
H2109 C2118 0.929 . S
C2110 H2104 0.930 . S
C2110 C2111 1.367 . S
C2110 C2118 1.378 . S
C2111 C2110 1.367 . S
C2111 C2119 1.433 . S
C2112 H2108 0.929 . S
C2112 C2114 1.378 . S
C2112 C2116 1.350 . S
C2113 C2116 1.463 . S
C2113 C2118 1.350 . S
C2113 N2121 1.427 . S
C2114 H2105 0.930 . S
C2114 C2112 1.378 . S
C2114 C2115 1.367 . S
C2115 C2114 1.367 . S
C2115 C2117 1.433 . S
C2116 C2112 1.350 . S
C2116 C2113 1.463 . S
C2116 N2120 1.427 . S
C2117 H2107 0.929 . S
C2117 C2115 1.433 . S
C2117 N2120 1.384 . S
C2118 H2109 0.929 . S
C2118 C2110 1.378 . S
C2118 C2113 1.350 . S
C2119 H2106 0.929 . S
C2119 C2111 1.433 . S
C2119 N2121 1.384 . S
N2120 C2116 1.427 . S
N2120 C2117 1.384 . S
N2121 C2113 1.427 . S
N2121 C2119 1.384 . S
H2122 C2128 0.930 . S
H2123 C2132 0.930 . S
H2124 C2137 0.929 . S
H2125 C2135 0.929 . S
H2126 C2130 0.929 . S
H2127 C2136 0.929 . S
C2128 H2122 0.930 . S
C2128 C2129 1.367 . S
C2128 C2136 1.378 . S
C2129 C2128 1.367 . S
C2129 C2137 1.433 . S
C2130 H2126 0.929 . S
C2130 C2132 1.378 . S
C2130 C2134 1.350 . S
C2131 C2134 1.463 . S
C2131 C2136 1.350 . S
C2131 N2139 1.427 . S
C2132 H2123 0.930 . S
C2132 C2130 1.378 . S
C2132 C2133 1.367 . S
C2133 C2132 1.367 . S
C2133 C2135 1.433 . S
C2134 C2130 1.350 . S
C2134 C2131 1.463 . S
C2134 N2138 1.427 . S
C2135 H2125 0.929 . S
C2135 C2133 1.433 . S
C2135 N2138 1.384 . S
C2136 H2127 0.929 . S
C2136 C2128 1.378 . S
C2136 C2131 1.350 . S
C2137 H2124 0.929 . S
C2137 C2129 1.433 . S
C2137 N2139 1.384 . S
N2138 C2134 1.427 . S
N2138 C2135 1.384 . S
N2139 C2131 1.427 . S
N2139 C2137 1.384 . S
H2140 C2146 0.930 . S
H2141 C2150 0.930 . S
H2142 C2155 0.929 . S
H2143 C2153 0.929 . S
H2144 C2148 0.929 . S
H2145 C2154 0.929 . S
C2146 H2140 0.930 . S
C2146 C2147 1.367 . S
C2146 C2154 1.378 . S
C2147 C2146 1.367 . S
C2147 C2155 1.433 . S
C2148 H2144 0.929 . S
C2148 C2150 1.378 . S
C2148 C2152 1.350 . S
C2149 C2152 1.463 . S
C2149 C2154 1.350 . S
C2149 N2157 1.427 . S
C2150 H2141 0.930 . S
C2150 C2148 1.378 . S
C2150 C2151 1.367 . S
C2151 C2150 1.367 . S
C2151 C2153 1.433 . S
C2152 C2148 1.350 . S
C2152 C2149 1.463 . S
C2152 N2156 1.427 . S
C2153 H2143 0.929 . S
C2153 C2151 1.433 . S
C2153 N2156 1.384 . S
C2154 H2145 0.929 . S
C2154 C2146 1.378 . S
C2154 C2149 1.350 . S
C2155 H2142 0.929 . S
C2155 C2147 1.433 . S
C2155 N2157 1.384 . S
N2156 C2152 1.427 . S
N2156 C2153 1.384 . S
N2157 C2149 1.427 . S
N2157 C2155 1.384 . S
H2158 C2164 0.930 . S
H2159 C2168 0.930 . S
H2160 C2173 0.929 . S
H2161 C2171 0.929 . S
H2162 C2166 0.929 . S
H2163 C2172 0.929 . S
C2164 H2158 0.930 . S
C2164 C2165 1.367 . S
C2164 C2172 1.378 . S
C2165 C2164 1.367 . S
C2165 C2173 1.433 . S
C2166 H2162 0.929 . S
C2166 C2168 1.378 . S
C2166 C2170 1.350 . S
C2167 C2170 1.463 . S
C2167 C2172 1.350 . S
C2167 N2175 1.427 . S
C2168 H2159 0.930 . S
C2168 C2166 1.378 . S
C2168 C2169 1.367 . S
C2169 C2168 1.367 . S
C2169 C2171 1.433 . S
C2170 C2166 1.350 . S
C2170 C2167 1.463 . S
C2170 N2174 1.427 . S
C2171 H2161 0.929 . S
C2171 C2169 1.433 . S
C2171 N2174 1.384 . S
C2172 H2163 0.929 . S
C2172 C2164 1.378 . S
C2172 C2167 1.350 . S
C2173 H2160 0.929 . S
C2173 C2165 1.433 . S
C2173 N2175 1.384 . S
N2174 C2170 1.427 . S
N2174 C2171 1.384 . S
N2175 C2167 1.427 . S
N2175 C2173 1.384 . S
H2176 C2182 0.930 . S
H2177 C2186 0.930 . S
H2178 C2191 0.929 . S
H2179 C2189 0.929 . S
H2180 C2184 0.929 . S
H2181 C2190 0.929 . S
C2182 H2176 0.930 . S
C2182 C2183 1.367 . S
C2182 C2190 1.378 . S
C2183 C2182 1.367 . S
C2183 C2191 1.433 . S
C2184 H2180 0.929 . S
C2184 C2186 1.378 . S
C2184 C2188 1.350 . S
C2185 C2188 1.463 . S
C2185 C2190 1.350 . S
C2185 N2193 1.427 . S
C2186 H2177 0.930 . S
C2186 C2184 1.378 . S
C2186 C2187 1.367 . S
C2187 C2186 1.367 . S
C2187 C2189 1.433 . S
C2188 C2184 1.350 . S
C2188 C2185 1.463 . S
C2188 N2192 1.427 . S
C2189 H2179 0.929 . S
C2189 C2187 1.433 . S
C2189 N2192 1.384 . S
C2190 H2181 0.929 . S
C2190 C2182 1.378 . S
C2190 C2185 1.350 . S
C2191 H2178 0.929 . S
C2191 C2183 1.433 . S
C2191 N2193 1.384 . S
N2192 C2188 1.427 . S
N2192 C2189 1.384 . S
N2193 C2185 1.427 . S
N2193 C2191 1.384 . S
H2194 C2200 0.930 . S
H2195 C2204 0.930 . S
H2196 C2209 0.929 . S
H2197 C2207 0.929 . S
H2198 C2202 0.929 . S
H2199 C2208 0.929 . S
C2200 H2194 0.930 . S
C2200 C2201 1.367 . S
C2200 C2208 1.378 . S
C2201 C2200 1.367 . S
C2201 C2209 1.433 . S
C2202 H2198 0.929 . S
C2202 C2204 1.378 . S
C2202 C2206 1.350 . S
C2203 C2206 1.463 . S
C2203 C2208 1.350 . S
C2203 N2211 1.427 . S
C2204 H2195 0.930 . S
C2204 C2202 1.378 . S
C2204 C2205 1.367 . S
C2205 C2204 1.367 . S
C2205 C2207 1.433 . S
C2206 C2202 1.350 . S
C2206 C2203 1.463 . S
C2206 N2210 1.427 . S
C2207 H2197 0.929 . S
C2207 C2205 1.433 . S
C2207 N2210 1.384 . S
C2208 H2199 0.929 . S
C2208 C2200 1.378 . S
C2208 C2203 1.350 . S
C2209 H2196 0.929 . S
C2209 C2201 1.433 . S
C2209 N2211 1.384 . S
N2210 C2206 1.427 . S
N2210 C2207 1.384 . S
N2211 C2203 1.427 . S
N2211 C2209 1.384 . S
H2212 C2218 0.930 . S
H2213 C2222 0.930 . S
H2214 C2227 0.929 . S
H2215 C2225 0.929 . S
H2216 C2220 0.929 . S
H2217 C2226 0.929 . S
C2218 H2212 0.930 . S
C2218 C2219 1.367 . S
C2218 C2226 1.378 . S
C2219 C2218 1.367 . S
C2219 C2227 1.433 . S
C2220 H2216 0.929 . S
C2220 C2222 1.378 . S
C2220 C2224 1.350 . S
C2221 C2224 1.463 . S
C2221 C2226 1.350 . S
C2221 N2229 1.427 . S
C2222 H2213 0.930 . S
C2222 C2220 1.378 . S
C2222 C2223 1.367 . S
C2223 C2222 1.367 . S
C2223 C2225 1.433 . S
C2224 C2220 1.350 . S
C2224 C2221 1.463 . S
C2224 N2228 1.427 . S
C2225 H2215 0.929 . S
C2225 C2223 1.433 . S
C2225 N2228 1.384 . S
C2226 H2217 0.929 . S
C2226 C2218 1.378 . S
C2226 C2221 1.350 . S
C2227 H2214 0.929 . S
C2227 C2219 1.433 . S
C2227 N2229 1.384 . S
N2228 C2224 1.427 . S
N2228 C2225 1.384 . S
N2229 C2221 1.427 . S
N2229 C2227 1.384 . S
H2230 C2236 0.930 . S
H2231 C2240 0.930 1_455 S
H2232 C2245 0.929 . S
H2233 C2243 0.929 . S
H2234 C2238 0.929 . S
H2235 C2244 0.929 . S
C2236 H2230 0.930 . S
C2236 C2237 1.367 . S
C2236 C2244 1.378 . S
C2237 C2236 1.367 . S
C2237 C2245 1.433 . S
C2238 H2234 0.929 . S
C2238 C2240 1.378 . S
C2238 C2242 1.350 . S
C2239 C2242 1.463 . S
C2239 C2244 1.350 . S
C2239 N2247 1.427 . S
C2240 H2231 0.930 1_655 S
C2240 C2238 1.378 . S
C2240 C2241 1.367 . S
C2241 C2240 1.367 . S
C2241 C2243 1.433 . S
C2242 C2238 1.350 . S
C2242 C2239 1.463 . S
C2242 N2246 1.427 . S
C2243 H2233 0.929 . S
C2243 C2241 1.433 . S
C2243 N2246 1.384 . S
C2244 H2235 0.929 . S
C2244 C2236 1.378 . S
C2244 C2239 1.350 . S
C2245 H2232 0.929 . S
C2245 C2237 1.433 . S
C2245 N2247 1.384 . S
N2246 C2242 1.427 . S
N2246 C2243 1.384 . S
N2247 C2239 1.427 . S
N2247 C2245 1.384 . S
H2248 C2254 0.930 . S
H2249 C2258 0.930 . S
H2250 C2263 0.929 . S
H2251 C2261 0.929 . S
H2252 C2256 0.929 . S
H2253 C2262 0.929 . S
C2254 H2248 0.930 . S
C2254 C2255 1.367 . S
C2254 C2262 1.378 . S
C2255 C2254 1.367 . S
C2255 C2263 1.433 . S
C2256 H2252 0.929 . S
C2256 C2258 1.378 . S
C2256 C2260 1.350 . S
C2257 C2260 1.463 . S
C2257 C2262 1.350 . S
C2257 N2265 1.427 . S
C2258 H2249 0.930 . S
C2258 C2256 1.378 . S
C2258 C2259 1.367 . S
C2259 C2258 1.367 . S
C2259 C2261 1.433 . S
C2260 C2256 1.350 . S
C2260 C2257 1.463 . S
C2260 N2264 1.427 . S
C2261 H2251 0.929 . S
C2261 C2259 1.433 . S
C2261 N2264 1.384 . S
C2262 H2253 0.929 . S
C2262 C2254 1.378 . S
C2262 C2257 1.350 . S
C2263 H2250 0.929 . S
C2263 C2255 1.433 . S
C2263 N2265 1.384 . S
N2264 C2260 1.427 . S
N2264 C2261 1.384 . S
N2265 C2257 1.427 . S
N2265 C2263 1.384 . S
H2266 C2272 0.930 . S
H2267 C2276 0.930 . S
H2268 C2281 0.929 1_455 S
H2269 C2279 0.929 . S
H2270 C2274 0.929 . S
H2271 C2280 0.929 . S
C2272 H2266 0.930 . S
C2272 C2273 1.367 . S
C2272 C2280 1.378 . S
C2273 C2272 1.367 . S
C2273 C2281 1.433 . S
C2274 H2270 0.929 . S
C2274 C2276 1.378 . S
C2274 C2278 1.350 . S
C2275 C2278 1.463 . S
C2275 C2280 1.350 . S
C2275 N2283 1.427 . S
C2276 H2267 0.930 . S
C2276 C2274 1.378 . S
C2276 C2277 1.367 . S
C2277 C2276 1.367 . S
C2277 C2279 1.433 . S
C2278 C2274 1.350 . S
C2278 C2275 1.463 . S
C2278 N2282 1.427 . S
C2279 H2269 0.929 . S
C2279 C2277 1.433 . S
C2279 N2282 1.384 . S
C2280 H2271 0.929 . S
C2280 C2272 1.378 . S
C2280 C2275 1.350 . S
C2281 H2268 0.929 1_655 S
C2281 C2273 1.433 . S
C2281 N2283 1.384 . S
N2282 C2278 1.427 . S
N2282 C2279 1.384 . S
N2283 C2275 1.427 . S
N2283 C2281 1.384 . S
H2284 C2290 0.930 . S
H2285 C2294 0.930 . S
H2286 C2299 0.929 . S
H2287 C2297 0.929 . S
H2288 C2292 0.929 . S
H2289 C2298 0.929 . S
C2290 H2284 0.930 . S
C2290 C2291 1.367 . S
C2290 C2298 1.378 . S
C2291 C2290 1.367 . S
C2291 C2299 1.433 . S
C2292 H2288 0.929 . S
C2292 C2294 1.378 . S
C2292 C2296 1.350 . S
C2293 C2296 1.463 . S
C2293 C2298 1.350 . S
C2293 N2301 1.427 . S
C2294 H2285 0.930 . S
C2294 C2292 1.378 . S
C2294 C2295 1.367 . S
C2295 C2294 1.367 . S
C2295 C2297 1.433 . S
C2296 C2292 1.350 . S
C2296 C2293 1.463 . S
C2296 N2300 1.427 . S
C2297 H2287 0.929 . S
C2297 C2295 1.433 . S
C2297 N2300 1.384 . S
C2298 H2289 0.929 . S
C2298 C2290 1.378 . S
C2298 C2293 1.350 . S
C2299 H2286 0.929 . S
C2299 C2291 1.433 . S
C2299 N2301 1.384 . S
N2300 C2296 1.427 . S
N2300 C2297 1.384 . S
N2301 C2293 1.427 . S
N2301 C2299 1.384 . S
H2302 C2308 0.930 . S
H2303 C2312 0.930 . S
H2304 C2317 0.929 . S
H2305 C2315 0.929 . S
H2306 C2310 0.929 . S
H2307 C2316 0.929 . S
C2308 H2302 0.930 . S
C2308 C2309 1.367 . S
C2308 C2316 1.378 . S
C2309 C2308 1.367 . S
C2309 C2317 1.433 . S
C2310 H2306 0.929 . S
C2310 C2312 1.378 . S
C2310 C2314 1.350 . S
C2311 C2314 1.463 . S
C2311 C2316 1.350 . S
C2311 N2319 1.427 . S
C2312 H2303 0.930 . S
C2312 C2310 1.378 . S
C2312 C2313 1.367 . S
C2313 C2312 1.367 . S
C2313 C2315 1.433 . S
C2314 C2310 1.350 . S
C2314 C2311 1.463 . S
C2314 N2318 1.427 . S
C2315 H2305 0.929 . S
C2315 C2313 1.433 . S
C2315 N2318 1.384 . S
C2316 H2307 0.929 . S
C2316 C2308 1.378 . S
C2316 C2311 1.350 . S
C2317 H2304 0.929 . S
C2317 C2309 1.433 . S
C2317 N2319 1.384 . S
N2318 C2314 1.427 . S
N2318 C2315 1.384 . S
N2319 C2311 1.427 . S
N2319 C2317 1.384 . S
H2320 C2326 0.930 . S
H2321 C2330 0.930 . S
H2322 C2335 0.929 . S
H2323 C2333 0.929 . S
H2324 C2328 0.929 . S
H2325 C2334 0.929 . S
C2326 H2320 0.930 . S
C2326 C2327 1.367 . S
C2326 C2334 1.378 . S
C2327 C2326 1.367 . S
C2327 C2335 1.433 . S
C2328 H2324 0.929 . S
C2328 C2330 1.378 . S
C2328 C2332 1.350 . S
C2329 C2332 1.463 . S
C2329 C2334 1.350 . S
C2329 N2337 1.427 . S
C2330 H2321 0.930 . S
C2330 C2328 1.378 . S
C2330 C2331 1.367 . S
C2331 C2330 1.367 . S
C2331 C2333 1.433 . S
C2332 C2328 1.350 . S
C2332 C2329 1.463 . S
C2332 N2336 1.427 . S
C2333 H2323 0.929 . S
C2333 C2331 1.433 . S
C2333 N2336 1.384 . S
C2334 H2325 0.929 . S
C2334 C2326 1.378 . S
C2334 C2329 1.350 . S
C2335 H2322 0.929 . S
C2335 C2327 1.433 . S
C2335 N2337 1.384 . S
N2336 C2332 1.427 . S
N2336 C2333 1.384 . S
N2337 C2329 1.427 . S
N2337 C2335 1.384 . S
H2338 C2344 0.930 . S
H2339 C2348 0.930 . S
H2340 C2353 0.929 . S
H2341 C2351 0.929 . S
H2342 C2346 0.929 . S
H2343 C2352 0.929 . S
C2344 H2338 0.930 . S
C2344 C2345 1.367 . S
C2344 C2352 1.378 . S
C2345 C2344 1.367 . S
C2345 C2353 1.433 . S
C2346 H2342 0.929 . S
C2346 C2348 1.378 . S
C2346 C2350 1.350 . S
C2347 C2350 1.463 . S
C2347 C2352 1.350 . S
C2347 N2355 1.427 . S
C2348 H2339 0.930 . S
C2348 C2346 1.378 . S
C2348 C2349 1.367 . S
C2349 C2348 1.367 . S
C2349 C2351 1.433 . S
C2350 C2346 1.350 . S
C2350 C2347 1.463 . S
C2350 N2354 1.427 . S
C2351 H2341 0.929 . S
C2351 C2349 1.433 . S
C2351 N2354 1.384 . S
C2352 H2343 0.929 . S
C2352 C2344 1.378 . S
C2352 C2347 1.350 . S
C2353 H2340 0.929 . S
C2353 C2345 1.433 . S
C2353 N2355 1.384 . S
N2354 C2350 1.427 . S
N2354 C2351 1.384 . S
N2355 C2347 1.427 . S
N2355 C2353 1.384 . S
H2356 C2362 0.930 . S
H2357 C2366 0.930 . S
H2358 C2371 0.929 . S
H2359 C2369 0.929 . S
H2360 C2364 0.929 . S
H2361 C2370 0.929 . S
C2362 H2356 0.930 . S
C2362 C2363 1.367 . S
C2362 C2370 1.378 . S
C2363 C2362 1.367 . S
C2363 C2371 1.433 . S
C2364 H2360 0.929 . S
C2364 C2366 1.378 . S
C2364 C2368 1.350 . S
C2365 C2368 1.463 . S
C2365 C2370 1.350 . S
C2365 N2373 1.427 . S
C2366 H2357 0.930 . S
C2366 C2364 1.378 . S
C2366 C2367 1.367 . S
C2367 C2366 1.367 . S
C2367 C2369 1.433 . S
C2368 C2364 1.350 . S
C2368 C2365 1.463 . S
C2368 N2372 1.427 . S
C2369 H2359 0.929 . S
C2369 C2367 1.433 . S
C2369 N2372 1.384 . S
C2370 H2361 0.929 . S
C2370 C2362 1.378 . S
C2370 C2365 1.350 . S
C2371 H2358 0.929 . S
C2371 C2363 1.433 . S
C2371 N2373 1.384 . S
N2372 C2368 1.427 . S
N2372 C2369 1.384 . S
N2373 C2365 1.427 . S
N2373 C2371 1.384 . S
H2374 C2380 0.930 . S
H2375 C2384 0.930 . S
H2376 C2389 0.900 1_655 S
H2377 C2387 0.929 . S
H2378 C2382 0.929 . S
H2379 C2388 0.929 . S
C2380 H2374 0.930 . S
C2380 C2381 1.367 . S
C2380 C2388 1.378 . S
C2381 C2380 1.367 . S
C2381 C2389 1.437 . S
C2382 H2378 0.929 . S
C2382 C2384 1.378 . S
C2382 C2386 1.350 . S
C2383 C2386 1.463 . S
C2383 C2388 1.350 . S
C2383 N2391 1.427 . S
C2384 H2375 0.930 . S
C2384 C2382 1.378 . S
C2384 C2385 1.367 . S
C2385 C2384 1.367 . S
C2385 C2387 1.433 . S
C2386 C2382 1.350 . S
C2386 C2383 1.463 . S
C2386 N2390 1.427 . S
C2387 H2377 0.929 . S
C2387 C2385 1.433 . S
C2387 N2390 1.384 . S
C2388 H2379 0.929 . S
C2388 C2380 1.378 . S
C2388 C2383 1.350 . S
C2389 H2376 0.900 1_455 S
C2389 C2381 1.437 . S
C2389 N2391 1.411 . S
N2390 C2386 1.427 . S
N2390 C2387 1.384 . S
N2391 C2383 1.427 . S
N2391 C2389 1.411 . S
H2392 C2398 0.930 . S
H2393 C2402 0.930 . S
H2394 C2407 0.929 . S
H2395 C2405 0.929 . S
H2396 C2400 0.929 . S
H2397 C2406 0.929 . S
C2398 H2392 0.930 . S
C2398 C2399 1.367 . S
C2398 C2406 1.378 . S
C2399 C2398 1.367 . S
C2399 C2407 1.433 . S
C2400 H2396 0.929 . S
C2400 C2402 1.378 . S
C2400 C2404 1.350 . S
C2401 C2404 1.463 . S
C2401 C2406 1.350 . S
C2401 N2409 1.427 . S
C2402 H2393 0.930 . S
C2402 C2400 1.378 . S
C2402 C2403 1.367 . S
C2403 C2402 1.367 . S
C2403 C2405 1.433 . S
C2404 C2400 1.350 . S
C2404 C2401 1.463 . S
C2404 N2408 1.427 . S
C2405 H2395 0.929 . S
C2405 C2403 1.433 . S
C2405 N2408 1.384 . S
C2406 H2397 0.929 . S
C2406 C2398 1.378 . S
C2406 C2401 1.350 . S
C2407 H2394 0.929 . S
C2407 C2399 1.433 . S
C2407 N2409 1.384 . S
N2408 C2404 1.427 . S
N2408 C2405 1.384 . S
N2409 C2401 1.427 . S
N2409 C2407 1.384 . S
H2410 C2416 0.930 . S
H2411 C2420 0.930 . S
H2412 C2425 0.931 . S
H2413 C2423 0.929 . S
H2414 C2418 0.929 . S
H2415 C2424 0.929 . S
C2416 H2410 0.930 . S
C2416 C2417 1.367 . S
C2416 C2424 1.378 . S
C2417 C2416 1.367 . S
C2417 C2425 1.433 . S
C2418 H2414 0.929 . S
C2418 C2420 1.378 . S
C2418 C2422 1.350 . S
C2419 C2422 1.463 . S
C2419 C2424 1.350 . S
C2419 N2427 1.427 . S
C2420 H2411 0.930 . S
C2420 C2418 1.378 . S
C2420 C2421 1.367 . S
C2421 C2420 1.367 . S
C2421 C2423 1.433 . S
C2422 C2418 1.350 . S
C2422 C2419 1.463 . S
C2422 N2426 1.427 . S
C2423 H2413 0.929 . S
C2423 C2421 1.433 . S
C2423 N2426 1.384 . S
C2424 H2415 0.929 . S
C2424 C2416 1.378 . S
C2424 C2419 1.350 . S
C2425 H2412 0.931 . S
C2425 C2417 1.433 . S
C2425 N2427 1.384 . S
N2426 C2422 1.427 . S
N2426 C2423 1.384 . S
N2427 C2419 1.427 . S
N2427 C2425 1.384 . S
H2428 C2434 0.930 . S
H2429 C2438 0.930 . S
H2430 C2443 0.929 . S
H2431 C2441 0.929 . S
H2432 C2436 0.929 . S
H2433 C2442 0.929 . S
C2434 H2428 0.930 . S
C2434 C2435 1.367 . S
C2434 C2442 1.378 . S
C2435 C2434 1.367 . S
C2435 C2443 1.433 . S
C2436 H2432 0.929 . S
C2436 C2438 1.378 . S
C2436 C2440 1.350 . S
C2437 C2440 1.463 . S
C2437 C2442 1.350 . S
C2437 N2445 1.427 . S
C2438 H2429 0.930 . S
C2438 C2436 1.378 . S
C2438 C2439 1.367 . S
C2439 C2438 1.367 . S
C2439 C2441 1.433 . S
C2440 C2436 1.350 . S
C2440 C2437 1.463 . S
C2440 N2444 1.427 . S
C2441 H2431 0.929 . S
C2441 C2439 1.433 . S
C2441 N2444 1.384 . S
C2442 H2433 0.929 . S
C2442 C2434 1.378 . S
C2442 C2437 1.350 . S
C2443 H2430 0.929 . S
C2443 C2435 1.433 . S
C2443 N2445 1.384 . S
N2444 C2440 1.427 . S
N2444 C2441 1.384 . S
N2445 C2437 1.427 . S
N2445 C2443 1.384 . S
H2446 C2452 0.930 . S
H2447 C2456 0.930 . S
H2448 C2461 0.929 . S
H2449 C2459 0.929 . S
H2450 C2454 0.929 . S
H2451 C2460 0.929 . S
C2452 H2446 0.930 . S
C2452 C2453 1.367 . S
C2452 C2460 1.378 . S
C2453 C2452 1.367 . S
C2453 C2461 1.433 . S
C2454 H2450 0.929 . S
C2454 C2456 1.378 . S
C2454 C2458 1.350 . S
C2455 C2458 1.463 . S
C2455 C2460 1.350 . S
C2455 N2463 1.427 . S
C2456 H2447 0.930 . S
C2456 C2454 1.378 . S
C2456 C2457 1.367 . S
C2457 C2456 1.367 . S
C2457 C2459 1.433 . S
C2458 C2454 1.350 . S
C2458 C2455 1.463 . S
C2458 N2462 1.427 . S
C2459 H2449 0.929 . S
C2459 C2457 1.433 . S
C2459 N2462 1.384 . S
C2460 H2451 0.929 . S
C2460 C2452 1.378 . S
C2460 C2455 1.350 . S
C2461 H2448 0.929 . S
C2461 C2453 1.433 . S
C2461 N2463 1.384 . S
N2462 C2458 1.427 . S
N2462 C2459 1.384 . S
N2463 C2455 1.427 . S
N2463 C2461 1.384 . S
H2464 C2470 0.930 . S
H2465 C2474 0.930 . S
H2466 C2479 0.929 . S
H2467 C2477 0.929 . S
H2468 C2472 0.929 . S
H2469 C2478 0.929 . S
C2470 H2464 0.930 . S
C2470 C2471 1.367 . S
C2470 C2478 1.378 . S
C2471 C2470 1.367 . S
C2471 C2479 1.433 . S
C2472 H2468 0.929 . S
C2472 C2474 1.378 . S
C2472 C2476 1.350 . S
C2473 C2476 1.463 . S
C2473 C2478 1.350 . S
C2473 N2481 1.427 . S
C2474 H2465 0.930 . S
C2474 C2472 1.378 . S
C2474 C2475 1.367 . S
C2475 C2474 1.367 . S
C2475 C2477 1.433 . S
C2476 C2472 1.350 . S
C2476 C2473 1.463 . S
C2476 N2480 1.427 . S
C2477 H2467 0.929 . S
C2477 C2475 1.433 . S
C2477 N2480 1.384 . S
C2478 H2469 0.929 . S
C2478 C2470 1.378 . S
C2478 C2473 1.350 . S
C2479 H2466 0.929 . S
C2479 C2471 1.433 . S
C2479 N2481 1.384 . S
N2480 C2476 1.427 . S
N2480 C2477 1.384 . S
N2481 C2473 1.427 . S
N2481 C2479 1.384 . S
H2482 C2488 0.930 . S
H2483 C2492 0.930 . S
H2484 C2497 0.929 . S
H2485 C2495 0.929 . S
H2486 C2490 0.927 . S
H2487 C2496 0.927 . S
C2488 H2482 0.930 . S
C2488 C2489 1.367 . S
C2488 C2496 1.379 1_655 S
C2489 C2488 1.367 . S
C2489 C2497 1.433 . S
C2490 H2486 0.927 . S
C2490 C2492 1.379 1_655 S
C2490 C2494 1.351 1_655 S
C2491 C2494 1.463 1_665 S
C2491 C2496 1.351 1_655 S
C2491 N2499 1.427 . S
C2492 H2483 0.930 . S
C2492 C2490 1.379 1_455 S
C2492 C2493 1.367 . S
C2493 C2492 1.367 . S
C2493 C2495 1.433 . S
C2494 C2490 1.351 1_455 S
C2494 C2491 1.463 1_445 S
C2494 N2498 1.427 . S
C2495 H2485 0.929 . S
C2495 C2493 1.433 . S
C2495 N2498 1.384 . S
C2496 H2487 0.927 . S
C2496 C2488 1.379 1_455 S
C2496 C2491 1.351 1_455 S
C2497 H2484 0.929 . S
C2497 C2489 1.433 . S
C2497 N2499 1.384 . S
N2498 C2494 1.427 . S
N2498 C2495 1.384 . S
N2499 C2491 1.427 . S
N2499 C2497 1.384 . S
H2500 C2506 0.930 . S
H2501 C2510 0.930 . S
H2502 C2515 0.929 . S
H2503 C2513 0.929 . S
H2504 C2508 0.929 . S
H2505 C2514 0.929 . S
C2506 H2500 0.930 . S
C2506 C2507 1.367 . S
C2506 C2514 1.378 . S
C2507 C2506 1.367 . S
C2507 C2515 1.433 . S
C2508 H2504 0.929 . S
C2508 C2510 1.378 . S
C2508 C2512 1.350 . S
C2509 C2512 1.463 . S
C2509 C2514 1.350 . S
C2509 N2517 1.427 . S
C2510 H2501 0.930 . S
C2510 C2508 1.378 . S
C2510 C2511 1.367 . S
C2511 C2510 1.367 . S
C2511 C2513 1.433 . S
C2512 C2508 1.350 . S
C2512 C2509 1.463 . S
C2512 N2516 1.427 . S
C2513 H2503 0.929 . S
C2513 C2511 1.433 . S
C2513 N2516 1.384 . S
C2514 H2505 0.929 . S
C2514 C2506 1.378 . S
C2514 C2509 1.350 . S
C2515 H2502 0.929 . S
C2515 C2507 1.433 . S
C2515 N2517 1.384 . S
N2516 C2512 1.427 . S
N2516 C2513 1.384 . S
N2517 C2509 1.427 . S
N2517 C2515 1.384 . S
H2518 C2524 0.930 1_556 S
H2519 C2528 0.930 1_554 S
H2520 C2533 0.929 . S
H2521 C2531 0.929 . S
H2522 C2526 0.929 . S
H2523 C2532 0.929 . S
C2524 H2518 0.930 1_554 S
C2524 C2525 1.367 . S
C2524 C2532 1.378 1_554 S
C2525 C2524 1.367 . S
C2525 C2533 1.433 . S
C2526 H2522 0.929 . S
C2526 C2528 1.378 1_554 S
C2526 C2530 1.350 1_554 S
C2527 C2530 1.463 1_544 S
C2527 C2532 1.350 1_554 S
C2527 N2535 1.427 . S
C2528 H2519 0.930 1_556 S
C2528 C2526 1.378 1_556 S
C2528 C2529 1.367 . S
C2529 C2528 1.367 . S
C2529 C2531 1.433 . S
C2530 C2526 1.350 1_556 S
C2530 C2527 1.463 1_566 S
C2530 N2534 1.427 . S
C2531 H2521 0.929 . S
C2531 C2529 1.433 . S
C2531 N2534 1.384 . S
C2532 H2523 0.929 . S
C2532 C2524 1.378 1_556 S
C2532 C2527 1.350 1_556 S
C2533 H2520 0.929 . S
C2533 C2525 1.433 . S
C2533 N2535 1.384 . S
N2534 C2530 1.427 . S
N2534 C2531 1.384 . S
N2535 C2527 1.427 . S
N2535 C2533 1.384 . S
H2536 C2542 0.930 . S
H2537 C2546 0.930 . S
H2538 C2551 0.929 . S
H2539 C2549 0.929 . S
H2540 C2544 0.929 . S
H2541 C2550 0.929 . S
C2542 H2536 0.930 . S
C2542 C2543 1.367 . S
C2542 C2550 1.378 . S
C2543 C2542 1.367 . S
C2543 C2551 1.433 . S
C2544 H2540 0.929 . S
C2544 C2546 1.378 . S
C2544 C2548 1.350 . S
C2545 C2548 1.463 . S
C2545 C2550 1.350 . S
C2545 N2553 1.427 . S
C2546 H2537 0.930 . S
C2546 C2544 1.378 . S
C2546 C2547 1.367 . S
C2547 C2546 1.367 . S
C2547 C2549 1.433 . S
C2548 C2544 1.350 . S
C2548 C2545 1.463 . S
C2548 N2552 1.427 . S
C2549 H2539 0.929 . S
C2549 C2547 1.433 . S
C2549 N2552 1.384 . S
C2550 H2541 0.929 . S
C2550 C2542 1.378 . S
C2550 C2545 1.350 . S
C2551 H2538 0.929 . S
C2551 C2543 1.433 . S
C2551 N2553 1.384 . S
N2552 C2548 1.427 . S
N2552 C2549 1.384 . S
N2553 C2545 1.427 . S
N2553 C2551 1.384 . S
H2554 C2560 0.930 . S
H2555 C2564 0.930 . S
H2556 C2569 0.929 . S
H2557 C2567 0.929 . S
H2558 C2562 0.929 1_565 S
H2559 C2568 0.929 1_545 S
C2560 H2554 0.930 . S
C2560 C2561 1.367 . S
C2560 C2568 1.378 . S
C2561 C2560 1.367 . S
C2561 C2569 1.433 . S
C2562 H2558 0.929 1_545 S
C2562 C2564 1.378 . S
C2562 C2566 1.350 . S
C2563 C2566 1.463 1_565 S
C2563 C2568 1.350 . S
C2563 N2571 1.427 . S
C2564 H2555 0.930 . S
C2564 C2562 1.378 . S
C2564 C2565 1.367 . S
C2565 C2564 1.367 . S
C2565 C2567 1.433 . S
C2566 C2562 1.350 . S
C2566 C2563 1.463 1_545 S
C2566 N2570 1.427 . S
C2567 H2557 0.929 . S
C2567 C2565 1.433 . S
C2567 N2570 1.384 . S
C2568 H2559 0.929 1_565 S
C2568 C2560 1.378 . S
C2568 C2563 1.350 . S
C2569 H2556 0.929 . S
C2569 C2561 1.433 . S
C2569 N2571 1.384 . S
N2570 C2566 1.427 . S
N2570 C2567 1.384 . S
N2571 C2563 1.427 . S
N2571 C2569 1.384 . S
H2572 C2578 0.930 . S
H2573 C2582 0.930 . S
H2574 C2587 0.929 . S
H2575 C2585 0.929 . S
H2576 C2580 0.929 . S
H2577 C2586 0.929 . S
C2578 H2572 0.930 . S
C2578 C2579 1.367 . S
C2578 C2586 1.378 . S
C2579 C2578 1.367 . S
C2579 C2587 1.433 . S
C2580 H2576 0.929 . S
C2580 C2582 1.378 . S
C2580 C2584 1.350 . S
C2581 C2584 1.463 . S
C2581 C2586 1.350 . S
C2581 N2589 1.427 . S
C2582 H2573 0.930 . S
C2582 C2580 1.378 . S
C2582 C2583 1.367 . S
C2583 C2582 1.367 . S
C2583 C2585 1.433 . S
C2584 C2580 1.350 . S
C2584 C2581 1.463 . S
C2584 N2588 1.427 . S
C2585 H2575 0.929 . S
C2585 C2583 1.433 . S
C2585 N2588 1.384 . S
C2586 H2577 0.929 . S
C2586 C2578 1.378 . S
C2586 C2581 1.350 . S
C2587 H2574 0.929 . S
C2587 C2579 1.433 . S
C2587 N2589 1.384 . S
N2588 C2584 1.427 . S
N2588 C2585 1.384 . S
N2589 C2581 1.427 . S
N2589 C2587 1.384 . S
H2590 C2596 0.930 . S
H2591 C2600 0.930 . S
H2592 C2605 0.938 . S
H2593 C2603 0.938 . S
H2594 C2598 0.929 1_545 S
H2595 C2604 0.929 1_565 S
C2596 H2590 0.930 . S
C2596 C2597 1.367 . S
C2596 C2604 1.378 . S
C2597 C2596 1.367 . S
C2597 C2605 1.433 . S
C2598 H2594 0.929 1_565 S
C2598 C2600 1.378 . S
C2598 C2602 1.350 . S
C2599 C2602 1.463 1_646 S
C2599 C2604 1.350 . S
C2599 N2607 1.427 1_655 S
C2600 H2591 0.930 . S
C2600 C2598 1.378 . S
C2600 C2601 1.367 . S
C2601 C2600 1.367 . S
C2601 C2603 1.433 . S
C2602 C2598 1.350 . S
C2602 C2599 1.463 1_464 S
C2602 N2606 1.427 1_455 S
C2603 H2593 0.938 . S
C2603 C2601 1.433 . S
C2603 N2606 1.384 1_455 S
C2604 H2595 0.929 1_545 S
C2604 C2596 1.378 . S
C2604 C2599 1.350 . S
C2605 H2592 0.938 . S
C2605 C2597 1.433 . S
C2605 N2607 1.384 1_655 S
N2606 C2602 1.427 1_655 S
N2606 C2603 1.384 1_655 S
N2607 C2599 1.427 1_455 S
N2607 C2605 1.384 1_455 S
H2608 C2614 0.930 . S
H2609 C2618 0.930 . S
H2610 C2623 0.929 . S
H2611 C2621 0.929 . S
H2612 C2616 0.929 . S
H2613 C2622 0.929 . S
C2614 H2608 0.930 . S
C2614 C2615 1.367 . S
C2614 C2622 1.378 . S
C2615 C2614 1.367 . S
C2615 C2623 1.433 . S
C2616 H2612 0.929 . S
C2616 C2618 1.378 . S
C2616 C2620 1.350 . S
C2617 C2620 1.463 . S
C2617 C2622 1.350 . S
C2617 N2625 1.427 . S
C2618 H2609 0.930 . S
C2618 C2616 1.378 . S
C2618 C2619 1.367 . S
C2619 C2618 1.367 . S
C2619 C2621 1.433 . S
C2620 C2616 1.350 . S
C2620 C2617 1.463 . S
C2620 N2624 1.427 . S
C2621 H2611 0.929 . S
C2621 C2619 1.433 . S
C2621 N2624 1.384 . S
C2622 H2613 0.929 . S
C2622 C2614 1.378 . S
C2622 C2617 1.350 . S
C2623 H2610 0.929 . S
C2623 C2615 1.433 . S
C2623 N2625 1.384 . S
N2624 C2620 1.427 . S
N2624 C2621 1.384 . S
N2625 C2617 1.427 . S
N2625 C2623 1.384 . S
H2626 C2632 0.930 . S
H2627 C2636 0.930 . S
H2628 C2641 0.929 . S
H2629 C2639 0.929 . S
H2630 C2634 0.929 . S
H2631 C2640 0.929 . S
C2632 H2626 0.930 . S
C2632 C2633 1.367 . S
C2632 C2640 1.378 . S
C2633 C2632 1.367 . S
C2633 C2641 1.433 . S
C2634 H2630 0.929 . S
C2634 C2636 1.378 . S
C2634 C2638 1.350 . S
C2635 C2638 1.463 . S
C2635 C2640 1.350 . S
C2635 N2643 1.427 . S
C2636 H2627 0.930 . S
C2636 C2634 1.378 . S
C2636 C2637 1.367 . S
C2637 C2636 1.367 . S
C2637 C2639 1.433 . S
C2638 C2634 1.350 . S
C2638 C2635 1.463 . S
C2638 N2642 1.427 . S
C2639 H2629 0.929 . S
C2639 C2637 1.433 . S
C2639 N2642 1.384 . S
C2640 H2631 0.929 . S
C2640 C2632 1.378 . S
C2640 C2635 1.350 . S
C2641 H2628 0.929 . S
C2641 C2633 1.433 . S
C2641 N2643 1.384 . S
N2642 C2638 1.427 . S
N2642 C2639 1.384 . S
N2643 C2635 1.427 . S
N2643 C2641 1.384 . S
H2644 C2650 0.930 . S
H2645 C2654 0.930 . S
H2646 C2659 0.929 . S
H2647 C2657 0.929 . S
H2648 C2652 0.929 . S
H2649 C2658 0.929 . S
C2650 H2644 0.930 . S
C2650 C2651 1.367 . S
C2650 C2658 1.378 . S
C2651 C2650 1.367 . S
C2651 C2659 1.433 . S
C2652 H2648 0.929 . S
C2652 C2654 1.378 . S
C2652 C2656 1.350 . S
C2653 C2656 1.463 . S
C2653 C2658 1.350 . S
C2653 N2661 1.427 . S
C2654 H2645 0.930 . S
C2654 C2652 1.378 . S
C2654 C2655 1.367 . S
C2655 C2654 1.367 . S
C2655 C2657 1.433 . S
C2656 C2652 1.350 . S
C2656 C2653 1.463 . S
C2656 N2660 1.427 . S
C2657 H2647 0.929 . S
C2657 C2655 1.433 . S
C2657 N2660 1.384 . S
C2658 H2649 0.929 . S
C2658 C2650 1.378 . S
C2658 C2653 1.350 . S
C2659 H2646 0.929 . S
C2659 C2651 1.433 . S
C2659 N2661 1.384 . S
N2660 C2656 1.427 . S
N2660 C2657 1.384 . S
N2661 C2653 1.427 . S
N2661 C2659 1.384 . S
H2662 C2668 0.930 . S
H2663 C2672 0.930 . S
H2664 C2677 0.929 . S
H2665 C2675 0.929 . S
H2666 C2670 0.929 . S
H2667 C2676 0.929 . S
C2668 H2662 0.930 . S
C2668 C2669 1.367 . S
C2668 C2676 1.378 . S
C2669 C2668 1.367 . S
C2669 C2677 1.433 . S
C2670 H2666 0.929 . S
C2670 C2672 1.378 . S
C2670 C2674 1.350 . S
C2671 C2674 1.463 . S
C2671 C2676 1.350 . S
C2671 N2679 1.427 . S
C2672 H2663 0.930 . S
C2672 C2670 1.378 . S
C2672 C2673 1.367 . S
C2673 C2672 1.367 . S
C2673 C2675 1.433 . S
C2674 C2670 1.350 . S
C2674 C2671 1.463 . S
C2674 N2678 1.427 . S
C2675 H2665 0.929 . S
C2675 C2673 1.433 . S
C2675 N2678 1.384 . S
C2676 H2667 0.929 . S
C2676 C2668 1.378 . S
C2676 C2671 1.350 . S
C2677 H2664 0.929 . S
C2677 C2669 1.433 . S
C2677 N2679 1.384 . S
N2678 C2674 1.427 . S
N2678 C2675 1.384 . S
N2679 C2671 1.427 . S
N2679 C2677 1.384 . S
H2680 C2686 0.930 . S
H2681 C2690 0.930 . S
H2682 C2695 0.929 . S
H2683 C2693 0.929 . S
H2684 C2688 0.929 . S
H2685 C2694 0.929 . S
C2686 H2680 0.930 . S
C2686 C2687 1.367 . S
C2686 C2694 1.378 . S
C2687 C2686 1.367 . S
C2687 C2695 1.433 1_554 S
C2688 H2684 0.929 . S
C2688 C2690 1.378 . S
C2688 C2692 1.350 . S
C2689 C2692 1.463 1_554 S
C2689 C2694 1.350 . S
C2689 N2697 1.427 1_554 S
C2690 H2681 0.930 . S
C2690 C2688 1.378 . S
C2690 C2691 1.367 . S
C2691 C2690 1.367 . S
C2691 C2693 1.433 1_556 S
C2692 C2688 1.350 . S
C2692 C2689 1.463 1_556 S
C2692 N2696 1.427 1_556 S
C2693 H2683 0.929 . S
C2693 C2691 1.433 1_554 S
C2693 N2696 1.384 . S
C2694 H2685 0.929 . S
C2694 C2686 1.378 . S
C2694 C2689 1.350 . S
C2695 H2682 0.929 . S
C2695 C2687 1.433 1_556 S
C2695 N2697 1.384 . S
N2696 C2692 1.427 1_554 S
N2696 C2693 1.384 . S
N2697 C2689 1.427 1_556 S
N2697 C2695 1.384 . S
H2698 C2704 0.930 . S
H2699 C2708 0.930 . S
H2700 C2713 0.909 1_455 S
H2701 C2711 0.909 1_655 S
H2702 C2706 0.929 . S
H2703 C2712 0.929 . S
C2704 H2698 0.930 . S
C2704 C2705 1.367 . S
C2704 C2712 1.378 . S
C2705 C2704 1.367 . S
C2705 C2713 1.433 . S
C2706 H2702 0.929 . S
C2706 C2708 1.378 . S
C2706 C2710 1.350 . S
C2707 C2710 1.463 1_655 S
C2707 C2712 1.350 . S
C2707 N2715 1.427 1_655 S
C2708 H2699 0.930 . S
C2708 C2706 1.378 . S
C2708 C2709 1.367 . S
C2709 C2708 1.367 . S
C2709 C2711 1.433 . S
C2710 C2706 1.350 . S
C2710 C2707 1.463 1_455 S
C2710 N2714 1.427 1_455 S
C2711 H2701 0.909 1_455 S
C2711 C2709 1.433 . S
C2711 N2714 1.384 1_455 S
C2712 H2703 0.929 . S
C2712 C2704 1.378 . S
C2712 C2707 1.350 . S
C2713 H2700 0.909 1_655 S
C2713 C2705 1.433 . S
C2713 N2715 1.384 1_655 S
N2714 C2710 1.427 1_655 S
N2714 C2711 1.384 1_655 S
N2715 C2707 1.427 1_455 S
N2715 C2713 1.384 1_455 S
H2716 C2722 0.930 1_554 S
H2717 C2726 0.930 1_556 S
H2718 C2731 0.929 . S
H2719 C2729 0.929 . S
H2720 C2724 0.895 1_455 S
H2721 C2730 0.895 1_655 S
C2722 H2716 0.930 1_556 S
C2722 C2723 1.367 . S
C2722 C2730 1.402 1_556 S
C2723 C2722 1.367 . S
C2723 C2731 1.433 . S
C2724 H2720 0.895 1_655 S
C2724 C2726 1.402 1_556 S
C2724 C2728 1.361 1_556 S
C2725 C2728 1.463 1_456 S
C2725 C2730 1.361 1_556 S
C2725 N2733 1.427 . S
C2726 H2717 0.930 1_554 S
C2726 C2724 1.402 1_554 S
C2726 C2727 1.367 . S
C2727 C2726 1.367 . S
C2727 C2729 1.433 . S
C2728 C2724 1.361 1_554 S
C2728 C2725 1.463 1_654 S
C2728 N2732 1.427 . S
C2729 H2719 0.929 . S
C2729 C2727 1.433 . S
C2729 N2732 1.384 . S
C2730 H2721 0.895 1_455 S
C2730 C2722 1.402 1_554 S
C2730 C2725 1.361 1_554 S
C2731 H2718 0.929 . S
C2731 C2723 1.433 . S
C2731 N2733 1.384 . S
N2732 C2728 1.427 . S
N2732 C2729 1.384 . S
N2733 C2725 1.427 . S
N2733 C2731 1.384 . S
H2734 C2740 0.930 . S
H2735 C2744 0.930 . S
H2736 C2749 0.929 . S
H2737 C2747 0.929 . S
H2738 C2742 0.929 . S
H2739 C2748 0.929 . S
C2740 H2734 0.930 . S
C2740 C2741 1.367 . S
C2740 C2748 1.378 . S
C2741 C2740 1.367 . S
C2741 C2749 1.433 . S
C2742 H2738 0.929 . S
C2742 C2744 1.378 . S
C2742 C2746 1.350 . S
C2743 C2746 1.463 . S
C2743 C2748 1.350 . S
C2743 N2751 1.427 . S
C2744 H2735 0.930 . S
C2744 C2742 1.378 . S
C2744 C2745 1.367 . S
C2745 C2744 1.367 . S
C2745 C2747 1.433 . S
C2746 C2742 1.350 . S
C2746 C2743 1.463 . S
C2746 N2750 1.427 . S
C2747 H2737 0.929 . S
C2747 C2745 1.433 . S
C2747 N2750 1.384 . S
C2748 H2739 0.929 . S
C2748 C2740 1.378 . S
C2748 C2743 1.350 . S
C2749 H2736 0.929 . S
C2749 C2741 1.433 . S
C2749 N2751 1.384 . S
N2750 C2746 1.427 . S
N2750 C2747 1.384 . S
N2751 C2743 1.427 . S
N2751 C2749 1.384 . S
H2752 C2758 0.930 . S
H2753 C2762 0.930 . S
H2754 C2767 0.929 . S
H2755 C2765 0.929 . S
H2756 C2760 0.929 . S
H2757 C2766 0.929 . S
C2758 H2752 0.930 . S
C2758 C2759 1.367 . S
C2758 C2766 1.378 . S
C2759 C2758 1.367 . S
C2759 C2767 1.433 . S
C2760 H2756 0.929 . S
C2760 C2762 1.378 . S
C2760 C2764 1.350 . S
C2761 C2764 1.463 . S
C2761 C2766 1.350 . S
C2761 N2769 1.427 . S
C2762 H2753 0.930 . S
C2762 C2760 1.378 . S
C2762 C2763 1.367 . S
C2763 C2762 1.367 . S
C2763 C2765 1.433 . S
C2764 C2760 1.350 . S
C2764 C2761 1.463 . S
C2764 N2768 1.427 . S
C2765 H2755 0.929 . S
C2765 C2763 1.433 . S
C2765 N2768 1.384 . S
C2766 H2757 0.929 . S
C2766 C2758 1.378 . S
C2766 C2761 1.350 . S
C2767 H2754 0.929 . S
C2767 C2759 1.433 . S
C2767 N2769 1.384 . S
N2768 C2764 1.427 . S
N2768 C2765 1.384 . S
N2769 C2761 1.427 . S
N2769 C2767 1.384 . S
H2770 C2776 0.930 . S
H2771 C2780 0.930 . S
H2772 C2785 0.929 . S
H2773 C2783 0.929 . S
H2774 C2778 0.929 . S
H2775 C2784 0.929 . S
C2776 H2770 0.930 . S
C2776 C2777 1.367 . S
C2776 C2784 1.378 . S
C2777 C2776 1.367 . S
C2777 C2785 1.433 . S
C2778 H2774 0.929 . S
C2778 C2780 1.378 . S
C2778 C2782 1.350 . S
C2779 C2782 1.463 . S
C2779 C2784 1.350 . S
C2779 N2787 1.427 . S
C2780 H2771 0.930 . S
C2780 C2778 1.378 . S
C2780 C2781 1.367 . S
C2781 C2780 1.367 . S
C2781 C2783 1.433 . S
C2782 C2778 1.350 . S
C2782 C2779 1.463 . S
C2782 N2786 1.427 . S
C2783 H2773 0.929 . S
C2783 C2781 1.433 . S
C2783 N2786 1.384 . S
C2784 H2775 0.929 . S
C2784 C2776 1.378 . S
C2784 C2779 1.350 . S
C2785 H2772 0.929 . S
C2785 C2777 1.433 . S
C2785 N2787 1.384 . S
N2786 C2782 1.427 . S
N2786 C2783 1.384 . S
N2787 C2779 1.427 . S
N2787 C2785 1.384 . S
H2788 C2794 0.930 . S
H2789 C2798 0.930 . S
H2790 C2803 0.929 . S
H2791 C2801 0.929 . S
H2792 C2796 0.929 . S
H2793 C2802 0.929 . S
C2794 H2788 0.930 . S
C2794 C2795 1.367 . S
C2794 C2802 1.378 . S
C2795 C2794 1.367 . S
C2795 C2803 1.433 . S
C2796 H2792 0.929 . S
C2796 C2798 1.378 . S
C2796 C2800 1.350 . S
C2797 C2800 1.463 . S
C2797 C2802 1.350 . S
C2797 N2805 1.427 . S
C2798 H2789 0.930 . S
C2798 C2796 1.378 . S
C2798 C2799 1.367 . S
C2799 C2798 1.367 . S
C2799 C2801 1.433 . S
C2800 C2796 1.350 . S
C2800 C2797 1.463 . S
C2800 N2804 1.427 . S
C2801 H2791 0.929 . S
C2801 C2799 1.433 . S
C2801 N2804 1.384 . S
C2802 H2793 0.929 . S
C2802 C2794 1.378 . S
C2802 C2797 1.350 . S
C2803 H2790 0.929 . S
C2803 C2795 1.433 . S
C2803 N2805 1.384 . S
N2804 C2800 1.427 . S
N2804 C2801 1.384 . S
N2805 C2797 1.427 . S
N2805 C2803 1.384 . S
H2806 C2812 0.930 . S
H2807 C2816 0.930 . S
H2808 C2821 0.929 . S
H2809 C2819 0.929 . S
H2810 C2814 0.929 . S
H2811 C2820 0.929 . S
C2812 H2806 0.930 . S
C2812 C2813 1.367 . S
C2812 C2820 1.378 . S
C2813 C2812 1.367 . S
C2813 C2821 1.433 . S
C2814 H2810 0.929 . S
C2814 C2816 1.378 . S
C2814 C2818 1.350 . S
C2815 C2818 1.463 . S
C2815 C2820 1.350 . S
C2815 N2823 1.427 . S
C2816 H2807 0.930 . S
C2816 C2814 1.378 . S
C2816 C2817 1.367 . S
C2817 C2816 1.367 . S
C2817 C2819 1.433 . S
C2818 C2814 1.350 . S
C2818 C2815 1.463 . S
C2818 N2822 1.427 . S
C2819 H2809 0.929 . S
C2819 C2817 1.433 . S
C2819 N2822 1.384 . S
C2820 H2811 0.929 . S
C2820 C2812 1.378 . S
C2820 C2815 1.350 . S
C2821 H2808 0.929 . S
C2821 C2813 1.433 . S
C2821 N2823 1.384 . S
N2822 C2818 1.427 . S
N2822 C2819 1.384 . S
N2823 C2815 1.427 . S
N2823 C2821 1.384 . S
H2824 C2830 0.930 . S
H2825 C2834 0.930 . S
H2826 C2839 0.929 . S
H2827 C2837 0.929 . S
H2828 C2832 0.929 . S
H2829 C2838 0.929 . S
C2830 H2824 0.930 . S
C2830 C2831 1.367 . S
C2830 C2838 1.378 . S
C2831 C2830 1.367 . S
C2831 C2839 1.433 . S
C2832 H2828 0.929 . S
C2832 C2834 1.378 . S
C2832 C2836 1.350 . S
C2833 C2836 1.463 . S
C2833 C2838 1.350 . S
C2833 N2841 1.427 . S
C2834 H2825 0.930 . S
C2834 C2832 1.378 . S
C2834 C2835 1.367 . S
C2835 C2834 1.367 . S
C2835 C2837 1.433 . S
C2836 C2832 1.350 . S
C2836 C2833 1.463 . S
C2836 N2840 1.427 . S
C2837 H2827 0.929 . S
C2837 C2835 1.433 . S
C2837 N2840 1.384 . S
C2838 H2829 0.929 . S
C2838 C2830 1.378 . S
C2838 C2833 1.350 . S
C2839 H2826 0.929 . S
C2839 C2831 1.433 . S
C2839 N2841 1.384 . S
N2840 C2836 1.427 . S
N2840 C2837 1.384 . S
N2841 C2833 1.427 . S
N2841 C2839 1.384 . S
H2842 C2848 0.930 . S
H2843 C2852 0.930 . S
H2844 C2857 0.929 . S
H2845 C2855 0.929 . S
H2846 C2850 0.929 . S
H2847 C2856 0.929 . S
C2848 H2842 0.930 . S
C2848 C2849 1.367 . S
C2848 C2856 1.378 . S
C2849 C2848 1.367 . S
C2849 C2857 1.433 . S
C2850 H2846 0.929 . S
C2850 C2852 1.378 . S
C2850 C2854 1.350 . S
C2851 C2854 1.463 . S
C2851 C2856 1.350 . S
C2851 N2859 1.427 . S
C2852 H2843 0.930 . S
C2852 C2850 1.378 . S
C2852 C2853 1.367 . S
C2853 C2852 1.367 . S
C2853 C2855 1.433 . S
C2854 C2850 1.350 . S
C2854 C2851 1.463 . S
C2854 N2858 1.427 . S
C2855 H2845 0.929 . S
C2855 C2853 1.433 . S
C2855 N2858 1.384 . S
C2856 H2847 0.929 . S
C2856 C2848 1.378 . S
C2856 C2851 1.350 . S
C2857 H2844 0.929 . S
C2857 C2849 1.433 . S
C2857 N2859 1.384 . S
N2858 C2854 1.427 . S
N2858 C2855 1.384 . S
N2859 C2851 1.427 . S
N2859 C2857 1.384 . S
H2860 C2866 0.930 . S
H2861 C2870 0.930 . S
H2862 C2875 0.929 . S
H2863 C2873 0.929 . S
H2864 C2868 0.929 . S
H2865 C2874 0.929 . S
C2866 H2860 0.930 . S
C2866 C2867 1.367 . S
C2866 C2874 1.378 . S
C2867 C2866 1.367 . S
C2867 C2875 1.433 . S
C2868 H2864 0.929 . S
C2868 C2870 1.378 . S
C2868 C2872 1.350 . S
C2869 C2872 1.463 . S
C2869 C2874 1.350 . S
C2869 N2877 1.427 . S
C2870 H2861 0.930 . S
C2870 C2868 1.378 . S
C2870 C2871 1.367 . S
C2871 C2870 1.367 . S
C2871 C2873 1.433 . S
C2872 C2868 1.350 . S
C2872 C2869 1.463 . S
C2872 N2876 1.427 . S
C2873 H2863 0.929 . S
C2873 C2871 1.433 . S
C2873 N2876 1.384 . S
C2874 H2865 0.929 . S
C2874 C2866 1.378 . S
C2874 C2869 1.350 . S
C2875 H2862 0.929 . S
C2875 C2867 1.433 . S
C2875 N2877 1.384 . S
N2876 C2872 1.427 . S
N2876 C2873 1.384 . S
N2877 C2869 1.427 . S
N2877 C2875 1.384 . S
H2878 C2884 0.930 . S
H2879 C2888 0.930 . S
H2880 C2893 0.929 . S
H2881 C2891 0.929 . S
H2882 C2886 0.929 . S
H2883 C2892 0.929 . S
C2884 H2878 0.930 . S
C2884 C2885 1.367 . S
C2884 C2892 1.378 . S
C2885 C2884 1.367 . S
C2885 C2893 1.433 . S
C2886 H2882 0.929 . S
C2886 C2888 1.378 . S
C2886 C2890 1.350 . S
C2887 C2890 1.463 . S
C2887 C2892 1.350 . S
C2887 N2895 1.427 . S
C2888 H2879 0.930 . S
C2888 C2886 1.378 . S
C2888 C2889 1.367 . S
C2889 C2888 1.367 . S
C2889 C2891 1.433 . S
C2890 C2886 1.350 . S
C2890 C2887 1.463 . S
C2890 N2894 1.427 . S
C2891 H2881 0.929 . S
C2891 C2889 1.433 . S
C2891 N2894 1.384 . S
C2892 H2883 0.929 . S
C2892 C2884 1.378 . S
C2892 C2887 1.350 . S
C2893 H2880 0.929 . S
C2893 C2885 1.433 . S
C2893 N2895 1.384 . S
N2894 C2890 1.427 . S
N2894 C2891 1.384 . S
N2895 C2887 1.427 . S
N2895 C2893 1.384 . S
H2896 C2902 0.930 . S
H2897 C2906 0.930 . S
H2898 C2911 0.929 . S
H2899 C2909 0.929 . S
H2900 C2904 0.929 . S
H2901 C2910 0.929 . S
C2902 H2896 0.930 . S
C2902 C2903 1.367 . S
C2902 C2910 1.378 . S
C2903 C2902 1.367 . S
C2903 C2911 1.433 . S
C2904 H2900 0.929 . S
C2904 C2906 1.378 . S
C2904 C2908 1.350 . S
C2905 C2908 1.463 . S
C2905 C2910 1.350 . S
C2905 N2913 1.427 . S
C2906 H2897 0.930 . S
C2906 C2904 1.378 . S
C2906 C2907 1.367 . S
C2907 C2906 1.367 . S
C2907 C2909 1.433 . S
C2908 C2904 1.350 . S
C2908 C2905 1.463 . S
C2908 N2912 1.427 . S
C2909 H2899 0.929 . S
C2909 C2907 1.433 . S
C2909 N2912 1.384 . S
C2910 H2901 0.929 . S
C2910 C2902 1.378 . S
C2910 C2905 1.350 . S
C2911 H2898 0.929 . S
C2911 C2903 1.433 . S
C2911 N2913 1.384 . S
N2912 C2908 1.427 . S
N2912 C2909 1.384 . S
N2913 C2905 1.427 . S
N2913 C2911 1.384 . S
H2914 C2920 0.930 . S
H2915 C2924 0.930 . S
H2916 C2929 0.929 . S
H2917 C2927 0.929 . S
H2918 C2922 0.929 . S
H2919 C2928 0.929 . S
C2920 H2914 0.930 . S
C2920 C2921 1.367 . S
C2920 C2928 1.378 . S
C2921 C2920 1.367 . S
C2921 C2929 1.433 . S
C2922 H2918 0.929 . S
C2922 C2924 1.378 . S
C2922 C2926 1.350 . S
C2923 C2926 1.463 . S
C2923 C2928 1.350 . S
C2923 N2931 1.427 . S
C2924 H2915 0.930 . S
C2924 C2922 1.378 . S
C2924 C2925 1.367 . S
C2925 C2924 1.367 . S
C2925 C2927 1.433 . S
C2926 C2922 1.350 . S
C2926 C2923 1.463 . S
C2926 N2930 1.427 . S
C2927 H2917 0.929 . S
C2927 C2925 1.433 . S
C2927 N2930 1.384 . S
C2928 H2919 0.929 . S
C2928 C2920 1.378 . S
C2928 C2923 1.350 . S
C2929 H2916 0.929 . S
C2929 C2921 1.433 . S
C2929 N2931 1.384 . S
N2930 C2926 1.427 . S
N2930 C2927 1.384 . S
N2931 C2923 1.427 . S
N2931 C2929 1.384 . S
H2932 C2938 0.930 . S
H2933 C2942 0.930 . S
H2934 C2947 0.929 . S
H2935 C2945 0.929 . S
H2936 C2940 0.929 . S
H2937 C2946 0.929 . S
C2938 H2932 0.930 . S
C2938 C2939 1.367 . S
C2938 C2946 1.378 . S
C2939 C2938 1.367 . S
C2939 C2947 1.433 . S
C2940 H2936 0.929 . S
C2940 C2942 1.378 . S
C2940 C2944 1.350 . S
C2941 C2944 1.463 . S
C2941 C2946 1.350 . S
C2941 N2949 1.427 . S
C2942 H2933 0.930 . S
C2942 C2940 1.378 . S
C2942 C2943 1.367 . S
C2943 C2942 1.367 . S
C2943 C2945 1.433 . S
C2944 C2940 1.350 . S
C2944 C2941 1.463 . S
C2944 N2948 1.427 . S
C2945 H2935 0.929 . S
C2945 C2943 1.433 . S
C2945 N2948 1.384 . S
C2946 H2937 0.929 . S
C2946 C2938 1.378 . S
C2946 C2941 1.350 . S
C2947 H2934 0.929 . S
C2947 C2939 1.433 . S
C2947 N2949 1.384 . S
N2948 C2944 1.427 . S
N2948 C2945 1.384 . S
N2949 C2941 1.427 . S
N2949 C2947 1.384 . S
H2950 C2956 0.930 . S
H2951 C2960 0.930 . S
H2952 C2965 0.929 . S
H2953 C2963 0.929 . S
H2954 C2958 0.929 . S
H2955 C2964 0.929 . S
C2956 H2950 0.930 . S
C2956 C2957 1.367 . S
C2956 C2964 1.378 . S
C2957 C2956 1.367 . S
C2957 C2965 1.433 . S
C2958 H2954 0.929 . S
C2958 C2960 1.378 . S
C2958 C2962 1.350 . S
C2959 C2962 1.463 . S
C2959 C2964 1.350 . S
C2959 N2967 1.427 . S
C2960 H2951 0.930 . S
C2960 C2958 1.378 . S
C2960 C2961 1.367 . S
C2961 C2960 1.367 . S
C2961 C2963 1.433 . S
C2962 C2958 1.350 . S
C2962 C2959 1.463 . S
C2962 N2966 1.427 . S
C2963 H2953 0.929 . S
C2963 C2961 1.433 . S
C2963 N2966 1.384 . S
C2964 H2955 0.929 . S
C2964 C2956 1.378 . S
C2964 C2959 1.350 . S
C2965 H2952 0.929 . S
C2965 C2957 1.433 . S
C2965 N2967 1.384 . S
N2966 C2962 1.427 . S
N2966 C2963 1.384 . S
N2967 C2959 1.427 . S
N2967 C2965 1.384 . S
H2968 C2974 0.930 . S
H2969 C2978 0.930 . S
H2970 C2983 0.929 . S
H2971 C2981 0.929 . S
H2972 C2976 0.929 . S
H2973 C2982 0.929 . S
C2974 H2968 0.930 . S
C2974 C2975 1.367 . S
C2974 C2982 1.378 . S
C2975 C2974 1.367 . S
C2975 C2983 1.433 . S
C2976 H2972 0.929 . S
C2976 C2978 1.378 . S
C2976 C2980 1.350 . S
C2977 C2980 1.463 . S
C2977 C2982 1.350 . S
C2977 N2985 1.427 . S
C2978 H2969 0.930 . S
C2978 C2976 1.378 . S
C2978 C2979 1.367 . S
C2979 C2978 1.367 . S
C2979 C2981 1.433 . S
C2980 C2976 1.350 . S
C2980 C2977 1.463 . S
C2980 N2984 1.427 . S
C2981 H2971 0.929 . S
C2981 C2979 1.433 . S
C2981 N2984 1.384 . S
C2982 H2973 0.929 . S
C2982 C2974 1.378 . S
C2982 C2977 1.350 . S
C2983 H2970 0.929 . S
C2983 C2975 1.433 . S
C2983 N2985 1.384 . S
N2984 C2980 1.427 . S
N2984 C2981 1.384 . S
N2985 C2977 1.427 . S
N2985 C2983 1.384 . S
H2986 C2992 0.930 . S
H2987 C2996 0.930 . S
H2988 C3001 0.929 . S
H2989 C2999 0.929 . S
H2990 C2994 0.929 . S
H2991 C3000 0.929 . S
C2992 H2986 0.930 . S
C2992 C2993 1.367 . S
C2992 C3000 1.378 . S
C2993 C2992 1.367 . S
C2993 C3001 1.433 . S
C2994 H2990 0.929 . S
C2994 C2996 1.378 . S
C2994 C2998 1.350 . S
C2995 C2998 1.463 . S
C2995 C3000 1.350 . S
C2995 N3003 1.427 . S
C2996 H2987 0.930 . S
C2996 C2994 1.378 . S
C2996 C2997 1.367 . S
C2997 C2996 1.367 . S
C2997 C2999 1.433 . S
C2998 C2994 1.350 . S
C2998 C2995 1.463 . S
C2998 N3002 1.427 . S
C2999 H2989 0.929 . S
C2999 C2997 1.433 . S
C2999 N3002 1.384 . S
C3000 H2991 0.929 . S
C3000 C2992 1.378 . S
C3000 C2995 1.350 . S
C3001 H2988 0.929 . S
C3001 C2993 1.433 . S
C3001 N3003 1.384 . S
N3002 C2998 1.427 . S
N3002 C2999 1.384 . S
N3003 C2995 1.427 . S
N3003 C3001 1.384 . S
H3004 C3010 0.930 . S
H3005 C3014 0.930 . S
H3006 C3019 0.929 . S
H3007 C3017 0.929 . S
H3008 C3012 0.929 . S
H3009 C3018 0.929 . S
C3010 H3004 0.930 . S
C3010 C3011 1.367 . S
C3010 C3018 1.378 . S
C3011 C3010 1.367 . S
C3011 C3019 1.433 . S
C3012 H3008 0.929 . S
C3012 C3014 1.378 . S
C3012 C3016 1.350 . S
C3013 C3016 1.463 . S
C3013 C3018 1.350 . S
C3013 N3021 1.427 . S
C3014 H3005 0.930 . S
C3014 C3012 1.378 . S
C3014 C3015 1.367 . S
C3015 C3014 1.367 . S
C3015 C3017 1.433 . S
C3016 C3012 1.350 . S
C3016 C3013 1.463 . S
C3016 N3020 1.427 . S
C3017 H3007 0.929 . S
C3017 C3015 1.433 . S
C3017 N3020 1.384 . S
C3018 H3009 0.929 . S
C3018 C3010 1.378 . S
C3018 C3013 1.350 . S
C3019 H3006 0.929 . S
C3019 C3011 1.433 . S
C3019 N3021 1.384 . S
N3020 C3016 1.427 . S
N3020 C3017 1.384 . S
N3021 C3013 1.427 . S
N3021 C3019 1.384 . S
H3022 C3028 0.930 . S
H3023 C3032 0.930 . S
H3024 C3037 0.929 . S
H3025 C3035 0.929 . S
H3026 C3030 0.929 . S
H3027 C3036 0.929 . S
C3028 H3022 0.930 . S
C3028 C3029 1.367 . S
C3028 C3036 1.378 . S
C3029 C3028 1.367 . S
C3029 C3037 1.433 . S
C3030 H3026 0.929 . S
C3030 C3032 1.378 . S
C3030 C3034 1.350 . S
C3031 C3034 1.463 . S
C3031 C3036 1.350 . S
C3031 N3039 1.427 . S
C3032 H3023 0.930 . S
C3032 C3030 1.378 . S
C3032 C3033 1.367 . S
C3033 C3032 1.367 . S
C3033 C3035 1.433 . S
C3034 C3030 1.350 . S
C3034 C3031 1.463 . S
C3034 N3038 1.427 . S
C3035 H3025 0.929 . S
C3035 C3033 1.433 . S
C3035 N3038 1.384 . S
C3036 H3027 0.929 . S
C3036 C3028 1.378 . S
C3036 C3031 1.350 . S
C3037 H3024 0.929 . S
C3037 C3029 1.433 . S
C3037 N3039 1.384 . S
N3038 C3034 1.427 . S
N3038 C3035 1.384 . S
N3039 C3031 1.427 . S
N3039 C3037 1.384 . S
C1895 C583 1.450 . S
C1899 C33 1.471 . S
C1913 C92 1.471 1_455 S
C1917 C1586 1.447 . S
C1931 C701 1.447 . S
C1935 C151 1.470 . S
C1949 C1468 1.447 . S
C1953 C210 1.471 . S
C1967 C269 1.471 . S
C1971 C937 1.447 . S
C1985 C1704 1.456 . S
C1989 C328 1.470 . S
C2003 C387 1.470 . S
C2007 C819 1.455 . S
C2021 C1822 1.453 . S
C2025 C446 1.471 1_455 S
C2039 C111 1.455 . S
C2043 C505 1.470 . S
C2057 C564 1.470 1_655 S
C2061 C1114 1.449 . S
C2075 C229 1.447 . S
C2079 C623 1.470 . S
C2093 C682 1.471 . S
C2097 C996 1.447 . S
C2111 C741 1.471 . S
C2115 C465 1.449 . S
C2129 C1232 1.451 . S
C2133 C800 1.471 . S
C2147 C859 1.469 . S
C2151 C347 1.453 . S
C2165 C1350 1.453 . S
C2169 C918 1.469 1_655 S
C2183 C1527 1.453 . S
C2187 C977 1.469 . S
C2201 C642 1.454 . S
C2205 C1036 1.471 . S
C2219 C1095 1.470 . S
C2223 C1645 1.456 . S
C2237 C524 1.456 . S
C2241 C1154 1.470 1_655 S
C2255 C1881 1.455 . S
C2259 C1213 1.470 . S
C2273 C1272 1.470 1_655 S
C2277 C760 1.450 . S
C2291 C1763 1.453 . S
C2295 C1331 1.471 . S
C2309 C878 1.447 . S
C2313 C1390 1.470 . S
C2327 C1055 1.455 . S
C2331 C1449 1.471 . S
C2345 C1508 1.470 . S
C2349 C170 1.447 . S
C2363 C1567 1.471 . S
C2367 C1173 1.448 . S
C2381 C1626 1.470 1_455 S
C2385 C52 1.448 . S
C2399 C1409 1.456 . S
C2403 C1685 1.470 . S
C2417 C1744 1.470 1_455 S
C2421 C288 1.452 . S
C2435 C1803 1.471 . S
C2439 C1291 1.447 . S
C2453 C1862 1.469 . S
C2457 C406 1.454 . S
C2471 C1421 1.433 . S
C2475 C5 1.433 . S
C2489 C64 1.437 . S
C2493 C536 1.437 . S
C2507 C123 1.433 . S
C2511 C1539 1.433 . S
C2525 C182 1.433 . S
C2529 C654 1.433 . S
C2543 C241 1.441 . S
C2547 C1657 1.441 . S
C2561 C300 1.443 . S
C2565 C772 1.443 . S
C2579 C1775 1.433 . S
C2583 C359 1.433 . S
C2597 C418 1.445 . S
C2601 C890 1.445 . S
C2615 C477 1.434 . S
C2619 C949 1.434 . S
C2633 C595 1.433 . S
C2637 C1067 1.433 . S
C2651 C1185 1.443 . S
C2655 C713 1.443 . S
C2669 C1303 1.441 . S
C2673 C831 1.441 . S
C2687 C1008 1.438 . S
C2691 C1480 1.438 . S
C2705 C1598 1.445 . S
C2709 C1126 1.445 . S
C2723 C1244 1.434 . S
C2727 C1716 1.434 . S
C2741 C1834 1.433 . S
C2745 C1362 1.433 . S
C2759 C1242 1.595 . S
C2763 C3 1.596 . S
C2777 C1301 1.596 . S
C2781 C62 1.595 . S
C2795 C121 1.601 . S
C2799 C1360 1.597 . S
C2813 C1183 1.600 . S
C2817 C180 1.596 . S
C2831 C1124 1.595 . S
C2835 C239 1.596 . S
C2849 C947 1.601 . S
C2853 C298 1.598 . S
C2867 C357 1.599 . S
C2871 C1006 1.601 . S
C2885 C1065 1.595 . S
C2889 C416 1.599 . S
C2903 C1714 1.600 . S
C2907 C475 1.596 . S
C2921 C1773 1.595 . S
C2925 C534 1.596 . S
C2939 C1832 1.600 . S
C2943 C593 1.601 . S
C2957 C652 1.600 . S
C2961 C1655 1.596 . S
C2975 C1596 1.600 . S
C2979 C711 1.597 . S
C2993 C1419 1.595 . S
C2997 C770 1.596 . S
C3011 C1478 1.600 . S
C3015 C829 1.596 . S
C3029 C1537 1.598 . S
C3033 C888 1.595 . S
