# Generated by pormake.
# Topology mmt, (4)-cn, num edge types: 1
# Building blocks:
#     Node 0, Type 0, BuildingBlock: UXUYUI_clean_sbu_0, # of connection points: 4
#     Node 1, Type 0, BuildingBlock: UXUYUI_clean_sbu_0, # of connection points: 4
#     Node 2, Type 0, BuildingBlock: UXUYUI_clean_sbu_0, # of connection points: 4
#     Node 3, Type 0, BuildingBlock: UXUYUI_clean_sbu_0, # of connection points: 4
#     Node 4, Type 0, BuildingBlock: UXUYUI_clean_sbu_0, # of connection points: 4
#     Node 5, Type 0, BuildingBlock: UXUYUI_clean_sbu_0, # of connection points: 4
#     Node 6, Type 0, BuildingBlock: UXUYUI_clean_sbu_0, # of connection points: 4
#     Node 7, Type 0, BuildingBlock: UXUYUI_clean_sbu_0, # of connection points: 4
#     Edge 8, Type (0, 0), BuildingBlock: UVAHIK_clean_linker_0, # of connection points: 2
#     Edge 9, Type (0, 0), BuildingBlock: UVAHIK_clean_linker_0, # of connection points: 2
#     Edge 10, Type (0, 0), BuildingBlock: UVAHIK_clean_linker_0, # of connection points: 2
#     Edge 11, Type (0, 0), BuildingBlock: UVAHIK_clean_linker_0, # of connection points: 2
#     Edge 12, Type (0, 0), BuildingBlock: UVAHIK_clean_linker_0, # of connection points: 2
#     Edge 13, Type (0, 0), BuildingBlock: UVAHIK_clean_linker_0, # of connection points: 2
#     Edge 14, Type (0, 0), BuildingBlock: UVAHIK_clean_linker_0, # of connection points: 2
#     Edge 15, Type (0, 0), BuildingBlock: UVAHIK_clean_linker_0, # of connection points: 2
#     Edge 16, Type (0, 0), BuildingBlock: UVAHIK_clean_linker_0, # of connection points: 2
#     Edge 17, Type (0, 0), BuildingBlock: UVAHIK_clean_linker_0, # of connection points: 2
#     Edge 18, Type (0, 0), BuildingBlock: UVAHIK_clean_linker_0, # of connection points: 2
#     Edge 19, Type (0, 0), BuildingBlock: UVAHIK_clean_linker_0, # of connection points: 2
#     Edge 20, Type (0, 0), BuildingBlock: UVAHIK_clean_linker_0, # of connection points: 2
#     Edge 21, Type (0, 0), BuildingBlock: UVAHIK_clean_linker_0, # of connection points: 2
#     Edge 22, Type (0, 0), BuildingBlock: UVAHIK_clean_linker_0, # of connection points: 2
#     Edge 23, Type (0, 0), BuildingBlock: UVAHIK_clean_linker_0, # of connection points: 2
# Relax obj value: 0.161
# Max RMSD: 0.176
# Mean RMSD: 0.176
data_MOF--net-mmt--node1-UXUYUI_clean_sbu_0--edge1-UVAHIK_clean_linker_0
_symmetry_space_group_name_H-M    P1
_symmetry_Int_Tables_number       1
_symmetry_cell_setting            triclinic
loop_
_symmetry_equiv_pos_as_xyz
'x, y, z'
_cell_length_a     37.911206
_cell_length_b     69.010703
_cell_length_c     76.459413
_cell_angle_alpha  89.992666
_cell_angle_beta   90.063329
_cell_angle_gamma 90.010822
loop_
_atom_site_label
_atom_site_type_symbol
_atom_site_fract_x
_atom_site_fract_y
_atom_site_fract_z
_atom_type_partial_charge
Li0 Li 0.09344 0.56318 0.33492 0.0
Li1 Li 0.11311 0.55815 0.36497 0.0
Li2 Li 0.12907 0.58739 0.34909 0.0
Li3 Li 0.15503 0.55611 0.34172 0.0
C4 C 0.06768 0.59507 0.36253 0.0
N5 N 0.04368 0.62964 0.37629 0.0
C6 C 0.06984 0.5985 0.38052 0.0
C7 C 0.05316 0.60917 0.35155 0.0
C8 C 0.05757 0.61608 0.38722 0.0
C9 C 0.04124 0.62657 0.35876 0.0
C10 C 0.0992 0.52357 0.35303 0.0
C11 C 0.10313 0.49664 0.37305 0.0
N12 N 0.06851 0.49258 0.37012 0.0
C13 C 0.06368 0.51911 0.35018 0.0
C14 C 0.11915 0.51221 0.3645 0.0
C15 C 0.04866 0.50338 0.35895 0.0
C16 C 0.06524 0.54563 0.30522 0.0
N17 N 0.05721 0.55798 0.31844 0.0
C18 C -0.00142 0.56182 0.30752 0.0
C19 C 0.02464 0.56602 0.3199 0.0
C20 C 0.0063 0.54938 0.29343 0.0
C21 C 0.04035 0.54138 0.29237 0.0
H22 H 0.09121 0.53919 0.3046 0.0
H23 H 0.01881 0.57552 0.33076 0.0
C24 C 0.12205 0.54482 0.39997 0.0
N25 N 0.09845 0.54829 0.38696 0.0
C26 C 0.11066 0.53728 0.41595 0.0
C27 C 0.05089 0.53734 0.40485 0.0
C28 C 0.06344 0.54488 0.38913 0.0
C29 C 0.07463 0.53338 0.41852 0.0
H30 H 0.14969 0.54786 0.39794 0.0
H31 H 0.04527 0.54801 0.37858 0.0
C32 C 0.12857 0.57817 0.30843 0.0
N33 N 0.11073 0.58096 0.27344 0.0
C34 C 0.14524 0.56639 0.29606 0.0
C35 C 0.10284 0.59138 0.30297 0.0
C36 C 0.13587 0.56804 0.27844 0.0
C37 C 0.09417 0.59256 0.28524 0.0
C38 C 0.19506 0.56941 0.36622 0.0
C39 C 0.21695 0.58475 0.36126 0.0
C40 C 0.20999 0.55231 0.37266 0.0
C41 C 0.25348 0.58272 0.36282 0.0
C42 C 0.24665 0.55083 0.37399 0.0
N43 N 0.26745 0.56594 0.36909 0.0
C44 C 0.14618 0.6213 0.36776 0.0
C45 C 0.14026 0.62578 0.33715 0.0
C46 C 0.1558 0.64068 0.36993 0.0
N47 N 0.13883 0.61427 0.35154 0.0
C48 C 0.14949 0.64527 0.33873 0.0
C49 C 0.15778 0.65288 0.35527 0.0
H50 H 0.14526 0.61172 0.37894 0.0
H51 H 0.13511 0.61976 0.32439 0.0
C52 C 0.20022 0.52443 0.33372 0.0
N53 N 0.19611 0.54397 0.33278 0.0
C54 C 0.22877 0.51553 0.32545 0.0
C55 C 0.24839 0.54707 0.31566 0.0
C56 C 0.21977 0.55537 0.32429 0.0
C57 C 0.25275 0.52688 0.31594 0.0
H58 H 0.18077 0.51572 0.34038 0.0
H59 H 0.2156 0.57086 0.32367 0.0
O60 O 0.08032 0.57815 0.35566 0.0
O61 O 0.11418 0.53918 0.34488 0.0
O62 O 0.137 0.57659 0.32579 0.0
O63 O 0.15927 0.57094 0.36442 0.0
H64 H 0.08126 0.58781 0.38919 0.0
H65 H 0.05141 0.60677 0.3376 0.0
H66 H 0.05923 0.61897 0.4011 0.0
H67 H 0.03013 0.63766 0.35041 0.0
H68 H 0.11817 0.48783 0.38208 0.0
H69 H 0.04777 0.52778 0.34143 0.0
H70 H 0.14654 0.5156 0.36704 0.0
H71 H 0.02117 0.49981 0.35693 0.0
H72 H 0.97258 0.56802 0.30918 0.0
H73 H 0.04797 0.53201 0.28168 0.0
H74 H 0.12989 0.53431 0.42608 0.0
H75 H 0.02285 0.53488 0.40636 0.0
H76 H 0.16483 0.55589 0.30001 0.0
H77 H 0.08923 0.60039 0.31235 0.0
H78 H 0.14847 0.55896 0.26876 0.0
H79 H 0.07414 0.60262 0.28087 0.0
H80 H 0.20593 0.59801 0.35606 0.0
H81 H 0.1935 0.54017 0.37629 0.0
H82 H 0.27074 0.59445 0.35898 0.0
H83 H 0.25856 0.53764 0.37884 0.0
H84 H 0.16186 0.64603 0.38291 0.0
H85 H 0.15132 0.6541 0.32706 0.0
H86 H 0.23113 0.49989 0.32579 0.0
H87 H 0.26649 0.55628 0.30852 0.0
Li88 Li 0.33568 0.93997 0.3392 0.0
Li89 Li 0.35579 0.90608 0.34522 0.0
Li90 Li 0.3777 0.93425 0.36298 0.0
Li91 Li 0.39401 0.93005 0.33326 0.0
C92 C 0.29479 0.91752 0.36338 0.0
N93 N 0.22763 0.90297 0.36833 0.0
C94 C 0.27663 0.90891 0.34947 0.0
C95 C 0.2788 0.91871 0.37979 0.0
C96 C 0.24271 0.90163 0.35224 0.0
C97 C 0.2448 0.9113 0.38203 0.0
C98 C 0.36247 0.91568 0.30619 0.0
C99 C 0.39422 0.89515 0.28611 0.0
N100 N 0.38935 0.9085 0.27324 0.0
C101 C 0.35763 0.92915 0.29275 0.0
C102 C 0.38085 0.89852 0.30286 0.0
C103 C 0.3715 0.92528 0.27619 0.0
C104 C 0.31017 0.96986 0.31883 0.0
N105 N 0.29909 0.95658 0.33074 0.0
C106 C 0.2396 0.96758 0.32779 0.0
C107 C 0.2647 0.95562 0.33569 0.0
C108 C 0.25007 0.98103 0.31497 0.0
C109 C 0.28613 0.98235 0.31086 0.0
H110 H 0.33781 0.97062 0.31541 0.0
H111 H 0.25641 0.94551 0.34558 0.0
C112 C 0.34373 0.87042 0.36205 0.0
N113 N 0.34094 0.87989 0.34653 0.0
C114 C 0.32941 0.85188 0.36398 0.0
C115 C 0.31037 0.85314 0.33381 0.0
C116 C 0.32492 0.87163 0.33249 0.0
C117 C 0.312 0.84312 0.34979 0.0
H118 H 0.35614 0.87753 0.37306 0.0
H119 H 0.3224 0.87965 0.32041 0.0
C120 C 0.37045 0.97168 0.35224 0.0
N121 N 0.35283 0.0066 0.36766 0.0
C122 C 0.39002 0.98836 0.34858 0.0
C123 C 0.34195 0.97277 0.36381 0.0
C124 C 0.38069 0.00587 0.35649 0.0
C125 C 0.33345 0.99055 0.37145 0.0
C126 C 0.43751 0.90559 0.35106 0.0
C127 C 0.46595 0.91792 0.35442 0.0
C128 C 0.44368 0.88648 0.34586 0.0
C129 C 0.50028 0.91098 0.35225 0.0
C130 C 0.47841 0.88007 0.34388 0.0
N131 N 0.50574 0.89236 0.34706 0.0
C132 C 0.37799 0.93572 0.40017 0.0
C133 C 0.41986 0.95562 0.38575 0.0
C134 C 0.3895 0.9424 0.41647 0.0
N135 N 0.39319 0.94248 0.38528 0.0
C136 C 0.43203 0.96274 0.40169 0.0
C137 C 0.41673 0.9562 0.41733 0.0
H138 H 0.35689 0.92521 0.39936 0.0
H139 H 0.43159 0.96062 0.37368 0.0
C140 C 0.43158 0.95378 0.31102 0.0
N141 N 0.43112 0.93518 0.31681 0.0
C142 C 0.45687 0.95985 0.29902 0.0
C143 C 0.48043 0.92733 0.29862 0.0
C144 C 0.45457 0.92188 0.31068 0.0
C145 C 0.482 0.94662 0.29279 0.0
H146 H 0.41197 0.96392 0.3156 0.0
H147 H 0.45313 0.90701 0.31497 0.0
O148 O 0.32851 0.92414 0.36116 0.0
O149 O 0.34975 0.91939 0.32258 0.0
O150 O 0.37962 0.95443 0.34461 0.0
O151 O 0.40374 0.91202 0.35322 0.0
H152 H 0.28839 0.90807 0.33662 0.0
H153 H 0.29253 0.92527 0.39071 0.0
H154 H 0.22836 0.89495 0.34159 0.0
H155 H 0.23209 0.91214 0.39467 0.0
H156 H 0.4087 0.88199 0.28338 0.0
H157 H 0.34347 0.9425 0.29509 0.0
H158 H 0.38535 0.88807 0.31318 0.0
H159 H 0.36809 0.93561 0.26569 0.0
H160 H 0.21218 0.96586 0.3314 0.0
H161 H 0.29581 0.99283 0.30148 0.0
H162 H 0.33091 0.84479 0.37659 0.0
H163 H 0.29761 0.84686 0.32247 0.0
H164 H 0.41231 0.98778 0.33977 0.0
H165 H 0.32647 0.96011 0.36692 0.0
H166 H 0.39563 0.01888 0.35377 0.0
H167 H 0.31146 0.99159 0.3804 0.0
H168 H 0.46155 0.93274 0.35848 0.0
H169 H 0.42187 0.87675 0.34332 0.0
H170 H 0.52258 0.92039 0.35467 0.0
H171 H 0.48363 0.86535 0.33979 0.0
H172 H 0.37688 0.93707 0.42823 0.0
H173 H 0.45346 0.97313 0.40178 0.0
H174 H 0.45649 0.97473 0.29453 0.0
H175 H 0.49924 0.91664 0.2941 0.0
Li176 Li 0.65324 0.43864 0.1525 0.0
Li177 Li 0.6357 0.40654 0.14455 0.0
Li178 Li 0.61386 0.43416 0.129 0.0
Li179 Li 0.59344 0.42908 0.15904 0.0
C180 C 0.6973 0.41901 0.1295 0.0
N181 N 0.76626 0.40615 0.12806 0.0
C182 C 0.71444 0.41286 0.14473 0.0
C183 C 0.71522 0.41858 0.11355 0.0
C184 C 0.74931 0.40642 0.14372 0.0
C185 C 0.75009 0.41205 0.11309 0.0
C186 C 0.62992 0.40547 0.18169 0.0
C187 C 0.59532 0.37896 0.193 0.0
N188 N 0.61345 0.37999 0.20833 0.0
C189 C 0.6481 0.40633 0.19758 0.0
C190 C 0.6032 0.39173 0.17938 0.0
C191 C 0.63943 0.39329 0.21088 0.0
C192 C 0.6861 0.45907 0.17916 0.0
N193 N 0.68991 0.4542 0.16205 0.0
C194 C 0.74428 0.47159 0.16037 0.0
C195 C 0.71798 0.4604 0.1525 0.0
C196 C 0.741 0.47676 0.17804 0.0
C197 C 0.71132 0.47056 0.18743 0.0
H198 H 0.66332 0.45403 0.18635 0.0
H199 H 0.72001 0.45665 0.13882 0.0
C200 C 0.65064 0.37203 0.12619 0.0
N201 N 0.65264 0.38056 0.14219 0.0
C202 C 0.66532 0.3537 0.12343 0.0
C203 C 0.68418 0.35339 0.15362 0.0
C204 C 0.66938 0.3717 0.15575 0.0
C205 C 0.68257 0.34417 0.13726 0.0
H206 H 0.63861 0.37974 0.11542 0.0
H207 H 0.67226 0.37899 0.16813 0.0
C208 C 0.62062 0.47178 0.14937 0.0
N209 N 0.64674 0.50892 0.15304 0.0
C210 C 0.61291 0.48255 0.16436 0.0
C211 C 0.6414 0.47992 0.13619 0.0
C212 C 0.62643 0.5013 0.16598 0.0
C213 C 0.6544 0.49872 0.1383 0.0
C214 C 0.55927 0.41126 0.12631 0.0
C215 C 0.53395 0.42599 0.12601 0.0
C216 C 0.55802 0.39656 0.11375 0.0
C217 C 0.50798 0.42586 0.11303 0.0
C218 C 0.53162 0.39694 0.10099 0.0
N219 N 0.50738 0.41147 0.10089 0.0
C220 C 0.60812 0.4338 0.09199 0.0
C221 C 0.57933 0.45985 0.1063 0.0
C222 C 0.59624 0.44039 0.07574 0.0
N223 N 0.5994 0.44356 0.1068 0.0
C224 C 0.56692 0.46694 0.09038 0.0
C225 C 0.5753 0.45718 0.07481 0.0
H226 H 0.62404 0.42082 0.09286 0.0
H227 H 0.57239 0.46715 0.11832 0.0
C228 C 0.56717 0.44091 0.19102 0.0
N229 N 0.55737 0.43204 0.17592 0.0
C230 C 0.54218 0.445 0.20386 0.0
C231 C 0.49754 0.43032 0.18551 0.0
C232 C 0.52355 0.42625 0.17312 0.0
C233 C 0.50675 0.44005 0.20099 0.0
H234 H 0.59437 0.44517 0.19291 0.0
H235 H 0.51662 0.41878 0.16119 0.0
O236 O 0.66298 0.42514 0.12998 0.0
O237 O 0.63786 0.41836 0.16869 0.0
O238 O 0.60852 0.4532 0.14775 0.0
O239 O 0.58543 0.41144 0.13865 0.0
H240 H 0.70111 0.41305 0.1572 0.0
H241 H 0.70226 0.42322 0.10164 0.0
H242 H 0.76288 0.40162 0.1554 0.0
H243 H 0.76427 0.41164 0.10082 0.0
H244 H 0.57476 0.36823 0.19138 0.0
H245 H 0.66871 0.41696 0.19959 0.0
H246 H 0.58872 0.39088 0.16721 0.0
H247 H 0.65333 0.39377 0.22323 0.0
H248 H 0.76681 0.47625 0.15274 0.0
H249 H 0.70812 0.47419 0.20112 0.0
H250 H 0.66408 0.34733 0.1105 0.0
H251 H 0.69698 0.34659 0.1647 0.0
H252 H 0.59688 0.47645 0.17468 0.0
H253 H 0.64785 0.47169 0.12457 0.0
H254 H 0.62084 0.50978 0.17755 0.0
H255 H 0.67071 0.50516 0.12826 0.0
H256 H 0.53483 0.43764 0.13547 0.0
H257 H 0.57718 0.38498 0.11385 0.0
H258 H 0.48844 0.43727 0.11256 0.0
H259 H 0.53041 0.38568 0.09117 0.0
H260 H 0.60355 0.43252 0.06404 0.0
H261 H 0.55032 0.47971 0.09032 0.0
H262 H 0.55023 0.45264 0.21558 0.0
H263 H 0.47049 0.42612 0.18297 0.0
Li264 Li 0.84221 0.05491 0.15103 0.0
Li265 Li 0.86317 0.08783 0.14207 0.0
Li266 Li 0.88404 0.05692 0.12782 0.0
Li267 Li 0.90229 0.06487 0.15671 0.0
C268 C 0.80055 0.06574 0.12547 0.0
N269 N 0.72883 0.06022 0.12132 0.0
C270 C 0.77717 0.08112 0.12812 0.0
C271 C 0.78746 0.04758 0.12061 0.0
C272 C 0.741 0.07803 0.12596 0.0
C273 C 0.75111 0.04507 0.11862 0.0
C274 C 0.86532 0.07828 0.1831 0.0
C275 C 0.8918 0.09513 0.20745 0.0
N276 N 0.88293 0.08017 0.21815 0.0
C277 C 0.85646 0.06307 0.19435 0.0
C278 C 0.88313 0.09446 0.18969 0.0
C279 C 0.86558 0.0643 0.21202 0.0
C280 C 0.80265 0.02251 0.16311 0.0
N281 N 0.80262 0.04203 0.16077 0.0
C282 C 0.74701 0.04485 0.17514 0.0
C283 C 0.77559 0.05324 0.16655 0.0
C284 C 0.74652 0.02475 0.17809 0.0
C285 C 0.77462 0.0135 0.17173 0.0
H286 H 0.82492 0.01401 0.15878 0.0
H287 H 0.77665 0.06878 0.16478 0.0
C288 C 0.84847 0.12162 0.12245 0.0
N289 N 0.84958 0.11395 0.13883 0.0
C290 C 0.83753 0.14077 0.11996 0.0
C291 C 0.8296 0.1437 0.15124 0.0
C292 C 0.84012 0.12447 0.15309 0.0
C293 C 0.82817 0.15205 0.13452 0.0
H294 H 0.85586 0.11279 0.11135 0.0
H295 H 0.84034 0.11785 0.16588 0.0
C296 C 0.89993 0.02355 0.14069 0.0
N297 N 0.92981 0.99204 0.12403 0.0
C298 C 0.93613 0.02004 0.14214 0.0
C299 C 0.87891 0.01098 0.13083 0.0
C300 C 0.95073 0.00403 0.13362 0.0
C301 C 0.89453 0.99516 0.12247 0.0
C302 C 0.94356 0.08908 0.13729 0.0
C303 C 0.97471 0.07823 0.13728 0.0
C304 C 0.94522 0.10919 0.13934 0.0
C305 C 0.00702 0.08769 0.13938 0.0
C306 C 0.97806 0.11811 0.14139 0.0
N307 N 0.00801 0.10727 0.14137 0.0
C308 C 0.87377 0.04265 0.09323 0.0
C309 C 0.93297 0.04272 0.10315 0.0
C310 C 0.88408 0.03474 0.0772 0.0
N311 N 0.89818 0.04635 0.10584 0.0
C312 C 0.94443 0.03479 0.0874 0.0
C313 C 0.91986 0.03065 0.07417 0.0
H314 H 0.8463 0.04583 0.09561 0.0
H315 H 0.95188 0.04587 0.11328 0.0
C316 C 0.93832 0.04554 0.18321 0.0
N317 N 0.93819 0.06263 0.17437 0.0
C318 C 0.96217 0.04242 0.19681 0.0
C319 C 0.98535 0.07463 0.19215 0.0
C320 C 0.96048 0.07729 0.17888 0.0
C321 C 0.98628 0.05701 0.20125 0.0
H322 H 0.91958 0.03435 0.17979 0.0
H323 H 0.95868 0.09116 0.17244 0.0
O324 O 0.83601 0.06839 0.12782 0.0
O325 O 0.85754 0.07708 0.16566 0.0
O326 O 0.88523 0.03936 0.14865 0.0
O327 O 0.91163 0.08018 0.13498 0.0
H328 H 0.78677 0.09526 0.13194 0.0
H329 H 0.80513 0.03548 0.11863 0.0
H330 H 0.7226 0.08979 0.12804 0.0
H331 H 0.74061 0.03106 0.11498 0.0
H332 H 0.90581 0.1075 0.21269 0.0
H333 H 0.84311 0.05032 0.18946 0.0
H334 H 0.89092 0.10618 0.18112 0.0
H335 H 0.85903 0.0526 0.22085 0.0
H336 H 0.72575 0.05406 0.17964 0.0
H337 H 0.77561 -0.00199 0.17396 0.0
H338 H 0.83672 0.14675 0.10687 0.0
H339 H 0.82198 0.15186 0.16273 0.0
H340 H 0.95291 0.02972 0.14953 0.0
H341 H 0.85092 0.01356 0.12943 0.0
H342 H 0.97874 0.0012 0.13456 0.0
H343 H 0.87861 0.9854 0.11471 0.0
H344 H 0.97399 0.06264 0.13615 0.0
H345 H 0.92146 0.11784 0.13935 0.0
H346 H 0.0313 0.07946 0.13954 0.0
H347 H 0.97971 0.13366 0.143 0.0
H348 H 0.86424 0.03168 0.06738 0.0
H349 H 0.97234 0.03218 0.08553 0.0
H350 H 0.96212 0.02865 0.20362 0.0
H351 H 0.00323 0.08631 0.19549 0.0
Li352 Li 0.84038 0.43982 0.65429 0.0
Li353 Li 0.89926 0.42835 0.66242 0.0
Li354 Li 0.8845 0.43629 0.63218 0.0
Li355 Li 0.86057 0.4074 0.64617 0.0
C356 C 0.90316 0.46928 0.64624 0.0
N357 N 0.94033 0.49963 0.63159 0.0
C358 C 0.9392 0.47135 0.64961 0.0
C359 C 0.88595 0.4827 0.63553 0.0
C360 C 0.95753 0.48679 0.64207 0.0
C361 C 0.90523 0.49792 0.62821 0.0
C362 C 0.85738 0.41538 0.68726 0.0
C363 C 0.88373 0.39834 0.71154 0.0
N364 N 0.869 0.4113 0.72276 0.0
C365 C 0.84241 0.42849 0.69905 0.0
C366 C 0.87809 0.40012 0.69355 0.0
C367 C 0.84861 0.42618 0.71694 0.0
C368 C 0.77159 0.44436 0.66713 0.0
N369 N 0.80143 0.45417 0.66287 0.0
C370 C 0.77828 0.48338 0.67504 0.0
C371 C 0.80511 0.47335 0.66642 0.0
C372 C 0.74748 0.4735 0.68009 0.0
C373 C 0.744 0.45384 0.67561 0.0
H374 H 0.76976 0.429 0.66451 0.0
H375 H 0.82949 0.48067 0.66324 0.0
C376 C 0.9647 0.41943 0.67869 0.0
N377 N 0.93463 0.43006 0.67991 0.0
C378 C 0.99099 0.42126 0.6914 0.0
C379 C 0.95458 0.44473 0.7064 0.0
C380 C 0.92928 0.44267 0.69329 0.0
C381 C 0.98599 0.43404 0.70547 0.0
H382 H 0.96847 0.40975 0.66775 0.0
H383 H 0.90544 0.45126 0.69367 0.0
C384 C 0.80128 0.43001 0.62736 0.0
N385 N 0.73093 0.4374 0.62067 0.0
C386 C 0.77632 0.41522 0.62899 0.0
C387 C 0.79051 0.44853 0.62222 0.0
C388 C 0.74087 0.41925 0.62556 0.0
C389 C 0.7548 0.45199 0.61894 0.0
C390 C 0.92268 0.39666 0.63436 0.0
C391 C 0.92594 0.39459 0.61625 0.0
C392 C 0.93043 0.381 0.6453 0.0
C393 C 0.93672 0.3768 0.60937 0.0
C394 C 0.94103 0.36343 0.63791 0.0
N395 N 0.94393 0.36171 0.62025 0.0
C396 C 0.93884 0.44831 0.60977 0.0
C397 C 0.88146 0.45135 0.5977 0.0
C398 C 0.95388 0.45564 0.59449 0.0
N399 N 0.90327 0.44642 0.61109 0.0
C400 C 0.89538 0.45866 0.58215 0.0
C401 C 0.93206 0.46088 0.58041 0.0
H402 H 0.95551 0.44402 0.62058 0.0
H403 H 0.8533 0.44954 0.59907 0.0
C404 C 0.83614 0.37081 0.65689 0.0
N405 N 0.84609 0.38133 0.64272 0.0
C406 C 0.82545 0.3516 0.65494 0.0
C407 C 0.83496 0.35446 0.62379 0.0
C408 C 0.84528 0.37369 0.62634 0.0
C409 C 0.82496 0.34312 0.63823 0.0
H410 H 0.83618 0.37738 0.6697 0.0
H411 H 0.85275 0.38253 0.61527 0.0
O412 O 0.88491 0.45401 0.65317 0.0
O413 O 0.8521 0.41756 0.66966 0.0
O414 O 0.83606 0.42642 0.63084 0.0
O415 O 0.91165 0.41386 0.64134 0.0
H416 H 0.95296 0.46104 0.65781 0.0
H417 H 0.85809 0.48124 0.63274 0.0
H418 H 0.98548 0.48853 0.64449 0.0
H419 H 0.89232 0.50834 0.61979 0.0
H420 H 0.8999 0.38668 0.71657 0.0
H421 H 0.82646 0.44044 0.69446 0.0
H422 H 0.89005 0.38991 0.68462 0.0
H423 H 0.83732 0.43627 0.7262 0.0
H424 H 0.78238 0.49844 0.67846 0.0
H425 H 0.72059 0.44569 0.67903 0.0
H426 H 0.01495 0.41282 0.69024 0.0
H427 H 0.95008 0.455 0.71688 0.0
H428 H 0.78416 0.40081 0.63299 0.0
H429 H 0.80945 0.46018 0.621 0.0
H430 H 0.72124 0.40796 0.62684 0.0
H431 H 0.74606 0.46628 0.61507 0.0
H432 H 0.91987 0.40652 0.60758 0.0
H433 H 0.92789 0.38233 0.65934 0.0
H434 H 0.93921 0.37496 0.59538 0.0
H435 H 0.94688 0.35115 0.64622 0.0
H436 H 0.9823 0.45685 0.59361 0.0
H437 H 0.87761 0.46268 0.57166 0.0
H438 H 0.81715 0.34359 0.6664 0.0
H439 H 0.83517 0.34852 0.61068 0.0
Li440 Li 0.60008 0.06587 0.65766 0.0
Li441 Li 0.65665 0.05349 0.65121 0.0
Li442 Li 0.64203 0.08665 0.64314 0.0
Li443 Li 0.61395 0.05757 0.62769 0.0
C444 C 0.64461 0.08567 0.68192 0.0
N445 N 0.6424 0.10639 0.71286 0.0
C446 C 0.65434 0.07686 0.69768 0.0
C447 C 0.63411 0.10509 0.68191 0.0
C448 C 0.65292 0.08755 0.71318 0.0
C449 C 0.63309 0.1153 0.69768 0.0
C450 C 0.60847 0.02502 0.65933 0.0
C451 C 0.59692 0.99132 0.66539 0.0
N452 N 0.60313 0.99459 0.68267 0.0
C453 C 0.61482 0.02803 0.67713 0.0
C454 C 0.59951 0.00652 0.65339 0.0
C455 C 0.61195 0.01248 0.68873 0.0
C456 C 0.53557 0.05125 0.66771 0.0
N457 N 0.56076 0.06378 0.67338 0.0
C458 C 0.53031 0.06798 0.7005 0.0
C459 C 0.55821 0.07251 0.68928 0.0
C460 C 0.50468 0.05446 0.69523 0.0
C461 C 0.50713 0.04648 0.67838 0.0
H462 H 0.53809 0.04455 0.65499 0.0
H463 H 0.5781 0.08255 0.69359 0.0
C464 C 0.71538 0.04552 0.67198 0.0
N465 N 0.69379 0.03763 0.65971 0.0
C466 C 0.74095 0.03419 0.68014 0.0
C467 C 0.72308 0.00709 0.66212 0.0
C468 C 0.69735 0.01889 0.6545 0.0
C469 C 0.74466 0.01468 0.67537 0.0
H470 H 0.71224 0.06054 0.67566 0.0
H471 H 0.67975 0.01301 0.6447 0.0
C472 C 0.55789 0.08798 0.63907 0.0
N473 N 0.48913 0.09921 0.64543 0.0
C474 C 0.5299 0.07803 0.63125 0.0
C475 C 0.55092 0.1038 0.64993 0.0
C476 C 0.49532 0.08389 0.63467 0.0
C477 C 0.51598 0.10921 0.65304 0.0
C478 C 0.69413 0.05668 0.623 0.0
C479 C 0.72719 0.0638 0.62792 0.0
C480 C 0.69178 0.03942 0.61351 0.0
C481 C 0.75745 0.05343 0.62334 0.0
C482 C 0.72266 0.02949 0.60916 0.0
N483 N 0.75458 0.03663 0.61414 0.0
C484 C 0.69328 0.11537 0.64643 0.0
C485 C 0.64125 0.12584 0.63202 0.0
C486 C 0.70816 0.13376 0.64482 0.0
N487 N 0.6605 0.11181 0.64004 0.0
C488 C 0.655 0.14453 0.63025 0.0
C489 C 0.68892 0.1487 0.63673 0.0
H490 H 0.70774 0.10392 0.6529 0.0
H491 H 0.61509 0.12257 0.6272 0.0
C492 C 0.57105 0.03338 0.60773 0.0
N493 N 0.59582 0.04754 0.60658 0.0
C494 C 0.55635 0.02548 0.59262 0.0
C495 C 0.59312 0.04683 0.57539 0.0
C496 C 0.60708 0.05436 0.59089 0.0
C497 C 0.56734 0.03219 0.57615 0.0
H498 H 0.56241 0.02842 0.62045 0.0
H499 H 0.62693 0.06561 0.59043 0.0
O500 O 0.64631 0.07544 0.6666 0.0
O501 O 0.61144 0.03999 0.64768 0.0
O502 O 0.59189 0.08216 0.63619 0.0
O503 O 0.66413 0.06631 0.62778 0.0
H504 H 0.66289 0.06191 0.69799 0.0
H505 H 0.6267 0.11224 0.66992 0.0
H506 H 0.66024 0.08088 0.72546 0.0
H507 H 0.62489 0.13031 0.69784 0.0
H508 H 0.59001 0.97692 0.66097 0.0
H509 H 0.62183 0.04222 0.68194 0.0
H510 H 0.59476 0.00391 0.63963 0.0
H511 H 0.61675 0.01463 0.70254 0.0
H512 H 0.52965 0.07445 0.7134 0.0
H513 H 0.48759 0.03635 0.67356 0.0
H514 H 0.75747 0.04054 0.69019 0.0
H515 H 0.72525 0.99206 0.65818 0.0
H516 H 0.53478 0.06581 0.62276 0.0
H517 H 0.57221 0.11179 0.65596 0.0
H518 H 0.4734 0.07623 0.6288 0.0
H519 H 0.51021 0.12135 0.66151 0.0
H520 H 0.72945 0.07707 0.63534 0.0
H521 H 0.66638 0.0336 0.60975 0.0
H522 H 0.78321 0.0587 0.62714 0.0
H523 H 0.72125 0.01606 0.6019 0.0
H524 H 0.73455 0.13618 0.64979 0.0
H525 H 0.63898 0.15563 0.62416 0.0
H526 H 0.53615 0.01446 0.59383 0.0
H527 H 0.60264 0.05227 0.56298 0.0
Li528 Li 0.37856 0.55741 0.86385 0.0
Li529 Li 0.351 0.58649 0.84827 0.0
Li530 Li 0.33616 0.5534 0.84023 0.0
Li531 Li 0.39296 0.56557 0.83395 0.0
C532 C 0.29844 0.55674 0.86839 0.0
N533 N 0.23785 0.53684 0.87732 0.0
C534 C 0.26546 0.56371 0.86316 0.0
C535 C 0.30062 0.53971 0.87822 0.0
C536 C 0.23513 0.55341 0.86779 0.0
C537 C 0.26967 0.52985 0.8826 0.0
C538 C 0.43536 0.58725 0.85289 0.0
C539 C 0.47881 0.60803 0.83953 0.0
N540 N 0.50487 0.59758 0.84732 0.0
C541 C 0.46254 0.57683 0.8609 0.0
C542 C 0.4435 0.60309 0.84225 0.0
C543 C 0.49752 0.58224 0.85787 0.0
C544 C 0.41833 0.5321 0.88436 0.0
N545 N 0.39608 0.54749 0.88514 0.0
C546 C 0.40035 0.54833 0.91628 0.0
C547 C 0.38686 0.5557 0.90062 0.0
C548 C 0.4234 0.53238 0.91591 0.0
C549 C 0.43233 0.52424 0.89967 0.0
H550 H 0.42553 0.52609 0.87181 0.0
H551 H 0.36905 0.56794 0.90077 0.0
C552 C 0.29994 0.61529 0.84481 0.0
N553 N 0.33264 0.6117 0.85129 0.0
C554 C 0.28511 0.63369 0.84635 0.0
C555 C 0.33814 0.64442 0.86106 0.0
C556 C 0.35185 0.62573 0.85934 0.0
C557 C 0.30431 0.64862 0.85448 0.0
H558 H 0.28552 0.60384 0.8383 0.0
H559 H 0.37795 0.62243 0.86425 0.0
C560 C 0.38385 0.52492 0.832 0.0
N561 N 0.38848 0.4949 0.8082 0.0
C562 C 0.37779 0.52833 0.81424 0.0
C563 C 0.3921 0.50621 0.83768 0.0
C564 C 0.38031 0.51298 0.8024 0.0
C565 C 0.39436 0.49123 0.82544 0.0
C566 C 0.34922 0.58578 0.80964 0.0
C567 C 0.3393 0.57741 0.79372 0.0
C568 C 0.36054 0.60507 0.80999 0.0
C569 C 0.34127 0.58839 0.7784 0.0
C570 C 0.36209 0.61558 0.79439 0.0
N571 N 0.35254 0.60709 0.77905 0.0
C572 C 0.27781 0.54535 0.81917 0.0
C573 C 0.29503 0.51897 0.83715 0.0
C574 C 0.25228 0.53397 0.81102 0.0
N575 N 0.29897 0.5376 0.83168 0.0
C576 C 0.26933 0.50713 0.82955 0.0
C577 C 0.24817 0.51456 0.81606 0.0
H578 H 0.28125 0.56028 0.81528 0.0
H579 H 0.31232 0.5132 0.84713 0.0
C580 C 0.45751 0.55074 0.82406 0.0
N581 N 0.43256 0.5634 0.81838 0.0
C582 C 0.48614 0.54601 0.8135 0.0
C583 C 0.4636 0.56779 0.79144 0.0
C584 C 0.43551 0.57227 0.80255 0.0
C585 C 0.48903 0.55418 0.79673 0.0
H586 H 0.45466 0.54391 0.83671 0.0
H587 H 0.41579 0.58239 0.79821 0.0
O588 O 0.3285 0.56629 0.86358 0.0
O589 O 0.40099 0.58189 0.8554 0.0
O590 O 0.38113 0.53968 0.84389 0.0
O591 O 0.34697 0.57526 0.82479 0.0
H592 H 0.26332 0.5768 0.85547 0.0
H593 H 0.32596 0.53402 0.88224 0.0
H594 H 0.20944 0.55858 0.86375 0.0
H595 H 0.27097 0.5166 0.89013 0.0
H596 H 0.48549 0.62018 0.83123 0.0
H597 H 0.45674 0.56456 0.86921 0.0
H598 H 0.42284 0.61144 0.83608 0.0
H599 H 0.51883 0.5742 0.86388 0.0
H600 H 0.39258 0.55492 0.92854 0.0
H601 H 0.45045 0.51215 0.89877 0.0
H602 H 0.25879 0.63613 0.8413 0.0
H603 H 0.35413 0.65552 0.86718 0.0
H604 H 0.37123 0.54265 0.80962 0.0
H605 H 0.39652 0.50326 0.8514 0.0
H606 H 0.37573 0.51545 0.78862 0.0
H607 H 0.40072 0.47668 0.82965 0.0
H608 H 0.33021 0.56256 0.79316 0.0
H609 H 0.36825 0.61186 0.8221 0.0
H610 H 0.3338 0.58206 0.766 0.0
H611 H 0.37093 0.63048 0.79449 0.0
H612 H 0.23608 0.5402 0.80078 0.0
H613 H 0.26686 0.49219 0.83371 0.0
H614 H 0.50549 0.53579 0.81834 0.0
H615 H 0.46457 0.57438 0.7786 0.0
Li616 Li 0.10881 0.93622 0.85938 0.0
Li617 Li 0.13241 0.9073 0.8453 0.0
Li618 Li 0.153 0.9397 0.8373 0.0
Li619 Li 0.09399 0.92846 0.82912 0.0
C620 C 0.19197 0.9296 0.8642 0.0
N621 N 0.26242 0.93666 0.87092 0.0
C622 C 0.21672 0.91472 0.86248 0.0
C623 C 0.203 0.94804 0.86944 0.0
C624 C 0.25223 0.91859 0.86593 0.0
C625 C 0.23875 0.95133 0.87273 0.0
C626 C 0.07019 0.89673 0.85709 0.0
C627 C 0.05139 0.86358 0.85347 0.0
N628 N 0.0485 0.86182 0.87113 0.0
C629 C 0.06693 0.89462 0.8752 0.0
C630 C 0.06221 0.88113 0.84612 0.0
C631 C 0.05593 0.87685 0.88204 0.0
C632 C 0.05458 0.9483 0.88184 0.0
N633 N 0.09013 0.94629 0.8805 0.0
C634 C 0.09818 0.95814 0.90956 0.0
C635 C 0.112 0.95098 0.89394 0.0
C636 C 0.06152 0.96044 0.91134 0.0
C637 C 0.03963 0.95548 0.8972 0.0
H638 H 0.03785 0.94419 0.87099 0.0
H639 H 0.14013 0.94908 0.89255 0.0
C640 C 0.15655 0.87069 0.83447 0.0
N641 N 0.14662 0.88117 0.84867 0.0
C642 C 0.16718 0.85147 0.83637 0.0
C643 C 0.15762 0.85422 0.86753 0.0
C644 C 0.14735 0.87346 0.86503 0.0
C645 C 0.16764 0.84293 0.85306 0.0
H646 H 0.15656 0.87731 0.82168 0.0
H647 H 0.13992 0.88227 0.87612 0.0
C648 C 0.09065 0.96934 0.84545 0.0
N649 N 0.05398 -0.00021 0.86023 0.0
C650 C 0.05465 0.97162 0.84208 0.0
C651 C 0.10807 0.98261 0.85624 0.0
C652 C 0.03657 0.98711 0.84969 0.0
C653 C 0.08904 -0.00212 0.86363 0.0
C654 C 0.13572 0.91544 0.80424 0.0
C655 C 0.15087 0.92854 0.79249 0.0
C656 C 0.11482 0.90028 0.79792 0.0
C657 C 0.14464 0.92631 0.77459 0.0
C658 C 0.10916 0.89858 0.77992 0.0
N659 N 0.12406 0.91152 0.76873 0.0
C660 C 0.22188 0.94404 0.82449 0.0
C661 C 0.18878 0.97317 0.82537 0.0
C662 C 0.24964 0.95347 0.81611 0.0
N663 N 0.19216 0.95394 0.82879 0.0
C664 C 0.2158 0.98315 0.81684 0.0
C665 C 0.24647 0.97319 0.81176 0.0
H666 H 0.22347 0.92865 0.82701 0.0
H667 H 0.1645 0.98056 0.82858 0.0
C668 C 0.02838 0.91987 0.81292 0.0
N669 N 0.0586 0.93036 0.81166 0.0
C670 C 0.00204 0.92181 0.80025 0.0
C671 C 0.03872 0.94512 0.78518 0.0
C672 C 0.06406 0.94295 0.79826 0.0
C673 C 0.00714 0.93456 0.78617 0.0
H674 H 0.02453 0.9102 0.82387 0.0
H675 H 0.08803 0.95143 0.79784 0.0
O676 O 0.15714 0.92617 0.8607 0.0
O677 O 0.08143 0.91392 0.85015 0.0
O678 O 0.10864 0.95403 0.83846 0.0
O679 O 0.14102 0.91754 0.82185 0.0
H680 H 0.20869 0.90038 0.8584 0.0
H681 H 0.18421 0.95975 0.87072 0.0
H682 H 0.27171 0.90723 0.86459 0.0
H683 H 0.24769 0.96556 0.87668 0.0
H684 H 0.04536 0.85135 0.84514 0.0
H685 H 0.07318 0.9065 0.8839 0.0
H686 H 0.06474 0.8825 0.83208 0.0
H687 H 0.05344 0.87497 0.89603 0.0
H688 H 0.116 0.96195 0.92009 0.0
H689 H 0.01122 0.95676 0.8981 0.0
H690 H 0.17549 0.8435 0.8249 0.0
H691 H 0.15738 0.84823 0.88061 0.0
H692 H 0.04073 0.96143 0.83382 0.0
H693 H 0.1359 0.981 0.85904 0.0
H694 H 0.00867 0.989 0.84726 0.0
H695 H 0.10211 0.00818 0.8721 0.0
H696 H 0.16696 0.94041 0.79712 0.0
H697 H 0.10272 0.89008 0.80682 0.0
H698 H 0.15606 0.93639 0.76536 0.0
H699 H 0.09285 0.887 0.77487 0.0
H700 H 0.27294 0.94525 0.81265 0.0
H701 H 0.21193 -0.00174 0.81352 0.0
H702 H 0.97796 0.91347 0.80145 0.0
H703 H 0.04331 0.95536 0.77469 0.0
C704 C 0.28419 0.52285 0.28757 0.0
C705 C 0.28047 0.51764 0.30521 0.0
C706 C 0.30928 0.51378 0.27708 0.0
C707 C 0.36611 0.47 0.27454 0.0
H708 H 0.41157 0.49978 0.23792 0.0
C709 C 0.48386 0.44358 0.23159 0.0
C710 C 0.47935 0.44636 0.21351 0.0
C711 C 0.45938 0.45116 0.24343 0.0
C712 C 0.39892 0.49129 0.24805 0.0
H713 H 0.30015 0.49903 0.32582 0.0
H714 H 0.3451 0.48355 0.30764 0.0
H715 H 0.37099 0.51581 0.25786 0.0
H716 H 0.44571 0.45896 0.19361 0.0
H717 H 0.40321 0.47244 0.21432 0.0
H718 H 0.39522 0.44559 0.26483 0.0
C719 C 0.32804 0.49432 0.30176 0.0
C720 C 0.37553 0.50042 0.25944 0.0
C721 C 0.30248 0.50324 0.31222 0.0
C722 C 0.44961 0.45647 0.20746 0.0
C723 C 0.42551 0.4643 0.21929 0.0
C724 C 0.39004 0.46093 0.26329 0.0
C725 C 0.33168 0.49945 0.28403 0.0
C726 C 0.35833 0.48985 0.27266 0.0
C727 C 0.43042 0.46192 0.23736 0.0
C728 C 0.40619 0.47146 0.24979 0.0
H729 H 0.26706 0.53365 0.28176 0.0
H730 H 0.31059 0.51778 0.26341 0.0
H731 H 0.35309 0.46133 0.28441 0.0
H732 H 0.50655 0.43578 0.23656 0.0
H733 H 0.46372 0.44919 0.25732 0.0
C734 C 0.002 0.04731 0.23175 0.0
C735 C 0.01264 0.05359 0.21513 0.0
C736 C 0.02709 0.04277 0.2445 0.0
C737 C 0.1237 0.04609 0.25462 0.0
H738 H 0.10323 0.00144 0.28371 0.0
C739 C 0.22842 -0.00248 0.28764 0.0
C740 C 0.22349 0.99295 0.30543 0.0
C741 C 0.20273 0.00773 0.27836 0.0
C742 C 0.10909 0.01409 0.27583 0.0
H743 H 0.05744 0.06033 0.19873 0.0
H744 H 0.10141 0.05159 0.22061 0.0
H745 H 0.05802 0.01391 0.26411 0.0
H746 H 0.18778 -0.00368 0.32745 0.0
H747 H 0.14222 0.01333 0.31087 0.0
H748 H 0.17567 0.04529 0.26573 0.0
C749 C 0.07383 0.05075 0.22416 0.0
C750 C 0.08314 0.02134 0.26463 0.0
C751 C 0.04869 0.05565 0.21154 0.0
C752 C 0.1923 -0.00084 0.31371 0.0
C753 C 0.16628 0.00905 0.3043 0.0
C754 C 0.14984 0.03857 0.26558 0.0
C755 C 0.06339 0.04402 0.24076 0.0
C756 C 0.09019 0.03731 0.2537 0.0
C757 C 0.17123 0.01329 0.28652 0.0
C758 C 0.14283 0.02239 0.27614 0.0
H759 H 0.97424 0.04582 0.23483 0.0
H760 H 0.01794 0.03811 0.25723 0.0
H761 H 0.12994 0.05865 0.24673 0.0
H762 H 0.25161 0.99268 0.28065 0.0
H763 H 0.2069 0.01061 0.26458 0.0
C764 C 0.76071 0.50456 0.19658 0.0
C765 C 0.769 0.48787 0.18697 0.0
C766 C 0.78677 0.51415 0.20619 0.0
C767 C 0.88449 0.51594 0.2136 0.0
H768 H 0.85665 0.5359 0.25896 0.0
C769 C 0.97861 0.52607 0.27215 0.0
C770 C 0.97905 0.54451 0.28006 0.0
C771 C 0.95348 0.52149 0.25947 0.0
C772 C 0.86466 0.53058 0.24623 0.0
H773 H 0.81075 0.46813 0.17961 0.0
H774 H 0.85599 0.48422 0.19693 0.0
H775 H 0.8118 0.52359 0.239 0.0
H776 H 0.95302 0.57257 0.28058 0.0
H777 H 0.90797 0.56405 0.25902 0.0
H778 H 0.93769 0.5219 0.22152 0.0
C779 C 0.8298 0.49046 0.19667 0.0
C780 C 0.83899 0.52362 0.23471 0.0
C781 C 0.80387 0.48112 0.1868 0.0
C782 C 0.95327 0.55813 0.27505 0.0
C783 C 0.92763 0.55336 0.2626 0.0
C784 C 0.91016 0.52254 0.22528 0.0
C785 C 0.82154 0.50698 0.20668 0.0
C786 C 0.84859 0.51595 0.21831 0.0
C787 C 0.92773 0.53505 0.25466 0.0
C788 C 0.90045 0.5297 0.24175 0.0
H789 H 0.73397 0.51011 0.19675 0.0
H790 H 0.77951 0.52706 0.21338 0.0
H791 H 0.89291 0.51061 0.20096 0.0
H792 H -0.0027 0.51498 0.27592 0.0
H793 H 0.95367 0.50715 0.25369 0.0
C794 C 0.7037 -0.00238 0.18401 0.0
C795 C 0.71781 0.0158 0.18854 0.0
C796 C 0.67706 0.98921 0.19415 0.0
C797 C 0.60839 0.00171 0.22643 0.0
H798 H 0.61385 0.94755 0.23972 0.0
C799 C 0.52602 0.97118 0.28269 0.0
C800 C 0.50957 0.95312 0.28034 0.0
C801 C 0.5507 0.97791 0.27064 0.0
C802 C 0.61173 0.96262 0.23593 0.0
H803 H 0.71561 0.03912 0.20755 0.0
H804 H 0.6692 0.02457 0.22507 0.0
H805 H 0.65791 0.96112 0.21984 0.0
H806 H 0.50664 0.92778 0.26363 0.0
H807 H 0.55012 0.93957 0.24251 0.0
H808 H 0.56256 0.00334 0.24261 0.0
C809 C 0.67819 0.01697 0.21352 0.0
C810 C 0.63692 0.97039 0.22454 0.0
C811 C 0.70478 0.02532 0.20344 0.0
C812 C 0.51907 0.9417 0.26586 0.0
C813 C 0.5439 0.94845 0.25377 0.0
C814 C 0.5833 0.99397 0.23778 0.0
C815 C 0.66397 -0.00115 0.20899 0.0
C816 C 0.63584 0.9901 0.21992 0.0
C817 C 0.55962 0.96675 0.25593 0.0
C818 C 0.58502 0.97444 0.2429 0.0
H819 H 0.71296 0.98999 0.17253 0.0
H820 H 0.66641 0.9753 0.19026 0.0
H821 H 0.6064 0.01685 0.22282 0.0
H822 H 0.51987 0.98014 0.29391 0.0
H823 H 0.56296 0.99187 0.2729 0.0
C824 C 0.52758 0.52812 0.78429 0.0
C825 C 0.5173 0.5477 0.7846 0.0
C826 C 0.55382 0.52179 0.77289 0.0
C827 C 0.59718 0.53261 0.73146 0.0
H828 H 0.66911 0.4978 0.7492 0.0
C829 C 0.71144 0.50273 0.68853 0.0
C830 C 0.72051 0.48318 0.69116 0.0
C831 C 0.68749 0.51196 0.69969 0.0
C832 C 0.64902 0.50735 0.74399 0.0
H833 H 0.52667 0.57596 0.77303 0.0
H834 H 0.57226 0.5647 0.75279 0.0
H835 H 0.62604 0.51161 0.76923 0.0
H836 H 0.71143 0.45804 0.70763 0.0
H837 H 0.669 0.47383 0.72657 0.0
H838 H 0.61967 0.52795 0.70611 0.0
C839 C 0.55984 0.55434 0.76147 0.0
C840 C 0.62445 0.51531 0.75548 0.0
C841 C 0.53371 0.56076 0.77303 0.0
C842 C 0.70471 0.47302 0.70502 0.0
C843 C 0.68077 0.48218 0.71609 0.0
C844 C 0.6217 0.52453 0.7199 0.0
C845 C 0.57025 0.53481 0.76139 0.0
C846 C 0.59795 0.52776 0.74931 0.0
C847 C 0.67217 0.50181 0.71372 0.0
C848 C 0.64752 0.51153 0.726 0.0
H849 H 0.51492 0.51754 0.79264 0.0
H850 H 0.56084 0.50657 0.77287 0.0
H851 H 0.57687 0.54209 0.72635 0.0
H852 H 0.7229 0.51094 0.67789 0.0
H853 H 0.68154 0.52712 0.69755 0.0
C854 C 0.79568 0.99159 0.67578 0.0
C855 C 0.76992 0.00221 0.68483 0.0
C856 C 0.82065 0.98068 0.685 0.0
C857 C 0.83759 0.95688 0.727 0.0
H858 H 0.93592 0.96957 0.71915 0.0
C859 C 0.94433 0.94141 0.77843 0.0
C860 C 0.97903 0.93768 0.77303 0.0
C861 C 0.91833 0.94605 0.76618 0.0
C862 C 0.90871 0.96545 0.72129 0.0
H863 H 0.74893 0.00925 0.71038 0.0
H864 H 0.79209 0.9899 0.72649 0.0
H865 H 0.89081 0.98312 0.70001 0.0
H866 H 0.01352 0.93496 0.75061 0.0
H867 H 0.96788 0.94248 0.72909 0.0
H868 H 0.85518 0.93922 0.74825 0.0
C869 C 0.7932 0.99011 0.71233 0.0
C870 C 0.88289 0.97329 0.71033 0.0
C871 C 0.76875 0.00127 0.70315 0.0
C872 C 0.987 0.938 0.7551 0.0
C873 C 0.96088 0.94239 0.74281 0.0
C874 C 0.86342 0.94879 0.7378 0.0
C875 C 0.81964 0.97991 0.70336 0.0
C876 C 0.84707 0.96947 0.71338 0.0
C877 C 0.92633 0.94683 0.74822 0.0
C878 C 0.89925 0.9534 0.7354 0.0
H879 H 0.79704 0.99216 0.66163 0.0
H880 H 0.84081 0.97291 0.67783 0.0
H881 H 0.81011 0.95356 0.72947 0.0
H882 H 0.9376 0.9415 0.79219 0.0
H883 H 0.89229 0.94974 0.77092 0.0
C884 C 0.19697 0.49158 0.81577 0.0
C885 C 0.22291 0.50202 0.80667 0.0
C886 C 0.17204 0.48059 0.80661 0.0
C887 C 0.15534 0.45628 0.7648 0.0
H888 H 0.05704 0.4692 0.77237 0.0
C889 C 0.04886 0.44064 0.71329 0.0
C890 C 0.01408 0.43706 0.71864 0.0
C891 C 0.07483 0.44527 0.72555 0.0
C892 C 0.08423 0.46501 0.77031 0.0
H893 H 0.24425 0.50865 0.7811 0.0
H894 H 0.20114 0.48917 0.7651 0.0
H895 H 0.10207 0.48289 0.79146 0.0
H896 H 0.97942 0.43455 0.74102 0.0
H897 H 0.02499 0.44205 0.76258 0.0
H898 H 0.13781 0.43843 0.74367 0.0
C899 C 0.19986 0.48957 0.77925 0.0
C900 C 0.11002 0.47293 0.78124 0.0
C901 C 0.22429 0.50082 0.78837 0.0
C902 C 0.006 0.43748 0.73656 0.0
C903 C 0.03209 0.44186 0.74887 0.0
C904 C 0.12956 0.44812 0.75402 0.0
C905 C 0.17325 0.47956 0.78826 0.0
C906 C 0.14584 0.46903 0.77829 0.0
C907 C 0.06671 0.44618 0.7435 0.0
C908 C 0.09373 0.45281 0.75632 0.0
H909 H 0.19544 0.49235 0.8299 0.0
H910 H 0.15174 0.47296 0.81382 0.0
H911 H 0.18282 0.4529 0.76241 0.0
H912 H 0.05568 0.44065 0.69953 0.0
H913 H 0.10094 0.44886 0.72084 0.0
C914 C 0.28935 0.97275 0.78687 0.0
C915 C 0.27363 0.98285 0.80079 0.0
C916 C 0.31342 0.98193 0.77587 0.0
C917 C 0.37289 0.02415 0.7723 0.0
H918 H 0.3681 0.01173 0.72287 0.0
C919 C 0.46051 0.06082 0.71922 0.0
C920 C 0.47666 0.04788 0.70747 0.0
C921 C 0.43455 0.05431 0.73082 0.0
C922 C 0.36982 0.01529 0.73665 0.0
H923 H 0.27157 0.0105 0.81425 0.0
H924 H 0.31315 0.02671 0.79471 0.0
H925 H 0.32509 -0.0022 0.74286 0.0
H926 H 0.47884 0.0178 0.69917 0.0
H927 H 0.43321 0.00666 0.71904 0.0
H928 H 0.41778 0.0417 0.7659 0.0
C929 C 0.30703 0.01158 0.79247 0.0
C930 C 0.34529 0.00726 0.74812 0.0
C931 C 0.28296 0.00235 0.80355 0.0
C932 C 0.46635 0.02831 0.70767 0.0
C933 C 0.44028 0.02187 0.71912 0.0
C934 C 0.39738 0.03231 0.76075 0.0
C935 C 0.32224 0.00151 0.77838 0.0
C936 C 0.34693 0.01127 0.76613 0.0
C937 C 0.42406 0.03478 0.73078 0.0
C938 C 0.39645 0.02764 0.74287 0.0
H939 H 0.28245 0.95782 0.78415 0.0
H940 H 0.3251 0.97363 0.76534 0.0
H941 H 0.37502 0.02744 0.7861 0.0
H942 H 0.46759 0.07602 0.71931 0.0
H943 H 0.42229 0.06458 0.73963 0.0
C944 C 0.0753 0.53218 0.45135 0.0
C945 C 0.06175 0.52537 0.43537 0.0
C946 C 0.06253 0.52495 0.4672 0.0
C947 C 0.01396 0.48358 0.48635 0.0
H948 H 0.99586 0.51944 0.52435 0.0
C949 C 0.93472 0.46195 0.54765 0.0
C950 C 0.94752 0.46835 0.56391 0.0
C951 C 0.94954 0.46878 0.53212 0.0
C952 C 0.00115 0.50922 0.51393 0.0
H953 H 0.0247 0.50533 0.42351 0.0
H954 H 0.00189 0.49304 0.45113 0.0
H955 H 0.02046 0.53146 0.49696 0.0
H956 H 0.98559 0.48712 0.57663 0.0
H957 H 0.01174 0.49891 0.54947 0.0
H958 H 0.99435 0.46137 0.50329 0.0
C959 C 0.02263 0.50383 0.45143 0.0
C960 C 0.01528 0.51609 0.49824 0.0
C961 C 0.0354 0.51104 0.43559 0.0
C962 C 0.97537 0.48179 0.5643 0.0
C963 C 0.99011 0.48868 0.54875 0.0
C964 C -0.00023 0.47672 0.50202 0.0
C965 C 0.03593 0.51075 0.46742 0.0
C966 C 0.02172 0.50337 0.48425 0.0
C967 C 0.97741 0.48221 0.53249 0.0
C968 C 0.99307 0.48947 0.51596 0.0
H969 H 0.09539 0.54333 0.45163 0.0
H970 H 0.07361 0.53044 0.47928 0.0
H971 H 0.01916 0.47334 0.47593 0.0
H972 H 0.91353 0.45146 0.54693 0.0
H973 H 0.93893 0.46368 0.51979 0.0
C974 C 0.43669 0.98362 0.43639 0.0
C975 C 0.42935 0.96379 0.43438 0.0
C976 C 0.45003 0.99073 0.45215 0.0
C977 C 0.49912 0.97548 0.49122 0.0
H978 H 0.46614 0.0243 0.51027 0.0
C979 C 0.54461 0.00412 0.55854 0.0
C980 C 0.55166 0.02407 0.55992 0.0
C981 C 0.52905 -0.00346 0.54346 0.0
C982 C 0.47591 0.01075 0.50502 0.0
H983 H 0.42988 0.93587 0.44738 0.0
H984 H 0.45289 0.94834 0.47505 0.0
H985 H 0.43918 0.01139 0.48374 0.0
H986 H 0.54781 0.05169 0.5465 0.0
H987 H 0.52141 0.03838 0.52001 0.0
H988 H 0.53609 0.97492 0.51238 0.0
C989 C 0.44858 0.95835 0.46435 0.0
C990 C 0.46041 0.00334 0.48985 0.0
C991 C 0.43508 0.95125 0.44858 0.0
C992 C 0.54305 0.03623 0.5458 0.0
C993 C 0.5275 0.02864 0.5307 0.0
C994 C 0.51468 0.98291 0.50638 0.0
C995 C 0.45641 0.97816 0.46626 0.0
C996 C 0.47195 0.98567 0.48274 0.0
C997 C 0.5202 0.00872 0.52939 0.0
C998 C 0.50336 0.00068 0.5134 0.0
H999 H 0.43217 0.99368 0.42574 0.0
H1000 H 0.45606 0.00603 0.45316 0.0
H1001 H 0.50895 0.96197 0.48592 0.0
H1002 H 0.55128 0.99432 0.5691 0.0
H1003 H 0.52351 0.98115 0.54293 0.0
C1004 C 0.54884 0.45154 0.04509 0.0
C1005 C 0.56181 0.46445 0.05779 0.0
C1006 C 0.53476 0.45851 0.0294 0.0
C1007 C 0.5326 0.50186 0.00084 0.0
H1008 H 0.44661 0.47867 0.98299 0.0
C1009 C 0.45111 0.5368 0.94545 0.0
C1010 C 0.4385 0.52438 0.9323 0.0
C1011 C 0.46637 0.52925 0.96063 0.0
C1012 C 0.47082 0.48517 0.98772 0.0
H1013 H 0.57104 0.49477 0.06373 0.0
H1014 H 0.5458 0.50692 0.03659 0.0
H1015 H 0.47367 0.46576 0.00949 0.0
H1016 H 0.4313 0.49429 0.92491 0.0
H1017 H 0.45823 0.4811 0.95135 0.0
H1018 H 0.52952 0.52139 0.97914 0.0
C1019 C 0.54679 0.4914 0.03866 0.0
C1020 C 0.48638 0.47775 0.00288 0.0
C1021 C 0.56088 0.48444 0.05432 0.0
C1022 C 0.44109 0.50424 0.93474 0.0
C1023 C 0.4562 0.49668 0.94995 0.0
C1024 C 0.51698 0.50931 0.98572 0.0
C1025 C 0.53336 0.47853 0.02606 0.0
C1026 C 0.51739 0.48605 0.00965 0.0
C1027 C 0.46919 0.50911 0.96302 0.0
C1028 C 0.48587 0.50109 0.97902 0.0
H1029 H 0.54888 0.43606 0.04743 0.0
H1030 H 0.52501 0.4482 0.01988 0.0
H1031 H 0.55679 0.5084 0.00555 0.0
H1032 H 0.44977 0.55238 0.94388 0.0
H1033 H 0.4758 0.53918 0.97056 0.0
C1034 C 0.01834 0.98109 0.92782 0.0
C1035 C 0.04616 0.96763 0.92796 0.0
C1036 C 0.0038 0.98775 0.94349 0.0
C1037 C 0.02352 0.99242 0.99063 0.0
H1038 H 0.92226 -0.00127 0.99507 0.0
C1039 C 0.95808 0.00801 0.05693 0.0
C1040 C 0.93184 0.02239 0.05727 0.0
C1041 C 0.9709 0.00098 0.04105 0.0
C1042 C 0.95061 -0.00279 0.99397 0.0
H1043 H 0.08007 0.95032 0.94463 0.0
H1044 H 0.05467 0.96187 0.97196 0.0
H1045 H 0.94712 0.98731 0.96749 0.0
H1046 H 0.89811 0.04046 0.04116 0.0
H1047 H 0.92046 0.02812 0.01338 0.0
H1048 H 0.02705 0.00226 0.01709 0.0
C1049 C 0.04449 0.96756 0.95976 0.0
C1050 C 0.96486 0.99069 0.97817 0.0
C1051 C 0.05906 0.96094 0.9441 0.0
C1052 C 0.91806 0.02924 0.04134 0.0
C1053 C 0.93088 0.02218 0.02543 0.0
C1054 C 0.00928 -0.00112 0.00641 0.0
C1055 C 0.01673 0.98107 0.95964 0.0
C1056 C 0.00148 0.98818 0.97634 0.0
C1057 C 0.95775 0.00815 0.02512 0.0
C1058 C 0.97267 0.0013 0.00828 0.0
H1059 H 0.00813 0.98669 0.91558 0.0
H1060 H 0.98278 -0.00164 0.94296 0.0
H1061 H 0.05188 0.99098 0.98956 0.0
H1062 H 0.96874 0.00216 0.06897 0.0
H1063 H 0.99111 0.98989 0.04124 0.0
C1064 C 0.15345 0.68813 0.34763 0.0
C1065 C 0.17014 0.67318 0.35696 0.0
C1066 C 0.16679 0.70698 0.34814 0.0
C1067 C 0.22789 0.73942 0.37239 0.0
H1068 H 0.23071 0.76711 0.32828 0.0
C1069 C 0.31058 0.809 0.3614 0.0
C1070 C 0.29459 0.82395 0.35172 0.0
C1071 C 0.2942 0.79092 0.36293 0.0
C1072 C 0.22977 0.75966 0.34074 0.0
H1073 H 0.21357 0.6663 0.37435 0.0
H1074 H 0.23713 0.69916 0.3751 0.0
H1075 H 0.20371 0.73516 0.32957 0.0
H1076 H 0.24819 0.83181 0.33665 0.0
H1077 H 0.21995 0.80025 0.33916 0.0
H1078 H 0.2546 0.76391 0.38345 0.0
C1079 C 0.21337 0.69642 0.36763 0.0
C1080 C 0.2142 0.74136 0.3415 0.0
C1081 C 0.1999 0.67757 0.36719 0.0
C1082 C 0.26165 0.82048 0.34385 0.0
C1083 C 0.24538 0.80242 0.34533 0.0
C1084 C 0.24364 0.75772 0.37161 0.0
C1085 C 0.19728 0.71129 0.3579 0.0
C1086 C 0.21306 0.731 0.35733 0.0
C1087 C 0.26157 0.7874 0.35478 0.0
C1088 C 0.24473 0.76803 0.35577 0.0
H1089 H 0.13017 0.68521 0.33984 0.0
H1090 H 0.15332 0.71817 0.34079 0.0
H1091 H 0.22708 0.73193 0.38484 0.0
H1092 H 0.33609 0.81114 0.36749 0.0
H1093 H 0.30748 0.77955 0.37015 0.0
C1094 C 0.83048 0.18693 0.14313 0.0
C1095 C 0.81635 0.17235 0.13242 0.0
C1096 C 0.8177 0.20585 0.14213 0.0
C1097 C 0.76322 0.23927 0.11502 0.0
H1098 H 0.75368 0.26653 0.15912 0.0
C1099 C 0.68329 0.31055 0.12444 0.0
C1100 C 0.6995 0.32496 0.13469 0.0
C1101 C 0.69857 0.29218 0.12287 0.0
C1102 C 0.75648 0.25916 0.14669 0.0
H1103 H 0.77829 0.16608 0.11206 0.0
H1104 H 0.75514 0.19909 0.11058 0.0
H1105 H 0.77839 0.23404 0.15878 0.0
H1106 H 0.74553 0.33162 0.15051 0.0
H1107 H 0.77164 0.29952 0.14806 0.0
H1108 H 0.74025 0.26445 0.10309 0.0
C1109 C 0.77663 0.19604 0.11951 0.0
C1110 C 0.7708 0.24056 0.14646 0.0
C1111 C 0.78978 0.17713 0.12036 0.0
C1112 C 0.73182 0.32073 0.1429 0.0
C1113 C 0.74689 0.30237 0.14144 0.0
C1114 C 0.74851 0.25787 0.11529 0.0
C1115 C 0.79009 0.21058 0.13057 0.0
C1116 C 0.77463 0.23041 0.13062 0.0
C1117 C 0.73021 0.28784 0.13161 0.0
C1118 C 0.74526 0.26803 0.13113 0.0
H1119 H 0.85135 0.18365 0.15236 0.0
H1120 H 0.82935 0.21675 0.15052 0.0
H1121 H 0.76609 0.23197 0.10257 0.0
H1122 H 0.65827 0.31328 0.11804 0.0
H1123 H 0.68507 0.28118 0.11528 0.0
C1124 C 0.72454 0.17622 0.64899 0.0
C1125 C 0.70403 0.16853 0.63531 0.0
C1126 C 0.73907 0.19474 0.64767 0.0
C1127 C 0.7274 0.24154 0.62613 0.0
H1128 H 0.82443 0.25015 0.64025 0.0
C1129 C 0.79251 0.3171 0.62171 0.0
C1130 C 0.81367 0.32265 0.63598 0.0
C1131 C 0.78076 0.29798 0.62007 0.0
C1132 C 0.7972 0.24804 0.63641 0.0
H1133 H 0.68295 0.17439 0.60943 0.0
H1134 H 0.70779 0.20697 0.60734 0.0
H1135 H 0.80034 0.2174 0.6405 0.0
H1136 H 0.84001 0.31225 0.65938 0.0
H1137 H 0.81861 0.27919 0.65684 0.0
H1138 H 0.72383 0.27221 0.62251 0.0
C1139 C 0.71249 0.19856 0.61908 0.0
C1140 C 0.78346 0.22927 0.63652 0.0
C1141 C 0.69818 0.17994 0.62032 0.0
C1142 C 0.82331 0.30856 0.64837 0.0
C1143 C 0.81144 0.2895 0.64677 0.0
C1144 C 0.74105 0.26036 0.62615 0.0
C1145 C 0.7332 0.2061 0.63272 0.0
C1146 C 0.74831 0.22586 0.63157 0.0
C1147 C 0.78983 0.28399 0.63267 0.0
C1148 C 0.776 0.26386 0.6315 0.0
H1149 H 0.72899 0.16804 0.66088 0.0
H1150 H 0.75442 0.20031 0.65852 0.0
H1151 H 0.70011 0.23935 0.6224 0.0
H1152 H 0.78435 0.32761 0.61201 0.0
H1153 H 0.7645 0.29418 0.60893 0.0
C1154 C 0.29493 0.67986 0.87085 0.0
C1155 C 0.28923 0.66846 0.85586 0.0
C1156 C 0.28059 0.69848 0.87206 0.0
C1157 C 0.20969 0.72912 0.8545 0.0
H1158 H 0.269 0.77212 0.86871 0.0
C1159 C 0.16946 0.8084 0.84283 0.0
C1160 C 0.17898 0.82246 0.85527 0.0
C1161 C 0.18142 0.78935 0.84438 0.0
C1162 C 0.25186 0.76025 0.86501 0.0
H1163 H 0.26454 0.66798 0.83022 0.0
H1164 H 0.23905 0.70023 0.83252 0.0
H1165 H 0.29286 0.73929 0.8688 0.0
H1166 H 0.20818 0.82737 0.87929 0.0
H1167 H 0.22816 0.79396 0.88228 0.0
H1168 H 0.16864 0.74995 0.85073 0.0
C1169 C 0.2543 0.69466 0.8434 0.0
C1170 C 0.2656 0.74146 0.86502 0.0
C1171 C 0.26887 0.67615 0.84212 0.0
C1172 C 0.2001 0.81688 0.86954 0.0
C1173 C 0.21194 0.79778 0.87114 0.0
C1174 C 0.19585 0.74787 0.85462 0.0
C1175 C 0.26 0.70601 0.85838 0.0
C1176 C 0.2448 0.72576 0.85951 0.0
C1177 C 0.203 0.78382 0.85848 0.0
C1178 C 0.21693 0.76371 0.85961 0.0
H1179 H 0.31005 0.67432 0.88178 0.0
H1180 H 0.28516 0.70688 0.88382 0.0
H1181 H 0.19289 0.71724 0.85045 0.0
H1182 H 0.1528 0.81211 0.83181 0.0
H1183 H 0.17434 0.77907 0.83426 0.0
loop_
_geom_bond_atom_site_label_1
_geom_bond_atom_site_label_2
_geom_bond_distance
_geom_bond_site_symmetry_2
_ccdc_geom_bond_type
Li0 N17 1.990 . S
Li0 O60 1.956 . S
Li0 O61 1.970 . S
Li0 O62 1.961 . S
Li1 N25 1.990 . S
Li1 O60 1.970 . S
Li1 O61 1.956 . S
Li1 O63 1.961 . S
Li2 N47 1.990 . S
Li2 O60 1.961 . S
Li2 O62 1.956 . S
Li2 O63 1.970 . S
Li3 N53 1.990 . S
Li3 O61 1.961 . S
Li3 O62 1.970 . S
Li3 O63 1.956 . S
C4 C6 1.348 . S
C4 C7 1.356 . S
C4 O60 1.325 . S
N5 C8 1.303 1_655 S
N5 C9 1.263 1_655 S
C6 C4 1.348 . S
C6 C8 1.353 . S
C6 H64 0.929 . S
C7 C4 1.356 . S
C7 C9 1.358 . S
C7 H65 0.930 . S
C8 N5 1.303 1_455 S
C8 C6 1.353 . S
C8 H66 0.940 . S
C9 N5 1.263 1_455 S
C9 C7 1.358 . S
C9 H67 0.930 . S
C10 C13 1.348 . S
C10 C14 1.356 . S
C10 O61 1.325 . S
C11 N12 1.279 . S
C11 C14 1.358 . S
C11 H68 0.930 . S
N12 C11 1.279 . S
N12 C15 1.314 . S
C13 C10 1.348 . S
C13 C15 1.353 . S
C13 H69 0.929 . S
C14 C10 1.356 . S
C14 C11 1.358 . S
C14 H70 0.930 . S
C15 N12 1.314 . S
C15 C13 1.353 . S
C15 H71 0.930 . S
C16 N17 1.314 . S
C16 C21 1.353 . S
C16 H22 0.930 . S
N17 Li0 1.990 . S
N17 C16 1.314 . S
N17 C19 1.279 . S
C18 C19 1.358 1_655 S
C18 C20 1.356 . S
C18 H72 0.930 . S
C19 N17 1.279 . S
C19 C18 1.358 1_455 S
C19 H23 0.930 . S
C20 C18 1.356 . S
C20 C21 1.348 1_655 S
C21 C16 1.353 . S
C21 C20 1.348 1_455 S
C21 H73 0.929 . S
H22 C16 0.930 . S
H23 C19 0.930 . S
C24 N25 1.314 . S
C24 C26 1.353 . S
C24 H30 0.930 . S
N25 Li1 1.990 . S
N25 C24 1.314 . S
N25 C28 1.279 . S
C26 C24 1.353 . S
C26 C29 1.348 . S
C26 H74 0.929 . S
C27 C28 1.358 . S
C27 C29 1.356 . S
C27 H75 0.930 . S
C28 N25 1.279 . S
C28 C27 1.358 . S
C28 H31 0.930 . S
C29 C26 1.348 . S
C29 C27 1.356 . S
H30 C24 0.930 . S
H31 C28 0.930 . S
C32 C34 1.348 . S
C32 C35 1.356 . S
C32 O62 1.325 . S
N33 C36 1.314 . S
N33 C37 1.279 . S
C34 C32 1.348 . S
C34 C36 1.353 . S
C34 H76 0.929 . S
C35 C32 1.356 . S
C35 C37 1.358 . S
C35 H77 0.930 . S
C36 N33 1.314 . S
C36 C34 1.353 . S
C36 H78 0.930 . S
C37 N33 1.279 . S
C37 C35 1.358 . S
C37 H79 0.930 . S
C38 C39 1.348 . S
C38 C40 1.356 . S
C38 O63 1.325 . S
C39 C38 1.348 . S
C39 C41 1.353 . S
C39 H80 0.929 . S
C40 C38 1.356 . S
C40 C42 1.358 . S
C40 H81 0.930 . S
C41 C39 1.353 . S
C41 N43 1.314 . S
C41 H82 0.930 . S
C42 C40 1.358 . S
C42 N43 1.279 . S
C42 H83 0.930 . S
N43 C41 1.314 . S
N43 C42 1.279 . S
C44 C46 1.353 . S
C44 N47 1.314 . S
C44 H50 0.930 . S
C45 N47 1.279 . S
C45 C48 1.358 . S
C45 H51 0.930 . S
C46 C44 1.353 . S
C46 C49 1.348 . S
C46 H84 0.929 . S
N47 Li2 1.990 . S
N47 C44 1.314 . S
N47 C45 1.279 . S
C48 C45 1.358 . S
C48 C49 1.356 . S
C48 H85 0.930 . S
C49 C46 1.348 . S
C49 C48 1.356 . S
H50 C44 0.930 . S
H51 C45 0.930 . S
C52 N53 1.314 . S
C52 C54 1.353 . S
C52 H58 0.930 . S
N53 Li3 1.990 . S
N53 C52 1.314 . S
N53 C56 1.279 . S
C54 C52 1.353 . S
C54 C57 1.348 . S
C54 H86 0.929 . S
C55 C56 1.358 . S
C55 C57 1.356 . S
C55 H87 0.930 . S
C56 N53 1.279 . S
C56 C55 1.358 . S
C56 H59 0.930 . S
C57 C54 1.348 . S
C57 C55 1.356 . S
H58 C52 0.930 . S
H59 C56 0.930 . S
O60 Li0 1.956 . S
O60 Li1 1.970 . S
O60 Li2 1.961 . S
O60 C4 1.325 . S
O61 Li0 1.970 . S
O61 Li1 1.956 . S
O61 Li3 1.961 . S
O61 C10 1.325 . S
O62 Li0 1.961 . S
O62 Li2 1.956 . S
O62 Li3 1.970 . S
O62 C32 1.325 . S
O63 Li1 1.961 . S
O63 Li2 1.970 . S
O63 Li3 1.956 . S
O63 C38 1.325 . S
H64 C6 0.929 . S
H65 C7 0.930 . S
H66 C8 0.940 . S
H67 C9 0.930 . S
H68 C11 0.930 . S
H69 C13 0.929 . S
H70 C14 0.930 . S
H71 C15 0.930 . S
H72 C18 0.930 . S
H73 C21 0.929 . S
H74 C26 0.929 . S
H75 C27 0.930 . S
H76 C34 0.929 . S
H77 C35 0.930 . S
H78 C36 0.930 . S
H79 C37 0.930 . S
H80 C39 0.929 . S
H81 C40 0.930 . S
H82 C41 0.930 . S
H83 C42 0.930 . S
H84 C46 0.929 . S
H85 C48 0.930 . S
H86 C54 0.929 . S
H87 C55 0.930 . S
Li88 N105 1.990 . S
Li88 O148 1.956 . S
Li88 O149 1.970 . S
Li88 O150 1.961 . S
Li89 N113 1.990 . S
Li89 O148 1.970 . S
Li89 O149 1.956 . S
Li89 O151 1.961 . S
Li90 N135 1.990 . S
Li90 O148 1.961 . S
Li90 O150 1.956 . S
Li90 O151 1.970 . S
Li91 N141 1.990 . S
Li91 O149 1.961 . S
Li91 O150 1.970 . S
Li91 O151 1.956 . S
C92 C94 1.348 . S
C92 C95 1.356 . S
C92 O148 1.325 . S
N93 C96 1.314 . S
N93 C97 1.279 . S
C94 C92 1.348 . S
C94 C96 1.353 . S
C94 H152 0.929 . S
C95 C92 1.356 . S
C95 C97 1.358 . S
C95 H153 0.930 . S
C96 N93 1.314 . S
C96 C94 1.353 . S
C96 H154 0.930 . S
C97 N93 1.279 . S
C97 C95 1.358 . S
C97 H155 0.930 . S
C98 C101 1.348 . S
C98 C102 1.356 . S
C98 O149 1.325 . S
C99 N100 1.279 . S
C99 C102 1.358 . S
C99 H156 0.930 . S
N100 C99 1.279 . S
N100 C103 1.314 . S
C101 C98 1.348 . S
C101 C103 1.353 . S
C101 H157 0.929 . S
C102 C98 1.356 . S
C102 C99 1.358 . S
C102 H158 0.930 . S
C103 N100 1.314 . S
C103 C101 1.353 . S
C103 H159 0.930 . S
C104 N105 1.314 . S
C104 C109 1.353 . S
C104 H110 0.930 . S
N105 Li88 1.990 . S
N105 C104 1.314 . S
N105 C107 1.279 . S
C106 C107 1.358 . S
C106 C108 1.356 . S
C106 H160 0.930 . S
C107 N105 1.279 . S
C107 C106 1.358 . S
C107 H111 0.930 . S
C108 C106 1.356 . S
C108 C109 1.348 . S
C109 C104 1.353 . S
C109 C108 1.348 . S
C109 H161 0.929 . S
H110 C104 0.930 . S
H111 C107 0.930 . S
C112 N113 1.314 . S
C112 C114 1.353 . S
C112 H118 0.930 . S
N113 Li89 1.990 . S
N113 C112 1.314 . S
N113 C116 1.279 . S
C114 C112 1.353 . S
C114 C117 1.348 . S
C114 H162 0.929 . S
C115 C116 1.358 . S
C115 C117 1.356 . S
C115 H163 0.930 . S
C116 N113 1.279 . S
C116 C115 1.358 . S
C116 H119 0.930 . S
C117 C114 1.348 . S
C117 C115 1.356 . S
H118 C112 0.930 . S
H119 C116 0.930 . S
C120 C122 1.348 . S
C120 C123 1.356 . S
C120 O150 1.325 . S
N121 C124 1.314 . S
N121 C125 1.279 . S
C122 C120 1.348 . S
C122 C124 1.353 1_565 S
C122 H164 0.929 . S
C123 C120 1.356 . S
C123 C125 1.358 1_565 S
C123 H165 0.930 . S
C124 N121 1.314 . S
C124 C122 1.353 1_545 S
C124 H166 0.930 . S
C125 N121 1.279 . S
C125 C123 1.358 1_545 S
C125 H167 0.930 . S
C126 C127 1.348 . S
C126 C128 1.356 . S
C126 O151 1.325 . S
C127 C126 1.348 . S
C127 C129 1.353 . S
C127 H168 0.929 . S
C128 C126 1.356 . S
C128 C130 1.358 . S
C128 H169 0.930 . S
C129 C127 1.353 . S
C129 N131 1.314 . S
C129 H170 0.930 . S
C130 C128 1.358 . S
C130 N131 1.279 . S
C130 H171 0.930 . S
N131 C129 1.314 . S
N131 C130 1.279 . S
C132 C134 1.353 . S
C132 N135 1.314 . S
C132 H138 0.930 . S
C133 N135 1.279 . S
C133 C136 1.358 . S
C133 H139 0.930 . S
C134 C132 1.353 . S
C134 C137 1.348 . S
C134 H172 0.929 . S
N135 Li90 1.990 . S
N135 C132 1.314 . S
N135 C133 1.279 . S
C136 C133 1.358 . S
C136 C137 1.356 . S
C136 H173 0.930 . S
C137 C134 1.348 . S
C137 C136 1.356 . S
H138 C132 0.930 . S
H139 C133 0.930 . S
C140 N141 1.314 . S
C140 C142 1.353 . S
C140 H146 0.930 . S
N141 Li91 1.990 . S
N141 C140 1.314 . S
N141 C144 1.279 . S
C142 C140 1.353 . S
C142 C145 1.348 . S
C142 H174 0.929 . S
C143 C144 1.358 . S
C143 C145 1.356 . S
C143 H175 0.930 . S
C144 N141 1.279 . S
C144 C143 1.358 . S
C144 H147 0.930 . S
C145 C142 1.348 . S
C145 C143 1.356 . S
H146 C140 0.930 . S
H147 C144 0.930 . S
O148 Li88 1.956 . S
O148 Li89 1.970 . S
O148 Li90 1.961 . S
O148 C92 1.325 . S
O149 Li88 1.970 . S
O149 Li89 1.956 . S
O149 Li91 1.961 . S
O149 C98 1.325 . S
O150 Li88 1.961 . S
O150 Li90 1.956 . S
O150 Li91 1.970 . S
O150 C120 1.325 . S
O151 Li89 1.961 . S
O151 Li90 1.970 . S
O151 Li91 1.956 . S
O151 C126 1.325 . S
H152 C94 0.929 . S
H153 C95 0.930 . S
H154 C96 0.930 . S
H155 C97 0.930 . S
H156 C99 0.930 . S
H157 C101 0.929 . S
H158 C102 0.930 . S
H159 C103 0.930 . S
H160 C106 0.930 . S
H161 C109 0.929 . S
H162 C114 0.929 . S
H163 C115 0.930 . S
H164 C122 0.929 . S
H165 C123 0.930 . S
H166 C124 0.930 . S
H167 C125 0.930 . S
H168 C127 0.929 . S
H169 C128 0.930 . S
H170 C129 0.930 . S
H171 C130 0.930 . S
H172 C134 0.929 . S
H173 C136 0.930 . S
H174 C142 0.929 . S
H175 C143 0.930 . S
Li176 N193 1.990 . S
Li176 O236 1.956 . S
Li176 O237 1.970 . S
Li176 O238 1.961 . S
Li177 N201 1.990 . S
Li177 O236 1.970 . S
Li177 O237 1.956 . S
Li177 O239 1.961 . S
Li178 N223 1.990 . S
Li178 O236 1.961 . S
Li178 O238 1.956 . S
Li178 O239 1.970 . S
Li179 N229 1.990 . S
Li179 O237 1.961 . S
Li179 O238 1.970 . S
Li179 O239 1.956 . S
C180 C182 1.348 . S
C180 C183 1.356 . S
C180 O236 1.325 . S
N181 C184 1.314 . S
N181 C185 1.279 . S
C182 C180 1.348 . S
C182 C184 1.353 . S
C182 H240 0.929 . S
C183 C180 1.356 . S
C183 C185 1.358 . S
C183 H241 0.930 . S
C184 N181 1.314 . S
C184 C182 1.353 . S
C184 H242 0.930 . S
C185 N181 1.279 . S
C185 C183 1.358 . S
C185 H243 0.930 . S
C186 C189 1.348 . S
C186 C190 1.356 . S
C186 O237 1.325 . S
C187 N188 1.279 . S
C187 C190 1.358 . S
C187 H244 0.930 . S
N188 C187 1.279 . S
N188 C191 1.314 . S
C189 C186 1.348 . S
C189 C191 1.353 . S
C189 H245 0.929 . S
C190 C186 1.356 . S
C190 C187 1.358 . S
C190 H246 0.930 . S
C191 N188 1.314 . S
C191 C189 1.353 . S
C191 H247 0.930 . S
C192 N193 1.314 . S
C192 C197 1.353 . S
C192 H198 0.930 . S
N193 Li176 1.990 . S
N193 C192 1.314 . S
N193 C195 1.279 . S
C194 C195 1.358 . S
C194 C196 1.356 . S
C194 H248 0.930 . S
C195 N193 1.279 . S
C195 C194 1.358 . S
C195 H199 0.930 . S
C196 C194 1.356 . S
C196 C197 1.348 . S
C197 C192 1.353 . S
C197 C196 1.348 . S
C197 H249 0.929 . S
H198 C192 0.930 . S
H199 C195 0.930 . S
C200 N201 1.314 . S
C200 C202 1.353 . S
C200 H206 0.930 . S
N201 Li177 1.990 . S
N201 C200 1.314 . S
N201 C204 1.279 . S
C202 C200 1.353 . S
C202 C205 1.348 . S
C202 H250 0.929 . S
C203 C204 1.358 . S
C203 C205 1.356 . S
C203 H251 0.930 . S
C204 N201 1.279 . S
C204 C203 1.358 . S
C204 H207 0.930 . S
C205 C202 1.348 . S
C205 C203 1.356 . S
H206 C200 0.930 . S
H207 C204 0.930 . S
C208 C210 1.348 . S
C208 C211 1.356 . S
C208 O238 1.325 . S
N209 C212 1.314 . S
N209 C213 1.279 . S
C210 C208 1.348 . S
C210 C212 1.353 . S
C210 H252 0.929 . S
C211 C208 1.356 . S
C211 C213 1.358 . S
C211 H253 0.930 . S
C212 N209 1.314 . S
C212 C210 1.353 . S
C212 H254 0.930 . S
C213 N209 1.279 . S
C213 C211 1.358 . S
C213 H255 0.930 . S
C214 C215 1.348 . S
C214 C216 1.356 . S
C214 O239 1.325 . S
C215 C214 1.348 . S
C215 C217 1.353 . S
C215 H256 0.929 . S
C216 C214 1.356 . S
C216 C218 1.358 . S
C216 H257 0.930 . S
C217 C215 1.353 . S
C217 N219 1.314 . S
C217 H258 0.930 . S
C218 C216 1.358 . S
C218 N219 1.279 . S
C218 H259 0.930 . S
N219 C217 1.314 . S
N219 C218 1.279 . S
C220 C222 1.353 . S
C220 N223 1.314 . S
C220 H226 0.930 . S
C221 N223 1.279 . S
C221 C224 1.358 . S
C221 H227 0.930 . S
C222 C220 1.353 . S
C222 C225 1.348 . S
C222 H260 0.929 . S
N223 Li178 1.990 . S
N223 C220 1.314 . S
N223 C221 1.279 . S
C224 C221 1.358 . S
C224 C225 1.356 . S
C224 H261 0.930 . S
C225 C222 1.348 . S
C225 C224 1.356 . S
H226 C220 0.930 . S
H227 C221 0.930 . S
C228 N229 1.314 . S
C228 C230 1.353 . S
C228 H234 0.930 . S
N229 Li179 1.990 . S
N229 C228 1.314 . S
N229 C232 1.279 . S
C230 C228 1.353 . S
C230 C233 1.348 . S
C230 H262 0.929 . S
C231 C232 1.358 . S
C231 C233 1.356 . S
C231 H263 0.930 . S
C232 N229 1.279 . S
C232 C231 1.358 . S
C232 H235 0.930 . S
C233 C230 1.348 . S
C233 C231 1.356 . S
H234 C228 0.930 . S
H235 C232 0.930 . S
O236 Li176 1.956 . S
O236 Li177 1.970 . S
O236 Li178 1.961 . S
O236 C180 1.325 . S
O237 Li176 1.970 . S
O237 Li177 1.956 . S
O237 Li179 1.961 . S
O237 C186 1.325 . S
O238 Li176 1.961 . S
O238 Li178 1.956 . S
O238 Li179 1.970 . S
O238 C208 1.325 . S
O239 Li177 1.961 . S
O239 Li178 1.970 . S
O239 Li179 1.956 . S
O239 C214 1.325 . S
H240 C182 0.929 . S
H241 C183 0.930 . S
H242 C184 0.930 . S
H243 C185 0.930 . S
H244 C187 0.930 . S
H245 C189 0.929 . S
H246 C190 0.930 . S
H247 C191 0.930 . S
H248 C194 0.930 . S
H249 C197 0.929 . S
H250 C202 0.929 . S
H251 C203 0.930 . S
H252 C210 0.929 . S
H253 C211 0.930 . S
H254 C212 0.930 . S
H255 C213 0.930 . S
H256 C215 0.929 . S
H257 C216 0.930 . S
H258 C217 0.930 . S
H259 C218 0.930 . S
H260 C222 0.929 . S
H261 C224 0.930 . S
H262 C230 0.929 . S
H263 C231 0.930 . S
Li264 N281 1.990 . S
Li264 O324 1.956 . S
Li264 O325 1.970 . S
Li264 O326 1.961 . S
Li265 N289 1.990 . S
Li265 O324 1.970 . S
Li265 O325 1.956 . S
Li265 O327 1.961 . S
Li266 N311 1.990 . S
Li266 O324 1.961 . S
Li266 O326 1.956 . S
Li266 O327 1.970 . S
Li267 N317 1.990 . S
Li267 O325 1.961 . S
Li267 O326 1.970 . S
Li267 O327 1.956 . S
C268 C270 1.348 . S
C268 C271 1.356 . S
C268 O324 1.325 . S
N269 C272 1.314 . S
N269 C273 1.279 . S
C270 C268 1.348 . S
C270 C272 1.353 . S
C270 H328 0.929 . S
C271 C268 1.356 . S
C271 C273 1.358 . S
C271 H329 0.930 . S
C272 N269 1.314 . S
C272 C270 1.353 . S
C272 H330 0.930 . S
C273 N269 1.279 . S
C273 C271 1.358 . S
C273 H331 0.930 . S
C274 C277 1.348 . S
C274 C278 1.356 . S
C274 O325 1.325 . S
C275 N276 1.279 . S
C275 C278 1.358 . S
C275 H332 0.930 . S
N276 C275 1.279 . S
N276 C279 1.314 . S
C277 C274 1.348 . S
C277 C279 1.353 . S
C277 H333 0.929 . S
C278 C274 1.356 . S
C278 C275 1.358 . S
C278 H334 0.930 . S
C279 N276 1.314 . S
C279 C277 1.353 . S
C279 H335 0.930 . S
C280 N281 1.314 . S
C280 C285 1.353 . S
C280 H286 0.930 . S
N281 Li264 1.990 . S
N281 C280 1.314 . S
N281 C283 1.279 . S
C282 C283 1.358 . S
C282 C284 1.356 . S
C282 H336 0.930 . S
C283 N281 1.279 . S
C283 C282 1.358 . S
C283 H287 0.930 . S
C284 C282 1.356 . S
C284 C285 1.348 . S
C285 C280 1.353 . S
C285 C284 1.348 . S
C285 H337 0.929 . S
H286 C280 0.930 . S
H287 C283 0.930 . S
C288 N289 1.314 . S
C288 C290 1.353 . S
C288 H294 0.930 . S
N289 Li265 1.990 . S
N289 C288 1.314 . S
N289 C292 1.279 . S
C290 C288 1.353 . S
C290 C293 1.348 . S
C290 H338 0.929 . S
C291 C292 1.358 . S
C291 C293 1.356 . S
C291 H339 0.930 . S
C292 N289 1.279 . S
C292 C291 1.358 . S
C292 H295 0.930 . S
C293 C290 1.348 . S
C293 C291 1.356 . S
H294 C288 0.930 . S
H295 C292 0.930 . S
C296 C298 1.348 . S
C296 C299 1.356 . S
C296 O326 1.325 . S
N297 C300 1.314 . S
N297 C301 1.279 . S
C298 C296 1.348 . S
C298 C300 1.353 1_545 S
C298 H340 0.929 . S
C299 C296 1.356 . S
C299 C301 1.358 1_545 S
C299 H341 0.930 . S
C300 N297 1.314 . S
C300 C298 1.353 1_565 S
C300 H342 0.930 . S
C301 N297 1.279 . S
C301 C299 1.358 1_565 S
C301 H343 0.930 . S
C302 C303 1.348 . S
C302 C304 1.356 . S
C302 O327 1.325 . S
C303 C302 1.348 . S
C303 C305 1.353 . S
C303 H344 0.929 . S
C304 C302 1.356 . S
C304 C306 1.358 . S
C304 H345 0.930 . S
C305 C303 1.353 . S
C305 N307 1.303 1_655 S
C305 H346 0.940 . S
C306 C304 1.358 . S
C306 N307 1.263 1_655 S
C306 H347 0.930 . S
N307 C305 1.303 1_455 S
N307 C306 1.263 1_455 S
C308 C310 1.353 . S
C308 N311 1.314 . S
C308 H314 0.930 . S
C309 N311 1.279 . S
C309 C312 1.358 . S
C309 H315 0.930 . S
C310 C308 1.353 . S
C310 C313 1.348 . S
C310 H348 0.929 . S
N311 Li266 1.990 . S
N311 C308 1.314 . S
N311 C309 1.279 . S
C312 C309 1.358 . S
C312 C313 1.356 . S
C312 H349 0.930 . S
C313 C310 1.348 . S
C313 C312 1.356 . S
H314 C308 0.930 . S
H315 C309 0.930 . S
C316 N317 1.314 . S
C316 C318 1.353 . S
C316 H322 0.930 . S
N317 Li267 1.990 . S
N317 C316 1.314 . S
N317 C320 1.279 . S
C318 C316 1.353 . S
C318 C321 1.348 1_655 S
C318 H350 0.929 . S
C319 C320 1.358 1_455 S
C319 C321 1.356 . S
C319 H351 0.930 . S
C320 N317 1.279 . S
C320 C319 1.358 1_655 S
C320 H323 0.930 . S
C321 C318 1.348 1_455 S
C321 C319 1.356 . S
H322 C316 0.930 . S
H323 C320 0.930 . S
O324 Li264 1.956 . S
O324 Li265 1.970 . S
O324 Li266 1.961 . S
O324 C268 1.325 . S
O325 Li264 1.970 . S
O325 Li265 1.956 . S
O325 Li267 1.961 . S
O325 C274 1.325 . S
O326 Li264 1.961 . S
O326 Li266 1.956 . S
O326 Li267 1.970 . S
O326 C296 1.325 . S
O327 Li265 1.961 . S
O327 Li266 1.970 . S
O327 Li267 1.956 . S
O327 C302 1.325 . S
H328 C270 0.929 . S
H329 C271 0.930 . S
H330 C272 0.930 . S
H331 C273 0.930 . S
H332 C275 0.930 . S
H333 C277 0.929 . S
H334 C278 0.930 . S
H335 C279 0.930 . S
H336 C282 0.930 . S
H337 C285 0.929 . S
H338 C290 0.929 . S
H339 C291 0.930 . S
H340 C298 0.929 . S
H341 C299 0.930 . S
H342 C300 0.930 . S
H343 C301 0.930 . S
H344 C303 0.929 . S
H345 C304 0.930 . S
H346 C305 0.940 . S
H347 C306 0.930 . S
H348 C310 0.929 . S
H349 C312 0.930 . S
H350 C318 0.929 . S
H351 C319 0.930 . S
Li352 N369 1.990 . S
Li352 O412 1.956 . S
Li352 O413 1.970 . S
Li352 O414 1.961 . S
Li353 N377 1.990 . S
Li353 O412 1.970 . S
Li353 O413 1.956 . S
Li353 O415 1.961 . S
Li354 N399 1.990 . S
Li354 O412 1.961 . S
Li354 O414 1.956 . S
Li354 O415 1.970 . S
Li355 N405 1.990 . S
Li355 O413 1.961 . S
Li355 O414 1.970 . S
Li355 O415 1.956 . S
C356 C358 1.348 . S
C356 C359 1.356 . S
C356 O412 1.325 . S
N357 C360 1.314 . S
N357 C361 1.279 . S
C358 C356 1.348 . S
C358 C360 1.353 . S
C358 H416 0.929 . S
C359 C356 1.356 . S
C359 C361 1.358 . S
C359 H417 0.930 . S
C360 N357 1.314 . S
C360 C358 1.353 . S
C360 H418 0.930 . S
C361 N357 1.279 . S
C361 C359 1.358 . S
C361 H419 0.930 . S
C362 C365 1.348 . S
C362 C366 1.356 . S
C362 O413 1.325 . S
C363 N364 1.279 . S
C363 C366 1.358 . S
C363 H420 0.930 . S
N364 C363 1.279 . S
N364 C367 1.314 . S
C365 C362 1.348 . S
C365 C367 1.353 . S
C365 H421 0.929 . S
C366 C362 1.356 . S
C366 C363 1.358 . S
C366 H422 0.930 . S
C367 N364 1.314 . S
C367 C365 1.353 . S
C367 H423 0.930 . S
C368 N369 1.314 . S
C368 C373 1.353 . S
C368 H374 0.930 . S
N369 Li352 1.990 . S
N369 C368 1.314 . S
N369 C371 1.279 . S
C370 C371 1.358 . S
C370 C372 1.356 . S
C370 H424 0.930 . S
C371 N369 1.279 . S
C371 C370 1.358 . S
C371 H375 0.930 . S
C372 C370 1.356 . S
C372 C373 1.348 . S
C373 C368 1.353 . S
C373 C372 1.348 . S
C373 H425 0.929 . S
H374 C368 0.930 . S
H375 C371 0.930 . S
C376 N377 1.314 . S
C376 C378 1.353 1_655 S
C376 H382 0.930 . S
N377 Li353 1.990 . S
N377 C376 1.314 . S
N377 C380 1.279 . S
C378 C376 1.353 1_455 S
C378 C381 1.348 . S
C378 H426 0.929 . S
C379 C380 1.358 . S
C379 C381 1.356 1_655 S
C379 H427 0.930 . S
C380 N377 1.279 . S
C380 C379 1.358 . S
C380 H383 0.930 . S
C381 C378 1.348 . S
C381 C379 1.356 1_455 S
H382 C376 0.930 . S
H383 C380 0.930 . S
C384 C386 1.348 . S
C384 C387 1.356 . S
C384 O414 1.325 . S
N385 C388 1.314 . S
N385 C389 1.279 . S
C386 C384 1.348 . S
C386 C388 1.353 . S
C386 H428 0.929 . S
C387 C384 1.356 . S
C387 C389 1.358 . S
C387 H429 0.930 . S
C388 N385 1.314 . S
C388 C386 1.353 . S
C388 H430 0.930 . S
C389 N385 1.279 . S
C389 C387 1.358 . S
C389 H431 0.930 . S
C390 C391 1.348 . S
C390 C392 1.356 . S
C390 O415 1.325 . S
C391 C390 1.348 . S
C391 C393 1.353 . S
C391 H432 0.929 . S
C392 C390 1.356 . S
C392 C394 1.358 . S
C392 H433 0.930 . S
C393 C391 1.353 . S
C393 N395 1.314 . S
C393 H434 0.930 . S
C394 C392 1.358 . S
C394 N395 1.279 . S
C394 H435 0.930 1_655 S
N395 C393 1.314 . S
N395 C394 1.279 . S
C396 C398 1.353 . S
C396 N399 1.314 . S
C396 H402 0.930 . S
C397 N399 1.279 . S
C397 C400 1.358 . S
C397 H403 0.930 . S
C398 C396 1.353 . S
C398 C401 1.348 . S
C398 H436 0.929 . S
N399 Li354 1.990 . S
N399 C396 1.314 . S
N399 C397 1.279 . S
C400 C397 1.358 . S
C400 C401 1.356 . S
C400 H437 0.930 . S
C401 C398 1.348 . S
C401 C400 1.356 . S
H402 C396 0.930 . S
H403 C397 0.930 . S
C404 N405 1.314 . S
C404 C406 1.353 . S
C404 H410 0.930 . S
N405 Li355 1.990 . S
N405 C404 1.314 . S
N405 C408 1.279 . S
C406 C404 1.353 . S
C406 C409 1.348 . S
C406 H438 0.929 . S
C407 C408 1.358 . S
C407 C409 1.356 . S
C407 H439 0.930 . S
C408 N405 1.279 . S
C408 C407 1.358 . S
C408 H411 0.930 . S
C409 C406 1.348 . S
C409 C407 1.356 . S
H410 C404 0.930 . S
H411 C408 0.930 . S
O412 Li352 1.956 . S
O412 Li353 1.970 . S
O412 Li354 1.961 . S
O412 C356 1.325 . S
O413 Li352 1.970 . S
O413 Li353 1.956 . S
O413 Li355 1.961 . S
O413 C362 1.325 . S
O414 Li352 1.961 . S
O414 Li354 1.956 . S
O414 Li355 1.970 . S
O414 C384 1.325 . S
O415 Li353 1.961 . S
O415 Li354 1.970 . S
O415 Li355 1.956 . S
O415 C390 1.325 . S
H416 C358 0.929 . S
H417 C359 0.930 . S
H418 C360 0.930 . S
H419 C361 0.930 . S
H420 C363 0.930 . S
H421 C365 0.929 . S
H422 C366 0.930 . S
H423 C367 0.930 . S
H424 C370 0.930 . S
H425 C373 0.929 . S
H426 C378 0.929 . S
H427 C379 0.930 . S
H428 C386 0.929 . S
H429 C387 0.930 . S
H430 C388 0.930 . S
H431 C389 0.930 . S
H432 C391 0.929 . S
H433 C392 0.930 . S
H434 C393 0.930 . S
H435 C394 0.930 1_455 S
H436 C398 0.929 . S
H437 C400 0.930 . S
H438 C406 0.929 . S
H439 C407 0.930 . S
Li440 N457 1.990 . S
Li440 O500 1.956 . S
Li440 O501 1.970 . S
Li440 O502 1.961 . S
Li441 N465 1.990 . S
Li441 O500 1.970 . S
Li441 O501 1.956 . S
Li441 O503 1.961 . S
Li442 N487 1.990 . S
Li442 O500 1.961 . S
Li442 O502 1.956 . S
Li442 O503 1.970 . S
Li443 N493 1.990 . S
Li443 O501 1.961 . S
Li443 O502 1.970 . S
Li443 O503 1.956 . S
C444 C446 1.348 . S
C444 C447 1.356 . S
C444 O500 1.325 . S
N445 C448 1.314 . S
N445 C449 1.279 . S
C446 C444 1.348 . S
C446 C448 1.353 . S
C446 H504 0.929 . S
C447 C444 1.356 . S
C447 C449 1.358 . S
C447 H505 0.930 . S
C448 N445 1.314 . S
C448 C446 1.353 . S
C448 H506 0.930 . S
C449 N445 1.279 . S
C449 C447 1.358 . S
C449 H507 0.930 . S
C450 C453 1.348 . S
C450 C454 1.356 . S
C450 O501 1.325 . S
C451 N452 1.279 . S
C451 C454 1.358 1_565 S
C451 H508 0.930 . S
N452 C451 1.279 . S
N452 C455 1.314 . S
C453 C450 1.348 . S
C453 C455 1.353 1_545 S
C453 H509 0.929 . S
C454 C450 1.356 . S
C454 C451 1.358 1_545 S
C454 H510 0.930 . S
C455 N452 1.314 . S
C455 C453 1.353 1_565 S
C455 H511 0.930 . S
C456 N457 1.314 . S
C456 C461 1.353 . S
C456 H462 0.930 . S
N457 Li440 1.990 . S
N457 C456 1.314 . S
N457 C459 1.279 . S
C458 C459 1.358 . S
C458 C460 1.356 . S
C458 H512 0.930 . S
C459 N457 1.279 . S
C459 C458 1.358 . S
C459 H463 0.930 . S
C460 C458 1.356 . S
C460 C461 1.348 . S
C461 C456 1.353 . S
C461 C460 1.348 . S
C461 H513 0.929 . S
H462 C456 0.930 . S
H463 C459 0.930 . S
C464 N465 1.314 . S
C464 C466 1.353 . S
C464 H470 0.930 . S
N465 Li441 1.990 . S
N465 C464 1.314 . S
N465 C468 1.279 . S
C466 C464 1.353 . S
C466 C469 1.348 . S
C466 H514 0.929 . S
C467 C468 1.358 . S
C467 C469 1.356 . S
C467 H515 0.872 1_545 S
C468 N465 1.279 . S
C468 C467 1.358 . S
C468 H471 0.930 . S
C469 C466 1.348 . S
C469 C467 1.356 . S
H470 C464 0.930 . S
H471 C468 0.930 . S
C472 C474 1.348 . S
C472 C475 1.356 . S
C472 O502 1.325 . S
N473 C476 1.314 . S
N473 C477 1.279 . S
C474 C472 1.348 . S
C474 C476 1.353 . S
C474 H516 0.929 . S
C475 C472 1.356 . S
C475 C477 1.358 . S
C475 H517 0.930 . S
C476 N473 1.314 . S
C476 C474 1.353 . S
C476 H518 0.930 . S
C477 N473 1.279 . S
C477 C475 1.358 . S
C477 H519 0.930 . S
C478 C479 1.348 . S
C478 C480 1.356 . S
C478 O503 1.325 . S
C479 C478 1.348 . S
C479 C481 1.353 . S
C479 H520 0.929 . S
C480 C478 1.356 . S
C480 C482 1.358 . S
C480 H521 0.930 . S
C481 C479 1.353 . S
C481 N483 1.314 . S
C481 H522 0.930 . S
C482 C480 1.358 . S
C482 N483 1.279 . S
C482 H523 0.930 . S
N483 C481 1.314 . S
N483 C482 1.279 . S
C484 C486 1.353 . S
C484 N487 1.314 . S
C484 H490 0.930 . S
C485 N487 1.279 . S
C485 C488 1.358 . S
C485 H491 0.930 . S
C486 C484 1.353 . S
C486 C489 1.348 . S
C486 H524 0.929 . S
N487 Li442 1.990 . S
N487 C484 1.314 . S
N487 C485 1.279 . S
C488 C485 1.358 . S
C488 C489 1.356 . S
C488 H525 0.930 . S
C489 C486 1.348 . S
C489 C488 1.356 . S
H490 C484 0.930 . S
H491 C485 0.930 . S
C492 N493 1.314 . S
C492 C494 1.353 . S
C492 H498 0.930 . S
N493 Li443 1.990 . S
N493 C492 1.314 . S
N493 C496 1.279 . S
C494 C492 1.353 . S
C494 C497 1.348 . S
C494 H526 0.929 . S
C495 C496 1.358 . S
C495 C497 1.356 . S
C495 H527 0.930 . S
C496 N493 1.279 . S
C496 C495 1.358 . S
C496 H499 0.930 . S
C497 C494 1.348 . S
C497 C495 1.356 . S
H498 C492 0.930 . S
H499 C496 0.930 . S
O500 Li440 1.956 . S
O500 Li441 1.970 . S
O500 Li442 1.961 . S
O500 C444 1.325 . S
O501 Li440 1.970 . S
O501 Li441 1.956 . S
O501 Li443 1.961 . S
O501 C450 1.325 . S
O502 Li440 1.961 . S
O502 Li442 1.956 . S
O502 Li443 1.970 . S
O502 C472 1.325 . S
O503 Li441 1.961 . S
O503 Li442 1.970 . S
O503 Li443 1.956 . S
O503 C478 1.325 . S
H504 C446 0.929 . S
H505 C447 0.930 . S
H506 C448 0.930 . S
H507 C449 0.930 . S
H508 C451 0.930 . S
H509 C453 0.929 . S
H510 C454 0.930 . S
H511 C455 0.930 . S
H512 C458 0.930 . S
H513 C461 0.929 . S
H514 C466 0.929 . S
H515 C467 0.872 1_565 S
H516 C474 0.929 . S
H517 C475 0.930 . S
H518 C476 0.930 . S
H519 C477 0.930 . S
H520 C479 0.929 . S
H521 C480 0.930 . S
H522 C481 0.930 . S
H523 C482 0.930 . S
H524 C486 0.929 . S
H525 C488 0.930 . S
H526 C494 0.929 . S
H527 C495 0.930 . S
Li528 N545 1.990 . S
Li528 O588 1.956 . S
Li528 O589 1.970 . S
Li528 O590 1.961 . S
Li529 N553 1.990 . S
Li529 O588 1.970 . S
Li529 O589 1.956 . S
Li529 O591 1.961 . S
Li530 N575 1.990 . S
Li530 O588 1.961 . S
Li530 O590 1.956 . S
Li530 O591 1.970 . S
Li531 N581 1.990 . S
Li531 O589 1.961 . S
Li531 O590 1.970 . S
Li531 O591 1.956 . S
C532 C534 1.348 . S
C532 C535 1.356 . S
C532 O588 1.325 . S
N533 C536 1.314 . S
N533 C537 1.279 . S
C534 C532 1.348 . S
C534 C536 1.353 . S
C534 H592 0.929 . S
C535 C532 1.356 . S
C535 C537 1.358 . S
C535 H593 0.930 . S
C536 N533 1.314 . S
C536 C534 1.353 . S
C536 H594 0.930 . S
C537 N533 1.279 . S
C537 C535 1.358 . S
C537 H595 0.930 . S
C538 C541 1.348 . S
C538 C542 1.356 . S
C538 O589 1.325 . S
C539 N540 1.279 . S
C539 C542 1.358 . S
C539 H596 0.930 . S
N540 C539 1.279 . S
N540 C543 1.314 . S
C541 C538 1.348 . S
C541 C543 1.353 . S
C541 H597 0.929 . S
C542 C538 1.356 . S
C542 C539 1.358 . S
C542 H598 0.930 . S
C543 N540 1.314 . S
C543 C541 1.353 . S
C543 H599 0.930 . S
C544 N545 1.314 . S
C544 C549 1.353 . S
C544 H550 0.930 . S
N545 Li528 1.990 . S
N545 C544 1.314 . S
N545 C547 1.279 . S
C546 C547 1.358 . S
C546 C548 1.356 . S
C546 H600 0.930 . S
C547 N545 1.279 . S
C547 C546 1.358 . S
C547 H551 0.930 . S
C548 C546 1.356 . S
C548 C549 1.348 . S
C549 C544 1.353 . S
C549 C548 1.348 . S
C549 H601 0.929 . S
H550 C544 0.930 . S
H551 C547 0.930 . S
C552 N553 1.314 . S
C552 C554 1.353 . S
C552 H558 0.930 . S
N553 Li529 1.990 . S
N553 C552 1.314 . S
N553 C556 1.279 . S
C554 C552 1.353 . S
C554 C557 1.348 . S
C554 H602 0.929 . S
C555 C556 1.358 . S
C555 C557 1.356 . S
C555 H603 0.930 . S
C556 N553 1.279 . S
C556 C555 1.358 . S
C556 H559 0.930 . S
C557 C554 1.348 . S
C557 C555 1.356 . S
H558 C552 0.930 . S
H559 C556 0.930 . S
C560 C562 1.348 . S
C560 C563 1.356 . S
C560 O590 1.325 . S
N561 C564 1.314 . S
N561 C565 1.279 . S
C562 C560 1.348 . S
C562 C564 1.353 . S
C562 H604 0.929 . S
C563 C560 1.356 . S
C563 C565 1.358 . S
C563 H605 0.930 . S
C564 N561 1.314 . S
C564 C562 1.353 . S
C564 H606 0.930 . S
C565 N561 1.279 . S
C565 C563 1.358 . S
C565 H607 0.930 . S
C566 C567 1.348 . S
C566 C568 1.356 . S
C566 O591 1.325 . S
C567 C566 1.348 . S
C567 C569 1.353 . S
C567 H608 0.929 . S
C568 C566 1.356 . S
C568 C570 1.358 . S
C568 H609 0.930 . S
C569 C567 1.353 . S
C569 N571 1.314 . S
C569 H610 0.930 . S
C570 C568 1.358 . S
C570 N571 1.279 . S
C570 H611 0.930 . S
N571 C569 1.314 . S
N571 C570 1.279 . S
C572 C574 1.353 . S
C572 N575 1.314 . S
C572 H578 0.930 . S
C573 N575 1.279 . S
C573 C576 1.358 . S
C573 H579 0.930 . S
C574 C572 1.353 . S
C574 C577 1.348 . S
C574 H612 0.929 . S
N575 Li530 1.990 . S
N575 C572 1.314 . S
N575 C573 1.279 . S
C576 C573 1.358 . S
C576 C577 1.356 . S
C576 H613 0.930 . S
C577 C574 1.348 . S
C577 C576 1.356 . S
H578 C572 0.930 . S
H579 C573 0.930 . S
C580 N581 1.314 . S
C580 C582 1.353 . S
C580 H586 0.930 . S
N581 Li531 1.990 . S
N581 C580 1.314 . S
N581 C584 1.279 . S
C582 C580 1.353 . S
C582 C585 1.348 . S
C582 H614 0.929 . S
C583 C584 1.358 . S
C583 C585 1.356 . S
C583 H615 0.930 . S
C584 N581 1.279 . S
C584 C583 1.358 . S
C584 H587 0.930 . S
C585 C582 1.348 . S
C585 C583 1.356 . S
H586 C580 0.930 . S
H587 C584 0.930 . S
O588 Li528 1.956 . S
O588 Li529 1.970 . S
O588 Li530 1.961 . S
O588 C532 1.325 . S
O589 Li528 1.970 . S
O589 Li529 1.956 . S
O589 Li531 1.961 . S
O589 C538 1.325 . S
O590 Li528 1.961 . S
O590 Li530 1.956 . S
O590 Li531 1.970 . S
O590 C560 1.325 . S
O591 Li529 1.961 . S
O591 Li530 1.970 . S
O591 Li531 1.956 . S
O591 C566 1.325 . S
H592 C534 0.929 . S
H593 C535 0.930 . S
H594 C536 0.930 . S
H595 C537 0.930 . S
H596 C539 0.930 . S
H597 C541 0.929 . S
H598 C542 0.930 . S
H599 C543 0.930 . S
H600 C546 0.930 . S
H601 C549 0.929 . S
H602 C554 0.929 . S
H603 C555 0.930 . S
H604 C562 0.929 . S
H605 C563 0.930 . S
H606 C564 0.930 . S
H607 C565 0.930 . S
H608 C567 0.929 . S
H609 C568 0.930 . S
H610 C569 0.930 . S
H611 C570 0.930 . S
H612 C574 0.929 . S
H613 C576 0.930 . S
H614 C582 0.929 . S
H615 C583 0.930 . S
Li616 N633 1.990 . S
Li616 O676 1.956 . S
Li616 O677 1.970 . S
Li616 O678 1.961 . S
Li617 N641 1.990 . S
Li617 O676 1.970 . S
Li617 O677 1.956 . S
Li617 O679 1.961 . S
Li618 N663 1.990 . S
Li618 O676 1.961 . S
Li618 O678 1.956 . S
Li618 O679 1.970 . S
Li619 N669 1.990 . S
Li619 O677 1.961 . S
Li619 O678 1.970 . S
Li619 O679 1.956 . S
C620 C622 1.348 . S
C620 C623 1.356 . S
C620 O676 1.325 . S
N621 C624 1.314 . S
N621 C625 1.279 . S
C622 C620 1.348 . S
C622 C624 1.353 . S
C622 H680 0.929 . S
C623 C620 1.356 . S
C623 C625 1.358 . S
C623 H681 0.930 . S
C624 N621 1.314 . S
C624 C622 1.353 . S
C624 H682 0.930 . S
C625 N621 1.279 . S
C625 C623 1.358 . S
C625 H683 0.930 . S
C626 C629 1.348 . S
C626 C630 1.356 . S
C626 O677 1.325 . S
C627 N628 1.279 . S
C627 C630 1.358 . S
C627 H684 0.930 1_455 S
N628 C627 1.279 . S
N628 C631 1.314 . S
C629 C626 1.348 . S
C629 C631 1.353 . S
C629 H685 0.929 . S
C630 C626 1.356 . S
C630 C627 1.358 . S
C630 H686 0.930 . S
C631 N628 1.314 . S
C631 C629 1.353 . S
C631 H687 0.930 . S
C632 N633 1.314 . S
C632 C637 1.353 . S
C632 H638 0.930 . S
N633 Li616 1.990 . S
N633 C632 1.314 . S
N633 C635 1.279 . S
C634 C635 1.358 . S
C634 C636 1.356 . S
C634 H688 0.930 . S
C635 N633 1.279 . S
C635 C634 1.358 . S
C635 H639 0.930 . S
C636 C634 1.356 . S
C636 C637 1.348 . S
C637 C632 1.353 . S
C637 C636 1.348 . S
C637 H689 0.929 . S
H638 C632 0.930 . S
H639 C635 0.930 . S
C640 N641 1.314 . S
C640 C642 1.353 . S
C640 H646 0.930 . S
N641 Li617 1.990 . S
N641 C640 1.314 . S
N641 C644 1.279 . S
C642 C640 1.353 . S
C642 C645 1.348 . S
C642 H690 0.929 . S
C643 C644 1.358 . S
C643 C645 1.356 . S
C643 H691 0.930 . S
C644 N641 1.279 . S
C644 C643 1.358 . S
C644 H647 0.930 . S
C645 C642 1.348 . S
C645 C643 1.356 . S
H646 C640 0.930 . S
H647 C644 0.930 . S
C648 C650 1.348 . S
C648 C651 1.356 . S
C648 O678 1.325 . S
N649 C652 1.314 . S
N649 C653 1.279 . S
C650 C648 1.348 . S
C650 C652 1.353 1_565 S
C650 H692 0.929 . S
C651 C648 1.356 . S
C651 C653 1.358 1_565 S
C651 H693 0.930 . S
C652 N649 1.314 . S
C652 C650 1.353 1_545 S
C652 H694 0.930 . S
C653 N649 1.279 . S
C653 C651 1.358 1_545 S
C653 H695 0.930 . S
C654 C655 1.348 . S
C654 C656 1.356 . S
C654 O679 1.325 . S
C655 C654 1.348 . S
C655 C657 1.353 . S
C655 H696 0.929 . S
C656 C654 1.356 . S
C656 C658 1.358 . S
C656 H697 0.930 . S
C657 C655 1.353 . S
C657 N659 1.314 . S
C657 H698 0.930 . S
C658 C656 1.358 . S
C658 N659 1.279 . S
C658 H699 0.930 . S
N659 C657 1.314 . S
N659 C658 1.279 . S
C660 C662 1.353 . S
C660 N663 1.314 . S
C660 H666 0.930 . S
C661 N663 1.279 . S
C661 C664 1.358 . S
C661 H667 0.930 . S
C662 C660 1.353 . S
C662 C665 1.348 . S
C662 H700 0.929 . S
N663 Li618 1.990 . S
N663 C660 1.314 . S
N663 C661 1.279 . S
C664 C661 1.358 . S
C664 C665 1.356 . S
C664 H701 0.872 1_565 S
C665 C662 1.348 . S
C665 C664 1.356 . S
H666 C660 0.930 . S
H667 C661 0.930 . S
C668 N669 1.314 . S
C668 C670 1.353 1_455 S
C668 H674 0.930 . S
N669 Li619 1.990 . S
N669 C668 1.314 . S
N669 C672 1.279 . S
C670 C668 1.353 1_655 S
C670 C673 1.348 . S
C670 H702 0.929 . S
C671 C672 1.358 . S
C671 C673 1.356 1_455 S
C671 H703 0.930 . S
C672 N669 1.279 . S
C672 C671 1.358 . S
C672 H675 0.930 . S
C673 C670 1.348 . S
C673 C671 1.356 1_655 S
H674 C668 0.930 . S
H675 C672 0.930 . S
O676 Li616 1.956 . S
O676 Li617 1.970 . S
O676 Li618 1.961 . S
O676 C620 1.325 . S
O677 Li616 1.970 . S
O677 Li617 1.956 . S
O677 Li619 1.961 . S
O677 C626 1.325 . S
O678 Li616 1.961 . S
O678 Li618 1.956 . S
O678 Li619 1.970 . S
O678 C648 1.325 . S
O679 Li617 1.961 . S
O679 Li618 1.970 . S
O679 Li619 1.956 . S
O679 C654 1.325 . S
H680 C622 0.929 . S
H681 C623 0.930 . S
H682 C624 0.930 . S
H683 C625 0.930 . S
H684 C627 0.930 1_655 S
H685 C629 0.929 . S
H686 C630 0.930 . S
H687 C631 0.930 . S
H688 C634 0.930 . S
H689 C637 0.929 . S
H690 C642 0.929 . S
H691 C643 0.930 . S
H692 C650 0.929 . S
H693 C651 0.930 . S
H694 C652 0.930 . S
H695 C653 0.930 . S
H696 C655 0.929 . S
H697 C656 0.930 . S
H698 C657 0.930 . S
H699 C658 0.930 . S
H700 C662 0.929 . S
H701 C664 0.872 1_545 S
H702 C670 0.929 . S
H703 C671 0.930 . S
C704 C705 1.349 . S
C704 C706 1.327 . S
C704 H729 0.950 . S
C705 C704 1.349 . S
C705 C721 1.349 . S
C706 C704 1.327 . S
C706 C725 1.429 . S
C706 H730 0.950 . S
C707 C724 1.574 . S
C707 C726 1.368 . S
C707 H731 0.949 . S
H708 C712 0.949 . S
C709 C710 1.349 . S
C709 C711 1.327 . S
C709 H732 0.950 . S
C710 C709 1.349 . S
C710 C722 1.349 . S
C711 C709 1.327 . S
C711 C727 1.429 . S
C711 H733 0.950 . S
C712 H708 0.949 . S
C712 C720 1.574 . S
C712 C728 1.368 . S
H713 C721 0.950 . S
H714 C719 0.950 . S
H715 C720 0.949 . S
H716 C722 0.950 . S
H717 C723 0.950 . S
H718 C724 0.949 . S
C719 H714 0.950 . S
C719 C721 1.327 . S
C719 C725 1.429 . S
C720 C712 1.574 . S
C720 H715 0.949 . S
C720 C726 1.368 . S
C721 C705 1.349 . S
C721 H713 0.950 . S
C721 C719 1.327 . S
C722 C710 1.349 . S
C722 H716 0.950 . S
C722 C723 1.327 . S
C723 H717 0.950 . S
C723 C722 1.327 . S
C723 C727 1.429 . S
C724 C707 1.574 . S
C724 H718 0.949 . S
C724 C728 1.368 . S
C725 C706 1.429 . S
C725 C719 1.429 . S
C725 C726 1.523 . S
C726 C707 1.368 . S
C726 C720 1.368 . S
C726 C725 1.523 . S
C727 C711 1.429 . S
C727 C723 1.429 . S
C727 C728 1.523 . S
C728 C712 1.368 . S
C728 C724 1.368 . S
C728 C727 1.523 . S
H729 C704 0.950 . S
H730 C706 0.950 . S
H731 C707 0.949 . S
H732 C709 0.950 . S
H733 C711 0.950 . S
C734 C735 1.349 . S
C734 C736 1.327 . S
C734 H759 0.950 . S
C735 C734 1.349 . S
C735 C751 1.349 . S
C736 C734 1.327 . S
C736 C755 1.429 . S
C736 H760 0.950 . S
C737 C754 1.574 . S
C737 C756 1.368 . S
C737 H761 0.949 . S
H738 C742 0.949 . S
C739 C740 1.349 . S
C739 C741 1.327 . S
C739 H762 0.950 . S
C740 C739 1.349 . S
C740 C752 1.349 . S
C741 C739 1.327 . S
C741 C757 1.444 . S
C741 H763 0.950 . S
C742 H738 0.949 . S
C742 C750 1.574 . S
C742 C758 1.368 . S
H743 C751 0.950 . S
H744 C749 0.950 . S
H745 C750 0.949 . S
H746 C752 0.950 . S
H747 C753 0.950 . S
H748 C754 0.949 1_565 S
C749 H744 0.950 . S
C749 C751 1.327 . S
C749 C755 1.429 . S
C750 C742 1.574 . S
C750 H745 0.949 . S
C750 C756 1.368 . S
C751 C735 1.349 . S
C751 H743 0.950 . S
C751 C749 1.327 . S
C752 C740 1.349 . S
C752 H746 0.950 . S
C752 C753 1.327 1_565 S
C753 H747 0.950 . S
C753 C752 1.327 1_545 S
C753 C757 1.425 1_545 S
C754 C737 1.574 . S
C754 H748 0.949 1_545 S
C754 C758 1.368 . S
C755 C736 1.429 . S
C755 C749 1.429 . S
C755 C756 1.523 . S
C756 C737 1.368 . S
C756 C750 1.368 . S
C756 C755 1.523 . S
C757 C741 1.444 . S
C757 C753 1.425 1_565 S
C757 C758 1.512 1_565 S
C758 C742 1.368 . S
C758 C754 1.368 . S
C758 C757 1.512 1_545 S
H759 C734 0.950 . S
H760 C736 0.950 . S
H761 C737 0.949 . S
H762 C739 0.950 . S
H763 C741 0.950 . S
C764 C765 1.349 . S
C764 C766 1.327 . S
C764 H789 0.950 . S
C765 C764 1.349 . S
C765 C781 1.349 . S
C766 C764 1.327 . S
C766 C785 1.429 . S
C766 H790 0.950 . S
C767 C784 1.574 . S
C767 C786 1.368 . S
C767 H791 0.949 . S
H768 C772 0.949 . S
C769 C770 1.349 . S
C769 C771 1.327 . S
C769 H792 0.950 . S
C770 C769 1.349 . S
C770 C782 1.349 . S
C771 C769 1.327 . S
C771 C787 1.429 . S
C771 H793 0.950 . S
C772 H768 0.949 . S
C772 C780 1.574 . S
C772 C788 1.368 . S
H773 C781 0.950 . S
H774 C779 0.950 . S
H775 C780 0.949 . S
H776 C782 0.950 . S
H777 C783 0.950 . S
H778 C784 0.949 . S
C779 H774 0.950 . S
C779 C781 1.327 . S
C779 C785 1.429 . S
C780 C772 1.574 . S
C780 H775 0.949 . S
C780 C786 1.368 . S
C781 C765 1.349 . S
C781 H773 0.950 . S
C781 C779 1.327 . S
C782 C770 1.349 . S
C782 H776 0.950 . S
C782 C783 1.327 . S
C783 H777 0.950 . S
C783 C782 1.327 . S
C783 C787 1.429 . S
C784 C767 1.574 . S
C784 H778 0.949 . S
C784 C788 1.368 . S
C785 C766 1.429 . S
C785 C779 1.429 . S
C785 C786 1.523 . S
C786 C767 1.368 . S
C786 C780 1.368 . S
C786 C785 1.523 . S
C787 C771 1.429 . S
C787 C783 1.429 . S
C787 C788 1.523 . S
C788 C772 1.368 . S
C788 C784 1.368 . S
C788 C787 1.523 . S
H789 C764 0.950 . S
H790 C766 0.950 . S
H791 C767 0.949 . S
H792 C769 0.950 . S
H793 C771 0.950 . S
C794 C795 1.349 1_565 S
C794 C796 1.327 . S
C794 H819 0.950 . S
C795 C794 1.349 1_545 S
C795 C811 1.349 . S
C796 C794 1.327 . S
C796 C815 1.414 1_565 S
C796 H820 0.950 . S
C797 C814 1.574 1_545 S
C797 C816 1.368 1_545 S
C797 H821 0.949 . S
H798 C802 0.949 . S
C799 C800 1.349 . S
C799 C801 1.327 . S
C799 H822 0.950 . S
C800 C799 1.349 . S
C800 C812 1.349 . S
C801 C799 1.327 . S
C801 C817 1.429 . S
C801 H823 0.950 . S
C802 H798 0.949 . S
C802 C810 1.574 . S
C802 C818 1.368 . S
H803 C811 0.950 . S
H804 C809 0.950 . S
H805 C810 0.949 . S
H806 C812 0.950 . S
H807 C813 0.950 . S
H808 C814 0.949 1_545 S
C809 H804 0.950 . S
C809 C811 1.327 . S
C809 C815 1.455 . S
C810 C802 1.574 . S
C810 H805 0.949 . S
C810 C816 1.368 . S
C811 C795 1.349 . S
C811 H803 0.950 . S
C811 C809 1.327 . S
C812 C800 1.349 . S
C812 H806 0.950 . S
C812 C813 1.327 . S
C813 H807 0.950 . S
C813 C812 1.327 . S
C813 C817 1.429 . S
C814 C797 1.574 1_565 S
C814 H808 0.949 1_565 S
C814 C818 1.368 . S
C815 C796 1.414 1_545 S
C815 C809 1.455 . S
C815 C816 1.512 1_545 S
C816 C797 1.368 1_565 S
C816 C810 1.368 . S
C816 C815 1.512 1_565 S
C817 C801 1.429 . S
C817 C813 1.429 . S
C817 C818 1.523 . S
C818 C802 1.368 . S
C818 C814 1.368 . S
C818 C817 1.523 . S
H819 C794 0.950 . S
H820 C796 0.950 . S
H821 C797 0.949 . S
H822 C799 0.950 . S
H823 C801 0.950 . S
C824 C825 1.349 . S
C824 C826 1.327 . S
C824 H849 0.950 . S
C825 C824 1.349 . S
C825 C841 1.349 . S
C826 C824 1.327 . S
C826 C845 1.429 . S
C826 H850 0.950 . S
C827 C844 1.574 . S
C827 C846 1.368 . S
C827 H851 0.949 . S
H828 C832 0.949 . S
C829 C830 1.349 . S
C829 C831 1.327 . S
C829 H852 0.950 . S
C830 C829 1.349 . S
C830 C842 1.349 . S
C831 C829 1.327 . S
C831 C847 1.429 . S
C831 H853 0.950 . S
C832 H828 0.949 . S
C832 C840 1.574 . S
C832 C848 1.368 . S
H833 C841 0.950 . S
H834 C839 0.950 . S
H835 C840 0.949 . S
H836 C842 0.950 . S
H837 C843 0.950 . S
H838 C844 0.949 . S
C839 H834 0.950 . S
C839 C841 1.327 . S
C839 C845 1.429 . S
C840 C832 1.574 . S
C840 H835 0.949 . S
C840 C846 1.368 . S
C841 C825 1.349 . S
C841 H833 0.950 . S
C841 C839 1.327 . S
C842 C830 1.349 . S
C842 H836 0.950 . S
C842 C843 1.327 . S
C843 H837 0.950 . S
C843 C842 1.327 . S
C843 C847 1.429 . S
C844 C827 1.574 . S
C844 H838 0.949 . S
C844 C848 1.368 . S
C845 C826 1.429 . S
C845 C839 1.429 . S
C845 C846 1.523 . S
C846 C827 1.368 . S
C846 C840 1.368 . S
C846 C845 1.523 . S
C847 C831 1.429 . S
C847 C843 1.429 . S
C847 C848 1.523 . S
C848 C832 1.368 . S
C848 C844 1.368 . S
C848 C847 1.523 . S
H849 C824 0.950 . S
H850 C826 0.950 . S
H851 C827 0.949 . S
H852 C829 0.950 . S
H853 C831 0.950 . S
C854 C855 1.349 . S
C854 C856 1.327 1_545 S
C854 H879 0.939 1_545 S
C855 C854 1.349 . S
C855 C871 1.349 . S
C856 C854 1.327 1_565 S
C856 C875 1.420 1_565 S
C856 H880 0.950 . S
C857 C874 1.594 . S
C857 C876 1.387 . S
C857 H881 0.916 1_565 S
H858 C862 0.949 . S
C859 C860 1.349 . S
C859 C861 1.327 . S
C859 H882 0.950 . S
C860 C859 1.349 . S
C860 C872 1.349 . S
C861 C859 1.327 . S
C861 C877 1.429 . S
C861 H883 0.950 . S
C862 H858 0.949 . S
C862 C870 1.574 . S
C862 C878 1.368 . S
H863 C871 0.950 . S
H864 C869 0.950 . S
H865 C870 0.949 . S
H866 C872 0.950 . S
H867 C873 0.950 . S
H868 C874 0.949 . S
C869 H864 0.950 . S
C869 C871 1.327 . S
C869 C875 1.452 . S
C870 C862 1.574 . S
C870 H865 0.949 . S
C870 C876 1.368 . S
C871 C855 1.349 . S
C871 H863 0.950 . S
C871 C869 1.327 . S
C872 C860 1.349 . S
C872 H866 0.950 . S
C872 C873 1.327 . S
C873 H867 0.950 . S
C873 C872 1.327 . S
C873 C877 1.429 . S
C874 C857 1.594 . S
C874 H868 0.949 . S
C874 C878 1.368 . S
C875 C856 1.420 1_545 S
C875 C869 1.452 . S
C875 C876 1.510 1_545 S
C876 C857 1.387 . S
C876 C870 1.368 . S
C876 C875 1.510 1_565 S
C877 C861 1.429 . S
C877 C873 1.429 . S
C877 C878 1.523 . S
C878 C862 1.368 . S
C878 C874 1.368 . S
C878 C877 1.523 . S
H879 C854 0.939 1_565 S
H880 C856 0.950 . S
H881 C857 0.916 1_545 S
H882 C859 0.950 . S
H883 C861 0.950 . S
C884 C885 1.349 . S
C884 C886 1.327 . S
C884 H909 0.950 . S
C885 C884 1.349 . S
C885 C901 1.349 . S
C886 C884 1.327 . S
C886 C905 1.429 . S
C886 H910 0.950 . S
C887 C904 1.574 . S
C887 C906 1.368 . S
C887 H911 0.949 . S
H888 C892 0.949 . S
C889 C890 1.349 . S
C889 C891 1.327 . S
C889 H912 0.950 . S
C890 C889 1.349 . S
C890 C902 1.349 . S
C891 C889 1.327 . S
C891 C907 1.429 . S
C891 H913 0.950 . S
C892 H888 0.949 . S
C892 C900 1.574 . S
C892 C908 1.368 . S
H893 C901 0.950 . S
H894 C899 0.950 . S
H895 C900 0.949 . S
H896 C902 0.950 . S
H897 C903 0.950 . S
H898 C904 0.949 . S
C899 H894 0.950 . S
C899 C901 1.327 . S
C899 C905 1.429 . S
C900 C892 1.574 . S
C900 H895 0.949 . S
C900 C906 1.368 . S
C901 C885 1.349 . S
C901 H893 0.950 . S
C901 C899 1.327 . S
C902 C890 1.349 . S
C902 H896 0.950 . S
C902 C903 1.327 . S
C903 H897 0.950 . S
C903 C902 1.327 . S
C903 C907 1.429 . S
C904 C887 1.574 . S
C904 H898 0.949 . S
C904 C908 1.368 . S
C905 C886 1.429 . S
C905 C899 1.429 . S
C905 C906 1.523 . S
C906 C887 1.368 . S
C906 C900 1.368 . S
C906 C905 1.523 . S
C907 C891 1.429 . S
C907 C903 1.429 . S
C907 C908 1.523 . S
C908 C892 1.368 . S
C908 C904 1.368 . S
C908 C907 1.523 . S
H909 C884 0.950 . S
H910 C886 0.950 . S
H911 C887 0.949 . S
H912 C889 0.950 . S
H913 C891 0.950 . S
C914 C915 1.349 . S
C914 C916 1.327 . S
C914 H939 0.950 . S
C915 C914 1.349 . S
C915 C931 1.375 . S
C916 C914 1.327 . S
C916 C935 1.456 . S
C916 H940 0.950 . S
C917 C934 1.574 . S
C917 C936 1.368 . S
C917 H941 0.949 . S
H918 C922 0.949 . S
C919 C920 1.349 . S
C919 C921 1.327 . S
C919 H942 0.950 . S
C920 C919 1.349 . S
C920 C932 1.349 . S
C921 C919 1.327 . S
C921 C937 1.429 . S
C921 H943 0.950 . S
C922 H918 0.949 . S
C922 C930 1.574 1_545 S
C922 C938 1.368 . S
H923 C931 0.937 1_545 S
H924 C929 0.950 . S
H925 C930 0.949 . S
H926 C932 0.950 . S
H927 C933 0.950 . S
H928 C934 0.949 . S
C929 H924 0.950 . S
C929 C931 1.314 1_545 S
C929 C935 1.416 1_545 S
C930 C922 1.574 1_565 S
C930 H925 0.949 . S
C930 C936 1.368 1_565 S
C931 C915 1.375 . S
C931 H923 0.937 1_565 S
C931 C929 1.314 1_565 S
C932 C920 1.349 . S
C932 H926 0.950 . S
C932 C933 1.327 . S
C933 H927 0.950 . S
C933 C932 1.327 . S
C933 C937 1.429 . S
C934 C917 1.574 . S
C934 H928 0.949 . S
C934 C938 1.368 . S
C935 C916 1.456 . S
C935 C929 1.416 1_565 S
C935 C936 1.510 1_565 S
C936 C917 1.368 . S
C936 C930 1.368 1_545 S
C936 C935 1.510 1_545 S
C937 C921 1.429 . S
C937 C933 1.429 . S
C937 C938 1.523 . S
C938 C922 1.368 . S
C938 C934 1.368 . S
C938 C937 1.523 . S
H939 C914 0.950 . S
H940 C916 0.950 . S
H941 C917 0.949 . S
H942 C919 0.950 . S
H943 C921 0.950 . S
C944 C945 1.349 . S
C944 C946 1.327 . S
C944 H969 0.950 . S
C945 C944 1.349 . S
C945 C961 1.349 . S
C946 C944 1.327 . S
C946 C965 1.429 . S
C946 H970 0.950 . S
C947 C964 1.574 . S
C947 C966 1.368 . S
C947 H971 0.949 . S
H948 C952 0.949 . S
C949 C950 1.349 . S
C949 C951 1.327 . S
C949 H972 0.950 . S
C950 C949 1.349 . S
C950 C962 1.349 . S
C951 C949 1.327 . S
C951 C967 1.429 . S
C951 H973 0.950 . S
C952 H948 0.949 . S
C952 C960 1.574 . S
C952 C968 1.368 . S
H953 C961 0.950 . S
H954 C959 0.950 . S
H955 C960 0.949 . S
H956 C962 0.950 . S
H957 C963 0.950 . S
H958 C964 0.949 . S
C959 H954 0.950 . S
C959 C961 1.327 . S
C959 C965 1.429 . S
C960 C952 1.574 . S
C960 H955 0.949 . S
C960 C966 1.368 1_655 S
C961 C945 1.349 . S
C961 H953 0.950 . S
C961 C959 1.327 . S
C962 C950 1.349 . S
C962 H956 0.950 . S
C962 C963 1.327 . S
C963 H957 0.950 . S
C963 C962 1.327 . S
C963 C967 1.429 . S
C964 C947 1.574 . S
C964 H958 0.949 . S
C964 C968 1.368 1_455 S
C965 C946 1.429 . S
C965 C959 1.429 . S
C965 C966 1.523 . S
C966 C947 1.368 . S
C966 C960 1.368 1_455 S
C966 C965 1.523 . S
C967 C951 1.429 . S
C967 C963 1.429 . S
C967 C968 1.523 . S
C968 C952 1.368 . S
C968 C964 1.368 1_655 S
C968 C967 1.523 . S
H969 C944 0.950 . S
H970 C946 0.950 . S
H971 C947 0.949 . S
H972 C949 0.950 . S
H973 C951 0.950 . S
C974 C975 1.349 . S
C974 C976 1.327 . S
C974 H999 0.972 . S
C975 C974 1.349 . S
C975 C991 1.349 . S
C976 C974 1.327 . S
C976 C995 1.429 . S
C976 H1000 0.950 1_565 S
C977 C994 1.574 . S
C977 C996 1.368 . S
C977 H1001 0.949 . S
H978 C982 0.949 . S
C979 C980 1.349 . S
C979 C981 1.327 . S
C979 H1002 0.970 . S
C980 C979 1.349 . S
C980 C992 1.349 . S
C981 C979 1.327 . S
C981 C997 1.429 . S
C981 H1003 0.950 1_545 S
C982 H978 0.949 . S
C982 C990 1.574 . S
C982 C998 1.368 . S
H983 C991 0.950 . S
H984 C989 0.950 . S
H985 C990 0.949 . S
H986 C992 0.950 . S
H987 C993 0.950 . S
H988 C994 0.949 . S
C989 H984 0.950 . S
C989 C991 1.327 . S
C989 C995 1.429 . S
C990 C982 1.574 . S
C990 H985 0.949 . S
C990 C996 1.368 1_545 S
C991 C975 1.349 . S
C991 H983 0.950 . S
C991 C989 1.327 . S
C992 C980 1.349 . S
C992 H986 0.950 . S
C992 C993 1.327 . S
C993 H987 0.950 . S
C993 C992 1.327 . S
C993 C997 1.429 . S
C994 C977 1.574 . S
C994 H988 0.949 . S
C994 C998 1.368 1_565 S
C995 C976 1.429 . S
C995 C989 1.429 . S
C995 C996 1.523 . S
C996 C977 1.368 . S
C996 C990 1.368 1_565 S
C996 C995 1.523 . S
C997 C981 1.429 . S
C997 C993 1.429 . S
C997 C998 1.523 . S
C998 C982 1.368 . S
C998 C994 1.368 1_545 S
C998 C997 1.523 . S
H999 C974 0.972 . S
H1000 C976 0.950 1_545 S
H1001 C977 0.949 . S
H1002 C979 0.970 . S
H1003 C981 0.950 1_565 S
C1004 C1005 1.349 . S
C1004 C1006 1.327 . S
C1004 H1029 0.950 . S
C1005 C1004 1.349 . S
C1005 C1021 1.349 . S
C1006 C1004 1.327 . S
C1006 C1025 1.429 . S
C1006 H1030 0.950 . S
C1007 C1024 1.574 1_554 S
C1007 C1026 1.368 . S
C1007 H1031 0.949 . S
H1008 C1012 0.949 . S
C1009 C1010 1.349 . S
C1009 C1011 1.327 . S
C1009 H1032 0.950 . S
C1010 C1009 1.349 . S
C1010 C1022 1.349 . S
C1011 C1009 1.327 . S
C1011 C1027 1.429 . S
C1011 H1033 0.950 . S
C1012 H1008 0.949 . S
C1012 C1020 1.574 1_556 S
C1012 C1028 1.368 . S
H1013 C1021 0.950 . S
H1014 C1019 0.950 . S
H1015 C1020 0.949 . S
H1016 C1022 0.950 . S
H1017 C1023 0.950 . S
H1018 C1024 0.949 . S
C1019 H1014 0.950 . S
C1019 C1021 1.327 . S
C1019 C1025 1.429 . S
C1020 C1012 1.574 1_554 S
C1020 H1015 0.949 . S
C1020 C1026 1.368 . S
C1021 C1005 1.349 . S
C1021 H1013 0.950 . S
C1021 C1019 1.327 . S
C1022 C1010 1.349 . S
C1022 H1016 0.950 . S
C1022 C1023 1.327 . S
C1023 H1017 0.950 . S
C1023 C1022 1.327 . S
C1023 C1027 1.429 . S
C1024 C1007 1.574 1_556 S
C1024 H1018 0.949 . S
C1024 C1028 1.368 . S
C1025 C1006 1.429 . S
C1025 C1019 1.429 . S
C1025 C1026 1.523 . S
C1026 C1007 1.368 . S
C1026 C1020 1.368 . S
C1026 C1025 1.523 . S
C1027 C1011 1.429 . S
C1027 C1023 1.429 . S
C1027 C1028 1.523 . S
C1028 C1012 1.368 . S
C1028 C1024 1.368 . S
C1028 C1027 1.523 . S
H1029 C1004 0.950 . S
H1030 C1006 0.950 . S
H1031 C1007 0.949 . S
H1032 C1009 0.950 . S
H1033 C1011 0.950 . S
C1034 C1035 1.349 . S
C1034 C1036 1.327 . S
C1034 H1059 0.942 1_565 S
C1035 C1034 1.349 . S
C1035 C1051 1.349 . S
C1036 C1034 1.327 . S
C1036 C1055 1.429 . S
C1036 H1060 0.950 1_565 S
C1037 C1054 1.540 1_456 S
C1037 C1056 1.400 . S
C1037 H1061 0.952 . S
H1038 C1042 0.948 . S
C1039 C1040 1.349 . S
C1039 C1041 1.327 . S
C1039 H1062 0.944 1_545 S
C1040 C1039 1.349 . S
C1040 C1052 1.349 . S
C1041 C1039 1.327 . S
C1041 C1057 1.429 . S
C1041 H1063 0.950 1_545 S
C1042 H1038 0.948 . S
C1042 C1050 1.559 1_654 S
C1042 C1058 1.382 . S
H1043 C1051 0.950 . S
H1044 C1049 0.950 . S
H1045 C1050 0.949 . S
H1046 C1052 0.950 . S
H1047 C1053 0.950 . S
H1048 C1054 0.949 . S
C1049 H1044 0.950 . S
C1049 C1051 1.327 . S
C1049 C1055 1.429 . S
C1050 C1042 1.559 1_456 S
C1050 H1045 0.949 . S
C1050 C1056 1.368 1_545 S
C1051 C1035 1.349 . S
C1051 H1043 0.950 . S
C1051 C1049 1.327 . S
C1052 C1040 1.349 . S
C1052 H1046 0.950 . S
C1052 C1053 1.327 . S
C1053 H1047 0.950 . S
C1053 C1052 1.327 . S
C1053 C1057 1.429 . S
C1054 C1037 1.540 1_654 S
C1054 H1048 0.949 . S
C1054 C1058 1.368 1_565 S
C1055 C1036 1.429 . S
C1055 C1049 1.429 . S
C1055 C1056 1.523 . S
C1056 C1037 1.400 . S
C1056 C1050 1.368 1_565 S
C1056 C1055 1.523 . S
C1057 C1041 1.429 . S
C1057 C1053 1.429 . S
C1057 C1058 1.523 . S
C1058 C1042 1.382 . S
C1058 C1054 1.368 1_545 S
C1058 C1057 1.523 . S
H1059 C1034 0.942 1_545 S
H1060 C1036 0.950 1_545 S
H1061 C1037 0.952 . S
H1062 C1039 0.944 1_565 S
H1063 C1041 0.950 1_565 S
C1064 C1065 1.349 . S
C1064 C1066 1.327 . S
C1064 H1089 0.950 . S
C1065 C1064 1.349 . S
C1065 C1081 1.349 . S
C1066 C1064 1.327 . S
C1066 C1085 1.429 . S
C1066 H1090 0.950 . S
C1067 C1084 1.574 . S
C1067 C1086 1.368 . S
C1067 H1091 0.949 . S
H1068 C1072 0.949 . S
C1069 C1070 1.349 . S
C1069 C1071 1.327 . S
C1069 H1092 0.950 . S
C1070 C1069 1.349 . S
C1070 C1082 1.349 . S
C1071 C1069 1.327 . S
C1071 C1087 1.429 . S
C1071 H1093 0.950 . S
C1072 H1068 0.949 . S
C1072 C1080 1.574 . S
C1072 C1088 1.368 . S
H1073 C1081 0.950 . S
H1074 C1079 0.950 . S
H1075 C1080 0.949 . S
H1076 C1082 0.950 . S
H1077 C1083 0.950 . S
H1078 C1084 0.949 . S
C1079 H1074 0.950 . S
C1079 C1081 1.327 . S
C1079 C1085 1.429 . S
C1080 C1072 1.574 . S
C1080 H1075 0.949 . S
C1080 C1086 1.368 . S
C1081 C1065 1.349 . S
C1081 H1073 0.950 . S
C1081 C1079 1.327 . S
C1082 C1070 1.349 . S
C1082 H1076 0.950 . S
C1082 C1083 1.327 . S
C1083 H1077 0.950 . S
C1083 C1082 1.327 . S
C1083 C1087 1.429 . S
C1084 C1067 1.574 . S
C1084 H1078 0.949 . S
C1084 C1088 1.368 . S
C1085 C1066 1.429 . S
C1085 C1079 1.429 . S
C1085 C1086 1.523 . S
C1086 C1067 1.368 . S
C1086 C1080 1.368 . S
C1086 C1085 1.523 . S
C1087 C1071 1.429 . S
C1087 C1083 1.429 . S
C1087 C1088 1.523 . S
C1088 C1072 1.368 . S
C1088 C1084 1.368 . S
C1088 C1087 1.523 . S
H1089 C1064 0.950 . S
H1090 C1066 0.950 . S
H1091 C1067 0.949 . S
H1092 C1069 0.950 . S
H1093 C1071 0.950 . S
C1094 C1095 1.349 . S
C1094 C1096 1.327 . S
C1094 H1119 0.950 . S
C1095 C1094 1.349 . S
C1095 C1111 1.349 . S
C1096 C1094 1.327 . S
C1096 C1115 1.429 . S
C1096 H1120 0.950 . S
C1097 C1114 1.574 . S
C1097 C1116 1.368 . S
C1097 H1121 0.949 . S
H1098 C1102 0.949 . S
C1099 C1100 1.349 . S
C1099 C1101 1.327 . S
C1099 H1122 0.950 . S
C1100 C1099 1.349 . S
C1100 C1112 1.349 . S
C1101 C1099 1.327 . S
C1101 C1117 1.429 . S
C1101 H1123 0.950 . S
C1102 H1098 0.949 . S
C1102 C1110 1.574 . S
C1102 C1118 1.368 . S
H1103 C1111 0.950 . S
H1104 C1109 0.950 . S
H1105 C1110 0.949 . S
H1106 C1112 0.950 . S
H1107 C1113 0.950 . S
H1108 C1114 0.949 . S
C1109 H1104 0.950 . S
C1109 C1111 1.327 . S
C1109 C1115 1.429 . S
C1110 C1102 1.574 . S
C1110 H1105 0.949 . S
C1110 C1116 1.368 . S
C1111 C1095 1.349 . S
C1111 H1103 0.950 . S
C1111 C1109 1.327 . S
C1112 C1100 1.349 . S
C1112 H1106 0.950 . S
C1112 C1113 1.327 . S
C1113 H1107 0.950 . S
C1113 C1112 1.327 . S
C1113 C1117 1.429 . S
C1114 C1097 1.574 . S
C1114 H1108 0.949 . S
C1114 C1118 1.368 . S
C1115 C1096 1.429 . S
C1115 C1109 1.429 . S
C1115 C1116 1.523 . S
C1116 C1097 1.368 . S
C1116 C1110 1.368 . S
C1116 C1115 1.523 . S
C1117 C1101 1.429 . S
C1117 C1113 1.429 . S
C1117 C1118 1.523 . S
C1118 C1102 1.368 . S
C1118 C1114 1.368 . S
C1118 C1117 1.523 . S
H1119 C1094 0.950 . S
H1120 C1096 0.950 . S
H1121 C1097 0.949 . S
H1122 C1099 0.950 . S
H1123 C1101 0.950 . S
C1124 C1125 1.349 . S
C1124 C1126 1.327 . S
C1124 H1149 0.950 . S
C1125 C1124 1.349 . S
C1125 C1141 1.349 . S
C1126 C1124 1.327 . S
C1126 C1145 1.429 . S
C1126 H1150 0.950 . S
C1127 C1144 1.574 . S
C1127 C1146 1.368 . S
C1127 H1151 0.949 . S
H1128 C1132 0.949 . S
C1129 C1130 1.349 . S
C1129 C1131 1.327 . S
C1129 H1152 0.950 . S
C1130 C1129 1.349 . S
C1130 C1142 1.349 . S
C1131 C1129 1.327 . S
C1131 C1147 1.429 . S
C1131 H1153 0.950 . S
C1132 H1128 0.949 . S
C1132 C1140 1.574 . S
C1132 C1148 1.368 . S
H1133 C1141 0.950 . S
H1134 C1139 0.950 . S
H1135 C1140 0.949 . S
H1136 C1142 0.950 . S
H1137 C1143 0.950 . S
H1138 C1144 0.949 . S
C1139 H1134 0.950 . S
C1139 C1141 1.327 . S
C1139 C1145 1.429 . S
C1140 C1132 1.574 . S
C1140 H1135 0.949 . S
C1140 C1146 1.368 . S
C1141 C1125 1.349 . S
C1141 H1133 0.950 . S
C1141 C1139 1.327 . S
C1142 C1130 1.349 . S
C1142 H1136 0.950 . S
C1142 C1143 1.327 . S
C1143 H1137 0.950 . S
C1143 C1142 1.327 . S
C1143 C1147 1.429 . S
C1144 C1127 1.574 . S
C1144 H1138 0.949 . S
C1144 C1148 1.368 . S
C1145 C1126 1.429 . S
C1145 C1139 1.429 . S
C1145 C1146 1.523 . S
C1146 C1127 1.368 . S
C1146 C1140 1.368 . S
C1146 C1145 1.523 . S
C1147 C1131 1.429 . S
C1147 C1143 1.429 . S
C1147 C1148 1.523 . S
C1148 C1132 1.368 . S
C1148 C1144 1.368 . S
C1148 C1147 1.523 . S
H1149 C1124 0.950 . S
H1150 C1126 0.950 . S
H1151 C1127 0.949 . S
H1152 C1129 0.950 . S
H1153 C1131 0.950 . S
C1154 C1155 1.349 . S
C1154 C1156 1.327 . S
C1154 H1179 0.950 . S
C1155 C1154 1.349 . S
C1155 C1171 1.349 . S
C1156 C1154 1.327 . S
C1156 C1175 1.429 . S
C1156 H1180 0.950 . S
C1157 C1174 1.574 . S
C1157 C1176 1.368 . S
C1157 H1181 0.949 . S
H1158 C1162 0.949 . S
C1159 C1160 1.349 . S
C1159 C1161 1.327 . S
C1159 H1182 0.950 . S
C1160 C1159 1.349 . S
C1160 C1172 1.349 . S
C1161 C1159 1.327 . S
C1161 C1177 1.429 . S
C1161 H1183 0.950 . S
C1162 H1158 0.949 . S
C1162 C1170 1.574 . S
C1162 C1178 1.368 . S
H1163 C1171 0.950 . S
H1164 C1169 0.950 . S
H1165 C1170 0.949 . S
H1166 C1172 0.950 . S
H1167 C1173 0.950 . S
H1168 C1174 0.949 . S
C1169 H1164 0.950 . S
C1169 C1171 1.327 . S
C1169 C1175 1.429 . S
C1170 C1162 1.574 . S
C1170 H1165 0.949 . S
C1170 C1176 1.368 . S
C1171 C1155 1.349 . S
C1171 H1163 0.950 . S
C1171 C1169 1.327 . S
C1172 C1160 1.349 . S
C1172 H1166 0.950 . S
C1172 C1173 1.327 . S
C1173 H1167 0.950 . S
C1173 C1172 1.327 . S
C1173 C1177 1.429 . S
C1174 C1157 1.574 . S
C1174 H1168 0.949 . S
C1174 C1178 1.368 . S
C1175 C1156 1.429 . S
C1175 C1169 1.429 . S
C1175 C1176 1.523 . S
C1176 C1157 1.368 . S
C1176 C1170 1.368 . S
C1176 C1175 1.523 . S
C1177 C1161 1.429 . S
C1177 C1173 1.429 . S
C1177 C1178 1.523 . S
C1178 C1162 1.368 . S
C1178 C1174 1.368 . S
C1178 C1177 1.523 . S
H1179 C1154 0.950 . S
H1180 C1156 0.950 . S
H1181 C1157 0.949 . S
H1182 C1159 0.950 . S
H1183 C1161 0.950 . S
C705 C57 0.792 . S
C710 C233 0.792 . S
C735 C321 0.793 . S
C740 C108 0.792 . S
C765 C196 0.792 . S
C770 C20 0.792 . S
C795 C284 0.792 . S
C800 C145 0.793 . S
C825 C585 0.784 . S
C830 C372 0.783 . S
C855 C469 0.783 . S
C860 C673 0.784 . S
C885 C577 0.783 . S
C890 C381 0.784 . S
C915 C665 0.783 . S
C920 C460 0.784 . S
C945 C29 1.645 . S
C950 C401 1.648 . S
C975 C137 1.645 . S
C980 C497 1.648 . S
C1005 C225 1.645 . S
C1010 C548 1.648 . S
C1035 C636 1.648 . S
C1040 C313 1.645 . S
C1065 C49 1.643 . S
C1070 C117 1.643 . S
C1095 C293 1.643 . S
C1100 C205 1.643 . S
C1125 C489 1.655 . S
C1130 C409 1.655 . S
C1155 C557 1.655 . S
C1160 C645 1.655 . S
