# Generated by pormake.
# Topology sni, (6)-cn, num edge types: 1
# Building blocks:
#     Node 0, Type 0, BuildingBlock: OJICUG_clean_sbu_0, # of connection points: 6
#     Node 1, Type 0, BuildingBlock: OJICUG_clean_sbu_0, # of connection points: 6
#     Node 2, Type 0, BuildingBlock: OJICUG_clean_sbu_0, # of connection points: 6
#     Node 3, Type 0, BuildingBlock: OJICUG_clean_sbu_0, # of connection points: 6
#     Node 4, Type 0, BuildingBlock: OJICUG_clean_sbu_0, # of connection points: 6
#     Node 5, Type 0, BuildingBlock: OJICUG_clean_sbu_0, # of connection points: 6
#     Node 6, Type 0, BuildingBlock: OJICUG_clean_sbu_0, # of connection points: 6
#     Node 7, Type 0, BuildingBlock: OJICUG_clean_sbu_0, # of connection points: 6
#     Edge 8, Type (0, 0), BuildingBlock: ZUJKAS_clean_linker_0, # of connection points: 2
#     Edge 9, Type (0, 0), BuildingBlock: ZUJKAS_clean_linker_0, # of connection points: 2
#     Edge 10, Type (0, 0), BuildingBlock: ZUJKAS_clean_linker_0, # of connection points: 2
#     Edge 11, Type (0, 0), BuildingBlock: ZUJKAS_clean_linker_0, # of connection points: 2
#     Edge 12, Type (0, 0), BuildingBlock: ZUJKAS_clean_linker_0, # of connection points: 2
#     Edge 13, Type (0, 0), BuildingBlock: ZUJKAS_clean_linker_0, # of connection points: 2
#     Edge 14, Type (0, 0), BuildingBlock: ZUJKAS_clean_linker_0, # of connection points: 2
#     Edge 15, Type (0, 0), BuildingBlock: ZUJKAS_clean_linker_0, # of connection points: 2
#     Edge 16, Type (0, 0), BuildingBlock: ZUJKAS_clean_linker_0, # of connection points: 2
#     Edge 17, Type (0, 0), BuildingBlock: ZUJKAS_clean_linker_0, # of connection points: 2
#     Edge 18, Type (0, 0), BuildingBlock: ZUJKAS_clean_linker_0, # of connection points: 2
#     Edge 19, Type (0, 0), BuildingBlock: ZUJKAS_clean_linker_0, # of connection points: 2
#     Edge 20, Type (0, 0), BuildingBlock: ZUJKAS_clean_linker_0, # of connection points: 2
#     Edge 21, Type (0, 0), BuildingBlock: ZUJKAS_clean_linker_0, # of connection points: 2
#     Edge 22, Type (0, 0), BuildingBlock: ZUJKAS_clean_linker_0, # of connection points: 2
#     Edge 23, Type (0, 0), BuildingBlock: ZUJKAS_clean_linker_0, # of connection points: 2
#     Edge 24, Type (0, 0), BuildingBlock: ZUJKAS_clean_linker_0, # of connection points: 2
#     Edge 25, Type (0, 0), BuildingBlock: ZUJKAS_clean_linker_0, # of connection points: 2
#     Edge 26, Type (0, 0), BuildingBlock: ZUJKAS_clean_linker_0, # of connection points: 2
#     Edge 27, Type (0, 0), BuildingBlock: ZUJKAS_clean_linker_0, # of connection points: 2
#     Edge 28, Type (0, 0), BuildingBlock: ZUJKAS_clean_linker_0, # of connection points: 2
#     Edge 29, Type (0, 0), BuildingBlock: ZUJKAS_clean_linker_0, # of connection points: 2
#     Edge 30, Type (0, 0), BuildingBlock: ZUJKAS_clean_linker_0, # of connection points: 2
#     Edge 31, Type (0, 0), BuildingBlock: ZUJKAS_clean_linker_0, # of connection points: 2
# Relax obj value: 0.093
# Max RMSD: 0.105
# Mean RMSD: 0.105
data_MOF--net-sni--node1-OJICUG_clean_sbu_0--edge1-ZUJKAS_clean_linker_0
_symmetry_space_group_name_H-M    P1
_symmetry_Int_Tables_number       1
_symmetry_cell_setting            triclinic
loop_
_symmetry_equiv_pos_as_xyz
'x, y, z'
_cell_length_a     51.178017
_cell_length_b     51.249643
_cell_length_c     28.370407
_cell_angle_alpha  89.929843
_cell_angle_beta   90.008601
_cell_angle_gamma 90.046876
loop_
_atom_site_label
_atom_site_type_symbol
_atom_site_fract_x
_atom_site_fract_y
_atom_site_fract_z
_atom_type_partial_charge
Sc0 Sc 0.60937 0.11642 0.01944 0.0
Sc1 Sc 0.6747 0.13352 -0.003 0.0
Sc2 Sc 0.62632 0.1826 0.00534 0.0
O3 O 0.6368 0.14422 0.00715 0.0
C4 C 0.57794 0.15585 0.95342 0.0
C5 C 0.64421 0.08865 0.9415 0.0
C6 C 0.66702 0.17848 0.92038 0.0
C7 C 0.65771 0.09542 0.07988 0.0
C8 C 0.59279 0.16112 0.09167 0.0
C9 C 0.68126 0.1853 0.05818 0.0
O10 O 0.58187 0.13344 0.97126 0.0
O11 O 0.66462 0.10186 0.95063 0.0
O12 O 0.64815 0.18955 0.94159 0.0
O13 O 0.6336 0.09637 0.06941 0.0
O14 O 0.60352 0.17973 0.06915 0.0
O15 O 0.68948 0.16369 0.04216 0.0
O16 O 0.59335 0.13759 0.07768 0.0
O17 O 0.6751 0.10793 0.05724 0.0
O18 O 0.65887 0.19448 0.0482 0.0
O19 O 0.62264 0.09213 0.96269 0.0
O20 O 0.59238 0.17542 0.9623 0.0
O21 O 0.67827 0.15813 0.93605 0.0
Sc22 Sc 0.88561 0.61717 0.98623 0.0
Sc23 Sc 0.86702 0.68315 0.97663 0.0
Sc24 Sc 0.81979 0.63483 0.00191 0.0
O25 O 0.85747 0.64507 0.98832 0.0
C26 C 0.8378 0.58777 0.93684 0.0
C27 C 0.90164 0.65348 0.89981 0.0
C28 C 0.8127 0.67801 0.92214 0.0
C29 C 0.91589 0.66411 0.03667 0.0
C30 C 0.85138 0.5986 0.0737 0.0
C31 C 0.82534 0.68795 0.05963 0.0
O32 O 0.86192 0.59053 0.94618 0.0
O33 O 0.89073 0.67384 0.91616 0.0
O34 O 0.80474 0.65842 0.94556 0.0
O35 O 0.91292 0.64023 0.0259 0.0
O36 O 0.83064 0.60985 0.0597 0.0
O37 O 0.84439 0.69676 0.03565 0.0
O38 O 0.8729 0.59995 0.05144 0.0
O39 O 0.90049 0.6819 0.02251 0.0
O40 O 0.81478 0.66596 0.05158 0.0
O41 O 0.90102 0.63155 0.92075 0.0
O42 O 0.82028 0.60265 0.95348 0.0
O43 O 0.83466 0.68888 0.9294 0.0
Sc44 Sc 0.31301 0.85762 0.989 0.0
Sc45 Sc 0.36303 0.81036 0.98043 0.0
Sc46 Sc 0.37677 0.87636 0.95685 0.0
O47 O 0.35092 0.8481 0.97539 0.0
C48 C 0.3259 0.89405 0.90065 0.0
C49 C 0.30668 0.80429 0.93303 0.0
C50 C 0.39358 0.82941 0.88913 0.0
C51 C 0.32488 0.81491 0.06847 0.0
C52 C 0.34348 0.90471 0.03717 0.0
C53 C 0.41149 0.84106 0.02462 0.0
O54 O 0.30986 0.88308 0.92857 0.0
O55 O 0.32926 0.79586 0.94379 0.0
O56 O 0.39304 0.85334 0.90079 0.0
O57 O 0.31146 0.83343 0.05107 0.0
O58 O 0.36352 0.90263 0.01097 0.0
O59 O 0.39814 0.82049 0.01787 0.0
O60 O 0.32389 0.88957 0.03392 0.0
O61 O 0.3444 0.80498 0.04749 0.0
O62 O 0.40584 0.86284 0.00578 0.0
O63 O 0.29829 0.82655 0.94564 0.0
O64 O 0.35052 0.89278 0.90592 0.0
O65 O 0.38319 0.81152 0.91389 0.0
Sc66 Sc 0.11375 0.37627 0.00687 0.0
Sc67 Sc 0.13172 0.31003 0.00493 0.0
Sc68 Sc 0.17844 0.35877 0.97884 0.0
O69 O 0.14133 0.34835 -0.00306 0.0
C70 C 0.14437 0.39843 0.91752 0.0
C71 C 0.08061 0.33217 0.95483 0.0
C72 C 0.16828 0.30879 0.91421 0.0
C73 C 0.10105 0.33627 0.09024 0.0
C74 C 0.16408 0.40252 0.05395 0.0
C75 C 0.18888 0.31182 0.0499 0.0
O76 O 0.12409 0.39667 0.94318 0.0
O77 O 0.09586 0.31366 0.96612 0.0
O78 O 0.18026 0.32984 0.9241 0.0
O79 O 0.10035 0.3588 0.07144 0.0
O80 O 0.1807 0.38892 0.03156 0.0
O81 O 0.16647 0.30159 0.04444 0.0
O82 O 0.13957 0.40002 0.04826 0.0
O83 O 0.1118 0.31674 0.0706 0.0
O84 O 0.1959 0.33261 0.02904 0.0
O85 O 0.08471 0.35571 0.9667 0.0
O86 O 0.16536 0.38613 0.92638 0.0
O87 O 0.15033 0.29931 0.93999 0.0
Sc88 Sc 0.63136 0.81384 0.47596 0.0
Sc89 Sc 0.67818 0.86252 0.5017 0.0
Sc90 Sc 0.61209 0.87947 0.48706 0.0
O91 O 0.64055 0.85192 0.48827 0.0
C92 C 0.59632 0.84376 0.39991 0.0
C93 C 0.68543 0.82002 0.4209 0.0
C94 C 0.65944 0.90991 0.43805 0.0
C95 C 0.67315 0.80906 0.55879 0.0
C96 C 0.58239 0.83183 0.53659 0.0
C97 C 0.64627 0.89762 0.57477 0.0
O98 O 0.60742 0.82337 0.41584 0.0
O99 O 0.69334 0.83947 0.44467 0.0
O100 O 0.63542 0.90672 0.44769 0.0
O101 O 0.65422 0.80013 0.53468 0.0
O102 O 0.58506 0.8558 0.52616 0.0
O103 O 0.66719 0.88697 0.56015 0.0
O104 O 0.59798 0.81432 0.52212 0.0
O105 O 0.68352 0.83117 0.55085 0.0
O106 O 0.62469 0.89608 0.55272 0.0
O107 O 0.6636 0.80889 0.42831 0.0
O108 O 0.59678 0.86554 0.42127 0.0
O109 O 0.67724 0.89509 0.45399 0.0
Sc110 Sc 0.18247 0.62674 0.48814 0.0
Sc111 Sc 0.13615 0.67773 0.47977 0.0
Sc112 Sc 0.11751 0.61293 0.45601 0.0
O113 O 0.1454 0.63916 0.47459 0.0
C114 C 0.16724 0.59176 0.39972 0.0
C115 C 0.19274 0.68001 0.43276 0.0
C116 C 0.10428 0.6609 0.38821 0.0
C117 C 0.17381 0.66953 0.56815 0.0
C118 C 0.14834 0.58172 0.53575 0.0
C119 C 0.08556 0.65085 0.52391 0.0
O120 O 0.18408 0.60247 0.42632 0.0
O121 O 0.17042 0.68966 0.44166 0.0
O122 O 0.10381 0.63683 0.39899 0.0
O123 O 0.18504 0.64946 0.55147 0.0
O124 O 0.12806 0.58619 0.51123 0.0
O125 O 0.10086 0.67016 0.51859 0.0
O126 O 0.16942 0.5946 0.53102 0.0
O127 O 0.15598 0.68181 0.54623 0.0
O128 O 0.08913 0.62904 0.50365 0.0
O129 O 0.19977 0.65757 0.44706 0.0
O130 O 0.14277 0.59387 0.40636 0.0
O131 O 0.11511 0.67809 0.41391 0.0
Sc132 Sc 0.35657 0.17642 0.50578 0.0
Sc133 Sc 0.3104 0.12711 0.48043 0.0
Sc134 Sc 0.37531 0.1104 0.50857 0.0
O135 O 0.3474 0.13798 0.49833 0.0
C136 C 0.40746 0.15442 0.45447 0.0
C137 C 0.3198 0.17718 0.41535 0.0
C138 C 0.34442 0.08728 0.42011 0.0
C139 C 0.29949 0.17398 0.55109 0.0
C140 C 0.38825 0.15116 0.59067 0.0
C141 C 0.32555 0.08421 0.55723 0.0
O142 O 0.39247 0.17287 0.46711 0.0
O143 O 0.30789 0.15616 0.4258 0.0
O144 O 0.36439 0.08871 0.44661 0.0
O145 O 0.32166 0.18464 0.54499 0.0
O146 O 0.3896 0.12877 0.57162 0.0
O147 O 0.3088 0.09674 0.53307 0.0
O148 O 0.3765 0.17031 0.57165 0.0
O149 O 0.29281 0.15289 0.53091 0.0
O150 O 0.35006 0.08738 0.55256 0.0
O151 O 0.33793 0.18672 0.44061 0.0
O152 O 0.40347 0.13074 0.46583 0.0
O153 O 0.32369 0.1002 0.4277 0.0
Sc154 Sc 0.81604 0.36318 0.49706 0.0
Sc155 Sc 0.86281 0.3126 0.50493 0.0
Sc156 Sc 0.88211 0.37809 0.51822 0.0
O157 O 0.85364 0.35127 0.50665 0.0
C158 C 0.84814 0.40636 0.43966 0.0
C159 C 0.82174 0.31775 0.42083 0.0
C160 C 0.91219 0.33723 0.45306 0.0
C161 C 0.80815 0.31189 0.55905 0.0
C162 C 0.83472 0.40184 0.57767 0.0
C163 C 0.89708 0.33312 0.59113 0.0
O164 O 0.82719 0.39419 0.4497 0.0
O165 O 0.8406 0.30636 0.44153 0.0
O166 O 0.90919 0.3597 0.47105 0.0
O167 O 0.80049 0.33382 0.54342 0.0
O168 O 0.85871 0.4 0.56678 0.0
O169 O 0.88587 0.31489 0.56841 0.0
O170 O 0.81685 0.38919 0.55662 0.0
O171 O 0.83006 0.30196 0.54817 0.0
O172 O 0.89715 0.35673 0.57732 0.0
O173 O 0.81102 0.33833 0.43671 0.0
O174 O 0.8697 0.40211 0.46048 0.0
O175 O 0.89682 0.31833 0.46152 0.0
H176 H 0.42377 0.2027 0.42487 0.0
H177 H 0.45994 0.21276 0.3716 0.0
H178 H 0.47851 0.13089 0.362 0.0
H179 H 0.44269 0.12055 0.41561 0.0
H180 H 0.52273 0.16467 0.3735 0.0
H181 H 0.456 0.19663 0.22921 0.0
H182 H 0.45245 0.21251 0.28532 0.0
H183 H 0.44443 0.17855 0.2797 0.0
C184 C 0.4356 0.18681 0.41165 0.0
C185 C 0.43015 0.16076 0.42422 0.0
C186 C 0.45622 0.19263 0.38115 0.0
C187 C 0.4716 0.17253 0.36254 0.0
C188 C 0.46677 0.14665 0.37606 0.0
H189 H 0.57741 0.12626 0.15858 0.0
H190 H 0.55141 0.13459 0.22867 0.0
C191 C 0.44623 0.14079 0.40659 0.0
C192 C 0.49211 0.17804 0.32734 0.0
H193 H 0.50064 0.1942 0.21172 0.0
C194 C 0.51802 0.17152 0.33832 0.0
C195 C 0.48585 0.1872 0.28168 0.0
C196 C 0.45818 0.19401 0.26789 0.0
C197 C 0.53769 0.17277 0.30405 0.0
C198 C 0.5311 0.18033 0.25764 0.0
C199 C 0.50556 0.18844 0.24744 0.0
C200 C 0.54923 0.17633 0.21785 0.0
C201 C 0.56519 0.1652 0.31741 0.0
C202 C 0.55638 0.19708 0.18821 0.0
C203 C 0.57124 0.19237 0.14771 0.0
C204 C 0.57873 0.16678 0.13598 0.0
C205 C 0.57186 0.14619 0.16637 0.0
C206 C 0.55724 0.15093 0.2068 0.0
H207 H 0.56886 0.16851 0.35554 0.0
H208 H 0.56805 0.1441 0.31028 0.0
H209 H 0.57982 0.17635 0.29663 0.0
H210 H 0.55007 0.21678 0.196 0.0
H211 H 0.57618 0.20863 0.12496 0.0
H212 H 0.89184 0.57461 0.11961 0.0
H213 H 0.88903 0.54408 0.18566 0.0
H214 H 0.80549 0.55437 0.19048 0.0
H215 H 0.80793 0.58491 0.12439 0.0
H216 H 0.86441 0.55149 0.28041 0.0
H217 H 0.81927 0.47388 0.16968 0.0
H218 H 0.8368 0.50115 0.14454 0.0
H219 H 0.80449 0.50571 0.16763 0.0
C220 C 0.87286 0.57057 0.13485 0.0
C221 C 0.85007 0.58203 0.11636 0.0
C222 C 0.87134 0.55318 0.17263 0.0
C223 C 0.84704 0.54684 0.1923 0.0
C224 C 0.82437 0.55888 0.17523 0.0
H225 H 0.80504 0.42691 0.39598 0.0
H226 H 0.80388 0.46214 0.33785 0.0
C227 C 0.82585 0.57638 0.13758 0.0
C228 C 0.8454 0.52685 0.22951 0.0
H229 H 0.82599 0.46418 0.24986 0.0
C230 C 0.85596 0.53241 0.27394 0.0
C231 C 0.83424 0.50211 0.22067 0.0
C232 C 0.82317 0.49513 0.17301 0.0
C233 C 0.85564 0.51374 0.31009 0.0
C234 C 0.84505 0.48874 0.30093 0.0
C235 C 0.83411 0.48336 0.25666 0.0
C236 C 0.8458 0.46759 0.33633 0.0
C237 C 0.86637 0.52105 0.35783 0.0
C238 C 0.8698 0.4587 0.3539 0.0
C239 C 0.87056 0.43866 0.38717 0.0
C240 C 0.84731 0.42693 0.40309 0.0
C241 C 0.82331 0.43551 0.38453 0.0
C242 C 0.82259 0.45567 0.3514 0.0
H243 H 0.8664 0.54254 0.36307 0.0
H244 H 0.85486 0.51188 0.38661 0.0
H245 H 0.88686 0.51415 0.36064 0.0
H246 H 0.88798 0.46717 0.34169 0.0
H247 H 0.88941 0.43237 0.40033 0.0
H248 H 0.57363 0.88352 0.35021 0.0
H249 H 0.54622 0.88005 0.28007 0.0
H250 H 0.55772 0.79674 0.2782 0.0
H251 H 0.58515 0.79984 0.34859 0.0
H252 H 0.55763 0.856 0.18726 0.0
H253 H 0.47662 0.80893 0.28735 0.0
H254 H 0.50266 0.82657 0.31613 0.0
H255 H 0.50852 0.79454 0.29298 0.0
C256 C 0.5705 0.86443 0.33484 0.0
C257 C 0.58138 0.84191 0.35538 0.0
C258 C 0.55492 0.86254 0.29466 0.0
C259 C 0.54982 0.83813 0.27449 0.0
C260 C 0.56129 0.81571 0.29374 0.0
H261 H 0.43407 0.79742 0.06248 0.0
H262 H 0.47008 0.79544 0.11885 0.0
C263 C 0.57698 0.81756 0.33387 0.0
C264 C 0.53145 0.83615 0.23465 0.0
H265 H 0.46984 0.81624 0.20654 0.0
C266 C 0.53848 0.84718 0.19121 0.0
C267 C 0.50657 0.82459 0.24023 0.0
C268 C 0.49792 0.8131 0.2867 0.0
C269 C 0.52112 0.84701 0.15295 0.0
C270 C 0.49595 0.83606 0.15889 0.0
C271 C 0.48917 0.82458 0.20213 0.0
C272 C 0.47581 0.83724 0.1216 0.0
C273 C 0.52994 0.85842 0.10654 0.0
C274 C 0.46714 0.86143 0.10451 0.0
C275 C 0.44664 0.86266 0.07214 0.0
C276 C 0.4342 0.83971 0.05678 0.0
C277 C 0.44315 0.81548 0.07366 0.0
C278 C 0.46375 0.81429 0.1058 0.0
H279 H 0.55158 0.85837 0.10347 0.0
H280 H 0.52159 0.84746 0.07634 0.0
H281 H 0.52325 0.87897 0.10413 0.0
H282 H 0.47572 0.87942 0.11721 0.0
H283 H 0.44013 0.88164 0.06015 0.0
H284 H 0.13458 0.43168 0.11403 0.0
H285 H 0.14936 0.46509 0.16879 0.0
H286 H 0.22919 0.45206 0.1267 0.0
H287 H 0.21465 0.41827 0.07115 0.0
H288 H 0.20204 0.45468 0.24203 0.0
H289 H 0.19715 0.53695 0.11397 0.0
H290 H 0.17387 0.51071 0.10795 0.0
H291 H 0.20784 0.50464 0.09719 0.0
C292 C 0.15531 0.43578 0.11619 0.0
C293 C 0.17341 0.42232 0.08797 0.0
C294 C 0.16369 0.45486 0.14759 0.0
C295 C 0.19026 0.46093 0.15144 0.0
C296 C 0.20857 0.44751 0.12396 0.0
H297 H 0.21674 0.57314 0.38316 0.0
H298 H 0.23032 0.54308 0.32054 0.0
C299 C 0.2002 0.42827 0.09236 0.0
C300 C 0.19816 0.48164 0.18435 0.0
H301 H 0.19519 0.54775 0.19532 0.0
C302 C 0.20152 0.47509 0.23191 0.0
C303 C 0.19728 0.50808 0.17059 0.0
C304 C 0.19397 0.51572 0.11961 0.0
C305 C 0.20187 0.49446 0.26678 0.0
C306 C 0.19885 0.52086 0.25331 0.0
C307 C 0.19757 0.52746 0.20537 0.0
C308 C 0.19209 0.54101 0.28832 0.0
C309 C 0.20314 0.48649 0.31795 0.0
C310 C 0.16631 0.55014 0.28998 0.0
C311 C 0.15846 0.56712 0.32553 0.0
C312 C 0.17632 0.57541 0.36006 0.0
C313 C 0.20248 0.56704 0.35718 0.0
C314 C 0.21029 0.54986 0.32157 0.0
H315 H 0.20387 0.46496 0.32246 0.0
H316 H 0.22082 0.49505 0.33446 0.0
H317 H 0.18584 0.49409 0.33715 0.0
H318 H 0.152 0.54346 0.26453 0.0
H319 H 0.13825 0.57336 0.32635 0.0
H320 H 0.57157 0.78364 0.57463 0.0
H321 H 0.5348 0.7719 0.62586 0.0
H322 H 0.50627 0.85094 0.61808 0.0
H323 H 0.54248 0.86281 0.56694 0.0
H324 H 0.52387 0.79405 0.71318 0.0
H325 H 0.4405 0.80814 0.59226 0.0
H326 H 0.47367 0.80436 0.57152 0.0
H327 H 0.46215 0.83567 0.59137 0.0
C328 C 0.55731 0.79845 0.58344 0.0
C329 C 0.56 0.82419 0.56664 0.0
C330 C 0.53631 0.79168 0.61259 0.0
C331 C 0.51756 0.81042 0.62485 0.0
C332 C 0.52015 0.83601 0.60797 0.0
H333 H 0.41172 0.86194 0.82034 0.0
H334 H 0.43925 0.85069 0.75333 0.0
C335 C 0.54107 0.84282 0.5791 0.0
C336 C 0.49647 0.8043 0.65867 0.0
H337 H 0.43115 0.81331 0.67581 0.0
C338 C 0.50347 0.79748 0.70486 0.0
C339 C 0.46991 0.80864 0.64747 0.0
C340 C 0.46108 0.81433 0.59779 0.0
C341 C 0.48486 0.79721 0.74113 0.0
C342 C 0.45865 0.80367 0.73055 0.0
C343 C 0.45132 0.80853 0.68374 0.0
C344 C 0.43966 0.8093 0.76828 0.0
C345 C 0.49366 0.792 0.79104 0.0
C346 C 0.43031 0.78958 0.79813 0.0
C347 C 0.41451 0.79593 0.83667 0.0
C348 C 0.40798 0.82213 0.84591 0.0
C349 C 0.41657 0.84162 0.81461 0.0
C350 C 0.4322 0.83523 0.77613 0.0
H351 H 0.5152 0.78978 0.79378 0.0
H352 H 0.48743 0.80817 0.81452 0.0
H353 H 0.48438 0.7738 0.80408 0.0
H354 H 0.43572 0.76942 0.79224 0.0
H355 H 0.40813 0.78044 0.85998 0.0
H356 H 0.10205 0.42389 0.88024 0.0
H357 H 0.10117 0.45275 0.81163 0.0
H358 H 0.18398 0.44151 0.79223 0.0
H359 H 0.18505 0.41226 0.86005 0.0
H360 H 0.12737 0.4986 0.79912 0.0
H361 H 0.15604 0.42786 0.66085 0.0
H362 H 0.14581 0.4178 0.719 0.0
H363 H 0.17869 0.42899 0.70909 0.0
C364 C 0.12007 0.4274 0.86123 0.0
C365 C 0.14362 0.41567 0.87562 0.0
C366 C 0.1195 0.44388 0.82201 0.0
C367 C 0.14241 0.4489 0.79642 0.0
C368 C 0.16595 0.43737 0.81078 0.0
H369 H 0.18871 0.56165 0.58777 0.0
H370 H 0.18621 0.52868 0.65006 0.0
C371 C 0.16653 0.42078 0.8498 0.0
C372 C 0.14199 0.46721 0.7561 0.0
H373 H 0.15756 0.47302 0.6395 0.0
C374 C 0.13371 0.49294 0.76412 0.0
C375 C 0.15023 0.45972 0.71046 0.0
C376 C 0.15795 0.43202 0.69913 0.0
C377 C 0.13412 0.51157 0.72792 0.0
C378 C 0.143 0.50421 0.68278 0.0
C379 C 0.15093 0.47848 0.67443 0.0
C380 C 0.14447 0.52325 0.64397 0.0
C381 C 0.1256 0.53916 0.73815 0.0
C382 C 0.12179 0.53072 0.61989 0.0
C383 C 0.1231 0.54944 0.58418 0.0
C384 C 0.14713 0.56107 0.57219 0.0
C385 C 0.16988 0.55319 0.59619 0.0
C386 C 0.16854 0.53433 0.63168 0.0
H387 H 0.12136 0.54228 0.77613 0.0
H388 H 0.14102 0.55311 0.72694 0.0
H389 H 0.10771 0.54367 0.71758 0.0
H390 H 0.10307 0.52222 0.62904 0.0
H391 H 0.1052 0.55507 0.56653 0.0
H392 H 0.39876 0.19763 0.6347 0.0
H393 H 0.42637 0.20451 0.70409 0.0
H394 H 0.43738 0.12144 0.71723 0.0
H395 H 0.40983 0.11424 0.64825 0.0
H396 H 0.42744 0.15093 0.8057 0.0
H397 H 0.50736 0.19094 0.69314 0.0
H398 H 0.47534 0.20507 0.6873 0.0
H399 H 0.48078 0.17206 0.66888 0.0
C400 C 0.40675 0.18079 0.65269 0.0
C401 C 0.40235 0.15539 0.63555 0.0
C402 C 0.42256 0.18479 0.6922 0.0
C403 C 0.43407 0.16348 0.7152 0.0
C404 C 0.42868 0.1381 0.69971 0.0
H405 H 0.54522 0.11804 0.91973 0.0
H406 H 0.50857 0.12333 0.86586 0.0
C407 C 0.41302 0.13407 0.66017 0.0
C408 C 0.45314 0.16741 0.75351 0.0
H409 H 0.51655 0.18471 0.77327 0.0
C410 C 0.44683 0.15862 0.7989 0.0
C411 C 0.47831 0.17758 0.74432 0.0
C412 C 0.48609 0.18686 0.69579 0.0
C413 C 0.46537 0.15909 0.83529 0.0
C414 C 0.49098 0.16798 0.82548 0.0
C415 C 0.49691 0.17785 0.78059 0.0
C416 C 0.51249 0.16526 0.85996 0.0
C417 C 0.45742 0.14983 0.8837 0.0
C418 C 0.52736 0.18701 0.87342 0.0
C419 C 0.54863 0.18404 0.90386 0.0
C420 C 0.55543 0.15921 0.92119 0.0
C421 C 0.54046 0.13748 0.90742 0.0
C422 C 0.51931 0.14048 0.87692 0.0
H423 H 0.43606 0.15216 0.88937 0.0
H424 H 0.46208 0.12877 0.88721 0.0
H425 H 0.468 0.16062 0.91175 0.0
H426 H 0.52255 0.20627 0.86025 0.0
H427 H 0.55973 0.20119 0.91372 0.0
H428 H 0.79024 0.58042 0.89429 0.0
H429 H 0.77821 0.5461 0.83831 0.0
H430 H 0.85528 0.51288 0.85082 0.0
H431 H 0.86752 0.54688 0.9066 0.0
H432 H 0.80456 0.53758 0.75168 0.0
H433 H 0.80623 0.4492 0.86402 0.0
H434 H 0.8031 0.48174 0.88791 0.0
H435 H 0.83469 0.46928 0.87161 0.0
C436 C 0.80453 0.56562 0.88559 0.0
C437 C 0.82988 0.56643 0.90483 0.0
C438 C 0.79758 0.54604 0.8537 0.0
C439 C 0.81572 0.52677 0.84119 0.0
C440 C 0.84083 0.52727 0.8609 0.0
H441 H 0.86469 0.44042 0.61534 0.0
H442 H 0.85333 0.47032 0.67875 0.0
C443 C 0.84787 0.54689 0.89242 0.0
C444 C 0.80962 0.50755 0.80411 0.0
H445 H 0.81303 0.44241 0.78041 0.0
C446 C 0.80568 0.51674 0.75807 0.0
C447 C 0.81086 0.4804 0.8127 0.0
C448 C 0.81369 0.46954 0.86185 0.0
C449 C 0.80515 0.49949 0.71982 0.0
C450 C 0.80868 0.47256 0.72808 0.0
C451 C 0.81048 0.46316 0.77437 0.0
C452 C 0.81454 0.45459 0.68908 0.0
C453 C 0.80233 0.51022 0.67057 0.0
C454 C 0.79643 0.43576 0.6744 0.0
C455 C 0.80279 0.41862 0.63778 0.0
C456 C 0.8275 0.41991 0.61606 0.0
C457 C 0.84555 0.43879 0.63137 0.0
C458 C 0.83908 0.45598 0.66743 0.0
H459 H 0.79381 0.53016 0.67066 0.0
H460 H 0.82189 0.51123 0.65376 0.0
H461 H 0.78982 0.49725 0.64878 0.0
H462 H 0.77746 0.43439 0.69115 0.0
H463 H 0.78852 0.40421 0.6269 0.0
H464 H 0.92271 0.61377 0.84795 0.0
H465 H 0.94998 0.61739 0.77763 0.0
H466 H 0.94166 0.70106 0.78008 0.0
H467 H 0.91433 0.6978 0.85062 0.0
H468 H 0.93867 0.64436 0.68578 0.0
H469 H 0.0226 0.68463 0.78774 0.0
H470 H 0.9961 0.66722 0.81571 0.0
H471 H 0.99127 0.7 0.7953 0.0
C472 C 0.92651 0.63297 0.83349 0.0
C473 C 0.91653 0.65553 0.85525 0.0
C474 C 0.942 0.63496 0.79321 0.0
C475 C 0.94792 0.65948 0.77416 0.0
C476 C 0.93739 0.68199 0.79469 0.0
H477 H 0.06682 0.69562 0.56415 0.0
H478 H 0.03095 0.69969 0.62049 0.0
C479 C 0.92177 0.68005 0.8349 0.0
C480 C 0.96619 0.66141 0.73416 0.0
H481 H 0.02894 0.67778 0.70681 0.0
C482 C 0.95836 0.65185 0.6901 0.0
C483 C 0.99175 0.67127 0.7402 0.0
C484 C 0.00115 0.68126 0.78728 0.0
C485 C 0.97563 0.65167 0.65171 0.0
C486 C 0.00151 0.6607 0.65816 0.0
C487 C 0.00908 0.67088 0.70199 0.0
C488 C 0.02159 0.65852 0.62088 0.0
C489 C 0.96596 0.64189 0.6047 0.0
C490 C 0.02819 0.634 0.60251 0.0
C491 C 0.04858 0.63159 0.57015 0.0
C492 C 0.063 0.65364 0.55609 0.0
C493 C 0.05616 0.67822 0.5743 0.0
C494 C 0.03565 0.68062 0.60642 0.0
H495 H 0.94441 0.64387 0.60161 0.0
H496 H 0.97527 0.65261 0.57509 0.0
H497 H 0.97081 0.62088 0.60122 0.0
H498 H 0.01808 0.61658 0.61419 0.0
H499 H 0.05344 0.61233 0.55717 0.0
H500 H 0.27763 0.06025 0.56233 0.0
H501 H 0.26359 0.02705 0.61958 0.0
H502 H 0.33844 0.03206 0.68872 0.0
H503 H 0.35271 0.06481 0.6319 0.0
H504 H 0.29328 0.97721 0.63706 0.0
H505 H 0.28107 0.03911 0.7956 0.0
H506 H 0.27888 0.05185 0.73623 0.0
H507 H 0.31027 0.04596 0.76261 0.0
C508 C 0.29099 0.05441 0.59 0.0
C509 C 0.31632 0.06507 0.59252 0.0
C510 C 0.28293 0.03549 0.62256 0.0
C511 C 0.29991 0.02745 0.6585 0.0
C512 C 0.32498 0.03834 0.6615 0.0
H513 H 0.35154 0.9074 0.82019 0.0
H514 H 0.33687 0.93704 0.75846 0.0
C515 C 0.33314 0.05691 0.62879 0.0
C516 C 0.29261 0.00644 0.69154 0.0
H517 H 0.29032 0.99361 0.80932 0.0
C518 C 0.29185 0.98075 0.67467 0.0
C519 C 0.29041 0.0112 0.74039 0.0
C520 C 0.28994 0.03855 0.75987 0.0
C521 C 0.29141 0.95953 0.70594 0.0
C522 C 0.29193 0.96431 0.75498 0.0
C523 C 0.29013 0.99 0.77165 0.0
C524 C 0.2987 0.9436 0.78908 0.0
C525 C 0.29181 0.9322 0.68633 0.0
C526 C 0.28207 0.93748 0.82681 0.0
C527 C 0.29041 0.92042 0.86231 0.0
C528 C 0.31573 0.90974 0.86097 0.0
C529 C 0.332 0.91542 0.8224 0.0
C530 C 0.32354 0.93215 0.78681 0.0
H531 H 0.28284 0.93148 0.65069 0.0
H532 H 0.31238 0.92558 0.68312 0.0
H533 H 0.2813 0.91842 0.70988 0.0
H534 H 0.26294 0.94641 0.82937 0.0
H535 H 0.27749 0.91646 0.89169 0.0
H536 H 0.9178 0.36721 0.65471 0.0
H537 H 0.94333 0.35706 0.72474 0.0
H538 H 0.93362 0.27477 0.69857 0.0
H539 H 0.90801 0.28465 0.62772 0.0
H540 H 0.93016 0.32471 0.8069 0.0
H541 H 0.01444 0.28818 0.70111 0.0
H542 H 0.98887 0.30766 0.67499 0.0
H543 H 0.98264 0.27431 0.69059 0.0
C544 C 0.92093 0.34691 0.66375 0.0
C545 C 0.9111 0.32673 0.63523 0.0
C546 C 0.93541 0.34118 0.70398 0.0
C547 C 0.94045 0.31522 0.71643 0.0
C548 C 0.93005 0.29494 0.68912 0.0
H549 H 0.06477 0.28446 0.92167 0.0
H550 H 0.02761 0.27521 0.8701 0.0
C551 C 0.91542 0.30065 0.64877 0.0
C552 C 0.95794 0.30992 0.7566 0.0
H553 H 0.02133 0.29505 0.78162 0.0
C554 C 0.94995 0.31772 0.8017 0.0
C555 C 0.98362 0.30063 0.74953 0.0
C556 C 0.99312 0.29228 0.7015 0.0
C557 C 0.9675 0.31778 0.83962 0.0
C558 C 0.99373 0.31035 0.83175 0.0
C559 C 0.0012 0.30084 0.78741 0.0
C560 C 0.01441 0.31525 0.86697 0.0
C561 C 0.95798 0.3265 0.88738 0.0
C562 C 0.01929 0.34085 0.88204 0.0
C563 C 0.04047 0.34625 0.91135 0.0
C564 C 0.05736 0.32615 0.92582 0.0
C565 C 0.05217 0.30042 0.91119 0.0
C566 C 0.03092 0.29505 0.88184 0.0
H567 H 0.93676 0.32255 0.8917 0.0
H568 H 0.9688 0.31661 0.91624 0.0
H569 H 0.96095 0.34787 0.89081 0.0
H570 H 0.00721 0.35684 0.86989 0.0
H571 H 0.04388 0.36629 0.92175 0.0
H572 H 0.68805 0.06911 0.89904 0.0
H573 H 0.69047 0.03436 0.84039 0.0
H574 H 0.60653 0.02686 0.8428 0.0
H575 H 0.60387 0.0612 0.90219 0.0
H576 H 0.63186 0.97942 0.84693 0.0
H577 H 0.6715 0.04062 0.70178 0.0
H578 H 0.69057 0.04142 0.75488 0.0
H579 H 0.65796 0.05446 0.75487 0.0
C580 C 0.67006 0.06019 0.88695 0.0
C581 C 0.64574 0.06804 0.90517 0.0
C582 C 0.6715 0.04039 0.85331 0.0
C583 C 0.64866 0.02835 0.83681 0.0
C584 C 0.62438 0.036 0.85505 0.0
H585 H 0.60519 0.91801 0.62416 0.0
H586 H 0.60711 0.9476 0.69144 0.0
C587 C 0.62292 0.05566 0.88893 0.0
C588 C 0.64998 0.00757 0.80086 0.0
H589 H 0.66858 0.99523 0.68759 0.0
C590 C 0.63989 0.98284 0.81208 0.0
C591 C 0.6605 0.01216 0.75549 0.0
C592 C 0.67054 0.03865 0.74075 0.0
C593 C 0.64003 0.96253 0.77902 0.0
C594 C 0.65036 0.96722 0.73366 0.0
C595 C 0.66082 0.99177 0.72263 0.0
C596 C 0.64929 0.94739 0.6961 0.0
C597 C 0.62922 0.93621 0.79278 0.0
C598 C 0.67242 0.93754 0.67663 0.0
C599 C 0.67145 0.92061 0.63815 0.0
C600 C 0.64728 0.91357 0.61814 0.0
C601 C 0.62413 0.92308 0.63856 0.0
C602 C 0.62515 0.93986 0.6772 0.0
H603 H 0.62777 0.934 0.83165 0.0
H604 H 0.60933 0.93398 0.7777 0.0
H605 H 0.64161 0.92027 0.77858 0.0
H606 H 0.69123 0.94333 0.69071 0.0
H607 H 0.68965 0.91369 0.62326 0.0
H608 H 0.08973 0.29002 0.1345 0.0
H609 H 0.06239 0.28371 0.20439 0.0
H610 H 0.05371 0.36702 0.21804 0.0
H611 H 0.081 0.37365 0.14853 0.0
H612 H 0.06309 0.33672 0.30644 0.0
H613 H 0.98176 0.29985 0.19375 0.0
H614 H 0.01335 0.28483 0.18755 0.0
H615 H 0.00883 0.31809 0.16959 0.0
C616 C 0.08233 0.30703 0.15272 0.0
C617 C 0.08728 0.33235 0.13554 0.0
C618 C 0.06668 0.30335 0.19253 0.0
C619 C 0.05588 0.3249 0.21579 0.0
C620 C 0.06188 0.35017 0.20032 0.0
H621 H 0.94664 0.37369 0.4201 0.0
H622 H 0.98325 0.36701 0.36673 0.0
C623 C 0.07738 0.35389 0.16048 0.0
C624 C 0.03678 0.32137 0.25416 0.0
H625 H 0.97283 0.3062 0.27388 0.0
C626 C 0.04344 0.32972 0.29962 0.0
C627 C 0.01127 0.3121 0.24494 0.0
C628 C 0.00315 0.30329 0.19634 0.0
C629 C 0.02492 0.32973 0.33604 0.0
C630 C -0.001 0.3218 0.32619 0.0
C631 C 0.99271 0.31232 0.28124 0.0
C632 C 0.9776 0.32529 0.36059 0.0
C633 C 0.03323 0.3385 0.38453 0.0
C634 C 0.96176 0.30415 0.37375 0.0
C635 C 0.94051 0.30794 0.40388 0.0
C636 C 0.93468 0.33299 0.42119 0.0
C637 C 0.95063 0.3541 0.40778 0.0
C638 C 0.97176 0.35029 0.37758 0.0
H639 H 0.05446 0.33526 0.39021 0.0
H640 H 0.02946 0.35972 0.38815 0.0
H641 H 0.02219 0.32807 0.4125 0.0
H642 H 0.9658 0.28474 0.36053 0.0
H643 H 0.92865 0.29125 0.41349 0.0
H644 H 0.70785 0.92116 0.40142 0.0
H645 H 0.71932 0.95695 0.34791 0.0
H646 H 0.63942 0.98357 0.35028 0.0
H647 H 0.62779 0.94829 0.40369 0.0
H648 H 0.69779 0.96529 0.25877 0.0
H649 H 0.68059 0.05074 0.37302 0.0
H650 H 0.68501 0.01819 0.39632 0.0
H651 H 0.65355 0.02847 0.37474 0.0
C652 C 0.69278 0.93481 0.39095 0.0
C653 C 0.66688 0.93184 0.40688 0.0
C654 C 0.69941 0.95524 0.36049 0.0
C655 C 0.68033 0.97315 0.34602 0.0
C656 C 0.65457 0.97033 0.36206 0.0
H657 H 0.62582 0.072 0.14415 0.0
H658 H 0.6383 0.04443 0.21026 0.0
C659 C 0.64791 0.94995 0.39225 0.0
C660 C 0.68636 0.99356 0.31091 0.0
H661 H 0.67561 0.05803 0.28866 0.0
C662 C 0.69377 0.98573 0.26548 0.0
C663 C 0.68129 0.02018 0.32004 0.0
C664 C 0.67494 0.02992 0.36886 0.0
C665 C 0.69378 0.0035 0.22785 0.0
C666 C 0.68639 0.02962 0.23631 0.0
C667 C 0.68111 0.03789 0.28241 0.0
C668 C 0.67983 0.04735 0.19718 0.0
C669 C 0.69962 0.99388 0.17873 0.0
C670 C 0.69919 0.05822 0.16825 0.0
C671 C 0.69213 0.07409 0.13015 0.0
C672 C 0.66561 0.07914 0.12051 0.0
C673 C 0.64641 0.06839 0.15021 0.0
C674 C 0.65348 0.05273 0.18819 0.0
H675 H 0.70391 0.97264 0.17792 0.0
H676 H 0.68274 -0.00213 0.15519 0.0
H677 H 0.71674 0.00454 0.16436 0.0
H678 H 0.71965 0.05431 0.17498 0.0
H679 H 0.7074 0.08214 0.10804 0.0
H680 H 0.92716 0.71195 0.07545 0.0
H681 H 0.96416 0.72312 0.12649 0.0
H682 H 0.99214 0.64395 0.11715 0.0
H683 H 0.95565 0.63263 0.06619 0.0
H684 H 0.97518 0.70029 0.21335 0.0
H685 H 0.05812 0.68658 0.09143 0.0
H686 H 0.02491 0.69076 0.07107 0.0
H687 H 0.03627 0.65921 0.0902 0.0
C688 C 0.94134 0.69698 0.08388 0.0
C689 C 0.93841 0.67137 0.06669 0.0
C690 C 0.96247 0.70344 0.11292 0.0
C691 C 0.98113 0.6845 0.12469 0.0
C692 C 0.97832 0.65903 0.10743 0.0
H693 H 0.08646 0.62989 0.31713 0.0
H694 H 0.05942 0.64258 0.25033 0.0
C695 C 0.95724 0.65253 0.07867 0.0
C696 C 0.00236 0.69027 0.15841 0.0
H697 H 0.06767 0.68072 0.1748 0.0
C698 C 0.99554 0.69681 0.20479 0.0
C699 C 0.02887 0.68589 0.14689 0.0
C700 C 0.03751 0.6805 0.09702 0.0
C701 C 0.01424 0.69666 0.24092 0.0
C702 C 0.04038 0.69009 0.22999 0.0
C703 C 0.04755 0.6856 0.183 0.0
C704 C 0.05933 0.6837 0.26745 0.0
C705 C 0.00558 0.70147 0.29101 0.0
C706 C 0.06878 0.7028 0.29845 0.0
C707 C 0.0843 0.6956 0.33693 0.0
C708 C 0.09045 0.66918 0.34493 0.0
C709 C 0.08187 0.65036 0.31239 0.0
C710 C 0.06652 0.65758 0.27401 0.0
H711 H 0.98406 0.70383 0.29394 0.0
H712 H 0.01172 0.68504 0.31403 0.0
H713 H 0.01502 0.71948 0.30446 0.0
H714 H 0.06359 0.72311 0.29357 0.0
H715 H 0.09069 0.71059 0.36122 0.0
H716 H 0.30557 0.91412 0.10308 0.0
H717 H 0.30612 0.94679 0.16565 0.0
H718 H 0.38136 0.97401 0.11806 0.0
H719 H 0.38104 0.94157 0.05504 0.0
H720 H 0.34462 0.95115 0.2373 0.0
H721 H 0.33691 0.04125 0.12888 0.0
H722 H 0.32868 0.00934 0.10632 0.0
H723 H 0.36229 0.01899 0.11164 0.0
C724 C 0.32217 0.92717 0.10555 0.0
C725 C 0.34325 0.92521 0.07391 0.0
C726 C 0.32244 0.94579 0.14139 0.0
C727 C 0.34364 0.96291 0.14605 0.0
C728 C 0.36463 0.96121 0.11447 0.0
H729 H 0.38368 0.05388 0.39409 0.0
H730 H 0.38411 0.02396 0.32704 0.0
C731 C 0.36443 0.94256 0.07864 0.0
C732 C 0.34427 0.98178 0.18531 0.0
H733 H 0.34492 0.04685 0.21058 0.0
C734 C 0.34467 0.97208 0.23155 0.0
C735 C 0.34414 0.00902 0.17746 0.0
C736 C 0.34276 0.02038 0.12844 0.0
C737 C 0.34513 0.98896 0.27036 0.0
C738 C 0.3455 0.01619 0.26251 0.0
C739 C 0.34488 0.02592 0.21629 0.0
C740 C 0.34572 0.0349 0.30202 0.0
C741 C 0.34473 0.97757 0.31944 0.0
C742 C 0.32423 0.05131 0.30932 0.0
C743 C 0.32389 0.06845 0.34749 0.0
C744 C 0.34515 0.06958 0.37892 0.0
C745 C 0.36692 0.05344 0.37079 0.0
C746 C 0.36719 0.03626 0.33262 0.0
H747 H 0.33884 0.9567 0.31938 0.0
H748 H 0.36458 0.97897 0.33498 0.0
H749 H 0.33111 0.98859 0.34245 0.0
H750 H 0.30753 0.05056 0.28587 0.0
H751 H 0.30686 0.08069 0.35245 0.0
H752 H 0.77891 0.33342 0.37045 0.0
H753 H 0.75886 0.31142 0.30332 0.0
H754 H 0.81999 0.25357 0.30522 0.0
H755 H 0.84008 0.27514 0.37289 0.0
H756 H 0.77829 0.29825 0.2131 0.0
H757 H 0.75252 0.21069 0.31951 0.0
H758 H 0.76293 0.24097 0.34597 0.0
H759 H 0.78652 0.21939 0.32001 0.0
C760 C 0.78824 0.31612 0.35651 0.0
C761 C 0.81093 0.30585 0.37752 0.0
C762 C 0.77677 0.30362 0.31807 0.0
C763 C 0.78773 0.28068 0.3 0.0
C764 C 0.81099 0.271 0.31939 0.0
H765 H 0.72959 0.17144 0.09102 0.0
H766 H 0.75716 0.19539 0.14631 0.0
C767 C 0.82246 0.28342 0.35795 0.0
C768 C 0.77417 0.26638 0.26208 0.0
H769 H 0.74228 0.20941 0.23853 0.0
C770 C 0.77047 0.2788 0.2185 0.0
C771 C 0.76397 0.24105 0.26952 0.0
C772 C 0.76643 0.22726 0.31636 0.0
C773 C 0.75681 0.26646 0.18191 0.0
C774 C 0.74639 0.24127 0.18957 0.0
C775 C 0.75042 0.22872 0.23289 0.0
C776 C 0.73045 0.2278 0.15374 0.0
C777 C 0.75378 0.28035 0.13533 0.0
C778 C 0.70627 0.23812 0.13991 0.0
C779 C 0.6904 0.22449 0.10841 0.0
C780 C 0.6984 0.20022 0.09037 0.0
C781 C 0.7228 0.19008 0.10412 0.0
C782 C 0.73862 0.20372 0.13567 0.0
H783 H 0.7684 0.29623 0.1311 0.0
H784 H 0.7558 0.26652 0.10546 0.0
H785 H 0.73402 0.2892 0.13346 0.0
H786 H 0.69943 0.25646 0.15429 0.0
H787 H 0.67172 0.23285 0.09871 0.0
H788 H 0.78147 0.67841 0.11157 0.0
H789 H 0.76157 0.70642 0.17081 0.0
H790 H 0.82348 0.76265 0.15307 0.0
H791 H 0.84377 0.73473 0.09327 0.0
H792 H 0.80811 0.74715 0.25218 0.0
H793 H 0.72586 0.77875 0.13795 0.0
H794 H 0.73207 0.74422 0.13804 0.0
H795 H 0.75619 0.76617 0.11459 0.0
C796 C 0.79101 0.69666 0.12022 0.0
C797 C 0.81417 0.70438 0.09739 0.0
C798 C 0.77952 0.71267 0.15396 0.0
C799 C 0.79093 0.73664 0.1656 0.0
C800 C 0.81437 0.74423 0.14408 0.0
H801 H 0.73216 0.83979 0.38954 0.0
H802 H 0.75974 0.82265 0.32635 0.0
C803 C 0.82588 0.72826 0.10999 0.0
C804 C 0.77805 0.75356 0.20046 0.0
H805 H 0.72105 0.786 0.2205 0.0
C806 C 0.7893 0.7561 0.24526 0.0
C807 C 0.7536 0.76513 0.19086 0.0
C808 C 0.74125 0.76368 0.14263 0.0
C809 C 0.77586 0.76868 0.28184 0.0
C810 C 0.75083 0.77925 0.27276 0.0
C811 C 0.74021 0.77775 0.22728 0.0
C812 C 0.73437 0.79001 0.31071 0.0
C813 C 0.78786 0.76936 0.33041 0.0
C814 C 0.71078 0.77759 0.32201 0.0
C815 C 0.69491 0.78735 0.35775 0.0
C816 C 0.70232 0.8098 0.38288 0.0
C817 C 0.72594 0.82235 0.37115 0.0
C818 C 0.74179 0.81256 0.33521 0.0
H819 H 0.80506 0.75624 0.33333 0.0
H820 H 0.79438 0.78953 0.33836 0.0
H821 H 0.77328 0.76361 0.35749 0.0
H822 H 0.70473 0.76017 0.30332 0.0
H823 H 0.67687 0.77719 0.36573 0.0
H824 H 0.34963 0.77695 0.1198 0.0
H825 H 0.33379 0.75536 0.1911 0.0
H826 H 0.26589 0.80511 0.19161 0.0
H827 H 0.28162 0.82712 0.12071 0.0
H828 H 0.28892 0.79621 0.28267 0.0
H829 H 0.27122 0.70463 0.18202 0.0
H830 H 0.30383 0.71757 0.17936 0.0
H831 H 0.27734 0.73547 0.15334 0.0
C832 C 0.33143 0.7835 0.13523 0.0
C833 C 0.31669 0.80353 0.11408 0.0
C834 C 0.32243 0.7711 0.17593 0.0
C835 C 0.29851 0.77841 0.19597 0.0
C836 C 0.28438 0.79918 0.17642 0.0
H837 H 0.18473 0.72817 0.39371 0.0
H838 H 0.21392 0.75231 0.34169 0.0
C839 C 0.29337 0.81166 0.13581 0.0
C840 C 0.28724 0.76339 0.23544 0.0
H841 H 0.25995 0.7045 0.26215 0.0
C842 C 0.28277 0.77608 0.27845 0.0
C843 C 0.27933 0.73715 0.22962 0.0
C844 C 0.28294 0.72286 0.18355 0.0
C845 C 0.27015 0.76327 0.31577 0.0
C846 C 0.26146 0.73732 0.30936 0.0
C847 C 0.26673 0.72439 0.26689 0.0
C848 C 0.24506 0.7238 0.34457 0.0
C849 C 0.26611 0.77765 0.36155 0.0
C850 C 0.25276 0.69957 0.36285 0.0
C851 C 0.23599 0.68552 0.39229 0.0
C852 C 0.21114 0.69542 0.40365 0.0
C853 C 0.20373 0.71996 0.38583 0.0
C854 C 0.22049 0.73394 0.35641 0.0
H855 H 0.28068 0.79353 0.36604 0.0
H856 H 0.24639 0.78665 0.36152 0.0
H857 H 0.26744 0.76421 0.39219 0.0
H858 H 0.27158 0.69134 0.35369 0.0
H859 H 0.24236 0.66672 0.40541 0.0
H860 H 0.34244 0.2208 0.37704 0.0
H861 H 0.32787 0.24538 0.308 0.0
H862 H 0.26474 0.19076 0.28761 0.0
H863 H 0.27927 0.1658 0.35599 0.0
H864 H 0.29149 0.20484 0.20378 0.0
H865 H 0.26196 0.2913 0.31011 0.0
H866 H 0.29519 0.28054 0.31659 0.0
H867 H 0.26896 0.26006 0.33664 0.0
C868 C 0.32549 0.21394 0.35783 0.0
C869 C 0.31184 0.19146 0.37239 0.0
C870 C 0.3172 0.22805 0.31847 0.0
C871 C 0.29506 0.22004 0.2933 0.0
C872 C 0.28187 0.19724 0.30679 0.0
H873 H 0.18382 0.264 0.09137 0.0
H874 H 0.21397 0.24288 0.14574 0.0
C875 C 0.29017 0.18306 0.34597 0.0
C876 C 0.28484 0.23572 0.25379 0.0
H877 H 0.25337 0.29273 0.22891 0.0
C878 C 0.28342 0.22419 0.20906 0.0
C879 C 0.27451 0.26099 0.26094 0.0
C880 C 0.27499 0.27399 0.30866 0.0
C881 C 0.27108 0.23695 0.17149 0.0
C882 C 0.25964 0.26165 0.17926 0.0
C883 C 0.26222 0.27376 0.22329 0.0
C884 C 0.24255 0.274 0.1439 0.0
C885 C 0.26988 0.2237 0.12409 0.0
C886 C 0.24849 0.29872 0.12562 0.0
C887 C 0.23122 0.31097 0.09456 0.0
C888 C 0.20758 0.29879 0.08188 0.0
C889 C 0.20181 0.27397 0.10036 0.0
C890 C 0.21913 0.26173 0.13111 0.0
H891 H 0.28584 0.20919 0.11999 0.0
H892 H 0.25099 0.21322 0.12082 0.0
H893 H 0.27119 0.23815 0.09497 0.0
H894 H 0.26639 0.30856 0.13563 0.0
H895 H 0.23622 0.33012 0.08107 0.0
H896 H 0.20969 0.64772 0.62776 0.0
H897 H 0.22806 0.66686 0.69914 0.0
H898 H 0.17737 0.7335 0.68377 0.0
H899 H 0.15859 0.71448 0.61255 0.0
H900 H 0.2538 0.71481 0.69621 0.0
H901 H 0.17229 0.71657 0.8253 0.0
H902 H 0.17216 0.69574 0.77394 0.0
H903 H 0.16434 0.72978 0.7684 0.0
C904 C 0.2021 0.66626 0.63986 0.0
C905 C 0.18283 0.67969 0.61411 0.0
C906 C 0.21258 0.6771 0.68076 0.0
C907 C 0.20388 0.70143 0.69682 0.0
C908 C 0.18396 0.71445 0.67238 0.0
H909 H 0.2612 0.81793 0.88853 0.0
H910 H 0.23542 0.79129 0.83425 0.0
C911 C 0.17342 0.70362 0.63145 0.0
C912 C 0.21783 0.71458 0.73559 0.0
H913 H 0.20993 0.74207 0.84411 0.0
C914 C 0.24431 0.72051 0.72881 0.0
C915 C 0.20523 0.72217 0.7777 0.0
C916 C 0.17699 0.71557 0.78711 0.0
C917 C 0.25849 0.73443 0.76262 0.0
C918 C 0.24591 0.74211 0.80474 0.0
C919 C 0.21946 0.73603 0.81177 0.0
C920 C 0.25992 0.75713 0.84113 0.0
C921 C 0.28656 0.74152 0.75226 0.0
C922 C 0.28177 0.74641 0.86376 0.0
C923 C 0.29667 0.76159 0.89439 0.0
C924 C 0.28979 0.78769 0.90331 0.0
C925 C 0.26711 0.79795 0.88227 0.0
C926 C 0.25231 0.78276 0.85137 0.0
H927 H 0.29122 0.73969 0.71416 0.0
H928 H 0.29088 0.76181 0.76358 0.0
H929 H 0.29967 0.72817 0.77198 0.0
H930 H 0.28761 0.72646 0.85687 0.0
H931 H 0.31379 0.75295 0.91052 0.0
H932 H 0.2524 0.15515 0.58245 0.0
H933 H 0.22183 0.17655 0.63634 0.0
H934 H 0.27334 0.24297 0.64555 0.0
H935 H 0.30389 0.22201 0.59182 0.0
H936 H 0.23434 0.19291 0.72926 0.0
H937 H 0.20116 0.27563 0.6187 0.0
H938 H 0.21625 0.24678 0.59429 0.0
H939 H 0.23605 0.2721 0.61985 0.0
C940 C 0.25713 0.17441 0.59561 0.0
C941 C 0.28062 0.18687 0.58284 0.0
C942 C 0.23962 0.18658 0.62627 0.0
C943 C 0.24519 0.21146 0.64408 0.0
C944 C 0.26847 0.22398 0.63125 0.0
H945 H 0.20844 0.32002 0.85397 0.0
H946 H 0.2226 0.29486 0.78573 0.0
C947 C 0.28602 0.21184 0.60088 0.0
C948 C 0.22786 0.22374 0.67906 0.0
H949 H 0.19552 0.28037 0.70247 0.0
C950 C 0.22532 0.21177 0.72327 0.0
C951 C 0.21619 0.24829 0.67079 0.0
C952 C 0.2173 0.26136 0.62316 0.0
C953 C 0.2129 0.22459 0.76066 0.0
C954 C 0.2024 0.24976 0.75305 0.0
C955 C 0.20371 0.2611 0.7081 0.0
C956 C 0.1923 0.26561 0.79233 0.0
C957 C 0.21252 0.21179 0.80862 0.0
C958 C 0.17028 0.25768 0.81795 0.0
C959 C 0.1622 0.27191 0.85725 0.0
C960 C 0.17595 0.29441 0.87128 0.0
C961 C 0.19748 0.30274 0.84437 0.0
C962 C 0.20556 0.28844 0.80526 0.0
H963 H 0.22556 0.19449 0.81031 0.0
H964 H 0.21861 0.22584 0.83629 0.0
H965 H 0.19234 0.20528 0.81679 0.0
H966 H 0.15956 0.24032 0.80791 0.0
H967 H 0.14536 0.2651 0.87686 0.0
H968 H 0.76187 0.32805 0.59795 0.0
H969 H 0.73505 0.30481 0.65572 0.0
H970 H 0.78856 0.23991 0.65212 0.0
H971 H 0.81569 0.26294 0.59495 0.0
H972 H 0.71065 0.25473 0.65117 0.0
H973 H 0.78568 0.26065 0.79219 0.0
H974 H 0.78713 0.28031 0.73941 0.0
H975 H 0.79733 0.24676 0.73806 0.0
C976 C 0.76793 0.3088 0.60929 0.0
C977 C 0.7911 0.29747 0.59215 0.0
C978 C 0.75254 0.29557 0.64221 0.0
C979 C 0.76011 0.27089 0.65855 0.0
C980 C 0.78271 0.25918 0.64048 0.0
H981 H 0.70653 0.16048 0.86438 0.0
H982 H 0.72673 0.18261 0.79755 0.0
C983 C 0.79814 0.27237 0.60772 0.0
C984 C 0.74475 0.25754 0.69537 0.0
H985 H 0.74911 0.23342 0.80709 0.0
C986 C 0.71892 0.25016 0.68539 0.0
C987 C 0.75568 0.25183 0.73994 0.0
C988 C 0.78289 0.26049 0.75335 0.0
C989 C 0.70393 0.23643 0.71861 0.0
C990 C 0.71509 0.23029 0.76278 0.0
C991 C 0.74076 0.23802 0.77292 0.0
C992 C 0.70067 0.21578 0.79936 0.0
C993 C 0.67656 0.22806 0.70596 0.0
C994 C 0.67912 0.22705 0.82198 0.0
C995 C 0.66749 0.2145 0.86035 0.0
C996 C 0.6774 0.19055 0.87684 0.0
C997 C 0.69846 0.17895 0.85286 0.0
C998 C 0.71003 0.19152 0.8146 0.0
H999 H 0.67283 0.22957 0.66747 0.0
H1000 H 0.67294 0.20764 0.7174 0.0
H1001 H 0.66235 0.24078 0.72446 0.0
H1002 H 0.6719 0.24598 0.81106 0.0
H1003 H 0.65131 0.22399 0.87796 0.0
H1004 H 0.71479 0.8205 0.61518 0.0
H1005 H 0.73306 0.79408 0.67839 0.0
H1006 H 0.67422 0.73526 0.65477 0.0
H1007 H 0.6558 0.76145 0.59063 0.0
H1008 H 0.7077 0.77644 0.76088 0.0
H1009 H 0.74384 0.69453 0.64953 0.0
H1010 H 0.73456 0.72567 0.62487 0.0
H1011 H 0.7099 0.70304 0.64376 0.0
C1012 C 0.70566 0.80195 0.6232 0.0
C1013 C 0.68387 0.79306 0.59761 0.0
C1014 C 0.71614 0.7869 0.65942 0.0
C1015 C 0.70512 0.76268 0.67079 0.0
C1016 C 0.68321 0.75376 0.64589 0.0
H1017 H 0.7673 0.65713 0.8874 0.0
H1018 H 0.7383 0.67605 0.82785 0.0
C1019 C 0.67268 0.76881 0.60944 0.0
C1020 C 0.71678 0.74711 0.70911 0.0
H1021 H 0.75314 0.69261 0.73069 0.0
C1022 C 0.71739 0.75797 0.75445 0.0
C1023 C 0.72927 0.72299 0.70043 0.0
C1024 C 0.72961 0.71084 0.65201 0.0
C1025 C 0.73096 0.74574 0.79114 0.0
C1026 C 0.7444 0.72225 0.78195 0.0
C1027 C 0.7428 0.71071 0.73728 0.0
C1028 C 0.76189 0.71057 0.81731 0.0
C1029 C 0.73132 0.75828 0.83923 0.0
C1030 C 0.78487 0.72362 0.83017 0.0
C1031 C 0.80152 0.71291 0.86387 0.0
C1032 C 0.79542 0.68893 0.88535 0.0
C1033 C 0.77249 0.67571 0.87178 0.0
C1034 C 0.75591 0.68642 0.83778 0.0
H1035 H 0.71508 0.77245 0.84355 0.0
H1036 H 0.72991 0.74329 0.86743 0.0
H1037 H 0.75003 0.76893 0.84391 0.0
H1038 H 0.78989 0.74215 0.8141 0.0
H1039 H 0.81901 0.72358 0.87337 0.0
loop_
_geom_bond_atom_site_label_1
_geom_bond_atom_site_label_2
_geom_bond_distance
_geom_bond_site_symmetry_2
_ccdc_geom_bond_type
Sc0 O3 2.025 . S
Sc0 O10 2.105 1_554 S
Sc0 O13 2.105 . S
Sc0 O16 2.105 . S
Sc0 O19 2.105 1_554 S
Sc1 O3 2.025 . S
Sc1 O11 2.105 1_554 S
Sc1 O15 2.105 . S
Sc1 O17 2.105 . S
Sc1 O21 2.105 1_554 S
Sc2 O3 2.025 . S
Sc2 O12 2.105 1_554 S
Sc2 O14 2.105 . S
Sc2 O18 2.105 . S
Sc2 O20 2.105 1_554 S
O3 Sc0 2.025 . S
O3 Sc1 2.025 . S
O3 Sc2 2.025 . S
C4 O10 1.268 . S
C4 O20 1.268 . S
C5 O11 1.268 . S
C5 O19 1.268 . S
C6 O12 1.268 . S
C6 O21 1.268 . S
C7 O13 1.268 . S
C7 O17 1.268 . S
C8 O14 1.268 . S
C8 O16 1.268 . S
C9 O15 1.268 . S
C9 O18 1.268 . S
O10 Sc0 2.105 1_556 S
O10 C4 1.268 . S
O11 Sc1 2.105 1_556 S
O11 C5 1.268 . S
O12 Sc2 2.105 1_556 S
O12 C6 1.268 . S
O13 Sc0 2.105 . S
O13 C7 1.268 . S
O14 Sc2 2.105 . S
O14 C8 1.268 . S
O15 Sc1 2.105 . S
O15 C9 1.268 . S
O16 Sc0 2.105 . S
O16 C8 1.268 . S
O17 Sc1 2.105 . S
O17 C7 1.268 . S
O18 Sc2 2.105 . S
O18 C9 1.268 . S
O19 Sc0 2.105 1_556 S
O19 C5 1.268 . S
O20 Sc2 2.105 1_556 S
O20 C4 1.268 . S
O21 Sc1 2.105 1_556 S
O21 C6 1.268 . S
Sc22 O25 2.025 . S
Sc22 O32 2.105 1_554 S
Sc22 O35 2.105 . S
Sc22 O38 2.105 . S
Sc22 O41 2.105 1_554 S
Sc23 O25 2.025 . S
Sc23 O33 2.105 1_554 S
Sc23 O37 2.105 . S
Sc23 O39 2.105 . S
Sc23 O43 2.105 1_554 S
Sc24 O25 2.025 . S
Sc24 O34 2.105 1_554 S
Sc24 O36 2.105 . S
Sc24 O40 2.105 . S
Sc24 O42 2.105 1_554 S
O25 Sc22 2.025 . S
O25 Sc23 2.025 . S
O25 Sc24 2.025 . S
C26 O32 1.268 . S
C26 O42 1.268 . S
C27 O33 1.268 . S
C27 O41 1.268 . S
C28 O34 1.268 . S
C28 O43 1.268 . S
C29 O35 1.268 . S
C29 O39 1.268 . S
C30 O36 1.268 . S
C30 O38 1.268 . S
C31 O37 1.268 . S
C31 O40 1.268 . S
O32 Sc22 2.105 1_556 S
O32 C26 1.268 . S
O33 Sc23 2.105 1_556 S
O33 C27 1.268 . S
O34 Sc24 2.105 1_556 S
O34 C28 1.268 . S
O35 Sc22 2.105 . S
O35 C29 1.268 . S
O36 Sc24 2.105 . S
O36 C30 1.268 . S
O37 Sc23 2.105 . S
O37 C31 1.268 . S
O38 Sc22 2.105 . S
O38 C30 1.268 . S
O39 Sc23 2.105 . S
O39 C29 1.268 . S
O40 Sc24 2.105 . S
O40 C31 1.268 . S
O41 Sc22 2.105 1_556 S
O41 C27 1.268 . S
O42 Sc24 2.105 1_556 S
O42 C26 1.268 . S
O43 Sc23 2.105 1_556 S
O43 C28 1.268 . S
Sc44 O47 2.025 . S
Sc44 O54 2.105 1_554 S
Sc44 O57 2.105 . S
Sc44 O60 2.105 . S
Sc44 O63 2.105 1_554 S
Sc45 O47 2.025 . S
Sc45 O55 2.105 1_554 S
Sc45 O59 2.105 . S
Sc45 O61 2.105 . S
Sc45 O65 2.105 1_554 S
Sc46 O47 2.025 . S
Sc46 O56 2.105 1_554 S
Sc46 O58 2.105 . S
Sc46 O62 2.105 . S
Sc46 O64 2.105 1_554 S
O47 Sc44 2.025 . S
O47 Sc45 2.025 . S
O47 Sc46 2.025 . S
C48 O54 1.268 . S
C48 O64 1.268 . S
C49 O55 1.268 . S
C49 O63 1.268 . S
C50 O56 1.268 . S
C50 O65 1.268 . S
C51 O57 1.268 . S
C51 O61 1.268 . S
C52 O58 1.268 . S
C52 O60 1.268 . S
C53 O59 1.268 . S
C53 O62 1.268 . S
O54 Sc44 2.105 1_556 S
O54 C48 1.268 . S
O55 Sc45 2.105 1_556 S
O55 C49 1.268 . S
O56 Sc46 2.105 1_556 S
O56 C50 1.268 . S
O57 Sc44 2.105 . S
O57 C51 1.268 . S
O58 Sc46 2.105 . S
O58 C52 1.268 . S
O59 Sc45 2.105 . S
O59 C53 1.268 . S
O60 Sc44 2.105 . S
O60 C52 1.268 . S
O61 Sc45 2.105 . S
O61 C51 1.268 . S
O62 Sc46 2.105 . S
O62 C53 1.268 . S
O63 Sc44 2.105 1_556 S
O63 C49 1.268 . S
O64 Sc46 2.105 1_556 S
O64 C48 1.268 . S
O65 Sc45 2.105 1_556 S
O65 C50 1.268 . S
Sc66 O69 2.025 . S
Sc66 O76 2.105 1_554 S
Sc66 O79 2.105 . S
Sc66 O82 2.105 . S
Sc66 O85 2.105 1_554 S
Sc67 O69 2.025 . S
Sc67 O77 2.105 1_554 S
Sc67 O81 2.105 . S
Sc67 O83 2.105 . S
Sc67 O87 2.105 1_554 S
Sc68 O69 2.025 . S
Sc68 O78 2.105 1_554 S
Sc68 O80 2.105 . S
Sc68 O84 2.105 . S
Sc68 O86 2.105 1_554 S
O69 Sc66 2.025 . S
O69 Sc67 2.025 . S
O69 Sc68 2.025 . S
C70 O76 1.268 . S
C70 O86 1.268 . S
C71 O77 1.268 . S
C71 O85 1.268 . S
C72 O78 1.268 . S
C72 O87 1.268 . S
C73 O79 1.268 . S
C73 O83 1.268 . S
C74 O80 1.268 . S
C74 O82 1.268 . S
C75 O81 1.268 . S
C75 O84 1.268 . S
O76 Sc66 2.105 1_556 S
O76 C70 1.268 . S
O77 Sc67 2.105 1_556 S
O77 C71 1.268 . S
O78 Sc68 2.105 1_556 S
O78 C72 1.268 . S
O79 Sc66 2.105 . S
O79 C73 1.268 . S
O80 Sc68 2.105 . S
O80 C74 1.268 . S
O81 Sc67 2.105 . S
O81 C75 1.268 . S
O82 Sc66 2.105 . S
O82 C74 1.268 . S
O83 Sc67 2.105 . S
O83 C73 1.268 . S
O84 Sc68 2.105 . S
O84 C75 1.268 . S
O85 Sc66 2.105 1_556 S
O85 C71 1.268 . S
O86 Sc68 2.105 1_556 S
O86 C70 1.268 . S
O87 Sc67 2.105 1_556 S
O87 C72 1.268 . S
Sc88 O91 2.025 . S
Sc88 O98 2.105 . S
Sc88 O101 2.105 . S
Sc88 O104 2.105 . S
Sc88 O107 2.105 . S
Sc89 O91 2.025 . S
Sc89 O99 2.105 . S
Sc89 O103 2.105 . S
Sc89 O105 2.105 . S
Sc89 O109 2.105 . S
Sc90 O91 2.025 . S
Sc90 O100 2.105 . S
Sc90 O102 2.105 . S
Sc90 O106 2.105 . S
Sc90 O108 2.105 . S
O91 Sc88 2.025 . S
O91 Sc89 2.025 . S
O91 Sc90 2.025 . S
C92 O98 1.268 . S
C92 O108 1.268 . S
C93 O99 1.268 . S
C93 O107 1.268 . S
C94 O100 1.268 . S
C94 O109 1.268 . S
C95 O101 1.268 . S
C95 O105 1.268 . S
C96 O102 1.268 . S
C96 O104 1.268 . S
C97 O103 1.268 . S
C97 O106 1.268 . S
O98 Sc88 2.105 . S
O98 C92 1.268 . S
O99 Sc89 2.105 . S
O99 C93 1.268 . S
O100 Sc90 2.105 . S
O100 C94 1.268 . S
O101 Sc88 2.105 . S
O101 C95 1.268 . S
O102 Sc90 2.105 . S
O102 C96 1.268 . S
O103 Sc89 2.105 . S
O103 C97 1.268 . S
O104 Sc88 2.105 . S
O104 C96 1.268 . S
O105 Sc89 2.105 . S
O105 C95 1.268 . S
O106 Sc90 2.105 . S
O106 C97 1.268 . S
O107 Sc88 2.105 . S
O107 C93 1.268 . S
O108 Sc90 2.105 . S
O108 C92 1.268 . S
O109 Sc89 2.105 . S
O109 C94 1.268 . S
Sc110 O113 2.025 . S
Sc110 O120 2.105 . S
Sc110 O123 2.105 . S
Sc110 O126 2.105 . S
Sc110 O129 2.105 . S
Sc111 O113 2.025 . S
Sc111 O121 2.105 . S
Sc111 O125 2.105 . S
Sc111 O127 2.105 . S
Sc111 O131 2.105 . S
Sc112 O113 2.025 . S
Sc112 O122 2.105 . S
Sc112 O124 2.105 . S
Sc112 O128 2.105 . S
Sc112 O130 2.105 . S
O113 Sc110 2.025 . S
O113 Sc111 2.025 . S
O113 Sc112 2.025 . S
C114 O120 1.268 . S
C114 O130 1.268 . S
C115 O121 1.268 . S
C115 O129 1.268 . S
C116 O122 1.268 . S
C116 O131 1.268 . S
C117 O123 1.268 . S
C117 O127 1.268 . S
C118 O124 1.268 . S
C118 O126 1.268 . S
C119 O125 1.268 . S
C119 O128 1.268 . S
O120 Sc110 2.105 . S
O120 C114 1.268 . S
O121 Sc111 2.105 . S
O121 C115 1.268 . S
O122 Sc112 2.105 . S
O122 C116 1.268 . S
O123 Sc110 2.105 . S
O123 C117 1.268 . S
O124 Sc112 2.105 . S
O124 C118 1.268 . S
O125 Sc111 2.105 . S
O125 C119 1.268 . S
O126 Sc110 2.105 . S
O126 C118 1.268 . S
O127 Sc111 2.105 . S
O127 C117 1.268 . S
O128 Sc112 2.105 . S
O128 C119 1.268 . S
O129 Sc110 2.105 . S
O129 C115 1.268 . S
O130 Sc112 2.105 . S
O130 C114 1.268 . S
O131 Sc111 2.105 . S
O131 C116 1.268 . S
Sc132 O135 2.025 . S
Sc132 O142 2.105 . S
Sc132 O145 2.105 . S
Sc132 O148 2.105 . S
Sc132 O151 2.105 . S
Sc133 O135 2.025 . S
Sc133 O143 2.105 . S
Sc133 O147 2.105 . S
Sc133 O149 2.105 . S
Sc133 O153 2.105 . S
Sc134 O135 2.025 . S
Sc134 O144 2.105 . S
Sc134 O146 2.105 . S
Sc134 O150 2.105 . S
Sc134 O152 2.105 . S
O135 Sc132 2.025 . S
O135 Sc133 2.025 . S
O135 Sc134 2.025 . S
C136 O142 1.268 . S
C136 O152 1.268 . S
C137 O143 1.268 . S
C137 O151 1.268 . S
C138 O144 1.268 . S
C138 O153 1.268 . S
C139 O145 1.268 . S
C139 O149 1.268 . S
C140 O146 1.268 . S
C140 O148 1.268 . S
C141 O147 1.268 . S
C141 O150 1.268 . S
O142 Sc132 2.105 . S
O142 C136 1.268 . S
O143 Sc133 2.105 . S
O143 C137 1.268 . S
O144 Sc134 2.105 . S
O144 C138 1.268 . S
O145 Sc132 2.105 . S
O145 C139 1.268 . S
O146 Sc134 2.105 . S
O146 C140 1.268 . S
O147 Sc133 2.105 . S
O147 C141 1.268 . S
O148 Sc132 2.105 . S
O148 C140 1.268 . S
O149 Sc133 2.105 . S
O149 C139 1.268 . S
O150 Sc134 2.105 . S
O150 C141 1.268 . S
O151 Sc132 2.105 . S
O151 C137 1.268 . S
O152 Sc134 2.105 . S
O152 C136 1.268 . S
O153 Sc133 2.105 . S
O153 C138 1.268 . S
Sc154 O157 2.025 . S
Sc154 O164 2.105 . S
Sc154 O167 2.105 . S
Sc154 O170 2.105 . S
Sc154 O173 2.105 . S
Sc155 O157 2.025 . S
Sc155 O165 2.105 . S
Sc155 O169 2.105 . S
Sc155 O171 2.105 . S
Sc155 O175 2.105 . S
Sc156 O157 2.025 . S
Sc156 O166 2.105 . S
Sc156 O168 2.105 . S
Sc156 O172 2.105 . S
Sc156 O174 2.105 . S
O157 Sc154 2.025 . S
O157 Sc155 2.025 . S
O157 Sc156 2.025 . S
C158 O164 1.268 . S
C158 O174 1.268 . S
C159 O165 1.268 . S
C159 O173 1.268 . S
C160 O166 1.268 . S
C160 O175 1.268 . S
C161 O167 1.268 . S
C161 O171 1.268 . S
C162 O168 1.268 . S
C162 O170 1.268 . S
C163 O169 1.268 . S
C163 O172 1.268 . S
O164 Sc154 2.105 . S
O164 C158 1.268 . S
O165 Sc155 2.105 . S
O165 C159 1.268 . S
O166 Sc156 2.105 . S
O166 C160 1.268 . S
O167 Sc154 2.105 . S
O167 C161 1.268 . S
O168 Sc156 2.105 . S
O168 C162 1.268 . S
O169 Sc155 2.105 . S
O169 C163 1.268 . S
O170 Sc154 2.105 . S
O170 C162 1.268 . S
O171 Sc155 2.105 . S
O171 C161 1.268 . S
O172 Sc156 2.105 . S
O172 C163 1.268 . S
O173 Sc154 2.105 . S
O173 C159 1.268 . S
O174 Sc156 2.105 . S
O174 C158 1.268 . S
O175 Sc155 2.105 . S
O175 C160 1.268 . S
H176 C184 0.929 . S
H177 C186 0.930 . S
H178 C188 0.930 . S
H179 C191 0.929 . S
H180 C194 0.930 . S
H181 C196 0.960 . S
H182 C196 0.960 . S
H183 C196 0.960 . S
C184 H176 0.929 . S
C184 C185 1.377 . S
C184 C186 1.384 . S
C185 C184 1.377 . S
C185 C191 1.390 . S
C186 H177 0.930 . S
C186 C184 1.384 . S
C186 C187 1.372 . S
C187 C186 1.372 . S
C187 C188 1.400 . S
C187 C192 1.490 . S
C188 H178 0.930 . S
C188 C187 1.400 . S
C188 C191 1.386 . S
H189 C205 0.930 . S
H190 C206 0.931 . S
C191 H179 0.929 . S
C191 C185 1.390 . S
C191 C188 1.386 . S
C192 C187 1.490 . S
C192 C194 1.395 . S
C192 C195 1.403 . S
H193 C199 0.930 . S
C194 H180 0.930 . S
C194 C192 1.395 . S
C194 C197 1.403 . S
C195 C192 1.403 . S
C195 C196 1.524 . S
C195 C199 1.400 . S
C196 H181 0.960 . S
C196 H182 0.960 . S
C196 H183 0.960 . S
C196 C195 1.524 . S
C197 C194 1.403 . S
C197 C198 1.392 . S
C197 C201 1.495 . S
C198 C197 1.392 . S
C198 C199 1.385 . S
C198 C200 1.478 . S
C199 H193 0.930 . S
C199 C195 1.400 . S
C199 C198 1.385 . S
C200 C198 1.478 . S
C200 C202 1.381 . S
C200 C206 1.383 . S
C201 C197 1.495 . S
C201 H207 0.959 . S
C201 H208 0.961 . S
C201 H209 0.960 . S
C202 C200 1.381 . S
C202 C203 1.394 . S
C202 H210 0.930 . S
C203 C202 1.394 . S
C203 C204 1.383 . S
C203 H211 0.929 . S
C204 C203 1.383 . S
C204 C205 1.377 . S
C205 H189 0.930 . S
C205 C204 1.377 . S
C205 C206 1.379 . S
C206 H190 0.931 . S
C206 C200 1.383 . S
C206 C205 1.379 . S
H207 C201 0.959 . S
H208 C201 0.961 . S
H209 C201 0.960 . S
H210 C202 0.930 . S
H211 C203 0.929 . S
H212 C220 0.929 . S
H213 C222 0.930 . S
H214 C224 0.930 . S
H215 C227 0.929 . S
H216 C230 0.930 . S
H217 C232 0.960 . S
H218 C232 0.960 . S
H219 C232 0.960 . S
C220 H212 0.929 . S
C220 C221 1.377 . S
C220 C222 1.384 . S
C221 C220 1.377 . S
C221 C227 1.390 . S
C222 H213 0.930 . S
C222 C220 1.384 . S
C222 C223 1.372 . S
C223 C222 1.372 . S
C223 C224 1.400 . S
C223 C228 1.490 . S
C224 H214 0.930 . S
C224 C223 1.400 . S
C224 C227 1.386 . S
H225 C241 0.930 . S
H226 C242 0.931 . S
C227 H215 0.929 . S
C227 C221 1.390 . S
C227 C224 1.386 . S
C228 C223 1.490 . S
C228 C230 1.395 . S
C228 C231 1.403 . S
H229 C235 0.930 . S
C230 H216 0.930 . S
C230 C228 1.395 . S
C230 C233 1.403 . S
C231 C228 1.403 . S
C231 C232 1.524 . S
C231 C235 1.400 . S
C232 H217 0.960 . S
C232 H218 0.960 . S
C232 H219 0.960 . S
C232 C231 1.524 . S
C233 C230 1.403 . S
C233 C234 1.392 . S
C233 C237 1.495 . S
C234 C233 1.392 . S
C234 C235 1.385 . S
C234 C236 1.478 . S
C235 H229 0.930 . S
C235 C231 1.400 . S
C235 C234 1.385 . S
C236 C234 1.478 . S
C236 C238 1.381 . S
C236 C242 1.383 . S
C237 C233 1.495 . S
C237 H243 0.959 . S
C237 H244 0.961 . S
C237 H245 0.960 . S
C238 C236 1.381 . S
C238 C239 1.394 . S
C238 H246 0.930 . S
C239 C238 1.394 . S
C239 C240 1.383 . S
C239 H247 0.929 . S
C240 C239 1.383 . S
C240 C241 1.377 . S
C241 H225 0.930 . S
C241 C240 1.377 . S
C241 C242 1.379 . S
C242 H226 0.931 . S
C242 C236 1.383 . S
C242 C241 1.379 . S
H243 C237 0.959 . S
H244 C237 0.961 . S
H245 C237 0.960 . S
H246 C238 0.930 . S
H247 C239 0.929 . S
H248 C256 0.929 . S
H249 C258 0.930 . S
H250 C260 0.930 . S
H251 C263 0.929 . S
H252 C266 0.930 . S
H253 C268 0.960 . S
H254 C268 0.960 . S
H255 C268 0.960 . S
C256 H248 0.929 . S
C256 C257 1.377 . S
C256 C258 1.384 . S
C257 C256 1.377 . S
C257 C263 1.390 . S
C258 H249 0.930 . S
C258 C256 1.384 . S
C258 C259 1.372 . S
C259 C258 1.372 . S
C259 C260 1.400 . S
C259 C264 1.490 . S
C260 H250 0.930 . S
C260 C259 1.400 . S
C260 C263 1.386 . S
H261 C277 0.930 . S
H262 C278 0.931 . S
C263 H251 0.929 . S
C263 C257 1.390 . S
C263 C260 1.386 . S
C264 C259 1.490 . S
C264 C266 1.395 . S
C264 C267 1.403 . S
H265 C271 0.930 . S
C266 H252 0.930 . S
C266 C264 1.395 . S
C266 C269 1.403 . S
C267 C264 1.403 . S
C267 C268 1.524 . S
C267 C271 1.400 . S
C268 H253 0.960 . S
C268 H254 0.960 . S
C268 H255 0.960 . S
C268 C267 1.524 . S
C269 C266 1.403 . S
C269 C270 1.392 . S
C269 C273 1.495 . S
C270 C269 1.392 . S
C270 C271 1.385 . S
C270 C272 1.478 . S
C271 H265 0.930 . S
C271 C267 1.400 . S
C271 C270 1.385 . S
C272 C270 1.478 . S
C272 C274 1.381 . S
C272 C278 1.383 . S
C273 C269 1.495 . S
C273 H279 0.959 . S
C273 H280 0.961 . S
C273 H281 0.960 . S
C274 C272 1.381 . S
C274 C275 1.394 . S
C274 H282 0.930 . S
C275 C274 1.394 . S
C275 C276 1.383 . S
C275 H283 0.929 . S
C276 C275 1.383 . S
C276 C277 1.377 . S
C277 H261 0.930 . S
C277 C276 1.377 . S
C277 C278 1.379 . S
C278 H262 0.931 . S
C278 C272 1.383 . S
C278 C277 1.379 . S
H279 C273 0.959 . S
H280 C273 0.961 . S
H281 C273 0.960 . S
H282 C274 0.930 . S
H283 C275 0.929 . S
H284 C292 0.929 . S
H285 C294 0.930 . S
H286 C296 0.930 . S
H287 C299 0.929 . S
H288 C302 0.930 . S
H289 C304 0.960 . S
H290 C304 0.960 . S
H291 C304 0.960 . S
C292 H284 0.929 . S
C292 C293 1.377 . S
C292 C294 1.384 . S
C293 C292 1.377 . S
C293 C299 1.390 . S
C294 H285 0.930 . S
C294 C292 1.384 . S
C294 C295 1.372 . S
C295 C294 1.372 . S
C295 C296 1.400 . S
C295 C300 1.490 . S
C296 H286 0.930 . S
C296 C295 1.400 . S
C296 C299 1.386 . S
H297 C313 0.930 . S
H298 C314 0.931 . S
C299 H287 0.929 . S
C299 C293 1.390 . S
C299 C296 1.386 . S
C300 C295 1.490 . S
C300 C302 1.395 . S
C300 C303 1.403 . S
H301 C307 0.930 . S
C302 H288 0.930 . S
C302 C300 1.395 . S
C302 C305 1.403 . S
C303 C300 1.403 . S
C303 C304 1.524 . S
C303 C307 1.400 . S
C304 H289 0.960 . S
C304 H290 0.960 . S
C304 H291 0.960 . S
C304 C303 1.524 . S
C305 C302 1.403 . S
C305 C306 1.392 . S
C305 C309 1.495 . S
C306 C305 1.392 . S
C306 C307 1.385 . S
C306 C308 1.478 . S
C307 H301 0.930 . S
C307 C303 1.400 . S
C307 C306 1.385 . S
C308 C306 1.478 . S
C308 C310 1.381 . S
C308 C314 1.383 . S
C309 C305 1.495 . S
C309 H315 0.959 . S
C309 H316 0.961 . S
C309 H317 0.960 . S
C310 C308 1.381 . S
C310 C311 1.394 . S
C310 H318 0.930 . S
C311 C310 1.394 . S
C311 C312 1.383 . S
C311 H319 0.929 . S
C312 C311 1.383 . S
C312 C313 1.377 . S
C313 H297 0.930 . S
C313 C312 1.377 . S
C313 C314 1.379 . S
C314 H298 0.931 . S
C314 C308 1.383 . S
C314 C313 1.379 . S
H315 C309 0.959 . S
H316 C309 0.961 . S
H317 C309 0.960 . S
H318 C310 0.930 . S
H319 C311 0.929 . S
H320 C328 0.929 . S
H321 C330 0.930 . S
H322 C332 0.930 . S
H323 C335 0.929 . S
H324 C338 0.930 . S
H325 C340 0.960 . S
H326 C340 0.960 . S
H327 C340 0.960 . S
C328 H320 0.929 . S
C328 C329 1.377 . S
C328 C330 1.384 . S
C329 C328 1.377 . S
C329 C335 1.390 . S
C330 H321 0.930 . S
C330 C328 1.384 . S
C330 C331 1.372 . S
C331 C330 1.372 . S
C331 C332 1.400 . S
C331 C336 1.490 . S
C332 H322 0.930 . S
C332 C331 1.400 . S
C332 C335 1.386 . S
H333 C349 0.930 . S
H334 C350 0.931 . S
C335 H323 0.929 . S
C335 C329 1.390 . S
C335 C332 1.386 . S
C336 C331 1.490 . S
C336 C338 1.395 . S
C336 C339 1.403 . S
H337 C343 0.930 . S
C338 H324 0.930 . S
C338 C336 1.395 . S
C338 C341 1.403 . S
C339 C336 1.403 . S
C339 C340 1.524 . S
C339 C343 1.400 . S
C340 H325 0.960 . S
C340 H326 0.960 . S
C340 H327 0.960 . S
C340 C339 1.524 . S
C341 C338 1.403 . S
C341 C342 1.392 . S
C341 C345 1.495 . S
C342 C341 1.392 . S
C342 C343 1.385 . S
C342 C344 1.478 . S
C343 H337 0.930 . S
C343 C339 1.400 . S
C343 C342 1.385 . S
C344 C342 1.478 . S
C344 C346 1.381 . S
C344 C350 1.383 . S
C345 C341 1.495 . S
C345 H351 0.959 . S
C345 H352 0.961 . S
C345 H353 0.960 . S
C346 C344 1.381 . S
C346 C347 1.394 . S
C346 H354 0.930 . S
C347 C346 1.394 . S
C347 C348 1.383 . S
C347 H355 0.929 . S
C348 C347 1.383 . S
C348 C349 1.377 . S
C349 H333 0.930 . S
C349 C348 1.377 . S
C349 C350 1.379 . S
C350 H334 0.931 . S
C350 C344 1.383 . S
C350 C349 1.379 . S
H351 C345 0.959 . S
H352 C345 0.961 . S
H353 C345 0.960 . S
H354 C346 0.930 . S
H355 C347 0.929 . S
H356 C364 0.929 . S
H357 C366 0.930 . S
H358 C368 0.930 . S
H359 C371 0.929 . S
H360 C374 0.930 . S
H361 C376 0.960 . S
H362 C376 0.960 . S
H363 C376 0.960 . S
C364 H356 0.929 . S
C364 C365 1.377 . S
C364 C366 1.384 . S
C365 C364 1.377 . S
C365 C371 1.390 . S
C366 H357 0.930 . S
C366 C364 1.384 . S
C366 C367 1.372 . S
C367 C366 1.372 . S
C367 C368 1.400 . S
C367 C372 1.490 . S
C368 H358 0.930 . S
C368 C367 1.400 . S
C368 C371 1.386 . S
H369 C385 0.930 . S
H370 C386 0.931 . S
C371 H359 0.929 . S
C371 C365 1.390 . S
C371 C368 1.386 . S
C372 C367 1.490 . S
C372 C374 1.395 . S
C372 C375 1.403 . S
H373 C379 0.930 . S
C374 H360 0.930 . S
C374 C372 1.395 . S
C374 C377 1.403 . S
C375 C372 1.403 . S
C375 C376 1.524 . S
C375 C379 1.400 . S
C376 H361 0.960 . S
C376 H362 0.960 . S
C376 H363 0.960 . S
C376 C375 1.524 . S
C377 C374 1.403 . S
C377 C378 1.392 . S
C377 C381 1.495 . S
C378 C377 1.392 . S
C378 C379 1.385 . S
C378 C380 1.478 . S
C379 H373 0.930 . S
C379 C375 1.400 . S
C379 C378 1.385 . S
C380 C378 1.478 . S
C380 C382 1.381 . S
C380 C386 1.383 . S
C381 C377 1.495 . S
C381 H387 0.959 . S
C381 H388 0.961 . S
C381 H389 0.960 . S
C382 C380 1.381 . S
C382 C383 1.394 . S
C382 H390 0.930 . S
C383 C382 1.394 . S
C383 C384 1.383 . S
C383 H391 0.929 . S
C384 C383 1.383 . S
C384 C385 1.377 . S
C385 H369 0.930 . S
C385 C384 1.377 . S
C385 C386 1.379 . S
C386 H370 0.931 . S
C386 C380 1.383 . S
C386 C385 1.379 . S
H387 C381 0.959 . S
H388 C381 0.961 . S
H389 C381 0.960 . S
H390 C382 0.930 . S
H391 C383 0.929 . S
H392 C400 0.929 . S
H393 C402 0.930 . S
H394 C404 0.930 . S
H395 C407 0.929 . S
H396 C410 0.930 . S
H397 C412 0.960 . S
H398 C412 0.960 . S
H399 C412 0.960 . S
C400 H392 0.929 . S
C400 C401 1.377 . S
C400 C402 1.384 . S
C401 C400 1.377 . S
C401 C407 1.390 . S
C402 H393 0.930 . S
C402 C400 1.384 . S
C402 C403 1.372 . S
C403 C402 1.372 . S
C403 C404 1.400 . S
C403 C408 1.490 . S
C404 H394 0.930 . S
C404 C403 1.400 . S
C404 C407 1.386 . S
H405 C421 0.930 . S
H406 C422 0.931 . S
C407 H395 0.929 . S
C407 C401 1.390 . S
C407 C404 1.386 . S
C408 C403 1.490 . S
C408 C410 1.395 . S
C408 C411 1.403 . S
H409 C415 0.930 . S
C410 H396 0.930 . S
C410 C408 1.395 . S
C410 C413 1.403 . S
C411 C408 1.403 . S
C411 C412 1.524 . S
C411 C415 1.400 . S
C412 H397 0.960 . S
C412 H398 0.960 . S
C412 H399 0.960 . S
C412 C411 1.524 . S
C413 C410 1.403 . S
C413 C414 1.392 . S
C413 C417 1.495 . S
C414 C413 1.392 . S
C414 C415 1.385 . S
C414 C416 1.478 . S
C415 H409 0.930 . S
C415 C411 1.400 . S
C415 C414 1.385 . S
C416 C414 1.478 . S
C416 C418 1.381 . S
C416 C422 1.383 . S
C417 C413 1.495 . S
C417 H423 0.959 . S
C417 H424 0.961 . S
C417 H425 0.960 . S
C418 C416 1.381 . S
C418 C419 1.394 . S
C418 H426 0.930 . S
C419 C418 1.394 . S
C419 C420 1.383 . S
C419 H427 0.929 . S
C420 C419 1.383 . S
C420 C421 1.377 . S
C421 H405 0.930 . S
C421 C420 1.377 . S
C421 C422 1.379 . S
C422 H406 0.931 . S
C422 C416 1.383 . S
C422 C421 1.379 . S
H423 C417 0.959 . S
H424 C417 0.961 . S
H425 C417 0.960 . S
H426 C418 0.930 . S
H427 C419 0.929 . S
H428 C436 0.929 . S
H429 C438 0.930 . S
H430 C440 0.930 . S
H431 C443 0.929 . S
H432 C446 0.930 . S
H433 C448 0.960 . S
H434 C448 0.960 . S
H435 C448 0.960 . S
C436 H428 0.929 . S
C436 C437 1.377 . S
C436 C438 1.384 . S
C437 C436 1.377 . S
C437 C443 1.390 . S
C438 H429 0.930 . S
C438 C436 1.384 . S
C438 C439 1.372 . S
C439 C438 1.372 . S
C439 C440 1.400 . S
C439 C444 1.490 . S
C440 H430 0.930 . S
C440 C439 1.400 . S
C440 C443 1.386 . S
H441 C457 0.930 . S
H442 C458 0.931 . S
C443 H431 0.929 . S
C443 C437 1.390 . S
C443 C440 1.386 . S
C444 C439 1.490 . S
C444 C446 1.395 . S
C444 C447 1.403 . S
H445 C451 0.930 . S
C446 H432 0.930 . S
C446 C444 1.395 . S
C446 C449 1.403 . S
C447 C444 1.403 . S
C447 C448 1.524 . S
C447 C451 1.400 . S
C448 H433 0.960 . S
C448 H434 0.960 . S
C448 H435 0.960 . S
C448 C447 1.524 . S
C449 C446 1.403 . S
C449 C450 1.392 . S
C449 C453 1.495 . S
C450 C449 1.392 . S
C450 C451 1.385 . S
C450 C452 1.478 . S
C451 H445 0.930 . S
C451 C447 1.400 . S
C451 C450 1.385 . S
C452 C450 1.478 . S
C452 C454 1.381 . S
C452 C458 1.383 . S
C453 C449 1.495 . S
C453 H459 0.959 . S
C453 H460 0.961 . S
C453 H461 0.960 . S
C454 C452 1.381 . S
C454 C455 1.394 . S
C454 H462 0.930 . S
C455 C454 1.394 . S
C455 C456 1.383 . S
C455 H463 0.929 . S
C456 C455 1.383 . S
C456 C457 1.377 . S
C457 H441 0.930 . S
C457 C456 1.377 . S
C457 C458 1.379 . S
C458 H442 0.931 . S
C458 C452 1.383 . S
C458 C457 1.379 . S
H459 C453 0.959 . S
H460 C453 0.961 . S
H461 C453 0.960 . S
H462 C454 0.930 . S
H463 C455 0.929 . S
H464 C472 0.929 . S
H465 C474 0.930 . S
H466 C476 0.930 . S
H467 C479 0.929 . S
H468 C482 0.930 . S
H469 C484 0.960 . S
H470 C484 0.960 . S
H471 C484 0.960 . S
C472 H464 0.929 . S
C472 C473 1.377 . S
C472 C474 1.384 . S
C473 C472 1.377 . S
C473 C479 1.390 . S
C474 H465 0.930 . S
C474 C472 1.384 . S
C474 C475 1.372 . S
C475 C474 1.372 . S
C475 C476 1.400 . S
C475 C480 1.490 . S
C476 H466 0.930 . S
C476 C475 1.400 . S
C476 C479 1.386 . S
H477 C493 0.930 . S
H478 C494 0.931 . S
C479 H467 0.929 . S
C479 C473 1.390 . S
C479 C476 1.386 . S
C480 C475 1.490 . S
C480 C482 1.395 . S
C480 C483 1.403 1_655 S
H481 C487 0.930 . S
C482 H468 0.930 . S
C482 C480 1.395 . S
C482 C485 1.403 . S
C483 C480 1.403 1_455 S
C483 C484 1.524 . S
C483 C487 1.400 . S
C484 H469 0.960 . S
C484 H470 0.960 . S
C484 H471 0.960 . S
C484 C483 1.524 . S
C485 C482 1.403 . S
C485 C486 1.392 1_655 S
C485 C489 1.495 . S
C486 C485 1.392 1_455 S
C486 C487 1.385 . S
C486 C488 1.478 . S
C487 H481 0.930 . S
C487 C483 1.400 . S
C487 C486 1.385 . S
C488 C486 1.478 . S
C488 C490 1.381 . S
C488 C494 1.383 . S
C489 C485 1.495 . S
C489 H495 0.959 . S
C489 H496 0.961 . S
C489 H497 0.960 . S
C490 C488 1.381 . S
C490 C491 1.394 . S
C490 H498 0.930 . S
C491 C490 1.394 . S
C491 C492 1.383 . S
C491 H499 0.929 . S
C492 C491 1.383 . S
C492 C493 1.377 . S
C493 H477 0.930 . S
C493 C492 1.377 . S
C493 C494 1.379 . S
C494 H478 0.931 . S
C494 C488 1.383 . S
C494 C493 1.379 . S
H495 C489 0.959 . S
H496 C489 0.961 . S
H497 C489 0.960 . S
H498 C490 0.930 . S
H499 C491 0.929 . S
H500 C508 0.929 . S
H501 C510 0.930 . S
H502 C512 0.930 . S
H503 C515 0.929 . S
H504 C518 0.930 . S
H505 C520 0.960 . S
H506 C520 0.960 . S
H507 C520 0.960 . S
C508 H500 0.929 . S
C508 C509 1.377 . S
C508 C510 1.384 . S
C509 C508 1.377 . S
C509 C515 1.390 . S
C510 H501 0.930 . S
C510 C508 1.384 . S
C510 C511 1.372 . S
C511 C510 1.372 . S
C511 C512 1.400 . S
C511 C516 1.490 . S
C512 H502 0.930 . S
C512 C511 1.400 . S
C512 C515 1.386 . S
H513 C529 0.930 . S
H514 C530 0.931 . S
C515 H503 0.929 . S
C515 C509 1.390 . S
C515 C512 1.386 . S
C516 C511 1.490 . S
C516 C518 1.395 1_545 S
C516 C519 1.403 . S
H517 C523 0.930 . S
C518 H504 0.930 . S
C518 C516 1.395 1_565 S
C518 C521 1.403 . S
C519 C516 1.403 . S
C519 C520 1.524 . S
C519 C523 1.400 . S
C520 H505 0.960 . S
C520 H506 0.960 . S
C520 H507 0.960 . S
C520 C519 1.524 . S
C521 C518 1.403 . S
C521 C522 1.392 . S
C521 C525 1.495 . S
C522 C521 1.392 . S
C522 C523 1.385 1_565 S
C522 C524 1.478 . S
C523 H517 0.930 . S
C523 C519 1.400 . S
C523 C522 1.385 1_545 S
C524 C522 1.478 . S
C524 C526 1.381 . S
C524 C530 1.383 . S
C525 C521 1.495 . S
C525 H531 0.959 . S
C525 H532 0.961 . S
C525 H533 0.960 . S
C526 C524 1.381 . S
C526 C527 1.394 . S
C526 H534 0.930 . S
C527 C526 1.394 . S
C527 C528 1.383 . S
C527 H535 0.929 . S
C528 C527 1.383 . S
C528 C529 1.377 . S
C529 H513 0.930 . S
C529 C528 1.377 . S
C529 C530 1.379 . S
C530 H514 0.931 . S
C530 C524 1.383 . S
C530 C529 1.379 . S
H531 C525 0.959 . S
H532 C525 0.961 . S
H533 C525 0.960 . S
H534 C526 0.930 . S
H535 C527 0.929 . S
H536 C544 0.929 . S
H537 C546 0.930 . S
H538 C548 0.930 . S
H539 C551 0.929 . S
H540 C554 0.930 . S
H541 C556 0.960 . S
H542 C556 0.960 . S
H543 C556 0.960 . S
C544 H536 0.929 . S
C544 C545 1.377 . S
C544 C546 1.384 . S
C545 C544 1.377 . S
C545 C551 1.390 . S
C546 H537 0.930 . S
C546 C544 1.384 . S
C546 C547 1.372 . S
C547 C546 1.372 . S
C547 C548 1.400 . S
C547 C552 1.490 . S
C548 H538 0.930 . S
C548 C547 1.400 . S
C548 C551 1.386 . S
H549 C565 0.930 . S
H550 C566 0.931 . S
C551 H539 0.929 . S
C551 C545 1.390 . S
C551 C548 1.386 . S
C552 C547 1.490 . S
C552 C554 1.395 . S
C552 C555 1.403 1_655 S
H553 C559 0.930 . S
C554 H540 0.930 . S
C554 C552 1.395 . S
C554 C557 1.403 . S
C555 C552 1.403 1_455 S
C555 C556 1.524 . S
C555 C559 1.400 . S
C556 H541 0.960 . S
C556 H542 0.960 . S
C556 H543 0.960 . S
C556 C555 1.524 . S
C557 C554 1.403 . S
C557 C558 1.392 1_655 S
C557 C561 1.495 . S
C558 C557 1.392 1_455 S
C558 C559 1.385 . S
C558 C560 1.478 . S
C559 H553 0.930 . S
C559 C555 1.400 . S
C559 C558 1.385 . S
C560 C558 1.478 . S
C560 C562 1.381 . S
C560 C566 1.383 . S
C561 C557 1.495 . S
C561 H567 0.959 . S
C561 H568 0.961 . S
C561 H569 0.960 . S
C562 C560 1.381 . S
C562 C563 1.394 . S
C562 H570 0.930 . S
C563 C562 1.394 . S
C563 C564 1.383 . S
C563 H571 0.929 . S
C564 C563 1.383 . S
C564 C565 1.377 . S
C565 H549 0.930 . S
C565 C564 1.377 . S
C565 C566 1.379 . S
C566 H550 0.931 . S
C566 C560 1.383 . S
C566 C565 1.379 . S
H567 C561 0.959 . S
H568 C561 0.961 . S
H569 C561 0.960 . S
H570 C562 0.930 . S
H571 C563 0.929 . S
H572 C580 0.929 . S
H573 C582 0.930 . S
H574 C584 0.930 . S
H575 C587 0.929 . S
H576 C590 0.930 . S
H577 C592 0.960 . S
H578 C592 0.960 . S
H579 C592 0.960 . S
C580 H572 0.929 . S
C580 C581 1.377 . S
C580 C582 1.384 . S
C581 C580 1.377 . S
C581 C587 1.390 . S
C582 H573 0.930 . S
C582 C580 1.384 . S
C582 C583 1.372 . S
C583 C582 1.372 . S
C583 C584 1.400 . S
C583 C588 1.490 . S
C584 H574 0.930 . S
C584 C583 1.400 . S
C584 C587 1.386 . S
H585 C601 0.930 . S
H586 C602 0.931 . S
C587 H575 0.929 . S
C587 C581 1.390 . S
C587 C584 1.386 . S
C588 C583 1.490 . S
C588 C590 1.395 1_545 S
C588 C591 1.403 . S
H589 C595 0.930 . S
C590 H576 0.930 . S
C590 C588 1.395 1_565 S
C590 C593 1.403 . S
C591 C588 1.403 . S
C591 C592 1.524 . S
C591 C595 1.366 1_545 S
C592 H577 0.960 . S
C592 H578 0.960 . S
C592 H579 0.960 . S
C592 C591 1.524 . S
C593 C590 1.403 . S
C593 C594 1.392 . S
C593 C597 1.495 . S
C594 C593 1.392 . S
C594 C595 1.420 . S
C594 C596 1.478 . S
C595 H589 0.930 . S
C595 C591 1.366 1_565 S
C595 C594 1.420 . S
C596 C594 1.478 . S
C596 C598 1.381 . S
C596 C602 1.383 . S
C597 C593 1.495 . S
C597 H603 0.959 . S
C597 H604 0.961 . S
C597 H605 0.960 . S
C598 C596 1.381 . S
C598 C599 1.394 . S
C598 H606 0.930 . S
C599 C598 1.394 . S
C599 C600 1.383 . S
C599 H607 0.929 . S
C600 C599 1.383 . S
C600 C601 1.377 . S
C601 H585 0.930 . S
C601 C600 1.377 . S
C601 C602 1.379 . S
C602 H586 0.931 . S
C602 C596 1.383 . S
C602 C601 1.379 . S
H603 C597 0.959 . S
H604 C597 0.961 . S
H605 C597 0.960 . S
H606 C598 0.930 . S
H607 C599 0.929 . S
H608 C616 0.929 . S
H609 C618 0.930 . S
H610 C620 0.930 . S
H611 C623 0.929 . S
H612 C626 0.930 . S
H613 C628 0.960 . S
H614 C628 0.960 . S
H615 C628 0.960 . S
C616 H608 0.929 . S
C616 C617 1.377 . S
C616 C618 1.384 . S
C617 C616 1.377 . S
C617 C623 1.390 . S
C618 H609 0.930 . S
C618 C616 1.384 . S
C618 C619 1.372 . S
C619 C618 1.372 . S
C619 C620 1.400 . S
C619 C624 1.490 . S
C620 H610 0.930 . S
C620 C619 1.400 . S
C620 C623 1.386 . S
H621 C637 0.930 . S
H622 C638 0.931 . S
C623 H611 0.929 . S
C623 C617 1.390 . S
C623 C620 1.386 . S
C624 C619 1.490 . S
C624 C626 1.395 . S
C624 C627 1.403 1_455 S
H625 C631 0.930 . S
C626 H612 0.930 . S
C626 C624 1.395 . S
C626 C629 1.403 . S
C627 C624 1.403 1_655 S
C627 C628 1.524 . S
C627 C631 1.400 . S
C628 H613 0.960 . S
C628 H614 0.960 . S
C628 H615 0.960 . S
C628 C627 1.524 . S
C629 C626 1.403 . S
C629 C630 1.392 1_455 S
C629 C633 1.495 . S
C630 C629 1.392 1_655 S
C630 C631 1.385 . S
C630 C632 1.478 . S
C631 H625 0.930 . S
C631 C627 1.400 . S
C631 C630 1.385 . S
C632 C630 1.478 . S
C632 C634 1.381 . S
C632 C638 1.383 . S
C633 C629 1.495 . S
C633 H639 0.959 . S
C633 H640 0.961 . S
C633 H641 0.960 . S
C634 C632 1.381 . S
C634 C635 1.394 . S
C634 H642 0.930 . S
C635 C634 1.394 . S
C635 C636 1.383 . S
C635 H643 0.929 . S
C636 C635 1.383 . S
C636 C637 1.377 . S
C637 H621 0.930 . S
C637 C636 1.377 . S
C637 C638 1.379 . S
C638 H622 0.931 . S
C638 C632 1.383 . S
C638 C637 1.379 . S
H639 C633 0.959 . S
H640 C633 0.961 . S
H641 C633 0.960 . S
H642 C634 0.930 . S
H643 C635 0.929 . S
H644 C652 0.929 . S
H645 C654 0.930 . S
H646 C656 0.930 . S
H647 C659 0.929 . S
H648 C662 0.930 . S
H649 C664 0.960 . S
H650 C664 0.960 . S
H651 C664 0.960 . S
C652 H644 0.929 . S
C652 C653 1.377 . S
C652 C654 1.384 . S
C653 C652 1.377 . S
C653 C659 1.390 . S
C654 H645 0.930 . S
C654 C652 1.384 . S
C654 C655 1.372 . S
C655 C654 1.372 . S
C655 C656 1.400 . S
C655 C660 1.490 . S
C656 H646 0.930 . S
C656 C655 1.400 . S
C656 C659 1.386 . S
H657 C673 0.930 . S
H658 C674 0.931 . S
C659 H647 0.929 . S
C659 C653 1.390 . S
C659 C656 1.386 . S
C660 C655 1.490 . S
C660 C662 1.395 . S
C660 C663 1.403 . S
H661 C667 0.930 . S
C662 H648 0.930 . S
C662 C660 1.395 . S
C662 C665 1.403 1_565 S
C663 C660 1.403 . S
C663 C664 1.524 . S
C663 C667 1.400 1_565 S
C664 H649 0.960 . S
C664 H650 0.960 . S
C664 H651 0.960 . S
C664 C663 1.524 . S
C665 C662 1.403 1_545 S
C665 C666 1.392 . S
C665 C669 1.495 . S
C666 C665 1.392 . S
C666 C667 1.385 . S
C666 C668 1.478 . S
C667 H661 0.930 . S
C667 C663 1.400 1_545 S
C667 C666 1.385 . S
C668 C666 1.478 . S
C668 C670 1.381 . S
C668 C674 1.383 . S
C669 C665 1.495 . S
C669 H675 0.959 . S
C669 H676 0.961 . S
C669 H677 0.960 . S
C670 C668 1.381 . S
C670 C671 1.394 . S
C670 H678 0.930 . S
C671 C670 1.394 . S
C671 C672 1.383 . S
C671 H679 0.929 . S
C672 C671 1.383 . S
C672 C673 1.377 . S
C673 H657 0.930 . S
C673 C672 1.377 . S
C673 C674 1.379 . S
C674 H658 0.931 . S
C674 C668 1.383 . S
C674 C673 1.379 . S
H675 C669 0.959 . S
H676 C669 0.961 . S
H677 C669 0.960 . S
H678 C670 0.930 . S
H679 C671 0.929 . S
H680 C688 0.929 . S
H681 C690 0.930 . S
H682 C692 0.930 . S
H683 C695 0.929 . S
H684 C698 0.930 . S
H685 C700 0.960 . S
H686 C700 0.960 . S
H687 C700 0.960 1_655 S
C688 H680 0.929 . S
C688 C689 1.377 . S
C688 C690 1.384 . S
C689 C688 1.377 . S
C689 C695 1.390 . S
C690 H681 0.930 . S
C690 C688 1.384 . S
C690 C691 1.372 . S
C691 C690 1.372 . S
C691 C692 1.400 . S
C691 C696 1.490 . S
C692 H682 0.930 . S
C692 C691 1.400 . S
C692 C695 1.386 . S
H693 C709 0.930 . S
H694 C710 0.931 . S
C695 H683 0.929 . S
C695 C689 1.390 . S
C695 C692 1.386 . S
C696 C691 1.490 . S
C696 C698 1.395 . S
C696 C699 1.403 1_655 S
H697 C703 0.930 . S
C698 H684 0.930 . S
C698 C696 1.395 . S
C698 C701 1.403 . S
C699 C696 1.403 1_455 S
C699 C700 1.524 . S
C699 C703 1.400 . S
C700 H685 0.960 . S
C700 H686 0.960 . S
C700 H687 0.960 1_455 S
C700 C699 1.524 . S
C701 C698 1.403 . S
C701 C702 1.392 1_655 S
C701 C705 1.495 . S
C702 C701 1.392 1_455 S
C702 C703 1.385 . S
C702 C704 1.478 . S
C703 H697 0.930 . S
C703 C699 1.400 . S
C703 C702 1.385 . S
C704 C702 1.478 . S
C704 C706 1.381 . S
C704 C710 1.383 . S
C705 C701 1.495 . S
C705 H711 0.959 . S
C705 H712 0.961 . S
C705 H713 0.960 1_655 S
C706 C704 1.381 . S
C706 C707 1.394 . S
C706 H714 0.930 . S
C707 C706 1.394 . S
C707 C708 1.383 . S
C707 H715 0.929 . S
C708 C707 1.383 . S
C708 C709 1.377 . S
C709 H693 0.930 . S
C709 C708 1.377 . S
C709 C710 1.379 . S
C710 H694 0.931 . S
C710 C704 1.383 . S
C710 C709 1.379 . S
H711 C705 0.959 . S
H712 C705 0.961 . S
H713 C705 0.960 1_455 S
H714 C706 0.930 . S
H715 C707 0.929 . S
H716 C724 0.929 . S
H717 C726 0.930 . S
H718 C728 0.930 . S
H719 C731 0.929 . S
H720 C734 0.930 . S
H721 C736 0.960 . S
H722 C736 0.958 1_565 S
H723 C736 0.960 . S
C724 H716 0.929 . S
C724 C725 1.377 . S
C724 C726 1.384 . S
C725 C724 1.377 . S
C725 C731 1.390 . S
C726 H717 0.930 . S
C726 C724 1.384 . S
C726 C727 1.372 . S
C727 C726 1.372 . S
C727 C728 1.400 . S
C727 C732 1.490 . S
C728 H718 0.930 . S
C728 C727 1.400 . S
C728 C731 1.386 . S
H729 C745 0.930 . S
H730 C746 0.931 . S
C731 H719 0.929 . S
C731 C725 1.390 . S
C731 C728 1.386 . S
C732 C727 1.490 . S
C732 C734 1.395 . S
C732 C735 1.403 1_565 S
H733 C739 0.930 . S
C734 H720 0.930 . S
C734 C732 1.395 . S
C734 C737 1.403 . S
C735 C732 1.403 1_545 S
C735 C736 1.524 . S
C735 C739 1.400 . S
C736 H721 0.960 . S
C736 H722 0.958 1_545 S
C736 H723 0.960 . S
C736 C735 1.524 . S
C737 C734 1.403 . S
C737 C738 1.392 1_565 S
C737 C741 1.495 . S
C738 C737 1.392 1_545 S
C738 C739 1.385 . S
C738 C740 1.478 . S
C739 H733 0.930 . S
C739 C735 1.400 . S
C739 C738 1.385 . S
C740 C738 1.478 . S
C740 C742 1.381 . S
C740 C746 1.383 . S
C741 C737 1.495 . S
C741 H747 0.959 . S
C741 H748 0.961 . S
C741 H749 0.960 . S
C742 C740 1.381 . S
C742 C743 1.394 . S
C742 H750 0.930 . S
C743 C742 1.394 . S
C743 C744 1.383 . S
C743 H751 0.929 . S
C744 C743 1.383 . S
C744 C745 1.377 . S
C745 H729 0.930 . S
C745 C744 1.377 . S
C745 C746 1.379 . S
C746 H730 0.931 . S
C746 C740 1.383 . S
C746 C745 1.379 . S
H747 C741 0.959 . S
H748 C741 0.961 . S
H749 C741 0.960 . S
H750 C742 0.930 . S
H751 C743 0.929 . S
H752 C760 0.929 . S
H753 C762 0.930 . S
H754 C764 0.930 . S
H755 C767 0.929 . S
H756 C770 0.930 . S
H757 C772 0.960 . S
H758 C772 0.960 . S
H759 C772 0.960 . S
C760 H752 0.929 . S
C760 C761 1.377 . S
C760 C762 1.384 . S
C761 C760 1.377 . S
C761 C767 1.390 . S
C762 H753 0.930 . S
C762 C760 1.384 . S
C762 C763 1.372 . S
C763 C762 1.372 . S
C763 C764 1.400 . S
C763 C768 1.490 . S
C764 H754 0.930 . S
C764 C763 1.400 . S
C764 C767 1.386 . S
H765 C781 0.930 . S
H766 C782 0.931 . S
C767 H755 0.929 . S
C767 C761 1.390 . S
C767 C764 1.386 . S
C768 C763 1.490 . S
C768 C770 1.395 . S
C768 C771 1.403 . S
H769 C775 0.930 . S
C770 H756 0.930 . S
C770 C768 1.395 . S
C770 C773 1.403 . S
C771 C768 1.403 . S
C771 C772 1.524 . S
C771 C775 1.400 . S
C772 H757 0.960 . S
C772 H758 0.960 . S
C772 H759 0.960 . S
C772 C771 1.524 . S
C773 C770 1.403 . S
C773 C774 1.392 . S
C773 C777 1.495 . S
C774 C773 1.392 . S
C774 C775 1.385 . S
C774 C776 1.478 . S
C775 H769 0.930 . S
C775 C771 1.400 . S
C775 C774 1.385 . S
C776 C774 1.478 . S
C776 C778 1.381 . S
C776 C782 1.383 . S
C777 C773 1.495 . S
C777 H783 0.959 . S
C777 H784 0.961 . S
C777 H785 0.960 . S
C778 C776 1.381 . S
C778 C779 1.394 . S
C778 H786 0.930 . S
C779 C778 1.394 . S
C779 C780 1.383 . S
C779 H787 0.929 . S
C780 C779 1.383 . S
C780 C781 1.377 . S
C781 H765 0.930 . S
C781 C780 1.377 . S
C781 C782 1.379 . S
C782 H766 0.931 . S
C782 C776 1.383 . S
C782 C781 1.379 . S
H783 C777 0.959 . S
H784 C777 0.961 . S
H785 C777 0.960 . S
H786 C778 0.930 . S
H787 C779 0.929 . S
H788 C796 0.929 . S
H789 C798 0.930 . S
H790 C800 0.930 . S
H791 C803 0.929 . S
H792 C806 0.930 . S
H793 C808 0.960 . S
H794 C808 0.960 . S
H795 C808 0.960 . S
C796 H788 0.929 . S
C796 C797 1.377 . S
C796 C798 1.384 . S
C797 C796 1.377 . S
C797 C803 1.390 . S
C798 H789 0.930 . S
C798 C796 1.384 . S
C798 C799 1.372 . S
C799 C798 1.372 . S
C799 C800 1.400 . S
C799 C804 1.490 . S
C800 H790 0.930 . S
C800 C799 1.400 . S
C800 C803 1.386 . S
H801 C817 0.930 . S
H802 C818 0.931 . S
C803 H791 0.929 . S
C803 C797 1.390 . S
C803 C800 1.386 . S
C804 C799 1.490 . S
C804 C806 1.395 . S
C804 C807 1.403 . S
H805 C811 0.930 . S
C806 H792 0.930 . S
C806 C804 1.395 . S
C806 C809 1.403 . S
C807 C804 1.403 . S
C807 C808 1.524 . S
C807 C811 1.400 . S
C808 H793 0.960 . S
C808 H794 0.960 . S
C808 H795 0.960 . S
C808 C807 1.524 . S
C809 C806 1.403 . S
C809 C810 1.392 . S
C809 C813 1.495 . S
C810 C809 1.392 . S
C810 C811 1.385 . S
C810 C812 1.478 . S
C811 H805 0.930 . S
C811 C807 1.400 . S
C811 C810 1.385 . S
C812 C810 1.478 . S
C812 C814 1.381 . S
C812 C818 1.383 . S
C813 C809 1.495 . S
C813 H819 0.959 . S
C813 H820 0.961 . S
C813 H821 0.960 . S
C814 C812 1.381 . S
C814 C815 1.394 . S
C814 H822 0.930 . S
C815 C814 1.394 . S
C815 C816 1.383 . S
C815 H823 0.929 . S
C816 C815 1.383 . S
C816 C817 1.377 . S
C817 H801 0.930 . S
C817 C816 1.377 . S
C817 C818 1.379 . S
C818 H802 0.931 . S
C818 C812 1.383 . S
C818 C817 1.379 . S
H819 C813 0.959 . S
H820 C813 0.961 . S
H821 C813 0.960 . S
H822 C814 0.930 . S
H823 C815 0.929 . S
H824 C832 0.929 . S
H825 C834 0.930 . S
H826 C836 0.930 . S
H827 C839 0.929 . S
H828 C842 0.930 . S
H829 C844 0.960 . S
H830 C844 0.960 . S
H831 C844 0.960 . S
C832 H824 0.929 . S
C832 C833 1.377 . S
C832 C834 1.384 . S
C833 C832 1.377 . S
C833 C839 1.390 . S
C834 H825 0.930 . S
C834 C832 1.384 . S
C834 C835 1.372 . S
C835 C834 1.372 . S
C835 C836 1.400 . S
C835 C840 1.490 . S
C836 H826 0.930 . S
C836 C835 1.400 . S
C836 C839 1.386 . S
H837 C853 0.930 . S
H838 C854 0.931 . S
C839 H827 0.929 . S
C839 C833 1.390 . S
C839 C836 1.386 . S
C840 C835 1.490 . S
C840 C842 1.395 . S
C840 C843 1.403 . S
H841 C847 0.930 . S
C842 H828 0.930 . S
C842 C840 1.395 . S
C842 C845 1.403 . S
C843 C840 1.403 . S
C843 C844 1.524 . S
C843 C847 1.400 . S
C844 H829 0.960 . S
C844 H830 0.960 . S
C844 H831 0.960 . S
C844 C843 1.524 . S
C845 C842 1.403 . S
C845 C846 1.392 . S
C845 C849 1.495 . S
C846 C845 1.392 . S
C846 C847 1.385 . S
C846 C848 1.478 . S
C847 H841 0.930 . S
C847 C843 1.400 . S
C847 C846 1.385 . S
C848 C846 1.478 . S
C848 C850 1.381 . S
C848 C854 1.383 . S
C849 C845 1.495 . S
C849 H855 0.959 . S
C849 H856 0.961 . S
C849 H857 0.960 . S
C850 C848 1.381 . S
C850 C851 1.394 . S
C850 H858 0.930 . S
C851 C850 1.394 . S
C851 C852 1.383 . S
C851 H859 0.929 . S
C852 C851 1.383 . S
C852 C853 1.377 . S
C853 H837 0.930 . S
C853 C852 1.377 . S
C853 C854 1.379 . S
C854 H838 0.931 . S
C854 C848 1.383 . S
C854 C853 1.379 . S
H855 C849 0.959 . S
H856 C849 0.961 . S
H857 C849 0.960 . S
H858 C850 0.930 . S
H859 C851 0.929 . S
H860 C868 0.929 . S
H861 C870 0.930 . S
H862 C872 0.930 . S
H863 C875 0.929 . S
H864 C878 0.930 . S
H865 C880 0.960 . S
H866 C880 0.960 . S
H867 C880 0.960 . S
C868 H860 0.929 . S
C868 C869 1.377 . S
C868 C870 1.384 . S
C869 C868 1.377 . S
C869 C875 1.390 . S
C870 H861 0.930 . S
C870 C868 1.384 . S
C870 C871 1.372 . S
C871 C870 1.372 . S
C871 C872 1.400 . S
C871 C876 1.490 . S
C872 H862 0.930 . S
C872 C871 1.400 . S
C872 C875 1.386 . S
H873 C889 0.930 . S
H874 C890 0.931 . S
C875 H863 0.929 . S
C875 C869 1.390 . S
C875 C872 1.386 . S
C876 C871 1.490 . S
C876 C878 1.395 . S
C876 C879 1.403 . S
H877 C883 0.930 . S
C878 H864 0.930 . S
C878 C876 1.395 . S
C878 C881 1.403 . S
C879 C876 1.403 . S
C879 C880 1.524 . S
C879 C883 1.400 . S
C880 H865 0.960 . S
C880 H866 0.960 . S
C880 H867 0.960 . S
C880 C879 1.524 . S
C881 C878 1.403 . S
C881 C882 1.392 . S
C881 C885 1.495 . S
C882 C881 1.392 . S
C882 C883 1.385 . S
C882 C884 1.478 . S
C883 H877 0.930 . S
C883 C879 1.400 . S
C883 C882 1.385 . S
C884 C882 1.478 . S
C884 C886 1.381 . S
C884 C890 1.383 . S
C885 C881 1.495 . S
C885 H891 0.959 . S
C885 H892 0.961 . S
C885 H893 0.960 . S
C886 C884 1.381 . S
C886 C887 1.394 . S
C886 H894 0.930 . S
C887 C886 1.394 . S
C887 C888 1.383 . S
C887 H895 0.929 . S
C888 C887 1.383 . S
C888 C889 1.377 . S
C889 H873 0.930 . S
C889 C888 1.377 . S
C889 C890 1.379 . S
C890 H874 0.931 . S
C890 C884 1.383 . S
C890 C889 1.379 . S
H891 C885 0.959 . S
H892 C885 0.961 . S
H893 C885 0.960 . S
H894 C886 0.930 . S
H895 C887 0.929 . S
H896 C904 0.929 . S
H897 C906 0.930 . S
H898 C908 0.930 . S
H899 C911 0.929 . S
H900 C914 0.930 . S
H901 C916 0.960 . S
H902 C916 0.960 . S
H903 C916 0.960 . S
C904 H896 0.929 . S
C904 C905 1.377 . S
C904 C906 1.384 . S
C905 C904 1.377 . S
C905 C911 1.390 . S
C906 H897 0.930 . S
C906 C904 1.384 . S
C906 C907 1.372 . S
C907 C906 1.372 . S
C907 C908 1.400 . S
C907 C912 1.490 . S
C908 H898 0.930 . S
C908 C907 1.400 . S
C908 C911 1.386 . S
H909 C925 0.930 . S
H910 C926 0.931 . S
C911 H899 0.929 . S
C911 C905 1.390 . S
C911 C908 1.386 . S
C912 C907 1.490 . S
C912 C914 1.395 . S
C912 C915 1.403 . S
H913 C919 0.930 . S
C914 H900 0.930 . S
C914 C912 1.395 . S
C914 C917 1.403 . S
C915 C912 1.403 . S
C915 C916 1.524 . S
C915 C919 1.400 . S
C916 H901 0.960 . S
C916 H902 0.960 . S
C916 H903 0.960 . S
C916 C915 1.524 . S
C917 C914 1.403 . S
C917 C918 1.392 . S
C917 C921 1.495 . S
C918 C917 1.392 . S
C918 C919 1.385 . S
C918 C920 1.478 . S
C919 H913 0.930 . S
C919 C915 1.400 . S
C919 C918 1.385 . S
C920 C918 1.478 . S
C920 C922 1.381 . S
C920 C926 1.383 . S
C921 C917 1.495 . S
C921 H927 0.959 . S
C921 H928 0.961 . S
C921 H929 0.960 . S
C922 C920 1.381 . S
C922 C923 1.394 . S
C922 H930 0.930 . S
C923 C922 1.394 . S
C923 C924 1.383 . S
C923 H931 0.929 . S
C924 C923 1.383 . S
C924 C925 1.377 . S
C925 H909 0.930 . S
C925 C924 1.377 . S
C925 C926 1.379 . S
C926 H910 0.931 . S
C926 C920 1.383 . S
C926 C925 1.379 . S
H927 C921 0.959 . S
H928 C921 0.961 . S
H929 C921 0.960 . S
H930 C922 0.930 . S
H931 C923 0.929 . S
H932 C940 0.929 . S
H933 C942 0.930 . S
H934 C944 0.930 . S
H935 C947 0.929 . S
H936 C950 0.930 . S
H937 C952 0.960 . S
H938 C952 0.960 . S
H939 C952 0.960 . S
C940 H932 0.929 . S
C940 C941 1.377 . S
C940 C942 1.384 . S
C941 C940 1.377 . S
C941 C947 1.390 . S
C942 H933 0.930 . S
C942 C940 1.384 . S
C942 C943 1.372 . S
C943 C942 1.372 . S
C943 C944 1.400 . S
C943 C948 1.490 . S
C944 H934 0.930 . S
C944 C943 1.400 . S
C944 C947 1.386 . S
H945 C961 0.930 . S
H946 C962 0.931 . S
C947 H935 0.929 . S
C947 C941 1.390 . S
C947 C944 1.386 . S
C948 C943 1.490 . S
C948 C950 1.395 . S
C948 C951 1.403 . S
H949 C955 0.930 . S
C950 H936 0.930 . S
C950 C948 1.395 . S
C950 C953 1.403 . S
C951 C948 1.403 . S
C951 C952 1.524 . S
C951 C955 1.400 . S
C952 H937 0.960 . S
C952 H938 0.960 . S
C952 H939 0.960 . S
C952 C951 1.524 . S
C953 C950 1.403 . S
C953 C954 1.392 . S
C953 C957 1.495 . S
C954 C953 1.392 . S
C954 C955 1.385 . S
C954 C956 1.478 . S
C955 H949 0.930 . S
C955 C951 1.400 . S
C955 C954 1.385 . S
C956 C954 1.478 . S
C956 C958 1.381 . S
C956 C962 1.383 . S
C957 C953 1.495 . S
C957 H963 0.959 . S
C957 H964 0.961 . S
C957 H965 0.960 . S
C958 C956 1.381 . S
C958 C959 1.394 . S
C958 H966 0.930 . S
C959 C958 1.394 . S
C959 C960 1.383 . S
C959 H967 0.929 . S
C960 C959 1.383 . S
C960 C961 1.377 . S
C961 H945 0.930 . S
C961 C960 1.377 . S
C961 C962 1.379 . S
C962 H946 0.931 . S
C962 C956 1.383 . S
C962 C961 1.379 . S
H963 C957 0.959 . S
H964 C957 0.961 . S
H965 C957 0.960 . S
H966 C958 0.930 . S
H967 C959 0.929 . S
H968 C976 0.929 . S
H969 C978 0.930 . S
H970 C980 0.930 . S
H971 C983 0.929 . S
H972 C986 0.930 . S
H973 C988 0.960 . S
H974 C988 0.960 . S
H975 C988 0.960 . S
C976 H968 0.929 . S
C976 C977 1.377 . S
C976 C978 1.384 . S
C977 C976 1.377 . S
C977 C983 1.390 . S
C978 H969 0.930 . S
C978 C976 1.384 . S
C978 C979 1.372 . S
C979 C978 1.372 . S
C979 C980 1.400 . S
C979 C984 1.490 . S
C980 H970 0.930 . S
C980 C979 1.400 . S
C980 C983 1.386 . S
H981 C997 0.930 . S
H982 C998 0.931 . S
C983 H971 0.929 . S
C983 C977 1.390 . S
C983 C980 1.386 . S
C984 C979 1.490 . S
C984 C986 1.395 . S
C984 C987 1.403 . S
H985 C991 0.930 . S
C986 H972 0.930 . S
C986 C984 1.395 . S
C986 C989 1.403 . S
C987 C984 1.403 . S
C987 C988 1.524 . S
C987 C991 1.400 . S
C988 H973 0.960 . S
C988 H974 0.960 . S
C988 H975 0.960 . S
C988 C987 1.524 . S
C989 C986 1.403 . S
C989 C990 1.392 . S
C989 C993 1.495 . S
C990 C989 1.392 . S
C990 C991 1.385 . S
C990 C992 1.478 . S
C991 H985 0.930 . S
C991 C987 1.400 . S
C991 C990 1.385 . S
C992 C990 1.478 . S
C992 C994 1.381 . S
C992 C998 1.383 . S
C993 C989 1.495 . S
C993 H999 0.959 . S
C993 H1000 0.961 . S
C993 H1001 0.960 . S
C994 C992 1.381 . S
C994 C995 1.394 . S
C994 H1002 0.930 . S
C995 C994 1.394 . S
C995 C996 1.383 . S
C995 H1003 0.929 . S
C996 C995 1.383 . S
C996 C997 1.377 . S
C997 H981 0.930 . S
C997 C996 1.377 . S
C997 C998 1.379 . S
C998 H982 0.931 . S
C998 C992 1.383 . S
C998 C997 1.379 . S
H999 C993 0.959 . S
H1000 C993 0.961 . S
H1001 C993 0.960 . S
H1002 C994 0.930 . S
H1003 C995 0.929 . S
H1004 C1012 0.929 . S
H1005 C1014 0.930 . S
H1006 C1016 0.930 . S
H1007 C1019 0.929 . S
H1008 C1022 0.930 . S
H1009 C1024 0.960 . S
H1010 C1024 0.960 . S
H1011 C1024 0.960 . S
C1012 H1004 0.929 . S
C1012 C1013 1.377 . S
C1012 C1014 1.384 . S
C1013 C1012 1.377 . S
C1013 C1019 1.390 . S
C1014 H1005 0.930 . S
C1014 C1012 1.384 . S
C1014 C1015 1.372 . S
C1015 C1014 1.372 . S
C1015 C1016 1.400 . S
C1015 C1020 1.490 . S
C1016 H1006 0.930 . S
C1016 C1015 1.400 . S
C1016 C1019 1.386 . S
H1017 C1033 0.930 . S
H1018 C1034 0.931 . S
C1019 H1007 0.929 . S
C1019 C1013 1.390 . S
C1019 C1016 1.386 . S
C1020 C1015 1.490 . S
C1020 C1022 1.395 . S
C1020 C1023 1.403 . S
H1021 C1027 0.930 . S
C1022 H1008 0.930 . S
C1022 C1020 1.395 . S
C1022 C1025 1.403 . S
C1023 C1020 1.403 . S
C1023 C1024 1.524 . S
C1023 C1027 1.400 . S
C1024 H1009 0.960 . S
C1024 H1010 0.960 . S
C1024 H1011 0.960 . S
C1024 C1023 1.524 . S
C1025 C1022 1.403 . S
C1025 C1026 1.392 . S
C1025 C1029 1.495 . S
C1026 C1025 1.392 . S
C1026 C1027 1.385 . S
C1026 C1028 1.478 . S
C1027 H1021 0.930 . S
C1027 C1023 1.400 . S
C1027 C1026 1.385 . S
C1028 C1026 1.478 . S
C1028 C1030 1.381 . S
C1028 C1034 1.383 . S
C1029 C1025 1.495 . S
C1029 H1035 0.959 . S
C1029 H1036 0.961 . S
C1029 H1037 0.960 . S
C1030 C1028 1.381 . S
C1030 C1031 1.394 . S
C1030 H1038 0.930 . S
C1031 C1030 1.394 . S
C1031 C1032 1.383 . S
C1031 H1039 0.929 . S
C1032 C1031 1.383 . S
C1032 C1033 1.377 . S
C1033 H1017 0.930 . S
C1033 C1032 1.377 . S
C1033 C1034 1.379 . S
C1034 H1018 0.931 . S
C1034 C1028 1.383 . S
C1034 C1033 1.379 . S
H1035 C1029 0.959 . S
H1036 C1029 0.961 . S
H1037 C1029 0.960 . S
H1038 C1030 0.930 . S
H1039 C1031 0.929 . S
C185 C136 1.403 . S
C204 C8 1.411 . S
C221 C30 1.397 . S
C240 C158 1.379 . S
C257 C92 1.396 . S
C276 C53 1.378 . S
C293 C74 1.398 . S
C312 C114 1.383 . S
C329 C96 1.398 . S
C348 C50 1.388 . S
C365 C70 1.401 . S
C384 C118 1.413 . S
C401 C140 1.398 . S
C420 C4 1.384 . S
C437 C26 1.398 . S
C456 C162 1.384 . S
C473 C27 1.398 . S
C492 C119 1.387 . S
C509 C141 1.402 . S
C528 C48 1.414 . S
C545 C163 1.397 . S
C564 C71 1.382 . S
C581 C5 1.404 . S
C600 C97 1.417 . S
C617 C73 1.399 . S
C636 C160 1.380 . S
C653 C94 1.396 . S
C672 C7 1.400 . S
C689 C29 1.397 . S
C708 C116 1.384 . S
C725 C52 1.401 . S
C744 C138 1.377 . S
C761 C159 1.127 . S
C780 C9 1.107 . S
C797 C31 1.128 . S
C816 C93 1.112 . S
C833 C51 1.125 . S
C852 C115 1.105 . S
C869 C137 1.126 . S
C888 C75 1.106 . S
C905 C117 1.130 . S
C924 C49 1.133 . S
C941 C139 1.124 . S
C960 C72 1.131 . S
C977 C161 1.129 . S
C996 C6 1.144 . S
C1013 C95 1.123 . S
C1032 C28 1.121 . S
