# Generated by pormake.
# Topology umg, (4)-cn, num edge types: 1
# Building blocks:
#     Node 0, Type 0, BuildingBlock: ICAMEG_clean_sbu_1, # of connection points: 4
#     Node 1, Type 0, BuildingBlock: ICAMEG_clean_sbu_1, # of connection points: 4
#     Node 2, Type 0, BuildingBlock: ICAMEG_clean_sbu_1, # of connection points: 4
#     Node 3, Type 0, BuildingBlock: ICAMEG_clean_sbu_1, # of connection points: 4
#     Node 4, Type 0, BuildingBlock: ICAMEG_clean_sbu_1, # of connection points: 4
#     Node 5, Type 0, BuildingBlock: ICAMEG_clean_sbu_1, # of connection points: 4
#     Node 6, Type 0, BuildingBlock: ICAMEG_clean_sbu_1, # of connection points: 4
#     Node 7, Type 0, BuildingBlock: ICAMEG_clean_sbu_1, # of connection points: 4
#     Node 8, Type 0, BuildingBlock: ICAMEG_clean_sbu_1, # of connection points: 4
#     Node 9, Type 0, BuildingBlock: ICAMEG_clean_sbu_1, # of connection points: 4
#     Node 10, Type 0, BuildingBlock: ICAMEG_clean_sbu_1, # of connection points: 4
#     Node 11, Type 0, BuildingBlock: ICAMEG_clean_sbu_1, # of connection points: 4
#     Edge 12, Type (0, 0), BuildingBlock: XIVTED_clean_linker_0, # of connection points: 2
#     Edge 13, Type (0, 0), BuildingBlock: XIVTED_clean_linker_0, # of connection points: 2
#     Edge 14, Type (0, 0), BuildingBlock: XIVTED_clean_linker_0, # of connection points: 2
#     Edge 15, Type (0, 0), BuildingBlock: XIVTED_clean_linker_0, # of connection points: 2
#     Edge 16, Type (0, 0), BuildingBlock: XIVTED_clean_linker_0, # of connection points: 2
#     Edge 17, Type (0, 0), BuildingBlock: XIVTED_clean_linker_0, # of connection points: 2
#     Edge 18, Type (0, 0), BuildingBlock: XIVTED_clean_linker_0, # of connection points: 2
#     Edge 19, Type (0, 0), BuildingBlock: XIVTED_clean_linker_0, # of connection points: 2
#     Edge 20, Type (0, 0), BuildingBlock: XIVTED_clean_linker_0, # of connection points: 2
#     Edge 21, Type (0, 0), BuildingBlock: XIVTED_clean_linker_0, # of connection points: 2
#     Edge 22, Type (0, 0), BuildingBlock: XIVTED_clean_linker_0, # of connection points: 2
#     Edge 23, Type (0, 0), BuildingBlock: XIVTED_clean_linker_0, # of connection points: 2
#     Edge 24, Type (0, 0), BuildingBlock: XIVTED_clean_linker_0, # of connection points: 2
#     Edge 25, Type (0, 0), BuildingBlock: XIVTED_clean_linker_0, # of connection points: 2
#     Edge 26, Type (0, 0), BuildingBlock: XIVTED_clean_linker_0, # of connection points: 2
#     Edge 27, Type (0, 0), BuildingBlock: XIVTED_clean_linker_0, # of connection points: 2
#     Edge 28, Type (0, 0), BuildingBlock: XIVTED_clean_linker_0, # of connection points: 2
#     Edge 29, Type (0, 0), BuildingBlock: XIVTED_clean_linker_0, # of connection points: 2
#     Edge 30, Type (0, 0), BuildingBlock: XIVTED_clean_linker_0, # of connection points: 2
#     Edge 31, Type (0, 0), BuildingBlock: XIVTED_clean_linker_0, # of connection points: 2
#     Edge 32, Type (0, 0), BuildingBlock: XIVTED_clean_linker_0, # of connection points: 2
#     Edge 33, Type (0, 0), BuildingBlock: XIVTED_clean_linker_0, # of connection points: 2
#     Edge 34, Type (0, 0), BuildingBlock: XIVTED_clean_linker_0, # of connection points: 2
#     Edge 35, Type (0, 0), BuildingBlock: XIVTED_clean_linker_0, # of connection points: 2
# Relax obj value: 0.059
# Max RMSD: 0.148
# Mean RMSD: 0.147
data_MOF--net-umg--node1-ICAMEG_clean_sbu_1--edge1-XIVTED_clean_linker_0
_symmetry_space_group_name_H-M    P1
_symmetry_Int_Tables_number       1
_symmetry_cell_setting            triclinic
loop_
_symmetry_equiv_pos_as_xyz
'x, y, z'
_cell_length_a     30.64654
_cell_length_b     30.662799
_cell_length_c     92.286204
_cell_angle_alpha  90.000315
_cell_angle_beta   89.991375
_cell_angle_gamma 120.02692
loop_
_atom_site_label
_atom_site_type_symbol
_atom_site_fract_x
_atom_site_fract_y
_atom_site_fract_z
_atom_type_partial_charge
Co0 Co 0.2825 0.62373 0.08035 0.0
Co1 Co 0.24735 0.50384 0.0922 0.0
O2 O 0.28552 0.56185 0.07968 0.0
C3 C 0.25583 0.58607 0.05065 0.0
O4 O 0.22314 0.54322 0.05668 0.0
C5 C 0.35291 0.53274 0.09656 0.0
O6 O 0.36134 0.57882 0.09825 0.0
O7 O 0.26823 0.54727 0.10962 0.0
O8 O 0.28227 0.62313 0.10214 0.0
H9 H 0.12908 0.40662 0.1328 0.0
H10 H 0.3621 0.61985 0.06302 0.0
O11 O 0.28267 0.62444 0.05857 0.0
H12 H 0.45281 0.75442 0.09902 0.0
H13 H 0.32887 0.79763 0.06338 0.0
H14 H 0.22634 0.66085 0.09773 0.0
H15 H 0.35989 0.70803 0.09821 0.0
H16 H 0.33226 0.71889 0.06327 0.0
O17 O 0.30843 0.49673 0.0941 0.0
H18 H 0.17615 0.47977 0.11668 0.0
H19 H 0.24048 0.40375 0.0947 0.0
H20 H 0.2221 0.73911 0.0983 0.0
H21 H 0.45503 0.66554 0.06339 0.0
H22 H 0.27364 0.80816 0.08103 0.0
H23 H 0.501 0.73325 0.08152 0.0
O24 O 0.20757 0.58531 0.08028 0.0
H25 H 0.2752 0.4434 0.04434 0.0
H26 H 0.14884 0.4221 0.08099 0.0
H27 H 0.1215 0.37006 0.05884 0.0
H28 H 0.18492 0.38059 0.04033 0.0
H29 H 0.30085 0.49487 0.06659 0.0
H30 H 0.19441 0.32988 0.11065 0.0
H31 H 0.13807 0.33097 0.12983 0.0
O32 O 0.18609 0.51064 0.09064 0.0
C33 C 0.27834 0.59228 0.11208 0.0
C34 C 0.15333 0.40559 0.12444 0.0
C35 C 0.19005 0.36255 0.11202 0.0
N36 N 0.21051 0.44575 0.10466 0.0
C37 C 0.17991 0.44682 0.11525 0.0
C38 C 0.21608 0.40449 0.10304 0.0
C39 C 0.15844 0.36319 0.12278 0.0
C40 C 0.38183 0.64964 0.07084 0.0
N41 N 0.3556 0.66145 0.08052 0.0
C42 C 0.43446 0.67523 0.07104 0.0
C43 C 0.46022 0.71316 0.08123 0.0
C44 C 0.43321 0.72503 0.09106 0.0
C45 C 0.3806 0.69858 0.09056 0.0
C46 C 0.30631 0.76785 0.07097 0.0
C47 C 0.2491 0.69088 0.09025 0.0
C48 C 0.308 0.72316 0.07094 0.0
N49 N 0.27984 0.68555 0.08057 0.0
C50 C 0.24643 0.73503 0.09059 0.0
C51 C 0.27532 0.77374 0.08089 0.0
C52 C 0.17523 0.54255 0.08542 0.0
C53 C 0.24725 0.43832 0.05235 0.0
C54 C 0.17666 0.42686 0.07298 0.0
C55 C 0.16096 0.39725 0.06048 0.0
C56 C 0.19657 0.40315 0.0501 0.0
N57 N 0.22644 0.46127 0.07511 0.0
C58 C 0.26158 0.4672 0.065 0.0
Co59 Co 0.66236 0.2863 0.41379 0.0
Co60 Co 0.74404 0.24644 0.42527 0.0
O61 O 0.72679 0.28813 0.41344 0.0
C62 C 0.67579 0.26202 0.38405 0.0
O63 O 0.68577 0.22916 0.39002 0.0
C64 C 0.81945 0.35071 0.43238 0.0
O65 O 0.78145 0.35879 0.43376 0.0
O66 O 0.71685 0.26143 0.44293 0.0
O67 O 0.66101 0.28409 0.43548 0.0
H68 H 0.71331 0.11476 0.46258 0.0
H69 H 0.74828 0.36622 0.39722 0.0
O70 O 0.66349 0.28818 0.39201 0.0
H71 H 0.70416 0.45592 0.43349 0.0
H72 H 0.5387 0.33741 0.39646 0.0
H73 H 0.56737 0.23027 0.4305 0.0
H74 H 0.65591 0.36318 0.43198 0.0
H75 H 0.62006 0.3391 0.39678 0.0
O76 O 0.81153 0.30692 0.42916 0.0
H77 H 0.69087 0.16674 0.44735 0.0
H78 H 0.83721 0.23982 0.4287 0.0
H79 H 0.48559 0.22766 0.43063 0.0
H80 H 0.79731 0.459 0.3983 0.0
H81 H 0.47087 0.28151 0.41352 0.0
H82 H 0.77543 0.50445 0.41657 0.0
O83 O 0.62423 0.21139 0.41331 0.0
H84 H 0.84371 0.29038 0.37901 0.0
H85 H 0.73203 0.15249 0.41189 0.0
H86 H 0.76265 0.13284 0.38948 0.0
H87 H 0.81889 0.2021 0.37286 0.0
H88 H 0.81195 0.30829 0.40148 0.0
H89 H 0.8614 0.18892 0.44381 0.0
H90 H 0.79913 0.1257 0.46086 0.0
O91 O 0.67678 0.18574 0.42159 0.0
C92 C 0.68404 0.27451 0.44542 0.0
C93 C 0.74071 0.14205 0.45516 0.0
C94 C 0.82385 0.18372 0.44464 0.0
N95 N 0.76255 0.20591 0.43706 0.0
C96 C 0.72817 0.17147 0.44647 0.0
C97 C 0.80998 0.21249 0.43613 0.0
C98 C 0.78889 0.14825 0.4542 0.0
C99 C 0.73817 0.38575 0.4051 0.0
N100 N 0.69906 0.35933 0.41446 0.0
C101 C 0.76622 0.43828 0.4057 0.0
C102 C 0.75397 0.46375 0.41597 0.0
C103 C 0.714 0.43655 0.42547 0.0
C104 C 0.68686 0.38404 0.42457 0.0
C105 C 0.5447 0.31384 0.40399 0.0
C106 C 0.56134 0.25405 0.42309 0.0
C107 C 0.59063 0.31457 0.4042 0.0
N108 N 0.59854 0.28512 0.41373 0.0
C109 C 0.51491 0.2523 0.42318 0.0
C110 C 0.50666 0.28248 0.41357 0.0
C111 C 0.63384 0.17697 0.41699 0.0
C112 C 0.81936 0.2599 0.38619 0.0
C113 C 0.75648 0.1828 0.40471 0.0
C114 C 0.77377 0.17147 0.39205 0.0
C115 C 0.80535 0.21035 0.38273 0.0
N116 N 0.77036 0.2315 0.40802 0.0
C117 C 0.80143 0.26983 0.39896 0.0
Co118 Co 0.37289 0.66468 0.74738 0.0
Co119 Co 0.49467 0.74742 0.75854 0.0
O120 O 0.4353 0.72928 0.74678 0.0
C121 C 0.41001 0.67647 0.71759 0.0
O122 O 0.45315 0.68728 0.72354 0.0
C123 C 0.46517 0.82228 0.76552 0.0
O124 O 0.41915 0.78417 0.76692 0.0
O125 O 0.45296 0.72059 0.77631 0.0
O126 O 0.37417 0.66464 0.76908 0.0
H127 H 0.59723 0.719 0.79586 0.0
H128 H 0.37801 0.74929 0.73037 0.0
O129 O 0.37168 0.66449 0.72559 0.0
H130 H 0.24449 0.70642 0.76668 0.0
H131 H 0.19794 0.53924 0.73054 0.0
H132 H 0.33472 0.57085 0.76459 0.0
H133 H 0.28957 0.65869 0.76551 0.0
H134 H 0.27739 0.62083 0.73049 0.0
O135 O 0.50119 0.81462 0.76229 0.0
H136 H 0.5223 0.69548 0.78072 0.0
H137 H 0.59421 0.84113 0.76169 0.0
H138 H 0.25578 0.48887 0.76509 0.0
H139 H 0.33368 0.79777 0.73111 0.0
H140 H 0.18671 0.47267 0.74797 0.0
H141 H 0.26649 0.77652 0.7494 0.0
O142 O 0.41009 0.62693 0.74713 0.0
H143 H 0.54867 0.84553 0.712 0.0
H144 H 0.57694 0.73591 0.74514 0.0
H145 H 0.62667 0.76611 0.72263 0.0
H146 H 0.61262 0.82131 0.70587 0.0
H147 H 0.49955 0.8142 0.73459 0.0
H148 H 0.66979 0.86639 0.7767 0.0
H149 H 0.67166 0.80501 0.79389 0.0
O150 O 0.48862 0.68048 0.75502 0.0
C151 C 0.40707 0.68803 0.77894 0.0
C152 C 0.59694 0.74602 0.78837 0.0
C153 C 0.63763 0.82877 0.77763 0.0
N154 N 0.55411 0.76676 0.77025 0.0
C155 C 0.55469 0.73286 0.77974 0.0
C156 C 0.59472 0.81429 0.76918 0.0
C157 C 0.63866 0.7943 0.78727 0.0
C158 C 0.34845 0.73946 0.73825 0.0
N159 N 0.33616 0.70099 0.74782 0.0
C160 C 0.32363 0.7672 0.73866 0.0
C161 C 0.28599 0.7553 0.74894 0.0
C162 C 0.27365 0.71599 0.75865 0.0
C163 C 0.29934 0.68914 0.75794 0.0
C164 C 0.22772 0.54589 0.73807 0.0
C165 C 0.3047 0.56417 0.75717 0.0
C166 C 0.27281 0.59195 0.73807 0.0
N167 N 0.31044 0.60067 0.7476 0.0
C168 C 0.26015 0.51764 0.75747 0.0
C169 C 0.22144 0.50856 0.74786 0.0
C170 C 0.45448 0.63719 0.75067 0.0
C171 C 0.55524 0.82162 0.71924 0.0
C172 C 0.57061 0.75989 0.7379 0.0
C173 C 0.59893 0.77695 0.72518 0.0
C174 C 0.59106 0.80796 0.71579 0.0
N175 N 0.53552 0.77344 0.7412 0.0
C176 C 0.52769 0.80394 0.73207 0.0
Co177 Co 0.70624 0.36895 0.08039 0.0
Co178 Co 0.74248 0.48918 0.09219 0.0
O179 O 0.70373 0.4311 0.07975 0.0
C180 C 0.73292 0.40654 0.05071 0.0
O181 O 0.76568 0.44935 0.05673 0.0
C182 C 0.63714 0.46066 0.09683 0.0
O183 O 0.62862 0.41456 0.09852 0.0
O184 O 0.72202 0.4459 0.10965 0.0
O185 O 0.7067 0.36961 0.10217 0.0
H186 H 0.86219 0.58641 0.13251 0.0
H187 H 0.62685 0.37347 0.06315 0.0
O188 O 0.70592 0.36821 0.05863 0.0
H189 H 0.53574 0.23919 0.09922 0.0
H190 H 0.65847 0.19469 0.06342 0.0
H191 H 0.76207 0.33128 0.0977 0.0
H192 H 0.62864 0.28498 0.09831 0.0
H193 H 0.65572 0.27377 0.06335 0.0
O194 O 0.68161 0.49656 0.09429 0.0
H195 H 0.81446 0.51321 0.11646 0.0
H196 H 0.7498 0.58944 0.09477 0.0
H197 H 0.76567 0.25267 0.09824 0.0
H198 H 0.53393 0.3284 0.06361 0.0
H199 H 0.71359 0.18371 0.08101 0.0
H200 H 0.48776 0.26084 0.08178 0.0
O201 O 0.78116 0.40691 0.08024 0.0
H202 H 0.71341 0.54945 0.04448 0.0
H203 H 0.84075 0.57062 0.08075 0.0
H204 H 0.86754 0.62248 0.05857 0.0
H205 H 0.80362 0.61202 0.04025 0.0
H206 H 0.68831 0.49814 0.06676 0.0
H207 H 0.79654 0.66337 0.11066 0.0
H208 H 0.85338 0.66219 0.12965 0.0
O209 O 0.80355 0.48209 0.09042 0.0
C210 C 0.71136 0.40073 0.11212 0.0
C211 C 0.83773 0.58747 0.12423 0.0
C212 C 0.80083 0.63064 0.11198 0.0
N213 N 0.77989 0.54733 0.10459 0.0
C214 C 0.81077 0.54622 0.11508 0.0
C215 C 0.77443 0.58867 0.10303 0.0
C216 C 0.83272 0.62995 0.12263 0.0
C217 C 0.60702 0.34374 0.07098 0.0
N218 N 0.63314 0.33167 0.08064 0.0
C219 C 0.55441 0.31851 0.07124 0.0
C220 C 0.52853 0.28066 0.08145 0.0
C221 C 0.55543 0.26852 0.09124 0.0
C222 C 0.60803 0.29462 0.09069 0.0
C223 C 0.68126 0.22442 0.071 0.0
C224 C 0.73907 0.30128 0.09023 0.0
C225 C 0.67994 0.2693 0.07099 0.0
N226 N 0.7084 0.30686 0.08059 0.0
C227 C 0.74138 0.25694 0.09056 0.0
C228 C 0.71218 0.21828 0.08088 0.0
C229 C 0.81391 0.44979 0.08521 0.0
C230 C 0.74158 0.55449 0.05241 0.0
C231 C 0.81272 0.56588 0.07283 0.0
C232 C 0.8281 0.59539 0.0603 0.0
C233 C 0.79222 0.58953 0.05003 0.0
N234 N 0.76298 0.53161 0.07508 0.0
C235 C 0.72756 0.52572 0.06508 0.0
Co236 Co 0.32922 0.70663 0.41405 0.0
Co237 Co 0.24754 0.74655 0.4255 0.0
O238 O 0.2648 0.70482 0.41369 0.0
C239 C 0.31588 0.73093 0.3843 0.0
O240 O 0.30581 0.76373 0.39027 0.0
C241 C 0.17212 0.64229 0.43264 0.0
O242 O 0.21011 0.63421 0.43403 0.0
O243 O 0.27474 0.73163 0.44318 0.0
O244 O 0.33056 0.7089 0.43575 0.0
H245 H 0.27826 0.87835 0.46277 0.0
H246 H 0.24332 0.6267 0.39749 0.0
O247 O 0.32812 0.70473 0.39226 0.0
H248 H 0.28733 0.53703 0.43379 0.0
H249 H 0.45285 0.65545 0.39674 0.0
H250 H 0.4242 0.76269 0.43075 0.0
H251 H 0.33561 0.62978 0.43226 0.0
H252 H 0.3715 0.65378 0.39706 0.0
O253 O 0.18006 0.68608 0.42941 0.0
H254 H 0.30071 0.82632 0.44756 0.0
H255 H 0.15437 0.75316 0.42893 0.0
H256 H 0.50597 0.76529 0.43089 0.0
H257 H 0.19425 0.53393 0.39859 0.0
H258 H 0.52069 0.71138 0.41379 0.0
H259 H 0.21608 0.48849 0.41687 0.0
O260 O 0.36736 0.78154 0.41355 0.0
H261 H 0.14786 0.70245 0.37925 0.0
H262 H 0.25954 0.84045 0.4121 0.0
H263 H 0.22891 0.86003 0.38968 0.0
H264 H 0.17267 0.79071 0.37308 0.0
H265 H 0.17963 0.68462 0.40173 0.0
H266 H 0.13017 0.8041 0.44402 0.0
H267 H 0.19243 0.86737 0.46105 0.0
O268 O 0.31481 0.80724 0.4218 0.0
C269 C 0.30755 0.71856 0.44568 0.0
C270 C 0.25086 0.85103 0.45536 0.0
C271 C 0.16772 0.80931 0.44485 0.0
N272 N 0.22903 0.78712 0.43728 0.0
C273 C 0.26341 0.82159 0.44668 0.0
C274 C 0.18159 0.78052 0.43635 0.0
C275 C 0.20268 0.84482 0.4544 0.0
C276 C 0.2534 0.60718 0.40537 0.0
N277 N 0.2925 0.6336 0.41473 0.0
C278 C 0.22533 0.55465 0.40599 0.0
C279 C 0.23755 0.52919 0.41626 0.0
C280 C 0.27751 0.5564 0.42576 0.0
C281 C 0.30467 0.60891 0.42485 0.0
C282 C 0.44686 0.67904 0.40426 0.0
C283 C 0.43023 0.73888 0.42335 0.0
C284 C 0.40093 0.67832 0.40447 0.0
N285 N 0.39303 0.7078 0.414 0.0
C286 C 0.47665 0.74063 0.42345 0.0
C287 C 0.4849 0.71041 0.41384 0.0
C288 C 0.35775 0.81599 0.41722 0.0
C289 C 0.17221 0.73295 0.38642 0.0
C290 C 0.2351 0.81011 0.40492 0.0
C291 C 0.2178 0.82141 0.39226 0.0
C292 C 0.18621 0.7825 0.38295 0.0
N293 N 0.22122 0.76143 0.40825 0.0
C294 C 0.19015 0.72307 0.3992 0.0
Co295 Co 0.61712 0.33132 0.74689 0.0
Co296 Co 0.49584 0.24884 0.75851 0.0
O297 O 0.55464 0.26674 0.7465 0.0
C298 C 0.57865 0.31917 0.71727 0.0
O299 O 0.53576 0.30839 0.72338 0.0
C300 C 0.52561 0.17406 0.76532 0.0
O301 O 0.57171 0.21218 0.76653 0.0
O302 O 0.53839 0.27595 0.77612 0.0
O303 O 0.61686 0.33165 0.76858 0.0
H304 H 0.39506 0.278 0.79628 0.0
H305 H 0.6111 0.24643 0.72981 0.0
O306 O 0.61732 0.33124 0.72511 0.0
H307 H 0.74627 0.28966 0.76558 0.0
H308 H 0.79133 0.45641 0.72942 0.0
H309 H 0.65615 0.42538 0.76403 0.0
H310 H 0.70124 0.33747 0.76465 0.0
H311 H 0.71183 0.37487 0.72963 0.0
O312 O 0.48945 0.18168 0.76225 0.0
H313 H 0.46928 0.3012 0.78084 0.0
H314 H 0.39643 0.15522 0.76203 0.0
H315 H 0.73517 0.50731 0.76428 0.0
H316 H 0.65537 0.19786 0.73031 0.0
H317 H 0.80343 0.52322 0.74688 0.0
H318 H 0.72338 0.2193 0.74832 0.0
O319 O 0.57997 0.36912 0.74685 0.0
H320 H 0.43975 0.1501 0.71212 0.0
H321 H 0.41299 0.26018 0.74548 0.0
H322 H 0.3623 0.22974 0.72314 0.0
H323 H 0.3756 0.17431 0.70627 0.0
H324 H 0.48982 0.18166 0.73453 0.0
H325 H 0.32156 0.13027 0.77734 0.0
H326 H 0.32051 0.19197 0.79457 0.0
O327 O 0.50177 0.31574 0.75501 0.0
C328 C 0.58444 0.30848 0.77857 0.0
C329 C 0.395 0.25084 0.78877 0.0
C330 C 0.35377 0.1679 0.77816 0.0
N331 N 0.43696 0.22974 0.77046 0.0
C332 C 0.43684 0.26381 0.77998 0.0
C333 C 0.39628 0.1822 0.76954 0.0
C334 C 0.3532 0.20255 0.78782 0.0
C335 C 0.64102 0.25634 0.73758 0.0
N336 N 0.6538 0.29496 0.74712 0.0
C337 C 0.6658 0.22855 0.73785 0.0
C338 C 0.7039 0.24055 0.74797 0.0
C339 C 0.71675 0.28001 0.75767 0.0
C340 C 0.69108 0.30691 0.7571 0.0
C341 C 0.76191 0.44989 0.73707 0.0
C342 C 0.68583 0.43193 0.75649 0.0
C343 C 0.71679 0.40386 0.73722 0.0
N344 N 0.67961 0.3953 0.74691 0.0
C345 C 0.73041 0.47844 0.75665 0.0
C346 C 0.76868 0.48736 0.74688 0.0
C347 C 0.53574 0.35895 0.75056 0.0
C348 C 0.4335 0.1741 0.7194 0.0
C349 C 0.41898 0.23609 0.7382 0.0
C350 C 0.39012 0.2189 0.72557 0.0
C351 C 0.39757 0.18777 0.71612 0.0
N352 N 0.45418 0.22256 0.74133 0.0
C353 C 0.46159 0.19192 0.73214 0.0
Co354 Co 0.3735 0.70962 0.58101 0.0
Co355 Co 0.49455 0.74743 0.5694 0.0
O356 O 0.43558 0.7068 0.58136 0.0
C357 C 0.41202 0.73506 0.61065 0.0
O358 O 0.45492 0.76712 0.60453 0.0
C359 C 0.46399 0.64259 0.56255 0.0
O360 O 0.41809 0.63508 0.56125 0.0
O361 O 0.45213 0.73244 0.55179 0.0
O362 O 0.37391 0.71086 0.5593 0.0
H363 H 0.59626 0.87727 0.53171 0.0
H364 H 0.37848 0.62978 0.59789 0.0
O365 O 0.37323 0.70877 0.60281 0.0
H366 H 0.24347 0.53979 0.56194 0.0
H367 H 0.19963 0.66158 0.59853 0.0
H368 H 0.33539 0.76588 0.56408 0.0
H369 H 0.28916 0.63262 0.56311 0.0
H370 H 0.27867 0.65868 0.59822 0.0
O371 O 0.50036 0.68625 0.56566 0.0
H372 H 0.52183 0.82659 0.5471 0.0
H373 H 0.59357 0.75237 0.56592 0.0
H374 H 0.25685 0.76968 0.56393 0.0
H375 H 0.33356 0.53693 0.59715 0.0
H376 H 0.1883 0.71725 0.58125 0.0
H377 H 0.26563 0.49133 0.57904 0.0
O378 O 0.41126 0.78456 0.5812 0.0
H379 H 0.54982 0.70382 0.61578 0.0
H380 H 0.57777 0.84125 0.58249 0.0
H381 H 0.62834 0.86101 0.60484 0.0
H382 H 0.61445 0.79198 0.62167 0.0
H383 H 0.49989 0.68581 0.59336 0.0
H384 H 0.66864 0.80195 0.55065 0.0
H385 H 0.67036 0.86508 0.53343 0.0
O386 O 0.4892 0.80883 0.57292 0.0
C387 C 0.4063 0.71977 0.54933 0.0
C388 C 0.59604 0.85001 0.5392 0.0
C389 C 0.63664 0.80769 0.54982 0.0
N390 N 0.55359 0.78693 0.55748 0.0
C391 C 0.55407 0.82133 0.54798 0.0
C392 C 0.59401 0.77966 0.55842 0.0
C393 C 0.63758 0.84311 0.54017 0.0
C394 C 0.34859 0.61019 0.59008 0.0
N395 N 0.33623 0.63657 0.58062 0.0
C396 C 0.32344 0.55762 0.58967 0.0
C397 C 0.28538 0.53206 0.57949 0.0
C398 C 0.27295 0.55923 0.56989 0.0
C399 C 0.29899 0.61178 0.57059 0.0
C400 C 0.22919 0.68453 0.59091 0.0
C401 C 0.30558 0.74272 0.57158 0.0
C402 C 0.27404 0.68311 0.59071 0.0
N403 N 0.31137 0.71178 0.58106 0.0
C404 C 0.26127 0.74514 0.57148 0.0
C405 C 0.22285 0.71576 0.58121 0.0
C406 C 0.45552 0.8184 0.57744 0.0
C407 C 0.55633 0.73419 0.60851 0.0
C408 C 0.57152 0.81104 0.58976 0.0
C409 C 0.60032 0.82243 0.60239 0.0
C410 C 0.59253 0.78368 0.61182 0.0
N411 N 0.53607 0.76241 0.58659 0.0
C412 C 0.52832 0.7242 0.59577 0.0
Co413 Co 0.65735 0.37024 0.91456 0.0
Co414 Co 0.73997 0.48952 0.90179 0.0
O415 O 0.7222 0.43239 0.9145 0.0
C416 C 0.67203 0.40954 0.94412 0.0
O417 O 0.68166 0.45208 0.93801 0.0
C418 C 0.81712 0.46172 0.89663 0.0
O419 O 0.77974 0.41531 0.89522 0.0
O420 O 0.7155 0.4449 0.88462 0.0
O421 O 0.65464 0.36957 0.8928 0.0
H422 H 0.7127 0.58323 0.86141 0.0
H423 H 0.7434 0.37567 0.93086 0.0
O424 O 0.6597 0.37077 0.93631 0.0
H425 H 0.69526 0.23921 0.89524 0.0
H426 H 0.53285 0.19704 0.93282 0.0
H427 H 0.56156 0.33167 0.8983 0.0
H428 H 0.64846 0.28518 0.89667 0.0
H429 H 0.61478 0.27605 0.93202 0.0
O430 O 0.80823 0.49734 0.89919 0.0
H431 H 0.68929 0.51128 0.8778 0.0
H432 H 0.83228 0.58996 0.89832 0.0
H433 H 0.4792 0.2531 0.89864 0.0
H434 H 0.79099 0.33044 0.92986 0.0
H435 H 0.46447 0.18513 0.91599 0.0
H436 H 0.76708 0.26177 0.91192 0.0
O437 O 0.62054 0.40827 0.91513 0.0
H438 H 0.83419 0.55371 0.94868 0.0
H439 H 0.72373 0.57135 0.91317 0.0
H440 H 0.75085 0.6248 0.93504 0.0
H441 H 0.80645 0.61611 0.95298 0.0
H442 H 0.80591 0.50079 0.92672 0.0
H443 H 0.85744 0.66266 0.88208 0.0
H444 H 0.79733 0.65963 0.8635 0.0
O445 O 0.67185 0.48214 0.90408 0.0
C446 C 0.68018 0.39973 0.88256 0.0
C447 C 0.73913 0.5851 0.86951 0.0
C448 C 0.8204 0.62965 0.88109 0.0
N449 N 0.75915 0.5467 0.88911 0.0
C450 C 0.72601 0.54456 0.87885 0.0
C451 C 0.80597 0.58837 0.89025 0.0
C452 C 0.78665 0.62793 0.87067 0.0
C453 C 0.73242 0.34547 0.92313 0.0
N454 N 0.69302 0.33289 0.9139 0.0
C455 C 0.75965 0.32015 0.92257 0.0
C456 C 0.74627 0.28168 0.91248 0.0
C457 C 0.706 0.26902 0.90311 0.0
C458 C 0.67969 0.29524 0.90396 0.0
C459 C 0.53885 0.22634 0.92519 0.0
C460 C 0.5555 0.3021 0.90582 0.0
C461 C 0.5851 0.27118 0.92471 0.0
N462 N 0.59301 0.30819 0.91504 0.0
C463 C 0.50876 0.25778 0.90599 0.0
C464 C 0.5005 0.21967 0.91574 0.0
C465 C 0.62996 0.45052 0.90985 0.0
C466 C 0.81012 0.55798 0.94091 0.0
C467 C 0.74796 0.56738 0.92093 0.0
C468 C 0.76324 0.59779 0.93328 0.0
C469 C 0.79447 0.59292 0.94333 0.0
N470 N 0.76347 0.5332 0.91863 0.0
C471 C 0.79419 0.52829 0.92843 0.0
Co472 Co 0.28487 0.65803 0.24787 0.0
Co473 Co 0.24785 0.7415 0.23615 0.0
O474 O 0.28683 0.72244 0.24859 0.0
C475 C 0.25763 0.66802 0.27757 0.0
O476 O 0.22468 0.67779 0.27154 0.0
C477 C 0.35289 0.81936 0.23171 0.0
O478 O 0.36213 0.78227 0.22996 0.0
O479 O 0.26906 0.7195 0.21867 0.0
O480 O 0.28452 0.65855 0.22608 0.0
H481 H 0.12859 0.71871 0.19567 0.0
H482 H 0.36375 0.74197 0.26522 0.0
O483 O 0.28504 0.65726 0.26964 0.0
H484 H 0.45588 0.70033 0.2291 0.0
H485 H 0.33381 0.53224 0.26467 0.0
H486 H 0.22974 0.56471 0.23043 0.0
H487 H 0.36296 0.65267 0.22993 0.0
H488 H 0.33586 0.61374 0.26485 0.0
O489 O 0.30818 0.8101 0.23421 0.0
H490 H 0.17659 0.69359 0.21172 0.0
H491 H 0.23931 0.8338 0.23373 0.0
H492 H 0.22685 0.48285 0.22978 0.0
H493 H 0.45666 0.79034 0.26485 0.0
H494 H 0.27917 0.46623 0.24699 0.0
H495 H 0.50334 0.76971 0.24666 0.0
O496 O 0.20994 0.62055 0.24797 0.0
H497 H 0.27504 0.8294 0.28404 0.0
H498 H 0.14897 0.72326 0.24748 0.0
H499 H 0.12126 0.74725 0.26969 0.0
H500 H 0.18453 0.80068 0.28815 0.0
H501 H 0.30106 0.80427 0.26173 0.0
H502 H 0.19229 0.86063 0.21784 0.0
H503 H 0.13629 0.80279 0.19869 0.0
O504 O 0.18728 0.67305 0.23776 0.0
C505 C 0.27988 0.68512 0.21616 0.0
C506 C 0.15268 0.74415 0.20402 0.0
C507 C 0.18849 0.82384 0.21645 0.0
N508 N 0.2102 0.76195 0.22375 0.0
C509 C 0.17979 0.73006 0.21317 0.0
C510 C 0.21505 0.80847 0.2254 0.0
C511 C 0.15707 0.79136 0.20571 0.0
C512 C 0.3838 0.7324 0.25738 0.0
N513 N 0.35797 0.69435 0.24767 0.0
C514 C 0.43641 0.76008 0.25717 0.0
C515 C 0.46257 0.74854 0.24695 0.0
C516 C 0.43596 0.70963 0.23709 0.0
C517 C 0.38336 0.68283 0.23759 0.0
C518 C 0.31092 0.53908 0.25709 0.0
C519 C 0.25284 0.55783 0.23789 0.0
C520 C 0.31184 0.58508 0.25717 0.0
N521 N 0.28326 0.59405 0.24758 0.0
C522 C 0.25093 0.51138 0.2375 0.0
C523 C 0.28026 0.50206 0.24717 0.0
C524 C 0.17711 0.63044 0.24293 0.0
C525 C 0.24715 0.80628 0.27605 0.0
C526 C 0.17672 0.74655 0.25546 0.0
C527 C 0.16082 0.76006 0.26801 0.0
C528 C 0.19634 0.79007 0.27836 0.0
N529 N 0.22662 0.7626 0.25328 0.0
C530 C 0.26168 0.79212 0.26336 0.0
Co531 Co 0.62027 0.28739 0.58068 0.0
Co532 Co 0.49905 0.24947 0.56924 0.0
O533 O 0.55823 0.29029 0.58109 0.0
C534 C 0.58239 0.26274 0.6104 0.0
O535 O 0.53932 0.23051 0.60439 0.0
C536 C 0.52954 0.35422 0.56226 0.0
O537 O 0.5754 0.36168 0.56087 0.0
O538 O 0.54115 0.26412 0.55157 0.0
O539 O 0.61942 0.2856 0.55899 0.0
H540 H 0.39661 0.119 0.53178 0.0
H541 H 0.61574 0.3677 0.59744 0.0
O542 O 0.62099 0.28878 0.60247 0.0
H543 H 0.75005 0.45669 0.56122 0.0
H544 H 0.79444 0.33568 0.59795 0.0
H545 H 0.65794 0.23061 0.56381 0.0
H546 H 0.70428 0.36389 0.56258 0.0
H547 H 0.71545 0.33867 0.59772 0.0
O548 O 0.49322 0.31061 0.56544 0.0
H549 H 0.47132 0.1699 0.54705 0.0
H550 H 0.40001 0.24455 0.56586 0.0
H551 H 0.73642 0.22671 0.56359 0.0
H552 H 0.66074 0.46052 0.59651 0.0
H553 H 0.80535 0.27953 0.58075 0.0
H554 H 0.72832 0.50563 0.57827 0.0
O555 O 0.58244 0.21245 0.58103 0.0
H556 H 0.4445 0.29398 0.6156 0.0
H557 H 0.41602 0.15591 0.58251 0.0
H558 H 0.36574 0.13659 0.60491 0.0
H559 H 0.37988 0.20594 0.62164 0.0
H560 H 0.49415 0.31155 0.59314 0.0
H561 H 0.32466 0.19475 0.55072 0.0
H562 H 0.32259 0.13129 0.53357 0.0
O563 O 0.50442 0.18811 0.57281 0.0
C564 C 0.5869 0.27658 0.54906 0.0
C565 C 0.39699 0.1464 0.53925 0.0
C566 C 0.35663 0.18897 0.54986 0.0
N567 N 0.4398 0.20979 0.55742 0.0
C568 C 0.43911 0.17521 0.54795 0.0
C569 C 0.39942 0.21712 0.55838 0.0
C570 C 0.35549 0.15336 0.54024 0.0
C571 C 0.64547 0.38706 0.58957 0.0
N572 N 0.6576 0.36042 0.58014 0.0
C573 C 0.67067 0.43963 0.58906 0.0
C574 C 0.70853 0.4649 0.5788 0.0
C575 C 0.72072 0.43747 0.56923 0.0
C576 C 0.69465 0.38494 0.57004 0.0
C577 C 0.76472 0.31257 0.5904 0.0
C578 C 0.68791 0.25394 0.57124 0.0
C579 C 0.7199 0.31403 0.59024 0.0
N580 N 0.68236 0.28515 0.58068 0.0
C581 C 0.73219 0.25146 0.5711 0.0
C582 C 0.77083 0.28106 0.58075 0.0
C583 C 0.53812 0.17857 0.57733 0.0
C584 C 0.43787 0.26346 0.60838 0.0
C585 C 0.42239 0.18626 0.58973 0.0
C586 C 0.39376 0.17512 0.60239 0.0
C587 C 0.40168 0.21404 0.61177 0.0
N588 N 0.45783 0.23482 0.58649 0.0
C589 C 0.46573 0.2732 0.59561 0.0
Co590 Co 0.333 0.62145 0.91455 0.0
Co591 Co 0.24945 0.50217 0.90201 0.0
O592 O 0.26797 0.5595 0.9147 0.0
C593 C 0.31905 0.58263 0.94418 0.0
O594 O 0.30932 0.54 0.93811 0.0
C595 C 0.1723 0.53014 0.89714 0.0
O596 O 0.20971 0.57651 0.89566 0.0
O597 O 0.27324 0.54655 0.88479 0.0
O598 O 0.33497 0.62174 0.89277 0.0
H599 H 0.27457 0.40771 0.86141 0.0
H600 H 0.24773 0.61682 0.93111 0.0
O601 O 0.33132 0.6213 0.93632 0.0
H602 H 0.29539 0.75281 0.89534 0.0
H603 H 0.45876 0.79472 0.93246 0.0
H604 H 0.42818 0.65932 0.89802 0.0
H605 H 0.34177 0.7064 0.89664 0.0
H606 H 0.37658 0.71594 0.9319 0.0
O607 O 0.18117 0.49449 0.89968 0.0
H608 H 0.29887 0.47994 0.87776 0.0
H609 H 0.15687 0.40176 0.89886 0.0
H610 H 0.51076 0.73763 0.89813 0.0
H611 H 0.20058 0.66251 0.93025 0.0
H612 H 0.52644 0.806 0.91544 0.0
H613 H 0.22424 0.73094 0.91224 0.0
O614 O 0.36952 0.58311 0.91502 0.0
H615 H 0.15738 0.43885 0.94925 0.0
H616 H 0.266 0.42037 0.91325 0.0
H617 H 0.23983 0.36728 0.93519 0.0
H618 H 0.18515 0.37639 0.95337 0.0
H619 H 0.1847 0.4914 0.92721 0.0
H620 H 0.13083 0.32879 0.88267 0.0
H621 H 0.18999 0.33142 0.86382 0.0
O622 O 0.31758 0.50939 0.90399 0.0
C623 C 0.30876 0.59154 0.88261 0.0
C624 C 0.24854 0.40601 0.86962 0.0
C625 C 0.16784 0.36174 0.88154 0.0
N626 N 0.22956 0.44478 0.88936 0.0
C627 C 0.26218 0.44671 0.87895 0.0
C628 C 0.18277 0.40318 0.89066 0.0
C629 C 0.20106 0.36324 0.87097 0.0
C630 C 0.2586 0.64691 0.92334 0.0
N631 N 0.29764 0.65912 0.91399 0.0
C632 C 0.23162 0.67249 0.92286 0.0
C633 C 0.24486 0.71083 0.91274 0.0
C634 C 0.28476 0.7231 0.90325 0.0
C635 C 0.31083 0.69664 0.90402 0.0
C636 C 0.45235 0.76525 0.92485 0.0
C637 C 0.43465 0.68905 0.90552 0.0
C638 C 0.40595 0.72054 0.9245 0.0
N639 N 0.39753 0.68332 0.91485 0.0
C640 C 0.48151 0.73323 0.90556 0.0
C641 C 0.4903 0.77156 0.91529 0.0
C642 C 0.35974 0.54085 0.90965 0.0
C643 C 0.18104 0.43439 0.94137 0.0
C644 C 0.24217 0.42452 0.92111 0.0
C645 C 0.22742 0.39431 0.9335 0.0
C646 C 0.19671 0.39941 0.94369 0.0
N647 N 0.22664 0.45873 0.91891 0.0
C648 C 0.19643 0.46387 0.92884 0.0
Co649 Co 0.70798 0.33663 0.24782 0.0
Co650 Co 0.74405 0.2525 0.23605 0.0
O651 O 0.70571 0.27208 0.2486 0.0
C652 C 0.73592 0.32709 0.27747 0.0
O653 O 0.76871 0.31718 0.2714 0.0
C654 C 0.63879 0.17473 0.23196 0.0
O655 O 0.62958 0.21186 0.23025 0.0
O656 O 0.72223 0.27412 0.21863 0.0
O657 O 0.70765 0.33564 0.22605 0.0
H658 H 0.86161 0.27385 0.19521 0.0
H659 H 0.6294 0.25325 0.26542 0.0
O660 O 0.70843 0.33785 0.26959 0.0
H661 H 0.53661 0.29469 0.22948 0.0
H662 H 0.66024 0.4633 0.26463 0.0
H663 H 0.76287 0.42953 0.2302 0.0
H664 H 0.62955 0.342 0.23005 0.0
H665 H 0.65784 0.38165 0.26489 0.0
O666 O 0.68353 0.18394 0.23434 0.0
H667 H 0.81436 0.29957 0.21138 0.0
H668 H 0.7522 0.15997 0.23369 0.0
H669 H 0.7661 0.51154 0.22947 0.0
H670 H 0.53647 0.20525 0.2653 0.0
H671 H 0.7145 0.52882 0.24678 0.0
H672 H 0.48946 0.22578 0.2472 0.0
O673 O 0.78292 0.37385 0.24773 0.0
H674 H 0.71856 0.16592 0.2841 0.0
H675 H 0.84329 0.2708 0.24708 0.0
H676 H 0.87178 0.24734 0.26923 0.0
H677 H 0.80919 0.19455 0.28793 0.0
H678 H 0.69176 0.19051 0.26184 0.0
H679 H 0.79848 0.13252 0.2177 0.0
H680 H 0.85382 0.18976 0.19834 0.0
O681 O 0.80478 0.32089 0.23741 0.0
C682 C 0.71165 0.30867 0.21613 0.0
C683 C 0.83781 0.24866 0.20366 0.0
C684 C 0.80231 0.16932 0.21627 0.0
N685 N 0.78107 0.23155 0.22356 0.0
C686 C 0.81112 0.26311 0.21287 0.0
C687 C 0.77617 0.18503 0.22527 0.0
C688 C 0.83336 0.20145 0.2054 0.0
C689 C 0.60921 0.26278 0.25761 0.0
N690 N 0.63487 0.30058 0.24781 0.0
C691 C 0.55659 0.23531 0.25755 0.0
C692 C 0.53024 0.24679 0.24738 0.0
C693 C 0.55667 0.28543 0.23743 0.0
C694 C 0.6093 0.31203 0.23779 0.0
C695 C 0.68282 0.45619 0.25702 0.0
C696 C 0.74009 0.43669 0.2377 0.0
C697 C 0.68169 0.41008 0.25713 0.0
N698 N 0.70988 0.40076 0.24749 0.0
C699 C 0.74218 0.48323 0.23727 0.0
C700 C 0.71326 0.49292 0.247 0.0
C701 C 0.81537 0.36367 0.24255 0.0
C702 C 0.74616 0.18876 0.27601 0.0
C703 C 0.81583 0.24778 0.25516 0.0
C704 C 0.83218 0.23457 0.26767 0.0
C705 C 0.79703 0.20492 0.27816 0.0
N706 N 0.76587 0.23178 0.25314 0.0
C707 C 0.73118 0.20261 0.26335 0.0
H708 H 0.27757 0.50352 0.96299 0.0
H709 H 0.31481 0.66889 0.03372 0.0
H710 H 0.34304 0.66511 0.96127 0.0
H711 H 0.21718 0.50755 0.03162 0.0
H712 H 0.33139 0.66951 0.00768 0.0
H713 H 0.26202 0.50553 0.98878 0.0
C714 C 0.28898 0.53954 0.96805 0.0
C715 C 0.3117 0.58425 0.95995 0.0
C716 C 0.30616 0.63409 0.01295 0.0
C717 C 0.29376 0.58675 0.98957 0.0
C718 C 0.29669 0.63369 0.02778 0.0
C719 C 0.26449 0.58811 0.03485 0.0
C720 C 0.28373 0.58854 0.0052 0.0
C721 C 0.2421 0.54362 0.02664 0.0
C722 C 0.27981 0.54061 0.98279 0.0
C723 C 0.32539 0.62974 0.96712 0.0
N724 N 0.25236 0.54495 0.0123 0.0
N725 N 0.31629 0.62986 0.98155 0.0
H726 H 0.71824 0.22564 0.3652 0.0
H727 H 0.6766 0.35033 0.29446 0.0
H728 H 0.65062 0.31982 0.36703 0.0
H729 H 0.77657 0.28934 0.29652 0.0
H730 H 0.6611 0.3352 0.32056 0.0
H731 H 0.73332 0.24322 0.33942 0.0
C732 C 0.70626 0.24983 0.36017 0.0
C733 C 0.68302 0.27123 0.36829 0.0
C734 C 0.68661 0.32544 0.31527 0.0
C735 C 0.70044 0.2917 0.33868 0.0
C736 C 0.69547 0.33404 0.3004 0.0
C737 C 0.72797 0.32112 0.2933 0.0
C738 C 0.70998 0.30328 0.32302 0.0
C739 C 0.75135 0.30006 0.30152 0.0
C740 C 0.71516 0.26008 0.34543 0.0
C741 C 0.66865 0.30256 0.36116 0.0
N742 N 0.74167 0.29157 0.3159 0.0
N743 N 0.67748 0.31178 0.34672 0.0
H744 H 0.32658 0.65098 0.7007 0.0
H745 H 0.49118 0.77352 0.62941 0.0
H746 H 0.48815 0.7161 0.69846 0.0
H747 H 0.32935 0.67809 0.62794 0.0
H748 H 0.48929 0.75818 0.6553 0.0
H749 H 0.32535 0.6649 0.67453 0.0
C750 C 0.36169 0.66798 0.69471 0.0
C751 C 0.40752 0.68229 0.70177 0.0
C752 C 0.45411 0.74055 0.64935 0.0
C753 C 0.40639 0.69871 0.67199 0.0
C754 C 0.45511 0.7495 0.63454 0.0
C755 C 0.41031 0.7271 0.62648 0.0
C756 C 0.40795 0.70916 0.65625 0.0
C757 C 0.36478 0.6961 0.63375 0.0
C758 C 0.36095 0.67587 0.6798 0.0
C759 C 0.45189 0.70423 0.6935 0.0
N760 N 0.36472 0.68808 0.64827 0.0
N761 N 0.4502 0.71194 0.67909 0.0
H762 H 0.67411 0.3237 0.03378 0.0
H763 H 0.71373 0.48885 0.96285 0.0
H764 H 0.77214 0.48499 0.03166 0.0
H765 H 0.64752 0.32715 0.96129 0.0
H766 H 0.72872 0.48696 0.98868 0.0
H767 H 0.65822 0.32301 0.0077 0.0
C768 C 0.69245 0.35887 0.02783 0.0
C769 C 0.72457 0.40446 0.0349 0.0
C770 C 0.7109 0.45184 0.98271 0.0
C771 C 0.70614 0.40395 0.00521 0.0
C772 C 0.70206 0.45284 0.96795 0.0
C773 C 0.67927 0.40805 0.95989 0.0
C774 C 0.69656 0.40569 0.98955 0.0
C775 C 0.66524 0.36257 0.96711 0.0
C776 C 0.68338 0.35843 0.01297 0.0
C777 C 0.74727 0.44892 0.02668 0.0
N778 N 0.67401 0.36251 0.98156 0.0
N779 N 0.73741 0.44755 0.01231 0.0
H780 H 0.31698 0.64471 0.29454 0.0
H781 H 0.27378 0.76764 0.36545 0.0
H782 H 0.21696 0.70562 0.29665 0.0
H783 H 0.34145 0.67349 0.36723 0.0
H784 H 0.25939 0.75074 0.33963 0.0
H785 H 0.33211 0.65932 0.32067 0.0
C786 C 0.29804 0.66089 0.30049 0.0
C787 C 0.26561 0.67391 0.2934 0.0
C788 C 0.2774 0.73373 0.34563 0.0
C789 C 0.28315 0.69115 0.32316 0.0
C790 C 0.28591 0.74358 0.36039 0.0
C791 C 0.30896 0.722 0.36852 0.0
C792 C 0.29234 0.70232 0.33885 0.0
C793 C 0.32354 0.69088 0.36136 0.0
C794 C 0.30668 0.66918 0.31539 0.0
C795 C 0.24213 0.69482 0.30164 0.0
N796 N 0.3151 0.68204 0.34689 0.0
N797 N 0.25158 0.70301 0.31604 0.0
H798 H 0.4998 0.27969 0.69838 0.0
H799 H 0.66554 0.3202 0.62743 0.0
H800 H 0.66141 0.34452 0.70009 0.0
H801 H 0.5037 0.2253 0.62933 0.0
H802 H 0.66626 0.33563 0.65356 0.0
H803 H 0.50204 0.26656 0.67247 0.0
C804 C 0.53589 0.29147 0.69329 0.0
C805 C 0.58053 0.31329 0.70143 0.0
C806 C 0.63071 0.31129 0.64822 0.0
C807 C 0.58328 0.29808 0.67165 0.0
C808 C 0.63025 0.30249 0.63333 0.0
C809 C 0.58451 0.2713 0.6262 0.0
C810 C 0.58506 0.28917 0.65594 0.0
C811 C 0.5399 0.2494 0.63436 0.0
C812 C 0.53709 0.28371 0.67848 0.0
C813 C 0.6261 0.32753 0.69422 0.0
N814 N 0.54132 0.25893 0.64876 0.0
N815 N 0.62634 0.31973 0.67971 0.0
H816 H 0.28233 0.73911 0.19224 0.0
H817 H 0.28234 0.54163 0.13601 0.0
H818 H 0.29184 0.60853 0.20502 0.0
H819 H 0.28936 0.68054 0.12317 0.0
H820 H 0.28838 0.56686 0.16127 0.0
H821 H 0.28753 0.71961 0.16695 0.0
C822 C 0.28575 0.70641 0.18976 0.0
C823 C 0.28628 0.67519 0.20083 0.0
C824 C 0.2889 0.59198 0.15294 0.0
C825 C 0.29208 0.65261 0.17176 0.0
C826 C 0.28536 0.57759 0.13847 0.0
C827 C 0.28498 0.60886 0.12739 0.0
C828 C 0.29178 0.63786 0.15644 0.0
C829 C 0.28933 0.65512 0.13132 0.0
C830 C 0.28879 0.69537 0.17527 0.0
C831 C 0.2911 0.63358 0.19688 0.0
N832 N 0.2922 0.66804 0.14552 0.0
N833 N 0.29344 0.62332 0.18266 0.0
H834 H 0.73322 0.27057 0.46974 0.0
H835 H 0.53409 0.27352 0.52475 0.0
H836 H 0.60791 0.28798 0.45609 0.0
H837 H 0.6758 0.28831 0.53836 0.0
H838 H 0.55933 0.27648 0.49956 0.0
H839 H 0.71153 0.27465 0.49493 0.0
C840 C 0.70119 0.27536 0.47201 0.0
C841 C 0.67223 0.27874 0.46073 0.0
C842 C 0.58501 0.27934 0.50805 0.0
C843 C 0.64715 0.28326 0.48963 0.0
C844 C 0.5706 0.27753 0.52247 0.0
C845 C 0.60278 0.28047 0.53374 0.0
C846 C 0.63176 0.28367 0.50483 0.0
C847 C 0.64971 0.28586 0.53006 0.0
C848 C 0.68894 0.27783 0.48642 0.0
C849 C 0.63131 0.28516 0.4644 0.0
N850 N 0.66263 0.28696 0.51592 0.0
N851 N 0.61982 0.2869 0.47853 0.0
H852 H 0.46225 0.73585 0.80315 0.0
H853 H 0.25436 0.54411 0.85835 0.0
H854 H 0.31605 0.61524 0.78985 0.0
H855 H 0.39003 0.67804 0.87207 0.0
H856 H 0.27649 0.56995 0.83323 0.0
H857 H 0.43672 0.71545 0.8284 0.0
C858 C 0.42471 0.70514 0.80551 0.0
C859 C 0.39134 0.67707 0.7943 0.0
C860 C 0.30131 0.59387 0.84173 0.0
C861 C 0.36198 0.65351 0.82329 0.0
C862 C 0.28876 0.57911 0.85611 0.0
C863 C 0.32054 0.6088 0.86739 0.0
C864 C 0.3462 0.63848 0.83852 0.0
C865 C 0.36443 0.6539 0.86375 0.0
C866 C 0.41015 0.69363 0.81996 0.0
C867 C 0.34313 0.63788 0.79809 0.0
N868 N 0.37614 0.66718 0.84962 0.0
N869 N 0.33004 0.62711 0.81226 0.0
H870 H 0.70825 0.45178 0.13606 0.0
H871 H 0.70814 0.25415 0.19222 0.0
H872 H 0.69975 0.31223 0.12319 0.0
H873 H 0.69974 0.38531 0.20503 0.0
H874 H 0.70233 0.2734 0.16694 0.0
H875 H 0.70247 0.42666 0.16132 0.0
C876 C 0.70496 0.4157 0.13851 0.0
C877 C 0.70486 0.38422 0.12743 0.0
C878 C 0.70144 0.29781 0.17528 0.0
C879 C 0.69837 0.35533 0.15646 0.0
C880 C 0.70483 0.28691 0.18975 0.0
C881 C 0.70481 0.31838 0.20082 0.0
C882 C 0.69832 0.34068 0.17178 0.0
C883 C 0.7001 0.36007 0.19689 0.0
C884 C 0.70156 0.40137 0.15298 0.0
C885 C 0.70017 0.33781 0.13134 0.0
N886 N 0.69742 0.37019 0.18268 0.0
N887 N 0.69747 0.32495 0.14555 0.0
H888 H 0.45876 0.72224 0.52501 0.0
H889 H 0.25843 0.72273 0.46999 0.0
H890 H 0.31712 0.70751 0.53867 0.0
H891 H 0.38389 0.70549 0.45639 0.0
H892 H 0.28047 0.71941 0.49519 0.0
H893 H 0.43306 0.71835 0.49983 0.0
C894 C 0.42218 0.71806 0.52274 0.0
C895 C 0.39014 0.7154 0.53402 0.0
C896 C 0.30301 0.71609 0.48669 0.0
C897 C 0.36063 0.71112 0.50512 0.0
C898 C 0.29056 0.71811 0.47228 0.0
C899 C 0.31947 0.71458 0.461 0.0
C900 C 0.34496 0.71096 0.48992 0.0
C901 C 0.36052 0.70841 0.46469 0.0
C902 C 0.4075 0.71571 0.50833 0.0
C903 C 0.3431 0.70975 0.53036 0.0
N904 N 0.37222 0.70712 0.47883 0.0
N905 N 0.32992 0.70812 0.51622 0.0
H906 H 0.59945 0.31216 0.87238 0.0
H907 H 0.67626 0.381 0.78905 0.0
H908 H 0.7327 0.44742 0.85806 0.0
H909 H 0.5305 0.26127 0.80301 0.0
H910 H 0.70153 0.40017 0.81439 0.0
H911 H 0.57775 0.28717 0.84705 0.0
C912 C 0.62432 0.33645 0.86395 0.0
C913 C 0.6678 0.38215 0.86738 0.0
C914 C 0.66406 0.36963 0.81189 0.0
C915 C 0.64316 0.35374 0.83839 0.0
C916 C 0.6496 0.35859 0.79742 0.0
C917 C 0.60103 0.31963 0.79385 0.0
C918 C 0.62987 0.3414 0.82292 0.0
C919 C 0.56822 0.29186 0.80521 0.0
C920 C 0.61182 0.32222 0.84948 0.0
C921 C 0.6986 0.41204 0.85596 0.0
N922 N 0.58322 0.30334 0.81922 0.0
N923 N 0.68562 0.39735 0.842 0.0
H924 H 0.86387 0.43361 0.06334 0.0
H925 H 0.10714 0.49783 0.10706 0.0
H926 H 0.88399 0.49622 0.10631 0.0
H927 H 0.12306 0.5562 0.06367 0.0
H928 H 0.01818 0.47556 0.10692 0.0
H929 H 0.95352 0.45755 0.06304 0.0
C930 C 0.88718 0.45213 0.07271 0.0
C931 C 0.86702 0.46317 0.08486 0.0
C932 C 0.04133 0.4932 0.09746 0.0
C933 C 0.96794 0.48924 0.08469 0.0
C934 C 0.09171 0.50566 0.0975 0.0
C935 C 0.12206 0.52895 0.08537 0.0
C936 C 0.02111 0.50268 0.08504 0.0
C937 C 0.10066 0.53859 0.07324 0.0
C938 C 0.93801 0.46592 0.07249 0.0
C939 C 0.89848 0.48742 0.09672 0.0
N940 N 0.05105 0.52481 0.0733 0.0
N941 N 0.94745 0.49914 0.09643 0.0
H942 H 0.53311 0.1413 0.41255 0.0
H943 H 0.45844 0.85161 0.41272 0.0
H944 H 0.64095 0.09151 0.41912 0.0
H945 H 0.35065 0.90147 0.41928 0.0
H946 H 0.52579 0.93949 0.41175 0.0
H947 H 0.46574 0.0534 0.41169 0.0
C948 C 0.54274 0.11197 0.41373 0.0
C949 C 0.59287 0.12392 0.41593 0.0
C950 C 0.48735 0.93111 0.41337 0.0
C951 C 0.51584 0.02325 0.41493 0.0
C952 C 0.44882 0.88095 0.41387 0.0
C953 C 0.3987 0.86903 0.41611 0.0
C954 C 0.47572 0.96968 0.41497 0.0
C955 C 0.38866 0.90877 0.41758 0.0
C956 C 0.5042 0.06181 0.41329 0.0
C957 C 0.60292 0.08419 0.41744 0.0
N958 N 0.42683 0.95731 0.41696 0.0
N959 N 0.56475 0.03564 0.41689 0.0
H960 H 0.44256 0.35029 0.75284 0.0
H961 H 0.54777 0.64593 0.75259 0.0
H962 H 0.59979 0.45995 0.74629 0.0
H963 H 0.39027 0.5361 0.74664 0.0
H964 H 0.5676 0.57825 0.75169 0.0
H965 H 0.4227 0.41795 0.75199 0.0
C966 C 0.47293 0.38852 0.75117 0.0
C967 C 0.52297 0.39938 0.74962 0.0
C968 C 0.52876 0.56904 0.7505 0.0
C969 C 0.50039 0.47704 0.74876 0.0
C970 C 0.51733 0.60765 0.75104 0.0
C971 C 0.46723 0.59675 0.74968 0.0
C972 C 0.48978 0.51907 0.74876 0.0
C973 C 0.42944 0.54634 0.74769 0.0
C974 C 0.46149 0.42712 0.75065 0.0
C975 C 0.56067 0.44974 0.74749 0.0
N976 N 0.44147 0.50933 0.74739 0.0
N977 N 0.54863 0.48675 0.74721 0.0
H978 H 0.44468 0.09417 0.57519 0.0
H979 H 0.54892 0.9028 0.57517 0.0
H980 H 0.60186 0.14125 0.58154 0.0
H981 H 0.3918 0.85575 0.58166 0.0
H982 H 0.56906 0.99048 0.57598 0.0
H983 H 0.42454 0.00649 0.57604 0.0
C984 C 0.47497 0.08616 0.57681 0.0
C985 C 0.52508 0.12526 0.5783 0.0
C986 C 0.53023 0.96093 0.57731 0.0
C987 C 0.50219 0.02486 0.57916 0.0
C988 C 0.51864 0.91082 0.57682 0.0
C989 C 0.46855 0.87173 0.57836 0.0
C990 C 0.49143 0.97213 0.57917 0.0
C991 C 0.43096 0.88457 0.58046 0.0
C992 C 0.46338 0.03604 0.57733 0.0
C993 C 0.56269 0.11243 0.58038 0.0
N994 N 0.44314 0.93367 0.58071 0.0
N995 N 0.5505 0.06332 0.58066 0.0
H996 H 0.38397 0.49664 0.8881 0.0
H997 H 0.56481 0.4351 0.93201 0.0
H998 H 0.42515 0.55457 0.93158 0.0
H999 H 0.605 0.4958 0.88877 0.0
H1000 H 0.49868 0.45843 0.93241 0.0
H1001 H 0.45097 0.47497 0.88837 0.0
C1002 C 0.40699 0.50448 0.89772 0.0
C1003 C 0.39947 0.52748 0.90983 0.0
C1004 C 0.52219 0.46656 0.92289 0.0
C1005 C 0.47465 0.50195 0.91029 0.0
C1006 C 0.55947 0.45311 0.92261 0.0
C1007 C 0.59014 0.46375 0.91034 0.0
C1008 C 0.51481 0.48913 0.91064 0.0
C1009 C 0.58219 0.48733 0.89845 0.0
C1010 C 0.44512 0.49236 0.89783 0.0
C1011 C 0.43028 0.53716 0.92202 0.0
N1012 N 0.54474 0.4987 0.8988 0.0
N1013 N 0.4664 0.52377 0.92202 0.0
H1014 H 0.12673 0.56416 0.26475 0.0
H1015 H 0.88304 0.38731 0.2208 0.0
H1016 H 0.10762 0.60684 0.2217 0.0
H1017 H 0.86775 0.42926 0.26432 0.0
H1018 H 0.97221 0.45335 0.22098 0.0
H1019 H 0.03687 0.49899 0.26498 0.0
C1020 C 0.10361 0.55948 0.25535 0.0
C1021 C 0.12409 0.5906 0.24319 0.0
C1022 C 0.94915 0.44791 0.23045 0.0
C1023 C 0.02294 0.51645 0.2433 0.0
C1024 C 0.89864 0.41039 0.23038 0.0
C1025 C 0.86844 0.40336 0.24254 0.0
C1026 C 0.96962 0.47724 0.24292 0.0
C1027 C 0.89005 0.43409 0.25471 0.0
C1028 C 0.05266 0.52277 0.25553 0.0
C1029 C 0.09288 0.58359 0.23128 0.0
N1030 N 0.93979 0.46954 0.25468 0.0
N1031 N 0.04378 0.5467 0.23155 0.0
H1032 H 0.53652 0.39212 0.09875 0.0
H1033 H 0.45352 0.60138 0.09844 0.0
H1034 H 0.64164 0.55197 0.09608 0.0
H1035 H 0.3485 0.44147 0.09593 0.0
H1036 H 0.52301 0.584 0.099 0.0
H1037 H 0.46707 0.40955 0.09916 0.0
C1038 C 0.54501 0.4309 0.09831 0.0
C1039 C 0.59492 0.47068 0.09739 0.0
C1040 C 0.48476 0.55272 0.09835 0.0
C1041 C 0.51566 0.49084 0.09782 0.0
C1042 C 0.44506 0.5626 0.09806 0.0
C1043 C 0.39517 0.52279 0.09715 0.0
C1044 C 0.47446 0.50269 0.09776 0.0
C1045 C 0.38642 0.47331 0.09662 0.0
C1046 C 0.50533 0.44081 0.09851 0.0
C1047 C 0.60371 0.52016 0.09677 0.0
N1048 N 0.42571 0.46466 0.09694 0.0
N1049 N 0.56442 0.52884 0.09701 0.0
H1050 H 0.90676 0.34689 0.43249 0.0
H1051 H 0.0848 0.6461 0.43268 0.0
H1052 H 0.8508 0.4509 0.43528 0.0
H1053 H 0.14074 0.54206 0.43546 0.0
H1054 H -0.00126 0.57505 0.43374 0.0
H1055 H 0.99282 0.41792 0.43368 0.0
C1056 C 0.91257 0.38465 0.43342 0.0
C1057 C 0.87156 0.39301 0.43377 0.0
C1058 C 0.02984 0.56778 0.4342 0.0
C1059 C 0.96992 0.47445 0.43506 0.0
C1060 C 0.07899 0.60833 0.43358 0.0
C1061 C 0.12 0.59997 0.43397 0.0
C1062 C 0.02162 0.5185 0.43511 0.0
C1063 C 0.11024 0.55025 0.43516 0.0
C1064 C 0.96171 0.42519 0.43411 0.0
C1065 C 0.8813 0.44271 0.435 0.0
N1066 N 0.06202 0.51137 0.43561 0.0
N1067 N 0.92951 0.48158 0.43553 0.0
H1068 H 0.43453 0.08683 0.76578 0.0
H1069 H 0.55623 0.90952 0.76564 0.0
H1070 H 0.59478 0.14307 0.76802 0.0
H1071 H 0.3961 0.85331 0.76846 0.0
H1072 H 0.57114 0.99543 0.76679 0.0
H1073 H 0.41966 0.00095 0.76705 0.0
C1074 C 0.46659 0.08112 0.7666 0.0
C1075 C 0.51598 0.12213 0.76676 0.0
C1076 C 0.53276 0.96431 0.76725 0.0
C1077 C 0.49922 0.02399 0.76816 0.0
C1078 C 0.52421 0.91525 0.76656 0.0
C1079 C 0.47483 0.87424 0.76692 0.0
C1080 C 0.49163 0.97241 0.76819 0.0
C1081 C 0.43479 0.88384 0.76817 0.0
C1082 C 0.45806 0.03208 0.76735 0.0
C1083 C 0.55607 0.11254 0.76788 0.0
N1084 N 0.44407 0.93199 0.76868 0.0
N1085 N 0.5468 0.06441 0.76846 0.0
H1086 H 0.39412 0.54268 0.55958 0.0
H1087 H 0.5994 0.45414 0.55926 0.0
H1088 H 0.55455 0.64519 0.56245 0.0
H1089 H 0.43901 0.35166 0.56233 0.0
H1090 H 0.58361 0.52462 0.55816 0.0
H1091 H 0.40992 0.47223 0.55832 0.0
C1092 C 0.43269 0.55042 0.55986 0.0
C1093 C 0.47309 0.59988 0.56115 0.0
C1094 C 0.55187 0.4867 0.55902 0.0
C1095 C 0.49138 0.51942 0.55976 0.0
C1096 C 0.56084 0.44642 0.55961 0.0
C1097 C 0.52045 0.39695 0.56092 0.0
C1098 C 0.50217 0.47745 0.55971 0.0
C1099 C 0.47129 0.38921 0.56138 0.0
C1100 C 0.44166 0.51015 0.55918 0.0
C1101 C 0.52226 0.60764 0.56151 0.0
N1102 N 0.46354 0.42907 0.56079 0.0
N1103 N 0.53002 0.56779 0.56084 0.0
H1104 H 0.08616 0.43817 0.89745 0.0
H1105 H 0.90324 0.55371 0.8969 0.0
H1106 H 0.13899 0.59765 0.89502 0.0
H1107 H 0.85049 0.39421 0.89472 0.0
H1108 H 0.98992 0.57056 0.89638 0.0
H1109 H -0.0005 0.42132 0.89665 0.0
C1110 C 0.07953 0.46965 0.89671 0.0
C1111 C 0.11983 0.51941 0.8963 0.0
C1112 C 0.9594 0.53189 0.89595 0.0
C1113 C 0.02077 0.50036 0.89541 0.0
C1114 C 0.90989 0.52222 0.89626 0.0
C1115 C 0.86961 0.47246 0.89585 0.0
C1116 C 0.96869 0.49151 0.8953 0.0
C1117 C 0.88042 0.43317 0.89502 0.0
C1118 C 0.03004 0.45999 0.89623 0.0
C1119 C 0.10905 0.5587 0.89533 0.0
N1120 N 0.92899 0.44355 0.89482 0.0
N1121 N 0.06049 0.54832 0.89496 0.0
H1122 H 0.34658 0.90513 0.23254 0.0
H1123 H 0.64504 0.08893 0.23267 0.0
H1124 H 0.45388 0.85313 0.22989 0.0
H1125 H 0.53779 0.14103 0.23022 0.0
H1126 H 0.5754 0.00218 0.23222 0.0
H1127 H 0.41622 0.99189 0.23224 0.0
C1128 C 0.3848 0.91196 0.23187 0.0
C1129 C 0.3945 0.87189 0.23122 0.0
C1130 C 0.5671 0.03258 0.23173 0.0
C1131 C 0.47428 0.97102 0.23092 0.0
C1132 C 0.60683 0.08212 0.23201 0.0
C1133 C 0.59715 0.12222 0.23146 0.0
C1134 C 0.51735 0.0231 0.23098 0.0
C1135 C 0.54696 0.11122 0.23061 0.0
C1136 C 0.42452 0.96151 0.23168 0.0
C1137 C 0.4447 0.88291 0.23035 0.0
N1138 N 0.50888 0.06264 0.23043 0.0
N1139 N 0.48276 0.93151 0.23027 0.0
loop_
_geom_bond_atom_site_label_1
_geom_bond_atom_site_label_2
_geom_bond_distance
_geom_bond_site_symmetry_2
_ccdc_geom_bond_type
Co0 O2 2.143 . S
Co0 O8 2.074 . S
Co0 O11 2.093 . S
Co0 O24 2.097 . S
Co0 N41 2.151 . S
Co0 N49 2.214 . S
Co1 O2 2.160 . S
Co1 O7 2.058 . S
Co1 O17 2.057 . S
Co1 O32 2.037 . S
Co1 N36 2.145 . S
Co1 N57 2.257 . S
O2 Co0 2.143 . S
O2 Co1 2.160 . S
C3 O4 1.278 . S
C3 O11 1.224 . S
O4 C3 1.278 . S
C5 O6 1.245 . S
C5 O17 1.232 . S
O6 C5 1.245 . S
O7 Co1 2.058 . S
O7 C33 1.269 . S
O8 Co0 2.074 . S
O8 C33 1.257 . S
H9 C34 0.930 . S
H10 C40 0.930 . S
O11 Co0 2.093 . S
O11 C3 1.224 . S
H12 C44 0.929 . S
H13 C46 0.930 . S
H14 C47 0.930 . S
H15 C45 0.929 . S
H16 C48 0.928 . S
O17 Co1 2.057 . S
O17 C5 1.232 . S
H18 C37 0.929 . S
H19 C38 0.929 . S
H20 C50 0.931 . S
H21 C42 0.929 . S
H22 C51 0.930 . S
H23 C43 0.931 . S
O24 Co0 2.097 . S
O24 C52 1.214 . S
H25 C53 0.929 . S
H26 C54 0.929 . S
H27 C55 0.930 . S
H28 C56 0.929 . S
H29 C58 0.930 . S
H30 C35 0.930 . S
H31 C39 0.930 . S
O32 Co1 2.037 . S
O32 C52 1.234 . S
C33 O7 1.269 . S
C33 O8 1.257 . S
C34 H9 0.930 . S
C34 C37 1.388 . S
C34 C39 1.418 . S
C35 H30 0.930 . S
C35 C38 1.404 . S
C35 C39 1.353 . S
N36 Co1 2.145 . S
N36 C37 1.397 . S
N36 C38 1.334 . S
C37 H18 0.929 . S
C37 C34 1.388 . S
C37 N36 1.397 . S
C38 H19 0.929 . S
C38 C35 1.404 . S
C38 N36 1.334 . S
C39 H31 0.930 . S
C39 C34 1.418 . S
C39 C35 1.353 . S
C40 H10 0.930 . S
C40 N41 1.330 . S
C40 C42 1.446 . S
N41 Co0 2.151 . S
N41 C40 1.330 . S
N41 C45 1.418 . S
C42 H21 0.929 . S
C42 C40 1.446 . S
C42 C43 1.332 . S
C43 H23 0.931 . S
C43 C42 1.332 . S
C43 C44 1.267 . S
C44 H12 0.929 . S
C44 C43 1.267 . S
C44 C45 1.251 . S
C45 H15 0.929 . S
C45 N41 1.418 . S
C45 C44 1.251 . S
C46 H13 0.930 . S
C46 C48 1.406 . S
C46 C51 1.261 . S
C47 H14 0.930 . S
C47 N49 1.325 . S
C47 C50 1.357 . S
C48 H16 0.928 . S
C48 C46 1.406 . S
C48 N49 1.261 . S
N49 Co0 2.214 . S
N49 C47 1.325 . S
N49 C48 1.261 . S
C50 H20 0.931 . S
C50 C47 1.357 . S
C50 C51 1.312 . S
C51 H22 0.930 . S
C51 C46 1.261 . S
C51 C50 1.312 . S
C52 O24 1.214 . S
C52 O32 1.234 . S
C53 H25 0.929 . S
C53 C56 1.391 . S
C53 C58 1.391 . S
C54 H26 0.929 . S
C54 C55 1.390 . S
C54 N57 1.391 . S
C55 H27 0.930 . S
C55 C54 1.390 . S
C55 C56 1.392 . S
C56 H28 0.929 . S
C56 C53 1.391 . S
C56 C55 1.392 . S
N57 Co1 2.257 . S
N57 C54 1.391 . S
N57 C58 1.388 . S
C58 H29 0.930 . S
C58 C53 1.391 . S
C58 N57 1.388 . S
Co59 O61 2.143 . S
Co59 O67 2.074 . S
Co59 O70 2.093 . S
Co59 O83 2.097 . S
Co59 N100 2.151 . S
Co59 N108 2.214 . S
Co60 O61 2.160 . S
Co60 O66 2.058 . S
Co60 O76 2.057 . S
Co60 O91 2.037 . S
Co60 N95 2.145 . S
Co60 N116 2.257 . S
O61 Co59 2.143 . S
O61 Co60 2.160 . S
C62 O63 1.278 . S
C62 O70 1.224 . S
O63 C62 1.278 . S
C64 O65 1.245 . S
C64 O76 1.232 . S
O65 C64 1.245 . S
O66 Co60 2.058 . S
O66 C92 1.269 . S
O67 Co59 2.074 . S
O67 C92 1.257 . S
H68 C93 0.930 . S
H69 C99 0.930 . S
O70 Co59 2.093 . S
O70 C62 1.224 . S
H71 C103 0.929 . S
H72 C105 0.930 . S
H73 C106 0.930 . S
H74 C104 0.929 . S
H75 C107 0.928 . S
O76 Co60 2.057 . S
O76 C64 1.232 . S
H77 C96 0.929 . S
H78 C97 0.929 . S
H79 C109 0.931 . S
H80 C101 0.929 . S
H81 C110 0.930 . S
H82 C102 0.931 . S
O83 Co59 2.097 . S
O83 C111 1.214 . S
H84 C112 0.929 . S
H85 C113 0.929 . S
H86 C114 0.930 . S
H87 C115 0.929 . S
H88 C117 0.930 . S
H89 C94 0.930 . S
H90 C98 0.930 . S
O91 Co60 2.037 . S
O91 C111 1.234 . S
C92 O66 1.269 . S
C92 O67 1.257 . S
C93 H68 0.930 . S
C93 C96 1.388 . S
C93 C98 1.418 . S
C94 H89 0.930 . S
C94 C97 1.404 . S
C94 C98 1.353 . S
N95 Co60 2.145 . S
N95 C96 1.397 . S
N95 C97 1.334 . S
C96 H77 0.929 . S
C96 C93 1.388 . S
C96 N95 1.397 . S
C97 H78 0.929 . S
C97 C94 1.404 . S
C97 N95 1.334 . S
C98 H90 0.930 . S
C98 C93 1.418 . S
C98 C94 1.353 . S
C99 H69 0.930 . S
C99 N100 1.330 . S
C99 C101 1.446 . S
N100 Co59 2.151 . S
N100 C99 1.330 . S
N100 C104 1.418 . S
C101 H80 0.929 . S
C101 C99 1.446 . S
C101 C102 1.332 . S
C102 H82 0.931 . S
C102 C101 1.332 . S
C102 C103 1.267 . S
C103 H71 0.929 . S
C103 C102 1.267 . S
C103 C104 1.251 . S
C104 H74 0.929 . S
C104 N100 1.418 . S
C104 C103 1.251 . S
C105 H72 0.930 . S
C105 C107 1.406 . S
C105 C110 1.261 . S
C106 H73 0.930 . S
C106 N108 1.325 . S
C106 C109 1.357 . S
C107 H75 0.928 . S
C107 C105 1.406 . S
C107 N108 1.261 . S
N108 Co59 2.214 . S
N108 C106 1.325 . S
N108 C107 1.261 . S
C109 H79 0.931 . S
C109 C106 1.357 . S
C109 C110 1.312 . S
C110 H81 0.930 . S
C110 C105 1.261 . S
C110 C109 1.312 . S
C111 O83 1.214 . S
C111 O91 1.234 . S
C112 H84 0.929 . S
C112 C115 1.391 . S
C112 C117 1.391 . S
C113 H85 0.929 . S
C113 C114 1.390 . S
C113 N116 1.391 . S
C114 H86 0.930 . S
C114 C113 1.390 . S
C114 C115 1.392 . S
C115 H87 0.929 . S
C115 C112 1.391 . S
C115 C114 1.392 . S
N116 Co60 2.257 . S
N116 C113 1.391 . S
N116 C117 1.388 . S
C117 H88 0.930 . S
C117 C112 1.391 . S
C117 N116 1.388 . S
Co118 O120 2.143 . S
Co118 O126 2.074 . S
Co118 O129 2.093 . S
Co118 O142 2.097 . S
Co118 N159 2.151 . S
Co118 N167 2.214 . S
Co119 O120 2.160 . S
Co119 O125 2.058 . S
Co119 O135 2.057 . S
Co119 O150 2.037 . S
Co119 N154 2.145 . S
Co119 N175 2.257 . S
O120 Co118 2.143 . S
O120 Co119 2.160 . S
C121 O122 1.278 . S
C121 O129 1.224 . S
O122 C121 1.278 . S
C123 O124 1.245 . S
C123 O135 1.232 . S
O124 C123 1.245 . S
O125 Co119 2.058 . S
O125 C151 1.269 . S
O126 Co118 2.074 . S
O126 C151 1.257 . S
H127 C152 0.930 . S
H128 C158 0.930 . S
O129 Co118 2.093 . S
O129 C121 1.224 . S
H130 C162 0.929 . S
H131 C164 0.930 . S
H132 C165 0.930 . S
H133 C163 0.929 . S
H134 C166 0.928 . S
O135 Co119 2.057 . S
O135 C123 1.232 . S
H136 C155 0.929 . S
H137 C156 0.929 . S
H138 C168 0.931 . S
H139 C160 0.929 . S
H140 C169 0.930 . S
H141 C161 0.931 . S
O142 Co118 2.097 . S
O142 C170 1.214 . S
H143 C171 0.929 . S
H144 C172 0.929 . S
H145 C173 0.930 . S
H146 C174 0.929 . S
H147 C176 0.930 . S
H148 C153 0.930 . S
H149 C157 0.930 . S
O150 Co119 2.037 . S
O150 C170 1.234 . S
C151 O125 1.269 . S
C151 O126 1.257 . S
C152 H127 0.930 . S
C152 C155 1.388 . S
C152 C157 1.418 . S
C153 H148 0.930 . S
C153 C156 1.404 . S
C153 C157 1.353 . S
N154 Co119 2.145 . S
N154 C155 1.397 . S
N154 C156 1.334 . S
C155 H136 0.929 . S
C155 C152 1.388 . S
C155 N154 1.397 . S
C156 H137 0.929 . S
C156 C153 1.404 . S
C156 N154 1.334 . S
C157 H149 0.930 . S
C157 C152 1.418 . S
C157 C153 1.353 . S
C158 H128 0.930 . S
C158 N159 1.330 . S
C158 C160 1.446 . S
N159 Co118 2.151 . S
N159 C158 1.330 . S
N159 C163 1.418 . S
C160 H139 0.929 . S
C160 C158 1.446 . S
C160 C161 1.332 . S
C161 H141 0.931 . S
C161 C160 1.332 . S
C161 C162 1.267 . S
C162 H130 0.929 . S
C162 C161 1.267 . S
C162 C163 1.251 . S
C163 H133 0.929 . S
C163 N159 1.418 . S
C163 C162 1.251 . S
C164 H131 0.930 . S
C164 C166 1.406 . S
C164 C169 1.261 . S
C165 H132 0.930 . S
C165 N167 1.325 . S
C165 C168 1.357 . S
C166 H134 0.928 . S
C166 C164 1.406 . S
C166 N167 1.261 . S
N167 Co118 2.214 . S
N167 C165 1.325 . S
N167 C166 1.261 . S
C168 H138 0.931 . S
C168 C165 1.357 . S
C168 C169 1.312 . S
C169 H140 0.930 . S
C169 C164 1.261 . S
C169 C168 1.312 . S
C170 O142 1.214 . S
C170 O150 1.234 . S
C171 H143 0.929 . S
C171 C174 1.391 . S
C171 C176 1.391 . S
C172 H144 0.929 . S
C172 C173 1.390 . S
C172 N175 1.391 . S
C173 H145 0.930 . S
C173 C172 1.390 . S
C173 C174 1.392 . S
C174 H146 0.929 . S
C174 C171 1.391 . S
C174 C173 1.392 . S
N175 Co119 2.257 . S
N175 C172 1.391 . S
N175 C176 1.388 . S
C176 H147 0.930 . S
C176 C171 1.391 . S
C176 N175 1.388 . S
Co177 O179 2.143 . S
Co177 O185 2.074 . S
Co177 O188 2.093 . S
Co177 O201 2.097 . S
Co177 N218 2.151 . S
Co177 N226 2.214 . S
Co178 O179 2.160 . S
Co178 O184 2.058 . S
Co178 O194 2.057 . S
Co178 O209 2.037 . S
Co178 N213 2.145 . S
Co178 N234 2.257 . S
O179 Co177 2.143 . S
O179 Co178 2.160 . S
C180 O181 1.278 . S
C180 O188 1.224 . S
O181 C180 1.278 . S
C182 O183 1.245 . S
C182 O194 1.232 . S
O183 C182 1.245 . S
O184 Co178 2.058 . S
O184 C210 1.269 . S
O185 Co177 2.074 . S
O185 C210 1.257 . S
H186 C211 0.930 . S
H187 C217 0.930 . S
O188 Co177 2.093 . S
O188 C180 1.224 . S
H189 C221 0.929 . S
H190 C223 0.930 . S
H191 C224 0.930 . S
H192 C222 0.929 . S
H193 C225 0.928 . S
O194 Co178 2.057 . S
O194 C182 1.232 . S
H195 C214 0.929 . S
H196 C215 0.929 . S
H197 C227 0.931 . S
H198 C219 0.929 . S
H199 C228 0.930 . S
H200 C220 0.931 . S
O201 Co177 2.097 . S
O201 C229 1.214 . S
H202 C230 0.929 . S
H203 C231 0.929 . S
H204 C232 0.930 . S
H205 C233 0.929 . S
H206 C235 0.930 . S
H207 C212 0.930 . S
H208 C216 0.930 . S
O209 Co178 2.037 . S
O209 C229 1.234 . S
C210 O184 1.269 . S
C210 O185 1.257 . S
C211 H186 0.930 . S
C211 C214 1.388 . S
C211 C216 1.418 . S
C212 H207 0.930 . S
C212 C215 1.404 . S
C212 C216 1.353 . S
N213 Co178 2.145 . S
N213 C214 1.397 . S
N213 C215 1.334 . S
C214 H195 0.929 . S
C214 C211 1.388 . S
C214 N213 1.397 . S
C215 H196 0.929 . S
C215 C212 1.404 . S
C215 N213 1.334 . S
C216 H208 0.930 . S
C216 C211 1.418 . S
C216 C212 1.353 . S
C217 H187 0.930 . S
C217 N218 1.330 . S
C217 C219 1.446 . S
N218 Co177 2.151 . S
N218 C217 1.330 . S
N218 C222 1.418 . S
C219 H198 0.929 . S
C219 C217 1.446 . S
C219 C220 1.332 . S
C220 H200 0.931 . S
C220 C219 1.332 . S
C220 C221 1.267 . S
C221 H189 0.929 . S
C221 C220 1.267 . S
C221 C222 1.251 . S
C222 H192 0.929 . S
C222 N218 1.418 . S
C222 C221 1.251 . S
C223 H190 0.930 . S
C223 C225 1.406 . S
C223 C228 1.261 . S
C224 H191 0.930 . S
C224 N226 1.325 . S
C224 C227 1.357 . S
C225 H193 0.928 . S
C225 C223 1.406 . S
C225 N226 1.261 . S
N226 Co177 2.214 . S
N226 C224 1.325 . S
N226 C225 1.261 . S
C227 H197 0.931 . S
C227 C224 1.357 . S
C227 C228 1.312 . S
C228 H199 0.930 . S
C228 C223 1.261 . S
C228 C227 1.312 . S
C229 O201 1.214 . S
C229 O209 1.234 . S
C230 H202 0.929 . S
C230 C233 1.391 . S
C230 C235 1.391 . S
C231 H203 0.929 . S
C231 C232 1.390 . S
C231 N234 1.391 . S
C232 H204 0.930 . S
C232 C231 1.390 . S
C232 C233 1.392 . S
C233 H205 0.929 . S
C233 C230 1.391 . S
C233 C232 1.392 . S
N234 Co178 2.257 . S
N234 C231 1.391 . S
N234 C235 1.388 . S
C235 H206 0.930 . S
C235 C230 1.391 . S
C235 N234 1.388 . S
Co236 O238 2.143 . S
Co236 O244 2.074 . S
Co236 O247 2.093 . S
Co236 O260 2.097 . S
Co236 N277 2.151 . S
Co236 N285 2.214 . S
Co237 O238 2.160 . S
Co237 O243 2.058 . S
Co237 O253 2.057 . S
Co237 O268 2.037 . S
Co237 N272 2.145 . S
Co237 N293 2.257 . S
O238 Co236 2.143 . S
O238 Co237 2.160 . S
C239 O240 1.278 . S
C239 O247 1.224 . S
O240 C239 1.278 . S
C241 O242 1.245 . S
C241 O253 1.232 . S
O242 C241 1.245 . S
O243 Co237 2.058 . S
O243 C269 1.269 . S
O244 Co236 2.074 . S
O244 C269 1.257 . S
H245 C270 0.930 . S
H246 C276 0.930 . S
O247 Co236 2.093 . S
O247 C239 1.224 . S
H248 C280 0.929 . S
H249 C282 0.930 . S
H250 C283 0.930 . S
H251 C281 0.929 . S
H252 C284 0.928 . S
O253 Co237 2.057 . S
O253 C241 1.232 . S
H254 C273 0.929 . S
H255 C274 0.929 . S
H256 C286 0.931 . S
H257 C278 0.929 . S
H258 C287 0.930 . S
H259 C279 0.931 . S
O260 Co236 2.097 . S
O260 C288 1.214 . S
H261 C289 0.929 . S
H262 C290 0.929 . S
H263 C291 0.930 . S
H264 C292 0.929 . S
H265 C294 0.930 . S
H266 C271 0.930 . S
H267 C275 0.930 . S
O268 Co237 2.037 . S
O268 C288 1.234 . S
C269 O243 1.269 . S
C269 O244 1.257 . S
C270 H245 0.930 . S
C270 C273 1.388 . S
C270 C275 1.418 . S
C271 H266 0.930 . S
C271 C274 1.404 . S
C271 C275 1.353 . S
N272 Co237 2.145 . S
N272 C273 1.397 . S
N272 C274 1.334 . S
C273 H254 0.929 . S
C273 C270 1.388 . S
C273 N272 1.397 . S
C274 H255 0.929 . S
C274 C271 1.404 . S
C274 N272 1.334 . S
C275 H267 0.930 . S
C275 C270 1.418 . S
C275 C271 1.353 . S
C276 H246 0.930 . S
C276 N277 1.330 . S
C276 C278 1.446 . S
N277 Co236 2.151 . S
N277 C276 1.330 . S
N277 C281 1.418 . S
C278 H257 0.929 . S
C278 C276 1.446 . S
C278 C279 1.332 . S
C279 H259 0.931 . S
C279 C278 1.332 . S
C279 C280 1.267 . S
C280 H248 0.929 . S
C280 C279 1.267 . S
C280 C281 1.251 . S
C281 H251 0.929 . S
C281 N277 1.418 . S
C281 C280 1.251 . S
C282 H249 0.930 . S
C282 C284 1.406 . S
C282 C287 1.261 . S
C283 H250 0.930 . S
C283 N285 1.325 . S
C283 C286 1.357 . S
C284 H252 0.928 . S
C284 C282 1.406 . S
C284 N285 1.261 . S
N285 Co236 2.214 . S
N285 C283 1.325 . S
N285 C284 1.261 . S
C286 H256 0.931 . S
C286 C283 1.357 . S
C286 C287 1.312 . S
C287 H258 0.930 . S
C287 C282 1.261 . S
C287 C286 1.312 . S
C288 O260 1.214 . S
C288 O268 1.234 . S
C289 H261 0.929 . S
C289 C292 1.391 . S
C289 C294 1.391 . S
C290 H262 0.929 . S
C290 C291 1.390 . S
C290 N293 1.391 . S
C291 H263 0.930 . S
C291 C290 1.390 . S
C291 C292 1.392 . S
C292 H264 0.929 . S
C292 C289 1.391 . S
C292 C291 1.392 . S
N293 Co237 2.257 . S
N293 C290 1.391 . S
N293 C294 1.388 . S
C294 H265 0.930 . S
C294 C289 1.391 . S
C294 N293 1.388 . S
Co295 O297 2.143 . S
Co295 O303 2.074 . S
Co295 O306 2.093 . S
Co295 O319 2.097 . S
Co295 N336 2.151 . S
Co295 N344 2.214 . S
Co296 O297 2.160 . S
Co296 O302 2.058 . S
Co296 O312 2.057 . S
Co296 O327 2.037 . S
Co296 N331 2.145 . S
Co296 N352 2.257 . S
O297 Co295 2.143 . S
O297 Co296 2.160 . S
C298 O299 1.278 . S
C298 O306 1.224 . S
O299 C298 1.278 . S
C300 O301 1.245 . S
C300 O312 1.232 . S
O301 C300 1.245 . S
O302 Co296 2.058 . S
O302 C328 1.269 . S
O303 Co295 2.074 . S
O303 C328 1.257 . S
H304 C329 0.930 . S
H305 C335 0.930 . S
O306 Co295 2.093 . S
O306 C298 1.224 . S
H307 C339 0.929 . S
H308 C341 0.930 . S
H309 C342 0.930 . S
H310 C340 0.929 . S
H311 C343 0.928 . S
O312 Co296 2.057 . S
O312 C300 1.232 . S
H313 C332 0.929 . S
H314 C333 0.929 . S
H315 C345 0.931 . S
H316 C337 0.929 . S
H317 C346 0.930 . S
H318 C338 0.931 . S
O319 Co295 2.097 . S
O319 C347 1.214 . S
H320 C348 0.929 . S
H321 C349 0.929 . S
H322 C350 0.930 . S
H323 C351 0.929 . S
H324 C353 0.930 . S
H325 C330 0.930 . S
H326 C334 0.930 . S
O327 Co296 2.037 . S
O327 C347 1.234 . S
C328 O302 1.269 . S
C328 O303 1.257 . S
C329 H304 0.930 . S
C329 C332 1.388 . S
C329 C334 1.418 . S
C330 H325 0.930 . S
C330 C333 1.404 . S
C330 C334 1.353 . S
N331 Co296 2.145 . S
N331 C332 1.397 . S
N331 C333 1.334 . S
C332 H313 0.929 . S
C332 C329 1.388 . S
C332 N331 1.397 . S
C333 H314 0.929 . S
C333 C330 1.404 . S
C333 N331 1.334 . S
C334 H326 0.930 . S
C334 C329 1.418 . S
C334 C330 1.353 . S
C335 H305 0.930 . S
C335 N336 1.330 . S
C335 C337 1.446 . S
N336 Co295 2.151 . S
N336 C335 1.330 . S
N336 C340 1.418 . S
C337 H316 0.929 . S
C337 C335 1.446 . S
C337 C338 1.332 . S
C338 H318 0.931 . S
C338 C337 1.332 . S
C338 C339 1.267 . S
C339 H307 0.929 . S
C339 C338 1.267 . S
C339 C340 1.251 . S
C340 H310 0.929 . S
C340 N336 1.418 . S
C340 C339 1.251 . S
C341 H308 0.930 . S
C341 C343 1.406 . S
C341 C346 1.261 . S
C342 H309 0.930 . S
C342 N344 1.325 . S
C342 C345 1.357 . S
C343 H311 0.928 . S
C343 C341 1.406 . S
C343 N344 1.261 . S
N344 Co295 2.214 . S
N344 C342 1.325 . S
N344 C343 1.261 . S
C345 H315 0.931 . S
C345 C342 1.357 . S
C345 C346 1.312 . S
C346 H317 0.930 . S
C346 C341 1.261 . S
C346 C345 1.312 . S
C347 O319 1.214 . S
C347 O327 1.234 . S
C348 H320 0.929 . S
C348 C351 1.391 . S
C348 C353 1.391 . S
C349 H321 0.929 . S
C349 C350 1.390 . S
C349 N352 1.391 . S
C350 H322 0.930 . S
C350 C349 1.390 . S
C350 C351 1.392 . S
C351 H323 0.929 . S
C351 C348 1.391 . S
C351 C350 1.392 . S
N352 Co296 2.257 . S
N352 C349 1.391 . S
N352 C353 1.388 . S
C353 H324 0.930 . S
C353 C348 1.391 . S
C353 N352 1.388 . S
Co354 O356 2.143 . S
Co354 O362 2.074 . S
Co354 O365 2.093 . S
Co354 O378 2.097 . S
Co354 N395 2.151 . S
Co354 N403 2.214 . S
Co355 O356 2.160 . S
Co355 O361 2.058 . S
Co355 O371 2.057 . S
Co355 O386 2.037 . S
Co355 N390 2.145 . S
Co355 N411 2.257 . S
O356 Co354 2.143 . S
O356 Co355 2.160 . S
C357 O358 1.278 . S
C357 O365 1.224 . S
O358 C357 1.278 . S
C359 O360 1.245 . S
C359 O371 1.232 . S
O360 C359 1.245 . S
O361 Co355 2.058 . S
O361 C387 1.269 . S
O362 Co354 2.074 . S
O362 C387 1.257 . S
H363 C388 0.930 . S
H364 C394 0.930 . S
O365 Co354 2.093 . S
O365 C357 1.224 . S
H366 C398 0.929 . S
H367 C400 0.930 . S
H368 C401 0.930 . S
H369 C399 0.929 . S
H370 C402 0.928 . S
O371 Co355 2.057 . S
O371 C359 1.232 . S
H372 C391 0.929 . S
H373 C392 0.929 . S
H374 C404 0.931 . S
H375 C396 0.929 . S
H376 C405 0.930 . S
H377 C397 0.931 . S
O378 Co354 2.097 . S
O378 C406 1.214 . S
H379 C407 0.929 . S
H380 C408 0.929 . S
H381 C409 0.930 . S
H382 C410 0.929 . S
H383 C412 0.930 . S
H384 C389 0.930 . S
H385 C393 0.930 . S
O386 Co355 2.037 . S
O386 C406 1.234 . S
C387 O361 1.269 . S
C387 O362 1.257 . S
C388 H363 0.930 . S
C388 C391 1.388 . S
C388 C393 1.418 . S
C389 H384 0.930 . S
C389 C392 1.404 . S
C389 C393 1.353 . S
N390 Co355 2.145 . S
N390 C391 1.397 . S
N390 C392 1.334 . S
C391 H372 0.929 . S
C391 C388 1.388 . S
C391 N390 1.397 . S
C392 H373 0.929 . S
C392 C389 1.404 . S
C392 N390 1.334 . S
C393 H385 0.930 . S
C393 C388 1.418 . S
C393 C389 1.353 . S
C394 H364 0.930 . S
C394 N395 1.330 . S
C394 C396 1.446 . S
N395 Co354 2.151 . S
N395 C394 1.330 . S
N395 C399 1.418 . S
C396 H375 0.929 . S
C396 C394 1.446 . S
C396 C397 1.332 . S
C397 H377 0.931 . S
C397 C396 1.332 . S
C397 C398 1.267 . S
C398 H366 0.929 . S
C398 C397 1.267 . S
C398 C399 1.251 . S
C399 H369 0.929 . S
C399 N395 1.418 . S
C399 C398 1.251 . S
C400 H367 0.930 . S
C400 C402 1.406 . S
C400 C405 1.261 . S
C401 H368 0.930 . S
C401 N403 1.325 . S
C401 C404 1.357 . S
C402 H370 0.928 . S
C402 C400 1.406 . S
C402 N403 1.261 . S
N403 Co354 2.214 . S
N403 C401 1.325 . S
N403 C402 1.261 . S
C404 H374 0.931 . S
C404 C401 1.357 . S
C404 C405 1.312 . S
C405 H376 0.930 . S
C405 C400 1.261 . S
C405 C404 1.312 . S
C406 O378 1.214 . S
C406 O386 1.234 . S
C407 H379 0.929 . S
C407 C410 1.391 . S
C407 C412 1.391 . S
C408 H380 0.929 . S
C408 C409 1.390 . S
C408 N411 1.391 . S
C409 H381 0.930 . S
C409 C408 1.390 . S
C409 C410 1.392 . S
C410 H382 0.929 . S
C410 C407 1.391 . S
C410 C409 1.392 . S
N411 Co355 2.257 . S
N411 C408 1.391 . S
N411 C412 1.388 . S
C412 H383 0.930 . S
C412 C407 1.391 . S
C412 N411 1.388 . S
Co413 O415 2.143 . S
Co413 O421 2.074 . S
Co413 O424 2.093 . S
Co413 O437 2.097 . S
Co413 N454 2.151 . S
Co413 N462 2.214 . S
Co414 O415 2.160 . S
Co414 O420 2.058 . S
Co414 O430 2.057 . S
Co414 O445 2.037 . S
Co414 N449 2.145 . S
Co414 N470 2.257 . S
O415 Co413 2.143 . S
O415 Co414 2.160 . S
C416 O417 1.278 . S
C416 O424 1.224 . S
O417 C416 1.278 . S
C418 O419 1.245 . S
C418 O430 1.232 . S
O419 C418 1.245 . S
O420 Co414 2.058 . S
O420 C446 1.269 . S
O421 Co413 2.074 . S
O421 C446 1.257 . S
H422 C447 0.930 . S
H423 C453 0.930 . S
O424 Co413 2.093 . S
O424 C416 1.224 . S
H425 C457 0.929 . S
H426 C459 0.930 . S
H427 C460 0.930 . S
H428 C458 0.929 . S
H429 C461 0.928 . S
O430 Co414 2.057 . S
O430 C418 1.232 . S
H431 C450 0.929 . S
H432 C451 0.929 . S
H433 C463 0.931 . S
H434 C455 0.929 . S
H435 C464 0.930 . S
H436 C456 0.931 . S
O437 Co413 2.097 . S
O437 C465 1.214 . S
H438 C466 0.929 . S
H439 C467 0.929 . S
H440 C468 0.930 . S
H441 C469 0.929 . S
H442 C471 0.930 . S
H443 C448 0.930 . S
H444 C452 0.930 . S
O445 Co414 2.037 . S
O445 C465 1.234 . S
C446 O420 1.269 . S
C446 O421 1.257 . S
C447 H422 0.930 . S
C447 C450 1.388 . S
C447 C452 1.418 . S
C448 H443 0.930 . S
C448 C451 1.404 . S
C448 C452 1.353 . S
N449 Co414 2.145 . S
N449 C450 1.397 . S
N449 C451 1.334 . S
C450 H431 0.929 . S
C450 C447 1.388 . S
C450 N449 1.397 . S
C451 H432 0.929 . S
C451 C448 1.404 . S
C451 N449 1.334 . S
C452 H444 0.930 . S
C452 C447 1.418 . S
C452 C448 1.353 . S
C453 H423 0.930 . S
C453 N454 1.330 . S
C453 C455 1.446 . S
N454 Co413 2.151 . S
N454 C453 1.330 . S
N454 C458 1.418 . S
C455 H434 0.929 . S
C455 C453 1.446 . S
C455 C456 1.332 . S
C456 H436 0.931 . S
C456 C455 1.332 . S
C456 C457 1.267 . S
C457 H425 0.929 . S
C457 C456 1.267 . S
C457 C458 1.251 . S
C458 H428 0.929 . S
C458 N454 1.418 . S
C458 C457 1.251 . S
C459 H426 0.930 . S
C459 C461 1.406 . S
C459 C464 1.261 . S
C460 H427 0.930 . S
C460 N462 1.325 . S
C460 C463 1.357 . S
C461 H429 0.928 . S
C461 C459 1.406 . S
C461 N462 1.261 . S
N462 Co413 2.214 . S
N462 C460 1.325 . S
N462 C461 1.261 . S
C463 H433 0.931 . S
C463 C460 1.357 . S
C463 C464 1.312 . S
C464 H435 0.930 . S
C464 C459 1.261 . S
C464 C463 1.312 . S
C465 O437 1.214 . S
C465 O445 1.234 . S
C466 H438 0.929 . S
C466 C469 1.391 . S
C466 C471 1.391 . S
C467 H439 0.929 . S
C467 C468 1.390 . S
C467 N470 1.391 . S
C468 H440 0.930 . S
C468 C467 1.390 . S
C468 C469 1.392 . S
C469 H441 0.929 . S
C469 C466 1.391 . S
C469 C468 1.392 . S
N470 Co414 2.257 . S
N470 C467 1.391 . S
N470 C471 1.388 . S
C471 H442 0.930 . S
C471 C466 1.391 . S
C471 N470 1.388 . S
Co472 O474 2.143 . S
Co472 O480 2.074 . S
Co472 O483 2.093 . S
Co472 O496 2.097 . S
Co472 N513 2.151 . S
Co472 N521 2.214 . S
Co473 O474 2.160 . S
Co473 O479 2.058 . S
Co473 O489 2.057 . S
Co473 O504 2.037 . S
Co473 N508 2.145 . S
Co473 N529 2.257 . S
O474 Co472 2.143 . S
O474 Co473 2.160 . S
C475 O476 1.278 . S
C475 O483 1.224 . S
O476 C475 1.278 . S
C477 O478 1.245 . S
C477 O489 1.232 . S
O478 C477 1.245 . S
O479 Co473 2.058 . S
O479 C505 1.269 . S
O480 Co472 2.074 . S
O480 C505 1.257 . S
H481 C506 0.930 . S
H482 C512 0.930 . S
O483 Co472 2.093 . S
O483 C475 1.224 . S
H484 C516 0.929 . S
H485 C518 0.930 . S
H486 C519 0.930 . S
H487 C517 0.929 . S
H488 C520 0.928 . S
O489 Co473 2.057 . S
O489 C477 1.232 . S
H490 C509 0.929 . S
H491 C510 0.929 . S
H492 C522 0.931 . S
H493 C514 0.929 . S
H494 C523 0.930 . S
H495 C515 0.931 . S
O496 Co472 2.097 . S
O496 C524 1.214 . S
H497 C525 0.929 . S
H498 C526 0.929 . S
H499 C527 0.930 . S
H500 C528 0.929 . S
H501 C530 0.930 . S
H502 C507 0.930 . S
H503 C511 0.930 . S
O504 Co473 2.037 . S
O504 C524 1.234 . S
C505 O479 1.269 . S
C505 O480 1.257 . S
C506 H481 0.930 . S
C506 C509 1.388 . S
C506 C511 1.418 . S
C507 H502 0.930 . S
C507 C510 1.404 . S
C507 C511 1.353 . S
N508 Co473 2.145 . S
N508 C509 1.397 . S
N508 C510 1.334 . S
C509 H490 0.929 . S
C509 C506 1.388 . S
C509 N508 1.397 . S
C510 H491 0.929 . S
C510 C507 1.404 . S
C510 N508 1.334 . S
C511 H503 0.930 . S
C511 C506 1.418 . S
C511 C507 1.353 . S
C512 H482 0.930 . S
C512 N513 1.330 . S
C512 C514 1.446 . S
N513 Co472 2.151 . S
N513 C512 1.330 . S
N513 C517 1.418 . S
C514 H493 0.929 . S
C514 C512 1.446 . S
C514 C515 1.332 . S
C515 H495 0.931 . S
C515 C514 1.332 . S
C515 C516 1.267 . S
C516 H484 0.929 . S
C516 C515 1.267 . S
C516 C517 1.251 . S
C517 H487 0.929 . S
C517 N513 1.418 . S
C517 C516 1.251 . S
C518 H485 0.930 . S
C518 C520 1.406 . S
C518 C523 1.261 . S
C519 H486 0.930 . S
C519 N521 1.325 . S
C519 C522 1.357 . S
C520 H488 0.928 . S
C520 C518 1.406 . S
C520 N521 1.261 . S
N521 Co472 2.214 . S
N521 C519 1.325 . S
N521 C520 1.261 . S
C522 H492 0.931 . S
C522 C519 1.357 . S
C522 C523 1.312 . S
C523 H494 0.930 . S
C523 C518 1.261 . S
C523 C522 1.312 . S
C524 O496 1.214 . S
C524 O504 1.234 . S
C525 H497 0.929 . S
C525 C528 1.391 . S
C525 C530 1.391 . S
C526 H498 0.929 . S
C526 C527 1.390 . S
C526 N529 1.391 . S
C527 H499 0.930 . S
C527 C526 1.390 . S
C527 C528 1.392 . S
C528 H500 0.929 . S
C528 C525 1.391 . S
C528 C527 1.392 . S
N529 Co473 2.257 . S
N529 C526 1.391 . S
N529 C530 1.388 . S
C530 H501 0.930 . S
C530 C525 1.391 . S
C530 N529 1.388 . S
Co531 O533 2.143 . S
Co531 O539 2.074 . S
Co531 O542 2.093 . S
Co531 O555 2.097 . S
Co531 N572 2.151 . S
Co531 N580 2.214 . S
Co532 O533 2.160 . S
Co532 O538 2.058 . S
Co532 O548 2.057 . S
Co532 O563 2.037 . S
Co532 N567 2.145 . S
Co532 N588 2.257 . S
O533 Co531 2.143 . S
O533 Co532 2.160 . S
C534 O535 1.278 . S
C534 O542 1.224 . S
O535 C534 1.278 . S
C536 O537 1.245 . S
C536 O548 1.232 . S
O537 C536 1.245 . S
O538 Co532 2.058 . S
O538 C564 1.269 . S
O539 Co531 2.074 . S
O539 C564 1.257 . S
H540 C565 0.930 . S
H541 C571 0.930 . S
O542 Co531 2.093 . S
O542 C534 1.224 . S
H543 C575 0.929 . S
H544 C577 0.930 . S
H545 C578 0.930 . S
H546 C576 0.929 . S
H547 C579 0.928 . S
O548 Co532 2.057 . S
O548 C536 1.232 . S
H549 C568 0.929 . S
H550 C569 0.929 . S
H551 C581 0.931 . S
H552 C573 0.929 . S
H553 C582 0.930 . S
H554 C574 0.931 . S
O555 Co531 2.097 . S
O555 C583 1.214 . S
H556 C584 0.929 . S
H557 C585 0.929 . S
H558 C586 0.930 . S
H559 C587 0.929 . S
H560 C589 0.930 . S
H561 C566 0.930 . S
H562 C570 0.930 . S
O563 Co532 2.037 . S
O563 C583 1.234 . S
C564 O538 1.269 . S
C564 O539 1.257 . S
C565 H540 0.930 . S
C565 C568 1.388 . S
C565 C570 1.418 . S
C566 H561 0.930 . S
C566 C569 1.404 . S
C566 C570 1.353 . S
N567 Co532 2.145 . S
N567 C568 1.397 . S
N567 C569 1.334 . S
C568 H549 0.929 . S
C568 C565 1.388 . S
C568 N567 1.397 . S
C569 H550 0.929 . S
C569 C566 1.404 . S
C569 N567 1.334 . S
C570 H562 0.930 . S
C570 C565 1.418 . S
C570 C566 1.353 . S
C571 H541 0.930 . S
C571 N572 1.330 . S
C571 C573 1.446 . S
N572 Co531 2.151 . S
N572 C571 1.330 . S
N572 C576 1.418 . S
C573 H552 0.929 . S
C573 C571 1.446 . S
C573 C574 1.332 . S
C574 H554 0.931 . S
C574 C573 1.332 . S
C574 C575 1.267 . S
C575 H543 0.929 . S
C575 C574 1.267 . S
C575 C576 1.251 . S
C576 H546 0.929 . S
C576 N572 1.418 . S
C576 C575 1.251 . S
C577 H544 0.930 . S
C577 C579 1.406 . S
C577 C582 1.261 . S
C578 H545 0.930 . S
C578 N580 1.325 . S
C578 C581 1.357 . S
C579 H547 0.928 . S
C579 C577 1.406 . S
C579 N580 1.261 . S
N580 Co531 2.214 . S
N580 C578 1.325 . S
N580 C579 1.261 . S
C581 H551 0.931 . S
C581 C578 1.357 . S
C581 C582 1.312 . S
C582 H553 0.930 . S
C582 C577 1.261 . S
C582 C581 1.312 . S
C583 O555 1.214 . S
C583 O563 1.234 . S
C584 H556 0.929 . S
C584 C587 1.391 . S
C584 C589 1.391 . S
C585 H557 0.929 . S
C585 C586 1.390 . S
C585 N588 1.391 . S
C586 H558 0.930 . S
C586 C585 1.390 . S
C586 C587 1.392 . S
C587 H559 0.929 . S
C587 C584 1.391 . S
C587 C586 1.392 . S
N588 Co532 2.257 . S
N588 C585 1.391 . S
N588 C589 1.388 . S
C589 H560 0.930 . S
C589 C584 1.391 . S
C589 N588 1.388 . S
Co590 O592 2.143 . S
Co590 O598 2.074 . S
Co590 O601 2.093 . S
Co590 O614 2.097 . S
Co590 N631 2.151 . S
Co590 N639 2.214 . S
Co591 O592 2.160 . S
Co591 O597 2.058 . S
Co591 O607 2.057 . S
Co591 O622 2.037 . S
Co591 N626 2.145 . S
Co591 N647 2.257 . S
O592 Co590 2.143 . S
O592 Co591 2.160 . S
C593 O594 1.278 . S
C593 O601 1.224 . S
O594 C593 1.278 . S
C595 O596 1.245 . S
C595 O607 1.232 . S
O596 C595 1.245 . S
O597 Co591 2.058 . S
O597 C623 1.269 . S
O598 Co590 2.074 . S
O598 C623 1.257 . S
H599 C624 0.930 . S
H600 C630 0.930 . S
O601 Co590 2.093 . S
O601 C593 1.224 . S
H602 C634 0.929 . S
H603 C636 0.930 . S
H604 C637 0.930 . S
H605 C635 0.929 . S
H606 C638 0.928 . S
O607 Co591 2.057 . S
O607 C595 1.232 . S
H608 C627 0.929 . S
H609 C628 0.929 . S
H610 C640 0.931 . S
H611 C632 0.929 . S
H612 C641 0.930 . S
H613 C633 0.931 . S
O614 Co590 2.097 . S
O614 C642 1.214 . S
H615 C643 0.929 . S
H616 C644 0.929 . S
H617 C645 0.930 . S
H618 C646 0.929 . S
H619 C648 0.930 . S
H620 C625 0.930 . S
H621 C629 0.930 . S
O622 Co591 2.037 . S
O622 C642 1.234 . S
C623 O597 1.269 . S
C623 O598 1.257 . S
C624 H599 0.930 . S
C624 C627 1.388 . S
C624 C629 1.418 . S
C625 H620 0.930 . S
C625 C628 1.404 . S
C625 C629 1.353 . S
N626 Co591 2.145 . S
N626 C627 1.397 . S
N626 C628 1.334 . S
C627 H608 0.929 . S
C627 C624 1.388 . S
C627 N626 1.397 . S
C628 H609 0.929 . S
C628 C625 1.404 . S
C628 N626 1.334 . S
C629 H621 0.930 . S
C629 C624 1.418 . S
C629 C625 1.353 . S
C630 H600 0.930 . S
C630 N631 1.330 . S
C630 C632 1.446 . S
N631 Co590 2.151 . S
N631 C630 1.330 . S
N631 C635 1.418 . S
C632 H611 0.929 . S
C632 C630 1.446 . S
C632 C633 1.332 . S
C633 H613 0.931 . S
C633 C632 1.332 . S
C633 C634 1.267 . S
C634 H602 0.929 . S
C634 C633 1.267 . S
C634 C635 1.251 . S
C635 H605 0.929 . S
C635 N631 1.418 . S
C635 C634 1.251 . S
C636 H603 0.930 . S
C636 C638 1.406 . S
C636 C641 1.261 . S
C637 H604 0.930 . S
C637 N639 1.325 . S
C637 C640 1.357 . S
C638 H606 0.928 . S
C638 C636 1.406 . S
C638 N639 1.261 . S
N639 Co590 2.214 . S
N639 C637 1.325 . S
N639 C638 1.261 . S
C640 H610 0.931 . S
C640 C637 1.357 . S
C640 C641 1.312 . S
C641 H612 0.930 . S
C641 C636 1.261 . S
C641 C640 1.312 . S
C642 O614 1.214 . S
C642 O622 1.234 . S
C643 H615 0.929 . S
C643 C646 1.391 . S
C643 C648 1.391 . S
C644 H616 0.929 . S
C644 C645 1.390 . S
C644 N647 1.391 . S
C645 H617 0.930 . S
C645 C644 1.390 . S
C645 C646 1.392 . S
C646 H618 0.929 . S
C646 C643 1.391 . S
C646 C645 1.392 . S
N647 Co591 2.257 . S
N647 C644 1.391 . S
N647 C648 1.388 . S
C648 H619 0.930 . S
C648 C643 1.391 . S
C648 N647 1.388 . S
Co649 O651 2.143 . S
Co649 O657 2.074 . S
Co649 O660 2.093 . S
Co649 O673 2.097 . S
Co649 N690 2.151 . S
Co649 N698 2.214 . S
Co650 O651 2.160 . S
Co650 O656 2.058 . S
Co650 O666 2.057 . S
Co650 O681 2.037 . S
Co650 N685 2.145 . S
Co650 N706 2.257 . S
O651 Co649 2.143 . S
O651 Co650 2.160 . S
C652 O653 1.278 . S
C652 O660 1.224 . S
O653 C652 1.278 . S
C654 O655 1.245 . S
C654 O666 1.232 . S
O655 C654 1.245 . S
O656 Co650 2.058 . S
O656 C682 1.269 . S
O657 Co649 2.074 . S
O657 C682 1.257 . S
H658 C683 0.930 . S
H659 C689 0.930 . S
O660 Co649 2.093 . S
O660 C652 1.224 . S
H661 C693 0.929 . S
H662 C695 0.930 . S
H663 C696 0.930 . S
H664 C694 0.929 . S
H665 C697 0.928 . S
O666 Co650 2.057 . S
O666 C654 1.232 . S
H667 C686 0.929 . S
H668 C687 0.929 . S
H669 C699 0.931 . S
H670 C691 0.929 . S
H671 C700 0.930 . S
H672 C692 0.931 . S
O673 Co649 2.097 . S
O673 C701 1.214 . S
H674 C702 0.929 . S
H675 C703 0.929 . S
H676 C704 0.930 . S
H677 C705 0.929 . S
H678 C707 0.930 . S
H679 C684 0.930 . S
H680 C688 0.930 . S
O681 Co650 2.037 . S
O681 C701 1.234 . S
C682 O656 1.269 . S
C682 O657 1.257 . S
C683 H658 0.930 . S
C683 C686 1.388 . S
C683 C688 1.418 . S
C684 H679 0.930 . S
C684 C687 1.404 . S
C684 C688 1.353 . S
N685 Co650 2.145 . S
N685 C686 1.397 . S
N685 C687 1.334 . S
C686 H667 0.929 . S
C686 C683 1.388 . S
C686 N685 1.397 . S
C687 H668 0.929 . S
C687 C684 1.404 . S
C687 N685 1.334 . S
C688 H680 0.930 . S
C688 C683 1.418 . S
C688 C684 1.353 . S
C689 H659 0.930 . S
C689 N690 1.330 . S
C689 C691 1.446 . S
N690 Co649 2.151 . S
N690 C689 1.330 . S
N690 C694 1.418 . S
C691 H670 0.929 . S
C691 C689 1.446 . S
C691 C692 1.332 . S
C692 H672 0.931 . S
C692 C691 1.332 . S
C692 C693 1.267 . S
C693 H661 0.929 . S
C693 C692 1.267 . S
C693 C694 1.251 . S
C694 H664 0.929 . S
C694 N690 1.418 . S
C694 C693 1.251 . S
C695 H662 0.930 . S
C695 C697 1.406 . S
C695 C700 1.261 . S
C696 H663 0.930 . S
C696 N698 1.325 . S
C696 C699 1.357 . S
C697 H665 0.928 . S
C697 C695 1.406 . S
C697 N698 1.261 . S
N698 Co649 2.214 . S
N698 C696 1.325 . S
N698 C697 1.261 . S
C699 H669 0.931 . S
C699 C696 1.357 . S
C699 C700 1.312 . S
C700 H671 0.930 . S
C700 C695 1.261 . S
C700 C699 1.312 . S
C701 O673 1.214 . S
C701 O681 1.234 . S
C702 H674 0.929 . S
C702 C705 1.391 . S
C702 C707 1.391 . S
C703 H675 0.929 . S
C703 C704 1.390 . S
C703 N706 1.391 . S
C704 H676 0.930 . S
C704 C703 1.390 . S
C704 C705 1.392 . S
C705 H677 0.929 . S
C705 C702 1.391 . S
C705 C704 1.392 . S
N706 Co650 2.257 . S
N706 C703 1.391 . S
N706 C707 1.388 . S
C707 H678 0.930 . S
C707 C702 1.391 . S
C707 N706 1.388 . S
H708 C714 0.930 . S
H709 C718 0.930 . S
H710 C723 0.929 . S
H711 C721 0.929 . S
H712 C716 0.929 . S
H713 C722 0.929 . S
C714 H708 0.930 . S
C714 C715 1.367 . S
C714 C722 1.378 . S
C715 C714 1.367 . S
C715 C723 1.433 . S
C716 H712 0.929 . S
C716 C718 1.378 . S
C716 C720 1.350 . S
C717 C720 1.463 1_556 S
C717 C722 1.350 . S
C717 N725 1.427 . S
C718 H709 0.930 . S
C718 C716 1.378 . S
C718 C719 1.367 . S
C719 C718 1.367 . S
C719 C721 1.433 . S
C720 C716 1.350 . S
C720 C717 1.463 1_554 S
C720 N724 1.427 . S
C721 H711 0.929 . S
C721 C719 1.433 . S
C721 N724 1.384 . S
C722 H713 0.929 . S
C722 C714 1.378 . S
C722 C717 1.350 . S
C723 H710 0.929 . S
C723 C715 1.433 . S
C723 N725 1.384 . S
N724 C720 1.427 . S
N724 C721 1.384 . S
N725 C717 1.427 . S
N725 C723 1.384 . S
H726 C732 0.930 . S
H727 C736 0.930 . S
H728 C741 0.929 . S
H729 C739 0.929 . S
H730 C734 0.929 . S
H731 C740 0.929 . S
C732 H726 0.930 . S
C732 C733 1.367 . S
C732 C740 1.378 . S
C733 C732 1.367 . S
C733 C741 1.433 . S
C734 H730 0.929 . S
C734 C736 1.378 . S
C734 C738 1.350 . S
C735 C738 1.463 . S
C735 C740 1.350 . S
C735 N743 1.427 . S
C736 H727 0.930 . S
C736 C734 1.378 . S
C736 C737 1.367 . S
C737 C736 1.367 . S
C737 C739 1.433 . S
C738 C734 1.350 . S
C738 C735 1.463 . S
C738 N742 1.427 . S
C739 H729 0.929 . S
C739 C737 1.433 . S
C739 N742 1.384 . S
C740 H731 0.929 . S
C740 C732 1.378 . S
C740 C735 1.350 . S
C741 H728 0.929 . S
C741 C733 1.433 . S
C741 N743 1.384 . S
N742 C738 1.427 . S
N742 C739 1.384 . S
N743 C735 1.427 . S
N743 C741 1.384 . S
H744 C750 0.930 . S
H745 C754 0.930 . S
H746 C759 0.929 . S
H747 C757 0.929 . S
H748 C752 0.929 . S
H749 C758 0.929 . S
C750 H744 0.930 . S
C750 C751 1.367 . S
C750 C758 1.378 . S
C751 C750 1.367 . S
C751 C759 1.433 . S
C752 H748 0.929 . S
C752 C754 1.378 . S
C752 C756 1.350 . S
C753 C756 1.463 . S
C753 C758 1.350 . S
C753 N761 1.427 . S
C754 H745 0.930 . S
C754 C752 1.378 . S
C754 C755 1.367 . S
C755 C754 1.367 . S
C755 C757 1.433 . S
C756 C752 1.350 . S
C756 C753 1.463 . S
C756 N760 1.427 . S
C757 H747 0.929 . S
C757 C755 1.433 . S
C757 N760 1.384 . S
C758 H749 0.929 . S
C758 C750 1.378 . S
C758 C753 1.350 . S
C759 H746 0.929 . S
C759 C751 1.433 . S
C759 N761 1.384 . S
N760 C756 1.427 . S
N760 C757 1.384 . S
N761 C753 1.427 . S
N761 C759 1.384 . S
H762 C768 0.930 . S
H763 C772 0.930 . S
H764 C777 0.929 . S
H765 C775 0.929 . S
H766 C770 0.929 . S
H767 C776 0.929 . S
C768 H762 0.930 . S
C768 C769 1.367 . S
C768 C776 1.378 . S
C769 C768 1.367 . S
C769 C777 1.433 . S
C770 H766 0.929 . S
C770 C772 1.378 . S
C770 C774 1.350 . S
C771 C774 1.463 1_554 S
C771 C776 1.350 . S
C771 N779 1.427 . S
C772 H763 0.930 . S
C772 C770 1.378 . S
C772 C773 1.367 . S
C773 C772 1.367 . S
C773 C775 1.433 . S
C774 C770 1.350 . S
C774 C771 1.463 1_556 S
C774 N778 1.427 . S
C775 H765 0.929 . S
C775 C773 1.433 . S
C775 N778 1.384 . S
C776 H767 0.929 . S
C776 C768 1.378 . S
C776 C771 1.350 . S
C777 H764 0.929 . S
C777 C769 1.433 . S
C777 N779 1.384 . S
N778 C774 1.427 . S
N778 C775 1.384 . S
N779 C771 1.427 . S
N779 C777 1.384 . S
H780 C786 0.930 . S
H781 C790 0.930 . S
H782 C795 0.929 . S
H783 C793 0.929 . S
H784 C788 0.929 . S
H785 C794 0.929 . S
C786 H780 0.930 . S
C786 C787 1.367 . S
C786 C794 1.378 . S
C787 C786 1.367 . S
C787 C795 1.433 . S
C788 H784 0.929 . S
C788 C790 1.378 . S
C788 C792 1.350 . S
C789 C792 1.463 . S
C789 C794 1.350 . S
C789 N797 1.427 . S
C790 H781 0.930 . S
C790 C788 1.378 . S
C790 C791 1.367 . S
C791 C790 1.367 . S
C791 C793 1.433 . S
C792 C788 1.350 . S
C792 C789 1.463 . S
C792 N796 1.427 . S
C793 H783 0.929 . S
C793 C791 1.433 . S
C793 N796 1.384 . S
C794 H785 0.929 . S
C794 C786 1.378 . S
C794 C789 1.350 . S
C795 H782 0.929 . S
C795 C787 1.433 . S
C795 N797 1.384 . S
N796 C792 1.427 . S
N796 C793 1.384 . S
N797 C789 1.427 . S
N797 C795 1.384 . S
H798 C804 0.930 . S
H799 C808 0.930 . S
H800 C813 0.929 . S
H801 C811 0.929 . S
H802 C806 0.929 . S
H803 C812 0.929 . S
C804 H798 0.930 . S
C804 C805 1.367 . S
C804 C812 1.378 . S
C805 C804 1.367 . S
C805 C813 1.433 . S
C806 H802 0.929 . S
C806 C808 1.378 . S
C806 C810 1.350 . S
C807 C810 1.463 . S
C807 C812 1.350 . S
C807 N815 1.427 . S
C808 H799 0.930 . S
C808 C806 1.378 . S
C808 C809 1.367 . S
C809 C808 1.367 . S
C809 C811 1.433 . S
C810 C806 1.350 . S
C810 C807 1.463 . S
C810 N814 1.427 . S
C811 H801 0.929 . S
C811 C809 1.433 . S
C811 N814 1.384 . S
C812 H803 0.929 . S
C812 C804 1.378 . S
C812 C807 1.350 . S
C813 H800 0.929 . S
C813 C805 1.433 . S
C813 N815 1.384 . S
N814 C810 1.427 . S
N814 C811 1.384 . S
N815 C807 1.427 . S
N815 C813 1.384 . S
H816 C822 0.930 . S
H817 C826 0.930 . S
H818 C831 0.929 . S
H819 C829 0.929 . S
H820 C824 0.929 . S
H821 C830 0.929 . S
C822 H816 0.930 . S
C822 C823 1.367 . S
C822 C830 1.378 . S
C823 C822 1.367 . S
C823 C831 1.433 . S
C824 H820 0.929 . S
C824 C826 1.378 . S
C824 C828 1.350 . S
C825 C828 1.463 . S
C825 C830 1.350 . S
C825 N833 1.427 . S
C826 H817 0.930 . S
C826 C824 1.378 . S
C826 C827 1.367 . S
C827 C826 1.367 . S
C827 C829 1.433 . S
C828 C824 1.350 . S
C828 C825 1.463 . S
C828 N832 1.427 . S
C829 H819 0.929 . S
C829 C827 1.433 . S
C829 N832 1.384 . S
C830 H821 0.929 . S
C830 C822 1.378 . S
C830 C825 1.350 . S
C831 H818 0.929 . S
C831 C823 1.433 . S
C831 N833 1.384 . S
N832 C828 1.427 . S
N832 C829 1.384 . S
N833 C825 1.427 . S
N833 C831 1.384 . S
H834 C840 0.930 . S
H835 C844 0.930 . S
H836 C849 0.929 . S
H837 C847 0.929 . S
H838 C842 0.929 . S
H839 C848 0.929 . S
C840 H834 0.930 . S
C840 C841 1.367 . S
C840 C848 1.378 . S
C841 C840 1.367 . S
C841 C849 1.433 . S
C842 H838 0.929 . S
C842 C844 1.378 . S
C842 C846 1.350 . S
C843 C846 1.463 . S
C843 C848 1.350 . S
C843 N851 1.427 . S
C844 H835 0.930 . S
C844 C842 1.378 . S
C844 C845 1.367 . S
C845 C844 1.367 . S
C845 C847 1.433 . S
C846 C842 1.350 . S
C846 C843 1.463 . S
C846 N850 1.427 . S
C847 H837 0.929 . S
C847 C845 1.433 . S
C847 N850 1.384 . S
C848 H839 0.929 . S
C848 C840 1.378 . S
C848 C843 1.350 . S
C849 H836 0.929 . S
C849 C841 1.433 . S
C849 N851 1.384 . S
N850 C846 1.427 . S
N850 C847 1.384 . S
N851 C843 1.427 . S
N851 C849 1.384 . S
H852 C858 0.930 . S
H853 C862 0.930 . S
H854 C867 0.929 . S
H855 C865 0.929 . S
H856 C860 0.929 . S
H857 C866 0.929 . S
C858 H852 0.930 . S
C858 C859 1.367 . S
C858 C866 1.378 . S
C859 C858 1.367 . S
C859 C867 1.433 . S
C860 H856 0.929 . S
C860 C862 1.378 . S
C860 C864 1.350 . S
C861 C864 1.463 . S
C861 C866 1.350 . S
C861 N869 1.427 . S
C862 H853 0.930 . S
C862 C860 1.378 . S
C862 C863 1.367 . S
C863 C862 1.367 . S
C863 C865 1.433 . S
C864 C860 1.350 . S
C864 C861 1.463 . S
C864 N868 1.427 . S
C865 H855 0.929 . S
C865 C863 1.433 . S
C865 N868 1.384 . S
C866 H857 0.929 . S
C866 C858 1.378 . S
C866 C861 1.350 . S
C867 H854 0.929 . S
C867 C859 1.433 . S
C867 N869 1.384 . S
N868 C864 1.427 . S
N868 C865 1.384 . S
N869 C861 1.427 . S
N869 C867 1.384 . S
H870 C876 0.930 . S
H871 C880 0.930 . S
H872 C885 0.929 . S
H873 C883 0.929 . S
H874 C878 0.929 . S
H875 C884 0.929 . S
C876 H870 0.930 . S
C876 C877 1.367 . S
C876 C884 1.378 . S
C877 C876 1.367 . S
C877 C885 1.433 . S
C878 H874 0.929 . S
C878 C880 1.378 . S
C878 C882 1.350 . S
C879 C882 1.463 . S
C879 C884 1.350 . S
C879 N887 1.427 . S
C880 H871 0.930 . S
C880 C878 1.378 . S
C880 C881 1.367 . S
C881 C880 1.367 . S
C881 C883 1.433 . S
C882 C878 1.350 . S
C882 C879 1.463 . S
C882 N886 1.427 . S
C883 H873 0.929 . S
C883 C881 1.433 . S
C883 N886 1.384 . S
C884 H875 0.929 . S
C884 C876 1.378 . S
C884 C879 1.350 . S
C885 H872 0.929 . S
C885 C877 1.433 . S
C885 N887 1.384 . S
N886 C882 1.427 . S
N886 C883 1.384 . S
N887 C879 1.427 . S
N887 C885 1.384 . S
H888 C894 0.930 . S
H889 C898 0.930 . S
H890 C903 0.929 . S
H891 C901 0.929 . S
H892 C896 0.929 . S
H893 C902 0.929 . S
C894 H888 0.930 . S
C894 C895 1.367 . S
C894 C902 1.378 . S
C895 C894 1.367 . S
C895 C903 1.433 . S
C896 H892 0.929 . S
C896 C898 1.378 . S
C896 C900 1.350 . S
C897 C900 1.463 . S
C897 C902 1.350 . S
C897 N905 1.427 . S
C898 H889 0.930 . S
C898 C896 1.378 . S
C898 C899 1.367 . S
C899 C898 1.367 . S
C899 C901 1.433 . S
C900 C896 1.350 . S
C900 C897 1.463 . S
C900 N904 1.427 . S
C901 H891 0.929 . S
C901 C899 1.433 . S
C901 N904 1.384 . S
C902 H893 0.929 . S
C902 C894 1.378 . S
C902 C897 1.350 . S
C903 H890 0.929 . S
C903 C895 1.433 . S
C903 N905 1.384 . S
N904 C900 1.427 . S
N904 C901 1.384 . S
N905 C897 1.427 . S
N905 C903 1.384 . S
H906 C912 0.930 . S
H907 C916 0.930 . S
H908 C921 0.929 . S
H909 C919 0.929 . S
H910 C914 0.929 . S
H911 C920 0.929 . S
C912 H906 0.930 . S
C912 C913 1.367 . S
C912 C920 1.378 . S
C913 C912 1.367 . S
C913 C921 1.433 . S
C914 H910 0.929 . S
C914 C916 1.378 . S
C914 C918 1.350 . S
C915 C918 1.463 . S
C915 C920 1.350 . S
C915 N923 1.427 . S
C916 H907 0.930 . S
C916 C914 1.378 . S
C916 C917 1.367 . S
C917 C916 1.367 . S
C917 C919 1.433 . S
C918 C914 1.350 . S
C918 C915 1.463 . S
C918 N922 1.427 . S
C919 H909 0.929 . S
C919 C917 1.433 . S
C919 N922 1.384 . S
C920 H911 0.929 . S
C920 C912 1.378 . S
C920 C915 1.350 . S
C921 H908 0.929 . S
C921 C913 1.433 . S
C921 N923 1.384 . S
N922 C918 1.427 . S
N922 C919 1.384 . S
N923 C915 1.427 . S
N923 C921 1.384 . S
H924 C930 0.930 . S
H925 C934 0.930 . S
H926 C939 0.929 . S
H927 C937 0.929 . S
H928 C932 0.929 . S
H929 C938 0.929 . S
C930 H924 0.930 . S
C930 C931 1.367 . S
C930 C938 1.378 . S
C931 C930 1.367 . S
C931 C939 1.433 . S
C932 H928 0.929 . S
C932 C934 1.378 . S
C932 C936 1.350 . S
C933 C936 1.463 1_655 S
C933 C938 1.350 . S
C933 N941 1.427 . S
C934 H925 0.930 . S
C934 C932 1.378 . S
C934 C935 1.367 . S
C935 C934 1.367 . S
C935 C937 1.433 . S
C936 C932 1.350 . S
C936 C933 1.463 1_455 S
C936 N940 1.427 . S
C937 H927 0.929 . S
C937 C935 1.433 . S
C937 N940 1.384 . S
C938 H929 0.929 . S
C938 C930 1.378 . S
C938 C933 1.350 . S
C939 H926 0.929 . S
C939 C931 1.433 . S
C939 N941 1.384 . S
N940 C936 1.427 . S
N940 C937 1.384 . S
N941 C933 1.427 . S
N941 C939 1.384 . S
H942 C948 0.930 . S
H943 C952 0.930 . S
H944 C957 0.929 . S
H945 C955 0.929 . S
H946 C950 0.929 . S
H947 C956 0.929 . S
C948 H942 0.930 . S
C948 C949 1.367 . S
C948 C956 1.378 . S
C949 C948 1.367 . S
C949 C957 1.433 . S
C950 H946 0.929 . S
C950 C952 1.378 . S
C950 C954 1.350 . S
C951 C954 1.463 1_545 S
C951 C956 1.350 . S
C951 N959 1.427 . S
C952 H943 0.930 . S
C952 C950 1.378 . S
C952 C953 1.367 . S
C953 C952 1.367 . S
C953 C955 1.433 . S
C954 C950 1.350 . S
C954 C951 1.463 1_565 S
C954 N958 1.427 . S
C955 H945 0.929 . S
C955 C953 1.433 . S
C955 N958 1.384 . S
C956 H947 0.929 . S
C956 C948 1.378 . S
C956 C951 1.350 . S
C957 H944 0.929 . S
C957 C949 1.433 . S
C957 N959 1.384 . S
N958 C954 1.427 . S
N958 C955 1.384 . S
N959 C951 1.427 . S
N959 C957 1.384 . S
H960 C966 0.930 . S
H961 C970 0.930 . S
H962 C975 0.929 . S
H963 C973 0.929 . S
H964 C968 0.929 . S
H965 C974 0.929 . S
C966 H960 0.930 . S
C966 C967 1.367 . S
C966 C974 1.378 . S
C967 C966 1.367 . S
C967 C975 1.433 . S
C968 H964 0.929 . S
C968 C970 1.378 . S
C968 C972 1.350 . S
C969 C972 1.463 . S
C969 C974 1.350 . S
C969 N977 1.427 . S
C970 H961 0.930 . S
C970 C968 1.378 . S
C970 C971 1.367 . S
C971 C970 1.367 . S
C971 C973 1.433 . S
C972 C968 1.350 . S
C972 C969 1.463 . S
C972 N976 1.427 . S
C973 H963 0.929 . S
C973 C971 1.433 . S
C973 N976 1.384 . S
C974 H965 0.929 . S
C974 C966 1.378 . S
C974 C969 1.350 . S
C975 H962 0.929 . S
C975 C967 1.433 . S
C975 N977 1.384 . S
N976 C972 1.427 . S
N976 C973 1.384 . S
N977 C969 1.427 . S
N977 C975 1.384 . S
H978 C984 0.930 . S
H979 C988 0.930 . S
H980 C993 0.929 . S
H981 C991 0.929 . S
H982 C986 0.929 . S
H983 C992 0.929 . S
C984 H978 0.930 . S
C984 C985 1.367 . S
C984 C992 1.378 . S
C985 C984 1.367 . S
C985 C993 1.433 . S
C986 H982 0.929 . S
C986 C988 1.378 . S
C986 C990 1.350 . S
C987 C990 1.463 1_545 S
C987 C992 1.350 . S
C987 N995 1.427 . S
C988 H979 0.930 . S
C988 C986 1.378 . S
C988 C989 1.367 . S
C989 C988 1.367 . S
C989 C991 1.433 . S
C990 C986 1.350 . S
C990 C987 1.463 1_565 S
C990 N994 1.427 . S
C991 H981 0.929 . S
C991 C989 1.433 . S
C991 N994 1.384 . S
C992 H983 0.929 . S
C992 C984 1.378 . S
C992 C987 1.350 . S
C993 H980 0.929 . S
C993 C985 1.433 . S
C993 N995 1.384 . S
N994 C990 1.427 . S
N994 C991 1.384 . S
N995 C987 1.427 . S
N995 C993 1.384 . S
H996 C1002 0.930 . S
H997 C1006 0.930 . S
H998 C1011 0.929 . S
H999 C1009 0.929 . S
H1000 C1004 0.929 . S
H1001 C1010 0.929 . S
C1002 H996 0.930 . S
C1002 C1003 1.367 . S
C1002 C1010 1.378 . S
C1003 C1002 1.367 . S
C1003 C1011 1.433 . S
C1004 H1000 0.929 . S
C1004 C1006 1.378 . S
C1004 C1008 1.350 . S
C1005 C1008 1.463 . S
C1005 C1010 1.350 . S
C1005 N1013 1.427 . S
C1006 H997 0.930 . S
C1006 C1004 1.378 . S
C1006 C1007 1.367 . S
C1007 C1006 1.367 . S
C1007 C1009 1.433 . S
C1008 C1004 1.350 . S
C1008 C1005 1.463 . S
C1008 N1012 1.427 . S
C1009 H999 0.929 . S
C1009 C1007 1.433 . S
C1009 N1012 1.384 . S
C1010 H1001 0.929 . S
C1010 C1002 1.378 . S
C1010 C1005 1.350 . S
C1011 H998 0.929 . S
C1011 C1003 1.433 . S
C1011 N1013 1.384 . S
N1012 C1008 1.427 . S
N1012 C1009 1.384 . S
N1013 C1005 1.427 . S
N1013 C1011 1.384 . S
H1014 C1020 0.930 . S
H1015 C1024 0.930 . S
H1016 C1029 0.929 . S
H1017 C1027 0.929 . S
H1018 C1022 0.929 . S
H1019 C1028 0.929 . S
C1020 H1014 0.930 . S
C1020 C1021 1.367 . S
C1020 C1028 1.378 . S
C1021 C1020 1.367 . S
C1021 C1029 1.433 . S
C1022 H1018 0.929 . S
C1022 C1024 1.378 . S
C1022 C1026 1.350 . S
C1023 C1026 1.463 1_455 S
C1023 C1028 1.350 . S
C1023 N1031 1.427 . S
C1024 H1015 0.930 . S
C1024 C1022 1.378 . S
C1024 C1025 1.367 . S
C1025 C1024 1.367 . S
C1025 C1027 1.433 . S
C1026 C1022 1.350 . S
C1026 C1023 1.463 1_655 S
C1026 N1030 1.427 . S
C1027 H1017 0.929 . S
C1027 C1025 1.433 . S
C1027 N1030 1.384 . S
C1028 H1019 0.929 . S
C1028 C1020 1.378 . S
C1028 C1023 1.350 . S
C1029 H1016 0.929 . S
C1029 C1021 1.433 . S
C1029 N1031 1.384 . S
N1030 C1026 1.427 . S
N1030 C1027 1.384 . S
N1031 C1023 1.427 . S
N1031 C1029 1.384 . S
H1032 C1038 0.930 . S
H1033 C1042 0.930 . S
H1034 C1047 0.929 . S
H1035 C1045 0.929 . S
H1036 C1040 0.929 . S
H1037 C1046 0.929 . S
C1038 H1032 0.930 . S
C1038 C1039 1.367 . S
C1038 C1046 1.378 . S
C1039 C1038 1.367 . S
C1039 C1047 1.433 . S
C1040 H1036 0.929 . S
C1040 C1042 1.378 . S
C1040 C1044 1.350 . S
C1041 C1044 1.463 . S
C1041 C1046 1.350 . S
C1041 N1049 1.427 . S
C1042 H1033 0.930 . S
C1042 C1040 1.378 . S
C1042 C1043 1.367 . S
C1043 C1042 1.367 . S
C1043 C1045 1.433 . S
C1044 C1040 1.350 . S
C1044 C1041 1.463 . S
C1044 N1048 1.427 . S
C1045 H1035 0.929 . S
C1045 C1043 1.433 . S
C1045 N1048 1.384 . S
C1046 H1037 0.929 . S
C1046 C1038 1.378 . S
C1046 C1041 1.350 . S
C1047 H1034 0.929 . S
C1047 C1039 1.433 . S
C1047 N1049 1.384 . S
N1048 C1044 1.427 . S
N1048 C1045 1.384 . S
N1049 C1041 1.427 . S
N1049 C1047 1.384 . S
H1050 C1056 0.930 . S
H1051 C1060 0.930 . S
H1052 C1065 0.929 . S
H1053 C1063 0.929 . S
H1054 C1058 0.929 . S
H1055 C1064 0.929 . S
C1056 H1050 0.930 . S
C1056 C1057 1.367 . S
C1056 C1064 1.378 . S
C1057 C1056 1.367 . S
C1057 C1065 1.433 . S
C1058 H1054 0.929 . S
C1058 C1060 1.378 . S
C1058 C1062 1.350 . S
C1059 C1062 1.463 1_655 S
C1059 C1064 1.350 . S
C1059 N1067 1.427 . S
C1060 H1051 0.930 . S
C1060 C1058 1.378 . S
C1060 C1061 1.367 . S
C1061 C1060 1.367 . S
C1061 C1063 1.433 . S
C1062 C1058 1.350 . S
C1062 C1059 1.463 1_455 S
C1062 N1066 1.427 . S
C1063 H1053 0.929 . S
C1063 C1061 1.433 . S
C1063 N1066 1.384 . S
C1064 H1055 0.929 . S
C1064 C1056 1.378 . S
C1064 C1059 1.350 . S
C1065 H1052 0.929 . S
C1065 C1057 1.433 . S
C1065 N1067 1.384 . S
N1066 C1062 1.427 . S
N1066 C1063 1.384 . S
N1067 C1059 1.427 . S
N1067 C1065 1.384 . S
H1068 C1074 0.930 . S
H1069 C1078 0.930 . S
H1070 C1083 0.929 . S
H1071 C1081 0.929 . S
H1072 C1076 0.929 . S
H1073 C1082 0.929 . S
C1074 H1068 0.930 . S
C1074 C1075 1.367 . S
C1074 C1082 1.378 . S
C1075 C1074 1.367 . S
C1075 C1083 1.433 . S
C1076 H1072 0.929 . S
C1076 C1078 1.378 . S
C1076 C1080 1.350 . S
C1077 C1080 1.463 1_545 S
C1077 C1082 1.350 . S
C1077 N1085 1.427 . S
C1078 H1069 0.930 . S
C1078 C1076 1.378 . S
C1078 C1079 1.367 . S
C1079 C1078 1.367 . S
C1079 C1081 1.433 . S
C1080 C1076 1.350 . S
C1080 C1077 1.463 1_565 S
C1080 N1084 1.427 . S
C1081 H1071 0.929 . S
C1081 C1079 1.433 . S
C1081 N1084 1.384 . S
C1082 H1073 0.929 . S
C1082 C1074 1.378 . S
C1082 C1077 1.350 . S
C1083 H1070 0.929 . S
C1083 C1075 1.433 . S
C1083 N1085 1.384 . S
N1084 C1080 1.427 . S
N1084 C1081 1.384 . S
N1085 C1077 1.427 . S
N1085 C1083 1.384 . S
H1086 C1092 0.930 . S
H1087 C1096 0.930 . S
H1088 C1101 0.929 . S
H1089 C1099 0.929 . S
H1090 C1094 0.929 . S
H1091 C1100 0.929 . S
C1092 H1086 0.930 . S
C1092 C1093 1.367 . S
C1092 C1100 1.378 . S
C1093 C1092 1.367 . S
C1093 C1101 1.433 . S
C1094 H1090 0.929 . S
C1094 C1096 1.378 . S
C1094 C1098 1.350 . S
C1095 C1098 1.463 . S
C1095 C1100 1.350 . S
C1095 N1103 1.427 . S
C1096 H1087 0.930 . S
C1096 C1094 1.378 . S
C1096 C1097 1.367 . S
C1097 C1096 1.367 . S
C1097 C1099 1.433 . S
C1098 C1094 1.350 . S
C1098 C1095 1.463 . S
C1098 N1102 1.427 . S
C1099 H1089 0.929 . S
C1099 C1097 1.433 . S
C1099 N1102 1.384 . S
C1100 H1091 0.929 . S
C1100 C1092 1.378 . S
C1100 C1095 1.350 . S
C1101 H1088 0.929 . S
C1101 C1093 1.433 . S
C1101 N1103 1.384 . S
N1102 C1098 1.427 . S
N1102 C1099 1.384 . S
N1103 C1095 1.427 . S
N1103 C1101 1.384 . S
H1104 C1110 0.930 . S
H1105 C1114 0.930 . S
H1106 C1119 0.929 . S
H1107 C1117 0.929 . S
H1108 C1112 0.929 . S
H1109 C1118 0.929 . S
C1110 H1104 0.930 . S
C1110 C1111 1.367 . S
C1110 C1118 1.378 . S
C1111 C1110 1.367 . S
C1111 C1119 1.433 . S
C1112 H1108 0.929 . S
C1112 C1114 1.378 . S
C1112 C1116 1.350 . S
C1113 C1116 1.463 1_455 S
C1113 C1118 1.350 . S
C1113 N1121 1.427 . S
C1114 H1105 0.930 . S
C1114 C1112 1.378 . S
C1114 C1115 1.367 . S
C1115 C1114 1.367 . S
C1115 C1117 1.433 . S
C1116 C1112 1.350 . S
C1116 C1113 1.463 1_655 S
C1116 N1120 1.427 . S
C1117 H1107 0.929 . S
C1117 C1115 1.433 . S
C1117 N1120 1.384 . S
C1118 H1109 0.929 . S
C1118 C1110 1.378 . S
C1118 C1113 1.350 . S
C1119 H1106 0.929 . S
C1119 C1111 1.433 . S
C1119 N1121 1.384 . S
N1120 C1116 1.427 . S
N1120 C1117 1.384 . S
N1121 C1113 1.427 . S
N1121 C1119 1.384 . S
H1122 C1128 0.930 . S
H1123 C1132 0.930 . S
H1124 C1137 0.929 . S
H1125 C1135 0.929 . S
H1126 C1130 0.929 . S
H1127 C1136 0.929 . S
C1128 H1122 0.930 . S
C1128 C1129 1.367 . S
C1128 C1136 1.378 . S
C1129 C1128 1.367 . S
C1129 C1137 1.433 . S
C1130 H1126 0.929 . S
C1130 C1132 1.378 . S
C1130 C1134 1.350 . S
C1131 C1134 1.463 1_565 S
C1131 C1136 1.350 . S
C1131 N1139 1.427 . S
C1132 H1123 0.930 . S
C1132 C1130 1.378 . S
C1132 C1133 1.367 . S
C1133 C1132 1.367 . S
C1133 C1135 1.433 . S
C1134 C1130 1.350 . S
C1134 C1131 1.463 1_545 S
C1134 N1138 1.427 . S
C1135 H1125 0.929 . S
C1135 C1133 1.433 . S
C1135 N1138 1.384 . S
C1136 H1127 0.929 . S
C1136 C1128 1.378 . S
C1136 C1131 1.350 . S
C1137 H1124 0.929 . S
C1137 C1129 1.433 . S
C1137 N1139 1.384 . S
N1138 C1134 1.427 . S
N1138 C1135 1.384 . S
N1139 C1131 1.427 . S
N1139 C1137 1.384 . S
C715 C593 1.386 . S
C719 C3 1.394 . S
C733 C62 1.392 . S
C737 C652 1.393 . S
C751 C121 1.394 . S
C755 C357 1.386 . S
C769 C180 1.395 . S
C773 C416 1.389 . S
C787 C475 1.394 . S
C791 C239 1.386 . S
C805 C298 1.386 . S
C809 C534 1.394 . S
C823 C505 1.281 . S
C827 C33 1.277 . S
C841 C92 1.280 . S
C845 C564 1.284 . S
C859 C151 1.283 . S
C863 C623 1.279 . S
C877 C210 1.278 . S
C881 C682 1.276 . S
C895 C387 1.279 . S
C899 C269 1.284 . S
C913 C446 1.291 . S
C917 C328 1.291 . S
C931 C229 1.664 . S
C935 C52 1.668 . S
C949 C111 1.666 . S
C953 C288 1.665 . S
C967 C347 1.666 . S
C971 C170 1.667 . S
C985 C583 1.665 . S
C989 C406 1.668 . S
C1003 C642 1.668 . S
C1007 C465 1.664 . S
C1021 C524 1.665 . S
C1025 C701 1.668 . S
C1039 C182 1.288 . S
C1043 C5 1.289 . S
C1057 C64 1.291 . S
C1061 C241 1.290 . S
C1075 C300 1.290 . S
C1079 C123 1.291 . S
C1093 C359 1.288 . S
C1097 C536 1.289 . S
C1111 C595 1.289 . S
C1115 C418 1.290 . S
C1129 C477 1.290 . S
C1133 C654 1.289 . S
