# Generated by pormake.
# Topology gme, (4)-cn, num edge types: 1
# Building blocks:
#     Node 0, Type 0, BuildingBlock: GALJAG_clean_sbu_0, # of connection points: 4
#     Node 1, Type 0, BuildingBlock: GALJAG_clean_sbu_0, # of connection points: 4
#     Node 2, Type 0, BuildingBlock: GALJAG_clean_sbu_0, # of connection points: 4
#     Node 3, Type 0, BuildingBlock: GALJAG_clean_sbu_0, # of connection points: 4
#     Node 4, Type 0, BuildingBlock: GALJAG_clean_sbu_0, # of connection points: 4
#     Node 5, Type 0, BuildingBlock: GALJAG_clean_sbu_0, # of connection points: 4
#     Node 6, Type 0, BuildingBlock: GALJAG_clean_sbu_0, # of connection points: 4
#     Node 7, Type 0, BuildingBlock: GALJAG_clean_sbu_0, # of connection points: 4
#     Node 8, Type 0, BuildingBlock: GALJAG_clean_sbu_0, # of connection points: 4
#     Node 9, Type 0, BuildingBlock: GALJAG_clean_sbu_0, # of connection points: 4
#     Node 10, Type 0, BuildingBlock: GALJAG_clean_sbu_0, # of connection points: 4
#     Node 11, Type 0, BuildingBlock: GALJAG_clean_sbu_0, # of connection points: 4
#     Node 12, Type 0, BuildingBlock: GALJAG_clean_sbu_0, # of connection points: 4
#     Node 13, Type 0, BuildingBlock: GALJAG_clean_sbu_0, # of connection points: 4
#     Node 14, Type 0, BuildingBlock: GALJAG_clean_sbu_0, # of connection points: 4
#     Node 15, Type 0, BuildingBlock: GALJAG_clean_sbu_0, # of connection points: 4
#     Node 16, Type 0, BuildingBlock: GALJAG_clean_sbu_0, # of connection points: 4
#     Node 17, Type 0, BuildingBlock: GALJAG_clean_sbu_0, # of connection points: 4
#     Node 18, Type 0, BuildingBlock: GALJAG_clean_sbu_0, # of connection points: 4
#     Node 19, Type 0, BuildingBlock: GALJAG_clean_sbu_0, # of connection points: 4
#     Node 20, Type 0, BuildingBlock: GALJAG_clean_sbu_0, # of connection points: 4
#     Node 21, Type 0, BuildingBlock: GALJAG_clean_sbu_0, # of connection points: 4
#     Node 22, Type 0, BuildingBlock: GALJAG_clean_sbu_0, # of connection points: 4
#     Node 23, Type 0, BuildingBlock: GALJAG_clean_sbu_0, # of connection points: 4
#     Edge 24, Type (0, 0), BuildingBlock: EZIPEK_clean_linker_0, # of connection points: 2
#     Edge 25, Type (0, 0), BuildingBlock: EZIPEK_clean_linker_0, # of connection points: 2
#     Edge 26, Type (0, 0), BuildingBlock: EZIPEK_clean_linker_0, # of connection points: 2
#     Edge 27, Type (0, 0), BuildingBlock: EZIPEK_clean_linker_0, # of connection points: 2
#     Edge 28, Type (0, 0), BuildingBlock: EZIPEK_clean_linker_0, # of connection points: 2
#     Edge 29, Type (0, 0), BuildingBlock: EZIPEK_clean_linker_0, # of connection points: 2
#     Edge 30, Type (0, 0), BuildingBlock: EZIPEK_clean_linker_0, # of connection points: 2
#     Edge 31, Type (0, 0), BuildingBlock: EZIPEK_clean_linker_0, # of connection points: 2
#     Edge 32, Type (0, 0), BuildingBlock: EZIPEK_clean_linker_0, # of connection points: 2
#     Edge 33, Type (0, 0), BuildingBlock: EZIPEK_clean_linker_0, # of connection points: 2
#     Edge 34, Type (0, 0), BuildingBlock: EZIPEK_clean_linker_0, # of connection points: 2
#     Edge 35, Type (0, 0), BuildingBlock: EZIPEK_clean_linker_0, # of connection points: 2
#     Edge 36, Type (0, 0), BuildingBlock: EZIPEK_clean_linker_0, # of connection points: 2
#     Edge 37, Type (0, 0), BuildingBlock: EZIPEK_clean_linker_0, # of connection points: 2
#     Edge 38, Type (0, 0), BuildingBlock: EZIPEK_clean_linker_0, # of connection points: 2
#     Edge 39, Type (0, 0), BuildingBlock: EZIPEK_clean_linker_0, # of connection points: 2
#     Edge 40, Type (0, 0), BuildingBlock: EZIPEK_clean_linker_0, # of connection points: 2
#     Edge 41, Type (0, 0), BuildingBlock: EZIPEK_clean_linker_0, # of connection points: 2
#     Edge 42, Type (0, 0), BuildingBlock: EZIPEK_clean_linker_0, # of connection points: 2
#     Edge 43, Type (0, 0), BuildingBlock: EZIPEK_clean_linker_0, # of connection points: 2
#     Edge 44, Type (0, 0), BuildingBlock: EZIPEK_clean_linker_0, # of connection points: 2
#     Edge 45, Type (0, 0), BuildingBlock: EZIPEK_clean_linker_0, # of connection points: 2
#     Edge 46, Type (0, 0), BuildingBlock: EZIPEK_clean_linker_0, # of connection points: 2
#     Edge 47, Type (0, 0), BuildingBlock: EZIPEK_clean_linker_0, # of connection points: 2
#     Edge 48, Type (0, 0), BuildingBlock: EZIPEK_clean_linker_0, # of connection points: 2
#     Edge 49, Type (0, 0), BuildingBlock: EZIPEK_clean_linker_0, # of connection points: 2
#     Edge 50, Type (0, 0), BuildingBlock: EZIPEK_clean_linker_0, # of connection points: 2
#     Edge 51, Type (0, 0), BuildingBlock: EZIPEK_clean_linker_0, # of connection points: 2
#     Edge 52, Type (0, 0), BuildingBlock: EZIPEK_clean_linker_0, # of connection points: 2
#     Edge 53, Type (0, 0), BuildingBlock: EZIPEK_clean_linker_0, # of connection points: 2
#     Edge 54, Type (0, 0), BuildingBlock: EZIPEK_clean_linker_0, # of connection points: 2
#     Edge 55, Type (0, 0), BuildingBlock: EZIPEK_clean_linker_0, # of connection points: 2
#     Edge 56, Type (0, 0), BuildingBlock: EZIPEK_clean_linker_0, # of connection points: 2
#     Edge 57, Type (0, 0), BuildingBlock: EZIPEK_clean_linker_0, # of connection points: 2
#     Edge 58, Type (0, 0), BuildingBlock: EZIPEK_clean_linker_0, # of connection points: 2
#     Edge 59, Type (0, 0), BuildingBlock: EZIPEK_clean_linker_0, # of connection points: 2
#     Edge 60, Type (0, 0), BuildingBlock: EZIPEK_clean_linker_0, # of connection points: 2
#     Edge 61, Type (0, 0), BuildingBlock: EZIPEK_clean_linker_0, # of connection points: 2
#     Edge 62, Type (0, 0), BuildingBlock: EZIPEK_clean_linker_0, # of connection points: 2
#     Edge 63, Type (0, 0), BuildingBlock: EZIPEK_clean_linker_0, # of connection points: 2
#     Edge 64, Type (0, 0), BuildingBlock: EZIPEK_clean_linker_0, # of connection points: 2
#     Edge 65, Type (0, 0), BuildingBlock: EZIPEK_clean_linker_0, # of connection points: 2
#     Edge 66, Type (0, 0), BuildingBlock: EZIPEK_clean_linker_0, # of connection points: 2
#     Edge 67, Type (0, 0), BuildingBlock: EZIPEK_clean_linker_0, # of connection points: 2
#     Edge 68, Type (0, 0), BuildingBlock: EZIPEK_clean_linker_0, # of connection points: 2
#     Edge 69, Type (0, 0), BuildingBlock: EZIPEK_clean_linker_0, # of connection points: 2
#     Edge 70, Type (0, 0), BuildingBlock: EZIPEK_clean_linker_0, # of connection points: 2
#     Edge 71, Type (0, 0), BuildingBlock: EZIPEK_clean_linker_0, # of connection points: 2
# Relax obj value: 0.080
# Max RMSD: 0.062
# Mean RMSD: 0.062
data_MOF--net-gme--node1-GALJAG_clean_sbu_0--edge1-EZIPEK_clean_linker_0
_symmetry_space_group_name_H-M    P1
_symmetry_Int_Tables_number       1
_symmetry_cell_setting            triclinic
loop_
_symmetry_equiv_pos_as_xyz
'x, y, z'
_cell_length_a     42.475479
_cell_length_b     42.486225
_cell_length_c     40.869042
_cell_angle_alpha  89.98043
_cell_angle_beta   90.01191
_cell_angle_gamma 120.01015
loop_
_atom_site_label
_atom_site_type_symbol
_atom_site_fract_x
_atom_site_fract_y
_atom_site_fract_z
_atom_type_partial_charge
In0 In 0.39892 0.07262 0.11521 0.0
O1 O 0.35886 0.0323 0.15324 0.0
O2 O 0.40431 0.08162 0.16987 0.0
C3 C 0.37556 0.0389 0.05754 0.0
C4 C 0.38806 0.12944 0.10816 0.0
C5 C 0.46165 0.07166 0.11554 0.0
O6 O 0.35831 0.02505 0.0838 0.0
O7 O 0.40372 0.06973 0.06041 0.0
O8 O 0.46086 0.10094 0.11362 0.0
O9 O 0.431 0.04316 0.11753 0.0
C10 C 0.37651 0.05201 0.17724 0.0
O11 O 0.41859 0.13312 0.1155 0.0
O12 O 0.36308 0.09708 0.10361 0.0
In13 In 0.32974 0.40189 0.6223 0.0
O14 O 0.29085 0.4238 0.61927 0.0
O15 O 0.26823 0.36631 0.61743 0.0
C16 C 0.39246 0.46574 0.62089 0.0
C17 C 0.32719 0.38007 0.68454 0.0
C18 C 0.33925 0.37426 0.5665 0.0
O19 O 0.36228 0.46322 0.61418 0.0
O20 O 0.39107 0.43631 0.62843 0.0
O21 O 0.34406 0.36419 0.5942 0.0
O22 O 0.32921 0.39755 0.56694 0.0
C23 C 0.26273 0.39288 0.61705 0.0
O24 O 0.32468 0.36001 0.6607 0.0
O25 O 0.33083 0.41045 0.67697 0.0
In26 In 0.92465 0.32949 0.12105 0.0
O27 O 0.96174 0.32697 0.16073 0.0
O28 O 0.91413 0.32792 0.1755 0.0
C29 C 0.962 0.33849 0.06552 0.0
C30 C 0.86573 0.26335 0.1138 0.0
C31 C 0.9271 0.39384 0.12089 0.0
O32 O 0.97389 0.33538 0.09297 0.0
O33 O 0.93129 0.33622 0.06605 0.0
O34 O 0.89807 0.3643 0.11568 0.0
O35 O 0.95485 0.39107 0.12623 0.0
C36 C 0.94209 0.32688 0.18397 0.0
O37 O 0.86377 0.29193 0.11578 0.0
O38 O 0.89743 0.26793 0.11512 0.0
In39 In 0.59522 0.92381 0.62048 0.0
O40 O 0.57292 0.8629 0.61975 0.0
O41 O 0.6305 0.89731 0.61803 0.0
C42 C 0.53225 0.92446 0.61998 0.0
C43 C 0.61797 0.94669 0.68167 0.0
C44 C 0.62141 0.95648 0.56259 0.0
O45 O 0.53365 0.89588 0.615 0.0
O46 O 0.56242 0.95264 0.62549 0.0
O47 O 0.63726 0.97083 0.58918 0.0
O48 O 0.59319 0.92578 0.56524 0.0
C49 C 0.60373 0.86537 0.61842 0.0
O50 O 0.6358 0.96506 0.65714 0.0
O51 O 0.58922 0.91743 0.67532 0.0
In52 In 0.66591 0.59282 0.1168 0.0
O53 O 0.66105 0.63005 0.15497 0.0
O54 O 0.67429 0.59037 0.17105 0.0
C55 C 0.66017 0.62219 0.06017 0.0
C56 C 0.7316 0.59806 0.11226 0.0
C57 C 0.60194 0.53033 0.11784 0.0
O58 O 0.67119 0.64053 0.08625 0.0
O59 O 0.65249 0.58956 0.06277 0.0
O60 O 0.63112 0.53175 0.10904 0.0
O61 O 0.60486 0.56032 0.12606 0.0
C62 C 0.66823 0.61554 0.17866 0.0
O63 O 0.70277 0.5682 0.11686 0.0
O64 O 0.72745 0.62531 0.10933 0.0
In65 In 0.07338 0.66711 0.62141 0.0
O66 O 0.0351 0.67084 0.6591 0.0
O67 O 0.08118 0.6683 0.67619 0.0
C68 C 0.03943 0.65878 0.56374 0.0
C69 C 0.13173 0.73392 0.6164 0.0
C70 C 0.07323 0.60377 0.62281 0.0
O71 O 0.02419 0.65748 0.59067 0.0
O72 O 0.07165 0.66504 0.56597 0.0
O73 O 0.10216 0.63406 0.62066 0.0
O74 O 0.04436 0.60529 0.62444 0.0
C75 C 0.05344 0.67038 0.68326 0.0
O76 O 0.13406 0.70548 0.61607 0.0
O77 O 0.09993 0.72891 0.61893 0.0
In78 In 0.92775 0.59401 0.38372 0.0
O79 O 0.96417 0.63441 0.34426 0.0
O80 O 0.91785 0.58456 0.32945 0.0
C81 C 0.96466 0.62267 0.43959 0.0
C82 C 0.86914 0.60223 0.38686 0.0
C83 C 0.92762 0.53074 0.38391 0.0
O84 O 0.97884 0.63451 0.41189 0.0
O85 O 0.93216 0.59719 0.43909 0.0
O86 O 0.90034 0.53304 0.39256 0.0
O87 O 0.95504 0.56021 0.37524 0.0
C88 C 0.94508 0.61422 0.32101 0.0
O89 O 0.86695 0.57153 0.38794 0.0
O90 O 0.90097 0.62908 0.38485 0.0
In91 In 0.33424 0.92947 0.87659 0.0
O92 O 0.29563 0.8687 0.88014 0.0
O93 O 0.27246 0.90312 0.87966 0.0
C94 C 0.39745 0.92943 0.87607 0.0
C95 C 0.33348 0.94973 0.81451 0.0
C96 C 0.34134 0.96405 0.93353 0.0
O97 O 0.3675 0.90131 0.88238 0.0
O98 O 0.39566 0.95758 0.86987 0.0
O99 O 0.33649 0.97601 0.90683 0.0
O100 O 0.34197 0.93481 0.93149 0.0
C101 C 0.26728 0.87119 0.88081 0.0
O102 O 0.33863 0.97095 0.83816 0.0
O103 O 0.32859 0.91891 0.82221 0.0
In104 In 0.40565 0.33295 0.38463 0.0
O105 O 0.4284 0.29478 0.38628 0.0
O106 O 0.3706 0.2713 0.38535 0.0
C107 C 0.46905 0.3962 0.38459 0.0
C108 C 0.38235 0.32915 0.32298 0.0
C109 C 0.37896 0.33969 0.44224 0.0
O110 O 0.46698 0.36649 0.39245 0.0
O111 O 0.43934 0.39409 0.37685 0.0
O112 O 0.37094 0.34899 0.41556 0.0
O113 O 0.39901 0.32584 0.43965 0.0
C114 C 0.39753 0.26632 0.38598 0.0
O115 O 0.36301 0.32789 0.34704 0.0
O116 O 0.41259 0.3322 0.33014 0.0
In117 In 0.07161 0.40602 0.88426 0.0
O118 O 0.13244 0.42807 0.88193 0.0
O119 O 0.09843 0.37154 0.89166 0.0
C120 C 0.07244 0.46968 0.8862 0.0
C121 C 0.05153 0.38296 0.82239 0.0
C122 C 0.03755 0.37974 0.94174 0.0
O123 O 0.10028 0.4673 0.89248 0.0
O124 O 0.04428 0.4401 0.87917 0.0
O125 O 0.0205 0.37124 0.91485 0.0
O126 O 0.07145 0.40025 0.93933 0.0
C127 C 0.13028 0.3978 0.88745 0.0
O128 O 0.03524 0.36258 0.8465 0.0
O129 O 0.07739 0.41398 0.82959 0.0
In130 In 0.66507 0.07044 0.38478 0.0
O131 O 0.7033 0.13001 0.39529 0.0
O132 O 0.72625 0.09549 0.38941 0.0
C133 C 0.60137 0.06965 0.38268 0.0
C134 C 0.66746 0.05776 0.32062 0.0
C135 C 0.6577 0.03297 0.43963 0.0
O136 O 0.63144 0.09884 0.38549 0.0
O137 O 0.60346 0.04114 0.38145 0.0
O138 O 0.66447 0.02323 0.41249 0.0
O139 O 0.65551 0.06148 0.4389 0.0
C140 C 0.73158 0.12724 0.39405 0.0
O141 O 0.65281 0.03192 0.34096 0.0
O142 O 0.68219 0.08904 0.33297 0.0
In143 In 0.59884 0.66793 0.87824 0.0
O144 O 0.63381 0.65901 0.84056 0.0
O145 O 0.59863 0.67794 0.82393 0.0
C146 C 0.62714 0.66167 0.93522 0.0
C147 C 0.60467 0.73358 0.88304 0.0
C148 C 0.5355 0.60491 0.87721 0.0
O149 O 0.64592 0.67254 0.90938 0.0
O150 O 0.59479 0.65473 0.93228 0.0
O151 O 0.53753 0.63459 0.88507 0.0
O152 O 0.56525 0.60695 0.86961 0.0
C153 C 0.62143 0.66837 0.81668 0.0
O154 O 0.57447 0.70476 0.88003 0.0
O155 O 0.63211 0.72951 0.88409 0.0
In156 In 0.59531 0.92703 0.87975 0.0
O157 O 0.63871 0.9648 0.8429 0.0
O158 O 0.58752 0.92296 0.82504 0.0
C159 C 0.62112 0.96008 0.9376 0.0
C160 C 0.60262 0.86795 0.88323 0.0
C161 C 0.53249 0.92778 0.8783 0.0
O162 O 0.6345 0.976 0.91081 0.0
O163 O 0.59571 0.92764 0.93513 0.0
O164 O 0.53349 0.89859 0.87869 0.0
O165 O 0.56302 0.95658 0.87859 0.0
C166 C 0.61865 0.9491 0.8185 0.0
O167 O 0.57241 0.86641 0.88684 0.0
O168 O 0.62937 0.89927 0.8782 0.0
In169 In 0.66771 0.59567 0.37869 0.0
O170 O 0.67272 0.6376 0.34026 0.0
O171 O 0.66542 0.58677 0.32398 0.0
C172 C 0.65877 0.62347 0.43465 0.0
C173 C 0.7343 0.60339 0.3833 0.0
C174 C 0.60501 0.53196 0.38053 0.0
O175 O 0.65698 0.63579 0.40701 0.0
O176 O 0.66599 0.5981 0.43407 0.0
O177 O 0.63553 0.53408 0.38385 0.0
O178 O 0.60595 0.56182 0.37622 0.0
C179 C 0.66942 0.61726 0.31643 0.0
O180 O 0.70581 0.57286 0.38087 0.0
O181 O 0.7295 0.63039 0.38367 0.0
In182 In 0.073 0.66934 0.8825 0.0
O183 O 0.13393 0.7073 0.88033 0.0
O184 O 0.10023 0.731 0.88643 0.0
C185 C 0.07344 0.60625 0.88413 0.0
C186 C 0.05299 0.67258 0.82084 0.0
C187 C 0.03852 0.66153 0.93981 0.0
O188 O 0.09971 0.63563 0.89456 0.0
O189 O 0.04716 0.60869 0.87275 0.0
O190 O 0.02184 0.65413 0.91279 0.0
O191 O 0.07232 0.67417 0.93767 0.0
C192 C 0.13195 0.73581 0.88351 0.0
O193 O 0.03496 0.67379 0.84499 0.0
O194 O 0.08037 0.66982 0.8279 0.0
In195 In 0.40289 0.07107 0.37699 0.0
O196 O 0.42545 0.13197 0.37671 0.0
O197 O 0.36858 0.09813 0.38508 0.0
C198 C 0.46595 0.07074 0.37741 0.0
C199 C 0.38034 0.05109 0.31502 0.0
C200 C 0.3766 0.03548 0.43375 0.0
O201 O 0.46411 0.0987 0.3844 0.0
O202 O 0.43616 0.04309 0.36977 0.0
O203 O 0.35986 0.02325 0.40704 0.0
O204 O 0.40565 0.06559 0.43184 0.0
C205 C 0.39526 0.12992 0.38201 0.0
O206 O 0.36326 0.03083 0.33893 0.0
O207 O 0.40811 0.08076 0.32238 0.0
In208 In 0.33383 0.40835 0.88275 0.0
O209 O 0.29691 0.43265 0.88497 0.0
O210 O 0.27223 0.37477 0.88465 0.0
C211 C 0.39851 0.4701 0.8815 0.0
C212 C 0.32998 0.3829 0.82181 0.0
C213 C 0.33995 0.38404 0.94196 0.0
O214 O 0.3689 0.47009 0.88448 0.0
O215 O 0.39553 0.43914 0.87921 0.0
O216 O 0.34778 0.37352 0.91585 0.0
O217 O 0.32791 0.40549 0.93799 0.0
C218 C 0.26798 0.40215 0.88558 0.0
O219 O 0.32568 0.36329 0.84658 0.0
O220 O 0.3362 0.41455 0.82791 0.0
In221 In 0.92406 0.33008 0.38458 0.0
O222 O 0.96313 0.3291 0.34601 0.0
O223 O 0.9144 0.32705 0.32998 0.0
C224 C 0.95939 0.34037 0.44155 0.0
C225 C 0.86643 0.26306 0.39171 0.0
C226 C 0.92463 0.39351 0.38363 0.0
O227 O 0.97213 0.33617 0.415 0.0
O228 O 0.92909 0.33887 0.43932 0.0
O229 O 0.89598 0.36361 0.38887 0.0
O230 O 0.95289 0.39151 0.37865 0.0
C231 C 0.9433 0.32749 0.32228 0.0
O232 O 0.86328 0.29075 0.38747 0.0
O233 O 0.89864 0.26902 0.39275 0.0
In234 In 0.07038 0.40306 0.62214 0.0
O235 O 0.13082 0.42236 0.62202 0.0
O236 O 0.09454 0.36676 0.61071 0.0
C237 C 0.07214 0.46721 0.62332 0.0
C238 C 0.05121 0.38073 0.68435 0.0
C239 C 0.03427 0.37809 0.56557 0.0
O240 O 0.09952 0.46458 0.61564 0.0
O241 O 0.044 0.43767 0.63058 0.0
O242 O 0.02197 0.36102 0.59217 0.0
O243 O 0.0645 0.40702 0.56761 0.0
C244 C 0.12698 0.39174 0.61492 0.0
O245 O 0.0297 0.36475 0.66083 0.0
O246 O 0.08181 0.40681 0.67631 0.0
In247 In 0.66164 0.07261 0.11569 0.0
O248 O 0.65445 0.03505 0.15907 0.0
O249 O 0.67211 0.09083 0.16815 0.0
C250 C 0.65621 0.03582 0.06084 0.0
C251 C 0.72874 0.12959 0.10871 0.0
C252 C 0.59644 0.06893 0.11579 0.0
O253 O 0.66156 0.02555 0.08832 0.0
O254 O 0.6542 0.06442 0.06117 0.0
O255 O 0.62593 0.09864 0.11247 0.0
O256 O 0.59986 0.04123 0.11846 0.0
C257 C 0.66349 0.06017 0.17992 0.0
O258 O 0.70061 0.13235 0.10542 0.0
O259 O 0.72305 0.0979 0.11425 0.0
In260 In 0.59377 0.66264 0.61829 0.0
O261 O 0.63804 0.66953 0.65485 0.0
O262 O 0.58589 0.65649 0.673 0.0
C263 C 0.6192 0.65542 0.56019 0.0
C264 C 0.60268 0.72972 0.61707 0.0
C265 C 0.52941 0.60059 0.61733 0.0
O266 O 0.63015 0.64927 0.58689 0.0
O267 O 0.59618 0.66573 0.56291 0.0
O268 O 0.53193 0.63143 0.61553 0.0
O269 O 0.55923 0.60093 0.61937 0.0
C270 C 0.61765 0.66332 0.67936 0.0
O271 O 0.57182 0.70155 0.61925 0.0
O272 O 0.62925 0.72432 0.61527 0.0
In273 In 0.92712 0.59277 0.11977 0.0
O274 O 0.86655 0.56915 0.11212 0.0
O275 O 0.89904 0.6266 0.11803 0.0
C276 C 0.92886 0.53043 0.12029 0.0
C277 C 0.94443 0.61321 0.18255 0.0
C278 C 0.96334 0.6225 0.06387 0.0
O279 O 0.89963 0.5311 0.11766 0.0
O280 O 0.9573 0.56105 0.12272 0.0
O281 O 0.97622 0.63621 0.09151 0.0
O282 O 0.93226 0.59452 0.0644 0.0
C283 C 0.8678 0.59937 0.11387 0.0
O284 O 0.96497 0.63191 0.15937 0.0
O285 O 0.91577 0.58493 0.17407 0.0
In286 In 0.33445 0.9272 0.61551 0.0
O287 O 0.33386 0.9676 0.65266 0.0
O288 O 0.33406 0.92046 0.67026 0.0
C289 C 0.34169 0.95993 0.55748 0.0
C290 C 0.26734 0.86885 0.61286 0.0
C291 C 0.3978 0.92743 0.61642 0.0
O292 O 0.34046 0.97446 0.58407 0.0
O293 O 0.33858 0.92894 0.56016 0.0
O294 O 0.36755 0.89859 0.61337 0.0
O295 O 0.39626 0.95624 0.61878 0.0
C296 C 0.33388 0.94925 0.67699 0.0
O297 O 0.29561 0.8663 0.61468 0.0
O298 O 0.27265 0.90082 0.6119 0.0
In299 In 0.40115 0.33273 0.12141 0.0
O300 O 0.36096 0.32751 0.16177 0.0
O301 O 0.41115 0.33157 0.17566 0.0
C302 C 0.37389 0.34486 0.06683 0.0
C303 C 0.38896 0.26481 0.11189 0.0
C304 C 0.46501 0.39531 0.12043 0.0
O305 O 0.36072 0.34426 0.09473 0.0
O306 O 0.40011 0.33887 0.06651 0.0
O307 O 0.46279 0.36484 0.11605 0.0
O308 O 0.4352 0.39431 0.1254 0.0
C309 C 0.38147 0.32864 0.1847 0.0
O310 O 0.42033 0.29165 0.11656 0.0
O311 O 0.36372 0.27227 0.11132 0.0
C312 C 0.38023 0.0207 0.26255 0.0
C313 C 0.36897 0.04186 0.28058 0.0
C314 C 0.35284 0.06133 0.23002 0.0
C315 C 0.36631 0.04212 0.21187 0.0
N316 N 0.38466 0.99701 0.2096 0.0
N317 N 0.33681 0.07496 0.2832 0.0
C318 C 0.37698 0.01931 0.22782 0.0
C319 C 0.35251 0.05964 0.26477 0.0
N320 N 0.39595 0.0038 0.27857 0.0
N321 N 0.34179 0.08229 0.21384 0.0
H322 H 0.33625 0.0739 0.30872 0.0
H323 H 0.32198 0.08619 0.2735 0.0
H324 H 0.33972 0.08213 0.18841 0.0
H325 H 0.3357 0.10049 0.22524 0.0
H326 H 0.40874 0.99147 0.26688 0.0
H327 H 0.39753 0.00337 0.30404 0.0
H328 H 0.38998 0.97761 0.21956 0.0
H329 H 0.38295 0.99598 0.18412 0.0
C330 C 0.29648 0.34806 0.73636 0.0
C331 C 0.32903 0.37078 0.71906 0.0
C332 C 0.36336 0.38863 0.77038 0.0
C333 C 0.33006 0.37141 0.78772 0.0
N334 N 0.26523 0.33189 0.78888 0.0
N335 N 0.39401 0.40973 0.71806 0.0
C336 C 0.2967 0.34952 0.77121 0.0
C337 C 0.36279 0.38971 0.73566 0.0
N338 N 0.26549 0.32575 0.71932 0.0
N339 N 0.39535 0.40389 0.78743 0.0
H340 H 0.3946 0.40896 0.69256 0.0
H341 H 0.41908 0.42773 0.72838 0.0
H342 H 0.39615 0.40287 0.81293 0.0
H343 H 0.42087 0.41489 0.77663 0.0
H344 H 0.24116 0.30669 0.73013 0.0
H345 H 0.26486 0.32451 0.69382 0.0
H346 H 0.23936 0.31875 0.77861 0.0
H347 H 0.26506 0.33118 0.8144 0.0
C348 C 0.96478 0.36183 0.23598 0.0
C349 C 0.95204 0.32859 0.21884 0.0
C350 C 0.94331 0.29593 0.27052 0.0
C351 C 0.95362 0.32871 0.28758 0.0
N352 N 0.9835 0.39391 0.2879 0.0
N353 N 0.93665 0.26587 0.21815 0.0
C354 C 0.96755 0.36209 0.27063 0.0
C355 C 0.94403 0.29622 0.23565 0.0
N356 N 0.97288 0.39279 0.2191 0.0
N357 N 0.93145 0.26445 0.28782 0.0
H358 H 0.93664 0.26543 0.19263 0.0
H359 H 0.93293 0.24191 0.22857 0.0
H360 H 0.93291 0.26415 0.31329 0.0
H361 H 0.91955 0.23872 0.27732 0.0
H362 H 0.97793 0.41693 0.23015 0.0
H363 H 0.97318 0.39396 0.19359 0.0
H364 H 0.99679 0.41956 0.27718 0.0
H365 H 0.98615 0.39458 0.31333 0.0
C366 C 0.61239 0.97577 0.73255 0.0
C367 C 0.6287 0.95841 0.71576 0.0
C368 C 0.64899 0.94547 0.76749 0.0
C369 C 0.62984 0.9599 0.7843 0.0
N370 N 0.60227 0.99733 0.78445 0.0
N371 N 0.66973 0.9349 0.71529 0.0
C372 C 0.61463 0.9781 0.76723 0.0
C373 C 0.64972 0.94622 0.73269 0.0
N374 N 0.59336 0.98838 0.7153 0.0
N375 N 0.66463 0.92938 0.78489 0.0
H376 H 0.67037 0.93513 0.68975 0.0
H377 H 0.68767 0.92788 0.7258 0.0
H378 H 0.66589 0.93009 0.8104 0.0
H379 H 0.67544 0.91454 0.77441 0.0
H380 H 0.57712 0.99746 0.72602 0.0
H381 H 0.59293 0.98867 0.68977 0.0
H382 H 0.59295 0.01336 0.77372 0.0
H383 H 0.60416 -0.00046 0.80991 0.0
C384 C 0.70436 0.63889 0.26441 0.0
C385 C 0.67173 0.6282 0.28185 0.0
C386 C 0.63826 0.61858 0.23058 0.0
C387 C 0.67041 0.62695 0.21314 0.0
N388 N 0.7355 0.65421 0.21195 0.0
N389 N 0.61047 0.61717 0.28303 0.0
C390 C 0.70403 0.64025 0.22968 0.0
C391 C 0.63964 0.62143 0.26533 0.0
N392 N 0.7352 0.64629 0.28114 0.0
N393 N 0.60608 0.60554 0.21415 0.0
H394 H 0.61089 0.61879 0.30852 0.0
H395 H 0.58716 0.61514 0.2726 0.0
H396 H 0.60426 0.60384 0.18871 0.0
H397 H 0.58091 0.5948 0.22561 0.0
H398 H 0.75879 0.64979 0.27005 0.0
H399 H 0.73672 0.64769 0.30664 0.0
H400 H 0.76134 0.66688 0.2223 0.0
H401 H 0.73583 0.65586 0.18645 0.0
C402 C 0.06786 0.70682 0.73452 0.0
C403 C 0.04495 0.67398 0.71764 0.0
C404 C 0.01915 0.64269 0.7695 0.0
C405 C 0.04394 0.67482 0.78635 0.0
N406 N 0.08455 0.73937 0.78633 0.0
N407 N 0.99318 0.6135 0.71737 0.0
C408 C 0.0658 0.70763 0.7692 0.0
C409 C 0.01841 0.6429 0.73465 0.0
N410 N 0.09251 0.73671 0.71735 0.0
N411 N 0.99797 0.61159 0.78686 0.0
H412 H 0.99258 0.6129 0.69185 0.0
H413 H 0.97129 0.59091 0.728 0.0
H414 H 0.99707 0.61114 0.81238 0.0
H415 H 0.98229 0.58609 0.7763 0.0
H416 H 0.1131 0.7602 0.72814 0.0
H417 H 0.09309 0.73753 0.69182 0.0
H418 H 0.09915 0.76488 0.77551 0.0
H419 H 0.08301 0.7404 0.81177 0.0
C420 C 0.97813 0.6186 0.23456 0.0
C421 C 0.95195 0.62362 0.21737 0.0
C422 C 0.92747 0.63174 0.26889 0.0
C423 C 0.95219 0.62457 0.28614 0.0
N424 N 0.00623 0.61969 0.28675 0.0
N425 N 0.90804 0.6436 0.21663 0.0
C426 C 0.97951 0.62116 0.26934 0.0
C427 C 0.92869 0.6331 0.23415 0.0
N428 N -3e-05 0.6091 0.21775 0.0
N429 N 0.90216 0.63609 0.28587 0.0
H430 H 0.90883 0.64516 0.19113 0.0
H431 H 0.89242 0.65354 0.22711 0.0
H432 H 0.90237 0.6379 0.31135 0.0
H433 H 0.88035 0.6368 0.27506 0.0
H434 H 0.01665 0.60079 0.22887 0.0
H435 H 0.0002 0.60786 0.19227 0.0
H436 H 0.02879 0.62031 0.27611 0.0
H437 H 0.00734 0.62071 0.31224 0.0
C438 C 0.29922 0.94231 0.76314 0.0
C439 C 0.33289 0.95938 0.77994 0.0
C440 C 0.36553 0.9815 0.72804 0.0
C441 C 0.3325 0.95924 0.71128 0.0
N442 N 0.26756 0.92 0.71139 0.0
N443 N 0.39817 0.99625 0.77972 0.0
C444 C 0.29908 0.94059 0.72842 0.0
C445 C 0.36609 0.98003 0.76281 0.0
N446 N 0.26755 0.92771 0.78063 0.0
N447 N 0.39628 0.0034 0.71052 0.0
H448 H 0.39932 0.99657 0.80523 0.0
H449 H 0.42365 0.00805 0.76872 0.0
H450 H 0.39639 0.00452 0.68501 0.0
H451 H 0.42082 0.02244 0.72103 0.0
H452 H 0.24193 0.91715 0.7701 0.0
H453 H 0.26716 0.92885 0.80614 0.0
H454 H 0.24278 0.90212 0.72226 0.0
H455 H 0.26651 0.91994 0.68587 0.0
C456 C 0.37205 0.35458 0.27129 0.0
C457 C 0.37038 0.32486 0.28856 0.0
C458 C 0.36795 0.29423 0.23728 0.0
C459 C 0.37138 0.32467 0.21975 0.0
N460 N 0.36829 0.37982 0.21901 0.0
N461 N 0.35582 0.26249 0.28924 0.0
C462 C 0.3702 0.35337 0.23645 0.0
C463 C 0.36459 0.2933 0.27183 0.0
N464 N 0.3777 0.38476 0.28813 0.0
N465 N 0.36939 0.2669 0.22096 0.0
H466 H 0.35276 0.26122 0.31464 0.0
H467 H 0.34825 0.23747 0.27855 0.0
H468 H 0.37038 0.26594 0.19555 0.0
H469 H 0.37157 0.24623 0.2325 0.0
H470 H 0.38362 0.40917 0.27706 0.0
H471 H 0.37799 0.38586 0.31364 0.0
H472 H 0.36409 0.39968 0.22962 0.0
H473 H 0.36821 0.3804 0.19351 0.0
C474 C 0.06665 0.36128 0.73615 0.0
C475 C 0.04283 0.3697 0.71905 0.0
C476 C 0.01537 0.37224 0.77107 0.0
C477 C 0.04399 0.37116 0.78788 0.0
N478 N 0.09749 0.36517 0.787 0.0
N479 N 0.99394 0.38304 0.71947 0.0
C480 C 0.0695 0.36523 0.7706 0.0
C481 C 0.01634 0.37427 0.73622 0.0
N482 N 0.08644 0.34942 0.71919 0.0
N483 N 0.98791 0.37221 0.78848 0.0
H484 H 0.99356 0.3842 0.69401 0.0
H485 H 0.97707 0.39102 0.73073 0.0
H486 H 0.98709 0.3714 0.814 0.0
H487 H 0.96459 0.36986 0.77779 0.0
H488 H 0.10219 0.33993 0.73026 0.0
H489 H 0.08395 0.3456 0.69393 0.0
H490 H 0.11948 0.36544 0.77547 0.0
H491 H 0.09978 0.36706 0.81238 0.0
C492 C 0.67787 0.03579 0.26664 0.0
C493 C 0.66212 0.05287 0.28482 0.0
C494 C 0.64063 0.06669 0.23415 0.0
C495 C 0.66063 0.05423 0.21578 0.0
N496 N 0.7011 0.0298 0.21411 0.0
N497 N 0.62985 0.08642 0.28614 0.0
C498 C 0.67955 0.03895 0.23184 0.0
C499 C 0.64373 0.06864 0.26864 0.0
N500 N 0.69182 0.01722 0.28262 0.0
N501 N 0.61769 0.07574 0.21866 0.0
H502 H 0.62837 0.08614 0.31157 0.0
H503 H 0.62142 0.10326 0.27551 0.0
H504 H 0.61519 0.07588 0.19337 0.0
H505 H 0.59868 0.08011 0.23085 0.0
H506 H 0.70019 0.00096 0.27078 0.0
H507 H 0.69259 0.01586 0.30806 0.0
H508 H 0.71878 0.02241 0.22462 0.0
H509 H 0.70352 0.03225 0.18874 0.0
C510 C 0.64752 0.69896 0.7298 0.0
C511 C 0.62954 0.66497 0.71352 0.0
C512 C 0.61491 0.63272 0.76588 0.0
C513 C 0.63089 0.66673 0.7822 0.0
N514 N 0.67069 0.73144 0.78111 0.0
N515 N 0.60469 0.60028 0.7144 0.0
C516 C 0.65011 0.69966 0.7645 0.0
C517 C 0.61627 0.63205 0.73114 0.0
N518 N 0.66014 0.73036 0.71219 0.0
N519 N 0.59647 0.60125 0.78346 0.0
H520 H 0.60549 0.59938 0.6889 0.0
H521 H 0.5973 0.57551 0.72556 0.0
H522 H 0.59593 0.60072 0.80897 0.0
H523 H 0.58039 0.57579 0.77294 0.0
H524 H 0.66943 0.75581 0.72271 0.0
H525 H 0.65982 0.73074 0.68667 0.0
H526 H 0.68767 0.75623 0.7698 0.0
H527 H 0.67318 0.73229 0.80655 0.0
C528 C 0.40531 0.18965 0.0829 0.0
C529 C 0.38268 0.16117 0.10469 0.0
C530 C 0.35905 0.19865 0.12763 0.0
C531 C 0.38284 0.22763 0.10677 0.0
N532 N 0.42015 0.24753 0.05842 0.0
N533 N 0.33154 0.13496 0.1419 0.0
C534 C 0.4035 0.22216 0.08255 0.0
C535 C 0.35727 0.16441 0.12498 0.0
N536 N 0.42863 0.1856 0.06258 0.0
N537 N 0.33972 0.20432 0.15135 0.0
H538 H 0.33002 0.10978 0.14202 0.0
H539 H 0.30964 0.13446 0.15382 0.0
H540 H 0.33827 0.22796 0.15314 0.0
H541 H 0.32653 0.18635 0.17054 0.0
H542 H 0.44934 0.20689 0.04947 0.0
H543 H 0.42807 0.16095 0.05957 0.0
H544 H 0.43291 0.24391 0.03822 0.0
H545 H 0.41813 0.27098 0.05682 0.0
C546 C 0.18627 0.4078 0.58836 0.0
C547 C 0.15869 0.38638 0.61133 0.0
C548 C 0.19863 0.36738 0.63701 0.0
C549 C 0.22605 0.38844 0.61383 0.0
N550 N 0.24301 0.42093 0.56259 0.0
N551 N 0.1348 0.33766 0.65101 0.0
C552 C 0.21901 0.40642 0.58803 0.0
C553 C 0.16354 0.36335 0.63342 0.0
N554 N 0.18115 0.42954 0.5669 0.0
N555 N 0.20665 0.35316 0.66364 0.0
H556 H 0.10857 0.33343 0.6488 0.0
H557 H 0.1361 0.31793 0.66513 0.0
H558 H 0.23224 0.35619 0.66774 0.0
H559 H 0.18896 0.34124 0.68328 0.0
H560 H 0.20186 0.44939 0.55261 0.0
H561 H 0.15631 0.42871 0.56427 0.0
H562 H 0.23784 0.4313 0.54148 0.0
H563 H 0.26677 0.41948 0.56111 0.0
C564 C 0.81141 0.21791 0.0822 0.0
C565 C 0.83289 0.22713 0.11101 0.0
C566 C 0.78677 0.17149 0.13788 0.0
C567 C 0.76565 0.16179 0.10878 0.0
N568 N 0.76037 0.17138 0.05145 0.0
N569 N 0.84468 0.21053 0.16421 0.0
C570 C 0.77869 0.18379 0.08038 0.0
C571 C 0.82185 0.20304 0.13809 0.0
N572 N 0.8222 0.24197 0.05671 0.0
N573 N 0.77239 0.15193 0.16598 0.0
H574 H 0.86965 0.23444 0.16635 0.0
H575 H 0.84014 0.19197 0.18279 0.0
H576 H 0.74676 0.12875 0.16716 0.0
H577 H 0.78452 0.16015 0.18888 0.0
H578 H 0.80576 0.23904 0.03672 0.0
H579 H 0.84721 0.26606 0.0562 0.0
H580 H 0.77016 0.18432 0.02907 0.0
H581 H 0.73657 0.14627 0.04926 0.0
C582 C 0.61624 0.78761 0.58916 0.0
C583 C 0.60723 0.76643 0.61811 0.0
C584 C 0.59889 0.81169 0.64794 0.0
C585 C 0.60788 0.83293 0.61899 0.0
N586 N 0.63117 0.84516 0.56384 0.0
N587 N 0.59748 0.76081 0.67639 0.0
C588 C 0.61872 0.82226 0.59019 0.0
C589 C 0.60073 0.77922 0.64794 0.0
N590 N 0.62065 0.77377 0.56041 0.0
N591 N 0.58818 0.82243 0.67529 0.0
H592 H 0.59881 0.73696 0.67721 0.0
H593 H 0.59644 0.77049 0.69951 0.0
H594 H 0.58905 0.84735 0.67703 0.0
H595 H 0.5769 0.8061 0.69583 0.0
H596 H 0.62312 0.78582 0.53768 0.0
H597 H 0.61963 0.74876 0.55889 0.0
H598 H 0.64312 0.84083 0.5434 0.0
H599 H 0.63186 0.87004 0.5632 0.0
C600 C 0.78958 0.61115 0.08438 0.0
C601 C 0.76782 0.60118 0.11305 0.0
C602 C 0.81238 0.59128 0.14246 0.0
C603 C 0.83451 0.60203 0.11404 0.0
N604 N 0.84795 0.62775 0.05985 0.0
N605 N 0.76169 0.58972 0.17115 0.0
C606 C 0.82434 0.61389 0.08561 0.0
C607 C 0.7801 0.59344 0.14263 0.0
N608 N 0.77625 0.61631 0.05568 0.0
N609 N 0.82203 0.57859 0.16919 0.0
H610 H 0.7382 0.59166 0.17232 0.0
H611 H 0.77131 0.58802 0.19413 0.0
H612 H 0.84657 0.57866 0.17085 0.0
H613 H 0.80491 0.56607 0.18905 0.0
H614 H 0.78883 0.61964 0.03309 0.0
H615 H 0.75107 0.61481 0.05404 0.0
H616 H 0.84398 0.64047 0.0398 0.0
H617 H 0.87301 0.62881 0.05951 0.0
C618 C 0.21937 0.81653 0.64417 0.0
C619 C 0.23068 0.83655 0.61456 0.0
C620 C 0.17349 0.79266 0.58816 0.0
C621 C 0.16434 0.77045 0.61647 0.0
N622 N 0.17799 0.75992 0.67135 0.0
N623 N 0.22037 0.84391 0.55781 0.0
C624 C 0.18708 0.78208 0.64452 0.0
C625 C 0.20804 0.82496 0.58647 0.0
N626 N 0.23896 0.83115 0.6722 0.0
N627 N 0.1492 0.78273 0.56292 0.0
H628 H 0.24528 0.86796 0.55587 0.0
H629 H 0.20714 0.83486 0.53546 0.0
H630 H 0.12429 0.75853 0.56281 0.0
H631 H 0.15246 0.79942 0.54305 0.0
H632 H 0.23028 0.81989 0.69535 0.0
H633 H 0.26269 0.85644 0.67285 0.0
H634 H 0.19547 0.76461 0.69092 0.0
H635 H 0.15337 0.7356 0.67348 0.0
C636 C 0.81393 0.59294 0.35685 0.0
C637 C 0.83646 0.60599 0.38501 0.0
C638 C 0.7929 0.61958 0.41165 0.0
C639 C 0.7707 0.60699 0.38331 0.0
N640 N 0.7631 0.58927 0.32655 0.0
N641 N 0.85118 0.63716 0.4369 0.0
C642 C 0.78209 0.59582 0.3552 0.0
C643 C 0.82724 0.62129 0.41162 0.0
N644 N 0.82278 0.57742 0.3318 0.0
N645 N 0.78026 0.62803 0.43914 0.0
H646 H 0.87575 0.63729 0.4385 0.0
H647 H 0.84796 0.6523 0.45524 0.0
H648 H 0.75536 0.62728 0.43998 0.0
H649 H 0.79315 0.63345 0.46178 0.0
H650 H 0.80525 0.56318 0.31264 0.0
H651 H 0.84712 0.57705 0.33086 0.0
H652 H 0.77209 0.58498 0.3042 0.0
H653 H 0.73968 0.59125 0.32439 0.0
C654 C 0.17635 0.79453 0.91044 0.0
C655 C 0.16456 0.77228 0.88209 0.0
C656 C 0.21894 0.8163 0.85224 0.0
C657 C 0.23066 0.83869 0.88051 0.0
N658 N 0.21853 0.85307 0.93444 0.0
N659 N 0.16988 0.76466 0.8243 0.0
C660 C 0.20857 0.82914 0.90892 0.0
C661 C 0.18452 0.78394 0.85246 0.0
N662 N 0.15778 0.78171 0.93921 0.0
N663 N 0.24092 0.82585 0.82527 0.0
H664 H 0.14466 0.74085 0.82355 0.0
H665 H 0.18105 0.77362 0.80117 0.0
H666 H 0.26499 0.85069 0.82313 0.0
H667 H 0.23629 0.8086 0.80552 0.0
H668 H 0.16709 0.79465 0.96166 0.0
H669 H 0.13396 0.75662 0.9412 0.0
H670 H 0.2018 0.84955 0.95434 0.0
H671 H 0.24273 0.87796 0.93477 0.0
C672 C 0.39915 0.1835 0.35342 0.0
C673 C 0.39148 0.16259 0.38242 0.0
C674 C 0.38123 0.20676 0.41217 0.0
C675 C 0.39345 0.22977 0.38432 0.0
N676 N 0.4158 0.24165 0.32878 0.0
N677 N 0.37746 0.15447 0.44002 0.0
C678 C 0.40286 0.21857 0.35499 0.0
C679 C 0.38264 0.17399 0.41192 0.0
N680 N 0.40155 0.16915 0.32418 0.0
N681 N 0.36848 0.21636 0.43886 0.0
H682 H 0.3779 0.13015 0.44067 0.0
H683 H 0.37507 0.1634 0.4631 0.0
H684 H 0.36857 0.2409 0.44047 0.0
H685 H 0.35554 0.19907 0.45852 0.0
H686 H 0.40331 0.18132 0.30163 0.0
H687 H 0.39834 0.14323 0.32208 0.0
H688 H 0.42728 0.23692 0.30821 0.0
H689 H 0.41701 0.26677 0.32823 0.0
C690 C 0.20472 0.37786 0.86415 0.0
C691 C 0.23165 0.39872 0.88774 0.0
C692 C 0.19055 0.4163 0.91333 0.0
C693 C 0.16319 0.39433 0.89035 0.0
N694 N 0.14078 0.34563 0.85067 0.0
N695 N 0.24741 0.43043 0.93941 0.0
C696 C 0.16907 0.37221 0.86802 0.0
C697 C 0.22384 0.41595 0.91367 0.0
N698 N 0.21363 0.36521 0.83698 0.0
N699 N 0.18461 0.43728 0.93502 0.0
H700 H 0.27155 0.42971 0.94105 0.0
H701 H 0.24156 0.44007 0.96063 0.0
H702 H 0.15934 0.43543 0.93798 0.0
H703 H 0.20507 0.45751 0.94923 0.0
H704 H 0.19604 0.35323 0.81728 0.0
H705 H 0.23984 0.37007 0.83246 0.0
H706 H 0.14319 0.32669 0.8363 0.0
H707 H 0.11403 0.33971 0.85343 0.0
C708 C 0.79193 0.16863 0.36797 0.0
C709 C 0.76836 0.15958 0.39538 0.0
C710 C 0.81053 0.21757 0.42152 0.0
C711 C 0.83438 0.22625 0.39443 0.0
N712 N 0.85154 0.20788 0.34479 0.0
N713 N 0.75815 0.17112 0.45094 0.0
C714 C 0.82642 0.20089 0.36876 0.0
C715 C 0.77853 0.18284 0.42298 0.0
N716 N 0.78041 0.14787 0.34021 0.0
N717 N 0.81836 0.24269 0.44569 0.0
H718 H 0.73495 0.14551 0.45295 0.0
H719 H 0.76582 0.1852 0.47301 0.0
H720 H 0.84279 0.26735 0.44672 0.0
H721 H 0.80003 0.23996 0.46391 0.0
H722 H 0.7944 0.15557 0.31809 0.0
H723 H 0.75534 0.12414 0.33819 0.0
H724 H 0.84926 0.18855 0.32784 0.0
H725 H 0.8761 0.23223 0.3431 0.0
C726 C 0.61947 0.79212 0.85602 0.0
C727 C 0.60748 0.76957 0.88418 0.0
C728 C 0.59785 0.81449 0.91321 0.0
C729 C 0.60606 0.83509 0.88396 0.0
N730 N 0.62011 0.84182 0.82629 0.0
N731 N 0.583 0.75719 0.9389 0.0
C732 C 0.61605 0.82371 0.85508 0.0
C733 C 0.59603 0.78017 0.91262 0.0
N734 N 0.63381 0.78315 0.8301 0.0
N735 N 0.59308 0.8284 0.94176 0.0
H736 H 0.5832 0.73276 0.94008 0.0
H737 H 0.57016 0.76126 0.9588 0.0
H738 H 0.59459 0.85364 0.9431 0.0
H739 H 0.59069 0.81653 0.96458 0.0
H740 H 0.64681 0.80048 0.81047 0.0
H741 H 0.63508 0.75929 0.82918 0.0
H742 H 0.62343 0.83263 0.80366 0.0
H743 H 0.61715 0.86468 0.82444 0.0
C744 C 0.38479 0.99755 0.97856 0.0
C745 C 0.34992 0.98454 0.96452 0.0
C746 C 0.33225 0.00933 0.01061 0.0
C747 C 0.3659 0.01922 0.02601 0.0
N748 N 0.42135 0.01649 0.02772 0.0
N749 N 0.28858 0.97341 0.96851 0.0
C750 C 0.39144 0.01166 0.01082 0.0
C751 C 0.32309 0.98923 0.98085 0.0
N752 N 0.41199 0.99753 0.96063 0.0
N753 N 0.3097 0.02028 0.02377 0.0
H754 H 0.28108 0.95885 0.94661 0.0
H755 H 0.26678 0.97239 0.9811 0.0
H756 H 0.31554 0.035 0.04552 0.0
H757 H 0.28668 0.01731 0.01191 0.0
H758 H 0.43898 0.01023 0.96829 0.0
H759 H 0.40841 0.98792 0.93666 0.0
H760 H 0.43878 0.00773 0.01919 0.0
H761 H 0.42692 0.02599 0.05173 0.0
C762 C 0.33135 0.33018 0.48374 0.0
C763 C 0.36855 0.34745 0.47451 0.0
C764 C 0.38624 0.38216 0.52577 0.0
C765 C 0.34932 0.36355 0.53567 0.0
N766 N 0.28707 0.31728 0.52693 0.0
N767 N 0.43209 0.38657 0.48796 0.0
C768 C 0.32191 0.33684 0.51541 0.0
C769 C 0.39621 0.37231 0.49597 0.0
N770 N 0.30513 0.30749 0.46219 0.0
N771 N 0.41156 0.41048 0.54416 0.0
H772 H 0.44098 0.3825 0.46546 0.0
H773 H 0.45334 0.40087 0.50434 0.0
H774 H 0.40561 0.418 0.56658 0.0
H775 H 0.43791 0.42834 0.53626 0.0
H776 H 0.27743 0.29721 0.46574 0.0
H777 H 0.3111 0.30011 0.4397 0.0
H778 H 0.26627 0.29495 0.51495 0.0
H779 H 0.27937 0.32186 0.54989 0.0
C780 C 0.02724 0.3951 0.99861 0.0
C781 C 0.01921 0.36843 0.974 0.0
C782 C 0.97359 0.32149 0.00994 0.0
C783 C 0.98363 0.34771 0.03515 0.0
N784 N 0.02433 0.40787 0.05591 0.0
N785 N 0.99042 0.30514 0.95871 0.0
C786 C 0.01202 0.38394 0.0303 0.0
C787 C 0.99386 0.33126 0.98029 0.0
N788 N 0.04747 0.4313 0.99126 0.0
N789 N 0.94449 0.28735 0.01424 0.0
H790 H 0.00568 0.31107 0.93729 0.0
H791 H 0.97508 0.27739 0.9635 0.0
H792 H 0.93024 0.27865 0.03626 0.0
H793 H 0.93312 0.26841 0.99541 0.0
H794 H 0.05037 0.45181 0.00707 0.0
H795 H 0.05849 0.44116 0.96825 0.0
H796 H 0.04774 0.43333 0.05471 0.0
H797 H 0.01299 0.40133 0.07926 0.0
C798 C 0.61355 0.99829 0.48366 0.0
C799 C 0.64832 0.01072 0.46964 0.0
C800 C 0.66492 0.98476 0.51558 0.0
C801 C 0.63166 0.97608 0.5311 0.0
N802 N 0.57775 0.98148 0.53318 0.0
N803 N 0.70896 0.01982 0.47343 0.0
C804 C 0.60686 0.98468 0.51603 0.0
C805 C 0.67455 0.00491 0.4858 0.0
N806 N 0.58649 0.99849 0.46567 0.0
N807 N 0.68671 0.97293 0.52882 0.0
H808 H 0.71679 0.0344 0.45154 0.0
H809 H 0.7304 0.01996 0.48592 0.0
H810 H 0.68056 0.95844 0.55074 0.0
H811 H 0.70938 0.97506 0.51694 0.0
H812 H 0.55958 0.98632 0.47352 0.0
H813 H 0.59 0.00737 0.44145 0.0
H814 H 0.56085 0.99085 0.5245 0.0
H815 H 0.57264 0.97299 0.5575 0.0
C816 C 0.63756 0.65689 0.02665 0.0
C817 C 0.65647 0.63725 0.02854 0.0
C818 C 0.65791 0.63491 0.96865 0.0
C819 C 0.64108 0.65649 0.96681 0.0
N820 N 0.62466 0.69664 0.99396 0.0
N821 N 0.69394 0.61731 0.00141 0.0
C822 C 0.63406 0.67028 0.99582 0.0
C823 C 0.66962 0.62937 0.99954 0.0
N824 N 0.62086 0.66085 0.05364 0.0
N825 N 0.66076 0.61774 0.94148 0.0
H826 H 0.70412 0.6141 0.02358 0.0
H827 H 0.70701 0.61446 0.98099 0.0
H828 H 0.6515 0.61981 0.91843 0.0
H829 H 0.66915 0.59853 0.94248 0.0
H830 H 0.60352 0.67155 0.05255 0.0
H831 H 0.62121 0.65025 0.07653 0.0
H832 H 0.62248 0.71002 0.01446 0.0
H833 H 0.62302 0.70795 0.9718 0.0
C834 C 0.00551 0.67144 0.51996 0.0
C835 C 0.0201 0.65004 0.53198 0.0
C836 C 0.003 0.61476 0.48112 0.0
C837 C 0.98563 0.63399 0.47035 0.0
N838 N 0.96596 0.67732 0.48051 0.0
N839 N 0.02616 0.59665 0.52715 0.0
C840 C 0.98559 0.6614 0.49008 0.0
C841 C 0.01722 0.6205 0.51336 0.0
N842 N 0.01192 0.70211 0.53641 0.0
N843 N 0.00608 0.59114 0.46043 0.0
H844 H 0.03522 0.59892 0.55121 0.0
H845 H 0.02112 0.57252 0.51602 0.0
H846 H 0.99531 0.5856 0.43682 0.0
H847 H 0.0219 0.57934 0.4656 0.0
H848 H 0.00528 0.72089 0.52719 0.0
H849 H 0.02658 0.71039 0.55824 0.0
H850 H 0.96138 0.69446 0.49547 0.0
H851 H 0.95215 0.67147 0.45822 0.0
C852 C 0.66673 0.99437 0.98192 0.0
C853 C 0.63085 0.9791 0.96944 0.0
C854 C 0.61112 0.99508 0.01988 0.0
C855 C 0.64761 0.01367 0.03091 0.0
N856 N 0.71108 0.03468 0.02177 0.0
N857 N 0.57059 0.97131 0.97351 0.0
C858 C 0.67575 0.01426 0.01182 0.0
C859 C 0.60341 0.98102 0.98765 0.0
N860 N 0.69177 0.9889 0.96578 0.0
N861 N 0.5837 0.99033 0.04047 0.0
H862 H 0.56425 0.96231 0.9494 0.0
H863 H 0.55098 0.97572 0.98444 0.0
H864 H 0.58831 0.00013 0.06441 0.0
H865 H 0.55625 0.97369 0.03499 0.0
H866 H 0.71725 0.99615 0.97528 0.0
H867 H 0.68604 0.97449 0.94385 0.0
H868 H 0.73321 0.03962 0.00722 0.0
H869 H 0.71839 0.04868 0.04398 0.0
C870 C 0.67703 0.65584 0.4886 0.0
C871 C 0.64945 0.63496 0.46549 0.0
C872 C 0.60261 0.62478 0.50562 0.0
C873 C 0.63004 0.64825 0.52785 0.0
N874 N 0.69316 0.69126 0.53864 0.0
N875 N 0.5863 0.60547 0.44948 0.0
C876 C 0.66729 0.66518 0.5189 0.0
C877 C 0.61234 0.62153 0.47314 0.0
N878 N 0.71246 0.6665 0.48166 0.0
N879 N 0.56753 0.60369 0.51611 0.0
H880 H 0.59211 0.60171 0.42551 0.0
H881 H 0.55932 0.59868 0.4529 0.0
H882 H 0.55958 0.60354 0.54026 0.0
H883 H 0.54714 0.58337 0.5019 0.0
H884 H 0.73326 0.67801 0.49891 0.0
H885 H 0.72076 0.66188 0.45901 0.0
H886 H 0.72032 0.70719 0.53188 0.0
H887 H 0.687 0.69927 0.56071 0.0
C888 C 0.9769 0.65568 0.01031 0.0
C889 C 0.98453 0.63536 0.03328 0.0
C890 C 0.0252 0.63006 0.99411 0.0
C891 C 0.01974 0.65268 0.9719 0.0
N892 N 0.9954 0.69212 0.96079 0.0
N893 N 0.02027 0.6083 0.04969 0.0
C894 C 0.99684 0.66684 0.98046 0.0
C895 C 0.01019 0.62432 0.02604 0.0
N896 N 0.95037 0.66401 0.01696 0.0
N897 N 0.04286 0.61222 0.98411 0.0
H898 H 0.00905 0.60248 0.07312 0.0
H899 H 0.04189 0.60349 0.04702 0.0
H900 H 0.05366 0.61477 0.96075 0.0
H901 H 0.04378 0.59206 0.99786 0.0
H902 H 0.94042 0.67493 0.99975 0.0
H903 H 0.93675 0.65805 0.03933 0.0
H904 H 0.98216 0.70624 0.96727 0.0
H905 H 0.01008 0.70137 0.93905 0.0
C906 C 0.3825 0.98715 0.50922 0.0
C907 C 0.34994 0.97913 0.52574 0.0
C908 C 0.33473 0.00888 0.48201 0.0
C909 C 0.36588 0.01435 0.46448 0.0
N910 N 0.41548 0.00252 0.45799 0.0
N911 N 0.29224 0.97719 0.52618 0.0
C912 C 0.38863 0.00168 0.47711 0.0
C913 C 0.32523 0.98861 0.51171 0.0
N914 N 0.40836 0.98241 0.52478 0.0
N915 N 0.31501 0.02409 0.47085 0.0
H916 H 0.28445 0.96236 0.54794 0.0
H917 H 0.27149 0.97988 0.51541 0.0
H918 H 0.32093 0.03861 0.44896 0.0
H919 H 0.29445 0.02458 0.48431 0.0
H920 H 0.43427 0.9915 0.51533 0.0
H921 H 0.40536 0.97252 0.54861 0.0
H922 H 0.43043 0.99015 0.46454 0.0
H923 H 0.42059 0.01256 0.43412 0.0
C924 C 0.34278 0.32682 0.0124 0.0
C925 C 0.36123 0.35394 0.03653 0.0
C926 C 0.36624 0.40088 0.99867 0.0
C927 C 0.34608 0.37352 0.97496 0.0
N928 N 0.30807 0.30995 0.96198 0.0
N929 N 0.38475 0.41553 0.05529 0.0
C930 C 0.33237 0.3363 0.98256 0.0
C931 C 0.37084 0.39052 0.03057 0.0
N932 N 0.33548 0.29206 0.01792 0.0
N933 N 0.3831 0.43685 0.99024 0.0
H934 H 0.39021 0.40954 0.07862 0.0
H935 H 0.38821 0.44152 0.05349 0.0
H936 H 0.38114 0.44614 0.9672 0.0
H937 H 0.4019 0.45764 0.00516 0.0
H938 H 0.32622 0.27216 0.99981 0.0
H939 H 0.34068 0.28358 0.04022 0.0
H940 H 0.29434 0.28237 0.96772 0.0
H941 H 0.29878 0.31579 0.94047 0.0
C942 C 0.00617 0.33415 0.51887 0.0
C943 C 0.01378 0.36704 0.53449 0.0
C944 C 0.99027 0.38406 0.48713 0.0
C945 C 0.97965 0.34982 0.47273 0.0
N946 N 0.97256 0.28997 0.47639 0.0
N947 N 0.00654 0.41984 0.53676 0.0
C948 C 0.98629 0.32418 0.48896 0.0
C949 C 0.00401 0.39106 0.51953 0.0
N950 N 0.01907 0.31317 0.53193 0.0
N951 N 0.98846 0.41042 0.46939 0.0
H952 H 0.01551 0.42532 0.56095 0.0
H953 H 0.99636 0.43613 0.52831 0.0
H954 H 0.97933 0.40665 0.44524 0.0
H955 H -0.00067 0.43714 0.47739 0.0
H956 H 0.01788 0.29101 0.51987 0.0
H957 H 0.03355 0.31952 0.55386 0.0
H958 H 0.97297 0.26883 0.48889 0.0
H959 H 0.95821 0.28189 0.45439 0.0
C960 C 0.51968 0.08424 0.08815 0.0
C961 C 0.49592 0.07049 0.1155 0.0
C962 C 0.53622 0.05208 0.1419 0.0
C963 C 0.56043 0.06669 0.11486 0.0
N964 N 0.57166 0.0885 0.0593 0.0
N965 N 0.47981 0.04028 0.16789 0.0
C966 C 0.5513 0.08077 0.08724 0.0
C967 C 0.50363 0.05393 0.14217 0.0
N968 N 0.51184 0.10035 0.06289 0.0
N969 N 0.54493 0.03738 0.16772 0.0
H970 H 0.45792 0.04466 0.17084 0.0
H971 H 0.48092 0.02404 0.18635 0.0
H972 H 0.56637 0.03218 0.16726 0.0
H973 H 0.53144 0.03044 0.19005 0.0
H974 H 0.53018 0.11533 0.04447 0.0
H975 H 0.48732 0.10022 0.06082 0.0
H976 H 0.56475 0.0954 0.0371 0.0
H977 H 0.59405 0.08477 0.05726 0.0
C978 C 0.48288 0.54569 0.64763 0.0
C979 C 0.49398 0.5665 0.61836 0.0
C980 C 0.43941 0.52011 0.59024 0.0
C981 C 0.42706 0.50068 0.62009 0.0
N982 N 0.43334 0.4977 0.67848 0.0
N983 N 0.48085 0.57673 0.56317 0.0
C984 C 0.44786 0.5141 0.64915 0.0
C985 C 0.47154 0.55476 0.59011 0.0
N986 N 0.50572 0.55617 0.67404 0.0
N987 N 0.42147 0.50461 0.56171 0.0
H988 H 0.50486 0.60167 0.56154 0.0
H989 H 0.46358 0.57152 0.5433 0.0
H990 H 0.39808 0.47907 0.56069 0.0
H991 H 0.43142 0.51552 0.53867 0.0
H992 H 0.50117 0.53982 0.69449 0.0
H993 H 0.53048 0.58046 0.67489 0.0
H994 H 0.44547 0.50828 0.701 0.0
H995 H 0.40738 0.47508 0.68067 0.0
C996 C 0.91152 0.43752 0.147 0.0
C997 C 0.92841 0.42921 0.12109 0.0
C998 C 0.94502 0.4871 0.09423 0.0
C999 C 0.92958 0.49608 0.12088 0.0
N1000 N 0.90367 0.48349 0.17504 0.0
N1001 N 0.9648 0.44688 0.07197 0.0
C1002 C 0.91421 0.47223 0.14791 0.0
C1003 C 0.94644 0.45438 0.09536 0.0
N1004 N 0.89286 0.41216 0.1707 0.0
N1005 N 0.95669 0.50904 0.06718 0.0
H1006 H 0.96439 0.42217 0.07066 0.0
H1007 H 0.98215 0.46578 0.05489 0.0
H1008 H 0.95597 0.53317 0.06544 0.0
H1009 H 0.96465 0.50226 0.04547 0.0
H1010 H 0.87623 0.41467 0.18795 0.0
H1011 H 0.89231 0.38739 0.17218 0.0
H1012 H 0.8959 0.46915 0.19698 0.0
H1013 H 0.90546 0.50884 0.17665 0.0
C1014 C 0.45371 0.93764 0.64622 0.0
C1015 C 0.43255 0.92733 0.61715 0.0
C1016 C 0.4779 0.91714 0.58937 0.0
C1017 C 0.49777 0.92506 0.61908 0.0
N1018 N 0.50261 0.93759 0.67694 0.0
N1019 N 0.42231 0.90474 0.56172 0.0
C1020 C 0.4853 0.93417 0.6478 0.0
C1021 C 0.44395 0.91619 0.58895 0.0
N1022 N 0.44348 0.95052 0.67242 0.0
N1023 N 0.49234 0.91221 0.56122 0.0
H1024 H 0.39875 0.90641 0.55933 0.0
H1025 H 0.42658 0.89185 0.54199 0.0
H1026 H 0.51686 0.91219 0.56052 0.0
H1027 H 0.48156 0.91076 0.53803 0.0
H1028 H 0.45997 0.96276 0.69269 0.0
H1029 H 0.41917 0.95095 0.67329 0.0
H1030 H 0.49286 0.94042 0.69945 0.0
H1031 H 0.52541 0.93456 0.67916 0.0
C1032 C 0.56115 0.46891 0.1421 0.0
C1033 C 0.56682 0.49587 0.1186 0.0
C1034 C 0.50662 0.45576 0.09491 0.0
C1035 C 0.50006 0.42983 0.11974 0.0
N1036 N 0.51803 0.41341 0.16995 0.0
N1037 N 0.54427 0.51732 0.0748 0.0
C1038 C 0.52658 0.43674 0.14407 0.0
C1039 C 0.53924 0.49006 0.09574 0.0
N1040 N 0.58883 0.47409 0.16258 0.0
N1041 N 0.48245 0.44687 0.06966 0.0
H1042 H 0.5686 0.54198 0.07315 0.0
H1043 H 0.52368 0.51649 0.06035 0.0
H1044 H 0.45851 0.42184 0.06799 0.0
H1045 H 0.4873 0.46292 0.04896 0.0
H1046 H 0.58802 0.45376 0.17739 0.0
H1047 H 0.61373 0.49825 0.16351 0.0
H1048 H 0.53456 0.41882 0.19041 0.0
H1049 H 0.49291 0.38971 0.17239 0.0
C1050 C 0.06527 0.51522 0.65263 0.0
C1051 C 0.07274 0.50232 0.62328 0.0
C1052 C 0.08329 0.55735 0.59434 0.0
C1053 C 0.07315 0.56894 0.62303 0.0
N1054 N 0.05074 0.55777 0.67854 0.0
N1055 N 0.08272 0.50753 0.56493 0.0
C1056 C 0.06282 0.54741 0.65186 0.0
C1057 C 0.08031 0.5225 0.5938 0.0
N1058 N 0.06233 0.4977 0.68155 0.0
N1059 N 0.09574 0.57961 0.56756 0.0
H1060 H 0.08038 0.48196 0.56337 0.0
H1061 H 0.08389 0.51893 0.5421 0.0
H1062 H 0.09627 0.60437 0.56611 0.0
H1063 H 0.10775 0.57472 0.54748 0.0
H1064 H 0.06082 0.50782 0.70432 0.0
H1065 H 0.06453 0.47437 0.68323 0.0
H1066 H 0.03857 0.54111 0.69874 0.0
H1067 H 0.05082 0.58233 0.67981 0.0
C1068 C 0.92844 0.48003 0.35357 0.0
C1069 C 0.92736 0.49588 0.38379 0.0
C1070 C 0.9219 0.44336 0.41369 0.0
C1071 C 0.92519 0.42853 0.38364 0.0
N1072 N 0.93502 0.43342 0.32529 0.0
N1073 N 0.92892 0.49632 0.44274 0.0
C1074 C 0.92966 0.44718 0.35366 0.0
C1075 C 0.92554 0.47849 0.41393 0.0
N1076 N 0.92662 0.49555 0.3248 0.0
N1077 N 0.91509 0.42377 0.44198 0.0
H1078 H 0.93165 0.5221 0.44386 0.0
H1079 H 0.93198 0.48705 0.46543 0.0
H1080 H 0.91397 0.39871 0.44313 0.0
H1081 H 0.90826 0.43112 0.464 0.0
H1082 H 0.92326 0.48337 0.302 0.0
H1083 H 0.92579 0.51964 0.32375 0.0
H1084 H 0.94294 0.44773 0.30333 0.0
H1085 H 0.93344 0.40816 0.32398 0.0
C1086 C 0.4878 0.93974 0.84889 0.0
C1087 C 0.49797 0.92824 0.87764 0.0
C1088 C 0.444 0.92102 0.90613 0.0
C1089 C 0.43227 0.92952 0.87662 0.0
N1090 N 0.4398 0.94206 0.8187 0.0
N1091 N 0.48433 0.90384 0.93245 0.0
C1092 C 0.45342 0.93782 0.84767 0.0
C1093 C 0.47555 0.9175 0.90588 0.0
N1094 N 0.51097 0.95235 0.82273 0.0
N1095 N 0.42603 0.91814 0.93475 0.0
H1096 H 0.50814 0.9025 0.93396 0.0
H1097 H 0.4669 0.89154 0.95217 0.0
H1098 H 0.40314 0.92113 0.93607 0.0
H1099 H 0.43555 0.91607 0.95766 0.0
H1100 H 0.50728 0.96528 0.80268 0.0
H1101 H 0.53524 0.95184 0.8218 0.0
H1102 H 0.45205 0.94431 0.7961 0.0
H1103 H 0.41453 0.9404 0.81672 0.0
C1104 C 0.51033 0.45895 0.40608 0.0
C1105 C 0.50391 0.43089 0.38359 0.0
C1106 C 0.56293 0.4702 0.35757 0.0
C1107 C 0.57052 0.49697 0.3818 0.0
N1108 N 0.55497 0.51455 0.43266 0.0
N1109 N 0.52485 0.40787 0.33973 0.0
C1110 C 0.54513 0.49081 0.40698 0.0
C1111 C 0.53056 0.43586 0.36 0.0
N1112 N 0.48318 0.45528 0.42649 0.0
N1113 N 0.58575 0.47829 0.33136 0.0
H1114 H 0.50045 0.38319 0.33893 0.0
H1115 H 0.54498 0.40825 0.32493 0.0
H1116 H 0.60955 0.50326 0.32855 0.0
H1117 H 0.57975 0.46154 0.31099 0.0
H1118 H 0.48493 0.47643 0.44072 0.0
H1119 H 0.4577 0.43188 0.42753 0.0
H1120 H 0.5391 0.50975 0.45349 0.0
H1121 H 0.58069 0.53756 0.43466 0.0
C1122 C 0.04845 0.50945 0.90622 0.0
C1123 C 0.07294 0.50475 0.88598 0.0
C1124 C 0.09955 0.56756 0.8664 0.0
C1125 C 0.07342 0.57144 0.88494 0.0
N1126 N 0.02002 0.54507 0.91941 0.0
N1127 N 0.11695 0.52641 0.8422 0.0
C1128 C 0.04688 0.54202 0.90384 0.0
C1129 C 0.09742 0.5331 0.86499 0.0
N1130 N 0.02777 0.48343 0.92878 0.0
N1131 N 0.12617 0.59666 0.84976 0.0
H1132 H 0.11545 0.50127 0.83965 0.0
H1133 H 0.13214 0.54458 0.82373 0.0
H1134 H 0.12699 0.6215 0.84764 0.0
H1135 H 0.14873 0.5969 0.83949 0.0
H1136 H 0.01284 0.48711 0.94704 0.0
H1137 H 0.02766 0.45895 0.93105 0.0
H1138 H 0.99734 0.5232 0.93001 0.0
H1139 H 0.01894 0.56902 0.92008 0.0
C1140 C 0.55485 0.08115 0.40919 0.0
C1141 C 0.56611 0.06877 0.38173 0.0
C1142 C 0.51283 0.06 0.35083 0.0
C1143 C 0.5004 0.07012 0.37891 0.0
N1144 N 0.50525 0.0829 0.43681 0.0
N1145 N 0.55195 0.03899 0.32893 0.0
C1146 C 0.52029 0.07886 0.40865 0.0
C1147 C 0.54385 0.05576 0.35336 0.0
N1148 N 0.5769 0.09461 0.43602 0.0
N1149 N 0.49606 0.05614 0.32131 0.0
H1150 H 0.57457 0.0356 0.32933 0.0
H1151 H 0.53448 0.02551 0.30949 0.0
H1152 H 0.47366 0.0597 0.31823 0.0
H1153 H 0.50638 0.05284 0.29927 0.0
H1154 H 0.57242 0.10838 0.45488 0.0
H1155 H 0.60084 0.09372 0.43881 0.0
H1156 H 0.51654 0.08522 0.45991 0.0
H1157 H 0.47963 0.08055 0.43766 0.0
C1158 C 0.49582 0.54306 0.90102 0.0
C1159 C 0.50084 0.57005 0.8778 0.0
C1160 C 0.44042 0.52968 0.85477 0.0
C1161 C 0.4341 0.50403 0.87981 0.0
N1162 N 0.45389 0.48702 0.9287 0.0
N1163 N 0.47764 0.59103 0.83416 0.0
C1164 C 0.46142 0.51073 0.9033 0.0
C1165 C 0.47297 0.56399 0.85523 0.0
N1166 N 0.52393 0.54838 0.92101 0.0
N1167 N 0.41622 0.52041 0.8295 0.0
H1168 H 0.50202 0.61557 0.83198 0.0
H1169 H 0.45675 0.59007 0.82009 0.0
H1170 H 0.39254 0.49517 0.82779 0.0
H1171 H 0.42104 0.53625 0.80865 0.0
H1172 H 0.52369 0.52804 0.93539 0.0
H1173 H 0.54863 0.57272 0.92205 0.0
H1174 H 0.47074 0.49244 0.94891 0.0
H1175 H 0.42946 0.46261 0.93086 0.0
loop_
_geom_bond_atom_site_label_1
_geom_bond_atom_site_label_2
_geom_bond_distance
_geom_bond_site_symmetry_2
_ccdc_geom_bond_type
In0 O1 2.294 . S
In0 O2 2.326 . S
In0 O6 2.266 . S
In0 O7 2.326 . S
In0 O8 2.266 . S
In0 O9 2.326 . S
In0 O11 2.294 . S
In0 O12 2.326 . S
O1 In0 2.294 . S
O1 C10 1.240 . S
O2 In0 2.326 . S
O2 C10 1.252 . S
C3 O6 1.252 . S
C3 O7 1.260 . S
C4 O11 1.240 . S
C4 O12 1.252 . S
C5 O8 1.252 . S
C5 O9 1.260 . S
O6 In0 2.266 . S
O6 C3 1.252 . S
O7 In0 2.326 . S
O7 C3 1.260 . S
O8 In0 2.266 . S
O8 C5 1.252 . S
O9 In0 2.326 . S
O9 C5 1.260 . S
C10 O1 1.240 . S
C10 O2 1.252 . S
O11 In0 2.294 . S
O11 C4 1.240 . S
O12 In0 2.326 . S
O12 C4 1.252 . S
In13 O14 2.294 . S
In13 O15 2.326 . S
In13 O19 2.266 . S
In13 O20 2.326 . S
In13 O21 2.266 . S
In13 O22 2.326 . S
In13 O24 2.294 . S
In13 O25 2.326 . S
O14 In13 2.294 . S
O14 C23 1.240 . S
O15 In13 2.326 . S
O15 C23 1.252 . S
C16 O19 1.252 . S
C16 O20 1.260 . S
C17 O24 1.240 . S
C17 O25 1.252 . S
C18 O21 1.252 . S
C18 O22 1.260 . S
O19 In13 2.266 . S
O19 C16 1.252 . S
O20 In13 2.326 . S
O20 C16 1.260 . S
O21 In13 2.266 . S
O21 C18 1.252 . S
O22 In13 2.326 . S
O22 C18 1.260 . S
C23 O14 1.240 . S
C23 O15 1.252 . S
O24 In13 2.294 . S
O24 C17 1.240 . S
O25 In13 2.326 . S
O25 C17 1.252 . S
In26 O27 2.294 . S
In26 O28 2.326 . S
In26 O32 2.266 . S
In26 O33 2.326 . S
In26 O34 2.266 . S
In26 O35 2.326 . S
In26 O37 2.294 . S
In26 O38 2.326 . S
O27 In26 2.294 . S
O27 C36 1.240 . S
O28 In26 2.326 . S
O28 C36 1.252 . S
C29 O32 1.252 . S
C29 O33 1.260 . S
C30 O37 1.240 . S
C30 O38 1.252 . S
C31 O34 1.252 . S
C31 O35 1.260 . S
O32 In26 2.266 . S
O32 C29 1.252 . S
O33 In26 2.326 . S
O33 C29 1.260 . S
O34 In26 2.266 . S
O34 C31 1.252 . S
O35 In26 2.326 . S
O35 C31 1.260 . S
C36 O27 1.240 . S
C36 O28 1.252 . S
O37 In26 2.294 . S
O37 C30 1.240 . S
O38 In26 2.326 . S
O38 C30 1.252 . S
In39 O40 2.294 . S
In39 O41 2.326 . S
In39 O45 2.266 . S
In39 O46 2.326 . S
In39 O47 2.266 . S
In39 O48 2.326 . S
In39 O50 2.294 . S
In39 O51 2.326 . S
O40 In39 2.294 . S
O40 C49 1.240 . S
O41 In39 2.326 . S
O41 C49 1.252 . S
C42 O45 1.252 . S
C42 O46 1.260 . S
C43 O50 1.240 . S
C43 O51 1.252 . S
C44 O47 1.252 . S
C44 O48 1.260 . S
O45 In39 2.266 . S
O45 C42 1.252 . S
O46 In39 2.326 . S
O46 C42 1.260 . S
O47 In39 2.266 . S
O47 C44 1.252 . S
O48 In39 2.326 . S
O48 C44 1.260 . S
C49 O40 1.240 . S
C49 O41 1.252 . S
O50 In39 2.294 . S
O50 C43 1.240 . S
O51 In39 2.326 . S
O51 C43 1.252 . S
In52 O53 2.294 . S
In52 O54 2.326 . S
In52 O58 2.266 . S
In52 O59 2.326 . S
In52 O60 2.266 . S
In52 O61 2.326 . S
In52 O63 2.294 . S
In52 O64 2.326 . S
O53 In52 2.294 . S
O53 C62 1.240 . S
O54 In52 2.326 . S
O54 C62 1.252 . S
C55 O58 1.252 . S
C55 O59 1.260 . S
C56 O63 1.240 . S
C56 O64 1.252 . S
C57 O60 1.252 . S
C57 O61 1.260 . S
O58 In52 2.266 . S
O58 C55 1.252 . S
O59 In52 2.326 . S
O59 C55 1.260 . S
O60 In52 2.266 . S
O60 C57 1.252 . S
O61 In52 2.326 . S
O61 C57 1.260 . S
C62 O53 1.240 . S
C62 O54 1.252 . S
O63 In52 2.294 . S
O63 C56 1.240 . S
O64 In52 2.326 . S
O64 C56 1.252 . S
In65 O66 2.294 . S
In65 O67 2.326 . S
In65 O71 2.266 . S
In65 O72 2.326 . S
In65 O73 2.266 . S
In65 O74 2.326 . S
In65 O76 2.294 . S
In65 O77 2.326 . S
O66 In65 2.294 . S
O66 C75 1.240 . S
O67 In65 2.326 . S
O67 C75 1.252 . S
C68 O71 1.252 . S
C68 O72 1.260 . S
C69 O76 1.240 . S
C69 O77 1.252 . S
C70 O73 1.252 . S
C70 O74 1.260 . S
O71 In65 2.266 . S
O71 C68 1.252 . S
O72 In65 2.326 . S
O72 C68 1.260 . S
O73 In65 2.266 . S
O73 C70 1.252 . S
O74 In65 2.326 . S
O74 C70 1.260 . S
C75 O66 1.240 . S
C75 O67 1.252 . S
O76 In65 2.294 . S
O76 C69 1.240 . S
O77 In65 2.326 . S
O77 C69 1.252 . S
In78 O79 2.294 . S
In78 O80 2.326 . S
In78 O84 2.266 . S
In78 O85 2.326 . S
In78 O86 2.266 . S
In78 O87 2.326 . S
In78 O89 2.294 . S
In78 O90 2.326 . S
O79 In78 2.294 . S
O79 C88 1.240 . S
O80 In78 2.326 . S
O80 C88 1.252 . S
C81 O84 1.252 . S
C81 O85 1.260 . S
C82 O89 1.240 . S
C82 O90 1.252 . S
C83 O86 1.252 . S
C83 O87 1.260 . S
O84 In78 2.266 . S
O84 C81 1.252 . S
O85 In78 2.326 . S
O85 C81 1.260 . S
O86 In78 2.266 . S
O86 C83 1.252 . S
O87 In78 2.326 . S
O87 C83 1.260 . S
C88 O79 1.240 . S
C88 O80 1.252 . S
O89 In78 2.294 . S
O89 C82 1.240 . S
O90 In78 2.326 . S
O90 C82 1.252 . S
In91 O92 2.294 . S
In91 O93 2.326 . S
In91 O97 2.266 . S
In91 O98 2.326 . S
In91 O99 2.266 . S
In91 O100 2.326 . S
In91 O102 2.294 . S
In91 O103 2.326 . S
O92 In91 2.294 . S
O92 C101 1.240 . S
O93 In91 2.326 . S
O93 C101 1.252 . S
C94 O97 1.252 . S
C94 O98 1.260 . S
C95 O102 1.240 . S
C95 O103 1.252 . S
C96 O99 1.252 . S
C96 O100 1.260 . S
O97 In91 2.266 . S
O97 C94 1.252 . S
O98 In91 2.326 . S
O98 C94 1.260 . S
O99 In91 2.266 . S
O99 C96 1.252 . S
O100 In91 2.326 . S
O100 C96 1.260 . S
C101 O92 1.240 . S
C101 O93 1.252 . S
O102 In91 2.294 . S
O102 C95 1.240 . S
O103 In91 2.326 . S
O103 C95 1.252 . S
In104 O105 2.294 . S
In104 O106 2.326 . S
In104 O110 2.266 . S
In104 O111 2.326 . S
In104 O112 2.266 . S
In104 O113 2.326 . S
In104 O115 2.294 . S
In104 O116 2.326 . S
O105 In104 2.294 . S
O105 C114 1.240 . S
O106 In104 2.326 . S
O106 C114 1.252 . S
C107 O110 1.252 . S
C107 O111 1.260 . S
C108 O115 1.240 . S
C108 O116 1.252 . S
C109 O112 1.252 . S
C109 O113 1.260 . S
O110 In104 2.266 . S
O110 C107 1.252 . S
O111 In104 2.326 . S
O111 C107 1.260 . S
O112 In104 2.266 . S
O112 C109 1.252 . S
O113 In104 2.326 . S
O113 C109 1.260 . S
C114 O105 1.240 . S
C114 O106 1.252 . S
O115 In104 2.294 . S
O115 C108 1.240 . S
O116 In104 2.326 . S
O116 C108 1.252 . S
In117 O118 2.294 . S
In117 O119 2.326 . S
In117 O123 2.266 . S
In117 O124 2.326 . S
In117 O125 2.266 . S
In117 O126 2.326 . S
In117 O128 2.294 . S
In117 O129 2.326 . S
O118 In117 2.294 . S
O118 C127 1.240 . S
O119 In117 2.326 . S
O119 C127 1.252 . S
C120 O123 1.252 . S
C120 O124 1.260 . S
C121 O128 1.240 . S
C121 O129 1.252 . S
C122 O125 1.252 . S
C122 O126 1.260 . S
O123 In117 2.266 . S
O123 C120 1.252 . S
O124 In117 2.326 . S
O124 C120 1.260 . S
O125 In117 2.266 . S
O125 C122 1.252 . S
O126 In117 2.326 . S
O126 C122 1.260 . S
C127 O118 1.240 . S
C127 O119 1.252 . S
O128 In117 2.294 . S
O128 C121 1.240 . S
O129 In117 2.326 . S
O129 C121 1.252 . S
In130 O131 2.294 . S
In130 O132 2.326 . S
In130 O136 2.266 . S
In130 O137 2.326 . S
In130 O138 2.266 . S
In130 O139 2.326 . S
In130 O141 2.294 . S
In130 O142 2.326 . S
O131 In130 2.294 . S
O131 C140 1.240 . S
O132 In130 2.326 . S
O132 C140 1.252 . S
C133 O136 1.252 . S
C133 O137 1.260 . S
C134 O141 1.240 . S
C134 O142 1.252 . S
C135 O138 1.252 . S
C135 O139 1.260 . S
O136 In130 2.266 . S
O136 C133 1.252 . S
O137 In130 2.326 . S
O137 C133 1.260 . S
O138 In130 2.266 . S
O138 C135 1.252 . S
O139 In130 2.326 . S
O139 C135 1.260 . S
C140 O131 1.240 . S
C140 O132 1.252 . S
O141 In130 2.294 . S
O141 C134 1.240 . S
O142 In130 2.326 . S
O142 C134 1.252 . S
In143 O144 2.294 . S
In143 O145 2.326 . S
In143 O149 2.266 . S
In143 O150 2.326 . S
In143 O151 2.266 . S
In143 O152 2.326 . S
In143 O154 2.294 . S
In143 O155 2.326 . S
O144 In143 2.294 . S
O144 C153 1.240 . S
O145 In143 2.326 . S
O145 C153 1.252 . S
C146 O149 1.252 . S
C146 O150 1.260 . S
C147 O154 1.240 . S
C147 O155 1.252 . S
C148 O151 1.252 . S
C148 O152 1.260 . S
O149 In143 2.266 . S
O149 C146 1.252 . S
O150 In143 2.326 . S
O150 C146 1.260 . S
O151 In143 2.266 . S
O151 C148 1.252 . S
O152 In143 2.326 . S
O152 C148 1.260 . S
C153 O144 1.240 . S
C153 O145 1.252 . S
O154 In143 2.294 . S
O154 C147 1.240 . S
O155 In143 2.326 . S
O155 C147 1.252 . S
In156 O157 2.294 . S
In156 O158 2.326 . S
In156 O162 2.266 . S
In156 O163 2.326 . S
In156 O164 2.266 . S
In156 O165 2.326 . S
In156 O167 2.294 . S
In156 O168 2.326 . S
O157 In156 2.294 . S
O157 C166 1.240 . S
O158 In156 2.326 . S
O158 C166 1.252 . S
C159 O162 1.252 . S
C159 O163 1.260 . S
C160 O167 1.240 . S
C160 O168 1.252 . S
C161 O164 1.252 . S
C161 O165 1.260 . S
O162 In156 2.266 . S
O162 C159 1.252 . S
O163 In156 2.326 . S
O163 C159 1.260 . S
O164 In156 2.266 . S
O164 C161 1.252 . S
O165 In156 2.326 . S
O165 C161 1.260 . S
C166 O157 1.240 . S
C166 O158 1.252 . S
O167 In156 2.294 . S
O167 C160 1.240 . S
O168 In156 2.326 . S
O168 C160 1.252 . S
In169 O170 2.294 . S
In169 O171 2.326 . S
In169 O175 2.266 . S
In169 O176 2.326 . S
In169 O177 2.266 . S
In169 O178 2.326 . S
In169 O180 2.294 . S
In169 O181 2.326 . S
O170 In169 2.294 . S
O170 C179 1.240 . S
O171 In169 2.326 . S
O171 C179 1.252 . S
C172 O175 1.252 . S
C172 O176 1.260 . S
C173 O180 1.240 . S
C173 O181 1.252 . S
C174 O177 1.252 . S
C174 O178 1.260 . S
O175 In169 2.266 . S
O175 C172 1.252 . S
O176 In169 2.326 . S
O176 C172 1.260 . S
O177 In169 2.266 . S
O177 C174 1.252 . S
O178 In169 2.326 . S
O178 C174 1.260 . S
C179 O170 1.240 . S
C179 O171 1.252 . S
O180 In169 2.294 . S
O180 C173 1.240 . S
O181 In169 2.326 . S
O181 C173 1.252 . S
In182 O183 2.294 . S
In182 O184 2.326 . S
In182 O188 2.266 . S
In182 O189 2.326 . S
In182 O190 2.266 . S
In182 O191 2.326 . S
In182 O193 2.294 . S
In182 O194 2.326 . S
O183 In182 2.294 . S
O183 C192 1.240 . S
O184 In182 2.326 . S
O184 C192 1.252 . S
C185 O188 1.252 . S
C185 O189 1.260 . S
C186 O193 1.240 . S
C186 O194 1.252 . S
C187 O190 1.252 . S
C187 O191 1.260 . S
O188 In182 2.266 . S
O188 C185 1.252 . S
O189 In182 2.326 . S
O189 C185 1.260 . S
O190 In182 2.266 . S
O190 C187 1.252 . S
O191 In182 2.326 . S
O191 C187 1.260 . S
C192 O183 1.240 . S
C192 O184 1.252 . S
O193 In182 2.294 . S
O193 C186 1.240 . S
O194 In182 2.326 . S
O194 C186 1.252 . S
In195 O196 2.294 . S
In195 O197 2.326 . S
In195 O201 2.266 . S
In195 O202 2.326 . S
In195 O203 2.266 . S
In195 O204 2.326 . S
In195 O206 2.294 . S
In195 O207 2.326 . S
O196 In195 2.294 . S
O196 C205 1.240 . S
O197 In195 2.326 . S
O197 C205 1.252 . S
C198 O201 1.252 . S
C198 O202 1.260 . S
C199 O206 1.240 . S
C199 O207 1.252 . S
C200 O203 1.252 . S
C200 O204 1.260 . S
O201 In195 2.266 . S
O201 C198 1.252 . S
O202 In195 2.326 . S
O202 C198 1.260 . S
O203 In195 2.266 . S
O203 C200 1.252 . S
O204 In195 2.326 . S
O204 C200 1.260 . S
C205 O196 1.240 . S
C205 O197 1.252 . S
O206 In195 2.294 . S
O206 C199 1.240 . S
O207 In195 2.326 . S
O207 C199 1.252 . S
In208 O209 2.294 . S
In208 O210 2.326 . S
In208 O214 2.266 . S
In208 O215 2.326 . S
In208 O216 2.266 . S
In208 O217 2.326 . S
In208 O219 2.294 . S
In208 O220 2.326 . S
O209 In208 2.294 . S
O209 C218 1.240 . S
O210 In208 2.326 . S
O210 C218 1.252 . S
C211 O214 1.252 . S
C211 O215 1.260 . S
C212 O219 1.240 . S
C212 O220 1.252 . S
C213 O216 1.252 . S
C213 O217 1.260 . S
O214 In208 2.266 . S
O214 C211 1.252 . S
O215 In208 2.326 . S
O215 C211 1.260 . S
O216 In208 2.266 . S
O216 C213 1.252 . S
O217 In208 2.326 . S
O217 C213 1.260 . S
C218 O209 1.240 . S
C218 O210 1.252 . S
O219 In208 2.294 . S
O219 C212 1.240 . S
O220 In208 2.326 . S
O220 C212 1.252 . S
In221 O222 2.294 . S
In221 O223 2.326 . S
In221 O227 2.266 . S
In221 O228 2.326 . S
In221 O229 2.266 . S
In221 O230 2.326 . S
In221 O232 2.294 . S
In221 O233 2.326 . S
O222 In221 2.294 . S
O222 C231 1.240 . S
O223 In221 2.326 . S
O223 C231 1.252 . S
C224 O227 1.252 . S
C224 O228 1.260 . S
C225 O232 1.240 . S
C225 O233 1.252 . S
C226 O229 1.252 . S
C226 O230 1.260 . S
O227 In221 2.266 . S
O227 C224 1.252 . S
O228 In221 2.326 . S
O228 C224 1.260 . S
O229 In221 2.266 . S
O229 C226 1.252 . S
O230 In221 2.326 . S
O230 C226 1.260 . S
C231 O222 1.240 . S
C231 O223 1.252 . S
O232 In221 2.294 . S
O232 C225 1.240 . S
O233 In221 2.326 . S
O233 C225 1.252 . S
In234 O235 2.294 . S
In234 O236 2.326 . S
In234 O240 2.266 . S
In234 O241 2.326 . S
In234 O242 2.266 . S
In234 O243 2.326 . S
In234 O245 2.294 . S
In234 O246 2.326 . S
O235 In234 2.294 . S
O235 C244 1.240 . S
O236 In234 2.326 . S
O236 C244 1.252 . S
C237 O240 1.252 . S
C237 O241 1.260 . S
C238 O245 1.240 . S
C238 O246 1.252 . S
C239 O242 1.252 . S
C239 O243 1.260 . S
O240 In234 2.266 . S
O240 C237 1.252 . S
O241 In234 2.326 . S
O241 C237 1.260 . S
O242 In234 2.266 . S
O242 C239 1.252 . S
O243 In234 2.326 . S
O243 C239 1.260 . S
C244 O235 1.240 . S
C244 O236 1.252 . S
O245 In234 2.294 . S
O245 C238 1.240 . S
O246 In234 2.326 . S
O246 C238 1.252 . S
In247 O248 2.294 . S
In247 O249 2.326 . S
In247 O253 2.266 . S
In247 O254 2.326 . S
In247 O255 2.266 . S
In247 O256 2.326 . S
In247 O258 2.294 . S
In247 O259 2.326 . S
O248 In247 2.294 . S
O248 C257 1.240 . S
O249 In247 2.326 . S
O249 C257 1.252 . S
C250 O253 1.252 . S
C250 O254 1.260 . S
C251 O258 1.240 . S
C251 O259 1.252 . S
C252 O255 1.252 . S
C252 O256 1.260 . S
O253 In247 2.266 . S
O253 C250 1.252 . S
O254 In247 2.326 . S
O254 C250 1.260 . S
O255 In247 2.266 . S
O255 C252 1.252 . S
O256 In247 2.326 . S
O256 C252 1.260 . S
C257 O248 1.240 . S
C257 O249 1.252 . S
O258 In247 2.294 . S
O258 C251 1.240 . S
O259 In247 2.326 . S
O259 C251 1.252 . S
In260 O261 2.294 . S
In260 O262 2.326 . S
In260 O266 2.266 . S
In260 O267 2.326 . S
In260 O268 2.266 . S
In260 O269 2.326 . S
In260 O271 2.294 . S
In260 O272 2.326 . S
O261 In260 2.294 . S
O261 C270 1.240 . S
O262 In260 2.326 . S
O262 C270 1.252 . S
C263 O266 1.252 . S
C263 O267 1.260 . S
C264 O271 1.240 . S
C264 O272 1.252 . S
C265 O268 1.252 . S
C265 O269 1.260 . S
O266 In260 2.266 . S
O266 C263 1.252 . S
O267 In260 2.326 . S
O267 C263 1.260 . S
O268 In260 2.266 . S
O268 C265 1.252 . S
O269 In260 2.326 . S
O269 C265 1.260 . S
C270 O261 1.240 . S
C270 O262 1.252 . S
O271 In260 2.294 . S
O271 C264 1.240 . S
O272 In260 2.326 . S
O272 C264 1.252 . S
In273 O274 2.294 . S
In273 O275 2.326 . S
In273 O279 2.266 . S
In273 O280 2.326 . S
In273 O281 2.266 . S
In273 O282 2.326 . S
In273 O284 2.294 . S
In273 O285 2.326 . S
O274 In273 2.294 . S
O274 C283 1.240 . S
O275 In273 2.326 . S
O275 C283 1.252 . S
C276 O279 1.252 . S
C276 O280 1.260 . S
C277 O284 1.240 . S
C277 O285 1.252 . S
C278 O281 1.252 . S
C278 O282 1.260 . S
O279 In273 2.266 . S
O279 C276 1.252 . S
O280 In273 2.326 . S
O280 C276 1.260 . S
O281 In273 2.266 . S
O281 C278 1.252 . S
O282 In273 2.326 . S
O282 C278 1.260 . S
C283 O274 1.240 . S
C283 O275 1.252 . S
O284 In273 2.294 . S
O284 C277 1.240 . S
O285 In273 2.326 . S
O285 C277 1.252 . S
In286 O287 2.294 . S
In286 O288 2.326 . S
In286 O292 2.266 . S
In286 O293 2.326 . S
In286 O294 2.266 . S
In286 O295 2.326 . S
In286 O297 2.294 . S
In286 O298 2.326 . S
O287 In286 2.294 . S
O287 C296 1.240 . S
O288 In286 2.326 . S
O288 C296 1.252 . S
C289 O292 1.252 . S
C289 O293 1.260 . S
C290 O297 1.240 . S
C290 O298 1.252 . S
C291 O294 1.252 . S
C291 O295 1.260 . S
O292 In286 2.266 . S
O292 C289 1.252 . S
O293 In286 2.326 . S
O293 C289 1.260 . S
O294 In286 2.266 . S
O294 C291 1.252 . S
O295 In286 2.326 . S
O295 C291 1.260 . S
C296 O287 1.240 . S
C296 O288 1.252 . S
O297 In286 2.294 . S
O297 C290 1.240 . S
O298 In286 2.326 . S
O298 C290 1.252 . S
In299 O300 2.294 . S
In299 O301 2.326 . S
In299 O305 2.266 . S
In299 O306 2.326 . S
In299 O307 2.266 . S
In299 O308 2.326 . S
In299 O310 2.294 . S
In299 O311 2.326 . S
O300 In299 2.294 . S
O300 C309 1.240 . S
O301 In299 2.326 . S
O301 C309 1.252 . S
C302 O305 1.252 . S
C302 O306 1.260 . S
C303 O310 1.240 . S
C303 O311 1.252 . S
C304 O307 1.252 . S
C304 O308 1.260 . S
O305 In299 2.266 . S
O305 C302 1.252 . S
O306 In299 2.326 . S
O306 C302 1.260 . S
O307 In299 2.266 . S
O307 C304 1.252 . S
O308 In299 2.326 . S
O308 C304 1.260 . S
C309 O300 1.240 . S
C309 O301 1.252 . S
O310 In299 2.294 . S
O310 C303 1.240 . S
O311 In299 2.326 . S
O311 C303 1.252 . S
C312 C313 1.363 . S
C312 C318 1.379 . S
C312 N320 1.356 . S
C313 C312 1.363 . S
C313 C319 1.363 . S
C314 C315 1.363 . S
C314 C319 1.379 . S
C314 N321 1.356 . S
C315 C314 1.363 . S
C315 C318 1.363 . S
N316 C318 1.356 . S
N316 H328 0.984 1_545 S
N316 H329 0.985 . S
N317 C319 1.356 . S
N317 H322 0.984 . S
N317 H323 0.985 . S
C318 C312 1.379 . S
C318 C315 1.363 . S
C318 N316 1.356 . S
C319 C313 1.363 . S
C319 C314 1.379 . S
C319 N317 1.356 . S
N320 C312 1.356 . S
N320 H326 0.984 1_545 S
N320 H327 0.984 . S
N321 C314 1.356 . S
N321 H324 0.984 . S
N321 H325 0.985 . S
H322 N317 0.984 . S
H323 N317 0.985 . S
H324 N321 0.984 . S
H325 N321 0.985 . S
H326 N320 0.984 1_565 S
H327 N320 0.984 . S
H328 N316 0.984 1_565 S
H329 N316 0.985 . S
C330 C331 1.363 . S
C330 C336 1.379 . S
C330 N338 1.356 . S
C331 C330 1.363 . S
C331 C337 1.363 . S
C332 C333 1.363 . S
C332 C337 1.379 . S
C332 N339 1.356 . S
C333 C332 1.363 . S
C333 C336 1.363 . S
N334 C336 1.356 . S
N334 H346 0.984 . S
N334 H347 0.985 . S
N335 C337 1.356 . S
N335 H340 0.984 . S
N335 H341 0.985 . S
C336 C330 1.379 . S
C336 C333 1.363 . S
C336 N334 1.356 . S
C337 C331 1.363 . S
C337 C332 1.379 . S
C337 N335 1.356 . S
N338 C330 1.356 . S
N338 H344 0.984 . S
N338 H345 0.984 . S
N339 C332 1.356 . S
N339 H342 0.984 . S
N339 H343 0.985 . S
H340 N335 0.984 . S
H341 N335 0.985 . S
H342 N339 0.984 . S
H343 N339 0.985 . S
H344 N338 0.984 . S
H345 N338 0.984 . S
H346 N334 0.984 . S
H347 N334 0.985 . S
C348 C349 1.363 . S
C348 C354 1.379 . S
C348 N356 1.356 . S
C349 C348 1.363 . S
C349 C355 1.363 . S
C350 C351 1.363 . S
C350 C355 1.379 . S
C350 N357 1.356 . S
C351 C350 1.363 . S
C351 C354 1.363 . S
N352 C354 1.356 . S
N352 H364 0.984 1_655 S
N352 H365 0.985 . S
N353 C355 1.356 . S
N353 H358 0.984 . S
N353 H359 0.985 . S
C354 C348 1.379 . S
C354 C351 1.363 . S
C354 N352 1.356 . S
C355 C349 1.363 . S
C355 C350 1.379 . S
C355 N353 1.356 . S
N356 C348 1.356 . S
N356 H362 0.984 1_655 S
N356 H363 0.984 . S
N357 C350 1.356 . S
N357 H360 0.984 . S
N357 H361 0.985 . S
H358 N353 0.984 . S
H359 N353 0.985 . S
H360 N357 0.984 . S
H361 N357 0.985 . S
H362 N356 0.984 1_455 S
H363 N356 0.984 . S
H364 N352 0.984 1_455 S
H365 N352 0.985 . S
C366 C367 1.363 . S
C366 C372 1.379 . S
C366 N374 1.356 . S
C367 C366 1.363 . S
C367 C373 1.363 . S
C368 C369 1.363 . S
C368 C373 1.379 . S
C368 N375 1.356 . S
C369 C368 1.363 . S
C369 C372 1.363 . S
N370 C372 1.356 . S
N370 H382 0.984 . S
N370 H383 0.985 . S
N371 C373 1.356 . S
N371 H376 0.984 . S
N371 H377 0.985 1_565 S
C372 C366 1.379 . S
C372 C369 1.363 . S
C372 N370 1.356 . S
C373 C367 1.363 . S
C373 C368 1.379 . S
C373 N371 1.356 . S
N374 C366 1.356 . S
N374 H380 0.984 . S
N374 H381 0.984 . S
N375 C368 1.356 . S
N375 H378 0.984 . S
N375 H379 0.985 1_565 S
H376 N371 0.984 . S
H377 N371 0.985 1_545 S
H378 N375 0.984 . S
H379 N375 0.985 1_545 S
H380 N374 0.984 . S
H381 N374 0.984 . S
H382 N370 0.984 . S
H383 N370 0.985 . S
C384 C385 1.363 . S
C384 C390 1.379 . S
C384 N392 1.356 . S
C385 C384 1.363 . S
C385 C391 1.363 . S
C386 C387 1.363 . S
C386 C391 1.379 . S
C386 N393 1.356 . S
C387 C386 1.363 . S
C387 C390 1.363 . S
N388 C390 1.356 . S
N388 H400 0.984 . S
N388 H401 0.985 . S
N389 C391 1.356 . S
N389 H394 0.984 . S
N389 H395 0.985 . S
C390 C384 1.379 . S
C390 C387 1.363 . S
C390 N388 1.356 . S
C391 C385 1.363 . S
C391 C386 1.379 . S
C391 N389 1.356 . S
N392 C384 1.356 . S
N392 H398 0.984 . S
N392 H399 0.984 . S
N393 C386 1.356 . S
N393 H396 0.984 . S
N393 H397 0.985 . S
H394 N389 0.984 . S
H395 N389 0.985 . S
H396 N393 0.984 . S
H397 N393 0.985 . S
H398 N392 0.984 . S
H399 N392 0.984 . S
H400 N388 0.984 . S
H401 N388 0.985 . S
C402 C403 1.363 . S
C402 C408 1.379 . S
C402 N410 1.356 . S
C403 C402 1.363 . S
C403 C409 1.363 . S
C404 C405 1.363 . S
C404 C409 1.379 . S
C404 N411 1.356 . S
C405 C404 1.363 . S
C405 C408 1.363 . S
N406 C408 1.356 . S
N406 H418 0.984 . S
N406 H419 0.985 . S
N407 C409 1.356 . S
N407 H412 0.984 . S
N407 H413 0.985 1_455 S
C408 C402 1.379 . S
C408 C405 1.363 . S
C408 N406 1.356 . S
C409 C403 1.363 . S
C409 C404 1.379 . S
C409 N407 1.356 . S
N410 C402 1.356 . S
N410 H416 0.984 . S
N410 H417 0.984 . S
N411 C404 1.356 . S
N411 H414 0.984 . S
N411 H415 0.985 1_455 S
H412 N407 0.984 . S
H413 N407 0.985 1_655 S
H414 N411 0.984 . S
H415 N411 0.985 1_655 S
H416 N410 0.984 . S
H417 N410 0.984 . S
H418 N406 0.984 . S
H419 N406 0.985 . S
C420 C421 1.363 . S
C420 C426 1.379 . S
C420 N428 1.356 . S
C421 C420 1.363 . S
C421 C427 1.363 . S
C422 C423 1.363 . S
C422 C427 1.379 . S
C422 N429 1.356 . S
C423 C422 1.363 . S
C423 C426 1.363 . S
N424 C426 1.356 . S
N424 H436 0.984 1_655 S
N424 H437 0.985 . S
N425 C427 1.356 . S
N425 H430 0.984 . S
N425 H431 0.985 . S
C426 C420 1.379 . S
C426 C423 1.363 . S
C426 N424 1.356 . S
C427 C421 1.363 . S
C427 C422 1.379 . S
C427 N425 1.356 . S
N428 C420 1.356 . S
N428 H434 0.984 1_655 S
N428 H435 0.984 . S
N429 C422 1.356 . S
N429 H432 0.984 . S
N429 H433 0.985 . S
H430 N425 0.984 . S
H431 N425 0.985 . S
H432 N429 0.984 . S
H433 N429 0.985 . S
H434 N428 0.984 1_455 S
H435 N428 0.984 . S
H436 N424 0.984 1_455 S
H437 N424 0.985 . S
C438 C439 1.363 . S
C438 C444 1.379 . S
C438 N446 1.356 . S
C439 C438 1.363 . S
C439 C445 1.363 . S
C440 C441 1.363 . S
C440 C445 1.379 . S
C440 N447 1.356 . S
C441 C440 1.363 . S
C441 C444 1.363 . S
N442 C444 1.356 . S
N442 H454 0.984 1_565 S
N442 H455 0.985 . S
N443 C445 1.356 . S
N443 H448 0.984 . S
N443 H449 0.985 . S
C444 C438 1.379 . S
C444 C441 1.363 . S
C444 N442 1.356 . S
C445 C439 1.363 . S
C445 C440 1.379 . S
C445 N443 1.356 . S
N446 C438 1.356 . S
N446 H452 0.984 1_565 S
N446 H453 0.984 . S
N447 C440 1.356 . S
N447 H450 0.984 . S
N447 H451 0.985 . S
H448 N443 0.984 . S
H449 N443 0.985 . S
H450 N447 0.984 . S
H451 N447 0.985 . S
H452 N446 0.984 1_545 S
H453 N446 0.984 . S
H454 N442 0.984 1_545 S
H455 N442 0.985 . S
C456 C457 1.363 . S
C456 C462 1.379 . S
C456 N464 1.356 . S
C457 C456 1.363 . S
C457 C463 1.363 . S
C458 C459 1.363 . S
C458 C463 1.379 . S
C458 N465 1.356 . S
C459 C458 1.363 . S
C459 C462 1.363 . S
N460 C462 1.356 . S
N460 H472 0.984 . S
N460 H473 0.985 . S
N461 C463 1.356 . S
N461 H466 0.984 . S
N461 H467 0.985 . S
C462 C456 1.379 . S
C462 C459 1.363 . S
C462 N460 1.356 . S
C463 C457 1.363 . S
C463 C458 1.379 . S
C463 N461 1.356 . S
N464 C456 1.356 . S
N464 H470 0.984 . S
N464 H471 0.984 . S
N465 C458 1.356 . S
N465 H468 0.984 . S
N465 H469 0.985 . S
H466 N461 0.984 . S
H467 N461 0.985 . S
H468 N465 0.984 . S
H469 N465 0.985 . S
H470 N464 0.984 . S
H471 N464 0.984 . S
H472 N460 0.984 . S
H473 N460 0.985 . S
C474 C475 1.363 . S
C474 C480 1.379 . S
C474 N482 1.356 . S
C475 C474 1.363 . S
C475 C481 1.363 . S
C476 C477 1.363 . S
C476 C481 1.379 . S
C476 N483 1.356 . S
C477 C476 1.363 . S
C477 C480 1.363 . S
N478 C480 1.356 . S
N478 H490 0.984 . S
N478 H491 0.985 . S
N479 C481 1.356 . S
N479 H484 0.984 . S
N479 H485 0.985 1_455 S
C480 C474 1.379 . S
C480 C477 1.363 . S
C480 N478 1.356 . S
C481 C475 1.363 . S
C481 C476 1.379 . S
C481 N479 1.356 . S
N482 C474 1.356 . S
N482 H488 0.984 . S
N482 H489 0.984 . S
N483 C476 1.356 . S
N483 H486 0.984 . S
N483 H487 0.985 1_455 S
H484 N479 0.984 . S
H485 N479 0.985 1_655 S
H486 N483 0.984 . S
H487 N483 0.985 1_655 S
H488 N482 0.984 . S
H489 N482 0.984 . S
H490 N478 0.984 . S
H491 N478 0.985 . S
C492 C493 1.363 . S
C492 C498 1.379 . S
C492 N500 1.356 . S
C493 C492 1.363 . S
C493 C499 1.363 . S
C494 C495 1.363 . S
C494 C499 1.379 . S
C494 N501 1.356 . S
C495 C494 1.363 . S
C495 C498 1.363 . S
N496 C498 1.356 . S
N496 H508 0.984 1_545 S
N496 H509 0.985 . S
N497 C499 1.356 . S
N497 H502 0.984 . S
N497 H503 0.985 . S
C498 C492 1.379 . S
C498 C495 1.363 . S
C498 N496 1.356 . S
C499 C493 1.363 . S
C499 C494 1.379 . S
C499 N497 1.356 . S
N500 C492 1.356 . S
N500 H506 0.984 1_545 S
N500 H507 0.984 . S
N501 C494 1.356 . S
N501 H504 0.984 . S
N501 H505 0.985 . S
H502 N497 0.984 . S
H503 N497 0.985 . S
H504 N501 0.984 . S
H505 N501 0.985 . S
H506 N500 0.984 1_565 S
H507 N500 0.984 . S
H508 N496 0.984 1_565 S
H509 N496 0.985 . S
C510 C511 1.363 . S
C510 C516 1.379 . S
C510 N518 1.356 . S
C511 C510 1.363 . S
C511 C517 1.363 . S
C512 C513 1.363 . S
C512 C517 1.379 . S
C512 N519 1.356 . S
C513 C512 1.363 . S
C513 C516 1.363 . S
N514 C516 1.356 . S
N514 H526 0.984 . S
N514 H527 0.985 . S
N515 C517 1.356 . S
N515 H520 0.984 . S
N515 H521 0.985 . S
C516 C510 1.379 . S
C516 C513 1.363 . S
C516 N514 1.356 . S
C517 C511 1.363 . S
C517 C512 1.379 . S
C517 N515 1.356 . S
N518 C510 1.356 . S
N518 H524 0.984 . S
N518 H525 0.984 . S
N519 C512 1.356 . S
N519 H522 0.984 . S
N519 H523 0.985 . S
H520 N515 0.984 . S
H521 N515 0.985 . S
H522 N519 0.984 . S
H523 N519 0.985 . S
H524 N518 0.984 . S
H525 N518 0.984 . S
H526 N514 0.984 . S
H527 N514 0.985 . S
C528 C529 1.363 . S
C528 C534 1.379 . S
C528 N536 1.356 . S
C529 C528 1.363 . S
C529 C535 1.363 . S
C530 C531 1.363 . S
C530 C535 1.379 . S
C530 N537 1.356 . S
C531 C530 1.363 . S
C531 C534 1.363 . S
N532 C534 1.356 . S
N532 H544 0.984 . S
N532 H545 0.985 . S
N533 C535 1.356 . S
N533 H538 0.984 . S
N533 H539 0.985 . S
C534 C528 1.379 . S
C534 C531 1.363 . S
C534 N532 1.356 . S
C535 C529 1.363 . S
C535 C530 1.379 . S
C535 N533 1.356 . S
N536 C528 1.356 . S
N536 H542 0.984 . S
N536 H543 0.984 . S
N537 C530 1.356 . S
N537 H540 0.984 . S
N537 H541 0.985 . S
H538 N533 0.984 . S
H539 N533 0.985 . S
H540 N537 0.984 . S
H541 N537 0.985 . S
H542 N536 0.984 . S
H543 N536 0.984 . S
H544 N532 0.984 . S
H545 N532 0.985 . S
C546 C547 1.363 . S
C546 C552 1.379 . S
C546 N554 1.356 . S
C547 C546 1.363 . S
C547 C553 1.363 . S
C548 C549 1.363 . S
C548 C553 1.379 . S
C548 N555 1.356 . S
C549 C548 1.363 . S
C549 C552 1.363 . S
N550 C552 1.356 . S
N550 H562 0.984 . S
N550 H563 0.985 . S
N551 C553 1.356 . S
N551 H556 0.984 . S
N551 H557 0.985 . S
C552 C546 1.379 . S
C552 C549 1.363 . S
C552 N550 1.356 . S
C553 C547 1.363 . S
C553 C548 1.379 . S
C553 N551 1.356 . S
N554 C546 1.356 . S
N554 H560 0.984 . S
N554 H561 0.984 . S
N555 C548 1.356 . S
N555 H558 0.984 . S
N555 H559 0.985 . S
H556 N551 0.984 . S
H557 N551 0.985 . S
H558 N555 0.984 . S
H559 N555 0.985 . S
H560 N554 0.984 . S
H561 N554 0.984 . S
H562 N550 0.984 . S
H563 N550 0.985 . S
C564 C565 1.363 . S
C564 C570 1.379 . S
C564 N572 1.356 . S
C565 C564 1.363 . S
C565 C571 1.363 . S
C566 C567 1.363 . S
C566 C571 1.379 . S
C566 N573 1.356 . S
C567 C566 1.363 . S
C567 C570 1.363 . S
N568 C570 1.356 . S
N568 H580 0.984 . S
N568 H581 0.985 . S
N569 C571 1.356 . S
N569 H574 0.984 . S
N569 H575 0.985 . S
C570 C564 1.379 . S
C570 C567 1.363 . S
C570 N568 1.356 . S
C571 C565 1.363 . S
C571 C566 1.379 . S
C571 N569 1.356 . S
N572 C564 1.356 . S
N572 H578 0.984 . S
N572 H579 0.984 . S
N573 C566 1.356 . S
N573 H576 0.984 . S
N573 H577 0.985 . S
H574 N569 0.984 . S
H575 N569 0.985 . S
H576 N573 0.984 . S
H577 N573 0.985 . S
H578 N572 0.984 . S
H579 N572 0.984 . S
H580 N568 0.984 . S
H581 N568 0.985 . S
C582 C583 1.363 . S
C582 C588 1.379 . S
C582 N590 1.356 . S
C583 C582 1.363 . S
C583 C589 1.363 . S
C584 C585 1.363 . S
C584 C589 1.379 . S
C584 N591 1.356 . S
C585 C584 1.363 . S
C585 C588 1.363 . S
N586 C588 1.356 . S
N586 H598 0.984 . S
N586 H599 0.985 . S
N587 C589 1.356 . S
N587 H592 0.984 . S
N587 H593 0.985 . S
C588 C582 1.379 . S
C588 C585 1.363 . S
C588 N586 1.356 . S
C589 C583 1.363 . S
C589 C584 1.379 . S
C589 N587 1.356 . S
N590 C582 1.356 . S
N590 H596 0.984 . S
N590 H597 0.984 . S
N591 C584 1.356 . S
N591 H594 0.984 . S
N591 H595 0.985 . S
H592 N587 0.984 . S
H593 N587 0.985 . S
H594 N591 0.984 . S
H595 N591 0.985 . S
H596 N590 0.984 . S
H597 N590 0.984 . S
H598 N586 0.984 . S
H599 N586 0.985 . S
C600 C601 1.363 . S
C600 C606 1.379 . S
C600 N608 1.356 . S
C601 C600 1.363 . S
C601 C607 1.363 . S
C602 C603 1.363 . S
C602 C607 1.379 . S
C602 N609 1.356 . S
C603 C602 1.363 . S
C603 C606 1.363 . S
N604 C606 1.356 . S
N604 H616 0.984 . S
N604 H617 0.985 . S
N605 C607 1.356 . S
N605 H610 0.984 . S
N605 H611 0.985 . S
C606 C600 1.379 . S
C606 C603 1.363 . S
C606 N604 1.356 . S
C607 C601 1.363 . S
C607 C602 1.379 . S
C607 N605 1.356 . S
N608 C600 1.356 . S
N608 H614 0.984 . S
N608 H615 0.984 . S
N609 C602 1.356 . S
N609 H612 0.984 . S
N609 H613 0.985 . S
H610 N605 0.984 . S
H611 N605 0.985 . S
H612 N609 0.984 . S
H613 N609 0.985 . S
H614 N608 0.984 . S
H615 N608 0.984 . S
H616 N604 0.984 . S
H617 N604 0.985 . S
C618 C619 1.363 . S
C618 C624 1.379 . S
C618 N626 1.356 . S
C619 C618 1.363 . S
C619 C625 1.363 . S
C620 C621 1.363 . S
C620 C625 1.379 . S
C620 N627 1.356 . S
C621 C620 1.363 . S
C621 C624 1.363 . S
N622 C624 1.356 . S
N622 H634 0.984 . S
N622 H635 0.985 . S
N623 C625 1.356 . S
N623 H628 0.984 . S
N623 H629 0.985 . S
C624 C618 1.379 . S
C624 C621 1.363 . S
C624 N622 1.356 . S
C625 C619 1.363 . S
C625 C620 1.379 . S
C625 N623 1.356 . S
N626 C618 1.356 . S
N626 H632 0.984 . S
N626 H633 0.984 . S
N627 C620 1.356 . S
N627 H630 0.984 . S
N627 H631 0.985 . S
H628 N623 0.984 . S
H629 N623 0.985 . S
H630 N627 0.984 . S
H631 N627 0.985 . S
H632 N626 0.984 . S
H633 N626 0.984 . S
H634 N622 0.984 . S
H635 N622 0.985 . S
C636 C637 1.363 . S
C636 C642 1.379 . S
C636 N644 1.356 . S
C637 C636 1.363 . S
C637 C643 1.363 . S
C638 C639 1.363 . S
C638 C643 1.379 . S
C638 N645 1.356 . S
C639 C638 1.363 . S
C639 C642 1.363 . S
N640 C642 1.356 . S
N640 H652 0.984 . S
N640 H653 0.985 . S
N641 C643 1.356 . S
N641 H646 0.984 . S
N641 H647 0.985 . S
C642 C636 1.379 . S
C642 C639 1.363 . S
C642 N640 1.356 . S
C643 C637 1.363 . S
C643 C638 1.379 . S
C643 N641 1.356 . S
N644 C636 1.356 . S
N644 H650 0.984 . S
N644 H651 0.984 . S
N645 C638 1.356 . S
N645 H648 0.984 . S
N645 H649 0.985 . S
H646 N641 0.984 . S
H647 N641 0.985 . S
H648 N645 0.984 . S
H649 N645 0.985 . S
H650 N644 0.984 . S
H651 N644 0.984 . S
H652 N640 0.984 . S
H653 N640 0.985 . S
C654 C655 1.363 . S
C654 C660 1.379 . S
C654 N662 1.356 . S
C655 C654 1.363 . S
C655 C661 1.363 . S
C656 C657 1.363 . S
C656 C661 1.379 . S
C656 N663 1.356 . S
C657 C656 1.363 . S
C657 C660 1.363 . S
N658 C660 1.356 . S
N658 H670 0.984 . S
N658 H671 0.985 . S
N659 C661 1.356 . S
N659 H664 0.984 . S
N659 H665 0.985 . S
C660 C654 1.379 . S
C660 C657 1.363 . S
C660 N658 1.356 . S
C661 C655 1.363 . S
C661 C656 1.379 . S
C661 N659 1.356 . S
N662 C654 1.356 . S
N662 H668 0.984 . S
N662 H669 0.984 . S
N663 C656 1.356 . S
N663 H666 0.984 . S
N663 H667 0.985 . S
H664 N659 0.984 . S
H665 N659 0.985 . S
H666 N663 0.984 . S
H667 N663 0.985 . S
H668 N662 0.984 . S
H669 N662 0.984 . S
H670 N658 0.984 . S
H671 N658 0.985 . S
C672 C673 1.363 . S
C672 C678 1.379 . S
C672 N680 1.356 . S
C673 C672 1.363 . S
C673 C679 1.363 . S
C674 C675 1.363 . S
C674 C679 1.379 . S
C674 N681 1.356 . S
C675 C674 1.363 . S
C675 C678 1.363 . S
N676 C678 1.356 . S
N676 H688 0.984 . S
N676 H689 0.985 . S
N677 C679 1.356 . S
N677 H682 0.984 . S
N677 H683 0.985 . S
C678 C672 1.379 . S
C678 C675 1.363 . S
C678 N676 1.356 . S
C679 C673 1.363 . S
C679 C674 1.379 . S
C679 N677 1.356 . S
N680 C672 1.356 . S
N680 H686 0.984 . S
N680 H687 0.984 . S
N681 C674 1.356 . S
N681 H684 0.984 . S
N681 H685 0.985 . S
H682 N677 0.984 . S
H683 N677 0.985 . S
H684 N681 0.984 . S
H685 N681 0.985 . S
H686 N680 0.984 . S
H687 N680 0.984 . S
H688 N676 0.984 . S
H689 N676 0.985 . S
C690 C691 1.363 . S
C690 C696 1.379 . S
C690 N698 1.356 . S
C691 C690 1.363 . S
C691 C697 1.363 . S
C692 C693 1.363 . S
C692 C697 1.379 . S
C692 N699 1.356 . S
C693 C692 1.363 . S
C693 C696 1.363 . S
N694 C696 1.356 . S
N694 H706 0.984 . S
N694 H707 0.985 . S
N695 C697 1.356 . S
N695 H700 0.984 . S
N695 H701 0.985 . S
C696 C690 1.379 . S
C696 C693 1.363 . S
C696 N694 1.356 . S
C697 C691 1.363 . S
C697 C692 1.379 . S
C697 N695 1.356 . S
N698 C690 1.356 . S
N698 H704 0.984 . S
N698 H705 0.984 . S
N699 C692 1.356 . S
N699 H702 0.984 . S
N699 H703 0.985 . S
H700 N695 0.984 . S
H701 N695 0.985 . S
H702 N699 0.984 . S
H703 N699 0.985 . S
H704 N698 0.984 . S
H705 N698 0.984 . S
H706 N694 0.984 . S
H707 N694 0.985 . S
C708 C709 1.363 . S
C708 C714 1.379 . S
C708 N716 1.356 . S
C709 C708 1.363 . S
C709 C715 1.363 . S
C710 C711 1.363 . S
C710 C715 1.379 . S
C710 N717 1.356 . S
C711 C710 1.363 . S
C711 C714 1.363 . S
N712 C714 1.356 . S
N712 H724 0.984 . S
N712 H725 0.985 . S
N713 C715 1.356 . S
N713 H718 0.984 . S
N713 H719 0.985 . S
C714 C708 1.379 . S
C714 C711 1.363 . S
C714 N712 1.356 . S
C715 C709 1.363 . S
C715 C710 1.379 . S
C715 N713 1.356 . S
N716 C708 1.356 . S
N716 H722 0.984 . S
N716 H723 0.984 . S
N717 C710 1.356 . S
N717 H720 0.984 . S
N717 H721 0.985 . S
H718 N713 0.984 . S
H719 N713 0.985 . S
H720 N717 0.984 . S
H721 N717 0.985 . S
H722 N716 0.984 . S
H723 N716 0.984 . S
H724 N712 0.984 . S
H725 N712 0.985 . S
C726 C727 1.363 . S
C726 C732 1.379 . S
C726 N734 1.356 . S
C727 C726 1.363 . S
C727 C733 1.363 . S
C728 C729 1.363 . S
C728 C733 1.379 . S
C728 N735 1.356 . S
C729 C728 1.363 . S
C729 C732 1.363 . S
N730 C732 1.356 . S
N730 H742 0.984 . S
N730 H743 0.985 . S
N731 C733 1.356 . S
N731 H736 0.984 . S
N731 H737 0.985 . S
C732 C726 1.379 . S
C732 C729 1.363 . S
C732 N730 1.356 . S
C733 C727 1.363 . S
C733 C728 1.379 . S
C733 N731 1.356 . S
N734 C726 1.356 . S
N734 H740 0.984 . S
N734 H741 0.984 . S
N735 C728 1.356 . S
N735 H738 0.984 . S
N735 H739 0.985 . S
H736 N731 0.984 . S
H737 N731 0.985 . S
H738 N735 0.984 . S
H739 N735 0.985 . S
H740 N734 0.984 . S
H741 N734 0.984 . S
H742 N730 0.984 . S
H743 N730 0.985 . S
C744 C745 1.363 1_545 S
C744 C750 1.379 1_556 S
C744 N752 1.356 . S
C745 C744 1.363 1_565 S
C745 C751 1.363 . S
C746 C747 1.363 1_565 S
C746 C751 1.379 1_554 S
C746 N753 1.356 . S
C747 C746 1.363 1_545 S
C747 C750 1.363 . S
N748 C750 1.356 . S
N748 H760 0.984 . S
N748 H761 0.985 . S
N749 C751 1.356 . S
N749 H754 0.984 . S
N749 H755 0.985 . S
C750 C744 1.379 1_554 S
C750 C747 1.363 . S
C750 N748 1.356 . S
C751 C745 1.363 . S
C751 C746 1.379 1_556 S
C751 N749 1.356 . S
N752 C744 1.356 . S
N752 H758 0.984 . S
N752 H759 0.984 . S
N753 C746 1.356 . S
N753 H756 0.984 . S
N753 H757 0.985 . S
H754 N749 0.984 . S
H755 N749 0.985 . S
H756 N753 0.984 . S
H757 N753 0.985 . S
H758 N752 0.984 . S
H759 N752 0.984 . S
H760 N748 0.984 . S
H761 N748 0.985 . S
C762 C763 1.363 . S
C762 C768 1.379 . S
C762 N770 1.356 . S
C763 C762 1.363 . S
C763 C769 1.363 . S
C764 C765 1.363 . S
C764 C769 1.379 . S
C764 N771 1.356 . S
C765 C764 1.363 . S
C765 C768 1.363 . S
N766 C768 1.356 . S
N766 H778 0.984 . S
N766 H779 0.985 . S
N767 C769 1.356 . S
N767 H772 0.984 . S
N767 H773 0.985 . S
C768 C762 1.379 . S
C768 C765 1.363 . S
C768 N766 1.356 . S
C769 C763 1.363 . S
C769 C764 1.379 . S
C769 N767 1.356 . S
N770 C762 1.356 . S
N770 H776 0.984 . S
N770 H777 0.984 . S
N771 C764 1.356 . S
N771 H774 0.984 . S
N771 H775 0.985 . S
H772 N767 0.984 . S
H773 N767 0.985 . S
H774 N771 0.984 . S
H775 N771 0.985 . S
H776 N770 0.984 . S
H777 N770 0.984 . S
H778 N766 0.984 . S
H779 N766 0.985 . S
C780 C781 1.363 . S
C780 C786 1.379 1_556 S
C780 N788 1.356 . S
C781 C780 1.363 . S
C781 C787 1.363 1_455 S
C782 C783 1.363 . S
C782 C787 1.379 1_554 S
C782 N789 1.356 . S
C783 C782 1.363 . S
C783 C786 1.363 1_655 S
N784 C786 1.356 . S
N784 H796 0.984 . S
N784 H797 0.985 . S
N785 C787 1.356 . S
N785 H790 0.984 . S
N785 H791 0.985 . S
C786 C780 1.379 1_554 S
C786 C783 1.363 1_455 S
C786 N784 1.356 . S
C787 C781 1.363 1_655 S
C787 C782 1.379 1_556 S
C787 N785 1.356 . S
N788 C780 1.356 . S
N788 H794 0.984 . S
N788 H795 0.984 . S
N789 C782 1.356 . S
N789 H792 0.984 . S
N789 H793 0.985 . S
H790 N785 0.984 . S
H791 N785 0.985 . S
H792 N789 0.984 . S
H793 N789 0.985 . S
H794 N788 0.984 . S
H795 N788 0.984 . S
H796 N784 0.984 . S
H797 N784 0.985 . S
C798 C799 1.363 1_565 S
C798 C804 1.379 . S
C798 N806 1.356 . S
C799 C798 1.363 1_545 S
C799 C805 1.363 . S
C800 C801 1.363 1_545 S
C800 C805 1.379 . S
C800 N807 1.356 . S
C801 C800 1.363 1_565 S
C801 C804 1.363 . S
N802 C804 1.356 . S
N802 H814 0.984 . S
N802 H815 0.985 . S
N803 C805 1.356 . S
N803 H808 0.984 . S
N803 H809 0.985 . S
C804 C798 1.379 . S
C804 C801 1.363 . S
C804 N802 1.356 . S
C805 C799 1.363 . S
C805 C800 1.379 . S
C805 N803 1.356 . S
N806 C798 1.356 . S
N806 H812 0.984 . S
N806 H813 0.984 . S
N807 C800 1.356 . S
N807 H810 0.984 . S
N807 H811 0.985 . S
H808 N803 0.984 . S
H809 N803 0.985 . S
H810 N807 0.984 . S
H811 N807 0.985 . S
H812 N806 0.984 . S
H813 N806 0.984 . S
H814 N802 0.984 . S
H815 N802 0.985 . S
C816 C817 1.363 . S
C816 C822 1.379 1_554 S
C816 N824 1.356 . S
C817 C816 1.363 . S
C817 C823 1.363 . S
C818 C819 1.363 . S
C818 C823 1.379 1_556 S
C818 N825 1.356 . S
C819 C818 1.363 . S
C819 C822 1.363 . S
N820 C822 1.356 . S
N820 H832 0.984 . S
N820 H833 0.985 . S
N821 C823 1.356 . S
N821 H826 0.984 . S
N821 H827 0.985 . S
C822 C816 1.379 1_556 S
C822 C819 1.363 . S
C822 N820 1.356 . S
C823 C817 1.363 . S
C823 C818 1.379 1_554 S
C823 N821 1.356 . S
N824 C816 1.356 . S
N824 H830 0.984 . S
N824 H831 0.984 . S
N825 C818 1.356 . S
N825 H828 0.984 . S
N825 H829 0.985 . S
H826 N821 0.984 . S
H827 N821 0.985 . S
H828 N825 0.984 . S
H829 N825 0.985 . S
H830 N824 0.984 . S
H831 N824 0.984 . S
H832 N820 0.984 . S
H833 N820 0.985 . S
C834 C835 1.363 1_655 S
C834 C840 1.379 . S
C834 N842 1.356 . S
C835 C834 1.363 1_455 S
C835 C841 1.363 . S
C836 C837 1.363 1_455 S
C836 C841 1.379 . S
C836 N843 1.356 . S
C837 C836 1.363 1_655 S
C837 C840 1.363 . S
N838 C840 1.356 . S
N838 H850 0.984 . S
N838 H851 0.985 . S
N839 C841 1.356 . S
N839 H844 0.984 . S
N839 H845 0.985 . S
C840 C834 1.379 . S
C840 C837 1.363 . S
C840 N838 1.356 . S
C841 C835 1.363 . S
C841 C836 1.379 . S
C841 N839 1.356 . S
N842 C834 1.356 . S
N842 H848 0.984 . S
N842 H849 0.984 . S
N843 C836 1.356 . S
N843 H846 0.984 . S
N843 H847 0.985 . S
H844 N839 0.984 . S
H845 N839 0.985 . S
H846 N843 0.984 . S
H847 N843 0.985 . S
H848 N842 0.984 . S
H849 N842 0.984 . S
H850 N838 0.984 . S
H851 N838 0.985 . S
C852 C853 1.363 1_545 S
C852 C858 1.379 1_556 S
C852 N860 1.356 . S
C853 C852 1.363 1_565 S
C853 C859 1.363 . S
C854 C855 1.363 1_565 S
C854 C859 1.379 1_554 S
C854 N861 1.356 . S
C855 C854 1.363 1_545 S
C855 C858 1.363 . S
N856 C858 1.356 . S
N856 H868 0.984 . S
N856 H869 0.985 . S
N857 C859 1.356 . S
N857 H862 0.984 . S
N857 H863 0.985 . S
C858 C852 1.379 1_554 S
C858 C855 1.363 . S
C858 N856 1.356 . S
C859 C853 1.363 . S
C859 C854 1.379 1_556 S
C859 N857 1.356 . S
N860 C852 1.356 . S
N860 H866 0.984 . S
N860 H867 0.984 . S
N861 C854 1.356 . S
N861 H864 0.984 . S
N861 H865 0.985 . S
H862 N857 0.984 . S
H863 N857 0.985 . S
H864 N861 0.984 . S
H865 N861 0.985 . S
H866 N860 0.984 . S
H867 N860 0.984 . S
H868 N856 0.984 . S
H869 N856 0.985 . S
C870 C871 1.363 . S
C870 C876 1.379 . S
C870 N878 1.356 . S
C871 C870 1.363 . S
C871 C877 1.363 . S
C872 C873 1.363 . S
C872 C877 1.379 . S
C872 N879 1.356 . S
C873 C872 1.363 . S
C873 C876 1.363 . S
N874 C876 1.356 . S
N874 H886 0.984 . S
N874 H887 0.985 . S
N875 C877 1.356 . S
N875 H880 0.984 . S
N875 H881 0.985 . S
C876 C870 1.379 . S
C876 C873 1.363 . S
C876 N874 1.356 . S
C877 C871 1.363 . S
C877 C872 1.379 . S
C877 N875 1.356 . S
N878 C870 1.356 . S
N878 H884 0.984 . S
N878 H885 0.984 . S
N879 C872 1.356 . S
N879 H882 0.984 . S
N879 H883 0.985 . S
H880 N875 0.984 . S
H881 N875 0.985 . S
H882 N879 0.984 . S
H883 N879 0.985 . S
H884 N878 0.984 . S
H885 N878 0.984 . S
H886 N874 0.984 . S
H887 N874 0.985 . S
C888 C889 1.363 . S
C888 C894 1.372 1_654 S
C888 N896 1.356 . S
C889 C888 1.363 . S
C889 C895 1.380 . S
C890 C891 1.363 . S
C890 C895 1.372 1_456 S
C890 N897 1.356 . S
C891 C890 1.363 . S
C891 C894 1.380 . S
N892 C894 1.350 . S
N892 H904 0.968 1_455 S
N892 H905 0.985 . S
N893 C895 1.350 . S
N893 H898 0.984 . S
N893 H899 0.968 1_655 S
C894 C888 1.372 1_456 S
C894 C891 1.380 . S
C894 N892 1.350 . S
C895 C889 1.380 . S
C895 C890 1.372 1_654 S
C895 N893 1.350 . S
N896 C888 1.356 . S
N896 H902 0.984 . S
N896 H903 0.984 . S
N897 C890 1.356 . S
N897 H900 0.984 . S
N897 H901 0.985 . S
H898 N893 0.984 . S
H899 N893 0.968 1_455 S
H900 N897 0.984 . S
H901 N897 0.985 . S
H902 N896 0.984 . S
H903 N896 0.984 . S
H904 N892 0.968 1_655 S
H905 N892 0.985 . S
C906 C907 1.363 . S
C906 C912 1.379 . S
C906 N914 1.356 . S
C907 C906 1.363 . S
C907 C913 1.363 1_565 S
C908 C909 1.363 . S
C908 C913 1.379 . S
C908 N915 1.356 . S
C909 C908 1.363 . S
C909 C912 1.363 1_545 S
N910 C912 1.356 . S
N910 H922 0.984 . S
N910 H923 0.985 . S
N911 C913 1.356 . S
N911 H916 0.984 . S
N911 H917 0.985 . S
C912 C906 1.379 . S
C912 C909 1.363 1_565 S
C912 N910 1.356 . S
C913 C907 1.363 1_545 S
C913 C908 1.379 . S
C913 N911 1.356 . S
N914 C906 1.356 . S
N914 H920 0.984 . S
N914 H921 0.984 . S
N915 C908 1.356 . S
N915 H918 0.984 . S
N915 H919 0.985 . S
H916 N911 0.984 . S
H917 N911 0.985 . S
H918 N915 0.984 . S
H919 N915 0.985 . S
H920 N914 0.984 . S
H921 N914 0.984 . S
H922 N910 0.984 . S
H923 N910 0.985 . S
C924 C925 1.363 . S
C924 C930 1.379 1_554 S
C924 N932 1.356 . S
C925 C924 1.363 . S
C925 C931 1.363 . S
C926 C927 1.363 . S
C926 C931 1.379 1_556 S
C926 N933 1.356 . S
C927 C926 1.363 . S
C927 C930 1.363 . S
N928 C930 1.356 . S
N928 H940 0.984 . S
N928 H941 0.985 . S
N929 C931 1.356 . S
N929 H934 0.984 . S
N929 H935 0.985 . S
C930 C924 1.379 1_556 S
C930 C927 1.363 . S
C930 N928 1.356 . S
C931 C925 1.363 . S
C931 C926 1.379 1_554 S
C931 N929 1.356 . S
N932 C924 1.356 . S
N932 H938 0.984 . S
N932 H939 0.984 . S
N933 C926 1.356 . S
N933 H936 0.984 . S
N933 H937 0.985 . S
H934 N929 0.984 . S
H935 N929 0.985 . S
H936 N933 0.984 . S
H937 N933 0.985 . S
H938 N932 0.984 . S
H939 N932 0.984 . S
H940 N928 0.984 . S
H941 N928 0.985 . S
C942 C943 1.362 . S
C942 C948 1.377 1_455 S
C942 N950 1.359 . S
C943 C942 1.362 . S
C943 C949 1.363 . S
C944 C945 1.362 . S
C944 C949 1.377 1_655 S
C944 N951 1.359 . S
C945 C944 1.362 . S
C945 C948 1.363 . S
N946 C948 1.356 . S
N946 H958 0.984 . S
N946 H959 0.985 . S
N947 C949 1.356 . S
N947 H952 0.984 . S
N947 H953 0.985 . S
C948 C942 1.377 1_655 S
C948 C945 1.363 . S
C948 N946 1.356 . S
C949 C943 1.363 . S
C949 C944 1.377 1_455 S
C949 N947 1.356 . S
N950 C942 1.359 . S
N950 H956 0.984 1_455 S
N950 H957 0.984 . S
N951 C944 1.359 . S
N951 H954 0.984 . S
N951 H955 0.985 1_655 S
H952 N947 0.984 . S
H953 N947 0.985 . S
H954 N951 0.984 . S
H955 N951 0.985 1_455 S
H956 N950 0.984 1_655 S
H957 N950 0.984 . S
H958 N946 0.984 . S
H959 N946 0.985 . S
C960 C961 1.363 . S
C960 C966 1.379 . S
C960 N968 1.356 . S
C961 C960 1.363 . S
C961 C967 1.363 . S
C962 C963 1.363 . S
C962 C967 1.379 . S
C962 N969 1.356 . S
C963 C962 1.363 . S
C963 C966 1.363 . S
N964 C966 1.356 . S
N964 H976 0.984 . S
N964 H977 0.985 . S
N965 C967 1.356 . S
N965 H970 0.984 . S
N965 H971 0.985 . S
C966 C960 1.379 . S
C966 C963 1.363 . S
C966 N964 1.356 . S
C967 C961 1.363 . S
C967 C962 1.379 . S
C967 N965 1.356 . S
N968 C960 1.356 . S
N968 H974 0.984 . S
N968 H975 0.984 . S
N969 C962 1.356 . S
N969 H972 0.984 . S
N969 H973 0.985 . S
H970 N965 0.984 . S
H971 N965 0.985 . S
H972 N969 0.984 . S
H973 N969 0.985 . S
H974 N968 0.984 . S
H975 N968 0.984 . S
H976 N964 0.984 . S
H977 N964 0.985 . S
C978 C979 1.363 . S
C978 C984 1.379 . S
C978 N986 1.356 . S
C979 C978 1.363 . S
C979 C985 1.363 . S
C980 C981 1.363 . S
C980 C985 1.379 . S
C980 N987 1.356 . S
C981 C980 1.363 . S
C981 C984 1.363 . S
N982 C984 1.356 . S
N982 H994 0.984 . S
N982 H995 0.985 . S
N983 C985 1.356 . S
N983 H988 0.984 . S
N983 H989 0.985 . S
C984 C978 1.379 . S
C984 C981 1.363 . S
C984 N982 1.356 . S
C985 C979 1.363 . S
C985 C980 1.379 . S
C985 N983 1.356 . S
N986 C978 1.356 . S
N986 H992 0.984 . S
N986 H993 0.984 . S
N987 C980 1.356 . S
N987 H990 0.984 . S
N987 H991 0.985 . S
H988 N983 0.984 . S
H989 N983 0.985 . S
H990 N987 0.984 . S
H991 N987 0.985 . S
H992 N986 0.984 . S
H993 N986 0.984 . S
H994 N982 0.984 . S
H995 N982 0.985 . S
C996 C997 1.363 . S
C996 C1002 1.379 . S
C996 N1004 1.356 . S
C997 C996 1.363 . S
C997 C1003 1.363 . S
C998 C999 1.363 . S
C998 C1003 1.379 . S
C998 N1005 1.356 . S
C999 C998 1.363 . S
C999 C1002 1.363 . S
N1000 C1002 1.356 . S
N1000 H1012 0.984 . S
N1000 H1013 0.985 . S
N1001 C1003 1.356 . S
N1001 H1006 0.984 . S
N1001 H1007 0.985 . S
C1002 C996 1.379 . S
C1002 C999 1.363 . S
C1002 N1000 1.356 . S
C1003 C997 1.363 . S
C1003 C998 1.379 . S
C1003 N1001 1.356 . S
N1004 C996 1.356 . S
N1004 H1010 0.984 . S
N1004 H1011 0.984 . S
N1005 C998 1.356 . S
N1005 H1008 0.984 . S
N1005 H1009 0.985 . S
H1006 N1001 0.984 . S
H1007 N1001 0.985 . S
H1008 N1005 0.984 . S
H1009 N1005 0.985 . S
H1010 N1004 0.984 . S
H1011 N1004 0.984 . S
H1012 N1000 0.984 . S
H1013 N1000 0.985 . S
C1014 C1015 1.363 . S
C1014 C1020 1.379 . S
C1014 N1022 1.356 . S
C1015 C1014 1.363 . S
C1015 C1021 1.363 . S
C1016 C1017 1.363 . S
C1016 C1021 1.379 . S
C1016 N1023 1.356 . S
C1017 C1016 1.363 . S
C1017 C1020 1.363 . S
N1018 C1020 1.356 . S
N1018 H1030 0.984 . S
N1018 H1031 0.985 . S
N1019 C1021 1.356 . S
N1019 H1024 0.984 . S
N1019 H1025 0.985 . S
C1020 C1014 1.379 . S
C1020 C1017 1.363 . S
C1020 N1018 1.356 . S
C1021 C1015 1.363 . S
C1021 C1016 1.379 . S
C1021 N1019 1.356 . S
N1022 C1014 1.356 . S
N1022 H1028 0.984 . S
N1022 H1029 0.984 . S
N1023 C1016 1.356 . S
N1023 H1026 0.984 . S
N1023 H1027 0.985 . S
H1024 N1019 0.984 . S
H1025 N1019 0.985 . S
H1026 N1023 0.984 . S
H1027 N1023 0.985 . S
H1028 N1022 0.984 . S
H1029 N1022 0.984 . S
H1030 N1018 0.984 . S
H1031 N1018 0.985 . S
C1032 C1033 1.363 . S
C1032 C1038 1.379 . S
C1032 N1040 1.356 . S
C1033 C1032 1.363 . S
C1033 C1039 1.363 . S
C1034 C1035 1.363 . S
C1034 C1039 1.379 . S
C1034 N1041 1.356 . S
C1035 C1034 1.363 . S
C1035 C1038 1.363 . S
N1036 C1038 1.356 . S
N1036 H1048 0.984 . S
N1036 H1049 0.985 . S
N1037 C1039 1.356 . S
N1037 H1042 0.984 . S
N1037 H1043 0.985 . S
C1038 C1032 1.379 . S
C1038 C1035 1.363 . S
C1038 N1036 1.356 . S
C1039 C1033 1.363 . S
C1039 C1034 1.379 . S
C1039 N1037 1.356 . S
N1040 C1032 1.356 . S
N1040 H1046 0.984 . S
N1040 H1047 0.984 . S
N1041 C1034 1.356 . S
N1041 H1044 0.984 . S
N1041 H1045 0.985 . S
H1042 N1037 0.984 . S
H1043 N1037 0.985 . S
H1044 N1041 0.984 . S
H1045 N1041 0.985 . S
H1046 N1040 0.984 . S
H1047 N1040 0.984 . S
H1048 N1036 0.984 . S
H1049 N1036 0.985 . S
C1050 C1051 1.363 . S
C1050 C1056 1.379 . S
C1050 N1058 1.356 . S
C1051 C1050 1.363 . S
C1051 C1057 1.363 . S
C1052 C1053 1.363 . S
C1052 C1057 1.379 . S
C1052 N1059 1.356 . S
C1053 C1052 1.363 . S
C1053 C1056 1.363 . S
N1054 C1056 1.356 . S
N1054 H1066 0.984 . S
N1054 H1067 0.985 . S
N1055 C1057 1.356 . S
N1055 H1060 0.984 . S
N1055 H1061 0.985 . S
C1056 C1050 1.379 . S
C1056 C1053 1.363 . S
C1056 N1054 1.356 . S
C1057 C1051 1.363 . S
C1057 C1052 1.379 . S
C1057 N1055 1.356 . S
N1058 C1050 1.356 . S
N1058 H1064 0.984 . S
N1058 H1065 0.984 . S
N1059 C1052 1.356 . S
N1059 H1062 0.984 . S
N1059 H1063 0.985 . S
H1060 N1055 0.984 . S
H1061 N1055 0.985 . S
H1062 N1059 0.984 . S
H1063 N1059 0.985 . S
H1064 N1058 0.984 . S
H1065 N1058 0.984 . S
H1066 N1054 0.984 . S
H1067 N1054 0.985 . S
C1068 C1069 1.363 . S
C1068 C1074 1.379 . S
C1068 N1076 1.356 . S
C1069 C1068 1.363 . S
C1069 C1075 1.363 . S
C1070 C1071 1.363 . S
C1070 C1075 1.379 . S
C1070 N1077 1.356 . S
C1071 C1070 1.363 . S
C1071 C1074 1.363 . S
N1072 C1074 1.356 . S
N1072 H1084 0.984 . S
N1072 H1085 0.985 . S
N1073 C1075 1.356 . S
N1073 H1078 0.984 . S
N1073 H1079 0.985 . S
C1074 C1068 1.379 . S
C1074 C1071 1.363 . S
C1074 N1072 1.356 . S
C1075 C1069 1.363 . S
C1075 C1070 1.379 . S
C1075 N1073 1.356 . S
N1076 C1068 1.356 . S
N1076 H1082 0.984 . S
N1076 H1083 0.984 . S
N1077 C1070 1.356 . S
N1077 H1080 0.984 . S
N1077 H1081 0.985 . S
H1078 N1073 0.984 . S
H1079 N1073 0.985 . S
H1080 N1077 0.984 . S
H1081 N1077 0.985 . S
H1082 N1076 0.984 . S
H1083 N1076 0.984 . S
H1084 N1072 0.984 . S
H1085 N1072 0.985 . S
C1086 C1087 1.363 . S
C1086 C1092 1.379 . S
C1086 N1094 1.356 . S
C1087 C1086 1.363 . S
C1087 C1093 1.363 . S
C1088 C1089 1.363 . S
C1088 C1093 1.379 . S
C1088 N1095 1.356 . S
C1089 C1088 1.363 . S
C1089 C1092 1.363 . S
N1090 C1092 1.356 . S
N1090 H1102 0.997 . S
N1090 H1103 0.985 . S
N1091 C1093 1.356 . S
N1091 H1096 0.984 . S
N1091 H1097 0.985 . S
C1092 C1086 1.379 . S
C1092 C1089 1.363 . S
C1092 N1090 1.356 . S
C1093 C1087 1.363 . S
C1093 C1088 1.379 . S
C1093 N1091 1.356 . S
N1094 C1086 1.356 . S
N1094 H1100 1.003 . S
N1094 H1101 0.984 . S
N1095 C1088 1.356 . S
N1095 H1098 0.984 . S
N1095 H1099 0.985 . S
H1096 N1091 0.984 . S
H1097 N1091 0.985 . S
H1098 N1095 0.984 . S
H1099 N1095 0.985 . S
H1100 N1094 1.003 . S
H1101 N1094 0.984 . S
H1102 N1090 0.997 . S
H1103 N1090 0.985 . S
C1104 C1105 1.363 . S
C1104 C1110 1.379 . S
C1104 N1112 1.356 . S
C1105 C1104 1.363 . S
C1105 C1111 1.363 . S
C1106 C1107 1.363 . S
C1106 C1111 1.379 . S
C1106 N1113 1.356 . S
C1107 C1106 1.363 . S
C1107 C1110 1.363 . S
N1108 C1110 1.356 . S
N1108 H1120 0.984 . S
N1108 H1121 0.985 . S
N1109 C1111 1.356 . S
N1109 H1114 0.984 . S
N1109 H1115 0.985 . S
C1110 C1104 1.379 . S
C1110 C1107 1.363 . S
C1110 N1108 1.356 . S
C1111 C1105 1.363 . S
C1111 C1106 1.379 . S
C1111 N1109 1.356 . S
N1112 C1104 1.356 . S
N1112 H1118 0.984 . S
N1112 H1119 0.984 . S
N1113 C1106 1.356 . S
N1113 H1116 0.984 . S
N1113 H1117 0.985 . S
H1114 N1109 0.984 . S
H1115 N1109 0.985 . S
H1116 N1113 0.984 . S
H1117 N1113 0.985 . S
H1118 N1112 0.984 . S
H1119 N1112 0.984 . S
H1120 N1108 0.984 . S
H1121 N1108 0.985 . S
C1122 C1123 1.363 . S
C1122 C1128 1.379 . S
C1122 N1130 1.356 . S
C1123 C1122 1.363 . S
C1123 C1129 1.363 . S
C1124 C1125 1.363 . S
C1124 C1129 1.379 . S
C1124 N1131 1.356 . S
C1125 C1124 1.363 . S
C1125 C1128 1.363 . S
N1126 C1128 1.356 . S
N1126 H1138 0.984 . S
N1126 H1139 0.985 . S
N1127 C1129 1.356 . S
N1127 H1132 0.984 . S
N1127 H1133 0.985 . S
C1128 C1122 1.379 . S
C1128 C1125 1.363 . S
C1128 N1126 1.356 . S
C1129 C1123 1.363 . S
C1129 C1124 1.379 . S
C1129 N1127 1.356 . S
N1130 C1122 1.356 . S
N1130 H1136 0.984 . S
N1130 H1137 0.984 . S
N1131 C1124 1.356 . S
N1131 H1134 0.984 . S
N1131 H1135 0.985 . S
H1132 N1127 0.984 . S
H1133 N1127 0.985 . S
H1134 N1131 0.984 . S
H1135 N1131 0.985 . S
H1136 N1130 0.984 . S
H1137 N1130 0.984 . S
H1138 N1126 0.984 . S
H1139 N1126 0.985 . S
C1140 C1141 1.363 . S
C1140 C1146 1.379 . S
C1140 N1148 1.356 . S
C1141 C1140 1.363 . S
C1141 C1147 1.363 . S
C1142 C1143 1.363 . S
C1142 C1147 1.379 . S
C1142 N1149 1.356 . S
C1143 C1142 1.363 . S
C1143 C1146 1.363 . S
N1144 C1146 1.356 . S
N1144 H1156 0.984 . S
N1144 H1157 0.985 . S
N1145 C1147 1.356 . S
N1145 H1150 0.984 . S
N1145 H1151 0.985 . S
C1146 C1140 1.379 . S
C1146 C1143 1.363 . S
C1146 N1144 1.356 . S
C1147 C1141 1.363 . S
C1147 C1142 1.379 . S
C1147 N1145 1.356 . S
N1148 C1140 1.356 . S
N1148 H1154 0.984 . S
N1148 H1155 0.984 . S
N1149 C1142 1.356 . S
N1149 H1152 0.984 . S
N1149 H1153 0.985 . S
H1150 N1145 0.984 . S
H1151 N1145 0.985 . S
H1152 N1149 0.984 . S
H1153 N1149 0.985 . S
H1154 N1148 0.984 . S
H1155 N1148 0.984 . S
H1156 N1144 0.984 . S
H1157 N1144 0.985 . S
C1158 C1159 1.363 . S
C1158 C1164 1.379 . S
C1158 N1166 1.356 . S
C1159 C1158 1.363 . S
C1159 C1165 1.363 . S
C1160 C1161 1.363 . S
C1160 C1165 1.379 . S
C1160 N1167 1.356 . S
C1161 C1160 1.363 . S
C1161 C1164 1.363 . S
N1162 C1164 1.356 . S
N1162 H1174 0.984 . S
N1162 H1175 0.985 . S
N1163 C1165 1.356 . S
N1163 H1168 0.984 . S
N1163 H1169 0.985 . S
C1164 C1158 1.379 . S
C1164 C1161 1.363 . S
C1164 N1162 1.356 . S
C1165 C1159 1.363 . S
C1165 C1160 1.379 . S
C1165 N1163 1.356 . S
N1166 C1158 1.356 . S
N1166 H1172 0.984 . S
N1166 H1173 0.984 . S
N1167 C1160 1.356 . S
N1167 H1170 0.984 . S
N1167 H1171 0.985 . S
H1168 N1163 0.984 . S
H1169 N1163 0.985 . S
H1170 N1167 0.984 . S
H1171 N1167 0.985 . S
H1172 N1166 0.984 . S
H1173 N1166 0.984 . S
H1174 N1162 0.984 . S
H1175 N1162 0.985 . S
C313 C199 1.449 . S
C315 C10 1.449 . S
C331 C17 1.449 . S
C333 C212 1.449 . S
C349 C36 1.449 . S
C351 C231 1.449 . S
C367 C43 1.449 . S
C369 C166 1.449 . S
C385 C179 1.449 . S
C387 C62 1.449 . S
C403 C75 1.449 . S
C405 C186 1.449 . S
C421 C277 1.449 . S
C423 C88 1.449 . S
C439 C95 1.449 . S
C441 C296 1.449 . S
C457 C108 1.449 . S
C459 C309 1.449 . S
C475 C238 1.449 . S
C477 C121 1.449 . S
C493 C134 1.449 . S
C495 C257 1.449 . S
C511 C270 1.449 . S
C513 C153 1.449 . S
C529 C4 1.648 . S
C531 C303 1.648 . S
C547 C244 1.648 . S
C549 C23 1.648 . S
C565 C30 1.648 . S
C567 C251 1.648 . S
C583 C264 1.648 . S
C585 C49 1.648 . S
C601 C56 1.648 . S
C603 C283 1.648 . S
C619 C290 1.648 . S
C621 C69 1.648 . S
C637 C82 1.648 . S
C639 C173 1.648 . S
C655 C192 1.648 . S
C657 C101 1.648 . S
C673 C205 1.648 . S
C675 C114 1.648 . S
C691 C218 1.648 . S
C693 C127 1.648 . S
C709 C140 1.648 . S
C711 C225 1.648 . S
C727 C147 1.648 . S
C729 C160 1.648 . S
C745 C96 1.361 . S
C747 C3 1.361 . S
C763 C109 1.361 . S
C765 C18 1.361 . S
C781 C122 1.361 . S
C783 C29 1.361 . S
C799 C135 1.361 . S
C801 C44 1.361 . S
C817 C55 1.361 . S
C819 C146 1.361 . S
C835 C68 1.361 . S
C837 C81 1.361 . S
C853 C159 1.361 . S
C855 C250 1.361 . S
C871 C172 1.361 . S
C873 C263 1.361 . S
C889 C278 1.361 . S
C891 C187 1.361 . S
C907 C289 1.361 . S
C909 C200 1.361 . S
C925 C302 1.361 . S
C927 C213 1.361 . S
C943 C239 1.361 . S
C945 C224 1.361 . S
C961 C5 1.681 . S
C963 C252 1.681 . S
C979 C265 1.681 . S
C981 C16 1.681 . S
C997 C31 1.681 . S
C999 C276 1.681 . S
C1015 C291 1.681 . S
C1017 C42 1.681 . S
C1033 C57 1.681 . S
C1035 C304 1.681 . S
C1051 C237 1.681 . S
C1053 C70 1.681 . S
C1069 C83 1.681 . S
C1071 C226 1.681 . S
C1087 C161 1.681 . S
C1089 C94 1.681 . S
C1105 C107 1.681 . S
C1107 C174 1.681 . S
C1123 C120 1.681 . S
C1125 C185 1.681 . S
C1141 C133 1.681 . S
C1143 C198 1.681 . S
C1159 C148 1.681 . S
C1161 C211 1.681 . S
