# Generated by pormake.
# Topology fni, (5)-cn, num edge types: 1
# Building blocks:
#     Node 0, Type 0, BuildingBlock: BEQFEK_clean_sbu_0, # of connection points: 5
#     Node 1, Type 0, BuildingBlock: BEQFEK_clean_sbu_0, # of connection points: 5
#     Node 2, Type 0, BuildingBlock: BEQFEK_clean_sbu_0, # of connection points: 5
#     Node 3, Type 0, BuildingBlock: BEQFEK_clean_sbu_0, # of connection points: 5
#     Node 4, Type 0, BuildingBlock: BEQFEK_clean_sbu_0, # of connection points: 5
#     Node 5, Type 0, BuildingBlock: BEQFEK_clean_sbu_0, # of connection points: 5
#     Node 6, Type 0, BuildingBlock: BEQFEK_clean_sbu_0, # of connection points: 5
#     Node 7, Type 0, BuildingBlock: BEQFEK_clean_sbu_0, # of connection points: 5
#     Edge 8, Type (0, 0), BuildingBlock: XIVTED_clean_linker_0, # of connection points: 2
#     Edge 9, Type (0, 0), BuildingBlock: XIVTED_clean_linker_0, # of connection points: 2
#     Edge 10, Type (0, 0), BuildingBlock: XIVTED_clean_linker_0, # of connection points: 2
#     Edge 11, Type (0, 0), BuildingBlock: XIVTED_clean_linker_0, # of connection points: 2
#     Edge 12, Type (0, 0), BuildingBlock: XIVTED_clean_linker_0, # of connection points: 2
#     Edge 13, Type (0, 0), BuildingBlock: XIVTED_clean_linker_0, # of connection points: 2
#     Edge 14, Type (0, 0), BuildingBlock: XIVTED_clean_linker_0, # of connection points: 2
#     Edge 15, Type (0, 0), BuildingBlock: XIVTED_clean_linker_0, # of connection points: 2
#     Edge 16, Type (0, 0), BuildingBlock: XIVTED_clean_linker_0, # of connection points: 2
#     Edge 17, Type (0, 0), BuildingBlock: XIVTED_clean_linker_0, # of connection points: 2
#     Edge 18, Type (0, 0), BuildingBlock: XIVTED_clean_linker_0, # of connection points: 2
#     Edge 19, Type (0, 0), BuildingBlock: XIVTED_clean_linker_0, # of connection points: 2
#     Edge 20, Type (0, 0), BuildingBlock: XIVTED_clean_linker_0, # of connection points: 2
#     Edge 21, Type (0, 0), BuildingBlock: XIVTED_clean_linker_0, # of connection points: 2
#     Edge 22, Type (0, 0), BuildingBlock: XIVTED_clean_linker_0, # of connection points: 2
#     Edge 23, Type (0, 0), BuildingBlock: XIVTED_clean_linker_0, # of connection points: 2
#     Edge 24, Type (0, 0), BuildingBlock: XIVTED_clean_linker_0, # of connection points: 2
#     Edge 25, Type (0, 0), BuildingBlock: XIVTED_clean_linker_0, # of connection points: 2
#     Edge 26, Type (0, 0), BuildingBlock: XIVTED_clean_linker_0, # of connection points: 2
#     Edge 27, Type (0, 0), BuildingBlock: XIVTED_clean_linker_0, # of connection points: 2
# Relax obj value: 0.157
# Max RMSD: 0.214
# Mean RMSD: 0.182
data_MOF--net-fni--node1-BEQFEK_clean_sbu_0--edge1-XIVTED_clean_linker_0
_symmetry_space_group_name_H-M    P1
_symmetry_Int_Tables_number       1
_symmetry_cell_setting            triclinic
loop_
_symmetry_equiv_pos_as_xyz
'x, y, z'
_cell_length_a     51.641691
_cell_length_b     54.701608
_cell_length_c     19.187694
_cell_angle_alpha  91.30695
_cell_angle_beta   90.48613
_cell_angle_gamma 89.970502
loop_
_atom_site_label
_atom_site_type_symbol
_atom_site_fract_x
_atom_site_fract_y
_atom_site_fract_z
_atom_type_partial_charge
Co0 Co 0.36835 0.3928 0.08686 0.0
Co1 Co 0.38407 0.3786 0.93497 0.0
C2 C 0.32846 0.38879 0.97574 0.0
O3 O 0.33401 0.39433 0.039 0.0
O4 O 0.34599 0.38229 0.93297 0.0
C5 C 0.34928 0.39418 0.22493 0.0
O6 O 0.33208 0.37873 0.19886 0.0
C7 C 0.38328 0.38582 0.78619 0.0
C8 C 0.41464 0.36181 0.74733 0.0
C9 C 0.39533 0.37764 0.726 0.0
N10 N 0.39464 0.37514 0.84077 0.0
N11 N 0.41347 0.36086 0.81741 0.0
C12 C 0.36272 0.40502 0.79238 0.0
H13 H 0.36358 0.4142 0.84452 0.0
H14 H 0.365 0.4188 0.75129 0.0
H15 H 0.34347 0.39637 0.78541 0.0
C16 C 0.40798 0.43097 0.06579 0.0
N17 N 0.39354 0.41195 0.04249 0.0
N18 N 0.40009 0.40627 0.9781 0.0
C19 C 0.41867 0.42179 0.9577 0.0
C20 C 0.42438 0.43797 0.01273 0.0
C21 C 0.40767 0.44044 0.13962 0.0
H22 H 0.41011 0.42492 0.17529 0.0
H23 H 0.38862 0.44903 0.1505 0.0
H24 H 0.42334 0.45384 0.15068 0.0
O25 O 0.38016 0.35848 0.09156 0.0
O26 O 0.3929 0.34822 0.9847 0.0
H27 H 0.44073 0.40414 0.87723 0.0
H28 H 0.44309 0.43721 0.87806 0.0
C29 C 0.43001 0.4215 0.88611 0.0
H30 H 0.41419 0.42231 0.84694 0.0
H31 H 0.4253 0.35027 0.84916 0.0
O32 O 0.36553 0.40375 0.18458 0.0
C33 C 0.38967 0.34299 0.04841 0.0
Co34 Co 0.61192 0.881 0.32375 0.0
Co35 Co 0.6288 0.89023 0.17123 0.0
C36 C 0.6062 0.84171 0.21751 0.0
O37 O 0.60321 0.84875 0.28073 0.0
O38 O 0.61574 0.85585 0.17241 0.0
C39 C 0.58917 0.87139 0.46329 0.0
O40 O 0.57693 0.85166 0.44081 0.0
C41 C 0.62548 0.88903 0.01885 0.0
C42 C 0.6445 0.92371 0.99226 0.0
C43 C 0.63083 0.90408 0.96369 0.0
N44 N 0.6346 0.89973 0.07773 0.0
N45 N 0.64643 0.92021 0.06135 0.0
C46 C 0.61373 0.86406 0.01561 0.0
H47 H 0.62585 0.85153 0.04659 0.0
H48 H 0.59406 0.86488 0.03835 0.0
H49 H 0.61267 0.85644 0.96167 0.0
C50 C 0.57782 0.92298 0.29555 0.0
N51 N 0.59627 0.90691 0.27594 0.0
N52 N 0.60343 0.91136 0.21185 0.0
C53 C 0.58946 0.93041 0.18836 0.0
C54 C 0.57293 0.93843 0.24076 0.0
C55 C 0.56598 0.92397 0.36651 0.0
H56 H 0.58149 0.92676 0.40626 0.0
H57 H 0.55644 0.90625 0.3766 0.0
H58 H 0.55169 0.939 0.37213 0.0
O59 O 0.64966 0.8851 0.3283 0.0
O60 O 0.66273 0.89261 0.22146 0.0
H61 H 0.60864 0.95016 0.1092 0.0
H62 H 0.57384 0.95197 0.1045 0.0
C63 C 0.59044 0.93975 0.11574 0.0
H64 H 0.59008 0.92421 0.07775 0.0
H65 H 0.65503 0.93222 0.09769 0.0
O66 O 0.60262 0.8837 0.42176 0.0
C67 C 0.66762 0.88979 0.2859 0.0
Co68 Co 0.11608 0.10984 0.45289 0.0
Co69 Co 0.13567 0.09843 0.6028 0.0
C70 C 0.11281 0.14764 0.56451 0.0
O71 O 0.10756 0.1412 0.50172 0.0
O72 O 0.12389 0.133 0.60593 0.0
C73 C 0.11131 0.12659 0.3154 0.0
O74 O 0.12406 0.14543 0.34198 0.0
C75 C 0.12884 0.09812 0.75241 0.0
C76 C 0.15989 0.07362 0.78873 0.0
C77 C 0.13983 0.08849 0.81175 0.0
N78 N 0.14192 0.08964 0.69676 0.0
N79 N 0.16045 0.07493 0.71865 0.0
C80 C 0.10496 0.11355 0.74805 0.0
H81 H 0.09522 0.11077 0.69671 0.0
H82 H 0.09133 0.10906 0.79031 0.0
H83 H 0.11039 0.13307 0.75424 0.0
C84 C 0.08329 0.06682 0.47847 0.0
N85 N 0.10166 0.08296 0.49864 0.0
N86 N 0.10967 0.07793 0.56192 0.0
C87 C 0.0964 0.05845 0.58456 0.0
C88 C 0.07914 0.05078 0.53235 0.0
C89 C 0.07112 0.06617 0.40733 0.0
H90 H 0.08655 0.06602 0.36748 0.0
H91 H 0.05938 0.08296 0.40049 0.0
H92 H 0.05879 0.0498 0.39844 0.0
O93 O 0.15392 0.10595 0.44549 0.0
O94 O 0.16872 0.0962 0.55003 0.0
H95 H 0.11946 0.043 0.66558 0.0
H96 H 0.08608 0.03283 0.66487 0.0
C97 C 0.09908 0.04856 0.65639 0.0
H98 H 0.09424 0.06314 0.69512 0.0
H99 H 0.17357 0.06594 0.68585 0.0
O100 O 0.10403 0.10984 0.35546 0.0
C101 C 0.17254 0.10031 0.48581 0.0
Co102 Co 0.87139 0.60321 0.68107 0.0
Co103 Co 0.88887 0.61902 0.83152 0.0
C104 C 0.83261 0.60855 0.79151 0.0
O105 O 0.83725 0.60223 0.72845 0.0
O106 O 0.85075 0.61548 0.83272 0.0
C107 C 0.85403 0.60239 0.54044 0.0
O108 O 0.83747 0.61875 0.56411 0.0
C109 C 0.88869 0.61058 0.97939 0.0
C110 C 0.91736 0.6369 0.02239 0.0
C111 C 0.89953 0.61934 0.04116 0.0
N112 N 0.89927 0.62255 0.92645 0.0
N113 N 0.91655 0.63818 0.95227 0.0
C114 C 0.86962 0.59014 0.97027 0.0
H115 H 0.87124 0.58159 0.91747 0.0
H116 H 0.87285 0.57615 0.01046 0.0
H117 H 0.84974 0.59741 0.9765 0.0
C118 C 0.90893 0.56358 0.70764 0.0
N119 N 0.89626 0.58403 0.72761 0.0
N120 N 0.90409 0.59077 0.79054 0.0
C121 C 0.92201 0.57474 0.81279 0.0
C122 C 0.92563 0.55699 0.76096 0.0
C123 C 0.90447 0.55031 0.63953 0.0
H124 H 0.88337 0.54888 0.62882 0.0
H125 H 0.91308 0.53172 0.63943 0.0
H126 H 0.91326 0.56094 0.59721 0.0
O127 O 0.88351 0.63744 0.67524 0.0
O128 O 0.89791 0.64889 0.7802 0.0
H129 H 0.95383 0.56538 0.88135 0.0
H130 H 0.92328 0.57133 0.92337 0.0
C131 C 0.93623 0.57703 0.88089 0.0
H132 H 0.94185 0.59635 0.891 0.0
H133 H 0.92742 0.65002 0.92223 0.0
O134 O 0.86911 0.59197 0.58306 0.0
C135 C 0.89379 0.65336 0.71617 0.0
Co136 Co 0.40542 0.13371 0.32227 0.0
Co137 Co 0.38659 0.11972 0.17137 0.0
C138 C 0.40149 0.1717 0.21674 0.0
O139 O 0.40798 0.16625 0.27872 0.0
O140 O 0.393 0.15548 0.17371 0.0
C141 C 0.40989 0.15077 0.46274 0.0
O142 O 0.39574 0.16892 0.43984 0.0
C143 C 0.39516 0.11979 0.02258 0.0
C144 C 0.36554 0.09436 0.97993 0.0
C145 C 0.38528 0.10996 0.96083 0.0
N146 N 0.38176 0.11073 0.07576 0.0
N147 N 0.36409 0.09545 0.05009 0.0
C148 C 0.41828 0.13608 0.03156 0.0
H149 H 0.42689 0.13418 0.08435 0.0
H150 H 0.43299 0.1316 0.99139 0.0
H151 H 0.41229 0.15534 0.02519 0.0
C152 C 0.44401 0.09528 0.28867 0.0
N153 N 0.42381 0.1095 0.27113 0.0
N154 N 0.41529 0.10279 0.2088 0.0
C155 C 0.42957 0.08379 0.18501 0.0
C156 C 0.44831 0.07849 0.23472 0.0
C157 C 0.45734 0.09654 0.35821 0.0
H158 H 0.46342 0.11566 0.36998 0.0
H159 H 0.47443 0.08429 0.36015 0.0
H160 H 0.44347 0.09116 0.39897 0.0
O161 O 0.36857 0.12409 0.32996 0.0
O162 O 0.3547 0.11271 0.22437 0.0
H163 H 0.40449 0.0659 0.11056 0.0
H164 H 0.43739 0.05435 0.11038 0.0
C165 C 0.42521 0.07095 0.1162 0.0
H166 H 0.43004 0.08355 0.07379 0.0
H167 H 0.35093 0.08596 0.08035 0.0
O168 O 0.41788 0.13457 0.41966 0.0
C169 C 0.35077 0.11595 0.28942 0.0
Co170 Co 0.88675 0.87521 0.58758 0.0
Co171 Co 0.90354 0.8615 0.43594 0.0
C172 C 0.84885 0.87779 0.47268 0.0
O173 O 0.85381 0.88183 0.53711 0.0
O174 O 0.86613 0.86955 0.43149 0.0
C175 C 0.87518 0.89786 0.73006 0.0
O176 O 0.86561 0.91831 0.7062 0.0
C177 C 0.90829 0.87348 0.28934 0.0
C178 C 0.92924 0.84136 0.24667 0.0
C179 C 0.91704 0.86283 0.22757 0.0
N180 N 0.91488 0.85889 0.3421 0.0
N181 N 0.92779 0.83994 0.31643 0.0
C182 C 0.89195 0.89597 0.29779 0.0
H183 H 0.87444 0.89441 0.26404 0.0
H184 H 0.88636 0.89906 0.35283 0.0
H185 H 0.90308 0.91217 0.28172 0.0
C186 C 0.93087 0.90991 0.57525 0.0
N187 N 0.91511 0.89221 0.54949 0.0
N188 N 0.92223 0.88637 0.48549 0.0
C189 C 0.94256 0.90039 0.46833 0.0
C190 C 0.94863 0.91572 0.52454 0.0
C191 C 0.92835 0.92158 0.64609 0.0
H192 H 0.90962 0.93144 0.64897 0.0
H193 H 0.94425 0.93472 0.6576 0.0
H194 H 0.92838 0.90723 0.68599 0.0
O195 O 0.89418 0.83988 0.58517 0.0
O196 O 0.90805 0.82915 0.47999 0.0
H197 H 0.97542 0.90816 0.4033 0.0
H198 H 0.9444 0.90752 0.35961 0.0
C199 C 0.95639 0.89876 0.4002 0.0
H200 H 0.95936 0.87932 0.38468 0.0
H201 H 0.93454 0.82547 0.34612 0.0
O202 O 0.88358 0.88138 0.68847 0.0
C203 C 0.90272 0.82379 0.54246 0.0
Co204 Co 0.0924 0.35991 0.84267 0.0
Co205 Co 0.10556 0.3704 0.68879 0.0
C206 C 0.09081 0.31993 0.73576 0.0
O207 O 0.08777 0.32677 0.79915 0.0
O208 O 0.09757 0.33495 0.68955 0.0
C209 C 0.06849 0.34928 0.98076 0.0
O210 O 0.05397 0.3313 0.95624 0.0
C211 C 0.10151 0.36947 0.53673 0.0
C212 C 0.11606 0.40616 0.51121 0.0
C213 C 0.10487 0.38526 0.48215 0.0
N214 N 0.10944 0.38086 0.5958 0.0
N215 N 0.11855 0.40261 0.58012 0.0
C216 C 0.09274 0.34342 0.53288 0.0
H217 H 0.10663 0.33204 0.5622 0.0
H218 H 0.07342 0.34198 0.5573 0.0
H219 H 0.09189 0.33608 0.47863 0.0
C220 C 0.05492 0.40013 0.8196 0.0
N221 N 0.07326 0.38437 0.79699 0.0
N222 N 0.07806 0.38831 0.73106 0.0
C223 C 0.06209 0.40607 0.70866 0.0
C224 C 0.04716 0.41442 0.76423 0.0
C225 C 0.04702 0.40289 0.89429 0.0
H226 H 0.06452 0.40339 0.92815 0.0
H227 H 0.03521 0.38686 0.9086 0.0
H228 H 0.03579 0.41986 0.90422 0.0
O229 O 0.12924 0.36854 0.84572 0.0
O230 O 0.13933 0.37687 0.73701 0.0
H231 H 0.07563 0.42701 0.62366 0.0
H232 H 0.04103 0.42287 0.62437 0.0
C233 C 0.05991 0.41389 0.63458 0.0
H234 H 0.06168 0.39781 0.59884 0.0
H235 H 0.1257 0.41532 0.61682 0.0
O236 O 0.08346 0.36064 0.94078 0.0
C237 C 0.14563 0.37513 0.80099 0.0
Co238 Co 0.59724 0.62842 0.94872 0.0
Co239 Co 0.61576 0.61546 0.09865 0.0
C240 C 0.59885 0.66664 0.05964 0.0
O241 O 0.59291 0.66076 -0.00316 0.0
O242 O 0.60792 0.65091 0.10122 0.0
C243 C 0.59238 0.64548 0.81085 0.0
O244 O 0.60586 0.66402 0.83644 0.0
C245 C 0.60744 0.6152 0.24729 0.0
C246 C 0.63768 0.59028 0.28605 0.0
C247 C 0.61764 0.60547 0.30751 0.0
N248 N 0.62094 0.60646 0.19275 0.0
N249 N 0.63898 0.59149 0.21605 0.0
C250 C 0.58411 0.63126 0.24084 0.0
H251 H 0.57503 0.6288 0.18852 0.0
H252 H 0.5698 0.6271 0.28176 0.0
H253 H 0.59004 0.65063 0.24764 0.0
C254 C 0.56036 0.58851 0.97563 0.0
N255 N 0.5799 0.6034 -0.0043 0.0
N256 N 0.58771 0.59762 0.05864 0.0
C257 C 0.57321 0.57889 0.08087 0.0
C258 C 0.55545 0.57254 0.02893 0.0
C259 C 0.54661 0.5898 0.90686 0.0
H260 H 0.54145 0.60907 0.89641 0.0
H261 H 0.52881 0.57845 0.90558 0.0
H262 H 0.55982 0.58331 0.86505 0.0
O263 O 0.63443 0.62043 0.94042 0.0
O264 O 0.64814 0.60986 0.0454 0.0
H265 H 0.56645 0.54894 0.15035 0.0
H266 H 0.57047 0.57865 0.19181 0.0
C267 C 0.57724 0.56645 0.14876 0.0
H268 H 0.59817 0.56287 0.15697 0.0
H269 H 0.65228 0.58229 0.1843 0.0
O270 O 0.58495 0.62896 0.8515 0.0
C271 C 0.65232 0.61316 0.98093 0.0
H272 H 0.51463 0.56735 0.11599 0.0
H273 H 0.47511 0.43488 0.97426 0.0
H274 H 0.55332 0.5327 0.94193 0.0
H275 H 0.41859 0.48528 0.05835 0.0
H276 H 0.50746 0.46771 0.97833 0.0
H277 H 0.48238 0.53422 0.11311 0.0
C278 C 0.51629 0.55266 0.07745 0.0
C279 C 0.53637 0.55257 0.02894 0.0
C280 C 0.48795 0.47154 -0.00423 0.0
C281 C 0.50017 0.51483 0.02584 0.0
C282 C 0.46951 0.45291 -0.00683 0.0
C283 C 0.44416 0.45752 0.01547 0.0
C284 C 0.48109 0.49474 0.02229 0.0
C285 C 0.43801 0.481 0.04112 0.0
C286 C 0.49795 0.53392 0.07561 0.0
C287 C 0.53792 0.5333 0.97987 0.0
N288 N 0.45641 0.49876 0.04424 0.0
N289 N 0.5201 0.51504 0.97977 0.0
H290 H 0.5009 0.08123 0.23775 0.0
H291 H 0.52091 0.93667 0.26195 0.0
H292 H 0.43776 0.02981 0.22995 0.0
H293 H 0.58279 0.98615 0.21391 0.0
H294 H 0.49025 0.97091 0.25921 0.0
H295 H 0.53165 0.04695 0.23776 0.0
C296 C 0.49363 0.06265 0.23593 0.0
C297 C 0.46697 0.05813 0.23359 0.0
C298 C 0.51052 0.97429 0.24911 0.0
C299 C 0.50166 0.01904 0.23406 0.0
C300 C 0.52795 0.95483 0.25098 0.0
C301 C 0.55426 0.9588 0.23843 0.0
C302 C 0.51958 -0.00211 0.23517 0.0
C303 C 0.56256 0.98249 0.22379 0.0
C304 C 0.51108 0.04315 0.23575 0.0
C305 C 0.45828 0.03388 0.23135 0.0
N306 N 0.54528 0.00123 0.22291 0.0
N307 N 0.4756 0.01519 0.23193 0.0
H308 H 0.99217 0.91808 0.60558 0.0
H309 H 0.02779 0.05378 0.5011 0.0
H310 H 0.9493 0.95724 0.45022 0.0
H311 H 0.08635 0.003 0.56777 0.0
H312 H 0.99594 0.02061 0.49944 0.0
H313 H 0.02455 0.95114 0.60964 0.0
C314 C 0.98967 0.93371 0.57251 0.0
C315 C 0.96828 0.93519 0.52753 0.0
C316 C 0.01575 0.01675 0.51453 0.0
C317 C 0.0046 0.97284 0.53242 0.0
C318 C 0.03389 0.03561 0.51542 0.0
C319 C 0.05967 0.03102 0.53438 0.0
C320 C 0.02338 0.99322 0.53392 0.0
C321 C 0.06655 0.00728 0.55356 0.0
C322 C 0.00806 0.95244 0.57464 0.0
C323 C 0.96567 0.95561 0.48544 0.0
N324 N 0.04846 0.98921 0.55311 0.0
N325 N 0.98355 0.97379 0.48925 0.0
H326 H -0.00135 0.41652 0.82083 0.0
H327 H 0.96414 0.5468 0.66923 0.0
H328 H 0.05397 0.45947 0.70934 0.0
H329 H 0.9277 0.52005 0.8537 0.0
H330 H 0.99386 0.51177 0.67026 0.0
H331 H 0.96884 0.45153 0.82188 0.0
C332 C 0.00453 0.43335 0.79687 0.0
C333 C 0.02876 0.43518 0.76502 0.0
C334 C 0.9794 0.5136 0.71059 0.0
C335 C 0.99472 0.47486 0.76451 0.0
C336 C 0.96246 0.53345 0.70982 0.0
C337 C 0.94365 0.53612 0.76151 0.0
C338 C 0.97713 0.49616 0.76277 0.0
C339 C 0.94213 0.51853 0.81322 0.0
C340 C 0.98754 0.45323 0.7973 0.0
C341 C 0.0353 0.45721 0.73359 0.0
N342 N 0.95858 0.49911 0.81235 0.0
N343 N 0.01832 0.47616 0.73376 0.0
H344 H 0.31751 0.3784 0.32832 0.0
H345 H 0.42729 0.38832 0.61868 0.0
H346 H 0.39032 0.41493 0.29485 0.0
H347 H 0.34685 0.37811 0.66885 0.0
H348 H 0.41462 0.39617 0.49767 0.0
H349 H 0.32784 0.37702 0.45289 0.0
C350 C 0.33548 0.38641 0.34725 0.0
C351 C 0.35316 0.39659 0.30106 0.0
C352 C 0.39973 0.39251 0.53545 0.0
C353 C 0.36528 0.39467 0.44286 0.0
C354 C 0.40697 0.38791 0.60414 0.0
C355 C 0.38803 0.38297 0.6536 0.0
C356 C 0.37343 0.39157 0.51611 0.0
C357 C 0.36197 0.38246 0.63249 0.0
C358 C 0.34137 0.3856 0.41827 0.0
C359 C 0.37615 0.4068 0.32847 0.0
N360 N 0.35542 0.38653 0.56511 0.0
N361 N 0.38172 0.40526 0.39746 0.0
H362 H 0.65729 0.91734 0.84875 0.0
H363 H 0.56712 0.84838 0.57482 0.0
H364 H 0.58481 0.88585 0.91191 0.0
H365 H 0.61454 0.91026 0.52204 0.0
H366 H 0.5749 0.85829 0.69894 0.0
H367 H 0.64402 0.91141 0.72684 0.0
C368 C 0.63866 0.90906 0.8369 0.0
C369 C 0.62259 0.90117 0.89023 0.0
C370 C 0.58328 0.86976 0.65977 0.0
C371 C 0.60731 0.89434 0.75162 0.0
C372 C 0.57887 0.86413 0.58918 0.0
C373 C 0.59048 0.87828 0.53802 0.0
C374 C 0.59967 0.88937 0.67859 0.0
C375 C 0.60546 0.89858 0.55951 0.0
C376 C 0.63108 0.90572 0.76754 0.0
C377 C 0.5984 0.89098 0.87222 0.0
N378 N 0.60991 0.90329 0.62806 0.0
N379 N 0.5916 0.88751 0.80423 0.0
H380 H 0.13559 0.05644 0.91774 0.0
H381 H 0.12107 0.15935 0.21314 0.0
H382 H 0.1293 0.13302 0.87182 0.0
H383 H 0.09967 0.0841 0.24416 0.0
H384 H 0.12545 0.15026 0.08835 0.0
H385 H 0.12471 0.06611 0.03956 0.0
C386 C 0.13176 0.07524 0.93338 0.0
C387 C 0.1329 0.09392 0.88481 0.0
C388 C 0.11949 0.13583 0.12244 0.0
C389 C 0.12079 0.10516 0.0233 0.0
C390 C 0.11696 0.14101 0.1936 0.0
C391 C 0.11015 0.12244 0.23915 0.0
C392 C 0.1156 0.11182 0.09699 0.0
C393 C 0.105 0.09899 0.21098 0.0
C394 C 0.12541 0.08074 0.00256 0.0
C395 C 0.12797 0.11802 0.9074 0.0
N396 N 0.10818 0.09427 0.14182 0.0
N397 N 0.12229 0.12299 0.97519 0.0
H398 H 0.85058 0.61618 0.09217 0.0
H399 H 0.89587 0.58158 0.47587 0.0
H400 H 0.9309 0.61033 0.15272 0.0
H401 H 0.82324 0.61763 0.43291 0.0
H402 H 0.90636 0.58292 0.35205 0.0
H403 H 0.83802 0.60805 0.21208 0.0
C404 C 0.86555 0.61272 0.13052 0.0
C405 C 0.8918 0.61355 0.11265 0.0
C406 C 0.88804 0.59031 0.36977 0.0
C407 C 0.8776 0.60453 0.2496 0.0
C408 C 0.88192 0.58941 0.44029 0.0
C409 C 0.8587 0.59971 0.46482 0.0
C410 C 0.87068 0.60125 0.32336 0.0
C411 C 0.84142 0.60965 0.41628 0.0
C412 C 0.85837 0.60832 0.19894 0.0
C413 C 0.91046 0.60975 0.16468 0.0
N414 N 0.8478 0.61024 0.34777 0.0
N415 N 0.903 0.60529 0.23097 0.0
H416 H 0.39139 0.07853 0.84993 0.0
H417 H 0.39938 0.18276 0.57069 0.0
H418 H 0.39467 0.15505 0.90829 0.0
H419 H 0.42451 0.10875 0.52687 0.0
H420 H 0.39666 0.17317 0.69438 0.0
H421 H 0.40178 0.08906 0.72972 0.0
C422 C 0.39453 0.0975 0.83742 0.0
C423 C 0.3926 0.11591 0.88904 0.0
C424 C 0.40309 0.15914 0.65774 0.0
C425 C 0.40408 0.12814 0.75221 0.0
C426 C 0.40466 0.16461 0.58719 0.0
C427 C 0.41201 0.1465 0.53835 0.0
C428 C 0.40847 0.13529 0.67931 0.0
C429 C 0.41869 0.12328 0.56266 0.0
C430 C 0.40058 0.1035 0.76911 0.0
C431 C 0.39664 0.14025 0.87036 0.0
N432 N 0.41639 0.11823 0.63131 0.0
N433 N 0.40198 0.1457 0.80329 0.0
H434 H 0.91535 0.9086 0.16901 0.0
H435 H 0.87794 0.85412 0.79245 0.0
H436 H 0.9041 0.83189 0.12083 0.0
H437 H 0.87867 0.93171 0.83865 0.0
H438 H 0.88693 0.8463 0.91411 0.0
H439 H 0.90194 0.91812 0.05003 0.0
C440 C 0.90966 0.89379 0.13396 0.0
C441 C 0.91031 0.86943 0.15538 0.0
C442 C 0.885 0.86507 0.89815 0.0
C443 C 0.89564 0.88014 0.01885 0.0
C444 C 0.87985 0.86957 0.82851 0.0
C445 C 0.87772 0.89363 0.8054 0.0
C446 C 0.88835 0.88476 0.94546 0.0
C447 C 0.88012 0.91289 0.85453 0.0
C448 C 0.90221 0.89924 0.06582 0.0
C449 C 0.90389 0.85093 0.10659 0.0
N450 N 0.88559 0.90805 0.92244 0.0
N451 N 0.8968 0.85667 0.04081 0.0
H452 H 0.13037 0.40084 0.36852 0.0
H453 H 0.04546 0.32642 0.09127 0.0
H454 H 0.06108 0.36303 0.42904 0.0
H455 H 0.09321 0.38826 0.04018 0.0
H456 H 0.05173 0.33697 0.21566 0.0
H457 H 0.11835 0.39387 0.24635 0.0
C458 C 0.11268 0.39099 0.35596 0.0
C459 C 0.09721 0.38169 0.40859 0.0
C460 C 0.06054 0.34827 0.17678 0.0
C461 C 0.08327 0.37368 0.26954 0.0
C462 C 0.05698 0.34227 0.10606 0.0
C463 C 0.06916 0.35621 0.05541 0.0
C464 C 0.07653 0.36812 0.19617 0.0
C465 C 0.08378 0.37668 0.0773 0.0
C466 C 0.10579 0.38704 0.2864 0.0
C467 C 0.07421 0.36943 0.38978 0.0
N468 N 0.08728 0.38182 0.14593 0.0
N469 N 0.06805 0.36546 0.32154 0.0
H470 H 0.60244 0.67775 0.70744 0.0
H471 H 0.61232 0.57388 0.41415 0.0
H472 H 0.57853 0.60333 0.74094 0.0
H473 H 0.60757 0.65037 0.36609 0.0
H474 H 0.60183 0.58417 0.53581 0.0
H475 H 0.60542 0.6683 0.58247 0.0
C476 C 0.59749 0.65953 0.68842 0.0
C477 C 0.59041 0.64127 0.7347 0.0
C478 C 0.60274 0.59866 0.49836 0.0
C479 C 0.59424 0.63024 0.59233 0.0
C480 C 0.60885 0.5928 0.42924 0.0
C481 C 0.61037 0.61127 0.38013 0.0
C482 C 0.59878 0.62322 0.51854 0.0
C483 C 0.60592 0.63553 0.40207 0.0
C484 C 0.5992 0.65415 0.61716 0.0
C485 C 0.58414 0.61797 0.70719 0.0
N486 N 0.60052 0.64085 0.46986 0.0
N487 N 0.58657 0.61303 0.6379 0.0
H488 H 0.18932 0.37949 0.7215 0.0
H489 H 0.28454 0.40126 0.04909 0.0
H490 H 0.1631 0.38242 0.93463 0.0
H491 H 0.31011 0.377 0.84526 0.0
H492 H 0.23975 0.40059 0.00561 0.0
H493 H 0.23386 0.38524 0.76367 0.0
C494 C 0.19289 0.38152 0.77704 0.0
C495 C 0.17248 0.38024 0.82458 0.0
C496 C 0.25527 0.39559 0.97044 0.0
C497 C 0.22329 0.38688 0.87313 0.0
C498 C 0.28082 0.39599 -0.00482 0.0
C499 C 0.30123 0.38934 0.95072 0.0
C500 C 0.25013 0.38867 0.90067 0.0
C501 C 0.29517 0.3826 0.88133 0.0
C502 C 0.2183 0.38471 0.8011 0.0
C503 C 0.17826 0.38303 0.89607 0.0
N504 N 0.27023 0.38246 0.85851 0.0
N505 N 0.20311 0.38618 0.91816 0.0
H506 H 0.59241 0.82415 0.08786 0.0
H507 H 0.60863 0.68497 0.19101 0.0
H508 H 0.60546 0.80118 0.29871 0.0
H509 H 0.58305 0.70694 0.98692 0.0
H510 H 0.60604 0.72726 0.23189 0.0
H511 H 0.58727 0.78152 0.05054 0.0
C512 C 0.59423 0.81014 0.12633 0.0
C513 C 0.59992 0.81623 0.19621 0.0
C514 C 0.60075 0.72286 0.17833 0.0
C515 C 0.59387 0.76726 0.15399 0.0
C516 C 0.60219 0.69862 0.15481 0.0
C517 C 0.59601 0.69227 0.08526 0.0
C518 C 0.59338 0.74108 0.13192 0.0
C519 C 0.58804 0.71094 0.04089 0.0
C520 C 0.59109 0.78577 0.10506 0.0
C521 C 0.60122 0.7973 0.24422 0.0
N522 N 0.58715 0.73454 0.06484 0.0
N523 N 0.59854 0.77364 0.22206 0.0
H524 H 0.33737 0.11524 0.42707 0.0
H525 H 0.1863 0.1003 0.34871 0.0
H526 H 0.30538 0.10481 0.21983 0.0
H527 H 0.21916 0.09822 0.55619 0.0
H528 H 0.22979 0.10153 0.30093 0.0
H529 H 0.29446 0.10872 0.4754 0.0
C530 C 0.32135 0.1115 0.39162 0.0
C531 C 0.32501 0.11073 0.31909 0.0
C532 C 0.22755 0.10064 0.35687 0.0
C533 C 0.2757 0.10331 0.37444 0.0
C534 C 0.20267 0.09999 0.38434 0.0
C535 C 0.19902 0.09931 0.45677 0.0
C536 C 0.24907 0.10085 0.402 0.0
C537 C 0.22104 0.09877 0.5001 0.0
C538 C 0.29684 0.10771 0.41939 0.0
C539 C 0.3035 0.10564 0.27598 0.0
N540 N 0.24513 0.09976 0.47207 0.0
N541 N 0.27974 0.1023 0.3043 0.0
H542 H 0.89368 0.6673 0.58001 0.0
H543 H 0.90525 0.80897 0.6769 0.0
H544 H 0.90743 0.69519 0.78942 0.0
H545 H 0.90751 0.78105 0.46475 0.0
H546 H 0.90712 0.7673 0.71835 0.0
H547 H 0.89981 0.70841 0.5362 0.0
C548 C 0.89817 0.68203 0.61683 0.0
C549 C 0.89981 0.67778 0.68871 0.0
C550 C 0.90742 0.77022 0.66273 0.0
C551 C 0.90671 0.72499 0.63864 0.0
C552 C 0.90626 0.79405 0.6389 0.0
C553 C 0.90597 0.79852 0.56711 0.0
C554 C 0.90798 0.75056 0.61456 0.0
C555 C 0.90761 0.77844 0.52051 0.0
C556 C 0.90173 0.70551 0.59164 0.0
C557 C 0.90588 0.69758 0.73369 0.0
N558 N 0.90825 0.75528 0.54505 0.0
N559 N 0.90884 0.72035 0.70796 0.0
H560 H 0.83343 0.87686 0.3359 0.0
H561 H 0.68345 0.89246 0.42193 0.0
H562 H 0.8043 0.88912 0.54411 0.0
H563 H 0.71316 0.89036 0.21219 0.0
H564 H 0.72763 0.89207 0.46713 0.0
H565 H 0.7898 0.88247 0.28952 0.0
C566 C 0.81788 0.88081 0.37199 0.0
C567 C 0.82257 0.88236 0.44424 0.0
C568 C 0.72455 0.89184 0.41122 0.0
C569 C 0.77241 0.88875 0.39108 0.0
C570 C 0.69928 0.89201 0.38523 0.0
C571 C 0.69454 0.89126 0.31299 0.0
C572 C 0.74537 0.89071 0.36481 0.0
C573 C 0.71589 0.89091 0.2682 0.0
C574 C 0.79295 0.88407 0.3453 0.0
C575 C 0.80163 0.88769 0.48816 0.0
N576 N 0.74039 0.89043 0.29487 0.0
N577 N 0.77744 0.89052 0.4609 0.0
H578 H 0.08729 0.18422 0.49559 0.0
H579 H 0.09813 0.27997 0.81725 0.0
H580 H 0.12346 0.1681 0.69302 0.0
H581 H 0.07813 0.30034 0.60777 0.0
H582 H 0.10023 0.23711 0.77762 0.0
H583 H 0.07757 0.22547 0.54031 0.0
C584 C 0.09305 0.18925 0.54839 0.0
C585 C 0.10616 0.17256 0.59061 0.0
C586 C 0.09523 0.25098 0.74043 0.0
C587 C 0.09494 0.21967 0.6422 0.0
C588 C 0.09385 0.2754 0.76315 0.0
C589 C 0.08844 0.29379 0.71539 0.0
C590 C 0.09094 0.24494 0.66964 0.0
C591 C 0.08304 0.28684 0.6459 0.0
C592 C 0.08747 0.21279 0.57391 0.0
C593 C 0.11311 0.18017 0.6587 0.0
N594 N 0.08457 0.263 0.625 0.0
N595 N 0.10745 0.20312 0.68227 0.0
H596 H 0.66614 0.60894 0.84383 0.0
H597 H 0.81666 0.62061 0.92318 0.0
H598 H 0.69836 0.60924 0.05225 0.0
H599 H 0.78739 0.59533 0.7227 0.0
H600 H 0.77309 0.619 0.96941 0.0
H601 H 0.7099 0.60601 0.79679 0.0
C602 C 0.68241 0.60826 0.87977 0.0
C603 C 0.67858 0.60948 0.95221 0.0
C604 C 0.77618 0.61362 0.91545 0.0
C605 C 0.72869 0.60636 0.89847 0.0
C606 C 0.80113 0.61449 0.88884 0.0
C607 C 0.80587 0.6078 0.81894 0.0
C608 C 0.75554 0.60643 0.87178 0.0
C609 C 0.78471 0.60056 0.77691 0.0
C610 C 0.70736 0.60652 0.85278 0.0
C611 C 0.70038 0.60836 -0.00387 0.0
N612 N 0.7604 0.60019 0.80391 0.0
N613 N 0.72452 0.60712 0.96855 0.0
H614 H 0.3999 0.30177 0.96936 0.0
H615 H 0.41321 0.21329 0.29463 0.0
H616 H 0.39326 0.32751 0.18292 0.0
H617 H 0.39329 0.18863 0.08562 0.0
H618 H 0.4139 0.25551 0.25387 0.0
H619 H 0.40611 0.26022 0.01086 0.0
C620 C 0.4 0.29875 0.02496 0.0
C621 C 0.3958 0.31813 0.07266 0.0
C622 C 0.40959 0.24075 0.21704 0.0
C623 C 0.40292 0.27064 0.12045 0.0
C624 C 0.40923 0.21667 0.24018 0.0
C625 C 0.40325 0.1973 0.19349 0.0
C626 C 0.40422 0.2454 0.14665 0.0
C627 C 0.39818 0.20284 0.12352 0.0
C628 C 0.40344 0.27501 0.04859 0.0
C629 C 0.39617 0.31308 0.14421 0.0
N630 N 0.3988 0.22631 0.1023 0.0
N631 N 0.39958 0.28982 0.16594 0.0
loop_
_geom_bond_atom_site_label_1
_geom_bond_atom_site_label_2
_geom_bond_distance
_geom_bond_site_symmetry_2
_ccdc_geom_bond_type
Co0 O3 1.970 . S
Co0 N17 1.989 . S
Co0 O25 1.967 . S
Co0 O32 1.920 . S
Co1 O4 1.966 . S
Co1 N10 2.022 . S
Co1 N18 1.993 . S
Co1 O26 1.941 . S
C2 O3 1.258 . S
C2 O4 1.263 1_554 S
O3 Co0 1.970 . S
O3 C2 1.258 . S
O4 Co1 1.966 . S
O4 C2 1.263 1_556 S
C5 O6 1.235 . S
C5 O32 1.289 . S
O6 C5 1.235 . S
C7 C9 1.400 . S
C7 N10 1.351 . S
C7 C12 1.501 . S
C8 C9 1.387 . S
C8 N11 1.341 . S
C9 C7 1.400 . S
C9 C8 1.387 . S
N10 Co1 2.022 . S
N10 C7 1.351 . S
N10 N11 1.365 . S
N11 C8 1.341 . S
N11 N10 1.365 . S
N11 H31 0.862 . S
C12 C7 1.501 . S
C12 H13 0.961 . S
C12 H14 0.961 . S
C12 H15 0.960 . S
H13 C12 0.961 . S
H14 C12 0.961 . S
H15 C12 0.960 . S
C16 N17 1.342 . S
C16 C20 1.401 . S
C16 C21 1.499 . S
N17 Co0 1.989 . S
N17 C16 1.342 . S
N17 N18 1.388 1_554 S
N18 Co1 1.993 . S
N18 N17 1.388 1_556 S
N18 C19 1.346 . S
C19 N18 1.346 . S
C19 C20 1.396 1_556 S
C19 C29 1.510 . S
C20 C16 1.401 . S
C20 C19 1.396 1_554 S
C21 C16 1.499 . S
C21 H22 0.959 . S
C21 H23 0.960 . S
C21 H24 0.961 . S
H22 C21 0.959 . S
H23 C21 0.960 . S
H24 C21 0.961 . S
O25 Co0 1.967 . S
O25 C33 1.258 . S
O26 Co1 1.941 . S
O26 C33 1.266 1_556 S
H27 C29 0.959 . S
H28 C29 0.961 . S
C29 C19 1.510 . S
C29 H27 0.959 . S
C29 H28 0.961 . S
C29 H30 0.960 . S
H30 C29 0.960 . S
H31 N11 0.862 . S
O32 Co0 1.920 . S
O32 C5 1.289 . S
C33 O25 1.258 . S
C33 O26 1.266 1_554 S
Co34 O37 1.970 . S
Co34 N51 1.989 . S
Co34 O59 1.967 . S
Co34 O66 1.920 . S
Co35 O38 1.966 . S
Co35 N44 2.022 . S
Co35 N52 1.993 . S
Co35 O60 1.941 . S
C36 O37 1.258 . S
C36 O38 1.263 . S
O37 Co34 1.970 . S
O37 C36 1.258 . S
O38 Co35 1.966 . S
O38 C36 1.263 . S
C39 O40 1.235 . S
C39 O66 1.289 . S
O40 C39 1.235 . S
C41 C43 1.400 1_554 S
C41 N44 1.351 . S
C41 C46 1.501 . S
C42 C43 1.387 . S
C42 N45 1.341 1_556 S
C43 C41 1.400 1_556 S
C43 C42 1.387 . S
N44 Co35 2.022 . S
N44 C41 1.351 . S
N44 N45 1.365 . S
N45 C42 1.341 1_554 S
N45 N44 1.365 . S
N45 H65 0.862 . S
C46 C41 1.501 . S
C46 H47 0.961 . S
C46 H48 0.961 . S
C46 H49 0.960 1_554 S
H47 C46 0.961 . S
H48 C46 0.961 . S
H49 C46 0.960 1_556 S
C50 N51 1.342 . S
C50 C54 1.401 . S
C50 C55 1.499 . S
N51 Co34 1.989 . S
N51 C50 1.342 . S
N51 N52 1.388 . S
N52 Co35 1.993 . S
N52 N51 1.388 . S
N52 C53 1.346 . S
C53 N52 1.346 . S
C53 C54 1.396 . S
C53 C63 1.510 . S
C54 C50 1.401 . S
C54 C53 1.396 . S
C55 C50 1.499 . S
C55 H56 0.959 . S
C55 H57 0.960 . S
C55 H58 0.961 . S
H56 C55 0.959 . S
H57 C55 0.960 . S
H58 C55 0.961 . S
O59 Co34 1.967 . S
O59 C67 1.258 . S
O60 Co35 1.941 . S
O60 C67 1.266 . S
H61 C63 0.959 . S
H62 C63 0.961 . S
C63 C53 1.510 . S
C63 H61 0.959 . S
C63 H62 0.961 . S
C63 H64 0.960 . S
H64 C63 0.960 . S
H65 N45 0.862 . S
O66 Co34 1.920 . S
O66 C39 1.289 . S
C67 O59 1.258 . S
C67 O60 1.266 . S
Co68 O71 1.970 . S
Co68 N85 1.989 . S
Co68 O93 1.967 . S
Co68 O100 1.920 . S
Co69 O72 1.966 . S
Co69 N78 2.022 . S
Co69 N86 1.993 . S
Co69 O94 1.941 . S
C70 O71 1.258 . S
C70 O72 1.263 . S
O71 Co68 1.970 . S
O71 C70 1.258 . S
O72 Co69 1.966 . S
O72 C70 1.263 . S
C73 O74 1.235 . S
C73 O100 1.289 . S
O74 C73 1.235 . S
C75 C77 1.400 . S
C75 N78 1.351 . S
C75 C80 1.501 . S
C76 C77 1.387 . S
C76 N79 1.341 . S
C77 C75 1.400 . S
C77 C76 1.387 . S
N78 Co69 2.022 . S
N78 C75 1.351 . S
N78 N79 1.365 . S
N79 C76 1.341 . S
N79 N78 1.365 . S
N79 H99 0.862 . S
C80 C75 1.501 . S
C80 H81 0.961 . S
C80 H82 0.961 . S
C80 H83 0.960 . S
H81 C80 0.961 . S
H82 C80 0.961 . S
H83 C80 0.960 . S
C84 N85 1.342 . S
C84 C88 1.401 . S
C84 C89 1.499 . S
N85 Co68 1.989 . S
N85 C84 1.342 . S
N85 N86 1.388 . S
N86 Co69 1.993 . S
N86 N85 1.388 . S
N86 C87 1.346 . S
C87 N86 1.346 . S
C87 C88 1.396 . S
C87 C97 1.510 . S
C88 C84 1.401 . S
C88 C87 1.396 . S
C89 C84 1.499 . S
C89 H90 0.959 . S
C89 H91 0.960 . S
C89 H92 0.961 . S
H90 C89 0.959 . S
H91 C89 0.960 . S
H92 C89 0.961 . S
O93 Co68 1.967 . S
O93 C101 1.258 . S
O94 Co69 1.941 . S
O94 C101 1.266 . S
H95 C97 0.959 . S
H96 C97 0.961 . S
C97 C87 1.510 . S
C97 H95 0.959 . S
C97 H96 0.961 . S
C97 H98 0.960 . S
H98 C97 0.960 . S
H99 N79 0.862 . S
O100 Co68 1.920 . S
O100 C73 1.289 . S
C101 O93 1.258 . S
C101 O94 1.266 . S
Co102 O105 1.970 . S
Co102 N119 1.989 . S
Co102 O127 1.967 . S
Co102 O134 1.920 . S
Co103 O106 1.966 . S
Co103 N112 2.022 . S
Co103 N120 1.993 . S
Co103 O128 1.941 . S
C104 O105 1.258 . S
C104 O106 1.263 . S
O105 Co102 1.970 . S
O105 C104 1.258 . S
O106 Co103 1.966 . S
O106 C104 1.263 . S
C107 O108 1.235 . S
C107 O134 1.289 . S
O108 C107 1.235 . S
C109 C111 1.400 . S
C109 N112 1.351 1_554 S
C109 C114 1.501 . S
C110 C111 1.387 . S
C110 N113 1.326 1_554 S
C111 C109 1.400 . S
C111 C110 1.387 . S
N112 Co103 2.022 . S
N112 C109 1.351 1_556 S
N112 N113 1.371 . S
N113 C110 1.326 1_556 S
N113 N112 1.371 . S
N113 H133 0.870 . S
C114 C109 1.501 . S
C114 H115 0.961 1_554 S
C114 H116 0.961 . S
C114 H117 0.960 . S
H115 C114 0.961 1_556 S
H116 C114 0.961 . S
H117 C114 0.960 . S
C118 N119 1.342 . S
C118 C122 1.401 . S
C118 C123 1.499 . S
N119 Co102 1.989 . S
N119 C118 1.342 . S
N119 N120 1.388 . S
N120 Co103 1.993 . S
N120 N119 1.388 . S
N120 C121 1.346 . S
C121 N120 1.346 . S
C121 C122 1.396 . S
C121 C131 1.510 . S
C122 C118 1.401 . S
C122 C121 1.396 . S
C123 C118 1.499 . S
C123 H124 0.959 . S
C123 H125 0.960 . S
C123 H126 0.961 . S
H124 C123 0.959 . S
H125 C123 0.960 . S
H126 C123 0.961 . S
O127 Co102 1.967 . S
O127 C135 1.258 . S
O128 Co103 1.941 . S
O128 C135 1.266 . S
H129 C131 0.959 . S
H130 C131 0.961 . S
C131 C121 1.510 . S
C131 H129 0.959 . S
C131 H130 0.961 . S
C131 H132 0.960 . S
H132 C131 0.960 . S
H133 N113 0.870 . S
O134 Co102 1.920 . S
O134 C107 1.289 . S
C135 O127 1.258 . S
C135 O128 1.266 . S
Co136 O139 1.970 . S
Co136 N153 1.989 . S
Co136 O161 1.967 . S
Co136 O168 1.920 . S
Co137 O140 1.966 . S
Co137 N146 2.022 . S
Co137 N154 1.993 . S
Co137 O162 1.941 . S
C138 O139 1.258 . S
C138 O140 1.263 . S
O139 Co136 1.970 . S
O139 C138 1.258 . S
O140 Co137 1.966 . S
O140 C138 1.263 . S
C141 O142 1.235 . S
C141 O168 1.289 . S
O142 C141 1.235 . S
C143 C145 1.400 1_554 S
C143 N146 1.351 . S
C143 C148 1.501 . S
C144 C145 1.387 . S
C144 N147 1.341 1_556 S
C145 C143 1.400 1_556 S
C145 C144 1.387 . S
N146 Co137 2.022 . S
N146 C143 1.351 . S
N146 N147 1.365 . S
N147 C144 1.341 1_554 S
N147 N146 1.365 . S
N147 H167 0.862 . S
C148 C143 1.501 . S
C148 H149 0.961 . S
C148 H150 0.961 . S
C148 H151 0.960 1_554 S
H149 C148 0.961 . S
H150 C148 0.961 . S
H151 C148 0.960 1_556 S
C152 N153 1.342 . S
C152 C156 1.401 . S
C152 C157 1.499 . S
N153 Co136 1.989 . S
N153 C152 1.342 . S
N153 N154 1.388 . S
N154 Co137 1.993 . S
N154 N153 1.388 . S
N154 C155 1.346 . S
C155 N154 1.346 . S
C155 C156 1.396 . S
C155 C165 1.510 . S
C156 C152 1.401 . S
C156 C155 1.396 . S
C157 C152 1.499 . S
C157 H158 0.959 . S
C157 H159 0.960 . S
C157 H160 0.961 . S
H158 C157 0.959 . S
H159 C157 0.960 . S
H160 C157 0.961 . S
O161 Co136 1.967 . S
O161 C169 1.258 . S
O162 Co137 1.941 . S
O162 C169 1.266 . S
H163 C165 0.959 . S
H164 C165 0.961 . S
C165 C155 1.510 . S
C165 H163 0.959 . S
C165 H164 0.961 . S
C165 H166 0.960 . S
H166 C165 0.960 . S
H167 N147 0.862 . S
O168 Co136 1.920 . S
O168 C141 1.289 . S
C169 O161 1.258 . S
C169 O162 1.266 . S
Co170 O173 1.970 . S
Co170 N187 1.989 . S
Co170 O195 1.967 . S
Co170 O202 1.920 . S
Co171 O174 1.966 . S
Co171 N180 2.022 . S
Co171 N188 1.993 . S
Co171 O196 1.941 . S
C172 O173 1.258 . S
C172 O174 1.263 . S
O173 Co170 1.970 . S
O173 C172 1.258 . S
O174 Co171 1.966 . S
O174 C172 1.263 . S
C175 O176 1.235 . S
C175 O202 1.289 . S
O176 C175 1.235 . S
C177 C179 1.400 . S
C177 N180 1.351 . S
C177 C182 1.501 . S
C178 C179 1.387 . S
C178 N181 1.341 . S
C179 C177 1.400 . S
C179 C178 1.387 . S
N180 Co171 2.022 . S
N180 C177 1.351 . S
N180 N181 1.365 . S
N181 C178 1.341 . S
N181 N180 1.365 . S
N181 H201 0.862 . S
C182 C177 1.501 . S
C182 H183 0.961 . S
C182 H184 0.961 . S
C182 H185 0.960 . S
H183 C182 0.961 . S
H184 C182 0.961 . S
H185 C182 0.960 . S
C186 N187 1.342 . S
C186 C190 1.401 . S
C186 C191 1.499 . S
N187 Co170 1.989 . S
N187 C186 1.342 . S
N187 N188 1.388 . S
N188 Co171 1.993 . S
N188 N187 1.388 . S
N188 C189 1.346 . S
C189 N188 1.346 . S
C189 C190 1.396 . S
C189 C199 1.510 . S
C190 C186 1.401 . S
C190 C189 1.396 . S
C191 C186 1.499 . S
C191 H192 0.959 . S
C191 H193 0.960 . S
C191 H194 0.961 . S
H192 C191 0.959 . S
H193 C191 0.960 . S
H194 C191 0.961 . S
O195 Co170 1.967 . S
O195 C203 1.258 . S
O196 Co171 1.941 . S
O196 C203 1.266 . S
H197 C199 0.959 . S
H198 C199 0.961 . S
C199 C189 1.510 . S
C199 H197 0.959 . S
C199 H198 0.961 . S
C199 H200 0.960 . S
H200 C199 0.960 . S
H201 N181 0.862 . S
O202 Co170 1.920 . S
O202 C175 1.289 . S
C203 O195 1.258 . S
C203 O196 1.266 . S
Co204 O207 1.970 . S
Co204 N221 1.989 . S
Co204 O229 1.967 . S
Co204 O236 1.920 . S
Co205 O208 1.966 . S
Co205 N214 2.022 . S
Co205 N222 1.993 . S
Co205 O230 1.941 . S
C206 O207 1.258 . S
C206 O208 1.263 . S
O207 Co204 1.970 . S
O207 C206 1.258 . S
O208 Co205 1.966 . S
O208 C206 1.263 . S
C209 O210 1.235 . S
C209 O236 1.289 . S
O210 C209 1.235 . S
C211 C213 1.400 . S
C211 N214 1.351 . S
C211 C216 1.501 . S
C212 C213 1.387 . S
C212 N215 1.341 . S
C213 C211 1.400 . S
C213 C212 1.387 . S
N214 Co205 2.022 . S
N214 C211 1.351 . S
N214 N215 1.365 . S
N215 C212 1.341 . S
N215 N214 1.365 . S
N215 H235 0.862 . S
C216 C211 1.501 . S
C216 H217 0.961 . S
C216 H218 0.961 . S
C216 H219 0.960 . S
H217 C216 0.961 . S
H218 C216 0.961 . S
H219 C216 0.960 . S
C220 N221 1.342 . S
C220 C224 1.401 . S
C220 C225 1.499 . S
N221 Co204 1.989 . S
N221 C220 1.342 . S
N221 N222 1.388 . S
N222 Co205 1.993 . S
N222 N221 1.388 . S
N222 C223 1.346 . S
C223 N222 1.346 . S
C223 C224 1.396 . S
C223 C233 1.510 . S
C224 C220 1.401 . S
C224 C223 1.396 . S
C225 C220 1.499 . S
C225 H226 0.959 . S
C225 H227 0.960 . S
C225 H228 0.961 . S
H226 C225 0.959 . S
H227 C225 0.960 . S
H228 C225 0.961 . S
O229 Co204 1.967 . S
O229 C237 1.258 . S
O230 Co205 1.941 . S
O230 C237 1.266 . S
H231 C233 0.959 . S
H232 C233 0.961 . S
C233 C223 1.510 . S
C233 H231 0.959 . S
C233 H232 0.961 . S
C233 H234 0.960 . S
H234 C233 0.960 . S
H235 N215 0.862 . S
O236 Co204 1.920 . S
O236 C209 1.289 . S
C237 O229 1.258 . S
C237 O230 1.266 . S
Co238 O241 1.970 . S
Co238 N255 1.989 . S
Co238 O263 1.967 . S
Co238 O270 1.920 . S
Co239 O242 1.966 . S
Co239 N248 2.022 . S
Co239 N256 1.993 . S
Co239 O264 1.941 . S
C240 O241 1.258 1_554 S
C240 O242 1.263 . S
O241 Co238 1.970 . S
O241 C240 1.258 1_556 S
O242 Co239 1.966 . S
O242 C240 1.263 . S
C243 O244 1.235 . S
C243 O270 1.289 . S
O244 C243 1.235 . S
C245 C247 1.400 . S
C245 N248 1.351 . S
C245 C250 1.501 . S
C246 C247 1.387 . S
C246 N249 1.341 . S
C247 C245 1.400 . S
C247 C246 1.387 . S
N248 Co239 2.022 . S
N248 C245 1.351 . S
N248 N249 1.365 . S
N249 C246 1.341 . S
N249 N248 1.365 . S
N249 H269 0.862 . S
C250 C245 1.501 . S
C250 H251 0.961 . S
C250 H252 0.961 . S
C250 H253 0.960 . S
H251 C250 0.961 . S
H252 C250 0.961 . S
H253 C250 0.960 . S
C254 N255 1.342 . S
C254 C258 1.401 1_556 S
C254 C259 1.499 . S
N255 Co238 1.989 . S
N255 C254 1.342 . S
N255 N256 1.388 1_556 S
N256 Co239 1.993 . S
N256 N255 1.388 1_554 S
N256 C257 1.346 . S
C257 N256 1.346 . S
C257 C258 1.396 . S
C257 C267 1.510 . S
C258 C254 1.401 1_554 S
C258 C257 1.396 . S
C259 C254 1.499 . S
C259 H260 0.959 . S
C259 H261 0.960 . S
C259 H262 0.961 . S
H260 C259 0.959 . S
H261 C259 0.960 . S
H262 C259 0.961 . S
O263 Co238 1.967 . S
O263 C271 1.258 1_556 S
O264 Co239 1.941 . S
O264 C271 1.266 . S
H265 C267 0.959 . S
H266 C267 0.961 . S
C267 C257 1.510 . S
C267 H265 0.959 . S
C267 H266 0.961 . S
C267 H268 0.960 . S
H268 C267 0.960 . S
H269 N249 0.862 . S
O270 Co238 1.920 . S
O270 C243 1.289 . S
C271 O263 1.258 1_554 S
C271 O264 1.266 . S
H272 C278 0.930 . S
H273 C282 0.930 . S
H274 C287 0.929 . S
H275 C285 0.929 . S
H276 C280 0.929 . S
H277 C286 0.929 . S
C278 H272 0.930 . S
C278 C279 1.367 . S
C278 C286 1.378 . S
C279 C278 1.367 . S
C279 C287 1.433 1_554 S
C280 H276 0.929 . S
C280 C282 1.378 . S
C280 C284 1.350 1_556 S
C281 C284 1.463 . S
C281 C286 1.350 . S
C281 N289 1.427 1_554 S
C282 H273 0.930 . S
C282 C280 1.378 . S
C282 C283 1.367 1_556 S
C283 C282 1.367 1_554 S
C283 C285 1.433 . S
C284 C280 1.350 1_554 S
C284 C281 1.463 . S
C284 N288 1.427 . S
C285 H275 0.929 . S
C285 C283 1.433 . S
C285 N288 1.384 . S
C286 H277 0.929 . S
C286 C278 1.378 . S
C286 C281 1.350 . S
C287 H274 0.929 . S
C287 C279 1.433 1_556 S
C287 N289 1.384 . S
N288 C284 1.427 . S
N288 C285 1.384 . S
N289 C281 1.427 1_556 S
N289 C287 1.384 . S
H290 C296 0.930 . S
H291 C300 0.930 . S
H292 C305 0.929 . S
H293 C303 0.929 . S
H294 C298 0.929 . S
H295 C304 0.929 . S
C296 H290 0.930 . S
C296 C297 1.367 . S
C296 C304 1.378 . S
C297 C296 1.367 . S
C297 C305 1.433 . S
C298 H294 0.929 . S
C298 C300 1.378 . S
C298 C302 1.350 . S
C299 C302 1.463 1_545 S
C299 C304 1.350 . S
C299 N307 1.427 . S
C300 H291 0.930 . S
C300 C298 1.378 . S
C300 C301 1.367 . S
C301 C300 1.367 . S
C301 C303 1.433 . S
C302 C298 1.350 . S
C302 C299 1.463 1_565 S
C302 N306 1.427 1_565 S
C303 H293 0.929 . S
C303 C301 1.433 . S
C303 N306 1.384 1_565 S
C304 H295 0.929 . S
C304 C296 1.378 . S
C304 C299 1.350 . S
C305 H292 0.929 . S
C305 C297 1.433 . S
C305 N307 1.384 . S
N306 C302 1.427 1_545 S
N306 C303 1.384 1_545 S
N307 C299 1.427 . S
N307 C305 1.384 . S
H308 C314 0.930 . S
H309 C318 0.930 . S
H310 C323 0.929 . S
H311 C321 0.929 . S
H312 C316 0.929 . S
H313 C322 0.929 . S
C314 H308 0.930 . S
C314 C315 1.367 . S
C314 C322 1.378 1_655 S
C315 C314 1.367 . S
C315 C323 1.433 . S
C316 H312 0.929 . S
C316 C318 1.378 . S
C316 C320 1.350 1_545 S
C317 C320 1.463 . S
C317 C322 1.350 . S
C317 N325 1.427 1_455 S
C318 H309 0.930 . S
C318 C316 1.378 . S
C318 C319 1.367 . S
C319 C318 1.367 . S
C319 C321 1.433 . S
C320 C316 1.350 1_565 S
C320 C317 1.463 . S
C320 N324 1.427 . S
C321 H311 0.929 . S
C321 C319 1.433 . S
C321 N324 1.384 1_545 S
C322 H313 0.929 . S
C322 C314 1.378 1_455 S
C322 C317 1.350 . S
C323 H310 0.929 . S
C323 C315 1.433 . S
C323 N325 1.384 . S
N324 C320 1.427 . S
N324 C321 1.384 1_565 S
N325 C317 1.427 1_655 S
N325 C323 1.384 . S
H326 C332 0.930 . S
H327 C336 0.930 . S
H328 C341 0.929 . S
H329 C339 0.929 . S
H330 C334 0.929 . S
H331 C340 0.929 . S
C332 H326 0.930 . S
C332 C333 1.367 . S
C332 C340 1.378 . S
C333 C332 1.367 . S
C333 C341 1.433 . S
C334 H330 0.929 . S
C334 C336 1.378 . S
C334 C338 1.350 . S
C335 C338 1.463 1_455 S
C335 C340 1.350 . S
C335 N343 1.427 . S
C336 H327 0.930 . S
C336 C334 1.378 . S
C336 C337 1.367 . S
C337 C336 1.367 . S
C337 C339 1.433 . S
C338 C334 1.350 . S
C338 C335 1.463 1_655 S
C338 N342 1.427 . S
C339 H329 0.929 . S
C339 C337 1.433 . S
C339 N342 1.384 . S
C340 H331 0.929 . S
C340 C332 1.378 . S
C340 C335 1.350 . S
C341 H328 0.929 . S
C341 C333 1.433 . S
C341 N343 1.384 . S
N342 C338 1.427 . S
N342 C339 1.384 . S
N343 C335 1.427 . S
N343 C341 1.384 . S
H344 C350 0.930 . S
H345 C354 0.930 . S
H346 C359 0.929 . S
H347 C357 0.929 . S
H348 C352 0.929 . S
H349 C358 0.929 . S
C350 H344 0.930 . S
C350 C351 1.367 . S
C350 C358 1.378 . S
C351 C350 1.367 . S
C351 C359 1.433 . S
C352 H348 0.929 . S
C352 C354 1.378 . S
C352 C356 1.350 . S
C353 C356 1.463 . S
C353 C358 1.350 . S
C353 N361 1.427 . S
C354 H345 0.930 . S
C354 C352 1.378 . S
C354 C355 1.367 . S
C355 C354 1.367 . S
C355 C357 1.433 . S
C356 C352 1.350 . S
C356 C353 1.463 . S
C356 N360 1.427 . S
C357 H347 0.929 . S
C357 C355 1.433 . S
C357 N360 1.384 . S
C358 H349 0.929 . S
C358 C350 1.378 . S
C358 C353 1.350 . S
C359 H346 0.929 . S
C359 C351 1.433 . S
C359 N361 1.384 . S
N360 C356 1.427 . S
N360 C357 1.384 . S
N361 C353 1.427 . S
N361 C359 1.384 . S
H362 C368 0.930 . S
H363 C372 0.930 . S
H364 C377 0.929 . S
H365 C375 0.929 . S
H366 C370 0.929 . S
H367 C376 0.929 . S
C368 H362 0.930 . S
C368 C369 1.367 . S
C368 C376 1.378 . S
C369 C368 1.367 . S
C369 C377 1.433 . S
C370 H366 0.929 . S
C370 C372 1.378 . S
C370 C374 1.350 . S
C371 C374 1.463 . S
C371 C376 1.350 . S
C371 N379 1.427 . S
C372 H363 0.930 . S
C372 C370 1.378 . S
C372 C373 1.367 . S
C373 C372 1.367 . S
C373 C375 1.433 . S
C374 C370 1.350 . S
C374 C371 1.463 . S
C374 N378 1.427 . S
C375 H365 0.929 . S
C375 C373 1.433 . S
C375 N378 1.384 . S
C376 H367 0.929 . S
C376 C368 1.378 . S
C376 C371 1.350 . S
C377 H364 0.929 . S
C377 C369 1.433 . S
C377 N379 1.384 . S
N378 C374 1.427 . S
N378 C375 1.384 . S
N379 C371 1.427 . S
N379 C377 1.384 . S
H380 C386 0.930 . S
H381 C390 0.930 . S
H382 C395 0.929 . S
H383 C393 0.929 . S
H384 C388 0.929 . S
H385 C394 0.929 . S
C386 H380 0.930 . S
C386 C387 1.367 . S
C386 C394 1.378 1_556 S
C387 C386 1.367 . S
C387 C395 1.433 . S
C388 H384 0.929 . S
C388 C390 1.378 . S
C388 C392 1.350 . S
C389 C392 1.463 . S
C389 C394 1.350 . S
C389 N397 1.427 . S
C390 H381 0.930 . S
C390 C388 1.378 . S
C390 C391 1.367 . S
C391 C390 1.367 . S
C391 C393 1.433 . S
C392 C388 1.350 . S
C392 C389 1.463 . S
C392 N396 1.427 . S
C393 H383 0.929 . S
C393 C391 1.433 . S
C393 N396 1.384 . S
C394 H385 0.929 . S
C394 C386 1.378 1_554 S
C394 C389 1.350 . S
C395 H382 0.929 . S
C395 C387 1.433 . S
C395 N397 1.384 1_556 S
N396 C392 1.427 . S
N396 C393 1.384 . S
N397 C389 1.427 . S
N397 C395 1.384 1_554 S
H398 C404 0.930 . S
H399 C408 0.930 . S
H400 C413 0.929 . S
H401 C411 0.929 . S
H402 C406 0.929 . S
H403 C412 0.929 . S
C404 H398 0.930 . S
C404 C405 1.367 . S
C404 C412 1.378 . S
C405 C404 1.367 . S
C405 C413 1.433 . S
C406 H402 0.929 . S
C406 C408 1.378 . S
C406 C410 1.350 . S
C407 C410 1.463 . S
C407 C412 1.350 . S
C407 N415 1.427 . S
C408 H399 0.930 . S
C408 C406 1.378 . S
C408 C409 1.367 . S
C409 C408 1.367 . S
C409 C411 1.433 . S
C410 C406 1.350 . S
C410 C407 1.463 . S
C410 N414 1.427 . S
C411 H401 0.929 . S
C411 C409 1.433 . S
C411 N414 1.384 . S
C412 H403 0.929 . S
C412 C404 1.378 . S
C412 C407 1.350 . S
C413 H400 0.929 . S
C413 C405 1.433 . S
C413 N415 1.384 . S
N414 C410 1.427 . S
N414 C411 1.384 . S
N415 C407 1.427 . S
N415 C413 1.384 . S
H416 C422 0.930 . S
H417 C426 0.930 . S
H418 C431 0.929 . S
H419 C429 0.929 . S
H420 C424 0.929 . S
H421 C430 0.929 . S
C422 H416 0.930 . S
C422 C423 1.367 . S
C422 C430 1.378 . S
C423 C422 1.367 . S
C423 C431 1.433 . S
C424 H420 0.929 . S
C424 C426 1.378 . S
C424 C428 1.350 . S
C425 C428 1.463 . S
C425 C430 1.350 . S
C425 N433 1.427 . S
C426 H417 0.930 . S
C426 C424 1.378 . S
C426 C427 1.367 . S
C427 C426 1.367 . S
C427 C429 1.433 . S
C428 C424 1.350 . S
C428 C425 1.463 . S
C428 N432 1.427 . S
C429 H419 0.929 . S
C429 C427 1.433 . S
C429 N432 1.384 . S
C430 H421 0.929 . S
C430 C422 1.378 . S
C430 C425 1.350 . S
C431 H418 0.929 . S
C431 C423 1.433 . S
C431 N433 1.384 . S
N432 C428 1.427 . S
N432 C429 1.384 . S
N433 C425 1.427 . S
N433 C431 1.384 . S
H434 C440 0.930 . S
H435 C444 0.930 . S
H436 C449 0.929 . S
H437 C447 0.929 . S
H438 C442 0.929 . S
H439 C448 0.929 . S
C440 H434 0.930 . S
C440 C441 1.367 . S
C440 C448 1.378 . S
C441 C440 1.367 . S
C441 C449 1.433 . S
C442 H438 0.929 . S
C442 C444 1.378 . S
C442 C446 1.350 . S
C443 C446 1.463 1_554 S
C443 C448 1.350 . S
C443 N451 1.427 . S
C444 H435 0.930 . S
C444 C442 1.378 . S
C444 C445 1.367 . S
C445 C444 1.367 . S
C445 C447 1.433 . S
C446 C442 1.350 . S
C446 C443 1.463 1_556 S
C446 N450 1.427 . S
C447 H437 0.929 . S
C447 C445 1.433 . S
C447 N450 1.384 . S
C448 H439 0.929 . S
C448 C440 1.378 . S
C448 C443 1.350 . S
C449 H436 0.929 . S
C449 C441 1.433 . S
C449 N451 1.384 . S
N450 C446 1.427 . S
N450 C447 1.384 . S
N451 C443 1.427 . S
N451 C449 1.384 . S
H452 C458 0.930 . S
H453 C462 0.930 . S
H454 C467 0.929 . S
H455 C465 0.929 . S
H456 C460 0.929 . S
H457 C466 0.929 . S
C458 H452 0.930 . S
C458 C459 1.367 . S
C458 C466 1.378 . S
C459 C458 1.367 . S
C459 C467 1.433 . S
C460 H456 0.929 . S
C460 C462 1.378 . S
C460 C464 1.350 . S
C461 C464 1.463 . S
C461 C466 1.350 . S
C461 N469 1.427 . S
C462 H453 0.930 . S
C462 C460 1.378 . S
C462 C463 1.367 . S
C463 C462 1.367 . S
C463 C465 1.433 . S
C464 C460 1.350 . S
C464 C461 1.463 . S
C464 N468 1.427 . S
C465 H455 0.929 . S
C465 C463 1.433 . S
C465 N468 1.384 . S
C466 H457 0.929 . S
C466 C458 1.378 . S
C466 C461 1.350 . S
C467 H454 0.929 . S
C467 C459 1.433 . S
C467 N469 1.384 . S
N468 C464 1.427 . S
N468 C465 1.384 . S
N469 C461 1.427 . S
N469 C467 1.384 . S
H470 C476 0.930 . S
H471 C480 0.930 . S
H472 C485 0.929 . S
H473 C483 0.929 . S
H474 C478 0.929 . S
H475 C484 0.929 . S
C476 H470 0.930 . S
C476 C477 1.367 . S
C476 C484 1.378 . S
C477 C476 1.367 . S
C477 C485 1.433 . S
C478 H474 0.929 . S
C478 C480 1.378 . S
C478 C482 1.350 . S
C479 C482 1.463 . S
C479 C484 1.350 . S
C479 N487 1.427 . S
C480 H471 0.930 . S
C480 C478 1.378 . S
C480 C481 1.367 . S
C481 C480 1.367 . S
C481 C483 1.433 . S
C482 C478 1.350 . S
C482 C479 1.463 . S
C482 N486 1.427 . S
C483 H473 0.929 . S
C483 C481 1.433 . S
C483 N486 1.384 . S
C484 H475 0.929 . S
C484 C476 1.378 . S
C484 C479 1.350 . S
C485 H472 0.929 . S
C485 C477 1.433 . S
C485 N487 1.384 . S
N486 C482 1.427 . S
N486 C483 1.384 . S
N487 C479 1.427 . S
N487 C485 1.384 . S
H488 C494 0.930 . S
H489 C498 0.930 . S
H490 C503 0.929 . S
H491 C501 0.929 . S
H492 C496 0.929 . S
H493 C502 0.929 . S
C494 H488 0.930 . S
C494 C495 1.367 . S
C494 C502 1.378 . S
C495 C494 1.367 . S
C495 C503 1.433 . S
C496 H492 0.929 . S
C496 C498 1.378 . S
C496 C500 1.350 . S
C497 C500 1.463 . S
C497 C502 1.350 . S
C497 N505 1.427 . S
C498 H489 0.930 . S
C498 C496 1.378 . S
C498 C499 1.367 . S
C499 C498 1.367 . S
C499 C501 1.433 . S
C500 C496 1.350 . S
C500 C497 1.463 . S
C500 N504 1.427 . S
C501 H491 0.929 . S
C501 C499 1.433 . S
C501 N504 1.384 . S
C502 H493 0.929 . S
C502 C494 1.378 . S
C502 C497 1.350 . S
C503 H490 0.929 . S
C503 C495 1.433 . S
C503 N505 1.384 . S
N504 C500 1.427 . S
N504 C501 1.384 . S
N505 C497 1.427 . S
N505 C503 1.384 . S
H506 C512 0.930 . S
H507 C516 0.930 . S
H508 C521 0.929 . S
H509 C519 0.929 . S
H510 C514 0.929 . S
H511 C520 0.929 . S
C512 H506 0.930 . S
C512 C513 1.367 . S
C512 C520 1.378 . S
C513 C512 1.367 . S
C513 C521 1.433 . S
C514 H510 0.929 . S
C514 C516 1.378 . S
C514 C518 1.350 . S
C515 C518 1.463 . S
C515 C520 1.350 . S
C515 N523 1.427 . S
C516 H507 0.930 . S
C516 C514 1.378 . S
C516 C517 1.367 . S
C517 C516 1.367 . S
C517 C519 1.433 . S
C518 C514 1.350 . S
C518 C515 1.463 . S
C518 N522 1.427 . S
C519 H509 0.929 . S
C519 C517 1.433 . S
C519 N522 1.384 . S
C520 H511 0.929 . S
C520 C512 1.378 . S
C520 C515 1.350 . S
C521 H508 0.929 . S
C521 C513 1.433 . S
C521 N523 1.384 . S
N522 C518 1.427 . S
N522 C519 1.384 . S
N523 C515 1.427 . S
N523 C521 1.384 . S
H524 C530 0.930 . S
H525 C534 0.930 . S
H526 C539 0.929 . S
H527 C537 0.929 . S
H528 C532 0.929 . S
H529 C538 0.929 . S
C530 H524 0.930 . S
C530 C531 1.367 . S
C530 C538 1.378 . S
C531 C530 1.367 . S
C531 C539 1.433 . S
C532 H528 0.929 . S
C532 C534 1.378 . S
C532 C536 1.350 . S
C533 C536 1.463 . S
C533 C538 1.350 . S
C533 N541 1.427 . S
C534 H525 0.930 . S
C534 C532 1.378 . S
C534 C535 1.367 . S
C535 C534 1.367 . S
C535 C537 1.433 . S
C536 C532 1.350 . S
C536 C533 1.463 . S
C536 N540 1.427 . S
C537 H527 0.929 . S
C537 C535 1.433 . S
C537 N540 1.384 . S
C538 H529 0.929 . S
C538 C530 1.378 . S
C538 C533 1.350 . S
C539 H526 0.929 . S
C539 C531 1.433 . S
C539 N541 1.384 . S
N540 C536 1.427 . S
N540 C537 1.384 . S
N541 C533 1.427 . S
N541 C539 1.384 . S
H542 C548 0.930 . S
H543 C552 0.930 . S
H544 C557 0.929 . S
H545 C555 0.929 . S
H546 C550 0.929 . S
H547 C556 0.929 . S
C548 H542 0.930 . S
C548 C549 1.367 . S
C548 C556 1.378 . S
C549 C548 1.367 . S
C549 C557 1.433 . S
C550 H546 0.929 . S
C550 C552 1.378 . S
C550 C554 1.350 . S
C551 C554 1.463 . S
C551 C556 1.350 . S
C551 N559 1.427 . S
C552 H543 0.930 . S
C552 C550 1.378 . S
C552 C553 1.367 . S
C553 C552 1.367 . S
C553 C555 1.433 . S
C554 C550 1.350 . S
C554 C551 1.463 . S
C554 N558 1.427 . S
C555 H545 0.929 . S
C555 C553 1.433 . S
C555 N558 1.384 . S
C556 H547 0.929 . S
C556 C548 1.378 . S
C556 C551 1.350 . S
C557 H544 0.929 . S
C557 C549 1.433 . S
C557 N559 1.384 . S
N558 C554 1.427 . S
N558 C555 1.384 . S
N559 C551 1.427 . S
N559 C557 1.384 . S
H560 C566 0.930 . S
H561 C570 0.930 . S
H562 C575 0.929 . S
H563 C573 0.929 . S
H564 C568 0.929 . S
H565 C574 0.929 . S
C566 H560 0.930 . S
C566 C567 1.367 . S
C566 C574 1.378 . S
C567 C566 1.367 . S
C567 C575 1.433 . S
C568 H564 0.929 . S
C568 C570 1.378 . S
C568 C572 1.350 . S
C569 C572 1.463 . S
C569 C574 1.350 . S
C569 N577 1.427 . S
C570 H561 0.930 . S
C570 C568 1.378 . S
C570 C571 1.367 . S
C571 C570 1.367 . S
C571 C573 1.433 . S
C572 C568 1.350 . S
C572 C569 1.463 . S
C572 N576 1.427 . S
C573 H563 0.929 . S
C573 C571 1.433 . S
C573 N576 1.384 . S
C574 H565 0.929 . S
C574 C566 1.378 . S
C574 C569 1.350 . S
C575 H562 0.929 . S
C575 C567 1.433 . S
C575 N577 1.384 . S
N576 C572 1.427 . S
N576 C573 1.384 . S
N577 C569 1.427 . S
N577 C575 1.384 . S
H578 C584 0.930 . S
H579 C588 0.930 . S
H580 C593 0.929 . S
H581 C591 0.929 . S
H582 C586 0.929 . S
H583 C592 0.929 . S
C584 H578 0.930 . S
C584 C585 1.367 . S
C584 C592 1.378 . S
C585 C584 1.367 . S
C585 C593 1.433 . S
C586 H582 0.929 . S
C586 C588 1.378 . S
C586 C590 1.350 . S
C587 C590 1.463 . S
C587 C592 1.350 . S
C587 N595 1.427 . S
C588 H579 0.930 . S
C588 C586 1.378 . S
C588 C589 1.367 . S
C589 C588 1.367 . S
C589 C591 1.433 . S
C590 C586 1.350 . S
C590 C587 1.463 . S
C590 N594 1.427 . S
C591 H581 0.929 . S
C591 C589 1.433 . S
C591 N594 1.384 . S
C592 H583 0.929 . S
C592 C584 1.378 . S
C592 C587 1.350 . S
C593 H580 0.929 . S
C593 C585 1.433 . S
C593 N595 1.384 . S
N594 C590 1.427 . S
N594 C591 1.384 . S
N595 C587 1.427 . S
N595 C593 1.384 . S
H596 C602 0.930 . S
H597 C606 0.930 . S
H598 C611 0.929 1_554 S
H599 C609 0.929 . S
H600 C604 0.929 . S
H601 C610 0.929 . S
C602 H596 0.930 . S
C602 C603 1.367 . S
C602 C610 1.378 . S
C603 C602 1.367 . S
C603 C611 1.433 . S
C604 H600 0.929 . S
C604 C606 1.378 . S
C604 C608 1.350 . S
C605 C608 1.463 . S
C605 C610 1.350 . S
C605 N613 1.427 . S
C606 H597 0.930 . S
C606 C604 1.378 . S
C606 C607 1.367 . S
C607 C606 1.367 . S
C607 C609 1.433 . S
C608 C604 1.350 . S
C608 C605 1.463 . S
C608 N612 1.427 . S
C609 H599 0.929 . S
C609 C607 1.433 . S
C609 N612 1.384 . S
C610 H601 0.929 . S
C610 C602 1.378 . S
C610 C605 1.350 . S
C611 H598 0.929 1_556 S
C611 C603 1.433 . S
C611 N613 1.384 . S
N612 C608 1.427 . S
N612 C609 1.384 . S
N613 C605 1.427 . S
N613 C611 1.384 . S
H614 C620 0.930 1_556 S
H615 C624 0.930 . S
H616 C629 0.929 . S
H617 C627 0.929 . S
H618 C622 0.929 . S
H619 C628 0.929 . S
C620 H614 0.930 1_554 S
C620 C621 1.367 . S
C620 C628 1.378 . S
C621 C620 1.367 . S
C621 C629 1.433 . S
C622 H618 0.929 . S
C622 C624 1.378 . S
C622 C626 1.350 . S
C623 C626 1.463 . S
C623 C628 1.350 . S
C623 N631 1.427 . S
C624 H615 0.930 . S
C624 C622 1.378 . S
C624 C625 1.367 . S
C625 C624 1.367 . S
C625 C627 1.433 . S
C626 C622 1.350 . S
C626 C623 1.463 . S
C626 N630 1.427 . S
C627 H617 0.929 . S
C627 C625 1.433 . S
C627 N630 1.384 . S
C628 H619 0.929 . S
C628 C620 1.378 . S
C628 C623 1.350 . S
C629 H616 0.929 . S
C629 C621 1.433 . S
C629 N631 1.384 . S
N630 C626 1.427 . S
N630 C627 1.384 . S
N631 C623 1.427 . S
N631 C629 1.384 . S
C279 C258 1.429 . S
C283 C20 1.431 . S
C297 C156 1.513 . S
C301 C54 1.507 . S
C315 C190 1.640 . S
C319 C88 1.635 . S
C333 C224 1.543 . S
C337 C122 1.531 . S
C351 C5 1.272 . S
C355 C9 1.242 . S
C369 C43 1.191 . S
C373 C39 1.227 . S
C387 C77 1.241 . S
C391 C73 1.266 . S
C405 C111 1.290 . S
C409 C107 1.302 . S
C423 C145 1.275 . S
C427 C141 1.294 . S
C441 C179 1.296 . S
C445 C175 1.307 . S
C459 C213 1.198 . S
C463 C209 1.234 1_554 S
C477 C243 1.233 . S
C481 C247 1.207 . S
C495 C237 1.429 . S
C499 C2 1.428 1_556 S
C513 C36 1.380 . S
C517 C240 1.381 . S
C531 C169 1.666 . S
C535 C101 1.650 . S
C549 C135 1.676 . S
C553 C203 1.676 . S
C567 C172 1.699 . S
C571 C67 1.700 . S
C585 C70 1.669 . S
C589 C206 1.668 . S
C603 C271 1.572 1_556 S
C607 C104 1.570 . S
C621 C33 1.622 . S
C625 C138 1.617 . S
